# Generated by pormake.
# Topology tzs, (4)-cn, num edge types: 1
# Building blocks:
#     Node 0, Type 0, BuildingBlock: TATPOV_clean_sbu_0, # of connection points: 4
#     Node 1, Type 0, BuildingBlock: TATPOV_clean_sbu_0, # of connection points: 4
#     Node 2, Type 0, BuildingBlock: TATPOV_clean_sbu_0, # of connection points: 4
#     Node 3, Type 0, BuildingBlock: TATPOV_clean_sbu_0, # of connection points: 4
#     Node 4, Type 0, BuildingBlock: TATPOV_clean_sbu_0, # of connection points: 4
#     Node 5, Type 0, BuildingBlock: TATPOV_clean_sbu_0, # of connection points: 4
#     Node 6, Type 0, BuildingBlock: TATPOV_clean_sbu_0, # of connection points: 4
#     Node 7, Type 0, BuildingBlock: TATPOV_clean_sbu_0, # of connection points: 4
#     Node 8, Type 0, BuildingBlock: TATPOV_clean_sbu_0, # of connection points: 4
#     Node 9, Type 0, BuildingBlock: TATPOV_clean_sbu_0, # of connection points: 4
#     Node 10, Type 0, BuildingBlock: TATPOV_clean_sbu_0, # of connection points: 4
#     Node 11, Type 0, BuildingBlock: TATPOV_clean_sbu_0, # of connection points: 4
#     Node 12, Type 0, BuildingBlock: TATPOV_clean_sbu_0, # of connection points: 4
#     Node 13, Type 0, BuildingBlock: TATPOV_clean_sbu_0, # of connection points: 4
#     Node 14, Type 0, BuildingBlock: TATPOV_clean_sbu_0, # of connection points: 4
#     Node 15, Type 0, BuildingBlock: TATPOV_clean_sbu_0, # of connection points: 4
#     Edge 16, Type (0, 0), BuildingBlock: UVAHIK_clean_linker_0, # of connection points: 2
#     Edge 17, Type (0, 0), BuildingBlock: UVAHIK_clean_linker_0, # of connection points: 2
#     Edge 18, Type (0, 0), BuildingBlock: UVAHIK_clean_linker_0, # of connection points: 2
#     Edge 19, Type (0, 0), BuildingBlock: UVAHIK_clean_linker_0, # of connection points: 2
#     Edge 20, Type (0, 0), BuildingBlock: UVAHIK_clean_linker_0, # of connection points: 2
#     Edge 21, Type (0, 0), BuildingBlock: UVAHIK_clean_linker_0, # of connection points: 2
#     Edge 22, Type (0, 0), BuildingBlock: UVAHIK_clean_linker_0, # of connection points: 2
#     Edge 23, Type (0, 0), BuildingBlock: UVAHIK_clean_linker_0, # of connection points: 2
#     Edge 24, Type (0, 0), BuildingBlock: UVAHIK_clean_linker_0, # of connection points: 2
#     Edge 25, Type (0, 0), BuildingBlock: UVAHIK_clean_linker_0, # of connection points: 2
#     Edge 26, Type (0, 0), BuildingBlock: UVAHIK_clean_linker_0, # of connection points: 2
#     Edge 27, Type (0, 0), BuildingBlock: UVAHIK_clean_linker_0, # of connection points: 2
#     Edge 28, Type (0, 0), BuildingBlock: UVAHIK_clean_linker_0, # of connection points: 2
#     Edge 29, Type (0, 0), BuildingBlock: UVAHIK_clean_linker_0, # of connection points: 2
#     Edge 30, Type (0, 0), BuildingBlock: UVAHIK_clean_linker_0, # of connection points: 2
#     Edge 31, Type (0, 0), BuildingBlock: UVAHIK_clean_linker_0, # of connection points: 2
#     Edge 32, Type (0, 0), BuildingBlock: UVAHIK_clean_linker_0, # of connection points: 2
#     Edge 33, Type (0, 0), BuildingBlock: UVAHIK_clean_linker_0, # of connection points: 2
#     Edge 34, Type (0, 0), BuildingBlock: UVAHIK_clean_linker_0, # of connection points: 2
#     Edge 35, Type (0, 0), BuildingBlock: UVAHIK_clean_linker_0, # of connection points: 2
#     Edge 36, Type (0, 0), BuildingBlock: UVAHIK_clean_linker_0, # of connection points: 2
#     Edge 37, Type (0, 0), BuildingBlock: UVAHIK_clean_linker_0, # of connection points: 2
#     Edge 38, Type (0, 0), BuildingBlock: UVAHIK_clean_linker_0, # of connection points: 2
#     Edge 39, Type (0, 0), BuildingBlock: UVAHIK_clean_linker_0, # of connection points: 2
#     Edge 40, Type (0, 0), BuildingBlock: UVAHIK_clean_linker_0, # of connection points: 2
#     Edge 41, Type (0, 0), BuildingBlock: UVAHIK_clean_linker_0, # of connection points: 2
#     Edge 42, Type (0, 0), BuildingBlock: UVAHIK_clean_linker_0, # of connection points: 2
#     Edge 43, Type (0, 0), BuildingBlock: UVAHIK_clean_linker_0, # of connection points: 2
#     Edge 44, Type (0, 0), BuildingBlock: UVAHIK_clean_linker_0, # of connection points: 2
#     Edge 45, Type (0, 0), BuildingBlock: UVAHIK_clean_linker_0, # of connection points: 2
#     Edge 46, Type (0, 0), BuildingBlock: UVAHIK_clean_linker_0, # of connection points: 2
#     Edge 47, Type (0, 0), BuildingBlock: UVAHIK_clean_linker_0, # of connection points: 2
# Relax obj value: 0.048
# Max RMSD: 0.073
# Mean RMSD: 0.073
data_MOF--net-tzs--node1-TATPOV_clean_sbu_0--edge1-UVAHIK_clean_linker_0
_symmetry_space_group_name_H-M    P1
_symmetry_Int_Tables_number       1
_symmetry_cell_setting            triclinic
loop_
_symmetry_equiv_pos_as_xyz
'x, y, z'
_cell_length_a     61.608541
_cell_length_b     61.579637
_cell_length_c     53.477354
_cell_angle_alpha  90.040792
_cell_angle_beta   89.930254
_cell_angle_gamma 89.972853
loop_
_atom_site_label
_atom_site_type_symbol
_atom_site_fract_x
_atom_site_fract_y
_atom_site_fract_z
_atom_type_partial_charge
Zn0 Zn 0.10695 0.37455 0.15841 0.0
Zn1 Zn 0.13103 0.34987 0.18887 0.0
O2 O 0.10024 0.34385 0.202 0.0
O3 O 0.08054 0.36534 0.17818 0.0
O4 O 0.15032 0.33082 0.20968 0.0
O5 O 0.11607 0.35678 0.12867 0.0
O6 O 0.13783 0.33841 0.15346 0.0
C7 C 0.08186 0.35171 0.19586 0.0
C8 C 0.1378 0.39919 0.1871 0.0
O9 O 0.14151 0.38073 0.19695 0.0
O10 O 0.12441 0.40089 0.16924 0.0
C11 C 0.17052 0.33113 0.20487 0.0
O12 O 0.17775 0.3444 0.18752 0.0
C13 C 0.13029 0.3422 0.13174 0.0
Zn14 Zn 0.61815 0.12547 0.13741 0.0
Zn15 Zn 0.64254 0.1497 0.16811 0.0
O16 O 0.65206 0.11866 0.17634 0.0
O17 O 0.63509 0.09879 0.14823 0.0
O18 O 0.6617 0.16788 0.19003 0.0
O19 O 0.62802 0.1435 0.10821 0.0
O20 O 0.65071 0.1608 0.13299 0.0
C21 C 0.64823 0.10028 0.16636 0.0
C22 C 0.59309 0.14913 0.17402 0.0
O23 O 0.61158 0.15677 0.18008 0.0
O24 O 0.59165 0.13504 0.15683 0.0
C25 C 0.66187 0.18835 0.18709 0.0
O26 O 0.64881 0.1971 0.1705 0.0
C27 C 0.64292 0.15737 0.11132 0.0
Zn28 Zn 0.88177 0.62263 0.1285 0.0
Zn29 Zn 0.85458 0.64746 0.15616 0.0
O30 O 0.88455 0.6566 0.16929 0.0
O31 O 0.9069 0.63674 0.14653 0.0
O32 O 0.8336 0.66582 0.17563 0.0
O33 O 0.87074 0.63695 0.09729 0.0
O34 O 0.84751 0.65594 0.11977 0.0
C35 C 0.90376 0.65089 0.16336 0.0
C36 C 0.85227 0.5978 0.15927 0.0
O37 O 0.84625 0.61661 0.16634 0.0
O38 O 0.86688 0.59576 0.14272 0.0
C39 C 0.83275 0.68618 0.17189 0.0
O40 O 0.84626 0.69501 0.15582 0.0
C41 C 0.85558 0.65078 0.09865 0.0
Zn42 Zn 0.36129 0.89095 0.13865 0.0
Zn43 Zn 0.34021 0.86273 0.16879 0.0
O44 O 0.33035 0.89243 0.18239 0.0
O45 O 0.34693 0.91557 0.15738 0.0
O46 O 0.32404 0.8411 0.18985 0.0
O47 O 0.34596 0.87848 0.10878 0.0
O48 O 0.33015 0.85448 0.13327 0.0
C49 C 0.33437 0.91187 0.17566 0.0
C50 C 0.38989 0.86333 0.16756 0.0
O51 O 0.37204 0.85616 0.1763 0.0
O52 O 0.38983 0.87796 0.15088 0.0
C53 C 0.30365 0.83933 0.18704 0.0
O54 O 0.29372 0.85227 0.17122 0.0
C55 C 0.33341 0.86239 0.1116 0.0
Zn56 Zn 0.11348 0.62199 0.3446 0.0
Zn57 Zn 0.14095 0.6471 0.31805 0.0
O58 O 0.11083 0.65593 0.30513 0.0
O59 O 0.08809 0.63546 0.32643 0.0
O60 O 0.1607 0.66704 0.29899 0.0
O61 O 0.12392 0.63602 0.3763 0.0
O62 O 0.14783 0.65488 0.35471 0.0
C63 C 0.09151 0.64994 0.31009 0.0
C64 C 0.14372 0.59773 0.3136 0.0
O65 O 0.14987 0.61657 0.30679 0.0
O66 O 0.12899 0.59565 0.33001 0.0
C67 C 0.18084 0.66834 0.30386 0.0
O68 O 0.18911 0.65581 0.3213 0.0
C69 C 0.13933 0.64959 0.37555 0.0
Zn70 Zn 0.37561 0.12108 0.35179 0.0
Zn71 Zn 0.35164 0.14907 0.32498 0.0
O72 O 0.34028 0.1193 0.31376 0.0
O73 O 0.35781 0.0962 0.33778 0.0
O74 O 0.33286 0.17011 0.30618 0.0
O75 O 0.36671 0.13643 0.3834 0.0
O76 O 0.34517 0.15764 0.36144 0.0
C77 C 0.34394 0.09989 0.32083 0.0
C78 C 0.40094 0.14695 0.31751 0.0
O79 O 0.38263 0.15562 0.31262 0.0
O80 O 0.40215 0.13161 0.33322 0.0
C81 C 0.31267 0.1702 0.31106 0.0
O82 O 0.30502 0.15622 0.3274 0.0
C83 C 0.35283 0.15157 0.38238 0.0
Zn84 Zn 0.85612 0.39601 0.35335 0.0
Zn85 Zn 0.83556 0.36605 0.32518 0.0
O86 O 0.86712 0.35764 0.31915 0.0
O87 O 0.88447 0.38196 0.34179 0.0
O88 O 0.81839 0.34476 0.3049 0.0
O89 O 0.84057 0.38482 0.38398 0.0
O90 O 0.82502 0.35968 0.36087 0.0
C91 C 0.88481 0.36574 0.32714 0.0
C92 C 0.83136 0.41512 0.31401 0.0
O93 O 0.82751 0.39526 0.30902 0.0
O94 O 0.84284 0.42009 0.33279 0.0
C95 C 0.81833 0.32466 0.31022 0.0
O96 O 0.83035 0.31765 0.32882 0.0
C97 C 0.8282 0.36849 0.38209 0.0
Zn98 Zn 0.61626 0.88074 0.32508 0.0
Zn99 Zn 0.64172 0.85437 0.29764 0.0
O100 O 0.65187 0.88471 0.2874 0.0
O101 O 0.63244 0.90671 0.31095 0.0
O102 O 0.66185 0.83496 0.27831 0.0
O103 O 0.62613 0.86611 0.35644 0.0
O104 O 0.64801 0.84537 0.33421 0.0
C105 C 0.6469 0.90385 0.29441 0.0
C106 C 0.59247 0.85398 0.29028 0.0
O107 O 0.61124 0.84706 0.28414 0.0
O108 O 0.59032 0.86818 0.30725 0.0
C109 C 0.66251 0.81467 0.28251 0.0
O110 O 0.64918 0.80627 0.29908 0.0
C111 C 0.64025 0.85123 0.35524 0.0
Zn112 Zn 0.86735 0.60784 0.82549 0.0
Zn113 Zn 0.84894 0.63981 0.79856 0.0
O114 O 0.83758 0.6121 0.78111 0.0
O115 O 0.8515 0.58601 0.80431 0.0
O116 O 0.83414 0.66489 0.78142 0.0
O117 O 0.85316 0.61841 0.85697 0.0
O118 O 0.83885 0.64495 0.83493 0.0
C119 C 0.83995 0.59198 0.78599 0.0
C120 C 0.89837 0.63522 0.79957 0.0
O121 O 0.88134 0.64487 0.79188 0.0
O122 O 0.89678 0.61922 0.81436 0.0
C123 C 0.82334 0.66404 0.76121 0.0
O124 O 0.82189 0.64555 0.74906 0.0
C125 C 0.84145 0.63525 0.85574 0.0
Zn126 Zn 0.38707 0.8688 0.84916 0.0
Zn127 Zn 0.36262 0.84434 0.81887 0.0
O128 O 0.39367 0.83628 0.80796 0.0
O129 O 0.41376 0.85791 0.83115 0.0
O130 O 0.3436 0.82538 0.79758 0.0
O131 O 0.37603 0.85237 0.87904 0.0
O132 O 0.35364 0.83469 0.85429 0.0
C133 C 0.41226 0.84348 0.81434 0.0
C134 C 0.3581 0.89391 0.81835 0.0
O135 O 0.35377 0.87536 0.80905 0.0
O136 O 0.37115 0.8955 0.83656 0.0
C137 C 0.32318 0.82624 0.80079 0.0
O138 O 0.31523 0.84005 0.81717 0.0
C139 C 0.36088 0.83874 0.87609 0.0
Zn140 Zn 0.1339 0.37967 0.8639 0.0
Zn141 Zn 0.15773 0.35211 0.83579 0.0
O142 O 0.16953 0.38208 0.82539 0.0
O143 O 0.1504 0.40466 0.84866 0.0
O144 O 0.17553 0.33098 0.81572 0.0
O145 O 0.14603 0.36609 0.89497 0.0
O146 O 0.16418 0.34251 0.87202 0.0
C147 C 0.16499 0.40135 0.83239 0.0
C148 C 0.10817 0.35388 0.82995 0.0
O149 O 0.12673 0.34664 0.8235 0.0
O150 O 0.10662 0.36782 0.84731 0.0
C151 C 0.1958 0.32935 0.81966 0.0
O152 O 0.20488 0.34205 0.8364 0.0
C153 C 0.15873 0.35 0.89333 0.0
Zn154 Zn 0.62545 0.12375 0.84516 0.0
Zn155 Zn 0.6541 0.14493 0.81646 0.0
O156 O 0.6247 0.15394 0.80111 0.0
O157 O 0.60115 0.13712 0.82536 0.0
O158 O 0.67612 0.16178 0.79663 0.0
O159 O 0.63578 0.13962 0.87555 0.0
O160 O 0.66009 0.15624 0.8522 0.0
C161 C 0.60514 0.14955 0.80708 0.0
C162 C 0.65423 0.09516 0.81794 0.0
O163 O 0.66177 0.11299 0.8095 0.0
O164 O 0.63899 0.09538 0.83388 0.0
C165 C 0.67572 0.18238 0.79803 0.0
O166 O 0.66046 0.19176 0.81142 0.0
C167 C 0.65125 0.15298 0.87339 0.0
Zn168 Zn 0.8957 0.36805 0.63973 0.0
Zn169 Zn 0.86845 0.34783 0.6716 0.0
O170 O 0.85916 0.37945 0.67577 0.0
O171 O 0.88009 0.3963 0.64855 0.0
O172 O 0.84775 0.33117 0.69341 0.0
O173 O 0.88487 0.34984 0.61113 0.0
O174 O 0.86115 0.33525 0.6369 0.0
C175 C 0.86513 0.39683 0.66485 0.0
C176 C 0.91786 0.34627 0.67984 0.0
O177 O 0.89862 0.34141 0.6866 0.0
O178 O 0.92105 0.35738 0.66025 0.0
C179 C 0.84858 0.31055 0.69276 0.0
O180 O 0.86357 0.30113 0.67903 0.0
C181 C 0.86907 0.33715 0.61501 0.0
Zn182 Zn 0.62052 0.88437 0.63535 0.0
Zn183 Zn 0.64823 0.85826 0.65899 0.0
O184 O 0.61851 0.84805 0.67255 0.0
O185 O 0.59574 0.8699 0.65326 0.0
O186 O 0.66931 0.83702 0.67406 0.0
O187 O 0.62966 0.87284 0.60194 0.0
O188 O 0.65347 0.85232 0.62145 0.0
C189 C 0.59916 0.85447 0.6684 0.0
C190 C 0.65038 0.90752 0.66714 0.0
O191 O 0.65718 0.88848 0.67228 0.0
O192 O 0.63533 0.91007 0.65128 0.0
C193 C 0.68173 0.83999 0.6927 0.0
O194 O 0.68119 0.8586 0.7047 0.0
C195 C 0.64469 0.85885 0.60126 0.0
Zn196 Zn 0.13312 0.60287 0.65224 0.0
Zn197 Zn 0.15331 0.63447 0.67805 0.0
O198 O 0.16597 0.60638 0.69311 0.0
O199 O 0.15002 0.58044 0.67151 0.0
O200 O 0.16967 0.65808 0.69586 0.0
O201 O 0.14569 0.61421 0.62012 0.0
O202 O 0.16097 0.64081 0.64122 0.0
C203 C 0.16317 0.58627 0.6884 0.0
C204 C 0.10394 0.63029 0.68105 0.0
O205 O 0.12146 0.63969 0.6876 0.0
O206 O 0.10455 0.61445 0.6659 0.0
C207 C 0.19 0.65926 0.69202 0.0
O208 O 0.19924 0.64481 0.67736 0.0
C209 C 0.15719 0.63123 0.62058 0.0
Zn210 Zn 0.37965 0.11179 0.64994 0.0
Zn211 Zn 0.35735 0.13899 0.67989 0.0
O212 O 0.38911 0.14609 0.68855 0.0
O213 O 0.40752 0.12395 0.66399 0.0
O214 O 0.34019 0.1598 0.70113 0.0
O215 O 0.36719 0.12645 0.6198 0.0
O216 O 0.3481 0.14802 0.64427 0.0
C217 C 0.40716 0.13878 0.68041 0.0
C218 C 0.35173 0.08957 0.68476 0.0
O219 O 0.34768 0.10884 0.69213 0.0
O220 O 0.36445 0.08641 0.66648 0.0
C221 C 0.31979 0.16118 0.69796 0.0
O222 O 0.31042 0.14838 0.68153 0.0
C223 C 0.35377 0.14183 0.6225 0.0
C224 C 0.30631 0.202 0.28274 0.0
C225 C 0.29812 0.18647 0.29952 0.0
C226 C 0.29266 0.21785 0.27262 0.0
C227 C 0.24068 0.24593 0.28412 0.0
H228 H 0.24527 0.26183 0.21418 0.0
C229 C 0.17767 0.30049 0.2346 0.0
C230 C 0.1855 0.31577 0.21729 0.0
C231 C 0.19167 0.28519 0.24519 0.0
C232 C 0.24397 0.25777 0.23383 0.0
H233 H 0.2691 0.17518 0.31852 0.0
H234 H 0.24529 0.20268 0.30068 0.0
H235 H 0.26912 0.2339 0.23113 0.0
H236 H 0.21428 0.32731 0.19801 0.0
H237 H 0.2387 0.3008 0.2167 0.0
H238 H 0.2155 0.26978 0.28681 0.0
C239 C 0.26232 0.20281 0.29562 0.0
C240 C 0.25762 0.24175 0.24353 0.0
C241 C 0.27595 0.18696 0.30572 0.0
C242 C 0.2077 0.3157 0.21119 0.0
C243 C 0.22168 0.30041 0.22178 0.0
C244 C 0.22703 0.26196 0.27443 0.0
C245 C 0.27054 0.21851 0.27908 0.0
C246 C 0.2561 0.23561 0.26877 0.0
C247 C 0.21379 0.28485 0.23871 0.0
C248 C 0.2285 0.26804 0.24916 0.0
H249 H 0.32332 0.2021 0.27761 0.0
H250 H 0.29953 0.22985 0.26011 0.0
H251 H 0.23935 0.24181 0.30375 0.0
H252 H 0.16065 0.30008 0.23966 0.0
H253 H 0.18504 0.27329 0.25799 0.0
C254 C 0.80298 0.2875 0.30286 0.0
C255 C 0.80383 0.30964 0.29657 0.0
C256 C 0.78844 0.2736 0.29077 0.0
C257 C 0.75416 0.26888 0.23418 0.0
H258 H 0.72169 0.22755 0.27413 0.0
C259 C 0.67922 0.22429 0.19582 0.0
C260 C 0.67762 0.20196 0.20086 0.0
C261 C 0.69491 0.23694 0.20773 0.0
C262 C 0.7308 0.23885 0.26269 0.0
H263 H 0.79028 0.33448 0.2724 0.0
H264 H 0.76482 0.31035 0.2516 0.0
H265 H 0.74921 0.25024 0.29397 0.0
H266 H 0.69095 0.17547 0.22278 0.0
H267 H 0.71836 0.19762 0.24356 0.0
H268 H 0.73559 0.25766 0.20297 0.0
C269 C 0.77556 0.30363 0.26562 0.0
C270 C 0.74659 0.25181 0.27403 0.0
C271 C 0.79009 0.3175 0.27767 0.0
C272 C 0.69175 0.19264 0.21848 0.0
C273 C 0.70741 0.20533 0.23046 0.0
C274 C 0.73834 0.25598 0.22287 0.0
C275 C 0.77444 0.28155 0.27215 0.0
C276 C 0.75835 0.26708 0.25993 0.0
C277 C 0.70929 0.22757 0.22502 0.0
C278 C 0.72638 0.24094 0.23703 0.0
H279 H 0.8134 0.28091 0.31729 0.0
H280 H 0.78818 0.25661 0.29599 0.0
H281 H 0.7632 0.2802 0.22271 0.0
H282 H 0.66854 0.23198 0.18241 0.0
H283 H 0.69576 0.25411 0.20344 0.0
C284 C 0.80098 0.68992 0.20089 0.0
C285 C 0.8159 0.6995 0.18433 0.0
C286 C 0.78443 0.70229 0.21169 0.0
C287 C 0.75303 0.75252 0.20211 0.0
H288 H 0.73711 0.74487 0.27172 0.0
C289 C 0.69394 0.8102 0.25321 0.0
C290 C 0.67905 0.80097 0.27006 0.0
C291 C 0.71026 0.79754 0.24241 0.0
C292 C 0.74118 0.747 0.25217 0.0
H293 H 0.82539 0.7297 0.16653 0.0
H294 H 0.79661 0.75131 0.18557 0.0
H295 H 0.7668 0.72357 0.25408 0.0
H296 H 0.66937 0.77108 0.2884 0.0
H297 H 0.69774 0.74893 0.26932 0.0
H298 H 0.72743 0.77594 0.20017 0.0
C299 C 0.79754 0.73415 0.18991 0.0
C300 C 0.75821 0.73482 0.24208 0.0
C301 C 0.81412 0.72179 0.17913 0.0
C302 C 0.68063 0.77871 0.27556 0.0
C303 C 0.69697 0.76604 0.26476 0.0
C304 C 0.736 0.76468 0.21219 0.0
C305 C 0.7824 0.7245 0.20615 0.0
C306 C 0.76436 0.73748 0.21695 0.0
C307 C 0.71208 0.77535 0.2482 0.0
C308 C 0.7299 0.7621 0.23734 0.0
H309 H 0.80188 0.67277 0.20527 0.0
H310 H 0.7729 0.69432 0.22393 0.0
H311 H 0.75713 0.75467 0.18256 0.0
H312 H 0.69322 0.82731 0.2486 0.0
H313 H 0.72178 0.80526 0.22996 0.0
C314 C 0.30204 0.80786 0.21674 0.0
C315 C 0.29145 0.82204 0.20015 0.0
C316 C 0.29068 0.79087 0.22812 0.0
C317 C 0.24198 0.75694 0.22004 0.0
H318 H 0.25004 0.74339 0.29022 0.0
C319 C 0.18528 0.69873 0.27323 0.0
C320 C 0.19448 0.68464 0.29096 0.0
C321 C 0.19784 0.71478 0.26182 0.0
C322 C 0.24784 0.74677 0.27052 0.0
H323 H 0.26054 0.82974 0.18288 0.0
H324 H 0.24074 0.80023 0.20285 0.0
H325 H 0.27046 0.77316 0.2714 0.0
H326 H 0.22424 0.67612 0.31027 0.0
H327 H 0.24625 0.70401 0.29008 0.0
H328 H 0.21938 0.73061 0.21909 0.0
C329 C 0.25789 0.80207 0.2068 0.0
C330 C 0.2595 0.76385 0.25976 0.0
C331 C 0.26921 0.81908 0.19549 0.0
C332 C 0.21663 0.68675 0.29674 0.0
C333 C 0.22922 0.70282 0.2853 0.0
C334 C 0.23037 0.73985 0.23077 0.0
C335 C 0.26853 0.78767 0.22307 0.0
C336 C 0.25656 0.76923 0.23445 0.0
C337 C 0.21993 0.71711 0.26781 0.0
C338 C 0.23302 0.73467 0.25618 0.0
H339 H 0.31918 0.80968 0.22072 0.0
H340 H 0.29936 0.77995 0.24043 0.0
H341 H 0.23967 0.76042 0.20037 0.0
H342 H 0.16825 0.6976 0.26838 0.0
H343 H 0.19009 0.72569 0.24869 0.0
C344 C 0.71152 0.82565 0.72019 0.0
C345 C 0.69716 0.8227 0.70008 0.0
C346 C 0.72635 0.80936 0.72661 0.0
C347 C 0.75377 0.76079 0.7008 0.0
H348 H 0.76277 0.74581 0.77042 0.0
C349 C 0.79748 0.68224 0.73168 0.0
C350 C 0.81114 0.68338 0.75266 0.0
C351 C 0.78486 0.70012 0.72473 0.0
C352 C 0.76068 0.74999 0.7509 0.0
H353 H 0.68699 0.80019 0.67109 0.0
H354 H 0.71259 0.77185 0.68243 0.0
H355 H 0.73823 0.77543 0.75968 0.0
H356 H 0.82276 0.70445 0.78234 0.0
H357 H 0.80094 0.73563 0.77003 0.0
H358 H 0.77608 0.73524 0.692 0.0
C359 C 0.71266 0.78685 0.69302 0.0
C360 C 0.74661 0.76697 0.74476 0.0
C361 C 0.69786 0.80307 0.68664 0.0
C362 C 0.81231 0.70296 0.76615 0.0
C363 C 0.79971 0.72081 0.7592 0.0
C364 C 0.76785 0.74382 0.70694 0.0
C365 C 0.72714 0.78982 0.713 0.0
C366 C 0.74284 0.77243 0.71963 0.0
C367 C 0.78564 0.71953 0.7386 0.0
C368 C 0.77135 0.73812 0.73205 0.0
H369 H 0.71143 0.8406 0.73089 0.0
H370 H 0.73741 0.8122 0.74199 0.0
H371 H 0.75151 0.76485 0.68128 0.0
H372 H 0.79617 0.6674 0.72091 0.0
H373 H 0.77403 0.69852 0.7089 0.0
C374 C 0.22539 0.67841 0.69824 0.0
C375 C 0.20302 0.677 0.70311 0.0
C376 C 0.23768 0.6954 0.70813 0.0
C377 C 0.23801 0.73639 0.75837 0.0
H378 H 0.28187 0.76389 0.71706 0.0
C379 C 0.28619 0.81116 0.79214 0.0
C380 C 0.30866 0.8109 0.78761 0.0
C381 C 0.27262 0.79584 0.78088 0.0
C382 C 0.26981 0.75626 0.72889 0.0
H383 H 0.176 0.69233 0.7223 0.0
H384 H 0.19747 0.7221 0.73948 0.0
H385 H 0.25946 0.73501 0.69957 0.0
H386 H 0.33446 0.79463 0.76724 0.0
H387 H 0.31082 0.76781 0.74777 0.0
H388 H 0.24848 0.75751 0.78776 0.0
C389 C 0.20553 0.70992 0.72817 0.0
C390 C 0.25698 0.73971 0.71888 0.0
C391 C 0.19322 0.69291 0.71824 0.0
C392 C 0.31721 0.79529 0.77112 0.0
C393 C 0.30364 0.77999 0.75985 0.0
C394 C 0.25085 0.75295 0.76838 0.0
C395 C 0.22789 0.7114 0.72314 0.0
C396 C 0.24104 0.72947 0.73356 0.0
C397 C 0.28122 0.77994 0.7648 0.0
C398 C 0.26699 0.76297 0.75381 0.0
H399 H 0.23347 0.66639 0.68671 0.0
H400 H 0.25493 0.69588 0.70423 0.0
H401 H 0.22606 0.72865 0.77027 0.0
H402 H 0.27906 0.82302 0.80466 0.0
H403 H 0.25538 0.79644 0.78479 0.0
C404 C 0.23113 0.31053 0.81122 0.0
C405 C 0.20881 0.3127 0.80642 0.0
C406 C 0.24326 0.29429 0.79942 0.0
C407 C 0.24289 0.25707 0.74513 0.0
H408 H 0.28488 0.22463 0.78412 0.0
C409 C 0.28458 0.17997 0.70702 0.0
C410 C 0.30695 0.17779 0.71149 0.0
C411 C 0.27261 0.19628 0.71889 0.0
C412 C 0.27338 0.23369 0.77291 0.0
H413 H 0.18177 0.29965 0.78524 0.0
H414 H 0.20289 0.27123 0.76484 0.0
H415 H 0.26416 0.25374 0.80385 0.0
H416 H 0.33424 0.19085 0.73224 0.0
H417 H 0.31336 0.21937 0.75284 0.0
H418 H 0.25209 0.237 0.7142 0.0
C419 C 0.21108 0.28222 0.77752 0.0
C420 C 0.26152 0.25039 0.78421 0.0
C421 C 0.19895 0.29845 0.78932 0.0
C422 C 0.31702 0.19206 0.72841 0.0
C423 C 0.30503 0.20835 0.74031 0.0
C424 C 0.25474 0.24037 0.73384 0.0
C425 C 0.23335 0.27986 0.78255 0.0
C426 C 0.24612 0.26226 0.77045 0.0
C427 C 0.28272 0.21075 0.73554 0.0
C428 C 0.2701 0.22847 0.74761 0.0
H429 H 0.23925 0.32128 0.82422 0.0
H430 H 0.26045 0.29311 0.80342 0.0
H431 H 0.2314 0.26612 0.73391 0.0
H432 H 0.2763 0.16921 0.69416 0.0
H433 H 0.25539 0.19749 0.7151 0.0
C434 C 0.71014 0.18558 0.77324 0.0
C435 C 0.69296 0.19558 0.78618 0.0
C436 C 0.72699 0.19802 0.7632 0.0
C437 C 0.75379 0.25133 0.76975 0.0
H438 H 0.77798 0.23761 0.70467 0.0
C439 C 0.81475 0.30733 0.71865 0.0
C440 C 0.83183 0.29734 0.70551 0.0
C441 C 0.79815 0.29484 0.72918 0.0
C442 C 0.77158 0.24148 0.72301 0.0
H443 H 0.67978 0.22655 0.79825 0.0
H444 H 0.70902 0.24825 0.78047 0.0
H445 H 0.74797 0.21607 0.72101 0.0
H446 H 0.84519 0.26635 0.69377 0.0
H447 H 0.81637 0.2446 0.71237 0.0
H448 H 0.77738 0.27678 0.77172 0.0
C449 C 0.70965 0.23075 0.77844 0.0
C450 C 0.75437 0.22915 0.73236 0.0
C451 C 0.69281 0.21832 0.78848 0.0
C452 C 0.83222 0.27457 0.70366 0.0
C453 C 0.81562 0.2621 0.71417 0.0
C454 C 0.771 0.26367 0.7604 0.0
C455 C 0.72703 0.22075 0.76586 0.0
C456 C 0.74526 0.23393 0.75584 0.0
C457 C 0.79826 0.2721 0.7268 0.0
C458 C 0.78011 0.25888 0.73692 0.0
H459 H 0.71078 0.16809 0.77119 0.0
H460 H 0.74024 0.18979 0.75383 0.0
H461 H 0.74737 0.25522 0.78808 0.0
H462 H 0.81395 0.32484 0.72038 0.0
H463 H 0.78491 0.30306 0.7386 0.0
C464 C 0.16896 0.31753 0.91907 0.0
C465 C 0.16696 0.34015 0.91653 0.0
C466 C 0.17325 0.30841 0.94257 0.0
C467 C 0.15887 0.29927 -0.0033 0.0
H468 H 0.19358 0.32881 0.04668 0.0
C469 C 0.12551 0.32863 0.08831 0.0
C470 C 0.13849 0.33025 0.10975 0.0
C471 C 0.1339 0.31992 0.06629 0.0
C472 C 0.18418 0.31982 0.03306 0.0
H473 H 0.16968 0.37103 0.93567 0.0
H474 H 0.17752 0.35531 0.97628 0.0
H475 H 0.20279 0.33252 0.00256 0.0
H476 H 0.17005 0.32288 0.12552 0.0
H477 H 0.18505 0.30816 0.08647 0.0
H478 H 0.13921 0.28801 0.02708 0.0
C479 C 0.17571 0.3445 0.96043 0.0
C480 C 0.1894 0.32206 0.00777 0.0
C481 C 0.17098 0.35353 0.93723 0.0
C482 C 0.15971 0.32186 0.10919 0.0
C483 C 0.16828 0.31344 0.08691 0.0
C484 C 0.15362 0.29708 0.02199 0.0
C485 C 0.17615 0.32186 0.96358 0.0
C486 C 0.17591 0.31301 0.98933 0.0
C487 C 0.15558 0.31288 0.06509 0.0
C488 C 0.16537 0.30855 0.04024 0.0
H489 H 0.1659 0.30691 0.9033 0.0
H490 H 0.17342 0.29091 0.94455 0.0
H491 H 0.14819 0.29207 0.98292 0.0
H492 H 0.10903 0.33478 0.08828 0.0
H493 H 0.12377 0.32004 0.04974 0.0
C494 C 0.64229 0.1716 0.91307 0.0
C495 C 0.65806 0.16538 0.89556 0.0
C496 C 0.6483 0.18158 0.93532 0.0
C497 C 0.68958 0.17808 0.98088 0.0
H498 H 0.65204 0.21987 0.01374 0.0
C499 C 0.67316 0.17427 0.08665 0.0
C500 C 0.651 0.16947 0.0895 0.0
C501 C 0.68086 0.18301 0.06411 0.0
C502 C 0.6631 0.20857 0.00483 0.0
H503 H 0.69242 0.16544 0.88692 0.0
H504 H 0.70318 0.18219 0.92692 0.0
H505 H 0.65383 0.21886 0.96816 0.0
H506 H 0.61932 0.17145 0.07215 0.0
H507 H 0.63252 0.18708 0.03332 0.0
H508 H 0.6972 0.16638 0.01752 0.0
C509 C 0.68612 0.17969 0.92298 0.0
C510 C 0.66413 0.208 0.97878 0.0
C511 C 0.68 0.17011 0.90024 0.0
C512 C 0.6365 0.17488 0.07032 0.0
C513 C 0.64405 0.18405 0.0482 0.0
C514 C 0.68857 0.17868 0.007 0.0
C515 C 0.67028 0.18524 0.94083 0.0
C516 C 0.67611 0.19168 0.96663 0.0
C517 C 0.66635 0.18764 0.04456 0.0
C518 C 0.67407 0.19287 0.01905 0.0
H519 H 0.62525 0.1683 0.90978 0.0
H520 H 0.63575 0.18529 0.94888 0.0
H521 H 0.69895 0.16534 0.97199 0.0
H522 H 0.68463 0.17018 0.10124 0.0
H523 H 0.69813 0.18549 0.06164 0.0
C524 C 0.82803 0.62989 0.89917 0.0
C525 C 0.83155 0.64385 0.87885 0.0
C526 C 0.82136 0.63811 0.92219 0.0
C527 C 0.803 0.65845 0.96888 0.0
H528 H 0.84637 0.69973 0.99114 0.0
C529 C 0.8253 0.66608 0.07271 0.0
C530 C 0.8473 0.66052 0.07538 0.0
C531 C 0.8172 0.67231 0.04931 0.0
C532 C 0.83379 0.68859 0.98517 0.0
H533 H 0.8296 0.67723 0.86617 0.0
H534 H 0.81845 0.69179 0.90695 0.0
H535 H 0.84091 0.69384 0.94652 0.0
H536 H 0.87839 0.65878 0.05649 0.0
H537 H 0.86445 0.6699 0.01603 0.0
H538 H 0.7973 0.65178 0.00759 0.0
C539 C 0.82069 0.67444 0.90486 0.0
C540 C 0.83055 0.6853 0.95961 0.0
C541 C 0.82706 0.66611 0.88159 0.0
C542 C 0.86132 0.66278 0.05487 0.0
C543 C 0.85336 0.66941 0.03176 0.0
C544 C 0.80618 0.6618 -0.00555 0.0
C545 C 0.8183 0.66054 0.92553 0.0
C546 C 0.81613 0.66919 0.95128 0.0
C547 C 0.83113 0.67359 0.02851 0.0
C548 C 0.82259 0.67587 0.00277 0.0
H549 H 0.83116 0.61263 0.89753 0.0
H550 H 0.81998 0.62699 0.9378 0.0
H551 H 0.79156 0.64614 0.96293 0.0
H552 H 0.81419 0.66446 0.08831 0.0
H553 H 0.79998 0.67538 0.04725 0.0
C554 C 0.31929 0.82997 0.08833 0.0
C555 C 0.32357 0.85238 0.08928 0.0
C556 C 0.31365 0.82012 0.06562 0.0
C557 C 0.32618 0.80613 0.0126 0.0
H558 H 0.29575 0.83685 0.95997 0.0
C559 C 0.36365 0.82613 0.92006 0.0
C560 C 0.35117 0.82844 0.89831 0.0
C561 C 0.35404 0.81949 0.94235 0.0
C562 C 0.30386 0.82755 0.97438 0.0
H563 H 0.32333 0.88234 0.06807 0.0
H564 H 0.31338 0.86537 0.02878 0.0
H565 H 0.28684 0.84426 0.00355 0.0
H566 H 0.31914 0.82432 0.88229 0.0
H567 H 0.30203 0.81327 0.92178 0.0
H568 H 0.34435 0.79066 0.98346 0.0
C569 C 0.31438 0.85527 0.04532 0.0
C570 C 0.29885 0.83192 -0.00064 0.0
C571 C 0.32035 0.865 0.06779 0.0
C572 C 0.3291 0.82269 0.89886 0.0
C573 C 0.31933 0.81639 0.9214 0.0
C574 C 0.3312 0.80178 0.98762 0.0
C575 C 0.31178 0.83264 0.04373 0.0
C576 C 0.31103 0.82237 0.01866 0.0
C577 C 0.33163 0.81529 0.9435 0.0
C578 C 0.32113 0.81357 0.96836 0.0
H579 H 0.32162 0.81989 0.1047 0.0
H580 H 0.31173 0.80265 0.06491 0.0
H581 H 0.33582 0.79845 0.02703 0.0
H582 H 0.38074 0.83027 0.9201 0.0
H583 H 0.36393 0.81913 0.95908 0.0
C584 C 0.16836 0.62611 0.57627 0.0
C585 C 0.1657 0.64001 0.59685 0.0
C586 C 0.17408 0.63439 0.55296 0.0
C587 C 0.19165 0.65496 0.50596 0.0
H588 H 0.1478 0.69611 0.48462 0.0
C589 C 0.16945 0.66425 0.40223 0.0
C590 C 0.14746 0.65878 0.39921 0.0
C591 C 0.17741 0.66996 0.42588 0.0
C592 C 0.16049 0.68499 0.49034 0.0
H593 H 0.16798 0.67337 0.60955 0.0
H594 H 0.17737 0.68806 0.56825 0.0
H595 H 0.15361 0.68985 0.52916 0.0
H596 H 0.11627 0.65663 0.41782 0.0
H597 H 0.12997 0.66684 0.45872 0.0
H598 H 0.19723 0.64874 0.46712 0.0
C599 C 0.17525 0.6707 0.57039 0.0
C600 C 0.16392 0.6815 0.51584 0.0
C601 C 0.16989 0.6623 0.59394 0.0
C602 C 0.13333 0.66058 0.41969 0.0
C603 C 0.14115 0.66668 0.44307 0.0
C604 C 0.1883 0.65853 0.48046 0.0
C605 C 0.17698 0.65682 0.54958 0.0
C606 C 0.1786 0.66549 0.52381 0.0
C607 C 0.16336 0.67079 0.44661 0.0
C608 C 0.17176 0.6726 0.47246 0.0
H609 H 0.16543 0.60882 0.57801 0.0
H610 H 0.17495 0.62331 0.53724 0.0
H611 H 0.20326 0.64271 0.51166 0.0
H612 H 0.18066 0.66297 0.38668 0.0
H613 H 0.19461 0.673 0.42816 0.0
C614 C 0.36118 0.1567 0.58049 0.0
C615 C 0.34643 0.15363 0.60014 0.0
C616 C 0.3547 0.16696 0.55861 0.0
C617 C 0.3116 0.16949 0.51675 0.0
H618 H 0.35071 0.20945 0.4834 0.0
C619 C 0.32452 0.16899 0.4096 0.0
C620 C 0.34609 0.16233 0.40571 0.0
C621 C 0.31804 0.177 0.43301 0.0
C622 C 0.33919 0.19876 0.4925 0.0
H623 H 0.31345 0.15917 0.61274 0.0
H624 H 0.30164 0.17634 0.57328 0.0
H625 H 0.3506 0.20727 0.52897 0.0
H626 H 0.37805 0.16004 0.42232 0.0
H627 H 0.367 0.17446 0.46269 0.0
H628 H 0.3019 0.1593 0.4801 0.0
C629 C 0.31836 0.17123 0.57535 0.0
C630 C 0.3391 0.19754 0.51853 0.0
C631 C 0.32508 0.16141 0.59775 0.0
C632 C 0.3613 0.16493 0.42493 0.0
C633 C 0.35501 0.17341 0.44793 0.0
C634 C 0.31169 0.17071 0.49062 0.0
C635 C 0.33321 0.17402 0.55564 0.0
C636 C 0.32648 0.18177 0.5307 0.0
C637 C 0.33326 0.17908 0.45242 0.0
C638 C 0.32667 0.18421 0.47834 0.0
H639 H 0.37778 0.15102 0.58196 0.0
H640 H 0.36636 0.16854 0.54352 0.0
H641 H 0.30179 0.15716 0.52574 0.0
H642 H 0.31251 0.16706 0.39498 0.0
H643 H 0.30115 0.18108 0.43616 0.0
C644 C 0.81801 0.37076 0.42709 0.0
C645 C 0.81939 0.35849 0.40504 0.0
C646 C 0.81374 0.36068 0.44989 0.0
C647 C 0.80158 0.33642 0.49674 0.0
H648 H 0.84632 0.29293 0.50633 0.0
C649 C 0.83617 0.32185 0.59391 0.0
C650 C 0.85848 0.32661 0.59344 0.0
C651 C 0.82526 0.3166 0.57176 0.0
C652 C 0.83343 0.30472 0.50395 0.0
H653 H 0.81573 0.32627 0.38918 0.0
H654 H 0.80866 0.30849 0.42934 0.0
H655 H 0.83541 0.3029 0.4641 0.0
H656 H 0.88728 0.32737 0.57016 0.0
H657 H 0.86844 0.31811 0.53178 0.0
H658 H 0.80104 0.33969 0.53651 0.0
C659 C 0.81082 0.32595 0.42888 0.0
C660 C 0.82704 0.31033 0.47975 0.0
C661 C 0.81481 0.33613 0.40593 0.0
C662 C 0.87004 0.32398 0.57102 0.0
C663 C 0.85924 0.31846 0.54904 0.0
C664 C 0.80794 0.33078 0.52094 0.0
C665 C 0.81098 0.33804 0.45119 0.0
C666 C 0.81205 0.32722 0.47592 0.0
C667 C 0.83658 0.31569 0.54894 0.0
C668 C 0.82492 0.31588 0.52469 0.0
H669 H 0.82131 0.38804 0.42693 0.0
H670 H 0.81423 0.37046 0.46673 0.0
H671 H 0.78974 0.34926 0.49431 0.0
H672 H 0.82687 0.32371 0.61098 0.0
H673 H 0.80782 0.31443 0.57224 0.0
C674 C 0.6353 0.84813 0.55791 0.0
C675 C 0.65084 0.84921 0.57702 0.0
C676 C 0.64058 0.8392 0.5348 0.0
C677 C 0.68173 0.83603 0.48999 0.0
H678 H 0.64151 0.79614 0.45833 0.0
C679 C 0.66873 0.83485 0.38304 0.0
C680 C 0.64698 0.84051 0.37856 0.0
C681 C 0.67507 0.82747 0.40676 0.0
C682 C 0.65324 0.80691 0.46693 0.0
H683 H 0.68409 0.84174 0.58707 0.0
H684 H 0.69369 0.82688 0.54566 0.0
H685 H 0.64221 0.7992 0.50384 0.0
H686 H 0.61462 0.84153 0.39438 0.0
H687 H 0.62544 0.82832 0.43523 0.0
H688 H 0.69114 0.8454 0.45295 0.0
C689 C 0.67731 0.83256 0.54906 0.0
C690 C 0.65366 0.80861 0.49292 0.0
C691 C 0.67183 0.84106 0.57259 0.0
C692 C 0.63151 0.8374 0.39745 0.0
C693 C 0.6377 0.82961 0.42076 0.0
C694 C 0.68123 0.8344 0.46389 0.0
C695 C 0.66162 0.83149 0.53007 0.0
C696 C 0.66693 0.82415 0.50452 0.0
C697 C 0.65959 0.82509 0.42592 0.0
C698 C 0.66593 0.82087 0.45217 0.0
H699 H 0.61895 0.85412 0.56083 0.0
H700 H 0.6283 0.83887 0.52029 0.0
H701 H 0.69202 0.84817 0.49857 0.0
H702 H 0.68093 0.8372 0.3687 0.0
H703 H 0.69206 0.82422 0.41036 0.0
C704 C 0.16087 0.57957 0.2766 0.0
C705 C 0.15228 0.57817 0.30092 0.0
C706 C 0.16581 0.56071 0.26315 0.0
C707 C 0.176 0.50204 0.26755 0.0
H708 H 0.14215 0.49808 0.20669 0.0
C709 C 0.15264 0.42 0.22338 0.0
C710 C 0.14749 0.41903 0.19784 0.0
C711 C 0.15853 0.43972 0.23442 0.0
C712 C 0.15225 0.49891 0.22321 0.0
H713 H 0.1436 0.55605 0.33084 0.0
H714 H 0.1527 0.52317 0.3075 0.0
H715 H 0.14397 0.53229 0.22907 0.0
H716 H 0.14621 0.43743 0.16338 0.0
H717 H 0.15767 0.47155 0.18222 0.0
H718 H 0.18438 0.4687 0.26177 0.0
C719 C 0.1554 0.53882 0.29881 0.0
C720 C 0.15317 0.5186 0.2361 0.0
C721 C 0.15007 0.55763 0.31208 0.0
C722 C 0.1498 0.4378 0.1832 0.0
C723 C 0.15619 0.4574 0.1941 0.0
C724 C 0.17544 0.4824 0.25438 0.0
C725 C 0.16269 0.54017 0.27397 0.0
C726 C 0.1646 0.5202 0.2587 0.0
C727 C 0.15985 0.45885 0.22004 0.0
C728 C 0.16305 0.48039 0.23236 0.0
H729 H 0.16271 0.59517 0.26749 0.0
H730 H 0.17146 0.56214 0.24403 0.0
H731 H 0.18503 0.50294 0.28489 0.0
H732 H 0.1509 0.40579 0.23514 0.0
H733 H 0.16091 0.44008 0.25446 0.0
C734 C 0.57419 0.17065 0.20764 0.0
C735 C 0.57321 0.15592 0.18756 0.0
C736 C 0.55549 0.1757 0.22136 0.0
C737 C 0.49511 0.17074 0.22042 0.0
H738 H 0.50109 0.1686 0.29252 0.0
C739 C 0.42011 0.16991 0.28543 0.0
C740 C 0.42088 0.15407 0.30433 0.0
C741 C 0.43887 0.17535 0.27201 0.0
C742 C 0.49914 0.16928 0.27241 0.0
H743 H 0.55164 0.13554 0.16568 0.0
H744 H 0.51936 0.14397 0.18973 0.0
H745 H 0.53343 0.16844 0.26633 0.0
H746 H 0.44214 0.13206 0.32447 0.0
H747 H 0.47448 0.14119 0.30095 0.0
H748 H 0.4608 0.17017 0.22646 0.0
C749 C 0.53441 0.15194 0.19472 0.0
C750 C 0.5177 0.16947 0.25739 0.0
C751 C 0.55303 0.14693 0.18104 0.0
C752 C 0.4409 0.14431 0.31002 0.0
C753 C 0.45957 0.14972 0.29665 0.0
C754 C 0.47654 0.17043 0.23545 0.0
C755 C 0.53543 0.16615 0.21526 0.0
C756 C 0.5159 0.16952 0.23119 0.0
C757 C 0.45877 0.16509 0.27726 0.0
C758 C 0.47834 0.16901 0.26159 0.0
H759 H 0.58947 0.17796 0.21307 0.0
H760 H 0.55678 0.18689 0.23692 0.0
H761 H 0.49316 0.17119 0.20031 0.0
H762 H 0.40497 0.17782 0.28066 0.0
H763 H 0.43775 0.18742 0.25734 0.0
C764 C 0.83406 0.57977 0.19551 0.0
C765 C 0.84319 0.57829 0.1715 0.0
C766 C 0.82751 0.56108 0.20823 0.0
C767 C 0.83755 0.50166 0.20852 0.0
H768 H 0.79354 0.50285 0.26043 0.0
C769 C 0.82093 0.4276 0.27115 0.0
C770 C 0.8245 0.43238 0.29653 0.0
C771 C 0.81819 0.44436 0.25381 0.0
C772 C 0.80575 0.50228 0.24584 0.0
H773 H 0.85136 0.55626 0.14132 0.0
H774 H 0.83901 0.52372 0.16296 0.0
H775 H 0.7978 0.53409 0.23274 0.0
H776 H 0.8264 0.45828 0.32392 0.0
H777 H 0.82108 0.4875 0.29369 0.0
H778 H 0.84538 0.4698 0.22171 0.0
C779 C 0.83768 0.53919 0.17247 0.0
C780 C 0.80835 0.52021 0.2301 0.0
C781 C 0.84464 0.55786 0.15995 0.0
C782 C 0.82378 0.45412 0.30447 0.0
C783 C 0.82062 0.47083 0.28721 0.0
C784 C 0.83466 0.48362 0.22395 0.0
C785 C 0.82954 0.54046 0.19705 0.0
C786 C 0.82471 0.5204 0.21166 0.0
C787 C 0.8185 0.46613 0.26164 0.0
C788 C 0.81911 0.48397 0.24313 0.0
H789 H 0.83284 0.59529 0.20496 0.0
H790 H 0.8217 0.56281 0.22724 0.0
H791 H 0.85058 0.50121 0.19494 0.0
H792 H 0.82147 0.411 0.26447 0.0
H793 H 0.81651 0.44036 0.23418 0.0
C794 C 0.5724 0.84538 0.25095 0.0
C795 C 0.57292 0.84644 0.27713 0.0
C796 C 0.55266 0.84222 0.23849 0.0
C797 C 0.49362 0.84933 0.25055 0.0
H798 H 0.48793 0.82528 0.18385 0.0
C799 C 0.41119 0.84467 0.20109 0.0
C800 C 0.41073 0.8556 0.17802 0.0
C801 C 0.43096 0.8395 0.21236 0.0
C802 C 0.48935 0.83196 0.20252 0.0
H803 H 0.55393 0.84318 0.31097 0.0
H804 H 0.51987 0.83614 0.28952 0.0
H805 H 0.52267 0.82251 0.20577 0.0
H806 H 0.43064 0.8685 0.14801 0.0
H807 H 0.46522 0.85911 0.16765 0.0
H808 H 0.46027 0.85854 0.24735 0.0
C809 C 0.53428 0.8389 0.27835 0.0
C810 C 0.50925 0.83052 0.21506 0.0
C811 C 0.55383 0.84268 0.29072 0.0
C812 C 0.43046 0.86021 0.16586 0.0
C813 C 0.45024 0.85472 0.17699 0.0
C814 C 0.47372 0.85039 0.23825 0.0
C815 C 0.5332 0.83958 0.25206 0.0
C816 C 0.51173 0.83942 0.23917 0.0
C817 C 0.45065 0.84482 0.20062 0.0
C818 C 0.47145 0.84196 0.21404 0.0
H819 H 0.58695 0.8484 0.24011 0.0
H820 H 0.55258 0.84302 0.21827 0.0
H821 H 0.49488 0.85698 0.26871 0.0
H822 H 0.3963 0.84086 0.21093 0.0
H823 H 0.43089 0.83177 0.23056 0.0
C824 C 0.8302 0.57862 0.74325 0.0
C825 C 0.83115 0.57516 0.76919 0.0
C826 C 0.82666 0.56113 0.72702 0.0
C827 C 0.81026 0.5033 0.72341 0.0
H828 H 0.86027 0.49718 0.67993 0.0
C829 C 0.84356 0.42004 0.69424 0.0
C830 C 0.85508 0.41784 0.6717 0.0
C831 C 0.83556 0.44027 0.70167 0.0
C832 C 0.84584 0.49869 0.69138 0.0
H833 H 0.82715 0.55134 0.79864 0.0
H834 H 0.82052 0.52101 0.77044 0.0
H835 H 0.85339 0.53166 0.70044 0.0
H836 H 0.86608 0.43484 0.63853 0.0
H837 H 0.85152 0.46998 0.65107 0.0
H838 H 0.80294 0.47017 0.71481 0.0
C839 C 0.82267 0.53707 0.76255 0.0
C840 C 0.84192 0.51854 0.70316 0.0
C841 C 0.82661 0.55441 0.7787 0.0
C842 C 0.85754 0.43608 0.6562 0.0
C843 C 0.84925 0.45626 0.66344 0.0
C844 C 0.81401 0.48349 0.71135 0.0
C845 C 0.82356 0.54007 0.73655 0.0
C846 C 0.82456 0.52081 0.71998 0.0
C847 C 0.83859 0.45875 0.68656 0.0
C848 C 0.83234 0.48068 0.69592 0.0
H849 H 0.83372 0.59447 0.73546 0.0
H850 H 0.82734 0.56385 0.70702 0.0
H851 H 0.79665 0.50469 0.73615 0.0
H852 H 0.84142 0.40629 0.70662 0.0
H853 H 0.82778 0.44153 0.71978 0.0
C854 C 0.58351 0.82929 0.70086 0.0
C855 C 0.58051 0.84475 0.68184 0.0
C856 C 0.56575 0.82171 0.71473 0.0
C857 C 0.5285 0.82308 0.75229 0.0
H858 H 0.47096 0.82017 0.72317 0.0
C859 C 0.45233 0.84528 0.80741 0.0
C860 C 0.43217 0.83597 0.80141 0.0
C861 C 0.47092 0.83988 0.79389 0.0
C862 C 0.48689 0.82043 0.73169 0.0
H863 H 0.55637 0.86367 0.66183 0.0
H864 H 0.52581 0.85093 0.68611 0.0
H865 H 0.50258 0.82132 0.69603 0.0
H866 H 0.416 0.81273 0.77729 0.0
H867 H 0.44866 0.80301 0.75384 0.0
H868 H 0.51279 0.82227 0.78796 0.0
C869 C 0.5417 0.84429 0.69019 0.0
C870 C 0.50505 0.82138 0.71608 0.0
C871 C 0.55934 0.85181 0.67638 0.0
C872 C 0.43125 0.82035 0.78225 0.0
C873 C 0.44995 0.81483 0.76875 0.0
C874 C 0.51034 0.82191 0.76791 0.0
C875 C 0.54467 0.82941 0.7098 0.0
C876 C 0.526 0.8237 0.72618 0.0
C877 C 0.46994 0.82488 0.77409 0.0
C878 C 0.48926 0.82153 0.7578 0.0
H879 H 0.59961 0.82344 0.70544 0.0
H880 H 0.56858 0.81009 0.72957 0.0
H881 H 0.54436 0.82484 0.76075 0.0
H882 H 0.45369 0.85735 0.82206 0.0
H883 H 0.48588 0.84827 0.7983 0.0
C884 C 0.17779 0.43968 0.83398 0.0
C885 C 0.17554 0.42022 0.82057 0.0
C886 C 0.18462 0.4586 0.82198 0.0
C887 C 0.17988 0.49803 0.78969 0.0
H888 H 0.21389 0.49956 0.72869 0.0
C889 C 0.17537 0.54803 0.69468 0.0
C890 C 0.174 0.56945 0.70362 0.0
C891 C 0.18264 0.53135 0.7102 0.0
C892 C 0.20453 0.49939 0.74585 0.0
H893 H 0.17976 0.40489 0.78445 0.0
H894 H 0.19062 0.43808 0.76307 0.0
H895 H 0.21429 0.46694 0.7547 0.0
H896 H 0.18042 0.59044 0.73533 0.0
H897 H 0.19275 0.56107 0.76272 0.0
H898 H 0.16985 0.53029 0.7806 0.0
C899 C 0.18777 0.43876 0.78303 0.0
C900 C 0.20461 0.48068 0.76067 0.0
C901 C 0.18142 0.4197 0.79523 0.0
C902 C 0.18125 0.57408 0.72795 0.0
C903 C 0.18824 0.55729 0.74363 0.0
C904 C 0.18006 0.51678 0.77509 0.0
C905 C 0.18878 0.45862 0.7961 0.0
C906 C 0.19172 0.4795 0.78239 0.0
C907 C 0.18846 0.5357 0.73507 0.0
C908 C 0.19184 0.51742 0.75264 0.0
H909 H 0.17368 0.44042 0.85367 0.0
H910 H 0.18586 0.47338 0.83286 0.0
H911 H 0.1694 0.49775 0.80595 0.0
H912 H 0.17006 0.54399 0.67594 0.0
H913 H 0.18244 0.51485 0.70316 0.0
C914 C 0.42931 0.15551 0.71462 0.0
C915 C 0.42789 0.14721 0.69024 0.0
C916 C 0.44945 0.16144 0.72456 0.0
C917 C 0.50808 0.15042 0.7148 0.0
H918 H 0.51448 0.19287 0.76785 0.0
C919 C 0.58916 0.16165 0.76633 0.0
C920 C 0.58681 0.15774 0.79206 0.0
C921 C 0.57089 0.16587 0.75156 0.0
C922 C 0.51293 0.18112 0.75288 0.0
H923 H 0.44605 0.14004 0.65649 0.0
H924 H 0.48092 0.15131 0.67329 0.0
H925 H 0.47997 0.19004 0.7456 0.0
H926 H 0.56391 0.15683 0.82287 0.0
H927 H 0.53219 0.16462 0.79722 0.0
H928 H 0.54099 0.14145 0.72227 0.0
C929 C 0.46676 0.1524 0.68524 0.0
C930 C 0.49313 0.17933 0.74026 0.0
C931 C 0.44674 0.14605 0.67552 0.0
C932 C 0.56616 0.15964 0.80304 0.0
C933 C 0.54802 0.16425 0.7884 0.0
C934 C 0.52792 0.15246 0.72712 0.0
C935 C 0.46853 0.15959 0.71013 0.0
C936 C 0.49026 0.16353 0.72151 0.0
C937 C 0.55011 0.16671 0.76242 0.0
C938 C 0.53037 0.16742 0.7467 0.0
H939 H 0.41501 0.15653 0.72638 0.0
H940 H 0.4501 0.16662 0.74389 0.0
H941 H 0.5065 0.13778 0.70085 0.0
H942 H 0.60489 0.16025 0.7574 0.0
H943 H 0.57289 0.16777 0.73155 0.0
C944 C 0.6521 0.05465 0.81578 0.0
C945 C 0.66143 0.07413 0.80724 0.0
C946 C 0.65573 0.03522 0.80303 0.0
C947 C 0.68843 0.00686 0.7553 0.0
H948 H 0.63317 0.98116 0.73707 0.0
C949 C 0.67267 0.92445 0.70154 0.0
C950 C 0.65811 0.92666 0.68142 0.0
C951 C 0.67703 0.94215 0.71727 0.0
C952 C 0.64872 0.98811 0.74211 0.0
H953 H 0.68334 0.08808 0.77981 0.0
H954 H 0.68965 0.05395 0.75751 0.0
H955 H 0.634 0.01176 0.76591 0.0
H956 H 0.63796 0.94962 0.6611 0.0
H957 H 0.64532 0.98009 0.68869 0.0
H958 H 0.70299 0.98298 0.73109 0.0
C959 C 0.67951 0.05385 0.77408 0.0
C960 C 0.64923 0.00549 0.75876 0.0
C961 C 0.67581 0.07339 0.7868 0.0
C962 C 0.64909 0.94721 0.67652 0.0
C963 C 0.65326 0.96471 0.69231 0.0
C964 C 0.68794 0.9891 0.73885 0.0
C965 C 0.66883 0.03476 0.78154 0.0
C966 C 0.66903 0.01522 0.76534 0.0
C967 C 0.66674 0.96219 0.71321 0.0
C968 C 0.668 0.97988 0.73184 0.0
H969 H 0.64115 0.05454 0.83163 0.0
H970 H 0.64753 0.02066 0.80938 0.0
H971 H 0.70389 0.01409 0.7601 0.0
H972 H 0.67995 0.90887 0.70578 0.0
H973 H 0.68748 0.93988 0.73334 0.0
C974 C 0.93878 0.63096 0.79855 0.0
C975 C 0.92002 0.64156 0.7899 0.0
C976 C 0.95896 0.6351 0.78766 0.0
C977 C 0.98252 0.65278 0.72816 0.0
H978 H 0.03633 0.65044 0.76561 0.0
C979 C 0.08187 0.65252 0.71128 0.0
C980 C 0.08285 0.63706 0.69194 0.0
C981 C 0.06206 0.6575 0.7228 0.0
C982 C 0.02148 0.65148 0.75486 0.0
H983 H 0.90798 0.66564 0.76375 0.0
H984 H 0.94333 0.67296 0.74481 0.0
H985 H 0.00181 0.65204 0.78789 0.0
H986 H 0.06361 0.61529 0.66897 0.0
H987 H 0.02929 0.62381 0.68909 0.0
H988 H 0.00217 0.65196 0.69514 0.0
C989 C 0.94231 0.66122 0.75984 0.0
C990 C 0.00168 0.65216 0.76764 0.0
C991 C 0.92208 0.6571 0.77079 0.0
C992 C 0.06349 0.62725 0.68384 0.0
C993 C 0.04374 0.63227 0.69526 0.0
C994 C 0.00231 0.6521 0.71539 0.0
C995 C 0.96091 0.64995 0.76783 0.0
C996 C 0.98195 0.65227 0.75444 0.0
C997 C 0.0428 0.64721 0.71511 0.0
C998 C 0.022 0.65088 0.72859 0.0
H999 H 0.93782 0.61892 0.81326 0.0
H1000 H 0.97287 0.62592 0.79409 0.0
H1001 H 0.96765 0.65271 0.71739 0.0
H1002 H 0.09646 0.66043 0.71794 0.0
H1003 H 0.06184 0.66924 0.73788 0.0
C1004 C 0.33682 0.07285 0.72387 0.0
C1005 C 0.34328 0.07068 0.69877 0.0
C1006 C 0.3322 0.05444 0.73824 0.0
C1007 C 0.31996 0.99584 0.73602 0.0
H1008 H 0.35681 0.99242 0.79456 0.0
C1009 C 0.3435 0.91429 0.78156 0.0
C1010 C 0.34919 0.91387 0.80696 0.0
C1011 C 0.3379 0.93388 0.77001 0.0
C1012 C 0.34593 0.99314 0.77871 0.0
H1013 H 0.34841 0.0477 0.66857 0.0
H1014 H 0.33999 0.01566 0.69356 0.0
H1015 H 0.35458 0.02616 0.77135 0.0
H1016 H 0.35189 0.93321 0.84067 0.0
H1017 H 0.34111 0.96713 0.82094 0.0
H1018 H 0.31131 0.96279 0.74327 0.0
C1019 C 0.33865 0.03154 0.70215 0.0
C1020 C 0.34474 0.01255 0.76534 0.0
C1021 C 0.34361 0.04988 0.6879 0.0
C1022 C 0.34788 0.93312 0.82095 0.0
C1023 C 0.34185 0.95261 0.80955 0.0
C1024 C 0.32086 0.97646 0.74965 0.0
C1025 C 0.33357 0.03359 0.72765 0.0
C1026 C 0.33215 0.01395 0.74356 0.0
C1027 C 0.33748 0.95342 0.78374 0.0
C1028 C 0.33428 0.97468 0.77085 0.0
H1029 H 0.33641 0.08865 0.73278 0.0
H1030 H 0.3282 0.05644 0.75784 0.0
H1031 H 0.31002 0.99656 0.71935 0.0
H1032 H 0.34444 0.8997 0.77029 0.0
H1033 H 0.33493 0.93378 0.75007 0.0
C1034 C 0.0677 0.35141 0.82579 0.0
C1035 C 0.0885 0.34713 0.81609 0.0
C1036 C 0.04916 0.34687 0.81167 0.0
C1037 C 0.03171 0.3453 0.74735 0.0
H1038 H 0.98011 0.31633 0.77205 0.0
C1039 C 0.93481 0.33918 0.72158 0.0
C1040 C 0.93666 0.34024 0.69545 0.0
C1041 C 0.95334 0.33661 0.73644 0.0
C1042 C 0.99428 0.32468 0.76493 0.0
H1043 H 0.10611 0.33407 0.78429 0.0
H1044 H 0.0737 0.3266 0.75945 0.0
H1045 H 0.01248 0.31837 0.79838 0.0
H1046 H 0.95895 0.33781 0.66422 0.0
H1047 H 0.991 0.33208 0.68986 0.0
H1048 H 0.01357 0.3528 0.7146 0.0
C1049 C 0.07181 0.33335 0.77804 0.0
C1050 C 0.01284 0.32571 0.77998 0.0
C1051 C 0.09033 0.33756 0.79231 0.0
C1052 C 0.95712 0.33735 0.68437 0.0
C1053 C 0.97552 0.33427 0.69913 0.0
C1054 C 0.01312 0.34463 0.73251 0.0
C1055 C 0.05109 0.33827 0.78744 0.0
C1056 C 0.0317 0.33606 0.7713 0.0
C1057 C 0.97404 0.33461 0.72541 0.0
C1058 C 0.99409 0.33434 0.74105 0.0
H1059 H 0.06575 0.35869 0.84411 0.0
H1060 H 0.03337 0.35093 0.81927 0.0
H1061 H 0.04593 0.35372 0.74039 0.0
H1062 H 0.91922 0.34149 0.73059 0.0
H1063 H 0.95146 0.33718 0.75655 0.0
C1064 C 0.32363 0.08448 0.28436 0.0
C1065 C 0.33358 0.08144 0.30774 0.0
C1066 C 0.31692 0.06661 0.27022 0.0
C1067 C 0.30555 0.00774 0.27143 0.0
H1068 H 0.33325 0.00781 0.20634 0.0
C1069 C 0.32343 0.92918 0.21606 0.0
C1070 C 0.32573 0.93042 0.18999 0.0
C1071 C 0.31887 0.94788 0.22999 0.0
C1072 C 0.32483 0.00757 0.22412 0.0
H1073 H 0.34276 0.0574 0.33544 0.0
H1074 H 0.33085 0.02626 0.3108 0.0
H1075 H 0.3342 0.0403 0.23183 0.0
H1076 H 0.32315 0.95153 0.15777 0.0
H1077 H 0.31394 0.98383 0.18178 0.0
H1078 H 0.29626 0.97491 0.26378 0.0
C1079 C 0.32834 0.04244 0.30339 0.0
C1080 C 0.32548 0.02627 0.2388 0.0
C1081 C 0.3353 0.06027 0.31741 0.0
C1082 C 0.32179 0.95024 0.17792 0.0
C1083 C 0.3167 0.96879 0.19175 0.0
C1084 C 0.30458 0.98906 0.25654 0.0
C1085 C 0.31975 0.0454 0.27933 0.0
C1086 C 0.31626 0.02642 0.26279 0.0
C1087 C 0.31607 0.96809 0.21805 0.0
C1088 C 0.31464 0.98857 0.23288 0.0
H1089 H 0.32199 0.10057 0.27642 0.0
H1090 H 0.31019 0.06932 0.25177 0.0
H1091 H 0.29821 0.00751 0.28985 0.0
H1092 H 0.3265 0.91407 0.2258 0.0
H1093 H 0.31873 0.94664 0.25018 0.0
C1094 C 0.92529 0.36799 0.32379 0.0
C1095 C 0.90585 0.35714 0.31808 0.0
C1096 C 0.94488 0.36135 0.31308 0.0
C1097 C 0.98625 0.34071 0.29399 0.0
H1098 H 0.98262 0.32883 0.22292 0.0
C1099 C 0.06301 0.33352 0.23198 0.0
C1100 C 0.06197 0.3458 0.20985 0.0
C1101 C 0.04421 0.32961 0.24604 0.0
C1102 C 0.98393 0.33204 0.24278 0.0
H1103 H 0.89198 0.32993 0.29784 0.0
H1104 H 0.92626 0.31813 0.27947 0.0
H1105 H 0.94951 0.33194 0.24739 0.0
H1106 H 0.04025 0.3629 0.18469 0.0
H1107 H 0.0078 0.35632 0.20916 0.0
H1108 H 0.02069 0.34218 0.28895 0.0
C1109 C 0.92626 0.33208 0.29181 0.0
C1110 C 0.96492 0.33356 0.25691 0.0
C1111 C 0.90662 0.3388 0.30242 0.0
C1112 C 0.04168 0.35342 0.20166 0.0
C1113 C 0.02298 0.34947 0.21561 0.0
C1114 C 0.00528 0.33928 0.27981 0.0
C1115 C 0.94554 0.3436 0.29652 0.0
C1116 C 0.96582 0.33856 0.28254 0.0
C1117 C 0.02403 0.33778 0.23813 0.0
C1118 C 0.00428 0.33562 0.25389 0.0
H1119 H 0.9253 0.38215 0.3358 0.0
H1120 H 0.95931 0.3708 0.3169 0.0
H1121 H 0.98753 0.3442 0.31378 0.0
H1122 H 0.07838 0.32737 0.23877 0.0
H1123 H 0.04551 0.3204 0.26322 0.0
C1124 C 0.65506 0.9436 0.29255 0.0
C1125 C 0.65656 0.92285 0.28173 0.0
C1126 C 0.66152 0.96196 0.27915 0.0
C1127 C 0.66112 0.98116 0.21612 0.0
H1128 H 0.69337 0.03043 0.24166 0.0
C1129 C 0.65982 0.06152 0.16264 0.0
C1130 C 0.65756 0.08034 0.17723 0.0
C1131 C 0.66596 0.0419 0.17365 0.0
C1132 C 0.68418 0.0169 0.23429 0.0
H1133 H 0.667 0.90494 0.24889 0.0
H1134 H 0.67773 0.93718 0.22523 0.0
H1135 H 0.69276 0.99647 0.26527 0.0
H1136 H 0.66078 0.09367 0.21454 0.0
H1137 H 0.6703 0.05936 0.23403 0.0
H1138 H 0.65104 0.00163 0.18626 0.0
C1139 C 0.67174 0.93913 0.24416 0.0
C1140 C 0.684 0.99742 0.24774 0.0
C1141 C 0.66564 0.92072 0.25772 0.0
C1142 C 0.66249 0.07941 0.20282 0.0
C1143 C 0.66811 0.05968 0.21396 0.0
C1144 C 0.66092 0.00069 0.20294 0.0
C1145 C 0.66926 0.95992 0.25456 0.0
C1146 C 0.67216 0.97953 0.23896 0.0
C1147 C 0.66937 0.04051 0.19963 0.0
C1148 C 0.67208 0.019 0.21207 0.0
H1149 H 0.64825 0.94573 0.31108 0.0
H1150 H 0.65929 0.97784 0.28751 0.0
H1151 H 0.65159 0.96767 0.20914 0.0
H1152 H 0.65641 0.06188 0.14277 0.0
H1153 H 0.66739 0.02769 0.16183 0.0
C1154 C 0.07633 0.66773 0.27184 0.0
C1155 C 0.07305 0.65873 0.29569 0.0
C1156 C 0.05858 0.67329 0.25687 0.0
C1157 C 0.01848 0.66209 0.22566 0.0
H1158 H 0.96732 0.69349 0.24759 0.0
C1159 C 0.9214 0.664 0.20261 0.0
C1160 C 0.92261 0.65972 0.17688 0.0
C1161 C 0.94018 0.6691 0.21606 0.0
C1162 C 0.98139 0.68452 0.24122 0.0
H1163 H 0.04875 0.6499 0.32325 0.0
H1164 H 0.01781 0.65997 0.29723 0.0
H1165 H -0.0003 0.69295 0.27396 0.0
H1166 H 0.94381 0.65921 0.14457 0.0
H1167 H 0.97628 0.66941 0.16759 0.0
H1168 H 0.00012 0.65221 0.19397 0.0
C1169 C 0.03406 0.66257 0.29008 0.0
C1170 C -4e-05 0.68438 0.25626 0.0
C1171 C 0.05177 0.65666 0.30487 0.0
C1172 C 0.94255 0.66212 0.16451 0.0
C1173 C 0.96118 0.66778 0.17779 0.0
C1174 C -0.00015 0.66186 0.21089 0.0
C1175 C 0.03731 0.67034 0.2657 0.0
C1176 C 0.01856 0.67292 0.24872 0.0
C1177 C 0.96045 0.67051 0.20392 0.0
C1178 C 0.9809 0.6728 0.21859 0.0
H1179 H 0.09254 0.66952 0.26426 0.0
H1180 H 0.06146 0.67931 0.23813 0.0
H1181 H 0.0325 0.65282 0.21962 0.0
H1182 H 0.90619 0.66215 0.21258 0.0
H1183 H 0.93888 0.67082 0.23615 0.0
loop_
_geom_bond_atom_site_label_1
_geom_bond_atom_site_label_2
_geom_bond_distance
_geom_bond_site_symmetry_2
_ccdc_geom_bond_type
Zn0 O3 2.031 . S
Zn0 O5 2.049 . S
Zn0 O10 2.067 . S
Zn1 O2 1.962 . S
Zn1 O4 1.986 . S
Zn1 O6 1.996 . S
Zn1 O9 1.943 . S
O2 Zn1 1.962 . S
O2 C7 1.254 . S
O3 Zn0 2.031 . S
O3 C7 1.269 . S
O4 Zn1 1.986 . S
O4 C11 1.262 . S
O5 Zn0 2.049 . S
O5 C13 1.260 . S
O6 Zn1 1.996 . S
O6 C13 1.257 . S
C7 O2 1.254 . S
C7 O3 1.269 . S
C8 O9 1.249 . S
C8 O10 1.270 . S
O9 Zn1 1.943 . S
O9 C8 1.249 . S
O10 Zn0 2.067 . S
O10 C8 1.270 . S
C11 O4 1.262 . S
C11 O12 1.232 . S
O12 C11 1.232 . S
C13 O5 1.260 . S
C13 O6 1.257 . S
Zn14 O17 2.031 . S
Zn14 O19 2.049 . S
Zn14 O24 2.067 . S
Zn15 O16 1.962 . S
Zn15 O18 1.986 . S
Zn15 O20 1.996 . S
Zn15 O23 1.943 . S
O16 Zn15 1.962 . S
O16 C21 1.254 . S
O17 Zn14 2.031 . S
O17 C21 1.269 . S
O18 Zn15 1.986 . S
O18 C25 1.262 . S
O19 Zn14 2.049 . S
O19 C27 1.260 . S
O20 Zn15 1.996 . S
O20 C27 1.257 . S
C21 O16 1.254 . S
C21 O17 1.269 . S
C22 O23 1.249 . S
C22 O24 1.270 . S
O23 Zn15 1.943 . S
O23 C22 1.249 . S
O24 Zn14 2.067 . S
O24 C22 1.270 . S
C25 O18 1.262 . S
C25 O26 1.232 . S
O26 C25 1.232 . S
C27 O19 1.260 . S
C27 O20 1.257 . S
Zn28 O31 2.031 . S
Zn28 O33 2.049 . S
Zn28 O38 2.067 . S
Zn29 O30 1.962 . S
Zn29 O32 1.986 . S
Zn29 O34 1.996 . S
Zn29 O37 1.943 . S
O30 Zn29 1.962 . S
O30 C35 1.254 . S
O31 Zn28 2.031 . S
O31 C35 1.269 . S
O32 Zn29 1.986 . S
O32 C39 1.262 . S
O33 Zn28 2.049 . S
O33 C41 1.260 . S
O34 Zn29 1.996 . S
O34 C41 1.257 . S
C35 O30 1.254 . S
C35 O31 1.269 . S
C36 O37 1.249 . S
C36 O38 1.270 . S
O37 Zn29 1.943 . S
O37 C36 1.249 . S
O38 Zn28 2.067 . S
O38 C36 1.270 . S
C39 O32 1.262 . S
C39 O40 1.232 . S
O40 C39 1.232 . S
C41 O33 1.260 . S
C41 O34 1.257 . S
Zn42 O45 2.031 . S
Zn42 O47 2.049 . S
Zn42 O52 2.067 . S
Zn43 O44 1.962 . S
Zn43 O46 1.986 . S
Zn43 O48 1.996 . S
Zn43 O51 1.943 . S
O44 Zn43 1.962 . S
O44 C49 1.254 . S
O45 Zn42 2.031 . S
O45 C49 1.269 . S
O46 Zn43 1.986 . S
O46 C53 1.262 . S
O47 Zn42 2.049 . S
O47 C55 1.260 . S
O48 Zn43 1.996 . S
O48 C55 1.257 . S
C49 O44 1.254 . S
C49 O45 1.269 . S
C50 O51 1.249 . S
C50 O52 1.270 . S
O51 Zn43 1.943 . S
O51 C50 1.249 . S
O52 Zn42 2.067 . S
O52 C50 1.270 . S
C53 O46 1.262 . S
C53 O54 1.232 . S
O54 C53 1.232 . S
C55 O47 1.260 . S
C55 O48 1.257 . S
Zn56 O59 2.031 . S
Zn56 O61 2.049 . S
Zn56 O66 2.067 . S
Zn57 O58 1.962 . S
Zn57 O60 1.986 . S
Zn57 O62 1.996 . S
Zn57 O65 1.943 . S
O58 Zn57 1.962 . S
O58 C63 1.254 . S
O59 Zn56 2.031 . S
O59 C63 1.269 . S
O60 Zn57 1.986 . S
O60 C67 1.262 . S
O61 Zn56 2.049 . S
O61 C69 1.260 . S
O62 Zn57 1.996 . S
O62 C69 1.257 . S
C63 O58 1.254 . S
C63 O59 1.269 . S
C64 O65 1.249 . S
C64 O66 1.270 . S
O65 Zn57 1.943 . S
O65 C64 1.249 . S
O66 Zn56 2.067 . S
O66 C64 1.270 . S
C67 O60 1.262 . S
C67 O68 1.232 . S
O68 C67 1.232 . S
C69 O61 1.260 . S
C69 O62 1.257 . S
Zn70 O73 2.031 . S
Zn70 O75 2.049 . S
Zn70 O80 2.067 . S
Zn71 O72 1.962 . S
Zn71 O74 1.986 . S
Zn71 O76 1.996 . S
Zn71 O79 1.943 . S
O72 Zn71 1.962 . S
O72 C77 1.254 . S
O73 Zn70 2.031 . S
O73 C77 1.269 . S
O74 Zn71 1.986 . S
O74 C81 1.262 . S
O75 Zn70 2.049 . S
O75 C83 1.260 . S
O76 Zn71 1.996 . S
O76 C83 1.257 . S
C77 O72 1.254 . S
C77 O73 1.269 . S
C78 O79 1.249 . S
C78 O80 1.270 . S
O79 Zn71 1.943 . S
O79 C78 1.249 . S
O80 Zn70 2.067 . S
O80 C78 1.270 . S
C81 O74 1.262 . S
C81 O82 1.232 . S
O82 C81 1.232 . S
C83 O75 1.260 . S
C83 O76 1.257 . S
Zn84 O87 2.031 . S
Zn84 O89 2.049 . S
Zn84 O94 2.067 . S
Zn85 O86 1.962 . S
Zn85 O88 1.986 . S
Zn85 O90 1.996 . S
Zn85 O93 1.943 . S
O86 Zn85 1.962 . S
O86 C91 1.254 . S
O87 Zn84 2.031 . S
O87 C91 1.269 . S
O88 Zn85 1.986 . S
O88 C95 1.262 . S
O89 Zn84 2.049 . S
O89 C97 1.260 . S
O90 Zn85 1.996 . S
O90 C97 1.257 . S
C91 O86 1.254 . S
C91 O87 1.269 . S
C92 O93 1.249 . S
C92 O94 1.270 . S
O93 Zn85 1.943 . S
O93 C92 1.249 . S
O94 Zn84 2.067 . S
O94 C92 1.270 . S
C95 O88 1.262 . S
C95 O96 1.232 . S
O96 C95 1.232 . S
C97 O89 1.260 . S
C97 O90 1.257 . S
Zn98 O101 2.031 . S
Zn98 O103 2.049 . S
Zn98 O108 2.067 . S
Zn99 O100 1.962 . S
Zn99 O102 1.986 . S
Zn99 O104 1.996 . S
Zn99 O107 1.943 . S
O100 Zn99 1.962 . S
O100 C105 1.254 . S
O101 Zn98 2.031 . S
O101 C105 1.269 . S
O102 Zn99 1.986 . S
O102 C109 1.262 . S
O103 Zn98 2.049 . S
O103 C111 1.260 . S
O104 Zn99 1.996 . S
O104 C111 1.257 . S
C105 O100 1.254 . S
C105 O101 1.269 . S
C106 O107 1.249 . S
C106 O108 1.270 . S
O107 Zn99 1.943 . S
O107 C106 1.249 . S
O108 Zn98 2.067 . S
O108 C106 1.270 . S
C109 O102 1.262 . S
C109 O110 1.232 . S
O110 C109 1.232 . S
C111 O103 1.260 . S
C111 O104 1.257 . S
Zn112 O115 2.031 . S
Zn112 O117 2.049 . S
Zn112 O122 2.067 . S
Zn113 O114 1.962 . S
Zn113 O116 1.986 . S
Zn113 O118 1.996 . S
Zn113 O121 1.943 . S
O114 Zn113 1.962 . S
O114 C119 1.254 . S
O115 Zn112 2.031 . S
O115 C119 1.269 . S
O116 Zn113 1.986 . S
O116 C123 1.262 . S
O117 Zn112 2.049 . S
O117 C125 1.260 . S
O118 Zn113 1.996 . S
O118 C125 1.257 . S
C119 O114 1.254 . S
C119 O115 1.269 . S
C120 O121 1.249 . S
C120 O122 1.270 . S
O121 Zn113 1.943 . S
O121 C120 1.249 . S
O122 Zn112 2.067 . S
O122 C120 1.270 . S
C123 O116 1.262 . S
C123 O124 1.232 . S
O124 C123 1.232 . S
C125 O117 1.260 . S
C125 O118 1.257 . S
Zn126 O129 2.031 . S
Zn126 O131 2.049 . S
Zn126 O136 2.067 . S
Zn127 O128 1.962 . S
Zn127 O130 1.986 . S
Zn127 O132 1.996 . S
Zn127 O135 1.943 . S
O128 Zn127 1.962 . S
O128 C133 1.254 . S
O129 Zn126 2.031 . S
O129 C133 1.269 . S
O130 Zn127 1.986 . S
O130 C137 1.262 . S
O131 Zn126 2.049 . S
O131 C139 1.260 . S
O132 Zn127 1.996 . S
O132 C139 1.257 . S
C133 O128 1.254 . S
C133 O129 1.269 . S
C134 O135 1.249 . S
C134 O136 1.270 . S
O135 Zn127 1.943 . S
O135 C134 1.249 . S
O136 Zn126 2.067 . S
O136 C134 1.270 . S
C137 O130 1.262 . S
C137 O138 1.232 . S
O138 C137 1.232 . S
C139 O131 1.260 . S
C139 O132 1.257 . S
Zn140 O143 2.031 . S
Zn140 O145 2.049 . S
Zn140 O150 2.067 . S
Zn141 O142 1.962 . S
Zn141 O144 1.986 . S
Zn141 O146 1.996 . S
Zn141 O149 1.943 . S
O142 Zn141 1.962 . S
O142 C147 1.254 . S
O143 Zn140 2.031 . S
O143 C147 1.269 . S
O144 Zn141 1.986 . S
O144 C151 1.262 . S
O145 Zn140 2.049 . S
O145 C153 1.260 . S
O146 Zn141 1.996 . S
O146 C153 1.257 . S
C147 O142 1.254 . S
C147 O143 1.269 . S
C148 O149 1.249 . S
C148 O150 1.270 . S
O149 Zn141 1.943 . S
O149 C148 1.249 . S
O150 Zn140 2.067 . S
O150 C148 1.270 . S
C151 O144 1.262 . S
C151 O152 1.232 . S
O152 C151 1.232 . S
C153 O145 1.260 . S
C153 O146 1.257 . S
Zn154 O157 2.031 . S
Zn154 O159 2.049 . S
Zn154 O164 2.067 . S
Zn155 O156 1.962 . S
Zn155 O158 1.986 . S
Zn155 O160 1.996 . S
Zn155 O163 1.943 . S
O156 Zn155 1.962 . S
O156 C161 1.254 . S
O157 Zn154 2.031 . S
O157 C161 1.269 . S
O158 Zn155 1.986 . S
O158 C165 1.262 . S
O159 Zn154 2.049 . S
O159 C167 1.260 . S
O160 Zn155 1.996 . S
O160 C167 1.257 . S
C161 O156 1.254 . S
C161 O157 1.269 . S
C162 O163 1.249 . S
C162 O164 1.270 . S
O163 Zn155 1.943 . S
O163 C162 1.249 . S
O164 Zn154 2.067 . S
O164 C162 1.270 . S
C165 O158 1.262 . S
C165 O166 1.232 . S
O166 C165 1.232 . S
C167 O159 1.260 . S
C167 O160 1.257 . S
Zn168 O171 2.031 . S
Zn168 O173 2.049 . S
Zn168 O178 2.067 . S
Zn169 O170 1.962 . S
Zn169 O172 1.986 . S
Zn169 O174 1.996 . S
Zn169 O177 1.943 . S
O170 Zn169 1.962 . S
O170 C175 1.254 . S
O171 Zn168 2.031 . S
O171 C175 1.269 . S
O172 Zn169 1.986 . S
O172 C179 1.262 . S
O173 Zn168 2.049 . S
O173 C181 1.260 . S
O174 Zn169 1.996 . S
O174 C181 1.257 . S
C175 O170 1.254 . S
C175 O171 1.269 . S
C176 O177 1.249 . S
C176 O178 1.270 . S
O177 Zn169 1.943 . S
O177 C176 1.249 . S
O178 Zn168 2.067 . S
O178 C176 1.270 . S
C179 O172 1.262 . S
C179 O180 1.232 . S
O180 C179 1.232 . S
C181 O173 1.260 . S
C181 O174 1.257 . S
Zn182 O185 2.031 . S
Zn182 O187 2.049 . S
Zn182 O192 2.067 . S
Zn183 O184 1.962 . S
Zn183 O186 1.986 . S
Zn183 O188 1.996 . S
Zn183 O191 1.943 . S
O184 Zn183 1.962 . S
O184 C189 1.254 . S
O185 Zn182 2.031 . S
O185 C189 1.269 . S
O186 Zn183 1.986 . S
O186 C193 1.262 . S
O187 Zn182 2.049 . S
O187 C195 1.260 . S
O188 Zn183 1.996 . S
O188 C195 1.257 . S
C189 O184 1.254 . S
C189 O185 1.269 . S
C190 O191 1.249 . S
C190 O192 1.270 . S
O191 Zn183 1.943 . S
O191 C190 1.249 . S
O192 Zn182 2.067 . S
O192 C190 1.270 . S
C193 O186 1.262 . S
C193 O194 1.232 . S
O194 C193 1.232 . S
C195 O187 1.260 . S
C195 O188 1.257 . S
Zn196 O199 2.031 . S
Zn196 O201 2.049 . S
Zn196 O206 2.067 . S
Zn197 O198 1.962 . S
Zn197 O200 1.986 . S
Zn197 O202 1.996 . S
Zn197 O205 1.943 . S
O198 Zn197 1.962 . S
O198 C203 1.254 . S
O199 Zn196 2.031 . S
O199 C203 1.269 . S
O200 Zn197 1.986 . S
O200 C207 1.262 . S
O201 Zn196 2.049 . S
O201 C209 1.260 . S
O202 Zn197 1.996 . S
O202 C209 1.257 . S
C203 O198 1.254 . S
C203 O199 1.269 . S
C204 O205 1.249 . S
C204 O206 1.270 . S
O205 Zn197 1.943 . S
O205 C204 1.249 . S
O206 Zn196 2.067 . S
O206 C204 1.270 . S
C207 O200 1.262 . S
C207 O208 1.232 . S
O208 C207 1.232 . S
C209 O201 1.260 . S
C209 O202 1.257 . S
Zn210 O213 2.031 . S
Zn210 O215 2.049 . S
Zn210 O220 2.067 . S
Zn211 O212 1.962 . S
Zn211 O214 1.986 . S
Zn211 O216 1.996 . S
Zn211 O219 1.943 . S
O212 Zn211 1.962 . S
O212 C217 1.254 . S
O213 Zn210 2.031 . S
O213 C217 1.269 . S
O214 Zn211 1.986 . S
O214 C221 1.262 . S
O215 Zn210 2.049 . S
O215 C223 1.260 . S
O216 Zn211 1.996 . S
O216 C223 1.257 . S
C217 O212 1.254 . S
C217 O213 1.269 . S
C218 O219 1.249 . S
C218 O220 1.270 . S
O219 Zn211 1.943 . S
O219 C218 1.249 . S
O220 Zn210 2.067 . S
O220 C218 1.270 . S
C221 O214 1.262 . S
C221 O222 1.232 . S
O222 C221 1.232 . S
C223 O215 1.260 . S
C223 O216 1.257 . S
C224 C225 1.349 . S
C224 C226 1.327 . S
C224 H249 0.950 . S
C225 C224 1.349 . S
C225 C241 1.349 . S
C226 C224 1.327 . S
C226 C245 1.429 . S
C226 H250 0.950 . S
C227 C244 1.574 . S
C227 C246 1.368 . S
C227 H251 0.949 . S
H228 C232 0.949 . S
C229 C230 1.349 . S
C229 C231 1.327 . S
C229 H252 0.950 . S
C230 C229 1.349 . S
C230 C242 1.349 . S
C231 C229 1.327 . S
C231 C247 1.429 . S
C231 H253 0.950 . S
C232 H228 0.949 . S
C232 C240 1.574 . S
C232 C248 1.368 . S
H233 C241 0.950 . S
H234 C239 0.950 . S
H235 C240 0.949 . S
H236 C242 0.950 . S
H237 C243 0.950 . S
H238 C244 0.949 . S
C239 H234 0.950 . S
C239 C241 1.327 . S
C239 C245 1.429 . S
C240 C232 1.574 . S
C240 H235 0.949 . S
C240 C246 1.368 . S
C241 C225 1.349 . S
C241 H233 0.950 . S
C241 C239 1.327 . S
C242 C230 1.349 . S
C242 H236 0.950 . S
C242 C243 1.327 . S
C243 H237 0.950 . S
C243 C242 1.327 . S
C243 C247 1.429 . S
C244 C227 1.574 . S
C244 H238 0.949 . S
C244 C248 1.368 . S
C245 C226 1.429 . S
C245 C239 1.429 . S
C245 C246 1.523 . S
C246 C227 1.368 . S
C246 C240 1.368 . S
C246 C245 1.523 . S
C247 C231 1.429 . S
C247 C243 1.429 . S
C247 C248 1.523 . S
C248 C232 1.368 . S
C248 C244 1.368 . S
C248 C247 1.523 . S
H249 C224 0.950 . S
H250 C226 0.950 . S
H251 C227 0.949 . S
H252 C229 0.950 . S
H253 C231 0.950 . S
C254 C255 1.349 . S
C254 C256 1.327 . S
C254 H279 0.950 . S
C255 C254 1.349 . S
C255 C271 1.349 . S
C256 C254 1.327 . S
C256 C275 1.429 . S
C256 H280 0.950 . S
C257 C274 1.574 . S
C257 C276 1.368 . S
C257 H281 0.949 . S
H258 C262 0.949 . S
C259 C260 1.349 . S
C259 C261 1.327 . S
C259 H282 0.950 . S
C260 C259 1.349 . S
C260 C272 1.349 . S
C261 C259 1.327 . S
C261 C277 1.429 . S
C261 H283 0.950 . S
C262 H258 0.949 . S
C262 C270 1.574 . S
C262 C278 1.368 . S
H263 C271 0.950 . S
H264 C269 0.950 . S
H265 C270 0.949 . S
H266 C272 0.950 . S
H267 C273 0.950 . S
H268 C274 0.949 . S
C269 H264 0.950 . S
C269 C271 1.327 . S
C269 C275 1.429 . S
C270 C262 1.574 . S
C270 H265 0.949 . S
C270 C276 1.368 . S
C271 C255 1.349 . S
C271 H263 0.950 . S
C271 C269 1.327 . S
C272 C260 1.349 . S
C272 H266 0.950 . S
C272 C273 1.327 . S
C273 H267 0.950 . S
C273 C272 1.327 . S
C273 C277 1.429 . S
C274 C257 1.574 . S
C274 H268 0.949 . S
C274 C278 1.368 . S
C275 C256 1.429 . S
C275 C269 1.429 . S
C275 C276 1.523 . S
C276 C257 1.368 . S
C276 C270 1.368 . S
C276 C275 1.523 . S
C277 C261 1.429 . S
C277 C273 1.429 . S
C277 C278 1.523 . S
C278 C262 1.368 . S
C278 C274 1.368 . S
C278 C277 1.523 . S
H279 C254 0.950 . S
H280 C256 0.950 . S
H281 C257 0.949 . S
H282 C259 0.950 . S
H283 C261 0.950 . S
C284 C285 1.349 . S
C284 C286 1.327 . S
C284 H309 0.950 . S
C285 C284 1.349 . S
C285 C301 1.349 . S
C286 C284 1.327 . S
C286 C305 1.429 . S
C286 H310 0.950 . S
C287 C304 1.574 . S
C287 C306 1.368 . S
C287 H311 0.949 . S
H288 C292 0.949 . S
C289 C290 1.349 . S
C289 C291 1.327 . S
C289 H312 0.950 . S
C290 C289 1.349 . S
C290 C302 1.349 . S
C291 C289 1.327 . S
C291 C307 1.429 . S
C291 H313 0.950 . S
C292 H288 0.949 . S
C292 C300 1.574 . S
C292 C308 1.368 . S
H293 C301 0.950 . S
H294 C299 0.950 . S
H295 C300 0.949 . S
H296 C302 0.950 . S
H297 C303 0.950 . S
H298 C304 0.949 . S
C299 H294 0.950 . S
C299 C301 1.327 . S
C299 C305 1.429 . S
C300 C292 1.574 . S
C300 H295 0.949 . S
C300 C306 1.368 . S
C301 C285 1.349 . S
C301 H293 0.950 . S
C301 C299 1.327 . S
C302 C290 1.349 . S
C302 H296 0.950 . S
C302 C303 1.327 . S
C303 H297 0.950 . S
C303 C302 1.327 . S
C303 C307 1.429 . S
C304 C287 1.574 . S
C304 H298 0.949 . S
C304 C308 1.368 . S
C305 C286 1.429 . S
C305 C299 1.429 . S
C305 C306 1.523 . S
C306 C287 1.368 . S
C306 C300 1.368 . S
C306 C305 1.523 . S
C307 C291 1.429 . S
C307 C303 1.429 . S
C307 C308 1.523 . S
C308 C292 1.368 . S
C308 C304 1.368 . S
C308 C307 1.523 . S
H309 C284 0.950 . S
H310 C286 0.950 . S
H311 C287 0.949 . S
H312 C289 0.950 . S
H313 C291 0.950 . S
C314 C315 1.349 . S
C314 C316 1.327 . S
C314 H339 0.950 . S
C315 C314 1.349 . S
C315 C331 1.349 . S
C316 C314 1.327 . S
C316 C335 1.429 . S
C316 H340 0.950 . S
C317 C334 1.574 . S
C317 C336 1.368 . S
C317 H341 0.949 . S
H318 C322 0.949 . S
C319 C320 1.349 . S
C319 C321 1.327 . S
C319 H342 0.950 . S
C320 C319 1.349 . S
C320 C332 1.349 . S
C321 C319 1.327 . S
C321 C337 1.429 . S
C321 H343 0.950 . S
C322 H318 0.949 . S
C322 C330 1.574 . S
C322 C338 1.368 . S
H323 C331 0.950 . S
H324 C329 0.950 . S
H325 C330 0.949 . S
H326 C332 0.950 . S
H327 C333 0.950 . S
H328 C334 0.949 . S
C329 H324 0.950 . S
C329 C331 1.327 . S
C329 C335 1.429 . S
C330 C322 1.574 . S
C330 H325 0.949 . S
C330 C336 1.368 . S
C331 C315 1.349 . S
C331 H323 0.950 . S
C331 C329 1.327 . S
C332 C320 1.349 . S
C332 H326 0.950 . S
C332 C333 1.327 . S
C333 H327 0.950 . S
C333 C332 1.327 . S
C333 C337 1.429 . S
C334 C317 1.574 . S
C334 H328 0.949 . S
C334 C338 1.368 . S
C335 C316 1.429 . S
C335 C329 1.429 . S
C335 C336 1.523 . S
C336 C317 1.368 . S
C336 C330 1.368 . S
C336 C335 1.523 . S
C337 C321 1.429 . S
C337 C333 1.429 . S
C337 C338 1.523 . S
C338 C322 1.368 . S
C338 C334 1.368 . S
C338 C337 1.523 . S
H339 C314 0.950 . S
H340 C316 0.950 . S
H341 C317 0.949 . S
H342 C319 0.950 . S
H343 C321 0.950 . S
C344 C345 1.349 . S
C344 C346 1.327 . S
C344 H369 0.950 . S
C345 C344 1.349 . S
C345 C361 1.349 . S
C346 C344 1.327 . S
C346 C365 1.429 . S
C346 H370 0.950 . S
C347 C364 1.574 . S
C347 C366 1.368 . S
C347 H371 0.949 . S
H348 C352 0.949 . S
C349 C350 1.349 . S
C349 C351 1.327 . S
C349 H372 0.950 . S
C350 C349 1.349 . S
C350 C362 1.349 . S
C351 C349 1.327 . S
C351 C367 1.429 . S
C351 H373 0.950 . S
C352 H348 0.949 . S
C352 C360 1.574 . S
C352 C368 1.368 . S
H353 C361 0.950 . S
H354 C359 0.950 . S
H355 C360 0.949 . S
H356 C362 0.950 . S
H357 C363 0.950 . S
H358 C364 0.949 . S
C359 H354 0.950 . S
C359 C361 1.327 . S
C359 C365 1.429 . S
C360 C352 1.574 . S
C360 H355 0.949 . S
C360 C366 1.368 . S
C361 C345 1.349 . S
C361 H353 0.950 . S
C361 C359 1.327 . S
C362 C350 1.349 . S
C362 H356 0.950 . S
C362 C363 1.327 . S
C363 H357 0.950 . S
C363 C362 1.327 . S
C363 C367 1.429 . S
C364 C347 1.574 . S
C364 H358 0.949 . S
C364 C368 1.368 . S
C365 C346 1.429 . S
C365 C359 1.429 . S
C365 C366 1.523 . S
C366 C347 1.368 . S
C366 C360 1.368 . S
C366 C365 1.523 . S
C367 C351 1.429 . S
C367 C363 1.429 . S
C367 C368 1.523 . S
C368 C352 1.368 . S
C368 C364 1.368 . S
C368 C367 1.523 . S
H369 C344 0.950 . S
H370 C346 0.950 . S
H371 C347 0.949 . S
H372 C349 0.950 . S
H373 C351 0.950 . S
C374 C375 1.349 . S
C374 C376 1.327 . S
C374 H399 0.950 . S
C375 C374 1.349 . S
C375 C391 1.349 . S
C376 C374 1.327 . S
C376 C395 1.429 . S
C376 H400 0.950 . S
C377 C394 1.574 . S
C377 C396 1.368 . S
C377 H401 0.949 . S
H378 C382 0.949 . S
C379 C380 1.349 . S
C379 C381 1.327 . S
C379 H402 0.950 . S
C380 C379 1.349 . S
C380 C392 1.349 . S
C381 C379 1.327 . S
C381 C397 1.429 . S
C381 H403 0.950 . S
C382 H378 0.949 . S
C382 C390 1.574 . S
C382 C398 1.368 . S
H383 C391 0.950 . S
H384 C389 0.950 . S
H385 C390 0.949 . S
H386 C392 0.950 . S
H387 C393 0.950 . S
H388 C394 0.949 . S
C389 H384 0.950 . S
C389 C391 1.327 . S
C389 C395 1.429 . S
C390 C382 1.574 . S
C390 H385 0.949 . S
C390 C396 1.368 . S
C391 C375 1.349 . S
C391 H383 0.950 . S
C391 C389 1.327 . S
C392 C380 1.349 . S
C392 H386 0.950 . S
C392 C393 1.327 . S
C393 H387 0.950 . S
C393 C392 1.327 . S
C393 C397 1.429 . S
C394 C377 1.574 . S
C394 H388 0.949 . S
C394 C398 1.368 . S
C395 C376 1.429 . S
C395 C389 1.429 . S
C395 C396 1.523 . S
C396 C377 1.368 . S
C396 C390 1.368 . S
C396 C395 1.523 . S
C397 C381 1.429 . S
C397 C393 1.429 . S
C397 C398 1.523 . S
C398 C382 1.368 . S
C398 C394 1.368 . S
C398 C397 1.523 . S
H399 C374 0.950 . S
H400 C376 0.950 . S
H401 C377 0.949 . S
H402 C379 0.950 . S
H403 C381 0.950 . S
C404 C405 1.349 . S
C404 C406 1.327 . S
C404 H429 0.950 . S
C405 C404 1.349 . S
C405 C421 1.349 . S
C406 C404 1.327 . S
C406 C425 1.429 . S
C406 H430 0.950 . S
C407 C424 1.574 . S
C407 C426 1.368 . S
C407 H431 0.949 . S
H408 C412 0.949 . S
C409 C410 1.349 . S
C409 C411 1.327 . S
C409 H432 0.950 . S
C410 C409 1.349 . S
C410 C422 1.349 . S
C411 C409 1.327 . S
C411 C427 1.429 . S
C411 H433 0.950 . S
C412 H408 0.949 . S
C412 C420 1.574 . S
C412 C428 1.368 . S
H413 C421 0.950 . S
H414 C419 0.950 . S
H415 C420 0.949 . S
H416 C422 0.950 . S
H417 C423 0.950 . S
H418 C424 0.949 . S
C419 H414 0.950 . S
C419 C421 1.327 . S
C419 C425 1.429 . S
C420 C412 1.574 . S
C420 H415 0.949 . S
C420 C426 1.368 . S
C421 C405 1.349 . S
C421 H413 0.950 . S
C421 C419 1.327 . S
C422 C410 1.349 . S
C422 H416 0.950 . S
C422 C423 1.327 . S
C423 H417 0.950 . S
C423 C422 1.327 . S
C423 C427 1.429 . S
C424 C407 1.574 . S
C424 H418 0.949 . S
C424 C428 1.368 . S
C425 C406 1.429 . S
C425 C419 1.429 . S
C425 C426 1.523 . S
C426 C407 1.368 . S
C426 C420 1.368 . S
C426 C425 1.523 . S
C427 C411 1.429 . S
C427 C423 1.429 . S
C427 C428 1.523 . S
C428 C412 1.368 . S
C428 C424 1.368 . S
C428 C427 1.523 . S
H429 C404 0.950 . S
H430 C406 0.950 . S
H431 C407 0.949 . S
H432 C409 0.950 . S
H433 C411 0.950 . S
C434 C435 1.349 . S
C434 C436 1.327 . S
C434 H459 0.950 . S
C435 C434 1.349 . S
C435 C451 1.349 . S
C436 C434 1.327 . S
C436 C455 1.429 . S
C436 H460 0.950 . S
C437 C454 1.574 . S
C437 C456 1.368 . S
C437 H461 0.949 . S
H438 C442 0.949 . S
C439 C440 1.349 . S
C439 C441 1.327 . S
C439 H462 0.950 . S
C440 C439 1.349 . S
C440 C452 1.349 . S
C441 C439 1.327 . S
C441 C457 1.429 . S
C441 H463 0.950 . S
C442 H438 0.949 . S
C442 C450 1.574 . S
C442 C458 1.368 . S
H443 C451 0.950 . S
H444 C449 0.950 . S
H445 C450 0.949 . S
H446 C452 0.950 . S
H447 C453 0.950 . S
H448 C454 0.949 . S
C449 H444 0.950 . S
C449 C451 1.327 . S
C449 C455 1.429 . S
C450 C442 1.574 . S
C450 H445 0.949 . S
C450 C456 1.368 . S
C451 C435 1.349 . S
C451 H443 0.950 . S
C451 C449 1.327 . S
C452 C440 1.349 . S
C452 H446 0.950 . S
C452 C453 1.327 . S
C453 H447 0.950 . S
C453 C452 1.327 . S
C453 C457 1.429 . S
C454 C437 1.574 . S
C454 H448 0.949 . S
C454 C458 1.368 . S
C455 C436 1.429 . S
C455 C449 1.429 . S
C455 C456 1.523 . S
C456 C437 1.368 . S
C456 C450 1.368 . S
C456 C455 1.523 . S
C457 C441 1.429 . S
C457 C453 1.429 . S
C457 C458 1.523 . S
C458 C442 1.368 . S
C458 C454 1.368 . S
C458 C457 1.523 . S
H459 C434 0.950 . S
H460 C436 0.950 . S
H461 C437 0.949 . S
H462 C439 0.950 . S
H463 C441 0.950 . S
C464 C465 1.349 . S
C464 C466 1.327 . S
C464 H489 0.950 . S
C465 C464 1.349 . S
C465 C481 1.349 . S
C466 C464 1.327 . S
C466 C485 1.429 . S
C466 H490 0.950 . S
C467 C484 1.574 1_556 S
C467 C486 1.368 . S
C467 H491 0.949 . S
H468 C472 0.949 . S
C469 C470 1.349 . S
C469 C471 1.327 . S
C469 H492 0.950 . S
C470 C469 1.349 . S
C470 C482 1.349 . S
C471 C469 1.327 . S
C471 C487 1.429 . S
C471 H493 0.950 . S
C472 H468 0.949 . S
C472 C480 1.574 1_554 S
C472 C488 1.368 . S
H473 C481 0.950 . S
H474 C479 0.950 . S
H475 C480 0.949 . S
H476 C482 0.950 . S
H477 C483 0.950 . S
H478 C484 0.949 . S
C479 H474 0.950 . S
C479 C481 1.327 . S
C479 C485 1.429 . S
C480 C472 1.574 1_556 S
C480 H475 0.949 . S
C480 C486 1.368 . S
C481 C465 1.349 . S
C481 H473 0.950 . S
C481 C479 1.327 . S
C482 C470 1.349 . S
C482 H476 0.950 . S
C482 C483 1.327 . S
C483 H477 0.950 . S
C483 C482 1.327 . S
C483 C487 1.429 . S
C484 C467 1.574 1_554 S
C484 H478 0.949 . S
C484 C488 1.368 . S
C485 C466 1.429 . S
C485 C479 1.429 . S
C485 C486 1.523 . S
C486 C467 1.368 . S
C486 C480 1.368 . S
C486 C485 1.523 . S
C487 C471 1.429 . S
C487 C483 1.429 . S
C487 C488 1.523 . S
C488 C472 1.368 . S
C488 C484 1.368 . S
C488 C487 1.523 . S
H489 C464 0.950 . S
H490 C466 0.950 . S
H491 C467 0.949 . S
H492 C469 0.950 . S
H493 C471 0.950 . S
C494 C495 1.349 . S
C494 C496 1.327 . S
C494 H519 0.950 . S
C495 C494 1.349 . S
C495 C511 1.349 . S
C496 C494 1.327 . S
C496 C515 1.429 . S
C496 H520 0.950 . S
C497 C514 1.574 1_556 S
C497 C516 1.368 . S
C497 H521 0.949 . S
H498 C502 0.949 . S
C499 C500 1.349 . S
C499 C501 1.327 . S
C499 H522 0.950 . S
C500 C499 1.349 . S
C500 C512 1.349 . S
C501 C499 1.327 . S
C501 C517 1.429 . S
C501 H523 0.950 . S
C502 H498 0.949 . S
C502 C510 1.574 1_554 S
C502 C518 1.368 . S
H503 C511 0.950 . S
H504 C509 0.950 . S
H505 C510 0.949 . S
H506 C512 0.950 . S
H507 C513 0.950 . S
H508 C514 0.949 . S
C509 H504 0.950 . S
C509 C511 1.327 . S
C509 C515 1.429 . S
C510 C502 1.574 1_556 S
C510 H505 0.949 . S
C510 C516 1.368 . S
C511 C495 1.349 . S
C511 H503 0.950 . S
C511 C509 1.327 . S
C512 C500 1.349 . S
C512 H506 0.950 . S
C512 C513 1.327 . S
C513 H507 0.950 . S
C513 C512 1.327 . S
C513 C517 1.429 . S
C514 C497 1.574 1_554 S
C514 H508 0.949 . S
C514 C518 1.368 . S
C515 C496 1.429 . S
C515 C509 1.429 . S
C515 C516 1.523 . S
C516 C497 1.368 . S
C516 C510 1.368 . S
C516 C515 1.523 . S
C517 C501 1.429 . S
C517 C513 1.429 . S
C517 C518 1.523 . S
C518 C502 1.368 . S
C518 C514 1.368 . S
C518 C517 1.523 . S
H519 C494 0.950 . S
H520 C496 0.950 . S
H521 C497 0.949 . S
H522 C499 0.950 . S
H523 C501 0.950 . S
C524 C525 1.349 . S
C524 C526 1.327 . S
C524 H549 0.950 . S
C525 C524 1.349 . S
C525 C541 1.349 . S
C526 C524 1.327 . S
C526 C545 1.429 . S
C526 H550 0.950 . S
C527 C544 1.574 1_556 S
C527 C546 1.368 . S
C527 H551 0.949 . S
H528 C532 0.949 . S
C529 C530 1.349 . S
C529 C531 1.327 . S
C529 H552 0.950 . S
C530 C529 1.349 . S
C530 C542 1.349 . S
C531 C529 1.327 . S
C531 C547 1.429 . S
C531 H553 0.950 . S
C532 H528 0.949 . S
C532 C540 1.574 1_554 S
C532 C548 1.368 . S
H533 C541 0.950 . S
H534 C539 0.950 . S
H535 C540 0.949 . S
H536 C542 0.950 . S
H537 C543 0.950 . S
H538 C544 0.949 . S
C539 H534 0.950 . S
C539 C541 1.327 . S
C539 C545 1.429 . S
C540 C532 1.574 1_556 S
C540 H535 0.949 . S
C540 C546 1.368 . S
C541 C525 1.349 . S
C541 H533 0.950 . S
C541 C539 1.327 . S
C542 C530 1.349 . S
C542 H536 0.950 . S
C542 C543 1.327 . S
C543 H537 0.950 . S
C543 C542 1.327 . S
C543 C547 1.429 . S
C544 C527 1.574 1_554 S
C544 H538 0.949 . S
C544 C548 1.368 . S
C545 C526 1.429 . S
C545 C539 1.429 . S
C545 C546 1.523 . S
C546 C527 1.368 . S
C546 C540 1.368 . S
C546 C545 1.523 . S
C547 C531 1.429 . S
C547 C543 1.429 . S
C547 C548 1.523 . S
C548 C532 1.368 . S
C548 C544 1.368 . S
C548 C547 1.523 . S
H549 C524 0.950 . S
H550 C526 0.950 . S
H551 C527 0.949 . S
H552 C529 0.950 . S
H553 C531 0.950 . S
C554 C555 1.349 . S
C554 C556 1.327 . S
C554 H579 0.950 . S
C555 C554 1.349 . S
C555 C571 1.349 . S
C556 C554 1.327 . S
C556 C575 1.429 . S
C556 H580 0.950 . S
C557 C574 1.574 1_554 S
C557 C576 1.368 . S
C557 H581 0.949 . S
H558 C562 0.949 . S
C559 C560 1.349 . S
C559 C561 1.327 . S
C559 H582 0.950 . S
C560 C559 1.349 . S
C560 C572 1.349 . S
C561 C559 1.327 . S
C561 C577 1.429 . S
C561 H583 0.950 . S
C562 H558 0.949 . S
C562 C570 1.574 1_556 S
C562 C578 1.368 . S
H563 C571 0.950 . S
H564 C569 0.950 . S
H565 C570 0.949 . S
H566 C572 0.950 . S
H567 C573 0.950 . S
H568 C574 0.949 . S
C569 H564 0.950 . S
C569 C571 1.327 . S
C569 C575 1.429 . S
C570 C562 1.574 1_554 S
C570 H565 0.949 . S
C570 C576 1.368 . S
C571 C555 1.349 . S
C571 H563 0.950 . S
C571 C569 1.327 . S
C572 C560 1.349 . S
C572 H566 0.950 . S
C572 C573 1.327 . S
C573 H567 0.950 . S
C573 C572 1.327 . S
C573 C577 1.429 . S
C574 C557 1.574 1_556 S
C574 H568 0.949 . S
C574 C578 1.368 . S
C575 C556 1.429 . S
C575 C569 1.429 . S
C575 C576 1.523 . S
C576 C557 1.368 . S
C576 C570 1.368 . S
C576 C575 1.523 . S
C577 C561 1.429 . S
C577 C573 1.429 . S
C577 C578 1.523 . S
C578 C562 1.368 . S
C578 C574 1.368 . S
C578 C577 1.523 . S
H579 C554 0.950 . S
H580 C556 0.950 . S
H581 C557 0.949 . S
H582 C559 0.950 . S
H583 C561 0.950 . S
C584 C585 1.349 . S
C584 C586 1.327 . S
C584 H609 0.950 . S
C585 C584 1.349 . S
C585 C601 1.349 . S
C586 C584 1.327 . S
C586 C605 1.429 . S
C586 H610 0.950 . S
C587 C604 1.574 . S
C587 C606 1.368 . S
C587 H611 0.949 . S
H588 C592 0.949 . S
C589 C590 1.349 . S
C589 C591 1.327 . S
C589 H612 0.950 . S
C590 C589 1.349 . S
C590 C602 1.349 . S
C591 C589 1.327 . S
C591 C607 1.429 . S
C591 H613 0.950 . S
C592 H588 0.949 . S
C592 C600 1.574 . S
C592 C608 1.368 . S
H593 C601 0.950 . S
H594 C599 0.950 . S
H595 C600 0.949 . S
H596 C602 0.950 . S
H597 C603 0.950 . S
H598 C604 0.949 . S
C599 H594 0.950 . S
C599 C601 1.327 . S
C599 C605 1.429 . S
C600 C592 1.574 . S
C600 H595 0.949 . S
C600 C606 1.368 . S
C601 C585 1.349 . S
C601 H593 0.950 . S
C601 C599 1.327 . S
C602 C590 1.349 . S
C602 H596 0.950 . S
C602 C603 1.327 . S
C603 H597 0.950 . S
C603 C602 1.327 . S
C603 C607 1.429 . S
C604 C587 1.574 . S
C604 H598 0.949 . S
C604 C608 1.368 . S
C605 C586 1.429 . S
C605 C599 1.429 . S
C605 C606 1.523 . S
C606 C587 1.368 . S
C606 C600 1.368 . S
C606 C605 1.523 . S
C607 C591 1.429 . S
C607 C603 1.429 . S
C607 C608 1.523 . S
C608 C592 1.368 . S
C608 C604 1.368 . S
C608 C607 1.523 . S
H609 C584 0.950 . S
H610 C586 0.950 . S
H611 C587 0.949 . S
H612 C589 0.950 . S
H613 C591 0.950 . S
C614 C615 1.349 . S
C614 C616 1.327 . S
C614 H639 0.950 . S
C615 C614 1.349 . S
C615 C631 1.349 . S
C616 C614 1.327 . S
C616 C635 1.429 . S
C616 H640 0.950 . S
C617 C634 1.574 . S
C617 C636 1.368 . S
C617 H641 0.949 . S
H618 C622 0.949 . S
C619 C620 1.349 . S
C619 C621 1.327 . S
C619 H642 0.950 . S
C620 C619 1.349 . S
C620 C632 1.349 . S
C621 C619 1.327 . S
C621 C637 1.429 . S
C621 H643 0.950 . S
C622 H618 0.949 . S
C622 C630 1.574 . S
C622 C638 1.368 . S
H623 C631 0.950 . S
H624 C629 0.950 . S
H625 C630 0.949 . S
H626 C632 0.950 . S
H627 C633 0.950 . S
H628 C634 0.949 . S
C629 H624 0.950 . S
C629 C631 1.327 . S
C629 C635 1.429 . S
C630 C622 1.574 . S
C630 H625 0.949 . S
C630 C636 1.368 . S
C631 C615 1.349 . S
C631 H623 0.950 . S
C631 C629 1.327 . S
C632 C620 1.349 . S
C632 H626 0.950 . S
C632 C633 1.327 . S
C633 H627 0.950 . S
C633 C632 1.327 . S
C633 C637 1.429 . S
C634 C617 1.574 . S
C634 H628 0.949 . S
C634 C638 1.368 . S
C635 C616 1.429 . S
C635 C629 1.429 . S
C635 C636 1.523 . S
C636 C617 1.368 . S
C636 C630 1.368 . S
C636 C635 1.523 . S
C637 C621 1.429 . S
C637 C633 1.429 . S
C637 C638 1.523 . S
C638 C622 1.368 . S
C638 C634 1.368 . S
C638 C637 1.523 . S
H639 C614 0.950 . S
H640 C616 0.950 . S
H641 C617 0.949 . S
H642 C619 0.950 . S
H643 C621 0.950 . S
C644 C645 1.349 . S
C644 C646 1.327 . S
C644 H669 0.950 . S
C645 C644 1.349 . S
C645 C661 1.349 . S
C646 C644 1.327 . S
C646 C665 1.429 . S
C646 H670 0.950 . S
C647 C664 1.574 . S
C647 C666 1.368 . S
C647 H671 0.949 . S
H648 C652 0.949 . S
C649 C650 1.349 . S
C649 C651 1.327 . S
C649 H672 0.950 . S
C650 C649 1.349 . S
C650 C662 1.349 . S
C651 C649 1.327 . S
C651 C667 1.429 . S
C651 H673 0.950 . S
C652 H648 0.949 . S
C652 C660 1.574 . S
C652 C668 1.368 . S
H653 C661 0.950 . S
H654 C659 0.950 . S
H655 C660 0.949 . S
H656 C662 0.950 . S
H657 C663 0.950 . S
H658 C664 0.949 . S
C659 H654 0.950 . S
C659 C661 1.327 . S
C659 C665 1.429 . S
C660 C652 1.574 . S
C660 H655 0.949 . S
C660 C666 1.368 . S
C661 C645 1.349 . S
C661 H653 0.950 . S
C661 C659 1.327 . S
C662 C650 1.349 . S
C662 H656 0.950 . S
C662 C663 1.327 . S
C663 H657 0.950 . S
C663 C662 1.327 . S
C663 C667 1.429 . S
C664 C647 1.574 . S
C664 H658 0.949 . S
C664 C668 1.368 . S
C665 C646 1.429 . S
C665 C659 1.429 . S
C665 C666 1.523 . S
C666 C647 1.368 . S
C666 C660 1.368 . S
C666 C665 1.523 . S
C667 C651 1.429 . S
C667 C663 1.429 . S
C667 C668 1.523 . S
C668 C652 1.368 . S
C668 C664 1.368 . S
C668 C667 1.523 . S
H669 C644 0.950 . S
H670 C646 0.950 . S
H671 C647 0.949 . S
H672 C649 0.950 . S
H673 C651 0.950 . S
C674 C675 1.349 . S
C674 C676 1.327 . S
C674 H699 0.950 . S
C675 C674 1.349 . S
C675 C691 1.349 . S
C676 C674 1.327 . S
C676 C695 1.429 . S
C676 H700 0.950 . S
C677 C694 1.574 . S
C677 C696 1.368 . S
C677 H701 0.949 . S
H678 C682 0.949 . S
C679 C680 1.349 . S
C679 C681 1.327 . S
C679 H702 0.950 . S
C680 C679 1.349 . S
C680 C692 1.349 . S
C681 C679 1.327 . S
C681 C697 1.429 . S
C681 H703 0.950 . S
C682 H678 0.949 . S
C682 C690 1.574 . S
C682 C698 1.368 . S
H683 C691 0.950 . S
H684 C689 0.950 . S
H685 C690 0.949 . S
H686 C692 0.950 . S
H687 C693 0.950 . S
H688 C694 0.949 . S
C689 H684 0.950 . S
C689 C691 1.327 . S
C689 C695 1.429 . S
C690 C682 1.574 . S
C690 H685 0.949 . S
C690 C696 1.368 . S
C691 C675 1.349 . S
C691 H683 0.950 . S
C691 C689 1.327 . S
C692 C680 1.349 . S
C692 H686 0.950 . S
C692 C693 1.327 . S
C693 H687 0.950 . S
C693 C692 1.327 . S
C693 C697 1.429 . S
C694 C677 1.574 . S
C694 H688 0.949 . S
C694 C698 1.368 . S
C695 C676 1.429 . S
C695 C689 1.429 . S
C695 C696 1.523 . S
C696 C677 1.368 . S
C696 C690 1.368 . S
C696 C695 1.523 . S
C697 C681 1.429 . S
C697 C693 1.429 . S
C697 C698 1.523 . S
C698 C682 1.368 . S
C698 C694 1.368 . S
C698 C697 1.523 . S
H699 C674 0.950 . S
H700 C676 0.950 . S
H701 C677 0.949 . S
H702 C679 0.950 . S
H703 C681 0.950 . S
C704 C705 1.349 . S
C704 C706 1.327 . S
C704 H729 0.950 . S
C705 C704 1.349 . S
C705 C721 1.349 . S
C706 C704 1.327 . S
C706 C725 1.429 . S
C706 H730 0.950 . S
C707 C724 1.574 . S
C707 C726 1.368 . S
C707 H731 0.949 . S
H708 C712 0.949 . S
C709 C710 1.349 . S
C709 C711 1.327 . S
C709 H732 0.950 . S
C710 C709 1.349 . S
C710 C722 1.349 . S
C711 C709 1.327 . S
C711 C727 1.429 . S
C711 H733 0.950 . S
C712 H708 0.949 . S
C712 C720 1.574 . S
C712 C728 1.368 . S
H713 C721 0.950 . S
H714 C719 0.950 . S
H715 C720 0.949 . S
H716 C722 0.950 . S
H717 C723 0.950 . S
H718 C724 0.949 . S
C719 H714 0.950 . S
C719 C721 1.327 . S
C719 C725 1.429 . S
C720 C712 1.574 . S
C720 H715 0.949 . S
C720 C726 1.368 . S
C721 C705 1.349 . S
C721 H713 0.950 . S
C721 C719 1.327 . S
C722 C710 1.349 . S
C722 H716 0.950 . S
C722 C723 1.327 . S
C723 H717 0.950 . S
C723 C722 1.327 . S
C723 C727 1.429 . S
C724 C707 1.574 . S
C724 H718 0.949 . S
C724 C728 1.368 . S
C725 C706 1.429 . S
C725 C719 1.429 . S
C725 C726 1.523 . S
C726 C707 1.368 . S
C726 C720 1.368 . S
C726 C725 1.523 . S
C727 C711 1.429 . S
C727 C723 1.429 . S
C727 C728 1.523 . S
C728 C712 1.368 . S
C728 C724 1.368 . S
C728 C727 1.523 . S
H729 C704 0.950 . S
H730 C706 0.950 . S
H731 C707 0.949 . S
H732 C709 0.950 . S
H733 C711 0.950 . S
C734 C735 1.349 . S
C734 C736 1.327 . S
C734 H759 0.950 . S
C735 C734 1.349 . S
C735 C751 1.349 . S
C736 C734 1.327 . S
C736 C755 1.429 . S
C736 H760 0.950 . S
C737 C754 1.574 . S
C737 C756 1.368 . S
C737 H761 0.949 . S
H738 C742 0.949 . S
C739 C740 1.349 . S
C739 C741 1.327 . S
C739 H762 0.950 . S
C740 C739 1.349 . S
C740 C752 1.349 . S
C741 C739 1.327 . S
C741 C757 1.429 . S
C741 H763 0.950 . S
C742 H738 0.949 . S
C742 C750 1.574 . S
C742 C758 1.368 . S
H743 C751 0.950 . S
H744 C749 0.950 . S
H745 C750 0.949 . S
H746 C752 0.950 . S
H747 C753 0.950 . S
H748 C754 0.949 . S
C749 H744 0.950 . S
C749 C751 1.327 . S
C749 C755 1.429 . S
C750 C742 1.574 . S
C750 H745 0.949 . S
C750 C756 1.368 . S
C751 C735 1.349 . S
C751 H743 0.950 . S
C751 C749 1.327 . S
C752 C740 1.349 . S
C752 H746 0.950 . S
C752 C753 1.327 . S
C753 H747 0.950 . S
C753 C752 1.327 . S
C753 C757 1.429 . S
C754 C737 1.574 . S
C754 H748 0.949 . S
C754 C758 1.368 . S
C755 C736 1.429 . S
C755 C749 1.429 . S
C755 C756 1.523 . S
C756 C737 1.368 . S
C756 C750 1.368 . S
C756 C755 1.523 . S
C757 C741 1.429 . S
C757 C753 1.429 . S
C757 C758 1.523 . S
C758 C742 1.368 . S
C758 C754 1.368 . S
C758 C757 1.523 . S
H759 C734 0.950 . S
H760 C736 0.950 . S
H761 C737 0.949 . S
H762 C739 0.950 . S
H763 C741 0.950 . S
C764 C765 1.349 . S
C764 C766 1.327 . S
C764 H789 0.950 . S
C765 C764 1.349 . S
C765 C781 1.349 . S
C766 C764 1.327 . S
C766 C785 1.429 . S
C766 H790 0.950 . S
C767 C784 1.574 . S
C767 C786 1.368 . S
C767 H791 0.949 . S
H768 C772 0.949 . S
C769 C770 1.349 . S
C769 C771 1.327 . S
C769 H792 0.950 . S
C770 C769 1.349 . S
C770 C782 1.349 . S
C771 C769 1.327 . S
C771 C787 1.429 . S
C771 H793 0.950 . S
C772 H768 0.949 . S
C772 C780 1.574 . S
C772 C788 1.368 . S
H773 C781 0.950 . S
H774 C779 0.950 . S
H775 C780 0.949 . S
H776 C782 0.950 . S
H777 C783 0.950 . S
H778 C784 0.949 . S
C779 H774 0.950 . S
C779 C781 1.327 . S
C779 C785 1.429 . S
C780 C772 1.574 . S
C780 H775 0.949 . S
C780 C786 1.368 . S
C781 C765 1.349 . S
C781 H773 0.950 . S
C781 C779 1.327 . S
C782 C770 1.349 . S
C782 H776 0.950 . S
C782 C783 1.327 . S
C783 H777 0.950 . S
C783 C782 1.327 . S
C783 C787 1.429 . S
C784 C767 1.574 . S
C784 H778 0.949 . S
C784 C788 1.368 . S
C785 C766 1.429 . S
C785 C779 1.429 . S
C785 C786 1.523 . S
C786 C767 1.368 . S
C786 C780 1.368 . S
C786 C785 1.523 . S
C787 C771 1.429 . S
C787 C783 1.429 . S
C787 C788 1.523 . S
C788 C772 1.368 . S
C788 C784 1.368 . S
C788 C787 1.523 . S
H789 C764 0.950 . S
H790 C766 0.950 . S
H791 C767 0.949 . S
H792 C769 0.950 . S
H793 C771 0.950 . S
C794 C795 1.349 . S
C794 C796 1.327 . S
C794 H819 0.950 . S
C795 C794 1.349 . S
C795 C811 1.349 . S
C796 C794 1.327 . S
C796 C815 1.429 . S
C796 H820 0.950 . S
C797 C814 1.574 . S
C797 C816 1.368 . S
C797 H821 0.949 . S
H798 C802 0.949 . S
C799 C800 1.349 . S
C799 C801 1.327 . S
C799 H822 0.950 . S
C800 C799 1.349 . S
C800 C812 1.349 . S
C801 C799 1.327 . S
C801 C817 1.429 . S
C801 H823 0.950 . S
C802 H798 0.949 . S
C802 C810 1.574 . S
C802 C818 1.368 . S
H803 C811 0.950 . S
H804 C809 0.950 . S
H805 C810 0.949 . S
H806 C812 0.950 . S
H807 C813 0.950 . S
H808 C814 0.949 . S
C809 H804 0.950 . S
C809 C811 1.327 . S
C809 C815 1.429 . S
C810 C802 1.574 . S
C810 H805 0.949 . S
C810 C816 1.368 . S
C811 C795 1.349 . S
C811 H803 0.950 . S
C811 C809 1.327 . S
C812 C800 1.349 . S
C812 H806 0.950 . S
C812 C813 1.327 . S
C813 H807 0.950 . S
C813 C812 1.327 . S
C813 C817 1.429 . S
C814 C797 1.574 . S
C814 H808 0.949 . S
C814 C818 1.368 . S
C815 C796 1.429 . S
C815 C809 1.429 . S
C815 C816 1.523 . S
C816 C797 1.368 . S
C816 C810 1.368 . S
C816 C815 1.523 . S
C817 C801 1.429 . S
C817 C813 1.429 . S
C817 C818 1.523 . S
C818 C802 1.368 . S
C818 C814 1.368 . S
C818 C817 1.523 . S
H819 C794 0.950 . S
H820 C796 0.950 . S
H821 C797 0.949 . S
H822 C799 0.950 . S
H823 C801 0.950 . S
C824 C825 1.349 . S
C824 C826 1.327 . S
C824 H849 0.950 . S
C825 C824 1.349 . S
C825 C841 1.349 . S
C826 C824 1.327 . S
C826 C845 1.429 . S
C826 H850 0.950 . S
C827 C844 1.574 . S
C827 C846 1.368 . S
C827 H851 0.949 . S
H828 C832 0.949 . S
C829 C830 1.349 . S
C829 C831 1.327 . S
C829 H852 0.950 . S
C830 C829 1.349 . S
C830 C842 1.349 . S
C831 C829 1.327 . S
C831 C847 1.429 . S
C831 H853 0.950 . S
C832 H828 0.949 . S
C832 C840 1.574 . S
C832 C848 1.368 . S
H833 C841 0.950 . S
H834 C839 0.950 . S
H835 C840 0.949 . S
H836 C842 0.950 . S
H837 C843 0.950 . S
H838 C844 0.949 . S
C839 H834 0.950 . S
C839 C841 1.327 . S
C839 C845 1.429 . S
C840 C832 1.574 . S
C840 H835 0.949 . S
C840 C846 1.368 . S
C841 C825 1.349 . S
C841 H833 0.950 . S
C841 C839 1.327 . S
C842 C830 1.349 . S
C842 H836 0.950 . S
C842 C843 1.327 . S
C843 H837 0.950 . S
C843 C842 1.327 . S
C843 C847 1.429 . S
C844 C827 1.574 . S
C844 H838 0.949 . S
C844 C848 1.368 . S
C845 C826 1.429 . S
C845 C839 1.429 . S
C845 C846 1.523 . S
C846 C827 1.368 . S
C846 C840 1.368 . S
C846 C845 1.523 . S
C847 C831 1.429 . S
C847 C843 1.429 . S
C847 C848 1.523 . S
C848 C832 1.368 . S
C848 C844 1.368 . S
C848 C847 1.523 . S
H849 C824 0.950 . S
H850 C826 0.950 . S
H851 C827 0.949 . S
H852 C829 0.950 . S
H853 C831 0.950 . S
C854 C855 1.349 . S
C854 C856 1.327 . S
C854 H879 0.950 . S
C855 C854 1.349 . S
C855 C871 1.349 . S
C856 C854 1.327 . S
C856 C875 1.429 . S
C856 H880 0.950 . S
C857 C874 1.574 . S
C857 C876 1.368 . S
C857 H881 0.949 . S
H858 C862 0.949 . S
C859 C860 1.349 . S
C859 C861 1.327 . S
C859 H882 0.950 . S
C860 C859 1.349 . S
C860 C872 1.349 . S
C861 C859 1.327 . S
C861 C877 1.429 . S
C861 H883 0.950 . S
C862 H858 0.949 . S
C862 C870 1.574 . S
C862 C878 1.368 . S
H863 C871 0.950 . S
H864 C869 0.950 . S
H865 C870 0.949 . S
H866 C872 0.950 . S
H867 C873 0.950 . S
H868 C874 0.949 . S
C869 H864 0.950 . S
C869 C871 1.327 . S
C869 C875 1.429 . S
C870 C862 1.574 . S
C870 H865 0.949 . S
C870 C876 1.368 . S
C871 C855 1.349 . S
C871 H863 0.950 . S
C871 C869 1.327 . S
C872 C860 1.349 . S
C872 H866 0.950 . S
C872 C873 1.327 . S
C873 H867 0.950 . S
C873 C872 1.327 . S
C873 C877 1.429 . S
C874 C857 1.574 . S
C874 H868 0.949 . S
C874 C878 1.368 . S
C875 C856 1.429 . S
C875 C869 1.429 . S
C875 C876 1.523 . S
C876 C857 1.368 . S
C876 C870 1.368 . S
C876 C875 1.523 . S
C877 C861 1.429 . S
C877 C873 1.429 . S
C877 C878 1.523 . S
C878 C862 1.368 . S
C878 C874 1.368 . S
C878 C877 1.523 . S
H879 C854 0.950 . S
H880 C856 0.950 . S
H881 C857 0.949 . S
H882 C859 0.950 . S
H883 C861 0.950 . S
C884 C885 1.349 . S
C884 C886 1.327 . S
C884 H909 0.950 . S
C885 C884 1.349 . S
C885 C901 1.349 . S
C886 C884 1.327 . S
C886 C905 1.429 . S
C886 H910 0.950 . S
C887 C904 1.574 . S
C887 C906 1.368 . S
C887 H911 0.949 . S
H888 C892 0.949 . S
C889 C890 1.349 . S
C889 C891 1.327 . S
C889 H912 0.950 . S
C890 C889 1.349 . S
C890 C902 1.349 . S
C891 C889 1.327 . S
C891 C907 1.429 . S
C891 H913 0.950 . S
C892 H888 0.949 . S
C892 C900 1.574 . S
C892 C908 1.368 . S
H893 C901 0.950 . S
H894 C899 0.950 . S
H895 C900 0.949 . S
H896 C902 0.950 . S
H897 C903 0.950 . S
H898 C904 0.949 . S
C899 H894 0.950 . S
C899 C901 1.327 . S
C899 C905 1.429 . S
C900 C892 1.574 . S
C900 H895 0.949 . S
C900 C906 1.368 . S
C901 C885 1.349 . S
C901 H893 0.950 . S
C901 C899 1.327 . S
C902 C890 1.349 . S
C902 H896 0.950 . S
C902 C903 1.327 . S
C903 H897 0.950 . S
C903 C902 1.327 . S
C903 C907 1.429 . S
C904 C887 1.574 . S
C904 H898 0.949 . S
C904 C908 1.368 . S
C905 C886 1.429 . S
C905 C899 1.429 . S
C905 C906 1.523 . S
C906 C887 1.368 . S
C906 C900 1.368 . S
C906 C905 1.523 . S
C907 C891 1.429 . S
C907 C903 1.429 . S
C907 C908 1.523 . S
C908 C892 1.368 . S
C908 C904 1.368 . S
C908 C907 1.523 . S
H909 C884 0.950 . S
H910 C886 0.950 . S
H911 C887 0.949 . S
H912 C889 0.950 . S
H913 C891 0.950 . S
C914 C915 1.349 . S
C914 C916 1.327 . S
C914 H939 0.950 . S
C915 C914 1.349 . S
C915 C931 1.349 . S
C916 C914 1.327 . S
C916 C935 1.429 . S
C916 H940 0.950 . S
C917 C934 1.574 . S
C917 C936 1.368 . S
C917 H941 0.949 . S
H918 C922 0.949 . S
C919 C920 1.349 . S
C919 C921 1.327 . S
C919 H942 0.950 . S
C920 C919 1.349 . S
C920 C932 1.349 . S
C921 C919 1.327 . S
C921 C937 1.429 . S
C921 H943 0.950 . S
C922 H918 0.949 . S
C922 C930 1.574 . S
C922 C938 1.368 . S
H923 C931 0.950 . S
H924 C929 0.950 . S
H925 C930 0.949 . S
H926 C932 0.950 . S
H927 C933 0.950 . S
H928 C934 0.949 . S
C929 H924 0.950 . S
C929 C931 1.327 . S
C929 C935 1.429 . S
C930 C922 1.574 . S
C930 H925 0.949 . S
C930 C936 1.368 . S
C931 C915 1.349 . S
C931 H923 0.950 . S
C931 C929 1.327 . S
C932 C920 1.349 . S
C932 H926 0.950 . S
C932 C933 1.327 . S
C933 H927 0.950 . S
C933 C932 1.327 . S
C933 C937 1.429 . S
C934 C917 1.574 . S
C934 H928 0.949 . S
C934 C938 1.368 . S
C935 C916 1.429 . S
C935 C929 1.429 . S
C935 C936 1.523 . S
C936 C917 1.368 . S
C936 C930 1.368 . S
C936 C935 1.523 . S
C937 C921 1.429 . S
C937 C933 1.429 . S
C937 C938 1.523 . S
C938 C922 1.368 . S
C938 C934 1.368 . S
C938 C937 1.523 . S
H939 C914 0.950 . S
H940 C916 0.950 . S
H941 C917 0.949 . S
H942 C919 0.950 . S
H943 C921 0.950 . S
C944 C945 1.349 . S
C944 C946 1.327 . S
C944 H969 0.950 . S
C945 C944 1.349 . S
C945 C961 1.349 . S
C946 C944 1.327 . S
C946 C965 1.429 . S
C946 H970 0.950 . S
C947 C964 1.574 1_545 S
C947 C966 1.368 . S
C947 H971 0.949 . S
H948 C952 0.949 . S
C949 C950 1.349 . S
C949 C951 1.327 . S
C949 H972 0.950 . S
C950 C949 1.349 . S
C950 C962 1.349 . S
C951 C949 1.327 . S
C951 C967 1.429 . S
C951 H973 0.950 . S
C952 H948 0.949 . S
C952 C960 1.574 1_565 S
C952 C968 1.368 . S
H953 C961 0.950 . S
H954 C959 0.950 . S
H955 C960 0.949 . S
H956 C962 0.950 . S
H957 C963 0.950 . S
H958 C964 0.949 . S
C959 H954 0.950 . S
C959 C961 1.327 . S
C959 C965 1.429 . S
C960 C952 1.574 1_545 S
C960 H955 0.949 . S
C960 C966 1.368 . S
C961 C945 1.349 . S
C961 H953 0.950 . S
C961 C959 1.327 . S
C962 C950 1.349 . S
C962 H956 0.950 . S
C962 C963 1.327 . S
C963 H957 0.950 . S
C963 C962 1.327 . S
C963 C967 1.429 . S
C964 C947 1.574 1_565 S
C964 H958 0.949 . S
C964 C968 1.368 . S
C965 C946 1.429 . S
C965 C959 1.429 . S
C965 C966 1.523 . S
C966 C947 1.368 . S
C966 C960 1.368 . S
C966 C965 1.523 . S
C967 C951 1.429 . S
C967 C963 1.429 . S
C967 C968 1.523 . S
C968 C952 1.368 . S
C968 C964 1.368 . S
C968 C967 1.523 . S
H969 C944 0.950 . S
H970 C946 0.950 . S
H971 C947 0.949 . S
H972 C949 0.950 . S
H973 C951 0.950 . S
C974 C975 1.349 . S
C974 C976 1.327 . S
C974 H999 0.950 . S
C975 C974 1.349 . S
C975 C991 1.349 . S
C976 C974 1.327 . S
C976 C995 1.429 . S
C976 H1000 0.950 . S
C977 C994 1.574 1_655 S
C977 C996 1.368 . S
C977 H1001 0.949 . S
H978 C982 0.949 . S
C979 C980 1.349 . S
C979 C981 1.327 . S
C979 H1002 0.950 . S
C980 C979 1.349 . S
C980 C992 1.349 . S
C981 C979 1.327 . S
C981 C997 1.429 . S
C981 H1003 0.950 . S
C982 H978 0.949 . S
C982 C990 1.574 1_455 S
C982 C998 1.368 . S
H983 C991 0.950 . S
H984 C989 0.950 . S
H985 C990 0.949 . S
H986 C992 0.950 . S
H987 C993 0.950 . S
H988 C994 0.949 . S
C989 H984 0.950 . S
C989 C991 1.327 . S
C989 C995 1.429 . S
C990 C982 1.574 1_655 S
C990 H985 0.949 . S
C990 C996 1.368 . S
C991 C975 1.349 . S
C991 H983 0.950 . S
C991 C989 1.327 . S
C992 C980 1.349 . S
C992 H986 0.950 . S
C992 C993 1.327 . S
C993 H987 0.950 . S
C993 C992 1.327 . S
C993 C997 1.429 . S
C994 C977 1.574 1_455 S
C994 H988 0.949 . S
C994 C998 1.368 . S
C995 C976 1.429 . S
C995 C989 1.429 . S
C995 C996 1.523 . S
C996 C977 1.368 . S
C996 C990 1.368 . S
C996 C995 1.523 . S
C997 C981 1.429 . S
C997 C993 1.429 . S
C997 C998 1.523 . S
C998 C982 1.368 . S
C998 C994 1.368 . S
C998 C997 1.523 . S
H999 C974 0.950 . S
H1000 C976 0.950 . S
H1001 C977 0.949 . S
H1002 C979 0.950 . S
H1003 C981 0.950 . S
C1004 C1005 1.349 . S
C1004 C1006 1.327 . S
C1004 H1029 0.950 . S
C1005 C1004 1.349 . S
C1005 C1021 1.349 . S
C1006 C1004 1.327 . S
C1006 C1025 1.429 . S
C1006 H1030 0.950 . S
C1007 C1024 1.574 1_545 S
C1007 C1026 1.368 . S
C1007 H1031 0.949 . S
H1008 C1012 0.949 . S
C1009 C1010 1.349 . S
C1009 C1011 1.327 . S
C1009 H1032 0.950 . S
C1010 C1009 1.349 . S
C1010 C1022 1.349 . S
C1011 C1009 1.327 . S
C1011 C1027 1.429 . S
C1011 H1033 0.950 . S
C1012 H1008 0.949 . S
C1012 C1020 1.574 1_565 S
C1012 C1028 1.368 . S
H1013 C1021 0.950 . S
H1014 C1019 0.950 . S
H1015 C1020 0.949 . S
H1016 C1022 0.950 . S
H1017 C1023 0.950 . S
H1018 C1024 0.949 . S
C1019 H1014 0.950 . S
C1019 C1021 1.327 . S
C1019 C1025 1.429 . S
C1020 C1012 1.574 1_545 S
C1020 H1015 0.949 . S
C1020 C1026 1.368 . S
C1021 C1005 1.349 . S
C1021 H1013 0.950 . S
C1021 C1019 1.327 . S
C1022 C1010 1.349 . S
C1022 H1016 0.950 . S
C1022 C1023 1.327 . S
C1023 H1017 0.950 . S
C1023 C1022 1.327 . S
C1023 C1027 1.429 . S
C1024 C1007 1.574 1_565 S
C1024 H1018 0.949 . S
C1024 C1028 1.368 . S
C1025 C1006 1.429 . S
C1025 C1019 1.429 . S
C1025 C1026 1.523 . S
C1026 C1007 1.368 . S
C1026 C1020 1.368 . S
C1026 C1025 1.523 . S
C1027 C1011 1.429 . S
C1027 C1023 1.429 . S
C1027 C1028 1.523 . S
C1028 C1012 1.368 . S
C1028 C1024 1.368 . S
C1028 C1027 1.523 . S
H1029 C1004 0.950 . S
H1030 C1006 0.950 . S
H1031 C1007 0.949 . S
H1032 C1009 0.950 . S
H1033 C1011 0.950 . S
C1034 C1035 1.349 . S
C1034 C1036 1.327 . S
C1034 H1059 0.950 . S
C1035 C1034 1.349 . S
C1035 C1051 1.349 . S
C1036 C1034 1.327 . S
C1036 C1055 1.429 . S
C1036 H1060 0.950 . S
C1037 C1054 1.574 1_455 S
C1037 C1056 1.368 . S
C1037 H1061 0.949 . S
H1038 C1042 0.949 . S
C1039 C1040 1.349 . S
C1039 C1041 1.327 . S
C1039 H1062 0.950 . S
C1040 C1039 1.349 . S
C1040 C1052 1.349 . S
C1041 C1039 1.327 . S
C1041 C1057 1.429 . S
C1041 H1063 0.950 . S
C1042 H1038 0.949 . S
C1042 C1050 1.574 1_655 S
C1042 C1058 1.368 . S
H1043 C1051 0.950 . S
H1044 C1049 0.950 . S
H1045 C1050 0.949 . S
H1046 C1052 0.950 . S
H1047 C1053 0.950 . S
H1048 C1054 0.949 . S
C1049 H1044 0.950 . S
C1049 C1051 1.327 . S
C1049 C1055 1.429 . S
C1050 C1042 1.574 1_455 S
C1050 H1045 0.949 . S
C1050 C1056 1.368 . S
C1051 C1035 1.349 . S
C1051 H1043 0.950 . S
C1051 C1049 1.327 . S
C1052 C1040 1.349 . S
C1052 H1046 0.950 . S
C1052 C1053 1.327 . S
C1053 H1047 0.950 . S
C1053 C1052 1.327 . S
C1053 C1057 1.429 . S
C1054 C1037 1.574 1_655 S
C1054 H1048 0.949 . S
C1054 C1058 1.368 . S
C1055 C1036 1.429 . S
C1055 C1049 1.429 . S
C1055 C1056 1.523 . S
C1056 C1037 1.368 . S
C1056 C1050 1.368 . S
C1056 C1055 1.523 . S
C1057 C1041 1.429 . S
C1057 C1053 1.429 . S
C1057 C1058 1.523 . S
C1058 C1042 1.368 . S
C1058 C1054 1.368 . S
C1058 C1057 1.523 . S
H1059 C1034 0.950 . S
H1060 C1036 0.950 . S
H1061 C1037 0.949 . S
H1062 C1039 0.950 . S
H1063 C1041 0.950 . S
C1064 C1065 1.349 . S
C1064 C1066 1.327 . S
C1064 H1089 0.950 . S
C1065 C1064 1.349 . S
C1065 C1081 1.349 . S
C1066 C1064 1.327 . S
C1066 C1085 1.429 . S
C1066 H1090 0.950 . S
C1067 C1084 1.574 1_545 S
C1067 C1086 1.368 . S
C1067 H1091 0.949 . S
H1068 C1072 0.949 . S
C1069 C1070 1.349 . S
C1069 C1071 1.327 . S
C1069 H1092 0.950 . S
C1070 C1069 1.349 . S
C1070 C1082 1.349 . S
C1071 C1069 1.327 . S
C1071 C1087 1.429 . S
C1071 H1093 0.950 . S
C1072 H1068 0.949 . S
C1072 C1080 1.574 1_565 S
C1072 C1088 1.368 . S
H1073 C1081 0.950 . S
H1074 C1079 0.950 . S
H1075 C1080 0.949 . S
H1076 C1082 0.950 . S
H1077 C1083 0.950 . S
H1078 C1084 0.949 . S
C1079 H1074 0.950 . S
C1079 C1081 1.327 . S
C1079 C1085 1.429 . S
C1080 C1072 1.574 1_545 S
C1080 H1075 0.949 . S
C1080 C1086 1.368 . S
C1081 C1065 1.349 . S
C1081 H1073 0.950 . S
C1081 C1079 1.327 . S
C1082 C1070 1.349 . S
C1082 H1076 0.950 . S
C1082 C1083 1.327 . S
C1083 H1077 0.950 . S
C1083 C1082 1.327 . S
C1083 C1087 1.429 . S
C1084 C1067 1.574 1_565 S
C1084 H1078 0.949 . S
C1084 C1088 1.368 . S
C1085 C1066 1.429 . S
C1085 C1079 1.429 . S
C1085 C1086 1.523 . S
C1086 C1067 1.368 . S
C1086 C1080 1.368 . S
C1086 C1085 1.523 . S
C1087 C1071 1.429 . S
C1087 C1083 1.429 . S
C1087 C1088 1.523 . S
C1088 C1072 1.368 . S
C1088 C1084 1.368 . S
C1088 C1087 1.523 . S
H1089 C1064 0.950 . S
H1090 C1066 0.950 . S
H1091 C1067 0.949 . S
H1092 C1069 0.950 . S
H1093 C1071 0.950 . S
C1094 C1095 1.349 . S
C1094 C1096 1.327 . S
C1094 H1119 0.950 . S
C1095 C1094 1.349 . S
C1095 C1111 1.349 . S
C1096 C1094 1.327 . S
C1096 C1115 1.429 . S
C1096 H1120 0.950 . S
C1097 C1114 1.574 1_655 S
C1097 C1116 1.368 . S
C1097 H1121 0.949 . S
H1098 C1102 0.949 . S
C1099 C1100 1.349 . S
C1099 C1101 1.327 . S
C1099 H1122 0.950 . S
C1100 C1099 1.349 . S
C1100 C1112 1.349 . S
C1101 C1099 1.327 . S
C1101 C1117 1.429 . S
C1101 H1123 0.950 . S
C1102 H1098 0.949 . S
C1102 C1110 1.574 1_455 S
C1102 C1118 1.368 . S
H1103 C1111 0.950 . S
H1104 C1109 0.950 . S
H1105 C1110 0.949 . S
H1106 C1112 0.950 . S
H1107 C1113 0.950 . S
H1108 C1114 0.949 . S
C1109 H1104 0.950 . S
C1109 C1111 1.327 . S
C1109 C1115 1.429 . S
C1110 C1102 1.574 1_655 S
C1110 H1105 0.949 . S
C1110 C1116 1.368 . S
C1111 C1095 1.349 . S
C1111 H1103 0.950 . S
C1111 C1109 1.327 . S
C1112 C1100 1.349 . S
C1112 H1106 0.950 . S
C1112 C1113 1.327 . S
C1113 H1107 0.950 . S
C1113 C1112 1.327 . S
C1113 C1117 1.429 . S
C1114 C1097 1.574 1_455 S
C1114 H1108 0.949 . S
C1114 C1118 1.368 . S
C1115 C1096 1.429 . S
C1115 C1109 1.429 . S
C1115 C1116 1.523 . S
C1116 C1097 1.368 . S
C1116 C1110 1.368 . S
C1116 C1115 1.523 . S
C1117 C1101 1.429 . S
C1117 C1113 1.429 . S
C1117 C1118 1.523 . S
C1118 C1102 1.368 . S
C1118 C1114 1.368 . S
C1118 C1117 1.523 . S
H1119 C1094 0.950 . S
H1120 C1096 0.950 . S
H1121 C1097 0.949 . S
H1122 C1099 0.950 . S
H1123 C1101 0.950 . S
C1124 C1125 1.349 . S
C1124 C1126 1.327 . S
C1124 H1149 0.950 . S
C1125 C1124 1.349 . S
C1125 C1141 1.349 . S
C1126 C1124 1.327 . S
C1126 C1145 1.429 . S
C1126 H1150 0.950 . S
C1127 C1144 1.574 1_565 S
C1127 C1146 1.368 . S
C1127 H1151 0.949 . S
H1128 C1132 0.949 . S
C1129 C1130 1.349 . S
C1129 C1131 1.327 . S
C1129 H1152 0.950 . S
C1130 C1129 1.349 . S
C1130 C1142 1.349 . S
C1131 C1129 1.327 . S
C1131 C1147 1.429 . S
C1131 H1153 0.950 . S
C1132 H1128 0.949 . S
C1132 C1140 1.574 1_545 S
C1132 C1148 1.368 . S
H1133 C1141 0.950 . S
H1134 C1139 0.950 . S
H1135 C1140 0.949 . S
H1136 C1142 0.950 . S
H1137 C1143 0.950 . S
H1138 C1144 0.949 . S
C1139 H1134 0.950 . S
C1139 C1141 1.327 . S
C1139 C1145 1.429 . S
C1140 C1132 1.574 1_565 S
C1140 H1135 0.949 . S
C1140 C1146 1.368 . S
C1141 C1125 1.349 . S
C1141 H1133 0.950 . S
C1141 C1139 1.327 . S
C1142 C1130 1.349 . S
C1142 H1136 0.950 . S
C1142 C1143 1.327 . S
C1143 H1137 0.950 . S
C1143 C1142 1.327 . S
C1143 C1147 1.429 . S
C1144 C1127 1.574 1_545 S
C1144 H1138 0.949 . S
C1144 C1148 1.368 . S
C1145 C1126 1.429 . S
C1145 C1139 1.429 . S
C1145 C1146 1.523 . S
C1146 C1127 1.368 . S
C1146 C1140 1.368 . S
C1146 C1145 1.523 . S
C1147 C1131 1.429 . S
C1147 C1143 1.429 . S
C1147 C1148 1.523 . S
C1148 C1132 1.368 . S
C1148 C1144 1.368 . S
C1148 C1147 1.523 . S
H1149 C1124 0.950 . S
H1150 C1126 0.950 . S
H1151 C1127 0.949 . S
H1152 C1129 0.950 . S
H1153 C1131 0.950 . S
C1154 C1155 1.349 . S
C1154 C1156 1.327 . S
C1154 H1179 0.950 . S
C1155 C1154 1.349 . S
C1155 C1171 1.349 . S
C1156 C1154 1.327 . S
C1156 C1175 1.429 . S
C1156 H1180 0.950 . S
C1157 C1174 1.574 1_455 S
C1157 C1176 1.368 . S
C1157 H1181 0.949 . S
H1158 C1162 0.949 . S
C1159 C1160 1.349 . S
C1159 C1161 1.327 . S
C1159 H1182 0.950 . S
C1160 C1159 1.349 . S
C1160 C1172 1.349 . S
C1161 C1159 1.327 . S
C1161 C1177 1.429 . S
C1161 H1183 0.950 . S
C1162 H1158 0.949 . S
C1162 C1170 1.574 1_655 S
C1162 C1178 1.368 . S
H1163 C1171 0.950 . S
H1164 C1169 0.950 . S
H1165 C1170 0.949 . S
H1166 C1172 0.950 . S
H1167 C1173 0.950 . S
H1168 C1174 0.949 . S
C1169 H1164 0.950 . S
C1169 C1171 1.327 . S
C1169 C1175 1.429 . S
C1170 C1162 1.574 1_455 S
C1170 H1165 0.949 . S
C1170 C1176 1.368 . S
C1171 C1155 1.349 . S
C1171 H1163 0.950 . S
C1171 C1169 1.327 . S
C1172 C1160 1.349 . S
C1172 H1166 0.950 . S
C1172 C1173 1.327 . S
C1173 H1167 0.950 . S
C1173 C1172 1.327 . S
C1173 C1177 1.429 . S
C1174 C1157 1.574 1_655 S
C1174 H1168 0.949 . S
C1174 C1178 1.368 . S
C1175 C1156 1.429 . S
C1175 C1169 1.429 . S
C1175 C1176 1.523 . S
C1176 C1157 1.368 . S
C1176 C1170 1.368 . S
C1176 C1175 1.523 . S
C1177 C1161 1.429 . S
C1177 C1173 1.429 . S
C1177 C1178 1.523 . S
C1178 C1162 1.368 . S
C1178 C1174 1.368 . S
C1178 C1177 1.523 . S
H1179 C1154 0.950 . S
H1180 C1156 0.950 . S
H1181 C1157 0.949 . S
H1182 C1159 0.950 . S
H1183 C1161 0.950 . S
C225 C81 1.256 . S
C230 C11 1.256 . S
C255 C95 1.256 . S
C260 C25 1.256 . S
C285 C39 1.256 . S
C290 C109 1.256 . S
C315 C53 1.256 . S
C320 C67 1.256 . S
C345 C193 1.256 . S
C350 C123 1.256 . S
C375 C207 1.256 . S
C380 C137 1.256 . S
C405 C151 1.256 . S
C410 C221 1.256 . S
C435 C165 1.256 . S
C440 C179 1.256 . S
C465 C153 1.395 . S
C470 C13 1.395 . S
C495 C167 1.395 . S
C500 C27 1.395 . S
C525 C125 1.395 . S
C530 C41 1.395 . S
C555 C55 1.395 . S
C560 C139 1.395 . S
C585 C209 1.395 . S
C590 C69 1.395 . S
C615 C223 1.395 . S
C620 C83 1.395 . S
C645 C97 1.395 . S
C650 C181 1.395 . S
C675 C195 1.395 . S
C680 C111 1.395 . S
C705 C64 1.587 . S
C710 C8 1.587 . S
C735 C22 1.587 . S
C740 C78 1.587 . S
C765 C36 1.587 . S
C770 C92 1.587 . S
C795 C106 1.587 . S
C800 C50 1.587 . S
C825 C119 1.154 . S
C830 C175 1.154 . S
C855 C189 1.154 . S
C860 C133 1.154 . S
C885 C147 1.154 . S
C890 C203 1.154 . S
C915 C217 1.154 . S
C920 C161 1.154 . S
C945 C162 1.587 . S
C950 C190 1.587 . S
C975 C120 1.587 . S
C980 C204 1.587 . S
C1005 C218 1.587 . S
C1010 C134 1.587 . S
C1035 C148 1.587 . S
C1040 C176 1.587 . S
C1065 C77 1.154 . S
C1070 C49 1.154 . S
C1095 C91 1.154 . S
C1100 C7 1.154 . S
C1125 C105 1.154 . S
C1130 C21 1.154 . S
C1155 C63 1.154 . S
C1160 C35 1.154 . S
