# Generated by pormake.
# Topology ukp, (4)-cn, num edge types: 1
# Building blocks:
#     Node 0, Type 0, BuildingBlock: MUDLON_clean_sbu_0, # of connection points: 4
#     Node 1, Type 0, BuildingBlock: MUDLON_clean_sbu_0, # of connection points: 4
#     Node 2, Type 0, BuildingBlock: MUDLON_clean_sbu_0, # of connection points: 4
#     Node 3, Type 0, BuildingBlock: MUDLON_clean_sbu_0, # of connection points: 4
#     Node 4, Type 0, BuildingBlock: MUDLON_clean_sbu_0, # of connection points: 4
#     Node 5, Type 0, BuildingBlock: MUDLON_clean_sbu_0, # of connection points: 4
#     Node 6, Type 0, BuildingBlock: MUDLON_clean_sbu_0, # of connection points: 4
#     Node 7, Type 0, BuildingBlock: MUDLON_clean_sbu_0, # of connection points: 4
#     Node 8, Type 0, BuildingBlock: MUDLON_clean_sbu_0, # of connection points: 4
#     Node 9, Type 0, BuildingBlock: MUDLON_clean_sbu_0, # of connection points: 4
#     Node 10, Type 0, BuildingBlock: MUDLON_clean_sbu_0, # of connection points: 4
#     Node 11, Type 0, BuildingBlock: MUDLON_clean_sbu_0, # of connection points: 4
#     Node 12, Type 0, BuildingBlock: MUDLON_clean_sbu_0, # of connection points: 4
#     Node 13, Type 0, BuildingBlock: MUDLON_clean_sbu_0, # of connection points: 4
#     Node 14, Type 0, BuildingBlock: MUDLON_clean_sbu_0, # of connection points: 4
#     Node 15, Type 0, BuildingBlock: MUDLON_clean_sbu_0, # of connection points: 4
#     Node 16, Type 0, BuildingBlock: MUDLON_clean_sbu_0, # of connection points: 4
#     Node 17, Type 0, BuildingBlock: MUDLON_clean_sbu_0, # of connection points: 4
#     Node 18, Type 0, BuildingBlock: MUDLON_clean_sbu_0, # of connection points: 4
#     Node 19, Type 0, BuildingBlock: MUDLON_clean_sbu_0, # of connection points: 4
#     Node 20, Type 0, BuildingBlock: MUDLON_clean_sbu_0, # of connection points: 4
#     Node 21, Type 0, BuildingBlock: MUDLON_clean_sbu_0, # of connection points: 4
#     Node 22, Type 0, BuildingBlock: MUDLON_clean_sbu_0, # of connection points: 4
#     Node 23, Type 0, BuildingBlock: MUDLON_clean_sbu_0, # of connection points: 4
#     Node 24, Type 0, BuildingBlock: MUDLON_clean_sbu_0, # of connection points: 4
#     Node 25, Type 0, BuildingBlock: MUDLON_clean_sbu_0, # of connection points: 4
#     Node 26, Type 0, BuildingBlock: MUDLON_clean_sbu_0, # of connection points: 4
#     Node 27, Type 0, BuildingBlock: MUDLON_clean_sbu_0, # of connection points: 4
#     Node 28, Type 0, BuildingBlock: MUDLON_clean_sbu_0, # of connection points: 4
#     Node 29, Type 0, BuildingBlock: MUDLON_clean_sbu_0, # of connection points: 4
#     Node 30, Type 0, BuildingBlock: MUDLON_clean_sbu_0, # of connection points: 4
#     Node 31, Type 0, BuildingBlock: MUDLON_clean_sbu_0, # of connection points: 4
#     Node 32, Type 0, BuildingBlock: MUDLON_clean_sbu_0, # of connection points: 4
#     Node 33, Type 0, BuildingBlock: MUDLON_clean_sbu_0, # of connection points: 4
#     Node 34, Type 0, BuildingBlock: MUDLON_clean_sbu_0, # of connection points: 4
#     Node 35, Type 0, BuildingBlock: MUDLON_clean_sbu_0, # of connection points: 4
#     Node 36, Type 0, BuildingBlock: MUDLON_clean_sbu_0, # of connection points: 4
#     Node 37, Type 0, BuildingBlock: MUDLON_clean_sbu_0, # of connection points: 4
#     Node 38, Type 0, BuildingBlock: MUDLON_clean_sbu_0, # of connection points: 4
#     Node 39, Type 0, BuildingBlock: MUDLON_clean_sbu_0, # of connection points: 4
#     Node 40, Type 0, BuildingBlock: MUDLON_clean_sbu_0, # of connection points: 4
#     Node 41, Type 0, BuildingBlock: MUDLON_clean_sbu_0, # of connection points: 4
#     Node 42, Type 0, BuildingBlock: MUDLON_clean_sbu_0, # of connection points: 4
#     Node 43, Type 0, BuildingBlock: MUDLON_clean_sbu_0, # of connection points: 4
#     Node 44, Type 0, BuildingBlock: MUDLON_clean_sbu_0, # of connection points: 4
#     Node 45, Type 0, BuildingBlock: MUDLON_clean_sbu_0, # of connection points: 4
#     Node 46, Type 0, BuildingBlock: MUDLON_clean_sbu_0, # of connection points: 4
#     Node 47, Type 0, BuildingBlock: MUDLON_clean_sbu_0, # of connection points: 4
#     Edge 48, Type (0, 0), BuildingBlock: KIFKEQ_clean_linker_1, # of connection points: 2
#     Edge 49, Type (0, 0), BuildingBlock: KIFKEQ_clean_linker_1, # of connection points: 2
#     Edge 50, Type (0, 0), BuildingBlock: KIFKEQ_clean_linker_1, # of connection points: 2
#     Edge 51, Type (0, 0), BuildingBlock: KIFKEQ_clean_linker_1, # of connection points: 2
#     Edge 52, Type (0, 0), BuildingBlock: KIFKEQ_clean_linker_1, # of connection points: 2
#     Edge 53, Type (0, 0), BuildingBlock: KIFKEQ_clean_linker_1, # of connection points: 2
#     Edge 54, Type (0, 0), BuildingBlock: KIFKEQ_clean_linker_1, # of connection points: 2
#     Edge 55, Type (0, 0), BuildingBlock: KIFKEQ_clean_linker_1, # of connection points: 2
#     Edge 56, Type (0, 0), BuildingBlock: KIFKEQ_clean_linker_1, # of connection points: 2
#     Edge 57, Type (0, 0), BuildingBlock: KIFKEQ_clean_linker_1, # of connection points: 2
#     Edge 58, Type (0, 0), BuildingBlock: KIFKEQ_clean_linker_1, # of connection points: 2
#     Edge 59, Type (0, 0), BuildingBlock: KIFKEQ_clean_linker_1, # of connection points: 2
#     Edge 60, Type (0, 0), BuildingBlock: KIFKEQ_clean_linker_1, # of connection points: 2
#     Edge 61, Type (0, 0), BuildingBlock: KIFKEQ_clean_linker_1, # of connection points: 2
#     Edge 62, Type (0, 0), BuildingBlock: KIFKEQ_clean_linker_1, # of connection points: 2
#     Edge 63, Type (0, 0), BuildingBlock: KIFKEQ_clean_linker_1, # of connection points: 2
#     Edge 64, Type (0, 0), BuildingBlock: KIFKEQ_clean_linker_1, # of connection points: 2
#     Edge 65, Type (0, 0), BuildingBlock: KIFKEQ_clean_linker_1, # of connection points: 2
#     Edge 66, Type (0, 0), BuildingBlock: KIFKEQ_clean_linker_1, # of connection points: 2
#     Edge 67, Type (0, 0), BuildingBlock: KIFKEQ_clean_linker_1, # of connection points: 2
#     Edge 68, Type (0, 0), BuildingBlock: KIFKEQ_clean_linker_1, # of connection points: 2
#     Edge 69, Type (0, 0), BuildingBlock: KIFKEQ_clean_linker_1, # of connection points: 2
#     Edge 70, Type (0, 0), BuildingBlock: KIFKEQ_clean_linker_1, # of connection points: 2
#     Edge 71, Type (0, 0), BuildingBlock: KIFKEQ_clean_linker_1, # of connection points: 2
#     Edge 72, Type (0, 0), BuildingBlock: KIFKEQ_clean_linker_1, # of connection points: 2
#     Edge 73, Type (0, 0), BuildingBlock: KIFKEQ_clean_linker_1, # of connection points: 2
#     Edge 74, Type (0, 0), BuildingBlock: KIFKEQ_clean_linker_1, # of connection points: 2
#     Edge 75, Type (0, 0), BuildingBlock: KIFKEQ_clean_linker_1, # of connection points: 2
#     Edge 76, Type (0, 0), BuildingBlock: KIFKEQ_clean_linker_1, # of connection points: 2
#     Edge 77, Type (0, 0), BuildingBlock: KIFKEQ_clean_linker_1, # of connection points: 2
#     Edge 78, Type (0, 0), BuildingBlock: KIFKEQ_clean_linker_1, # of connection points: 2
#     Edge 79, Type (0, 0), BuildingBlock: KIFKEQ_clean_linker_1, # of connection points: 2
#     Edge 80, Type (0, 0), BuildingBlock: KIFKEQ_clean_linker_1, # of connection points: 2
#     Edge 81, Type (0, 0), BuildingBlock: KIFKEQ_clean_linker_1, # of connection points: 2
#     Edge 82, Type (0, 0), BuildingBlock: KIFKEQ_clean_linker_1, # of connection points: 2
#     Edge 83, Type (0, 0), BuildingBlock: KIFKEQ_clean_linker_1, # of connection points: 2
#     Edge 84, Type (0, 0), BuildingBlock: KIFKEQ_clean_linker_1, # of connection points: 2
#     Edge 85, Type (0, 0), BuildingBlock: KIFKEQ_clean_linker_1, # of connection points: 2
#     Edge 86, Type (0, 0), BuildingBlock: KIFKEQ_clean_linker_1, # of connection points: 2
#     Edge 87, Type (0, 0), BuildingBlock: KIFKEQ_clean_linker_1, # of connection points: 2
#     Edge 88, Type (0, 0), BuildingBlock: KIFKEQ_clean_linker_1, # of connection points: 2
#     Edge 89, Type (0, 0), BuildingBlock: KIFKEQ_clean_linker_1, # of connection points: 2
#     Edge 90, Type (0, 0), BuildingBlock: KIFKEQ_clean_linker_1, # of connection points: 2
#     Edge 91, Type (0, 0), BuildingBlock: KIFKEQ_clean_linker_1, # of connection points: 2
#     Edge 92, Type (0, 0), BuildingBlock: KIFKEQ_clean_linker_1, # of connection points: 2
#     Edge 93, Type (0, 0), BuildingBlock: KIFKEQ_clean_linker_1, # of connection points: 2
#     Edge 94, Type (0, 0), BuildingBlock: KIFKEQ_clean_linker_1, # of connection points: 2
#     Edge 95, Type (0, 0), BuildingBlock: KIFKEQ_clean_linker_1, # of connection points: 2
#     Edge 96, Type (0, 0), BuildingBlock: KIFKEQ_clean_linker_1, # of connection points: 2
#     Edge 97, Type (0, 0), BuildingBlock: KIFKEQ_clean_linker_1, # of connection points: 2
#     Edge 98, Type (0, 0), BuildingBlock: KIFKEQ_clean_linker_1, # of connection points: 2
#     Edge 99, Type (0, 0), BuildingBlock: KIFKEQ_clean_linker_1, # of connection points: 2
#     Edge 100, Type (0, 0), BuildingBlock: KIFKEQ_clean_linker_1, # of connection points: 2
#     Edge 101, Type (0, 0), BuildingBlock: KIFKEQ_clean_linker_1, # of connection points: 2
#     Edge 102, Type (0, 0), BuildingBlock: KIFKEQ_clean_linker_1, # of connection points: 2
#     Edge 103, Type (0, 0), BuildingBlock: KIFKEQ_clean_linker_1, # of connection points: 2
#     Edge 104, Type (0, 0), BuildingBlock: KIFKEQ_clean_linker_1, # of connection points: 2
#     Edge 105, Type (0, 0), BuildingBlock: KIFKEQ_clean_linker_1, # of connection points: 2
#     Edge 106, Type (0, 0), BuildingBlock: KIFKEQ_clean_linker_1, # of connection points: 2
#     Edge 107, Type (0, 0), BuildingBlock: KIFKEQ_clean_linker_1, # of connection points: 2
#     Edge 108, Type (0, 0), BuildingBlock: KIFKEQ_clean_linker_1, # of connection points: 2
#     Edge 109, Type (0, 0), BuildingBlock: KIFKEQ_clean_linker_1, # of connection points: 2
#     Edge 110, Type (0, 0), BuildingBlock: KIFKEQ_clean_linker_1, # of connection points: 2
#     Edge 111, Type (0, 0), BuildingBlock: KIFKEQ_clean_linker_1, # of connection points: 2
#     Edge 112, Type (0, 0), BuildingBlock: KIFKEQ_clean_linker_1, # of connection points: 2
#     Edge 113, Type (0, 0), BuildingBlock: KIFKEQ_clean_linker_1, # of connection points: 2
#     Edge 114, Type (0, 0), BuildingBlock: KIFKEQ_clean_linker_1, # of connection points: 2
#     Edge 115, Type (0, 0), BuildingBlock: KIFKEQ_clean_linker_1, # of connection points: 2
#     Edge 116, Type (0, 0), BuildingBlock: KIFKEQ_clean_linker_1, # of connection points: 2
#     Edge 117, Type (0, 0), BuildingBlock: KIFKEQ_clean_linker_1, # of connection points: 2
#     Edge 118, Type (0, 0), BuildingBlock: KIFKEQ_clean_linker_1, # of connection points: 2
#     Edge 119, Type (0, 0), BuildingBlock: KIFKEQ_clean_linker_1, # of connection points: 2
#     Edge 120, Type (0, 0), BuildingBlock: KIFKEQ_clean_linker_1, # of connection points: 2
#     Edge 121, Type (0, 0), BuildingBlock: KIFKEQ_clean_linker_1, # of connection points: 2
#     Edge 122, Type (0, 0), BuildingBlock: KIFKEQ_clean_linker_1, # of connection points: 2
#     Edge 123, Type (0, 0), BuildingBlock: KIFKEQ_clean_linker_1, # of connection points: 2
#     Edge 124, Type (0, 0), BuildingBlock: KIFKEQ_clean_linker_1, # of connection points: 2
#     Edge 125, Type (0, 0), BuildingBlock: KIFKEQ_clean_linker_1, # of connection points: 2
#     Edge 126, Type (0, 0), BuildingBlock: KIFKEQ_clean_linker_1, # of connection points: 2
#     Edge 127, Type (0, 0), BuildingBlock: KIFKEQ_clean_linker_1, # of connection points: 2
#     Edge 128, Type (0, 0), BuildingBlock: KIFKEQ_clean_linker_1, # of connection points: 2
#     Edge 129, Type (0, 0), BuildingBlock: KIFKEQ_clean_linker_1, # of connection points: 2
#     Edge 130, Type (0, 0), BuildingBlock: KIFKEQ_clean_linker_1, # of connection points: 2
#     Edge 131, Type (0, 0), BuildingBlock: KIFKEQ_clean_linker_1, # of connection points: 2
#     Edge 132, Type (0, 0), BuildingBlock: KIFKEQ_clean_linker_1, # of connection points: 2
#     Edge 133, Type (0, 0), BuildingBlock: KIFKEQ_clean_linker_1, # of connection points: 2
#     Edge 134, Type (0, 0), BuildingBlock: KIFKEQ_clean_linker_1, # of connection points: 2
#     Edge 135, Type (0, 0), BuildingBlock: KIFKEQ_clean_linker_1, # of connection points: 2
#     Edge 136, Type (0, 0), BuildingBlock: KIFKEQ_clean_linker_1, # of connection points: 2
#     Edge 137, Type (0, 0), BuildingBlock: KIFKEQ_clean_linker_1, # of connection points: 2
#     Edge 138, Type (0, 0), BuildingBlock: KIFKEQ_clean_linker_1, # of connection points: 2
#     Edge 139, Type (0, 0), BuildingBlock: KIFKEQ_clean_linker_1, # of connection points: 2
#     Edge 140, Type (0, 0), BuildingBlock: KIFKEQ_clean_linker_1, # of connection points: 2
#     Edge 141, Type (0, 0), BuildingBlock: KIFKEQ_clean_linker_1, # of connection points: 2
#     Edge 142, Type (0, 0), BuildingBlock: KIFKEQ_clean_linker_1, # of connection points: 2
#     Edge 143, Type (0, 0), BuildingBlock: KIFKEQ_clean_linker_1, # of connection points: 2
# Relax obj value: 0.219
# Max RMSD: 0.216
# Mean RMSD: 0.216
data_MOF--net-ukp--node1-MUDLON_clean_sbu_0--edge1-KIFKEQ_clean_linker_1
_symmetry_space_group_name_H-M    P1
_symmetry_Int_Tables_number       1
_symmetry_cell_setting            triclinic
loop_
_symmetry_equiv_pos_as_xyz
'x, y, z'
_cell_length_a     66.104331
_cell_length_b     66.073669
_cell_length_c     66.068745
_cell_angle_alpha  89.945517
_cell_angle_beta   90.01284
_cell_angle_gamma 89.9092
loop_
_atom_site_label
_atom_site_type_symbol
_atom_site_fract_x
_atom_site_fract_y
_atom_site_fract_z
_atom_type_partial_charge
Mg0 Mg 0.20352 0.27553 0.39128 0.0
C1 C 0.18945 0.30751 0.41978 0.0
O2 O 0.17372 0.29542 0.41899 0.0
C3 C 0.23043 0.24411 0.37522 0.0
O4 O 0.21276 0.24001 0.36708 0.0
C5 C 0.18434 0.24586 0.41914 0.0
O6 O 0.20216 0.24875 0.42746 0.0
O7 O 0.18018 0.25517 0.40277 0.0
O8 O 0.2055 0.30229 0.41051 0.0
O9 O 0.19867 0.28727 0.36087 0.0
C10 C 0.19156 0.30488 0.35755 0.0
O11 O 0.18384 0.3152 0.37268 0.0
O12 O 0.23156 0.25864 0.38781 0.0
Mg13 Mg 0.98694 0.96025 0.65056 0.0
C14 C 0.95476 0.95207 0.68161 0.0
O15 O 0.96601 0.93578 0.68365 0.0
C16 C 0.02119 0.98949 0.64036 0.0
O17 O 0.03251 0.97405 0.64579 0.0
C18 C 0.01839 0.92593 0.65974 0.0
O19 O 0.01695 0.92154 0.64041 0.0
O20 O 1.00788 0.94039 0.66692 0.0
O21 O 0.96077 0.96603 0.66978 0.0
O22 O 0.97442 0.95002 0.62159 0.0
C23 C 0.95534 0.94777 0.61998 0.0
O24 O 0.9443 0.94778 0.63649 0.0
O25 O 1.00206 0.9882 0.64208 0.0
Mg26 Mg 0.30954 0.73956 0.88929 0.0
C27 C 0.32364 0.7061 0.91706 0.0
O28 O 0.34025 0.71692 0.91585 0.0
C29 C 0.27913 0.77308 0.88112 0.0
O30 O 0.29547 0.78426 0.88269 0.0
C31 C 0.33068 0.76539 0.92002 0.0
O32 O 0.31678 0.75655 0.93114 0.0
O33 O 0.33159 0.76115 0.90124 0.0
O34 O 0.30773 0.71257 0.90831 0.0
O35 O 0.31567 0.72825 0.85895 0.0
C36 C 0.32304 0.71075 0.85573 0.0
O37 O 0.33051 0.70041 0.87099 0.0
O38 O 0.28034 0.75419 0.88475 0.0
Mg39 Mg 0.52556 0.06134 0.13725 0.0
C40 C 0.55662 0.07794 0.1652 0.0
O41 O 0.54459 0.09353 0.16231 0.0
C42 C 0.4922 0.03032 0.13153 0.0
O43 O 0.4808 0.04644 0.13398 0.0
C44 C 0.49652 0.07996 0.16636 0.0
O45 O 0.50235 0.06353 0.17595 0.0
O46 O 0.50364 0.08337 0.14876 0.0
O47 O 0.55176 0.06104 0.15739 0.0
O48 O 0.53726 0.06719 0.1068 0.0
C49 C 0.55622 0.06924 0.10398 0.0
O50 O 0.56817 0.07067 0.11979 0.0
O51 O 0.51127 0.03191 0.13361 0.0
Mg52 Mg 0.20914 0.7375 0.11657 0.0
C53 C 0.19811 0.70325 0.08867 0.0
O54 O 0.18212 0.71491 0.08661 0.0
C55 C 0.239 0.77071 0.12669 0.0
O56 O 0.22271 0.78188 0.12439 0.0
C57 C 0.17591 0.76991 0.10677 0.0
O58 O 0.1723 0.76976 0.12633 0.0
O59 O 0.18953 0.75831 0.09963 0.0
O60 O 0.21273 0.70946 0.09954 0.0
O61 O 0.20014 0.72788 0.14687 0.0
C62 C 0.19362 0.71005 0.15018 0.0
O63 O 0.18805 0.69885 0.13476 0.0
O64 O 0.23806 0.75185 0.1229 0.0
Mg65 Mg 0.5265 0.95101 0.3756 0.0
C66 C 0.55925 0.94046 0.34548 0.0
O67 O 0.54843 0.92382 0.34462 0.0
C68 C 0.49118 0.97996 0.38315 0.0
O69 O 0.48044 0.96344 0.38067 0.0
C70 C 0.4979 0.93171 0.3462 0.0
O71 O 0.5011 0.94941 0.3377 0.0
O72 O 0.50657 0.9278 0.36297 0.0
O73 O 0.55286 0.95513 0.35619 0.0
O74 O 0.53865 0.94469 0.40574 0.0
C75 C 0.55759 0.94215 0.40826 0.0
O76 O 0.5692 0.94011 0.39227 0.0
O77 O 0.51025 0.97925 0.38054 0.0
Mg78 Mg 0.30969 0.27486 0.62237 0.0
C79 C 0.322 0.3081 0.59381 0.0
O80 O 0.33916 0.29819 0.59563 0.0
C81 C 0.2831 0.24372 0.63982 0.0
O82 O 0.30081 0.23987 0.64803 0.0
C83 C 0.33163 0.24945 0.59213 0.0
O84 O 0.31724 0.25763 0.58108 0.0
O85 O 0.33271 0.25411 0.6108 0.0
O86 O 0.30635 0.30115 0.6026 0.0
O87 O 0.31515 0.28709 0.65247 0.0
C88 C 0.32225 0.30472 0.65548 0.0
O89 O 0.32956 0.31498 0.64011 0.0
O90 O 0.28185 0.25791 0.62682 0.0
Mg91 Mg 0.98587 0.05701 0.87046 0.0
C92 C 0.95457 0.06912 0.84022 0.0
O93 O 0.9633 0.08654 0.84415 0.0
C94 C 0.02107 0.02866 0.88099 0.0
O95 O 0.0319 0.04489 0.87729 0.0
C96 C 0.0154 0.07749 0.84316 0.0
O97 O 0.01189 0.06037 0.8337 0.0
O98 O 1.00657 0.08068 0.86 0.0
O99 O 0.96211 0.05311 0.84785 0.0
O100 O 0.96882 0.06333 0.89811 0.0
C101 C 0.95281 0.05267 0.89943 0.0
O102 O 0.94841 0.04031 0.88452 0.0
O103 O 1.00204 0.02921 0.87806 0.0
Mg104 Mg 0.3892 0.20108 0.27758 0.0
C105 C 0.42034 0.18996 0.3088 0.0
O106 O 0.41948 0.17309 0.29831 0.0
C107 C 0.37031 0.22797 0.24696 0.0
O108 O 0.3613 0.21058 0.24358 0.0
C109 C 0.41448 0.18247 0.24502 0.0
O110 O 0.42065 0.20137 0.24482 0.0
O111 O 0.40054 0.17747 0.25734 0.0
O112 O 0.41024 0.20518 0.30265 0.0
O113 O 0.35976 0.19514 0.29144 0.0
C114 C 0.35828 0.19344 0.31059 0.0
O115 O 0.37486 0.19244 0.32147 0.0
O116 O 0.38405 0.22875 0.26044 0.0
Mg117 Mg 0.06105 0.13838 0.52811 0.0
C118 C 0.06886 0.16954 0.56027 0.0
O119 O 0.08563 0.17091 0.54969 0.0
C120 C 0.03807 0.11827 0.49587 0.0
O121 O 0.05677 0.11216 0.49295 0.0
C122 C 0.08008 0.16613 0.49791 0.0
O123 O 0.06138 0.17288 0.49847 0.0
O124 O 0.08481 0.15107 0.50898 0.0
O125 O 0.05484 0.15803 0.55387 0.0
O126 O 0.0679 0.10911 0.54156 0.0
C127 C 0.07371 0.1073 0.55983 0.0
O128 O 0.0791 0.12356 0.56989 0.0
O129 O 0.03472 0.13126 0.5097 0.0
Mg130 Mg 0.1234 0.80768 0.77702 0.0
C131 C 0.09406 0.81899 0.8102 0.0
O132 O 0.09267 0.83507 0.79858 0.0
C133 C 0.14329 0.78065 0.74775 0.0
O134 O 0.15113 0.79851 0.74392 0.0
C135 C 0.10986 0.84714 0.75474 0.0
O136 O 0.12116 0.85649 0.76815 0.0
O137 O 0.10875 0.82792 0.75518 0.0
O138 O 0.10494 0.80422 0.8043 0.0
O139 O 0.1534 0.81589 0.78793 0.0
C140 C 0.1563 0.82236 0.80583 0.0
O141 O 0.14066 0.82803 0.8167 0.0
O142 O 0.12971 0.77932 0.76136 0.0
Mg143 Mg 0.45226 0.87784 0.02523 0.0
C144 C 0.44518 0.84637 0.05729 0.0
O145 O 0.42859 0.84452 0.04649 0.0
C146 C 0.49162 0.87679 0.99758 0.0
O147 O 0.49007 0.857 0.9965 0.0
C148 C 0.43151 0.8579 0.98888 0.0
O149 O 0.44958 0.86023 0.981 0.0
O150 O 0.42815 0.86455 1.00666 0.0
O151 O 0.45893 0.85831 0.05105 0.0
O152 O 0.44453 0.90676 0.03894 0.0
C153 C 0.43977 0.90851 0.05752 0.0
O154 O 0.43566 0.89217 0.06806 0.0
O155 O 0.47878 0.88687 1.00776 0.0
Mg156 Mg 0.39128 0.80829 0.23635 0.0
C157 C 0.42082 0.82019 0.20372 0.0
O158 O 0.42078 0.83675 0.21471 0.0
C159 C 0.38101 0.77959 0.27075 0.0
O160 O 0.38102 0.79661 0.28102 0.0
C161 C 0.41935 0.82723 0.26652 0.0
O162 O 0.42743 0.80919 0.26429 0.0
O163 O 0.40332 0.83147 0.25669 0.0
O164 O 0.41072 0.805 0.20987 0.0
O165 O 0.36131 0.81421 0.22396 0.0
C166 C 0.35868 0.82101 0.20612 0.0
O167 O 0.3743 0.82799 0.19603 0.0
O168 O 0.38629 0.77983 0.25222 0.0
Mg169 Mg 0.45019 0.13319 0.48757 0.0
C170 C 0.44369 0.16443 0.45509 0.0
O171 O 0.42714 0.16691 0.46583 0.0
C172 C 0.48962 0.13519 0.51475 0.0
O173 O 0.48775 0.15498 0.5153 0.0
C174 C 0.42998 0.15357 0.52396 0.0
O175 O 0.44783 0.15023 0.53202 0.0
O176 O 0.4265 0.14732 0.50606 0.0
O177 O 0.45708 0.15211 0.46144 0.0
O178 O 0.44219 0.104 0.47465 0.0
C179 C 0.43738 0.10185 0.45612 0.0
O180 O 0.43341 0.118 0.4452 0.0
O181 O 0.47685 0.12466 0.50498 0.0
Mg182 Mg 0.12499 0.20238 0.7381 0.0
C183 C 0.09343 0.1929 0.70668 0.0
O184 O 0.09351 0.17591 0.71702 0.0
C185 C 0.1383 0.22947 0.77272 0.0
O186 O 0.13833 0.21209 0.78239 0.0
C187 C 0.09699 0.18348 0.76856 0.0
O188 O 0.08939 0.20181 0.76705 0.0
O189 O 0.11269 0.17911 0.75826 0.0
O190 O 0.10418 0.20757 0.71297 0.0
O191 O 0.15407 0.19507 0.72411 0.0
C192 C 0.15548 0.19342 0.70495 0.0
O193 O 0.13886 0.19302 0.69409 0.0
O194 O 0.13203 0.23007 0.75452 0.0
Mg195 Mg 0.0602 0.87793 0.98923 0.0
C196 C 0.06896 0.84701 0.95672 0.0
O197 O 0.08507 0.84478 0.96815 0.0
C198 C 0.03543 0.90107 0.01782 0.0
O199 O 0.05401 0.9074 0.02093 0.0
C200 C 0.0993 0.86248 0.01086 0.0
O201 O 0.1089 0.87255 0.99665 0.0
O202 O 0.08004 0.86276 0.01115 0.0
O203 O 0.05503 0.85897 0.96259 0.0
O204 O 0.06975 0.90713 0.97715 0.0
C205 C 0.07485 0.90928 0.95869 0.0
O206 O 0.07874 0.8931 0.94783 0.0
O207 O 0.03264 0.88689 1.00507 0.0
Mg208 Mg 0.2775 0.39055 0.20707 0.0
C209 C 0.30969 0.42062 0.19552 0.0
O210 O 0.29927 0.41992 0.1786 0.0
C211 C 0.24325 0.38091 0.23621 0.0
O212 O 0.23243 0.38263 0.21961 0.0
C213 C 0.24847 0.42002 0.18842 0.0
O214 O 0.25314 0.42913 0.20546 0.0
O215 O 0.25645 0.40288 0.18465 0.0
O216 O 0.30325 0.4108 0.21079 0.0
O217 O 0.29018 0.36082 0.19988 0.0
C218 C 0.30927 0.35857 0.19837 0.0
O219 O 0.32083 0.3747 0.19822 0.0
O220 O 0.26209 0.38476 0.23556 0.0
Mg221 Mg 0.77636 0.12374 0.80411 0.0
C222 C 0.80863 0.09249 0.81338 0.0
O223 O 0.79798 0.09126 0.83012 0.0
C224 C 0.74145 0.13441 0.77566 0.0
O225 O 0.73075 0.13239 0.79229 0.0
C226 C 0.74726 0.09436 0.8233 0.0
O227 O 0.75046 0.08573 0.80568 0.0
O228 O 0.75609 0.11105 0.82712 0.0
O229 O 0.80225 0.1038 0.79914 0.0
O230 O 0.78942 0.15323 0.81149 0.0
C231 C 0.80846 0.1551 0.81381 0.0
O232 O 0.81967 0.13872 0.81493 0.0
O233 O 0.76028 0.13036 0.77607 0.0
Mg234 Mg 0.13543 0.52582 0.06687 0.0
C235 C 0.16809 0.55664 0.07263 0.0
O236 O 0.16882 0.54696 0.09 0.0
C237 C 0.10925 0.49842 0.04374 0.0
O238 O 0.09913 0.50191 0.06049 0.0
C239 C 0.16266 0.49548 0.08612 0.0
O240 O 0.1682 0.49489 0.06702 0.0
O241 O 0.14831 0.50733 0.09115 0.0
O242 O 0.15635 0.55004 0.05888 0.0
O243 O 0.1072 0.54157 0.07361 0.0
C244 C 0.10631 0.5605 0.07705 0.0
O245 O 0.12313 0.57053 0.08031 0.0
O246 O 0.12675 0.50621 0.04173 0.0
Mg247 Mg 0.74013 0.8849 0.31664 0.0
C248 C 0.70582 0.91292 0.32702 0.0
O249 O 0.7145 0.91073 0.34479 0.0
C250 C 0.77006 0.86346 0.29241 0.0
O251 O 0.77294 0.85709 0.31104 0.0
C252 C 0.76279 0.91677 0.34034 0.0
O253 O 0.75129 0.92834 0.32895 0.0
O254 O 0.7613 0.89761 0.33881 0.0
O255 O 0.71394 0.90455 0.31168 0.0
O256 O 0.7274 0.85525 0.32368 0.0
C257 C 0.70916 0.85274 0.32929 0.0
O258 O 0.69849 0.86854 0.3349 0.0
O259 O 0.75704 0.87737 0.2894 0.0
Mg260 Mg 0.87114 0.99068 0.06159 0.0
C261 C 0.85546 0.95435 0.08017 0.0
O262 O 0.867 0.96316 0.09375 0.0
C263 C 0.87956 0.02142 0.02882 0.0
O264 O 0.88112 0.03307 0.04485 0.0
C265 C 0.86493 0.02661 0.0922 0.0
O266 O 0.88463 0.02907 0.09134 0.0
O267 O 0.85674 0.01248 0.08202 0.0
O268 O 0.85309 0.96312 0.06318 0.0
O269 O 0.90123 0.97921 0.06911 0.0
C270 C 0.91721 0.98641 0.06117 0.0
O271 O 0.91609 1.00352 0.05111 0.0
O272 O 0.87413 1.00309 0.03116 0.0
Mg273 Mg 0.23931 0.62175 0.70571 0.0
C274 C 0.20691 0.59067 0.69595 0.0
O275 O 0.21812 0.58868 0.67966 0.0
C276 C 0.2726 0.63267 0.73528 0.0
O277 O 0.28377 0.62993 0.71907 0.0
C278 C 0.26115 0.60739 0.66646 0.0
O279 O 0.24626 0.61671 0.6571 0.0
O280 O 0.26178 0.60768 0.68571 0.0
O281 O 0.21301 0.60224 0.71007 0.0
O282 O 0.2271 0.65131 0.69702 0.0
C283 C 0.20808 0.6534 0.69465 0.0
O284 O 0.19677 0.63713 0.69355 0.0
O285 O 0.25373 0.62899 0.73438 0.0
Mg286 Mg 0.14254 0.49357 0.4527 0.0
C287 C 0.15607 0.45392 0.43893 0.0
O288 O 0.14464 0.46098 0.42425 0.0
C289 C 0.13621 0.52595 0.48521 0.0
O290 O 0.14086 0.53825 0.47029 0.0
C291 C 0.15062 0.52897 0.42251 0.0
O292 O 0.13121 0.53278 0.42451 0.0
O293 O 0.15834 0.51408 0.43202 0.0
O294 O 0.15941 0.46521 0.45416 0.0
O295 O 0.1127 0.48285 0.44361 0.0
C296 C 0.09673 0.48983 0.45178 0.0
O297 O 0.09795 0.50639 0.4627 0.0
O298 O 0.13732 0.50693 0.4824 0.0
Mg299 Mg 0.38084 0.52636 0.94966 0.0
C300 C 0.35038 0.5594 0.94162 0.0
O301 O 0.34799 0.5483 0.9253 0.0
C302 C 0.3799 0.49689 0.98769 0.0
O303 O 0.36145 0.49148 0.98268 0.0
C304 C 0.36508 0.48814 0.92771 0.0
O305 O 0.37374 0.47867 0.9429 0.0
O306 O 0.36648 0.50733 0.92654 0.0
O307 O 0.36231 0.55312 0.9554 0.0
O308 O 0.41021 0.53865 0.94128 0.0
C309 C 0.41252 0.55698 0.93581 0.0
O310 O 0.39649 0.56781 0.9312 0.0
O311 O 0.38916 0.51009 0.97719 0.0
Mg312 Mg 0.70401 0.77738 0.88969 0.0
C313 C 0.69499 0.80975 0.92061 0.0
O314 O 0.67812 0.79931 0.92156 0.0
C315 C 0.73187 0.74254 0.8779 0.0
O316 O 0.71487 0.7323 0.87874 0.0
C317 C 0.68536 0.74748 0.91853 0.0
O318 O 0.70362 0.74924 0.9262 0.0
O319 O 0.681 0.75745 0.90261 0.0
O320 O 0.70929 0.80323 0.90948 0.0
O321 O 0.69612 0.79033 0.86033 0.0
C322 C 0.69259 0.8092 0.85854 0.0
O323 O 0.69068 0.82021 0.87496 0.0
O324 O 0.73188 0.76111 0.88301 0.0
Mg325 Mg 0.4879 0.45295 0.13948 0.0
C326 C 0.45611 0.44473 0.17121 0.0
O327 O 0.46676 0.42799 0.17266 0.0
C328 C 0.5187 0.47923 0.11976 0.0
O329 O 0.52166 0.46183 0.1106 0.0
C330 C 0.52316 0.43429 0.16187 0.0
O331 O 0.52768 0.4536 0.16321 0.0
O332 O 0.50731 0.42916 0.15218 0.0
O333 O 0.46236 0.45872 0.15956 0.0
O334 O 0.47415 0.44643 0.11008 0.0
C335 C 0.45526 0.44288 0.10881 0.0
O336 O 0.44492 0.43996 0.12553 0.0
O337 O 0.50549 0.4802 0.13374 0.0
Mg338 Mg 0.80815 0.23921 0.39996 0.0
C339 C 0.8252 0.2079 0.42646 0.0
O340 O 0.84091 0.21846 0.42041 0.0
C341 C 0.78101 0.2683 0.38037 0.0
O342 O 0.7988 0.27154 0.37209 0.0
C343 C 0.82467 0.27659 0.41982 0.0
O344 O 0.8051 0.27928 0.42195 0.0
O345 O 0.83091 0.26103 0.41028 0.0
O346 O 0.80764 0.21415 0.42159 0.0
O347 O 0.81384 0.22396 0.37115 0.0
C348 C 0.8037 0.20765 0.36953 0.0
O349 O 0.7923 0.20205 0.38481 0.0
O350 O 0.77969 0.25501 0.39429 0.0
Mg351 Mg 0.02715 0.56108 0.63894 0.0
C352 C 0.05994 0.57114 0.6691 0.0
O353 O 0.04956 0.58811 0.6695 0.0
C354 C 0.9919 0.53256 0.6299 0.0
O355 O 0.98122 0.54922 0.63186 0.0
C356 C 0.9976 0.58058 0.66745 0.0
O357 O 0.99994 0.56266 0.67578 0.0
O358 O 1.00719 0.58453 0.65121 0.0
O359 O 0.05332 0.5565 0.65852 0.0
O360 O 0.03993 0.56741 0.6092 0.0
C361 C 0.05801 0.5736 0.60698 0.0
O362 O 0.0682 0.57956 0.62296 0.0
O363 O 0.01083 0.53302 0.63341 0.0
Mg364 Mg 0.70186 0.24086 0.62155 0.0
C365 C 0.69238 0.20717 0.59231 0.0
O366 O 0.67546 0.21759 0.59129 0.0
C367 C 0.72898 0.27067 0.64108 0.0
O368 O 0.71172 0.27357 0.65051 0.0
C369 C 0.68416 0.27714 0.59988 0.0
O370 O 0.70328 0.28238 0.60095 0.0
O371 O 0.6787 0.26044 0.60784 0.0
O372 O 0.70684 0.21405 0.60298 0.0
O373 O 0.69551 0.22901 0.65171 0.0
C374 C 0.68936 0.21099 0.65462 0.0
O375 O 0.68318 0.20029 0.63906 0.0
O376 O 0.72962 0.2578 0.62675 0.0
Mg377 Mg 0.02702 0.44611 0.87916 0.0
C378 C 0.06293 0.43016 0.85993 0.0
O379 O 0.05497 0.41505 0.87014 0.0
C380 C 0.99551 0.47633 0.89229 0.0
O381 O 0.98572 0.45943 0.89593 0.0
C382 C 0.99664 0.42868 0.85102 0.0
O383 O 1.00036 0.44653 0.84306 0.0
O384 O 1.00559 0.42386 0.86741 0.0
O385 O 0.05329 0.44683 0.85935 0.0
O386 O 0.04162 0.43982 0.908 0.0
C387 C 0.03341 0.44059 0.92537 0.0
O388 O 0.01366 0.44223 0.92676 0.0
O389 O 0.01278 0.47543 0.88381 0.0
Mg390 Mg 0.80597 0.77131 0.12869 0.0
C391 C 0.81436 0.81447 0.12032 0.0
O392 O 0.82631 0.81023 0.1356 0.0
C393 C 0.777 0.73741 0.13831 0.0
O394 O 0.79441 0.72829 0.14129 0.0
C395 C 0.83804 0.73813 0.11728 0.0
O396 O 0.83721 0.73257 0.13635 0.0
O397 O 0.82747 0.7531 0.11126 0.0
O398 O 0.8033 0.80053 0.11296 0.0
O399 O 0.81489 0.78025 0.15936 0.0
C400 C 0.80533 0.7748 0.17515 0.0
O401 O 0.79192 0.76025 0.17383 0.0
O402 O 0.77702 0.75555 0.13175 0.0
Mg403 Mg 0.48624 0.55636 0.36721 0.0
C404 C 0.45662 0.57192 0.33646 0.0
O405 O 0.469 0.58734 0.33817 0.0
C406 C 0.51753 0.52413 0.37686 0.0
O407 O 0.52974 0.53938 0.37326 0.0
C408 C 0.51233 0.59422 0.35705 0.0
O409 O 0.49973 0.60373 0.36914 0.0
O410 O 0.51026 0.57526 0.35437 0.0
O411 O 0.46065 0.55573 0.34614 0.0
O412 O 0.47401 0.56529 0.39664 0.0
C413 C 0.45494 0.56734 0.39867 0.0
O414 O 0.44355 0.56743 0.38239 0.0
O415 O 0.4986 0.52649 0.37408 0.0
Mg416 Mg 0.88819 0.70412 0.7744 0.0
C417 C 0.91554 0.68855 0.80696 0.0
O418 O 0.91518 0.67314 0.79442 0.0
C419 C 0.88069 0.73507 0.74143 0.0
O420 O 0.88033 0.7186 0.73031 0.0
C421 C 0.91701 0.68555 0.74462 0.0
O422 O 0.92563 0.7031 0.74816 0.0
O423 O 0.90031 0.68157 0.75335 0.0
O424 O 0.9064 0.70474 0.80192 0.0
O425 O 0.85737 0.69889 0.78482 0.0
C426 C 0.85344 0.69115 0.80202 0.0
O427 O 0.86816 0.68288 0.81253 0.0
O428 O 0.88527 0.73364 0.76009 0.0
Mg429 Mg 0.56018 0.641 0.02676 0.0
C430 C 0.56991 0.67163 0.059 0.0
O431 O 0.58722 0.67097 0.04925 0.0
C432 C 0.53217 0.63226 0.99096 0.0
O433 O 0.54875 0.63535 0.98045 0.0
C434 C 0.57992 0.67021 0.99825 0.0
O435 O 0.56234 0.67896 1.00143 0.0
O436 O 0.58357 0.65337 1.0069 0.0
O437 O 0.5551 0.6614 0.05221 0.0
O438 O 0.56714 0.6114 0.03983 0.0
C439 C 0.56856 0.60922 0.05893 0.0
O440 O 0.56872 0.62541 0.07045 0.0
O441 O 0.53247 0.63491 0.01004 0.0
Mg442 Mg 0.62594 0.31376 0.27888 0.0
C443 C 0.6057 0.29595 0.31672 0.0
O444 O 0.62006 0.2823 0.31494 0.0
C445 C 0.64805 0.29031 0.24858 0.0
O446 O 0.65475 0.30892 0.2466 0.0
C447 C 0.60413 0.33229 0.24335 0.0
O448 O 0.60185 0.31291 0.23959 0.0
O449 O 0.61436 0.33755 0.25883 0.0
O450 O 0.60391 0.30944 0.30308 0.0
O451 O 0.65471 0.32017 0.29383 0.0
C452 C 0.65598 0.32334 0.31279 0.0
O453 O 0.63934 0.32644 0.32319 0.0
O454 O 0.63383 0.28703 0.26117 0.0
Mg455 Mg 0.95591 0.38014 0.52387 0.0
C456 C 0.94941 0.34826 0.5563 0.0
O457 O 0.93397 0.34413 0.5445 0.0
C458 C 0.97963 0.4034 0.49447 0.0
O459 O 0.96096 0.40979 0.49195 0.0
C460 C 0.91573 0.36495 0.50554 0.0
O461 O 0.90782 0.37446 0.5211 0.0
O462 O 0.93482 0.36529 0.50309 0.0
O463 O 0.96208 0.36159 0.55062 0.0
O464 O 0.9463 0.4092 0.53605 0.0
C465 C 0.9408 0.41127 0.55439 0.0
O466 O 0.93687 0.39505 0.56519 0.0
O467 O 0.98283 0.38913 0.50705 0.0
Mg468 Mg 0.89142 0.31078 0.73427 0.0
C469 C 0.92134 0.32313 0.70244 0.0
O470 O 0.91979 0.33991 0.71299 0.0
C471 C 0.87262 0.28385 0.76454 0.0
O472 O 0.8641 0.30148 0.76812 0.0
C473 C 0.9179 0.3285 0.76632 0.0
O474 O 0.92498 0.30997 0.76483 0.0
O475 O 0.90303 0.33364 0.75517 0.0
O476 O 0.91203 0.30746 0.70864 0.0
O477 O 0.86163 0.31728 0.72141 0.0
C478 C 0.8594 0.31884 0.70232 0.0
O479 O 0.87555 0.31929 0.69076 0.0
O480 O 0.8862 0.2828 0.75092 0.0
Mg481 Mg 0.95261 0.63863 0.99171 0.0
C482 C 0.93622 0.65208 0.9528 0.0
O483 O 0.92406 0.63757 0.95887 0.0
C484 C 0.98532 0.636 0.02386 0.0
O485 O 0.96985 0.63966 0.03578 0.0
C486 C 0.91678 0.66071 0.0109 0.0
O487 O 0.91403 0.66632 0.99203 0.0
O488 O 0.93112 0.6485 0.01503 0.0
O489 O 0.95038 0.65765 0.96462 0.0
O490 O 0.94908 0.60818 0.97925 0.0
C491 C 0.96087 0.60597 0.96414 0.0
O492 O 0.97266 0.62114 0.95906 0.0
O493 O 0.98277 0.63653 1.00477 0.0
Mg494 Mg 0.61871 0.70809 0.23742 0.0
C495 C 0.58709 0.70151 0.20533 0.0
O496 O 0.58418 0.68543 0.21667 0.0
C497 C 0.6301 0.73606 0.27228 0.0
O498 O 0.62449 0.72036 0.28312 0.0
C499 C 0.60864 0.67255 0.26702 0.0
O500 O 0.62735 0.66666 0.26381 0.0
O501 O 0.60205 0.68834 0.25815 0.0
O502 O 0.59967 0.71481 0.21127 0.0
O503 O 0.64716 0.69696 0.22456 0.0
C504 C 0.6482 0.69359 0.2056 0.0
O505 O 0.63139 0.69297 0.19506 0.0
O506 O 0.62815 0.73545 0.25313 0.0
Mg507 Mg 0.55289 0.37017 0.48585 0.0
C508 C 0.56523 0.33722 0.45639 0.0
O509 O 0.57967 0.33524 0.4699 0.0
C510 C 0.52275 0.38043 0.5188 0.0
O511 O 0.53906 0.37829 0.52996 0.0
C512 C 0.59293 0.35939 0.50778 0.0
O513 O 0.60115 0.36944 0.49272 0.0
O514 O 0.57375 0.358 0.50869 0.0
O515 O 0.55104 0.34983 0.45974 0.0
O516 O 0.55998 0.39988 0.47334 0.0
C517 C 0.56544 0.40203 0.45498 0.0
O518 O 0.57056 0.38593 0.44451 0.0
O519 O 0.52372 0.37639 0.49998 0.0
Mg520 Mg 0.77559 0.89209 0.70636 0.0
C521 C 0.80838 0.92233 0.69752 0.0
O522 O 0.79855 0.92259 0.68023 0.0
C523 C 0.74313 0.87427 0.73136 0.0
O524 O 0.74034 0.86568 0.71365 0.0
C525 C 0.74691 0.92037 0.68609 0.0
O526 O 0.74843 0.92809 0.70435 0.0
O527 O 0.75684 0.90436 0.68201 0.0
O528 O 0.80147 0.91165 0.71197 0.0
O529 O 0.78837 0.86216 0.70119 0.0
C530 C 0.80626 0.85946 0.69459 0.0
O531 O 0.81647 0.87505 0.6877 0.0
O532 O 0.75698 0.88752 0.73308 0.0
Mg533 Mg 0.27523 0.62554 0.30449 0.0
C534 C 0.31724 0.61144 0.29144 0.0
O535 O 0.31531 0.62671 0.27883 0.0
C536 C 0.2424 0.63482 0.27356 0.0
O537 O 0.23085 0.63256 0.28958 0.0
C538 C 0.24093 0.61855 0.3365 0.0
O539 O 0.23896 0.63834 0.33653 0.0
O540 O 0.25427 0.61041 0.32523 0.0
O541 O 0.30246 0.60692 0.30291 0.0
O542 O 0.28581 0.65565 0.31257 0.0
C543 C 0.30316 0.65871 0.32033 0.0
O544 O 0.31338 0.64326 0.32758 0.0
O545 O 0.26127 0.63123 0.27508 0.0
Mg546 Mg 0.64039 0.0284 0.56064 0.0
C547 C 0.67224 0.05991 0.56881 0.0
O548 O 0.67309 0.04953 0.58577 0.0
C549 C 0.61994 0.99729 0.53551 0.0
O550 O 0.61099 0.99514 0.55314 0.0
C551 C 0.66836 0.99872 0.58019 0.0
O552 O 0.67582 1.00002 0.56181 0.0
O553 O 0.65269 0.00908 0.58453 0.0
O554 O 0.66096 0.05348 0.5546 0.0
O555 O 0.61137 0.04272 0.56749 0.0
C556 C 0.61053 0.06172 0.5706 0.0
O557 O 0.62748 0.07183 0.57273 0.0
O558 O 0.63413 0.0102 0.53389 0.0
Mg559 Mg 0.24342 0.38476 0.81179 0.0
C560 C 0.20979 0.40932 0.82936 0.0
O561 O 0.22118 0.40596 0.84532 0.0
C562 C 0.27564 0.37871 0.78002 0.0
O563 O 0.28716 0.37909 0.79622 0.0
C564 C 0.26786 0.41583 0.83371 0.0
O565 O 0.2567 0.42699 0.82157 0.0
O566 O 0.26567 0.39669 0.83329 0.0
O567 O 0.21593 0.40309 0.81221 0.0
O568 O 0.23322 0.35369 0.81651 0.0
C569 C 0.21647 0.34925 0.8249 0.0
O570 O 0.20632 0.36346 0.83439 0.0
O571 O 0.25683 0.38241 0.78186 0.0
Mg572 Mg 0.37014 0.48852 0.5538 0.0
C573 C 0.34121 0.45452 0.56246 0.0
O574 O 0.33791 0.46622 0.57819 0.0
C575 C 0.39033 0.51842 0.52727 0.0
O576 O 0.39891 0.52154 0.54493 0.0
C577 C 0.36008 0.52041 0.58752 0.0
O578 O 0.37975 0.52233 0.58955 0.0
O579 O 0.35312 0.50783 0.57473 0.0
O580 O 0.35315 0.4607 0.54868 0.0
O581 O 0.40018 0.47784 0.56238 0.0
C582 C 0.4029 0.45996 0.56905 0.0
O583 O 0.38715 0.44942 0.575 0.0
O584 O 0.37628 0.5053 0.52606 0.0
Mg585 Mg 0.74019 0.12815 0.20595 0.0
C586 C 0.70145 0.11402 0.1906 0.0
O587 O 0.70906 0.12538 0.17616 0.0
C588 C 0.77139 0.13791 0.23821 0.0
O589 O 0.78286 0.13975 0.22208 0.0
C590 C 0.77541 0.11996 0.17519 0.0
O591 O 0.77863 0.13957 0.17587 0.0
O592 O 0.76103 0.11241 0.18553 0.0
O593 O 0.71205 0.11097 0.2064 0.0
O594 O 0.72894 0.15806 0.1973 0.0
C595 C 0.73559 0.17426 0.20526 0.0
O596 O 0.75228 0.17355 0.216 0.0
O597 O 0.75318 0.132 0.23606 0.0
Mg598 Mg 0.63928 0.98773 0.94894 0.0
C599 C 0.67187 0.95667 0.94143 0.0
O600 O 0.67248 0.96663 0.92422 0.0
C601 C 0.61772 0.01792 0.97456 0.0
O602 O 0.60791 0.01937 0.95731 0.0
C603 C 0.6667 0.01768 0.92896 0.0
O604 O 0.67384 0.01707 0.94752 0.0
O605 O 0.65137 1.00685 0.92466 0.0
O606 O 0.66043 0.9632 0.95547 0.0
O607 O 0.61049 0.97257 0.94277 0.0
C608 C 0.61009 0.95344 0.94038 0.0
O609 O 0.62727 0.94366 0.93839 0.0
O610 O 0.63282 1.00598 0.97564 0.0
Mg611 Mg 0.8767 0.02341 0.45951 0.0
C612 C 0.86004 0.06202 0.4468 0.0
O613 O 0.86923 0.05441 0.43089 0.0
C614 C 0.8902 0.99041 0.48895 0.0
O615 O 0.8941 0.98122 0.47181 0.0
C616 C 0.86537 0.98886 0.42861 0.0
O617 O 0.8832 0.98102 0.43253 0.0
O618 O 0.86008 1.00537 0.43704 0.0
O619 O 0.85942 0.05141 0.46288 0.0
O620 O 0.90569 0.03607 0.44994 0.0
C621 C 0.92273 0.02957 0.4561 0.0
O622 O 0.92355 0.01238 0.46603 0.0
O623 O 0.88186 1.00781 0.4885 0.0
H624 H 0.07467 0.19953 0.47413 0.0
H625 H 0.1201 0.15623 0.49263 0.0
H626 H 0.0998 0.21756 0.45422 0.0
H627 H 0.14523 0.17403 0.47223 0.0
H628 H 0.18872 0.22539 0.45476 0.0
H629 H 0.16369 0.20527 0.47265 0.0
H630 H 0.12074 0.21597 0.4245 0.0
H631 H 0.14574 0.23663 0.40677 0.0
C632 C 0.09 0.19372 0.47381 0.0
C633 C 0.09537 0.17646 0.48509 0.0
C634 C 0.10441 0.20401 0.46224 0.0
C635 C 0.12459 0.1973 0.46158 0.0
C636 C 0.12989 0.17981 0.47259 0.0
C637 C 0.11546 0.16953 0.48422 0.0
C638 C 0.17397 0.22341 0.4479 0.0
C639 C 0.16923 0.23273 0.42934 0.0
C640 C 0.15963 0.21171 0.45813 0.0
C641 C 0.14015 0.20895 0.45007 0.0
C642 C 0.1355 0.21799 0.43131 0.0
C643 C 0.14987 0.22975 0.42107 0.0
H644 H 0.08564 0.83244 0.72449 0.0
H645 H 0.10606 0.88836 0.75142 0.0
H646 H 0.06416 0.85149 0.70128 0.0
H647 H 0.08476 0.90742 0.72797 0.0
H648 H 0.02625 0.93255 0.69987 0.0
H649 H 0.04892 0.91372 0.72205 0.0
H650 H 0.06514 0.87452 0.67235 0.0
H651 H 0.0422 0.89322 0.65015 0.0
C652 C 0.08567 0.84881 0.72538 0.0
C653 C 0.09756 0.85884 0.73992 0.0
C654 C 0.07342 0.85975 0.71196 0.0
C655 C 0.07265 0.88101 0.71276 0.0
C656 C 0.08476 0.89105 0.72711 0.0
C657 C 0.09708 0.88011 0.74049 0.0
C658 C 0.03463 0.91992 0.69362 0.0
C659 C 0.03234 0.91441 0.67318 0.0
C660 C 0.04777 0.9092 0.70634 0.0
C661 C 0.05893 0.89261 0.69901 0.0
C662 C 0.05663 0.88708 0.67857 0.0
C663 C 0.04354 0.89787 0.6658 0.0
H664 H 0.39196 0.85129 0.99965 0.0
H665 H 0.43572 0.8377 0.95304 0.0
H666 H 0.36706 0.83035 0.9823 0.0
H667 H 0.41116 0.81623 0.93611 0.0
H668 H 0.35758 0.79089 0.90121 0.0
H669 H 0.38086 0.81477 0.91706 0.0
H670 H 0.35992 0.79587 0.9761 0.0
H671 H 0.33627 0.77267 0.96026 0.0
C672 C 0.39627 0.84386 0.98569 0.0
C673 C 0.41587 0.84616 0.9778 0.0
C674 C 0.38203 0.83169 0.97579 0.0
C675 C 0.38706 0.82139 0.95781 0.0
C676 C 0.40657 0.82408 0.94973 0.0
C677 C 0.42074 0.83634 0.95955 0.0
C678 C 0.35794 0.79189 0.91757 0.0
C679 C 0.34504 0.77986 0.92944 0.0
C680 C 0.37136 0.80553 0.9267 0.0
C681 C 0.37233 0.80736 0.94793 0.0
C682 C 0.35939 0.79526 0.95973 0.0
C683 C 0.34589 0.78178 0.95062 0.0
H684 H 0.40715 0.1416 0.24264 0.0
H685 H 0.44473 0.18885 0.21764 0.0
H686 H 0.42512 0.11658 0.22217 0.0
H687 H 0.46292 0.16389 0.19762 0.0
H688 H 0.48235 0.11639 0.15197 0.0
H689 H 0.46068 0.14072 0.16951 0.0
H690 H 0.45804 0.10085 0.2213 0.0
H691 H 0.47923 0.07647 0.20369 0.0
C692 C 0.41918 0.14667 0.23274 0.0
C693 C 0.42453 0.16724 0.23187 0.0
C694 C 0.42957 0.13231 0.22108 0.0
C695 C 0.44556 0.13817 0.20826 0.0
C696 C 0.45055 0.15882 0.20708 0.0
C697 C 0.44018 0.17314 0.21872 0.0
C698 C 0.47701 0.11277 0.16703 0.0
C699 C 0.48262 0.0945 0.17642 0.0
C700 C 0.46467 0.12676 0.17715 0.0
C701 C 0.45762 0.12281 0.19688 0.0
C702 C 0.46292 0.10433 0.20605 0.0
C703 C 0.47524 0.09039 0.19596 0.0
H704 H 0.14503 0.79602 0.11643 0.0
H705 H 0.18114 0.77534 0.06601 0.0
H706 H 0.12684 0.81906 0.0939 0.0
H707 H 0.1628 0.79814 0.04351 0.0
H708 H 0.14021 0.85578 0.0127 0.0
H709 H 0.15867 0.83405 0.03622 0.0
H710 H 0.10262 0.81857 0.06597 0.0
H711 H 0.08419 0.8405 0.04265 0.0
C712 C 0.14906 0.79633 0.10055 0.0
C713 C 0.16458 0.78379 0.09308 0.0
C714 C 0.13856 0.80949 0.0876 0.0
C715 C 0.14336 0.81053 0.06686 0.0
C716 C 0.15888 0.79798 0.05942 0.0
C717 C 0.16931 0.78478 0.07234 0.0
C718 C 0.13181 0.84784 0.02432 0.0
C719 C 0.11068 0.8499 0.02571 0.0
C720 C 0.1424 0.83525 0.03774 0.0
C721 C 0.13215 0.82445 0.05297 0.0
C722 C 0.11105 0.82679 0.05458 0.0
C723 C 0.10046 0.83931 0.04111 0.0
H724 H 0.48935 0.89279 0.35815 0.0
H725 H 0.47705 0.93622 0.31079 0.0
H726 H 0.46894 0.86768 0.34029 0.0
H727 H 0.45705 0.91112 0.29283 0.0
H728 H 0.40831 0.8668 0.27317 0.0
H729 H 0.42586 0.89196 0.29377 0.0
H730 H 0.4709 0.84733 0.30987 0.0
H731 H 0.45322 0.82217 0.28967 0.0
C732 C 0.48227 0.89701 0.34397 0.0
C733 C 0.48491 0.91652 0.3359 0.0
C734 C 0.47065 0.88258 0.33366 0.0
C735 C 0.46135 0.88733 0.31507 0.0
C736 C 0.46373 0.90697 0.30722 0.0
C737 C 0.47536 0.92135 0.31748 0.0
C738 C 0.42188 0.86233 0.28122 0.0
C739 C 0.42937 0.84246 0.27968 0.0
C740 C 0.43201 0.87679 0.29295 0.0
C741 C 0.44986 0.87172 0.30347 0.0
C742 C 0.45709 0.85174 0.30222 0.0
C743 C 0.44699 0.83732 0.29048 0.0
H744 H 0.35855 0.22404 0.61113 0.0
H745 H 0.3372 0.24194 0.55197 0.0
H746 H 0.38136 0.19952 0.59546 0.0
H747 H 0.36042 0.21812 0.5363 0.0
H748 H 0.39062 0.16144 0.51332 0.0
H749 H 0.36653 0.18346 0.53053 0.0
H750 H 0.41139 0.19666 0.57626 0.0
H751 H 0.4351 0.17407 0.55949 0.0
C752 C 0.35885 0.22286 0.59478 0.0
C753 C 0.34602 0.23493 0.58282 0.0
C754 C 0.37199 0.20884 0.58576 0.0
C755 C 0.37275 0.20669 0.56455 0.0
C756 C 0.36 0.21895 0.55266 0.0
C757 C 0.34677 0.23279 0.56167 0.0
C758 C 0.39527 0.1689 0.52715 0.0
C759 C 0.41482 0.166 0.53497 0.0
C760 C 0.3815 0.18169 0.53696 0.0
C761 C 0.38699 0.19207 0.55476 0.0
C762 C 0.40645 0.18879 0.56277 0.0
C763 C 0.42014 0.17588 0.55305 0.0
H764 H 0.06335 0.18849 0.79206 0.0
H765 H 0.10712 0.14345 0.7738 0.0
H766 H 0.04501 0.16296 0.81122 0.0
H767 H 0.08893 0.11791 0.79338 0.0
H768 H 0.03664 0.07423 0.80791 0.0
H769 H 0.05741 0.09966 0.79138 0.0
H770 H 0.04594 0.14107 0.84062 0.0
H771 H 0.02471 0.11562 0.85706 0.0
C772 C 0.0692 0.17317 0.79228 0.0
C773 C 0.08668 0.16803 0.78126 0.0
C774 C 0.05872 0.15852 0.80343 0.0
C775 C 0.06541 0.13831 0.80385 0.0
C776 C 0.08316 0.13326 0.79318 0.0
C777 C 0.09367 0.14793 0.78203 0.0
C778 C 0.03858 0.08871 0.81531 0.0
C779 C 0.0289 0.09288 0.83381 0.0
C780 C 0.05066 0.10328 0.80586 0.0
C781 C 0.05341 0.12247 0.81462 0.0
C782 C 0.04398 0.12655 0.83331 0.0
C783 C 0.03188 0.11192 0.8428 0.0
H784 H 0.23498 0.40562 0.15183 0.0
H785 H 0.23038 0.45705 0.1919 0.0
H786 H 0.21277 0.42262 0.12762 0.0
H787 H 0.20865 0.47418 0.16758 0.0
H788 H 0.15637 0.49355 0.12722 0.0
H789 H 0.17566 0.47414 0.15216 0.0
H790 H 0.21363 0.45062 0.10442 0.0
H791 H 0.19414 0.46954 0.07958 0.0
C792 C 0.22925 0.42054 0.15548 0.0
C793 C 0.23454 0.42997 0.17379 0.0
C794 C 0.21658 0.43035 0.14156 0.0
C795 C 0.2089 0.44984 0.14559 0.0
C796 C 0.214 0.4591 0.16405 0.0
C797 C 0.22662 0.44929 0.17796 0.0
C798 C 0.16875 0.48413 0.12206 0.0
C799 C 0.17371 0.48317 0.10139 0.0
C800 C 0.1799 0.47308 0.13636 0.0
C801 C 0.19628 0.46081 0.13035 0.0
C802 C 0.20098 0.45964 0.10963 0.0
C803 C 0.18985 0.47065 0.09536 0.0
H804 H 0.73745 0.10741 0.86157 0.0
H805 H 0.72722 0.05841 0.81958 0.0
H806 H 0.7166 0.09014 0.88673 0.0
H807 H 0.70684 0.04098 0.8448 0.0
H808 H 0.65723 0.02186 0.8886 0.0
H809 H 0.6753 0.04156 0.86303 0.0
H810 H 0.71809 0.06098 0.90844 0.0
H811 H 0.69985 0.04176 0.93394 0.0
C812 C 0.73076 0.09298 0.85769 0.0
C813 C 0.73409 0.08431 0.83855 0.0
C814 C 0.71888 0.08299 0.87216 0.0
C815 C 0.71003 0.06409 0.86787 0.0
C816 C 0.71314 0.05561 0.8486 0.0
C817 C 0.72499 0.06558 0.83415 0.0
C818 C 0.67041 0.03044 0.89313 0.0
C819 C 0.67707 0.03016 0.91335 0.0
C820 C 0.68087 0.04166 0.87845 0.0
C821 C 0.69823 0.05289 0.88361 0.0
C822 C 0.70465 0.0528 0.9039 0.0
C823 C 0.69423 0.04162 0.91854 0.0
H824 H 0.80016 0.90271 0.3514 0.0
H825 H 0.75871 0.95231 0.36048 0.0
H826 H 0.82549 0.92001 0.37187 0.0
H827 H 0.78313 0.96898 0.38223 0.0
H828 H 0.83594 1.00512 0.40465 0.0
H829 H 0.81188 0.98742 0.38325 0.0
H830 H 0.83718 0.9301 0.40263 0.0
H831 H 0.8622 0.94812 0.42271 0.0
C832 C 0.79636 0.91716 0.35816 0.0
C833 C 0.77754 0.92622 0.35429 0.0
C834 C 0.81084 0.92711 0.37003 0.0
C835 C 0.80665 0.94616 0.37877 0.0
C836 C 0.7874 0.95474 0.37537 0.0
C837 C 0.7732 0.94506 0.36305 0.0
C838 C 0.83639 0.98873 0.40418 0.0
C839 C 0.85097 0.97801 0.41531 0.0
C840 C 0.82241 0.97847 0.39205 0.0
C841 C 0.82219 0.95712 0.3912 0.0
C842 C 0.8369 0.94647 0.40244 0.0
C843 C 0.85125 0.9568 0.41412 0.0
H844 H 0.8768 0.05916 0.11518 0.0
H845 H 0.82384 0.0255 0.09704 0.0
H846 H 0.85546 0.08179 0.1352 0.0
H847 H 0.80258 0.04826 0.11666 0.0
H848 H 0.77287 0.07887 0.1708 0.0
H849 H 0.79476 0.05665 0.15123 0.0
H850 H 0.82989 0.10822 0.13187 0.0
H851 H 0.80815 0.1305 0.15184 0.0
C852 C 0.86062 0.05659 0.11542 0.0
C853 C 0.85209 0.04044 0.10452 0.0
C854 C 0.84836 0.06967 0.1268 0.0
C855 C 0.82726 0.06688 0.12761 0.0
C856 C 0.81877 0.05073 0.11667 0.0
C857 C 0.831 0.0377 0.1053 0.0
C858 C 0.78524 0.08553 0.16238 0.0
C859 C 0.78869 0.10653 0.16291 0.0
C860 C 0.79776 0.07276 0.15103 0.0
C861 C 0.8141 0.0806 0.13987 0.0
C862 C 0.8176 0.10161 0.14045 0.0
C863 C 0.80504 0.11441 0.1518 0.0
H864 H 0.29499 0.58807 0.68084 0.0
H865 H 0.26189 0.59988 0.62568 0.0
H866 H 0.31909 0.56739 0.66198 0.0
H867 H 0.28611 0.57936 0.60682 0.0
H868 H 0.3188 0.52219 0.58472 0.0
H869 H 0.29557 0.54364 0.60369 0.0
H870 H 0.34593 0.56953 0.63621 0.0
H871 H 0.36925 0.54789 0.61732 0.0
C872 C 0.2929 0.58637 0.66467 0.0
C873 C 0.27642 0.59562 0.65481 0.0
C874 C 0.30681 0.57458 0.65383 0.0
C875 C 0.30452 0.57161 0.63288 0.0
C876 C 0.28819 0.58108 0.62298 0.0
C877 C 0.27435 0.59297 0.6338 0.0
C878 C 0.32497 0.53242 0.59593 0.0
C879 C 0.34595 0.53328 0.59946 0.0
C880 C 0.31163 0.54484 0.60672 0.0
C881 C 0.31886 0.5584 0.62143 0.0
C882 C 0.33982 0.55915 0.62511 0.0
C883 C 0.35321 0.54679 0.61421 0.0
H884 H 0.24114 0.57726 0.33972 0.0
H885 H 0.21027 0.63047 0.36193 0.0
H886 H 0.21912 0.55592 0.36009 0.0
H887 H 0.18842 0.60906 0.38265 0.0
H888 H 0.13959 0.56274 0.40087 0.0
H889 H 0.16114 0.58442 0.38012 0.0
H890 H 0.21277 0.54709 0.39493 0.0
H891 H 0.19123 0.52525 0.41531 0.0
C892 C 0.22971 0.58445 0.34902 0.0
C893 C 0.22754 0.60563 0.34917 0.0
C894 C 0.21713 0.57218 0.36081 0.0
C895 C 0.20199 0.58072 0.3731 0.0
C896 C 0.19975 0.60192 0.37321 0.0
C897 C 0.21238 0.61422 0.36141 0.0
C898 C 0.15553 0.55912 0.39966 0.0
C899 C 0.16363 0.54218 0.40974 0.0
C900 C 0.16793 0.57166 0.38786 0.0
C901 C 0.18873 0.56754 0.3858 0.0
C902 C 0.19679 0.55059 0.39591 0.0
C903 C 0.18442 0.5381 0.40771 0.0
H904 H 0.34949 0.50152 0.89168 0.0
H905 H 0.3518 0.44903 0.9306 0.0
H906 H 0.32724 0.48347 0.86857 0.0
H907 H 0.32882 0.43123 0.908 0.0
H908 H 0.29924 0.39838 0.85483 0.0
H909 H 0.32397 0.41528 0.87649 0.0
H910 H 0.29379 0.47243 0.86595 0.0
H911 H 0.26982 0.45572 0.84377 0.0
C912 C 0.34522 0.48612 0.89532 0.0
C913 C 0.35241 0.47677 0.91303 0.0
C914 C 0.33228 0.47577 0.88214 0.0
C915 C 0.32594 0.45587 0.88642 0.0
C916 C 0.33349 0.4464 0.90397 0.0
C917 C 0.34663 0.45668 0.91704 0.0
C918 C 0.29794 0.41455 0.85717 0.0
C919 C 0.2826 0.42569 0.8475 0.0
C920 C 0.31208 0.42427 0.86967 0.0
C921 C 0.31107 0.44533 0.87298 0.0
C922 C 0.29548 0.45632 0.86346 0.0
C923 C 0.28155 0.44668 0.85082 0.0
H924 H 0.57606 0.70578 0.97752 0.0
H925 H 0.61857 0.65752 0.98956 0.0
H926 H 0.60142 0.72322 0.95738 0.0
H927 H 0.64393 0.67487 0.96901 0.0
H928 H 0.69033 0.72445 0.95255 0.0
H929 H 0.66494 0.70488 0.97065 0.0
H930 H 0.62022 0.72168 0.92597 0.0
H931 H 0.64561 0.74163 0.90802 0.0
C932 C 0.59078 0.69878 0.97575 0.0
C933 C 0.59528 0.68025 0.98526 0.0
C934 C 0.60531 0.70875 0.96404 0.0
C935 C 0.62476 0.70049 0.96152 0.0
C936 C 0.62919 0.6818 0.97081 0.0
C937 C 0.61461 0.67179 0.98252 0.0
C938 C 0.67511 0.72392 0.9465 0.0
C939 C 0.67001 0.73472 0.92885 0.0
C940 C 0.66055 0.71256 0.95683 0.0
C941 C 0.64049 0.71169 0.94982 0.0
C942 C 0.63546 0.72221 0.93196 0.0
C943 C 0.65005 0.73357 0.92159 0.0
H944 H 0.6 0.37315 0.24988 0.0
H945 H 0.58448 0.32589 0.20756 0.0
H946 H 0.58087 0.39747 0.22968 0.0
H947 H 0.56592 0.35024 0.18704 0.0
H948 H 0.51539 0.39389 0.16783 0.0
H949 H 0.53553 0.36955 0.18701 0.0
H950 H 0.58018 0.41579 0.19871 0.0
H951 H 0.55976 0.44018 0.18011 0.0
C952 C 0.59273 0.36799 0.23614 0.0
C953 C 0.59374 0.34753 0.23041 0.0
C954 C 0.5818 0.38197 0.22447 0.0
C955 C 0.57171 0.37588 0.20669 0.0
C956 C 0.57312 0.35547 0.20079 0.0
C957 C 0.58393 0.3415 0.21251 0.0
C958 C 0.52956 0.39882 0.17441 0.0
C959 C 0.5359 0.41902 0.17246 0.0
C960 C 0.54119 0.38483 0.18536 0.0
C961 C 0.55954 0.39065 0.19454 0.0
C962 C 0.566 0.41079 0.19223 0.0
C963 C 0.55433 0.42478 0.1814 0.0
H964 H 0.87521 0.35745 0.50899 0.0
H965 H 0.92673 0.34515 0.47071 0.0
H966 H 0.85406 0.33674 0.48719 0.0
H967 H 0.90539 0.32486 0.44846 0.0
H968 H 0.86535 0.27143 0.42699 0.0
H969 H 0.88761 0.29331 0.44678 0.0
H970 H 0.83846 0.33573 0.45494 0.0
H971 H 0.8162 0.31363 0.43581 0.0
C972 C 0.882 0.35051 0.49579 0.0
C973 C 0.9027 0.353 0.49164 0.0
C974 C 0.86981 0.33869 0.48316 0.0
C975 C 0.87793 0.32911 0.46593 0.0
C976 C 0.89863 0.33175 0.4617 0.0
C977 C 0.91086 0.34352 0.4744 0.0
C978 C 0.85938 0.28552 0.43287 0.0
C979 C 0.83895 0.29068 0.42994 0.0
C980 C 0.87216 0.29813 0.44418 0.0
C981 C 0.86483 0.31626 0.45272 0.0
C982 C 0.84457 0.3217 0.44907 0.0
C983 C 0.8318 0.30906 0.43793 0.0
H984 H 0.95219 0.6902 0.72347 0.0
H985 H 0.90532 0.64654 0.73625 0.0
H986 H 0.97041 0.66499 0.70377 0.0
H987 H 0.92344 0.62133 0.71615 0.0
H988 H 0.97463 0.57602 0.7015 0.0
H989 H 0.95414 0.60133 0.71869 0.0
H990 H 0.96979 0.64525 0.67284 0.0
H991 H 0.99066 0.61992 0.65577 0.0
C992 C 0.94565 0.67527 0.72193 0.0
C993 C 0.92731 0.6704 0.73156 0.0
C994 C 0.95606 0.66082 0.71048 0.0
C995 C 0.94845 0.64107 0.70836 0.0
C996 C 0.92989 0.63631 0.71766 0.0
C997 C 0.91943 0.6508 0.7291 0.0
C998 C 0.97367 0.59104 0.695 0.0
C999 C 0.9844 0.59594 0.67727 0.0
C1000 C 0.96176 0.60555 0.70481 0.0
C1001 C 0.96027 0.62537 0.69719 0.0
C1002 C 0.97077 0.6302 0.67928 0.0
C1003 C 0.98267 0.61565 0.66942 0.0
H1004 H 0.63418 0.356 0.50792 0.0
H1005 H 0.58101 0.33768 0.54116 0.0
H1006 H 0.65532 0.33659 0.53101 0.0
H1007 H 0.60226 0.31863 0.56468 0.0
H1008 H 0.64522 0.26825 0.58813 0.0
H1009 H 0.62287 0.28865 0.5668 0.0
H1010 H 0.66803 0.33581 0.56464 0.0
H1011 H 0.69045 0.31526 0.58538 0.0
C1012 C 0.62699 0.34801 0.5203 0.0
C1013 C 0.60586 0.34843 0.52263 0.0
C1014 C 0.63916 0.33692 0.53366 0.0
C1015 C 0.63056 0.326 0.54982 0.0
C1016 C 0.60942 0.32661 0.55229 0.0
C1017 C 0.59723 0.33767 0.53886 0.0
C1018 C 0.6503 0.28303 0.58321 0.0
C1019 C 0.6697 0.29003 0.58836 0.0
C1020 C 0.63744 0.2948 0.57102 0.0
C1021 C 0.64366 0.31387 0.56378 0.0
C1022 C 0.66285 0.32105 0.56951 0.0
C1023 C 0.67569 0.30928 0.58156 0.0
H1024 H 0.95046 0.32195 0.79092 0.0
H1025 H 0.90775 0.36827 0.77326 0.0
H1026 H 0.96789 0.34611 0.81245 0.0
H1027 H 0.92497 0.39242 0.79529 0.0
H1028 H 0.97642 0.43483 0.81553 0.0
H1029 H 0.95624 0.4108 0.79642 0.0
H1030 H 0.96576 0.3658 0.84296 0.0
H1031 H 0.98648 0.38982 0.86193 0.0
C1032 C 0.94464 0.33726 0.79177 0.0
C1033 C 0.92774 0.34317 0.78023 0.0
C1034 C 0.95459 0.35111 0.80429 0.0
C1035 C 0.9479 0.37127 0.80566 0.0
C1036 C 0.93073 0.3771 0.79441 0.0
C1037 C 0.92078 0.36322 0.78184 0.0
C1038 C 0.97415 0.41985 0.8218 0.0
C1039 C 0.9832 0.41424 0.84025 0.0
C1040 C 0.96241 0.40608 0.81086 0.0
C1041 C 0.95934 0.38629 0.81807 0.0
C1042 C 0.96802 0.38081 0.83678 0.0
C1043 C 0.97981 0.39462 0.84774 0.0
H1044 H 0.85652 0.70124 0.12255 0.0
H1045 H 0.84725 0.74856 0.07835 0.0
H1046 H 0.87489 0.68135 0.09738 0.0
H1047 H 0.86611 0.72911 0.0535 0.0
H1048 H 0.88193 0.68244 1.00677 0.0
H1049 H 0.86302 0.70019 0.03285 0.0
H1050 H 0.90531 0.67888 0.07803 0.0
H1051 H 0.92386 0.66047 0.05189 0.0
C1052 C 0.85858 0.7075 0.10753 0.0
C1053 C 0.8503 0.72646 0.10246 0.0
C1054 C 0.86919 0.69611 0.0931 0.0
C1055 C 0.87188 0.70347 0.07327 0.0
C1056 C 0.86396 0.72267 0.06841 0.0
C1057 C 0.85325 0.73394 0.08276 0.0
C1058 C 0.88713 0.68139 0.02229 0.0
C1059 C 0.90447 0.67009 0.0272 0.0
C1060 C 0.87636 0.69174 0.03727 0.0
C1061 C 0.88275 0.69129 0.05759 0.0
C1062 C 0.89981 0.6795 0.0626 0.0
C1063 C 0.9105 0.66896 0.04759 0.0
H1064 H 0.51893 0.63517 0.35662 0.0
H1065 H 0.54061 0.57919 0.33069 0.0
H1066 H 0.54289 0.65404 0.33585 0.0
H1067 H 0.56432 0.59809 0.3097 0.0
H1068 H 0.61705 0.63751 0.28779 0.0
H1069 H 0.59482 0.61878 0.31062 0.0
H1070 H 0.54747 0.66273 0.30041 0.0
H1071 H 0.56971 0.68157 0.27789 0.0
C1072 C 0.52885 0.62686 0.34656 0.0
C1073 C 0.52776 0.60564 0.34531 0.0
C1074 C 0.54251 0.6377 0.33453 0.0
C1075 C 0.55549 0.62762 0.32097 0.0
C1076 C 0.55472 0.60636 0.32008 0.0
C1077 C 0.54102 0.59552 0.33207 0.0
C1078 C 0.60191 0.6432 0.29044 0.0
C1079 C 0.5952 0.66106 0.28096 0.0
C1080 C 0.58912 0.6324 0.30347 0.0
C1081 C 0.56933 0.63924 0.30741 0.0
C1082 C 0.56269 0.65716 0.29799 0.0
C1083 C 0.57543 0.6679 0.28493 0.0
H1084 H 0.73984 0.90879 0.64677 0.0
H1085 H 0.72533 0.95536 0.69028 0.0
H1086 H 0.71959 0.92642 0.6213 0.0
H1087 H 0.7056 0.97316 0.66481 0.0
H1088 H 0.65732 0.99223 0.61976 0.0
H1089 H 0.67505 0.97202 0.64517 0.0
H1090 H 0.72073 0.95662 0.60101 0.0
H1091 H 0.7028 0.97632 0.57558 0.0
C1092 C 0.73235 0.92277 0.6509 0.0
C1093 C 0.73426 0.93065 0.67057 0.0
C1094 C 0.72082 0.93295 0.63628 0.0
C1095 C 0.71094 0.95127 0.64095 0.0
C1096 C 0.7127 0.95897 0.6607 0.0
C1097 C 0.72418 0.9488 0.6753 0.0
C1098 C 0.67108 0.98443 0.61546 0.0
C1099 C 0.67864 0.98597 0.59563 0.0
C1100 C 0.68133 0.97292 0.63006 0.0
C1101 C 0.6994 0.96269 0.6252 0.0
C1102 C 0.70674 0.96402 0.60527 0.0
C1103 C 0.6965 0.97548 0.59069 0.0
H1104 H 0.2031 0.37611 0.24536 0.0
H1105 H 0.26317 0.3642 0.26834 0.0
H1106 H 0.1886 0.35753 0.27403 0.0
H1107 H 0.24866 0.34546 0.29664 0.0
H1108 H 0.21693 0.29228 0.32745 0.0
H1109 H 0.22829 0.31162 0.29814 0.0
H1110 H 0.18768 0.36023 0.31413 0.0
H1111 H 0.17641 0.34101 0.34378 0.0
C1112 C 0.21319 0.3697 0.25659 0.0
C1113 C 0.23429 0.37161 0.25455 0.0
C1114 C 0.20488 0.35908 0.27297 0.0
C1115 C 0.21754 0.34988 0.28736 0.0
C1116 C 0.23858 0.3522 0.28559 0.0
C1117 C 0.24686 0.36308 0.26946 0.0
C1118 C 0.21014 0.30694 0.3246 0.0
C1119 C 0.19583 0.31515 0.33805 0.0
C1120 C 0.21679 0.31807 0.30789 0.0
C1121 C 0.20904 0.3375 0.30405 0.0
C1122 C 0.1939 0.34528 0.31678 0.0
C1123 C 0.18747 0.33427 0.33373 0.0
H1124 H 0.91569 0.95819 0.49354 0.0
H1125 H 0.88281 1.00315 0.52782 0.0
H1126 H 0.93084 0.94539 0.52468 0.0
H1127 H 0.89796 0.99018 0.55904 0.0
H1128 H 0.91479 0.94998 0.61251 0.0
H1129 H 0.89811 0.95858 0.58078 0.0
H1130 H 0.95589 0.95894 0.55039 0.0
H1131 H 0.97276 0.95044 0.58226 0.0
C1132 C 0.91151 0.96523 0.50774 0.0
C1133 C 0.89801 0.98174 0.50817 0.0
C1134 C 0.92032 0.95794 0.52556 0.0
C1135 C 0.91565 0.96679 0.54429 0.0
C1136 C 0.90173 0.98294 0.54483 0.0
C1137 C 0.8931 0.99041 0.52695 0.0
C1138 C 0.92399 0.95158 0.59904 0.0
C1139 C 0.94518 0.94963 0.6 0.0
C1140 C 0.91439 0.95667 0.58088 0.0
C1141 C 0.92569 0.95967 0.56315 0.0
C1142 C 0.94677 0.95667 0.56381 0.0
C1143 C 0.95643 0.9518 0.58207 0.0
H1144 H 0.29815 0.72326 0.82512 0.0
H1145 H 0.33844 0.67462 0.84238 0.0
H1146 H 0.28708 0.70369 0.79589 0.0
H1147 H 0.32742 0.65515 0.81285 0.0
H1148 H 0.31262 0.63741 0.74495 0.0
H1149 H 0.32685 0.65675 0.77318 0.0
H1150 H 0.26656 0.67036 0.79424 0.0
H1151 H 0.25231 0.65091 0.76631 0.0
C1152 C 0.30496 0.70857 0.82248 0.0
C1153 C 0.31911 0.70045 0.83618 0.0
C1154 C 0.29847 0.69731 0.80582 0.0
C1155 C 0.30619 0.67781 0.80229 0.0
C1156 C 0.32121 0.67014 0.81525 0.0
C1157 C 0.32751 0.6813 0.83213 0.0
C1158 C 0.30241 0.64436 0.75573 0.0
C1159 C 0.28133 0.64263 0.75337 0.0
C1160 C 0.31057 0.6554 0.77187 0.0
C1161 C 0.29779 0.66523 0.78572 0.0
C1162 C 0.27675 0.66317 0.7836 0.0
C1163 C 0.2686 0.65187 0.7677 0.0
H1164 H 0.58559 0.0439 0.97695 0.0
H1165 H 0.63222 0.01604 0.01342 0.0
H1166 H 0.57119 0.05945 1.00712 0.0
H1167 H 0.61758 0.0313 0.04366 0.0
H1168 H 0.59595 0.07262 0.09319 0.0
H1169 H 0.61155 0.0629 0.06124 0.0
H1170 H 0.55265 0.04861 0.03685 0.0
H1171 H 0.53698 0.05869 0.06871 0.0
C1172 C 0.59286 0.04117 0.99139 0.0
C1173 C 0.61003 0.02863 0.99276 0.0
C1174 C 0.58451 0.05001 0.00872 0.0
C1175 C 0.59313 0.04657 0.02786 0.0
C1176 C 0.61066 0.03449 0.02915 0.0
C1177 C 0.61901 0.02564 0.01181 0.0
C1178 C 0.58627 0.0677 0.08092 0.0
C1179 C 0.5652 0.06631 0.08359 0.0
C1180 C 0.59526 0.06197 0.06264 0.0
C1181 C 0.58342 0.05471 0.04654 0.0
C1182 C 0.56225 0.05426 0.04887 0.0
C1183 C 0.55324 0.06001 0.06717 0.0
H1184 H 0.17868 0.67395 0.16395 0.0
H1185 H 0.21722 0.72378 0.1813 0.0
H1186 H 0.1894 0.65523 0.19411 0.0
H1187 H 0.22805 0.70493 0.21119 0.0
H1188 H 0.26324 0.65322 0.24293 0.0
H1189 H 0.24938 0.67214 0.21433 0.0
H1190 H 0.18883 0.65727 0.23359 0.0
H1191 H 0.20265 0.63852 0.26247 0.0
C1192 C 0.18914 0.68106 0.17437 0.0
C1193 C 0.19712 0.70034 0.17016 0.0
C1194 C 0.19529 0.67032 0.19161 0.0
C1195 C 0.20978 0.67851 0.20481 0.0
C1196 C 0.21707 0.69814 0.2011 0.0
C1197 C 0.2107 0.709 0.18407 0.0
C1198 C 0.24697 0.65378 0.24099 0.0
C1199 C 0.23405 0.64435 0.255 0.0
C1200 C 0.23904 0.66479 0.22471 0.0
C1201 C 0.21802 0.66635 0.22187 0.0
C1202 C 0.20509 0.65633 0.23543 0.0
C1203 C 0.21301 0.6456 0.25194 0.0
H1204 H 0.63324 0.99952 0.49624 0.0
H1205 H 0.58913 0.9698 0.53423 0.0
H1206 H 0.61862 0.98319 0.46654 0.0
H1207 H 0.57474 0.95326 0.5046 0.0
H1208 H 0.53885 0.95235 0.44389 0.0
H1209 H 0.55489 0.96333 0.47523 0.0
H1210 H 0.61369 0.95081 0.44959 0.0
H1211 H 0.5977 0.94011 0.41815 0.0
C1212 C 0.6206 0.98931 0.4983 0.0
C1213 C 0.6123 0.98608 0.51761 0.0
C1214 C 0.61227 0.97985 0.48128 0.0
C1215 C 0.59544 0.96695 0.48317 0.0
C1216 C 0.58751 0.9633 0.50256 0.0
C1217 C 0.59586 0.97273 0.51957 0.0
C1218 C 0.55518 0.95159 0.44504 0.0
C1219 C 0.56696 0.94549 0.42841 0.0
C1220 C 0.5644 0.95786 0.46305 0.0
C1221 C 0.58561 0.95819 0.46486 0.0
C1222 C 0.59734 0.95112 0.44858 0.0
C1223 C 0.58813 0.94482 0.4306 0.0
H1224 H 0.33802 0.34067 0.66883 0.0
H1225 H 0.29747 0.29242 0.68616 0.0
H1226 H 0.32783 0.35987 0.69889 0.0
H1227 H 0.28718 0.31174 0.71586 0.0
H1228 H 0.25419 0.36394 0.74796 0.0
H1229 H 0.26732 0.34599 0.71849 0.0
H1230 H 0.32838 0.35644 0.73902 0.0
H1231 H 0.31528 0.37422 0.76882 0.0
C1232 C 0.32716 0.33405 0.67916 0.0
C1233 C 0.31851 0.31504 0.67505 0.0
C1234 C 0.32135 0.34504 0.69633 0.0
C1235 C 0.30652 0.33739 0.70949 0.0
C1236 C 0.29843 0.3181 0.70578 0.0
C1237 C 0.30447 0.30698 0.68886 0.0
C1238 C 0.27042 0.36269 0.7461 0.0
C1239 C 0.28369 0.37046 0.76079 0.0
C1240 C 0.27792 0.35226 0.72931 0.0
C1241 C 0.29884 0.34964 0.72665 0.0
C1242 C 0.31218 0.35823 0.74076 0.0
C1243 C 0.30467 0.36839 0.75778 0.0
H1244 H 0.89584 0.05841 0.01962 0.0
H1245 H 0.88135 1.0004 0.99322 0.0
H1246 H 0.91193 0.06877 0.98801 0.0
H1247 H 0.8977 0.0106 0.96187 0.0
H1248 H 0.9146 0.03819 0.90275 0.0
H1249 H 0.89488 0.0331 0.93335 0.0
H1250 H 0.94247 0.06059 0.96868 0.0
H1251 H 0.96214 0.06612 0.93775 0.0
C1252 C 0.89589 0.04793 1.00702 0.0
C1253 C 0.8873 0.02854 0.00897 0.0
C1254 C 0.90527 0.05383 0.98896 0.0
C1255 C 0.90619 0.04052 0.9724 0.0
C1256 C 0.89705 0.02137 0.9742 0.0
C1257 C 0.88772 0.01546 0.99223 0.0
C1258 C 0.92081 0.04338 0.91701 0.0
C1259 C 0.94006 0.05236 0.91786 0.0
C1260 C 0.90952 0.04035 0.93459 0.0
C1261 C 0.91721 0.0461 0.95354 0.0
C1262 C 0.93604 0.05605 0.95431 0.0
C1263 C 0.94735 0.0592 0.93662 0.0
H1264 H 0.32116 0.20011 0.2932 0.0
H1265 H 0.35069 0.19376 0.35124 0.0
H1266 H 0.28993 0.20994 0.31024 0.0
H1267 H 0.31941 0.2034 0.36823 0.0
H1268 H 0.26992 0.25035 0.38644 0.0
H1269 H 0.30015 0.23509 0.37162 0.0
H1270 H 0.26267 0.19848 0.33263 0.0
H1271 H 0.23251 0.21383 0.34724 0.0
C1272 C 0.3209 0.20043 0.30959 0.0
C1273 C 0.33849 0.19629 0.32082 0.0
C1274 C 0.30297 0.20603 0.31938 0.0
C1275 C 0.30224 0.20766 0.34061 0.0
C1276 C 0.31957 0.20262 0.35185 0.0
C1277 C 0.33746 0.19695 0.34208 0.0
C1278 C 0.26813 0.23888 0.37488 0.0
C1279 C 0.2488 0.23344 0.36795 0.0
C1280 C 0.28545 0.23006 0.36644 0.0
C1281 C 0.28382 0.21565 0.35084 0.0
C1282 C 0.26446 0.20974 0.3444 0.0
C1283 C 0.24717 0.21848 0.35288 0.0
H1284 H 1.00189 0.01808 0.61762 0.0
H1285 H 0.06117 1.00045 0.63896 0.0
H1286 H 0.01706 0.04522 0.59777 0.0
H1287 H 0.0763 0.02797 0.61919 0.0
H1288 H 0.08582 0.09705 0.59819 0.0
H1289 H 0.07456 0.06797 0.61821 0.0
H1290 H 0.0413 0.04552 0.56674 0.0
H1291 H 0.05265 0.07429 0.54663 0.0
C1292 C 0.01814 0.02012 0.61827 0.0
C1293 C 0.03033 1.00707 0.62986 0.0
C1294 C 0.02682 0.03556 0.60675 0.0
C1295 C 0.04786 0.03853 0.60679 0.0
C1296 C 0.06004 0.02596 0.61889 0.0
C1297 C 0.05137 0.01024 0.63018 0.0
C1298 C 0.07644 0.0857 0.59102 0.0
C1299 C 0.07003 0.08809 0.57085 0.0
C1300 C 0.07002 0.06907 0.6025 0.0
C1301 C 0.05683 0.0547 0.59409 0.0
C1302 C 0.05124 0.05655 0.57366 0.0
C1303 C 0.05789 0.07297 0.56211 0.0
H1304 H 0.16932 0.83707 0.84235 0.0
H1305 H 0.18779 0.79914 0.79237 0.0
H1306 H 0.19936 0.82644 0.86136 0.0
H1307 H 0.21747 0.78837 0.81153 0.0
H1308 H 0.24785 0.75261 0.86361 0.0
H1309 H 0.21928 0.76676 0.84492 0.0
H1310 H 0.23964 0.82716 0.85888 0.0
H1311 H 0.26859 0.81304 0.87738 0.0
C1312 C 0.17994 0.82676 0.83529 0.0
C1313 C 0.17609 0.8189 0.81587 0.0
C1314 C 0.1971 0.82068 0.84619 0.0
C1315 C 0.21053 0.80637 0.83801 0.0
C1316 C 0.20718 0.79922 0.81828 0.0
C1317 C 0.19026 0.80555 0.80725 0.0
C1318 C 0.24616 0.76891 0.86293 0.0
C1319 C 0.26052 0.7817 0.87197 0.0
C1320 C 0.22989 0.77699 0.85206 0.0
C1321 C 0.22741 0.79804 0.85028 0.0
C1322 C 0.24125 0.81088 0.86001 0.0
C1323 C 0.25778 0.80278 0.87058 0.0
H1324 H 0.45238 0.0189 0.13128 0.0
H1325 H 0.51187 0.99961 0.11215 0.0
H1326 H 0.43743 0.98988 0.11366 0.0
H1327 H 0.49686 0.971 0.09431 0.0
H1328 H 0.46025 0.94142 0.04327 0.0
H1329 H 0.47188 0.9706 0.06258 0.0
H1330 H 0.44003 0.94883 0.11522 0.0
H1331 H 0.42859 0.91922 0.09603 0.0
C1332 C 0.46227 1.00838 0.12351 0.0
C1333 C 0.48331 0.01157 0.12309 0.0
C1334 C 0.4537 0.99181 0.11345 0.0
C1335 C 0.46599 0.97841 0.10246 0.0
C1336 C 0.48704 0.98128 0.1025 0.0
C1337 C 0.49563 0.99757 0.11285 0.0
C1338 C 0.45539 0.94296 0.05884 0.0
C1339 C 0.44357 0.9279 0.06814 0.0
C1340 C 0.4622 0.9596 0.06992 0.0
C1341 C 0.45706 0.96177 0.09042 0.0
C1342 C 0.44423 0.94744 0.09944 0.0
C1343 C 0.43768 0.93055 0.08844 0.0
H1344 H 0.34625 0.83596 0.16945 0.0
H1345 H 0.32779 0.79632 0.21812 0.0
H1346 H 0.31707 0.82493 0.14946 0.0
H1347 H 0.29894 0.7852 0.19801 0.0
H1348 H 0.26998 0.75025 0.14492 0.0
H1349 H 0.29787 0.76439 0.16452 0.0
H1350 H 0.27713 0.8248 0.15072 0.0
H1351 H 0.24891 0.81068 0.13127 0.0
C1352 C 0.33582 0.82515 0.17601 0.0
C1353 C 0.33941 0.81697 0.19535 0.0
C1354 C 0.31915 0.81885 0.16455 0.0
C1355 C 0.30595 0.80401 0.17209 0.0
C1356 C 0.30905 0.79646 0.19173 0.0
C1357 C 0.32549 0.80298 0.2033 0.0
C1358 C 0.27145 0.76655 0.14584 0.0
C1359 C 0.25719 0.77935 0.13655 0.0
C1360 C 0.28732 0.77463 0.15722 0.0
C1361 C 0.28951 0.79567 0.1593 0.0
C1362 C 0.27576 0.80852 0.14936 0.0
C1363 C 0.25964 0.80043 0.13825 0.0
H1364 H 0.45092 0.99 0.38425 0.0
H1365 H 0.51003 0.01117 0.40239 0.0
H1366 H 0.43531 0.01877 0.40187 0.0
H1367 H 0.49438 0.03945 0.42024 0.0
H1368 H 0.45769 0.06908 0.4711 0.0
H1369 H 0.46932 0.03949 0.45236 0.0
H1370 H 0.43742 0.0603 0.39931 0.0
H1371 H 0.426 0.09033 0.41791 0.0
C1372 C 0.46057 1.00084 0.39184 0.0
C1373 C 0.48171 0.9983 0.39193 0.0
C1374 C 0.45163 0.01726 0.40189 0.0
C1375 C 0.46366 0.03112 0.41256 0.0
C1376 C 0.48477 0.02881 0.41229 0.0
C1377 C 0.49372 0.0127 0.40194 0.0
C1378 C 0.45279 0.06724 0.45556 0.0
C1379 C 0.44101 0.08217 0.44596 0.0
C1380 C 0.45958 0.05035 0.44482 0.0
C1381 C 0.45444 0.0478 0.42437 0.0
C1382 C 0.44159 0.06197 0.41508 0.0
C1383 C 0.43507 0.07912 0.42573 0.0
H1384 H 0.1631 0.19338 0.6643 0.0
H1385 H 0.19265 0.19981 0.72229 0.0
H1386 H 0.19437 0.20285 0.64725 0.0
H1387 H 0.22385 0.20954 0.70521 0.0
H1388 H 0.28125 0.21381 0.66829 0.0
H1389 H 0.25122 0.1984 0.68302 0.0
H1390 H 0.21345 0.23439 0.64355 0.0
H1391 H 0.24355 0.24966 0.62858 0.0
C1392 C 0.17633 0.19654 0.67343 0.0
C1393 C 0.1753 0.19596 0.6947 0.0
C1394 C 0.19422 0.20213 0.66363 0.0
C1395 C 0.21155 0.2072 0.67485 0.0
C1396 C 0.21082 0.20561 0.69608 0.0
C1397 C 0.1929 0.20006 0.7059 0.0
C1398 C 0.26656 0.21831 0.66257 0.0
C1399 C 0.26482 0.23308 0.64731 0.0
C1400 C 0.24934 0.20953 0.67112 0.0
C1401 C 0.22992 0.21523 0.66458 0.0
C1402 C 0.22819 0.22949 0.64882 0.0
C1403 C 0.24544 0.23833 0.64028 0.0
H1404 H 0.08712 0.9208 0.92079 0.0
H1405 H 0.05361 0.94185 0.97286 0.0
H1406 H 0.07557 0.95035 0.90153 0.0
H1407 H 0.04188 0.97105 0.95347 0.0
H1408 H 1.00211 0.99885 0.90238 0.0
H1409 H 0.01765 0.97148 0.92177 0.0
H1410 H 0.07678 0.99082 0.90215 0.0
H1411 H 0.06128 0.01861 0.88295 0.0
C1412 C 0.07763 0.9319 0.92825 0.0
C1413 C 0.07123 0.9289 0.94834 0.0
C1414 C 0.07102 0.94879 0.91721 0.0
C1415 C 0.05762 0.96279 0.92595 0.0
C1416 C 0.05202 0.96033 0.94631 0.0
C1417 C 0.0589 0.94368 0.95745 0.0
C1418 C 0.01841 0.99721 0.90203 0.0
C1419 C 0.03046 0.01092 0.89111 0.0
C1420 C 0.0273 0.98164 0.91328 0.0
C1421 C 0.04842 0.97918 0.91361 0.0
C1422 C 0.06047 0.99243 0.90217 0.0
C1423 C 0.05159 1.0083 0.8912 0.0
H1424 H 0.34947 0.34903 0.19729 0.0
H1425 H 0.29041 0.32223 0.20523 0.0
H1426 H 0.3653 0.31694 0.20629 0.0
H1427 H 0.30628 0.29021 0.21454 0.0
H1428 H 0.3407 0.23105 0.21826 0.0
H1429 H 0.32675 0.26173 0.20322 0.0
H1430 H 0.36914 0.29771 0.2375 0.0
H1431 H 0.38334 0.26699 0.2523 0.0
C1432 C 0.33984 0.33623 0.2007 0.0
C1433 C 0.31865 0.33827 0.20068 0.0
C1434 C 0.34894 0.31786 0.20602 0.0
C1435 C 0.33709 0.30106 0.2114 0.0
C1436 C 0.31588 0.3028 0.21036 0.0
C1437 C 0.30676 0.32119 0.20506 0.0
C1438 C 0.34721 0.24549 0.22245 0.0
C1439 C 0.3631 0.24655 0.23658 0.0
C1440 C 0.33911 0.26309 0.21389 0.0
C1441 C 0.34673 0.2822 0.21921 0.0
C1442 C 0.36305 0.28323 0.23287 0.0
C1443 C 0.37114 0.26561 0.24146 0.0
H1444 H 0.84888 0.16364 0.81509 0.0
H1445 H 0.79049 0.1918 0.80621 0.0
H1446 H 0.86548 0.19519 0.80575 0.0
H1447 H 0.80715 0.22328 0.79662 0.0
H1448 H 0.8429 0.28154 0.79313 0.0
H1449 H 0.82821 0.25128 0.80818 0.0
H1450 H 0.86991 0.21413 0.7742 0.0
H1451 H 0.88482 0.24446 0.7593 0.0
C1452 C 0.83955 0.17663 0.81141 0.0
C1453 C 0.81832 0.17512 0.81128 0.0
C1454 C 0.84911 0.19468 0.8059 0.0
C1455 C 0.83768 0.21171 0.80019 0.0
C1456 C 0.81643 0.21051 0.80105 0.0
C1457 C 0.80686 0.19242 0.80652 0.0
C1458 C 0.84909 0.26694 0.78899 0.0
C1459 C 0.86499 0.26544 0.7749 0.0
C1460 C 0.84058 0.24958 0.79756 0.0
C1461 C 0.84778 0.23026 0.79233 0.0
C1462 C 0.86412 0.22878 0.77873 0.0
C1463 C 0.87262 0.24617 0.7701 0.0
H1464 H 0.01461 0.61449 1.00419 0.0
H1465 H 0.9986 0.63794 0.0631 0.0
H1466 H 0.04322 0.59653 0.01915 0.0
H1467 H 0.02762 0.62015 0.07797 0.0
H1468 H 0.0973 0.59997 0.08617 0.0
H1469 H 0.06818 0.6197 0.07427 0.0
H1470 H 0.04388 0.56639 0.04559 0.0
H1471 H 0.0726 0.54657 0.05768 0.0
C1472 C 0.01739 0.61613 0.02026 0.0
C1473 C 1.00428 0.62762 0.03247 0.0
C1474 C 0.03368 0.60569 0.02884 0.0
C1475 C 0.03745 0.60679 0.04973 0.0
C1476 C 0.02499 0.61905 0.06182 0.0
C1477 C 0.00842 0.62921 0.0533 0.0
C1478 C 0.08554 0.59238 0.07766 0.0
C1479 C 0.08732 0.57171 0.07283 0.0
C1480 C 0.06892 0.60368 0.07085 0.0
C1481 C 0.05399 0.5946 0.05879 0.0
C1482 C 0.05534 0.5738 0.05465 0.0
C1483 C 0.07172 0.56243 0.06174 0.0
H1484 H 0.65304 0.76512 0.25397 0.0
H1485 H 0.6317 0.74556 0.31262 0.0
H1486 H 0.67283 0.79174 0.27009 0.0
H1487 H 0.65142 0.77249 0.32871 0.0
H1488 H 0.67135 0.84088 0.34134 0.0
H1489 H 0.65199 0.81193 0.32884 0.0
H1490 H 0.70364 0.79235 0.29403 0.0
H1491 H 0.7231 0.82106 0.30659 0.0
C1492 C 0.65241 0.76661 0.27028 0.0
C1493 C 0.64079 0.7532 0.28201 0.0
C1494 C 0.6639 0.78174 0.27952 0.0
C1495 C 0.66382 0.78404 0.30066 0.0
C1496 C 0.65177 0.77103 0.31239 0.0
C1497 C 0.6405 0.75564 0.30316 0.0
C1498 C 0.67871 0.83017 0.33136 0.0
C1499 C 0.69874 0.83337 0.32489 0.0
C1500 C 0.66762 0.81361 0.32421 0.0
C1501 C 0.67624 0.80009 0.31025 0.0
C1502 C 0.69654 0.80272 0.30457 0.0
C1503 C 0.70773 0.81908 0.31192 0.0
H1504 H 0.03729 0.93394 0.04263 0.0
H1505 H 0.9947 0.8929 0.01487 0.0
H1506 H 0.00942 0.95383 0.05621 0.0
H1507 H 0.9667 0.91297 0.02854 0.0
H1508 H 0.9212 0.94588 0.06925 0.0
H1509 H 0.95001 0.92409 0.06115 0.0
H1510 H 0.98348 0.97621 0.04048 0.0
H1511 H 0.95477 0.99798 0.0485 0.0
C1512 C 0.02198 0.92902 0.03956 0.0
C1513 C 0.01825 0.91186 0.02752 0.0
C1514 C 1.006 0.94051 0.0473 0.0
C1515 C 0.98586 0.93507 0.04336 0.0
C1516 C 0.98207 0.91747 0.03197 0.0
C1517 C 0.9981 0.90602 0.02406 0.0
C1518 C 0.93484 0.95275 0.06333 0.0
C1519 C 0.93566 0.9737 0.05949 0.0
C1520 C 0.95126 0.94022 0.05852 0.0
C1521 C 0.96896 0.94839 0.05004 0.0
C1522 C 0.97011 0.96945 0.04712 0.0
C1523 C 0.95363 0.98193 0.05169 0.0
H1524 H 0.16769 0.66221 0.69369 0.0
H1525 H 0.22615 0.68979 0.70326 0.0
H1526 H 0.15116 0.6934 0.70439 0.0
H1527 H 0.20955 0.72093 0.71416 0.0
H1528 H 0.17331 0.77915 0.71943 0.0
H1529 H 0.18828 0.7494 0.70366 0.0
H1530 H 0.14701 0.7111 0.7368 0.0
H1531 H 0.13181 0.74095 0.75247 0.0
C1532 C 0.17705 0.67501 0.69779 0.0
C1533 C 0.19829 0.67342 0.69772 0.0
C1534 C 0.16754 0.69285 0.7041 0.0
C1535 C 0.179 0.70958 0.7104 0.0
C1536 C 0.20024 0.70837 0.70931 0.0
C1537 C 0.20978 0.69049 0.70306 0.0
C1538 C 0.16729 0.76441 0.72328 0.0
C1539 C 0.15138 0.76246 0.7373 0.0
C1540 C 0.17597 0.74733 0.71429 0.0
C1541 C 0.16893 0.72785 0.719 0.0
C1542 C 0.15267 0.7259 0.73265 0.0
C1543 C 0.14401 0.74301 0.74172 0.0
H1544 H 0.02043 0.3952 0.49636 0.0
H1545 H 0.97707 0.43662 0.4701 0.0
H1546 H 0.04804 0.41562 0.48251 0.0
H1547 H 1.00457 0.45686 0.45636 0.0
H1548 H 0.05917 0.50103 0.46481 0.0
H1549 H 0.03059 0.47899 0.47235 0.0
H1550 H 0.06412 0.42759 0.44987 0.0
H1551 H 0.09278 0.44966 0.44224 0.0
C1552 C 0.01677 0.40848 0.48744 0.0
C1553 C 0.99653 0.41433 0.48448 0.0
C1554 C 0.03258 0.42012 0.47943 0.0
C1555 C 0.02847 0.43793 0.46845 0.0
C1556 C 1.00823 0.44337 0.46495 0.0
C1557 C 0.99247 0.43168 0.47278 0.0
C1558 C 0.06032 0.4851 0.4611 0.0
C1559 C 0.07828 0.47713 0.45296 0.0
C1560 C 0.04392 0.47246 0.46539 0.0
C1561 C 0.04516 0.45151 0.46185 0.0
C1562 C 0.06281 0.44363 0.45297 0.0
C1563 C 0.07914 0.45633 0.44843 0.0
H1564 H 0.42419 0.59493 0.92377 0.0
H1565 H 0.44494 0.54248 0.95701 0.0
H1566 H 0.4538 0.6139 0.93549 0.0
H1567 H 0.47414 0.56158 0.96891 0.0
H1568 H 0.5012 0.61223 0.0094 0.0
H1569 H 0.47366 0.59366 0.99338 0.0
H1570 H 0.49495 0.61224 0.93452 0.0
H1571 H 0.52296 0.63062 0.95052 0.0
C1572 C 0.43522 0.58733 0.93323 0.0
C1573 C 0.43212 0.56722 0.93954 0.0
C1574 C 0.45213 0.5982 0.93993 0.0
C1575 C 0.46603 0.58925 0.95331 0.0
C1576 C 0.46349 0.56888 0.95878 0.0
C1577 C 0.44683 0.55792 0.95183 0.0
C1578 C 0.49995 0.61256 0.99305 0.0
C1579 C 0.5143 0.62288 0.98123 0.0
C1580 C 0.48428 0.60178 0.98389 0.0
C1581 C 0.48235 0.60137 0.96273 0.0
C1582 C 0.49617 0.6123 0.95087 0.0
C1583 C 0.51215 0.62279 0.96003 0.0
H1584 H 0.70062 0.7917 0.8218 0.0
H1585 H 0.68989 0.84964 0.85017 0.0
H1586 H 0.70988 0.80883 0.79047 0.0
H1587 H 0.69892 0.86673 0.81874 0.0
H1588 H 0.74671 0.8867 0.77079 0.0
H1589 H 0.73089 0.87172 0.80059 0.0
H1590 H 0.69828 0.83 0.76236 0.0
H1591 H 0.71426 0.84477 0.73259 0.0
C1592 C 0.69981 0.80807 0.82124 0.0
C1593 C 0.69469 0.81928 0.83858 0.0
C1594 C 0.70508 0.8179 0.80324 0.0
C1595 C 0.70536 0.83917 0.80217 0.0
C1596 C 0.69919 0.85034 0.81918 0.0
C1597 C 0.69387 0.84051 0.83715 0.0
C1598 C 0.73598 0.87451 0.76872 0.0
C1599 C 0.73189 0.86685 0.74931 0.0
C1600 C 0.72682 0.86597 0.7858 0.0
C1601 C 0.71339 0.84957 0.78387 0.0
C1602 C 0.70875 0.84242 0.76439 0.0
C1603 C 0.71786 0.85098 0.74732 0.0
H1604 H 0.47123 0.45155 0.07146 0.0
H1605 H 0.41443 0.44206 0.10235 0.0
H1606 H 0.45294 0.46218 0.0412 0.0
H1607 H 0.3962 0.45331 0.07243 0.0
H1608 H 0.36788 0.46414 0.01042 0.0
H1609 H 0.38634 0.44777 0.03803 0.0
H1610 H 0.43439 0.49159 0.03164 0.0
H1611 H 0.41633 0.50746 1.00387 0.0
C1612 C 0.45485 0.45149 0.07174 0.0
C1613 C 0.44434 0.44612 0.08943 0.0
C1614 C 0.44433 0.45778 0.05444 0.0
C1615 C 0.42305 0.45898 0.05444 0.0
C1616 C 0.41255 0.4525 0.07177 0.0
C1617 C 0.42305 0.44611 0.08902 0.0
C1618 C 0.38238 0.47025 0.01493 0.0
C1619 C 0.39059 0.48713 1.00492 0.0
C1620 C 0.39298 0.46088 0.03079 0.0
C1621 C 0.41198 0.46823 0.03703 0.0
C1622 C 0.42006 0.48517 0.02701 0.0
C1623 C 0.40956 0.49443 0.01116 0.0
H1624 H 0.8156 0.21907 0.33122 0.0
H1625 H 0.78987 0.16932 0.36489 0.0
H1626 H 0.80969 0.2006 0.29963 0.0
H1627 H 0.78438 0.15082 0.33363 0.0
H1628 H 0.75088 0.13838 0.27415 0.0
H1629 H 0.76114 0.1542 0.30575 0.0
H1630 H 0.81832 0.17095 0.27895 0.0
H1631 H 0.80789 0.15538 0.2471 0.0
C1632 C 0.80906 0.20407 0.33191 0.0
C1633 C 0.80298 0.19577 0.35052 0.0
C1634 C 0.80569 0.19345 0.31383 0.0
C1635 C 0.79627 0.17433 0.31407 0.0
C1636 C 0.79122 0.16569 0.33282 0.0
C1637 C 0.79447 0.17628 0.35078 0.0
C1638 C 0.76574 0.14522 0.27502 0.0
C1639 C 0.77853 0.1456 0.25806 0.0
C1640 C 0.77167 0.15425 0.2932 0.0
C1641 C 0.79058 0.16388 0.29491 0.0
C1642 C 0.80358 0.16388 0.27808 0.0
C1643 C 0.79765 0.1548 0.25988 0.0
H1644 H 0.09578 0.58666 0.59601 0.0
H1645 H 0.04483 0.55202 0.57425 0.0
H1646 H 0.11543 0.57622 0.56641 0.0
H1647 H 0.06454 0.54154 0.54487 0.0
H1648 H 0.11475 0.50493 0.51356 0.0
H1649 H 0.09557 0.5185 0.54199 0.0
H1650 H 0.11597 0.57876 0.52728 0.0
H1651 H 0.13514 0.56522 0.49856 0.0
C1652 C 0.08866 0.5771 0.58478 0.0
C1653 C 0.06876 0.5701 0.58758 0.0
C1654 C 0.09992 0.57114 0.56784 0.0
C1655 C 0.0916 0.55784 0.55352 0.0
C1656 C 0.07144 0.55155 0.55585 0.0
C1657 C 0.0601 0.55772 0.57261 0.0
C1658 C 0.11537 0.52105 0.51647 0.0
C1659 C 0.12649 0.53399 0.50377 0.0
C1660 C 0.10421 0.52884 0.53265 0.0
C1661 C 0.10409 0.54971 0.53669 0.0
C1662 C 0.11579 0.56261 0.52449 0.0
C1663 C 0.12675 0.55484 0.50807 0.0
H1664 H 0.71349 0.22421 0.68548 0.0
H1665 H 0.67507 0.17438 0.66786 0.0
H1666 H 0.7249 0.20495 0.71488 0.0
H1667 H 0.68633 0.15527 0.69762 0.0
H1668 H 0.70124 0.13887 0.76643 0.0
H1669 H 0.6865 0.15773 0.73801 0.0
H1670 H 0.74642 0.17144 0.71611 0.0
H1671 H 0.76116 0.15238 0.74413 0.0
C1672 C 0.70713 0.20933 0.68808 0.0
C1673 C 0.69342 0.2008 0.67423 0.0
C1674 C 0.7138 0.19826 0.70485 0.0
C1675 C 0.70667 0.17855 0.70836 0.0
C1676 C 0.69207 0.17043 0.69523 0.0
C1677 C 0.68564 0.18138 0.67822 0.0
C1678 C 0.71125 0.14572 0.75541 0.0
C1679 C 0.73237 0.14411 0.75754 0.0
C1680 C 0.70281 0.1565 0.73918 0.0
C1681 C 0.71534 0.16621 0.72503 0.0
C1682 C 0.73642 0.1643 0.72696 0.0
C1683 C 0.74484 0.15323 0.74292 0.0
H1684 H 0.02341 0.43586 0.96531 0.0
H1685 H 0.07245 0.45382 0.92612 0.0
H1686 H 0.04311 0.44622 0.9947 0.0
H1687 H 0.09157 0.46546 0.95513 0.0
H1688 H 0.12708 0.47888 0.01159 0.0
H1689 H 0.11015 0.46072 0.9842 0.0
H1690 H 0.05212 0.4756 0.01065 0.0
H1691 H 0.06907 0.4924 0.03835 0.0
C1692 C 0.03845 0.44192 0.963 0.0
C1693 C 0.04629 0.4441 0.94339 0.0
C1694 C 0.04972 0.44811 0.97984 0.0
C1695 C 0.0689 0.45715 0.97744 0.0
C1696 C 0.07704 0.45843 0.9578 0.0
C1697 C 0.06598 0.45181 0.94104 0.0
C1698 C 0.11071 0.47804 0.01155 0.0
C1699 C 0.09942 0.48704 0.02713 0.0
C1700 C 0.10094 0.46772 0.99579 0.0
C1701 C 0.07963 0.46656 0.99503 0.0
C1702 C 0.06849 0.47557 0.01079 0.0
C1703 C 0.07824 0.48546 0.02668 0.0
H1704 H 0.79448 0.83027 0.29462 0.0
H1705 H 0.76729 0.87147 0.25162 0.0
H1706 H 0.80686 0.80939 0.26692 0.0
H1707 H 0.77989 0.85047 0.2238 0.0
H1708 H 0.81771 0.81422 0.17833 0.0
H1709 H 0.81237 0.83704 0.20697 0.0
H1710 H 0.78785 0.78753 0.24182 0.0
H1711 H 0.79296 0.76477 0.2132 0.0
C1712 C 0.79137 0.83507 0.27925 0.0
C1713 C 0.77971 0.85248 0.27536 0.0
C1714 C 0.79843 0.82302 0.26339 0.0
C1715 C 0.79423 0.82821 0.24322 0.0
C1716 C 0.78347 0.84617 0.23922 0.0
C1717 C 0.77619 0.85815 0.25514 0.0
C1718 C 0.8116 0.80809 0.19226 0.0
C1719 C 0.80573 0.78766 0.19351 0.0
C1720 C 0.80838 0.82122 0.20857 0.0
C1721 C 0.79959 0.8141 0.22657 0.0
C1722 C 0.79477 0.79344 0.22818 0.0
C1723 C 0.79768 0.7804 0.21179 0.0
H1724 H 0.4209 0.54611 0.52528 0.0
H1725 H 0.37797 0.51411 0.48784 0.0
H1726 H 0.43586 0.56129 0.49521 0.0
H1727 H 0.39316 0.5291 0.4577 0.0
H1728 H 0.41472 0.56992 0.40771 0.0
H1729 H 0.39816 0.56076 0.43934 0.0
H1730 H 0.4565 0.54997 0.46679 0.0
H1731 H 0.47311 0.55941 0.43521 0.0
C1732 C 0.41455 0.54239 0.51064 0.0
C1733 C 0.39826 0.5288 0.50899 0.0
C1734 C 0.42323 0.55103 0.49338 0.0
C1735 C 0.4158 0.54636 0.47402 0.0
C1736 C 0.39913 0.53322 0.47239 0.0
C1737 C 0.39047 0.52453 0.48967 0.0
C1738 C 0.42406 0.56593 0.42058 0.0
C1739 C 0.44527 0.56525 0.41884 0.0
C1740 C 0.41453 0.56052 0.43868 0.0
C1741 C 0.42596 0.55434 0.45552 0.0
C1742 C 0.44722 0.55475 0.45415 0.0
C1743 C 0.45676 0.56015 0.43601 0.0
H1744 H 0.73976 0.7024 0.87093 0.0
H1745 H 0.76482 0.76222 0.86272 0.0
H1746 H 0.76831 0.68793 0.85211 0.0
H1747 H 0.79299 0.74777 0.84373 0.0
H1748 H 0.82424 0.71781 0.7898 0.0
H1749 H 0.7947 0.72899 0.80886 0.0
H1750 H 0.80836 0.68566 0.85582 0.0
H1751 H 0.83826 0.67456 0.8369 0.0
C1752 C 0.75141 0.71243 0.86526 0.0
C1753 C 0.75001 0.73346 0.86831 0.0
C1754 C 0.76771 0.70414 0.85451 0.0
C1755 C 0.78268 0.71677 0.84629 0.0
C1756 C 0.7815 0.73772 0.8497 0.0
C1757 C 0.76545 0.74596 0.86072 0.0
C1758 C 0.82082 0.71038 0.80401 0.0
C1759 C 0.83371 0.69535 0.81187 0.0
C1760 C 0.80397 0.71692 0.81499 0.0
C1761 C 0.79943 0.70836 0.83391 0.0
C1762 C 0.81157 0.69252 0.84127 0.0
C1763 C 0.82866 0.68618 0.83043 0.0
H1764 H 0.51412 0.51826 0.13307 0.0
H1765 H 0.54726 0.48192 0.08997 0.0
H1766 H 0.52934 0.54876 0.11898 0.0
H1767 H 0.56275 0.51238 0.07615 0.0
H1768 H 0.56146 0.57296 0.04007 0.0
H1769 H 0.55194 0.54105 0.0559 0.0
H1770 H 0.56053 0.56764 0.11498 0.0
H1771 H 0.56969 0.59967 0.09917 0.0
C1772 C 0.52487 0.51674 0.12079 0.0
C1773 C 0.52935 0.49764 0.11258 0.0
C1774 C 0.53369 0.53424 0.11277 0.0
C1775 C 0.54723 0.53305 0.09636 0.0
C1776 C 0.55218 0.51388 0.08858 0.0
C1777 C 0.54336 0.4964 0.0966 0.0
C1778 C 0.56167 0.57192 0.05643 0.0
C1779 C 0.56617 0.58896 0.06833 0.0
C1780 C 0.55625 0.55357 0.06553 0.0
C1781 C 0.55523 0.55182 0.08675 0.0
C1782 C 0.56077 0.56857 0.09862 0.0
C1783 C 0.56618 0.5869 0.08953 0.0
H1784 H 0.69299 0.31468 0.29629 0.0
H1785 H 0.66268 0.32257 0.35369 0.0
H1786 H 0.7233 0.30329 0.3139 0.0
H1787 H 0.69316 0.31139 0.37133 0.0
H1788 H 0.78001 0.29768 0.35141 0.0
H1789 H 0.75056 0.31375 0.33625 0.0
H1790 H 0.71151 0.27926 0.37568 0.0
H1791 H 0.74113 0.26331 0.39116 0.0
C1792 C 0.6929 0.31436 0.31268 0.0
C1793 C 0.67534 0.31949 0.32354 0.0
C1794 C 0.71032 0.30785 0.32281 0.0
C1795 C 0.71063 0.30627 0.34405 0.0
C1796 C 0.69333 0.31214 0.35495 0.0
C1797 C 0.67592 0.31874 0.34482 0.0
C1798 C 0.76517 0.29359 0.35701 0.0
C1799 C 0.76295 0.27907 0.37244 0.0
C1800 C 0.74826 0.30277 0.34821 0.0
C1801 C 0.72865 0.2977 0.35461 0.0
C1802 C 0.72641 0.28366 0.37051 0.0
C1803 C 0.74338 0.27443 0.37932 0.0
H1804 H 0.95166 0.52288 0.62714 0.0
H1805 H 0.01131 0.50128 0.61125 0.0
H1806 H 0.93658 0.49434 0.60877 0.0
H1807 H 0.9962 0.47324 0.59262 0.0
H1808 H 0.9613 0.44421 0.54019 0.0
H1809 H 0.97218 0.47371 0.55947 0.0
H1810 H 0.93863 0.4526 0.61131 0.0
H1811 H 0.92797 0.42265 0.59218 0.0
C1812 C 0.96153 0.51199 0.61988 0.0
C1813 C 0.98267 0.51434 0.62066 0.0
C1814 C 0.9529 0.49571 0.60939 0.0
C1815 C 0.96526 0.4818 0.59913 0.0
C1816 C 0.98636 0.48392 0.60025 0.0
C1817 C 0.99498 0.49989 0.61105 0.0
C1818 C 0.95586 0.44598 0.55555 0.0
C1819 C 0.94386 0.43097 0.56469 0.0
C1820 C 0.96223 0.46282 0.56661 0.0
C1821 C 0.95642 0.46524 0.5869 0.0
C1822 C 0.94332 0.45102 0.59567 0.0
C1823 C 0.93723 0.43392 0.58472 0.0
H1824 H 0.84981 0.32044 0.66212 0.0
H1825 H 0.82323 0.31127 0.72117 0.0
H1826 H 0.81777 0.31153 0.64626 0.0
H1827 H 0.79129 0.30202 0.70527 0.0
H1828 H 0.73209 0.29868 0.67127 0.0
H1829 H 0.76272 0.31357 0.68527 0.0
H1830 H 0.79863 0.28047 0.6418 0.0
H1831 H 0.76792 0.26584 0.62753 0.0
C1832 C 0.83707 0.31676 0.67175 0.0
C1833 C 0.83915 0.31645 0.69294 0.0
C1834 C 0.81873 0.3115 0.66262 0.0
C1835 C 0.80201 0.30581 0.67445 0.0
C1836 C 0.8038 0.30646 0.69567 0.0
C1837 C 0.82215 0.31173 0.70482 0.0
C1838 C 0.74649 0.29471 0.66454 0.0
C1839 C 0.74754 0.28096 0.64833 0.0
C1840 C 0.76408 0.30318 0.67266 0.0
C1841 C 0.78316 0.29814 0.66476 0.0
C1842 C 0.78417 0.28488 0.64812 0.0
C1843 C 0.76656 0.27639 0.63999 0.0
H1844 H 0.97382 0.60194 0.92555 0.0
H1845 H 0.95063 0.56729 0.97586 0.0
H1846 H 0.97959 0.57101 0.90663 0.0
H1847 H 0.95708 0.53595 0.95706 0.0
H1848 H 0.95977 0.48339 0.91212 0.0
H1849 H 0.94872 0.51471 0.92835 0.0
H1850 H 1.00344 0.54419 0.90816 0.0
H1851 H 0.01416 0.5132 0.89156 0.0
C1852 C 0.96992 0.58764 0.93257 0.0
C1853 C 0.962 0.58701 0.9523 0.0
C1854 C 0.97334 0.56987 0.92174 0.0
C1855 C 0.96919 0.55091 0.93042 0.0
C1856 C 0.96038 0.55029 0.94986 0.0
C1857 C 0.95673 0.56821 0.96067 0.0
C1858 C 0.96931 0.49666 0.91093 0.0
C1859 C 0.98786 0.49578 0.90049 0.0
C1860 C 0.96304 0.51456 0.92039 0.0
C1861 C 0.97517 0.53201 0.91963 0.0
C1862 C 0.99351 0.53119 0.90882 0.0
C1863 C 0.99973 0.51335 0.89933 0.0
H1864 H 0.65445 0.69542 0.16481 0.0
H1865 H 0.6864 0.69585 0.2219 0.0
H1866 H 0.68571 0.70381 0.14718 0.0
H1867 H 0.71778 0.70407 0.20408 0.0
H1868 H 0.77339 0.70395 0.16231 0.0
H1869 H 0.74274 0.69037 0.17776 0.0
H1870 H 0.70718 0.73594 0.14721 0.0
H1871 H 0.73788 0.74973 0.13186 0.0
C1872 C 0.6682 0.69691 0.1736 0.0
C1873 C 0.66786 0.69508 0.19483 0.0
C1874 C 0.68608 0.70187 0.16346 0.0
C1875 C 0.70412 0.70481 0.17426 0.0
C1876 C 0.70409 0.70183 0.19535 0.0
C1877 C 0.68612 0.69713 0.20556 0.0
C1878 C 0.75902 0.71096 0.15866 0.0
C1879 C 0.75809 0.72797 0.14585 0.0
C1880 C 0.74149 0.70323 0.16764 0.0
C1881 C 0.72259 0.71212 0.16374 0.0
C1882 C 0.72154 0.72867 0.15037 0.0
C1883 C 0.73912 0.73661 0.14162 0.0
H1884 H 0.55683 0.51122 0.37907 0.0
H1885 H 0.49619 0.49529 0.39747 0.0
H1886 H 0.57019 0.4824 0.39821 0.0
H1887 H 0.50962 0.46671 0.41676 0.0
H1888 H 0.54308 0.43429 0.46817 0.0
H1889 H 0.53224 0.46366 0.44851 0.0
H1890 H 0.56793 0.44311 0.39785 0.0
H1891 H 0.57866 0.41348 0.4174 0.0
C1892 C 0.54634 0.50149 0.38705 0.0
C1893 C 0.52544 0.50555 0.38673 0.0
C1894 C 0.55401 0.48501 0.398 0.0
C1895 C 0.54097 0.47247 0.40915 0.0
C1896 C 0.52005 0.4763 0.40852 0.0
C1897 C 0.51235 0.49255 0.39731 0.0
C1898 C 0.54892 0.43616 0.45297 0.0
C1899 C 0.5617 0.42147 0.44434 0.0
C1900 C 0.54254 0.4529 0.44165 0.0
C1901 C 0.54904 0.45552 0.42157 0.0
C1902 C 0.56268 0.44146 0.41329 0.0
C1903 C 0.56882 0.42452 0.4245 0.0
H1904 H 0.79413 0.82871 0.71937 0.0
H1905 H 0.84242 0.84637 0.67899 0.0
H1906 H 0.8136 0.79906 0.72968 0.0
H1907 H 0.86175 0.81631 0.68915 0.0
H1908 H 0.87545 0.74576 0.7017 0.0
H1909 H 0.85768 0.77561 0.68852 0.0
H1910 H 0.8485 0.79699 0.74951 0.0
H1911 H 0.86652 0.76752 0.76271 0.0
C1912 C 0.80873 0.82609 0.7124 0.0
C1913 C 0.81676 0.83997 0.6984 0.0
C1914 C 0.81993 0.80919 0.71844 0.0
C1915 C 0.83925 0.80557 0.71037 0.0
C1916 C 0.84689 0.81881 0.6956 0.0
C1917 C 0.83583 0.83598 0.68981 0.0
C1918 C 0.86991 0.757 0.71227 0.0
C1919 C 0.87237 0.75425 0.73325 0.0
C1920 C 0.85976 0.77404 0.70471 0.0
C1921 C 0.85154 0.78841 0.71803 0.0
C1922 C 0.85452 0.78598 0.73895 0.0
C1923 C 0.86497 0.76919 0.74647 0.0
H1924 H 0.29159 0.68914 0.29479 0.0
H1925 H 0.33876 0.67216 0.33686 0.0
H1926 H 0.31158 0.7182 0.28405 0.0
H1927 H 0.35859 0.70166 0.32624 0.0
H1928 H 0.37433 0.77112 0.31081 0.0
H1929 H 0.35537 0.74252 0.32496 0.0
H1930 H 0.34693 0.71852 0.26486 0.0
H1931 H 0.36613 0.74671 0.25072 0.0
C1932 C 0.30601 0.69182 0.30209 0.0
C1933 C 0.31361 0.67824 0.31665 0.0
C1934 C 0.31752 0.70839 0.29579 0.0
C1935 C 0.33671 0.71199 0.30414 0.0
C1936 C 0.34384 0.69917 0.31955 0.0
C1937 C 0.33248 0.68233 0.32562 0.0
C1938 C 0.36867 0.75957 0.30066 0.0
C1939 C 0.37173 0.76119 0.27964 0.0
C1940 C 0.35784 0.74325 0.30877 0.0
C1941 C 0.34951 0.7285 0.29597 0.0
C1942 C 0.35301 0.72984 0.27504 0.0
C1943 C 0.36414 0.74589 0.26697 0.0
H1944 H 0.50204 0.09619 0.50995 0.0
H1945 H 0.51509 0.15054 0.54378 0.0
H1946 H 0.52978 0.07892 0.52663 0.0
H1947 H 0.54252 0.13291 0.56128 0.0
H1948 H 0.6054 0.10253 0.56684 0.0
H1949 H 0.57535 0.12042 0.55562 0.0
H1950 H 0.54171 0.06435 0.55671 0.0
H1951 H 0.5722 0.04627 0.56704 0.0
C1952 C 0.51071 0.10441 0.52117 0.0
C1953 C 0.5064 0.1248 0.52545 0.0
C1954 C 0.52655 0.0944 0.53094 0.0
C1955 C 0.53842 0.1044 0.54548 0.0
C1956 C 0.53391 0.12476 0.55 0.0
C1957 C 0.51815 0.13488 0.54001 0.0
C1958 C 0.59153 0.09403 0.565 0.0
C1959 C 0.59129 0.0729 0.56758 0.0
C1960 C 0.57419 0.10435 0.55863 0.0
C1961 C 0.55607 0.09385 0.55491 0.0
C1962 C 0.55551 0.07289 0.55886 0.0
C1963 C 0.57295 0.06252 0.56499 0.0
H1964 H 0.18285 0.33289 0.84278 0.0
H1965 H 0.22705 0.32172 0.79589 0.0
H1966 H 0.16342 0.30352 0.83132 0.0
H1967 H 0.20746 0.29266 0.78437 0.0
H1968 H 0.1521 0.2633 0.75338 0.0
H1969 H 0.17176 0.29103 0.76775 0.0
H1970 H 0.16698 0.264 0.82702 0.0
H1971 H 0.14751 0.23594 0.81263 0.0
C1972 C 0.18859 0.32401 0.83026 0.0
C1973 C 0.20648 0.32971 0.82023 0.0
C1974 C 0.17745 0.30722 0.82371 0.0
C1975 C 0.18381 0.29602 0.8068 0.0
C1976 C 0.20208 0.30121 0.79729 0.0
C1977 C 0.21338 0.31776 0.80402 0.0
C1978 C 0.15503 0.26333 0.76951 0.0
C1979 C 0.14825 0.24738 0.78186 0.0
C1980 C 0.16645 0.27912 0.77769 0.0
C1981 C 0.17106 0.27953 0.79845 0.0
C1982 C 0.16365 0.26403 0.81097 0.0
C1983 C 0.15252 0.248 0.80272 0.0
H1984 H 0.41551 0.42339 0.58403 0.0
H1985 H 0.43409 0.47236 0.54485 0.0
H1986 H 0.44476 0.40349 0.57297 0.0
H1987 H 0.46303 0.45232 0.53366 0.0
H1988 H 0.49207 0.39921 0.49833 0.0
H1989 H 0.46429 0.41904 0.51253 0.0
H1990 H 0.48454 0.40443 0.5729 0.0
H1991 H 0.51263 0.38478 0.55873 0.0
C1992 C 0.426 0.43005 0.57335 0.0
C1993 C 0.42241 0.44945 0.5653 0.0
C1994 C 0.44272 0.41863 0.56701 0.0
C1995 C 0.45596 0.42626 0.55224 0.0
C1996 C 0.45288 0.44597 0.54486 0.0
C1997 C 0.4364 0.45751 0.55143 0.0
C1998 C 0.4905 0.40001 0.51463 0.0
C1999 C 0.50457 0.39041 0.5274 0.0
C2000 C 0.4747 0.41153 0.52275 0.0
C2001 C 0.47241 0.41344 0.54381 0.0
C2002 C 0.48598 0.40323 0.55661 0.0
C2003 C 0.50203 0.39199 0.54849 0.0
H2004 H 0.68029 0.29316 0.22305 0.0
H2005 H 0.64031 0.24942 0.25064 0.0
H2006 H 0.70059 0.26584 0.20898 0.0
H2007 H 0.6608 0.22197 0.23646 0.0
H2008 H 0.69515 0.17721 0.19642 0.0
H2009 H 0.67256 0.20556 0.20395 0.0
H2010 H 0.72356 0.24052 0.22485 0.0
H2011 H 0.74611 0.21228 0.2174 0.0
C2012 C 0.67566 0.27771 0.22594 0.0
C2013 C 0.65873 0.2735 0.23815 0.0
C2014 C 0.68739 0.26205 0.21791 0.0
C2015 C 0.68242 0.24176 0.22174 0.0
C2016 C 0.66495 0.23748 0.23314 0.0
C2017 C 0.65325 0.25319 0.24132 0.0
C2018 C 0.70161 0.19109 0.20223 0.0
C2019 C 0.72246 0.19246 0.20635 0.0
C2020 C 0.68862 0.20725 0.20672 0.0
C2021 C 0.69624 0.22522 0.21513 0.0
C2022 C 0.71721 0.22694 0.21825 0.0
C2023 C 0.73015 0.21073 0.21401 0.0
H2024 H 0.51714 0.86249 0.96803 0.0
H2025 H 0.50333 0.91593 1.00301 0.0
H2026 H 0.54398 0.88092 0.95056 0.0
H2027 H 0.53051 0.93403 0.98633 0.0
H2028 H 0.57152 0.96814 0.94534 0.0
H2029 H 0.54173 0.94938 0.95632 0.0
H2030 H 0.57659 0.89396 0.95591 0.0
H2031 H 0.60593 0.91252 0.9441 0.0
C2032 C 0.51991 0.87812 0.97207 0.0
C2033 C 0.50811 0.8877 0.98694 0.0
C2034 C 0.53534 0.88871 0.9621 0.0
C2035 C 0.53948 0.90907 0.96693 0.0
C2036 C 0.52757 0.91857 0.98179 0.0
C2037 C 0.51205 0.90809 0.99156 0.0
C2038 C 0.57268 0.95189 0.94721 0.0
C2039 C 0.59118 0.9419 0.94398 0.0
C2040 C 0.55565 0.94112 0.95372 0.0
C2041 C 0.55675 0.92013 0.95739 0.0
C2042 C 0.575 0.91003 0.95313 0.0
C2043 C 0.59194 0.92075 0.94642 0.0
H2044 H 0.99721 0.12493 0.49983 0.0
H2045 H 0.04077 0.0878 0.46818 0.0
H2046 H 0.96979 0.10441 0.48592 0.0
H2047 H 0.01341 0.06743 0.45432 0.0
H2048 H 0.96193 0.01978 0.46467 0.0
H2049 H 0.98995 0.04293 0.47061 0.0
H2050 H 0.95187 0.09349 0.45415 0.0
H2051 H 0.92373 0.0703 0.44817 0.0
C2052 C 1.00093 0.11264 0.48964 0.0
C2053 C 0.02121 0.10789 0.48531 0.0
C2054 C 0.98521 0.10094 0.4816 0.0
C2055 C 0.98946 0.08418 0.46916 0.0
C2056 C 0.00968 0.08006 0.46407 0.0
C2057 C 0.02535 0.09182 0.47198 0.0
C2058 C 0.95962 0.03578 0.46191 0.0
C2059 C 0.94056 0.04317 0.45606 0.0
C2060 C 0.97571 0.04906 0.46526 0.0
C2061 C 0.97307 0.07007 0.463 0.0
C2062 C 0.95429 0.0774 0.45623 0.0
C2063 C 0.93823 0.06408 0.45264 0.0
H2064 H 0.14123 0.42409 0.41514 0.0
H2065 H 0.18625 0.4354 0.46119 0.0
H2066 H 0.15101 0.38864 0.41422 0.0
H2067 H 0.19639 0.3995 0.45984 0.0
H2068 H 0.21754 0.33826 0.42101 0.0
H2069 H 0.21101 0.37406 0.42853 0.0
H2070 H 0.14913 0.35974 0.44328 0.0
H2071 H 0.15551 0.32416 0.43617 0.0
C2072 C 0.15334 0.41905 0.42498 0.0
C2073 C 0.16295 0.43258 0.43826 0.0
C2074 C 0.15885 0.3987 0.42451 0.0
C2075 C 0.17433 0.39138 0.43705 0.0
C2076 C 0.18437 0.40486 0.45005 0.0
C2077 C 0.17855 0.42531 0.45084 0.0
C2078 C 0.20268 0.34268 0.42634 0.0
C2079 C 0.18698 0.32837 0.42774 0.0
C2080 C 0.199 0.36314 0.43068 0.0
C2081 C 0.17953 0.36958 0.43628 0.0
C2082 C 0.16423 0.35513 0.43885 0.0
C2083 C 0.16793 0.33474 0.43477 0.0
H2084 H 0.92506 0.98037 0.67495 0.0
H2085 H 0.93649 0.92346 0.70516 0.0
H2086 H 0.88906 0.97706 0.68234 0.0
H2087 H 0.90057 0.91993 0.7121 0.0
H2088 H 0.82785 0.94483 0.66888 0.0
H2089 H 0.86302 0.95541 0.66879 0.0
H2090 H 0.87047 0.93154 0.72925 0.0
H2091 H 0.83524 0.92048 0.72915 0.0
C2092 C 0.91997 0.96733 0.68348 0.0
C2093 C 0.93366 0.95207 0.68926 0.0
C2094 C 0.89929 0.96536 0.68758 0.0
C2095 C 0.89184 0.9481 0.69758 0.0
C2096 C 0.90573 0.93351 0.70451 0.0
C2097 C 0.92638 0.93548 0.70042 0.0
C2098 C 0.83686 0.9421 0.6823 0.0
C2099 C 0.82876 0.93159 0.69892 0.0
C2100 C 0.85706 0.94832 0.68231 0.0
C2101 C 0.86968 0.94421 0.69897 0.0
C2102 C 0.86127 0.93467 0.71605 0.0
C2103 C 0.84103 0.92844 0.71604 0.0
H2104 H 0.29405 0.67698 0.91646 0.0
H2105 H 0.35532 0.68788 0.93639 0.0
H2106 H 0.29739 0.64142 0.92603 0.0
H2107 H 0.35877 0.6524 0.94554 0.0
H2108 H 0.3248 0.57729 0.91451 0.0
H2109 H 0.31585 0.61292 0.91212 0.0
H2110 H 0.34854 0.62482 0.96746 0.0
H2111 H 0.35788 0.58912 0.96964 0.0
C2112 C 0.30812 0.67188 0.92315 0.0
C2113 C 0.32447 0.68527 0.92549 0.0
C2114 C 0.31008 0.65145 0.92851 0.0
C2115 C 0.32841 0.64396 0.9364 0.0
C2116 C 0.34437 0.65762 0.93971 0.0
C2117 C 0.34243 0.678 0.93432 0.0
C2118 C 0.32983 0.58742 0.92637 0.0
C2119 C 0.34224 0.58034 0.94215 0.0
C2120 C 0.32457 0.60788 0.92506 0.0
C2121 C 0.3316 0.62183 0.93951 0.0
C2122 C 0.34312 0.61456 0.9559 0.0
C2123 C 0.34836 0.59405 0.95723 0.0
H2124 H 0.67291 0.12742 0.16438 0.0
H2125 H 0.68204 0.08455 0.21299 0.0
H2126 H 0.63772 0.11722 0.16181 0.0
H2127 H 0.64641 0.074 0.21003 0.0
H2128 H 0.58747 0.05026 0.17013 0.0
H2129 H 0.62276 0.05759 0.17904 0.0
H2130 H 0.60727 0.12034 0.18823 0.0
H2131 H 0.5722 0.11318 0.17969 0.0
C2132 C 0.66746 0.11569 0.17445 0.0
C2133 C 0.6803 0.10682 0.18893 0.0
C2134 C 0.64725 0.10994 0.17303 0.0
C2135 C 0.63936 0.09496 0.18582 0.0
C2136 C 0.65219 0.08562 0.20002 0.0
C2137 C 0.67249 0.09168 0.20173 0.0
C2138 C 0.59151 0.06552 0.17451 0.0
C2139 C 0.57704 0.08118 0.17393 0.0
C2140 C 0.61168 0.06967 0.17965 0.0
C2141 C 0.61769 0.08956 0.18409 0.0
C2142 C 0.60302 0.10491 0.18468 0.0
C2143 C 0.58292 0.10076 0.17979 0.0
H2144 H 0.16802 0.68477 0.06728 0.0
H2145 H 0.22664 0.67347 0.09396 0.0
H2146 H 0.16436 0.6489 0.06013 0.0
H2147 H 0.2232 0.6375 0.0863 0.0
H2148 H 0.16431 0.58411 0.04163 0.0
H2149 H 0.1751 0.61944 0.04166 0.0
H2150 H 0.20307 0.61064 0.10014 0.0
H2151 H 0.1928 0.57537 0.09985 0.0
C2152 C 0.18034 0.6747 0.07124 0.0
C2153 C 0.19752 0.682 0.08142 0.0
C2154 C 0.1783 0.65408 0.067 0.0
C2155 C 0.19342 0.64021 0.07278 0.0
C2156 C 0.21111 0.64769 0.08194 0.0
C2157 C 0.21314 0.66835 0.08622 0.0
C2158 C 0.17316 0.58961 0.05427 0.0
C2159 C 0.17751 0.57694 0.07083 0.0
C2160 C 0.17921 0.60992 0.05437 0.0
C2161 C 0.18975 0.61801 0.07101 0.0
C2162 C 0.19514 0.60496 0.08697 0.0
C2163 C 0.18912 0.5847 0.08686 0.0
H2164 H 0.68635 0.93494 0.3559 0.0
H2165 H 0.67866 0.91088 0.29562 0.0
H2166 H 0.65095 0.94492 0.35652 0.0
H2167 H 0.64311 0.92118 0.29613 0.0
H2168 H 0.57769 0.91148 0.32245 0.0
H2169 H 0.61356 0.90854 0.31464 0.0
H2170 H 0.62441 0.96655 0.34267 0.0
H2171 H 0.5885 0.96937 0.3508 0.0
C2172 C 0.67719 0.93214 0.3426 0.0
C2173 C 0.6853 0.92194 0.32579 0.0
C2174 C 0.65688 0.93801 0.3429 0.0
C2175 C 0.64412 0.93375 0.32642 0.0
C2176 C 0.65248 0.92447 0.30916 0.0
C2177 C 0.67289 0.9187 0.30882 0.0
C2178 C 0.58764 0.92381 0.32662 0.0
C2179 C 0.58023 0.94054 0.33748 0.0
C2180 C 0.60823 0.92217 0.32202 0.0
C2181 C 0.62192 0.93722 0.32821 0.0
C2182 C 0.61431 0.95455 0.33796 0.0
C2183 C 0.59369 0.95622 0.34251 0.0
H2184 H 0.35076 0.42392 0.53603 0.0
H2185 H 0.31599 0.43673 0.5899 0.0
H2186 H 0.34324 0.38794 0.5398 0.0
H2187 H 0.30888 0.40086 0.59389 0.0
H2188 H 0.29083 0.33559 0.59258 0.0
H2189 H 0.29232 0.37076 0.58124 0.0
H2190 H 0.35456 0.36212 0.56322 0.0
H2191 H 0.35294 0.32702 0.57411 0.0
C2192 C 0.34125 0.41912 0.54849 0.0
C2193 C 0.33413 0.43321 0.56276 0.0
C2194 C 0.33706 0.39847 0.55073 0.0
C2195 C 0.32562 0.39144 0.56727 0.0
C2196 C 0.31758 0.40569 0.58087 0.0
C2197 C 0.32178 0.4263 0.57865 0.0
C2198 C 0.3047 0.3411 0.58585 0.0
C2199 C 0.32182 0.32851 0.58442 0.0
C2200 C 0.3056 0.36131 0.57947 0.0
C2201 C 0.32361 0.36936 0.57146 0.0
C2202 C 0.34037 0.35643 0.5691 0.0
C2203 C 0.33948 0.33628 0.5755 0.0
H2204 H 0.9269 0.03819 0.83964 0.0
H2205 H 0.93606 0.09976 0.81965 0.0
H2206 H 0.89146 0.04023 0.82924 0.0
H2207 H 0.90074 0.10186 0.80952 0.0
H2208 H 0.83802 0.09908 0.78482 0.0
H2209 H 0.87379 0.09009 0.78707 0.0
H2210 H 0.8624 0.05867 0.84327 0.0
H2211 H 0.82668 0.06739 0.84091 0.0
C2212 C 0.92149 0.05201 0.83264 0.0
C2213 C 0.93428 0.06888 0.83062 0.0
C2214 C 0.90113 0.05322 0.82682 0.0
C2215 C 0.89319 0.07126 0.81871 0.0
C2216 C 0.90635 0.08767 0.81554 0.0
C2217 C 0.92662 0.0865 0.82147 0.0
C2218 C 0.84306 0.08988 0.79743 0.0
C2219 C 0.82949 0.08413 0.8128 0.0
C2220 C 0.8636 0.08484 0.79878 0.0
C2221 C 0.87102 0.07383 0.81545 0.0
C2222 C 0.85721 0.06701 0.83013 0.0
C2223 C 0.83671 0.07213 0.82884 0.0
H2224 H 0.47268 0.15744 0.42617 0.0
H2225 H 0.41704 0.19016 0.43674 0.0
H2226 H 0.4714 0.16697 0.39048 0.0
H2227 H 0.41552 0.19924 0.40114 0.0
H2228 H 0.41965 0.22016 0.33728 0.0
H2229 H 0.42944 0.21755 0.37282 0.0
H2230 H 0.45044 0.15646 0.36253 0.0
H2231 H 0.44115 0.15924 0.32706 0.0
C2232 C 0.46035 0.16694 0.42098 0.0
C2233 C 0.44485 0.17286 0.4343 0.0
C2234 C 0.45955 0.17229 0.40047 0.0
C2235 C 0.44325 0.1837 0.39284 0.0
C2236 C 0.42841 0.19061 0.40645 0.0
C2237 C 0.42921 0.18527 0.42691 0.0
C2238 C 0.42677 0.20634 0.34251 0.0
C2239 C 0.42941 0.18983 0.32935 0.0
C2240 C 0.43225 0.20479 0.36293 0.0
C2241 C 0.44051 0.18671 0.37064 0.0
C2242 C 0.44429 0.17068 0.35715 0.0
C2243 C 0.43883 0.17224 0.33677 0.0
H2244 H 0.03946 0.16417 0.58913 0.0
H2245 H 0.09677 0.19374 0.57868 0.0
H2246 H 0.04123 0.17343 0.62486 0.0
H2247 H 0.09876 0.20254 0.61432 0.0
H2248 H 0.09579 0.22321 0.67832 0.0
H2249 H 0.08589 0.2214 0.64277 0.0
H2250 H 0.0616 0.16155 0.65275 0.0
H2251 H 0.07102 0.16355 0.68824 0.0
C2252 C 0.05227 0.17293 0.59436 0.0
C2253 C 0.06808 0.17802 0.58106 0.0
C2254 C 0.05336 0.17812 0.61488 0.0
C2255 C 0.07025 0.18854 0.62256 0.0
C2256 C 0.08543 0.19468 0.60897 0.0
C2257 C 0.08435 0.1895 0.58849 0.0
C2258 C 0.08793 0.20985 0.67302 0.0
C2259 C 0.0844 0.19343 0.68611 0.0
C2260 C 0.08238 0.20875 0.65259 0.0
C2261 C 0.07315 0.19123 0.64479 0.0
C2262 C 0.06851 0.17536 0.6582 0.0
C2263 C 0.07405 0.17645 0.67859 0.0
H2264 H 0.04047 0.8524 0.9269 0.0
H2265 H 0.09747 0.82277 0.93918 0.0
H2266 H 0.043 0.84244 0.89141 0.0
H2267 H 0.10028 0.81335 0.90378 0.0
H2268 H 0.07215 0.84929 0.82779 0.0
H2269 H 0.06321 0.85294 0.86325 0.0
H2270 H 0.08828 0.79381 0.87576 0.0
H2271 H 0.09779 0.79039 0.84021 0.0
C2272 C 0.0534 0.84354 0.92211 0.0
C2273 C 0.06884 0.83854 0.93589 0.0
C2274 C 0.05494 0.83795 0.90171 0.0
C2275 C 0.07196 0.82725 0.8946 0.0
C2276 C 0.08685 0.82138 0.90865 0.0
C2277 C 0.08529 0.82692 0.92901 0.0
C2278 C 0.07552 0.83691 0.83801 0.0
C2279 C 0.08589 0.81963 0.83114 0.0
C2280 C 0.07025 0.83895 0.8584 0.0
C2281 C 0.07514 0.82374 0.8725 0.0
C2282 C 0.08458 0.80598 0.86542 0.0
C2283 C 0.08991 0.80395 0.84499 0.0
H2284 H 0.47391 0.85272 0.08663 0.0
H2285 H 0.41789 0.82113 0.07522 0.0
H2286 H 0.47198 0.84316 0.12229 0.0
H2287 H 0.41571 0.81203 0.11079 0.0
H2288 H 0.44165 0.8509 0.18557 0.0
H2289 H 0.45092 0.8539 0.1501 0.0
H2290 H 0.42895 0.79333 0.13919 0.0
H2291 H 0.41919 0.79051 0.17471 0.0
C2292 C 0.46136 0.84346 0.09164 0.0
C2293 C 0.44595 0.83786 0.07808 0.0
C2294 C 0.46017 0.83811 0.11213 0.0
C2295 C 0.44357 0.82701 0.11951 0.0
C2296 C 0.42881 0.82042 0.10568 0.0
C2297 C 0.43 0.82577 0.08524 0.0
C2298 C 0.43907 0.83807 0.17571 0.0
C2299 C 0.42946 0.82055 0.18298 0.0
C2300 C 0.44453 0.83975 0.15533 0.0
C2301 C 0.44054 0.82392 0.14168 0.0
C2302 C 0.43194 0.80594 0.1492 0.0
C2303 C 0.42647 0.80427 0.16961 0.0
H2304 H 0.43787 0.41711 0.19596 0.0
H2305 H 0.42706 0.47383 0.16517 0.0
H2306 H 0.40221 0.41511 0.20476 0.0
H2307 H 0.39135 0.472 0.17435 0.0
H2308 H 0.33813 0.41908 0.22575 0.0
H2309 H 0.37369 0.42873 0.22348 0.0
H2310 H 0.36371 0.45087 0.16274 0.0
H2311 H 0.32821 0.44164 0.16515 0.0
C2312 C 0.42797 0.4294 0.19145 0.0
C2313 C 0.43532 0.44551 0.17966 0.0
C2314 C 0.40749 0.42831 0.19661 0.0
C2315 C 0.39383 0.44331 0.1901 0.0
C2316 C 0.4014 0.46004 0.17933 0.0
C2317 C 0.42192 0.46115 0.1742 0.0
C2318 C 0.34343 0.4264 0.21207 0.0
C2319 C 0.33034 0.4294 0.19555 0.0
C2320 C 0.36386 0.4318 0.21072 0.0
C2321 C 0.37164 0.44039 0.19286 0.0
C2322 C 0.35825 0.44446 0.17681 0.0
C2323 C 0.33786 0.43904 0.17814 0.0
H2324 H 0.86233 0.93125 0.11334 0.0
H2325 H 0.82863 0.93178 0.0573 0.0
H2326 H 0.84894 0.89827 0.12137 0.0
H2327 H 0.81449 0.89844 0.06577 0.0
H2328 H 0.81647 0.82773 0.08091 0.0
H2329 H 0.82384 0.8625 0.06988 0.0
H2330 H 0.81845 0.88287 0.13181 0.0
H2331 H 0.81223 0.84829 0.14268 0.0
C2332 C 0.85182 0.92443 0.10279 0.0
C2333 C 0.84647 0.93428 0.08472 0.0
C2334 C 0.84397 0.90547 0.1075 0.0
C2335 C 0.8303 0.89576 0.09442 0.0
C2336 C 0.82498 0.90549 0.07619 0.0
C2337 C 0.833 0.9246 0.07138 0.0
C2338 C 0.81644 0.83981 0.09198 0.0
C2339 C 0.81403 0.83542 0.11264 0.0
C2340 C 0.82065 0.8597 0.08571 0.0
C2341 C 0.82226 0.87543 0.10003 0.0
C2342 C 0.81801 0.87108 0.12044 0.0
C2343 C 0.81425 0.8513 0.12668 0.0
H2344 H 0.17745 0.59679 0.72456 0.0
H2345 H 0.18848 0.56736 0.66724 0.0
H2346 H 0.14154 0.58876 0.72176 0.0
H2347 H 0.15263 0.55976 0.66423 0.0
H2348 H 0.08787 0.54048 0.66645 0.0
H2349 H 0.1234 0.54157 0.67649 0.0
H2350 H 0.11451 0.60163 0.70075 0.0
H2351 H 0.07904 0.60037 0.69115 0.0
C2352 C 0.1723 0.58833 0.71152 0.0
C2353 C 0.18585 0.5829 0.69603 0.0
C2354 C 0.15167 0.58385 0.70984 0.0
C2355 C 0.14411 0.57381 0.69266 0.0
C2356 C 0.15788 0.56735 0.67777 0.0
C2357 C 0.17848 0.57182 0.67944 0.0
C2358 C 0.09341 0.55375 0.67428 0.0
C2359 C 0.08062 0.57041 0.67783 0.0
C2360 C 0.11382 0.55443 0.67992 0.0
C2361 C 0.12191 0.57175 0.68927 0.0
C2362 C 0.10882 0.58795 0.69377 0.0
C2363 C 0.08845 0.58728 0.68813 0.0
H2364 H 0.66772 0.92877 0.97196 0.0
H2365 H 0.69558 0.9376 0.91346 0.0
H2366 H 0.67705 0.89303 0.97097 0.0
H2367 H 0.70446 0.90192 0.91228 0.0
H2368 H 0.66622 0.82894 0.94324 0.0
H2369 H 0.6645 0.86469 0.95168 0.0
H2370 H 0.72366 0.87375 0.92544 0.0
H2371 H 0.72518 0.83793 0.91654 0.0
C2372 C 0.67615 0.9232 0.95906 0.0
C2373 C 0.6807 0.93603 0.94269 0.0
C2374 C 0.68137 0.90266 0.95842 0.0
C2375 C 0.69129 0.8945 0.94144 0.0
C2376 C 0.69698 0.90765 0.92569 0.0
C2377 C 0.69177 0.92815 0.92631 0.0
C2378 C 0.67904 0.83845 0.93957 0.0
C2379 C 0.69572 0.83058 0.92898 0.0
C2380 C 0.67811 0.85899 0.94455 0.0
C2381 C 0.69387 0.8722 0.93908 0.0
C2382 C 0.71111 0.86407 0.92958 0.0
C2383 C 0.71204 0.8435 0.9246 0.0
H2384 H 0.79688 0.17836 0.43475 0.0
H2385 H 0.86103 0.19073 0.4372 0.0
H2386 H 0.80372 0.14264 0.44272 0.0
H2387 H 0.86765 0.15528 0.44473 0.0
H2388 H 0.86778 0.08994 0.41775 0.0
H2389 H 0.85784 0.12532 0.41681 0.0
H2390 H 0.82535 0.1181 0.47293 0.0
H2391 H 0.83572 0.08224 0.47425 0.0
C2392 C 0.81234 0.17362 0.43745 0.0
C2393 C 0.82843 0.18738 0.43508 0.0
C2394 C 0.81621 0.15321 0.44203 0.0
C2395 C 0.8362 0.14629 0.44415 0.0
C2396 C 0.85211 0.16027 0.44305 0.0
C2397 C 0.84827 0.18058 0.43871 0.0
C2398 C 0.85843 0.09571 0.42991 0.0
C2399 C 0.85262 0.08322 0.44613 0.0
C2400 C 0.85281 0.11603 0.42936 0.0
C2401 C 0.84096 0.12439 0.44484 0.0
C2402 C 0.83451 0.11192 0.46082 0.0
C2403 C 0.84048 0.09149 0.46158 0.0
H2404 H 0.72291 0.17922 0.59623 0.0
H2405 H 0.66357 0.18766 0.57008 0.0
H2406 H 0.72196 0.14349 0.5869 0.0
H2407 H 0.66244 0.15199 0.56119 0.0
H2408 H 0.69551 0.07874 0.59726 0.0
H2409 H 0.70345 0.11458 0.59943 0.0
H2410 H 0.67562 0.12445 0.54107 0.0
H2411 H 0.66723 0.08855 0.5391 0.0
C2412 C 0.70979 0.17355 0.58824 0.0
C2413 C 0.69323 0.18629 0.58408 0.0
C2414 C 0.70919 0.15302 0.583 0.0
C2415 C 0.69206 0.14478 0.57344 0.0
C2416 C 0.67599 0.1578 0.56833 0.0
C2417 C 0.67658 0.17829 0.57357 0.0
C2418 C 0.6914 0.08846 0.58469 0.0
C2419 C 0.68051 0.08077 0.56812 0.0
C2420 C 0.69607 0.10905 0.58589 0.0
C2421 C 0.68999 0.1225 0.57052 0.0
C2422 C 0.68022 0.11459 0.55334 0.0
C2423 C 0.67555 0.09396 0.55214 0.0
H2424 H 0.08467 0.45747 0.83695 0.0
H2425 H 0.08882 0.39873 0.8656 0.0
H2426 H 0.12065 0.45509 0.82755 0.0
H2427 H 0.12442 0.39676 0.85662 0.0
H2428 H 0.19039 0.417 0.86487 0.0
H2429 H 0.15453 0.42375 0.86992 0.0
H2430 H 0.1453 0.42516 0.80534 0.0
H2431 H 0.1814 0.41796 0.80005 0.0
C2432 C 0.09313 0.44403 0.84105 0.0
C2433 C 0.08389 0.42835 0.85213 0.0
C2434 C 0.11365 0.44269 0.83566 0.0
C2435 C 0.1252 0.42584 0.84158 0.0
C2436 C 0.11581 0.40998 0.85205 0.0
C2437 C 0.09539 0.41113 0.85712 0.0
C2438 C 0.18089 0.41906 0.85167 0.0
C2439 C 0.18876 0.41671 0.83204 0.0
C2440 C 0.16035 0.42291 0.85461 0.0
C2441 C 0.14726 0.42484 0.83801 0.0
C2442 C 0.15519 0.42378 0.81834 0.0
C2443 C 0.1758 0.41962 0.81536 0.0
H2444 H 0.35172 0.61673 0.26914 0.0
H2445 H 0.32831 0.58446 0.32096 0.0
H2446 H 0.3856 0.60427 0.27676 0.0
H2447 H 0.36224 0.57253 0.32896 0.0
H2448 H 0.42462 0.54542 0.33431 0.0
H2449 H 0.39098 0.55199 0.32036 0.0
H2450 H 0.41036 0.61162 0.3018 0.0
H2451 H 0.44389 0.60485 0.3151 0.0
C2452 C 0.35376 0.60683 0.28206 0.0
C2453 C 0.3373 0.60175 0.29453 0.0
C2454 C 0.37323 0.59977 0.28652 0.0
C2455 C 0.37678 0.58757 0.30364 0.0
C2456 C 0.36012 0.58171 0.31554 0.0
C2457 C 0.34063 0.58867 0.31101 0.0
C2458 C 0.42177 0.55978 0.32692 0.0
C2459 C 0.43695 0.57464 0.32593 0.0
C2460 C 0.40243 0.56362 0.31906 0.0
C2461 C 0.39784 0.5824 0.31003 0.0
C2462 C 0.41332 0.59689 0.30836 0.0
C2463 C 0.43259 0.59304 0.31616 0.0
H2464 H 0.95495 0.68514 0.93535 0.0
H2465 H 0.91388 0.63596 0.92247 0.0
H2466 H 0.95281 0.69595 0.89972 0.0
H2467 H 0.9121 0.64651 0.88734 0.0
H2468 H 0.93224 0.65445 0.82308 0.0
H2469 H 0.93926 0.64744 0.85856 0.0
H2470 H 0.92298 0.70872 0.87413 0.0
H2471 H 0.91568 0.71587 0.83842 0.0
C2472 C 0.94547 0.67671 0.925 0.0
C2473 C 0.9346 0.6597 0.93175 0.0
C2474 C 0.94424 0.6829 0.90468 0.0
C2475 C 0.93248 0.6719 0.89079 0.0
C2476 C 0.9215 0.65509 0.89766 0.0
C2477 C 0.92244 0.64915 0.91786 0.0
C2478 C 0.93044 0.66659 0.83394 0.0
C2479 C 0.92312 0.68565 0.82791 0.0
C2480 C 0.93445 0.66253 0.85428 0.0
C2481 C 0.93143 0.67747 0.86907 0.0
C2482 C 0.92546 0.69696 0.86299 0.0
C2483 C 0.92124 0.701 0.84257 0.0
H2484 H 0.53823 0.67142 0.08587 0.0
H2485 H 0.59939 0.69311 0.0783 0.0
H2486 H 0.5386 0.68274 0.12104 0.0
H2487 H 0.59995 0.7039 0.11343 0.0
H2488 H 0.59514 0.72926 0.17546 0.0
H2489 H 0.58759 0.72614 0.13945 0.0
H2490 H 0.55507 0.67069 0.15124 0.0
H2491 H 0.56215 0.67408 0.18716 0.0
C2492 C 0.55164 0.67886 0.0916 0.0
C2493 C 0.56885 0.68117 0.0793 0.0
C2494 C 0.55191 0.68523 0.11181 0.0
C2495 C 0.56937 0.69407 0.12018 0.0
C2496 C 0.58615 0.69737 0.10751 0.0
C2497 C 0.58588 0.69103 0.08734 0.0
C2498 C 0.58598 0.71666 0.17043 0.0
C2499 C 0.57945 0.7018 0.1842 0.0
C2500 C 0.58178 0.71478 0.14974 0.0
C2501 C 0.57095 0.69802 0.14235 0.0
C2502 C 0.56331 0.68389 0.15633 0.0
C2503 C 0.56749 0.68578 0.17699 0.0
H2504 H 0.60615 0.27056 0.34954 0.0
H2505 H 0.58087 0.32705 0.3283 0.0
H2506 H 0.59276 0.27727 0.38326 0.0
H2507 H 0.56815 0.3341 0.36206 0.0
H2508 H 0.53997 0.34005 0.42342 0.0
H2509 H 0.54591 0.32684 0.38941 0.0
H2510 H 0.60166 0.29941 0.40996 0.0
H2511 H 0.59539 0.31196 0.44386 0.0
C2512 C 0.59753 0.28429 0.35198 0.0
C2513 C 0.59477 0.29834 0.33623 0.0
C2514 C 0.58997 0.28823 0.37139 0.0
C2515 C 0.5796 0.30639 0.37556 0.0
C2516 C 0.57587 0.31988 0.35948 0.0
C2517 C 0.58329 0.31586 0.34006 0.0
C2518 C 0.5533 0.33088 0.42073 0.0
C2519 C 0.56726 0.32719 0.43637 0.0
C2520 C 0.55679 0.32343 0.40118 0.0
C2521 C 0.57436 0.31216 0.39679 0.0
C2522 C 0.58783 0.30777 0.41271 0.0
C2523 C 0.58429 0.31512 0.43221 0.0
H2524 H 0.92243 0.29294 0.67388 0.0
H2525 H 0.94091 0.35472 0.68444 0.0
H2526 H 0.93321 0.29581 0.63864 0.0
H2527 H 0.95113 0.35776 0.64927 0.0
H2528 H 0.92318 0.32152 0.57372 0.0
H2529 H 0.92018 0.31294 0.60935 0.0
H2530 H 0.97358 0.34823 0.62242 0.0
H2531 H 0.97626 0.3573 0.5867 0.0
C2532 C 0.92905 0.30703 0.66879 0.0
C2533 C 0.93063 0.32365 0.68197 0.0
C2534 C 0.9351 0.30873 0.64853 0.0
C2535 C 0.94286 0.32709 0.64099 0.0
C2536 C 0.94543 0.34332 0.6545 0.0
C2537 C 0.93942 0.34161 0.67472 0.0
C2538 C 0.9345 0.32721 0.58411 0.0
C2539 C 0.94983 0.3403 0.57733 0.0
C2540 C 0.93285 0.32216 0.6046 0.0
C2541 C 0.94653 0.33003 0.61888 0.0
C2542 C 0.96257 0.34218 0.61192 0.0
C2543 C 0.9642 0.34726 0.59139 0.0
loop_
_geom_bond_atom_site_label_1
_geom_bond_atom_site_label_2
_geom_bond_distance
_geom_bond_site_symmetry_2
_ccdc_geom_bond_type
Mg0 O7 2.141 . S
Mg0 O8 2.048 . S
Mg0 O9 2.048 . S
Mg0 O12 2.141 . S
C1 O2 1.313 . S
C1 O8 1.195 . S
O2 C1 1.313 . S
C3 O4 1.245 . S
C3 O12 1.289 . S
O4 C3 1.245 . S
C5 O6 1.245 . S
C5 O7 1.289 . S
O6 C5 1.245 . S
O7 Mg0 2.141 . S
O7 C5 1.289 . S
O8 Mg0 2.048 . S
O8 C1 1.195 . S
O9 Mg0 2.048 . S
O9 C10 1.195 . S
C10 O9 1.195 . S
C10 O11 1.313 . S
O11 C10 1.313 . S
O12 Mg0 2.141 . S
O12 C3 1.289 . S
Mg13 O20 2.141 . S
Mg13 O21 2.048 . S
Mg13 O22 2.048 . S
Mg13 O25 2.141 1_655 S
C14 O15 1.313 . S
C14 O21 1.195 . S
O15 C14 1.313 . S
C16 O17 1.245 . S
C16 O25 1.289 . S
O17 C16 1.245 . S
C18 O19 1.245 . S
C18 O20 1.289 1_455 S
O19 C18 1.245 . S
O20 Mg13 2.141 . S
O20 C18 1.289 1_655 S
O21 Mg13 2.048 . S
O21 C14 1.195 . S
O22 Mg13 2.048 . S
O22 C23 1.195 . S
C23 O22 1.195 . S
C23 O24 1.313 . S
O24 C23 1.313 . S
O25 Mg13 2.141 1_455 S
O25 C16 1.289 . S
Mg26 O33 2.141 . S
Mg26 O34 2.048 . S
Mg26 O35 2.048 . S
Mg26 O38 2.141 . S
C27 O28 1.313 . S
C27 O34 1.195 . S
O28 C27 1.313 . S
C29 O30 1.245 . S
C29 O38 1.289 . S
O30 C29 1.245 . S
C31 O32 1.245 . S
C31 O33 1.289 . S
O32 C31 1.245 . S
O33 Mg26 2.141 . S
O33 C31 1.289 . S
O34 Mg26 2.048 . S
O34 C27 1.195 . S
O35 Mg26 2.048 . S
O35 C36 1.195 . S
C36 O35 1.195 . S
C36 O37 1.313 . S
O37 C36 1.313 . S
O38 Mg26 2.141 . S
O38 C29 1.289 . S
Mg39 O46 2.141 . S
Mg39 O47 2.048 . S
Mg39 O48 2.048 . S
Mg39 O51 2.141 . S
C40 O41 1.313 . S
C40 O47 1.195 . S
O41 C40 1.313 . S
C42 O43 1.245 . S
C42 O51 1.289 . S
O43 C42 1.245 . S
C44 O45 1.245 . S
C44 O46 1.289 . S
O45 C44 1.245 . S
O46 Mg39 2.141 . S
O46 C44 1.289 . S
O47 Mg39 2.048 . S
O47 C40 1.195 . S
O48 Mg39 2.048 . S
O48 C49 1.195 . S
C49 O48 1.195 . S
C49 O50 1.313 . S
O50 C49 1.313 . S
O51 Mg39 2.141 . S
O51 C42 1.289 . S
Mg52 O59 2.141 . S
Mg52 O60 2.048 . S
Mg52 O61 2.048 . S
Mg52 O64 2.141 . S
C53 O54 1.313 . S
C53 O60 1.195 . S
O54 C53 1.313 . S
C55 O56 1.245 . S
C55 O64 1.289 . S
O56 C55 1.245 . S
C57 O58 1.245 . S
C57 O59 1.289 . S
O58 C57 1.245 . S
O59 Mg52 2.141 . S
O59 C57 1.289 . S
O60 Mg52 2.048 . S
O60 C53 1.195 . S
O61 Mg52 2.048 . S
O61 C62 1.195 . S
C62 O61 1.195 . S
C62 O63 1.313 . S
O63 C62 1.313 . S
O64 Mg52 2.141 . S
O64 C55 1.289 . S
Mg65 O72 2.141 . S
Mg65 O73 2.048 . S
Mg65 O74 2.048 . S
Mg65 O77 2.141 . S
C66 O67 1.313 . S
C66 O73 1.195 . S
O67 C66 1.313 . S
C68 O69 1.245 . S
C68 O77 1.289 . S
O69 C68 1.245 . S
C70 O71 1.245 . S
C70 O72 1.289 . S
O71 C70 1.245 . S
O72 Mg65 2.141 . S
O72 C70 1.289 . S
O73 Mg65 2.048 . S
O73 C66 1.195 . S
O74 Mg65 2.048 . S
O74 C75 1.195 . S
C75 O74 1.195 . S
C75 O76 1.313 . S
O76 C75 1.313 . S
O77 Mg65 2.141 . S
O77 C68 1.289 . S
Mg78 O85 2.141 . S
Mg78 O86 2.048 . S
Mg78 O87 2.048 . S
Mg78 O90 2.141 . S
C79 O80 1.313 . S
C79 O86 1.195 . S
O80 C79 1.313 . S
C81 O82 1.245 . S
C81 O90 1.289 . S
O82 C81 1.245 . S
C83 O84 1.245 . S
C83 O85 1.289 . S
O84 C83 1.245 . S
O85 Mg78 2.141 . S
O85 C83 1.289 . S
O86 Mg78 2.048 . S
O86 C79 1.195 . S
O87 Mg78 2.048 . S
O87 C88 1.195 . S
C88 O87 1.195 . S
C88 O89 1.313 . S
O89 C88 1.313 . S
O90 Mg78 2.141 . S
O90 C81 1.289 . S
Mg91 O98 2.141 . S
Mg91 O99 2.048 . S
Mg91 O100 2.048 . S
Mg91 O103 2.141 1_655 S
C92 O93 1.313 . S
C92 O99 1.195 . S
O93 C92 1.313 . S
C94 O95 1.245 . S
C94 O103 1.289 . S
O95 C94 1.245 . S
C96 O97 1.245 . S
C96 O98 1.289 1_455 S
O97 C96 1.245 . S
O98 Mg91 2.141 . S
O98 C96 1.289 1_655 S
O99 Mg91 2.048 . S
O99 C92 1.195 . S
O100 Mg91 2.048 . S
O100 C101 1.195 . S
C101 O100 1.195 . S
C101 O102 1.313 . S
O102 C101 1.313 . S
O103 Mg91 2.141 1_455 S
O103 C94 1.289 . S
Mg104 O111 2.141 . S
Mg104 O112 2.048 . S
Mg104 O113 2.048 . S
Mg104 O116 2.141 . S
C105 O106 1.313 . S
C105 O112 1.195 . S
O106 C105 1.313 . S
C107 O108 1.245 . S
C107 O116 1.289 . S
O108 C107 1.245 . S
C109 O110 1.245 . S
C109 O111 1.289 . S
O110 C109 1.245 . S
O111 Mg104 2.141 . S
O111 C109 1.289 . S
O112 Mg104 2.048 . S
O112 C105 1.195 . S
O113 Mg104 2.048 . S
O113 C114 1.195 . S
C114 O113 1.195 . S
C114 O115 1.313 . S
O115 C114 1.313 . S
O116 Mg104 2.141 . S
O116 C107 1.289 . S
Mg117 O124 2.141 . S
Mg117 O125 2.048 . S
Mg117 O126 2.048 . S
Mg117 O129 2.141 . S
C118 O119 1.313 . S
C118 O125 1.195 . S
O119 C118 1.313 . S
C120 O121 1.245 . S
C120 O129 1.289 . S
O121 C120 1.245 . S
C122 O123 1.245 . S
C122 O124 1.289 . S
O123 C122 1.245 . S
O124 Mg117 2.141 . S
O124 C122 1.289 . S
O125 Mg117 2.048 . S
O125 C118 1.195 . S
O126 Mg117 2.048 . S
O126 C127 1.195 . S
C127 O126 1.195 . S
C127 O128 1.313 . S
O128 C127 1.313 . S
O129 Mg117 2.141 . S
O129 C120 1.289 . S
Mg130 O137 2.141 . S
Mg130 O138 2.048 . S
Mg130 O139 2.048 . S
Mg130 O142 2.141 . S
C131 O132 1.313 . S
C131 O138 1.195 . S
O132 C131 1.313 . S
C133 O134 1.245 . S
C133 O142 1.289 . S
O134 C133 1.245 . S
C135 O136 1.245 . S
C135 O137 1.289 . S
O136 C135 1.245 . S
O137 Mg130 2.141 . S
O137 C135 1.289 . S
O138 Mg130 2.048 . S
O138 C131 1.195 . S
O139 Mg130 2.048 . S
O139 C140 1.195 . S
C140 O139 1.195 . S
C140 O141 1.313 . S
O141 C140 1.313 . S
O142 Mg130 2.141 . S
O142 C133 1.289 . S
Mg143 O150 2.141 . S
Mg143 O151 2.048 . S
Mg143 O152 2.048 . S
Mg143 O155 2.141 1_554 S
C144 O145 1.313 . S
C144 O151 1.195 . S
O145 C144 1.313 . S
C146 O147 1.245 . S
C146 O155 1.289 . S
O147 C146 1.245 . S
C148 O149 1.245 . S
C148 O150 1.289 1_556 S
O149 C148 1.245 . S
O150 Mg143 2.141 . S
O150 C148 1.289 1_554 S
O151 Mg143 2.048 . S
O151 C144 1.195 . S
O152 Mg143 2.048 . S
O152 C153 1.195 . S
C153 O152 1.195 . S
C153 O154 1.313 . S
O154 C153 1.313 . S
O155 Mg143 2.141 1_556 S
O155 C146 1.289 . S
Mg156 O163 2.141 . S
Mg156 O164 2.048 . S
Mg156 O165 2.048 . S
Mg156 O168 2.141 . S
C157 O158 1.313 . S
C157 O164 1.195 . S
O158 C157 1.313 . S
C159 O160 1.245 . S
C159 O168 1.289 . S
O160 C159 1.245 . S
C161 O162 1.245 . S
C161 O163 1.289 . S
O162 C161 1.245 . S
O163 Mg156 2.141 . S
O163 C161 1.289 . S
O164 Mg156 2.048 . S
O164 C157 1.195 . S
O165 Mg156 2.048 . S
O165 C166 1.195 . S
C166 O165 1.195 . S
C166 O167 1.313 . S
O167 C166 1.313 . S
O168 Mg156 2.141 . S
O168 C159 1.289 . S
Mg169 O176 2.141 . S
Mg169 O177 2.048 . S
Mg169 O178 2.048 . S
Mg169 O181 2.141 . S
C170 O171 1.313 . S
C170 O177 1.195 . S
O171 C170 1.313 . S
C172 O173 1.245 . S
C172 O181 1.289 . S
O173 C172 1.245 . S
C174 O175 1.245 . S
C174 O176 1.289 . S
O175 C174 1.245 . S
O176 Mg169 2.141 . S
O176 C174 1.289 . S
O177 Mg169 2.048 . S
O177 C170 1.195 . S
O178 Mg169 2.048 . S
O178 C179 1.195 . S
C179 O178 1.195 . S
C179 O180 1.313 . S
O180 C179 1.313 . S
O181 Mg169 2.141 . S
O181 C172 1.289 . S
Mg182 O189 2.141 . S
Mg182 O190 2.048 . S
Mg182 O191 2.048 . S
Mg182 O194 2.141 . S
C183 O184 1.313 . S
C183 O190 1.195 . S
O184 C183 1.313 . S
C185 O186 1.245 . S
C185 O194 1.289 . S
O186 C185 1.245 . S
C187 O188 1.245 . S
C187 O189 1.289 . S
O188 C187 1.245 . S
O189 Mg182 2.141 . S
O189 C187 1.289 . S
O190 Mg182 2.048 . S
O190 C183 1.195 . S
O191 Mg182 2.048 . S
O191 C192 1.195 . S
C192 O191 1.195 . S
C192 O193 1.313 . S
O193 C192 1.313 . S
O194 Mg182 2.141 . S
O194 C185 1.289 . S
Mg195 O202 2.141 . S
Mg195 O203 2.048 . S
Mg195 O204 2.048 . S
Mg195 O207 2.141 1_556 S
C196 O197 1.313 . S
C196 O203 1.195 . S
O197 C196 1.313 . S
C198 O199 1.245 . S
C198 O207 1.289 . S
O199 C198 1.245 . S
C200 O201 1.245 . S
C200 O202 1.289 1_554 S
O201 C200 1.245 . S
O202 Mg195 2.141 . S
O202 C200 1.289 1_556 S
O203 Mg195 2.048 . S
O203 C196 1.195 . S
O204 Mg195 2.048 . S
O204 C205 1.195 . S
C205 O204 1.195 . S
C205 O206 1.313 . S
O206 C205 1.313 . S
O207 Mg195 2.141 1_554 S
O207 C198 1.289 . S
Mg208 O215 2.141 . S
Mg208 O216 2.048 . S
Mg208 O217 2.048 . S
Mg208 O220 2.141 . S
C209 O210 1.313 . S
C209 O216 1.195 . S
O210 C209 1.313 . S
C211 O212 1.245 . S
C211 O220 1.289 . S
O212 C211 1.245 . S
C213 O214 1.245 . S
C213 O215 1.289 . S
O214 C213 1.245 . S
O215 Mg208 2.141 . S
O215 C213 1.289 . S
O216 Mg208 2.048 . S
O216 C209 1.195 . S
O217 Mg208 2.048 . S
O217 C218 1.195 . S
C218 O217 1.195 . S
C218 O219 1.313 . S
O219 C218 1.313 . S
O220 Mg208 2.141 . S
O220 C211 1.289 . S
Mg221 O228 2.141 . S
Mg221 O229 2.048 . S
Mg221 O230 2.048 . S
Mg221 O233 2.141 . S
C222 O223 1.313 . S
C222 O229 1.195 . S
O223 C222 1.313 . S
C224 O225 1.245 . S
C224 O233 1.289 . S
O225 C224 1.245 . S
C226 O227 1.245 . S
C226 O228 1.289 . S
O227 C226 1.245 . S
O228 Mg221 2.141 . S
O228 C226 1.289 . S
O229 Mg221 2.048 . S
O229 C222 1.195 . S
O230 Mg221 2.048 . S
O230 C231 1.195 . S
C231 O230 1.195 . S
C231 O232 1.313 . S
O232 C231 1.313 . S
O233 Mg221 2.141 . S
O233 C224 1.289 . S
Mg234 O241 2.141 . S
Mg234 O242 2.048 . S
Mg234 O243 2.048 . S
Mg234 O246 2.141 . S
C235 O236 1.313 . S
C235 O242 1.195 . S
O236 C235 1.313 . S
C237 O238 1.245 . S
C237 O246 1.289 . S
O238 C237 1.245 . S
C239 O240 1.245 . S
C239 O241 1.289 . S
O240 C239 1.245 . S
O241 Mg234 2.141 . S
O241 C239 1.289 . S
O242 Mg234 2.048 . S
O242 C235 1.195 . S
O243 Mg234 2.048 . S
O243 C244 1.195 . S
C244 O243 1.195 . S
C244 O245 1.313 . S
O245 C244 1.313 . S
O246 Mg234 2.141 . S
O246 C237 1.289 . S
Mg247 O254 2.141 . S
Mg247 O255 2.048 . S
Mg247 O256 2.048 . S
Mg247 O259 2.141 . S
C248 O249 1.313 . S
C248 O255 1.195 . S
O249 C248 1.313 . S
C250 O251 1.245 . S
C250 O259 1.289 . S
O251 C250 1.245 . S
C252 O253 1.245 . S
C252 O254 1.289 . S
O253 C252 1.245 . S
O254 Mg247 2.141 . S
O254 C252 1.289 . S
O255 Mg247 2.048 . S
O255 C248 1.195 . S
O256 Mg247 2.048 . S
O256 C257 1.195 . S
C257 O256 1.195 . S
C257 O258 1.313 . S
O258 C257 1.313 . S
O259 Mg247 2.141 . S
O259 C250 1.289 . S
Mg260 O267 2.141 . S
Mg260 O268 2.048 . S
Mg260 O269 2.048 . S
Mg260 O272 2.141 1_565 S
C261 O262 1.313 . S
C261 O268 1.195 . S
O262 C261 1.313 . S
C263 O264 1.245 . S
C263 O272 1.289 . S
O264 C263 1.245 . S
C265 O266 1.245 . S
C265 O267 1.289 1_545 S
O266 C265 1.245 . S
O267 Mg260 2.141 . S
O267 C265 1.289 1_565 S
O268 Mg260 2.048 . S
O268 C261 1.195 . S
O269 Mg260 2.048 . S
O269 C270 1.195 . S
C270 O269 1.195 . S
C270 O271 1.313 . S
O271 C270 1.313 . S
O272 Mg260 2.141 1_545 S
O272 C263 1.289 . S
Mg273 O280 2.141 . S
Mg273 O281 2.048 . S
Mg273 O282 2.048 . S
Mg273 O285 2.141 . S
C274 O275 1.313 . S
C274 O281 1.195 . S
O275 C274 1.313 . S
C276 O277 1.245 . S
C276 O285 1.289 . S
O277 C276 1.245 . S
C278 O279 1.245 . S
C278 O280 1.289 . S
O279 C278 1.245 . S
O280 Mg273 2.141 . S
O280 C278 1.289 . S
O281 Mg273 2.048 . S
O281 C274 1.195 . S
O282 Mg273 2.048 . S
O282 C283 1.195 . S
C283 O282 1.195 . S
C283 O284 1.313 . S
O284 C283 1.313 . S
O285 Mg273 2.141 . S
O285 C276 1.289 . S
Mg286 O293 2.141 . S
Mg286 O294 2.048 . S
Mg286 O295 2.048 . S
Mg286 O298 2.141 . S
C287 O288 1.313 . S
C287 O294 1.195 . S
O288 C287 1.313 . S
C289 O290 1.245 . S
C289 O298 1.289 . S
O290 C289 1.245 . S
C291 O292 1.245 . S
C291 O293 1.289 . S
O292 C291 1.245 . S
O293 Mg286 2.141 . S
O293 C291 1.289 . S
O294 Mg286 2.048 . S
O294 C287 1.195 . S
O295 Mg286 2.048 . S
O295 C296 1.195 . S
C296 O295 1.195 . S
C296 O297 1.313 . S
O297 C296 1.313 . S
O298 Mg286 2.141 . S
O298 C289 1.289 . S
Mg299 O306 2.141 . S
Mg299 O307 2.048 . S
Mg299 O308 2.048 . S
Mg299 O311 2.141 . S
C300 O301 1.313 . S
C300 O307 1.195 . S
O301 C300 1.313 . S
C302 O303 1.245 . S
C302 O311 1.289 . S
O303 C302 1.245 . S
C304 O305 1.245 . S
C304 O306 1.289 . S
O305 C304 1.245 . S
O306 Mg299 2.141 . S
O306 C304 1.289 . S
O307 Mg299 2.048 . S
O307 C300 1.195 . S
O308 Mg299 2.048 . S
O308 C309 1.195 . S
C309 O308 1.195 . S
C309 O310 1.313 . S
O310 C309 1.313 . S
O311 Mg299 2.141 . S
O311 C302 1.289 . S
Mg312 O319 2.141 . S
Mg312 O320 2.048 . S
Mg312 O321 2.048 . S
Mg312 O324 2.141 . S
C313 O314 1.313 . S
C313 O320 1.195 . S
O314 C313 1.313 . S
C315 O316 1.245 . S
C315 O324 1.289 . S
O316 C315 1.245 . S
C317 O318 1.245 . S
C317 O319 1.289 . S
O318 C317 1.245 . S
O319 Mg312 2.141 . S
O319 C317 1.289 . S
O320 Mg312 2.048 . S
O320 C313 1.195 . S
O321 Mg312 2.048 . S
O321 C322 1.195 . S
C322 O321 1.195 . S
C322 O323 1.313 . S
O323 C322 1.313 . S
O324 Mg312 2.141 . S
O324 C315 1.289 . S
Mg325 O332 2.141 . S
Mg325 O333 2.048 . S
Mg325 O334 2.048 . S
Mg325 O337 2.141 . S
C326 O327 1.313 . S
C326 O333 1.195 . S
O327 C326 1.313 . S
C328 O329 1.245 . S
C328 O337 1.289 . S
O329 C328 1.245 . S
C330 O331 1.245 . S
C330 O332 1.289 . S
O331 C330 1.245 . S
O332 Mg325 2.141 . S
O332 C330 1.289 . S
O333 Mg325 2.048 . S
O333 C326 1.195 . S
O334 Mg325 2.048 . S
O334 C335 1.195 . S
C335 O334 1.195 . S
C335 O336 1.313 . S
O336 C335 1.313 . S
O337 Mg325 2.141 . S
O337 C328 1.289 . S
Mg338 O345 2.141 . S
Mg338 O346 2.048 . S
Mg338 O347 2.048 . S
Mg338 O350 2.141 . S
C339 O340 1.313 . S
C339 O346 1.195 . S
O340 C339 1.313 . S
C341 O342 1.245 . S
C341 O350 1.289 . S
O342 C341 1.245 . S
C343 O344 1.245 . S
C343 O345 1.289 . S
O344 C343 1.245 . S
O345 Mg338 2.141 . S
O345 C343 1.289 . S
O346 Mg338 2.048 . S
O346 C339 1.195 . S
O347 Mg338 2.048 . S
O347 C348 1.195 . S
C348 O347 1.195 . S
C348 O349 1.313 . S
O349 C348 1.313 . S
O350 Mg338 2.141 . S
O350 C341 1.289 . S
Mg351 O358 2.141 . S
Mg351 O359 2.048 . S
Mg351 O360 2.048 . S
Mg351 O363 2.141 1_455 S
C352 O353 1.313 . S
C352 O359 1.195 . S
O353 C352 1.313 . S
C354 O355 1.245 . S
C354 O363 1.289 . S
O355 C354 1.245 . S
C356 O357 1.245 . S
C356 O358 1.289 1_655 S
O357 C356 1.245 . S
O358 Mg351 2.141 . S
O358 C356 1.289 1_455 S
O359 Mg351 2.048 . S
O359 C352 1.195 . S
O360 Mg351 2.048 . S
O360 C361 1.195 . S
C361 O360 1.195 . S
C361 O362 1.313 . S
O362 C361 1.313 . S
O363 Mg351 2.141 1_655 S
O363 C354 1.289 . S
Mg364 O371 2.141 . S
Mg364 O372 2.048 . S
Mg364 O373 2.048 . S
Mg364 O376 2.141 . S
C365 O366 1.313 . S
C365 O372 1.195 . S
O366 C365 1.313 . S
C367 O368 1.245 . S
C367 O376 1.289 . S
O368 C367 1.245 . S
C369 O370 1.245 . S
C369 O371 1.289 . S
O370 C369 1.245 . S
O371 Mg364 2.141 . S
O371 C369 1.289 . S
O372 Mg364 2.048 . S
O372 C365 1.195 . S
O373 Mg364 2.048 . S
O373 C374 1.195 . S
C374 O373 1.195 . S
C374 O375 1.313 . S
O375 C374 1.313 . S
O376 Mg364 2.141 . S
O376 C367 1.289 . S
Mg377 O384 2.141 . S
Mg377 O385 2.048 . S
Mg377 O386 2.048 . S
Mg377 O389 2.141 1_455 S
C378 O379 1.313 . S
C378 O385 1.195 . S
O379 C378 1.313 . S
C380 O381 1.245 . S
C380 O389 1.289 . S
O381 C380 1.245 . S
C382 O383 1.245 . S
C382 O384 1.289 1_655 S
O383 C382 1.245 . S
O384 Mg377 2.141 . S
O384 C382 1.289 1_455 S
O385 Mg377 2.048 . S
O385 C378 1.195 . S
O386 Mg377 2.048 . S
O386 C387 1.195 . S
C387 O386 1.195 . S
C387 O388 1.313 . S
O388 C387 1.313 . S
O389 Mg377 2.141 1_655 S
O389 C380 1.289 . S
Mg390 O397 2.141 . S
Mg390 O398 2.048 . S
Mg390 O399 2.048 . S
Mg390 O402 2.141 . S
C391 O392 1.313 . S
C391 O398 1.195 . S
O392 C391 1.313 . S
C393 O394 1.245 . S
C393 O402 1.289 . S
O394 C393 1.245 . S
C395 O396 1.245 . S
C395 O397 1.289 . S
O396 C395 1.245 . S
O397 Mg390 2.141 . S
O397 C395 1.289 . S
O398 Mg390 2.048 . S
O398 C391 1.195 . S
O399 Mg390 2.048 . S
O399 C400 1.195 . S
C400 O399 1.195 . S
C400 O401 1.313 . S
O401 C400 1.313 . S
O402 Mg390 2.141 . S
O402 C393 1.289 . S
Mg403 O410 2.141 . S
Mg403 O411 2.048 . S
Mg403 O412 2.048 . S
Mg403 O415 2.141 . S
C404 O405 1.313 . S
C404 O411 1.195 . S
O405 C404 1.313 . S
C406 O407 1.245 . S
C406 O415 1.289 . S
O407 C406 1.245 . S
C408 O409 1.245 . S
C408 O410 1.289 . S
O409 C408 1.245 . S
O410 Mg403 2.141 . S
O410 C408 1.289 . S
O411 Mg403 2.048 . S
O411 C404 1.195 . S
O412 Mg403 2.048 . S
O412 C413 1.195 . S
C413 O412 1.195 . S
C413 O414 1.313 . S
O414 C413 1.313 . S
O415 Mg403 2.141 . S
O415 C406 1.289 . S
Mg416 O423 2.141 . S
Mg416 O424 2.048 . S
Mg416 O425 2.048 . S
Mg416 O428 2.141 . S
C417 O418 1.313 . S
C417 O424 1.195 . S
O418 C417 1.313 . S
C419 O420 1.245 . S
C419 O428 1.289 . S
O420 C419 1.245 . S
C421 O422 1.245 . S
C421 O423 1.289 . S
O422 C421 1.245 . S
O423 Mg416 2.141 . S
O423 C421 1.289 . S
O424 Mg416 2.048 . S
O424 C417 1.195 . S
O425 Mg416 2.048 . S
O425 C426 1.195 . S
C426 O425 1.195 . S
C426 O427 1.313 . S
O427 C426 1.313 . S
O428 Mg416 2.141 . S
O428 C419 1.289 . S
Mg429 O436 2.141 . S
Mg429 O437 2.048 . S
Mg429 O438 2.048 . S
Mg429 O441 2.141 1_554 S
C430 O431 1.313 . S
C430 O437 1.195 . S
O431 C430 1.313 . S
C432 O433 1.245 . S
C432 O441 1.289 . S
O433 C432 1.245 . S
C434 O435 1.245 . S
C434 O436 1.289 1_556 S
O435 C434 1.245 . S
O436 Mg429 2.141 . S
O436 C434 1.289 1_554 S
O437 Mg429 2.048 . S
O437 C430 1.195 . S
O438 Mg429 2.048 . S
O438 C439 1.195 . S
C439 O438 1.195 . S
C439 O440 1.313 . S
O440 C439 1.313 . S
O441 Mg429 2.141 1_556 S
O441 C432 1.289 . S
Mg442 O449 2.141 . S
Mg442 O450 2.048 . S
Mg442 O451 2.048 . S
Mg442 O454 2.141 . S
C443 O444 1.313 . S
C443 O450 1.195 . S
O444 C443 1.313 . S
C445 O446 1.245 . S
C445 O454 1.289 . S
O446 C445 1.245 . S
C447 O448 1.245 . S
C447 O449 1.289 . S
O448 C447 1.245 . S
O449 Mg442 2.141 . S
O449 C447 1.289 . S
O450 Mg442 2.048 . S
O450 C443 1.195 . S
O451 Mg442 2.048 . S
O451 C452 1.195 . S
C452 O451 1.195 . S
C452 O453 1.313 . S
O453 C452 1.313 . S
O454 Mg442 2.141 . S
O454 C445 1.289 . S
Mg455 O462 2.141 . S
Mg455 O463 2.048 . S
Mg455 O464 2.048 . S
Mg455 O467 2.141 . S
C456 O457 1.313 . S
C456 O463 1.195 . S
O457 C456 1.313 . S
C458 O459 1.245 . S
C458 O467 1.289 . S
O459 C458 1.245 . S
C460 O461 1.245 . S
C460 O462 1.289 . S
O461 C460 1.245 . S
O462 Mg455 2.141 . S
O462 C460 1.289 . S
O463 Mg455 2.048 . S
O463 C456 1.195 . S
O464 Mg455 2.048 . S
O464 C465 1.195 . S
C465 O464 1.195 . S
C465 O466 1.313 . S
O466 C465 1.313 . S
O467 Mg455 2.141 . S
O467 C458 1.289 . S
Mg468 O475 2.141 . S
Mg468 O476 2.048 . S
Mg468 O477 2.048 . S
Mg468 O480 2.141 . S
C469 O470 1.313 . S
C469 O476 1.195 . S
O470 C469 1.313 . S
C471 O472 1.245 . S
C471 O480 1.289 . S
O472 C471 1.245 . S
C473 O474 1.245 . S
C473 O475 1.289 . S
O474 C473 1.245 . S
O475 Mg468 2.141 . S
O475 C473 1.289 . S
O476 Mg468 2.048 . S
O476 C469 1.195 . S
O477 Mg468 2.048 . S
O477 C478 1.195 . S
C478 O477 1.195 . S
C478 O479 1.313 . S
O479 C478 1.313 . S
O480 Mg468 2.141 . S
O480 C471 1.289 . S
Mg481 O488 2.141 . S
Mg481 O489 2.048 . S
Mg481 O490 2.048 . S
Mg481 O493 2.141 1_556 S
C482 O483 1.313 . S
C482 O489 1.195 . S
O483 C482 1.313 . S
C484 O485 1.245 . S
C484 O493 1.289 . S
O485 C484 1.245 . S
C486 O487 1.245 . S
C486 O488 1.289 1_554 S
O487 C486 1.245 . S
O488 Mg481 2.141 . S
O488 C486 1.289 1_556 S
O489 Mg481 2.048 . S
O489 C482 1.195 . S
O490 Mg481 2.048 . S
O490 C491 1.195 . S
C491 O490 1.195 . S
C491 O492 1.313 . S
O492 C491 1.313 . S
O493 Mg481 2.141 1_554 S
O493 C484 1.289 . S
Mg494 O501 2.141 . S
Mg494 O502 2.048 . S
Mg494 O503 2.048 . S
Mg494 O506 2.141 . S
C495 O496 1.313 . S
C495 O502 1.195 . S
O496 C495 1.313 . S
C497 O498 1.245 . S
C497 O506 1.289 . S
O498 C497 1.245 . S
C499 O500 1.245 . S
C499 O501 1.289 . S
O500 C499 1.245 . S
O501 Mg494 2.141 . S
O501 C499 1.289 . S
O502 Mg494 2.048 . S
O502 C495 1.195 . S
O503 Mg494 2.048 . S
O503 C504 1.195 . S
C504 O503 1.195 . S
C504 O505 1.313 . S
O505 C504 1.313 . S
O506 Mg494 2.141 . S
O506 C497 1.289 . S
Mg507 O514 2.141 . S
Mg507 O515 2.048 . S
Mg507 O516 2.048 . S
Mg507 O519 2.141 . S
C508 O509 1.313 . S
C508 O515 1.195 . S
O509 C508 1.313 . S
C510 O511 1.245 . S
C510 O519 1.289 . S
O511 C510 1.245 . S
C512 O513 1.245 . S
C512 O514 1.289 . S
O513 C512 1.245 . S
O514 Mg507 2.141 . S
O514 C512 1.289 . S
O515 Mg507 2.048 . S
O515 C508 1.195 . S
O516 Mg507 2.048 . S
O516 C517 1.195 . S
C517 O516 1.195 . S
C517 O518 1.313 . S
O518 C517 1.313 . S
O519 Mg507 2.141 . S
O519 C510 1.289 . S
Mg520 O527 2.141 . S
Mg520 O528 2.048 . S
Mg520 O529 2.048 . S
Mg520 O532 2.141 . S
C521 O522 1.313 . S
C521 O528 1.195 . S
O522 C521 1.313 . S
C523 O524 1.245 . S
C523 O532 1.289 . S
O524 C523 1.245 . S
C525 O526 1.245 . S
C525 O527 1.289 . S
O526 C525 1.245 . S
O527 Mg520 2.141 . S
O527 C525 1.289 . S
O528 Mg520 2.048 . S
O528 C521 1.195 . S
O529 Mg520 2.048 . S
O529 C530 1.195 . S
C530 O529 1.195 . S
C530 O531 1.313 . S
O531 C530 1.313 . S
O532 Mg520 2.141 . S
O532 C523 1.289 . S
Mg533 O540 2.141 . S
Mg533 O541 2.048 . S
Mg533 O542 2.048 . S
Mg533 O545 2.141 . S
C534 O535 1.313 . S
C534 O541 1.195 . S
O535 C534 1.313 . S
C536 O537 1.245 . S
C536 O545 1.289 . S
O537 C536 1.245 . S
C538 O539 1.245 . S
C538 O540 1.289 . S
O539 C538 1.245 . S
O540 Mg533 2.141 . S
O540 C538 1.289 . S
O541 Mg533 2.048 . S
O541 C534 1.195 . S
O542 Mg533 2.048 . S
O542 C543 1.195 . S
C543 O542 1.195 . S
C543 O544 1.313 . S
O544 C543 1.313 . S
O545 Mg533 2.141 . S
O545 C536 1.289 . S
Mg546 O553 2.141 . S
Mg546 O554 2.048 . S
Mg546 O555 2.048 . S
Mg546 O558 2.141 1_545 S
C547 O548 1.313 . S
C547 O554 1.195 . S
O548 C547 1.313 . S
C549 O550 1.245 . S
C549 O558 1.289 . S
O550 C549 1.245 . S
C551 O552 1.245 . S
C551 O553 1.289 1_565 S
O552 C551 1.245 . S
O553 Mg546 2.141 . S
O553 C551 1.289 1_545 S
O554 Mg546 2.048 . S
O554 C547 1.195 . S
O555 Mg546 2.048 . S
O555 C556 1.195 . S
C556 O555 1.195 . S
C556 O557 1.313 . S
O557 C556 1.313 . S
O558 Mg546 2.141 1_565 S
O558 C549 1.289 . S
Mg559 O566 2.141 . S
Mg559 O567 2.048 . S
Mg559 O568 2.048 . S
Mg559 O571 2.141 . S
C560 O561 1.313 . S
C560 O567 1.195 . S
O561 C560 1.313 . S
C562 O563 1.245 . S
C562 O571 1.289 . S
O563 C562 1.245 . S
C564 O565 1.245 . S
C564 O566 1.289 . S
O565 C564 1.245 . S
O566 Mg559 2.141 . S
O566 C564 1.289 . S
O567 Mg559 2.048 . S
O567 C560 1.195 . S
O568 Mg559 2.048 . S
O568 C569 1.195 . S
C569 O568 1.195 . S
C569 O570 1.313 . S
O570 C569 1.313 . S
O571 Mg559 2.141 . S
O571 C562 1.289 . S
Mg572 O579 2.141 . S
Mg572 O580 2.048 . S
Mg572 O581 2.048 . S
Mg572 O584 2.141 . S
C573 O574 1.313 . S
C573 O580 1.195 . S
O574 C573 1.313 . S
C575 O576 1.245 . S
C575 O584 1.289 . S
O576 C575 1.245 . S
C577 O578 1.245 . S
C577 O579 1.289 . S
O578 C577 1.245 . S
O579 Mg572 2.141 . S
O579 C577 1.289 . S
O580 Mg572 2.048 . S
O580 C573 1.195 . S
O581 Mg572 2.048 . S
O581 C582 1.195 . S
C582 O581 1.195 . S
C582 O583 1.313 . S
O583 C582 1.313 . S
O584 Mg572 2.141 . S
O584 C575 1.289 . S
Mg585 O592 2.141 . S
Mg585 O593 2.048 . S
Mg585 O594 2.048 . S
Mg585 O597 2.141 . S
C586 O587 1.313 . S
C586 O593 1.195 . S
O587 C586 1.313 . S
C588 O589 1.245 . S
C588 O597 1.289 . S
O589 C588 1.245 . S
C590 O591 1.245 . S
C590 O592 1.289 . S
O591 C590 1.245 . S
O592 Mg585 2.141 . S
O592 C590 1.289 . S
O593 Mg585 2.048 . S
O593 C586 1.195 . S
O594 Mg585 2.048 . S
O594 C595 1.195 . S
C595 O594 1.195 . S
C595 O596 1.313 . S
O596 C595 1.313 . S
O597 Mg585 2.141 . S
O597 C588 1.289 . S
Mg598 O605 2.141 . S
Mg598 O606 2.048 . S
Mg598 O607 2.048 . S
Mg598 O610 2.141 1_565 S
C599 O600 1.313 . S
C599 O606 1.195 . S
O600 C599 1.313 . S
C601 O602 1.245 . S
C601 O610 1.289 . S
O602 C601 1.245 . S
C603 O604 1.245 . S
C603 O605 1.289 1_545 S
O604 C603 1.245 . S
O605 Mg598 2.141 . S
O605 C603 1.289 1_565 S
O606 Mg598 2.048 . S
O606 C599 1.195 . S
O607 Mg598 2.048 . S
O607 C608 1.195 . S
C608 O607 1.195 . S
C608 O609 1.313 . S
O609 C608 1.313 . S
O610 Mg598 2.141 1_545 S
O610 C601 1.289 . S
Mg611 O618 2.141 . S
Mg611 O619 2.048 . S
Mg611 O620 2.048 . S
Mg611 O623 2.141 1_545 S
C612 O613 1.313 . S
C612 O619 1.195 . S
O613 C612 1.313 . S
C614 O615 1.245 . S
C614 O623 1.289 . S
O615 C614 1.245 . S
C616 O617 1.245 . S
C616 O618 1.289 1_565 S
O617 C616 1.245 . S
O618 Mg611 2.141 . S
O618 C616 1.289 1_545 S
O619 Mg611 2.048 . S
O619 C612 1.195 . S
O620 Mg611 2.048 . S
O620 C621 1.195 . S
C621 O620 1.195 . S
C621 O622 1.313 . S
O622 C621 1.313 . S
O623 Mg611 2.141 1_565 S
O623 C614 1.289 . S
H624 C632 0.950 . S
H625 C637 0.950 . S
H626 C634 0.950 . S
H627 C636 0.950 . S
H628 C638 0.950 . S
H629 C640 0.950 . S
H630 C642 0.950 . S
H631 C643 0.950 . S
C632 H624 0.950 . S
C632 C633 1.386 . S
C632 C634 1.391 . S
C633 C632 1.386 . S
C633 C637 1.393 . S
C634 H626 0.950 . S
C634 C632 1.391 . S
C634 C635 1.400 . S
C635 C634 1.400 . S
C635 C636 1.398 . S
C635 C641 1.491 . S
C636 H627 0.950 . S
C636 C635 1.398 . S
C636 C637 1.391 . S
C637 H625 0.950 . S
C637 C633 1.393 . S
C637 C636 1.391 . S
C638 H628 0.950 . S
C638 C639 1.386 . S
C638 C640 1.391 . S
C639 C638 1.386 . S
C639 C643 1.393 . S
C640 H629 0.950 . S
C640 C638 1.391 . S
C640 C641 1.400 . S
C641 C635 1.491 . S
C641 C640 1.400 . S
C641 C642 1.398 . S
C642 H630 0.950 . S
C642 C641 1.398 . S
C642 C643 1.391 . S
C643 H631 0.950 . S
C643 C639 1.393 . S
C643 C642 1.391 . S
H644 C652 0.950 . S
H645 C657 0.950 . S
H646 C654 0.950 . S
H647 C656 0.950 . S
H648 C658 0.950 . S
H649 C660 0.950 . S
H650 C662 0.950 . S
H651 C663 0.950 . S
C652 H644 0.950 . S
C652 C653 1.386 . S
C652 C654 1.391 . S
C653 C652 1.386 . S
C653 C657 1.393 . S
C654 H646 0.950 . S
C654 C652 1.391 . S
C654 C655 1.400 . S
C655 C654 1.400 . S
C655 C656 1.398 . S
C655 C661 1.491 . S
C656 H647 0.950 . S
C656 C655 1.398 . S
C656 C657 1.391 . S
C657 H645 0.950 . S
C657 C653 1.393 . S
C657 C656 1.391 . S
C658 H648 0.950 . S
C658 C659 1.386 . S
C658 C660 1.391 . S
C659 C658 1.386 . S
C659 C663 1.393 . S
C660 H649 0.950 . S
C660 C658 1.391 . S
C660 C661 1.400 . S
C661 C655 1.491 . S
C661 C660 1.400 . S
C661 C662 1.398 . S
C662 H650 0.950 . S
C662 C661 1.398 . S
C662 C663 1.391 . S
C663 H651 0.950 . S
C663 C659 1.393 . S
C663 C662 1.391 . S
H664 C672 0.950 . S
H665 C677 0.950 . S
H666 C674 0.950 . S
H667 C676 0.950 . S
H668 C678 0.950 . S
H669 C680 0.950 . S
H670 C682 0.950 . S
H671 C683 0.950 . S
C672 H664 0.950 . S
C672 C673 1.386 . S
C672 C674 1.391 . S
C673 C672 1.386 . S
C673 C677 1.393 . S
C674 H666 0.950 . S
C674 C672 1.391 . S
C674 C675 1.400 . S
C675 C674 1.400 . S
C675 C676 1.398 . S
C675 C681 1.491 . S
C676 H667 0.950 . S
C676 C675 1.398 . S
C676 C677 1.391 . S
C677 H665 0.950 . S
C677 C673 1.393 . S
C677 C676 1.391 . S
C678 H668 0.950 . S
C678 C679 1.386 . S
C678 C680 1.391 . S
C679 C678 1.386 . S
C679 C683 1.393 . S
C680 H669 0.950 . S
C680 C678 1.391 . S
C680 C681 1.400 . S
C681 C675 1.491 . S
C681 C680 1.400 . S
C681 C682 1.398 . S
C682 H670 0.950 . S
C682 C681 1.398 . S
C682 C683 1.391 . S
C683 H671 0.950 . S
C683 C679 1.393 . S
C683 C682 1.391 . S
H684 C692 0.950 . S
H685 C697 0.950 . S
H686 C694 0.950 . S
H687 C696 0.950 . S
H688 C698 0.950 . S
H689 C700 0.950 . S
H690 C702 0.950 . S
H691 C703 0.950 . S
C692 H684 0.950 . S
C692 C693 1.386 . S
C692 C694 1.391 . S
C693 C692 1.386 . S
C693 C697 1.393 . S
C694 H686 0.950 . S
C694 C692 1.391 . S
C694 C695 1.400 . S
C695 C694 1.400 . S
C695 C696 1.398 . S
C695 C701 1.491 . S
C696 H687 0.950 . S
C696 C695 1.398 . S
C696 C697 1.391 . S
C697 H685 0.950 . S
C697 C693 1.393 . S
C697 C696 1.391 . S
C698 H688 0.950 . S
C698 C699 1.386 . S
C698 C700 1.391 . S
C699 C698 1.386 . S
C699 C703 1.393 . S
C700 H689 0.950 . S
C700 C698 1.391 . S
C700 C701 1.400 . S
C701 C695 1.491 . S
C701 C700 1.400 . S
C701 C702 1.398 . S
C702 H690 0.950 . S
C702 C701 1.398 . S
C702 C703 1.391 . S
C703 H691 0.950 . S
C703 C699 1.393 . S
C703 C702 1.391 . S
H704 C712 0.950 . S
H705 C717 0.950 . S
H706 C714 0.950 . S
H707 C716 0.950 . S
H708 C718 0.950 . S
H709 C720 0.950 . S
H710 C722 0.950 . S
H711 C723 0.950 . S
C712 H704 0.950 . S
C712 C713 1.386 . S
C712 C714 1.391 . S
C713 C712 1.386 . S
C713 C717 1.393 . S
C714 H706 0.950 . S
C714 C712 1.391 . S
C714 C715 1.400 . S
C715 C714 1.400 . S
C715 C716 1.398 . S
C715 C721 1.491 . S
C716 H707 0.950 . S
C716 C715 1.398 . S
C716 C717 1.391 . S
C717 H705 0.950 . S
C717 C713 1.393 . S
C717 C716 1.391 . S
C718 H708 0.950 . S
C718 C719 1.386 . S
C718 C720 1.391 . S
C719 C718 1.386 . S
C719 C723 1.393 . S
C720 H709 0.950 . S
C720 C718 1.391 . S
C720 C721 1.400 . S
C721 C715 1.491 . S
C721 C720 1.400 . S
C721 C722 1.398 . S
C722 H710 0.950 . S
C722 C721 1.398 . S
C722 C723 1.391 . S
C723 H711 0.950 . S
C723 C719 1.393 . S
C723 C722 1.391 . S
H724 C732 0.950 . S
H725 C737 0.950 . S
H726 C734 0.950 . S
H727 C736 0.950 . S
H728 C738 0.950 . S
H729 C740 0.950 . S
H730 C742 0.950 . S
H731 C743 0.950 . S
C732 H724 0.950 . S
C732 C733 1.386 . S
C732 C734 1.391 . S
C733 C732 1.386 . S
C733 C737 1.393 . S
C734 H726 0.950 . S
C734 C732 1.391 . S
C734 C735 1.400 . S
C735 C734 1.400 . S
C735 C736 1.398 . S
C735 C741 1.491 . S
C736 H727 0.950 . S
C736 C735 1.398 . S
C736 C737 1.391 . S
C737 H725 0.950 . S
C737 C733 1.393 . S
C737 C736 1.391 . S
C738 H728 0.950 . S
C738 C739 1.386 . S
C738 C740 1.391 . S
C739 C738 1.386 . S
C739 C743 1.393 . S
C740 H729 0.950 . S
C740 C738 1.391 . S
C740 C741 1.400 . S
C741 C735 1.491 . S
C741 C740 1.400 . S
C741 C742 1.398 . S
C742 H730 0.950 . S
C742 C741 1.398 . S
C742 C743 1.391 . S
C743 H731 0.950 . S
C743 C739 1.393 . S
C743 C742 1.391 . S
H744 C752 0.950 . S
H745 C757 0.950 . S
H746 C754 0.950 . S
H747 C756 0.950 . S
H748 C758 0.950 . S
H749 C760 0.950 . S
H750 C762 0.950 . S
H751 C763 0.950 . S
C752 H744 0.950 . S
C752 C753 1.386 . S
C752 C754 1.391 . S
C753 C752 1.386 . S
C753 C757 1.393 . S
C754 H746 0.950 . S
C754 C752 1.391 . S
C754 C755 1.400 . S
C755 C754 1.400 . S
C755 C756 1.398 . S
C755 C761 1.491 . S
C756 H747 0.950 . S
C756 C755 1.398 . S
C756 C757 1.391 . S
C757 H745 0.950 . S
C757 C753 1.393 . S
C757 C756 1.391 . S
C758 H748 0.950 . S
C758 C759 1.386 . S
C758 C760 1.391 . S
C759 C758 1.386 . S
C759 C763 1.393 . S
C760 H749 0.950 . S
C760 C758 1.391 . S
C760 C761 1.400 . S
C761 C755 1.491 . S
C761 C760 1.400 . S
C761 C762 1.398 . S
C762 H750 0.950 . S
C762 C761 1.398 . S
C762 C763 1.391 . S
C763 H751 0.950 . S
C763 C759 1.393 . S
C763 C762 1.391 . S
H764 C772 0.950 . S
H765 C777 0.950 . S
H766 C774 0.950 . S
H767 C776 0.950 . S
H768 C778 0.950 . S
H769 C780 0.950 . S
H770 C782 0.950 . S
H771 C783 0.950 . S
C772 H764 0.950 . S
C772 C773 1.386 . S
C772 C774 1.391 . S
C773 C772 1.386 . S
C773 C777 1.393 . S
C774 H766 0.950 . S
C774 C772 1.391 . S
C774 C775 1.400 . S
C775 C774 1.400 . S
C775 C776 1.398 . S
C775 C781 1.491 . S
C776 H767 0.950 . S
C776 C775 1.398 . S
C776 C777 1.391 . S
C777 H765 0.950 . S
C777 C773 1.393 . S
C777 C776 1.391 . S
C778 H768 0.950 . S
C778 C779 1.386 . S
C778 C780 1.391 . S
C779 C778 1.386 . S
C779 C783 1.393 . S
C780 H769 0.950 . S
C780 C778 1.391 . S
C780 C781 1.400 . S
C781 C775 1.491 . S
C781 C780 1.400 . S
C781 C782 1.398 . S
C782 H770 0.950 . S
C782 C781 1.398 . S
C782 C783 1.391 . S
C783 H771 0.950 . S
C783 C779 1.393 . S
C783 C782 1.391 . S
H784 C792 0.950 . S
H785 C797 0.950 . S
H786 C794 0.950 . S
H787 C796 0.950 . S
H788 C798 0.950 . S
H789 C800 0.950 . S
H790 C802 0.950 . S
H791 C803 0.950 . S
C792 H784 0.950 . S
C792 C793 1.386 . S
C792 C794 1.391 . S
C793 C792 1.386 . S
C793 C797 1.393 . S
C794 H786 0.950 . S
C794 C792 1.391 . S
C794 C795 1.400 . S
C795 C794 1.400 . S
C795 C796 1.398 . S
C795 C801 1.491 . S
C796 H787 0.950 . S
C796 C795 1.398 . S
C796 C797 1.391 . S
C797 H785 0.950 . S
C797 C793 1.393 . S
C797 C796 1.391 . S
C798 H788 0.950 . S
C798 C799 1.386 . S
C798 C800 1.391 . S
C799 C798 1.386 . S
C799 C803 1.393 . S
C800 H789 0.950 . S
C800 C798 1.391 . S
C800 C801 1.400 . S
C801 C795 1.491 . S
C801 C800 1.400 . S
C801 C802 1.398 . S
C802 H790 0.950 . S
C802 C801 1.398 . S
C802 C803 1.391 . S
C803 H791 0.950 . S
C803 C799 1.393 . S
C803 C802 1.391 . S
H804 C812 0.950 . S
H805 C817 0.950 . S
H806 C814 0.950 . S
H807 C816 0.950 . S
H808 C818 0.950 . S
H809 C820 0.950 . S
H810 C822 0.950 . S
H811 C823 0.950 . S
C812 H804 0.950 . S
C812 C813 1.386 . S
C812 C814 1.391 . S
C813 C812 1.386 . S
C813 C817 1.393 . S
C814 H806 0.950 . S
C814 C812 1.391 . S
C814 C815 1.400 . S
C815 C814 1.400 . S
C815 C816 1.398 . S
C815 C821 1.491 . S
C816 H807 0.950 . S
C816 C815 1.398 . S
C816 C817 1.391 . S
C817 H805 0.950 . S
C817 C813 1.393 . S
C817 C816 1.391 . S
C818 H808 0.950 . S
C818 C819 1.386 . S
C818 C820 1.391 . S
C819 C818 1.386 . S
C819 C823 1.393 . S
C820 H809 0.950 . S
C820 C818 1.391 . S
C820 C821 1.400 . S
C821 C815 1.491 . S
C821 C820 1.400 . S
C821 C822 1.398 . S
C822 H810 0.950 . S
C822 C821 1.398 . S
C822 C823 1.391 . S
C823 H811 0.950 . S
C823 C819 1.393 . S
C823 C822 1.391 . S
H824 C832 0.950 . S
H825 C837 0.950 . S
H826 C834 0.950 . S
H827 C836 0.950 . S
H828 C838 0.950 . S
H829 C840 0.950 . S
H830 C842 0.950 . S
H831 C843 0.950 . S
C832 H824 0.950 . S
C832 C833 1.386 . S
C832 C834 1.391 . S
C833 C832 1.386 . S
C833 C837 1.393 . S
C834 H826 0.950 . S
C834 C832 1.391 . S
C834 C835 1.400 . S
C835 C834 1.400 . S
C835 C836 1.398 . S
C835 C841 1.491 . S
C836 H827 0.950 . S
C836 C835 1.398 . S
C836 C837 1.391 . S
C837 H825 0.950 . S
C837 C833 1.393 . S
C837 C836 1.391 . S
C838 H828 0.950 . S
C838 C839 1.386 . S
C838 C840 1.391 . S
C839 C838 1.386 . S
C839 C843 1.393 . S
C840 H829 0.950 . S
C840 C838 1.391 . S
C840 C841 1.400 . S
C841 C835 1.491 . S
C841 C840 1.400 . S
C841 C842 1.398 . S
C842 H830 0.950 . S
C842 C841 1.398 . S
C842 C843 1.391 . S
C843 H831 0.950 . S
C843 C839 1.393 . S
C843 C842 1.391 . S
H844 C852 0.950 . S
H845 C857 0.950 . S
H846 C854 0.950 . S
H847 C856 0.950 . S
H848 C858 0.950 . S
H849 C860 0.950 . S
H850 C862 0.950 . S
H851 C863 0.950 . S
C852 H844 0.950 . S
C852 C853 1.386 . S
C852 C854 1.391 . S
C853 C852 1.386 . S
C853 C857 1.393 . S
C854 H846 0.950 . S
C854 C852 1.391 . S
C854 C855 1.400 . S
C855 C854 1.400 . S
C855 C856 1.398 . S
C855 C861 1.491 . S
C856 H847 0.950 . S
C856 C855 1.398 . S
C856 C857 1.391 . S
C857 H845 0.950 . S
C857 C853 1.393 . S
C857 C856 1.391 . S
C858 H848 0.950 . S
C858 C859 1.386 . S
C858 C860 1.391 . S
C859 C858 1.386 . S
C859 C863 1.393 . S
C860 H849 0.950 . S
C860 C858 1.391 . S
C860 C861 1.400 . S
C861 C855 1.491 . S
C861 C860 1.400 . S
C861 C862 1.398 . S
C862 H850 0.950 . S
C862 C861 1.398 . S
C862 C863 1.391 . S
C863 H851 0.950 . S
C863 C859 1.393 . S
C863 C862 1.391 . S
H864 C872 0.950 . S
H865 C877 0.950 . S
H866 C874 0.950 . S
H867 C876 0.950 . S
H868 C878 0.950 . S
H869 C880 0.950 . S
H870 C882 0.950 . S
H871 C883 0.950 . S
C872 H864 0.950 . S
C872 C873 1.386 . S
C872 C874 1.391 . S
C873 C872 1.386 . S
C873 C877 1.393 . S
C874 H866 0.950 . S
C874 C872 1.391 . S
C874 C875 1.400 . S
C875 C874 1.400 . S
C875 C876 1.398 . S
C875 C881 1.491 . S
C876 H867 0.950 . S
C876 C875 1.398 . S
C876 C877 1.391 . S
C877 H865 0.950 . S
C877 C873 1.393 . S
C877 C876 1.391 . S
C878 H868 0.950 . S
C878 C879 1.386 . S
C878 C880 1.391 . S
C879 C878 1.386 . S
C879 C883 1.393 . S
C880 H869 0.950 . S
C880 C878 1.391 . S
C880 C881 1.400 . S
C881 C875 1.491 . S
C881 C880 1.400 . S
C881 C882 1.398 . S
C882 H870 0.950 . S
C882 C881 1.398 . S
C882 C883 1.391 . S
C883 H871 0.950 . S
C883 C879 1.393 . S
C883 C882 1.391 . S
H884 C892 0.950 . S
H885 C897 0.950 . S
H886 C894 0.950 . S
H887 C896 0.950 . S
H888 C898 0.950 . S
H889 C900 0.950 . S
H890 C902 0.950 . S
H891 C903 0.950 . S
C892 H884 0.950 . S
C892 C893 1.386 . S
C892 C894 1.391 . S
C893 C892 1.386 . S
C893 C897 1.393 . S
C894 H886 0.950 . S
C894 C892 1.391 . S
C894 C895 1.400 . S
C895 C894 1.400 . S
C895 C896 1.398 . S
C895 C901 1.491 . S
C896 H887 0.950 . S
C896 C895 1.398 . S
C896 C897 1.391 . S
C897 H885 0.950 . S
C897 C893 1.393 . S
C897 C896 1.391 . S
C898 H888 0.950 . S
C898 C899 1.386 . S
C898 C900 1.391 . S
C899 C898 1.386 . S
C899 C903 1.393 . S
C900 H889 0.950 . S
C900 C898 1.391 . S
C900 C901 1.400 . S
C901 C895 1.491 . S
C901 C900 1.400 . S
C901 C902 1.398 . S
C902 H890 0.950 . S
C902 C901 1.398 . S
C902 C903 1.391 . S
C903 H891 0.950 . S
C903 C899 1.393 . S
C903 C902 1.391 . S
H904 C912 0.950 . S
H905 C917 0.950 . S
H906 C914 0.950 . S
H907 C916 0.950 . S
H908 C918 0.950 . S
H909 C920 0.950 . S
H910 C922 0.950 . S
H911 C923 0.950 . S
C912 H904 0.950 . S
C912 C913 1.386 . S
C912 C914 1.391 . S
C913 C912 1.386 . S
C913 C917 1.393 . S
C914 H906 0.950 . S
C914 C912 1.391 . S
C914 C915 1.400 . S
C915 C914 1.400 . S
C915 C916 1.398 . S
C915 C921 1.491 . S
C916 H907 0.950 . S
C916 C915 1.398 . S
C916 C917 1.391 . S
C917 H905 0.950 . S
C917 C913 1.393 . S
C917 C916 1.391 . S
C918 H908 0.950 . S
C918 C919 1.386 . S
C918 C920 1.391 . S
C919 C918 1.386 . S
C919 C923 1.393 . S
C920 H909 0.950 . S
C920 C918 1.391 . S
C920 C921 1.400 . S
C921 C915 1.491 . S
C921 C920 1.400 . S
C921 C922 1.398 . S
C922 H910 0.950 . S
C922 C921 1.398 . S
C922 C923 1.391 . S
C923 H911 0.950 . S
C923 C919 1.393 . S
C923 C922 1.391 . S
H924 C932 0.950 . S
H925 C937 0.950 . S
H926 C934 0.950 . S
H927 C936 0.950 . S
H928 C938 0.950 . S
H929 C940 0.950 . S
H930 C942 0.950 . S
H931 C943 0.950 . S
C932 H924 0.950 . S
C932 C933 1.386 . S
C932 C934 1.391 . S
C933 C932 1.386 . S
C933 C937 1.393 . S
C934 H926 0.950 . S
C934 C932 1.391 . S
C934 C935 1.400 . S
C935 C934 1.400 . S
C935 C936 1.398 . S
C935 C941 1.491 . S
C936 H927 0.950 . S
C936 C935 1.398 . S
C936 C937 1.391 . S
C937 H925 0.950 . S
C937 C933 1.393 . S
C937 C936 1.391 . S
C938 H928 0.950 . S
C938 C939 1.386 . S
C938 C940 1.391 . S
C939 C938 1.386 . S
C939 C943 1.393 . S
C940 H929 0.950 . S
C940 C938 1.391 . S
C940 C941 1.400 . S
C941 C935 1.491 . S
C941 C940 1.400 . S
C941 C942 1.398 . S
C942 H930 0.950 . S
C942 C941 1.398 . S
C942 C943 1.391 . S
C943 H931 0.950 . S
C943 C939 1.393 . S
C943 C942 1.391 . S
H944 C952 0.950 . S
H945 C957 0.950 . S
H946 C954 0.950 . S
H947 C956 0.950 . S
H948 C958 0.950 . S
H949 C960 0.950 . S
H950 C962 0.950 . S
H951 C963 0.950 . S
C952 H944 0.950 . S
C952 C953 1.386 . S
C952 C954 1.391 . S
C953 C952 1.386 . S
C953 C957 1.393 . S
C954 H946 0.950 . S
C954 C952 1.391 . S
C954 C955 1.400 . S
C955 C954 1.400 . S
C955 C956 1.398 . S
C955 C961 1.491 . S
C956 H947 0.950 . S
C956 C955 1.398 . S
C956 C957 1.391 . S
C957 H945 0.950 . S
C957 C953 1.393 . S
C957 C956 1.391 . S
C958 H948 0.950 . S
C958 C959 1.386 . S
C958 C960 1.391 . S
C959 C958 1.386 . S
C959 C963 1.393 . S
C960 H949 0.950 . S
C960 C958 1.391 . S
C960 C961 1.400 . S
C961 C955 1.491 . S
C961 C960 1.400 . S
C961 C962 1.398 . S
C962 H950 0.950 . S
C962 C961 1.398 . S
C962 C963 1.391 . S
C963 H951 0.950 . S
C963 C959 1.393 . S
C963 C962 1.391 . S
H964 C972 0.950 . S
H965 C977 0.950 . S
H966 C974 0.950 . S
H967 C976 0.950 . S
H968 C978 0.950 . S
H969 C980 0.950 . S
H970 C982 0.950 . S
H971 C983 0.950 . S
C972 H964 0.950 . S
C972 C973 1.386 . S
C972 C974 1.391 . S
C973 C972 1.386 . S
C973 C977 1.393 . S
C974 H966 0.950 . S
C974 C972 1.391 . S
C974 C975 1.400 . S
C975 C974 1.400 . S
C975 C976 1.398 . S
C975 C981 1.491 . S
C976 H967 0.950 . S
C976 C975 1.398 . S
C976 C977 1.391 . S
C977 H965 0.950 . S
C977 C973 1.393 . S
C977 C976 1.391 . S
C978 H968 0.950 . S
C978 C979 1.386 . S
C978 C980 1.391 . S
C979 C978 1.386 . S
C979 C983 1.393 . S
C980 H969 0.950 . S
C980 C978 1.391 . S
C980 C981 1.400 . S
C981 C975 1.491 . S
C981 C980 1.400 . S
C981 C982 1.398 . S
C982 H970 0.950 . S
C982 C981 1.398 . S
C982 C983 1.391 . S
C983 H971 0.950 . S
C983 C979 1.393 . S
C983 C982 1.391 . S
H984 C992 0.950 . S
H985 C997 0.950 . S
H986 C994 0.950 . S
H987 C996 0.950 . S
H988 C998 0.950 . S
H989 C1000 0.950 . S
H990 C1002 0.950 . S
H991 C1003 0.950 . S
C992 H984 0.950 . S
C992 C993 1.386 . S
C992 C994 1.391 . S
C993 C992 1.386 . S
C993 C997 1.393 . S
C994 H986 0.950 . S
C994 C992 1.391 . S
C994 C995 1.400 . S
C995 C994 1.400 . S
C995 C996 1.398 . S
C995 C1001 1.491 . S
C996 H987 0.950 . S
C996 C995 1.398 . S
C996 C997 1.391 . S
C997 H985 0.950 . S
C997 C993 1.393 . S
C997 C996 1.391 . S
C998 H988 0.950 . S
C998 C999 1.386 . S
C998 C1000 1.391 . S
C999 C998 1.386 . S
C999 C1003 1.393 . S
C1000 H989 0.950 . S
C1000 C998 1.391 . S
C1000 C1001 1.400 . S
C1001 C995 1.491 . S
C1001 C1000 1.400 . S
C1001 C1002 1.398 . S
C1002 H990 0.950 . S
C1002 C1001 1.398 . S
C1002 C1003 1.391 . S
C1003 H991 0.950 . S
C1003 C999 1.393 . S
C1003 C1002 1.391 . S
H1004 C1012 0.950 . S
H1005 C1017 0.950 . S
H1006 C1014 0.950 . S
H1007 C1016 0.950 . S
H1008 C1018 0.950 . S
H1009 C1020 0.950 . S
H1010 C1022 0.950 . S
H1011 C1023 0.950 . S
C1012 H1004 0.950 . S
C1012 C1013 1.386 . S
C1012 C1014 1.391 . S
C1013 C1012 1.386 . S
C1013 C1017 1.393 . S
C1014 H1006 0.950 . S
C1014 C1012 1.391 . S
C1014 C1015 1.400 . S
C1015 C1014 1.400 . S
C1015 C1016 1.398 . S
C1015 C1021 1.491 . S
C1016 H1007 0.950 . S
C1016 C1015 1.398 . S
C1016 C1017 1.391 . S
C1017 H1005 0.950 . S
C1017 C1013 1.393 . S
C1017 C1016 1.391 . S
C1018 H1008 0.950 . S
C1018 C1019 1.386 . S
C1018 C1020 1.391 . S
C1019 C1018 1.386 . S
C1019 C1023 1.393 . S
C1020 H1009 0.950 . S
C1020 C1018 1.391 . S
C1020 C1021 1.400 . S
C1021 C1015 1.491 . S
C1021 C1020 1.400 . S
C1021 C1022 1.398 . S
C1022 H1010 0.950 . S
C1022 C1021 1.398 . S
C1022 C1023 1.391 . S
C1023 H1011 0.950 . S
C1023 C1019 1.393 . S
C1023 C1022 1.391 . S
H1024 C1032 0.950 . S
H1025 C1037 0.950 . S
H1026 C1034 0.950 . S
H1027 C1036 0.950 . S
H1028 C1038 0.950 . S
H1029 C1040 0.950 . S
H1030 C1042 0.950 . S
H1031 C1043 0.950 . S
C1032 H1024 0.950 . S
C1032 C1033 1.386 . S
C1032 C1034 1.391 . S
C1033 C1032 1.386 . S
C1033 C1037 1.393 . S
C1034 H1026 0.950 . S
C1034 C1032 1.391 . S
C1034 C1035 1.400 . S
C1035 C1034 1.400 . S
C1035 C1036 1.398 . S
C1035 C1041 1.491 . S
C1036 H1027 0.950 . S
C1036 C1035 1.398 . S
C1036 C1037 1.391 . S
C1037 H1025 0.950 . S
C1037 C1033 1.393 . S
C1037 C1036 1.391 . S
C1038 H1028 0.950 . S
C1038 C1039 1.386 . S
C1038 C1040 1.391 . S
C1039 C1038 1.386 . S
C1039 C1043 1.393 . S
C1040 H1029 0.950 . S
C1040 C1038 1.391 . S
C1040 C1041 1.400 . S
C1041 C1035 1.491 . S
C1041 C1040 1.400 . S
C1041 C1042 1.398 . S
C1042 H1030 0.950 . S
C1042 C1041 1.398 . S
C1042 C1043 1.391 . S
C1043 H1031 0.950 . S
C1043 C1039 1.393 . S
C1043 C1042 1.391 . S
H1044 C1052 0.950 . S
H1045 C1057 0.950 . S
H1046 C1054 0.950 . S
H1047 C1056 0.950 . S
H1048 C1058 0.950 . S
H1049 C1060 0.950 . S
H1050 C1062 0.950 . S
H1051 C1063 0.950 . S
C1052 H1044 0.950 . S
C1052 C1053 1.386 . S
C1052 C1054 1.391 . S
C1053 C1052 1.386 . S
C1053 C1057 1.393 . S
C1054 H1046 0.950 . S
C1054 C1052 1.391 . S
C1054 C1055 1.400 . S
C1055 C1054 1.400 . S
C1055 C1056 1.398 . S
C1055 C1061 1.491 . S
C1056 H1047 0.950 . S
C1056 C1055 1.398 . S
C1056 C1057 1.391 . S
C1057 H1045 0.950 . S
C1057 C1053 1.393 . S
C1057 C1056 1.391 . S
C1058 H1048 0.950 . S
C1058 C1059 1.386 . S
C1058 C1060 1.391 . S
C1059 C1058 1.386 . S
C1059 C1063 1.393 . S
C1060 H1049 0.950 . S
C1060 C1058 1.391 . S
C1060 C1061 1.400 . S
C1061 C1055 1.491 . S
C1061 C1060 1.400 . S
C1061 C1062 1.398 . S
C1062 H1050 0.950 . S
C1062 C1061 1.398 . S
C1062 C1063 1.391 . S
C1063 H1051 0.950 . S
C1063 C1059 1.393 . S
C1063 C1062 1.391 . S
H1064 C1072 0.950 . S
H1065 C1077 0.950 . S
H1066 C1074 0.950 . S
H1067 C1076 0.950 . S
H1068 C1078 0.950 . S
H1069 C1080 0.950 . S
H1070 C1082 0.950 . S
H1071 C1083 0.950 . S
C1072 H1064 0.950 . S
C1072 C1073 1.386 . S
C1072 C1074 1.391 . S
C1073 C1072 1.386 . S
C1073 C1077 1.393 . S
C1074 H1066 0.950 . S
C1074 C1072 1.391 . S
C1074 C1075 1.400 . S
C1075 C1074 1.400 . S
C1075 C1076 1.398 . S
C1075 C1081 1.491 . S
C1076 H1067 0.950 . S
C1076 C1075 1.398 . S
C1076 C1077 1.391 . S
C1077 H1065 0.950 . S
C1077 C1073 1.393 . S
C1077 C1076 1.391 . S
C1078 H1068 0.950 . S
C1078 C1079 1.386 . S
C1078 C1080 1.391 . S
C1079 C1078 1.386 . S
C1079 C1083 1.393 . S
C1080 H1069 0.950 . S
C1080 C1078 1.391 . S
C1080 C1081 1.400 . S
C1081 C1075 1.491 . S
C1081 C1080 1.400 . S
C1081 C1082 1.398 . S
C1082 H1070 0.950 . S
C1082 C1081 1.398 . S
C1082 C1083 1.391 . S
C1083 H1071 0.950 . S
C1083 C1079 1.393 . S
C1083 C1082 1.391 . S
H1084 C1092 0.950 . S
H1085 C1097 0.950 . S
H1086 C1094 0.950 . S
H1087 C1096 0.950 . S
H1088 C1098 0.950 . S
H1089 C1100 0.950 . S
H1090 C1102 0.950 . S
H1091 C1103 0.950 . S
C1092 H1084 0.950 . S
C1092 C1093 1.386 . S
C1092 C1094 1.391 . S
C1093 C1092 1.386 . S
C1093 C1097 1.393 . S
C1094 H1086 0.950 . S
C1094 C1092 1.391 . S
C1094 C1095 1.400 . S
C1095 C1094 1.400 . S
C1095 C1096 1.398 . S
C1095 C1101 1.491 . S
C1096 H1087 0.950 . S
C1096 C1095 1.398 . S
C1096 C1097 1.391 . S
C1097 H1085 0.950 . S
C1097 C1093 1.393 . S
C1097 C1096 1.391 . S
C1098 H1088 0.950 . S
C1098 C1099 1.386 . S
C1098 C1100 1.391 . S
C1099 C1098 1.386 . S
C1099 C1103 1.393 . S
C1100 H1089 0.950 . S
C1100 C1098 1.391 . S
C1100 C1101 1.400 . S
C1101 C1095 1.491 . S
C1101 C1100 1.400 . S
C1101 C1102 1.398 . S
C1102 H1090 0.950 . S
C1102 C1101 1.398 . S
C1102 C1103 1.391 . S
C1103 H1091 0.950 . S
C1103 C1099 1.393 . S
C1103 C1102 1.391 . S
H1104 C1112 0.950 . S
H1105 C1117 0.950 . S
H1106 C1114 0.950 . S
H1107 C1116 0.950 . S
H1108 C1118 0.950 . S
H1109 C1120 0.950 . S
H1110 C1122 0.950 . S
H1111 C1123 0.950 . S
C1112 H1104 0.950 . S
C1112 C1113 1.386 . S
C1112 C1114 1.391 . S
C1113 C1112 1.386 . S
C1113 C1117 1.393 . S
C1114 H1106 0.950 . S
C1114 C1112 1.391 . S
C1114 C1115 1.400 . S
C1115 C1114 1.400 . S
C1115 C1116 1.398 . S
C1115 C1121 1.491 . S
C1116 H1107 0.950 . S
C1116 C1115 1.398 . S
C1116 C1117 1.391 . S
C1117 H1105 0.950 . S
C1117 C1113 1.393 . S
C1117 C1116 1.391 . S
C1118 H1108 0.950 . S
C1118 C1119 1.386 . S
C1118 C1120 1.391 . S
C1119 C1118 1.386 . S
C1119 C1123 1.393 . S
C1120 H1109 0.950 . S
C1120 C1118 1.391 . S
C1120 C1121 1.400 . S
C1121 C1115 1.491 . S
C1121 C1120 1.400 . S
C1121 C1122 1.398 . S
C1122 H1110 0.950 . S
C1122 C1121 1.398 . S
C1122 C1123 1.391 . S
C1123 H1111 0.950 . S
C1123 C1119 1.393 . S
C1123 C1122 1.391 . S
H1124 C1132 0.950 . S
H1125 C1137 0.950 . S
H1126 C1134 0.950 . S
H1127 C1136 0.950 . S
H1128 C1138 0.950 . S
H1129 C1140 0.950 . S
H1130 C1142 0.950 . S
H1131 C1143 0.950 . S
C1132 H1124 0.950 . S
C1132 C1133 1.386 . S
C1132 C1134 1.391 . S
C1133 C1132 1.386 . S
C1133 C1137 1.393 . S
C1134 H1126 0.950 . S
C1134 C1132 1.391 . S
C1134 C1135 1.400 . S
C1135 C1134 1.400 . S
C1135 C1136 1.398 . S
C1135 C1141 1.491 . S
C1136 H1127 0.950 . S
C1136 C1135 1.398 . S
C1136 C1137 1.391 . S
C1137 H1125 0.950 . S
C1137 C1133 1.393 . S
C1137 C1136 1.391 . S
C1138 H1128 0.950 . S
C1138 C1139 1.386 . S
C1138 C1140 1.391 . S
C1139 C1138 1.386 . S
C1139 C1143 1.393 . S
C1140 H1129 0.950 . S
C1140 C1138 1.391 . S
C1140 C1141 1.400 . S
C1141 C1135 1.491 . S
C1141 C1140 1.400 . S
C1141 C1142 1.398 . S
C1142 H1130 0.950 . S
C1142 C1141 1.398 . S
C1142 C1143 1.391 . S
C1143 H1131 0.950 . S
C1143 C1139 1.393 . S
C1143 C1142 1.391 . S
H1144 C1152 0.950 . S
H1145 C1157 0.950 . S
H1146 C1154 0.950 . S
H1147 C1156 0.950 . S
H1148 C1158 0.950 . S
H1149 C1160 0.950 . S
H1150 C1162 0.950 . S
H1151 C1163 0.950 . S
C1152 H1144 0.950 . S
C1152 C1153 1.386 . S
C1152 C1154 1.391 . S
C1153 C1152 1.386 . S
C1153 C1157 1.393 . S
C1154 H1146 0.950 . S
C1154 C1152 1.391 . S
C1154 C1155 1.400 . S
C1155 C1154 1.400 . S
C1155 C1156 1.398 . S
C1155 C1161 1.491 . S
C1156 H1147 0.950 . S
C1156 C1155 1.398 . S
C1156 C1157 1.391 . S
C1157 H1145 0.950 . S
C1157 C1153 1.393 . S
C1157 C1156 1.391 . S
C1158 H1148 0.950 . S
C1158 C1159 1.386 . S
C1158 C1160 1.391 . S
C1159 C1158 1.386 . S
C1159 C1163 1.393 . S
C1160 H1149 0.950 . S
C1160 C1158 1.391 . S
C1160 C1161 1.400 . S
C1161 C1155 1.491 . S
C1161 C1160 1.400 . S
C1161 C1162 1.398 . S
C1162 H1150 0.950 . S
C1162 C1161 1.398 . S
C1162 C1163 1.391 . S
C1163 H1151 0.950 . S
C1163 C1159 1.393 . S
C1163 C1162 1.391 . S
H1164 C1172 0.950 . S
H1165 C1177 0.950 . S
H1166 C1174 0.950 . S
H1167 C1176 0.968 . S
H1168 C1178 0.950 . S
H1169 C1180 0.950 . S
H1170 C1182 0.950 . S
H1171 C1183 0.950 . S
C1172 H1164 0.950 . S
C1172 C1173 1.386 . S
C1172 C1174 1.391 . S
C1173 C1172 1.386 . S
C1173 C1177 1.393 . S
C1174 H1166 0.950 . S
C1174 C1172 1.391 . S
C1174 C1175 1.400 . S
C1175 C1174 1.400 . S
C1175 C1176 1.398 . S
C1175 C1181 1.491 1_556 S
C1176 H1167 0.968 . S
C1176 C1175 1.398 . S
C1176 C1177 1.391 . S
C1177 H1165 0.950 . S
C1177 C1173 1.393 . S
C1177 C1176 1.391 . S
C1178 H1168 0.950 . S
C1178 C1179 1.386 . S
C1178 C1180 1.391 . S
C1179 C1178 1.386 . S
C1179 C1183 1.393 . S
C1180 H1169 0.950 . S
C1180 C1178 1.391 . S
C1180 C1181 1.400 . S
C1181 C1175 1.491 1_554 S
C1181 C1180 1.400 . S
C1181 C1182 1.398 . S
C1182 H1170 0.950 . S
C1182 C1181 1.398 . S
C1182 C1183 1.391 . S
C1183 H1171 0.950 . S
C1183 C1179 1.393 . S
C1183 C1182 1.391 . S
H1184 C1192 0.950 . S
H1185 C1197 0.950 . S
H1186 C1194 0.950 . S
H1187 C1196 0.950 . S
H1188 C1198 0.950 . S
H1189 C1200 0.950 . S
H1190 C1202 0.950 . S
H1191 C1203 0.950 . S
C1192 H1184 0.950 . S
C1192 C1193 1.386 . S
C1192 C1194 1.391 . S
C1193 C1192 1.386 . S
C1193 C1197 1.393 . S
C1194 H1186 0.950 . S
C1194 C1192 1.391 . S
C1194 C1195 1.400 . S
C1195 C1194 1.400 . S
C1195 C1196 1.398 . S
C1195 C1201 1.491 . S
C1196 H1187 0.950 . S
C1196 C1195 1.398 . S
C1196 C1197 1.391 . S
C1197 H1185 0.950 . S
C1197 C1193 1.393 . S
C1197 C1196 1.391 . S
C1198 H1188 0.950 . S
C1198 C1199 1.386 . S
C1198 C1200 1.391 . S
C1199 C1198 1.386 . S
C1199 C1203 1.393 . S
C1200 H1189 0.950 . S
C1200 C1198 1.391 . S
C1200 C1201 1.400 . S
C1201 C1195 1.491 . S
C1201 C1200 1.400 . S
C1201 C1202 1.398 . S
C1202 H1190 0.950 . S
C1202 C1201 1.398 . S
C1202 C1203 1.391 . S
C1203 H1191 0.950 . S
C1203 C1199 1.393 . S
C1203 C1202 1.391 . S
H1204 C1212 0.950 . S
H1205 C1217 0.950 . S
H1206 C1214 0.950 . S
H1207 C1216 0.950 . S
H1208 C1218 0.950 . S
H1209 C1220 0.950 . S
H1210 C1222 0.950 . S
H1211 C1223 0.950 . S
C1212 H1204 0.950 . S
C1212 C1213 1.386 . S
C1212 C1214 1.391 . S
C1213 C1212 1.386 . S
C1213 C1217 1.393 . S
C1214 H1206 0.950 . S
C1214 C1212 1.391 . S
C1214 C1215 1.400 . S
C1215 C1214 1.400 . S
C1215 C1216 1.398 . S
C1215 C1221 1.491 . S
C1216 H1207 0.950 . S
C1216 C1215 1.398 . S
C1216 C1217 1.391 . S
C1217 H1205 0.950 . S
C1217 C1213 1.393 . S
C1217 C1216 1.391 . S
C1218 H1208 0.950 . S
C1218 C1219 1.386 . S
C1218 C1220 1.391 . S
C1219 C1218 1.386 . S
C1219 C1223 1.393 . S
C1220 H1209 0.950 . S
C1220 C1218 1.391 . S
C1220 C1221 1.400 . S
C1221 C1215 1.491 . S
C1221 C1220 1.400 . S
C1221 C1222 1.398 . S
C1222 H1210 0.950 . S
C1222 C1221 1.398 . S
C1222 C1223 1.391 . S
C1223 H1211 0.950 . S
C1223 C1219 1.393 . S
C1223 C1222 1.391 . S
H1224 C1232 0.950 . S
H1225 C1237 0.950 . S
H1226 C1234 0.950 . S
H1227 C1236 0.950 . S
H1228 C1238 0.950 . S
H1229 C1240 0.950 . S
H1230 C1242 0.950 . S
H1231 C1243 0.950 . S
C1232 H1224 0.950 . S
C1232 C1233 1.386 . S
C1232 C1234 1.391 . S
C1233 C1232 1.386 . S
C1233 C1237 1.393 . S
C1234 H1226 0.950 . S
C1234 C1232 1.391 . S
C1234 C1235 1.400 . S
C1235 C1234 1.400 . S
C1235 C1236 1.398 . S
C1235 C1241 1.491 . S
C1236 H1227 0.950 . S
C1236 C1235 1.398 . S
C1236 C1237 1.391 . S
C1237 H1225 0.950 . S
C1237 C1233 1.393 . S
C1237 C1236 1.391 . S
C1238 H1228 0.950 . S
C1238 C1239 1.386 . S
C1238 C1240 1.391 . S
C1239 C1238 1.386 . S
C1239 C1243 1.393 . S
C1240 H1229 0.950 . S
C1240 C1238 1.391 . S
C1240 C1241 1.400 . S
C1241 C1235 1.491 . S
C1241 C1240 1.400 . S
C1241 C1242 1.398 . S
C1242 H1230 0.950 . S
C1242 C1241 1.398 . S
C1242 C1243 1.391 . S
C1243 H1231 0.950 . S
C1243 C1239 1.393 . S
C1243 C1242 1.391 . S
H1244 C1252 0.950 . S
H1245 C1257 0.950 . S
H1246 C1254 0.950 . S
H1247 C1256 0.950 . S
H1248 C1258 0.950 . S
H1249 C1260 0.950 . S
H1250 C1262 0.950 . S
H1251 C1263 0.950 . S
C1252 H1244 0.950 . S
C1252 C1253 1.386 . S
C1252 C1254 1.391 . S
C1253 C1252 1.386 . S
C1253 C1257 1.393 . S
C1254 H1246 0.950 . S
C1254 C1252 1.391 . S
C1254 C1255 1.400 . S
C1255 C1254 1.400 . S
C1255 C1256 1.398 . S
C1255 C1261 1.491 1_554 S
C1256 H1247 0.950 . S
C1256 C1255 1.398 . S
C1256 C1257 1.391 . S
C1257 H1245 0.950 . S
C1257 C1253 1.393 . S
C1257 C1256 1.391 . S
C1258 H1248 0.950 . S
C1258 C1259 1.386 . S
C1258 C1260 1.391 . S
C1259 C1258 1.386 . S
C1259 C1263 1.393 . S
C1260 H1249 0.950 . S
C1260 C1258 1.391 . S
C1260 C1261 1.400 . S
C1261 C1255 1.491 1_556 S
C1261 C1260 1.400 . S
C1261 C1262 1.398 . S
C1262 H1250 0.950 . S
C1262 C1261 1.398 . S
C1262 C1263 1.391 . S
C1263 H1251 0.950 . S
C1263 C1259 1.393 . S
C1263 C1262 1.391 . S
H1264 C1272 0.950 . S
H1265 C1277 0.950 . S
H1266 C1274 0.950 . S
H1267 C1276 0.950 . S
H1268 C1278 0.950 . S
H1269 C1280 0.950 . S
H1270 C1282 0.950 . S
H1271 C1283 0.950 . S
C1272 H1264 0.950 . S
C1272 C1273 1.386 . S
C1272 C1274 1.391 . S
C1273 C1272 1.386 . S
C1273 C1277 1.393 . S
C1274 H1266 0.950 . S
C1274 C1272 1.391 . S
C1274 C1275 1.400 . S
C1275 C1274 1.400 . S
C1275 C1276 1.398 . S
C1275 C1281 1.491 . S
C1276 H1267 0.950 . S
C1276 C1275 1.398 . S
C1276 C1277 1.391 . S
C1277 H1265 0.950 . S
C1277 C1273 1.393 . S
C1277 C1276 1.391 . S
C1278 H1268 0.950 . S
C1278 C1279 1.386 . S
C1278 C1280 1.391 . S
C1279 C1278 1.386 . S
C1279 C1283 1.393 . S
C1280 H1269 0.950 . S
C1280 C1278 1.391 . S
C1280 C1281 1.400 . S
C1281 C1275 1.491 . S
C1281 C1280 1.400 . S
C1281 C1282 1.398 . S
C1282 H1270 0.950 . S
C1282 C1281 1.398 . S
C1282 C1283 1.391 . S
C1283 H1271 0.950 . S
C1283 C1279 1.393 . S
C1283 C1282 1.391 . S
H1284 C1292 0.950 1_655 S
H1285 C1297 0.950 . S
H1286 C1294 0.950 . S
H1287 C1296 0.950 . S
H1288 C1298 0.950 . S
H1289 C1300 0.950 . S
H1290 C1302 0.950 . S
H1291 C1303 0.950 . S
C1292 H1284 0.950 1_455 S
C1292 C1293 1.386 . S
C1292 C1294 1.391 . S
C1293 C1292 1.386 . S
C1293 C1297 1.393 . S
C1294 H1286 0.950 . S
C1294 C1292 1.391 . S
C1294 C1295 1.400 . S
C1295 C1294 1.400 . S
C1295 C1296 1.398 . S
C1295 C1301 1.491 1_565 S
C1296 H1287 0.950 . S
C1296 C1295 1.398 . S
C1296 C1297 1.391 . S
C1297 H1285 0.950 . S
C1297 C1293 1.393 . S
C1297 C1296 1.391 . S
C1298 H1288 0.950 . S
C1298 C1299 1.386 . S
C1298 C1300 1.391 . S
C1299 C1298 1.386 . S
C1299 C1303 1.393 . S
C1300 H1289 0.950 . S
C1300 C1298 1.391 . S
C1300 C1301 1.400 . S
C1301 C1295 1.491 1_545 S
C1301 C1300 1.400 . S
C1301 C1302 1.398 . S
C1302 H1290 0.950 . S
C1302 C1301 1.398 . S
C1302 C1303 1.391 . S
C1303 H1291 0.950 . S
C1303 C1299 1.393 . S
C1303 C1302 1.391 . S
H1304 C1312 0.950 . S
H1305 C1317 0.950 . S
H1306 C1314 0.950 . S
H1307 C1316 0.950 . S
H1308 C1318 0.950 . S
H1309 C1320 0.950 . S
H1310 C1322 0.950 . S
H1311 C1323 0.950 . S
C1312 H1304 0.950 . S
C1312 C1313 1.386 . S
C1312 C1314 1.391 . S
C1313 C1312 1.386 . S
C1313 C1317 1.393 . S
C1314 H1306 0.950 . S
C1314 C1312 1.391 . S
C1314 C1315 1.400 . S
C1315 C1314 1.400 . S
C1315 C1316 1.398 . S
C1315 C1321 1.491 . S
C1316 H1307 0.950 . S
C1316 C1315 1.398 . S
C1316 C1317 1.391 . S
C1317 H1305 0.950 . S
C1317 C1313 1.393 . S
C1317 C1316 1.391 . S
C1318 H1308 0.950 . S
C1318 C1319 1.386 . S
C1318 C1320 1.391 . S
C1319 C1318 1.386 . S
C1319 C1323 1.393 . S
C1320 H1309 0.950 . S
C1320 C1318 1.391 . S
C1320 C1321 1.400 . S
C1321 C1315 1.491 . S
C1321 C1320 1.400 . S
C1321 C1322 1.398 . S
C1322 H1310 0.950 . S
C1322 C1321 1.398 . S
C1322 C1323 1.391 . S
C1323 H1311 0.950 . S
C1323 C1319 1.393 . S
C1323 C1322 1.391 . S
H1324 C1332 0.950 . S
H1325 C1337 0.950 . S
H1326 C1334 0.950 . S
H1327 C1336 0.914 1_565 S
H1328 C1338 0.950 . S
H1329 C1340 0.950 . S
H1330 C1342 0.950 . S
H1331 C1343 0.950 . S
C1332 H1324 0.950 . S
C1332 C1333 1.386 . S
C1332 C1334 1.391 . S
C1333 C1332 1.386 . S
C1333 C1337 1.393 . S
C1334 H1326 0.950 . S
C1334 C1332 1.391 . S
C1334 C1335 1.400 . S
C1335 C1334 1.400 . S
C1335 C1336 1.398 . S
C1335 C1341 1.491 1_545 S
C1336 H1327 0.914 1_545 S
C1336 C1335 1.398 . S
C1336 C1337 1.391 . S
C1337 H1325 0.950 . S
C1337 C1333 1.393 . S
C1337 C1336 1.391 . S
C1338 H1328 0.950 . S
C1338 C1339 1.386 . S
C1338 C1340 1.391 . S
C1339 C1338 1.386 . S
C1339 C1343 1.393 . S
C1340 H1329 0.950 . S
C1340 C1338 1.391 . S
C1340 C1341 1.400 . S
C1341 C1335 1.491 1_565 S
C1341 C1340 1.400 . S
C1341 C1342 1.398 . S
C1342 H1330 0.950 . S
C1342 C1341 1.398 . S
C1342 C1343 1.391 . S
C1343 H1331 0.950 . S
C1343 C1339 1.393 . S
C1343 C1342 1.391 . S
H1344 C1352 0.950 . S
H1345 C1357 0.950 . S
H1346 C1354 0.950 . S
H1347 C1356 0.950 . S
H1348 C1358 0.950 . S
H1349 C1360 0.950 . S
H1350 C1362 0.950 . S
H1351 C1363 0.950 . S
C1352 H1344 0.950 . S
C1352 C1353 1.386 . S
C1352 C1354 1.391 . S
C1353 C1352 1.386 . S
C1353 C1357 1.393 . S
C1354 H1346 0.950 . S
C1354 C1352 1.391 . S
C1354 C1355 1.400 . S
C1355 C1354 1.400 . S
C1355 C1356 1.398 . S
C1355 C1361 1.491 . S
C1356 H1347 0.950 . S
C1356 C1355 1.398 . S
C1356 C1357 1.391 . S
C1357 H1345 0.950 . S
C1357 C1353 1.393 . S
C1357 C1356 1.391 . S
C1358 H1348 0.950 . S
C1358 C1359 1.386 . S
C1358 C1360 1.391 . S
C1359 C1358 1.386 . S
C1359 C1363 1.393 . S
C1360 H1349 0.950 . S
C1360 C1358 1.391 . S
C1360 C1361 1.400 . S
C1361 C1355 1.491 . S
C1361 C1360 1.400 . S
C1361 C1362 1.398 . S
C1362 H1350 0.950 . S
C1362 C1361 1.398 . S
C1362 C1363 1.391 . S
C1363 H1351 0.950 . S
C1363 C1359 1.393 . S
C1363 C1362 1.391 . S
H1364 C1372 0.950 . S
H1365 C1377 0.950 . S
H1366 C1374 0.950 . S
H1367 C1376 0.950 . S
H1368 C1378 0.950 . S
H1369 C1380 0.950 . S
H1370 C1382 0.950 . S
H1371 C1383 0.950 . S
C1372 H1364 0.950 . S
C1372 C1373 1.386 . S
C1372 C1374 1.391 . S
C1373 C1372 1.386 . S
C1373 C1377 1.393 . S
C1374 H1366 0.950 . S
C1374 C1372 1.391 . S
C1374 C1375 1.400 . S
C1375 C1374 1.400 . S
C1375 C1376 1.398 . S
C1375 C1381 1.491 1_565 S
C1376 H1367 0.950 . S
C1376 C1375 1.398 . S
C1376 C1377 1.391 . S
C1377 H1365 0.950 . S
C1377 C1373 1.393 . S
C1377 C1376 1.391 . S
C1378 H1368 0.950 . S
C1378 C1379 1.386 . S
C1378 C1380 1.391 . S
C1379 C1378 1.386 . S
C1379 C1383 1.393 . S
C1380 H1369 0.950 . S
C1380 C1378 1.391 . S
C1380 C1381 1.400 . S
C1381 C1375 1.491 1_545 S
C1381 C1380 1.400 . S
C1381 C1382 1.398 . S
C1382 H1370 0.950 . S
C1382 C1381 1.398 . S
C1382 C1383 1.391 . S
C1383 H1371 0.950 . S
C1383 C1379 1.393 . S
C1383 C1382 1.391 . S
H1384 C1392 0.950 . S
H1385 C1397 0.950 . S
H1386 C1394 0.950 . S
H1387 C1396 0.950 . S
H1388 C1398 0.950 . S
H1389 C1400 0.950 . S
H1390 C1402 0.950 . S
H1391 C1403 0.950 . S
C1392 H1384 0.950 . S
C1392 C1393 1.386 . S
C1392 C1394 1.391 . S
C1393 C1392 1.386 . S
C1393 C1397 1.393 . S
C1394 H1386 0.950 . S
C1394 C1392 1.391 . S
C1394 C1395 1.400 . S
C1395 C1394 1.400 . S
C1395 C1396 1.398 . S
C1395 C1401 1.491 . S
C1396 H1387 0.950 . S
C1396 C1395 1.398 . S
C1396 C1397 1.391 . S
C1397 H1385 0.950 . S
C1397 C1393 1.393 . S
C1397 C1396 1.391 . S
C1398 H1388 0.950 . S
C1398 C1399 1.386 . S
C1398 C1400 1.391 . S
C1399 C1398 1.386 . S
C1399 C1403 1.393 . S
C1400 H1389 0.950 . S
C1400 C1398 1.391 . S
C1400 C1401 1.400 . S
C1401 C1395 1.491 . S
C1401 C1400 1.400 . S
C1401 C1402 1.398 . S
C1402 H1390 0.950 . S
C1402 C1401 1.398 . S
C1402 C1403 1.391 . S
C1403 H1391 0.950 . S
C1403 C1399 1.393 . S
C1403 C1402 1.391 . S
H1404 C1412 0.950 . S
H1405 C1417 0.950 . S
H1406 C1414 0.950 . S
H1407 C1416 0.950 . S
H1408 C1418 0.950 1_655 S
H1409 C1420 0.950 1_565 S
H1410 C1422 0.950 . S
H1411 C1423 0.950 . S
C1412 H1404 0.950 . S
C1412 C1413 1.386 . S
C1412 C1414 1.391 . S
C1413 C1412 1.386 . S
C1413 C1417 1.393 . S
C1414 H1406 0.950 . S
C1414 C1412 1.391 . S
C1414 C1415 1.400 . S
C1415 C1414 1.400 . S
C1415 C1416 1.398 . S
C1415 C1421 1.491 1_565 S
C1416 H1407 0.950 . S
C1416 C1415 1.398 . S
C1416 C1417 1.391 . S
C1417 H1405 0.950 . S
C1417 C1413 1.393 . S
C1417 C1416 1.391 . S
C1418 H1408 0.950 1_455 S
C1418 C1419 1.386 . S
C1418 C1420 1.391 . S
C1419 C1418 1.386 . S
C1419 C1423 1.393 . S
C1420 H1409 0.950 1_545 S
C1420 C1418 1.391 . S
C1420 C1421 1.400 . S
C1421 C1415 1.491 1_545 S
C1421 C1420 1.400 . S
C1421 C1422 1.398 . S
C1422 H1410 0.950 . S
C1422 C1421 1.398 . S
C1422 C1423 1.391 . S
C1423 H1411 0.950 . S
C1423 C1419 1.393 . S
C1423 C1422 1.391 . S
H1424 C1432 0.950 . S
H1425 C1437 0.950 . S
H1426 C1434 0.950 . S
H1427 C1436 0.950 . S
H1428 C1438 0.950 . S
H1429 C1440 0.950 . S
H1430 C1442 0.950 . S
H1431 C1443 0.950 . S
C1432 H1424 0.950 . S
C1432 C1433 1.386 . S
C1432 C1434 1.391 . S
C1433 C1432 1.386 . S
C1433 C1437 1.393 . S
C1434 H1426 0.950 . S
C1434 C1432 1.391 . S
C1434 C1435 1.400 . S
C1435 C1434 1.400 . S
C1435 C1436 1.398 . S
C1435 C1441 1.491 . S
C1436 H1427 0.950 . S
C1436 C1435 1.398 . S
C1436 C1437 1.391 . S
C1437 H1425 0.950 . S
C1437 C1433 1.393 . S
C1437 C1436 1.391 . S
C1438 H1428 0.950 . S
C1438 C1439 1.386 . S
C1438 C1440 1.391 . S
C1439 C1438 1.386 . S
C1439 C1443 1.393 . S
C1440 H1429 0.950 . S
C1440 C1438 1.391 . S
C1440 C1441 1.400 . S
C1441 C1435 1.491 . S
C1441 C1440 1.400 . S
C1441 C1442 1.398 . S
C1442 H1430 0.950 . S
C1442 C1441 1.398 . S
C1442 C1443 1.391 . S
C1443 H1431 0.950 . S
C1443 C1439 1.393 . S
C1443 C1442 1.391 . S
H1444 C1452 0.950 . S
H1445 C1457 0.950 . S
H1446 C1454 0.950 . S
H1447 C1456 0.950 . S
H1448 C1458 0.950 . S
H1449 C1460 0.950 . S
H1450 C1462 0.950 . S
H1451 C1463 0.950 . S
C1452 H1444 0.950 . S
C1452 C1453 1.386 . S
C1452 C1454 1.391 . S
C1453 C1452 1.386 . S
C1453 C1457 1.393 . S
C1454 H1446 0.950 . S
C1454 C1452 1.391 . S
C1454 C1455 1.400 . S
C1455 C1454 1.400 . S
C1455 C1456 1.398 . S
C1455 C1461 1.491 . S
C1456 H1447 0.950 . S
C1456 C1455 1.398 . S
C1456 C1457 1.391 . S
C1457 H1445 0.950 . S
C1457 C1453 1.393 . S
C1457 C1456 1.391 . S
C1458 H1448 0.950 . S
C1458 C1459 1.386 . S
C1458 C1460 1.391 . S
C1459 C1458 1.386 . S
C1459 C1463 1.393 . S
C1460 H1449 0.950 . S
C1460 C1458 1.391 . S
C1460 C1461 1.400 . S
C1461 C1455 1.491 . S
C1461 C1460 1.400 . S
C1461 C1462 1.398 . S
C1462 H1450 0.950 . S
C1462 C1461 1.398 . S
C1462 C1463 1.391 . S
C1463 H1451 0.950 . S
C1463 C1459 1.393 . S
C1463 C1462 1.391 . S
H1464 C1472 0.955 1_556 S
H1465 C1477 0.950 . S
H1466 C1474 0.950 . S
H1467 C1476 0.950 . S
H1468 C1478 0.950 . S
H1469 C1480 0.950 . S
H1470 C1482 0.950 . S
H1471 C1483 0.950 . S
C1472 H1464 0.955 1_554 S
C1472 C1473 1.386 . S
C1472 C1474 1.391 . S
C1473 C1472 1.386 . S
C1473 C1477 1.393 . S
C1474 H1466 0.950 . S
C1474 C1472 1.391 . S
C1474 C1475 1.400 . S
C1475 C1474 1.400 . S
C1475 C1476 1.398 . S
C1475 C1481 1.491 1_655 S
C1476 H1467 0.950 . S
C1476 C1475 1.398 . S
C1476 C1477 1.391 . S
C1477 H1465 0.950 . S
C1477 C1473 1.393 . S
C1477 C1476 1.391 . S
C1478 H1468 0.950 . S
C1478 C1479 1.386 . S
C1478 C1480 1.391 . S
C1479 C1478 1.386 . S
C1479 C1483 1.393 . S
C1480 H1469 0.950 . S
C1480 C1478 1.391 . S
C1480 C1481 1.400 . S
C1481 C1475 1.491 1_455 S
C1481 C1480 1.400 . S
C1481 C1482 1.398 . S
C1482 H1470 0.950 . S
C1482 C1481 1.398 . S
C1482 C1483 1.391 . S
C1483 H1471 0.950 . S
C1483 C1479 1.393 . S
C1483 C1482 1.391 . S
H1484 C1492 0.950 . S
H1485 C1497 0.950 . S
H1486 C1494 0.950 . S
H1487 C1496 0.950 . S
H1488 C1498 0.950 . S
H1489 C1500 0.950 . S
H1490 C1502 0.950 . S
H1491 C1503 0.950 . S
C1492 H1484 0.950 . S
C1492 C1493 1.386 . S
C1492 C1494 1.391 . S
C1493 C1492 1.386 . S
C1493 C1497 1.393 . S
C1494 H1486 0.950 . S
C1494 C1492 1.391 . S
C1494 C1495 1.400 . S
C1495 C1494 1.400 . S
C1495 C1496 1.398 . S
C1495 C1501 1.491 . S
C1496 H1487 0.950 . S
C1496 C1495 1.398 . S
C1496 C1497 1.391 . S
C1497 H1485 0.950 . S
C1497 C1493 1.393 . S
C1497 C1496 1.391 . S
C1498 H1488 0.950 . S
C1498 C1499 1.386 . S
C1498 C1500 1.391 . S
C1499 C1498 1.386 . S
C1499 C1503 1.393 . S
C1500 H1489 0.950 . S
C1500 C1498 1.391 . S
C1500 C1501 1.400 . S
C1501 C1495 1.491 . S
C1501 C1500 1.400 . S
C1501 C1502 1.398 . S
C1502 H1490 0.950 . S
C1502 C1501 1.398 . S
C1502 C1503 1.391 . S
C1503 H1491 0.950 . S
C1503 C1499 1.393 . S
C1503 C1502 1.391 . S
H1504 C1512 0.950 . S
H1505 C1517 0.950 . S
H1506 C1514 0.950 . S
H1507 C1516 0.950 1_655 S
H1508 C1518 0.950 . S
H1509 C1520 0.950 . S
H1510 C1522 0.950 . S
H1511 C1523 0.950 . S
C1512 H1504 0.950 . S
C1512 C1513 1.386 . S
C1512 C1514 1.391 . S
C1513 C1512 1.386 . S
C1513 C1517 1.393 . S
C1514 H1506 0.950 . S
C1514 C1512 1.391 . S
C1514 C1515 1.400 . S
C1515 C1514 1.400 . S
C1515 C1516 1.398 . S
C1515 C1521 1.491 1_455 S
C1516 H1507 0.950 1_455 S
C1516 C1515 1.398 . S
C1516 C1517 1.391 . S
C1517 H1505 0.950 . S
C1517 C1513 1.393 . S
C1517 C1516 1.391 . S
C1518 H1508 0.950 . S
C1518 C1519 1.386 . S
C1518 C1520 1.391 . S
C1519 C1518 1.386 . S
C1519 C1523 1.393 . S
C1520 H1509 0.950 . S
C1520 C1518 1.391 . S
C1520 C1521 1.400 . S
C1521 C1515 1.491 1_655 S
C1521 C1520 1.400 . S
C1521 C1522 1.398 . S
C1522 H1510 0.950 . S
C1522 C1521 1.398 . S
C1522 C1523 1.391 . S
C1523 H1511 0.950 . S
C1523 C1519 1.393 . S
C1523 C1522 1.391 . S
H1524 C1532 0.950 . S
H1525 C1537 0.950 . S
H1526 C1534 0.950 . S
H1527 C1536 0.950 . S
H1528 C1538 0.950 . S
H1529 C1540 0.950 . S
H1530 C1542 0.950 . S
H1531 C1543 0.950 . S
C1532 H1524 0.950 . S
C1532 C1533 1.386 . S
C1532 C1534 1.391 . S
C1533 C1532 1.386 . S
C1533 C1537 1.393 . S
C1534 H1526 0.950 . S
C1534 C1532 1.391 . S
C1534 C1535 1.400 . S
C1535 C1534 1.400 . S
C1535 C1536 1.398 . S
C1535 C1541 1.491 . S
C1536 H1527 0.950 . S
C1536 C1535 1.398 . S
C1536 C1537 1.391 . S
C1537 H1525 0.950 . S
C1537 C1533 1.393 . S
C1537 C1536 1.391 . S
C1538 H1528 0.950 . S
C1538 C1539 1.386 . S
C1538 C1540 1.391 . S
C1539 C1538 1.386 . S
C1539 C1543 1.393 . S
C1540 H1529 0.950 . S
C1540 C1538 1.391 . S
C1540 C1541 1.400 . S
C1541 C1535 1.491 . S
C1541 C1540 1.400 . S
C1541 C1542 1.398 . S
C1542 H1530 0.950 . S
C1542 C1541 1.398 . S
C1542 C1543 1.391 . S
C1543 H1531 0.950 . S
C1543 C1539 1.393 . S
C1543 C1542 1.391 . S
H1544 C1552 0.950 . S
H1545 C1557 0.950 . S
H1546 C1554 0.950 1_455 S
H1547 C1556 0.950 . S
H1548 C1558 0.950 . S
H1549 C1560 0.950 . S
H1550 C1562 0.950 . S
H1551 C1563 0.950 . S
C1552 H1544 0.950 . S
C1552 C1553 1.386 . S
C1552 C1554 1.391 . S
C1553 C1552 1.386 . S
C1553 C1557 1.393 . S
C1554 H1546 0.950 1_655 S
C1554 C1552 1.391 . S
C1554 C1555 1.400 . S
C1555 C1554 1.400 . S
C1555 C1556 1.398 . S
C1555 C1561 1.491 1_655 S
C1556 H1547 0.950 . S
C1556 C1555 1.398 . S
C1556 C1557 1.391 . S
C1557 H1545 0.950 . S
C1557 C1553 1.393 . S
C1557 C1556 1.391 . S
C1558 H1548 0.950 . S
C1558 C1559 1.386 . S
C1558 C1560 1.391 . S
C1559 C1558 1.386 . S
C1559 C1563 1.393 . S
C1560 H1549 0.950 . S
C1560 C1558 1.391 . S
C1560 C1561 1.400 . S
C1561 C1555 1.491 1_455 S
C1561 C1560 1.400 . S
C1561 C1562 1.398 . S
C1562 H1550 0.950 . S
C1562 C1561 1.398 . S
C1562 C1563 1.391 . S
C1563 H1551 0.950 . S
C1563 C1559 1.393 . S
C1563 C1562 1.391 . S
H1564 C1572 0.950 . S
H1565 C1577 0.950 . S
H1566 C1574 0.950 . S
H1567 C1576 0.950 . S
H1568 C1578 0.950 . S
H1569 C1580 0.950 . S
H1570 C1582 0.950 . S
H1571 C1583 0.950 . S
C1572 H1564 0.950 . S
C1572 C1573 1.386 . S
C1572 C1574 1.391 . S
C1573 C1572 1.386 . S
C1573 C1577 1.393 . S
C1574 H1566 0.950 . S
C1574 C1572 1.391 . S
C1574 C1575 1.400 . S
C1575 C1574 1.400 . S
C1575 C1576 1.398 . S
C1575 C1581 1.491 . S
C1576 H1567 0.950 . S
C1576 C1575 1.398 . S
C1576 C1577 1.391 . S
C1577 H1565 0.950 . S
C1577 C1573 1.393 . S
C1577 C1576 1.391 . S
C1578 H1568 0.950 . S
C1578 C1579 1.386 . S
C1578 C1580 1.391 . S
C1579 C1578 1.386 . S
C1579 C1583 1.393 . S
C1580 H1569 0.950 . S
C1580 C1578 1.391 . S
C1580 C1581 1.400 . S
C1581 C1575 1.491 . S
C1581 C1580 1.400 . S
C1581 C1582 1.398 . S
C1582 H1570 0.950 . S
C1582 C1581 1.398 . S
C1582 C1583 1.391 . S
C1583 H1571 0.950 . S
C1583 C1579 1.393 . S
C1583 C1582 1.391 . S
H1584 C1592 0.950 . S
H1585 C1597 0.950 . S
H1586 C1594 0.950 . S
H1587 C1596 0.950 . S
H1588 C1598 0.950 . S
H1589 C1600 0.950 . S
H1590 C1602 0.950 . S
H1591 C1603 0.950 . S
C1592 H1584 0.950 . S
C1592 C1593 1.386 . S
C1592 C1594 1.391 . S
C1593 C1592 1.386 . S
C1593 C1597 1.393 . S
C1594 H1586 0.950 . S
C1594 C1592 1.391 . S
C1594 C1595 1.400 . S
C1595 C1594 1.400 . S
C1595 C1596 1.398 . S
C1595 C1601 1.491 . S
C1596 H1587 0.950 . S
C1596 C1595 1.398 . S
C1596 C1597 1.391 . S
C1597 H1585 0.950 . S
C1597 C1593 1.393 . S
C1597 C1596 1.391 . S
C1598 H1588 0.950 . S
C1598 C1599 1.386 . S
C1598 C1600 1.391 . S
C1599 C1598 1.386 . S
C1599 C1603 1.393 . S
C1600 H1589 0.950 . S
C1600 C1598 1.391 . S
C1600 C1601 1.400 . S
C1601 C1595 1.491 . S
C1601 C1600 1.400 . S
C1601 C1602 1.398 . S
C1602 H1590 0.950 . S
C1602 C1601 1.398 . S
C1602 C1603 1.391 . S
C1603 H1591 0.950 . S
C1603 C1599 1.393 . S
C1603 C1602 1.391 . S
H1604 C1612 0.950 . S
H1605 C1617 0.950 . S
H1606 C1614 0.950 . S
H1607 C1616 0.950 . S
H1608 C1618 0.950 . S
H1609 C1620 0.950 . S
H1610 C1622 0.950 1_554 S
H1611 C1623 0.950 . S
C1612 H1604 0.950 . S
C1612 C1613 1.386 . S
C1612 C1614 1.391 . S
C1613 C1612 1.386 . S
C1613 C1617 1.393 . S
C1614 H1606 0.950 . S
C1614 C1612 1.391 . S
C1614 C1615 1.400 . S
C1615 C1614 1.400 . S
C1615 C1616 1.398 . S
C1615 C1621 1.491 1_554 S
C1616 H1607 0.950 . S
C1616 C1615 1.398 . S
C1616 C1617 1.391 . S
C1617 H1605 0.950 . S
C1617 C1613 1.393 . S
C1617 C1616 1.391 . S
C1618 H1608 0.950 . S
C1618 C1619 1.386 . S
C1618 C1620 1.391 . S
C1619 C1618 1.386 . S
C1619 C1623 1.393 . S
C1620 H1609 0.950 . S
C1620 C1618 1.391 . S
C1620 C1621 1.400 . S
C1621 C1615 1.491 1_556 S
C1621 C1620 1.400 . S
C1621 C1622 1.398 . S
C1622 H1610 0.950 1_556 S
C1622 C1621 1.398 . S
C1622 C1623 1.391 . S
C1623 H1611 0.950 . S
C1623 C1619 1.393 . S
C1623 C1622 1.391 . S
H1624 C1632 0.950 . S
H1625 C1637 0.950 . S
H1626 C1634 0.950 . S
H1627 C1636 0.950 . S
H1628 C1638 0.950 . S
H1629 C1640 0.950 . S
H1630 C1642 0.950 . S
H1631 C1643 0.950 . S
C1632 H1624 0.950 . S
C1632 C1633 1.386 . S
C1632 C1634 1.391 . S
C1633 C1632 1.386 . S
C1633 C1637 1.393 . S
C1634 H1626 0.950 . S
C1634 C1632 1.391 . S
C1634 C1635 1.400 . S
C1635 C1634 1.400 . S
C1635 C1636 1.398 . S
C1635 C1641 1.491 . S
C1636 H1627 0.950 . S
C1636 C1635 1.398 . S
C1636 C1637 1.391 . S
C1637 H1625 0.950 . S
C1637 C1633 1.393 . S
C1637 C1636 1.391 . S
C1638 H1628 0.950 . S
C1638 C1639 1.386 . S
C1638 C1640 1.391 . S
C1639 C1638 1.386 . S
C1639 C1643 1.393 . S
C1640 H1629 0.950 . S
C1640 C1638 1.391 . S
C1640 C1641 1.400 . S
C1641 C1635 1.491 . S
C1641 C1640 1.400 . S
C1641 C1642 1.398 . S
C1642 H1630 0.950 . S
C1642 C1641 1.398 . S
C1642 C1643 1.391 . S
C1643 H1631 0.950 . S
C1643 C1639 1.393 . S
C1643 C1642 1.391 . S
H1644 C1652 0.950 . S
H1645 C1657 0.950 . S
H1646 C1654 0.950 . S
H1647 C1656 0.950 . S
H1648 C1658 0.950 . S
H1649 C1660 0.950 . S
H1650 C1662 0.950 . S
H1651 C1663 0.950 . S
C1652 H1644 0.950 . S
C1652 C1653 1.386 . S
C1652 C1654 1.391 . S
C1653 C1652 1.386 . S
C1653 C1657 1.393 . S
C1654 H1646 0.950 . S
C1654 C1652 1.391 . S
C1654 C1655 1.400 . S
C1655 C1654 1.400 . S
C1655 C1656 1.398 . S
C1655 C1661 1.491 . S
C1656 H1647 0.950 . S
C1656 C1655 1.398 . S
C1656 C1657 1.391 . S
C1657 H1645 0.950 . S
C1657 C1653 1.393 . S
C1657 C1656 1.391 . S
C1658 H1648 0.950 . S
C1658 C1659 1.386 . S
C1658 C1660 1.391 . S
C1659 C1658 1.386 . S
C1659 C1663 1.393 . S
C1660 H1649 0.950 . S
C1660 C1658 1.391 . S
C1660 C1661 1.400 . S
C1661 C1655 1.491 . S
C1661 C1660 1.400 . S
C1661 C1662 1.398 . S
C1662 H1650 0.950 . S
C1662 C1661 1.398 . S
C1662 C1663 1.391 . S
C1663 H1651 0.950 . S
C1663 C1659 1.393 . S
C1663 C1662 1.391 . S
H1664 C1672 0.950 . S
H1665 C1677 0.950 . S
H1666 C1674 0.950 . S
H1667 C1676 0.950 . S
H1668 C1678 0.950 . S
H1669 C1680 0.950 . S
H1670 C1682 0.950 . S
H1671 C1683 0.950 . S
C1672 H1664 0.950 . S
C1672 C1673 1.386 . S
C1672 C1674 1.391 . S
C1673 C1672 1.386 . S
C1673 C1677 1.393 . S
C1674 H1666 0.950 . S
C1674 C1672 1.391 . S
C1674 C1675 1.400 . S
C1675 C1674 1.400 . S
C1675 C1676 1.398 . S
C1675 C1681 1.491 . S
C1676 H1667 0.950 . S
C1676 C1675 1.398 . S
C1676 C1677 1.391 . S
C1677 H1665 0.950 . S
C1677 C1673 1.393 . S
C1677 C1676 1.391 . S
C1678 H1668 0.950 . S
C1678 C1679 1.386 . S
C1678 C1680 1.391 . S
C1679 C1678 1.386 . S
C1679 C1683 1.393 . S
C1680 H1669 0.950 . S
C1680 C1678 1.391 . S
C1680 C1681 1.400 . S
C1681 C1675 1.491 . S
C1681 C1680 1.400 . S
C1681 C1682 1.398 . S
C1682 H1670 0.950 . S
C1682 C1681 1.398 . S
C1682 C1683 1.391 . S
C1683 H1671 0.950 . S
C1683 C1679 1.393 . S
C1683 C1682 1.391 . S
H1684 C1692 0.950 . S
H1685 C1697 0.950 . S
H1686 C1694 0.950 . S
H1687 C1696 0.950 . S
H1688 C1698 0.950 . S
H1689 C1700 0.950 1_556 S
H1690 C1702 0.950 . S
H1691 C1703 0.950 . S
C1692 H1684 0.950 . S
C1692 C1693 1.386 . S
C1692 C1694 1.391 . S
C1693 C1692 1.386 . S
C1693 C1697 1.393 . S
C1694 H1686 0.950 . S
C1694 C1692 1.391 . S
C1694 C1695 1.400 . S
C1695 C1694 1.400 . S
C1695 C1696 1.398 . S
C1695 C1701 1.491 1_556 S
C1696 H1687 0.950 . S
C1696 C1695 1.398 . S
C1696 C1697 1.391 . S
C1697 H1685 0.950 . S
C1697 C1693 1.393 . S
C1697 C1696 1.391 . S
C1698 H1688 0.950 . S
C1698 C1699 1.386 . S
C1698 C1700 1.391 . S
C1699 C1698 1.386 . S
C1699 C1703 1.393 . S
C1700 H1689 0.950 1_554 S
C1700 C1698 1.391 . S
C1700 C1701 1.400 . S
C1701 C1695 1.491 1_554 S
C1701 C1700 1.400 . S
C1701 C1702 1.398 . S
C1702 H1690 0.950 . S
C1702 C1701 1.398 . S
C1702 C1703 1.391 . S
C1703 H1691 0.950 . S
C1703 C1699 1.393 . S
C1703 C1702 1.391 . S
H1704 C1712 0.950 . S
H1705 C1717 0.950 . S
H1706 C1714 0.950 . S
H1707 C1716 0.950 . S
H1708 C1718 0.950 . S
H1709 C1720 0.950 . S
H1710 C1722 0.950 . S
H1711 C1723 0.950 . S
C1712 H1704 0.950 . S
C1712 C1713 1.386 . S
C1712 C1714 1.391 . S
C1713 C1712 1.386 . S
C1713 C1717 1.393 . S
C1714 H1706 0.950 . S
C1714 C1712 1.391 . S
C1714 C1715 1.400 . S
C1715 C1714 1.400 . S
C1715 C1716 1.398 . S
C1715 C1721 1.491 . S
C1716 H1707 0.950 . S
C1716 C1715 1.398 . S
C1716 C1717 1.391 . S
C1717 H1705 0.950 . S
C1717 C1713 1.393 . S
C1717 C1716 1.391 . S
C1718 H1708 0.950 . S
C1718 C1719 1.386 . S
C1718 C1720 1.391 . S
C1719 C1718 1.386 . S
C1719 C1723 1.393 . S
C1720 H1709 0.950 . S
C1720 C1718 1.391 . S
C1720 C1721 1.400 . S
C1721 C1715 1.491 . S
C1721 C1720 1.400 . S
C1721 C1722 1.398 . S
C1722 H1710 0.950 . S
C1722 C1721 1.398 . S
C1722 C1723 1.391 . S
C1723 H1711 0.950 . S
C1723 C1719 1.393 . S
C1723 C1722 1.391 . S
H1724 C1732 0.950 . S
H1725 C1737 0.950 . S
H1726 C1734 0.950 . S
H1727 C1736 0.950 . S
H1728 C1738 0.950 . S
H1729 C1740 0.950 . S
H1730 C1742 0.950 . S
H1731 C1743 0.950 . S
C1732 H1724 0.950 . S
C1732 C1733 1.386 . S
C1732 C1734 1.391 . S
C1733 C1732 1.386 . S
C1733 C1737 1.393 . S
C1734 H1726 0.950 . S
C1734 C1732 1.391 . S
C1734 C1735 1.400 . S
C1735 C1734 1.400 . S
C1735 C1736 1.398 . S
C1735 C1741 1.491 . S
C1736 H1727 0.950 . S
C1736 C1735 1.398 . S
C1736 C1737 1.391 . S
C1737 H1725 0.950 . S
C1737 C1733 1.393 . S
C1737 C1736 1.391 . S
C1738 H1728 0.950 . S
C1738 C1739 1.386 . S
C1738 C1740 1.391 . S
C1739 C1738 1.386 . S
C1739 C1743 1.393 . S
C1740 H1729 0.950 . S
C1740 C1738 1.391 . S
C1740 C1741 1.400 . S
C1741 C1735 1.491 . S
C1741 C1740 1.400 . S
C1741 C1742 1.398 . S
C1742 H1730 0.950 . S
C1742 C1741 1.398 . S
C1742 C1743 1.391 . S
C1743 H1731 0.950 . S
C1743 C1739 1.393 . S
C1743 C1742 1.391 . S
H1744 C1752 0.950 . S
H1745 C1757 0.950 . S
H1746 C1754 0.950 . S
H1747 C1756 0.950 . S
H1748 C1758 0.950 . S
H1749 C1760 0.950 . S
H1750 C1762 0.950 . S
H1751 C1763 0.950 . S
C1752 H1744 0.950 . S
C1752 C1753 1.386 . S
C1752 C1754 1.391 . S
C1753 C1752 1.386 . S
C1753 C1757 1.393 . S
C1754 H1746 0.950 . S
C1754 C1752 1.391 . S
C1754 C1755 1.400 . S
C1755 C1754 1.400 . S
C1755 C1756 1.398 . S
C1755 C1761 1.491 . S
C1756 H1747 0.950 . S
C1756 C1755 1.398 . S
C1756 C1757 1.391 . S
C1757 H1745 0.950 . S
C1757 C1753 1.393 . S
C1757 C1756 1.391 . S
C1758 H1748 0.950 . S
C1758 C1759 1.386 . S
C1758 C1760 1.391 . S
C1759 C1758 1.386 . S
C1759 C1763 1.393 . S
C1760 H1749 0.950 . S
C1760 C1758 1.391 . S
C1760 C1761 1.400 . S
C1761 C1755 1.491 . S
C1761 C1760 1.400 . S
C1761 C1762 1.398 . S
C1762 H1750 0.950 . S
C1762 C1761 1.398 . S
C1762 C1763 1.391 . S
C1763 H1751 0.950 . S
C1763 C1759 1.393 . S
C1763 C1762 1.391 . S
H1764 C1772 0.950 . S
H1765 C1777 0.950 . S
H1766 C1774 0.950 . S
H1767 C1776 0.950 . S
H1768 C1778 0.950 . S
H1769 C1780 0.950 . S
H1770 C1782 0.950 . S
H1771 C1783 0.950 . S
C1772 H1764 0.950 . S
C1772 C1773 1.386 . S
C1772 C1774 1.391 . S
C1773 C1772 1.386 . S
C1773 C1777 1.393 . S
C1774 H1766 0.950 . S
C1774 C1772 1.391 . S
C1774 C1775 1.400 . S
C1775 C1774 1.400 . S
C1775 C1776 1.398 . S
C1775 C1781 1.491 . S
C1776 H1767 0.950 . S
C1776 C1775 1.398 . S
C1776 C1777 1.391 . S
C1777 H1765 0.950 . S
C1777 C1773 1.393 . S
C1777 C1776 1.391 . S
C1778 H1768 0.950 . S
C1778 C1779 1.386 . S
C1778 C1780 1.391 . S
C1779 C1778 1.386 . S
C1779 C1783 1.393 . S
C1780 H1769 0.950 . S
C1780 C1778 1.391 . S
C1780 C1781 1.400 . S
C1781 C1775 1.491 . S
C1781 C1780 1.400 . S
C1781 C1782 1.398 . S
C1782 H1770 0.950 . S
C1782 C1781 1.398 . S
C1782 C1783 1.391 . S
C1783 H1771 0.950 . S
C1783 C1779 1.393 . S
C1783 C1782 1.391 . S
H1784 C1792 0.950 . S
H1785 C1797 0.950 . S
H1786 C1794 0.950 . S
H1787 C1796 0.950 . S
H1788 C1798 0.950 . S
H1789 C1800 0.950 . S
H1790 C1802 0.950 . S
H1791 C1803 0.950 . S
C1792 H1784 0.950 . S
C1792 C1793 1.386 . S
C1792 C1794 1.391 . S
C1793 C1792 1.386 . S
C1793 C1797 1.393 . S
C1794 H1786 0.950 . S
C1794 C1792 1.391 . S
C1794 C1795 1.400 . S
C1795 C1794 1.400 . S
C1795 C1796 1.398 . S
C1795 C1801 1.491 . S
C1796 H1787 0.950 . S
C1796 C1795 1.398 . S
C1796 C1797 1.391 . S
C1797 H1785 0.950 . S
C1797 C1793 1.393 . S
C1797 C1796 1.391 . S
C1798 H1788 0.950 . S
C1798 C1799 1.386 . S
C1798 C1800 1.391 . S
C1799 C1798 1.386 . S
C1799 C1803 1.393 . S
C1800 H1789 0.950 . S
C1800 C1798 1.391 . S
C1800 C1801 1.400 . S
C1801 C1795 1.491 . S
C1801 C1800 1.400 . S
C1801 C1802 1.398 . S
C1802 H1790 0.950 . S
C1802 C1801 1.398 . S
C1802 C1803 1.391 . S
C1803 H1791 0.950 . S
C1803 C1799 1.393 . S
C1803 C1802 1.391 . S
H1804 C1812 0.950 . S
H1805 C1817 0.984 . S
H1806 C1814 0.950 . S
H1807 C1816 0.950 . S
H1808 C1818 0.950 . S
H1809 C1820 0.950 . S
H1810 C1822 0.950 . S
H1811 C1823 0.950 . S
C1812 H1804 0.950 . S
C1812 C1813 1.386 . S
C1812 C1814 1.391 . S
C1813 C1812 1.386 . S
C1813 C1817 1.393 . S
C1814 H1806 0.950 . S
C1814 C1812 1.391 . S
C1814 C1815 1.400 . S
C1815 C1814 1.400 . S
C1815 C1816 1.398 . S
C1815 C1821 1.491 . S
C1816 H1807 0.950 . S
C1816 C1815 1.398 . S
C1816 C1817 1.391 . S
C1817 H1805 0.984 . S
C1817 C1813 1.393 . S
C1817 C1816 1.391 . S
C1818 H1808 0.950 . S
C1818 C1819 1.386 . S
C1818 C1820 1.391 . S
C1819 C1818 1.386 . S
C1819 C1823 1.393 . S
C1820 H1809 0.950 . S
C1820 C1818 1.391 . S
C1820 C1821 1.400 . S
C1821 C1815 1.491 . S
C1821 C1820 1.400 . S
C1821 C1822 1.398 . S
C1822 H1810 0.950 . S
C1822 C1821 1.398 . S
C1822 C1823 1.391 . S
C1823 H1811 0.950 . S
C1823 C1819 1.393 . S
C1823 C1822 1.391 . S
H1824 C1832 0.950 . S
H1825 C1837 0.950 . S
H1826 C1834 0.950 . S
H1827 C1836 0.950 . S
H1828 C1838 0.950 . S
H1829 C1840 0.950 . S
H1830 C1842 0.950 . S
H1831 C1843 0.950 . S
C1832 H1824 0.950 . S
C1832 C1833 1.386 . S
C1832 C1834 1.391 . S
C1833 C1832 1.386 . S
C1833 C1837 1.393 . S
C1834 H1826 0.950 . S
C1834 C1832 1.391 . S
C1834 C1835 1.400 . S
C1835 C1834 1.400 . S
C1835 C1836 1.398 . S
C1835 C1841 1.491 . S
C1836 H1827 0.950 . S
C1836 C1835 1.398 . S
C1836 C1837 1.391 . S
C1837 H1825 0.950 . S
C1837 C1833 1.393 . S
C1837 C1836 1.391 . S
C1838 H1828 0.950 . S
C1838 C1839 1.386 . S
C1838 C1840 1.391 . S
C1839 C1838 1.386 . S
C1839 C1843 1.393 . S
C1840 H1829 0.950 . S
C1840 C1838 1.391 . S
C1840 C1841 1.400 . S
C1841 C1835 1.491 . S
C1841 C1840 1.400 . S
C1841 C1842 1.398 . S
C1842 H1830 0.950 . S
C1842 C1841 1.398 . S
C1842 C1843 1.391 . S
C1843 H1831 0.950 . S
C1843 C1839 1.393 . S
C1843 C1842 1.391 . S
H1844 C1852 0.950 . S
H1845 C1857 0.950 . S
H1846 C1854 0.950 . S
H1847 C1856 0.950 . S
H1848 C1858 0.950 . S
H1849 C1860 0.950 . S
H1850 C1862 0.950 . S
H1851 C1863 0.950 . S
C1852 H1844 0.950 . S
C1852 C1853 1.386 . S
C1852 C1854 1.391 . S
C1853 C1852 1.386 . S
C1853 C1857 1.393 . S
C1854 H1846 0.950 . S
C1854 C1852 1.391 . S
C1854 C1855 1.400 . S
C1855 C1854 1.400 . S
C1855 C1856 1.398 . S
C1855 C1861 1.491 . S
C1856 H1847 0.950 . S
C1856 C1855 1.398 . S
C1856 C1857 1.391 . S
C1857 H1845 0.950 . S
C1857 C1853 1.393 . S
C1857 C1856 1.391 . S
C1858 H1848 0.950 . S
C1858 C1859 1.386 . S
C1858 C1860 1.391 . S
C1859 C1858 1.386 . S
C1859 C1863 1.393 . S
C1860 H1849 0.950 . S
C1860 C1858 1.391 . S
C1860 C1861 1.400 . S
C1861 C1855 1.491 . S
C1861 C1860 1.400 . S
C1861 C1862 1.398 . S
C1862 H1850 0.950 . S
C1862 C1861 1.398 . S
C1862 C1863 1.391 . S
C1863 H1851 0.950 . S
C1863 C1859 1.393 . S
C1863 C1862 1.391 . S
H1864 C1872 0.950 . S
H1865 C1877 0.950 . S
H1866 C1874 0.950 . S
H1867 C1876 0.950 . S
H1868 C1878 0.950 . S
H1869 C1880 0.950 . S
H1870 C1882 0.950 . S
H1871 C1883 0.950 . S
C1872 H1864 0.950 . S
C1872 C1873 1.386 . S
C1872 C1874 1.391 . S
C1873 C1872 1.386 . S
C1873 C1877 1.393 . S
C1874 H1866 0.950 . S
C1874 C1872 1.391 . S
C1874 C1875 1.400 . S
C1875 C1874 1.400 . S
C1875 C1876 1.398 . S
C1875 C1881 1.491 . S
C1876 H1867 0.950 . S
C1876 C1875 1.398 . S
C1876 C1877 1.391 . S
C1877 H1865 0.950 . S
C1877 C1873 1.393 . S
C1877 C1876 1.391 . S
C1878 H1868 0.950 . S
C1878 C1879 1.386 . S
C1878 C1880 1.391 . S
C1879 C1878 1.386 . S
C1879 C1883 1.393 . S
C1880 H1869 0.950 . S
C1880 C1878 1.391 . S
C1880 C1881 1.400 . S
C1881 C1875 1.491 . S
C1881 C1880 1.400 . S
C1881 C1882 1.398 . S
C1882 H1870 0.950 . S
C1882 C1881 1.398 . S
C1882 C1883 1.391 . S
C1883 H1871 0.950 . S
C1883 C1879 1.393 . S
C1883 C1882 1.391 . S
H1884 C1892 0.950 . S
H1885 C1897 0.950 . S
H1886 C1894 0.950 . S
H1887 C1896 0.950 . S
H1888 C1898 0.950 . S
H1889 C1900 0.950 . S
H1890 C1902 0.950 . S
H1891 C1903 0.950 . S
C1892 H1884 0.950 . S
C1892 C1893 1.386 . S
C1892 C1894 1.391 . S
C1893 C1892 1.386 . S
C1893 C1897 1.393 . S
C1894 H1886 0.950 . S
C1894 C1892 1.391 . S
C1894 C1895 1.400 . S
C1895 C1894 1.400 . S
C1895 C1896 1.398 . S
C1895 C1901 1.491 . S
C1896 H1887 0.950 . S
C1896 C1895 1.398 . S
C1896 C1897 1.391 . S
C1897 H1885 0.950 . S
C1897 C1893 1.393 . S
C1897 C1896 1.391 . S
C1898 H1888 0.950 . S
C1898 C1899 1.386 . S
C1898 C1900 1.391 . S
C1899 C1898 1.386 . S
C1899 C1903 1.393 . S
C1900 H1889 0.950 . S
C1900 C1898 1.391 . S
C1900 C1901 1.400 . S
C1901 C1895 1.491 . S
C1901 C1900 1.400 . S
C1901 C1902 1.398 . S
C1902 H1890 0.950 . S
C1902 C1901 1.398 . S
C1902 C1903 1.391 . S
C1903 H1891 0.950 . S
C1903 C1899 1.393 . S
C1903 C1902 1.391 . S
H1904 C1912 0.950 . S
H1905 C1917 0.950 . S
H1906 C1914 0.950 . S
H1907 C1916 0.950 . S
H1908 C1918 0.950 . S
H1909 C1920 0.950 . S
H1910 C1922 0.950 . S
H1911 C1923 0.950 . S
C1912 H1904 0.950 . S
C1912 C1913 1.386 . S
C1912 C1914 1.391 . S
C1913 C1912 1.386 . S
C1913 C1917 1.393 . S
C1914 H1906 0.950 . S
C1914 C1912 1.391 . S
C1914 C1915 1.400 . S
C1915 C1914 1.400 . S
C1915 C1916 1.398 . S
C1915 C1921 1.491 . S
C1916 H1907 0.950 . S
C1916 C1915 1.398 . S
C1916 C1917 1.391 . S
C1917 H1905 0.950 . S
C1917 C1913 1.393 . S
C1917 C1916 1.391 . S
C1918 H1908 0.950 . S
C1918 C1919 1.386 . S
C1918 C1920 1.391 . S
C1919 C1918 1.386 . S
C1919 C1923 1.393 . S
C1920 H1909 0.950 . S
C1920 C1918 1.391 . S
C1920 C1921 1.400 . S
C1921 C1915 1.491 . S
C1921 C1920 1.400 . S
C1921 C1922 1.398 . S
C1922 H1910 0.950 . S
C1922 C1921 1.398 . S
C1922 C1923 1.391 . S
C1923 H1911 0.950 . S
C1923 C1919 1.393 . S
C1923 C1922 1.391 . S
H1924 C1932 0.950 . S
H1925 C1937 0.950 . S
H1926 C1934 0.950 . S
H1927 C1936 0.950 . S
H1928 C1938 0.950 . S
H1929 C1940 0.950 . S
H1930 C1942 0.950 . S
H1931 C1943 0.950 . S
C1932 H1924 0.950 . S
C1932 C1933 1.386 . S
C1932 C1934 1.391 . S
C1933 C1932 1.386 . S
C1933 C1937 1.393 . S
C1934 H1926 0.950 . S
C1934 C1932 1.391 . S
C1934 C1935 1.400 . S
C1935 C1934 1.400 . S
C1935 C1936 1.398 . S
C1935 C1941 1.491 . S
C1936 H1927 0.950 . S
C1936 C1935 1.398 . S
C1936 C1937 1.391 . S
C1937 H1925 0.950 . S
C1937 C1933 1.393 . S
C1937 C1936 1.391 . S
C1938 H1928 0.950 . S
C1938 C1939 1.386 . S
C1938 C1940 1.391 . S
C1939 C1938 1.386 . S
C1939 C1943 1.393 . S
C1940 H1929 0.950 . S
C1940 C1938 1.391 . S
C1940 C1941 1.400 . S
C1941 C1935 1.491 . S
C1941 C1940 1.400 . S
C1941 C1942 1.398 . S
C1942 H1930 0.950 . S
C1942 C1941 1.398 . S
C1942 C1943 1.391 . S
C1943 H1931 0.950 . S
C1943 C1939 1.393 . S
C1943 C1942 1.391 . S
H1944 C1952 0.950 . S
H1945 C1957 0.950 . S
H1946 C1954 0.950 . S
H1947 C1956 0.950 . S
H1948 C1958 0.950 . S
H1949 C1960 0.950 . S
H1950 C1962 0.950 . S
H1951 C1963 0.950 . S
C1952 H1944 0.950 . S
C1952 C1953 1.386 . S
C1952 C1954 1.391 . S
C1953 C1952 1.386 . S
C1953 C1957 1.393 . S
C1954 H1946 0.950 . S
C1954 C1952 1.391 . S
C1954 C1955 1.400 . S
C1955 C1954 1.400 . S
C1955 C1956 1.398 . S
C1955 C1961 1.491 . S
C1956 H1947 0.950 . S
C1956 C1955 1.398 . S
C1956 C1957 1.391 . S
C1957 H1945 0.950 . S
C1957 C1953 1.393 . S
C1957 C1956 1.391 . S
C1958 H1948 0.950 . S
C1958 C1959 1.386 . S
C1958 C1960 1.391 . S
C1959 C1958 1.386 . S
C1959 C1963 1.393 . S
C1960 H1949 0.950 . S
C1960 C1958 1.391 . S
C1960 C1961 1.400 . S
C1961 C1955 1.491 . S
C1961 C1960 1.400 . S
C1961 C1962 1.398 . S
C1962 H1950 0.950 . S
C1962 C1961 1.398 . S
C1962 C1963 1.391 . S
C1963 H1951 0.950 . S
C1963 C1959 1.393 . S
C1963 C1962 1.391 . S
H1964 C1972 0.950 . S
H1965 C1977 0.950 . S
H1966 C1974 0.950 . S
H1967 C1976 0.950 . S
H1968 C1978 0.950 . S
H1969 C1980 0.950 . S
H1970 C1982 0.950 . S
H1971 C1983 0.950 . S
C1972 H1964 0.950 . S
C1972 C1973 1.386 . S
C1972 C1974 1.391 . S
C1973 C1972 1.386 . S
C1973 C1977 1.393 . S
C1974 H1966 0.950 . S
C1974 C1972 1.391 . S
C1974 C1975 1.400 . S
C1975 C1974 1.400 . S
C1975 C1976 1.398 . S
C1975 C1981 1.491 . S
C1976 H1967 0.950 . S
C1976 C1975 1.398 . S
C1976 C1977 1.391 . S
C1977 H1965 0.950 . S
C1977 C1973 1.393 . S
C1977 C1976 1.391 . S
C1978 H1968 0.950 . S
C1978 C1979 1.386 . S
C1978 C1980 1.391 . S
C1979 C1978 1.386 . S
C1979 C1983 1.393 . S
C1980 H1969 0.950 . S
C1980 C1978 1.391 . S
C1980 C1981 1.400 . S
C1981 C1975 1.491 . S
C1981 C1980 1.400 . S
C1981 C1982 1.398 . S
C1982 H1970 0.950 . S
C1982 C1981 1.398 . S
C1982 C1983 1.391 . S
C1983 H1971 0.950 . S
C1983 C1979 1.393 . S
C1983 C1982 1.391 . S
H1984 C1992 0.950 . S
H1985 C1997 0.950 . S
H1986 C1994 0.950 . S
H1987 C1996 0.950 . S
H1988 C1998 0.950 . S
H1989 C2000 0.950 . S
H1990 C2002 0.950 . S
H1991 C2003 0.950 . S
C1992 H1984 0.950 . S
C1992 C1993 1.386 . S
C1992 C1994 1.391 . S
C1993 C1992 1.386 . S
C1993 C1997 1.393 . S
C1994 H1986 0.950 . S
C1994 C1992 1.391 . S
C1994 C1995 1.400 . S
C1995 C1994 1.400 . S
C1995 C1996 1.398 . S
C1995 C2001 1.491 . S
C1996 H1987 0.950 . S
C1996 C1995 1.398 . S
C1996 C1997 1.391 . S
C1997 H1985 0.950 . S
C1997 C1993 1.393 . S
C1997 C1996 1.391 . S
C1998 H1988 0.950 . S
C1998 C1999 1.386 . S
C1998 C2000 1.391 . S
C1999 C1998 1.386 . S
C1999 C2003 1.393 . S
C2000 H1989 0.950 . S
C2000 C1998 1.391 . S
C2000 C2001 1.400 . S
C2001 C1995 1.491 . S
C2001 C2000 1.400 . S
C2001 C2002 1.398 . S
C2002 H1990 0.950 . S
C2002 C2001 1.398 . S
C2002 C2003 1.391 . S
C2003 H1991 0.950 . S
C2003 C1999 1.393 . S
C2003 C2002 1.391 . S
H2004 C2012 0.950 . S
H2005 C2017 0.950 . S
H2006 C2014 0.950 . S
H2007 C2016 0.950 . S
H2008 C2018 0.950 . S
H2009 C2020 0.950 . S
H2010 C2022 0.950 . S
H2011 C2023 0.950 . S
C2012 H2004 0.950 . S
C2012 C2013 1.386 . S
C2012 C2014 1.391 . S
C2013 C2012 1.386 . S
C2013 C2017 1.393 . S
C2014 H2006 0.950 . S
C2014 C2012 1.391 . S
C2014 C2015 1.400 . S
C2015 C2014 1.400 . S
C2015 C2016 1.398 . S
C2015 C2021 1.491 . S
C2016 H2007 0.950 . S
C2016 C2015 1.398 . S
C2016 C2017 1.391 . S
C2017 H2005 0.950 . S
C2017 C2013 1.393 . S
C2017 C2016 1.391 . S
C2018 H2008 0.950 . S
C2018 C2019 1.386 . S
C2018 C2020 1.391 . S
C2019 C2018 1.386 . S
C2019 C2023 1.393 . S
C2020 H2009 0.950 . S
C2020 C2018 1.391 . S
C2020 C2021 1.400 . S
C2021 C2015 1.491 . S
C2021 C2020 1.400 . S
C2021 C2022 1.398 . S
C2022 H2010 0.950 . S
C2022 C2021 1.398 . S
C2022 C2023 1.391 . S
C2023 H2011 0.950 . S
C2023 C2019 1.393 . S
C2023 C2022 1.391 . S
H2024 C2032 0.950 . S
H2025 C2037 0.950 . S
H2026 C2034 0.950 . S
H2027 C2036 0.950 . S
H2028 C2038 0.950 . S
H2029 C2040 0.950 . S
H2030 C2042 0.950 . S
H2031 C2043 0.950 . S
C2032 H2024 0.950 . S
C2032 C2033 1.386 . S
C2032 C2034 1.391 . S
C2033 C2032 1.386 . S
C2033 C2037 1.393 . S
C2034 H2026 0.950 . S
C2034 C2032 1.391 . S
C2034 C2035 1.400 . S
C2035 C2034 1.400 . S
C2035 C2036 1.398 . S
C2035 C2041 1.491 . S
C2036 H2027 0.950 . S
C2036 C2035 1.398 . S
C2036 C2037 1.391 . S
C2037 H2025 0.950 . S
C2037 C2033 1.393 . S
C2037 C2036 1.391 . S
C2038 H2028 0.950 . S
C2038 C2039 1.386 . S
C2038 C2040 1.391 . S
C2039 C2038 1.386 . S
C2039 C2043 1.393 . S
C2040 H2029 0.950 . S
C2040 C2038 1.391 . S
C2040 C2041 1.400 . S
C2041 C2035 1.491 . S
C2041 C2040 1.400 . S
C2041 C2042 1.398 . S
C2042 H2030 0.950 . S
C2042 C2041 1.398 . S
C2042 C2043 1.391 . S
C2043 H2031 0.950 . S
C2043 C2039 1.393 . S
C2043 C2042 1.391 . S
H2044 C2052 0.950 . S
H2045 C2057 0.950 . S
H2046 C2054 0.950 1_655 S
H2047 C2056 0.950 . S
H2048 C2058 0.950 . S
H2049 C2060 0.950 . S
H2050 C2062 0.950 . S
H2051 C2063 0.950 . S
C2052 H2044 0.950 . S
C2052 C2053 1.386 . S
C2052 C2054 1.391 . S
C2053 C2052 1.386 . S
C2053 C2057 1.393 . S
C2054 H2046 0.950 1_455 S
C2054 C2052 1.391 . S
C2054 C2055 1.400 . S
C2055 C2054 1.400 . S
C2055 C2056 1.398 . S
C2055 C2061 1.491 1_455 S
C2056 H2047 0.950 . S
C2056 C2055 1.398 . S
C2056 C2057 1.391 . S
C2057 H2045 0.950 . S
C2057 C2053 1.393 . S
C2057 C2056 1.391 . S
C2058 H2048 0.950 . S
C2058 C2059 1.386 . S
C2058 C2060 1.391 . S
C2059 C2058 1.386 . S
C2059 C2063 1.393 . S
C2060 H2049 0.950 . S
C2060 C2058 1.391 . S
C2060 C2061 1.400 . S
C2061 C2055 1.491 1_655 S
C2061 C2060 1.400 . S
C2061 C2062 1.398 . S
C2062 H2050 0.950 . S
C2062 C2061 1.398 . S
C2062 C2063 1.391 . S
C2063 H2051 0.950 . S
C2063 C2059 1.393 . S
C2063 C2062 1.391 . S
H2064 C2072 0.950 . S
H2065 C2077 0.950 . S
H2066 C2074 0.950 . S
H2067 C2076 0.950 . S
H2068 C2078 0.950 . S
H2069 C2080 0.950 . S
H2070 C2082 0.950 . S
H2071 C2083 0.950 . S
C2072 H2064 0.950 . S
C2072 C2073 1.386 . S
C2072 C2074 1.391 . S
C2073 C2072 1.386 . S
C2073 C2077 1.393 . S
C2074 H2066 0.950 . S
C2074 C2072 1.391 . S
C2074 C2075 1.400 . S
C2075 C2074 1.400 . S
C2075 C2076 1.398 . S
C2075 C2081 1.491 . S
C2076 H2067 0.950 . S
C2076 C2075 1.398 . S
C2076 C2077 1.391 . S
C2077 H2065 0.950 . S
C2077 C2073 1.393 . S
C2077 C2076 1.391 . S
C2078 H2068 0.950 . S
C2078 C2079 1.386 . S
C2078 C2080 1.391 . S
C2079 C2078 1.386 . S
C2079 C2083 1.393 . S
C2080 H2069 0.950 . S
C2080 C2078 1.391 . S
C2080 C2081 1.400 . S
C2081 C2075 1.491 . S
C2081 C2080 1.400 . S
C2081 C2082 1.398 . S
C2082 H2070 0.950 . S
C2082 C2081 1.398 . S
C2082 C2083 1.391 . S
C2083 H2071 0.950 . S
C2083 C2079 1.393 . S
C2083 C2082 1.391 . S
H2084 C2092 0.950 . S
H2085 C2097 0.950 . S
H2086 C2094 0.950 . S
H2087 C2096 0.950 . S
H2088 C2098 0.950 . S
H2089 C2100 0.950 . S
H2090 C2102 0.950 . S
H2091 C2103 0.950 . S
C2092 H2084 0.950 . S
C2092 C2093 1.386 . S
C2092 C2094 1.391 . S
C2093 C2092 1.386 . S
C2093 C2097 1.393 . S
C2094 H2086 0.950 . S
C2094 C2092 1.391 . S
C2094 C2095 1.400 . S
C2095 C2094 1.400 . S
C2095 C2096 1.398 . S
C2095 C2101 1.491 . S
C2096 H2087 0.950 . S
C2096 C2095 1.398 . S
C2096 C2097 1.391 . S
C2097 H2085 0.950 . S
C2097 C2093 1.393 . S
C2097 C2096 1.391 . S
C2098 H2088 0.950 . S
C2098 C2099 1.386 . S
C2098 C2100 1.391 . S
C2099 C2098 1.386 . S
C2099 C2103 1.393 . S
C2100 H2089 0.950 . S
C2100 C2098 1.391 . S
C2100 C2101 1.400 . S
C2101 C2095 1.491 . S
C2101 C2100 1.400 . S
C2101 C2102 1.398 . S
C2102 H2090 0.950 . S
C2102 C2101 1.398 . S
C2102 C2103 1.391 . S
C2103 H2091 0.950 . S
C2103 C2099 1.393 . S
C2103 C2102 1.391 . S
H2104 C2112 0.950 . S
H2105 C2117 0.950 . S
H2106 C2114 0.950 . S
H2107 C2116 0.950 . S
H2108 C2118 0.950 . S
H2109 C2120 0.950 . S
H2110 C2122 0.950 . S
H2111 C2123 0.950 . S
C2112 H2104 0.950 . S
C2112 C2113 1.386 . S
C2112 C2114 1.391 . S
C2113 C2112 1.386 . S
C2113 C2117 1.393 . S
C2114 H2106 0.950 . S
C2114 C2112 1.391 . S
C2114 C2115 1.400 . S
C2115 C2114 1.400 . S
C2115 C2116 1.398 . S
C2115 C2121 1.491 . S
C2116 H2107 0.950 . S
C2116 C2115 1.398 . S
C2116 C2117 1.391 . S
C2117 H2105 0.950 . S
C2117 C2113 1.393 . S
C2117 C2116 1.391 . S
C2118 H2108 0.950 . S
C2118 C2119 1.386 . S
C2118 C2120 1.391 . S
C2119 C2118 1.386 . S
C2119 C2123 1.393 . S
C2120 H2109 0.950 . S
C2120 C2118 1.391 . S
C2120 C2121 1.400 . S
C2121 C2115 1.491 . S
C2121 C2120 1.400 . S
C2121 C2122 1.398 . S
C2122 H2110 0.950 . S
C2122 C2121 1.398 . S
C2122 C2123 1.391 . S
C2123 H2111 0.950 . S
C2123 C2119 1.393 . S
C2123 C2122 1.391 . S
H2124 C2132 0.950 . S
H2125 C2137 0.950 . S
H2126 C2134 0.950 . S
H2127 C2136 0.950 . S
H2128 C2138 0.950 . S
H2129 C2140 0.950 . S
H2130 C2142 0.950 . S
H2131 C2143 0.950 . S
C2132 H2124 0.950 . S
C2132 C2133 1.386 . S
C2132 C2134 1.391 . S
C2133 C2132 1.386 . S
C2133 C2137 1.393 . S
C2134 H2126 0.950 . S
C2134 C2132 1.391 . S
C2134 C2135 1.400 . S
C2135 C2134 1.400 . S
C2135 C2136 1.398 . S
C2135 C2141 1.491 . S
C2136 H2127 0.950 . S
C2136 C2135 1.398 . S
C2136 C2137 1.391 . S
C2137 H2125 0.950 . S
C2137 C2133 1.393 . S
C2137 C2136 1.391 . S
C2138 H2128 0.950 . S
C2138 C2139 1.386 . S
C2138 C2140 1.391 . S
C2139 C2138 1.386 . S
C2139 C2143 1.393 . S
C2140 H2129 0.950 . S
C2140 C2138 1.391 . S
C2140 C2141 1.400 . S
C2141 C2135 1.491 . S
C2141 C2140 1.400 . S
C2141 C2142 1.398 . S
C2142 H2130 0.950 . S
C2142 C2141 1.398 . S
C2142 C2143 1.391 . S
C2143 H2131 0.950 . S
C2143 C2139 1.393 . S
C2143 C2142 1.391 . S
H2144 C2152 0.950 . S
H2145 C2157 0.950 . S
H2146 C2154 0.950 . S
H2147 C2156 0.950 . S
H2148 C2158 0.950 . S
H2149 C2160 0.950 . S
H2150 C2162 0.950 . S
H2151 C2163 0.950 . S
C2152 H2144 0.950 . S
C2152 C2153 1.386 . S
C2152 C2154 1.391 . S
C2153 C2152 1.386 . S
C2153 C2157 1.393 . S
C2154 H2146 0.950 . S
C2154 C2152 1.391 . S
C2154 C2155 1.400 . S
C2155 C2154 1.400 . S
C2155 C2156 1.398 . S
C2155 C2161 1.491 . S
C2156 H2147 0.950 . S
C2156 C2155 1.398 . S
C2156 C2157 1.391 . S
C2157 H2145 0.950 . S
C2157 C2153 1.393 . S
C2157 C2156 1.391 . S
C2158 H2148 0.950 . S
C2158 C2159 1.386 . S
C2158 C2160 1.391 . S
C2159 C2158 1.386 . S
C2159 C2163 1.393 . S
C2160 H2149 0.950 . S
C2160 C2158 1.391 . S
C2160 C2161 1.400 . S
C2161 C2155 1.491 . S
C2161 C2160 1.400 . S
C2161 C2162 1.398 . S
C2162 H2150 0.950 . S
C2162 C2161 1.398 . S
C2162 C2163 1.391 . S
C2163 H2151 0.950 . S
C2163 C2159 1.393 . S
C2163 C2162 1.391 . S
H2164 C2172 0.950 . S
H2165 C2177 0.950 . S
H2166 C2174 0.950 . S
H2167 C2176 0.950 . S
H2168 C2178 0.950 . S
H2169 C2180 0.950 . S
H2170 C2182 0.950 . S
H2171 C2183 0.950 . S
C2172 H2164 0.950 . S
C2172 C2173 1.386 . S
C2172 C2174 1.391 . S
C2173 C2172 1.386 . S
C2173 C2177 1.393 . S
C2174 H2166 0.950 . S
C2174 C2172 1.391 . S
C2174 C2175 1.400 . S
C2175 C2174 1.400 . S
C2175 C2176 1.398 . S
C2175 C2181 1.491 . S
C2176 H2167 0.950 . S
C2176 C2175 1.398 . S
C2176 C2177 1.391 . S
C2177 H2165 0.950 . S
C2177 C2173 1.393 . S
C2177 C2176 1.391 . S
C2178 H2168 0.950 . S
C2178 C2179 1.386 . S
C2178 C2180 1.391 . S
C2179 C2178 1.386 . S
C2179 C2183 1.393 . S
C2180 H2169 0.950 . S
C2180 C2178 1.391 . S
C2180 C2181 1.400 . S
C2181 C2175 1.491 . S
C2181 C2180 1.400 . S
C2181 C2182 1.398 . S
C2182 H2170 0.950 . S
C2182 C2181 1.398 . S
C2182 C2183 1.391 . S
C2183 H2171 0.950 . S
C2183 C2179 1.393 . S
C2183 C2182 1.391 . S
H2184 C2192 0.950 . S
H2185 C2197 0.950 . S
H2186 C2194 0.950 . S
H2187 C2196 0.950 . S
H2188 C2198 0.950 . S
H2189 C2200 0.950 . S
H2190 C2202 0.950 . S
H2191 C2203 0.950 . S
C2192 H2184 0.950 . S
C2192 C2193 1.386 . S
C2192 C2194 1.391 . S
C2193 C2192 1.386 . S
C2193 C2197 1.393 . S
C2194 H2186 0.950 . S
C2194 C2192 1.391 . S
C2194 C2195 1.400 . S
C2195 C2194 1.400 . S
C2195 C2196 1.398 . S
C2195 C2201 1.491 . S
C2196 H2187 0.950 . S
C2196 C2195 1.398 . S
C2196 C2197 1.391 . S
C2197 H2185 0.950 . S
C2197 C2193 1.393 . S
C2197 C2196 1.391 . S
C2198 H2188 0.950 . S
C2198 C2199 1.386 . S
C2198 C2200 1.391 . S
C2199 C2198 1.386 . S
C2199 C2203 1.393 . S
C2200 H2189 0.950 . S
C2200 C2198 1.391 . S
C2200 C2201 1.400 . S
C2201 C2195 1.491 . S
C2201 C2200 1.400 . S
C2201 C2202 1.398 . S
C2202 H2190 0.950 . S
C2202 C2201 1.398 . S
C2202 C2203 1.391 . S
C2203 H2191 0.950 . S
C2203 C2199 1.393 . S
C2203 C2202 1.391 . S
H2204 C2212 0.950 . S
H2205 C2217 0.950 . S
H2206 C2214 0.950 . S
H2207 C2216 0.950 . S
H2208 C2218 0.950 . S
H2209 C2220 0.950 . S
H2210 C2222 0.950 . S
H2211 C2223 0.950 . S
C2212 H2204 0.950 . S
C2212 C2213 1.386 . S
C2212 C2214 1.391 . S
C2213 C2212 1.386 . S
C2213 C2217 1.393 . S
C2214 H2206 0.950 . S
C2214 C2212 1.391 . S
C2214 C2215 1.400 . S
C2215 C2214 1.400 . S
C2215 C2216 1.398 . S
C2215 C2221 1.491 . S
C2216 H2207 0.950 . S
C2216 C2215 1.398 . S
C2216 C2217 1.391 . S
C2217 H2205 0.950 . S
C2217 C2213 1.393 . S
C2217 C2216 1.391 . S
C2218 H2208 0.950 . S
C2218 C2219 1.386 . S
C2218 C2220 1.391 . S
C2219 C2218 1.386 . S
C2219 C2223 1.393 . S
C2220 H2209 0.950 . S
C2220 C2218 1.391 . S
C2220 C2221 1.400 . S
C2221 C2215 1.491 . S
C2221 C2220 1.400 . S
C2221 C2222 1.398 . S
C2222 H2210 0.950 . S
C2222 C2221 1.398 . S
C2222 C2223 1.391 . S
C2223 H2211 0.950 . S
C2223 C2219 1.393 . S
C2223 C2222 1.391 . S
H2224 C2232 0.950 . S
H2225 C2237 0.950 . S
H2226 C2234 0.950 . S
H2227 C2236 0.950 . S
H2228 C2238 0.950 . S
H2229 C2240 0.950 . S
H2230 C2242 0.950 . S
H2231 C2243 0.950 . S
C2232 H2224 0.950 . S
C2232 C2233 1.386 . S
C2232 C2234 1.391 . S
C2233 C2232 1.386 . S
C2233 C2237 1.393 . S
C2234 H2226 0.950 . S
C2234 C2232 1.391 . S
C2234 C2235 1.400 . S
C2235 C2234 1.400 . S
C2235 C2236 1.398 . S
C2235 C2241 1.491 . S
C2236 H2227 0.950 . S
C2236 C2235 1.398 . S
C2236 C2237 1.391 . S
C2237 H2225 0.950 . S
C2237 C2233 1.393 . S
C2237 C2236 1.391 . S
C2238 H2228 0.950 . S
C2238 C2239 1.386 . S
C2238 C2240 1.391 . S
C2239 C2238 1.386 . S
C2239 C2243 1.393 . S
C2240 H2229 0.950 . S
C2240 C2238 1.391 . S
C2240 C2241 1.400 . S
C2241 C2235 1.491 . S
C2241 C2240 1.400 . S
C2241 C2242 1.398 . S
C2242 H2230 0.950 . S
C2242 C2241 1.398 . S
C2242 C2243 1.391 . S
C2243 H2231 0.950 . S
C2243 C2239 1.393 . S
C2243 C2242 1.391 . S
H2244 C2252 0.950 . S
H2245 C2257 0.950 . S
H2246 C2254 0.950 . S
H2247 C2256 0.950 . S
H2248 C2258 0.950 . S
H2249 C2260 0.950 . S
H2250 C2262 0.950 . S
H2251 C2263 0.950 . S
C2252 H2244 0.950 . S
C2252 C2253 1.386 . S
C2252 C2254 1.391 . S
C2253 C2252 1.386 . S
C2253 C2257 1.393 . S
C2254 H2246 0.950 . S
C2254 C2252 1.391 . S
C2254 C2255 1.400 . S
C2255 C2254 1.400 . S
C2255 C2256 1.398 . S
C2255 C2261 1.491 . S
C2256 H2247 0.950 . S
C2256 C2255 1.398 . S
C2256 C2257 1.391 . S
C2257 H2245 0.950 . S
C2257 C2253 1.393 . S
C2257 C2256 1.391 . S
C2258 H2248 0.950 . S
C2258 C2259 1.386 . S
C2258 C2260 1.391 . S
C2259 C2258 1.386 . S
C2259 C2263 1.393 . S
C2260 H2249 0.950 . S
C2260 C2258 1.391 . S
C2260 C2261 1.400 . S
C2261 C2255 1.491 . S
C2261 C2260 1.400 . S
C2261 C2262 1.398 . S
C2262 H2250 0.950 . S
C2262 C2261 1.398 . S
C2262 C2263 1.391 . S
C2263 H2251 0.950 . S
C2263 C2259 1.393 . S
C2263 C2262 1.391 . S
H2264 C2272 0.950 . S
H2265 C2277 0.950 . S
H2266 C2274 0.950 . S
H2267 C2276 0.950 . S
H2268 C2278 0.950 . S
H2269 C2280 0.950 . S
H2270 C2282 0.950 . S
H2271 C2283 0.950 . S
C2272 H2264 0.950 . S
C2272 C2273 1.386 . S
C2272 C2274 1.391 . S
C2273 C2272 1.386 . S
C2273 C2277 1.393 . S
C2274 H2266 0.950 . S
C2274 C2272 1.391 . S
C2274 C2275 1.400 . S
C2275 C2274 1.400 . S
C2275 C2276 1.398 . S
C2275 C2281 1.491 . S
C2276 H2267 0.950 . S
C2276 C2275 1.398 . S
C2276 C2277 1.391 . S
C2277 H2265 0.950 . S
C2277 C2273 1.393 . S
C2277 C2276 1.391 . S
C2278 H2268 0.950 . S
C2278 C2279 1.386 . S
C2278 C2280 1.391 . S
C2279 C2278 1.386 . S
C2279 C2283 1.393 . S
C2280 H2269 0.950 . S
C2280 C2278 1.391 . S
C2280 C2281 1.400 . S
C2281 C2275 1.491 . S
C2281 C2280 1.400 . S
C2281 C2282 1.398 . S
C2282 H2270 0.950 . S
C2282 C2281 1.398 . S
C2282 C2283 1.391 . S
C2283 H2271 0.950 . S
C2283 C2279 1.393 . S
C2283 C2282 1.391 . S
H2284 C2292 0.950 . S
H2285 C2297 0.950 . S
H2286 C2294 0.950 . S
H2287 C2296 0.950 . S
H2288 C2298 0.950 . S
H2289 C2300 0.950 . S
H2290 C2302 0.950 . S
H2291 C2303 0.950 . S
C2292 H2284 0.950 . S
C2292 C2293 1.386 . S
C2292 C2294 1.391 . S
C2293 C2292 1.386 . S
C2293 C2297 1.393 . S
C2294 H2286 0.950 . S
C2294 C2292 1.391 . S
C2294 C2295 1.400 . S
C2295 C2294 1.400 . S
C2295 C2296 1.398 . S
C2295 C2301 1.491 . S
C2296 H2287 0.950 . S
C2296 C2295 1.398 . S
C2296 C2297 1.391 . S
C2297 H2285 0.950 . S
C2297 C2293 1.393 . S
C2297 C2296 1.391 . S
C2298 H2288 0.950 . S
C2298 C2299 1.386 . S
C2298 C2300 1.391 . S
C2299 C2298 1.386 . S
C2299 C2303 1.393 . S
C2300 H2289 0.950 . S
C2300 C2298 1.391 . S
C2300 C2301 1.400 . S
C2301 C2295 1.491 . S
C2301 C2300 1.400 . S
C2301 C2302 1.398 . S
C2302 H2290 0.950 . S
C2302 C2301 1.398 . S
C2302 C2303 1.391 . S
C2303 H2291 0.950 . S
C2303 C2299 1.393 . S
C2303 C2302 1.391 . S
H2304 C2312 0.950 . S
H2305 C2317 0.950 . S
H2306 C2314 0.950 . S
H2307 C2316 0.950 . S
H2308 C2318 0.950 . S
H2309 C2320 0.950 . S
H2310 C2322 0.950 . S
H2311 C2323 0.950 . S
C2312 H2304 0.950 . S
C2312 C2313 1.386 . S
C2312 C2314 1.391 . S
C2313 C2312 1.386 . S
C2313 C2317 1.393 . S
C2314 H2306 0.950 . S
C2314 C2312 1.391 . S
C2314 C2315 1.400 . S
C2315 C2314 1.400 . S
C2315 C2316 1.398 . S
C2315 C2321 1.491 . S
C2316 H2307 0.950 . S
C2316 C2315 1.398 . S
C2316 C2317 1.391 . S
C2317 H2305 0.950 . S
C2317 C2313 1.393 . S
C2317 C2316 1.391 . S
C2318 H2308 0.950 . S
C2318 C2319 1.386 . S
C2318 C2320 1.391 . S
C2319 C2318 1.386 . S
C2319 C2323 1.393 . S
C2320 H2309 0.950 . S
C2320 C2318 1.391 . S
C2320 C2321 1.400 . S
C2321 C2315 1.491 . S
C2321 C2320 1.400 . S
C2321 C2322 1.398 . S
C2322 H2310 0.950 . S
C2322 C2321 1.398 . S
C2322 C2323 1.391 . S
C2323 H2311 0.950 . S
C2323 C2319 1.393 . S
C2323 C2322 1.391 . S
H2324 C2332 0.950 . S
H2325 C2337 0.950 . S
H2326 C2334 0.950 . S
H2327 C2336 0.950 . S
H2328 C2338 0.950 . S
H2329 C2340 0.950 . S
H2330 C2342 0.950 . S
H2331 C2343 0.950 . S
C2332 H2324 0.950 . S
C2332 C2333 1.386 . S
C2332 C2334 1.391 . S
C2333 C2332 1.386 . S
C2333 C2337 1.393 . S
C2334 H2326 0.950 . S
C2334 C2332 1.391 . S
C2334 C2335 1.400 . S
C2335 C2334 1.400 . S
C2335 C2336 1.398 . S
C2335 C2341 1.491 . S
C2336 H2327 0.950 . S
C2336 C2335 1.398 . S
C2336 C2337 1.391 . S
C2337 H2325 0.950 . S
C2337 C2333 1.393 . S
C2337 C2336 1.391 . S
C2338 H2328 0.950 . S
C2338 C2339 1.386 . S
C2338 C2340 1.391 . S
C2339 C2338 1.386 . S
C2339 C2343 1.393 . S
C2340 H2329 0.950 . S
C2340 C2338 1.391 . S
C2340 C2341 1.400 . S
C2341 C2335 1.491 . S
C2341 C2340 1.400 . S
C2341 C2342 1.398 . S
C2342 H2330 0.950 . S
C2342 C2341 1.398 . S
C2342 C2343 1.391 . S
C2343 H2331 0.950 . S
C2343 C2339 1.393 . S
C2343 C2342 1.391 . S
H2344 C2352 0.950 . S
H2345 C2357 0.950 . S
H2346 C2354 0.950 . S
H2347 C2356 0.950 . S
H2348 C2358 0.950 . S
H2349 C2360 0.950 . S
H2350 C2362 0.950 . S
H2351 C2363 0.950 . S
C2352 H2344 0.950 . S
C2352 C2353 1.386 . S
C2352 C2354 1.391 . S
C2353 C2352 1.386 . S
C2353 C2357 1.393 . S
C2354 H2346 0.950 . S
C2354 C2352 1.391 . S
C2354 C2355 1.400 . S
C2355 C2354 1.400 . S
C2355 C2356 1.398 . S
C2355 C2361 1.491 . S
C2356 H2347 0.950 . S
C2356 C2355 1.398 . S
C2356 C2357 1.391 . S
C2357 H2345 0.950 . S
C2357 C2353 1.393 . S
C2357 C2356 1.391 . S
C2358 H2348 0.950 . S
C2358 C2359 1.386 . S
C2358 C2360 1.391 . S
C2359 C2358 1.386 . S
C2359 C2363 1.393 . S
C2360 H2349 0.950 . S
C2360 C2358 1.391 . S
C2360 C2361 1.400 . S
C2361 C2355 1.491 . S
C2361 C2360 1.400 . S
C2361 C2362 1.398 . S
C2362 H2350 0.950 . S
C2362 C2361 1.398 . S
C2362 C2363 1.391 . S
C2363 H2351 0.950 . S
C2363 C2359 1.393 . S
C2363 C2362 1.391 . S
H2364 C2372 0.950 . S
H2365 C2377 0.950 . S
H2366 C2374 0.950 . S
H2367 C2376 0.950 . S
H2368 C2378 0.950 . S
H2369 C2380 0.950 . S
H2370 C2382 0.950 . S
H2371 C2383 0.950 . S
C2372 H2364 0.950 . S
C2372 C2373 1.386 . S
C2372 C2374 1.391 . S
C2373 C2372 1.386 . S
C2373 C2377 1.393 . S
C2374 H2366 0.950 . S
C2374 C2372 1.391 . S
C2374 C2375 1.400 . S
C2375 C2374 1.400 . S
C2375 C2376 1.398 . S
C2375 C2381 1.491 . S
C2376 H2367 0.950 . S
C2376 C2375 1.398 . S
C2376 C2377 1.391 . S
C2377 H2365 0.950 . S
C2377 C2373 1.393 . S
C2377 C2376 1.391 . S
C2378 H2368 0.950 . S
C2378 C2379 1.386 . S
C2378 C2380 1.391 . S
C2379 C2378 1.386 . S
C2379 C2383 1.393 . S
C2380 H2369 0.950 . S
C2380 C2378 1.391 . S
C2380 C2381 1.400 . S
C2381 C2375 1.491 . S
C2381 C2380 1.400 . S
C2381 C2382 1.398 . S
C2382 H2370 0.950 . S
C2382 C2381 1.398 . S
C2382 C2383 1.391 . S
C2383 H2371 0.950 . S
C2383 C2379 1.393 . S
C2383 C2382 1.391 . S
H2384 C2392 0.950 . S
H2385 C2397 0.950 . S
H2386 C2394 0.950 . S
H2387 C2396 0.950 . S
H2388 C2398 0.950 . S
H2389 C2400 0.950 . S
H2390 C2402 0.950 . S
H2391 C2403 0.950 . S
C2392 H2384 0.950 . S
C2392 C2393 1.386 . S
C2392 C2394 1.391 . S
C2393 C2392 1.386 . S
C2393 C2397 1.393 . S
C2394 H2386 0.950 . S
C2394 C2392 1.391 . S
C2394 C2395 1.400 . S
C2395 C2394 1.400 . S
C2395 C2396 1.398 . S
C2395 C2401 1.491 . S
C2396 H2387 0.950 . S
C2396 C2395 1.398 . S
C2396 C2397 1.391 . S
C2397 H2385 0.950 . S
C2397 C2393 1.393 . S
C2397 C2396 1.391 . S
C2398 H2388 0.950 . S
C2398 C2399 1.386 . S
C2398 C2400 1.391 . S
C2399 C2398 1.386 . S
C2399 C2403 1.393 . S
C2400 H2389 0.950 . S
C2400 C2398 1.391 . S
C2400 C2401 1.400 . S
C2401 C2395 1.491 . S
C2401 C2400 1.400 . S
C2401 C2402 1.398 . S
C2402 H2390 0.950 . S
C2402 C2401 1.398 . S
C2402 C2403 1.391 . S
C2403 H2391 0.950 . S
C2403 C2399 1.393 . S
C2403 C2402 1.391 . S
H2404 C2412 0.950 . S
H2405 C2417 0.950 . S
H2406 C2414 0.950 . S
H2407 C2416 0.950 . S
H2408 C2418 0.950 . S
H2409 C2420 0.950 . S
H2410 C2422 0.950 . S
H2411 C2423 0.950 . S
C2412 H2404 0.950 . S
C2412 C2413 1.386 . S
C2412 C2414 1.391 . S
C2413 C2412 1.386 . S
C2413 C2417 1.393 . S
C2414 H2406 0.950 . S
C2414 C2412 1.391 . S
C2414 C2415 1.400 . S
C2415 C2414 1.400 . S
C2415 C2416 1.398 . S
C2415 C2421 1.491 . S
C2416 H2407 0.950 . S
C2416 C2415 1.398 . S
C2416 C2417 1.391 . S
C2417 H2405 0.950 . S
C2417 C2413 1.393 . S
C2417 C2416 1.391 . S
C2418 H2408 0.950 . S
C2418 C2419 1.386 . S
C2418 C2420 1.391 . S
C2419 C2418 1.386 . S
C2419 C2423 1.393 . S
C2420 H2409 0.950 . S
C2420 C2418 1.391 . S
C2420 C2421 1.400 . S
C2421 C2415 1.491 . S
C2421 C2420 1.400 . S
C2421 C2422 1.398 . S
C2422 H2410 0.950 . S
C2422 C2421 1.398 . S
C2422 C2423 1.391 . S
C2423 H2411 0.950 . S
C2423 C2419 1.393 . S
C2423 C2422 1.391 . S
H2424 C2432 0.950 . S
H2425 C2437 0.950 . S
H2426 C2434 0.950 . S
H2427 C2436 0.950 . S
H2428 C2438 0.950 . S
H2429 C2440 0.950 . S
H2430 C2442 0.950 . S
H2431 C2443 0.950 . S
C2432 H2424 0.950 . S
C2432 C2433 1.386 . S
C2432 C2434 1.391 . S
C2433 C2432 1.386 . S
C2433 C2437 1.393 . S
C2434 H2426 0.950 . S
C2434 C2432 1.391 . S
C2434 C2435 1.400 . S
C2435 C2434 1.400 . S
C2435 C2436 1.398 . S
C2435 C2441 1.491 . S
C2436 H2427 0.950 . S
C2436 C2435 1.398 . S
C2436 C2437 1.391 . S
C2437 H2425 0.950 . S
C2437 C2433 1.393 . S
C2437 C2436 1.391 . S
C2438 H2428 0.950 . S
C2438 C2439 1.386 . S
C2438 C2440 1.391 . S
C2439 C2438 1.386 . S
C2439 C2443 1.393 . S
C2440 H2429 0.950 . S
C2440 C2438 1.391 . S
C2440 C2441 1.400 . S
C2441 C2435 1.491 . S
C2441 C2440 1.400 . S
C2441 C2442 1.398 . S
C2442 H2430 0.950 . S
C2442 C2441 1.398 . S
C2442 C2443 1.391 . S
C2443 H2431 0.950 . S
C2443 C2439 1.393 . S
C2443 C2442 1.391 . S
H2444 C2452 0.950 . S
H2445 C2457 0.950 . S
H2446 C2454 0.950 . S
H2447 C2456 0.950 . S
H2448 C2458 0.950 . S
H2449 C2460 0.950 . S
H2450 C2462 0.950 . S
H2451 C2463 0.950 . S
C2452 H2444 0.950 . S
C2452 C2453 1.386 . S
C2452 C2454 1.391 . S
C2453 C2452 1.386 . S
C2453 C2457 1.393 . S
C2454 H2446 0.950 . S
C2454 C2452 1.391 . S
C2454 C2455 1.400 . S
C2455 C2454 1.400 . S
C2455 C2456 1.398 . S
C2455 C2461 1.491 . S
C2456 H2447 0.950 . S
C2456 C2455 1.398 . S
C2456 C2457 1.391 . S
C2457 H2445 0.950 . S
C2457 C2453 1.393 . S
C2457 C2456 1.391 . S
C2458 H2448 0.950 . S
C2458 C2459 1.386 . S
C2458 C2460 1.391 . S
C2459 C2458 1.386 . S
C2459 C2463 1.393 . S
C2460 H2449 0.950 . S
C2460 C2458 1.391 . S
C2460 C2461 1.400 . S
C2461 C2455 1.491 . S
C2461 C2460 1.400 . S
C2461 C2462 1.398 . S
C2462 H2450 0.950 . S
C2462 C2461 1.398 . S
C2462 C2463 1.391 . S
C2463 H2451 0.950 . S
C2463 C2459 1.393 . S
C2463 C2462 1.391 . S
H2464 C2472 0.950 . S
H2465 C2477 0.950 . S
H2466 C2474 0.950 . S
H2467 C2476 0.950 . S
H2468 C2478 0.950 . S
H2469 C2480 0.950 . S
H2470 C2482 0.950 . S
H2471 C2483 0.950 . S
C2472 H2464 0.950 . S
C2472 C2473 1.386 . S
C2472 C2474 1.391 . S
C2473 C2472 1.386 . S
C2473 C2477 1.393 . S
C2474 H2466 0.950 . S
C2474 C2472 1.391 . S
C2474 C2475 1.400 . S
C2475 C2474 1.400 . S
C2475 C2476 1.398 . S
C2475 C2481 1.491 . S
C2476 H2467 0.950 . S
C2476 C2475 1.398 . S
C2476 C2477 1.391 . S
C2477 H2465 0.950 . S
C2477 C2473 1.393 . S
C2477 C2476 1.391 . S
C2478 H2468 0.950 . S
C2478 C2479 1.386 . S
C2478 C2480 1.391 . S
C2479 C2478 1.386 . S
C2479 C2483 1.393 . S
C2480 H2469 0.950 . S
C2480 C2478 1.391 . S
C2480 C2481 1.400 . S
C2481 C2475 1.491 . S
C2481 C2480 1.400 . S
C2481 C2482 1.398 . S
C2482 H2470 0.950 . S
C2482 C2481 1.398 . S
C2482 C2483 1.391 . S
C2483 H2471 0.950 . S
C2483 C2479 1.393 . S
C2483 C2482 1.391 . S
H2484 C2492 0.950 . S
H2485 C2497 0.950 . S
H2486 C2494 0.950 . S
H2487 C2496 0.950 . S
H2488 C2498 0.950 . S
H2489 C2500 0.950 . S
H2490 C2502 0.950 . S
H2491 C2503 0.950 . S
C2492 H2484 0.950 . S
C2492 C2493 1.386 . S
C2492 C2494 1.391 . S
C2493 C2492 1.386 . S
C2493 C2497 1.393 . S
C2494 H2486 0.950 . S
C2494 C2492 1.391 . S
C2494 C2495 1.400 . S
C2495 C2494 1.400 . S
C2495 C2496 1.398 . S
C2495 C2501 1.491 . S
C2496 H2487 0.950 . S
C2496 C2495 1.398 . S
C2496 C2497 1.391 . S
C2497 H2485 0.950 . S
C2497 C2493 1.393 . S
C2497 C2496 1.391 . S
C2498 H2488 0.950 . S
C2498 C2499 1.386 . S
C2498 C2500 1.391 . S
C2499 C2498 1.386 . S
C2499 C2503 1.393 . S
C2500 H2489 0.950 . S
C2500 C2498 1.391 . S
C2500 C2501 1.400 . S
C2501 C2495 1.491 . S
C2501 C2500 1.400 . S
C2501 C2502 1.398 . S
C2502 H2490 0.950 . S
C2502 C2501 1.398 . S
C2502 C2503 1.391 . S
C2503 H2491 0.950 . S
C2503 C2499 1.393 . S
C2503 C2502 1.391 . S
H2504 C2512 0.950 . S
H2505 C2517 0.950 . S
H2506 C2514 0.950 . S
H2507 C2516 0.950 . S
H2508 C2518 0.950 . S
H2509 C2520 0.950 . S
H2510 C2522 0.950 . S
H2511 C2523 0.950 . S
C2512 H2504 0.950 . S
C2512 C2513 1.386 . S
C2512 C2514 1.391 . S
C2513 C2512 1.386 . S
C2513 C2517 1.393 . S
C2514 H2506 0.950 . S
C2514 C2512 1.391 . S
C2514 C2515 1.400 . S
C2515 C2514 1.400 . S
C2515 C2516 1.398 . S
C2515 C2521 1.491 . S
C2516 H2507 0.950 . S
C2516 C2515 1.398 . S
C2516 C2517 1.391 . S
C2517 H2505 0.950 . S
C2517 C2513 1.393 . S
C2517 C2516 1.391 . S
C2518 H2508 0.950 . S
C2518 C2519 1.386 . S
C2518 C2520 1.391 . S
C2519 C2518 1.386 . S
C2519 C2523 1.393 . S
C2520 H2509 0.950 . S
C2520 C2518 1.391 . S
C2520 C2521 1.400 . S
C2521 C2515 1.491 . S
C2521 C2520 1.400 . S
C2521 C2522 1.398 . S
C2522 H2510 0.950 . S
C2522 C2521 1.398 . S
C2522 C2523 1.391 . S
C2523 H2511 0.950 . S
C2523 C2519 1.393 . S
C2523 C2522 1.391 . S
H2524 C2532 0.950 . S
H2525 C2537 0.950 . S
H2526 C2534 0.950 . S
H2527 C2536 0.950 . S
H2528 C2538 0.950 . S
H2529 C2540 0.950 . S
H2530 C2542 0.950 . S
H2531 C2543 0.950 . S
C2532 H2524 0.950 . S
C2532 C2533 1.386 . S
C2532 C2534 1.391 . S
C2533 C2532 1.386 . S
C2533 C2537 1.393 . S
C2534 H2526 0.950 . S
C2534 C2532 1.391 . S
C2534 C2535 1.400 . S
C2535 C2534 1.400 . S
C2535 C2536 1.398 . S
C2535 C2541 1.491 . S
C2536 H2527 0.950 . S
C2536 C2535 1.398 . S
C2536 C2537 1.391 . S
C2537 H2525 0.950 . S
C2537 C2533 1.393 . S
C2537 C2536 1.391 . S
C2538 H2528 0.950 . S
C2538 C2539 1.386 . S
C2538 C2540 1.391 . S
C2539 C2538 1.386 . S
C2539 C2543 1.393 . S
C2540 H2529 0.950 . S
C2540 C2538 1.391 . S
C2540 C2541 1.400 . S
C2541 C2535 1.491 . S
C2541 C2540 1.400 . S
C2541 C2542 1.398 . S
C2542 H2530 0.950 . S
C2542 C2541 1.398 . S
C2542 C2543 1.391 . S
C2543 H2531 0.950 . S
C2543 C2539 1.393 . S
C2543 C2542 1.391 . S
C633 C122 2.005 . S
C639 C5 2.012 . S
C653 C135 2.013 . S
C659 C18 2.002 . S
C673 C148 2.010 . S
C679 C31 2.002 . S
C693 C109 2.011 . S
C699 C44 2.001 . S
C713 C57 2.002 . S
C719 C200 2.013 . S
C733 C70 2.013 . S
C739 C161 2.003 . S
C753 C83 2.013 . S
C759 C174 2.002 . S
C773 C187 2.001 . S
C779 C96 2.011 . S
C793 C213 2.013 . S
C799 C239 2.003 . S
C813 C226 2.013 . S
C819 C603 2.002 . S
C833 C252 2.012 . S
C839 C616 2.004 . S
C853 C265 2.008 . S
C859 C590 2.009 . S
C873 C278 2.013 . S
C879 C577 2.002 . S
C893 C538 2.007 . S
C899 C291 2.004 . S
C913 C304 2.012 . S
C919 C564 2.001 . S
C933 C434 2.001 . S
C939 C317 2.011 . S
C953 C447 2.012 . S
C959 C330 2.005 . S
C973 C460 2.009 . S
C979 C343 2.008 . S
C993 C421 2.006 . S
C999 C356 2.011 . S
C1013 C512 2.007 . S
C1019 C369 2.010 . S
C1033 C473 2.001 . S
C1039 C382 2.011 . S
C1053 C395 2.002 . S
C1059 C486 2.013 . S
C1073 C408 2.002 . S
C1079 C499 2.013 . S
C1093 C525 2.013 . S
C1099 C551 2.002 . S
C1113 C211 1.246 . S
C1119 C10 1.246 . S
C1133 C614 1.238 . S
C1139 C23 1.229 . S
C1153 C36 1.232 . S
C1159 C276 1.254 . S
C1173 C601 1.238 . S
C1179 C49 1.228 . S
C1193 C62 1.247 . S
C1199 C536 1.247 . S
C1213 C549 1.254 . S
C1219 C75 1.248 . S
C1233 C88 1.243 . S
C1239 C562 1.243 . S
C1253 C263 1.241 . S
C1259 C101 1.225 . S
C1273 C114 1.229 . S
C1279 C3 1.238 . S
C1293 C16 1.248 . S
C1299 C127 1.225 . S
C1313 C140 1.245 . S
C1319 C29 1.245 . S
C1333 C42 1.247 . S
C1339 C153 1.247 . S
C1353 C166 1.248 . S
C1359 C55 1.249 . S
C1373 C68 1.250 . S
C1379 C179 1.248 . S
C1393 C192 1.247 . S
C1399 C81 1.256 . S
C1413 C205 1.246 . S
C1419 C94 1.246 . S
C1433 C218 1.236 . S
C1439 C107 1.256 . S
C1453 C231 1.243 . S
C1459 C471 1.257 . S
C1473 C484 1.245 . S
C1479 C244 1.224 . S
C1493 C497 1.246 . S
C1499 C257 1.224 . S
C1513 C198 1.238 . S
C1519 C270 1.230 . S
C1533 C283 1.246 . S
C1539 C133 1.257 . S
C1553 C458 1.257 . S
C1559 C296 1.240 . S
C1573 C309 1.248 . S
C1579 C432 1.252 . S
C1593 C322 1.233 . S
C1599 C523 1.238 . S
C1613 C335 1.227 . S
C1619 C302 1.250 . S
C1633 C348 1.228 . S
C1639 C588 1.239 . S
C1653 C361 1.244 . S
C1659 C289 1.244 . S
C1673 C374 1.225 . S
C1679 C224 1.247 . S
C1693 C387 1.237 . S
C1699 C237 1.239 . S
C1713 C250 1.238 . S
C1719 C400 1.231 . S
C1733 C575 1.238 . S
C1739 C413 1.228 . S
C1753 C315 1.240 . S
C1759 C426 1.238 . S
C1773 C328 1.256 . S
C1779 C439 1.246 . S
C1793 C452 1.226 . S
C1799 C341 1.249 . S
C1813 C354 1.242 . S
C1819 C465 1.242 . S
C1833 C478 1.247 . S
C1839 C367 1.256 . S
C1853 C491 1.247 . S
C1859 C380 1.256 . S
C1873 C504 1.249 . S
C1879 C393 1.254 . S
C1893 C406 1.245 . S
C1899 C517 1.246 . S
C1913 C530 1.236 . S
C1919 C419 1.256 . S
C1933 C543 1.228 . S
C1939 C159 1.251 . S
C1953 C172 1.250 . S
C1959 C556 1.226 . S
C1973 C569 1.242 . S
C1979 C185 1.242 . S
C1993 C582 1.242 . S
C1999 C510 1.242 . S
C2013 C445 1.238 . S
C2019 C595 1.229 . S
C2033 C146 1.242 . S
C2039 C608 1.242 . S
C2053 C120 1.257 . S
C2059 C621 1.241 . S
C2073 C287 1.678 . S
C2079 C1 1.678 . S
C2093 C14 1.659 . S
C2099 C521 1.659 . S
C2113 C27 1.662 . S
C2119 C300 1.662 . S
C2133 C586 1.677 . S
C2139 C40 1.677 . S
C2153 C53 1.677 . S
C2159 C235 1.678 . S
C2173 C248 1.665 . S
C2179 C66 1.666 . S
C2193 C573 1.679 . S
C2199 C79 1.679 . S
C2213 C92 1.667 . S
C2219 C222 1.666 . S
C2233 C170 1.670 . S
C2239 C105 1.669 . S
C2253 C118 1.669 . S
C2259 C183 1.669 . S
C2273 C196 1.663 . S
C2279 C131 1.664 . S
C2293 C144 1.663 . S
C2299 C157 1.663 . S
C2313 C326 1.679 . S
C2319 C209 1.679 . S
C2333 C261 1.679 . S
C2339 C391 1.679 . S
C2353 C274 1.671 . S
C2359 C352 1.670 . S
C2373 C599 1.659 . S
C2379 C313 1.659 . S
C2393 C339 1.659 . S
C2399 C612 1.659 . S
C2413 C365 1.662 . S
C2419 C547 1.662 . S
C2433 C378 1.665 . S
C2439 C560 1.665 . S
C2453 C534 1.675 . S
C2459 C404 1.674 . S
C2473 C482 1.659 . S
C2479 C417 1.659 . S
C2493 C430 1.666 . S
C2499 C495 1.665 . S
C2513 C443 1.675 . S
C2519 C508 1.675 . S
C2533 C469 1.659 . S
C2539 C456 1.659 . S
