# Generated by pormake.
# Topology smk, (6)-cn, num edge types: 1
# Building blocks:
#     Node 0, Type 0, BuildingBlock: VOLQOD_clean_sbu_1, # of connection points: 6
#     Node 1, Type 0, BuildingBlock: VOLQOD_clean_sbu_1, # of connection points: 6
#     Node 2, Type 0, BuildingBlock: VOLQOD_clean_sbu_1, # of connection points: 6
#     Node 3, Type 0, BuildingBlock: VOLQOD_clean_sbu_1, # of connection points: 6
#     Node 4, Type 0, BuildingBlock: VOLQOD_clean_sbu_1, # of connection points: 6
#     Node 5, Type 0, BuildingBlock: VOLQOD_clean_sbu_1, # of connection points: 6
#     Edge 6, Type (0, 0), BuildingBlock: FUNLAD_clean_linker_0, # of connection points: 2
#     Edge 7, Type (0, 0), BuildingBlock: FUNLAD_clean_linker_0, # of connection points: 2
#     Edge 8, Type (0, 0), BuildingBlock: FUNLAD_clean_linker_0, # of connection points: 2
#     Edge 9, Type (0, 0), BuildingBlock: FUNLAD_clean_linker_0, # of connection points: 2
#     Edge 10, Type (0, 0), BuildingBlock: FUNLAD_clean_linker_0, # of connection points: 2
#     Edge 11, Type (0, 0), BuildingBlock: FUNLAD_clean_linker_0, # of connection points: 2
#     Edge 12, Type (0, 0), BuildingBlock: FUNLAD_clean_linker_0, # of connection points: 2
#     Edge 13, Type (0, 0), BuildingBlock: FUNLAD_clean_linker_0, # of connection points: 2
#     Edge 14, Type (0, 0), BuildingBlock: FUNLAD_clean_linker_0, # of connection points: 2
#     Edge 15, Type (0, 0), BuildingBlock: FUNLAD_clean_linker_0, # of connection points: 2
#     Edge 16, Type (0, 0), BuildingBlock: FUNLAD_clean_linker_0, # of connection points: 2
#     Edge 17, Type (0, 0), BuildingBlock: FUNLAD_clean_linker_0, # of connection points: 2
#     Edge 18, Type (0, 0), BuildingBlock: FUNLAD_clean_linker_0, # of connection points: 2
#     Edge 19, Type (0, 0), BuildingBlock: FUNLAD_clean_linker_0, # of connection points: 2
#     Edge 20, Type (0, 0), BuildingBlock: FUNLAD_clean_linker_0, # of connection points: 2
#     Edge 21, Type (0, 0), BuildingBlock: FUNLAD_clean_linker_0, # of connection points: 2
#     Edge 22, Type (0, 0), BuildingBlock: FUNLAD_clean_linker_0, # of connection points: 2
#     Edge 23, Type (0, 0), BuildingBlock: FUNLAD_clean_linker_0, # of connection points: 2
# Relax obj value: 0.161
# Max RMSD: 0.170
# Mean RMSD: 0.170
data_MOF--net-smk--node1-VOLQOD_clean_sbu_1--edge1-FUNLAD_clean_linker_0
_symmetry_space_group_name_H-M    P1
_symmetry_Int_Tables_number       1
_symmetry_cell_setting            triclinic
loop_
_symmetry_equiv_pos_as_xyz
'x, y, z'
_cell_length_a     50.814923
_cell_length_b     50.892723
_cell_length_c     19.545312
_cell_angle_alpha  89.99181
_cell_angle_beta   90.092474
_cell_angle_gamma 120.09084
loop_
_atom_site_label
_atom_site_type_symbol
_atom_site_fract_x
_atom_site_fract_y
_atom_site_fract_z
_atom_type_partial_charge
O0 O 0.43589 0.2388 0.72132 0.0
Zn1 Zn 0.43454 0.2464 0.62034 0.0
O2 O 0.4271 0.21089 0.56816 0.0
Zn3 Zn 0.46271 0.2196 0.51549 0.0
Zn4 Zn 0.41805 0.17819 0.63025 0.0
Zn5 Zn 0.39275 0.19843 0.50769 0.0
O6 O 0.45232 0.20997 0.41562 0.0
O7 O 0.40775 0.20833 0.41188 0.0
O8 O 0.4727 0.2844 0.58825 0.0
O9 O 0.49143 0.2643 0.51611 0.0
O10 O 0.48508 0.19986 0.55685 0.0
O11 O 0.4544 0.17304 0.64181 0.0
O12 O 0.38318 0.13884 0.59657 0.0
O13 O 0.39912 0.25311 0.60849 0.0
O14 O 0.36488 0.15313 0.51015 0.0
O15 O 0.36902 0.21913 0.53149 0.0
C16 C 0.42134 0.21375 0.7537 0.0
C17 C 0.43068 0.20975 0.38197 0.0
C18 C 0.47915 0.18268 0.60893 0.0
C19 C 0.49291 0.28731 0.54546 0.0
C20 C 0.36415 0.13243 0.54804 0.0
C21 C 0.37482 0.24071 0.57288 0.0
O22 O 0.40947 0.18826 0.72301 0.0
O23 O 0.19703 0.44075 0.87405 0.0
Zn24 Zn 0.18968 0.43922 0.77179 0.0
O25 O 0.21757 0.43024 0.72257 0.0
Zn26 Zn 0.24507 0.46457 0.66708 0.0
Zn27 Zn 0.24119 0.42233 0.78747 0.0
Zn28 Zn 0.19512 0.39471 0.66489 0.0
O29 O 0.24179 0.45309 0.56772 0.0
O30 O 0.19963 0.40782 0.56704 0.0
O31 O 0.19171 0.47782 0.73681 0.0
O32 O 0.23196 0.49545 0.66866 0.0
O33 O 0.28817 0.48535 0.70283 0.0
O34 O 0.28375 0.45778 0.79459 0.0
O35 O 0.2436 0.38567 0.76114 0.0
O36 O 0.14709 0.40465 0.75927 0.0
O37 O 0.21192 0.36632 0.67307 0.0
O38 O 0.15055 0.37202 0.68965 0.0
C39 C 0.20801 0.42714 0.9084 0.0
C40 C 0.22038 0.4308 0.53557 0.0
C41 C 0.29954 0.48065 0.75642 0.0
C42 C 0.21061 0.49795 0.69592 0.0
C43 C 0.23098 0.3657 0.71451 0.0
C44 C 0.13487 0.37941 0.72742 0.0
O45 O 0.22291 0.4162 0.87992 0.0
O46 O 0.75542 0.19731 0.04931 0.0
Zn47 Zn 0.75031 0.1892 0.94664 0.0
O48 O 0.78768 0.21672 0.89849 0.0
Zn49 Zn 0.78182 0.24385 0.84044 0.0
Zn50 Zn 0.81828 0.24066 0.96442 0.0
Zn51 Zn 0.80152 0.19463 0.84268 0.0
O52 O 0.7945 0.24297 0.74348 0.0
O53 O 0.79302 0.19856 0.74393 0.0
O54 O 0.71356 0.18977 0.90501 0.0
O55 O 0.73751 0.22765 0.83133 0.0
O56 O 0.80009 0.28604 0.88037 0.0
O57 O 0.8224 0.28193 0.97415 0.0
O58 O 0.85857 0.24579 0.93719 0.0
O59 O 0.74339 0.1469 0.9371 0.0
O60 O 0.84705 0.21309 0.85157 0.0
O61 O 0.78013 0.15026 0.86955 0.0
C62 C 0.77994 0.20687 0.08381 0.0
C63 C 0.79351 0.22059 0.71174 0.0
C64 C 0.81457 0.29715 0.93604 0.0
C65 C 0.71304 0.20669 0.85739 0.0
C66 C 0.86654 0.23339 0.89137 0.0
C67 C 0.75689 0.13471 0.90718 0.0
O68 O 0.80597 0.22083 0.05549 0.0
O69 O 0.5526 0.75481 0.21456 0.0
Zn70 Zn 0.55863 0.74872 0.11496 0.0
O71 O 0.56594 0.78419 0.06178 0.0
Zn72 Zn 0.53214 0.77318 0.00052 0.0
Zn73 Zn 0.56879 0.81571 0.12123 0.0
Zn74 Zn 0.60349 0.79973 0.00964 0.0
O75 O 0.54671 0.7849 0.90472 0.0
O76 O 0.59335 0.79135 0.90977 0.0
O77 O 0.5232 0.70955 0.07697 0.0
O78 O 0.50649 0.72823 -0.00368 0.0
O79 O 0.50484 0.78927 0.03058 0.0
O80 O 0.53155 0.81968 0.11581 0.0
O81 O 0.60526 0.85603 0.09986 0.0
O82 O 0.59576 0.74457 0.11182 0.0
O83 O 0.62948 0.84538 0.01986 0.0
O84 O 0.62775 0.78003 0.03997 0.0
C85 C 0.56023 0.77918 0.24776 0.0
C86 C 0.57053 0.78807 0.8755 0.0
C87 C 0.50786 0.80756 0.07845 0.0
C88 C 0.50501 0.7057 0.02793 0.0
C89 C 0.62722 0.86446 0.05801 0.0
C90 C 0.62127 0.75818 0.08117 0.0
O91 O 0.56963 0.80454 0.21784 0.0
O92 O 0.80344 0.5596 0.38807 0.0
Zn93 Zn 0.81111 0.56231 0.28629 0.0
O94 O 0.78133 0.56874 0.23766 0.0
Zn95 Zn 0.75594 0.53371 0.18153 0.0
Zn96 Zn 0.75562 0.5739 0.30222 0.0
Zn97 Zn 0.80179 0.6048 0.18057 0.0
O98 O 0.75539 0.54612 0.08456 0.0
O99 O 0.79621 0.59241 0.08195 0.0
O100 O 0.8125 0.52549 0.25029 0.0
O101 O 0.77396 0.50675 0.17687 0.0
O102 O 0.71361 0.50857 0.21984 0.0
O103 O 0.71418 0.53671 0.30696 0.0
O104 O 0.75086 0.60964 0.27847 0.0
O105 O 0.8524 0.59888 0.27463 0.0
O106 O 0.78302 0.63136 0.19232 0.0
O107 O 0.84664 0.62953 0.20303 0.0
C108 C 0.78941 0.56973 0.42358 0.0
C109 C 0.7751 0.56924 0.05157 0.0
C110 C 0.70063 0.51263 0.27116 0.0
C111 C 0.79594 0.50579 0.20563 0.0
C112 C 0.76308 0.63037 0.23334 0.0
C113 C 0.86332 0.62376 0.24174 0.0
O114 O 0.77262 0.5787 0.39581 0.0
O115 O 0.23941 0.79349 0.55035 0.0
Zn116 Zn 0.24475 0.80374 0.44955 0.0
O117 O 0.20759 0.77822 0.39945 0.0
Zn118 Zn 0.21351 0.75136 0.3408 0.0
Zn119 Zn 0.17577 0.75429 0.46309 0.0
Zn120 Zn 0.19592 0.80253 0.34453 0.0
O121 O 0.19837 0.75178 0.24651 0.0
O122 O 0.20271 0.79757 0.24509 0.0
O123 O 0.28107 0.80317 0.40757 0.0
O124 O 0.25801 0.76706 0.32933 0.0
O125 O 0.19482 0.70913 0.38037 0.0
O126 O 0.16773 0.71153 0.46648 0.0
O127 O 0.13722 0.75368 0.43902 0.0
O128 O 0.25259 0.84616 0.44659 0.0
O129 O 0.15083 0.78697 0.35411 0.0
O130 O 0.21903 0.84672 0.37445 0.0
C131 C 0.21504 0.78298 0.58544 0.0
C132 C 0.19947 0.77405 0.21411 0.0
C133 C 0.17716 0.69688 0.43124 0.0
C134 C 0.28217 0.78731 0.35829 0.0
C135 C 0.13065 0.76764 0.39419 0.0
C136 C 0.24099 0.86019 0.41671 0.0
O137 O 0.18897 0.77041 0.55702 0.0
C138 C 0.40831 0.21154 0.26969 0.0
C139 C 0.4325 0.2125 0.30673 0.0
C140 C 0.41015 0.21534 0.19904 0.0
C141 C 0.43615 0.21992 0.16362 0.0
C142 C 0.46053 0.2213 0.20047 0.0
C143 C 0.45868 0.21744 0.27144 0.0
C144 C 0.43843 0.22365 0.08844 0.0
C145 C 0.41384 0.20991 0.04764 0.0
C146 C 0.41577 0.21208 0.97235 0.0
C147 C 0.39471 0.18718 0.93367 0.0
C148 C 0.39636 0.18792 0.86254 0.0
C149 C 0.41878 0.21388 0.8287 0.0
H150 H 0.4538 0.2583 0.96729 0.0
C151 C 0.43918 0.23932 0.86732 0.0
C152 C 0.43779 0.2384 0.9387 0.0
H153 H 0.4566 0.25968 0.84253 0.0
H154 H 0.38794 0.20814 0.29526 0.0
H155 H 0.39133 0.21517 0.1726 0.0
H156 H 0.48091 0.22508 0.17425 0.0
H157 H 0.47785 0.21861 0.29858 0.0
H158 H 0.46099 0.23633 0.06608 0.0
H159 H 0.39169 0.19457 0.06959 0.0
H160 H 0.37733 0.16681 0.95858 0.0
H161 H 0.38011 0.16808 0.83408 0.0
C162 C 0.23902 0.45875 0.42458 0.0
C163 C 0.21832 0.43249 0.46045 0.0
C164 C 0.23582 0.46092 0.35417 0.0
C165 C 0.21212 0.43681 0.31818 0.0
C166 C 0.19126 0.41064 0.35409 0.0
C167 C 0.19441 0.40846 0.42438 0.0
C168 C 0.20974 0.43961 0.24333 0.0
C169 C 0.19804 0.4154 0.20146 0.0
C170 C 0.19886 0.41825 0.12622 0.0
C171 C 0.20297 0.39749 0.08735 0.0
C172 C 0.20565 0.40034 0.01653 0.0
C173 C 0.20358 0.42366 -0.01701 0.0
H174 H 0.19196 0.45702 0.12151 0.0
C175 C 0.19811 0.44371 0.02152 0.0
C176 C 0.19594 0.44115 0.09279 0.0
H177 H 0.19623 0.46177 -0.00318 0.0
H178 H 0.25752 0.47781 0.45092 0.0
H179 H 0.25207 0.48139 0.32766 0.0
H180 H 0.17213 0.39196 0.32842 0.0
H181 H 0.17782 0.38807 0.45049 0.0
H182 H 0.22025 0.46233 0.22174 0.0
H183 H 0.19047 0.39294 0.22231 0.0
H184 H 0.20497 0.37949 0.11199 0.0
H185 H 0.20945 0.38428 -0.01196 0.0
C186 C 0.75465 0.19936 0.19807 0.0
C187 C 0.77883 0.20196 0.15832 0.0
C188 C 0.75543 0.19722 0.26939 0.0
C189 C 0.78023 0.19722 0.30162 0.0
C190 C 0.80356 0.19833 0.26147 0.0
C191 C 0.80306 0.20102 0.19067 0.0
C192 C 0.78286 0.19646 0.37687 0.0
C193 C 0.77323 0.21067 0.41937 0.0
C194 C 0.77915 0.21303 0.49408 0.0
C195 C 0.78122 0.23789 0.52986 0.0
C196 C 0.78684 0.2409 0.60021 0.0
C197 C 0.79019 0.21887 0.63641 0.0
H198 H 0.7802 0.17103 0.50487 0.0
C199 C 0.78809 0.19395 0.60053 0.0
C200 C 0.78252 0.19098 0.53023 0.0
H201 H 0.79017 0.17635 0.62691 0.0
H202 H 0.73563 0.19986 0.1743 0.0
H203 H 0.73671 0.19561 0.29909 0.0
H204 H 0.82272 0.19803 0.2851 0.0
H205 H 0.82184 0.20257 0.16122 0.0
H206 H 0.79602 0.18671 0.39696 0.0
H207 H 0.76287 0.22309 0.3982 0.0
H208 H 0.77857 0.25511 0.50326 0.0
H209 H 0.78803 0.26024 0.6263 0.0
C210 C 0.55808 0.75552 0.36141 0.0
C211 C 0.55736 0.77837 0.32263 0.0
C212 C 0.55653 0.75594 0.43274 0.0
C213 C 0.55389 0.77905 0.46591 0.0
C214 C 0.55212 0.80117 0.42691 0.0
C215 C 0.55415 0.80105 0.35601 0.0
C216 C 0.55265 0.78075 0.54098 0.0
C217 C 0.56815 0.77246 0.583 0.0
C218 C 0.56854 0.77668 0.65786 0.0
C219 C 0.59436 0.78223 0.69542 0.0
C220 C 0.59544 0.78676 0.76606 0.0
C221 C 0.57053 0.78548 0.80035 0.0
H222 H 0.52286 0.76995 0.66523 0.0
C223 C 0.54461 0.7797 0.7626 0.0
C224 C 0.54354 0.77517 0.69223 0.0
H225 H 0.52483 0.77812 0.78746 0.0
H226 H 0.56035 0.7377 0.33677 0.0
H227 H 0.55716 0.73812 0.46166 0.0
H228 H 0.54976 0.81898 0.45145 0.0
H229 H 0.5531 0.81872 0.3273 0.0
H230 H 0.54078 0.79174 0.56174 0.0
H231 H 0.5827 0.76453 0.56181 0.0
H232 H 0.61381 0.7833 0.67001 0.0
H233 H 0.61565 0.79089 0.79379 0.0
C234 C 0.77341 0.57826 0.53781 0.0
C235 C 0.79193 0.57074 0.49884 0.0
C236 C 0.77506 0.5789 0.60882 0.0
C237 C 0.7952 0.57194 0.64261 0.0
C238 C 0.81432 0.5652 0.60397 0.0
C239 C 0.81254 0.56435 0.53254 0.0
C240 C 0.79697 0.57236 0.71804 0.0
C241 C 0.77231 0.56417 0.75716 0.0
C242 C 0.77362 0.56576 0.83252 0.0
C243 C 0.748 0.54523 0.87009 0.0
C244 C 0.74837 0.54642 0.94138 0.0
C245 C 0.77422 0.56859 0.97623 0.0
H246 H 0.81913 0.60494 0.83952 0.0
C247 C 0.79962 0.58963 0.93844 0.0
C248 C 0.79936 0.58819 0.86721 0.0
H249 H 0.81986 0.60703 0.96384 0.0
H250 H 0.75746 0.58358 0.5136 0.0
H251 H 0.76076 0.58523 0.63708 0.0
H252 H 0.83029 0.56015 0.62909 0.0
H253 H 0.82729 0.55874 0.50385 0.0
H254 H 0.81869 0.57847 0.74158 0.0
H255 H 0.75006 0.55494 0.73333 0.0
H256 H 0.72777 0.52802 0.84425 0.0
H257 H 0.72839 0.53001 0.9691 0.0
C258 C 0.20841 0.79973 0.10057 0.0
C259 C 0.19831 0.77299 0.13879 0.0
C260 C 0.20892 0.79887 0.02925 0.0
C261 C 0.19913 0.77119 -0.00498 0.0
C262 C 0.18819 0.7444 0.0331 0.0
C263 C 0.18806 0.74529 0.10435 0.0
C264 C 0.19892 0.76932 0.91967 0.0
C265 C 0.21938 0.79189 0.87995 0.0
C266 C 0.21822 0.78956 0.8045 0.0
C267 C 0.24526 0.80415 0.76657 0.0
C268 C 0.24448 0.80188 0.69519 0.0
C269 C 0.21654 0.78532 0.66076 0.0
H270 H 0.16895 0.76278 0.79742 0.0
C271 C 0.1895 0.77126 0.69898 0.0
C272 C 0.19031 0.77342 0.76993 0.0
H273 H 0.16753 0.75856 0.67419 0.0
H274 H 0.21637 0.8214 0.12571 0.0
H275 H 0.21661 0.8198 0.00114 0.0
H276 H 0.18016 0.72276 0.00767 0.0
H277 H 0.17992 0.72427 0.13242 0.0
H278 H 0.18218 0.74797 0.89649 0.0
H279 H 0.23817 0.81197 0.90311 0.0
H280 H 0.26701 0.817 0.79222 0.0
H281 H 0.26568 0.8132 0.66711 0.0
C282 C 0.34263 0.07711 0.57119 0.0
C283 C 0.34248 0.10018 0.53208 0.0
C284 C 0.32484 0.04676 0.55207 0.0
C285 C 0.30607 0.03861 0.49364 0.0
C286 C 0.30531 0.0616 0.45556 0.0
C287 C 0.32321 0.09207 0.47467 0.0
C288 C 0.28933 0.00682 0.4679 0.0
C289 C 0.28207 0.98272 0.50826 0.0
C290 C 0.27107 0.95165 0.4819 0.0
C291 C 0.27892 0.93296 0.51868 0.0
C292 C 0.26973 0.90367 0.49619 0.0
C293 C 0.25189 0.89204 0.43683 0.0
H294 H 0.2464 0.95397 0.39336 0.0
C295 C 0.24366 0.9106 0.40007 0.0
C296 C 0.25333 0.94029 0.4222 0.0
H297 H 0.22971 0.90218 0.35449 0.0
H298 H 0.35734 0.08251 0.61541 0.0
H299 H 0.32712 0.03009 0.58175 0.0
H300 H 0.29129 0.05603 0.41004 0.0
H301 H 0.3226 0.10929 0.44323 0.0
H302 H 0.2844 0.0035 0.41348 0.0
H303 H 0.28658 0.98601 0.56279 0.0
H304 H 0.29252 0.94114 0.56485 0.0
H305 H 0.27624 0.88997 0.52634 0.0
C306 C 0.35622 0.27091 0.63576 0.0
C307 C 0.35257 0.25108 0.58188 0.0
C308 C 0.3351 0.28036 0.64589 0.0
C309 C 0.30975 0.27017 0.60241 0.0
C310 C 0.30637 0.2509 0.54765 0.0
C311 C 0.32742 0.24116 0.53781 0.0
C312 C 0.28782 0.28103 0.61118 0.0
C313 C 0.28101 0.28733 0.67339 0.0
C314 C 0.26457 0.30418 0.68472 0.0
C315 C 0.26956 0.31991 0.74667 0.0
C316 C 0.25773 0.33906 0.75718 0.0
C317 C 0.24027 0.34263 0.70618 0.0
H318 H 0.24045 0.29385 0.5875 0.0
C319 C 0.23361 0.32543 0.64578 0.0
C320 C 0.24567 0.30637 0.63503 0.0
H321 H 0.21995 0.32745 0.60579 0.0
H322 H 0.37539 0.27915 0.67047 0.0
H323 H 0.3391 0.29618 0.68704 0.0
H324 H 0.28729 0.24317 0.51281 0.0
H325 H 0.32407 0.22602 0.49555 0.0
H326 H 0.27838 0.28503 0.56518 0.0
H327 H 0.29031 0.28236 0.71845 0.0
H328 H 0.28374 0.3184 0.78615 0.0
H329 H 0.26297 0.35167 0.80471 0.0
C330 C 0.90974 0.23678 0.82221 0.0
C331 C 0.89934 0.24462 0.88112 0.0
C332 C 0.94091 0.25046 0.80873 0.0
C333 C 0.96226 0.27225 0.8541 0.0
C334 C 0.95181 0.27863 0.91477 0.0
C335 C 0.92076 0.26513 0.92804 0.0
C336 C 0.99538 0.28999 0.83956 0.0
C337 C 0.00773 0.29355 0.77686 0.0
C338 C 0.04026 0.31568 0.76394 0.0
C339 C 0.05615 0.30965 0.71349 0.0
C340 C 0.08687 0.33039 0.70088 0.0
C341 C 0.10206 0.3578 0.73775 0.0
H342 H 0.04341 0.34937 0.83687 0.0
C343 C 0.08576 0.36416 0.78666 0.0
C344 C 0.05527 0.3434 0.79955 0.0
H345 H 0.09659 0.38513 0.81566 0.0
H346 H 0.89383 0.22083 0.78532 0.0
H347 H 0.94795 0.24411 0.76244 0.0
H348 H 0.9677 0.29505 0.95105 0.0
H349 H 0.91357 0.27144 0.97431 0.0
H350 H 0.01015 0.30252 0.88219 0.0
H351 H 0.99394 0.28081 0.73341 0.0
H352 H 0.04491 0.28866 0.68459 0.0
H353 H 0.09872 0.32488 0.66254 0.0
C354 C 0.6695 0.90845 -0.00477 0.0
C355 C 0.6492 0.89734 0.0507 0.0
C356 C 0.68775 0.93975 -0.01549 0.0
C357 C 0.68604 0.96053 0.02928 0.0
C358 C 0.66697 0.94932 0.08663 0.0
C359 C 0.64867 0.91815 0.09708 0.0
C360 C 0.70249 0.99387 0.01743 0.0
C361 C 0.71333 0.00715 0.95627 0.0
C362 C 0.72481 0.03998 0.94475 0.0
C363 C 0.74743 0.05585 0.89553 0.0
C364 C 0.75799 0.08666 0.88302 0.0
C365 C 0.74569 0.102 0.91875 0.0
H366 H 0.69394 0.04353 0.01603 0.0
C367 C 0.72259 0.08585 0.96694 0.0
C368 C 0.71225 0.05526 0.9797 0.0
H369 H 0.71241 0.09681 -0.00487 0.0
H370 H 0.67067 0.89301 0.95886 0.0
H371 H 0.70282 0.94737 0.94087 0.0
H372 H 0.66539 0.96474 0.1224 0.0
H373 H 0.63356 0.91042 0.1408 0.0
H374 H 0.70381 0.008 0.06047 0.0
H375 H 0.71312 0.99386 0.9127 0.0
H376 H 0.75712 0.04446 0.86715 0.0
H377 H 0.7757 0.09838 0.8453 0.0
C378 C 0.76095 0.67205 0.16915 0.0
C379 C 0.75242 0.6525 0.22594 0.0
C380 C 0.74832 0.69066 0.15886 0.0
C381 C 0.72688 0.69006 0.20533 0.0
C382 C 0.71966 0.67171 0.2638 0.0
C383 C 0.73213 0.65305 0.27388 0.0
C384 C 0.71039 0.70695 0.19413 0.0
C385 C 0.70697 0.7169 0.13265 0.0
C386 C 0.68562 0.72846 0.12175 0.0
C387 C 0.69126 0.74959 0.06952 0.0
C388 C 0.67064 0.75965 0.0565 0.0
C389 C 0.6437 0.74831 0.09482 0.0
H390 H 0.65283 0.69991 0.1987 0.0
C391 C 0.63801 0.72694 0.14661 0.0
C392 C 0.65862 0.7171 0.15982 0.0
H393 H 0.61744 0.71756 0.17693 0.0
H394 H 0.77677 0.67241 0.13157 0.0
H395 H 0.75528 0.70515 0.11426 0.0
H396 H 0.70346 0.67098 0.30083 0.0
H397 H 0.72527 0.63853 0.31858 0.0
H398 H 0.69863 0.70926 0.23806 0.0
H399 H 0.71902 0.71563 0.08819 0.0
H400 H 0.71168 0.75834 0.03879 0.0
H401 H 0.67563 0.77601 0.01599 0.0
C402 C 0.9124 0.64284 0.30432 0.0
C403 C 0.89576 0.64677 0.25181 0.0
C404 C 0.94269 0.6646 0.31605 0.0
C405 C 0.95719 0.69093 0.27558 0.0
C406 C 0.94091 0.69466 0.22204 0.0
C407 C 0.91032 0.67292 0.21065 0.0
C408 C 0.9898 0.71353 0.28615 0.0
C409 C 0.00251 0.71946 0.34893 0.0
C410 C 0.0358 0.73588 0.36191 0.0
C411 C 0.04605 0.73028 0.42393 0.0
C412 C 0.07697 0.74167 0.4355 0.0
C413 C 0.09847 0.75931 0.38554 0.0
H414 H 0.05051 0.76079 0.26595 0.0
C415 C 0.08846 0.76674 0.32533 0.0
C416 C 0.05738 0.7551 0.31348 0.0
H417 H 0.1045 0.78054 0.28611 0.0
H418 H 0.90202 0.62294 0.33687 0.0
H419 H 0.95486 0.66038 0.35608 0.0
H420 H 0.95178 0.71451 0.18943 0.0
H421 H 0.89817 0.67653 0.16953 0.0
H422 H 0.00347 0.72397 0.24099 0.0
H423 H 0.98787 0.70919 0.39304 0.0
H424 H 0.02999 0.71585 0.46251 0.0
H425 H 0.08393 0.73585 0.48286 0.0
C426 C 0.539 0.32046 0.47583 0.0
C427 C 0.51744 0.31787 0.52446 0.0
C428 C 0.56044 0.34872 0.45011 0.0
C429 C 0.56091 0.37522 0.47212 0.0
C430 C 0.5404 0.37295 0.52306 0.0
C431 C 0.51867 0.34449 0.54871 0.0
C432 C 0.58332 0.40536 0.44385 0.0
C433 C 0.59273 0.40873 0.37824 0.0
C434 C 0.61818 0.43704 0.34866 0.0
C435 C 0.6302 0.43501 0.28547 0.0
C436 C 0.65616 0.45994 0.25857 0.0
C437 C 0.67067 0.48765 0.29415 0.0
H438 H 0.62279 0.46831 0.43007 0.0
C439 C 0.65762 0.49029 0.35536 0.0
C440 C 0.63166 0.4653 0.38237 0.0
H441 H 0.66803 0.51141 0.38381 0.0
H442 H 0.53909 0.30056 0.45653 0.0
H443 H 0.57676 0.3497 0.41312 0.0
H444 H 0.54071 0.39314 0.54178 0.0
H445 H 0.5025 0.34332 0.58637 0.0
H446 H 0.59219 0.42461 0.47836 0.0
H447 H 0.58229 0.38902 0.34476 0.0
H448 H 0.62017 0.41367 0.25786 0.0
H449 H 0.66542 0.45711 0.21108 0.0
C450 C 0.17835 0.52206 0.67849 0.0
C451 C 0.20667 0.52356 0.67383 0.0
C452 C 0.17386 0.54439 0.64764 0.0
C453 C 0.19777 0.5687 0.61189 0.0
C454 C 0.2264 0.57087 0.61078 0.0
C455 C 0.23079 0.54859 0.64105 0.0
C456 C 0.19432 0.59204 0.5735 0.0
C457 C 0.16781 0.59112 0.56068 0.0
C458 C 0.16707 0.61546 0.52051 0.0
C459 C 0.14805 0.62654 0.54122 0.0
C460 C 0.15004 0.65212 0.50957 0.0
C461 C 0.17075 0.66672 0.45579 0.0
H462 H 0.20029 0.61988 0.4449 0.0
C463 C 0.1879 0.65398 0.43144 0.0
C464 C 0.18613 0.62865 0.46356 0.0
H465 H 0.20386 0.66445 0.38977 0.0
H466 H 0.15933 0.50303 0.70346 0.0
H467 H 0.15158 0.54207 0.65122 0.0
H468 H 0.24536 0.58945 0.58448 0.0
H469 H 0.25299 0.55061 0.63705 0.0
H470 H 0.2151 0.61108 0.55343 0.0
H471 H 0.14662 0.57346 0.58211 0.0
H472 H 0.13283 0.61642 0.58427 0.0
H473 H 0.13625 0.66116 0.52911 0.0
C474 C 0.6555 0.17915 0.85231 0.0
C475 C 0.68399 0.2005 0.82535 0.0
C476 C 0.62861 0.17248 0.81754 0.0
C477 C 0.62997 0.18682 0.75488 0.0
C478 C 0.65838 0.20803 0.72841 0.0
C479 C 0.68496 0.21501 0.76331 0.0
C480 C 0.60272 0.18045 0.71425 0.0
C481 C 0.57561 0.17295 0.74181 0.0
C482 C 0.5504 0.17248 0.70168 0.0
C483 C 0.52086 0.15731 0.7287 0.0
C484 C 0.49728 0.15925 0.69657 0.0
C485 C 0.50278 0.17665 0.63675 0.0
H486 H 0.57808 0.20193 0.61846 0.0
C487 C 0.53205 0.19089 0.60821 0.0
C488 C 0.55562 0.18902 0.64039 0.0
H489 H 0.53719 0.20469 0.56258 0.0
H490 H 0.65399 0.16741 0.89963 0.0
H491 H 0.60701 0.15562 0.83881 0.0
H492 H 0.66009 0.21942 0.68036 0.0
H493 H 0.70639 0.2314 0.74036 0.0
H494 H 0.60615 0.18449 0.65964 0.0
H495 H 0.57211 0.16852 0.79637 0.0
H496 H 0.51615 0.14456 0.7759 0.0
H497 H 0.475 0.14798 0.72012 0.0
C498 C 0.46597 0.67145 0.94349 0.0
C499 C 0.48266 0.67478 0.00356 0.0
C500 C 0.4456 0.64278 0.91779 0.0
C501 C 0.44134 0.6165 0.95126 0.0
C502 C 0.45742 0.61963 0.01213 0.0
C503 C 0.47815 0.64853 0.03779 0.0
C504 C 0.41864 0.58586 0.92562 0.0
C505 C 0.4122 0.58018 0.85835 0.0
C506 C 0.38547 0.55238 0.8305 0.0
C507 C 0.37527 0.55377 0.76447 0.0
C508 C 0.34808 0.52987 0.73894 0.0
C509 C 0.33055 0.50383 0.77873 0.0
H510 H 0.37647 0.52298 0.91872 0.0
C511 C 0.34179 0.50152 0.84296 0.0
C512 C 0.36897 0.52551 0.86863 0.0
H513 H 0.32906 0.48162 0.87468 0.0
H514 H 0.46863 0.69107 0.91578 0.0
H515 H 0.43273 0.64137 0.87236 0.0
H516 H 0.45412 0.59969 0.03954 0.0
H517 H 0.49056 0.65029 0.08429 0.0
H518 H 0.40625 0.56842 0.96355 0.0
H519 H 0.42574 0.59795 0.82172 0.0
H520 H 0.38767 0.57402 0.73354 0.0
H521 H 0.34029 0.53234 0.689 0.0
C522 C 0.78403 0.46024 0.13487 0.0
C523 C 0.80289 0.48206 0.18331 0.0
C524 C 0.79113 0.43894 0.10969 0.0
C525 C 0.81748 0.43896 0.13185 0.0
C526 C 0.83582 0.46 0.18206 0.0
C527 C 0.82872 0.4815 0.20732 0.0
C528 C 0.82538 0.41641 0.10517 0.0
C529 C 0.81782 0.40491 0.04126 0.0
C530 C 0.82128 0.3795 0.01366 0.0
C531 C 0.81212 0.37021 0.9458 0.0
C532 C 0.81125 0.34426 0.91946 0.0
C533 C 0.81963 0.32695 0.96035 0.0
H534 H 0.83829 0.369 0.10607 0.0
C535 C 0.83032 0.33705 0.02711 0.0
C536 C 0.83104 0.36294 0.05364 0.0
H537 H 0.837 0.32428 0.06009 0.0
H538 H 0.76371 0.45965 0.11579 0.0
H539 H 0.77567 0.42227 0.07336 0.0
H540 H 0.85595 0.46015 0.2009 0.0
H541 H 0.84367 0.49788 0.24483 0.0
H542 H 0.83775 0.40959 0.13914 0.0
H543 H 0.80754 0.41409 0.00708 0.0
H544 H 0.80457 0.38248 0.91353 0.0
H545 H 0.80304 0.33727 0.86772 0.0
C546 C 0.48423 0.83001 0.15357 0.0
C547 C 0.482 0.81192 0.09693 0.0
C548 C 0.4586 0.83033 0.17824 0.0
C549 C 0.43008 0.81244 0.1469 0.0
C550 C 0.4283 0.79603 0.08758 0.0
C551 C 0.45392 0.79565 0.06296 0.0
C552 C 0.40153 0.80933 0.17543 0.0
C553 C 0.39782 0.81377 0.24201 0.0
C554 C 0.36802 0.8068 0.27133 0.0
C555 C 0.36729 0.82228 0.33017 0.0
C556 C 0.33951 0.81584 0.35933 0.0
C557 C 0.31189 0.79341 0.33067 0.0
H558 H 0.33995 0.77056 0.20016 0.0
C559 C 0.31276 0.77738 0.27288 0.0
C560 C 0.34041 0.78391 0.24368 0.0
H561 H 0.29199 0.75977 0.24962 0.0
H562 H 0.5056 0.84318 0.18049 0.0
H563 H 0.46127 0.84429 0.22234 0.0
H564 H 0.40671 0.7824 0.06177 0.0
H565 H 0.45138 0.78162 0.01896 0.0
H566 H 0.3823 0.80124 0.14072 0.0
H567 H 0.4169 0.82219 0.27714 0.0
H568 H 0.38826 0.83968 0.35316 0.0
H569 H 0.33969 0.82856 0.40392 0.0
loop_
_geom_bond_atom_site_label_1
_geom_bond_atom_site_label_2
_geom_bond_distance
_geom_bond_site_symmetry_2
_ccdc_geom_bond_type
O0 Zn1 1.953 . S
O0 C16 1.225 . S
Zn1 O0 1.953 . S
Zn1 O2 1.949 . S
Zn1 O8 1.919 . S
Zn1 O13 1.924 . S
O2 Zn1 1.949 . S
O2 Zn3 1.923 . S
O2 Zn4 1.950 . S
O2 Zn5 1.945 . S
Zn3 O2 1.923 . S
Zn3 O6 1.933 . S
Zn3 O9 1.941 . S
Zn3 O10 1.965 . S
Zn4 O2 1.950 . S
Zn4 O11 1.938 . S
Zn4 O12 1.906 . S
Zn4 O22 1.953 . S
Zn5 O2 1.945 . S
Zn5 O7 1.932 . S
Zn5 O14 1.977 . S
Zn5 O15 1.910 . S
O6 Zn3 1.933 . S
O6 C17 1.226 . S
O7 Zn5 1.932 . S
O7 C17 1.307 . S
O8 Zn1 1.919 . S
O8 C19 1.253 . S
O9 Zn3 1.941 . S
O9 C19 1.283 . S
O10 Zn3 1.965 . S
O10 C18 1.303 . S
O11 Zn4 1.938 . S
O11 C18 1.247 . S
O12 Zn4 1.906 . S
O12 C20 1.304 . S
O13 Zn1 1.924 . S
O13 C21 1.311 . S
O14 Zn5 1.977 . S
O14 C20 1.272 . S
O15 Zn5 1.910 . S
O15 C21 1.231 . S
C16 O0 1.225 . S
C16 O22 1.298 . S
C17 O6 1.226 . S
C17 O7 1.307 . S
C18 O10 1.303 . S
C18 O11 1.247 . S
C19 O8 1.253 . S
C19 O9 1.283 . S
C20 O12 1.304 . S
C20 O14 1.272 . S
C21 O13 1.311 . S
C21 O15 1.231 . S
O22 Zn4 1.953 . S
O22 C16 1.298 . S
O23 Zn24 1.953 . S
O23 C39 1.225 . S
Zn24 O23 1.953 . S
Zn24 O25 1.949 . S
Zn24 O31 1.919 . S
Zn24 O36 1.924 . S
O25 Zn24 1.949 . S
O25 Zn26 1.923 . S
O25 Zn27 1.950 . S
O25 Zn28 1.945 . S
Zn26 O25 1.923 . S
Zn26 O29 1.933 . S
Zn26 O32 1.941 . S
Zn26 O33 1.965 . S
Zn27 O25 1.950 . S
Zn27 O34 1.938 . S
Zn27 O35 1.906 . S
Zn27 O45 1.953 . S
Zn28 O25 1.945 . S
Zn28 O30 1.932 . S
Zn28 O37 1.977 . S
Zn28 O38 1.910 . S
O29 Zn26 1.933 . S
O29 C40 1.226 . S
O30 Zn28 1.932 . S
O30 C40 1.307 . S
O31 Zn24 1.919 . S
O31 C42 1.253 . S
O32 Zn26 1.941 . S
O32 C42 1.283 . S
O33 Zn26 1.965 . S
O33 C41 1.303 . S
O34 Zn27 1.938 . S
O34 C41 1.247 . S
O35 Zn27 1.906 . S
O35 C43 1.304 . S
O36 Zn24 1.924 . S
O36 C44 1.311 . S
O37 Zn28 1.977 . S
O37 C43 1.272 . S
O38 Zn28 1.910 . S
O38 C44 1.231 . S
C39 O23 1.225 . S
C39 O45 1.298 . S
C40 O29 1.226 . S
C40 O30 1.307 . S
C41 O33 1.303 . S
C41 O34 1.247 . S
C42 O31 1.253 . S
C42 O32 1.283 . S
C43 O35 1.304 . S
C43 O37 1.272 . S
C44 O36 1.311 . S
C44 O38 1.231 . S
O45 Zn27 1.953 . S
O45 C39 1.298 . S
O46 Zn47 1.953 1_554 S
O46 C62 1.225 . S
Zn47 O46 1.953 1_556 S
Zn47 O48 1.949 . S
Zn47 O54 1.919 . S
Zn47 O59 1.924 . S
O48 Zn47 1.949 . S
O48 Zn49 1.923 . S
O48 Zn50 1.950 . S
O48 Zn51 1.945 . S
Zn49 O48 1.923 . S
Zn49 O52 1.933 . S
Zn49 O55 1.941 . S
Zn49 O56 1.965 . S
Zn50 O48 1.950 . S
Zn50 O57 1.938 . S
Zn50 O58 1.906 . S
Zn50 O68 1.953 1_556 S
Zn51 O48 1.945 . S
Zn51 O53 1.932 . S
Zn51 O60 1.977 . S
Zn51 O61 1.910 . S
O52 Zn49 1.933 . S
O52 C63 1.226 . S
O53 Zn51 1.932 . S
O53 C63 1.307 . S
O54 Zn47 1.919 . S
O54 C65 1.253 . S
O55 Zn49 1.941 . S
O55 C65 1.283 . S
O56 Zn49 1.965 . S
O56 C64 1.303 . S
O57 Zn50 1.938 . S
O57 C64 1.247 . S
O58 Zn50 1.906 . S
O58 C66 1.304 . S
O59 Zn47 1.924 . S
O59 C67 1.311 . S
O60 Zn51 1.977 . S
O60 C66 1.272 . S
O61 Zn51 1.910 . S
O61 C67 1.231 . S
C62 O46 1.225 . S
C62 O68 1.298 . S
C63 O52 1.226 . S
C63 O53 1.307 . S
C64 O56 1.303 . S
C64 O57 1.247 . S
C65 O54 1.253 . S
C65 O55 1.283 . S
C66 O58 1.304 . S
C66 O60 1.272 . S
C67 O59 1.311 . S
C67 O61 1.231 . S
O68 Zn50 1.953 1_554 S
O68 C62 1.298 . S
O69 Zn70 1.953 . S
O69 C85 1.225 . S
Zn70 O69 1.953 . S
Zn70 O71 1.949 . S
Zn70 O77 1.919 . S
Zn70 O82 1.924 . S
O71 Zn70 1.949 . S
O71 Zn72 1.923 . S
O71 Zn73 1.950 . S
O71 Zn74 1.945 . S
Zn72 O71 1.923 . S
Zn72 O75 1.933 1_554 S
Zn72 O78 1.941 . S
Zn72 O79 1.965 . S
Zn73 O71 1.950 . S
Zn73 O80 1.938 . S
Zn73 O81 1.906 . S
Zn73 O91 1.953 . S
Zn74 O71 1.945 . S
Zn74 O76 1.932 1_554 S
Zn74 O83 1.977 . S
Zn74 O84 1.910 . S
O75 Zn72 1.933 1_556 S
O75 C86 1.226 . S
O76 Zn74 1.932 1_556 S
O76 C86 1.307 . S
O77 Zn70 1.919 . S
O77 C88 1.253 . S
O78 Zn72 1.941 . S
O78 C88 1.283 . S
O79 Zn72 1.965 . S
O79 C87 1.303 . S
O80 Zn73 1.938 . S
O80 C87 1.247 . S
O81 Zn73 1.906 . S
O81 C89 1.304 . S
O82 Zn70 1.924 . S
O82 C90 1.311 . S
O83 Zn74 1.977 . S
O83 C89 1.272 . S
O84 Zn74 1.910 . S
O84 C90 1.231 . S
C85 O69 1.225 . S
C85 O91 1.298 . S
C86 O75 1.226 . S
C86 O76 1.307 . S
C87 O79 1.303 . S
C87 O80 1.247 . S
C88 O77 1.253 . S
C88 O78 1.283 . S
C89 O81 1.304 . S
C89 O83 1.272 . S
C90 O82 1.311 . S
C90 O84 1.231 . S
O91 Zn73 1.953 . S
O91 C85 1.298 . S
O92 Zn93 1.953 . S
O92 C108 1.225 . S
Zn93 O92 1.953 . S
Zn93 O94 1.949 . S
Zn93 O100 1.919 . S
Zn93 O105 1.924 . S
O94 Zn93 1.949 . S
O94 Zn95 1.923 . S
O94 Zn96 1.950 . S
O94 Zn97 1.945 . S
Zn95 O94 1.923 . S
Zn95 O98 1.933 . S
Zn95 O101 1.941 . S
Zn95 O102 1.965 . S
Zn96 O94 1.950 . S
Zn96 O103 1.938 . S
Zn96 O104 1.906 . S
Zn96 O114 1.953 . S
Zn97 O94 1.945 . S
Zn97 O99 1.932 . S
Zn97 O106 1.977 . S
Zn97 O107 1.910 . S
O98 Zn95 1.933 . S
O98 C109 1.226 . S
O99 Zn97 1.932 . S
O99 C109 1.307 . S
O100 Zn93 1.919 . S
O100 C111 1.253 . S
O101 Zn95 1.941 . S
O101 C111 1.283 . S
O102 Zn95 1.965 . S
O102 C110 1.303 . S
O103 Zn96 1.938 . S
O103 C110 1.247 . S
O104 Zn96 1.906 . S
O104 C112 1.304 . S
O105 Zn93 1.924 . S
O105 C113 1.311 . S
O106 Zn97 1.977 . S
O106 C112 1.272 . S
O107 Zn97 1.910 . S
O107 C113 1.231 . S
C108 O92 1.225 . S
C108 O114 1.298 . S
C109 O98 1.226 . S
C109 O99 1.307 . S
C110 O102 1.303 . S
C110 O103 1.247 . S
C111 O100 1.253 . S
C111 O101 1.283 . S
C112 O104 1.304 . S
C112 O106 1.272 . S
C113 O105 1.311 . S
C113 O107 1.231 . S
O114 Zn96 1.953 . S
O114 C108 1.298 . S
O115 Zn116 1.953 . S
O115 C131 1.225 . S
Zn116 O115 1.953 . S
Zn116 O117 1.949 . S
Zn116 O123 1.919 . S
Zn116 O128 1.924 . S
O117 Zn116 1.949 . S
O117 Zn118 1.923 . S
O117 Zn119 1.950 . S
O117 Zn120 1.945 . S
Zn118 O117 1.923 . S
Zn118 O121 1.933 . S
Zn118 O124 1.941 . S
Zn118 O125 1.965 . S
Zn119 O117 1.950 . S
Zn119 O126 1.938 . S
Zn119 O127 1.906 . S
Zn119 O137 1.953 . S
Zn120 O117 1.945 . S
Zn120 O122 1.932 . S
Zn120 O129 1.977 . S
Zn120 O130 1.910 . S
O121 Zn118 1.933 . S
O121 C132 1.226 . S
O122 Zn120 1.932 . S
O122 C132 1.307 . S
O123 Zn116 1.919 . S
O123 C134 1.253 . S
O124 Zn118 1.941 . S
O124 C134 1.283 . S
O125 Zn118 1.965 . S
O125 C133 1.303 . S
O126 Zn119 1.938 . S
O126 C133 1.247 . S
O127 Zn119 1.906 . S
O127 C135 1.304 . S
O128 Zn116 1.924 . S
O128 C136 1.311 . S
O129 Zn120 1.977 . S
O129 C135 1.272 . S
O130 Zn120 1.910 . S
O130 C136 1.231 . S
C131 O115 1.225 . S
C131 O137 1.298 . S
C132 O121 1.226 . S
C132 O122 1.307 . S
C133 O125 1.303 . S
C133 O126 1.247 . S
C134 O123 1.253 . S
C134 O124 1.283 . S
C135 O127 1.304 . S
C135 O129 1.272 . S
C136 O128 1.311 . S
C136 O130 1.231 . S
O137 Zn119 1.953 . S
O137 C131 1.298 . S
C138 C139 1.386 . S
C138 C140 1.383 . S
C138 H154 0.951 . S
C139 C138 1.386 . S
C139 C143 1.383 . S
C140 C138 1.383 . S
C140 C141 1.402 . S
C140 H155 0.951 . S
C141 C140 1.402 . S
C141 C142 1.375 . S
C141 C144 1.481 . S
C142 C141 1.375 . S
C142 C143 1.367 . S
C142 H156 0.951 . S
C143 C139 1.383 . S
C143 C142 1.367 . S
C143 H157 0.950 . S
C144 C141 1.481 . S
C144 C145 1.297 . S
C144 H158 0.950 . S
C145 C144 1.297 . S
C145 C146 1.479 1_554 S
C145 H159 0.950 . S
C146 C145 1.479 1_556 S
C146 C147 1.375 . S
C146 C152 1.404 . S
C147 C146 1.375 . S
C147 C148 1.369 . S
C147 H160 0.950 . S
C148 C147 1.369 . S
C148 C149 1.392 . S
C148 H161 0.951 . S
C149 C148 1.392 . S
C149 C151 1.384 . S
H150 C152 0.949 . S
C151 C149 1.384 . S
C151 C152 1.385 . S
C151 H153 0.950 . S
C152 C146 1.404 . S
C152 H150 0.949 . S
C152 C151 1.385 . S
H153 C151 0.950 . S
H154 C138 0.951 . S
H155 C140 0.951 . S
H156 C142 0.951 . S
H157 C143 0.950 . S
H158 C144 0.950 . S
H159 C145 0.950 . S
H160 C147 0.950 . S
H161 C148 0.951 . S
C162 C163 1.386 . S
C162 C164 1.383 . S
C162 H178 0.951 . S
C163 C162 1.386 . S
C163 C167 1.383 . S
C164 C162 1.383 . S
C164 C165 1.402 . S
C164 H179 0.951 . S
C165 C164 1.402 . S
C165 C166 1.375 . S
C165 C168 1.481 . S
C166 C165 1.375 . S
C166 C167 1.367 . S
C166 H180 0.951 . S
C167 C163 1.383 . S
C167 C166 1.367 . S
C167 H181 0.950 . S
C168 C165 1.481 . S
C168 C169 1.297 . S
C168 H182 0.950 . S
C169 C168 1.297 . S
C169 C170 1.479 . S
C169 H183 0.950 . S
C170 C169 1.479 . S
C170 C171 1.375 . S
C170 C176 1.404 . S
C171 C170 1.375 . S
C171 C172 1.369 . S
C171 H184 0.950 . S
C172 C171 1.369 . S
C172 C173 1.399 . S
C172 H185 0.951 . S
C173 C172 1.399 . S
C173 C175 1.393 . S
H174 C176 0.949 . S
C175 C173 1.393 . S
C175 C176 1.385 . S
C175 H177 0.950 . S
C176 C170 1.404 . S
C176 H174 0.949 . S
C176 C175 1.385 . S
H177 C175 0.950 . S
H178 C162 0.951 . S
H179 C164 0.951 . S
H180 C166 0.951 . S
H181 C167 0.950 . S
H182 C168 0.950 . S
H183 C169 0.950 . S
H184 C171 0.950 . S
H185 C172 0.951 . S
C186 C187 1.386 . S
C186 C188 1.383 . S
C186 H202 0.951 . S
C187 C186 1.386 . S
C187 C191 1.383 . S
C188 C186 1.383 . S
C188 C189 1.402 . S
C188 H203 0.951 . S
C189 C188 1.402 . S
C189 C190 1.375 . S
C189 C192 1.481 . S
C190 C189 1.375 . S
C190 C191 1.367 . S
C190 H204 0.951 . S
C191 C187 1.383 . S
C191 C190 1.367 . S
C191 H205 0.950 . S
C192 C189 1.481 . S
C192 C193 1.297 . S
C192 H206 0.950 . S
C193 C192 1.297 . S
C193 C194 1.479 . S
C193 H207 0.950 . S
C194 C193 1.479 . S
C194 C195 1.375 . S
C194 C200 1.404 . S
C195 C194 1.375 . S
C195 C196 1.369 . S
C195 H208 0.950 . S
C196 C195 1.369 . S
C196 C197 1.392 . S
C196 H209 0.951 . S
C197 C196 1.392 . S
C197 C199 1.384 . S
H198 C200 0.949 . S
C199 C197 1.384 . S
C199 C200 1.385 . S
C199 H201 0.950 . S
C200 C194 1.404 . S
C200 H198 0.949 . S
C200 C199 1.385 . S
H201 C199 0.950 . S
H202 C186 0.951 . S
H203 C188 0.951 . S
H204 C190 0.951 . S
H205 C191 0.950 . S
H206 C192 0.950 . S
H207 C193 0.950 . S
H208 C195 0.950 . S
H209 C196 0.951 . S
C210 C211 1.386 . S
C210 C212 1.383 . S
C210 H226 0.951 . S
C211 C210 1.386 . S
C211 C215 1.383 . S
C212 C210 1.383 . S
C212 C213 1.402 . S
C212 H227 0.951 . S
C213 C212 1.402 . S
C213 C214 1.375 . S
C213 C216 1.481 . S
C214 C213 1.375 . S
C214 C215 1.367 . S
C214 H228 0.951 . S
C215 C211 1.383 . S
C215 C214 1.367 . S
C215 H229 0.950 . S
C216 C213 1.481 . S
C216 C217 1.297 . S
C216 H230 0.950 . S
C217 C216 1.297 . S
C217 C218 1.479 . S
C217 H231 0.950 . S
C218 C217 1.479 . S
C218 C219 1.375 . S
C218 C224 1.404 . S
C219 C218 1.375 . S
C219 C220 1.369 . S
C219 H232 0.950 . S
C220 C219 1.369 . S
C220 C221 1.392 . S
C220 H233 0.951 . S
C221 C220 1.392 . S
C221 C223 1.384 . S
H222 C224 0.949 . S
C223 C221 1.384 . S
C223 C224 1.385 . S
C223 H225 0.950 . S
C224 C218 1.404 . S
C224 H222 0.949 . S
C224 C223 1.385 . S
H225 C223 0.950 . S
H226 C210 0.951 . S
H227 C212 0.951 . S
H228 C214 0.951 . S
H229 C215 0.950 . S
H230 C216 0.950 . S
H231 C217 0.950 . S
H232 C219 0.950 . S
H233 C220 0.951 . S
C234 C235 1.386 . S
C234 C236 1.383 . S
C234 H250 0.951 . S
C235 C234 1.386 . S
C235 C239 1.383 . S
C236 C234 1.383 . S
C236 C237 1.402 . S
C236 H251 0.951 . S
C237 C236 1.402 . S
C237 C238 1.375 . S
C237 C240 1.481 . S
C238 C237 1.375 . S
C238 C239 1.367 . S
C238 H252 0.951 . S
C239 C235 1.383 . S
C239 C238 1.367 . S
C239 H253 0.950 . S
C240 C237 1.481 . S
C240 C241 1.297 . S
C240 H254 0.950 . S
C241 C240 1.297 . S
C241 C242 1.479 . S
C241 H255 0.950 . S
C242 C241 1.479 . S
C242 C243 1.375 . S
C242 C248 1.404 . S
C243 C242 1.375 . S
C243 C244 1.369 . S
C243 H256 0.950 . S
C244 C243 1.369 . S
C244 C245 1.392 . S
C244 H257 0.951 . S
C245 C244 1.392 . S
C245 C247 1.384 . S
H246 C248 0.949 . S
C247 C245 1.384 . S
C247 C248 1.385 . S
C247 H249 0.950 . S
C248 C242 1.404 . S
C248 H246 0.949 . S
C248 C247 1.385 . S
H249 C247 0.950 . S
H250 C234 0.951 . S
H251 C236 0.951 . S
H252 C238 0.951 . S
H253 C239 0.950 . S
H254 C240 0.950 . S
H255 C241 0.950 . S
H256 C243 0.950 . S
H257 C244 0.951 . S
C258 C259 1.386 . S
C258 C260 1.383 . S
C258 H274 0.951 . S
C259 C258 1.386 . S
C259 C263 1.383 . S
C260 C258 1.383 . S
C260 C261 1.402 . S
C260 H275 0.951 . S
C261 C260 1.402 . S
C261 C262 1.375 . S
C261 C264 1.481 1_554 S
C262 C261 1.375 . S
C262 C263 1.367 . S
C262 H276 0.951 . S
C263 C259 1.383 . S
C263 C262 1.367 . S
C263 H277 0.950 . S
C264 C261 1.481 1_556 S
C264 C265 1.297 . S
C264 H278 0.950 . S
C265 C264 1.297 . S
C265 C266 1.479 . S
C265 H279 0.950 . S
C266 C265 1.479 . S
C266 C267 1.375 . S
C266 C272 1.404 . S
C267 C266 1.375 . S
C267 C268 1.369 . S
C267 H280 0.950 . S
C268 C267 1.369 . S
C268 C269 1.392 . S
C268 H281 0.951 . S
C269 C268 1.392 . S
C269 C271 1.384 . S
H270 C272 0.949 . S
C271 C269 1.384 . S
C271 C272 1.385 . S
C271 H273 0.950 . S
C272 C266 1.404 . S
C272 H270 0.949 . S
C272 C271 1.385 . S
H273 C271 0.950 . S
H274 C258 0.951 . S
H275 C260 0.951 . S
H276 C262 0.951 . S
H277 C263 0.950 . S
H278 C264 0.950 . S
H279 C265 0.950 . S
H280 C267 0.950 . S
H281 C268 0.951 . S
C282 C283 1.386 . S
C282 C284 1.383 . S
C282 H298 0.951 . S
C283 C282 1.386 . S
C283 C287 1.383 . S
C284 C282 1.383 . S
C284 C285 1.402 . S
C284 H299 0.951 . S
C285 C284 1.402 . S
C285 C286 1.375 . S
C285 C288 1.481 . S
C286 C285 1.375 . S
C286 C287 1.367 . S
C286 H300 0.951 . S
C287 C283 1.383 . S
C287 C286 1.367 . S
C287 H301 0.950 . S
C288 C285 1.481 . S
C288 C289 1.297 1_545 S
C288 H302 0.956 1_545 S
C289 C288 1.297 1_565 S
C289 C290 1.479 . S
C289 H303 0.950 . S
C290 C289 1.479 . S
C290 C291 1.375 . S
C290 C296 1.404 . S
C291 C290 1.375 . S
C291 C292 1.369 . S
C291 H304 0.950 . S
C292 C291 1.369 . S
C292 C293 1.392 . S
C292 H305 0.951 . S
C293 C292 1.392 . S
C293 C295 1.384 . S
H294 C296 0.949 . S
C295 C293 1.384 . S
C295 C296 1.385 . S
C295 H297 0.950 . S
C296 C290 1.404 . S
C296 H294 0.949 . S
C296 C295 1.385 . S
H297 C295 0.950 . S
H298 C282 0.951 . S
H299 C284 0.951 . S
H300 C286 0.951 . S
H301 C287 0.950 . S
H302 C288 0.956 1_565 S
H303 C289 0.950 . S
H304 C291 0.950 . S
H305 C292 0.951 . S
C306 C307 1.386 . S
C306 C308 1.383 . S
C306 H322 0.951 . S
C307 C306 1.386 . S
C307 C311 1.383 . S
C308 C306 1.383 . S
C308 C309 1.402 . S
C308 H323 0.951 . S
C309 C308 1.402 . S
C309 C310 1.375 . S
C309 C312 1.481 . S
C310 C309 1.375 . S
C310 C311 1.367 . S
C310 H324 0.951 . S
C311 C307 1.383 . S
C311 C310 1.367 . S
C311 H325 0.950 . S
C312 C309 1.481 . S
C312 C313 1.297 . S
C312 H326 0.950 . S
C313 C312 1.297 . S
C313 C314 1.479 . S
C313 H327 0.950 . S
C314 C313 1.479 . S
C314 C315 1.375 . S
C314 C320 1.404 . S
C315 C314 1.375 . S
C315 C316 1.369 . S
C315 H328 0.950 . S
C316 C315 1.369 . S
C316 C317 1.392 . S
C316 H329 0.951 . S
C317 C316 1.392 . S
C317 C319 1.384 . S
H318 C320 0.949 . S
C319 C317 1.384 . S
C319 C320 1.385 . S
C319 H321 0.950 . S
C320 C314 1.404 . S
C320 H318 0.949 . S
C320 C319 1.385 . S
H321 C319 0.950 . S
H322 C306 0.951 . S
H323 C308 0.951 . S
H324 C310 0.951 . S
H325 C311 0.950 . S
H326 C312 0.950 . S
H327 C313 0.950 . S
H328 C315 0.950 . S
H329 C316 0.951 . S
C330 C331 1.386 . S
C330 C332 1.383 . S
C330 H346 0.951 . S
C331 C330 1.386 . S
C331 C335 1.383 . S
C332 C330 1.383 . S
C332 C333 1.402 . S
C332 H347 0.951 . S
C333 C332 1.402 . S
C333 C334 1.375 . S
C333 C336 1.481 . S
C334 C333 1.375 . S
C334 C335 1.367 . S
C334 H348 0.951 . S
C335 C331 1.383 . S
C335 C334 1.367 . S
C335 H349 0.950 . S
C336 C333 1.481 . S
C336 C337 1.297 1_655 S
C336 H350 0.950 1_655 S
C337 C336 1.297 1_455 S
C337 C338 1.479 . S
C337 H351 0.950 1_455 S
C338 C337 1.479 . S
C338 C339 1.375 . S
C338 C344 1.404 . S
C339 C338 1.375 . S
C339 C340 1.369 . S
C339 H352 0.950 . S
C340 C339 1.369 . S
C340 C341 1.392 . S
C340 H353 0.951 . S
C341 C340 1.392 . S
C341 C343 1.384 . S
H342 C344 0.949 . S
C343 C341 1.384 . S
C343 C344 1.385 . S
C343 H345 0.950 . S
C344 C338 1.404 . S
C344 H342 0.949 . S
C344 C343 1.385 . S
H345 C343 0.950 . S
H346 C330 0.951 . S
H347 C332 0.951 . S
H348 C334 0.951 . S
H349 C335 0.950 . S
H350 C336 0.950 1_455 S
H351 C337 0.950 1_655 S
H352 C339 0.950 . S
H353 C340 0.951 . S
C354 C355 1.386 . S
C354 C356 1.383 . S
C354 H370 0.951 . S
C355 C354 1.386 . S
C355 C359 1.383 1_554 S
C356 C354 1.383 . S
C356 C357 1.402 1_554 S
C356 H371 0.951 . S
C357 C356 1.402 1_556 S
C357 C358 1.375 . S
C357 C360 1.481 . S
C358 C357 1.375 . S
C358 C359 1.367 . S
C358 H372 0.951 . S
C359 C355 1.383 1_556 S
C359 C358 1.367 . S
C359 H373 0.950 . S
C360 C357 1.481 . S
C360 C361 1.297 1_565 S
C360 H374 0.950 . S
C361 C360 1.297 1_545 S
C361 C362 1.479 . S
C361 H375 0.950 1_556 S
C362 C361 1.479 . S
C362 C363 1.375 1_556 S
C362 C368 1.404 . S
C363 C362 1.375 1_554 S
C363 C364 1.369 1_554 S
C363 H376 0.950 . S
C364 C363 1.369 1_556 S
C364 C365 1.392 . S
C364 H377 0.951 1_556 S
C365 C364 1.392 . S
C365 C367 1.384 . S
H366 C368 0.949 . S
C367 C365 1.384 . S
C367 C368 1.385 . S
C367 H369 0.950 . S
C368 C362 1.404 . S
C368 H366 0.949 . S
C368 C367 1.385 . S
H369 C367 0.950 . S
H370 C354 0.951 . S
H371 C356 0.951 . S
H372 C358 0.951 . S
H373 C359 0.950 . S
H374 C360 0.950 . S
H375 C361 0.950 1_554 S
H376 C363 0.950 . S
H377 C364 0.951 1_554 S
C378 C379 1.386 . S
C378 C380 1.383 . S
C378 H394 0.951 . S
C379 C378 1.386 . S
C379 C383 1.383 . S
C380 C378 1.383 . S
C380 C381 1.402 . S
C380 H395 0.951 . S
C381 C380 1.402 . S
C381 C382 1.375 . S
C381 C384 1.481 . S
C382 C381 1.375 . S
C382 C383 1.367 . S
C382 H396 0.951 . S
C383 C379 1.383 . S
C383 C382 1.367 . S
C383 H397 0.950 . S
C384 C381 1.481 . S
C384 C385 1.297 . S
C384 H398 0.950 . S
C385 C384 1.297 . S
C385 C386 1.479 . S
C385 H399 0.950 . S
C386 C385 1.479 . S
C386 C387 1.375 . S
C386 C392 1.404 . S
C387 C386 1.375 . S
C387 C388 1.369 . S
C387 H400 0.950 . S
C388 C387 1.369 . S
C388 C389 1.392 . S
C388 H401 0.951 . S
C389 C388 1.392 . S
C389 C391 1.384 . S
H390 C392 0.949 . S
C391 C389 1.384 . S
C391 C392 1.385 . S
C391 H393 0.950 . S
C392 C386 1.404 . S
C392 H390 0.949 . S
C392 C391 1.385 . S
H393 C391 0.950 . S
H394 C378 0.951 . S
H395 C380 0.951 . S
H396 C382 0.951 . S
H397 C383 0.950 . S
H398 C384 0.950 . S
H399 C385 0.950 . S
H400 C387 0.950 . S
H401 C388 0.951 . S
C402 C403 1.386 . S
C402 C404 1.383 . S
C402 H418 0.951 . S
C403 C402 1.386 . S
C403 C407 1.383 . S
C404 C402 1.383 . S
C404 C405 1.402 . S
C404 H419 0.951 . S
C405 C404 1.402 . S
C405 C406 1.375 . S
C405 C408 1.481 . S
C406 C405 1.375 . S
C406 C407 1.367 . S
C406 H420 0.951 . S
C407 C403 1.383 . S
C407 C406 1.367 . S
C407 H421 0.950 . S
C408 C405 1.481 . S
C408 C409 1.297 1_655 S
C408 H422 0.950 1_655 S
C409 C408 1.297 1_455 S
C409 C410 1.479 . S
C409 H423 0.950 1_455 S
C410 C409 1.479 . S
C410 C411 1.375 . S
C410 C416 1.404 . S
C411 C410 1.375 . S
C411 C412 1.369 . S
C411 H424 0.950 . S
C412 C411 1.369 . S
C412 C413 1.392 . S
C412 H425 0.951 . S
C413 C412 1.392 . S
C413 C415 1.384 . S
H414 C416 0.949 . S
C415 C413 1.384 . S
C415 C416 1.385 . S
C415 H417 0.950 . S
C416 C410 1.404 . S
C416 H414 0.949 . S
C416 C415 1.385 . S
H417 C415 0.950 . S
H418 C402 0.951 . S
H419 C404 0.951 . S
H420 C406 0.951 . S
H421 C407 0.950 . S
H422 C408 0.950 1_455 S
H423 C409 0.950 1_655 S
H424 C411 0.950 . S
H425 C412 0.951 . S
C426 C427 1.386 . S
C426 C428 1.383 . S
C426 H442 0.951 . S
C427 C426 1.386 . S
C427 C431 1.383 . S
C428 C426 1.383 . S
C428 C429 1.402 . S
C428 H443 0.951 . S
C429 C428 1.402 . S
C429 C430 1.375 . S
C429 C432 1.481 . S
C430 C429 1.375 . S
C430 C431 1.367 . S
C430 H444 0.951 . S
C431 C427 1.383 . S
C431 C430 1.367 . S
C431 H445 0.950 . S
C432 C429 1.481 . S
C432 C433 1.297 . S
C432 H446 0.950 . S
C433 C432 1.297 . S
C433 C434 1.479 . S
C433 H447 0.950 . S
C434 C433 1.479 . S
C434 C435 1.375 . S
C434 C440 1.404 . S
C435 C434 1.375 . S
C435 C436 1.369 . S
C435 H448 0.950 . S
C436 C435 1.369 . S
C436 C437 1.392 . S
C436 H449 0.951 . S
C437 C436 1.392 . S
C437 C439 1.384 . S
H438 C440 0.949 . S
C439 C437 1.384 . S
C439 C440 1.385 . S
C439 H441 0.950 . S
C440 C434 1.404 . S
C440 H438 0.949 . S
C440 C439 1.385 . S
H441 C439 0.950 . S
H442 C426 0.951 . S
H443 C428 0.951 . S
H444 C430 0.951 . S
H445 C431 0.950 . S
H446 C432 0.950 . S
H447 C433 0.950 . S
H448 C435 0.950 . S
H449 C436 0.951 . S
C450 C451 1.386 . S
C450 C452 1.383 . S
C450 H466 0.951 . S
C451 C450 1.386 . S
C451 C455 1.383 . S
C452 C450 1.383 . S
C452 C453 1.402 . S
C452 H467 0.951 . S
C453 C452 1.402 . S
C453 C454 1.375 . S
C453 C456 1.481 . S
C454 C453 1.375 . S
C454 C455 1.367 . S
C454 H468 0.951 . S
C455 C451 1.383 . S
C455 C454 1.367 . S
C455 H469 0.950 . S
C456 C453 1.481 . S
C456 C457 1.297 . S
C456 H470 0.950 . S
C457 C456 1.297 . S
C457 C458 1.479 . S
C457 H471 0.950 . S
C458 C457 1.479 . S
C458 C459 1.375 . S
C458 C464 1.404 . S
C459 C458 1.375 . S
C459 C460 1.369 . S
C459 H472 0.950 . S
C460 C459 1.369 . S
C460 C461 1.392 . S
C460 H473 0.951 . S
C461 C460 1.392 . S
C461 C463 1.384 . S
H462 C464 0.949 . S
C463 C461 1.384 . S
C463 C464 1.385 . S
C463 H465 0.950 . S
C464 C458 1.404 . S
C464 H462 0.949 . S
C464 C463 1.385 . S
H465 C463 0.950 . S
H466 C450 0.951 . S
H467 C452 0.951 . S
H468 C454 0.951 . S
H469 C455 0.950 . S
H470 C456 0.950 . S
H471 C457 0.950 . S
H472 C459 0.950 . S
H473 C460 0.951 . S
C474 C475 1.386 . S
C474 C476 1.383 . S
C474 H490 0.951 . S
C475 C474 1.386 . S
C475 C479 1.383 . S
C476 C474 1.383 . S
C476 C477 1.402 . S
C476 H491 0.951 . S
C477 C476 1.402 . S
C477 C478 1.375 . S
C477 C480 1.481 . S
C478 C477 1.375 . S
C478 C479 1.367 . S
C478 H492 0.951 . S
C479 C475 1.383 . S
C479 C478 1.367 . S
C479 H493 0.950 . S
C480 C477 1.481 . S
C480 C481 1.297 . S
C480 H494 0.950 . S
C481 C480 1.297 . S
C481 C482 1.479 . S
C481 H495 0.950 . S
C482 C481 1.479 . S
C482 C483 1.375 . S
C482 C488 1.404 . S
C483 C482 1.375 . S
C483 C484 1.369 . S
C483 H496 0.950 . S
C484 C483 1.369 . S
C484 C485 1.392 . S
C484 H497 0.951 . S
C485 C484 1.392 . S
C485 C487 1.384 . S
H486 C488 0.949 . S
C487 C485 1.384 . S
C487 C488 1.385 . S
C487 H489 0.950 . S
C488 C482 1.404 . S
C488 H486 0.949 . S
C488 C487 1.385 . S
H489 C487 0.950 . S
H490 C474 0.951 . S
H491 C476 0.951 . S
H492 C478 0.951 . S
H493 C479 0.950 . S
H494 C480 0.950 . S
H495 C481 0.950 . S
H496 C483 0.950 . S
H497 C484 0.951 . S
C498 C499 1.386 1_556 S
C498 C500 1.383 . S
C498 H514 0.951 1_556 S
C499 C498 1.386 1_554 S
C499 C503 1.383 1_554 S
C500 C498 1.383 . S
C500 C501 1.402 . S
C500 H515 0.951 . S
C501 C500 1.402 . S
C501 C502 1.375 . S
C501 C504 1.481 . S
C502 C501 1.375 . S
C502 C503 1.367 . S
C502 H516 0.951 . S
C503 C499 1.383 1_556 S
C503 C502 1.367 . S
C503 H517 0.950 1_556 S
C504 C501 1.481 . S
C504 C505 1.297 . S
C504 H518 0.950 . S
C505 C504 1.297 . S
C505 C506 1.479 . S
C505 H519 0.950 . S
C506 C505 1.479 . S
C506 C507 1.375 . S
C506 C512 1.404 . S
C507 C506 1.375 . S
C507 C508 1.369 . S
C507 H520 0.950 . S
C508 C507 1.369 . S
C508 C509 1.392 . S
C508 H521 0.951 . S
C509 C508 1.392 . S
C509 C511 1.384 . S
H510 C512 0.949 . S
C511 C509 1.384 . S
C511 C512 1.385 . S
C511 H513 0.950 . S
C512 C506 1.404 . S
C512 H510 0.949 . S
C512 C511 1.385 . S
H513 C511 0.950 . S
H514 C498 0.951 1_554 S
H515 C500 0.951 . S
H516 C502 0.951 . S
H517 C503 0.950 1_554 S
H518 C504 0.950 . S
H519 C505 0.950 . S
H520 C507 0.950 . S
H521 C508 0.951 . S
C522 C523 1.386 . S
C522 C524 1.383 . S
C522 H538 0.951 . S
C523 C522 1.386 . S
C523 C527 1.383 . S
C524 C522 1.383 . S
C524 C525 1.402 . S
C524 H539 0.951 . S
C525 C524 1.402 . S
C525 C526 1.375 . S
C525 C528 1.481 . S
C526 C525 1.375 . S
C526 C527 1.367 . S
C526 H540 0.951 . S
C527 C523 1.383 . S
C527 C526 1.367 . S
C527 H541 0.950 . S
C528 C525 1.481 . S
C528 C529 1.297 . S
C528 H542 0.950 . S
C529 C528 1.297 . S
C529 C530 1.479 . S
C529 H543 0.950 . S
C530 C529 1.479 . S
C530 C531 1.375 . S
C530 C536 1.404 1_554 S
C531 C530 1.375 . S
C531 C532 1.369 . S
C531 H544 0.950 . S
C532 C531 1.369 . S
C532 C533 1.392 1_554 S
C532 H545 0.951 . S
C533 C532 1.392 1_556 S
C533 C535 1.384 . S
H534 C536 0.949 . S
C535 C533 1.384 . S
C535 C536 1.385 . S
C535 H537 0.950 . S
C536 C530 1.404 1_556 S
C536 H534 0.949 . S
C536 C535 1.385 . S
H537 C535 0.950 . S
H538 C522 0.951 . S
H539 C524 0.951 . S
H540 C526 0.951 . S
H541 C527 0.950 . S
H542 C528 0.950 . S
H543 C529 0.950 . S
H544 C531 0.950 . S
H545 C532 0.951 . S
C546 C547 1.386 . S
C546 C548 1.383 . S
C546 H562 0.951 . S
C547 C546 1.386 . S
C547 C551 1.383 . S
C548 C546 1.383 . S
C548 C549 1.402 . S
C548 H563 0.951 . S
C549 C548 1.402 . S
C549 C550 1.375 . S
C549 C552 1.481 . S
C550 C549 1.375 . S
C550 C551 1.367 . S
C550 H564 0.951 . S
C551 C547 1.383 . S
C551 C550 1.367 . S
C551 H565 0.950 . S
C552 C549 1.481 . S
C552 C553 1.297 . S
C552 H566 0.950 . S
C553 C552 1.297 . S
C553 C554 1.479 . S
C553 H567 0.950 . S
C554 C553 1.479 . S
C554 C555 1.375 . S
C554 C560 1.404 . S
C555 C554 1.375 . S
C555 C556 1.369 . S
C555 H568 0.950 . S
C556 C555 1.369 . S
C556 C557 1.392 . S
C556 H569 0.951 . S
C557 C556 1.392 . S
C557 C559 1.384 . S
H558 C560 0.949 . S
C559 C557 1.384 . S
C559 C560 1.385 . S
C559 H561 0.950 . S
C560 C554 1.404 . S
C560 H558 0.949 . S
C560 C559 1.385 . S
H561 C559 0.950 . S
H562 C546 0.951 . S
H563 C548 0.951 . S
H564 C550 0.951 . S
H565 C551 0.950 . S
H566 C552 0.950 . S
H567 C553 0.950 . S
H568 C555 0.950 . S
H569 C556 0.951 . S
C139 C17 1.232 . S
C149 C16 1.241 . S
C163 C40 1.238 . S
C173 C39 1.208 1_554 S
C187 C62 1.239 . S
C197 C63 1.224 . S
C211 C85 1.229 . S
C221 C86 1.239 . S
C235 C108 1.244 . S
C245 C109 1.229 1_556 S
C259 C132 1.239 . S
C269 C131 1.238 . S
C283 C20 1.466 . S
C293 C136 1.436 . S
C307 C21 1.418 . S
C317 C43 1.453 . S
C331 C66 1.462 . S
C341 C44 1.398 . S
C355 C89 1.471 . S
C365 C67 1.448 . S
C379 C112 1.462 . S
C389 C90 1.397 . S
C403 C113 1.418 . S
C413 C135 1.454 . S
C427 C19 1.644 . S
C437 C110 1.651 . S
C451 C42 1.614 . S
C461 C133 1.647 . S
C475 C65 1.620 . S
C485 C18 1.656 . S
C499 C88 1.648 . S
C509 C41 1.647 . S
C523 C111 1.646 . S
C533 C64 1.650 . S
C547 C87 1.652 . S
C557 C134 1.649 . S
