# Generated by pormake.
# Topology wke, (5)-cn, num edge types: 1
# Building blocks:
#     Node 0, Type 0, BuildingBlock: XOMCOT_clean_sbu_0, # of connection points: 5
#     Node 1, Type 0, BuildingBlock: XOMCOT_clean_sbu_0, # of connection points: 5
#     Node 2, Type 0, BuildingBlock: XOMCOT_clean_sbu_0, # of connection points: 5
#     Node 3, Type 0, BuildingBlock: XOMCOT_clean_sbu_0, # of connection points: 5
#     Node 4, Type 0, BuildingBlock: XOMCOT_clean_sbu_0, # of connection points: 5
#     Node 5, Type 0, BuildingBlock: XOMCOT_clean_sbu_0, # of connection points: 5
#     Node 6, Type 0, BuildingBlock: XOMCOT_clean_sbu_0, # of connection points: 5
#     Node 7, Type 0, BuildingBlock: XOMCOT_clean_sbu_0, # of connection points: 5
#     Node 8, Type 0, BuildingBlock: XOMCOT_clean_sbu_0, # of connection points: 5
#     Node 9, Type 0, BuildingBlock: XOMCOT_clean_sbu_0, # of connection points: 5
#     Node 10, Type 0, BuildingBlock: XOMCOT_clean_sbu_0, # of connection points: 5
#     Node 11, Type 0, BuildingBlock: XOMCOT_clean_sbu_0, # of connection points: 5
#     Edge 12, Type (0, 0), None
#     Edge 13, Type (0, 0), None
#     Edge 14, Type (0, 0), None
#     Edge 15, Type (0, 0), None
#     Edge 16, Type (0, 0), None
#     Edge 17, Type (0, 0), None
#     Edge 18, Type (0, 0), None
#     Edge 19, Type (0, 0), None
#     Edge 20, Type (0, 0), None
#     Edge 21, Type (0, 0), None
#     Edge 22, Type (0, 0), None
#     Edge 23, Type (0, 0), None
#     Edge 24, Type (0, 0), None
#     Edge 25, Type (0, 0), None
#     Edge 26, Type (0, 0), None
#     Edge 27, Type (0, 0), None
#     Edge 28, Type (0, 0), None
#     Edge 29, Type (0, 0), None
#     Edge 30, Type (0, 0), None
#     Edge 31, Type (0, 0), None
#     Edge 32, Type (0, 0), None
#     Edge 33, Type (0, 0), None
#     Edge 34, Type (0, 0), None
#     Edge 35, Type (0, 0), None
#     Edge 36, Type (0, 0), None
#     Edge 37, Type (0, 0), None
#     Edge 38, Type (0, 0), None
#     Edge 39, Type (0, 0), None
#     Edge 40, Type (0, 0), None
#     Edge 41, Type (0, 0), None
# Relax obj value: 0.146
# Max RMSD: 0.149
# Mean RMSD: 0.149
data_MOF--net-wke--node1-XOMCOT_clean_sbu_0--edge1-none
_symmetry_space_group_name_H-M    P1
_symmetry_Int_Tables_number       1
_symmetry_cell_setting            triclinic
loop_
_symmetry_equiv_pos_as_xyz
'x, y, z'
_cell_length_a     34.132063
_cell_length_b     34.13223
_cell_length_c     9.2932337
_cell_angle_alpha  90.001705
_cell_angle_beta   89.996589
_cell_angle_gamma 120.00049
loop_
_atom_site_label
_atom_site_type_symbol
_atom_site_fract_x
_atom_site_fract_y
_atom_site_fract_z
_atom_type_partial_charge
Co0 Co 0.12835 0.40966 0.38651 0.0
C1 C 0.1278 0.42282 0.07907 0.0
C2 C 0.08386 0.35324 0.13639 0.0
C3 C 0.09203 0.35553 0.99063 0.0
N4 N 0.1062 0.39541 0.1918 0.0
N5 N 0.12037 0.39917 0.95654 0.0
H6 H 0.15232 0.45844 0.08968 0.0
H7 H 0.0678 0.32255 0.19966 0.0
C8 C 0.02449 0.3437 0.45819 0.0
O9 O 1.00741 0.33643 0.3279 0.0
N10 N 0.1506 0.42222 0.58461 0.0
C11 C 0.18458 0.45969 0.64715 0.0
C12 C 0.17899 0.45603 0.79505 0.0
C13 C 0.12747 0.39509 0.69635 0.0
N14 N 0.14257 0.41551 0.82362 0.0
C15 C 0.1537 0.50284 0.39333 0.0
C16 C 0.07273 0.49298 0.29731 0.0
C17 C 0.11085 0.53661 0.30261 0.0
C18 C 0.15092 0.541 0.35947 0.0
C19 C 0.07653 0.45538 0.33918 0.0
N20 N 0.11703 0.46046 0.38404 0.0
H21 H 0.18671 0.50775 0.41439 0.0
H22 H 0.04781 0.42219 0.32317 0.0
H23 H 0.21159 0.48808 0.59184 0.0
H24 H 0.0989 0.36137 0.68631 0.0
O25 O 0.18863 0.44152 0.31032 0.0
O26 O 0.15299 0.36854 0.36143 0.0
O27 O 0.06685 0.36902 0.47822 0.0
C28 C 0.18836 0.40358 0.30575 0.0
H29 H 0.08156 0.32706 0.91879 0.0
H30 H 0.19958 0.48122 0.87424 0.0
H31 H 0.04098 0.48746 0.25352 0.0
H32 H 0.18119 0.57368 0.37105 0.0
Co33 Co 0.72488 0.12524 0.88652 0.0
C34 C 0.71118 0.1247 0.57908 0.0
C35 C 0.73682 0.08076 0.63639 0.0
C36 C 0.7427 0.08893 0.49064 0.0
N37 N 0.71699 0.1031 0.69182 0.0
N38 N 0.72739 0.11726 0.45655 0.0
H39 H 0.70008 0.14922 0.5897 0.0
H40 H 0.75144 0.0647 0.69966 0.0
C41 C 0.68699 0.02139 0.95819 0.0
O42 O 0.67719 1.00431 0.82791 0.0
N43 N 0.73458 0.1475 0.08463 0.0
C44 C 0.73107 0.18147 0.14718 0.0
C45 C 0.72915 0.17588 0.29507 0.0
C46 C 0.73858 0.12437 0.19636 0.0
N47 N 0.73325 0.13947 0.32364 0.0
C48 C 0.65705 0.1506 0.89335 0.0
C49 C 0.58595 0.06963 0.79732 0.0
C50 C 0.58043 0.10775 0.80262 0.0
C51 C 0.61611 0.14782 0.85948 0.0
C52 C 0.62734 0.07342 0.8392 0.0
N53 N 0.66277 0.11393 0.88406 0.0
H54 H 0.68515 0.18361 0.91441 0.0
H55 H 0.63181 0.04471 0.82319 0.0
H56 H 0.7297 0.20849 0.09187 0.0
H57 H 0.74373 0.09581 0.18631 0.0
O58 O 0.7533 0.18552 0.81034 0.0
O59 O 0.79064 0.14989 0.86144 0.0
O60 O 0.70403 0.06376 0.97822 0.0
C61 C 0.79097 0.18526 0.80577 0.0
H62 H 0.7607 0.07846 0.41879 0.0
H63 H 0.72455 0.19648 0.37427 0.0
H64 H 0.55971 0.03788 0.75353 0.0
H65 H 0.61371 0.17809 0.87106 0.0
Co66 Co 0.60584 0.72179 0.38652 0.0
C67 C 0.59268 0.70809 0.07908 0.0
C68 C 0.66226 0.73372 0.13639 0.0
C69 C 0.65997 0.73961 0.99063 0.0
N70 N 0.62009 0.7139 0.19181 0.0
N71 N 0.61633 0.7243 0.95655 0.0
H72 H 0.55706 0.69698 0.0897 0.0
H73 H 0.69294 0.74834 0.19965 0.0
C74 C 0.6718 0.6839 0.45819 0.0
O75 O 0.67907 0.67409 0.3279 0.0
N76 N 0.59328 0.73149 0.58463 0.0
C77 C 0.5558 0.72798 0.64718 0.0
C78 C 0.55946 0.72605 0.79508 0.0
C79 C 0.62041 0.73549 0.69636 0.0
N80 N 0.59999 0.73016 0.82364 0.0
C81 C 0.51265 0.65396 0.39333 0.0
C82 C 0.52252 0.58286 0.29733 0.0
C83 C 0.47888 0.57734 0.30262 0.0
C84 C 0.47449 0.61302 0.35947 0.0
C85 C 0.56012 0.62425 0.3392 0.0
N86 N 0.55504 0.65968 0.38405 0.0
H87 H 0.50775 0.68207 0.41439 0.0
H88 H 0.59331 0.62872 0.3232 0.0
H89 H 0.52741 0.7266 0.59188 0.0
H90 H 0.65413 0.74064 0.68631 0.0
O91 O 0.57398 0.75021 0.31034 0.0
O92 O 0.64696 0.78755 0.36144 0.0
O93 O 0.64648 0.70094 0.47822 0.0
C94 C 0.61191 0.78788 0.30577 0.0
H95 H 0.68844 0.75761 0.91878 0.0
H96 H 0.53427 0.72145 0.87427 0.0
H97 H 0.52803 0.55662 0.25355 0.0
H98 H 0.44182 0.61062 0.37104 0.0
Co99 Co 0.89024 0.60274 0.88651 0.0
C100 C 0.89079 0.58958 0.57906 0.0
C101 C 0.93473 0.65916 0.63638 0.0
C102 C 0.92656 0.65687 0.49063 0.0
N103 N 0.91239 0.61699 0.6918 0.0
N104 N 0.89823 0.61323 0.45654 0.0
H105 H 0.86627 0.55397 0.58968 0.0
H106 H 0.9508 0.68984 0.69965 0.0
C107 C 0.99409 0.66869 0.95818 0.0
O108 O 0.01118 0.67597 0.82789 0.0
N109 N 0.86798 0.59018 0.08462 0.0
C110 C 0.83401 0.55271 0.14717 0.0
C111 C 0.8396 0.55637 0.29506 0.0
C112 C 0.89111 0.61731 0.19635 0.0
N113 N 0.87602 0.59689 0.32363 0.0
C114 C 0.86488 0.50956 0.89331 0.0
C115 C 0.94585 0.51942 0.79732 0.0
C116 C 0.90773 0.47578 0.80261 0.0
C117 C 0.86766 0.47139 0.85946 0.0
C118 C 0.94206 0.55702 0.83919 0.0
N119 N 0.90155 0.55194 0.88403 0.0
H120 H 0.83187 0.50465 0.91436 0.0
H121 H 0.97078 0.5902 0.82319 0.0
H122 H 0.807 0.52431 0.09186 0.0
H123 H 0.91968 0.65103 0.1863 0.0
O124 O 0.82996 0.57089 0.81033 0.0
O125 O 0.8656 0.64387 0.86143 0.0
O126 O 0.95173 0.64338 0.97821 0.0
C127 C 0.83023 0.60882 0.80575 0.0
H128 H 0.93703 0.68534 0.41878 0.0
H129 H 0.81901 0.53117 0.37425 0.0
H130 H 0.9776 0.52493 0.75354 0.0
H131 H 0.83738 0.43872 0.87102 0.0
Co132 Co 0.29369 0.88714 0.3865 0.0
C133 C 0.3074 0.88768 0.07905 0.0
C134 C 0.28177 0.93163 0.13638 0.0
C135 C 0.27588 0.92346 0.99063 0.0
N136 N 0.30159 0.90929 0.19179 0.0
N137 N 0.29119 0.89512 0.95653 0.0
H138 H 0.3185 0.86317 0.08966 0.0
H139 H 0.26715 0.9477 0.19966 0.0
C140 C 0.3316 0.991 0.45817 0.0
O141 O 0.34141 0.00808 0.32789 0.0
N142 N 0.284 0.86488 0.5846 0.0
C143 C 0.28749 0.83091 0.64714 0.0
C144 C 0.28942 0.8365 0.79504 0.0
C145 C 0.28 0.88802 0.69634 0.0
N146 N 0.28532 0.87292 0.82361 0.0
C147 C 0.36152 0.86178 0.39332 0.0
C148 C 0.43263 0.94275 0.2973 0.0
C149 C 0.43815 0.90463 0.30261 0.0
C150 C 0.40246 0.86456 0.35946 0.0
C151 C 0.39124 0.93896 0.33916 0.0
N152 N 0.35581 0.89845 0.38402 0.0
H153 H 0.33342 0.82878 0.41438 0.0
H154 H 0.38677 0.96768 0.32315 0.0
H155 H 0.28886 0.80389 0.59183 0.0
H156 H 0.27485 0.91659 0.68631 0.0
O157 O 0.26527 0.82686 0.31031 0.0
O158 O 0.22793 0.8625 0.36142 0.0
O159 O 0.31455 0.94863 0.4782 0.0
C160 C 0.2276 0.82713 0.30574 0.0
H161 H 0.25789 0.93393 0.91879 0.0
H162 H 0.29402 0.8159 0.87423 0.0
H163 H 0.45887 0.9745 0.25352 0.0
H164 H 0.40486 0.83429 0.37105 0.0
Co165 Co 0.41275 0.2906 0.8865 0.0
C166 C 0.42591 0.3043 0.57905 0.0
C167 C 0.35633 0.27867 0.63638 0.0
C168 C 0.35862 0.27278 0.49063 0.0
N169 N 0.3985 0.29849 0.69179 0.0
N170 N 0.40226 0.28809 0.45653 0.0
H171 H 0.46153 0.3154 0.58966 0.0
H172 H 0.32565 0.26405 0.69966 0.0
C173 C 0.3468 0.3285 0.95818 0.0
O174 O 0.33953 0.33831 0.82789 0.0
N175 N 0.42531 0.28091 0.0846 0.0
C176 C 0.46278 0.2844 0.14714 0.0
C177 C 0.45912 0.28632 0.29503 0.0
C178 C 0.39819 0.27691 0.19634 0.0
N179 N 0.4186 0.28223 0.32361 0.0
C180 C 0.50594 0.35843 0.89332 0.0
C181 C 0.49607 0.42953 0.79729 0.0
C182 C 0.53971 0.43505 0.8026 0.0
C183 C 0.5441 0.39937 0.85947 0.0
C184 C 0.45847 0.38814 0.83916 0.0
N185 N 0.46355 0.35271 0.88402 0.0
H186 H 0.51084 0.33033 0.91439 0.0
H187 H 0.42529 0.38367 0.82315 0.0
H188 H 0.49117 0.28577 0.09182 0.0
H189 H 0.36447 0.27176 0.18631 0.0
O190 O 0.44461 0.26218 0.81031 0.0
O191 O 0.37163 0.22484 0.86142 0.0
O192 O 0.37211 0.31145 0.9782 0.0
C193 C 0.40668 0.22451 0.80574 0.0
H194 H 0.33015 0.25479 0.41879 0.0
H195 H 0.48431 0.29092 0.37422 0.0
H196 H 0.49056 0.45577 0.75351 0.0
H197 H 0.57678 0.40178 0.87105 0.0
Co198 Co 0.60584 0.88714 0.15824 0.0
C199 C 0.59268 0.88768 0.46569 0.0
C200 C 0.66226 0.93163 0.40836 0.0
C201 C 0.65997 0.92346 0.55411 0.0
N202 N 0.62009 0.90929 0.35295 0.0
N203 N 0.61633 0.89512 0.58821 0.0
H204 H 0.55706 0.86317 0.45508 0.0
H205 H 0.69294 0.9477 0.34508 0.0
C206 C 0.67179 0.991 0.08658 0.0
O207 O 0.67906 0.00808 0.21686 0.0
N208 N 0.59328 0.86488 0.96013 0.0
C209 C 0.55581 0.83091 0.8976 0.0
C210 C 0.55947 0.8365 0.7497 0.0
C211 C 0.62041 0.88802 0.8484 0.0
N212 N 0.59999 0.87292 0.72112 0.0
C213 C 0.51265 0.86178 0.15143 0.0
C214 C 0.52252 0.94275 0.24745 0.0
C215 C 0.47888 0.90463 0.24216 0.0
C216 C 0.47449 0.86456 0.18529 0.0
C217 C 0.56012 0.93896 0.20557 0.0
N218 N 0.55504 0.89845 0.16072 0.0
H219 H 0.50775 0.82878 0.13036 0.0
H220 H 0.5933 0.96768 0.22158 0.0
H221 H 0.52742 0.80389 0.95291 0.0
H222 H 0.65413 0.91659 0.85843 0.0
O223 O 0.57398 0.82686 0.23443 0.0
O224 O 0.64696 0.8625 0.18332 0.0
O225 O 0.64648 0.94863 0.06654 0.0
C226 C 0.61191 0.82713 0.239 0.0
H227 H 0.68844 0.93394 0.62595 0.0
H228 H 0.53428 0.8159 0.67051 0.0
H229 H 0.52803 0.9745 0.29123 0.0
H230 H 0.44181 0.83429 0.17371 0.0
Co231 Co 0.72489 0.60275 0.65823 0.0
C232 C 0.71119 0.58958 0.96567 0.0
C233 C 0.73682 0.65916 0.90835 0.0
C234 C 0.74271 0.65688 0.0541 0.0
N235 N 0.717 0.617 0.85294 0.0
N236 N 0.7274 0.61323 0.0882 0.0
H237 H 0.70009 0.55397 0.95506 0.0
H238 H 0.75144 0.68985 0.84508 0.0
C239 C 0.687 0.6687 0.58657 0.0
O240 O 0.67718 0.67597 0.71685 0.0
N241 N 0.73459 0.59018 0.46012 0.0
C242 C 0.73109 0.55271 0.39757 0.0
C243 C 0.72916 0.55637 0.24968 0.0
C244 C 0.73859 0.61731 0.34839 0.0
N245 N 0.73326 0.59689 0.22111 0.0
C246 C 0.65707 0.50956 0.65141 0.0
C247 C 0.58596 0.51942 0.74743 0.0
C248 C 0.58044 0.47578 0.74215 0.0
C249 C 0.61613 0.4714 0.68528 0.0
C250 C 0.62735 0.55702 0.70555 0.0
N251 N 0.66278 0.55194 0.6607 0.0
H252 H 0.68517 0.50466 0.63035 0.0
H253 H 0.63182 0.59021 0.72155 0.0
H254 H 0.72972 0.52432 0.45288 0.0
H255 H 0.74374 0.65103 0.35843 0.0
O256 O 0.75331 0.57089 0.7344 0.0
O257 O 0.79065 0.64387 0.68331 0.0
O258 O 0.70404 0.64338 0.56653 0.0
C259 C 0.79098 0.60882 0.73898 0.0
H260 H 0.7607 0.68535 0.12595 0.0
H261 H 0.72456 0.53118 0.17048 0.0
H262 H 0.55972 0.52493 0.79121 0.0
H263 H 0.61372 0.43872 0.67371 0.0
Co264 Co 0.12834 0.72179 0.15822 0.0
C265 C 0.1278 0.70808 0.46566 0.0
C266 C 0.08385 0.73372 0.40835 0.0
C267 C 0.09203 0.73961 0.5541 0.0
N268 N 0.1062 0.7139 0.35293 0.0
N269 N 0.12036 0.7243 0.58819 0.0
H270 H 0.15231 0.69699 0.45504 0.0
H271 H 0.06779 0.74834 0.34508 0.0
C272 C 0.02449 0.6839 0.08656 0.0
O273 O 1.0074 0.67408 0.21684 0.0
N274 N 0.1506 0.73149 0.9601 0.0
C275 C 0.18457 0.72798 0.89755 0.0
C276 C 0.17898 0.72605 0.74966 0.0
C277 C 0.12747 0.73548 0.84838 0.0
N278 N 0.14256 0.73016 0.7211 0.0
C279 C 0.1537 0.65396 0.1514 0.0
C280 C 0.07273 0.58286 0.24742 0.0
C281 C 0.11085 0.57734 0.24214 0.0
C282 C 0.15092 0.61303 0.18527 0.0
C283 C 0.07652 0.62425 0.20554 0.0
N284 N 0.11703 0.65968 0.16068 0.0
H285 H 0.18671 0.68207 0.13034 0.0
H286 H 0.0478 0.62872 0.22153 0.0
H287 H 0.21158 0.7266 0.95286 0.0
H288 H 0.0989 0.74064 0.85843 0.0
O289 O 0.18862 0.75021 0.23439 0.0
O290 O 0.15298 0.78755 0.1833 0.0
O291 O 0.06685 0.70094 0.06652 0.0
C292 C 0.18836 0.78788 0.23897 0.0
H293 H 0.08155 0.7576 0.62595 0.0
H294 H 0.19957 0.72145 0.67046 0.0
H295 H 0.04098 0.55662 0.2912 0.0
H296 H 0.1812 0.61062 0.1737 0.0
Co297 Co 0.41275 0.12524 0.65822 0.0
C298 C 0.42591 0.1247 0.96566 0.0
C299 C 0.35633 0.08076 0.90835 0.0
C300 C 0.35862 0.08893 0.0541 0.0
N301 N 0.3985 0.1031 0.85292 0.0
N302 N 0.40226 0.11726 0.08819 0.0
H303 H 0.46153 0.14922 0.95504 0.0
H304 H 0.32565 0.0647 0.84508 0.0
C305 C 0.34679 0.02139 0.58656 0.0
O306 O 0.33951 1.00431 0.71684 0.0
N307 N 0.42532 0.1475 0.46011 0.0
C308 C 0.46279 0.18147 0.39756 0.0
C309 C 0.45913 0.17588 0.24967 0.0
C310 C 0.39819 0.12437 0.34838 0.0
N311 N 0.4186 0.13947 0.2211 0.0
C312 C 0.50594 0.1506 0.6514 0.0
C313 C 0.49607 0.06963 0.74743 0.0
C314 C 0.5397 0.10775 0.74215 0.0
C315 C 0.5441 0.14782 0.68527 0.0
C316 C 0.45847 0.07342 0.70554 0.0
N317 N 0.46355 0.11393 0.66068 0.0
H318 H 0.51084 0.18361 0.63033 0.0
H319 H 0.42528 0.0447 0.72154 0.0
H320 H 0.49118 0.20849 0.45287 0.0
H321 H 0.36446 0.09581 0.35843 0.0
O322 O 0.44461 0.18552 0.7344 0.0
O323 O 0.37163 0.14989 0.6833 0.0
O324 O 0.37211 0.06375 0.56652 0.0
C325 C 0.40668 0.18526 0.73897 0.0
H326 H 0.33015 0.07846 0.12595 0.0
H327 H 0.48432 0.19648 0.17047 0.0
H328 H 0.49055 0.03788 0.79121 0.0
H329 H 0.57677 0.17809 0.6737 0.0
Co330 Co 0.2937 0.40965 0.15823 0.0
C331 C 0.3074 0.42282 0.46567 0.0
C332 C 0.28177 0.35324 0.40835 0.0
C333 C 0.27588 0.35552 0.5541 0.0
N334 N 0.30159 0.3954 0.35293 0.0
N335 N 0.29119 0.39917 0.58819 0.0
H336 H 0.3185 0.45843 0.45505 0.0
H337 H 0.26715 0.32255 0.34507 0.0
C338 C 0.33159 0.3437 0.08656 0.0
O339 O 0.3414 0.33642 0.21684 0.0
N340 N 0.28401 0.42222 0.96012 0.0
C341 C 0.2875 0.45969 0.89758 0.0
C342 C 0.28943 0.45603 0.74969 0.0
C343 C 0.28001 0.39509 0.84839 0.0
N344 N 0.28533 0.41551 0.72111 0.0
C345 C 0.36154 0.50284 0.15139 0.0
C346 C 0.43263 0.49297 0.24744 0.0
C347 C 0.43815 0.53661 0.24215 0.0
C348 C 0.40247 0.541 0.18527 0.0
C349 C 0.39124 0.45537 0.20556 0.0
N350 N 0.35582 0.46046 0.16069 0.0
H351 H 0.33343 0.50775 0.13032 0.0
H352 H 0.38677 0.42219 0.22157 0.0
H353 H 0.28887 0.48808 0.9529 0.0
H354 H 0.27486 0.36137 0.85842 0.0
O355 O 0.26528 0.44152 0.23441 0.0
O356 O 0.22794 0.36854 0.18331 0.0
O357 O 0.31455 0.36901 0.06652 0.0
C358 C 0.22761 0.40358 0.23898 0.0
H359 H 0.25789 0.32705 0.62595 0.0
H360 H 0.29402 0.48122 0.6705 0.0
H361 H 0.45887 0.48746 0.29124 0.0
H362 H 0.40488 0.57368 0.17368 0.0
Co363 Co 0.89024 0.2906 0.65824 0.0
C364 C 0.89078 0.3043 0.96569 0.0
C365 C 0.93473 0.27867 0.90835 0.0
C366 C 0.92655 0.27279 0.05411 0.0
N367 N 0.91238 0.29849 0.85294 0.0
N368 N 0.89822 0.28809 0.08821 0.0
H369 H 0.86626 0.3154 0.95508 0.0
H370 H 0.95079 0.26405 0.84507 0.0
C371 C 0.99409 0.3285 0.58657 0.0
O372 O 0.01118 0.33831 0.71685 0.0
N373 N 0.86798 0.28091 0.46014 0.0
C374 C 0.83401 0.28439 0.3976 0.0
C375 C 0.83959 0.28632 0.24971 0.0
C376 C 0.89112 0.27691 0.3484 0.0
N377 N 0.87602 0.28223 0.22113 0.0
C378 C 0.86488 0.35843 0.65141 0.0
C379 C 0.94585 0.42953 0.74745 0.0
C380 C 0.90773 0.43505 0.74216 0.0
C381 C 0.86766 0.39937 0.68528 0.0
C382 C 0.94206 0.38814 0.70558 0.0
N383 N 0.90155 0.35271 0.66071 0.0
H384 H 0.83188 0.33033 0.63033 0.0
H385 H 0.97078 0.38367 0.72159 0.0
H386 H 0.80698 0.28576 0.45292 0.0
H387 H 0.91969 0.27177 0.35843 0.0
O388 O 0.82996 0.26218 0.73443 0.0
O389 O 0.8656 0.22484 0.68332 0.0
O390 O 0.95173 0.31145 0.56654 0.0
C391 C 0.83022 0.22451 0.739 0.0
H392 H 0.93703 0.25479 0.12595 0.0
H393 H 0.81899 0.29091 0.17052 0.0
H394 H 0.9776 0.45577 0.79124 0.0
H395 H 0.83739 0.40177 0.67369 0.0
loop_
_geom_bond_atom_site_label_1
_geom_bond_atom_site_label_2
_geom_bond_distance
_geom_bond_site_symmetry_2
_ccdc_geom_bond_type
Co0 N4 2.148 . S
Co0 N10 2.128 . S
Co0 N20 2.194 . S
Co0 O25 2.351 . S
Co0 O26 2.155 . S
Co0 O27 2.096 . S
C1 N4 1.301 . S
C1 N5 1.328 1_554 S
C1 H6 0.930 . S
C2 C3 1.333 1_554 S
C2 N4 1.317 . S
C2 H7 0.930 . S
C3 C2 1.333 1_556 S
C3 N5 1.350 . S
C3 H29 0.931 . S
N4 Co0 2.148 . S
N4 C1 1.301 . S
N4 C2 1.317 . S
N5 C1 1.328 1_556 S
N5 C3 1.350 . S
H6 C1 0.930 . S
H7 C2 0.930 . S
C8 O9 1.224 . S
C8 O27 1.247 . S
O9 C8 1.224 . S
N10 Co0 2.128 . S
N10 C11 1.355 . S
N10 C13 1.311 . S
C11 N10 1.355 . S
C11 C12 1.363 . S
C11 H23 0.929 . S
C12 C11 1.363 . S
C12 N14 1.375 . S
C12 H30 0.931 . S
C13 N10 1.311 . S
C13 N14 1.347 . S
C13 H24 0.929 . S
N14 C12 1.375 . S
N14 C13 1.347 . S
C15 C18 1.365 . S
C15 N20 1.328 . S
C15 H21 0.929 . S
C16 C17 1.362 . S
C16 C19 1.378 . S
C16 H31 0.929 . S
C17 C16 1.362 . S
C17 C18 1.366 . S
C18 C15 1.365 . S
C18 C17 1.366 . S
C18 H32 0.930 . S
C19 C16 1.378 . S
C19 N20 1.315 . S
C19 H22 0.930 . S
N20 Co0 2.194 . S
N20 C15 1.328 . S
N20 C19 1.315 . S
H21 C15 0.929 . S
H22 C19 0.930 . S
H23 C11 0.929 . S
H24 C13 0.929 . S
O25 Co0 2.351 . S
O25 C28 1.244 . S
O26 Co0 2.155 . S
O26 C28 1.240 . S
O27 Co0 2.096 . S
O27 C8 1.247 . S
C28 O25 1.244 . S
C28 O26 1.240 . S
H29 C3 0.931 . S
H30 C12 0.931 . S
H31 C16 0.929 . S
H32 C18 0.930 . S
Co33 N37 2.148 . S
Co33 N43 2.128 1_556 S
Co33 N53 2.194 . S
Co33 O58 2.351 . S
Co33 O59 2.155 . S
Co33 O60 2.096 . S
C34 N37 1.301 . S
C34 N38 1.328 . S
C34 H39 0.930 . S
C35 C36 1.333 . S
C35 N37 1.317 . S
C35 H40 0.930 . S
C36 C35 1.333 . S
C36 N38 1.350 . S
C36 H62 0.931 . S
N37 Co33 2.148 . S
N37 C34 1.301 . S
N37 C35 1.317 . S
N38 C34 1.328 . S
N38 C36 1.350 . S
H39 C34 0.930 . S
H40 C35 0.930 . S
C41 O42 1.224 . S
C41 O60 1.247 . S
O42 C41 1.224 . S
N43 Co33 2.128 1_554 S
N43 C44 1.355 . S
N43 C46 1.311 . S
C44 N43 1.355 . S
C44 C45 1.363 . S
C44 H56 0.929 . S
C45 C44 1.363 . S
C45 N47 1.375 . S
C45 H63 0.931 . S
C46 N43 1.311 . S
C46 N47 1.347 . S
C46 H57 0.929 . S
N47 C45 1.375 . S
N47 C46 1.347 . S
C48 C51 1.365 . S
C48 N53 1.328 . S
C48 H54 0.929 . S
C49 C50 1.362 . S
C49 C52 1.378 . S
C49 H64 0.929 . S
C50 C49 1.362 . S
C50 C51 1.366 . S
C51 C48 1.365 . S
C51 C50 1.366 . S
C51 H65 0.930 . S
C52 C49 1.378 . S
C52 N53 1.315 . S
C52 H55 0.930 . S
N53 Co33 2.194 . S
N53 C48 1.328 . S
N53 C52 1.315 . S
H54 C48 0.929 . S
H55 C52 0.930 . S
H56 C44 0.929 . S
H57 C46 0.929 . S
O58 Co33 2.351 . S
O58 C61 1.244 . S
O59 Co33 2.155 . S
O59 C61 1.240 . S
O60 Co33 2.096 . S
O60 C41 1.247 . S
C61 O58 1.244 . S
C61 O59 1.240 . S
H62 C36 0.931 . S
H63 C45 0.931 . S
H64 C49 0.929 . S
H65 C51 0.930 . S
Co66 N70 2.148 . S
Co66 N76 2.128 . S
Co66 N86 2.194 . S
Co66 O91 2.351 . S
Co66 O92 2.155 . S
Co66 O93 2.096 . S
C67 N70 1.301 . S
C67 N71 1.328 1_554 S
C67 H72 0.930 . S
C68 C69 1.333 1_554 S
C68 N70 1.317 . S
C68 H73 0.930 . S
C69 C68 1.333 1_556 S
C69 N71 1.350 . S
C69 H95 0.931 . S
N70 Co66 2.148 . S
N70 C67 1.301 . S
N70 C68 1.317 . S
N71 C67 1.328 1_556 S
N71 C69 1.350 . S
H72 C67 0.930 . S
H73 C68 0.930 . S
C74 O75 1.224 . S
C74 O93 1.247 . S
O75 C74 1.224 . S
N76 Co66 2.128 . S
N76 C77 1.355 . S
N76 C79 1.311 . S
C77 N76 1.355 . S
C77 C78 1.363 . S
C77 H89 0.929 . S
C78 C77 1.363 . S
C78 N80 1.375 . S
C78 H96 0.931 . S
C79 N76 1.311 . S
C79 N80 1.347 . S
C79 H90 0.929 . S
N80 C78 1.375 . S
N80 C79 1.347 . S
C81 C84 1.365 . S
C81 N86 1.328 . S
C81 H87 0.929 . S
C82 C83 1.362 . S
C82 C85 1.378 . S
C82 H97 0.929 . S
C83 C82 1.362 . S
C83 C84 1.366 . S
C84 C81 1.365 . S
C84 C83 1.366 . S
C84 H98 0.930 . S
C85 C82 1.378 . S
C85 N86 1.315 . S
C85 H88 0.930 . S
N86 Co66 2.194 . S
N86 C81 1.328 . S
N86 C85 1.315 . S
H87 C81 0.929 . S
H88 C85 0.930 . S
H89 C77 0.929 . S
H90 C79 0.929 . S
O91 Co66 2.351 . S
O91 C94 1.244 . S
O92 Co66 2.155 . S
O92 C94 1.240 . S
O93 Co66 2.096 . S
O93 C74 1.247 . S
C94 O91 1.244 . S
C94 O92 1.240 . S
H95 C69 0.931 . S
H96 C78 0.931 . S
H97 C82 0.929 . S
H98 C84 0.930 . S
Co99 N103 2.148 . S
Co99 N109 2.128 1_556 S
Co99 N119 2.194 . S
Co99 O124 2.351 . S
Co99 O125 2.155 . S
Co99 O126 2.096 . S
C100 N103 1.301 . S
C100 N104 1.328 . S
C100 H105 0.930 . S
C101 C102 1.333 . S
C101 N103 1.317 . S
C101 H106 0.930 . S
C102 C101 1.333 . S
C102 N104 1.350 . S
C102 H128 0.931 . S
N103 Co99 2.148 . S
N103 C100 1.301 . S
N103 C101 1.317 . S
N104 C100 1.328 . S
N104 C102 1.350 . S
H105 C100 0.930 . S
H106 C101 0.930 . S
C107 O108 1.224 . S
C107 O126 1.247 . S
O108 C107 1.224 . S
N109 Co99 2.128 1_554 S
N109 C110 1.355 . S
N109 C112 1.311 . S
C110 N109 1.355 . S
C110 C111 1.363 . S
C110 H122 0.929 . S
C111 C110 1.363 . S
C111 N113 1.375 . S
C111 H129 0.931 . S
C112 N109 1.311 . S
C112 N113 1.347 . S
C112 H123 0.929 . S
N113 C111 1.375 . S
N113 C112 1.347 . S
C114 C117 1.365 . S
C114 N119 1.328 . S
C114 H120 0.929 . S
C115 C116 1.362 . S
C115 C118 1.378 . S
C115 H130 0.929 . S
C116 C115 1.362 . S
C116 C117 1.366 . S
C117 C114 1.365 . S
C117 C116 1.366 . S
C117 H131 0.930 . S
C118 C115 1.378 . S
C118 N119 1.315 . S
C118 H121 0.930 . S
N119 Co99 2.194 . S
N119 C114 1.328 . S
N119 C118 1.315 . S
H120 C114 0.929 . S
H121 C118 0.930 . S
H122 C110 0.929 . S
H123 C112 0.929 . S
O124 Co99 2.351 . S
O124 C127 1.244 . S
O125 Co99 2.155 . S
O125 C127 1.240 . S
O126 Co99 2.096 . S
O126 C107 1.247 . S
C127 O124 1.244 . S
C127 O125 1.240 . S
H128 C102 0.931 . S
H129 C111 0.931 . S
H130 C115 0.929 . S
H131 C117 0.930 . S
Co132 N136 2.148 . S
Co132 N142 2.128 . S
Co132 N152 2.194 . S
Co132 O157 2.351 . S
Co132 O158 2.155 . S
Co132 O159 2.096 . S
C133 N136 1.301 . S
C133 N137 1.328 1_554 S
C133 H138 0.930 . S
C134 C135 1.333 1_554 S
C134 N136 1.317 . S
C134 H139 0.930 . S
C135 C134 1.333 1_556 S
C135 N137 1.350 . S
C135 H161 0.931 . S
N136 Co132 2.148 . S
N136 C133 1.301 . S
N136 C134 1.317 . S
N137 C133 1.328 1_556 S
N137 C135 1.350 . S
H138 C133 0.930 . S
H139 C134 0.930 . S
C140 O141 1.224 . S
C140 O159 1.247 . S
O141 C140 1.224 . S
N142 Co132 2.128 . S
N142 C143 1.355 . S
N142 C145 1.311 . S
C143 N142 1.355 . S
C143 C144 1.363 . S
C143 H155 0.929 . S
C144 C143 1.363 . S
C144 N146 1.375 . S
C144 H162 0.931 . S
C145 N142 1.311 . S
C145 N146 1.347 . S
C145 H156 0.929 . S
N146 C144 1.375 . S
N146 C145 1.347 . S
C147 C150 1.365 . S
C147 N152 1.328 . S
C147 H153 0.929 . S
C148 C149 1.362 . S
C148 C151 1.378 . S
C148 H163 0.929 . S
C149 C148 1.362 . S
C149 C150 1.366 . S
C150 C147 1.365 . S
C150 C149 1.366 . S
C150 H164 0.930 . S
C151 C148 1.378 . S
C151 N152 1.315 . S
C151 H154 0.930 . S
N152 Co132 2.194 . S
N152 C147 1.328 . S
N152 C151 1.315 . S
H153 C147 0.929 . S
H154 C151 0.930 . S
H155 C143 0.929 . S
H156 C145 0.929 . S
O157 Co132 2.351 . S
O157 C160 1.244 . S
O158 Co132 2.155 . S
O158 C160 1.240 . S
O159 Co132 2.096 . S
O159 C140 1.247 . S
C160 O157 1.244 . S
C160 O158 1.240 . S
H161 C135 0.931 . S
H162 C144 0.931 . S
H163 C148 0.929 . S
H164 C150 0.930 . S
Co165 N169 2.148 . S
Co165 N175 2.128 1_556 S
Co165 N185 2.194 . S
Co165 O190 2.351 . S
Co165 O191 2.155 . S
Co165 O192 2.096 . S
C166 N169 1.301 . S
C166 N170 1.328 . S
C166 H171 0.930 . S
C167 C168 1.333 . S
C167 N169 1.317 . S
C167 H172 0.930 . S
C168 C167 1.333 . S
C168 N170 1.350 . S
C168 H194 0.931 . S
N169 Co165 2.148 . S
N169 C166 1.301 . S
N169 C167 1.317 . S
N170 C166 1.328 . S
N170 C168 1.350 . S
H171 C166 0.930 . S
H172 C167 0.930 . S
C173 O174 1.224 . S
C173 O192 1.247 . S
O174 C173 1.224 . S
N175 Co165 2.128 1_554 S
N175 C176 1.355 . S
N175 C178 1.311 . S
C176 N175 1.355 . S
C176 C177 1.363 . S
C176 H188 0.929 . S
C177 C176 1.363 . S
C177 N179 1.375 . S
C177 H195 0.931 . S
C178 N175 1.311 . S
C178 N179 1.347 . S
C178 H189 0.929 . S
N179 C177 1.375 . S
N179 C178 1.347 . S
C180 C183 1.365 . S
C180 N185 1.328 . S
C180 H186 0.929 . S
C181 C182 1.362 . S
C181 C184 1.378 . S
C181 H196 0.929 . S
C182 C181 1.362 . S
C182 C183 1.366 . S
C183 C180 1.365 . S
C183 C182 1.366 . S
C183 H197 0.930 . S
C184 C181 1.378 . S
C184 N185 1.315 . S
C184 H187 0.930 . S
N185 Co165 2.194 . S
N185 C180 1.328 . S
N185 C184 1.315 . S
H186 C180 0.929 . S
H187 C184 0.930 . S
H188 C176 0.929 . S
H189 C178 0.929 . S
O190 Co165 2.351 . S
O190 C193 1.244 . S
O191 Co165 2.155 . S
O191 C193 1.240 . S
O192 Co165 2.096 . S
O192 C173 1.247 . S
C193 O190 1.244 . S
C193 O191 1.240 . S
H194 C168 0.931 . S
H195 C177 0.931 . S
H196 C181 0.929 . S
H197 C183 0.930 . S
Co198 N202 2.148 . S
Co198 N208 2.128 1_554 S
Co198 N218 2.194 . S
Co198 O223 2.351 . S
Co198 O224 2.155 . S
Co198 O225 2.096 . S
C199 N202 1.301 . S
C199 N203 1.328 . S
C199 H204 0.930 . S
C200 C201 1.333 . S
C200 N202 1.317 . S
C200 H205 0.930 . S
C201 C200 1.333 . S
C201 N203 1.350 . S
C201 H227 0.931 . S
N202 Co198 2.148 . S
N202 C199 1.301 . S
N202 C200 1.317 . S
N203 C199 1.328 . S
N203 C201 1.350 . S
H204 C199 0.930 . S
H205 C200 0.930 . S
C206 O207 1.224 . S
C206 O225 1.247 . S
O207 C206 1.224 . S
N208 Co198 2.128 1_556 S
N208 C209 1.355 . S
N208 C211 1.311 . S
C209 N208 1.355 . S
C209 C210 1.363 . S
C209 H221 0.929 . S
C210 C209 1.363 . S
C210 N212 1.375 . S
C210 H228 0.931 . S
C211 N208 1.311 . S
C211 N212 1.347 . S
C211 H222 0.929 . S
N212 C210 1.375 . S
N212 C211 1.347 . S
C213 C216 1.365 . S
C213 N218 1.328 . S
C213 H219 0.929 . S
C214 C215 1.362 . S
C214 C217 1.378 . S
C214 H229 0.929 . S
C215 C214 1.362 . S
C215 C216 1.366 . S
C216 C213 1.365 . S
C216 C215 1.366 . S
C216 H230 0.930 . S
C217 C214 1.378 . S
C217 N218 1.315 . S
C217 H220 0.930 . S
N218 Co198 2.194 . S
N218 C213 1.328 . S
N218 C217 1.315 . S
H219 C213 0.929 . S
H220 C217 0.930 . S
H221 C209 0.929 . S
H222 C211 0.929 . S
O223 Co198 2.351 . S
O223 C226 1.244 . S
O224 Co198 2.155 . S
O224 C226 1.240 . S
O225 Co198 2.096 . S
O225 C206 1.247 . S
C226 O223 1.244 . S
C226 O224 1.240 . S
H227 C201 0.931 . S
H228 C210 0.931 . S
H229 C214 0.929 . S
H230 C216 0.930 . S
Co231 N235 2.148 . S
Co231 N241 2.128 . S
Co231 N251 2.194 . S
Co231 O256 2.351 . S
Co231 O257 2.155 . S
Co231 O258 2.096 . S
C232 N235 1.301 . S
C232 N236 1.328 1_556 S
C232 H237 0.930 . S
C233 C234 1.333 1_556 S
C233 N235 1.317 . S
C233 H238 0.930 . S
C234 C233 1.333 1_554 S
C234 N236 1.350 . S
C234 H260 0.931 . S
N235 Co231 2.148 . S
N235 C232 1.301 . S
N235 C233 1.317 . S
N236 C232 1.328 1_554 S
N236 C234 1.350 . S
H237 C232 0.930 . S
H238 C233 0.930 . S
C239 O240 1.224 . S
C239 O258 1.247 . S
O240 C239 1.224 . S
N241 Co231 2.128 . S
N241 C242 1.355 . S
N241 C244 1.311 . S
C242 N241 1.355 . S
C242 C243 1.363 . S
C242 H254 0.929 . S
C243 C242 1.363 . S
C243 N245 1.375 . S
C243 H261 0.931 . S
C244 N241 1.311 . S
C244 N245 1.347 . S
C244 H255 0.929 . S
N245 C243 1.375 . S
N245 C244 1.347 . S
C246 C249 1.365 . S
C246 N251 1.328 . S
C246 H252 0.929 . S
C247 C248 1.362 . S
C247 C250 1.378 . S
C247 H262 0.929 . S
C248 C247 1.362 . S
C248 C249 1.366 . S
C249 C246 1.365 . S
C249 C248 1.366 . S
C249 H263 0.930 . S
C250 C247 1.378 . S
C250 N251 1.315 . S
C250 H253 0.930 . S
N251 Co231 2.194 . S
N251 C246 1.328 . S
N251 C250 1.315 . S
H252 C246 0.929 . S
H253 C250 0.930 . S
H254 C242 0.929 . S
H255 C244 0.929 . S
O256 Co231 2.351 . S
O256 C259 1.244 . S
O257 Co231 2.155 . S
O257 C259 1.240 . S
O258 Co231 2.096 . S
O258 C239 1.247 . S
C259 O256 1.244 . S
C259 O257 1.240 . S
H260 C234 0.931 . S
H261 C243 0.931 . S
H262 C247 0.929 . S
H263 C249 0.930 . S
Co264 N268 2.148 . S
Co264 N274 2.128 1_554 S
Co264 N284 2.194 . S
Co264 O289 2.351 . S
Co264 O290 2.155 . S
Co264 O291 2.096 . S
C265 N268 1.301 . S
C265 N269 1.328 . S
C265 H270 0.930 . S
C266 C267 1.333 . S
C266 N268 1.317 . S
C266 H271 0.930 . S
C267 C266 1.333 . S
C267 N269 1.350 . S
C267 H293 0.931 . S
N268 Co264 2.148 . S
N268 C265 1.301 . S
N268 C266 1.317 . S
N269 C265 1.328 . S
N269 C267 1.350 . S
H270 C265 0.930 . S
H271 C266 0.930 . S
C272 O273 1.224 . S
C272 O291 1.247 . S
O273 C272 1.224 . S
N274 Co264 2.128 1_556 S
N274 C275 1.355 . S
N274 C277 1.311 . S
C275 N274 1.355 . S
C275 C276 1.363 . S
C275 H287 0.929 . S
C276 C275 1.363 . S
C276 N278 1.375 . S
C276 H294 0.931 . S
C277 N274 1.311 . S
C277 N278 1.347 . S
C277 H288 0.929 . S
N278 C276 1.375 . S
N278 C277 1.347 . S
C279 C282 1.365 . S
C279 N284 1.328 . S
C279 H285 0.929 . S
C280 C281 1.362 . S
C280 C283 1.378 . S
C280 H295 0.929 . S
C281 C280 1.362 . S
C281 C282 1.366 . S
C282 C279 1.365 . S
C282 C281 1.366 . S
C282 H296 0.930 . S
C283 C280 1.378 . S
C283 N284 1.315 . S
C283 H286 0.930 . S
N284 Co264 2.194 . S
N284 C279 1.328 . S
N284 C283 1.315 . S
H285 C279 0.929 . S
H286 C283 0.930 . S
H287 C275 0.929 . S
H288 C277 0.929 . S
O289 Co264 2.351 . S
O289 C292 1.244 . S
O290 Co264 2.155 . S
O290 C292 1.240 . S
O291 Co264 2.096 . S
O291 C272 1.247 . S
C292 O289 1.244 . S
C292 O290 1.240 . S
H293 C267 0.931 . S
H294 C276 0.931 . S
H295 C280 0.929 . S
H296 C282 0.930 . S
Co297 N301 2.148 . S
Co297 N307 2.128 . S
Co297 N317 2.194 . S
Co297 O322 2.351 . S
Co297 O323 2.155 . S
Co297 O324 2.096 . S
C298 N301 1.301 . S
C298 N302 1.328 1_556 S
C298 H303 0.930 . S
C299 C300 1.333 1_556 S
C299 N301 1.317 . S
C299 H304 0.930 . S
C300 C299 1.333 1_554 S
C300 N302 1.350 . S
C300 H326 0.931 . S
N301 Co297 2.148 . S
N301 C298 1.301 . S
N301 C299 1.317 . S
N302 C298 1.328 1_554 S
N302 C300 1.350 . S
H303 C298 0.930 . S
H304 C299 0.930 . S
C305 O306 1.224 . S
C305 O324 1.247 . S
O306 C305 1.224 . S
N307 Co297 2.128 . S
N307 C308 1.355 . S
N307 C310 1.311 . S
C308 N307 1.355 . S
C308 C309 1.363 . S
C308 H320 0.929 . S
C309 C308 1.363 . S
C309 N311 1.375 . S
C309 H327 0.931 . S
C310 N307 1.311 . S
C310 N311 1.347 . S
C310 H321 0.929 . S
N311 C309 1.375 . S
N311 C310 1.347 . S
C312 C315 1.365 . S
C312 N317 1.328 . S
C312 H318 0.929 . S
C313 C314 1.362 . S
C313 C316 1.378 . S
C313 H328 0.929 . S
C314 C313 1.362 . S
C314 C315 1.366 . S
C315 C312 1.365 . S
C315 C314 1.366 . S
C315 H329 0.930 . S
C316 C313 1.378 . S
C316 N317 1.315 . S
C316 H319 0.930 . S
N317 Co297 2.194 . S
N317 C312 1.328 . S
N317 C316 1.315 . S
H318 C312 0.929 . S
H319 C316 0.930 . S
H320 C308 0.929 . S
H321 C310 0.929 . S
O322 Co297 2.351 . S
O322 C325 1.244 . S
O323 Co297 2.155 . S
O323 C325 1.240 . S
O324 Co297 2.096 . S
O324 C305 1.247 . S
C325 O322 1.244 . S
C325 O323 1.240 . S
H326 C300 0.931 . S
H327 C309 0.931 . S
H328 C313 0.929 . S
H329 C315 0.930 . S
Co330 N334 2.148 . S
Co330 N340 2.128 1_554 S
Co330 N350 2.194 . S
Co330 O355 2.351 . S
Co330 O356 2.155 . S
Co330 O357 2.096 . S
C331 N334 1.301 . S
C331 N335 1.328 . S
C331 H336 0.930 . S
C332 C333 1.333 . S
C332 N334 1.317 . S
C332 H337 0.930 . S
C333 C332 1.333 . S
C333 N335 1.350 . S
C333 H359 0.931 . S
N334 Co330 2.148 . S
N334 C331 1.301 . S
N334 C332 1.317 . S
N335 C331 1.328 . S
N335 C333 1.350 . S
H336 C331 0.930 . S
H337 C332 0.930 . S
C338 O339 1.224 . S
C338 O357 1.247 . S
O339 C338 1.224 . S
N340 Co330 2.128 1_556 S
N340 C341 1.355 . S
N340 C343 1.311 . S
C341 N340 1.355 . S
C341 C342 1.363 . S
C341 H353 0.929 . S
C342 C341 1.363 . S
C342 N344 1.375 . S
C342 H360 0.931 . S
C343 N340 1.311 . S
C343 N344 1.347 . S
C343 H354 0.929 . S
N344 C342 1.375 . S
N344 C343 1.347 . S
C345 C348 1.365 . S
C345 N350 1.328 . S
C345 H351 0.929 . S
C346 C347 1.362 . S
C346 C349 1.378 . S
C346 H361 0.929 . S
C347 C346 1.362 . S
C347 C348 1.366 . S
C348 C345 1.365 . S
C348 C347 1.366 . S
C348 H362 0.930 . S
C349 C346 1.378 . S
C349 N350 1.315 . S
C349 H352 0.930 . S
N350 Co330 2.194 . S
N350 C345 1.328 . S
N350 C349 1.315 . S
H351 C345 0.929 . S
H352 C349 0.930 . S
H353 C341 0.929 . S
H354 C343 0.929 . S
O355 Co330 2.351 . S
O355 C358 1.244 . S
O356 Co330 2.155 . S
O356 C358 1.240 . S
O357 Co330 2.096 . S
O357 C338 1.247 . S
C358 O355 1.244 . S
C358 O356 1.240 . S
H359 C333 0.931 . S
H360 C342 0.931 . S
H361 C346 0.929 . S
H362 C348 0.930 . S
Co363 N367 2.148 . S
Co363 N373 2.128 . S
Co363 N383 2.194 . S
Co363 O388 2.351 . S
Co363 O389 2.155 . S
Co363 O390 2.096 . S
C364 N367 1.301 . S
C364 N368 1.328 1_556 S
C364 H369 0.930 . S
C365 C366 1.333 1_556 S
C365 N367 1.317 . S
C365 H370 0.930 . S
C366 C365 1.333 1_554 S
C366 N368 1.350 . S
C366 H392 0.931 . S
N367 Co363 2.148 . S
N367 C364 1.301 . S
N367 C365 1.317 . S
N368 C364 1.328 1_554 S
N368 C366 1.350 . S
H369 C364 0.930 . S
H370 C365 0.930 . S
C371 O372 1.224 . S
C371 O390 1.247 . S
O372 C371 1.224 . S
N373 Co363 2.128 . S
N373 C374 1.355 . S
N373 C376 1.311 . S
C374 N373 1.355 . S
C374 C375 1.363 . S
C374 H386 0.929 . S
C375 C374 1.363 . S
C375 N377 1.375 . S
C375 H393 0.931 . S
C376 N373 1.311 . S
C376 N377 1.347 . S
C376 H387 0.929 . S
N377 C375 1.375 . S
N377 C376 1.347 . S
C378 C381 1.365 . S
C378 N383 1.328 . S
C378 H384 0.929 . S
C379 C380 1.362 . S
C379 C382 1.378 . S
C379 H394 0.929 . S
C380 C379 1.362 . S
C380 C381 1.366 . S
C381 C378 1.365 . S
C381 C380 1.366 . S
C381 H395 0.930 . S
C382 C379 1.378 . S
C382 N383 1.315 . S
C382 H385 0.930 . S
N383 Co363 2.194 . S
N383 C378 1.328 . S
N383 C382 1.315 . S
H384 C378 0.929 . S
H385 C382 0.930 . S
H386 C374 0.929 . S
H387 C376 0.929 . S
O388 Co363 2.351 . S
O388 C391 1.244 . S
O389 Co363 2.155 . S
O389 C391 1.240 . S
O390 Co363 2.096 . S
O390 C371 1.247 . S
C391 O388 1.244 . S
C391 O389 1.240 . S
H392 C366 0.931 . S
H393 C375 0.931 . S
H394 C379 0.929 . S
H395 C381 0.930 . S
C8 C371 1.605 1_455 S
C41 C206 1.605 1_546 S
C239 C74 1.605 . S
C272 C107 1.605 1_454 S
C305 C140 1.605 1_545 S
C173 C338 1.605 1_556 S
C281 C17 1.613 . S
C314 C50 1.613 . S
C83 C347 1.613 . S
C116 C380 1.613 . S
C215 C149 1.613 . S
C182 C248 1.613 . S
N14 N5 2.006 . S
N38 N47 2.006 . S
N80 N71 2.006 . S
N104 N113 2.006 . S
N146 N137 2.006 . S
N170 N179 2.006 . S
N203 N212 2.006 . S
N245 N236 2.006 . S
N269 N278 2.006 . S
N302 N311 2.006 . S
N344 N335 2.006 . S
N377 N368 2.006 . S
C28 C358 1.432 . S
C391 C61 1.432 . S
C226 C94 1.432 . S
C127 C259 1.432 . S
C160 C292 1.432 . S
C193 C325 1.432 . S
