# Generated by pormake.
# Topology rac, (4)-cn, num edge types: 1
# Building blocks:
#     Node 0, Type 0, BuildingBlock: TATPOV_clean_sbu_0, # of connection points: 4
#     Node 1, Type 0, BuildingBlock: TATPOV_clean_sbu_0, # of connection points: 4
#     Node 2, Type 0, BuildingBlock: TATPOV_clean_sbu_0, # of connection points: 4
#     Node 3, Type 0, BuildingBlock: TATPOV_clean_sbu_0, # of connection points: 4
#     Node 4, Type 0, BuildingBlock: TATPOV_clean_sbu_0, # of connection points: 4
#     Node 5, Type 0, BuildingBlock: TATPOV_clean_sbu_0, # of connection points: 4
#     Node 6, Type 0, BuildingBlock: TATPOV_clean_sbu_0, # of connection points: 4
#     Node 7, Type 0, BuildingBlock: TATPOV_clean_sbu_0, # of connection points: 4
#     Edge 8, Type (0, 0), BuildingBlock: XUDNAN_clean_linker_2, # of connection points: 2
#     Edge 9, Type (0, 0), BuildingBlock: XUDNAN_clean_linker_2, # of connection points: 2
#     Edge 10, Type (0, 0), BuildingBlock: XUDNAN_clean_linker_2, # of connection points: 2
#     Edge 11, Type (0, 0), BuildingBlock: XUDNAN_clean_linker_2, # of connection points: 2
#     Edge 12, Type (0, 0), BuildingBlock: XUDNAN_clean_linker_2, # of connection points: 2
#     Edge 13, Type (0, 0), BuildingBlock: XUDNAN_clean_linker_2, # of connection points: 2
#     Edge 14, Type (0, 0), BuildingBlock: XUDNAN_clean_linker_2, # of connection points: 2
#     Edge 15, Type (0, 0), BuildingBlock: XUDNAN_clean_linker_2, # of connection points: 2
#     Edge 16, Type (0, 0), BuildingBlock: XUDNAN_clean_linker_2, # of connection points: 2
#     Edge 17, Type (0, 0), BuildingBlock: XUDNAN_clean_linker_2, # of connection points: 2
#     Edge 18, Type (0, 0), BuildingBlock: XUDNAN_clean_linker_2, # of connection points: 2
#     Edge 19, Type (0, 0), BuildingBlock: XUDNAN_clean_linker_2, # of connection points: 2
#     Edge 20, Type (0, 0), BuildingBlock: XUDNAN_clean_linker_2, # of connection points: 2
#     Edge 21, Type (0, 0), BuildingBlock: XUDNAN_clean_linker_2, # of connection points: 2
#     Edge 22, Type (0, 0), BuildingBlock: XUDNAN_clean_linker_2, # of connection points: 2
#     Edge 23, Type (0, 0), BuildingBlock: XUDNAN_clean_linker_2, # of connection points: 2
# Relax obj value: 0.269
# Max RMSD: 0.123
# Mean RMSD: 0.123
data_MOF--net-rac--node1-TATPOV_clean_sbu_0--edge1-XUDNAN_clean_linker_2
_symmetry_space_group_name_H-M    P1
_symmetry_Int_Tables_number       1
_symmetry_cell_setting            triclinic
loop_
_symmetry_equiv_pos_as_xyz
'x, y, z'
_cell_length_a     35.91948
_cell_length_b     20.763479
_cell_length_c     44.26134
_cell_angle_alpha  89.911217
_cell_angle_beta   90.062552
_cell_angle_gamma 90.143015
loop_
_atom_site_label
_atom_site_type_symbol
_atom_site_fract_x
_atom_site_fract_y
_atom_site_fract_z
_atom_type_partial_charge
Zn0 Zn 0.38915 0.2076 0.03685 0.0
Zn1 Zn 0.40198 0.21745 0.09467 0.0
O2 O 0.43294 0.28935 0.07425 0.0
O3 O 0.42498 0.27921 0.02525 0.0
O4 O 0.42117 0.21047 0.13731 0.0
O5 O 0.3976 0.11208 0.03245 0.0
O6 O 0.39716 0.12271 0.0817 0.0
C7 C 0.43884 0.30947 0.04742 0.0
C8 C 0.32618 0.24802 0.07603 0.0
O9 O 0.34936 0.24904 0.09776 0.0
O10 O 0.33646 0.23194 0.04966 0.0
C11 C 0.41625 0.25369 0.15719 0.0
O12 O 0.39887 0.307 0.14969 0.0
C13 C 0.39536 0.08677 0.05843 0.0
Zn14 Zn 0.14666 0.69113 0.02719 0.0
Zn15 Zn 0.12512 0.70166 0.0821 0.0
O16 O 0.0801 0.68611 0.05321 0.0
O17 O 0.09802 0.70998 0.00721 0.0
O18 O 0.10331 0.72133 0.12322 0.0
O19 O 0.18805 0.75583 0.02988 0.0
O20 O 0.16829 0.76794 0.0765 0.0
C21 C 0.07275 0.69122 0.02506 0.0
C22 C 0.15521 0.57647 0.06567 0.0
O23 O 0.14717 0.61382 0.08734 0.0
O24 O 0.15544 0.59692 0.03865 0.0
C25 C 0.12259 0.70687 0.14639 0.0
O26 O 0.15585 0.68202 0.14255 0.0
C27 C 0.19117 0.78233 0.05545 0.0
Zn28 Zn 0.34445 0.27581 0.47807 0.0
Zn29 Zn 0.38151 0.26556 0.42777 0.0
O30 O 0.40372 0.19255 0.45494 0.0
O31 O 0.36919 0.19806 0.49586 0.0
O32 O 0.40984 0.26475 0.38857 0.0
O33 O 0.36172 0.36576 0.48679 0.0
O34 O 0.37999 0.36179 0.4395 0.0
C35 C 0.39441 0.17032 0.48081 0.0
C36 C 0.29885 0.24796 0.4257 0.0
O37 O 0.3303 0.24184 0.41295 0.0
O38 O 0.29712 0.26443 0.45324 0.0
C39 C 0.42165 0.21329 0.37642 0.0
O40 O 0.4189 0.15869 0.3913 0.0
C41 C 0.37259 0.3943 0.46314 0.0
Zn42 Zn 0.14541 0.8322 0.46589 0.0
Zn43 Zn 0.12821 0.78552 0.41709 0.0
O44 O 0.08073 0.80401 0.4431 0.0
O45 O 0.10175 0.80088 0.48944 0.0
O46 O 0.11153 0.74452 0.37805 0.0
O47 O 0.19423 0.78902 0.47006 0.0
O48 O 0.17401 0.73087 0.43201 0.0
C49 C 0.07464 0.80699 0.47149 0.0
C50 C 0.14419 0.92362 0.41729 0.0
O51 O 0.14469 0.87259 0.40154 0.0
O52 O 0.14164 0.91971 0.44578 0.0
C53 C 0.08544 0.77114 0.36316 0.0
O54 O 0.06725 0.81923 0.37547 0.0
C55 C 0.19859 0.74213 0.45229 0.0
Zn56 Zn 0.62062 0.72563 0.97746 0.0
Zn57 Zn 0.60292 0.72247 0.92228 0.0
O58 O 0.55804 0.70412 0.95094 0.0
O59 O 0.57077 0.74127 0.99605 0.0
O60 O 0.58121 0.73722 0.88054 0.0
O61 O 0.66077 0.79232 0.97471 0.0
O62 O 0.64493 0.79154 0.92679 0.0
C63 C 0.5484 0.71296 0.97839 0.0
C64 C 0.63546 0.60469 0.94437 0.0
O65 O 0.62766 0.63619 0.92058 0.0
O66 O 0.63329 0.63105 0.97015 0.0
C67 C 0.59918 0.71846 0.85741 0.0
O68 O 0.63153 0.69018 0.86122 0.0
C69 C 0.66585 0.81226 0.94804 0.0
Zn70 Zn 0.87978 0.21932 0.97296 0.0
Zn71 Zn 0.88534 0.23684 0.91365 0.0
O72 O 0.92367 0.29741 0.93334 0.0
O73 O 0.92168 0.28245 0.98244 0.0
O74 O 0.8962 0.24187 0.86909 0.0
O75 O 0.88311 0.12218 0.97047 0.0
O76 O 0.87933 0.14018 0.92169 0.0
C77 C 0.93456 0.31252 0.95981 0.0
C78 C 0.81463 0.27581 0.9422 0.0
O79 O 0.83445 0.27512 0.91842 0.0
O80 O 0.8275 0.255 0.96707 0.0
C81 C 0.90518 0.29473 0.85651 0.0
O82 O 0.90742 0.34719 0.87296 0.0
C83 C 0.87802 0.1012 0.94391 0.0
Zn84 Zn 0.60996 0.76745 0.52421 0.0
Zn85 Zn 0.5936 0.75513 0.58155 0.0
O86 O 0.54459 0.77683 0.55887 0.0
O87 O 0.55714 0.77563 0.51027 0.0
O88 O 0.58025 0.73536 0.62493 0.0
O89 O 0.6415 0.68761 0.52114 0.0
O90 O 0.63196 0.685 0.57016 0.0
C91 C 0.53426 0.78519 0.53151 0.0
C92 C 0.6362 0.87093 0.56435 0.0
O93 O 0.62149 0.83825 0.58546 0.0
O94 O 0.63501 0.85094 0.53729 0.0
C95 C 0.55712 0.76943 0.6396 0.0
O96 O 0.53916 0.81563 0.6255 0.0
C97 C 0.64872 0.66378 0.5468 0.0
Zn98 Zn 0.873 0.26405 0.516 0.0
Zn99 Zn 0.89135 0.27083 0.57411 0.0
O100 O 0.92833 0.20865 0.55425 0.0
O101 O 0.918 0.20953 0.50528 0.0
O102 O 0.91039 0.2866 0.61621 0.0
O103 O 0.86698 0.3603 0.51049 0.0
O104 O 0.8773 0.3609 0.55936 0.0
C105 C 0.9357 0.18776 0.52786 0.0
C106 C 0.82056 0.20566 0.55978 0.0
O107 O 0.84339 0.22326 0.58009 0.0
O108 O 0.82729 0.21692 0.53211 0.0
C109 C 0.90761 0.24383 0.63666 0.0
O110 O 0.8941 0.18693 0.62962 0.0
C111 C 0.86748 0.3903 0.53538 0.0
H112 H 0.361 0.01378 0.01488 0.0
H113 H 0.38774 0.01689 0.11051 0.0
H114 H 0.33999 0.93385 0.11981 0.0
H115 H 0.26822 0.00826 0.02237 0.0
H116 H 0.25799 0.9542 0.99163 0.0
H117 H 0.29949 0.00271 0.99065 0.0
H118 H 0.34054 0.90127 0.98455 0.0
H119 H 0.29905 0.85225 0.98435 0.0
H120 H 0.33579 0.83564 0.01099 0.0
H121 H 0.28083 0.86918 0.1203 0.0
H122 H 0.22223 0.81013 0.11044 0.0
H123 H 0.23476 0.84678 0.01442 0.0
C124 C 0.35825 0.99469 0.03755 0.0
C125 C 0.37823 0.02206 0.06196 0.0
C126 C 0.37297 0.99661 0.0914 0.0
C127 C 0.34565 0.94968 0.09696 0.0
C128 C 0.3243 0.92773 0.07278 0.0
C129 C 0.33107 0.94779 0.04348 0.0
C130 C 0.30226 0.92062 0.02188 0.0
C131 C 0.28074 0.97469 0.0057 0.0
C132 C 0.3205 0.8747 0.9991 0.0
C133 C 0.27743 0.88441 0.04376 0.0
C134 C 0.29058 0.88912 0.07301 0.0
C135 C 0.27076 0.86382 0.09739 0.0
C136 C 0.23724 0.83109 0.09161 0.0
C137 C 0.22398 0.82363 0.06167 0.0
C138 C 0.24435 0.85115 0.03754 0.0
H139 H 0.22408 0.6461 0.41439 0.0
H140 H 0.24983 0.74725 0.49768 0.0
H141 H 0.30569 0.68075 0.50438 0.0
H142 H 0.24867 0.49328 0.43954 0.0
H143 H 0.26862 0.46702 0.40432 0.0
H144 H 0.23317 0.5279 0.40434 0.0
H145 H 0.27743 0.60421 0.37484 0.0
H146 H 0.31331 0.54363 0.3753 0.0
H147 H 0.32272 0.6228 0.39016 0.0
H148 H 0.35264 0.59365 0.50659 0.0
H149 H 0.38606 0.48979 0.50416 0.0
H150 H 0.33441 0.44991 0.41772 0.0
C151 C 0.24175 0.65477 0.4338 0.0
C152 C 0.23245 0.70198 0.45546 0.0
C153 C 0.25627 0.71155 0.48067 0.0
C154 C 0.28831 0.67428 0.48463 0.0
C155 C 0.29667 0.6281 0.46298 0.0
C156 C 0.27422 0.61831 0.43797 0.0
C157 C 0.28801 0.56204 0.41938 0.0
C158 C 0.25784 0.50947 0.41677 0.0
C159 C 0.30115 0.58454 0.38806 0.0
C160 C 0.32058 0.54002 0.43863 0.0
C161 C 0.32538 0.5793 0.46352 0.0
C162 C 0.3501 0.56361 0.48673 0.0
C163 C 0.36917 0.50483 0.48514 0.0
C164 C 0.36377 0.46318 0.4603 0.0
C165 C 0.34043 0.48243 0.43622 0.0
H166 H 0.71243 0.87242 0.98832 0.0
H167 H 0.69501 0.8417 0.89234 0.0
H168 H 0.75418 0.89818 0.88149 0.0
H169 H 0.74931 0.03117 0.98159 0.0
H170 H 0.78181 0.02113 0.01229 0.0
H171 H 0.73917 0.97561 0.01184 0.0
H172 H 0.77747 0.87025 0.01639 0.0
H173 H 0.8203 0.91566 0.01593 0.0
H174 H 0.81267 0.8527 0.98861 0.0
H175 H 0.81461 0.96035 0.88112 0.0
H176 H 0.86524 0.03824 0.89052 0.0
H177 H 0.84333 0.02722 0.9868 0.0
C178 C 0.72096 0.8776 0.96499 0.0
C179 C 0.69902 0.85247 0.94118 0.0
C180 C 0.71118 0.86077 0.91097 0.0
C181 C 0.74499 0.89212 0.9046 0.0
C182 C 0.76637 0.91486 0.92868 0.0
C183 C 0.75451 0.90886 0.95823 0.0
C184 C 0.78129 0.94129 0.97988 0.0
C185 C 0.76174 0.99552 0.99741 0.0
C186 C 0.79898 0.89201 1.00147 0.0
C187 C 0.80977 0.96773 0.95785 0.0
C188 C 0.80104 0.95093 0.92847 0.0
C189 C 0.82185 0.97339 0.90406 0.0
C190 C 0.85083 0.01727 0.90966 0.0
C191 C 0.8585 0.03885 0.93942 0.0
C192 C 0.83884 0.01091 0.96385 0.0
H193 H 0.68545 0.59322 0.5033 0.0
H194 H 0.68839 0.64341 0.59849 0.0
H195 H 0.75001 0.59265 0.60325 0.0
H196 H 0.72803 0.43627 0.51322 0.0
H197 H 0.7529 0.44049 0.47792 0.0
H198 H 0.70952 0.48261 0.48219 0.0
H199 H 0.74259 0.58854 0.46631 0.0
H200 H 0.78636 0.54688 0.463 0.0
H201 H 0.78257 0.61604 0.48736 0.0
H202 H 0.81217 0.5408 0.59754 0.0
H203 H 0.86373 0.46765 0.58514 0.0
H204 H 0.81981 0.44593 0.49425 0.0
C205 C 0.69887 0.59282 0.52522 0.0
C206 C 0.68204 0.62252 0.55049 0.0
C207 C 0.70049 0.62067 0.57882 0.0
C208 C 0.7358 0.59275 0.58167 0.0
C209 C 0.75219 0.56614 0.5561 0.0
C210 C 0.73394 0.56415 0.52863 0.0
C211 C 0.75672 0.52818 0.50529 0.0
C212 C 0.73554 0.46833 0.49401 0.0
C213 C 0.7677 0.57259 0.47893 0.0
C214 C 0.79046 0.50987 0.52406 0.0
C215 C 0.78762 0.53372 0.55309 0.0
C216 C 0.81466 0.52161 0.57491 0.0
C217 C 0.84409 0.48039 0.56753 0.0
C218 C 0.84588 0.45066 0.53875 0.0
C219 C 0.81966 0.46839 0.51632 0.0
H220 H 0.40423 0.33087 0.20653 0.0
H221 H 0.45226 0.14792 0.17984 0.0
H222 H 0.46538 0.12281 0.23328 0.0
H223 H 0.46823 0.36264 0.27065 0.0
H224 H 0.4317 0.39709 0.29331 0.0
H225 H 0.43004 0.40401 0.25273 0.0
H226 H 0.3645 0.35147 0.25245 0.0
H227 H 0.36597 0.3444 0.29292 0.0
H228 H 0.35797 0.27392 0.27007 0.0
H229 H 0.4667 0.11204 0.28977 0.0
H230 H 0.45657 0.11734 0.34494 0.0
H231 H 0.40915 0.3082 0.33469 0.0
C232 C 0.4182 0.28611 0.21183 0.0
C233 C 0.42728 0.24147 0.18894 0.0
C234 C 0.4451 0.18302 0.19694 0.0
C235 C 0.45278 0.16835 0.22725 0.0
C236 C 0.4428 0.21284 0.2493 0.0
C237 C 0.42613 0.27075 0.24196 0.0
C238 C 0.41582 0.30821 0.27005 0.0
C239 C 0.43777 0.37175 0.27178 0.0
C240 C 0.37356 0.32015 0.27144 0.0
C241 C 0.42827 0.26148 0.29431 0.0
C242 C 0.44405 0.20698 0.28191 0.0
C243 C 0.455 0.15497 0.29978 0.0
C244 C 0.44909 0.15836 0.33108 0.0
C245 C 0.43243 0.21338 0.34416 0.0
C246 C 0.42265 0.26599 0.32548 0.0
H247 H 0.13175 0.70239 0.32612 0.0
H248 H 0.02813 0.80941 0.32652 0.0
H249 H 0.02394 0.79833 0.27105 0.0
H250 H 0.1685 0.77462 0.26202 0.0
H251 H 0.19076 0.70336 0.24754 0.0
H252 H 0.18313 0.71171 0.28749 0.0
H253 H 0.14692 0.60362 0.28844 0.0
H254 H 0.15482 0.59447 0.24848 0.0
H255 H 0.10807 0.59204 0.26319 0.0
H256 H 0.03405 0.78382 0.21497 0.0
H257 H 0.05727 0.76564 0.16309 0.0
H258 H 0.15499 0.67078 0.19976 0.0
C259 C 0.10763 0.72199 0.31468 0.0
C260 C 0.08009 0.75633 0.33071 0.0
C261 C 0.04945 0.78257 0.31474 0.0
C262 C 0.04683 0.77652 0.28322 0.0
C263 C 0.07506 0.74408 0.268 0.0
C264 C 0.10476 0.71688 0.28324 0.0
C265 C 0.13281 0.68868 0.26148 0.0
C266 C 0.17104 0.72158 0.26484 0.0
C267 C 0.13581 0.61534 0.26565 0.0
C268 C 0.1147 0.70552 0.23162 0.0
C269 C 0.08121 0.73683 0.2358 0.0
C270 C 0.06007 0.7588 0.21144 0.0
C271 C 0.07353 0.74841 0.18205 0.0
C272 C 0.10796 0.71685 0.17732 0.0
C273 C 0.12856 0.69502 0.20254 0.0
H274 H 0.62803 0.67403 0.80413 0.0
H275 H 0.53698 0.78668 0.84069 0.0
H276 H 0.51385 0.80664 0.78887 0.0
H277 H 0.64584 0.77222 0.74052 0.0
H278 H 0.65625 0.70607 0.71561 0.0
H279 H 0.66429 0.69813 0.75557 0.0
H280 H 0.62249 0.59621 0.75678 0.0
H281 H 0.61424 0.60395 0.71678 0.0
H282 H 0.5755 0.60061 0.74259 0.0
H283 H 0.50305 0.81969 0.73267 0.0
H284 H 0.50512 0.82395 0.67688 0.0
H285 H 0.60238 0.70029 0.67755 0.0
C286 C 0.60307 0.70256 0.80133 0.0
C287 C 0.58434 0.72885 0.82651 0.0
C288 C 0.55178 0.76593 0.82176 0.0
C289 C 0.53841 0.77747 0.79241 0.0
C290 C 0.55772 0.75113 0.76808 0.0
C291 C 0.58925 0.71418 0.77227 0.0
C292 C 0.6055 0.69277 0.74238 0.0
C293 C 0.64532 0.71888 0.73829 0.0
C294 C 0.60435 0.619 0.73947 0.0
C295 C 0.57859 0.72443 0.72064 0.0
C296 C 0.55114 0.75771 0.73587 0.0
C297 C 0.52419 0.79324 0.72053 0.0
C298 C 0.52561 0.79541 0.68883 0.0
C299 C 0.55373 0.76212 0.6728 0.0
C300 C 0.58019 0.72553 0.68906 0.0
H301 H 0.89633 0.16858 0.68681 0.0
H302 H 0.93595 0.35709 0.65869 0.0
H303 H 0.94334 0.38841 0.71212 0.0
H304 H 0.84241 0.22182 0.74748 0.0
H305 H 0.85282 0.15469 0.77191 0.0
H306 H 0.85416 0.14462 0.73156 0.0
H307 H 0.92216 0.10382 0.73506 0.0
H308 H 0.92096 0.11334 0.77551 0.0
H309 H 0.95679 0.15265 0.75371 0.0
H310 H 0.9413 0.4024 0.76846 0.0
H311 H 0.93176 0.39679 0.82365 0.0
H312 H 0.89381 0.19897 0.81486 0.0
C313 C 0.90723 0.21604 0.69183 0.0
C314 C 0.91564 0.26032 0.66853 0.0
C315 C 0.9294 0.32226 0.67613 0.0
C316 C 0.93372 0.34051 0.70643 0.0
C317 C 0.92437 0.29618 0.72884 0.0
C318 C 0.91168 0.23506 0.72193 0.0
C319 C 0.90177 0.19769 0.75022 0.0
C320 C 0.86033 0.17862 0.75028 0.0
C321 C 0.92693 0.13837 0.75383 0.0
C322 C 0.91013 0.24782 0.77408 0.0
C323 C 0.92333 0.30418 0.76132 0.0
C324 C 0.93139 0.35828 0.77875 0.0
C325 C 0.92576 0.35468 0.81006 0.0
C326 C 0.91217 0.2974 0.8236 0.0
C327 C 0.90455 0.24327 0.80527 0.0
H328 H 0.46065 0.36533 0.99366 0.0
H329 H 0.4543 0.40086 0.09018 0.0
H330 H 0.47313 0.51372 0.08174 0.0
H331 H 0.54262 0.46411 0.98124 0.0
H332 H 0.52716 0.49092 0.9446 0.0
H333 H 0.51269 0.4135 0.9587 0.0
H334 H 0.44378 0.44674 0.95053 0.0
H335 H 0.45818 0.52506 0.93732 0.0
H336 H 0.42632 0.5183 0.96861 0.0
H337 H 0.49198 0.62348 0.06285 0.0
H338 H 0.52059 0.71544 0.03611 0.0
H339 H 0.51468 0.60869 0.95197 0.0
C340 C 0.46356 0.39662 0.01307 0.0
C341 C 0.45589 0.37396 0.0426 0.0
C342 C 0.46019 0.41669 0.06735 0.0
C343 C 0.47046 0.48123 0.06276 0.0
C344 C 0.4766 0.50248 0.03331 0.0
C345 C 0.47412 0.46113 0.00895 0.0
C346 C 0.48427 0.49526 0.97978 0.0
C347 C 0.51873 0.46412 0.96524 0.0
C348 C 0.45115 0.49639 0.95777 0.0
C349 C 0.49292 0.56219 0.99157 0.0
C350 C 0.48783 0.56559 0.02245 0.0
C351 C 0.49597 0.62144 0.03864 0.0
C352 C 0.51189 0.67378 0.02317 0.0
C353 C 0.51985 0.66975 0.99186 0.0
C354 C 0.50842 0.61418 0.97575 0.0
H355 H 0.03205 0.59629 0.05265 0.0
H356 H 0.0452 0.69742 0.96743 0.0
H357 H 0.01 0.61139 0.94162 0.0
H358 H 0.04909 0.44651 0.02548 0.0
H359 H 0.01573 0.40337 0.04826 0.0
H360 H 0.03518 0.47797 0.06167 0.0
H361 H 0.96936 0.5268 0.06785 0.0
H362 H 0.94948 0.45149 0.05556 0.0
H363 H 0.93738 0.52524 0.03643 0.0
H364 H 0.98361 0.50624 0.92383 0.0
H365 H 0.95701 0.39806 0.91633 0.0
H366 H 0.96069 0.36466 0.0132 0.0
C367 C 0.02599 0.60212 0.02883 0.0
C368 C 0.04125 0.65404 0.01211 0.0
C369 C 0.03354 0.65853 0.98077 0.0
C370 C 0.01385 0.60953 0.96586 0.0
C371 C 0.00173 0.55664 0.98264 0.0
C372 C 0.00659 0.5534 0.01357 0.0
C373 C 0.99324 0.48918 0.02596 0.0
C374 C 0.02522 0.45211 0.04124 0.0
C375 C 0.9604 0.49876 0.04773 0.0
C376 C 0.98091 0.45629 0.99708 0.0
C377 C 0.9862 0.49599 0.97236 0.0
C378 C 0.97864 0.47522 0.94309 0.0
C379 C 0.96386 0.41325 0.93905 0.0
C380 C 0.9565 0.3726 0.96416 0.0
C381 C 0.96587 0.39435 0.9935 0.0
H382 H 0.51743 0.85072 0.4796 0.0
H383 H 0.47708 0.81326 0.57037 0.0
H384 H 0.43345 0.9043 0.56548 0.0
H385 H 0.52219 0.0124 0.48636 0.0
H386 H 0.50755 0.03294 0.4486 0.0
H387 H 0.52949 0.95667 0.45574 0.0
H388 H 0.47307 0.89593 0.43296 0.0
H389 H 0.4513 0.97215 0.42481 0.0
H390 H 0.42692 0.91243 0.44686 0.0
H391 H 0.40263 0.00946 0.55434 0.0
H392 H 0.38108 0.11463 0.53571 0.0
H393 H 0.44273 0.08628 0.45242 0.0
C394 C 0.49823 0.85955 0.49796 0.0
C395 C 0.50053 0.82424 0.52533 0.0
C396 C 0.4756 0.83897 0.54909 0.0
C397 C 0.45085 0.89094 0.54657 0.0
C398 C 0.45123 0.92748 0.52009 0.0
C399 C 0.47372 0.91172 0.49594 0.0
C400 C 0.47158 0.96248 0.47126 0.0
C401 C 0.50998 0.99289 0.46516 0.0
C402 C 0.4547 0.93405 0.44225 0.0
C403 C 0.4454 0.01041 0.48575 0.0
C404 C 0.43376 0.98893 0.51379 0.0
C405 C 0.41102 0.02618 0.53219 0.0
C406 C 0.39916 0.08623 0.52144 0.0
C407 C 0.41013 0.10901 0.49252 0.0
C408 C 0.43381 0.07045 0.47459 0.0
H409 H 0.9622 0.13191 0.47548 0.0
H410 H 0.95912 0.10767 0.57296 0.0
H411 H 0.98546 -0.00098 0.56767 0.0
H412 H 0.93895 0.97048 0.45499 0.0
H413 H 0.97122 0.96606 0.42391 0.0
H414 H 0.9518 0.04256 0.43473 0.0
H415 H 0.01803 0.09059 0.44181 0.0
H416 H 0.03747 0.01497 0.42994 0.0
H417 H 0.05094 0.04928 0.46569 0.0
H418 H 0.01043 0.89203 0.55217 0.0
H419 H 0.04567 0.80379 0.5284 0.0
H420 H 0.0336 0.89682 0.44112 0.0
C421 C 0.96754 0.10411 0.49574 0.0
C422 C 0.95838 0.12851 0.52463 0.0
C423 C 0.96599 0.09048 0.55056 0.0
C424 C 0.98051 0.02821 0.54779 0.0
C425 C 0.98772 0.00465 0.51897 0.0
C426 C 0.98256 0.04199 0.49345 0.0
C427 C 0.99498 0.00643 0.46532 0.0
C428 C 0.96228 0.99577 0.44345 0.0
C429 C 0.02727 0.04243 0.44979 0.0
C430 C 0.00784 0.9433 0.47907 0.0
C431 C 0.0028 0.94296 0.51001 0.0
C432 C 0.01442 0.89157 0.52795 0.0
C433 C 0.03402 0.84122 0.5142 0.0
C434 C 0.04207 0.84293 0.48289 0.0
C435 C 0.02705 0.89304 0.46494 0.0
H436 H 0.19762 0.53213 0.11177 0.0
H437 H 0.13677 0.4721 0.03214 0.0
H438 H 0.16259 0.3628 0.03711 0.0
H439 H 0.27652 0.47061 0.09188 0.0
H440 H 0.29318 0.44407 0.12826 0.0
H441 H 0.25995 0.50796 0.12607 0.0
H442 H 0.21518 0.44446 0.16106 0.0
H443 H 0.24861 0.37993 0.16344 0.0
H444 H 0.20163 0.36347 0.15129 0.0
H445 H 0.20591 0.27472 0.04123 0.0
H446 H 0.2656 0.21721 0.04216 0.0
H447 H 0.30146 0.33221 0.11851 0.0
C448 C 0.18853 0.49476 0.09637 0.0
C449 C 0.16525 0.50954 0.07176 0.0
C450 C 0.15468 0.46101 0.05116 0.0
C451 C 0.16883 0.39873 0.05407 0.0
C452 C 0.19359 0.38611 0.07762 0.0
C453 C 0.20328 0.43273 0.0986 0.0
C454 C 0.23638 0.41185 0.11738 0.0
C455 C 0.26836 0.46153 0.11574 0.0
C456 C 0.22474 0.39915 0.15024 0.0
C457 C 0.2462 0.34965 0.10153 0.0
C458 C 0.22008 0.33419 0.07966 0.0
C459 C 0.22596 0.28502 0.05885 0.0
C460 C 0.26008 0.25298 0.05936 0.0
C461 C 0.2879 0.27064 0.08041 0.0
C462 C 0.28017 0.31709 0.10268 0.0
H463 H 0.22862 0.24287 0.44814 0.0
H464 H 0.29287 0.20568 0.36735 0.0
H465 H 0.24123 0.14206 0.3467 0.0
H466 H 0.20569 0.10479 0.46272 0.0
H467 H 0.15824 0.11381 0.47535 0.0
H468 H 0.18918 0.18088 0.47708 0.0
H469 H 0.14389 0.24864 0.44467 0.0
H470 H 0.11229 0.18103 0.44297 0.0
H471 H 0.12815 0.21881 0.40862 0.0
H472 H 0.19892 0.05214 0.34438 0.0
H473 H 0.17155 0.9493 0.3608 0.0
H474 H 0.13203 0.0399 0.44269 0.0
C475 C 0.23087 0.22401 0.42544 0.0
C476 C 0.26478 0.228 0.40961 0.0
C477 C 0.26716 0.2027 0.38005 0.0
C478 C 0.23769 0.16692 0.36797 0.0
C479 C 0.2059 0.15762 0.38555 0.0
C480 C 0.2018 0.1872 0.41344 0.0
C481 C 0.16981 0.15801 0.43105 0.0
C482 C 0.18152 0.13811 0.46337 0.0
C483 C 0.13656 0.20438 0.43185 0.0
C484 C 0.16125 0.10054 0.41126 0.0
C485 C 0.18048 0.10346 0.38416 0.0
C486 C 0.1827 0.05029 0.36495 0.0
C487 C 0.16728 0.99176 0.37454 0.0
C488 C 0.15042 0.98696 0.40326 0.0
C489 C 0.14503 0.04283 0.42067 0.0
H490 H 0.67764 0.5516 0.90008 0.0
H491 H 0.62314 0.50957 0.98517 0.0
H492 H 0.65381 0.40366 0.98692 0.0
H493 H 0.68467 0.37538 0.8719 0.0
H494 H 0.7302 0.39161 0.85653 0.0
H495 H 0.69528 0.45389 0.85669 0.0
H496 H 0.74081 0.52921 0.88528 0.0
H497 H 0.77555 0.4674 0.88551 0.0
H498 H 0.76064 0.50277 0.92063 0.0
H499 H 0.70029 0.31873 0.98649 0.0
H500 H 0.75953 0.25978 0.98386 0.0
H501 H 0.78566 0.35568 0.8993 0.0
C502 C 0.67099 0.51861 0.91828 0.0
C503 C 0.64817 0.53796 0.94242 0.0
C504 C 0.64075 0.49512 0.96651 0.0
C505 C 0.6577 0.43472 0.96752 0.0
C506 C 0.68185 0.41812 0.94422 0.0
C507 C 0.68827 0.45851 0.91983 0.0
C508 C 0.72046 0.4349 0.90084 0.0
C509 C 0.70682 0.4126 0.86964 0.0
C510 C 0.75115 0.48662 0.89794 0.0
C511 C 0.73308 0.37838 0.91981 0.0
C512 C 0.70965 0.36822 0.94414 0.0
C513 C 0.71827 0.32477 0.96708 0.0
C514 C 0.75214 0.29201 0.96555 0.0
C515 C 0.77702 0.30336 0.94136 0.0
C516 C 0.76676 0.34533 0.91773 0.0
H517 H 0.66063 0.96049 0.52419 0.0
H518 H 0.65702 0.91629 0.62003 0.0
H519 H 0.697 0.01065 0.63043 0.0
H520 H 0.75208 0.99612 0.52071 0.0
H521 H 0.74838 0.06072 0.49363 0.0
H522 H 0.71372 -0.00165 0.49442 0.0
H523 H 0.6619 0.0838 0.50141 0.0
H524 H 0.69652 0.14679 0.50046 0.0
H525 H 0.66511 0.14061 0.53207 0.0
H526 H 0.74558 0.09706 0.62922 0.0
H527 H 0.79782 0.16971 0.61656 0.0
H528 H 0.76821 0.1573 0.52159 0.0
C529 C 0.66747 0.97152 0.54746 0.0
C530 C 0.65593 0.93118 0.57129 0.0
C531 C 0.66555 0.94688 0.60143 0.0
C532 C 0.68808 0.00046 0.60757 0.0
C533 C 0.70006 0.03811 0.58335 0.0
C534 C 0.68967 0.02472 0.55393 0.0
C535 C 0.70933 0.0679 0.5316 0.0
C536 C 0.73224 0.0284 0.50878 0.0
C537 C 0.68155 0.11243 0.51544 0.0
C538 C 0.73404 0.10522 0.55289 0.0
C539 C 0.72786 0.08838 0.5827 0.0
C540 C 0.75009 0.11185 0.60605 0.0
C541 C 0.77979 0.15278 0.59864 0.0
C542 C 0.78699 0.16909 0.5681 0.0
C543 C 0.76317 0.14623 0.54518 0.0
loop_
_geom_bond_atom_site_label_1
_geom_bond_atom_site_label_2
_geom_bond_distance
_geom_bond_site_symmetry_2
_ccdc_geom_bond_type
Zn0 O3 2.031 . S
Zn0 O5 2.049 . S
Zn0 O10 2.067 . S
Zn1 O2 1.962 . S
Zn1 O4 1.986 . S
Zn1 O6 1.996 . S
Zn1 O9 1.943 . S
O2 Zn1 1.962 . S
O2 C7 1.254 . S
O3 Zn0 2.031 . S
O3 C7 1.269 . S
O4 Zn1 1.986 . S
O4 C11 1.262 . S
O5 Zn0 2.049 . S
O5 C13 1.260 . S
O6 Zn1 1.996 . S
O6 C13 1.257 . S
C7 O2 1.254 . S
C7 O3 1.269 . S
C8 O9 1.249 . S
C8 O10 1.270 . S
O9 Zn1 1.943 . S
O9 C8 1.249 . S
O10 Zn0 2.067 . S
O10 C8 1.270 . S
C11 O4 1.262 . S
C11 O12 1.232 . S
O12 C11 1.232 . S
C13 O5 1.260 . S
C13 O6 1.257 . S
Zn14 O17 2.031 . S
Zn14 O19 2.049 . S
Zn14 O24 2.067 . S
Zn15 O16 1.962 . S
Zn15 O18 1.986 . S
Zn15 O20 1.996 . S
Zn15 O23 1.943 . S
O16 Zn15 1.962 . S
O16 C21 1.254 . S
O17 Zn14 2.031 . S
O17 C21 1.269 . S
O18 Zn15 1.986 . S
O18 C25 1.262 . S
O19 Zn14 2.049 . S
O19 C27 1.260 . S
O20 Zn15 1.996 . S
O20 C27 1.257 . S
C21 O16 1.254 . S
C21 O17 1.269 . S
C22 O23 1.249 . S
C22 O24 1.270 . S
O23 Zn15 1.943 . S
O23 C22 1.249 . S
O24 Zn14 2.067 . S
O24 C22 1.270 . S
C25 O18 1.262 . S
C25 O26 1.232 . S
O26 C25 1.232 . S
C27 O19 1.260 . S
C27 O20 1.257 . S
Zn28 O31 2.031 . S
Zn28 O33 2.049 . S
Zn28 O38 2.067 . S
Zn29 O30 1.962 . S
Zn29 O32 1.986 . S
Zn29 O34 1.996 . S
Zn29 O37 1.943 . S
O30 Zn29 1.962 . S
O30 C35 1.254 . S
O31 Zn28 2.031 . S
O31 C35 1.269 . S
O32 Zn29 1.986 . S
O32 C39 1.262 . S
O33 Zn28 2.049 . S
O33 C41 1.260 . S
O34 Zn29 1.996 . S
O34 C41 1.257 . S
C35 O30 1.254 . S
C35 O31 1.269 . S
C36 O37 1.249 . S
C36 O38 1.270 . S
O37 Zn29 1.943 . S
O37 C36 1.249 . S
O38 Zn28 2.067 . S
O38 C36 1.270 . S
C39 O32 1.262 . S
C39 O40 1.232 . S
O40 C39 1.232 . S
C41 O33 1.260 . S
C41 O34 1.257 . S
Zn42 O45 2.031 . S
Zn42 O47 2.049 . S
Zn42 O52 2.067 . S
Zn43 O44 1.962 . S
Zn43 O46 1.986 . S
Zn43 O48 1.996 . S
Zn43 O51 1.943 . S
O44 Zn43 1.962 . S
O44 C49 1.254 . S
O45 Zn42 2.031 . S
O45 C49 1.269 . S
O46 Zn43 1.986 . S
O46 C53 1.262 . S
O47 Zn42 2.049 . S
O47 C55 1.260 . S
O48 Zn43 1.996 . S
O48 C55 1.257 . S
C49 O44 1.254 . S
C49 O45 1.269 . S
C50 O51 1.249 . S
C50 O52 1.270 . S
O51 Zn43 1.943 . S
O51 C50 1.249 . S
O52 Zn42 2.067 . S
O52 C50 1.270 . S
C53 O46 1.262 . S
C53 O54 1.232 . S
O54 C53 1.232 . S
C55 O47 1.260 . S
C55 O48 1.257 . S
Zn56 O59 2.031 . S
Zn56 O61 2.049 . S
Zn56 O66 2.067 . S
Zn57 O58 1.962 . S
Zn57 O60 1.986 . S
Zn57 O62 1.996 . S
Zn57 O65 1.943 . S
O58 Zn57 1.962 . S
O58 C63 1.254 . S
O59 Zn56 2.031 . S
O59 C63 1.269 . S
O60 Zn57 1.986 . S
O60 C67 1.262 . S
O61 Zn56 2.049 . S
O61 C69 1.260 . S
O62 Zn57 1.996 . S
O62 C69 1.257 . S
C63 O58 1.254 . S
C63 O59 1.269 . S
C64 O65 1.249 . S
C64 O66 1.270 . S
O65 Zn57 1.943 . S
O65 C64 1.249 . S
O66 Zn56 2.067 . S
O66 C64 1.270 . S
C67 O60 1.262 . S
C67 O68 1.232 . S
O68 C67 1.232 . S
C69 O61 1.260 . S
C69 O62 1.257 . S
Zn70 O73 2.031 . S
Zn70 O75 2.049 . S
Zn70 O80 2.067 . S
Zn71 O72 1.962 . S
Zn71 O74 1.986 . S
Zn71 O76 1.996 . S
Zn71 O79 1.943 . S
O72 Zn71 1.962 . S
O72 C77 1.254 . S
O73 Zn70 2.031 . S
O73 C77 1.269 . S
O74 Zn71 1.986 . S
O74 C81 1.262 . S
O75 Zn70 2.049 . S
O75 C83 1.260 . S
O76 Zn71 1.996 . S
O76 C83 1.257 . S
C77 O72 1.254 . S
C77 O73 1.269 . S
C78 O79 1.249 . S
C78 O80 1.270 . S
O79 Zn71 1.943 . S
O79 C78 1.249 . S
O80 Zn70 2.067 . S
O80 C78 1.270 . S
C81 O74 1.262 . S
C81 O82 1.232 . S
O82 C81 1.232 . S
C83 O75 1.260 . S
C83 O76 1.257 . S
Zn84 O87 2.031 . S
Zn84 O89 2.049 . S
Zn84 O94 2.067 . S
Zn85 O86 1.962 . S
Zn85 O88 1.986 . S
Zn85 O90 1.996 . S
Zn85 O93 1.943 . S
O86 Zn85 1.962 . S
O86 C91 1.254 . S
O87 Zn84 2.031 . S
O87 C91 1.269 . S
O88 Zn85 1.986 . S
O88 C95 1.262 . S
O89 Zn84 2.049 . S
O89 C97 1.260 . S
O90 Zn85 1.996 . S
O90 C97 1.257 . S
C91 O86 1.254 . S
C91 O87 1.269 . S
C92 O93 1.249 . S
C92 O94 1.270 . S
O93 Zn85 1.943 . S
O93 C92 1.249 . S
O94 Zn84 2.067 . S
O94 C92 1.270 . S
C95 O88 1.262 . S
C95 O96 1.232 . S
O96 C95 1.232 . S
C97 O89 1.260 . S
C97 O90 1.257 . S
Zn98 O101 2.031 . S
Zn98 O103 2.049 . S
Zn98 O108 2.067 . S
Zn99 O100 1.962 . S
Zn99 O102 1.986 . S
Zn99 O104 1.996 . S
Zn99 O107 1.943 . S
O100 Zn99 1.962 . S
O100 C105 1.254 . S
O101 Zn98 2.031 . S
O101 C105 1.269 . S
O102 Zn99 1.986 . S
O102 C109 1.262 . S
O103 Zn98 2.049 . S
O103 C111 1.260 . S
O104 Zn99 1.996 . S
O104 C111 1.257 . S
C105 O100 1.254 . S
C105 O101 1.269 . S
C106 O107 1.249 . S
C106 O108 1.270 . S
O107 Zn99 1.943 . S
O107 C106 1.249 . S
O108 Zn98 2.067 . S
O108 C106 1.270 . S
C109 O102 1.262 . S
C109 O110 1.232 . S
O110 C109 1.232 . S
C111 O103 1.260 . S
C111 O104 1.257 . S
H112 C124 0.930 . S
H113 C126 0.930 . S
H114 C127 0.930 . S
H115 C131 0.959 1_554 S
H116 C131 0.959 . S
H117 C131 0.961 . S
H118 C132 0.960 . S
H119 C132 0.961 . S
H120 C132 0.959 1_554 S
H121 C135 0.929 . S
H122 C136 0.931 . S
H123 C138 0.930 . S
C124 H112 0.930 . S
C124 C125 1.399 . S
C124 C129 1.399 . S
C125 C124 1.399 . S
C125 C126 1.376 . S
C126 H113 0.930 . S
C126 C125 1.376 . S
C126 C127 1.388 . S
C127 H114 0.930 . S
C127 C126 1.388 . S
C127 C128 1.390 . S
C128 C127 1.390 . S
C128 C129 1.394 . S
C128 C134 1.465 1_545 S
C129 C124 1.399 . S
C129 C128 1.394 . S
C129 C130 1.516 . S
C130 C129 1.516 . S
C130 C131 1.502 1_554 S
C130 C132 1.561 1_544 S
C130 C133 1.526 1_545 S
C131 H115 0.959 1_556 S
C131 H116 0.959 . S
C131 H117 0.961 . S
C131 C130 1.502 1_556 S
C132 H118 0.960 . S
C132 H119 0.961 . S
C132 H120 0.959 1_556 S
C132 C130 1.561 1_566 S
C133 C130 1.526 1_565 S
C133 C134 1.396 . S
C133 C138 1.390 . S
C134 C128 1.465 1_565 S
C134 C133 1.396 . S
C134 C135 1.399 . S
C135 H121 0.929 . S
C135 C134 1.399 . S
C135 C136 1.385 . S
C136 H122 0.931 . S
C136 C135 1.385 . S
C136 C137 1.389 . S
C137 C136 1.389 . S
C137 C138 1.387 . S
C138 H123 0.930 . S
C138 C133 1.390 . S
C138 C137 1.387 . S
H139 C151 0.930 . S
H140 C153 0.930 . S
H141 C154 0.930 . S
H142 C158 0.959 . S
H143 C158 0.959 . S
H144 C158 0.961 . S
H145 C159 0.960 . S
H146 C159 0.961 . S
H147 C159 0.959 . S
H148 C162 0.929 . S
H149 C163 0.931 . S
H150 C165 0.930 . S
C151 H139 0.930 . S
C151 C152 1.399 . S
C151 C156 1.399 . S
C152 C151 1.399 . S
C152 C153 1.376 . S
C153 H140 0.930 . S
C153 C152 1.376 . S
C153 C154 1.388 . S
C154 H141 0.930 . S
C154 C153 1.388 . S
C154 C155 1.390 . S
C155 C154 1.390 . S
C155 C156 1.394 . S
C155 C161 1.465 . S
C156 C151 1.399 . S
C156 C155 1.394 . S
C156 C157 1.516 . S
C157 C156 1.516 . S
C157 C158 1.502 . S
C157 C159 1.561 . S
C157 C160 1.526 . S
C158 H142 0.959 . S
C158 H143 0.959 . S
C158 H144 0.961 . S
C158 C157 1.502 . S
C159 H145 0.960 . S
C159 H146 0.961 . S
C159 H147 0.959 . S
C159 C157 1.561 . S
C160 C157 1.526 . S
C160 C161 1.396 . S
C160 C165 1.390 . S
C161 C155 1.465 . S
C161 C160 1.396 . S
C161 C162 1.399 . S
C162 H148 0.929 . S
C162 C161 1.399 . S
C162 C163 1.385 . S
C163 H149 0.931 . S
C163 C162 1.385 . S
C163 C164 1.389 . S
C164 C163 1.389 . S
C164 C165 1.387 . S
C165 H150 0.930 . S
C165 C160 1.390 . S
C165 C164 1.387 . S
H166 C178 0.930 . S
H167 C180 0.930 . S
H168 C181 0.930 . S
H169 C185 0.959 1_556 S
H170 C185 0.959 . S
H171 C185 0.961 . S
H172 C186 0.960 . S
H173 C186 0.961 . S
H174 C186 0.975 . S
H175 C189 0.929 . S
H176 C190 0.931 . S
H177 C192 0.930 . S
C178 H166 0.930 . S
C178 C179 1.399 . S
C178 C183 1.399 . S
C179 C178 1.399 . S
C179 C180 1.376 . S
C180 H167 0.930 . S
C180 C179 1.376 . S
C180 C181 1.388 . S
C181 H168 0.930 . S
C181 C180 1.388 . S
C181 C182 1.390 . S
C182 C181 1.390 . S
C182 C183 1.394 . S
C182 C188 1.465 1_565 S
C183 C178 1.399 . S
C183 C182 1.394 . S
C183 C184 1.516 1_565 S
C184 C183 1.516 1_545 S
C184 C185 1.502 1_556 S
C184 C186 1.561 1_546 S
C184 C187 1.526 . S
C185 H169 0.959 1_554 S
C185 H170 0.959 . S
C185 H171 0.961 . S
C185 C184 1.502 1_554 S
C186 H172 0.960 . S
C186 H173 0.961 . S
C186 H174 0.975 . S
C186 C184 1.561 1_564 S
C187 C184 1.526 . S
C187 C188 1.396 . S
C187 C192 1.390 . S
C188 C182 1.465 1_545 S
C188 C187 1.396 . S
C188 C189 1.399 . S
C189 H175 0.929 . S
C189 C188 1.399 . S
C189 C190 1.385 . S
C190 H176 0.931 . S
C190 C189 1.385 . S
C190 C191 1.389 . S
C191 C190 1.389 . S
C191 C192 1.387 . S
C192 H177 0.930 . S
C192 C187 1.390 . S
C192 C191 1.387 . S
H193 C205 0.930 . S
H194 C207 0.930 . S
H195 C208 0.930 . S
H196 C212 0.959 . S
H197 C212 0.959 . S
H198 C212 0.961 . S
H199 C213 0.960 . S
H200 C213 0.961 . S
H201 C213 0.959 . S
H202 C216 0.929 . S
H203 C217 0.931 . S
H204 C219 0.930 . S
C205 H193 0.930 . S
C205 C206 1.399 . S
C205 C210 1.399 . S
C206 C205 1.399 . S
C206 C207 1.376 . S
C207 H194 0.930 . S
C207 C206 1.376 . S
C207 C208 1.388 . S
C208 H195 0.930 . S
C208 C207 1.388 . S
C208 C209 1.390 . S
C209 C208 1.390 . S
C209 C210 1.394 . S
C209 C215 1.465 . S
C210 C205 1.399 . S
C210 C209 1.394 . S
C210 C211 1.516 . S
C211 C210 1.516 . S
C211 C212 1.502 . S
C211 C213 1.561 . S
C211 C214 1.526 . S
C212 H196 0.959 . S
C212 H197 0.959 . S
C212 H198 0.961 . S
C212 C211 1.502 . S
C213 H199 0.960 . S
C213 H200 0.961 . S
C213 H201 0.959 . S
C213 C211 1.561 . S
C214 C211 1.526 . S
C214 C215 1.396 . S
C214 C219 1.390 . S
C215 C209 1.465 . S
C215 C214 1.396 . S
C215 C216 1.399 . S
C216 H202 0.929 . S
C216 C215 1.399 . S
C216 C217 1.385 . S
C217 H203 0.931 . S
C217 C216 1.385 . S
C217 C218 1.389 . S
C218 C217 1.389 . S
C218 C219 1.387 . S
C219 H204 0.930 . S
C219 C214 1.390 . S
C219 C218 1.387 . S
H220 C232 0.930 . S
H221 C234 0.930 . S
H222 C235 0.930 . S
H223 C239 0.959 . S
H224 C239 0.959 . S
H225 C239 0.961 . S
H226 C240 0.960 . S
H227 C240 0.961 . S
H228 C240 0.959 . S
H229 C243 0.929 . S
H230 C244 0.931 . S
H231 C246 0.930 . S
C232 H220 0.930 . S
C232 C233 1.399 . S
C232 C237 1.399 . S
C233 C232 1.399 . S
C233 C234 1.376 . S
C234 H221 0.930 . S
C234 C233 1.376 . S
C234 C235 1.388 . S
C235 H222 0.930 . S
C235 C234 1.388 . S
C235 C236 1.390 . S
C236 C235 1.390 . S
C236 C237 1.394 . S
C236 C242 1.465 . S
C237 C232 1.399 . S
C237 C236 1.394 . S
C237 C238 1.516 . S
C238 C237 1.516 . S
C238 C239 1.502 . S
C238 C240 1.561 . S
C238 C241 1.526 . S
C239 H223 0.959 . S
C239 H224 0.959 . S
C239 H225 0.961 . S
C239 C238 1.502 . S
C240 H226 0.960 . S
C240 H227 0.961 . S
C240 H228 0.959 . S
C240 C238 1.561 . S
C241 C238 1.526 . S
C241 C242 1.396 . S
C241 C246 1.390 . S
C242 C236 1.465 . S
C242 C241 1.396 . S
C242 C243 1.399 . S
C243 H229 0.929 . S
C243 C242 1.399 . S
C243 C244 1.385 . S
C244 H230 0.931 . S
C244 C243 1.385 . S
C244 C245 1.389 . S
C245 C244 1.389 . S
C245 C246 1.387 . S
C246 H231 0.930 . S
C246 C241 1.390 . S
C246 C245 1.387 . S
H247 C259 0.930 . S
H248 C261 0.930 . S
H249 C262 0.930 . S
H250 C266 0.959 . S
H251 C266 0.959 . S
H252 C266 0.961 . S
H253 C267 0.960 . S
H254 C267 0.961 . S
H255 C267 0.959 . S
H256 C270 0.929 . S
H257 C271 0.931 . S
H258 C273 0.930 . S
C259 H247 0.930 . S
C259 C260 1.399 . S
C259 C264 1.399 . S
C260 C259 1.399 . S
C260 C261 1.376 . S
C261 H248 0.930 . S
C261 C260 1.376 . S
C261 C262 1.388 . S
C262 H249 0.930 . S
C262 C261 1.388 . S
C262 C263 1.390 . S
C263 C262 1.390 . S
C263 C264 1.394 . S
C263 C269 1.465 . S
C264 C259 1.399 . S
C264 C263 1.394 . S
C264 C265 1.516 . S
C265 C264 1.516 . S
C265 C266 1.502 . S
C265 C267 1.561 . S
C265 C268 1.526 . S
C266 H250 0.959 . S
C266 H251 0.959 . S
C266 H252 0.961 . S
C266 C265 1.502 . S
C267 H253 0.960 . S
C267 H254 0.961 . S
C267 H255 0.959 . S
C267 C265 1.561 . S
C268 C265 1.526 . S
C268 C269 1.396 . S
C268 C273 1.390 . S
C269 C263 1.465 . S
C269 C268 1.396 . S
C269 C270 1.399 . S
C270 H256 0.929 . S
C270 C269 1.399 . S
C270 C271 1.385 . S
C271 H257 0.931 . S
C271 C270 1.385 . S
C271 C272 1.389 . S
C272 C271 1.389 . S
C272 C273 1.387 . S
C273 H258 0.930 . S
C273 C268 1.390 . S
C273 C272 1.387 . S
H274 C286 0.930 . S
H275 C288 0.930 . S
H276 C289 0.930 . S
H277 C293 0.959 . S
H278 C293 0.959 . S
H279 C293 0.961 . S
H280 C294 0.960 . S
H281 C294 0.961 . S
H282 C294 0.959 . S
H283 C297 0.929 . S
H284 C298 0.931 . S
H285 C300 0.930 . S
C286 H274 0.930 . S
C286 C287 1.399 . S
C286 C291 1.399 . S
C287 C286 1.399 . S
C287 C288 1.376 . S
C288 H275 0.930 . S
C288 C287 1.376 . S
C288 C289 1.388 . S
C289 H276 0.930 . S
C289 C288 1.388 . S
C289 C290 1.390 . S
C290 C289 1.390 . S
C290 C291 1.394 . S
C290 C296 1.465 . S
C291 C286 1.399 . S
C291 C290 1.394 . S
C291 C292 1.516 . S
C292 C291 1.516 . S
C292 C293 1.502 . S
C292 C294 1.561 . S
C292 C295 1.526 . S
C293 H277 0.959 . S
C293 H278 0.959 . S
C293 H279 0.961 . S
C293 C292 1.502 . S
C294 H280 0.960 . S
C294 H281 0.961 . S
C294 H282 0.959 . S
C294 C292 1.561 . S
C295 C292 1.526 . S
C295 C296 1.396 . S
C295 C300 1.390 . S
C296 C290 1.465 . S
C296 C295 1.396 . S
C296 C297 1.399 . S
C297 H283 0.929 . S
C297 C296 1.399 . S
C297 C298 1.385 . S
C298 H284 0.931 . S
C298 C297 1.385 . S
C298 C299 1.389 . S
C299 C298 1.389 . S
C299 C300 1.387 . S
C300 H285 0.930 . S
C300 C295 1.390 . S
C300 C299 1.387 . S
H301 C313 0.930 . S
H302 C315 0.930 . S
H303 C316 0.930 . S
H304 C320 0.959 . S
H305 C320 0.959 . S
H306 C320 0.961 . S
H307 C321 0.960 . S
H308 C321 0.961 . S
H309 C321 0.959 . S
H310 C324 0.929 . S
H311 C325 0.931 . S
H312 C327 0.930 . S
C313 H301 0.930 . S
C313 C314 1.399 . S
C313 C318 1.399 . S
C314 C313 1.399 . S
C314 C315 1.376 . S
C315 H302 0.930 . S
C315 C314 1.376 . S
C315 C316 1.388 . S
C316 H303 0.930 . S
C316 C315 1.388 . S
C316 C317 1.390 . S
C317 C316 1.390 . S
C317 C318 1.394 . S
C317 C323 1.465 . S
C318 C313 1.399 . S
C318 C317 1.394 . S
C318 C319 1.516 . S
C319 C318 1.516 . S
C319 C320 1.502 . S
C319 C321 1.561 . S
C319 C322 1.526 . S
C320 H304 0.959 . S
C320 H305 0.959 . S
C320 H306 0.961 . S
C320 C319 1.502 . S
C321 H307 0.960 . S
C321 H308 0.961 . S
C321 H309 0.959 . S
C321 C319 1.561 . S
C322 C319 1.526 . S
C322 C323 1.396 . S
C322 C327 1.390 . S
C323 C317 1.465 . S
C323 C322 1.396 . S
C323 C324 1.399 . S
C324 H310 0.929 . S
C324 C323 1.399 . S
C324 C325 1.385 . S
C325 H311 0.931 . S
C325 C324 1.385 . S
C325 C326 1.389 . S
C326 C325 1.389 . S
C326 C327 1.387 . S
C327 H312 0.930 . S
C327 C322 1.390 . S
C327 C326 1.387 . S
H328 C340 0.930 1_556 S
H329 C342 0.930 . S
H330 C343 0.930 . S
H331 C347 0.959 . S
H332 C347 0.959 . S
H333 C347 0.961 . S
H334 C348 0.960 . S
H335 C348 0.961 . S
H336 C348 0.959 . S
H337 C351 0.929 . S
H338 C352 0.931 . S
H339 C354 0.930 . S
C340 H328 0.930 1_554 S
C340 C341 1.399 . S
C340 C345 1.399 1_554 S
C341 C340 1.399 . S
C341 C342 1.376 . S
C342 H329 0.930 . S
C342 C341 1.376 . S
C342 C343 1.388 . S
C343 H330 0.930 . S
C343 C342 1.388 . S
C343 C344 1.390 . S
C344 C343 1.390 . S
C344 C345 1.394 1_554 S
C344 C350 1.465 . S
C345 C340 1.399 1_556 S
C345 C344 1.394 1_556 S
C345 C346 1.516 . S
C346 C345 1.516 . S
C346 C347 1.502 . S
C346 C348 1.561 . S
C346 C349 1.526 . S
C347 H331 0.959 . S
C347 H332 0.959 . S
C347 H333 0.961 . S
C347 C346 1.502 . S
C348 H334 0.960 . S
C348 H335 0.961 . S
C348 H336 0.959 . S
C348 C346 1.561 . S
C349 C346 1.526 . S
C349 C350 1.396 1_556 S
C349 C354 1.390 . S
C350 C344 1.465 . S
C350 C349 1.396 1_554 S
C350 C351 1.399 . S
C351 H337 0.929 . S
C351 C350 1.399 . S
C351 C352 1.385 . S
C352 H338 0.931 . S
C352 C351 1.385 . S
C352 C353 1.389 1_554 S
C353 C352 1.389 1_556 S
C353 C354 1.387 . S
C354 H339 0.930 . S
C354 C349 1.390 . S
C354 C353 1.387 . S
H355 C367 0.930 . S
H356 C369 0.938 . S
H357 C370 0.930 . S
H358 C374 0.959 . S
H359 C374 0.959 . S
H360 C374 0.961 . S
H361 C375 0.960 . S
H362 C375 0.961 . S
H363 C375 0.959 . S
H364 C378 0.929 1_554 S
H365 C379 0.931 . S
H366 C381 0.930 1_455 S
C367 H355 0.930 . S
C367 C368 1.399 . S
C367 C372 1.399 . S
C368 C367 1.399 . S
C368 C369 1.358 1_455 S
C369 H356 0.938 . S
C369 C368 1.358 1_655 S
C369 C370 1.400 . S
C370 H357 0.930 . S
C370 C369 1.400 . S
C370 C371 1.390 . S
C371 C370 1.390 . S
C371 C372 1.394 1_655 S
C371 C377 1.466 1_554 S
C372 C367 1.399 . S
C372 C371 1.394 1_455 S
C372 C373 1.516 1_554 S
C373 C372 1.516 1_556 S
C373 C374 1.502 . S
C373 C375 1.561 1_556 S
C373 C376 1.526 . S
C374 H358 0.959 . S
C374 H359 0.959 . S
C374 H360 0.961 . S
C374 C373 1.502 . S
C375 H361 0.960 . S
C375 H362 0.961 . S
C375 H363 0.959 . S
C375 C373 1.561 1_554 S
C376 C373 1.526 . S
C376 C377 1.396 1_455 S
C376 C381 1.390 1_455 S
C377 C371 1.466 1_556 S
C377 C376 1.396 1_655 S
C377 C378 1.399 . S
C378 H364 0.929 1_556 S
C378 C377 1.399 . S
C378 C379 1.385 . S
C379 H365 0.931 . S
C379 C378 1.385 . S
C379 C380 1.389 . S
C380 C379 1.389 . S
C380 C381 1.387 . S
C381 H366 0.930 1_655 S
C381 C376 1.390 1_655 S
C381 C380 1.387 . S
H382 C394 0.930 . S
H383 C396 0.930 . S
H384 C397 0.930 . S
H385 C401 0.959 . S
H386 C401 0.959 . S
H387 C401 0.961 . S
H388 C402 0.960 . S
H389 C402 0.961 1_545 S
H390 C402 0.959 . S
H391 C405 0.929 . S
H392 C406 0.931 . S
H393 C408 0.930 . S
C394 H382 0.930 . S
C394 C395 1.399 . S
C394 C399 1.399 . S
C395 C394 1.399 . S
C395 C396 1.376 . S
C396 H383 0.930 . S
C396 C395 1.376 . S
C396 C397 1.388 . S
C397 H384 0.930 . S
C397 C396 1.388 . S
C397 C398 1.390 . S
C398 C397 1.390 . S
C398 C399 1.394 . S
C398 C404 1.465 1_565 S
C399 C394 1.399 . S
C399 C398 1.394 . S
C399 C400 1.516 1_565 S
C400 C399 1.516 1_545 S
C400 C401 1.502 . S
C400 C402 1.561 1_545 S
C400 C403 1.526 . S
C401 H385 0.959 . S
C401 H386 0.959 . S
C401 H387 0.961 . S
C401 C400 1.502 . S
C402 H388 0.960 . S
C402 H389 0.961 1_565 S
C402 H390 0.959 . S
C402 C400 1.561 1_565 S
C403 C400 1.526 . S
C403 C404 1.396 . S
C403 C408 1.390 . S
C404 C398 1.465 1_545 S
C404 C403 1.396 . S
C404 C405 1.399 . S
C405 H391 0.929 . S
C405 C404 1.399 . S
C405 C406 1.385 . S
C406 H392 0.931 . S
C406 C405 1.385 . S
C406 C407 1.389 . S
C407 C406 1.389 . S
C407 C408 1.387 . S
C408 H393 0.930 . S
C408 C403 1.390 . S
C408 C407 1.387 . S
H409 C421 0.930 . S
H410 C423 0.930 . S
H411 C424 0.930 . S
H412 C428 0.959 . S
H413 C428 0.959 . S
H414 C428 0.961 1_545 S
H415 C429 0.960 . S
H416 C429 0.961 . S
H417 C429 0.959 1_455 S
H418 C432 0.929 . S
H419 C433 0.931 . S
H420 C435 0.930 . S
C421 H409 0.930 . S
C421 C422 1.399 . S
C421 C426 1.399 . S
C422 C421 1.399 . S
C422 C423 1.376 . S
C423 H410 0.930 . S
C423 C422 1.376 . S
C423 C424 1.388 1_655 S
C424 H411 0.930 . S
C424 C423 1.388 1_455 S
C424 C425 1.390 . S
C425 C424 1.390 . S
C425 C426 1.394 1_455 S
C425 C431 1.465 1_545 S
C426 C421 1.399 . S
C426 C425 1.394 1_655 S
C426 C427 1.516 . S
C427 C426 1.516 . S
C427 C428 1.502 1_545 S
C427 C429 1.561 . S
C427 C430 1.526 1_645 S
C428 H412 0.959 . S
C428 H413 0.959 . S
C428 H414 0.961 1_565 S
C428 C427 1.502 1_565 S
C429 H415 0.960 . S
C429 H416 0.961 . S
C429 H417 0.959 1_655 S
C429 C427 1.561 . S
C430 C427 1.526 1_465 S
C430 C431 1.396 . S
C430 C435 1.390 . S
C431 C425 1.465 1_565 S
C431 C430 1.396 . S
C431 C432 1.399 . S
C432 H418 0.929 . S
C432 C431 1.399 . S
C432 C433 1.385 . S
C433 H419 0.931 . S
C433 C432 1.385 . S
C433 C434 1.389 . S
C434 C433 1.389 . S
C434 C435 1.387 . S
C435 H420 0.930 . S
C435 C430 1.390 . S
C435 C434 1.387 . S
H436 C448 0.930 . S
H437 C450 0.930 . S
H438 C451 0.930 . S
H439 C455 0.959 . S
H440 C455 0.959 . S
H441 C455 0.961 . S
H442 C456 0.960 . S
H443 C456 0.961 . S
H444 C456 0.959 . S
H445 C459 0.929 . S
H446 C460 0.931 . S
H447 C462 0.930 . S
C448 H436 0.930 . S
C448 C449 1.399 . S
C448 C453 1.399 . S
C449 C448 1.399 . S
C449 C450 1.376 . S
C450 H437 0.930 . S
C450 C449 1.376 . S
C450 C451 1.388 . S
C451 H438 0.930 . S
C451 C450 1.388 . S
C451 C452 1.390 . S
C452 C451 1.390 . S
C452 C453 1.394 . S
C452 C458 1.465 . S
C453 C448 1.399 . S
C453 C452 1.394 . S
C453 C454 1.516 . S
C454 C453 1.516 . S
C454 C455 1.502 . S
C454 C456 1.561 . S
C454 C457 1.526 . S
C455 H439 0.959 . S
C455 H440 0.959 . S
C455 H441 0.961 . S
C455 C454 1.502 . S
C456 H442 0.960 . S
C456 H443 0.961 . S
C456 H444 0.959 . S
C456 C454 1.561 . S
C457 C454 1.526 . S
C457 C458 1.396 . S
C457 C462 1.390 . S
C458 C452 1.465 . S
C458 C457 1.396 . S
C458 C459 1.399 . S
C459 H445 0.929 . S
C459 C458 1.399 . S
C459 C460 1.385 . S
C460 H446 0.931 . S
C460 C459 1.385 . S
C460 C461 1.389 . S
C461 C460 1.389 . S
C461 C462 1.387 . S
C462 H447 0.930 . S
C462 C457 1.390 . S
C462 C461 1.387 . S
H463 C475 0.930 . S
H464 C477 0.930 . S
H465 C478 0.930 . S
H466 C482 0.959 . S
H467 C482 0.959 . S
H468 C482 0.961 . S
H469 C483 0.960 . S
H470 C483 0.961 1_565 S
H471 C483 0.959 . S
H472 C486 0.929 . S
H473 C487 0.931 . S
H474 C489 0.930 . S
C475 H463 0.930 . S
C475 C476 1.399 . S
C475 C480 1.399 . S
C476 C475 1.399 . S
C476 C477 1.376 . S
C477 H464 0.930 . S
C477 C476 1.376 . S
C477 C478 1.388 . S
C478 H465 0.930 . S
C478 C477 1.388 . S
C478 C479 1.390 . S
C479 C478 1.390 . S
C479 C480 1.394 . S
C479 C485 1.465 1_545 S
C480 C475 1.399 . S
C480 C479 1.394 . S
C480 C481 1.516 1_545 S
C481 C480 1.516 1_565 S
C481 C482 1.502 . S
C481 C483 1.561 1_565 S
C481 C484 1.526 . S
C482 H466 0.959 . S
C482 H467 0.959 . S
C482 H468 0.961 . S
C482 C481 1.502 . S
C483 H469 0.960 . S
C483 H470 0.961 1_545 S
C483 H471 0.959 . S
C483 C481 1.561 1_545 S
C484 C481 1.526 . S
C484 C485 1.396 . S
C484 C489 1.390 . S
C485 C479 1.465 1_565 S
C485 C484 1.396 . S
C485 C486 1.399 . S
C486 H472 0.929 . S
C486 C485 1.399 . S
C486 C487 1.385 . S
C487 H473 0.931 . S
C487 C486 1.385 . S
C487 C488 1.389 . S
C488 C487 1.389 . S
C488 C489 1.387 . S
C489 H474 0.930 . S
C489 C484 1.390 . S
C489 C488 1.387 . S
H490 C502 0.930 . S
H491 C504 0.930 . S
H492 C505 0.930 . S
H493 C509 0.959 . S
H494 C509 0.959 . S
H495 C509 0.961 . S
H496 C510 0.960 . S
H497 C510 0.961 . S
H498 C510 0.959 . S
H499 C513 0.929 . S
H500 C514 0.931 . S
H501 C516 0.930 . S
C502 H490 0.930 . S
C502 C503 1.399 . S
C502 C507 1.399 . S
C503 C502 1.399 . S
C503 C504 1.376 . S
C504 H491 0.930 . S
C504 C503 1.376 . S
C504 C505 1.388 . S
C505 H492 0.930 . S
C505 C504 1.388 . S
C505 C506 1.390 . S
C506 C505 1.390 . S
C506 C507 1.394 . S
C506 C512 1.465 . S
C507 C502 1.399 . S
C507 C506 1.394 . S
C507 C508 1.516 . S
C508 C507 1.516 . S
C508 C509 1.502 . S
C508 C510 1.561 . S
C508 C511 1.526 . S
C509 H493 0.959 . S
C509 H494 0.959 . S
C509 H495 0.961 . S
C509 C508 1.502 . S
C510 H496 0.960 . S
C510 H497 0.961 . S
C510 H498 0.959 . S
C510 C508 1.561 . S
C511 C508 1.526 . S
C511 C512 1.396 . S
C511 C516 1.390 . S
C512 C506 1.465 . S
C512 C511 1.396 . S
C512 C513 1.399 . S
C513 H499 0.929 . S
C513 C512 1.399 . S
C513 C514 1.385 . S
C514 H500 0.931 . S
C514 C513 1.385 . S
C514 C515 1.389 . S
C515 C514 1.389 . S
C515 C516 1.387 . S
C516 H501 0.930 . S
C516 C511 1.390 . S
C516 C515 1.387 . S
H517 C529 0.930 . S
H518 C531 0.930 . S
H519 C532 0.930 . S
H520 C536 0.959 . S
H521 C536 0.959 . S
H522 C536 0.961 . S
H523 C537 0.960 1_565 S
H524 C537 0.961 . S
H525 C537 0.959 . S
H526 C540 0.929 . S
H527 C541 0.931 . S
H528 C543 0.930 . S
C529 H517 0.930 . S
C529 C530 1.399 . S
C529 C534 1.399 . S
C530 C529 1.399 . S
C530 C531 1.376 . S
C531 H518 0.930 . S
C531 C530 1.376 . S
C531 C532 1.388 . S
C532 H519 0.930 . S
C532 C531 1.388 . S
C532 C533 1.390 . S
C533 C532 1.390 . S
C533 C534 1.394 . S
C533 C539 1.465 1_565 S
C534 C529 1.399 . S
C534 C533 1.394 . S
C534 C535 1.516 . S
C535 C534 1.516 . S
C535 C536 1.502 . S
C535 C537 1.561 1_565 S
C535 C538 1.526 1_565 S
C536 H520 0.959 . S
C536 H521 0.959 . S
C536 H522 0.961 . S
C536 C535 1.502 . S
C537 H523 0.960 1_545 S
C537 H524 0.961 . S
C537 H525 0.959 . S
C537 C535 1.561 1_545 S
C538 C535 1.526 1_545 S
C538 C539 1.396 . S
C538 C543 1.390 . S
C539 C533 1.465 1_545 S
C539 C538 1.396 . S
C539 C540 1.399 . S
C540 H526 0.929 . S
C540 C539 1.399 . S
C540 C541 1.385 . S
C541 H527 0.931 . S
C541 C540 1.385 . S
C541 C542 1.389 . S
C542 C541 1.389 . S
C542 C543 1.387 . S
C543 H528 0.930 . S
C543 C538 1.390 . S
C543 C542 1.387 . S
C125 C13 1.387 . S
C137 C27 1.359 . S
C152 C55 1.290 . S
C164 C41 1.342 . S
C179 C69 1.339 . S
C191 C83 1.383 . S
C206 C97 1.328 . S
C218 C111 1.387 . S
C233 C11 1.566 . S
C245 C39 1.548 . S
C260 C53 1.555 . S
C272 C25 1.575 . S
C287 C67 1.575 . S
C299 C95 1.553 . S
C314 C109 1.575 . S
C326 C81 1.554 . S
C341 C7 1.389 . S
C353 C63 1.462 . S
C368 C21 1.458 . S
C380 C77 1.393 . S
C395 C91 1.467 . S
C407 C35 1.398 . S
C422 C105 1.457 . S
C434 C49 1.412 . S
C449 C22 0.961 . S
C461 C8 0.887 . S
C476 C36 0.905 . S
C488 C50 0.959 . S
C503 C64 0.895 . S
C515 C78 0.923 . S
C530 C92 0.963 . S
C542 C106 0.923 . S
