# Generated by pormake.
# Topology ulf, (4)-cn, num edge types: 1
# Building blocks:
#     Node 0, Type 0, BuildingBlock: ICAMEG_clean_sbu_1, # of connection points: 4
#     Node 1, Type 0, BuildingBlock: ICAMEG_clean_sbu_1, # of connection points: 4
#     Node 2, Type 0, BuildingBlock: ICAMEG_clean_sbu_1, # of connection points: 4
#     Node 3, Type 0, BuildingBlock: ICAMEG_clean_sbu_1, # of connection points: 4
#     Node 4, Type 0, BuildingBlock: ICAMEG_clean_sbu_1, # of connection points: 4
#     Node 5, Type 0, BuildingBlock: ICAMEG_clean_sbu_1, # of connection points: 4
#     Node 6, Type 0, BuildingBlock: ICAMEG_clean_sbu_1, # of connection points: 4
#     Node 7, Type 0, BuildingBlock: ICAMEG_clean_sbu_1, # of connection points: 4
#     Node 8, Type 0, BuildingBlock: ICAMEG_clean_sbu_1, # of connection points: 4
#     Node 9, Type 0, BuildingBlock: ICAMEG_clean_sbu_1, # of connection points: 4
#     Node 10, Type 0, BuildingBlock: ICAMEG_clean_sbu_1, # of connection points: 4
#     Node 11, Type 0, BuildingBlock: ICAMEG_clean_sbu_1, # of connection points: 4
#     Node 12, Type 0, BuildingBlock: ICAMEG_clean_sbu_1, # of connection points: 4
#     Node 13, Type 0, BuildingBlock: ICAMEG_clean_sbu_1, # of connection points: 4
#     Node 14, Type 0, BuildingBlock: ICAMEG_clean_sbu_1, # of connection points: 4
#     Node 15, Type 0, BuildingBlock: ICAMEG_clean_sbu_1, # of connection points: 4
#     Node 16, Type 0, BuildingBlock: ICAMEG_clean_sbu_1, # of connection points: 4
#     Node 17, Type 0, BuildingBlock: ICAMEG_clean_sbu_1, # of connection points: 4
#     Node 18, Type 0, BuildingBlock: ICAMEG_clean_sbu_1, # of connection points: 4
#     Node 19, Type 0, BuildingBlock: ICAMEG_clean_sbu_1, # of connection points: 4
#     Node 20, Type 0, BuildingBlock: ICAMEG_clean_sbu_1, # of connection points: 4
#     Node 21, Type 0, BuildingBlock: ICAMEG_clean_sbu_1, # of connection points: 4
#     Node 22, Type 0, BuildingBlock: ICAMEG_clean_sbu_1, # of connection points: 4
#     Node 23, Type 0, BuildingBlock: ICAMEG_clean_sbu_1, # of connection points: 4
#     Node 24, Type 0, BuildingBlock: ICAMEG_clean_sbu_1, # of connection points: 4
#     Node 25, Type 0, BuildingBlock: ICAMEG_clean_sbu_1, # of connection points: 4
#     Node 26, Type 0, BuildingBlock: ICAMEG_clean_sbu_1, # of connection points: 4
#     Node 27, Type 0, BuildingBlock: ICAMEG_clean_sbu_1, # of connection points: 4
#     Node 28, Type 0, BuildingBlock: ICAMEG_clean_sbu_1, # of connection points: 4
#     Node 29, Type 0, BuildingBlock: ICAMEG_clean_sbu_1, # of connection points: 4
#     Node 30, Type 0, BuildingBlock: ICAMEG_clean_sbu_1, # of connection points: 4
#     Node 31, Type 0, BuildingBlock: ICAMEG_clean_sbu_1, # of connection points: 4
#     Node 32, Type 0, BuildingBlock: ICAMEG_clean_sbu_1, # of connection points: 4
#     Node 33, Type 0, BuildingBlock: ICAMEG_clean_sbu_1, # of connection points: 4
#     Node 34, Type 0, BuildingBlock: ICAMEG_clean_sbu_1, # of connection points: 4
#     Node 35, Type 0, BuildingBlock: ICAMEG_clean_sbu_1, # of connection points: 4
#     Node 36, Type 0, BuildingBlock: ICAMEG_clean_sbu_1, # of connection points: 4
#     Node 37, Type 0, BuildingBlock: ICAMEG_clean_sbu_1, # of connection points: 4
#     Node 38, Type 0, BuildingBlock: ICAMEG_clean_sbu_1, # of connection points: 4
#     Node 39, Type 0, BuildingBlock: ICAMEG_clean_sbu_1, # of connection points: 4
#     Node 40, Type 0, BuildingBlock: ICAMEG_clean_sbu_1, # of connection points: 4
#     Node 41, Type 0, BuildingBlock: ICAMEG_clean_sbu_1, # of connection points: 4
#     Node 42, Type 0, BuildingBlock: ICAMEG_clean_sbu_1, # of connection points: 4
#     Node 43, Type 0, BuildingBlock: ICAMEG_clean_sbu_1, # of connection points: 4
#     Node 44, Type 0, BuildingBlock: ICAMEG_clean_sbu_1, # of connection points: 4
#     Node 45, Type 0, BuildingBlock: ICAMEG_clean_sbu_1, # of connection points: 4
#     Node 46, Type 0, BuildingBlock: ICAMEG_clean_sbu_1, # of connection points: 4
#     Node 47, Type 0, BuildingBlock: ICAMEG_clean_sbu_1, # of connection points: 4
#     Edge 48, Type (0, 0), BuildingBlock: ZUJKAS_clean_linker_0, # of connection points: 2
#     Edge 49, Type (0, 0), BuildingBlock: ZUJKAS_clean_linker_0, # of connection points: 2
#     Edge 50, Type (0, 0), BuildingBlock: ZUJKAS_clean_linker_0, # of connection points: 2
#     Edge 51, Type (0, 0), BuildingBlock: ZUJKAS_clean_linker_0, # of connection points: 2
#     Edge 52, Type (0, 0), BuildingBlock: ZUJKAS_clean_linker_0, # of connection points: 2
#     Edge 53, Type (0, 0), BuildingBlock: ZUJKAS_clean_linker_0, # of connection points: 2
#     Edge 54, Type (0, 0), BuildingBlock: ZUJKAS_clean_linker_0, # of connection points: 2
#     Edge 55, Type (0, 0), BuildingBlock: ZUJKAS_clean_linker_0, # of connection points: 2
#     Edge 56, Type (0, 0), BuildingBlock: ZUJKAS_clean_linker_0, # of connection points: 2
#     Edge 57, Type (0, 0), BuildingBlock: ZUJKAS_clean_linker_0, # of connection points: 2
#     Edge 58, Type (0, 0), BuildingBlock: ZUJKAS_clean_linker_0, # of connection points: 2
#     Edge 59, Type (0, 0), BuildingBlock: ZUJKAS_clean_linker_0, # of connection points: 2
#     Edge 60, Type (0, 0), BuildingBlock: ZUJKAS_clean_linker_0, # of connection points: 2
#     Edge 61, Type (0, 0), BuildingBlock: ZUJKAS_clean_linker_0, # of connection points: 2
#     Edge 62, Type (0, 0), BuildingBlock: ZUJKAS_clean_linker_0, # of connection points: 2
#     Edge 63, Type (0, 0), BuildingBlock: ZUJKAS_clean_linker_0, # of connection points: 2
#     Edge 64, Type (0, 0), BuildingBlock: ZUJKAS_clean_linker_0, # of connection points: 2
#     Edge 65, Type (0, 0), BuildingBlock: ZUJKAS_clean_linker_0, # of connection points: 2
#     Edge 66, Type (0, 0), BuildingBlock: ZUJKAS_clean_linker_0, # of connection points: 2
#     Edge 67, Type (0, 0), BuildingBlock: ZUJKAS_clean_linker_0, # of connection points: 2
#     Edge 68, Type (0, 0), BuildingBlock: ZUJKAS_clean_linker_0, # of connection points: 2
#     Edge 69, Type (0, 0), BuildingBlock: ZUJKAS_clean_linker_0, # of connection points: 2
#     Edge 70, Type (0, 0), BuildingBlock: ZUJKAS_clean_linker_0, # of connection points: 2
#     Edge 71, Type (0, 0), BuildingBlock: ZUJKAS_clean_linker_0, # of connection points: 2
#     Edge 72, Type (0, 0), BuildingBlock: ZUJKAS_clean_linker_0, # of connection points: 2
#     Edge 73, Type (0, 0), BuildingBlock: ZUJKAS_clean_linker_0, # of connection points: 2
#     Edge 74, Type (0, 0), BuildingBlock: ZUJKAS_clean_linker_0, # of connection points: 2
#     Edge 75, Type (0, 0), BuildingBlock: ZUJKAS_clean_linker_0, # of connection points: 2
#     Edge 76, Type (0, 0), BuildingBlock: ZUJKAS_clean_linker_0, # of connection points: 2
#     Edge 77, Type (0, 0), BuildingBlock: ZUJKAS_clean_linker_0, # of connection points: 2
#     Edge 78, Type (0, 0), BuildingBlock: ZUJKAS_clean_linker_0, # of connection points: 2
#     Edge 79, Type (0, 0), BuildingBlock: ZUJKAS_clean_linker_0, # of connection points: 2
#     Edge 80, Type (0, 0), BuildingBlock: ZUJKAS_clean_linker_0, # of connection points: 2
#     Edge 81, Type (0, 0), BuildingBlock: ZUJKAS_clean_linker_0, # of connection points: 2
#     Edge 82, Type (0, 0), BuildingBlock: ZUJKAS_clean_linker_0, # of connection points: 2
#     Edge 83, Type (0, 0), BuildingBlock: ZUJKAS_clean_linker_0, # of connection points: 2
#     Edge 84, Type (0, 0), BuildingBlock: ZUJKAS_clean_linker_0, # of connection points: 2
#     Edge 85, Type (0, 0), BuildingBlock: ZUJKAS_clean_linker_0, # of connection points: 2
#     Edge 86, Type (0, 0), BuildingBlock: ZUJKAS_clean_linker_0, # of connection points: 2
#     Edge 87, Type (0, 0), BuildingBlock: ZUJKAS_clean_linker_0, # of connection points: 2
#     Edge 88, Type (0, 0), BuildingBlock: ZUJKAS_clean_linker_0, # of connection points: 2
#     Edge 89, Type (0, 0), BuildingBlock: ZUJKAS_clean_linker_0, # of connection points: 2
#     Edge 90, Type (0, 0), BuildingBlock: ZUJKAS_clean_linker_0, # of connection points: 2
#     Edge 91, Type (0, 0), BuildingBlock: ZUJKAS_clean_linker_0, # of connection points: 2
#     Edge 92, Type (0, 0), BuildingBlock: ZUJKAS_clean_linker_0, # of connection points: 2
#     Edge 93, Type (0, 0), BuildingBlock: ZUJKAS_clean_linker_0, # of connection points: 2
#     Edge 94, Type (0, 0), BuildingBlock: ZUJKAS_clean_linker_0, # of connection points: 2
#     Edge 95, Type (0, 0), BuildingBlock: ZUJKAS_clean_linker_0, # of connection points: 2
#     Edge 96, Type (0, 0), BuildingBlock: ZUJKAS_clean_linker_0, # of connection points: 2
#     Edge 97, Type (0, 0), BuildingBlock: ZUJKAS_clean_linker_0, # of connection points: 2
#     Edge 98, Type (0, 0), BuildingBlock: ZUJKAS_clean_linker_0, # of connection points: 2
#     Edge 99, Type (0, 0), BuildingBlock: ZUJKAS_clean_linker_0, # of connection points: 2
#     Edge 100, Type (0, 0), BuildingBlock: ZUJKAS_clean_linker_0, # of connection points: 2
#     Edge 101, Type (0, 0), BuildingBlock: ZUJKAS_clean_linker_0, # of connection points: 2
#     Edge 102, Type (0, 0), BuildingBlock: ZUJKAS_clean_linker_0, # of connection points: 2
#     Edge 103, Type (0, 0), BuildingBlock: ZUJKAS_clean_linker_0, # of connection points: 2
#     Edge 104, Type (0, 0), BuildingBlock: ZUJKAS_clean_linker_0, # of connection points: 2
#     Edge 105, Type (0, 0), BuildingBlock: ZUJKAS_clean_linker_0, # of connection points: 2
#     Edge 106, Type (0, 0), BuildingBlock: ZUJKAS_clean_linker_0, # of connection points: 2
#     Edge 107, Type (0, 0), BuildingBlock: ZUJKAS_clean_linker_0, # of connection points: 2
#     Edge 108, Type (0, 0), BuildingBlock: ZUJKAS_clean_linker_0, # of connection points: 2
#     Edge 109, Type (0, 0), BuildingBlock: ZUJKAS_clean_linker_0, # of connection points: 2
#     Edge 110, Type (0, 0), BuildingBlock: ZUJKAS_clean_linker_0, # of connection points: 2
#     Edge 111, Type (0, 0), BuildingBlock: ZUJKAS_clean_linker_0, # of connection points: 2
#     Edge 112, Type (0, 0), BuildingBlock: ZUJKAS_clean_linker_0, # of connection points: 2
#     Edge 113, Type (0, 0), BuildingBlock: ZUJKAS_clean_linker_0, # of connection points: 2
#     Edge 114, Type (0, 0), BuildingBlock: ZUJKAS_clean_linker_0, # of connection points: 2
#     Edge 115, Type (0, 0), BuildingBlock: ZUJKAS_clean_linker_0, # of connection points: 2
#     Edge 116, Type (0, 0), BuildingBlock: ZUJKAS_clean_linker_0, # of connection points: 2
#     Edge 117, Type (0, 0), BuildingBlock: ZUJKAS_clean_linker_0, # of connection points: 2
#     Edge 118, Type (0, 0), BuildingBlock: ZUJKAS_clean_linker_0, # of connection points: 2
#     Edge 119, Type (0, 0), BuildingBlock: ZUJKAS_clean_linker_0, # of connection points: 2
#     Edge 120, Type (0, 0), BuildingBlock: ZUJKAS_clean_linker_0, # of connection points: 2
#     Edge 121, Type (0, 0), BuildingBlock: ZUJKAS_clean_linker_0, # of connection points: 2
#     Edge 122, Type (0, 0), BuildingBlock: ZUJKAS_clean_linker_0, # of connection points: 2
#     Edge 123, Type (0, 0), BuildingBlock: ZUJKAS_clean_linker_0, # of connection points: 2
#     Edge 124, Type (0, 0), BuildingBlock: ZUJKAS_clean_linker_0, # of connection points: 2
#     Edge 125, Type (0, 0), BuildingBlock: ZUJKAS_clean_linker_0, # of connection points: 2
#     Edge 126, Type (0, 0), BuildingBlock: ZUJKAS_clean_linker_0, # of connection points: 2
#     Edge 127, Type (0, 0), BuildingBlock: ZUJKAS_clean_linker_0, # of connection points: 2
#     Edge 128, Type (0, 0), BuildingBlock: ZUJKAS_clean_linker_0, # of connection points: 2
#     Edge 129, Type (0, 0), BuildingBlock: ZUJKAS_clean_linker_0, # of connection points: 2
#     Edge 130, Type (0, 0), BuildingBlock: ZUJKAS_clean_linker_0, # of connection points: 2
#     Edge 131, Type (0, 0), BuildingBlock: ZUJKAS_clean_linker_0, # of connection points: 2
#     Edge 132, Type (0, 0), BuildingBlock: ZUJKAS_clean_linker_0, # of connection points: 2
#     Edge 133, Type (0, 0), BuildingBlock: ZUJKAS_clean_linker_0, # of connection points: 2
#     Edge 134, Type (0, 0), BuildingBlock: ZUJKAS_clean_linker_0, # of connection points: 2
#     Edge 135, Type (0, 0), BuildingBlock: ZUJKAS_clean_linker_0, # of connection points: 2
#     Edge 136, Type (0, 0), BuildingBlock: ZUJKAS_clean_linker_0, # of connection points: 2
#     Edge 137, Type (0, 0), BuildingBlock: ZUJKAS_clean_linker_0, # of connection points: 2
#     Edge 138, Type (0, 0), BuildingBlock: ZUJKAS_clean_linker_0, # of connection points: 2
#     Edge 139, Type (0, 0), BuildingBlock: ZUJKAS_clean_linker_0, # of connection points: 2
#     Edge 140, Type (0, 0), BuildingBlock: ZUJKAS_clean_linker_0, # of connection points: 2
#     Edge 141, Type (0, 0), BuildingBlock: ZUJKAS_clean_linker_0, # of connection points: 2
#     Edge 142, Type (0, 0), BuildingBlock: ZUJKAS_clean_linker_0, # of connection points: 2
#     Edge 143, Type (0, 0), BuildingBlock: ZUJKAS_clean_linker_0, # of connection points: 2
# Relax obj value: 0.666
# Max RMSD: 0.541
# Mean RMSD: 0.521
data_MOF--net-ulf--node1-ICAMEG_clean_sbu_1--edge1-ZUJKAS_clean_linker_0
_symmetry_space_group_name_H-M    P1
_symmetry_Int_Tables_number       1
_symmetry_cell_setting            triclinic
loop_
_symmetry_equiv_pos_as_xyz
'x, y, z'
_cell_length_a     62.407367
_cell_length_b     62.442739
_cell_length_c     62.444315
_cell_angle_alpha  109.47925
_cell_angle_beta   109.45536
_cell_angle_gamma 109.46927
loop_
_atom_site_label
_atom_site_type_symbol
_atom_site_fract_x
_atom_site_fract_y
_atom_site_fract_z
_atom_type_partial_charge
Co0 Co 0.02164 0.11651 0.17574 0.0
Co1 Co 0.98892 0.05468 0.12142 0.0
O2 O 0.9961 0.09108 0.13853 0.0
C3 C 0.97392 0.1211 0.17051 0.0
O4 O 0.95892 0.09551 0.15798 0.0
C5 C 0.99094 0.07328 0.08285 0.0
O6 O 0.00467 0.0981 0.10101 0.0
O7 O 0.027 0.06746 0.13291 0.0
O8 O 0.04556 0.10267 0.17296 0.0
H9 H 0.97691 0.96471 0.12492 0.0
H10 H 0.0007 0.13651 0.14135 0.0
O11 O 0.99847 0.13145 0.17903 0.0
H12 H 0.09628 0.18133 0.17617 0.0
H13 H 0.0735 0.20494 0.25795 0.0
H14 H 0.05622 0.11394 0.21976 0.0
H15 H 0.07587 0.14956 0.18831 0.0
H16 H 0.04222 0.17336 0.21091 0.0
O17 O 0.98333 0.05536 0.08836 0.0
H18 H 0.99078 0.01397 0.1416 0.0
H19 H 0.96485 0.01335 0.0625 0.0
H20 H 0.08761 0.14486 0.26687 0.0
H21 H 0.02022 0.1685 0.12905 0.0
H22 H 0.09639 0.19073 0.28629 0.0
H23 H 0.06835 0.19105 0.14641 0.0
O24 O 0.00621 0.09169 0.18693 0.0
H25 H 0.90927 0.06233 0.09067 0.0
H26 H 0.94915 0.01776 0.12696 0.0
H27 H 0.90577 0.00922 0.12059 0.0
H28 H 0.88725 0.0341 0.10538 0.0
H29 H 0.95166 0.06874 0.09551 0.0
H30 H 0.94265 0.93707 0.03382 0.0
H31 H 0.95414 0.92653 0.07437 0.0
O32 O 0.99557 0.05431 0.15425 0.0
C33 C 0.04677 0.08619 0.15532 0.0
C34 C 0.97343 0.97047 0.11013 0.0
C35 C 0.95239 0.9533 0.05383 0.0
N36 N 0.98004 0.01722 0.1038 0.0
C37 C 0.98283 0.00313 0.12095 0.0
C38 C 0.96744 0.00278 0.07282 0.0
C39 C 0.95921 0.9464 0.0787 0.0
C40 C 0.02168 0.14642 0.1492 0.0
N41 N 0.03719 0.14115 0.16556 0.0
C42 C 0.03261 0.16444 0.14207 0.0
C43 C 0.05961 0.17709 0.15179 0.0
C44 C 0.07529 0.17161 0.16847 0.0
C45 C 0.06366 0.15352 0.17518 0.0
C46 C 0.06977 0.18498 0.24973 0.0
C47 C 0.05989 0.13384 0.22801 0.0
C48 C 0.05202 0.16698 0.2231 0.0
N49 N 0.04723 0.14174 0.21255 0.0
C50 C 0.0777 0.15127 0.25474 0.0
C51 C 0.08263 0.177 0.26562 0.0
C52 C 0.00136 0.06808 0.17763 0.0
C53 C 0.91739 0.05171 0.09776 0.0
C54 C 0.94002 0.02662 0.11787 0.0
C55 C 0.91563 0.02215 0.11485 0.0
C56 C 0.90489 0.03564 0.10571 0.0
N57 N 0.95276 0.04328 0.11107 0.0
C58 C 0.94139 0.05509 0.10033 0.0
Co59 Co 0.02966 0.59519 0.44888 0.0
Co60 Co 0.01114 0.54354 0.3914 0.0
O61 O 0.01111 0.57563 0.41073 0.0
C62 C 0.98216 0.60752 0.44601 0.0
O63 O 0.9578 0.58879 0.42873 0.0
C64 C 0.02994 0.57724 0.37094 0.0
O65 O 0.04608 0.59578 0.39555 0.0
O66 O 0.04931 0.56155 0.41013 0.0
O67 O 0.05844 0.58622 0.45096 0.0
H68 H 0.05079 0.48625 0.38671 0.0
H69 H 0.01494 0.62957 0.43076 0.0
O70 O 0.00069 0.60276 0.44716 0.0
H71 H 0.10831 0.66549 0.45748 0.0
H72 H 0.10429 0.65757 0.54397 0.0
H73 H 0.00988 0.59441 0.48527 0.0
H74 H 0.08602 0.62852 0.46163 0.0
H75 H 0.08622 0.63497 0.49686 0.0
O76 O 0.01277 0.55499 0.36524 0.0
H77 H 0.03367 0.51199 0.40632 0.0
H78 H 0.99464 0.5106 0.33539 0.0
H79 H 0.02812 0.61443 0.53282 0.0
H80 H 0.03706 0.6676 0.42724 0.0
H81 H 0.07565 0.64666 0.56273 0.0
H82 H 0.08413 0.68584 0.44033 0.0
O83 O 0.00929 0.56306 0.44824 0.0
H84 H 0.92318 0.53138 0.33695 0.0
H85 H 0.96884 0.49285 0.37735 0.0
H86 H 0.92054 0.46797 0.35095 0.0
H87 H 0.89731 0.48727 0.33024 0.0
H88 H 0.97151 0.55519 0.36361 0.0
H89 H 0.01456 0.48774 0.3162 0.0
H90 H 0.04363 0.47645 0.3422 0.0
O91 O 0.01164 0.53289 0.41921 0.0
C92 C 0.06466 0.57523 0.43449 0.0
C93 C 0.03819 0.49125 0.37517 0.0
C94 C 0.01759 0.49188 0.33552 0.0
N95 N 0.01276 0.51293 0.37209 0.0
C96 C 0.02764 0.50529 0.38598 0.0
C97 C 0.00637 0.50486 0.34655 0.0
C98 C 0.03404 0.48557 0.35017 0.0
C99 C 0.03558 0.63783 0.4379 0.0
N100 N 0.04901 0.62705 0.44818 0.0
C101 C 0.04798 0.65926 0.43528 0.0
C102 C 0.07434 0.66946 0.44252 0.0
C103 C 0.08788 0.65811 0.45218 0.0
C104 C 0.07487 0.63687 0.45467 0.0
C105 C 0.08353 0.64358 0.53114 0.0
C106 C 0.03068 0.60806 0.49784 0.0
C107 C 0.07282 0.63103 0.50393 0.0
N108 N 0.04649 0.61378 0.48736 0.0
C109 C 0.04086 0.61948 0.52493 0.0
C110 C 0.06748 0.63751 0.54168 0.0
C111 C 0.01041 0.54224 0.44017 0.0
C112 C 0.93303 0.52263 0.34566 0.0
C113 C 0.95889 0.50108 0.36843 0.0
C114 C 0.93151 0.48702 0.35343 0.0
C115 C 0.91851 0.49787 0.34184 0.0
N116 N 0.97301 0.52505 0.37171 0.0
C117 C 0.96041 0.53603 0.36078 0.0
Co118 Co 0.50032 0.7802 0.83675 0.0
Co119 Co 0.51283 0.83228 0.80984 0.0
O120 O 0.48918 0.7826 0.79909 0.0
C121 C 0.55096 0.7827 0.86779 0.0
O122 O 0.55142 0.79841 0.8883 0.0
C123 C 0.46043 0.76312 0.75273 0.0
O124 O 0.44244 0.74022 0.74654 0.0
O125 O 0.47112 0.78579 0.79654 0.0
O126 O 0.46993 0.78534 0.83235 0.0
H127 H 0.48053 0.90864 0.81043 0.0
H128 H 0.48598 0.74001 0.78472 0.0
O129 O 0.53221 0.77357 0.84397 0.0
H130 H 0.42153 0.69427 0.80509 0.0
H131 H 0.50577 0.73568 0.89189 0.0
H132 H 0.49148 0.80465 0.88007 0.0
H133 H 0.45387 0.74096 0.83461 0.0
H134 H 0.5053 0.74129 0.85454 0.0
O135 O 0.47659 0.78167 0.77986 0.0
H136 H 0.49484 0.87742 0.82971 0.0
H137 H 0.52718 0.85463 0.77073 0.0
H138 H 0.49241 0.80032 0.91795 0.0
H139 H 0.45358 0.69288 0.75408 0.0
H140 H 0.49977 0.76564 0.92424 0.0
H141 H 0.42136 0.66959 0.76451 0.0
O142 O 0.5328 0.82056 0.86764 0.0
H143 H 0.60155 0.89689 0.8313 0.0
H144 H 0.53481 0.88731 0.85813 0.0
H145 H 0.57696 0.92775 0.88494 0.0
H146 H 0.61116 0.9321 0.87259 0.0
H147 H 0.55993 0.85523 0.80619 0.0
H148 H 0.51304 0.88468 0.74936 0.0
H149 H 0.48856 0.91195 0.76915 0.0
O150 O 0.54803 0.85306 0.85731 0.0
C151 C 0.45712 0.78197 0.80969 0.0
C152 C 0.48838 0.8976 0.80181 0.0
C153 C 0.50882 0.88307 0.76426 0.0
N154 N 0.51301 0.86421 0.80257 0.0
C155 C 0.4985 0.87894 0.81447 0.0
C156 C 0.51792 0.86471 0.77809 0.0
C157 C 0.49397 0.9002 0.7768 0.0
C158 C 0.47242 0.72983 0.78951 0.0
N159 N 0.47371 0.74292 0.81262 0.0
C160 C 0.45393 0.70324 0.77203 0.0
C161 C 0.43581 0.69016 0.77785 0.0
C162 C 0.43601 0.70393 0.80066 0.0
C163 C 0.45484 0.73046 0.81761 0.0
C164 C 0.50327 0.75134 0.8898 0.0
C165 C 0.49606 0.79054 0.88331 0.0
C166 C 0.50321 0.75477 0.86878 0.0
N167 N 0.50069 0.77495 0.86625 0.0
C168 C 0.49592 0.78767 0.90451 0.0
C169 C 0.49986 0.76811 0.90791 0.0
C170 C 0.54891 0.84505 0.87466 0.0
C171 C 0.58677 0.89486 0.83704 0.0
C172 C 0.54861 0.88974 0.85107 0.0
C173 C 0.57289 0.91252 0.86693 0.0
C174 C 0.59198 0.91498 0.85983 0.0
N175 N 0.54316 0.86908 0.82829 0.0
C176 C 0.56292 0.87147 0.82249 0.0
Co177 Co 0.38819 0.23309 0.13561 0.0
Co178 Co 0.36992 0.28017 0.14891 0.0
O179 O 0.39213 0.26703 0.1403 0.0
C180 C 0.44609 0.27086 0.17135 0.0
O181 O 0.44273 0.29026 0.18288 0.0
C182 C 0.36438 0.28299 0.10177 0.0
O183 O 0.36092 0.25919 0.09178 0.0
O184 O 0.33732 0.24686 0.1195 0.0
O185 O 0.34985 0.21716 0.1196 0.0
H186 H 0.29481 0.27487 0.16476 0.0
H187 H 0.42616 0.25323 0.11774 0.0
O188 O 0.42684 0.2484 0.15291 0.0
H189 H 0.34261 0.18812 0.03585 0.0
H190 H 0.34679 0.13378 0.09159 0.0
H191 H 0.41894 0.21841 0.16925 0.0
H192 H 0.34449 0.19819 0.0776 0.0
H193 H 0.34922 0.17467 0.0951 0.0
O194 O 0.36936 0.29503 0.12523 0.0
H195 H 0.32346 0.25871 0.15503 0.0
H196 H 0.36893 0.33003 0.16009 0.0
H197 H 0.41715 0.17766 0.16634 0.0
H198 H 0.4247 0.24335 0.07607 0.0
H199 H 0.38095 0.13482 0.12726 0.0
H200 H 0.3828 0.21043 0.03441 0.0
O201 O 0.38936 0.24126 0.16988 0.0
H202 H 0.45835 0.35936 0.19129 0.0
H203 H 0.38872 0.31169 0.20568 0.0
H204 H 0.4284 0.35285 0.24292 0.0
H205 H 0.4635 0.37707 0.23581 0.0
H206 H 0.41849 0.31787 0.15467 0.0
H207 H 0.34054 0.34671 0.16946 0.0
H208 H 0.30319 0.31902 0.17189 0.0
O209 O 0.36893 0.26477 0.17185 0.0
C210 C 0.33223 0.2234 0.11339 0.0
C211 C 0.31104 0.28704 0.16376 0.0
C212 C 0.3367 0.3274 0.1664 0.0
N213 N 0.34797 0.29346 0.15718 0.0
C214 C 0.3274 0.27808 0.15838 0.0
C215 C 0.35268 0.31782 0.16103 0.0
C216 C 0.31575 0.31186 0.16776 0.0
C217 C 0.40794 0.23794 0.10027 0.0
N218 N 0.38609 0.22472 0.10124 0.0
C219 C 0.40718 0.23283 0.07639 0.0
C220 C 0.3837 0.21448 0.05304 0.0
C221 C 0.36121 0.20192 0.05387 0.0
C222 C 0.36267 0.20754 0.07809 0.0
C223 C 0.36301 0.15235 0.10847 0.0
C224 C 0.40349 0.20006 0.1517 0.0
C225 C 0.36475 0.1759 0.11044 0.0
N226 N 0.38514 0.19956 0.13163 0.0
C227 C 0.40243 0.17693 0.15038 0.0
C228 C 0.3821 0.15292 0.12851 0.0
C229 C 0.37621 0.24998 0.17821 0.0
C230 C 0.44317 0.34902 0.19463 0.0
C231 C 0.40403 0.32196 0.20249 0.0
C232 C 0.4264 0.34533 0.22363 0.0
C233 C 0.44606 0.35892 0.21961 0.0
N234 N 0.40131 0.31243 0.17804 0.0
C235 C 0.42052 0.32559 0.17395 0.0
Co236 Co 0.98651 0.73577 0.16138 0.0
Co237 Co 0.04729 0.75175 0.20509 0.0
O238 O 0.01014 0.73808 0.19259 0.0
C239 C 0.97361 0.75705 0.20177 0.0
O240 O 0.99789 0.77658 0.21704 0.0
C241 C 0.02664 0.70501 0.21117 0.0
O242 O 0.00371 0.70335 0.20275 0.0
O243 O 0.03825 0.72641 0.17005 0.0
O244 O 0.00779 0.73113 0.14398 0.0
H245 H 0.12646 0.77765 0.19411 0.0
H246 H 0.96075 0.69869 0.17691 0.0
O247 O 0.96561 0.74015 0.17855 0.0
H248 H 0.94175 0.64273 0.0883 0.0
H249 H 0.9001 0.72332 0.10351 0.0
H250 H 0.99182 0.7539 0.1239 0.0
H251 H 0.96595 0.69083 0.10893 0.0
H252 H 0.9288 0.71515 0.13394 0.0
O253 O 0.04661 0.72425 0.21563 0.0
H254 H 0.08231 0.77039 0.18496 0.0
H255 H 0.09185 0.75922 0.25015 0.0
H256 H 0.96339 0.76136 0.09247 0.0
H257 H 0.93573 0.65069 0.15664 0.0
H258 H 0.91782 0.74798 0.08382 0.0
H259 H 0.92658 0.6223 0.11213 0.0
O260 O 0.0082 0.77418 0.17829 0.0
H261 H 0.03724 0.78106 0.28506 0.0
H262 H 0.0854 0.8084 0.24181 0.0
H263 H 0.09616 0.84109 0.28492 0.0
H264 H 0.07196 0.82749 0.30682 0.0
H265 H 0.02712 0.74912 0.24202 0.0
H266 H 0.13591 0.76575 0.25977 0.0
H267 H 0.15321 0.77431 0.23121 0.0
O268 O 0.04843 0.77879 0.19353 0.0
C269 C 0.02445 0.72337 0.14792 0.0
C270 C 0.11903 0.77363 0.20652 0.0
C271 C 0.12429 0.76687 0.24331 0.0
N272 N 0.08426 0.76395 0.21662 0.0
C273 C 0.0941 0.76973 0.20152 0.0
C274 C 0.09935 0.76329 0.23781 0.0
C275 C 0.13398 0.77167 0.22728 0.0
C276 C 0.95654 0.68659 0.15747 0.0
N277 N 0.96553 0.69776 0.14458 0.0
C278 C 0.94239 0.65935 0.14607 0.0
C279 C 0.93724 0.64343 0.12112 0.0
C280 C 0.94582 0.6549 0.10775 0.0
C281 C 0.95976 0.68221 0.11971 0.0
C282 C 0.92019 0.73002 0.10785 0.0
C283 C 0.97171 0.74696 0.11937 0.0
C284 C 0.9366 0.72552 0.12511 0.0
N285 N 0.96238 0.7351 0.13163 0.0
C286 C 0.95579 0.75156 0.10181 0.0
C287 C 0.93015 0.74384 0.09678 0.0
C288 C 0.03241 0.78667 0.18538 0.0
C289 C 0.04804 0.7872 0.27579 0.0
C290 C 0.0749 0.80227 0.25129 0.0
C291 C 0.08105 0.8209 0.27569 0.0
C292 C 0.06748 0.81325 0.28797 0.0
N293 N 0.05588 0.77671 0.23949 0.0
C294 C 0.04248 0.7691 0.25142 0.0
Co295 Co 0.44236 0.7861 0.44366 0.0
Co296 Co 0.39901 0.75794 0.46243 0.0
O297 O 0.43202 0.76958 0.46287 0.0
C298 C 0.47458 0.7605 0.45386 0.0
O299 O 0.46213 0.74968 0.46393 0.0
C300 C 0.42359 0.78783 0.52187 0.0
O301 O 0.4191 0.80689 0.52164 0.0
O302 O 0.4009 0.79251 0.4689 0.0
O303 O 0.42179 0.80415 0.44777 0.0
H304 H 0.3084 0.74524 0.43621 0.0
H305 H 0.47464 0.79347 0.49754 0.0
O306 O 0.46385 0.76822 0.43901 0.0
H307 H 0.51634 0.88055 0.50681 0.0
H308 H 0.50721 0.82924 0.41904 0.0
H309 H 0.41707 0.7977 0.40275 0.0
H310 H 0.47865 0.84389 0.46505 0.0
H311 H 0.49231 0.80776 0.44182 0.0
O312 O 0.41783 0.76906 0.50069 0.0
H313 H 0.3515 0.76181 0.43888 0.0
H314 H 0.37514 0.72846 0.48504 0.0
H315 H 0.43089 0.81957 0.37957 0.0
H316 H 0.51138 0.83004 0.53961 0.0
H317 H 0.47677 0.83604 0.38821 0.0
H318 H 0.5328 0.87425 0.54494 0.0
O319 O 0.40746 0.75732 0.40914 0.0
H320 H 0.43247 0.69747 0.47463 0.0
H321 H 0.35822 0.70268 0.42054 0.0
H322 H 0.35601 0.65982 0.40782 0.0
H323 H 0.39337 0.65703 0.43491 0.0
H324 H 0.43412 0.73991 0.48632 0.0
H325 H 0.33237 0.7118 0.48317 0.0
H326 H 0.29853 0.71992 0.45838 0.0
O327 O 0.38054 0.74658 0.4252 0.0
C328 C 0.40551 0.80412 0.45605 0.0
C329 C 0.32294 0.7415 0.44702 0.0
C330 C 0.3364 0.72275 0.47338 0.0
N331 N 0.36576 0.74591 0.46189 0.0
C332 C 0.34739 0.7508 0.44856 0.0
C333 C 0.36063 0.73231 0.47444 0.0
C334 C 0.31743 0.72731 0.45947 0.0
C335 C 0.48336 0.81212 0.49869 0.0
N336 N 0.47401 0.81544 0.47746 0.0
C337 C 0.50453 0.83305 0.52308 0.0
C338 C 0.51659 0.85781 0.52608 0.0
C339 C 0.50748 0.86128 0.50468 0.0
C340 C 0.48616 0.83992 0.48061 0.0
C341 C 0.48725 0.82236 0.41526 0.0
C342 C 0.43669 0.80499 0.40664 0.0
C343 C 0.47847 0.80977 0.42787 0.0
N344 N 0.45361 0.80203 0.42423 0.0
C345 C 0.44456 0.81717 0.39334 0.0
C346 C 0.47018 0.82623 0.39802 0.0
C347 C 0.38414 0.74704 0.40648 0.0
C348 C 0.41606 0.69841 0.46265 0.0
C349 C 0.3746 0.70168 0.43237 0.0
C350 C 0.37319 0.67732 0.42513 0.0
C351 C 0.39414 0.67575 0.44035 0.0
N352 N 0.39634 0.72391 0.45405 0.0
C353 C 0.4168 0.72242 0.46925 0.0
Co354 Co 0.31988 0.38155 0.85654 0.0
Co355 Co 0.29271 0.3188 0.84988 0.0
O356 O 0.32154 0.35615 0.86956 0.0
C357 C 0.37911 0.40235 0.89059 0.0
O358 O 0.37376 0.3836 0.89646 0.0
C359 C 0.29395 0.33975 0.9004 0.0
O360 O 0.29478 0.36004 0.89799 0.0
O361 O 0.26722 0.33128 0.84698 0.0
O362 O 0.27951 0.36097 0.83528 0.0
H363 H 0.20712 0.24131 0.77094 0.0
H364 H 0.35036 0.40295 0.91456 0.0
O365 O 0.36027 0.40348 0.87538 0.0
H366 H 0.28708 0.43449 0.90189 0.0
H367 H 0.35128 0.47004 0.86258 0.0
H368 H 0.28857 0.37523 0.80463 0.0
H369 H 0.28765 0.40601 0.86392 0.0
H370 H 0.34994 0.4397 0.87985 0.0
O371 O 0.29333 0.32119 0.88299 0.0
H372 H 0.24671 0.28418 0.79478 0.0
H373 H 0.2712 0.27612 0.86269 0.0
H374 H 0.28904 0.40493 0.78676 0.0
H375 H 0.35082 0.43171 0.95302 0.0
H376 H 0.32072 0.4527 0.81572 0.0
H377 H 0.319 0.44775 0.94688 0.0
O378 O 0.3192 0.35925 0.82526 0.0
H379 H 0.38344 0.34536 0.9237 0.0
H380 H 0.32754 0.2674 0.81288 0.0
H381 H 0.37814 0.28202 0.84592 0.0
H382 H 0.40513 0.31887 0.89997 0.0
H383 H 0.33667 0.33951 0.89981 0.0
H384 H 0.2309 0.23426 0.83984 0.0
H385 H 0.1985 0.2161 0.79337 0.0
O386 O 0.28894 0.3204 0.81614 0.0
C387 C 0.2615 0.3424 0.83417 0.0
C388 C 0.22106 0.24907 0.7912 0.0
C389 C 0.23427 0.24518 0.82987 0.0
N390 N 0.26187 0.28349 0.83053 0.0
C391 C 0.24386 0.27347 0.80494 0.0
C392 C 0.25703 0.26948 0.84296 0.0
C393 C 0.21618 0.23495 0.80381 0.0
C394 C 0.33683 0.41017 0.91162 0.0
N395 N 0.3194 0.40316 0.88694 0.0
C396 C 0.33699 0.4263 0.93354 0.0
C397 C 0.31907 0.4352 0.93008 0.0
C398 C 0.30113 0.42774 0.90484 0.0
C399 C 0.30151 0.41153 0.8834 0.0
C400 C 0.33734 0.44926 0.84978 0.0
C401 C 0.30214 0.39601 0.81756 0.0
C402 C 0.33649 0.43195 0.85944 0.0
N403 N 0.31904 0.40565 0.84337 0.0
C404 C 0.3024 0.41274 0.80724 0.0
C405 C 0.32019 0.43953 0.82349 0.0
C406 C 0.30053 0.33575 0.80903 0.0
C407 C 0.3713 0.32946 0.90413 0.0
C408 C 0.33572 0.28083 0.83379 0.0
C409 C 0.36812 0.28934 0.85453 0.0
C410 C 0.38471 0.31281 0.88849 0.0
N411 N 0.32032 0.30468 0.8562 0.0
C412 C 0.33994 0.32515 0.88841 0.0
Co413 Co 0.95994 0.08664 0.77732 0.0
Co414 Co 0.00281 0.08303 0.82575 0.0
O415 O 0.97554 0.09109 0.81265 0.0
C416 C 0.97937 0.14081 0.81355 0.0
O417 O 0.00104 0.14043 0.82467 0.0
C418 C 0.97093 0.04705 0.83985 0.0
O419 O 0.96579 0.0261 0.81999 0.0
O420 O 0.98066 0.04794 0.79451 0.0
O421 O 0.96373 0.05485 0.76154 0.0
H422 H 0.08329 0.07671 0.83247 0.0
H423 H 0.93265 0.09241 0.80808 0.0
O424 O 0.95879 0.11986 0.79364 0.0
H425 H 0.8703 0.00678 0.72696 0.0
H426 H 0.89831 0.09391 0.70762 0.0
H427 H 0.96724 0.07027 0.73068 0.0
H428 H 0.91393 0.03465 0.73457 0.0
H429 H 0.91775 0.09573 0.75008 0.0
O430 O 0.98531 0.06997 0.84439 0.0
H431 H 0.04383 0.078 0.81125 0.0
H432 H 0.01993 0.06282 0.86333 0.0
H433 H 0.9483 0.06805 0.688 0.0
H434 H 0.8892 0.06522 0.80127 0.0
H435 H 0.91366 0.08008 0.67626 0.0
H436 H 0.85768 0.02206 0.76044 0.0
O437 O 0.99463 0.10769 0.782 0.0
H438 H 0.01822 0.16093 0.9009 0.0
H439 H 0.05995 0.12417 0.85661 0.0
H440 H 0.08709 0.16749 0.89645 0.0
H441 H 0.06628 0.1863 0.91891 0.0
H442 H 0.99185 0.11696 0.86154 0.0
H443 H 0.0579 0.05823 0.88275 0.0
H444 H 0.09115 0.06747 0.86922 0.0
O445 O 0.0198 0.09797 0.8079 0.0
C446 C 0.97213 0.04193 0.7707 0.0
C447 C 0.06944 0.07384 0.83946 0.0
C448 C 0.05526 0.06373 0.86778 0.0
N449 N 0.03022 0.07374 0.83781 0.0
C450 C 0.04691 0.07513 0.82781 0.0
C451 C 0.03362 0.06654 0.8566 0.0
C452 C 0.07379 0.06848 0.85986 0.0
C453 C 0.919 0.0737 0.79024 0.0
N454 N 0.92573 0.06514 0.77169 0.0
C455 C 0.89444 0.05837 0.78651 0.0
C456 C 0.87677 0.03415 0.7636 0.0
C457 C 0.88384 0.02554 0.74481 0.0
C458 C 0.90858 0.04137 0.74925 0.0
C459 C 0.91344 0.08869 0.71253 0.0
C460 C 0.95216 0.07544 0.72575 0.0
C461 C 0.92459 0.08975 0.73658 0.0
N462 N 0.94379 0.0833 0.743 0.0
C463 C 0.94148 0.07416 0.70151 0.0
C464 C 0.92205 0.08091 0.69494 0.0
C465 C 0.01612 0.10835 0.79348 0.0
C466 C 0.02755 0.15288 0.89138 0.0
C467 C 0.05066 0.1318 0.86638 0.0
C468 C 0.06619 0.15655 0.88891 0.0
C469 C 0.0545 0.16711 0.90148 0.0
N470 N 0.0243 0.11767 0.85686 0.0
C471 C 0.0127 0.12799 0.86905 0.0
Co472 Co 0.17572 0.01667 0.1268 0.0
Co473 Co 0.12855 0.98945 0.06252 0.0
O474 O 0.14007 0.99145 0.09674 0.0
C475 C 0.16638 0.96368 0.1209 0.0
O476 O 0.14498 0.95035 0.09792 0.0
C477 C 0.09225 0.00388 0.07715 0.0
O478 O 0.11166 0.02211 0.10085 0.0
O479 O 0.14693 0.02859 0.07952 0.0
O480 O 0.17091 0.04518 0.12295 0.0
H481 H 0.11661 0.0326 0.00976 0.0
H482 H 0.13247 0.97936 0.12913 0.0
O483 O 0.18083 0.98843 0.13187 0.0
H484 H 0.16682 0.06693 0.202 0.0
H485 H 0.25355 0.05132 0.21401 0.0
H486 H 0.22142 0.06199 0.13692 0.0
H487 H 0.18525 0.06155 0.17255 0.0
H488 H 0.20683 0.02465 0.18011 0.0
O489 O 0.09587 0.98944 0.06048 0.0
H490 H 0.11239 0.02108 0.04234 0.0
H491 H 0.11933 0.95437 0.00712 0.0
H492 H 0.26851 0.08844 0.16981 0.0
H493 H 0.11335 0.98391 0.15791 0.0
H494 H 0.28489 0.08327 0.20878 0.0
H495 H 0.13071 0.02791 0.19489 0.0
O496 O 0.19226 0.01519 0.10426 0.0
H497 H 0.05886 0.90539 0.04334 0.0
H498 H 0.13643 0.94383 0.03519 0.0
H499 H 0.10881 0.89658 0.01225 0.0
H500 H 0.06821 0.87705 0.0139 0.0
H501 H 0.0866 0.95291 0.06541 0.0
H502 H 0.11744 0.96204 0.97129 0.0
H503 H 0.11834 0.00256 0.97311 0.0
O504 O 0.1605 0.98967 0.06278 0.0
C505 C 0.15959 0.04722 0.10316 0.0
C506 C 0.11602 0.01468 0.00843 0.0
C507 C 0.11683 0.97535 0.98717 0.0
N508 N 0.11722 0.98779 0.02831 0.0
C509 C 0.11421 0.00825 0.02732 0.0
C510 C 0.11734 0.97078 0.00772 0.0
C511 C 0.11723 0.99802 0.98811 0.0
C512 C 0.14034 0.99856 0.14522 0.0
N513 N 0.1607 0.02002 0.14967 0.0
C514 C 0.12932 0.00102 0.16143 0.0
C515 C 0.13902 0.02571 0.18214 0.0
C516 C 0.15931 0.0476 0.18616 0.0
C517 C 0.16977 0.04439 0.16949 0.0
C518 C 0.24664 0.05388 0.19718 0.0
C519 C 0.22829 0.05975 0.15388 0.0
C520 C 0.22011 0.03886 0.17793 0.0
N521 N 0.2112 0.04169 0.15642 0.0
C522 C 0.25503 0.07475 0.17245 0.0
C523 C 0.26422 0.07179 0.19425 0.0
C524 C 0.18428 0.00663 0.07997 0.0
C525 C 0.07534 0.91377 0.04068 0.0
C526 C 0.11866 0.93587 0.03594 0.0
C527 C 0.10352 0.90878 0.02349 0.0
C528 C 0.08107 0.89778 0.0249 0.0
N529 N 0.11034 0.95151 0.04756 0.0
C530 C 0.09062 0.94079 0.05232 0.0
Co531 Co 0.22229 0.13591 0.35982 0.0
Co532 Co 0.26996 0.1444 0.34302 0.0
O533 O 0.25467 0.13582 0.3637 0.0
C534 C 0.25929 0.16405 0.41707 0.0
O535 O 0.27853 0.17685 0.41416 0.0
C536 C 0.27053 0.09598 0.33718 0.0
O537 O 0.24606 0.08558 0.33192 0.0
O538 O 0.23649 0.11521 0.31024 0.0
O539 O 0.20782 0.12246 0.32139 0.0
H540 H 0.26949 0.15929 0.26874 0.0
H541 H 0.24141 0.10608 0.38172 0.0
O542 O 0.23607 0.14843 0.3978 0.0
H543 H 0.1486 0.04298 0.31425 0.0
H544 H 0.15047 0.12684 0.38241 0.0
H545 H 0.18498 0.1467 0.32685 0.0
H546 H 0.16935 0.08811 0.32224 0.0
H547 H 0.19004 0.12497 0.38524 0.0
O548 O 0.2831 0.11956 0.34276 0.0
H549 H 0.25107 0.1492 0.29585 0.0
H550 H 0.32129 0.15539 0.34519 0.0
H551 H 0.14572 0.14928 0.32378 0.0
H552 H 0.22166 0.06084 0.37381 0.0
H553 H 0.12813 0.13932 0.35171 0.0
H554 H 0.17486 0.02895 0.33989 0.0
O555 O 0.23785 0.17272 0.36688 0.0
H556 H 0.34418 0.18252 0.43332 0.0
H557 H 0.30522 0.2014 0.36405 0.0
H558 H 0.34511 0.2372 0.40588 0.0
H559 H 0.36486 0.22785 0.44087 0.0
H560 H 0.30399 0.14746 0.39145 0.0
H561 H 0.3406 0.16536 0.31871 0.0
H562 H 0.31468 0.16752 0.28025 0.0
O563 O 0.25727 0.1698 0.34255 0.0
C564 C 0.21337 0.11101 0.30469 0.0
C565 C 0.28107 0.15862 0.28557 0.0
C566 C 0.32095 0.16198 0.31358 0.0
N567 N 0.28519 0.15225 0.32226 0.0
C568 C 0.27074 0.15306 0.30099 0.0
C569 C 0.30992 0.15633 0.32851 0.0
C570 C 0.3064 0.16319 0.29201 0.0
C571 C 0.2211 0.09234 0.36693 0.0
N572 N 0.20659 0.09989 0.35265 0.0
C573 C 0.21 0.06672 0.3625 0.0
C574 C 0.18376 0.04882 0.34345 0.0
C575 C 0.16903 0.05666 0.32902 0.0
C576 C 0.1809 0.08232 0.33374 0.0
C577 C 0.15812 0.13153 0.37036 0.0
C578 C 0.17776 0.14265 0.33933 0.0
C579 C 0.18068 0.13071 0.37201 0.0
N580 N 0.19043 0.13651 0.35679 0.0
C581 C 0.15539 0.14404 0.33742 0.0
C582 C 0.14555 0.13846 0.35309 0.0
C583 C 0.24807 0.1813 0.35479 0.0
C584 C 0.3358 0.18684 0.4182 0.0
C585 C 0.31357 0.19721 0.37923 0.0
C586 C 0.33625 0.21754 0.40284 0.0
C587 C 0.34735 0.21227 0.42245 0.0
N588 N 0.30222 0.17236 0.3753 0.0
C589 C 0.31313 0.16701 0.39436 0.0
Co590 Co 0.19871 0.70063 0.72053 0.0
Co591 Co 0.24746 0.70447 0.70395 0.0
O592 O 0.23593 0.7164 0.72935 0.0
C593 C 0.21502 0.75527 0.73935 0.0
O594 O 0.22631 0.7535 0.72508 0.0
C595 C 0.29227 0.72803 0.75767 0.0
O596 O 0.27815 0.72582 0.7692 0.0
O597 O 0.22697 0.66661 0.69479 0.0
O598 O 0.19196 0.66535 0.69832 0.0
H599 H 0.22955 0.64697 0.61385 0.0
H600 H 0.23924 0.73587 0.77669 0.0
O601 O 0.20364 0.73569 0.74144 0.0
H602 H 0.19077 0.65031 0.76848 0.0
H603 H 0.12424 0.6903 0.73905 0.0
H604 H 0.1481 0.65948 0.67177 0.0
H605 H 0.17898 0.65598 0.72972 0.0
H606 H 0.17069 0.70896 0.75042 0.0
O607 O 0.28134 0.71249 0.73298 0.0
H608 H 0.21826 0.66599 0.6465 0.0
H609 H 0.29904 0.71285 0.70495 0.0
H610 H 0.10156 0.64014 0.6596 0.0
H611 H 0.25162 0.73116 0.81607 0.0
H612 H 0.08931 0.65561 0.69337 0.0
H613 H 0.22725 0.68813 0.81208 0.0
O614 O 0.18808 0.70462 0.68894 0.0
H615 H 0.29443 0.80386 0.75563 0.0
H616 H 0.25504 0.72639 0.66972 0.0
H617 H 0.27512 0.77017 0.6751 0.0
H618 H 0.29515 0.80949 0.71831 0.0
H619 H 0.27445 0.75971 0.74965 0.0
H620 H 0.31098 0.69471 0.67269 0.0
H621 H 0.27621 0.6613 0.62662 0.0
O622 O 0.21637 0.69894 0.67629 0.0
C623 C 0.20308 0.65398 0.6894 0.0
C624 C 0.24494 0.66169 0.63382 0.0
C625 C 0.29056 0.68841 0.66682 0.0
N626 N 0.25783 0.69112 0.67813 0.0
C627 C 0.2387 0.67272 0.65263 0.0
C628 C 0.28356 0.69882 0.68518 0.0
C629 C 0.27108 0.66967 0.64099 0.0
C630 C 0.22858 0.71711 0.77486 0.0
N631 N 0.20849 0.69623 0.75099 0.0
C632 C 0.23568 0.71454 0.79719 0.0
C633 C 0.22202 0.69038 0.79493 0.0
C634 C 0.20157 0.66914 0.77047 0.0
C635 C 0.19507 0.67243 0.74857 0.0
C636 C 0.12934 0.68337 0.72418 0.0
C637 C 0.14303 0.66618 0.68663 0.0
C638 C 0.1556 0.69389 0.73049 0.0
N639 N 0.16218 0.68521 0.71181 0.0
C640 C 0.11659 0.6552 0.6796 0.0
C641 C 0.10974 0.6639 0.69854 0.0
C642 C 0.19676 0.7021 0.67303 0.0
C643 C 0.28631 0.78691 0.73684 0.0
C644 C 0.26456 0.74315 0.68897 0.0
C645 C 0.27556 0.76805 0.69173 0.0
C646 C 0.28666 0.79007 0.71591 0.0
N647 N 0.26504 0.74004 0.70981 0.0
C648 C 0.27518 0.76167 0.73336 0.0
Co649 Co 0.44837 0.98272 0.03642 0.0
Co650 Co 0.43915 -0.00038 0.98802 0.0
O651 O 0.43539 0.99895 0.0174 0.0
C652 C 0.39199 0.95269 0.01138 0.0
O653 O 0.39247 0.95248 0.99052 0.0
C654 C 0.46491 0.05666 0.00653 0.0
O655 O 0.48424 0.05482 0.00361 0.0
O656 O 0.47717 0.01125 0.00761 0.0
O657 O 0.48285 0.99882 0.03825 0.0
H658 H 0.46872 0.98109 0.92144 0.0
H659 H 0.42372 0.01261 0.05471 0.0
O660 O 0.41323 0.96516 0.03323 0.0
H661 H 0.51451 0.05896 0.12771 0.0
H662 H 0.45772 0.95349 0.10336 0.0
H663 H 0.48009 0.95628 0.03532 0.0
H664 H 0.49873 0.01915 0.08701 0.0
H665 H 0.4428 0.9744 0.07893 0.0
O666 O 0.44631 0.03677 0.00301 0.0
H667 H 0.46264 0.9789 0.95781 0.0
H668 H 0.42225 0.02161 0.95391 0.0
H669 H 0.49559 0.93539 0.05939 0.0
H670 H 0.4386 0.0522 0.09511 0.0
H671 H 0.48437 0.93385 0.09367 0.0
H672 H 0.48432 0.07569 0.13194 0.0
O673 O 0.43686 0.95093 0.00369 0.0
H674 H 0.35495 0.9984 0.97661 0.0
H675 H 0.39554 0.95724 0.93419 0.0
H676 H 0.34792 0.94008 0.90983 0.0
H677 H 0.3273 0.96069 0.93105 0.0
H678 H 0.40252 0.01484 0.00037 0.0
H679 H 0.42796 0.02434 0.91753 0.0
H680 H 0.45147 0.00411 0.90113 0.0
O681 O 0.4319 0.96278 0.97293 0.0
C682 C 0.49091 0.00748 0.02492 0.0
C683 C 0.45866 0.99021 0.92857 0.0
C684 C 0.43579 0.01447 0.92637 0.0
N685 N 0.44281 0.00078 0.95858 0.0
C686 C 0.45527 0.98915 0.94928 0.0
C687 C 0.43274 0.01297 0.94708 0.0
C688 C 0.44895 0.00309 0.91717 0.0
C689 C 0.44358 0.02261 0.07074 0.0
N690 N 0.46031 0.01354 0.06858 0.0
C691 C 0.45192 0.04507 0.09353 0.0
C692 C 0.47758 0.05825 0.11417 0.0
C693 C 0.49454 0.04888 0.1118 0.0
C694 C 0.48552 0.02638 0.0887 0.0
C695 C 0.46282 0.95412 0.08854 0.0
C696 C 0.47538 0.95597 0.0504 0.0
C697 C 0.45442 0.96592 0.07464 0.0
N698 N 0.46086 0.96686 0.05596 0.0
C699 C 0.4841 0.94399 0.06389 0.0
C700 C 0.47777 0.94311 0.08309 0.0
C701 C 0.432 0.94625 0.9806 0.0
C702 C 0.36373 0.98932 0.96712 0.0
C703 C 0.38675 0.96635 0.94358 0.0
C704 C 0.35976 0.95655 0.92966 0.0
C705 C 0.34821 0.96813 0.94157 0.0
N706 N 0.40187 0.98716 0.96864 0.0
C707 C 0.39068 0.99863 0.98044 0.0
Co708 Co 0.27101 0.89579 0.35703 0.0
Co709 Co 0.256 0.92955 0.40295 0.0
O710 O 0.25193 0.91364 0.36734 0.0
C711 C 0.2802 0.93558 0.33997 0.0
O712 O 0.28495 0.95296 0.36239 0.0
C713 C 0.19641 0.90773 0.36881 0.0
O714 O 0.19459 0.89914 0.34565 0.0
O715 O 0.24958 0.89629 0.40461 0.0
O716 O 0.26146 0.87796 0.37675 0.0
H717 H 0.29196 0.95143 0.49717 0.0
H718 H 0.2303 0.89631 0.31687 0.0
O719 O 0.27746 0.91332 0.33645 0.0
H720 H 0.18901 0.80488 0.29714 0.0
H721 H 0.27857 0.82166 0.29045 0.0
H722 H 0.33288 0.8665 0.38034 0.0
H723 H 0.23406 0.83627 0.33292 0.0
H724 H 0.25954 0.86807 0.30344 0.0
O725 O 0.21798 0.91788 0.38956 0.0
H726 H 0.28488 0.93083 0.45235 0.0
H727 H 0.23669 0.96241 0.42879 0.0
H728 H 0.32923 0.82658 0.34579 0.0
H729 H 0.18545 0.86533 0.28066 0.0
H730 H 0.30444 0.82419 0.3186 0.0
H731 H 0.16415 0.81957 0.271 0.0
O732 O 0.30436 0.92717 0.38869 0.0
H733 H 0.23843 0.98241 0.36023 0.0
H734 H 0.29525 0.98578 0.43937 0.0
H735 H 0.30406 0.02705 0.43849 0.0
H736 H 0.27537 0.02542 0.39858 0.0
H737 H 0.23086 0.94213 0.36222 0.0
H738 H 0.24325 0.98331 0.47336 0.0
H739 H 0.27131 0.97811 0.508 0.0
O740 O 0.29399 0.94259 0.41929 0.0
C741 C 0.25325 0.87793 0.39286 0.0
C742 C 0.27993 0.95406 0.48231 0.0
C743 C 0.25253 0.97188 0.46893 0.0
N744 N 0.26072 0.94569 0.43799 0.0
C745 C 0.2759 0.94249 0.45689 0.0
C746 C 0.24884 0.95994 0.4437 0.0
C747 C 0.26827 0.96896 0.48836 0.0
C748 C 0.22207 0.87611 0.31212 0.0
N749 N 0.23613 0.86823 0.32655 0.0
C750 C 0.19629 0.85868 0.2917 0.0
C751 C 0.18436 0.83292 0.28622 0.0
C752 C 0.19834 0.82482 0.30098 0.0
C753 C 0.22422 0.84285 0.32129 0.0
C754 C 0.27027 0.83369 0.29068 0.0
C755 C 0.31907 0.86052 0.36034 0.0
C756 C 0.27161 0.86116 0.31216 0.0
N757 N 0.29079 0.87576 0.34423 0.0
C758 C 0.31496 0.83292 0.33534 0.0
C759 C 0.29 0.81979 0.30085 0.0
C760 C 0.3106 0.94265 0.41193 0.0
C761 C 0.25087 0.98345 0.3779 0.0
C762 C 0.28275 0.98516 0.42225 0.0
C763 C 0.28778 0.00846 0.42172 0.0
C764 C 0.27166 0.00755 0.39935 0.0
N765 N 0.26207 0.96163 0.40142 0.0
C766 C 0.24642 0.96061 0.37928 0.0
Co767 Co 0.18862 0.12002 0.61851 0.0
Co768 Co 0.15341 0.06388 0.61844 0.0
O769 O 0.17178 0.0818 0.60398 0.0
C770 C 0.15761 0.09515 0.5602 0.0
O771 O 0.14469 0.07278 0.55852 0.0
C772 C 0.18157 0.03579 0.60106 0.0
O773 O 0.18245 0.04374 0.58425 0.0
O774 O 0.18489 0.08676 0.65354 0.0
O775 O 0.20373 0.12493 0.65452 0.0
H776 H 0.07778 0.03204 0.63316 0.0
H777 H 0.19921 0.08884 0.57946 0.0
O778 O 0.17451 0.11575 0.5825 0.0
H779 H 0.28599 0.15672 0.65708 0.0
H780 H 0.236 0.20677 0.6242 0.0
H781 H 0.19563 0.16272 0.66416 0.0
H782 H 0.24566 0.15348 0.65725 0.0
H783 H 0.21631 0.15878 0.60519 0.0
O784 O 0.16861 0.03984 0.6127 0.0
H785 H 0.09941 0.04483 0.60977 0.0
H786 H 0.16806 0.04848 0.6595 0.0
H787 H 0.21533 0.21062 0.68392 0.0
H788 H 0.23906 0.09229 0.57793 0.0
H789 H 0.23567 0.233 0.66389 0.0
H790 H 0.2829 0.12624 0.61705 0.0
O791 O 0.15719 0.12034 0.61883 0.0
H792 H 0.08473 0.97477 0.54048 0.0
H793 H 0.11419 0.06918 0.57926 0.0
H794 H 0.07401 0.03793 0.53629 0.0
H795 H 0.05925 0.99018 0.51655 0.0
H796 H 0.12405 0.00635 0.5836 0.0
H797 H 0.14733 0.03811 0.68484 0.0
H798 H 0.10209 0.02938 0.67156 0.0
O799 O 0.14086 0.08965 0.6286 0.0
C800 C 0.20249 0.11049 0.66501 0.0
C801 C 0.0975 0.03538 0.63893 0.0
C802 C 0.13659 0.03856 0.6678 0.0
N803 N 0.13495 0.04686 0.63276 0.0
C804 C 0.10979 0.04207 0.62535 0.0
C805 C 0.14814 0.04447 0.65334 0.0
C806 C 0.11123 0.03405 0.66058 0.0
C807 C 0.21812 0.10388 0.59643 0.0
N808 N 0.21999 0.121 0.61834 0.0
C809 C 0.24068 0.1057 0.59549 0.0
C810 C 0.26527 0.12476 0.61744 0.0
C811 C 0.26702 0.14182 0.6399 0.0
C812 C 0.24406 0.13973 0.63994 0.0
C813 C 0.2272 0.19722 0.6331 0.0
C814 C 0.2046 0.17225 0.65538 0.0
C815 C 0.21595 0.17004 0.62236 0.0
N816 N 0.20491 0.1579 0.63358 0.0
C817 C 0.21565 0.19942 0.66665 0.0
C818 C 0.22703 0.21195 0.65539 0.0
C819 C 0.14381 0.11062 0.628 0.0
C820 C 0.09127 0.99551 0.5487 0.0
C821 C 0.10805 0.04861 0.57085 0.0
C822 C 0.08521 0.03095 0.54642 0.0
C823 C 0.07691 0.00424 0.53531 0.0
N824 N 0.12239 0.03997 0.58367 0.0
C825 C 0.1139 0.01368 0.57302 0.0
Co826 Co 0.16727 0.98729 0.736 0.0
Co827 Co 0.20773 0.05569 0.75237 0.0
O828 O 0.19176 0.01563 0.73303 0.0
C829 C 0.20916 0.9727 0.739 0.0
O830 O 0.21653 0.98385 0.72641 0.0
C831 C 0.20143 0.03795 0.69968 0.0
O832 O 0.17677 0.02244 0.69105 0.0
O833 O 0.17652 0.02044 0.73004 0.0
O834 O 0.13965 0.99662 0.72494 0.0
H835 H 0.22559 0.14609 0.8056 0.0
H836 H 0.18339 0.98056 0.69359 0.0
O837 O 0.19399 0.97663 0.74725 0.0
H838 H 0.09053 0.91561 0.64779 0.0
H839 H 0.12809 0.8995 0.73054 0.0
H840 H 0.13296 0.9854 0.75923 0.0
H841 H 0.11325 0.9448 0.69463 0.0
H842 H 0.15319 0.93165 0.72133 0.0
O843 O 0.217 0.05447 0.72404 0.0
H844 H 0.2054 0.09874 0.78871 0.0
H845 H 0.2564 0.0946 0.75834 0.0
H846 H 0.11159 0.95552 0.77252 0.0
H847 H 0.16216 0.94901 0.64722 0.0
H848 H 0.10775 0.91169 0.75706 0.0
H849 H 0.1148 0.91609 0.6233 0.0
O850 O 0.18274 0.01397 0.77408 0.0
H851 H 0.27636 0.02821 0.76056 0.0
H852 H 0.24303 0.07505 0.80864 0.0
H853 H 0.27997 0.07074 0.83283 0.0
H854 H 0.29686 0.04704 0.80882 0.0
H855 H 0.23891 0.03209 0.73695 0.0
H856 H 0.27492 0.14144 0.77211 0.0
H857 H 0.25928 0.16751 0.79575 0.0
O858 O 0.19672 0.05502 0.77913 0.0
C859 C 0.15265 0.01647 0.72465 0.0
C860 C 0.23246 0.13492 0.79525 0.0
C861 C 0.26005 0.13225 0.77636 0.0
N862 N 0.22947 0.09364 0.77235 0.0
C863 C 0.22151 0.10808 0.78616 0.0
C864 C 0.24941 0.10567 0.76853 0.0
C865 C 0.25135 0.14688 0.78968 0.0
C866 C 0.16404 0.96454 0.6847 0.0
N867 N 0.15115 0.96223 0.69851 0.0
C868 C 0.15154 0.94735 0.65775 0.0
C869 C 0.12499 0.92901 0.6443 0.0
C870 C 0.11137 0.92835 0.65792 0.0
C871 C 0.12469 0.94505 0.68491 0.0
C872 C 0.12961 0.91853 0.73742 0.0
C873 C 0.13257 0.96691 0.75357 0.0
C874 C 0.14362 0.93679 0.73215 0.0
N875 N 0.14503 0.96073 0.74035 0.0
C876 C 0.11988 0.9498 0.76061 0.0
C877 C 0.11805 0.92531 0.75216 0.0
C878 C 0.18818 0.03803 0.78592 0.0
C879 C 0.26889 0.03819 0.77122 0.0
C880 C 0.24953 0.06392 0.79777 0.0
C881 C 0.27082 0.06192 0.81172 0.0
C882 C 0.28038 0.04875 0.79827 0.0
N883 N 0.23749 0.05246 0.77103 0.0
C884 C 0.24755 0.04047 0.75792 0.0
Co885 Co 0.08867 0.77335 0.96121 0.0
Co886 Co 0.0889 0.82654 0.00167 0.0
O887 O 0.09407 0.80917 0.97349 0.0
C888 C 0.14148 0.80805 0.97703 0.0
O889 O 0.14116 0.82058 0.99829 0.0
C890 C 0.05406 0.83733 0.96389 0.0
O891 O 0.03433 0.81331 0.95136 0.0
O892 O 0.05313 0.79586 0.98158 0.0
O893 O 0.05807 0.76097 0.96773 0.0
H894 H 0.10315 0.87501 0.09407 0.0
H895 H 0.09265 0.79834 0.92869 0.0
O896 O 0.12091 0.7866 0.95775 0.0
H897 H 0.00659 0.71713 0.87298 0.0
H898 H 0.09009 0.69572 0.90363 0.0
H899 H 0.07529 0.73266 0.97691 0.0
H900 H 0.03571 0.72923 0.91819 0.0
H901 H 0.09386 0.73943 0.91907 0.0
O902 O 0.07585 0.84458 0.98315 0.0
H903 H 0.11673 0.85832 0.06335 0.0
H904 H 0.0415 0.82761 0.99933 0.0
H905 H 0.07111 0.68893 0.962 0.0
H906 H 0.06403 0.78714 0.88367 0.0
H907 H 0.07858 0.67016 0.92513 0.0
H908 H 0.02063 0.74621 0.85546 0.0
O909 O 0.11108 0.78147 0.99676 0.0
H910 H 0.16089 0.90141 0.00926 0.0
H911 H 0.14184 0.84957 0.05148 0.0
H912 H 0.18496 0.88799 0.07394 0.0
H913 H 0.19494 0.91491 0.05331 0.0
H914 H 0.11749 0.86309 0.98764 0.0
H915 H 0.02676 0.84276 0.02993 0.0
H916 H 0.05765 0.8671 0.07784 0.0
O917 O 0.10238 0.80923 0.02096 0.0
C918 C 0.04715 0.77266 0.97693 0.0
C919 C 0.08964 0.86491 0.0732 0.0
C920 C 0.04679 0.8467 0.03733 0.0
N921 N 0.08079 0.8429 0.02872 0.0
C922 C 0.09756 0.85577 0.05525 0.0
C923 C 0.05545 0.83806 0.01998 0.0
C924 C 0.0641 0.86035 0.06414 0.0
C925 C 0.07378 0.78052 0.91652 0.0
N926 N 0.06585 0.76438 0.92595 0.0
C927 C 0.05766 0.77429 0.89106 0.0
C928 C 0.0333 0.75134 0.87525 0.0
C929 C 0.02536 0.73504 0.88508 0.0
C930 C 0.04192 0.74199 0.91069 0.0
C931 C 0.08668 0.70364 0.91964 0.0
C932 C 0.07826 0.72457 0.96064 0.0
C933 C 0.08881 0.72837 0.92846 0.0
N934 N 0.08449 0.73848 0.94863 0.0
C935 C 0.07599 0.6998 0.95237 0.0
C936 C 0.08023 0.68931 0.93171 0.0
C937 C 0.11153 0.79355 0.01788 0.0
C938 C 0.15639 0.89081 0.01922 0.0
C939 C 0.14473 0.86179 0.04281 0.0
C940 C 0.16985 0.88332 0.05548 0.0
C941 C 0.17552 0.89828 0.04382 0.0
N942 N 0.12498 0.85615 0.01993 0.0
C943 C 0.13145 0.86923 0.00728 0.0
Co944 Co 0.11868 0.17666 0.01501 0.0
Co945 Co 0.06331 0.12314 0.99866 0.0
O946 O 0.09424 0.13807 0.99464 0.0
C947 C 0.11378 0.16035 0.96114 0.0
O948 O 0.09563 0.136 0.95086 0.0
C949 C 0.08259 0.0848 0.99695 0.0
O950 O 0.10636 0.103 0.0055 0.0
O951 O 0.08725 0.13838 0.03648 0.0
O952 O 0.11558 0.17823 0.04618 0.0
H953 H 0.02729 0.12431 0.05776 0.0
H954 H 0.13523 0.14096 0.98911 0.0
O955 O 0.12336 0.17713 0.98498 0.0
H956 H 0.20608 0.19792 0.08134 0.0
H957 H 0.19869 0.2613 0.04743 0.0
H958 H 0.11941 0.22117 0.05287 0.0
H959 H 0.16488 0.19899 0.06711 0.0
H960 H 0.1687 0.21344 0.02104 0.0
O961 O 0.06375 0.08961 0.99253 0.0
H962 H 0.05383 0.11273 0.03997 0.0
H963 H 0.00261 0.09926 0.96627 0.0
H964 H 0.14898 0.26897 0.07973 0.0
H965 H 0.17646 0.13982 0.00231 0.0
H966 H 0.18902 0.28939 0.07718 0.0
H967 H 0.21294 0.1699 0.04815 0.0
O968 O 0.08951 0.18391 0.00285 0.0
H969 H 0.03814 0.0705 0.90563 0.0
H970 H 0.02672 0.13542 0.96367 0.0
H971 H 0.01497 0.12879 0.92014 0.0
H972 H 0.02226 0.09775 0.89113 0.0
H973 H 0.05289 0.07982 0.95009 0.0
H974 H 0.97591 0.11104 0.98334 0.0
H975 H 0.98983 0.12679 0.03037 0.0
O976 O 0.06076 0.15539 0.00684 0.0
C977 C 0.10573 0.16183 0.0527 0.0
C978 C 0.02231 0.11972 0.03785 0.0
C979 C 0.99352 0.11228 0.99615 0.0
N980 N 0.03278 0.10994 0.0033 0.0
C981 C 0.03739 0.11321 0.02753 0.0
C982 C 0.00923 0.10608 0.98668 0.0
C983 C 0.00123 0.12094 0.02245 0.0
C984 C 0.1507 0.15356 0.00928 0.0
N985 N 0.14798 0.17074 0.02704 0.0
C986 C 0.17399 0.15275 0.01667 0.0
C987 C 0.19434 0.16936 0.04255 0.0
C988 C 0.19063 0.1853 0.06104 0.0
C989 C 0.1671 0.18564 0.05289 0.0
C990 C 0.18131 0.25263 0.04871 0.0
C991 C 0.1368 0.22981 0.05164 0.0
C992 C 0.16417 0.22554 0.03371 0.0
N993 N 0.14232 0.21442 0.03543 0.0
C994 C 0.15346 0.25695 0.06689 0.0
C995 C 0.17589 0.26838 0.06542 0.0
C996 C 0.06896 0.17549 0.00444 0.0
C997 C 0.0361 0.08524 0.91843 0.0
C998 C 0.03065 0.12203 0.95188 0.0
C999 C 0.0234 0.11807 0.92673 0.0
C1000 C 0.02703 0.1002 0.91026 0.0
N1001 N 0.0419 0.10907 0.96094 0.0
C1002 C 0.04381 0.09019 0.94396 0.0
Co1003 Co 0.71014 0.19812 0.69643 0.0
Co1004 Co 0.70224 0.25286 0.70763 0.0
O1005 O 0.72227 0.23562 0.71574 0.0
C1006 C 0.72097 0.20902 0.74866 0.0
O1007 O 0.70694 0.22054 0.74599 0.0
C1008 C 0.75933 0.29283 0.73487 0.0
O1009 O 0.76756 0.27586 0.7311 0.0
O1010 O 0.6921 0.23371 0.66905 0.0
O1011 O 0.69364 0.19644 0.66239 0.0
H1012 H 0.62841 0.26038 0.651 0.0
H1013 H 0.76622 0.23346 0.73793 0.0
O1014 O 0.72518 0.19869 0.73035 0.0
H1015 H 0.76689 0.19442 0.65543 0.0
H1016 H 0.72054 0.11876 0.68139 0.0
H1017 H 0.66146 0.15085 0.6492 0.0
H1018 H 0.72506 0.18238 0.65552 0.0
H1019 H 0.73448 0.16574 0.70419 0.0
O1020 O 0.73556 0.28535 0.71893 0.0
H1021 H 0.65291 0.23853 0.66174 0.0
H1022 H 0.7104 0.30679 0.73501 0.0
H1023 H 0.64679 0.10372 0.6257 0.0
H1024 H 0.80851 0.24588 0.73877 0.0
H1025 H 0.67643 0.08739 0.64181 0.0
H1026 H 0.80901 0.22639 0.69728 0.0
O1027 O 0.67568 0.1883 0.69533 0.0
H1028 H 0.75414 0.29233 0.80641 0.0
H1029 H 0.66984 0.26196 0.73143 0.0
H1030 H 0.67628 0.28096 0.7759 0.0
H1031 H 0.71895 0.297 0.81398 0.0
H1032 H 0.74637 0.27196 0.7616 0.0
H1033 H 0.68714 0.33014 0.72494 0.0
H1034 H 0.64551 0.3068 0.68275 0.0
O1035 O 0.67006 0.22291 0.69829 0.0
C1036 C 0.68531 0.20966 0.65402 0.0
C1037 C 0.64639 0.27075 0.66959 0.0
C1038 C 0.67938 0.30987 0.71095 0.0
N1039 N 0.68288 0.27079 0.69926 0.0
C1040 C 0.66024 0.25817 0.67589 0.0
C1041 C 0.69265 0.29658 0.71647 0.0
C1042 C 0.65602 0.29678 0.68734 0.0
C1043 C 0.76628 0.22472 0.71982 0.0
N1044 N 0.7432 0.20729 0.6967 0.0
C1045 C 0.79029 0.23191 0.72041 0.0
C1046 C 0.79055 0.221 0.69712 0.0
C1047 C 0.76693 0.2031 0.67363 0.0
C1048 C 0.7433 0.19644 0.67379 0.0
C1049 C 0.70745 0.12563 0.67417 0.0
C1050 C 0.67451 0.14394 0.65627 0.0
C1051 C 0.71522 0.15221 0.68702 0.0
N1052 N 0.69885 0.16108 0.67797 0.0
C1053 C 0.66608 0.1172 0.6429 0.0
C1054 C 0.68271 0.10805 0.65195 0.0
C1055 C 0.66241 0.20006 0.69554 0.0
C1056 C 0.73581 0.28634 0.79009 0.0
C1057 C 0.68869 0.26924 0.74778 0.0
C1058 C 0.69212 0.27984 0.773 0.0
C1059 C 0.716 0.28876 0.79432 0.0
N1060 N 0.70869 0.26819 0.74374 0.0
C1061 C 0.73157 0.27547 0.76454 0.0
Co1062 Co 0.13034 0.36229 0.22609 0.0
Co1063 Co 0.13932 0.3452 0.27367 0.0
O1064 O 0.13081 0.36606 0.25862 0.0
C1065 C 0.16079 0.41992 0.26294 0.0
O1066 O 0.1744 0.41729 0.28203 0.0
C1067 C 0.09012 0.33833 0.27324 0.0
O1068 O 0.0788 0.32902 0.24781 0.0
O1069 O 0.11071 0.31234 0.24022 0.0
O1070 O 0.11594 0.32359 0.21086 0.0
H1071 H 0.15683 0.27216 0.27282 0.0
H1072 H 0.10231 0.38611 0.2465 0.0
O1073 O 0.14365 0.40036 0.24024 0.0
H1074 H 0.0363 0.31672 0.15493 0.0
H1075 H 0.11982 0.38567 0.15478 0.0
H1076 H 0.14294 0.33143 0.18942 0.0
H1077 H 0.08164 0.32494 0.17403 0.0
H1078 H 0.11744 0.38708 0.19377 0.0
O1079 O 0.11409 0.34525 0.28662 0.0
H1080 H 0.14674 0.29952 0.25496 0.0
H1081 H 0.14793 0.34509 0.32369 0.0
H1082 H 0.14694 0.33051 0.15116 0.0
H1083 H 0.05707 0.37845 0.22822 0.0
H1084 H 0.1348 0.35731 0.13325 0.0
H1085 H 0.02371 0.34353 0.18211 0.0
O1086 O 0.16688 0.36857 0.2408 0.0
H1087 H 0.17786 0.4357 0.34788 0.0
H1088 H 0.19573 0.36529 0.30969 0.0
H1089 H 0.23154 0.40669 0.35003 0.0
H1090 H 0.2227 0.44225 0.36942 0.0
H1091 H 0.14275 0.39417 0.30727 0.0
H1092 H 0.15789 0.3181 0.34231 0.0
H1093 H 0.16252 0.28143 0.31685 0.0
O1094 O 0.16502 0.34525 0.26135 0.0
C1095 C 0.10585 0.30677 0.21696 0.0
C1096 C 0.15498 0.28815 0.28417 0.0
C1097 C 0.15552 0.31392 0.32314 0.0
N1098 N 0.14705 0.32405 0.2884 0.0
C1099 C 0.14934 0.30376 0.27418 0.0
C1100 C 0.14985 0.32911 0.3125 0.0
C1101 C 0.15813 0.29335 0.30885 0.0
C1102 C 0.0879 0.37088 0.22644 0.0
N1103 N 0.09463 0.35598 0.2114 0.0
C1104 C 0.06231 0.36663 0.21618 0.0
C1105 C 0.0436 0.34704 0.19031 0.0
C1106 C 0.05064 0.332 0.17505 0.0
C1107 C 0.07637 0.33676 0.18599 0.0
C1108 C 0.12512 0.37383 0.16235 0.0
C1109 C 0.13809 0.34352 0.18205 0.0
C1110 C 0.12389 0.37459 0.18451 0.0
N1111 N 0.13048 0.35964 0.19419 0.0
C1112 C 0.14012 0.34271 0.1602 0.0
C1113 C 0.13346 0.35789 0.15025 0.0
C1114 C 0.17606 0.35723 0.25172 0.0
C1115 C 0.18195 0.42033 0.33965 0.0
C1116 C 0.19176 0.38072 0.3179 0.0
C1117 C 0.21209 0.40408 0.34082 0.0
C1118 C 0.20711 0.42401 0.3517 0.0
N1119 N 0.16716 0.3773 0.30612 0.0
C1120 C 0.1621 0.39671 0.31675 0.0
Co1121 Co 0.76635 0.84141 0.49455 0.0
Co1122 Co 0.81203 0.80729 0.49053 0.0
O1123 O 0.78013 0.81332 0.49675 0.0
C1124 C 0.78359 0.87023 0.55056 0.0
O1125 O 0.79876 0.89061 0.55044 0.0
C1126 C 0.76847 0.74469 0.4589 0.0
O1127 O 0.7753 0.74811 0.48246 0.0
O1128 O 0.77909 0.78928 0.45221 0.0
O1129 O 0.76872 0.80971 0.47716 0.0
H1130 H 0.93636 0.85324 0.49307 0.0
H1131 H 0.73059 0.7876 0.48253 0.0
O1132 O 0.77025 0.84723 0.52996 0.0
H1133 H 0.67298 0.80984 0.43058 0.0
H1134 H 0.72478 0.89425 0.52374 0.0
H1135 H 0.78686 0.89105 0.49226 0.0
H1136 H 0.72028 0.83985 0.45746 0.0
H1137 H 0.73164 0.85626 0.51287 0.0
O1138 O 0.77804 0.76546 0.45638 0.0
H1139 H 0.87968 0.85945 0.50702 0.0
H1140 H 0.86008 0.7762 0.49928 0.0
H1141 H 0.78054 0.92915 0.5029 0.0
H1142 H 0.6829 0.75607 0.45542 0.0
H1143 H 0.74942 0.93113 0.51892 0.0
H1144 H 0.65368 0.76751 0.4296 0.0
O1145 O 0.80343 0.86631 0.51183 0.0
H1146 H 0.89488 0.80538 0.56997 0.0
H1147 H 0.88011 0.86807 0.54702 0.0
H1148 H 0.91436 0.8821 0.58595 0.0
H1149 H 0.92686 0.85296 0.59471 0.0
H1150 H 0.85409 0.78829 0.53311 0.0
H1151 H 0.90938 0.79916 0.49172 0.0
H1152 H 0.9371 0.80972 0.48709 0.0
O1153 O 0.80721 0.84165 0.48058 0.0
C1154 C 0.76399 0.79894 0.45262 0.0
C1155 C 0.92098 0.83999 0.49457 0.0
C1156 C 0.8955 0.7887 0.49335 0.0
N1157 N 0.86515 0.81716 0.50321 0.0
C1158 C 0.88386 0.84327 0.50321 0.0
C1159 C 0.87162 0.79303 0.49883 0.0
C1160 C 0.92004 0.81103 0.49097 0.0
C1161 C 0.71787 0.79303 0.47268 0.0
N1162 N 0.72829 0.81684 0.47446 0.0
C1163 C 0.69096 0.77497 0.4567 0.0
C1164 C 0.67454 0.78126 0.44199 0.0
C1165 C 0.68531 0.80499 0.44264 0.0
C1166 C 0.71231 0.82223 0.45848 0.0
C1167 C 0.73832 0.89358 0.51666 0.0
C1168 C 0.77304 0.89135 0.49889 0.0
C1169 C 0.74225 0.87206 0.51039 0.0
N1170 N 0.75953 0.87104 0.50163 0.0
C1171 C 0.76961 0.91317 0.505 0.0
C1172 C 0.75216 0.91427 0.514 0.0
C1173 C 0.8133 0.86491 0.49726 0.0
C1174 C 0.89067 0.81836 0.56379 0.0
C1175 C 0.88037 0.85171 0.54918 0.0
C1176 C 0.90211 0.8613 0.57248 0.0
C1177 C 0.90842 0.84463 0.57841 0.0
N1178 N 0.86177 0.82426 0.52995 0.0
C1179 C 0.86703 0.80907 0.54181 0.0
Co1180 Co 0.77621 0.96175 0.08714 0.0
Co1181 Co 0.82339 0.01109 0.08785 0.0
O1182 O 0.81126 0.98016 0.09181 0.0
C1183 C 0.81304 0.98048 0.14074 0.0
O1184 O 0.82334 0.00235 0.14052 0.0
C1185 C 0.83488 0.97443 0.05554 0.0
O1186 O 0.81227 0.95482 0.04778 0.0
O1187 O 0.79257 0.99157 0.05303 0.0
O1188 O 0.75955 0.96562 0.05567 0.0
H1189 H 0.82107 0.09041 0.08533 0.0
H1190 H 0.80902 0.93645 0.0917 0.0
O1191 O 0.79326 0.95984 0.11972 0.0
H1192 H 0.72794 0.87352 0.00611 0.0
H1193 H 0.7074 0.89652 0.09251 0.0
H1194 H 0.72991 0.96909 0.07369 0.0
H1195 H 0.73433 0.91619 0.03464 0.0
H1196 H 0.74945 0.91678 0.09354 0.0
O1197 O 0.84224 0.99782 0.07159 0.0
H1198 H 0.80282 0.04775 0.08253 0.0
H1199 H 0.86368 0.03757 0.07393 0.0
H1200 H 0.6878 0.94943 0.07234 0.0
H1201 H 0.80338 0.89384 0.06382 0.0
H1202 H 0.67635 0.91298 0.082 0.0
H1203 H 0.76256 0.86206 0.02069 0.0
O1204 O 0.77913 0.99439 0.10954 0.0
H1205 H 0.89813 0.021 0.16185 0.0
H1206 H 0.85308 0.06592 0.13293 0.0
H1207 H 0.89204 0.09037 0.17681 0.0
H1208 H 0.9149 0.06793 0.19159 0.0
H1209 H 0.85958 0.99744 0.1176 0.0
H1210 H 0.88239 0.07989 0.07615 0.0
H1211 H 0.86194 0.1075 0.08325 0.0
O1212 O 0.80485 0.02474 0.10453 0.0
C1213 C 0.76841 0.9766 0.04405 0.0
C1214 C 0.83133 0.07947 0.08416 0.0
C1215 C 0.86576 0.07359 0.07912 0.0
N1216 N 0.83456 0.0416 0.08263 0.0
C1217 C 0.82134 0.05529 0.08313 0.0
C1218 C 0.85533 0.04965 0.07851 0.0
C1219 C 0.85416 0.08899 0.08287 0.0
C1220 C 0.79123 0.92266 0.07297 0.0
N1221 N 0.77205 0.92875 0.06476 0.0
C1222 C 0.78814 0.89861 0.05726 0.0
C1223 C 0.76525 0.88079 0.03304 0.0
C1224 C 0.74582 0.88721 0.02481 0.0
C1225 C 0.74961 0.91145 0.041 0.0
C1226 C 0.71213 0.91231 0.08815 0.0
C1227 C 0.7249 0.95288 0.07739 0.0
C1228 C 0.73586 0.92379 0.08866 0.0
N1229 N 0.74199 0.94384 0.08336 0.0
C1230 C 0.70107 0.94195 0.07678 0.0
C1231 C 0.6947 0.92155 0.08225 0.0
C1232 C 0.78971 0.01738 0.11325 0.0
C1233 C 0.88843 0.03103 0.15557 0.0
C1234 C 0.86308 0.05604 0.13891 0.0
C1235 C 0.88506 0.06998 0.16394 0.0
C1236 C 0.89784 0.05736 0.17225 0.0
N1237 N 0.85425 0.03034 0.12243 0.0
C1238 C 0.86653 0.01776 0.13057 0.0
Co1239 Co 0.38963 0.8615 0.62537 0.0
Co1240 Co 0.40393 0.92373 0.67931 0.0
O1241 O 0.38456 0.89275 0.64196 0.0
C1242 C 0.41247 0.89968 0.60901 0.0
O1243 O 0.42553 0.91826 0.63347 0.0
C1244 C 0.35687 0.9233 0.68242 0.0
O1245 O 0.3639 0.91963 0.7026 0.0
O1246 O 0.39285 0.89975 0.69229 0.0
O1247 O 0.38396 0.88126 0.65293 0.0
H1248 H 0.46692 0.97114 0.77604 0.0
H1249 H 0.34801 0.86549 0.58803 0.0
O1250 O 0.39478 0.87698 0.60202 0.0
H1251 H 0.30306 0.78361 0.58775 0.0
H1252 H 0.36412 0.78754 0.54064 0.0
H1253 H 0.41895 0.83278 0.63647 0.0
H1254 H 0.35142 0.81236 0.61532 0.0
H1255 H 0.36983 0.83005 0.56821 0.0
O1256 O 0.37089 0.92573 0.67155 0.0
H1257 H 0.44248 0.93495 0.73032 0.0
H1258 H 0.40392 0.97387 0.70542 0.0
H1259 H 0.40902 0.78861 0.61038 0.0
H1260 H 0.2998 0.83747 0.56 0.0
H1261 H 0.38237 0.76553 0.56172 0.0
H1262 H 0.27708 0.79622 0.55981 0.0
O1263 O 0.42802 0.88446 0.65005 0.0
H1264 H 0.38799 0.96448 0.62305 0.0
H1265 H 0.45357 0.97184 0.70019 0.0
H1266 H 0.46378 0.00905 0.69213 0.0
H1267 H 0.43157 0.00528 0.65338 0.0
H1268 H 0.37721 0.92877 0.63355 0.0
H1269 H 0.42757 0.01025 0.75095 0.0
H1270 H 0.45956 0.00917 0.78659 0.0
O1271 O 0.43688 0.92078 0.68527 0.0
C1272 C 0.385 0.87855 0.67329 0.0
C1273 C 0.45312 0.9719 0.76067 0.0
C1274 C 0.43098 0.99381 0.74659 0.0
N1275 N 0.42202 0.95242 0.71516 0.0
C1276 C 0.43932 0.95153 0.73472 0.0
C1277 C 0.41753 0.97308 0.72086 0.0
C1278 C 0.44895 0.99321 0.76658 0.0
C1279 C 0.3382 0.84734 0.58763 0.0
N1280 N 0.35222 0.83994 0.60256 0.0
C1281 C 0.31094 0.83166 0.5719 0.0
C1282 C 0.29819 0.80852 0.57183 0.0
C1283 C 0.31275 0.80141 0.58749 0.0
C1284 C 0.33996 0.81758 0.60293 0.0
C1285 C 0.37581 0.79727 0.56178 0.0
C1286 C 0.40599 0.82289 0.61575 0.0
C1287 C 0.37969 0.82173 0.57757 0.0
N1288 N 0.39387 0.83387 0.60437 0.0
C1289 C 0.40105 0.79779 0.60076 0.0
C1290 C 0.38595 0.78489 0.57357 0.0
C1291 C 0.44363 0.90595 0.67227 0.0
C1292 C 0.40233 0.96631 0.64018 0.0
C1293 C 0.43904 0.97017 0.68334 0.0
C1294 C 0.44498 0.99131 0.67896 0.0
C1295 C 0.4266 0.98924 0.65716 0.0
N1296 N 0.41462 0.94841 0.66765 0.0
C1297 C 0.39649 0.94605 0.64599 0.0
Co1298 Co 0.11676 0.61064 0.19337 0.0
Co1299 Co 0.06755 0.62026 0.15991 0.0
O1300 O 0.07918 0.59857 0.17224 0.0
C1301 C 0.09173 0.55474 0.15276 0.0
O1302 O 0.07369 0.55686 0.1368 0.0
C1303 C 0.03714 0.60434 0.18602 0.0
O1304 O 0.05352 0.59769 0.19721 0.0
O1305 O 0.08835 0.65015 0.19544 0.0
O1306 O 0.12423 0.64731 0.21277 0.0
H1307 H 0.09214 0.69742 0.14893 0.0
H1308 H 0.07923 0.56601 0.19352 0.0
O1309 O 0.11014 0.57428 0.17513 0.0
H1310 H 0.14032 0.63447 0.28637 0.0
H1311 H 0.19578 0.6057 0.24316 0.0
H1312 H 0.16516 0.65766 0.21053 0.0
H1313 H 0.14304 0.64266 0.25127 0.0
H1314 H 0.14838 0.59007 0.21885 0.0
O1315 O 0.0381 0.61001 0.1683 0.0
H1316 H 0.0827 0.65258 0.13381 0.0
H1317 H 0.02601 0.63743 0.15814 0.0
H1318 H 0.21252 0.67408 0.2349 0.0
H1319 H 0.07645 0.55644 0.2281 0.0
H1320 H 0.22817 0.648 0.25134 0.0
H1321 H 0.10726 0.59081 0.27495 0.0
O1322 O 0.12355 0.61611 0.16659 0.0
H1323 H 0.996 0.52769 0.09285 0.0
H1324 H 0.05963 0.61002 0.1061 0.0
H1325 H 0.02832 0.57274 0.06135 0.0
H1326 H 0.99592 0.53123 0.05447 0.0
H1327 H 0.02763 0.56553 0.13734 0.0
H1328 H 0.03257 0.68129 0.16989 0.0
H1329 H 0.06995 0.71341 0.17034 0.0
O1330 O 0.09876 0.63279 0.15363 0.0
C1331 C 0.11064 0.65855 0.21391 0.0
C1332 C 0.07783 0.68436 0.15126 0.0
C1333 C 0.04466 0.67542 0.16336 0.0
N1334 N 0.05705 0.64307 0.1491 0.0
C1335 C 0.07263 0.65873 0.14322 0.0
C1336 C 0.04089 0.6502 0.15623 0.0
C1337 C 0.06488 0.69318 0.1629 0.0
C1338 C 0.09272 0.58097 0.21381 0.0
N1339 N 0.1113 0.60483 0.22028 0.0
C1340 C 0.09106 0.57548 0.23334 0.0
C1341 C 0.10835 0.59476 0.25963 0.0
C1342 C 0.12682 0.61928 0.26606 0.0
C1343 C 0.128 0.62396 0.24603 0.0
C1344 C 0.18918 0.61724 0.23611 0.0
C1345 C 0.17172 0.64627 0.21783 0.0
C1346 C 0.16238 0.60846 0.2223 0.0
N1347 N 0.15396 0.62299 0.21342 0.0
C1348 C 0.19862 0.65565 0.23154 0.0
C1349 C 0.20737 0.64099 0.24072 0.0
C1350 C 0.11832 0.62918 0.15608 0.0
C1351 C 0.00984 0.54577 0.0956 0.0
C1352 C 0.04568 0.59225 0.10346 0.0
C1353 C 0.02799 0.57106 0.07795 0.0
C1354 C 0.00986 0.54775 0.07407 0.0
N1355 N 0.04513 0.59039 0.12449 0.0
C1356 C 0.02774 0.56736 0.12077 0.0
Co1357 Co 0.44647 0.43668 0.78524 0.0
Co1358 Co 0.47691 0.40495 0.76178 0.0
O1359 O 0.47128 0.435 0.77262 0.0
C1360 C 0.44348 0.46168 0.75214 0.0
O1361 O 0.45247 0.44893 0.73978 0.0
C1362 C 0.53635 0.43733 0.79681 0.0
O1363 O 0.53469 0.43462 0.81623 0.0
O1364 O 0.48392 0.40562 0.79638 0.0
O1365 O 0.45889 0.42157 0.80588 0.0
H1366 H 0.45306 0.31556 0.69571 0.0
H1367 H 0.49136 0.48215 0.79254 0.0
O1368 O 0.43423 0.45367 0.76511 0.0
H1369 H 0.49484 0.5126 0.87782 0.0
H1370 H 0.39892 0.47674 0.82086 0.0
H1371 H 0.41414 0.40175 0.79828 0.0
H1372 H 0.46331 0.46729 0.84238 0.0
H1373 H 0.42725 0.47434 0.80163 0.0
O1374 O 0.51555 0.42911 0.77591 0.0
H1375 H 0.45216 0.35652 0.70989 0.0
H1376 H 0.50934 0.38559 0.78822 0.0
H1377 H 0.38632 0.40376 0.81813 0.0
H1378 H 0.52422 0.52709 0.8281 0.0
H1379 H 0.37859 0.44152 0.82972 0.0
H1380 H 0.52599 0.54293 0.87111 0.0
O1381 O 0.41734 0.3998 0.75604 0.0
H1382 H 0.49788 0.43116 0.69909 0.0
H1383 H 0.42669 0.38351 0.71109 0.0
H1384 H 0.41605 0.38752 0.67232 0.0
H1385 H 0.45153 0.41215 0.66601 0.0
H1386 H 0.50839 0.42548 0.73694 0.0
H1387 H 0.50788 0.34347 0.77519 0.0
H1388 H 0.48084 0.30841 0.72849 0.0
O1389 O 0.44015 0.37996 0.74868 0.0
C1390 C 0.47319 0.41133 0.81013 0.0
C1391 C 0.46572 0.33102 0.71602 0.0
C1392 C 0.49684 0.34683 0.76051 0.0
N1393 N 0.48142 0.37443 0.7499 0.0
C1394 C 0.46575 0.35475 0.72422 0.0
C1395 C 0.49722 0.37072 0.76783 0.0
C1396 C 0.48126 0.327 0.73438 0.0
C1397 C 0.49181 0.48843 0.81105 0.0
N1398 N 0.47432 0.47184 0.81461 0.0
C1399 C 0.51066 0.51412 0.83125 0.0
C1400 C 0.51167 0.523 0.85537 0.0
C1401 C 0.49423 0.50599 0.85913 0.0
C1402 C 0.47618 0.48021 0.83875 0.0
C1403 C 0.40199 0.46009 0.81573 0.0
C1404 C 0.41081 0.41819 0.803 0.0
C1405 C 0.41773 0.45842 0.80442 0.0
N1406 N 0.42232 0.43783 0.79851 0.0
C1407 C 0.39499 0.41921 0.8143 0.0
C1408 C 0.39065 0.44038 0.82078 0.0
C1409 C 0.41897 0.37904 0.74693 0.0
C1410 C 0.48221 0.42049 0.7017 0.0
C1411 C 0.44284 0.39393 0.70927 0.0
C1412 C 0.4364 0.39614 0.68673 0.0
C1413 C 0.45625 0.40987 0.68316 0.0
N1414 N 0.46849 0.40455 0.72792 0.0
C1415 C 0.48798 0.4173 0.72369 0.0
Co1416 Co 0.8655 0.83569 0.95548 0.0
Co1417 Co 0.84292 0.7804 0.88922 0.0
O1418 O 0.85554 0.82044 0.91738 0.0
C1419 C 0.81848 0.83362 0.95959 0.0
O1420 O 0.82566 0.82529 0.97599 0.0
C1421 C 0.87716 0.82126 0.876 0.0
O1422 O 0.87841 0.84197 0.89245 0.0
O1423 O 0.88202 0.79667 0.91928 0.0
O1424 O 0.89408 0.82772 0.95969 0.0
H1425 H 0.88215 0.71985 0.90303 0.0
H1426 H 0.85732 0.87652 0.94535 0.0
O1427 O 0.83346 0.84109 0.95031 0.0
H1428 H 0.95263 0.91273 0.98835 0.0
H1429 H 0.88681 0.90008 0.04462 0.0
H1430 H 0.88619 0.82014 0.99417 0.0
H1431 H 0.924 0.87268 0.98548 0.0
H1432 H 0.87206 0.88286 0.99742 0.0
O1433 O 0.86705 0.79958 0.87569 0.0
H1434 H 0.86203 0.74576 0.91137 0.0
H1435 H 0.86575 0.76256 0.8515 0.0
H1436 H 0.90157 0.83719 0.04121 0.0
H1437 H 0.88494 0.91601 0.94612 0.0
H1438 H 0.90169 0.87744 0.06677 0.0
H1439 H 0.93315 0.93378 0.96693 0.0
O1440 O 0.84324 0.80148 0.95015 0.0
H1441 H 0.72447 0.7504 0.8417 0.0
H1442 H 0.77932 0.7256 0.81136 0.0
H1443 H 0.73391 0.69992 0.78508 0.0
H1444 H 0.70474 0.71083 0.79929 0.0
H1445 H 0.76983 0.77637 0.8694 0.0
H1446 H 0.8896 0.73997 0.84611 0.0
H1447 H 0.89722 0.71701 0.87076 0.0
O1448 O 0.84837 0.77409 0.92174 0.0
C1449 C 0.89849 0.81241 0.94458 0.0
C1450 C 0.8788 0.72962 0.89189 0.0
C1451 C 0.88328 0.74115 0.86036 0.0
N1452 N 0.86147 0.75719 0.88236 0.0
C1453 C 0.8667 0.74465 0.89629 0.0
C1454 C 0.87029 0.75517 0.86453 0.0
C1455 C 0.88742 0.72815 0.87402 0.0
C1456 C 0.87779 0.88335 0.95297 0.0
N1457 N 0.88829 0.87021 0.96209 0.0
C1458 C 0.89358 0.90613 0.9541 0.0
C1459 C 0.92062 0.91627 0.96605 0.0
C1460 C 0.93155 0.90433 0.97784 0.0
C1461 C 0.91503 0.88132 0.97582 0.0
C1462 C 0.8869 0.88273 0.03364 0.0
C1463 C 0.88635 0.83777 0.00507 0.0
C1464 C 0.87856 0.87282 0.00694 0.0
N1465 N 0.87799 0.85033 0.99289 0.0
C1466 C 0.89508 0.84732 0.03178 0.0
C1467 C 0.89519 0.8699 0.04609 0.0
C1468 C 0.84617 0.78196 0.9421 0.0
C1469 C 0.73692 0.74436 0.83584 0.0
C1470 C 0.76929 0.73115 0.82117 0.0
C1471 C 0.74214 0.71613 0.80444 0.0
C1472 C 0.72581 0.72232 0.81213 0.0
N1473 N 0.78214 0.75212 0.84713 0.0
C1474 C 0.76418 0.75913 0.85216 0.0
Co1475 Co 0.60697 0.18075 0.10245 0.0
Co1476 Co 0.62066 0.14859 0.05585 0.0
O1477 O 0.5987 0.16218 0.06541 0.0
C1478 C 0.54933 0.14082 0.07096 0.0
O1479 O 0.55116 0.12889 0.05051 0.0
C1480 C 0.62392 0.18561 0.03569 0.0
O1481 O 0.62035 0.19785 0.05465 0.0
O1482 O 0.65205 0.1827 0.08205 0.0
O1483 O 0.64432 0.20163 0.11372 0.0
H1484 H 0.66308 0.09697 0.06501 0.0
H1485 H 0.56553 0.18199 0.0623 0.0
O1486 O 0.56941 0.16071 0.09214 0.0
H1487 H 0.63214 0.27447 0.12781 0.0
H1488 H 0.59243 0.22443 0.17617 0.0
H1489 H 0.65013 0.19591 0.15289 0.0
H1490 H 0.63837 0.239 0.13211 0.0
H1491 H 0.58213 0.20362 0.13007 0.0
O1492 O 0.61974 0.16228 0.02974 0.0
H1493 H 0.62289 0.09844 0.04514 0.0
H1494 H 0.66654 0.17082 0.05226 0.0
H1495 H 0.66078 0.216 0.1989 0.0
H1496 H 0.55682 0.21682 0.05916 0.0
H1497 H 0.63194 0.23061 0.21092 0.0
H1498 H 0.59084 0.26358 0.09141 0.0
O1499 O 0.61241 0.1538 0.10947 0.0
H1500 H 0.54247 0.08136 0.96494 0.0
H1501 H 0.58656 0.10085 0.05605 0.0
H1502 H 0.5461 0.05959 0.02371 0.0
H1503 H 0.52326 0.04932 0.97761 0.0
H1504 H 0.58379 0.12203 0.99736 0.0
H1505 H 0.70748 0.17181 0.07411 0.0
H1506 H 0.70618 0.13647 0.08336 0.0
O1507 O 0.62775 0.13852 0.08411 0.0
C1508 C 0.65845 0.20153 0.10314 0.0
C1509 C 0.66394 0.11302 0.06153 0.0
C1510 C 0.6889 0.15474 0.06621 0.0
N1511 N 0.64257 0.13532 0.04798 0.0
C1512 C 0.64104 0.11356 0.04946 0.0
C1513 C 0.66555 0.15382 0.05305 0.0
C1514 C 0.68805 0.13475 0.07148 0.0
C1515 C 0.5798 0.20214 0.077 0.0
N1516 N 0.60211 0.20824 0.0975 0.0
C1517 C 0.57506 0.22188 0.0749 0.0
C1518 C 0.59407 0.24809 0.09308 0.0
C1519 C 0.61724 0.25421 0.11346 0.0
C1520 C 0.62079 0.23395 0.11556 0.0
C1521 C 0.60518 0.2182 0.17119 0.0
C1522 C 0.63744 0.20222 0.15785 0.0
C1523 C 0.59945 0.20644 0.14513 0.0
N1524 N 0.61553 0.19862 0.13875 0.0
C1525 C 0.64359 0.21358 0.184 0.0
C1526 C 0.62736 0.22168 0.19069 0.0
C1527 C 0.62442 0.14198 0.10382 0.0
C1528 C 0.55232 0.0855 0.98493 0.0
C1529 C 0.57769 0.09699 0.03623 0.0
C1530 C 0.55433 0.07325 0.01782 0.0
C1531 C 0.54153 0.06753 0.99202 0.0
N1532 N 0.58867 0.11455 0.02923 0.0
C1533 C 0.57604 0.10883 0.00374 0.0
Co1534 Co 0.89515 0.35355 0.27605 0.0
Co1535 Co 0.93404 0.40789 0.27414 0.0
O1536 O 0.91696 0.36993 0.26295 0.0
C1537 C 0.93139 0.33191 0.2784 0.0
O1538 O 0.94996 0.35478 0.28534 0.0
C1539 C 0.91313 0.38269 0.21431 0.0
O1540 O 0.89689 0.35892 0.20791 0.0
O1541 O 0.90012 0.40843 0.26546 0.0
O1542 O 0.88046 0.37721 0.27275 0.0
H1543 H 0.93689 0.49349 0.30318 0.0
H1544 H 0.89565 0.31799 0.23118 0.0
O1545 O 0.90954 0.3292 0.2764 0.0
H1546 H 0.81108 0.31389 0.19066 0.0
H1547 H 0.81719 0.26067 0.24227 0.0
H1548 H 0.85843 0.36263 0.33198 0.0
H1549 H 0.83827 0.33749 0.238 0.0
H1550 H 0.86367 0.29737 0.25281 0.0
O1551 O 0.92719 0.40106 0.23811 0.0
H1552 H 0.93049 0.45305 0.30493 0.0
H1553 H 0.97252 0.44177 0.26494 0.0
H1554 H 0.81374 0.32264 0.31891 0.0
H1555 H 0.86782 0.29243 0.18365 0.0
H1556 H 0.81468 0.30012 0.29253 0.0
H1557 H 0.82594 0.29154 0.16279 0.0
O1558 O 0.92613 0.38028 0.31266 0.0
H1559 H 0.98998 0.37174 0.25342 0.0
H1560 H 0.98768 0.43777 0.32168 0.0
H1561 H 0.02668 0.43242 0.33295 0.0
H1562 H 0.02833 0.39984 0.29857 0.0
H1563 H 0.9505 0.3758 0.24365 0.0
H1564 H 0.98062 0.48286 0.26418 0.0
H1565 H 0.96099 0.50792 0.28163 0.0
O1566 O 0.94266 0.41747 0.31139 0.0
C1567 C 0.88133 0.39541 0.26772 0.0
C1568 C 0.94524 0.48254 0.29529 0.0
C1569 C 0.96974 0.47655 0.27331 0.0
N1570 N 0.95069 0.44478 0.28463 0.0
C1571 C 0.94194 0.45977 0.29644 0.0
C1572 C 0.96546 0.45351 0.27422 0.0
C1573 C 0.95884 0.49067 0.28321 0.0
C1574 C 0.87656 0.31611 0.2229 0.0
N1575 N 0.86869 0.3288 0.23852 0.0
C1576 C 0.86103 0.30192 0.19562 0.0
C1577 C 0.83749 0.30133 0.18391 0.0
C1578 C 0.82928 0.31399 0.19956 0.0
C1579 C 0.84501 0.32743 0.22683 0.0
C1580 C 0.82672 0.27992 0.25911 0.0
C1581 C 0.85253 0.34408 0.31621 0.0
C1582 C 0.85615 0.30364 0.26533 0.0
N1583 N 0.87089 0.33439 0.28919 0.0
C1584 C 0.82286 0.31637 0.30606 0.0
C1585 C 0.81074 0.28486 0.27716 0.0
C1586 C 0.94261 0.40478 0.32383 0.0
C1587 C 0.98972 0.38642 0.2685 0.0
C1588 C 0.98805 0.42333 0.30662 0.0
C1589 C 0.01032 0.42057 0.31308 0.0
C1590 C 0.01119 0.40213 0.29382 0.0
N1591 N 0.96678 0.40744 0.28189 0.0
C1592 C 0.96749 0.38917 0.26294 0.0
Co1593 Co 0.02616 0.87475 0.63661 0.0
Co1594 Co 0.00073 0.90802 0.61189 0.0
O1595 O 0.01044 0.88049 0.60727 0.0
C1596 C 0.05428 0.87031 0.60624 0.0
O1597 O 0.04852 0.88544 0.598 0.0
C1598 C 0.94938 0.88515 0.5639 0.0
O1599 O 0.94618 0.90363 0.5775 0.0
O1600 O 0.97534 0.88915 0.62076 0.0
O1601 O 0.00115 0.8803 0.64757 0.0
H1602 H 0.97618 0.9711 0.65723 0.0
H1603 H 0.00199 0.83516 0.58028 0.0
O1604 O 0.0505 0.86832 0.62447 0.0
H1605 H 0.96858 0.78559 0.61988 0.0
H1606 H 0.08098 0.84565 0.68767 0.0
H1607 H 0.02372 0.88394 0.68679 0.0
H1608 H 0.99419 0.83359 0.64479 0.0
H1609 H 0.06173 0.85201 0.65123 0.0
O1610 O 0.97118 0.88527 0.57347 0.0
H1611 H 0.98461 0.93413 0.64768 0.0
H1612 H 0.99779 0.9424 0.58757 0.0
H1613 H 0.04142 0.87602 0.72236 0.0
H1614 H 0.97617 0.78701 0.55447 0.0
H1615 H 0.07066 0.85706 0.72354 0.0
H1616 H 0.96043 0.76178 0.57481 0.0
O1617 O 0.05226 0.91268 0.65983 0.0
H1618 H 0.03896 0.91212 0.55297 0.0
H1619 H 0.04989 0.96053 0.6399 0.0
H1620 H 0.08308 0.98044 0.62928 0.0
H1621 H 0.07753 0.95668 0.58542 0.0
H1622 H 0.00704 0.89191 0.56485 0.0
H1623 H 0.99071 0.98004 0.59738 0.0
H1624 H 0.97947 0.99455 0.63218 0.0
O1625 O 0.02695 0.92965 0.6502 0.0
C1626 C 0.9801 0.88068 0.6369 0.0
C1627 C 0.98108 0.96498 0.64202 0.0
C1628 C 0.9893 0.97007 0.6085 0.0
N1629 N 0.99212 0.9361 0.61734 0.0
C1630 C 0.98579 0.94394 0.63643 0.0
C1631 C 0.99374 0.94889 0.60334 0.0
C1632 C 0.98297 0.97816 0.628 0.0
C1633 C 0.99496 0.82447 0.58918 0.0
N1634 N 0.00094 0.83738 0.61463 0.0
C1635 C 0.98026 0.79714 0.57442 0.0
C1636 C 0.97142 0.783 0.5858 0.0
C1637 C 0.97613 0.7963 0.61114 0.0
C1638 C 0.99089 0.82361 0.62526 0.0
C1639 C 0.06838 0.8541 0.68746 0.0
C1640 C 0.03611 0.8755 0.68624 0.0
C1641 C 0.05754 0.85832 0.6668 0.0
N1642 N 0.04176 0.8693 0.66626 0.0
C1643 C 0.04622 0.87108 0.70689 0.0
C1644 C 0.06257 0.86044 0.70755 0.0
C1645 C 0.04571 0.92991 0.66685 0.0
C1646 C 0.04148 0.92284 0.5721 0.0
C1647 C 0.0475 0.9495 0.62098 0.0
C1648 C 0.06625 0.96117 0.61495 0.0
C1649 C 0.06315 0.94778 0.59032 0.0
N1650 N 0.02632 0.92488 0.60308 0.0
C1651 C 0.02324 0.9116 0.57888 0.0
Co1652 Co 0.62692 0.39491 0.87512 0.0
Co1653 Co 0.6846 0.41646 0.93036 0.0
O1654 O 0.64634 0.40137 0.9106 0.0
C1655 C 0.5959 0.42182 0.88078 0.0
O1656 O 0.60323 0.43105 0.86683 0.0
C1657 C 0.66135 0.36191 0.91819 0.0
O1658 O 0.64719 0.35663 0.89433 0.0
O1659 O 0.68629 0.39731 0.89995 0.0
O1660 O 0.65066 0.38477 0.86391 0.0
H1661 H 0.77698 0.46009 0.94729 0.0
H1662 H 0.59588 0.37015 0.89564 0.0
O1663 O 0.60338 0.40651 0.88607 0.0
H1664 H 0.578 0.29654 0.81714 0.0
H1665 H 0.54778 0.35031 0.78603 0.0
H1666 H 0.6431 0.40983 0.84058 0.0
H1667 H 0.60848 0.34216 0.83152 0.0
H1668 H 0.56989 0.36698 0.83373 0.0
O1669 O 0.67834 0.38566 0.93643 0.0
H1670 H 0.72949 0.4438 0.92427 0.0
H1671 H 0.72079 0.41934 0.97817 0.0
H1672 H 0.62186 0.39266 0.79293 0.0
H1673 H 0.56471 0.32492 0.8815 0.0
H1674 H 0.57362 0.36286 0.76529 0.0
H1675 H 0.55561 0.28771 0.84201 0.0
O1676 O 0.65088 0.43137 0.8867 0.0
H1677 H 0.65562 0.42531 0.99665 0.0
H1678 H 0.71893 0.47143 0.97519 0.0
H1679 H 0.72432 0.49388 0.01912 0.0
H1680 H 0.69258 0.47063 0.03027 0.0
H1681 H 0.65184 0.40333 0.95388 0.0
H1682 H 0.76828 0.43541 0.00179 0.0
H1683 H 0.79674 0.456 0.98639 0.0
O1684 O 0.68978 0.44612 0.92189 0.0
C1685 C 0.67346 0.38776 0.87556 0.0
C1686 C 0.76483 0.45129 0.95429 0.0
C1687 C 0.75993 0.4374 0.98484 0.0
N1688 N 0.72234 0.43083 0.94997 0.0
C1689 C 0.7379 0.44218 0.94143 0.0
C1690 C 0.73303 0.42829 0.97134 0.0
C1691 C 0.77588 0.44894 0.97619 0.0
C1692 C 0.59176 0.35412 0.87822 0.0
N1693 N 0.60367 0.35887 0.86419 0.0
C1694 C 0.57417 0.32852 0.87037 0.0
C1695 C 0.56914 0.30766 0.84826 0.0
C1696 C 0.58173 0.3126 0.83433 0.0
C1697 C 0.59909 0.33847 0.84265 0.0
C1698 C 0.56859 0.36365 0.79796 0.0
C1699 C 0.62217 0.39663 0.82869 0.0
C1700 C 0.58126 0.37316 0.82497 0.0
N1701 N 0.60793 0.38858 0.8398 0.0
C1702 C 0.61025 0.38695 0.80168 0.0
C1703 C 0.58321 0.3704 0.78624 0.0
C1704 C 0.67474 0.44861 0.90394 0.0
C1705 C 0.66982 0.4356 0.99242 0.0
C1706 C 0.70501 0.46133 0.97992 0.0
C1707 C 0.70828 0.47406 0.00488 0.0
C1708 C 0.69052 0.46101 0.01114 0.0
N1709 N 0.68509 0.43608 0.96206 0.0
C1710 C 0.66746 0.42334 0.96793 0.0
Co1711 Co 0.03234 0.44761 0.98179 0.0
Co1712 Co 0.98384 0.44069 0.99834 0.0
O1713 O 0.01321 0.436 0.99851 0.0
C1714 C 0.01125 0.39122 0.95708 0.0
O1715 O 0.98926 0.39029 0.95478 0.0
C1716 C 0.0009 0.46433 0.05562 0.0
O1717 O -0.00034 0.48502 0.05598 0.0
O1718 O 0.00464 0.479 0.01084 0.0
O1719 O 0.03208 0.48124 0.99458 0.0
H1720 H 0.92111 0.47453 0.97976 0.0
H1721 H 0.0529 0.42828 0.01681 0.0
O1722 O 0.03179 0.41332 0.96787 0.0
H1723 H 0.12249 0.51949 0.0569 0.0
H1724 H 0.10116 0.45778 0.95495 0.0
H1725 H 0.02912 0.4755 0.95154 0.0
H1726 H 0.08131 0.49973 0.01583 0.0
H1727 H 0.07659 0.44358 0.97605 0.0
O1728 O 0.99747 0.44677 0.03503 0.0
H1729 H 0.95695 0.46671 0.97843 0.0
H1730 H 0.94762 0.42434 0.01867 0.0
H1731 H 0.05332 0.49027 0.93043 0.0
H1732 H 0.09386 0.44719 0.05779 0.0
H1733 H 0.08964 0.48142 0.93205 0.0
H1734 H 0.12898 0.49313 0.07811 0.0
O1735 O -0.00076 0.43247 0.9488 0.0
H1736 H 0.96974 0.35546 0.99576 0.0
H1737 H 0.92917 0.39823 0.95652 0.0
H1738 H 0.90361 0.35067 0.93893 0.0
H1739 H 0.9239 0.32895 0.95859 0.0
H1740 H 0.99471 0.40293 0.01249 0.0
H1741 H 0.91181 0.43187 0.02063 0.0
H1742 H 0.89837 0.45721 0.00115 0.0
O1743 O 0.96947 0.43323 0.96124 0.0
C1744 C 0.02099 0.49126 0.00525 0.0
C1745 C 0.92689 0.46362 0.98849 0.0
C1746 C 0.92168 0.43968 0.01142 0.0
N1747 N 0.95478 0.44555 0.99892 0.0
C1748 C 0.94723 0.45917 0.98784 0.0
C1749 C 0.94207 0.43558 0.01036 0.0
C1750 C 0.91414 0.45388 0.00047 0.0
C1751 C 0.06817 0.44823 0.02546 0.0
N1752 N 0.0648 0.46284 0.01388 0.0
C1753 C 0.09128 0.45886 0.0487 0.0
C1754 C 0.11098 0.48464 0.0601 0.0
C1755 C 0.10734 0.49945 0.04822 0.0
C1756 C 0.08396 0.48818 0.02501 0.0
C1757 C 0.08542 0.46181 0.95417 0.0
C1758 C 0.04503 0.47175 0.95251 0.0
C1759 C 0.07142 0.45377 0.96604 0.0
N1760 N 0.05163 0.45894 0.96526 0.0
C1761 C 0.0586 0.48008 0.94043 0.0
C1762 C 0.07895 0.47508 0.94133 0.0
C1763 C 0.97655 0.42932 0.94398 0.0
C1764 C 0.96066 0.3647 0.98706 0.0
C1765 C 0.9382 0.38893 0.96506 0.0
C1766 C 0.92359 0.36199 0.9551 0.0
C1767 C 0.93497 0.34983 0.96617 0.0
N1768 N 0.96343 0.40341 0.9855 0.0
C1769 C 0.97467 0.39162 0.99653 0.0
Co1770 Co 0.69493 0.71405 0.18829 0.0
Co1771 Co 0.69462 0.68451 0.23141 0.0
O1772 O 0.71102 0.71229 0.222 0.0
C1773 C 0.75269 0.74547 0.21365 0.0
O1774 O 0.75552 0.74782 0.23619 0.0
C1775 C 0.73505 0.74137 0.27715 0.0
O1776 O 0.72887 0.75383 0.26515 0.0
O1777 O 0.66279 0.68879 0.21719 0.0
O1778 O 0.65955 0.68969 0.18049 0.0
H1779 H 0.62091 0.61813 0.23066 0.0
H1780 H 0.73244 0.77134 0.23277 0.0
O1781 O 0.7303 0.73646 0.19448 0.0
H1782 H 0.64391 0.76002 0.20128 0.0
H1783 H 0.68607 0.75582 0.13174 0.0
H1784 H 0.65266 0.67337 0.13359 0.0
H1785 H 0.65017 0.72351 0.18057 0.0
H1786 H 0.70474 0.75534 0.17304 0.0
O1787 O 0.7186 0.71734 0.26818 0.0
H1788 H 0.64158 0.64198 0.21248 0.0
H1789 H 0.71417 0.68669 0.284 0.0
H1790 H 0.63328 0.6729 0.09189 0.0
H1791 H 0.72697 0.80817 0.25362 0.0
H1792 H 0.65005 0.71438 0.09077 0.0
H1793 H 0.68243 0.80285 0.23821 0.0
O1794 O 0.69741 0.68278 0.16887 0.0
H1795 H 0.7892 0.7064 0.26406 0.0
H1796 H 0.70011 0.63927 0.23391 0.0
H1797 H 0.73697 0.63136 0.24919 0.0
H1798 H 0.78177 0.66476 0.26398 0.0
H1799 H 0.75234 0.71425 0.25013 0.0
H1800 H 0.69405 0.6636 0.30312 0.0
H1801 H 0.64711 0.62885 0.27641 0.0
O1802 O 0.70687 0.69388 0.20837 0.0
C1803 C 0.64918 0.68099 0.19253 0.0
C1804 C 0.64138 0.63329 0.24257 0.0
C1805 C 0.68238 0.65884 0.2832 0.0
N1806 N 0.67913 0.6661 0.24701 0.0
C1807 C 0.65328 0.64697 0.23232 0.0
C1808 C 0.69362 0.67211 0.27227 0.0
C1809 C 0.65607 0.63932 0.26821 0.0
C1810 C 0.71291 0.76812 0.226 0.0
N1811 N 0.69162 0.74419 0.20635 0.0
C1812 C 0.70995 0.78943 0.23791 0.0
C1813 C 0.68499 0.78648 0.22925 0.0
C1814 C 0.6634 0.76244 0.20865 0.0
C1815 C 0.66712 0.74157 0.19728 0.0
C1816 C 0.6785 0.73764 0.13199 0.0
C1817 C 0.6598 0.6915 0.13336 0.0
C1818 C 0.68896 0.73725 0.15534 0.0
N1819 N 0.67948 0.71438 0.15584 0.0
C1820 C 0.64886 0.69112 0.10964 0.0
C1821 C 0.65829 0.71439 0.10901 0.0
C1822 C 0.702 0.67605 0.18589 0.0
C1823 C 0.76972 0.69164 0.25767 0.0
C1824 C 0.71959 0.65429 0.24079 0.0
C1825 C 0.74034 0.64948 0.24913 0.0
C1826 C 0.76554 0.66829 0.25757 0.0
N1827 N 0.72388 0.67768 0.2418 0.0
C1828 C 0.74861 0.69599 0.24969 0.0
Co1829 Co 0.77469 0.78674 0.55492 0.0
Co1830 Co 0.8417 0.84244 0.61094 0.0
O1831 O 0.8021 0.81795 0.59174 0.0
C1832 C 0.73911 0.80731 0.54587 0.0
O1833 O 0.74384 0.80582 0.52688 0.0
C1834 C 0.82174 0.83043 0.6458 0.0
O1835 O 0.80328 0.83548 0.63579 0.0
O1836 O 0.84807 0.8128 0.60235 0.0
O1837 O 0.80831 0.80314 0.58619 0.0
H1838 H 0.92444 0.91343 0.62827 0.0
H1839 H 0.76252 0.79396 0.59865 0.0
O1840 O 0.75291 0.80338 0.56285 0.0
H1841 H 0.74501 0.70305 0.55837 0.0
H1842 H 0.6795 0.71516 0.49233 0.0
H1843 H 0.76049 0.7738 0.5002 0.0
H1844 H 0.75849 0.73106 0.5401 0.0
H1845 H 0.7178 0.74924 0.53524 0.0
O1846 O 0.84161 0.8375 0.6422 0.0
H1847 H 0.87925 0.87682 0.60102 0.0
H1848 H 0.88674 0.86146 0.66385 0.0
H1849 H 0.72226 0.73946 0.45589 0.0
H1850 H 0.74865 0.76654 0.61726 0.0
H1851 H 0.68173 0.70934 0.45197 0.0
H1852 H 0.73988 0.72073 0.5972 0.0
O1853 O 0.79318 0.81193 0.54298 0.0
H1854 H 0.85911 0.92547 0.68072 0.0
H1855 H 0.83608 0.87821 0.5888 0.0
H1856 H 0.84903 0.92418 0.609 0.0
H1857 H 0.86204 0.94883 0.65571 0.0
H1858 H 0.84771 0.87994 0.66075 0.0
H1859 H 0.93087 0.89943 0.69214 0.0
H1860 H 0.95029 0.92587 0.67458 0.0
O1861 O 0.83709 0.83996 0.57484 0.0
C1862 C 0.82506 0.79451 0.58845 0.0
C1863 C 0.9162 0.90193 0.63607 0.0
C1864 C 0.91976 0.8942 0.67194 0.0
N1865 N 0.87969 0.86626 0.63024 0.0
C1866 C 0.8906 0.8806 0.62046 0.0
C1867 C 0.89445 0.87246 0.65553 0.0
C1868 C 0.93066 0.90904 0.66211 0.0
C1869 C 0.75886 0.77415 0.58977 0.0
N1870 N 0.76184 0.76439 0.56851 0.0
C1871 C 0.75095 0.75866 0.60042 0.0
C1872 C 0.74606 0.73297 0.58918 0.0
C1873 C 0.74901 0.72307 0.56745 0.0
C1874 C 0.75701 0.73916 0.55738 0.0
C1875 C 0.69761 0.72705 0.49369 0.0
C1876 C 0.74366 0.75936 0.49829 0.0
C1877 C 0.7198 0.74625 0.51813 0.0
N1878 N 0.74313 0.76124 0.52029 0.0
C1879 C 0.72179 0.74047 0.47334 0.0
C1880 C 0.69884 0.72383 0.47111 0.0
C1881 C 0.81762 0.82897 0.55089 0.0
C1882 C 0.85347 0.91489 0.66029 0.0
C1883 C 0.84035 0.88762 0.6087 0.0
C1884 C 0.84797 0.91421 0.62018 0.0
C1885 C 0.85509 0.928 0.64629 0.0
N1886 N 0.83935 0.87457 0.62256 0.0
C1887 C 0.84595 0.88833 0.64826 0.0
Co1888 Co 0.96438 0.87108 0.85242 0.0
Co1889 Co 0.92377 0.87807 0.80565 0.0
O1890 O 0.92903 0.86411 0.83036 0.0
C1891 C 0.95939 0.81862 0.83578 0.0
O1892 O 0.98048 0.82948 0.83436 0.0
C1893 C 0.8844 0.88263 0.8222 0.0
O1894 O 0.90317 0.89579 0.84684 0.0
O1895 O 0.94645 0.91353 0.83734 0.0
O1896 O 0.97965 0.90812 0.85792 0.0
H1897 H 0.91746 0.89347 0.72926 0.0
H1898 H 0.93051 0.84492 0.87034 0.0
O1899 O 0.94955 0.83264 0.84401 0.0
H1900 H 0.99084 0.93575 0.94358 0.0
H1901 H 0.02686 0.85317 0.90752 0.0
H1902 H 0.01508 0.89544 0.85434 0.0
H1903 H 0.992 0.92188 0.90257 0.0
H1904 H 0.98791 0.85809 0.89295 0.0
O1905 O 0.88995 0.87455 0.8044 0.0
H1906 H 0.93289 0.87842 0.76007 0.0
H1907 H 0.9075 0.91733 0.80732 0.0
H1908 H 0.05634 0.89496 0.8723 0.0
H1909 H 0.93013 0.85762 0.91207 0.0
H1910 H 0.06201 0.87262 0.89834 0.0
H1911 H 0.96015 0.90335 0.94882 0.0
O1912 O 0.96759 0.85892 0.82131 0.0
H1913 H 0.89888 0.78259 0.76158 0.0
H1914 H 0.88561 0.84982 0.74546 0.0
H1915 H 0.87824 0.8121 0.70979 0.0
H1916 H 0.88167 0.77609 0.71657 0.0
H1917 H 0.91449 0.82424 0.79812 0.0
H1918 H 0.89494 0.93531 0.77891 0.0
H1919 H 0.89889 0.92259 0.73883 0.0
O1920 O 0.95572 0.88084 0.80312 0.0
C1921 C 0.97111 0.92216 0.85072 0.0
C1922 C 0.91564 0.89914 0.74665 0.0
C1923 C 0.90262 0.92228 0.7742 0.0
N1924 N 0.91886 0.89482 0.78423 0.0
C1925 C 0.92428 0.89061 0.7642 0.0
C1926 C 0.90964 0.9118 0.79016 0.0
C1927 C 0.905 0.9153 0.75188 0.0
C1928 C 0.94359 0.86487 0.88618 0.0
N1929 N 0.96103 0.88259 0.88363 0.0
C1930 C 0.94317 0.87197 0.90972 0.0
C1931 C 0.96017 0.89762 0.93047 0.0
C1932 C 0.97743 0.91578 0.92755 0.0
C1933 C 0.97775 0.90782 0.904 0.0
C1934 C 0.0252 0.864 0.89731 0.0
C1935 C 0.01848 0.88814 0.86776 0.0
C1936 C 0.00317 0.86694 0.88903 0.0
N1937 N -0.00057 0.8778 0.87335 0.0
C1938 C 0.04157 0.8871 0.8772 0.0
C1939 C 0.0447 0.87451 0.89172 0.0
C1940 C 0.966 0.86666 0.80502 0.0
C1941 C 0.89694 0.79787 0.75807 0.0
C1942 C 0.89108 0.83675 0.74999 0.0
C1943 C 0.88481 0.81403 0.72895 0.0
C1944 C 0.88726 0.79419 0.7329 0.0
N1945 N 0.90364 0.84196 0.77522 0.0
C1946 C 0.90556 0.82203 0.77903 0.0
Co1947 Co 0.86468 0.60403 0.03057 0.0
Co1948 Co 0.90476 0.58889 0.00847 0.0
O1949 O 0.88097 0.58276 0.02264 0.0
C1950 C 0.86044 0.59802 0.07638 0.0
O1951 O 0.8731 0.6004 0.09931 0.0
C1952 C 0.86588 0.53137 0.97163 0.0
O1953 O 0.84751 0.53725 0.97136 0.0
O1954 O 0.87823 0.5876 0.97855 0.0
O1955 O 0.85681 0.6031 0.99685 0.0
H1956 H 0.96343 0.64169 0.98546 0.0
H1957 H 0.85013 0.55272 0.02797 0.0
O1958 O 0.87352 0.60423 0.06516 0.0
H1959 H 0.76754 0.53926 0.96465 0.0
H1960 H 0.86676 0.68052 0.09388 0.0
H1961 H 0.82805 0.61995 0.00054 0.0
H1962 H 0.80643 0.58176 0.99056 0.0
H1963 H 0.87897 0.64719 0.08001 0.0
O1964 O 0.89006 0.54943 0.98655 0.0
H1965 H 0.92349 0.6244 0.98849 0.0
H1966 H 0.93859 0.5667 0.00056 0.0
H1967 H 0.81367 0.65132 0.01346 0.0
H1968 H 0.81107 0.50884 0.00097 0.0
H1969 H 0.83318 0.68245 0.06061 0.0
H1970 H 0.76906 0.50195 0.9694 0.0
O1971 O 0.89823 0.63754 0.04834 0.0
H1972 H 0.93355 0.55803 0.07173 0.0
H1973 H 0.96145 0.6272 0.04922 0.0
H1974 H 0.99314 0.6302 0.08816 0.0
H1975 H 0.97917 0.59571 0.09982 0.0
H1976 H 0.90266 0.55543 0.03266 0.0
H1977 H 0.97861 0.58331 0.99769 0.0
H1978 H 0.99244 0.62251 0.99233 0.0
O1979 O 0.91955 0.62799 0.02764 0.0
C1980 C 0.86138 0.59513 0.97806 0.0
C1981 C 0.95794 0.62502 0.98846 0.0
C1982 C 0.96642 0.59219 0.9952 0.0
N1983 N 0.92912 0.59505 0.99545 0.0
C1984 C 0.93521 0.61499 0.98998 0.0
C1985 C 0.94352 0.58265 0.99648 0.0
C1986 C 0.97408 0.61408 0.99206 0.0
C1987 C 0.83218 0.55011 0.01415 0.0
N1988 N 0.83123 0.57101 0.01211 0.0
C1989 C 0.80999 0.52504 0.9989 0.0
C1990 C 0.78648 0.52113 0.98123 0.0
C1991 C 0.78555 0.54212 0.97877 0.0
C1992 C 0.8081 0.56683 0.99423 0.0
C1993 C 0.85697 0.6662 0.07329 0.0
C1994 C 0.83428 0.63062 0.02097 0.0
C1995 C 0.86331 0.6466 0.0652 0.0
N1996 N 0.85053 0.62755 0.03935 0.0
C1997 C 0.82698 0.64959 0.02828 0.0
C1998 C 0.83821 0.6673 0.05468 0.0
C1999 C 0.91533 0.64445 0.0416 0.0
C2000 C 0.9399 0.57321 0.06685 0.0
C2001 C 0.95528 0.61192 0.054 0.0
C2002 C 0.97329 0.61382 0.07614 0.0
C2003 C 0.96546 0.59438 0.08263 0.0
N2004 N 0.9303 0.59096 0.03848 0.0
C2005 C 0.92252 0.57179 0.04469 0.0
Co2006 Co 0.84024 0.30792 0.37095 0.0
Co2007 Co 0.84903 0.28341 0.31651 0.0
O2008 O 0.85923 0.31181 0.35097 0.0
C2009 C 0.85863 0.36364 0.3794 0.0
O2010 O 0.87533 0.36194 0.37163 0.0
C2011 C 0.90424 0.29811 0.35051 0.0
O2012 O 0.90024 0.30154 0.37042 0.0
O2013 O 0.84623 0.25901 0.33077 0.0
O2014 O 0.82885 0.26881 0.35609 0.0
H2015 H 0.7921 0.19269 0.23574 0.0
H2016 H 0.89645 0.35308 0.40335 0.0
O2017 O 0.84635 0.34572 0.38344 0.0
H2018 H 0.89323 0.29577 0.44176 0.0
H2019 H 0.82919 0.3357 0.45039 0.0
H2020 H 0.78729 0.26972 0.35763 0.0
H2021 H 0.85362 0.28436 0.40364 0.0
H2022 H 0.85227 0.34025 0.42542 0.0
O2023 O 0.88628 0.29171 0.32844 0.0
H2024 H 0.80186 0.23054 0.27518 0.0
H2025 H 0.8768 0.27428 0.28563 0.0
H2026 H 0.76338 0.26487 0.38156 0.0
H2027 H 0.93617 0.3654 0.44146 0.0
H2028 H 0.78441 0.29809 0.42842 0.0
H2029 H 0.9349 0.33668 0.4611 0.0
O2030 O 0.80778 0.29673 0.34083 0.0
H2031 H 0.9151 0.38081 0.34989 0.0
H2032 H 0.81081 0.31159 0.25893 0.0
H2033 H 0.83853 0.36395 0.27553 0.0
H2034 H 0.8899 0.39733 0.31942 0.0
H2035 H 0.8965 0.33317 0.34302 0.0
H2036 H 0.86815 0.23683 0.24804 0.0
H2037 H 0.82533 0.19581 0.22232 0.0
O2038 O 0.81017 0.27023 0.30802 0.0
C2039 C 0.83101 0.25193 0.33954 0.0
C2040 C 0.81073 0.21065 0.24704 0.0
C2041 C 0.85349 0.23526 0.25385 0.0
N2042 N 0.84014 0.25457 0.28371 0.0
C2043 C 0.81642 0.23205 0.26937 0.0
C2044 C 0.85846 0.25631 0.27579 0.0
C2045 C 0.82947 0.21228 0.23942 0.0
C2046 C 0.89533 0.34051 0.41159 0.0
N2047 N 0.87241 0.31804 0.40104 0.0
C2048 C 0.91811 0.34756 0.43328 0.0
C2049 C 0.91741 0.33143 0.44426 0.0
C2050 C 0.89406 0.30847 0.43339 0.0
C2051 C 0.8717 0.30203 0.41165 0.0
C2052 C 0.81991 0.3212 0.43 0.0
C2053 C 0.79678 0.284 0.37801 0.0
C2054 C 0.83295 0.32346 0.41582 0.0
N2055 N 0.8216 0.30462 0.39027 0.0
C2056 C 0.78302 0.2813 0.39146 0.0
C2057 C 0.79478 0.29998 0.41769 0.0
C2058 C 0.79698 0.27749 0.31798 0.0
C2059 C 0.89774 0.36615 0.33178 0.0
C2060 C 0.83133 0.322 0.27414 0.0
C2061 C 0.84864 0.3558 0.28444 0.0
C2062 C 0.88085 0.37647 0.31234 0.0
N2063 N 0.85534 0.3107 0.30206 0.0
C2064 C 0.88561 0.33425 0.32655 0.0
Co2065 Co 0.81666 0.45472 0.46611 0.0
Co2066 Co 0.80488 0.4906 0.43617 0.0
O2067 O 0.80792 0.4818 0.4641 0.0
C2068 C 0.77735 0.45106 0.48437 0.0
O2069 O 0.76631 0.45944 0.46984 0.0
C2070 C 0.83118 0.54814 0.45971 0.0
O2071 O 0.84779 0.5459 0.45182 0.0
O2072 O 0.84334 0.49902 0.44635 0.0
O2073 O 0.84173 0.46596 0.45421 0.0
H2074 H 0.79746 0.47883 0.34945 0.0
H2075 H 0.82193 0.49868 0.51 0.0
O2076 O 0.79282 0.4434 0.48021 0.0
H2077 H 0.90645 0.50129 0.54673 0.0
H2078 H 0.8409 0.40271 0.50707 0.0
H2079 H 0.82863 0.41911 0.43319 0.0
H2080 H 0.8714 0.46722 0.50209 0.0
H2081 H 0.82533 0.43319 0.50299 0.0
O2082 O 0.81659 0.5287 0.46061 0.0
H2083 H 0.81588 0.47798 0.39147 0.0
H2084 H 0.77937 0.51852 0.4182 0.0
H2085 H 0.84392 0.38805 0.43629 0.0
H2086 H 0.85631 0.53261 0.55511 0.0
H2087 H 0.85159 0.38092 0.4743 0.0
H2088 H 0.89916 0.53441 0.57386 0.0
O2089 O 0.78836 0.42785 0.42811 0.0
H2090 H 0.73416 0.49279 0.45717 0.0
H2091 H 0.75252 0.45571 0.38697 0.0
H2092 H 0.70665 0.44084 0.37661 0.0
H2093 H 0.69722 0.45949 0.41191 0.0
H2094 H 0.7797 0.50608 0.4668 0.0
H2095 H 0.76522 0.52323 0.37942 0.0
H2096 H 0.77403 0.5027 0.34437 0.0
O2097 O 0.79229 0.45374 0.41023 0.0
C2098 C 0.85394 0.48558 0.45243 0.0
C2099 C 0.79528 0.48883 0.36553 0.0
C2100 C 0.77645 0.51338 0.38184 0.0
N2101 N 0.79941 0.49866 0.40771 0.0
C2102 C 0.80501 0.48804 0.38887 0.0
C2103 C 0.78515 0.51108 0.40416 0.0
C2104 C 0.7814 0.50193 0.36227 0.0
C2105 C 0.84036 0.49902 0.51765 0.0
N2106 N 0.84445 0.4809 0.50254 0.0
C2107 C 0.85985 0.51844 0.54342 0.0
C2108 C 0.88386 0.51944 0.55394 0.0
C2109 C 0.88797 0.50093 0.5387 0.0
C2110 C 0.86798 0.48173 0.51305 0.0
C2111 C 0.83791 0.40594 0.49057 0.0
C2112 C 0.83081 0.41528 0.44915 0.0
C2113 C 0.82876 0.42303 0.48799 0.0
N2114 N 0.82596 0.42813 0.46784 0.0
C2115 C 0.83975 0.39785 0.45094 0.0
C2116 C 0.84376 0.39357 0.47209 0.0
C2117 C 0.78397 0.43114 0.40813 0.0
C2118 C 0.738 0.4844 0.44164 0.0
C2119 C 0.74854 0.4632 0.40254 0.0
C2120 C 0.72254 0.4551 0.3965 0.0
C2121 C 0.71728 0.46567 0.41627 0.0
N2122 N 0.76879 0.48109 0.4276 0.0
C2123 C 0.76378 0.49199 0.44694 0.0
Co2124 Co 0.83796 0.49732 0.767 0.0
Co2125 Co 0.80964 0.49039 0.80499 0.0
O2126 O 0.80627 0.49239 0.77022 0.0
C2127 C 0.87339 0.55521 0.78836 0.0
O2128 O 0.89364 0.55335 0.80087 0.0
C2129 C 0.75195 0.44275 0.75064 0.0
O2130 O 0.74452 0.42352 0.72793 0.0
O2131 O 0.80916 0.45705 0.78121 0.0
O2132 O 0.82714 0.46113 0.7566 0.0
H2133 H 0.87259 0.46495 0.85442 0.0
H2134 H 0.79207 0.49571 0.73042 0.0
O2135 O 0.84981 0.53568 0.77609 0.0
H2136 H 0.8183 0.44865 0.67367 0.0
H2137 H 0.91102 0.52393 0.74541 0.0
H2138 H 0.87516 0.48108 0.7886 0.0
H2139 H 0.84036 0.46417 0.72076 0.0
H2140 H 0.87032 0.52058 0.7449 0.0
O2141 O 0.77726 0.4578 0.76698 0.0
H2142 H 0.86017 0.48893 0.83463 0.0
H2143 H 0.78018 0.43225 0.79562 0.0
H2144 H 0.91535 0.4833 0.78881 0.0
H2145 H 0.76982 0.48174 0.68333 0.0
H2146 H 0.93384 0.50524 0.76751 0.0
H2147 H 0.78289 0.45773 0.65452 0.0
O2148 O 0.85179 0.50675 0.80496 0.0
H2149 H 0.75434 0.54512 0.84536 0.0
H2150 H 0.83939 0.55137 0.87772 0.0
H2151 H 0.83356 0.5831 0.90348 0.0
H2152 H 0.79113 0.5819 0.88812 0.0
H2153 H 0.75889 0.5149 0.8162 0.0
H2154 H 0.79152 0.41029 0.81977 0.0
H2155 H 0.83857 0.42517 0.84704 0.0
O2156 O 0.84928 0.50603 0.80675 0.0
C2157 C 0.81582 0.44751 0.76438 0.0
C2158 C 0.85207 0.45816 0.84225 0.0
C2159 C 0.80672 0.42751 0.8229 0.0
N2160 N 0.81894 0.46418 0.81511 0.0
C2161 C 0.84477 0.47186 0.83054 0.0
C2162 C 0.80017 0.44107 0.81051 0.0
C2163 C 0.83289 0.43598 0.83849 0.0
C2164 C 0.79934 0.48768 0.71848 0.0
N2165 N 0.8204 0.48494 0.72935 0.0
C2166 C 0.78604 0.47875 0.69161 0.0
C2167 C 0.7933 0.46519 0.67542 0.0
C2168 C 0.81321 0.46019 0.68616 0.0
C2169 C 0.82611 0.46967 0.71313 0.0
C2170 C 0.90327 0.51451 0.75495 0.0
C2171 C 0.88283 0.49041 0.77899 0.0
C2172 C 0.8803 0.51268 0.75487 0.0
N2173 N 0.87057 0.50118 0.76728 0.0
C2174 C 0.90566 0.49162 0.77921 0.0
C2175 C 0.91603 0.50397 0.76729 0.0
C2176 C 0.87237 0.52791 0.82242 0.0
C2177 C 0.77324 0.54709 0.85152 0.0
C2178 C 0.82009 0.54883 0.86788 0.0
C2179 C 0.81725 0.5679 0.88417 0.0
C2180 C 0.79372 0.56728 0.87577 0.0
N2181 N 0.80058 0.52899 0.84154 0.0
C2182 C 0.77668 0.52899 0.83484 0.0
Co2183 Co 0.60734 0.44978 0.03821 0.0
Co2184 Co 0.55069 0.39258 0.01441 0.0
O2185 O 0.58379 0.41232 0.01632 0.0
C2186 C 0.60247 0.46178 0.99494 0.0
O2187 O 0.58417 0.46715 0.99607 0.0
C2188 C 0.57358 0.35811 0.00522 0.0
O2189 O 0.57902 0.36556 0.98944 0.0
O2190 O 0.56769 0.41019 0.05326 0.0
O2191 O 0.60389 0.44788 0.06801 0.0
H2192 H 0.4747 0.38167 0.03095 0.0
H2193 H 0.62276 0.41397 0.01055 0.0
O2194 O 0.6112 0.45161 0.00795 0.0
H2195 H 0.69081 0.46349 0.10397 0.0
H2196 H 0.68398 0.53541 0.06795 0.0
H2197 H 0.60622 0.49362 0.07482 0.0
H2198 H 0.65436 0.47206 0.08905 0.0
H2199 H 0.65783 0.48725 0.04608 0.0
O2200 O 0.56167 0.36646 0.01578 0.0
H2201 H 0.51273 0.40464 0.02843 0.0
H2202 H 0.52062 0.33682 0.00489 0.0
H2203 H 0.6306 0.54177 0.09517 0.0
H2204 H 0.65843 0.40391 0.02482 0.0
H2205 H 0.67004 0.56301 0.09226 0.0
H2206 H 0.69297 0.42909 0.07175 0.0
O2207 O 0.57788 0.45643 0.02918 0.0
H2208 H 0.54083 0.38986 0.93008 0.0
H2209 H 0.51158 0.33627 0.96776 0.0
H2210 H 0.49421 0.31555 0.92061 0.0
H2211 H 0.50862 0.34224 0.90108 0.0
H2212 H 0.55686 0.41025 0.9773 0.0
H2213 H 0.48347 0.31381 0.00856 0.0
H2214 H 0.45975 0.33597 0.02154 0.0
O2215 O 0.54084 0.42073 0.01521 0.0
C2216 C 0.58875 0.43147 0.07157 0.0
C2217 C 0.48427 0.37149 0.02438 0.0
C2218 C 0.48923 0.33353 0.01194 0.0
N2219 N 0.51813 0.37197 0.01355 0.0
C2220 C 0.50563 0.38431 0.02192 0.0
C2221 C 0.51048 0.34697 0.00961 0.0
C2222 C 0.47598 0.34588 0.01924 0.0
C2223 C 0.63769 0.42485 0.03101 0.0
N2224 N 0.63671 0.44379 0.04885 0.0
C2225 C 0.65783 0.41912 0.03899 0.0
C2226 C 0.67719 0.43322 0.06534 0.0
C2227 C 0.67603 0.45253 0.08342 0.0
C2228 C 0.65541 0.4574 0.07481 0.0
C2229 C 0.66698 0.52641 0.06962 0.0
C2230 C 0.62343 0.50272 0.07359 0.0
C2231 C 0.65225 0.49914 0.05755 0.0
N2232 N 0.63067 0.48759 0.05951 0.0
C2233 C 0.63722 0.52999 0.08525 0.0
C2234 C 0.6592 0.54189 0.08333 0.0
C2235 C 0.55379 0.445 0.02228 0.0
C2236 C 0.53413 0.378 0.93826 0.0
C2237 C 0.51771 0.34853 0.96006 0.0
C2238 C 0.50794 0.33641 0.93297 0.0
C2239 C 0.51609 0.35133 0.92202 0.0
N2240 N 0.5346 0.37499 0.97598 0.0
C2241 C 0.54333 0.38942 0.96521 0.0
Co2242 Co 0.85624 0.62827 0.37059 0.0
Co2243 Co 0.91693 0.67561 0.38894 0.0
O2244 O 0.88867 0.63947 0.36985 0.0
C2245 C 0.88378 0.60427 0.39366 0.0
O2246 O 0.90583 0.62596 0.40434 0.0
C2247 C 0.89674 0.65831 0.33246 0.0
O2248 O 0.87322 0.64429 0.32813 0.0
O2249 O 0.892 0.68911 0.38264 0.0
O2250 O 0.85129 0.65462 0.36147 0.0
H2251 H 0.9682 0.77127 0.45746 0.0
H2252 H 0.86545 0.58882 0.33866 0.0
O2253 O 0.86178 0.60196 0.38015 0.0
H2254 H 0.78636 0.58137 0.27588 0.0
H2255 H 0.7703 0.56205 0.35326 0.0
H2256 H 0.82803 0.65527 0.38567 0.0
H2257 H 0.80884 0.61323 0.32307 0.0
H2258 H 0.81332 0.57687 0.35557 0.0
O2259 O 0.91652 0.67221 0.35563 0.0
H2260 H 0.93026 0.72633 0.43088 0.0
H2261 H 0.96591 0.70179 0.38789 0.0
H2262 H 0.78412 0.64079 0.38084 0.0
H2263 H 0.8435 0.5566 0.29171 0.0
H2264 H 0.75524 0.59405 0.36552 0.0
H2265 H 0.80368 0.55275 0.25994 0.0
O2266 O 0.87436 0.65448 0.40861 0.0
H2267 H 0.94909 0.61468 0.35802 0.0
H2268 H 0.96547 0.68881 0.43518 0.0
H2269 H 0.9965 0.67163 0.43981 0.0
H2270 H 0.98811 0.63455 0.40091 0.0
H2271 H 0.91927 0.63244 0.3539 0.0
H2272 H 0.00418 0.74651 0.41384 0.0
H2273 H 0.00563 0.78154 0.44914 0.0
O2274 O 0.91702 0.68008 0.42251 0.0
C2275 C 0.86704 0.67864 0.37016 0.0
C2276 C 0.96786 0.75614 0.44222 0.0
C2277 C 0.98803 0.74226 0.41771 0.0
N2278 N 0.94598 0.71136 0.40809 0.0
C2279 C 0.94643 0.73064 0.42714 0.0
C2280 C 0.96625 0.717 0.40301 0.0
C2281 C 0.98884 0.76191 0.43752 0.0
C2282 C 0.84796 0.58706 0.32502 0.0
N2283 N 0.83826 0.60268 0.33364 0.0
C2284 C 0.83569 0.56887 0.29843 0.0
C2285 C 0.81337 0.56675 0.28061 0.0
C2286 C 0.80364 0.5828 0.28954 0.0
C2287 C 0.81645 0.6008 0.31628 0.0
C2288 C 0.78276 0.5825 0.3601 0.0
C2289 C 0.81524 0.63469 0.37784 0.0
C2290 C 0.80732 0.59108 0.3618 0.0
N2291 N 0.82321 0.6169 0.37054 0.0
C2292 C 0.79049 0.62667 0.37556 0.0
C2293 C 0.77428 0.60044 0.3669 0.0
C2294 C 0.8978 0.67234 0.42667 0.0
C2295 C 0.95296 0.63104 0.37505 0.0
C2296 C 0.96197 0.67266 0.41827 0.0
C2297 C 0.9795 0.66309 0.42103 0.0
C2298 C 0.97486 0.64218 0.39925 0.0
N2299 N 0.94088 0.66202 0.39424 0.0
C2300 C 0.93617 0.64129 0.37289 0.0
Co2301 Co 0.78277 0.56229 0.76973 0.0
Co2302 Co 0.83609 0.60938 0.84129 0.0
O2303 O 0.81453 0.59778 0.80205 0.0
C2304 C 0.81159 0.55871 0.74168 0.0
O2305 O 0.8119 0.54048 0.74719 0.0
C2306 C 0.82768 0.65242 0.83678 0.0
O2307 O 0.8263 0.6441 0.81383 0.0
O2308 O 0.80404 0.59826 0.84364 0.0
O2309 O 0.79807 0.5905 0.80556 0.0
H2310 H 0.89776 0.6057 0.91436 0.0
H2311 H 0.79622 0.61045 0.76411 0.0
O2312 O 0.80398 0.57334 0.75281 0.0
H2313 H 0.70236 0.56993 0.73757 0.0
H2314 H 0.72167 0.51059 0.67113 0.0
H2315 H 0.76531 0.5046 0.74814 0.0
H2316 H 0.72845 0.54997 0.75176 0.0
H2317 H 0.75212 0.55022 0.71403 0.0
O2318 O 0.83706 0.64444 0.85195 0.0
H2319 H 0.86283 0.58716 0.87031 0.0
H2320 H 0.85384 0.65441 0.8942 0.0
H2321 H 0.734 0.46432 0.70625 0.0
H2322 H 0.77104 0.63098 0.7499 0.0
H2323 H 0.71169 0.46694 0.66687 0.0
H2324 H 0.72371 0.61064 0.73638 0.0
O2325 O 0.80257 0.54559 0.78453 0.0
H2326 H 0.92091 0.68056 0.86221 0.0
H2327 H 0.87344 0.58865 0.83921 0.0
H2328 H 0.92006 0.60955 0.85479 0.0
H2329 H 0.9448 0.65629 0.86799 0.0
H2330 H 0.87422 0.65943 0.84685 0.0
H2331 H 0.8905 0.67467 0.9371 0.0
H2332 H 0.91361 0.65036 0.94802 0.0
O2333 O 0.83018 0.57237 0.829 0.0
C2334 C 0.78748 0.58908 0.82048 0.0
C2335 C 0.88845 0.61666 0.90981 0.0
C2336 C 0.88464 0.65536 0.92263 0.0
N2337 N 0.85658 0.6199 0.8782 0.0
C2338 C 0.86807 0.60603 0.88464 0.0
C2339 C 0.8636 0.64362 0.89761 0.0
C2340 C 0.89735 0.64185 0.92869 0.0
C2341 C 0.77569 0.60151 0.75832 0.0
N2342 N 0.76368 0.57901 0.75868 0.0
C2343 C 0.76151 0.61322 0.75028 0.0
C2344 C 0.73496 0.60183 0.74275 0.0
C2345 C 0.72297 0.57902 0.74344 0.0
C2346 C 0.73779 0.56792 0.75166 0.0
C2347 C 0.73036 0.50902 0.68829 0.0
C2348 C 0.7543 0.50611 0.73225 0.0
C2349 C 0.74753 0.53155 0.713 0.0
N2350 N 0.75866 0.53002 0.73508 0.0
C2351 C 0.73708 0.48308 0.70797 0.0
C2352 C 0.72479 0.48457 0.68588 0.0
C2353 C 0.81797 0.55026 0.80762 0.0
C2354 C 0.9104 0.66027 0.85703 0.0
C2355 C 0.88311 0.60875 0.844 0.0
C2356 C 0.90999 0.62055 0.85296 0.0
C2357 C 0.9238 0.64668 0.86017 0.0
N2358 N 0.86989 0.6224 0.84204 0.0
C2359 C 0.88346 0.64784 0.84795 0.0
Co2360 Co 0.84872 0.97925 0.8677 0.0
Co2361 Co 0.80487 0.92745 0.86505 0.0
O2362 O 0.83319 0.94471 0.86048 0.0
C2363 C 0.83261 0.973 0.81463 0.0
O2364 O 0.82654 0.99123 0.82265 0.0
C2365 C 0.8359 0.90004 0.88646 0.0
O2366 O 0.85217 0.92057 0.91007 0.0
O2367 O 0.82749 0.95222 0.9035 0.0
O2368 O 0.84945 0.98925 0.90249 0.0
H2369 H 0.70058 0.86982 0.83785 0.0
H2370 H 0.87636 0.95694 0.84351 0.0
O2371 O 0.84343 0.9664 0.83072 0.0
H2372 H 0.92933 0.99267 0.93816 0.0
H2373 H 0.90009 0.05068 0.85575 0.0
H2374 H 0.84354 0.02535 0.89239 0.0
H2375 H 0.89365 0.00147 0.9217 0.0
H2376 H 0.88746 0.00916 0.85649 0.0
O2377 O 0.81887 0.90174 0.86913 0.0
H2378 H 0.74415 0.91624 0.8531 0.0
H2379 H 0.80186 0.89476 0.89702 0.0
H2380 H 0.8581 0.06839 0.89484 0.0
H2381 H 0.91403 0.95122 0.85985 0.0
H2382 H 0.88581 0.08088 0.87552 0.0
H2383 H 0.94055 0.96831 0.90748 0.0
O2384 O 0.81452 0.97762 0.85358 0.0
H2385 H 0.7901 0.88024 0.76251 0.0
H2386 H 0.74416 0.91146 0.81967 0.0
H2387 H 0.71113 0.87581 0.76615 0.0
H2388 H 0.73469 0.86015 0.73615 0.0
H2389 H 0.81943 0.91643 0.81651 0.0
H2390 H 0.76225 0.84484 0.87991 0.0
H2391 H 0.7098 0.83303 0.85203 0.0
O2392 O 0.79099 0.95168 0.86421 0.0
C2393 C 0.84013 0.9775 0.91369 0.0
C2394 C 0.71967 0.8714 0.84457 0.0
C2395 C 0.75796 0.85664 0.8717 0.0
N2396 N 0.77646 0.90552 0.86916 0.0
C2397 C 0.74696 0.90015 0.85326 0.0
C2398 C 0.78341 0.88663 0.88011 0.0
C2399 C 0.72549 0.84915 0.85401 0.0
C2400 C 0.88831 0.96613 0.86441 0.0
N2401 N 0.88229 0.97997 0.88141 0.0
C2402 C 0.90958 0.96223 0.87353 0.0
C2403 C 0.92438 0.97171 0.9002 0.0
C2404 C 0.9182 0.98557 0.91742 0.0
C2405 C 0.89752 0.99017 0.90776 0.0
C2406 C 0.88815 0.04556 0.86438 0.0
C2407 C 0.85714 0.0315 0.88576 0.0
C2408 C 0.88116 0.02218 0.86512 0.0
N2409 N 0.86538 0.01517 0.87522 0.0
C2410 C 0.86477 0.05559 0.88652 0.0
C2411 C 0.88018 0.06251 0.87553 0.0
C2412 C 0.79497 0.96835 0.85649 0.0
C2413 C 0.78029 0.88358 0.77361 0.0
C2414 C 0.75169 0.9005 0.81077 0.0
C2415 C 0.73133 0.88049 0.77584 0.0
C2416 C 0.74615 0.87166 0.75731 0.0
N2417 N 0.78338 0.90995 0.825 0.0
C2418 C 0.79867 0.90445 0.80827 0.0
Co2419 Co 0.38747 0.8587 0.33248 0.0
Co2420 Co 0.33031 0.86158 0.30398 0.0
O2421 O 0.36349 0.87294 0.3344 0.0
C2422 C 0.42779 0.89378 0.39345 0.0
O2423 O 0.44308 0.91082 0.38992 0.0
C2424 C 0.35854 0.91564 0.31175 0.0
O2425 O 0.37085 0.90885 0.29973 0.0
O2426 O 0.34682 0.85897 0.28074 0.0
O2427 O 0.37105 0.84181 0.29271 0.0
H2428 H 0.27239 0.82358 0.20797 0.0
H2429 H 0.40318 0.91533 0.36065 0.0
O2430 O 0.40537 0.87358 0.37358 0.0
H2431 H 0.44983 0.91009 0.31078 0.0
H2432 H 0.47319 0.85743 0.35955 0.0
H2433 H 0.3774 0.80502 0.30166 0.0
H2434 H 0.42149 0.87051 0.30919 0.0
H2435 H 0.44625 0.8781 0.36051 0.0
O2436 O 0.34265 0.89933 0.31463 0.0
H2437 H 0.29616 0.82098 0.24787 0.0
H2438 H 0.29895 0.88877 0.29582 0.0
H2439 H 0.40374 0.78358 0.30003 0.0
H2440 H 0.43057 0.95516 0.36199 0.0
H2441 H 0.4521 0.80971 0.32919 0.0
H2442 H 0.45466 0.95289 0.33742 0.0
O2443 O 0.35881 0.82558 0.32442 0.0
H2444 H 0.34492 0.92316 0.39708 0.0
H2445 H 0.26273 0.81568 0.31885 0.0
H2446 H 0.26998 0.83962 0.36789 0.0
H2447 H 0.30914 0.8924 0.40582 0.0
H2448 H 0.34937 0.90747 0.35409 0.0
H2449 H 0.27451 0.89095 0.25763 0.0
H2450 H 0.2609 0.85812 0.2133 0.0
O2451 O 0.32505 0.82362 0.29267 0.0
C2452 C 0.35514 0.84296 0.27452 0.0
C2453 C 0.27755 0.83719 0.22732 0.0
C2454 C 0.27861 0.87511 0.25505 0.0
N2455 N 0.30004 0.85484 0.27387 0.0
C2456 C 0.29119 0.83595 0.24949 0.0
C2457 C 0.29276 0.87369 0.27666 0.0
C2458 C 0.27123 0.85686 0.23021 0.0
C2459 C 0.41354 0.91402 0.34986 0.0
N2460 N 0.4121 0.89075 0.33635 0.0
C2461 C 0.42913 0.93675 0.35079 0.0
C2462 C 0.44259 0.93546 0.33697 0.0
C2463 C 0.44001 0.91149 0.32215 0.0
C2464 C 0.42424 0.88918 0.32169 0.0
C2465 C 0.4521 0.84575 0.34689 0.0
C2466 C 0.39831 0.81677 0.3145 0.0
C2467 C 0.43655 0.8574 0.34756 0.0
N2468 N 0.4099 0.84305 0.33138 0.0
C2469 C 0.4132 0.80439 0.31345 0.0
C2470 C 0.44029 0.81902 0.3298 0.0
C2471 C 0.33586 0.8126 0.30362 0.0
C2472 C 0.32989 0.90447 0.38114 0.0
C2473 C 0.27799 0.8364 0.33153 0.0
C2474 C 0.28134 0.85146 0.36278 0.0
C2475 C 0.30658 0.88451 0.38632 0.0
N2476 N 0.31053 0.86412 0.32711 0.0
C2477 C 0.33161 0.89461 0.35224 0.0
Co2478 Co 0.61278 0.03201 0.87832 0.0
Co2479 Co 0.59673 0.99723 0.90804 0.0
O2480 O 0.58788 0.01513 0.88873 0.0
C2481 C 0.58714 0.06562 0.87123 0.0
O2482 O 0.58408 0.08507 0.88332 0.0
C2483 C 0.53609 0.96831 0.8783 0.0
O2484 O 0.5368 0.98505 0.86991 0.0
O2485 O 0.59555 0.97276 0.87674 0.0
O2486 O 0.62183 0.00379 0.8722 0.0
H2487 H 0.65616 0.96427 0.94046 0.0
H2488 H 0.55892 0.98336 0.84602 0.0
O2489 O 0.60192 0.05972 0.88512 0.0
H2490 H 0.58131 0.99677 0.78198 0.0
H2491 H 0.66893 0.10992 0.87604 0.0
H2492 H 0.64437 0.01846 0.85277 0.0
H2493 H 0.60715 0.03075 0.82671 0.0
H2494 H 0.64158 0.08752 0.89049 0.0
O2495 O 0.55777 0.97088 0.89368 0.0
H2496 H 0.63108 0.97382 0.90931 0.0
H2497 H 0.5905 0.98742 0.94963 0.0
H2498 H 0.67353 0.04127 0.84018 0.0
H2499 H 0.52733 0.95373 0.79992 0.0
H2500 H 0.68464 0.08662 0.85001 0.0
H2501 H 0.53899 0.9591 0.76702 0.0
O2502 O 0.64235 0.05291 0.91529 0.0
H2503 H 0.56163 0.0495 0.95076 0.0
H2504 H 0.6371 0.03525 0.966 0.0
H2505 H 0.6388 0.06881 0.00238 0.0
H2506 H 0.60104 0.07596 0.99503 0.0
H2507 H 0.56071 0.01708 0.91505 0.0
H2508 H 0.61814 0.98139 0.98412 0.0
H2509 H 0.6509 0.96959 0.97927 0.0
O2510 O 0.63457 0.01989 0.92277 0.0
C2511 C 0.60919 0.98007 0.86651 0.0
C2512 C 0.64163 0.96911 0.94268 0.0
C2513 C 0.62031 0.97889 0.96713 0.0
N2514 N 0.60863 0.9807 0.92732 0.0
C2515 C 0.6266 0.97377 0.92448 0.0
C2516 C 0.6047 0.98213 0.94772 0.0
C2517 C 0.63883 0.97228 0.9645 0.0
C2518 C 0.56311 0.98826 0.83257 0.0
N2519 N 0.58556 0.01024 0.84084 0.0
C2520 C 0.54545 0.97025 0.80599 0.0
C2521 C 0.552 0.97306 0.78757 0.0
C2522 C 0.57543 0.99435 0.79583 0.0
C2523 C 0.59108 0.01337 0.82218 0.0
C2524 C 0.66328 0.0897 0.87063 0.0
C2525 C 0.64971 0.03858 0.85851 0.0
C2526 C 0.64731 0.0766 0.87845 0.0
N2527 N 0.63902 0.05068 0.87076 0.0
C2528 C 0.66611 0.05128 0.8508 0.0
C2529 C 0.67223 0.0767 0.85619 0.0
C2530 C 0.65045 0.04157 0.92687 0.0
C2531 C 0.57818 0.0463 0.95438 0.0
C2532 C 0.62035 0.03806 0.96237 0.0
C2533 C 0.62156 0.05715 0.98321 0.0
C2534 C 0.60031 0.0612 0.97914 0.0
N2535 N 0.5982 0.02289 0.93807 0.0
C2536 C 0.57759 0.02741 0.93406 0.0
Co2537 Co 0.354 0.2699 0.89193 0.0
Co2538 Co 0.39809 0.2544 0.9271 0.0
O2539 O 0.36313 0.25051 0.91004 0.0
C2540 C 0.3294 0.2722 0.92513 0.0
O2541 O 0.35239 0.28123 0.945 0.0
C2542 C 0.36408 0.19534 0.90621 0.0
O2543 O 0.34168 0.19486 0.90058 0.0
O2544 O 0.40115 0.24883 0.89481 0.0
O2545 O 0.38012 0.2681 0.8804 0.0
H2546 H 0.49243 0.28978 0.94962 0.0
H2547 H 0.31231 0.22244 0.8836 0.0
O2548 O 0.32732 0.26932 0.9032 0.0
H2549 H 0.32323 0.19274 0.8065 0.0
H2550 H 0.27174 0.24672 0.80752 0.0
H2551 H 0.37702 0.33913 0.87127 0.0
H2552 H 0.34043 0.23946 0.83466 0.0
H2553 H 0.29966 0.2504 0.85411 0.0
O2554 O 0.38487 0.21612 0.91451 0.0
H2555 H 0.44815 0.28421 0.93005 0.0
H2556 H 0.42301 0.2338 0.95902 0.0
H2557 H 0.345 0.334 0.82823 0.0
H2558 H 0.29522 0.17572 0.85603 0.0
H2559 H 0.31827 0.30366 0.81985 0.0
H2560 H 0.30525 0.16141 0.82038 0.0
O2561 O 0.38259 0.30358 0.92633 0.0
H2562 H 0.3522 0.23858 0.97821 0.0
H2563 H 0.43505 0.29103 0.98416 0.0
H2564 H 0.43331 0.29839 0.02473 0.0
H2565 H 0.39167 0.27186 0.02192 0.0
H2566 H 0.35485 0.23229 0.93854 0.0
H2567 H 0.46711 0.23905 0.97908 0.0
H2568 H 0.50227 0.26746 0.97466 0.0
O2569 O 0.41314 0.29233 0.94076 0.0
C2570 C 0.39493 0.25828 0.88011 0.0
C2571 C 0.47742 0.2778 0.95211 0.0
C2572 C 0.46316 0.24919 0.96851 0.0
N2573 N 0.43313 0.25926 0.94392 0.0
C2574 C 0.45232 0.27464 0.94116 0.0
C2575 C 0.43821 0.2463 0.95709 0.0
C2576 C 0.48288 0.26512 0.96602 0.0
C2577 C 0.31415 0.2163 0.86631 0.0
N2578 N 0.32861 0.23439 0.86172 0.0
C2579 C 0.3049 0.18968 0.85109 0.0
C2580 C 0.31003 0.18153 0.83073 0.0
C2581 C 0.32078 0.19928 0.82345 0.0
C2582 C 0.33013 0.22585 0.83934 0.0
C2583 C 0.29112 0.2637 0.82107 0.0
C2584 C 0.35761 0.32219 0.86134 0.0
C2585 C 0.30961 0.26487 0.84997 0.0
N2586 N 0.3407 0.28852 0.87054 0.0
C2587 C 0.33469 0.31696 0.83141 0.0
C2588 C 0.30177 0.2872 0.81174 0.0
C2589 C 0.40577 0.30924 0.94219 0.0
C2590 C 0.37067 0.24981 0.97975 0.0
C2591 C 0.41704 0.27908 0.98277 0.0
C2592 C 0.4161 0.28347 0.00582 0.0
C2593 C 0.39275 0.26859 0.00425 0.0
N2594 N 0.39561 0.25991 0.95875 0.0
C2595 C 0.37244 0.24589 0.95716 0.0
Co2596 Co 0.55552 0.7614 0.78856 0.0
Co2597 Co 0.60622 0.82595 0.83249 0.0
O2598 O 0.5911 0.78834 0.81733 0.0
C2599 C 0.53842 0.72641 0.80966 0.0
O2600 O 0.51825 0.72977 0.80471 0.0
C2601 C 0.6328 0.80932 0.80453 0.0
O2602 O 0.60929 0.79187 0.78468 0.0
O2603 O 0.58966 0.82214 0.79837 0.0
O2604 O 0.55458 0.78224 0.76935 0.0
H2605 H 0.64045 0.91912 0.89929 0.0
H2606 H 0.59643 0.74603 0.80286 0.0
O2607 O 0.55617 0.7388 0.80572 0.0
H2608 H 0.56444 0.72089 0.70977 0.0
H2609 H 0.48866 0.66667 0.72067 0.0
H2610 H 0.50391 0.75661 0.7601 0.0
H2611 H 0.54643 0.74187 0.73399 0.0
H2612 H 0.53136 0.70318 0.75794 0.0
O2613 O 0.63609 0.82542 0.8262 0.0
H2614 H 0.61048 0.87159 0.87512 0.0
H2615 H 0.63711 0.86225 0.82003 0.0
H2616 H 0.46067 0.72024 0.71998 0.0
H2617 H 0.61465 0.72467 0.77916 0.0
H2618 H 0.45313 0.67535 0.70092 0.0
H2619 H 0.59867 0.71196 0.7323 0.0
O2620 O 0.54113 0.78117 0.80876 0.0
H2621 H 0.68761 0.86449 0.91713 0.0
H2622 H 0.59222 0.8285 0.87529 0.0
H2623 H 0.61848 0.85279 0.9227 0.0
H2624 H 0.66688 0.87303 0.94425 0.0
H2625 H 0.66107 0.8402 0.86966 0.0
H2626 H 0.66532 0.91006 0.84219 0.0
H2627 H 0.66687 0.9386 0.88184 0.0
O2628 O 0.57324 0.8242 0.83455 0.0
C2629 C 0.57006 0.80574 0.77583 0.0
C2630 C 0.63997 0.90669 0.88202 0.0
C2631 C 0.65374 0.90161 0.84981 0.0
N2632 N 0.62305 0.86372 0.84697 0.0
C2633 C 0.62328 0.87959 0.86842 0.0
C2634 C 0.63764 0.87453 0.83735 0.0
C2635 C 0.65496 0.91767 0.87236 0.0
C2636 C 0.58912 0.74028 0.78239 0.0
N2637 N 0.57016 0.745 0.76981 0.0
C2638 C 0.59964 0.72833 0.76911 0.0
C2639 C 0.59071 0.72126 0.74282 0.0
C2640 C 0.57153 0.72629 0.73018 0.0
C2641 C 0.5615 0.73831 0.74406 0.0
C2642 C 0.49184 0.68644 0.72866 0.0
C2643 C 0.50076 0.73722 0.75033 0.0
C2644 C 0.51604 0.70736 0.74995 0.0
N2645 N 0.5205 0.7326 0.76025 0.0
C2646 C 0.47635 0.71677 0.72847 0.0
C2647 C 0.47198 0.6913 0.7176 0.0
C2648 C 0.54941 0.80579 0.82481 0.0
C2649 C 0.66655 0.85637 0.90789 0.0
C2650 C 0.61291 0.83555 0.88374 0.0
C2651 C 0.62785 0.84982 0.91105 0.0
C2652 C 0.65495 0.86111 0.92311 0.0
N2653 N 0.62446 0.83266 0.8685 0.0
C2654 C 0.651 0.842 0.88058 0.0
Co2655 Co 0.72692 0.15795 0.98794 0.0
Co2656 Co 0.74669 0.20335 0.05 0.0
O2657 O 0.72799 0.18763 0.01217 0.0
C2658 C 0.74786 0.19818 0.97475 0.0
O2659 O 0.76592 0.21437 -0.00049 0.0
C2660 C 0.69266 0.19167 0.0346 0.0
O2661 O 0.6859 0.16816 0.01739 0.0
O2662 O 0.72916 0.16881 0.04681 0.0
O2663 O 0.72417 0.14015 0.00935 0.0
H2664 H 0.79625 0.2106 0.13653 0.0
H2665 H 0.68847 0.17226 0.96212 0.0
O2666 O 0.73021 0.17554 0.96722 0.0
H2667 H 0.63517 0.08573 0.94943 0.0
H2668 H 0.717 0.10934 0.9012 0.0
H2669 H 0.75163 0.12567 0.99144 0.0
H2670 H 0.6832 0.10596 0.97011 0.0
H2671 H 0.70238 0.13045 0.92978 0.0
O2672 O 0.71683 0.20911 0.04999 0.0
H2673 H 0.77721 0.19278 0.08893 0.0
H2674 H 0.75293 0.24896 0.09268 0.0
H2675 H 0.76538 0.10305 0.96284 0.0
H2676 H 0.64022 0.15082 0.93793 0.0
H2677 H 0.74842 0.09517 0.91753 0.0
H2678 H 0.61343 0.10828 0.93343 0.0
O2679 O 0.76584 0.17502 0.00819 0.0
H2680 H 0.75165 0.27485 0.0283 0.0
H2681 H 0.80237 0.24579 0.07905 0.0
H2682 H 0.82559 0.28785 0.08127 0.0
H2683 H 0.80017 0.30256 0.05572 0.0
H2684 H 0.72931 0.23289 0.02647 0.0
H2685 H 0.77136 0.26745 0.14041 0.0
H2686 H 0.79308 0.24795 0.16258 0.0
O2687 O 0.77603 0.19595 0.0501 0.0
C2688 C 0.72373 0.14612 0.03086 0.0
C2689 C 0.78673 0.21913 0.12708 0.0
C2690 C 0.77271 0.25097 0.12923 0.0
N2691 N 0.76389 0.21956 0.08793 0.0
C2692 C 0.77604 0.20911 0.10011 0.0
C2693 C 0.76234 0.24044 0.10219 0.0
C2694 C 0.78485 0.24007 0.14167 0.0
C2695 C 0.67694 0.15294 0.95871 0.0
N2696 N 0.68886 0.14069 0.96804 0.0
C2697 C 0.64958 0.14102 0.94524 0.0
C2698 C 0.63451 0.11705 0.94252 0.0
C2699 C 0.64674 0.10449 0.9517 0.0
C2700 C 0.67403 0.11633 0.96384 0.0
C2701 C 0.72357 0.1116 0.9205 0.0
C2702 C 0.74291 0.12076 0.97129 0.0
C2703 C 0.71553 0.12364 0.93692 0.0
N2704 N 0.72643 0.12943 0.96249 0.0
C2705 C 0.75108 0.10837 0.9553 0.0
C2706 C 0.74166 0.10413 0.92987 0.0
C2707 C 0.78099 0.18466 0.03258 0.0
C2708 C 0.76294 0.26869 0.03958 0.0
C2709 C 0.79122 0.25213 0.06793 0.0
C2710 C 0.80444 0.27595 0.06927 0.0
C2711 C 0.79017 0.28421 0.05494 0.0
N2712 N 0.76454 0.237 0.05277 0.0
C2713 C 0.75038 0.245 0.03873 0.0
Co2714 Co 0.4491 0.04021 0.60206 0.0
Co2715 Co 0.39202 0.00704 0.54197 0.0
O2716 O 0.4126 0.01208 0.57693 0.0
C2717 C 0.45181 0.99517 0.61192 0.0
O2718 O 0.42719 0.97657 0.59605 0.0
C2719 C 0.36845 0.02555 0.57264 0.0
O2720 O 0.39229 0.04539 0.58932 0.0
O2721 O 0.40678 0.04458 0.55343 0.0
O2722 O 0.44336 0.0654 0.5917 0.0
H2723 H 0.3856 0.02338 0.46768 0.0
H2724 H 0.41456 0.01198 0.6177 0.0
O2725 O 0.45938 0.01793 0.61467 0.0
H2726 H 0.44495 0.10531 0.67231 0.0
H2727 H 0.5351 0.09324 0.68718 0.0
H2728 H 0.48967 0.07585 0.59676 0.0
H2729 H 0.46044 0.09162 0.64153 0.0
H2730 H 0.48748 0.06245 0.65861 0.0
O2731 O 0.36411 0.0071 0.55194 0.0
H2732 H 0.40145 0.00853 0.49759 0.0
H2733 H 0.33791 0.00021 0.51237 0.0
H2734 H 0.5373 0.10572 0.62419 0.0
H2735 H 0.39838 0.02451 0.64823 0.0
H2736 H 0.56046 0.11478 0.66984 0.0
H2737 H 0.41357 0.07152 0.67582 0.0
O2738 O 0.45812 0.02842 0.57477 0.0
H2739 H 0.38928 0.9244 0.53772 0.0
H2740 H 0.33708 0.96182 0.50547 0.0
H2741 H 0.31536 0.91499 0.49087 0.0
H2742 H 0.34159 0.89591 0.50744 0.0
H2743 H 0.41126 0.97079 0.54891 0.0
H2744 H 0.32211 0.015 0.48286 0.0
H2745 H 0.34566 0.02686 0.45978 0.0
O2746 O 0.4223 0.00846 0.5348 0.0
C2747 C 0.4272 0.0651 0.57269 0.0
C2748 C 0.37498 0.018 0.47736 0.0
C2749 C 0.33925 0.01301 0.48553 0.0
N2750 N 0.37148 0.00357 0.50804 0.0
C2751 C 0.38388 0.00931 0.49459 0.0
C2752 C 0.3487 0.00453 0.50267 0.0
C2753 C 0.35257 0.01992 0.47289 0.0
C2754 C 0.42171 0.03249 0.63005 0.0
N2755 N 0.43913 0.05117 0.6284 0.0
C2756 C 0.41229 0.03946 0.64714 0.0
C2757 C 0.42077 0.06582 0.66256 0.0
C2758 C 0.43839 0.08478 0.66064 0.0
C2759 C 0.44727 0.077 0.64327 0.0
C2760 C 0.52524 0.08962 0.66739 0.0
C2761 C 0.49946 0.07962 0.6166 0.0
C2762 C 0.49821 0.0724 0.6512 0.0
N2763 N 0.48563 0.06753 0.62609 0.0
C2764 C 0.52652 0.09661 0.63206 0.0
C2765 C 0.53947 0.10163 0.65764 0.0
C2766 C 0.44708 0.01788 0.54989 0.0
C2767 C 0.37804 0.93242 0.52981 0.0
C2768 C 0.34899 0.95379 0.51188 0.0
C2769 C 0.3364 0.9271 0.50376 0.0
C2770 C 0.35108 0.91642 0.51302 0.0
N2771 N 0.37562 0.96932 0.52795 0.0
C2772 C 0.39023 0.95872 0.53637 0.0
Co2773 Co 0.97245 0.02747 0.44708 0.0
Co2774 Co 0.98936 0.9792 0.43692 0.0
O2775 O 0.98693 0.00753 0.43216 0.0
C2776 C 0.94121 0.00312 0.39058 0.0
O2777 O 0.93908 0.98145 0.39041 0.0
C2778 C 0.04696 0.00036 0.45816 0.0
O2779 O 0.04889 0.00121 0.48002 0.0
O2780 O 0.00505 0.00099 0.47565 0.0
O2781 O 0.99059 0.02988 0.48145 0.0
H2782 H 0.98472 0.92123 0.47688 0.0
H2783 H 0.00056 0.04461 0.42052 0.0
O2784 O 0.95375 0.02451 0.41231 0.0
H2785 H 0.05021 0.11844 0.51125 0.0
H2786 H 0.94576 0.09641 0.46053 0.0
H2787 H 0.94906 0.02766 0.48145 0.0
H2788 H 0.01051 0.07842 0.49693 0.0
H2789 H 0.96418 0.07041 0.44267 0.0
O2790 O 0.02488 0.99348 0.43977 0.0
H2791 H 0.978 0.95485 0.46787 0.0
H2792 H 0.00932 0.94409 0.41699 0.0
H2793 H 0.9307 0.05334 0.49994 0.0
H2794 H 0.04003 0.08433 0.43397 0.0
H2795 H 0.92898 0.08801 0.4895 0.0
H2796 H 0.06518 0.12158 0.47965 0.0
O2797 O 0.94096 0.99488 0.43662 0.0
H2798 H 0.9779 0.96255 0.34821 0.0
H2799 H 0.9467 0.92421 0.39665 0.0
H2800 H 0.92578 0.89741 0.34862 0.0
H2801 H 0.94142 0.91657 0.32409 0.0
H2802 H 0.99805 0.98871 0.39617 0.0
H2803 H 0.01653 0.91051 0.4254 0.0
H2804 H 0.00427 0.89895 0.45563 0.0
O2805 O 0.95317 0.96429 0.43309 0.0
C2806 C 0.0025 0.01892 0.49014 0.0
C2807 C 0.99006 0.92605 0.46362 0.0
C2808 C 0.00793 0.92004 0.43474 0.0
N2809 N 0.99306 0.95128 0.44189 0.0
C2810 C 0.98618 0.94496 0.45842 0.0
C2811 C 0.00376 0.93904 0.43003 0.0
C2812 C 0.00106 0.91357 0.45171 0.0
C2813 C 0.01126 0.06081 0.44037 0.0
N2814 N 0.00313 0.05924 0.45786 0.0
C2815 C 0.03365 0.08323 0.4479 0.0
C2816 C 0.04778 0.10411 0.47354 0.0
C2817 C 0.03939 0.10235 0.49129 0.0
C2818 C 0.01693 0.07962 0.48307 0.0
C2819 C 0.94647 0.08141 0.46529 0.0
C2820 C 0.94856 0.04286 0.477 0.0
C2821 C 0.95684 0.06661 0.45521 0.0
N2822 N 0.95796 0.04777 0.46128 0.0
C2823 C 0.93806 0.05727 0.48744 0.0
C2824 C 0.93707 0.07669 0.48155 0.0
C2825 C 0.93643 0.97198 0.43272 0.0
C2826 C 0.97095 0.95396 0.35869 0.0
C2827 C 0.9535 0.93272 0.38609 0.0
C2828 C 0.94165 0.91743 0.35891 0.0
C2829 C 0.95045 0.92818 0.34516 0.0
N2830 N 0.9736 0.95798 0.39923 0.0
C2831 C 0.98236 0.96864 0.38587 0.0
H2832 H 0.95959 0.00591 0.84941 0.0
H2833 H 0.95582 0.00532 0.88692 0.0
H2834 H 0.96712 0.08354 0.91547 0.0
H2835 H 0.96895 0.08344 0.87705 0.0
H2836 H 0.9911 0.03448 0.93557 0.0
H2837 H 0.90792 0.04962 0.9243 0.0
H2838 H 0.92525 0.05833 0.90781 0.0
H2839 H 0.93559 0.08147 0.94025 0.0
C2840 C 0.96022 0.02257 0.86313 0.0
C2841 C 0.96458 0.04475 0.8602 0.0
C2842 C 0.95812 0.02226 0.8847 0.0
C2843 C 0.96016 0.044 0.90382 0.0
C2844 C 0.96424 0.066 0.90062 0.0
H2845 H 0.97122 0.09419 0.05518 0.0
H2846 H 0.95756 0.08076 0.00955 0.0
C2847 C 0.96562 0.06605 0.87872 0.0
C2848 C 0.96075 0.04454 0.9282 0.0
H2849 H 0.93295 0.0538 0.96669 0.0
C2850 C 0.97847 0.03887 0.94252 0.0
C2851 C 0.94513 0.05126 0.93816 0.0
C2852 C 0.92741 0.06043 0.92657 0.0
C2853 C 0.98187 0.0409 0.96671 0.0
C2854 C 0.96514 0.04613 0.97588 0.0
C2855 C 0.94637 0.05026 0.96061 0.0
C2856 C 0.96842 0.05039 0.00224 0.0
C2857 C 0.00491 0.03952 0.98265 0.0
C2858 C 0.97575 0.03583 0.01311 0.0
C2859 C 0.98342 0.04355 0.03943 0.0
C2860 C 0.98291 0.06532 0.05518 0.0
C2861 C 0.973 0.07814 0.04378 0.0
C2862 C 0.96514 0.07026 0.01746 0.0
H2863 H 0.01953 0.0441 0.9762 0.0
H2864 H 0.01467 0.05371 0.00385 0.0
H2865 H 0.99847 0.01932 0.97939 0.0
H2866 H 0.97607 0.01876 0.00157 0.0
H2867 H 0.9904 0.03288 0.04761 0.0
H2868 H 0.06487 0.62191 0.37642 0.0
H2869 H 0.0668 0.63053 0.34152 0.0
H2870 H 0.00365 0.55162 0.28345 0.0
H2871 H 0.00177 0.54278 0.31835 0.0
H2872 H 0.06516 0.60052 0.28711 0.0
H2873 H 0.97979 0.61049 0.28751 0.0
H2874 H 0.00382 0.61232 0.31495 0.0
H2875 H 0.98008 0.58125 0.28567 0.0
C2876 C 0.05171 0.6062 0.35625 0.0
C2877 C 0.03263 0.58181 0.35001 0.0
C2878 C 0.0532 0.61104 0.33636 0.0
C2879 C 0.03562 0.59161 0.30998 0.0
C2880 C 0.01769 0.5667 0.30373 0.0
H2881 H 0.98843 0.6525 0.17189 0.0
H2882 H 0.97429 0.60904 0.17612 0.0
C2883 C 0.01627 0.56184 0.32363 0.0
C2884 C 0.03144 0.59952 0.28986 0.0
H2885 H 0.99535 0.62236 0.263 0.0
C2886 C 0.04909 0.60428 0.28053 0.0
C2887 C 0.01143 0.60562 0.28253 0.0
C2888 C 0.99273 0.60239 0.29321 0.0
C2889 C 0.04696 0.61501 0.26375 0.0
C2890 C 0.02602 0.62007 0.25511 0.0
C2891 C 0.00954 0.61624 0.26608 0.0
C2892 C 0.02567 0.63734 0.2398 0.0
C2893 C 0.06805 0.62169 0.25661 0.0
C2894 C 0.05079 0.67142 0.25778 0.0
C2895 C 0.05018 0.69098 0.24437 0.0
C2896 C 0.02791 0.68336 0.21422 0.0
C2897 C 0.00113 0.6539 0.18967 0.0
C2898 C 0.99226 0.62685 0.19288 0.0
H2899 H 0.08758 0.63112 0.27413 0.0
H2900 H 0.06479 0.60317 0.24209 0.0
H2901 H 0.06859 0.63488 0.24835 0.0
H2902 H 0.03885 0.65321 0.2506 0.0
H2903 H 0.06533 0.71137 0.25727 0.0
H2904 H 0.41936 0.76102 0.71599 0.0
H2905 H 0.41427 0.76355 0.6764 0.0
H2906 H 0.48888 0.76813 0.69272 0.0
H2907 H 0.49593 0.77035 0.73364 0.0
H2908 H 0.48846 0.79808 0.67727 0.0
H2909 H 0.39159 0.7112 0.60552 0.0
H2910 H 0.3891 0.73348 0.6302 0.0
H2911 H 0.4087 0.71892 0.63905 0.0
C2912 C 0.43515 0.76362 0.71168 0.0
C2913 C 0.45848 0.76638 0.72917 0.0
C2914 C 0.43185 0.7642 0.68843 0.0
C2915 C 0.45104 0.76568 0.68093 0.0
C2916 C 0.47375 0.76725 0.69777 0.0
H2917 H 0.42083 0.74465 0.52526 0.0
H2918 H 0.43043 0.73908 0.56349 0.0
C2919 C 0.47749 0.7678 0.72137 0.0
C2920 C 0.44869 0.76729 0.6567 0.0
H2921 H 0.40748 0.74136 0.59132 0.0
C2922 C 0.47055 0.78631 0.65891 0.0
C2923 C 0.42596 0.75015 0.63152 0.0
C2924 C 0.40265 0.72709 0.62632 0.0
C2925 C 0.46997 0.7904 0.63796 0.0
C2926 C 0.44668 0.77458 0.61336 0.0
C2927 C 0.42526 0.75405 0.61031 0.0
C2928 C 0.44388 0.77917 0.59071 0.0
C2929 C 0.49461 0.81127 0.64237 0.0
C2930 C 0.44887 0.80387 0.5931 0.0
C2931 C 0.44283 0.80706 0.57098 0.0
C2932 C 0.43233 0.78578 0.54607 0.0
C2933 C 0.42878 0.76153 0.54405 0.0
C2934 C 0.43423 0.75823 0.56598 0.0
H2935 H 0.51246 0.8152 0.65868 0.0
H2936 H 0.49637 0.80559 0.62446 0.0
H2937 H 0.4941 0.82984 0.64774 0.0
H2938 H 0.45592 0.82038 0.6118 0.0
H2939 H 0.44581 0.82599 0.5733 0.0
H2940 H 0.27585 0.29741 0.90636 0.0
H2941 H 0.28635 0.29725 0.94756 0.0
H2942 H 0.33098 0.38173 0.99068 0.0
H2943 H 0.31936 0.3822 0.94925 0.0
H2944 H 0.35809 0.34943 0.99828 0.0
H2945 H 0.26957 0.32317 0.00936 0.0
H2946 H 0.26408 0.307 0.9766 0.0
H2947 H 0.27676 0.34176 0.99334 0.0
C2948 C 0.2874 0.31596 0.92456 0.0
C2949 C 0.29709 0.3398 0.92475 0.0
C2950 C 0.29333 0.31582 0.94802 0.0
C2951 C 0.30958 0.33942 0.97195 0.0
C2952 C 0.31829 0.36336 0.97225 0.0
H2953 H 0.36113 0.32754 0.11392 0.0
H2954 H 0.35019 0.34555 0.0853 0.0
C2955 C 0.3117 0.36356 0.94867 0.0
C2956 C 0.32051 0.3384 0.99611 0.0
H2957 H 0.30218 0.31541 0.03313 0.0
C2958 C 0.34617 0.34264 0.00643 0.0
C2959 C 0.30473 0.32941 0.00637 0.0
C2960 C 0.27727 0.3252 0.99604 0.0
C2961 C 0.35596 0.33653 0.02583 0.0
C2962 C 0.33959 0.32597 0.03494 0.0
C2963 C 0.31453 0.32333 0.02584 0.0
C2964 C 0.34745 0.31588 0.05256 0.0
C2965 C 0.38333 0.34043 0.03572 0.0
C2966 C 0.34949 0.29326 0.04342 0.0
C2967 C 0.35562 0.2828 0.05962 0.0
C2968 C 0.35982 0.29491 0.08519 0.0
C2969 C 0.35816 0.31784 0.09436 0.0
C2970 C 0.35184 0.32814 0.07808 0.0
H2971 H 0.39549 0.3545 0.03175 0.0
H2972 H 0.39327 0.34767 0.05712 0.0
H2973 H 0.38215 0.32135 0.02561 0.0
H2974 H 0.34583 0.28344 0.02357 0.0
H2975 H 0.35669 0.26509 0.052 0.0
H2976 H 0.86495 0.00136 0.04053 0.0
H2977 H 0.90307 -5e-05 0.03904 0.0
H2978 H 0.88726 0.93724 0.05655 0.0
H2979 H 0.84882 0.93818 0.05764 0.0
H2980 H 0.93532 0.97514 0.09347 0.0
H2981 H 0.91991 0.96262 0.98828 0.0
H2982 H 0.91276 0.98469 0.00703 0.0
H2983 H 0.89377 0.95025 0.9953 0.0
C2984 C 0.86896 0.98642 0.04281 0.0
C2985 C 0.85381 0.96956 0.04876 0.0
C2986 C 0.89052 0.98532 0.04151 0.0
C2987 C 0.89717 0.96729 0.04605 0.0
C2988 C 0.88161 0.95011 0.05142 0.0
H2989 H 0.05036 0.95778 0.05969 0.0
H2990 H 0.00559 0.94836 0.04778 0.0
C2991 C 0.85978 0.95084 0.05226 0.0
C2992 C 0.92278 0.96975 0.05035 0.0
H2993 H 0.96521 0.97593 0.01487 0.0
C2994 C 0.9432 0.97586 0.08031 0.0
C2995 C 0.93281 0.97022 0.02811 0.0
C2996 C 0.91365 0.96644 0.00312 0.0
C2997 C 0.99058 0.98592 0.08573 0.0
C2998 C 0.99012 0.98384 0.05746 0.0
C2999 C 0.96297 0.97648 0.03146 0.0
C3000 C 0.01389 0.98758 0.05604 0.0
C3001 C 0.01735 0.99236 0.10685 0.0
C3002 C 0.03322 0.0128 0.06449 0.0
C3003 C 0.05895 0.01826 0.07134 0.0
C3004 C 0.0654 0.99853 0.06983 0.0
C3005 C 0.04578 0.9732 0.06063 0.0
C3006 C 0.02013 0.96767 0.05345 0.0
H3007 H 0.0215 0.99882 0.12729 0.0
H3008 H 0.01947 0.97472 0.10029 0.0
H3009 H 0.03356 0.00809 0.1081 0.0
H3010 H 0.02885 0.02859 0.06741 0.0
H3011 H 0.07387 0.0379 0.07827 0.0
H3012 H 0.31678 0.10924 0.33755 0.0
H3013 H 0.33877 0.08355 0.33433 0.0
H3014 H 0.27663 0.02203 0.33009 0.0
H3015 H 0.25396 0.04745 0.3329 0.0
H3016 H 0.34842 0.0578 0.37202 0.0
H3017 H 0.29279 0.99459 0.26307 0.0
H3018 H 0.29968 0.02801 0.27896 0.0
H3019 H 0.27571 0.00319 0.27974 0.0
C3020 C 0.30768 0.09022 0.33591 0.0
C3021 C 0.2836 0.08029 0.33546 0.0
C3022 C 0.32028 0.07563 0.334 0.0
C3023 C 0.30904 0.05096 0.33166 0.0
C3024 C 0.28519 0.04094 0.33142 0.0
H3025 H 0.34186 0.93764 0.34328 0.0
H3026 H 0.33715 0.97579 0.3504 0.0
C3027 C 0.27239 0.05548 0.33315 0.0
C3028 C 0.32271 0.03596 0.33017 0.0
H3029 H 0.32216 0.98464 0.28735 0.0
C3030 C 0.34296 0.04197 0.35354 0.0
C3031 C 0.31577 0.01591 0.30592 0.0
C3032 C 0.29487 0.00991 0.28037 0.0
C3033 C 0.35568 0.02729 0.3534 0.0
C3034 C 0.34758 0.00604 0.32929 0.0
C3035 C 0.32832 0.00105 0.30576 0.0
C3036 C 0.35514 0.98602 0.32844 0.0
C3037 C 0.37705 0.03405 0.37908 0.0
C3038 C 0.367 0.9792 0.31377 0.0
C3039 C 0.36981 0.95708 0.30959 0.0
C3040 C 0.36028 0.94142 0.31965 0.0
C3041 C 0.34953 0.94919 0.33529 0.0
C3042 C 0.34695 0.9712 0.33958 0.0
H3043 H 0.38686 0.05514 0.39382 0.0
H3044 H 0.36827 0.0224 0.38703 0.0
H3045 H 0.39204 0.02947 0.37645 0.0
H3046 H 0.37314 0.99038 0.3048 0.0
H3047 H 0.37807 0.9515 0.29738 0.0
H3048 H 0.5229 0.92357 0.88328 0.0
H3049 H 0.47849 0.88731 0.8649 0.0
H3050 H 0.44464 0.92861 0.83615 0.0
H3051 H 0.48844 0.96457 0.85417 0.0
H3052 H 0.42478 0.89251 0.86736 0.0
H3053 H 0.44583 0.86282 0.7948 0.0
H3054 H 0.43753 0.88833 0.7954 0.0
H3055 H 0.41526 0.85501 0.76994 0.0
C3056 C 0.50605 0.92513 0.87337 0.0
C3057 C 0.50955 0.94702 0.86996 0.0
C3058 C 0.48058 0.90435 0.86288 0.0
C3059 C 0.45802 0.90498 0.84881 0.0
C3060 C 0.46154 0.92743 0.8467 0.0
H3061 H 0.31625 0.75222 0.73585 0.0
H3062 H 0.34903 0.7966 0.75612 0.0
C3063 C 0.48682 0.94803 0.857 0.0
C3064 C 0.431 0.88148 0.83457 0.0
H3065 H 0.38978 0.82434 0.77681 0.0
C3066 C 0.41679 0.87737 0.84752 0.0
C3067 C 0.41885 0.86307 0.80775 0.0
C3068 C 0.43009 0.86775 0.79102 0.0
C3069 C 0.39187 0.85461 0.83473 0.0
C3070 C 0.38232 0.83371 0.80935 0.0
C3071 C 0.39597 0.83913 0.79613 0.0
C3072 C 0.35953 0.80608 0.79644 0.0
C3073 C 0.37545 0.85455 0.84778 0.0
C3074 C 0.35253 0.79492 0.81105 0.0
C3075 C 0.33138 0.76935 0.79869 0.0
C3076 C 0.31764 0.75323 0.77129 0.0
C3077 C 0.32622 0.7634 0.7569 0.0
C3078 C 0.34567 0.78953 0.76894 0.0
H3079 H 0.3788 0.87461 0.85851 0.0
H3080 H 0.35417 0.84145 0.83337 0.0
H3081 H 0.38125 0.84829 0.86239 0.0
H3082 H 0.36317 0.80577 0.83212 0.0
H3083 H 0.32568 0.76223 0.81064 0.0
H3084 H 0.48799 0.09163 0.99309 0.0
H3085 H 0.47113 0.11765 0.9792 0.0
H3086 H 0.41351 0.09581 0.00283 0.0
H3087 H 0.43006 0.06947 0.01656 0.0
H3088 H 0.41668 0.08881 0.93824 0.0
H3089 H 0.44345 0.17648 0.02508 0.0
H3090 H 0.45295 0.15286 0.02799 0.0
H3091 H 0.42122 0.14782 0.02299 0.0
C3092 C 0.47227 0.09297 0.99612 0.0
C3093 C 0.46009 0.07811 0.00553 0.0
C3094 C 0.4626 0.10781 0.98807 0.0
C3095 C 0.44089 0.10841 0.98971 0.0
C3096 C 0.4303 0.09564 0.00142 0.0
H3097 H 0.33967 0.16481 0.92293 0.0
H3098 H 0.35558 0.14042 0.94132 0.0
C3099 C 0.43979 0.08057 0.00924 0.0
C3100 C 0.4269 0.11874 0.97555 0.0
H3101 H 0.40863 0.1654 0.98318 0.0
C3102 C 0.41504 0.10565 0.94808 0.0
C3103 C 0.42429 0.14035 0.98837 0.0
C3104 C 0.43639 0.15523 0.01776 0.0
C3105 C 0.40075 0.11362 0.93308 0.0
C3106 C 0.39868 0.1356 0.9459 0.0
C3107 C 0.41017 0.14848 0.97335 0.0
C3108 C 0.38635 0.14669 0.93138 0.0
C3109 C 0.3877 0.09826 0.90359 0.0
C3110 C 0.39783 0.15753 0.91898 0.0
C3111 C 0.38876 0.17131 0.90844 0.0
C3112 C 0.36799 0.17454 0.91007 0.0
C3113 C 0.35536 0.16223 0.92095 0.0
C3114 C 0.36465 0.14859 0.93175 0.0
H3115 H 0.38513 0.07824 0.89659 0.0
H3116 H 0.36821 0.09656 0.89418 0.0
H3117 H 0.4001 0.1086 0.8971 0.0
H3118 H 0.41479 0.15661 0.91875 0.0
H3119 H 0.39906 0.18085 0.90045 0.0
H3120 H 0.18858 0.9114 0.4096 0.0
H3121 H 0.16422 0.93018 0.42396 0.0
H3122 H 0.13382 0.93394 0.35316 0.0
H3123 H 0.15937 0.9159 0.33898 0.0
H3124 H 0.15431 0.98086 0.39773 0.0
H3125 H 0.08815 0.89964 0.40225 0.0
H3126 H 0.12178 0.9086 0.42023 0.0
H3127 H 0.106 0.89508 0.3852 0.0
C3128 C 0.17619 0.91555 0.39666 0.0
C3129 C 0.17584 0.91203 0.37305 0.0
C3130 C 0.16219 0.92629 0.40494 0.0
C3131 C 0.14694 0.93329 0.38959 0.0
C3132 C 0.14542 0.92862 0.36531 0.0
H3133 H 0.04834 0.99643 0.4137 0.0
H3134 H 0.07711 0.98582 0.39921 0.0
C3135 C 0.1597 0.91795 0.35702 0.0
C3136 C 0.13406 0.94685 0.39995 0.0
H3137 H 0.09392 0.94187 0.42635 0.0
C3138 C 0.14084 0.97221 0.40368 0.0
C3139 C 0.11669 0.93572 0.408 0.0
C3140 C 0.10753 0.90817 0.40348 0.0
C3141 C 0.13106 0.98683 0.41569 0.0
C3142 C 0.11412 0.97577 0.4241 0.0
C3143 C 0.10725 0.95045 0.42023 0.0
C3144 C 0.10162 0.98905 0.43539 0.0
C3145 C 0.13925 0.01415 0.41981 0.0
C3146 C 0.1065 0.99542 0.46096 0.0
C3147 C 0.09005 0.0015 0.46937 0.0
C3148 C 0.06819 0.00091 0.45216 0.0
C3149 C 0.06482 0.99682 0.4274 0.0
C3150 C 0.08137 0.99089 0.41909 0.0
H3151 H 0.15599 0.02166 0.41652 0.0
H3152 H 0.12246 0.01399 0.40594 0.0
H3153 H 0.14481 0.02785 0.43999 0.0
H3154 H 0.12207 0.99411 0.47385 0.0
H3155 H 0.09341 0.00483 0.48866 0.0
H3156 H 0.20688 0.05228 0.65358 0.0
H3157 H 0.23924 0.01502 0.68199 0.0
H3158 H 0.21172 0.9893 0.59457 0.0
H3159 H 0.2015 0.01413 0.60182 0.0
H3160 H 0.22135 0.94207 0.60762 0.0
H3161 H 0.30277 0.02076 0.70856 0.0
H3162 H 0.27182 0.01189 0.70684 0.0
H3163 H 0.28134 0.02835 0.68979 0.0
C3164 C 0.21095 0.037 0.64429 0.0
C3165 C 0.20033 0.02521 0.61156 0.0
C3166 C 0.23262 0.01358 0.66282 0.0
C3167 C 0.23358 0.99049 0.63953 0.0
C3168 C 0.22088 0.98428 0.60771 0.0
H3169 H 0.33927 0.93471 0.64365 0.0
H3170 H 0.30384 0.94458 0.63144 0.0
C3171 C 0.20595 -7e-05 0.59447 0.0
C3172 C 0.24695 0.97584 0.6467 0.0
H3173 H 0.29913 0.98028 0.69375 0.0
C3174 C 0.23841 0.95084 0.62657 0.0
C3175 C 0.26922 0.98646 0.67172 0.0
C3176 C 0.28179 0.01332 0.69519 0.0
C3177 C 0.2519 0.93706 0.63 0.0
C3178 C 0.27429 0.9482 0.65438 0.0
C3179 C 0.28189 0.97203 0.67506 0.0
C3180 C 0.29216 0.93735 0.65842 0.0
C3181 C 0.24241 0.91087 0.60743 0.0
C3182 C 0.29746 0.9301 0.67776 0.0
C3183 C 0.31792 0.92463 0.685 0.0
C3184 C 0.33363 0.92661 0.67321 0.0
C3185 C 0.3276 0.93297 0.65316 0.0
C3186 C 0.30713 0.93835 0.64591 0.0
H3187 H 0.22171 0.90205 0.5922 0.0
H3188 H 0.25478 0.91354 0.59819 0.0
H3189 H 0.24412 0.89701 0.61442 0.0
H3190 H 0.28633 0.92957 0.68788 0.0
H3191 H 0.32192 0.91965 0.70039 0.0
H3192 H 0.36834 0.068 0.60321 0.0
H3193 H 0.33626 0.06932 0.61687 0.0
H3194 H 0.2887 0.98512 0.56977 0.0
H3195 H 0.3208 0.98361 0.55542 0.0
H3196 H 0.27733 0.04675 0.58605 0.0
H3197 H 0.31396 0.01022 0.65209 0.0
H3198 H 0.33264 0.02459 0.63898 0.0
H3199 H 0.30523 0.9918 0.61847 0.0
C3200 C 0.35089 0.0497 0.59541 0.0
C3201 C 0.34721 0.02565 0.57836 0.0
C3202 C 0.33249 0.05057 0.60314 0.0
C3203 C 0.3101 0.0274 0.59434 0.0
C3204 C 0.30584 0.00328 0.57669 0.0
H3205 H 0.17064 0.99113 0.64904 0.0
H3206 H 0.18103 0.97577 0.60969 0.0
C3207 C 0.32415 0.00242 0.56853 0.0
C3208 C 0.29289 0.02861 0.60588 0.0
H3209 H 0.28161 0.02039 0.65268 0.0
C3210 C 0.27714 0.03972 0.59973 0.0
C3211 C 0.29452 0.02177 0.62547 0.0
C3212 C 0.31263 0.01164 0.63447 0.0
C3213 C 0.26158 0.04238 0.6114 0.0
C3214 C 0.2607 0.03246 0.62867 0.0
C3215 C 0.27919 0.02466 0.63708 0.0
C3216 C 0.24161 0.03059 0.63956 0.0
C3217 C 0.24775 0.05722 0.60618 0.0
C3218 C 0.25644 0.0564 0.67117 0.0
C3219 C 0.2415 0.05667 0.68984 0.0
C3220 C 0.21104 0.03313 0.68118 0.0
C3221 C 0.18928 0.00411 0.65211 0.0
C3222 C 0.19585 0.99503 0.62708 0.0
H3223 H 0.25963 0.07292 0.60369 0.0
H3224 H 0.22876 0.0438 0.58755 0.0
H3225 H 0.24443 0.06637 0.62242 0.0
H3226 H 0.27594 0.07248 0.67966 0.0
H3227 H 0.25245 0.07373 0.70921 0.0
H3228 H 0.08825 0.87718 0.96279 0.0
H3229 H 0.08496 0.91488 0.96181 0.0
H3230 H 0.00773 0.88148 0.95274 0.0
H3231 H 0.01115 0.84377 0.95408 0.0
H3232 H 0.04765 0.92029 0.92515 0.0
H3233 H 0.05136 0.95272 0.02011 0.0
H3234 H 0.04842 0.92166 0.00291 0.0
H3235 H 0.01994 0.92535 0.99394 0.0
C3236 C 0.07049 0.87778 0.96036 0.0
C3237 C 0.0501 0.85768 0.95879 0.0
C3238 C 0.06866 0.89939 0.9599 0.0
C3239 C 0.04638 0.90141 0.95782 0.0
C3240 C 0.0253 0.8806 0.95478 0.0
H3241 H 0.05836 0.05578 0.01429 0.0
H3242 H 0.04101 0.00922 0.99809 0.0
C3243 C 0.02716 0.85893 0.95527 0.0
C3244 C 0.04601 0.92587 0.96018 0.0
H3245 H 0.0515 0.98078 0.00296 0.0
C3246 C 0.04772 0.93327 0.94172 0.0
C3247 C 0.0455 0.94271 0.9814 0.0
C3248 C 0.04126 0.93516 0.00073 0.0
C3249 C 0.04876 0.95679 0.94375 0.0
C3250 C 0.05178 0.97549 0.96686 0.0
C3251 C 0.04946 0.9675 0.98507 0.0
C3252 C 0.05893 0.00356 0.97356 0.0
C3253 C 0.04496 0.95997 0.92011 0.0
C3254 C 0.07433 0.01716 0.96515 0.0
C3255 C 0.08273 0.04372 0.97328 0.0
C3256 C 0.07665 0.05778 0.99065 0.0
C3257 C 0.06265 0.04505 0.00026 0.0
C3258 C 0.05307 0.01822 0.99114 0.0
H3259 H 0.03128 0.94065 0.90199 0.0
H3260 H 0.03675 0.97309 0.91903 0.0
H3261 H 0.06385 0.96737 0.92025 0.0
H3262 H 0.08122 0.008 0.95327 0.0
H3263 H 0.09388 0.05323 0.96586 0.0
H3264 H 0.82483 0.48515 0.95698 0.0
H3265 H 0.80945 0.44073 0.92376 0.0
H3266 H 0.8717 0.47163 0.90788 0.0
H3267 H 0.88823 0.51579 0.9427 0.0
H3268 H 0.7884 0.4169 0.87732 0.0
H3269 H 0.87698 0.41058 0.90542 0.0
H3270 H 0.87776 0.43962 0.92494 0.0
H3271 H 0.88446 0.43686 0.89834 0.0
C3272 C 0.83562 0.48235 0.94684 0.0
C3273 C 0.85805 0.50405 0.9529 0.0
C3274 C 0.8267 0.45681 0.92758 0.0
C3275 C 0.83948 0.45211 0.91314 0.0
C3276 C 0.86185 0.47401 0.91912 0.0
H3277 H 0.75215 0.3354 0.75097 0.0
H3278 H 0.76846 0.36794 0.79518 0.0
C3279 C 0.87129 0.49948 0.93904 0.0
C3280 C 0.82817 0.42492 0.89056 0.0
H3281 H 0.84485 0.38401 0.85645 0.0
C3282 C 0.80089 0.40971 0.87328 0.0
C3283 C 0.84366 0.41382 0.88536 0.0
C3284 C 0.87228 0.42607 0.90476 0.0
C3285 C 0.78923 0.38549 0.85042 0.0
C3286 C 0.80521 0.37721 0.84245 0.0
C3287 C 0.8322 0.39063 0.86117 0.0
C3288 C 0.79449 0.35611 0.81459 0.0
C3289 C 0.75978 0.36875 0.83558 0.0
C3290 C 0.80361 0.3382 0.80929 0.0
C3291 C 0.79357 0.31885 0.78335 0.0
C3292 C 0.77397 0.31664 0.76176 0.0
C3293 C 0.76609 0.33546 0.76692 0.0
C3294 C 0.77577 0.35446 0.79274 0.0
H3295 H 0.75191 0.37084 0.84925 0.0
H3296 H 0.75138 0.37548 0.82243 0.0
H3297 H 0.75318 0.34769 0.8238 0.0
H3298 H 0.81789 0.33851 0.82522 0.0
H3299 H 0.80032 0.30479 0.78037 0.0
H3300 H 0.10094 0.38149 0.3143 0.0
H3301 H 0.07779 0.38345 0.33939 0.0
H3302 H 0.02309 0.30047 0.28785 0.0
H3303 H 0.0458 0.29867 0.26243 0.0
H3304 H 0.02464 0.36933 0.32354 0.0
H3305 H 0.05402 0.31064 0.36304 0.0
H3306 H 0.06945 0.32495 0.34767 0.0
H3307 H 0.03929 0.29393 0.32798 0.0
C3308 C 0.08381 0.3638 0.30832 0.0
C3309 C 0.07497 0.33993 0.28662 0.0
C3310 C 0.07071 0.36493 0.32261 0.0
C3311 C 0.04914 0.34202 0.31574 0.0
C3312 C 0.03996 0.31828 0.29363 0.0
H3313 H 0.91667 0.27234 0.31711 0.0
H3314 H 0.95817 0.28887 0.31736 0.0
C3315 C 0.05272 0.31727 0.27903 0.0
C3316 C 0.03592 0.34255 0.33144 0.0
H3317 H 0.01374 0.30975 0.36033 0.0
C3318 C 0.02274 0.35687 0.33223 0.0
C3319 C 0.0343 0.32704 0.34356 0.0
C3320 C 0.05031 0.31354 0.34582 0.0
C3321 C 0.00566 0.35376 0.34239 0.0
C3322 C 0.00156 0.33564 0.35145 0.0
C3323 C 0.01667 0.32333 0.35296 0.0
C3324 C 0.97818 0.32517 0.35402 0.0
C3325 C 0.99109 0.36877 0.34217 0.0
C3326 C 0.97603 0.33993 0.37494 0.0
C3327 C 0.95231 0.33025 0.37501 0.0
C3328 C 0.93062 0.30598 0.35397 0.0
C3329 C 0.93325 0.29098 0.33363 0.0
C3330 C 0.95688 0.30041 0.33375 0.0
H3331 H 0.99471 0.38031 0.33228 0.0
H3332 H 0.9697 0.3552 0.33237 0.0
H3333 H 0.99757 0.3825 0.36269 0.0
H3334 H 0.9923 0.35916 0.39063 0.0
H3335 H 0.95045 0.34236 0.39058 0.0
H3336 H 0.77577 0.7211 0.41615 0.0
H3337 H 0.78004 0.68153 0.40705 0.0
H3338 H 0.74342 0.66571 0.45183 0.0
H3339 H 0.73698 0.7024 0.4581 0.0
H3340 H 0.80815 0.67188 0.43441 0.0
H3341 H 0.71419 0.59398 0.40708 0.0
H3342 H 0.71704 0.62375 0.40748 0.0
H3343 H 0.7233 0.62106 0.43674 0.0
C3344 C 0.76816 0.70872 0.42342 0.0
C3345 C 0.75785 0.71637 0.43958 0.0
C3346 C 0.77065 0.68595 0.41834 0.0
C3347 C 0.76261 0.67008 0.42909 0.0
C3348 C 0.74932 0.67624 0.44232 0.0
H3349 H 0.80862 0.57178 0.4843 0.0
H3350 H 0.79135 0.59978 0.47462 0.0
C3351 C 0.74572 0.69789 0.44609 0.0
C3352 C 0.77036 0.64932 0.42927 0.0
H3353 H 0.75256 0.59255 0.43262 0.0
C3354 C 0.79553 0.65428 0.43331 0.0
C3355 C 0.75429 0.62566 0.42762 0.0
C3356 C 0.72563 0.61574 0.41915 0.0
C3357 C 0.80514 0.63729 0.43643 0.0
C3358 C 0.79016 0.61535 0.43766 0.0
C3359 C 0.76475 0.60987 0.43294 0.0
C3360 C 0.80048 0.598 0.44368 0.0
C3361 C 0.83181 0.64367 0.43925 0.0
C3362 C 0.81113 0.58706 0.42958 0.0
C3363 C 0.82248 0.57267 0.43628 0.0
C3364 C 0.82199 0.56681 0.4561 0.0
C3365 C 0.80999 0.57637 0.46938 0.0
C3366 C 0.79979 0.59214 0.46355 0.0
H3367 H 0.84284 0.66384 0.44305 0.0
H3368 H 0.8434 0.64113 0.45506 0.0
H3369 H 0.82972 0.63014 0.42098 0.0
H3370 H 0.81041 0.58921 0.41294 0.0
H3371 H 0.83019 0.56459 0.42462 0.0
H3372 H 0.92164 0.69507 0.32226 0.0
H3373 H 0.93598 0.68836 0.28974 0.0
H3374 H 0.89934 0.60531 0.26286 0.0
H3375 H 0.88315 0.6119 0.29379 0.0
H3376 H 0.96983 0.67512 0.29505 0.0
H3377 H 0.88785 0.60042 0.19511 0.0
H3378 H 0.88262 0.6161 0.2214 0.0
H3379 H 0.88698 0.5881 0.2171 0.0
C3380 C 0.91584 0.67532 0.30861 0.0
C3381 C 0.90136 0.65397 0.31028 0.0
C3382 C 0.92397 0.67142 0.29003 0.0
C3383 C 0.91868 0.64625 0.27361 0.0
C3384 C 0.90304 0.62476 0.27456 0.0
H3385 H 0.99374 0.5738 0.19241 0.0
H3386 H 0.9646 0.58642 0.2115 0.0
C3387 C 0.89405 0.62856 0.29247 0.0
C3388 C 0.93386 0.64347 0.2599 0.0
H3389 H 0.9307 0.60513 0.20372 0.0
C3390 C 0.9611 0.66018 0.27485 0.0
C3391 C 0.92265 0.62372 0.23368 0.0
C3392 C 0.89337 0.60629 0.21587 0.0
C3393 C 0.97761 0.65741 0.26492 0.0
C3394 C 0.96655 0.63703 0.2389 0.0
C3395 C 0.93922 0.62046 0.22368 0.0
C3396 C 0.98318 0.63268 0.22751 0.0
C3397 C 0.00676 0.67596 0.28352 0.0
C3398 C 0.00654 0.65916 0.2308 0.0
C3399 C 0.03462 0.64686 0.21213 0.0
C3400 C 0.02458 0.61438 0.19992 0.0
C3401 C 0.99909 0.59426 0.20096 0.0
C3402 C 0.98007 0.60235 0.21297 0.0
H3403 H 0.0118 0.68219 0.30424 0.0
H3404 H 0.01874 0.6673 0.27962 0.0
H3405 H 0.01263 0.69397 0.28196 0.0
H3406 H 0.00692 0.67773 0.23967 0.0
H3407 H 0.05086 0.65849 0.21043 0.0
H3408 H 0.73284 0.47725 0.75099 0.0
H3409 H 0.69879 0.47957 0.76093 0.0
H3410 H 0.67984 0.40715 0.76148 0.0
H3411 H 0.71572 0.40611 0.75347 0.0
H3412 H 0.64309 0.4403 0.73327 0.0
H3413 H 0.70206 0.44341 0.80995 0.0
H3414 H 0.69009 0.45195 0.83222 0.0
H3415 H 0.70881 0.47632 0.82665 0.0
C3416 C 0.7231 0.46308 0.75539 0.0
C3417 C 0.73002 0.4438 0.75551 0.0
C3418 C 0.70291 0.46395 0.76037 0.0
C3419 C 0.68801 0.44465 0.76422 0.0
C3420 C 0.69234 0.42333 0.7606 0.0
H3421 H 0.57353 0.42559 0.81805 0.0
H3422 H 0.61086 0.43044 0.81205 0.0
C3423 C 0.71282 0.42275 0.75596 0.0
C3424 C 0.66718 0.44604 0.77071 0.0
H3425 H 0.651 0.45336 0.81879 0.0
C3426 C 0.64473 0.44324 0.752 0.0
C3427 C 0.66918 0.44976 0.79507 0.0
C3428 C 0.69374 0.45542 0.81712 0.0
C3429 C 0.62401 0.44341 0.75656 0.0
C3430 C 0.62599 0.44756 0.78124 0.0
C3431 C 0.64864 0.4501 0.79979 0.0
C3432 C 0.60481 0.44843 0.78803 0.0
C3433 C 0.59991 0.43787 0.73404 0.0
C3434 C 0.58997 0.45979 0.77958 0.0
C3435 C 0.56817 0.45699 0.78301 0.0
C3436 C 0.56146 0.44411 0.79639 0.0
C3437 C 0.57787 0.43539 0.80738 0.0
C3438 C 0.59917 0.43768 0.80339 0.0
H3439 H 0.59799 0.42651 0.71485 0.0
H3440 H 0.58171 0.42657 0.73372 0.0
H3441 H 0.60166 0.45671 0.7357 0.0
H3442 H 0.59483 0.47062 0.76997 0.0
H3443 H 0.55641 0.46469 0.77498 0.0
H3444 H 0.86734 0.84956 0.85337 0.0
H3445 H 0.84056 0.82876 0.80671 0.0
H3446 H 0.86912 0.77498 0.79422 0.0
H3447 H 0.88661 0.78856 0.84137 0.0
H3448 H 0.85666 0.83456 0.77943 0.0
H3449 H 0.81793 0.74653 0.76163 0.0
H3450 H 0.83912 0.74248 0.74882 0.0
H3451 H 0.80469 0.72768 0.72668 0.0
C3452 C 0.86777 0.83308 0.84094 0.0
C3453 C 0.87726 0.81945 0.85127 0.0
C3454 C 0.85358 0.82222 0.81375 0.0
C3455 C 0.85367 0.80143 0.79566 0.0
C3456 C 0.86735 0.79038 0.8066 0.0
H3457 H 0.84324 0.79999 0.65489 0.0
H3458 H 0.83814 0.7775 0.68029 0.0
C3459 C 0.8781 0.79867 0.83387 0.0
C3460 C 0.84176 0.79482 0.7668 0.0
H3461 H 0.80786 0.74901 0.7008 0.0
C3462 C 0.84468 0.81602 0.76281 0.0
C3463 C 0.82749 0.76982 0.74366 0.0
C3464 C 0.82183 0.74521 0.74525 0.0
C3465 C 0.83365 0.81453 0.73859 0.0
C3466 C 0.82051 0.79019 0.71552 0.0
C3467 C 0.81785 0.76791 0.71832 0.0
C3468 C 0.8124 0.78977 0.68966 0.0
C3469 C 0.83759 0.83982 0.73835 0.0
C3470 C 0.79638 0.80048 0.6827 0.0
C3471 C 0.79944 0.81345 0.66843 0.0
C3472 C 0.81797 0.81537 0.65993 0.0
C3473 C 0.83061 0.80083 0.66309 0.0
C3474 C 0.82734 0.78763 0.67727 0.0
H3475 H 0.85346 0.85756 0.7574 0.0
H3476 H 0.81924 0.84064 0.73412 0.0
H3477 H 0.84265 0.84122 0.72326 0.0
H3478 H 0.78386 0.8017 0.69105 0.0
H3479 H 0.78815 0.82314 0.66525 0.0
H3480 H 0.69532 0.24629 0.04408 0.0
H3481 H 0.68437 0.26976 0.01779 0.0
H3482 H 0.60401 0.2093 0.99384 0.0
H3483 H 0.58462 0.18213 0.99577 0.0
H3484 H 0.60809 0.22634 0.9452 0.0
H3485 H 0.69296 0.31725 0.02538 0.0
H3486 H 0.67373 0.29986 0.03551 0.0
H3487 H 0.66943 0.32492 0.03017 0.0
C3488 C 0.6744 0.23836 0.03116 0.0
C3489 C 0.63148 0.19994 0.02118 0.0
C3490 C 0.66784 0.25482 0.01613 0.0
C3491 C 0.63721 0.24733 0.99688 0.0
C3492 C 0.60809 0.22248 0.98886 0.0
H3493 H 0.61374 0.32131 0.89971 0.0
H3494 H 0.60398 0.28824 0.91305 0.0
C3495 C 0.60414 0.19917 0.00013 0.0
C3496 C 0.63619 0.26208 0.98232 0.0
H3497 H 0.66586 0.32224 0.98814 0.0
C3498 C 0.62062 0.24738 0.95472 0.0
C3499 C 0.65324 0.28963 0.99427 0.0
C3500 C 0.67304 0.30842 0.02295 0.0
C3501 C 0.62284 0.25899 0.93905 0.0
C3502 C 0.63975 0.28631 0.95139 0.0
C3503 C 0.65346 0.30112 0.97866 0.0
C3504 C 0.64473 0.30095 0.9375 0.0
C3505 C 0.60822 0.24176 0.90965 0.0
C3506 C 0.67087 0.31899 0.94643 0.0
C3507 C 0.67642 0.33886 0.94012 0.0
C3508 C 0.65591 0.34025 0.92377 0.0
C3509 C 0.62984 0.32072 0.91267 0.0
C3510 C 0.62423 0.30147 0.91986 0.0
H3511 H 0.60261 0.22098 0.90378 0.0
H3512 H 0.58997 0.24252 0.90114 0.0
H3513 H 0.62021 0.2486 0.90109 0.0
H3514 H 0.68708 0.31886 0.95992 0.0
H3515 H 0.69666 0.35335 0.94836 0.0
H3516 H 0.00971 0.49593 0.10429 0.0
H3517 H 0.99796 0.48159 0.13286 0.0
H3518 H 0.97344 0.40208 0.0794 0.0
H3519 H 0.98638 0.41635 0.05192 0.0
H3520 H 0.95003 0.45015 0.11915 0.0
H3521 H 0.00725 0.40283 0.1455 0.0
H3522 H 0.01504 0.42314 0.13132 0.0
H3523 H 0.98946 0.38921 0.11072 0.0
C3524 C 0.00255 0.47555 0.09909 0.0
C3525 C 0.99888 0.45735 0.0757 0.0
C3526 C 0.99575 0.46732 0.11538 0.0
C3527 C 0.98489 0.44069 0.10846 0.0
C3528 C 0.98241 0.4228 0.08574 0.0
H3529 H 0.90294 0.34885 0.16542 0.0
H3530 H 0.91778 0.36132 0.13722 0.0
C3531 C 0.98969 0.43107 0.06982 0.0
C3532 C 0.97303 0.43105 0.12287 0.0
H3533 H 0.96927 0.39197 0.1506 0.0
C3534 C 0.95451 0.43766 0.12625 0.0
C3535 C 0.97838 0.41428 0.13176 0.0
C3536 C 0.99881 0.40718 0.12985 0.0
C3537 C 0.94115 0.42798 0.13804 0.0
C3538 C 0.94659 0.41137 0.14707 0.0
C3539 C 0.96487 0.40446 0.14345 0.0
C3540 C 0.93542 0.40311 0.16251 0.0
C3541 C 0.92106 0.43548 0.14037 0.0
C3542 C 0.94004 0.42229 0.18579 0.0
C3543 C 0.93126 0.41523 0.20149 0.0
C3544 C 0.91822 0.38879 0.19482 0.0
C3545 C 0.91287 0.36937 0.1711 0.0
C3546 C 0.92153 0.3765 0.15511 0.0
H3547 H 0.91267 0.44007 0.12492 0.0
H3548 H 0.90478 0.41963 0.13896 0.0
H3549 H 0.9307 0.45338 0.15964 0.0
H3550 H 0.95111 0.44292 0.19229 0.0
H3551 H 0.93536 0.43073 0.21932 0.0
H3552 H 0.91674 0.82608 0.53619 0.0
H3553 H 0.86907 0.7903 0.45699 0.0
H3554 H 0.89167 0.84906 0.47124 0.0
H3555 H 0.9356 0.90256 0.52754 0.0
H3556 H 0.84051 0.83535 0.43311 0.0
H3557 H 0.90058 0.79518 0.40743 0.0
H3558 H 0.90209 0.80302 0.43876 0.0
H3559 H 0.9147 0.82869 0.43218 0.0
C3560 C 0.91151 0.83382 0.52315 0.0
C3561 C 0.92885 0.86732 0.53622 0.0
C3562 C 0.87978 0.81064 0.47231 0.0
C3563 C 0.88215 0.83321 0.46158 0.0
C3564 C 0.90352 0.86714 0.48455 0.0
H3565 H 0.7755 0.79202 0.3012 0.0
H3566 H 0.81859 0.81442 0.3403 0.0
C3567 C 0.92388 0.88141 0.51735 0.0
C3568 C 0.8662 0.8208 0.43031 0.0
H3569 H 0.86023 0.78276 0.37168 0.0
C3570 C 0.84509 0.82434 0.41974 0.0
C3571 C 0.8728 0.80714 0.41271 0.0
C3572 C 0.89884 0.80824 0.42313 0.0
C3573 C 0.82895 0.81283 0.39243 0.0
C3574 C 0.83338 0.79658 0.37453 0.0
C3575 C 0.85581 0.79428 0.38502 0.0
C3576 C 0.81302 0.78082 0.3456 0.0
C3577 C 0.80574 0.8165 0.38298 0.0
C3578 C 0.79579 0.75378 0.33386 0.0
C3579 C 0.77063 0.74108 0.31192 0.0
C3580 C 0.76216 0.75476 0.30034 0.0
C3581 C 0.78068 0.78096 0.31007 0.0
C3582 C 0.80577 0.7937 0.33218 0.0
H3583 H 0.80056 0.82083 0.39829 0.0
H3584 H 0.81069 0.83293 0.37887 0.0
H3585 H 0.78804 0.79862 0.36532 0.0
H3586 H 0.80105 0.74255 0.34233 0.0
H3587 H 0.7577 0.72056 0.30432 0.0
H3588 H 0.81675 0.85043 0.7852 0.0
H3589 H 0.78286 0.83439 0.7729 0.0
H3590 H 0.83343 0.90642 0.84478 0.0
H3591 H 0.87171 0.9094 0.85282 0.0
H3592 H 0.78485 0.8562 0.84485 0.0
H3593 H 0.75491 0.92218 0.7851 0.0
H3594 H 0.77461 0.91797 0.77386 0.0
H3595 H 0.78629 0.93556 0.80632 0.0
C3596 C 0.83364 0.85762 0.79103 0.0
C3597 C 0.85682 0.87719 0.81551 0.0
C3598 C 0.80598 0.85057 0.78965 0.0
C3599 C 0.80513 0.86606 0.8129 0.0
C3600 C 0.83035 0.88833 0.83249 0.0
H3601 H 0.64871 0.83996 0.78508 0.0
H3602 H 0.68956 0.85451 0.78392 0.0
C3603 C 0.85435 0.89235 0.83514 0.0
C3604 C 0.7789 0.86364 0.8126 0.0
H3605 H 0.71964 0.83486 0.76741 0.0
C3606 C 0.77288 0.861 0.83265 0.0
C3607 C 0.76042 0.86767 0.79437 0.0
C3608 C 0.76999 0.91566 0.78925 0.0
C3609 C 0.75087 0.86349 0.8364 0.0
C3610 C 0.72951 0.84705 0.80789 0.0
C3611 C 0.73559 0.84673 0.78763 0.0
C3612 C 0.70083 0.8301 0.79737 0.0
C3613 C 0.75204 0.89221 0.88721 0.0
C3614 C 0.6915 0.80832 0.80075 0.0
C3615 C 0.66841 0.80054 0.80218 0.0
C3616 C 0.65443 0.81385 0.79908 0.0
C3617 C 0.66049 0.83095 0.78942 0.0
C3618 C 0.68349 0.83875 0.78808 0.0
H3619 H 0.76974 0.91191 0.90355 0.0
H3620 H 0.73724 0.89865 0.88798 0.0
H3621 H 0.75043 0.88328 0.90005 0.0
H3622 H 0.70384 0.80012 0.80614 0.0
H3623 H 0.66273 0.78578 0.80775 0.0
H3624 H 0.56139 0.33607 0.0335 0.0
H3625 H 0.5787 0.31099 0.0486 0.0
H3626 H 0.62385 0.3175 0.0094 0.0
H3627 H 0.60692 0.343 0.99438 0.0
H3628 H 0.573 0.26387 0.01789 0.0
H3629 H 0.67879 0.3386 0.08265 0.0
H3630 H 0.65314 0.3435 0.08667 0.0
H3631 H 0.65795 0.34485 0.06048 0.0
C3632 C 0.57512 0.33232 0.02815 0.0
C3633 C 0.58292 0.34162 0.01282 0.0
C3634 C 0.58507 0.31813 0.03697 0.0
C3635 C 0.60311 0.31318 0.03078 0.0
C3636 C 0.61056 0.32193 0.01505 0.0
H3637 H 0.6586 0.18141 0.98562 0.0
H3638 H 0.6312 0.20398 0.97267 0.0
C3639 C 0.6006 0.33614 0.00617 0.0
C3640 C 0.6122 0.29655 0.03832 0.0
H3641 H 0.66746 0.29387 0.06688 0.0
C3642 C 0.5938 0.27041 0.02782 0.0
C3643 C 0.63885 0.30577 0.05481 0.0
C3644 C 0.65847 0.33472 0.07207 0.0
C3645 C 0.60202 0.2526 0.03003 0.0
C3646 C 0.62899 0.26036 0.03887 0.0
C3647 C 0.64689 0.28732 0.05524 0.0
C3648 C 0.64147 0.24074 0.03451 0.0
C3649 C 0.58202 0.22726 0.02506 0.0
C3650 C 0.6611 0.23974 0.06255 0.0
C3651 C 0.67471 0.22007 0.05907 0.0
C3652 C 0.67273 0.19964 0.03138 0.0
C3653 C 0.65661 0.19368 0.00072 0.0
C3654 C 0.64008 0.20884 0.99322 0.0
H3655 H 0.56888 0.23078 0.03235 0.0
H3656 H 0.569 0.21345 0.00367 0.0
H3657 H 0.59142 0.21854 0.0351 0.0
H3658 H 0.65032 0.24217 0.0496 0.0
H3659 H 0.68803 0.22231 0.07694 0.0
H3660 H 0.82502 0.87688 0.91547 0.0
H3661 H 0.81706 0.83339 0.90856 0.0
H3662 H 0.81786 0.81577 0.83709 0.0
H3663 H 0.83275 0.85802 0.84711 0.0
H3664 H 0.80858 0.79498 0.90495 0.0
H3665 H 0.79569 0.77282 0.8156 0.0
H3666 H 0.81277 0.7555 0.80991 0.0
H3667 H 0.82946 0.78901 0.82521 0.0
C3668 C 0.8254 0.86401 0.89911 0.0
C3669 C 0.83099 0.87282 0.88256 0.0
C3670 C 0.82042 0.83856 0.89506 0.0
C3671 C 0.81989 0.8201 0.87401 0.0
C3672 C 0.82171 0.8282 0.85582 0.0
H3673 H 0.79816 0.66386 0.80491 0.0
H3674 H 0.78765 0.69739 0.81629 0.0
C3675 C 0.82874 0.85384 0.86081 0.0
C3676 C 0.81908 0.79417 0.87233 0.0
H3677 H 0.82197 0.73833 0.83478 0.0
C3678 C 0.81261 0.78402 0.89085 0.0
C3679 C 0.82159 0.77552 0.85092 0.0
C3680 C 0.81463 0.7733 0.82428 0.0
C3681 C 0.8072 0.75638 0.88631 0.0
C3682 C 0.81251 0.74019 0.86667 0.0
C3683 C 0.82063 0.751 0.85044 0.0
C3684 C 0.80622 0.71191 0.8584 0.0
C3685 C 0.78974 0.74317 0.89511 0.0
C3686 C 0.81516 0.70377 0.87648 0.0
C3687 C 0.82151 0.68365 0.86965 0.0
C3688 C 0.81776 0.67068 0.84432 0.0
C3689 C 0.80349 0.67491 0.82519 0.0
C3690 C 0.79724 0.69459 0.83199 0.0
H3691 H 0.78791 0.75753 0.90959 0.0
H3692 H 0.76988 0.72858 0.87783 0.0
H3693 H 0.79665 0.73205 0.90322 0.0
H3694 H 0.821 0.71509 0.89679 0.0
H3695 H 0.83109 0.67975 0.88467 0.0
H3696 H 0.75302 0.00605 0.1287 0.0
H3697 H 0.72285 0.0231 0.12429 0.0
H3698 H 0.77365 0.0839 0.11746 0.0
H3699 H 0.80415 0.06748 0.12242 0.0
H3700 H 0.73687 0.09259 0.13981 0.0
H3701 H 0.70658 0.01188 0.04603 0.0
H3702 H 0.68109 0.00121 0.05337 0.0
H3703 H 0.71294 0.00755 0.07421 0.0
C3704 C 0.75838 0.02375 0.12739 0.0
C3705 C 0.77982 0.03428 0.12372 0.0
C3706 C 0.74111 0.03347 0.12501 0.0
C3707 C 0.74557 0.0538 0.11931 0.0
C3708 C 0.76965 0.06759 0.12112 0.0
H3709 H 0.75989 0.15088 0.07294 0.0
H3710 H 0.75416 0.12343 0.09254 0.0
C3711 C 0.78695 0.05802 0.12366 0.0
C3712 C 0.72404 0.05732 0.10562 0.0
H3713 H 0.69356 0.04417 0.04273 0.0
C3714 C 0.72633 0.08168 0.11853 0.0
C3715 C 0.70899 0.04226 0.07788 0.0
C3716 C 0.70248 0.01435 0.06242 0.0
C3717 C 0.71897 0.09379 0.10453 0.0
C3718 C 0.70962 0.08104 0.07712 0.0
C3719 C 0.70209 0.05452 0.06388 0.0
C3720 C 0.71315 0.09593 0.06329 0.0
C3721 C 0.72228 0.12035 0.11947 0.0
C3722 C 0.69332 0.08755 0.03826 0.0
C3723 C 0.69677 0.10331 0.02668 0.0
C3724 C 0.72028 0.12718 0.04002 0.0
C3725 C 0.74096 0.13377 0.06345 0.0
C3726 C 0.73766 0.118 0.07463 0.0
H3727 H 0.73724 0.13584 0.11926 0.0
H3728 H 0.70332 0.11964 0.1104 0.0
H3729 H 0.72842 0.12627 0.14035 0.0
H3730 H 0.67493 0.06954 0.0284 0.0
H3731 H 0.68095 0.0975 0.00809 0.0
H3732 H 0.29472 0.77361 0.25515 0.0
H3733 H 0.25428 0.74122 0.24732 0.0
H3734 H 0.29196 0.76315 0.32878 0.0
H3735 H 0.33433 0.79005 0.33425 0.0
H3736 H 0.2445 0.7186 0.30048 0.0
H3737 H 0.21581 0.75343 0.24401 0.0
H3738 H 0.24936 0.77749 0.26311 0.0
H3739 H 0.22554 0.78585 0.2669 0.0
C3740 C 0.29532 0.76934 0.27047 0.0
C3741 C 0.31762 0.7853 0.29561 0.0
C3742 C 0.27171 0.75155 0.26639 0.0
C3743 C 0.26965 0.75221 0.28818 0.0
C3744 C 0.29283 0.76351 0.31187 0.0
H3745 H 0.12025 0.67281 0.26392 0.0
H3746 H 0.16026 0.71269 0.30164 0.0
C3747 C 0.31709 0.779 0.31505 0.0
C3748 C 0.24473 0.74698 0.28835 0.0
H3749 H 0.20552 0.77379 0.28936 0.0
C3750 C 0.23493 0.72961 0.2966 0.0
C3751 C 0.23214 0.76144 0.28354 0.0
C3752 C 0.23122 0.77047 0.2638 0.0
C3753 C 0.21105 0.72384 0.29642 0.0
C3754 C 0.19942 0.73941 0.29241 0.0
C3755 C 0.21381 0.76139 0.29158 0.0
C3756 C 0.17036 0.72787 0.27775 0.0
C3757 C 0.19773 0.69963 0.29774 0.0
C3758 C 0.15939 0.72715 0.25349 0.0
C3759 C 0.13587 0.70549 0.23251 0.0
C3760 C 0.12351 0.68475 0.23582 0.0
C3761 C 0.13059 0.68849 0.26111 0.0
C3762 C 0.15368 0.71097 0.28249 0.0
H3763 H 0.20998 0.69034 0.30109 0.0
H3764 H 0.1933 0.70462 0.31393 0.0
H3765 H 0.17929 0.68481 0.27894 0.0
H3766 H 0.17061 0.74062 0.24901 0.0
H3767 H 0.12997 0.70311 0.21306 0.0
H3768 H 0.68554 0.0592 0.91103 0.0
H3769 H 0.72227 0.05088 0.9164 0.0
H3770 H 0.71171 0.02336 0.9687 0.0
H3771 H 0.67577 0.03219 0.96412 0.0
H3772 H 0.77101 0.07139 0.96522 0.0
H3773 H 0.7078 0.98274 0.94247 0.0
H3774 H 0.7096 0.96333 0.91529 0.0
H3775 H 0.69508 0.9838 0.9127 0.0
C3776 C 0.69189 0.05266 0.92469 0.0
C3777 C 0.67792 0.04687 0.93746 0.0
C3778 C 0.71273 0.04764 0.92756 0.0
C3779 C 0.72033 0.03722 0.94358 0.0
C3780 C 0.70696 0.03225 0.95699 0.0
H3781 H 0.815 0.96224 0.93966 0.0
H3782 H 0.79064 0.98132 0.95415 0.0
C3783 C 0.68643 0.03751 0.95442 0.0
C3784 C 0.74181 0.03102 0.94569 0.0
H3785 H 0.75362 0.98018 0.92837 0.0
C3786 C 0.76726 0.05152 0.95688 0.0
C3787 C 0.73732 0.00515 0.9364 0.0
C3788 C 0.71093 0.98238 0.9259 0.0
C3789 C 0.78826 0.04704 0.95857 0.0
C3790 C 0.78354 0.02082 0.94781 0.0
C3791 C 0.75789 0.00034 0.93691 0.0
C3792 C 0.80418 0.01371 0.94689 0.0
C3793 C 0.81517 0.07087 0.97281 0.0
C3794 C 0.82262 0.0269 0.94112 0.0
C3795 C 0.83911 0.01789 0.93642 0.0
C3796 C 0.83493 0.99318 0.93316 0.0
C3797 C 0.81838 0.98102 0.94125 0.0
C3798 C 0.80377 0.99164 0.94879 0.0
H3799 H 0.81667 0.08825 0.98735 0.0
H3800 H 0.83083 0.06742 0.98313 0.0
H3801 H 0.81867 0.07628 0.95859 0.0
H3802 H 0.82329 0.04308 0.93814 0.0
H3803 H 0.8527 0.02873 0.93184 0.0
H3804 H 0.45719 0.32572 0.95729 0.0
H3805 H 0.47789 0.35715 0.947 0.0
H3806 H 0.42931 0.39079 0.95606 0.0
H3807 H 0.40675 0.35704 0.96512 0.0
H3808 H 0.41717 0.36559 0.90528 0.0
H3809 H 0.50214 0.42587 0.97438 0.0
H3810 H 0.5248 0.425 0.96217 0.0
H3811 H 0.50883 0.40033 0.96921 0.0
C3812 C 0.45131 0.34028 0.95818 0.0
C3813 C 0.42761 0.33667 0.95747 0.0
C3814 C 0.46392 0.35893 0.9529 0.0
C3815 C 0.45455 0.37567 0.94956 0.0
C3816 C 0.43611 0.37718 0.95728 0.0
H3817 H 0.46158 0.4323 0.84649 0.0
H3818 H 0.45424 0.41885 0.87545 0.0
C3819 C 0.42314 0.35787 0.96226 0.0
C3820 C 0.45828 0.38419 0.93104 0.0
H3821 H 0.50548 0.40558 0.91533 0.0
C3822 C 0.43631 0.37437 0.90726 0.0
C3823 C 0.48329 0.39698 0.93434 0.0
C3824 C 0.50648 0.41316 0.96135 0.0
C3825 C 0.43872 0.37653 0.88649 0.0
C3826 C 0.46398 0.38612 0.88861 0.0
C3827 C 0.48604 0.39638 0.91279 0.0
C3828 C 0.46871 0.39213 0.86904 0.0
C3829 C 0.41389 0.36889 0.86325 0.0
C3830 C 0.47951 0.38115 0.85492 0.0
C3831 C 0.4823 0.38758 0.83588 0.0
C3832 C 0.47545 0.40591 0.83203 0.0
C3833 C 0.46677 0.41783 0.848 0.0
C3834 C 0.4629 0.41056 0.86538 0.0
H3835 H 0.40087 0.3739 0.86967 0.0
H3836 H 0.41695 0.37869 0.85196 0.0
H3837 H 0.40289 0.34738 0.85012 0.0
H3838 H 0.48452 0.36691 0.85772 0.0
H3839 H 0.48894 0.37785 0.8239 0.0
H3840 H 0.90324 0.98326 0.44811 0.0
H3841 H 0.86082 0.95246 0.44001 0.0
H3842 H 0.86677 0.88752 0.39512 0.0
H3843 H 0.90947 0.91811 0.40377 0.0
H3844 H 0.80923 0.90564 0.39107 0.0
H3845 H 0.86656 0.88255 0.46014 0.0
H3846 H 0.88169 0.91028 0.45651 0.0
H3847 H 0.87171 0.87806 0.43267 0.0
C3848 C 0.89541 0.96242 0.43626 0.0
C3849 C 0.91003 0.95322 0.42683 0.0
C3850 C 0.87096 0.94481 0.43141 0.0
C3851 C 0.86031 0.91758 0.41669 0.0
C3852 C 0.87442 0.9084 0.40643 0.0
H3853 H 0.74652 0.7792 0.39814 0.0
H3854 H 0.75761 0.80766 0.3795 0.0
C3855 C 0.89904 0.92595 0.41163 0.0
C3856 C 0.83684 0.89884 0.41553 0.0
H3857 H 0.82041 0.85849 0.44005 0.0
C3858 C 0.81156 0.89478 0.40123 0.0
C3859 C 0.83985 0.88542 0.42957 0.0
C3860 C 0.86639 0.88933 0.4458 0.0
C3861 C 0.78925 0.87671 0.39982 0.0
C3862 C 0.79233 0.86255 0.41308 0.0
C3863 C 0.81783 0.86817 0.42865 0.0
C3864 C 0.77051 0.84351 0.41379 0.0
C3865 C 0.76275 0.87348 0.38511 0.0
C3866 C 0.76813 0.85257 0.43596 0.0
C3867 C 0.76062 0.83595 0.44571 0.0
C3868 C 0.75719 0.81056 0.43499 0.0
C3869 C 0.75296 0.79973 0.40927 0.0
C3870 C 0.75913 0.81607 0.39849 0.0
H3871 H 0.76312 0.88477 0.37463 0.0
H3872 H 0.74821 0.85241 0.3708 0.0
H3873 H 0.7561 0.88032 0.39915 0.0
H3874 H 0.77521 0.87327 0.44756 0.0
H3875 H 0.76158 0.84472 0.46376 0.0
H3876 H 0.46986 0.8989 0.64616 0.0
H3877 H 0.50564 0.88987 0.65994 0.0
H3878 H 0.51436 0.91678 0.73694 0.0
H3879 H 0.47892 0.9264 0.72355 0.0
H3880 H 0.5614 0.91039 0.71145 0.0
H3881 H 0.4673 0.83222 0.68844 0.0
H3882 H 0.4684 0.85077 0.67161 0.0
H3883 H 0.47426 0.86556 0.70444 0.0
C3884 C 0.48046 0.90434 0.66649 0.0
C3885 C 0.47121 0.91254 0.68362 0.0
C3886 C 0.50112 0.89946 0.67439 0.0
C3887 C 0.51253 0.9027 0.69945 0.0
C3888 C 0.50624 0.91502 0.71781 0.0
H3889 H 0.59154 0.85743 0.79139 0.0
H3890 H 0.57996 0.8781 0.76702 0.0
C3891 C 0.48568 0.92013 0.71 0.0
C3892 C 0.52284 0.88549 0.70331 0.0
H3893 H 0.50599 0.83382 0.71336 0.0
C3894 C 0.54898 0.89269 0.71043 0.0
C3895 C 0.50644 0.86221 0.70141 0.0
C3896 C 0.47746 0.85196 0.69088 0.0
C3897 C 0.55936 0.87746 0.71692 0.0
C3898 C 0.5434 0.85552 0.71745 0.0
C3899 C 0.51745 0.84883 0.71047 0.0
C3900 C 0.55389 0.84224 0.72988 0.0
C3901 C 0.58758 0.88599 0.72442 0.0
C3902 C 0.5422 0.81467 0.71717 0.0
C3903 C 0.54731 0.8021 0.73158 0.0
C3904 C 0.56481 0.81715 0.75866 0.0
C3905 C 0.57777 0.84482 0.7706 0.0
C3906 C 0.57184 0.85706 0.75659 0.0
H3907 H 0.59203 0.89167 0.71069 0.0
H3908 H 0.60031 0.9037 0.74421 0.0
H3909 H 0.5925 0.87048 0.72446 0.0
H3910 H 0.52847 0.8029 0.69634 0.0
H3911 H 0.53741 0.78089 0.72175 0.0
H3912 H 0.44581 0.02809 0.5095 0.0
H3913 H 0.48478 0.05258 0.5082 0.0
H3914 H 0.53226 0.04586 0.57127 0.0
H3915 H 0.49377 0.02027 0.57114 0.0
H3916 H 0.51912 0.09699 0.5408 0.0
H3917 H 0.57675 0.04794 0.54126 0.0
H3918 H 0.54281 0.03037 0.53223 0.0
H3919 H 0.56867 0.04767 0.56607 0.0
C3920 C 0.46424 0.03029 0.52181 0.0
C3921 C 0.46634 0.02187 0.54031 0.0
C3922 C 0.48685 0.04486 0.52147 0.0
C3923 C 0.51207 0.05152 0.53974 0.0
C3924 C 0.5135 0.04071 0.55627 0.0
H3925 H 0.63668 0.19835 0.64609 0.0
H3926 H 0.59536 0.16152 0.61046 0.0
C3927 C 0.49106 0.02578 0.55616 0.0
C3928 C 0.53685 0.07326 0.54523 0.0
H3929 H 0.60311 0.09667 0.57178 0.0
C3930 C 0.53724 0.0964 0.54677 0.0
C3931 C 0.56092 0.07304 0.55233 0.0
C3932 C 0.56208 0.04823 0.54752 0.0
C3933 C 0.5608 0.11953 0.55738 0.0
C3934 C 0.58522 0.12042 0.56829 0.0
C3935 C 0.58473 0.09666 0.56438 0.0
C3936 C 0.6108 0.14602 0.58704 0.0
C3937 C 0.55879 0.14274 0.55681 0.0
C3938 C 0.63414 0.15061 0.58614 0.0
C3939 C 0.65842 0.1734 0.60646 0.0
C3940 C 0.66007 0.19217 0.62827 0.0
C3941 C 0.63652 0.1872 0.62866 0.0
C3942 C 0.6125 0.16499 0.60837 0.0
H3943 H 0.54459 0.1366 0.53656 0.0
H3944 H 0.55062 0.14932 0.56931 0.0
H3945 H 0.57775 0.15933 0.56309 0.0
H3946 H 0.63379 0.13611 0.57032 0.0
H3947 H 0.67618 0.17539 0.60608 0.0
H3948 H 0.01978 0.15796 0.99737 0.0
H3949 H 0.00835 0.18422 0.02367 0.0
H3950 H 0.0721 0.25427 0.04017 0.0
H3951 H 0.08605 0.22724 0.01651 0.0
H3952 H 0.08623 0.25505 0.08035 0.0
H3953 H 0.9857 0.22833 0.05481 0.0
H3954 H 0.98335 0.19702 0.04125 0.0
H3955 H 0.99358 0.21894 0.02909 0.0
C3956 C 0.03111 0.17894 0.00605 0.0
C3957 C 0.05518 0.1906 0.00699 0.0
C3958 C 0.02402 0.19427 0.02077 0.0
C3959 C 0.04039 0.22161 0.0357 0.0
C3960 C 0.06002 0.23313 0.03016 0.0
H3961 H 0.05494 0.29147 0.18909 0.0
H3962 H 0.0329 0.26703 0.14138 0.0
C3963 C 0.06807 0.21769 0.01656 0.0
C3964 C 0.04389 0.23528 0.06233 0.0
H3965 H 0.01179 0.22851 0.09668 0.0
C3966 C 0.06967 0.24981 0.08359 0.0
C3967 C 0.02284 0.22936 0.06759 0.0
C3968 C 0.9949 0.21781 0.04682 0.0
C3969 C 0.07493 0.2562 0.10908 0.0
C3970 C 0.05383 0.24657 0.11363 0.0
C3971 C 0.02803 0.2344 0.09303 0.0
C3972 C 0.05885 0.25123 0.14023 0.0
C3973 C 0.1033 0.27331 0.13069 0.0
C3974 C 0.07826 0.24753 0.15538 0.0
C3975 C 0.09213 0.26315 0.18269 0.0
C3976 C 0.08505 0.28072 0.19476 0.0
C3977 C 0.06122 0.2787 0.17988 0.0
C3978 C 0.04852 0.26463 0.15254 0.0
H3979 H 0.11547 0.28509 0.12494 0.0
H3980 H 0.11141 0.26082 0.13456 0.0
H3981 H 0.10534 0.2869 0.14902 0.0
H3982 H 0.08533 0.23573 0.14615 0.0
H3983 H 0.1102 0.26399 0.19384 0.0
H3984 H 0.13114 0.76027 0.01727 0.0
H3985 H 0.12653 0.73368 0.03827 0.0
H3986 H 0.10212 0.77927 0.08273 0.0
H3987 H 0.10672 0.80617 0.06199 0.0
H3988 H 0.13878 0.75439 0.10578 0.0
H3989 H 0.04165 0.689 0.01393 0.0
H3990 H 0.07175 0.70461 0.01385 0.0
H3991 H 0.05749 0.72354 0.0247 0.0
C3992 C 0.12563 0.76531 0.03217 0.0
C3993 C 0.11821 0.7847 0.03716 0.0
C3994 C 0.12307 0.75003 0.04413 0.0
C3995 C 0.11356 0.75431 0.06155 0.0
C3996 C 0.10939 0.77571 0.06912 0.0
H3997 H 0.05575 0.75947 0.1426 0.0
H3998 H 0.08039 0.75457 0.12017 0.0
C3999 C 0.11191 0.791 0.05716 0.0
C4000 C 0.10353 0.73438 0.06857 0.0
H4001 H 0.04356 0.68922 0.05262 0.0
C4002 C 0.11823 0.73935 0.09389 0.0
C4003 C 0.07707 0.71395 0.05248 0.0
C4004 C 0.06097 0.7072 0.02462 0.0
C4005 C 0.10585 0.72724 0.10496 0.0
C4006 C 0.07822 0.711 0.09061 0.0
C4007 C 0.06466 0.70222 0.06377 0.0
C4008 C 0.06318 0.71255 0.10437 0.0
C4009 C 0.12176 0.73384 0.13278 0.0
C4010 C 0.04383 0.69028 0.10126 0.0
C4011 C 0.02947 0.69327 0.11412 0.0
C4012 C 0.03415 0.71837 0.12955 0.0
C4013 C 0.05215 0.74009 0.13104 0.0
C4014 C 0.06652 0.73728 0.11861 0.0
H4015 H 0.14318 0.74549 0.14062 0.0
H4016 H 0.11638 0.74512 0.14583 0.0
H4017 H 0.11753 0.71541 0.13339 0.0
H4018 H 0.04037 0.67092 0.0896 0.0
H4019 H 0.01564 0.67635 0.11301 0.0
H4020 H 0.358 0.97492 0.41777 0.0
H4021 H 0.39841 0.97386 0.43956 0.0
H4022 H 0.36144 0.93163 0.47127 0.0
H4023 H 0.32386 0.93556 0.4529 0.0
H4024 H 0.4119 0.94997 0.49657 0.0
H4025 H 0.40757 0.92472 0.40869 0.0
H4026 H 0.38482 0.9346 0.40715 0.0
H4027 H 0.37465 0.90018 0.38956 0.0
C4028 C 0.35954 0.96704 0.43091 0.0
C4029 C 0.33752 0.95415 0.43277 0.0
C4030 C 0.38232 0.96592 0.44288 0.0
C4031 C 0.38206 0.9506 0.45509 0.0
C4032 C 0.36214 0.9429 0.46133 0.0
H4033 H 0.38001 0.82504 0.47892 0.0
H4034 H 0.37046 0.85875 0.47417 0.0
C4035 C 0.34029 0.94511 0.45064 0.0
C4036 C 0.39686 0.93624 0.45553 0.0
H4037 H 0.37855 0.87551 0.41026 0.0
C4038 C 0.40566 0.93382 0.47791 0.0
C4039 C 0.39026 0.91578 0.43157 0.0
C4040 C 0.38872 0.91902 0.40817 0.0
C4041 C 0.40154 0.90955 0.47596 0.0
C4042 C 0.39005 0.88722 0.45101 0.0
C4043 C 0.38584 0.8914 0.42942 0.0
C4044 C 0.38523 0.86046 0.44728 0.0
C4045 C 0.4082 0.90842 0.5008 0.0
C4046 C 0.38942 0.84496 0.42872 0.0
C4047 C 0.39157 0.82372 0.42924 0.0
C4048 C 0.39166 0.81835 0.44939 0.0
C4049 C 0.38222 0.83004 0.46447 0.0
C4050 C 0.37795 0.85029 0.46254 0.0
H4051 H 0.41656 0.89555 0.50161 0.0
H4052 H 0.39006 0.90045 0.50167 0.0
H4053 H 0.42205 0.92819 0.51831 0.0
H4054 H 0.3932 0.84999 0.41493 0.0
H4055 H 0.39623 0.81363 0.41556 0.0
H4056 H 0.15271 0.1235 0.67748 0.0
H4057 H 0.15748 0.1635 0.70864 0.0
H4058 H 0.12618 0.17856 0.64596 0.0
H4059 H 0.1226 0.13926 0.6151 0.0
H4060 H 0.17228 0.21751 0.68252 0.0
H4061 H 0.11581 0.19409 0.73102 0.0
H4062 H 0.13671 0.18006 0.73218 0.0
H4063 H 0.11015 0.16954 0.70104 0.0
C4064 C 0.1456 0.13463 0.67011 0.0
C4065 C 0.13697 0.12803 0.64371 0.0
C4066 C 0.14844 0.15766 0.68804 0.0
C4067 C 0.14215 0.17425 0.6798 0.0
C4068 C 0.13122 0.16624 0.65293 0.0
H4069 H 0.24028 0.34439 0.78825 0.0
H4070 H 0.20079 0.30849 0.74762 0.0
C4071 C 0.12891 0.14359 0.63518 0.0
C4072 C 0.15106 0.2017 0.69929 0.0
H4073 H 0.14878 0.23841 0.75191 0.0
C4074 C 0.16752 0.22233 0.69806 0.0
C4075 C 0.1441 0.20791 0.71892 0.0
C4076 C 0.12549 0.18673 0.72076 0.0
C4077 C 0.17879 0.24887 0.71667 0.0
C4078 C 0.17392 0.25559 0.73823 0.0
C4079 C 0.15499 0.23447 0.7375 0.0
C4080 C 0.19048 0.28261 0.76334 0.0
C4081 C 0.19532 0.26856 0.71187 0.0
C4082 C 0.19433 0.28436 0.78767 0.0
C4083 C 0.21514 0.30651 0.8115 0.0
C4084 C 0.23379 0.32725 0.81199 0.0
C4085 C 0.2273 0.32807 0.78859 0.0
C4086 C 0.20518 0.30646 0.76476 0.0
H4087 H 0.19829 0.25934 0.69532 0.0
H4088 H 0.18544 0.2794 0.70681 0.0
H4089 H 0.21492 0.28231 0.72925 0.0
H4090 H 0.18335 0.26779 0.78893 0.0
H4091 H 0.21865 0.30559 0.8293 0.0
H4092 H 0.18315 0.08159 0.80621 0.0
H4093 H 0.14576 0.07872 0.81167 0.0
H4094 H 0.13076 0.00613 0.81105 0.0
H4095 H 0.16897 0.0096 0.80737 0.0
H4096 H 0.10296 0.02962 0.76055 0.0
H4097 H 0.08914 0.02595 0.84287 0.0
H4098 H 0.11622 0.05559 0.85083 0.0
H4099 H 0.11694 0.02579 0.8401 0.0
C4100 C 0.17252 0.0654 0.80814 0.0
C4101 C 0.17743 0.04435 0.80363 0.0
C4102 C 0.15073 0.06358 0.81078 0.0
C4103 C 0.13351 0.04061 0.80845 0.0
C4104 C 0.1422 0.02298 0.81058 0.0
H4105 H 0.97156 0.99737 0.76856 0.0
H4106 H 0.00857 0.99055 0.77236 0.0
C4107 C 0.16448 0.02517 0.80876 0.0
C4108 C 0.10507 0.03225 0.79653 0.0
H4109 H 0.05374 0.02111 0.80788 0.0
C4110 C 0.09226 0.0281 0.77105 0.0
C4111 C 0.09077 0.029 0.80963 0.0
C4112 C 0.10376 0.03409 0.83729 0.0
C4113 C 0.0663 0.02297 0.75919 0.0
C4114 C 0.05228 0.0212 0.77286 0.0
C4115 C 0.06439 0.02291 0.79739 0.0
C4116 C 0.02627 0.02008 0.76342 0.0
C4117 C 0.05435 0.0194 0.73204 0.0
C4118 C 0.02248 0.03759 0.75515 0.0
C4119 C 0.0005 0.04049 0.75159 0.0
C4120 C 0.98275 0.02732 0.75796 0.0
C4121 C 0.98478 0.00765 0.76324 0.0
C4122 C 0.00635 0.00412 0.76597 0.0
H4123 H 0.06162 0.00944 0.7204 0.0
H4124 H 0.03261 0.00765 0.72114 0.0
H4125 H 0.06035 0.03894 0.73358 0.0
H4126 H 0.03755 0.05088 0.7537 0.0
H4127 H -0.00029 0.05597 0.7478 0.0
H4128 H 0.20941 0.19347 0.35447 0.0
H4129 H 0.18263 0.19261 0.31527 0.0
H4130 H 0.24838 0.21618 0.30247 0.0
H4131 H 0.27369 0.2127 0.33917 0.0
H4132 H 0.17262 0.20803 0.28064 0.0
H4133 H 0.20973 0.13965 0.25138 0.0
H4134 H 0.21802 0.15841 0.28473 0.0
H4135 H 0.23356 0.17389 0.27011 0.0
C4136 C 0.21832 0.19886 0.34355 0.0
C4137 C 0.24226 0.19991 0.34769 0.0
C4138 C 0.20307 0.1988 0.32126 0.0
C4139 C 0.21285 0.20193 0.30456 0.0
C4140 C 0.23984 0.21171 0.31402 0.0
H4141 H 0.07806 0.11639 0.14396 0.0
H4142 H 0.12384 0.14911 0.17771 0.0
C4143 C 0.25449 0.21012 0.33533 0.0
C4144 C 0.19404 0.18773 0.27589 0.0
H4145 H 0.17175 0.13212 0.21958 0.0
C4146 C 0.17281 0.19192 0.26706 0.0
C4147 C 0.19397 0.16625 0.25814 0.0
C4148 C 0.2149 0.15906 0.26645 0.0
C4149 C 0.15084 0.17426 0.2418 0.0
C4150 C 0.15047 0.1523 0.22468 0.0
C4151 C 0.1724 0.14921 0.23271 0.0
C4152 C 0.12591 0.12988 0.20079 0.0
C4153 C 0.1273 0.17794 0.23439 0.0
C4154 C 0.11295 0.10709 0.20139 0.0
C4155 C 0.08698 0.0883 0.18203 0.0
C4156 C 0.07364 0.0922 0.16195 0.0
C4157 C 0.08802 0.11278 0.15909 0.0
C4158 C 0.11396 0.13185 0.17871 0.0
H4159 H 0.12993 0.19482 0.25072 0.0
H4160 H 0.12365 0.18126 0.21746 0.0
H4161 H 0.10975 0.15994 0.22843 0.0
H4162 H 0.12204 0.10508 0.21816 0.0
H4163 H 0.07642 0.0728 0.18488 0.0
H4164 H 0.16106 0.65376 0.64033 0.0
H4165 H 0.15158 0.63151 0.5959 0.0
H4166 H 0.18729 0.70583 0.59945 0.0
H4167 H 0.1993 0.72849 0.64596 0.0
H4168 H 0.12226 0.631 0.55672 0.0
H4169 H 0.22263 0.66969 0.57004 0.0
H4170 H 0.21665 0.67585 0.5973 0.0
H4171 H 0.21278 0.69354 0.58019 0.0
C4172 C 0.16511 0.66534 0.63113 0.0
C4173 C 0.17952 0.69263 0.64593 0.0
C4174 C 0.16077 0.65269 0.60609 0.0
C4175 C 0.16904 0.66703 0.59455 0.0
C4176 C 0.18131 0.69448 0.60832 0.0
H4177 H 0.10851 0.61469 0.44374 0.0
H4178 H 0.14957 0.63411 0.48367 0.0
C4179 C 0.18707 0.70733 0.63431 0.0
C4180 C 0.16255 0.65201 0.56739 0.0
H4181 H 0.18717 0.63738 0.52668 0.0
C4182 C 0.13648 0.6323 0.55015 0.0
C4183 C 0.18142 0.65375 0.55934 0.0
C4184 C 0.21002 0.67419 0.57769 0.0
C4185 C 0.12851 0.61352 0.52536 0.0
C4186 C 0.14699 0.6153 0.51654 0.0
C4187 C 0.17321 0.63562 0.53359 0.0
C4188 C 0.13781 0.59996 0.48837 0.0
C4189 C 0.10008 0.59234 0.50919 0.0
C4190 C 0.12064 0.57276 0.47493 0.0
C4191 C 0.09634 0.56218 0.45304 0.0
C4192 C 0.09101 0.57872 0.44423 0.0
C4193 C 0.1118 0.60267 0.4521 0.0
C4194 C 0.13558 0.61349 0.47452 0.0
H4195 H 0.09878 0.57309 0.50445 0.0
H4196 H 0.09064 0.59259 0.49105 0.0
H4197 H 0.08873 0.59464 0.51936 0.0
H4198 H 0.12303 0.56148 0.48458 0.0
H4199 H 0.08074 0.54295 0.44615 0.0
H4200 H 0.4358 0.90659 0.9891 0.0
H4201 H 0.43355 0.86767 0.95854 0.0
H4202 H 0.41661 0.89071 0.89997 0.0
H4203 H 0.41807 0.92858 0.9293 0.0
H4204 H 0.39139 0.82447 0.90168 0.0
H4205 H 0.48562 0.88864 0.91289 0.0
H4206 H 0.47702 0.89738 0.93821 0.0
H4207 H 0.46342 0.9011 0.91028 0.0
C4208 C 0.43104 0.903 0.96946 0.0
C4209 C 0.42733 0.9209 0.96177 0.0
C4210 C 0.42981 0.88079 0.95209 0.0
C4211 C 0.42504 0.87643 0.92699 0.0
C4212 C 0.4202 0.89363 0.9191 0.0
H4213 H 0.43144 0.80815 0.79385 0.0
H4214 H 0.42553 0.82978 0.82931 0.0
C4215 C 0.4212 0.91547 0.93611 0.0
C4216 C 0.4265 0.85512 0.90902 0.0
H4217 H 0.4582 0.84686 0.87467 0.0
C4218 C 0.40608 0.8291 0.8958 0.0
C4219 C 0.44617 0.86118 0.9021 0.0
C4220 C 0.46947 0.88852 0.91675 0.0
C4221 C 0.40328 0.80941 0.87387 0.0
C4222 C 0.42136 0.8163 0.86499 0.0
C4223 C 0.44343 0.84174 0.88037 0.0
C4224 C 0.4176 0.79909 0.83916 0.0
C4225 C 0.38056 0.78197 0.86028 0.0
C4226 C 0.41318 0.77341 0.83097 0.0
C4227 C 0.41718 0.7613 0.81039 0.0
C4228 C 0.4297 0.77643 0.80122 0.0
C4229 C 0.42595 0.79773 0.80344 0.0
C4230 C 0.42208 0.81015 0.82375 0.0
H4231 H 0.36421 0.78202 0.86371 0.0
H4232 H 0.37284 0.7716 0.83887 0.0
H4233 H 0.38734 0.77063 0.86836 0.0
H4234 H 0.40921 0.76369 0.84178 0.0
H4235 H 0.41646 0.7428 0.80645 0.0
H4236 H 0.1648 0.01501 0.03967 0.0
H4237 H 0.17873 0.05804 0.04667 0.0
H4238 H 0.25529 0.08451 0.10893 0.0
H4239 H 0.23778 0.04173 0.10603 0.0
H4240 H 0.24705 0.11578 0.12662 0.0
H4241 H 0.2087 0.10758 0.03142 0.0
H4242 H 0.18073 0.08532 0.02983 0.0
H4243 H 0.20854 0.08006 0.03448 0.0
C4244 C 0.1846 0.02978 0.05479 0.0
C4245 C 0.19913 0.02532 0.0736 0.0
C4246 C 0.19317 0.05499 0.05851 0.0
C4247 C 0.21829 0.07588 0.07898 0.0
C4248 C 0.23525 0.06964 0.0939 0.0
H4249 H 0.31732 0.17508 0.10839 0.0
H4250 H 0.27895 0.14824 0.10751 0.0
C4251 C 0.22553 0.04477 0.09173 0.0
C4252 C 0.22484 0.10396 0.08717 0.0
H4253 H 0.21206 0.14273 0.06455 0.0
C4254 C 0.23926 0.12311 0.11444 0.0
C4255 C 0.21407 0.11125 0.06896 0.0
C4256 C 0.20245 0.09495 0.03964 0.0
C4257 C 0.24218 0.14989 0.12617 0.0
C4258 C 0.23792 0.15544 0.10417 0.0
C4259 C 0.218 0.13647 0.07856 0.0
C4260 C 0.26086 0.17193 0.10358 0.0
C4261 C 0.25026 0.18196 0.17794 0.0
C4262 C 0.2621 0.19233 0.09824 0.0
C4263 C 0.28473 0.20854 0.0994 0.0
C4264 C 0.30554 0.20331 0.10424 0.0
C4265 C 0.30215 0.18033 0.10534 0.0
C4266 C 0.28027 0.16507 0.10539 0.0
H4267 H 0.23841 0.17361 0.18638 0.0
H4268 H 0.2696 0.192 0.19662 0.0
H4269 H 0.24779 0.19984 0.18312 0.0
H4270 H 0.24638 0.19677 0.09499 0.0
H4271 H 0.28648 0.22578 0.09794 0.0
H4272 H 0.01087 0.09783 0.74559 0.0
H4273 H 0.04543 0.10084 0.73482 0.0
H4274 H 0.10339 0.14815 0.81718 0.0
H4275 H 0.06833 0.14249 0.82802 0.0
H4276 H 0.09237 0.12927 0.74084 0.0
H4277 H 0.10273 0.08084 0.80139 0.0
H4278 H 0.0777 0.0896 0.79378 0.0
H4279 H 0.11111 0.11421 0.8188 0.0
C4280 C 0.031 0.10936 0.76139 0.0
C4281 C 0.03693 0.11883 0.78759 0.0
C4282 C 0.05085 0.11135 0.75521 0.0
C4283 C 0.07691 0.12365 0.77524 0.0
C4284 C 0.08326 0.13754 0.80143 0.0
H4285 H 0.18091 0.06857 0.73909 0.0
H4286 H 0.1676 0.10178 0.75112 0.0
C4287 C 0.06328 0.13436 0.80763 0.0
C4288 C 0.09511 0.11603 0.76896 0.0
H4289 H 0.12235 0.0781 0.77593 0.0
C4290 C 0.09965 0.11873 0.74908 0.0
C4291 C 0.10413 0.10171 0.77931 0.0
C4292 C 0.09853 0.09616 0.79927 0.0
C4293 C 0.11192 0.10647 0.73859 0.0
C4294 C 0.11988 0.09152 0.74843 0.0
C4295 C 0.11674 0.09018 0.76915 0.0
C4296 C 0.12727 0.07314 0.73529 0.0
C4297 C 0.1147 0.10792 0.71599 0.0
C4298 C 0.10915 0.04634 0.72199 0.0
C4299 C 0.11746 0.02798 0.71815 0.0
C4300 C 0.14396 0.03601 0.72601 0.0
C4301 C 0.16127 0.06241 0.73554 0.0
C4302 C 0.1533 0.08115 0.74119 0.0
H4303 H 0.10973 0.12222 0.71203 0.0
H4304 H 0.1351 0.11355 0.7201 0.0
H4305 H 0.1015 0.08825 0.69808 0.0
H4306 H 0.0888 0.0399 0.71611 0.0
H4307 H 0.10318 0.00755 0.70946 0.0
H4308 H 0.61937 0.14278 0.14623 0.0
H4309 H 0.65163 0.14739 0.1854 0.0
H4310 H 0.69592 0.13467 0.14741 0.0
H4311 H 0.66446 0.13108 0.10855 0.0
H4312 H 0.67749 0.11991 0.20074 0.0
H4313 H 0.71142 0.19227 0.18521 0.0
H4314 H 0.73113 0.17907 0.17746 0.0
H4315 H 0.7463 0.20919 0.20724 0.0
C4316 C 0.63558 0.14023 0.14581 0.0
C4317 C 0.63922 0.1367 0.12399 0.0
C4318 C 0.65408 0.14286 0.16835 0.0
C4319 C 0.67663 0.14192 0.16966 0.0
C4320 C 0.67897 0.13588 0.14705 0.0
H4321 H 0.82866 0.2085 0.305 0.0
H4322 H 0.78885 0.17299 0.26364 0.0
C4323 C 0.66066 0.13348 0.1246 0.0
C4324 C 0.69917 0.15081 0.19545 0.0
H4325 H 0.76116 0.20112 0.24127 0.0
C4326 C 0.69605 0.13747 0.20949 0.0
C4327 C 0.72351 0.17371 0.20704 0.0
C4328 C 0.72837 0.18956 0.19365 0.0
C4329 C 0.71656 0.14656 0.23469 0.0
C4330 C 0.74054 0.16985 0.24646 0.0
C4331 C 0.74347 0.18284 0.23222 0.0
C4332 C 0.76232 0.18265 0.27417 0.0
C4333 C 0.71263 0.13136 0.24868 0.0
C4334 C 0.76056 0.1978 0.29526 0.0
C4335 C 0.78342 0.21814 0.31912 0.0
C4336 C 0.80852 0.22401 0.32228 0.0
C4337 C 0.80981 0.20535 0.30311 0.0
C4338 C 0.78693 0.18502 0.27919 0.0
H4339 H 0.69423 0.11205 0.23582 0.0
H4340 H 0.72951 0.12818 0.25588 0.0
H4341 H 0.71187 0.1429 0.26603 0.0
H4342 H 0.74181 0.19608 0.29228 0.0
H4343 H 0.78126 0.23102 0.3337 0.0
H4344 H 0.95551 0.38652 0.35871 0.0
H4345 H 0.96489 0.4091 0.40399 0.0
H4346 H 0.98838 0.48177 0.40389 0.0
H4347 H 0.97399 0.45833 0.35675 0.0
H4348 H -9e-05 0.4777 0.46138 0.0
H4349 H 0.89979 0.42727 0.3751 0.0
H4350 H 0.9141 0.40836 0.382 0.0
H4351 H 0.92652 0.42935 0.36983 0.0
C4352 C 0.96247 0.40738 0.3682 0.0
C4353 C 0.96028 0.41997 0.3532 0.0
C4354 C 0.96877 0.42049 0.39454 0.0
C4355 C 0.97549 0.44701 0.40674 0.0
C4356 C 0.98127 0.46097 0.39401 0.0
H4357 H 0.89226 0.5196 0.44615 0.0
H4358 H 0.93311 0.51947 0.45011 0.0
C4359 C 0.97291 0.44751 0.36711 0.0
C4360 C 0.96449 0.45597 0.42363 0.0
H4361 H 0.90802 0.45453 0.41593 0.0
C4362 C 0.97979 0.47318 0.45114 0.0
C4363 C 0.93777 0.44863 0.41113 0.0
C4364 C 0.91859 0.42744 0.3829 0.0
C4365 C 0.96877 0.48409 0.46541 0.0
C4366 C 0.94327 0.47982 0.45147 0.0
C4367 C 0.92812 0.46057 0.42534 0.0
C4368 C 0.9289 0.49078 0.46261 0.0
C4369 C 0.98285 0.49767 0.49483 0.0
C4370 C 0.91391 0.47625 0.47015 0.0
C4371 C 0.89079 0.47605 0.46772 0.0
C4372 C 0.88147 0.49078 0.45815 0.0
C4373 C 0.89805 0.50768 0.45323 0.0
C4374 C 0.92152 0.50765 0.45555 0.0
H4375 H 0.00301 0.50061 0.50316 0.0
H4376 H 0.98327 0.51663 0.50304 0.0
H4377 H 0.97175 0.48539 0.50096 0.0
H4378 H 0.91814 0.4623 0.47466 0.0
H4379 H 0.87883 0.4616 0.47059 0.0
H4380 H 0.02824 0.96178 0.68733 0.0
H4381 H 0.02196 0.96802 0.72466 0.0
H4382 H 0.06503 0.9297 0.74444 0.0
H4383 H 0.07396 0.92602 0.70855 0.0
H4384 H 0.99564 0.93448 0.73153 0.0
H4385 H 0.09522 0.98061 0.8157 0.0
H4386 H 0.08967 0.97685 0.7839 0.0
H4387 H 0.08313 0.94921 0.78932 0.0
C4388 C 0.03755 0.95575 0.70028 0.0
C4389 C 0.05104 0.94265 0.69435 0.0
C4390 C 0.03376 0.95921 0.72171 0.0
C4391 C 0.04365 0.95014 0.73824 0.0
C4392 C 0.05845 0.9384 0.73324 0.0
H4393 H 0.02136 0.93436 0.86138 0.0
H4394 H 0.03927 0.94398 0.83527 0.0
C4395 C 0.06315 0.93585 0.71227 0.0
C4396 C 0.03633 0.95135 0.759 0.0
H4397 H 0.06083 0.97263 0.82448 0.0
C4398 C 0.01001 0.94295 0.75191 0.0
C4399 C 0.05451 0.96109 0.78543 0.0
C4400 C 0.08235 0.96761 0.79418 0.0
C4401 C 0.00151 0.94403 0.77019 0.0
C4402 C 0.01991 0.95555 0.79711 0.0
C4403 C 0.04636 0.96414 0.80418 0.0
C4404 C 0.01188 0.95522 0.81731 0.0
C4405 C 0.9726 0.93086 0.75971 0.0
C4406 C 0.9917 0.96028 0.8184 0.0
C4407 C 0.97986 0.95255 0.83218 0.0
C4408 C 0.98897 0.941 0.84632 0.0
C4409 C 0.01259 0.9415 0.8496 0.0
C4410 C 0.02326 0.94748 0.83462 0.0
H4411 H 0.96149 0.91655 0.73836 0.0
H4412 H 0.96805 0.92021 0.76996 0.0
H4413 H 0.96619 0.94567 0.76285 0.0
H4414 H 0.9838 0.96842 0.80716 0.0
H4415 H 0.96247 0.95381 0.83014 0.0
H4416 H 0.99907 0.07026 0.22248 0.0
H4417 H 0.02364 0.0581 0.25207 0.0
H4418 H 0.05565 0.03666 0.20204 0.0
H4419 H 0.03231 0.04839 0.17394 0.0
H4420 H 0.04723 0.00379 0.22311 0.0
H4421 H 0.10104 0.10833 0.30053 0.0
H4422 H 0.06687 0.08712 0.28812 0.0
H4423 H 0.07693 0.09997 0.26909 0.0
C4424 C 0.011 0.06239 0.21784 0.0
C4425 C 0.01323 0.05967 0.19554 0.0
C4426 C 0.02486 0.05531 0.23455 0.0
C4427 C 0.04123 0.04596 0.22911 0.0
C4428 C 0.04259 0.04283 0.20645 0.0
H4429 H 0.18071 0.11408 0.26601 0.0
H4430 H 0.13377 0.08723 0.24689 0.0
C4431 C 0.02919 0.04982 0.19029 0.0
C4432 C 0.06166 0.04459 0.24835 0.0
H4433 H 0.12615 0.09089 0.28837 0.0
C4434 C 0.06464 0.02256 0.23829 0.0
C4435 C 0.08413 0.0686 0.26919 0.0
C4436 C 0.08223 0.09237 0.28261 0.0
C4437 C 0.08939 0.02589 0.24233 0.0
C4438 C 0.11146 0.05138 0.25896 0.0
C4439 C 0.10889 0.07167 0.2743 0.0
C4440 C 0.13657 0.05896 0.25873 0.0
C4441 C 0.09122 0.00296 0.22661 0.0
C4442 C 0.15317 0.04968 0.26797 0.0
C4443 C 0.18017 0.06462 0.27792 0.0
C4444 C 0.19051 0.0892 0.2795 0.0
C4445 C 0.17332 0.09535 0.2652 0.0
C4446 C 0.14641 0.0802 0.25475 0.0
H4447 H 0.07158 0.98547 0.21154 0.0
H4448 H 0.10225 0.00829 0.21672 0.0
H4449 H 0.102 0.99754 0.23999 0.0
H4450 H 0.14604 0.03307 0.27077 0.0
H4451 H 0.1931 0.05937 0.28871 0.0
H4452 H 0.37687 0.77038 0.37459 0.0
H4453 H 0.34435 0.78427 0.36904 0.0
H4454 H 0.30207 0.72734 0.38532 0.0
H4455 H 0.33331 0.71263 0.38891 0.0
H4456 H 0.33857 0.8094 0.40039 0.0
H4457 H 0.23959 0.72389 0.34763 0.0
H4458 H 0.26168 0.72214 0.37272 0.0
H4459 H 0.26636 0.72039 0.34518 0.0
C4460 C 0.36036 0.76036 0.37634 0.0
C4461 C 0.35954 0.74214 0.38494 0.0
C4462 C 0.34128 0.76826 0.37296 0.0
C4463 C 0.32029 0.75777 0.37741 0.0
C4464 C 0.31713 0.73619 0.38124 0.0
H4465 H 0.21743 0.82503 0.36144 0.0
H4466 H 0.23011 0.79186 0.36082 0.0
C4467 C 0.33557 0.72764 0.38342 0.0
C4468 C 0.30467 0.77169 0.38159 0.0
H4469 H 0.24512 0.76442 0.37498 0.0
C4470 C 0.31813 0.79921 0.39451 0.0
C4471 C 0.27758 0.75913 0.3742 0.0
C4472 C 0.26045 0.72975 0.35891 0.0
C4473 C 0.30623 0.81432 0.40017 0.0
C4474 C 0.27955 0.80207 0.39386 0.0
C4475 C 0.26565 0.77437 0.3806 0.0
C4476 C 0.26572 0.81775 0.39876 0.0
C4477 C 0.32285 0.84345 0.4121 0.0
C4478 C 0.27859 0.84223 0.42187 0.0
C4479 C 0.2719 0.86168 0.42178 0.0
C4480 C 0.25095 0.85642 0.39927 0.0
C4481 C 0.23404 0.82997 0.37896 0.0
C4482 C 0.24143 0.81078 0.37858 0.0
H4483 H 0.33819 0.84781 0.40656 0.0
H4484 H 0.31137 0.85232 0.40559 0.0
H4485 H 0.33254 0.85299 0.43376 0.0
H4486 H 0.29596 0.84761 0.4389 0.0
H4487 H 0.28506 0.88158 0.43808 0.0
H4488 H 0.66757 0.64934 0.19595 0.0
H4489 H 0.64874 0.60412 0.18519 0.0
H4490 H 0.69345 0.59306 0.14696 0.0
H4491 H 0.7122 0.63965 0.15792 0.0
H4492 H 0.62093 0.55952 0.13101 0.0
H4493 H 0.70723 0.56694 0.20517 0.0
H4494 H 0.70293 0.59494 0.2091 0.0
H4495 H 0.7114 0.58147 0.18518 0.0
C4496 C 0.67354 0.63755 0.18558 0.0
C4497 C 0.69149 0.64818 0.17836 0.0
C4498 C 0.66275 0.61161 0.17929 0.0
C4499 C 0.67012 0.59551 0.1658 0.0
C4500 C 0.68793 0.60555 0.15788 0.0
H4501 H 0.63515 0.44527 0.11029 0.0
H4502 H 0.65629 0.48865 0.14661 0.0
C4503 C 0.69848 0.63193 0.164 0.0
C4504 C 0.65785 0.56808 0.15964 0.0
H4505 H 0.66756 0.52725 0.1816 0.0
C4506 C 0.6311 0.55193 0.1414 0.0
C4507 C 0.67113 0.55919 0.17435 0.0
C4508 C 0.69981 0.57642 0.19468 0.0
C4509 C 0.61751 0.52602 0.13558 0.0
C4510 C 0.63078 0.51667 0.15028 0.0
C4511 C 0.65726 0.53395 0.17011 0.0
C4512 C 0.61988 0.48821 0.14173 0.0
C4513 C 0.5896 0.50925 0.11289 0.0
C4514 C 0.59287 0.47125 0.13052 0.0
C4515 C 0.58061 0.44679 0.10807 0.0
C4516 C 0.59608 0.43935 0.09892 0.0
C4517 C 0.62301 0.45179 0.11633 0.0
C4518 C 0.63519 0.47693 0.1373 0.0
H4519 H 0.58486 0.5187 0.10114 0.0
H4520 H 0.58594 0.49002 0.09926 0.0
H4521 H 0.57584 0.50605 0.12054 0.0
H4522 H 0.58082 0.47854 0.13571 0.0
H4523 H 0.55949 0.43658 0.0956 0.0
H4524 H 0.71893 0.46935 0.90059 0.0
H4525 H 0.72819 0.49868 0.88258 0.0
H4526 H 0.66093 0.5063 0.87846 0.0
H4527 H 0.65144 0.47678 0.89585 0.0
H4528 H 0.6606 0.49706 0.83365 0.0
H4529 H 0.76258 0.55645 0.90657 0.0
H4530 H 0.73946 0.54638 0.91736 0.0
H4531 H 0.74987 0.57706 0.91818 0.0
C4532 C 0.7068 0.47813 0.8968 0.0
C4533 C 0.68491 0.47139 0.90033 0.0
C4534 C 0.71181 0.49456 0.88614 0.0
C4535 C 0.69526 0.50482 0.87924 0.0
C4536 C 0.67393 0.49868 0.88356 0.0
H4537 H 0.76636 0.61589 0.83898 0.0
H4538 H 0.7318 0.59784 0.84828 0.0
C4539 C 0.66874 0.48206 0.89381 0.0
C4540 C 0.69976 0.52134 0.86686 0.0
H4541 H 0.74672 0.57557 0.8749 0.0
C4542 C 0.67985 0.51338 0.84206 0.0
C4543 C 0.72364 0.54477 0.87919 0.0
C4544 C 0.7449 0.55649 0.90686 0.0
C4545 C 0.68478 0.52566 0.8276 0.0
C4546 C 0.70968 0.54752 0.83896 0.0
C4547 C 0.72791 0.55803 0.86546 0.0
C4548 C 0.71925 0.55738 0.82329 0.0
C4549 C 0.66346 0.5152 0.80033 0.0
C4550 C 0.72186 0.54069 0.80378 0.0
C4551 C 0.74245 0.55108 0.79909 0.0
C4552 C 0.75955 0.57824 0.81287 0.0
C4553 C 0.75338 0.59481 0.8281 0.0
C4554 C 0.73354 0.5845 0.83347 0.0
H4555 H 0.6656 0.50112 0.78594 0.0
H4556 H 0.64373 0.50476 0.79777 0.0
H4557 H 0.66483 0.53126 0.79589 0.0
H4558 H 0.71134 0.51972 0.79585 0.0
H4559 H 0.74702 0.53788 0.78759 0.0
H4560 H 0.53045 0.80397 0.77952 0.0
H4561 H 0.49537 0.81424 0.75491 0.0
H4562 H 0.47331 0.83678 0.82172 0.0
H4563 H 0.50278 0.82685 0.84882 0.0
H4564 H 0.42912 0.79601 0.7556 0.0
H4565 H 0.53804 0.92193 0.80577 0.0
H4566 H 0.54816 0.90437 0.81542 0.0
H4567 H 0.53437 0.91831 0.82967 0.0
C4568 C 0.51998 0.8091 0.78881 0.0
C4569 C 0.52846 0.8141 0.81925 0.0
C4570 C 0.49724 0.81433 0.77273 0.0
C4571 C 0.47817 0.82156 0.78362 0.0
C4572 C 0.48353 0.82879 0.81373 0.0
H4573 H 0.36814 0.86133 0.70229 0.0
H4574 H 0.38844 0.84473 0.72829 0.0
C4575 C 0.50544 0.823 0.83205 0.0
C4576 C 0.46377 0.83192 0.7697 0.0
H4577 H 0.46133 0.86469 0.7356 0.0
C4578 C 0.43672 0.81347 0.75411 0.0
C4579 C 0.4766 0.85717 0.76944 0.0
C4580 C 0.52964 0.90518 0.8092 0.0
C4581 C 0.41918 0.81561 0.73553 0.0
C4582 C 0.42917 0.83533 0.73009 0.0
C4583 C 0.45653 0.85296 0.74446 0.0
C4584 C 0.41155 0.83891 0.70991 0.0
C4585 C 0.39037 0.79523 0.72017 0.0
C4586 C 0.41595 0.83968 0.68949 0.0
C4587 C 0.4047 0.84989 0.67511 0.0
C4588 C 0.38782 0.85833 0.6796 0.0
C4589 C 0.38084 0.85456 0.69785 0.0
C4590 C 0.3927 0.8452 0.71299 0.0
H4591 H 0.3868 0.77758 0.72229 0.0
H4592 H 0.37955 0.80373 0.7275 0.0
H4593 H 0.38207 0.78901 0.699 0.0
H4594 H 0.42948 0.83406 0.6859 0.0
H4595 H 0.41145 0.85417 0.66279 0.0
H4596 H 0.62333 0.15206 0.65433 0.0
H4597 H 0.57763 0.14195 0.63315 0.0
H4598 H 0.59538 0.20861 0.70114 0.0
H4599 H 0.64081 0.2184 0.7226 0.0
H4600 H 0.54395 0.15481 0.67087 0.0
H4601 H 0.56926 0.21212 0.62585 0.0
H4602 H 0.57297 0.18503 0.6105 0.0
H4603 H 0.59331 0.20671 0.64545 0.0
C4604 C 0.61712 0.16367 0.66523 0.0
C4605 C 0.63545 0.18639 0.68965 0.0
C4606 C 0.59132 0.15836 0.65291 0.0
C4607 C 0.584 0.17561 0.6652 0.0
C4608 C 0.60124 0.19584 0.69115 0.0
H4609 H 0.42267 0.10823 0.59415 0.0
H4610 H 0.45956 0.152 0.61347 0.0
C4611 C 0.62692 0.20108 0.70346 0.0
C4612 C 0.55824 0.17234 0.65083 0.0
H4613 H 0.5209 0.17374 0.59777 0.0
C4614 C 0.53877 0.15948 0.65529 0.0
C4615 C 0.55229 0.17963 0.63142 0.0
C4616 C 0.57334 0.19687 0.62843 0.0
C4617 C 0.51258 0.15053 0.63862 0.0
C4618 C 0.50582 0.15479 0.61687 0.0
C4619 C 0.5259 0.17023 0.61417 0.0
C4620 C 0.47888 0.13782 0.59408 0.0
C4621 C 0.4925 0.13393 0.64293 0.0
C4622 C 0.47517 0.11678 0.57283 0.0
C4623 C 0.45355 0.09204 0.56094 0.0
C4624 C 0.43607 0.08864 0.57057 0.0
C4625 C 0.43628 0.11059 0.58681 0.0
C4626 C 0.45744 0.13558 0.5979 0.0
H4627 H 0.50144 0.13105 0.65963 0.0
H4628 H 0.47919 0.11443 0.62507 0.0
H4629 H 0.48086 0.14317 0.64697 0.0
H4630 H 0.49109 0.11818 0.56887 0.0
H4631 H 0.45334 0.0752 0.54799 0.0
H4632 H 0.18918 0.35774 0.21393 0.0
H4633 H 0.19451 0.32212 0.19005 0.0
H4634 H 0.21803 0.31082 0.2568 0.0
H4635 H 0.2086 0.34371 0.27909 0.0
H4636 H 0.21731 0.29496 0.18443 0.0
H4637 H 0.14561 0.25036 0.21281 0.0
H4638 H 0.16018 0.28444 0.22221 0.0
H4639 H 0.17873 0.27271 0.23908 0.0
C4640 C 0.19581 0.34793 0.22369 0.0
C4641 C 0.19565 0.35133 0.247 0.0
C4642 C 0.19929 0.32773 0.21014 0.0
C4643 C 0.20445 0.31228 0.22088 0.0
C4644 C 0.21211 0.32125 0.24745 0.0
H4645 H 0.14661 0.16171 0.0857 0.0
H4646 H 0.17444 0.19393 0.13278 0.0
C4647 C 0.20708 0.34037 0.26035 0.0
C4648 C 0.19496 0.28447 0.20272 0.0
H4649 H 0.14535 0.22256 0.17742 0.0
C4650 C 0.20211 0.279 0.18331 0.0
C4651 C 0.17459 0.26361 0.20094 0.0
C4652 C 0.16413 0.26796 0.21969 0.0
C4653 C 0.18812 0.25391 0.16116 0.0
C4654 C 0.16734 0.23349 0.15913 0.0
C4655 C 0.16163 0.23831 0.17948 0.0
C4656 C 0.14803 0.20902 0.1339 0.0
C4657 C 0.19387 0.25008 0.13889 0.0
C4658 C 0.1231 0.20549 0.11982 0.0
C4659 C 0.10715 0.18697 0.09322 0.0
C4660 C 0.11596 0.17177 0.08066 0.0
C4661 C 0.13944 0.17311 0.09534 0.0
C4662 C 0.15542 0.19165 0.12202 0.0
H4663 H 0.20893 0.26868 0.14259 0.0
H4664 H 0.20105 0.23589 0.13604 0.0
H4665 H 0.17568 0.24192 0.12034 0.0
H4666 H 0.11707 0.21872 0.12874 0.0
H4667 H 0.08927 0.18641 0.08198 0.0
H4668 H 0.85628 0.89183 0.54652 0.0
H4669 H 0.90029 0.92584 0.56188 0.0
H4670 H 0.87003 0.93018 0.49137 0.0
H4671 H 0.82645 0.89453 0.47544 0.0
H4672 H 0.91055 0.92162 0.49861 0.0
H4673 H 0.93795 0.00361 0.59209 0.0
H4674 H 0.92933 0.97259 0.59081 0.0
H4675 H 0.9048 0.97642 0.56986 0.0
C4676 C 0.85934 0.89934 0.53384 0.0
C4677 C 0.83896 0.88813 0.50805 0.0
C4678 C 0.88435 0.91941 0.54306 0.0
C4679 C 0.88875 0.93014 0.52748 0.0
C4680 C 0.86739 0.92137 0.50325 0.0
H4681 H 0.99079 0.04767 0.52381 0.0
H4682 H 0.97165 0.02983 0.54617 0.0
C4683 C 0.84272 0.90056 0.49369 0.0
C4684 C 0.91569 0.94828 0.53459 0.0
H4685 H 0.97004 0.00897 0.57891 0.0
C4686 C 0.92338 0.94081 0.51602 0.0
C4687 C 0.93295 0.97291 0.55795 0.0
C4688 C 0.92583 0.98202 0.57878 0.0
C4689 C 0.94646 0.95793 0.51867 0.0
C4690 C 0.96382 0.98278 0.54186 0.0
C4691 C 0.957 0.9898 0.5614 0.0
C4692 C 0.98637 0.00275 0.54341 0.0
C4693 C 0.95064 0.94988 0.49542 0.0
C4694 C 0.00433 0.99642 0.53816 0.0
C4695 C 0.01421 0.0056 0.52401 0.0
C4696 C 0.00694 0.02192 0.51612 0.0
C4697 C 0.9954 0.03384 0.52816 0.0
C4698 C 0.9846 0.02384 0.54132 0.0
H4699 H 0.93297 0.93208 0.4775 0.0
H4700 H 0.95577 0.96595 0.4908 0.0
H4701 H 0.96687 0.94548 0.50007 0.0
H4702 H 0.00695 0.98099 0.54077 0.0
H4703 H 0.0238 0.99665 0.51584 0.0
H4704 H 0.37624 0.365 0.75527 0.0
H4705 H 0.36051 0.32779 0.7623 0.0
H4706 H 0.4009 0.2968 0.72872 0.0
H4707 H 0.41347 0.33156 0.71851 0.0
H4708 H 0.37249 0.26065 0.73449 0.0
H4709 H 0.42655 0.35343 0.82566 0.0
H4710 H 0.39506 0.3491 0.80646 0.0
H4711 H 0.41859 0.35219 0.79518 0.0
C4712 C 0.38043 0.34947 0.74793 0.0
C4713 C 0.39791 0.35245 0.7382 0.0
C4714 C 0.37158 0.32815 0.75214 0.0
C4715 C 0.38147 0.31066 0.74815 0.0
C4716 C 0.39388 0.3105 0.73315 0.0
H4717 H 0.43819 0.29562 0.88573 0.0
H4718 H 0.43928 0.30381 0.85042 0.0
C4719 C 0.40135 0.33082 0.72757 0.0
C4720 C 0.38588 0.29877 0.76547 0.0
H4721 H 0.41178 0.31641 0.8301 0.0
C4722 C 0.381 0.27277 0.75544 0.0
C4723 C 0.39878 0.31475 0.79295 0.0
C4724 C 0.41031 0.34401 0.80568 0.0
C4725 C 0.38722 0.26224 0.7721 0.0
C4726 C 0.39777 0.27777 0.79962 0.0
C4727 C 0.40325 0.3039 0.80928 0.0
C4728 C 0.40273 0.26804 0.81909 0.0
C4729 C 0.38314 0.23492 0.75983 0.0
C4730 C 0.38408 0.24371 0.81361 0.0
C4731 C 0.38512 0.23811 0.83386 0.0
C4732 C 0.4034 0.25731 0.86029 0.0
C4733 C 0.42384 0.28026 0.86561 0.0
C4734 C 0.42392 0.2852 0.84522 0.0
H4735 H 0.38596 0.23053 0.74253 0.0
H4736 H 0.39684 0.23219 0.77392 0.0
H4737 H 0.36264 0.22053 0.75276 0.0
H4738 H 0.36719 0.22991 0.79424 0.0
H4739 H 0.36962 0.21995 0.8291 0.0
H4740 H 0.80107 0.16388 0.00317 0.0
H4741 H 0.8053 0.12568 0.00081 0.0
H4742 H 0.80631 0.143 0.07392 0.0
H4743 H 0.80351 0.18177 0.07713 0.0
H4744 H 0.82763 0.10076 0.03262 0.0
H4745 H 0.73336 0.08924 0.02349 0.0
H4746 H 0.7346 0.08854 0.99534 0.0
H4747 H 0.75619 0.11839 0.0263 0.0
C4748 C 0.80364 0.16046 0.01953 0.0
C4749 C 0.79947 0.17453 0.03919 0.0
C4750 C 0.80574 0.13832 0.01793 0.0
C4751 C 0.80406 0.13043 0.03613 0.0
C4752 C 0.80659 0.14817 0.05905 0.0
H4753 H 0.74274 0.00147 0.05384 0.0
H4754 H 0.75009 0.03793 0.04596 0.0
C4755 C 0.80471 0.17036 0.06073 0.0
C4756 C 0.79251 0.10209 0.0282 0.0
H4757 H 0.73653 0.0512 0.01316 0.0
C4758 C 0.80751 0.08963 0.02776 0.0
C4759 C 0.76602 0.08715 0.02102 0.0
C4760 C 0.74687 0.09686 0.0167 0.0
C4761 C 0.79684 0.06299 0.02128 0.0
C4762 C 0.7711 0.04918 0.01687 0.0
C4763 C 0.75623 0.0616 0.01665 0.0
C4764 C 0.76022 0.02359 0.01614 0.0
C4765 C 0.81349 0.05029 0.02002 0.0
C4766 C 0.76018 0.00167 -0.00012 0.0
C4767 C 0.75602 0.98064 0.00463 0.0
C4768 C 0.75178 0.98143 0.0256 0.0
C4769 C 0.74591 0.00029 0.03753 0.0
C4770 C 0.75094 0.02168 0.0335 0.0
H4771 H 0.83408 0.06469 0.02735 0.0
H4772 H 0.81315 0.0397 0.03113 0.0
H4773 H 0.80549 0.03558 -0.00049 0.0
H4774 H 0.76544 0.00166 0.98507 0.0
H4775 H 0.76028 0.96605 0.99482 0.0
H4776 H 0.12465 0.66973 0.14461 0.0
H4777 H 0.16366 0.69942 0.14724 0.0
H4778 H 0.20022 0.6546 0.16292 0.0
H4779 H 0.16048 0.62355 0.15778 0.0
H4780 H 0.20435 0.72924 0.18874 0.0
H4781 H 0.23662 0.67774 0.12786 0.0
H4782 H 0.204 0.66196 0.12299 0.0
H4783 H 0.23097 0.66336 0.14731 0.0
C4784 C 0.14028 0.66525 0.14724 0.0
C4785 C 0.13894 0.64396 0.15105 0.0
C4786 C 0.16302 0.68259 0.14906 0.0
C4787 C 0.18548 0.67968 0.15544 0.0
C4788 C 0.18343 0.65741 0.15741 0.0
H4789 H 0.34802 0.79293 0.26024 0.0
H4790 H 0.30857 0.75209 0.22434 0.0
C4791 C 0.16047 0.63967 0.1548 0.0
C4792 C 0.21193 0.70224 0.1651 0.0
H4793 H 0.27145 0.71991 0.16718 0.0
C4794 C 0.2186 0.72708 0.18327 0.0
C4795 C 0.23121 0.69988 0.15867 0.0
C4796 C 0.2252 0.6743 0.13791 0.0
C4797 C 0.2434 0.74914 0.19551 0.0
C4798 C 0.26335 0.74713 0.19019 0.0
C4799 C 0.2567 0.72212 0.17165 0.0
C4800 C 0.29137 0.77015 0.2055 0.0
C4801 C 0.24763 0.77434 0.21443 0.0
C4802 C 0.29763 0.79363 0.20459 0.0
C4803 C 0.32124 0.81743 0.22496 0.0
C4804 C 0.3383 0.81834 0.24729 0.0
C4805 C 0.33471 0.79381 0.2447 0.0
C4806 C 0.31178 0.77005 0.22387 0.0
H4807 H 0.23079 0.77228 0.2177 0.0
H4808 H 0.26508 0.78289 0.23346 0.0
H4809 H 0.24989 0.78709 0.20585 0.0
H4810 H 0.28338 0.79396 0.18923 0.0
H4811 H 0.32406 0.83551 0.22499 0.0
H4812 H 0.78018 0.97836 0.81642 0.0
H4813 H 0.74011 0.97993 0.79627 0.0
H4814 H 0.72377 0.97441 0.85675 0.0
H4815 H 0.76334 0.97221 0.87661 0.0
H4816 H 0.689 0.93024 0.7892 0.0
H4817 H 0.70628 0.0316 0.834 0.0
H4818 H 0.72971 0.02373 0.82758 0.0
H4819 H 0.727 0.02506 0.85573 0.0
C4820 C 0.76849 0.97839 0.82589 0.0
C4821 C 0.77452 0.97491 0.84786 0.0
C4822 C 0.7457 0.97928 0.81434 0.0
C4823 C 0.72935 0.97737 0.82518 0.0
C4824 C 0.73654 0.97616 0.84839 0.0
H4825 H 0.6509 0.97399 0.8827 0.0
H4826 H 0.6707 0.96318 0.85621 0.0
C4827 C 0.75891 0.97471 0.85958 0.0
C4828 C 0.70247 0.97148 0.81053 0.0
H4829 H 0.66655 0.99719 0.82669 0.0
C4830 C 0.68344 0.9448 0.79605 0.0
C4831 C 0.69558 0.9906 0.81929 0.0
C4832 C 0.7157 0.01942 0.83487 0.0
C4833 C 0.65954 0.93671 0.79573 0.0
C4834 C 0.65411 0.95598 0.80804 0.0
C4835 C 0.6709 0.9825 0.81723 0.0
C4836 C 0.63764 0.95122 0.8199 0.0
C4837 C 0.64275 0.9081 0.78604 0.0
C4838 C 0.6118 0.94606 0.80767 0.0
C4839 C 0.60004 0.95127 0.82279 0.0
C4840 C 0.61436 0.96215 0.85007 0.0
C4841 C 0.63915 0.96468 0.8616 0.0
C4842 C 0.65053 0.95874 0.84649 0.0
H4843 H 0.63831 0.89615 0.76579 0.0
H4844 H 0.65381 0.90203 0.79841 0.0
H4845 H 0.62421 0.90369 0.78636 0.0
H4846 H 0.60181 0.94055 0.78721 0.0
H4847 H 0.58122 0.94996 0.81374 0.0
H4848 H 0.77137 0.50742 0.78311 0.0
H4849 H 0.78453 0.48527 0.81756 0.0
H4850 H 0.83931 0.51018 0.86222 0.0
H4851 H 0.85317 0.54543 0.84742 0.0
H4852 H 0.75109 0.44057 0.80051 0.0
H4853 H 0.81417 0.50081 0.90834 0.0
H4854 H 0.81469 0.51477 0.88739 0.0
H4855 H 0.83114 0.49624 0.89042 0.0
C4856 C 0.78569 0.50548 0.79609 0.0
C4857 C 0.81445 0.52683 0.81091 0.0
C4858 C 0.77509 0.48568 0.80391 0.0
C4859 C 0.7944 0.48648 0.82967 0.0
C4860 C 0.82558 0.5079 0.84447 0.0
H4861 H 0.7219 0.39153 0.89408 0.0
H4862 H 0.75568 0.41466 0.88626 0.0
C4863 C 0.83436 0.52775 0.83468 0.0
C4864 C 0.78153 0.46775 0.84043 0.0
H4865 H 0.77731 0.45975 0.89086 0.0
C4866 C 0.75797 0.44459 0.82031 0.0
C4867 C 0.78938 0.47289 0.86651 0.0
C4868 C 0.81362 0.4976 0.88952 0.0
C4869 C 0.74424 0.42516 0.82421 0.0
C4870 C 0.74959 0.43131 0.84979 0.0
C4871 C 0.77271 0.45493 0.87094 0.0
C4872 C 0.72915 0.41503 0.85373 0.0
C4873 C 0.72429 0.39818 0.80049 0.0
C4874 C 0.70248 0.40621 0.83746 0.0
C4875 C 0.68296 0.39217 0.8413 0.0
C4876 C 0.68973 0.38835 0.86284 0.0
C4877 C 0.71596 0.39466 0.87751 0.0
C4878 C 0.73555 0.40837 0.87336 0.0
H4879 H 0.73248 0.39267 0.78758 0.0
H4880 H 0.7181 0.38274 0.80568 0.0
H4881 H 0.70665 0.39837 0.78889 0.0
H4882 H 0.69657 0.41109 0.82227 0.0
H4883 H 0.66302 0.38679 0.82899 0.0
H4884 H 0.87963 0.53837 0.87255 0.0
H4885 H 0.91515 0.54281 0.90793 0.0
H4886 H 0.95369 0.53443 0.86242 0.0
H4887 H 0.9179 0.53055 0.82662 0.0
H4888 H 0.94584 0.49956 0.88749 0.0
H4889 H 0.9948 0.60643 0.9541 0.0
H4890 H 0.9594 0.58964 0.93889 0.0
H4891 H 0.97445 0.59065 0.91908 0.0
C4892 C 0.89491 0.53669 0.86927 0.0
C4893 C 0.89421 0.53129 0.84516 0.0
C4894 C 0.91566 0.53966 0.88999 0.0
C4895 C 0.93676 0.53837 0.88758 0.0
C4896 C 0.93718 0.53475 0.86438 0.0
H4897 H 0.05365 0.52365 0.9954 0.0
H4898 H 0.03952 0.54397 0.97058 0.0
C4899 C 0.91638 0.53191 0.84366 0.0
C4900 C 0.95788 0.54028 0.90934 0.0
H4901 H 0.0042 0.58121 0.9743 0.0
C4902 C 0.95891 0.51746 0.90635 0.0
C4903 C 0.9752 0.56381 0.93369 0.0
C4904 C 0.97621 0.58916 0.93676 0.0
C4905 C 0.97561 0.51714 0.9277 0.0
C4906 C 0.99144 0.54019 0.95267 0.0
C4907 C 0.99159 0.56346 0.95531 0.0
C4908 C 0.00617 0.53914 0.97606 0.0
C4909 C 0.9756 0.49189 0.92369 0.0
C4910 C 0.99357 0.53208 0.98948 0.0
C4911 C 0.0015 0.52023 0.00361 0.0
C4912 C 0.02178 0.51489 0.00399 0.0
C4913 C 0.03734 0.5266 0.99475 0.0
C4914 C 0.02936 0.53834 0.98055 0.0
H4915 H 0.96134 0.47547 0.90326 0.0
H4916 H 0.99547 0.49478 0.92824 0.0
H4917 H 0.97075 0.48618 0.93723 0.0
H4918 H 0.97578 0.53286 0.98649 0.0
H4919 H 0.98953 0.51226 0.01113 0.0
H4920 H 0.5097 0.43796 0.02815 0.0
H4921 H 0.50272 0.4732 0.05057 0.0
H4922 H 0.5656 0.52819 0.04941 0.0
H4923 H 0.57312 0.49384 0.02803 0.0
H4924 H 0.54104 0.51398 0.09976 0.0
H4925 H 0.51617 0.55633 0.03777 0.0
H4926 H 0.51073 0.52325 0.02421 0.0
H4927 H 0.54209 0.55072 0.0363 0.0
C4928 C 0.52174 0.45733 0.03216 0.0
C4929 C 0.54267 0.46287 0.02696 0.0
C4930 C 0.51756 0.47756 0.04489 0.0
C4931 C 0.53361 0.50351 0.05179 0.0
C4932 C 0.55256 0.5084 0.04403 0.0
H4933 H 0.63998 0.64438 0.14754 0.0
H4934 H 0.60248 0.60208 0.11527 0.0
C4935 C 0.55699 0.48849 0.03185 0.0
C4936 C 0.53469 0.52639 0.07108 0.0
H4937 H 0.54943 0.58889 0.08517 0.0
C4938 C 0.54211 0.5302 0.09651 0.0
C4939 C 0.53511 0.54733 0.06676 0.0
C4940 C 0.52528 0.54402 0.03965 0.0
C4941 C 0.55437 0.55541 0.11827 0.0
C4942 C 0.5583 0.57711 0.11431 0.0
C4943 C 0.54682 0.5724 0.08841 0.0
C4944 C 0.58031 0.60411 0.13532 0.0
C4945 C 0.56602 0.55915 0.14549 0.0
C4946 C 0.58094 0.61977 0.15817 0.0
C4947 C 0.60319 0.6449 0.17746 0.0
C4948 C 0.62489 0.65454 0.17395 0.0
C4949 C 0.62366 0.63838 0.15098 0.0
C4950 C 0.60204 0.6138 0.13225 0.0
H4951 H 0.56031 0.54018 0.14526 0.0
H4952 H 0.58776 0.57069 0.15551 0.0
H4953 H 0.55948 0.57032 0.15714 0.0
H4954 H 0.56433 0.61268 0.16102 0.0
H4955 H 0.60335 0.65673 0.19479 0.0
H4956 H 0.90022 0.71905 0.44673 0.0
H4957 H 0.88976 0.73594 0.48073 0.0
H4958 H 0.88976 0.67475 0.49827 0.0
H4959 H 0.89934 0.65716 0.46324 0.0
H4960 H 0.84398 0.67385 0.48703 0.0
H4961 H 0.92268 0.77599 0.55831 0.0
H4962 H 0.91062 0.77101 0.52593 0.0
H4963 H 0.92663 0.75365 0.5345 0.0
C4964 C 0.89932 0.70998 0.4587 0.0
C4965 C 0.90109 0.68709 0.45268 0.0
C4966 C 0.89316 0.71958 0.47813 0.0
C4967 C 0.88882 0.70663 0.49213 0.0
C4968 C 0.89297 0.68512 0.48776 0.0
H4969 H 0.84841 0.77093 0.60729 0.0
H4970 H 0.8601 0.74183 0.58299 0.0
C4971 C 0.8987 0.6752 0.46793 0.0
C4972 C 0.87637 0.71328 0.50819 0.0
H4973 H 0.88147 0.76405 0.55663 0.0
C4974 C 0.85191 0.69376 0.50151 0.0
C4975 C 0.88712 0.73905 0.52844 0.0
C4976 C 0.91338 0.76103 0.53742 0.0
C4977 C 0.83702 0.6997 0.5127 0.0
C4978 C 0.84769 0.72554 0.53246 0.0
C4979 C 0.87295 0.74455 0.5407 0.0
C4980 C 0.83344 0.734 0.54509 0.0
C4981 C 0.81001 0.67849 0.50326 0.0
C4982 C 0.81276 0.73726 0.53163 0.0
C4983 C 0.80583 0.75379 0.54574 0.0
C4984 C 0.8203 0.76791 0.57317 0.0
C4985 C 0.83767 0.76102 0.5861 0.0
C4986 C 0.84439 0.74438 0.57223 0.0
H4987 H 0.80663 0.6586 0.49171 0.0
H4988 H 0.80696 0.67969 0.52006 0.0
H4989 H 0.79514 0.68131 0.49057 0.0
H4990 H 0.80374 0.7291 0.51058 0.0
H4991 H 0.79096 0.75735 0.53535 0.0
H4992 H 0.89557 0.67789 0.04895 0.0
H4993 H 0.90545 0.71474 0.04107 0.0
H4994 H 0.9699 0.70971 0.0339 0.0
H4995 H 0.95954 0.67208 0.04048 0.0
H4996 H 0.93386 0.75848 0.05257 0.0
H4997 H 0.93583 0.70047 0.96523 0.0
H4998 H 0.91872 0.68688 0.98014 0.0
H4999 H 0.95271 0.69856 0.99314 0.0
C5000 C 0.91219 0.6848 0.04609 0.0
C5001 C 0.92632 0.67135 0.04476 0.0
C5002 C 0.91766 0.70587 0.0412 0.0
C5003 C 0.93732 0.71429 0.03483 0.0
C5004 C 0.9535 0.70293 0.03688 0.0
H5005 H 0.91553 0.77704 0.92719 0.0
H5006 H 0.92485 0.75334 0.9499 0.0
C5007 C 0.94782 0.68149 0.0412 0.0
C5008 C 0.93945 0.73332 0.02443 0.0
H5009 H 0.94672 0.74317 0.97605 0.0
C5010 C 0.93636 0.75493 0.03561 0.0
C5011 C 0.94149 0.7286 0.00157 0.0
C5012 C 0.93709 0.70238 0.98399 0.0
C5013 C 0.93441 0.77099 0.0243 0.0
C5014 C 0.93893 0.76771 0.00263 0.0
C5015 C 0.94329 0.74669 0.99243 0.0
C5016 C 0.93645 0.78351 0.98852 0.0
C5017 C 0.92538 0.78964 0.03492 0.0
C5018 C 0.94204 0.80965 0.0015 0.0
C5019 C 0.9327 0.821 0.98727 0.0
C5020 C 0.91923 0.8074 0.95951 0.0
C5021 C 0.92091 0.78521 0.9475 0.0
C5022 C 0.92775 0.77244 0.96126 0.0
H5023 H 0.91472 0.78333 0.04477 0.0
H5024 H 0.9427 0.80934 0.04996 0.0
H5025 H 0.91192 0.79091 0.01912 0.0
H5026 H 0.95225 0.82101 0.02262 0.0
H5027 H 0.93438 0.83967 0.99811 0.0
H5028 H 0.77258 0.30664 0.31882 0.0
H5029 H 0.74314 0.30175 0.27829 0.0
H5030 H 0.72775 0.22335 0.2358 0.0
H5031 H 0.76008 0.22951 0.27568 0.0
H5032 H 0.76746 0.25996 0.23597 0.0
H5033 H 0.68129 0.27363 0.20814 0.0
H5034 H 0.7073 0.29848 0.24089 0.0
H5035 H 0.69123 0.26493 0.23314 0.0
C5036 C 0.76212 0.28786 0.30102 0.0
C5037 C 0.76988 0.26894 0.29968 0.0
C5038 C 0.74498 0.28503 0.27785 0.0
C5039 C 0.73512 0.26294 0.25392 0.0
C5040 C 0.73655 0.24108 0.25408 0.0
H5041 H 0.70188 0.19854 0.11971 0.0
H5042 H 0.74086 0.2324 0.15916 0.0
C5043 C 0.75491 0.24447 0.27685 0.0
C5044 C 0.73521 0.26705 0.23204 0.0
H5045 H 0.7058 0.28119 0.18688 0.0
C5046 C 0.75481 0.26586 0.22615 0.0
C5047 C 0.71869 0.27463 0.219 0.0
C5048 C 0.69836 0.27784 0.22553 0.0
C5049 C 0.75779 0.27107 0.20701 0.0
C5050 C 0.73841 0.27401 0.1908 0.0
C5051 C 0.72041 0.27797 0.19843 0.0
C5052 C 0.73039 0.26324 0.16258 0.0
C5053 C 0.78001 0.27062 0.20249 0.0
C5054 C 0.71357 0.26945 0.14776 0.0
C5055 C 0.68954 0.24889 0.1261 0.0
C5056 C 0.68478 0.22316 0.11765 0.0
C5057 C 0.70517 0.21839 0.12704 0.0
C5058 C 0.72816 0.2385 0.1497 0.0
H5059 H 0.79908 0.28629 0.21974 0.0
H5060 H 0.77957 0.25181 0.1991 0.0
H5061 H 0.77963 0.2739 0.18606 0.0
H5062 H 0.71593 0.28888 0.15616 0.0
H5063 H 0.67401 0.25276 0.11776 0.0
H5064 H 0.80257 0.39948 0.38939 0.0
H5065 H 0.79338 0.37868 0.34461 0.0
H5066 H 0.72895 0.39279 0.31928 0.0
H5067 H 0.7375 0.41278 0.3643 0.0
H5068 H 0.76616 0.34699 0.29831 0.0
H5069 H 0.76068 0.42883 0.31953 0.0
H5070 H 0.73222 0.40477 0.288 0.0
H5071 H 0.75881 0.43086 0.291 0.0
C5072 C 0.78581 0.39736 0.37432 0.0
C5073 C 0.77152 0.40892 0.38097 0.0
C5074 C 0.78077 0.38576 0.34839 0.0
C5075 C 0.762 0.38616 0.32838 0.0
C5076 C 0.74507 0.39404 0.33429 0.0
H5077 H 0.83186 0.37058 0.2254 0.0
H5078 H 0.79238 0.36479 0.2288 0.0
C5079 C 0.74987 0.40536 0.36025 0.0
C5080 C 0.76336 0.38148 0.30346 0.0
H5081 H 0.78589 0.41873 0.2777 0.0
C5082 C 0.76944 0.36219 0.29306 0.0
C5083 C 0.76564 0.3996 0.29403 0.0
C5084 C 0.7539 0.41712 0.29846 0.0
C5085 C 0.78191 0.36334 0.27806 0.0
C5086 C 0.79086 0.38567 0.27507 0.0
C5087 C 0.78086 0.40253 0.28149 0.0
C5088 C 0.81358 0.3939 0.26999 0.0
C5089 C 0.78672 0.34117 0.26765 0.0
C5090 C 0.83879 0.41409 0.29107 0.0
C5091 C 0.86143 0.41755 0.28909 0.0
C5092 C 0.85951 0.40122 0.26582 0.0
C5093 C 0.83417 0.38363 0.24361 0.0
C5094 C 0.81146 0.38004 0.24565 0.0
H5095 H 0.80157 0.34244 0.28452 0.0
H5096 H 0.76859 0.32229 0.25843 0.0
H5097 H 0.79274 0.34074 0.25285 0.0
H5098 H 0.84118 0.42585 0.30984 0.0
H5099 H 0.88047 0.4311 0.30663 0.0
H5100 H 0.95725 0.81712 0.78519 0.0
H5101 H 0.95162 0.79072 0.74298 0.0
H5102 H 0.97792 0.85934 0.73486 0.0
H5103 H 0.98268 0.88587 0.77687 0.0
H5104 H 0.91385 0.79886 0.70363 0.0
H5105 H 0.00815 0.83568 0.7235 0.0
H5106 H 0.00161 0.80871 0.69498 0.0
H5107 H 0.9964 0.80363 0.72023 0.0
C5108 C 0.96312 0.82692 0.77508 0.0
C5109 C 0.97017 0.85347 0.784 0.0
C5110 C 0.95999 0.81172 0.75103 0.0
C5111 C 0.9647 0.82319 0.73622 0.0
C5112 C 0.97475 0.85038 0.74653 0.0
H5113 H 0.96998 0.89397 0.67684 0.0
H5114 H 0.94776 0.86244 0.68785 0.0
C5115 C 0.97715 0.86546 0.77024 0.0
C5116 C 0.95183 0.80703 0.70784 0.0
H5117 H 0.97135 0.81607 0.66573 0.0
C5118 C 0.92576 0.80109 0.69441 0.0
C5119 C 0.96717 0.80905 0.69574 0.0
C5120 C 0.99487 0.81437 0.70925 0.0
C5121 C 0.91751 0.80501 0.67307 0.0
C5122 C 0.9349 0.81199 0.66384 0.0
C5123 C 0.95817 0.81098 0.67322 0.0
C5124 C 0.93447 0.82822 0.65171 0.0
C5125 C 0.89235 0.80569 0.66354 0.0
C5126 C 0.93291 0.81917 0.62736 0.0
C5127 C 0.94595 0.83708 0.62151 0.0
C5128 C 0.95906 0.8642 0.639 0.0
C5129 C 0.95842 0.87326 0.66232 0.0
C5130 C 0.9457 0.85525 0.66849 0.0
H5131 H 0.87635 0.78793 0.66011 0.0
H5132 H 0.89463 0.82307 0.67897 0.0
H5133 H 0.88673 0.80681 0.64529 0.0
H5134 H 0.92498 0.79845 0.61464 0.0
H5135 H 0.94743 0.82972 0.60399 0.0
H5136 H 0.83113 0.83705 0.52402 0.0
H5137 H 0.83913 0.83363 0.47019 0.0
H5138 H 0.81881 0.78624 0.5023 0.0
H5139 H 0.812 0.78509 0.52738 0.0
H5140 H 0.8279 0.74723 0.46067 0.0
H5141 H 0.78777 0.77705 0.39171 0.0
H5142 H 0.80124 0.80056 0.42603 0.0
H5143 H 0.77567 0.76683 0.41033 0.0
C5144 C 0.83813 0.84215 0.51284 0.0
C5145 C 0.8246 0.82521 0.52762 0.0
C5146 C 0.83415 0.8241 0.48087 0.0
C5147 C 0.82387 0.79146 0.46868 0.0
C5148 C 0.82124 0.77995 0.48832 0.0
H5149 H 0.81514 0.66496 0.34461 0.0
H5150 H 0.79731 0.69247 0.35976 0.0
C5151 C 0.81726 0.79392 0.51441 0.0
C5152 C 0.82144 0.77202 0.44436 0.0
H5153 H 0.81082 0.75599 0.38267 0.0
C5154 C 0.82654 0.75169 0.44521 0.0
C5155 C 0.81285 0.77123 0.42008 0.0
C5156 C 0.79372 0.77997 0.41169 0.0
C5157 C 0.8305 0.73662 0.42639 0.0
C5158 C 0.82705 0.7401 0.40467 0.0
C5159 C 0.81666 0.756 0.40086 0.0
C5160 C 0.83519 0.72759 0.38689 0.0
C5161 C 0.83923 0.7177 0.43034 0.0
C5162 C 0.86211 0.73875 0.39577 0.0
C5163 C 0.87242 0.72328 0.38722 0.0
C5164 C 0.85586 0.69612 0.37017 0.0
C5165 C 0.82848 0.68575 0.35823 0.0
C5166 C 0.81817 0.70148 0.36664 0.0
H5167 H 0.83954 0.71628 0.4477 0.0
H5168 H 0.82607 0.69786 0.41271 0.0
H5169 H 0.85929 0.72428 0.43316 0.0
H5170 H 0.87549 0.75837 0.41216 0.0
H5171 H 0.89357 0.73206 0.39666 0.0
H5172 H 0.04189 0.52016 0.44781 0.0
H5173 H 0.06983 0.5266 0.48988 0.0
H5174 H 0.02724 0.55541 0.52196 0.0
H5175 H -0.00048 0.54906 0.4799 0.0
H5176 H 0.07021 0.58771 0.55248 0.0
H5177 H 0.07978 0.50048 0.53735 0.0
H5178 H 0.08739 0.51036 0.51583 0.0
H5179 H 0.05484 0.49987 0.51174 0.0
C5180 C 0.0377 0.52675 0.46345 0.0
C5181 C 0.01881 0.5347 0.46046 0.0
C5182 C 0.05383 0.53045 0.48786 0.0
C5183 C 0.05136 0.54201 0.50991 0.0
C5184 C 0.03051 0.54723 0.5059 0.0
H5185 H 0.15631 0.61869 0.68051 0.0
H5186 H 0.11766 0.58705 0.63721 0.0
C5187 C 0.01428 0.54326 0.48155 0.0
C5188 C 0.07223 0.55227 0.53749 0.0
H5189 H 0.11768 0.54195 0.57522 0.0
C5190 C 0.0798 0.57699 0.55724 0.0
C5191 C 0.0853 0.53891 0.54469 0.0
C5192 C 0.07611 0.51081 0.5263 0.0
C5193 C 0.09976 0.58872 0.58321 0.0
C5194 C 0.11472 0.57669 0.58969 0.0
C5195 C 0.10702 0.55176 0.57024 0.0
C5196 C 0.13872 0.5901 0.61607 0.0
C5197 C 0.1039 0.61396 0.60279 0.0
C5198 C 0.16398 0.60008 0.61899 0.0
C5199 C 0.18648 0.61782 0.64405 0.0
C5200 C 0.18404 0.62658 0.66655 0.0
C5201 C 0.1591 0.61313 0.66368 0.0
C5202 C 0.13676 0.59514 0.63878 0.0
H5203 H 0.08531 0.61039 0.60296 0.0
H5204 H 0.11936 0.62234 0.62303 0.0
H5205 H 0.10834 0.62868 0.59637 0.0
H5206 H 0.16621 0.59574 0.60182 0.0
H5207 H 0.20535 0.62643 0.64543 0.0
H5208 H 0.59419 0.89377 0.91397 0.0
H5209 H 0.59783 0.92713 0.95237 0.0
H5210 H 0.51796 0.87617 0.92836 0.0
H5211 H 0.51447 0.84406 0.8914 0.0
H5212 H 0.56855 0.95117 0.95 0.0
H5213 H 0.54878 0.90159 0.00458 0.0
H5214 H 0.5569 0.88898 0.97973 0.0
H5215 H 0.52367 0.88189 0.97076 0.0
C5216 C 0.57783 0.88944 0.91753 0.0
C5217 C 0.55455 0.86507 0.90032 0.0
C5218 C 0.57975 0.90868 0.93928 0.0
C5219 C 0.55832 0.90419 0.94383 0.0
C5220 C 0.53526 0.88004 0.92641 0.0
H5221 H 0.50631 0.00974 0.98936 0.0
H5222 H 0.52559 0.98531 0.9737 0.0
C5223 C 0.53345 0.86111 0.90519 0.0
C5224 C 0.55827 0.92526 0.96442 0.0
H5225 H 0.53572 0.9352 0.00778 0.0
C5226 C 0.56408 0.94897 0.96453 0.0
C5227 C 0.54966 0.9212 0.98181 0.0
C5228 C 0.54466 0.89709 0.98439 0.0
C5229 C 0.56259 0.96896 0.98185 0.0
C5230 C 0.55021 0.96327 0.99606 0.0
C5231 C 0.54471 0.9397 0.99655 0.0
C5232 C 0.5398 0.97982 0.00722 0.0
C5233 C 0.57453 0.99605 0.98502 0.0
C5234 C 0.54039 0.98475 0.03116 0.0
C5235 C 0.52708 0.99705 0.03913 0.0
C5236 C 0.51338 0.00509 0.02353 0.0
C5237 C 0.51573 0.00305 0.00145 0.0
C5238 C 0.52735 0.98932 0.99264 0.0
H5239 H 0.59518 0.00311 0.9898 0.0
H5240 H 0.56355 0.99539 0.96647 0.0
H5241 H 0.5753 0.01112 0.0014 0.0
H5242 H 0.55 0.97798 0.04306 0.0
H5243 H 0.52598 0.99852 0.05646 0.0
H5244 H 0.35789 0.19841 0.16499 0.0
H5245 H 0.31423 0.17047 0.15608 0.0
H5246 H 0.31096 0.23885 0.19762 0.0
H5247 H 0.35489 0.267 0.20724 0.0
H5248 H 0.28435 0.15327 0.17644 0.0
H5249 H 0.24906 0.22037 0.13584 0.0
H5250 H 0.28311 0.22757 0.1495 0.0
H5251 H 0.26978 0.2354 0.17047 0.0
C5252 C 0.34857 0.20759 0.17348 0.0
C5253 C 0.35957 0.23502 0.18609 0.0
C5254 C 0.32324 0.19155 0.16778 0.0
C5255 C 0.30862 0.20273 0.17431 0.0
C5256 C 0.32123 0.22988 0.19075 0.0
H5257 H 0.16219 0.08205 0.14554 0.0
H5258 H 0.18331 0.12913 0.16219 0.0
C5259 C 0.34671 0.24593 0.19694 0.0
C5260 C 0.28025 0.18603 0.16336 0.0
H5261 H 0.20813 0.17893 0.12833 0.0
C5262 C 0.26999 0.15794 0.16707 0.0
C5263 C 0.25671 0.19479 0.14922 0.0
C5264 C 0.26519 0.22099 0.15106 0.0
C5265 C 0.2362 0.13803 0.15643 0.0
C5266 C 0.21231 0.14576 0.14078 0.0
C5267 C 0.22248 0.1741 0.13741 0.0
C5268 C 0.18463 0.12594 0.12723 0.0
C5269 C 0.22897 0.11563 0.16134 0.0
C5270 C 0.17374 0.10889 0.10046 0.0
C5271 C 0.16237 0.08191 0.09098 0.0
C5272 C 0.16101 0.07252 0.10826 0.0
C5273 C 0.16476 0.0892 0.13246 0.0
C5274 C 0.17619 0.1161 0.14178 0.0
H5275 H 0.21977 0.11796 0.17374 0.0
H5276 H 0.21493 0.09724 0.14236 0.0
H5277 H 0.24681 0.11503 0.17165 0.0
H5278 H 0.17835 0.11631 0.08829 0.0
H5279 H 0.1577 0.06908 0.07146 0.0
H5280 H 0.87483 0.75958 0.95437 0.0
H5281 H 0.85947 0.71998 0.95735 0.0
H5282 H 0.79313 0.72636 0.95886 0.0
H5283 H 0.80849 0.76624 0.95537 0.0
H5284 H 0.84129 0.71187 0.99648 0.0
H5285 H 0.76475 0.65017 0.89251 0.0
H5286 H 0.79318 0.67456 0.89641 0.0
H5287 H 0.77541 0.68457 0.91127 0.0
C5288 C 0.85707 0.75258 0.95544 0.0
C5289 C 0.84186 0.76464 0.95298 0.0
C5290 C 0.84834 0.73011 0.95719 0.0
C5291 C 0.82457 0.71984 0.95706 0.0
C5292 C 0.81106 0.73375 0.95811 0.0
H5293 H 0.80967 0.574 0.94691 0.0
H5294 H 0.79286 0.60214 0.93825 0.0
C5295 C 0.82 0.75654 0.95647 0.0
C5296 C 0.81479 0.69426 0.95543 0.0
H5297 H 0.79311 0.6324 0.90867 0.0
C5298 C 0.82962 0.69397 0.97755 0.0
C5299 C 0.79959 0.67115 0.93062 0.0
C5300 C 0.78212 0.67015 0.90645 0.0
C5301 C 0.83374 0.67288 0.97483 0.0
C5302 C 0.8215 0.65109 0.94956 0.0
C5303 C 0.8031 0.64954 0.92792 0.0
C5304 C 0.82905 0.63079 0.94575 0.0
C5305 C 0.85454 0.67618 0.99845 0.0
C5306 C 0.85504 0.6377 0.95223 0.0
C5307 C 0.86507 0.62213 0.95776 0.0
C5308 C 0.8491 0.59973 0.95712 0.0
C5309 C 0.82214 0.59089 0.94686 0.0
C5310 C 0.81238 0.6068 0.94188 0.0
H5311 H 0.85659 0.68955 0.01696 0.0
H5312 H 0.851 0.65725 0.9975 0.0
H5313 H 0.87316 0.68494 0.99851 0.0
H5314 H 0.86841 0.65692 0.95677 0.0
H5315 H 0.88607 0.62991 0.96666 0.0
H5316 H 0.92316 0.40578 0.92146 0.0
H5317 H 0.89143 0.39292 0.87762 0.0
H5318 H 0.95394 0.42057 0.86135 0.0
H5319 H 0.98601 0.43285 0.90512 0.0
H5320 H 0.92374 0.44293 0.85436 0.0
H5321 H 0.85807 0.3354 0.80329 0.0
H5322 H 0.8643 0.35239 0.8361 0.0
H5323 H 0.89087 0.35224 0.83087 0.0
C5324 C 0.93022 0.40873 0.90849 0.0
C5325 C 0.95718 0.42037 0.91687 0.0
C5326 C 0.91196 0.40116 0.8833 0.0
C5327 C 0.92021 0.40548 0.86611 0.0
C5328 C 0.94708 0.41668 0.87419 0.0
H5329 H 0.84435 0.43187 0.7443 0.0
H5330 H 0.86657 0.41059 0.76023 0.0
C5331 C 0.96539 0.42381 0.89925 0.0
C5332 C 0.90131 0.40207 0.84155 0.0
H5333 H 0.84129 0.35899 0.78602 0.0
C5334 C 0.906 0.42445 0.83913 0.0
C5335 C 0.87798 0.37799 0.82192 0.0
C5336 C 0.87254 0.35306 0.82297 0.0
C5337 C 0.88769 0.42381 0.8182 0.0
C5338 C 0.86406 0.3998 0.79866 0.0
C5339 C 0.85947 0.37722 0.80081 0.0
C5340 C 0.84329 0.39901 0.77754 0.0
C5341 C 0.89368 0.44928 0.81797 0.0
C5342 C 0.81979 0.39498 0.77753 0.0
C5343 C 0.80612 0.40615 0.76717 0.0
C5344 C 0.81731 0.42307 0.75906 0.0
C5345 C 0.83648 0.42091 0.75271 0.0
C5346 C 0.84937 0.40872 0.76186 0.0
H5347 H 0.90872 0.46667 0.83767 0.0
H5348 H 0.90142 0.44989 0.80444 0.0
H5349 H 0.87589 0.4511 0.81115 0.0
H5350 H 0.81388 0.38612 0.78823 0.0
H5351 H 0.78858 0.4038 0.76804 0.0
H5352 H 0.33657 0.33692 0.7925 0.0
H5353 H 0.32974 0.29382 0.77096 0.0
H5354 H 0.24577 0.2635 0.73211 0.0
H5355 H 0.25422 0.30561 0.7633 0.0
H5356 H 0.24776 0.24294 0.75501 0.0
H5357 H 0.32331 0.23147 0.73401 0.0
H5358 H 0.33893 0.26137 0.76404 0.0
H5359 H 0.31725 0.25744 0.73324 0.0
C5360 C 0.31659 0.32079 0.77943 0.0
C5361 C 0.29602 0.3231 0.78219 0.0
C5362 C 0.31243 0.29558 0.76605 0.0
C5363 C 0.28673 0.27374 0.75144 0.0
C5364 C 0.26591 0.27918 0.74559 0.0
H5365 H 0.25382 0.12888 0.68143 0.0
H5366 H 0.28516 0.17023 0.72019 0.0
C5367 C 0.27045 0.30355 0.76242 0.0
C5368 C 0.28145 0.24774 0.75001 0.0
H5369 H 0.30799 0.20873 0.75461 0.0
C5370 C 0.2598 0.23442 0.75224 0.0
C5371 C 0.29845 0.23734 0.74994 0.0
C5372 C 0.3206 0.24759 0.74487 0.0
C5373 C 0.2526 0.20991 0.75058 0.0
C5374 C 0.26938 0.19912 0.74956 0.0
C5375 C 0.29369 0.21517 0.75289 0.0
C5376 C 0.25966 0.17006 0.73741 0.0
C5377 C 0.22673 0.1965 0.74941 0.0
C5378 C 0.23738 0.15249 0.73606 0.0
C5379 C 0.21841 0.12909 0.71249 0.0
C5380 C 0.22344 0.12243 0.69174 0.0
C5381 C 0.24911 0.13509 0.69679 0.0
C5382 C 0.26727 0.15906 0.71953 0.0
H5383 H 0.2301 0.19356 0.76655 0.0
H5384 H 0.2166 0.2081 0.74991 0.0
H5385 H 0.2128 0.17761 0.73078 0.0
H5386 H 0.23253 0.15814 0.75124 0.0
H5387 H 0.19898 0.11843 0.70946 0.0
H5388 H 0.07554 0.80587 0.17959 0.0
H5389 H 0.06865 0.80407 0.13825 0.0
H5390 H 0.99704 0.8059 0.12493 0.0
H5391 H 0.00425 0.80834 0.16641 0.0
H5392 H 0.02917 0.75767 0.10213 0.0
H5393 H 0.00621 0.82666 0.07534 0.0
H5394 H 0.02271 0.83471 0.10906 0.0
H5395 H 0.98767 0.81332 0.08879 0.0
C5396 C 0.05906 0.80736 0.16861 0.0
C5397 C 0.03897 0.80444 0.17476 0.0
C5398 C 0.05499 0.80612 0.14472 0.0
C5399 C 0.03111 0.80249 0.12734 0.0
C5400 C 0.01498 0.80727 0.13716 0.0
H5401 H 0.00307 0.72754 0.96318 0.0
H5402 H 0.98681 0.72212 0.99313 0.0
C5403 C 0.01927 0.80884 0.16123 0.0
C5404 C 0.02068 0.78744 0.09854 0.0
H5405 H 0.99722 0.78811 0.04122 0.0
C5406 C 0.02237 0.76456 0.08899 0.0
C5407 C 0.0097 0.79497 0.0806 0.0
C5408 C 0.0066 0.81885 0.08898 0.0
C5409 C 0.01756 0.75163 0.0634 0.0
C5410 C 0.0092 0.76074 0.04622 0.0
C5411 C 0.00335 0.78093 0.05442 0.0
C5412 C 0.01846 0.75945 0.02725 0.0
C5413 C 0.02445 0.73034 0.05599 0.0
C5414 C 0.04238 0.78089 0.03683 0.0
C5415 C 0.05132 0.78382 0.02019 0.0
C5416 C 0.03736 0.76536 0.99338 0.0
C5417 C 0.0142 0.74241 0.98373 0.0
C5418 C 0.00471 0.73948 0.00077 0.0
H5419 H 0.02059 0.71886 0.0659 0.0
H5420 H 0.01327 0.71675 0.03448 0.0
H5421 H 0.04571 0.73962 0.06254 0.0
H5422 H 0.05372 0.79632 0.05724 0.0
H5423 H 0.06885 0.80159 0.0288 0.0
H5424 H 0.12304 0.53441 0.14941 0.0
H5425 H 0.12768 0.50541 0.16656 0.0
H5426 H 0.05705 0.49147 0.17074 0.0
H5427 H 0.05211 0.52014 0.15292 0.0
H5428 H 0.10584 0.51923 0.2203 0.0
H5429 H 0.09292 0.42775 0.1489 0.0
H5430 H 0.11028 0.45611 0.14732 0.0
H5431 H 0.07658 0.44472 0.13913 0.0
C5432 C 0.10758 0.52371 0.15228 0.0
C5433 C 0.08713 0.52915 0.14968 0.0
C5434 C 0.11033 0.50733 0.16229 0.0
C5435 C 0.09279 0.49649 0.17004 0.0
C5436 C 0.07069 0.4996 0.16474 0.0
H5437 H 0.12991 0.43634 0.2757 0.0
H5438 H 0.11311 0.45984 0.25703 0.0
C5439 C 0.06768 0.51565 0.15423 0.0
C5440 C 0.10083 0.4869 0.18821 0.0
H5441 H 0.12167 0.44431 0.19441 0.0
C5442 C 0.1088 0.5025 0.21465 0.0
C5443 C 0.10474 0.46523 0.18069 0.0
C5444 C 0.09546 0.44731 0.15241 0.0
C5445 C 0.12214 0.49785 0.23407 0.0
C5446 C 0.12742 0.47709 0.22667 0.0
C5447 C 0.11811 0.46065 0.20005 0.0
C5448 C 0.14248 0.4716 0.24588 0.0
C5449 C 0.13158 0.51579 0.26239 0.0
C5450 C 0.16558 0.47202 0.24737 0.0
C5451 C 0.17516 0.45858 0.25802 0.0
C5452 C 0.16174 0.44471 0.26729 0.0
C5453 C 0.14089 0.44745 0.26917 0.0
C5454 C 0.13113 0.46067 0.25829 0.0
H5455 H 0.12951 0.53338 0.26527 0.0
H5456 H 0.11994 0.50497 0.26917 0.0
H5457 H 0.15247 0.52223 0.27488 0.0
H5458 H 0.17455 0.48036 0.23783 0.0
H5459 H 0.19087 0.45618 0.25584 0.0
H5460 H 0.80831 0.98271 0.77709 0.0
H5461 H 0.79551 0.96157 0.73111 0.0
H5462 H 0.82809 0.91246 0.74186 0.0
H5463 H 0.84061 0.93339 0.7885 0.0
H5464 H 0.82637 0.96162 0.71031 0.0
H5465 H 0.75636 0.85899 0.67667 0.0
H5466 H 0.7684 0.88597 0.70836 0.0
H5467 H 0.78871 0.87249 0.70307 0.0
C5468 C 0.81282 0.96739 0.76988 0.0
C5469 C 0.8257 0.95992 0.78668 0.0
C5470 C 0.80538 0.95525 0.74341 0.0
C5471 C 0.81055 0.93524 0.73281 0.0
C5472 C 0.82343 0.92755 0.74942 0.0
H5473 H 0.78801 0.84781 0.58061 0.0
H5474 H 0.78871 0.86182 0.62232 0.0
C5475 C 0.83085 0.93972 0.77615 0.0
C5476 C 0.80336 0.92376 0.70466 0.0
H5477 H 0.76501 0.8672 0.64536 0.0
C5478 C 0.81302 0.94092 0.69605 0.0
C5479 C 0.78572 0.89685 0.68606 0.0
C5480 C 0.77397 0.87748 0.69386 0.0
C5481 C 0.80596 0.9321 0.66959 0.0
C5482 C 0.78834 0.90501 0.65074 0.0
C5483 C 0.77853 0.88788 0.65948 0.0
C5484 C 0.7819 0.89347 0.62262 0.0
C5485 C 0.81791 0.95244 0.66284 0.0
C5486 C 0.77523 0.90484 0.60726 0.0
C5487 C 0.77448 0.8964 0.58303 0.0
C5488 C 0.77909 0.8756 0.57313 0.0
C5489 C 0.783 0.86273 0.58716 0.0
C5490 C 0.78414 0.87134 0.61142 0.0
H5491 H 0.80521 0.96113 0.65878 0.0
H5492 H 0.83761 0.96865 0.67951 0.0
H5493 H 0.82 0.94432 0.64551 0.0
H5494 H 0.77195 0.92109 0.61452 0.0
H5495 H 0.77123 0.90673 0.57249 0.0
H5496 H 0.56064 0.69652 0.79708 0.0
H5497 H 0.5484 0.65344 0.79373 0.0
H5498 H 0.50061 0.66293 0.82844 0.0
H5499 H 0.51254 0.70585 0.83162 0.0
H5500 H 0.5294 0.63388 0.84206 0.0
H5501 H 0.46779 0.59757 0.73616 0.0
H5502 H 0.50197 0.62055 0.75065 0.0
H5503 H 0.48197 0.63099 0.76123 0.0
C5504 C 0.54829 0.68986 0.80486 0.0
C5505 C 0.53729 0.70441 0.81432 0.0
C5506 C 0.54122 0.66519 0.80283 0.0
C5507 C 0.52333 0.65486 0.81052 0.0
C5508 C 0.51437 0.67048 0.82233 0.0
H5509 H 0.42957 0.49537 0.77753 0.0
H5510 H 0.44977 0.54274 0.79429 0.0
C5511 C 0.52118 0.69499 0.82409 0.0
C5512 C 0.5109 0.6266 0.80254 0.0
H5513 H 0.46879 0.56573 0.74818 0.0
C5514 C 0.51612 0.61893 0.82158 0.0
C5515 C 0.49319 0.60719 0.77584 0.0
C5516 C 0.48563 0.61436 0.75474 0.0
C5517 C 0.5047 0.59219 0.81438 0.0
C5518 C 0.48758 0.57282 0.78755 0.0
C5519 C 0.48206 0.58061 0.7687 0.0
C5520 C 0.47572 0.54426 0.77825 0.0
C5521 C 0.51145 0.58472 0.83532 0.0
C5522 C 0.48298 0.52925 0.76298 0.0
C5523 C 0.47144 0.5022 0.75331 0.0
C5524 C 0.45226 0.48944 0.75861 0.0
C5525 C 0.44445 0.50448 0.77328 0.0
C5526 C 0.45612 0.53162 0.78306 0.0
H5527 H 0.52752 0.60189 0.85479 0.0
H5528 H 0.49387 0.57597 0.83704 0.0
H5529 H 0.5174 0.56972 0.82988 0.0
H5530 H 0.49789 0.53858 0.75881 0.0
H5531 H 0.47824 0.49145 0.74237 0.0
H5532 H 0.72608 0.23792 0.79507 0.0
H5533 H 0.73286 0.22871 0.83096 0.0
H5534 H 0.73933 0.16252 0.78952 0.0
H5535 H 0.73274 0.17178 0.75323 0.0
H5536 H 0.69721 0.17429 0.82055 0.0
H5537 H 0.80481 0.21033 0.86846 0.0
H5538 H 0.79095 0.22293 0.84881 0.0
H5539 H 0.78402 0.18972 0.83336 0.0
C5540 C 0.7293 0.22162 0.79371 0.0
C5541 C 0.72881 0.20548 0.77146 0.0
C5542 C 0.73307 0.21635 0.81412 0.0
C5543 C 0.73635 0.19489 0.81255 0.0
C5544 C 0.73685 0.1792 0.79085 0.0
H5545 H 0.76728 0.1747 0.94922 0.0
H5546 H 0.76342 0.16951 0.90728 0.0
C5547 C 0.73324 0.18458 0.77035 0.0
C5548 C 0.7384 0.18902 0.8337 0.0
H5549 H 0.78407 0.20407 0.8929 0.0
C5550 C 0.71605 0.1802 0.83619 0.0
C5551 C 0.76294 0.19643 0.85362 0.0
C5552 C 0.78717 0.2054 0.85115 0.0
C5553 C 0.718 0.18038 0.8592 0.0
C5554 C 0.74306 0.19034 0.88023 0.0
C5555 C 0.76502 0.19705 0.87684 0.0
C5556 C 0.74711 0.19502 0.90627 0.0
C5557 C 0.69339 0.17057 0.86098 0.0
C5558 C 0.74025 0.212 0.91992 0.0
C5559 C 0.74254 0.21505 0.94388 0.0
C5560 C 0.75216 0.20151 0.9544 0.0
C5561 C 0.76039 0.18575 0.94148 0.0
C5562 C 0.75792 0.18254 0.91752 0.0
H5563 H 0.67576 0.15619 0.84125 0.0
H5564 H 0.69464 0.16118 0.87331 0.0
H5565 H 0.69064 0.18735 0.86991 0.0
H5566 H 0.7324 0.22222 0.91165 0.0
H5567 H 0.73558 0.22677 0.95344 0.0
H5568 H 0.17118 0.13613 0.55152 0.0
H5569 H 0.1864 0.13929 0.5208 0.0
H5570 H 0.16534 0.05782 0.48808 0.0
H5571 H 0.14928 0.05422 0.51823 0.0
H5572 H 0.22322 0.10134 0.51473 0.0
H5573 H 0.15008 0.10398 0.43682 0.0
H5574 H 0.1548 0.1211 0.46904 0.0
H5575 H 0.14127 0.08616 0.45302 0.0
C5576 C 0.16882 0.11865 0.53707 0.0
C5577 C 0.15925 0.09503 0.5373 0.0
C5578 C 0.17753 0.12047 0.51962 0.0
C5579 C 0.17701 0.0988 0.50241 0.0
C5580 C 0.1657 0.07464 0.5012 0.0
H5581 H 0.27034 0.12933 0.42743 0.0
H5582 H 0.253 0.11016 0.45034 0.0
C5583 C 0.15644 0.07265 0.51833 0.0
C5584 C 0.1917 0.10302 0.48873 0.0
H5585 H 0.19469 0.12587 0.4469 0.0
C5586 C 0.21693 0.10616 0.49943 0.0
C5587 C 0.18312 0.10896 0.46875 0.0
C5588 C 0.15573 0.10468 0.45601 0.0
C5589 C 0.23482 0.11754 0.49225 0.0
C5590 C 0.22694 0.12573 0.47394 0.0
C5591 C 0.2009 0.12031 0.46159 0.0
C5592 C 0.24521 0.14091 0.4677 0.0
C5593 C 0.2623 0.12211 0.50533 0.0
C5594 C 0.24805 0.16533 0.4712 0.0
C5595 C 0.25732 0.17591 0.45759 0.0
C5596 C 0.26426 0.16239 0.4408 0.0
C5597 C 0.26519 0.14011 0.44047 0.0
C5598 C 0.25527 0.12912 0.45354 0.0
H5599 H 0.26655 0.11888 0.52237 0.0
H5600 H 0.26472 0.10832 0.49096 0.0
H5601 H 0.27695 0.14237 0.51203 0.0
H5602 H 0.24047 0.17474 0.4822 0.0
H5603 H 0.25605 0.19283 0.45772 0.0
H5604 H 0.16583 0.7475 0.72062 0.0
H5605 H 0.15371 0.77853 0.71198 0.0
H5606 H 0.23541 0.83869 0.75839 0.0
H5607 H 0.24758 0.80741 0.76584 0.0
H5608 H 0.16071 0.82794 0.73813 0.0
H5609 H 0.21492 0.82752 0.68444 0.0
H5610 H 0.20629 0.80392 0.69507 0.0
H5611 H 0.23583 0.83547 0.71702 0.0
C5612 C 0.181 0.76771 0.72991 0.0
C5613 C 0.2076 0.77537 0.74389 0.0
C5614 C 0.17409 0.78524 0.72471 0.0
C5615 C 0.19381 0.81044 0.73378 0.0
C5616 C 0.22006 0.81897 0.7506 0.0
H5617 H 0.21817 0.95688 0.7747 0.0
H5618 H 0.20704 0.91221 0.76541 0.0
C5619 C 0.22699 0.80135 0.75525 0.0
C5620 C 0.18785 0.82735 0.72411 0.0
H5621 H 0.21267 0.86762 0.70261 0.0
C5622 C 0.17159 0.83629 0.72986 0.0
C5623 C 0.20054 0.83683 0.71156 0.0
C5624 C 0.21505 0.82512 0.70133 0.0
C5625 C 0.17068 0.85716 0.72664 0.0
C5626 C 0.18744 0.8699 0.71887 0.0
C5627 C 0.20072 0.85854 0.70967 0.0
C5628 C 0.19464 0.89682 0.72409 0.0
C5629 C 0.1523 0.8658 0.73201 0.0
C5630 C 0.19345 0.90333 0.70444 0.0
C5631 C 0.20092 0.92912 0.71006 0.0
C5632 C 0.20951 0.94853 0.73533 0.0
C5633 C 0.2119 0.94222 0.7552 0.0
C5634 C 0.20485 0.91662 0.74969 0.0
H5635 H 0.13543 0.84957 0.72953 0.0
H5636 H 0.16283 0.88216 0.75246 0.0
H5637 H 0.14473 0.87264 0.71845 0.0
H5638 H 0.18607 0.88836 0.68468 0.0
H5639 H 0.19825 0.93347 0.69425 0.0
H5640 H 0.15694 0.78562 0.94319 0.0
H5641 H 0.20066 0.80609 0.94748 0.0
H5642 H 0.22455 0.87671 0.01547 0.0
H5643 H 0.18197 0.85706 0.01145 0.0
H5644 H 0.22623 0.85837 0.95082 0.0
H5645 H 0.28177 0.85622 0.03974 0.0
H5646 H 0.24671 0.83492 0.01831 0.0
H5647 H 0.25994 0.86865 0.04159 0.0
C5648 C 0.17156 0.80552 0.95886 0.0
C5649 C 0.16614 0.81964 0.97705 0.0
C5650 C 0.19641 0.81705 0.96141 0.0
C5651 C 0.21577 0.84254 0.98223 0.0
C5652 C 0.21002 0.85677 -0.00025 0.0
H5653 H 0.37437 0.96218 0.04624 0.0
H5654 H 0.33083 0.93455 0.03867 0.0
C5655 C 0.18552 0.84546 0.99723 0.0
C5656 C 0.24185 0.85551 0.98542 0.0
H5657 H 0.30685 0.88531 0.02947 0.0
C5658 C 0.24393 0.86385 0.96766 0.0
C5659 C 0.26466 0.86326 0.008 0.0
C5660 C 0.26323 0.85515 0.02794 0.0
C5661 C 0.26844 0.88054 0.97226 0.0
C5662 C 0.29136 0.88806 0.99467 0.0
C5663 C 0.28923 0.8794 0.01228 0.0
C5664 C 0.31772 0.90444 -0.00018 0.0
C5665 C 0.2694 0.89088 0.95371 0.0
C5666 C 0.32476 0.89624 0.98079 0.0
C5667 C 0.34907 0.91211 0.98482 0.0
C5668 C 0.36705 0.93604 0.0083 0.0
C5669 C 0.36064 0.94377 0.02799 0.0
C5670 C 0.33592 0.92808 0.02367 0.0
H5671 H 0.25082 0.89046 0.94326 0.0
H5672 H 0.28586 0.91132 0.96423 0.0
H5673 H 0.27216 0.87832 0.9387 0.0
H5674 H 0.31134 0.87763 0.9627 0.0
H5675 H 0.35389 0.90558 0.96959 0.0
H5676 H 0.16535 0.91652 0.11149 0.0
H5677 H 0.17868 0.90355 0.14494 0.0
H5678 H 0.18998 0.97424 0.20289 0.0
H5679 H 0.17555 0.98598 0.17008 0.0
H5680 H 0.22635 0.9306 0.18771 0.0
H5681 H 0.15568 0.92511 0.22266 0.0
H5682 H 0.14942 0.92482 0.19216 0.0
H5683 H 0.16822 0.95543 0.22279 0.0
C5684 C 0.17005 0.92875 0.13126 0.0
C5685 C 0.17017 0.95264 0.13844 0.0
C5686 C 0.17769 0.92143 0.15032 0.0
C5687 C 0.18505 0.9378 0.17645 0.0
C5688 C 0.18377 0.96086 0.1829 0.0
H5689 H 0.2766 0.97729 0.33627 0.0
H5690 H 0.25356 0.97711 0.2956 0.0
C5691 C 0.17606 0.96791 0.16411 0.0
C5692 C 0.19737 0.93335 0.19812 0.0
H5693 H 0.19991 0.93928 0.25545 0.0
C5694 C 0.22024 0.93189 0.20223 0.0
C5695 C 0.18951 0.9352 0.21721 0.0
C5696 C 0.16419 0.93495 0.21326 0.0
C5697 C 0.23623 0.93372 0.22553 0.0
C5698 C 0.22909 0.93706 0.24518 0.0
C5699 C 0.20571 0.93747 0.24066 0.0
C5700 C 0.24469 0.93835 0.26982 0.0
C5701 C 0.26099 0.93278 0.22918 0.0
C5702 C 0.24708 0.9166 0.26868 0.0
C5703 C 0.26018 0.91666 0.29161 0.0
C5704 C 0.27091 0.9383 0.31637 0.0
C5705 C 0.26894 0.96043 0.31757 0.0
C5706 C 0.25574 0.96034 0.2944 0.0
H5707 H 0.2678 0.93834 0.21652 0.0
H5708 H 0.27704 0.94595 0.2499 0.0
H5709 H 0.25701 0.91246 0.22369 0.0
H5710 H 0.23795 0.89914 0.24994 0.0
H5711 H 0.26064 0.89903 0.28979 0.0
H5712 H 0.52551 0.12935 0.09784 0.0
H5713 H 0.50367 0.15258 0.1116 0.0
H5714 H 0.50007 0.17709 0.0542 0.0
H5715 H 0.51968 0.15191 0.03886 0.0
H5716 H 0.53639 0.21736 0.11185 0.0
H5717 H 0.43306 0.15666 0.08398 0.0
H5718 H 0.45451 0.14468 0.09526 0.0
H5719 H 0.44776 0.14551 0.06538 0.0
C5720 C 0.51802 0.13784 0.08674 0.0
C5721 C 0.52445 0.1392 0.06758 0.0
C5722 C 0.50593 0.15146 0.09485 0.0
C5723 C 0.5006 0.16674 0.08408 0.0
C5724 C 0.50382 0.16518 0.06255 0.0
H5725 H 0.47296 0.29262 0.1512 0.0
H5726 H 0.49302 0.27093 0.13145 0.0
C5727 C 0.5149 0.15065 0.05372 0.0
C5728 C 0.49737 0.18817 0.0989 0.0
H5729 H 0.45724 0.20023 0.12083 0.0
C5730 C 0.51894 0.21381 0.11354 0.0
C5731 C 0.47473 0.18322 0.10113 0.0
C5732 C 0.45107 0.15606 0.08544 0.0
C5733 C 0.51875 0.23459 0.13127 0.0
C5734 C 0.49642 0.22945 0.13415 0.0
C5735 C 0.47452 0.20396 0.11879 0.0
C5736 C 0.49485 0.24997 0.15286 0.0
C5737 C 0.54268 0.26158 0.14759 0.0
C5738 C 0.49143 0.24707 0.17301 0.0
C5739 C 0.48009 0.25955 0.18435 0.0
C5740 C 0.47178 0.2747 0.17534 0.0
C5741 C 0.4795 0.28125 0.15866 0.0
C5742 C 0.49065 0.26856 0.14708 0.0
H5743 H 0.55958 0.26162 0.14525 0.0
H5744 H 0.53798 0.27506 0.14166 0.0
H5745 H 0.5485 0.26939 0.16863 0.0
H5746 H 0.49466 0.23283 0.17776 0.0
H5747 H 0.47404 0.254 0.19696 0.0
H5748 H 0.94102 0.15074 0.81842 0.0
H5749 H 0.94661 0.19439 0.8425 0.0
H5750 H 0.02561 0.23102 0.85643 0.0
H5751 H 0.02037 0.18795 0.83302 0.0
H5752 H 0.99574 0.23458 0.90009 0.0
H5753 H 0.98595 0.26874 0.82732 0.0
H5754 H 0.96962 0.23437 0.81751 0.0
H5755 H 0.0043 0.25187 0.83013 0.0
C5756 C 0.9593 0.16818 0.82618 0.0
C5757 C 0.98029 0.16613 0.82401 0.0
C5758 C 0.96252 0.19297 0.83996 0.0
C5759 C 0.98651 0.21574 0.85108 0.0
C5760 C 0.00696 0.21363 0.84784 0.0
H5761 H 0.04729 0.38339 0.94476 0.0
H5762 H 0.04397 0.34103 0.92124 0.0
C5763 C 0.00392 0.18905 0.83453 0.0
C5764 C 0.99129 0.2418 0.86791 0.0
H5765 H -0.0 0.29966 0.87045 0.0
C5766 C 0.99645 0.24878 0.89362 0.0
C5767 C 0.99295 0.26035 0.85949 0.0
C5768 C 0.98782 0.25359 0.83208 0.0
C5769 C 0.0031 0.274 0.9112 0.0
C5770 C 0.00402 0.29236 0.90256 0.0
C5771 C -0.00072 0.28548 0.87696 0.0
C5772 C 0.00775 0.31806 0.91904 0.0
C5773 C 0.00945 0.28097 0.93897 0.0
C5774 C 0.98862 0.31901 0.92567 0.0
C5775 C 0.99035 0.34297 0.93884 0.0
C5776 C 0.01129 0.36644 0.94564 0.0
C5777 C 0.03099 0.36559 0.93981 0.0
C5778 C 0.02909 0.34148 0.92637 0.0
H5779 H 0.01498 0.26763 0.94449 0.0
H5780 H 0.02575 0.30149 0.95308 0.0
H5781 H 0.99193 0.27921 0.94077 0.0
H5782 H 0.97182 0.30111 0.91984 0.0
H5783 H 0.97493 0.34301 0.94316 0.0
H5784 H 0.79543 0.78342 0.21997 0.0
H5785 H 0.83097 0.77825 0.21438 0.0
H5786 H 0.78884 0.69582 0.18854 0.0
H5787 H 0.75345 0.70091 0.19401 0.0
H5788 H 0.85146 0.74809 0.24396 0.0
H5789 H 0.82304 0.71169 0.13859 0.0
H5790 H 0.81296 0.73355 0.15379 0.0
H5791 H 0.79916 0.70082 0.14838 0.0
C5792 C 0.79367 0.76421 0.21252 0.0
C5793 C 0.77212 0.74252 0.20729 0.0
C5794 C 0.8137 0.76123 0.20925 0.0
C5795 C 0.81207 0.73663 0.20089 0.0
C5796 C 0.78999 0.71476 0.19463 0.0
H5797 H 0.94008 0.7129 0.19686 0.0
H5798 H 0.90019 0.70478 0.19931 0.0
C5799 C 0.76999 0.71772 0.19781 0.0
C5800 C 0.83519 0.73488 0.20264 0.0
H5801 H 0.86654 0.72502 0.16827 0.0
C5802 C 0.85478 0.74278 0.22743 0.0
C5803 C 0.83871 0.72727 0.18076 0.0
C5804 C 0.81741 0.71774 0.15376 0.0
C5805 C 0.87886 0.74488 0.23126 0.0
C5806 C 0.88315 0.73921 0.20982 0.0
C5807 C 0.86296 0.72965 0.18465 0.0
C5808 C 0.9091 0.74503 0.21342 0.0
C5809 C 0.8999 0.75383 0.25815 0.0
C5810 C 0.92745 0.77059 0.22163 0.0
C5811 C 0.95028 0.77532 0.22029 0.0
C5812 C 0.95448 0.75436 0.21047 0.0
C5813 C 0.937 0.72924 0.20424 0.0
C5814 C 0.91431 0.72456 0.20563 0.0
H5815 H 0.89229 0.7542 0.27194 0.0
H5816 H 0.90836 0.74067 0.25685 0.0
H5817 H 0.916 0.77386 0.26622 0.0
H5818 H 0.92331 0.78646 0.22751 0.0
H5819 H 0.96345 0.79471 0.22483 0.0
H5820 H 0.72692 0.83616 0.58025 0.0
H5821 H 0.68391 0.83409 0.56857 0.0
H5822 H 0.65157 0.77305 0.4897 0.0
H5823 H 0.69336 0.77438 0.50147 0.0
H5824 H 0.64949 0.83839 0.52336 0.0
H5825 H 0.60325 0.74149 0.51595 0.0
H5826 H 0.63839 0.76277 0.5336 0.0
H5827 H 0.62087 0.74317 0.49841 0.0
C5828 C 0.71044 0.82206 0.56063 0.0
C5829 C 0.71348 0.80531 0.54175 0.0
C5830 C 0.686 0.82113 0.55384 0.0
C5831 C 0.6644 0.80335 0.52817 0.0
C5832 C 0.66772 0.78683 0.5096 0.0
H5833 H 0.5072 0.77534 0.43395 0.0
H5834 H 0.55439 0.78984 0.45362 0.0
C5835 C 0.69173 0.78766 0.51636 0.0
C5836 C 0.63775 0.80047 0.52037 0.0
H5837 H 0.57442 0.75469 0.49615 0.0
C5838 C 0.63309 0.82027 0.51775 0.0
C5839 C 0.61625 0.77676 0.51282 0.0
C5840 C 0.61988 0.75489 0.51551 0.0
C5841 C 0.60742 0.81665 0.50732 0.0
C5842 C 0.58586 0.79255 0.49911 0.0
C5843 C 0.59078 0.77311 0.50226 0.0
C5844 C 0.55803 0.78692 0.48813 0.0
C5845 C 0.60355 0.83865 0.50538 0.0
C5846 C 0.54412 0.78021 0.50066 0.0
C5847 C 0.51722 0.7715 0.48928 0.0
C5848 C 0.50322 0.76924 0.46493 0.0
C5849 C 0.51725 0.77669 0.45263 0.0
C5850 C 0.54435 0.78528 0.46403 0.0
H5851 H 0.62241 0.85745 0.51668 0.0
H5852 H 0.59439 0.83359 0.48453 0.0
H5853 H 0.59016 0.84144 0.51267 0.0
H5854 H 0.55407 0.78129 0.51922 0.0
H5855 H 0.50742 0.76664 0.49978 0.0
H5856 H 0.94834 0.62684 0.44483 0.0
H5857 H 0.96018 0.67265 0.47073 0.0
H5858 H 0.04123 0.69372 0.51219 0.0
H5859 H 0.02989 0.6487 0.48643 0.0
H5860 H 0.99345 0.70811 0.53135 0.0
H5861 H 0.04712 0.7429 0.48361 0.0
H5862 H 0.01298 0.7193 0.46188 0.0
H5863 H 0.03506 0.70995 0.47778 0.0
C5864 C 0.96863 0.64121 0.45962 0.0
C5865 C 0.98827 0.6342 0.46322 0.0
C5866 C 0.97535 0.66732 0.47432 0.0
C5867 C 0.00172 0.68656 0.49263 0.0
C5868 C 0.02091 0.67921 0.49752 0.0
H5869 H 0.07839 0.84423 0.62036 0.0
H5870 H 0.06597 0.79913 0.59167 0.0
C5871 C 0.01432 0.65337 0.48283 0.0
C5872 C 0.00969 0.71446 0.50711 0.0
H5873 H 0.04479 0.77437 0.51489 0.0
C5874 C 0.00454 0.72261 0.52767 0.0
C5875 C 0.02443 0.7333 0.5024 0.0
C5876 C 0.03036 0.72591 0.48034 0.0
C5877 C 0.01441 0.74926 0.54425 0.0
C5878 C 0.02938 0.76814 0.53969 0.0
C5879 C 0.03364 0.75986 0.5185 0.0
C5880 C 0.04051 0.79656 0.55631 0.0
C5881 C 0.00874 0.75645 0.56651 0.0
C5882 C 0.03218 0.81062 0.54545 0.0
C5883 C 0.03975 0.83654 0.56168 0.0
C5884 C 0.05541 0.84848 0.58898 0.0
C5885 C 0.06604 0.8353 0.5994 0.0
C5886 C 0.05874 0.80951 0.58312 0.0
H5887 H 0.02081 0.75354 0.58173 0.0
H5888 H 0.01301 0.77694 0.57578 0.0
H5889 H 0.98784 0.7432 0.55944 0.0
H5890 H 0.01848 0.80103 0.52468 0.0
H5891 H 0.03114 0.84617 0.55312 0.0
H5892 H 0.92281 0.10885 0.15794 0.0
H5893 H 0.90696 0.1401 0.16863 0.0
H5894 H 0.98494 0.20447 0.20388 0.0
H5895 H 0.00061 0.17408 0.19335 0.0
H5896 H 0.92547 0.17945 0.21924 0.0
H5897 H 0.94089 0.22473 0.15961 0.0
H5898 H 0.93885 0.1934 0.1527 0.0
H5899 H 0.9694 0.22347 0.17698 0.0
C5900 C 0.93643 0.12967 0.16782 0.0
C5901 C 0.96305 0.13892 0.17512 0.0
C5902 C 0.92736 0.14747 0.17378 0.0
C5903 C 0.94472 0.17464 0.18669 0.0
C5904 C 0.97103 0.18365 0.19336 0.0
H5905 H 0.97435 0.32833 0.27896 0.0
H5906 H 0.97502 0.28846 0.25535 0.0
C5907 C 0.98004 0.1661 0.18756 0.0
C5908 C 0.93679 0.19427 0.1959 0.0
H5909 H 0.9442 0.25251 0.20007 0.0
C5910 C 0.92894 0.19513 0.21463 0.0
C5911 C 0.94126 0.21468 0.1898 0.0
C5912 C 0.94778 0.21387 0.16844 0.0
C5913 C 0.92741 0.21684 0.22888 0.0
C5914 C 0.93375 0.23812 0.22408 0.0
C5915 C 0.94004 0.23651 0.20422 0.0
C5916 C 0.93381 0.26216 0.23937 0.0
C5917 C 0.92025 0.21735 0.2498 0.0
C5918 C 0.91057 0.2606 0.23834 0.0
C5919 C 0.9103 0.28311 0.2523 0.0
C5920 C 0.93313 0.30794 0.26704 0.0
C5921 C 0.95651 0.30953 0.2681 0.0
C5922 C 0.95685 0.2868 0.25443 0.0
H5923 H 0.92218 0.20265 0.25534 0.0
H5924 H 0.93277 0.23707 0.26767 0.0
H5925 H 0.89953 0.2127 0.24229 0.0
H5926 H 0.89245 0.24195 0.22617 0.0
H5927 H 0.89182 0.28105 0.25056 0.0
H5928 H 0.7903 0.82937 0.9846 0.0
H5929 H 0.74465 0.81785 0.96874 0.0
H5930 H 0.73941 0.82167 0.89967 0.0
H5931 H 0.78509 0.8326 0.91519 0.0
H5932 H 0.71619 0.83778 0.95839 0.0
H5933 H 0.67806 0.75072 0.86431 0.0
H5934 H 0.71201 0.76902 0.88964 0.0
H5935 H 0.70019 0.78021 0.86752 0.0
C5936 C 0.77963 0.82786 0.96598 0.0
C5937 C 0.79181 0.83146 0.95105 0.0
C5938 C 0.75325 0.82122 0.95689 0.0
C5939 C 0.73782 0.81783 0.93241 0.0
C5940 C 0.75029 0.82305 0.91813 0.0
H5941 H 0.5773 0.7793 0.84311 0.0
H5942 H 0.62063 0.78241 0.85721 0.0
C5943 C 0.77684 0.8297 0.92727 0.0
C5944 C 0.70894 0.80883 0.92224 0.0
H5945 H 0.64739 0.76317 0.86943 0.0
C5946 C 0.70115 0.82143 0.93889 0.0
C5947 C 0.68894 0.78707 0.89705 0.0
C5948 C 0.69516 0.77078 0.87871 0.0
C5949 C 0.67449 0.8136 0.93109 0.0
C5950 C 0.65439 0.79249 0.90532 0.0
C5951 C 0.6623 0.77962 0.8889 0.0
C5952 C 0.62552 0.78455 0.89402 0.0
C5953 C 0.66893 0.82845 0.95115 0.0
C5954 C 0.61193 0.78182 0.90794 0.0
C5955 C 0.58659 0.77896 0.89846 0.0
C5956 C 0.57368 0.77775 0.87434 0.0
C5957 C 0.58614 0.77778 0.85979 0.0
C5958 C 0.61134 0.78069 0.86889 0.0
H5959 H 0.66759 0.81921 0.96341 0.0
H5960 H 0.68512 0.84914 0.96446 0.0
H5961 H 0.65049 0.82862 0.94232 0.0
H5962 H 0.62127 0.78309 0.9267 0.0
H5963 H 0.57766 0.779 0.91066 0.0
H5964 H 0.5049 0.02708 0.64044 0.0
H5965 H 0.53392 0.03273 0.68178 0.0
H5966 H 0.47349 0.96143 0.66642 0.0
H5967 H 0.44305 0.95806 0.62713 0.0
H5968 H 0.50943 0.03786 0.7143 0.0
H5969 H 0.54078 0.96343 0.7103 0.0
H5970 H 0.5445 0.97975 0.69163 0.0
H5971 H 0.51256 0.956 0.68212 0.0
C5972 C 0.49775 0.0123 0.64557 0.0
C5973 C 0.47118 0.99237 0.63074 0.0
C5974 C 0.51462 0.01537 0.66905 0.0
C5975 C 0.50557 0.99781 0.6774 0.0
C5976 C 0.4807 0.9753 0.66032 0.0
H5977 H 0.53821 0.02402 0.83445 0.0
H5978 H 0.51722 0.00552 0.78649 0.0
C5979 C 0.46333 0.97299 0.63746 0.0
C5980 C 0.51837 0.00656 0.7057 0.0
H5981 H 0.54695 0.99141 0.75059 0.0
C5982 C 0.51774 0.02774 0.72232 0.0
C5983 C 0.5292 0.99341 0.71605 0.0
C5984 C 0.53197 0.97186 0.69929 0.0
C5985 C 0.52715 0.03575 0.74896 0.0
C5986 C 0.53818 0.02277 0.75943 0.0
C5987 C 0.53878 0.00156 0.74281 0.0
C5988 C 0.55088 0.03265 0.78799 0.0
C5989 C 0.52499 0.05782 0.76582 0.0
C5990 C 0.57636 0.05437 0.80454 0.0
C5991 C 0.5882 0.06492 0.8317 0.0
C5992 C 0.57503 0.05339 0.84263 0.0
C5993 C 0.54909 0.03239 0.82621 0.0
C5994 C 0.53715 0.02187 0.79896 0.0
H5995 H 0.51374 0.06432 0.75417 0.0
H5996 H 0.5152 0.05146 0.77628 0.0
H5997 H 0.54492 0.0748 0.78087 0.0
H5998 H 0.58696 0.06335 0.79643 0.0
H5999 H 0.60767 0.082 0.84415 0.0
H6000 H 0.11954 0.12892 0.92294 0.0
H6001 H 0.15252 0.14415 0.91022 0.0
H6002 H 0.17391 0.22423 0.95772 0.0
H6003 H 0.14113 0.2093 0.97014 0.0
H6004 H 0.17307 0.21342 0.90987 0.0
H6005 H 0.23156 0.18077 0.96611 0.0
H6006 H 0.19792 0.15667 0.94142 0.0
H6007 H 0.20522 0.18406 0.96996 0.0
C6008 C 0.13077 0.14969 0.93001 0.0
C6009 C 0.12803 0.16796 0.94781 0.0
C6010 C 0.1498 0.15838 0.923 0.0
C6011 C 0.16609 0.18538 0.93358 0.0
C6012 C 0.16174 0.20335 0.94952 0.0
H6013 H 0.32507 0.27536 0.96837 0.0
H6014 H 0.28495 0.25358 0.96933 0.0
C6015 C 0.14294 0.19475 0.95657 0.0
C6016 C 0.18891 0.19555 0.92984 0.0
H6017 H 0.25038 0.20364 0.94807 0.0
C6018 C 0.18988 0.21105 0.91792 0.0
C6019 C 0.21107 0.19301 0.94106 0.0
C6020 C 0.21168 0.17791 0.95555 0.0
C6021 C 0.21248 0.2244 0.91717 0.0
C6022 C 0.23456 0.22152 0.92796 0.0
C6023 C 0.23347 0.20576 0.93967 0.0
C6024 C 0.259 0.23493 0.9275 0.0
C6025 C 0.21278 0.24236 0.90585 0.0
C6026 C 0.25791 0.2317 0.90375 0.0
C6027 C 0.28062 0.24472 0.90326 0.0
C6028 C 0.30521 0.26066 0.92643 0.0
C6029 C 0.30645 0.26343 0.9502 0.0
C6030 C 0.28353 0.25081 0.95074 0.0
H6031 H 0.19827 0.24878 0.90635 0.0
H6032 H 0.23247 0.26008 0.91667 0.0
H6033 H 0.20744 0.23168 0.88503 0.0
H6034 H 0.23947 0.21888 0.88543 0.0
H6035 H 0.27892 0.24166 0.88451 0.0
H6036 H 0.8422 0.02386 0.18851 0.0
H6037 H 0.86364 0.02744 0.23087 0.0
H6038 H 0.83081 0.94353 0.1935 0.0
H6039 H 0.80886 0.93961 0.15029 0.0
H6040 H 0.83992 0.00126 0.25476 0.0
H6041 H 0.91407 0.97908 0.23783 0.0
H6042 H 0.89559 0.98953 0.2189 0.0
H6043 H 0.8802 0.95654 0.21269 0.0
C6044 C 0.83939 0.00603 0.18914 0.0
C6045 C 0.82405 0.98139 0.16604 0.0
C6046 C 0.8516 0.00819 0.21342 0.0
C6047 C 0.84896 0.98582 0.21514 0.0
C6048 C 0.83316 0.96102 0.19232 0.0
H6049 H 0.91434 0.96074 0.3417 0.0
H6050 H 0.8936 0.95879 0.29995 0.0
C6051 C 0.8206 0.95877 0.16779 0.0
C6052 C 0.86346 0.98898 0.24102 0.0
H6053 H 0.91565 0.98621 0.27805 0.0
C6054 C 0.85642 0.99789 0.25992 0.0
C6055 C 0.88532 0.9852 0.24764 0.0
C6056 C 0.89451 0.97726 0.22835 0.0
C6057 C 0.87025 0.0023 0.28523 0.0
C6058 C 0.89176 0.99791 0.29169 0.0
C6059 C 0.89907 0.98946 0.2729 0.0
C6060 C 0.90567 4e-05 0.31721 0.0
C6061 C 0.86138 0.01101 0.30465 0.0
C6062 C 0.91971 0.02407 0.34069 0.0
C6063 C 0.93149 0.02526 0.36473 0.0
C6064 C 0.92944 0.00244 0.36548 0.0
C6065 C 0.91603 0.97863 0.34182 0.0
C6066 C 0.90426 0.97747 0.31792 0.0
H6067 H 0.84154 0.00855 0.29501 0.0
H6068 H 0.86111 -0.00019 0.31522 0.0
H6069 H 0.87535 0.03209 0.31937 0.0
H6070 H 0.92139 0.0418 0.34041 0.0
H6071 H 0.942 0.04395 0.38265 0.0
H6072 H 0.4408 0.86424 0.41397 0.0
H6073 H 0.46317 0.87621 0.45947 0.0
H6074 H 0.45897 0.94731 0.48224 0.0
H6075 H 0.44646 0.93953 0.43845 0.0
H6076 H 0.48111 0.9574 0.52252 0.0
H6077 H 0.46224 0.86299 0.48669 0.0
H6078 H 0.43262 0.86295 0.47157 0.0
H6079 H 0.43831 0.85283 0.49564 0.0
C6080 C 0.44419 0.88216 0.42873 0.0
C6081 C 0.43798 0.89914 0.42142 0.0
C6082 C 0.45636 0.88882 0.45537 0.0
C6083 C 0.45957 0.91099 0.47564 0.0
C6084 C 0.45562 0.92904 0.46823 0.0
H6085 H 0.40596 0.92439 0.58048 0.0
H6086 H 0.43214 0.93781 0.5606 0.0
C6087 C 0.44682 0.92393 0.44218 0.0
C6088 C 0.46577 0.9152 0.50351 0.0
H6089 H 0.45699 0.88175 0.53682 0.0
C6090 C 0.47466 0.94017 0.52449 0.0
C6091 C 0.46024 0.89441 0.50948 0.0
C6092 C 0.44744 0.86657 0.48966 0.0
C6093 C 0.47384 0.94326 0.54784 0.0
C6094 C 0.46547 0.92133 0.55145 0.0
C6095 C 0.46224 0.89839 0.53369 0.0
C6096 C 0.4546 0.91903 0.56938 0.0
C6097 C 0.48171 0.96994 0.56823 0.0
C6098 C 0.45852 0.90425 0.58163 0.0
C6099 C 0.44342 0.89643 0.5928 0.0
C6100 C 0.42411 0.90333 0.59237 0.0
C6101 C 0.42024 0.91822 0.58046 0.0
C6102 C 0.43555 0.92628 0.56949 0.0
H6103 H 0.49994 0.98495 0.57133 0.0
H6104 H 0.46601 0.97464 0.56112 0.0
H6105 H 0.4852 0.97112 0.58733 0.0
H6106 H 0.47291 0.89813 0.58201 0.0
H6107 H 0.44703 0.88514 0.60203 0.0
H6108 H 0.6152 0.5101 0.00057 0.0
H6109 H 0.65494 0.53901 0.00338 0.0
H6110 H 0.66615 0.47345 0.97209 0.0
H6111 H 0.62796 0.44512 0.9716 0.0
H6112 H 0.69701 0.54664 0.03911 0.0
H6113 H 0.70414 0.5165 0.94979 0.0
H6114 H 0.67279 0.50663 0.94854 0.0
H6115 H 0.68922 0.48818 0.95235 0.0
C6116 C 0.62577 0.50169 0.99353 0.0
C6117 C 0.61924 0.47564 0.98676 0.0
C6118 C 0.64848 0.51827 0.99513 0.0
C6119 C 0.6644 0.50872 0.98923 0.0
C6120 C 0.65505 0.48163 0.97795 0.0
H6121 H 0.8236 0.54741 0.05458 0.0
H6122 H 0.77572 0.52824 0.03305 0.0
C6123 C 0.63309 0.46532 0.97749 0.0
C6124 C 0.69282 0.52695 0.00104 0.0
H6125 H 0.7442 0.53447 0.99022 0.0
C6126 C 0.70727 0.54446 0.02825 0.0
C6127 C 0.70638 0.52442 0.98707 0.0
C6128 C 0.69221 0.50812 0.95774 0.0
C6129 C 0.73478 0.55787 0.04201 0.0
C6130 C 0.74818 0.55366 0.02816 0.0
C6131 C 0.73387 0.53734 0.00085 0.0
C6132 C 0.77699 0.56536 0.04169 0.0
C6133 C 0.74922 0.5754 0.07139 0.0
C6134 C 0.79347 0.59254 0.05456 0.0
C6135 C 0.82066 0.60327 0.06663 0.0
C6136 C 0.83173 0.58699 0.06447 0.0
C6137 C 0.81535 0.56012 0.05409 0.0
C6138 C 0.78811 0.54923 0.04207 0.0
H6139 H 0.73592 0.57248 0.07964 0.0
H6140 H 0.76505 0.57181 0.08108 0.0
H6141 H 0.75844 0.5962 0.07627 0.0
H6142 H 0.78535 0.60547 0.05547 0.0
H6143 H 0.83281 0.62424 0.07842 0.0
H6144 H 0.82739 0.36483 0.33678 0.0
H6145 H 0.8386 0.40465 0.33434 0.0
H6146 H 0.86953 0.44771 0.41714 0.0
H6147 H 0.87055 0.40979 0.42079 0.0
H6148 H 0.90531 0.4697 0.39029 0.0
H6149 H 0.81299 0.4221 0.33648 0.0
H6150 H 0.80484 0.4466 0.33633 0.0
H6151 H 0.80881 0.43928 0.36267 0.0
C6152 C 0.83954 0.38323 0.35482 0.0
C6153 C 0.85152 0.3843 0.3789 0.0
C6154 C 0.84453 0.40611 0.35334 0.0
C6155 C 0.85685 0.43029 0.37612 0.0
C6156 C 0.86201 0.42991 0.39971 0.0
H6157 H 0.91052 0.58284 0.37733 0.0
H6158 H 0.9072 0.54084 0.37122 0.0
C6159 C 0.86171 0.40789 0.40164 0.0
C6160 C 0.86386 0.45562 0.37546 0.0
H6161 H 0.83683 0.49062 0.35811 0.0
C6162 C 0.89021 0.4747 0.38615 0.0
C6163 C 0.84445 0.46136 0.36436 0.0
C6164 C 0.81611 0.44124 0.34915 0.0
C6165 C 0.8975 0.50052 0.39092 0.0
C6166 C 0.87763 0.50666 0.38222 0.0
C6167 C 0.8516 0.48641 0.36728 0.0
C6168 C 0.88251 0.53362 0.3884 0.0
C6169 C 0.9262 0.52109 0.40603 0.0
C6170 C 0.869 0.54336 0.39924 0.0
C6171 C 0.86977 0.56664 0.40139 0.0
C6172 C 0.88469 0.58104 0.39356 0.0
C6173 C 0.89915 0.5721 0.38383 0.0
C6174 C 0.8976 0.54827 0.38072 0.0
H6175 H 0.93915 0.5136 0.41348 0.0
H6176 H 0.93181 0.52788 0.39351 0.0
H6177 H 0.93003 0.53852 0.42274 0.0
H6178 H 0.85707 0.53242 0.40519 0.0
H6179 H 0.85853 0.57333 0.40888 0.0
H6180 H 0.8458 0.54731 0.72979 0.0
H6181 H 0.84354 0.5325 0.68736 0.0
H6182 H 0.78161 0.5496 0.65933 0.0
H6183 H 0.78534 0.56634 0.70256 0.0
H6184 H 0.80523 0.4916 0.64563 0.0
H6185 H 0.81841 0.57211 0.62386 0.0
H6186 H 0.82624 0.57717 0.65628 0.0
H6187 H 0.79302 0.56507 0.63215 0.0
C6188 C 0.83267 0.54924 0.71503 0.0
C6189 C 0.8159 0.55825 0.71965 0.0
C6190 C 0.8311 0.54035 0.69055 0.0
C6191 C 0.81238 0.53981 0.66985 0.0
C6192 C 0.7967 0.55033 0.67495 0.0
H6193 H 0.74535 0.46444 0.50034 0.0
H6194 H 0.75263 0.48341 0.54515 0.0
C6195 C 0.79878 0.55991 0.69977 0.0
C6196 C 0.80722 0.52548 0.64252 0.0
H6197 H 0.7962 0.52893 0.58665 0.0
C6198 C 0.80339 0.49988 0.63283 0.0
C6199 C 0.80512 0.53621 0.62569 0.0
C6200 C 0.81122 0.56425 0.63516 0.0
C6201 C 0.79662 0.48448 0.60677 0.0
C6202 C 0.79356 0.49491 0.58971 0.0
C6203 C 0.7979 0.52065 0.59949 0.0
C6204 C 0.78697 0.48006 0.56198 0.0
C6205 C 0.79235 0.45702 0.59774 0.0
C6206 C 0.80337 0.47124 0.5563 0.0
C6207 C 0.79894 0.45998 0.5307 0.0
C6208 C 0.77833 0.45774 0.51008 0.0
C6209 C 0.76134 0.46574 0.51562 0.0
C6210 C 0.76558 0.47673 0.54129 0.0
H6211 H 0.78759 0.44933 0.61022 0.0
H6212 H 0.77632 0.44333 0.57706 0.0
H6213 H 0.81066 0.45727 0.59916 0.0
H6214 H 0.82043 0.47419 0.57187 0.0
H6215 H 0.81287 0.45471 0.52761 0.0
H6216 H 0.98296 0.78947 0.82796 0.0
H6217 H 0.96534 0.74307 0.81265 0.0
H6218 H 0.89328 0.73654 0.80989 0.0
H6219 H 0.91102 0.78338 0.82405 0.0
H6220 H 0.95539 0.71776 0.83364 0.0
H6221 H 0.86075 0.67279 0.74421 0.0
H6222 H 0.88428 0.70727 0.76134 0.0
H6223 H 0.86184 0.69494 0.7721 0.0
C6224 C 0.96327 0.77826 0.82409 0.0
C6225 C 0.94833 0.79033 0.82776 0.0
C6226 C 0.95317 0.75151 0.8153 0.0
C6227 C 0.92787 0.73586 0.81012 0.0
C6228 C 0.91281 0.74783 0.8136 0.0
H6229 H 0.8483 0.58348 0.79141 0.0
H6230 H 0.8603 0.62501 0.79152 0.0
C6231 C 0.92296 0.77474 0.82216 0.0
C6232 C 0.91856 0.70772 0.80297 0.0
H6233 H 0.86669 0.64502 0.76166 0.0
C6234 C 0.93606 0.7019 0.81757 0.0
C6235 C 0.89341 0.68669 0.782 0.0
C6236 C 0.87415 0.69073 0.76387 0.0
C6237 C 0.92928 0.67617 0.81227 0.0
C6238 C 0.9037 0.65524 0.79207 0.0
C6239 C 0.88618 0.66094 0.77729 0.0
C6240 C 0.894 0.6278 0.78724 0.0
C6241 C 0.95009 0.67261 0.8291 0.0
C6242 C 0.90753 0.61431 0.78272 0.0
C6243 C 0.90039 0.59039 0.78249 0.0
C6244 C 0.87896 0.57898 0.78577 0.0
C6245 C 0.86432 0.59143 0.7881 0.0
C6246 C 0.8715 0.61541 0.78856 0.0
H6247 H 0.96514 0.67505 0.82298 0.0
H6248 H 0.96014 0.68805 0.84994 0.0
H6249 H 0.94263 0.65343 0.82807 0.0
H6250 H 0.9244 0.62288 0.78064 0.0
H6251 H 0.91192 0.58102 0.78019 0.0
H6252 H 0.40039 0.43767 0.87554 0.0
H6253 H 0.44642 0.46472 0.89019 0.0
H6254 H 0.46785 0.43666 0.94422 0.0
H6255 H 0.42249 0.41219 0.93124 0.0
H6256 H 0.48447 0.47461 0.8926 0.0
H6257 H 0.53451 0.49597 0.98251 0.0
H6258 H 0.51954 0.46472 0.97913 0.0
H6259 H 0.50044 0.48055 0.97266 0.0
C6260 C 0.41512 0.43798 0.89113 0.0
C6261 C 0.40743 0.42195 0.9016 0.0
C6262 C 0.44194 0.45363 0.89969 0.0
C6263 C 0.46212 0.45339 0.91868 0.0
C6264 C 0.45399 0.43846 0.93009 0.0
H6265 H 0.59345 0.42937 0.92602 0.0
H6266 H 0.56824 0.44625 0.94132 0.0
C6267 C 0.42743 0.4236 0.92211 0.0
C6268 C 0.4901 0.46391 0.92293 0.0
H6269 H 0.54289 0.45779 0.95198 0.0
C6270 C 0.49647 0.47002 0.90525 0.0
C6271 C 0.51047 0.46478 0.9427 0.0
C6272 C 0.51599 0.4768 0.97057 0.0
C6273 C 0.51834 0.46977 0.90317 0.0
C6274 C 0.53167 0.45916 0.91579 0.0
C6275 C 0.52943 0.45988 0.9378 0.0
C6276 C 0.54784 0.44837 0.9068 0.0
C6277 C 0.52863 0.4839 0.89034 0.0
C6278 C 0.5444 0.44132 0.88137 0.0
C6279 C 0.55992 0.4328 0.87328 0.0
C6280 C 0.57833 0.42897 0.88935 0.0
C6281 C 0.58016 0.43311 0.91357 0.0
C6282 C 0.56547 0.44297 0.92232 0.0
H6283 H 0.52885 0.50284 0.89721 0.0
H6284 H 0.54905 0.48857 0.89545 0.0
H6285 H 0.51552 0.47207 0.86876 0.0
H6286 H 0.52956 0.44209 0.86717 0.0
H6287 H 0.55719 0.42871 0.85404 0.0
loop_
_geom_bond_atom_site_label_1
_geom_bond_atom_site_label_2
_geom_bond_distance
_geom_bond_site_symmetry_2
_ccdc_geom_bond_type
Co0 O2 2.143 1_455 S
Co0 O8 2.074 . S
Co0 O11 2.093 1_455 S
Co0 O24 2.097 1_455 S
Co0 N41 2.151 . S
Co0 N49 2.214 . S
Co1 O2 2.160 . S
Co1 O7 2.058 1_655 S
Co1 O17 2.057 . S
Co1 O32 2.037 . S
Co1 N36 2.145 . S
Co1 N57 2.257 . S
O2 Co0 2.143 1_655 S
O2 Co1 2.160 . S
C3 O4 1.278 . S
C3 O11 1.224 . S
O4 C3 1.278 . S
C5 O6 1.245 . S
C5 O17 1.232 . S
O6 C5 1.245 . S
O7 Co1 2.058 1_455 S
O7 C33 1.269 . S
O8 Co0 2.074 . S
O8 C33 1.257 . S
H9 C34 0.930 1_455 S
H10 C40 0.930 . S
O11 Co0 2.093 1_655 S
O11 C3 1.224 . S
H12 C44 0.929 . S
H13 C46 0.930 . S
H14 C47 0.930 . S
H15 C45 0.929 . S
H16 C48 0.928 . S
O17 Co1 2.057 . S
O17 C5 1.232 . S
H18 C37 0.929 1_455 S
H19 C38 0.930 . S
H20 C50 0.931 . S
H21 C42 0.929 . S
H22 C51 0.930 . S
H23 C43 0.931 . S
O24 Co0 2.097 1_655 S
O24 C52 1.214 . S
H25 C53 0.929 . S
H26 C54 0.929 . S
H27 C55 0.931 1_565 S
H28 C56 0.929 . S
H29 C58 0.930 . S
H30 C35 0.930 . S
H31 C39 0.930 . S
O32 Co1 2.037 . S
O32 C52 1.234 . S
C33 O7 1.269 . S
C33 O8 1.257 . S
C34 H9 0.930 1_655 S
C34 C37 1.388 1_565 S
C34 C39 1.418 . S
C35 H30 0.930 . S
C35 C38 1.403 1_565 S
C35 C39 1.353 . S
N36 Co1 2.145 . S
N36 C37 1.397 . S
N36 C38 1.334 . S
C37 H18 0.929 1_655 S
C37 C34 1.388 1_545 S
C37 N36 1.397 . S
C38 H19 0.930 . S
C38 C35 1.403 1_545 S
C38 N36 1.334 . S
C39 H31 0.930 . S
C39 C34 1.418 . S
C39 C35 1.353 . S
C40 H10 0.930 . S
C40 N41 1.330 . S
C40 C42 1.446 . S
N41 Co0 2.151 . S
N41 C40 1.330 . S
N41 C45 1.418 . S
C42 H21 0.929 . S
C42 C40 1.446 . S
C42 C43 1.332 . S
C43 H23 0.931 . S
C43 C42 1.332 . S
C43 C44 1.267 . S
C44 H12 0.929 . S
C44 C43 1.267 . S
C44 C45 1.251 . S
C45 H15 0.929 . S
C45 N41 1.418 . S
C45 C44 1.251 . S
C46 H13 0.930 . S
C46 C48 1.406 . S
C46 C51 1.261 . S
C47 H14 0.930 . S
C47 N49 1.325 . S
C47 C50 1.357 . S
C48 H16 0.928 . S
C48 C46 1.406 . S
C48 N49 1.261 . S
N49 Co0 2.214 . S
N49 C47 1.325 . S
N49 C48 1.261 . S
C50 H20 0.931 . S
C50 C47 1.357 . S
C50 C51 1.312 . S
C51 H22 0.930 . S
C51 C46 1.261 . S
C51 C50 1.312 . S
C52 O24 1.214 . S
C52 O32 1.234 . S
C53 H25 0.929 . S
C53 C56 1.391 . S
C53 C58 1.391 . S
C54 H26 0.929 . S
C54 C55 1.390 . S
C54 N57 1.391 . S
C55 H27 0.931 1_545 S
C55 C54 1.390 . S
C55 C56 1.390 . S
C56 H28 0.929 . S
C56 C53 1.391 . S
C56 C55 1.390 . S
N57 Co1 2.257 . S
N57 C54 1.391 . S
N57 C58 1.388 . S
C58 H29 0.930 . S
C58 C53 1.391 . S
C58 N57 1.388 . S
Co59 O61 2.143 1_455 S
Co59 O67 2.074 . S
Co59 O70 2.093 1_455 S
Co59 O83 2.097 1_455 S
Co59 N100 2.151 . S
Co59 N108 2.214 . S
Co60 O61 2.160 . S
Co60 O66 2.058 1_655 S
Co60 O76 2.057 . S
Co60 O91 2.037 . S
Co60 N95 2.145 . S
Co60 N116 2.257 . S
O61 Co59 2.143 1_655 S
O61 Co60 2.160 . S
C62 O63 1.278 . S
C62 O70 1.224 . S
O63 C62 1.278 . S
C64 O65 1.238 . S
C64 O76 1.232 . S
O65 C64 1.238 . S
O66 Co60 2.058 1_455 S
O66 C92 1.269 . S
O67 Co59 2.074 . S
O67 C92 1.257 . S
H68 C93 0.930 . S
H69 C99 0.930 . S
O70 Co59 2.093 1_655 S
O70 C62 1.224 . S
H71 C103 0.929 . S
H72 C105 0.930 . S
H73 C106 0.930 . S
H74 C104 0.929 . S
H75 C107 0.928 . S
O76 Co60 2.057 . S
O76 C64 1.232 . S
H77 C96 0.929 1_455 S
H78 C97 0.929 . S
H79 C109 0.931 . S
H80 C101 0.929 . S
H81 C110 0.930 . S
H82 C102 0.931 . S
O83 Co59 2.097 1_655 S
O83 C111 1.214 . S
H84 C112 0.929 . S
H85 C113 0.929 . S
H86 C114 0.930 . S
H87 C115 0.929 . S
H88 C117 0.930 . S
H89 C94 0.930 . S
H90 C98 0.930 . S
O91 Co60 2.037 . S
O91 C111 1.234 . S
C92 O66 1.269 . S
C92 O67 1.257 . S
C93 H68 0.930 . S
C93 C96 1.388 . S
C93 C98 1.418 . S
C94 H89 0.930 . S
C94 C97 1.404 . S
C94 C98 1.353 . S
N95 Co60 2.145 . S
N95 C96 1.397 . S
N95 C97 1.334 . S
C96 H77 0.929 1_655 S
C96 C93 1.388 . S
C96 N95 1.397 . S
C97 H78 0.929 . S
C97 C94 1.404 . S
C97 N95 1.334 . S
C98 H90 0.930 . S
C98 C93 1.418 . S
C98 C94 1.353 . S
C99 H69 0.930 . S
C99 N100 1.330 . S
C99 C101 1.446 . S
N100 Co59 2.151 . S
N100 C99 1.330 . S
N100 C104 1.418 . S
C101 H80 0.929 . S
C101 C99 1.446 . S
C101 C102 1.332 . S
C102 H82 0.931 . S
C102 C101 1.332 . S
C102 C103 1.267 . S
C103 H71 0.929 . S
C103 C102 1.267 . S
C103 C104 1.251 . S
C104 H74 0.929 . S
C104 N100 1.418 . S
C104 C103 1.251 . S
C105 H72 0.930 . S
C105 C107 1.406 . S
C105 C110 1.261 . S
C106 H73 0.930 . S
C106 N108 1.325 . S
C106 C109 1.357 . S
C107 H75 0.928 . S
C107 C105 1.406 . S
C107 N108 1.261 . S
N108 Co59 2.214 . S
N108 C106 1.325 . S
N108 C107 1.261 . S
C109 H79 0.931 . S
C109 C106 1.357 . S
C109 C110 1.312 . S
C110 H81 0.930 . S
C110 C105 1.261 . S
C110 C109 1.312 . S
C111 O83 1.214 . S
C111 O91 1.234 . S
C112 H84 0.929 . S
C112 C115 1.391 . S
C112 C117 1.391 . S
C113 H85 0.929 . S
C113 C114 1.390 . S
C113 N116 1.391 . S
C114 H86 0.930 . S
C114 C113 1.390 . S
C114 C115 1.392 . S
C115 H87 0.929 . S
C115 C112 1.391 . S
C115 C114 1.392 . S
N116 Co60 2.257 . S
N116 C113 1.391 . S
N116 C117 1.388 . S
C117 H88 0.930 . S
C117 C112 1.391 . S
C117 N116 1.388 . S
Co118 O120 2.143 . S
Co118 O126 2.074 . S
Co118 O129 2.093 . S
Co118 O142 2.097 . S
Co118 N159 2.151 . S
Co118 N167 2.214 . S
Co119 O120 2.160 . S
Co119 O125 2.058 . S
Co119 O135 2.057 . S
Co119 O150 2.037 . S
Co119 N154 2.145 . S
Co119 N175 2.257 . S
O120 Co118 2.143 . S
O120 Co119 2.160 . S
C121 O122 1.278 . S
C121 O129 1.224 . S
O122 C121 1.278 . S
C123 O124 1.245 . S
C123 O135 1.232 . S
O124 C123 1.245 . S
O125 Co119 2.058 . S
O125 C151 1.269 . S
O126 Co118 2.074 . S
O126 C151 1.257 . S
H127 C152 0.930 . S
H128 C158 0.930 . S
O129 Co118 2.093 . S
O129 C121 1.224 . S
H130 C162 0.929 . S
H131 C164 0.930 . S
H132 C165 0.930 . S
H133 C163 0.929 . S
H134 C166 0.928 . S
O135 Co119 2.057 . S
O135 C123 1.232 . S
H136 C155 0.929 . S
H137 C156 0.929 . S
H138 C168 0.931 . S
H139 C160 0.929 . S
H140 C169 0.930 . S
H141 C161 0.931 . S
O142 Co118 2.097 . S
O142 C170 1.214 . S
H143 C171 0.929 . S
H144 C172 0.929 . S
H145 C173 0.930 . S
H146 C174 0.929 . S
H147 C176 0.930 . S
H148 C153 0.930 . S
H149 C157 0.930 . S
O150 Co119 2.037 . S
O150 C170 1.234 . S
C151 O125 1.269 . S
C151 O126 1.257 . S
C152 H127 0.930 . S
C152 C155 1.388 . S
C152 C157 1.418 . S
C153 H148 0.930 . S
C153 C156 1.404 . S
C153 C157 1.353 . S
N154 Co119 2.145 . S
N154 C155 1.397 . S
N154 C156 1.334 . S
C155 H136 0.929 . S
C155 C152 1.388 . S
C155 N154 1.397 . S
C156 H137 0.929 . S
C156 C153 1.404 . S
C156 N154 1.334 . S
C157 H149 0.930 . S
C157 C152 1.418 . S
C157 C153 1.353 . S
C158 H128 0.930 . S
C158 N159 1.330 . S
C158 C160 1.446 . S
N159 Co118 2.151 . S
N159 C158 1.330 . S
N159 C163 1.418 . S
C160 H139 0.929 . S
C160 C158 1.446 . S
C160 C161 1.332 . S
C161 H141 0.931 . S
C161 C160 1.332 . S
C161 C162 1.267 . S
C162 H130 0.929 . S
C162 C161 1.267 . S
C162 C163 1.251 . S
C163 H133 0.929 . S
C163 N159 1.418 . S
C163 C162 1.251 . S
C164 H131 0.930 . S
C164 C166 1.406 . S
C164 C169 1.261 . S
C165 H132 0.930 . S
C165 N167 1.325 . S
C165 C168 1.357 . S
C166 H134 0.928 . S
C166 C164 1.406 . S
C166 N167 1.261 . S
N167 Co118 2.214 . S
N167 C165 1.325 . S
N167 C166 1.261 . S
C168 H138 0.931 . S
C168 C165 1.357 . S
C168 C169 1.312 . S
C169 H140 0.930 . S
C169 C164 1.261 . S
C169 C168 1.312 . S
C170 O142 1.214 . S
C170 O150 1.234 . S
C171 H143 0.929 . S
C171 C174 1.391 . S
C171 C176 1.391 . S
C172 H144 0.929 . S
C172 C173 1.390 . S
C172 N175 1.391 . S
C173 H145 0.930 . S
C173 C172 1.390 . S
C173 C174 1.392 . S
C174 H146 0.929 . S
C174 C171 1.391 . S
C174 C173 1.392 . S
N175 Co119 2.257 . S
N175 C172 1.391 . S
N175 C176 1.388 . S
C176 H147 0.930 . S
C176 C171 1.391 . S
C176 N175 1.388 . S
Co177 O179 2.143 . S
Co177 O185 2.074 . S
Co177 O188 2.093 . S
Co177 O201 2.097 . S
Co177 N218 2.151 . S
Co177 N226 2.214 . S
Co178 O179 2.160 . S
Co178 O184 2.058 . S
Co178 O194 2.057 . S
Co178 O209 2.037 . S
Co178 N213 2.145 . S
Co178 N234 2.257 . S
O179 Co177 2.143 . S
O179 Co178 2.160 . S
C180 O181 1.278 . S
C180 O188 1.224 . S
O181 C180 1.278 . S
C182 O183 1.245 . S
C182 O194 1.232 . S
O183 C182 1.245 . S
O184 Co178 2.058 . S
O184 C210 1.269 . S
O185 Co177 2.074 . S
O185 C210 1.257 . S
H186 C211 0.930 . S
H187 C217 0.930 . S
O188 Co177 2.093 . S
O188 C180 1.224 . S
H189 C221 0.929 . S
H190 C223 0.930 . S
H191 C224 0.930 . S
H192 C222 0.929 . S
H193 C225 0.928 . S
O194 Co178 2.057 . S
O194 C182 1.232 . S
H195 C214 0.929 . S
H196 C215 0.929 . S
H197 C227 0.931 . S
H198 C219 0.929 . S
H199 C228 0.930 . S
H200 C220 0.931 . S
O201 Co177 2.097 . S
O201 C229 1.214 . S
H202 C230 0.929 . S
H203 C231 0.929 . S
H204 C232 0.930 . S
H205 C233 0.929 . S
H206 C235 0.930 . S
H207 C212 0.930 . S
H208 C216 0.930 . S
O209 Co178 2.037 . S
O209 C229 1.234 . S
C210 O184 1.269 . S
C210 O185 1.257 . S
C211 H186 0.930 . S
C211 C214 1.388 . S
C211 C216 1.418 . S
C212 H207 0.930 . S
C212 C215 1.404 . S
C212 C216 1.353 . S
N213 Co178 2.145 . S
N213 C214 1.397 . S
N213 C215 1.334 . S
C214 H195 0.929 . S
C214 C211 1.388 . S
C214 N213 1.397 . S
C215 H196 0.929 . S
C215 C212 1.404 . S
C215 N213 1.334 . S
C216 H208 0.930 . S
C216 C211 1.418 . S
C216 C212 1.353 . S
C217 H187 0.930 . S
C217 N218 1.330 . S
C217 C219 1.446 . S
N218 Co177 2.151 . S
N218 C217 1.330 . S
N218 C222 1.418 . S
C219 H198 0.929 . S
C219 C217 1.446 . S
C219 C220 1.332 . S
C220 H200 0.931 . S
C220 C219 1.332 . S
C220 C221 1.267 . S
C221 H189 0.929 . S
C221 C220 1.267 . S
C221 C222 1.251 . S
C222 H192 0.929 . S
C222 N218 1.418 . S
C222 C221 1.251 . S
C223 H190 0.930 . S
C223 C225 1.406 . S
C223 C228 1.261 . S
C224 H191 0.930 . S
C224 N226 1.325 . S
C224 C227 1.357 . S
C225 H193 0.928 . S
C225 C223 1.406 . S
C225 N226 1.261 . S
N226 Co177 2.214 . S
N226 C224 1.325 . S
N226 C225 1.261 . S
C227 H197 0.931 . S
C227 C224 1.357 . S
C227 C228 1.312 . S
C228 H199 0.930 . S
C228 C223 1.261 . S
C228 C227 1.312 . S
C229 O201 1.214 . S
C229 O209 1.234 . S
C230 H202 0.929 . S
C230 C233 1.391 . S
C230 C235 1.391 . S
C231 H203 0.929 . S
C231 C232 1.390 . S
C231 N234 1.391 . S
C232 H204 0.930 . S
C232 C231 1.390 . S
C232 C233 1.392 . S
C233 H205 0.929 . S
C233 C230 1.391 . S
C233 C232 1.392 . S
N234 Co178 2.257 . S
N234 C231 1.391 . S
N234 C235 1.388 . S
C235 H206 0.930 . S
C235 C230 1.391 . S
C235 N234 1.388 . S
Co236 O238 2.143 . S
Co236 O244 2.091 . S
Co236 O247 2.093 . S
Co236 O260 2.097 . S
Co236 N277 2.151 . S
Co236 N285 2.214 . S
Co237 O238 2.160 1_455 S
Co237 O243 2.058 . S
Co237 O253 2.057 . S
Co237 O268 2.037 . S
Co237 N272 2.145 . S
Co237 N293 2.257 . S
O238 Co236 2.143 . S
O238 Co237 2.160 1_655 S
C239 O240 1.278 . S
C239 O247 1.224 . S
O240 C239 1.278 . S
C241 O242 1.230 1_455 S
C241 O253 1.232 . S
O242 C241 1.230 1_655 S
O243 Co237 2.058 . S
O243 C269 1.269 . S
O244 Co236 2.091 . S
O244 C269 1.242 1_655 S
H245 C270 0.930 . S
H246 C276 0.930 . S
O247 Co236 2.093 . S
O247 C239 1.224 . S
H248 C280 0.929 . S
H249 C282 0.930 . S
H250 C283 0.930 . S
H251 C281 0.929 . S
H252 C284 0.928 . S
O253 Co237 2.057 . S
O253 C241 1.232 . S
H254 C273 0.929 . S
H255 C274 0.929 . S
H256 C286 0.931 . S
H257 C278 0.929 . S
H258 C287 0.930 . S
H259 C279 0.931 . S
O260 Co236 2.097 . S
O260 C288 1.214 1_655 S
H261 C289 0.929 . S
H262 C290 0.929 . S
H263 C291 0.930 . S
H264 C292 0.929 . S
H265 C294 0.930 . S
H266 C271 0.930 . S
H267 C275 0.930 . S
O268 Co237 2.037 . S
O268 C288 1.234 . S
C269 O243 1.269 . S
C269 O244 1.242 1_455 S
C270 H245 0.930 . S
C270 C273 1.388 . S
C270 C275 1.418 . S
C271 H266 0.930 . S
C271 C274 1.404 . S
C271 C275 1.353 . S
N272 Co237 2.145 . S
N272 C273 1.397 . S
N272 C274 1.334 . S
C273 H254 0.929 . S
C273 C270 1.388 . S
C273 N272 1.397 . S
C274 H255 0.929 . S
C274 C271 1.404 . S
C274 N272 1.334 . S
C275 H267 0.930 . S
C275 C270 1.418 . S
C275 C271 1.353 . S
C276 H246 0.930 . S
C276 N277 1.330 . S
C276 C278 1.446 . S
N277 Co236 2.151 . S
N277 C276 1.330 . S
N277 C281 1.418 . S
C278 H257 0.929 . S
C278 C276 1.446 . S
C278 C279 1.332 . S
C279 H259 0.931 . S
C279 C278 1.332 . S
C279 C280 1.267 . S
C280 H248 0.929 . S
C280 C279 1.267 . S
C280 C281 1.251 . S
C281 H251 0.929 . S
C281 N277 1.418 . S
C281 C280 1.251 . S
C282 H249 0.930 . S
C282 C284 1.406 . S
C282 C287 1.261 . S
C283 H250 0.930 . S
C283 N285 1.325 . S
C283 C286 1.357 . S
C284 H252 0.928 . S
C284 C282 1.406 . S
C284 N285 1.261 . S
N285 Co236 2.214 . S
N285 C283 1.325 . S
N285 C284 1.261 . S
C286 H256 0.931 . S
C286 C283 1.357 . S
C286 C287 1.312 . S
C287 H258 0.930 . S
C287 C282 1.261 . S
C287 C286 1.312 . S
C288 O260 1.214 1_455 S
C288 O268 1.234 . S
C289 H261 0.929 . S
C289 C292 1.391 . S
C289 C294 1.391 . S
C290 H262 0.929 . S
C290 C291 1.390 . S
C290 N293 1.391 . S
C291 H263 0.930 . S
C291 C290 1.390 . S
C291 C292 1.392 . S
C292 H264 0.929 . S
C292 C289 1.391 . S
C292 C291 1.392 . S
N293 Co237 2.257 . S
N293 C290 1.391 . S
N293 C294 1.388 . S
C294 H265 0.930 . S
C294 C289 1.391 . S
C294 N293 1.388 . S
Co295 O297 2.143 . S
Co295 O303 2.074 . S
Co295 O306 2.093 . S
Co295 O319 2.097 . S
Co295 N336 2.151 . S
Co295 N344 2.214 . S
Co296 O297 2.160 . S
Co296 O302 2.058 . S
Co296 O312 2.057 . S
Co296 O327 2.037 . S
Co296 N331 2.145 . S
Co296 N352 2.257 . S
O297 Co295 2.143 . S
O297 Co296 2.160 . S
C298 O299 1.278 . S
C298 O306 1.224 . S
O299 C298 1.278 . S
C300 O301 1.245 . S
C300 O312 1.232 . S
O301 C300 1.245 . S
O302 Co296 2.058 . S
O302 C328 1.269 . S
O303 Co295 2.074 . S
O303 C328 1.257 . S
H304 C329 0.930 . S
H305 C335 0.930 . S
O306 Co295 2.093 . S
O306 C298 1.224 . S
H307 C339 0.929 . S
H308 C341 0.930 . S
H309 C342 0.930 . S
H310 C340 0.929 . S
H311 C343 0.928 . S
O312 Co296 2.057 . S
O312 C300 1.232 . S
H313 C332 0.929 . S
H314 C333 0.929 . S
H315 C345 0.931 . S
H316 C337 0.929 . S
H317 C346 0.930 . S
H318 C338 0.931 . S
O319 Co295 2.097 . S
O319 C347 1.214 . S
H320 C348 0.929 . S
H321 C349 0.929 . S
H322 C350 0.930 . S
H323 C351 0.929 . S
H324 C353 0.930 . S
H325 C330 0.930 . S
H326 C334 0.930 . S
O327 Co296 2.037 . S
O327 C347 1.234 . S
C328 O302 1.269 . S
C328 O303 1.257 . S
C329 H304 0.930 . S
C329 C332 1.388 . S
C329 C334 1.418 . S
C330 H325 0.930 . S
C330 C333 1.404 . S
C330 C334 1.353 . S
N331 Co296 2.145 . S
N331 C332 1.397 . S
N331 C333 1.334 . S
C332 H313 0.929 . S
C332 C329 1.388 . S
C332 N331 1.397 . S
C333 H314 0.929 . S
C333 C330 1.404 . S
C333 N331 1.334 . S
C334 H326 0.930 . S
C334 C329 1.418 . S
C334 C330 1.353 . S
C335 H305 0.930 . S
C335 N336 1.330 . S
C335 C337 1.446 . S
N336 Co295 2.151 . S
N336 C335 1.330 . S
N336 C340 1.418 . S
C337 H316 0.929 . S
C337 C335 1.446 . S
C337 C338 1.332 . S
C338 H318 0.931 . S
C338 C337 1.332 . S
C338 C339 1.267 . S
C339 H307 0.929 . S
C339 C338 1.267 . S
C339 C340 1.251 . S
C340 H310 0.929 . S
C340 N336 1.418 . S
C340 C339 1.251 . S
C341 H308 0.930 . S
C341 C343 1.406 . S
C341 C346 1.261 . S
C342 H309 0.930 . S
C342 N344 1.325 . S
C342 C345 1.357 . S
C343 H311 0.928 . S
C343 C341 1.406 . S
C343 N344 1.261 . S
N344 Co295 2.214 . S
N344 C342 1.325 . S
N344 C343 1.261 . S
C345 H315 0.931 . S
C345 C342 1.357 . S
C345 C346 1.312 . S
C346 H317 0.930 . S
C346 C341 1.261 . S
C346 C345 1.312 . S
C347 O319 1.214 . S
C347 O327 1.234 . S
C348 H320 0.929 . S
C348 C351 1.391 . S
C348 C353 1.391 . S
C349 H321 0.929 . S
C349 C350 1.390 . S
C349 N352 1.391 . S
C350 H322 0.930 . S
C350 C349 1.390 . S
C350 C351 1.392 . S
C351 H323 0.929 . S
C351 C348 1.391 . S
C351 C350 1.392 . S
N352 Co296 2.257 . S
N352 C349 1.391 . S
N352 C353 1.388 . S
C353 H324 0.930 . S
C353 C348 1.391 . S
C353 N352 1.388 . S
Co354 O356 2.143 . S
Co354 O362 2.074 . S
Co354 O365 2.093 . S
Co354 O378 2.097 . S
Co354 N395 2.151 . S
Co354 N403 2.214 . S
Co355 O356 2.160 . S
Co355 O361 2.058 . S
Co355 O371 2.057 . S
Co355 O386 2.037 . S
Co355 N390 2.145 . S
Co355 N411 2.257 . S
O356 Co354 2.143 . S
O356 Co355 2.160 . S
C357 O358 1.278 . S
C357 O365 1.224 . S
O358 C357 1.278 . S
C359 O360 1.245 . S
C359 O371 1.232 . S
O360 C359 1.245 . S
O361 Co355 2.058 . S
O361 C387 1.269 . S
O362 Co354 2.074 . S
O362 C387 1.257 . S
H363 C388 0.930 . S
H364 C394 0.930 . S
O365 Co354 2.093 . S
O365 C357 1.224 . S
H366 C398 0.929 . S
H367 C400 0.930 . S
H368 C401 0.930 . S
H369 C399 0.929 . S
H370 C402 0.928 . S
O371 Co355 2.057 . S
O371 C359 1.232 . S
H372 C391 0.929 . S
H373 C392 0.929 . S
H374 C404 0.931 . S
H375 C396 0.929 . S
H376 C405 0.930 . S
H377 C397 0.931 . S
O378 Co354 2.097 . S
O378 C406 1.214 . S
H379 C407 0.929 . S
H380 C408 0.929 . S
H381 C409 0.930 . S
H382 C410 0.929 . S
H383 C412 0.930 . S
H384 C389 0.930 . S
H385 C393 0.930 . S
O386 Co355 2.037 . S
O386 C406 1.234 . S
C387 O361 1.269 . S
C387 O362 1.257 . S
C388 H363 0.930 . S
C388 C391 1.388 . S
C388 C393 1.418 . S
C389 H384 0.930 . S
C389 C392 1.404 . S
C389 C393 1.353 . S
N390 Co355 2.145 . S
N390 C391 1.397 . S
N390 C392 1.334 . S
C391 H372 0.929 . S
C391 C388 1.388 . S
C391 N390 1.397 . S
C392 H373 0.929 . S
C392 C389 1.404 . S
C392 N390 1.334 . S
C393 H385 0.930 . S
C393 C388 1.418 . S
C393 C389 1.353 . S
C394 H364 0.930 . S
C394 N395 1.330 . S
C394 C396 1.446 . S
N395 Co354 2.151 . S
N395 C394 1.330 . S
N395 C399 1.418 . S
C396 H375 0.929 . S
C396 C394 1.446 . S
C396 C397 1.332 . S
C397 H377 0.931 . S
C397 C396 1.332 . S
C397 C398 1.267 . S
C398 H366 0.929 . S
C398 C397 1.267 . S
C398 C399 1.251 . S
C399 H369 0.929 . S
C399 N395 1.418 . S
C399 C398 1.251 . S
C400 H367 0.930 . S
C400 C402 1.406 . S
C400 C405 1.261 . S
C401 H368 0.930 . S
C401 N403 1.325 . S
C401 C404 1.357 . S
C402 H370 0.928 . S
C402 C400 1.406 . S
C402 N403 1.261 . S
N403 Co354 2.214 . S
N403 C401 1.325 . S
N403 C402 1.261 . S
C404 H374 0.931 . S
C404 C401 1.357 . S
C404 C405 1.312 . S
C405 H376 0.930 . S
C405 C400 1.261 . S
C405 C404 1.312 . S
C406 O378 1.214 . S
C406 O386 1.234 . S
C407 H379 0.929 . S
C407 C410 1.391 . S
C407 C412 1.391 . S
C408 H380 0.929 . S
C408 C409 1.390 . S
C408 N411 1.391 . S
C409 H381 0.930 . S
C409 C408 1.390 . S
C409 C410 1.392 . S
C410 H382 0.929 . S
C410 C407 1.391 . S
C410 C409 1.392 . S
N411 Co355 2.257 . S
N411 C408 1.391 . S
N411 C412 1.388 . S
C412 H383 0.930 . S
C412 C407 1.391 . S
C412 N411 1.388 . S
Co413 O415 2.143 . S
Co413 O421 2.074 . S
Co413 O424 2.093 . S
Co413 O437 2.097 1_655 S
Co413 N454 2.151 . S
Co413 N462 2.214 . S
Co414 O415 2.160 1_455 S
Co414 O420 2.058 1_455 S
Co414 O430 2.057 . S
Co414 O445 2.037 . S
Co414 N449 2.145 . S
Co414 N470 2.257 . S
O415 Co413 2.143 . S
O415 Co414 2.160 1_655 S
C416 O417 1.278 1_655 S
C416 O424 1.224 . S
O417 C416 1.278 1_455 S
C418 O419 1.245 . S
C418 O430 1.232 1_655 S
O419 C418 1.245 . S
O420 Co414 2.058 1_655 S
O420 C446 1.269 . S
O421 Co413 2.074 . S
O421 C446 1.257 . S
H422 C447 0.930 . S
H423 C453 0.930 . S
O424 Co413 2.093 . S
O424 C416 1.224 . S
H425 C457 0.929 . S
H426 C459 0.930 . S
H427 C460 0.950 . S
H428 C458 0.929 . S
H429 C461 0.928 . S
O430 Co414 2.057 . S
O430 C418 1.232 1_455 S
H431 C450 0.929 . S
H432 C451 0.929 . S
H433 C463 0.931 . S
H434 C455 0.929 . S
H435 C464 0.930 . S
H436 C456 0.931 . S
O437 Co413 2.097 1_455 S
O437 C465 1.214 . S
H438 C466 0.929 . S
H439 C467 0.929 . S
H440 C468 0.930 . S
H441 C469 0.929 . S
H442 C471 0.930 . S
H443 C448 0.930 . S
H444 C452 0.930 . S
O445 Co414 2.037 . S
O445 C465 1.234 . S
C446 O420 1.269 . S
C446 O421 1.257 . S
C447 H422 0.930 . S
C447 C450 1.388 . S
C447 C452 1.418 . S
C448 H443 0.930 . S
C448 C451 1.404 . S
C448 C452 1.353 . S
N449 Co414 2.145 . S
N449 C450 1.397 . S
N449 C451 1.334 . S
C450 H431 0.929 . S
C450 C447 1.388 . S
C450 N449 1.397 . S
C451 H432 0.929 . S
C451 C448 1.404 . S
C451 N449 1.334 . S
C452 H444 0.930 . S
C452 C447 1.418 . S
C452 C448 1.353 . S
C453 H423 0.930 . S
C453 N454 1.330 . S
C453 C455 1.446 . S
N454 Co413 2.151 . S
N454 C453 1.330 . S
N454 C458 1.418 . S
C455 H434 0.929 . S
C455 C453 1.446 . S
C455 C456 1.332 . S
C456 H436 0.931 . S
C456 C455 1.332 . S
C456 C457 1.267 . S
C457 H425 0.929 . S
C457 C456 1.267 . S
C457 C458 1.251 . S
C458 H428 0.929 . S
C458 N454 1.418 . S
C458 C457 1.251 . S
C459 H426 0.930 . S
C459 C461 1.406 . S
C459 C464 1.261 . S
C460 H427 0.950 . S
C460 N462 1.325 . S
C460 C463 1.357 . S
C461 H429 0.928 . S
C461 C459 1.406 . S
C461 N462 1.261 . S
N462 Co413 2.214 . S
N462 C460 1.325 . S
N462 C461 1.261 . S
C463 H433 0.931 . S
C463 C460 1.357 . S
C463 C464 1.312 . S
C464 H435 0.930 . S
C464 C459 1.261 . S
C464 C463 1.312 . S
C465 O437 1.214 . S
C465 O445 1.234 . S
C466 H438 0.929 . S
C466 C469 1.391 . S
C466 C471 1.391 . S
C467 H439 0.929 . S
C467 C468 1.390 . S
C467 N470 1.391 . S
C468 H440 0.930 . S
C468 C467 1.390 . S
C468 C469 1.392 . S
C469 H441 0.929 . S
C469 C466 1.391 . S
C469 C468 1.392 . S
N470 Co414 2.257 . S
N470 C467 1.391 . S
N470 C471 1.388 . S
C471 H442 0.930 . S
C471 C466 1.391 . S
C471 N470 1.388 . S
Co472 O474 2.143 1_545 S
Co472 O480 2.074 . S
Co472 O483 2.093 1_545 S
Co472 O496 2.097 1_545 S
Co472 N513 2.151 . S
Co472 N521 2.214 . S
Co473 O474 2.160 . S
Co473 O479 2.058 1_565 S
Co473 O489 2.057 . S
Co473 O504 2.037 . S
Co473 N508 2.145 . S
Co473 N529 2.257 . S
O474 Co472 2.143 1_565 S
O474 Co473 2.160 . S
C475 O476 1.278 . S
C475 O483 1.224 . S
O476 C475 1.278 . S
C477 O478 1.245 . S
C477 O489 1.232 . S
O478 C477 1.245 . S
O479 Co473 2.058 1_545 S
O479 C505 1.269 . S
O480 Co472 2.074 . S
O480 C505 1.257 . S
H481 C506 0.930 1_545 S
H482 C512 0.930 . S
O483 Co472 2.093 1_565 S
O483 C475 1.224 . S
H484 C516 0.929 . S
H485 C518 0.930 . S
H486 C519 0.930 . S
H487 C517 0.929 . S
H488 C520 0.928 . S
O489 Co473 2.057 . S
O489 C477 1.232 . S
H490 C509 0.929 1_545 S
H491 C510 0.930 . S
H492 C522 0.931 . S
H493 C514 0.929 . S
H494 C523 0.930 . S
H495 C515 0.931 . S
O496 Co472 2.097 1_565 S
O496 C524 1.214 . S
H497 C525 0.929 . S
H498 C526 0.929 . S
H499 C527 0.931 1_556 S
H500 C528 0.929 . S
H501 C530 0.930 . S
H502 C507 0.930 . S
H503 C511 0.930 . S
O504 Co473 2.037 . S
O504 C524 1.234 . S
C505 O479 1.269 . S
C505 O480 1.257 . S
C506 H481 0.930 1_565 S
C506 C509 1.388 1_556 S
C506 C511 1.418 . S
C507 H502 0.930 . S
C507 C510 1.403 1_556 S
C507 C511 1.353 . S
N508 Co473 2.145 . S
N508 C509 1.397 . S
N508 C510 1.334 . S
C509 H490 0.929 1_565 S
C509 C506 1.388 1_554 S
C509 N508 1.397 . S
C510 H491 0.930 . S
C510 C507 1.403 1_554 S
C510 N508 1.334 . S
C511 H503 0.930 . S
C511 C506 1.418 . S
C511 C507 1.353 . S
C512 H482 0.930 . S
C512 N513 1.330 . S
C512 C514 1.446 . S
N513 Co472 2.151 . S
N513 C512 1.330 . S
N513 C517 1.418 . S
C514 H493 0.929 . S
C514 C512 1.446 . S
C514 C515 1.332 . S
C515 H495 0.931 . S
C515 C514 1.332 . S
C515 C516 1.267 . S
C516 H484 0.929 . S
C516 C515 1.267 . S
C516 C517 1.251 . S
C517 H487 0.929 . S
C517 N513 1.418 . S
C517 C516 1.251 . S
C518 H485 0.930 . S
C518 C520 1.406 . S
C518 C523 1.261 . S
C519 H486 0.930 . S
C519 N521 1.325 . S
C519 C522 1.357 . S
C520 H488 0.928 . S
C520 C518 1.406 . S
C520 N521 1.261 . S
N521 Co472 2.214 . S
N521 C519 1.325 . S
N521 C520 1.261 . S
C522 H492 0.931 . S
C522 C519 1.357 . S
C522 C523 1.312 . S
C523 H494 0.930 . S
C523 C518 1.261 . S
C523 C522 1.312 . S
C524 O496 1.214 . S
C524 O504 1.234 . S
C525 H497 0.929 . S
C525 C528 1.391 . S
C525 C530 1.391 . S
C526 H498 0.929 . S
C526 C527 1.390 . S
C526 N529 1.391 . S
C527 H499 0.931 1_554 S
C527 C526 1.390 . S
C527 C528 1.390 . S
C528 H500 0.929 . S
C528 C525 1.391 . S
C528 C527 1.390 . S
N529 Co473 2.257 . S
N529 C526 1.391 . S
N529 C530 1.388 . S
C530 H501 0.930 . S
C530 C525 1.391 . S
C530 N529 1.388 . S
Co531 O533 2.143 . S
Co531 O539 2.074 . S
Co531 O542 2.093 . S
Co531 O555 2.097 . S
Co531 N572 2.151 . S
Co531 N580 2.214 . S
Co532 O533 2.160 . S
Co532 O538 2.058 . S
Co532 O548 2.057 . S
Co532 O563 2.037 . S
Co532 N567 2.145 . S
Co532 N588 2.257 . S
O533 Co531 2.143 . S
O533 Co532 2.160 . S
C534 O535 1.278 . S
C534 O542 1.224 . S
O535 C534 1.278 . S
C536 O537 1.245 . S
C536 O548 1.232 . S
O537 C536 1.245 . S
O538 Co532 2.058 . S
O538 C564 1.269 . S
O539 Co531 2.074 . S
O539 C564 1.257 . S
H540 C565 0.930 . S
H541 C571 0.930 . S
O542 Co531 2.093 . S
O542 C534 1.224 . S
H543 C575 0.929 . S
H544 C577 0.930 . S
H545 C578 0.930 . S
H546 C576 0.929 . S
H547 C579 0.928 . S
O548 Co532 2.057 . S
O548 C536 1.232 . S
H549 C568 0.929 . S
H550 C569 0.929 . S
H551 C581 0.931 . S
H552 C573 0.929 . S
H553 C582 0.930 . S
H554 C574 0.931 . S
O555 Co531 2.097 . S
O555 C583 1.214 . S
H556 C584 0.929 . S
H557 C585 0.929 . S
H558 C586 0.930 . S
H559 C587 0.929 . S
H560 C589 0.930 . S
H561 C566 0.930 . S
H562 C570 0.930 . S
O563 Co532 2.037 . S
O563 C583 1.234 . S
C564 O538 1.269 . S
C564 O539 1.257 . S
C565 H540 0.930 . S
C565 C568 1.388 . S
C565 C570 1.418 . S
C566 H561 0.930 . S
C566 C569 1.404 . S
C566 C570 1.353 . S
N567 Co532 2.145 . S
N567 C568 1.397 . S
N567 C569 1.334 . S
C568 H549 0.929 . S
C568 C565 1.388 . S
C568 N567 1.397 . S
C569 H550 0.929 . S
C569 C566 1.404 . S
C569 N567 1.334 . S
C570 H562 0.930 . S
C570 C565 1.418 . S
C570 C566 1.353 . S
C571 H541 0.930 . S
C571 N572 1.330 . S
C571 C573 1.446 . S
N572 Co531 2.151 . S
N572 C571 1.330 . S
N572 C576 1.418 . S
C573 H552 0.929 . S
C573 C571 1.446 . S
C573 C574 1.332 . S
C574 H554 0.931 . S
C574 C573 1.332 . S
C574 C575 1.267 . S
C575 H543 0.929 . S
C575 C574 1.267 . S
C575 C576 1.251 . S
C576 H546 0.929 . S
C576 N572 1.418 . S
C576 C575 1.251 . S
C577 H544 0.930 . S
C577 C579 1.406 . S
C577 C582 1.261 . S
C578 H545 0.930 . S
C578 N580 1.325 . S
C578 C581 1.357 . S
C579 H547 0.928 . S
C579 C577 1.406 . S
C579 N580 1.261 . S
N580 Co531 2.214 . S
N580 C578 1.325 . S
N580 C579 1.261 . S
C581 H551 0.931 . S
C581 C578 1.357 . S
C581 C582 1.312 . S
C582 H553 0.930 . S
C582 C577 1.261 . S
C582 C581 1.312 . S
C583 O555 1.214 . S
C583 O563 1.234 . S
C584 H556 0.929 . S
C584 C587 1.391 . S
C584 C589 1.391 . S
C585 H557 0.929 . S
C585 C586 1.390 . S
C585 N588 1.391 . S
C586 H558 0.930 . S
C586 C585 1.390 . S
C586 C587 1.392 . S
C587 H559 0.929 . S
C587 C584 1.391 . S
C587 C586 1.392 . S
N588 Co532 2.257 . S
N588 C585 1.391 . S
N588 C589 1.388 . S
C589 H560 0.930 . S
C589 C584 1.391 . S
C589 N588 1.388 . S
Co590 O592 2.143 . S
Co590 O598 2.074 . S
Co590 O601 2.093 . S
Co590 O614 2.097 . S
Co590 N631 2.151 . S
Co590 N639 2.214 . S
Co591 O592 2.160 . S
Co591 O597 2.058 . S
Co591 O607 2.057 . S
Co591 O622 2.037 . S
Co591 N626 2.145 . S
Co591 N647 2.257 . S
O592 Co590 2.143 . S
O592 Co591 2.160 . S
C593 O594 1.278 . S
C593 O601 1.224 . S
O594 C593 1.278 . S
C595 O596 1.245 . S
C595 O607 1.232 . S
O596 C595 1.245 . S
O597 Co591 2.058 . S
O597 C623 1.269 . S
O598 Co590 2.074 . S
O598 C623 1.257 . S
H599 C624 0.930 . S
H600 C630 0.930 . S
O601 Co590 2.093 . S
O601 C593 1.224 . S
H602 C634 0.929 . S
H603 C636 0.930 . S
H604 C637 0.930 . S
H605 C635 0.929 . S
H606 C638 0.928 . S
O607 Co591 2.057 . S
O607 C595 1.232 . S
H608 C627 0.929 . S
H609 C628 0.929 . S
H610 C640 0.931 . S
H611 C632 0.929 . S
H612 C641 0.930 . S
H613 C633 0.931 . S
O614 Co590 2.097 . S
O614 C642 1.214 . S
H615 C643 0.929 . S
H616 C644 0.929 . S
H617 C645 0.930 . S
H618 C646 0.929 . S
H619 C648 0.930 . S
H620 C625 0.930 . S
H621 C629 0.930 . S
O622 Co591 2.037 . S
O622 C642 1.234 . S
C623 O597 1.269 . S
C623 O598 1.257 . S
C624 H599 0.930 . S
C624 C627 1.388 . S
C624 C629 1.418 . S
C625 H620 0.930 . S
C625 C628 1.404 . S
C625 C629 1.353 . S
N626 Co591 2.145 . S
N626 C627 1.397 . S
N626 C628 1.334 . S
C627 H608 0.929 . S
C627 C624 1.388 . S
C627 N626 1.397 . S
C628 H609 0.929 . S
C628 C625 1.404 . S
C628 N626 1.334 . S
C629 H621 0.930 . S
C629 C624 1.418 . S
C629 C625 1.353 . S
C630 H600 0.930 . S
C630 N631 1.330 . S
C630 C632 1.446 . S
N631 Co590 2.151 . S
N631 C630 1.330 . S
N631 C635 1.418 . S
C632 H611 0.929 . S
C632 C630 1.446 . S
C632 C633 1.332 . S
C633 H613 0.931 . S
C633 C632 1.332 . S
C633 C634 1.267 . S
C634 H602 0.929 . S
C634 C633 1.267 . S
C634 C635 1.251 . S
C635 H605 0.929 . S
C635 N631 1.418 . S
C635 C634 1.251 . S
C636 H603 0.930 . S
C636 C638 1.406 . S
C636 C641 1.261 . S
C637 H604 0.930 . S
C637 N639 1.325 . S
C637 C640 1.357 . S
C638 H606 0.928 . S
C638 C636 1.406 . S
C638 N639 1.261 . S
N639 Co590 2.214 . S
N639 C637 1.325 . S
N639 C638 1.261 . S
C640 H610 0.931 . S
C640 C637 1.357 . S
C640 C641 1.312 . S
C641 H612 0.930 . S
C641 C636 1.261 . S
C641 C640 1.312 . S
C642 O614 1.214 . S
C642 O622 1.234 . S
C643 H615 0.929 . S
C643 C646 1.391 . S
C643 C648 1.391 . S
C644 H616 0.929 . S
C644 C645 1.390 . S
C644 N647 1.391 . S
C645 H617 0.930 . S
C645 C644 1.390 . S
C645 C646 1.392 . S
C646 H618 0.929 . S
C646 C643 1.391 . S
C646 C645 1.392 . S
N647 Co591 2.257 . S
N647 C644 1.391 . S
N647 C648 1.388 . S
C648 H619 0.930 . S
C648 C643 1.391 . S
C648 N647 1.388 . S
Co649 O651 2.143 . S
Co649 O657 2.074 . S
Co649 O660 2.093 . S
Co649 O673 2.097 1_554 S
Co649 N690 2.165 . S
Co649 N698 2.214 . S
Co650 O651 2.160 1_556 S
Co650 O656 2.058 1_566 S
Co650 O666 2.057 1_565 S
Co650 O681 2.037 . S
Co650 N685 2.145 . S
Co650 N706 2.257 . S
O651 Co649 2.143 . S
O651 Co650 2.160 1_554 S
C652 O653 1.278 1_554 S
C652 O660 1.224 . S
O653 C652 1.278 1_556 S
C654 O655 1.245 . S
C654 O666 1.232 1_554 S
O655 C654 1.245 . S
O656 Co650 2.058 1_544 S
O656 C682 1.234 1_545 S
O657 Co649 2.074 . S
O657 C682 1.288 . S
H658 C683 0.930 . S
H659 C689 0.930 . S
O660 Co649 2.093 . S
O660 C652 1.224 . S
H661 C693 0.929 . S
H662 C695 0.930 . S
H663 C696 0.930 . S
H664 C694 0.929 1_565 S
H665 C697 0.928 . S
O666 Co650 2.057 1_545 S
O666 C654 1.232 1_556 S
H667 C686 0.929 . S
H668 C687 0.929 . S
H669 C699 0.931 . S
H670 C691 0.929 . S
H671 C700 0.930 . S
H672 C692 0.931 . S
O673 Co649 2.097 1_556 S
O673 C701 1.214 . S
H674 C702 0.929 . S
H675 C703 0.929 . S
H676 C704 0.930 . S
H677 C705 0.929 . S
H678 C707 0.930 . S
H679 C684 0.930 . S
H680 C688 0.930 . S
O681 Co650 2.037 . S
O681 C701 1.234 . S
C682 O656 1.234 1_565 S
C682 O657 1.288 . S
C683 H658 0.930 . S
C683 C686 1.388 . S
C683 C688 1.418 . S
C684 H679 0.930 . S
C684 C687 1.404 . S
C684 C688 1.353 1_545 S
N685 Co650 2.145 . S
N685 C686 1.397 . S
N685 C687 1.334 1_565 S
C686 H667 0.929 . S
C686 C683 1.388 . S
C686 N685 1.397 . S
C687 H668 0.929 . S
C687 C684 1.404 . S
C687 N685 1.334 1_545 S
C688 H680 0.930 . S
C688 C683 1.418 . S
C688 C684 1.353 1_565 S
C689 H659 0.930 . S
C689 N690 1.306 1_545 S
C689 C691 1.446 . S
N690 Co649 2.165 . S
N690 C689 1.306 1_565 S
N690 C694 1.433 1_565 S
C691 H670 0.929 . S
C691 C689 1.446 . S
C691 C692 1.332 . S
C692 H672 0.931 . S
C692 C691 1.332 . S
C692 C693 1.267 . S
C693 H661 0.929 . S
C693 C692 1.267 . S
C693 C694 1.251 . S
C694 H664 0.929 1_545 S
C694 N690 1.433 1_545 S
C694 C693 1.251 . S
C695 H662 0.930 . S
C695 C697 1.406 . S
C695 C700 1.261 . S
C696 H663 0.930 . S
C696 N698 1.325 . S
C696 C699 1.357 . S
C697 H665 0.928 . S
C697 C695 1.406 . S
C697 N698 1.261 . S
N698 Co649 2.214 . S
N698 C696 1.325 . S
N698 C697 1.261 . S
C699 H669 0.931 . S
C699 C696 1.357 . S
C699 C700 1.312 . S
C700 H671 0.930 . S
C700 C695 1.261 . S
C700 C699 1.312 . S
C701 O673 1.214 . S
C701 O681 1.234 . S
C702 H674 0.929 . S
C702 C705 1.391 . S
C702 C707 1.391 . S
C703 H675 0.929 . S
C703 C704 1.390 . S
C703 N706 1.391 . S
C704 H676 0.930 . S
C704 C703 1.390 . S
C704 C705 1.392 . S
C705 H677 0.929 . S
C705 C702 1.391 . S
C705 C704 1.392 . S
N706 Co650 2.257 . S
N706 C703 1.391 . S
N706 C707 1.388 . S
C707 H678 0.930 . S
C707 C702 1.391 . S
C707 N706 1.388 . S
Co708 O710 2.143 . S
Co708 O716 2.074 . S
Co708 O719 2.093 . S
Co708 O732 2.097 . S
Co708 N749 2.151 . S
Co708 N757 2.214 . S
Co709 O710 2.160 . S
Co709 O715 2.058 . S
Co709 O725 2.057 . S
Co709 O740 2.037 . S
Co709 N744 2.145 . S
Co709 N765 2.257 . S
O710 Co708 2.143 . S
O710 Co709 2.160 . S
C711 O712 1.278 . S
C711 O719 1.224 . S
O712 C711 1.278 . S
C713 O714 1.245 . S
C713 O725 1.232 . S
O714 C713 1.245 . S
O715 Co709 2.058 . S
O715 C741 1.269 . S
O716 Co708 2.074 . S
O716 C741 1.257 . S
H717 C742 0.930 . S
H718 C748 0.930 . S
O719 Co708 2.093 . S
O719 C711 1.224 . S
H720 C752 0.929 . S
H721 C754 0.930 . S
H722 C755 0.930 . S
H723 C753 0.929 . S
H724 C756 0.928 . S
O725 Co709 2.057 . S
O725 C713 1.232 . S
H726 C745 0.929 . S
H727 C746 0.929 . S
H728 C758 0.931 . S
H729 C750 0.929 . S
H730 C759 0.930 . S
H731 C751 0.931 . S
O732 Co708 2.097 . S
O732 C760 1.214 . S
H733 C761 0.929 . S
H734 C762 0.929 . S
H735 C763 0.930 . S
H736 C764 0.929 . S
H737 C766 0.930 . S
H738 C743 0.930 . S
H739 C747 0.930 . S
O740 Co709 2.037 . S
O740 C760 1.234 . S
C741 O715 1.269 . S
C741 O716 1.257 . S
C742 H717 0.930 . S
C742 C745 1.388 . S
C742 C747 1.418 . S
C743 H738 0.930 . S
C743 C746 1.404 . S
C743 C747 1.353 . S
N744 Co709 2.145 . S
N744 C745 1.397 . S
N744 C746 1.334 . S
C745 H726 0.929 . S
C745 C742 1.388 . S
C745 N744 1.397 . S
C746 H727 0.929 . S
C746 C743 1.404 . S
C746 N744 1.334 . S
C747 H739 0.930 . S
C747 C742 1.418 . S
C747 C743 1.353 . S
C748 H718 0.930 . S
C748 N749 1.330 . S
C748 C750 1.446 . S
N749 Co708 2.151 . S
N749 C748 1.330 . S
N749 C753 1.418 . S
C750 H729 0.929 . S
C750 C748 1.446 . S
C750 C751 1.332 . S
C751 H731 0.931 . S
C751 C750 1.332 . S
C751 C752 1.267 . S
C752 H720 0.929 . S
C752 C751 1.267 . S
C752 C753 1.251 . S
C753 H723 0.929 . S
C753 N749 1.418 . S
C753 C752 1.251 . S
C754 H721 0.930 . S
C754 C756 1.406 . S
C754 C759 1.261 . S
C755 H722 0.930 . S
C755 N757 1.325 . S
C755 C758 1.357 . S
C756 H724 0.928 . S
C756 C754 1.406 . S
C756 N757 1.261 . S
N757 Co708 2.214 . S
N757 C755 1.325 . S
N757 C756 1.261 . S
C758 H728 0.931 . S
C758 C755 1.357 . S
C758 C759 1.312 . S
C759 H730 0.930 . S
C759 C754 1.261 . S
C759 C758 1.312 . S
C760 O732 1.214 . S
C760 O740 1.234 . S
C761 H733 0.929 . S
C761 C764 1.391 . S
C761 C766 1.391 1_545 S
C762 H734 0.929 . S
C762 C763 1.390 1_565 S
C762 N765 1.391 . S
C763 H735 0.930 . S
C763 C762 1.390 1_545 S
C763 C764 1.392 . S
C764 H736 0.929 . S
C764 C761 1.391 . S
C764 C763 1.392 . S
N765 Co709 2.257 . S
N765 C762 1.391 . S
N765 C766 1.388 . S
C766 H737 0.930 . S
C766 C761 1.391 1_565 S
C766 N765 1.388 . S
Co767 O769 2.143 . S
Co767 O775 2.074 . S
Co767 O778 2.093 . S
Co767 O791 2.097 . S
Co767 N808 2.151 . S
Co767 N816 2.214 . S
Co768 O769 2.160 . S
Co768 O774 2.058 . S
Co768 O784 2.057 . S
Co768 O799 2.037 . S
Co768 N803 2.145 . S
Co768 N824 2.257 . S
O769 Co767 2.143 . S
O769 Co768 2.160 . S
C770 O771 1.278 . S
C770 O778 1.224 . S
O771 C770 1.278 . S
C772 O773 1.245 . S
C772 O784 1.232 . S
O773 C772 1.245 . S
O774 Co768 2.058 . S
O774 C800 1.269 . S
O775 Co767 2.074 . S
O775 C800 1.257 . S
H776 C801 0.930 . S
H777 C807 0.930 . S
O778 Co767 2.093 . S
O778 C770 1.224 . S
H779 C811 0.929 . S
H780 C813 0.930 . S
H781 C814 0.930 . S
H782 C812 0.929 . S
H783 C815 0.928 . S
O784 Co768 2.057 . S
O784 C772 1.232 . S
H785 C804 0.929 . S
H786 C805 0.929 . S
H787 C817 0.931 . S
H788 C809 0.929 . S
H789 C818 0.930 . S
H790 C810 0.931 . S
O791 Co767 2.097 . S
O791 C819 1.214 . S
H792 C820 0.929 1_565 S
H793 C821 0.929 . S
H794 C822 0.930 . S
H795 C823 0.929 1_565 S
H796 C825 0.930 . S
H797 C802 0.930 . S
H798 C806 0.930 . S
O799 Co768 2.037 . S
O799 C819 1.234 . S
C800 O774 1.269 . S
C800 O775 1.257 . S
C801 H776 0.930 . S
C801 C804 1.388 . S
C801 C806 1.418 . S
C802 H797 0.930 . S
C802 C805 1.404 . S
C802 C806 1.353 . S
N803 Co768 2.145 . S
N803 C804 1.397 . S
N803 C805 1.334 . S
C804 H785 0.929 . S
C804 C801 1.388 . S
C804 N803 1.397 . S
C805 H786 0.929 . S
C805 C802 1.404 . S
C805 N803 1.334 . S
C806 H798 0.930 . S
C806 C801 1.418 . S
C806 C802 1.353 . S
C807 H777 0.930 . S
C807 N808 1.330 . S
C807 C809 1.446 . S
N808 Co767 2.151 . S
N808 C807 1.330 . S
N808 C812 1.418 . S
C809 H788 0.929 . S
C809 C807 1.446 . S
C809 C810 1.332 . S
C810 H790 0.931 . S
C810 C809 1.332 . S
C810 C811 1.267 . S
C811 H779 0.929 . S
C811 C810 1.267 . S
C811 C812 1.251 . S
C812 H782 0.929 . S
C812 N808 1.418 . S
C812 C811 1.251 . S
C813 H780 0.930 . S
C813 C815 1.406 . S
C813 C818 1.261 . S
C814 H781 0.930 . S
C814 N816 1.325 . S
C814 C817 1.357 . S
C815 H783 0.928 . S
C815 C813 1.406 . S
C815 N816 1.261 . S
N816 Co767 2.214 . S
N816 C814 1.325 . S
N816 C815 1.261 . S
C817 H787 0.931 . S
C817 C814 1.357 . S
C817 C818 1.312 . S
C818 H789 0.930 . S
C818 C813 1.261 . S
C818 C817 1.312 . S
C819 O791 1.214 . S
C819 O799 1.234 . S
C820 H792 0.929 1_545 S
C820 C823 1.391 . S
C820 C825 1.391 . S
C821 H793 0.929 . S
C821 C822 1.390 . S
C821 N824 1.391 . S
C822 H794 0.930 . S
C822 C821 1.390 . S
C822 C823 1.392 . S
C823 H795 0.929 1_545 S
C823 C820 1.391 . S
C823 C822 1.392 . S
N824 Co768 2.257 . S
N824 C821 1.391 . S
N824 C825 1.388 . S
C825 H796 0.930 . S
C825 C820 1.391 . S
C825 N824 1.388 . S
Co826 O828 2.143 . S
Co826 O834 2.091 . S
Co826 O837 2.093 . S
Co826 O850 2.097 . S
Co826 N867 2.151 . S
Co826 N875 2.214 . S
Co827 O828 2.160 1_545 S
Co827 O833 2.058 . S
Co827 O843 2.057 . S
Co827 O858 2.037 . S
Co827 N862 2.145 . S
Co827 N883 2.257 . S
O828 Co826 2.143 . S
O828 Co827 2.160 1_565 S
C829 O830 1.278 . S
C829 O837 1.224 . S
O830 C829 1.278 . S
C831 O832 1.230 1_545 S
C831 O843 1.232 . S
O832 C831 1.230 1_565 S
O833 Co827 2.058 . S
O833 C859 1.269 . S
O834 Co826 2.091 . S
O834 C859 1.242 1_565 S
H835 C860 0.930 . S
H836 C866 0.930 . S
O837 Co826 2.093 . S
O837 C829 1.224 . S
H838 C870 0.929 . S
H839 C872 0.930 . S
H840 C873 0.930 . S
H841 C871 0.929 . S
H842 C874 0.928 . S
O843 Co827 2.057 . S
O843 C831 1.232 . S
H844 C863 0.929 . S
H845 C864 0.929 . S
H846 C876 0.931 . S
H847 C868 0.929 . S
H848 C877 0.930 . S
H849 C869 0.931 . S
O850 Co826 2.097 . S
O850 C878 1.214 1_565 S
H851 C879 0.929 . S
H852 C880 0.929 . S
H853 C881 0.930 . S
H854 C882 0.929 . S
H855 C884 0.930 . S
H856 C861 0.930 . S
H857 C865 0.930 . S
O858 Co827 2.037 . S
O858 C878 1.234 . S
C859 O833 1.269 . S
C859 O834 1.242 1_545 S
C860 H835 0.930 . S
C860 C863 1.388 . S
C860 C865 1.418 . S
C861 H856 0.930 . S
C861 C864 1.404 . S
C861 C865 1.353 . S
N862 Co827 2.145 . S
N862 C863 1.397 . S
N862 C864 1.334 . S
C863 H844 0.929 . S
C863 C860 1.388 . S
C863 N862 1.397 . S
C864 H845 0.929 . S
C864 C861 1.404 . S
C864 N862 1.334 . S
C865 H857 0.930 . S
C865 C860 1.418 . S
C865 C861 1.353 . S
C866 H836 0.930 . S
C866 N867 1.330 . S
C866 C868 1.446 . S
N867 Co826 2.151 . S
N867 C866 1.330 . S
N867 C871 1.418 . S
C868 H847 0.929 . S
C868 C866 1.446 . S
C868 C869 1.332 . S
C869 H849 0.931 . S
C869 C868 1.332 . S
C869 C870 1.267 . S
C870 H838 0.929 . S
C870 C869 1.267 . S
C870 C871 1.251 . S
C871 H841 0.929 . S
C871 N867 1.418 . S
C871 C870 1.251 . S
C872 H839 0.930 . S
C872 C874 1.406 . S
C872 C877 1.261 . S
C873 H840 0.930 . S
C873 N875 1.325 . S
C873 C876 1.357 . S
C874 H842 0.928 . S
C874 C872 1.406 . S
C874 N875 1.261 . S
N875 Co826 2.214 . S
N875 C873 1.325 . S
N875 C874 1.261 . S
C876 H846 0.931 . S
C876 C873 1.357 . S
C876 C877 1.312 . S
C877 H848 0.930 . S
C877 C872 1.261 . S
C877 C876 1.312 . S
C878 O850 1.214 1_545 S
C878 O858 1.234 . S
C879 H851 0.929 . S
C879 C882 1.391 . S
C879 C884 1.391 . S
C880 H852 0.929 . S
C880 C881 1.390 . S
C880 N883 1.391 . S
C881 H853 0.930 . S
C881 C880 1.390 . S
C881 C882 1.392 . S
C882 H854 0.929 . S
C882 C879 1.391 . S
C882 C881 1.392 . S
N883 Co827 2.257 . S
N883 C880 1.391 . S
N883 C884 1.388 . S
C884 H855 0.930 . S
C884 C879 1.391 . S
C884 N883 1.388 . S
Co885 O887 2.143 . S
Co885 O893 2.074 . S
Co885 O896 2.093 . S
Co885 O909 2.097 1_556 S
Co885 N926 2.151 . S
Co885 N934 2.214 . S
Co886 O887 2.160 1_554 S
Co886 O892 2.058 1_554 S
Co886 O902 2.057 . S
Co886 O917 2.037 . S
Co886 N921 2.145 . S
Co886 N942 2.257 . S
O887 Co885 2.143 . S
O887 Co886 2.160 1_556 S
C888 O889 1.278 1_556 S
C888 O896 1.224 . S
O889 C888 1.278 1_554 S
C890 O891 1.245 . S
C890 O902 1.232 1_556 S
O891 C890 1.245 . S
O892 Co886 2.058 1_556 S
O892 C918 1.269 . S
O893 Co885 2.074 . S
O893 C918 1.257 . S
H894 C919 0.930 . S
H895 C925 0.930 . S
O896 Co885 2.093 . S
O896 C888 1.224 . S
H897 C929 0.929 . S
H898 C931 0.930 . S
H899 C932 0.950 . S
H900 C930 0.929 . S
H901 C933 0.928 . S
O902 Co886 2.057 . S
O902 C890 1.232 1_554 S
H903 C922 0.929 . S
H904 C923 0.929 . S
H905 C935 0.931 . S
H906 C927 0.929 . S
H907 C936 0.930 . S
H908 C928 0.931 . S
O909 Co885 2.097 1_554 S
O909 C937 1.214 . S
H910 C938 0.929 . S
H911 C939 0.929 . S
H912 C940 0.930 . S
H913 C941 0.929 . S
H914 C943 0.930 . S
H915 C920 0.930 . S
H916 C924 0.930 . S
O917 Co886 2.037 . S
O917 C937 1.234 . S
C918 O892 1.269 . S
C918 O893 1.257 . S
C919 H894 0.930 . S
C919 C922 1.388 . S
C919 C924 1.418 . S
C920 H915 0.930 . S
C920 C923 1.404 . S
C920 C924 1.353 . S
N921 Co886 2.145 . S
N921 C922 1.397 . S
N921 C923 1.334 . S
C922 H903 0.929 . S
C922 C919 1.388 . S
C922 N921 1.397 . S
C923 H904 0.929 . S
C923 C920 1.404 . S
C923 N921 1.334 . S
C924 H916 0.930 . S
C924 C919 1.418 . S
C924 C920 1.353 . S
C925 H895 0.930 . S
C925 N926 1.330 . S
C925 C927 1.446 . S
N926 Co885 2.151 . S
N926 C925 1.330 . S
N926 C930 1.418 . S
C927 H906 0.929 . S
C927 C925 1.446 . S
C927 C928 1.332 . S
C928 H908 0.931 . S
C928 C927 1.332 . S
C928 C929 1.267 . S
C929 H897 0.929 . S
C929 C928 1.267 . S
C929 C930 1.251 . S
C930 H900 0.929 . S
C930 N926 1.418 . S
C930 C929 1.251 . S
C931 H898 0.930 . S
C931 C933 1.406 . S
C931 C936 1.261 . S
C932 H899 0.950 . S
C932 N934 1.325 . S
C932 C935 1.357 . S
C933 H901 0.928 . S
C933 C931 1.406 . S
C933 N934 1.261 . S
N934 Co885 2.214 . S
N934 C932 1.325 . S
N934 C933 1.261 . S
C935 H905 0.931 . S
C935 C932 1.357 . S
C935 C936 1.312 . S
C936 H907 0.930 . S
C936 C931 1.261 . S
C936 C935 1.312 . S
C937 O909 1.214 . S
C937 O917 1.234 . S
C938 H910 0.929 . S
C938 C941 1.391 . S
C938 C943 1.391 . S
C939 H911 0.929 . S
C939 C940 1.390 . S
C939 N942 1.391 . S
C940 H912 0.930 . S
C940 C939 1.390 . S
C940 C941 1.392 . S
C941 H913 0.929 . S
C941 C938 1.391 . S
C941 C940 1.392 . S
N942 Co886 2.257 . S
N942 C939 1.391 . S
N942 C943 1.388 . S
C943 H914 0.930 . S
C943 C938 1.391 . S
C943 N942 1.388 . S
Co944 O946 2.143 1_554 S
Co944 O952 2.074 . S
Co944 O955 2.093 1_554 S
Co944 O968 2.097 1_554 S
Co944 N985 2.151 . S
Co944 N993 2.214 . S
Co945 O946 2.160 . S
Co945 O951 2.058 1_556 S
Co945 O961 2.057 . S
Co945 O976 2.037 . S
Co945 N980 2.145 . S
Co945 N1001 2.257 . S
O946 Co944 2.143 1_556 S
O946 Co945 2.160 . S
C947 O948 1.278 . S
C947 O955 1.224 . S
O948 C947 1.278 . S
C949 O950 1.245 . S
C949 O961 1.232 . S
O950 C949 1.245 . S
O951 Co945 2.058 1_554 S
O951 C977 1.269 . S
O952 Co944 2.074 . S
O952 C977 1.257 . S
H953 C978 0.930 1_554 S
H954 C984 0.930 . S
O955 Co944 2.093 1_556 S
O955 C947 1.224 . S
H956 C988 0.929 . S
H957 C990 0.930 . S
H958 C991 0.930 . S
H959 C989 0.929 . S
H960 C992 0.928 . S
O961 Co945 2.057 . S
O961 C949 1.232 . S
H962 C981 0.929 1_554 S
H963 C982 0.930 . S
H964 C994 0.931 . S
H965 C986 0.929 . S
H966 C995 0.930 . S
H967 C987 0.931 . S
O968 Co944 2.097 1_556 S
O968 C996 1.214 . S
H969 C997 0.929 . S
H970 C998 0.929 . S
H971 C999 0.931 1_655 S
H972 C1000 0.929 . S
H973 C1002 0.930 . S
H974 C979 0.930 . S
H975 C983 0.930 . S
O976 Co945 2.037 . S
O976 C996 1.234 . S
C977 O951 1.269 . S
C977 O952 1.257 . S
C978 H953 0.930 1_556 S
C978 C981 1.388 1_655 S
C978 C983 1.418 . S
C979 H974 0.930 . S
C979 C982 1.403 1_655 S
C979 C983 1.353 . S
N980 Co945 2.145 . S
N980 C981 1.397 . S
N980 C982 1.334 . S
C981 H962 0.929 1_556 S
C981 C978 1.388 1_455 S
C981 N980 1.397 . S
C982 H963 0.930 . S
C982 C979 1.403 1_455 S
C982 N980 1.334 . S
C983 H975 0.930 . S
C983 C978 1.418 . S
C983 C979 1.353 . S
C984 H954 0.930 . S
C984 N985 1.330 . S
C984 C986 1.446 . S
N985 Co944 2.151 . S
N985 C984 1.330 . S
N985 C989 1.418 . S
C986 H965 0.929 . S
C986 C984 1.446 . S
C986 C987 1.332 . S
C987 H967 0.931 . S
C987 C986 1.332 . S
C987 C988 1.267 . S
C988 H956 0.929 . S
C988 C987 1.267 . S
C988 C989 1.251 . S
C989 H959 0.929 . S
C989 N985 1.418 . S
C989 C988 1.251 . S
C990 H957 0.930 . S
C990 C992 1.406 . S
C990 C995 1.261 . S
C991 H958 0.930 . S
C991 N993 1.325 . S
C991 C994 1.357 . S
C992 H960 0.928 . S
C992 C990 1.406 . S
C992 N993 1.261 . S
N993 Co944 2.214 . S
N993 C991 1.325 . S
N993 C992 1.261 . S
C994 H964 0.931 . S
C994 C991 1.357 . S
C994 C995 1.312 . S
C995 H966 0.930 . S
C995 C990 1.261 . S
C995 C994 1.312 . S
C996 O968 1.214 . S
C996 O976 1.234 . S
C997 H969 0.929 . S
C997 C1000 1.391 . S
C997 C1002 1.391 . S
C998 H970 0.929 . S
C998 C999 1.390 . S
C998 N1001 1.391 . S
C999 H971 0.931 1_455 S
C999 C998 1.390 . S
C999 C1000 1.390 . S
C1000 H972 0.929 . S
C1000 C997 1.391 . S
C1000 C999 1.390 . S
N1001 Co945 2.257 . S
N1001 C998 1.391 . S
N1001 C1002 1.388 . S
C1002 H973 0.930 . S
C1002 C997 1.391 . S
C1002 N1001 1.388 . S
Co1003 O1005 2.143 . S
Co1003 O1011 2.074 . S
Co1003 O1014 2.093 . S
Co1003 O1027 2.097 . S
Co1003 N1044 2.151 . S
Co1003 N1052 2.214 . S
Co1004 O1005 2.160 . S
Co1004 O1010 2.058 . S
Co1004 O1020 2.057 . S
Co1004 O1035 2.037 . S
Co1004 N1039 2.145 . S
Co1004 N1060 2.257 . S
O1005 Co1003 2.143 . S
O1005 Co1004 2.160 . S
C1006 O1007 1.278 . S
C1006 O1014 1.224 . S
O1007 C1006 1.278 . S
C1008 O1009 1.245 . S
C1008 O1020 1.232 . S
O1009 C1008 1.245 . S
O1010 Co1004 2.058 . S
O1010 C1036 1.269 . S
O1011 Co1003 2.074 . S
O1011 C1036 1.257 . S
H1012 C1037 0.930 . S
H1013 C1043 0.930 . S
O1014 Co1003 2.093 . S
O1014 C1006 1.224 . S
H1015 C1047 0.929 . S
H1016 C1049 0.930 . S
H1017 C1050 0.930 . S
H1018 C1048 0.929 . S
H1019 C1051 0.928 . S
O1020 Co1004 2.057 . S
O1020 C1008 1.232 . S
H1021 C1040 0.929 . S
H1022 C1041 0.929 . S
H1023 C1053 0.931 . S
H1024 C1045 0.929 . S
H1025 C1054 0.930 . S
H1026 C1046 0.931 . S
O1027 Co1003 2.097 . S
O1027 C1055 1.214 . S
H1028 C1056 0.929 . S
H1029 C1057 0.929 . S
H1030 C1058 0.930 . S
H1031 C1059 0.929 . S
H1032 C1061 0.930 . S
H1033 C1038 0.930 . S
H1034 C1042 0.930 . S
O1035 Co1004 2.037 . S
O1035 C1055 1.234 . S
C1036 O1010 1.269 . S
C1036 O1011 1.257 . S
C1037 H1012 0.930 . S
C1037 C1040 1.388 . S
C1037 C1042 1.418 . S
C1038 H1033 0.930 . S
C1038 C1041 1.404 . S
C1038 C1042 1.353 . S
N1039 Co1004 2.145 . S
N1039 C1040 1.397 . S
N1039 C1041 1.334 . S
C1040 H1021 0.929 . S
C1040 C1037 1.388 . S
C1040 N1039 1.397 . S
C1041 H1022 0.929 . S
C1041 C1038 1.404 . S
C1041 N1039 1.334 . S
C1042 H1034 0.930 . S
C1042 C1037 1.418 . S
C1042 C1038 1.353 . S
C1043 H1013 0.930 . S
C1043 N1044 1.330 . S
C1043 C1045 1.446 . S
N1044 Co1003 2.151 . S
N1044 C1043 1.330 . S
N1044 C1048 1.418 . S
C1045 H1024 0.929 . S
C1045 C1043 1.446 . S
C1045 C1046 1.332 . S
C1046 H1026 0.931 . S
C1046 C1045 1.332 . S
C1046 C1047 1.267 . S
C1047 H1015 0.929 . S
C1047 C1046 1.267 . S
C1047 C1048 1.251 . S
C1048 H1018 0.929 . S
C1048 N1044 1.418 . S
C1048 C1047 1.251 . S
C1049 H1016 0.930 . S
C1049 C1051 1.406 . S
C1049 C1054 1.261 . S
C1050 H1017 0.930 . S
C1050 N1052 1.325 . S
C1050 C1053 1.357 . S
C1051 H1019 0.928 . S
C1051 C1049 1.406 . S
C1051 N1052 1.261 . S
N1052 Co1003 2.214 . S
N1052 C1050 1.325 . S
N1052 C1051 1.261 . S
C1053 H1023 0.931 . S
C1053 C1050 1.357 . S
C1053 C1054 1.312 . S
C1054 H1025 0.930 . S
C1054 C1049 1.261 . S
C1054 C1053 1.312 . S
C1055 O1027 1.214 . S
C1055 O1035 1.234 . S
C1056 H1028 0.929 . S
C1056 C1059 1.391 . S
C1056 C1061 1.391 . S
C1057 H1029 0.929 . S
C1057 C1058 1.390 . S
C1057 N1060 1.391 . S
C1058 H1030 0.930 . S
C1058 C1057 1.390 . S
C1058 C1059 1.392 . S
C1059 H1031 0.929 . S
C1059 C1056 1.391 . S
C1059 C1058 1.392 . S
N1060 Co1004 2.257 . S
N1060 C1057 1.391 . S
N1060 C1061 1.388 . S
C1061 H1032 0.930 . S
C1061 C1056 1.391 . S
C1061 N1060 1.388 . S
Co1062 O1064 2.143 . S
Co1062 O1070 2.074 . S
Co1062 O1073 2.093 . S
Co1062 O1086 2.097 . S
Co1062 N1103 2.151 . S
Co1062 N1111 2.214 . S
Co1063 O1064 2.160 . S
Co1063 O1069 2.058 . S
Co1063 O1079 2.057 . S
Co1063 O1094 2.037 . S
Co1063 N1098 2.145 . S
Co1063 N1119 2.257 . S
O1064 Co1062 2.143 . S
O1064 Co1063 2.160 . S
C1065 O1066 1.278 . S
C1065 O1073 1.224 . S
O1066 C1065 1.278 . S
C1067 O1068 1.245 . S
C1067 O1079 1.232 . S
O1068 C1067 1.245 . S
O1069 Co1063 2.058 . S
O1069 C1095 1.269 . S
O1070 Co1062 2.074 . S
O1070 C1095 1.257 . S
H1071 C1096 0.930 . S
H1072 C1102 0.930 . S
O1073 Co1062 2.093 . S
O1073 C1065 1.224 . S
H1074 C1106 0.929 . S
H1075 C1108 0.930 . S
H1076 C1109 0.930 . S
H1077 C1107 0.929 . S
H1078 C1110 0.928 . S
O1079 Co1063 2.057 . S
O1079 C1067 1.232 . S
H1080 C1099 0.929 . S
H1081 C1100 0.929 . S
H1082 C1112 0.931 . S
H1083 C1104 0.929 . S
H1084 C1113 0.930 . S
H1085 C1105 0.931 . S
O1086 Co1062 2.097 . S
O1086 C1114 1.214 . S
H1087 C1115 0.929 . S
H1088 C1116 0.929 . S
H1089 C1117 0.930 . S
H1090 C1118 0.929 . S
H1091 C1120 0.930 . S
H1092 C1097 0.930 . S
H1093 C1101 0.930 . S
O1094 Co1063 2.037 . S
O1094 C1114 1.234 . S
C1095 O1069 1.269 . S
C1095 O1070 1.257 . S
C1096 H1071 0.930 . S
C1096 C1099 1.388 . S
C1096 C1101 1.418 . S
C1097 H1092 0.930 . S
C1097 C1100 1.404 . S
C1097 C1101 1.353 . S
N1098 Co1063 2.145 . S
N1098 C1099 1.397 . S
N1098 C1100 1.334 . S
C1099 H1080 0.929 . S
C1099 C1096 1.388 . S
C1099 N1098 1.397 . S
C1100 H1081 0.929 . S
C1100 C1097 1.404 . S
C1100 N1098 1.334 . S
C1101 H1093 0.930 . S
C1101 C1096 1.418 . S
C1101 C1097 1.353 . S
C1102 H1072 0.930 . S
C1102 N1103 1.330 . S
C1102 C1104 1.446 . S
N1103 Co1062 2.151 . S
N1103 C1102 1.330 . S
N1103 C1107 1.418 . S
C1104 H1083 0.929 . S
C1104 C1102 1.446 . S
C1104 C1105 1.332 . S
C1105 H1085 0.931 . S
C1105 C1104 1.332 . S
C1105 C1106 1.267 . S
C1106 H1074 0.929 . S
C1106 C1105 1.267 . S
C1106 C1107 1.251 . S
C1107 H1077 0.929 . S
C1107 N1103 1.418 . S
C1107 C1106 1.251 . S
C1108 H1075 0.930 . S
C1108 C1110 1.406 . S
C1108 C1113 1.261 . S
C1109 H1076 0.930 . S
C1109 N1111 1.325 . S
C1109 C1112 1.357 . S
C1110 H1078 0.928 . S
C1110 C1108 1.406 . S
C1110 N1111 1.261 . S
N1111 Co1062 2.214 . S
N1111 C1109 1.325 . S
N1111 C1110 1.261 . S
C1112 H1082 0.931 . S
C1112 C1109 1.357 . S
C1112 C1113 1.312 . S
C1113 H1084 0.930 . S
C1113 C1108 1.261 . S
C1113 C1112 1.312 . S
C1114 O1086 1.214 . S
C1114 O1094 1.234 . S
C1115 H1087 0.929 . S
C1115 C1118 1.391 . S
C1115 C1120 1.391 . S
C1116 H1088 0.929 . S
C1116 C1117 1.390 . S
C1116 N1119 1.391 . S
C1117 H1089 0.930 . S
C1117 C1116 1.390 . S
C1117 C1118 1.392 . S
C1118 H1090 0.929 . S
C1118 C1115 1.391 . S
C1118 C1117 1.392 . S
N1119 Co1063 2.257 . S
N1119 C1116 1.391 . S
N1119 C1120 1.388 . S
C1120 H1091 0.930 . S
C1120 C1115 1.391 . S
C1120 N1119 1.388 . S
Co1121 O1123 2.143 . S
Co1121 O1129 2.074 . S
Co1121 O1132 2.093 . S
Co1121 O1145 2.097 . S
Co1121 N1162 2.151 . S
Co1121 N1170 2.214 . S
Co1122 O1123 2.160 . S
Co1122 O1128 2.058 . S
Co1122 O1138 2.057 . S
Co1122 O1153 2.037 . S
Co1122 N1157 2.145 . S
Co1122 N1178 2.257 . S
O1123 Co1121 2.143 . S
O1123 Co1122 2.160 . S
C1124 O1125 1.278 . S
C1124 O1132 1.224 . S
O1125 C1124 1.278 . S
C1126 O1127 1.245 . S
C1126 O1138 1.232 . S
O1127 C1126 1.245 . S
O1128 Co1122 2.058 . S
O1128 C1154 1.269 . S
O1129 Co1121 2.074 . S
O1129 C1154 1.257 . S
H1130 C1155 0.930 . S
H1131 C1161 0.930 . S
O1132 Co1121 2.093 . S
O1132 C1124 1.224 . S
H1133 C1165 0.929 . S
H1134 C1167 0.930 . S
H1135 C1168 0.930 . S
H1136 C1166 0.929 . S
H1137 C1169 0.928 . S
O1138 Co1122 2.057 . S
O1138 C1126 1.232 . S
H1139 C1158 0.929 . S
H1140 C1159 0.929 . S
H1141 C1171 0.931 . S
H1142 C1163 0.929 . S
H1143 C1172 0.930 . S
H1144 C1164 0.931 . S
O1145 Co1121 2.097 . S
O1145 C1173 1.214 . S
H1146 C1174 0.929 . S
H1147 C1175 0.929 . S
H1148 C1176 0.930 . S
H1149 C1177 0.929 . S
H1150 C1179 0.930 . S
H1151 C1156 0.930 . S
H1152 C1160 0.930 . S
O1153 Co1122 2.037 . S
O1153 C1173 1.234 . S
C1154 O1128 1.269 . S
C1154 O1129 1.257 . S
C1155 H1130 0.930 . S
C1155 C1158 1.388 . S
C1155 C1160 1.418 . S
C1156 H1151 0.930 . S
C1156 C1159 1.404 . S
C1156 C1160 1.353 . S
N1157 Co1122 2.145 . S
N1157 C1158 1.397 . S
N1157 C1159 1.334 . S
C1158 H1139 0.929 . S
C1158 C1155 1.388 . S
C1158 N1157 1.397 . S
C1159 H1140 0.929 . S
C1159 C1156 1.404 . S
C1159 N1157 1.334 . S
C1160 H1152 0.930 . S
C1160 C1155 1.418 . S
C1160 C1156 1.353 . S
C1161 H1131 0.930 . S
C1161 N1162 1.330 . S
C1161 C1163 1.446 . S
N1162 Co1121 2.151 . S
N1162 C1161 1.330 . S
N1162 C1166 1.418 . S
C1163 H1142 0.929 . S
C1163 C1161 1.446 . S
C1163 C1164 1.332 . S
C1164 H1144 0.931 . S
C1164 C1163 1.332 . S
C1164 C1165 1.267 . S
C1165 H1133 0.929 . S
C1165 C1164 1.267 . S
C1165 C1166 1.251 . S
C1166 H1136 0.929 . S
C1166 N1162 1.418 . S
C1166 C1165 1.251 . S
C1167 H1134 0.930 . S
C1167 C1169 1.406 . S
C1167 C1172 1.261 . S
C1168 H1135 0.930 . S
C1168 N1170 1.325 . S
C1168 C1171 1.357 . S
C1169 H1137 0.928 . S
C1169 C1167 1.406 . S
C1169 N1170 1.261 . S
N1170 Co1121 2.214 . S
N1170 C1168 1.325 . S
N1170 C1169 1.261 . S
C1171 H1141 0.931 . S
C1171 C1168 1.357 . S
C1171 C1172 1.312 . S
C1172 H1143 0.930 . S
C1172 C1167 1.261 . S
C1172 C1171 1.312 . S
C1173 O1145 1.214 . S
C1173 O1153 1.234 . S
C1174 H1146 0.929 . S
C1174 C1177 1.391 . S
C1174 C1179 1.391 . S
C1175 H1147 0.929 . S
C1175 C1176 1.390 . S
C1175 N1178 1.391 . S
C1176 H1148 0.930 . S
C1176 C1175 1.390 . S
C1176 C1177 1.392 . S
C1177 H1149 0.929 . S
C1177 C1174 1.391 . S
C1177 C1176 1.392 . S
N1178 Co1122 2.257 . S
N1178 C1175 1.391 . S
N1178 C1179 1.388 . S
C1179 H1150 0.930 . S
C1179 C1174 1.391 . S
C1179 N1178 1.388 . S
Co1180 O1182 2.143 . S
Co1180 O1188 2.074 . S
Co1180 O1191 2.093 . S
Co1180 O1204 2.097 1_565 S
Co1180 N1221 2.151 . S
Co1180 N1229 2.214 . S
Co1181 O1182 2.160 1_545 S
Co1181 O1187 2.058 1_545 S
Co1181 O1197 2.057 . S
Co1181 O1212 2.037 . S
Co1181 N1216 2.145 . S
Co1181 N1237 2.257 . S
O1182 Co1180 2.143 . S
O1182 Co1181 2.160 1_565 S
C1183 O1184 1.278 1_565 S
C1183 O1191 1.224 . S
O1184 C1183 1.278 1_545 S
C1185 O1186 1.245 . S
C1185 O1197 1.232 1_565 S
O1186 C1185 1.245 . S
O1187 Co1181 2.058 1_565 S
O1187 C1213 1.269 . S
O1188 Co1180 2.074 . S
O1188 C1213 1.257 . S
H1189 C1214 0.930 . S
H1190 C1220 0.930 . S
O1191 Co1180 2.093 . S
O1191 C1183 1.224 . S
H1192 C1224 0.929 . S
H1193 C1226 0.930 . S
H1194 C1227 0.950 . S
H1195 C1225 0.929 . S
H1196 C1228 0.928 . S
O1197 Co1181 2.057 . S
O1197 C1185 1.232 1_545 S
H1198 C1217 0.929 . S
H1199 C1218 0.929 . S
H1200 C1230 0.931 . S
H1201 C1222 0.929 . S
H1202 C1231 0.930 . S
H1203 C1223 0.931 . S
O1204 Co1180 2.097 1_545 S
O1204 C1232 1.214 . S
H1205 C1233 0.929 . S
H1206 C1234 0.929 . S
H1207 C1235 0.930 . S
H1208 C1236 0.929 . S
H1209 C1238 0.930 . S
H1210 C1215 0.930 . S
H1211 C1219 0.930 . S
O1212 Co1181 2.037 . S
O1212 C1232 1.234 . S
C1213 O1187 1.269 . S
C1213 O1188 1.257 . S
C1214 H1189 0.930 . S
C1214 C1217 1.388 . S
C1214 C1219 1.418 . S
C1215 H1210 0.930 . S
C1215 C1218 1.404 . S
C1215 C1219 1.353 . S
N1216 Co1181 2.145 . S
N1216 C1217 1.397 . S
N1216 C1218 1.334 . S
C1217 H1198 0.929 . S
C1217 C1214 1.388 . S
C1217 N1216 1.397 . S
C1218 H1199 0.929 . S
C1218 C1215 1.404 . S
C1218 N1216 1.334 . S
C1219 H1211 0.930 . S
C1219 C1214 1.418 . S
C1219 C1215 1.353 . S
C1220 H1190 0.930 . S
C1220 N1221 1.330 . S
C1220 C1222 1.446 . S
N1221 Co1180 2.151 . S
N1221 C1220 1.330 . S
N1221 C1225 1.418 . S
C1222 H1201 0.929 . S
C1222 C1220 1.446 . S
C1222 C1223 1.332 . S
C1223 H1203 0.931 . S
C1223 C1222 1.332 . S
C1223 C1224 1.267 . S
C1224 H1192 0.929 . S
C1224 C1223 1.267 . S
C1224 C1225 1.251 . S
C1225 H1195 0.929 . S
C1225 N1221 1.418 . S
C1225 C1224 1.251 . S
C1226 H1193 0.930 . S
C1226 C1228 1.406 . S
C1226 C1231 1.261 . S
C1227 H1194 0.950 . S
C1227 N1229 1.325 . S
C1227 C1230 1.357 . S
C1228 H1196 0.928 . S
C1228 C1226 1.406 . S
C1228 N1229 1.261 . S
N1229 Co1180 2.214 . S
N1229 C1227 1.325 . S
N1229 C1228 1.261 . S
C1230 H1200 0.931 . S
C1230 C1227 1.357 . S
C1230 C1231 1.312 . S
C1231 H1202 0.930 . S
C1231 C1226 1.261 . S
C1231 C1230 1.312 . S
C1232 O1204 1.214 . S
C1232 O1212 1.234 . S
C1233 H1205 0.929 . S
C1233 C1236 1.391 . S
C1233 C1238 1.391 . S
C1234 H1206 0.929 . S
C1234 C1235 1.390 . S
C1234 N1237 1.391 . S
C1235 H1207 0.930 . S
C1235 C1234 1.390 . S
C1235 C1236 1.392 . S
C1236 H1208 0.929 . S
C1236 C1233 1.391 . S
C1236 C1235 1.392 . S
N1237 Co1181 2.257 . S
N1237 C1234 1.391 . S
N1237 C1238 1.388 . S
C1238 H1209 0.930 . S
C1238 C1233 1.391 . S
C1238 N1237 1.388 . S
Co1239 O1241 2.143 . S
Co1239 O1247 2.074 . S
Co1239 O1250 2.093 . S
Co1239 O1263 2.097 . S
Co1239 N1280 2.151 . S
Co1239 N1288 2.214 . S
Co1240 O1241 2.160 . S
Co1240 O1246 2.058 . S
Co1240 O1256 2.057 . S
Co1240 O1271 2.037 . S
Co1240 N1275 2.145 . S
Co1240 N1296 2.257 . S
O1241 Co1239 2.143 . S
O1241 Co1240 2.160 . S
C1242 O1243 1.278 . S
C1242 O1250 1.224 . S
O1243 C1242 1.278 . S
C1244 O1245 1.245 . S
C1244 O1256 1.232 . S
O1245 C1244 1.245 . S
O1246 Co1240 2.058 . S
O1246 C1272 1.269 . S
O1247 Co1239 2.074 . S
O1247 C1272 1.257 . S
H1248 C1273 0.930 . S
H1249 C1279 0.930 . S
O1250 Co1239 2.093 . S
O1250 C1242 1.224 . S
H1251 C1283 0.929 . S
H1252 C1285 0.930 . S
H1253 C1286 0.930 . S
H1254 C1284 0.929 . S
H1255 C1287 0.928 . S
O1256 Co1240 2.057 . S
O1256 C1244 1.232 . S
H1257 C1276 0.929 . S
H1258 C1277 0.929 . S
H1259 C1289 0.931 . S
H1260 C1281 0.929 . S
H1261 C1290 0.930 . S
H1262 C1282 0.931 . S
O1263 Co1239 2.097 . S
O1263 C1291 1.214 . S
H1264 C1292 0.929 . S
H1265 C1293 0.929 . S
H1266 C1294 0.930 1_545 S
H1267 C1295 0.929 . S
H1268 C1297 0.930 . S
H1269 C1274 0.930 1_545 S
H1270 C1278 0.930 1_545 S
O1271 Co1240 2.037 . S
O1271 C1291 1.234 . S
C1272 O1246 1.269 . S
C1272 O1247 1.257 . S
C1273 H1248 0.930 . S
C1273 C1276 1.388 . S
C1273 C1278 1.418 . S
C1274 H1269 0.930 1_565 S
C1274 C1277 1.404 . S
C1274 C1278 1.353 . S
N1275 Co1240 2.145 . S
N1275 C1276 1.397 . S
N1275 C1277 1.334 . S
C1276 H1257 0.929 . S
C1276 C1273 1.388 . S
C1276 N1275 1.397 . S
C1277 H1258 0.929 . S
C1277 C1274 1.404 . S
C1277 N1275 1.334 . S
C1278 H1270 0.930 1_565 S
C1278 C1273 1.418 . S
C1278 C1274 1.353 . S
C1279 H1249 0.930 . S
C1279 N1280 1.330 . S
C1279 C1281 1.446 . S
N1280 Co1239 2.151 . S
N1280 C1279 1.330 . S
N1280 C1284 1.418 . S
C1281 H1260 0.929 . S
C1281 C1279 1.446 . S
C1281 C1282 1.332 . S
C1282 H1262 0.931 . S
C1282 C1281 1.332 . S
C1282 C1283 1.267 . S
C1283 H1251 0.929 . S
C1283 C1282 1.267 . S
C1283 C1284 1.251 . S
C1284 H1254 0.929 . S
C1284 N1280 1.418 . S
C1284 C1283 1.251 . S
C1285 H1252 0.930 . S
C1285 C1287 1.406 . S
C1285 C1290 1.261 . S
C1286 H1253 0.930 . S
C1286 N1288 1.325 . S
C1286 C1289 1.357 . S
C1287 H1255 0.928 . S
C1287 C1285 1.406 . S
C1287 N1288 1.261 . S
N1288 Co1239 2.214 . S
N1288 C1286 1.325 . S
N1288 C1287 1.261 . S
C1289 H1259 0.931 . S
C1289 C1286 1.357 . S
C1289 C1290 1.312 . S
C1290 H1261 0.930 . S
C1290 C1285 1.261 . S
C1290 C1289 1.312 . S
C1291 O1263 1.214 . S
C1291 O1271 1.234 . S
C1292 H1264 0.929 . S
C1292 C1295 1.391 1_565 S
C1292 C1297 1.391 . S
C1293 H1265 0.929 . S
C1293 C1294 1.390 . S
C1293 N1296 1.391 . S
C1294 H1266 0.930 1_565 S
C1294 C1293 1.390 . S
C1294 C1295 1.392 1_565 S
C1295 H1267 0.929 . S
C1295 C1292 1.391 1_545 S
C1295 C1294 1.392 1_545 S
N1296 Co1240 2.257 . S
N1296 C1293 1.391 . S
N1296 C1297 1.388 . S
C1297 H1268 0.930 . S
C1297 C1292 1.391 . S
C1297 N1296 1.388 . S
Co1298 O1300 2.143 . S
Co1298 O1306 2.074 . S
Co1298 O1309 2.093 . S
Co1298 O1322 2.097 . S
Co1298 N1339 2.151 . S
Co1298 N1347 2.214 . S
Co1299 O1300 2.160 . S
Co1299 O1305 2.058 . S
Co1299 O1315 2.057 . S
Co1299 O1330 2.037 . S
Co1299 N1334 2.145 . S
Co1299 N1355 2.257 . S
O1300 Co1298 2.143 . S
O1300 Co1299 2.160 . S
C1301 O1302 1.278 . S
C1301 O1309 1.224 . S
O1302 C1301 1.278 . S
C1303 O1304 1.245 . S
C1303 O1315 1.232 . S
O1304 C1303 1.245 . S
O1305 Co1299 2.058 . S
O1305 C1331 1.269 . S
O1306 Co1298 2.074 . S
O1306 C1331 1.257 . S
H1307 C1332 0.930 . S
H1308 C1338 0.930 . S
O1309 Co1298 2.093 . S
O1309 C1301 1.224 . S
H1310 C1342 0.929 . S
H1311 C1344 0.930 . S
H1312 C1345 0.930 . S
H1313 C1343 0.929 . S
H1314 C1346 0.928 . S
O1315 Co1299 2.057 . S
O1315 C1303 1.232 . S
H1316 C1335 0.929 . S
H1317 C1336 0.929 . S
H1318 C1348 0.931 . S
H1319 C1340 0.929 . S
H1320 C1349 0.930 . S
H1321 C1341 0.931 . S
O1322 Co1298 2.097 . S
O1322 C1350 1.214 . S
H1323 C1351 0.929 1_655 S
H1324 C1352 0.929 . S
H1325 C1353 0.930 . S
H1326 C1354 0.929 1_655 S
H1327 C1356 0.930 . S
H1328 C1333 0.930 . S
H1329 C1337 0.930 . S
O1330 Co1299 2.037 . S
O1330 C1350 1.234 . S
C1331 O1305 1.269 . S
C1331 O1306 1.257 . S
C1332 H1307 0.930 . S
C1332 C1335 1.388 . S
C1332 C1337 1.418 . S
C1333 H1328 0.930 . S
C1333 C1336 1.404 . S
C1333 C1337 1.353 . S
N1334 Co1299 2.145 . S
N1334 C1335 1.397 . S
N1334 C1336 1.334 . S
C1335 H1316 0.929 . S
C1335 C1332 1.388 . S
C1335 N1334 1.397 . S
C1336 H1317 0.929 . S
C1336 C1333 1.404 . S
C1336 N1334 1.334 . S
C1337 H1329 0.930 . S
C1337 C1332 1.418 . S
C1337 C1333 1.353 . S
C1338 H1308 0.930 . S
C1338 N1339 1.330 . S
C1338 C1340 1.446 . S
N1339 Co1298 2.151 . S
N1339 C1338 1.330 . S
N1339 C1343 1.418 . S
C1340 H1319 0.929 . S
C1340 C1338 1.446 . S
C1340 C1341 1.332 . S
C1341 H1321 0.931 . S
C1341 C1340 1.332 . S
C1341 C1342 1.267 . S
C1342 H1310 0.929 . S
C1342 C1341 1.267 . S
C1342 C1343 1.251 . S
C1343 H1313 0.929 . S
C1343 N1339 1.418 . S
C1343 C1342 1.251 . S
C1344 H1311 0.930 . S
C1344 C1346 1.406 . S
C1344 C1349 1.261 . S
C1345 H1312 0.930 . S
C1345 N1347 1.325 . S
C1345 C1348 1.357 . S
C1346 H1314 0.928 . S
C1346 C1344 1.406 . S
C1346 N1347 1.261 . S
N1347 Co1298 2.214 . S
N1347 C1345 1.325 . S
N1347 C1346 1.261 . S
C1348 H1318 0.931 . S
C1348 C1345 1.357 . S
C1348 C1349 1.312 . S
C1349 H1320 0.930 . S
C1349 C1344 1.261 . S
C1349 C1348 1.312 . S
C1350 O1322 1.214 . S
C1350 O1330 1.234 . S
C1351 H1323 0.929 1_455 S
C1351 C1354 1.391 . S
C1351 C1356 1.391 . S
C1352 H1324 0.929 . S
C1352 C1353 1.390 . S
C1352 N1355 1.391 . S
C1353 H1325 0.930 . S
C1353 C1352 1.390 . S
C1353 C1354 1.392 . S
C1354 H1326 0.929 1_455 S
C1354 C1351 1.391 . S
C1354 C1353 1.392 . S
N1355 Co1299 2.257 . S
N1355 C1352 1.391 . S
N1355 C1356 1.388 . S
C1356 H1327 0.930 . S
C1356 C1351 1.391 . S
C1356 N1355 1.388 . S
Co1357 O1359 2.143 . S
Co1357 O1365 2.074 . S
Co1357 O1368 2.093 . S
Co1357 O1381 2.097 . S
Co1357 N1398 2.151 . S
Co1357 N1406 2.214 . S
Co1358 O1359 2.160 . S
Co1358 O1364 2.058 . S
Co1358 O1374 2.057 . S
Co1358 O1389 2.037 . S
Co1358 N1393 2.145 . S
Co1358 N1414 2.257 . S
O1359 Co1357 2.143 . S
O1359 Co1358 2.160 . S
C1360 O1361 1.278 . S
C1360 O1368 1.224 . S
O1361 C1360 1.278 . S
C1362 O1363 1.245 . S
C1362 O1374 1.232 . S
O1363 C1362 1.245 . S
O1364 Co1358 2.058 . S
O1364 C1390 1.269 . S
O1365 Co1357 2.074 . S
O1365 C1390 1.257 . S
H1366 C1391 0.930 . S
H1367 C1397 0.930 . S
O1368 Co1357 2.093 . S
O1368 C1360 1.224 . S
H1369 C1401 0.929 . S
H1370 C1403 0.930 . S
H1371 C1404 0.930 . S
H1372 C1402 0.929 . S
H1373 C1405 0.928 . S
O1374 Co1358 2.057 . S
O1374 C1362 1.232 . S
H1375 C1394 0.929 . S
H1376 C1395 0.929 . S
H1377 C1407 0.931 . S
H1378 C1399 0.929 . S
H1379 C1408 0.930 . S
H1380 C1400 0.931 . S
O1381 Co1357 2.097 . S
O1381 C1409 1.214 . S
H1382 C1410 0.929 . S
H1383 C1411 0.929 . S
H1384 C1412 0.930 . S
H1385 C1413 0.929 . S
H1386 C1415 0.930 . S
H1387 C1392 0.930 . S
H1388 C1396 0.930 . S
O1389 Co1358 2.037 . S
O1389 C1409 1.234 . S
C1390 O1364 1.269 . S
C1390 O1365 1.257 . S
C1391 H1366 0.930 . S
C1391 C1394 1.388 . S
C1391 C1396 1.418 . S
C1392 H1387 0.930 . S
C1392 C1395 1.404 . S
C1392 C1396 1.353 . S
N1393 Co1358 2.145 . S
N1393 C1394 1.397 . S
N1393 C1395 1.334 . S
C1394 H1375 0.929 . S
C1394 C1391 1.388 . S
C1394 N1393 1.397 . S
C1395 H1376 0.929 . S
C1395 C1392 1.404 . S
C1395 N1393 1.334 . S
C1396 H1388 0.930 . S
C1396 C1391 1.418 . S
C1396 C1392 1.353 . S
C1397 H1367 0.930 . S
C1397 N1398 1.330 . S
C1397 C1399 1.446 . S
N1398 Co1357 2.151 . S
N1398 C1397 1.330 . S
N1398 C1402 1.418 . S
C1399 H1378 0.929 . S
C1399 C1397 1.446 . S
C1399 C1400 1.332 . S
C1400 H1380 0.931 . S
C1400 C1399 1.332 . S
C1400 C1401 1.267 . S
C1401 H1369 0.929 . S
C1401 C1400 1.267 . S
C1401 C1402 1.251 . S
C1402 H1372 0.929 . S
C1402 N1398 1.418 . S
C1402 C1401 1.251 . S
C1403 H1370 0.930 . S
C1403 C1405 1.406 . S
C1403 C1408 1.261 . S
C1404 H1371 0.930 . S
C1404 N1406 1.325 . S
C1404 C1407 1.357 . S
C1405 H1373 0.928 . S
C1405 C1403 1.406 . S
C1405 N1406 1.261 . S
N1406 Co1357 2.214 . S
N1406 C1404 1.325 . S
N1406 C1405 1.261 . S
C1407 H1377 0.931 . S
C1407 C1404 1.357 . S
C1407 C1408 1.312 . S
C1408 H1379 0.930 . S
C1408 C1403 1.261 . S
C1408 C1407 1.312 . S
C1409 O1381 1.214 . S
C1409 O1389 1.234 . S
C1410 H1382 0.929 . S
C1410 C1413 1.391 . S
C1410 C1415 1.391 . S
C1411 H1383 0.929 . S
C1411 C1412 1.390 . S
C1411 N1414 1.391 . S
C1412 H1384 0.930 . S
C1412 C1411 1.390 . S
C1412 C1413 1.392 . S
C1413 H1385 0.929 . S
C1413 C1410 1.391 . S
C1413 C1412 1.392 . S
N1414 Co1358 2.257 . S
N1414 C1411 1.391 . S
N1414 C1415 1.388 . S
C1415 H1386 0.930 . S
C1415 C1410 1.391 . S
C1415 N1414 1.388 . S
Co1416 O1418 2.143 . S
Co1416 O1424 2.074 . S
Co1416 O1427 2.093 . S
Co1416 O1440 2.097 . S
Co1416 N1457 2.151 . S
Co1416 N1465 2.214 . S
Co1417 O1418 2.160 . S
Co1417 O1423 2.058 . S
Co1417 O1433 2.057 . S
Co1417 O1448 2.037 . S
Co1417 N1452 2.145 . S
Co1417 N1473 2.257 . S
O1418 Co1416 2.143 . S
O1418 Co1417 2.160 . S
C1419 O1420 1.278 . S
C1419 O1427 1.224 . S
O1420 C1419 1.278 . S
C1421 O1422 1.245 . S
C1421 O1433 1.232 . S
O1422 C1421 1.245 . S
O1423 Co1417 2.058 . S
O1423 C1449 1.269 . S
O1424 Co1416 2.074 . S
O1424 C1449 1.257 . S
H1425 C1450 0.930 . S
H1426 C1456 0.930 . S
O1427 Co1416 2.093 . S
O1427 C1419 1.224 . S
H1428 C1460 0.929 . S
H1429 C1462 0.930 . S
H1430 C1463 0.930 1_556 S
H1431 C1461 0.917 1_554 S
H1432 C1464 0.928 . S
O1433 Co1417 2.057 . S
O1433 C1421 1.232 . S
H1434 C1453 0.929 . S
H1435 C1454 0.929 . S
H1436 C1466 0.931 . S
H1437 C1458 0.929 . S
H1438 C1467 0.930 . S
H1439 C1459 0.931 . S
O1440 Co1416 2.097 . S
O1440 C1468 1.214 . S
H1441 C1469 0.929 . S
H1442 C1470 0.929 . S
H1443 C1471 0.930 . S
H1444 C1472 0.929 . S
H1445 C1474 0.930 . S
H1446 C1451 0.930 . S
H1447 C1455 0.930 . S
O1448 Co1417 2.037 . S
O1448 C1468 1.234 . S
C1449 O1423 1.269 . S
C1449 O1424 1.257 . S
C1450 H1425 0.930 . S
C1450 C1453 1.388 . S
C1450 C1455 1.418 . S
C1451 H1446 0.930 . S
C1451 C1454 1.404 . S
C1451 C1455 1.353 . S
N1452 Co1417 2.145 . S
N1452 C1453 1.397 . S
N1452 C1454 1.334 . S
C1453 H1434 0.929 . S
C1453 C1450 1.388 . S
C1453 N1452 1.397 . S
C1454 H1435 0.929 . S
C1454 C1451 1.404 . S
C1454 N1452 1.334 . S
C1455 H1447 0.930 . S
C1455 C1450 1.418 . S
C1455 C1451 1.353 . S
C1456 H1426 0.930 . S
C1456 N1457 1.330 . S
C1456 C1458 1.446 . S
N1457 Co1416 2.151 . S
N1457 C1456 1.330 . S
N1457 C1461 1.428 . S
C1458 H1437 0.929 . S
C1458 C1456 1.446 . S
C1458 C1459 1.329 1_556 S
C1459 H1439 0.931 . S
C1459 C1458 1.329 1_554 S
C1459 C1460 1.270 . S
C1460 H1428 0.929 . S
C1460 C1459 1.270 . S
C1460 C1461 1.253 1_554 S
C1461 H1431 0.917 1_556 S
C1461 N1457 1.428 . S
C1461 C1460 1.253 1_556 S
C1462 H1429 0.930 . S
C1462 C1464 1.406 . S
C1462 C1467 1.261 . S
C1463 H1430 0.930 1_554 S
C1463 N1465 1.325 1_554 S
C1463 C1466 1.357 . S
C1464 H1432 0.928 . S
C1464 C1462 1.406 . S
C1464 N1465 1.261 1_554 S
N1465 Co1416 2.214 . S
N1465 C1463 1.325 1_556 S
N1465 C1464 1.261 1_556 S
C1466 H1436 0.931 . S
C1466 C1463 1.357 . S
C1466 C1467 1.312 . S
C1467 H1438 0.930 . S
C1467 C1462 1.261 . S
C1467 C1466 1.312 . S
C1468 O1440 1.214 . S
C1468 O1448 1.234 . S
C1469 H1441 0.929 . S
C1469 C1472 1.391 . S
C1469 C1474 1.391 . S
C1470 H1442 0.929 . S
C1470 C1471 1.390 . S
C1470 N1473 1.391 . S
C1471 H1443 0.930 . S
C1471 C1470 1.390 . S
C1471 C1472 1.392 . S
C1472 H1444 0.929 . S
C1472 C1469 1.391 . S
C1472 C1471 1.392 . S
N1473 Co1417 2.257 . S
N1473 C1470 1.391 . S
N1473 C1474 1.388 . S
C1474 H1445 0.930 . S
C1474 C1469 1.391 . S
C1474 N1473 1.388 . S
Co1475 O1477 2.143 . S
Co1475 O1483 2.074 . S
Co1475 O1486 2.093 . S
Co1475 O1499 2.097 . S
Co1475 N1516 2.151 . S
Co1475 N1524 2.214 . S
Co1476 O1477 2.160 . S
Co1476 O1482 2.058 . S
Co1476 O1492 2.057 . S
Co1476 O1507 2.037 . S
Co1476 N1511 2.145 . S
Co1476 N1532 2.257 . S
O1477 Co1475 2.143 . S
O1477 Co1476 2.160 . S
C1478 O1479 1.278 . S
C1478 O1486 1.224 . S
O1479 C1478 1.278 . S
C1480 O1481 1.245 . S
C1480 O1492 1.232 . S
O1481 C1480 1.245 . S
O1482 Co1476 2.058 . S
O1482 C1508 1.269 . S
O1483 Co1475 2.074 . S
O1483 C1508 1.257 . S
H1484 C1509 0.930 . S
H1485 C1515 0.930 . S
O1486 Co1475 2.093 . S
O1486 C1478 1.224 . S
H1487 C1519 0.929 . S
H1488 C1521 0.930 . S
H1489 C1522 0.930 . S
H1490 C1520 0.929 . S
H1491 C1523 0.928 . S
O1492 Co1476 2.057 . S
O1492 C1480 1.232 . S
H1493 C1512 0.929 . S
H1494 C1513 0.929 . S
H1495 C1525 0.931 . S
H1496 C1517 0.929 . S
H1497 C1526 0.930 . S
H1498 C1518 0.931 . S
O1499 Co1475 2.097 . S
O1499 C1527 1.214 . S
H1500 C1528 0.929 1_556 S
H1501 C1529 0.929 . S
H1502 C1530 0.930 . S
H1503 C1531 0.929 1_556 S
H1504 C1533 0.930 . S
H1505 C1510 0.930 . S
H1506 C1514 0.930 . S
O1507 Co1476 2.037 . S
O1507 C1527 1.234 . S
C1508 O1482 1.269 . S
C1508 O1483 1.257 . S
C1509 H1484 0.930 . S
C1509 C1512 1.388 . S
C1509 C1514 1.418 . S
C1510 H1505 0.930 . S
C1510 C1513 1.404 . S
C1510 C1514 1.353 . S
N1511 Co1476 2.145 . S
N1511 C1512 1.397 . S
N1511 C1513 1.334 . S
C1512 H1493 0.929 . S
C1512 C1509 1.388 . S
C1512 N1511 1.397 . S
C1513 H1494 0.929 . S
C1513 C1510 1.404 . S
C1513 N1511 1.334 . S
C1514 H1506 0.930 . S
C1514 C1509 1.418 . S
C1514 C1510 1.353 . S
C1515 H1485 0.930 . S
C1515 N1516 1.330 . S
C1515 C1517 1.446 . S
N1516 Co1475 2.151 . S
N1516 C1515 1.330 . S
N1516 C1520 1.418 . S
C1517 H1496 0.929 . S
C1517 C1515 1.446 . S
C1517 C1518 1.332 . S
C1518 H1498 0.931 . S
C1518 C1517 1.332 . S
C1518 C1519 1.267 . S
C1519 H1487 0.929 . S
C1519 C1518 1.267 . S
C1519 C1520 1.251 . S
C1520 H1490 0.929 . S
C1520 N1516 1.418 . S
C1520 C1519 1.251 . S
C1521 H1488 0.930 . S
C1521 C1523 1.406 . S
C1521 C1526 1.261 . S
C1522 H1489 0.930 . S
C1522 N1524 1.325 . S
C1522 C1525 1.357 . S
C1523 H1491 0.928 . S
C1523 C1521 1.406 . S
C1523 N1524 1.261 . S
N1524 Co1475 2.214 . S
N1524 C1522 1.325 . S
N1524 C1523 1.261 . S
C1525 H1495 0.931 . S
C1525 C1522 1.357 . S
C1525 C1526 1.312 . S
C1526 H1497 0.930 . S
C1526 C1521 1.261 . S
C1526 C1525 1.312 . S
C1527 O1499 1.214 . S
C1527 O1507 1.234 . S
C1528 H1500 0.929 1_554 S
C1528 C1531 1.391 . S
C1528 C1533 1.391 . S
C1529 H1501 0.929 . S
C1529 C1530 1.390 . S
C1529 N1532 1.391 . S
C1530 H1502 0.930 . S
C1530 C1529 1.390 . S
C1530 C1531 1.392 . S
C1531 H1503 0.929 1_554 S
C1531 C1528 1.391 . S
C1531 C1530 1.392 . S
N1532 Co1476 2.257 . S
N1532 C1529 1.391 . S
N1532 C1533 1.388 . S
C1533 H1504 0.930 . S
C1533 C1528 1.391 . S
C1533 N1532 1.388 . S
Co1534 O1536 2.143 . S
Co1534 O1542 2.074 . S
Co1534 O1545 2.093 . S
Co1534 O1558 2.097 . S
Co1534 N1575 2.151 . S
Co1534 N1583 2.214 . S
Co1535 O1536 2.160 . S
Co1535 O1541 2.058 . S
Co1535 O1551 2.057 . S
Co1535 O1566 2.037 . S
Co1535 N1570 2.145 . S
Co1535 N1591 2.257 . S
O1536 Co1534 2.143 . S
O1536 Co1535 2.160 . S
C1537 O1538 1.278 . S
C1537 O1545 1.224 . S
O1538 C1537 1.278 . S
C1539 O1540 1.245 . S
C1539 O1551 1.232 . S
O1540 C1539 1.245 . S
O1541 Co1535 2.058 . S
O1541 C1567 1.269 . S
O1542 Co1534 2.074 . S
O1542 C1567 1.257 . S
H1543 C1568 0.930 . S
H1544 C1574 0.930 . S
O1545 Co1534 2.093 . S
O1545 C1537 1.224 . S
H1546 C1578 0.929 . S
H1547 C1580 0.930 . S
H1548 C1581 0.930 . S
H1549 C1579 0.929 . S
H1550 C1582 0.928 . S
O1551 Co1535 2.057 . S
O1551 C1539 1.232 . S
H1552 C1571 0.929 . S
H1553 C1572 0.929 . S
H1554 C1584 0.931 . S
H1555 C1576 0.929 . S
H1556 C1585 0.930 . S
H1557 C1577 0.931 . S
O1558 Co1534 2.097 . S
O1558 C1586 1.214 . S
H1559 C1587 0.929 . S
H1560 C1588 0.929 . S
H1561 C1589 0.930 . S
H1562 C1590 0.929 . S
H1563 C1592 0.930 . S
H1564 C1569 0.930 . S
H1565 C1573 0.930 . S
O1566 Co1535 2.037 . S
O1566 C1586 1.234 . S
C1567 O1541 1.269 . S
C1567 O1542 1.257 . S
C1568 H1543 0.930 . S
C1568 C1571 1.388 . S
C1568 C1573 1.418 . S
C1569 H1564 0.930 . S
C1569 C1572 1.404 . S
C1569 C1573 1.353 . S
N1570 Co1535 2.145 . S
N1570 C1571 1.397 . S
N1570 C1572 1.334 . S
C1571 H1552 0.929 . S
C1571 C1568 1.388 . S
C1571 N1570 1.397 . S
C1572 H1553 0.929 . S
C1572 C1569 1.404 . S
C1572 N1570 1.334 . S
C1573 H1565 0.930 . S
C1573 C1568 1.418 . S
C1573 C1569 1.353 . S
C1574 H1544 0.930 . S
C1574 N1575 1.330 . S
C1574 C1576 1.446 . S
N1575 Co1534 2.151 . S
N1575 C1574 1.330 . S
N1575 C1579 1.418 . S
C1576 H1555 0.929 . S
C1576 C1574 1.446 . S
C1576 C1577 1.332 . S
C1577 H1557 0.931 . S
C1577 C1576 1.332 . S
C1577 C1578 1.267 . S
C1578 H1546 0.929 . S
C1578 C1577 1.267 . S
C1578 C1579 1.251 . S
C1579 H1549 0.929 . S
C1579 N1575 1.418 . S
C1579 C1578 1.251 . S
C1580 H1547 0.930 . S
C1580 C1582 1.406 . S
C1580 C1585 1.261 . S
C1581 H1548 0.930 . S
C1581 N1583 1.325 . S
C1581 C1584 1.357 . S
C1582 H1550 0.928 . S
C1582 C1580 1.406 . S
C1582 N1583 1.261 . S
N1583 Co1534 2.214 . S
N1583 C1581 1.325 . S
N1583 C1582 1.261 . S
C1584 H1554 0.931 . S
C1584 C1581 1.357 . S
C1584 C1585 1.312 . S
C1585 H1556 0.930 . S
C1585 C1580 1.261 . S
C1585 C1584 1.312 . S
C1586 O1558 1.214 . S
C1586 O1566 1.234 . S
C1587 H1559 0.929 . S
C1587 C1590 1.391 . S
C1587 C1592 1.391 1_455 S
C1588 H1560 0.929 . S
C1588 C1589 1.390 1_655 S
C1588 N1591 1.391 . S
C1589 H1561 0.930 . S
C1589 C1588 1.390 1_455 S
C1589 C1590 1.392 . S
C1590 H1562 0.929 . S
C1590 C1587 1.391 . S
C1590 C1589 1.392 . S
N1591 Co1535 2.257 . S
N1591 C1588 1.391 . S
N1591 C1592 1.388 . S
C1592 H1563 0.930 . S
C1592 C1587 1.391 1_655 S
C1592 N1591 1.388 . S
Co1593 O1595 2.143 1_455 S
Co1593 O1601 2.074 1_455 S
Co1593 O1604 2.093 . S
Co1593 O1617 2.097 . S
Co1593 N1634 2.151 1_455 S
Co1593 N1642 2.214 . S
Co1594 O1595 2.160 . S
Co1594 O1600 2.058 . S
Co1594 O1610 2.057 . S
Co1594 O1625 2.037 1_655 S
Co1594 N1629 2.147 . S
Co1594 N1650 2.257 1_655 S
O1595 Co1593 2.143 1_655 S
O1595 Co1594 2.160 . S
C1596 O1597 1.278 . S
C1596 O1604 1.224 . S
O1597 C1596 1.278 . S
C1598 O1599 1.245 . S
C1598 O1610 1.232 . S
O1599 C1598 1.245 . S
O1600 Co1594 2.058 . S
O1600 C1626 1.269 . S
O1601 Co1593 2.074 1_655 S
O1601 C1626 1.257 . S
H1602 C1627 0.930 . S
H1603 C1633 0.930 . S
O1604 Co1593 2.093 . S
O1604 C1596 1.224 . S
H1605 C1637 0.929 . S
H1606 C1639 0.930 . S
H1607 C1640 0.930 . S
H1608 C1638 0.929 . S
H1609 C1641 0.928 . S
O1610 Co1594 2.057 . S
O1610 C1598 1.232 . S
H1611 C1630 0.929 . S
H1612 C1631 0.929 . S
H1613 C1643 0.931 . S
H1614 C1635 0.929 . S
H1615 C1644 0.930 . S
H1616 C1636 0.931 . S
O1617 Co1593 2.097 . S
O1617 C1645 1.214 . S
H1618 C1646 0.929 . S
H1619 C1647 0.929 . S
H1620 C1648 0.930 . S
H1621 C1649 0.929 . S
H1622 C1651 0.930 . S
H1623 C1628 0.930 . S
H1624 C1632 0.930 1_545 S
O1625 Co1594 2.037 1_455 S
O1625 C1645 1.234 . S
C1626 O1600 1.269 . S
C1626 O1601 1.257 . S
C1627 H1602 0.930 . S
C1627 C1630 1.388 . S
C1627 C1632 1.418 . S
C1628 H1623 0.930 . S
C1628 C1631 1.404 . S
C1628 C1632 1.353 1_655 S
N1629 Co1594 2.147 . S
N1629 C1630 1.396 1_655 S
N1629 C1631 1.333 . S
C1630 H1611 0.929 . S
C1630 C1627 1.388 . S
C1630 N1629 1.396 1_455 S
C1631 H1612 0.929 . S
C1631 C1628 1.404 . S
C1631 N1629 1.333 . S
C1632 H1624 0.930 1_565 S
C1632 C1627 1.418 . S
C1632 C1628 1.353 1_455 S
C1633 H1603 0.930 . S
C1633 N1634 1.330 . S
C1633 C1635 1.446 . S
N1634 Co1593 2.151 1_655 S
N1634 C1633 1.330 . S
N1634 C1638 1.418 . S
C1635 H1614 0.929 . S
C1635 C1633 1.446 . S
C1635 C1636 1.332 . S
C1636 H1616 0.931 . S
C1636 C1635 1.332 . S
C1636 C1637 1.267 . S
C1637 H1605 0.929 . S
C1637 C1636 1.267 . S
C1637 C1638 1.251 . S
C1638 H1608 0.929 . S
C1638 N1634 1.418 . S
C1638 C1637 1.251 . S
C1639 H1606 0.930 . S
C1639 C1641 1.406 . S
C1639 C1644 1.261 . S
C1640 H1607 0.930 . S
C1640 N1642 1.325 . S
C1640 C1643 1.357 . S
C1641 H1609 0.928 . S
C1641 C1639 1.406 . S
C1641 N1642 1.261 . S
N1642 Co1593 2.214 . S
N1642 C1640 1.325 . S
N1642 C1641 1.261 . S
C1643 H1613 0.931 . S
C1643 C1640 1.357 . S
C1643 C1644 1.312 . S
C1644 H1615 0.930 . S
C1644 C1639 1.261 . S
C1644 C1643 1.312 . S
C1645 O1617 1.214 . S
C1645 O1625 1.234 . S
C1646 H1618 0.929 . S
C1646 C1649 1.391 . S
C1646 C1651 1.391 . S
C1647 H1619 0.929 . S
C1647 C1648 1.390 . S
C1647 N1650 1.391 . S
C1648 H1620 0.930 . S
C1648 C1647 1.390 . S
C1648 C1649 1.392 . S
C1649 H1621 0.929 . S
C1649 C1646 1.391 . S
C1649 C1648 1.392 . S
N1650 Co1594 2.257 1_455 S
N1650 C1647 1.391 . S
N1650 C1651 1.388 . S
C1651 H1622 0.930 . S
C1651 C1646 1.391 . S
C1651 N1650 1.388 . S
Co1652 O1654 2.143 . S
Co1652 O1660 2.074 . S
Co1652 O1663 2.093 . S
Co1652 O1676 2.097 . S
Co1652 N1693 2.151 . S
Co1652 N1701 2.214 . S
Co1653 O1654 2.160 . S
Co1653 O1659 2.058 . S
Co1653 O1669 2.057 . S
Co1653 O1684 2.037 . S
Co1653 N1688 2.145 . S
Co1653 N1709 2.257 . S
O1654 Co1652 2.143 . S
O1654 Co1653 2.160 . S
C1655 O1656 1.278 . S
C1655 O1663 1.224 . S
O1656 C1655 1.278 . S
C1657 O1658 1.245 . S
C1657 O1669 1.232 . S
O1658 C1657 1.245 . S
O1659 Co1653 2.058 . S
O1659 C1685 1.269 . S
O1660 Co1652 2.074 . S
O1660 C1685 1.257 . S
H1661 C1686 0.930 . S
H1662 C1692 0.930 . S
O1663 Co1652 2.093 . S
O1663 C1655 1.224 . S
H1664 C1696 0.929 . S
H1665 C1698 0.930 . S
H1666 C1699 0.930 . S
H1667 C1697 0.929 . S
H1668 C1700 0.928 . S
O1669 Co1653 2.057 . S
O1669 C1657 1.232 . S
H1670 C1689 0.929 . S
H1671 C1690 0.929 . S
H1672 C1702 0.931 . S
H1673 C1694 0.929 . S
H1674 C1703 0.930 . S
H1675 C1695 0.931 . S
O1676 Co1652 2.097 . S
O1676 C1704 1.214 . S
H1677 C1705 0.929 . S
H1678 C1706 0.929 . S
H1679 C1707 0.930 1_554 S
H1680 C1708 0.929 . S
H1681 C1710 0.930 . S
H1682 C1687 0.930 1_554 S
H1683 C1691 0.930 1_554 S
O1684 Co1653 2.037 . S
O1684 C1704 1.234 . S
C1685 O1659 1.269 . S
C1685 O1660 1.257 . S
C1686 H1661 0.930 . S
C1686 C1689 1.388 . S
C1686 C1691 1.418 . S
C1687 H1682 0.930 1_556 S
C1687 C1690 1.404 . S
C1687 C1691 1.353 . S
N1688 Co1653 2.145 . S
N1688 C1689 1.397 . S
N1688 C1690 1.334 . S
C1689 H1670 0.929 . S
C1689 C1686 1.388 . S
C1689 N1688 1.397 . S
C1690 H1671 0.929 . S
C1690 C1687 1.404 . S
C1690 N1688 1.334 . S
C1691 H1683 0.930 1_556 S
C1691 C1686 1.418 . S
C1691 C1687 1.353 . S
C1692 H1662 0.930 . S
C1692 N1693 1.330 . S
C1692 C1694 1.446 . S
N1693 Co1652 2.151 . S
N1693 C1692 1.330 . S
N1693 C1697 1.418 . S
C1694 H1673 0.929 . S
C1694 C1692 1.446 . S
C1694 C1695 1.332 . S
C1695 H1675 0.931 . S
C1695 C1694 1.332 . S
C1695 C1696 1.267 . S
C1696 H1664 0.929 . S
C1696 C1695 1.267 . S
C1696 C1697 1.251 . S
C1697 H1667 0.929 . S
C1697 N1693 1.418 . S
C1697 C1696 1.251 . S
C1698 H1665 0.930 . S
C1698 C1700 1.406 . S
C1698 C1703 1.261 . S
C1699 H1666 0.930 . S
C1699 N1701 1.325 . S
C1699 C1702 1.357 . S
C1700 H1668 0.928 . S
C1700 C1698 1.406 . S
C1700 N1701 1.261 . S
N1701 Co1652 2.214 . S
N1701 C1699 1.325 . S
N1701 C1700 1.261 . S
C1702 H1672 0.931 . S
C1702 C1699 1.357 . S
C1702 C1703 1.312 . S
C1703 H1674 0.930 . S
C1703 C1698 1.261 . S
C1703 C1702 1.312 . S
C1704 O1676 1.214 . S
C1704 O1684 1.234 . S
C1705 H1677 0.929 . S
C1705 C1708 1.391 1_556 S
C1705 C1710 1.391 . S
C1706 H1678 0.929 . S
C1706 C1707 1.390 . S
C1706 N1709 1.391 . S
C1707 H1679 0.930 1_556 S
C1707 C1706 1.390 . S
C1707 C1708 1.392 1_556 S
C1708 H1680 0.929 . S
C1708 C1705 1.391 1_554 S
C1708 C1707 1.392 1_554 S
N1709 Co1653 2.257 . S
N1709 C1706 1.391 . S
N1709 C1710 1.388 . S
C1710 H1681 0.930 . S
C1710 C1705 1.391 . S
C1710 N1709 1.388 . S
Co1711 O1713 2.143 . S
Co1711 O1719 2.074 . S
Co1711 O1722 2.093 . S
Co1711 O1735 2.097 1_455 S
Co1711 N1752 2.165 . S
Co1711 N1760 2.214 . S
Co1712 O1713 2.160 1_655 S
Co1712 O1718 2.058 1_656 S
Co1712 O1728 2.057 1_556 S
Co1712 O1743 2.037 . S
Co1712 N1747 2.145 . S
Co1712 N1768 2.257 . S
O1713 Co1711 2.143 . S
O1713 Co1712 2.160 1_455 S
C1714 O1715 1.278 1_455 S
C1714 O1722 1.224 . S
O1715 C1714 1.278 1_655 S
C1716 O1717 1.245 . S
C1716 O1728 1.232 1_455 S
O1717 C1716 1.245 . S
O1718 Co1712 2.058 1_454 S
O1718 C1744 1.234 1_554 S
O1719 Co1711 2.074 . S
O1719 C1744 1.288 . S
H1720 C1745 0.930 . S
H1721 C1751 0.930 . S
O1722 Co1711 2.093 . S
O1722 C1714 1.224 . S
H1723 C1755 0.929 . S
H1724 C1757 0.930 . S
H1725 C1758 0.930 . S
H1726 C1756 0.929 1_556 S
H1727 C1759 0.928 . S
O1728 Co1712 2.057 1_554 S
O1728 C1716 1.232 1_655 S
H1729 C1748 0.929 . S
H1730 C1749 0.929 . S
H1731 C1761 0.931 . S
H1732 C1753 0.929 . S
H1733 C1762 0.930 . S
H1734 C1754 0.931 . S
O1735 Co1711 2.097 1_655 S
O1735 C1763 1.214 . S
H1736 C1764 0.929 . S
H1737 C1765 0.929 . S
H1738 C1766 0.930 . S
H1739 C1767 0.929 . S
H1740 C1769 0.930 . S
H1741 C1746 0.930 . S
H1742 C1750 0.930 . S
O1743 Co1712 2.037 . S
O1743 C1763 1.234 . S
C1744 O1718 1.234 1_556 S
C1744 O1719 1.288 . S
C1745 H1720 0.930 . S
C1745 C1748 1.388 . S
C1745 C1750 1.418 . S
C1746 H1741 0.930 . S
C1746 C1749 1.404 . S
C1746 C1750 1.353 1_554 S
N1747 Co1712 2.145 . S
N1747 C1748 1.397 . S
N1747 C1749 1.334 1_556 S
C1748 H1729 0.929 . S
C1748 C1745 1.388 . S
C1748 N1747 1.397 . S
C1749 H1730 0.929 . S
C1749 C1746 1.404 . S
C1749 N1747 1.334 1_554 S
C1750 H1742 0.930 . S
C1750 C1745 1.418 . S
C1750 C1746 1.353 1_556 S
C1751 H1721 0.930 . S
C1751 N1752 1.306 1_554 S
C1751 C1753 1.446 . S
N1752 Co1711 2.165 . S
N1752 C1751 1.306 1_556 S
N1752 C1756 1.433 1_556 S
C1753 H1732 0.929 . S
C1753 C1751 1.446 . S
C1753 C1754 1.332 . S
C1754 H1734 0.931 . S
C1754 C1753 1.332 . S
C1754 C1755 1.267 . S
C1755 H1723 0.929 . S
C1755 C1754 1.267 . S
C1755 C1756 1.251 . S
C1756 H1726 0.929 1_554 S
C1756 N1752 1.433 1_554 S
C1756 C1755 1.251 . S
C1757 H1724 0.930 . S
C1757 C1759 1.406 . S
C1757 C1762 1.261 . S
C1758 H1725 0.930 . S
C1758 N1760 1.325 . S
C1758 C1761 1.357 . S
C1759 H1727 0.928 . S
C1759 C1757 1.406 . S
C1759 N1760 1.261 . S
N1760 Co1711 2.214 . S
N1760 C1758 1.325 . S
N1760 C1759 1.261 . S
C1761 H1731 0.931 . S
C1761 C1758 1.357 . S
C1761 C1762 1.312 . S
C1762 H1733 0.930 . S
C1762 C1757 1.261 . S
C1762 C1761 1.312 . S
C1763 O1735 1.214 . S
C1763 O1743 1.234 . S
C1764 H1736 0.929 . S
C1764 C1767 1.391 . S
C1764 C1769 1.391 . S
C1765 H1737 0.929 . S
C1765 C1766 1.390 . S
C1765 N1768 1.391 . S
C1766 H1738 0.930 . S
C1766 C1765 1.390 . S
C1766 C1767 1.392 . S
C1767 H1739 0.929 . S
C1767 C1764 1.391 . S
C1767 C1766 1.392 . S
N1768 Co1712 2.257 . S
N1768 C1765 1.391 . S
N1768 C1769 1.388 . S
C1769 H1740 0.930 . S
C1769 C1764 1.391 . S
C1769 N1768 1.388 . S
Co1770 O1772 2.143 . S
Co1770 O1778 2.074 . S
Co1770 O1781 2.093 . S
Co1770 O1794 2.097 . S
Co1770 N1811 2.151 . S
Co1770 N1819 2.214 . S
Co1771 O1772 2.160 . S
Co1771 O1777 2.058 . S
Co1771 O1787 2.057 . S
Co1771 O1802 2.037 . S
Co1771 N1806 2.145 . S
Co1771 N1827 2.257 . S
O1772 Co1770 2.143 . S
O1772 Co1771 2.160 . S
C1773 O1774 1.278 . S
C1773 O1781 1.224 . S
O1774 C1773 1.278 . S
C1775 O1776 1.245 . S
C1775 O1787 1.232 . S
O1776 C1775 1.245 . S
O1777 Co1771 2.058 . S
O1777 C1803 1.269 . S
O1778 Co1770 2.074 . S
O1778 C1803 1.257 . S
H1779 C1804 0.930 . S
H1780 C1810 0.930 . S
O1781 Co1770 2.093 . S
O1781 C1773 1.224 . S
H1782 C1814 0.929 . S
H1783 C1816 0.930 . S
H1784 C1817 0.930 . S
H1785 C1815 0.929 . S
H1786 C1818 0.928 . S
O1787 Co1771 2.057 . S
O1787 C1775 1.232 . S
H1788 C1807 0.929 . S
H1789 C1808 0.929 . S
H1790 C1820 0.931 . S
H1791 C1812 0.929 . S
H1792 C1821 0.930 . S
H1793 C1813 0.931 . S
O1794 Co1770 2.097 . S
O1794 C1822 1.214 . S
H1795 C1823 0.929 . S
H1796 C1824 0.929 . S
H1797 C1825 0.930 . S
H1798 C1826 0.929 . S
H1799 C1828 0.930 . S
H1800 C1805 0.930 . S
H1801 C1809 0.930 . S
O1802 Co1771 2.037 . S
O1802 C1822 1.234 . S
C1803 O1777 1.269 . S
C1803 O1778 1.257 . S
C1804 H1779 0.930 . S
C1804 C1807 1.388 . S
C1804 C1809 1.418 . S
C1805 H1800 0.930 . S
C1805 C1808 1.404 . S
C1805 C1809 1.353 . S
N1806 Co1771 2.145 . S
N1806 C1807 1.397 . S
N1806 C1808 1.334 . S
C1807 H1788 0.929 . S
C1807 C1804 1.388 . S
C1807 N1806 1.397 . S
C1808 H1789 0.929 . S
C1808 C1805 1.404 . S
C1808 N1806 1.334 . S
C1809 H1801 0.930 . S
C1809 C1804 1.418 . S
C1809 C1805 1.353 . S
C1810 H1780 0.930 . S
C1810 N1811 1.330 . S
C1810 C1812 1.446 . S
N1811 Co1770 2.151 . S
N1811 C1810 1.330 . S
N1811 C1815 1.418 . S
C1812 H1791 0.929 . S
C1812 C1810 1.446 . S
C1812 C1813 1.332 . S
C1813 H1793 0.931 . S
C1813 C1812 1.332 . S
C1813 C1814 1.267 . S
C1814 H1782 0.929 . S
C1814 C1813 1.267 . S
C1814 C1815 1.251 . S
C1815 H1785 0.929 . S
C1815 N1811 1.418 . S
C1815 C1814 1.251 . S
C1816 H1783 0.930 . S
C1816 C1818 1.406 . S
C1816 C1821 1.261 . S
C1817 H1784 0.930 . S
C1817 N1819 1.325 . S
C1817 C1820 1.357 . S
C1818 H1786 0.928 . S
C1818 C1816 1.406 . S
C1818 N1819 1.261 . S
N1819 Co1770 2.214 . S
N1819 C1817 1.325 . S
N1819 C1818 1.261 . S
C1820 H1790 0.931 . S
C1820 C1817 1.357 . S
C1820 C1821 1.312 . S
C1821 H1792 0.930 . S
C1821 C1816 1.261 . S
C1821 C1820 1.312 . S
C1822 O1794 1.214 . S
C1822 O1802 1.234 . S
C1823 H1795 0.929 . S
C1823 C1826 1.391 . S
C1823 C1828 1.391 . S
C1824 H1796 0.929 . S
C1824 C1825 1.390 . S
C1824 N1827 1.391 . S
C1825 H1797 0.930 . S
C1825 C1824 1.390 . S
C1825 C1826 1.392 . S
C1826 H1798 0.929 . S
C1826 C1823 1.391 . S
C1826 C1825 1.392 . S
N1827 Co1771 2.257 . S
N1827 C1824 1.391 . S
N1827 C1828 1.388 . S
C1828 H1799 0.930 . S
C1828 C1823 1.391 . S
C1828 N1827 1.388 . S
Co1829 O1831 2.143 . S
Co1829 O1837 2.074 . S
Co1829 O1840 2.093 . S
Co1829 O1853 2.097 . S
Co1829 N1870 2.151 . S
Co1829 N1878 2.214 . S
Co1830 O1831 2.160 . S
Co1830 O1836 2.058 . S
Co1830 O1846 2.057 . S
Co1830 O1861 2.037 . S
Co1830 N1865 2.145 . S
Co1830 N1886 2.257 . S
O1831 Co1829 2.143 . S
O1831 Co1830 2.160 . S
C1832 O1833 1.278 . S
C1832 O1840 1.224 . S
O1833 C1832 1.278 . S
C1834 O1835 1.245 . S
C1834 O1846 1.232 . S
O1835 C1834 1.245 . S
O1836 Co1830 2.058 . S
O1836 C1862 1.269 . S
O1837 Co1829 2.074 . S
O1837 C1862 1.257 . S
H1838 C1863 0.930 . S
H1839 C1869 0.930 . S
O1840 Co1829 2.093 . S
O1840 C1832 1.224 . S
H1841 C1873 0.929 . S
H1842 C1875 0.930 . S
H1843 C1876 0.930 . S
H1844 C1874 0.929 . S
H1845 C1877 0.928 . S
O1846 Co1830 2.057 . S
O1846 C1834 1.232 . S
H1847 C1866 0.929 . S
H1848 C1867 0.929 . S
H1849 C1879 0.931 . S
H1850 C1871 0.929 . S
H1851 C1880 0.930 . S
H1852 C1872 0.931 . S
O1853 Co1829 2.097 . S
O1853 C1881 1.214 . S
H1854 C1882 0.929 . S
H1855 C1883 0.929 . S
H1856 C1884 0.930 . S
H1857 C1885 0.929 . S
H1858 C1887 0.930 . S
H1859 C1864 0.930 . S
H1860 C1868 0.930 . S
O1861 Co1830 2.037 . S
O1861 C1881 1.234 . S
C1862 O1836 1.269 . S
C1862 O1837 1.257 . S
C1863 H1838 0.930 . S
C1863 C1866 1.388 . S
C1863 C1868 1.418 . S
C1864 H1859 0.930 . S
C1864 C1867 1.404 . S
C1864 C1868 1.353 . S
N1865 Co1830 2.145 . S
N1865 C1866 1.397 . S
N1865 C1867 1.334 . S
C1866 H1847 0.929 . S
C1866 C1863 1.388 . S
C1866 N1865 1.397 . S
C1867 H1848 0.929 . S
C1867 C1864 1.404 . S
C1867 N1865 1.334 . S
C1868 H1860 0.930 . S
C1868 C1863 1.418 . S
C1868 C1864 1.353 . S
C1869 H1839 0.930 . S
C1869 N1870 1.330 . S
C1869 C1871 1.446 . S
N1870 Co1829 2.151 . S
N1870 C1869 1.330 . S
N1870 C1874 1.418 . S
C1871 H1850 0.929 . S
C1871 C1869 1.446 . S
C1871 C1872 1.332 . S
C1872 H1852 0.931 . S
C1872 C1871 1.332 . S
C1872 C1873 1.267 . S
C1873 H1841 0.929 . S
C1873 C1872 1.267 . S
C1873 C1874 1.251 . S
C1874 H1844 0.929 . S
C1874 N1870 1.418 . S
C1874 C1873 1.251 . S
C1875 H1842 0.930 . S
C1875 C1877 1.406 . S
C1875 C1880 1.261 . S
C1876 H1843 0.930 . S
C1876 N1878 1.325 . S
C1876 C1879 1.357 . S
C1877 H1845 0.928 . S
C1877 C1875 1.406 . S
C1877 N1878 1.261 . S
N1878 Co1829 2.214 . S
N1878 C1876 1.325 . S
N1878 C1877 1.261 . S
C1879 H1849 0.931 . S
C1879 C1876 1.357 . S
C1879 C1880 1.312 . S
C1880 H1851 0.930 . S
C1880 C1875 1.261 . S
C1880 C1879 1.312 . S
C1881 O1853 1.214 . S
C1881 O1861 1.234 . S
C1882 H1854 0.929 . S
C1882 C1885 1.391 . S
C1882 C1887 1.391 . S
C1883 H1855 0.929 . S
C1883 C1884 1.390 . S
C1883 N1886 1.391 . S
C1884 H1856 0.930 . S
C1884 C1883 1.390 . S
C1884 C1885 1.392 . S
C1885 H1857 0.929 . S
C1885 C1882 1.391 . S
C1885 C1884 1.392 . S
N1886 Co1830 2.257 . S
N1886 C1883 1.391 . S
N1886 C1887 1.388 . S
C1887 H1858 0.930 . S
C1887 C1882 1.391 . S
C1887 N1886 1.388 . S
Co1888 O1890 2.143 . S
Co1888 O1896 2.074 . S
Co1888 O1899 2.093 . S
Co1888 O1912 2.097 . S
Co1888 N1929 2.151 . S
Co1888 N1937 2.214 . S
Co1889 O1890 2.160 . S
Co1889 O1895 2.058 . S
Co1889 O1905 2.057 . S
Co1889 O1920 2.037 . S
Co1889 N1924 2.145 . S
Co1889 N1945 2.257 . S
O1890 Co1888 2.143 . S
O1890 Co1889 2.160 . S
C1891 O1892 1.278 . S
C1891 O1899 1.224 . S
O1892 C1891 1.278 . S
C1893 O1894 1.245 . S
C1893 O1905 1.232 . S
O1894 C1893 1.245 . S
O1895 Co1889 2.058 . S
O1895 C1921 1.269 . S
O1896 Co1888 2.074 . S
O1896 C1921 1.257 . S
H1897 C1922 0.930 . S
H1898 C1928 0.930 . S
O1899 Co1888 2.093 . S
O1899 C1891 1.224 . S
H1900 C1932 0.929 . S
H1901 C1934 0.930 . S
H1902 C1935 0.930 1_655 S
H1903 C1933 0.917 1_455 S
H1904 C1936 0.928 . S
O1905 Co1889 2.057 . S
O1905 C1893 1.232 . S
H1906 C1925 0.929 . S
H1907 C1926 0.929 . S
H1908 C1938 0.931 . S
H1909 C1930 0.929 . S
H1910 C1939 0.930 . S
H1911 C1931 0.931 . S
O1912 Co1888 2.097 . S
O1912 C1940 1.214 . S
H1913 C1941 0.929 . S
H1914 C1942 0.929 . S
H1915 C1943 0.930 . S
H1916 C1944 0.929 . S
H1917 C1946 0.930 . S
H1918 C1923 0.930 . S
H1919 C1927 0.930 . S
O1920 Co1889 2.037 . S
O1920 C1940 1.234 . S
C1921 O1895 1.269 . S
C1921 O1896 1.257 . S
C1922 H1897 0.930 . S
C1922 C1925 1.388 . S
C1922 C1927 1.418 . S
C1923 H1918 0.930 . S
C1923 C1926 1.404 . S
C1923 C1927 1.353 . S
N1924 Co1889 2.145 . S
N1924 C1925 1.397 . S
N1924 C1926 1.334 . S
C1925 H1906 0.929 . S
C1925 C1922 1.388 . S
C1925 N1924 1.397 . S
C1926 H1907 0.929 . S
C1926 C1923 1.404 . S
C1926 N1924 1.334 . S
C1927 H1919 0.930 . S
C1927 C1922 1.418 . S
C1927 C1923 1.353 . S
C1928 H1898 0.930 . S
C1928 N1929 1.330 . S
C1928 C1930 1.446 . S
N1929 Co1888 2.151 . S
N1929 C1928 1.330 . S
N1929 C1933 1.428 . S
C1930 H1909 0.929 . S
C1930 C1928 1.446 . S
C1930 C1931 1.329 1_655 S
C1931 H1911 0.931 . S
C1931 C1930 1.329 1_455 S
C1931 C1932 1.270 . S
C1932 H1900 0.929 . S
C1932 C1931 1.270 . S
C1932 C1933 1.253 1_455 S
C1933 H1903 0.917 1_655 S
C1933 N1929 1.428 . S
C1933 C1932 1.253 1_655 S
C1934 H1901 0.930 . S
C1934 C1936 1.406 . S
C1934 C1939 1.261 . S
C1935 H1902 0.930 1_455 S
C1935 N1937 1.325 1_455 S
C1935 C1938 1.357 . S
C1936 H1904 0.928 . S
C1936 C1934 1.406 . S
C1936 N1937 1.261 1_455 S
N1937 Co1888 2.214 . S
N1937 C1935 1.325 1_655 S
N1937 C1936 1.261 1_655 S
C1938 H1908 0.931 . S
C1938 C1935 1.357 . S
C1938 C1939 1.312 . S
C1939 H1910 0.930 . S
C1939 C1934 1.261 . S
C1939 C1938 1.312 . S
C1940 O1912 1.214 . S
C1940 O1920 1.234 . S
C1941 H1913 0.929 . S
C1941 C1944 1.391 . S
C1941 C1946 1.391 . S
C1942 H1914 0.929 . S
C1942 C1943 1.390 . S
C1942 N1945 1.391 . S
C1943 H1915 0.930 . S
C1943 C1942 1.390 . S
C1943 C1944 1.392 . S
C1944 H1916 0.929 . S
C1944 C1941 1.391 . S
C1944 C1943 1.392 . S
N1945 Co1889 2.257 . S
N1945 C1942 1.391 . S
N1945 C1946 1.388 . S
C1946 H1917 0.930 . S
C1946 C1941 1.391 . S
C1946 N1945 1.388 . S
Co1947 O1949 2.143 1_554 S
Co1947 O1955 2.074 1_554 S
Co1947 O1958 2.093 . S
Co1947 O1971 2.097 . S
Co1947 N1988 2.151 1_554 S
Co1947 N1996 2.214 . S
Co1948 O1949 2.160 . S
Co1948 O1954 2.058 . S
Co1948 O1964 2.057 . S
Co1948 O1979 2.037 1_556 S
Co1948 N1983 2.147 . S
Co1948 N2004 2.257 1_556 S
O1949 Co1947 2.143 1_556 S
O1949 Co1948 2.160 . S
C1950 O1951 1.278 . S
C1950 O1958 1.224 . S
O1951 C1950 1.278 . S
C1952 O1953 1.245 . S
C1952 O1964 1.232 . S
O1953 C1952 1.245 . S
O1954 Co1948 2.058 . S
O1954 C1980 1.269 . S
O1955 Co1947 2.074 1_556 S
O1955 C1980 1.257 . S
H1956 C1981 0.930 . S
H1957 C1987 0.930 . S
O1958 Co1947 2.093 . S
O1958 C1950 1.224 . S
H1959 C1991 0.929 . S
H1960 C1993 0.930 . S
H1961 C1994 0.930 . S
H1962 C1992 0.929 . S
H1963 C1995 0.928 . S
O1964 Co1948 2.057 . S
O1964 C1952 1.232 . S
H1965 C1984 0.929 . S
H1966 C1985 0.929 . S
H1967 C1997 0.931 . S
H1968 C1989 0.929 . S
H1969 C1998 0.930 . S
H1970 C1990 0.931 . S
O1971 Co1947 2.097 . S
O1971 C1999 1.214 . S
H1972 C2000 0.929 . S
H1973 C2001 0.929 . S
H1974 C2002 0.930 . S
H1975 C2003 0.929 . S
H1976 C2005 0.930 . S
H1977 C1982 0.930 . S
H1978 C1986 0.930 1_455 S
O1979 Co1948 2.037 1_554 S
O1979 C1999 1.234 . S
C1980 O1954 1.269 . S
C1980 O1955 1.257 . S
C1981 H1956 0.930 . S
C1981 C1984 1.388 . S
C1981 C1986 1.418 . S
C1982 H1977 0.930 . S
C1982 C1985 1.404 . S
C1982 C1986 1.353 1_556 S
N1983 Co1948 2.147 . S
N1983 C1984 1.396 1_556 S
N1983 C1985 1.333 . S
C1984 H1965 0.929 . S
C1984 C1981 1.388 . S
C1984 N1983 1.396 1_554 S
C1985 H1966 0.929 . S
C1985 C1982 1.404 . S
C1985 N1983 1.333 . S
C1986 H1978 0.930 1_655 S
C1986 C1981 1.418 . S
C1986 C1982 1.353 1_554 S
C1987 H1957 0.930 . S
C1987 N1988 1.330 . S
C1987 C1989 1.446 . S
N1988 Co1947 2.151 1_556 S
N1988 C1987 1.330 . S
N1988 C1992 1.418 . S
C1989 H1968 0.929 . S
C1989 C1987 1.446 . S
C1989 C1990 1.332 . S
C1990 H1970 0.931 . S
C1990 C1989 1.332 . S
C1990 C1991 1.267 . S
C1991 H1959 0.929 . S
C1991 C1990 1.267 . S
C1991 C1992 1.251 . S
C1992 H1962 0.929 . S
C1992 N1988 1.418 . S
C1992 C1991 1.251 . S
C1993 H1960 0.930 . S
C1993 C1995 1.406 . S
C1993 C1998 1.261 . S
C1994 H1961 0.930 . S
C1994 N1996 1.325 . S
C1994 C1997 1.357 . S
C1995 H1963 0.928 . S
C1995 C1993 1.406 . S
C1995 N1996 1.261 . S
N1996 Co1947 2.214 . S
N1996 C1994 1.325 . S
N1996 C1995 1.261 . S
C1997 H1967 0.931 . S
C1997 C1994 1.357 . S
C1997 C1998 1.312 . S
C1998 H1969 0.930 . S
C1998 C1993 1.261 . S
C1998 C1997 1.312 . S
C1999 O1971 1.214 . S
C1999 O1979 1.234 . S
C2000 H1972 0.929 . S
C2000 C2003 1.391 . S
C2000 C2005 1.391 . S
C2001 H1973 0.929 . S
C2001 C2002 1.390 . S
C2001 N2004 1.391 . S
C2002 H1974 0.930 . S
C2002 C2001 1.390 . S
C2002 C2003 1.392 . S
C2003 H1975 0.929 . S
C2003 C2000 1.391 . S
C2003 C2002 1.392 . S
N2004 Co1948 2.257 1_554 S
N2004 C2001 1.391 . S
N2004 C2005 1.388 . S
C2005 H1976 0.930 . S
C2005 C2000 1.391 . S
C2005 N2004 1.388 . S
Co2006 O2008 2.143 . S
Co2006 O2014 2.074 . S
Co2006 O2017 2.093 . S
Co2006 O2030 2.097 . S
Co2006 N2047 2.151 . S
Co2006 N2055 2.214 . S
Co2007 O2008 2.160 . S
Co2007 O2013 2.058 . S
Co2007 O2023 2.057 . S
Co2007 O2038 2.037 . S
Co2007 N2042 2.145 . S
Co2007 N2063 2.257 . S
O2008 Co2006 2.143 . S
O2008 Co2007 2.160 . S
C2009 O2010 1.278 . S
C2009 O2017 1.224 . S
O2010 C2009 1.278 . S
C2011 O2012 1.245 . S
C2011 O2023 1.232 . S
O2012 C2011 1.245 . S
O2013 Co2007 2.058 . S
O2013 C2039 1.269 . S
O2014 Co2006 2.074 . S
O2014 C2039 1.257 . S
H2015 C2040 0.930 . S
H2016 C2046 0.930 . S
O2017 Co2006 2.093 . S
O2017 C2009 1.224 . S
H2018 C2050 0.929 . S
H2019 C2052 0.930 . S
H2020 C2053 0.930 . S
H2021 C2051 0.929 . S
H2022 C2054 0.928 . S
O2023 Co2007 2.057 . S
O2023 C2011 1.232 . S
H2024 C2043 0.929 . S
H2025 C2044 0.929 . S
H2026 C2056 0.931 . S
H2027 C2048 0.929 . S
H2028 C2057 0.930 . S
H2029 C2049 0.931 . S
O2030 Co2006 2.097 . S
O2030 C2058 1.214 . S
H2031 C2059 0.929 . S
H2032 C2060 0.929 . S
H2033 C2061 0.930 . S
H2034 C2062 0.929 . S
H2035 C2064 0.930 . S
H2036 C2041 0.930 . S
H2037 C2045 0.930 . S
O2038 Co2007 2.037 . S
O2038 C2058 1.234 . S
C2039 O2013 1.269 . S
C2039 O2014 1.257 . S
C2040 H2015 0.930 . S
C2040 C2043 1.388 . S
C2040 C2045 1.418 . S
C2041 H2036 0.930 . S
C2041 C2044 1.404 . S
C2041 C2045 1.353 . S
N2042 Co2007 2.145 . S
N2042 C2043 1.397 . S
N2042 C2044 1.334 . S
C2043 H2024 0.929 . S
C2043 C2040 1.388 . S
C2043 N2042 1.397 . S
C2044 H2025 0.929 . S
C2044 C2041 1.404 . S
C2044 N2042 1.334 . S
C2045 H2037 0.930 . S
C2045 C2040 1.418 . S
C2045 C2041 1.353 . S
C2046 H2016 0.930 . S
C2046 N2047 1.330 . S
C2046 C2048 1.446 . S
N2047 Co2006 2.151 . S
N2047 C2046 1.330 . S
N2047 C2051 1.418 . S
C2048 H2027 0.929 . S
C2048 C2046 1.446 . S
C2048 C2049 1.332 . S
C2049 H2029 0.931 . S
C2049 C2048 1.332 . S
C2049 C2050 1.267 . S
C2050 H2018 0.929 . S
C2050 C2049 1.267 . S
C2050 C2051 1.251 . S
C2051 H2021 0.929 . S
C2051 N2047 1.418 . S
C2051 C2050 1.251 . S
C2052 H2019 0.930 . S
C2052 C2054 1.406 . S
C2052 C2057 1.261 . S
C2053 H2020 0.930 . S
C2053 N2055 1.325 . S
C2053 C2056 1.357 . S
C2054 H2022 0.928 . S
C2054 C2052 1.406 . S
C2054 N2055 1.261 . S
N2055 Co2006 2.214 . S
N2055 C2053 1.325 . S
N2055 C2054 1.261 . S
C2056 H2026 0.931 . S
C2056 C2053 1.357 . S
C2056 C2057 1.312 . S
C2057 H2028 0.930 . S
C2057 C2052 1.261 . S
C2057 C2056 1.312 . S
C2058 O2030 1.214 . S
C2058 O2038 1.234 . S
C2059 H2031 0.929 . S
C2059 C2062 1.391 . S
C2059 C2064 1.391 . S
C2060 H2032 0.929 . S
C2060 C2061 1.390 . S
C2060 N2063 1.391 . S
C2061 H2033 0.930 . S
C2061 C2060 1.390 . S
C2061 C2062 1.392 . S
C2062 H2034 0.929 . S
C2062 C2059 1.391 . S
C2062 C2061 1.392 . S
N2063 Co2007 2.257 . S
N2063 C2060 1.391 . S
N2063 C2064 1.388 . S
C2064 H2035 0.930 . S
C2064 C2059 1.391 . S
C2064 N2063 1.388 . S
Co2065 O2067 2.143 . S
Co2065 O2073 2.074 . S
Co2065 O2076 2.093 . S
Co2065 O2089 2.097 . S
Co2065 N2106 2.151 . S
Co2065 N2114 2.214 . S
Co2066 O2067 2.160 . S
Co2066 O2072 2.058 . S
Co2066 O2082 2.057 . S
Co2066 O2097 2.037 . S
Co2066 N2101 2.145 . S
Co2066 N2122 2.257 . S
O2067 Co2065 2.143 . S
O2067 Co2066 2.160 . S
C2068 O2069 1.278 . S
C2068 O2076 1.224 . S
O2069 C2068 1.278 . S
C2070 O2071 1.245 . S
C2070 O2082 1.232 . S
O2071 C2070 1.245 . S
O2072 Co2066 2.058 . S
O2072 C2098 1.269 . S
O2073 Co2065 2.074 . S
O2073 C2098 1.257 . S
H2074 C2099 0.930 . S
H2075 C2105 0.930 . S
O2076 Co2065 2.093 . S
O2076 C2068 1.224 . S
H2077 C2109 0.929 . S
H2078 C2111 0.930 . S
H2079 C2112 0.930 . S
H2080 C2110 0.929 . S
H2081 C2113 0.928 . S
O2082 Co2066 2.057 . S
O2082 C2070 1.232 . S
H2083 C2102 0.929 . S
H2084 C2103 0.929 . S
H2085 C2115 0.931 . S
H2086 C2107 0.929 . S
H2087 C2116 0.930 . S
H2088 C2108 0.931 . S
O2089 Co2065 2.097 . S
O2089 C2117 1.214 . S
H2090 C2118 0.929 . S
H2091 C2119 0.929 . S
H2092 C2120 0.930 . S
H2093 C2121 0.929 . S
H2094 C2123 0.930 . S
H2095 C2100 0.930 . S
H2096 C2104 0.930 . S
O2097 Co2066 2.037 . S
O2097 C2117 1.234 . S
C2098 O2072 1.269 . S
C2098 O2073 1.257 . S
C2099 H2074 0.930 . S
C2099 C2102 1.388 . S
C2099 C2104 1.418 . S
C2100 H2095 0.930 . S
C2100 C2103 1.404 . S
C2100 C2104 1.353 . S
N2101 Co2066 2.145 . S
N2101 C2102 1.397 . S
N2101 C2103 1.334 . S
C2102 H2083 0.929 . S
C2102 C2099 1.388 . S
C2102 N2101 1.397 . S
C2103 H2084 0.929 . S
C2103 C2100 1.404 . S
C2103 N2101 1.334 . S
C2104 H2096 0.930 . S
C2104 C2099 1.418 . S
C2104 C2100 1.353 . S
C2105 H2075 0.930 . S
C2105 N2106 1.330 . S
C2105 C2107 1.446 . S
N2106 Co2065 2.151 . S
N2106 C2105 1.330 . S
N2106 C2110 1.418 . S
C2107 H2086 0.929 . S
C2107 C2105 1.446 . S
C2107 C2108 1.332 . S
C2108 H2088 0.931 . S
C2108 C2107 1.332 . S
C2108 C2109 1.267 . S
C2109 H2077 0.929 . S
C2109 C2108 1.267 . S
C2109 C2110 1.251 . S
C2110 H2080 0.929 . S
C2110 N2106 1.418 . S
C2110 C2109 1.251 . S
C2111 H2078 0.930 . S
C2111 C2113 1.406 . S
C2111 C2116 1.261 . S
C2112 H2079 0.930 . S
C2112 N2114 1.325 . S
C2112 C2115 1.357 . S
C2113 H2081 0.928 . S
C2113 C2111 1.406 . S
C2113 N2114 1.261 . S
N2114 Co2065 2.214 . S
N2114 C2112 1.325 . S
N2114 C2113 1.261 . S
C2115 H2085 0.931 . S
C2115 C2112 1.357 . S
C2115 C2116 1.312 . S
C2116 H2087 0.930 . S
C2116 C2111 1.261 . S
C2116 C2115 1.312 . S
C2117 O2089 1.214 . S
C2117 O2097 1.234 . S
C2118 H2090 0.929 . S
C2118 C2121 1.391 . S
C2118 C2123 1.391 . S
C2119 H2091 0.929 . S
C2119 C2120 1.390 . S
C2119 N2122 1.391 . S
C2120 H2092 0.930 . S
C2120 C2119 1.390 . S
C2120 C2121 1.392 . S
C2121 H2093 0.929 . S
C2121 C2118 1.391 . S
C2121 C2120 1.392 . S
N2122 Co2066 2.257 . S
N2122 C2119 1.391 . S
N2122 C2123 1.388 . S
C2123 H2094 0.930 . S
C2123 C2118 1.391 . S
C2123 N2122 1.388 . S
Co2124 O2126 2.143 . S
Co2124 O2132 2.074 . S
Co2124 O2135 2.093 . S
Co2124 O2148 2.097 . S
Co2124 N2165 2.151 . S
Co2124 N2173 2.214 . S
Co2125 O2126 2.160 . S
Co2125 O2131 2.058 . S
Co2125 O2141 2.057 . S
Co2125 O2156 2.037 . S
Co2125 N2160 2.145 . S
Co2125 N2181 2.257 . S
O2126 Co2124 2.143 . S
O2126 Co2125 2.160 . S
C2127 O2128 1.278 . S
C2127 O2135 1.224 . S
O2128 C2127 1.278 . S
C2129 O2130 1.245 . S
C2129 O2141 1.232 . S
O2130 C2129 1.245 . S
O2131 Co2125 2.058 . S
O2131 C2157 1.269 . S
O2132 Co2124 2.074 . S
O2132 C2157 1.257 . S
H2133 C2158 0.930 . S
H2134 C2164 0.930 . S
O2135 Co2124 2.093 . S
O2135 C2127 1.224 . S
H2136 C2168 0.929 . S
H2137 C2170 0.930 . S
H2138 C2171 0.930 . S
H2139 C2169 0.929 . S
H2140 C2172 0.928 . S
O2141 Co2125 2.057 . S
O2141 C2129 1.232 . S
H2142 C2161 0.929 . S
H2143 C2162 0.929 . S
H2144 C2174 0.931 . S
H2145 C2166 0.929 . S
H2146 C2175 0.930 . S
H2147 C2167 0.931 . S
O2148 Co2124 2.097 . S
O2148 C2176 1.214 . S
H2149 C2177 0.929 . S
H2150 C2178 0.929 . S
H2151 C2179 0.930 . S
H2152 C2180 0.929 . S
H2153 C2182 0.930 . S
H2154 C2159 0.930 . S
H2155 C2163 0.930 . S
O2156 Co2125 2.037 . S
O2156 C2176 1.234 . S
C2157 O2131 1.269 . S
C2157 O2132 1.257 . S
C2158 H2133 0.930 . S
C2158 C2161 1.388 . S
C2158 C2163 1.418 . S
C2159 H2154 0.930 . S
C2159 C2162 1.404 . S
C2159 C2163 1.353 . S
N2160 Co2125 2.145 . S
N2160 C2161 1.397 . S
N2160 C2162 1.334 . S
C2161 H2142 0.929 . S
C2161 C2158 1.388 . S
C2161 N2160 1.397 . S
C2162 H2143 0.929 . S
C2162 C2159 1.404 . S
C2162 N2160 1.334 . S
C2163 H2155 0.930 . S
C2163 C2158 1.418 . S
C2163 C2159 1.353 . S
C2164 H2134 0.930 . S
C2164 N2165 1.330 . S
C2164 C2166 1.446 . S
N2165 Co2124 2.151 . S
N2165 C2164 1.330 . S
N2165 C2169 1.418 . S
C2166 H2145 0.929 . S
C2166 C2164 1.446 . S
C2166 C2167 1.332 . S
C2167 H2147 0.931 . S
C2167 C2166 1.332 . S
C2167 C2168 1.267 . S
C2168 H2136 0.929 . S
C2168 C2167 1.267 . S
C2168 C2169 1.251 . S
C2169 H2139 0.929 . S
C2169 N2165 1.418 . S
C2169 C2168 1.251 . S
C2170 H2137 0.930 . S
C2170 C2172 1.406 . S
C2170 C2175 1.261 . S
C2171 H2138 0.930 . S
C2171 N2173 1.325 . S
C2171 C2174 1.357 . S
C2172 H2140 0.928 . S
C2172 C2170 1.406 . S
C2172 N2173 1.261 . S
N2173 Co2124 2.214 . S
N2173 C2171 1.325 . S
N2173 C2172 1.261 . S
C2174 H2144 0.931 . S
C2174 C2171 1.357 . S
C2174 C2175 1.312 . S
C2175 H2146 0.930 . S
C2175 C2170 1.261 . S
C2175 C2174 1.312 . S
C2176 O2148 1.214 . S
C2176 O2156 1.234 . S
C2177 H2149 0.929 . S
C2177 C2180 1.391 . S
C2177 C2182 1.391 . S
C2178 H2150 0.929 . S
C2178 C2179 1.390 . S
C2178 N2181 1.391 . S
C2179 H2151 0.930 . S
C2179 C2178 1.390 . S
C2179 C2180 1.392 . S
C2180 H2152 0.929 . S
C2180 C2177 1.391 . S
C2180 C2179 1.392 . S
N2181 Co2125 2.257 . S
N2181 C2178 1.391 . S
N2181 C2182 1.388 . S
C2182 H2153 0.930 . S
C2182 C2177 1.391 . S
C2182 N2181 1.388 . S
Co2183 O2185 2.143 1_554 S
Co2183 O2191 2.074 . S
Co2183 O2194 2.093 1_554 S
Co2183 O2207 2.097 1_554 S
Co2183 N2224 2.151 . S
Co2183 N2232 2.214 . S
Co2184 O2185 2.160 . S
Co2184 O2190 2.058 1_556 S
Co2184 O2200 2.057 . S
Co2184 O2215 2.037 . S
Co2184 N2219 2.145 . S
Co2184 N2240 2.257 . S
O2185 Co2183 2.143 1_556 S
O2185 Co2184 2.160 . S
C2186 O2187 1.278 . S
C2186 O2194 1.224 . S
O2187 C2186 1.278 . S
C2188 O2189 1.238 . S
C2188 O2200 1.232 . S
O2189 C2188 1.238 . S
O2190 Co2184 2.058 1_554 S
O2190 C2216 1.269 . S
O2191 Co2183 2.074 . S
O2191 C2216 1.257 . S
H2192 C2217 0.930 . S
H2193 C2223 0.930 . S
O2194 Co2183 2.093 1_556 S
O2194 C2186 1.224 . S
H2195 C2227 0.929 . S
H2196 C2229 0.930 . S
H2197 C2230 0.930 . S
H2198 C2228 0.929 . S
H2199 C2231 0.928 . S
O2200 Co2184 2.057 . S
O2200 C2188 1.232 . S
H2201 C2220 0.929 1_554 S
H2202 C2221 0.929 . S
H2203 C2233 0.931 . S
H2204 C2225 0.929 . S
H2205 C2234 0.930 . S
H2206 C2226 0.931 . S
O2207 Co2183 2.097 1_556 S
O2207 C2235 1.214 . S
H2208 C2236 0.929 . S
H2209 C2237 0.929 . S
H2210 C2238 0.930 . S
H2211 C2239 0.929 . S
H2212 C2241 0.930 . S
H2213 C2218 0.930 . S
H2214 C2222 0.930 . S
O2215 Co2184 2.037 . S
O2215 C2235 1.234 . S
C2216 O2190 1.269 . S
C2216 O2191 1.257 . S
C2217 H2192 0.930 . S
C2217 C2220 1.388 . S
C2217 C2222 1.418 . S
C2218 H2213 0.930 . S
C2218 C2221 1.404 . S
C2218 C2222 1.353 . S
N2219 Co2184 2.145 . S
N2219 C2220 1.397 . S
N2219 C2221 1.334 . S
C2220 H2201 0.929 1_556 S
C2220 C2217 1.388 . S
C2220 N2219 1.397 . S
C2221 H2202 0.929 . S
C2221 C2218 1.404 . S
C2221 N2219 1.334 . S
C2222 H2214 0.930 . S
C2222 C2217 1.418 . S
C2222 C2218 1.353 . S
C2223 H2193 0.930 . S
C2223 N2224 1.330 . S
C2223 C2225 1.446 . S
N2224 Co2183 2.151 . S
N2224 C2223 1.330 . S
N2224 C2228 1.418 . S
C2225 H2204 0.929 . S
C2225 C2223 1.446 . S
C2225 C2226 1.332 . S
C2226 H2206 0.931 . S
C2226 C2225 1.332 . S
C2226 C2227 1.267 . S
C2227 H2195 0.929 . S
C2227 C2226 1.267 . S
C2227 C2228 1.251 . S
C2228 H2198 0.929 . S
C2228 N2224 1.418 . S
C2228 C2227 1.251 . S
C2229 H2196 0.930 . S
C2229 C2231 1.406 . S
C2229 C2234 1.261 . S
C2230 H2197 0.930 . S
C2230 N2232 1.325 . S
C2230 C2233 1.357 . S
C2231 H2199 0.928 . S
C2231 C2229 1.406 . S
C2231 N2232 1.261 . S
N2232 Co2183 2.214 . S
N2232 C2230 1.325 . S
N2232 C2231 1.261 . S
C2233 H2203 0.931 . S
C2233 C2230 1.357 . S
C2233 C2234 1.312 . S
C2234 H2205 0.930 . S
C2234 C2229 1.261 . S
C2234 C2233 1.312 . S
C2235 O2207 1.214 . S
C2235 O2215 1.234 . S
C2236 H2208 0.929 . S
C2236 C2239 1.391 . S
C2236 C2241 1.391 . S
C2237 H2209 0.929 . S
C2237 C2238 1.390 . S
C2237 N2240 1.391 . S
C2238 H2210 0.930 . S
C2238 C2237 1.390 . S
C2238 C2239 1.392 . S
C2239 H2211 0.929 . S
C2239 C2236 1.391 . S
C2239 C2238 1.392 . S
N2240 Co2184 2.257 . S
N2240 C2237 1.391 . S
N2240 C2241 1.388 . S
C2241 H2212 0.930 . S
C2241 C2236 1.391 . S
C2241 N2240 1.388 . S
Co2242 O2244 2.143 . S
Co2242 O2250 2.074 . S
Co2242 O2253 2.093 . S
Co2242 O2266 2.097 . S
Co2242 N2283 2.151 . S
Co2242 N2291 2.214 . S
Co2243 O2244 2.160 . S
Co2243 O2249 2.058 . S
Co2243 O2259 2.057 . S
Co2243 O2274 2.037 . S
Co2243 N2278 2.145 . S
Co2243 N2299 2.257 . S
O2244 Co2242 2.143 . S
O2244 Co2243 2.160 . S
C2245 O2246 1.278 . S
C2245 O2253 1.224 . S
O2246 C2245 1.278 . S
C2247 O2248 1.245 . S
C2247 O2259 1.232 . S
O2248 C2247 1.245 . S
O2249 Co2243 2.058 . S
O2249 C2275 1.269 . S
O2250 Co2242 2.074 . S
O2250 C2275 1.257 . S
H2251 C2276 0.930 . S
H2252 C2282 0.930 . S
O2253 Co2242 2.093 . S
O2253 C2245 1.224 . S
H2254 C2286 0.929 . S
H2255 C2288 0.930 . S
H2256 C2289 0.930 . S
H2257 C2287 0.929 . S
H2258 C2290 0.928 . S
O2259 Co2243 2.057 . S
O2259 C2247 1.232 . S
H2260 C2279 0.929 . S
H2261 C2280 0.929 . S
H2262 C2292 0.931 . S
H2263 C2284 0.929 . S
H2264 C2293 0.930 . S
H2265 C2285 0.931 . S
O2266 Co2242 2.097 . S
O2266 C2294 1.214 . S
H2267 C2295 0.929 . S
H2268 C2296 0.929 . S
H2269 C2297 0.930 1_455 S
H2270 C2298 0.929 . S
H2271 C2300 0.930 . S
H2272 C2277 0.930 1_455 S
H2273 C2281 0.930 1_455 S
O2274 Co2243 2.037 . S
O2274 C2294 1.234 . S
C2275 O2249 1.269 . S
C2275 O2250 1.257 . S
C2276 H2251 0.930 . S
C2276 C2279 1.388 . S
C2276 C2281 1.418 . S
C2277 H2272 0.930 1_655 S
C2277 C2280 1.404 . S
C2277 C2281 1.353 . S
N2278 Co2243 2.145 . S
N2278 C2279 1.397 . S
N2278 C2280 1.334 . S
C2279 H2260 0.929 . S
C2279 C2276 1.388 . S
C2279 N2278 1.397 . S
C2280 H2261 0.929 . S
C2280 C2277 1.404 . S
C2280 N2278 1.334 . S
C2281 H2273 0.930 1_655 S
C2281 C2276 1.418 . S
C2281 C2277 1.353 . S
C2282 H2252 0.930 . S
C2282 N2283 1.330 . S
C2282 C2284 1.446 . S
N2283 Co2242 2.151 . S
N2283 C2282 1.330 . S
N2283 C2287 1.418 . S
C2284 H2263 0.929 . S
C2284 C2282 1.446 . S
C2284 C2285 1.332 . S
C2285 H2265 0.931 . S
C2285 C2284 1.332 . S
C2285 C2286 1.267 . S
C2286 H2254 0.929 . S
C2286 C2285 1.267 . S
C2286 C2287 1.251 . S
C2287 H2257 0.929 . S
C2287 N2283 1.418 . S
C2287 C2286 1.251 . S
C2288 H2255 0.930 . S
C2288 C2290 1.406 . S
C2288 C2293 1.261 . S
C2289 H2256 0.930 . S
C2289 N2291 1.325 . S
C2289 C2292 1.357 . S
C2290 H2258 0.928 . S
C2290 C2288 1.406 . S
C2290 N2291 1.261 . S
N2291 Co2242 2.214 . S
N2291 C2289 1.325 . S
N2291 C2290 1.261 . S
C2292 H2262 0.931 . S
C2292 C2289 1.357 . S
C2292 C2293 1.312 . S
C2293 H2264 0.930 . S
C2293 C2288 1.261 . S
C2293 C2292 1.312 . S
C2294 O2266 1.214 . S
C2294 O2274 1.234 . S
C2295 H2267 0.929 . S
C2295 C2298 1.391 1_655 S
C2295 C2300 1.391 . S
C2296 H2268 0.929 . S
C2296 C2297 1.390 . S
C2296 N2299 1.391 . S
C2297 H2269 0.930 1_655 S
C2297 C2296 1.390 . S
C2297 C2298 1.392 1_655 S
C2298 H2270 0.929 . S
C2298 C2295 1.391 1_455 S
C2298 C2297 1.392 1_455 S
N2299 Co2243 2.257 . S
N2299 C2296 1.391 . S
N2299 C2300 1.388 . S
C2300 H2271 0.930 . S
C2300 C2295 1.391 . S
C2300 N2299 1.388 . S
Co2301 O2303 2.143 . S
Co2301 O2309 2.074 . S
Co2301 O2312 2.093 . S
Co2301 O2325 2.097 . S
Co2301 N2342 2.151 . S
Co2301 N2350 2.214 . S
Co2302 O2303 2.160 . S
Co2302 O2308 2.058 . S
Co2302 O2318 2.057 . S
Co2302 O2333 2.037 . S
Co2302 N2337 2.145 . S
Co2302 N2358 2.257 . S
O2303 Co2301 2.143 . S
O2303 Co2302 2.160 . S
C2304 O2305 1.278 . S
C2304 O2312 1.224 . S
O2305 C2304 1.278 . S
C2306 O2307 1.245 . S
C2306 O2318 1.232 . S
O2307 C2306 1.245 . S
O2308 Co2302 2.058 . S
O2308 C2334 1.269 . S
O2309 Co2301 2.074 . S
O2309 C2334 1.257 . S
H2310 C2335 0.930 . S
H2311 C2341 0.930 . S
O2312 Co2301 2.093 . S
O2312 C2304 1.224 . S
H2313 C2345 0.929 . S
H2314 C2347 0.930 . S
H2315 C2348 0.930 . S
H2316 C2346 0.929 . S
H2317 C2349 0.928 . S
O2318 Co2302 2.057 . S
O2318 C2306 1.232 . S
H2319 C2338 0.929 . S
H2320 C2339 0.929 . S
H2321 C2351 0.931 . S
H2322 C2343 0.929 . S
H2323 C2352 0.930 . S
H2324 C2344 0.931 . S
O2325 Co2301 2.097 . S
O2325 C2353 1.214 . S
H2326 C2354 0.929 . S
H2327 C2355 0.929 . S
H2328 C2356 0.930 . S
H2329 C2357 0.929 . S
H2330 C2359 0.930 . S
H2331 C2336 0.930 . S
H2332 C2340 0.930 . S
O2333 Co2302 2.037 . S
O2333 C2353 1.234 . S
C2334 O2308 1.269 . S
C2334 O2309 1.257 . S
C2335 H2310 0.930 . S
C2335 C2338 1.388 . S
C2335 C2340 1.418 . S
C2336 H2331 0.930 . S
C2336 C2339 1.404 . S
C2336 C2340 1.353 . S
N2337 Co2302 2.145 . S
N2337 C2338 1.397 . S
N2337 C2339 1.334 . S
C2338 H2319 0.929 . S
C2338 C2335 1.388 . S
C2338 N2337 1.397 . S
C2339 H2320 0.929 . S
C2339 C2336 1.404 . S
C2339 N2337 1.334 . S
C2340 H2332 0.930 . S
C2340 C2335 1.418 . S
C2340 C2336 1.353 . S
C2341 H2311 0.930 . S
C2341 N2342 1.330 . S
C2341 C2343 1.446 . S
N2342 Co2301 2.151 . S
N2342 C2341 1.330 . S
N2342 C2346 1.418 . S
C2343 H2322 0.929 . S
C2343 C2341 1.446 . S
C2343 C2344 1.332 . S
C2344 H2324 0.931 . S
C2344 C2343 1.332 . S
C2344 C2345 1.267 . S
C2345 H2313 0.929 . S
C2345 C2344 1.267 . S
C2345 C2346 1.251 . S
C2346 H2316 0.929 . S
C2346 N2342 1.418 . S
C2346 C2345 1.251 . S
C2347 H2314 0.930 . S
C2347 C2349 1.406 . S
C2347 C2352 1.261 . S
C2348 H2315 0.930 . S
C2348 N2350 1.325 . S
C2348 C2351 1.357 . S
C2349 H2317 0.928 . S
C2349 C2347 1.406 . S
C2349 N2350 1.261 . S
N2350 Co2301 2.214 . S
N2350 C2348 1.325 . S
N2350 C2349 1.261 . S
C2351 H2321 0.931 . S
C2351 C2348 1.357 . S
C2351 C2352 1.312 . S
C2352 H2323 0.930 . S
C2352 C2347 1.261 . S
C2352 C2351 1.312 . S
C2353 O2325 1.214 . S
C2353 O2333 1.234 . S
C2354 H2326 0.929 . S
C2354 C2357 1.391 . S
C2354 C2359 1.391 . S
C2355 H2327 0.929 . S
C2355 C2356 1.390 . S
C2355 N2358 1.391 . S
C2356 H2328 0.930 . S
C2356 C2355 1.390 . S
C2356 C2357 1.392 . S
C2357 H2329 0.929 . S
C2357 C2354 1.391 . S
C2357 C2356 1.392 . S
N2358 Co2302 2.257 . S
N2358 C2355 1.391 . S
N2358 C2359 1.388 . S
C2359 H2330 0.930 . S
C2359 C2354 1.391 . S
C2359 N2358 1.388 . S
Co2360 O2362 2.143 . S
Co2360 O2368 2.074 . S
Co2360 O2371 2.093 . S
Co2360 O2384 2.097 . S
Co2360 N2401 2.151 . S
Co2360 N2409 2.214 . S
Co2361 O2362 2.160 . S
Co2361 O2367 2.058 . S
Co2361 O2377 2.057 . S
Co2361 O2392 2.037 . S
Co2361 N2396 2.145 . S
Co2361 N2417 2.257 . S
O2362 Co2360 2.143 . S
O2362 Co2361 2.160 . S
C2363 O2364 1.278 . S
C2363 O2371 1.224 . S
O2364 C2363 1.278 . S
C2365 O2366 1.245 . S
C2365 O2377 1.232 . S
O2366 C2365 1.245 . S
O2367 Co2361 2.058 . S
O2367 C2393 1.269 . S
O2368 Co2360 2.074 . S
O2368 C2393 1.257 . S
H2369 C2394 0.930 . S
H2370 C2400 0.930 . S
O2371 Co2360 2.093 . S
O2371 C2363 1.224 . S
H2372 C2404 0.929 . S
H2373 C2406 0.930 . S
H2374 C2407 0.930 1_565 S
H2375 C2405 0.917 1_545 S
H2376 C2408 0.928 . S
O2377 Co2361 2.057 . S
O2377 C2365 1.232 . S
H2378 C2397 0.929 . S
H2379 C2398 0.929 . S
H2380 C2410 0.931 . S
H2381 C2402 0.929 . S
H2382 C2411 0.930 . S
H2383 C2403 0.931 . S
O2384 Co2360 2.097 . S
O2384 C2412 1.214 . S
H2385 C2413 0.929 . S
H2386 C2414 0.929 . S
H2387 C2415 0.930 . S
H2388 C2416 0.929 . S
H2389 C2418 0.930 . S
H2390 C2395 0.930 . S
H2391 C2399 0.930 . S
O2392 Co2361 2.037 . S
O2392 C2412 1.234 . S
C2393 O2367 1.269 . S
C2393 O2368 1.257 . S
C2394 H2369 0.930 . S
C2394 C2397 1.388 . S
C2394 C2399 1.418 . S
C2395 H2390 0.930 . S
C2395 C2398 1.404 . S
C2395 C2399 1.353 . S
N2396 Co2361 2.145 . S
N2396 C2397 1.397 . S
N2396 C2398 1.334 . S
C2397 H2378 0.929 . S
C2397 C2394 1.388 . S
C2397 N2396 1.397 . S
C2398 H2379 0.929 . S
C2398 C2395 1.404 . S
C2398 N2396 1.334 . S
C2399 H2391 0.930 . S
C2399 C2394 1.418 . S
C2399 C2395 1.353 . S
C2400 H2370 0.930 . S
C2400 N2401 1.330 . S
C2400 C2402 1.446 . S
N2401 Co2360 2.151 . S
N2401 C2400 1.330 . S
N2401 C2405 1.428 . S
C2402 H2381 0.929 . S
C2402 C2400 1.446 . S
C2402 C2403 1.329 1_565 S
C2403 H2383 0.931 . S
C2403 C2402 1.329 1_545 S
C2403 C2404 1.270 . S
C2404 H2372 0.929 . S
C2404 C2403 1.270 . S
C2404 C2405 1.253 1_545 S
C2405 H2375 0.917 1_565 S
C2405 N2401 1.428 . S
C2405 C2404 1.253 1_565 S
C2406 H2373 0.930 . S
C2406 C2408 1.406 . S
C2406 C2411 1.261 . S
C2407 H2374 0.930 1_545 S
C2407 N2409 1.325 1_545 S
C2407 C2410 1.357 . S
C2408 H2376 0.928 . S
C2408 C2406 1.406 . S
C2408 N2409 1.261 1_545 S
N2409 Co2360 2.214 . S
N2409 C2407 1.325 1_565 S
N2409 C2408 1.261 1_565 S
C2410 H2380 0.931 . S
C2410 C2407 1.357 . S
C2410 C2411 1.312 . S
C2411 H2382 0.930 . S
C2411 C2406 1.261 . S
C2411 C2410 1.312 . S
C2412 O2384 1.214 . S
C2412 O2392 1.234 . S
C2413 H2385 0.929 . S
C2413 C2416 1.391 . S
C2413 C2418 1.391 . S
C2414 H2386 0.929 . S
C2414 C2415 1.390 . S
C2414 N2417 1.391 . S
C2415 H2387 0.930 . S
C2415 C2414 1.390 . S
C2415 C2416 1.392 . S
C2416 H2388 0.929 . S
C2416 C2413 1.391 . S
C2416 C2415 1.392 . S
N2417 Co2361 2.257 . S
N2417 C2414 1.391 . S
N2417 C2418 1.388 . S
C2418 H2389 0.930 . S
C2418 C2413 1.391 . S
C2418 N2417 1.388 . S
Co2419 O2421 2.143 . S
Co2419 O2427 2.074 . S
Co2419 O2430 2.093 . S
Co2419 O2443 2.097 . S
Co2419 N2460 2.151 . S
Co2419 N2468 2.214 . S
Co2420 O2421 2.160 . S
Co2420 O2426 2.058 . S
Co2420 O2436 2.057 . S
Co2420 O2451 2.037 . S
Co2420 N2455 2.145 . S
Co2420 N2476 2.257 . S
O2421 Co2419 2.143 . S
O2421 Co2420 2.160 . S
C2422 O2423 1.278 . S
C2422 O2430 1.224 . S
O2423 C2422 1.278 . S
C2424 O2425 1.245 . S
C2424 O2436 1.232 . S
O2425 C2424 1.245 . S
O2426 Co2420 2.058 . S
O2426 C2452 1.269 . S
O2427 Co2419 2.074 . S
O2427 C2452 1.257 . S
H2428 C2453 0.930 . S
H2429 C2459 0.930 . S
O2430 Co2419 2.093 . S
O2430 C2422 1.224 . S
H2431 C2463 0.929 . S
H2432 C2465 0.930 . S
H2433 C2466 0.930 . S
H2434 C2464 0.929 . S
H2435 C2467 0.928 . S
O2436 Co2420 2.057 . S
O2436 C2424 1.232 . S
H2437 C2456 0.929 . S
H2438 C2457 0.929 . S
H2439 C2469 0.931 . S
H2440 C2461 0.929 . S
H2441 C2470 0.930 . S
H2442 C2462 0.931 . S
O2443 Co2419 2.097 . S
O2443 C2471 1.214 . S
H2444 C2472 0.929 . S
H2445 C2473 0.929 . S
H2446 C2474 0.930 . S
H2447 C2475 0.929 . S
H2448 C2477 0.930 . S
H2449 C2454 0.930 . S
H2450 C2458 0.930 . S
O2451 Co2420 2.037 . S
O2451 C2471 1.234 . S
C2452 O2426 1.269 . S
C2452 O2427 1.257 . S
C2453 H2428 0.930 . S
C2453 C2456 1.388 . S
C2453 C2458 1.418 . S
C2454 H2449 0.930 . S
C2454 C2457 1.404 . S
C2454 C2458 1.353 . S
N2455 Co2420 2.145 . S
N2455 C2456 1.397 . S
N2455 C2457 1.334 . S
C2456 H2437 0.929 . S
C2456 C2453 1.388 . S
C2456 N2455 1.397 . S
C2457 H2438 0.929 . S
C2457 C2454 1.404 . S
C2457 N2455 1.334 . S
C2458 H2450 0.930 . S
C2458 C2453 1.418 . S
C2458 C2454 1.353 . S
C2459 H2429 0.930 . S
C2459 N2460 1.330 . S
C2459 C2461 1.446 . S
N2460 Co2419 2.151 . S
N2460 C2459 1.330 . S
N2460 C2464 1.418 . S
C2461 H2440 0.929 . S
C2461 C2459 1.446 . S
C2461 C2462 1.332 . S
C2462 H2442 0.931 . S
C2462 C2461 1.332 . S
C2462 C2463 1.267 . S
C2463 H2431 0.929 . S
C2463 C2462 1.267 . S
C2463 C2464 1.251 . S
C2464 H2434 0.929 . S
C2464 N2460 1.418 . S
C2464 C2463 1.251 . S
C2465 H2432 0.930 . S
C2465 C2467 1.406 . S
C2465 C2470 1.261 . S
C2466 H2433 0.930 . S
C2466 N2468 1.325 . S
C2466 C2469 1.357 . S
C2467 H2435 0.928 . S
C2467 C2465 1.406 . S
C2467 N2468 1.261 . S
N2468 Co2419 2.214 . S
N2468 C2466 1.325 . S
N2468 C2467 1.261 . S
C2469 H2439 0.931 . S
C2469 C2466 1.357 . S
C2469 C2470 1.312 . S
C2470 H2441 0.930 . S
C2470 C2465 1.261 . S
C2470 C2469 1.312 . S
C2471 O2443 1.214 . S
C2471 O2451 1.234 . S
C2472 H2444 0.929 . S
C2472 C2475 1.391 . S
C2472 C2477 1.391 . S
C2473 H2445 0.929 . S
C2473 C2474 1.390 . S
C2473 N2476 1.391 . S
C2474 H2446 0.930 . S
C2474 C2473 1.390 . S
C2474 C2475 1.392 . S
C2475 H2447 0.929 . S
C2475 C2472 1.391 . S
C2475 C2474 1.392 . S
N2476 Co2420 2.257 . S
N2476 C2473 1.391 . S
N2476 C2477 1.388 . S
C2477 H2448 0.930 . S
C2477 C2472 1.391 . S
C2477 N2476 1.388 . S
Co2478 O2480 2.143 1_545 S
Co2478 O2486 2.074 1_545 S
Co2478 O2489 2.093 . S
Co2478 O2502 2.097 . S
Co2478 N2519 2.151 1_545 S
Co2478 N2527 2.214 . S
Co2479 O2480 2.160 . S
Co2479 O2485 2.058 . S
Co2479 O2495 2.057 . S
Co2479 O2510 2.037 1_565 S
Co2479 N2514 2.147 . S
Co2479 N2535 2.257 1_565 S
O2480 Co2478 2.143 1_565 S
O2480 Co2479 2.160 . S
C2481 O2482 1.278 . S
C2481 O2489 1.224 . S
O2482 C2481 1.278 . S
C2483 O2484 1.245 . S
C2483 O2495 1.232 . S
O2484 C2483 1.245 . S
O2485 Co2479 2.058 . S
O2485 C2511 1.269 . S
O2486 Co2478 2.074 1_565 S
O2486 C2511 1.257 . S
H2487 C2512 0.930 . S
H2488 C2518 0.930 . S
O2489 Co2478 2.093 . S
O2489 C2481 1.224 . S
H2490 C2522 0.929 . S
H2491 C2524 0.930 . S
H2492 C2525 0.930 . S
H2493 C2523 0.929 . S
H2494 C2526 0.928 . S
O2495 Co2479 2.057 . S
O2495 C2483 1.232 . S
H2496 C2515 0.929 . S
H2497 C2516 0.929 . S
H2498 C2528 0.931 . S
H2499 C2520 0.929 . S
H2500 C2529 0.930 . S
H2501 C2521 0.931 . S
O2502 Co2478 2.097 . S
O2502 C2530 1.214 . S
H2503 C2531 0.929 . S
H2504 C2532 0.929 . S
H2505 C2533 0.930 . S
H2506 C2534 0.929 . S
H2507 C2536 0.930 . S
H2508 C2513 0.930 . S
H2509 C2517 0.930 1_554 S
O2510 Co2479 2.037 1_545 S
O2510 C2530 1.234 . S
C2511 O2485 1.269 . S
C2511 O2486 1.257 . S
C2512 H2487 0.930 . S
C2512 C2515 1.388 . S
C2512 C2517 1.418 . S
C2513 H2508 0.930 . S
C2513 C2516 1.404 . S
C2513 C2517 1.353 1_565 S
N2514 Co2479 2.147 . S
N2514 C2515 1.396 1_565 S
N2514 C2516 1.333 . S
C2515 H2496 0.929 . S
C2515 C2512 1.388 . S
C2515 N2514 1.396 1_545 S
C2516 H2497 0.929 . S
C2516 C2513 1.404 . S
C2516 N2514 1.333 . S
C2517 H2509 0.930 1_556 S
C2517 C2512 1.418 . S
C2517 C2513 1.353 1_545 S
C2518 H2488 0.930 . S
C2518 N2519 1.330 . S
C2518 C2520 1.446 . S
N2519 Co2478 2.151 1_565 S
N2519 C2518 1.330 . S
N2519 C2523 1.418 . S
C2520 H2499 0.929 . S
C2520 C2518 1.446 . S
C2520 C2521 1.332 . S
C2521 H2501 0.931 . S
C2521 C2520 1.332 . S
C2521 C2522 1.267 . S
C2522 H2490 0.929 . S
C2522 C2521 1.267 . S
C2522 C2523 1.251 . S
C2523 H2493 0.929 . S
C2523 N2519 1.418 . S
C2523 C2522 1.251 . S
C2524 H2491 0.930 . S
C2524 C2526 1.406 . S
C2524 C2529 1.261 . S
C2525 H2492 0.930 . S
C2525 N2527 1.325 . S
C2525 C2528 1.357 . S
C2526 H2494 0.928 . S
C2526 C2524 1.406 . S
C2526 N2527 1.261 . S
N2527 Co2478 2.214 . S
N2527 C2525 1.325 . S
N2527 C2526 1.261 . S
C2528 H2498 0.931 . S
C2528 C2525 1.357 . S
C2528 C2529 1.312 . S
C2529 H2500 0.930 . S
C2529 C2524 1.261 . S
C2529 C2528 1.312 . S
C2530 O2502 1.214 . S
C2530 O2510 1.234 . S
C2531 H2503 0.929 . S
C2531 C2534 1.391 . S
C2531 C2536 1.391 . S
C2532 H2504 0.929 . S
C2532 C2533 1.390 . S
C2532 N2535 1.391 . S
C2533 H2505 0.930 . S
C2533 C2532 1.390 . S
C2533 C2534 1.392 . S
C2534 H2506 0.929 . S
C2534 C2531 1.391 . S
C2534 C2533 1.392 . S
N2535 Co2479 2.257 1_545 S
N2535 C2532 1.391 . S
N2535 C2536 1.388 . S
C2536 H2507 0.930 . S
C2536 C2531 1.391 . S
C2536 N2535 1.388 . S
Co2537 O2539 2.143 . S
Co2537 O2545 2.074 . S
Co2537 O2548 2.093 . S
Co2537 O2561 2.097 . S
Co2537 N2578 2.151 . S
Co2537 N2586 2.214 . S
Co2538 O2539 2.160 . S
Co2538 O2544 2.058 . S
Co2538 O2554 2.057 . S
Co2538 O2569 2.037 . S
Co2538 N2573 2.145 . S
Co2538 N2594 2.257 . S
O2539 Co2537 2.143 . S
O2539 Co2538 2.160 . S
C2540 O2541 1.278 . S
C2540 O2548 1.224 . S
O2541 C2540 1.278 . S
C2542 O2543 1.245 . S
C2542 O2554 1.232 . S
O2543 C2542 1.245 . S
O2544 Co2538 2.058 . S
O2544 C2570 1.269 . S
O2545 Co2537 2.074 . S
O2545 C2570 1.257 . S
H2546 C2571 0.930 . S
H2547 C2577 0.930 . S
O2548 Co2537 2.093 . S
O2548 C2540 1.224 . S
H2549 C2581 0.929 . S
H2550 C2583 0.930 . S
H2551 C2584 0.930 . S
H2552 C2582 0.929 . S
H2553 C2585 0.928 . S
O2554 Co2538 2.057 . S
O2554 C2542 1.232 . S
H2555 C2574 0.929 . S
H2556 C2575 0.929 . S
H2557 C2587 0.931 . S
H2558 C2579 0.929 . S
H2559 C2588 0.930 . S
H2560 C2580 0.931 . S
O2561 Co2537 2.097 . S
O2561 C2589 1.214 . S
H2562 C2590 0.929 . S
H2563 C2591 0.929 . S
H2564 C2592 0.930 . S
H2565 C2593 0.929 . S
H2566 C2595 0.930 . S
H2567 C2572 0.930 . S
H2568 C2576 0.930 . S
O2569 Co2538 2.037 . S
O2569 C2589 1.234 . S
C2570 O2544 1.269 . S
C2570 O2545 1.257 . S
C2571 H2546 0.930 . S
C2571 C2574 1.388 . S
C2571 C2576 1.418 . S
C2572 H2567 0.930 . S
C2572 C2575 1.404 . S
C2572 C2576 1.353 . S
N2573 Co2538 2.145 . S
N2573 C2574 1.397 . S
N2573 C2575 1.334 . S
C2574 H2555 0.929 . S
C2574 C2571 1.388 . S
C2574 N2573 1.397 . S
C2575 H2556 0.929 . S
C2575 C2572 1.404 . S
C2575 N2573 1.334 . S
C2576 H2568 0.930 . S
C2576 C2571 1.418 . S
C2576 C2572 1.353 . S
C2577 H2547 0.930 . S
C2577 N2578 1.330 . S
C2577 C2579 1.446 . S
N2578 Co2537 2.151 . S
N2578 C2577 1.330 . S
N2578 C2582 1.418 . S
C2579 H2558 0.929 . S
C2579 C2577 1.446 . S
C2579 C2580 1.332 . S
C2580 H2560 0.931 . S
C2580 C2579 1.332 . S
C2580 C2581 1.267 . S
C2581 H2549 0.929 . S
C2581 C2580 1.267 . S
C2581 C2582 1.251 . S
C2582 H2552 0.929 . S
C2582 N2578 1.418 . S
C2582 C2581 1.251 . S
C2583 H2550 0.930 . S
C2583 C2585 1.406 . S
C2583 C2588 1.261 . S
C2584 H2551 0.930 . S
C2584 N2586 1.325 . S
C2584 C2587 1.357 . S
C2585 H2553 0.928 . S
C2585 C2583 1.406 . S
C2585 N2586 1.261 . S
N2586 Co2537 2.214 . S
N2586 C2584 1.325 . S
N2586 C2585 1.261 . S
C2587 H2557 0.931 . S
C2587 C2584 1.357 . S
C2587 C2588 1.312 . S
C2588 H2559 0.930 . S
C2588 C2583 1.261 . S
C2588 C2587 1.312 . S
C2589 O2561 1.214 . S
C2589 O2569 1.234 . S
C2590 H2562 0.929 . S
C2590 C2593 1.391 . S
C2590 C2595 1.391 1_554 S
C2591 H2563 0.929 . S
C2591 C2592 1.390 1_556 S
C2591 N2594 1.391 . S
C2592 H2564 0.930 . S
C2592 C2591 1.390 1_554 S
C2592 C2593 1.392 . S
C2593 H2565 0.929 . S
C2593 C2590 1.391 . S
C2593 C2592 1.392 . S
N2594 Co2538 2.257 . S
N2594 C2591 1.391 . S
N2594 C2595 1.388 . S
C2595 H2566 0.930 . S
C2595 C2590 1.391 1_556 S
C2595 N2594 1.388 . S
Co2596 O2598 2.143 . S
Co2596 O2604 2.074 . S
Co2596 O2607 2.093 . S
Co2596 O2620 2.097 . S
Co2596 N2637 2.151 . S
Co2596 N2645 2.214 . S
Co2597 O2598 2.160 . S
Co2597 O2603 2.058 . S
Co2597 O2613 2.057 . S
Co2597 O2628 2.037 . S
Co2597 N2632 2.145 . S
Co2597 N2653 2.257 . S
O2598 Co2596 2.143 . S
O2598 Co2597 2.160 . S
C2599 O2600 1.278 . S
C2599 O2607 1.224 . S
O2600 C2599 1.278 . S
C2601 O2602 1.245 . S
C2601 O2613 1.232 . S
O2602 C2601 1.245 . S
O2603 Co2597 2.058 . S
O2603 C2629 1.269 . S
O2604 Co2596 2.074 . S
O2604 C2629 1.257 . S
H2605 C2630 0.930 . S
H2606 C2636 0.930 . S
O2607 Co2596 2.093 . S
O2607 C2599 1.224 . S
H2608 C2640 0.929 . S
H2609 C2642 0.930 . S
H2610 C2643 0.930 . S
H2611 C2641 0.929 . S
H2612 C2644 0.928 . S
O2613 Co2597 2.057 . S
O2613 C2601 1.232 . S
H2614 C2633 0.929 . S
H2615 C2634 0.929 . S
H2616 C2646 0.931 . S
H2617 C2638 0.929 . S
H2618 C2647 0.930 . S
H2619 C2639 0.931 . S
O2620 Co2596 2.097 . S
O2620 C2648 1.214 . S
H2621 C2649 0.929 . S
H2622 C2650 0.929 . S
H2623 C2651 0.930 . S
H2624 C2652 0.929 . S
H2625 C2654 0.930 . S
H2626 C2631 0.930 . S
H2627 C2635 0.930 . S
O2628 Co2597 2.037 . S
O2628 C2648 1.234 . S
C2629 O2603 1.269 . S
C2629 O2604 1.257 . S
C2630 H2605 0.930 . S
C2630 C2633 1.388 . S
C2630 C2635 1.418 . S
C2631 H2626 0.930 . S
C2631 C2634 1.404 . S
C2631 C2635 1.353 . S
N2632 Co2597 2.145 . S
N2632 C2633 1.397 . S
N2632 C2634 1.334 . S
C2633 H2614 0.929 . S
C2633 C2630 1.388 . S
C2633 N2632 1.397 . S
C2634 H2615 0.929 . S
C2634 C2631 1.404 . S
C2634 N2632 1.334 . S
C2635 H2627 0.930 . S
C2635 C2630 1.418 . S
C2635 C2631 1.353 . S
C2636 H2606 0.930 . S
C2636 N2637 1.330 . S
C2636 C2638 1.446 . S
N2637 Co2596 2.151 . S
N2637 C2636 1.330 . S
N2637 C2641 1.418 . S
C2638 H2617 0.929 . S
C2638 C2636 1.446 . S
C2638 C2639 1.332 . S
C2639 H2619 0.931 . S
C2639 C2638 1.332 . S
C2639 C2640 1.267 . S
C2640 H2608 0.929 . S
C2640 C2639 1.267 . S
C2640 C2641 1.251 . S
C2641 H2611 0.929 . S
C2641 N2637 1.418 . S
C2641 C2640 1.251 . S
C2642 H2609 0.930 . S
C2642 C2644 1.406 . S
C2642 C2647 1.261 . S
C2643 H2610 0.930 . S
C2643 N2645 1.325 . S
C2643 C2646 1.357 . S
C2644 H2612 0.928 . S
C2644 C2642 1.406 . S
C2644 N2645 1.261 . S
N2645 Co2596 2.214 . S
N2645 C2643 1.325 . S
N2645 C2644 1.261 . S
C2646 H2616 0.931 . S
C2646 C2643 1.357 . S
C2646 C2647 1.312 . S
C2647 H2618 0.930 . S
C2647 C2642 1.261 . S
C2647 C2646 1.312 . S
C2648 O2620 1.214 . S
C2648 O2628 1.234 . S
C2649 H2621 0.929 . S
C2649 C2652 1.391 . S
C2649 C2654 1.391 . S
C2650 H2622 0.929 . S
C2650 C2651 1.390 . S
C2650 N2653 1.391 . S
C2651 H2623 0.930 . S
C2651 C2650 1.390 . S
C2651 C2652 1.392 . S
C2652 H2624 0.929 . S
C2652 C2649 1.391 . S
C2652 C2651 1.392 . S
N2653 Co2597 2.257 . S
N2653 C2650 1.391 . S
N2653 C2654 1.388 . S
C2654 H2625 0.930 . S
C2654 C2649 1.391 . S
C2654 N2653 1.388 . S
Co2655 O2657 2.143 . S
Co2655 O2663 2.091 . S
Co2655 O2666 2.093 . S
Co2655 O2679 2.097 . S
Co2655 N2696 2.151 . S
Co2655 N2704 2.214 . S
Co2656 O2657 2.160 1_554 S
Co2656 O2662 2.058 . S
Co2656 O2672 2.057 . S
Co2656 O2687 2.037 . S
Co2656 N2691 2.145 . S
Co2656 N2712 2.257 . S
O2657 Co2655 2.143 . S
O2657 Co2656 2.160 1_556 S
C2658 O2659 1.278 . S
C2658 O2666 1.224 . S
O2659 C2658 1.278 . S
C2660 O2661 1.230 1_554 S
C2660 O2672 1.232 . S
O2661 C2660 1.230 1_556 S
O2662 Co2656 2.058 . S
O2662 C2688 1.269 . S
O2663 Co2655 2.091 . S
O2663 C2688 1.242 1_556 S
H2664 C2689 0.930 . S
H2665 C2695 0.930 . S
O2666 Co2655 2.093 . S
O2666 C2658 1.224 . S
H2667 C2699 0.929 . S
H2668 C2701 0.930 . S
H2669 C2702 0.930 . S
H2670 C2700 0.929 . S
H2671 C2703 0.928 . S
O2672 Co2656 2.057 . S
O2672 C2660 1.232 . S
H2673 C2692 0.929 . S
H2674 C2693 0.929 . S
H2675 C2705 0.931 . S
H2676 C2697 0.929 . S
H2677 C2706 0.930 . S
H2678 C2698 0.931 . S
O2679 Co2655 2.097 . S
O2679 C2707 1.214 1_556 S
H2680 C2708 0.929 . S
H2681 C2709 0.929 . S
H2682 C2710 0.930 . S
H2683 C2711 0.929 . S
H2684 C2713 0.930 . S
H2685 C2690 0.930 . S
H2686 C2694 0.930 . S
O2687 Co2656 2.037 . S
O2687 C2707 1.234 . S
C2688 O2662 1.269 . S
C2688 O2663 1.242 1_554 S
C2689 H2664 0.930 . S
C2689 C2692 1.388 . S
C2689 C2694 1.418 . S
C2690 H2685 0.930 . S
C2690 C2693 1.404 . S
C2690 C2694 1.353 . S
N2691 Co2656 2.145 . S
N2691 C2692 1.397 . S
N2691 C2693 1.334 . S
C2692 H2673 0.929 . S
C2692 C2689 1.388 . S
C2692 N2691 1.397 . S
C2693 H2674 0.929 . S
C2693 C2690 1.404 . S
C2693 N2691 1.334 . S
C2694 H2686 0.930 . S
C2694 C2689 1.418 . S
C2694 C2690 1.353 . S
C2695 H2665 0.930 . S
C2695 N2696 1.330 . S
C2695 C2697 1.446 . S
N2696 Co2655 2.151 . S
N2696 C2695 1.330 . S
N2696 C2700 1.418 . S
C2697 H2676 0.929 . S
C2697 C2695 1.446 . S
C2697 C2698 1.332 . S
C2698 H2678 0.931 . S
C2698 C2697 1.332 . S
C2698 C2699 1.267 . S
C2699 H2667 0.929 . S
C2699 C2698 1.267 . S
C2699 C2700 1.251 . S
C2700 H2670 0.929 . S
C2700 N2696 1.418 . S
C2700 C2699 1.251 . S
C2701 H2668 0.930 . S
C2701 C2703 1.406 . S
C2701 C2706 1.261 . S
C2702 H2669 0.930 . S
C2702 N2704 1.325 . S
C2702 C2705 1.357 . S
C2703 H2671 0.928 . S
C2703 C2701 1.406 . S
C2703 N2704 1.261 . S
N2704 Co2655 2.214 . S
N2704 C2702 1.325 . S
N2704 C2703 1.261 . S
C2705 H2675 0.931 . S
C2705 C2702 1.357 . S
C2705 C2706 1.312 . S
C2706 H2677 0.930 . S
C2706 C2701 1.261 . S
C2706 C2705 1.312 . S
C2707 O2679 1.214 1_554 S
C2707 O2687 1.234 . S
C2708 H2680 0.929 . S
C2708 C2711 1.391 . S
C2708 C2713 1.391 . S
C2709 H2681 0.929 . S
C2709 C2710 1.390 . S
C2709 N2712 1.391 . S
C2710 H2682 0.930 . S
C2710 C2709 1.390 . S
C2710 C2711 1.392 . S
C2711 H2683 0.929 . S
C2711 C2708 1.391 . S
C2711 C2710 1.392 . S
N2712 Co2656 2.257 . S
N2712 C2709 1.391 . S
N2712 C2713 1.388 . S
C2713 H2684 0.930 . S
C2713 C2708 1.391 . S
C2713 N2712 1.388 . S
Co2714 O2716 2.143 1_545 S
Co2714 O2722 2.074 . S
Co2714 O2725 2.093 1_545 S
Co2714 O2738 2.097 1_545 S
Co2714 N2755 2.151 . S
Co2714 N2763 2.214 . S
Co2715 O2716 2.160 . S
Co2715 O2721 2.058 1_565 S
Co2715 O2731 2.057 . S
Co2715 O2746 2.037 . S
Co2715 N2750 2.145 . S
Co2715 N2771 2.257 . S
O2716 Co2714 2.143 1_565 S
O2716 Co2715 2.160 . S
C2717 O2718 1.278 . S
C2717 O2725 1.224 . S
O2718 C2717 1.278 . S
C2719 O2720 1.238 . S
C2719 O2731 1.232 . S
O2720 C2719 1.238 . S
O2721 Co2715 2.058 1_545 S
O2721 C2747 1.269 . S
O2722 Co2714 2.074 . S
O2722 C2747 1.257 . S
H2723 C2748 0.930 . S
H2724 C2754 0.930 . S
O2725 Co2714 2.093 1_565 S
O2725 C2717 1.224 . S
H2726 C2758 0.929 . S
H2727 C2760 0.930 . S
H2728 C2761 0.930 . S
H2729 C2759 0.929 . S
H2730 C2762 0.928 . S
O2731 Co2715 2.057 . S
O2731 C2719 1.232 . S
H2732 C2751 0.929 1_545 S
H2733 C2752 0.929 . S
H2734 C2764 0.931 . S
H2735 C2756 0.929 . S
H2736 C2765 0.930 . S
H2737 C2757 0.931 . S
O2738 Co2714 2.097 1_565 S
O2738 C2766 1.214 . S
H2739 C2767 0.929 . S
H2740 C2768 0.929 . S
H2741 C2769 0.930 . S
H2742 C2770 0.929 . S
H2743 C2772 0.930 . S
H2744 C2749 0.930 . S
H2745 C2753 0.930 . S
O2746 Co2715 2.037 . S
O2746 C2766 1.234 . S
C2747 O2721 1.269 . S
C2747 O2722 1.257 . S
C2748 H2723 0.930 . S
C2748 C2751 1.388 . S
C2748 C2753 1.418 . S
C2749 H2744 0.930 . S
C2749 C2752 1.404 . S
C2749 C2753 1.353 . S
N2750 Co2715 2.145 . S
N2750 C2751 1.397 . S
N2750 C2752 1.334 . S
C2751 H2732 0.929 1_565 S
C2751 C2748 1.388 . S
C2751 N2750 1.397 . S
C2752 H2733 0.929 . S
C2752 C2749 1.404 . S
C2752 N2750 1.334 . S
C2753 H2745 0.930 . S
C2753 C2748 1.418 . S
C2753 C2749 1.353 . S
C2754 H2724 0.930 . S
C2754 N2755 1.330 . S
C2754 C2756 1.446 . S
N2755 Co2714 2.151 . S
N2755 C2754 1.330 . S
N2755 C2759 1.418 . S
C2756 H2735 0.929 . S
C2756 C2754 1.446 . S
C2756 C2757 1.332 . S
C2757 H2737 0.931 . S
C2757 C2756 1.332 . S
C2757 C2758 1.267 . S
C2758 H2726 0.929 . S
C2758 C2757 1.267 . S
C2758 C2759 1.251 . S
C2759 H2729 0.929 . S
C2759 N2755 1.418 . S
C2759 C2758 1.251 . S
C2760 H2727 0.930 . S
C2760 C2762 1.406 . S
C2760 C2765 1.261 . S
C2761 H2728 0.930 . S
C2761 N2763 1.325 . S
C2761 C2764 1.357 . S
C2762 H2730 0.928 . S
C2762 C2760 1.406 . S
C2762 N2763 1.261 . S
N2763 Co2714 2.214 . S
N2763 C2761 1.325 . S
N2763 C2762 1.261 . S
C2764 H2734 0.931 . S
C2764 C2761 1.357 . S
C2764 C2765 1.312 . S
C2765 H2736 0.930 . S
C2765 C2760 1.261 . S
C2765 C2764 1.312 . S
C2766 O2738 1.214 . S
C2766 O2746 1.234 . S
C2767 H2739 0.929 . S
C2767 C2770 1.391 . S
C2767 C2772 1.391 . S
C2768 H2740 0.929 . S
C2768 C2769 1.390 . S
C2768 N2771 1.391 . S
C2769 H2741 0.930 . S
C2769 C2768 1.390 . S
C2769 C2770 1.392 . S
C2770 H2742 0.929 . S
C2770 C2767 1.391 . S
C2770 C2769 1.392 . S
N2771 Co2715 2.257 . S
N2771 C2768 1.391 . S
N2771 C2772 1.388 . S
C2772 H2743 0.930 . S
C2772 C2767 1.391 . S
C2772 N2771 1.388 . S
Co2773 O2775 2.143 . S
Co2773 O2781 2.074 . S
Co2773 O2784 2.093 . S
Co2773 O2797 2.097 1_545 S
Co2773 N2814 2.165 . S
Co2773 N2822 2.214 . S
Co2774 O2775 2.160 1_565 S
Co2774 O2780 2.058 1_665 S
Co2774 O2790 2.057 1_655 S
Co2774 O2805 2.037 . S
Co2774 N2809 2.145 . S
Co2774 N2830 2.257 . S
O2775 Co2773 2.143 . S
O2775 Co2774 2.160 1_545 S
C2776 O2777 1.278 1_545 S
C2776 O2784 1.224 . S
O2777 C2776 1.278 1_565 S
C2778 O2779 1.245 . S
C2778 O2790 1.232 1_545 S
O2779 C2778 1.245 . S
O2780 Co2774 2.058 1_445 S
O2780 C2806 1.234 1_455 S
O2781 Co2773 2.074 . S
O2781 C2806 1.288 . S
H2782 C2807 0.930 . S
H2783 C2813 0.930 . S
O2784 Co2773 2.093 . S
O2784 C2776 1.224 . S
H2785 C2817 0.929 . S
H2786 C2819 0.930 . S
H2787 C2820 0.930 . S
H2788 C2818 0.929 1_655 S
H2789 C2821 0.928 . S
O2790 Co2774 2.057 1_455 S
O2790 C2778 1.232 1_565 S
H2791 C2810 0.929 . S
H2792 C2811 0.929 . S
H2793 C2823 0.931 . S
H2794 C2815 0.929 . S
H2795 C2824 0.930 . S
H2796 C2816 0.931 . S
O2797 Co2773 2.097 1_565 S
O2797 C2825 1.214 . S
H2798 C2826 0.929 . S
H2799 C2827 0.929 . S
H2800 C2828 0.930 . S
H2801 C2829 0.929 . S
H2802 C2831 0.930 . S
H2803 C2808 0.930 . S
H2804 C2812 0.930 . S
O2805 Co2774 2.037 . S
O2805 C2825 1.234 . S
C2806 O2780 1.234 1_655 S
C2806 O2781 1.288 . S
C2807 H2782 0.930 . S
C2807 C2810 1.388 . S
C2807 C2812 1.418 . S
C2808 H2803 0.930 . S
C2808 C2811 1.404 . S
C2808 C2812 1.353 1_455 S
N2809 Co2774 2.145 . S
N2809 C2810 1.397 . S
N2809 C2811 1.334 1_655 S
C2810 H2791 0.929 . S
C2810 C2807 1.388 . S
C2810 N2809 1.397 . S
C2811 H2792 0.929 . S
C2811 C2808 1.404 . S
C2811 N2809 1.334 1_455 S
C2812 H2804 0.930 . S
C2812 C2807 1.418 . S
C2812 C2808 1.353 1_655 S
C2813 H2783 0.930 . S
C2813 N2814 1.306 1_455 S
C2813 C2815 1.446 . S
N2814 Co2773 2.165 . S
N2814 C2813 1.306 1_655 S
N2814 C2818 1.433 1_655 S
C2815 H2794 0.929 . S
C2815 C2813 1.446 . S
C2815 C2816 1.332 . S
C2816 H2796 0.931 . S
C2816 C2815 1.332 . S
C2816 C2817 1.267 . S
C2817 H2785 0.929 . S
C2817 C2816 1.267 . S
C2817 C2818 1.251 . S
C2818 H2788 0.929 1_455 S
C2818 N2814 1.433 1_455 S
C2818 C2817 1.251 . S
C2819 H2786 0.930 . S
C2819 C2821 1.406 . S
C2819 C2824 1.261 . S
C2820 H2787 0.930 . S
C2820 N2822 1.325 . S
C2820 C2823 1.357 . S
C2821 H2789 0.928 . S
C2821 C2819 1.406 . S
C2821 N2822 1.261 . S
N2822 Co2773 2.214 . S
N2822 C2820 1.325 . S
N2822 C2821 1.261 . S
C2823 H2793 0.931 . S
C2823 C2820 1.357 . S
C2823 C2824 1.312 . S
C2824 H2795 0.930 . S
C2824 C2819 1.261 . S
C2824 C2823 1.312 . S
C2825 O2797 1.214 . S
C2825 O2805 1.234 . S
C2826 H2798 0.929 . S
C2826 C2829 1.391 . S
C2826 C2831 1.391 . S
C2827 H2799 0.929 . S
C2827 C2828 1.390 . S
C2827 N2830 1.391 . S
C2828 H2800 0.930 . S
C2828 C2827 1.390 . S
C2828 C2829 1.392 . S
C2829 H2801 0.929 . S
C2829 C2826 1.391 . S
C2829 C2828 1.392 . S
N2830 Co2774 2.257 . S
N2830 C2827 1.391 . S
N2830 C2831 1.388 . S
C2831 H2802 0.930 . S
C2831 C2826 1.391 . S
C2831 N2830 1.388 . S
H2832 C2840 0.929 1_455 S
H2833 C2842 0.930 1_455 S
H2834 C2844 0.930 . S
H2835 C2847 0.929 . S
H2836 C2850 0.930 . S
H2837 C2852 0.960 . S
H2838 C2852 0.960 . S
H2839 C2852 0.960 . S
C2840 H2832 0.929 1_655 S
C2840 C2841 1.377 . S
C2840 C2842 1.384 . S
C2841 C2840 1.377 . S
C2841 C2847 1.390 . S
C2842 H2833 0.930 1_655 S
C2842 C2840 1.384 . S
C2842 C2843 1.372 . S
C2843 C2842 1.372 . S
C2843 C2844 1.400 . S
C2843 C2848 1.490 . S
C2844 H2834 0.930 . S
C2844 C2843 1.400 . S
C2844 C2847 1.386 . S
H2845 C2861 0.930 . S
H2846 C2862 0.931 . S
C2847 H2835 0.929 . S
C2847 C2841 1.390 . S
C2847 C2844 1.386 . S
C2848 C2843 1.490 . S
C2848 C2850 1.395 1_655 S
C2848 C2851 1.403 . S
H2849 C2855 0.930 . S
C2850 H2836 0.930 . S
C2850 C2848 1.395 1_455 S
C2850 C2853 1.403 . S
C2851 C2848 1.403 . S
C2851 C2852 1.524 . S
C2851 C2855 1.400 . S
C2852 H2837 0.960 . S
C2852 H2838 0.960 . S
C2852 H2839 0.960 . S
C2852 C2851 1.524 . S
C2853 C2850 1.403 . S
C2853 C2854 1.392 1_455 S
C2853 C2857 1.495 1_556 S
C2854 C2853 1.392 1_655 S
C2854 C2855 1.385 . S
C2854 C2856 1.478 1_556 S
C2855 H2849 0.930 . S
C2855 C2851 1.400 . S
C2855 C2854 1.385 . S
C2856 C2854 1.478 1_554 S
C2856 C2858 1.381 . S
C2856 C2862 1.383 . S
C2857 C2853 1.495 1_554 S
C2857 H2863 0.959 . S
C2857 H2864 0.961 . S
C2857 H2865 0.960 . S
C2858 C2856 1.381 . S
C2858 C2859 1.394 . S
C2858 H2866 0.930 1_655 S
C2859 C2858 1.394 . S
C2859 C2860 1.383 . S
C2859 H2867 0.929 1_655 S
C2860 C2859 1.383 . S
C2860 C2861 1.377 . S
C2861 H2845 0.930 . S
C2861 C2860 1.377 . S
C2861 C2862 1.379 . S
C2862 H2846 0.931 . S
C2862 C2856 1.383 . S
C2862 C2861 1.379 . S
H2863 C2857 0.959 . S
H2864 C2857 0.961 . S
H2865 C2857 0.960 . S
H2866 C2858 0.930 1_455 S
H2867 C2859 0.929 1_455 S
H2868 C2876 0.929 . S
H2869 C2878 0.930 . S
H2870 C2880 0.930 . S
H2871 C2883 0.929 . S
H2872 C2886 0.930 . S
H2873 C2888 0.960 . S
H2874 C2888 0.960 . S
H2875 C2888 0.960 . S
C2876 H2868 0.929 . S
C2876 C2877 1.377 1_455 S
C2876 C2878 1.384 . S
C2877 C2876 1.377 1_655 S
C2877 C2883 1.390 . S
C2878 H2869 0.930 . S
C2878 C2876 1.384 . S
C2878 C2879 1.372 1_455 S
C2879 C2878 1.372 1_655 S
C2879 C2880 1.400 . S
C2879 C2884 1.490 1_655 S
C2880 H2870 0.930 . S
C2880 C2879 1.400 . S
C2880 C2883 1.386 . S
H2881 C2897 0.930 1_655 S
H2882 C2898 0.931 1_655 S
C2883 H2871 0.929 . S
C2883 C2877 1.390 . S
C2883 C2880 1.386 . S
C2884 C2879 1.490 1_455 S
C2884 C2886 1.395 . S
C2884 C2887 1.403 1_455 S
H2885 C2891 0.930 . S
C2886 H2872 0.930 . S
C2886 C2884 1.395 . S
C2886 C2889 1.403 . S
C2887 C2884 1.403 1_655 S
C2887 C2888 1.524 . S
C2887 C2891 1.400 . S
C2888 H2873 0.960 . S
C2888 H2874 0.960 . S
C2888 H2875 0.960 . S
C2888 C2887 1.524 . S
C2889 C2886 1.403 . S
C2889 C2890 1.392 . S
C2889 C2893 1.495 . S
C2890 C2889 1.392 . S
C2890 C2891 1.385 1_455 S
C2890 C2892 1.478 . S
C2891 H2885 0.930 . S
C2891 C2887 1.400 . S
C2891 C2890 1.385 1_655 S
C2892 C2890 1.478 . S
C2892 C2894 1.381 . S
C2892 C2898 1.383 . S
C2893 C2889 1.495 . S
C2893 H2899 0.959 . S
C2893 H2900 0.961 . S
C2893 H2901 0.960 . S
C2894 C2892 1.381 . S
C2894 C2895 1.394 . S
C2894 H2902 0.930 . S
C2895 C2894 1.394 . S
C2895 C2896 1.383 . S
C2895 H2903 0.929 . S
C2896 C2895 1.383 . S
C2896 C2897 1.377 . S
C2897 H2881 0.930 1_455 S
C2897 C2896 1.377 . S
C2897 C2898 1.379 . S
C2898 H2882 0.931 1_455 S
C2898 C2892 1.383 . S
C2898 C2897 1.379 . S
H2899 C2893 0.959 . S
H2900 C2893 0.961 . S
H2901 C2893 0.960 . S
H2902 C2894 0.930 . S
H2903 C2895 0.929 . S
H2904 C2912 0.929 . S
H2905 C2914 0.930 . S
H2906 C2916 0.930 . S
H2907 C2919 0.929 . S
H2908 C2922 0.930 . S
H2909 C2924 0.960 . S
H2910 C2924 0.960 . S
H2911 C2924 0.960 . S
C2912 H2904 0.929 . S
C2912 C2913 1.377 . S
C2912 C2914 1.384 . S
C2913 C2912 1.377 . S
C2913 C2919 1.390 . S
C2914 H2905 0.930 . S
C2914 C2912 1.384 . S
C2914 C2915 1.372 . S
C2915 C2914 1.372 . S
C2915 C2916 1.400 . S
C2915 C2920 1.490 . S
C2916 H2906 0.930 . S
C2916 C2915 1.400 . S
C2916 C2919 1.386 . S
H2917 C2933 0.930 . S
H2918 C2934 0.931 . S
C2919 H2907 0.929 . S
C2919 C2913 1.390 . S
C2919 C2916 1.386 . S
C2920 C2915 1.490 . S
C2920 C2922 1.395 . S
C2920 C2923 1.403 . S
H2921 C2927 0.930 . S
C2922 H2908 0.930 . S
C2922 C2920 1.395 . S
C2922 C2925 1.403 . S
C2923 C2920 1.403 . S
C2923 C2924 1.524 . S
C2923 C2927 1.400 . S
C2924 H2909 0.960 . S
C2924 H2910 0.960 . S
C2924 H2911 0.960 . S
C2924 C2923 1.524 . S
C2925 C2922 1.403 . S
C2925 C2926 1.392 . S
C2925 C2929 1.495 . S
C2926 C2925 1.392 . S
C2926 C2927 1.385 . S
C2926 C2928 1.478 . S
C2927 H2921 0.930 . S
C2927 C2923 1.400 . S
C2927 C2926 1.385 . S
C2928 C2926 1.478 . S
C2928 C2930 1.381 . S
C2928 C2934 1.383 . S
C2929 C2925 1.495 . S
C2929 H2935 0.959 . S
C2929 H2936 0.961 . S
C2929 H2937 0.960 . S
C2930 C2928 1.381 . S
C2930 C2931 1.394 . S
C2930 H2938 0.930 . S
C2931 C2930 1.394 . S
C2931 C2932 1.383 . S
C2931 H2939 0.929 . S
C2932 C2931 1.383 . S
C2932 C2933 1.377 . S
C2933 H2917 0.930 . S
C2933 C2932 1.377 . S
C2933 C2934 1.379 . S
C2934 H2918 0.931 . S
C2934 C2928 1.383 . S
C2934 C2933 1.379 . S
H2935 C2929 0.959 . S
H2936 C2929 0.961 . S
H2937 C2929 0.960 . S
H2938 C2930 0.930 . S
H2939 C2931 0.929 . S
H2940 C2948 0.929 . S
H2941 C2950 0.930 . S
H2942 C2952 0.930 . S
H2943 C2955 0.929 . S
H2944 C2958 0.911 1_556 S
H2945 C2960 0.960 . S
H2946 C2960 0.960 . S
H2947 C2960 0.960 . S
C2948 H2940 0.929 . S
C2948 C2949 1.377 . S
C2948 C2950 1.384 . S
C2949 C2948 1.377 . S
C2949 C2955 1.390 . S
C2950 H2941 0.930 . S
C2950 C2948 1.384 . S
C2950 C2951 1.372 . S
C2951 C2950 1.372 . S
C2951 C2952 1.400 . S
C2951 C2956 1.490 . S
C2952 H2942 0.930 . S
C2952 C2951 1.400 . S
C2952 C2955 1.386 . S
H2953 C2969 0.930 . S
H2954 C2970 0.931 . S
C2955 H2943 0.929 . S
C2955 C2949 1.390 . S
C2955 C2952 1.386 . S
C2956 C2951 1.490 . S
C2956 C2958 1.395 1_556 S
C2956 C2959 1.403 . S
H2957 C2963 0.930 . S
C2958 H2944 0.911 1_554 S
C2958 C2956 1.395 1_554 S
C2958 C2961 1.403 . S
C2959 C2956 1.403 . S
C2959 C2960 1.524 . S
C2959 C2963 1.400 1_556 S
C2960 H2945 0.960 . S
C2960 H2946 0.960 . S
C2960 H2947 0.960 . S
C2960 C2959 1.524 . S
C2961 C2958 1.403 . S
C2961 C2962 1.392 . S
C2961 C2965 1.495 . S
C2962 C2961 1.392 . S
C2962 C2963 1.385 . S
C2962 C2964 1.478 . S
C2963 H2957 0.930 . S
C2963 C2959 1.400 1_554 S
C2963 C2962 1.385 . S
C2964 C2962 1.478 . S
C2964 C2966 1.381 . S
C2964 C2970 1.383 . S
C2965 C2961 1.495 . S
C2965 H2971 0.959 . S
C2965 H2972 0.961 . S
C2965 H2973 0.960 . S
C2966 C2964 1.381 . S
C2966 C2967 1.394 . S
C2966 H2974 0.930 . S
C2967 C2966 1.394 . S
C2967 C2968 1.383 . S
C2967 H2975 0.929 . S
C2968 C2967 1.383 . S
C2968 C2969 1.377 . S
C2969 H2953 0.930 . S
C2969 C2968 1.377 . S
C2969 C2970 1.379 . S
C2970 H2954 0.931 . S
C2970 C2964 1.383 . S
C2970 C2969 1.379 . S
H2971 C2965 0.959 . S
H2972 C2965 0.961 . S
H2973 C2965 0.960 . S
H2974 C2966 0.930 . S
H2975 C2967 0.929 . S
H2976 C2984 0.929 . S
H2977 C2986 0.930 . S
H2978 C2988 0.930 . S
H2979 C2991 0.929 . S
H2980 C2994 0.930 . S
H2981 C2996 0.960 . S
H2982 C2996 0.960 . S
H2983 C2996 0.960 . S
C2984 H2976 0.929 . S
C2984 C2985 1.377 1_545 S
C2984 C2986 1.384 . S
C2985 C2984 1.377 1_565 S
C2985 C2991 1.390 . S
C2986 H2977 0.930 . S
C2986 C2984 1.384 . S
C2986 C2987 1.372 1_545 S
C2987 C2986 1.372 1_565 S
C2987 C2988 1.400 . S
C2987 C2992 1.490 . S
C2988 H2978 0.930 . S
C2988 C2987 1.400 . S
C2988 C2991 1.386 . S
H2989 C3005 0.930 . S
H2990 C3006 0.931 . S
C2991 H2979 0.929 . S
C2991 C2985 1.390 . S
C2991 C2988 1.386 . S
C2992 C2987 1.490 . S
C2992 C2994 1.395 1_565 S
C2992 C2995 1.403 . S
H2993 C2999 0.930 . S
C2994 H2980 0.930 . S
C2994 C2992 1.395 1_545 S
C2994 C2997 1.403 . S
C2995 C2992 1.403 . S
C2995 C2996 1.524 . S
C2995 C2999 1.400 . S
C2996 H2981 0.960 . S
C2996 H2982 0.960 . S
C2996 H2983 0.960 . S
C2996 C2995 1.524 . S
C2997 C2994 1.403 . S
C2997 C2998 1.392 1_545 S
C2997 C3001 1.495 1_655 S
C2998 C2997 1.392 1_565 S
C2998 C2999 1.385 . S
C2998 C3000 1.478 1_655 S
C2999 H2993 0.930 . S
C2999 C2995 1.400 . S
C2999 C2998 1.385 . S
C3000 C2998 1.478 1_455 S
C3000 C3002 1.381 1_565 S
C3000 C3006 1.383 . S
C3001 C2997 1.495 1_455 S
C3001 H3007 0.959 . S
C3001 H3008 0.961 . S
C3001 H3009 0.960 . S
C3002 C3000 1.381 1_545 S
C3002 C3003 1.394 . S
C3002 H3010 0.930 . S
C3003 C3002 1.394 . S
C3003 C3004 1.383 1_545 S
C3003 H3011 0.929 . S
C3004 C3003 1.383 1_565 S
C3004 C3005 1.377 . S
C3005 H2989 0.930 . S
C3005 C3004 1.377 . S
C3005 C3006 1.379 . S
C3006 H2990 0.931 . S
C3006 C3000 1.383 . S
C3006 C3005 1.379 . S
H3007 C3001 0.959 . S
H3008 C3001 0.961 . S
H3009 C3001 0.960 . S
H3010 C3002 0.930 . S
H3011 C3003 0.929 . S
H3012 C3020 0.929 . S
H3013 C3022 0.930 . S
H3014 C3024 0.930 . S
H3015 C3027 0.929 . S
H3016 C3030 0.930 . S
H3017 C3032 0.960 . S
H3018 C3032 0.960 1_545 S
H3019 C3032 0.960 . S
C3020 H3012 0.929 . S
C3020 C3021 1.377 . S
C3020 C3022 1.384 . S
C3021 C3020 1.377 . S
C3021 C3027 1.390 . S
C3022 H3013 0.930 . S
C3022 C3020 1.384 . S
C3022 C3023 1.372 . S
C3023 C3022 1.372 . S
C3023 C3024 1.400 . S
C3023 C3028 1.490 . S
C3024 H3014 0.930 . S
C3024 C3023 1.400 . S
C3024 C3027 1.386 . S
H3025 C3041 0.930 . S
H3026 C3042 0.931 . S
C3027 H3015 0.929 . S
C3027 C3021 1.390 . S
C3027 C3024 1.386 . S
C3028 C3023 1.490 . S
C3028 C3030 1.395 . S
C3028 C3031 1.403 . S
H3029 C3035 0.930 . S
C3030 H3016 0.930 . S
C3030 C3028 1.395 . S
C3030 C3033 1.403 . S
C3031 C3028 1.403 . S
C3031 C3032 1.524 1_545 S
C3031 C3035 1.400 1_545 S
C3032 H3017 0.960 . S
C3032 H3018 0.960 1_565 S
C3032 H3019 0.960 . S
C3032 C3031 1.524 1_565 S
C3033 C3030 1.403 . S
C3033 C3034 1.392 1_545 S
C3033 C3037 1.495 . S
C3034 C3033 1.392 1_565 S
C3034 C3035 1.385 . S
C3034 C3036 1.478 . S
C3035 H3029 0.930 . S
C3035 C3031 1.400 1_565 S
C3035 C3034 1.385 . S
C3036 C3034 1.478 . S
C3036 C3038 1.381 . S
C3036 C3042 1.383 . S
C3037 C3033 1.495 . S
C3037 H3043 0.959 . S
C3037 H3044 0.961 . S
C3037 H3045 0.960 . S
C3038 C3036 1.381 . S
C3038 C3039 1.394 . S
C3038 H3046 0.930 . S
C3039 C3038 1.394 . S
C3039 C3040 1.383 . S
C3039 H3047 0.929 . S
C3040 C3039 1.383 . S
C3040 C3041 1.377 . S
C3041 H3025 0.930 . S
C3041 C3040 1.377 . S
C3041 C3042 1.379 . S
C3042 H3026 0.931 . S
C3042 C3036 1.383 . S
C3042 C3041 1.379 . S
H3043 C3037 0.959 . S
H3044 C3037 0.961 . S
H3045 C3037 0.960 . S
H3046 C3038 0.930 . S
H3047 C3039 0.929 . S
H3048 C3056 0.929 . S
H3049 C3058 0.930 . S
H3050 C3060 0.930 . S
H3051 C3063 0.929 . S
H3052 C3066 0.930 . S
H3053 C3068 0.960 . S
H3054 C3068 0.960 . S
H3055 C3068 0.960 . S
C3056 H3048 0.929 . S
C3056 C3057 1.377 . S
C3056 C3058 1.384 . S
C3057 C3056 1.377 . S
C3057 C3063 1.390 . S
C3058 H3049 0.930 . S
C3058 C3056 1.384 . S
C3058 C3059 1.372 . S
C3059 C3058 1.372 . S
C3059 C3060 1.400 . S
C3059 C3064 1.490 . S
C3060 H3050 0.930 . S
C3060 C3059 1.400 . S
C3060 C3063 1.386 . S
H3061 C3077 0.930 . S
H3062 C3078 0.931 . S
C3063 H3051 0.929 . S
C3063 C3057 1.390 . S
C3063 C3060 1.386 . S
C3064 C3059 1.490 . S
C3064 C3066 1.395 . S
C3064 C3067 1.403 . S
H3065 C3071 0.930 . S
C3066 H3052 0.930 . S
C3066 C3064 1.395 . S
C3066 C3069 1.403 . S
C3067 C3064 1.403 . S
C3067 C3068 1.524 . S
C3067 C3071 1.400 . S
C3068 H3053 0.960 . S
C3068 H3054 0.960 . S
C3068 H3055 0.960 . S
C3068 C3067 1.524 . S
C3069 C3066 1.403 . S
C3069 C3070 1.392 . S
C3069 C3073 1.495 . S
C3070 C3069 1.392 . S
C3070 C3071 1.385 . S
C3070 C3072 1.478 . S
C3071 H3065 0.930 . S
C3071 C3067 1.400 . S
C3071 C3070 1.385 . S
C3072 C3070 1.478 . S
C3072 C3074 1.381 . S
C3072 C3078 1.383 . S
C3073 C3069 1.495 . S
C3073 H3079 0.959 . S
C3073 H3080 0.961 . S
C3073 H3081 0.960 . S
C3074 C3072 1.381 . S
C3074 C3075 1.394 . S
C3074 H3082 0.930 . S
C3075 C3074 1.394 . S
C3075 C3076 1.383 . S
C3075 H3083 0.929 . S
C3076 C3075 1.383 . S
C3076 C3077 1.377 . S
C3077 H3061 0.930 . S
C3077 C3076 1.377 . S
C3077 C3078 1.379 . S
C3078 H3062 0.931 . S
C3078 C3072 1.383 . S
C3078 C3077 1.379 . S
H3079 C3073 0.959 . S
H3080 C3073 0.961 . S
H3081 C3073 0.960 . S
H3082 C3074 0.930 . S
H3083 C3075 0.929 . S
H3084 C3092 0.929 . S
H3085 C3094 0.930 . S
H3086 C3096 0.911 1_554 S
H3087 C3099 0.929 . S
H3088 C3102 0.930 . S
H3089 C3104 0.960 . S
H3090 C3104 0.960 . S
H3091 C3104 0.960 . S
C3092 H3084 0.929 . S
C3092 C3093 1.377 . S
C3092 C3094 1.384 . S
C3093 C3092 1.377 . S
C3093 C3099 1.390 1_556 S
C3094 H3085 0.930 . S
C3094 C3092 1.384 . S
C3094 C3095 1.372 . S
C3095 C3094 1.372 . S
C3095 C3096 1.445 . S
C3095 C3100 1.490 . S
C3096 H3086 0.911 1_556 S
C3096 C3095 1.445 . S
C3096 C3099 1.361 1_556 S
H3097 C3113 0.930 . S
H3098 C3114 0.931 . S
C3099 H3087 0.929 . S
C3099 C3093 1.390 1_554 S
C3099 C3096 1.361 1_554 S
C3100 C3095 1.490 . S
C3100 C3102 1.395 . S
C3100 C3103 1.403 . S
H3101 C3107 0.930 . S
C3102 H3088 0.930 . S
C3102 C3100 1.395 . S
C3102 C3105 1.403 . S
C3103 C3100 1.403 . S
C3103 C3104 1.524 1_556 S
C3103 C3107 1.400 . S
C3104 H3089 0.960 . S
C3104 H3090 0.960 . S
C3104 H3091 0.960 . S
C3104 C3103 1.524 1_554 S
C3105 C3102 1.403 . S
C3105 C3106 1.392 . S
C3105 C3109 1.495 . S
C3106 C3105 1.392 . S
C3106 C3107 1.385 . S
C3106 C3108 1.478 . S
C3107 H3101 0.930 . S
C3107 C3103 1.400 . S
C3107 C3106 1.385 . S
C3108 C3106 1.478 . S
C3108 C3110 1.381 . S
C3108 C3114 1.383 . S
C3109 C3105 1.495 . S
C3109 H3115 0.959 . S
C3109 H3116 0.961 . S
C3109 H3117 0.960 . S
C3110 C3108 1.381 . S
C3110 C3111 1.394 . S
C3110 H3118 0.930 . S
C3111 C3110 1.394 . S
C3111 C3112 1.383 . S
C3111 H3119 0.929 . S
C3112 C3111 1.383 . S
C3112 C3113 1.377 . S
C3113 H3097 0.930 . S
C3113 C3112 1.377 . S
C3113 C3114 1.379 . S
C3114 H3098 0.931 . S
C3114 C3108 1.383 . S
C3114 C3113 1.379 . S
H3115 C3109 0.959 . S
H3116 C3109 0.961 . S
H3117 C3109 0.960 . S
H3118 C3110 0.930 . S
H3119 C3111 0.929 . S
H3120 C3128 0.929 . S
H3121 C3130 0.930 . S
H3122 C3132 0.930 . S
H3123 C3135 0.929 . S
H3124 C3138 0.930 . S
H3125 C3140 0.960 . S
H3126 C3140 0.960 . S
H3127 C3140 0.960 . S
C3128 H3120 0.929 . S
C3128 C3129 1.377 . S
C3128 C3130 1.384 . S
C3129 C3128 1.377 . S
C3129 C3135 1.390 . S
C3130 H3121 0.930 . S
C3130 C3128 1.384 . S
C3130 C3131 1.372 . S
C3131 C3130 1.372 . S
C3131 C3132 1.400 . S
C3131 C3136 1.490 . S
C3132 H3122 0.930 . S
C3132 C3131 1.400 . S
C3132 C3135 1.386 . S
H3133 C3149 0.930 . S
H3134 C3150 0.931 . S
C3135 H3123 0.929 . S
C3135 C3129 1.390 . S
C3135 C3132 1.386 . S
C3136 C3131 1.490 . S
C3136 C3138 1.395 . S
C3136 C3139 1.403 . S
H3137 C3143 0.930 . S
C3138 H3124 0.930 . S
C3138 C3136 1.395 . S
C3138 C3141 1.403 . S
C3139 C3136 1.403 . S
C3139 C3140 1.524 . S
C3139 C3143 1.400 . S
C3140 H3125 0.960 . S
C3140 H3126 0.960 . S
C3140 H3127 0.960 . S
C3140 C3139 1.524 . S
C3141 C3138 1.403 . S
C3141 C3142 1.392 . S
C3141 C3145 1.495 1_565 S
C3142 C3141 1.392 . S
C3142 C3143 1.385 . S
C3142 C3144 1.478 . S
C3143 H3137 0.930 . S
C3143 C3139 1.400 . S
C3143 C3142 1.385 . S
C3144 C3142 1.478 . S
C3144 C3146 1.381 1_565 S
C3144 C3150 1.383 . S
C3145 C3141 1.495 1_545 S
C3145 H3151 0.959 . S
C3145 H3152 0.961 . S
C3145 H3153 0.960 . S
C3146 C3144 1.381 1_545 S
C3146 C3147 1.394 . S
C3146 H3154 0.930 . S
C3147 C3146 1.394 . S
C3147 C3148 1.383 1_545 S
C3147 H3155 0.929 . S
C3148 C3147 1.383 1_565 S
C3148 C3149 1.377 . S
C3149 H3133 0.930 . S
C3149 C3148 1.377 . S
C3149 C3150 1.379 . S
C3150 H3134 0.931 . S
C3150 C3144 1.383 . S
C3150 C3149 1.379 . S
H3151 C3145 0.959 . S
H3152 C3145 0.961 . S
H3153 C3145 0.960 . S
H3154 C3146 0.930 . S
H3155 C3147 0.929 . S
H3156 C3164 0.929 . S
H3157 C3166 0.930 . S
H3158 C3168 0.930 . S
H3159 C3171 0.929 . S
H3160 C3174 0.930 . S
H3161 C3176 0.960 . S
H3162 C3176 0.960 . S
H3163 C3176 0.960 . S
C3164 H3156 0.929 . S
C3164 C3165 1.377 . S
C3164 C3166 1.384 . S
C3165 C3164 1.377 . S
C3165 C3171 1.390 . S
C3166 H3157 0.930 . S
C3166 C3164 1.384 . S
C3166 C3167 1.372 . S
C3167 C3166 1.372 . S
C3167 C3168 1.400 . S
C3167 C3172 1.486 1_545 S
C3168 H3158 0.930 . S
C3168 C3167 1.400 . S
C3168 C3171 1.386 . S
H3169 C3185 0.930 . S
H3170 C3186 0.931 . S
C3171 H3159 0.929 . S
C3171 C3165 1.390 . S
C3171 C3168 1.386 . S
C3172 C3167 1.486 1_565 S
C3172 C3174 1.399 . S
C3172 C3175 1.402 1_565 S
H3173 C3179 0.930 . S
C3174 H3160 0.930 . S
C3174 C3172 1.399 . S
C3174 C3177 1.403 . S
C3175 C3172 1.402 1_545 S
C3175 C3176 1.524 . S
C3175 C3179 1.400 . S
C3176 H3161 0.960 . S
C3176 H3162 0.960 . S
C3176 H3163 0.960 . S
C3176 C3175 1.524 . S
C3177 C3174 1.403 . S
C3177 C3178 1.392 . S
C3177 C3181 1.495 . S
C3178 C3177 1.392 . S
C3178 C3179 1.385 1_565 S
C3178 C3180 1.478 . S
C3179 H3173 0.930 . S
C3179 C3175 1.400 . S
C3179 C3178 1.385 1_545 S
C3180 C3178 1.478 . S
C3180 C3182 1.381 . S
C3180 C3186 1.383 . S
C3181 C3177 1.495 . S
C3181 H3187 0.959 . S
C3181 H3188 0.961 . S
C3181 H3189 0.960 . S
C3182 C3180 1.381 . S
C3182 C3183 1.394 . S
C3182 H3190 0.930 . S
C3183 C3182 1.394 . S
C3183 C3184 1.383 . S
C3183 H3191 0.929 . S
C3184 C3183 1.383 . S
C3184 C3185 1.377 . S
C3185 H3169 0.930 . S
C3185 C3184 1.377 . S
C3185 C3186 1.379 . S
C3186 H3170 0.931 . S
C3186 C3180 1.383 . S
C3186 C3185 1.379 . S
H3187 C3181 0.959 . S
H3188 C3181 0.961 . S
H3189 C3181 0.960 . S
H3190 C3182 0.930 . S
H3191 C3183 0.929 . S
H3192 C3200 0.929 . S
H3193 C3202 0.930 . S
H3194 C3204 0.930 . S
H3195 C3207 0.929 . S
H3196 C3210 0.930 . S
H3197 C3212 0.960 . S
H3198 C3212 0.960 . S
H3199 C3212 0.960 . S
C3200 H3192 0.929 . S
C3200 C3201 1.377 1_545 S
C3200 C3202 1.384 . S
C3201 C3200 1.377 1_565 S
C3201 C3207 1.390 . S
C3202 H3193 0.930 . S
C3202 C3200 1.384 . S
C3202 C3203 1.356 1_545 S
C3203 C3202 1.356 1_565 S
C3203 C3204 1.422 . S
C3203 C3208 1.484 1_565 S
C3204 H3194 0.930 . S
C3204 C3203 1.422 . S
C3204 C3207 1.386 . S
H3205 C3221 0.941 . S
H3206 C3222 0.931 . S
C3207 H3195 0.929 . S
C3207 C3201 1.390 . S
C3207 C3204 1.386 . S
C3208 C3203 1.484 1_545 S
C3208 C3210 1.395 . S
C3208 C3211 1.403 1_545 S
H3209 C3215 0.929 1_565 S
C3210 H3196 0.930 . S
C3210 C3208 1.395 . S
C3210 C3213 1.403 . S
C3211 C3208 1.403 1_565 S
C3211 C3212 1.524 . S
C3211 C3215 1.399 1_565 S
C3212 H3197 0.960 . S
C3212 H3198 0.960 . S
C3212 H3199 0.960 . S
C3212 C3211 1.524 . S
C3213 C3210 1.403 . S
C3213 C3214 1.392 . S
C3213 C3217 1.495 . S
C3214 C3213 1.392 . S
C3214 C3215 1.387 . S
C3214 C3216 1.478 . S
C3215 H3209 0.929 1_545 S
C3215 C3211 1.399 1_545 S
C3215 C3214 1.387 . S
C3216 C3214 1.478 . S
C3216 C3218 1.381 . S
C3216 C3222 1.383 1_545 S
C3217 C3213 1.495 . S
C3217 H3223 0.959 . S
C3217 H3224 0.961 . S
C3217 H3225 0.960 . S
C3218 C3216 1.381 . S
C3218 C3219 1.394 . S
C3218 H3226 0.930 . S
C3219 C3218 1.394 . S
C3219 C3220 1.383 . S
C3219 H3227 0.929 . S
C3220 C3219 1.383 . S
C3220 C3221 1.363 1_545 S
C3221 H3205 0.941 . S
C3221 C3220 1.363 1_565 S
C3221 C3222 1.382 . S
C3222 H3206 0.931 . S
C3222 C3216 1.383 1_565 S
C3222 C3221 1.382 . S
H3223 C3217 0.959 . S
H3224 C3217 0.961 . S
H3225 C3217 0.960 . S
H3226 C3218 0.930 . S
H3227 C3219 0.929 . S
H3228 C3236 0.929 . S
H3229 C3238 0.930 . S
H3230 C3240 0.930 1_554 S
H3231 C3243 0.898 1_554 S
H3232 C3246 0.930 . S
H3233 C3248 0.960 . S
H3234 C3248 0.960 . S
H3235 C3248 0.960 . S
C3236 H3228 0.929 . S
C3236 C3237 1.377 . S
C3236 C3238 1.384 . S
C3237 C3236 1.377 . S
C3237 C3243 1.410 . S
C3238 H3229 0.930 . S
C3238 C3236 1.384 . S
C3238 C3239 1.372 . S
C3239 C3238 1.372 . S
C3239 C3240 1.400 . S
C3239 C3244 1.490 . S
C3240 H3230 0.930 1_556 S
C3240 C3239 1.400 . S
C3240 C3243 1.398 . S
H3241 C3257 0.930 1_554 S
H3242 C3258 0.940 . S
C3243 H3231 0.898 1_556 S
C3243 C3237 1.410 . S
C3243 C3240 1.398 . S
C3244 C3239 1.490 . S
C3244 C3246 1.395 . S
C3244 C3247 1.403 1_556 S
H3245 C3251 0.952 1_545 S
C3246 H3232 0.930 . S
C3246 C3244 1.395 . S
C3246 C3249 1.403 . S
C3247 C3244 1.403 1_554 S
C3247 C3248 1.524 . S
C3247 C3251 1.421 . S
C3248 H3233 0.960 . S
C3248 H3234 0.960 . S
C3248 H3235 0.960 . S
C3248 C3247 1.524 . S
C3249 C3246 1.403 . S
C3249 C3250 1.392 . S
C3249 C3253 1.495 . S
C3250 C3249 1.392 . S
C3250 C3251 1.346 1_556 S
C3250 C3252 1.478 1_565 S
C3251 H3245 0.952 1_565 S
C3251 C3247 1.421 . S
C3251 C3250 1.346 1_554 S
C3252 C3250 1.478 1_545 S
C3252 C3254 1.381 . S
C3252 C3258 1.383 . S
C3253 C3249 1.495 . S
C3253 H3259 0.959 . S
C3253 H3260 0.961 . S
C3253 H3261 0.960 . S
C3254 C3252 1.381 . S
C3254 C3255 1.394 . S
C3254 H3262 0.930 . S
C3255 C3254 1.394 . S
C3255 C3256 1.383 . S
C3255 H3263 0.929 . S
C3256 C3255 1.383 . S
C3256 C3257 1.377 . S
C3257 H3241 0.930 1_556 S
C3257 C3256 1.377 . S
C3257 C3258 1.379 . S
C3258 H3242 0.940 . S
C3258 C3252 1.383 . S
C3258 C3257 1.379 . S
H3259 C3253 0.959 . S
H3260 C3253 0.961 . S
H3261 C3253 0.960 . S
H3262 C3254 0.930 . S
H3263 C3255 0.929 . S
H3264 C3272 0.929 . S
H3265 C3274 0.930 . S
H3266 C3276 0.930 . S
H3267 C3279 0.929 . S
H3268 C3282 0.930 . S
H3269 C3284 0.960 . S
H3270 C3284 0.960 . S
H3271 C3284 0.960 . S
C3272 H3264 0.929 . S
C3272 C3273 1.377 . S
C3272 C3274 1.384 . S
C3273 C3272 1.377 . S
C3273 C3279 1.390 . S
C3274 H3265 0.930 . S
C3274 C3272 1.384 . S
C3274 C3275 1.372 . S
C3275 C3274 1.372 . S
C3275 C3276 1.400 . S
C3275 C3280 1.490 . S
C3276 H3266 0.930 . S
C3276 C3275 1.400 . S
C3276 C3279 1.386 . S
H3277 C3293 0.930 . S
H3278 C3294 0.931 . S
C3279 H3267 0.929 . S
C3279 C3273 1.390 . S
C3279 C3276 1.386 . S
C3280 C3275 1.490 . S
C3280 C3282 1.395 . S
C3280 C3283 1.403 . S
H3281 C3287 0.930 . S
C3282 H3268 0.930 . S
C3282 C3280 1.395 . S
C3282 C3285 1.403 . S
C3283 C3280 1.403 . S
C3283 C3284 1.524 . S
C3283 C3287 1.400 . S
C3284 H3269 0.960 . S
C3284 H3270 0.960 . S
C3284 H3271 0.960 . S
C3284 C3283 1.524 . S
C3285 C3282 1.403 . S
C3285 C3286 1.392 . S
C3285 C3289 1.495 . S
C3286 C3285 1.392 . S
C3286 C3287 1.385 . S
C3286 C3288 1.478 . S
C3287 H3281 0.930 . S
C3287 C3283 1.400 . S
C3287 C3286 1.385 . S
C3288 C3286 1.478 . S
C3288 C3290 1.381 . S
C3288 C3294 1.383 . S
C3289 C3285 1.495 . S
C3289 H3295 0.959 . S
C3289 H3296 0.961 . S
C3289 H3297 0.960 . S
C3290 C3288 1.381 . S
C3290 C3291 1.394 . S
C3290 H3298 0.930 . S
C3291 C3290 1.394 . S
C3291 C3292 1.383 . S
C3291 H3299 0.929 . S
C3292 C3291 1.383 . S
C3292 C3293 1.377 . S
C3293 H3277 0.930 . S
C3293 C3292 1.377 . S
C3293 C3294 1.379 . S
C3294 H3278 0.931 . S
C3294 C3288 1.383 . S
C3294 C3293 1.379 . S
H3295 C3289 0.959 . S
H3296 C3289 0.961 . S
H3297 C3289 0.960 . S
H3298 C3290 0.930 . S
H3299 C3291 0.929 . S
H3300 C3308 0.929 . S
H3301 C3310 0.930 . S
H3302 C3312 0.930 . S
H3303 C3315 0.929 . S
H3304 C3318 0.930 1_655 S
H3305 C3320 0.960 . S
H3306 C3320 0.960 . S
H3307 C3320 0.960 . S
C3308 H3300 0.929 . S
C3308 C3309 1.377 . S
C3308 C3310 1.384 . S
C3309 C3308 1.377 . S
C3309 C3315 1.390 . S
C3310 H3301 0.930 . S
C3310 C3308 1.384 . S
C3310 C3311 1.372 . S
C3311 C3310 1.372 . S
C3311 C3312 1.400 . S
C3311 C3316 1.490 . S
C3312 H3302 0.930 . S
C3312 C3311 1.400 . S
C3312 C3315 1.386 . S
H3313 C3329 0.930 . S
H3314 C3330 0.931 . S
C3315 H3303 0.929 . S
C3315 C3309 1.390 . S
C3315 C3312 1.386 . S
C3316 C3311 1.490 . S
C3316 C3318 1.395 . S
C3316 C3319 1.403 . S
H3317 C3323 0.930 . S
C3318 H3304 0.930 1_455 S
C3318 C3316 1.395 . S
C3318 C3321 1.403 1_455 S
C3319 C3316 1.403 . S
C3319 C3320 1.524 . S
C3319 C3323 1.400 . S
C3320 H3305 0.960 . S
C3320 H3306 0.960 . S
C3320 H3307 0.960 . S
C3320 C3319 1.524 . S
C3321 C3318 1.403 1_655 S
C3321 C3322 1.392 . S
C3321 C3325 1.495 . S
C3322 C3321 1.392 . S
C3322 C3323 1.385 1_655 S
C3322 C3324 1.478 . S
C3323 H3317 0.930 . S
C3323 C3319 1.400 . S
C3323 C3322 1.385 1_455 S
C3324 C3322 1.478 . S
C3324 C3326 1.381 . S
C3324 C3330 1.383 . S
C3325 C3321 1.495 . S
C3325 H3331 0.959 . S
C3325 H3332 0.961 . S
C3325 H3333 0.960 . S
C3326 C3324 1.381 . S
C3326 C3327 1.394 . S
C3326 H3334 0.930 . S
C3327 C3326 1.394 . S
C3327 C3328 1.383 . S
C3327 H3335 0.929 . S
C3328 C3327 1.383 . S
C3328 C3329 1.377 . S
C3329 H3313 0.930 . S
C3329 C3328 1.377 . S
C3329 C3330 1.379 . S
C3330 H3314 0.931 . S
C3330 C3324 1.383 . S
C3330 C3329 1.379 . S
H3331 C3325 0.959 . S
H3332 C3325 0.961 . S
H3333 C3325 0.960 . S
H3334 C3326 0.930 . S
H3335 C3327 0.929 . S
H3336 C3344 0.929 . S
H3337 C3346 0.930 . S
H3338 C3348 0.930 . S
H3339 C3351 0.929 . S
H3340 C3354 0.930 . S
H3341 C3356 0.960 . S
H3342 C3356 0.960 . S
H3343 C3356 0.960 . S
C3344 H3336 0.929 . S
C3344 C3345 1.377 . S
C3344 C3346 1.384 . S
C3345 C3344 1.377 . S
C3345 C3351 1.390 . S
C3346 H3337 0.930 . S
C3346 C3344 1.384 . S
C3346 C3347 1.372 . S
C3347 C3346 1.372 . S
C3347 C3348 1.400 . S
C3347 C3352 1.490 . S
C3348 H3338 0.930 . S
C3348 C3347 1.400 . S
C3348 C3351 1.386 . S
H3349 C3365 0.930 . S
H3350 C3366 0.931 . S
C3351 H3339 0.929 . S
C3351 C3345 1.390 . S
C3351 C3348 1.386 . S
C3352 C3347 1.490 . S
C3352 C3354 1.395 . S
C3352 C3355 1.403 . S
H3353 C3359 0.930 . S
C3354 H3340 0.930 . S
C3354 C3352 1.395 . S
C3354 C3357 1.403 . S
C3355 C3352 1.403 . S
C3355 C3356 1.524 . S
C3355 C3359 1.400 . S
C3356 H3341 0.960 . S
C3356 H3342 0.960 . S
C3356 H3343 0.960 . S
C3356 C3355 1.524 . S
C3357 C3354 1.403 . S
C3357 C3358 1.392 . S
C3357 C3361 1.495 . S
C3358 C3357 1.392 . S
C3358 C3359 1.385 . S
C3358 C3360 1.478 . S
C3359 H3353 0.930 . S
C3359 C3355 1.400 . S
C3359 C3358 1.385 . S
C3360 C3358 1.478 . S
C3360 C3362 1.381 . S
C3360 C3366 1.383 . S
C3361 C3357 1.495 . S
C3361 H3367 0.959 . S
C3361 H3368 0.961 . S
C3361 H3369 0.960 . S
C3362 C3360 1.381 . S
C3362 C3363 1.394 . S
C3362 H3370 0.930 . S
C3363 C3362 1.394 . S
C3363 C3364 1.383 . S
C3363 H3371 0.929 . S
C3364 C3363 1.383 . S
C3364 C3365 1.377 . S
C3365 H3349 0.930 . S
C3365 C3364 1.377 . S
C3365 C3366 1.379 . S
C3366 H3350 0.931 . S
C3366 C3360 1.383 . S
C3366 C3365 1.379 . S
H3367 C3361 0.959 . S
H3368 C3361 0.961 . S
H3369 C3361 0.960 . S
H3370 C3362 0.930 . S
H3371 C3363 0.929 . S
H3372 C3380 0.929 . S
H3373 C3382 0.930 . S
H3374 C3384 0.930 . S
H3375 C3387 0.929 . S
H3376 C3390 0.930 . S
H3377 C3392 0.960 . S
H3378 C3392 0.960 . S
H3379 C3392 0.960 . S
C3380 H3372 0.929 . S
C3380 C3381 1.377 . S
C3380 C3382 1.384 . S
C3381 C3380 1.377 . S
C3381 C3387 1.390 . S
C3382 H3373 0.930 . S
C3382 C3380 1.384 . S
C3382 C3383 1.372 . S
C3383 C3382 1.372 . S
C3383 C3384 1.400 . S
C3383 C3388 1.490 . S
C3384 H3374 0.930 . S
C3384 C3383 1.400 . S
C3384 C3387 1.386 . S
H3385 C3401 0.930 . S
H3386 C3402 0.931 . S
C3387 H3375 0.929 . S
C3387 C3381 1.390 . S
C3387 C3384 1.386 . S
C3388 C3383 1.490 . S
C3388 C3390 1.395 1_655 S
C3388 C3391 1.403 . S
H3389 C3395 0.930 . S
C3390 H3376 0.930 . S
C3390 C3388 1.395 1_455 S
C3390 C3393 1.403 . S
C3391 C3388 1.403 . S
C3391 C3392 1.524 . S
C3391 C3395 1.400 . S
C3392 H3377 0.960 . S
C3392 H3378 0.960 . S
C3392 H3379 0.960 . S
C3392 C3391 1.524 . S
C3393 C3390 1.403 . S
C3393 C3394 1.392 . S
C3393 C3397 1.495 . S
C3394 C3393 1.392 . S
C3394 C3395 1.385 1_455 S
C3394 C3396 1.478 . S
C3395 H3389 0.930 . S
C3395 C3391 1.400 . S
C3395 C3394 1.385 1_655 S
C3396 C3394 1.478 . S
C3396 C3398 1.381 . S
C3396 C3402 1.383 . S
C3397 C3393 1.495 . S
C3397 H3403 0.959 . S
C3397 H3404 0.961 . S
C3397 H3405 0.960 . S
C3398 C3396 1.381 . S
C3398 C3399 1.394 . S
C3398 H3406 0.930 . S
C3399 C3398 1.394 . S
C3399 C3400 1.383 . S
C3399 H3407 0.929 . S
C3400 C3399 1.383 . S
C3400 C3401 1.377 . S
C3401 H3385 0.930 . S
C3401 C3400 1.377 . S
C3401 C3402 1.379 . S
C3402 H3386 0.931 . S
C3402 C3396 1.383 . S
C3402 C3401 1.379 . S
H3403 C3397 0.959 . S
H3404 C3397 0.961 . S
H3405 C3397 0.960 . S
H3406 C3398 0.930 . S
H3407 C3399 0.929 . S
H3408 C3416 0.929 . S
H3409 C3418 0.930 . S
H3410 C3420 0.930 . S
H3411 C3423 0.929 . S
H3412 C3426 0.930 . S
H3413 C3428 0.960 . S
H3414 C3428 0.960 . S
H3415 C3428 0.960 . S
C3416 H3408 0.929 . S
C3416 C3417 1.377 . S
C3416 C3418 1.384 . S
C3417 C3416 1.377 . S
C3417 C3423 1.390 . S
C3418 H3409 0.930 . S
C3418 C3416 1.384 . S
C3418 C3419 1.372 . S
C3419 C3418 1.372 . S
C3419 C3420 1.400 . S
C3419 C3424 1.490 . S
C3420 H3410 0.930 . S
C3420 C3419 1.400 . S
C3420 C3423 1.386 . S
H3421 C3437 0.930 . S
H3422 C3438 0.931 . S
C3423 H3411 0.929 . S
C3423 C3417 1.390 . S
C3423 C3420 1.386 . S
C3424 C3419 1.490 . S
C3424 C3426 1.395 . S
C3424 C3427 1.403 . S
H3425 C3431 0.930 . S
C3426 H3412 0.930 . S
C3426 C3424 1.395 . S
C3426 C3429 1.403 . S
C3427 C3424 1.403 . S
C3427 C3428 1.524 . S
C3427 C3431 1.400 . S
C3428 H3413 0.960 . S
C3428 H3414 0.960 . S
C3428 H3415 0.960 . S
C3428 C3427 1.524 . S
C3429 C3426 1.403 . S
C3429 C3430 1.392 . S
C3429 C3433 1.495 . S
C3430 C3429 1.392 . S
C3430 C3431 1.385 . S
C3430 C3432 1.478 . S
C3431 H3425 0.930 . S
C3431 C3427 1.400 . S
C3431 C3430 1.385 . S
C3432 C3430 1.478 . S
C3432 C3434 1.381 . S
C3432 C3438 1.383 . S
C3433 C3429 1.495 . S
C3433 H3439 0.959 . S
C3433 H3440 0.961 . S
C3433 H3441 0.960 . S
C3434 C3432 1.381 . S
C3434 C3435 1.394 . S
C3434 H3442 0.930 . S
C3435 C3434 1.394 . S
C3435 C3436 1.383 . S
C3435 H3443 0.929 . S
C3436 C3435 1.383 . S
C3436 C3437 1.377 . S
C3437 H3421 0.930 . S
C3437 C3436 1.377 . S
C3437 C3438 1.379 . S
C3438 H3422 0.931 . S
C3438 C3432 1.383 . S
C3438 C3437 1.379 . S
H3439 C3433 0.959 . S
H3440 C3433 0.961 . S
H3441 C3433 0.960 . S
H3442 C3434 0.930 . S
H3443 C3435 0.929 . S
H3444 C3452 0.929 . S
H3445 C3454 0.930 . S
H3446 C3456 0.930 . S
H3447 C3459 0.929 . S
H3448 C3462 0.930 . S
H3449 C3464 0.960 . S
H3450 C3464 0.960 . S
H3451 C3464 0.960 . S
C3452 H3444 0.929 . S
C3452 C3453 1.377 . S
C3452 C3454 1.384 . S
C3453 C3452 1.377 . S
C3453 C3459 1.390 . S
C3454 H3445 0.930 . S
C3454 C3452 1.384 . S
C3454 C3455 1.372 . S
C3455 C3454 1.372 . S
C3455 C3456 1.400 . S
C3455 C3460 1.490 . S
C3456 H3446 0.930 . S
C3456 C3455 1.400 . S
C3456 C3459 1.386 . S
H3457 C3473 0.930 . S
H3458 C3474 0.931 . S
C3459 H3447 0.929 . S
C3459 C3453 1.390 . S
C3459 C3456 1.386 . S
C3460 C3455 1.490 . S
C3460 C3462 1.395 . S
C3460 C3463 1.403 . S
H3461 C3467 0.930 . S
C3462 H3448 0.930 . S
C3462 C3460 1.395 . S
C3462 C3465 1.403 . S
C3463 C3460 1.403 . S
C3463 C3464 1.524 . S
C3463 C3467 1.400 . S
C3464 H3449 0.960 . S
C3464 H3450 0.960 . S
C3464 H3451 0.960 . S
C3464 C3463 1.524 . S
C3465 C3462 1.403 . S
C3465 C3466 1.392 . S
C3465 C3469 1.495 . S
C3466 C3465 1.392 . S
C3466 C3467 1.385 . S
C3466 C3468 1.478 . S
C3467 H3461 0.930 . S
C3467 C3463 1.400 . S
C3467 C3466 1.385 . S
C3468 C3466 1.478 . S
C3468 C3470 1.381 . S
C3468 C3474 1.383 . S
C3469 C3465 1.495 . S
C3469 H3475 0.959 . S
C3469 H3476 0.961 . S
C3469 H3477 0.960 . S
C3470 C3468 1.381 . S
C3470 C3471 1.394 . S
C3470 H3478 0.930 . S
C3471 C3470 1.394 . S
C3471 C3472 1.383 . S
C3471 H3479 0.929 . S
C3472 C3471 1.383 . S
C3472 C3473 1.377 . S
C3473 H3457 0.930 . S
C3473 C3472 1.377 . S
C3473 C3474 1.379 . S
C3474 H3458 0.931 . S
C3474 C3468 1.383 . S
C3474 C3473 1.379 . S
H3475 C3469 0.959 . S
H3476 C3469 0.961 . S
H3477 C3469 0.960 . S
H3478 C3470 0.930 . S
H3479 C3471 0.929 . S
H3480 C3488 0.929 . S
H3481 C3490 0.930 . S
H3482 C3492 0.930 . S
H3483 C3495 0.929 . S
H3484 C3498 0.930 . S
H3485 C3500 0.960 . S
H3486 C3500 0.960 . S
H3487 C3500 0.960 . S
C3488 H3480 0.929 . S
C3488 C3489 1.377 . S
C3488 C3490 1.384 . S
C3489 C3488 1.377 . S
C3489 C3495 1.390 . S
C3490 H3481 0.930 . S
C3490 C3488 1.384 . S
C3490 C3491 1.372 . S
C3491 C3490 1.372 . S
C3491 C3492 1.400 . S
C3491 C3496 1.522 . S
C3492 H3482 0.930 . S
C3492 C3491 1.400 . S
C3492 C3495 1.386 . S
H3493 C3509 0.930 . S
H3494 C3510 0.931 . S
C3495 H3483 0.929 . S
C3495 C3489 1.390 . S
C3495 C3492 1.386 . S
C3496 C3491 1.522 . S
C3496 C3498 1.358 1_554 S
C3496 C3499 1.408 . S
H3497 C3503 0.928 1_554 S
C3498 H3484 0.930 . S
C3498 C3496 1.358 1_556 S
C3498 C3501 1.403 . S
C3499 C3496 1.408 . S
C3499 C3500 1.524 . S
C3499 C3503 1.371 1_554 S
C3500 H3485 0.960 . S
C3500 H3486 0.960 . S
C3500 H3487 0.960 . S
C3500 C3499 1.524 . S
C3501 C3498 1.403 . S
C3501 C3502 1.392 . S
C3501 C3505 1.495 . S
C3502 C3501 1.392 . S
C3502 C3503 1.417 . S
C3502 C3504 1.478 . S
C3503 H3497 0.928 1_556 S
C3503 C3499 1.371 1_556 S
C3503 C3502 1.417 . S
C3504 C3502 1.478 . S
C3504 C3506 1.381 . S
C3504 C3510 1.383 . S
C3505 C3501 1.495 . S
C3505 H3511 0.959 . S
C3505 H3512 0.961 . S
C3505 H3513 0.960 . S
C3506 C3504 1.381 . S
C3506 C3507 1.394 . S
C3506 H3514 0.930 . S
C3507 C3506 1.394 . S
C3507 C3508 1.383 . S
C3507 H3515 0.929 . S
C3508 C3507 1.383 . S
C3508 C3509 1.377 . S
C3509 H3493 0.930 . S
C3509 C3508 1.377 . S
C3509 C3510 1.379 . S
C3510 H3494 0.931 . S
C3510 C3504 1.383 . S
C3510 C3509 1.379 . S
H3511 C3505 0.959 . S
H3512 C3505 0.961 . S
H3513 C3505 0.960 . S
H3514 C3506 0.930 . S
H3515 C3507 0.929 . S
H3516 C3524 0.929 . S
H3517 C3526 0.930 . S
H3518 C3528 0.930 . S
H3519 C3531 0.929 . S
H3520 C3534 0.930 . S
H3521 C3536 0.960 . S
H3522 C3536 0.960 1_455 S
H3523 C3536 0.960 . S
C3524 H3516 0.929 . S
C3524 C3525 1.377 1_455 S
C3524 C3526 1.384 . S
C3525 C3524 1.377 1_655 S
C3525 C3531 1.390 . S
C3526 H3517 0.930 . S
C3526 C3524 1.384 . S
C3526 C3527 1.372 1_455 S
C3527 C3526 1.372 1_655 S
C3527 C3528 1.400 . S
C3527 C3532 1.490 . S
C3528 H3518 0.930 . S
C3528 C3527 1.400 . S
C3528 C3531 1.386 . S
H3529 C3545 0.930 . S
H3530 C3546 0.931 . S
C3531 H3519 0.929 . S
C3531 C3525 1.390 . S
C3531 C3528 1.386 . S
C3532 C3527 1.490 . S
C3532 C3534 1.395 . S
C3532 C3535 1.403 . S
H3533 C3539 0.930 . S
C3534 H3520 0.930 . S
C3534 C3532 1.395 . S
C3534 C3537 1.403 . S
C3535 C3532 1.403 . S
C3535 C3536 1.524 . S
C3535 C3539 1.400 . S
C3536 H3521 0.960 . S
C3536 H3522 0.960 1_655 S
C3536 H3523 0.960 . S
C3536 C3535 1.524 . S
C3537 C3534 1.403 . S
C3537 C3538 1.392 . S
C3537 C3541 1.495 . S
C3538 C3537 1.392 . S
C3538 C3539 1.385 . S
C3538 C3540 1.478 . S
C3539 H3533 0.930 . S
C3539 C3535 1.400 . S
C3539 C3538 1.385 . S
C3540 C3538 1.478 . S
C3540 C3542 1.381 . S
C3540 C3546 1.383 . S
C3541 C3537 1.495 . S
C3541 H3547 0.959 . S
C3541 H3548 0.961 . S
C3541 H3549 0.960 . S
C3542 C3540 1.381 . S
C3542 C3543 1.394 . S
C3542 H3550 0.930 . S
C3543 C3542 1.394 . S
C3543 C3544 1.383 . S
C3543 H3551 0.929 . S
C3544 C3543 1.383 . S
C3544 C3545 1.377 . S
C3545 H3529 0.930 . S
C3545 C3544 1.377 . S
C3545 C3546 1.379 . S
C3546 H3530 0.931 . S
C3546 C3540 1.383 . S
C3546 C3545 1.379 . S
H3547 C3541 0.959 . S
H3548 C3541 0.961 . S
H3549 C3541 0.960 . S
H3550 C3542 0.930 . S
H3551 C3543 0.929 . S
H3552 C3560 0.929 . S
H3553 C3562 0.930 . S
H3554 C3564 0.930 . S
H3555 C3567 0.929 . S
H3556 C3570 0.930 . S
H3557 C3572 0.960 . S
H3558 C3572 0.960 . S
H3559 C3572 0.960 . S
C3560 H3552 0.929 . S
C3560 C3561 1.377 . S
C3560 C3562 1.384 . S
C3561 C3560 1.377 . S
C3561 C3567 1.390 . S
C3562 H3553 0.930 . S
C3562 C3560 1.384 . S
C3562 C3563 1.372 . S
C3563 C3562 1.372 . S
C3563 C3564 1.400 . S
C3563 C3568 1.490 . S
C3564 H3554 0.930 . S
C3564 C3563 1.400 . S
C3564 C3567 1.386 . S
H3565 C3581 0.930 . S
H3566 C3582 0.931 . S
C3567 H3555 0.929 . S
C3567 C3561 1.390 . S
C3567 C3564 1.386 . S
C3568 C3563 1.490 . S
C3568 C3570 1.395 . S
C3568 C3571 1.403 . S
H3569 C3575 0.930 . S
C3570 H3556 0.930 . S
C3570 C3568 1.395 . S
C3570 C3573 1.403 . S
C3571 C3568 1.403 . S
C3571 C3572 1.524 . S
C3571 C3575 1.400 . S
C3572 H3557 0.960 . S
C3572 H3558 0.960 . S
C3572 H3559 0.960 . S
C3572 C3571 1.524 . S
C3573 C3570 1.403 . S
C3573 C3574 1.392 . S
C3573 C3577 1.495 . S
C3574 C3573 1.392 . S
C3574 C3575 1.385 . S
C3574 C3576 1.478 . S
C3575 H3569 0.930 . S
C3575 C3571 1.400 . S
C3575 C3574 1.385 . S
C3576 C3574 1.478 . S
C3576 C3578 1.381 . S
C3576 C3582 1.383 . S
C3577 C3573 1.495 . S
C3577 H3583 0.959 . S
C3577 H3584 0.961 . S
C3577 H3585 0.960 . S
C3578 C3576 1.381 . S
C3578 C3579 1.394 . S
C3578 H3586 0.930 . S
C3579 C3578 1.394 . S
C3579 C3580 1.383 . S
C3579 H3587 0.929 . S
C3580 C3579 1.383 . S
C3580 C3581 1.377 . S
C3581 H3565 0.930 . S
C3581 C3580 1.377 . S
C3581 C3582 1.379 . S
C3582 H3566 0.931 . S
C3582 C3576 1.383 . S
C3582 C3581 1.379 . S
H3583 C3577 0.959 . S
H3584 C3577 0.961 . S
H3585 C3577 0.960 . S
H3586 C3578 0.930 . S
H3587 C3579 0.929 . S
H3588 C3596 0.929 . S
H3589 C3598 0.930 . S
H3590 C3600 0.930 . S
H3591 C3603 0.929 . S
H3592 C3606 0.930 . S
H3593 C3608 0.960 . S
H3594 C3608 0.960 . S
H3595 C3608 0.960 . S
C3596 H3588 0.929 . S
C3596 C3597 1.377 . S
C3596 C3598 1.384 . S
C3597 C3596 1.377 . S
C3597 C3603 1.390 . S
C3598 H3589 0.930 . S
C3598 C3596 1.384 . S
C3598 C3599 1.372 . S
C3599 C3598 1.372 . S
C3599 C3600 1.400 . S
C3599 C3604 1.490 . S
C3600 H3590 0.930 . S
C3600 C3599 1.400 . S
C3600 C3603 1.386 . S
H3601 C3617 0.930 . S
H3602 C3618 0.931 . S
C3603 H3591 0.929 . S
C3603 C3597 1.390 . S
C3603 C3600 1.386 . S
C3604 C3599 1.490 . S
C3604 C3606 1.395 . S
C3604 C3607 1.403 . S
H3605 C3611 0.930 . S
C3606 H3592 0.930 . S
C3606 C3604 1.395 . S
C3606 C3609 1.403 . S
C3607 C3604 1.403 . S
C3607 C3608 1.524 . S
C3607 C3611 1.400 . S
C3608 H3593 0.960 . S
C3608 H3594 0.960 . S
C3608 H3595 0.960 . S
C3608 C3607 1.524 . S
C3609 C3606 1.403 . S
C3609 C3610 1.392 . S
C3609 C3613 1.495 . S
C3610 C3609 1.392 . S
C3610 C3611 1.385 . S
C3610 C3612 1.478 . S
C3611 H3605 0.930 . S
C3611 C3607 1.400 . S
C3611 C3610 1.385 . S
C3612 C3610 1.478 . S
C3612 C3614 1.381 . S
C3612 C3618 1.383 . S
C3613 C3609 1.495 . S
C3613 H3619 0.959 . S
C3613 H3620 0.961 . S
C3613 H3621 0.960 . S
C3614 C3612 1.381 . S
C3614 C3615 1.394 . S
C3614 H3622 0.930 . S
C3615 C3614 1.394 . S
C3615 C3616 1.383 . S
C3615 H3623 0.929 . S
C3616 C3615 1.383 . S
C3616 C3617 1.377 . S
C3617 H3601 0.930 . S
C3617 C3616 1.377 . S
C3617 C3618 1.379 . S
C3618 H3602 0.931 . S
C3618 C3612 1.383 . S
C3618 C3617 1.379 . S
H3619 C3613 0.959 . S
H3620 C3613 0.961 . S
H3621 C3613 0.960 . S
H3622 C3614 0.930 . S
H3623 C3615 0.929 . S
H3624 C3632 0.929 . S
H3625 C3634 0.930 . S
H3626 C3636 0.930 . S
H3627 C3639 0.929 . S
H3628 C3642 0.930 . S
H3629 C3644 0.960 . S
H3630 C3644 0.960 . S
H3631 C3644 0.960 . S
C3632 H3624 0.929 . S
C3632 C3633 1.377 1_554 S
C3632 C3634 1.384 . S
C3633 C3632 1.377 1_556 S
C3633 C3639 1.390 . S
C3634 H3625 0.930 . S
C3634 C3632 1.384 . S
C3634 C3635 1.339 1_554 S
C3635 C3634 1.339 1_556 S
C3635 C3636 1.442 . S
C3635 C3640 1.482 1_556 S
C3636 H3626 0.930 . S
C3636 C3635 1.442 . S
C3636 C3639 1.386 . S
H3637 C3653 0.930 1_556 S
H3638 C3654 0.931 . S
C3639 H3627 0.929 . S
C3639 C3633 1.390 . S
C3639 C3636 1.386 . S
C3640 C3635 1.482 1_554 S
C3640 C3642 1.395 1_554 S
C3640 C3643 1.403 . S
H3641 C3647 0.930 . S
C3642 H3628 0.930 . S
C3642 C3640 1.395 1_556 S
C3642 C3645 1.405 . S
C3643 C3640 1.403 . S
C3643 C3644 1.524 . S
C3643 C3647 1.400 . S
C3644 H3629 0.960 . S
C3644 H3630 0.960 . S
C3644 H3631 0.960 . S
C3644 C3643 1.524 . S
C3645 C3642 1.405 . S
C3645 C3646 1.393 1_556 S
C3645 C3649 1.493 . S
C3646 C3645 1.393 1_554 S
C3646 C3647 1.385 . S
C3646 C3648 1.478 . S
C3647 H3641 0.930 . S
C3647 C3643 1.400 . S
C3647 C3646 1.385 . S
C3648 C3646 1.478 . S
C3648 C3650 1.381 . S
C3648 C3654 1.383 1_554 S
C3649 C3645 1.493 . S
C3649 H3655 0.959 . S
C3649 H3656 0.961 . S
C3649 H3657 0.960 1_556 S
C3650 C3648 1.381 . S
C3650 C3651 1.394 . S
C3650 H3658 0.930 . S
C3651 C3650 1.394 . S
C3651 C3652 1.383 . S
C3651 H3659 0.929 . S
C3652 C3651 1.383 . S
C3652 C3653 1.377 . S
C3653 H3637 0.930 1_554 S
C3653 C3652 1.377 . S
C3653 C3654 1.379 1_554 S
C3654 H3638 0.931 . S
C3654 C3648 1.383 1_556 S
C3654 C3653 1.379 1_556 S
H3655 C3649 0.959 . S
H3656 C3649 0.961 . S
H3657 C3649 0.960 1_554 S
H3658 C3650 0.930 . S
H3659 C3651 0.929 . S
H3660 C3668 0.929 . S
H3661 C3670 0.930 . S
H3662 C3672 0.930 . S
H3663 C3675 0.929 . S
H3664 C3678 0.930 . S
H3665 C3680 0.960 . S
H3666 C3680 0.960 . S
H3667 C3680 0.960 . S
C3668 H3660 0.929 . S
C3668 C3669 1.377 . S
C3668 C3670 1.384 . S
C3669 C3668 1.377 . S
C3669 C3675 1.390 . S
C3670 H3661 0.930 . S
C3670 C3668 1.384 . S
C3670 C3671 1.372 . S
C3671 C3670 1.372 . S
C3671 C3672 1.400 . S
C3671 C3676 1.490 . S
C3672 H3662 0.930 . S
C3672 C3671 1.400 . S
C3672 C3675 1.386 . S
H3673 C3689 0.930 . S
H3674 C3690 0.931 . S
C3675 H3663 0.929 . S
C3675 C3669 1.390 . S
C3675 C3672 1.386 . S
C3676 C3671 1.490 . S
C3676 C3678 1.395 . S
C3676 C3679 1.403 . S
H3677 C3683 0.930 . S
C3678 H3664 0.930 . S
C3678 C3676 1.395 . S
C3678 C3681 1.403 . S
C3679 C3676 1.403 . S
C3679 C3680 1.524 . S
C3679 C3683 1.400 . S
C3680 H3665 0.960 . S
C3680 H3666 0.960 . S
C3680 H3667 0.960 . S
C3680 C3679 1.524 . S
C3681 C3678 1.403 . S
C3681 C3682 1.392 . S
C3681 C3685 1.495 . S
C3682 C3681 1.392 . S
C3682 C3683 1.385 . S
C3682 C3684 1.478 . S
C3683 H3677 0.930 . S
C3683 C3679 1.400 . S
C3683 C3682 1.385 . S
C3684 C3682 1.478 . S
C3684 C3686 1.381 . S
C3684 C3690 1.383 . S
C3685 C3681 1.495 . S
C3685 H3691 0.959 . S
C3685 H3692 0.961 . S
C3685 H3693 0.960 . S
C3686 C3684 1.381 . S
C3686 C3687 1.394 . S
C3686 H3694 0.930 . S
C3687 C3686 1.394 . S
C3687 C3688 1.383 . S
C3687 H3695 0.929 . S
C3688 C3687 1.383 . S
C3688 C3689 1.377 . S
C3689 H3673 0.930 . S
C3689 C3688 1.377 . S
C3689 C3690 1.379 . S
C3690 H3674 0.931 . S
C3690 C3684 1.383 . S
C3690 C3689 1.379 . S
H3691 C3685 0.959 . S
H3692 C3685 0.961 . S
H3693 C3685 0.960 . S
H3694 C3686 0.930 . S
H3695 C3687 0.929 . S
H3696 C3704 0.929 . S
H3697 C3706 0.930 . S
H3698 C3708 0.930 . S
H3699 C3711 0.929 . S
H3700 C3714 0.930 . S
H3701 C3716 0.960 . S
H3702 C3716 0.960 . S
H3703 C3716 0.960 . S
C3704 H3696 0.929 . S
C3704 C3705 1.377 . S
C3704 C3706 1.384 . S
C3705 C3704 1.377 . S
C3705 C3711 1.390 . S
C3706 H3697 0.930 . S
C3706 C3704 1.384 . S
C3706 C3707 1.372 . S
C3707 C3706 1.372 . S
C3707 C3708 1.400 . S
C3707 C3712 1.490 . S
C3708 H3698 0.930 . S
C3708 C3707 1.400 . S
C3708 C3711 1.386 . S
H3709 C3725 0.930 1_556 S
H3710 C3726 0.931 . S
C3711 H3699 0.929 . S
C3711 C3705 1.390 . S
C3711 C3708 1.386 . S
C3712 C3707 1.490 . S
C3712 C3714 1.395 . S
C3712 C3715 1.403 . S
H3713 C3719 0.930 . S
C3714 H3700 0.930 . S
C3714 C3712 1.395 . S
C3714 C3717 1.403 . S
C3715 C3712 1.403 . S
C3715 C3716 1.524 . S
C3715 C3719 1.400 . S
C3716 H3701 0.960 . S
C3716 H3702 0.960 . S
C3716 H3703 0.960 . S
C3716 C3715 1.524 . S
C3717 C3714 1.403 . S
C3717 C3718 1.392 . S
C3717 C3721 1.495 . S
C3718 C3717 1.392 . S
C3718 C3719 1.385 . S
C3718 C3720 1.478 . S
C3719 H3713 0.930 . S
C3719 C3715 1.400 . S
C3719 C3718 1.385 . S
C3720 C3718 1.478 . S
C3720 C3722 1.381 . S
C3720 C3726 1.383 . S
C3721 C3717 1.495 . S
C3721 H3727 0.959 . S
C3721 H3728 0.961 . S
C3721 H3729 0.960 . S
C3722 C3720 1.381 . S
C3722 C3723 1.394 . S
C3722 H3730 0.930 . S
C3723 C3722 1.394 . S
C3723 C3724 1.383 . S
C3723 H3731 0.929 . S
C3724 C3723 1.383 . S
C3724 C3725 1.377 . S
C3725 H3709 0.930 1_554 S
C3725 C3724 1.377 . S
C3725 C3726 1.379 . S
C3726 H3710 0.931 . S
C3726 C3720 1.383 . S
C3726 C3725 1.379 . S
H3727 C3721 0.959 . S
H3728 C3721 0.961 . S
H3729 C3721 0.960 . S
H3730 C3722 0.930 . S
H3731 C3723 0.929 . S
H3732 C3740 0.929 . S
H3733 C3742 0.930 . S
H3734 C3744 0.930 . S
H3735 C3747 0.929 . S
H3736 C3750 0.930 . S
H3737 C3752 0.960 . S
H3738 C3752 0.960 . S
H3739 C3752 0.960 . S
C3740 H3732 0.929 . S
C3740 C3741 1.377 . S
C3740 C3742 1.384 . S
C3741 C3740 1.377 . S
C3741 C3747 1.390 . S
C3742 H3733 0.930 . S
C3742 C3740 1.384 . S
C3742 C3743 1.372 . S
C3743 C3742 1.372 . S
C3743 C3744 1.400 . S
C3743 C3748 1.490 . S
C3744 H3734 0.930 . S
C3744 C3743 1.400 . S
C3744 C3747 1.386 . S
H3745 C3761 0.930 . S
H3746 C3762 0.931 . S
C3747 H3735 0.929 . S
C3747 C3741 1.390 . S
C3747 C3744 1.386 . S
C3748 C3743 1.490 . S
C3748 C3750 1.395 . S
C3748 C3751 1.403 . S
H3749 C3755 0.930 . S
C3750 H3736 0.930 . S
C3750 C3748 1.395 . S
C3750 C3753 1.403 . S
C3751 C3748 1.403 . S
C3751 C3752 1.524 . S
C3751 C3755 1.400 . S
C3752 H3737 0.960 . S
C3752 H3738 0.960 . S
C3752 H3739 0.960 . S
C3752 C3751 1.524 . S
C3753 C3750 1.403 . S
C3753 C3754 1.392 . S
C3753 C3757 1.495 . S
C3754 C3753 1.392 . S
C3754 C3755 1.385 . S
C3754 C3756 1.478 . S
C3755 H3749 0.930 . S
C3755 C3751 1.400 . S
C3755 C3754 1.385 . S
C3756 C3754 1.478 . S
C3756 C3758 1.381 . S
C3756 C3762 1.383 . S
C3757 C3753 1.495 . S
C3757 H3763 0.959 . S
C3757 H3764 0.961 . S
C3757 H3765 0.960 . S
C3758 C3756 1.381 . S
C3758 C3759 1.394 . S
C3758 H3766 0.930 . S
C3759 C3758 1.394 . S
C3759 C3760 1.383 . S
C3759 H3767 0.929 . S
C3760 C3759 1.383 . S
C3760 C3761 1.377 . S
C3761 H3745 0.930 . S
C3761 C3760 1.377 . S
C3761 C3762 1.379 . S
C3762 H3746 0.931 . S
C3762 C3756 1.383 . S
C3762 C3761 1.379 . S
H3763 C3757 0.959 . S
H3764 C3757 0.961 . S
H3765 C3757 0.960 . S
H3766 C3758 0.930 . S
H3767 C3759 0.929 . S
H3768 C3776 0.929 . S
H3769 C3778 0.930 . S
H3770 C3780 0.930 . S
H3771 C3783 0.929 . S
H3772 C3786 0.930 . S
H3773 C3788 0.960 . S
H3774 C3788 0.960 . S
H3775 C3788 0.960 . S
C3776 H3768 0.929 . S
C3776 C3777 1.377 . S
C3776 C3778 1.384 . S
C3777 C3776 1.377 . S
C3777 C3783 1.390 . S
C3778 H3769 0.930 . S
C3778 C3776 1.384 . S
C3778 C3779 1.372 . S
C3779 C3778 1.372 . S
C3779 C3780 1.400 . S
C3779 C3784 1.490 . S
C3780 H3770 0.930 . S
C3780 C3779 1.400 . S
C3780 C3783 1.386 . S
H3781 C3797 0.930 . S
H3782 C3798 0.931 . S
C3783 H3771 0.929 . S
C3783 C3777 1.390 . S
C3783 C3780 1.386 . S
C3784 C3779 1.490 . S
C3784 C3786 1.395 . S
C3784 C3787 1.403 1_545 S
H3785 C3791 0.930 . S
C3786 H3772 0.930 . S
C3786 C3784 1.395 . S
C3786 C3789 1.403 . S
C3787 C3784 1.403 1_565 S
C3787 C3788 1.524 . S
C3787 C3791 1.400 . S
C3788 H3773 0.960 . S
C3788 H3774 0.960 . S
C3788 H3775 0.960 . S
C3788 C3787 1.524 . S
C3789 C3786 1.403 . S
C3789 C3790 1.392 . S
C3789 C3793 1.495 . S
C3790 C3789 1.392 . S
C3790 C3791 1.385 1_545 S
C3790 C3792 1.478 1_545 S
C3791 H3785 0.930 . S
C3791 C3787 1.400 . S
C3791 C3790 1.385 1_565 S
C3792 C3790 1.478 1_565 S
C3792 C3794 1.381 . S
C3792 C3798 1.383 . S
C3793 C3789 1.495 . S
C3793 H3799 0.959 . S
C3793 H3800 0.961 . S
C3793 H3801 0.960 . S
C3794 C3792 1.381 . S
C3794 C3795 1.394 . S
C3794 H3802 0.930 . S
C3795 C3794 1.394 . S
C3795 C3796 1.383 . S
C3795 H3803 0.929 . S
C3796 C3795 1.383 . S
C3796 C3797 1.377 . S
C3797 H3781 0.930 . S
C3797 C3796 1.377 . S
C3797 C3798 1.379 . S
C3798 H3782 0.931 . S
C3798 C3792 1.383 . S
C3798 C3797 1.379 . S
H3799 C3793 0.959 . S
H3800 C3793 0.961 . S
H3801 C3793 0.960 . S
H3802 C3794 0.930 . S
H3803 C3795 0.929 . S
H3804 C3812 0.929 . S
H3805 C3814 0.930 . S
H3806 C3816 0.930 . S
H3807 C3819 0.929 . S
H3808 C3822 0.930 . S
H3809 C3824 0.960 . S
H3810 C3824 0.960 . S
H3811 C3824 0.960 . S
C3812 H3804 0.929 . S
C3812 C3813 1.377 . S
C3812 C3814 1.384 . S
C3813 C3812 1.377 . S
C3813 C3819 1.390 . S
C3814 H3805 0.930 . S
C3814 C3812 1.384 . S
C3814 C3815 1.372 . S
C3815 C3814 1.372 . S
C3815 C3816 1.400 . S
C3815 C3820 1.490 . S
C3816 H3806 0.930 . S
C3816 C3815 1.400 . S
C3816 C3819 1.386 . S
H3817 C3833 0.930 . S
H3818 C3834 0.931 . S
C3819 H3807 0.929 . S
C3819 C3813 1.390 . S
C3819 C3816 1.386 . S
C3820 C3815 1.490 . S
C3820 C3822 1.395 . S
C3820 C3823 1.403 . S
H3821 C3827 0.930 . S
C3822 H3808 0.930 . S
C3822 C3820 1.395 . S
C3822 C3825 1.403 . S
C3823 C3820 1.403 . S
C3823 C3824 1.524 . S
C3823 C3827 1.400 . S
C3824 H3809 0.960 . S
C3824 H3810 0.960 . S
C3824 H3811 0.960 . S
C3824 C3823 1.524 . S
C3825 C3822 1.403 . S
C3825 C3826 1.392 . S
C3825 C3829 1.495 . S
C3826 C3825 1.392 . S
C3826 C3827 1.385 . S
C3826 C3828 1.478 . S
C3827 H3821 0.930 . S
C3827 C3823 1.400 . S
C3827 C3826 1.385 . S
C3828 C3826 1.478 . S
C3828 C3830 1.381 . S
C3828 C3834 1.383 . S
C3829 C3825 1.495 . S
C3829 H3835 0.959 . S
C3829 H3836 0.961 . S
C3829 H3837 0.960 . S
C3830 C3828 1.381 . S
C3830 C3831 1.394 . S
C3830 H3838 0.930 . S
C3831 C3830 1.394 . S
C3831 C3832 1.383 . S
C3831 H3839 0.929 . S
C3832 C3831 1.383 . S
C3832 C3833 1.377 . S
C3833 H3817 0.930 . S
C3833 C3832 1.377 . S
C3833 C3834 1.379 . S
C3834 H3818 0.931 . S
C3834 C3828 1.383 . S
C3834 C3833 1.379 . S
H3835 C3829 0.959 . S
H3836 C3829 0.961 . S
H3837 C3829 0.960 . S
H3838 C3830 0.930 . S
H3839 C3831 0.929 . S
H3840 C3848 0.929 . S
H3841 C3850 0.930 . S
H3842 C3852 0.930 . S
H3843 C3855 0.929 . S
H3844 C3858 0.930 . S
H3845 C3860 0.960 . S
H3846 C3860 0.960 . S
H3847 C3860 0.960 . S
C3848 H3840 0.929 . S
C3848 C3849 1.377 . S
C3848 C3850 1.384 . S
C3849 C3848 1.377 . S
C3849 C3855 1.390 . S
C3850 H3841 0.930 . S
C3850 C3848 1.384 . S
C3850 C3851 1.372 . S
C3851 C3850 1.372 . S
C3851 C3852 1.400 . S
C3851 C3856 1.490 . S
C3852 H3842 0.930 . S
C3852 C3851 1.400 . S
C3852 C3855 1.386 . S
H3853 C3869 0.930 . S
H3854 C3870 0.931 . S
C3855 H3843 0.929 . S
C3855 C3849 1.390 . S
C3855 C3852 1.386 . S
C3856 C3851 1.490 . S
C3856 C3858 1.395 . S
C3856 C3859 1.403 . S
H3857 C3863 0.930 . S
C3858 H3844 0.930 . S
C3858 C3856 1.395 . S
C3858 C3861 1.403 . S
C3859 C3856 1.403 . S
C3859 C3860 1.524 . S
C3859 C3863 1.400 . S
C3860 H3845 0.960 . S
C3860 H3846 0.960 . S
C3860 H3847 0.960 . S
C3860 C3859 1.524 . S
C3861 C3858 1.403 . S
C3861 C3862 1.392 . S
C3861 C3865 1.495 . S
C3862 C3861 1.392 . S
C3862 C3863 1.385 . S
C3862 C3864 1.478 . S
C3863 H3857 0.930 . S
C3863 C3859 1.400 . S
C3863 C3862 1.385 . S
C3864 C3862 1.478 . S
C3864 C3866 1.381 . S
C3864 C3870 1.383 . S
C3865 C3861 1.495 . S
C3865 H3871 0.959 . S
C3865 H3872 0.961 . S
C3865 H3873 0.960 . S
C3866 C3864 1.381 . S
C3866 C3867 1.394 . S
C3866 H3874 0.930 . S
C3867 C3866 1.394 . S
C3867 C3868 1.383 . S
C3867 H3875 0.929 . S
C3868 C3867 1.383 . S
C3868 C3869 1.377 . S
C3869 H3853 0.930 . S
C3869 C3868 1.377 . S
C3869 C3870 1.379 . S
C3870 H3854 0.931 . S
C3870 C3864 1.383 . S
C3870 C3869 1.379 . S
H3871 C3865 0.959 . S
H3872 C3865 0.961 . S
H3873 C3865 0.960 . S
H3874 C3866 0.930 . S
H3875 C3867 0.929 . S
H3876 C3884 0.929 . S
H3877 C3886 0.930 . S
H3878 C3888 0.930 . S
H3879 C3891 0.929 . S
H3880 C3894 0.930 . S
H3881 C3896 0.960 . S
H3882 C3896 0.960 . S
H3883 C3896 0.960 . S
C3884 H3876 0.929 . S
C3884 C3885 1.377 . S
C3884 C3886 1.384 . S
C3885 C3884 1.377 . S
C3885 C3891 1.390 . S
C3886 H3877 0.930 . S
C3886 C3884 1.384 . S
C3886 C3887 1.372 . S
C3887 C3886 1.372 . S
C3887 C3888 1.400 . S
C3887 C3892 1.490 . S
C3888 H3878 0.930 . S
C3888 C3887 1.400 . S
C3888 C3891 1.386 . S
H3889 C3905 0.930 . S
H3890 C3906 0.931 . S
C3891 H3879 0.929 . S
C3891 C3885 1.390 . S
C3891 C3888 1.386 . S
C3892 C3887 1.490 . S
C3892 C3894 1.395 . S
C3892 C3895 1.403 . S
H3893 C3899 0.930 . S
C3894 H3880 0.930 . S
C3894 C3892 1.395 . S
C3894 C3897 1.403 . S
C3895 C3892 1.403 . S
C3895 C3896 1.524 . S
C3895 C3899 1.400 . S
C3896 H3881 0.960 . S
C3896 H3882 0.960 . S
C3896 H3883 0.960 . S
C3896 C3895 1.524 . S
C3897 C3894 1.403 . S
C3897 C3898 1.392 . S
C3897 C3901 1.495 . S
C3898 C3897 1.392 . S
C3898 C3899 1.385 . S
C3898 C3900 1.478 . S
C3899 H3893 0.930 . S
C3899 C3895 1.400 . S
C3899 C3898 1.385 . S
C3900 C3898 1.478 . S
C3900 C3902 1.381 . S
C3900 C3906 1.383 . S
C3901 C3897 1.495 . S
C3901 H3907 0.959 . S
C3901 H3908 0.961 . S
C3901 H3909 0.960 . S
C3902 C3900 1.381 . S
C3902 C3903 1.394 . S
C3902 H3910 0.930 . S
C3903 C3902 1.394 . S
C3903 C3904 1.383 . S
C3903 H3911 0.929 . S
C3904 C3903 1.383 . S
C3904 C3905 1.377 . S
C3905 H3889 0.930 . S
C3905 C3904 1.377 . S
C3905 C3906 1.379 . S
C3906 H3890 0.931 . S
C3906 C3900 1.383 . S
C3906 C3905 1.379 . S
H3907 C3901 0.959 . S
H3908 C3901 0.961 . S
H3909 C3901 0.960 . S
H3910 C3902 0.930 . S
H3911 C3903 0.929 . S
H3912 C3920 0.929 1_565 S
H3913 C3922 0.930 . S
H3914 C3924 0.930 . S
H3915 C3927 0.929 . S
H3916 C3930 0.930 . S
H3917 C3932 0.960 . S
H3918 C3932 0.960 . S
H3919 C3932 0.960 . S
C3920 H3912 0.929 1_545 S
C3920 C3921 1.377 1_545 S
C3920 C3922 1.384 . S
C3921 C3920 1.377 1_565 S
C3921 C3927 1.390 1_565 S
C3922 H3913 0.930 . S
C3922 C3920 1.384 . S
C3922 C3923 1.372 . S
C3923 C3922 1.372 . S
C3923 C3924 1.400 . S
C3923 C3928 1.490 . S
C3924 H3914 0.930 . S
C3924 C3923 1.400 . S
C3924 C3927 1.386 . S
H3925 C3941 0.930 . S
H3926 C3942 0.931 . S
C3927 H3915 0.929 . S
C3927 C3921 1.390 1_545 S
C3927 C3924 1.386 . S
C3928 C3923 1.490 . S
C3928 C3930 1.395 . S
C3928 C3931 1.403 . S
H3929 C3935 0.930 . S
C3930 H3916 0.930 . S
C3930 C3928 1.395 . S
C3930 C3933 1.403 . S
C3931 C3928 1.403 . S
C3931 C3932 1.524 . S
C3931 C3935 1.400 . S
C3932 H3917 0.960 . S
C3932 H3918 0.960 . S
C3932 H3919 0.960 . S
C3932 C3931 1.524 . S
C3933 C3930 1.403 . S
C3933 C3934 1.392 . S
C3933 C3937 1.495 . S
C3934 C3933 1.392 . S
C3934 C3935 1.385 . S
C3934 C3936 1.478 . S
C3935 H3929 0.930 . S
C3935 C3931 1.400 . S
C3935 C3934 1.385 . S
C3936 C3934 1.478 . S
C3936 C3938 1.381 . S
C3936 C3942 1.383 . S
C3937 C3933 1.495 . S
C3937 H3943 0.959 . S
C3937 H3944 0.961 . S
C3937 H3945 0.960 . S
C3938 C3936 1.381 . S
C3938 C3939 1.394 . S
C3938 H3946 0.930 . S
C3939 C3938 1.394 . S
C3939 C3940 1.383 . S
C3939 H3947 0.929 . S
C3940 C3939 1.383 . S
C3940 C3941 1.377 . S
C3941 H3925 0.930 . S
C3941 C3940 1.377 . S
C3941 C3942 1.379 . S
C3942 H3926 0.931 . S
C3942 C3936 1.383 . S
C3942 C3941 1.379 . S
H3943 C3937 0.959 . S
H3944 C3937 0.961 . S
H3945 C3937 0.960 . S
H3946 C3938 0.930 . S
H3947 C3939 0.929 . S
H3948 C3956 0.929 1_556 S
H3949 C3958 0.930 . S
H3950 C3960 0.930 . S
H3951 C3963 0.929 . S
H3952 C3966 0.930 . S
H3953 C3968 0.960 . S
H3954 C3968 0.960 . S
H3955 C3968 0.960 . S
C3956 H3948 0.929 1_554 S
C3956 C3957 1.377 1_554 S
C3956 C3958 1.384 . S
C3957 C3956 1.377 1_556 S
C3957 C3963 1.390 . S
C3958 H3949 0.930 . S
C3958 C3956 1.384 . S
C3958 C3959 1.372 . S
C3959 C3958 1.372 . S
C3959 C3960 1.400 . S
C3959 C3964 1.490 . S
C3960 H3950 0.930 . S
C3960 C3959 1.400 . S
C3960 C3963 1.386 1_554 S
H3961 C3977 0.930 . S
H3962 C3978 0.931 . S
C3963 H3951 0.929 . S
C3963 C3957 1.390 . S
C3963 C3960 1.386 1_556 S
C3964 C3959 1.490 . S
C3964 C3966 1.395 . S
C3964 C3967 1.403 . S
H3965 C3971 0.930 . S
C3966 H3952 0.930 . S
C3966 C3964 1.395 . S
C3966 C3969 1.403 . S
C3967 C3964 1.403 . S
C3967 C3968 1.524 . S
C3967 C3971 1.400 . S
C3968 H3953 0.960 . S
C3968 H3954 0.960 . S
C3968 H3955 0.960 . S
C3968 C3967 1.524 . S
C3969 C3966 1.403 . S
C3969 C3970 1.392 . S
C3969 C3973 1.495 . S
C3970 C3969 1.392 . S
C3970 C3971 1.385 . S
C3970 C3972 1.478 . S
C3971 H3965 0.930 . S
C3971 C3967 1.400 . S
C3971 C3970 1.385 . S
C3972 C3970 1.478 . S
C3972 C3974 1.381 . S
C3972 C3978 1.383 . S
C3973 C3969 1.495 . S
C3973 H3979 0.959 . S
C3973 H3980 0.961 . S
C3973 H3981 0.960 . S
C3974 C3972 1.381 . S
C3974 C3975 1.394 . S
C3974 H3982 0.930 . S
C3975 C3974 1.394 . S
C3975 C3976 1.383 . S
C3975 H3983 0.929 . S
C3976 C3975 1.383 . S
C3976 C3977 1.377 . S
C3977 H3961 0.930 . S
C3977 C3976 1.377 . S
C3977 C3978 1.379 . S
C3978 H3962 0.931 . S
C3978 C3972 1.383 . S
C3978 C3977 1.379 . S
H3979 C3973 0.959 . S
H3980 C3973 0.961 . S
H3981 C3973 0.960 . S
H3982 C3974 0.930 . S
H3983 C3975 0.929 . S
H3984 C3992 0.929 . S
H3985 C3994 0.930 . S
H3986 C3996 0.930 . S
H3987 C3999 0.929 . S
H3988 C4002 0.930 . S
H3989 C4004 0.960 . S
H3990 C4004 0.960 . S
H3991 C4004 0.960 . S
C3992 H3984 0.929 . S
C3992 C3993 1.377 . S
C3992 C3994 1.384 . S
C3993 C3992 1.377 . S
C3993 C3999 1.390 . S
C3994 H3985 0.930 . S
C3994 C3992 1.384 . S
C3994 C3995 1.372 . S
C3995 C3994 1.372 . S
C3995 C3996 1.400 . S
C3995 C4000 1.490 . S
C3996 H3986 0.930 . S
C3996 C3995 1.400 . S
C3996 C3999 1.386 . S
H3997 C4013 0.930 . S
H3998 C4014 0.931 . S
C3999 H3987 0.929 . S
C3999 C3993 1.390 . S
C3999 C3996 1.386 . S
C4000 C3995 1.490 . S
C4000 C4002 1.395 . S
C4000 C4003 1.403 . S
H4001 C4007 0.930 . S
C4002 H3988 0.930 . S
C4002 C4000 1.395 . S
C4002 C4005 1.403 . S
C4003 C4000 1.403 . S
C4003 C4004 1.524 . S
C4003 C4007 1.400 . S
C4004 H3989 0.960 . S
C4004 H3990 0.960 . S
C4004 H3991 0.960 . S
C4004 C4003 1.524 . S
C4005 C4002 1.403 . S
C4005 C4006 1.392 . S
C4005 C4009 1.495 . S
C4006 C4005 1.392 . S
C4006 C4007 1.385 . S
C4006 C4008 1.478 . S
C4007 H4001 0.930 . S
C4007 C4003 1.400 . S
C4007 C4006 1.385 . S
C4008 C4006 1.478 . S
C4008 C4010 1.381 . S
C4008 C4014 1.383 . S
C4009 C4005 1.495 . S
C4009 H4015 0.959 . S
C4009 H4016 0.961 . S
C4009 H4017 0.960 . S
C4010 C4008 1.381 . S
C4010 C4011 1.394 . S
C4010 H4018 0.930 . S
C4011 C4010 1.394 . S
C4011 C4012 1.383 . S
C4011 H4019 0.929 . S
C4012 C4011 1.383 . S
C4012 C4013 1.377 . S
C4013 H3997 0.930 . S
C4013 C4012 1.377 . S
C4013 C4014 1.379 . S
C4014 H3998 0.931 . S
C4014 C4008 1.383 . S
C4014 C4013 1.379 . S
H4015 C4009 0.959 . S
H4016 C4009 0.961 . S
H4017 C4009 0.960 . S
H4018 C4010 0.930 . S
H4019 C4011 0.929 . S
H4020 C4028 0.929 . S
H4021 C4030 0.930 . S
H4022 C4032 0.930 . S
H4023 C4035 0.929 . S
H4024 C4038 0.930 . S
H4025 C4040 0.960 . S
H4026 C4040 0.960 . S
H4027 C4040 0.960 . S
C4028 H4020 0.929 . S
C4028 C4029 1.377 . S
C4028 C4030 1.384 . S
C4029 C4028 1.377 . S
C4029 C4035 1.390 . S
C4030 H4021 0.930 . S
C4030 C4028 1.384 . S
C4030 C4031 1.372 . S
C4031 C4030 1.372 . S
C4031 C4032 1.400 . S
C4031 C4036 1.490 . S
C4032 H4022 0.930 . S
C4032 C4031 1.400 . S
C4032 C4035 1.386 . S
H4033 C4049 0.930 . S
H4034 C4050 0.931 . S
C4035 H4023 0.929 . S
C4035 C4029 1.390 . S
C4035 C4032 1.386 . S
C4036 C4031 1.490 . S
C4036 C4038 1.395 . S
C4036 C4039 1.403 . S
H4037 C4043 0.930 . S
C4038 H4024 0.930 . S
C4038 C4036 1.395 . S
C4038 C4041 1.403 . S
C4039 C4036 1.403 . S
C4039 C4040 1.524 . S
C4039 C4043 1.400 . S
C4040 H4025 0.960 . S
C4040 H4026 0.960 . S
C4040 H4027 0.960 . S
C4040 C4039 1.524 . S
C4041 C4038 1.403 . S
C4041 C4042 1.392 . S
C4041 C4045 1.495 . S
C4042 C4041 1.392 . S
C4042 C4043 1.385 . S
C4042 C4044 1.478 . S
C4043 H4037 0.930 . S
C4043 C4039 1.400 . S
C4043 C4042 1.385 . S
C4044 C4042 1.478 . S
C4044 C4046 1.381 . S
C4044 C4050 1.383 . S
C4045 C4041 1.495 . S
C4045 H4051 0.959 . S
C4045 H4052 0.961 . S
C4045 H4053 0.960 . S
C4046 C4044 1.381 . S
C4046 C4047 1.394 . S
C4046 H4054 0.930 . S
C4047 C4046 1.394 . S
C4047 C4048 1.383 . S
C4047 H4055 0.929 . S
C4048 C4047 1.383 . S
C4048 C4049 1.377 . S
C4049 H4033 0.930 . S
C4049 C4048 1.377 . S
C4049 C4050 1.379 . S
C4050 H4034 0.931 . S
C4050 C4044 1.383 . S
C4050 C4049 1.379 . S
H4051 C4045 0.959 . S
H4052 C4045 0.961 . S
H4053 C4045 0.960 . S
H4054 C4046 0.930 . S
H4055 C4047 0.929 . S
H4056 C4064 0.929 . S
H4057 C4066 0.930 . S
H4058 C4068 0.930 . S
H4059 C4071 0.929 . S
H4060 C4074 0.930 . S
H4061 C4076 0.960 . S
H4062 C4076 0.960 . S
H4063 C4076 0.960 . S
C4064 H4056 0.929 . S
C4064 C4065 1.377 . S
C4064 C4066 1.384 . S
C4065 C4064 1.377 . S
C4065 C4071 1.390 . S
C4066 H4057 0.930 . S
C4066 C4064 1.384 . S
C4066 C4067 1.372 . S
C4067 C4066 1.372 . S
C4067 C4068 1.400 . S
C4067 C4072 1.490 . S
C4068 H4058 0.930 . S
C4068 C4067 1.400 . S
C4068 C4071 1.386 . S
H4069 C4085 0.930 . S
H4070 C4086 0.931 . S
C4071 H4059 0.929 . S
C4071 C4065 1.390 . S
C4071 C4068 1.386 . S
C4072 C4067 1.490 . S
C4072 C4074 1.395 . S
C4072 C4075 1.403 . S
H4073 C4079 0.930 . S
C4074 H4060 0.930 . S
C4074 C4072 1.395 . S
C4074 C4077 1.403 . S
C4075 C4072 1.403 . S
C4075 C4076 1.524 . S
C4075 C4079 1.400 . S
C4076 H4061 0.960 . S
C4076 H4062 0.960 . S
C4076 H4063 0.960 . S
C4076 C4075 1.524 . S
C4077 C4074 1.403 . S
C4077 C4078 1.392 . S
C4077 C4081 1.495 . S
C4078 C4077 1.392 . S
C4078 C4079 1.385 . S
C4078 C4080 1.478 . S
C4079 H4073 0.930 . S
C4079 C4075 1.400 . S
C4079 C4078 1.385 . S
C4080 C4078 1.478 . S
C4080 C4082 1.381 . S
C4080 C4086 1.383 . S
C4081 C4077 1.495 . S
C4081 H4087 0.959 . S
C4081 H4088 0.961 . S
C4081 H4089 0.960 . S
C4082 C4080 1.381 . S
C4082 C4083 1.394 . S
C4082 H4090 0.930 . S
C4083 C4082 1.394 . S
C4083 C4084 1.383 . S
C4083 H4091 0.929 . S
C4084 C4083 1.383 . S
C4084 C4085 1.377 . S
C4085 H4069 0.930 . S
C4085 C4084 1.377 . S
C4085 C4086 1.379 . S
C4086 H4070 0.931 . S
C4086 C4080 1.383 . S
C4086 C4085 1.379 . S
H4087 C4081 0.959 . S
H4088 C4081 0.961 . S
H4089 C4081 0.960 . S
H4090 C4082 0.930 . S
H4091 C4083 0.929 . S
H4092 C4100 0.929 . S
H4093 C4102 0.930 . S
H4094 C4104 0.930 1_565 S
H4095 C4107 0.929 1_565 S
H4096 C4110 0.930 . S
H4097 C4112 0.960 . S
H4098 C4112 0.960 . S
H4099 C4112 0.960 . S
C4100 H4092 0.929 . S
C4100 C4101 1.377 . S
C4100 C4102 1.384 . S
C4101 C4100 1.377 . S
C4101 C4107 1.390 . S
C4102 H4093 0.930 . S
C4102 C4100 1.384 . S
C4102 C4103 1.372 . S
C4103 C4102 1.372 . S
C4103 C4104 1.400 . S
C4103 C4108 1.490 . S
C4104 H4094 0.930 1_545 S
C4104 C4103 1.400 . S
C4104 C4107 1.386 . S
H4105 C4121 0.930 1_565 S
H4106 C4122 0.884 1_465 S
C4107 H4095 0.929 1_545 S
C4107 C4101 1.390 . S
C4107 C4104 1.386 . S
C4108 C4103 1.490 . S
C4108 C4110 1.395 . S
C4108 C4111 1.403 . S
H4109 C4115 0.930 . S
C4110 H4096 0.930 . S
C4110 C4108 1.395 . S
C4110 C4113 1.403 . S
C4111 C4108 1.403 . S
C4111 C4112 1.524 . S
C4111 C4115 1.400 . S
C4112 H4097 0.960 . S
C4112 H4098 0.960 . S
C4112 H4099 0.960 . S
C4112 C4111 1.524 . S
C4113 C4110 1.403 . S
C4113 C4114 1.392 . S
C4113 C4117 1.495 . S
C4114 C4113 1.392 . S
C4114 C4115 1.385 . S
C4114 C4116 1.478 . S
C4115 H4109 0.930 . S
C4115 C4111 1.400 . S
C4115 C4114 1.385 . S
C4116 C4114 1.478 . S
C4116 C4118 1.381 . S
C4116 C4122 1.355 1_455 S
C4117 C4113 1.495 . S
C4117 H4123 0.959 . S
C4117 H4124 0.961 . S
C4117 H4125 0.960 . S
C4118 C4116 1.381 . S
C4118 C4119 1.394 1_455 S
C4118 H4126 0.930 . S
C4119 C4118 1.394 1_655 S
C4119 C4120 1.383 . S
C4119 H4127 0.929 . S
C4120 C4119 1.383 . S
C4120 C4121 1.377 . S
C4121 H4105 0.930 1_545 S
C4121 C4120 1.377 . S
C4121 C4122 1.435 . S
C4122 H4106 0.884 1_645 S
C4122 C4116 1.355 1_655 S
C4122 C4121 1.435 . S
H4123 C4117 0.959 . S
H4124 C4117 0.961 . S
H4125 C4117 0.960 . S
H4126 C4118 0.930 . S
H4127 C4119 0.929 . S
H4128 C4136 0.929 . S
H4129 C4138 0.930 . S
H4130 C4140 0.930 . S
H4131 C4143 0.929 . S
H4132 C4146 0.930 . S
H4133 C4148 0.960 . S
H4134 C4148 0.960 . S
H4135 C4148 0.960 . S
C4136 H4128 0.929 . S
C4136 C4137 1.377 . S
C4136 C4138 1.384 . S
C4137 C4136 1.377 . S
C4137 C4143 1.390 . S
C4138 H4129 0.930 . S
C4138 C4136 1.384 . S
C4138 C4139 1.372 . S
C4139 C4138 1.372 . S
C4139 C4140 1.400 . S
C4139 C4144 1.490 . S
C4140 H4130 0.930 . S
C4140 C4139 1.400 . S
C4140 C4143 1.386 . S
H4141 C4157 0.930 . S
H4142 C4158 0.931 . S
C4143 H4131 0.929 . S
C4143 C4137 1.390 . S
C4143 C4140 1.386 . S
C4144 C4139 1.490 . S
C4144 C4146 1.395 . S
C4144 C4147 1.403 . S
H4145 C4151 0.930 . S
C4146 H4132 0.930 . S
C4146 C4144 1.395 . S
C4146 C4149 1.403 . S
C4147 C4144 1.403 . S
C4147 C4148 1.524 . S
C4147 C4151 1.400 . S
C4148 H4133 0.960 . S
C4148 H4134 0.960 . S
C4148 H4135 0.960 . S
C4148 C4147 1.524 . S
C4149 C4146 1.403 . S
C4149 C4150 1.392 . S
C4149 C4153 1.495 . S
C4150 C4149 1.392 . S
C4150 C4151 1.385 . S
C4150 C4152 1.478 . S
C4151 H4145 0.930 . S
C4151 C4147 1.400 . S
C4151 C4150 1.385 . S
C4152 C4150 1.478 . S
C4152 C4154 1.381 . S
C4152 C4158 1.383 . S
C4153 C4149 1.495 . S
C4153 H4159 0.959 . S
C4153 H4160 0.961 . S
C4153 H4161 0.960 . S
C4154 C4152 1.381 . S
C4154 C4155 1.394 . S
C4154 H4162 0.930 . S
C4155 C4154 1.394 . S
C4155 C4156 1.383 . S
C4155 H4163 0.929 . S
C4156 C4155 1.383 . S
C4156 C4157 1.377 . S
C4157 H4141 0.930 . S
C4157 C4156 1.377 . S
C4157 C4158 1.379 . S
C4158 H4142 0.931 . S
C4158 C4152 1.383 . S
C4158 C4157 1.379 . S
H4159 C4153 0.959 . S
H4160 C4153 0.961 . S
H4161 C4153 0.960 . S
H4162 C4154 0.930 . S
H4163 C4155 0.929 . S
H4164 C4172 0.929 . S
H4165 C4174 0.930 . S
H4166 C4176 0.930 . S
H4167 C4179 0.929 . S
H4168 C4182 0.930 . S
H4169 C4184 0.960 . S
H4170 C4184 0.960 . S
H4171 C4184 0.960 . S
C4172 H4164 0.929 . S
C4172 C4173 1.377 . S
C4172 C4174 1.384 . S
C4173 C4172 1.377 . S
C4173 C4179 1.390 . S
C4174 H4165 0.930 . S
C4174 C4172 1.384 . S
C4174 C4175 1.372 . S
C4175 C4174 1.372 . S
C4175 C4176 1.400 . S
C4175 C4180 1.490 . S
C4176 H4166 0.930 . S
C4176 C4175 1.400 . S
C4176 C4179 1.386 . S
H4177 C4193 0.930 . S
H4178 C4194 0.931 . S
C4179 H4167 0.929 . S
C4179 C4173 1.390 . S
C4179 C4176 1.386 . S
C4180 C4175 1.490 . S
C4180 C4182 1.395 . S
C4180 C4183 1.403 . S
H4181 C4187 0.930 . S
C4182 H4168 0.930 . S
C4182 C4180 1.395 . S
C4182 C4185 1.403 . S
C4183 C4180 1.403 . S
C4183 C4184 1.524 . S
C4183 C4187 1.400 . S
C4184 H4169 0.960 . S
C4184 H4170 0.960 . S
C4184 H4171 0.960 . S
C4184 C4183 1.524 . S
C4185 C4182 1.403 . S
C4185 C4186 1.392 . S
C4185 C4189 1.495 . S
C4186 C4185 1.392 . S
C4186 C4187 1.385 . S
C4186 C4188 1.478 . S
C4187 H4181 0.930 . S
C4187 C4183 1.400 . S
C4187 C4186 1.385 . S
C4188 C4186 1.478 . S
C4188 C4190 1.381 . S
C4188 C4194 1.383 . S
C4189 C4185 1.495 . S
C4189 H4195 0.959 . S
C4189 H4196 0.961 . S
C4189 H4197 0.960 . S
C4190 C4188 1.381 . S
C4190 C4191 1.394 . S
C4190 H4198 0.930 . S
C4191 C4190 1.394 . S
C4191 C4192 1.383 . S
C4191 H4199 0.929 . S
C4192 C4191 1.383 . S
C4192 C4193 1.377 . S
C4193 H4177 0.930 . S
C4193 C4192 1.377 . S
C4193 C4194 1.379 . S
C4194 H4178 0.931 . S
C4194 C4188 1.383 . S
C4194 C4193 1.379 . S
H4195 C4189 0.959 . S
H4196 C4189 0.961 . S
H4197 C4189 0.960 . S
H4198 C4190 0.930 . S
H4199 C4191 0.929 . S
H4200 C4208 0.929 . S
H4201 C4210 0.930 . S
H4202 C4212 0.930 . S
H4203 C4215 0.929 . S
H4204 C4218 0.930 . S
H4205 C4220 0.960 . S
H4206 C4220 0.960 . S
H4207 C4220 0.960 . S
C4208 H4200 0.929 . S
C4208 C4209 1.377 . S
C4208 C4210 1.384 . S
C4209 C4208 1.377 . S
C4209 C4215 1.390 . S
C4210 H4201 0.930 . S
C4210 C4208 1.384 . S
C4210 C4211 1.372 . S
C4211 C4210 1.372 . S
C4211 C4212 1.400 . S
C4211 C4216 1.490 . S
C4212 H4202 0.930 . S
C4212 C4211 1.400 . S
C4212 C4215 1.386 . S
H4213 C4229 0.930 . S
H4214 C4230 0.931 . S
C4215 H4203 0.929 . S
C4215 C4209 1.390 . S
C4215 C4212 1.386 . S
C4216 C4211 1.490 . S
C4216 C4218 1.395 . S
C4216 C4219 1.403 . S
H4217 C4223 0.930 . S
C4218 H4204 0.930 . S
C4218 C4216 1.395 . S
C4218 C4221 1.403 . S
C4219 C4216 1.403 . S
C4219 C4220 1.524 . S
C4219 C4223 1.400 . S
C4220 H4205 0.960 . S
C4220 H4206 0.960 . S
C4220 H4207 0.960 . S
C4220 C4219 1.524 . S
C4221 C4218 1.403 . S
C4221 C4222 1.392 . S
C4221 C4225 1.495 . S
C4222 C4221 1.392 . S
C4222 C4223 1.385 . S
C4222 C4224 1.478 . S
C4223 H4217 0.930 . S
C4223 C4219 1.400 . S
C4223 C4222 1.385 . S
C4224 C4222 1.478 . S
C4224 C4226 1.381 . S
C4224 C4230 1.383 . S
C4225 C4221 1.495 . S
C4225 H4231 0.959 . S
C4225 H4232 0.961 . S
C4225 H4233 0.960 . S
C4226 C4224 1.381 . S
C4226 C4227 1.394 . S
C4226 H4234 0.930 . S
C4227 C4226 1.394 . S
C4227 C4228 1.383 . S
C4227 H4235 0.929 . S
C4228 C4227 1.383 . S
C4228 C4229 1.377 . S
C4229 H4213 0.930 . S
C4229 C4228 1.377 . S
C4229 C4230 1.379 . S
C4230 H4214 0.931 . S
C4230 C4224 1.383 . S
C4230 C4229 1.379 . S
H4231 C4225 0.959 . S
H4232 C4225 0.961 . S
H4233 C4225 0.960 . S
H4234 C4226 0.930 . S
H4235 C4227 0.929 . S
H4236 C4244 0.929 1_565 S
H4237 C4246 0.930 . S
H4238 C4248 0.930 . S
H4239 C4251 0.929 . S
H4240 C4254 0.930 . S
H4241 C4256 0.960 . S
H4242 C4256 0.960 . S
H4243 C4256 0.960 . S
C4244 H4236 0.929 1_545 S
C4244 C4245 1.377 1_545 S
C4244 C4246 1.384 . S
C4245 C4244 1.377 1_565 S
C4245 C4251 1.390 . S
C4246 H4237 0.930 . S
C4246 C4244 1.384 . S
C4246 C4247 1.372 . S
C4247 C4246 1.372 . S
C4247 C4248 1.400 . S
C4247 C4252 1.490 . S
C4248 H4238 0.930 . S
C4248 C4247 1.400 . S
C4248 C4251 1.386 1_545 S
H4249 C4265 0.930 . S
H4250 C4266 0.931 . S
C4251 H4239 0.929 . S
C4251 C4245 1.390 . S
C4251 C4248 1.386 1_565 S
C4252 C4247 1.490 . S
C4252 C4254 1.395 . S
C4252 C4255 1.403 . S
H4253 C4259 0.930 . S
C4254 H4240 0.930 . S
C4254 C4252 1.395 . S
C4254 C4257 1.403 . S
C4255 C4252 1.403 . S
C4255 C4256 1.524 . S
C4255 C4259 1.400 . S
C4256 H4241 0.960 . S
C4256 H4242 0.960 . S
C4256 H4243 0.960 . S
C4256 C4255 1.524 . S
C4257 C4254 1.403 . S
C4257 C4258 1.392 . S
C4257 C4261 1.495 . S
C4258 C4257 1.392 . S
C4258 C4259 1.385 . S
C4258 C4260 1.478 . S
C4259 H4253 0.930 . S
C4259 C4255 1.400 . S
C4259 C4258 1.385 . S
C4260 C4258 1.478 . S
C4260 C4262 1.381 . S
C4260 C4266 1.383 . S
C4261 C4257 1.495 . S
C4261 H4267 0.959 . S
C4261 H4268 0.961 . S
C4261 H4269 0.960 . S
C4262 C4260 1.381 . S
C4262 C4263 1.394 . S
C4262 H4270 0.930 . S
C4263 C4262 1.394 . S
C4263 C4264 1.383 . S
C4263 H4271 0.929 . S
C4264 C4263 1.383 . S
C4264 C4265 1.377 . S
C4265 H4249 0.930 . S
C4265 C4264 1.377 . S
C4265 C4266 1.379 . S
C4266 H4250 0.931 . S
C4266 C4260 1.383 . S
C4266 C4265 1.379 . S
H4267 C4261 0.959 . S
H4268 C4261 0.961 . S
H4269 C4261 0.960 . S
H4270 C4262 0.930 . S
H4271 C4263 0.929 . S
H4272 C4280 0.929 . S
H4273 C4282 0.930 . S
H4274 C4284 0.930 . S
H4275 C4287 0.929 . S
H4276 C4290 0.930 . S
H4277 C4292 0.960 . S
H4278 C4292 0.960 . S
H4279 C4292 0.960 . S
C4280 H4272 0.929 . S
C4280 C4281 1.377 . S
C4280 C4282 1.384 . S
C4281 C4280 1.377 . S
C4281 C4287 1.390 . S
C4282 H4273 0.930 . S
C4282 C4280 1.384 . S
C4282 C4283 1.372 . S
C4283 C4282 1.372 . S
C4283 C4284 1.400 . S
C4283 C4288 1.490 . S
C4284 H4274 0.930 . S
C4284 C4283 1.400 . S
C4284 C4287 1.386 . S
H4285 C4301 0.930 . S
H4286 C4302 0.931 . S
C4287 H4275 0.929 . S
C4287 C4281 1.390 . S
C4287 C4284 1.386 . S
C4288 C4283 1.490 . S
C4288 C4290 1.395 . S
C4288 C4291 1.403 . S
H4289 C4295 0.930 . S
C4290 H4276 0.930 . S
C4290 C4288 1.395 . S
C4290 C4293 1.403 . S
C4291 C4288 1.403 . S
C4291 C4292 1.524 . S
C4291 C4295 1.400 . S
C4292 H4277 0.960 . S
C4292 H4278 0.960 . S
C4292 H4279 0.960 . S
C4292 C4291 1.524 . S
C4293 C4290 1.403 . S
C4293 C4294 1.392 . S
C4293 C4297 1.495 . S
C4294 C4293 1.392 . S
C4294 C4295 1.385 . S
C4294 C4296 1.478 . S
C4295 H4289 0.930 . S
C4295 C4291 1.400 . S
C4295 C4294 1.385 . S
C4296 C4294 1.478 . S
C4296 C4298 1.381 . S
C4296 C4302 1.383 . S
C4297 C4293 1.495 . S
C4297 H4303 0.959 . S
C4297 H4304 0.961 . S
C4297 H4305 0.960 . S
C4298 C4296 1.381 . S
C4298 C4299 1.394 . S
C4298 H4306 0.930 . S
C4299 C4298 1.394 . S
C4299 C4300 1.383 . S
C4299 H4307 0.929 1_545 S
C4300 C4299 1.383 . S
C4300 C4301 1.377 . S
C4301 H4285 0.930 . S
C4301 C4300 1.377 . S
C4301 C4302 1.379 . S
C4302 H4286 0.931 . S
C4302 C4296 1.383 . S
C4302 C4301 1.379 . S
H4303 C4297 0.959 . S
H4304 C4297 0.961 . S
H4305 C4297 0.960 . S
H4306 C4298 0.930 . S
H4307 C4299 0.929 1_565 S
H4308 C4316 0.929 . S
H4309 C4318 0.930 . S
H4310 C4320 0.930 . S
H4311 C4323 0.929 . S
H4312 C4326 0.930 . S
H4313 C4328 0.960 . S
H4314 C4328 0.960 . S
H4315 C4328 0.960 . S
C4316 H4308 0.929 . S
C4316 C4317 1.377 . S
C4316 C4318 1.384 . S
C4317 C4316 1.377 . S
C4317 C4323 1.390 . S
C4318 H4309 0.930 . S
C4318 C4316 1.384 . S
C4318 C4319 1.372 . S
C4319 C4318 1.372 . S
C4319 C4320 1.400 . S
C4319 C4324 1.490 . S
C4320 H4310 0.930 . S
C4320 C4319 1.400 . S
C4320 C4323 1.386 . S
H4321 C4337 0.930 . S
H4322 C4338 0.931 . S
C4323 H4311 0.929 . S
C4323 C4317 1.390 . S
C4323 C4320 1.386 . S
C4324 C4319 1.490 . S
C4324 C4326 1.395 . S
C4324 C4327 1.403 . S
H4325 C4331 0.930 . S
C4326 H4312 0.930 . S
C4326 C4324 1.395 . S
C4326 C4329 1.403 . S
C4327 C4324 1.403 . S
C4327 C4328 1.524 . S
C4327 C4331 1.400 . S
C4328 H4313 0.960 . S
C4328 H4314 0.960 . S
C4328 H4315 0.960 . S
C4328 C4327 1.524 . S
C4329 C4326 1.403 . S
C4329 C4330 1.392 . S
C4329 C4333 1.495 . S
C4330 C4329 1.392 . S
C4330 C4331 1.385 . S
C4330 C4332 1.478 . S
C4331 H4325 0.930 . S
C4331 C4327 1.400 . S
C4331 C4330 1.385 . S
C4332 C4330 1.478 . S
C4332 C4334 1.381 . S
C4332 C4338 1.383 . S
C4333 C4329 1.495 . S
C4333 H4339 0.959 . S
C4333 H4340 0.961 . S
C4333 H4341 0.960 . S
C4334 C4332 1.381 . S
C4334 C4335 1.394 . S
C4334 H4342 0.930 . S
C4335 C4334 1.394 . S
C4335 C4336 1.383 . S
C4335 H4343 0.929 . S
C4336 C4335 1.383 . S
C4336 C4337 1.377 . S
C4337 H4321 0.930 . S
C4337 C4336 1.377 . S
C4337 C4338 1.379 . S
C4338 H4322 0.931 . S
C4338 C4332 1.383 . S
C4338 C4337 1.379 . S
H4339 C4333 0.959 . S
H4340 C4333 0.961 . S
H4341 C4333 0.960 . S
H4342 C4334 0.930 . S
H4343 C4335 0.929 . S
H4344 C4352 0.929 . S
H4345 C4354 0.930 . S
H4346 C4356 0.930 . S
H4347 C4359 0.929 . S
H4348 C4362 0.930 . S
H4349 C4364 0.960 . S
H4350 C4364 0.960 . S
H4351 C4364 0.960 . S
C4352 H4344 0.929 . S
C4352 C4353 1.377 . S
C4352 C4354 1.384 . S
C4353 C4352 1.377 . S
C4353 C4359 1.390 . S
C4354 H4345 0.930 . S
C4354 C4352 1.384 . S
C4354 C4355 1.372 . S
C4355 C4354 1.372 . S
C4355 C4356 1.400 . S
C4355 C4360 1.490 . S
C4356 H4346 0.930 . S
C4356 C4355 1.400 . S
C4356 C4359 1.386 . S
H4357 C4373 0.930 . S
H4358 C4374 0.931 . S
C4359 H4347 0.929 . S
C4359 C4353 1.390 . S
C4359 C4356 1.386 . S
C4360 C4355 1.490 . S
C4360 C4362 1.395 . S
C4360 C4363 1.403 . S
H4361 C4367 0.930 . S
C4362 H4348 0.930 . S
C4362 C4360 1.395 . S
C4362 C4365 1.403 . S
C4363 C4360 1.403 . S
C4363 C4364 1.524 . S
C4363 C4367 1.400 . S
C4364 H4349 0.960 . S
C4364 H4350 0.960 . S
C4364 H4351 0.960 . S
C4364 C4363 1.524 . S
C4365 C4362 1.403 . S
C4365 C4366 1.392 . S
C4365 C4369 1.495 . S
C4366 C4365 1.392 . S
C4366 C4367 1.385 . S
C4366 C4368 1.478 . S
C4367 H4361 0.930 . S
C4367 C4363 1.400 . S
C4367 C4366 1.385 . S
C4368 C4366 1.478 . S
C4368 C4370 1.381 . S
C4368 C4374 1.383 . S
C4369 C4365 1.495 . S
C4369 H4375 0.959 . S
C4369 H4376 0.961 . S
C4369 H4377 0.960 . S
C4370 C4368 1.381 . S
C4370 C4371 1.394 . S
C4370 H4378 0.930 . S
C4371 C4370 1.394 . S
C4371 C4372 1.383 . S
C4371 H4379 0.929 . S
C4372 C4371 1.383 . S
C4372 C4373 1.377 . S
C4373 H4357 0.930 . S
C4373 C4372 1.377 . S
C4373 C4374 1.379 . S
C4374 H4358 0.931 . S
C4374 C4368 1.383 . S
C4374 C4373 1.379 . S
H4375 C4369 0.959 . S
H4376 C4369 0.961 . S
H4377 C4369 0.960 . S
H4378 C4370 0.930 . S
H4379 C4371 0.929 . S
H4380 C4388 0.929 . S
H4381 C4390 0.930 . S
H4382 C4392 0.930 . S
H4383 C4395 0.929 . S
H4384 C4398 0.930 . S
H4385 C4400 0.960 . S
H4386 C4400 0.960 . S
H4387 C4400 0.960 . S
C4388 H4380 0.929 . S
C4388 C4389 1.377 . S
C4388 C4390 1.384 . S
C4389 C4388 1.377 . S
C4389 C4395 1.390 . S
C4390 H4381 0.930 . S
C4390 C4388 1.384 . S
C4390 C4391 1.372 . S
C4391 C4390 1.372 . S
C4391 C4392 1.400 . S
C4391 C4396 1.490 . S
C4392 H4382 0.930 . S
C4392 C4391 1.400 . S
C4392 C4395 1.386 . S
H4393 C4409 0.930 . S
H4394 C4410 0.931 . S
C4395 H4383 0.929 . S
C4395 C4389 1.390 . S
C4395 C4392 1.386 . S
C4396 C4391 1.490 . S
C4396 C4398 1.395 1_455 S
C4396 C4399 1.403 . S
H4397 C4403 0.930 . S
C4398 H4384 0.930 . S
C4398 C4396 1.395 1_655 S
C4398 C4401 1.403 . S
C4399 C4396 1.403 . S
C4399 C4400 1.524 . S
C4399 C4403 1.400 . S
C4400 H4385 0.960 . S
C4400 H4386 0.960 . S
C4400 H4387 0.960 . S
C4400 C4399 1.524 . S
C4401 C4398 1.403 . S
C4401 C4402 1.392 . S
C4401 C4405 1.495 . S
C4402 C4401 1.392 . S
C4402 C4403 1.385 1_655 S
C4402 C4404 1.478 . S
C4403 H4397 0.930 . S
C4403 C4399 1.400 . S
C4403 C4402 1.385 1_455 S
C4404 C4402 1.478 . S
C4404 C4406 1.381 . S
C4404 C4410 1.383 . S
C4405 C4401 1.495 . S
C4405 H4411 0.959 . S
C4405 H4412 0.961 . S
C4405 H4413 0.960 . S
C4406 C4404 1.381 . S
C4406 C4407 1.394 . S
C4406 H4414 0.930 . S
C4407 C4406 1.394 . S
C4407 C4408 1.383 . S
C4407 H4415 0.929 . S
C4408 C4407 1.383 . S
C4408 C4409 1.377 . S
C4409 H4393 0.930 . S
C4409 C4408 1.377 . S
C4409 C4410 1.379 . S
C4410 H4394 0.931 . S
C4410 C4404 1.383 . S
C4410 C4409 1.379 . S
H4411 C4405 0.959 . S
H4412 C4405 0.961 . S
H4413 C4405 0.960 . S
H4414 C4406 0.930 . S
H4415 C4407 0.929 . S
H4416 C4424 0.929 . S
H4417 C4426 0.930 . S
H4418 C4428 0.930 . S
H4419 C4431 0.929 1_655 S
H4420 C4434 0.930 . S
H4421 C4436 0.960 . S
H4422 C4436 0.960 . S
H4423 C4436 0.960 . S
C4424 H4416 0.929 . S
C4424 C4425 1.377 . S
C4424 C4426 1.384 1_655 S
C4425 C4424 1.377 . S
C4425 C4431 1.390 1_655 S
C4426 H4417 0.930 . S
C4426 C4424 1.384 1_455 S
C4426 C4427 1.372 . S
C4427 C4426 1.372 . S
C4427 C4428 1.400 . S
C4427 C4432 1.490 . S
C4428 H4418 0.930 . S
C4428 C4427 1.400 . S
C4428 C4431 1.386 . S
H4429 C4445 0.930 . S
H4430 C4446 0.931 . S
C4431 H4419 0.929 1_455 S
C4431 C4425 1.390 1_455 S
C4431 C4428 1.386 . S
C4432 C4427 1.490 . S
C4432 C4434 1.395 . S
C4432 C4435 1.403 . S
H4433 C4439 0.930 . S
C4434 H4420 0.930 . S
C4434 C4432 1.395 . S
C4434 C4437 1.403 . S
C4435 C4432 1.403 . S
C4435 C4436 1.524 . S
C4435 C4439 1.400 . S
C4436 H4421 0.960 . S
C4436 H4422 0.960 . S
C4436 H4423 0.960 . S
C4436 C4435 1.524 . S
C4437 C4434 1.403 . S
C4437 C4438 1.392 . S
C4437 C4441 1.495 . S
C4438 C4437 1.392 . S
C4438 C4439 1.385 . S
C4438 C4440 1.478 . S
C4439 H4433 0.930 . S
C4439 C4435 1.400 . S
C4439 C4438 1.385 . S
C4440 C4438 1.478 . S
C4440 C4442 1.381 . S
C4440 C4446 1.383 . S
C4441 C4437 1.495 . S
C4441 H4447 0.959 . S
C4441 H4448 0.961 . S
C4441 H4449 0.960 . S
C4442 C4440 1.381 . S
C4442 C4443 1.394 . S
C4442 H4450 0.930 . S
C4443 C4442 1.394 . S
C4443 C4444 1.383 . S
C4443 H4451 0.929 . S
C4444 C4443 1.383 . S
C4444 C4445 1.377 . S
C4445 H4429 0.930 . S
C4445 C4444 1.377 . S
C4445 C4446 1.379 . S
C4446 H4430 0.931 . S
C4446 C4440 1.383 . S
C4446 C4445 1.379 . S
H4447 C4441 0.959 . S
H4448 C4441 0.961 . S
H4449 C4441 0.960 . S
H4450 C4442 0.930 . S
H4451 C4443 0.929 . S
H4452 C4460 0.929 . S
H4453 C4462 0.930 . S
H4454 C4464 0.930 . S
H4455 C4467 0.929 . S
H4456 C4470 0.930 . S
H4457 C4472 0.960 . S
H4458 C4472 0.960 . S
H4459 C4472 0.960 . S
C4460 H4452 0.929 . S
C4460 C4461 1.377 . S
C4460 C4462 1.384 . S
C4461 C4460 1.377 . S
C4461 C4467 1.390 . S
C4462 H4453 0.930 . S
C4462 C4460 1.384 . S
C4462 C4463 1.372 . S
C4463 C4462 1.372 . S
C4463 C4464 1.400 . S
C4463 C4468 1.490 . S
C4464 H4454 0.930 . S
C4464 C4463 1.400 . S
C4464 C4467 1.386 . S
H4465 C4481 0.930 . S
H4466 C4482 0.931 . S
C4467 H4455 0.929 . S
C4467 C4461 1.390 . S
C4467 C4464 1.386 . S
C4468 C4463 1.490 . S
C4468 C4470 1.395 . S
C4468 C4471 1.403 . S
H4469 C4475 0.930 . S
C4470 H4456 0.930 . S
C4470 C4468 1.395 . S
C4470 C4473 1.403 . S
C4471 C4468 1.403 . S
C4471 C4472 1.524 . S
C4471 C4475 1.400 . S
C4472 H4457 0.960 . S
C4472 H4458 0.960 . S
C4472 H4459 0.960 . S
C4472 C4471 1.524 . S
C4473 C4470 1.403 . S
C4473 C4474 1.392 . S
C4473 C4477 1.495 . S
C4474 C4473 1.392 . S
C4474 C4475 1.385 . S
C4474 C4476 1.478 . S
C4475 H4469 0.930 . S
C4475 C4471 1.400 . S
C4475 C4474 1.385 . S
C4476 C4474 1.478 . S
C4476 C4478 1.381 . S
C4476 C4482 1.383 . S
C4477 C4473 1.495 . S
C4477 H4483 0.959 . S
C4477 H4484 0.961 . S
C4477 H4485 0.960 . S
C4478 C4476 1.381 . S
C4478 C4479 1.394 . S
C4478 H4486 0.930 . S
C4479 C4478 1.394 . S
C4479 C4480 1.383 . S
C4479 H4487 0.929 . S
C4480 C4479 1.383 . S
C4480 C4481 1.377 . S
C4481 H4465 0.930 . S
C4481 C4480 1.377 . S
C4481 C4482 1.379 . S
C4482 H4466 0.931 . S
C4482 C4476 1.383 . S
C4482 C4481 1.379 . S
H4483 C4477 0.959 . S
H4484 C4477 0.961 . S
H4485 C4477 0.960 . S
H4486 C4478 0.930 . S
H4487 C4479 0.929 . S
H4488 C4496 0.929 . S
H4489 C4498 0.930 . S
H4490 C4500 0.930 . S
H4491 C4503 0.929 . S
H4492 C4506 0.930 . S
H4493 C4508 0.960 . S
H4494 C4508 0.960 . S
H4495 C4508 0.960 . S
C4496 H4488 0.929 . S
C4496 C4497 1.377 . S
C4496 C4498 1.384 . S
C4497 C4496 1.377 . S
C4497 C4503 1.390 . S
C4498 H4489 0.930 . S
C4498 C4496 1.384 . S
C4498 C4499 1.372 . S
C4499 C4498 1.372 . S
C4499 C4500 1.400 . S
C4499 C4504 1.490 . S
C4500 H4490 0.930 . S
C4500 C4499 1.400 . S
C4500 C4503 1.386 . S
H4501 C4517 0.930 . S
H4502 C4518 0.931 . S
C4503 H4491 0.929 . S
C4503 C4497 1.390 . S
C4503 C4500 1.386 . S
C4504 C4499 1.490 . S
C4504 C4506 1.395 . S
C4504 C4507 1.403 . S
H4505 C4511 0.930 . S
C4506 H4492 0.930 . S
C4506 C4504 1.395 . S
C4506 C4509 1.403 . S
C4507 C4504 1.403 . S
C4507 C4508 1.524 . S
C4507 C4511 1.400 . S
C4508 H4493 0.960 . S
C4508 H4494 0.960 . S
C4508 H4495 0.960 . S
C4508 C4507 1.524 . S
C4509 C4506 1.403 . S
C4509 C4510 1.392 . S
C4509 C4513 1.495 . S
C4510 C4509 1.392 . S
C4510 C4511 1.385 . S
C4510 C4512 1.478 . S
C4511 H4505 0.930 . S
C4511 C4507 1.400 . S
C4511 C4510 1.385 . S
C4512 C4510 1.478 . S
C4512 C4514 1.381 . S
C4512 C4518 1.383 . S
C4513 C4509 1.495 . S
C4513 H4519 0.959 . S
C4513 H4520 0.961 . S
C4513 H4521 0.960 . S
C4514 C4512 1.381 . S
C4514 C4515 1.394 . S
C4514 H4522 0.930 . S
C4515 C4514 1.394 . S
C4515 C4516 1.383 . S
C4515 H4523 0.929 . S
C4516 C4515 1.383 . S
C4516 C4517 1.377 . S
C4517 H4501 0.930 . S
C4517 C4516 1.377 . S
C4517 C4518 1.379 . S
C4518 H4502 0.931 . S
C4518 C4512 1.383 . S
C4518 C4517 1.379 . S
H4519 C4513 0.959 . S
H4520 C4513 0.961 . S
H4521 C4513 0.960 . S
H4522 C4514 0.930 . S
H4523 C4515 0.929 . S
H4524 C4532 0.929 . S
H4525 C4534 0.930 . S
H4526 C4536 0.930 . S
H4527 C4539 0.929 . S
H4528 C4542 0.930 . S
H4529 C4544 0.960 . S
H4530 C4544 0.960 . S
H4531 C4544 0.960 . S
C4532 H4524 0.929 . S
C4532 C4533 1.377 . S
C4532 C4534 1.384 . S
C4533 C4532 1.377 . S
C4533 C4539 1.390 . S
C4534 H4525 0.930 . S
C4534 C4532 1.384 . S
C4534 C4535 1.372 . S
C4535 C4534 1.372 . S
C4535 C4536 1.400 . S
C4535 C4540 1.490 . S
C4536 H4526 0.930 . S
C4536 C4535 1.400 . S
C4536 C4539 1.386 . S
H4537 C4553 0.930 . S
H4538 C4554 0.931 . S
C4539 H4527 0.929 . S
C4539 C4533 1.390 . S
C4539 C4536 1.386 . S
C4540 C4535 1.490 . S
C4540 C4542 1.395 . S
C4540 C4543 1.403 . S
H4541 C4547 0.930 . S
C4542 H4528 0.930 . S
C4542 C4540 1.395 . S
C4542 C4545 1.403 . S
C4543 C4540 1.403 . S
C4543 C4544 1.524 . S
C4543 C4547 1.400 . S
C4544 H4529 0.960 . S
C4544 H4530 0.960 . S
C4544 H4531 0.960 . S
C4544 C4543 1.524 . S
C4545 C4542 1.403 . S
C4545 C4546 1.392 . S
C4545 C4549 1.495 . S
C4546 C4545 1.392 . S
C4546 C4547 1.385 . S
C4546 C4548 1.478 . S
C4547 H4541 0.930 . S
C4547 C4543 1.400 . S
C4547 C4546 1.385 . S
C4548 C4546 1.478 . S
C4548 C4550 1.381 . S
C4548 C4554 1.383 . S
C4549 C4545 1.495 . S
C4549 H4555 0.959 . S
C4549 H4556 0.961 . S
C4549 H4557 0.960 . S
C4550 C4548 1.381 . S
C4550 C4551 1.394 . S
C4550 H4558 0.930 . S
C4551 C4550 1.394 . S
C4551 C4552 1.383 . S
C4551 H4559 0.929 . S
C4552 C4551 1.383 . S
C4552 C4553 1.377 . S
C4553 H4537 0.930 . S
C4553 C4552 1.377 . S
C4553 C4554 1.379 . S
C4554 H4538 0.931 . S
C4554 C4548 1.383 . S
C4554 C4553 1.379 . S
H4555 C4549 0.959 . S
H4556 C4549 0.961 . S
H4557 C4549 0.960 . S
H4558 C4550 0.930 . S
H4559 C4551 0.929 . S
H4560 C4568 0.929 . S
H4561 C4570 0.930 . S
H4562 C4572 0.930 . S
H4563 C4575 0.929 . S
H4564 C4578 0.930 . S
H4565 C4580 0.960 . S
H4566 C4580 0.960 . S
H4567 C4580 0.960 . S
C4568 H4560 0.929 . S
C4568 C4569 1.377 . S
C4568 C4570 1.384 . S
C4569 C4568 1.377 . S
C4569 C4575 1.390 . S
C4570 H4561 0.930 . S
C4570 C4568 1.384 . S
C4570 C4571 1.372 . S
C4571 C4570 1.372 . S
C4571 C4572 1.400 . S
C4571 C4576 1.490 . S
C4572 H4562 0.930 . S
C4572 C4571 1.400 . S
C4572 C4575 1.386 . S
H4573 C4589 0.930 . S
H4574 C4590 0.931 . S
C4575 H4563 0.929 . S
C4575 C4569 1.390 . S
C4575 C4572 1.386 . S
C4576 C4571 1.490 . S
C4576 C4578 1.395 . S
C4576 C4579 1.403 . S
H4577 C4583 0.930 . S
C4578 H4564 0.930 . S
C4578 C4576 1.395 . S
C4578 C4581 1.403 . S
C4579 C4576 1.403 . S
C4579 C4580 1.524 . S
C4579 C4583 1.400 . S
C4580 H4565 0.960 . S
C4580 H4566 0.960 . S
C4580 H4567 0.960 . S
C4580 C4579 1.524 . S
C4581 C4578 1.403 . S
C4581 C4582 1.392 . S
C4581 C4585 1.495 . S
C4582 C4581 1.392 . S
C4582 C4583 1.385 . S
C4582 C4584 1.478 . S
C4583 H4577 0.930 . S
C4583 C4579 1.400 . S
C4583 C4582 1.385 . S
C4584 C4582 1.478 . S
C4584 C4586 1.381 . S
C4584 C4590 1.383 . S
C4585 C4581 1.495 . S
C4585 H4591 0.959 . S
C4585 H4592 0.961 . S
C4585 H4593 0.960 . S
C4586 C4584 1.381 . S
C4586 C4587 1.394 . S
C4586 H4594 0.930 . S
C4587 C4586 1.394 . S
C4587 C4588 1.383 . S
C4587 H4595 0.929 . S
C4588 C4587 1.383 . S
C4588 C4589 1.377 . S
C4589 H4573 0.930 . S
C4589 C4588 1.377 . S
C4589 C4590 1.379 . S
C4590 H4574 0.931 . S
C4590 C4584 1.383 . S
C4590 C4589 1.379 . S
H4591 C4585 0.959 . S
H4592 C4585 0.961 . S
H4593 C4585 0.960 . S
H4594 C4586 0.930 . S
H4595 C4587 0.929 . S
H4596 C4604 0.929 . S
H4597 C4606 0.930 . S
H4598 C4608 0.930 . S
H4599 C4611 0.929 . S
H4600 C4614 0.930 . S
H4601 C4616 0.960 . S
H4602 C4616 0.960 . S
H4603 C4616 0.960 . S
C4604 H4596 0.929 . S
C4604 C4605 1.377 . S
C4604 C4606 1.384 . S
C4605 C4604 1.377 . S
C4605 C4611 1.390 . S
C4606 H4597 0.930 . S
C4606 C4604 1.384 . S
C4606 C4607 1.372 . S
C4607 C4606 1.372 . S
C4607 C4608 1.400 . S
C4607 C4612 1.490 . S
C4608 H4598 0.930 . S
C4608 C4607 1.400 . S
C4608 C4611 1.386 . S
H4609 C4625 0.930 . S
H4610 C4626 0.931 . S
C4611 H4599 0.929 . S
C4611 C4605 1.390 . S
C4611 C4608 1.386 . S
C4612 C4607 1.490 . S
C4612 C4614 1.395 . S
C4612 C4615 1.403 . S
H4613 C4619 0.930 . S
C4614 H4600 0.930 . S
C4614 C4612 1.395 . S
C4614 C4617 1.403 . S
C4615 C4612 1.403 . S
C4615 C4616 1.524 . S
C4615 C4619 1.400 . S
C4616 H4601 0.960 . S
C4616 H4602 0.960 . S
C4616 H4603 0.960 . S
C4616 C4615 1.524 . S
C4617 C4614 1.403 . S
C4617 C4618 1.392 . S
C4617 C4621 1.495 . S
C4618 C4617 1.392 . S
C4618 C4619 1.385 . S
C4618 C4620 1.478 . S
C4619 H4613 0.930 . S
C4619 C4615 1.400 . S
C4619 C4618 1.385 . S
C4620 C4618 1.478 . S
C4620 C4622 1.381 . S
C4620 C4626 1.383 . S
C4621 C4617 1.495 . S
C4621 H4627 0.959 . S
C4621 H4628 0.961 . S
C4621 H4629 0.960 . S
C4622 C4620 1.381 . S
C4622 C4623 1.394 . S
C4622 H4630 0.930 . S
C4623 C4622 1.394 . S
C4623 C4624 1.383 . S
C4623 H4631 0.929 . S
C4624 C4623 1.383 . S
C4624 C4625 1.377 . S
C4625 H4609 0.930 . S
C4625 C4624 1.377 . S
C4625 C4626 1.379 . S
C4626 H4610 0.931 . S
C4626 C4620 1.383 . S
C4626 C4625 1.379 . S
H4627 C4621 0.959 . S
H4628 C4621 0.961 . S
H4629 C4621 0.960 . S
H4630 C4622 0.930 . S
H4631 C4623 0.929 . S
H4632 C4640 0.929 . S
H4633 C4642 0.930 . S
H4634 C4644 0.930 . S
H4635 C4647 0.929 . S
H4636 C4650 0.930 . S
H4637 C4652 0.960 . S
H4638 C4652 0.960 . S
H4639 C4652 0.960 . S
C4640 H4632 0.929 . S
C4640 C4641 1.377 . S
C4640 C4642 1.384 . S
C4641 C4640 1.377 . S
C4641 C4647 1.390 . S
C4642 H4633 0.930 . S
C4642 C4640 1.384 . S
C4642 C4643 1.372 . S
C4643 C4642 1.372 . S
C4643 C4644 1.400 . S
C4643 C4648 1.490 . S
C4644 H4634 0.930 . S
C4644 C4643 1.400 . S
C4644 C4647 1.386 . S
H4645 C4661 0.930 . S
H4646 C4662 0.931 . S
C4647 H4635 0.929 . S
C4647 C4641 1.390 . S
C4647 C4644 1.386 . S
C4648 C4643 1.490 . S
C4648 C4650 1.395 . S
C4648 C4651 1.403 . S
H4649 C4655 0.930 . S
C4650 H4636 0.930 . S
C4650 C4648 1.395 . S
C4650 C4653 1.403 . S
C4651 C4648 1.403 . S
C4651 C4652 1.524 . S
C4651 C4655 1.400 . S
C4652 H4637 0.960 . S
C4652 H4638 0.960 . S
C4652 H4639 0.960 . S
C4652 C4651 1.524 . S
C4653 C4650 1.403 . S
C4653 C4654 1.392 . S
C4653 C4657 1.495 . S
C4654 C4653 1.392 . S
C4654 C4655 1.385 . S
C4654 C4656 1.478 . S
C4655 H4649 0.930 . S
C4655 C4651 1.400 . S
C4655 C4654 1.385 . S
C4656 C4654 1.478 . S
C4656 C4658 1.381 . S
C4656 C4662 1.383 . S
C4657 C4653 1.495 . S
C4657 H4663 0.959 . S
C4657 H4664 0.961 . S
C4657 H4665 0.960 . S
C4658 C4656 1.381 . S
C4658 C4659 1.394 . S
C4658 H4666 0.930 . S
C4659 C4658 1.394 . S
C4659 C4660 1.383 . S
C4659 H4667 0.929 . S
C4660 C4659 1.383 . S
C4660 C4661 1.377 . S
C4661 H4645 0.930 . S
C4661 C4660 1.377 . S
C4661 C4662 1.379 . S
C4662 H4646 0.931 . S
C4662 C4656 1.383 . S
C4662 C4661 1.379 . S
H4663 C4657 0.959 . S
H4664 C4657 0.961 . S
H4665 C4657 0.960 . S
H4666 C4658 0.930 . S
H4667 C4659 0.929 . S
H4668 C4676 0.929 . S
H4669 C4678 0.930 . S
H4670 C4680 0.930 . S
H4671 C4683 0.929 . S
H4672 C4686 0.930 . S
H4673 C4688 0.960 . S
H4674 C4688 0.960 . S
H4675 C4688 0.960 . S
C4676 H4668 0.929 . S
C4676 C4677 1.377 . S
C4676 C4678 1.384 . S
C4677 C4676 1.377 . S
C4677 C4683 1.390 . S
C4678 H4669 0.930 . S
C4678 C4676 1.384 . S
C4678 C4679 1.372 . S
C4679 C4678 1.372 . S
C4679 C4680 1.400 . S
C4679 C4684 1.490 . S
C4680 H4670 0.930 . S
C4680 C4679 1.400 . S
C4680 C4683 1.386 . S
H4681 C4697 0.930 . S
H4682 C4698 0.931 . S
C4683 H4671 0.929 . S
C4683 C4677 1.390 . S
C4683 C4680 1.386 . S
C4684 C4679 1.490 . S
C4684 C4686 1.395 . S
C4684 C4687 1.403 . S
H4685 C4691 0.901 1_545 S
C4686 H4672 0.930 . S
C4686 C4684 1.395 . S
C4686 C4689 1.403 . S
C4687 C4684 1.403 . S
C4687 C4688 1.524 . S
C4687 C4691 1.400 . S
C4688 H4673 0.960 . S
C4688 H4674 0.960 . S
C4688 H4675 0.960 . S
C4688 C4687 1.524 . S
C4689 C4686 1.403 . S
C4689 C4690 1.392 . S
C4689 C4693 1.495 . S
C4690 C4689 1.392 . S
C4690 C4691 1.385 . S
C4690 C4692 1.478 . S
C4691 H4685 0.901 1_565 S
C4691 C4687 1.400 . S
C4691 C4690 1.385 . S
C4692 C4690 1.478 . S
C4692 C4694 1.381 . S
C4692 C4698 1.383 1_565 S
C4693 C4689 1.495 . S
C4693 H4699 0.959 . S
C4693 H4700 0.961 . S
C4693 H4701 0.960 . S
C4694 C4692 1.381 . S
C4694 C4695 1.394 1_665 S
C4694 H4702 0.944 . S
C4695 C4694 1.394 1_445 S
C4695 C4696 1.383 . S
C4695 H4703 0.929 . S
C4696 C4695 1.383 . S
C4696 C4697 1.377 1_455 S
C4697 H4681 0.930 . S
C4697 C4696 1.377 1_655 S
C4697 C4698 1.379 . S
C4698 H4682 0.931 . S
C4698 C4692 1.383 1_545 S
C4698 C4697 1.379 . S
H4699 C4693 0.959 . S
H4700 C4693 0.961 . S
H4701 C4693 0.960 . S
H4702 C4694 0.944 . S
H4703 C4695 0.929 . S
H4704 C4712 0.929 . S
H4705 C4714 0.930 . S
H4706 C4716 0.930 . S
H4707 C4719 0.929 . S
H4708 C4722 0.930 . S
H4709 C4724 0.960 . S
H4710 C4724 0.960 . S
H4711 C4724 0.960 . S
C4712 H4704 0.929 . S
C4712 C4713 1.377 . S
C4712 C4714 1.384 . S
C4713 C4712 1.377 . S
C4713 C4719 1.390 . S
C4714 H4705 0.930 . S
C4714 C4712 1.384 . S
C4714 C4715 1.372 . S
C4715 C4714 1.372 . S
C4715 C4716 1.400 . S
C4715 C4720 1.490 . S
C4716 H4706 0.930 . S
C4716 C4715 1.400 . S
C4716 C4719 1.386 . S
H4717 C4733 0.930 . S
H4718 C4734 0.931 . S
C4719 H4707 0.929 . S
C4719 C4713 1.390 . S
C4719 C4716 1.386 . S
C4720 C4715 1.490 . S
C4720 C4722 1.395 . S
C4720 C4723 1.403 . S
H4721 C4727 0.930 . S
C4722 H4708 0.930 . S
C4722 C4720 1.395 . S
C4722 C4725 1.403 . S
C4723 C4720 1.403 . S
C4723 C4724 1.524 . S
C4723 C4727 1.400 . S
C4724 H4709 0.960 . S
C4724 H4710 0.960 . S
C4724 H4711 0.960 . S
C4724 C4723 1.524 . S
C4725 C4722 1.403 . S
C4725 C4726 1.392 . S
C4725 C4729 1.495 . S
C4726 C4725 1.392 . S
C4726 C4727 1.385 . S
C4726 C4728 1.478 . S
C4727 H4721 0.930 . S
C4727 C4723 1.400 . S
C4727 C4726 1.385 . S
C4728 C4726 1.478 . S
C4728 C4730 1.381 . S
C4728 C4734 1.383 . S
C4729 C4725 1.495 . S
C4729 H4735 0.959 . S
C4729 H4736 0.961 . S
C4729 H4737 0.960 . S
C4730 C4728 1.381 . S
C4730 C4731 1.394 . S
C4730 H4738 0.930 . S
C4731 C4730 1.394 . S
C4731 C4732 1.383 . S
C4731 H4739 0.929 . S
C4732 C4731 1.383 . S
C4732 C4733 1.377 . S
C4733 H4717 0.930 . S
C4733 C4732 1.377 . S
C4733 C4734 1.379 . S
C4734 H4718 0.931 . S
C4734 C4728 1.383 . S
C4734 C4733 1.379 . S
H4735 C4729 0.959 . S
H4736 C4729 0.961 . S
H4737 C4729 0.960 . S
H4738 C4730 0.930 . S
H4739 C4731 0.929 . S
H4740 C4748 0.929 1_556 S
H4741 C4750 0.930 1_556 S
H4742 C4752 0.930 . S
H4743 C4755 0.929 . S
H4744 C4758 0.913 1_556 S
H4745 C4760 0.960 . S
H4746 C4760 0.960 . S
H4747 C4760 0.960 . S
C4748 H4740 0.929 1_554 S
C4748 C4749 1.377 . S
C4748 C4750 1.384 . S
C4749 C4748 1.377 . S
C4749 C4755 1.390 . S
C4750 H4741 0.930 1_554 S
C4750 C4748 1.384 . S
C4750 C4751 1.372 . S
C4751 C4750 1.372 . S
C4751 C4752 1.400 . S
C4751 C4756 1.490 . S
C4752 H4742 0.930 . S
C4752 C4751 1.400 . S
C4752 C4755 1.386 . S
H4753 C4769 0.924 . S
H4754 C4770 0.931 . S
C4755 H4743 0.929 . S
C4755 C4749 1.390 . S
C4755 C4752 1.386 . S
C4756 C4751 1.490 . S
C4756 C4758 1.395 . S
C4756 C4759 1.403 . S
H4757 C4763 0.930 . S
C4758 H4744 0.913 1_554 S
C4758 C4756 1.395 . S
C4758 C4761 1.403 . S
C4759 C4756 1.403 . S
C4759 C4760 1.524 . S
C4759 C4763 1.400 . S
C4760 H4745 0.960 . S
C4760 H4746 0.960 . S
C4760 H4747 0.960 . S
C4760 C4759 1.524 . S
C4761 C4758 1.403 . S
C4761 C4762 1.392 . S
C4761 C4765 1.495 1_554 S
C4762 C4761 1.392 . S
C4762 C4763 1.385 . S
C4762 C4764 1.478 . S
C4763 H4757 0.930 . S
C4763 C4759 1.400 . S
C4763 C4762 1.385 . S
C4764 C4762 1.478 . S
C4764 C4766 1.362 1_544 S
C4764 C4770 1.383 . S
C4765 C4761 1.495 1_556 S
C4765 H4771 0.959 . S
C4765 H4772 0.961 1_556 S
C4765 H4773 0.960 . S
C4766 C4764 1.362 1_566 S
C4766 C4767 1.375 . S
C4766 H4774 0.972 . S
C4767 C4766 1.375 . S
C4767 C4768 1.381 1_556 S
C4767 H4775 0.930 . S
C4768 C4767 1.381 1_554 S
C4768 C4769 1.377 . S
C4769 H4753 0.924 . S
C4769 C4768 1.377 . S
C4769 C4770 1.379 1_565 S
C4770 H4754 0.931 . S
C4770 C4764 1.383 . S
C4770 C4769 1.379 1_545 S
H4771 C4765 0.959 . S
H4772 C4765 0.961 1_554 S
H4773 C4765 0.960 . S
H4774 C4766 0.972 . S
H4775 C4767 0.930 . S
H4776 C4784 0.929 . S
H4777 C4786 0.930 . S
H4778 C4788 0.930 . S
H4779 C4791 0.929 . S
H4780 C4794 0.930 . S
H4781 C4796 0.960 . S
H4782 C4796 0.960 . S
H4783 C4796 0.960 . S
C4784 H4776 0.929 . S
C4784 C4785 1.377 . S
C4784 C4786 1.384 . S
C4785 C4784 1.377 . S
C4785 C4791 1.390 . S
C4786 H4777 0.930 . S
C4786 C4784 1.384 . S
C4786 C4787 1.372 . S
C4787 C4786 1.372 . S
C4787 C4788 1.400 . S
C4787 C4792 1.490 . S
C4788 H4778 0.930 . S
C4788 C4787 1.400 . S
C4788 C4791 1.386 . S
H4789 C4805 0.930 . S
H4790 C4806 0.931 . S
C4791 H4779 0.929 . S
C4791 C4785 1.390 . S
C4791 C4788 1.386 . S
C4792 C4787 1.490 . S
C4792 C4794 1.395 . S
C4792 C4795 1.403 . S
H4793 C4799 0.930 . S
C4794 H4780 0.930 . S
C4794 C4792 1.395 . S
C4794 C4797 1.403 . S
C4795 C4792 1.403 . S
C4795 C4796 1.524 . S
C4795 C4799 1.400 . S
C4796 H4781 0.960 . S
C4796 H4782 0.960 . S
C4796 H4783 0.960 . S
C4796 C4795 1.524 . S
C4797 C4794 1.403 . S
C4797 C4798 1.392 . S
C4797 C4801 1.495 . S
C4798 C4797 1.392 . S
C4798 C4799 1.385 . S
C4798 C4800 1.478 . S
C4799 H4793 0.930 . S
C4799 C4795 1.400 . S
C4799 C4798 1.385 . S
C4800 C4798 1.478 . S
C4800 C4802 1.381 . S
C4800 C4806 1.383 . S
C4801 C4797 1.495 . S
C4801 H4807 0.959 . S
C4801 H4808 0.961 . S
C4801 H4809 0.960 . S
C4802 C4800 1.381 . S
C4802 C4803 1.394 . S
C4802 H4810 0.930 . S
C4803 C4802 1.394 . S
C4803 C4804 1.383 . S
C4803 H4811 0.929 . S
C4804 C4803 1.383 . S
C4804 C4805 1.377 . S
C4805 H4789 0.930 . S
C4805 C4804 1.377 . S
C4805 C4806 1.379 . S
C4806 H4790 0.931 . S
C4806 C4800 1.383 . S
C4806 C4805 1.379 . S
H4807 C4801 0.959 . S
H4808 C4801 0.961 . S
H4809 C4801 0.960 . S
H4810 C4802 0.930 . S
H4811 C4803 0.929 . S
H4812 C4820 0.929 . S
H4813 C4822 0.930 . S
H4814 C4824 0.930 . S
H4815 C4827 0.929 . S
H4816 C4830 0.930 . S
H4817 C4832 0.960 . S
H4818 C4832 0.960 . S
H4819 C4832 0.960 . S
C4820 H4812 0.929 . S
C4820 C4821 1.377 . S
C4820 C4822 1.384 . S
C4821 C4820 1.377 . S
C4821 C4827 1.390 . S
C4822 H4813 0.930 . S
C4822 C4820 1.384 . S
C4822 C4823 1.372 . S
C4823 C4822 1.372 . S
C4823 C4824 1.400 . S
C4823 C4828 1.490 . S
C4824 H4814 0.930 . S
C4824 C4823 1.400 . S
C4824 C4827 1.386 . S
H4825 C4841 0.930 . S
H4826 C4842 0.931 . S
C4827 H4815 0.929 . S
C4827 C4821 1.390 . S
C4827 C4824 1.386 . S
C4828 C4823 1.490 . S
C4828 C4830 1.395 . S
C4828 C4831 1.403 . S
H4829 C4835 0.930 . S
C4830 H4816 0.930 . S
C4830 C4828 1.395 . S
C4830 C4833 1.403 . S
C4831 C4828 1.403 . S
C4831 C4832 1.524 . S
C4831 C4835 1.400 . S
C4832 H4817 0.960 . S
C4832 H4818 0.960 . S
C4832 H4819 0.960 . S
C4832 C4831 1.524 . S
C4833 C4830 1.403 . S
C4833 C4834 1.392 . S
C4833 C4837 1.495 . S
C4834 C4833 1.392 . S
C4834 C4835 1.385 . S
C4834 C4836 1.478 . S
C4835 H4829 0.930 . S
C4835 C4831 1.400 . S
C4835 C4834 1.385 . S
C4836 C4834 1.478 . S
C4836 C4838 1.381 . S
C4836 C4842 1.383 . S
C4837 C4833 1.495 . S
C4837 H4843 0.959 . S
C4837 H4844 0.961 . S
C4837 H4845 0.960 . S
C4838 C4836 1.381 . S
C4838 C4839 1.394 . S
C4838 H4846 0.930 . S
C4839 C4838 1.394 . S
C4839 C4840 1.383 . S
C4839 H4847 0.929 . S
C4840 C4839 1.383 . S
C4840 C4841 1.377 . S
C4841 H4825 0.930 . S
C4841 C4840 1.377 . S
C4841 C4842 1.379 . S
C4842 H4826 0.931 . S
C4842 C4836 1.383 . S
C4842 C4841 1.379 . S
H4843 C4837 0.959 . S
H4844 C4837 0.961 . S
H4845 C4837 0.960 . S
H4846 C4838 0.930 . S
H4847 C4839 0.929 . S
H4848 C4856 0.929 . S
H4849 C4858 0.930 . S
H4850 C4860 0.930 . S
H4851 C4863 0.929 . S
H4852 C4866 0.930 . S
H4853 C4868 0.960 . S
H4854 C4868 0.960 . S
H4855 C4868 0.960 . S
C4856 H4848 0.929 . S
C4856 C4857 1.377 . S
C4856 C4858 1.384 . S
C4857 C4856 1.377 . S
C4857 C4863 1.390 . S
C4858 H4849 0.930 . S
C4858 C4856 1.384 . S
C4858 C4859 1.372 . S
C4859 C4858 1.372 . S
C4859 C4860 1.400 . S
C4859 C4864 1.490 . S
C4860 H4850 0.930 . S
C4860 C4859 1.400 . S
C4860 C4863 1.386 . S
H4861 C4877 0.930 . S
H4862 C4878 0.931 . S
C4863 H4851 0.929 . S
C4863 C4857 1.390 . S
C4863 C4860 1.386 . S
C4864 C4859 1.490 . S
C4864 C4866 1.395 . S
C4864 C4867 1.403 . S
H4865 C4871 0.930 . S
C4866 H4852 0.930 . S
C4866 C4864 1.395 . S
C4866 C4869 1.403 . S
C4867 C4864 1.403 . S
C4867 C4868 1.524 . S
C4867 C4871 1.400 . S
C4868 H4853 0.960 . S
C4868 H4854 0.960 . S
C4868 H4855 0.960 . S
C4868 C4867 1.524 . S
C4869 C4866 1.403 . S
C4869 C4870 1.392 . S
C4869 C4873 1.495 . S
C4870 C4869 1.392 . S
C4870 C4871 1.385 . S
C4870 C4872 1.478 . S
C4871 H4865 0.930 . S
C4871 C4867 1.400 . S
C4871 C4870 1.385 . S
C4872 C4870 1.478 . S
C4872 C4874 1.381 . S
C4872 C4878 1.383 . S
C4873 C4869 1.495 . S
C4873 H4879 0.959 . S
C4873 H4880 0.961 . S
C4873 H4881 0.960 . S
C4874 C4872 1.381 . S
C4874 C4875 1.394 . S
C4874 H4882 0.930 . S
C4875 C4874 1.394 . S
C4875 C4876 1.383 . S
C4875 H4883 0.929 . S
C4876 C4875 1.383 . S
C4876 C4877 1.377 . S
C4877 H4861 0.930 . S
C4877 C4876 1.377 . S
C4877 C4878 1.379 . S
C4878 H4862 0.931 . S
C4878 C4872 1.383 . S
C4878 C4877 1.379 . S
H4879 C4873 0.959 . S
H4880 C4873 0.961 . S
H4881 C4873 0.960 . S
H4882 C4874 0.930 . S
H4883 C4875 0.929 . S
H4884 C4892 0.929 . S
H4885 C4894 0.930 . S
H4886 C4896 0.930 . S
H4887 C4899 0.929 . S
H4888 C4902 0.930 . S
H4889 C4904 0.960 . S
H4890 C4904 0.960 . S
H4891 C4904 0.960 . S
C4892 H4884 0.929 . S
C4892 C4893 1.377 . S
C4892 C4894 1.384 . S
C4893 C4892 1.377 . S
C4893 C4899 1.390 . S
C4894 H4885 0.930 . S
C4894 C4892 1.384 . S
C4894 C4895 1.372 . S
C4895 C4894 1.372 . S
C4895 C4896 1.400 . S
C4895 C4900 1.490 . S
C4896 H4886 0.930 . S
C4896 C4895 1.400 . S
C4896 C4899 1.386 . S
H4897 C4913 0.930 . S
H4898 C4914 0.931 . S
C4899 H4887 0.929 . S
C4899 C4893 1.390 . S
C4899 C4896 1.386 . S
C4900 C4895 1.490 . S
C4900 C4902 1.395 . S
C4900 C4903 1.403 . S
H4901 C4907 0.930 . S
C4902 H4888 0.930 . S
C4902 C4900 1.395 . S
C4902 C4905 1.403 . S
C4903 C4900 1.403 . S
C4903 C4904 1.524 . S
C4903 C4907 1.400 . S
C4904 H4889 0.960 . S
C4904 H4890 0.960 . S
C4904 H4891 0.960 . S
C4904 C4903 1.524 . S
C4905 C4902 1.403 . S
C4905 C4906 1.392 . S
C4905 C4909 1.495 . S
C4906 C4905 1.392 . S
C4906 C4907 1.385 . S
C4906 C4908 1.478 . S
C4907 H4901 0.930 . S
C4907 C4903 1.400 . S
C4907 C4906 1.385 . S
C4908 C4906 1.478 . S
C4908 C4910 1.381 . S
C4908 C4914 1.383 1_655 S
C4909 C4905 1.495 . S
C4909 H4915 0.959 . S
C4909 H4916 0.961 . S
C4909 H4917 0.960 . S
C4910 C4908 1.381 . S
C4910 C4911 1.395 1_656 S
C4910 H4918 0.930 . S
C4911 C4910 1.395 1_454 S
C4911 C4912 1.384 . S
C4911 H4919 0.928 1_455 S
C4912 C4911 1.384 . S
C4912 C4913 1.377 . S
C4913 H4897 0.930 . S
C4913 C4912 1.377 . S
C4913 C4914 1.379 1_554 S
C4914 H4898 0.931 . S
C4914 C4908 1.383 1_455 S
C4914 C4913 1.379 1_556 S
H4915 C4909 0.959 . S
H4916 C4909 0.961 . S
H4917 C4909 0.960 . S
H4918 C4910 0.930 . S
H4919 C4911 0.928 1_655 S
H4920 C4928 0.929 . S
H4921 C4930 0.930 . S
H4922 C4932 0.930 . S
H4923 C4935 0.929 1_556 S
H4924 C4938 0.930 . S
H4925 C4940 0.960 . S
H4926 C4940 0.960 . S
H4927 C4940 0.960 . S
C4928 H4920 0.929 . S
C4928 C4929 1.377 1_554 S
C4928 C4930 1.384 . S
C4929 C4928 1.377 1_556 S
C4929 C4935 1.390 1_556 S
C4930 H4921 0.930 . S
C4930 C4928 1.384 . S
C4930 C4931 1.372 . S
C4931 C4930 1.372 . S
C4931 C4932 1.400 . S
C4931 C4936 1.490 . S
C4932 H4922 0.930 . S
C4932 C4931 1.400 . S
C4932 C4935 1.386 . S
H4933 C4949 0.930 . S
H4934 C4950 0.931 . S
C4935 H4923 0.929 1_554 S
C4935 C4929 1.390 1_554 S
C4935 C4932 1.386 . S
C4936 C4931 1.490 . S
C4936 C4938 1.395 . S
C4936 C4939 1.403 . S
H4937 C4943 0.930 . S
C4938 H4924 0.930 . S
C4938 C4936 1.395 . S
C4938 C4941 1.403 . S
C4939 C4936 1.403 . S
C4939 C4940 1.524 . S
C4939 C4943 1.400 . S
C4940 H4925 0.960 . S
C4940 H4926 0.960 . S
C4940 H4927 0.960 . S
C4940 C4939 1.524 . S
C4941 C4938 1.403 . S
C4941 C4942 1.392 . S
C4941 C4945 1.495 . S
C4942 C4941 1.392 . S
C4942 C4943 1.385 . S
C4942 C4944 1.478 . S
C4943 H4937 0.930 . S
C4943 C4939 1.400 . S
C4943 C4942 1.385 . S
C4944 C4942 1.478 . S
C4944 C4946 1.381 . S
C4944 C4950 1.383 . S
C4945 C4941 1.495 . S
C4945 H4951 0.959 . S
C4945 H4952 0.961 . S
C4945 H4953 0.960 . S
C4946 C4944 1.381 . S
C4946 C4947 1.394 . S
C4946 H4954 0.930 . S
C4947 C4946 1.394 . S
C4947 C4948 1.383 . S
C4947 H4955 0.929 . S
C4948 C4947 1.383 . S
C4948 C4949 1.377 . S
C4949 H4933 0.930 . S
C4949 C4948 1.377 . S
C4949 C4950 1.379 . S
C4950 H4934 0.931 . S
C4950 C4944 1.383 . S
C4950 C4949 1.379 . S
H4951 C4945 0.959 . S
H4952 C4945 0.961 . S
H4953 C4945 0.960 . S
H4954 C4946 0.930 . S
H4955 C4947 0.929 . S
H4956 C4964 0.929 . S
H4957 C4966 0.930 . S
H4958 C4968 0.930 . S
H4959 C4971 0.929 . S
H4960 C4974 0.930 . S
H4961 C4976 0.960 . S
H4962 C4976 0.960 . S
H4963 C4976 0.960 . S
C4964 H4956 0.929 . S
C4964 C4965 1.377 . S
C4964 C4966 1.384 . S
C4965 C4964 1.377 . S
C4965 C4971 1.390 . S
C4966 H4957 0.930 . S
C4966 C4964 1.384 . S
C4966 C4967 1.372 . S
C4967 C4966 1.372 . S
C4967 C4968 1.400 . S
C4967 C4972 1.490 . S
C4968 H4958 0.930 . S
C4968 C4967 1.400 . S
C4968 C4971 1.386 . S
H4969 C4985 0.930 . S
H4970 C4986 0.931 . S
C4971 H4959 0.929 . S
C4971 C4965 1.390 . S
C4971 C4968 1.386 . S
C4972 C4967 1.490 . S
C4972 C4974 1.395 . S
C4972 C4975 1.403 . S
H4973 C4979 0.930 . S
C4974 H4960 0.930 . S
C4974 C4972 1.395 . S
C4974 C4977 1.403 . S
C4975 C4972 1.403 . S
C4975 C4976 1.524 . S
C4975 C4979 1.400 . S
C4976 H4961 0.960 . S
C4976 H4962 0.960 . S
C4976 H4963 0.960 . S
C4976 C4975 1.524 . S
C4977 C4974 1.403 . S
C4977 C4978 1.392 . S
C4977 C4981 1.495 . S
C4978 C4977 1.392 . S
C4978 C4979 1.385 . S
C4978 C4980 1.478 . S
C4979 H4973 0.930 . S
C4979 C4975 1.400 . S
C4979 C4978 1.385 . S
C4980 C4978 1.478 . S
C4980 C4982 1.381 . S
C4980 C4986 1.383 . S
C4981 C4977 1.495 . S
C4981 H4987 0.959 . S
C4981 H4988 0.961 . S
C4981 H4989 0.960 . S
C4982 C4980 1.381 . S
C4982 C4983 1.394 . S
C4982 H4990 0.930 . S
C4983 C4982 1.394 . S
C4983 C4984 1.383 . S
C4983 H4991 0.929 . S
C4984 C4983 1.383 . S
C4984 C4985 1.377 . S
C4985 H4969 0.930 . S
C4985 C4984 1.377 . S
C4985 C4986 1.379 . S
C4986 H4970 0.931 . S
C4986 C4980 1.383 . S
C4986 C4985 1.379 . S
H4987 C4981 0.959 . S
H4988 C4981 0.961 . S
H4989 C4981 0.960 . S
H4990 C4982 0.930 . S
H4991 C4983 0.929 . S
H4992 C5000 0.929 . S
H4993 C5002 0.930 . S
H4994 C5004 0.930 . S
H4995 C5007 0.929 . S
H4996 C5010 0.930 . S
H4997 C5012 0.960 . S
H4998 C5012 0.960 . S
H4999 C5012 0.960 . S
C5000 H4992 0.929 . S
C5000 C5001 1.377 . S
C5000 C5002 1.384 . S
C5001 C5000 1.377 . S
C5001 C5007 1.390 . S
C5002 H4993 0.930 . S
C5002 C5000 1.384 . S
C5002 C5003 1.372 . S
C5003 C5002 1.372 . S
C5003 C5004 1.400 . S
C5003 C5008 1.490 . S
C5004 H4994 0.930 . S
C5004 C5003 1.400 . S
C5004 C5007 1.386 . S
H5005 C5021 0.930 . S
H5006 C5022 0.931 . S
C5007 H4995 0.929 . S
C5007 C5001 1.390 . S
C5007 C5004 1.386 . S
C5008 C5003 1.490 . S
C5008 C5010 1.395 . S
C5008 C5011 1.403 1_554 S
H5009 C5015 0.930 . S
C5010 H4996 0.930 . S
C5010 C5008 1.395 . S
C5010 C5013 1.403 . S
C5011 C5008 1.403 1_556 S
C5011 C5012 1.524 . S
C5011 C5015 1.400 . S
C5012 H4997 0.960 . S
C5012 H4998 0.960 . S
C5012 H4999 0.960 . S
C5012 C5011 1.524 . S
C5013 C5010 1.403 . S
C5013 C5014 1.392 . S
C5013 C5017 1.495 . S
C5014 C5013 1.392 . S
C5014 C5015 1.385 1_554 S
C5014 C5016 1.478 1_554 S
C5015 H5009 0.930 . S
C5015 C5011 1.400 . S
C5015 C5014 1.385 1_556 S
C5016 C5014 1.478 1_556 S
C5016 C5018 1.381 . S
C5016 C5022 1.383 . S
C5017 C5013 1.495 . S
C5017 H5023 0.959 . S
C5017 H5024 0.961 . S
C5017 H5025 0.960 . S
C5018 C5016 1.381 . S
C5018 C5019 1.394 . S
C5018 H5026 0.930 . S
C5019 C5018 1.394 . S
C5019 C5020 1.383 . S
C5019 H5027 0.929 . S
C5020 C5019 1.383 . S
C5020 C5021 1.377 . S
C5021 H5005 0.930 . S
C5021 C5020 1.377 . S
C5021 C5022 1.379 . S
C5022 H5006 0.931 . S
C5022 C5016 1.383 . S
C5022 C5021 1.379 . S
H5023 C5017 0.959 . S
H5024 C5017 0.961 . S
H5025 C5017 0.960 . S
H5026 C5018 0.930 . S
H5027 C5019 0.929 . S
H5028 C5036 0.929 . S
H5029 C5038 0.930 . S
H5030 C5040 0.930 . S
H5031 C5043 0.929 . S
H5032 C5046 0.930 . S
H5033 C5048 0.960 . S
H5034 C5048 0.960 . S
H5035 C5048 0.960 . S
C5036 H5028 0.929 . S
C5036 C5037 1.377 . S
C5036 C5038 1.384 . S
C5037 C5036 1.377 . S
C5037 C5043 1.390 . S
C5038 H5029 0.930 . S
C5038 C5036 1.384 . S
C5038 C5039 1.372 . S
C5039 C5038 1.372 . S
C5039 C5040 1.400 . S
C5039 C5044 1.490 . S
C5040 H5030 0.930 . S
C5040 C5039 1.400 . S
C5040 C5043 1.386 . S
H5041 C5057 0.930 . S
H5042 C5058 0.931 . S
C5043 H5031 0.929 . S
C5043 C5037 1.390 . S
C5043 C5040 1.386 . S
C5044 C5039 1.490 . S
C5044 C5046 1.395 . S
C5044 C5047 1.403 . S
H5045 C5051 0.930 . S
C5046 H5032 0.930 . S
C5046 C5044 1.395 . S
C5046 C5049 1.403 . S
C5047 C5044 1.403 . S
C5047 C5048 1.524 . S
C5047 C5051 1.400 . S
C5048 H5033 0.960 . S
C5048 H5034 0.960 . S
C5048 H5035 0.960 . S
C5048 C5047 1.524 . S
C5049 C5046 1.403 . S
C5049 C5050 1.392 . S
C5049 C5053 1.495 . S
C5050 C5049 1.392 . S
C5050 C5051 1.385 . S
C5050 C5052 1.478 . S
C5051 H5045 0.930 . S
C5051 C5047 1.400 . S
C5051 C5050 1.385 . S
C5052 C5050 1.478 . S
C5052 C5054 1.381 . S
C5052 C5058 1.383 . S
C5053 C5049 1.495 . S
C5053 H5059 0.959 . S
C5053 H5060 0.961 . S
C5053 H5061 0.960 . S
C5054 C5052 1.381 . S
C5054 C5055 1.394 . S
C5054 H5062 0.930 . S
C5055 C5054 1.394 . S
C5055 C5056 1.383 . S
C5055 H5063 0.929 . S
C5056 C5055 1.383 . S
C5056 C5057 1.377 . S
C5057 H5041 0.930 . S
C5057 C5056 1.377 . S
C5057 C5058 1.379 . S
C5058 H5042 0.931 . S
C5058 C5052 1.383 . S
C5058 C5057 1.379 . S
H5059 C5053 0.959 . S
H5060 C5053 0.961 . S
H5061 C5053 0.960 . S
H5062 C5054 0.930 . S
H5063 C5055 0.929 . S
H5064 C5072 0.929 . S
H5065 C5074 0.930 . S
H5066 C5076 0.930 . S
H5067 C5079 0.929 . S
H5068 C5082 0.930 . S
H5069 C5084 0.960 . S
H5070 C5084 0.960 . S
H5071 C5084 0.960 . S
C5072 H5064 0.929 . S
C5072 C5073 1.377 . S
C5072 C5074 1.384 . S
C5073 C5072 1.377 . S
C5073 C5079 1.390 . S
C5074 H5065 0.930 . S
C5074 C5072 1.384 . S
C5074 C5075 1.372 . S
C5075 C5074 1.372 . S
C5075 C5076 1.400 . S
C5075 C5080 1.490 . S
C5076 H5066 0.930 . S
C5076 C5075 1.400 . S
C5076 C5079 1.386 . S
H5077 C5093 0.930 . S
H5078 C5094 0.931 . S
C5079 H5067 0.929 . S
C5079 C5073 1.390 . S
C5079 C5076 1.386 . S
C5080 C5075 1.490 . S
C5080 C5082 1.395 . S
C5080 C5083 1.403 . S
H5081 C5087 0.930 . S
C5082 H5068 0.930 . S
C5082 C5080 1.395 . S
C5082 C5085 1.403 . S
C5083 C5080 1.403 . S
C5083 C5084 1.524 . S
C5083 C5087 1.400 . S
C5084 H5069 0.960 . S
C5084 H5070 0.960 . S
C5084 H5071 0.960 . S
C5084 C5083 1.524 . S
C5085 C5082 1.403 . S
C5085 C5086 1.392 . S
C5085 C5089 1.495 . S
C5086 C5085 1.392 . S
C5086 C5087 1.385 . S
C5086 C5088 1.478 . S
C5087 H5081 0.930 . S
C5087 C5083 1.400 . S
C5087 C5086 1.385 . S
C5088 C5086 1.478 . S
C5088 C5090 1.381 . S
C5088 C5094 1.383 . S
C5089 C5085 1.495 . S
C5089 H5095 0.959 . S
C5089 H5096 0.961 . S
C5089 H5097 0.960 . S
C5090 C5088 1.381 . S
C5090 C5091 1.394 . S
C5090 H5098 0.930 . S
C5091 C5090 1.394 . S
C5091 C5092 1.383 . S
C5091 H5099 0.929 . S
C5092 C5091 1.383 . S
C5092 C5093 1.377 . S
C5093 H5077 0.930 . S
C5093 C5092 1.377 . S
C5093 C5094 1.379 . S
C5094 H5078 0.931 . S
C5094 C5088 1.383 . S
C5094 C5093 1.379 . S
H5095 C5089 0.959 . S
H5096 C5089 0.961 . S
H5097 C5089 0.960 . S
H5098 C5090 0.930 . S
H5099 C5091 0.929 . S
H5100 C5108 0.929 . S
H5101 C5110 0.930 . S
H5102 C5112 0.930 . S
H5103 C5115 0.929 . S
H5104 C5118 0.930 . S
H5105 C5120 0.960 1_455 S
H5106 C5120 0.960 . S
H5107 C5120 0.960 . S
C5108 H5100 0.929 . S
C5108 C5109 1.377 . S
C5108 C5110 1.384 . S
C5109 C5108 1.377 . S
C5109 C5115 1.390 . S
C5110 H5101 0.930 . S
C5110 C5108 1.384 . S
C5110 C5111 1.372 . S
C5111 C5110 1.372 . S
C5111 C5112 1.400 . S
C5111 C5116 1.490 . S
C5112 H5102 0.930 . S
C5112 C5111 1.400 . S
C5112 C5115 1.386 . S
H5113 C5129 0.930 . S
H5114 C5130 0.931 . S
C5115 H5103 0.929 . S
C5115 C5109 1.390 . S
C5115 C5112 1.386 . S
C5116 C5111 1.490 . S
C5116 C5118 1.395 . S
C5116 C5119 1.403 . S
H5117 C5123 0.930 . S
C5118 H5104 0.930 . S
C5118 C5116 1.395 . S
C5118 C5121 1.403 . S
C5119 C5116 1.403 . S
C5119 C5120 1.524 . S
C5119 C5123 1.400 . S
C5120 H5105 0.960 1_655 S
C5120 H5106 0.960 . S
C5120 H5107 0.960 . S
C5120 C5119 1.524 . S
C5121 C5118 1.403 . S
C5121 C5122 1.392 . S
C5121 C5125 1.495 . S
C5122 C5121 1.392 . S
C5122 C5123 1.385 . S
C5122 C5124 1.478 . S
C5123 H5117 0.930 . S
C5123 C5119 1.400 . S
C5123 C5122 1.385 . S
C5124 C5122 1.478 . S
C5124 C5126 1.381 . S
C5124 C5130 1.383 . S
C5125 C5121 1.495 . S
C5125 H5131 0.959 . S
C5125 H5132 0.961 . S
C5125 H5133 0.960 . S
C5126 C5124 1.381 . S
C5126 C5127 1.394 . S
C5126 H5134 0.930 . S
C5127 C5126 1.394 . S
C5127 C5128 1.383 . S
C5127 H5135 0.929 . S
C5128 C5127 1.383 . S
C5128 C5129 1.377 . S
C5129 H5113 0.930 . S
C5129 C5128 1.377 . S
C5129 C5130 1.379 . S
C5130 H5114 0.931 . S
C5130 C5124 1.383 . S
C5130 C5129 1.379 . S
H5131 C5125 0.959 . S
H5132 C5125 0.961 . S
H5133 C5125 0.960 . S
H5134 C5126 0.930 . S
H5135 C5127 0.929 . S
H5136 C5144 0.929 . S
H5137 C5146 0.930 . S
H5138 C5148 0.930 . S
H5139 C5151 0.929 . S
H5140 C5154 0.930 . S
H5141 C5156 0.960 . S
H5142 C5156 0.960 . S
H5143 C5156 0.960 . S
C5144 H5136 0.929 . S
C5144 C5145 1.377 . S
C5144 C5146 1.384 . S
C5145 C5144 1.377 . S
C5145 C5151 1.390 . S
C5146 H5137 0.930 . S
C5146 C5144 1.384 . S
C5146 C5147 1.372 . S
C5147 C5146 1.372 . S
C5147 C5148 1.400 . S
C5147 C5152 1.490 . S
C5148 H5138 0.930 . S
C5148 C5147 1.400 . S
C5148 C5151 1.386 . S
H5149 C5165 0.930 . S
H5150 C5166 0.931 . S
C5151 H5139 0.929 . S
C5151 C5145 1.390 . S
C5151 C5148 1.386 . S
C5152 C5147 1.490 . S
C5152 C5154 1.395 . S
C5152 C5155 1.403 . S
H5153 C5159 0.930 . S
C5154 H5140 0.930 . S
C5154 C5152 1.395 . S
C5154 C5157 1.403 . S
C5155 C5152 1.403 . S
C5155 C5156 1.524 . S
C5155 C5159 1.400 . S
C5156 H5141 0.960 . S
C5156 H5142 0.960 . S
C5156 H5143 0.960 . S
C5156 C5155 1.524 . S
C5157 C5154 1.403 . S
C5157 C5158 1.392 . S
C5157 C5161 1.495 . S
C5158 C5157 1.392 . S
C5158 C5159 1.385 . S
C5158 C5160 1.478 . S
C5159 H5153 0.930 . S
C5159 C5155 1.400 . S
C5159 C5158 1.385 . S
C5160 C5158 1.478 . S
C5160 C5162 1.381 . S
C5160 C5166 1.383 . S
C5161 C5157 1.495 . S
C5161 H5167 0.959 . S
C5161 H5168 0.961 . S
C5161 H5169 0.960 . S
C5162 C5160 1.381 . S
C5162 C5163 1.394 . S
C5162 H5170 0.930 . S
C5163 C5162 1.394 . S
C5163 C5164 1.383 . S
C5163 H5171 0.929 . S
C5164 C5163 1.383 . S
C5164 C5165 1.377 . S
C5165 H5149 0.930 . S
C5165 C5164 1.377 . S
C5165 C5166 1.379 . S
C5166 H5150 0.931 . S
C5166 C5160 1.383 . S
C5166 C5165 1.379 . S
H5167 C5161 0.959 . S
H5168 C5161 0.961 . S
H5169 C5161 0.960 . S
H5170 C5162 0.930 . S
H5171 C5163 0.929 . S
H5172 C5180 0.929 . S
H5173 C5182 0.930 . S
H5174 C5184 0.930 . S
H5175 C5187 0.929 . S
H5176 C5190 0.930 . S
H5177 C5192 0.960 . S
H5178 C5192 0.960 . S
H5179 C5192 0.960 . S
C5180 H5172 0.929 . S
C5180 C5181 1.377 1_455 S
C5180 C5182 1.384 . S
C5181 C5180 1.377 1_655 S
C5181 C5187 1.390 . S
C5182 H5173 0.930 . S
C5182 C5180 1.384 . S
C5182 C5183 1.372 . S
C5183 C5182 1.372 . S
C5183 C5184 1.400 . S
C5183 C5188 1.490 . S
C5184 H5174 0.930 . S
C5184 C5183 1.400 . S
C5184 C5187 1.386 1_455 S
H5185 C5201 0.930 . S
H5186 C5202 0.931 . S
C5187 H5175 0.929 . S
C5187 C5181 1.390 . S
C5187 C5184 1.386 1_655 S
C5188 C5183 1.490 . S
C5188 C5190 1.395 . S
C5188 C5191 1.403 . S
H5189 C5195 0.930 . S
C5190 H5176 0.930 . S
C5190 C5188 1.395 . S
C5190 C5193 1.403 . S
C5191 C5188 1.403 . S
C5191 C5192 1.524 . S
C5191 C5195 1.400 . S
C5192 H5177 0.960 . S
C5192 H5178 0.960 . S
C5192 H5179 0.960 . S
C5192 C5191 1.524 . S
C5193 C5190 1.403 . S
C5193 C5194 1.392 . S
C5193 C5197 1.495 . S
C5194 C5193 1.392 . S
C5194 C5195 1.385 . S
C5194 C5196 1.478 . S
C5195 H5189 0.930 . S
C5195 C5191 1.400 . S
C5195 C5194 1.385 . S
C5196 C5194 1.478 . S
C5196 C5198 1.381 . S
C5196 C5202 1.383 . S
C5197 C5193 1.495 . S
C5197 H5203 0.959 . S
C5197 H5204 0.961 . S
C5197 H5205 0.960 . S
C5198 C5196 1.381 . S
C5198 C5199 1.394 . S
C5198 H5206 0.930 . S
C5199 C5198 1.394 . S
C5199 C5200 1.383 . S
C5199 H5207 0.929 . S
C5200 C5199 1.383 . S
C5200 C5201 1.377 . S
C5201 H5185 0.930 . S
C5201 C5200 1.377 . S
C5201 C5202 1.379 . S
C5202 H5186 0.931 . S
C5202 C5196 1.383 . S
C5202 C5201 1.379 . S
H5203 C5197 0.959 . S
H5204 C5197 0.961 . S
H5205 C5197 0.960 . S
H5206 C5198 0.930 . S
H5207 C5199 0.929 . S
H5208 C5216 0.929 . S
H5209 C5218 0.930 . S
H5210 C5220 0.930 . S
H5211 C5223 0.929 . S
H5212 C5226 0.930 . S
H5213 C5228 0.960 . S
H5214 C5228 0.960 . S
H5215 C5228 0.960 . S
C5216 H5208 0.929 . S
C5216 C5217 1.377 . S
C5216 C5218 1.384 . S
C5217 C5216 1.377 . S
C5217 C5223 1.390 . S
C5218 H5209 0.930 . S
C5218 C5216 1.384 . S
C5218 C5219 1.372 . S
C5219 C5218 1.372 . S
C5219 C5220 1.400 . S
C5219 C5224 1.490 . S
C5220 H5210 0.930 . S
C5220 C5219 1.400 . S
C5220 C5223 1.386 . S
H5221 C5237 0.930 1_556 S
H5222 C5238 0.931 . S
C5223 H5211 0.929 . S
C5223 C5217 1.390 . S
C5223 C5220 1.386 . S
C5224 C5219 1.490 . S
C5224 C5226 1.395 . S
C5224 C5227 1.403 . S
H5225 C5231 0.930 . S
C5226 H5212 0.930 . S
C5226 C5224 1.395 . S
C5226 C5229 1.403 . S
C5227 C5224 1.403 . S
C5227 C5228 1.524 . S
C5227 C5231 1.400 . S
C5228 H5213 0.960 . S
C5228 H5214 0.960 . S
C5228 H5215 0.960 . S
C5228 C5227 1.524 . S
C5229 C5226 1.403 . S
C5229 C5230 1.392 . S
C5229 C5233 1.495 . S
C5230 C5229 1.392 . S
C5230 C5231 1.385 . S
C5230 C5232 1.478 . S
C5231 H5225 0.930 . S
C5231 C5227 1.400 . S
C5231 C5230 1.385 . S
C5232 C5230 1.478 . S
C5232 C5234 1.387 1_556 S
C5232 C5238 1.383 . S
C5233 C5229 1.495 . S
C5233 H5239 0.959 . S
C5233 H5240 0.961 1_565 S
C5233 H5241 0.960 1_565 S
C5234 C5232 1.387 1_554 S
C5234 C5235 1.372 1_565 S
C5234 H5242 0.956 1_565 S
C5235 C5234 1.372 1_545 S
C5235 C5236 1.383 . S
C5235 H5243 0.929 . S
C5236 C5235 1.383 . S
C5236 C5237 1.377 1_545 S
C5237 H5221 0.930 1_554 S
C5237 C5236 1.377 1_565 S
C5237 C5238 1.379 1_554 S
C5238 H5222 0.931 . S
C5238 C5232 1.383 . S
C5238 C5237 1.379 1_556 S
H5239 C5233 0.959 . S
H5240 C5233 0.961 1_545 S
H5241 C5233 0.960 1_545 S
H5242 C5234 0.956 1_545 S
H5243 C5235 0.929 . S
H5244 C5252 0.929 . S
H5245 C5254 0.930 . S
H5246 C5256 0.930 . S
H5247 C5259 0.929 . S
H5248 C5262 0.930 . S
H5249 C5264 0.960 . S
H5250 C5264 0.960 . S
H5251 C5264 0.960 . S
C5252 H5244 0.929 . S
C5252 C5253 1.377 . S
C5252 C5254 1.384 . S
C5253 C5252 1.377 . S
C5253 C5259 1.390 . S
C5254 H5245 0.930 . S
C5254 C5252 1.384 . S
C5254 C5255 1.372 . S
C5255 C5254 1.372 . S
C5255 C5256 1.400 . S
C5255 C5260 1.490 . S
C5256 H5246 0.930 . S
C5256 C5255 1.400 . S
C5256 C5259 1.386 . S
H5257 C5273 0.930 . S
H5258 C5274 0.931 . S
C5259 H5247 0.929 . S
C5259 C5253 1.390 . S
C5259 C5256 1.386 . S
C5260 C5255 1.490 . S
C5260 C5262 1.395 . S
C5260 C5263 1.403 . S
H5261 C5267 0.930 . S
C5262 H5248 0.930 . S
C5262 C5260 1.395 . S
C5262 C5265 1.403 . S
C5263 C5260 1.403 . S
C5263 C5264 1.524 . S
C5263 C5267 1.400 . S
C5264 H5249 0.960 . S
C5264 H5250 0.960 . S
C5264 H5251 0.960 . S
C5264 C5263 1.524 . S
C5265 C5262 1.403 . S
C5265 C5266 1.392 . S
C5265 C5269 1.495 . S
C5266 C5265 1.392 . S
C5266 C5267 1.385 . S
C5266 C5268 1.478 . S
C5267 H5261 0.930 . S
C5267 C5263 1.400 . S
C5267 C5266 1.385 . S
C5268 C5266 1.478 . S
C5268 C5270 1.381 . S
C5268 C5274 1.383 . S
C5269 C5265 1.495 . S
C5269 H5275 0.959 . S
C5269 H5276 0.961 . S
C5269 H5277 0.960 . S
C5270 C5268 1.381 . S
C5270 C5271 1.394 . S
C5270 H5278 0.930 . S
C5271 C5270 1.394 . S
C5271 C5272 1.383 . S
C5271 H5279 0.929 . S
C5272 C5271 1.383 . S
C5272 C5273 1.377 . S
C5273 H5257 0.930 . S
C5273 C5272 1.377 . S
C5273 C5274 1.379 . S
C5274 H5258 0.931 . S
C5274 C5268 1.383 . S
C5274 C5273 1.379 . S
H5275 C5269 0.959 . S
H5276 C5269 0.961 . S
H5277 C5269 0.960 . S
H5278 C5270 0.930 . S
H5279 C5271 0.929 . S
H5280 C5288 0.929 . S
H5281 C5290 0.930 . S
H5282 C5292 0.930 . S
H5283 C5295 0.929 . S
H5284 C5298 0.930 . S
H5285 C5300 0.960 . S
H5286 C5300 0.960 . S
H5287 C5300 0.960 . S
C5288 H5280 0.929 . S
C5288 C5289 1.377 . S
C5288 C5290 1.384 . S
C5289 C5288 1.377 . S
C5289 C5295 1.390 . S
C5290 H5281 0.930 . S
C5290 C5288 1.384 . S
C5290 C5291 1.372 . S
C5291 C5290 1.372 . S
C5291 C5292 1.400 . S
C5291 C5296 1.490 . S
C5292 H5282 0.930 . S
C5292 C5291 1.400 . S
C5292 C5295 1.386 . S
H5293 C5309 0.930 . S
H5294 C5310 0.931 . S
C5295 H5283 0.929 . S
C5295 C5289 1.390 . S
C5295 C5292 1.386 . S
C5296 C5291 1.490 . S
C5296 C5298 1.395 . S
C5296 C5299 1.403 . S
H5297 C5303 0.930 . S
C5298 H5284 0.930 . S
C5298 C5296 1.395 . S
C5298 C5301 1.403 . S
C5299 C5296 1.403 . S
C5299 C5300 1.524 . S
C5299 C5303 1.400 . S
C5300 H5285 0.960 . S
C5300 H5286 0.960 . S
C5300 H5287 0.960 . S
C5300 C5299 1.524 . S
C5301 C5298 1.403 . S
C5301 C5302 1.392 . S
C5301 C5305 1.495 1_556 S
C5302 C5301 1.392 . S
C5302 C5303 1.385 . S
C5302 C5304 1.478 . S
C5303 H5297 0.930 . S
C5303 C5299 1.400 . S
C5303 C5302 1.385 . S
C5304 C5302 1.478 . S
C5304 C5306 1.381 . S
C5304 C5310 1.383 . S
C5305 C5301 1.495 1_554 S
C5305 H5311 0.959 . S
C5305 H5312 0.961 . S
C5305 H5313 0.960 . S
C5306 C5304 1.381 . S
C5306 C5307 1.394 . S
C5306 H5314 0.930 . S
C5307 C5306 1.394 . S
C5307 C5308 1.383 . S
C5307 H5315 0.929 . S
C5308 C5307 1.383 . S
C5308 C5309 1.377 . S
C5309 H5293 0.930 . S
C5309 C5308 1.377 . S
C5309 C5310 1.379 . S
C5310 H5294 0.931 . S
C5310 C5304 1.383 . S
C5310 C5309 1.379 . S
H5311 C5305 0.959 . S
H5312 C5305 0.961 . S
H5313 C5305 0.960 . S
H5314 C5306 0.930 . S
H5315 C5307 0.929 . S
H5316 C5324 0.929 . S
H5317 C5326 0.930 . S
H5318 C5328 0.930 . S
H5319 C5331 0.929 . S
H5320 C5334 0.930 . S
H5321 C5336 0.960 . S
H5322 C5336 0.960 . S
H5323 C5336 0.960 . S
C5324 H5316 0.929 . S
C5324 C5325 1.377 . S
C5324 C5326 1.384 . S
C5325 C5324 1.377 . S
C5325 C5331 1.390 . S
C5326 H5317 0.930 . S
C5326 C5324 1.384 . S
C5326 C5327 1.372 . S
C5327 C5326 1.372 . S
C5327 C5328 1.400 . S
C5327 C5332 1.490 . S
C5328 H5318 0.930 . S
C5328 C5327 1.400 . S
C5328 C5331 1.386 . S
H5329 C5345 0.930 . S
H5330 C5346 0.931 . S
C5331 H5319 0.929 . S
C5331 C5325 1.390 . S
C5331 C5328 1.386 . S
C5332 C5327 1.490 . S
C5332 C5334 1.395 . S
C5332 C5335 1.403 . S
H5333 C5339 0.930 . S
C5334 H5320 0.930 . S
C5334 C5332 1.395 . S
C5334 C5337 1.403 . S
C5335 C5332 1.403 . S
C5335 C5336 1.524 . S
C5335 C5339 1.400 . S
C5336 H5321 0.960 . S
C5336 H5322 0.960 . S
C5336 H5323 0.960 . S
C5336 C5335 1.524 . S
C5337 C5334 1.403 . S
C5337 C5338 1.392 . S
C5337 C5341 1.495 . S
C5338 C5337 1.392 . S
C5338 C5339 1.385 . S
C5338 C5340 1.478 . S
C5339 H5333 0.930 . S
C5339 C5335 1.400 . S
C5339 C5338 1.385 . S
C5340 C5338 1.478 . S
C5340 C5342 1.381 . S
C5340 C5346 1.383 . S
C5341 C5337 1.495 . S
C5341 H5347 0.959 . S
C5341 H5348 0.961 . S
C5341 H5349 0.960 . S
C5342 C5340 1.381 . S
C5342 C5343 1.394 . S
C5342 H5350 0.930 . S
C5343 C5342 1.394 . S
C5343 C5344 1.383 . S
C5343 H5351 0.929 . S
C5344 C5343 1.383 . S
C5344 C5345 1.377 . S
C5345 H5329 0.930 . S
C5345 C5344 1.377 . S
C5345 C5346 1.379 . S
C5346 H5330 0.931 . S
C5346 C5340 1.383 . S
C5346 C5345 1.379 . S
H5347 C5341 0.959 . S
H5348 C5341 0.961 . S
H5349 C5341 0.960 . S
H5350 C5342 0.930 . S
H5351 C5343 0.929 . S
H5352 C5360 0.929 . S
H5353 C5362 0.930 . S
H5354 C5364 0.930 . S
H5355 C5367 0.929 . S
H5356 C5370 0.930 . S
H5357 C5372 0.960 . S
H5358 C5372 0.960 . S
H5359 C5372 0.960 . S
C5360 H5352 0.929 . S
C5360 C5361 1.377 . S
C5360 C5362 1.384 . S
C5361 C5360 1.377 . S
C5361 C5367 1.390 . S
C5362 H5353 0.930 . S
C5362 C5360 1.384 . S
C5362 C5363 1.372 . S
C5363 C5362 1.372 . S
C5363 C5364 1.400 . S
C5363 C5368 1.490 . S
C5364 H5354 0.930 . S
C5364 C5363 1.400 . S
C5364 C5367 1.386 . S
H5365 C5381 0.930 . S
H5366 C5382 0.931 . S
C5367 H5355 0.929 . S
C5367 C5361 1.390 . S
C5367 C5364 1.386 . S
C5368 C5363 1.490 . S
C5368 C5370 1.395 . S
C5368 C5371 1.403 . S
H5369 C5375 0.930 . S
C5370 H5356 0.930 . S
C5370 C5368 1.395 . S
C5370 C5373 1.403 . S
C5371 C5368 1.403 . S
C5371 C5372 1.524 . S
C5371 C5375 1.400 . S
C5372 H5357 0.960 . S
C5372 H5358 0.960 . S
C5372 H5359 0.960 . S
C5372 C5371 1.524 . S
C5373 C5370 1.403 . S
C5373 C5374 1.392 . S
C5373 C5377 1.495 . S
C5374 C5373 1.392 . S
C5374 C5375 1.385 . S
C5374 C5376 1.478 . S
C5375 H5369 0.930 . S
C5375 C5371 1.400 . S
C5375 C5374 1.385 . S
C5376 C5374 1.478 . S
C5376 C5378 1.381 . S
C5376 C5382 1.383 . S
C5377 C5373 1.495 . S
C5377 H5383 0.959 . S
C5377 H5384 0.961 . S
C5377 H5385 0.960 . S
C5378 C5376 1.381 . S
C5378 C5379 1.394 . S
C5378 H5386 0.930 . S
C5379 C5378 1.394 . S
C5379 C5380 1.383 . S
C5379 H5387 0.929 . S
C5380 C5379 1.383 . S
C5380 C5381 1.377 . S
C5381 H5365 0.930 . S
C5381 C5380 1.377 . S
C5381 C5382 1.379 . S
C5382 H5366 0.931 . S
C5382 C5376 1.383 . S
C5382 C5381 1.379 . S
H5383 C5377 0.959 . S
H5384 C5377 0.961 . S
H5385 C5377 0.960 . S
H5386 C5378 0.930 . S
H5387 C5379 0.929 . S
H5388 C5396 0.929 . S
H5389 C5398 0.930 . S
H5390 C5400 0.930 1_655 S
H5391 C5403 0.929 1_655 S
H5392 C5406 0.930 . S
H5393 C5408 0.960 . S
H5394 C5408 0.960 1_455 S
H5395 C5408 0.960 . S
C5396 H5388 0.929 . S
C5396 C5397 1.377 . S
C5396 C5398 1.384 . S
C5397 C5396 1.377 . S
C5397 C5403 1.390 . S
C5398 H5389 0.930 . S
C5398 C5396 1.384 . S
C5398 C5399 1.372 . S
C5399 C5398 1.372 . S
C5399 C5400 1.400 . S
C5399 C5404 1.490 . S
C5400 H5390 0.930 1_455 S
C5400 C5399 1.400 . S
C5400 C5403 1.386 . S
H5401 C5417 0.930 1_655 S
H5402 C5418 0.931 1_655 S
C5403 H5391 0.929 1_455 S
C5403 C5397 1.390 . S
C5403 C5400 1.386 . S
C5404 C5399 1.490 . S
C5404 C5406 1.395 . S
C5404 C5407 1.403 . S
H5405 C5411 0.945 . S
C5406 H5392 0.930 . S
C5406 C5404 1.395 . S
C5406 C5409 1.403 . S
C5407 C5404 1.403 . S
C5407 C5408 1.524 1_455 S
C5407 C5411 1.400 . S
C5408 H5393 0.960 . S
C5408 H5394 0.960 1_655 S
C5408 H5395 0.960 . S
C5408 C5407 1.524 1_655 S
C5409 C5406 1.403 . S
C5409 C5410 1.392 . S
C5409 C5413 1.495 . S
C5410 C5409 1.392 . S
C5410 C5411 1.385 . S
C5410 C5412 1.478 . S
C5411 H5405 0.945 . S
C5411 C5407 1.400 . S
C5411 C5410 1.385 . S
C5412 C5410 1.478 . S
C5412 C5414 1.381 . S
C5412 C5418 1.383 1_554 S
C5413 C5409 1.495 . S
C5413 H5419 0.959 . S
C5413 H5420 0.961 . S
C5413 H5421 0.960 . S
C5414 C5412 1.381 . S
C5414 C5415 1.394 1_554 S
C5414 H5422 0.930 . S
C5415 C5414 1.394 1_556 S
C5415 C5416 1.383 . S
C5415 H5423 0.929 . S
C5416 C5415 1.383 . S
C5416 C5417 1.377 . S
C5417 H5401 0.930 1_455 S
C5417 C5416 1.377 . S
C5417 C5418 1.379 . S
C5418 H5402 0.931 1_455 S
C5418 C5412 1.383 1_556 S
C5418 C5417 1.379 . S
H5419 C5413 0.959 . S
H5420 C5413 0.961 . S
H5421 C5413 0.960 . S
H5422 C5414 0.930 . S
H5423 C5415 0.929 . S
H5424 C5432 0.929 . S
H5425 C5434 0.930 . S
H5426 C5436 0.930 . S
H5427 C5439 0.929 . S
H5428 C5442 0.930 . S
H5429 C5444 0.960 . S
H5430 C5444 0.960 . S
H5431 C5444 0.960 . S
C5432 H5424 0.929 . S
C5432 C5433 1.377 . S
C5432 C5434 1.384 . S
C5433 C5432 1.377 . S
C5433 C5439 1.390 . S
C5434 H5425 0.930 . S
C5434 C5432 1.384 . S
C5434 C5435 1.372 . S
C5435 C5434 1.372 . S
C5435 C5436 1.400 . S
C5435 C5440 1.490 . S
C5436 H5426 0.930 . S
C5436 C5435 1.400 . S
C5436 C5439 1.386 . S
H5437 C5453 0.930 . S
H5438 C5454 0.931 . S
C5439 H5427 0.929 . S
C5439 C5433 1.390 . S
C5439 C5436 1.386 . S
C5440 C5435 1.490 . S
C5440 C5442 1.395 . S
C5440 C5443 1.403 . S
H5441 C5447 0.930 . S
C5442 H5428 0.930 . S
C5442 C5440 1.395 . S
C5442 C5445 1.403 . S
C5443 C5440 1.403 . S
C5443 C5444 1.524 . S
C5443 C5447 1.400 . S
C5444 H5429 0.960 . S
C5444 H5430 0.960 . S
C5444 H5431 0.960 . S
C5444 C5443 1.524 . S
C5445 C5442 1.403 . S
C5445 C5446 1.392 . S
C5445 C5449 1.495 . S
C5446 C5445 1.392 . S
C5446 C5447 1.385 . S
C5446 C5448 1.478 . S
C5447 H5441 0.930 . S
C5447 C5443 1.400 . S
C5447 C5446 1.385 . S
C5448 C5446 1.478 . S
C5448 C5450 1.381 . S
C5448 C5454 1.383 . S
C5449 C5445 1.495 . S
C5449 H5455 0.959 . S
C5449 H5456 0.961 . S
C5449 H5457 0.960 . S
C5450 C5448 1.381 . S
C5450 C5451 1.394 . S
C5450 H5458 0.930 . S
C5451 C5450 1.394 . S
C5451 C5452 1.383 . S
C5451 H5459 0.929 . S
C5452 C5451 1.383 . S
C5452 C5453 1.377 . S
C5453 H5437 0.930 . S
C5453 C5452 1.377 . S
C5453 C5454 1.379 . S
C5454 H5438 0.931 . S
C5454 C5448 1.383 . S
C5454 C5453 1.379 . S
H5455 C5449 0.959 . S
H5456 C5449 0.961 . S
H5457 C5449 0.960 . S
H5458 C5450 0.930 . S
H5459 C5451 0.929 . S
H5460 C5468 0.929 . S
H5461 C5470 0.930 . S
H5462 C5472 0.930 . S
H5463 C5475 0.929 . S
H5464 C5478 0.930 . S
H5465 C5480 0.960 . S
H5466 C5480 0.960 . S
H5467 C5480 0.960 . S
C5468 H5460 0.929 . S
C5468 C5469 1.377 . S
C5468 C5470 1.384 . S
C5469 C5468 1.377 . S
C5469 C5475 1.390 . S
C5470 H5461 0.930 . S
C5470 C5468 1.384 . S
C5470 C5471 1.372 . S
C5471 C5470 1.372 . S
C5471 C5472 1.400 . S
C5471 C5476 1.490 . S
C5472 H5462 0.930 . S
C5472 C5471 1.400 . S
C5472 C5475 1.386 . S
H5473 C5489 0.930 . S
H5474 C5490 0.931 . S
C5475 H5463 0.929 . S
C5475 C5469 1.390 . S
C5475 C5472 1.386 . S
C5476 C5471 1.490 . S
C5476 C5478 1.395 . S
C5476 C5479 1.403 . S
H5477 C5483 0.930 . S
C5478 H5464 0.930 . S
C5478 C5476 1.395 . S
C5478 C5481 1.403 . S
C5479 C5476 1.403 . S
C5479 C5480 1.524 . S
C5479 C5483 1.400 . S
C5480 H5465 0.960 . S
C5480 H5466 0.960 . S
C5480 H5467 0.960 . S
C5480 C5479 1.524 . S
C5481 C5478 1.403 . S
C5481 C5482 1.392 . S
C5481 C5485 1.495 . S
C5482 C5481 1.392 . S
C5482 C5483 1.385 . S
C5482 C5484 1.478 . S
C5483 H5477 0.930 . S
C5483 C5479 1.400 . S
C5483 C5482 1.385 . S
C5484 C5482 1.478 . S
C5484 C5486 1.381 . S
C5484 C5490 1.383 . S
C5485 C5481 1.495 . S
C5485 H5491 0.959 . S
C5485 H5492 0.961 . S
C5485 H5493 0.960 . S
C5486 C5484 1.381 . S
C5486 C5487 1.394 . S
C5486 H5494 0.930 . S
C5487 C5486 1.394 . S
C5487 C5488 1.383 . S
C5487 H5495 0.929 . S
C5488 C5487 1.383 . S
C5488 C5489 1.377 . S
C5489 H5473 0.930 . S
C5489 C5488 1.377 . S
C5489 C5490 1.379 . S
C5490 H5474 0.931 . S
C5490 C5484 1.383 . S
C5490 C5489 1.379 . S
H5491 C5485 0.959 . S
H5492 C5485 0.961 . S
H5493 C5485 0.960 . S
H5494 C5486 0.930 . S
H5495 C5487 0.929 . S
H5496 C5504 0.929 . S
H5497 C5506 0.930 . S
H5498 C5508 0.930 . S
H5499 C5511 0.929 . S
H5500 C5514 0.930 . S
H5501 C5516 0.960 . S
H5502 C5516 0.960 . S
H5503 C5516 0.960 . S
C5504 H5496 0.929 . S
C5504 C5505 1.377 . S
C5504 C5506 1.384 . S
C5505 C5504 1.377 . S
C5505 C5511 1.390 . S
C5506 H5497 0.930 . S
C5506 C5504 1.384 . S
C5506 C5507 1.372 . S
C5507 C5506 1.372 . S
C5507 C5508 1.400 . S
C5507 C5512 1.490 . S
C5508 H5498 0.930 . S
C5508 C5507 1.400 . S
C5508 C5511 1.386 . S
H5509 C5525 0.930 . S
H5510 C5526 0.931 . S
C5511 H5499 0.929 . S
C5511 C5505 1.390 . S
C5511 C5508 1.386 . S
C5512 C5507 1.490 . S
C5512 C5514 1.395 . S
C5512 C5515 1.403 . S
H5513 C5519 0.930 . S
C5514 H5500 0.930 . S
C5514 C5512 1.395 . S
C5514 C5517 1.403 . S
C5515 C5512 1.403 . S
C5515 C5516 1.524 . S
C5515 C5519 1.400 . S
C5516 H5501 0.960 . S
C5516 H5502 0.960 . S
C5516 H5503 0.960 . S
C5516 C5515 1.524 . S
C5517 C5514 1.403 . S
C5517 C5518 1.392 . S
C5517 C5521 1.495 . S
C5518 C5517 1.392 . S
C5518 C5519 1.385 . S
C5518 C5520 1.478 . S
C5519 H5513 0.930 . S
C5519 C5515 1.400 . S
C5519 C5518 1.385 . S
C5520 C5518 1.478 . S
C5520 C5522 1.381 . S
C5520 C5526 1.383 . S
C5521 C5517 1.495 . S
C5521 H5527 0.959 . S
C5521 H5528 0.961 . S
C5521 H5529 0.960 . S
C5522 C5520 1.381 . S
C5522 C5523 1.394 . S
C5522 H5530 0.930 . S
C5523 C5522 1.394 . S
C5523 C5524 1.383 . S
C5523 H5531 0.929 . S
C5524 C5523 1.383 . S
C5524 C5525 1.377 . S
C5525 H5509 0.930 . S
C5525 C5524 1.377 . S
C5525 C5526 1.379 . S
C5526 H5510 0.931 . S
C5526 C5520 1.383 . S
C5526 C5525 1.379 . S
H5527 C5521 0.959 . S
H5528 C5521 0.961 . S
H5529 C5521 0.960 . S
H5530 C5522 0.930 . S
H5531 C5523 0.929 . S
H5532 C5540 0.929 . S
H5533 C5542 0.930 . S
H5534 C5544 0.930 . S
H5535 C5547 0.929 . S
H5536 C5550 0.930 . S
H5537 C5552 0.960 . S
H5538 C5552 0.960 . S
H5539 C5552 0.960 . S
C5540 H5532 0.929 . S
C5540 C5541 1.377 . S
C5540 C5542 1.384 . S
C5541 C5540 1.377 . S
C5541 C5547 1.390 . S
C5542 H5533 0.930 . S
C5542 C5540 1.384 . S
C5542 C5543 1.372 . S
C5543 C5542 1.372 . S
C5543 C5544 1.400 . S
C5543 C5548 1.490 . S
C5544 H5534 0.930 . S
C5544 C5543 1.400 . S
C5544 C5547 1.386 . S
H5545 C5561 0.930 . S
H5546 C5562 0.931 . S
C5547 H5535 0.929 . S
C5547 C5541 1.390 . S
C5547 C5544 1.386 . S
C5548 C5543 1.490 . S
C5548 C5550 1.395 . S
C5548 C5551 1.403 . S
H5549 C5555 0.930 . S
C5550 H5536 0.930 . S
C5550 C5548 1.395 . S
C5550 C5553 1.403 . S
C5551 C5548 1.403 . S
C5551 C5552 1.524 . S
C5551 C5555 1.400 . S
C5552 H5537 0.960 . S
C5552 H5538 0.960 . S
C5552 H5539 0.960 . S
C5552 C5551 1.524 . S
C5553 C5550 1.403 . S
C5553 C5554 1.392 . S
C5553 C5557 1.495 . S
C5554 C5553 1.392 . S
C5554 C5555 1.385 . S
C5554 C5556 1.478 . S
C5555 H5549 0.930 . S
C5555 C5551 1.400 . S
C5555 C5554 1.385 . S
C5556 C5554 1.478 . S
C5556 C5558 1.381 . S
C5556 C5562 1.383 . S
C5557 C5553 1.495 . S
C5557 H5563 0.959 . S
C5557 H5564 0.961 . S
C5557 H5565 0.960 . S
C5558 C5556 1.381 . S
C5558 C5559 1.394 . S
C5558 H5566 0.930 . S
C5559 C5558 1.394 . S
C5559 C5560 1.383 . S
C5559 H5567 0.929 . S
C5560 C5559 1.383 . S
C5560 C5561 1.377 . S
C5561 H5545 0.930 . S
C5561 C5560 1.377 . S
C5561 C5562 1.379 . S
C5562 H5546 0.931 . S
C5562 C5556 1.383 . S
C5562 C5561 1.379 . S
H5563 C5557 0.959 . S
H5564 C5557 0.961 . S
H5565 C5557 0.960 . S
H5566 C5558 0.930 . S
H5567 C5559 0.929 . S
H5568 C5576 0.929 . S
H5569 C5578 0.930 . S
H5570 C5580 0.930 . S
H5571 C5583 0.929 . S
H5572 C5586 0.930 . S
H5573 C5588 0.960 . S
H5574 C5588 0.960 . S
H5575 C5588 0.960 . S
C5576 H5568 0.929 . S
C5576 C5577 1.377 . S
C5576 C5578 1.384 . S
C5577 C5576 1.377 . S
C5577 C5583 1.390 . S
C5578 H5569 0.930 . S
C5578 C5576 1.384 . S
C5578 C5579 1.372 . S
C5579 C5578 1.372 . S
C5579 C5580 1.400 . S
C5579 C5584 1.490 . S
C5580 H5570 0.930 . S
C5580 C5579 1.400 . S
C5580 C5583 1.386 . S
H5581 C5597 0.930 . S
H5582 C5598 0.931 . S
C5583 H5571 0.929 . S
C5583 C5577 1.390 . S
C5583 C5580 1.386 . S
C5584 C5579 1.490 . S
C5584 C5586 1.395 . S
C5584 C5587 1.403 . S
H5585 C5591 0.930 . S
C5586 H5572 0.930 . S
C5586 C5584 1.395 . S
C5586 C5589 1.403 . S
C5587 C5584 1.403 . S
C5587 C5588 1.524 . S
C5587 C5591 1.400 . S
C5588 H5573 0.960 . S
C5588 H5574 0.960 . S
C5588 H5575 0.960 . S
C5588 C5587 1.524 . S
C5589 C5586 1.403 . S
C5589 C5590 1.392 . S
C5589 C5593 1.495 . S
C5590 C5589 1.392 . S
C5590 C5591 1.385 . S
C5590 C5592 1.478 . S
C5591 H5585 0.930 . S
C5591 C5587 1.400 . S
C5591 C5590 1.385 . S
C5592 C5590 1.478 . S
C5592 C5594 1.381 . S
C5592 C5598 1.383 . S
C5593 C5589 1.495 . S
C5593 H5599 0.959 . S
C5593 H5600 0.961 . S
C5593 H5601 0.960 . S
C5594 C5592 1.381 . S
C5594 C5595 1.394 . S
C5594 H5602 0.930 . S
C5595 C5594 1.394 . S
C5595 C5596 1.383 . S
C5595 H5603 0.929 . S
C5596 C5595 1.383 . S
C5596 C5597 1.377 . S
C5597 H5581 0.930 . S
C5597 C5596 1.377 . S
C5597 C5598 1.379 . S
C5598 H5582 0.931 . S
C5598 C5592 1.383 . S
C5598 C5597 1.379 . S
H5599 C5593 0.959 . S
H5600 C5593 0.961 . S
H5601 C5593 0.960 . S
H5602 C5594 0.930 . S
H5603 C5595 0.929 . S
H5604 C5612 0.929 . S
H5605 C5614 0.930 . S
H5606 C5616 0.930 . S
H5607 C5619 0.929 . S
H5608 C5622 0.930 . S
H5609 C5624 0.960 . S
H5610 C5624 0.960 . S
H5611 C5624 0.960 . S
C5612 H5604 0.929 . S
C5612 C5613 1.377 . S
C5612 C5614 1.384 . S
C5613 C5612 1.377 . S
C5613 C5619 1.390 . S
C5614 H5605 0.930 . S
C5614 C5612 1.384 . S
C5614 C5615 1.372 . S
C5615 C5614 1.372 . S
C5615 C5616 1.400 . S
C5615 C5620 1.490 . S
C5616 H5606 0.930 . S
C5616 C5615 1.400 . S
C5616 C5619 1.386 . S
H5617 C5633 0.930 . S
H5618 C5634 0.931 . S
C5619 H5607 0.929 . S
C5619 C5613 1.390 . S
C5619 C5616 1.386 . S
C5620 C5615 1.490 . S
C5620 C5622 1.395 . S
C5620 C5623 1.403 . S
H5621 C5627 0.930 . S
C5622 H5608 0.930 . S
C5622 C5620 1.395 . S
C5622 C5625 1.403 . S
C5623 C5620 1.403 . S
C5623 C5624 1.524 . S
C5623 C5627 1.400 . S
C5624 H5609 0.960 . S
C5624 H5610 0.960 . S
C5624 H5611 0.960 . S
C5624 C5623 1.524 . S
C5625 C5622 1.403 . S
C5625 C5626 1.392 . S
C5625 C5629 1.495 . S
C5626 C5625 1.392 . S
C5626 C5627 1.385 . S
C5626 C5628 1.478 . S
C5627 H5621 0.930 . S
C5627 C5623 1.400 . S
C5627 C5626 1.385 . S
C5628 C5626 1.478 . S
C5628 C5630 1.381 . S
C5628 C5634 1.383 . S
C5629 C5625 1.495 . S
C5629 H5635 0.959 . S
C5629 H5636 0.961 . S
C5629 H5637 0.960 . S
C5630 C5628 1.381 . S
C5630 C5631 1.394 . S
C5630 H5638 0.930 . S
C5631 C5630 1.394 . S
C5631 C5632 1.383 . S
C5631 H5639 0.929 . S
C5632 C5631 1.383 . S
C5632 C5633 1.377 . S
C5633 H5617 0.930 . S
C5633 C5632 1.377 . S
C5633 C5634 1.379 . S
C5634 H5618 0.931 . S
C5634 C5628 1.383 . S
C5634 C5633 1.379 . S
H5635 C5629 0.959 . S
H5636 C5629 0.961 . S
H5637 C5629 0.960 . S
H5638 C5630 0.930 . S
H5639 C5631 0.929 . S
H5640 C5648 0.929 . S
H5641 C5650 0.930 . S
H5642 C5652 0.930 . S
H5643 C5655 0.929 . S
H5644 C5658 0.930 . S
H5645 C5660 0.960 . S
H5646 C5660 0.960 . S
H5647 C5660 0.960 . S
C5648 H5640 0.929 . S
C5648 C5649 1.377 . S
C5648 C5650 1.384 . S
C5649 C5648 1.377 . S
C5649 C5655 1.390 1_556 S
C5650 H5641 0.930 . S
C5650 C5648 1.384 . S
C5650 C5651 1.372 . S
C5651 C5650 1.372 . S
C5651 C5652 1.400 1_556 S
C5651 C5656 1.490 . S
C5652 H5642 0.930 . S
C5652 C5651 1.400 1_554 S
C5652 C5655 1.386 . S
H5653 C5669 0.930 . S
H5654 C5670 0.931 . S
C5655 H5643 0.929 . S
C5655 C5649 1.390 1_554 S
C5655 C5652 1.386 . S
C5656 C5651 1.490 . S
C5656 C5658 1.395 . S
C5656 C5659 1.403 1_556 S
H5657 C5663 0.930 . S
C5658 H5644 0.930 . S
C5658 C5656 1.395 . S
C5658 C5661 1.403 . S
C5659 C5656 1.403 1_554 S
C5659 C5660 1.524 . S
C5659 C5663 1.400 . S
C5660 H5645 0.960 . S
C5660 H5646 0.960 . S
C5660 H5647 0.960 . S
C5660 C5659 1.524 . S
C5661 C5658 1.403 . S
C5661 C5662 1.392 1_556 S
C5661 C5665 1.495 . S
C5662 C5661 1.392 1_554 S
C5662 C5663 1.385 . S
C5662 C5664 1.478 . S
C5663 H5657 0.930 . S
C5663 C5659 1.400 . S
C5663 C5662 1.385 . S
C5664 C5662 1.478 . S
C5664 C5666 1.381 1_554 S
C5664 C5670 1.383 . S
C5665 C5661 1.495 . S
C5665 H5671 0.959 . S
C5665 H5672 0.961 . S
C5665 H5673 0.960 . S
C5666 C5664 1.381 1_556 S
C5666 C5667 1.394 . S
C5666 H5674 0.930 . S
C5667 C5666 1.394 . S
C5667 C5668 1.383 1_556 S
C5667 H5675 0.929 . S
C5668 C5667 1.383 1_554 S
C5668 C5669 1.377 . S
C5669 H5653 0.930 . S
C5669 C5668 1.377 . S
C5669 C5670 1.379 . S
C5670 H5654 0.931 . S
C5670 C5664 1.383 . S
C5670 C5669 1.379 . S
H5671 C5665 0.959 . S
H5672 C5665 0.961 . S
H5673 C5665 0.960 . S
H5674 C5666 0.930 . S
H5675 C5667 0.929 . S
H5676 C5684 0.929 . S
H5677 C5686 0.930 . S
H5678 C5688 0.930 . S
H5679 C5691 0.929 . S
H5680 C5694 0.930 . S
H5681 C5696 0.960 . S
H5682 C5696 0.960 . S
H5683 C5696 0.960 . S
C5684 H5676 0.929 . S
C5684 C5685 1.377 . S
C5684 C5686 1.384 . S
C5685 C5684 1.377 . S
C5685 C5691 1.390 . S
C5686 H5677 0.930 . S
C5686 C5684 1.384 . S
C5686 C5687 1.372 . S
C5687 C5686 1.372 . S
C5687 C5688 1.400 . S
C5687 C5692 1.490 . S
C5688 H5678 0.930 . S
C5688 C5687 1.400 . S
C5688 C5691 1.386 . S
H5689 C5705 0.930 . S
H5690 C5706 0.931 . S
C5691 H5679 0.929 . S
C5691 C5685 1.390 . S
C5691 C5688 1.386 . S
C5692 C5687 1.490 . S
C5692 C5694 1.395 . S
C5692 C5695 1.403 . S
H5693 C5699 0.930 . S
C5694 H5680 0.930 . S
C5694 C5692 1.395 . S
C5694 C5697 1.403 . S
C5695 C5692 1.403 . S
C5695 C5696 1.524 . S
C5695 C5699 1.400 . S
C5696 H5681 0.960 . S
C5696 H5682 0.960 . S
C5696 H5683 0.960 . S
C5696 C5695 1.524 . S
C5697 C5694 1.403 . S
C5697 C5698 1.392 . S
C5697 C5701 1.495 . S
C5698 C5697 1.392 . S
C5698 C5699 1.385 . S
C5698 C5700 1.478 . S
C5699 H5693 0.930 . S
C5699 C5695 1.400 . S
C5699 C5698 1.385 . S
C5700 C5698 1.478 . S
C5700 C5702 1.381 . S
C5700 C5706 1.383 . S
C5701 C5697 1.495 . S
C5701 H5707 0.959 . S
C5701 H5708 0.961 . S
C5701 H5709 0.960 . S
C5702 C5700 1.381 . S
C5702 C5703 1.394 . S
C5702 H5710 0.930 . S
C5703 C5702 1.394 . S
C5703 C5704 1.383 . S
C5703 H5711 0.929 . S
C5704 C5703 1.383 . S
C5704 C5705 1.377 . S
C5705 H5689 0.930 . S
C5705 C5704 1.377 . S
C5705 C5706 1.379 . S
C5706 H5690 0.931 . S
C5706 C5700 1.383 . S
C5706 C5705 1.379 . S
H5707 C5701 0.959 . S
H5708 C5701 0.961 . S
H5709 C5701 0.960 . S
H5710 C5702 0.930 . S
H5711 C5703 0.929 . S
H5712 C5720 0.929 . S
H5713 C5722 0.930 . S
H5714 C5724 0.930 . S
H5715 C5727 0.929 . S
H5716 C5730 0.930 . S
H5717 C5732 0.960 . S
H5718 C5732 0.960 . S
H5719 C5732 0.960 . S
C5720 H5712 0.929 . S
C5720 C5721 1.377 . S
C5720 C5722 1.384 . S
C5721 C5720 1.377 . S
C5721 C5727 1.390 . S
C5722 H5713 0.930 . S
C5722 C5720 1.384 . S
C5722 C5723 1.372 . S
C5723 C5722 1.372 . S
C5723 C5724 1.400 . S
C5723 C5728 1.490 . S
C5724 H5714 0.930 . S
C5724 C5723 1.400 . S
C5724 C5727 1.386 . S
H5725 C5741 0.930 . S
H5726 C5742 0.931 . S
C5727 H5715 0.929 . S
C5727 C5721 1.390 . S
C5727 C5724 1.386 . S
C5728 C5723 1.490 . S
C5728 C5730 1.395 . S
C5728 C5731 1.403 . S
H5729 C5735 0.930 . S
C5730 H5716 0.930 . S
C5730 C5728 1.395 . S
C5730 C5733 1.403 . S
C5731 C5728 1.403 . S
C5731 C5732 1.524 . S
C5731 C5735 1.400 . S
C5732 H5717 0.960 . S
C5732 H5718 0.960 . S
C5732 H5719 0.960 . S
C5732 C5731 1.524 . S
C5733 C5730 1.403 . S
C5733 C5734 1.392 . S
C5733 C5737 1.495 . S
C5734 C5733 1.392 . S
C5734 C5735 1.385 . S
C5734 C5736 1.478 . S
C5735 H5729 0.930 . S
C5735 C5731 1.400 . S
C5735 C5734 1.385 . S
C5736 C5734 1.478 . S
C5736 C5738 1.381 . S
C5736 C5742 1.383 . S
C5737 C5733 1.495 . S
C5737 H5743 0.959 . S
C5737 H5744 0.961 . S
C5737 H5745 0.960 . S
C5738 C5736 1.381 . S
C5738 C5739 1.394 . S
C5738 H5746 0.930 . S
C5739 C5738 1.394 . S
C5739 C5740 1.383 . S
C5739 H5747 0.929 . S
C5740 C5739 1.383 . S
C5740 C5741 1.377 . S
C5741 H5725 0.930 . S
C5741 C5740 1.377 . S
C5741 C5742 1.379 . S
C5742 H5726 0.931 . S
C5742 C5736 1.383 . S
C5742 C5741 1.379 . S
H5743 C5737 0.959 . S
H5744 C5737 0.961 . S
H5745 C5737 0.960 . S
H5746 C5738 0.930 . S
H5747 C5739 0.929 . S
H5748 C5756 0.929 . S
H5749 C5758 0.930 . S
H5750 C5760 0.930 . S
H5751 C5763 0.929 . S
H5752 C5766 0.930 . S
H5753 C5768 0.960 . S
H5754 C5768 0.960 . S
H5755 C5768 0.960 1_455 S
C5756 H5748 0.929 . S
C5756 C5757 1.377 . S
C5756 C5758 1.384 . S
C5757 C5756 1.377 . S
C5757 C5763 1.390 1_655 S
C5758 H5749 0.930 . S
C5758 C5756 1.384 . S
C5758 C5759 1.372 . S
C5759 C5758 1.372 . S
C5759 C5760 1.400 1_655 S
C5759 C5764 1.468 . S
C5760 H5750 0.930 . S
C5760 C5759 1.400 1_455 S
C5760 C5763 1.386 . S
H5761 C5777 0.930 . S
H5762 C5778 0.931 . S
C5763 H5751 0.929 . S
C5763 C5757 1.390 1_455 S
C5763 C5760 1.386 . S
C5764 C5759 1.468 . S
C5764 C5766 1.409 1_655 S
C5764 C5767 1.413 . S
H5765 C5771 0.940 . S
C5766 H5752 0.930 . S
C5766 C5764 1.409 1_455 S
C5766 C5769 1.403 . S
C5767 C5764 1.413 . S
C5767 C5768 1.524 . S
C5767 C5771 1.400 1_655 S
C5768 H5753 0.960 . S
C5768 H5754 0.960 . S
C5768 H5755 0.960 1_655 S
C5768 C5767 1.524 . S
C5769 C5766 1.403 . S
C5769 C5770 1.392 . S
C5769 C5773 1.495 . S
C5770 C5769 1.392 . S
C5770 C5771 1.385 . S
C5770 C5772 1.478 . S
C5771 H5765 0.940 . S
C5771 C5767 1.400 1_455 S
C5771 C5770 1.385 . S
C5772 C5770 1.478 . S
C5772 C5774 1.381 1_455 S
C5772 C5778 1.383 . S
C5773 C5769 1.495 . S
C5773 H5779 0.959 . S
C5773 H5780 0.961 . S
C5773 H5781 0.960 . S
C5774 C5772 1.381 1_655 S
C5774 C5775 1.394 . S
C5774 H5782 0.930 . S
C5775 C5774 1.394 . S
C5775 C5776 1.383 1_655 S
C5775 H5783 0.929 . S
C5776 C5775 1.383 1_455 S
C5776 C5777 1.377 . S
C5777 H5761 0.930 . S
C5777 C5776 1.377 . S
C5777 C5778 1.379 . S
C5778 H5762 0.931 . S
C5778 C5772 1.383 . S
C5778 C5777 1.379 . S
H5779 C5773 0.959 . S
H5780 C5773 0.961 . S
H5781 C5773 0.960 . S
H5782 C5774 0.930 . S
H5783 C5775 0.929 . S
H5784 C5792 0.929 . S
H5785 C5794 0.930 . S
H5786 C5796 0.930 . S
H5787 C5799 0.929 . S
H5788 C5802 0.930 . S
H5789 C5804 0.960 . S
H5790 C5804 0.960 . S
H5791 C5804 0.960 . S
C5792 H5784 0.929 . S
C5792 C5793 1.377 . S
C5792 C5794 1.384 . S
C5793 C5792 1.377 . S
C5793 C5799 1.390 . S
C5794 H5785 0.930 . S
C5794 C5792 1.384 . S
C5794 C5795 1.372 . S
C5795 C5794 1.372 . S
C5795 C5796 1.400 . S
C5795 C5800 1.490 . S
C5796 H5786 0.930 . S
C5796 C5795 1.400 . S
C5796 C5799 1.386 . S
H5797 C5813 0.930 . S
H5798 C5814 0.931 . S
C5799 H5787 0.929 . S
C5799 C5793 1.390 . S
C5799 C5796 1.386 . S
C5800 C5795 1.490 . S
C5800 C5802 1.395 . S
C5800 C5803 1.403 . S
H5801 C5807 0.930 . S
C5802 H5788 0.930 . S
C5802 C5800 1.395 . S
C5802 C5805 1.403 . S
C5803 C5800 1.403 . S
C5803 C5804 1.524 . S
C5803 C5807 1.400 . S
C5804 H5789 0.960 . S
C5804 H5790 0.960 . S
C5804 H5791 0.960 . S
C5804 C5803 1.524 . S
C5805 C5802 1.403 . S
C5805 C5806 1.392 . S
C5805 C5809 1.495 . S
C5806 C5805 1.392 . S
C5806 C5807 1.385 . S
C5806 C5808 1.478 . S
C5807 H5801 0.930 . S
C5807 C5803 1.400 . S
C5807 C5806 1.385 . S
C5808 C5806 1.478 . S
C5808 C5810 1.381 . S
C5808 C5814 1.383 . S
C5809 C5805 1.495 . S
C5809 H5815 0.959 . S
C5809 H5816 0.961 . S
C5809 H5817 0.960 . S
C5810 C5808 1.381 . S
C5810 C5811 1.394 . S
C5810 H5818 0.930 . S
C5811 C5810 1.394 . S
C5811 C5812 1.383 . S
C5811 H5819 0.929 . S
C5812 C5811 1.383 . S
C5812 C5813 1.377 . S
C5813 H5797 0.930 . S
C5813 C5812 1.377 . S
C5813 C5814 1.379 . S
C5814 H5798 0.931 . S
C5814 C5808 1.383 . S
C5814 C5813 1.379 . S
H5815 C5809 0.959 . S
H5816 C5809 0.961 . S
H5817 C5809 0.960 . S
H5818 C5810 0.930 . S
H5819 C5811 0.929 . S
H5820 C5828 0.929 . S
H5821 C5830 0.930 . S
H5822 C5832 0.930 . S
H5823 C5835 0.929 . S
H5824 C5838 0.930 . S
H5825 C5840 0.960 . S
H5826 C5840 0.960 . S
H5827 C5840 0.960 . S
C5828 H5820 0.929 . S
C5828 C5829 1.377 . S
C5828 C5830 1.384 . S
C5829 C5828 1.377 . S
C5829 C5835 1.390 . S
C5830 H5821 0.930 . S
C5830 C5828 1.384 . S
C5830 C5831 1.372 . S
C5831 C5830 1.372 . S
C5831 C5832 1.400 . S
C5831 C5836 1.490 . S
C5832 H5822 0.930 . S
C5832 C5831 1.400 . S
C5832 C5835 1.386 . S
H5833 C5849 0.930 . S
H5834 C5850 0.931 . S
C5835 H5823 0.929 . S
C5835 C5829 1.390 . S
C5835 C5832 1.386 . S
C5836 C5831 1.490 . S
C5836 C5838 1.395 . S
C5836 C5839 1.403 . S
H5837 C5843 0.930 . S
C5838 H5824 0.930 . S
C5838 C5836 1.395 . S
C5838 C5841 1.403 . S
C5839 C5836 1.403 . S
C5839 C5840 1.524 . S
C5839 C5843 1.400 . S
C5840 H5825 0.960 . S
C5840 H5826 0.960 . S
C5840 H5827 0.960 . S
C5840 C5839 1.524 . S
C5841 C5838 1.403 . S
C5841 C5842 1.392 . S
C5841 C5845 1.495 . S
C5842 C5841 1.392 . S
C5842 C5843 1.385 . S
C5842 C5844 1.478 . S
C5843 H5837 0.930 . S
C5843 C5839 1.400 . S
C5843 C5842 1.385 . S
C5844 C5842 1.478 . S
C5844 C5846 1.381 . S
C5844 C5850 1.383 . S
C5845 C5841 1.495 . S
C5845 H5851 0.959 . S
C5845 H5852 0.961 . S
C5845 H5853 0.960 . S
C5846 C5844 1.381 . S
C5846 C5847 1.394 . S
C5846 H5854 0.930 . S
C5847 C5846 1.394 . S
C5847 C5848 1.383 . S
C5847 H5855 0.929 . S
C5848 C5847 1.383 . S
C5848 C5849 1.377 . S
C5849 H5833 0.930 . S
C5849 C5848 1.377 . S
C5849 C5850 1.379 . S
C5850 H5834 0.931 . S
C5850 C5844 1.383 . S
C5850 C5849 1.379 . S
H5851 C5845 0.959 . S
H5852 C5845 0.961 . S
H5853 C5845 0.960 . S
H5854 C5846 0.930 . S
H5855 C5847 0.929 . S
H5856 C5864 0.929 . S
H5857 C5866 0.930 . S
H5858 C5868 0.924 1_455 S
H5859 C5871 0.929 1_455 S
H5860 C5874 0.930 . S
H5861 C5876 0.960 . S
H5862 C5876 0.960 1_655 S
H5863 C5876 0.960 . S
C5864 H5856 0.929 . S
C5864 C5865 1.377 . S
C5864 C5866 1.384 . S
C5865 C5864 1.377 . S
C5865 C5871 1.390 . S
C5866 H5857 0.930 . S
C5866 C5864 1.384 . S
C5866 C5867 1.372 . S
C5867 C5866 1.372 . S
C5867 C5868 1.408 . S
C5867 C5872 1.490 . S
C5868 H5858 0.924 1_655 S
C5868 C5867 1.408 . S
C5868 C5871 1.383 . S
H5869 C5885 0.930 . S
H5870 C5886 0.931 . S
C5871 H5859 0.929 1_655 S
C5871 C5865 1.390 . S
C5871 C5868 1.383 . S
C5872 C5867 1.490 . S
C5872 C5874 1.395 . S
C5872 C5875 1.403 1_655 S
H5873 C5879 0.930 . S
C5874 H5860 0.930 . S
C5874 C5872 1.395 . S
C5874 C5877 1.403 . S
C5875 C5872 1.403 1_455 S
C5875 C5876 1.524 . S
C5875 C5879 1.400 . S
C5876 H5861 0.960 . S
C5876 H5862 0.960 1_455 S
C5876 H5863 0.960 . S
C5876 C5875 1.524 . S
C5877 C5874 1.403 . S
C5877 C5878 1.392 1_655 S
C5877 C5881 1.495 . S
C5878 C5877 1.392 1_455 S
C5878 C5879 1.385 . S
C5878 C5880 1.478 . S
C5879 H5873 0.930 . S
C5879 C5875 1.400 . S
C5879 C5878 1.385 . S
C5880 C5878 1.478 . S
C5880 C5882 1.381 1_455 S
C5880 C5886 1.383 . S
C5881 C5877 1.495 . S
C5881 H5887 0.959 . S
C5881 H5888 0.961 1_655 S
C5881 H5889 0.960 . S
C5882 C5880 1.381 1_655 S
C5882 C5883 1.394 1_655 S
C5882 H5890 0.930 . S
C5883 C5882 1.394 1_455 S
C5883 C5884 1.383 . S
C5883 H5891 0.929 1_455 S
C5884 C5883 1.383 . S
C5884 C5885 1.377 . S
C5885 H5869 0.930 . S
C5885 C5884 1.377 . S
C5885 C5886 1.379 . S
C5886 H5870 0.931 . S
C5886 C5880 1.383 . S
C5886 C5885 1.379 . S
H5887 C5881 0.959 . S
H5888 C5881 0.961 1_455 S
H5889 C5881 0.960 . S
H5890 C5882 0.930 . S
H5891 C5883 0.929 1_655 S
H5892 C5900 0.929 . S
H5893 C5902 0.930 . S
H5894 C5904 0.930 . S
H5895 C5907 0.929 . S
H5896 C5910 0.930 . S
H5897 C5912 0.960 . S
H5898 C5912 0.960 . S
H5899 C5912 0.960 . S
C5900 H5892 0.929 . S
C5900 C5901 1.377 . S
C5900 C5902 1.384 . S
C5901 C5900 1.377 . S
C5901 C5907 1.390 . S
C5902 H5893 0.930 . S
C5902 C5900 1.384 . S
C5902 C5903 1.372 . S
C5903 C5902 1.372 . S
C5903 C5904 1.400 . S
C5903 C5908 1.490 . S
C5904 H5894 0.930 . S
C5904 C5903 1.400 . S
C5904 C5907 1.386 . S
H5905 C5921 0.930 . S
H5906 C5922 0.931 . S
C5907 H5895 0.929 . S
C5907 C5901 1.390 . S
C5907 C5904 1.386 . S
C5908 C5903 1.490 . S
C5908 C5910 1.395 . S
C5908 C5911 1.403 . S
H5909 C5915 0.930 . S
C5910 H5896 0.930 . S
C5910 C5908 1.395 . S
C5910 C5913 1.403 . S
C5911 C5908 1.403 . S
C5911 C5912 1.524 . S
C5911 C5915 1.400 . S
C5912 H5897 0.960 . S
C5912 H5898 0.960 . S
C5912 H5899 0.960 . S
C5912 C5911 1.524 . S
C5913 C5910 1.403 . S
C5913 C5914 1.392 . S
C5913 C5917 1.495 . S
C5914 C5913 1.392 . S
C5914 C5915 1.385 . S
C5914 C5916 1.478 . S
C5915 H5909 0.930 . S
C5915 C5911 1.400 . S
C5915 C5914 1.385 . S
C5916 C5914 1.478 . S
C5916 C5918 1.381 . S
C5916 C5922 1.383 . S
C5917 C5913 1.495 . S
C5917 H5923 0.959 . S
C5917 H5924 0.961 . S
C5917 H5925 0.960 . S
C5918 C5916 1.381 . S
C5918 C5919 1.394 . S
C5918 H5926 0.930 . S
C5919 C5918 1.394 . S
C5919 C5920 1.383 . S
C5919 H5927 0.929 . S
C5920 C5919 1.383 . S
C5920 C5921 1.377 . S
C5921 H5905 0.930 . S
C5921 C5920 1.377 . S
C5921 C5922 1.379 . S
C5922 H5906 0.931 . S
C5922 C5916 1.383 . S
C5922 C5921 1.379 . S
H5923 C5917 0.959 . S
H5924 C5917 0.961 . S
H5925 C5917 0.960 . S
H5926 C5918 0.930 . S
H5927 C5919 0.929 . S
H5928 C5936 0.929 . S
H5929 C5938 0.930 . S
H5930 C5940 0.930 . S
H5931 C5943 0.929 . S
H5932 C5946 0.930 . S
H5933 C5948 0.960 . S
H5934 C5948 0.960 . S
H5935 C5948 0.960 . S
C5936 H5928 0.929 . S
C5936 C5937 1.377 . S
C5936 C5938 1.384 . S
C5937 C5936 1.377 . S
C5937 C5943 1.390 . S
C5938 H5929 0.930 . S
C5938 C5936 1.384 . S
C5938 C5939 1.372 . S
C5939 C5938 1.372 . S
C5939 C5940 1.400 . S
C5939 C5944 1.490 . S
C5940 H5930 0.930 . S
C5940 C5939 1.400 . S
C5940 C5943 1.386 . S
H5941 C5957 0.930 . S
H5942 C5958 0.931 . S
C5943 H5931 0.929 . S
C5943 C5937 1.390 . S
C5943 C5940 1.386 . S
C5944 C5939 1.490 . S
C5944 C5946 1.395 . S
C5944 C5947 1.403 . S
H5945 C5951 0.930 . S
C5946 H5932 0.930 . S
C5946 C5944 1.395 . S
C5946 C5949 1.403 . S
C5947 C5944 1.403 . S
C5947 C5948 1.524 . S
C5947 C5951 1.400 . S
C5948 H5933 0.960 . S
C5948 H5934 0.960 . S
C5948 H5935 0.960 . S
C5948 C5947 1.524 . S
C5949 C5946 1.403 . S
C5949 C5950 1.392 . S
C5949 C5953 1.495 . S
C5950 C5949 1.392 . S
C5950 C5951 1.385 . S
C5950 C5952 1.478 . S
C5951 H5945 0.930 . S
C5951 C5947 1.400 . S
C5951 C5950 1.385 . S
C5952 C5950 1.478 . S
C5952 C5954 1.381 . S
C5952 C5958 1.383 . S
C5953 C5949 1.495 . S
C5953 H5959 0.959 . S
C5953 H5960 0.961 . S
C5953 H5961 0.960 . S
C5954 C5952 1.381 . S
C5954 C5955 1.394 . S
C5954 H5962 0.930 . S
C5955 C5954 1.394 . S
C5955 C5956 1.383 . S
C5955 H5963 0.929 . S
C5956 C5955 1.383 . S
C5956 C5957 1.377 . S
C5957 H5941 0.930 . S
C5957 C5956 1.377 . S
C5957 C5958 1.379 . S
C5958 H5942 0.931 . S
C5958 C5952 1.383 . S
C5958 C5957 1.379 . S
H5959 C5953 0.959 . S
H5960 C5953 0.961 . S
H5961 C5953 0.960 . S
H5962 C5954 0.930 . S
H5963 C5955 0.929 . S
H5964 C5972 0.929 1_545 S
H5965 C5974 0.930 . S
H5966 C5976 0.930 . S
H5967 C5979 0.929 . S
H5968 C5982 0.930 . S
H5969 C5984 0.960 . S
H5970 C5984 0.960 . S
H5971 C5984 0.960 . S
C5972 H5964 0.929 1_565 S
C5972 C5973 1.377 . S
C5972 C5974 1.384 1_565 S
C5973 C5972 1.377 . S
C5973 C5979 1.390 . S
C5974 H5965 0.930 . S
C5974 C5972 1.384 1_545 S
C5974 C5975 1.372 1_545 S
C5975 C5974 1.372 1_565 S
C5975 C5976 1.400 . S
C5975 C5980 1.490 . S
C5976 H5966 0.930 . S
C5976 C5975 1.400 . S
C5976 C5979 1.386 . S
H5977 C5993 0.930 1_565 S
H5978 C5994 0.928 . S
C5979 H5967 0.929 . S
C5979 C5973 1.390 . S
C5979 C5976 1.386 . S
C5980 C5975 1.490 . S
C5980 C5982 1.395 1_565 S
C5980 C5983 1.403 . S
H5981 C5987 0.930 . S
C5982 H5968 0.930 . S
C5982 C5980 1.395 1_545 S
C5982 C5985 1.403 . S
C5983 C5980 1.403 . S
C5983 C5984 1.524 . S
C5983 C5987 1.400 . S
C5984 H5969 0.960 . S
C5984 H5970 0.960 . S
C5984 H5971 0.960 . S
C5984 C5983 1.524 . S
C5985 C5982 1.403 . S
C5985 C5986 1.392 . S
C5985 C5989 1.495 . S
C5986 C5985 1.392 . S
C5986 C5987 1.385 1_545 S
C5986 C5988 1.478 . S
C5987 H5981 0.930 . S
C5987 C5983 1.400 . S
C5987 C5986 1.385 1_565 S
C5988 C5986 1.478 . S
C5988 C5990 1.381 . S
C5988 C5994 1.387 1_545 S
C5989 C5985 1.495 . S
C5989 H5995 0.959 . S
C5989 H5996 0.961 . S
C5989 H5997 0.960 . S
C5990 C5988 1.381 . S
C5990 C5991 1.394 . S
C5990 H5998 0.930 . S
C5991 C5990 1.394 . S
C5991 C5992 1.383 . S
C5991 H5999 0.929 . S
C5992 C5991 1.383 . S
C5992 C5993 1.377 . S
C5993 H5977 0.930 1_545 S
C5993 C5992 1.377 . S
C5993 C5994 1.378 1_545 S
C5994 H5978 0.928 . S
C5994 C5988 1.387 1_565 S
C5994 C5993 1.378 1_565 S
H5995 C5989 0.959 . S
H5996 C5989 0.961 . S
H5997 C5989 0.960 . S
H5998 C5990 0.930 . S
H5999 C5991 0.929 . S
H6000 C6008 0.929 . S
H6001 C6010 0.930 . S
H6002 C6012 0.930 . S
H6003 C6015 0.929 . S
H6004 C6018 0.930 . S
H6005 C6020 0.960 . S
H6006 C6020 0.960 . S
H6007 C6020 0.960 . S
C6008 H6000 0.929 . S
C6008 C6009 1.377 . S
C6008 C6010 1.384 . S
C6009 C6008 1.377 . S
C6009 C6015 1.390 . S
C6010 H6001 0.930 . S
C6010 C6008 1.384 . S
C6010 C6011 1.372 . S
C6011 C6010 1.372 . S
C6011 C6012 1.400 . S
C6011 C6016 1.490 . S
C6012 H6002 0.930 . S
C6012 C6011 1.400 . S
C6012 C6015 1.386 . S
H6013 C6029 0.930 . S
H6014 C6030 0.931 . S
C6015 H6003 0.929 . S
C6015 C6009 1.390 . S
C6015 C6012 1.386 . S
C6016 C6011 1.490 . S
C6016 C6018 1.395 . S
C6016 C6019 1.403 . S
H6017 C6023 0.930 . S
C6018 H6004 0.930 . S
C6018 C6016 1.395 . S
C6018 C6021 1.403 . S
C6019 C6016 1.403 . S
C6019 C6020 1.524 . S
C6019 C6023 1.400 . S
C6020 H6005 0.960 . S
C6020 H6006 0.960 . S
C6020 H6007 0.960 . S
C6020 C6019 1.524 . S
C6021 C6018 1.403 . S
C6021 C6022 1.392 . S
C6021 C6025 1.495 . S
C6022 C6021 1.392 . S
C6022 C6023 1.385 . S
C6022 C6024 1.478 . S
C6023 H6017 0.930 . S
C6023 C6019 1.400 . S
C6023 C6022 1.385 . S
C6024 C6022 1.478 . S
C6024 C6026 1.381 . S
C6024 C6030 1.383 . S
C6025 C6021 1.495 . S
C6025 H6031 0.959 . S
C6025 H6032 0.961 . S
C6025 H6033 0.960 . S
C6026 C6024 1.381 . S
C6026 C6027 1.394 . S
C6026 H6034 0.930 . S
C6027 C6026 1.394 . S
C6027 C6028 1.383 . S
C6027 H6035 0.929 . S
C6028 C6027 1.383 . S
C6028 C6029 1.377 . S
C6029 H6013 0.930 . S
C6029 C6028 1.377 . S
C6029 C6030 1.379 . S
C6030 H6014 0.931 . S
C6030 C6024 1.383 . S
C6030 C6029 1.379 . S
H6031 C6025 0.959 . S
H6032 C6025 0.961 . S
H6033 C6025 0.960 . S
H6034 C6026 0.930 . S
H6035 C6027 0.929 . S
H6036 C6044 0.929 . S
H6037 C6046 0.930 . S
H6038 C6048 0.930 . S
H6039 C6051 0.929 . S
H6040 C6054 0.930 . S
H6041 C6056 0.960 . S
H6042 C6056 0.960 1_545 S
H6043 C6056 0.960 . S
C6044 H6036 0.929 . S
C6044 C6045 1.377 1_545 S
C6044 C6046 1.384 . S
C6045 C6044 1.377 1_565 S
C6045 C6051 1.390 . S
C6046 H6037 0.930 . S
C6046 C6044 1.384 . S
C6046 C6047 1.372 1_545 S
C6047 C6046 1.372 1_565 S
C6047 C6048 1.400 . S
C6047 C6052 1.490 1_565 S
C6048 H6038 0.930 . S
C6048 C6047 1.400 . S
C6048 C6051 1.386 . S
H6049 C6065 0.930 . S
H6050 C6066 0.931 . S
C6051 H6039 0.929 . S
C6051 C6045 1.390 . S
C6051 C6048 1.386 . S
C6052 C6047 1.490 1_545 S
C6052 C6054 1.395 . S
C6052 C6055 1.403 1_545 S
H6053 C6059 0.908 1_565 S
C6054 H6040 0.930 . S
C6054 C6052 1.395 . S
C6054 C6057 1.403 . S
C6055 C6052 1.403 1_565 S
C6055 C6056 1.524 . S
C6055 C6059 1.414 1_565 S
C6056 H6041 0.960 . S
C6056 H6042 0.960 1_565 S
C6056 H6043 0.960 . S
C6056 C6055 1.524 . S
C6057 C6054 1.403 . S
C6057 C6058 1.392 . S
C6057 C6061 1.495 . S
C6058 C6057 1.392 . S
C6058 C6059 1.393 . S
C6058 C6060 1.478 . S
C6059 H6053 0.908 1_545 S
C6059 C6055 1.414 1_545 S
C6059 C6058 1.393 . S
C6060 C6058 1.478 . S
C6060 C6062 1.381 . S
C6060 C6066 1.383 1_545 S
C6061 C6057 1.495 . S
C6061 H6067 0.959 . S
C6061 H6068 0.961 . S
C6061 H6069 0.960 . S
C6062 C6060 1.381 . S
C6062 C6063 1.394 . S
C6062 H6070 0.930 . S
C6063 C6062 1.394 . S
C6063 C6064 1.383 . S
C6063 H6071 0.929 . S
C6064 C6063 1.383 . S
C6064 C6065 1.377 1_545 S
C6065 H6049 0.930 . S
C6065 C6064 1.377 1_565 S
C6065 C6066 1.379 . S
C6066 H6050 0.931 . S
C6066 C6060 1.383 1_565 S
C6066 C6065 1.379 . S
H6067 C6061 0.959 . S
H6068 C6061 0.961 . S
H6069 C6061 0.960 . S
H6070 C6062 0.930 . S
H6071 C6063 0.929 . S
H6072 C6080 0.929 . S
H6073 C6082 0.930 . S
H6074 C6084 0.930 . S
H6075 C6087 0.929 . S
H6076 C6090 0.930 . S
H6077 C6092 0.960 . S
H6078 C6092 0.960 . S
H6079 C6092 0.960 . S
C6080 H6072 0.929 . S
C6080 C6081 1.377 . S
C6080 C6082 1.384 . S
C6081 C6080 1.377 . S
C6081 C6087 1.390 . S
C6082 H6073 0.930 . S
C6082 C6080 1.384 . S
C6082 C6083 1.372 . S
C6083 C6082 1.372 . S
C6083 C6084 1.400 . S
C6083 C6088 1.490 . S
C6084 H6074 0.930 . S
C6084 C6083 1.400 . S
C6084 C6087 1.386 . S
H6085 C6101 0.930 . S
H6086 C6102 0.931 . S
C6087 H6075 0.929 . S
C6087 C6081 1.390 . S
C6087 C6084 1.386 . S
C6088 C6083 1.490 . S
C6088 C6090 1.395 . S
C6088 C6091 1.403 . S
H6089 C6095 0.930 . S
C6090 H6076 0.930 . S
C6090 C6088 1.395 . S
C6090 C6093 1.403 . S
C6091 C6088 1.403 . S
C6091 C6092 1.524 . S
C6091 C6095 1.400 . S
C6092 H6077 0.960 . S
C6092 H6078 0.960 . S
C6092 H6079 0.960 . S
C6092 C6091 1.524 . S
C6093 C6090 1.403 . S
C6093 C6094 1.392 . S
C6093 C6097 1.495 . S
C6094 C6093 1.392 . S
C6094 C6095 1.385 . S
C6094 C6096 1.478 . S
C6095 H6089 0.930 . S
C6095 C6091 1.400 . S
C6095 C6094 1.385 . S
C6096 C6094 1.478 . S
C6096 C6098 1.381 . S
C6096 C6102 1.383 . S
C6097 C6093 1.495 . S
C6097 H6103 0.959 . S
C6097 H6104 0.961 . S
C6097 H6105 0.960 . S
C6098 C6096 1.381 . S
C6098 C6099 1.394 . S
C6098 H6106 0.930 . S
C6099 C6098 1.394 . S
C6099 C6100 1.383 . S
C6099 H6107 0.929 . S
C6100 C6099 1.383 . S
C6100 C6101 1.377 . S
C6101 H6085 0.930 . S
C6101 C6100 1.377 . S
C6101 C6102 1.379 . S
C6102 H6086 0.931 . S
C6102 C6096 1.383 . S
C6102 C6101 1.379 . S
H6103 C6097 0.959 . S
H6104 C6097 0.961 . S
H6105 C6097 0.960 . S
H6106 C6098 0.930 . S
H6107 C6099 0.929 . S
H6108 C6116 0.929 . S
H6109 C6118 0.930 . S
H6110 C6120 0.930 1_554 S
H6111 C6123 0.929 . S
H6112 C6126 0.930 . S
H6113 C6128 0.960 . S
H6114 C6128 0.960 . S
H6115 C6128 0.960 . S
C6116 H6108 0.929 . S
C6116 C6117 1.377 . S
C6116 C6118 1.384 . S
C6117 C6116 1.377 . S
C6117 C6123 1.390 . S
C6118 H6109 0.930 . S
C6118 C6116 1.384 . S
C6118 C6119 1.372 . S
C6119 C6118 1.372 . S
C6119 C6120 1.400 . S
C6119 C6124 1.490 . S
C6120 H6110 0.930 1_556 S
C6120 C6119 1.400 . S
C6120 C6123 1.386 . S
H6121 C6137 0.930 . S
H6122 C6138 0.931 . S
C6123 H6111 0.929 . S
C6123 C6117 1.390 . S
C6123 C6120 1.386 . S
C6124 C6119 1.490 . S
C6124 C6126 1.395 1_556 S
C6124 C6127 1.403 . S
H6125 C6131 0.930 . S
C6126 H6112 0.930 . S
C6126 C6124 1.395 1_554 S
C6126 C6129 1.403 . S
C6127 C6124 1.403 . S
C6127 C6128 1.524 . S
C6127 C6131 1.400 . S
C6128 H6113 0.960 . S
C6128 H6114 0.960 . S
C6128 H6115 0.960 . S
C6128 C6127 1.524 . S
C6129 C6126 1.403 . S
C6129 C6130 1.392 . S
C6129 C6133 1.495 . S
C6130 C6129 1.392 . S
C6130 C6131 1.385 1_554 S
C6130 C6132 1.478 . S
C6131 H6125 0.930 . S
C6131 C6127 1.400 . S
C6131 C6130 1.385 1_556 S
C6132 C6130 1.478 . S
C6132 C6134 1.381 . S
C6132 C6138 1.383 . S
C6133 C6129 1.495 . S
C6133 H6139 0.959 . S
C6133 H6140 0.961 . S
C6133 H6141 0.960 . S
C6134 C6132 1.381 . S
C6134 C6135 1.394 . S
C6134 H6142 0.930 1_554 S
C6135 C6134 1.394 . S
C6135 C6136 1.383 . S
C6135 H6143 0.929 . S
C6136 C6135 1.383 . S
C6136 C6137 1.377 . S
C6137 H6121 0.930 . S
C6137 C6136 1.377 . S
C6137 C6138 1.379 . S
C6138 H6122 0.931 . S
C6138 C6132 1.383 . S
C6138 C6137 1.379 . S
H6139 C6133 0.959 . S
H6140 C6133 0.961 . S
H6141 C6133 0.960 . S
H6142 C6134 0.930 1_556 S
H6143 C6135 0.929 . S
H6144 C6152 0.929 . S
H6145 C6154 0.930 . S
H6146 C6156 0.930 . S
H6147 C6159 0.929 . S
H6148 C6162 0.930 . S
H6149 C6164 0.960 . S
H6150 C6164 0.960 . S
H6151 C6164 0.960 . S
C6152 H6144 0.929 . S
C6152 C6153 1.377 . S
C6152 C6154 1.384 . S
C6153 C6152 1.377 . S
C6153 C6159 1.390 . S
C6154 H6145 0.930 . S
C6154 C6152 1.384 . S
C6154 C6155 1.372 . S
C6155 C6154 1.372 . S
C6155 C6156 1.400 . S
C6155 C6160 1.490 . S
C6156 H6146 0.930 . S
C6156 C6155 1.400 . S
C6156 C6159 1.386 . S
H6157 C6173 0.930 . S
H6158 C6174 0.931 . S
C6159 H6147 0.929 . S
C6159 C6153 1.390 . S
C6159 C6156 1.386 . S
C6160 C6155 1.490 . S
C6160 C6162 1.395 . S
C6160 C6163 1.403 . S
H6161 C6167 0.930 . S
C6162 H6148 0.930 . S
C6162 C6160 1.395 . S
C6162 C6165 1.403 . S
C6163 C6160 1.403 . S
C6163 C6164 1.524 . S
C6163 C6167 1.400 . S
C6164 H6149 0.960 . S
C6164 H6150 0.960 . S
C6164 H6151 0.960 . S
C6164 C6163 1.524 . S
C6165 C6162 1.403 . S
C6165 C6166 1.392 . S
C6165 C6169 1.495 . S
C6166 C6165 1.392 . S
C6166 C6167 1.385 . S
C6166 C6168 1.478 . S
C6167 H6161 0.930 . S
C6167 C6163 1.400 . S
C6167 C6166 1.385 . S
C6168 C6166 1.478 . S
C6168 C6170 1.381 . S
C6168 C6174 1.383 . S
C6169 C6165 1.495 . S
C6169 H6175 0.959 . S
C6169 H6176 0.961 . S
C6169 H6177 0.960 . S
C6170 C6168 1.381 . S
C6170 C6171 1.394 . S
C6170 H6178 0.930 . S
C6171 C6170 1.394 . S
C6171 C6172 1.383 . S
C6171 H6179 0.929 . S
C6172 C6171 1.383 . S
C6172 C6173 1.377 . S
C6173 H6157 0.930 . S
C6173 C6172 1.377 . S
C6173 C6174 1.379 . S
C6174 H6158 0.931 . S
C6174 C6168 1.383 . S
C6174 C6173 1.379 . S
H6175 C6169 0.959 . S
H6176 C6169 0.961 . S
H6177 C6169 0.960 . S
H6178 C6170 0.930 . S
H6179 C6171 0.929 . S
H6180 C6188 0.929 . S
H6181 C6190 0.930 . S
H6182 C6192 0.930 . S
H6183 C6195 0.929 . S
H6184 C6198 0.930 . S
H6185 C6200 0.960 . S
H6186 C6200 0.960 . S
H6187 C6200 0.960 . S
C6188 H6180 0.929 . S
C6188 C6189 1.377 . S
C6188 C6190 1.384 . S
C6189 C6188 1.377 . S
C6189 C6195 1.390 . S
C6190 H6181 0.930 . S
C6190 C6188 1.384 . S
C6190 C6191 1.372 . S
C6191 C6190 1.372 . S
C6191 C6192 1.400 . S
C6191 C6196 1.490 . S
C6192 H6182 0.930 . S
C6192 C6191 1.400 . S
C6192 C6195 1.386 . S
H6193 C6209 0.930 . S
H6194 C6210 0.931 . S
C6195 H6183 0.929 . S
C6195 C6189 1.390 . S
C6195 C6192 1.386 . S
C6196 C6191 1.490 . S
C6196 C6198 1.395 . S
C6196 C6199 1.403 . S
H6197 C6203 0.930 . S
C6198 H6184 0.930 . S
C6198 C6196 1.395 . S
C6198 C6201 1.403 . S
C6199 C6196 1.403 . S
C6199 C6200 1.524 . S
C6199 C6203 1.400 . S
C6200 H6185 0.960 . S
C6200 H6186 0.960 . S
C6200 H6187 0.960 . S
C6200 C6199 1.524 . S
C6201 C6198 1.403 . S
C6201 C6202 1.392 . S
C6201 C6205 1.495 . S
C6202 C6201 1.392 . S
C6202 C6203 1.385 . S
C6202 C6204 1.478 . S
C6203 H6197 0.930 . S
C6203 C6199 1.400 . S
C6203 C6202 1.385 . S
C6204 C6202 1.478 . S
C6204 C6206 1.381 . S
C6204 C6210 1.383 . S
C6205 C6201 1.495 . S
C6205 H6211 0.959 . S
C6205 H6212 0.961 . S
C6205 H6213 0.960 . S
C6206 C6204 1.381 . S
C6206 C6207 1.394 . S
C6206 H6214 0.930 . S
C6207 C6206 1.394 . S
C6207 C6208 1.383 . S
C6207 H6215 0.929 . S
C6208 C6207 1.383 . S
C6208 C6209 1.377 . S
C6209 H6193 0.930 . S
C6209 C6208 1.377 . S
C6209 C6210 1.379 . S
C6210 H6194 0.931 . S
C6210 C6204 1.383 . S
C6210 C6209 1.379 . S
H6211 C6205 0.959 . S
H6212 C6205 0.961 . S
H6213 C6205 0.960 . S
H6214 C6206 0.930 . S
H6215 C6207 0.929 . S
H6216 C6224 0.929 . S
H6217 C6226 0.930 . S
H6218 C6228 0.930 . S
H6219 C6231 0.929 . S
H6220 C6234 0.930 . S
H6221 C6236 0.960 . S
H6222 C6236 0.960 . S
H6223 C6236 0.960 . S
C6224 H6216 0.929 . S
C6224 C6225 1.377 . S
C6224 C6226 1.384 . S
C6225 C6224 1.377 . S
C6225 C6231 1.390 . S
C6226 H6217 0.930 . S
C6226 C6224 1.384 . S
C6226 C6227 1.372 . S
C6227 C6226 1.372 . S
C6227 C6228 1.400 . S
C6227 C6232 1.490 . S
C6228 H6218 0.930 . S
C6228 C6227 1.400 . S
C6228 C6231 1.386 . S
H6229 C6245 0.930 . S
H6230 C6246 0.931 . S
C6231 H6219 0.929 . S
C6231 C6225 1.390 . S
C6231 C6228 1.386 . S
C6232 C6227 1.490 . S
C6232 C6234 1.395 . S
C6232 C6235 1.403 . S
H6233 C6239 0.930 . S
C6234 H6220 0.930 . S
C6234 C6232 1.395 . S
C6234 C6237 1.403 . S
C6235 C6232 1.403 . S
C6235 C6236 1.524 . S
C6235 C6239 1.400 . S
C6236 H6221 0.960 . S
C6236 H6222 0.960 . S
C6236 H6223 0.960 . S
C6236 C6235 1.524 . S
C6237 C6234 1.403 . S
C6237 C6238 1.392 . S
C6237 C6241 1.495 . S
C6238 C6237 1.392 . S
C6238 C6239 1.385 . S
C6238 C6240 1.478 . S
C6239 H6233 0.930 . S
C6239 C6235 1.400 . S
C6239 C6238 1.385 . S
C6240 C6238 1.478 . S
C6240 C6242 1.381 . S
C6240 C6246 1.383 . S
C6241 C6237 1.495 . S
C6241 H6247 0.959 . S
C6241 H6248 0.961 . S
C6241 H6249 0.960 . S
C6242 C6240 1.381 . S
C6242 C6243 1.394 . S
C6242 H6250 0.930 . S
C6243 C6242 1.394 . S
C6243 C6244 1.383 . S
C6243 H6251 0.929 . S
C6244 C6243 1.383 . S
C6244 C6245 1.377 . S
C6245 H6229 0.930 . S
C6245 C6244 1.377 . S
C6245 C6246 1.379 . S
C6246 H6230 0.931 . S
C6246 C6240 1.383 . S
C6246 C6245 1.379 . S
H6247 C6241 0.959 . S
H6248 C6241 0.961 . S
H6249 C6241 0.960 . S
H6250 C6242 0.930 . S
H6251 C6243 0.929 . S
H6252 C6260 0.929 . S
H6253 C6262 0.930 . S
H6254 C6264 0.930 . S
H6255 C6267 0.929 . S
H6256 C6270 0.930 . S
H6257 C6272 0.960 . S
H6258 C6272 0.960 . S
H6259 C6272 0.960 . S
C6260 H6252 0.929 . S
C6260 C6261 1.377 . S
C6260 C6262 1.384 . S
C6261 C6260 1.377 . S
C6261 C6267 1.390 . S
C6262 H6253 0.930 . S
C6262 C6260 1.384 . S
C6262 C6263 1.372 . S
C6263 C6262 1.372 . S
C6263 C6264 1.400 . S
C6263 C6268 1.490 . S
C6264 H6254 0.930 . S
C6264 C6263 1.400 . S
C6264 C6267 1.386 . S
H6265 C6281 0.930 . S
H6266 C6282 0.931 . S
C6267 H6255 0.929 . S
C6267 C6261 1.390 . S
C6267 C6264 1.386 . S
C6268 C6263 1.490 . S
C6268 C6270 1.395 . S
C6268 C6271 1.403 . S
H6269 C6275 0.930 . S
C6270 H6256 0.930 . S
C6270 C6268 1.395 . S
C6270 C6273 1.403 . S
C6271 C6268 1.403 . S
C6271 C6272 1.524 . S
C6271 C6275 1.400 . S
C6272 H6257 0.960 . S
C6272 H6258 0.960 . S
C6272 H6259 0.960 . S
C6272 C6271 1.524 . S
C6273 C6270 1.403 . S
C6273 C6274 1.392 . S
C6273 C6277 1.495 . S
C6274 C6273 1.392 . S
C6274 C6275 1.385 . S
C6274 C6276 1.478 . S
C6275 H6269 0.930 . S
C6275 C6271 1.400 . S
C6275 C6274 1.385 . S
C6276 C6274 1.478 . S
C6276 C6278 1.381 . S
C6276 C6282 1.383 . S
C6277 C6273 1.495 . S
C6277 H6283 0.959 . S
C6277 H6284 0.961 . S
C6277 H6285 0.960 . S
C6278 C6276 1.381 . S
C6278 C6279 1.394 . S
C6278 H6286 0.930 . S
C6279 C6278 1.394 . S
C6279 C6280 1.383 . S
C6279 H6287 0.929 . S
C6280 C6279 1.383 . S
C6280 C6281 1.377 . S
C6281 H6265 0.930 . S
C6281 C6280 1.377 . S
C6281 C6282 1.379 . S
C6282 H6266 0.931 . S
C6282 C6276 1.383 . S
C6282 C6281 1.379 . S
H6283 C6277 0.959 . S
H6284 C6277 0.961 . S
H6285 C6277 0.960 . S
H6286 C6278 0.930 . S
H6287 C6279 0.929 . S
C2841 C418 1.555 . S
C2860 C5 1.511 . S
C2877 C64 1.897 . S
C2896 C241 1.979 . S
C2913 C123 1.508 . S
C2932 C300 1.491 . S
C2949 C359 1.073 . S
C2968 C182 1.088 . S
C2985 C1185 1.554 . S
C3004 C477 1.514 . S
C3021 C536 1.092 . S
C3040 C2424 1.089 . S
C3057 C2483 2.213 . S
C3076 C595 2.209 . S
C3093 C654 1.845 1_556 S
C3112 C2542 1.852 . S
C3129 C713 1.856 . S
C3148 C2778 1.853 1_565 S
C3165 C772 1.742 . S
C3184 C1244 1.770 . S
C3201 C2719 1.896 . S
C3220 C831 1.972 . S
C3237 C890 1.553 . S
C3256 C949 1.546 . S
C3273 C1952 2.216 . S
C3292 C1008 2.216 . S
C3309 C1067 1.093 . S
C3328 C2011 1.044 . S
C3345 C1126 1.509 . S
C3364 C2070 1.492 . S
C3381 C2247 1.782 . S
C3400 C1303 1.720 . S
C3417 C2129 1.507 . S
C3436 C1362 1.511 . S
C3453 C1421 1.919 . S
C3472 C1834 1.927 . S
C3489 C1480 1.741 . S
C3508 C1657 1.776 . S
C3525 C1716 1.847 1_655 S
C3544 C1539 1.860 . S
C3561 C1598 2.211 . S
C3580 C1775 2.236 . S
C3597 C1893 1.918 . S
C3616 C2601 1.928 . S
C3633 C2188 1.898 . S
C3652 C2660 1.958 . S
C3669 C2365 1.922 . S
C3688 C2306 1.910 . S
C3705 C1232 0.487 . S
C3724 C2688 0.732 . S
C3741 C2471 1.221 . S
C3760 C1331 1.257 . S
C3777 C2530 1.100 . S
C3796 C2393 1.129 . S
C3813 C2589 0.752 . S
C3832 C1390 0.448 . S
C3849 C2825 0.334 . S
C3868 C1154 0.980 . S
C3885 C1291 0.866 . S
C3904 C2629 0.727 . S
C3921 C2766 1.177 . S
C3940 C1036 1.019 . S
C3957 C996 0.799 . S
C3976 C1095 0.502 . S
C3993 C937 0.478 . S
C4012 C269 0.774 . S
C4029 C760 0.784 . S
C4048 C328 0.617 . S
C4065 C819 0.951 . S
C4084 C387 0.817 . S
C4101 C878 0.668 . S
C4120 C446 0.788 . S
C4137 C583 0.815 . S
C4156 C33 0.416 . S
C4173 C642 0.481 . S
C4192 C92 1.067 . S
C4209 C701 0.348 . S
C4228 C151 1.005 . S
C4245 C524 0.796 . S
C4264 C210 0.489 . S
C4281 C465 0.469 . S
C4300 C859 0.834 . S
C4317 C1527 0.952 . S
C4336 C2039 0.928 . S
C4353 C1586 0.773 . S
C4372 C2098 0.593 . S
C4389 C1645 1.124 . S
C4408 C1921 1.099 . S
C4425 C52 0.815 . S
C4444 C564 0.604 . S
C4461 C347 0.689 . S
C4480 C741 0.537 . S
C4497 C1822 0.480 . S
C4516 C2216 1.137 . S
C4533 C1704 0.865 . S
C4552 C2334 0.750 . S
C4569 C2648 0.668 . S
C4588 C1272 0.663 . S
C4605 C1055 0.481 . S
C4624 C2747 1.066 . S
C4641 C1114 0.813 . S
C4660 C977 0.387 . S
C4677 C1173 0.338 . S
C4696 C2806 0.740 1_455 S
C4713 C1409 0.714 . S
C4732 C2570 0.708 . S
C4749 C2707 0.632 . S
C4768 C1213 0.774 . S
C4785 C1350 0.968 . S
C4804 C2452 0.808 . S
C4821 C2412 0.618 . S
C4840 C2511 0.742 . S
C4857 C2353 0.658 . S
C4876 C1685 0.703 . S
C4893 C2176 0.321 . S
C4912 C1744 0.753 1_554 S
C4929 C2235 1.178 . S
C4948 C1803 0.978 . S
C4965 C2294 0.872 . S
C4984 C1862 0.724 . S
C5001 C1999 1.099 . S
C5020 C1449 1.122 . S
C5037 C2058 1.230 . S
C5056 C1508 1.317 . S
C5073 C2117 0.694 . S
C5092 C1567 0.633 . S
C5109 C1940 0.622 . S
C5128 C1626 0.762 . S
C5145 C1881 0.692 . S
C5164 C2275 0.550 . S
C5181 C111 1.167 . S
C5200 C623 0.922 . S
C5217 C170 0.341 . S
C5236 C682 0.873 1_545 S
C5253 C229 0.817 . S
C5272 C505 0.403 . S
C5289 C1468 0.599 . S
C5308 C1980 0.661 . S
C5325 C1763 0.347 . S
C5344 C2157 0.858 . S
C5361 C406 1.220 . S
C5380 C800 1.272 . S
C5397 C288 0.672 . S
C5416 C918 0.712 . S
C5433 C1301 1.323 . S
C5452 C1065 1.354 . S
C5469 C2363 1.574 . S
C5488 C1124 1.578 . S
C5505 C2599 2.032 . S
C5524 C1360 2.029 . S
C5541 C1006 1.023 . S
C5560 C2658 1.072 . S
C5577 C770 1.322 . S
C5596 C534 1.351 . S
C5613 C593 1.010 . S
C5632 C829 1.053 . S
C5649 C888 1.813 . S
C5668 C652 1.771 . S
C5685 C475 1.310 . S
C5704 C711 1.334 . S
C5721 C1478 1.326 . S
C5740 C180 1.355 . S
C5757 C416 1.815 . S
C5776 C1714 1.797 . S
C5793 C1773 1.026 . S
C5812 C239 1.054 . S
C5829 C1832 2.033 . S
C5848 C298 2.030 . S
C5865 C62 1.134 . S
C5884 C1596 1.127 . S
C5901 C3 1.310 . S
C5920 C1537 1.333 . S
C5937 C1419 1.574 . S
C5956 C121 1.577 . S
C5973 C2717 1.117 . S
C5992 C2481 1.174 . S
C6009 C947 1.309 . S
C6028 C2540 1.332 . S
C6045 C1183 1.808 . S
C6064 C2776 1.779 . S
C6081 C2422 1.290 . S
C6100 C1242 1.363 . S
C6117 C2186 1.134 . S
C6136 C1950 1.151 . S
C6153 C2009 1.288 . S
C6172 C2245 1.361 . S
C6189 C2304 2.034 . S
C6208 C2068 2.036 . S
C6225 C1891 1.574 . S
C6244 C2127 1.577 . S
C6261 C357 1.289 . S
C6280 C1655 1.362 . S
