# Generated by pormake.
# Topology acs-g, (3)-cn, num edge types: 1
# Building blocks:
#     Node 0, Type 0, BuildingBlock: OLANEW_clean_sbu_2, # of connection points: 3
#     Node 1, Type 0, BuildingBlock: OLANEW_clean_sbu_2, # of connection points: 3
#     Node 2, Type 0, BuildingBlock: OLANEW_clean_sbu_2, # of connection points: 3
#     Node 3, Type 0, BuildingBlock: OLANEW_clean_sbu_2, # of connection points: 3
#     Node 4, Type 0, BuildingBlock: OLANEW_clean_sbu_2, # of connection points: 3
#     Node 5, Type 0, BuildingBlock: OLANEW_clean_sbu_2, # of connection points: 3
#     Node 6, Type 0, BuildingBlock: OLANEW_clean_sbu_2, # of connection points: 3
#     Node 7, Type 0, BuildingBlock: OLANEW_clean_sbu_2, # of connection points: 3
#     Node 8, Type 0, BuildingBlock: OLANEW_clean_sbu_2, # of connection points: 3
#     Node 9, Type 0, BuildingBlock: OLANEW_clean_sbu_2, # of connection points: 3
#     Node 10, Type 0, BuildingBlock: OLANEW_clean_sbu_2, # of connection points: 3
#     Node 11, Type 0, BuildingBlock: OLANEW_clean_sbu_2, # of connection points: 3
#     Edge 12, Type (0, 0), BuildingBlock: FUNLAD_clean_linker_1, # of connection points: 2
#     Edge 13, Type (0, 0), BuildingBlock: FUNLAD_clean_linker_1, # of connection points: 2
#     Edge 14, Type (0, 0), BuildingBlock: FUNLAD_clean_linker_1, # of connection points: 2
#     Edge 15, Type (0, 0), BuildingBlock: FUNLAD_clean_linker_1, # of connection points: 2
#     Edge 16, Type (0, 0), BuildingBlock: FUNLAD_clean_linker_1, # of connection points: 2
#     Edge 17, Type (0, 0), BuildingBlock: FUNLAD_clean_linker_1, # of connection points: 2
#     Edge 18, Type (0, 0), BuildingBlock: FUNLAD_clean_linker_1, # of connection points: 2
#     Edge 19, Type (0, 0), BuildingBlock: FUNLAD_clean_linker_1, # of connection points: 2
#     Edge 20, Type (0, 0), BuildingBlock: FUNLAD_clean_linker_1, # of connection points: 2
#     Edge 21, Type (0, 0), BuildingBlock: FUNLAD_clean_linker_1, # of connection points: 2
#     Edge 22, Type (0, 0), BuildingBlock: FUNLAD_clean_linker_1, # of connection points: 2
#     Edge 23, Type (0, 0), BuildingBlock: FUNLAD_clean_linker_1, # of connection points: 2
#     Edge 24, Type (0, 0), BuildingBlock: FUNLAD_clean_linker_1, # of connection points: 2
#     Edge 25, Type (0, 0), BuildingBlock: FUNLAD_clean_linker_1, # of connection points: 2
#     Edge 26, Type (0, 0), BuildingBlock: FUNLAD_clean_linker_1, # of connection points: 2
#     Edge 27, Type (0, 0), BuildingBlock: FUNLAD_clean_linker_1, # of connection points: 2
#     Edge 28, Type (0, 0), BuildingBlock: FUNLAD_clean_linker_1, # of connection points: 2
#     Edge 29, Type (0, 0), BuildingBlock: FUNLAD_clean_linker_1, # of connection points: 2
# Relax obj value: 0.001
# Max RMSD: 0.044
# Mean RMSD: 0.044
data_MOF--net-acs-g--node1-OLANEW_clean_sbu_2--edge1-FUNLAD_clean_linker_1
_symmetry_space_group_name_H-M    P1
_symmetry_Int_Tables_number       1
_symmetry_cell_setting            triclinic
loop_
_symmetry_equiv_pos_as_xyz
'x, y, z'
_cell_length_a     58.610737
_cell_length_b     58.136682
_cell_length_c     48.453697
_cell_angle_alpha  89.916788
_cell_angle_beta   89.883646
_cell_angle_gamma 120.38647
loop_
_atom_site_label
_atom_site_type_symbol
_atom_site_fract_x
_atom_site_fract_y
_atom_site_fract_z
_atom_type_partial_charge
O0 O 0.37007 0.42843 0.19167 0.0
Cd1 Cd 0.33198 0.40153 0.16176 0.0
O2 O 0.34892 0.40653 0.22928 0.0
Cd3 Cd 0.3099 0.38463 0.21017 0.0
O4 O 0.26879 0.37526 0.20778 0.0
C5 C 0.25731 0.37361 0.23058 0.0
O6 O 0.27009 0.37637 0.25373 0.0
C7 C 0.36992 0.42422 0.21748 0.0
C8 C 0.34531 0.39941 0.10675 0.0
O9 O 0.34077 0.41764 0.115 0.0
O10 O 0.34392 0.38235 0.12447 0.0
O11 O 0.91859 0.38303 0.66859 0.0
Cd12 Cd 0.90886 0.34197 0.6447 0.0
O13 O 0.91766 0.36714 0.71018 0.0
Cd14 Cd 0.9023 0.32601 0.69685 0.0
O15 O 0.87189 0.28377 0.69823 0.0
C16 C 0.86304 0.27381 0.72192 0.0
O17 O 0.87337 0.28875 0.74389 0.0
C18 C 0.92141 0.38635 0.69455 0.0
C19 C 0.92457 0.35107 0.58938 0.0
O20 O 0.90146 0.34599 0.59665 0.0
O21 O 0.94036 0.35193 0.60817 0.0
O22 O 0.53323 0.9405 0.18129 0.0
Cd23 Cd 0.56898 0.93503 0.1625 0.0
O24 O 0.53759 0.93059 0.22417 0.0
Cd25 Cd 0.56643 0.91836 0.21496 0.0
O26 O 0.58174 0.89101 0.21725 0.0
C27 C 0.57343 0.8747 0.23736 0.0
O28 O 0.55722 0.87578 0.25539 0.0
C29 C 0.52645 0.9379 0.20654 0.0
C30 C 0.58403 0.95843 0.1103 0.0
O31 O 0.56608 0.93386 0.11303 0.0
O32 O 0.59501 0.97189 0.13211 0.0
O33 O 0.58121 0.5432 0.69216 0.0
Cd34 Cd 0.62042 0.57111 0.66384 0.0
O35 O 0.60316 0.55363 0.73148 0.0
Cd36 Cd 0.64338 0.57654 0.71504 0.0
O37 O 0.68484 0.58762 0.71999 0.0
C38 C 0.69796 0.6029 0.73982 0.0
O39 O 0.68693 0.61305 0.75542 0.0
C40 C 0.5815 0.54146 0.71833 0.0
C41 C 0.60817 0.57352 0.60852 0.0
O42 O 0.61308 0.55558 0.61693 0.0
O43 O 0.60886 0.59027 0.62617 0.0
O44 O 0.0243 0.59489 0.19197 0.0
Cd45 Cd 0.03496 0.63525 0.16583 0.0
O46 O 0.02117 0.61139 0.23182 0.0
Cd47 Cd 0.03845 0.65244 0.21728 0.0
O48 O 0.0718 0.69275 0.22375 0.0
C49 C 0.08916 0.69369 0.24016 0.0
O50 O 0.08574 0.67142 0.25092 0.0
C51 C 0.0191 0.59204 0.21769 0.0
C52 C 0.00883 0.6237 0.11513 0.0
O53 O 0.03182 0.62628 0.11711 0.0
O54 O -0.00183 0.62651 0.13698 0.0
O55 O 0.41498 0.03598 0.68102 0.0
Cd56 Cd 0.38647 0.05003 0.65892 0.0
O57 O 0.41509 0.05258 0.72196 0.0
Cd58 Cd 0.39033 0.06956 0.71174 0.0
O59 O 0.37915 0.0999 0.7175 0.0
C60 C 0.39737 0.124 0.71411 0.0
O61 O 0.4209 0.12913 0.70609 0.0
C62 C 0.42254 0.04027 0.706 0.0
C63 C 0.36639 0.02351 0.60898 0.0
O64 O 0.38973 0.0439 0.61039 0.0
O65 O 0.35238 0.01567 0.63104 0.0
O66 O 0.53137 0.58781 0.32915 0.0
Cd67 Cd 0.55927 0.62674 0.35791 0.0
O68 O 0.54452 0.61084 0.29032 0.0
Cd69 Cd 0.56702 0.6504 0.30884 0.0
O70 O 0.57663 0.69198 0.31042 0.0
C71 C 0.58007 0.70384 0.28741 0.0
O72 O 0.57903 0.69119 0.26456 0.0
C73 C 0.53101 0.58876 0.30291 0.0
C74 C 0.56258 0.61412 0.41293 0.0
O75 O 0.54444 0.61877 0.40509 0.0
O76 O 0.57902 0.61511 0.3948 0.0
O77 O 0.92541 0.54196 0.83839 0.0
Cd78 Cd 0.91741 0.57508 0.86047 0.0
O79 O 0.91096 0.54446 0.79708 0.0
Cd80 Cd 0.89622 0.57134 0.80687 0.0
O81 O 0.86823 0.58479 0.79773 0.0
C82 C 0.86638 0.59019 0.77267 0.0
O83 O 0.88208 0.58892 0.75415 0.0
C84 C 0.92123 0.53493 0.81322 0.0
C85 C 0.94316 0.59061 0.91137 0.0
O86 O 0.91937 0.571 0.90971 0.0
O87 O 0.95473 0.60299 0.88914 0.0
O88 O 0.36367 0.92639 0.33874 0.0
Cd89 Cd 0.3219 0.91238 0.36282 0.0
O90 O 0.34845 0.92067 0.29617 0.0
Cd91 Cd 0.30668 0.90371 0.30663 0.0
O92 O 0.2651 0.87552 0.29747 0.0
C93 C 0.25674 0.87656 0.27356 0.0
O94 O 0.27272 0.89521 0.25625 0.0
C95 C 0.36757 0.92764 0.31284 0.0
C96 C 0.3318 0.93247 0.41654 0.0
O97 O 0.3321 0.91119 0.41053 0.0
O98 O 0.3266 0.94426 0.3973 0.0
O99 O 0.41624 0.38186 0.82571 0.0
Cd100 Cd 0.38826 0.3432 0.85505 0.0
O101 O 0.39327 0.36281 0.78812 0.0
Cd102 Cd 0.37008 0.32294 0.80599 0.0
O103 O 0.35994 0.28123 0.80385 0.0
C104 C 0.36675 0.27486 0.78154 0.0
O105 O 0.37836 0.29301 0.76214 0.0
C106 C 0.41185 0.38297 0.80016 0.0
C107 C 0.38647 0.35621 0.91024 0.0
O108 O 0.40406 0.35096 0.90179 0.0
O109 O 0.36988 0.35563 0.89266 0.0
O110 O 0.02169 0.42472 0.31389 0.0
Cd111 Cd 0.031 0.39477 0.34089 0.0
O112 O 0.02457 0.40864 0.27367 0.0
Cd113 Cd 0.03976 0.38397 0.29011 0.0
O114 O 0.06891 0.37107 0.29206 0.0
C115 C 0.08543 0.37881 0.27226 0.0
O116 O 0.08361 0.39318 0.25235 0.0
C117 C 0.01993 0.42428 0.2877 0.0
C118 C 0.01523 0.39104 0.39596 0.0
O119 O 0.03859 0.40866 0.38829 0.0
O120 O -0.00076 0.3752 0.37769 0.0
O121 O 0.57973 0.03125 0.83132 0.0
Cd122 Cd 0.62151 0.03986 0.85167 0.0
O123 O 0.59615 0.04464 0.78953 0.0
Cd124 Cd 0.63731 0.05848 0.80019 0.0
O125 O 0.67984 0.08694 0.79828 0.0
C126 C 0.68791 0.10184 0.77704 0.0
O127 O 0.67079 0.0987 0.75781 0.0
C128 C 0.5766 0.03502 0.80611 0.0
C129 C 0.6133 0.0157 0.90342 0.0
O130 O 0.617 0.03931 0.90097 0.0
O131 O 0.61363 0.00355 0.88153 0.0
H132 H 0.22178 0.37063 0.21122 0.0
C133 C 0.23098 0.37115 0.23086 0.0
H134 H 0.22858 0.37286 0.27423 0.0
H135 H 0.15933 0.42757 0.27236 0.0
H136 H 0.20171 0.46418 0.28726 0.0
H137 H 0.24144 0.45982 0.2873 0.0
H138 H 0.23906 0.41885 0.2725 0.0
C139 C 0.21908 0.37134 0.25454 0.0
C140 C 0.19484 0.37351 0.25462 0.0
C141 C 0.19661 0.39762 0.26341 0.0
C142 C 0.17377 0.40024 0.26316 0.0
C143 C 0.1761 0.42457 0.27196 0.0
C144 C 0.2003 0.44574 0.2806 0.0
C145 C 0.22266 0.44328 0.28065 0.0
C146 C 0.22098 0.41959 0.27214 0.0
H147 H 0.10818 0.36116 0.28932 0.0
C148 C 0.10707 0.3728 0.27235 0.0
H149 H 0.12548 0.3947 0.23608 0.0
H150 H 0.18407 0.32377 0.23896 0.0
H151 H 0.14169 0.28729 0.22378 0.0
H152 H 0.10239 0.29236 0.22199 0.0
H153 H 0.10516 0.33387 0.23563 0.0
C154 C 0.12584 0.38228 0.25265 0.0
C155 C 0.14919 0.37873 0.25424 0.0
C156 C 0.1473 0.35449 0.24582 0.0
C157 C 0.17012 0.35178 0.24623 0.0
C158 C 0.16753 0.32712 0.2384 0.0
C159 C 0.14329 0.30598 0.22977 0.0
C160 C 0.12115 0.30882 0.22881 0.0
C161 C 0.12301 0.33274 0.23672 0.0
H162 H 0.72918 0.12602 0.79166 0.0
C163 C 0.71574 0.12353 0.77499 0.0
H164 H 0.71081 0.1393 0.73762 0.0
H165 H 0.80077 0.25693 0.7641 0.0
H166 H 0.7622 0.25938 0.77756 0.0
H167 H 0.7182 0.21874 0.78039 0.0
H168 H 0.71251 0.1754 0.76972 0.0
C169 C 0.72431 0.14097 0.75388 0.0
C170 C 0.75121 0.165 0.75369 0.0
C171 C 0.75424 0.19016 0.76016 0.0
C172 C 0.77964 0.21353 0.75878 0.0
C173 C 0.782 0.23845 0.76507 0.0
C174 C 0.76 0.24017 0.77279 0.0
C175 C 0.73523 0.2173 0.77435 0.0
C176 C 0.73225 0.19255 0.76812 0.0
H177 H 0.83056 0.23583 0.70556 0.0
C178 C 0.83965 0.24681 0.72437 0.0
H179 H 0.83665 0.24777 0.76774 0.0
H180 H 0.75212 0.11993 0.73957 0.0
H181 H 0.79089 0.11723 0.72727 0.0
H182 H 0.83519 0.15761 0.72625 0.0
H183 H 0.841 0.20098 0.73726 0.0
C184 C 0.82829 0.2365 0.74891 0.0
C185 C 0.80198 0.21172 0.75082 0.0
C186 C 0.79904 0.18648 0.74487 0.0
C187 C 0.77357 0.1631 0.74609 0.0
C188 C 0.77107 0.13824 0.73938 0.0
C189 C 0.79314 0.13642 0.73225 0.0
C190 C 0.81809 0.15917 0.73163 0.0
C191 C 0.82113 0.18395 0.73787 0.0
H192 H 0.58119 0.73925 0.30561 0.0
C193 C 0.58236 0.73031 0.28636 0.0
H194 H 0.584 0.73324 0.24288 0.0
H195 H 0.52734 0.8006 0.23628 0.0
H196 H 0.49296 0.75767 0.21939 0.0
H197 H 0.49837 0.7183 0.22144 0.0
H198 H 0.53817 0.7216 0.24032 0.0
C199 C 0.58384 0.74252 0.26228 0.0
C200 C 0.58104 0.76655 0.26099 0.0
C201 C 0.55763 0.76426 0.24982 0.0
C202 C 0.55439 0.78688 0.24885 0.0
C203 C 0.53077 0.78401 0.23767 0.0
C204 C 0.51087 0.75949 0.22787 0.0
C205 C 0.51393 0.73733 0.229 0.0
C206 C 0.53694 0.73954 0.23985 0.0
H207 H 0.5935 0.85307 0.22369 0.0
C208 C 0.58055 0.85376 0.23935 0.0
H209 H 0.55663 0.8348 0.27429 0.0
H210 H 0.6293 0.77839 0.2814 0.0
H211 H 0.66354 0.82132 0.29854 0.0
H212 H 0.65733 0.86025 0.29808 0.0
H213 H 0.61692 0.85654 0.28023 0.0
C214 C 0.57033 0.8349 0.25908 0.0
C215 C 0.57459 0.81178 0.25894 0.0
C216 C 0.59815 0.81421 0.26977 0.0
C217 C 0.60148 0.7916 0.27061 0.0
C218 C 0.62548 0.79474 0.2809 0.0
C219 C 0.64534 0.8193 0.29067 0.0
C220 C 0.64187 0.84124 0.29037 0.0
C221 C 0.61859 0.83885 0.28005 0.0
H222 H 0.73406 0.61967 0.76516 0.0
C223 C 0.72413 0.60702 0.7475 0.0
H224 H 0.72447 0.58032 0.71829 0.0
H225 H 0.84822 0.64386 0.76666 0.0
H226 H 0.85272 0.68332 0.74429 0.0
H227 H 0.81442 0.68238 0.72209 0.0
H228 H 0.77129 0.64208 0.72247 0.0
C229 C 0.73482 0.59401 0.7351 0.0
C230 C 0.75855 0.59449 0.74679 0.0
C231 C 0.78378 0.618 0.74566 0.0
C232 C 0.80611 0.61825 0.75754 0.0
C233 C 0.83082 0.6423 0.75714 0.0
C234 C 0.83365 0.66514 0.74451 0.0
C235 C 0.81206 0.66463 0.73208 0.0
C236 C 0.78738 0.6414 0.73257 0.0
H237 H 0.84424 0.59871 0.7416 0.0
C238 C 0.84538 0.59536 0.76351 0.0
H239 H 0.82698 0.58966 0.80241 0.0
H240 H 0.71292 0.54627 0.75304 0.0
H241 H 0.70868 0.50654 0.77432 0.0
H242 H 0.74762 0.50653 0.79349 0.0
H243 H 0.791 0.54629 0.79166 0.0
C244 C 0.82676 0.59413 0.78067 0.0
C245 C 0.80332 0.59474 0.76971 0.0
C246 C 0.77808 0.57125 0.77083 0.0
C247 C 0.75569 0.57114 0.75939 0.0
C248 C 0.73069 0.54744 0.76106 0.0
C249 C 0.72793 0.52447 0.77328 0.0
C250 C 0.74985 0.52447 0.7841 0.0
C251 C 0.77466 0.54749 0.78294 0.0
H252 H 0.22512 0.8568 0.24267 0.0
C253 C 0.23055 0.8556 0.26384 0.0
H254 H 0.21917 0.83275 0.3006 0.0
H255 H 0.09794 0.76562 0.26639 0.0
H256 H 0.09603 0.79692 0.29806 0.0
H257 H 0.13692 0.8354 0.31592 0.0
H258 H 0.18003 0.84278 0.3023 0.0
C259 C 0.21435 0.83426 0.27928 0.0
C260 C 0.18975 0.81174 0.26749 0.0
C261 C 0.16476 0.80784 0.27545 0.0
C262 C 0.14118 0.78576 0.26498 0.0
C263 C 0.11647 0.78214 0.27359 0.0
C264 C 0.11509 0.79995 0.29176 0.0
C265 C 0.13812 0.82161 0.30183 0.0
C266 C 0.16272 0.82561 0.29386 0.0
H267 H 0.12747 0.71791 0.26065 0.0
C268 C 0.11315 0.71899 0.24728 0.0
H269 H 0.10365 0.74464 0.22562 0.0
H270 H 0.23446 0.81264 0.24889 0.0
H271 H 0.2364 0.7826 0.21562 0.0
H272 H 0.1956 0.74604 0.19522 0.0
H273 H 0.1526 0.73908 0.20837 0.0
C274 C 0.11804 0.74289 0.23817 0.0
C275 C 0.14268 0.76758 0.24664 0.0
C276 C 0.16772 0.77213 0.23778 0.0
C277 C 0.19127 0.79389 0.24866 0.0
C278 C 0.21595 0.79701 0.24062 0.0
C279 C 0.21736 0.77981 0.22162 0.0
C280 C 0.19439 0.75918 0.2102 0.0
C281 C 0.16982 0.7553 0.21809 0.0
H282 H 0.35391 0.23356 0.79477 0.0
C283 C 0.363 0.24793 0.77808 0.0
H284 H 0.38004 0.25533 0.73825 0.0
H285 H 0.39876 0.15714 0.77676 0.0
H286 H 0.42691 0.1869 0.81272 0.0
H287 H 0.42982 0.23022 0.82056 0.0
H288 H 0.40427 0.24379 0.79294 0.0
C289 C 0.37159 0.24133 0.75534 0.0
C290 C 0.36921 0.21477 0.75181 0.0
C291 C 0.38497 0.20758 0.76774 0.0
C292 C 0.38425 0.18316 0.76239 0.0
C293 C 0.39933 0.17592 0.77927 0.0
C294 C 0.41545 0.19273 0.80009 0.0
C295 C 0.41701 0.21707 0.80457 0.0
C296 C 0.40207 0.22455 0.78862 0.0
H297 H 0.40984 0.16648 0.71765 0.0
C298 C 0.3933 0.14638 0.72091 0.0
H299 H 0.35387 0.12321 0.73527 0.0
H300 H 0.33519 0.2216 0.71893 0.0
H301 H 0.30744 0.19191 0.68266 0.0
H302 H 0.30742 0.15034 0.67242 0.0
H303 H 0.33508 0.13814 0.69847 0.0
C304 C 0.37087 0.14304 0.73222 0.0
C305 C 0.36876 0.1666 0.74036 0.0
C306 C 0.35233 0.1733 0.72514 0.0
C307 C 0.35255 0.19741 0.73087 0.0
C308 C 0.33603 0.20369 0.71522 0.0
C309 C 0.31995 0.18679 0.6944 0.0
C310 C 0.31992 0.16338 0.68865 0.0
C311 C 0.3359 0.15661 0.70375 0.0
H312 H 0.392 0.43634 0.25659 0.0
C313 C 0.39316 0.44121 0.23476 0.0
H314 H 0.41567 0.46923 0.20368 0.0
H315 H 0.45575 0.54366 0.31622 0.0
H316 H 0.41134 0.53659 0.31764 0.0
H317 H 0.37728 0.50571 0.28515 0.0
H318 H 0.38735 0.48158 0.25128 0.0
C319 C 0.41398 0.46393 0.22541 0.0
C320 C 0.43467 0.48308 0.24465 0.0
C321 C 0.42848 0.49737 0.26413 0.0
C322 C 0.44828 0.51565 0.28245 0.0
C323 C 0.44154 0.52957 0.30174 0.0
C324 C 0.41611 0.52576 0.30277 0.0
C325 C 0.39693 0.50834 0.28452 0.0
C326 C 0.40295 0.4944 0.2653 0.0
H327 H 0.51385 0.56712 0.26421 0.0
C328 C 0.51349 0.56487 0.28653 0.0
H329 H 0.49396 0.53932 0.32029 0.0
H330 H 0.45307 0.45912 0.20979 0.0
H331 H 0.49776 0.46666 0.20804 0.0
H332 H 0.53209 0.49843 0.23979 0.0
H333 H 0.52198 0.52291 0.27347 0.0
C334 C 0.49552 0.54158 0.29798 0.0
C335 C 0.47444 0.52031 0.28067 0.0
C336 C 0.4806 0.50597 0.26131 0.0
C337 C 0.46072 0.48744 0.24318 0.0
C338 C 0.46743 0.47344 0.22401 0.0
C339 C 0.49298 0.47755 0.22282 0.0
C340 C 0.51232 0.49546 0.24068 0.0
C341 C 0.5063 0.5095 0.2598 0.0
H342 H 0.92636 0.42658 0.69292 0.0
C343 C 0.92677 0.41193 0.70657 0.0
H344 H 0.92959 0.40175 0.74774 0.0
H345 H 0.9669 0.53163 0.75148 0.0
H346 H 0.00446 0.53929 0.72333 0.0
H347 H 0.00846 0.50154 0.70617 0.0
H348 H -0.02516 0.45591 0.71682 0.0
C349 C 0.92986 0.4166 0.73388 0.0
C350 C 0.92926 0.43972 0.74631 0.0
C351 C 0.9494 0.46627 0.74036 0.0
C352 C 0.94737 0.48806 0.75073 0.0
C353 C 0.96752 0.51437 0.74416 0.0
C354 C -0.0108 0.51904 0.7281 0.0
C355 C -0.00857 0.49779 0.7184 0.0
C356 C 0.97189 0.47168 0.72449 0.0
H357 H 0.9337 0.50504 0.81795 0.0
C358 C 0.92699 0.51442 0.80318 0.0
H359 H 0.91645 0.51551 0.76166 0.0
H360 H 0.88774 0.39129 0.76278 0.0
H361 H 0.85091 0.38384 0.79175 0.0
H362 H 0.84749 0.42165 0.80972 0.0
H363 H 0.88094 0.46714 0.79885 0.0
C364 C 0.92266 0.50603 0.77685 0.0
C365 C 0.92558 0.4833 0.76753 0.0
C366 C 0.90587 0.45678 0.77421 0.0
C367 C 0.90778 0.43497 0.76371 0.0
C368 C 0.88752 0.40867 0.77033 0.0
C369 C 0.86616 0.40406 0.7869 0.0
C370 C 0.86424 0.42535 0.79702 0.0
C371 C 0.8837 0.45141 0.79071 0.0
H372 H 0.49381 0.9457 0.19888 0.0
C373 C 0.50433 0.94168 0.21488 0.0
H374 H 0.50611 0.93469 0.25749 0.0
H375 H 0.434 0.98485 0.28761 0.0
H376 H 0.4771 0.02385 0.29575 0.0
H377 H 0.51794 0.02415 0.28256 0.0
H378 H 0.51589 0.98548 0.2609 0.0
C379 C 0.49575 0.93843 0.24111 0.0
C380 C 0.47116 0.93849 0.24851 0.0
C381 C 0.47269 0.961 0.26158 0.0
C382 C 0.44915 0.96063 0.26968 0.0
C383 C 0.45125 0.98377 0.28179 0.0
C384 C 0.47587 0.00635 0.28641 0.0
C385 C 0.49886 0.00654 0.27894 0.0
C386 C 0.49742 0.98421 0.26659 0.0
H387 H 0.40918 0.93804 0.31727 0.0
C388 C 0.3941 0.93506 0.30235 0.0
H389 H 0.38416 0.93215 0.26015 0.0
H390 H 0.46128 0.89172 0.22436 0.0
H391 H 0.4183 0.85279 0.21611 0.0
H392 H 0.37747 0.85202 0.23022 0.0
H393 H 0.37937 0.89012 0.25268 0.0
C394 C 0.39937 0.93593 0.27522 0.0
C395 C 0.42415 0.93747 0.26521 0.0
C396 C 0.42262 0.91511 0.25165 0.0
C397 C 0.44615 0.91557 0.24342 0.0
C398 C 0.44407 0.89265 0.23068 0.0
C399 C 0.4195 0.87009 0.22592 0.0
C400 C 0.39652 0.86965 0.23386 0.0
C401 C 0.39792 0.89176 0.24668 0.0
H402 H 0.42468 0.40649 0.7617 0.0
C403 C 0.42961 0.40654 0.78333 0.0
H404 H 0.45839 0.42669 0.81422 0.0
H405 H 0.53249 0.46633 0.7018 0.0
H406 H 0.52215 0.42045 0.69878 0.0
H407 H 0.48973 0.3862 0.73046 0.0
H408 H 0.46734 0.39756 0.76513 0.0
C409 C 0.45297 0.42614 0.7927 0.0
C410 C 0.4727 0.4468 0.77365 0.0
C411 C 0.48588 0.43979 0.75365 0.0
C412 C 0.50501 0.45964 0.73577 0.0
C413 C 0.51784 0.4521 0.71597 0.0
C414 C 0.51213 0.42582 0.71403 0.0
C415 C 0.49386 0.40654 0.73182 0.0
C416 C 0.48095 0.41334 0.75152 0.0
H417 H 0.55877 0.52315 0.7563 0.0
C418 C 0.55712 0.52398 0.73401 0.0
H419 H 0.53204 0.50714 0.69958 0.0
H420 H 0.45097 0.46677 0.80944 0.0
H421 H 0.46155 0.51284 0.81257 0.0
H422 H 0.49473 0.54723 0.78152 0.0
H423 H 0.51759 0.53582 0.74719 0.0
C424 C 0.53384 0.50756 0.72191 0.0
C425 C 0.51156 0.48658 0.73848 0.0
C426 C 0.49817 0.49352 0.75821 0.0
C427 C 0.47883 0.47362 0.77592 0.0
C428 C 0.46584 0.48112 0.79551 0.0
C429 C 0.47169 0.50746 0.79749 0.0
C430 C 0.4904 0.52684 0.78003 0.0
C431 C 0.50349 0.52005 0.76053 0.0
H432 H 0.0093 0.56619 0.25431 0.0
C433 C 0.01304 0.56726 0.23221 0.0
H434 H 0.0191 0.54829 0.19806 0.0
H435 H 0.06101 0.50012 0.29395 0.0
H436 H 0.10116 0.5431 0.2894 0.0
H437 H 0.10218 0.57859 0.26052 0.0
H438 H 0.06304 0.57133 0.23607 0.0
C439 C 0.01491 0.54758 0.21999 0.0
C440 C 0.01429 0.52585 0.2368 0.0
C441 C 0.0374 0.53042 0.25089 0.0
C442 C 0.03685 0.50991 0.2674 0.0
C443 C 0.06025 0.515 0.28118 0.0
C444 C 0.08347 0.53958 0.27872 0.0
C445 C 0.08405 0.55956 0.26248 0.0
C446 C 0.06138 0.55514 0.24863 0.0
H447 H 0.01281 0.44167 0.25056 0.0
C448 C 0.0143 0.44307 0.27293 0.0
H449 H 0.0163 0.46566 0.30789 0.0
H450 H 0.96686 0.51072 0.21226 0.0
H451 H 0.92652 0.46769 0.21686 0.0
H452 H 0.9254 0.4322 0.24585 0.0
H453 H 0.9646 0.43942 0.27035 0.0
C454 C 0.01347 0.4631 0.28571 0.0
C455 C 0.01331 0.48475 0.26944 0.0
C456 C -0.00981 0.48021 0.25542 0.0
C457 C -0.00927 0.50078 0.23895 0.0
C458 C 0.96744 0.49576 0.22509 0.0
C459 C 0.94418 0.47119 0.22757 0.0
C460 C 0.94356 0.45119 0.24387 0.0
C461 C 0.96622 0.45555 0.25772 0.0
H462 H 0.44918 0.02398 0.701 0.0
C463 C 0.44191 0.03294 0.71567 0.0
H464 H 0.44625 0.04941 0.75545 0.0
H465 H 0.5123 0.98484 0.76948 0.0
H466 H 0.46958 0.94424 0.76596 0.0
H467 H 0.42944 0.94605 0.75492 0.0
H468 H 0.4318 -0.01154 0.74706 0.0
C469 C 0.45256 0.03941 0.74103 0.0
C470 C 0.47637 0.03785 0.74837 0.0
C471 C 0.47453 0.01294 0.75342 0.0
C472 C 0.49757 0.01194 0.76051 0.0
C473 C 0.49533 -0.01323 0.76468 0.0
C474 C 0.47095 0.96332 0.76262 0.0
C475 C 0.44835 0.96433 0.75634 0.0
C476 C 0.44999 -0.01121 0.75179 0.0
H477 H 0.53474 0.02361 0.81186 0.0
C478 C 0.55053 0.03003 0.7967 0.0
H479 H 0.56252 0.04281 0.75568 0.0
H480 H 0.48684 0.0889 0.7396 0.0
H481 H 0.52933 0.12946 0.74397 0.0
H482 H 0.56906 0.1278 0.75731 0.0
H483 H 0.56655 0.08556 0.76624 0.0
C484 C 0.54656 0.03537 0.77073 0.0
C485 C 0.52227 0.03589 0.76304 0.0
C486 C 0.52407 0.0608 0.75801 0.0
C487 C 0.50112 0.06178 0.75068 0.0
C488 C 0.50356 0.08695 0.74556 0.0
C489 C 0.52786 0.11043 0.74793 0.0
C490 C 0.55023 0.10949 0.7554 0.0
C491 C 0.54849 0.08506 0.76042 0.0
H492 H 0.35125 0.41248 0.0632 0.0
C493 C 0.35124 0.39796 0.07737 0.0
H494 H 0.35484 0.36378 0.08142 0.0
H495 H 0.32314 0.32428 0.95908 0.0
H496 H 0.2849 0.29094 0.98441 0.0
H497 H 0.27989 0.29627 0.03416 0.0
H498 H 0.31317 0.3349 0.05892 0.0
C499 C 0.35572 0.37896 0.06761 0.0
C500 C 0.35896 0.37617 0.03747 0.0
C501 C 0.33921 0.35355 0.02322 0.0
C502 C 0.3419 0.35066 0.99443 0.0
C503 C 0.32198 0.32768 0.98085 0.0
C504 C 0.29992 0.30834 0.99515 0.0
C505 C 0.29712 0.31133 0.02316 0.0
C506 C 0.31644 0.3336 0.03713 0.0
H507 H 0.39951 0.36169 0.95368 0.0
C508 C 0.38525 0.3621 0.93968 0.0
H509 H 0.35183 0.36661 0.93607 0.0
H510 H 0.40182 0.42058 0.05887 0.0
H511 H 0.43937 0.45467 0.03326 0.0
H512 H 0.44256 0.45116 0.98284 0.0
H513 H 0.40845 0.4133 0.95779 0.0
C514 C 0.36678 0.3671 0.94968 0.0
C515 C 0.36429 0.37044 0.97985 0.0
C516 C 0.38396 0.3932 0.99403 0.0
C517 C 0.38155 0.39581 0.02296 0.0
C518 C 0.40213 0.41807 0.03679 0.0
C519 C 0.42389 0.43772 0.02236 0.0
C520 C 0.42573 0.43569 0.99399 0.0
C521 C 0.40607 0.41376 0.97988 0.0
H522 H 0.022 0.40283 0.43982 0.0
C523 C 0.00737 0.38916 0.42522 0.0
H524 H 0.96852 0.35676 0.42007 0.0
H525 H 0.95455 0.31598 0.54306 0.0
H526 H 0.95777 0.28127 0.51878 0.0
H527 H 0.96959 0.28613 0.46937 0.0
H528 H -0.02185 0.32566 0.4439 0.0
C529 C -0.01694 0.37111 0.43428 0.0
C530 C -0.02395 0.3685 0.46416 0.0
C531 C 0.97123 0.34532 0.4788 0.0
C532 C 0.96472 0.34265 0.50738 0.0
C533 C 0.95981 0.31917 0.52141 0.0
C534 C 0.96156 0.29906 0.50772 0.0
C535 C 0.96818 0.30178 0.47989 0.0
C536 C 0.97301 0.32458 0.46551 0.0
H537 H 0.91829 0.35497 0.5451 0.0
C538 C 0.93243 0.3556 0.56001 0.0
H539 H 0.97009 0.35981 0.56572 0.0
H540 H -0.01864 0.41431 0.44177 0.0
H541 H -0.02068 0.44952 0.46634 0.0
H542 H 0.97065 0.44607 0.51646 0.0
H543 H 0.96355 0.40718 0.54221 0.0
C544 C 0.95611 0.36007 0.55122 0.0
C545 C 0.96301 0.36315 0.52131 0.0
C546 C 0.96797 0.38643 0.50673 0.0
C547 C -0.02598 0.3889 0.47802 0.0
C548 C -0.02235 0.4118 0.46375 0.0
C549 C -0.02364 0.4321 0.47757 0.0
C550 C 0.9714 0.43013 0.50577 0.0
C551 C 0.96723 0.40762 0.52028 0.0
H552 H 0.60654 0.98285 0.93147 0.0
C553 C 0.60857 0.00249 0.93057 0.0
H554 H 0.60714 0.03281 0.95316 0.0
H555 H 0.53635 0.95378 0.04835 0.0
H556 H 0.50324 0.95851 0.02318 0.0
H557 H 0.51388 0.98179 0.97828 0.0
H558 H 0.55775 0.0006 0.95834 0.0
C559 C 0.60619 0.01366 0.95383 0.0
C560 C 0.59989 -0.00074 0.98071 0.0
C561 C 0.57415 -0.01169 0.99205 0.0
C562 C 0.56795 0.97463 0.0178 0.0
C563 C 0.5421 0.96412 0.02874 0.0
C564 C 0.5229 0.96673 0.01453 0.0
C565 C 0.52889 0.97986 0.98927 0.0
C566 C 0.55417 -0.00942 0.97807 0.0
H567 H 0.60652 -0.00756 0.08203 0.0
C568 C 0.59176 0.97133 0.08292 0.0
H569 H 0.5655 0.93716 0.06009 0.0
H570 H 0.65159 0.01928 0.96555 0.0
H571 H 0.68435 0.01327 0.98985 0.0
H572 H 0.67297 -0.01253 0.03324 0.0
H573 H 0.62889 0.96787 0.05278 0.0
C574 C 0.58089 0.95805 0.05942 0.0
C575 C 0.58753 0.97196 0.0322 0.0
C576 C 0.61319 0.98253 0.02061 0.0
C577 C 0.61949 -0.00343 0.99505 0.0
C578 C 0.64553 0.00782 0.98449 0.0
C579 C 0.66457 0.0046 0.99828 0.0
C580 C 0.65818 -0.00985 0.02275 0.0
C581 C 0.63283 0.97915 0.03384 0.0
H582 H 0.6028 0.56057 0.56501 0.0
C583 C 0.60235 0.57487 0.5791 0.0
H584 H 0.59746 0.60829 0.58298 0.0
H585 H 0.62708 0.64738 0.45994 0.0
H586 H 0.66542 0.68137 0.48433 0.0
H587 H 0.67142 0.6765 0.53393 0.0
H588 H 0.63906 0.63769 0.55949 0.0
C589 C 0.59709 0.59333 0.56926 0.0
C590 C 0.59338 0.59573 0.53916 0.0
C591 C 0.61259 0.61845 0.52444 0.0
C592 C 0.60932 0.62107 0.49573 0.0
C593 C 0.6287 0.64417 0.48167 0.0
C594 C 0.6508 0.66388 0.49543 0.0
C595 C 0.65416 0.66116 0.52336 0.0
C596 C 0.63538 0.63878 0.5378 0.0
H597 H 0.5504 0.60847 0.45673 0.0
C598 C 0.56459 0.60844 0.44227 0.0
H599 H 0.59853 0.60495 0.43755 0.0
H600 H 0.55148 0.55087 0.56156 0.0
H601 H 0.51392 0.51614 0.53687 0.0
H602 H 0.50975 0.51926 0.48654 0.0
H603 H 0.54289 0.55737 0.4607 0.0
C604 C 0.58366 0.60408 0.45164 0.0
C605 C 0.58686 0.60093 0.4817 0.0
C606 C 0.56778 0.57803 0.49634 0.0
C607 C 0.57077 0.57567 0.5252 0.0
C608 C 0.55074 0.55324 0.53951 0.0
C609 C 0.52897 0.53321 0.5256 0.0
C610 C 0.52657 0.53501 0.49729 0.0
C611 C 0.54569 0.55709 0.48272 0.0
H612 H -0.02491 0.61528 0.08831 0.0
C613 C -0.00527 0.61769 0.08853 0.0
H614 H 0.02458 0.61675 0.06492 0.0
H615 H 0.94875 0.54451 0.96997 0.0
H616 H 0.95938 0.51384 0.99248 0.0
H617 H -0.016 0.52579 0.03634 0.0
H618 H -0.00172 0.56856 0.05789 0.0
C619 C 0.00531 0.6152 0.06487 0.0
C620 C -0.00972 0.60817 0.03844 0.0
C621 C -0.01809 0.58301 0.02619 0.0
C622 C 0.96739 0.57596 1.00108 0.0
C623 C 0.95956 0.5508 0.98918 0.0
C624 C 0.96556 0.53299 1.00186 0.0
C625 C -0.02055 0.53974 0.02653 0.0
C626 C -0.01243 0.5644 0.03866 0.0
H627 H -0.02244 0.61535 0.93795 0.0
C628 C 0.95727 0.59881 0.93798 0.0
H629 H 0.92608 0.56932 0.96208 0.0
H630 H 0.00581 0.65917 0.05465 0.0
H631 H -0.0061 0.68925 0.03303 0.0
H632 H 0.96599 0.67577 0.99138 0.0
H633 H 0.95025 0.63234 0.97081 0.0
C634 C 0.94604 0.58644 0.96189 0.0
C635 C 0.96117 0.59405 0.98826 0.0
C636 C 0.96932 0.61914 1.00066 0.0
C637 C -0.01562 0.62643 0.02543 0.0
C638 C -0.00654 0.65216 0.0365 0.0
C639 C -0.0131 0.66971 0.02419 0.0
C640 C 0.97127 0.66217 1.00069 0.0
C641 C 0.96251 0.63721 0.98898 0.0
H642 H 0.34827 0.93631 0.45823 0.0
C643 C 0.33829 0.94337 0.44475 0.0
H644 H 0.32248 0.96864 0.44055 0.0
H645 H 0.34823 0.96141 0.57534 0.0
H646 H 0.3179 0.91386 0.57199 0.0
H647 H 0.29606 0.89353 0.52791 0.0
H648 H 0.30532 0.92056 0.48672 0.0
C649 C 0.33236 0.9615 0.45408 0.0
C650 C 0.34112 0.9741 0.48185 0.0
C651 C 0.33373 0.95831 0.50624 0.0
C652 C 0.34451 0.97037 0.53218 0.0
C653 C 0.33916 0.95368 0.55554 0.0
C654 C 0.32197 0.92625 0.55385 0.0
C655 C 0.30981 0.91478 0.529 0.0
C656 C 0.31553 0.93052 0.50543 0.0
H657 H 0.33432 -0.00367 0.58103 0.0
C658 C 0.3556 0.0094 0.58269 0.0
H659 H 0.3926 0.02494 0.56302 0.0
H660 H 0.35931 0.01046 0.43939 0.0
H661 H 0.38644 0.05839 0.4434 0.0
H662 H 0.40141 0.07968 0.48889 0.0
H663 H 0.38968 0.05311 0.53062 0.0
C664 C 0.37133 0.01179 0.56131 0.0
C665 C 0.36059 -0.00145 0.53418 0.0
C666 C 0.36693 0.01444 0.50997 0.0
C667 C 0.35757 0.0022 0.48379 0.0
C668 C 0.36523 0.0186 0.4599 0.0
C669 C 0.38091 0.04621 0.46187 0.0
C670 C 0.38938 0.05819 0.48747 0.0
C671 C 0.38255 0.04263 0.51128 0.0
loop_
_geom_bond_atom_site_label_1
_geom_bond_atom_site_label_2
_geom_bond_distance
_geom_bond_site_symmetry_2
_ccdc_geom_bond_type
O0 Cd1 2.300 . S
O0 C7 1.275 . S
Cd1 O0 2.300 . S
Cd1 O9 2.381 . S
Cd1 O10 2.378 . S
O2 Cd3 2.385 . S
O2 C7 1.255 . S
Cd3 O2 2.385 . S
Cd3 O4 2.317 . S
O4 Cd3 2.317 . S
O4 C5 1.232 . S
C5 O4 1.232 . S
C5 O6 1.218 . S
O6 C5 1.218 . S
C7 O0 1.275 . S
C7 O2 1.255 . S
C8 O9 1.258 . S
C8 O10 1.256 . S
O9 Cd1 2.381 . S
O9 C8 1.258 . S
O10 Cd1 2.378 . S
O10 C8 1.256 . S
O11 Cd12 2.300 . S
O11 C18 1.275 . S
Cd12 O11 2.300 . S
Cd12 O20 2.381 . S
Cd12 O21 2.378 . S
O13 Cd14 2.385 . S
O13 C18 1.255 . S
Cd14 O13 2.385 . S
Cd14 O15 2.317 . S
O15 Cd14 2.317 . S
O15 C16 1.232 . S
C16 O15 1.232 . S
C16 O17 1.218 . S
O17 C16 1.218 . S
C18 O11 1.275 . S
C18 O13 1.255 . S
C19 O20 1.258 . S
C19 O21 1.256 . S
O20 Cd12 2.381 . S
O20 C19 1.258 . S
O21 Cd12 2.378 . S
O21 C19 1.256 . S
O22 Cd23 2.300 . S
O22 C29 1.275 . S
Cd23 O22 2.300 . S
Cd23 O31 2.381 . S
Cd23 O32 2.378 . S
O24 Cd25 2.385 . S
O24 C29 1.255 . S
Cd25 O24 2.385 . S
Cd25 O26 2.317 . S
O26 Cd25 2.317 . S
O26 C27 1.232 . S
C27 O26 1.232 . S
C27 O28 1.218 . S
O28 C27 1.218 . S
C29 O22 1.275 . S
C29 O24 1.255 . S
C30 O31 1.258 . S
C30 O32 1.256 . S
O31 Cd23 2.381 . S
O31 C30 1.258 . S
O32 Cd23 2.378 . S
O32 C30 1.256 . S
O33 Cd34 2.300 . S
O33 C40 1.275 . S
Cd34 O33 2.300 . S
Cd34 O42 2.381 . S
Cd34 O43 2.378 . S
O35 Cd36 2.385 . S
O35 C40 1.255 . S
Cd36 O35 2.385 . S
Cd36 O37 2.317 . S
O37 Cd36 2.317 . S
O37 C38 1.232 . S
C38 O37 1.232 . S
C38 O39 1.218 . S
O39 C38 1.218 . S
C40 O33 1.275 . S
C40 O35 1.255 . S
C41 O42 1.258 . S
C41 O43 1.256 . S
O42 Cd34 2.381 . S
O42 C41 1.258 . S
O43 Cd34 2.378 . S
O43 C41 1.256 . S
O44 Cd45 2.300 . S
O44 C51 1.275 . S
Cd45 O44 2.300 . S
Cd45 O53 2.381 . S
Cd45 O54 2.378 . S
O46 Cd47 2.385 . S
O46 C51 1.255 . S
Cd47 O46 2.385 . S
Cd47 O48 2.317 . S
O48 Cd47 2.317 . S
O48 C49 1.232 . S
C49 O48 1.232 . S
C49 O50 1.218 . S
O50 C49 1.218 . S
C51 O44 1.275 . S
C51 O46 1.255 . S
C52 O53 1.258 . S
C52 O54 1.256 . S
O53 Cd45 2.381 . S
O53 C52 1.258 . S
O54 Cd45 2.378 . S
O54 C52 1.256 . S
O55 Cd56 2.300 . S
O55 C62 1.275 . S
Cd56 O55 2.300 . S
Cd56 O64 2.381 . S
Cd56 O65 2.378 . S
O57 Cd58 2.385 . S
O57 C62 1.255 . S
Cd58 O57 2.385 . S
Cd58 O59 2.317 . S
O59 Cd58 2.317 . S
O59 C60 1.232 . S
C60 O59 1.232 . S
C60 O61 1.218 . S
O61 C60 1.218 . S
C62 O55 1.275 . S
C62 O57 1.255 . S
C63 O64 1.258 . S
C63 O65 1.256 . S
O64 Cd56 2.381 . S
O64 C63 1.258 . S
O65 Cd56 2.378 . S
O65 C63 1.256 . S
O66 Cd67 2.300 . S
O66 C73 1.275 . S
Cd67 O66 2.300 . S
Cd67 O75 2.381 . S
Cd67 O76 2.378 . S
O68 Cd69 2.385 . S
O68 C73 1.255 . S
Cd69 O68 2.385 . S
Cd69 O70 2.317 . S
O70 Cd69 2.317 . S
O70 C71 1.232 . S
C71 O70 1.232 . S
C71 O72 1.218 . S
O72 C71 1.218 . S
C73 O66 1.275 . S
C73 O68 1.255 . S
C74 O75 1.258 . S
C74 O76 1.256 . S
O75 Cd67 2.381 . S
O75 C74 1.258 . S
O76 Cd67 2.378 . S
O76 C74 1.256 . S
O77 Cd78 2.300 . S
O77 C84 1.275 . S
Cd78 O77 2.300 . S
Cd78 O86 2.381 . S
Cd78 O87 2.378 . S
O79 Cd80 2.385 . S
O79 C84 1.255 . S
Cd80 O79 2.385 . S
Cd80 O81 2.317 . S
O81 Cd80 2.317 . S
O81 C82 1.232 . S
C82 O81 1.232 . S
C82 O83 1.218 . S
O83 C82 1.218 . S
C84 O77 1.275 . S
C84 O79 1.255 . S
C85 O86 1.258 . S
C85 O87 1.256 . S
O86 Cd78 2.381 . S
O86 C85 1.258 . S
O87 Cd78 2.378 . S
O87 C85 1.256 . S
O88 Cd89 2.300 . S
O88 C95 1.275 . S
Cd89 O88 2.300 . S
Cd89 O97 2.381 . S
Cd89 O98 2.378 . S
O90 Cd91 2.385 . S
O90 C95 1.255 . S
Cd91 O90 2.385 . S
Cd91 O92 2.317 . S
O92 Cd91 2.317 . S
O92 C93 1.232 . S
C93 O92 1.232 . S
C93 O94 1.218 . S
O94 C93 1.218 . S
C95 O88 1.275 . S
C95 O90 1.255 . S
C96 O97 1.258 . S
C96 O98 1.256 . S
O97 Cd89 2.381 . S
O97 C96 1.258 . S
O98 Cd89 2.378 . S
O98 C96 1.256 . S
O99 Cd100 2.300 . S
O99 C106 1.275 . S
Cd100 O99 2.300 . S
Cd100 O108 2.381 . S
Cd100 O109 2.378 . S
O101 Cd102 2.385 . S
O101 C106 1.255 . S
Cd102 O101 2.385 . S
Cd102 O103 2.317 . S
O103 Cd102 2.317 . S
O103 C104 1.232 . S
C104 O103 1.232 . S
C104 O105 1.218 . S
O105 C104 1.218 . S
C106 O99 1.275 . S
C106 O101 1.255 . S
C107 O108 1.258 . S
C107 O109 1.256 . S
O108 Cd100 2.381 . S
O108 C107 1.258 . S
O109 Cd100 2.378 . S
O109 C107 1.256 . S
O110 Cd111 2.300 . S
O110 C117 1.275 . S
Cd111 O110 2.300 . S
Cd111 O119 2.381 . S
Cd111 O120 2.378 . S
O112 Cd113 2.385 . S
O112 C117 1.255 . S
Cd113 O112 2.385 . S
Cd113 O114 2.317 . S
O114 Cd113 2.317 . S
O114 C115 1.232 . S
C115 O114 1.232 . S
C115 O116 1.218 . S
O116 C115 1.218 . S
C117 O110 1.275 . S
C117 O112 1.255 . S
C118 O119 1.258 . S
C118 O120 1.256 . S
O119 Cd111 2.381 . S
O119 C118 1.258 . S
O120 Cd111 2.378 . S
O120 C118 1.256 . S
O121 Cd122 2.300 . S
O121 C128 1.275 . S
Cd122 O121 2.300 . S
Cd122 O130 2.381 . S
Cd122 O131 2.378 . S
O123 Cd124 2.385 . S
O123 C128 1.255 . S
Cd124 O123 2.385 . S
Cd124 O125 2.317 . S
O125 Cd124 2.317 . S
O125 C126 1.232 . S
C126 O125 1.232 . S
C126 O127 1.218 . S
O127 C126 1.218 . S
C128 O121 1.275 . S
C128 O123 1.255 . S
C129 O130 1.258 . S
C129 O131 1.256 . S
O130 Cd122 2.381 . S
O130 C129 1.258 . S
O131 Cd122 2.378 . S
O131 C129 1.256 . S
H132 C133 0.951 . S
C133 H132 0.951 . S
C133 C139 1.265 . S
H134 C139 0.950 . S
H135 C143 0.949 . S
H136 C144 0.950 . S
H137 C145 0.951 . S
H138 C146 0.951 . S
C139 C133 1.265 . S
C139 H134 0.950 . S
C139 C140 1.478 . S
C140 C139 1.478 . S
C140 C141 1.397 . S
C140 C157 1.394 . S
C141 C140 1.397 . S
C141 C142 1.438 . S
C141 C146 1.429 . S
C142 C141 1.438 . S
C142 C143 1.428 . S
C142 C155 1.394 . S
C143 H135 0.949 . S
C143 C142 1.428 . S
C143 C144 1.345 . S
C144 H136 0.950 . S
C144 C143 1.345 . S
C144 C145 1.424 . S
C145 H137 0.951 . S
C145 C144 1.424 . S
C145 C146 1.347 . S
C146 H138 0.951 . S
C146 C141 1.429 . S
C146 C145 1.347 . S
H147 C148 0.951 . S
C148 H147 0.951 . S
C148 C154 1.265 . S
H149 C154 0.950 . S
H150 C158 0.949 . S
H151 C159 0.950 . S
H152 C160 0.951 . S
H153 C161 0.951 . S
C154 C148 1.265 . S
C154 H149 0.950 . S
C154 C155 1.478 . S
C155 C142 1.394 . S
C155 C154 1.478 . S
C155 C156 1.397 . S
C156 C155 1.397 . S
C156 C157 1.438 . S
C156 C161 1.429 . S
C157 C140 1.394 . S
C157 C156 1.438 . S
C157 C158 1.428 . S
C158 H150 0.949 . S
C158 C157 1.428 . S
C158 C159 1.345 . S
C159 H151 0.950 . S
C159 C158 1.345 . S
C159 C160 1.424 . S
C160 H152 0.951 . S
C160 C159 1.424 . S
C160 C161 1.347 . S
C161 H153 0.951 . S
C161 C156 1.429 . S
C161 C160 1.347 . S
H162 C163 0.951 . S
C163 H162 0.951 . S
C163 C169 1.265 . S
H164 C169 0.950 . S
H165 C173 0.949 . S
H166 C174 0.950 . S
H167 C175 0.951 . S
H168 C176 0.951 . S
C169 C163 1.265 . S
C169 H164 0.950 . S
C169 C170 1.478 . S
C170 C169 1.478 . S
C170 C171 1.397 . S
C170 C187 1.394 . S
C171 C170 1.397 . S
C171 C172 1.438 . S
C171 C176 1.429 . S
C172 C171 1.438 . S
C172 C173 1.428 . S
C172 C185 1.394 . S
C173 H165 0.949 . S
C173 C172 1.428 . S
C173 C174 1.345 . S
C174 H166 0.950 . S
C174 C173 1.345 . S
C174 C175 1.424 . S
C175 H167 0.951 . S
C175 C174 1.424 . S
C175 C176 1.347 . S
C176 H168 0.951 . S
C176 C171 1.429 . S
C176 C175 1.347 . S
H177 C178 0.951 . S
C178 H177 0.951 . S
C178 C184 1.265 . S
H179 C184 0.950 . S
H180 C188 0.949 . S
H181 C189 0.950 . S
H182 C190 0.951 . S
H183 C191 0.951 . S
C184 C178 1.265 . S
C184 H179 0.950 . S
C184 C185 1.478 . S
C185 C172 1.394 . S
C185 C184 1.478 . S
C185 C186 1.397 . S
C186 C185 1.397 . S
C186 C187 1.438 . S
C186 C191 1.429 . S
C187 C170 1.394 . S
C187 C186 1.438 . S
C187 C188 1.428 . S
C188 H180 0.949 . S
C188 C187 1.428 . S
C188 C189 1.345 . S
C189 H181 0.950 . S
C189 C188 1.345 . S
C189 C190 1.424 . S
C190 H182 0.951 . S
C190 C189 1.424 . S
C190 C191 1.347 . S
C191 H183 0.951 . S
C191 C186 1.429 . S
C191 C190 1.347 . S
H192 C193 0.951 . S
C193 H192 0.951 . S
C193 C199 1.265 . S
H194 C199 0.950 . S
H195 C203 0.949 . S
H196 C204 0.950 . S
H197 C205 0.951 . S
H198 C206 0.951 . S
C199 C193 1.265 . S
C199 H194 0.950 . S
C199 C200 1.478 . S
C200 C199 1.478 . S
C200 C201 1.397 . S
C200 C217 1.394 . S
C201 C200 1.397 . S
C201 C202 1.438 . S
C201 C206 1.429 . S
C202 C201 1.438 . S
C202 C203 1.428 . S
C202 C215 1.394 . S
C203 H195 0.949 . S
C203 C202 1.428 . S
C203 C204 1.345 . S
C204 H196 0.950 . S
C204 C203 1.345 . S
C204 C205 1.424 . S
C205 H197 0.951 . S
C205 C204 1.424 . S
C205 C206 1.347 . S
C206 H198 0.951 . S
C206 C201 1.429 . S
C206 C205 1.347 . S
H207 C208 0.951 . S
C208 H207 0.951 . S
C208 C214 1.265 . S
H209 C214 0.950 . S
H210 C218 0.949 . S
H211 C219 0.950 . S
H212 C220 0.951 . S
H213 C221 0.951 . S
C214 C208 1.265 . S
C214 H209 0.950 . S
C214 C215 1.478 . S
C215 C202 1.394 . S
C215 C214 1.478 . S
C215 C216 1.397 . S
C216 C215 1.397 . S
C216 C217 1.438 . S
C216 C221 1.429 . S
C217 C200 1.394 . S
C217 C216 1.438 . S
C217 C218 1.428 . S
C218 H210 0.949 . S
C218 C217 1.428 . S
C218 C219 1.345 . S
C219 H211 0.950 . S
C219 C218 1.345 . S
C219 C220 1.424 . S
C220 H212 0.951 . S
C220 C219 1.424 . S
C220 C221 1.347 . S
C221 H213 0.951 . S
C221 C216 1.429 . S
C221 C220 1.347 . S
H222 C223 0.951 . S
C223 H222 0.951 . S
C223 C229 1.265 . S
H224 C229 0.950 . S
H225 C233 0.949 . S
H226 C234 0.950 . S
H227 C235 0.951 . S
H228 C236 0.951 . S
C229 C223 1.265 . S
C229 H224 0.950 . S
C229 C230 1.478 . S
C230 C229 1.478 . S
C230 C231 1.397 . S
C230 C247 1.394 . S
C231 C230 1.397 . S
C231 C232 1.438 . S
C231 C236 1.429 . S
C232 C231 1.438 . S
C232 C233 1.428 . S
C232 C245 1.394 . S
C233 H225 0.949 . S
C233 C232 1.428 . S
C233 C234 1.345 . S
C234 H226 0.950 . S
C234 C233 1.345 . S
C234 C235 1.424 . S
C235 H227 0.951 . S
C235 C234 1.424 . S
C235 C236 1.347 . S
C236 H228 0.951 . S
C236 C231 1.429 . S
C236 C235 1.347 . S
H237 C238 0.951 . S
C238 H237 0.951 . S
C238 C244 1.265 . S
H239 C244 0.950 . S
H240 C248 0.949 . S
H241 C249 0.950 . S
H242 C250 0.951 . S
H243 C251 0.951 . S
C244 C238 1.265 . S
C244 H239 0.950 . S
C244 C245 1.478 . S
C245 C232 1.394 . S
C245 C244 1.478 . S
C245 C246 1.397 . S
C246 C245 1.397 . S
C246 C247 1.438 . S
C246 C251 1.429 . S
C247 C230 1.394 . S
C247 C246 1.438 . S
C247 C248 1.428 . S
C248 H240 0.949 . S
C248 C247 1.428 . S
C248 C249 1.345 . S
C249 H241 0.950 . S
C249 C248 1.345 . S
C249 C250 1.424 . S
C250 H242 0.951 . S
C250 C249 1.424 . S
C250 C251 1.347 . S
C251 H243 0.951 . S
C251 C246 1.429 . S
C251 C250 1.347 . S
H252 C253 0.951 . S
C253 H252 0.951 . S
C253 C259 1.265 . S
H254 C259 0.950 . S
H255 C263 0.949 . S
H256 C264 0.950 . S
H257 C265 0.951 . S
H258 C266 0.951 . S
C259 C253 1.265 . S
C259 H254 0.950 . S
C259 C260 1.478 . S
C260 C259 1.478 . S
C260 C261 1.397 . S
C260 C277 1.394 . S
C261 C260 1.397 . S
C261 C262 1.438 . S
C261 C266 1.429 . S
C262 C261 1.438 . S
C262 C263 1.428 . S
C262 C275 1.394 . S
C263 H255 0.949 . S
C263 C262 1.428 . S
C263 C264 1.345 . S
C264 H256 0.950 . S
C264 C263 1.345 . S
C264 C265 1.424 . S
C265 H257 0.951 . S
C265 C264 1.424 . S
C265 C266 1.347 . S
C266 H258 0.951 . S
C266 C261 1.429 . S
C266 C265 1.347 . S
H267 C268 0.951 . S
C268 H267 0.951 . S
C268 C274 1.265 . S
H269 C274 0.950 . S
H270 C278 0.949 . S
H271 C279 0.950 . S
H272 C280 0.951 . S
H273 C281 0.951 . S
C274 C268 1.265 . S
C274 H269 0.950 . S
C274 C275 1.478 . S
C275 C262 1.394 . S
C275 C274 1.478 . S
C275 C276 1.397 . S
C276 C275 1.397 . S
C276 C277 1.438 . S
C276 C281 1.429 . S
C277 C260 1.394 . S
C277 C276 1.438 . S
C277 C278 1.428 . S
C278 H270 0.949 . S
C278 C277 1.428 . S
C278 C279 1.345 . S
C279 H271 0.950 . S
C279 C278 1.345 . S
C279 C280 1.424 . S
C280 H272 0.951 . S
C280 C279 1.424 . S
C280 C281 1.347 . S
C281 H273 0.951 . S
C281 C276 1.429 . S
C281 C280 1.347 . S
H282 C283 0.951 . S
C283 H282 0.951 . S
C283 C289 1.265 . S
H284 C289 0.950 . S
H285 C293 0.949 . S
H286 C294 0.950 . S
H287 C295 0.951 . S
H288 C296 0.951 . S
C289 C283 1.265 . S
C289 H284 0.950 . S
C289 C290 1.478 . S
C290 C289 1.478 . S
C290 C291 1.397 . S
C290 C307 1.394 . S
C291 C290 1.397 . S
C291 C292 1.438 . S
C291 C296 1.429 . S
C292 C291 1.438 . S
C292 C293 1.428 . S
C292 C305 1.394 . S
C293 H285 0.949 . S
C293 C292 1.428 . S
C293 C294 1.345 . S
C294 H286 0.950 . S
C294 C293 1.345 . S
C294 C295 1.424 . S
C295 H287 0.951 . S
C295 C294 1.424 . S
C295 C296 1.347 . S
C296 H288 0.951 . S
C296 C291 1.429 . S
C296 C295 1.347 . S
H297 C298 0.951 . S
C298 H297 0.951 . S
C298 C304 1.265 . S
H299 C304 0.950 . S
H300 C308 0.949 . S
H301 C309 0.950 . S
H302 C310 0.951 . S
H303 C311 0.951 . S
C304 C298 1.265 . S
C304 H299 0.950 . S
C304 C305 1.478 . S
C305 C292 1.394 . S
C305 C304 1.478 . S
C305 C306 1.397 . S
C306 C305 1.397 . S
C306 C307 1.438 . S
C306 C311 1.429 . S
C307 C290 1.394 . S
C307 C306 1.438 . S
C307 C308 1.428 . S
C308 H300 0.949 . S
C308 C307 1.428 . S
C308 C309 1.345 . S
C309 H301 0.950 . S
C309 C308 1.345 . S
C309 C310 1.424 . S
C310 H302 0.951 . S
C310 C309 1.424 . S
C310 C311 1.347 . S
C311 H303 0.951 . S
C311 C306 1.429 . S
C311 C310 1.347 . S
H312 C313 0.951 . S
C313 H312 0.951 . S
C313 C319 1.265 . S
H314 C319 0.950 . S
H315 C323 0.949 . S
H316 C324 0.950 . S
H317 C325 0.951 . S
H318 C326 0.951 . S
C319 C313 1.265 . S
C319 H314 0.950 . S
C319 C320 1.478 . S
C320 C319 1.478 . S
C320 C321 1.397 . S
C320 C337 1.394 . S
C321 C320 1.397 . S
C321 C322 1.438 . S
C321 C326 1.429 . S
C322 C321 1.438 . S
C322 C323 1.428 . S
C322 C335 1.394 . S
C323 H315 0.949 . S
C323 C322 1.428 . S
C323 C324 1.345 . S
C324 H316 0.950 . S
C324 C323 1.345 . S
C324 C325 1.424 . S
C325 H317 0.951 . S
C325 C324 1.424 . S
C325 C326 1.347 . S
C326 H318 0.951 . S
C326 C321 1.429 . S
C326 C325 1.347 . S
H327 C328 0.951 . S
C328 H327 0.951 . S
C328 C334 1.265 . S
H329 C334 0.950 . S
H330 C338 0.949 . S
H331 C339 0.950 . S
H332 C340 0.951 . S
H333 C341 0.951 . S
C334 C328 1.265 . S
C334 H329 0.950 . S
C334 C335 1.478 . S
C335 C322 1.394 . S
C335 C334 1.478 . S
C335 C336 1.397 . S
C336 C335 1.397 . S
C336 C337 1.438 . S
C336 C341 1.429 . S
C337 C320 1.394 . S
C337 C336 1.438 . S
C337 C338 1.428 . S
C338 H330 0.949 . S
C338 C337 1.428 . S
C338 C339 1.345 . S
C339 H331 0.950 . S
C339 C338 1.345 . S
C339 C340 1.424 . S
C340 H332 0.951 . S
C340 C339 1.424 . S
C340 C341 1.347 . S
C341 H333 0.951 . S
C341 C336 1.429 . S
C341 C340 1.347 . S
H342 C343 0.951 . S
C343 H342 0.951 . S
C343 C349 1.265 . S
H344 C349 0.950 . S
H345 C353 0.949 . S
H346 C354 0.950 . S
H347 C355 0.951 . S
H348 C356 0.951 . S
C349 C343 1.265 . S
C349 H344 0.950 . S
C349 C350 1.478 . S
C350 C349 1.478 . S
C350 C351 1.397 . S
C350 C367 1.394 . S
C351 C350 1.397 . S
C351 C352 1.438 . S
C351 C356 1.429 . S
C352 C351 1.438 . S
C352 C353 1.428 . S
C352 C365 1.394 . S
C353 H345 0.949 . S
C353 C352 1.428 . S
C353 C354 1.345 . S
C354 H346 0.950 . S
C354 C353 1.345 . S
C354 C355 1.424 . S
C355 H347 0.951 . S
C355 C354 1.424 . S
C355 C356 1.347 . S
C356 H348 0.951 . S
C356 C351 1.429 . S
C356 C355 1.347 . S
H357 C358 0.951 . S
C358 H357 0.951 . S
C358 C364 1.265 . S
H359 C364 0.950 . S
H360 C368 0.949 . S
H361 C369 0.950 . S
H362 C370 0.951 . S
H363 C371 0.951 . S
C364 C358 1.265 . S
C364 H359 0.950 . S
C364 C365 1.478 . S
C365 C352 1.394 . S
C365 C364 1.478 . S
C365 C366 1.397 . S
C366 C365 1.397 . S
C366 C367 1.438 . S
C366 C371 1.429 . S
C367 C350 1.394 . S
C367 C366 1.438 . S
C367 C368 1.428 . S
C368 H360 0.949 . S
C368 C367 1.428 . S
C368 C369 1.345 . S
C369 H361 0.950 . S
C369 C368 1.345 . S
C369 C370 1.424 . S
C370 H362 0.951 . S
C370 C369 1.424 . S
C370 C371 1.347 . S
C371 H363 0.951 . S
C371 C366 1.429 . S
C371 C370 1.347 . S
H372 C373 0.951 . S
C373 H372 0.951 . S
C373 C379 1.265 . S
H374 C379 0.950 . S
H375 C383 0.949 . S
H376 C384 0.950 1_545 S
H377 C385 0.951 1_545 S
H378 C386 0.951 . S
C379 C373 1.265 . S
C379 H374 0.950 . S
C379 C380 1.478 . S
C380 C379 1.478 . S
C380 C381 1.397 . S
C380 C397 1.394 . S
C381 C380 1.397 . S
C381 C382 1.438 . S
C381 C386 1.429 . S
C382 C381 1.438 . S
C382 C383 1.428 . S
C382 C395 1.394 . S
C383 H375 0.949 . S
C383 C382 1.428 . S
C383 C384 1.345 . S
C384 H376 0.950 1_565 S
C384 C383 1.345 . S
C384 C385 1.424 . S
C385 H377 0.951 1_565 S
C385 C384 1.424 . S
C385 C386 1.347 . S
C386 H378 0.951 . S
C386 C381 1.429 . S
C386 C385 1.347 . S
H387 C388 0.951 . S
C388 H387 0.951 . S
C388 C394 1.265 . S
H389 C394 0.950 . S
H390 C398 0.949 . S
H391 C399 0.950 . S
H392 C400 0.951 . S
H393 C401 0.951 . S
C394 C388 1.265 . S
C394 H389 0.950 . S
C394 C395 1.478 . S
C395 C382 1.394 . S
C395 C394 1.478 . S
C395 C396 1.397 . S
C396 C395 1.397 . S
C396 C397 1.438 . S
C396 C401 1.429 . S
C397 C380 1.394 . S
C397 C396 1.438 . S
C397 C398 1.428 . S
C398 H390 0.949 . S
C398 C397 1.428 . S
C398 C399 1.345 . S
C399 H391 0.950 . S
C399 C398 1.345 . S
C399 C400 1.424 . S
C400 H392 0.951 . S
C400 C399 1.424 . S
C400 C401 1.347 . S
C401 H393 0.951 . S
C401 C396 1.429 . S
C401 C400 1.347 . S
H402 C403 0.951 . S
C403 H402 0.951 . S
C403 C409 1.265 . S
H404 C409 0.950 . S
H405 C413 0.949 . S
H406 C414 0.950 . S
H407 C415 0.951 . S
H408 C416 0.951 . S
C409 C403 1.265 . S
C409 H404 0.950 . S
C409 C410 1.478 . S
C410 C409 1.478 . S
C410 C411 1.397 . S
C410 C427 1.394 . S
C411 C410 1.397 . S
C411 C412 1.438 . S
C411 C416 1.429 . S
C412 C411 1.438 . S
C412 C413 1.428 . S
C412 C425 1.394 . S
C413 H405 0.949 . S
C413 C412 1.428 . S
C413 C414 1.345 . S
C414 H406 0.950 . S
C414 C413 1.345 . S
C414 C415 1.424 . S
C415 H407 0.951 . S
C415 C414 1.424 . S
C415 C416 1.347 . S
C416 H408 0.951 . S
C416 C411 1.429 . S
C416 C415 1.347 . S
H417 C418 0.951 . S
C418 H417 0.951 . S
C418 C424 1.265 . S
H419 C424 0.950 . S
H420 C428 0.949 . S
H421 C429 0.950 . S
H422 C430 0.951 . S
H423 C431 0.951 . S
C424 C418 1.265 . S
C424 H419 0.950 . S
C424 C425 1.478 . S
C425 C412 1.394 . S
C425 C424 1.478 . S
C425 C426 1.397 . S
C426 C425 1.397 . S
C426 C427 1.438 . S
C426 C431 1.429 . S
C427 C410 1.394 . S
C427 C426 1.438 . S
C427 C428 1.428 . S
C428 H420 0.949 . S
C428 C427 1.428 . S
C428 C429 1.345 . S
C429 H421 0.950 . S
C429 C428 1.345 . S
C429 C430 1.424 . S
C430 H422 0.951 . S
C430 C429 1.424 . S
C430 C431 1.347 . S
C431 H423 0.951 . S
C431 C426 1.429 . S
C431 C430 1.347 . S
H432 C433 0.951 . S
C433 H432 0.951 . S
C433 C439 1.265 . S
H434 C439 0.950 . S
H435 C443 0.949 . S
H436 C444 0.950 . S
H437 C445 0.951 . S
H438 C446 0.951 . S
C439 C433 1.265 . S
C439 H434 0.950 . S
C439 C440 1.478 . S
C440 C439 1.478 . S
C440 C441 1.397 . S
C440 C457 1.394 . S
C441 C440 1.397 . S
C441 C442 1.438 . S
C441 C446 1.429 . S
C442 C441 1.438 . S
C442 C443 1.428 . S
C442 C455 1.394 . S
C443 H435 0.949 . S
C443 C442 1.428 . S
C443 C444 1.345 . S
C444 H436 0.950 . S
C444 C443 1.345 . S
C444 C445 1.424 . S
C445 H437 0.951 . S
C445 C444 1.424 . S
C445 C446 1.347 . S
C446 H438 0.951 . S
C446 C441 1.429 . S
C446 C445 1.347 . S
H447 C448 0.951 . S
C448 H447 0.951 . S
C448 C454 1.265 . S
H449 C454 0.950 . S
H450 C458 0.949 . S
H451 C459 0.950 1_655 S
H452 C460 0.951 1_655 S
H453 C461 0.951 . S
C454 C448 1.265 . S
C454 H449 0.950 . S
C454 C455 1.478 . S
C455 C442 1.394 . S
C455 C454 1.478 . S
C455 C456 1.397 . S
C456 C455 1.397 . S
C456 C457 1.438 . S
C456 C461 1.429 . S
C457 C440 1.394 . S
C457 C456 1.438 . S
C457 C458 1.428 . S
C458 H450 0.949 . S
C458 C457 1.428 . S
C458 C459 1.345 . S
C459 H451 0.950 1_455 S
C459 C458 1.345 . S
C459 C460 1.424 . S
C460 H452 0.951 1_455 S
C460 C459 1.424 . S
C460 C461 1.347 . S
C461 H453 0.951 . S
C461 C456 1.429 . S
C461 C460 1.347 . S
H462 C463 0.951 . S
C463 H462 0.951 . S
C463 C469 1.265 . S
H464 C469 0.950 . S
H465 C473 0.949 . S
H466 C474 0.950 1_565 S
H467 C475 0.951 1_565 S
H468 C476 0.951 . S
C469 C463 1.265 . S
C469 H464 0.950 . S
C469 C470 1.478 . S
C470 C469 1.478 . S
C470 C471 1.397 . S
C470 C487 1.394 . S
C471 C470 1.397 . S
C471 C472 1.438 . S
C471 C476 1.429 . S
C472 C471 1.438 . S
C472 C473 1.428 . S
C472 C485 1.394 . S
C473 H465 0.949 . S
C473 C472 1.428 . S
C473 C474 1.345 . S
C474 H466 0.950 1_545 S
C474 C473 1.345 . S
C474 C475 1.424 . S
C475 H467 0.951 1_545 S
C475 C474 1.424 . S
C475 C476 1.347 . S
C476 H468 0.951 . S
C476 C471 1.429 . S
C476 C475 1.347 . S
H477 C478 0.951 . S
C478 H477 0.951 . S
C478 C484 1.265 . S
H479 C484 0.950 . S
H480 C488 0.949 . S
H481 C489 0.950 . S
H482 C490 0.951 . S
H483 C491 0.951 . S
C484 C478 1.265 . S
C484 H479 0.950 . S
C484 C485 1.478 . S
C485 C472 1.394 . S
C485 C484 1.478 . S
C485 C486 1.397 . S
C486 C485 1.397 . S
C486 C487 1.438 . S
C486 C491 1.429 . S
C487 C470 1.394 . S
C487 C486 1.438 . S
C487 C488 1.428 . S
C488 H480 0.949 . S
C488 C487 1.428 . S
C488 C489 1.345 . S
C489 H481 0.950 . S
C489 C488 1.345 . S
C489 C490 1.424 . S
C490 H482 0.951 . S
C490 C489 1.424 . S
C490 C491 1.347 . S
C491 H483 0.951 . S
C491 C486 1.429 . S
C491 C490 1.347 . S
H492 C493 0.951 . S
C493 H492 0.951 . S
C493 C499 1.265 . S
H494 C499 0.950 . S
H495 C503 0.949 . S
H496 C504 0.950 . S
H497 C505 0.951 . S
H498 C506 0.951 . S
C499 C493 1.265 . S
C499 H494 0.950 . S
C499 C500 1.478 . S
C500 C499 1.478 . S
C500 C501 1.397 . S
C500 C517 1.394 . S
C501 C500 1.397 . S
C501 C502 1.438 1_554 S
C501 C506 1.429 . S
C502 C501 1.438 1_556 S
C502 C503 1.428 . S
C502 C515 1.394 . S
C503 H495 0.949 . S
C503 C502 1.428 . S
C503 C504 1.345 . S
C504 H496 0.950 . S
C504 C503 1.345 . S
C504 C505 1.424 1_556 S
C505 H497 0.951 . S
C505 C504 1.424 1_554 S
C505 C506 1.347 . S
C506 H498 0.951 . S
C506 C501 1.429 . S
C506 C505 1.347 . S
H507 C508 0.951 . S
C508 H507 0.951 . S
C508 C514 1.265 . S
H509 C514 0.950 . S
H510 C518 0.949 . S
H511 C519 0.950 . S
H512 C520 0.951 . S
H513 C521 0.951 . S
C514 C508 1.265 . S
C514 H509 0.950 . S
C514 C515 1.478 . S
C515 C502 1.394 . S
C515 C514 1.478 . S
C515 C516 1.397 . S
C516 C515 1.397 . S
C516 C517 1.438 1_556 S
C516 C521 1.429 . S
C517 C500 1.394 . S
C517 C516 1.438 1_554 S
C517 C518 1.428 . S
C518 H510 0.949 . S
C518 C517 1.428 . S
C518 C519 1.345 . S
C519 H511 0.950 . S
C519 C518 1.345 . S
C519 C520 1.424 1_554 S
C520 H512 0.951 . S
C520 C519 1.424 1_556 S
C520 C521 1.347 . S
C521 H513 0.951 . S
C521 C516 1.429 . S
C521 C520 1.347 . S
H522 C523 0.951 . S
C523 H522 0.951 . S
C523 C529 1.265 . S
H524 C529 0.950 1_655 S
H525 C533 0.949 . S
H526 C534 0.950 . S
H527 C535 0.951 . S
H528 C536 0.951 . S
C529 C523 1.265 . S
C529 H524 0.950 1_455 S
C529 C530 1.478 . S
C530 C529 1.478 . S
C530 C531 1.397 1_455 S
C530 C547 1.394 . S
C531 C530 1.397 1_655 S
C531 C532 1.438 . S
C531 C536 1.429 . S
C532 C531 1.438 . S
C532 C533 1.428 . S
C532 C545 1.394 . S
C533 H525 0.949 . S
C533 C532 1.428 . S
C533 C534 1.345 . S
C534 H526 0.950 . S
C534 C533 1.345 . S
C534 C535 1.424 . S
C535 H527 0.951 . S
C535 C534 1.424 . S
C535 C536 1.347 . S
C536 H528 0.951 . S
C536 C531 1.429 . S
C536 C535 1.347 . S
H537 C538 0.951 . S
C538 H537 0.951 . S
C538 C544 1.265 . S
H539 C544 0.950 1_455 S
H540 C548 0.949 . S
H541 C549 0.950 . S
H542 C550 0.951 . S
H543 C551 0.951 . S
C544 C538 1.265 . S
C544 H539 0.950 1_655 S
C544 C545 1.478 . S
C545 C532 1.394 . S
C545 C544 1.478 . S
C545 C546 1.397 1_655 S
C546 C545 1.397 1_455 S
C546 C547 1.438 . S
C546 C551 1.429 . S
C547 C530 1.394 . S
C547 C546 1.438 . S
C547 C548 1.428 . S
C548 H540 0.949 . S
C548 C547 1.428 . S
C548 C549 1.345 . S
C549 H541 0.950 . S
C549 C548 1.345 . S
C549 C550 1.424 . S
C550 H542 0.951 . S
C550 C549 1.424 . S
C550 C551 1.347 . S
C551 H543 0.951 . S
C551 C546 1.429 . S
C551 C550 1.347 . S
H552 C553 0.951 . S
C553 H552 0.951 . S
C553 C559 1.265 . S
H554 C559 0.950 . S
H555 C563 0.949 . S
H556 C564 0.950 . S
H557 C565 0.951 . S
H558 C566 0.951 . S
C559 C553 1.265 . S
C559 H554 0.950 . S
C559 C560 1.478 . S
C560 C559 1.478 . S
C560 C561 1.397 1_545 S
C560 C577 1.394 . S
C561 C560 1.397 1_565 S
C561 C562 1.438 1_556 S
C561 C566 1.429 . S
C562 C561 1.438 1_554 S
C562 C563 1.428 . S
C562 C575 1.394 . S
C563 H555 0.949 . S
C563 C562 1.428 . S
C563 C564 1.345 . S
C564 H556 0.950 . S
C564 C563 1.345 . S
C564 C565 1.424 1_554 S
C565 H557 0.951 . S
C565 C564 1.424 1_556 S
C565 C566 1.347 . S
C566 H558 0.951 . S
C566 C561 1.429 . S
C566 C565 1.347 . S
H567 C568 0.951 . S
C568 H567 0.951 . S
C568 C574 1.265 . S
H569 C574 0.950 . S
H570 C578 0.949 . S
H571 C579 0.950 . S
H572 C580 0.951 . S
H573 C581 0.951 . S
C574 C568 1.265 . S
C574 H569 0.950 . S
C574 C575 1.478 . S
C575 C562 1.394 . S
C575 C574 1.478 . S
C575 C576 1.397 1_565 S
C576 C575 1.397 1_545 S
C576 C577 1.438 1_554 S
C576 C581 1.429 . S
C577 C560 1.394 . S
C577 C576 1.438 1_556 S
C577 C578 1.428 . S
C578 H570 0.949 . S
C578 C577 1.428 . S
C578 C579 1.345 . S
C579 H571 0.950 . S
C579 C578 1.345 . S
C579 C580 1.424 1_556 S
C580 H572 0.951 . S
C580 C579 1.424 1_554 S
C580 C581 1.347 . S
C581 H573 0.951 . S
C581 C576 1.429 . S
C581 C580 1.347 . S
H582 C583 0.951 . S
C583 H582 0.951 . S
C583 C589 1.265 . S
H584 C589 0.950 . S
H585 C593 0.949 . S
H586 C594 0.950 . S
H587 C595 0.951 . S
H588 C596 0.951 . S
C589 C583 1.265 . S
C589 H584 0.950 . S
C589 C590 1.478 . S
C590 C589 1.478 . S
C590 C591 1.397 . S
C590 C607 1.394 . S
C591 C590 1.397 . S
C591 C592 1.438 . S
C591 C596 1.429 . S
C592 C591 1.438 . S
C592 C593 1.428 . S
C592 C605 1.394 . S
C593 H585 0.949 . S
C593 C592 1.428 . S
C593 C594 1.345 . S
C594 H586 0.950 . S
C594 C593 1.345 . S
C594 C595 1.424 . S
C595 H587 0.951 . S
C595 C594 1.424 . S
C595 C596 1.347 . S
C596 H588 0.951 . S
C596 C591 1.429 . S
C596 C595 1.347 . S
H597 C598 0.951 . S
C598 H597 0.951 . S
C598 C604 1.265 . S
H599 C604 0.950 . S
H600 C608 0.949 . S
H601 C609 0.950 . S
H602 C610 0.951 . S
H603 C611 0.951 . S
C604 C598 1.265 . S
C604 H599 0.950 . S
C604 C605 1.478 . S
C605 C592 1.394 . S
C605 C604 1.478 . S
C605 C606 1.397 . S
C606 C605 1.397 . S
C606 C607 1.438 . S
C606 C611 1.429 . S
C607 C590 1.394 . S
C607 C606 1.438 . S
C607 C608 1.428 . S
C608 H600 0.949 . S
C608 C607 1.428 . S
C608 C609 1.345 . S
C609 H601 0.950 . S
C609 C608 1.345 . S
C609 C610 1.424 . S
C610 H602 0.951 . S
C610 C609 1.424 . S
C610 C611 1.347 . S
C611 H603 0.951 . S
C611 C606 1.429 . S
C611 C610 1.347 . S
H612 C613 0.951 . S
C613 H612 0.951 . S
C613 C619 1.265 . S
H614 C619 0.950 . S
H615 C623 0.949 . S
H616 C624 0.950 . S
H617 C625 0.951 . S
H618 C626 0.951 . S
C619 C613 1.265 . S
C619 H614 0.950 . S
C619 C620 1.478 . S
C620 C619 1.478 . S
C620 C621 1.397 . S
C620 C637 1.394 . S
C621 C620 1.397 . S
C621 C622 1.438 1_454 S
C621 C626 1.429 . S
C622 C621 1.438 1_656 S
C622 C623 1.428 . S
C622 C635 1.394 . S
C623 H615 0.949 . S
C623 C622 1.428 . S
C623 C624 1.345 . S
C624 H616 0.950 . S
C624 C623 1.345 . S
C624 C625 1.424 1_656 S
C625 H617 0.951 . S
C625 C624 1.424 1_454 S
C625 C626 1.347 . S
C626 H618 0.951 . S
C626 C621 1.429 . S
C626 C625 1.347 . S
H627 C628 0.951 . S
C628 H627 0.951 . S
C628 C634 1.265 . S
H629 C634 0.950 . S
H630 C638 0.949 . S
H631 C639 0.950 . S
H632 C640 0.951 . S
H633 C641 0.951 . S
C634 C628 1.265 . S
C634 H629 0.950 . S
C634 C635 1.478 . S
C635 C622 1.394 . S
C635 C634 1.478 . S
C635 C636 1.397 . S
C636 C635 1.397 . S
C636 C637 1.438 1_656 S
C636 C641 1.429 . S
C637 C620 1.394 . S
C637 C636 1.438 1_454 S
C637 C638 1.428 . S
C638 H630 0.949 . S
C638 C637 1.428 . S
C638 C639 1.345 . S
C639 H631 0.950 . S
C639 C638 1.345 . S
C639 C640 1.424 1_454 S
C640 H632 0.951 . S
C640 C639 1.424 1_656 S
C640 C641 1.347 . S
C641 H633 0.951 . S
C641 C636 1.429 . S
C641 C640 1.347 . S
H642 C643 0.951 . S
C643 H642 0.951 . S
C643 C649 1.265 . S
H644 C649 0.950 . S
H645 C653 0.949 . S
H646 C654 0.950 . S
H647 C655 0.951 . S
H648 C656 0.951 . S
C649 C643 1.265 . S
C649 H644 0.950 . S
C649 C650 1.478 . S
C650 C649 1.478 . S
C650 C651 1.397 . S
C650 C667 1.394 1_565 S
C651 C650 1.397 . S
C651 C652 1.438 . S
C651 C656 1.429 . S
C652 C651 1.438 . S
C652 C653 1.428 . S
C652 C665 1.394 1_565 S
C653 H645 0.949 . S
C653 C652 1.428 . S
C653 C654 1.345 . S
C654 H646 0.950 . S
C654 C653 1.345 . S
C654 C655 1.424 . S
C655 H647 0.951 . S
C655 C654 1.424 . S
C655 C656 1.347 . S
C656 H648 0.951 . S
C656 C651 1.429 . S
C656 C655 1.347 . S
H657 C658 0.951 . S
C658 H657 0.951 . S
C658 C664 1.265 . S
H659 C664 0.950 . S
H660 C668 0.949 . S
H661 C669 0.950 . S
H662 C670 0.951 . S
H663 C671 0.951 . S
C664 C658 1.265 . S
C664 H659 0.950 . S
C664 C665 1.478 . S
C665 C652 1.394 1_545 S
C665 C664 1.478 . S
C665 C666 1.397 . S
C666 C665 1.397 . S
C666 C667 1.438 . S
C666 C671 1.429 . S
C667 C650 1.394 1_545 S
C667 C666 1.438 . S
C667 C668 1.428 . S
C668 H660 0.949 . S
C668 C667 1.428 . S
C668 C669 1.345 . S
C669 H661 0.950 . S
C669 C668 1.345 . S
C669 C670 1.424 . S
C670 H662 0.951 . S
C670 C669 1.424 . S
C670 C671 1.347 . S
C671 H663 0.951 . S
C671 C666 1.429 . S
C671 C670 1.347 . S
C133 C5 1.473 . S
C148 C115 1.442 . S
C163 C126 1.403 . S
C178 C16 1.465 . S
C193 C71 1.473 . S
C208 C27 1.443 . S
C223 C38 1.337 . S
C238 C82 1.336 . S
C253 C93 1.340 . S
C268 C49 1.332 . S
C283 C104 1.373 . S
C298 C60 1.447 . S
C313 C7 1.494 . S
C328 C73 1.554 . S
C343 C18 1.551 . S
C358 C84 1.488 . S
C373 C29 1.504 . S
C388 C95 1.511 . S
C403 C106 1.498 . S
C418 C40 1.554 . S
C433 C51 1.508 . S
C448 C117 1.552 . S
C463 C62 1.516 . S
C478 C128 1.500 . S
C493 C8 1.571 . S
C508 C107 1.570 . S
C523 C118 1.571 . S
C538 C19 1.570 . S
C553 C129 1.568 . S
C568 C30 1.563 . S
C583 C41 1.570 . S
C598 C74 1.571 . S
C613 C52 1.565 . S
C628 C85 1.563 . S
C643 C96 1.563 . S
C658 C63 1.567 . S
