# Generated by pormake.
# Topology wnr, (7)-cn, num edge types: 1
# Building blocks:
#     Node 0, Type 0, BuildingBlock: HICVOG_clean_sbu_0, # of connection points: 7
#     Node 1, Type 0, BuildingBlock: HICVOG_clean_sbu_0, # of connection points: 7
#     Node 2, Type 0, BuildingBlock: HICVOG_clean_sbu_0, # of connection points: 7
#     Node 3, Type 0, BuildingBlock: HICVOG_clean_sbu_0, # of connection points: 7
#     Node 4, Type 0, BuildingBlock: HICVOG_clean_sbu_0, # of connection points: 7
#     Node 5, Type 0, BuildingBlock: HICVOG_clean_sbu_0, # of connection points: 7
#     Edge 6, Type (0, 0), BuildingBlock: AJUNOK_clean_linker_0, # of connection points: 2
#     Edge 7, Type (0, 0), BuildingBlock: AJUNOK_clean_linker_0, # of connection points: 2
#     Edge 8, Type (0, 0), BuildingBlock: AJUNOK_clean_linker_0, # of connection points: 2
#     Edge 9, Type (0, 0), BuildingBlock: AJUNOK_clean_linker_0, # of connection points: 2
#     Edge 10, Type (0, 0), BuildingBlock: AJUNOK_clean_linker_0, # of connection points: 2
#     Edge 11, Type (0, 0), BuildingBlock: AJUNOK_clean_linker_0, # of connection points: 2
#     Edge 12, Type (0, 0), BuildingBlock: AJUNOK_clean_linker_0, # of connection points: 2
#     Edge 13, Type (0, 0), BuildingBlock: AJUNOK_clean_linker_0, # of connection points: 2
#     Edge 14, Type (0, 0), BuildingBlock: AJUNOK_clean_linker_0, # of connection points: 2
#     Edge 15, Type (0, 0), BuildingBlock: AJUNOK_clean_linker_0, # of connection points: 2
#     Edge 16, Type (0, 0), BuildingBlock: AJUNOK_clean_linker_0, # of connection points: 2
#     Edge 17, Type (0, 0), BuildingBlock: AJUNOK_clean_linker_0, # of connection points: 2
#     Edge 18, Type (0, 0), BuildingBlock: AJUNOK_clean_linker_0, # of connection points: 2
#     Edge 19, Type (0, 0), BuildingBlock: AJUNOK_clean_linker_0, # of connection points: 2
#     Edge 20, Type (0, 0), BuildingBlock: AJUNOK_clean_linker_0, # of connection points: 2
#     Edge 21, Type (0, 0), BuildingBlock: AJUNOK_clean_linker_0, # of connection points: 2
#     Edge 22, Type (0, 0), BuildingBlock: AJUNOK_clean_linker_0, # of connection points: 2
#     Edge 23, Type (0, 0), BuildingBlock: AJUNOK_clean_linker_0, # of connection points: 2
#     Edge 24, Type (0, 0), BuildingBlock: AJUNOK_clean_linker_0, # of connection points: 2
#     Edge 25, Type (0, 0), BuildingBlock: AJUNOK_clean_linker_0, # of connection points: 2
#     Edge 26, Type (0, 0), BuildingBlock: AJUNOK_clean_linker_0, # of connection points: 2
# Relax obj value: 0.171
# Max RMSD: 0.230
# Mean RMSD: 0.230
data_MOF--net-wnr--node1-HICVOG_clean_sbu_0--edge1-AJUNOK_clean_linker_0
_symmetry_space_group_name_H-M    P1
_symmetry_Int_Tables_number       1
_symmetry_cell_setting            triclinic
loop_
_symmetry_equiv_pos_as_xyz
'x, y, z'
_cell_length_a     32.457619
_cell_length_b     32.42787
_cell_length_c     13.978671
_cell_angle_alpha  90.077929
_cell_angle_beta   89.745791
_cell_angle_gamma 120.01707
loop_
_atom_site_label
_atom_site_type_symbol
_atom_site_fract_x
_atom_site_fract_y
_atom_site_fract_z
_atom_type_partial_charge
Zn0 Zn 0.19793 0.40921 0.98294 0.0
C1 C 0.0965 0.40916 0.14109 0.0
N2 N 0.06983 0.38267 0.06787 0.0
C3 C 0.1022 0.38848 0.00224 0.0
N4 N 0.1468 0.41684 0.03406 0.0
N5 N 0.14376 0.43149 0.12098 0.0
C6 C 0.18097 0.43716 0.37565 0.0
O7 O 0.15812 0.39621 0.33066 0.0
O8 O 0.19045 0.40255 0.83807 0.0
Zn9 Zn 0.19663 0.48693 0.18576 0.0
N10 N 0.19467 0.3526 0.04033 0.0
C11 C 0.16077 0.29331 0.16196 0.0
C12 C 0.16515 0.33356 0.11706 0.0
C13 C 0.22079 0.33301 0.00738 0.0
N14 N 0.18613 0.27346 0.12859 0.0
C15 C 0.21641 0.29211 0.05279 0.0
O16 O 0.26355 0.51231 0.12626 0.0
C17 C 0.28418 0.50151 0.06099 0.0
O18 O 0.26161 0.46469 0.00934 0.0
H19 H 0.14493 0.34934 0.1435 0.0
H20 H 0.24373 0.34845 0.94571 0.0
C21 C 0.20199 0.57708 0.2379 0.0
C22 C 0.19101 0.61372 0.22543 0.0
C23 C 0.14775 0.5749 0.08498 0.0
C24 C 0.15857 0.53888 0.09778 0.0
N25 N 0.18506 0.54027 0.17396 0.0
N26 N 0.16413 0.61121 0.14868 0.0
H27 H 0.22302 0.57737 0.29801 0.0
C28 C 0.20784 0.44106 0.79008 0.0
O29 O 0.23066 0.48162 0.83634 0.0
O30 O 0.19865 0.47569 0.32783 0.0
H31 H 0.14556 0.50968 0.04783 0.0
H32 H 0.13718 0.27777 0.2227 0.0
H33 H 0.12648 0.57407 0.02486 0.0
Zn34 Zn 0.67843 0.81371 0.64979 0.0
C35 C 0.66941 0.70845 0.81262 0.0
N36 N 0.69555 0.70594 0.74081 0.0
C37 C 0.69418 0.73505 0.67539 0.0
N38 N 0.66841 0.75472 0.70518 0.0
N39 N 0.65168 0.73749 0.79154 0.0
C40 C 0.64765 0.77124 0.04301 0.0
O41 O 0.68731 0.79563 -0.00596 0.0
O42 O 0.6856 0.81143 0.50556 0.0
Zn43 Zn 0.59921 0.74145 0.85473 0.0
N44 N 0.73512 0.86672 0.70695 0.0
C45 C 0.79242 0.89283 0.83183 0.0
C46 C 0.75479 0.85627 0.78215 0.0
C47 C 0.75225 0.9128 0.67871 0.0
N48 N 0.80904 0.93861 0.80469 0.0
C49 C 0.79017 0.94999 0.72938 0.0
O50 O 0.58129 0.78958 0.80138 0.0
C51 C 0.59147 0.81782 0.73042 0.0
O52 O 0.62513 0.82606 0.67292 0.0
H53 H 0.7409 0.81987 0.8048 0.0
H54 H 0.73569 0.92042 0.61949 0.0
C55 C 0.50468 0.66147 0.89442 0.0
C56 C 0.46473 0.61692 0.87348 0.0
C57 C 0.49988 0.61642 0.72422 0.0
C58 C 0.53941 0.66028 0.74542 0.0
N59 N 0.54147 0.68159 0.83041 0.0
N60 N 0.46383 0.59572 0.78871 0.0
H61 H 0.50742 0.67909 0.96183 0.0
C62 C 0.64785 0.78349 0.46008 0.0
O63 O 0.60805 0.75941 0.50878 0.0
O64 O 0.60849 0.74799 -0.00156 0.0
H65 H 0.56855 0.67708 0.69495 0.0
H66 H 0.8081 0.88492 0.89216 0.0
H67 H 0.49792 0.59875 0.6573 0.0
Zn68 Zn 0.34902 0.88726 0.51247 0.0
C69 C 0.35401 0.98416 0.32174 0.0
N70 N 0.38357 1.01583 0.38525 0.0
C71 C 0.38151 0.98811 0.45825 0.0
N72 N 0.35209 0.94115 0.44054 0.0
N73 N 0.33441 0.93915 0.35434 0.0
C74 C 0.30374 0.86937 0.11985 0.0
O75 O 0.3209 0.85053 0.17952 0.0
O76 O 0.33727 0.89293 0.65367 0.0
Zn77 Zn 0.27669 0.88853 0.29941 0.0
N78 N 0.41101 0.89235 0.49744 0.0
C79 C 0.4749 0.91215 0.38904 0.0
C80 C 0.43071 0.90719 0.40931 0.0
C81 C 0.43343 0.88095 0.56626 0.0
N82 N 0.49724 0.90091 0.4571 0.0
C83 C 0.47787 0.88495 0.54541 0.0
O84 O 0.26241 0.82389 0.33856 0.0
C85 C 0.27165 0.79965 0.39665 0.0
O86 O 0.30241 0.81927 0.46283 0.0
H87 H 0.41211 0.91525 0.35528 0.0
H88 H 0.41728 0.86964 0.63609 0.0
C89 C 0.17735 0.86346 0.31767 0.0
C90 C 0.13955 0.86748 0.35792 0.0
C91 C 0.19546 0.93501 0.44583 0.0
C92 C 0.23264 0.93103 0.40575 0.0
N93 N 0.2231 0.8954 0.34264 0.0
N94 N 0.15002 0.90324 0.42136 0.0
H95 H 0.17055 0.83465 0.26928 0.0
C96 C 0.32698 0.85755 0.70779 0.0
O97 O 0.32252 0.81858 0.66917 0.0
O98 O 0.28266 0.89038 0.15402 0.0
H99 H 0.26876 0.9557 0.42668 0.0
H100 H 0.49119 0.92444 0.31945 0.0
H101 H 0.20262 0.963 0.49666 0.0
Zn102 Zn 0.50705 0.18059 0.7921 0.0
C103 C 0.41753 0.0709 0.95584 0.0
N104 N 0.4222 0.0469 0.88265 0.0
C105 C 0.44506 0.08066 0.81697 0.0
N106 N 0.45404 0.12372 0.84812 0.0
N107 N 0.43593 0.11777 0.93547 0.0
C108 C 0.45343 0.15403 0.18894 0.0
O109 O 0.48655 0.1507 0.14101 0.0
O110 O 0.49923 0.17688 0.64871 0.0
Zn111 Zn 0.42479 0.16505 -0.00151 0.0
N112 N 0.56288 0.17539 0.81819 0.0
C113 C 0.6014 0.14871 0.92519 0.0
C114 C 0.56293 0.15447 0.90231 0.0
C115 C 0.60034 0.19158 0.75606 0.0
N116 N 0.63863 0.16467 0.86352 0.0
C117 C 0.63958 0.1861 0.77913 0.0
O118 O 0.4753 0.23254 0.97179 0.0
C119 C 0.50916 0.2607 0.91709 0.0
O120 O 0.52259 0.24548 0.84622 0.0
H121 H 0.53324 0.14228 0.9513 0.0
H122 H 0.59927 0.20804 0.68955 0.0
C123 C 0.34988 0.18878 0.97741 0.0
C124 C 0.30681 0.18262 0.94017 0.0
C125 C 0.29692 0.11535 0.85289 0.0
C126 C 0.33941 0.12158 0.88976 0.0
N127 N 0.36504 0.15792 0.95153 0.0
N128 N 0.28156 0.14567 0.87923 0.0
H129 H 0.37062 0.21699 0.02771 0.0
C130 C 0.46455 0.17528 0.60367 0.0
O131 O 0.43203 0.17978 0.65127 0.0
O132 O 0.42261 0.15921 0.14293 0.0
H133 H 0.35173 0.09746 0.86923 0.0
H134 H 0.60185 0.13194 -0.0083 0.0
H135 H 0.27611 0.08646 0.80398 0.0
Zn136 Zn 0.92154 0.28847 0.68635 0.0
C137 C 1.00562 0.39123 0.50127 0.0
N138 N 1.03916 0.40219 0.56723 0.0
C139 C 1.01481 0.37381 0.64056 0.0
N140 N 0.96806 0.3457 0.62019 0.0
N141 N 0.96219 0.35805 0.5332 0.0
C142 C 0.88635 0.29806 0.29495 0.0
O143 O 0.86201 0.2609 0.35063 0.0
O144 O 0.92761 0.29793 0.83032 0.0
Zn145 Zn 0.90454 0.35109 0.47308 0.0
N146 N 0.92885 0.2348 0.64481 0.0
C147 C 0.97032 0.2062 0.54963 0.0
C148 C 0.96614 0.24387 0.58658 0.0
C149 C 0.89545 0.18913 0.66756 0.0
N150 N 0.93725 0.1608 0.57283 0.0
C151 C 0.89985 0.15088 0.63161 0.0
O152 O 0.84022 0.30273 0.53124 0.0
C153 C 0.82578 0.27447 0.60256 0.0
O154 O 0.85452 0.27022 0.65729 0.0
H155 H 0.99215 0.28006 0.56788 0.0
H156 H 0.86524 0.18265 0.71109 0.0
C157 C 0.88989 0.4301 0.42139 0.0
C158 C 0.89314 0.47455 0.43834 0.0
C159 C 0.93302 0.48079 0.58465 0.0
C160 C 0.92906 0.43667 0.5683 0.0
N161 N 0.90798 0.41231 0.48705 0.0
N162 N 0.91506 0.49853 0.51974 0.0
H163 H 0.8738 0.41009 0.35692 0.0
C164 C 0.89468 0.26854 0.88534 0.0
O165 O 0.85783 0.23131 0.84772 0.0
O166 O 0.90655 0.33937 0.33179 0.0
H167 H 0.94268 0.42184 0.62016 0.0
H168 H 0.99964 0.21298 0.50263 0.0
H169 H 0.94998 0.50072 0.64874 0.0
Zn170 Zn 0.7332 0.58085 0.13116 0.0
C171 C 0.71568 0.66906 0.3105 0.0
N172 N 0.68544 0.66487 0.24131 0.0
C173 C 0.69435 0.64168 0.17276 0.0
N174 N 0.72799 0.6312 0.19895 0.0
N175 N 0.74253 0.64945 0.28541 0.0
C176 C 0.76961 0.61387 0.52309 0.0
O177 O 0.74676 0.57847 0.46293 0.0
O178 O 0.7466 0.59855 0.99034 0.0
Zn179 Zn 0.80059 0.65832 0.34393 0.0
N180 N 0.67054 0.52375 0.14285 0.0
C181 C 0.60261 0.4812 0.24296 0.0
C182 C 0.64695 0.52082 0.22542 0.0
C183 C 0.65157 0.48778 0.07703 0.0
N184 N 0.58399 0.44528 0.17835 0.0
C185 C 0.60709 0.44674 0.09569 0.0
O186 O 0.81469 0.60688 0.31133 0.0
C187 C 0.8078 0.57301 0.25601 0.0
O188 O 0.77922 0.56082 0.18569 0.0
H189 H 0.66265 0.54901 0.27785 0.0
H190 H 0.67073 0.49132 0.01144 0.0
C191 C 0.90057 0.73024 0.31709 0.0
C192 C 0.93839 0.76896 0.26887 0.0
C193 C 0.88235 0.77876 0.17763 0.0
C194 C 0.84515 0.74018 0.22447 0.0
N195 N 0.85474 0.71654 0.29321 0.0
N196 N 0.92787 0.79207 0.20049 0.0
H197 H 0.90743 0.71029 0.37051 0.0
C198 C 0.75786 0.57523 0.93323 0.0
O199 O 0.76341 0.54064 0.96761 0.0
O200 O 0.79551 0.65564 0.48953 0.0
H201 H 0.80886 0.72877 0.20492 0.0
H202 H 0.58336 0.47861 0.30813 0.0
H203 H 0.87512 0.79774 0.12267 0.0
C204 C 0.05285 0.33829 0.86799 0.0
C205 C 0.08876 0.38271 0.90155 0.0
C206 C 1.02897 0.33478 0.78224 0.0
C207 C 1.03918 0.37583 0.73025 0.0
H208 H 1.04197 0.30644 0.91018 0.0
H209 H 1.0021 0.30005 0.75767 0.0
S210 S 0.12908 0.50055 0.7907 0.0
N211 N 0.13315 0.4682 0.87706 0.0
N212 N 0.08791 0.46209 0.71782 0.0
C213 C 0.07582 0.42023 0.76239 0.0
C214 C 0.10056 0.42358 0.84796 0.0
C215 C 0.66844 0.67727 0.438 0.0
C216 C 0.71385 0.68944 0.40312 0.0
C217 C 0.66286 0.69633 0.52288 0.0
C218 C 0.70248 0.72864 0.57568 0.0
H219 H 0.63663 0.65179 0.40035 0.0
H220 H 0.62716 0.68377 0.54995 0.0
S221 S 0.82902 0.77657 0.51136 0.0
N222 N 0.79925 0.74001 0.42281 0.0
N223 N 0.78854 0.77388 0.58724 0.0
C224 C 0.74815 0.74241 0.54103 0.0
C225 C 0.75394 0.7234 0.45315 0.0
C226 C 0.3476 1.03126 0.18861 0.0
C227 C 0.35899 0.99713 0.22096 0.0
C228 C 0.36546 0.0548 0.10092 0.0
C229 C 0.39702 0.04643 0.0467 0.0
H230 H 0.32626 0.04093 0.23286 0.0
H231 H 0.35533 0.08012 0.07655 0.0
S232 S 0.43792 0.96068 0.10257 0.0
N233 N 0.40247 0.95556 0.19221 0.0
N234 N 0.43766 1.00072 0.03033 0.0
C235 C 0.40744 1.01137 0.07773 0.0
C236 C 0.38824 0.98668 0.16465 0.0
C237 C 0.25549 0.67944 0.32537 0.0
C238 C 0.20846 0.65578 0.29029 0.0
C239 C 0.27498 0.72468 0.36886 0.0
C240 C 0.24811 0.74768 0.37837 0.0
H241 H 0.27844 0.66461 0.31325 0.0
H242 H 0.31225 0.74321 0.38829 0.0
S243 S 0.1212 0.69757 0.3142 0.0
N244 N 0.13389 0.6563 0.28086 0.0
N245 N 0.17068 0.74098 0.3605 0.0
C246 C 0.20014 0.72272 0.35073 0.0
C247 C 0.18031 0.67691 0.30722 0.0
C248 C 0.36121 0.51372 -0.00189 0.0
C249 C 0.33494 0.5338 0.03585 0.0
C250 C 0.40475 0.54173 0.95145 0.0
C251 C 0.42406 0.5911 0.94051 0.0
H252 H 0.3468 0.47551 0.00026 0.0
H253 H 0.42247 0.52417 0.91986 0.0
S254 S 0.3712 0.66193 0.03199 0.0
N255 N 0.33286 0.60669 0.06461 0.0
N256 N 0.41498 0.65956 0.97624 0.0
C257 C 0.39985 0.61232 0.98327 0.0
C258 C 0.35523 0.5836 0.03123 0.0
C259 C 0.58241 0.88265 0.65693 0.0
C260 C 0.56146 0.83901 0.70637 0.0
C261 C 0.55466 0.89877 0.61192 0.0
C262 C 0.50463 0.87194 0.61376 0.0
H263 H 0.62073 0.90345 0.64861 0.0
H264 H 0.57269 0.93151 0.57097 0.0
S265 S 0.43204 0.75729 0.74201 0.0
N266 N 0.48761 0.77113 0.76224 0.0
N267 N 0.43515 0.80104 0.67614 0.0
C268 C 0.48305 0.82986 0.66899 0.0
C269 C 0.51155 0.81352 0.71568 0.0
C270 C 0.70145 0.24834 0.66922 0.0
C271 C 0.6827 0.20428 0.71724 0.0
C272 C 0.74664 0.26961 0.62533 0.0
C273 C 0.77463 0.24768 0.62861 0.0
H274 H 0.68255 0.26797 0.67045 0.0
H275 H 0.76095 0.30478 0.59429 0.0
S276 S 0.73868 0.12871 0.73022 0.0
N277 N 0.69336 0.13686 0.75375 0.0
N278 N 0.77796 0.17699 0.67256 0.0
C279 C 0.75484 0.20223 0.67013 0.0
C280 C 0.70901 0.18054 0.71417 0.0
C281 C 0.89839 0.54681 0.36454 0.0
C282 C 0.87376 0.49683 0.37261 0.0
C283 C 0.87795 0.57085 0.32005 0.0
C284 C 0.83206 0.54603 0.28071 0.0
H285 H 0.93313 0.56786 0.39684 0.0
H286 H 0.89747 0.60946 0.32034 0.0
S287 S 0.7532 0.41495 0.27658 0.0
N288 N 0.80135 0.42309 0.33293 0.0
N289 N 0.76345 0.46861 0.24712 0.0
C290 C 0.80808 0.49597 0.28225 0.0
C291 C 0.82877 0.47126 0.32873 0.0
C292 C 0.5102 0.33189 0.98747 0.0
C293 C 0.53519 0.31202 0.94306 0.0
C294 C 0.53411 0.37696 0.03014 0.0
C295 C 0.58421 0.40418 0.03159 0.0
H296 H 0.47172 0.31161 -0.00744 0.0
H297 H 0.51297 0.38971 0.06607 0.0
S298 S 0.66638 0.36907 0.92036 0.0
N299 N 0.61274 0.32399 0.89744 0.0
N300 N 0.658 0.40823 0.98025 0.0
C301 C 0.60973 0.38579 0.98289 0.0
C302 C 0.58513 0.33985 0.93807 0.0
C303 C 0.0549 0.442 0.36742 0.0
C304 C 1.02015 0.39686 0.40105 0.0
C305 C 0.08108 0.44665 0.28396 0.0
C306 C 0.07383 0.40616 0.23362 0.0
H307 H 0.06309 0.47368 0.40798 0.0
H308 H 0.10669 0.48179 0.25917 0.0
S309 S 0.9902 0.28 0.29711 0.0
N310 N 0.98192 0.31116 0.38058 0.0
N311 N 1.03082 0.31967 0.22441 0.0
C312 C 1.03922 0.36096 0.26681 0.0
C313 C 1.0124 0.35632 0.3504 0.0
C314 C 0.7241 0.68021 0.01856 0.0
C315 C 0.68502 0.64852 0.07406 0.0
C316 C 0.71779 0.70077 0.93679 0.0
C317 C 0.67219 0.69011 0.90676 0.0
H318 H 0.76007 0.69143 0.04146 0.0
H319 H 0.74918 0.72559 0.89666 0.0
S320 S 0.5581 0.60522 0.02337 0.0
N321 N 0.59923 0.60589 0.09365 0.0
N322 N 0.58711 0.64198 0.93417 0.0
C323 C 0.63262 0.65692 0.95954 0.0
C324 C 0.63916 0.63673 0.0447 0.0
C325 C 0.39781 0.06295 0.67279 0.0
C326 C 0.43803 0.06635 0.71708 0.0
C327 C 0.37875 0.03516 0.59136 0.0
C328 C 0.39915 1.00973 0.55161 0.0
H329 H 0.37937 0.07979 0.70433 0.0
H330 H 0.34763 0.03348 0.55907 0.0
S331 S 0.50787 1.01115 0.63522 0.0
N332 N 0.49904 0.04396 0.71428 0.0
N333 N 0.46476 0.99391 0.55576 0.0
C334 C 0.44066 1.01451 0.5924 0.0
C335 C 0.45967 0.04225 0.6769 0.0
C336 C 0.21518 0.21676 0.01293 0.0
C337 C 0.24123 0.26673 0.01883 0.0
C338 C 0.23702 0.19044 0.98756 0.0
C339 C 0.28617 0.21275 0.96892 0.0
H340 H 0.17732 0.19767 0.02799 0.0
H341 H 0.21517 0.15201 0.98382 0.0
S342 S 0.37085 0.34299 0.97454 0.0
N343 N 0.31908 0.33784 0.00379 0.0
N344 N 0.36039 0.28822 0.95631 0.0
C345 C 0.31291 0.26283 0.97444 0.0
C346 C 0.29037 0.28984 -0.00088 0.0
C347 C 0.82481 1.01613 0.60818 0.0
C348 C 0.81101 1.00101 0.70307 0.0
C349 C 0.85203 0.06482 0.58543 0.0
C350 C 0.8657 0.10026 0.65624 0.0
H351 H 0.81672 0.9902 0.55195 0.0
H352 H 0.86349 0.07478 0.51198 0.0
S353 S 0.8354 0.07908 0.91458 0.0
N354 N 0.81071 1.02522 0.8675 0.0
N355 N 0.86137 0.11645 0.82484 0.0
C356 C 0.85011 0.08555 0.75067 0.0
C357 C 0.82297 0.03603 0.77396 0.0
C358 C 1.00527 0.79437 0.38592 0.0
C359 C 0.98922 0.7862 0.29081 0.0
C360 C 0.05413 0.81867 0.40681 0.0
C361 C 0.08878 0.83486 0.33361 0.0
H362 H 0.98006 0.78443 0.44444 0.0
H363 H 0.06495 0.82623 0.48097 0.0
S364 S 0.065 0.81867 0.07304 0.0
N365 N 1.01165 0.79347 0.12293 0.0
N366 N 0.10329 0.83858 0.1623 0.0
C367 C 0.07311 0.82453 0.23845 0.0
C368 C 1.0234 0.80042 0.21713 0.0
C369 C 0.17109 0.39649 0.53444 0.0
C370 C 0.18684 0.43878 0.48158 0.0
C371 C 0.17773 0.39741 0.63395 0.0
C372 C 0.20052 0.44067 0.68479 0.0
H373 H 0.15382 0.36227 0.49873 0.0
H374 H 0.16517 0.36389 0.67106 0.0
S375 S 0.24512 0.56142 0.58151 0.0
N376 N 0.22379 0.52512 0.48918 0.0
N377 N 0.23668 0.52691 0.67474 0.0
C378 C 0.21546 0.48317 0.63307 0.0
C379 C 0.2085 0.48222 0.53204 0.0
C380 C 0.68811 0.8099 0.29958 0.0
C381 C 0.64833 0.77788 0.35435 0.0
C382 C 0.68804 0.80692 0.19922 0.0
C383 C 0.64818 0.77183 0.1495 0.0
H384 H 0.71924 0.83821 0.33421 0.0
H385 H 0.71913 0.83308 0.16033 0.0
S386 S 0.53745 0.6753 0.25964 0.0
N387 N 0.56969 0.70699 0.35123 0.0
N388 N 0.56957 0.70163 0.16354 0.0
C389 C 0.609 0.73832 0.20363 0.0
C390 C 0.60908 0.74127 0.30567 0.0
C391 C 0.31466 0.89666 0.85253 0.0
C392 C 0.32134 0.86038 0.81296 0.0
C393 C 0.30845 0.8992 0.95166 0.0
C394 C 0.30946 0.86603 0.01508 0.0
H395 H 0.31379 0.92309 0.80659 0.0
H396 H 0.30345 0.92771 0.97885 0.0
S397 S 0.32763 0.76522 0.94872 0.0
N398 N 0.32969 0.79124 0.84606 0.0
N399 N 0.31841 0.79621 0.03115 0.0
C400 C 0.31681 0.83006 0.97655 0.0
C401 C 0.32262 0.82717 0.87591 0.0
C402 C 0.4313 0.17885 0.44442 0.0
C403 C 0.46024 0.16695 0.49877 0.0
C404 C 0.42829 0.17328 0.34468 0.0
C405 C 0.454 0.15546 0.29522 0.0
H406 H 0.41164 0.19368 0.4788 0.0
H407 H 0.40654 0.18424 0.30592 0.0
S408 S 0.52906 0.112 0.4059 0.0
N409 N 0.51121 0.13179 0.49677 0.0
N410 N 0.50538 0.12116 0.30969 0.0
C411 C 0.48125 0.14123 0.34924 0.0
C412 C 0.48442 0.14702 0.45081 0.0
C413 C 0.86287 0.24655 0.14908 0.0
C414 C 0.8909 0.29166 0.19083 0.0
C415 C 0.86512 0.23943 0.05076 0.0
C416 C 0.89591 0.27697 0.98997 0.0
H417 H 0.83828 0.21643 0.19229 0.0
H418 H 0.84218 0.20411 0.02218 0.0
S419 S 0.97826 0.4019 0.06343 0.0
N420 N 0.95142 0.3745 0.16354 0.0
N421 N 0.95614 0.36085 0.97907 0.0
C422 C 0.92517 0.32208 0.03092 0.0
C423 C 0.92248 0.3295 0.13113 0.0
C424 C 0.77273 0.63871 0.69484 0.0
C425 C 0.76729 0.60412 0.62733 0.0
C426 C 0.76955 0.62916 0.79364 0.0
C427 C 0.76181 0.58504 0.82861 0.0
H428 H 0.77868 0.67309 0.67118 0.0
H429 H 0.7735 0.65669 0.84295 0.0
S430 S 0.74638 0.48293 0.68105 0.0
N431 N 0.75435 0.52423 0.60245 0.0
N432 N 0.74902 0.50661 0.78701 0.0
C433 C 0.75691 0.55045 0.76159 0.0
C434 C 0.75944 0.55989 0.66134 0.0
loop_
_geom_bond_atom_site_label_1
_geom_bond_atom_site_label_2
_geom_bond_distance
_geom_bond_site_symmetry_2
_ccdc_geom_bond_type
Zn0 N4 2.020 . S
Zn0 O8 2.019 1_554 S
Zn0 N10 2.119 . S
Zn0 O18 1.975 . S
C1 N2 1.334 . S
C1 N5 1.336 . S
N2 C1 1.334 . S
N2 C3 1.334 . S
C3 N2 1.334 . S
C3 N4 1.336 . S
N4 Zn0 2.020 . S
N4 C3 1.336 . S
N4 N5 1.354 . S
N5 C1 1.336 . S
N5 N4 1.354 . S
N5 Zn9 2.020 . S
C6 O7 1.244 . S
C6 O30 1.257 . S
O7 C6 1.244 . S
O8 Zn0 2.019 1_556 S
O8 C28 1.257 . S
Zn9 N5 2.020 . S
Zn9 O16 1.975 . S
Zn9 N25 2.119 . S
Zn9 O30 2.019 . S
N10 Zn0 2.119 . S
N10 C12 1.334 . S
N10 C13 1.328 1_554 S
C11 C12 1.391 . S
C11 N14 1.329 . S
C11 H32 0.930 . S
C12 N10 1.334 . S
C12 C11 1.391 . S
C12 H19 0.930 . S
C13 N10 1.328 1_556 S
C13 C15 1.392 1_556 S
C13 H20 0.930 . S
N14 C11 1.329 . S
N14 C15 1.331 . S
C15 C13 1.392 1_554 S
C15 N14 1.331 . S
O16 Zn9 1.975 . S
O16 C17 1.252 . S
C17 O16 1.252 . S
C17 O18 1.252 . S
O18 Zn0 1.975 . S
O18 C17 1.252 . S
H19 C12 0.930 . S
H20 C13 0.930 . S
C21 C22 1.392 . S
C21 N25 1.328 . S
C21 H27 0.930 . S
C22 C21 1.392 . S
C22 N26 1.331 . S
C23 C24 1.391 . S
C23 N26 1.329 . S
C23 H33 0.930 . S
C24 C23 1.391 . S
C24 N25 1.334 . S
C24 H31 0.930 . S
N25 Zn9 2.119 . S
N25 C21 1.328 . S
N25 C24 1.334 . S
N26 C22 1.331 . S
N26 C23 1.329 . S
H27 C21 0.930 . S
C28 O8 1.257 . S
C28 O29 1.244 . S
O29 C28 1.244 . S
O30 C6 1.257 . S
O30 Zn9 2.019 . S
H31 C24 0.930 . S
H32 C11 0.930 . S
H33 C23 0.930 . S
Zn34 N38 2.020 . S
Zn34 O42 2.019 . S
Zn34 N44 2.119 . S
Zn34 O52 1.975 . S
C35 N36 1.334 . S
C35 N39 1.336 . S
N36 C35 1.334 . S
N36 C37 1.334 . S
C37 N36 1.334 . S
C37 N38 1.336 . S
N38 Zn34 2.020 . S
N38 C37 1.336 . S
N38 N39 1.354 . S
N39 C35 1.336 . S
N39 N38 1.354 . S
N39 Zn43 2.020 . S
C40 O41 1.244 . S
C40 O64 1.257 . S
O41 C40 1.244 . S
O42 Zn34 2.019 . S
O42 C62 1.257 . S
Zn43 N39 2.020 . S
Zn43 O50 1.975 . S
Zn43 N59 2.119 . S
Zn43 O64 2.019 1_556 S
N44 Zn34 2.119 . S
N44 C46 1.334 . S
N44 C47 1.328 . S
C45 C46 1.391 . S
C45 N48 1.329 . S
C45 H66 0.930 . S
C46 N44 1.334 . S
C46 C45 1.391 . S
C46 H53 0.930 . S
C47 N44 1.328 . S
C47 C49 1.392 . S
C47 H54 0.930 . S
N48 C45 1.329 . S
N48 C49 1.331 . S
C49 C47 1.392 . S
C49 N48 1.331 . S
O50 Zn43 1.975 . S
O50 C51 1.252 . S
C51 O50 1.252 . S
C51 O52 1.252 . S
O52 Zn34 1.975 . S
O52 C51 1.252 . S
H53 C46 0.930 . S
H54 C47 0.930 . S
C55 C56 1.392 . S
C55 N59 1.328 . S
C55 H61 0.930 1_556 S
C56 C55 1.392 . S
C56 N60 1.331 . S
C57 C58 1.391 . S
C57 N60 1.329 . S
C57 H67 0.930 . S
C58 C57 1.391 . S
C58 N59 1.334 . S
C58 H65 0.930 . S
N59 Zn43 2.119 . S
N59 C55 1.328 . S
N59 C58 1.334 . S
N60 C56 1.331 . S
N60 C57 1.329 . S
H61 C55 0.930 1_554 S
C62 O42 1.257 . S
C62 O63 1.244 . S
O63 C62 1.244 . S
O64 C40 1.257 . S
O64 Zn43 2.019 1_554 S
H65 C58 0.930 . S
H66 C45 0.930 . S
H67 C57 0.930 . S
Zn68 N72 2.020 . S
Zn68 O76 2.019 . S
Zn68 N78 2.119 . S
Zn68 O86 1.975 . S
C69 N70 1.334 . S
C69 N73 1.336 . S
N70 C69 1.334 . S
N70 C71 1.334 . S
C71 N70 1.334 . S
C71 N72 1.336 . S
N72 Zn68 2.020 . S
N72 C71 1.336 . S
N72 N73 1.354 . S
N73 C69 1.336 . S
N73 N72 1.354 . S
N73 Zn77 2.020 . S
C74 O75 1.244 . S
C74 O98 1.257 . S
O75 C74 1.244 . S
O76 Zn68 2.019 . S
O76 C96 1.257 . S
Zn77 N73 2.020 . S
Zn77 O84 1.975 . S
Zn77 N93 2.119 . S
Zn77 O98 2.019 . S
N78 Zn68 2.119 . S
N78 C80 1.334 . S
N78 C81 1.328 . S
C79 C80 1.391 . S
C79 N82 1.329 . S
C79 H100 0.930 . S
C80 N78 1.334 . S
C80 C79 1.391 . S
C80 H87 0.930 . S
C81 N78 1.328 . S
C81 C83 1.392 . S
C81 H88 0.930 . S
N82 C79 1.329 . S
N82 C83 1.331 . S
C83 C81 1.392 . S
C83 N82 1.331 . S
O84 Zn77 1.975 . S
O84 C85 1.252 . S
C85 O84 1.252 . S
C85 O86 1.252 . S
O86 Zn68 1.975 . S
O86 C85 1.252 . S
H87 C80 0.930 . S
H88 C81 0.930 . S
C89 C90 1.392 . S
C89 N93 1.328 . S
C89 H95 0.930 . S
C90 C89 1.392 . S
C90 N94 1.331 . S
C91 C92 1.391 . S
C91 N94 1.329 . S
C91 H101 0.930 . S
C92 C91 1.391 . S
C92 N93 1.334 . S
C92 H99 0.930 . S
N93 Zn77 2.119 . S
N93 C89 1.328 . S
N93 C92 1.334 . S
N94 C90 1.331 . S
N94 C91 1.329 . S
H95 C89 0.930 . S
C96 O76 1.257 . S
C96 O97 1.244 . S
O97 C96 1.244 . S
O98 C74 1.257 . S
O98 Zn77 2.019 . S
H99 C92 0.930 . S
H100 C79 0.930 . S
H101 C91 0.930 . S
Zn102 N106 2.020 . S
Zn102 O110 2.019 . S
Zn102 N112 2.119 . S
Zn102 O120 1.975 . S
C103 N104 1.334 . S
C103 N107 1.336 . S
N104 C103 1.334 . S
N104 C105 1.334 . S
C105 N104 1.334 . S
C105 N106 1.336 . S
N106 Zn102 2.020 . S
N106 C105 1.336 . S
N106 N107 1.354 . S
N107 C103 1.336 . S
N107 N106 1.354 . S
N107 Zn111 2.020 . S
C108 O109 1.244 . S
C108 O132 1.257 . S
O109 C108 1.244 . S
O110 Zn102 2.019 . S
O110 C130 1.257 . S
Zn111 N107 2.020 . S
Zn111 O118 1.975 . S
Zn111 N127 2.119 . S
Zn111 O132 2.019 1_556 S
N112 Zn102 2.119 . S
N112 C114 1.334 . S
N112 C115 1.328 . S
C113 C114 1.391 . S
C113 N116 1.329 . S
C113 H134 0.930 . S
C114 N112 1.334 . S
C114 C113 1.391 . S
C114 H121 0.930 . S
C115 N112 1.328 . S
C115 C117 1.392 . S
C115 H122 0.930 . S
N116 C113 1.329 . S
N116 C117 1.331 . S
C117 C115 1.392 . S
C117 N116 1.331 . S
O118 Zn111 1.975 . S
O118 C119 1.252 . S
C119 O118 1.252 . S
C119 O120 1.252 . S
O120 Zn102 1.975 . S
O120 C119 1.252 . S
H121 C114 0.930 . S
H122 C115 0.930 . S
C123 C124 1.392 1_554 S
C123 N127 1.328 1_554 S
C123 H129 0.930 . S
C124 C123 1.392 1_556 S
C124 N128 1.331 . S
C125 C126 1.391 . S
C125 N128 1.329 . S
C125 H135 0.930 . S
C126 C125 1.391 . S
C126 N127 1.334 . S
C126 H133 0.930 . S
N127 Zn111 2.119 . S
N127 C123 1.328 1_556 S
N127 C126 1.334 . S
N128 C124 1.331 . S
N128 C125 1.329 . S
H129 C123 0.930 . S
C130 O110 1.257 . S
C130 O131 1.244 . S
O131 C130 1.244 . S
O132 C108 1.257 . S
O132 Zn111 2.019 1_554 S
H133 C126 0.930 . S
H134 C113 0.930 . S
H135 C125 0.930 . S
Zn136 N140 2.020 . S
Zn136 O144 2.019 . S
Zn136 N146 2.119 . S
Zn136 O154 1.975 . S
C137 N138 1.334 . S
C137 N141 1.336 . S
N138 C137 1.334 . S
N138 C139 1.334 . S
C139 N138 1.334 . S
C139 N140 1.336 . S
N140 Zn136 2.020 . S
N140 C139 1.336 . S
N140 N141 1.354 . S
N141 C137 1.336 . S
N141 N140 1.354 . S
N141 Zn145 2.020 . S
C142 O143 1.244 . S
C142 O166 1.257 . S
O143 C142 1.244 . S
O144 Zn136 2.019 . S
O144 C164 1.257 . S
Zn145 N141 2.020 . S
Zn145 O152 1.975 . S
Zn145 N161 2.119 . S
Zn145 O166 2.019 . S
N146 Zn136 2.119 . S
N146 C148 1.334 . S
N146 C149 1.328 . S
C147 C148 1.391 . S
C147 N150 1.329 . S
C147 H168 0.930 . S
C148 N146 1.334 . S
C148 C147 1.391 . S
C148 H155 0.930 . S
C149 N146 1.328 . S
C149 C151 1.392 . S
C149 H156 0.930 . S
N150 C147 1.329 . S
N150 C151 1.331 . S
C151 C149 1.392 . S
C151 N150 1.331 . S
O152 Zn145 1.975 . S
O152 C153 1.252 . S
C153 O152 1.252 . S
C153 O154 1.252 . S
O154 Zn136 1.975 . S
O154 C153 1.252 . S
H155 C148 0.930 . S
H156 C149 0.930 . S
C157 C158 1.392 . S
C157 N161 1.328 . S
C157 H163 0.930 . S
C158 C157 1.392 . S
C158 N162 1.331 . S
C159 C160 1.391 . S
C159 N162 1.329 . S
C159 H169 0.930 . S
C160 C159 1.391 . S
C160 N161 1.334 . S
C160 H167 0.930 . S
N161 Zn145 2.119 . S
N161 C157 1.328 . S
N161 C160 1.334 . S
N162 C158 1.331 . S
N162 C159 1.329 . S
H163 C157 0.930 . S
C164 O144 1.257 . S
C164 O165 1.244 . S
O165 C164 1.244 . S
O166 C142 1.257 . S
O166 Zn145 2.019 . S
H167 C160 0.930 . S
H168 C147 0.930 . S
H169 C159 0.930 . S
Zn170 N174 2.020 . S
Zn170 O178 2.019 1_554 S
Zn170 N180 2.119 . S
Zn170 O188 1.975 . S
C171 N172 1.334 . S
C171 N175 1.336 . S
N172 C171 1.334 . S
N172 C173 1.334 . S
C173 N172 1.334 . S
C173 N174 1.336 . S
N174 Zn170 2.020 . S
N174 C173 1.336 . S
N174 N175 1.354 . S
N175 C171 1.336 . S
N175 N174 1.354 . S
N175 Zn179 2.020 . S
C176 O177 1.244 . S
C176 O200 1.257 . S
O177 C176 1.244 . S
O178 Zn170 2.019 1_556 S
O178 C198 1.257 . S
Zn179 N175 2.020 . S
Zn179 O186 1.975 . S
Zn179 N195 2.119 . S
Zn179 O200 2.019 . S
N180 Zn170 2.119 . S
N180 C182 1.334 . S
N180 C183 1.328 . S
C181 C182 1.391 . S
C181 N184 1.329 . S
C181 H202 0.930 . S
C182 N180 1.334 . S
C182 C181 1.391 . S
C182 H189 0.930 . S
C183 N180 1.328 . S
C183 C185 1.392 . S
C183 H190 0.930 1_554 S
N184 C181 1.329 . S
N184 C185 1.331 . S
C185 C183 1.392 . S
C185 N184 1.331 . S
O186 Zn179 1.975 . S
O186 C187 1.252 . S
C187 O186 1.252 . S
C187 O188 1.252 . S
O188 Zn170 1.975 . S
O188 C187 1.252 . S
H189 C182 0.930 . S
H190 C183 0.930 1_556 S
C191 C192 1.392 . S
C191 N195 1.328 . S
C191 H197 0.930 . S
C192 C191 1.392 . S
C192 N196 1.331 . S
C193 C194 1.391 . S
C193 N196 1.329 . S
C193 H203 0.930 . S
C194 C193 1.391 . S
C194 N195 1.334 . S
C194 H201 0.930 . S
N195 Zn179 2.119 . S
N195 C191 1.328 . S
N195 C194 1.334 . S
N196 C192 1.331 . S
N196 C193 1.329 . S
H197 C191 0.930 . S
C198 O178 1.257 . S
C198 O199 1.244 . S
O199 C198 1.244 . S
O200 C176 1.257 . S
O200 Zn179 2.019 . S
H201 C194 0.930 . S
H202 C181 0.930 . S
H203 C193 0.930 . S
C204 C205 1.369 . S
C204 C206 1.419 1_455 S
C204 H208 0.930 . S
C205 C204 1.369 . S
C205 C214 1.429 . S
C206 C204 1.419 1_655 S
C206 C207 1.363 . S
C206 H209 0.929 . S
C207 C206 1.363 . S
C207 C213 1.428 . S
H208 C204 0.930 . S
H209 C206 0.929 . S
S210 N211 1.613 . S
S210 N212 1.610 . S
N211 S210 1.613 . S
N211 C214 1.350 1_655 S
N212 S210 1.610 . S
N212 C213 1.351 . S
C213 C207 1.428 . S
C213 N212 1.351 . S
C213 C214 1.434 1_655 S
C214 C205 1.429 . S
C214 N211 1.350 1_455 S
C214 C213 1.434 1_455 S
C215 C216 1.369 . S
C215 C217 1.419 . S
C215 H219 0.930 . S
C216 C215 1.369 . S
C216 C225 1.429 . S
C217 C215 1.419 . S
C217 C218 1.363 . S
C217 H220 0.929 . S
C218 C217 1.363 . S
C218 C224 1.428 . S
H219 C215 0.930 . S
H220 C217 0.929 . S
S221 N222 1.613 . S
S221 N223 1.610 . S
N222 S221 1.613 . S
N222 C225 1.350 . S
N223 S221 1.610 . S
N223 C224 1.351 . S
C224 C218 1.428 . S
C224 N223 1.351 . S
C224 C225 1.434 . S
C225 C216 1.429 . S
C225 N222 1.350 . S
C225 C224 1.434 . S
C226 C227 1.369 . S
C226 C228 1.419 1_565 S
C226 H230 0.930 . S
C227 C226 1.369 . S
C227 C236 1.429 . S
C228 C226 1.419 1_545 S
C228 C229 1.363 . S
C228 H231 0.929 . S
C229 C228 1.363 . S
C229 C235 1.428 . S
H230 C226 0.930 . S
H231 C228 0.929 . S
S232 N233 1.613 . S
S232 N234 1.610 1_565 S
N233 S232 1.613 . S
N233 C236 1.350 . S
N234 S232 1.610 1_545 S
N234 C235 1.351 . S
C235 C229 1.428 . S
C235 N234 1.351 . S
C235 C236 1.434 1_545 S
C236 C227 1.429 . S
C236 N233 1.350 . S
C236 C235 1.434 1_565 S
C237 C238 1.369 . S
C237 C239 1.419 . S
C237 H241 0.930 . S
C238 C237 1.369 . S
C238 C247 1.429 . S
C239 C237 1.419 . S
C239 C240 1.363 . S
C239 H242 0.929 . S
C240 C239 1.363 . S
C240 C246 1.428 . S
H241 C237 0.930 . S
H242 C239 0.929 . S
S243 N244 1.613 . S
S243 N245 1.610 . S
N244 S243 1.613 . S
N244 C247 1.350 . S
N245 S243 1.610 . S
N245 C246 1.351 . S
C246 C240 1.428 . S
C246 N245 1.351 . S
C246 C247 1.434 . S
C247 C238 1.429 . S
C247 N244 1.350 . S
C247 C246 1.434 . S
C248 C249 1.369 . S
C248 C250 1.419 . S
C248 H252 0.930 . S
C249 C248 1.369 . S
C249 C258 1.429 . S
C250 C248 1.419 . S
C250 C251 1.363 . S
C250 H253 0.929 . S
C251 C250 1.363 . S
C251 C257 1.428 . S
H252 C248 0.930 . S
H253 C250 0.929 . S
S254 N255 1.613 . S
S254 N256 1.610 . S
N255 S254 1.613 . S
N255 C258 1.350 . S
N256 S254 1.610 . S
N256 C257 1.351 . S
C257 C251 1.428 . S
C257 N256 1.351 . S
C257 C258 1.434 . S
C258 C249 1.429 . S
C258 N255 1.350 . S
C258 C257 1.434 . S
C259 C260 1.369 . S
C259 C261 1.419 . S
C259 H263 0.930 . S
C260 C259 1.369 . S
C260 C269 1.429 . S
C261 C259 1.419 . S
C261 C262 1.363 . S
C261 H264 0.929 . S
C262 C261 1.363 . S
C262 C268 1.428 . S
H263 C259 0.930 . S
H264 C261 0.929 . S
S265 N266 1.613 . S
S265 N267 1.610 . S
N266 S265 1.613 . S
N266 C269 1.350 . S
N267 S265 1.610 . S
N267 C268 1.351 . S
C268 C262 1.428 . S
C268 N267 1.351 . S
C268 C269 1.434 . S
C269 C260 1.429 . S
C269 N266 1.350 . S
C269 C268 1.434 . S
C270 C271 1.369 . S
C270 C272 1.419 . S
C270 H274 0.930 . S
C271 C270 1.369 . S
C271 C280 1.429 . S
C272 C270 1.419 . S
C272 C273 1.363 . S
C272 H275 0.929 . S
C273 C272 1.363 . S
C273 C279 1.428 . S
H274 C270 0.930 . S
H275 C272 0.929 . S
S276 N277 1.613 . S
S276 N278 1.610 . S
N277 S276 1.613 . S
N277 C280 1.350 . S
N278 S276 1.610 . S
N278 C279 1.351 . S
C279 C273 1.428 . S
C279 N278 1.351 . S
C279 C280 1.434 . S
C280 C271 1.429 . S
C280 N277 1.350 . S
C280 C279 1.434 . S
C281 C282 1.369 . S
C281 C283 1.419 . S
C281 H285 0.930 . S
C282 C281 1.369 . S
C282 C291 1.429 . S
C283 C281 1.419 . S
C283 C284 1.363 . S
C283 H286 0.929 . S
C284 C283 1.363 . S
C284 C290 1.428 . S
H285 C281 0.930 . S
H286 C283 0.929 . S
S287 N288 1.613 . S
S287 N289 1.610 . S
N288 S287 1.613 . S
N288 C291 1.350 . S
N289 S287 1.610 . S
N289 C290 1.351 . S
C290 C284 1.428 . S
C290 N289 1.351 . S
C290 C291 1.434 . S
C291 C282 1.429 . S
C291 N288 1.350 . S
C291 C290 1.434 . S
C292 C293 1.369 . S
C292 C294 1.419 . S
C292 H296 0.930 . S
C293 C292 1.369 . S
C293 C302 1.429 . S
C294 C292 1.419 . S
C294 C295 1.363 . S
C294 H297 0.929 1_556 S
C295 C294 1.363 . S
C295 C301 1.428 . S
H296 C292 0.930 . S
H297 C294 0.929 1_554 S
S298 N299 1.613 . S
S298 N300 1.610 . S
N299 S298 1.613 . S
N299 C302 1.350 . S
N300 S298 1.610 . S
N300 C301 1.351 . S
C301 C295 1.428 . S
C301 N300 1.351 . S
C301 C302 1.434 . S
C302 C293 1.429 . S
C302 N299 1.350 . S
C302 C301 1.434 . S
C303 C304 1.369 . S
C303 C305 1.419 1_655 S
C303 H307 0.930 . S
C304 C303 1.369 . S
C304 C313 1.429 . S
C305 C303 1.419 1_455 S
C305 C306 1.363 . S
C305 H308 0.929 . S
C306 C305 1.363 . S
C306 C312 1.428 . S
H307 C303 0.930 . S
H308 C305 0.929 . S
S309 N310 1.613 . S
S309 N311 1.610 1_655 S
N310 S309 1.613 . S
N310 C313 1.350 . S
N311 S309 1.610 1_455 S
N311 C312 1.351 . S
C312 C306 1.428 . S
C312 N311 1.351 . S
C312 C313 1.434 1_455 S
C313 C304 1.429 . S
C313 N310 1.350 . S
C313 C312 1.434 1_655 S
C314 C315 1.369 1_556 S
C314 C316 1.419 . S
C314 H318 0.930 . S
C315 C314 1.369 1_554 S
C315 C324 1.429 . S
C316 C314 1.419 . S
C316 C317 1.363 . S
C316 H319 0.929 . S
C317 C316 1.363 . S
C317 C323 1.428 1_556 S
H318 C314 0.930 . S
H319 C316 0.929 . S
S320 N321 1.613 . S
S320 N322 1.610 . S
N321 S320 1.613 . S
N321 C324 1.350 . S
N322 S320 1.610 . S
N322 C323 1.351 . S
C323 C317 1.428 1_554 S
C323 N322 1.351 . S
C323 C324 1.434 . S
C324 C315 1.429 . S
C324 N321 1.350 . S
C324 C323 1.434 . S
C325 C326 1.369 . S
C325 C327 1.419 1_545 S
C325 H329 0.930 . S
C326 C325 1.369 . S
C326 C335 1.429 . S
C327 C325 1.419 1_565 S
C327 C328 1.363 . S
C327 H330 0.929 . S
C328 C327 1.363 . S
C328 C334 1.428 . S
H329 C325 0.930 . S
H330 C327 0.929 . S
S331 N332 1.613 1_565 S
S331 N333 1.610 . S
N332 S331 1.613 1_545 S
N332 C335 1.350 . S
N333 S331 1.610 . S
N333 C334 1.351 . S
C334 C328 1.428 . S
C334 N333 1.351 . S
C334 C335 1.434 1_565 S
C335 C326 1.429 . S
C335 N332 1.350 . S
C335 C334 1.434 1_545 S
C336 C337 1.369 . S
C336 C338 1.419 . S
C336 H340 0.930 . S
C337 C336 1.369 . S
C337 C346 1.430 . S
C338 C336 1.419 . S
C338 C339 1.363 1_556 S
C338 H341 0.929 . S
C339 C338 1.363 1_554 S
C339 C345 1.428 . S
H340 C336 0.930 . S
H341 C338 0.929 . S
S342 N343 1.613 1_554 S
S342 N344 1.610 . S
N343 S342 1.613 1_556 S
N343 C346 1.350 . S
N344 S342 1.610 . S
N344 C345 1.351 . S
C345 C339 1.428 . S
C345 N344 1.351 . S
C345 C346 1.433 1_554 S
C346 C337 1.430 . S
C346 N343 1.350 . S
C346 C345 1.433 1_556 S
C347 C348 1.369 . S
C347 C349 1.419 1_565 S
C347 H351 0.930 . S
C348 C347 1.369 . S
C348 C357 1.429 . S
C349 C347 1.419 1_545 S
C349 C350 1.363 . S
C349 H352 0.929 . S
C350 C349 1.363 . S
C350 C356 1.428 . S
H351 C347 0.930 . S
H352 C349 0.929 . S
S353 N354 1.613 . S
S353 N355 1.610 1_565 S
N354 S353 1.613 . S
N354 C357 1.350 . S
N355 S353 1.610 1_545 S
N355 C356 1.351 . S
C356 C350 1.428 . S
C356 N355 1.351 . S
C356 C357 1.434 1_545 S
C357 C348 1.429 . S
C357 N354 1.350 . S
C357 C356 1.434 1_565 S
C358 C359 1.369 . S
C358 C360 1.419 1_655 S
C358 H362 0.930 . S
C359 C358 1.369 . S
C359 C368 1.429 . S
C360 C358 1.419 1_455 S
C360 C361 1.363 . S
C360 H363 0.929 . S
C361 C360 1.363 . S
C361 C367 1.428 . S
H362 C358 0.930 . S
H363 C360 0.929 . S
S364 N365 1.613 . S
S364 N366 1.610 1_655 S
N365 S364 1.613 . S
N365 C368 1.350 . S
N366 S364 1.610 1_455 S
N366 C367 1.351 . S
C367 C361 1.428 . S
C367 N366 1.351 . S
C367 C368 1.434 1_455 S
C368 C359 1.429 . S
C368 N365 1.350 . S
C368 C367 1.434 1_655 S
C369 C370 1.369 . S
C369 C371 1.419 . S
C369 H373 0.930 . S
C370 C369 1.369 . S
C370 C379 1.429 . S
C371 C369 1.419 . S
C371 C372 1.363 . S
C371 H374 0.929 . S
C372 C371 1.363 . S
C372 C378 1.428 . S
H373 C369 0.930 . S
H374 C371 0.929 . S
S375 N376 1.613 . S
S375 N377 1.610 . S
N376 S375 1.613 . S
N376 C379 1.350 . S
N377 S375 1.610 . S
N377 C378 1.351 . S
C378 C372 1.428 . S
C378 N377 1.351 . S
C378 C379 1.434 . S
C379 C370 1.429 . S
C379 N376 1.350 . S
C379 C378 1.434 . S
C380 C381 1.369 . S
C380 C382 1.419 . S
C380 H384 0.930 . S
C381 C380 1.369 . S
C381 C390 1.429 . S
C382 C380 1.419 . S
C382 C383 1.363 . S
C382 H385 0.929 . S
C383 C382 1.363 . S
C383 C389 1.428 . S
H384 C380 0.930 . S
H385 C382 0.929 . S
S386 N387 1.613 . S
S386 N388 1.610 . S
N387 S386 1.613 . S
N387 C390 1.350 . S
N388 S386 1.610 . S
N388 C389 1.351 . S
C389 C383 1.428 . S
C389 N388 1.351 . S
C389 C390 1.434 . S
C390 C381 1.429 . S
C390 N387 1.350 . S
C390 C389 1.434 . S
C391 C392 1.369 . S
C391 C393 1.419 1_556 S
C391 H395 0.930 . S
C392 C391 1.369 . S
C392 C401 1.429 . S
C393 C391 1.419 1_554 S
C393 C394 1.363 . S
C393 H396 0.929 . S
C394 C393 1.363 . S
C394 C400 1.428 . S
H395 C391 0.930 . S
H396 C393 0.929 . S
S397 N398 1.605 1_554 S
S397 N399 1.618 . S
N398 S397 1.605 1_556 S
N398 C401 1.350 . S
N399 S397 1.618 . S
N399 C400 1.351 . S
C400 C394 1.428 . S
C400 N399 1.351 . S
C400 C401 1.434 1_554 S
C401 C392 1.429 . S
C401 N398 1.350 . S
C401 C400 1.434 1_556 S
C402 C403 1.369 . S
C402 C404 1.419 . S
C402 H406 0.930 . S
C403 C402 1.369 . S
C403 C412 1.429 . S
C404 C402 1.419 . S
C404 C405 1.363 . S
C404 H407 0.929 . S
C405 C404 1.363 . S
C405 C411 1.428 . S
H406 C402 0.930 . S
H407 C404 0.929 . S
S408 N409 1.613 . S
S408 N410 1.610 . S
N409 S408 1.613 . S
N409 C412 1.350 . S
N410 S408 1.610 . S
N410 C411 1.351 . S
C411 C405 1.428 . S
C411 N410 1.351 . S
C411 C412 1.434 . S
C412 C403 1.429 . S
C412 N409 1.350 . S
C412 C411 1.434 . S
C413 C414 1.369 . S
C413 C415 1.419 1_554 S
C413 H417 0.930 . S
C414 C413 1.369 . S
C414 C423 1.429 . S
C415 C413 1.419 1_556 S
C415 C416 1.363 . S
C415 H418 0.929 . S
C416 C415 1.363 . S
C416 C422 1.428 . S
H417 C413 0.930 . S
H418 C415 0.929 . S
S419 N420 1.613 . S
S419 N421 1.610 1_554 S
N420 S419 1.613 . S
N420 C423 1.350 . S
N421 S419 1.610 1_556 S
N421 C422 1.351 . S
C422 C416 1.428 . S
C422 N421 1.351 . S
C422 C423 1.434 1_556 S
C423 C414 1.429 . S
C423 N420 1.350 . S
C423 C422 1.434 1_554 S
C424 C425 1.369 . S
C424 C426 1.419 . S
C424 H428 0.930 . S
C425 C424 1.369 . S
C425 C434 1.429 . S
C426 C424 1.419 . S
C426 C427 1.363 . S
C426 H429 0.929 . S
C427 C426 1.363 . S
C427 C433 1.428 . S
H428 C424 0.930 . S
H429 C426 0.929 . S
S430 N431 1.613 . S
S430 N432 1.610 . S
N431 S430 1.613 . S
N431 C434 1.350 . S
N432 S430 1.610 . S
N432 C433 1.351 . S
C433 C427 1.428 . S
C433 N432 1.351 . S
C433 C434 1.434 . S
C434 C425 1.429 . S
C434 N431 1.350 . S
C434 C433 1.434 . S
C205 C3 2.642 1_556 S
C207 C139 2.644 . S
C216 C171 2.647 . S
C218 C37 2.645 . S
C227 C69 2.642 . S
C229 C103 2.643 1_554 S
C238 C22 1.792 . S
C240 C85 1.845 . S
C249 C17 1.846 . S
C251 C56 1.793 1_554 S
C260 C51 1.846 . S
C262 C83 1.793 . S
C271 C117 1.793 . S
C273 C153 1.845 . S
C282 C158 1.799 . S
C284 C187 1.849 . S
C293 C119 1.847 . S
C295 C185 1.794 1_556 S
C304 C137 1.179 . S
C306 C1 1.168 . S
C315 C173 1.172 . S
C317 C35 1.181 . S
C326 C105 1.168 . S
C328 C71 1.181 . S
C337 C15 1.405 1_556 S
C339 C124 1.402 1_554 S
C348 C49 1.397 . S
C350 C151 1.411 . S
C359 C192 1.402 . S
C361 C90 1.410 . S
C370 C6 1.183 . S
C372 C28 1.188 . S
C381 C62 1.189 . S
C383 C40 1.181 . S
C392 C96 1.184 . S
C394 C74 1.187 . S
C403 C130 1.183 . S
C405 C108 1.188 . S
C414 C142 1.179 . S
C416 C164 1.188 . S
C425 C176 1.188 . S
C427 C198 1.182 . S
