# Generated by pormake.
# Topology ftb, (5)-cn, num edge types: 1
# Building blocks:
#     Node 0, Type 0, BuildingBlock: XOMCOT_clean_sbu_0, # of connection points: 5
#     Node 1, Type 0, BuildingBlock: XOMCOT_clean_sbu_0, # of connection points: 5
#     Node 2, Type 0, BuildingBlock: XOMCOT_clean_sbu_0, # of connection points: 5
#     Node 3, Type 0, BuildingBlock: XOMCOT_clean_sbu_0, # of connection points: 5
#     Node 4, Type 0, BuildingBlock: XOMCOT_clean_sbu_0, # of connection points: 5
#     Node 5, Type 0, BuildingBlock: XOMCOT_clean_sbu_0, # of connection points: 5
#     Node 6, Type 0, BuildingBlock: XOMCOT_clean_sbu_0, # of connection points: 5
#     Node 7, Type 0, BuildingBlock: XOMCOT_clean_sbu_0, # of connection points: 5
#     Edge 8, Type (0, 0), BuildingBlock: OJICUG_clean_linker_0, # of connection points: 2
#     Edge 9, Type (0, 0), BuildingBlock: OJICUG_clean_linker_0, # of connection points: 2
#     Edge 10, Type (0, 0), BuildingBlock: OJICUG_clean_linker_0, # of connection points: 2
#     Edge 11, Type (0, 0), BuildingBlock: OJICUG_clean_linker_0, # of connection points: 2
#     Edge 12, Type (0, 0), BuildingBlock: OJICUG_clean_linker_0, # of connection points: 2
#     Edge 13, Type (0, 0), BuildingBlock: OJICUG_clean_linker_0, # of connection points: 2
#     Edge 14, Type (0, 0), BuildingBlock: OJICUG_clean_linker_0, # of connection points: 2
#     Edge 15, Type (0, 0), BuildingBlock: OJICUG_clean_linker_0, # of connection points: 2
#     Edge 16, Type (0, 0), BuildingBlock: OJICUG_clean_linker_0, # of connection points: 2
#     Edge 17, Type (0, 0), BuildingBlock: OJICUG_clean_linker_0, # of connection points: 2
#     Edge 18, Type (0, 0), BuildingBlock: OJICUG_clean_linker_0, # of connection points: 2
#     Edge 19, Type (0, 0), BuildingBlock: OJICUG_clean_linker_0, # of connection points: 2
#     Edge 20, Type (0, 0), BuildingBlock: OJICUG_clean_linker_0, # of connection points: 2
#     Edge 21, Type (0, 0), BuildingBlock: OJICUG_clean_linker_0, # of connection points: 2
#     Edge 22, Type (0, 0), BuildingBlock: OJICUG_clean_linker_0, # of connection points: 2
#     Edge 23, Type (0, 0), BuildingBlock: OJICUG_clean_linker_0, # of connection points: 2
#     Edge 24, Type (0, 0), BuildingBlock: OJICUG_clean_linker_0, # of connection points: 2
#     Edge 25, Type (0, 0), BuildingBlock: OJICUG_clean_linker_0, # of connection points: 2
#     Edge 26, Type (0, 0), BuildingBlock: OJICUG_clean_linker_0, # of connection points: 2
#     Edge 27, Type (0, 0), BuildingBlock: OJICUG_clean_linker_0, # of connection points: 2
# Relax obj value: 0.101
# Max RMSD: 0.187
# Mean RMSD: 0.187
data_MOF--net-ftb--node1-XOMCOT_clean_sbu_0--edge1-OJICUG_clean_linker_0
_symmetry_space_group_name_H-M    P1
_symmetry_Int_Tables_number       1
_symmetry_cell_setting            triclinic
loop_
_symmetry_equiv_pos_as_xyz
'x, y, z'
_cell_length_a     41.665428
_cell_length_b     15.768651
_cell_length_c     22.268557
_cell_angle_alpha  90.018031
_cell_angle_beta   92.462422
_cell_angle_gamma 90.010872
loop_
_atom_site_label
_atom_site_type_symbol
_atom_site_fract_x
_atom_site_fract_y
_atom_site_fract_z
_atom_type_partial_charge
Co0 Co 0.32309 0.9881 1.01445 0.0
C1 C 0.3219 0.87754 0.90651 0.0
C2 C 0.29987 -0.00176 0.88833 0.0
C3 C 0.29682 0.94943 0.8373 0.0
N4 N 0.31579 0.9535 0.93159 0.0
N5 N 0.31046 0.87311 0.84862 0.0
H6 H 0.33412 0.82657 0.93058 0.0
H7 H 0.2902 0.06113 0.89377 0.0
C8 C 0.3336 0.17669 1.01208 0.0
O9 O 0.35747 0.17517 0.05262 0.0
N10 N 0.32963 0.02148 0.09874 0.0
C11 C 0.34719 0.9795 0.14148 0.0
C12 C 0.34565 0.02175 0.19511 0.0
C13 C 0.31605 0.08632 0.12853 0.0
N14 N 0.32651 0.09002 0.18698 0.0
C15 C 0.38318 0.89937 1.03115 0.0
C16 C 0.42161 0.0232 0.98434 0.0
C17 C 0.43646 0.95601 1.01637 0.0
C18 C 0.4166 0.89169 0.03771 0.0
C19 C 0.38808 0.02912 0.97995 0.0
N20 N 0.36931 0.97093 1.00731 0.0
H21 H 0.36847 0.84954 0.0486 0.0
H22 H 0.37758 0.08147 0.95506 0.0
H23 H 0.35977 0.92076 0.13551 0.0
H24 H 0.29941 0.13092 0.1075 0.0
O25 O 0.31016 0.87701 0.04124 0.0
O26 O 0.27749 0.98643 1.02408 0.0
O27 O 0.32439 0.1086 0.98599 0.0
C28 C 0.2811 0.90795 0.04021 0.0
H29 H 0.28463 0.96842 0.79564 0.0
H30 H 0.35761 0.00274 0.23703 0.0
H31 H 0.43567 0.07183 0.96345 0.0
H32 H 0.42648 0.83738 0.06171 0.0
Co33 Co 0.68841 0.98797 0.07104 0.0
C34 C 0.68863 0.87518 0.17745 0.0
C35 C 0.71265 -0.00702 0.19696 0.0
C36 C 0.71493 0.94279 0.2475 0.0
N37 N 0.69599 0.95081 0.15322 0.0
N38 N 0.70001 0.86849 0.23517 0.0
H39 H 0.67603 0.82538 0.15271 0.0
H40 H 0.72295 0.05535 0.19236 0.0
C41 C 0.67775 0.1762 0.07657 0.0
O42 O 0.65362 0.17515 0.03656 0.0
N43 N 0.68154 0.0238 0.98738 0.0
C44 C 0.66399 0.98257 0.94422 0.0
C45 C 0.66532 0.02616 0.89114 0.0
C46 C 0.69491 0.08964 0.95833 0.0
N47 N 0.68432 0.09457 0.90002 0.0
C48 C 0.62824 0.89981 0.05383 0.0
C49 C 0.59004 0.02187 0.10333 0.0
C50 C 0.57505 0.95563 0.07044 0.0
C51 C 0.59483 0.89214 0.04771 0.0
C52 C 0.62358 0.02784 0.10729 0.0
N53 N 0.64222 0.97066 0.07861 0.0
H54 H 0.64286 0.85055 0.03538 0.0
H55 H 0.63421 0.07938 0.13289 0.0
H56 H 0.6516 0.92338 0.94951 0.0
H57 H 0.71154 0.13394 0.97976 0.0
O58 O 0.70103 0.87765 0.04244 0.0
O59 O 0.73395 0.98629 0.0605 0.0
O60 O 0.6874 0.1076 0.10136 0.0
C61 C 0.73013 0.9083 0.04322 0.0
H62 H 0.72641 0.96015 0.29022 0.0
H63 H 0.65336 0.00788 0.84904 0.0
H64 H 0.57606 0.06974 0.12525 0.0
H65 H 0.58486 0.83855 1.02296 0.0
Co66 Co 0.3229 0.48695 0.5154 0.0
C67 C 0.32249 0.37129 0.41007 0.0
C68 C 0.2992 0.48968 0.38933 0.0
C69 C 0.29677 0.43873 0.33922 0.0
N70 N 0.3155 0.44769 0.43361 0.0
N71 N 0.31121 0.36404 0.35228 0.0
H72 H 0.33478 0.32146 0.43528 0.0
H73 H 0.28926 0.55257 0.39322 0.0
C74 C 0.33281 0.67505 0.50835 0.0
O75 O 0.35648 0.67552 0.54932 0.0
N76 N 0.32942 0.52553 0.5985 0.0
C77 C 0.3483 0.48962 0.64225 0.0
C78 C 0.34536 0.53397 0.69479 0.0
C79 C 0.31405 0.58909 0.62643 0.0
N80 N 0.32404 0.59712 0.68485 0.0
C81 C 0.38307 0.39929 0.53362 0.0
C82 C 0.42133 0.52095 0.48377 0.0
C83 C 0.43627 0.45499 0.51695 0.0
C84 C 0.41649 0.3917 0.53989 0.0
C85 C 0.3878 0.52685 0.47964 0.0
N86 N 0.36912 0.46984 0.50839 0.0
H87 H 0.36844 0.35062 0.55276 0.0
H88 H 0.37723 0.57824 0.45384 0.0
H89 H 0.363 0.43417 0.63769 0.0
H90 H 0.29603 0.62898 0.60435 0.0
O91 O 0.3104 0.37735 0.5455 0.0
O92 O 0.27732 0.48504 0.52561 0.0
O93 O 0.32387 0.60576 0.48362 0.0
C94 C 0.28125 0.40766 0.54413 0.0
H95 H 0.28555 0.45588 0.29625 0.0
H96 H 0.35866 0.52179 0.73672 0.0
H97 H 0.43535 0.56868 0.46178 0.0
H98 H 0.42645 0.33845 0.565 0.0
Co99 Co 0.6882 0.48847 0.57125 0.0
C100 C 0.68846 0.37592 0.67776 0.0
C101 C 0.71216 0.49413 0.69737 0.0
C102 C 0.71443 0.44404 0.74797 0.0
N103 N 0.69571 0.45163 0.65352 0.0
N104 N 0.69972 0.36948 0.73557 0.0
H105 H 0.67603 0.32588 0.65297 0.0
H106 H 0.72231 0.55668 0.69283 0.0
C107 C 0.67789 0.67684 0.57613 0.0
O108 O 0.6538 0.67604 0.53603 0.0
N109 N 0.68136 0.52392 0.48751 0.0
C110 C 0.66358 0.48292 0.44457 0.0
C111 C 0.66498 0.52619 0.39137 0.0
C112 C 0.69491 0.58928 0.45823 0.0
N113 N 0.68423 0.59418 0.39996 0.0
C114 C 0.62806 0.40006 0.55458 0.0
C115 C 0.58977 0.523 0.60281 0.0
C116 C 0.57485 0.45608 0.57057 0.0
C117 C 0.59465 0.3922 0.54848 0.0
C118 C 0.6233 0.52907 0.60683 0.0
N119 N 0.64199 0.47135 0.57879 0.0
H120 H 0.64271 0.35057 0.53649 0.0
H121 H 0.63388 0.58111 0.63197 0.0
H122 H 0.65096 0.42412 0.4501 0.0
H123 H 0.7117 0.63334 0.47948 0.0
O124 O 0.70077 0.37797 0.54291 0.0
O125 O 0.73375 0.48653 0.56079 0.0
O126 O 0.68723 0.60824 0.60133 0.0
C127 C 0.72989 0.40847 0.54369 0.0
H128 H 0.72577 0.46165 0.79077 0.0
H129 H 0.65286 0.50803 0.34939 0.0
H130 H 0.57574 0.57128 0.62418 0.0
H131 H 0.58471 0.33815 0.52421 0.0
Co132 Co 0.82324 0.98746 0.51479 0.0
C133 C 0.82211 0.87471 0.40758 0.0
C134 C 0.80021 -0.00459 0.38873 0.0
C135 C 0.79719 0.94621 0.33794 0.0
N136 N 0.81603 0.951 0.43228 0.0
N137 N 0.81076 0.8699 0.34961 0.0
H138 H 0.83425 0.82386 0.43193 0.0
H139 H 0.79061 0.05846 0.39377 0.0
C140 C 0.83299 0.17593 0.51104 0.0
O141 O 0.85644 0.17595 0.55247 0.0
N142 N 0.82952 0.02342 0.59856 0.0
C143 C 0.8486 0.98715 0.64184 0.0
C144 C 0.84567 0.03052 0.69481 0.0
C145 C 0.814 0.08603 0.62722 0.0
N146 N 0.82415 0.09338 0.68561 0.0
C147 C 0.88326 0.89868 0.53225 0.0
C148 C 0.9218 0.02179 0.48482 0.0
C149 C 0.93659 0.95466 0.51697 0.0
C150 C 0.91667 0.89071 0.53867 0.0
C151 C 0.88829 0.02805 0.48054 0.0
N152 N 0.86946 0.97014 0.50808 0.0
H153 H 0.8685 0.84956 0.55052 0.0
H154 H 0.87786 0.08042 0.4556 0.0
H155 H 0.86357 0.93234 0.63661 0.0
H156 H 0.79588 0.12603 0.60556 0.0
O157 O 0.81034 0.87707 0.543 0.0
O158 O 0.77761 0.98588 0.52415 0.0
O159 O 0.8246 0.10722 0.48487 0.0
C160 C 0.78126 0.90786 0.5414 0.0
H161 H 0.78508 0.96502 0.29618 0.0
H162 H 0.85919 0.01808 0.73646 0.0
H163 H 0.93591 0.07017 0.46374 0.0
H164 H 0.92654 0.8366 0.56295 0.0
Co165 Co 0.18852 0.98688 0.57111 0.0
C166 C 0.18897 0.87117 0.67641 0.0
C167 C 0.2124 0.98943 0.69709 0.0
C168 C 0.21482 0.93851 0.74718 0.0
N169 N 0.19603 0.94751 0.65285 0.0
N170 N 0.20029 0.8639 0.73417 0.0
H171 H 0.1766 0.82141 0.65123 0.0
H172 H 0.22239 0.05228 0.69317 0.0
C173 C 0.17858 0.17489 0.5783 0.0
O174 O 0.15487 0.17533 0.53743 0.0
N175 N 0.18189 0.02557 0.48805 0.0
C176 C 0.16292 0.98982 0.44437 0.0
C177 C 0.16581 0.03418 0.39184 0.0
C178 C 0.19727 0.08909 0.46008 0.0
N179 N 0.1872 0.0972 0.40171 0.0
C180 C 0.12838 0.89889 0.55308 0.0
C181 C 0.09014 0.02007 0.60354 0.0
C182 C 0.07518 0.95405 0.57041 0.0
C183 C 0.09496 0.891 0.54714 0.0
C184 C 0.12367 0.02629 0.60731 0.0
N185 N 0.14232 0.9695 0.5783 0.0
H186 H 0.14301 0.85039 0.53372 0.0
H187 H 0.13426 0.07772 0.63308 0.0
H188 H 0.14816 0.93445 0.44896 0.0
H189 H 0.21536 0.12888 0.4821 0.0
O190 O 0.20104 0.87739 0.54085 0.0
O191 O 0.23408 0.98522 0.56074 0.0
O192 O 0.18751 0.10563 0.60305 0.0
C193 C 0.23018 0.90783 0.54217 0.0
H194 H 0.22608 0.95566 0.79014 0.0
H195 H 0.15245 0.02208 0.34997 0.0
H196 H 0.07615 0.06762 0.62576 0.0
H197 H 0.08498 0.83774 0.52204 0.0
Co198 Co 0.82293 0.48691 1.01505 0.0
C199 C 0.82201 0.37401 0.90788 0.0
C200 C 0.79973 0.49426 0.88914 0.0
C201 C 0.79678 0.44504 0.83836 0.0
N202 N 0.81574 0.45016 0.93261 0.0
N203 N 0.81059 0.36899 0.84995 0.0
H204 H 0.83432 0.3234 0.93217 0.0
H205 H 0.78993 0.55709 0.89424 0.0
C206 C 0.83299 0.67533 1.01063 0.0
O207 O 0.85644 0.67522 0.05204 0.0
N208 N 0.82916 0.52322 0.09877 0.0
C209 C 0.84791 0.48647 0.14234 0.0
C210 C 0.84499 0.53011 0.1952 0.0
C211 C 0.81382 0.58643 0.12714 0.0
N212 N 0.82379 0.59364 0.18564 0.0
C213 C 0.88301 0.39856 1.03324 0.0
C214 C 0.92145 0.52084 0.98455 0.0
C215 C 0.93631 0.4544 1.01736 0.0
C216 C 0.91644 0.39082 0.03972 0.0
C217 C 0.88793 0.52693 0.98029 0.0
N218 N 0.86916 0.46953 1.00845 0.0
H219 H 0.86829 0.34963 0.05184 0.0
H220 H 0.87744 0.57876 0.95485 0.0
H221 H 0.8626 0.43106 0.13741 0.0
H222 H 0.79593 0.62685 0.10524 0.0
O223 O 0.81 0.37664 0.04345 0.0
O224 O 0.7773 0.48546 1.02435 0.0
O225 O 0.82432 0.60654 0.9849 0.0
C226 C 0.78092 0.40751 0.04176 0.0
H227 H 0.78453 0.46363 0.79668 0.0
H228 H 0.85828 0.51732 0.23704 0.0
H229 H 0.93551 0.56881 0.96293 0.0
H230 H 0.92633 0.33719 0.06449 0.0
Co231 Co 0.18828 0.48809 0.07209 0.0
C232 C 0.1895 0.37744 0.17998 0.0
C233 C 0.2117 0.49799 0.19811 0.0
C234 C 0.21474 0.44918 0.24913 0.0
N235 N 0.19569 0.45336 0.15489 0.0
N236 N 0.20099 0.37295 0.23784 0.0
H237 H 0.17719 0.32656 0.15594 0.0
H238 H 0.22143 0.56082 0.19266 0.0
C239 C 0.17775 0.67658 0.07461 0.0
O240 O 0.15382 0.67499 1.03417 0.0
N241 N 0.18164 0.52161 0.98785 0.0
C242 C 0.16398 0.4798 0.94513 0.0
C243 C 0.16551 0.52209 0.89154 0.0
C244 C 0.19525 0.58641 0.95805 0.0
N245 N 0.18473 0.59023 0.89964 0.0
C246 C 0.12821 0.39911 0.05558 0.0
C247 C 0.08983 0.52247 0.10309 0.0
C248 C 0.07493 0.45525 0.07112 0.0
C249 C 0.09479 0.39117 0.0494 0.0
C250 C 0.12335 0.52868 0.10709 0.0
N251 N 0.14209 0.4707 0.07941 0.0
H252 H 0.14291 0.34944 0.03788 0.0
H253 H 0.13388 0.58104 0.13195 0.0
H254 H 0.15134 0.42114 0.95109 0.0
H255 H 0.21197 0.63087 0.97905 0.0
O256 O 0.20122 0.37709 0.04512 0.0
O257 O 0.23387 0.48661 0.06229 0.0
O258 O 0.18696 0.60854 0.10071 0.0
C259 C 0.23026 0.40812 0.04611 0.0
H260 H 0.22698 0.46812 0.29076 0.0
H261 H 0.15347 0.50317 0.84965 0.0
H262 H 0.07579 0.57092 0.12426 0.0
H263 H 0.08488 0.33685 1.0254 0.0
C264 C 0.33946 0.23487 0.32027 0.0
C265 C 0.314 0.2925 0.31225 0.0
H266 H 0.36378 0.12722 0.28679 0.0
C267 C 0.29188 0.28055 0.26331 0.0
H268 H 0.35718 0.2427 0.35681 0.0
C269 C 0.29551 0.21355 0.22283 0.0
C270 C 0.32138 0.1567 0.23027 0.0
H271 H 0.27167 0.32293 0.25618 0.0
H272 H 0.27803 0.20654 0.18581 0.0
C273 C 0.34315 0.16817 0.27984 0.0
C274 C 0.67116 0.74073 0.26781 0.0
C275 C 0.69692 0.7975 0.27554 0.0
H276 H 0.64654 0.6336 0.30126 0.0
C277 C 0.71915 0.78488 0.32423 0.0
H278 H 0.65332 0.74917 0.23155 0.0
C279 C 0.71541 0.71773 0.36455 0.0
C280 C 0.68932 0.66148 0.35718 0.0
H281 H 0.73955 0.82667 0.33116 0.0
H282 H 0.733 0.71 0.4013 0.0
C283 C 0.66736 0.67395 0.30806 0.0
C284 C 0.32097 0.65183 0.78876 0.0
C285 C 0.31709 0.6645 0.72632 0.0
H286 H 0.32148 0.70701 0.87643 0.0
C287 C 0.30902 0.74592 0.70517 0.0
H288 H 0.32651 0.58955 0.80675 0.0
C289 C 0.30648 0.8138 0.74512 0.0
C290 C 0.31169 0.80201 0.80755 0.0
H291 H 0.30598 0.75807 0.65754 0.0
H292 H 0.30141 0.87591 0.72651 0.0
C293 C 0.31825 0.71957 0.82883 0.0
C294 C 0.71885 0.28619 0.82478 0.0
C295 C 0.6967 0.29846 0.77594 0.0
H296 H 0.73275 0.21142 0.90188 0.0
C297 C 0.67109 0.24124 0.76799 0.0
H298 H 0.73913 0.32834 0.83188 0.0
C299 C 0.66739 0.17431 0.80815 0.0
C300 C 0.68929 0.16215 0.8574 0.0
H301 H 0.65331 0.2494 0.7316 0.0
H302 H 0.6467 0.13357 0.80117 0.0
C303 C 0.71521 0.21889 0.86502 0.0
C304 C 0.80878 0.24171 0.70652 0.0
C305 C 0.81736 0.16052 0.72742 0.0
H306 H 0.80077 0.37133 0.72796 0.0
C307 C 0.82189 0.14801 0.78979 0.0
H308 H 0.80528 0.25389 0.65897 0.0
C309 C 0.81918 0.21567 0.83 0.0
C310 C 0.81199 0.29787 0.8089 0.0
H311 H 0.82788 0.08591 0.80764 0.0
H312 H 0.8229 0.20325 0.87753 0.0
C313 C 0.80627 0.30946 0.74655 0.0
C314 C 0.21583 0.7136 0.86375 0.0
C315 C 0.18991 0.65685 0.85634 0.0
H316 H 0.23977 0.82278 0.83035 0.0
C317 C 0.16815 0.66835 0.80674 0.0
H318 H 0.23329 0.70659 0.90078 0.0
C319 C 0.17192 0.73493 0.76626 0.0
C320 C 0.19743 0.79245 0.77425 0.0
H321 H 0.1475 0.62748 0.79979 0.0
H322 H 0.15421 0.74277 0.72971 0.0
C323 C 0.21953 0.7805 0.82323 0.0
C324 C 0.81876 0.71631 0.32984 0.0
C325 C 0.81201 0.79869 0.30862 0.0
H326 H 0.82699 0.58626 0.30768 0.0
C327 C 0.80658 0.81035 0.24622 0.0
H328 H 0.82223 0.70387 0.37742 0.0
C329 C 0.80895 0.74245 0.20627 0.0
C330 C 0.81711 0.66105 0.2273 0.0
H331 H 0.80141 0.87236 0.22755 0.0
H332 H 0.80569 0.75464 0.15868 0.0
C333 C 0.82134 0.6485 0.28973 0.0
C334 C 0.19018 0.15184 0.29777 0.0
C335 C 0.19419 0.1645 0.3602 0.0
H336 H 0.18963 0.20693 0.21009 0.0
C337 C 0.20243 0.24586 0.38131 0.0
H338 H 0.18452 0.0896 0.27979 0.0
C339 C 0.20502 0.31369 0.34134 0.0
C340 C 0.19969 0.30191 0.27892 0.0
H341 H 0.20557 0.25802 0.42893 0.0
H342 H 0.21022 0.37574 0.35994 0.0
C343 C 0.19296 0.21951 0.25768 0.0
C344 C 0.52229 0.87818 0.05031 0.0
C345 C 0.5394 0.95478 0.05794 0.0
H346 H 0.47725 0.8179 1.02915 0.0
C347 C 0.52226 0.03135 0.05106 0.0
H348 H 0.53429 0.81767 0.05586 0.0
C349 C 0.48917 0.03145 0.03759 0.0
C350 C 0.47208 0.95499 1.02931 0.0
H351 H 0.53439 0.0919 0.05524 0.0
H352 H 0.47701 0.09203 1.03442 0.0
C353 C 0.48922 0.8783 0.03574 0.0
C354 C 0.48898 0.53101 0.53657 0.0
C355 C 0.4719 0.45433 0.52959 0.0
H356 H 0.5342 0.59191 0.55322 0.0
C357 C 0.48905 0.37782 0.53715 0.0
H358 H 0.4768 0.59148 0.53247 0.0
C359 C 0.52212 0.37811 0.5516 0.0
C360 C 0.53921 0.4549 0.55803 0.0
H361 H 0.47707 0.31726 0.53157 0.0
H362 H 0.53415 0.31778 0.55805 0.0
C363 C 0.52207 0.53128 0.54999 0.0
C364 C 0.02241 0.8766 0.55043 0.0
C365 C 0.03953 0.95319 0.55806 0.0
H366 H 0.97731 0.81642 0.52951 0.0
C367 C 0.0224 0.02979 0.55138 0.0
H368 H 0.03443 0.81609 0.55581 0.0
C369 C 0.9893 0.02993 0.53808 0.0
C370 C 0.9722 0.95351 0.52981 0.0
H371 H 0.03454 0.09032 0.55557 0.0
H372 H 0.97715 0.09053 0.53504 0.0
C373 C 0.98932 0.87677 0.53608 0.0
C374 C 0.98909 0.37705 0.03761 0.0
C375 C 0.97194 0.45359 1.03016 0.0
H376 H 0.03419 0.31691 0.05841 0.0
C377 C 0.98905 0.53022 0.03726 0.0
H378 H 0.9771 0.31651 1.03195 0.0
C379 C 0.02214 0.53043 0.05058 0.0
C380 C 0.03929 0.45404 0.05852 0.0
H381 H 0.97689 0.59074 1.03329 0.0
H382 H 0.03426 0.59107 0.05382 0.0
C383 C 0.02217 0.37727 0.05203 0.0
C384 C 0.28839 0.37153 0.05971 0.0
C385 C 0.25812 0.35639 1.03136 0.0
H386 H 0.33655 0.32632 0.0757 0.0
C387 C 0.25446 0.28988 0.99021 0.0
H388 H 0.29173 0.42307 0.09155 0.0
C389 C 0.28023 0.2366 0.97957 0.0
C390 C 0.30998 0.24695 1.01142 0.0
H391 H 0.23147 0.278 0.9671 0.0
H392 H 0.27604 0.18408 0.94899 0.0
C393 C 0.31409 0.31666 0.05028 0.0
C394 C 0.77864 0.7309 0.98048 0.0
C395 C 0.80922 0.7452 1.00829 0.0
H396 H 0.72957 0.77024 0.97101 0.0
C397 C 0.81436 0.8197 0.04188 0.0
H398 H 0.77362 0.67459 0.95396 0.0
C399 C 0.78882 0.87526 0.05105 0.0
C400 C 0.75779 0.85637 1.02739 0.0
H401 H 0.83754 0.8326 0.06389 0.0
H402 H 0.79299 0.93036 0.07938 0.0
C403 C 0.75314 0.78525 0.99061 0.0
C404 C 0.19728 0.81631 0.03607 0.0
C405 C 0.20138 0.74682 0.07511 0.0
H406 H 0.21966 0.92252 0.99459 0.0
C407 C 0.23113 0.73663 0.10698 0.0
H408 H 0.17484 0.82583 1.01062 0.0
C409 C 0.25691 0.78986 0.09624 0.0
C410 C 0.25325 0.85617 0.05495 0.0
H411 H 0.2353 0.68429 0.1377 0.0
H412 H 0.27989 0.77813 0.11941 0.0
C413 C 0.22299 0.87114 1.02654 0.0
C414 C 0.73081 0.23739 0.10982 0.0
C415 C 0.70116 0.24698 0.07751 0.0
H416 H 0.77954 0.27915 0.1223 0.0
C417 C 0.6971 0.31607 0.03811 0.0
H418 H 0.73489 0.18545 0.14093 0.0
C419 C 0.72281 0.37077 1.02838 0.0
C420 C 0.75303 0.35616 0.05701 0.0
H421 H 0.67472 0.32516 1.01234 0.0
H422 H 0.71952 0.42165 0.99601 0.0
C423 C 0.75661 0.29053 0.0989 0.0
C424 C 0.28888 0.875 0.54906 0.0
C425 C 0.2578 0.85624 0.52562 0.0
H426 H 0.33759 0.83227 0.56148 0.0
C427 C 0.2531 0.78547 0.48848 0.0
H428 H 0.29312 0.92985 0.57762 0.0
C429 C 0.27858 0.73117 0.47797 0.0
C430 C 0.30917 0.74519 0.50579 0.0
H431 H 0.22949 0.7706 0.46898 0.0
H432 H 0.27354 0.67504 0.45124 0.0
C433 C 0.31439 0.81954 0.53951 0.0
C434 C 0.75283 0.28463 0.49185 0.0
C435 C 0.75753 0.35632 0.52805 0.0
H436 H 0.77331 0.1736 0.45569 0.0
C437 C 0.78861 0.37564 0.55131 0.0
H438 H 0.72922 0.2692 0.47262 0.0
C439 C 0.81417 0.32015 0.54219 0.0
C440 C 0.80902 0.24528 0.50902 0.0
H441 H 0.79281 0.43114 0.57923 0.0
H442 H 0.83741 0.33352 0.56379 0.0
C443 C 0.77835 0.23031 0.48176 0.0
C444 C 0.2329 0.23092 0.60836 0.0
C445 C 0.20227 0.24496 0.58069 0.0
H446 H 0.28199 0.27034 0.61719 0.0
C447 C 0.19704 0.31928 0.54697 0.0
H448 H 0.23794 0.17481 0.63508 0.0
C449 C 0.22254 0.37472 0.53733 0.0
C450 C 0.25364 0.35597 0.56067 0.0
H451 H 0.17382 0.33202 0.52511 0.0
H452 H 0.21828 0.42957 0.50881 0.0
C453 C 0.25837 0.2852 0.59776 0.0
C454 C 0.69734 0.81692 0.53821 0.0
C455 C 0.7015 0.74711 0.57694 0.0
H456 H 0.71967 0.92317 0.49674 0.0
C457 C 0.73132 0.73661 0.60855 0.0
H458 H 0.67484 0.8267 0.51299 0.0
C459 C 0.7571 0.78981 0.5977 0.0
C460 C 0.75339 0.85633 0.55656 0.0
H461 H 0.73551 0.68402 0.63906 0.0
H462 H 0.78013 0.7778 0.62058 0.0
C463 C 0.72306 0.87164 0.52855 0.0
loop_
_geom_bond_atom_site_label_1
_geom_bond_atom_site_label_2
_geom_bond_distance
_geom_bond_site_symmetry_2
_ccdc_geom_bond_type
Co0 N4 2.148 1_554 S
Co0 N10 2.128 1_565 S
Co0 N20 2.194 . S
Co0 O25 2.351 . S
Co0 O26 2.155 . S
Co0 O27 2.096 1_564 S
C1 N4 1.301 . S
C1 N5 1.328 . S
C1 H6 0.930 . S
C2 C3 1.333 1_545 S
C2 N4 1.317 1_545 S
C2 H7 0.930 . S
C3 C2 1.333 1_565 S
C3 N5 1.350 . S
C3 H29 0.931 . S
N4 Co0 2.148 1_556 S
N4 C1 1.301 . S
N4 C2 1.317 1_565 S
N5 C1 1.328 . S
N5 C3 1.350 . S
H6 C1 0.930 . S
H7 C2 0.930 . S
C8 O9 1.224 . S
C8 O27 1.247 . S
O9 C8 1.224 . S
N10 Co0 2.128 1_545 S
N10 C11 1.355 . S
N10 C13 1.311 . S
C11 N10 1.355 . S
C11 C12 1.363 . S
C11 H23 0.929 1_545 S
C12 C11 1.363 . S
C12 N14 1.375 . S
C12 H30 0.931 . S
C13 N10 1.311 . S
C13 N14 1.347 . S
C13 H24 0.929 . S
N14 C12 1.375 . S
N14 C13 1.347 . S
C15 C18 1.365 . S
C15 N20 1.329 . S
C15 H21 0.929 . S
C16 C17 1.362 1_556 S
C16 C19 1.378 . S
C16 H31 0.929 . S
C17 C16 1.362 1_554 S
C17 C18 1.366 1_545 S
C18 C15 1.365 . S
C18 C17 1.366 1_565 S
C18 H32 0.930 . S
C19 C16 1.378 . S
C19 N20 1.314 1_546 S
C19 H22 0.930 . S
N20 Co0 2.194 . S
N20 C15 1.329 . S
N20 C19 1.314 1_564 S
H21 C15 0.929 . S
H22 C19 0.930 . S
H23 C11 0.929 1_565 S
H24 C13 0.929 . S
O25 Co0 2.351 . S
O25 C28 1.244 . S
O26 Co0 2.155 . S
O26 C28 1.240 . S
O27 Co0 2.096 1_546 S
O27 C8 1.247 . S
C28 O25 1.244 . S
C28 O26 1.240 . S
H29 C3 0.931 . S
H30 C12 0.931 . S
H31 C16 0.929 . S
H32 C18 0.930 . S
Co33 N37 2.148 . S
Co33 N43 2.128 1_564 S
Co33 N53 2.194 . S
Co33 O58 2.351 1_554 S
Co33 O59 2.155 1_554 S
Co33 O60 2.096 1_565 S
C34 N37 1.301 . S
C34 N38 1.328 . S
C34 H39 0.930 . S
C35 C36 1.333 1_545 S
C35 N37 1.317 1_545 S
C35 H40 0.930 . S
C36 C35 1.333 1_565 S
C36 N38 1.350 . S
C36 H62 0.931 . S
N37 Co33 2.148 . S
N37 C34 1.301 . S
N37 C35 1.317 1_565 S
N38 C34 1.328 . S
N38 C36 1.350 . S
H39 C34 0.930 . S
H40 C35 0.930 . S
C41 O42 1.224 . S
C41 O60 1.247 . S
O42 C41 1.224 . S
N43 Co33 2.128 1_546 S
N43 C44 1.355 . S
N43 C46 1.311 . S
C44 N43 1.355 . S
C44 C45 1.363 . S
C44 H56 0.929 1_545 S
C45 C44 1.363 . S
C45 N47 1.375 . S
C45 H63 0.931 . S
C46 N43 1.311 . S
C46 N47 1.347 . S
C46 H57 0.929 . S
N47 C45 1.375 . S
N47 C46 1.347 . S
C48 C51 1.365 . S
C48 N53 1.328 . S
C48 H54 0.929 . S
C49 C50 1.362 . S
C49 C52 1.378 . S
C49 H64 0.929 . S
C50 C49 1.362 . S
C50 C51 1.366 1_545 S
C51 C48 1.365 . S
C51 C50 1.366 1_565 S
C51 H65 0.930 . S
C52 C49 1.378 . S
C52 N53 1.315 1_545 S
C52 H55 0.930 . S
N53 Co33 2.194 . S
N53 C48 1.328 . S
N53 C52 1.315 1_565 S
H54 C48 0.929 . S
H55 C52 0.930 . S
H56 C44 0.929 1_565 S
H57 C46 0.929 . S
O58 Co33 2.351 1_556 S
O58 C61 1.244 . S
O59 Co33 2.155 1_556 S
O59 C61 1.240 . S
O60 Co33 2.096 1_545 S
O60 C41 1.247 . S
C61 O58 1.244 . S
C61 O59 1.240 . S
H62 C36 0.931 . S
H63 C45 0.931 . S
H64 C49 0.929 . S
H65 C51 0.930 . S
Co66 N70 2.148 . S
Co66 N76 2.128 . S
Co66 N86 2.194 . S
Co66 O91 2.351 . S
Co66 O92 2.155 . S
Co66 O93 2.096 . S
C67 N70 1.301 . S
C67 N71 1.328 . S
C67 H72 0.930 . S
C68 C69 1.333 . S
C68 N70 1.317 . S
C68 H73 0.930 . S
C69 C68 1.333 . S
C69 N71 1.350 . S
C69 H95 0.931 . S
N70 Co66 2.148 . S
N70 C67 1.301 . S
N70 C68 1.317 . S
N71 C67 1.328 . S
N71 C69 1.350 . S
H72 C67 0.930 . S
H73 C68 0.930 . S
C74 O75 1.224 . S
C74 O93 1.247 . S
O75 C74 1.224 . S
N76 Co66 2.128 . S
N76 C77 1.355 . S
N76 C79 1.311 . S
C77 N76 1.355 . S
C77 C78 1.363 . S
C77 H89 0.929 . S
C78 C77 1.363 . S
C78 N80 1.375 . S
C78 H96 0.931 . S
C79 N76 1.311 . S
C79 N80 1.347 . S
C79 H90 0.929 . S
N80 C78 1.375 . S
N80 C79 1.347 . S
C81 C84 1.365 . S
C81 N86 1.328 . S
C81 H87 0.929 . S
C82 C83 1.362 . S
C82 C85 1.378 . S
C82 H97 0.929 . S
C83 C82 1.362 . S
C83 C84 1.366 . S
C84 C81 1.365 . S
C84 C83 1.366 . S
C84 H98 0.930 . S
C85 C82 1.378 . S
C85 N86 1.315 . S
C85 H88 0.930 . S
N86 Co66 2.194 . S
N86 C81 1.328 . S
N86 C85 1.315 . S
H87 C81 0.929 . S
H88 C85 0.930 . S
H89 C77 0.929 . S
H90 C79 0.929 . S
O91 Co66 2.351 . S
O91 C94 1.244 . S
O92 Co66 2.155 . S
O92 C94 1.240 . S
O93 Co66 2.096 . S
O93 C74 1.247 . S
C94 O91 1.244 . S
C94 O92 1.240 . S
H95 C69 0.931 . S
H96 C78 0.931 . S
H97 C82 0.929 . S
H98 C84 0.930 . S
Co99 N103 2.148 . S
Co99 N109 2.128 . S
Co99 N119 2.194 . S
Co99 O124 2.351 . S
Co99 O125 2.155 . S
Co99 O126 2.096 . S
C100 N103 1.301 . S
C100 N104 1.328 . S
C100 H105 0.930 . S
C101 C102 1.333 . S
C101 N103 1.317 . S
C101 H106 0.930 . S
C102 C101 1.333 . S
C102 N104 1.350 . S
C102 H128 0.931 . S
N103 Co99 2.148 . S
N103 C100 1.301 . S
N103 C101 1.317 . S
N104 C100 1.328 . S
N104 C102 1.350 . S
H105 C100 0.930 . S
H106 C101 0.930 . S
C107 O108 1.224 . S
C107 O126 1.247 . S
O108 C107 1.224 . S
N109 Co99 2.128 . S
N109 C110 1.355 . S
N109 C112 1.311 . S
C110 N109 1.355 . S
C110 C111 1.363 . S
C110 H122 0.929 . S
C111 C110 1.363 . S
C111 N113 1.375 . S
C111 H129 0.931 . S
C112 N109 1.311 . S
C112 N113 1.347 . S
C112 H123 0.929 . S
N113 C111 1.375 . S
N113 C112 1.347 . S
C114 C117 1.365 . S
C114 N119 1.328 . S
C114 H120 0.929 . S
C115 C116 1.362 . S
C115 C118 1.378 . S
C115 H130 0.929 . S
C116 C115 1.362 . S
C116 C117 1.366 . S
C117 C114 1.365 . S
C117 C116 1.366 . S
C117 H131 0.930 . S
C118 C115 1.378 . S
C118 N119 1.315 . S
C118 H121 0.930 . S
N119 Co99 2.194 . S
N119 C114 1.328 . S
N119 C118 1.315 . S
H120 C114 0.929 . S
H121 C118 0.930 . S
H122 C110 0.929 . S
H123 C112 0.929 . S
O124 Co99 2.351 . S
O124 C127 1.244 . S
O125 Co99 2.155 . S
O125 C127 1.240 . S
O126 Co99 2.096 . S
O126 C107 1.247 . S
C127 O124 1.244 . S
C127 O125 1.240 . S
H128 C102 0.931 . S
H129 C111 0.931 . S
H130 C115 0.929 . S
H131 C117 0.930 . S
Co132 N136 2.148 . S
Co132 N142 2.128 1_565 S
Co132 N152 2.194 . S
Co132 O157 2.351 . S
Co132 O158 2.155 . S
Co132 O159 2.096 1_565 S
C133 N136 1.301 . S
C133 N137 1.328 . S
C133 H138 0.930 . S
C134 C135 1.333 1_545 S
C134 N136 1.317 1_545 S
C134 H139 0.930 . S
C135 C134 1.333 1_565 S
C135 N137 1.350 . S
C135 H161 0.931 . S
N136 Co132 2.148 . S
N136 C133 1.301 . S
N136 C134 1.317 1_565 S
N137 C133 1.328 . S
N137 C135 1.350 . S
H138 C133 0.930 . S
H139 C134 0.930 . S
C140 O141 1.224 . S
C140 O159 1.247 . S
O141 C140 1.224 . S
N142 Co132 2.128 1_545 S
N142 C143 1.355 . S
N142 C145 1.311 . S
C143 N142 1.355 . S
C143 C144 1.363 . S
C143 H155 0.929 1_545 S
C144 C143 1.363 . S
C144 N146 1.375 . S
C144 H162 0.931 . S
C145 N142 1.311 . S
C145 N146 1.347 . S
C145 H156 0.929 . S
N146 C144 1.375 . S
N146 C145 1.347 . S
C147 C150 1.365 . S
C147 N152 1.328 . S
C147 H153 0.929 . S
C148 C149 1.362 . S
C148 C151 1.378 . S
C148 H163 0.929 . S
C149 C148 1.362 . S
C149 C150 1.366 1_545 S
C150 C147 1.365 . S
C150 C149 1.366 1_565 S
C150 H164 0.930 . S
C151 C148 1.378 . S
C151 N152 1.315 1_545 S
C151 H154 0.930 . S
N152 Co132 2.194 . S
N152 C147 1.328 . S
N152 C151 1.315 1_565 S
H153 C147 0.929 . S
H154 C151 0.930 . S
H155 C143 0.929 1_565 S
H156 C145 0.929 . S
O157 Co132 2.351 . S
O157 C160 1.244 . S
O158 Co132 2.155 . S
O158 C160 1.240 . S
O159 Co132 2.096 1_545 S
O159 C140 1.247 . S
C160 O157 1.244 . S
C160 O158 1.240 . S
H161 C135 0.931 . S
H162 C144 0.931 . S
H163 C148 0.929 . S
H164 C150 0.930 . S
Co165 N169 2.148 . S
Co165 N175 2.128 1_565 S
Co165 N185 2.194 . S
Co165 O190 2.351 . S
Co165 O191 2.155 . S
Co165 O192 2.096 1_565 S
C166 N169 1.301 . S
C166 N170 1.328 . S
C166 H171 0.930 . S
C167 C168 1.333 1_545 S
C167 N169 1.317 1_545 S
C167 H172 0.930 . S
C168 C167 1.333 1_565 S
C168 N170 1.350 . S
C168 H194 0.931 . S
N169 Co165 2.148 . S
N169 C166 1.301 . S
N169 C167 1.317 1_565 S
N170 C166 1.328 . S
N170 C168 1.350 . S
H171 C166 0.930 . S
H172 C167 0.930 . S
C173 O174 1.224 . S
C173 O192 1.247 . S
O174 C173 1.224 . S
N175 Co165 2.128 1_545 S
N175 C176 1.355 . S
N175 C178 1.311 . S
C176 N175 1.355 . S
C176 C177 1.363 . S
C176 H188 0.929 1_545 S
C177 C176 1.363 . S
C177 N179 1.375 . S
C177 H195 0.931 . S
C178 N175 1.311 . S
C178 N179 1.347 . S
C178 H189 0.929 . S
N179 C177 1.375 . S
N179 C178 1.347 . S
C180 C183 1.365 . S
C180 N185 1.328 . S
C180 H186 0.929 . S
C181 C182 1.362 . S
C181 C184 1.378 . S
C181 H196 0.929 . S
C182 C181 1.362 . S
C182 C183 1.366 1_545 S
C183 C180 1.365 . S
C183 C182 1.366 1_565 S
C183 H197 0.930 . S
C184 C181 1.378 . S
C184 N185 1.315 1_545 S
C184 H187 0.930 . S
N185 Co165 2.194 . S
N185 C180 1.328 . S
N185 C184 1.315 1_565 S
H186 C180 0.929 . S
H187 C184 0.930 . S
H188 C176 0.929 1_565 S
H189 C178 0.929 . S
O190 Co165 2.351 . S
O190 C193 1.244 . S
O191 Co165 2.155 . S
O191 C193 1.240 . S
O192 Co165 2.096 1_545 S
O192 C173 1.247 . S
C193 O190 1.244 . S
C193 O191 1.240 . S
H194 C168 0.931 . S
H195 C177 0.931 . S
H196 C181 0.929 . S
H197 C183 0.930 . S
Co198 N202 2.148 1_554 S
Co198 N208 2.128 . S
Co198 N218 2.194 . S
Co198 O223 2.351 . S
Co198 O224 2.155 . S
Co198 O225 2.096 1_554 S
C199 N202 1.301 . S
C199 N203 1.328 . S
C199 H204 0.930 . S
C200 C201 1.333 . S
C200 N202 1.317 . S
C200 H205 0.930 . S
C201 C200 1.333 . S
C201 N203 1.350 . S
C201 H227 0.931 . S
N202 Co198 2.148 1_556 S
N202 C199 1.301 . S
N202 C200 1.317 . S
N203 C199 1.328 . S
N203 C201 1.350 . S
H204 C199 0.930 . S
H205 C200 0.930 . S
C206 O207 1.224 . S
C206 O225 1.247 . S
O207 C206 1.224 . S
N208 Co198 2.128 . S
N208 C209 1.355 . S
N208 C211 1.311 . S
C209 N208 1.355 . S
C209 C210 1.363 . S
C209 H221 0.929 . S
C210 C209 1.363 . S
C210 N212 1.375 . S
C210 H228 0.931 . S
C211 N208 1.311 . S
C211 N212 1.347 . S
C211 H222 0.929 . S
N212 C210 1.375 . S
N212 C211 1.347 . S
C213 C216 1.365 . S
C213 N218 1.329 . S
C213 H219 0.929 . S
C214 C215 1.362 1_556 S
C214 C217 1.378 . S
C214 H229 0.929 . S
C215 C214 1.362 1_554 S
C215 C216 1.366 . S
C216 C213 1.365 . S
C216 C215 1.366 . S
C216 H230 0.930 . S
C217 C214 1.378 . S
C217 N218 1.314 1_556 S
C217 H220 0.930 . S
N218 Co198 2.194 . S
N218 C213 1.329 . S
N218 C217 1.314 1_554 S
H219 C213 0.929 . S
H220 C217 0.930 . S
H221 C209 0.929 . S
H222 C211 0.929 . S
O223 Co198 2.351 . S
O223 C226 1.244 . S
O224 Co198 2.155 . S
O224 C226 1.240 . S
O225 Co198 2.096 1_556 S
O225 C206 1.247 . S
C226 O223 1.244 . S
C226 O224 1.240 . S
H227 C201 0.931 . S
H228 C210 0.931 . S
H229 C214 0.929 . S
H230 C216 0.930 . S
Co231 N235 2.148 . S
Co231 N241 2.128 1_554 S
Co231 N251 2.194 . S
Co231 O256 2.351 1_554 S
Co231 O257 2.155 1_554 S
Co231 O258 2.096 . S
C232 N235 1.301 . S
C232 N236 1.328 . S
C232 H237 0.930 . S
C233 C234 1.333 . S
C233 N235 1.317 . S
C233 H238 0.930 . S
C234 C233 1.333 . S
C234 N236 1.350 . S
C234 H260 0.931 . S
N235 Co231 2.148 . S
N235 C232 1.301 . S
N235 C233 1.317 . S
N236 C232 1.328 . S
N236 C234 1.350 . S
H237 C232 0.930 . S
H238 C233 0.930 . S
C239 O240 1.224 . S
C239 O258 1.247 . S
O240 C239 1.224 . S
N241 Co231 2.128 1_556 S
N241 C242 1.355 . S
N241 C244 1.311 . S
C242 N241 1.355 . S
C242 C243 1.363 . S
C242 H254 0.929 . S
C243 C242 1.363 . S
C243 N245 1.375 . S
C243 H261 0.931 . S
C244 N241 1.311 . S
C244 N245 1.347 . S
C244 H255 0.929 . S
N245 C243 1.375 . S
N245 C244 1.347 . S
C246 C249 1.365 . S
C246 N251 1.328 . S
C246 H252 0.929 . S
C247 C248 1.362 . S
C247 C250 1.378 . S
C247 H262 0.929 . S
C248 C247 1.362 . S
C248 C249 1.366 . S
C249 C246 1.365 . S
C249 C248 1.366 . S
C249 H263 0.930 . S
C250 C247 1.378 . S
C250 N251 1.315 . S
C250 H253 0.930 . S
N251 Co231 2.194 . S
N251 C246 1.328 . S
N251 C250 1.315 . S
H252 C246 0.929 . S
H253 C250 0.930 . S
H254 C242 0.929 . S
H255 C244 0.929 . S
O256 Co231 2.351 1_556 S
O256 C259 1.244 . S
O257 Co231 2.155 1_556 S
O257 C259 1.240 . S
O258 Co231 2.096 . S
O258 C239 1.247 . S
C259 O256 1.244 . S
C259 O257 1.240 . S
H260 C234 0.931 . S
H261 C243 0.931 . S
H262 C247 0.929 . S
H263 C249 0.930 . S
C264 C265 1.387 . S
C264 H268 0.950 . S
C264 C273 1.390 . S
C265 C264 1.387 . S
C265 C267 1.387 . S
H266 C273 0.950 . S
C267 C265 1.387 . S
C267 C269 1.390 . S
C267 H271 0.950 . S
H268 C264 0.950 . S
C269 C267 1.390 . S
C269 C270 1.387 . S
C269 H272 0.950 . S
C270 C269 1.387 . S
C270 C273 1.387 . S
H271 C267 0.950 . S
H272 C269 0.950 . S
C273 C264 1.390 . S
C273 H266 0.950 . S
C273 C270 1.387 . S
C274 C275 1.387 . S
C274 H278 0.950 . S
C274 C283 1.390 . S
C275 C274 1.387 . S
C275 C277 1.387 . S
H276 C283 0.950 . S
C277 C275 1.387 . S
C277 C279 1.390 . S
C277 H281 0.950 . S
H278 C274 0.950 . S
C279 C277 1.390 . S
C279 C280 1.387 . S
C279 H282 0.950 . S
C280 C279 1.387 . S
C280 C283 1.387 . S
H281 C277 0.950 . S
H282 C279 0.950 . S
C283 C274 1.390 . S
C283 H276 0.950 . S
C283 C280 1.387 . S
C284 C285 1.387 . S
C284 H288 0.950 . S
C284 C293 1.390 . S
C285 C284 1.387 . S
C285 C287 1.387 . S
H286 C293 0.950 . S
C287 C285 1.387 . S
C287 C289 1.390 . S
C287 H291 0.950 . S
H288 C284 0.950 . S
C289 C287 1.390 . S
C289 C290 1.387 . S
C289 H292 0.950 . S
C290 C289 1.387 . S
C290 C293 1.387 . S
H291 C287 0.950 . S
H292 C289 0.950 . S
C293 C284 1.390 . S
C293 H286 0.950 . S
C293 C290 1.387 . S
C294 C295 1.387 . S
C294 H298 0.950 . S
C294 C303 1.390 . S
C295 C294 1.387 . S
C295 C297 1.387 . S
H296 C303 0.950 . S
C297 C295 1.387 . S
C297 C299 1.390 . S
C297 H301 0.950 . S
H298 C294 0.950 . S
C299 C297 1.390 . S
C299 C300 1.387 . S
C299 H302 0.950 . S
C300 C299 1.387 . S
C300 C303 1.387 . S
H301 C297 0.950 . S
H302 C299 0.950 . S
C303 C294 1.390 . S
C303 H296 0.950 . S
C303 C300 1.387 . S
C304 C305 1.387 . S
C304 H308 0.950 . S
C304 C313 1.390 . S
C305 C304 1.387 . S
C305 C307 1.387 . S
H306 C313 0.950 . S
C307 C305 1.387 . S
C307 C309 1.390 . S
C307 H311 0.950 . S
H308 C304 0.950 . S
C309 C307 1.390 . S
C309 C310 1.387 . S
C309 H312 0.950 . S
C310 C309 1.387 . S
C310 C313 1.387 . S
H311 C307 0.950 . S
H312 C309 0.950 . S
C313 C304 1.390 . S
C313 H306 0.950 . S
C313 C310 1.387 . S
C314 C315 1.387 . S
C314 H318 0.950 . S
C314 C323 1.390 . S
C315 C314 1.387 . S
C315 C317 1.387 . S
H316 C323 0.950 . S
C317 C315 1.387 . S
C317 C319 1.390 . S
C317 H321 0.950 . S
H318 C314 0.950 . S
C319 C317 1.390 . S
C319 C320 1.387 . S
C319 H322 0.950 . S
C320 C319 1.387 . S
C320 C323 1.387 . S
H321 C317 0.950 . S
H322 C319 0.950 . S
C323 C314 1.390 . S
C323 H316 0.950 . S
C323 C320 1.387 . S
C324 C325 1.387 . S
C324 H328 0.950 . S
C324 C333 1.390 . S
C325 C324 1.387 . S
C325 C327 1.387 . S
H326 C333 0.950 . S
C327 C325 1.387 . S
C327 C329 1.390 . S
C327 H331 0.950 . S
H328 C324 0.950 . S
C329 C327 1.390 . S
C329 C330 1.387 . S
C329 H332 0.950 . S
C330 C329 1.387 . S
C330 C333 1.387 . S
H331 C327 0.950 . S
H332 C329 0.950 . S
C333 C324 1.390 . S
C333 H326 0.950 . S
C333 C330 1.387 . S
C334 C335 1.387 . S
C334 H338 0.950 . S
C334 C343 1.390 . S
C335 C334 1.387 . S
C335 C337 1.387 . S
H336 C343 0.950 . S
C337 C335 1.387 . S
C337 C339 1.390 . S
C337 H341 0.950 . S
H338 C334 0.950 . S
C339 C337 1.390 . S
C339 C340 1.387 . S
C339 H342 0.950 . S
C340 C339 1.387 . S
C340 C343 1.387 . S
H341 C337 0.950 . S
H342 C339 0.950 . S
C343 C334 1.390 . S
C343 H336 0.950 . S
C343 C340 1.387 . S
C344 C345 1.387 1_565 S
C344 H348 0.950 . S
C344 C353 1.390 . S
C345 C344 1.387 1_545 S
C345 C347 1.387 . S
H346 C353 0.950 . S
C347 C345 1.387 . S
C347 C349 1.390 . S
C347 H351 0.950 . S
H348 C344 0.950 . S
C349 C347 1.390 . S
C349 C350 1.387 . S
C349 H352 0.950 . S
C350 C349 1.387 . S
C350 C353 1.387 1_545 S
H351 C347 0.950 . S
H352 C349 0.950 . S
C353 C344 1.390 . S
C353 H346 0.950 . S
C353 C350 1.387 1_565 S
C354 C355 1.387 . S
C354 H358 0.950 . S
C354 C363 1.390 . S
C355 C354 1.387 . S
C355 C357 1.387 . S
H356 C363 0.950 . S
C357 C355 1.387 . S
C357 C359 1.390 . S
C357 H361 0.950 . S
H358 C354 0.950 . S
C359 C357 1.390 . S
C359 C360 1.387 . S
C359 H362 0.950 . S
C360 C359 1.387 . S
C360 C363 1.387 . S
H361 C357 0.950 . S
H362 C359 0.950 . S
C363 C354 1.390 . S
C363 H356 0.950 . S
C363 C360 1.387 . S
C364 C365 1.387 1_565 S
C364 H368 0.950 . S
C364 C373 1.390 1_455 S
C365 C364 1.387 1_545 S
C365 C367 1.387 . S
H366 C373 0.950 . S
C367 C365 1.387 . S
C367 C369 1.390 1_455 S
C367 H371 0.950 . S
H368 C364 0.950 . S
C369 C367 1.390 1_655 S
C369 C370 1.387 . S
C369 H372 0.950 . S
C370 C369 1.387 . S
C370 C373 1.387 1_545 S
H371 C367 0.950 . S
H372 C369 0.950 . S
C373 C364 1.390 1_655 S
C373 H366 0.950 . S
C373 C370 1.387 1_565 S
C374 C375 1.387 . S
C374 H378 0.950 . S
C374 C383 1.390 1_655 S
C375 C374 1.387 . S
C375 C377 1.387 . S
H376 C383 0.950 . S
C377 C375 1.387 . S
C377 C379 1.390 1_655 S
C377 H381 0.950 . S
H378 C374 0.950 . S
C379 C377 1.390 1_455 S
C379 C380 1.387 . S
C379 H382 0.950 . S
C380 C379 1.387 . S
C380 C383 1.387 . S
H381 C377 0.950 . S
H382 C379 0.950 . S
C383 C374 1.390 1_455 S
C383 H376 0.950 . S
C383 C380 1.387 . S
C384 C385 1.387 1_554 S
C384 H388 0.950 . S
C384 C393 1.390 . S
C385 C384 1.387 1_556 S
C385 C387 1.387 . S
H386 C393 0.950 . S
C387 C385 1.387 . S
C387 C389 1.390 . S
C387 H391 0.950 . S
H388 C384 0.950 . S
C389 C387 1.390 . S
C389 C390 1.387 . S
C389 H392 0.950 . S
C390 C389 1.387 . S
C390 C393 1.387 1_556 S
H391 C387 0.950 . S
H392 C389 0.950 . S
C393 C384 1.390 . S
C393 H386 0.950 . S
C393 C390 1.387 1_554 S
C394 C395 1.387 . S
C394 H398 0.950 . S
C394 C403 1.390 . S
C395 C394 1.387 . S
C395 C397 1.387 1_556 S
H396 C403 0.950 . S
C397 C395 1.387 1_554 S
C397 C399 1.390 . S
C397 H401 0.950 . S
H398 C394 0.950 . S
C399 C397 1.390 . S
C399 C400 1.387 1_554 S
C399 H402 0.950 . S
C400 C399 1.387 1_556 S
C400 C403 1.387 . S
H401 C397 0.950 . S
H402 C399 0.950 . S
C403 C394 1.390 . S
C403 H396 0.950 . S
C403 C400 1.387 . S
C404 C405 1.387 1_556 S
C404 H408 0.950 . S
C404 C413 1.390 . S
C405 C404 1.387 1_554 S
C405 C407 1.387 . S
H406 C413 0.950 . S
C407 C405 1.387 . S
C407 C409 1.390 . S
C407 H411 0.950 . S
H408 C404 0.950 . S
C409 C407 1.390 . S
C409 C410 1.387 . S
C409 H412 0.950 . S
C410 C409 1.387 . S
C410 C413 1.387 1_554 S
H411 C407 0.950 . S
H412 C409 0.950 . S
C413 C404 1.390 . S
C413 H406 0.950 . S
C413 C410 1.387 1_556 S
C414 C415 1.387 . S
C414 H418 0.950 . S
C414 C423 1.390 . S
C415 C414 1.387 . S
C415 C417 1.387 1_554 S
H416 C423 0.950 . S
C417 C415 1.387 1_556 S
C417 C419 1.390 . S
C417 H421 0.950 . S
H418 C414 0.950 . S
C419 C417 1.390 . S
C419 C420 1.387 1_556 S
C419 H422 0.950 . S
C420 C419 1.387 1_554 S
C420 C423 1.387 . S
H421 C417 0.950 . S
H422 C419 0.950 . S
C423 C414 1.390 . S
C423 H416 0.950 . S
C423 C420 1.387 . S
C424 C425 1.387 . S
C424 H428 0.950 . S
C424 C433 1.390 . S
C425 C424 1.387 . S
C425 C427 1.387 . S
H426 C433 0.950 . S
C427 C425 1.387 . S
C427 C429 1.390 . S
C427 H431 0.950 . S
H428 C424 0.950 . S
C429 C427 1.390 . S
C429 C430 1.387 . S
C429 H432 0.950 . S
C430 C429 1.387 . S
C430 C433 1.387 . S
H431 C427 0.950 . S
H432 C429 0.950 . S
C433 C424 1.390 . S
C433 H426 0.950 . S
C433 C430 1.387 . S
C434 C435 1.387 . S
C434 H438 0.950 . S
C434 C443 1.390 . S
C435 C434 1.387 . S
C435 C437 1.387 . S
H436 C443 0.950 . S
C437 C435 1.387 . S
C437 C439 1.390 . S
C437 H441 0.950 . S
H438 C434 0.950 . S
C439 C437 1.390 . S
C439 C440 1.387 . S
C439 H442 0.950 . S
C440 C439 1.387 . S
C440 C443 1.387 . S
H441 C437 0.950 . S
H442 C439 0.950 . S
C443 C434 1.390 . S
C443 H436 0.950 . S
C443 C440 1.387 . S
C444 C445 1.387 . S
C444 H448 0.950 . S
C444 C453 1.390 . S
C445 C444 1.387 . S
C445 C447 1.387 . S
H446 C453 0.950 . S
C447 C445 1.387 . S
C447 C449 1.390 . S
C447 H451 0.950 . S
H448 C444 0.950 . S
C449 C447 1.390 . S
C449 C450 1.387 . S
C449 H452 0.950 . S
C450 C449 1.387 . S
C450 C453 1.387 . S
H451 C447 0.950 . S
H452 C449 0.950 . S
C453 C444 1.390 . S
C453 H446 0.950 . S
C453 C450 1.387 . S
C454 C455 1.387 . S
C454 H458 0.950 . S
C454 C463 1.390 . S
C455 C454 1.387 . S
C455 C457 1.387 . S
H456 C463 0.950 . S
C457 C455 1.387 . S
C457 C459 1.390 . S
C457 H461 0.950 . S
H458 C454 0.950 . S
C459 C457 1.390 . S
C459 C460 1.387 . S
C459 H462 0.950 . S
C460 C459 1.387 . S
C460 C463 1.387 . S
H461 C457 0.950 . S
H462 C459 0.950 . S
C463 C454 1.390 . S
C463 H456 0.950 . S
C463 C460 1.387 . S
C265 N71 1.640 . S
C270 N14 1.636 . S
C275 N38 1.640 . S
C280 N113 1.636 . S
C285 N80 1.636 . S
C290 N5 1.640 . S
C295 N104 1.640 . S
C300 N47 1.636 . S
C305 N146 1.636 . S
C310 N203 1.639 . S
C315 N245 1.636 . S
C320 N170 1.640 . S
C325 N137 1.640 . S
C330 N212 1.636 . S
C335 N179 1.636 . S
C340 N236 1.640 . S
C345 C50 1.434 . S
C350 C17 1.434 . S
C355 C83 1.433 . S
C360 C116 1.433 . S
C365 C182 1.434 . S
C370 C149 1.434 . S
C375 C215 1.434 . S
C380 C248 1.434 . S
C385 C259 0.945 . S
C390 C8 0.953 . S
C395 C206 0.958 . S
C400 C61 0.951 . S
C405 C239 0.953 . S
C410 C28 0.945 . S
C415 C41 0.958 . S
C420 C226 0.951 . S
C425 C193 0.945 . S
C430 C74 0.953 . S
C435 C127 0.951 . S
C440 C140 0.958 . S
C445 C173 0.958 . S
C450 C94 0.951 . S
C455 C107 0.953 . S
C460 C160 0.945 . S
