# Generated by pormake.
# Topology dmp, (4)-cn, num edge types: 1
# Building blocks:
#     Node 0, Type 0, BuildingBlock: ICAMEG_clean_sbu_1, # of connection points: 4
#     Node 1, Type 0, BuildingBlock: ICAMEG_clean_sbu_1, # of connection points: 4
#     Node 2, Type 0, BuildingBlock: ICAMEG_clean_sbu_1, # of connection points: 4
#     Node 3, Type 0, BuildingBlock: ICAMEG_clean_sbu_1, # of connection points: 4
#     Edge 4, Type (0, 0), BuildingBlock: FUNLAD_clean_linker_1, # of connection points: 2
#     Edge 5, Type (0, 0), BuildingBlock: FUNLAD_clean_linker_1, # of connection points: 2
#     Edge 6, Type (0, 0), BuildingBlock: FUNLAD_clean_linker_1, # of connection points: 2
#     Edge 7, Type (0, 0), BuildingBlock: FUNLAD_clean_linker_1, # of connection points: 2
#     Edge 8, Type (0, 0), BuildingBlock: FUNLAD_clean_linker_1, # of connection points: 2
#     Edge 9, Type (0, 0), BuildingBlock: FUNLAD_clean_linker_1, # of connection points: 2
#     Edge 10, Type (0, 0), BuildingBlock: FUNLAD_clean_linker_1, # of connection points: 2
#     Edge 11, Type (0, 0), BuildingBlock: FUNLAD_clean_linker_1, # of connection points: 2
# Relax obj value: 0.009
# Max RMSD: 0.071
# Mean RMSD: 0.071
data_MOF--net-dmp--node1-ICAMEG_clean_sbu_1--edge1-FUNLAD_clean_linker_1
_symmetry_space_group_name_H-M    P1
_symmetry_Int_Tables_number       1
_symmetry_cell_setting            triclinic
loop_
_symmetry_equiv_pos_as_xyz
'x, y, z'
_cell_length_a     44.634074
_cell_length_b     19.742008
_cell_length_c     18.644923
_cell_angle_alpha  89.897031
_cell_angle_beta   90.243739
_cell_angle_gamma 90.069662
loop_
_atom_site_label
_atom_site_type_symbol
_atom_site_fract_x
_atom_site_fract_y
_atom_site_fract_z
_atom_type_partial_charge
Co0 Co 0.13168 0.24199 0.16329 0.0
Co1 Co 0.12626 0.2602 0.34697 0.0
O2 O 0.10835 0.25016 0.25167 0.0
C3 C 0.0916 0.12271 0.16079 0.0
O4 O 0.10027 0.11043 0.22685 0.0
C5 C 0.08476 0.37672 0.33738 0.0
O6 O 0.09516 0.38826 0.27281 0.0
O7 O 0.15169 0.33642 0.31284 0.0
O8 O 0.1616 0.31038 0.19787 0.0
H9 H 0.21131 0.29075 0.52133 0.0
H10 H 0.06644 0.26934 0.15362 0.0
O11 O 0.1022 0.17323 0.1266 0.0
H12 H 0.11516 0.4627 0.03334 0.0
H13 H 0.14384 0.21857 0.89613 0.0
H14 H 0.1964 0.23384 0.12871 0.0
H15 H 0.14545 0.37006 0.08481 0.0
H16 H 0.11535 0.22996 0.00856 0.0
O17 O 0.09432 0.32663 0.37401 0.0
H18 H 0.18831 0.27528 0.40192 0.0
H19 H 0.10168 0.26973 0.4952 0.0
H20 H 0.22576 0.22331 0.01758 0.0
H21 H 0.03529 0.36045 0.10205 0.0
H22 H 0.19945 0.21557 0.90019 0.0
H23 H 0.05966 0.45813 0.04157 0.0
O24 O 0.15664 0.16856 0.20546 0.0
H25 H 0.0294 0.13324 0.37464 0.0
H26 H 0.1375 0.13351 0.43057 0.0
H27 H 0.10607 0.0382 0.47136 0.0
H28 H 0.05159 0.03778 0.44359 0.0
H29 H 0.06172 0.22721 0.33424 0.0
H30 H 0.12373 0.28547 0.61559 0.0
H31 H 0.17893 0.29589 0.62922 0.0
O32 O 0.1587 0.19398 0.32298 0.0
C33 C 0.16583 0.3455 0.25442 0.0
C34 C 0.18723 0.28598 0.51612 0.0
C35 C 0.13807 0.28312 0.56901 0.0
N36 N 0.14372 0.27099 0.44169 0.0
C37 C 0.17409 0.27702 0.44868 0.0
C38 C 0.12572 0.2743 0.50071 0.0
C39 C 0.16905 0.28895 0.57662 0.0
C40 C 0.0772 0.31136 0.12682 0.0
N41 N 0.10772 0.3142 0.12194 0.0
C42 C 0.05945 0.36295 0.09798 0.0
C43 C 0.07314 0.41778 0.06413 0.0
C44 C 0.10428 0.4204 0.05955 0.0
C45 C 0.12132 0.36789 0.08901 0.0
C46 C 0.15555 0.22205 0.94693 0.0
C47 C 0.18479 0.23099 0.07782 0.0
C48 C 0.13954 0.22833 0.01078 0.0
N49 N 0.15421 0.23316 0.07507 0.0
C50 C 0.20154 0.2248 0.01508 0.0
C51 C 0.18676 0.22039 0.94924 0.0
C52 C 0.16721 0.16018 0.26852 0.0
C53 C 0.0531 0.13293 0.38722 0.0
C54 C 0.11384 0.13353 0.41796 0.0
C55 C 0.09614 0.07952 0.44138 0.0
C56 C 0.06557 0.07934 0.42583 0.0
N57 N 0.10142 0.18598 0.3803 0.0
C58 C 0.07148 0.18611 0.36473 0.0
Co59 Co 0.38834 0.74866 0.32505 0.0
Co60 Co 0.39153 0.74715 0.14 0.0
O61 O 0.41043 0.75069 0.23481 0.0
C62 C 0.43083 0.63515 0.33796 0.0
O63 O 0.42247 0.61788 0.27301 0.0
C64 C 0.42901 0.87023 0.13589 0.0
O65 O 0.41701 0.8864 0.19761 0.0
O66 O 0.36363 0.82134 0.1655 0.0
O67 O 0.35634 0.80927 0.28428 0.0
H68 H 0.30513 0.74002 0.9664 0.0
H69 H 0.45271 0.78566 0.32716 0.0
O70 O 0.41973 0.68749 0.36771 0.0
H71 H 0.39985 0.98365 0.42599 0.0
H72 H 0.37897 0.74946 0.59405 0.0
H73 H 0.32434 0.73442 0.36414 0.0
H74 H 0.37176 0.88191 0.38872 0.0
H75 H 0.40616 0.75517 0.47921 0.0
O76 O 0.42137 0.81562 0.10425 0.0
H77 H 0.3289 0.744 0.08597 0.0
H78 H 0.41518 0.74599 0.99074 0.0
H79 H 0.29626 0.72868 0.47763 0.0
H80 H 0.48174 0.88608 0.36464 0.0
H81 H 0.32361 0.7363 0.59368 0.0
H82 H 0.45527 0.98608 0.41427 0.0
O83 O 0.36546 0.66774 0.29363 0.0
H84 H 0.49213 0.6346 0.12205 0.0
H85 H 0.38387 0.61057 0.07424 0.0
H86 H 0.418 0.51687 0.04367 0.0
H87 H 0.47257 0.52867 0.06737 0.0
H88 H 0.45716 0.7267 0.15256 0.0
H89 H 0.39233 0.74291 0.87005 0.0
H90 H 0.33693 0.73952 0.85736 0.0
O91 O 0.36112 0.67925 0.17385 0.0
C92 C 0.35011 0.83592 0.22347 0.0
C93 C 0.3293 0.74126 0.97123 0.0
C94 C 0.37824 0.74297 0.91716 0.0
N95 N 0.37339 0.74457 0.04533 0.0
C96 C 0.34289 0.74327 0.03881 0.0
C97 C 0.39105 0.74488 0.98561 0.0
C98 C 0.34715 0.74104 0.91008 0.0
C99 C 0.44108 0.82875 0.34935 0.0
N100 N 0.41062 0.82782 0.35606 0.0
C101 C 0.45761 0.88557 0.37019 0.0
C102 C 0.44274 0.94169 0.39795 0.0
C103 C 0.41165 0.94038 0.4045 0.0
C104 C 0.39585 0.8827 0.38311 0.0
C105 C 0.3668 0.74629 0.54384 0.0
C106 C 0.33638 0.73821 0.41442 0.0
C107 C 0.38207 0.74943 0.47868 0.0
N108 N 0.36681 0.74576 0.4151 0.0
C109 C 0.32037 0.73474 0.47851 0.0
C110 C 0.33573 0.73892 0.54359 0.0
C111 C 0.35448 0.65072 0.23322 0.0
C112 C 0.46841 0.62892 0.1113 0.0
C113 C 0.40757 0.61593 0.08508 0.0
C114 C 0.42679 0.56279 0.06745 0.0
C115 C 0.45741 0.56946 0.08071 0.0
N116 N 0.41854 0.67415 0.11489 0.0
C117 C 0.44852 0.68102 0.12818 0.0
Co118 Co 0.88751 0.77109 0.84575 0.0
Co119 Co 0.88863 0.74102 0.665 0.0
O120 O 0.90927 0.75925 0.75569 0.0
C121 C 0.92811 0.88974 0.84076 0.0
O122 O 0.91841 0.90098 0.77531 0.0
C123 C 0.93514 0.63468 0.67048 0.0
O124 O 0.92687 0.6227 0.73673 0.0
O125 O 0.86854 0.66147 0.70836 0.0
O126 O 0.85651 0.70174 0.81716 0.0
H127 H 0.79984 0.68123 0.51097 0.0
H128 H 0.9526 0.74163 0.85079 0.0
O129 O 0.91794 0.84008 0.87699 0.0
H130 H 0.90463 0.55579 0.98521 0.0
H131 H 0.87928 0.80811 0.11211 0.0
H132 H 0.82346 0.78458 0.8847 0.0
H133 H 0.87415 0.64721 0.93197 0.0
H134 H 0.90607 0.78822 0.9986 0.0
O135 O 0.92265 0.6816 0.63419 0.0
H136 H 0.82599 0.70817 0.62415 0.0
H137 H 0.90821 0.73041 0.51263 0.0
H138 H 0.7958 0.80439 0.99688 0.0
H139 H 0.98397 0.65173 0.90404 0.0
H140 H 0.82374 0.81622 0.11169 0.0
H141 H 0.95997 0.55782 0.97162 0.0
O142 O 0.86273 0.84368 0.80176 0.0
H143 H 0.97711 0.88947 0.61012 0.0
H144 H 0.86808 0.86015 0.57914 0.0
H145 H 0.89287 0.96066 0.5276 0.0
H146 H 0.9478 0.97569 0.54275 0.0
H147 H 0.95133 0.79013 0.6616 0.0
H148 H 0.88297 0.70346 0.3982 0.0
H149 H 0.82838 0.6788 0.39689 0.0
O150 O 0.85371 0.79953 0.6929 0.0
C151 C 0.85379 0.65855 0.76653 0.0
C152 C 0.82361 0.69213 0.51079 0.0
C153 C 0.87028 0.70452 0.44752 0.0
N154 N 0.86854 0.72139 0.57492 0.0
C155 C 0.83853 0.70758 0.5747 0.0
C156 C 0.88446 0.71967 0.51248 0.0
C157 C 0.83965 0.6907 0.44683 0.0
C158 C 0.94202 0.70126 0.88067 0.0
N159 N 0.9116 0.69981 0.88846 0.0
C160 C 0.95989 0.65035 0.91045 0.0
C161 C 0.9464 0.59763 0.94829 0.0
C162 C 0.91535 0.59643 0.95588 0.0
C163 C 0.8982 0.64822 0.92538 0.0
C164 C 0.86685 0.80284 0.06246 0.0
C165 C 0.83578 0.78923 0.93448 0.0
C166 C 0.88189 0.79161 0.99803 0.0
N167 N 0.86632 0.78462 0.93519 0.0
C168 C 0.81999 0.80062 0.99783 0.0
C169 C 0.83568 0.80736 0.06219 0.0
C170 C 0.84802 0.84133 0.74311 0.0
C171 C 0.95318 0.88341 0.603 0.0
C172 C 0.89196 0.86653 0.58633 0.0
C173 C 0.90589 0.92343 0.55682 0.0
C174 C 0.93671 0.93181 0.56529 0.0
N175 N 0.90828 0.81923 0.62314 0.0
C176 C 0.93849 0.82713 0.63177 0.0
Co177 Co 0.62826 0.28192 0.66792 0.0
Co178 Co 0.63061 0.24633 0.84782 0.0
O179 O 0.60843 0.26012 0.7583 0.0
C180 C 0.58151 0.38724 0.67878 0.0
O181 O 0.59059 0.39733 0.74491 0.0
C182 C 0.59199 0.12496 0.83746 0.0
O183 O 0.60224 0.11683 0.77221 0.0
O184 O 0.65617 0.17705 0.80154 0.0
O185 O 0.66366 0.22321 0.6929 0.0
H186 H 0.72308 0.21323 0.99835 0.0
H187 H 0.56573 0.23159 0.66467 0.0
O188 O 0.59371 0.34171 0.64038 0.0
H189 H 0.62371 0.06697 0.52325 0.0
H190 H 0.6314 0.32911 0.40256 0.0
H191 H 0.69044 0.3169 0.62632 0.0
H192 H 0.64853 0.16628 0.57741 0.0
H193 H 0.60726 0.29776 0.51672 0.0
O194 O 0.6011 0.17423 0.87592 0.0
H195 H 0.69491 0.23559 0.88678 0.0
H196 H 0.61265 0.22219 0.99967 0.0
H197 H 0.71551 0.34814 0.51337 0.0
H198 H 0.53992 0.13339 0.61072 0.0
H199 H 0.68592 0.3544 0.4004 0.0
H200 H 0.569 0.05015 0.5396 0.0
O201 O 0.64844 0.36035 0.71336 0.0
H202 H 0.5329 0.35758 0.90963 0.0
H203 H 0.6427 0.36779 0.93852 0.0
H204 H 0.61128 0.4554 0.99477 0.0
H205 H 0.55595 0.4505 0.98067 0.0
H206 H 0.56519 0.2715 0.85352 0.0
H207 H 0.63995 0.19961 0.11255 0.0
H208 H 0.69557 0.19509 0.11233 0.0
O209 O 0.66072 0.31848 0.82183 0.0
C210 C 0.67025 0.18099 0.74241 0.0
C211 C 0.69886 0.21542 0.99922 0.0
C212 C 0.65219 0.20764 0.06327 0.0
N213 N 0.65219 0.23085 0.93685 0.0
C214 C 0.68278 0.22826 0.93624 0.0
C215 C 0.63686 0.22041 0.99921 0.0
C216 C 0.6834 0.20513 0.06312 0.0
C217 C 0.57846 0.1959 0.63323 0.0
N218 N 0.60855 0.20478 0.62393 0.0
C219 C 0.56376 0.14026 0.60306 0.0
C220 C 0.58009 0.09353 0.56324 0.0
C221 C 0.6108 0.1029 0.55409 0.0
C222 C 0.62475 0.15912 0.58507 0.0
C223 C 0.64454 0.32643 0.4514 0.0
C224 C 0.67746 0.31916 0.57734 0.0
C225 C 0.63099 0.3088 0.51621 0.0
N226 N 0.64748 0.30503 0.57802 0.0
C227 C 0.69175 0.33704 0.51356 0.0
C228 C 0.67513 0.3406 0.45022 0.0
C229 C 0.66319 0.36255 0.77185 0.0
C230 C 0.55697 0.36019 0.91628 0.0
C231 C 0.61865 0.36554 0.93177 0.0
C232 C 0.60097 0.41517 0.96394 0.0
C233 C 0.56993 0.41235 0.95606 0.0
N234 N 0.60577 0.31447 0.89296 0.0
C235 C 0.57536 0.31143 0.88488 0.0
H236 H 0.32018 0.90613 0.16563 0.0
C237 C 0.32513 0.88455 0.21808 0.0
H238 H 0.3121 0.88061 0.32712 0.0
H239 H 0.24555 0.16632 0.28355 0.0
H240 H 0.29037 0.20378 0.34545 0.0
H241 H 0.33148 0.12397 0.37181 0.0
H242 H 0.32807 0.00619 0.33551 0.0
C243 C 0.30752 0.90049 0.27381 0.0
C244 C 0.28148 0.94662 0.26388 0.0
C245 C 0.28331 0.01458 0.2877 0.0
C246 C 0.2592 0.06007 0.27433 0.0
C247 C 0.26253 0.12876 0.29484 0.0
C248 C 0.28832 0.15117 0.32987 0.0
C249 C 0.31149 0.10628 0.34457 0.0
C250 C 0.30922 0.03881 0.32352 0.0
H251 H 0.19775 0.0985 0.33511 0.0
C252 C 0.19139 0.11037 0.28013 0.0
H253 H 0.20103 0.09431 0.1706 0.0
H254 H 0.26998 0.81824 0.21555 0.0
H255 H 0.22493 0.77991 0.15479 0.0
H256 H 0.18291 0.85833 0.13233 0.0
H257 H 0.18567 0.97554 0.17057 0.0
C258 C 0.20715 0.08346 0.22592 0.0
C259 C 0.23278 0.03667 0.2394 0.0
C260 C 0.23089 0.96842 0.21617 0.0
C261 C 0.2552 0.92328 0.2287 0.0
C262 C 0.25243 0.85503 0.20627 0.0
C263 C 0.22662 0.83223 0.17165 0.0
C264 C 0.20296 0.87637 0.15905 0.0
C265 C 0.20488 0.94361 0.18114 0.0
H266 H 0.18471 0.4449 0.28414 0.0
C267 C 0.18853 0.39958 0.25249 0.0
H268 H 0.21802 0.34588 0.18579 0.0
H269 H 0.29791 0.5781 0.06497 0.0
H270 H 0.27654 0.52887 0.95751 0.0
H271 H 0.23642 0.44316 0.96504 0.0
H272 H 0.21781 0.40532 0.08 0.0
C273 C 0.21429 0.39202 0.2162 0.0
C274 C 0.23764 0.44621 0.21274 0.0
C275 C 0.24758 0.46953 0.14476 0.0
C276 C 0.27004 0.52065 0.14031 0.0
C277 C 0.28043 0.54067 0.07172 0.0
C278 C 0.2684 0.51269 0.00942 0.0
C279 C 0.24586 0.46436 0.01366 0.0
C280 C 0.23547 0.44288 0.08025 0.0
H281 H 0.3359 0.55295 0.26842 0.0
C282 C 0.33214 0.59608 0.23322 0.0
H283 H 0.30194 0.64689 0.16486 0.0
H284 H 0.22959 0.40341 0.35206 0.0
H285 H 0.24679 0.46083 0.45924 0.0
H286 H 0.27755 0.56452 0.45083 0.0
H287 H 0.29254 0.60889 0.33524 0.0
C288 C 0.30587 0.60266 0.19842 0.0
C289 C 0.28172 0.55043 0.20374 0.0
C290 C 0.27054 0.52971 0.27162 0.0
C291 C 0.25006 0.4746 0.27627 0.0
C292 C 0.24284 0.44877 0.34505 0.0
C293 C 0.2529 0.48075 0.40718 0.0
C294 C 0.2704 0.53876 0.40247 0.0
C295 C 0.27916 0.5632 0.33567 0.0
H296 H 0.7148 0.15946 0.69798 0.0
C297 C 0.69747 0.13984 0.73318 0.0
H298 H 0.68435 0.06207 0.80352 0.0
H299 H 0.81266 0.9742 0.63364 0.0
H300 H 0.78651 0.99429 0.52142 0.0
H301 H 0.73366 0.03086 0.52049 0.0
H302 H 0.70728 0.05097 0.63173 0.0
C303 C 0.70184 0.08121 0.76849 0.0
C304 C 0.7313 0.04511 0.7677 0.0
C305 C 0.74523 0.02676 0.70215 0.0
C306 C 0.77457 0.99855 0.70268 0.0
C307 C 0.7895 0.98993 0.63641 0.0
C308 C 0.77487 1.00207 0.57155 0.0
C309 C 0.7452 0.02313 0.57102 0.0
C310 C 0.73043 0.03531 0.63536 0.0
H311 H 0.80336 0.8651 0.7 0.0
C312 C 0.82106 0.88365 0.73509 0.0
H313 H 0.83523 0.96061 0.80527 0.0
H314 H 0.71234 0.07744 0.90353 0.0
H315 H 0.73628 0.04623 0.01524 0.0
H316 H 0.78341 0.98108 0.01614 0.0
H317 H 0.80735 0.94895 0.90534 0.0
C318 C 0.81743 0.94238 0.77034 0.0
C319 C 0.78835 0.98004 0.76873 0.0
C320 C 0.77386 0.99569 0.83432 0.0
C321 C 0.74583 0.0301 0.8338 0.0
C322 C 0.73297 0.04898 0.90028 0.0
C323 C 0.74656 0.03165 0.96509 0.0
C324 C 0.77313 0.99522 0.9656 0.0
C325 C 0.78672 0.97733 0.90129 0.0
H326 H 0.83423 0.55902 0.74092 0.0
C327 C 0.83121 0.60453 0.77282 0.0
H328 H 0.80237 0.65895 0.84102 0.0
H329 H 0.72385 0.41307 0.67385 0.0
H330 H 0.73869 0.46642 0.56252 0.0
H331 H 0.77093 0.56806 0.56301 0.0
H332 H 0.78951 0.61466 0.67466 0.0
C333 C 0.80569 0.61314 0.80979 0.0
C334 C 0.78142 0.56103 0.8096 0.0
C335 C 0.76835 0.53883 0.74406 0.0
C336 C 0.74729 0.48473 0.74415 0.0
C337 C 0.73781 0.45767 0.67741 0.0
C338 C 0.74649 0.48729 0.61291 0.0
C339 C 0.7648 0.54417 0.61316 0.0
C340 C 0.77563 0.56989 0.67775 0.0
H341 H 0.68154 0.46411 0.75062 0.0
C342 C 0.68556 0.41687 0.77912 0.0
H343 H 0.71652 0.35866 0.83861 0.0
H344 H 0.80166 0.5915 0.94476 0.0
H345 H 0.78342 0.54469 0.05658 0.0
H346 H 0.74301 0.45935 0.05734 0.0
H347 H 0.72089 0.41955 0.94625 0.0
C348 C 0.71218 0.40635 0.81126 0.0
C349 C 0.73643 0.45853 0.81021 0.0
C350 C 0.74866 0.48246 0.87581 0.0
C351 C 0.77146 0.53301 0.87546 0.0
C352 C 0.78392 0.55424 0.94176 0.0
C353 C 0.7737 0.52767 0.00645 0.0
C354 C 0.75098 0.47955 0.00688 0.0
C355 C 0.73851 0.45705 0.94258 0.0
H356 H 0.05962 0.03722 0.15879 0.0
C357 C 0.06877 0.0786 0.12717 0.0
H358 H 0.06703 0.1313 0.02853 0.0
H359 H 1.00323 0.83606 0.94528 0.0
H360 H 0.05196 0.78637 0.96846 0.0
H361 H 0.09337 0.85543 0.0172 0.0
H362 H 0.08624 0.97444 0.04354 0.0
C363 C 0.05875 0.08877 0.05982 0.0
C364 C 0.03422 0.0468 0.02824 0.0
C365 C 0.03888 0.97735 0.01228 0.0
C366 C 0.01511 0.93775 0.98305 0.0
C367 C 0.02041 0.86851 0.96774 0.0
C368 C 0.04832 0.83933 0.98055 0.0
C369 C 0.07162 0.87819 0.00806 0.0
C370 C 0.06715 0.94644 0.02347 0.0
H371 H 0.96029 0.97499 0.83867 0.0
C372 C 0.95145 0.93427 0.87172 0.0
H373 H 0.95409 0.88352 0.97139 0.0
H374 H 0.01794 0.1787 0.05097 0.0
H375 H 0.96924 0.22844 0.02767 0.0
H376 H 0.92782 0.1594 0.97899 0.0
H377 H 0.9349 0.04037 0.95281 0.0
C378 C 0.96211 0.92538 0.93873 0.0
C379 C 0.98688 0.96784 0.96845 0.0
C380 C 0.98225 0.03737 0.98411 0.0
C381 C 1.00603 0.07698 0.01332 0.0
C382 C 1.00075 0.14624 0.02855 0.0
C383 C 0.97285 0.17545 0.01566 0.0
C384 C 0.94955 0.1366 0.98818 0.0
C385 C 0.954 0.06833 0.97286 0.0
H386 H 0.56247 0.03516 0.83149 0.0
C387 C 0.56949 0.07692 0.86559 0.0
H388 H 0.56333 0.12666 0.96472 0.0
H389 H 0.43252 0.00958 0.00893 0.0
H390 H 0.42122 0.12525 0.97467 0.0
H391 H 0.4611 0.20205 0.93256 0.0
H392 H 0.5125 0.16338 0.92385 0.0
C393 C 0.55733 0.08381 0.93105 0.0
C394 C 0.53352 0.03702 0.9573 0.0
C395 C 0.5037 0.0608 0.96374 0.0
C396 C 0.48079 0.01688 0.98945 0.0
C397 C 0.45098 0.04127 0.99212 0.0
C398 C 0.44412 0.10747 0.97203 0.0
C399 C 0.46657 0.15068 0.94823 0.0
C400 C 0.49601 0.12785 0.9437 0.0
H401 H 0.45794 0.96091 0.13398 0.0
C402 C 0.45159 0.91588 0.10405 0.0
H403 H 0.4589 0.85803 0.01055 0.0
H404 H 0.58866 0.97626 0.95538 0.0
H405 H 0.60002 0.86061 0.98971 0.0
H406 H 0.56033 0.7843 0.03378 0.0
H407 H 0.50904 0.82328 0.04408 0.0
C408 C 0.46436 0.90384 0.04011 0.0
C409 C 0.48791 0.94963 0.01051 0.0
C410 C 0.5177 0.92567 0.00346 0.0
C411 C 0.54057 0.96949 0.9773 0.0
C412 C 0.5703 0.94483 0.97332 0.0
C413 C 0.57718 0.8786 0.99327 0.0
C414 C 0.55483 0.83566 0.01814 0.0
C415 C 0.52545 0.85868 0.02358 0.0
H416 H 0.96891 0.55293 0.67019 0.0
C417 C 0.95809 0.59123 0.63713 0.0
H418 H 0.95476 0.63477 0.53372 0.0
H419 H 0.08258 0.53413 0.43391 0.0
H420 H 0.09135 0.6546 0.44639 0.0
H421 H 0.05281 0.7291 0.49828 0.0
H422 H 1.00535 0.68332 0.53867 0.0
C423 C 0.96499 0.5959 0.56709 0.0
C424 C 0.98763 0.55067 0.53338 0.0
C425 C 0.01497 0.57841 0.50828 0.0
C426 C 0.03696 0.5356 0.47692 0.0
C427 C 0.06465 0.56438 0.45577 0.0
C428 C 0.0701 0.63351 0.46319 0.0
C429 C 0.04843 0.67543 0.4925 0.0
C430 C 0.02123 0.64847 0.51526 0.0
H431 H 0.05276 0.46216 0.33394 0.0
C432 C 0.06232 0.42312 0.36823 0.0
H433 H 0.06326 0.37976 0.47187 0.0
H434 H 0.93626 0.48199 0.56851 0.0
H435 H 0.92727 0.36166 0.55521 0.0
H436 H 0.96562 0.28719 0.50248 0.0
H437 H 0.01311 0.33278 0.46222 0.0
C438 C 0.05417 0.41935 0.43755 0.0
C439 C 0.03122 0.46523 0.46901 0.0
C440 C 1.00375 0.43762 0.49354 0.0
C441 C 0.98181 0.48041 0.52508 0.0
C442 C 0.95411 0.45171 0.5463 0.0
C443 C 0.94854 0.38268 0.53844 0.0
C444 C 0.97011 0.34077 0.50868 0.0
C445 C 0.99735 0.36764 0.48605 0.0
H446 H 0.46246 0.5499 0.34758 0.0
C447 C 0.45272 0.59228 0.37639 0.0
H448 H 0.45132 0.64555 0.47454 0.0
H449 H 0.50673 0.34263 0.56461 0.0
H450 H 0.45768 0.29868 0.53279 0.0
H451 H 0.41914 0.37328 0.47995 0.0
H452 H 0.42948 0.49204 0.45798 0.0
C453 C 0.46033 0.60259 0.44538 0.0
C454 C 0.48259 0.55822 0.48246 0.0
C455 C 0.47594 0.48908 0.49627 0.0
C456 C 0.49796 0.44633 0.52812 0.0
C457 C 0.49084 0.37736 0.54058 0.0
C458 C 0.46274 0.3515 0.52278 0.0
C459 C 0.44106 0.39347 0.49293 0.0
C460 C 0.44739 0.46151 0.48004 0.0
H461 H 0.548 0.4695 0.68245 0.0
C462 C 0.55799 0.43133 0.64811 0.0
H463 H 0.5588 0.38836 0.54437 0.0
H464 H 0.50204 0.68896 0.46685 0.0
H465 H 0.55082 0.73322 0.50026 0.0
H466 H 0.58918 0.65889 0.55425 0.0
H467 H 0.57895 0.54003 0.57557 0.0
C468 C 0.5495 0.42723 0.57894 0.0
C469 C 0.52632 0.47303 0.54781 0.0
C470 C 0.53275 0.5425 0.53542 0.0
C471 C 0.51076 0.58521 0.50331 0.0
C472 C 0.51785 0.65425 0.49117 0.0
C473 C 0.5458 0.68032 0.50993 0.0
C474 C 0.56739 0.63849 0.5404 0.0
C475 C 0.56113 0.57034 0.55278 0.0
loop_
_geom_bond_atom_site_label_1
_geom_bond_atom_site_label_2
_geom_bond_distance
_geom_bond_site_symmetry_2
_ccdc_geom_bond_type
Co0 O2 2.143 . S
Co0 O8 2.074 . S
Co0 O11 2.093 . S
Co0 O24 2.097 . S
Co0 N41 2.151 . S
Co0 N49 2.214 . S
Co1 O2 2.160 . S
Co1 O7 2.058 . S
Co1 O17 2.057 . S
Co1 O32 2.037 . S
Co1 N36 2.145 . S
Co1 N57 2.257 . S
O2 Co0 2.143 . S
O2 Co1 2.160 . S
C3 O4 1.278 . S
C3 O11 1.224 . S
O4 C3 1.278 . S
C5 O6 1.245 . S
C5 O17 1.232 . S
O6 C5 1.245 . S
O7 Co1 2.058 . S
O7 C33 1.269 . S
O8 Co0 2.074 . S
O8 C33 1.257 . S
H9 C34 0.930 . S
H10 C40 0.930 . S
O11 Co0 2.093 . S
O11 C3 1.224 . S
H12 C44 0.929 1_556 S
H13 C46 0.930 . S
H14 C47 0.930 . S
H15 C45 0.929 . S
H16 C48 0.928 . S
O17 Co1 2.057 . S
O17 C5 1.232 . S
H18 C37 0.929 . S
H19 C38 0.929 . S
H20 C50 0.931 . S
H21 C42 0.929 . S
H22 C51 0.930 . S
H23 C43 0.931 1_556 S
O24 Co0 2.097 . S
O24 C52 1.214 . S
H25 C53 0.929 . S
H26 C54 0.929 . S
H27 C55 0.930 . S
H28 C56 0.929 . S
H29 C58 0.930 . S
H30 C35 0.930 . S
H31 C39 0.930 . S
O32 Co1 2.037 . S
O32 C52 1.234 . S
C33 O7 1.269 . S
C33 O8 1.257 . S
C34 H9 0.930 . S
C34 C37 1.388 . S
C34 C39 1.418 . S
C35 H30 0.930 . S
C35 C38 1.404 . S
C35 C39 1.353 . S
N36 Co1 2.145 . S
N36 C37 1.397 . S
N36 C38 1.334 . S
C37 H18 0.929 . S
C37 C34 1.388 . S
C37 N36 1.397 . S
C38 H19 0.929 . S
C38 C35 1.404 . S
C38 N36 1.334 . S
C39 H31 0.930 . S
C39 C34 1.418 . S
C39 C35 1.353 . S
C40 H10 0.930 . S
C40 N41 1.330 . S
C40 C42 1.446 . S
N41 Co0 2.151 . S
N41 C40 1.330 . S
N41 C45 1.418 . S
C42 H21 0.929 . S
C42 C40 1.446 . S
C42 C43 1.332 . S
C43 H23 0.931 1_554 S
C43 C42 1.332 . S
C43 C44 1.267 . S
C44 H12 0.929 1_554 S
C44 C43 1.267 . S
C44 C45 1.251 . S
C45 H15 0.929 . S
C45 N41 1.418 . S
C45 C44 1.251 . S
C46 H13 0.930 . S
C46 C48 1.406 . S
C46 C51 1.261 . S
C47 H14 0.930 . S
C47 N49 1.325 . S
C47 C50 1.357 . S
C48 H16 0.928 . S
C48 C46 1.406 . S
C48 N49 1.261 1_556 S
N49 Co0 2.214 . S
N49 C47 1.325 . S
N49 C48 1.261 1_554 S
C50 H20 0.931 . S
C50 C47 1.357 . S
C50 C51 1.312 1_554 S
C51 H22 0.930 . S
C51 C46 1.261 . S
C51 C50 1.312 1_556 S
C52 O24 1.214 . S
C52 O32 1.234 . S
C53 H25 0.929 . S
C53 C56 1.391 . S
C53 C58 1.391 . S
C54 H26 0.929 . S
C54 C55 1.390 . S
C54 N57 1.391 . S
C55 H27 0.930 . S
C55 C54 1.390 . S
C55 C56 1.392 . S
C56 H28 0.929 . S
C56 C53 1.391 . S
C56 C55 1.392 . S
N57 Co1 2.257 . S
N57 C54 1.391 . S
N57 C58 1.388 . S
C58 H29 0.930 . S
C58 C53 1.391 . S
C58 N57 1.388 . S
Co59 O61 2.143 . S
Co59 O67 2.074 . S
Co59 O70 2.093 . S
Co59 O83 2.097 . S
Co59 N100 2.151 . S
Co59 N108 2.214 . S
Co60 O61 2.160 . S
Co60 O66 2.058 . S
Co60 O76 2.057 . S
Co60 O91 2.037 . S
Co60 N95 2.145 . S
Co60 N116 2.257 . S
O61 Co59 2.143 . S
O61 Co60 2.160 . S
C62 O63 1.278 . S
C62 O70 1.224 . S
O63 C62 1.278 . S
C64 O65 1.245 . S
C64 O76 1.232 . S
O65 C64 1.245 . S
O66 Co60 2.058 . S
O66 C92 1.269 . S
O67 Co59 2.074 . S
O67 C92 1.257 . S
H68 C93 0.930 . S
H69 C99 0.930 . S
O70 Co59 2.093 . S
O70 C62 1.224 . S
H71 C103 0.929 . S
H72 C105 0.930 . S
H73 C106 0.930 . S
H74 C104 0.929 . S
H75 C107 0.928 . S
O76 Co60 2.057 . S
O76 C64 1.232 . S
H77 C96 0.929 . S
H78 C97 0.929 . S
H79 C109 0.931 . S
H80 C101 0.929 . S
H81 C110 0.930 . S
H82 C102 0.931 . S
O83 Co59 2.097 . S
O83 C111 1.214 . S
H84 C112 0.929 . S
H85 C113 0.929 . S
H86 C114 0.930 . S
H87 C115 0.929 . S
H88 C117 0.930 . S
H89 C94 0.930 . S
H90 C98 0.930 . S
O91 Co60 2.037 . S
O91 C111 1.234 . S
C92 O66 1.269 . S
C92 O67 1.257 . S
C93 H68 0.930 . S
C93 C96 1.388 1_556 S
C93 C98 1.418 . S
C94 H89 0.930 . S
C94 C97 1.404 . S
C94 C98 1.353 . S
N95 Co60 2.145 . S
N95 C96 1.397 . S
N95 C97 1.334 1_554 S
C96 H77 0.929 . S
C96 C93 1.388 1_554 S
C96 N95 1.397 . S
C97 H78 0.929 . S
C97 C94 1.404 . S
C97 N95 1.334 1_556 S
C98 H90 0.930 . S
C98 C93 1.418 . S
C98 C94 1.353 . S
C99 H69 0.930 . S
C99 N100 1.330 . S
C99 C101 1.446 . S
N100 Co59 2.151 . S
N100 C99 1.330 . S
N100 C104 1.418 . S
C101 H80 0.929 . S
C101 C99 1.446 . S
C101 C102 1.332 . S
C102 H82 0.931 . S
C102 C101 1.332 . S
C102 C103 1.267 . S
C103 H71 0.929 . S
C103 C102 1.267 . S
C103 C104 1.251 . S
C104 H74 0.929 . S
C104 N100 1.418 . S
C104 C103 1.251 . S
C105 H72 0.930 . S
C105 C107 1.406 . S
C105 C110 1.261 . S
C106 H73 0.930 . S
C106 N108 1.325 . S
C106 C109 1.357 . S
C107 H75 0.928 . S
C107 C105 1.406 . S
C107 N108 1.261 . S
N108 Co59 2.214 . S
N108 C106 1.325 . S
N108 C107 1.261 . S
C109 H79 0.931 . S
C109 C106 1.357 . S
C109 C110 1.312 . S
C110 H81 0.930 . S
C110 C105 1.261 . S
C110 C109 1.312 . S
C111 O83 1.214 . S
C111 O91 1.234 . S
C112 H84 0.929 . S
C112 C115 1.391 . S
C112 C117 1.391 . S
C113 H85 0.929 . S
C113 C114 1.390 . S
C113 N116 1.391 . S
C114 H86 0.930 . S
C114 C113 1.390 . S
C114 C115 1.392 . S
C115 H87 0.929 . S
C115 C112 1.391 . S
C115 C114 1.392 . S
N116 Co60 2.257 . S
N116 C113 1.391 . S
N116 C117 1.388 . S
C117 H88 0.930 . S
C117 C112 1.391 . S
C117 N116 1.388 . S
Co118 O120 2.143 . S
Co118 O126 2.074 . S
Co118 O129 2.093 . S
Co118 O142 2.097 . S
Co118 N159 2.151 . S
Co118 N167 2.214 . S
Co119 O120 2.160 . S
Co119 O125 2.058 . S
Co119 O135 2.057 . S
Co119 O150 2.037 . S
Co119 N154 2.145 . S
Co119 N175 2.257 . S
O120 Co118 2.143 . S
O120 Co119 2.160 . S
C121 O122 1.278 . S
C121 O129 1.224 . S
O122 C121 1.278 . S
C123 O124 1.245 . S
C123 O135 1.232 . S
O124 C123 1.245 . S
O125 Co119 2.058 . S
O125 C151 1.269 . S
O126 Co118 2.074 . S
O126 C151 1.257 . S
H127 C152 0.930 . S
H128 C158 0.930 . S
O129 Co118 2.093 . S
O129 C121 1.224 . S
H130 C162 0.929 1_554 S
H131 C164 0.930 . S
H132 C165 0.930 . S
H133 C163 0.929 . S
H134 C166 0.928 . S
O135 Co119 2.057 . S
O135 C123 1.232 . S
H136 C155 0.929 . S
H137 C156 0.929 . S
H138 C168 0.931 . S
H139 C160 0.929 . S
H140 C169 0.930 . S
H141 C161 0.931 1_554 S
O142 Co118 2.097 . S
O142 C170 1.214 . S
H143 C171 0.929 . S
H144 C172 0.929 . S
H145 C173 0.930 . S
H146 C174 0.929 . S
H147 C176 0.930 . S
H148 C153 0.930 . S
H149 C157 0.930 . S
O150 Co119 2.037 . S
O150 C170 1.234 . S
C151 O125 1.269 . S
C151 O126 1.257 . S
C152 H127 0.930 . S
C152 C155 1.388 . S
C152 C157 1.418 . S
C153 H148 0.930 . S
C153 C156 1.404 . S
C153 C157 1.353 . S
N154 Co119 2.145 . S
N154 C155 1.397 . S
N154 C156 1.334 . S
C155 H136 0.929 . S
C155 C152 1.388 . S
C155 N154 1.397 . S
C156 H137 0.929 . S
C156 C153 1.404 . S
C156 N154 1.334 . S
C157 H149 0.930 . S
C157 C152 1.418 . S
C157 C153 1.353 . S
C158 H128 0.930 . S
C158 N159 1.330 . S
C158 C160 1.446 . S
N159 Co118 2.151 . S
N159 C158 1.330 . S
N159 C163 1.418 . S
C160 H139 0.929 . S
C160 C158 1.446 . S
C160 C161 1.332 . S
C161 H141 0.931 1_556 S
C161 C160 1.332 . S
C161 C162 1.267 . S
C162 H130 0.929 1_556 S
C162 C161 1.267 . S
C162 C163 1.251 . S
C163 H133 0.929 . S
C163 N159 1.418 . S
C163 C162 1.251 . S
C164 H131 0.930 . S
C164 C166 1.406 . S
C164 C169 1.261 . S
C165 H132 0.930 . S
C165 N167 1.325 . S
C165 C168 1.357 . S
C166 H134 0.928 . S
C166 C164 1.406 . S
C166 N167 1.261 1_554 S
N167 Co118 2.214 . S
N167 C165 1.325 . S
N167 C166 1.261 1_556 S
C168 H138 0.931 . S
C168 C165 1.357 . S
C168 C169 1.312 1_556 S
C169 H140 0.930 . S
C169 C164 1.261 . S
C169 C168 1.312 1_554 S
C170 O142 1.214 . S
C170 O150 1.234 . S
C171 H143 0.929 . S
C171 C174 1.391 . S
C171 C176 1.391 . S
C172 H144 0.929 . S
C172 C173 1.390 . S
C172 N175 1.391 . S
C173 H145 0.930 . S
C173 C172 1.390 . S
C173 C174 1.392 . S
C174 H146 0.929 . S
C174 C171 1.391 . S
C174 C173 1.392 . S
N175 Co119 2.257 . S
N175 C172 1.391 . S
N175 C176 1.388 . S
C176 H147 0.930 . S
C176 C171 1.391 . S
C176 N175 1.388 . S
Co177 O179 2.143 . S
Co177 O185 2.074 . S
Co177 O188 2.093 . S
Co177 O201 2.097 . S
Co177 N218 2.151 . S
Co177 N226 2.214 . S
Co178 O179 2.160 . S
Co178 O184 2.058 . S
Co178 O194 2.057 . S
Co178 O209 2.037 . S
Co178 N213 2.145 . S
Co178 N234 2.257 . S
O179 Co177 2.143 . S
O179 Co178 2.160 . S
C180 O181 1.278 . S
C180 O188 1.224 . S
O181 C180 1.278 . S
C182 O183 1.245 . S
C182 O194 1.232 . S
O183 C182 1.245 . S
O184 Co178 2.058 . S
O184 C210 1.269 . S
O185 Co177 2.074 . S
O185 C210 1.257 . S
H186 C211 0.930 . S
H187 C217 0.930 . S
O188 Co177 2.093 . S
O188 C180 1.224 . S
H189 C221 0.929 . S
H190 C223 0.930 . S
H191 C224 0.930 . S
H192 C222 0.929 . S
H193 C225 0.928 . S
O194 Co178 2.057 . S
O194 C182 1.232 . S
H195 C214 0.929 . S
H196 C215 0.929 . S
H197 C227 0.931 . S
H198 C219 0.929 . S
H199 C228 0.930 . S
H200 C220 0.931 . S
O201 Co177 2.097 . S
O201 C229 1.214 . S
H202 C230 0.929 . S
H203 C231 0.929 . S
H204 C232 0.930 . S
H205 C233 0.929 . S
H206 C235 0.930 . S
H207 C212 0.930 . S
H208 C216 0.930 . S
O209 Co178 2.037 . S
O209 C229 1.234 . S
C210 O184 1.269 . S
C210 O185 1.257 . S
C211 H186 0.930 . S
C211 C214 1.388 1_554 S
C211 C216 1.418 . S
C212 H207 0.930 . S
C212 C215 1.404 . S
C212 C216 1.353 . S
N213 Co178 2.145 . S
N213 C214 1.397 . S
N213 C215 1.334 1_556 S
C214 H195 0.929 . S
C214 C211 1.388 1_556 S
C214 N213 1.397 . S
C215 H196 0.929 . S
C215 C212 1.404 . S
C215 N213 1.334 1_554 S
C216 H208 0.930 . S
C216 C211 1.418 . S
C216 C212 1.353 . S
C217 H187 0.930 . S
C217 N218 1.330 . S
C217 C219 1.446 . S
N218 Co177 2.151 . S
N218 C217 1.330 . S
N218 C222 1.418 . S
C219 H198 0.929 . S
C219 C217 1.446 . S
C219 C220 1.332 . S
C220 H200 0.931 . S
C220 C219 1.332 . S
C220 C221 1.267 . S
C221 H189 0.929 . S
C221 C220 1.267 . S
C221 C222 1.251 . S
C222 H192 0.929 . S
C222 N218 1.418 . S
C222 C221 1.251 . S
C223 H190 0.930 . S
C223 C225 1.406 . S
C223 C228 1.261 . S
C224 H191 0.930 . S
C224 N226 1.325 . S
C224 C227 1.357 . S
C225 H193 0.928 . S
C225 C223 1.406 . S
C225 N226 1.261 . S
N226 Co177 2.214 . S
N226 C224 1.325 . S
N226 C225 1.261 . S
C227 H197 0.931 . S
C227 C224 1.357 . S
C227 C228 1.312 . S
C228 H199 0.930 . S
C228 C223 1.261 . S
C228 C227 1.312 . S
C229 O201 1.214 . S
C229 O209 1.234 . S
C230 H202 0.929 . S
C230 C233 1.391 . S
C230 C235 1.391 . S
C231 H203 0.929 . S
C231 C232 1.390 . S
C231 N234 1.391 . S
C232 H204 0.930 . S
C232 C231 1.390 . S
C232 C233 1.392 . S
C233 H205 0.929 . S
C233 C230 1.391 . S
C233 C232 1.392 . S
N234 Co178 2.257 . S
N234 C231 1.391 . S
N234 C235 1.388 . S
C235 H206 0.930 . S
C235 C230 1.391 . S
C235 N234 1.388 . S
H236 C237 0.951 . S
C237 H236 0.951 . S
C237 C243 1.265 . S
H238 C243 0.950 . S
H239 C247 0.949 . S
H240 C248 0.950 . S
H241 C249 0.951 . S
H242 C250 0.951 . S
C243 C237 1.265 . S
C243 H238 0.950 . S
C243 C244 1.478 . S
C244 C243 1.478 . S
C244 C245 1.397 . S
C244 C261 1.394 . S
C245 C244 1.397 . S
C245 C246 1.438 1_565 S
C245 C250 1.429 . S
C246 C245 1.438 1_545 S
C246 C247 1.428 . S
C246 C259 1.394 . S
C247 H239 0.949 . S
C247 C246 1.428 . S
C247 C248 1.345 . S
C248 H240 0.950 . S
C248 C247 1.345 . S
C248 C249 1.424 . S
C249 H241 0.951 . S
C249 C248 1.424 . S
C249 C250 1.347 1_545 S
C250 H242 0.951 . S
C250 C245 1.429 . S
C250 C249 1.347 1_565 S
H251 C252 0.951 . S
C252 H251 0.951 . S
C252 C258 1.265 . S
H253 C258 0.950 . S
H254 C262 0.949 . S
H255 C263 0.950 . S
H256 C264 0.951 . S
H257 C265 0.951 . S
C258 C252 1.265 . S
C258 H253 0.950 . S
C258 C259 1.478 . S
C259 C246 1.394 . S
C259 C258 1.478 . S
C259 C260 1.397 . S
C260 C259 1.397 . S
C260 C261 1.438 1_545 S
C260 C265 1.429 . S
C261 C244 1.394 . S
C261 C260 1.438 1_565 S
C261 C262 1.428 . S
C262 H254 0.949 . S
C262 C261 1.428 . S
C262 C263 1.345 . S
C263 H255 0.950 . S
C263 C262 1.345 . S
C263 C264 1.424 . S
C264 H256 0.951 . S
C264 C263 1.424 . S
C264 C265 1.347 1_565 S
C265 H257 0.951 . S
C265 C260 1.429 . S
C265 C264 1.347 1_545 S
H266 C267 0.951 . S
C267 H266 0.951 . S
C267 C273 1.265 . S
H268 C273 0.950 . S
H269 C277 0.949 . S
H270 C278 0.950 . S
H271 C279 0.951 . S
H272 C280 0.951 . S
C273 C267 1.265 . S
C273 H268 0.950 . S
C273 C274 1.478 . S
C274 C273 1.478 . S
C274 C275 1.397 . S
C274 C291 1.394 . S
C275 C274 1.397 . S
C275 C276 1.438 . S
C275 C280 1.429 . S
C276 C275 1.438 . S
C276 C277 1.428 . S
C276 C289 1.394 . S
C277 H269 0.949 . S
C277 C276 1.428 . S
C277 C278 1.345 . S
C278 H270 0.950 . S
C278 C277 1.345 . S
C278 C279 1.424 . S
C279 H271 0.951 . S
C279 C278 1.424 . S
C279 C280 1.347 . S
C280 H272 0.951 . S
C280 C275 1.429 . S
C280 C279 1.347 . S
H281 C282 0.951 . S
C282 H281 0.951 . S
C282 C288 1.265 . S
H283 C288 0.950 . S
H284 C292 0.949 . S
H285 C293 0.950 . S
H286 C294 0.951 . S
H287 C295 0.951 . S
C288 C282 1.265 . S
C288 H283 0.950 . S
C288 C289 1.478 . S
C289 C276 1.394 . S
C289 C288 1.478 . S
C289 C290 1.397 . S
C290 C289 1.397 . S
C290 C291 1.438 . S
C290 C295 1.429 . S
C291 C274 1.394 . S
C291 C290 1.438 . S
C291 C292 1.428 . S
C292 H284 0.949 . S
C292 C291 1.428 . S
C292 C293 1.345 . S
C293 H285 0.950 . S
C293 C292 1.345 . S
C293 C294 1.424 . S
C294 H286 0.951 . S
C294 C293 1.424 . S
C294 C295 1.347 . S
C295 H287 0.951 . S
C295 C290 1.429 . S
C295 C294 1.347 . S
H296 C297 0.951 . S
C297 H296 0.951 . S
C297 C303 1.265 . S
H298 C303 0.950 . S
H299 C307 0.949 . S
H300 C308 0.950 . S
H301 C309 0.951 . S
H302 C310 0.951 1_545 S
C303 C297 1.265 . S
C303 H298 0.950 . S
C303 C304 1.478 . S
C304 C303 1.478 . S
C304 C305 1.397 1_545 S
C304 C321 1.394 . S
C305 C304 1.397 1_565 S
C305 C306 1.438 . S
C305 C310 1.429 . S
C306 C305 1.438 . S
C306 C307 1.428 . S
C306 C319 1.394 . S
C307 H299 0.949 . S
C307 C306 1.428 . S
C307 C308 1.345 . S
C308 H300 0.950 . S
C308 C307 1.345 . S
C308 C309 1.424 . S
C309 H301 0.951 . S
C309 C308 1.424 . S
C309 C310 1.347 . S
C310 H302 0.951 1_565 S
C310 C305 1.429 . S
C310 C309 1.347 . S
H311 C312 0.951 . S
C312 H311 0.951 . S
C312 C318 1.265 . S
H313 C318 0.950 . S
H314 C322 0.949 . S
H315 C323 0.950 . S
H316 C324 0.951 . S
H317 C325 0.951 1_565 S
C318 C312 1.265 . S
C318 H313 0.950 . S
C318 C319 1.478 . S
C319 C306 1.394 . S
C319 C318 1.478 . S
C319 C320 1.397 1_565 S
C320 C319 1.397 1_545 S
C320 C321 1.438 . S
C320 C325 1.429 . S
C321 C304 1.394 . S
C321 C320 1.438 . S
C321 C322 1.428 . S
C322 H314 0.949 . S
C322 C321 1.428 . S
C322 C323 1.345 . S
C323 H315 0.950 . S
C323 C322 1.345 . S
C323 C324 1.424 . S
C324 H316 0.951 . S
C324 C323 1.424 . S
C324 C325 1.347 . S
C325 H317 0.951 1_545 S
C325 C320 1.429 . S
C325 C324 1.347 . S
H326 C327 0.951 . S
C327 H326 0.951 . S
C327 C333 1.265 . S
H328 C333 0.950 . S
H329 C337 0.949 . S
H330 C338 0.950 . S
H331 C339 0.951 . S
H332 C340 0.951 . S
C333 C327 1.265 . S
C333 H328 0.950 . S
C333 C334 1.478 . S
C334 C333 1.478 . S
C334 C335 1.397 . S
C334 C351 1.394 . S
C335 C334 1.397 . S
C335 C336 1.438 . S
C335 C340 1.429 . S
C336 C335 1.438 . S
C336 C337 1.428 . S
C336 C349 1.394 . S
C337 H329 0.949 . S
C337 C336 1.428 . S
C337 C338 1.345 . S
C338 H330 0.950 . S
C338 C337 1.345 . S
C338 C339 1.424 . S
C339 H331 0.951 . S
C339 C338 1.424 . S
C339 C340 1.347 . S
C340 H332 0.951 . S
C340 C335 1.429 . S
C340 C339 1.347 . S
H341 C342 0.951 . S
C342 H341 0.951 . S
C342 C348 1.265 . S
H343 C348 0.950 . S
H344 C352 0.949 . S
H345 C353 0.950 . S
H346 C354 0.951 . S
H347 C355 0.951 . S
C348 C342 1.265 . S
C348 H343 0.950 . S
C348 C349 1.478 . S
C349 C336 1.394 . S
C349 C348 1.478 . S
C349 C350 1.397 . S
C350 C349 1.397 . S
C350 C351 1.438 . S
C350 C355 1.429 . S
C351 C334 1.394 . S
C351 C350 1.438 . S
C351 C352 1.428 . S
C352 H344 0.949 . S
C352 C351 1.428 . S
C352 C353 1.345 . S
C353 H345 0.950 . S
C353 C352 1.345 . S
C353 C354 1.424 . S
C354 H346 0.951 . S
C354 C353 1.424 . S
C354 C355 1.347 . S
C355 H347 0.951 . S
C355 C350 1.429 . S
C355 C354 1.347 . S
H356 C357 0.951 . S
C357 H356 0.951 . S
C357 C363 1.265 . S
H358 C363 0.950 . S
H359 C367 0.949 . S
H360 C368 0.950 . S
H361 C369 0.951 . S
H362 C370 0.951 . S
C363 C357 1.265 . S
C363 H358 0.950 . S
C363 C364 1.478 . S
C364 C363 1.478 . S
C364 C365 1.397 1_545 S
C364 C381 1.394 1_554 S
C365 C364 1.397 1_565 S
C365 C366 1.438 1_455 S
C365 C370 1.429 . S
C366 C365 1.438 1_655 S
C366 C367 1.428 . S
C366 C379 1.394 1_554 S
C367 H359 0.949 . S
C367 C366 1.428 . S
C367 C368 1.345 1_655 S
C368 H360 0.950 . S
C368 C367 1.345 1_455 S
C368 C369 1.424 . S
C369 H361 0.951 . S
C369 C368 1.424 . S
C369 C370 1.347 . S
C370 H362 0.951 . S
C370 C365 1.429 . S
C370 C369 1.347 . S
H371 C372 0.951 . S
C372 H371 0.951 . S
C372 C378 1.265 . S
H373 C378 0.950 . S
H374 C382 0.949 . S
H375 C383 0.950 . S
H376 C384 0.951 . S
H377 C385 0.951 . S
C378 C372 1.265 . S
C378 H373 0.950 . S
C378 C379 1.478 . S
C379 C366 1.394 1_556 S
C379 C378 1.478 . S
C379 C380 1.397 1_565 S
C380 C379 1.397 1_545 S
C380 C381 1.438 1_655 S
C380 C385 1.429 . S
C381 C364 1.394 1_556 S
C381 C380 1.438 1_455 S
C381 C382 1.428 . S
C382 H374 0.949 . S
C382 C381 1.428 . S
C382 C383 1.345 1_455 S
C383 H375 0.950 . S
C383 C382 1.345 1_655 S
C383 C384 1.424 . S
C384 H376 0.951 . S
C384 C383 1.424 . S
C384 C385 1.347 . S
C385 H377 0.951 . S
C385 C380 1.429 . S
C385 C384 1.347 . S
H386 C387 0.951 . S
C387 H386 0.951 . S
C387 C393 1.265 . S
H388 C393 0.950 . S
H389 C397 0.949 1_564 S
H390 C398 0.950 . S
H391 C399 0.951 . S
H392 C400 0.951 . S
C393 C387 1.265 . S
C393 H388 0.950 . S
C393 C394 1.478 . S
C394 C393 1.478 . S
C394 C395 1.397 . S
C394 C411 1.393 1_546 S
C395 C394 1.397 . S
C395 C396 1.439 . S
C395 C400 1.429 . S
C396 C395 1.439 . S
C396 C397 1.428 . S
C396 C409 1.393 1_546 S
C397 H389 0.949 1_546 S
C397 C396 1.428 . S
C397 C398 1.345 . S
C398 H390 0.950 . S
C398 C397 1.345 . S
C398 C399 1.424 . S
C399 H391 0.951 . S
C399 C398 1.424 . S
C399 C400 1.347 . S
C400 H392 0.951 . S
C400 C395 1.429 . S
C400 C399 1.347 . S
H401 C402 0.951 . S
C402 H401 0.951 . S
C402 C408 1.265 . S
H403 C408 0.950 . S
H404 C412 0.949 1_546 S
H405 C413 0.950 . S
H406 C414 0.951 . S
H407 C415 0.951 . S
C408 C402 1.265 . S
C408 H403 0.950 . S
C408 C409 1.478 . S
C409 C396 1.393 1_564 S
C409 C408 1.478 . S
C409 C410 1.397 . S
C410 C409 1.397 . S
C410 C411 1.439 . S
C410 C415 1.429 . S
C411 C394 1.393 1_564 S
C411 C410 1.439 . S
C411 C412 1.428 . S
C412 H404 0.949 1_564 S
C412 C411 1.428 . S
C412 C413 1.345 . S
C413 H405 0.950 . S
C413 C412 1.345 . S
C413 C414 1.424 . S
C414 H406 0.951 . S
C414 C413 1.424 . S
C414 C415 1.347 . S
C415 H407 0.951 . S
C415 C410 1.429 . S
C415 C414 1.347 . S
H416 C417 0.951 . S
C417 H416 0.951 . S
C417 C423 1.265 . S
H418 C423 0.950 . S
H419 C427 0.949 . S
H420 C428 0.950 . S
H421 C429 0.951 . S
H422 C430 0.951 . S
C423 C417 1.265 . S
C423 H418 0.950 . S
C423 C424 1.478 . S
C424 C423 1.478 . S
C424 C425 1.397 . S
C424 C441 1.394 . S
C425 C424 1.397 . S
C425 C426 1.438 1_655 S
C425 C430 1.429 . S
C426 C425 1.438 1_455 S
C426 C427 1.428 . S
C426 C439 1.394 . S
C427 H419 0.949 . S
C427 C426 1.428 . S
C427 C428 1.345 1_455 S
C428 H420 0.950 . S
C428 C427 1.345 1_655 S
C428 C429 1.424 . S
C429 H421 0.951 . S
C429 C428 1.424 . S
C429 C430 1.347 . S
C430 H422 0.951 . S
C430 C425 1.429 . S
C430 C429 1.347 . S
H431 C432 0.951 . S
C432 H431 0.951 . S
C432 C438 1.265 . S
H433 C438 0.950 . S
H434 C442 0.949 . S
H435 C443 0.950 . S
H436 C444 0.951 . S
H437 C445 0.951 . S
C438 C432 1.265 . S
C438 H433 0.950 . S
C438 C439 1.478 . S
C439 C426 1.394 . S
C439 C438 1.478 . S
C439 C440 1.397 . S
C440 C439 1.397 . S
C440 C441 1.438 1_455 S
C440 C445 1.429 . S
C441 C424 1.394 . S
C441 C440 1.438 1_655 S
C441 C442 1.428 . S
C442 H434 0.949 . S
C442 C441 1.428 . S
C442 C443 1.345 1_655 S
C443 H435 0.950 . S
C443 C442 1.345 1_455 S
C443 C444 1.424 . S
C444 H436 0.951 . S
C444 C443 1.424 . S
C444 C445 1.347 . S
C445 H437 0.951 . S
C445 C440 1.429 . S
C445 C444 1.347 . S
H446 C447 0.951 . S
C447 H446 0.951 . S
C447 C453 1.265 . S
H448 C453 0.950 . S
H449 C457 0.949 . S
H450 C458 0.950 . S
H451 C459 0.951 . S
H452 C460 0.951 . S
C453 C447 1.265 . S
C453 H448 0.950 . S
C453 C454 1.478 . S
C454 C453 1.478 . S
C454 C455 1.397 . S
C454 C471 1.394 . S
C455 C454 1.397 . S
C455 C456 1.438 . S
C455 C460 1.429 . S
C456 C455 1.438 . S
C456 C457 1.428 . S
C456 C469 1.394 . S
C457 H449 0.949 . S
C457 C456 1.428 . S
C457 C458 1.345 . S
C458 H450 0.950 . S
C458 C457 1.345 . S
C458 C459 1.424 . S
C459 H451 0.951 . S
C459 C458 1.424 . S
C459 C460 1.347 . S
C460 H452 0.951 . S
C460 C455 1.429 . S
C460 C459 1.347 . S
H461 C462 0.951 . S
C462 H461 0.951 . S
C462 C468 1.265 . S
H463 C468 0.950 . S
H464 C472 0.949 . S
H465 C473 0.950 . S
H466 C474 0.951 . S
H467 C475 0.951 . S
C468 C462 1.265 . S
C468 H463 0.950 . S
C468 C469 1.478 . S
C469 C456 1.394 . S
C469 C468 1.478 . S
C469 C470 1.397 . S
C470 C469 1.397 . S
C470 C471 1.438 . S
C470 C475 1.429 . S
C471 C454 1.394 . S
C471 C470 1.438 . S
C471 C472 1.428 . S
C472 H464 0.949 . S
C472 C471 1.428 . S
C472 C473 1.345 . S
C473 H465 0.950 . S
C473 C472 1.345 . S
C473 C474 1.424 . S
C474 H466 0.951 . S
C474 C473 1.424 . S
C474 C475 1.347 . S
C475 H467 0.951 . S
C475 C470 1.429 . S
C475 C474 1.347 . S
C237 C92 1.303 . S
C252 C52 1.311 . S
C267 C33 1.313 . S
C282 C111 1.307 . S
C297 C210 1.283 . S
C312 C170 1.299 . S
C327 C151 1.311 . S
C342 C229 1.307 . S
C357 C3 1.494 . S
C372 C121 1.494 . S
C387 C182 1.468 . S
C402 C64 1.468 . S
C417 C123 1.494 . S
C432 C5 1.494 . S
C447 C62 1.492 . S
C462 C180 1.492 . S
