# Generated by pormake.
# Topology acs-h, (5)-cn, num edge types: 1
# Building blocks:
#     Node 0, Type 0, BuildingBlock: XOMCOT_clean_sbu_0, # of connection points: 5
#     Node 1, Type 0, BuildingBlock: XOMCOT_clean_sbu_0, # of connection points: 5
#     Node 2, Type 0, BuildingBlock: XOMCOT_clean_sbu_0, # of connection points: 5
#     Node 3, Type 0, BuildingBlock: XOMCOT_clean_sbu_0, # of connection points: 5
#     Node 4, Type 0, BuildingBlock: XOMCOT_clean_sbu_0, # of connection points: 5
#     Node 5, Type 0, BuildingBlock: XOMCOT_clean_sbu_0, # of connection points: 5
#     Node 6, Type 0, BuildingBlock: XOMCOT_clean_sbu_0, # of connection points: 5
#     Node 7, Type 0, BuildingBlock: XOMCOT_clean_sbu_0, # of connection points: 5
#     Node 8, Type 0, BuildingBlock: XOMCOT_clean_sbu_0, # of connection points: 5
#     Node 9, Type 0, BuildingBlock: XOMCOT_clean_sbu_0, # of connection points: 5
#     Node 10, Type 0, BuildingBlock: XOMCOT_clean_sbu_0, # of connection points: 5
#     Node 11, Type 0, BuildingBlock: XOMCOT_clean_sbu_0, # of connection points: 5
#     Edge 12, Type (0, 0), BuildingBlock: XIVTED_clean_linker_0, # of connection points: 2
#     Edge 13, Type (0, 0), BuildingBlock: XIVTED_clean_linker_0, # of connection points: 2
#     Edge 14, Type (0, 0), BuildingBlock: XIVTED_clean_linker_0, # of connection points: 2
#     Edge 15, Type (0, 0), BuildingBlock: XIVTED_clean_linker_0, # of connection points: 2
#     Edge 16, Type (0, 0), BuildingBlock: XIVTED_clean_linker_0, # of connection points: 2
#     Edge 17, Type (0, 0), BuildingBlock: XIVTED_clean_linker_0, # of connection points: 2
#     Edge 18, Type (0, 0), BuildingBlock: XIVTED_clean_linker_0, # of connection points: 2
#     Edge 19, Type (0, 0), BuildingBlock: XIVTED_clean_linker_0, # of connection points: 2
#     Edge 20, Type (0, 0), BuildingBlock: XIVTED_clean_linker_0, # of connection points: 2
#     Edge 21, Type (0, 0), BuildingBlock: XIVTED_clean_linker_0, # of connection points: 2
#     Edge 22, Type (0, 0), BuildingBlock: XIVTED_clean_linker_0, # of connection points: 2
#     Edge 23, Type (0, 0), BuildingBlock: XIVTED_clean_linker_0, # of connection points: 2
#     Edge 24, Type (0, 0), BuildingBlock: XIVTED_clean_linker_0, # of connection points: 2
#     Edge 25, Type (0, 0), BuildingBlock: XIVTED_clean_linker_0, # of connection points: 2
#     Edge 26, Type (0, 0), BuildingBlock: XIVTED_clean_linker_0, # of connection points: 2
#     Edge 27, Type (0, 0), BuildingBlock: XIVTED_clean_linker_0, # of connection points: 2
#     Edge 28, Type (0, 0), BuildingBlock: XIVTED_clean_linker_0, # of connection points: 2
#     Edge 29, Type (0, 0), BuildingBlock: XIVTED_clean_linker_0, # of connection points: 2
#     Edge 30, Type (0, 0), BuildingBlock: XIVTED_clean_linker_0, # of connection points: 2
#     Edge 31, Type (0, 0), BuildingBlock: XIVTED_clean_linker_0, # of connection points: 2
#     Edge 32, Type (0, 0), BuildingBlock: XIVTED_clean_linker_0, # of connection points: 2
#     Edge 33, Type (0, 0), BuildingBlock: XIVTED_clean_linker_0, # of connection points: 2
#     Edge 34, Type (0, 0), BuildingBlock: XIVTED_clean_linker_0, # of connection points: 2
#     Edge 35, Type (0, 0), BuildingBlock: XIVTED_clean_linker_0, # of connection points: 2
#     Edge 36, Type (0, 0), BuildingBlock: XIVTED_clean_linker_0, # of connection points: 2
#     Edge 37, Type (0, 0), BuildingBlock: XIVTED_clean_linker_0, # of connection points: 2
#     Edge 38, Type (0, 0), BuildingBlock: XIVTED_clean_linker_0, # of connection points: 2
#     Edge 39, Type (0, 0), BuildingBlock: XIVTED_clean_linker_0, # of connection points: 2
#     Edge 40, Type (0, 0), BuildingBlock: XIVTED_clean_linker_0, # of connection points: 2
#     Edge 41, Type (0, 0), BuildingBlock: XIVTED_clean_linker_0, # of connection points: 2
# Relax obj value: 0.874
# Max RMSD: 0.273
# Mean RMSD: 0.273
data_MOF--net-acs-h--node1-XOMCOT_clean_sbu_0--edge1-XIVTED_clean_linker_0
_symmetry_space_group_name_H-M    P1
_symmetry_Int_Tables_number       1
_symmetry_cell_setting            triclinic
loop_
_symmetry_equiv_pos_as_xyz
'x, y, z'
_cell_length_a     48.00256
_cell_length_b     48.005501
_cell_length_c     40.30717
_cell_angle_alpha  89.912826
_cell_angle_beta   90.059836
_cell_angle_gamma 120.01984
loop_
_atom_site_label
_atom_site_type_symbol
_atom_site_fract_x
_atom_site_fract_y
_atom_site_fract_z
_atom_type_partial_charge
Co0 Co 0.4777 0.14581 0.13805 0.0
C1 C 0.54501 0.1637 0.11543 0.0
C2 C 0.54232 0.18026 0.16412 0.0
C3 C 0.57323 0.18702 0.15891 0.0
N4 N 0.5243 0.16531 0.13715 0.0
N5 N 0.57478 0.17651 0.12847 0.0
H6 H 0.53866 0.15176 0.09176 0.0
H7 H 0.53312 0.18416 0.18705 0.0
C8 C 0.49452 0.10495 0.17897 0.0
O9 O 0.50999 0.10309 0.15298 0.0
N10 N 0.43189 0.12723 0.14074 0.0
C11 C 0.41172 0.12439 0.11603 0.0
C12 C 0.38423 0.12173 0.12993 0.0
C13 C 0.41632 0.12544 0.16899 0.0
N14 N 0.38734 0.12253 0.16325 0.0
C15 C 0.48065 0.12413 0.07318 0.0
C16 C 0.45634 0.06016 0.08935 0.0
C17 C 0.47087 0.07138 0.05825 0.0
C18 C 0.48088 0.10328 0.04947 0.0
C19 C 0.45583 0.08185 0.11203 0.0
N20 N 0.47132 0.11395 0.10492 0.0
H21 H 0.49042 0.14911 0.06662 0.0
H22 H 0.44479 0.07312 0.13599 0.0
H23 H 0.4181 0.12798 0.09002 0.0
H24 H 0.42807 0.13131 0.193 0.0
O25 O 0.48027 0.17886 0.10881 0.0
O26 O 0.48334 0.1825 0.16358 0.0
O27 O 0.47721 0.11828 0.17636 0.0
C28 C 0.48442 0.19598 0.13522 0.0
H29 H 0.59288 0.1978 0.17652 0.0
H30 H 0.36525 0.12299 0.11667 0.0
H31 H 0.44715 0.03545 0.09695 0.0
H32 H 0.49042 0.11257 0.02505 0.0
Co33 Co 0.84563 0.32209 0.09788 0.0
C34 C 0.82256 0.36784 0.08763 0.0
C35 C 0.81527 0.34034 0.04355 0.0
C36 C 0.80352 0.36096 0.0383 0.0
N37 N 0.82809 0.34534 0.07432 0.0
N38 N 0.80818 0.37827 0.06615 0.0
H39 H 0.82764 0.37544 0.11305 0.0
H40 H 0.8131 0.32204 0.02648 0.0
C41 C 0.88288 0.36662 0.15702 0.0
O42 O 0.8955 0.34924 0.16677 0.0
N43 N 0.86158 0.29813 0.12186 0.0
C44 C 0.87748 0.28349 0.1106 0.0
C45 C 0.87817 0.26396 0.13562 0.0
C46 C 0.85217 0.28679 0.15276 0.0
N47 N 0.86257 0.26668 0.16208 0.0
C48 C 0.88133 0.34193 0.03726 0.0
C49 C 0.93617 0.39004 0.06691 0.0
C50 C 0.93006 0.39352 0.03357 0.0
C51 C 0.90382 0.36746 0.01795 0.0
C52 C 0.91311 0.36401 0.08499 0.0
N53 N 0.8843 0.34304 0.07092 0.0
H54 H 0.86004 0.32305 0.02558 0.0
H55 H 0.91748 0.3625 0.1108 0.0
H56 H 0.88672 0.28579 0.08567 0.0
H57 H 0.8373 0.29269 0.16805 0.0
O58 O 0.81958 0.28437 0.07097 0.0
O59 O 0.80457 0.29644 0.11854 0.0
O60 O 0.86475 0.35885 0.13135 0.0
C61 C 0.79756 0.27697 0.09354 0.0
H62 H 0.79121 0.36201 0.01625 0.0
H63 H 0.88883 0.24875 0.13436 0.0
H64 H 0.95675 0.40865 0.08002 0.0
H65 H 0.89925 0.36802 0.99171 0.0
Co66 Co 0.67183 0.52565 0.11814 0.0
C67 C 0.62398 0.4557 0.11626 0.0
C68 C 0.642 0.47354 0.06768 0.0
C69 C 0.62064 0.44115 0.06544 0.0
N70 N 0.64318 0.48316 0.09939 0.0
N71 N 0.60908 0.42997 0.09597 0.0
H72 H 0.62131 0.45447 0.14293 0.0
H73 H 0.65709 0.48812 0.04765 0.0
C74 C 0.60987 0.50267 0.15408 0.0
O75 O 0.59602 0.49659 0.12476 0.0
N76 N 0.70093 0.56728 0.13645 0.0
C77 C 0.71775 0.59476 0.11906 0.0
C78 C 0.74006 0.61798 0.13976 0.0
C79 C 0.71302 0.574 0.1674 0.0
N80 N 0.73704 0.60484 0.17007 0.0
C81 C 0.65081 0.54306 0.05863 0.0
C82 C 0.61564 0.5656 0.09151 0.0
C83 C 0.60782 0.55521 0.05858 0.0
C84 C 0.62794 0.54695 0.04116 0.0
C85 C 0.63865 0.56107 0.10788 0.0
N86 N 0.65217 0.54547 0.09229 0.0
H87 H 0.66586 0.53617 0.04543 0.0
H88 H 0.64282 0.56669 0.13401 0.0
H89 H 0.71524 0.5972 0.09271 0.0
H90 H 0.7062 0.55606 0.18673 0.0
O91 O 0.70503 0.53037 0.08761 0.0
O92 O 0.69633 0.50832 0.13777 0.0
O93 O 0.64057 0.51593 0.15619 0.0
C94 C 0.71248 0.51567 0.11015 0.0
H95 H 0.61529 0.42669 0.04324 0.0
H96 H 0.75818 0.64212 0.13269 0.0
H97 H 0.60192 0.57398 0.10537 0.0
H98 H 0.62403 0.54033 0.0152 0.0
Co99 Co 0.84058 0.51616 0.36678 0.0
C100 C 0.81401 0.4505 0.39364 0.0
C101 C 0.79418 0.45048 0.34577 0.0
C102 C 0.77986 0.41926 0.3572 0.0
N103 N 0.81555 0.46991 0.36863 0.0
N104 N 0.79256 0.41955 0.3871 0.0
H105 H 0.82804 0.45875 0.41621 0.0
H106 H 0.78926 0.45851 0.32255 0.0
C107 C 0.88532 0.52762 0.3101 0.0
O108 O 0.90913 0.54961 0.32787 0.0
N109 N 0.8647 0.56272 0.3644 0.0
C110 C 0.87122 0.58394 0.3893 0.0
C111 C 0.8758 0.61245 0.37615 0.0
C112 C 0.86552 0.57882 0.33668 0.0
N113 N 0.8721 0.60905 0.34304 0.0
C114 C 0.8846 0.52642 0.42024 0.0
C115 C 0.91028 0.4917 0.39209 0.0
C116 C 0.92058 0.505 0.42358 0.0
C117 C 0.90731 0.52226 0.43794 0.0
C118 C 0.88718 0.49586 0.37565 0.0
N119 N 0.87553 0.51418 0.38903 0.0
H120 H 0.8732 0.53802 0.43239 0.0
H121 H 0.87757 0.48291 0.35277 0.0
H122 H 0.86813 0.57817 0.41536 0.0
H123 H 0.85622 0.56702 0.31308 0.0
O124 O 0.81698 0.51789 0.40483 0.0
O125 O 0.80298 0.51718 0.3522 0.0
O126 O 0.85678 0.51284 0.32177 0.0
C127 C 0.7962 0.51709 0.38344 0.0
H128 H 0.762 0.39793 0.34439 0.0
H129 H 0.87751 0.6325 0.39013 0.0
H130 H 0.919 0.477 0.38086 0.0
H131 H 0.9141 0.53207 0.46273 0.0
Co132 Co 0.47615 0.32809 0.40137 0.0
C133 C 0.5429 0.38167 0.40936 0.0
C134 C 0.51946 0.36515 0.45639 0.0
C135 C 0.55037 0.38954 0.46189 0.0
N136 N 0.5146 0.3605 0.42343 0.0
N137 N 0.56517 0.3999 0.43232 0.0
H138 H 0.54748 0.38261 0.38302 0.0
H139 H 0.50233 0.35117 0.47542 0.0
C140 C 0.47298 0.35979 0.33646 0.0
O141 O 0.44248 0.33881 0.33153 0.0
N142 N 0.43743 0.2951 0.38041 0.0
C143 C 0.40773 0.27958 0.39394 0.0
C144 C 0.38734 0.25544 0.37284 0.0
C145 C 0.43487 0.27974 0.35163 0.0
N146 N 0.40444 0.25586 0.34623 0.0
C147 C 0.44332 0.3351 0.45712 0.0
C148 C 0.43692 0.38473 0.43099 0.0
C149 C 0.43435 0.37971 0.46528 0.0
C150 C 0.43538 0.35315 0.47812 0.0
C151 C 0.44562 0.3667 0.41115 0.0
N152 N 0.45134 0.34397 0.42474 0.0
H153 H 0.44607 0.31598 0.46775 0.0
H154 H 0.44989 0.3732 0.38554 0.0
H155 H 0.40129 0.28471 0.41788 0.0
H156 H 0.45491 0.28567 0.33518 0.0
O157 O 0.47378 0.29626 0.4329 0.0
O158 O 0.49992 0.30866 0.38503 0.0
O159 O 0.48719 0.35918 0.36306 0.0
C160 C 0.49256 0.29234 0.41248 0.0
H161 H 0.56117 0.39849 0.48594 0.0
H162 H 0.36197 0.2388 0.37674 0.0
H163 H 0.436 0.40485 0.41995 0.0
H164 H 0.43294 0.34819 0.50451 0.0
Co165 Co 0.67604 0.15176 0.42383 0.0
C166 C 0.64099 0.18327 0.45182 0.0
C167 C 0.613 0.13198 0.45441 0.0
C168 C 0.59381 0.14429 0.46343 0.0
N169 N 0.64291 0.15632 0.4474 0.0
N170 N 0.61123 0.17654 0.46126 0.0
H171 H 0.65985 0.2071 0.44508 0.0
H172 H 0.60432 0.10685 0.44983 0.0
C173 C 0.63426 0.15027 0.37118 0.0
O174 O 0.64467 0.18013 0.38019 0.0
N175 N 0.70802 0.14677 0.39989 0.0
C176 C 0.72291 0.13039 0.40887 0.0
C177 C 0.74599 0.13572 0.38537 0.0
C178 C 0.72221 0.16189 0.37147 0.0
N179 N 0.74557 0.15576 0.36218 0.0
C180 C 0.65787 0.10612 0.47618 0.0
C181 C 0.61879 0.05422 0.43622 0.0
C182 C 0.61176 0.05302 0.47017 0.0
C183 C 0.63402 0.0778 0.49073 0.0
C184 C 0.64313 0.08284 0.42279 0.0
N185 N 0.65923 0.10925 0.44252 0.0
H186 H 0.6717 0.12692 0.4917 0.0
H187 H 0.64613 0.08485 0.39617 0.0
H188 H 0.71816 0.11648 0.4314 0.0
H189 H 0.7162 0.17787 0.35833 0.0
O190 O 0.70784 0.17713 0.45755 0.0
O191 O 0.69802 0.19637 0.41166 0.0
O192 O 0.6457 0.13419 0.38499 0.0
C193 C 0.71445 0.20176 0.43877 0.0
H194 H 0.56806 0.13043 0.46739 0.0
H195 H 0.76285 0.12698 0.38614 0.0
H196 H 0.60293 0.03529 0.41941 0.0
H197 H 0.63018 0.07723 0.51726 0.0
Co198 Co 0.50513 0.85038 0.84712 0.0
C199 C 0.44543 0.84228 0.87689 0.0
C200 C 0.44334 0.84171 0.82361 0.0
C201 C 0.41537 0.83902 0.83574 0.0
N202 N 0.46223 0.84399 0.8494 0.0
N203 N 0.41676 0.83941 0.86916 0.0
H204 H 0.45406 0.84324 0.90192 0.0
H205 H 0.44918 0.84163 0.79777 0.0
C206 C 0.51294 0.86139 0.77601 0.0
O207 O 0.51734 0.83652 0.77534 0.0
N208 N 0.54859 0.85758 0.84458 0.0
C209 C 0.57587 0.88639 0.84278 0.0
C210 C 0.60133 0.88155 0.83654 0.0
C211 C 0.55789 0.83569 0.83937 0.0
N212 N 0.58991 0.84963 0.83434 0.0
C213 C 0.53123 0.89109 0.90305 0.0
C214 C 0.5186 0.93816 0.88054 0.0
C215 C 0.52713 0.93828 0.91376 0.0
C216 C 0.53457 0.91511 0.92479 0.0
C217 C 0.51496 0.91342 0.85982 0.0
N218 N 0.52029 0.8898 0.87155 0.0
H219 H 0.5355 0.87235 0.91206 0.0
H220 H 0.50541 0.912 0.83524 0.0
H221 H 0.57706 0.90946 0.84402 0.0
H222 H 0.54139 0.81021 0.83652 0.0
O223 O 0.49533 0.82097 0.88394 0.0
O224 O 0.48708 0.80685 0.83098 0.0
O225 O 0.51148 0.87316 0.8038 0.0
C226 C 0.48432 0.79815 0.86192 0.0
H227 H 0.39505 0.83584 0.82112 0.0
H228 H 0.62599 0.90012 0.83214 0.0
H229 H 0.5122 0.95546 0.8714 0.0
H230 H 0.54132 0.91466 0.95036 0.0
Co231 Co 0.15902 0.68001 0.89935 0.0
C232 C 0.17991 0.63281 0.91198 0.0
C233 C 0.16072 0.64238 0.95578 0.0
C234 C 0.16821 0.61889 0.96308 0.0
N235 N 0.16794 0.65087 0.92374 0.0
N236 N 0.18012 0.61279 0.93545 0.0
H237 H 0.18816 0.63425 0.88676 0.0
H238 H 0.14988 0.65194 0.97239 0.0
C239 C 0.13215 0.64612 0.83424 0.0
O240 O 0.10999 0.65454 0.83543 0.0
N241 N 0.15054 0.70992 0.87528 0.0
C242 C 0.13989 0.72914 0.88744 0.0
C243 C 0.1432 0.75102 0.86336 0.0
C244 C 0.16084 0.72091 0.84434 0.0
N245 N 0.15602 0.74539 0.83633 0.0
C246 C 0.10176 0.66387 0.9368 0.0
C247 C 0.06804 0.60073 0.91557 0.0
C248 C 0.0554 0.61051 0.9412 0.0
C249 C 0.07233 0.64254 0.95181 0.0
C250 C 0.09787 0.62218 0.90248 0.0
N251 N 0.11423 0.65361 0.91236 0.0
H252 H 0.11572 0.68771 0.94699 0.0
H253 H 0.10881 0.61224 0.88679 0.0
H254 H 0.13215 0.72892 0.91257 0.0
H255 H 0.17319 0.71235 0.82855 0.0
O256 O 0.17552 0.70996 0.93641 0.0
O257 O 0.20404 0.70864 0.89354 0.0
O258 O 0.15272 0.65409 0.85764 0.0
C259 C 0.20317 0.72168 0.9214 0.0
H260 H 0.16423 0.6066 0.98662 0.0
H261 H 0.13748 0.77007 0.86574 0.0
H262 H 0.05658 0.57569 0.90814 0.0
H263 H 0.06387 0.65044 0.9727 0.0
Co264 Co 0.3222 0.46898 0.8967 0.0
C265 C 0.35328 0.53971 0.90906 0.0
C266 C 0.38392 0.52099 0.92241 0.0
C267 C 0.40099 0.55377 0.92603 0.0
N268 N 0.35362 0.51182 0.91247 0.0
N269 N 0.3818 0.56552 0.9174 0.0
H270 H 0.33337 0.54153 0.89901 0.0
H271 H 0.39406 0.50543 0.92445 0.0
C272 C 0.35616 0.46408 0.83417 0.0
O273 O 0.33462 0.43421 0.82717 0.0
N274 N 0.29129 0.42661 0.88083 0.0
C275 C 0.2757 0.39968 0.89942 0.0
C276 C 0.24973 0.37676 0.8817 0.0
C277 C 0.27446 0.41984 0.85235 0.0
N278 N 0.24946 0.38954 0.85207 0.0
C279 C 0.34232 0.45656 0.95842 0.0
C280 C 0.38044 0.43442 0.93115 0.0
C281 C 0.38689 0.44704 0.96341 0.0
C282 C 0.36554 0.45532 0.97808 0.0
C283 C 0.35704 0.43624 0.91237 0.0
N284 N 0.34098 0.45043 0.92527 0.0
H285 H 0.32869 0.46686 0.96868 0.0
H286 H 0.354 0.42895 0.88676 0.0
H287 H 0.28123 0.39765 0.92502 0.0
H288 H 0.27897 0.43744 0.83318 0.0
O289 O 0.28979 0.46726 0.92638 0.0
O290 O 0.29855 0.48622 0.87483 0.0
O291 O 0.35403 0.4777 0.86034 0.0
C292 C 0.28226 0.48035 0.90225 0.0
H293 H 0.42636 0.56807 0.93182 0.0
H294 H 0.23147 0.35333 0.89049 0.0
H295 H 0.39553 0.42643 0.91945 0.0
H296 H 0.36931 0.46481 0.00307 0.0
Co297 Co 0.16358 0.47514 0.60928 0.0
C298 C 0.18 0.53465 0.56882 0.0
C299 C 0.22113 0.53772 0.59296 0.0
C300 C 0.23073 0.56584 0.57598 0.0
N301 N 0.18915 0.51774 0.58859 0.0
N302 N 0.20481 0.56394 0.56108 0.0
H303 H 0.15558 0.52679 0.5613 0.0
H304 H 0.23671 0.53321 0.60862 0.0
C305 C 0.14122 0.51498 0.64561 0.0
O306 O 0.13382 0.52228 0.61687 0.0
N307 N 0.13946 0.43356 0.62979 0.0
C308 C 0.12374 0.4049 0.61428 0.0
C309 C 0.11704 0.381 0.63719 0.0
C310 C 0.14178 0.42687 0.66172 0.0
N311 N 0.1284 0.39497 0.66693 0.0
C312 C 0.12752 0.46539 0.54991 0.0
C313 C 0.07138 0.45468 0.58031 0.0
C314 C 0.0743 0.45875 0.54574 0.0
C315 C 0.10212 0.4622 0.53044 0.0
C316 C 0.0972 0.45736 0.59874 0.0
N317 N 0.12577 0.46578 0.58363 0.0
H318 H 0.1495 0.46977 0.53796 0.0
H319 H 0.0949 0.45457 0.62538 0.0
H320 H 0.11986 0.4018 0.58778 0.0
H321 H 0.15607 0.44509 0.6799 0.0
O322 O 0.18254 0.4583 0.57876 0.0
O323 O 0.20229 0.47901 0.62816 0.0
O324 O 0.15202 0.49542 0.64726 0.0
C325 C 0.20542 0.46683 0.60051 0.0
H326 H 0.25443 0.58705 0.57667 0.0
H327 H 0.10688 0.35562 0.63198 0.0
H328 H 0.05017 0.45123 0.59333 0.0
H329 H 0.10485 0.46378 0.50373 0.0
Co330 Co 0.5138 0.67246 0.61507 0.0
C331 C 0.45289 0.62246 0.5805 0.0
C332 C 0.44723 0.65943 0.60336 0.0
C333 C 0.41816 0.63704 0.59034 0.0
N334 N 0.4695 0.65057 0.5974 0.0
N335 N 0.42173 0.61373 0.57627 0.0
H336 H 0.46247 0.60759 0.57229 0.0
H337 H 0.45074 0.67972 0.61802 0.0
C338 C 0.48492 0.60846 0.6502 0.0
O339 O 0.4794 0.59447 0.62122 0.0
N340 N 0.55668 0.69434 0.63295 0.0
C341 C 0.58464 0.71021 0.61621 0.0
C342 C 0.60914 0.72657 0.63878 0.0
C343 C 0.56433 0.70089 0.66514 0.0
N344 N 0.59623 0.72059 0.6695 0.0
C345 C 0.52075 0.64763 0.55322 0.0
C346 C 0.54131 0.60821 0.58071 0.0
C347 C 0.52799 0.60161 0.54872 0.0
C348 C 0.52087 0.62374 0.53376 0.0
C349 C 0.54098 0.63256 0.59907 0.0
N350 N 0.52648 0.64851 0.58641 0.0
H351 H 0.51205 0.66259 0.5427 0.0
H352 H 0.54836 0.63561 0.62479 0.0
H353 H 0.5868 0.71122 0.58946 0.0
H354 H 0.54656 0.69365 0.68467 0.0
O355 O 0.52468 0.70827 0.58583 0.0
O356 O 0.50557 0.70343 0.63686 0.0
O357 O 0.49931 0.63924 0.65233 0.0
C358 C 0.51473 0.71979 0.60927 0.0
H359 H 0.39545 0.63639 0.59366 0.0
H360 H 0.63415 0.74298 0.63294 0.0
H361 H 0.54814 0.59244 0.59299 0.0
H362 H 0.51213 0.6205 0.50847 0.0
Co363 Co 0.314 0.83742 0.56359 0.0
C364 C 0.36276 0.81776 0.56015 0.0
C365 C 0.35363 0.82855 0.51123 0.0
C366 C 0.37754 0.82074 0.50954 0.0
N367 N 0.34513 0.82786 0.54326 0.0
N368 N 0.38355 0.81429 0.54046 0.0
H369 H 0.36032 0.81315 0.58654 0.0
H370 H 0.34319 0.83362 0.49009 0.0
C371 C 0.37532 0.87613 0.6011 0.0
O372 O 0.38982 0.88727 0.5725 0.0
N373 N 0.28307 0.84586 0.58447 0.0
C374 C 0.26043 0.85022 0.56949 0.0
C375 C 0.23933 0.84914 0.59336 0.0
C376 C 0.27588 0.8426 0.61697 0.0
N377 N 0.24932 0.84453 0.62308 0.0
C378 C 0.33028 0.8788 0.50664 0.0
C379 C 0.36853 0.93434 0.54184 0.0
C380 C 0.37536 0.93279 0.50822 0.0
C381 C 0.35308 0.9061 0.48974 0.0
C382 C 0.34516 0.90644 0.55742 0.0
N383 N 0.33097 0.87813 0.54037 0.0
H384 H 0.31457 0.85732 0.49284 0.0
H385 H 0.34199 0.90667 0.58395 0.0
H386 H 0.2583 0.85202 0.54296 0.0
H387 H 0.28821 0.83623 0.63536 0.0
O388 O 0.28199 0.80943 0.53173 0.0
O389 O 0.29156 0.79434 0.58063 0.0
O390 O 0.34469 0.85772 0.60228 0.0
C391 C 0.27534 0.78652 0.55306 0.0
H392 H 0.38965 0.82021 0.48715 0.0
H393 H 0.21751 0.85 0.58909 0.0
H394 H 0.38382 0.95501 0.55706 0.0
H395 H 0.35576 0.90484 0.4632 0.0
H396 H 0.61753 0.09845 0.33003 0.0
H397 H 0.48291 0.12306 0.23952 0.0
H398 H 0.58977 0.16779 0.35846 0.0
H399 H 0.52867 0.07496 0.19385 0.0
H400 H 0.51082 0.12619 0.29128 0.0
H401 H 0.5751 0.07777 0.28735 0.0
C402 C 0.60232 0.10905 0.3275 0.0
C403 C 0.60754 0.13528 0.3472 0.0
C404 C 0.51429 0.11442 0.27007 0.0
C405 C 0.55895 0.11156 0.29927 0.0
C406 C 0.49815 0.11239 0.24057 0.0
C407 C 0.50397 0.09931 0.21212 0.0
C408 C 0.53634 0.10326 0.2711 0.0
C409 C 0.52391 0.08576 0.21505 0.0
C410 C 0.57817 0.09727 0.30325 0.0
C411 C 0.58704 0.148 0.34323 0.0
N412 N 0.53982 0.08855 0.24387 0.0
N413 N 0.56379 0.13614 0.31965 0.0
H414 H 0.91359 0.38689 0.21699 0.0
H415 H 0.84905 0.50349 0.25444 0.0
H416 H 0.86969 0.41427 0.13966 0.0
H417 H 0.9356 0.51707 0.30166 0.0
H418 H 0.8542 0.46918 0.2128 0.0
H419 H 0.92058 0.43279 0.2499 0.0
C420 C 0.90549 0.40252 0.20681 0.0
C421 C 0.89 0.39596 0.17586 0.0
C422 C 0.87246 0.48027 0.23184 0.0
C423 C 0.89773 0.44826 0.21352 0.0
C424 C 0.86956 0.49984 0.25548 0.0
C425 C 0.89206 0.51321 0.28124 0.0
C426 C 0.89743 0.47321 0.23471 0.0
C427 C 0.918 0.50749 0.28187 0.0
C428 C 0.9096 0.42876 0.22558 0.0
C429 C 0.88039 0.41737 0.16388 0.0
N430 N 0.91963 0.4873 0.25933 0.0
N431 N 0.88387 0.44221 0.18296 0.0
H432 H 0.62883 0.5027 0.21851 0.0
H433 H 0.45293 0.36772 0.2751 0.0
H434 H 0.54422 0.46944 0.15725 0.0
H435 H 0.53494 0.41001 0.34084 0.0
H436 H 0.48533 0.40722 0.23273 0.0
H437 H 0.59436 0.47176 0.26495 0.0
C438 C 0.60301 0.48931 0.21494 0.0
C439 C 0.58947 0.48844 0.18381 0.0
C440 C 0.49617 0.408 0.25654 0.0
C441 C 0.54988 0.45262 0.23672 0.0
C442 C 0.47765 0.38542 0.28077 0.0
C443 C 0.49129 0.38521 0.3115 0.0
C444 C 0.52864 0.43044 0.26299 0.0
C445 C 0.52347 0.40886 0.3174 0.0
C446 C 0.58332 0.47155 0.24144 0.0
C447 C 0.55581 0.47065 0.18069 0.0
N448 N 0.54109 0.4303 0.2933 0.0
N449 N 0.53724 0.45318 0.20665 0.0
H450 H 0.51315 0.91735 0.76145 0.0
H451 H 0.36057 0.83167 0.64996 0.0
H452 H 0.47948 0.82107 0.72533 0.0
H453 H 0.43574 0.92469 0.61673 0.0
H454 H 0.39775 0.83076 0.69107 0.0
H455 H 0.48013 0.92418 0.71889 0.0
C456 C 0.4994 0.89797 0.74416 0.0
C457 C 0.4992 0.86869 0.74673 0.0
C458 C 0.40583 0.85152 0.67503 0.0
C459 C 0.46064 0.87586 0.6996 0.0
C460 C 0.38461 0.85227 0.65191 0.0
C461 C 0.39517 0.87833 0.62999 0.0
C462 C 0.43746 0.87737 0.67682 0.0
C463 C 0.42677 0.90418 0.63324 0.0
C464 C 0.48053 0.90184 0.72015 0.0
C465 C 0.48063 0.84415 0.72403 0.0
N466 N 0.4469 0.90315 0.65638 0.0
N467 N 0.46156 0.84805 0.70184 0.0
H468 H 0.16628 0.51916 0.70824 0.0
H469 H 0.09538 0.62773 0.77783 0.0
H470 H 0.10711 0.54601 0.6513 0.0
H471 H 0.16803 0.61628 0.82913 0.0
H472 H 0.09522 0.5929 0.73364 0.0
H473 H 0.16266 0.54938 0.75562 0.0
C474 C 0.15229 0.53109 0.70581 0.0
C475 C 0.13717 0.53024 0.6757 0.0
C476 C 0.11119 0.59798 0.75459 0.0
C477 C 0.13299 0.56479 0.72955 0.0
C478 C 0.11128 0.61788 0.77985 0.0
C479 C 0.13184 0.62511 0.80719 0.0
C480 C 0.1317 0.585 0.75669 0.0
C481 C 0.1519 0.61155 0.80845 0.0
C482 C 0.15036 0.54846 0.73276 0.0
C483 C 0.11941 0.54621 0.6739 0.0
N484 N 0.15132 0.59217 0.78357 0.0
N485 N 0.11789 0.56283 0.70035 0.0
H486 H 0.46 0.54366 0.65271 0.0
H487 H 0.40369 0.52679 0.84129 0.0
H488 H 0.48197 0.62519 0.71514 0.0
H489 H 0.36673 0.44767 0.77195 0.0
H490 H 0.44044 0.56213 0.79874 0.0
H491 H 0.43413 0.50794 0.69943 0.0
C492 C 0.45964 0.55417 0.67636 0.0
C493 C 0.47284 0.58756 0.67986 0.0
C494 C 0.42453 0.53698 0.79294 0.0
C495 C 0.44299 0.5464 0.73366 0.0
C496 C 0.40353 0.51666 0.81724 0.0
C497 C 0.38169 0.48416 0.81007 0.0
C498 C 0.42388 0.52479 0.76122 0.0
C499 C 0.38292 0.47253 0.77855 0.0
C500 C 0.44479 0.53362 0.70306 0.0
C501 C 0.47193 0.59962 0.71127 0.0
N502 N 0.40347 0.49291 0.7552 0.0
N503 N 0.45695 0.57898 0.73695 0.0
H504 H 0.43575 0.00579 0.04773 0.0
H505 H 0.55241 0.00335 0.91011 0.0
H506 H 0.52439 0.09109 0.01984 0.0
H507 H 0.49165 0.92032 0.97016 0.0
H508 H 0.53892 0.03615 0.94596 0.0
H509 H 0.45183 0.97356 0.01453 0.0
C510 C 0.45849 0.01779 0.03466 0.0
C511 C 0.47858 0.0513 0.03646 0.0
C512 C 0.52889 0.01083 0.95149 0.0
C513 C 0.49682 0.01464 -0.00172 0.0
C514 C 0.53663 0.99224 0.93116 0.0
C515 C 0.5233 0.95932 0.93753 0.0
C516 C 0.50714 0.99611 0.97776 0.0
C517 C 0.50275 0.94579 0.96484 0.0
C518 C 0.46762 -0.00062 0.01575 0.0
C519 C 0.50764 0.0655 0.01859 0.0
N520 N 0.49497 0.96421 0.98382 0.0
N521 N 0.51581 0.04711 0.00016 0.0
H522 H 0.9052 0.42021 0.99116 0.0
H523 H 0.05857 0.59527 0.00504 0.0
H524 H 0.99348 0.4411 0.04076 0.0
H525 H 0.99493 0.56659 0.92068 0.0
H526 H 0.02517 0.54179 0.02923 0.0
H527 H 0.93081 0.47604 0.97273 0.0
C528 C 0.93013 0.43623 0.9977 0.0
C529 C 0.94718 0.4257 0.0176 0.0
C530 C 0.01807 0.54752 0.00583 0.0
C531 C 0.97584 0.49001 -0.00206 0.0
C532 C 0.03669 0.57816 0.99239 0.0
C533 C 0.02933 0.5851 0.96091 0.0
C534 C 0.99192 0.524 0.98769 0.0
C535 C 0.00117 0.56196 0.94509 0.0
C536 C 0.94447 0.46824 0.98761 0.0
C537 C 0.97915 0.44807 0.02596 0.0
N538 N 0.98361 0.53213 0.95846 0.0
N539 N 0.99235 0.47923 0.01631 0.0
H540 H 0.40291 0.44605 0.02887 0.0
H541 H 0.59114 0.56127 0.99468 0.0
H542 H 0.44442 0.47756 0.93147 0.0
H543 H 0.55086 0.5259 0.09181 0.0
H544 H 0.5368 0.53358 0.9715 0.0
H545 H 0.4569 0.47613 0.05288 0.0
C546 C 0.4234 0.45882 0.01253 0.0
C547 C 0.41915 0.45907 0.97813 0.0
C548 C 0.53988 0.53222 -0.00204 0.0
C549 C 0.48072 0.494 0.00533 0.0
C550 C 0.57087 0.54819 0.01119 0.0
C551 C 0.57561 0.54585 0.04518 0.0
C552 C 0.51353 0.5137 0.01887 0.0
C553 C 0.54842 0.52878 0.06551 0.0
C554 C 0.45415 0.47616 0.02622 0.0
C555 C 0.44653 0.47608 0.95807 0.0
N556 N 0.51858 0.51308 0.05198 0.0
N557 N 0.47609 0.49302 0.97199 0.0
H558 H 0.00846 0.42859 0.55469 0.0
H559 H 0.97846 0.51525 0.40169 0.0
H560 H 0.08517 0.49851 0.4927 0.0
H561 H 0.91473 0.48059 0.48604 0.0
H562 H 0.01527 0.50205 0.43054 0.0
H563 H 0.9707 0.44009 0.52528 0.0
C564 C 0.01742 0.44622 0.53491 0.0
C565 C 0.05016 0.46255 0.52623 0.0
C566 C 0.99331 0.49748 0.44279 0.0
C567 C 0.007 0.47534 0.49233 0.0
C568 C 0.97238 0.50498 0.42638 0.0
C569 C 0.94379 0.49914 0.44172 0.0
C570 C 0.98526 0.48358 0.4745 0.0
C571 C 0.93682 0.48577 0.47367 0.0
C572 C 0.99583 0.4527 0.51815 0.0
C573 C 0.06015 0.48475 0.49992 0.0
N574 N 0.95738 0.4782 0.48901 0.0
N575 N 0.03866 0.49045 0.48392 0.0
H576 H 0.404 0.4152 0.46303 0.0
H577 H 0.55449 0.5623 0.54948 0.0
H578 H 0.47816 0.40663 0.51464 0.0
H579 H 0.46994 0.56555 0.51861 0.0
H580 H 0.52692 0.50503 0.53583 0.0
H581 H 0.4261 0.46965 0.48514 0.0
C582 C 0.42428 0.42444 0.4799 0.0
C583 C 0.43942 0.40658 0.48688 0.0
C584 C 0.5145 0.51838 0.53196 0.0
C585 C 0.46545 0.46891 0.51119 0.0
C586 C 0.53033 0.5511 0.53946 0.0
C587 C 0.51467 0.56886 0.53492 0.0
C588 C 0.48284 0.5034 0.51975 0.0
C589 C 0.48333 0.5531 0.52178 0.0
C590 C 0.4371 0.45558 0.49222 0.0
C591 C 0.46566 0.41956 0.50879 0.0
N592 N 0.46845 0.52127 0.51471 0.0
N593 N 0.47827 0.45023 0.51965 0.0
H594 H 0.57715 0.07079 0.50943 0.0
H595 H 0.40962 0.91397 0.46961 0.0
H596 H 0.56863 0.98991 0.45402 0.0
H597 H 0.41819 0.99696 0.5208 0.0
H598 H 0.46741 0.94209 0.46198 0.0
H599 H 0.5192 0.0429 0.51594 0.0
C600 C 0.56325 0.04669 0.49947 0.0
C601 C 0.57798 0.03262 0.48121 0.0
C602 C 0.45666 0.95433 0.47454 0.0
C603 C 0.51109 0.0011 0.48747 0.0
C604 C 0.42343 0.93852 0.4784 0.0
C605 C 0.40877 0.95306 0.49601 0.0
C606 C 0.47556 0.9849 0.48848 0.0
C607 C 0.42839 0.98462 0.50747 0.0
C608 C 0.52997 0.03105 0.50267 0.0
C609 C 0.55834 0.00174 0.46812 0.0
N610 N 0.46084 -0.00063 0.50381 0.0
N611 N 0.52585 0.98709 0.47129 0.0
H612 H 0.42006 0.27195 0.28215 0.0
H613 H 0.36737 0.09983 0.22485 0.0
H614 H 0.3623 0.19191 0.34677 0.0
H615 H 0.37649 0.17202 0.15525 0.0
H616 H 0.36123 0.13063 0.26989 0.0
H617 H 0.40278 0.23502 0.23485 0.0
C618 C 0.40358 0.24656 0.2862 0.0
C619 C 0.3928 0.23473 0.31819 0.0
C620 C 0.36341 0.13916 0.24461 0.0
C621 C 0.37303 0.19247 0.26464 0.0
C622 C 0.36666 0.12149 0.21901 0.0
C623 C 0.37243 0.13351 0.18653 0.0
C624 C 0.36695 0.16942 0.23759 0.0
C625 C 0.37187 0.16192 0.18001 0.0
C626 C 0.39342 0.22558 0.25929 0.0
C627 C 0.3711 0.20178 0.32235 0.0
N628 N 0.37016 0.17945 0.20549 0.0
N629 N 0.36237 0.18159 0.29591 0.0
H630 H 0.76886 0.12862 0.31956 0.0
H631 H 0.86949 0.29455 0.22119 0.0
H632 H 0.77368 0.21809 0.34488 0.0
H633 H 0.83971 0.20325 0.17461 0.0
H634 H 0.84673 0.26699 0.27357 0.0
H635 H 0.80525 0.15569 0.27227 0.0
C636 C 0.77787 0.15398 0.31526 0.0
C637 C 0.76807 0.17118 0.33564 0.0
C638 C 0.84552 0.25289 0.25209 0.0
C639 C 0.8097 0.20213 0.28262 0.0
C640 C 0.85867 0.26863 0.22235 0.0
C641 C 0.85607 0.25101 0.19374 0.0
C642 C 0.8293 0.21916 0.2532 0.0
C643 C 0.84211 0.21752 0.19631 0.0
C644 C 0.79847 0.16933 0.28841 0.0
C645 C 0.78025 0.20393 0.32931 0.0
N646 N 0.82866 0.20248 0.22555 0.0
N647 N 0.80039 0.21831 0.30339 0.0
H648 H 0.89211 0.6281 0.28061 0.0
H649 H 0.72307 0.59603 0.2354 0.0
H650 H 0.82748 0.62601 0.35577 0.0
H651 H 0.80164 0.64342 0.16632 0.0
H652 H 0.76197 0.61138 0.28082 0.0
H653 H 0.86236 0.63995 0.23884 0.0
C654 C 0.8724 0.63147 0.28837 0.0
C655 C 0.86213 0.62615 0.32143 0.0
C656 C 0.77071 0.61912 0.25583 0.0
C657 C 0.82722 0.6382 0.27405 0.0
C658 C 0.74853 0.61017 0.22999 0.0
C659 C 0.75925 0.61822 0.19721 0.0
C660 C 0.80379 0.63547 0.24861 0.0
C661 C 0.79245 0.63679 0.19131 0.0
C662 C 0.85531 0.63803 0.26463 0.0
C663 C 0.83619 0.63021 0.33047 0.0
N664 N 0.81361 0.64419 0.21671 0.0
N665 N 0.81901 0.63513 0.30673 0.0
H666 H 0.63993 0.87403 0.79086 0.0
H667 H 0.58213 0.69805 0.73223 0.0
H668 H 0.57662 0.78874 0.84669 0.0
H669 H 0.64302 0.78311 0.67507 0.0
H670 H 0.59492 0.7312 0.78203 0.0
H671 H 0.6563 0.84243 0.75743 0.0
C672 C 0.63015 0.84884 0.79677 0.0
C673 C 0.60604 0.83372 0.82088 0.0
C674 C 0.60618 0.74259 0.75878 0.0
C675 C 0.62417 0.79727 0.78223 0.0
C676 C 0.59886 0.72364 0.7304 0.0
C677 C 0.61081 0.73802 0.69946 0.0
C678 C 0.6251 0.7762 0.75596 0.0
C679 C 0.63295 0.77113 0.6984 0.0
C680 C 0.6394 0.83072 0.77751 0.0
C681 C 0.59443 0.80105 0.82754 0.0
N682 N 0.63872 0.78926 0.72612 0.0
N683 N 0.60304 0.78373 0.8078 0.0
H684 H 0.19184 0.80981 0.82898 0.0
H685 H 0.1861 0.80243 0.63137 0.0
H686 H 0.14124 0.72083 0.77488 0.0
H687 H 0.27321 0.86594 0.68416 0.0
H688 H 0.15883 0.78085 0.68466 0.0
H689 H 0.21178 0.83894 0.776 0.0
C690 C 0.18452 0.79664 0.80583 0.0
C691 C 0.16512 0.76308 0.80587 0.0
C692 C 0.18373 0.79998 0.68448 0.0
C693 C 0.18699 0.7958 0.74597 0.0
C694 C 0.19914 0.81239 0.65426 0.0
C695 C 0.23182 0.83585 0.65369 0.0
C696 C 0.20106 0.81163 0.71414 0.0
C697 C 0.24798 0.84774 0.68386 0.0
C698 C 0.1959 0.8131 0.77585 0.0
C699 C 0.15635 0.74675 0.77553 0.0
N700 N 0.23243 0.83544 0.71302 0.0
N701 N 0.16731 0.76329 0.74667 0.0
H702 H 0.15127 0.3538 0.66705 0.0
H703 H 0.18839 0.37565 0.86132 0.0
H704 H 0.12124 0.40564 0.7311 0.0
H705 H 0.25428 0.37701 0.78822 0.0
H706 H 0.14904 0.36553 0.81697 0.0
H707 H 0.17392 0.34078 0.71528 0.0
C708 C 0.14846 0.36142 0.69148 0.0
C709 C 0.1346 0.38091 0.69534 0.0
C710 C 0.17176 0.36714 0.81084 0.0
C711 C 0.16028 0.36625 0.75015 0.0
C712 C 0.19396 0.37269 0.83599 0.0
C713 C 0.22424 0.377 0.828 0.0
C714 C 0.17998 0.36546 0.77779 0.0
C715 C 0.23099 0.37367 0.795 0.0
C716 C 0.16155 0.35422 0.71883 0.0
C717 C 0.13195 0.39069 0.72734 0.0
N718 N 0.20904 0.36823 0.77093 0.0
N719 N 0.14497 0.38349 0.7536 0.0
H720 H 0.48057 0.22773 0.08096 0.0
H721 H 0.60202 0.40037 0.15573 0.0
H722 H 0.51181 0.24247 0.18304 0.0
H723 H 0.5635 0.38446 0.05635 0.0
H724 H 0.56515 0.34365 0.16837 0.0
H725 H 0.50607 0.28581 0.07369 0.0
C726 C 0.49238 0.24323 0.10201 0.0
C727 C 0.49438 0.23034 0.13254 0.0
C728 C 0.56463 0.35267 0.14388 0.0
C729 C 0.52421 0.29694 0.12428 0.0
C730 C 0.58565 0.3851 0.13665 0.0
C731 C 0.58629 0.39714 0.10471 0.0
C732 C 0.54414 0.33217 0.11898 0.0
C733 C 0.56451 0.37611 0.08101 0.0
C734 C 0.50703 0.27642 0.09784 0.0
C735 C 0.50981 0.25148 0.15904 0.0
N736 N 0.54455 0.34467 0.08854 0.0
N737 N 0.52459 0.28383 0.15417 0.0
H738 H 0.75813 0.25785 0.03939 0.0
H739 H 0.60954 0.15407 0.1582 0.0
H740 H 0.76344 0.23427 0.14152 0.0
H741 H 0.60262 0.19926 0.06873 0.0
H742 H 0.66337 0.16589 0.14181 0.0
H743 H 0.69965 0.22036 0.04031 0.0
C744 C 0.74707 0.24386 0.06157 0.0
C745 C 0.76517 0.24912 0.09056 0.0
C746 C 0.64992 0.17268 0.12533 0.0
C747 C 0.69909 0.20672 0.09182 0.0
C748 C 0.6193 0.16591 0.13469 0.0
C749 C 0.60229 0.17639 0.11502 0.0
C750 C 0.66386 0.19073 0.09647 0.0
C751 C 0.61541 0.19116 0.08455 0.0
C752 C 0.71382 0.22272 0.06215 0.0
C753 C 0.75002 0.23094 0.11882 0.0
N754 N 0.64592 0.19868 0.07648 0.0
N755 N 0.71778 0.21075 0.11885 0.0
H756 H 0.79746 0.39703 0.12629 0.0
H757 H 0.73635 0.51061 0.05007 0.0
H758 H 0.79647 0.41351 0.021 0.0
H759 H 0.73771 0.49162 0.15455 0.0
H760 H 0.76424 0.48058 0.03875 0.0
H761 H 0.78091 0.43627 0.13676 0.0
C762 C 0.79409 0.40904 0.10526 0.0
C763 C 0.79839 0.40171 0.0726 0.0
C764 C 0.75882 0.48339 0.06417 0.0
C765 C 0.77873 0.44674 0.08462 0.0
C766 C 0.74314 0.50073 0.07066 0.0
C767 C 0.73452 0.50336 0.10327 0.0
C768 C 0.76586 0.46869 0.09052 0.0
C769 C 0.74366 0.48993 0.12901 0.0
C770 C 0.78444 0.43147 0.11132 0.0
C771 C 0.79299 0.41794 0.04654 0.0
N772 N 0.75856 0.47295 0.12205 0.0
N773 N 0.78329 0.43959 0.0531 0.0
H774 H 0.77045 0.50477 0.4459 0.0
H775 H 0.59204 0.43454 0.37613 0.0
H776 H 0.74851 0.51402 0.344 0.0
H777 H 0.61484 0.41948 0.47585 0.0
H778 H 0.64925 0.47137 0.36615 0.0
H779 H 0.71371 0.48256 0.45989 0.0
C780 C 0.75382 0.50278 0.42661 0.0
C781 C 0.76408 0.51076 0.39366 0.0
C782 C 0.64163 0.46021 0.39032 0.0
C783 C 0.69911 0.48487 0.40932 0.0
C784 C 0.60898 0.43898 0.39595 0.0
C785 C 0.5985 0.42348 0.42675 0.0
C786 C 0.66402 0.46595 0.41564 0.0
C787 C 0.62158 0.43084 0.45176 0.0
C788 C 0.72138 0.4899 0.43456 0.0
C789 C 0.74153 0.50777 0.36967 0.0
N790 N 0.65321 0.45129 0.44555 0.0
N791 N 0.71 0.49462 0.37788 0.0
H792 H 0.62955 0.22739 0.41984 0.0
H793 H 0.48445 0.25623 0.46862 0.0
H794 H 0.56124 0.17234 0.49651 0.0
H795 H 0.53747 0.28695 0.37665 0.0
H796 H 0.51554 0.23014 0.48403 0.0
H797 H 0.60074 0.25636 0.40995 0.0
C798 C 0.60891 0.22188 0.43514 0.0
C799 C 0.59774 0.19736 0.45904 0.0
C800 C 0.52017 0.24251 0.46045 0.0
C801 C 0.56408 0.22993 0.44722 0.0
C802 C 0.50236 0.25723 0.45159 0.0
C803 C 0.5083 0.27366 0.42127 0.0
C804 C 0.54426 0.24471 0.43899 0.0
C805 C 0.53196 0.27447 0.40022 0.0
C806 C 0.59217 0.23813 0.42916 0.0
C807 C 0.57043 0.19091 0.47767 0.0
N808 N 0.54915 0.26038 0.40956 0.0
N809 N 0.55437 0.20698 0.47127 0.0
H810 H 0.73549 0.37498 0.41173 0.0
H811 H 0.7727 0.24096 0.41167 0.0
H812 H 0.83531 0.40177 0.40549 0.0
H813 H 0.70528 0.23805 0.48391 0.0
H814 H 0.79866 0.29978 0.41039 0.0
H815 H 0.72373 0.32429 0.43869 0.0
C816 C 0.7549 0.37021 0.41666 0.0
C817 C 0.78625 0.39207 0.40653 0.0
C818 C 0.77901 0.28638 0.42752 0.0
C819 C 0.77319 0.33449 0.43637 0.0
C820 C 0.7644 0.25293 0.42843 0.0
C821 C 0.7371 0.23498 0.44809 0.0
C822 C 0.76518 0.30153 0.44532 0.0
C823 C 0.72647 0.25128 0.46862 0.0
C824 C 0.74835 0.3416 0.43217 0.0
C825 C 0.81085 0.38521 0.41316 0.0
N826 N 0.7399 0.28371 0.46593 0.0
N827 N 0.80369 0.35652 0.42697 0.0
H828 H 0.36417 0.59123 0.86731 0.0
H829 H 0.48334 0.77288 0.92305 0.0
H830 H 0.42397 0.61585 0.9545 0.0
H831 H 0.44866 0.74577 0.8228 0.0
H832 H 0.45534 0.71589 0.93862 0.0
H833 H 0.38768 0.64859 0.85475 0.0
C834 C 0.3818 0.60875 0.88413 0.0
C835 C 0.39225 0.59892 0.91195 0.0
C836 C 0.45391 0.72247 0.91323 0.0
C837 C 0.41943 0.66434 0.8976 0.0
C838 C 0.46987 0.75493 0.90433 0.0
C839 C 0.46844 0.76397 0.87155 0.0
C840 C 0.43606 0.699 0.88927 0.0
C841 C 0.45058 0.73979 0.84829 0.0
C842 C 0.39545 0.64142 0.87677 0.0
C843 C 0.41553 0.62257 0.93267 0.0
N844 N 0.43498 0.70838 0.85762 0.0
N845 N 0.42841 0.65423 0.92507 0.0
H846 H 0.22713 0.78506 0.90985 0.0
H847 H 0.39992 0.80499 0.92633 0.0
H848 H 0.24751 0.71763 0.95908 0.0
H849 H 0.37462 0.86065 0.86198 0.0
H850 H 0.34887 0.78552 0.95586 0.0
H851 H 0.28454 0.82517 0.91107 0.0
C852 C 0.24363 0.77935 0.9224 0.0
C853 C 0.23294 0.74832 0.93451 0.0
C854 C 0.35485 0.80264 0.93582 0.0
C855 C 0.29842 0.79311 0.93455 0.0
C856 C 0.38401 0.81382 0.91906 0.0
C857 C 0.39094 0.83374 0.8912 0.0
C858 C 0.33267 0.81154 0.92452 0.0
C859 C 0.36962 0.84457 0.8828 0.0
C860 C 0.2764 0.80203 0.92275 0.0
C861 C 0.2551 0.74155 0.94974 0.0
N862 N 0.34119 0.83291 0.89902 0.0
N863 N 0.287 0.76357 0.9487 0.0
H864 H 0.19965 0.58671 0.98369 0.0
H865 H 0.25567 0.49985 0.85444 0.0
H866 H 0.18278 0.58434 0.87821 0.0
H867 H 0.25774 0.48818 0.96043 0.0
H868 H 0.22545 0.52768 0.8628 0.0
H869 H 0.21798 0.54806 0.97609 0.0
C870 C 0.19951 0.5779 0.95897 0.0
C871 C 0.18999 0.58917 0.93151 0.0
C872 C 0.2321 0.51868 0.88425 0.0
C873 C 0.21124 0.54507 0.92261 0.0
C874 C 0.24932 0.50275 0.87947 0.0
C875 C 0.25944 0.49201 0.90682 0.0
C876 C 0.22535 0.52429 0.91664 0.0
C877 C 0.25044 0.49619 0.93869 0.0
C878 C 0.21003 0.55583 0.95465 0.0
C879 C 0.1906 0.57701 0.90002 0.0
N880 N 0.23427 0.51245 0.94277 0.0
N881 N 0.20128 0.55582 0.89642 0.0
H882 H 0.40849 0.55915 0.60799 0.0
H883 H 0.22955 0.47286 0.53815 0.0
H884 H 0.37484 0.59733 0.53108 0.0
H885 H 0.2536 0.47266 0.64126 0.0
H886 H 0.28678 0.49925 0.52423 0.0
H887 H 0.35588 0.50936 0.60798 0.0
C888 C 0.39042 0.55635 0.59009 0.0
C889 C 0.39562 0.58208 0.5695 0.0
C890 C 0.27935 0.49231 0.54971 0.0
C891 C 0.33602 0.52578 0.56931 0.0
C892 C 0.24671 0.47705 0.55769 0.0
C893 C 0.23698 0.47116 0.59101 0.0
C894 C 0.30214 0.50115 0.57518 0.0
C895 C 0.26025 0.47727 0.61533 0.0
C896 C 0.36049 0.52817 0.59025 0.0
C897 C 0.37146 0.57784 0.54722 0.0
N898 N 0.29191 0.49247 0.60701 0.0
N899 N 0.34248 0.55029 0.54792 0.0
H900 H 0.41613 0.79389 0.50131 0.0
H901 H 0.48996 0.74659 0.65155 0.0
H902 H 0.40723 0.81718 0.60286 0.0
H903 H 0.51913 0.74904 0.54984 0.0
H904 H 0.46288 0.77617 0.6352 0.0
H905 H 0.45595 0.77985 0.51899 0.0
C906 C 0.42256 0.79631 0.52728 0.0
C907 C 0.40771 0.80641 0.55056 0.0
C908 C 0.47576 0.7708 0.61658 0.0
C909 C 0.45342 0.78993 0.57112 0.0
C910 C 0.4914 0.75408 0.62594 0.0
C911 C 0.50643 0.74493 0.60193 0.0
C912 C 0.47483 0.77799 0.58293 0.0
C913 C 0.50758 0.75531 0.56914 0.0
C914 C 0.44545 0.78828 0.53738 0.0
C915 C 0.41721 0.80877 0.58399 0.0
N916 N 0.49143 0.77073 0.56049 0.0
N917 N 0.43919 0.80028 0.59328 0.0
H918 H 0.26884 0.75532 0.49475 0.0
H919 H 0.1631 0.58321 0.57933 0.0
H920 H 0.23244 0.7409 0.59476 0.0
H921 H 0.24393 0.60686 0.51563 0.0
H922 H 0.17007 0.63676 0.56899 0.0
H923 H 0.2412 0.69658 0.48729 0.0
C924 C 0.25407 0.73976 0.51466 0.0
C925 C 0.25296 0.75261 0.54548 0.0
C926 C 0.18556 0.62976 0.55644 0.0
C927 C 0.22134 0.68619 0.53705 0.0
C928 C 0.18148 0.59927 0.56213 0.0
C929 C 0.20317 0.59098 0.5484 0.0
C930 C 0.21117 0.65171 0.53653 0.0
C931 C 0.22695 0.61268 0.52672 0.0
C932 C 0.23853 0.70642 0.51045 0.0
C933 C 0.23396 0.73167 0.57073 0.0
N934 N 0.23059 0.6423 0.52167 0.0
N935 N 0.21902 0.69938 0.56606 0.0
loop_
_geom_bond_atom_site_label_1
_geom_bond_atom_site_label_2
_geom_bond_distance
_geom_bond_site_symmetry_2
_ccdc_geom_bond_type
Co0 N4 2.148 . S
Co0 N10 2.128 . S
Co0 N20 2.194 . S
Co0 O25 2.351 . S
Co0 O26 2.155 . S
Co0 O27 2.096 . S
C1 N4 1.301 . S
C1 N5 1.328 . S
C1 H6 0.930 . S
C2 C3 1.333 . S
C2 N4 1.317 . S
C2 H7 0.930 . S
C3 C2 1.333 . S
C3 N5 1.350 . S
C3 H29 0.931 . S
N4 Co0 2.148 . S
N4 C1 1.301 . S
N4 C2 1.317 . S
N5 C1 1.328 . S
N5 C3 1.350 . S
H6 C1 0.930 . S
H7 C2 0.930 . S
C8 O9 1.224 . S
C8 O27 1.247 . S
O9 C8 1.224 . S
N10 Co0 2.128 . S
N10 C11 1.355 . S
N10 C13 1.311 . S
C11 N10 1.355 . S
C11 C12 1.363 . S
C11 H23 0.929 . S
C12 C11 1.363 . S
C12 N14 1.375 . S
C12 H30 0.931 . S
C13 N10 1.311 . S
C13 N14 1.347 . S
C13 H24 0.929 . S
N14 C12 1.375 . S
N14 C13 1.347 . S
C15 C18 1.365 . S
C15 N20 1.328 . S
C15 H21 0.929 . S
C16 C17 1.362 . S
C16 C19 1.378 . S
C16 H31 0.929 . S
C17 C16 1.362 . S
C17 C18 1.366 . S
C18 C15 1.365 . S
C18 C17 1.366 . S
C18 H32 0.930 1_554 S
C19 C16 1.378 . S
C19 N20 1.315 . S
C19 H22 0.930 . S
N20 Co0 2.194 . S
N20 C15 1.328 . S
N20 C19 1.315 . S
H21 C15 0.929 . S
H22 C19 0.930 . S
H23 C11 0.929 . S
H24 C13 0.929 . S
O25 Co0 2.351 . S
O25 C28 1.244 . S
O26 Co0 2.155 . S
O26 C28 1.240 . S
O27 Co0 2.096 . S
O27 C8 1.247 . S
C28 O25 1.244 . S
C28 O26 1.240 . S
H29 C3 0.931 . S
H30 C12 0.931 . S
H31 C16 0.929 . S
H32 C18 0.930 1_556 S
Co33 N37 2.148 . S
Co33 N43 2.128 . S
Co33 N53 2.194 . S
Co33 O58 2.351 . S
Co33 O59 2.155 . S
Co33 O60 2.096 . S
C34 N37 1.301 . S
C34 N38 1.328 . S
C34 H39 0.930 . S
C35 C36 1.333 . S
C35 N37 1.317 . S
C35 H40 0.930 . S
C36 C35 1.333 . S
C36 N38 1.350 . S
C36 H62 0.931 . S
N37 Co33 2.148 . S
N37 C34 1.301 . S
N37 C35 1.317 . S
N38 C34 1.328 . S
N38 C36 1.350 . S
H39 C34 0.930 . S
H40 C35 0.930 . S
C41 O42 1.224 . S
C41 O60 1.247 . S
O42 C41 1.224 . S
N43 Co33 2.128 . S
N43 C44 1.355 . S
N43 C46 1.311 . S
C44 N43 1.355 . S
C44 C45 1.363 . S
C44 H56 0.929 . S
C45 C44 1.363 . S
C45 N47 1.375 . S
C45 H63 0.931 . S
C46 N43 1.311 . S
C46 N47 1.347 . S
C46 H57 0.929 . S
N47 C45 1.375 . S
N47 C46 1.347 . S
C48 C51 1.365 . S
C48 N53 1.328 . S
C48 H54 0.929 . S
C49 C50 1.362 . S
C49 C52 1.378 . S
C49 H64 0.929 . S
C50 C49 1.362 . S
C50 C51 1.366 . S
C51 C48 1.365 . S
C51 C50 1.366 . S
C51 H65 0.930 1_554 S
C52 C49 1.378 . S
C52 N53 1.315 . S
C52 H55 0.930 . S
N53 Co33 2.194 . S
N53 C48 1.328 . S
N53 C52 1.315 . S
H54 C48 0.929 . S
H55 C52 0.930 . S
H56 C44 0.929 . S
H57 C46 0.929 . S
O58 Co33 2.351 . S
O58 C61 1.244 . S
O59 Co33 2.155 . S
O59 C61 1.240 . S
O60 Co33 2.096 . S
O60 C41 1.247 . S
C61 O58 1.244 . S
C61 O59 1.240 . S
H62 C36 0.931 . S
H63 C45 0.931 . S
H64 C49 0.929 . S
H65 C51 0.930 1_556 S
Co66 N70 2.148 . S
Co66 N76 2.128 . S
Co66 N86 2.194 . S
Co66 O91 2.351 . S
Co66 O92 2.155 . S
Co66 O93 2.096 . S
C67 N70 1.301 . S
C67 N71 1.328 . S
C67 H72 0.930 . S
C68 C69 1.333 . S
C68 N70 1.317 . S
C68 H73 0.930 . S
C69 C68 1.333 . S
C69 N71 1.350 . S
C69 H95 0.931 . S
N70 Co66 2.148 . S
N70 C67 1.301 . S
N70 C68 1.317 . S
N71 C67 1.328 . S
N71 C69 1.350 . S
H72 C67 0.930 . S
H73 C68 0.930 . S
C74 O75 1.224 . S
C74 O93 1.247 . S
O75 C74 1.224 . S
N76 Co66 2.128 . S
N76 C77 1.355 . S
N76 C79 1.311 . S
C77 N76 1.355 . S
C77 C78 1.363 . S
C77 H89 0.929 . S
C78 C77 1.363 . S
C78 N80 1.375 . S
C78 H96 0.931 . S
C79 N76 1.311 . S
C79 N80 1.347 . S
C79 H90 0.929 . S
N80 C78 1.375 . S
N80 C79 1.347 . S
C81 C84 1.365 . S
C81 N86 1.328 . S
C81 H87 0.929 . S
C82 C83 1.362 . S
C82 C85 1.378 . S
C82 H97 0.929 . S
C83 C82 1.362 . S
C83 C84 1.366 . S
C84 C81 1.365 . S
C84 C83 1.366 . S
C84 H98 0.930 1_554 S
C85 C82 1.378 . S
C85 N86 1.315 . S
C85 H88 0.930 . S
N86 Co66 2.194 . S
N86 C81 1.328 . S
N86 C85 1.315 . S
H87 C81 0.929 . S
H88 C85 0.930 . S
H89 C77 0.929 . S
H90 C79 0.929 . S
O91 Co66 2.351 . S
O91 C94 1.244 . S
O92 Co66 2.155 . S
O92 C94 1.240 . S
O93 Co66 2.096 . S
O93 C74 1.247 . S
C94 O91 1.244 . S
C94 O92 1.240 . S
H95 C69 0.931 . S
H96 C78 0.931 . S
H97 C82 0.929 . S
H98 C84 0.930 1_556 S
Co99 N103 2.148 . S
Co99 N109 2.128 . S
Co99 N119 2.194 . S
Co99 O124 2.351 . S
Co99 O125 2.155 . S
Co99 O126 2.096 . S
C100 N103 1.301 . S
C100 N104 1.328 . S
C100 H105 0.930 . S
C101 C102 1.333 . S
C101 N103 1.317 . S
C101 H106 0.930 . S
C102 C101 1.333 . S
C102 N104 1.350 . S
C102 H128 0.931 . S
N103 Co99 2.148 . S
N103 C100 1.301 . S
N103 C101 1.317 . S
N104 C100 1.328 . S
N104 C102 1.350 . S
H105 C100 0.930 . S
H106 C101 0.930 . S
C107 O108 1.224 . S
C107 O126 1.247 . S
O108 C107 1.224 . S
N109 Co99 2.128 . S
N109 C110 1.355 . S
N109 C112 1.311 . S
C110 N109 1.355 . S
C110 C111 1.363 . S
C110 H122 0.929 . S
C111 C110 1.363 . S
C111 N113 1.375 . S
C111 H129 0.931 . S
C112 N109 1.311 . S
C112 N113 1.347 . S
C112 H123 0.929 . S
N113 C111 1.375 . S
N113 C112 1.347 . S
C114 C117 1.365 . S
C114 N119 1.328 . S
C114 H120 0.929 . S
C115 C116 1.362 . S
C115 C118 1.378 . S
C115 H130 0.929 . S
C116 C115 1.362 . S
C116 C117 1.366 . S
C117 C114 1.365 . S
C117 C116 1.366 . S
C117 H131 0.930 . S
C118 C115 1.378 . S
C118 N119 1.315 . S
C118 H121 0.930 . S
N119 Co99 2.194 . S
N119 C114 1.328 . S
N119 C118 1.315 . S
H120 C114 0.929 . S
H121 C118 0.930 . S
H122 C110 0.929 . S
H123 C112 0.929 . S
O124 Co99 2.351 . S
O124 C127 1.244 . S
O125 Co99 2.155 . S
O125 C127 1.240 . S
O126 Co99 2.096 . S
O126 C107 1.247 . S
C127 O124 1.244 . S
C127 O125 1.240 . S
H128 C102 0.931 . S
H129 C111 0.931 . S
H130 C115 0.929 . S
H131 C117 0.930 . S
Co132 N136 2.148 . S
Co132 N142 2.128 . S
Co132 N152 2.194 . S
Co132 O157 2.351 . S
Co132 O158 2.155 . S
Co132 O159 2.096 . S
C133 N136 1.301 . S
C133 N137 1.328 . S
C133 H138 0.930 . S
C134 C135 1.333 . S
C134 N136 1.317 . S
C134 H139 0.930 . S
C135 C134 1.333 . S
C135 N137 1.350 . S
C135 H161 0.931 . S
N136 Co132 2.148 . S
N136 C133 1.301 . S
N136 C134 1.317 . S
N137 C133 1.328 . S
N137 C135 1.350 . S
H138 C133 0.930 . S
H139 C134 0.930 . S
C140 O141 1.224 . S
C140 O159 1.247 . S
O141 C140 1.224 . S
N142 Co132 2.128 . S
N142 C143 1.355 . S
N142 C145 1.311 . S
C143 N142 1.355 . S
C143 C144 1.363 . S
C143 H155 0.929 . S
C144 C143 1.363 . S
C144 N146 1.375 . S
C144 H162 0.931 . S
C145 N142 1.311 . S
C145 N146 1.347 . S
C145 H156 0.929 . S
N146 C144 1.375 . S
N146 C145 1.347 . S
C147 C150 1.365 . S
C147 N152 1.328 . S
C147 H153 0.929 . S
C148 C149 1.362 . S
C148 C151 1.378 . S
C148 H163 0.929 . S
C149 C148 1.362 . S
C149 C150 1.366 . S
C150 C147 1.365 . S
C150 C149 1.366 . S
C150 H164 0.930 . S
C151 C148 1.378 . S
C151 N152 1.315 . S
C151 H154 0.930 . S
N152 Co132 2.194 . S
N152 C147 1.328 . S
N152 C151 1.315 . S
H153 C147 0.929 . S
H154 C151 0.930 . S
H155 C143 0.929 . S
H156 C145 0.929 . S
O157 Co132 2.351 . S
O157 C160 1.244 . S
O158 Co132 2.155 . S
O158 C160 1.240 . S
O159 Co132 2.096 . S
O159 C140 1.247 . S
C160 O157 1.244 . S
C160 O158 1.240 . S
H161 C135 0.931 . S
H162 C144 0.931 . S
H163 C148 0.929 . S
H164 C150 0.930 . S
Co165 N169 2.148 . S
Co165 N175 2.128 . S
Co165 N185 2.194 . S
Co165 O190 2.351 . S
Co165 O191 2.155 . S
Co165 O192 2.096 . S
C166 N169 1.301 . S
C166 N170 1.328 . S
C166 H171 0.930 . S
C167 C168 1.333 . S
C167 N169 1.317 . S
C167 H172 0.930 . S
C168 C167 1.333 . S
C168 N170 1.350 . S
C168 H194 0.931 . S
N169 Co165 2.148 . S
N169 C166 1.301 . S
N169 C167 1.317 . S
N170 C166 1.328 . S
N170 C168 1.350 . S
H171 C166 0.930 . S
H172 C167 0.930 . S
C173 O174 1.224 . S
C173 O192 1.247 . S
O174 C173 1.224 . S
N175 Co165 2.128 . S
N175 C176 1.355 . S
N175 C178 1.311 . S
C176 N175 1.355 . S
C176 C177 1.363 . S
C176 H188 0.929 . S
C177 C176 1.363 . S
C177 N179 1.375 . S
C177 H195 0.931 . S
C178 N175 1.311 . S
C178 N179 1.347 . S
C178 H189 0.929 . S
N179 C177 1.375 . S
N179 C178 1.347 . S
C180 C183 1.365 . S
C180 N185 1.328 . S
C180 H186 0.929 . S
C181 C182 1.362 . S
C181 C184 1.378 . S
C181 H196 0.929 . S
C182 C181 1.362 . S
C182 C183 1.366 . S
C183 C180 1.365 . S
C183 C182 1.366 . S
C183 H197 0.930 . S
C184 C181 1.378 . S
C184 N185 1.315 . S
C184 H187 0.930 . S
N185 Co165 2.194 . S
N185 C180 1.328 . S
N185 C184 1.315 . S
H186 C180 0.929 . S
H187 C184 0.930 . S
H188 C176 0.929 . S
H189 C178 0.929 . S
O190 Co165 2.351 . S
O190 C193 1.244 . S
O191 Co165 2.155 . S
O191 C193 1.240 . S
O192 Co165 2.096 . S
O192 C173 1.247 . S
C193 O190 1.244 . S
C193 O191 1.240 . S
H194 C168 0.931 . S
H195 C177 0.931 . S
H196 C181 0.929 . S
H197 C183 0.930 . S
Co198 N202 2.148 . S
Co198 N208 2.128 . S
Co198 N218 2.194 . S
Co198 O223 2.351 . S
Co198 O224 2.155 . S
Co198 O225 2.096 . S
C199 N202 1.301 . S
C199 N203 1.328 . S
C199 H204 0.930 . S
C200 C201 1.333 . S
C200 N202 1.317 . S
C200 H205 0.930 . S
C201 C200 1.333 . S
C201 N203 1.350 . S
C201 H227 0.931 . S
N202 Co198 2.148 . S
N202 C199 1.301 . S
N202 C200 1.317 . S
N203 C199 1.328 . S
N203 C201 1.350 . S
H204 C199 0.930 . S
H205 C200 0.930 . S
C206 O207 1.224 . S
C206 O225 1.247 . S
O207 C206 1.224 . S
N208 Co198 2.128 . S
N208 C209 1.355 . S
N208 C211 1.311 . S
C209 N208 1.355 . S
C209 C210 1.363 . S
C209 H221 0.929 . S
C210 C209 1.363 . S
C210 N212 1.375 . S
C210 H228 0.931 . S
C211 N208 1.311 . S
C211 N212 1.347 . S
C211 H222 0.929 . S
N212 C210 1.375 . S
N212 C211 1.347 . S
C213 C216 1.365 . S
C213 N218 1.328 . S
C213 H219 0.929 . S
C214 C215 1.362 . S
C214 C217 1.378 . S
C214 H229 0.929 . S
C215 C214 1.362 . S
C215 C216 1.366 . S
C216 C213 1.365 . S
C216 C215 1.366 . S
C216 H230 0.930 1_556 S
C217 C214 1.378 . S
C217 N218 1.315 . S
C217 H220 0.930 . S
N218 Co198 2.194 . S
N218 C213 1.328 . S
N218 C217 1.315 . S
H219 C213 0.929 . S
H220 C217 0.930 . S
H221 C209 0.929 . S
H222 C211 0.929 . S
O223 Co198 2.351 . S
O223 C226 1.244 . S
O224 Co198 2.155 . S
O224 C226 1.240 . S
O225 Co198 2.096 . S
O225 C206 1.247 . S
C226 O223 1.244 . S
C226 O224 1.240 . S
H227 C201 0.931 . S
H228 C210 0.931 . S
H229 C214 0.929 . S
H230 C216 0.930 1_554 S
Co231 N235 2.148 . S
Co231 N241 2.128 . S
Co231 N251 2.194 . S
Co231 O256 2.351 . S
Co231 O257 2.155 . S
Co231 O258 2.096 . S
C232 N235 1.301 . S
C232 N236 1.328 . S
C232 H237 0.930 . S
C233 C234 1.333 . S
C233 N235 1.317 . S
C233 H238 0.930 . S
C234 C233 1.333 . S
C234 N236 1.350 . S
C234 H260 0.931 . S
N235 Co231 2.148 . S
N235 C232 1.301 . S
N235 C233 1.317 . S
N236 C232 1.328 . S
N236 C234 1.350 . S
H237 C232 0.930 . S
H238 C233 0.930 . S
C239 O240 1.224 . S
C239 O258 1.247 . S
O240 C239 1.224 . S
N241 Co231 2.128 . S
N241 C242 1.355 . S
N241 C244 1.311 . S
C242 N241 1.355 . S
C242 C243 1.363 . S
C242 H254 0.929 . S
C243 C242 1.363 . S
C243 N245 1.375 . S
C243 H261 0.931 . S
C244 N241 1.311 . S
C244 N245 1.347 . S
C244 H255 0.929 . S
N245 C243 1.375 . S
N245 C244 1.347 . S
C246 C249 1.365 . S
C246 N251 1.328 . S
C246 H252 0.929 . S
C247 C248 1.362 . S
C247 C250 1.378 . S
C247 H262 0.929 . S
C248 C247 1.362 . S
C248 C249 1.366 . S
C249 C246 1.365 . S
C249 C248 1.366 . S
C249 H263 0.930 1_556 S
C250 C247 1.378 . S
C250 N251 1.315 . S
C250 H253 0.930 . S
N251 Co231 2.194 . S
N251 C246 1.328 . S
N251 C250 1.315 . S
H252 C246 0.929 . S
H253 C250 0.930 . S
H254 C242 0.929 . S
H255 C244 0.929 . S
O256 Co231 2.351 . S
O256 C259 1.244 . S
O257 Co231 2.155 . S
O257 C259 1.240 . S
O258 Co231 2.096 . S
O258 C239 1.247 . S
C259 O256 1.244 . S
C259 O257 1.240 . S
H260 C234 0.931 . S
H261 C243 0.931 . S
H262 C247 0.929 . S
H263 C249 0.930 1_554 S
Co264 N268 2.148 . S
Co264 N274 2.128 . S
Co264 N284 2.194 . S
Co264 O289 2.351 . S
Co264 O290 2.155 . S
Co264 O291 2.096 . S
C265 N268 1.301 . S
C265 N269 1.328 . S
C265 H270 0.930 . S
C266 C267 1.333 . S
C266 N268 1.317 . S
C266 H271 0.930 . S
C267 C266 1.333 . S
C267 N269 1.350 . S
C267 H293 0.931 . S
N268 Co264 2.148 . S
N268 C265 1.301 . S
N268 C266 1.317 . S
N269 C265 1.328 . S
N269 C267 1.350 . S
H270 C265 0.930 . S
H271 C266 0.930 . S
C272 O273 1.224 . S
C272 O291 1.247 . S
O273 C272 1.224 . S
N274 Co264 2.128 . S
N274 C275 1.355 . S
N274 C277 1.311 . S
C275 N274 1.355 . S
C275 C276 1.363 . S
C275 H287 0.929 . S
C276 C275 1.363 . S
C276 N278 1.375 . S
C276 H294 0.931 . S
C277 N274 1.311 . S
C277 N278 1.347 . S
C277 H288 0.929 . S
N278 C276 1.375 . S
N278 C277 1.347 . S
C279 C282 1.365 . S
C279 N284 1.328 . S
C279 H285 0.929 . S
C280 C281 1.362 . S
C280 C283 1.378 . S
C280 H295 0.929 . S
C281 C280 1.362 . S
C281 C282 1.366 . S
C282 C279 1.365 . S
C282 C281 1.366 . S
C282 H296 0.930 1_556 S
C283 C280 1.378 . S
C283 N284 1.315 . S
C283 H286 0.930 . S
N284 Co264 2.194 . S
N284 C279 1.328 . S
N284 C283 1.315 . S
H285 C279 0.929 . S
H286 C283 0.930 . S
H287 C275 0.929 . S
H288 C277 0.929 . S
O289 Co264 2.351 . S
O289 C292 1.244 . S
O290 Co264 2.155 . S
O290 C292 1.240 . S
O291 Co264 2.096 . S
O291 C272 1.247 . S
C292 O289 1.244 . S
C292 O290 1.240 . S
H293 C267 0.931 . S
H294 C276 0.931 . S
H295 C280 0.929 . S
H296 C282 0.930 1_554 S
Co297 N301 2.148 . S
Co297 N307 2.128 . S
Co297 N317 2.194 . S
Co297 O322 2.351 . S
Co297 O323 2.155 . S
Co297 O324 2.096 . S
C298 N301 1.301 . S
C298 N302 1.328 . S
C298 H303 0.930 . S
C299 C300 1.333 . S
C299 N301 1.317 . S
C299 H304 0.930 . S
C300 C299 1.333 . S
C300 N302 1.350 . S
C300 H326 0.931 . S
N301 Co297 2.148 . S
N301 C298 1.301 . S
N301 C299 1.317 . S
N302 C298 1.328 . S
N302 C300 1.350 . S
H303 C298 0.930 . S
H304 C299 0.930 . S
C305 O306 1.224 . S
C305 O324 1.247 . S
O306 C305 1.224 . S
N307 Co297 2.128 . S
N307 C308 1.355 . S
N307 C310 1.311 . S
C308 N307 1.355 . S
C308 C309 1.363 . S
C308 H320 0.929 . S
C309 C308 1.363 . S
C309 N311 1.375 . S
C309 H327 0.931 . S
C310 N307 1.311 . S
C310 N311 1.347 . S
C310 H321 0.929 . S
N311 C309 1.375 . S
N311 C310 1.347 . S
C312 C315 1.365 . S
C312 N317 1.328 . S
C312 H318 0.929 . S
C313 C314 1.362 . S
C313 C316 1.378 . S
C313 H328 0.929 . S
C314 C313 1.362 . S
C314 C315 1.366 . S
C315 C312 1.365 . S
C315 C314 1.366 . S
C315 H329 0.930 . S
C316 C313 1.378 . S
C316 N317 1.315 . S
C316 H319 0.930 . S
N317 Co297 2.194 . S
N317 C312 1.328 . S
N317 C316 1.315 . S
H318 C312 0.929 . S
H319 C316 0.930 . S
H320 C308 0.929 . S
H321 C310 0.929 . S
O322 Co297 2.351 . S
O322 C325 1.244 . S
O323 Co297 2.155 . S
O323 C325 1.240 . S
O324 Co297 2.096 . S
O324 C305 1.247 . S
C325 O322 1.244 . S
C325 O323 1.240 . S
H326 C300 0.931 . S
H327 C309 0.931 . S
H328 C313 0.929 . S
H329 C315 0.930 . S
Co330 N334 2.148 . S
Co330 N340 2.128 . S
Co330 N350 2.194 . S
Co330 O355 2.351 . S
Co330 O356 2.155 . S
Co330 O357 2.096 . S
C331 N334 1.301 . S
C331 N335 1.328 . S
C331 H336 0.930 . S
C332 C333 1.333 . S
C332 N334 1.317 . S
C332 H337 0.930 . S
C333 C332 1.333 . S
C333 N335 1.350 . S
C333 H359 0.931 . S
N334 Co330 2.148 . S
N334 C331 1.301 . S
N334 C332 1.317 . S
N335 C331 1.328 . S
N335 C333 1.350 . S
H336 C331 0.930 . S
H337 C332 0.930 . S
C338 O339 1.224 . S
C338 O357 1.247 . S
O339 C338 1.224 . S
N340 Co330 2.128 . S
N340 C341 1.355 . S
N340 C343 1.311 . S
C341 N340 1.355 . S
C341 C342 1.363 . S
C341 H353 0.929 . S
C342 C341 1.363 . S
C342 N344 1.375 . S
C342 H360 0.931 . S
C343 N340 1.311 . S
C343 N344 1.347 . S
C343 H354 0.929 . S
N344 C342 1.375 . S
N344 C343 1.347 . S
C345 C348 1.365 . S
C345 N350 1.328 . S
C345 H351 0.929 . S
C346 C347 1.362 . S
C346 C349 1.378 . S
C346 H361 0.929 . S
C347 C346 1.362 . S
C347 C348 1.366 . S
C348 C345 1.365 . S
C348 C347 1.366 . S
C348 H362 0.930 . S
C349 C346 1.378 . S
C349 N350 1.315 . S
C349 H352 0.930 . S
N350 Co330 2.194 . S
N350 C345 1.328 . S
N350 C349 1.315 . S
H351 C345 0.929 . S
H352 C349 0.930 . S
H353 C341 0.929 . S
H354 C343 0.929 . S
O355 Co330 2.351 . S
O355 C358 1.244 . S
O356 Co330 2.155 . S
O356 C358 1.240 . S
O357 Co330 2.096 . S
O357 C338 1.247 . S
C358 O355 1.244 . S
C358 O356 1.240 . S
H359 C333 0.931 . S
H360 C342 0.931 . S
H361 C346 0.929 . S
H362 C348 0.930 . S
Co363 N367 2.148 . S
Co363 N373 2.128 . S
Co363 N383 2.194 . S
Co363 O388 2.351 . S
Co363 O389 2.155 . S
Co363 O390 2.096 . S
C364 N367 1.301 . S
C364 N368 1.328 . S
C364 H369 0.930 . S
C365 C366 1.333 . S
C365 N367 1.317 . S
C365 H370 0.930 . S
C366 C365 1.333 . S
C366 N368 1.350 . S
C366 H392 0.931 . S
N367 Co363 2.148 . S
N367 C364 1.301 . S
N367 C365 1.317 . S
N368 C364 1.328 . S
N368 C366 1.350 . S
H369 C364 0.930 . S
H370 C365 0.930 . S
C371 O372 1.224 . S
C371 O390 1.247 . S
O372 C371 1.224 . S
N373 Co363 2.128 . S
N373 C374 1.355 . S
N373 C376 1.311 . S
C374 N373 1.355 . S
C374 C375 1.363 . S
C374 H386 0.929 . S
C375 C374 1.363 . S
C375 N377 1.375 . S
C375 H393 0.931 . S
C376 N373 1.311 . S
C376 N377 1.347 . S
C376 H387 0.929 . S
N377 C375 1.375 . S
N377 C376 1.347 . S
C378 C381 1.365 . S
C378 N383 1.328 . S
C378 H384 0.929 . S
C379 C380 1.362 . S
C379 C382 1.378 . S
C379 H394 0.929 . S
C380 C379 1.362 . S
C380 C381 1.366 . S
C381 C378 1.365 . S
C381 C380 1.366 . S
C381 H395 0.930 . S
C382 C379 1.378 . S
C382 N383 1.315 . S
C382 H385 0.930 . S
N383 Co363 2.194 . S
N383 C378 1.328 . S
N383 C382 1.315 . S
H384 C378 0.929 . S
H385 C382 0.930 . S
H386 C374 0.929 . S
H387 C376 0.929 . S
O388 Co363 2.351 . S
O388 C391 1.244 . S
O389 Co363 2.155 . S
O389 C391 1.240 . S
O390 Co363 2.096 . S
O390 C371 1.247 . S
C391 O388 1.244 . S
C391 O389 1.240 . S
H392 C366 0.931 . S
H393 C375 0.931 . S
H394 C379 0.929 . S
H395 C381 0.930 . S
H396 C402 0.930 . S
H397 C406 0.930 . S
H398 C411 0.929 . S
H399 C409 0.929 . S
H400 C404 0.929 . S
H401 C410 0.929 . S
C402 H396 0.930 . S
C402 C403 1.367 . S
C402 C410 1.378 . S
C403 C402 1.367 . S
C403 C411 1.433 . S
C404 H400 0.929 . S
C404 C406 1.378 . S
C404 C408 1.350 . S
C405 C408 1.463 . S
C405 C410 1.350 . S
C405 N413 1.427 . S
C406 H397 0.930 . S
C406 C404 1.378 . S
C406 C407 1.367 . S
C407 C406 1.367 . S
C407 C409 1.433 . S
C408 C404 1.350 . S
C408 C405 1.463 . S
C408 N412 1.427 . S
C409 H399 0.929 . S
C409 C407 1.433 . S
C409 N412 1.384 . S
C410 H401 0.929 . S
C410 C402 1.378 . S
C410 C405 1.350 . S
C411 H398 0.929 . S
C411 C403 1.433 . S
C411 N413 1.384 . S
N412 C408 1.427 . S
N412 C409 1.384 . S
N413 C405 1.427 . S
N413 C411 1.384 . S
H414 C420 0.930 . S
H415 C424 0.930 . S
H416 C429 0.929 . S
H417 C427 0.929 . S
H418 C422 0.929 . S
H419 C428 0.929 . S
C420 H414 0.930 . S
C420 C421 1.367 . S
C420 C428 1.378 . S
C421 C420 1.367 . S
C421 C429 1.433 . S
C422 H418 0.929 . S
C422 C424 1.378 . S
C422 C426 1.350 . S
C423 C426 1.463 . S
C423 C428 1.350 . S
C423 N431 1.427 . S
C424 H415 0.930 . S
C424 C422 1.378 . S
C424 C425 1.367 . S
C425 C424 1.367 . S
C425 C427 1.433 . S
C426 C422 1.350 . S
C426 C423 1.463 . S
C426 N430 1.427 . S
C427 H417 0.929 . S
C427 C425 1.433 . S
C427 N430 1.384 . S
C428 H419 0.929 . S
C428 C420 1.378 . S
C428 C423 1.350 . S
C429 H416 0.929 . S
C429 C421 1.433 . S
C429 N431 1.384 . S
N430 C426 1.427 . S
N430 C427 1.384 . S
N431 C423 1.427 . S
N431 C429 1.384 . S
H432 C438 0.930 . S
H433 C442 0.930 . S
H434 C447 0.929 . S
H435 C445 0.929 . S
H436 C440 0.929 . S
H437 C446 0.929 . S
C438 H432 0.930 . S
C438 C439 1.367 . S
C438 C446 1.378 . S
C439 C438 1.367 . S
C439 C447 1.433 . S
C440 H436 0.929 . S
C440 C442 1.378 . S
C440 C444 1.350 . S
C441 C444 1.463 . S
C441 C446 1.350 . S
C441 N449 1.427 . S
C442 H433 0.930 . S
C442 C440 1.378 . S
C442 C443 1.367 . S
C443 C442 1.367 . S
C443 C445 1.433 . S
C444 C440 1.350 . S
C444 C441 1.463 . S
C444 N448 1.427 . S
C445 H435 0.929 . S
C445 C443 1.433 . S
C445 N448 1.384 . S
C446 H437 0.929 . S
C446 C438 1.378 . S
C446 C441 1.350 . S
C447 H434 0.929 . S
C447 C439 1.433 . S
C447 N449 1.384 . S
N448 C444 1.427 . S
N448 C445 1.384 . S
N449 C441 1.427 . S
N449 C447 1.384 . S
H450 C456 0.930 . S
H451 C460 0.930 . S
H452 C465 0.929 . S
H453 C463 0.929 . S
H454 C458 0.929 . S
H455 C464 0.929 . S
C456 H450 0.930 . S
C456 C457 1.367 . S
C456 C464 1.378 . S
C457 C456 1.367 . S
C457 C465 1.433 . S
C458 H454 0.929 . S
C458 C460 1.378 . S
C458 C462 1.350 . S
C459 C462 1.463 . S
C459 C464 1.350 . S
C459 N467 1.427 . S
C460 H451 0.930 . S
C460 C458 1.378 . S
C460 C461 1.367 . S
C461 C460 1.367 . S
C461 C463 1.433 . S
C462 C458 1.350 . S
C462 C459 1.463 . S
C462 N466 1.427 . S
C463 H453 0.929 . S
C463 C461 1.433 . S
C463 N466 1.384 . S
C464 H455 0.929 . S
C464 C456 1.378 . S
C464 C459 1.350 . S
C465 H452 0.929 . S
C465 C457 1.433 . S
C465 N467 1.384 . S
N466 C462 1.427 . S
N466 C463 1.384 . S
N467 C459 1.427 . S
N467 C465 1.384 . S
H468 C474 0.930 . S
H469 C478 0.930 . S
H470 C483 0.929 . S
H471 C481 0.929 . S
H472 C476 0.929 . S
H473 C482 0.929 . S
C474 H468 0.930 . S
C474 C475 1.367 . S
C474 C482 1.378 . S
C475 C474 1.367 . S
C475 C483 1.433 . S
C476 H472 0.929 . S
C476 C478 1.378 . S
C476 C480 1.350 . S
C477 C480 1.463 . S
C477 C482 1.350 . S
C477 N485 1.427 . S
C478 H469 0.930 . S
C478 C476 1.378 . S
C478 C479 1.367 . S
C479 C478 1.367 . S
C479 C481 1.433 . S
C480 C476 1.350 . S
C480 C477 1.463 . S
C480 N484 1.427 . S
C481 H471 0.929 . S
C481 C479 1.433 . S
C481 N484 1.384 . S
C482 H473 0.929 . S
C482 C474 1.378 . S
C482 C477 1.350 . S
C483 H470 0.929 . S
C483 C475 1.433 . S
C483 N485 1.384 . S
N484 C480 1.427 . S
N484 C481 1.384 . S
N485 C477 1.427 . S
N485 C483 1.384 . S
H486 C492 0.930 . S
H487 C496 0.930 . S
H488 C501 0.929 . S
H489 C499 0.929 . S
H490 C494 0.929 . S
H491 C500 0.929 . S
C492 H486 0.930 . S
C492 C493 1.367 . S
C492 C500 1.378 . S
C493 C492 1.367 . S
C493 C501 1.433 . S
C494 H490 0.929 . S
C494 C496 1.378 . S
C494 C498 1.350 . S
C495 C498 1.463 . S
C495 C500 1.350 . S
C495 N503 1.427 . S
C496 H487 0.930 . S
C496 C494 1.378 . S
C496 C497 1.367 . S
C497 C496 1.367 . S
C497 C499 1.433 . S
C498 C494 1.350 . S
C498 C495 1.463 . S
C498 N502 1.427 . S
C499 H489 0.929 . S
C499 C497 1.433 . S
C499 N502 1.384 . S
C500 H491 0.929 . S
C500 C492 1.378 . S
C500 C495 1.350 . S
C501 H488 0.929 . S
C501 C493 1.433 . S
C501 N503 1.384 . S
N502 C498 1.427 . S
N502 C499 1.384 . S
N503 C495 1.427 . S
N503 C501 1.384 . S
H504 C510 0.930 . S
H505 C514 0.930 . S
H506 C519 0.929 . S
H507 C517 0.929 . S
H508 C512 0.929 . S
H509 C518 0.929 . S
C510 H504 0.930 . S
C510 C511 1.367 . S
C510 C518 1.378 1_545 S
C511 C510 1.367 . S
C511 C519 1.433 1_554 S
C512 H508 0.929 . S
C512 C514 1.378 1_545 S
C512 C516 1.350 1_545 S
C513 C516 1.463 1_544 S
C513 C518 1.350 1_545 S
C513 N521 1.427 1_554 S
C514 H505 0.930 . S
C514 C512 1.378 1_565 S
C514 C515 1.367 . S
C515 C514 1.367 . S
C515 C517 1.433 1_556 S
C516 C512 1.350 1_565 S
C516 C513 1.463 1_566 S
C516 N520 1.427 1_556 S
C517 H507 0.929 . S
C517 C515 1.433 1_554 S
C517 N520 1.384 . S
C518 H509 0.929 . S
C518 C510 1.378 1_565 S
C518 C513 1.350 1_565 S
C519 H506 0.929 . S
C519 C511 1.433 1_556 S
C519 N521 1.384 . S
N520 C516 1.427 1_554 S
N520 C517 1.384 . S
N521 C513 1.427 1_556 S
N521 C519 1.384 . S
H522 C528 0.930 . S
H523 C532 0.930 . S
H524 C537 0.929 . S
H525 C535 0.929 . S
H526 C530 0.929 . S
H527 C536 0.929 . S
C528 H522 0.930 . S
C528 C529 1.367 1_556 S
C528 C536 1.378 . S
C529 C528 1.367 1_554 S
C529 C537 1.433 . S
C530 H526 0.929 . S
C530 C532 1.378 . S
C530 C534 1.350 1_554 S
C531 C534 1.463 1_654 S
C531 C536 1.350 1_554 S
C531 N539 1.427 1_655 S
C532 H523 0.930 . S
C532 C530 1.378 . S
C532 C533 1.367 1_554 S
C533 C532 1.367 1_556 S
C533 C535 1.433 . S
C534 C530 1.350 1_556 S
C534 C531 1.463 1_456 S
C534 N538 1.427 1_455 S
C535 H525 0.929 . S
C535 C533 1.433 . S
C535 N538 1.384 1_455 S
C536 H527 0.929 . S
C536 C528 1.378 . S
C536 C531 1.350 1_556 S
C537 H524 0.929 . S
C537 C529 1.433 . S
C537 N539 1.384 1_655 S
N538 C534 1.427 1_655 S
N538 C535 1.384 1_655 S
N539 C531 1.427 1_455 S
N539 C537 1.384 1_455 S
H540 C546 0.930 . S
H541 C550 0.930 . S
H542 C555 0.929 . S
H543 C553 0.929 . S
H544 C548 0.929 . S
H545 C554 0.929 . S
C546 H540 0.930 . S
C546 C547 1.367 1_554 S
C546 C554 1.378 . S
C547 C546 1.367 1_556 S
C547 C555 1.433 . S
C548 H544 0.929 . S
C548 C550 1.378 . S
C548 C552 1.332 1_556 S
C549 C552 1.461 1_556 S
C549 C554 1.332 1_556 S
C549 N557 1.448 . S
C550 H541 0.930 . S
C550 C548 1.378 . S
C550 C551 1.367 1_556 S
C551 C550 1.367 1_554 S
C551 C553 1.433 . S
C552 C548 1.332 1_554 S
C552 C549 1.461 1_554 S
C552 N556 1.448 . S
C553 H543 0.929 . S
C553 C551 1.433 . S
C553 N556 1.384 . S
C554 H545 0.929 . S
C554 C546 1.378 . S
C554 C549 1.332 1_554 S
C555 H542 0.929 . S
C555 C547 1.433 . S
C555 N557 1.384 . S
N556 C552 1.448 . S
N556 C553 1.384 . S
N557 C549 1.448 . S
N557 C555 1.384 . S
H558 C564 0.931 1_655 S
H559 C568 0.931 1_455 S
H560 C573 0.929 . S
H561 C571 0.929 . S
H562 C566 0.929 . S
H563 C572 0.929 . S
C564 H558 0.931 1_455 S
C564 C565 1.367 . S
C564 C572 1.378 1_455 S
C565 C564 1.367 . S
C565 C573 1.433 . S
C566 H562 0.929 . S
C566 C568 1.378 1_455 S
C566 C570 1.350 1_455 S
C567 C570 1.463 1_455 S
C567 C572 1.350 1_455 S
C567 N575 1.427 . S
C568 H559 0.931 1_655 S
C568 C566 1.378 1_655 S
C568 C569 1.367 . S
C569 C568 1.367 . S
C569 C571 1.433 . S
C570 C566 1.350 1_655 S
C570 C567 1.463 1_655 S
C570 N574 1.427 . S
C571 H561 0.929 . S
C571 C569 1.433 . S
C571 N574 1.384 . S
C572 H563 0.929 . S
C572 C564 1.378 1_655 S
C572 C567 1.350 1_655 S
C573 H560 0.929 . S
C573 C565 1.433 . S
C573 N575 1.384 . S
N574 C570 1.427 . S
N574 C571 1.384 . S
N575 C567 1.427 . S
N575 C573 1.384 . S
H576 C582 0.930 . S
H577 C586 0.930 . S
H578 C591 0.929 . S
H579 C589 0.929 . S
H580 C584 0.929 . S
H581 C590 0.929 . S
C582 H576 0.930 . S
C582 C583 1.367 . S
C582 C590 1.378 . S
C583 C582 1.367 . S
C583 C591 1.433 . S
C584 H580 0.929 . S
C584 C586 1.378 . S
C584 C588 1.350 . S
C585 C588 1.463 . S
C585 C590 1.350 . S
C585 N593 1.427 . S
C586 H577 0.930 . S
C586 C584 1.378 . S
C586 C587 1.367 . S
C587 C586 1.367 . S
C587 C589 1.433 . S
C588 C584 1.350 . S
C588 C585 1.463 . S
C588 N592 1.427 . S
C589 H579 0.929 . S
C589 C587 1.433 . S
C589 N592 1.384 . S
C590 H581 0.929 . S
C590 C582 1.378 . S
C590 C585 1.350 . S
C591 H578 0.929 . S
C591 C583 1.433 . S
C591 N593 1.384 . S
N592 C588 1.427 . S
N592 C589 1.384 . S
N593 C585 1.427 . S
N593 C591 1.384 . S
H594 C600 0.930 . S
H595 C604 0.930 . S
H596 C609 0.929 . S
H597 C607 0.929 . S
H598 C602 0.929 . S
H599 C608 0.929 . S
C600 H594 0.930 . S
C600 C601 1.367 . S
C600 C608 1.378 . S
C601 C600 1.367 . S
C601 C609 1.433 . S
C602 H598 0.929 . S
C602 C604 1.378 . S
C602 C606 1.350 . S
C603 C606 1.463 1_545 S
C603 C608 1.350 . S
C603 N611 1.427 . S
C604 H595 0.930 . S
C604 C602 1.378 . S
C604 C605 1.367 . S
C605 C604 1.367 . S
C605 C607 1.433 . S
C606 C602 1.350 . S
C606 C603 1.463 1_565 S
C606 N610 1.427 . S
C607 H597 0.929 . S
C607 C605 1.433 . S
C607 N610 1.384 . S
C608 H599 0.929 . S
C608 C600 1.378 . S
C608 C603 1.350 . S
C609 H596 0.929 . S
C609 C601 1.433 . S
C609 N611 1.384 . S
N610 C606 1.427 . S
N610 C607 1.384 . S
N611 C603 1.427 . S
N611 C609 1.384 . S
H612 C618 0.930 . S
H613 C622 0.930 . S
H614 C627 0.929 . S
H615 C625 0.929 . S
H616 C620 0.929 . S
H617 C626 0.929 . S
C618 H612 0.930 . S
C618 C619 1.367 . S
C618 C626 1.378 . S
C619 C618 1.367 . S
C619 C627 1.433 . S
C620 H616 0.929 . S
C620 C622 1.378 . S
C620 C624 1.350 . S
C621 C624 1.463 . S
C621 C626 1.350 . S
C621 N629 1.427 . S
C622 H613 0.930 . S
C622 C620 1.378 . S
C622 C623 1.367 . S
C623 C622 1.367 . S
C623 C625 1.433 . S
C624 C620 1.350 . S
C624 C621 1.463 . S
C624 N628 1.427 . S
C625 H615 0.929 . S
C625 C623 1.433 . S
C625 N628 1.384 . S
C626 H617 0.929 . S
C626 C618 1.378 . S
C626 C621 1.350 . S
C627 H614 0.929 . S
C627 C619 1.433 . S
C627 N629 1.384 . S
N628 C624 1.427 . S
N628 C625 1.384 . S
N629 C621 1.427 . S
N629 C627 1.384 . S
H630 C636 0.930 . S
H631 C640 0.930 . S
H632 C645 0.929 . S
H633 C643 0.929 . S
H634 C638 0.929 . S
H635 C644 0.929 . S
C636 H630 0.930 . S
C636 C637 1.367 . S
C636 C644 1.378 . S
C637 C636 1.367 . S
C637 C645 1.433 . S
C638 H634 0.929 . S
C638 C640 1.378 . S
C638 C642 1.350 . S
C639 C642 1.463 . S
C639 C644 1.350 . S
C639 N647 1.427 . S
C640 H631 0.930 . S
C640 C638 1.378 . S
C640 C641 1.367 . S
C641 C640 1.367 . S
C641 C643 1.433 . S
C642 C638 1.350 . S
C642 C639 1.463 . S
C642 N646 1.427 . S
C643 H633 0.929 . S
C643 C641 1.433 . S
C643 N646 1.384 . S
C644 H635 0.929 . S
C644 C636 1.378 . S
C644 C639 1.350 . S
C645 H632 0.929 . S
C645 C637 1.433 . S
C645 N647 1.384 . S
N646 C642 1.427 . S
N646 C643 1.384 . S
N647 C639 1.427 . S
N647 C645 1.384 . S
H648 C654 0.930 . S
H649 C658 0.930 . S
H650 C663 0.929 . S
H651 C661 0.929 . S
H652 C656 0.929 . S
H653 C662 0.929 . S
C654 H648 0.930 . S
C654 C655 1.367 . S
C654 C662 1.378 . S
C655 C654 1.367 . S
C655 C663 1.433 . S
C656 H652 0.929 . S
C656 C658 1.378 . S
C656 C660 1.350 . S
C657 C660 1.463 . S
C657 C662 1.350 . S
C657 N665 1.427 . S
C658 H649 0.930 . S
C658 C656 1.378 . S
C658 C659 1.367 . S
C659 C658 1.367 . S
C659 C661 1.433 . S
C660 C656 1.350 . S
C660 C657 1.463 . S
C660 N664 1.427 . S
C661 H651 0.929 . S
C661 C659 1.433 . S
C661 N664 1.384 . S
C662 H653 0.929 . S
C662 C654 1.378 . S
C662 C657 1.350 . S
C663 H650 0.929 . S
C663 C655 1.433 . S
C663 N665 1.384 . S
N664 C660 1.427 . S
N664 C661 1.384 . S
N665 C657 1.427 . S
N665 C663 1.384 . S
H666 C672 0.930 . S
H667 C676 0.930 . S
H668 C681 0.929 . S
H669 C679 0.929 . S
H670 C674 0.929 . S
H671 C680 0.929 . S
C672 H666 0.930 . S
C672 C673 1.367 . S
C672 C680 1.378 . S
C673 C672 1.367 . S
C673 C681 1.433 . S
C674 H670 0.929 . S
C674 C676 1.378 . S
C674 C678 1.350 . S
C675 C678 1.463 . S
C675 C680 1.350 . S
C675 N683 1.427 . S
C676 H667 0.930 . S
C676 C674 1.378 . S
C676 C677 1.367 . S
C677 C676 1.367 . S
C677 C679 1.433 . S
C678 C674 1.350 . S
C678 C675 1.463 . S
C678 N682 1.427 . S
C679 H669 0.929 . S
C679 C677 1.433 . S
C679 N682 1.384 . S
C680 H671 0.929 . S
C680 C672 1.378 . S
C680 C675 1.350 . S
C681 H668 0.929 . S
C681 C673 1.433 . S
C681 N683 1.384 . S
N682 C678 1.427 . S
N682 C679 1.384 . S
N683 C675 1.427 . S
N683 C681 1.384 . S
H684 C690 0.930 . S
H685 C694 0.930 . S
H686 C699 0.929 . S
H687 C697 0.929 . S
H688 C692 0.929 . S
H689 C698 0.929 . S
C690 H684 0.930 . S
C690 C691 1.367 . S
C690 C698 1.378 . S
C691 C690 1.367 . S
C691 C699 1.433 . S
C692 H688 0.929 . S
C692 C694 1.378 . S
C692 C696 1.350 . S
C693 C696 1.463 . S
C693 C698 1.350 . S
C693 N701 1.427 . S
C694 H685 0.930 . S
C694 C692 1.378 . S
C694 C695 1.367 . S
C695 C694 1.367 . S
C695 C697 1.433 . S
C696 C692 1.350 . S
C696 C693 1.463 . S
C696 N700 1.427 . S
C697 H687 0.929 . S
C697 C695 1.433 . S
C697 N700 1.384 . S
C698 H689 0.929 . S
C698 C690 1.378 . S
C698 C693 1.350 . S
C699 H686 0.929 . S
C699 C691 1.433 . S
C699 N701 1.384 . S
N700 C696 1.427 . S
N700 C697 1.384 . S
N701 C693 1.427 . S
N701 C699 1.384 . S
H702 C708 0.930 . S
H703 C712 0.930 . S
H704 C717 0.929 . S
H705 C715 0.929 . S
H706 C710 0.929 . S
H707 C716 0.929 . S
C708 H702 0.930 . S
C708 C709 1.367 . S
C708 C716 1.378 . S
C709 C708 1.367 . S
C709 C717 1.433 . S
C710 H706 0.929 . S
C710 C712 1.378 . S
C710 C714 1.350 . S
C711 C714 1.463 . S
C711 C716 1.350 . S
C711 N719 1.427 . S
C712 H703 0.930 . S
C712 C710 1.378 . S
C712 C713 1.367 . S
C713 C712 1.367 . S
C713 C715 1.433 . S
C714 C710 1.350 . S
C714 C711 1.463 . S
C714 N718 1.427 . S
C715 H705 0.929 . S
C715 C713 1.433 . S
C715 N718 1.384 . S
C716 H707 0.929 . S
C716 C708 1.378 . S
C716 C711 1.350 . S
C717 H704 0.929 . S
C717 C709 1.433 . S
C717 N719 1.384 . S
N718 C714 1.427 . S
N718 C715 1.384 . S
N719 C711 1.427 . S
N719 C717 1.384 . S
H720 C726 0.930 . S
H721 C730 0.930 . S
H722 C735 0.929 . S
H723 C733 0.929 . S
H724 C728 0.929 . S
H725 C734 0.929 . S
C726 H720 0.930 . S
C726 C727 1.367 . S
C726 C734 1.378 . S
C727 C726 1.367 . S
C727 C735 1.433 . S
C728 H724 0.929 . S
C728 C730 1.378 . S
C728 C732 1.350 . S
C729 C732 1.463 . S
C729 C734 1.350 . S
C729 N737 1.427 . S
C730 H721 0.930 . S
C730 C728 1.378 . S
C730 C731 1.367 . S
C731 C730 1.367 . S
C731 C733 1.433 . S
C732 C728 1.350 . S
C732 C729 1.463 . S
C732 N736 1.427 . S
C733 H723 0.929 . S
C733 C731 1.433 . S
C733 N736 1.384 . S
C734 H725 0.929 . S
C734 C726 1.378 . S
C734 C729 1.350 . S
C735 H722 0.929 . S
C735 C727 1.433 . S
C735 N737 1.384 . S
N736 C732 1.427 . S
N736 C733 1.384 . S
N737 C729 1.427 . S
N737 C735 1.384 . S
H738 C744 0.930 . S
H739 C748 0.930 . S
H740 C753 0.929 . S
H741 C751 0.929 . S
H742 C746 0.929 . S
H743 C752 0.929 . S
C744 H738 0.930 . S
C744 C745 1.367 . S
C744 C752 1.378 . S
C745 C744 1.367 . S
C745 C753 1.433 . S
C746 H742 0.929 . S
C746 C748 1.378 . S
C746 C750 1.350 . S
C747 C750 1.463 . S
C747 C752 1.350 . S
C747 N755 1.427 . S
C748 H739 0.930 . S
C748 C746 1.378 . S
C748 C749 1.367 . S
C749 C748 1.367 . S
C749 C751 1.433 . S
C750 C746 1.350 . S
C750 C747 1.463 . S
C750 N754 1.427 . S
C751 H741 0.929 . S
C751 C749 1.433 . S
C751 N754 1.384 . S
C752 H743 0.929 . S
C752 C744 1.378 . S
C752 C747 1.350 . S
C753 H740 0.929 . S
C753 C745 1.433 . S
C753 N755 1.384 . S
N754 C750 1.427 . S
N754 C751 1.384 . S
N755 C747 1.427 . S
N755 C753 1.384 . S
H756 C762 0.930 . S
H757 C766 0.930 . S
H758 C771 0.936 . S
H759 C769 0.929 . S
H760 C764 0.929 . S
H761 C770 0.929 . S
C762 H756 0.930 . S
C762 C763 1.367 . S
C762 C770 1.378 . S
C763 C762 1.367 . S
C763 C771 1.433 . S
C764 H760 0.929 . S
C764 C766 1.378 . S
C764 C768 1.350 . S
C765 C768 1.463 . S
C765 C770 1.350 . S
C765 N773 1.427 . S
C766 H757 0.930 . S
C766 C764 1.378 . S
C766 C767 1.367 . S
C767 C766 1.367 . S
C767 C769 1.433 . S
C768 C764 1.350 . S
C768 C765 1.463 . S
C768 N772 1.427 . S
C769 H759 0.929 . S
C769 C767 1.433 . S
C769 N772 1.384 . S
C770 H761 0.929 . S
C770 C762 1.378 . S
C770 C765 1.350 . S
C771 H758 0.936 . S
C771 C763 1.433 . S
C771 N773 1.384 . S
N772 C768 1.427 . S
N772 C769 1.384 . S
N773 C765 1.427 . S
N773 C771 1.384 . S
H774 C780 0.930 . S
H775 C784 0.930 . S
H776 C789 0.929 . S
H777 C787 0.929 . S
H778 C782 0.929 . S
H779 C788 0.929 . S
C780 H774 0.930 . S
C780 C781 1.367 . S
C780 C788 1.378 . S
C781 C780 1.367 . S
C781 C789 1.433 . S
C782 H778 0.929 . S
C782 C784 1.378 . S
C782 C786 1.350 . S
C783 C786 1.463 . S
C783 C788 1.350 . S
C783 N791 1.427 . S
C784 H775 0.930 . S
C784 C782 1.378 . S
C784 C785 1.367 . S
C785 C784 1.367 . S
C785 C787 1.433 . S
C786 C782 1.350 . S
C786 C783 1.463 . S
C786 N790 1.427 . S
C787 H777 0.929 . S
C787 C785 1.433 . S
C787 N790 1.384 . S
C788 H779 0.929 . S
C788 C780 1.378 . S
C788 C783 1.350 . S
C789 H776 0.929 . S
C789 C781 1.433 . S
C789 N791 1.384 . S
N790 C786 1.427 . S
N790 C787 1.384 . S
N791 C783 1.427 . S
N791 C789 1.384 . S
H792 C798 0.930 . S
H793 C802 0.930 . S
H794 C807 0.929 . S
H795 C805 0.929 . S
H796 C800 0.929 . S
H797 C806 0.929 . S
C798 H792 0.930 . S
C798 C799 1.367 . S
C798 C806 1.378 . S
C799 C798 1.367 . S
C799 C807 1.433 . S
C800 H796 0.929 . S
C800 C802 1.378 . S
C800 C804 1.350 . S
C801 C804 1.463 . S
C801 C806 1.350 . S
C801 N809 1.427 . S
C802 H793 0.930 . S
C802 C800 1.378 . S
C802 C803 1.367 . S
C803 C802 1.367 . S
C803 C805 1.433 . S
C804 C800 1.350 . S
C804 C801 1.463 . S
C804 N808 1.427 . S
C805 H795 0.929 . S
C805 C803 1.433 . S
C805 N808 1.384 . S
C806 H797 0.929 . S
C806 C798 1.378 . S
C806 C801 1.350 . S
C807 H794 0.929 . S
C807 C799 1.433 . S
C807 N809 1.384 . S
N808 C804 1.427 . S
N808 C805 1.384 . S
N809 C801 1.427 . S
N809 C807 1.384 . S
H810 C816 0.930 . S
H811 C820 0.930 . S
H812 C825 0.929 . S
H813 C823 0.929 . S
H814 C818 0.929 . S
H815 C824 0.929 . S
C816 H810 0.930 . S
C816 C817 1.367 . S
C816 C824 1.378 . S
C817 C816 1.367 . S
C817 C825 1.433 . S
C818 H814 0.929 . S
C818 C820 1.378 . S
C818 C822 1.350 . S
C819 C822 1.463 . S
C819 C824 1.350 . S
C819 N827 1.427 . S
C820 H811 0.930 . S
C820 C818 1.378 . S
C820 C821 1.367 . S
C821 C820 1.367 . S
C821 C823 1.433 . S
C822 C818 1.350 . S
C822 C819 1.463 . S
C822 N826 1.427 . S
C823 H813 0.929 . S
C823 C821 1.433 . S
C823 N826 1.384 . S
C824 H815 0.929 . S
C824 C816 1.378 . S
C824 C819 1.350 . S
C825 H812 0.929 . S
C825 C817 1.433 . S
C825 N827 1.384 . S
N826 C822 1.427 . S
N826 C823 1.384 . S
N827 C819 1.427 . S
N827 C825 1.384 . S
H828 C834 0.930 . S
H829 C838 0.930 . S
H830 C843 0.923 1_554 S
H831 C841 0.929 . S
H832 C836 0.929 . S
H833 C842 0.929 . S
C834 H828 0.930 . S
C834 C835 1.367 . S
C834 C842 1.378 . S
C835 C834 1.367 . S
C835 C843 1.438 . S
C836 H832 0.929 . S
C836 C838 1.378 . S
C836 C840 1.350 . S
C837 C840 1.463 . S
C837 C842 1.350 . S
C837 N845 1.427 . S
C838 H829 0.930 . S
C838 C836 1.378 . S
C838 C839 1.367 . S
C839 C838 1.367 . S
C839 C841 1.433 . S
C840 C836 1.350 . S
C840 C837 1.463 . S
C840 N844 1.427 . S
C841 H831 0.929 . S
C841 C839 1.433 . S
C841 N844 1.384 . S
C842 H833 0.929 . S
C842 C834 1.378 . S
C842 C837 1.350 . S
C843 H830 0.923 1_556 S
C843 C835 1.438 . S
C843 N845 1.385 . S
N844 C840 1.427 . S
N844 C841 1.384 . S
N845 C837 1.427 . S
N845 C843 1.385 . S
H846 C852 0.930 . S
H847 C856 0.930 . S
H848 C861 0.929 . S
H849 C859 0.929 . S
H850 C854 0.929 1_554 S
H851 C860 0.929 . S
C852 H846 0.930 . S
C852 C853 1.367 . S
C852 C860 1.378 . S
C853 C852 1.367 . S
C853 C861 1.433 . S
C854 H850 0.929 1_556 S
C854 C856 1.378 1_556 S
C854 C858 1.350 . S
C855 C858 1.463 . S
C855 C860 1.350 . S
C855 N863 1.427 . S
C856 H847 0.930 . S
C856 C854 1.378 1_554 S
C856 C857 1.367 1_554 S
C857 C856 1.367 1_556 S
C857 C859 1.433 . S
C858 C854 1.350 . S
C858 C855 1.463 . S
C858 N862 1.427 . S
C859 H849 0.929 . S
C859 C857 1.433 . S
C859 N862 1.384 . S
C860 H851 0.929 . S
C860 C852 1.378 . S
C860 C855 1.350 . S
C861 H848 0.929 . S
C861 C853 1.433 . S
C861 N863 1.384 . S
N862 C858 1.427 . S
N862 C859 1.384 . S
N863 C855 1.427 . S
N863 C861 1.384 . S
H864 C870 0.930 1_554 S
H865 C874 0.930 . S
H866 C879 0.929 . S
H867 C877 0.929 . S
H868 C872 0.929 . S
H869 C878 0.929 . S
C870 H864 0.930 1_556 S
C870 C871 1.367 . S
C870 C878 1.378 . S
C871 C870 1.367 . S
C871 C879 1.433 . S
C872 H868 0.929 . S
C872 C874 1.378 . S
C872 C876 1.350 . S
C873 C876 1.463 . S
C873 C878 1.350 . S
C873 N881 1.427 . S
C874 H865 0.930 . S
C874 C872 1.378 . S
C874 C875 1.367 . S
C875 C874 1.367 . S
C875 C877 1.433 . S
C876 C872 1.350 . S
C876 C873 1.463 . S
C876 N880 1.427 . S
C877 H867 0.929 . S
C877 C875 1.433 . S
C877 N880 1.384 . S
C878 H869 0.929 . S
C878 C870 1.378 . S
C878 C873 1.350 . S
C879 H866 0.929 . S
C879 C871 1.433 . S
C879 N881 1.384 . S
N880 C876 1.427 . S
N880 C877 1.384 . S
N881 C873 1.427 . S
N881 C879 1.384 . S
H882 C888 0.930 . S
H883 C892 0.930 . S
H884 C897 0.929 . S
H885 C895 0.929 . S
H886 C890 0.929 . S
H887 C896 0.929 . S
C888 H882 0.930 . S
C888 C889 1.367 . S
C888 C896 1.378 . S
C889 C888 1.367 . S
C889 C897 1.433 . S
C890 H886 0.929 . S
C890 C892 1.378 . S
C890 C894 1.350 . S
C891 C894 1.463 . S
C891 C896 1.350 . S
C891 N899 1.427 . S
C892 H883 0.930 . S
C892 C890 1.378 . S
C892 C893 1.367 . S
C893 C892 1.367 . S
C893 C895 1.433 . S
C894 C890 1.350 . S
C894 C891 1.463 . S
C894 N898 1.427 . S
C895 H885 0.929 . S
C895 C893 1.433 . S
C895 N898 1.384 . S
C896 H887 0.929 . S
C896 C888 1.378 . S
C896 C891 1.350 . S
C897 H884 0.929 . S
C897 C889 1.433 . S
C897 N899 1.384 . S
N898 C894 1.427 . S
N898 C895 1.384 . S
N899 C891 1.427 . S
N899 C897 1.384 . S
H900 C906 0.930 . S
H901 C910 0.930 . S
H902 C915 0.929 . S
H903 C913 0.929 . S
H904 C908 0.929 . S
H905 C914 0.929 . S
C906 H900 0.930 . S
C906 C907 1.367 . S
C906 C914 1.378 . S
C907 C906 1.367 . S
C907 C915 1.433 . S
C908 H904 0.929 . S
C908 C910 1.378 . S
C908 C912 1.350 . S
C909 C912 1.463 . S
C909 C914 1.350 . S
C909 N917 1.427 . S
C910 H901 0.930 . S
C910 C908 1.378 . S
C910 C911 1.367 . S
C911 C910 1.367 . S
C911 C913 1.433 . S
C912 C908 1.350 . S
C912 C909 1.463 . S
C912 N916 1.427 . S
C913 H903 0.929 . S
C913 C911 1.433 . S
C913 N916 1.384 . S
C914 H905 0.929 . S
C914 C906 1.378 . S
C914 C909 1.350 . S
C915 H902 0.929 . S
C915 C907 1.433 . S
C915 N917 1.384 . S
N916 C912 1.427 . S
N916 C913 1.384 . S
N917 C909 1.427 . S
N917 C915 1.384 . S
H918 C924 0.930 . S
H919 C928 0.930 . S
H920 C933 0.929 . S
H921 C931 0.929 . S
H922 C926 0.929 . S
H923 C932 0.929 . S
C924 H918 0.930 . S
C924 C925 1.367 . S
C924 C932 1.378 . S
C925 C924 1.367 . S
C925 C933 1.433 . S
C926 H922 0.929 . S
C926 C928 1.378 . S
C926 C930 1.350 . S
C927 C930 1.463 . S
C927 C932 1.350 . S
C927 N935 1.427 . S
C928 H919 0.930 . S
C928 C926 1.378 . S
C928 C929 1.367 . S
C929 C928 1.367 . S
C929 C931 1.433 . S
C930 C926 1.350 . S
C930 C927 1.463 . S
C930 N934 1.427 . S
C931 H921 0.929 . S
C931 C929 1.433 . S
C931 N934 1.384 . S
C932 H923 0.929 . S
C932 C924 1.378 . S
C932 C927 1.350 . S
C933 H920 0.929 . S
C933 C925 1.433 . S
C933 N935 1.384 . S
N934 C930 1.427 . S
N934 C931 1.384 . S
N935 C927 1.427 . S
N935 C933 1.384 . S
C403 C173 1.578 . S
C407 C8 1.577 . S
C421 C41 1.580 . S
C425 C107 1.580 . S
C439 C74 1.582 . S
C443 C140 1.582 . S
C457 C206 1.577 . S
C461 C371 1.577 . S
C475 C305 1.582 . S
C479 C239 1.582 . S
C493 C338 1.577 . S
C497 C272 1.578 . S
C511 C17 2.180 . S
C515 C215 2.180 . S
C529 C50 2.171 . S
C533 C248 2.171 . S
C547 C281 2.183 . S
C551 C83 2.183 . S
C565 C314 2.185 . S
C569 C116 2.185 . S
C583 C149 2.177 . S
C587 C347 2.177 . S
C601 C182 2.177 . S
C605 C380 2.177 . S
C619 N146 1.787 . S
C623 N14 1.798 . S
C637 N179 1.798 . S
C641 N47 1.786 . S
C655 N113 1.797 . S
C659 N80 1.794 . S
C673 N212 1.799 . S
C677 N344 1.788 . S
C691 N245 1.794 . S
C695 N377 1.783 . S
C709 N311 1.783 . S
C713 N278 1.795 . S
C727 C28 0.439 . S
C731 N71 0.684 . S
C745 C61 0.404 . S
C749 N5 0.687 . S
C763 N38 0.679 . S
C767 C94 0.441 . S
C781 C127 0.442 . S
C785 N137 0.671 . S
C799 N170 0.661 . S
C803 C160 0.434 . S
C817 N104 0.714 . S
C821 C193 0.415 . S
C835 N269 0.671 . S
C839 C226 0.442 . S
C853 C259 0.421 . S
C857 N203 0.709 . S
C871 N236 0.705 . S
C875 C292 0.398 . S
C889 N335 0.685 . S
C893 C325 0.406 . S
C907 N368 0.709 . S
C911 C358 0.398 . S
C925 C391 0.429 . S
C929 N302 0.662 . S
