# Generated by pormake.
# Topology acs-i, (5)-cn, num edge types: 1
# Building blocks:
#     Node 0, Type 0, BuildingBlock: XOMCOT_clean_sbu_1, # of connection points: 5
#     Node 1, Type 0, BuildingBlock: XOMCOT_clean_sbu_1, # of connection points: 5
#     Node 2, Type 0, BuildingBlock: XOMCOT_clean_sbu_1, # of connection points: 5
#     Node 3, Type 0, BuildingBlock: XOMCOT_clean_sbu_1, # of connection points: 5
#     Node 4, Type 0, BuildingBlock: XOMCOT_clean_sbu_1, # of connection points: 5
#     Node 5, Type 0, BuildingBlock: XOMCOT_clean_sbu_1, # of connection points: 5
#     Node 6, Type 0, BuildingBlock: XOMCOT_clean_sbu_1, # of connection points: 5
#     Node 7, Type 0, BuildingBlock: XOMCOT_clean_sbu_1, # of connection points: 5
#     Node 8, Type 0, BuildingBlock: XOMCOT_clean_sbu_1, # of connection points: 5
#     Node 9, Type 0, BuildingBlock: XOMCOT_clean_sbu_1, # of connection points: 5
#     Node 10, Type 0, BuildingBlock: XOMCOT_clean_sbu_1, # of connection points: 5
#     Node 11, Type 0, BuildingBlock: XOMCOT_clean_sbu_1, # of connection points: 5
#     Edge 12, Type (0, 0), BuildingBlock: ZUJKAS_clean_linker_0, # of connection points: 2
#     Edge 13, Type (0, 0), BuildingBlock: ZUJKAS_clean_linker_0, # of connection points: 2
#     Edge 14, Type (0, 0), BuildingBlock: ZUJKAS_clean_linker_0, # of connection points: 2
#     Edge 15, Type (0, 0), BuildingBlock: ZUJKAS_clean_linker_0, # of connection points: 2
#     Edge 16, Type (0, 0), BuildingBlock: ZUJKAS_clean_linker_0, # of connection points: 2
#     Edge 17, Type (0, 0), BuildingBlock: ZUJKAS_clean_linker_0, # of connection points: 2
#     Edge 18, Type (0, 0), BuildingBlock: ZUJKAS_clean_linker_0, # of connection points: 2
#     Edge 19, Type (0, 0), BuildingBlock: ZUJKAS_clean_linker_0, # of connection points: 2
#     Edge 20, Type (0, 0), BuildingBlock: ZUJKAS_clean_linker_0, # of connection points: 2
#     Edge 21, Type (0, 0), BuildingBlock: ZUJKAS_clean_linker_0, # of connection points: 2
#     Edge 22, Type (0, 0), BuildingBlock: ZUJKAS_clean_linker_0, # of connection points: 2
#     Edge 23, Type (0, 0), BuildingBlock: ZUJKAS_clean_linker_0, # of connection points: 2
#     Edge 24, Type (0, 0), BuildingBlock: ZUJKAS_clean_linker_0, # of connection points: 2
#     Edge 25, Type (0, 0), BuildingBlock: ZUJKAS_clean_linker_0, # of connection points: 2
#     Edge 26, Type (0, 0), BuildingBlock: ZUJKAS_clean_linker_0, # of connection points: 2
#     Edge 27, Type (0, 0), BuildingBlock: ZUJKAS_clean_linker_0, # of connection points: 2
#     Edge 28, Type (0, 0), BuildingBlock: ZUJKAS_clean_linker_0, # of connection points: 2
#     Edge 29, Type (0, 0), BuildingBlock: ZUJKAS_clean_linker_0, # of connection points: 2
#     Edge 30, Type (0, 0), BuildingBlock: ZUJKAS_clean_linker_0, # of connection points: 2
#     Edge 31, Type (0, 0), BuildingBlock: ZUJKAS_clean_linker_0, # of connection points: 2
#     Edge 32, Type (0, 0), BuildingBlock: ZUJKAS_clean_linker_0, # of connection points: 2
#     Edge 33, Type (0, 0), BuildingBlock: ZUJKAS_clean_linker_0, # of connection points: 2
#     Edge 34, Type (0, 0), BuildingBlock: ZUJKAS_clean_linker_0, # of connection points: 2
#     Edge 35, Type (0, 0), BuildingBlock: ZUJKAS_clean_linker_0, # of connection points: 2
#     Edge 36, Type (0, 0), BuildingBlock: ZUJKAS_clean_linker_0, # of connection points: 2
#     Edge 37, Type (0, 0), BuildingBlock: ZUJKAS_clean_linker_0, # of connection points: 2
#     Edge 38, Type (0, 0), BuildingBlock: ZUJKAS_clean_linker_0, # of connection points: 2
#     Edge 39, Type (0, 0), BuildingBlock: ZUJKAS_clean_linker_0, # of connection points: 2
#     Edge 40, Type (0, 0), BuildingBlock: ZUJKAS_clean_linker_0, # of connection points: 2
#     Edge 41, Type (0, 0), BuildingBlock: ZUJKAS_clean_linker_0, # of connection points: 2
# Relax obj value: 0.851
# Max RMSD: 0.195
# Mean RMSD: 0.195
data_MOF--net-acs-i--node1-XOMCOT_clean_sbu_1--edge1-ZUJKAS_clean_linker_0
_symmetry_space_group_name_H-M    P1
_symmetry_Int_Tables_number       1
_symmetry_cell_setting            triclinic
loop_
_symmetry_equiv_pos_as_xyz
'x, y, z'
_cell_length_a     55.728226
_cell_length_b     55.728993
_cell_length_c     58.870547
_cell_angle_alpha  89.958202
_cell_angle_beta   90.011424
_cell_angle_gamma 119.9915
loop_
_atom_site_label
_atom_site_type_symbol
_atom_site_fract_x
_atom_site_fract_y
_atom_site_fract_z
_atom_type_partial_charge
C0 C 0.30595 0.48671 0.09469 0.0
C1 C 0.32542 0.51451 0.09338 0.0
N2 N 0.34572 0.51978 0.10841 0.0
N3 N 0.31384 0.47469 0.11063 0.0
C4 C 0.33824 0.49534 0.1185 0.0
H5 H 0.28704 0.47606 0.08491 0.0
Co6 Co 0.29415 0.43813 0.12048 0.0
C7 C 0.32339 0.44061 0.16467 0.0
O8 O 0.32041 0.41571 0.16375 0.0
N9 N 0.27389 0.4013 0.13033 0.0
C10 C 0.24906 0.35526 0.13247 0.0
C11 C 0.26612 0.37747 0.11892 0.0
C12 C 0.26108 0.39296 0.15062 0.0
N13 N 0.24608 0.36514 0.15244 0.0
O14 O 0.26782 0.44582 0.13384 0.0
H15 H 0.27151 0.37596 0.1016 0.0
H16 H 0.26187 0.40715 0.16353 0.0
O17 O 0.31416 0.4492 0.14871 0.0
C18 C 0.24693 0.44267 0.1227 0.0
O19 O 0.2414 0.42995 0.10298 0.0
N20 N 0.3202 0.43168 0.10614 0.0
C21 C 0.3572 0.42861 0.07635 0.0
C22 C 0.36561 0.43891 0.09834 0.0
C23 C 0.34672 0.4403 0.11308 0.0
C24 C 0.31202 0.42214 0.08464 0.0
C25 C 0.32997 0.4198 0.06961 0.0
H26 H 0.35421 0.44994 0.12934 0.0
H27 H 0.29159 0.41717 0.07893 0.0
H28 H 0.35009 0.49278 0.13185 0.0
H29 H 0.32467 0.52961 0.08228 0.0
H30 H 0.23921 0.33359 0.12783 0.0
H31 H 0.38678 0.44653 0.1038 0.0
H32 H 0.32308 0.41254 0.05248 0.0
C33 C 0.82807 0.31755 0.60245 0.0
C34 C 0.81741 0.33482 0.59866 0.0
N35 N 0.81396 0.34398 0.61892 0.0
N36 N 0.8314 0.31596 0.62496 0.0
C37 C 0.82219 0.33185 0.63451 0.0
H38 H 0.83414 0.30774 0.58962 0.0
Co39 Co 0.84852 0.29841 0.63866 0.0
C40 C 0.87167 0.33161 0.68152 0.0
O41 O 0.89565 0.33273 0.67956 0.0
N42 N 0.86585 0.27989 0.65229 0.0
C43 C 0.89636 0.26851 0.66585 0.0
C44 C 0.89318 0.28833 0.65452 0.0
C45 C 0.85304 0.25448 0.66204 0.0
N46 N 0.87102 0.24717 0.67023 0.0
O47 O 0.8131 0.27061 0.64889 0.0
H48 H 0.91008 0.30805 0.64895 0.0
H49 H 0.8309 0.24167 0.66406 0.0
O50 O 0.85285 0.31889 0.66662 0.0
C51 C 0.79947 0.25085 0.63505 0.0
O52 O 0.81185 0.24923 0.61659 0.0
N53 N 0.88203 0.32575 0.6266 0.0
C54 C 0.91972 0.36336 0.59562 0.0
C55 C 0.91165 0.37273 0.61464 0.0
C56 C 0.89247 0.3535 0.62988 0.0
C57 C 0.89082 0.31643 0.60889 0.0
C58 C 0.91006 0.33491 0.59343 0.0
H59 H 0.88409 0.36089 0.64285 0.0
H60 H 0.88139 0.29439 0.60591 0.0
H61 H 0.82204 0.33499 0.65256 0.0
H62 H 0.81378 0.34112 0.58223 0.0
H63 H 0.91568 0.26979 0.67081 0.0
H64 H 0.91819 0.39447 0.61667 0.0
H65 H 0.91598 0.32684 0.57908 0.0
C66 C 0.49439 0.79367 0.13591 0.0
C67 C 0.46712 0.78703 0.138 0.0
N68 N 0.46658 0.80912 0.14674 0.0
N69 N 0.51084 0.81969 0.14355 0.0
C70 C 0.49332 0.82862 0.14969 0.0
H71 H 0.50171 0.78027 0.12955 0.0
Co72 Co 0.54915 0.8392 0.14682 0.0
C73 C 0.55303 0.86761 0.19302 0.0
O74 O 0.57974 0.88507 0.19478 0.0
N75 N 0.5876 0.85862 0.15 0.0
C76 C 0.63253 0.88164 0.14153 0.0
C77 C 0.60625 0.87345 0.13371 0.0
C78 C 0.60291 0.85783 0.1674 0.0
N79 N 0.63031 0.87185 0.16279 0.0
O80 O 0.54682 0.80762 0.1615 0.0
H81 H 0.60103 0.87718 0.11688 0.0
H82 H 0.594 0.84594 0.18275 0.0
O83 O 0.54333 0.85204 0.17566 0.0
C84 C 0.55437 0.79308 0.15018 0.0
O85 O 0.56818 0.80331 0.1312 0.0
N86 N 0.55051 0.86889 0.13114 0.0
C87 C 0.54773 0.90771 0.10342 0.0
C88 C 0.55867 0.91496 0.12541 0.0
C89 C 0.55976 0.89504 0.13917 0.0
C90 C 0.54105 0.86204 0.10944 0.0
C91 C 0.53904 0.88099 0.09541 0.0
H92 H 0.56828 0.90076 0.15602 0.0
H93 H 0.53463 0.84147 0.10314 0.0
H94 H 0.5001 0.8489 0.15684 0.0
H95 H 0.44914 0.76751 0.13341 0.0
H96 H 0.65167 0.89329 0.13215 0.0
H97 H 0.5661 0.93569 0.13189 0.0
H98 H 0.53122 0.87496 0.07827 0.0
C99 C 0.68608 0.52708 0.58644 0.0
C100 C 0.66901 0.49962 0.58066 0.0
N101 N 0.65295 0.48657 0.59874 0.0
N102 N 0.68083 0.531 0.60808 0.0
C103 C 0.66069 0.50588 0.61508 0.0
H104 H 0.70125 0.54319 0.57558 0.0
Co105 Co 0.6979 0.56397 0.62443 0.0
C106 C 0.65509 0.5506 0.66137 0.0
O107 O 0.6533 0.57307 0.659 0.0
N108 N 0.71571 0.5976 0.64098 0.0
C109 C 0.72674 0.63728 0.65853 0.0
C110 C 0.70804 0.61684 0.64436 0.0
C111 C 0.7395 0.60734 0.65289 0.0
N112 N 0.7465 0.63114 0.66401 0.0
O113 O 0.72017 0.55125 0.63855 0.0
H114 H 0.68969 0.61602 0.63742 0.0
H115 H 0.75156 0.59713 0.65355 0.0
O116 O 0.6714 0.54664 0.6488 0.0
C117 C 0.74034 0.5533 0.62691 0.0
O118 O 0.74687 0.56753 0.60788 0.0
N119 N 0.67614 0.57517 0.60887 0.0
C120 C 0.64836 0.58331 0.57324 0.0
C121 C 0.63362 0.56329 0.58989 0.0
C122 C 0.64796 0.55937 0.60755 0.0
C123 C 0.6906 0.59581 0.59358 0.0
C124 C 0.67704 0.60053 0.57576 0.0
H125 H 0.63661 0.54184 0.61865 0.0
H126 H 0.713 0.60718 0.5942 0.0
H127 H 0.65181 0.50149 0.63191 0.0
H128 H 0.66811 0.49013 0.56441 0.0
H129 H 0.72522 0.65467 0.6649 0.0
H130 H 0.61148 0.54947 0.58834 0.0
H131 H 0.68922 0.61581 0.56298 0.0
C132 C 0.21337 0.71593 0.12341 0.0
C133 C 0.22532 0.69945 0.12224 0.0
N134 N 0.20741 0.67453 0.13118 0.0
N135 N 0.18809 0.70131 0.13296 0.0
C136 C 0.18505 0.67619 0.13738 0.0
H137 H 0.22241 0.73712 0.1176 0.0
Co138 Co 0.16272 0.71292 0.13818 0.0
C139 C 0.12383 0.67162 0.17291 0.0
O140 O 0.10211 0.67388 0.16774 0.0
N141 N 0.13728 0.72504 0.14333 0.0
C142 C 0.10824 0.74124 0.13896 0.0
C143 C 0.12126 0.72893 0.12822 0.0
C144 C 0.13354 0.73505 0.16305 0.0
N145 N 0.116 0.74502 0.1609 0.0
O146 O 0.18738 0.73817 0.16009 0.0
H147 H 0.11983 0.72427 0.11032 0.0
H148 H 0.14462 0.7363 0.1785 0.0
O149 O 0.14645 0.68555 0.16202 0.0
C150 C 0.20301 0.7634 0.1546 0.0
O151 O 0.1978 0.77247 0.13567 0.0
N152 N 0.14054 0.6889 0.11545 0.0
C153 C 0.11873 0.6584 0.07584 0.0
C154 C 0.11037 0.64566 0.09719 0.0
C155 C 0.12171 0.66126 0.11688 0.0
C156 C 0.14887 0.70154 0.09487 0.0
C157 C 0.13805 0.6868 0.07486 0.0
H158 H 0.11612 0.65062 0.13291 0.0
H159 H 0.16445 0.72327 0.0941 0.0
H160 H 0.16643 0.65904 0.14441 0.0
H161 H 0.24559 0.70536 0.11547 0.0
H162 H 0.09487 0.74774 0.13107 0.0
H163 H 0.09586 0.62367 0.09867 0.0
H164 H 0.14482 0.69759 0.05878 0.0
C165 C 0.47928 0.15876 0.60911 0.0
C166 C 0.50292 0.16058 0.59997 0.0
N167 N 0.51452 0.15214 0.61585 0.0
N168 N 0.47634 0.14961 0.63068 0.0
C169 C 0.49792 0.14545 0.63417 0.0
H170 H 0.46581 0.16492 0.60094 0.0
Co171 Co 0.4505 0.14786 0.6514 0.0
C172 C 0.46648 0.13229 0.69507 0.0
O173 O 0.44055 0.11561 0.70092 0.0
N174 N 0.42463 0.14699 0.67218 0.0
C175 C 0.40889 0.16122 0.70081 0.0
C176 C 0.432 0.16316 0.69091 0.0
C177 C 0.39674 0.13549 0.67102 0.0
N178 N 0.38681 0.14387 0.68827 0.0
O179 O 0.47124 0.18704 0.65393 0.0
H180 H 0.4531 0.17656 0.69648 0.0
H181 H 0.38402 0.12279 0.65719 0.0
O182 O 0.47209 0.14525 0.67619 0.0
C183 C 0.46285 0.20087 0.64261 0.0
O184 O 0.43957 0.18749 0.63115 0.0
N185 N 0.43011 0.10965 0.64695 0.0
C186 C 0.40688 0.05901 0.62442 0.0
C187 C 0.42645 0.06524 0.64169 0.0
C188 C 0.43819 0.09092 0.65255 0.0
C189 C 0.41013 0.10328 0.63102 0.0
C190 C 0.39787 0.07792 0.61984 0.0
H191 H 0.45561 0.09643 0.66355 0.0
H192 H 0.40565 0.11907 0.62532 0.0
H193 H 0.50244 0.13915 0.65022 0.0
H194 H 0.51141 0.16837 0.58329 0.0
H195 H 0.40838 0.17254 0.71557 0.0
H196 H 0.43431 0.05139 0.64544 0.0
H197 H 0.3836 0.07451 0.60608 0.0
C198 C 0.51872 0.65219 0.38014 0.0
C199 C 0.49334 0.63033 0.38655 0.0
N200 N 0.47478 0.6263 0.37015 0.0
N201 N 0.51614 0.66157 0.35968 0.0
C202 C 0.48917 0.64565 0.35425 0.0
H203 H 0.53783 0.66049 0.38965 0.0
Co204 Co 0.54287 0.68962 0.34177 0.0
C205 C 0.53021 0.66589 0.29512 0.0
O206 O 0.55661 0.67719 0.28993 0.0
N207 N 0.56938 0.71848 0.32355 0.0
C208 C 0.58523 0.75318 0.29869 0.0
C209 C 0.56202 0.73134 0.30784 0.0
C210 C 0.59748 0.73288 0.32334 0.0
N211 N 0.60743 0.75413 0.3085 0.0
O212 O 0.52153 0.7075 0.34249 0.0
H213 H 0.54093 0.72536 0.30339 0.0
H214 H 0.61063 0.72865 0.33406 0.0
O215 O 0.52304 0.66962 0.31479 0.0
C216 C 0.52859 0.72723 0.35651 0.0
O217 O 0.55058 0.73479 0.36927 0.0
N218 N 0.56374 0.67183 0.3429 0.0
C219 C 0.58663 0.64136 0.36051 0.0
C220 C 0.56645 0.63019 0.34344 0.0
C221 C 0.55487 0.64559 0.33511 0.0
C222 C 0.58438 0.68347 0.35859 0.0
C223 C 0.59652 0.66885 0.36729 0.0
H224 H 0.53683 0.63503 0.32445 0.0
H225 H 0.58948 0.70314 0.36614 0.0
H226 H 0.48033 0.64796 0.33865 0.0
H227 H 0.48892 0.6185 0.4021 0.0
H228 H 0.58583 0.76723 0.28569 0.0
H229 H 0.55789 0.60885 0.33811 0.0
H230 H 0.61129 0.67798 0.38104 0.0
C231 C 0.82308 0.49918 0.90134 0.0
C232 C 0.81649 0.47201 0.90393 0.0
N233 N 0.82975 0.46602 0.88767 0.0
N234 N 0.84022 0.51018 0.88344 0.0
C235 C 0.8442 0.48965 0.87569 0.0
H236 H 0.81584 0.51018 0.91182 0.0
Co237 Co 0.8552 0.54595 0.87237 0.0
C238 C 0.8682 0.53894 0.82282 0.0
O239 O 0.88553 0.565 0.81783 0.0
N240 N 0.87007 0.58213 0.86194 0.0
C241 C 0.89337 0.62819 0.86018 0.0
C242 C 0.88934 0.60541 0.87242 0.0
C243 C 0.86221 0.59125 0.84376 0.0
N244 N 0.8764 0.61912 0.84207 0.0
O245 O 0.81907 0.53831 0.86437 0.0
H246 H 0.8996 0.60592 0.88813 0.0
H247 H 0.84611 0.57767 0.83208 0.0
O248 O 0.85773 0.53221 0.84266 0.0
C249 C 0.80452 0.54341 0.87801 0.0
O250 O 0.81577 0.55667 0.897 0.0
N251 N 0.89015 0.55279 0.88133 0.0
C252 C 0.93796 0.55891 0.90166 0.0
C253 C 0.93479 0.55656 0.87801 0.0
C254 C 0.91064 0.5535 0.86812 0.0
C255 C 0.89318 0.55566 0.90426 0.0
C256 C 0.91691 0.5588 0.91479 0.0
H257 H 0.90861 0.55134 0.85001 0.0
H258 H 0.87678 0.55519 0.91443 0.0
H259 H 0.85724 0.49194 0.86133 0.0
H260 H 0.80304 0.45789 0.91686 0.0
H261 H 0.90776 0.64968 0.86414 0.0
H262 H 0.95056 0.55655 0.86727 0.0
H263 H 0.91877 0.56127 0.93307 0.0
C264 C 0.31444 0.84556 0.39462 0.0
C265 C 0.33063 0.83468 0.40175 0.0
N266 N 0.34771 0.83726 0.38458 0.0
N267 N 0.32122 0.85458 0.37303 0.0
C268 C 0.34146 0.84913 0.36744 0.0
H269 H 0.29876 0.84685 0.40449 0.0
Co270 Co 0.30529 0.87059 0.35539 0.0
C271 C 0.35092 0.89947 0.31986 0.0
O272 O 0.35391 0.92427 0.32177 0.0
N273 N 0.28841 0.88646 0.33786 0.0
C274 C 0.2772 0.91511 0.32056 0.0
C275 C 0.29729 0.91328 0.33276 0.0
C276 C 0.26265 0.87263 0.32899 0.0
N277 N 0.25536 0.8894 0.31817 0.0
O278 O 0.28368 0.83568 0.34086 0.0
H279 H 0.31674 0.9307 0.33813 0.0
H280 H 0.24906 0.85064 0.33092 0.0
O281 O 0.33324 0.87958 0.33211 0.0
C282 C 0.2631 0.81745 0.35209 0.0
O283 O 0.2559 0.82499 0.37086 0.0
N284 N 0.3261 0.9035 0.37121 0.0
C285 C 0.35109 0.93988 0.40716 0.0
C286 C 0.36707 0.93434 0.39194 0.0
C287 C 0.35411 0.91586 0.37407 0.0
C288 C 0.31052 0.90988 0.38504 0.0
C289 C 0.32266 0.92834 0.40298 0.0
H290 H 0.36622 0.90959 0.36402 0.0
H291 H 0.28822 0.89889 0.38324 0.0
H292 H 0.3514 0.85342 0.35104 0.0
H293 H 0.33018 0.82595 0.41829 0.0
H294 H 0.27874 0.93393 0.31391 0.0
H295 H 0.38905 0.94274 0.39471 0.0
H296 H 0.30948 0.93158 0.4146 0.0
C297 C 0.47715 0.30556 0.87778 0.0
C298 C 0.50361 0.32287 0.88564 0.0
N299 N 0.51769 0.34199 0.86951 0.0
N300 N 0.47467 0.31351 0.8567 0.0
C301 C 0.49964 0.33577 0.85223 0.0
H302 H 0.46054 0.28874 0.8871 0.0
Co303 Co 0.44228 0.2983 0.83961 0.0
C304 C 0.46161 0.31577 0.79244 0.0
O305 O 0.4434 0.29144 0.78428 0.0
N306 N 0.40919 0.28287 0.82328 0.0
C307 C 0.37281 0.27708 0.80328 0.0
C308 C 0.39844 0.29619 0.81163 0.0
C309 C 0.38971 0.25585 0.82197 0.0
N310 N 0.36741 0.2517 0.8098 0.0
O311 O 0.44988 0.27031 0.82933 0.0
H312 H 0.40867 0.31839 0.80923 0.0
H313 H 0.39172 0.23942 0.82982 0.0
O314 O 0.46255 0.32063 0.81368 0.0
C315 C 0.44446 0.24987 0.84221 0.0
O316 O 0.42934 0.24596 0.86045 0.0
N317 N 0.43562 0.32563 0.85067 0.0
C318 C 0.43045 0.3642 0.87679 0.0
C319 C 0.44907 0.37286 0.85857 0.0
C320 C 0.45133 0.35317 0.84559 0.0
C321 C 0.41631 0.31675 0.86747 0.0
C322 C 0.4132 0.33574 0.88069 0.0
H323 H 0.46696 0.36038 0.8325 0.0
H324 H 0.40445 0.29489 0.87145 0.0
H325 H 0.50435 0.34765 0.83683 0.0
H326 H 0.5115 0.32195 0.90222 0.0
H327 H 0.35965 0.28144 0.79257 0.0
H328 H 0.46268 0.39468 0.85508 0.0
H329 H 0.39886 0.32825 0.89484 0.0
C330 C 0.15721 0.49377 0.39082 0.0
C331 C 0.16965 0.52217 0.39224 0.0
N332 N 0.17463 0.53263 0.37097 0.0
N333 N 0.15415 0.48636 0.36879 0.0
C334 C 0.16539 0.51043 0.35716 0.0
H335 H 0.14987 0.47935 0.40489 0.0
Co336 Co 0.13579 0.45056 0.35745 0.0
C337 C 0.10972 0.45576 0.31481 0.0
O338 O 0.08661 0.43241 0.31851 0.0
N339 N 0.11725 0.41357 0.34595 0.0
C340 C 0.08678 0.36949 0.33736 0.0
C341 C 0.09059 0.39292 0.34831 0.0
C342 C 0.12889 0.4019 0.33319 0.0
N343 N 0.11103 0.37518 0.32801 0.0
O344 O 0.17041 0.45664 0.34639 0.0
H345 H 0.07432 0.39456 0.35682 0.0
H346 H 0.14997 0.41291 0.32707 0.0
O347 O 0.1297 0.46416 0.3289 0.0
C348 C 0.18408 0.45046 0.36016 0.0
O349 O 0.17214 0.43764 0.37915 0.0
N350 N 0.10326 0.44607 0.37036 0.0
C351 C 0.06399 0.44592 0.39951 0.0
C352 C 0.07223 0.4626 0.38005 0.0
C353 C 0.0921 0.46249 0.36566 0.0
C354 C 0.09576 0.43016 0.38947 0.0
C355 C 0.07562 0.4292 0.40397 0.0
H356 H 0.09992 0.47717 0.35183 0.0
H357 H 0.10623 0.41884 0.3938 0.0
H358 H 0.16645 0.51162 0.33886 0.0
H359 H 0.17355 0.53396 0.40774 0.0
H360 H 0.06763 0.34988 0.3363 0.0
H361 H 0.06422 0.47637 0.37652 0.0
H362 H 0.07043 0.41678 0.41928 0.0
C363 C 0.69129 0.18518 0.89846 0.0
C364 C 0.67335 0.19548 0.89827 0.0
N365 N 0.65253 0.18014 0.88374 0.0
N366 N 0.68181 0.16354 0.88407 0.0
C367 C 0.65803 0.16079 0.87563 0.0
H368 H 0.71022 0.19324 0.90818 0.0
Co369 Co 0.69819 0.14258 0.87651 0.0
C370 C 0.67539 0.12192 0.82907 0.0
O371 O 0.68127 0.1019 0.82754 0.0
N372 N 0.71486 0.12155 0.86884 0.0
C373 C 0.72642 0.08871 0.86536 0.0
C374 C 0.71011 0.0968 0.87695 0.0
C375 C 0.73457 0.12829 0.85285 0.0
N376 N 0.74192 0.10883 0.85048 0.0
O377 O 0.72902 0.17513 0.86481 0.0
H378 H 0.69541 0.08498 0.89014 0.0
H379 H 0.74253 0.14652 0.84219 0.0
O380 O 0.68107 0.13643 0.84706 0.0
C381 C 0.74992 0.18878 0.87758 0.0
O382 O 0.75047 0.1785 0.89755 0.0
N383 N 0.66814 0.11184 0.88945 0.0
C384 C 0.62588 0.07224 0.91606 0.0
C385 C 0.62451 0.06969 0.89238 0.0
C386 C 0.64593 0.09005 0.87921 0.0
C387 C 0.66993 0.11404 0.91248 0.0
C388 C 0.64888 0.09457 0.92614 0.0
H389 H 0.64442 0.08814 0.86103 0.0
H390 H 0.68775 0.13143 0.92021 0.0
H391 H 0.64485 0.14475 0.86377 0.0
H392 H 0.67589 0.21332 0.90762 0.0
H393 H 0.72675 0.06958 0.86752 0.0
H394 H 0.60698 0.05238 0.88423 0.0
H395 H 0.6506 0.09683 0.94445 0.0
H396 H 0.38708 0.36675 0.89568 0.0
H397 H 0.38872 0.39334 0.92924 0.0
H398 H 0.47789 0.43285 0.93008 0.0
H399 H 0.47637 0.40615 0.89657 0.0
H400 H 0.45165 0.40337 0.96969 0.0
H401 H 0.41326 0.47425 0.94585 0.0
H402 H 0.39224 0.44014 0.93429 0.0
H403 H 0.42776 0.46081 0.92539 0.0
C404 C 0.40704 0.3817 0.90265 0.0
C405 C 0.43156 0.38437 0.89362 0.0
C406 C 0.408 0.39704 0.92167 0.0
C407 C 0.43347 0.41523 0.93195 0.0
C408 C 0.4581 0.41914 0.92218 0.0
H409 H 0.4051 0.47356 0.06244 0.0
H410 H 0.43299 0.47624 0.02914 0.0
C411 C 0.45718 0.40397 0.90303 0.0
C412 C 0.43365 0.42613 0.95481 0.0
H413 H 0.40509 0.45777 0.98491 0.0
C414 C 0.44226 0.416 0.97305 0.0
C415 C 0.42168 0.4428 0.9591 0.0
C416 C 0.41346 0.45537 0.94008 0.0
C417 C 0.43671 0.41991 0.99552 0.0
C418 C 0.42223 0.4342 -0.00033 0.0
C419 C 0.41604 0.44662 0.98159 0.0
C420 C 0.40913 0.43239 0.02181 0.0
C421 C 0.44485 0.40731 0.01457 0.0
C422 C 0.38689 0.4068 0.02871 0.0
C423 C 0.37087 0.4053 0.04739 0.0
C424 C 0.37706 0.42934 0.05953 0.0
C425 C 0.40026 0.45473 0.05342 0.0
C426 C 0.41608 0.4563 0.03446 0.0
H427 H 0.4624 0.40431 0.00956 0.0
H428 H 0.45072 0.42049 0.03001 0.0
H429 H 0.42695 0.38672 0.0189 0.0
H430 H 0.38098 0.38823 0.01888 0.0
H431 H 0.35294 0.38559 0.0518 0.0
H432 H 0.96472 0.41612 0.59776 0.0
H433 H 0.98954 0.44683 0.56564 0.0
H434 H 0.93384 0.38383 0.51899 0.0
H435 H 0.90864 0.35383 0.55062 0.0
H436 H 0.01685 0.43662 0.53316 0.0
H437 H 0.93664 0.45094 0.49143 0.0
H438 H 0.93302 0.43864 0.52034 0.0
H439 H 0.92305 0.41479 0.49681 0.0
C440 C 0.95761 0.4091 0.58062 0.0
C441 C 0.935 0.38244 0.57667 0.0
C442 C 0.97171 0.42665 0.56235 0.0
C443 C 0.96312 0.41787 0.53995 0.0
C444 C 0.94035 0.39142 0.53611 0.0
H445 H 0.01758 0.40372 0.41827 0.0
H446 H 0.99355 0.40598 0.4523 0.0
C447 C 0.92632 0.374 0.55423 0.0
C448 C 0.9796 0.43437 0.52026 0.0
H449 H 0.97077 0.44893 0.46561 0.0
C450 C 0.00717 0.4404 0.51867 0.0
C451 C 0.96705 0.43957 0.50141 0.0
C452 C 0.93839 0.4359 0.50273 0.0
C453 C 0.0214 0.44842 0.49794 0.0
C454 C 0.0076 0.45036 0.47851 0.0
C455 C 0.9811 0.44708 0.48057 0.0
C456 C 0.01842 0.4505 0.45569 0.0
C457 C 0.05016 0.4523 0.49639 0.0
C458 C 0.03957 0.47497 0.44606 0.0
C459 C 0.05316 0.47372 0.42651 0.0
C460 C 0.04585 0.44797 0.41667 0.0
C461 C 0.02352 0.42376 0.42561 0.0
C462 C 0.00981 0.42505 0.44494 0.0
H463 H 0.05859 0.45157 0.51332 0.0
H464 H 0.04973 0.43578 0.48556 0.0
H465 H 0.0644 0.47251 0.48829 0.0
H466 H 0.04651 0.49472 0.45432 0.0
H467 H 0.07056 0.49262 0.42001 0.0
H468 H 0.61747 0.02141 0.92631 0.0
H469 H 0.58996 0.99216 0.95792 0.0
H470 H 0.55873 0.04783 0.97104 0.0
H471 H 0.58744 0.07778 0.93996 0.0
H472 H 0.57943 0.04095 0.00763 0.0
H473 H 0.51219 0.93695 0.97256 0.0
H474 H 0.54696 0.94882 0.96338 0.0
H475 H 0.52943 0.96713 0.95454 0.0
C476 C 0.60391 0.02673 0.93547 0.0
C477 C 0.60417 0.05148 0.93077 0.0
C478 C 0.58807 0.00999 0.95345 0.0
C479 C 0.57188 0.01753 0.9667 0.0
C480 C 0.57089 0.0415 0.96099 0.0
H481 H 0.50292 0.90262 0.0808 0.0
H482 H 0.50298 0.93218 0.04993 0.0
C483 C 0.5871 0.05848 0.94323 0.0
C484 C 0.55982 0.00289 0.98837 0.0
H485 H 0.52779 0.9384 0.01183 0.0
C486 C 0.56746 0.01852 0.00851 0.0
C487 C 0.54366 0.97371 0.98967 0.0
C488 C 0.53235 0.95579 0.9688 0.0
C489 C 0.5614 0.00566 0.02986 0.0
C490 C 0.54819 0.97645 0.03105 0.0
C491 C 0.53845 0.96084 0.01099 0.0
C492 C 0.54688 0.96174 0.0524 0.0
C493 C 0.56985 0.0236 0.05083 0.0
C494 C 0.57134 0.96895 0.06448 0.0
C495 C 0.57119 0.9524 0.08234 0.0
C496 C 0.54672 0.92804 0.08803 0.0
C497 C 0.52202 0.9214 0.07664 0.0
C498 C 0.52207 0.93821 0.05904 0.0
H499 H 0.56871 0.04269 0.0478 0.0
H500 H 0.55656 0.01243 0.06562 0.0
H501 H 0.59168 0.03015 0.05506 0.0
H502 H 0.59092 0.98646 0.05927 0.0
H503 H 0.59054 0.95761 0.09067 0.0
H504 H 0.65302 0.62775 0.54972 0.0
H505 H 0.63681 0.62755 0.51095 0.0
H506 H 0.59867 0.53855 0.50872 0.0
H507 H 0.61484 0.53856 0.54737 0.0
H508 H 0.63838 0.57097 0.47174 0.0
H509 H 0.55519 0.59666 0.48617 0.0
H510 H 0.58692 0.61765 0.50145 0.0
H511 H 0.56634 0.58139 0.50787 0.0
C512 C 0.64074 0.60814 0.54109 0.0
C513 C 0.635 0.58318 0.55155 0.0
C514 C 0.63148 0.60803 0.51904 0.0
C515 C 0.61654 0.58301 0.50717 0.0
C516 C 0.61008 0.558 0.51776 0.0
H517 H 0.54947 0.5904 0.37686 0.0
H518 H 0.55586 0.56801 0.40997 0.0
C519 C 0.6191 0.55805 0.53987 0.0
C520 C 0.60937 0.58329 0.48315 0.0
H521 H 0.57217 0.60133 0.44842 0.0
C522 C 0.62359 0.57718 0.46653 0.0
C523 C 0.5899 0.59108 0.4766 0.0
C524 C 0.57348 0.59688 0.49392 0.0
C525 C 0.61982 0.58012 0.44335 0.0
C526 C 0.60148 0.58944 0.43685 0.0
C527 C 0.58623 0.59414 0.45349 0.0
C528 C 0.59964 0.59732 0.41326 0.0
C529 C 0.63585 0.57381 0.42606 0.0
C530 C 0.62254 0.6203 0.40343 0.0
C531 C 0.61902 0.6331 0.38434 0.0
C532 C 0.59251 0.62318 0.375 0.0
C533 C 0.57023 0.59842 0.38347 0.0
C534 C 0.57378 0.58566 0.40252 0.0
H535 H 0.64231 0.55936 0.433 0.0
H536 H 0.6234 0.56465 0.41044 0.0
H537 H 0.65484 0.59334 0.42128 0.0
H538 H 0.6426 0.62983 0.41165 0.0
H539 H 0.63654 0.65204 0.37807 0.0
H540 H 0.14625 0.66222 0.03625 0.0
H541 H 0.12588 0.64026 -0.00018 0.0
H542 H 0.04524 0.59629 0.03112 0.0
H543 H 0.06517 0.61857 0.06742 0.0
H544 H 0.06281 0.56556 0.99601 0.0
H545 H 0.07243 0.6662 0.96937 0.0
H546 H 0.10198 0.66568 0.98119 0.0
H547 H 0.07294 0.65809 -0.00101 0.0
C548 C 0.12419 0.64775 0.0354 0.0
C549 C 0.10721 0.64244 0.05462 0.0
C550 C 0.11271 0.63506 0.01466 0.0
C551 C 0.08416 0.61681 0.01292 0.0
C552 C 0.0674 0.61022 0.03229 0.0
H553 H 0.94105 0.5345 0.94081 0.0
H554 H 0.98237 0.54604 0.96273 0.0
C555 C 0.07882 0.62296 0.053 0.0
C556 C 0.0709 0.60717 0.9906 0.0
H557 H 0.04397 0.6272 0.94763 0.0
C558 C 0.05915 0.57907 0.98505 0.0
C559 C 0.06664 0.62503 0.97628 0.0
C560 C 0.07904 0.65545 0.98162 0.0
C561 C 0.04165 0.56796 0.96617 0.0
C562 C 0.03519 0.58531 0.95312 0.0
C563 C 0.04884 0.61386 0.95766 0.0
C564 C 0.01112 0.57408 0.93756 0.0
C565 C 0.02955 0.5376 0.96091 0.0
C566 C 0.0134 0.58595 0.91605 0.0
C567 C 0.98961 0.57997 0.90372 0.0
C568 C 0.96321 0.56206 0.91279 0.0
C569 C 0.9611 0.54879 0.93359 0.0
C570 C 0.9848 0.55494 0.94594 0.0
H571 H 0.04459 0.53067 0.96507 0.0
H572 H 0.0109 0.52534 0.97158 0.0
H573 H 0.0236 0.53302 0.94275 0.0
H574 H 0.03351 0.60098 0.90936 0.0
H575 H 0.99189 0.5906 0.88777 0.0
H576 H 0.38437 0.9311 0.43575 0.0
H577 H 0.39726 0.94798 0.47468 0.0
H578 H 0.35572 0.99532 0.46767 0.0
H579 H 0.34311 0.97891 0.42851 0.0
H580 H 0.40956 0.02319 0.48996 0.0
H581 H 0.33682 0.91912 0.52584 0.0
H582 H 0.36118 0.92075 0.50497 0.0
H583 H 0.33467 0.92835 0.4968 0.0
C584 C 0.37861 0.9457 0.44228 0.0
C585 C 0.36272 0.95373 0.42911 0.0
C586 C 0.38568 0.955 0.46459 0.0
C587 C 0.37696 0.97242 0.47405 0.0
C588 C 0.3624 0.98166 0.46062 0.0
H589 H 0.35683 0.02355 0.6048 0.0
H590 H 0.3502 0.99783 0.56946 0.0
C591 C 0.35523 0.9723 0.43832 0.0
C592 C 0.38214 0.98034 0.4982 0.0
H593 H 0.36272 0.95499 0.552 0.0
C594 C 0.39957 0.0083 0.50356 0.0
C595 C 0.36874 0.96075 0.51576 0.0
C596 C 0.34912 0.93056 0.51069 0.0
C597 C 0.40378 0.01735 0.52615 0.0
C598 C 0.39042 0.99779 0.54374 0.0
C599 C 0.37314 0.96976 0.53841 0.0
C600 C 0.39266 0.0068 0.56756 0.0
C601 C 0.42174 0.04792 0.53099 0.0
C602 C 0.41825 0.01875 0.57874 0.0
C603 C 0.42213 0.03355 0.59881 0.0
C604 C 0.40041 0.0365 0.60795 0.0
C605 C 0.374 0.02189 0.59797 0.0
C606 C 0.37016 0.00714 0.57786 0.0
H607 H 0.42657 0.06068 0.51534 0.0
H608 H 0.41143 0.05491 0.54332 0.0
H609 H 0.44158 0.05181 0.53861 0.0
H610 H 0.43574 0.01841 0.57106 0.0
H611 H 0.4428 0.0447 0.60593 0.0
H612 H 0.21221 0.453 0.09698 0.0
H613 H 0.20152 0.49003 0.10299 0.0
H614 H 0.24293 0.50852 0.16784 0.0
H615 H 0.25416 0.47183 0.16187 0.0
H616 H 0.17559 0.50523 0.13685 0.0
H617 H 0.28868 0.57956 0.1303 0.0
H618 H 0.27362 0.5434 0.12315 0.0
H619 H 0.27886 0.55409 0.15238 0.0
C620 C 0.21847 0.46446 0.11279 0.0
C621 C 0.23448 0.45982 0.12876 0.0
C622 C 0.21236 0.48565 0.11617 0.0
C623 C 0.22207 0.50241 0.13558 0.0
C624 C 0.23581 0.49617 0.15251 0.0
H625 H 0.18682 0.63583 0.16436 0.0
H626 H 0.19011 0.59378 0.16685 0.0
C627 C 0.24206 0.4751 0.14911 0.0
C628 C 0.22016 0.52791 0.13697 0.0
H629 H 0.25977 0.59844 0.13683 0.0
C630 C 0.19394 0.52564 0.13698 0.0
C631 C 0.24421 0.55446 0.13671 0.0
C632 C 0.27295 0.55818 0.13543 0.0
C633 C 0.19109 0.5493 0.13669 0.0
C634 C 0.21517 0.57587 0.13678 0.0
C635 C 0.24137 0.57807 0.13689 0.0
C636 C 0.21377 0.60172 0.13582 0.0
C637 C 0.16236 0.54556 0.13552 0.0
C638 C 0.22695 0.62073 0.11807 0.0
C639 C 0.22543 0.64497 0.1168 0.0
C640 C 0.21057 0.65053 0.1332 0.0
C641 C 0.19794 0.63178 0.15124 0.0
C642 C 0.19971 0.60771 0.15264 0.0
H643 H 0.1469 0.52454 0.12943 0.0
H644 H 0.15598 0.54823 0.15276 0.0
H645 H 0.16183 0.56114 0.12409 0.0
H646 H 0.23804 0.61658 0.10497 0.0
H647 H 0.23519 0.65896 0.10267 0.0
H648 H 0.56049 0.19184 0.59504 0.0
H649 H 0.60746 0.19962 0.59898 0.0
H650 H 0.57655 0.12577 0.63997 0.0
H651 H 0.52951 0.11837 0.6365 0.0
H652 H 0.61919 0.16717 0.65992 0.0
H653 H 0.64742 0.16475 0.5705 0.0
H654 H 0.63581 0.18924 0.57403 0.0
H655 H 0.61218 0.15294 0.57912 0.0
C656 C 0.56363 0.17689 0.60437 0.0
C657 C 0.54139 0.15445 0.61539 0.0
C658 C 0.59049 0.18131 0.6066 0.0
C659 C 0.59552 0.16303 0.61947 0.0
C660 C 0.57316 0.14009 0.6299 0.0
H661 H 0.7673 0.20008 0.61597 0.0
H662 H 0.71668 0.17313 0.61529 0.0
C663 C 0.54634 0.13587 0.6279 0.0
C664 C 0.62434 0.16924 0.62352 0.0
H665 H 0.68561 0.18945 0.59652 0.0
C666 C 0.63362 0.17157 0.64604 0.0
C667 C 0.64307 0.17437 0.60549 0.0
C668 C 0.63399 0.16987 0.58096 0.0
C669 C 0.66146 0.18039 0.65099 0.0
C670 C 0.68067 0.1879 0.63294 0.0
C671 C 0.67104 0.18408 0.61043 0.0
C672 C 0.71102 0.20146 0.63675 0.0
C673 C 0.6699 0.18164 0.67551 0.0
C674 C 0.72475 0.22596 0.64957 0.0
C675 C 0.75367 0.2411 0.65033 0.0
C676 C 0.76937 0.23236 0.63781 0.0
C677 C 0.75568 0.20732 0.62573 0.0
C678 C 0.72677 0.19193 0.62531 0.0
H679 H 0.65243 0.16595 0.68589 0.0
H680 H 0.68777 0.17817 0.67731 0.0
H681 H 0.67579 0.20234 0.68254 0.0
H682 H 0.71318 0.23422 0.65801 0.0
H683 H 0.76367 0.26051 0.65955 0.0
H684 H 0.50966 0.76122 0.17735 0.0
H685 H 0.47931 0.71122 0.17452 0.0
H686 H 0.53702 0.70629 0.12864 0.0
H687 H 0.56725 0.75645 0.13097 0.0
H688 H 0.48674 0.68718 0.10981 0.0
H689 H 0.47408 0.63922 0.19457 0.0
H690 H 0.46899 0.66854 0.19516 0.0
H691 H 0.50248 0.67332 0.1879 0.0
C692 C 0.51645 0.74941 0.16734 0.0
C693 C 0.54069 0.76285 0.15412 0.0
C694 C 0.49905 0.72072 0.16579 0.0
C695 C 0.50586 0.70498 0.15135 0.0
C696 C 0.53134 0.71805 0.13985 0.0
H697 H 0.39547 0.52877 0.1235 0.0
H698 H 0.43571 0.57333 0.13368 0.0
C699 C 0.54862 0.74673 0.14123 0.0
C700 C 0.48458 0.67628 0.1452 0.0
H701 H 0.4382 0.61303 0.16715 0.0
C702 C 0.47645 0.67085 0.12233 0.0
C703 C 0.47115 0.65498 0.1615 0.0
C704 C 0.4798 0.6592 0.18612 0.0
C705 C 0.45471 0.64503 0.11541 0.0
C706 C 0.4404 0.6242 0.13185 0.0
C707 C 0.44907 0.62919 0.15462 0.0
C708 C 0.41605 0.5973 0.12566 0.0
C709 C 0.4471 0.6403 0.09056 0.0
C710 C 0.39179 0.59614 0.11761 0.0
C711 C 0.36885 0.57077 0.11158 0.0
C712 C 0.3697 0.54609 0.11373 0.0
C713 C 0.39406 0.54737 0.12187 0.0
C714 C 0.41706 0.57277 0.12772 0.0
H715 H 0.46414 0.6556 0.0796 0.0
H716 H 0.44194 0.61912 0.08531 0.0
H717 H 0.42861 0.64246 0.08759 0.0
H718 H 0.39054 0.61486 0.11616 0.0
H719 H 0.35025 0.5704 0.10573 0.0
H720 H 0.72692 0.51619 0.66182 0.0
H721 H 0.74206 0.48214 0.66658 0.0
H722 H 0.79561 0.51607 0.6083 0.0
H723 H 0.78112 0.55041 0.60371 0.0
H724 H 0.73295 0.44288 0.63549 0.0
H725 H 0.84542 0.50568 0.65206 0.0
H726 H 0.82246 0.51963 0.65464 0.0
H727 H 0.8356 0.5174 0.62725 0.0
C728 C 0.74247 0.51686 0.65038 0.0
C729 C 0.75277 0.53596 0.63234 0.0
C730 C 0.75103 0.49734 0.65309 0.0
C731 C 0.77013 0.49671 0.63791 0.0
C732 C 0.78131 0.51652 0.62051 0.0
H733 H 0.78347 0.35767 0.59148 0.0
H734 H 0.77216 0.39423 0.59781 0.0
C735 C 0.77285 0.53607 0.61783 0.0
C736 C 0.77616 0.47366 0.63861 0.0
H737 H 0.82905 0.4595 0.63788 0.0
C738 C 0.75394 0.44647 0.63635 0.0
C739 C 0.8035 0.47832 0.63997 0.0
C740 C 0.82806 0.50683 0.64386 0.0
C741 C 0.75841 0.42391 0.6345 0.0
C742 C 0.78587 0.42878 0.63437 0.0
C743 C 0.80802 0.45584 0.6376 0.0
C744 C 0.79215 0.4062 0.63068 0.0
C745 C 0.73366 0.3951 0.63273 0.0
C746 C 0.80773 0.40126 0.64675 0.0
C747 C 0.81461 0.3807 0.64303 0.0
C748 C 0.80607 0.36462 0.62306 0.0
C749 C 0.79045 0.36967 0.60697 0.0
C750 C 0.78368 0.39035 0.6107 0.0
H751 H 0.71477 0.39409 0.63999 0.0
H752 H 0.7295 0.38914 0.61457 0.0
H753 H 0.73745 0.37973 0.64163 0.0
H754 H 0.81472 0.41349 0.66213 0.0
H755 H 0.82715 0.37793 0.65562 0.0
H756 H 0.41592 0.76749 0.15912 0.0
H757 H 0.37506 0.77127 0.16815 0.0
H758 H 0.42225 0.85954 0.15746 0.0
H759 H 0.46314 0.85596 0.1481 0.0
H760 H 0.37087 0.81358 0.20302 0.0
H761 H 0.3522 0.82117 0.11083 0.0
H762 H 0.37132 0.80472 0.12029 0.0
H763 H 0.38663 0.84158 0.12229 0.0
C764 C 0.4176 0.78768 0.15863 0.0
C765 C 0.4427 0.81136 0.15267 0.0
C766 C 0.39437 0.78985 0.16407 0.0
C767 C 0.39581 0.81568 0.16352 0.0
C768 C 0.42089 0.83947 0.15807 0.0
H769 H 0.24235 0.81754 0.14732 0.0
H770 H 0.29185 0.83846 0.15526 0.0
C771 C 0.44419 0.83735 0.15274 0.0
C772 C 0.37032 0.81714 0.16664 0.0
H773 H 0.3177 0.81575 0.13625 0.0
C774 C 0.35933 0.81449 0.18852 0.0
C775 C 0.35569 0.81876 0.14769 0.0
C776 C 0.36686 0.82167 0.12387 0.0
C777 C 0.33329 0.8122 0.19185 0.0
C778 C 0.31772 0.81185 0.17271 0.0
C779 C 0.32959 0.8161 0.15096 0.0
C780 C 0.2879 0.80328 0.17409 0.0
C781 C 0.32262 0.80977 0.21576 0.0
C782 C 0.26904 0.77721 0.18312 0.0
C783 C 0.24072 0.76536 0.17885 0.0
C784 C 0.23081 0.77913 0.16502 0.0
C785 C 0.24937 0.80631 0.15785 0.0
C786 C 0.27769 0.8183 0.16238 0.0
H787 H 0.33997 0.82145 0.22783 0.0
H788 H 0.30783 0.81757 0.21713 0.0
H789 H 0.3119 0.78769 0.22101 0.0
H790 H 0.27631 0.7649 0.19178 0.0
H791 H 0.22701 0.74438 0.18465 0.0
H792 H 0.6535 0.44184 0.58164 0.0
H793 H 0.61894 0.39307 0.58866 0.0
H794 H 0.5696 0.41857 0.62709 0.0
H795 H 0.60446 0.4671 0.6208 0.0
H796 H 0.57725 0.38118 0.64997 0.0
H797 H 0.54266 0.34427 0.56212 0.0
H798 H 0.57946 0.36014 0.56578 0.0
H799 H 0.56291 0.38058 0.56914 0.0
C800 C 0.63505 0.43689 0.59128 0.0
C801 C 0.63161 0.45808 0.60076 0.0
C802 C 0.61532 0.40912 0.59524 0.0
C803 C 0.59162 0.40222 0.60831 0.0
C804 C 0.58783 0.42344 0.61715 0.0
H805 H 0.44978 0.23639 0.62141 0.0
H806 H 0.48012 0.28594 0.61467 0.0
C807 C 0.60769 0.4511 0.61351 0.0
C808 C 0.57153 0.37302 0.61402 0.0
H809 H 0.52839 0.30963 0.59086 0.0
C810 C 0.56639 0.36557 0.63705 0.0
C811 C 0.55718 0.35278 0.59714 0.0
C812 C 0.56059 0.35985 0.57217 0.0
C813 C 0.54756 0.33833 0.64368 0.0
C814 C 0.53412 0.31783 0.6268 0.0
C815 C 0.53892 0.32536 0.60377 0.0
C816 C 0.51519 0.28837 0.63257 0.0
C817 C 0.54194 0.33189 0.66867 0.0
C818 C 0.52479 0.27338 0.64505 0.0
C819 C 0.50745 0.24508 0.64905 0.0
C820 C 0.4803 0.23124 0.6404 0.0
C821 C 0.47059 0.24644 0.62828 0.0
C822 C 0.4879 0.27474 0.62438 0.0
H823 H 0.54721 0.3508 0.67869 0.0
H824 H 0.51986 0.31629 0.67175 0.0
H825 H 0.55491 0.32337 0.67504 0.0
H826 H 0.54596 0.28337 0.65112 0.0
H827 H 0.51561 0.23392 0.65831 0.0
H828 H 0.34439 0.79164 0.40371 0.0
H829 H 0.37797 0.77571 0.39974 0.0
H830 H 0.43123 0.84868 0.36037 0.0
H831 H 0.39732 0.8641 0.36375 0.0
H832 H 0.42559 0.8044 0.34009 0.0
H833 H 0.4506 0.80029 0.43046 0.0
H834 H 0.41412 0.77982 0.42514 0.0
H835 H 0.4315 0.81682 0.42125 0.0
C836 C 0.36349 0.80441 0.39456 0.0
C837 C 0.36834 0.82904 0.38405 0.0
C838 C 0.3827 0.7954 0.39235 0.0
C839 C 0.40734 0.81123 0.38006 0.0
C840 C 0.4124 0.83615 0.36996 0.0
H841 H 0.54199 0.77446 0.38005 0.0
H842 H 0.51401 0.79672 0.38459 0.0
C843 C 0.39304 0.84492 0.37187 0.0
C844 C 0.42707 0.80109 0.3765 0.0
H845 H 0.46425 0.77657 0.40415 0.0
C846 C 0.43423 0.79854 0.35412 0.0
C847 C 0.43873 0.79392 0.3948 0.0
C848 C 0.43358 0.79813 0.41925 0.0
C849 C 0.45216 0.78833 0.34951 0.0
C850 C 0.46252 0.77964 0.36776 0.0
C851 C 0.45598 0.78289 0.39016 0.0
C852 C 0.47992 0.76683 0.36405 0.0
C853 C 0.46007 0.78731 0.32516 0.0
C854 C 0.46997 0.74259 0.35105 0.0
C855 C 0.48601 0.72996 0.34826 0.0
C856 C 0.51209 0.74113 0.35873 0.0
C857 C 0.52196 0.76535 0.37179 0.0
C858 C 0.50601 0.7781 0.37441 0.0
H859 H 0.4578 0.80246 0.3144 0.0
H860 H 0.48176 0.79167 0.32386 0.0
H861 H 0.44616 0.76633 0.31818 0.0
H862 H 0.44959 0.73314 0.34339 0.0
H863 H 0.47773 0.71117 0.33827 0.0
H864 H 0.7753 0.51815 0.83962 0.0
H865 H 0.72513 0.48841 0.8362 0.0
H866 H 0.71515 0.50606 0.90579 0.0
H867 H 0.76517 0.53639 0.90915 0.0
H868 H 0.69624 0.44207 0.86013 0.0
H869 H 0.65269 0.51067 0.87575 0.0
H870 H 0.68887 0.52397 0.86941 0.0
H871 H 0.67601 0.51307 0.8978 0.0
C872 C 0.76236 0.51625 0.85402 0.0
C873 C 0.7742 0.52954 0.87468 0.0
C874 C 0.7337 0.49921 0.85205 0.0
C875 C 0.71635 0.49511 0.87069 0.0
C876 C 0.72803 0.50935 0.89102 0.0
H877 H 0.55958 0.34582 0.89571 0.0
H878 H 0.60756 0.38376 0.89629 0.0
C879 C 0.75669 0.52661 0.89295 0.0
C880 C 0.68661 0.47365 0.86967 0.0
H881 H 0.62115 0.46182 0.87925 0.0
C882 C 0.67981 0.44647 0.8641 0.0
C883 C 0.66518 0.47941 0.87469 0.0
C884 C 0.67101 0.50843 0.87952 0.0
C885 C 0.65225 0.4248 0.86383 0.0
C886 C 0.63092 0.43031 0.86989 0.0
C887 C 0.6376 0.45758 0.87495 0.0
C888 C 0.6015 0.40807 0.87063 0.0
C889 C 0.64624 0.39629 0.85674 0.0
C890 C 0.58196 0.40967 0.85669 0.0
C891 C 0.55442 0.38824 0.8566 0.0
C892 C 0.54585 0.36471 0.87045 0.0
C893 C 0.56538 0.36358 0.88488 0.0
C894 C 0.59291 0.38512 0.88504 0.0
H895 H 0.66355 0.3972 0.84668 0.0
H896 H 0.64348 0.38366 0.87213 0.0
H897 H 0.62698 0.38562 0.84647 0.0
H898 H 0.5881 0.42732 0.8456 0.0
H899 H 0.53992 0.39024 0.84567 0.0
H900 H 0.20468 0.57869 0.39661 0.0
H901 H 0.21888 0.62634 0.38634 0.0
H902 H 0.18369 0.59948 0.31959 0.0
H903 H 0.16805 0.55165 0.33003 0.0
H904 H 0.25287 0.66013 0.35325 0.0
H905 H 0.14603 0.64151 0.34045 0.0
H906 H 0.15283 0.61613 0.35332 0.0
H907 H 0.15505 0.62079 0.32302 0.0
C908 C 0.19968 0.58277 0.37982 0.0
C909 C 0.18491 0.56108 0.36432 0.0
C910 C 0.20804 0.61011 0.37389 0.0
C911 C 0.20192 0.6164 0.35233 0.0
C912 C 0.18812 0.59503 0.3365 0.0
H913 H 0.27777 0.79364 0.31804 0.0
H914 H 0.26177 0.74421 0.31327 0.0
C915 C 0.17951 0.56764 0.34246 0.0
C916 C 0.2097 0.64534 0.34678 0.0
H917 H 0.1827 0.68695 0.33429 0.0
C918 C 0.2376 0.66601 0.3489 0.0
C919 C 0.18964 0.6529 0.3412 0.0
C920 C 0.15918 0.63175 0.33953 0.0
C921 C 0.2459 0.69414 0.34637 0.0
C922 C 0.22581 0.70172 0.34103 0.0
C923 C 0.19805 0.681 0.33815 0.0
C924 C 0.23263 0.73104 0.34119 0.0
C925 C 0.27586 0.71553 0.35063 0.0
C926 C 0.2204 0.73977 0.35758 0.0
C927 C 0.22922 0.76784 0.36018 0.0
C928 C 0.25049 0.78774 0.34643 0.0
C929 C 0.26146 0.77881 0.329 0.0
C930 C 0.25251 0.75062 0.32635 0.0
H931 H 0.28742 0.7064 0.35885 0.0
H932 H 0.28611 0.72476 0.33422 0.0
H933 H 0.27744 0.73245 0.36162 0.0
H934 H 0.20491 0.72497 0.36912 0.0
H935 H 0.22019 0.77399 0.37366 0.0
H936 H 0.62889 0.20357 0.90885 0.0
H937 H 0.59107 0.21126 0.89734 0.0
H938 H 0.58738 0.17434 0.83217 0.0
H939 H 0.62504 0.16651 0.84353 0.0
H940 H 0.59021 0.24243 0.86094 0.0
H941 H 0.50632 0.13267 0.85277 0.0
H942 H 0.538 0.14272 0.86814 0.0
H943 H 0.53773 0.14166 0.83768 0.0
C944 C 0.62004 0.19709 0.89208 0.0
C945 C 0.62992 0.18428 0.87719 0.0
C946 C 0.59836 0.20138 0.88555 0.0
C947 C 0.58612 0.19295 0.86403 0.0
C948 C 0.59602 0.18034 0.84906 0.0
H949 H 0.48347 0.25803 0.81008 0.0
H950 H 0.51666 0.24146 0.81168 0.0
C951 C 0.61761 0.17592 0.8556 0.0
C952 C 0.56375 0.19842 0.85703 0.0
H953 H 0.49547 0.16698 0.84191 0.0
C954 C 0.56952 0.22597 0.85667 0.0
C955 C 0.53677 0.17683 0.85159 0.0
C956 C 0.52913 0.14677 0.8527 0.0
C957 C 0.54896 0.23255 0.85137 0.0
C958 C 0.52199 0.211 0.84578 0.0
C959 C 0.51626 0.18344 0.84587 0.0
C960 C 0.49903 0.2167 0.84193 0.0
C961 C 0.55602 0.26245 0.85268 0.0
C962 C 0.4771 0.20683 0.85752 0.0
C963 C 0.45796 0.21602 0.85654 0.0
C964 C 0.46045 0.23532 0.83995 0.0
C965 C 0.48109 0.24337 0.8232 0.0
C966 C 0.50019 0.23406 0.82416 0.0
H967 H 0.57588 0.27557 0.86173 0.0
H968 H 0.55805 0.2708 0.83523 0.0
H969 H 0.53939 0.26426 0.86151 0.0
H970 H 0.47573 0.19326 0.87127 0.0
H971 H 0.4422 0.20923 0.8696 0.0
H972 H 0.43427 0.62868 0.34645 0.0
H973 H 0.38587 0.59262 0.34324 0.0
H974 H 0.4006 0.54024 0.38819 0.0
H975 H 0.44948 0.57614 0.39119 0.0
H976 H 0.36353 0.53522 0.3284 0.0
H977 H 0.33495 0.54568 0.41703 0.0
H978 H 0.36605 0.57221 0.40353 0.0
H979 H 0.36441 0.54099 0.4135 0.0
C980 C 0.42743 0.60945 0.35551 0.0
C981 C 0.44589 0.60534 0.36906 0.0
C982 C 0.39968 0.58888 0.35369 0.0
C983 C 0.38971 0.56388 0.36553 0.0
C984 C 0.40792 0.55958 0.37911 0.0
H985 H 0.21731 0.43608 0.3834 0.0
H986 H 0.26788 0.45951 0.38257 0.0
C987 C 0.43579 0.58016 0.38089 0.0
C988 C 0.36007 0.54264 0.36382 0.0
H989 H 0.2996 0.51293 0.39373 0.0
C990 C 0.34951 0.53011 0.3427 0.0
C991 C 0.34198 0.53606 0.38254 0.0
C992 C 0.35223 0.5495 0.40544 0.0
C993 C 0.32115 0.5113 0.33973 0.0
C994 C 0.30288 0.50539 0.35827 0.0
C995 C 0.31363 0.51741 0.37954 0.0
C996 C 0.27237 0.48824 0.35592 0.0
C997 C 0.31107 0.49793 0.3168 0.0
C998 C 0.25805 0.49614 0.3408 0.0
C999 C 0.22911 0.48261 0.3411 0.0
C1000 C 0.21403 0.46126 0.35681 0.0
C1001 C 0.22835 0.45254 0.37117 0.0
C1002 C 0.25725 0.46591 0.37073 0.0
H1003 H 0.32783 0.49721 0.30714 0.0
H1004 H 0.29327 0.47653 0.31846 0.0
H1005 H 0.30428 0.51032 0.30675 0.0
H1006 H 0.26925 0.51371 0.32959 0.0
H1007 H 0.21868 0.48995 0.32995 0.0
H1008 H 0.75923 0.21481 0.83648 0.0
H1009 H 0.78443 0.26483 0.82972 0.0
H1010 H 0.80838 0.27868 0.90034 0.0
H1011 H 0.78449 0.22901 0.90687 0.0
H1012 H 0.76879 0.2966 0.84685 0.0
H1013 H 0.87696 0.33923 0.87367 0.0
H1014 H 0.85459 0.30265 0.86857 0.0
H1015 H 0.85503 0.31746 0.89595 0.0
C1016 C 0.77071 0.22856 0.85035 0.0
C1017 C 0.76973 0.21804 0.87224 0.0
C1018 C 0.78509 0.25713 0.84647 0.0
C1019 C 0.79852 0.27564 0.86446 0.0
C1020 C 0.79894 0.26499 0.88599 0.0
H1021 H 0.78862 0.4153 0.90085 0.0
H1022 H 0.78404 0.37066 0.89174 0.0
C1023 C 0.78499 0.23646 0.88978 0.0
C1024 C 0.8077 0.30552 0.86195 0.0
H1025 H 0.85721 0.36967 0.87989 0.0
C1026 C 0.78847 0.31262 0.85354 0.0
C1027 C 0.83355 0.32669 0.87021 0.0
C1028 C 0.85626 0.32106 0.87733 0.0
C1029 C 0.79343 0.3398 0.85487 0.0
C1030 C 0.81783 0.36024 0.86561 0.0
C1031 C 0.83812 0.35377 0.87224 0.0
C1032 C 0.82152 0.38767 0.87161 0.0
C1033 C 0.77211 0.34617 0.84526 0.0
C1034 C 0.8448 0.41214 0.86421 0.0
C1035 C 0.84778 0.43788 0.86977 0.0
C1036 C 0.82757 0.43959 0.88294 0.0
C1037 C 0.80468 0.41494 0.89081 0.0
C1038 C 0.8018 0.3893 0.88532 0.0
H1039 H 0.76048 0.33192 0.83107 0.0
H1040 H 0.75694 0.34325 0.85871 0.0
H1041 H 0.78184 0.36784 0.83898 0.0
H1042 H 0.86049 0.41131 0.85394 0.0
H1043 H 0.86597 0.45635 0.86374 0.0
H1044 H 0.07484 0.3325 0.30142 0.0
H1045 H 0.08645 0.30694 0.27394 0.0
H1046 H 0.17197 0.35299 0.2951 0.0
H1047 H 0.16029 0.37743 0.32313 0.0
H1048 H 0.11831 0.33211 0.23958 0.0
H1049 H 0.16601 0.27992 0.28388 0.0
H1050 H 0.14486 0.29108 0.29864 0.0
H1051 H 0.18146 0.31457 0.2945 0.0
C1052 C 0.09591 0.33646 0.30074 0.0
C1053 C 0.11676 0.35735 0.31417 0.0
C1054 C 0.10251 0.32183 0.28503 0.0
C1055 C 0.13002 0.32774 0.28261 0.0
C1056 C 0.15047 0.34743 0.29699 0.0
H1057 H 0.25475 0.37886 0.19672 0.0
H1058 H 0.22115 0.35782 0.22744 0.0
C1059 C 0.14388 0.3619 0.3127 0.0
C1060 C 0.13866 0.31787 0.26255 0.0
H1061 H 0.18784 0.30182 0.24678 0.0
C1062 C 0.13265 0.32437 0.24102 0.0
C1063 C 0.15711 0.30746 0.26436 0.0
C1064 C 0.16242 0.29759 0.28664 0.0
C1065 C 0.14728 0.32423 0.22173 0.0
C1066 C 0.16822 0.31713 0.2241 0.0
C1067 C 0.17199 0.30758 0.2451 0.0
C1068 C 0.18984 0.32529 0.20654 0.0
C1069 C 0.14225 0.33448 0.19946 0.0
C1070 C 0.18368 0.3133 0.18485 0.0
C1071 C 0.20284 0.3255 0.16718 0.0
C1072 C 0.22828 0.34985 0.17106 0.0
C1073 C 0.23508 0.36047 0.1932 0.0
C1074 C 0.21604 0.34827 0.21079 0.0
H1075 H 0.12643 0.34096 0.20095 0.0
H1076 H 0.16182 0.35236 0.19315 0.0
H1077 H 0.13501 0.31777 0.18657 0.0
H1078 H 0.16359 0.29544 0.18134 0.0
H1079 H 0.19708 0.31687 0.15028 0.0
H1080 H 0.73035 0.06956 0.81894 0.0
H1081 H 0.75684 0.07622 0.78376 0.0
H1082 H 0.82054 0.15579 0.80826 0.0
H1083 H 0.79384 0.14928 0.84294 0.0
H1084 H 0.76516 0.1233 0.75877 0.0
H1085 H 0.86492 0.12674 0.77234 0.0
H1086 H 0.83512 0.10734 0.79052 0.0
H1087 H 0.85713 0.14408 0.79436 0.0
C1088 C 0.7506 0.08782 0.8171 0.0
C1089 C 0.76025 0.10898 0.8334 0.0
C1090 C 0.76568 0.09161 0.7971 0.0
C1091 C 0.79081 0.11633 0.79355 0.0
C1092 C 0.80155 0.13629 0.81086 0.0
H1093 H 0.89061 0.24647 0.7117 0.0
H1094 H 0.87149 0.2071 0.73794 0.0
C1095 C 0.78627 0.13271 0.83055 0.0
C1096 C 0.80237 0.12469 0.77045 0.0
H1097 H 0.86413 0.1564 0.74237 0.0
C1098 C 0.78654 0.12976 0.75473 0.0
C1099 C 0.83026 0.13319 0.76546 0.0
C1100 C 0.84779 0.12732 0.7815 0.0
C1101 C 0.79863 0.14584 0.73529 0.0
C1102 C 0.82718 0.15607 0.73098 0.0
C1103 C 0.84233 0.14869 0.74569 0.0
C1104 C 0.84238 0.1778 0.71362 0.0
C1105 C 0.78125 0.15388 0.72093 0.0
C1106 C 0.83338 0.17416 0.69095 0.0
C1107 C 0.84369 0.19688 0.67626 0.0
C1108 C 0.86398 0.2232 0.68377 0.0
C1109 C 0.87501 0.22626 0.70565 0.0
C1110 C 0.86412 0.20377 0.72056 0.0
H1111 H 0.76146 0.14888 0.72938 0.0
H1112 H 0.79269 0.17641 0.71712 0.0
H1113 H 0.77605 0.14236 0.70465 0.0
H1114 H 0.81732 0.15414 0.68498 0.0
H1115 H 0.83523 0.1942 0.65929 0.0
H1116 H 0.67723 0.87253 0.14904 0.0
H1117 H 0.70938 0.86616 0.17344 0.0
H1118 H 0.66387 0.86674 0.23252 0.0
H1119 H 0.63235 0.87368 0.2084 0.0
H1120 H 0.724 0.89132 0.23959 0.0
H1121 H 0.67521 0.78698 0.19902 0.0
H1122 H 0.69412 0.81815 0.18251 0.0
H1123 H 0.66047 0.80874 0.19352 0.0
C1124 C 0.67467 0.87214 0.16729 0.0
C1125 C 0.65196 0.873 0.17687 0.0
C1126 C 0.69302 0.86846 0.18117 0.0
C1127 C 0.68883 0.86568 0.20475 0.0
C1128 C 0.66758 0.86893 0.21436 0.0
H1129 H 0.62938 0.80894 0.30669 0.0
H1130 H 0.67047 0.84052 0.28566 0.0
C1131 C 0.64931 0.87251 0.20057 0.0
C1132 C 0.70227 0.85424 0.21943 0.0
H1133 H 0.68218 0.7893 0.23821 0.0
C1134 C 0.71607 0.86916 0.23899 0.0
C1135 C 0.69329 0.82562 0.21835 0.0
C1136 C 0.68003 0.80879 0.19724 0.0
C1137 C 0.71592 0.85522 0.2589 0.0
C1138 C 0.70072 0.82593 0.2592 0.0
C1139 C 0.6928 0.81175 0.23837 0.0
C1140 C 0.68396 0.81065 0.27938 0.0
C1141 C 0.72896 0.8718 0.28009 0.0
C1142 C 0.67813 0.78347 0.2841 0.0
C1143 C 0.65405 0.76517 0.29604 0.0
C1144 C 0.63566 0.77393 0.30325 0.0
C1145 C 0.6433 0.80185 0.30108 0.0
C1146 C 0.66719 0.82006 0.28931 0.0
H1147 H 0.75006 0.88915 0.27616 0.0
H1148 H 0.71663 0.88115 0.28622 0.0
H1149 H 0.73041 0.85888 0.2938 0.0
H1150 H 0.6906 0.77562 0.2766 0.0
H1151 H 0.64839 0.74361 0.29758 0.0
H1152 H 0.77448 0.60967 0.68586 0.0
H1153 H 0.8095 0.63156 0.71479 0.0
H1154 H 0.80397 0.7058 0.70978 0.0
H1155 H 0.76897 0.68421 0.67977 0.0
H1156 H 0.86337 0.68712 0.7143 0.0
H1157 H 0.78415 0.67541 0.77805 0.0
H1158 H 0.77313 0.65482 0.75249 0.0
H1159 H 0.78691 0.69154 0.75085 0.0
C1160 C 0.78096 0.63087 0.69023 0.0
C1161 C 0.76869 0.64507 0.68025 0.0
C1162 C 0.80105 0.64336 0.70695 0.0
C1163 C 0.80929 0.67024 0.71434 0.0
C1164 C 0.79779 0.68497 0.70424 0.0
H1165 H 0.88052 0.6695 0.846 0.0
H1166 H 0.87295 0.6954 0.81563 0.0
C1167 C 0.77766 0.67249 0.68722 0.0
C1168 C 0.82816 0.68096 0.73399 0.0
H1169 H 0.82296 0.67348 0.79149 0.0
C1170 C 0.85508 0.6854 0.73127 0.0
C1171 C 0.81744 0.67912 0.75607 0.0
C1172 C 0.78885 0.67503 0.75976 0.0
C1173 C 0.87007 0.6843 0.74996 0.0
C1174 C 0.85751 0.67818 0.77164 0.0
C1175 C 0.83237 0.67781 0.77476 0.0
C1176 C 0.86621 0.66544 0.78946 0.0
C1177 C 0.89811 0.68717 0.74606 0.0
C1178 C 0.86472 0.64005 0.78476 0.0
C1179 C 0.86861 0.6252 0.80197 0.0
C1180 C 0.8741 0.63545 0.82425 0.0
C1181 C 0.87647 0.6613 0.82889 0.0
C1182 C 0.87221 0.67608 0.81162 0.0
H1183 H 0.90909 0.70175 0.73188 0.0
H1184 H 0.91116 0.69459 0.76157 0.0
H1185 H 0.89541 0.6667 0.74128 0.0
H1186 H 0.8594 0.6311 0.76791 0.0
H1187 H 0.86699 0.6055 0.79792 0.0
H1188 H 0.21959 0.83808 0.30201 0.0
H1189 H 0.17895 0.82448 0.27895 0.0
H1190 H 0.19239 0.9076 0.28174 0.0
H1191 H 0.23328 0.92159 0.30574 0.0
H1192 H 0.12826 0.83027 0.28469 0.0
H1193 H 0.19808 0.89012 0.2129 0.0
H1194 H 0.21243 0.88245 0.23746 0.0
H1195 H 0.19991 0.9064 0.23978 0.0
C1196 C 0.21376 0.8535 0.29842 0.0
C1197 C 0.23002 0.88106 0.3058 0.0
C1198 C 0.19036 0.8456 0.28515 0.0
C1199 C 0.18267 0.86501 0.27871 0.0
C1200 C 0.19807 0.89235 0.28657 0.0
H1201 H 0.10806 0.78868 0.15371 0.0
H1202 H 0.11091 0.82161 0.18255 0.0
C1203 C 0.22157 0.90032 0.3001 0.0
C1204 C 0.16072 0.85653 0.26142 0.0
H1205 H 0.15693 0.84948 0.204 0.0
C1206 C 0.13399 0.83518 0.26698 0.0
C1207 C 0.16795 0.86346 0.23839 0.0
C1208 C 0.1961 0.88688 0.23158 0.0
C1209 C 0.11584 0.81799 0.25005 0.0
C1210 C 0.12513 0.82194 0.22728 0.0
C1211 C 0.14995 0.84602 0.22151 0.0
C1212 C 0.1142 0.79864 0.21088 0.0
C1213 C 0.08792 0.79438 0.25695 0.0
C1214 C 0.11389 0.77418 0.21724 0.0
C1215 C 0.11219 0.75539 0.20085 0.0
C1216 C 0.1111 0.76079 0.17772 0.0
C1217 C 0.10885 0.78394 0.17143 0.0
C1218 C 0.11048 0.80279 0.1879 0.0
H1219 H 0.07868 0.80122 0.2704 0.0
H1220 H 0.0734 0.78621 0.24234 0.0
H1221 H 0.09046 0.7774 0.26422 0.0
H1222 H 0.11745 0.77067 0.23471 0.0
H1223 H 0.11351 0.73748 0.20618 0.0
H1224 H 0.33922 0.09462 0.69158 0.0
H1225 H 0.29505 0.08803 0.7066 0.0
H1226 H 0.3303 0.17703 0.70761 0.0
H1227 H 0.37304 0.18297 0.69233 0.0
H1228 H 0.28958 0.0993 0.74603 0.0
H1229 H 0.2541 0.16033 0.70297 0.0
H1230 H 0.27333 0.14749 0.68735 0.0
H1231 H 0.29058 0.18211 0.6993 0.0
C1232 C 0.33671 0.11248 0.69413 0.0
C1233 C 0.35934 0.13931 0.69122 0.0
C1234 C 0.31156 0.10878 0.70268 0.0
C1235 C 0.30886 0.13192 0.70822 0.0
C1236 C 0.33094 0.15857 0.70301 0.0
H1237 H 0.36899 0.205 0.8018 0.0
H1238 H 0.33422 0.16387 0.78312 0.0
C1239 C 0.35578 0.16215 0.69461 0.0
C1240 C 0.28749 0.12978 0.72459 0.0
H1241 H 0.27765 0.18151 0.74365 0.0
C1242 C 0.28552 0.11639 0.74533 0.0
C1243 C 0.27883 0.14968 0.72409 0.0
C1244 C 0.274 0.16032 0.70204 0.0
C1245 C 0.28377 0.12831 0.76578 0.0
C1246 C 0.28547 0.1545 0.76504 0.0
C1247 C 0.27888 0.16272 0.74447 0.0
C1248 C 0.30317 0.17659 0.78157 0.0
C1249 C 0.28388 0.11475 0.78789 0.0
C1250 C 0.29802 0.19819 0.78704 0.0
C1251 C 0.31868 0.22251 0.79728 0.0
C1252 C 0.3447 0.22551 0.80245 0.0
C1253 C 0.34907 0.20322 0.79841 0.0
C1254 C 0.32878 0.17928 0.78791 0.0
H1255 H 0.2674 0.0926 0.78757 0.0
H1256 H 0.30391 0.11521 0.78996 0.0
H1257 H 0.2804 0.12499 0.80269 0.0
H1258 H 0.27863 0.19689 0.7823 0.0
H1259 H 0.31466 0.23931 0.80047 0.0
H1260 H 0.47423 0.64405 0.29748 0.0
H1261 H 0.43869 0.60457 0.27633 0.0
H1262 H 0.50215 0.59934 0.23842 0.0
H1263 H 0.53792 0.6391 0.25937 0.0
H1264 H 0.45946 0.59286 0.21163 0.0
H1265 H 0.41866 0.52468 0.28723 0.0
H1266 H 0.41839 0.55659 0.29022 0.0
H1267 H 0.45088 0.55723 0.28768 0.0
C1268 C 0.48065 0.63456 0.2846 0.0
C1269 C 0.50889 0.64445 0.2803 0.0
C1270 C 0.46031 0.61189 0.27264 0.0
C1271 C 0.46782 0.59854 0.25631 0.0
C1272 C 0.49595 0.60917 0.25119 0.0
H1273 H 0.3608 0.43751 0.19321 0.0
H1274 H 0.39589 0.47508 0.21673 0.0
C1275 C 0.51635 0.63196 0.26309 0.0
C1276 C 0.44632 0.5736 0.24445 0.0
H1277 H 0.39201 0.50819 0.2532 0.0
C1278 C 0.4448 0.57433 0.22071 0.0
C1279 C 0.42749 0.54925 0.25633 0.0
C1280 C 0.42904 0.54671 0.28175 0.0
C1281 C 0.42447 0.55165 0.20855 0.0
C1282 C 0.40494 0.52777 0.22049 0.0
C1283 C 0.40688 0.52667 0.24417 0.0
C1284 C 0.38205 0.50407 0.20854 0.0
C1285 C 0.42408 0.55344 0.18299 0.0
C1286 C 0.36212 0.50771 0.197 0.0
C1287 C 0.34217 0.48643 0.18368 0.0
C1288 C 0.34172 0.46105 0.18169 0.0
C1289 C 0.36067 0.45683 0.19438 0.0
C1290 C 0.38073 0.47826 0.20775 0.0
H1291 H 0.44437 0.56971 0.17622 0.0
H1292 H 0.41877 0.53333 0.17501 0.0
H1293 H 0.40813 0.55877 0.1779 0.0
H1294 H 0.3625 0.52732 0.19778 0.0
H1295 H 0.32764 0.49024 0.17435 0.0
H1296 H 0.82937 0.48397 0.82526 0.0
H1297 H 0.82627 0.44635 0.80186 0.0
H1298 H 0.89489 0.50547 0.76123 0.0
H1299 H 0.89816 0.54335 0.78456 0.0
H1300 H 0.85104 0.46383 0.73573 0.0
H1301 H 0.8821 0.41909 0.80665 0.0
H1302 H 0.85256 0.42304 0.81216 0.0
H1303 H 0.88601 0.45323 0.8081 0.0
C1304 C 0.84381 0.48903 0.81133 0.0
C1305 C 0.86434 0.51665 0.807 0.0
C1306 C 0.84202 0.46746 0.79801 0.0
C1307 C 0.86075 0.47309 0.78015 0.0
C1308 C 0.88039 0.50071 0.77508 0.0
H1309 H 0.91126 0.371 0.70907 0.0
H1310 H 0.9066 0.40365 0.73381 0.0
C1311 C 0.88219 0.52233 0.78839 0.0
C1312 C 0.86031 0.45019 0.76703 0.0
H1313 H 0.87042 0.39476 0.7718 0.0
C1314 C 0.85519 0.44867 0.7436 0.0
C1315 C 0.86586 0.43053 0.77739 0.0
C1316 C 0.87219 0.43157 0.80242 0.0
C1317 C 0.85553 0.42802 0.73019 0.0
C1318 C 0.861 0.40834 0.74054 0.0
C1319 C 0.86607 0.40981 0.76398 0.0
C1320 C 0.86295 0.38696 0.72705 0.0
C1321 C 0.85058 0.42772 0.70496 0.0
C1322 C 0.83972 0.36621 0.71567 0.0
C1323 C 0.84227 0.34742 0.70158 0.0
C1324 C 0.86814 0.34913 0.69858 0.0
C1325 C 0.89106 0.36915 0.7109 0.0
C1326 C 0.88847 0.38787 0.72502 0.0
H1327 H 0.85173 0.4472 0.69903 0.0
H1328 H 0.86588 0.42453 0.69532 0.0
H1329 H 0.82962 0.41026 0.70096 0.0
H1330 H 0.81971 0.36482 0.71741 0.0
H1331 H 0.82406 0.33187 0.69277 0.0
H1332 H 0.49822 0.82954 0.19804 0.0
H1333 H 0.46385 0.83393 0.22058 0.0
H1334 H 0.52805 0.91136 0.24786 0.0
H1335 H 0.56274 0.90754 0.22484 0.0
H1336 H 0.4821 0.86659 0.28011 0.0
H1337 H 0.44536 0.8984 0.20387 0.0
H1338 H 0.45048 0.86907 0.20143 0.0
H1339 H 0.4798 0.90298 0.20549 0.0
C1340 C 0.50513 0.84754 0.20882 0.0
C1341 C 0.53319 0.8685 0.20928 0.0
C1342 C 0.48545 0.8499 0.22177 0.0
C1343 C 0.49344 0.87309 0.23563 0.0
C1344 C 0.52156 0.89335 0.23715 0.0
H1345 H 0.39742 0.93863 0.29777 0.0
H1346 H 0.43171 0.93161 0.27734 0.0
C1347 C 0.54133 0.8911 0.22404 0.0
C1348 C 0.47216 0.87682 0.24751 0.0
H1349 H 0.4218 0.8936 0.23833 0.0
C1350 C 0.46892 0.87253 0.27105 0.0
C1351 C 0.455 0.88445 0.23552 0.0
C1352 C 0.45775 0.88916 0.21018 0.0
C1353 C 0.44875 0.8756 0.28296 0.0
C1354 C 0.43166 0.88334 0.27095 0.0
C1355 C 0.43502 0.88774 0.24743 0.0
C1356 C 0.41034 0.88727 0.28259 0.0
C1357 C 0.44595 0.87077 0.30829 0.0
C1358 C 0.38665 0.86454 0.29171 0.0
C1359 C 0.36688 0.86841 0.30316 0.0
C1360 C 0.37057 0.89516 0.30588 0.0
C1361 C 0.39397 0.91779 0.29608 0.0
C1362 C 0.41363 0.91385 0.28447 0.0
H1363 H 0.46374 0.8696 0.31558 0.0
H1364 H 0.44427 0.88754 0.317 0.0
H1365 H 0.42674 0.85091 0.31193 0.0
H1366 H 0.38351 0.8438 0.29004 0.0
H1367 H 0.34886 0.85043 0.31008 0.0
H1368 H 0.51546 0.35418 0.80022 0.0
H1369 H 0.54596 0.39377 0.77668 0.0
H1370 H 0.48182 0.36748 0.72595 0.0
H1371 H 0.45102 0.32739 0.7497 0.0
H1372 H 0.53334 0.38511 0.70739 0.0
H1373 H 0.53884 0.46232 0.76943 0.0
H1374 H 0.54863 0.43898 0.78167 0.0
H1375 H 0.51374 0.42589 0.77168 0.0
C1376 C 0.50766 0.357 0.78425 0.0
C1377 C 0.48062 0.33817 0.77709 0.0
C1378 C 0.52517 0.37961 0.77075 0.0
C1379 C 0.51586 0.38406 0.7499 0.0
C1380 C 0.48926 0.3646 0.74215 0.0
H1381 H 0.60677 0.54339 0.67981 0.0
H1382 H 0.57148 0.50266 0.70022 0.0
C1383 C 0.47175 0.34173 0.75565 0.0
C1384 C 0.53413 0.40908 0.73635 0.0
H1385 H 0.57288 0.47956 0.73987 0.0
C1386 C 0.54178 0.40579 0.71437 0.0
C1387 C 0.54473 0.43607 0.74534 0.0
C1388 C 0.53584 0.4411 0.76823 0.0
C1389 C 0.56061 0.42875 0.70147 0.0
C1390 C 0.57254 0.45562 0.71105 0.0
C1391 C 0.56404 0.45894 0.73267 0.0
C1392 C 0.59416 0.48051 0.69909 0.0
C1393 C 0.56737 0.42399 0.67767 0.0
C1394 C 0.61898 0.48193 0.69232 0.0
C1395 C 0.63912 0.50511 0.68067 0.0
C1396 C 0.63497 0.52748 0.67575 0.0
C1397 C 0.6106 0.52652 0.68335 0.0
C1398 C 0.59036 0.50321 0.69491 0.0
H1399 H 0.55055 0.40427 0.67051 0.0
H1400 H 0.5708 0.44124 0.66619 0.0
H1401 H 0.58656 0.42263 0.678 0.0
H1402 H 0.62276 0.46507 0.696 0.0
H1403 H 0.65784 0.50537 0.67531 0.0
H1404 H 0.07652 0.62864 0.19121 0.0
H1405 H 0.07277 0.59041 0.21441 0.0
H1406 H 0.16167 0.62703 0.21335 0.0
H1407 H 0.16559 0.66494 0.18996 0.0
H1408 H 0.13554 0.5723 0.20299 0.0
H1409 H 0.09007 0.58907 0.28108 0.0
H1410 H 0.07059 0.58566 0.25581 0.0
H1411 H 0.10507 0.6147 0.25886 0.0
C1412 C 0.09528 0.62874 0.19619 0.0
C1413 C 0.12134 0.64983 0.18874 0.0
C1414 C 0.09311 0.60692 0.2095 0.0
C1415 C 0.11697 0.60602 0.21582 0.0
C1416 C 0.143 0.62731 0.2087 0.0
H1417 H 0.15548 0.50174 0.29838 0.0
H1418 H 0.15662 0.53678 0.27265 0.0
C1419 C 0.14518 0.649 0.19535 0.0
C1420 C 0.11491 0.58242 0.22908 0.0
H1421 H 0.09221 0.54764 0.27936 0.0
C1422 C 0.12609 0.56694 0.21971 0.0
C1423 C 0.10266 0.5755 0.2509 0.0
C1424 C 0.09164 0.59224 0.26239 0.0
C1425 C 0.12518 0.54461 0.23152 0.0
C1426 C 0.11283 0.53767 0.25326 0.0
C1427 C 0.10146 0.55296 0.26258 0.0
C1428 C 0.11234 0.51524 0.26705 0.0
C1429 C 0.13724 0.52846 0.22068 0.0
C1430 C 0.08706 0.49149 0.27227 0.0
C1431 C 0.08632 0.47139 0.28696 0.0
C1432 C 0.11084 0.47498 0.29693 0.0
C1433 C 0.13622 0.49846 0.29111 0.0
C1434 C 0.13694 0.51843 0.27632 0.0
H1435 H 0.14107 0.5329 0.20221 0.0
H1436 H 0.15728 0.53413 0.22896 0.0
H1437 H 0.12319 0.50586 0.22307 0.0
H1438 H 0.06786 0.48878 0.26533 0.0
H1439 H 0.06643 0.45363 0.29117 0.0
H1440 H 0.64089 0.08405 0.79767 0.0
H1441 H 0.60789 0.08828 0.77285 0.0
H1442 H 0.63857 0.17195 0.79637 0.0
H1443 H 0.67096 0.1676 0.82154 0.0
H1444 H 0.58381 0.14249 0.79946 0.0
H1445 H 0.61556 0.12799 0.7137 0.0
H1446 H 0.60932 0.10047 0.73292 0.0
H1447 H 0.63729 0.13501 0.73838 0.0
C1448 C 0.64097 0.10351 0.79716 0.0
C1449 C 0.6584 0.12544 0.81159 0.0
C1450 C 0.62217 0.10596 0.78292 0.0
C1451 C 0.62093 0.13053 0.7826 0.0
C1452 C 0.63916 0.1528 0.79633 0.0
H1453 H 0.52212 0.16552 0.68822 0.0
H1454 H 0.55988 0.16636 0.70991 0.0
C1455 C 0.65768 0.15028 0.81069 0.0
C1456 C 0.59919 0.13239 0.76949 0.0
H1457 H 0.57142 0.125 0.71654 0.0
C1458 C 0.58125 0.13888 0.78129 0.0
C1459 C 0.59608 0.12803 0.74576 0.0
C1460 C 0.61576 0.12277 0.73189 0.0
C1461 C 0.56002 0.1407 0.77008 0.0
C1462 C 0.55604 0.13496 0.74655 0.0
C1463 C 0.5743 0.12902 0.73465 0.0
C1464 C 0.53304 0.13496 0.73395 0.0
C1465 C 0.5424 0.14919 0.78352 0.0
C1466 C 0.5054 0.117 0.74027 0.0
C1467 C 0.48372 0.11651 0.72795 0.0
C1468 C 0.48932 0.1338 0.70895 0.0
C1469 C 0.51706 0.15187 0.70274 0.0
C1470 C 0.53869 0.15238 0.71509 0.0
H1471 H 0.55372 0.16179 0.79857 0.0
H1472 H 0.53578 0.1614 0.773 0.0
H1473 H 0.52361 0.13034 0.78969 0.0
H1474 H 0.50057 0.10302 0.75453 0.0
H1475 H 0.4626 0.10223 0.73308 0.0
loop_
_geom_bond_atom_site_label_1
_geom_bond_atom_site_label_2
_geom_bond_distance
_geom_bond_site_symmetry_2
_ccdc_geom_bond_type
C0 C1 1.351 . S
C0 N3 1.368 . S
C0 H5 0.931 . S
C1 C0 1.351 . S
C1 N2 1.373 . S
C1 H29 0.930 . S
N2 C1 1.373 . S
N2 C4 1.340 . S
N3 C0 1.368 . S
N3 C4 1.321 . S
N3 Co6 2.135 . S
C4 N2 1.340 . S
C4 N3 1.321 . S
C4 H28 0.930 . S
H5 C0 0.931 . S
Co6 N3 2.135 . S
Co6 N9 2.121 . S
Co6 O14 2.055 . S
Co6 O17 2.039 . S
Co6 N20 2.140 . S
C7 O8 1.227 . S
C7 O17 1.265 . S
O8 C7 1.227 . S
N9 Co6 2.121 . S
N9 C11 1.375 . S
N9 C12 1.313 . S
C10 C11 1.338 . S
C10 N13 1.377 . S
C10 H30 0.930 . S
C11 N9 1.375 . S
C11 C10 1.338 . S
C11 H15 0.931 . S
C12 N9 1.313 . S
C12 N13 1.344 . S
C12 H16 0.930 . S
N13 C10 1.377 . S
N13 C12 1.344 . S
O14 Co6 2.055 . S
O14 C18 1.253 . S
H15 C11 0.931 . S
H16 C12 0.930 . S
O17 Co6 2.039 . S
O17 C7 1.265 . S
C18 O14 1.253 . S
C18 O19 1.227 . S
O19 C18 1.227 . S
N20 Co6 2.140 . S
N20 C23 1.346 . S
N20 C24 1.345 . S
C21 C22 1.387 . S
C21 C25 1.391 . S
C22 C21 1.387 . S
C22 C23 1.369 . S
C22 H31 0.929 . S
C23 N20 1.346 . S
C23 C22 1.369 . S
C23 H26 0.928 . S
C24 N20 1.345 . S
C24 C25 1.371 . S
C24 H27 0.931 . S
C25 C21 1.391 . S
C25 C24 1.371 . S
C25 H32 0.930 . S
H26 C23 0.928 . S
H27 C24 0.931 . S
H28 C4 0.930 . S
H29 C1 0.930 . S
H30 C10 0.930 . S
H31 C22 0.929 . S
H32 C25 0.930 . S
C33 C34 1.351 . S
C33 N36 1.368 . S
C33 H38 0.931 . S
C34 C33 1.351 . S
C34 N35 1.373 . S
C34 H62 0.930 . S
N35 C34 1.373 . S
N35 C37 1.340 . S
N36 C33 1.368 . S
N36 C37 1.321 . S
N36 Co39 2.135 . S
C37 N35 1.340 . S
C37 N36 1.321 . S
C37 H61 0.930 . S
H38 C33 0.931 . S
Co39 N36 2.135 . S
Co39 N42 2.121 . S
Co39 O47 2.055 . S
Co39 O50 2.039 . S
Co39 N53 2.140 . S
C40 O41 1.227 . S
C40 O50 1.265 . S
O41 C40 1.227 . S
N42 Co39 2.121 . S
N42 C44 1.375 . S
N42 C45 1.313 . S
C43 C44 1.338 . S
C43 N46 1.377 . S
C43 H63 0.930 . S
C44 N42 1.375 . S
C44 C43 1.338 . S
C44 H48 0.931 . S
C45 N42 1.313 . S
C45 N46 1.344 . S
C45 H49 0.930 . S
N46 C43 1.377 . S
N46 C45 1.344 . S
O47 Co39 2.055 . S
O47 C51 1.253 . S
H48 C44 0.931 . S
H49 C45 0.930 . S
O50 Co39 2.039 . S
O50 C40 1.265 . S
C51 O47 1.253 . S
C51 O52 1.227 . S
O52 C51 1.227 . S
N53 Co39 2.140 . S
N53 C56 1.346 . S
N53 C57 1.345 . S
C54 C55 1.387 . S
C54 C58 1.391 . S
C55 C54 1.387 . S
C55 C56 1.369 . S
C55 H64 0.929 . S
C56 N53 1.346 . S
C56 C55 1.369 . S
C56 H59 0.928 . S
C57 N53 1.345 . S
C57 C58 1.371 . S
C57 H60 0.931 . S
C58 C54 1.391 . S
C58 C57 1.371 . S
C58 H65 0.930 . S
H59 C56 0.928 . S
H60 C57 0.931 . S
H61 C37 0.930 . S
H62 C34 0.930 . S
H63 C43 0.930 . S
H64 C55 0.929 . S
H65 C58 0.930 . S
C66 C67 1.351 . S
C66 N69 1.368 . S
C66 H71 0.931 . S
C67 C66 1.351 . S
C67 N68 1.373 . S
C67 H95 0.930 . S
N68 C67 1.373 . S
N68 C70 1.340 . S
N69 C66 1.368 . S
N69 C70 1.321 . S
N69 Co72 2.135 . S
C70 N68 1.340 . S
C70 N69 1.321 . S
C70 H94 0.930 . S
H71 C66 0.931 . S
Co72 N69 2.135 . S
Co72 N75 2.121 . S
Co72 O80 2.055 . S
Co72 O83 2.039 . S
Co72 N86 2.140 . S
C73 O74 1.227 . S
C73 O83 1.265 . S
O74 C73 1.227 . S
N75 Co72 2.121 . S
N75 C77 1.375 . S
N75 C78 1.313 . S
C76 C77 1.338 . S
C76 N79 1.377 . S
C76 H96 0.930 . S
C77 N75 1.375 . S
C77 C76 1.338 . S
C77 H81 0.931 . S
C78 N75 1.313 . S
C78 N79 1.344 . S
C78 H82 0.930 . S
N79 C76 1.377 . S
N79 C78 1.344 . S
O80 Co72 2.055 . S
O80 C84 1.253 . S
H81 C77 0.931 . S
H82 C78 0.930 . S
O83 Co72 2.039 . S
O83 C73 1.265 . S
C84 O80 1.253 . S
C84 O85 1.227 . S
O85 C84 1.227 . S
N86 Co72 2.140 . S
N86 C89 1.346 . S
N86 C90 1.345 . S
C87 C88 1.387 . S
C87 C91 1.391 . S
C88 C87 1.387 . S
C88 C89 1.369 . S
C88 H97 0.929 . S
C89 N86 1.346 . S
C89 C88 1.369 . S
C89 H92 0.928 . S
C90 N86 1.345 . S
C90 C91 1.371 . S
C90 H93 0.931 . S
C91 C87 1.391 . S
C91 C90 1.371 . S
C91 H98 0.930 . S
H92 C89 0.928 . S
H93 C90 0.931 . S
H94 C70 0.930 . S
H95 C67 0.930 . S
H96 C76 0.930 . S
H97 C88 0.929 . S
H98 C91 0.930 . S
C99 C100 1.351 . S
C99 N102 1.368 . S
C99 H104 0.931 . S
C100 C99 1.351 . S
C100 N101 1.373 . S
C100 H128 0.930 . S
N101 C100 1.373 . S
N101 C103 1.340 . S
N102 C99 1.368 . S
N102 C103 1.321 . S
N102 Co105 2.135 . S
C103 N101 1.340 . S
C103 N102 1.321 . S
C103 H127 0.930 . S
H104 C99 0.931 . S
Co105 N102 2.135 . S
Co105 N108 2.121 . S
Co105 O113 2.055 . S
Co105 O116 2.039 . S
Co105 N119 2.140 . S
C106 O107 1.227 . S
C106 O116 1.265 . S
O107 C106 1.227 . S
N108 Co105 2.121 . S
N108 C110 1.375 . S
N108 C111 1.313 . S
C109 C110 1.338 . S
C109 N112 1.377 . S
C109 H129 0.930 . S
C110 N108 1.375 . S
C110 C109 1.338 . S
C110 H114 0.931 . S
C111 N108 1.313 . S
C111 N112 1.344 . S
C111 H115 0.930 . S
N112 C109 1.377 . S
N112 C111 1.344 . S
O113 Co105 2.055 . S
O113 C117 1.253 . S
H114 C110 0.931 . S
H115 C111 0.930 . S
O116 Co105 2.039 . S
O116 C106 1.265 . S
C117 O113 1.253 . S
C117 O118 1.227 . S
O118 C117 1.227 . S
N119 Co105 2.140 . S
N119 C122 1.346 . S
N119 C123 1.345 . S
C120 C121 1.387 . S
C120 C124 1.391 . S
C121 C120 1.387 . S
C121 C122 1.369 . S
C121 H130 0.929 . S
C122 N119 1.346 . S
C122 C121 1.369 . S
C122 H125 0.928 . S
C123 N119 1.345 . S
C123 C124 1.371 . S
C123 H126 0.931 . S
C124 C120 1.391 . S
C124 C123 1.371 . S
C124 H131 0.930 . S
H125 C122 0.928 . S
H126 C123 0.931 . S
H127 C103 0.930 . S
H128 C100 0.930 . S
H129 C109 0.930 . S
H130 C121 0.929 . S
H131 C124 0.930 . S
C132 C133 1.351 . S
C132 N135 1.368 . S
C132 H137 0.931 . S
C133 C132 1.351 . S
C133 N134 1.373 . S
C133 H161 0.930 . S
N134 C133 1.373 . S
N134 C136 1.340 . S
N135 C132 1.368 . S
N135 C136 1.321 . S
N135 Co138 2.135 . S
C136 N134 1.340 . S
C136 N135 1.321 . S
C136 H160 0.930 . S
H137 C132 0.931 . S
Co138 N135 2.135 . S
Co138 N141 2.121 . S
Co138 O146 2.055 . S
Co138 O149 2.039 . S
Co138 N152 2.140 . S
C139 O140 1.227 . S
C139 O149 1.265 . S
O140 C139 1.227 . S
N141 Co138 2.121 . S
N141 C143 1.375 . S
N141 C144 1.313 . S
C142 C143 1.338 . S
C142 N145 1.377 . S
C142 H162 0.930 . S
C143 N141 1.375 . S
C143 C142 1.338 . S
C143 H147 0.931 . S
C144 N141 1.313 . S
C144 N145 1.344 . S
C144 H148 0.930 . S
N145 C142 1.377 . S
N145 C144 1.344 . S
O146 Co138 2.055 . S
O146 C150 1.253 . S
H147 C143 0.931 . S
H148 C144 0.930 . S
O149 Co138 2.039 . S
O149 C139 1.265 . S
C150 O146 1.253 . S
C150 O151 1.227 . S
O151 C150 1.227 . S
N152 Co138 2.140 . S
N152 C155 1.346 . S
N152 C156 1.345 . S
C153 C154 1.387 . S
C153 C157 1.391 . S
C154 C153 1.387 . S
C154 C155 1.369 . S
C154 H163 0.929 . S
C155 N152 1.346 . S
C155 C154 1.369 . S
C155 H158 0.928 . S
C156 N152 1.345 . S
C156 C157 1.371 . S
C156 H159 0.931 . S
C157 C153 1.391 . S
C157 C156 1.371 . S
C157 H164 0.930 . S
H158 C155 0.928 . S
H159 C156 0.931 . S
H160 C136 0.930 . S
H161 C133 0.930 . S
H162 C142 0.930 . S
H163 C154 0.929 . S
H164 C157 0.930 . S
C165 C166 1.351 . S
C165 N168 1.368 . S
C165 H170 0.931 . S
C166 C165 1.351 . S
C166 N167 1.373 . S
C166 H194 0.930 . S
N167 C166 1.373 . S
N167 C169 1.340 . S
N168 C165 1.368 . S
N168 C169 1.321 . S
N168 Co171 2.135 . S
C169 N167 1.340 . S
C169 N168 1.321 . S
C169 H193 0.930 . S
H170 C165 0.931 . S
Co171 N168 2.135 . S
Co171 N174 2.121 . S
Co171 O179 2.055 . S
Co171 O182 2.039 . S
Co171 N185 2.140 . S
C172 O173 1.227 . S
C172 O182 1.265 . S
O173 C172 1.227 . S
N174 Co171 2.121 . S
N174 C176 1.375 . S
N174 C177 1.313 . S
C175 C176 1.338 . S
C175 N178 1.377 . S
C175 H195 0.930 . S
C176 N174 1.375 . S
C176 C175 1.338 . S
C176 H180 0.931 . S
C177 N174 1.313 . S
C177 N178 1.344 . S
C177 H181 0.930 . S
N178 C175 1.377 . S
N178 C177 1.344 . S
O179 Co171 2.055 . S
O179 C183 1.253 . S
H180 C176 0.931 . S
H181 C177 0.930 . S
O182 Co171 2.039 . S
O182 C172 1.265 . S
C183 O179 1.253 . S
C183 O184 1.227 . S
O184 C183 1.227 . S
N185 Co171 2.140 . S
N185 C188 1.346 . S
N185 C189 1.345 . S
C186 C187 1.387 . S
C186 C190 1.391 . S
C187 C186 1.387 . S
C187 C188 1.369 . S
C187 H196 0.929 . S
C188 N185 1.346 . S
C188 C187 1.369 . S
C188 H191 0.928 . S
C189 N185 1.345 . S
C189 C190 1.371 . S
C189 H192 0.931 . S
C190 C186 1.391 . S
C190 C189 1.371 . S
C190 H197 0.930 . S
H191 C188 0.928 . S
H192 C189 0.931 . S
H193 C169 0.930 . S
H194 C166 0.930 . S
H195 C175 0.930 . S
H196 C187 0.929 . S
H197 C190 0.930 . S
C198 C199 1.351 . S
C198 N201 1.368 . S
C198 H203 0.931 . S
C199 C198 1.351 . S
C199 N200 1.373 . S
C199 H227 0.930 . S
N200 C199 1.373 . S
N200 C202 1.340 . S
N201 C198 1.368 . S
N201 C202 1.321 . S
N201 Co204 2.135 . S
C202 N200 1.340 . S
C202 N201 1.321 . S
C202 H226 0.930 . S
H203 C198 0.931 . S
Co204 N201 2.135 . S
Co204 N207 2.121 . S
Co204 O212 2.055 . S
Co204 O215 2.039 . S
Co204 N218 2.140 . S
C205 O206 1.227 . S
C205 O215 1.265 . S
O206 C205 1.227 . S
N207 Co204 2.121 . S
N207 C209 1.375 . S
N207 C210 1.313 . S
C208 C209 1.338 . S
C208 N211 1.377 . S
C208 H228 0.930 . S
C209 N207 1.375 . S
C209 C208 1.338 . S
C209 H213 0.931 . S
C210 N207 1.313 . S
C210 N211 1.344 . S
C210 H214 0.930 . S
N211 C208 1.377 . S
N211 C210 1.344 . S
O212 Co204 2.055 . S
O212 C216 1.253 . S
H213 C209 0.931 . S
H214 C210 0.930 . S
O215 Co204 2.039 . S
O215 C205 1.265 . S
C216 O212 1.253 . S
C216 O217 1.227 . S
O217 C216 1.227 . S
N218 Co204 2.140 . S
N218 C221 1.346 . S
N218 C222 1.345 . S
C219 C220 1.387 . S
C219 C223 1.391 . S
C220 C219 1.387 . S
C220 C221 1.369 . S
C220 H229 0.929 . S
C221 N218 1.346 . S
C221 C220 1.369 . S
C221 H224 0.928 . S
C222 N218 1.345 . S
C222 C223 1.371 . S
C222 H225 0.931 . S
C223 C219 1.391 . S
C223 C222 1.371 . S
C223 H230 0.930 . S
H224 C221 0.928 . S
H225 C222 0.931 . S
H226 C202 0.930 . S
H227 C199 0.930 . S
H228 C208 0.930 . S
H229 C220 0.929 . S
H230 C223 0.930 . S
C231 C232 1.351 . S
C231 N234 1.368 . S
C231 H236 0.931 . S
C232 C231 1.351 . S
C232 N233 1.373 . S
C232 H260 0.930 . S
N233 C232 1.373 . S
N233 C235 1.340 . S
N234 C231 1.368 . S
N234 C235 1.321 . S
N234 Co237 2.135 . S
C235 N233 1.340 . S
C235 N234 1.321 . S
C235 H259 0.930 . S
H236 C231 0.931 . S
Co237 N234 2.135 . S
Co237 N240 2.121 . S
Co237 O245 2.055 . S
Co237 O248 2.039 . S
Co237 N251 2.140 . S
C238 O239 1.227 . S
C238 O248 1.265 . S
O239 C238 1.227 . S
N240 Co237 2.121 . S
N240 C242 1.375 . S
N240 C243 1.313 . S
C241 C242 1.338 . S
C241 N244 1.377 . S
C241 H261 0.930 . S
C242 N240 1.375 . S
C242 C241 1.338 . S
C242 H246 0.931 . S
C243 N240 1.313 . S
C243 N244 1.344 . S
C243 H247 0.930 . S
N244 C241 1.377 . S
N244 C243 1.344 . S
O245 Co237 2.055 . S
O245 C249 1.253 . S
H246 C242 0.931 . S
H247 C243 0.930 . S
O248 Co237 2.039 . S
O248 C238 1.265 . S
C249 O245 1.253 . S
C249 O250 1.227 . S
O250 C249 1.227 . S
N251 Co237 2.140 . S
N251 C254 1.346 . S
N251 C255 1.345 . S
C252 C253 1.387 . S
C252 C256 1.391 . S
C253 C252 1.387 . S
C253 C254 1.369 . S
C253 H262 0.929 . S
C254 N251 1.346 . S
C254 C253 1.369 . S
C254 H257 0.928 . S
C255 N251 1.345 . S
C255 C256 1.371 . S
C255 H258 0.931 . S
C256 C252 1.391 . S
C256 C255 1.371 . S
C256 H263 0.930 . S
H257 C254 0.928 . S
H258 C255 0.931 . S
H259 C235 0.930 . S
H260 C232 0.930 . S
H261 C241 0.930 . S
H262 C253 0.929 . S
H263 C256 0.930 . S
C264 C265 1.351 . S
C264 N267 1.368 . S
C264 H269 0.931 . S
C265 C264 1.351 . S
C265 N266 1.373 . S
C265 H293 0.930 . S
N266 C265 1.373 . S
N266 C268 1.340 . S
N267 C264 1.368 . S
N267 C268 1.321 . S
N267 Co270 2.135 . S
C268 N266 1.340 . S
C268 N267 1.321 . S
C268 H292 0.930 . S
H269 C264 0.931 . S
Co270 N267 2.135 . S
Co270 N273 2.121 . S
Co270 O278 2.055 . S
Co270 O281 2.039 . S
Co270 N284 2.140 . S
C271 O272 1.227 . S
C271 O281 1.265 . S
O272 C271 1.227 . S
N273 Co270 2.121 . S
N273 C275 1.375 . S
N273 C276 1.313 . S
C274 C275 1.338 . S
C274 N277 1.377 . S
C274 H294 0.930 . S
C275 N273 1.375 . S
C275 C274 1.338 . S
C275 H279 0.931 . S
C276 N273 1.313 . S
C276 N277 1.344 . S
C276 H280 0.930 . S
N277 C274 1.377 . S
N277 C276 1.344 . S
O278 Co270 2.055 . S
O278 C282 1.253 . S
H279 C275 0.931 . S
H280 C276 0.930 . S
O281 Co270 2.039 . S
O281 C271 1.265 . S
C282 O278 1.253 . S
C282 O283 1.227 . S
O283 C282 1.227 . S
N284 Co270 2.140 . S
N284 C287 1.346 . S
N284 C288 1.345 . S
C285 C286 1.387 . S
C285 C289 1.391 . S
C286 C285 1.387 . S
C286 C287 1.369 . S
C286 H295 0.929 . S
C287 N284 1.346 . S
C287 C286 1.369 . S
C287 H290 0.928 . S
C288 N284 1.345 . S
C288 C289 1.371 . S
C288 H291 0.931 . S
C289 C285 1.391 . S
C289 C288 1.371 . S
C289 H296 0.930 . S
H290 C287 0.928 . S
H291 C288 0.931 . S
H292 C268 0.930 . S
H293 C265 0.930 . S
H294 C274 0.930 . S
H295 C286 0.929 . S
H296 C289 0.930 . S
C297 C298 1.351 . S
C297 N300 1.368 . S
C297 H302 0.931 . S
C298 C297 1.351 . S
C298 N299 1.373 . S
C298 H326 0.930 . S
N299 C298 1.373 . S
N299 C301 1.340 . S
N300 C297 1.368 . S
N300 C301 1.321 . S
N300 Co303 2.135 . S
C301 N299 1.340 . S
C301 N300 1.321 . S
C301 H325 0.930 . S
H302 C297 0.931 . S
Co303 N300 2.135 . S
Co303 N306 2.121 . S
Co303 O311 2.055 . S
Co303 O314 2.039 . S
Co303 N317 2.140 . S
C304 O305 1.227 . S
C304 O314 1.265 . S
O305 C304 1.227 . S
N306 Co303 2.121 . S
N306 C308 1.375 . S
N306 C309 1.313 . S
C307 C308 1.338 . S
C307 N310 1.377 . S
C307 H327 0.930 . S
C308 N306 1.375 . S
C308 C307 1.338 . S
C308 H312 0.931 . S
C309 N306 1.313 . S
C309 N310 1.344 . S
C309 H313 0.930 . S
N310 C307 1.377 . S
N310 C309 1.344 . S
O311 Co303 2.055 . S
O311 C315 1.253 . S
H312 C308 0.931 . S
H313 C309 0.930 . S
O314 Co303 2.039 . S
O314 C304 1.265 . S
C315 O311 1.253 . S
C315 O316 1.227 . S
O316 C315 1.227 . S
N317 Co303 2.140 . S
N317 C320 1.346 . S
N317 C321 1.345 . S
C318 C319 1.387 . S
C318 C322 1.391 . S
C319 C318 1.387 . S
C319 C320 1.369 . S
C319 H328 0.929 . S
C320 N317 1.346 . S
C320 C319 1.369 . S
C320 H323 0.928 . S
C321 N317 1.345 . S
C321 C322 1.371 . S
C321 H324 0.931 . S
C322 C318 1.391 . S
C322 C321 1.371 . S
C322 H329 0.930 . S
H323 C320 0.928 . S
H324 C321 0.931 . S
H325 C301 0.930 . S
H326 C298 0.930 . S
H327 C307 0.930 . S
H328 C319 0.929 . S
H329 C322 0.930 . S
C330 C331 1.351 . S
C330 N333 1.368 . S
C330 H335 0.931 . S
C331 C330 1.351 . S
C331 N332 1.373 . S
C331 H359 0.930 . S
N332 C331 1.373 . S
N332 C334 1.340 . S
N333 C330 1.368 . S
N333 C334 1.321 . S
N333 Co336 2.135 . S
C334 N332 1.340 . S
C334 N333 1.321 . S
C334 H358 0.930 . S
H335 C330 0.931 . S
Co336 N333 2.135 . S
Co336 N339 2.121 . S
Co336 O344 2.055 . S
Co336 O347 2.039 . S
Co336 N350 2.140 . S
C337 O338 1.227 . S
C337 O347 1.265 . S
O338 C337 1.227 . S
N339 Co336 2.121 . S
N339 C341 1.375 . S
N339 C342 1.313 . S
C340 C341 1.338 . S
C340 N343 1.377 . S
C340 H360 0.930 . S
C341 N339 1.375 . S
C341 C340 1.338 . S
C341 H345 0.931 . S
C342 N339 1.313 . S
C342 N343 1.344 . S
C342 H346 0.930 . S
N343 C340 1.377 . S
N343 C342 1.344 . S
O344 Co336 2.055 . S
O344 C348 1.253 . S
H345 C341 0.931 . S
H346 C342 0.930 . S
O347 Co336 2.039 . S
O347 C337 1.265 . S
C348 O344 1.253 . S
C348 O349 1.227 . S
O349 C348 1.227 . S
N350 Co336 2.140 . S
N350 C353 1.346 . S
N350 C354 1.345 . S
C351 C352 1.387 . S
C351 C355 1.391 . S
C352 C351 1.387 . S
C352 C353 1.369 . S
C352 H361 0.929 . S
C353 N350 1.346 . S
C353 C352 1.369 . S
C353 H356 0.928 . S
C354 N350 1.345 . S
C354 C355 1.371 . S
C354 H357 0.931 . S
C355 C351 1.391 . S
C355 C354 1.371 . S
C355 H362 0.930 . S
H356 C353 0.928 . S
H357 C354 0.931 . S
H358 C334 0.930 . S
H359 C331 0.930 . S
H360 C340 0.930 . S
H361 C352 0.929 . S
H362 C355 0.930 . S
C363 C364 1.351 . S
C363 N366 1.368 . S
C363 H368 0.931 . S
C364 C363 1.351 . S
C364 N365 1.373 . S
C364 H392 0.930 . S
N365 C364 1.373 . S
N365 C367 1.340 . S
N366 C363 1.368 . S
N366 C367 1.321 . S
N366 Co369 2.135 . S
C367 N365 1.340 . S
C367 N366 1.321 . S
C367 H391 0.930 . S
H368 C363 0.931 . S
Co369 N366 2.135 . S
Co369 N372 2.121 . S
Co369 O377 2.055 . S
Co369 O380 2.039 . S
Co369 N383 2.140 . S
C370 O371 1.227 . S
C370 O380 1.265 . S
O371 C370 1.227 . S
N372 Co369 2.121 . S
N372 C374 1.375 . S
N372 C375 1.313 . S
C373 C374 1.338 . S
C373 N376 1.377 . S
C373 H393 0.930 . S
C374 N372 1.375 . S
C374 C373 1.338 . S
C374 H378 0.931 . S
C375 N372 1.313 . S
C375 N376 1.344 . S
C375 H379 0.930 . S
N376 C373 1.377 . S
N376 C375 1.344 . S
O377 Co369 2.055 . S
O377 C381 1.253 . S
H378 C374 0.931 . S
H379 C375 0.930 . S
O380 Co369 2.039 . S
O380 C370 1.265 . S
C381 O377 1.253 . S
C381 O382 1.227 . S
O382 C381 1.227 . S
N383 Co369 2.140 . S
N383 C386 1.346 . S
N383 C387 1.345 . S
C384 C385 1.387 . S
C384 C388 1.391 . S
C385 C384 1.387 . S
C385 C386 1.369 . S
C385 H394 0.929 . S
C386 N383 1.346 . S
C386 C385 1.369 . S
C386 H389 0.928 . S
C387 N383 1.345 . S
C387 C388 1.371 . S
C387 H390 0.931 . S
C388 C384 1.391 . S
C388 C387 1.371 . S
C388 H395 0.930 . S
H389 C386 0.928 . S
H390 C387 0.931 . S
H391 C367 0.930 . S
H392 C364 0.930 . S
H393 C373 0.930 . S
H394 C385 0.929 . S
H395 C388 0.930 . S
H396 C404 0.929 . S
H397 C406 0.930 . S
H398 C408 0.930 . S
H399 C411 0.929 . S
H400 C414 0.930 . S
H401 C416 0.960 . S
H402 C416 0.960 . S
H403 C416 0.960 . S
C404 H396 0.929 . S
C404 C405 1.377 . S
C404 C406 1.384 . S
C405 C404 1.377 . S
C405 C411 1.390 . S
C406 H397 0.930 . S
C406 C404 1.384 . S
C406 C407 1.372 . S
C407 C406 1.372 . S
C407 C408 1.400 . S
C407 C412 1.490 . S
C408 H398 0.930 . S
C408 C407 1.400 . S
C408 C411 1.386 . S
H409 C425 0.930 . S
H410 C426 0.931 . S
C411 H399 0.929 . S
C411 C405 1.390 . S
C411 C408 1.386 . S
C412 C407 1.490 . S
C412 C414 1.395 . S
C412 C415 1.403 . S
H413 C419 0.930 . S
C414 H400 0.930 . S
C414 C412 1.395 . S
C414 C417 1.403 1_556 S
C415 C412 1.403 . S
C415 C416 1.524 . S
C415 C419 1.400 1_556 S
C416 H401 0.960 . S
C416 H402 0.960 . S
C416 H403 0.960 . S
C416 C415 1.524 . S
C417 C414 1.403 1_554 S
C417 C418 1.392 . S
C417 C421 1.495 . S
C418 C417 1.392 . S
C418 C419 1.385 . S
C418 C420 1.478 . S
C419 H413 0.930 . S
C419 C415 1.400 1_554 S
C419 C418 1.385 . S
C420 C418 1.478 . S
C420 C422 1.381 . S
C420 C426 1.383 . S
C421 C417 1.495 . S
C421 H427 0.959 . S
C421 H428 0.961 . S
C421 H429 0.960 . S
C422 C420 1.381 . S
C422 C423 1.394 . S
C422 H430 0.930 . S
C423 C422 1.394 . S
C423 C424 1.383 . S
C423 H431 0.929 . S
C424 C423 1.383 . S
C424 C425 1.377 . S
C425 H409 0.930 . S
C425 C424 1.377 . S
C425 C426 1.379 . S
C426 H410 0.931 . S
C426 C420 1.383 . S
C426 C425 1.379 . S
H427 C421 0.959 . S
H428 C421 0.961 . S
H429 C421 0.960 . S
H430 C422 0.930 . S
H431 C423 0.929 . S
H432 C440 0.929 . S
H433 C442 0.930 . S
H434 C444 0.930 . S
H435 C447 0.929 . S
H436 C450 0.930 . S
H437 C452 0.960 . S
H438 C452 0.960 . S
H439 C452 0.960 . S
C440 H432 0.929 . S
C440 C441 1.377 . S
C440 C442 1.384 . S
C441 C440 1.377 . S
C441 C447 1.390 . S
C442 H433 0.930 . S
C442 C440 1.384 . S
C442 C443 1.372 . S
C443 C442 1.372 . S
C443 C444 1.400 . S
C443 C448 1.490 . S
C444 H434 0.930 . S
C444 C443 1.400 . S
C444 C447 1.386 . S
H445 C461 0.930 . S
H446 C462 0.931 . S
C447 H435 0.929 . S
C447 C441 1.390 . S
C447 C444 1.386 . S
C448 C443 1.490 . S
C448 C450 1.395 1_655 S
C448 C451 1.403 . S
H449 C455 0.930 . S
C450 H436 0.930 . S
C450 C448 1.395 1_455 S
C450 C453 1.403 . S
C451 C448 1.403 . S
C451 C452 1.524 . S
C451 C455 1.400 . S
C452 H437 0.960 . S
C452 H438 0.960 . S
C452 H439 0.960 . S
C452 C451 1.524 . S
C453 C450 1.403 . S
C453 C454 1.392 . S
C453 C457 1.495 . S
C454 C453 1.392 . S
C454 C455 1.385 1_455 S
C454 C456 1.478 . S
C455 H449 0.930 . S
C455 C451 1.400 . S
C455 C454 1.385 1_655 S
C456 C454 1.478 . S
C456 C458 1.381 . S
C456 C462 1.383 . S
C457 C453 1.495 . S
C457 H463 0.959 . S
C457 H464 0.961 . S
C457 H465 0.960 . S
C458 C456 1.381 . S
C458 C459 1.394 . S
C458 H466 0.930 . S
C459 C458 1.394 . S
C459 C460 1.383 . S
C459 H467 0.929 . S
C460 C459 1.383 . S
C460 C461 1.377 . S
C461 H445 0.930 . S
C461 C460 1.377 . S
C461 C462 1.379 . S
C462 H446 0.931 . S
C462 C456 1.383 . S
C462 C461 1.379 . S
H463 C457 0.959 . S
H464 C457 0.961 . S
H465 C457 0.960 . S
H466 C458 0.930 . S
H467 C459 0.929 . S
H468 C476 0.929 . S
H469 C478 0.930 . S
H470 C480 0.930 . S
H471 C483 0.929 . S
H472 C486 0.930 . S
H473 C488 0.960 . S
H474 C488 0.960 . S
H475 C488 0.960 . S
C476 H468 0.929 . S
C476 C477 1.377 . S
C476 C478 1.384 . S
C477 C476 1.377 . S
C477 C483 1.390 . S
C478 H469 0.930 . S
C478 C476 1.384 . S
C478 C479 1.372 . S
C479 C478 1.372 . S
C479 C480 1.400 . S
C479 C484 1.490 . S
C480 H470 0.930 . S
C480 C479 1.400 . S
C480 C483 1.386 . S
H481 C497 0.930 . S
H482 C498 0.931 . S
C483 H471 0.929 . S
C483 C477 1.390 . S
C483 C480 1.386 . S
C484 C479 1.490 . S
C484 C486 1.395 . S
C484 C487 1.403 1_545 S
H485 C491 0.930 . S
C486 H472 0.930 . S
C486 C484 1.395 . S
C486 C489 1.403 1_556 S
C487 C484 1.403 1_565 S
C487 C488 1.524 . S
C487 C491 1.400 1_556 S
C488 H473 0.960 . S
C488 H474 0.960 . S
C488 H475 0.960 . S
C488 C487 1.524 . S
C489 C486 1.403 1_554 S
C489 C490 1.392 1_545 S
C489 C493 1.495 . S
C490 C489 1.392 1_565 S
C490 C491 1.385 . S
C490 C492 1.478 . S
C491 H485 0.930 . S
C491 C487 1.400 1_554 S
C491 C490 1.385 . S
C492 C490 1.478 . S
C492 C494 1.381 . S
C492 C498 1.383 . S
C493 C489 1.495 . S
C493 H499 0.959 . S
C493 H500 0.961 . S
C493 H501 0.960 . S
C494 C492 1.381 . S
C494 C495 1.394 . S
C494 H502 0.930 . S
C495 C494 1.394 . S
C495 C496 1.383 . S
C495 H503 0.929 . S
C496 C495 1.383 . S
C496 C497 1.377 . S
C497 H481 0.930 . S
C497 C496 1.377 . S
C497 C498 1.379 . S
C498 H482 0.931 . S
C498 C492 1.383 . S
C498 C497 1.379 . S
H499 C493 0.959 . S
H500 C493 0.961 . S
H501 C493 0.960 . S
H502 C494 0.930 . S
H503 C495 0.929 . S
H504 C512 0.929 . S
H505 C514 0.930 . S
H506 C516 0.930 . S
H507 C519 0.929 . S
H508 C522 0.930 . S
H509 C524 0.960 . S
H510 C524 0.960 . S
H511 C524 0.960 . S
C512 H504 0.929 . S
C512 C513 1.377 . S
C512 C514 1.384 . S
C513 C512 1.377 . S
C513 C519 1.390 . S
C514 H505 0.930 . S
C514 C512 1.384 . S
C514 C515 1.372 . S
C515 C514 1.372 . S
C515 C516 1.400 . S
C515 C520 1.490 . S
C516 H506 0.930 . S
C516 C515 1.400 . S
C516 C519 1.386 . S
H517 C533 0.930 . S
H518 C534 0.931 . S
C519 H507 0.929 . S
C519 C513 1.390 . S
C519 C516 1.386 . S
C520 C515 1.490 . S
C520 C522 1.395 . S
C520 C523 1.403 . S
H521 C527 0.930 . S
C522 H508 0.930 . S
C522 C520 1.395 . S
C522 C525 1.403 . S
C523 C520 1.403 . S
C523 C524 1.524 . S
C523 C527 1.400 . S
C524 H509 0.960 . S
C524 H510 0.960 . S
C524 H511 0.960 . S
C524 C523 1.524 . S
C525 C522 1.403 . S
C525 C526 1.392 . S
C525 C529 1.495 . S
C526 C525 1.392 . S
C526 C527 1.385 . S
C526 C528 1.478 . S
C527 H521 0.930 . S
C527 C523 1.400 . S
C527 C526 1.385 . S
C528 C526 1.478 . S
C528 C530 1.381 . S
C528 C534 1.383 . S
C529 C525 1.495 . S
C529 H535 0.959 . S
C529 H536 0.961 . S
C529 H537 0.960 . S
C530 C528 1.381 . S
C530 C531 1.394 . S
C530 H538 0.930 . S
C531 C530 1.394 . S
C531 C532 1.383 . S
C531 H539 0.929 . S
C532 C531 1.383 . S
C532 C533 1.377 . S
C533 H517 0.930 . S
C533 C532 1.377 . S
C533 C534 1.379 . S
C534 H518 0.931 . S
C534 C528 1.383 . S
C534 C533 1.379 . S
H535 C529 0.959 . S
H536 C529 0.961 . S
H537 C529 0.960 . S
H538 C530 0.930 . S
H539 C531 0.929 . S
H540 C548 0.929 . S
H541 C550 0.930 . S
H542 C552 0.930 . S
H543 C555 0.929 . S
H544 C558 0.931 . S
H545 C560 0.960 . S
H546 C560 0.960 . S
H547 C560 0.960 . S
C548 H540 0.929 . S
C548 C549 1.377 . S
C548 C550 1.384 . S
C549 C548 1.377 . S
C549 C555 1.390 . S
C550 H541 0.930 . S
C550 C548 1.384 . S
C550 C551 1.372 . S
C551 C550 1.372 . S
C551 C552 1.400 . S
C551 C556 1.490 . S
C552 H542 0.930 . S
C552 C551 1.400 . S
C552 C555 1.386 . S
H553 C569 0.930 . S
H554 C570 0.931 . S
C555 H543 0.929 . S
C555 C549 1.390 . S
C555 C552 1.386 . S
C556 C551 1.490 . S
C556 C558 1.400 . S
C556 C559 1.403 1_455 S
H557 C563 0.930 . S
C558 H544 0.931 . S
C558 C556 1.400 . S
C558 C561 1.397 1_554 S
C559 C556 1.403 1_655 S
C559 C560 1.524 . S
C559 C563 1.400 1_554 S
C560 H545 0.960 . S
C560 H546 0.960 . S
C560 H547 0.960 . S
C560 C559 1.524 . S
C561 C558 1.397 1_556 S
C561 C562 1.392 1_455 S
C561 C565 1.495 . S
C562 C561 1.392 1_655 S
C562 C563 1.385 . S
C562 C564 1.478 . S
C563 H557 0.930 . S
C563 C559 1.400 1_556 S
C563 C562 1.385 . S
C564 C562 1.478 . S
C564 C566 1.381 . S
C564 C570 1.383 . S
C565 C561 1.495 . S
C565 H571 0.959 . S
C565 H572 0.961 . S
C565 H573 0.960 . S
C566 C564 1.381 . S
C566 C567 1.394 . S
C566 H574 0.930 . S
C567 C566 1.394 . S
C567 C568 1.383 . S
C567 H575 0.929 . S
C568 C567 1.383 . S
C568 C569 1.377 . S
C569 H553 0.930 . S
C569 C568 1.377 . S
C569 C570 1.379 . S
C570 H554 0.931 . S
C570 C564 1.383 . S
C570 C569 1.379 . S
H571 C565 0.959 . S
H572 C565 0.961 . S
H573 C565 0.960 . S
H574 C566 0.930 . S
H575 C567 0.929 . S
H576 C584 0.929 . S
H577 C586 0.930 . S
H578 C588 0.930 . S
H579 C591 0.929 . S
H580 C594 0.930 . S
H581 C596 0.960 . S
H582 C596 0.960 . S
H583 C596 0.960 . S
C584 H576 0.929 . S
C584 C585 1.377 . S
C584 C586 1.384 . S
C585 C584 1.377 . S
C585 C591 1.390 . S
C586 H577 0.930 . S
C586 C584 1.384 . S
C586 C587 1.372 . S
C587 C586 1.372 . S
C587 C588 1.400 . S
C587 C592 1.490 . S
C588 H578 0.930 . S
C588 C587 1.400 . S
C588 C591 1.386 . S
H589 C605 0.930 . S
H590 C606 0.931 . S
C591 H579 0.929 . S
C591 C585 1.390 . S
C591 C588 1.386 . S
C592 C587 1.490 . S
C592 C594 1.395 1_565 S
C592 C595 1.403 . S
H593 C599 0.930 . S
C594 H580 0.930 . S
C594 C592 1.395 1_545 S
C594 C597 1.403 . S
C595 C592 1.403 . S
C595 C596 1.524 . S
C595 C599 1.400 . S
C596 H581 0.960 . S
C596 H582 0.960 . S
C596 H583 0.960 . S
C596 C595 1.524 . S
C597 C594 1.403 . S
C597 C598 1.392 . S
C597 C601 1.495 . S
C598 C597 1.392 . S
C598 C599 1.385 1_545 S
C598 C600 1.478 . S
C599 H593 0.930 . S
C599 C595 1.400 . S
C599 C598 1.385 1_565 S
C600 C598 1.478 . S
C600 C602 1.381 . S
C600 C606 1.383 . S
C601 C597 1.495 . S
C601 H607 0.959 . S
C601 H608 0.961 . S
C601 H609 0.960 . S
C602 C600 1.381 . S
C602 C603 1.394 . S
C602 H610 0.930 . S
C603 C602 1.394 . S
C603 C604 1.383 . S
C603 H611 0.929 . S
C604 C603 1.383 . S
C604 C605 1.377 . S
C605 H589 0.930 . S
C605 C604 1.377 . S
C605 C606 1.379 . S
C606 H590 0.931 . S
C606 C600 1.383 . S
C606 C605 1.379 . S
H607 C601 0.959 . S
H608 C601 0.961 . S
H609 C601 0.960 . S
H610 C602 0.930 . S
H611 C603 0.929 . S
H612 C620 0.929 . S
H613 C622 0.930 . S
H614 C624 0.930 . S
H615 C627 0.929 . S
H616 C630 0.930 . S
H617 C632 0.960 . S
H618 C632 0.960 . S
H619 C632 0.960 . S
C620 H612 0.929 . S
C620 C621 1.377 . S
C620 C622 1.384 . S
C621 C620 1.377 . S
C621 C627 1.390 . S
C622 H613 0.930 . S
C622 C620 1.384 . S
C622 C623 1.372 . S
C623 C622 1.372 . S
C623 C624 1.400 . S
C623 C628 1.490 . S
C624 H614 0.930 . S
C624 C623 1.400 . S
C624 C627 1.386 . S
H625 C641 0.930 . S
H626 C642 0.931 . S
C627 H615 0.929 . S
C627 C621 1.390 . S
C627 C624 1.386 . S
C628 C623 1.490 . S
C628 C630 1.395 . S
C628 C631 1.403 . S
H629 C635 0.930 . S
C630 H616 0.930 . S
C630 C628 1.395 . S
C630 C633 1.403 . S
C631 C628 1.403 . S
C631 C632 1.524 . S
C631 C635 1.400 . S
C632 H617 0.960 . S
C632 H618 0.960 . S
C632 H619 0.960 . S
C632 C631 1.524 . S
C633 C630 1.403 . S
C633 C634 1.392 . S
C633 C637 1.495 . S
C634 C633 1.392 . S
C634 C635 1.385 . S
C634 C636 1.478 . S
C635 H629 0.930 . S
C635 C631 1.400 . S
C635 C634 1.385 . S
C636 C634 1.478 . S
C636 C638 1.381 . S
C636 C642 1.383 . S
C637 C633 1.495 . S
C637 H643 0.959 . S
C637 H644 0.961 . S
C637 H645 0.960 . S
C638 C636 1.381 . S
C638 C639 1.394 . S
C638 H646 0.930 . S
C639 C638 1.394 . S
C639 C640 1.383 . S
C639 H647 0.929 . S
C640 C639 1.383 . S
C640 C641 1.377 . S
C641 H625 0.930 . S
C641 C640 1.377 . S
C641 C642 1.379 . S
C642 H626 0.931 . S
C642 C636 1.383 . S
C642 C641 1.379 . S
H643 C637 0.959 . S
H644 C637 0.961 . S
H645 C637 0.960 . S
H646 C638 0.930 . S
H647 C639 0.929 . S
H648 C656 0.929 . S
H649 C658 0.930 . S
H650 C660 0.930 . S
H651 C663 0.929 . S
H652 C666 0.930 . S
H653 C668 0.960 . S
H654 C668 0.960 . S
H655 C668 0.960 . S
C656 H648 0.929 . S
C656 C657 1.377 . S
C656 C658 1.384 . S
C657 C656 1.377 . S
C657 C663 1.390 . S
C658 H649 0.930 . S
C658 C656 1.384 . S
C658 C659 1.372 . S
C659 C658 1.372 . S
C659 C660 1.400 . S
C659 C664 1.490 . S
C660 H650 0.930 . S
C660 C659 1.400 . S
C660 C663 1.386 . S
H661 C677 0.930 . S
H662 C678 0.931 . S
C663 H651 0.929 . S
C663 C657 1.390 . S
C663 C660 1.386 . S
C664 C659 1.490 . S
C664 C666 1.395 . S
C664 C667 1.403 . S
H665 C671 0.930 . S
C666 H652 0.930 . S
C666 C664 1.395 . S
C666 C669 1.403 . S
C667 C664 1.403 . S
C667 C668 1.524 . S
C667 C671 1.400 . S
C668 H653 0.960 . S
C668 H654 0.960 . S
C668 H655 0.960 . S
C668 C667 1.524 . S
C669 C666 1.403 . S
C669 C670 1.392 . S
C669 C673 1.495 . S
C670 C669 1.392 . S
C670 C671 1.385 . S
C670 C672 1.478 . S
C671 H665 0.930 . S
C671 C667 1.400 . S
C671 C670 1.385 . S
C672 C670 1.478 . S
C672 C674 1.381 . S
C672 C678 1.383 . S
C673 C669 1.495 . S
C673 H679 0.959 . S
C673 H680 0.961 . S
C673 H681 0.960 . S
C674 C672 1.381 . S
C674 C675 1.394 . S
C674 H682 0.930 . S
C675 C674 1.394 . S
C675 C676 1.383 . S
C675 H683 0.929 . S
C676 C675 1.383 . S
C676 C677 1.377 . S
C677 H661 0.930 . S
C677 C676 1.377 . S
C677 C678 1.379 . S
C678 H662 0.931 . S
C678 C672 1.383 . S
C678 C677 1.379 . S
H679 C673 0.959 . S
H680 C673 0.961 . S
H681 C673 0.960 . S
H682 C674 0.930 . S
H683 C675 0.929 . S
H684 C692 0.929 . S
H685 C694 0.930 . S
H686 C696 0.930 . S
H687 C699 0.929 . S
H688 C702 0.930 . S
H689 C704 0.960 . S
H690 C704 0.960 . S
H691 C704 0.960 . S
C692 H684 0.929 . S
C692 C693 1.377 . S
C692 C694 1.384 . S
C693 C692 1.377 . S
C693 C699 1.390 . S
C694 H685 0.930 . S
C694 C692 1.384 . S
C694 C695 1.372 . S
C695 C694 1.372 . S
C695 C696 1.400 . S
C695 C700 1.490 . S
C696 H686 0.930 . S
C696 C695 1.400 . S
C696 C699 1.386 . S
H697 C713 0.930 . S
H698 C714 0.931 . S
C699 H687 0.929 . S
C699 C693 1.390 . S
C699 C696 1.386 . S
C700 C695 1.490 . S
C700 C702 1.395 . S
C700 C703 1.403 . S
H701 C707 0.930 . S
C702 H688 0.930 . S
C702 C700 1.395 . S
C702 C705 1.403 . S
C703 C700 1.403 . S
C703 C704 1.524 . S
C703 C707 1.400 . S
C704 H689 0.960 . S
C704 H690 0.960 . S
C704 H691 0.960 . S
C704 C703 1.524 . S
C705 C702 1.403 . S
C705 C706 1.392 . S
C705 C709 1.495 . S
C706 C705 1.392 . S
C706 C707 1.385 . S
C706 C708 1.478 . S
C707 H701 0.930 . S
C707 C703 1.400 . S
C707 C706 1.385 . S
C708 C706 1.478 . S
C708 C710 1.381 . S
C708 C714 1.383 . S
C709 C705 1.495 . S
C709 H715 0.959 . S
C709 H716 0.961 . S
C709 H717 0.960 . S
C710 C708 1.381 . S
C710 C711 1.394 . S
C710 H718 0.930 . S
C711 C710 1.394 . S
C711 C712 1.383 . S
C711 H719 0.929 . S
C712 C711 1.383 . S
C712 C713 1.377 . S
C713 H697 0.930 . S
C713 C712 1.377 . S
C713 C714 1.379 . S
C714 H698 0.931 . S
C714 C708 1.383 . S
C714 C713 1.379 . S
H715 C709 0.959 . S
H716 C709 0.961 . S
H717 C709 0.960 . S
H718 C710 0.930 . S
H719 C711 0.929 . S
H720 C728 0.929 . S
H721 C730 0.930 . S
H722 C732 0.930 . S
H723 C735 0.929 . S
H724 C738 0.930 . S
H725 C740 0.960 . S
H726 C740 0.960 . S
H727 C740 0.960 . S
C728 H720 0.929 . S
C728 C729 1.377 . S
C728 C730 1.384 . S
C729 C728 1.377 . S
C729 C735 1.390 . S
C730 H721 0.930 . S
C730 C728 1.384 . S
C730 C731 1.372 . S
C731 C730 1.372 . S
C731 C732 1.400 . S
C731 C736 1.490 . S
C732 H722 0.930 . S
C732 C731 1.400 . S
C732 C735 1.386 . S
H733 C749 0.930 . S
H734 C750 0.931 . S
C735 H723 0.929 . S
C735 C729 1.390 . S
C735 C732 1.386 . S
C736 C731 1.490 . S
C736 C738 1.395 . S
C736 C739 1.403 . S
H737 C743 0.930 . S
C738 H724 0.930 . S
C738 C736 1.395 . S
C738 C741 1.403 . S
C739 C736 1.403 . S
C739 C740 1.524 . S
C739 C743 1.400 . S
C740 H725 0.960 . S
C740 H726 0.960 . S
C740 H727 0.960 . S
C740 C739 1.524 . S
C741 C738 1.403 . S
C741 C742 1.392 . S
C741 C745 1.495 . S
C742 C741 1.392 . S
C742 C743 1.385 . S
C742 C744 1.478 . S
C743 H737 0.930 . S
C743 C739 1.400 . S
C743 C742 1.385 . S
C744 C742 1.478 . S
C744 C746 1.381 . S
C744 C750 1.383 . S
C745 C741 1.495 . S
C745 H751 0.959 . S
C745 H752 0.961 . S
C745 H753 0.960 . S
C746 C744 1.381 . S
C746 C747 1.394 . S
C746 H754 0.930 . S
C747 C746 1.394 . S
C747 C748 1.383 . S
C747 H755 0.929 . S
C748 C747 1.383 . S
C748 C749 1.377 . S
C749 H733 0.930 . S
C749 C748 1.377 . S
C749 C750 1.379 . S
C750 H734 0.931 . S
C750 C744 1.383 . S
C750 C749 1.379 . S
H751 C745 0.959 . S
H752 C745 0.961 . S
H753 C745 0.960 . S
H754 C746 0.930 . S
H755 C747 0.929 . S
H756 C764 0.929 . S
H757 C766 0.930 . S
H758 C768 0.930 . S
H759 C771 0.929 . S
H760 C774 0.930 . S
H761 C776 0.960 . S
H762 C776 0.960 . S
H763 C776 0.960 . S
C764 H756 0.929 . S
C764 C765 1.377 . S
C764 C766 1.384 . S
C765 C764 1.377 . S
C765 C771 1.390 . S
C766 H757 0.930 . S
C766 C764 1.384 . S
C766 C767 1.372 . S
C767 C766 1.372 . S
C767 C768 1.400 . S
C767 C772 1.490 . S
C768 H758 0.930 . S
C768 C767 1.400 . S
C768 C771 1.386 . S
H769 C785 0.930 . S
H770 C786 0.931 . S
C771 H759 0.929 . S
C771 C765 1.390 . S
C771 C768 1.386 . S
C772 C767 1.490 . S
C772 C774 1.395 . S
C772 C775 1.403 . S
H773 C779 0.930 . S
C774 H760 0.930 . S
C774 C772 1.395 . S
C774 C777 1.403 . S
C775 C772 1.403 . S
C775 C776 1.524 . S
C775 C779 1.400 . S
C776 H761 0.960 . S
C776 H762 0.960 . S
C776 H763 0.960 . S
C776 C775 1.524 . S
C777 C774 1.403 . S
C777 C778 1.392 . S
C777 C781 1.495 . S
C778 C777 1.392 . S
C778 C779 1.385 . S
C778 C780 1.478 . S
C779 H773 0.930 . S
C779 C775 1.400 . S
C779 C778 1.385 . S
C780 C778 1.478 . S
C780 C782 1.381 . S
C780 C786 1.383 . S
C781 C777 1.495 . S
C781 H787 0.959 . S
C781 H788 0.961 . S
C781 H789 0.960 . S
C782 C780 1.381 . S
C782 C783 1.394 . S
C782 H790 0.930 . S
C783 C782 1.394 . S
C783 C784 1.383 . S
C783 H791 0.929 . S
C784 C783 1.383 . S
C784 C785 1.377 . S
C785 H769 0.930 . S
C785 C784 1.377 . S
C785 C786 1.379 . S
C786 H770 0.931 . S
C786 C780 1.383 . S
C786 C785 1.379 . S
H787 C781 0.959 . S
H788 C781 0.961 . S
H789 C781 0.960 . S
H790 C782 0.930 . S
H791 C783 0.929 . S
H792 C800 0.929 . S
H793 C802 0.930 . S
H794 C804 0.930 . S
H795 C807 0.929 . S
H796 C810 0.930 . S
H797 C812 0.960 . S
H798 C812 0.960 . S
H799 C812 0.960 . S
C800 H792 0.929 . S
C800 C801 1.377 . S
C800 C802 1.384 . S
C801 C800 1.377 . S
C801 C807 1.390 . S
C802 H793 0.930 . S
C802 C800 1.384 . S
C802 C803 1.372 . S
C803 C802 1.372 . S
C803 C804 1.400 . S
C803 C808 1.490 . S
C804 H794 0.930 . S
C804 C803 1.400 . S
C804 C807 1.386 . S
H805 C821 0.930 . S
H806 C822 0.931 . S
C807 H795 0.929 . S
C807 C801 1.390 . S
C807 C804 1.386 . S
C808 C803 1.490 . S
C808 C810 1.395 . S
C808 C811 1.403 . S
H809 C815 0.930 . S
C810 H796 0.930 . S
C810 C808 1.395 . S
C810 C813 1.403 . S
C811 C808 1.403 . S
C811 C812 1.524 . S
C811 C815 1.400 . S
C812 H797 0.960 . S
C812 H798 0.960 . S
C812 H799 0.960 . S
C812 C811 1.524 . S
C813 C810 1.403 . S
C813 C814 1.392 . S
C813 C817 1.495 . S
C814 C813 1.392 . S
C814 C815 1.385 . S
C814 C816 1.478 . S
C815 H809 0.930 . S
C815 C811 1.400 . S
C815 C814 1.385 . S
C816 C814 1.478 . S
C816 C818 1.381 . S
C816 C822 1.383 . S
C817 C813 1.495 . S
C817 H823 0.959 . S
C817 H824 0.961 . S
C817 H825 0.960 . S
C818 C816 1.381 . S
C818 C819 1.394 . S
C818 H826 0.930 . S
C819 C818 1.394 . S
C819 C820 1.383 . S
C819 H827 0.929 . S
C820 C819 1.383 . S
C820 C821 1.377 . S
C821 H805 0.930 . S
C821 C820 1.377 . S
C821 C822 1.379 . S
C822 H806 0.931 . S
C822 C816 1.383 . S
C822 C821 1.379 . S
H823 C817 0.959 . S
H824 C817 0.961 . S
H825 C817 0.960 . S
H826 C818 0.930 . S
H827 C819 0.929 . S
H828 C836 0.929 . S
H829 C838 0.930 . S
H830 C840 0.930 . S
H831 C843 0.929 . S
H832 C846 0.930 . S
H833 C848 0.960 . S
H834 C848 0.960 . S
H835 C848 0.960 . S
C836 H828 0.929 . S
C836 C837 1.377 . S
C836 C838 1.384 . S
C837 C836 1.377 . S
C837 C843 1.390 . S
C838 H829 0.930 . S
C838 C836 1.384 . S
C838 C839 1.372 . S
C839 C838 1.372 . S
C839 C840 1.400 . S
C839 C844 1.490 . S
C840 H830 0.930 . S
C840 C839 1.400 . S
C840 C843 1.386 . S
H841 C857 0.930 . S
H842 C858 0.931 . S
C843 H831 0.929 . S
C843 C837 1.390 . S
C843 C840 1.386 . S
C844 C839 1.490 . S
C844 C846 1.395 . S
C844 C847 1.403 . S
H845 C851 0.930 . S
C846 H832 0.930 . S
C846 C844 1.395 . S
C846 C849 1.403 . S
C847 C844 1.403 . S
C847 C848 1.524 . S
C847 C851 1.400 . S
C848 H833 0.960 . S
C848 H834 0.960 . S
C848 H835 0.960 . S
C848 C847 1.524 . S
C849 C846 1.403 . S
C849 C850 1.392 . S
C849 C853 1.495 . S
C850 C849 1.392 . S
C850 C851 1.385 . S
C850 C852 1.478 . S
C851 H845 0.930 . S
C851 C847 1.400 . S
C851 C850 1.385 . S
C852 C850 1.478 . S
C852 C854 1.381 . S
C852 C858 1.383 . S
C853 C849 1.495 . S
C853 H859 0.959 . S
C853 H860 0.961 . S
C853 H861 0.960 . S
C854 C852 1.381 . S
C854 C855 1.394 . S
C854 H862 0.930 . S
C855 C854 1.394 . S
C855 C856 1.383 . S
C855 H863 0.929 . S
C856 C855 1.383 . S
C856 C857 1.377 . S
C857 H841 0.930 . S
C857 C856 1.377 . S
C857 C858 1.379 . S
C858 H842 0.931 . S
C858 C852 1.383 . S
C858 C857 1.379 . S
H859 C853 0.959 . S
H860 C853 0.961 . S
H861 C853 0.960 . S
H862 C854 0.930 . S
H863 C855 0.929 . S
H864 C872 0.929 . S
H865 C874 0.930 . S
H866 C876 0.930 . S
H867 C879 0.929 . S
H868 C882 0.930 . S
H869 C884 0.960 . S
H870 C884 0.960 . S
H871 C884 0.960 . S
C872 H864 0.929 . S
C872 C873 1.377 . S
C872 C874 1.384 . S
C873 C872 1.377 . S
C873 C879 1.390 . S
C874 H865 0.930 . S
C874 C872 1.384 . S
C874 C875 1.372 . S
C875 C874 1.372 . S
C875 C876 1.400 . S
C875 C880 1.490 . S
C876 H866 0.930 . S
C876 C875 1.400 . S
C876 C879 1.386 . S
H877 C893 0.930 . S
H878 C894 0.931 . S
C879 H867 0.929 . S
C879 C873 1.390 . S
C879 C876 1.386 . S
C880 C875 1.490 . S
C880 C882 1.395 . S
C880 C883 1.403 . S
H881 C887 0.930 . S
C882 H868 0.930 . S
C882 C880 1.395 . S
C882 C885 1.403 . S
C883 C880 1.403 . S
C883 C884 1.524 . S
C883 C887 1.400 . S
C884 H869 0.960 . S
C884 H870 0.960 . S
C884 H871 0.960 . S
C884 C883 1.524 . S
C885 C882 1.403 . S
C885 C886 1.392 . S
C885 C889 1.495 . S
C886 C885 1.392 . S
C886 C887 1.385 . S
C886 C888 1.478 . S
C887 H881 0.930 . S
C887 C883 1.400 . S
C887 C886 1.385 . S
C888 C886 1.478 . S
C888 C890 1.381 . S
C888 C894 1.383 . S
C889 C885 1.495 . S
C889 H895 0.959 . S
C889 H896 0.961 . S
C889 H897 0.960 . S
C890 C888 1.381 . S
C890 C891 1.394 . S
C890 H898 0.930 . S
C891 C890 1.394 . S
C891 C892 1.383 . S
C891 H899 0.929 . S
C892 C891 1.383 . S
C892 C893 1.377 . S
C893 H877 0.930 . S
C893 C892 1.377 . S
C893 C894 1.379 . S
C894 H878 0.931 . S
C894 C888 1.383 . S
C894 C893 1.379 . S
H895 C889 0.959 . S
H896 C889 0.961 . S
H897 C889 0.960 . S
H898 C890 0.930 . S
H899 C891 0.929 . S
H900 C908 0.929 . S
H901 C910 0.930 . S
H902 C912 0.930 . S
H903 C915 0.929 . S
H904 C918 0.930 . S
H905 C920 0.960 . S
H906 C920 0.960 . S
H907 C920 0.960 . S
C908 H900 0.929 . S
C908 C909 1.377 . S
C908 C910 1.384 . S
C909 C908 1.377 . S
C909 C915 1.390 . S
C910 H901 0.930 . S
C910 C908 1.384 . S
C910 C911 1.372 . S
C911 C910 1.372 . S
C911 C912 1.400 . S
C911 C916 1.490 . S
C912 H902 0.930 . S
C912 C911 1.400 . S
C912 C915 1.386 . S
H913 C929 0.930 . S
H914 C930 0.931 . S
C915 H903 0.929 . S
C915 C909 1.390 . S
C915 C912 1.386 . S
C916 C911 1.490 . S
C916 C918 1.395 . S
C916 C919 1.403 . S
H917 C923 0.930 . S
C918 H904 0.930 . S
C918 C916 1.395 . S
C918 C921 1.403 . S
C919 C916 1.403 . S
C919 C920 1.524 . S
C919 C923 1.400 . S
C920 H905 0.960 . S
C920 H906 0.960 . S
C920 H907 0.960 . S
C920 C919 1.524 . S
C921 C918 1.403 . S
C921 C922 1.392 . S
C921 C925 1.495 . S
C922 C921 1.392 . S
C922 C923 1.385 . S
C922 C924 1.478 . S
C923 H917 0.930 . S
C923 C919 1.400 . S
C923 C922 1.385 . S
C924 C922 1.478 . S
C924 C926 1.381 . S
C924 C930 1.383 . S
C925 C921 1.495 . S
C925 H931 0.959 . S
C925 H932 0.961 . S
C925 H933 0.960 . S
C926 C924 1.381 . S
C926 C927 1.394 . S
C926 H934 0.930 . S
C927 C926 1.394 . S
C927 C928 1.383 . S
C927 H935 0.929 . S
C928 C927 1.383 . S
C928 C929 1.377 . S
C929 H913 0.930 . S
C929 C928 1.377 . S
C929 C930 1.379 . S
C930 H914 0.931 . S
C930 C924 1.383 . S
C930 C929 1.379 . S
H931 C925 0.959 . S
H932 C925 0.961 . S
H933 C925 0.960 . S
H934 C926 0.930 . S
H935 C927 0.929 . S
H936 C944 0.929 . S
H937 C946 0.930 . S
H938 C948 0.930 . S
H939 C951 0.929 . S
H940 C954 0.930 . S
H941 C956 0.960 . S
H942 C956 0.960 . S
H943 C956 0.960 . S
C944 H936 0.929 . S
C944 C945 1.377 . S
C944 C946 1.384 . S
C945 C944 1.377 . S
C945 C951 1.390 . S
C946 H937 0.930 . S
C946 C944 1.384 . S
C946 C947 1.372 . S
C947 C946 1.372 . S
C947 C948 1.400 . S
C947 C952 1.490 . S
C948 H938 0.930 . S
C948 C947 1.400 . S
C948 C951 1.386 . S
H949 C965 0.930 . S
H950 C966 0.931 . S
C951 H939 0.929 . S
C951 C945 1.390 . S
C951 C948 1.386 . S
C952 C947 1.490 . S
C952 C954 1.395 . S
C952 C955 1.403 . S
H953 C959 0.930 . S
C954 H940 0.930 . S
C954 C952 1.395 . S
C954 C957 1.403 . S
C955 C952 1.403 . S
C955 C956 1.524 . S
C955 C959 1.400 . S
C956 H941 0.960 . S
C956 H942 0.960 . S
C956 H943 0.960 . S
C956 C955 1.524 . S
C957 C954 1.403 . S
C957 C958 1.392 . S
C957 C961 1.495 . S
C958 C957 1.392 . S
C958 C959 1.385 . S
C958 C960 1.478 . S
C959 H953 0.930 . S
C959 C955 1.400 . S
C959 C958 1.385 . S
C960 C958 1.478 . S
C960 C962 1.381 . S
C960 C966 1.383 . S
C961 C957 1.495 . S
C961 H967 0.959 . S
C961 H968 0.961 . S
C961 H969 0.960 . S
C962 C960 1.381 . S
C962 C963 1.394 . S
C962 H970 0.930 . S
C963 C962 1.394 . S
C963 C964 1.383 . S
C963 H971 0.929 . S
C964 C963 1.383 . S
C964 C965 1.377 . S
C965 H949 0.930 . S
C965 C964 1.377 . S
C965 C966 1.379 . S
C966 H950 0.931 . S
C966 C960 1.383 . S
C966 C965 1.379 . S
H967 C961 0.959 . S
H968 C961 0.961 . S
H969 C961 0.960 . S
H970 C962 0.930 . S
H971 C963 0.929 . S
H972 C980 0.929 . S
H973 C982 0.930 . S
H974 C984 0.930 . S
H975 C987 0.929 . S
H976 C990 0.930 . S
H977 C992 0.960 . S
H978 C992 0.960 . S
H979 C992 0.960 . S
C980 H972 0.929 . S
C980 C981 1.377 . S
C980 C982 1.384 . S
C981 C980 1.377 . S
C981 C987 1.390 . S
C982 H973 0.930 . S
C982 C980 1.384 . S
C982 C983 1.372 . S
C983 C982 1.372 . S
C983 C984 1.400 . S
C983 C988 1.490 . S
C984 H974 0.930 . S
C984 C983 1.400 . S
C984 C987 1.386 . S
H985 C1001 0.930 . S
H986 C1002 0.931 . S
C987 H975 0.929 . S
C987 C981 1.390 . S
C987 C984 1.386 . S
C988 C983 1.490 . S
C988 C990 1.395 . S
C988 C991 1.403 . S
H989 C995 0.930 . S
C990 H976 0.930 . S
C990 C988 1.395 . S
C990 C993 1.403 . S
C991 C988 1.403 . S
C991 C992 1.524 . S
C991 C995 1.400 . S
C992 H977 0.960 . S
C992 H978 0.960 . S
C992 H979 0.960 . S
C992 C991 1.524 . S
C993 C990 1.403 . S
C993 C994 1.392 . S
C993 C997 1.495 . S
C994 C993 1.392 . S
C994 C995 1.385 . S
C994 C996 1.478 . S
C995 H989 0.930 . S
C995 C991 1.400 . S
C995 C994 1.385 . S
C996 C994 1.478 . S
C996 C998 1.381 . S
C996 C1002 1.383 . S
C997 C993 1.495 . S
C997 H1003 0.959 . S
C997 H1004 0.961 . S
C997 H1005 0.960 . S
C998 C996 1.381 . S
C998 C999 1.394 . S
C998 H1006 0.930 . S
C999 C998 1.394 . S
C999 C1000 1.383 . S
C999 H1007 0.929 . S
C1000 C999 1.383 . S
C1000 C1001 1.377 . S
C1001 H985 0.930 . S
C1001 C1000 1.377 . S
C1001 C1002 1.379 . S
C1002 H986 0.931 . S
C1002 C996 1.383 . S
C1002 C1001 1.379 . S
H1003 C997 0.959 . S
H1004 C997 0.961 . S
H1005 C997 0.960 . S
H1006 C998 0.930 . S
H1007 C999 0.929 . S
H1008 C1016 0.929 . S
H1009 C1018 0.930 . S
H1010 C1020 0.930 . S
H1011 C1023 0.929 . S
H1012 C1026 0.930 . S
H1013 C1028 0.960 . S
H1014 C1028 0.960 . S
H1015 C1028 0.960 . S
C1016 H1008 0.929 . S
C1016 C1017 1.377 . S
C1016 C1018 1.384 . S
C1017 C1016 1.377 . S
C1017 C1023 1.390 . S
C1018 H1009 0.930 . S
C1018 C1016 1.384 . S
C1018 C1019 1.372 . S
C1019 C1018 1.372 . S
C1019 C1020 1.400 . S
C1019 C1024 1.490 . S
C1020 H1010 0.930 . S
C1020 C1019 1.400 . S
C1020 C1023 1.386 . S
H1021 C1037 0.930 . S
H1022 C1038 0.931 . S
C1023 H1011 0.929 . S
C1023 C1017 1.390 . S
C1023 C1020 1.386 . S
C1024 C1019 1.490 . S
C1024 C1026 1.395 . S
C1024 C1027 1.403 . S
H1025 C1031 0.930 . S
C1026 H1012 0.930 . S
C1026 C1024 1.395 . S
C1026 C1029 1.403 . S
C1027 C1024 1.403 . S
C1027 C1028 1.524 . S
C1027 C1031 1.400 . S
C1028 H1013 0.960 . S
C1028 H1014 0.960 . S
C1028 H1015 0.960 . S
C1028 C1027 1.524 . S
C1029 C1026 1.403 . S
C1029 C1030 1.392 . S
C1029 C1033 1.495 . S
C1030 C1029 1.392 . S
C1030 C1031 1.385 . S
C1030 C1032 1.478 . S
C1031 H1025 0.930 . S
C1031 C1027 1.400 . S
C1031 C1030 1.385 . S
C1032 C1030 1.478 . S
C1032 C1034 1.381 . S
C1032 C1038 1.383 . S
C1033 C1029 1.495 . S
C1033 H1039 0.959 . S
C1033 H1040 0.961 . S
C1033 H1041 0.960 . S
C1034 C1032 1.381 . S
C1034 C1035 1.394 . S
C1034 H1042 0.930 . S
C1035 C1034 1.394 . S
C1035 C1036 1.383 . S
C1035 H1043 0.929 . S
C1036 C1035 1.383 . S
C1036 C1037 1.377 . S
C1037 H1021 0.930 . S
C1037 C1036 1.377 . S
C1037 C1038 1.379 . S
C1038 H1022 0.931 . S
C1038 C1032 1.383 . S
C1038 C1037 1.379 . S
H1039 C1033 0.959 . S
H1040 C1033 0.961 . S
H1041 C1033 0.960 . S
H1042 C1034 0.930 . S
H1043 C1035 0.929 . S
H1044 C1052 0.929 . S
H1045 C1054 0.930 . S
H1046 C1056 0.930 . S
H1047 C1059 0.929 . S
H1048 C1062 0.930 . S
H1049 C1064 0.960 . S
H1050 C1064 0.960 . S
H1051 C1064 0.960 . S
C1052 H1044 0.929 . S
C1052 C1053 1.377 . S
C1052 C1054 1.384 . S
C1053 C1052 1.377 . S
C1053 C1059 1.390 . S
C1054 H1045 0.930 . S
C1054 C1052 1.384 . S
C1054 C1055 1.372 . S
C1055 C1054 1.372 . S
C1055 C1056 1.400 . S
C1055 C1060 1.490 . S
C1056 H1046 0.930 . S
C1056 C1055 1.400 . S
C1056 C1059 1.386 . S
H1057 C1073 0.930 . S
H1058 C1074 0.931 . S
C1059 H1047 0.929 . S
C1059 C1053 1.390 . S
C1059 C1056 1.386 . S
C1060 C1055 1.490 . S
C1060 C1062 1.395 . S
C1060 C1063 1.403 . S
H1061 C1067 0.930 . S
C1062 H1048 0.930 . S
C1062 C1060 1.395 . S
C1062 C1065 1.403 . S
C1063 C1060 1.403 . S
C1063 C1064 1.524 . S
C1063 C1067 1.400 . S
C1064 H1049 0.960 . S
C1064 H1050 0.960 . S
C1064 H1051 0.960 . S
C1064 C1063 1.524 . S
C1065 C1062 1.403 . S
C1065 C1066 1.392 . S
C1065 C1069 1.495 . S
C1066 C1065 1.392 . S
C1066 C1067 1.385 . S
C1066 C1068 1.478 . S
C1067 H1061 0.930 . S
C1067 C1063 1.400 . S
C1067 C1066 1.385 . S
C1068 C1066 1.478 . S
C1068 C1070 1.381 . S
C1068 C1074 1.383 . S
C1069 C1065 1.495 . S
C1069 H1075 0.959 . S
C1069 H1076 0.961 . S
C1069 H1077 0.960 . S
C1070 C1068 1.381 . S
C1070 C1071 1.394 . S
C1070 H1078 0.930 . S
C1071 C1070 1.394 . S
C1071 C1072 1.383 . S
C1071 H1079 0.929 . S
C1072 C1071 1.383 . S
C1072 C1073 1.377 . S
C1073 H1057 0.930 . S
C1073 C1072 1.377 . S
C1073 C1074 1.379 . S
C1074 H1058 0.931 . S
C1074 C1068 1.383 . S
C1074 C1073 1.379 . S
H1075 C1069 0.959 . S
H1076 C1069 0.961 . S
H1077 C1069 0.960 . S
H1078 C1070 0.930 . S
H1079 C1071 0.929 . S
H1080 C1088 0.929 . S
H1081 C1090 0.930 . S
H1082 C1092 0.930 . S
H1083 C1095 0.929 . S
H1084 C1098 0.930 . S
H1085 C1100 0.960 . S
H1086 C1100 0.960 . S
H1087 C1100 0.960 . S
C1088 H1080 0.929 . S
C1088 C1089 1.377 . S
C1088 C1090 1.384 . S
C1089 C1088 1.377 . S
C1089 C1095 1.390 . S
C1090 H1081 0.930 . S
C1090 C1088 1.384 . S
C1090 C1091 1.372 . S
C1091 C1090 1.372 . S
C1091 C1092 1.400 . S
C1091 C1096 1.490 . S
C1092 H1082 0.930 . S
C1092 C1091 1.400 . S
C1092 C1095 1.386 . S
H1093 C1109 0.930 . S
H1094 C1110 0.931 . S
C1095 H1083 0.929 . S
C1095 C1089 1.390 . S
C1095 C1092 1.386 . S
C1096 C1091 1.490 . S
C1096 C1098 1.395 . S
C1096 C1099 1.403 . S
H1097 C1103 0.930 . S
C1098 H1084 0.930 . S
C1098 C1096 1.395 . S
C1098 C1101 1.403 . S
C1099 C1096 1.403 . S
C1099 C1100 1.524 . S
C1099 C1103 1.400 . S
C1100 H1085 0.960 . S
C1100 H1086 0.960 . S
C1100 H1087 0.960 . S
C1100 C1099 1.524 . S
C1101 C1098 1.403 . S
C1101 C1102 1.392 . S
C1101 C1105 1.495 . S
C1102 C1101 1.392 . S
C1102 C1103 1.385 . S
C1102 C1104 1.478 . S
C1103 H1097 0.930 . S
C1103 C1099 1.400 . S
C1103 C1102 1.385 . S
C1104 C1102 1.478 . S
C1104 C1106 1.381 . S
C1104 C1110 1.383 . S
C1105 C1101 1.495 . S
C1105 H1111 0.959 . S
C1105 H1112 0.961 . S
C1105 H1113 0.960 . S
C1106 C1104 1.381 . S
C1106 C1107 1.394 . S
C1106 H1114 0.930 . S
C1107 C1106 1.394 . S
C1107 C1108 1.383 . S
C1107 H1115 0.929 . S
C1108 C1107 1.383 . S
C1108 C1109 1.377 . S
C1109 H1093 0.930 . S
C1109 C1108 1.377 . S
C1109 C1110 1.379 . S
C1110 H1094 0.931 . S
C1110 C1104 1.383 . S
C1110 C1109 1.379 . S
H1111 C1105 0.959 . S
H1112 C1105 0.961 . S
H1113 C1105 0.960 . S
H1114 C1106 0.930 . S
H1115 C1107 0.929 . S
H1116 C1124 0.929 . S
H1117 C1126 0.930 . S
H1118 C1128 0.930 . S
H1119 C1131 0.929 . S
H1120 C1134 0.930 . S
H1121 C1136 0.960 . S
H1122 C1136 0.960 . S
H1123 C1136 0.960 . S
C1124 H1116 0.929 . S
C1124 C1125 1.377 . S
C1124 C1126 1.384 . S
C1125 C1124 1.377 . S
C1125 C1131 1.390 . S
C1126 H1117 0.930 . S
C1126 C1124 1.384 . S
C1126 C1127 1.372 . S
C1127 C1126 1.372 . S
C1127 C1128 1.400 . S
C1127 C1132 1.490 . S
C1128 H1118 0.930 . S
C1128 C1127 1.400 . S
C1128 C1131 1.386 . S
H1129 C1145 0.930 . S
H1130 C1146 0.931 . S
C1131 H1119 0.929 . S
C1131 C1125 1.390 . S
C1131 C1128 1.386 . S
C1132 C1127 1.490 . S
C1132 C1134 1.395 . S
C1132 C1135 1.403 . S
H1133 C1139 0.930 . S
C1134 H1120 0.930 . S
C1134 C1132 1.395 . S
C1134 C1137 1.403 . S
C1135 C1132 1.403 . S
C1135 C1136 1.524 . S
C1135 C1139 1.400 . S
C1136 H1121 0.960 . S
C1136 H1122 0.960 . S
C1136 H1123 0.960 . S
C1136 C1135 1.524 . S
C1137 C1134 1.403 . S
C1137 C1138 1.392 . S
C1137 C1141 1.495 . S
C1138 C1137 1.392 . S
C1138 C1139 1.385 . S
C1138 C1140 1.478 . S
C1139 H1133 0.930 . S
C1139 C1135 1.400 . S
C1139 C1138 1.385 . S
C1140 C1138 1.478 . S
C1140 C1142 1.381 . S
C1140 C1146 1.383 . S
C1141 C1137 1.495 . S
C1141 H1147 0.959 . S
C1141 H1148 0.961 . S
C1141 H1149 0.960 . S
C1142 C1140 1.381 . S
C1142 C1143 1.394 . S
C1142 H1150 0.930 . S
C1143 C1142 1.394 . S
C1143 C1144 1.383 . S
C1143 H1151 0.929 . S
C1144 C1143 1.383 . S
C1144 C1145 1.377 . S
C1145 H1129 0.930 . S
C1145 C1144 1.377 . S
C1145 C1146 1.379 . S
C1146 H1130 0.931 . S
C1146 C1140 1.383 . S
C1146 C1145 1.379 . S
H1147 C1141 0.959 . S
H1148 C1141 0.961 . S
H1149 C1141 0.960 . S
H1150 C1142 0.930 . S
H1151 C1143 0.929 . S
H1152 C1160 0.929 . S
H1153 C1162 0.930 . S
H1154 C1164 0.930 . S
H1155 C1167 0.929 . S
H1156 C1170 0.930 . S
H1157 C1172 0.960 . S
H1158 C1172 0.960 . S
H1159 C1172 0.960 . S
C1160 H1152 0.929 . S
C1160 C1161 1.377 . S
C1160 C1162 1.384 . S
C1161 C1160 1.377 . S
C1161 C1167 1.390 . S
C1162 H1153 0.930 . S
C1162 C1160 1.384 . S
C1162 C1163 1.372 . S
C1163 C1162 1.372 . S
C1163 C1164 1.400 . S
C1163 C1168 1.490 . S
C1164 H1154 0.930 . S
C1164 C1163 1.400 . S
C1164 C1167 1.386 . S
H1165 C1181 0.930 . S
H1166 C1182 0.931 . S
C1167 H1155 0.929 . S
C1167 C1161 1.390 . S
C1167 C1164 1.386 . S
C1168 C1163 1.490 . S
C1168 C1170 1.395 . S
C1168 C1171 1.403 . S
H1169 C1175 0.930 . S
C1170 H1156 0.930 . S
C1170 C1168 1.395 . S
C1170 C1173 1.403 . S
C1171 C1168 1.403 . S
C1171 C1172 1.524 . S
C1171 C1175 1.400 . S
C1172 H1157 0.960 . S
C1172 H1158 0.960 . S
C1172 H1159 0.960 . S
C1172 C1171 1.524 . S
C1173 C1170 1.403 . S
C1173 C1174 1.392 . S
C1173 C1177 1.495 . S
C1174 C1173 1.392 . S
C1174 C1175 1.385 . S
C1174 C1176 1.478 . S
C1175 H1169 0.930 . S
C1175 C1171 1.400 . S
C1175 C1174 1.385 . S
C1176 C1174 1.478 . S
C1176 C1178 1.381 . S
C1176 C1182 1.383 . S
C1177 C1173 1.495 . S
C1177 H1183 0.959 . S
C1177 H1184 0.961 . S
C1177 H1185 0.960 . S
C1178 C1176 1.381 . S
C1178 C1179 1.394 . S
C1178 H1186 0.930 . S
C1179 C1178 1.394 . S
C1179 C1180 1.383 . S
C1179 H1187 0.929 . S
C1180 C1179 1.383 . S
C1180 C1181 1.377 . S
C1181 H1165 0.930 . S
C1181 C1180 1.377 . S
C1181 C1182 1.379 . S
C1182 H1166 0.931 . S
C1182 C1176 1.383 . S
C1182 C1181 1.379 . S
H1183 C1177 0.959 . S
H1184 C1177 0.961 . S
H1185 C1177 0.960 . S
H1186 C1178 0.930 . S
H1187 C1179 0.929 . S
H1188 C1196 0.929 . S
H1189 C1198 0.930 . S
H1190 C1200 0.930 . S
H1191 C1203 0.929 . S
H1192 C1206 0.930 . S
H1193 C1208 0.960 . S
H1194 C1208 0.960 . S
H1195 C1208 0.960 . S
C1196 H1188 0.929 . S
C1196 C1197 1.377 . S
C1196 C1198 1.384 . S
C1197 C1196 1.377 . S
C1197 C1203 1.390 . S
C1198 H1189 0.930 . S
C1198 C1196 1.384 . S
C1198 C1199 1.372 . S
C1199 C1198 1.372 . S
C1199 C1200 1.400 . S
C1199 C1204 1.490 . S
C1200 H1190 0.930 . S
C1200 C1199 1.400 . S
C1200 C1203 1.386 . S
H1201 C1217 0.930 . S
H1202 C1218 0.931 . S
C1203 H1191 0.929 . S
C1203 C1197 1.390 . S
C1203 C1200 1.386 . S
C1204 C1199 1.490 . S
C1204 C1206 1.395 . S
C1204 C1207 1.403 . S
H1205 C1211 0.930 . S
C1206 H1192 0.930 . S
C1206 C1204 1.395 . S
C1206 C1209 1.403 . S
C1207 C1204 1.403 . S
C1207 C1208 1.524 . S
C1207 C1211 1.400 . S
C1208 H1193 0.960 . S
C1208 H1194 0.960 . S
C1208 H1195 0.960 . S
C1208 C1207 1.524 . S
C1209 C1206 1.403 . S
C1209 C1210 1.392 . S
C1209 C1213 1.495 . S
C1210 C1209 1.392 . S
C1210 C1211 1.385 . S
C1210 C1212 1.478 . S
C1211 H1205 0.930 . S
C1211 C1207 1.400 . S
C1211 C1210 1.385 . S
C1212 C1210 1.478 . S
C1212 C1214 1.381 . S
C1212 C1218 1.383 . S
C1213 C1209 1.495 . S
C1213 H1219 0.959 . S
C1213 H1220 0.961 . S
C1213 H1221 0.960 . S
C1214 C1212 1.381 . S
C1214 C1215 1.394 . S
C1214 H1222 0.930 . S
C1215 C1214 1.394 . S
C1215 C1216 1.383 . S
C1215 H1223 0.929 . S
C1216 C1215 1.383 . S
C1216 C1217 1.377 . S
C1217 H1201 0.930 . S
C1217 C1216 1.377 . S
C1217 C1218 1.379 . S
C1218 H1202 0.931 . S
C1218 C1212 1.383 . S
C1218 C1217 1.379 . S
H1219 C1213 0.959 . S
H1220 C1213 0.961 . S
H1221 C1213 0.960 . S
H1222 C1214 0.930 . S
H1223 C1215 0.929 . S
H1224 C1232 0.929 . S
H1225 C1234 0.930 . S
H1226 C1236 0.930 . S
H1227 C1239 0.929 . S
H1228 C1242 0.930 . S
H1229 C1244 0.960 . S
H1230 C1244 0.960 . S
H1231 C1244 0.960 . S
C1232 H1224 0.929 . S
C1232 C1233 1.377 . S
C1232 C1234 1.384 . S
C1233 C1232 1.377 . S
C1233 C1239 1.390 . S
C1234 H1225 0.930 . S
C1234 C1232 1.384 . S
C1234 C1235 1.372 . S
C1235 C1234 1.372 . S
C1235 C1236 1.400 . S
C1235 C1240 1.490 . S
C1236 H1226 0.930 . S
C1236 C1235 1.400 . S
C1236 C1239 1.386 . S
H1237 C1253 0.930 . S
H1238 C1254 0.931 . S
C1239 H1227 0.929 . S
C1239 C1233 1.390 . S
C1239 C1236 1.386 . S
C1240 C1235 1.490 . S
C1240 C1242 1.395 . S
C1240 C1243 1.403 . S
H1241 C1247 0.930 . S
C1242 H1228 0.930 . S
C1242 C1240 1.395 . S
C1242 C1245 1.403 . S
C1243 C1240 1.403 . S
C1243 C1244 1.524 . S
C1243 C1247 1.400 . S
C1244 H1229 0.960 . S
C1244 H1230 0.960 . S
C1244 H1231 0.960 . S
C1244 C1243 1.524 . S
C1245 C1242 1.403 . S
C1245 C1246 1.392 . S
C1245 C1249 1.495 . S
C1246 C1245 1.392 . S
C1246 C1247 1.385 . S
C1246 C1248 1.478 . S
C1247 H1241 0.930 . S
C1247 C1243 1.400 . S
C1247 C1246 1.385 . S
C1248 C1246 1.478 . S
C1248 C1250 1.381 . S
C1248 C1254 1.383 . S
C1249 C1245 1.495 . S
C1249 H1255 0.959 . S
C1249 H1256 0.961 . S
C1249 H1257 0.960 . S
C1250 C1248 1.381 . S
C1250 C1251 1.394 . S
C1250 H1258 0.930 . S
C1251 C1250 1.394 . S
C1251 C1252 1.383 . S
C1251 H1259 0.929 . S
C1252 C1251 1.383 . S
C1252 C1253 1.377 . S
C1253 H1237 0.930 . S
C1253 C1252 1.377 . S
C1253 C1254 1.379 . S
C1254 H1238 0.931 . S
C1254 C1248 1.383 . S
C1254 C1253 1.379 . S
H1255 C1249 0.959 . S
H1256 C1249 0.961 . S
H1257 C1249 0.960 . S
H1258 C1250 0.930 . S
H1259 C1251 0.929 . S
H1260 C1268 0.929 . S
H1261 C1270 0.930 . S
H1262 C1272 0.930 . S
H1263 C1275 0.929 . S
H1264 C1278 0.930 . S
H1265 C1280 0.960 . S
H1266 C1280 0.960 . S
H1267 C1280 0.960 . S
C1268 H1260 0.929 . S
C1268 C1269 1.377 . S
C1268 C1270 1.384 . S
C1269 C1268 1.377 . S
C1269 C1275 1.390 . S
C1270 H1261 0.930 . S
C1270 C1268 1.384 . S
C1270 C1271 1.372 . S
C1271 C1270 1.372 . S
C1271 C1272 1.400 . S
C1271 C1276 1.490 . S
C1272 H1262 0.930 . S
C1272 C1271 1.400 . S
C1272 C1275 1.386 . S
H1273 C1289 0.930 . S
H1274 C1290 0.931 . S
C1275 H1263 0.929 . S
C1275 C1269 1.390 . S
C1275 C1272 1.386 . S
C1276 C1271 1.490 . S
C1276 C1278 1.395 . S
C1276 C1279 1.403 . S
H1277 C1283 0.930 . S
C1278 H1264 0.930 . S
C1278 C1276 1.395 . S
C1278 C1281 1.403 . S
C1279 C1276 1.403 . S
C1279 C1280 1.524 . S
C1279 C1283 1.400 . S
C1280 H1265 0.960 . S
C1280 H1266 0.960 . S
C1280 H1267 0.960 . S
C1280 C1279 1.524 . S
C1281 C1278 1.403 . S
C1281 C1282 1.392 . S
C1281 C1285 1.495 . S
C1282 C1281 1.392 . S
C1282 C1283 1.385 . S
C1282 C1284 1.478 . S
C1283 H1277 0.930 . S
C1283 C1279 1.400 . S
C1283 C1282 1.385 . S
C1284 C1282 1.478 . S
C1284 C1286 1.381 . S
C1284 C1290 1.383 . S
C1285 C1281 1.495 . S
C1285 H1291 0.959 . S
C1285 H1292 0.961 . S
C1285 H1293 0.960 . S
C1286 C1284 1.381 . S
C1286 C1287 1.394 . S
C1286 H1294 0.930 . S
C1287 C1286 1.394 . S
C1287 C1288 1.383 . S
C1287 H1295 0.929 . S
C1288 C1287 1.383 . S
C1288 C1289 1.377 . S
C1289 H1273 0.930 . S
C1289 C1288 1.377 . S
C1289 C1290 1.379 . S
C1290 H1274 0.931 . S
C1290 C1284 1.383 . S
C1290 C1289 1.379 . S
H1291 C1285 0.959 . S
H1292 C1285 0.961 . S
H1293 C1285 0.960 . S
H1294 C1286 0.930 . S
H1295 C1287 0.929 . S
H1296 C1304 0.929 . S
H1297 C1306 0.930 . S
H1298 C1308 0.930 . S
H1299 C1311 0.929 . S
H1300 C1314 0.930 . S
H1301 C1316 0.960 . S
H1302 C1316 0.960 . S
H1303 C1316 0.960 . S
C1304 H1296 0.929 . S
C1304 C1305 1.377 . S
C1304 C1306 1.384 . S
C1305 C1304 1.377 . S
C1305 C1311 1.390 . S
C1306 H1297 0.930 . S
C1306 C1304 1.384 . S
C1306 C1307 1.372 . S
C1307 C1306 1.372 . S
C1307 C1308 1.400 . S
C1307 C1312 1.490 . S
C1308 H1298 0.930 . S
C1308 C1307 1.400 . S
C1308 C1311 1.386 . S
H1309 C1325 0.930 . S
H1310 C1326 0.931 . S
C1311 H1299 0.929 . S
C1311 C1305 1.390 . S
C1311 C1308 1.386 . S
C1312 C1307 1.490 . S
C1312 C1314 1.395 . S
C1312 C1315 1.403 . S
H1313 C1319 0.930 . S
C1314 H1300 0.930 . S
C1314 C1312 1.395 . S
C1314 C1317 1.403 . S
C1315 C1312 1.403 . S
C1315 C1316 1.524 . S
C1315 C1319 1.400 . S
C1316 H1301 0.960 . S
C1316 H1302 0.960 . S
C1316 H1303 0.960 . S
C1316 C1315 1.524 . S
C1317 C1314 1.403 . S
C1317 C1318 1.392 . S
C1317 C1321 1.495 . S
C1318 C1317 1.392 . S
C1318 C1319 1.385 . S
C1318 C1320 1.478 . S
C1319 H1313 0.930 . S
C1319 C1315 1.400 . S
C1319 C1318 1.385 . S
C1320 C1318 1.478 . S
C1320 C1322 1.381 . S
C1320 C1326 1.383 . S
C1321 C1317 1.495 . S
C1321 H1327 0.959 . S
C1321 H1328 0.961 . S
C1321 H1329 0.960 . S
C1322 C1320 1.381 . S
C1322 C1323 1.394 . S
C1322 H1330 0.930 . S
C1323 C1322 1.394 . S
C1323 C1324 1.383 . S
C1323 H1331 0.929 . S
C1324 C1323 1.383 . S
C1324 C1325 1.377 . S
C1325 H1309 0.930 . S
C1325 C1324 1.377 . S
C1325 C1326 1.379 . S
C1326 H1310 0.931 . S
C1326 C1320 1.383 . S
C1326 C1325 1.379 . S
H1327 C1321 0.959 . S
H1328 C1321 0.961 . S
H1329 C1321 0.960 . S
H1330 C1322 0.930 . S
H1331 C1323 0.929 . S
H1332 C1340 0.929 . S
H1333 C1342 0.930 . S
H1334 C1344 0.930 . S
H1335 C1347 0.929 . S
H1336 C1350 0.930 . S
H1337 C1352 0.960 . S
H1338 C1352 0.960 . S
H1339 C1352 0.960 . S
C1340 H1332 0.929 . S
C1340 C1341 1.377 . S
C1340 C1342 1.384 . S
C1341 C1340 1.377 . S
C1341 C1347 1.390 . S
C1342 H1333 0.930 . S
C1342 C1340 1.384 . S
C1342 C1343 1.372 . S
C1343 C1342 1.372 . S
C1343 C1344 1.400 . S
C1343 C1348 1.490 . S
C1344 H1334 0.930 . S
C1344 C1343 1.400 . S
C1344 C1347 1.386 . S
H1345 C1361 0.930 . S
H1346 C1362 0.931 . S
C1347 H1335 0.929 . S
C1347 C1341 1.390 . S
C1347 C1344 1.386 . S
C1348 C1343 1.490 . S
C1348 C1350 1.395 . S
C1348 C1351 1.403 . S
H1349 C1355 0.930 . S
C1350 H1336 0.930 . S
C1350 C1348 1.395 . S
C1350 C1353 1.403 . S
C1351 C1348 1.403 . S
C1351 C1352 1.524 . S
C1351 C1355 1.400 . S
C1352 H1337 0.960 . S
C1352 H1338 0.960 . S
C1352 H1339 0.960 . S
C1352 C1351 1.524 . S
C1353 C1350 1.403 . S
C1353 C1354 1.392 . S
C1353 C1357 1.495 . S
C1354 C1353 1.392 . S
C1354 C1355 1.385 . S
C1354 C1356 1.478 . S
C1355 H1349 0.930 . S
C1355 C1351 1.400 . S
C1355 C1354 1.385 . S
C1356 C1354 1.478 . S
C1356 C1358 1.381 . S
C1356 C1362 1.383 . S
C1357 C1353 1.495 . S
C1357 H1363 0.959 . S
C1357 H1364 0.961 . S
C1357 H1365 0.960 . S
C1358 C1356 1.381 . S
C1358 C1359 1.394 . S
C1358 H1366 0.930 . S
C1359 C1358 1.394 . S
C1359 C1360 1.383 . S
C1359 H1367 0.929 . S
C1360 C1359 1.383 . S
C1360 C1361 1.377 . S
C1361 H1345 0.930 . S
C1361 C1360 1.377 . S
C1361 C1362 1.379 . S
C1362 H1346 0.931 . S
C1362 C1356 1.383 . S
C1362 C1361 1.379 . S
H1363 C1357 0.959 . S
H1364 C1357 0.961 . S
H1365 C1357 0.960 . S
H1366 C1358 0.930 . S
H1367 C1359 0.929 . S
H1368 C1376 0.929 . S
H1369 C1378 0.930 . S
H1370 C1380 0.930 . S
H1371 C1383 0.929 . S
H1372 C1386 0.930 . S
H1373 C1388 0.960 . S
H1374 C1388 0.960 . S
H1375 C1388 0.960 . S
C1376 H1368 0.929 . S
C1376 C1377 1.377 . S
C1376 C1378 1.384 . S
C1377 C1376 1.377 . S
C1377 C1383 1.390 . S
C1378 H1369 0.930 . S
C1378 C1376 1.384 . S
C1378 C1379 1.372 . S
C1379 C1378 1.372 . S
C1379 C1380 1.400 . S
C1379 C1384 1.490 . S
C1380 H1370 0.930 . S
C1380 C1379 1.400 . S
C1380 C1383 1.386 . S
H1381 C1397 0.930 . S
H1382 C1398 0.931 . S
C1383 H1371 0.929 . S
C1383 C1377 1.390 . S
C1383 C1380 1.386 . S
C1384 C1379 1.490 . S
C1384 C1386 1.395 . S
C1384 C1387 1.403 . S
H1385 C1391 0.930 . S
C1386 H1372 0.930 . S
C1386 C1384 1.395 . S
C1386 C1389 1.403 . S
C1387 C1384 1.403 . S
C1387 C1388 1.524 . S
C1387 C1391 1.400 . S
C1388 H1373 0.960 . S
C1388 H1374 0.960 . S
C1388 H1375 0.960 . S
C1388 C1387 1.524 . S
C1389 C1386 1.403 . S
C1389 C1390 1.392 . S
C1389 C1393 1.495 . S
C1390 C1389 1.392 . S
C1390 C1391 1.385 . S
C1390 C1392 1.478 . S
C1391 H1385 0.930 . S
C1391 C1387 1.400 . S
C1391 C1390 1.385 . S
C1392 C1390 1.478 . S
C1392 C1394 1.381 . S
C1392 C1398 1.383 . S
C1393 C1389 1.495 . S
C1393 H1399 0.959 . S
C1393 H1400 0.961 . S
C1393 H1401 0.960 . S
C1394 C1392 1.381 . S
C1394 C1395 1.394 . S
C1394 H1402 0.930 . S
C1395 C1394 1.394 . S
C1395 C1396 1.383 . S
C1395 H1403 0.929 . S
C1396 C1395 1.383 . S
C1396 C1397 1.377 . S
C1397 H1381 0.930 . S
C1397 C1396 1.377 . S
C1397 C1398 1.379 . S
C1398 H1382 0.931 . S
C1398 C1392 1.383 . S
C1398 C1397 1.379 . S
H1399 C1393 0.959 . S
H1400 C1393 0.961 . S
H1401 C1393 0.960 . S
H1402 C1394 0.930 . S
H1403 C1395 0.929 . S
H1404 C1412 0.929 . S
H1405 C1414 0.930 . S
H1406 C1416 0.930 . S
H1407 C1419 0.929 . S
H1408 C1422 0.930 . S
H1409 C1424 0.960 . S
H1410 C1424 0.960 . S
H1411 C1424 0.960 . S
C1412 H1404 0.929 . S
C1412 C1413 1.377 . S
C1412 C1414 1.384 . S
C1413 C1412 1.377 . S
C1413 C1419 1.390 . S
C1414 H1405 0.930 . S
C1414 C1412 1.384 . S
C1414 C1415 1.372 . S
C1415 C1414 1.372 . S
C1415 C1416 1.400 . S
C1415 C1420 1.490 . S
C1416 H1406 0.930 . S
C1416 C1415 1.400 . S
C1416 C1419 1.386 . S
H1417 C1433 0.930 . S
H1418 C1434 0.931 . S
C1419 H1407 0.929 . S
C1419 C1413 1.390 . S
C1419 C1416 1.386 . S
C1420 C1415 1.490 . S
C1420 C1422 1.395 . S
C1420 C1423 1.403 . S
H1421 C1427 0.930 . S
C1422 H1408 0.930 . S
C1422 C1420 1.395 . S
C1422 C1425 1.403 . S
C1423 C1420 1.403 . S
C1423 C1424 1.524 . S
C1423 C1427 1.400 . S
C1424 H1409 0.960 . S
C1424 H1410 0.960 . S
C1424 H1411 0.960 . S
C1424 C1423 1.524 . S
C1425 C1422 1.403 . S
C1425 C1426 1.392 . S
C1425 C1429 1.495 . S
C1426 C1425 1.392 . S
C1426 C1427 1.385 . S
C1426 C1428 1.478 . S
C1427 H1421 0.930 . S
C1427 C1423 1.400 . S
C1427 C1426 1.385 . S
C1428 C1426 1.478 . S
C1428 C1430 1.381 . S
C1428 C1434 1.383 . S
C1429 C1425 1.495 . S
C1429 H1435 0.959 . S
C1429 H1436 0.961 . S
C1429 H1437 0.960 . S
C1430 C1428 1.381 . S
C1430 C1431 1.394 . S
C1430 H1438 0.930 . S
C1431 C1430 1.394 . S
C1431 C1432 1.383 . S
C1431 H1439 0.929 . S
C1432 C1431 1.383 . S
C1432 C1433 1.377 . S
C1433 H1417 0.930 . S
C1433 C1432 1.377 . S
C1433 C1434 1.379 . S
C1434 H1418 0.931 . S
C1434 C1428 1.383 . S
C1434 C1433 1.379 . S
H1435 C1429 0.959 . S
H1436 C1429 0.961 . S
H1437 C1429 0.960 . S
H1438 C1430 0.930 . S
H1439 C1431 0.929 . S
H1440 C1448 0.929 . S
H1441 C1450 0.930 . S
H1442 C1452 0.930 . S
H1443 C1455 0.929 . S
H1444 C1458 0.930 . S
H1445 C1460 0.960 . S
H1446 C1460 0.960 . S
H1447 C1460 0.960 . S
C1448 H1440 0.929 . S
C1448 C1449 1.377 . S
C1448 C1450 1.384 . S
C1449 C1448 1.377 . S
C1449 C1455 1.390 . S
C1450 H1441 0.930 . S
C1450 C1448 1.384 . S
C1450 C1451 1.372 . S
C1451 C1450 1.372 . S
C1451 C1452 1.400 . S
C1451 C1456 1.490 . S
C1452 H1442 0.930 . S
C1452 C1451 1.400 . S
C1452 C1455 1.386 . S
H1453 C1469 0.930 . S
H1454 C1470 0.931 . S
C1455 H1443 0.929 . S
C1455 C1449 1.390 . S
C1455 C1452 1.386 . S
C1456 C1451 1.490 . S
C1456 C1458 1.395 . S
C1456 C1459 1.403 . S
H1457 C1463 0.930 . S
C1458 H1444 0.930 . S
C1458 C1456 1.395 . S
C1458 C1461 1.403 . S
C1459 C1456 1.403 . S
C1459 C1460 1.524 . S
C1459 C1463 1.400 . S
C1460 H1445 0.960 . S
C1460 H1446 0.960 . S
C1460 H1447 0.960 . S
C1460 C1459 1.524 . S
C1461 C1458 1.403 . S
C1461 C1462 1.392 . S
C1461 C1465 1.495 . S
C1462 C1461 1.392 . S
C1462 C1463 1.385 . S
C1462 C1464 1.478 . S
C1463 H1457 0.930 . S
C1463 C1459 1.400 . S
C1463 C1462 1.385 . S
C1464 C1462 1.478 . S
C1464 C1466 1.381 . S
C1464 C1470 1.383 . S
C1465 C1461 1.495 . S
C1465 H1471 0.959 . S
C1465 H1472 0.961 . S
C1465 H1473 0.960 . S
C1466 C1464 1.381 . S
C1466 C1467 1.394 . S
C1466 H1474 0.930 . S
C1467 C1466 1.394 . S
C1467 C1468 1.383 . S
C1467 H1475 0.929 . S
C1468 C1467 1.383 . S
C1468 C1469 1.377 . S
C1469 H1453 0.930 . S
C1469 C1468 1.377 . S
C1469 C1470 1.379 . S
C1470 H1454 0.931 . S
C1470 C1464 1.383 . S
C1470 C1469 1.379 . S
H1471 C1465 0.959 . S
H1472 C1465 0.961 . S
H1473 C1465 0.960 . S
H1474 C1466 0.930 . S
H1475 C1467 0.929 . S
C405 C318 0.506 . S
C424 C21 0.551 . S
C441 C54 0.488 . S
C460 C351 0.493 . S
C477 C384 0.507 . S
C496 C87 0.549 . S
C513 C120 0.507 . S
C532 C219 0.549 . S
C549 C153 0.504 . S
C568 C252 0.504 . S
C585 C285 0.486 . S
C604 C186 0.457 . S
C621 C18 1.091 . S
C640 N134 1.062 . S
C657 N167 1.009 . S
C676 C51 1.077 . S
C693 C84 1.090 . S
C712 N2 1.040 . S
C729 C117 1.096 . S
C748 N35 0.961 . S
C765 N68 1.012 . S
C784 C150 1.075 . S
C801 N101 1.001 . S
C820 C183 1.084 . S
C837 N266 1.004 . S
C856 C216 1.080 . S
C873 C249 1.096 . S
C892 N299 0.944 . S
C909 N332 1.017 . S
C928 C282 1.077 . S
C945 N365 1.010 . S
C964 C315 1.076 . S
C981 N200 0.993 . S
C1000 C348 1.100 . S
C1017 C381 1.096 . S
C1036 N233 0.956 . S
C1053 N343 0.632 . S
C1072 N13 0.605 . S
C1089 N376 0.619 . S
C1108 N46 0.545 . S
C1125 N79 0.636 . S
C1144 N211 0.722 . S
C1161 N112 0.610 . S
C1180 N244 0.645 . S
C1197 N277 0.609 . S
C1216 N145 0.642 . S
C1233 N178 0.642 . S
C1252 N310 0.681 . S
C1269 C205 0.723 . S
C1288 C7 0.694 . S
C1305 C238 0.721 . S
C1324 C40 0.688 . S
C1341 C73 0.720 . S
C1360 C271 0.683 . S
C1377 C304 0.720 . S
C1396 C106 0.684 . S
C1413 C139 0.729 . S
C1432 C337 0.721 . S
C1449 C370 0.736 . S
C1468 C172 0.759 . S
