# Generated by pormake.
# Topology cag, (4)-cn, num edge types: 1
# Building blocks:
#     Node 0, Type 0, BuildingBlock: QUQFOY_clean_sbu_1, # of connection points: 4
#     Node 1, Type 0, BuildingBlock: QUQFOY_clean_sbu_1, # of connection points: 4
#     Node 2, Type 0, BuildingBlock: QUQFOY_clean_sbu_1, # of connection points: 4
#     Node 3, Type 0, BuildingBlock: QUQFOY_clean_sbu_1, # of connection points: 4
#     Node 4, Type 0, BuildingBlock: QUQFOY_clean_sbu_1, # of connection points: 4
#     Node 5, Type 0, BuildingBlock: QUQFOY_clean_sbu_1, # of connection points: 4
#     Node 6, Type 0, BuildingBlock: QUQFOY_clean_sbu_1, # of connection points: 4
#     Node 7, Type 0, BuildingBlock: QUQFOY_clean_sbu_1, # of connection points: 4
#     Node 8, Type 0, BuildingBlock: QUQFOY_clean_sbu_1, # of connection points: 4
#     Node 9, Type 0, BuildingBlock: QUQFOY_clean_sbu_1, # of connection points: 4
#     Node 10, Type 0, BuildingBlock: QUQFOY_clean_sbu_1, # of connection points: 4
#     Node 11, Type 0, BuildingBlock: QUQFOY_clean_sbu_1, # of connection points: 4
#     Node 12, Type 0, BuildingBlock: QUQFOY_clean_sbu_1, # of connection points: 4
#     Node 13, Type 0, BuildingBlock: QUQFOY_clean_sbu_1, # of connection points: 4
#     Node 14, Type 0, BuildingBlock: QUQFOY_clean_sbu_1, # of connection points: 4
#     Node 15, Type 0, BuildingBlock: QUQFOY_clean_sbu_1, # of connection points: 4
#     Edge 16, Type (0, 0), BuildingBlock: XUDNAN_clean_linker_2, # of connection points: 2
#     Edge 17, Type (0, 0), BuildingBlock: XUDNAN_clean_linker_2, # of connection points: 2
#     Edge 18, Type (0, 0), BuildingBlock: XUDNAN_clean_linker_2, # of connection points: 2
#     Edge 19, Type (0, 0), BuildingBlock: XUDNAN_clean_linker_2, # of connection points: 2
#     Edge 20, Type (0, 0), BuildingBlock: XUDNAN_clean_linker_2, # of connection points: 2
#     Edge 21, Type (0, 0), BuildingBlock: XUDNAN_clean_linker_2, # of connection points: 2
#     Edge 22, Type (0, 0), BuildingBlock: XUDNAN_clean_linker_2, # of connection points: 2
#     Edge 23, Type (0, 0), BuildingBlock: XUDNAN_clean_linker_2, # of connection points: 2
#     Edge 24, Type (0, 0), BuildingBlock: XUDNAN_clean_linker_2, # of connection points: 2
#     Edge 25, Type (0, 0), BuildingBlock: XUDNAN_clean_linker_2, # of connection points: 2
#     Edge 26, Type (0, 0), BuildingBlock: XUDNAN_clean_linker_2, # of connection points: 2
#     Edge 27, Type (0, 0), BuildingBlock: XUDNAN_clean_linker_2, # of connection points: 2
#     Edge 28, Type (0, 0), BuildingBlock: XUDNAN_clean_linker_2, # of connection points: 2
#     Edge 29, Type (0, 0), BuildingBlock: XUDNAN_clean_linker_2, # of connection points: 2
#     Edge 30, Type (0, 0), BuildingBlock: XUDNAN_clean_linker_2, # of connection points: 2
#     Edge 31, Type (0, 0), BuildingBlock: XUDNAN_clean_linker_2, # of connection points: 2
#     Edge 32, Type (0, 0), BuildingBlock: XUDNAN_clean_linker_2, # of connection points: 2
#     Edge 33, Type (0, 0), BuildingBlock: XUDNAN_clean_linker_2, # of connection points: 2
#     Edge 34, Type (0, 0), BuildingBlock: XUDNAN_clean_linker_2, # of connection points: 2
#     Edge 35, Type (0, 0), BuildingBlock: XUDNAN_clean_linker_2, # of connection points: 2
#     Edge 36, Type (0, 0), BuildingBlock: XUDNAN_clean_linker_2, # of connection points: 2
#     Edge 37, Type (0, 0), BuildingBlock: XUDNAN_clean_linker_2, # of connection points: 2
#     Edge 38, Type (0, 0), BuildingBlock: XUDNAN_clean_linker_2, # of connection points: 2
#     Edge 39, Type (0, 0), BuildingBlock: XUDNAN_clean_linker_2, # of connection points: 2
#     Edge 40, Type (0, 0), BuildingBlock: XUDNAN_clean_linker_2, # of connection points: 2
#     Edge 41, Type (0, 0), BuildingBlock: XUDNAN_clean_linker_2, # of connection points: 2
#     Edge 42, Type (0, 0), BuildingBlock: XUDNAN_clean_linker_2, # of connection points: 2
#     Edge 43, Type (0, 0), BuildingBlock: XUDNAN_clean_linker_2, # of connection points: 2
#     Edge 44, Type (0, 0), BuildingBlock: XUDNAN_clean_linker_2, # of connection points: 2
#     Edge 45, Type (0, 0), BuildingBlock: XUDNAN_clean_linker_2, # of connection points: 2
#     Edge 46, Type (0, 0), BuildingBlock: XUDNAN_clean_linker_2, # of connection points: 2
#     Edge 47, Type (0, 0), BuildingBlock: XUDNAN_clean_linker_2, # of connection points: 2
# Relax obj value: 0.136
# Max RMSD: 0.200
# Mean RMSD: 0.178
data_MOF--net-cag--node1-QUQFOY_clean_sbu_1--edge1-XUDNAN_clean_linker_2
_symmetry_space_group_name_H-M    P1
_symmetry_Int_Tables_number       1
_symmetry_cell_setting            triclinic
loop_
_symmetry_equiv_pos_as_xyz
'x, y, z'
_cell_length_a     41.907478
_cell_length_b     55.944247
_cell_length_c     42.064716
_cell_angle_alpha  89.90817
_cell_angle_beta   89.968357
_cell_angle_gamma 89.919845
loop_
_atom_site_label
_atom_site_type_symbol
_atom_site_fract_x
_atom_site_fract_y
_atom_site_fract_z
_atom_type_partial_charge
O0 O 0.30501 0.13973 0.12073 0.0
Cd1 Cd 0.31815 0.1496 0.07553 0.0
Cd2 Cd 0.32095 0.1007 0.06522 0.0
O3 O 0.30857 0.10091 0.11267 0.0
O4 O 0.3036 0.1831 0.0696 0.0
O5 O 0.28553 0.15284 0.04086 0.0
C6 C 0.28531 0.17546 0.04716 0.0
C7 C 0.2984 0.06999 0.03533 0.0
C8 C 0.30299 0.11844 0.13099 0.0
C9 C 0.38047 0.13012 0.05336 0.0
O10 O 0.36656 0.11001 0.05156 0.0
O11 O 0.36575 0.1484 0.06362 0.0
O12 O 0.31985 0.06588 0.0565 0.0
O13 O 0.28929 0.09181 0.03102 0.0
O14 O 0.2054 0.84696 0.61731 0.0
Cd15 Cd 0.1746 0.83918 0.58105 0.0
Cd16 Cd 0.16709 0.89458 0.59334 0.0
O17 O 0.19874 0.88517 0.62891 0.0
O18 O 0.17594 0.80379 0.58589 0.0
O19 O 0.19232 0.82181 0.54234 0.0
C20 C 0.18843 0.80223 0.55812 0.0
C21 C 0.17569 0.93188 0.56967 0.0
C22 C 0.21194 0.8651 0.63412 0.0
C23 C 0.1087 0.86225 0.59289 0.0
O24 O 0.12026 0.88315 0.59563 0.0
O25 O 0.12633 0.84424 0.58732 0.0
O26 O 0.16455 0.92999 0.59809 0.0
O27 O 0.18195 0.91245 0.55432 0.0
O28 O 0.31474 0.84088 0.86005 0.0
Cd29 Cd 0.32698 0.83501 0.90665 0.0
Cd30 Cd 0.33292 0.88901 0.90007 0.0
O31 O 0.31818 0.88012 0.85493 0.0
O32 O 0.3306 0.79964 0.90431 0.0
O33 O 0.2967 0.81751 0.93647 0.0
C34 C 0.30865 0.79794 0.92547 0.0
C35 C 0.3092 0.92317 0.92087 0.0
C36 C 0.31243 0.85967 0.84329 0.0
C37 C 0.38988 0.86089 0.92266 0.0
O38 O 0.37906 0.88124 0.9145 0.0
O39 O 0.37247 0.84236 0.92144 0.0
O40 O 0.33003 0.92442 0.89844 0.0
O41 O 0.30196 0.90239 0.93215 0.0
O42 O 0.20581 0.14253 0.35161 0.0
Cd43 Cd 0.17713 0.15672 0.38634 0.0
Cd44 Cd 0.16861 0.10534 0.39887 0.0
O45 O 0.1988 0.10393 0.36014 0.0
O46 O 0.18411 0.19156 0.37968 0.0
O47 O 0.19585 0.17333 0.42474 0.0
C48 C 0.19512 0.19277 0.40817 0.0
C49 C 0.17744 0.07659 0.43836 0.0
C50 C 0.21128 0.12089 0.34436 0.0
C51 C 0.11043 0.1358 0.38433 0.0
O52 O 0.12168 0.11548 0.39204 0.0
O53 O 0.12856 0.15378 0.38081 0.0
O54 O 0.16544 0.07102 0.41121 0.0
O55 O 0.18458 0.09872 0.44331 0.0
O56 O 0.7149 0.84085 0.95795 0.0
Cd57 Cd 0.68617 0.86063 0.92853 0.0
Cd58 Cd 0.68083 0.88973 0.97938 0.0
O59 O 0.70957 0.86382 0.00023 0.0
O60 O 0.69462 0.84812 0.88517 0.0
O61 O 0.70317 0.88577 0.89867 0.0
C62 C 0.70376 0.86929 0.87721 0.0
C63 C 0.69682 0.92953 0.9819 0.0
C64 C 0.7208 0.84519 0.98696 0.0
C65 C 0.62054 0.86809 0.95453 0.0
O66 O 0.63249 0.88304 0.97383 0.0
O67 O 0.63805 0.85675 0.93509 0.0
O68 O 0.68426 0.91895 0.00612 0.0
O69 O 0.70062 0.9173 0.95611 0.0
O70 O 0.79336 0.17156 0.42515 0.0
Cd71 Cd 0.80844 0.15047 0.38808 0.0
Cd72 Cd 0.82461 0.1197 0.43659 0.0
O73 O 0.80685 0.14719 0.46418 0.0
O74 O 0.78721 0.16444 0.35025 0.0
O75 O 0.77849 0.12733 0.36691 0.0
C76 C 0.77263 0.14435 0.34696 0.0
C77 C 0.81057 0.08117 0.45237 0.0
C78 C 0.79503 0.16687 0.45464 0.0
C79 C 0.877 0.13704 0.39235 0.0
O80 O 0.8688 0.12364 0.41537 0.0
O81 O 0.85639 0.14975 0.37804 0.0
O82 O 0.83258 0.09296 0.46679 0.0
O83 O 0.79623 0.09119 0.42867 0.0
O84 O 0.69159 0.19116 0.06714 0.0
Cd85 Cd 0.66374 0.16519 0.08777 0.0
Cd86 Cd 0.68116 0.13862 0.03436 0.0
O87 O 0.71081 0.16796 0.02922 0.0
O88 O 0.65699 0.1749 0.1326 0.0
O89 O 0.68378 0.14233 0.11892 0.0
C90 C 0.67286 0.15617 0.14098 0.0
C91 C 0.70136 0.10088 0.02175 0.0
C92 C 0.71031 0.18786 0.04381 0.0
C93 C 0.61123 0.14994 0.0442 0.0
O94 O 0.63265 0.14143 0.02605 0.0
O95 O 0.6187 0.15967 0.07037 0.0
O96 O 0.69567 0.11662 0.00011 0.0
O97 O 0.69669 0.10685 0.05104 0.0
O98 O 0.78232 0.83207 0.57851 0.0
Cd99 Cd 0.80642 0.85316 0.61034 0.0
Cd100 Cd 0.8183 0.88077 0.55756 0.0
O101 O 0.79434 0.85294 0.53558 0.0
O102 O 0.79151 0.84255 0.65281 0.0
O103 O 0.78532 0.87957 0.63518 0.0
C104 C 0.7816 0.86405 0.65767 0.0
C105 C 0.80593 0.91925 0.54012 0.0
C106 C 0.7811 0.83496 0.5486 0.0
C107 C 0.8747 0.86153 0.59462 0.0
O108 O 0.8647 0.87555 0.57302 0.0
O109 O 0.85516 0.84986 0.61165 0.0
O110 O 0.8243 0.90541 0.52393 0.0
O111 O 0.79413 0.91128 0.56644 0.0
O112 O 0.829 0.66108 0.15151 0.0
Cd113 Cd 0.84089 0.66887 0.10532 0.0
Cd114 Cd 0.82362 0.61892 0.09885 0.0
O115 O 0.81214 0.62392 0.14612 0.0
O116 O 0.84556 0.70426 0.10624 0.0
O117 O 0.80998 0.68583 0.07626 0.0
C118 C 0.82252 0.70556 0.08608 0.0
C119 C 0.79233 0.59206 0.07 0.0
C120 C 0.81727 0.64214 0.16335 0.0
C121 C 0.89114 0.63502 0.08199 0.0
O122 O 0.87092 0.61827 0.08499 0.0
O123 O 0.88379 0.65648 0.08857 0.0
O124 O 0.81116 0.58503 0.09229 0.0
O125 O 0.79027 0.61474 0.06463 0.0
O126 O 0.69657 0.34227 0.63793 0.0
Cd127 Cd 0.67429 0.33316 0.59639 0.0
Cd128 Cd 0.66367 0.38481 0.59972 0.0
O129 O 0.68833 0.38112 0.64198 0.0
O130 O 0.68102 0.29804 0.59917 0.0
O131 O 0.70001 0.31963 0.55962 0.0
C132 C 0.69729 0.29909 0.57334 0.0
C133 C 0.67839 0.41494 0.56429 0.0
C134 C 0.69971 0.36175 0.653 0.0
C135 C 0.60631 0.3524 0.59612 0.0
O136 O 0.61677 0.37367 0.59798 0.0
O137 O 0.62528 0.33469 0.59494 0.0
O138 O 0.66313 0.4197 0.59015 0.0
O139 O 0.68585 0.3929 0.55874 0.0
O140 O 0.79529 0.36849 0.88782 0.0
Cd141 Cd 0.81384 0.37064 0.93323 0.0
Cd142 Cd 0.80428 0.42064 0.91484 0.0
O143 O 0.78153 0.40566 0.87673 0.0
O144 O 0.82536 0.33636 0.9385 0.0
O145 O 0.78985 0.35397 0.96909 0.0
C146 C 0.80514 0.33482 0.96132 0.0
C147 C 0.78073 0.45328 0.93991 0.0
C148 C 0.78259 0.38371 0.86929 0.0
C149 C 0.87086 0.40378 0.92817 0.0
O150 O 0.85346 0.41951 0.91491 0.0
O151 O 0.85874 0.38481 0.93955 0.0
O152 O 0.79292 0.45509 0.91189 0.0
O153 O 0.78142 0.43265 0.95376 0.0
O154 O 0.71545 0.64508 0.39006 0.0
Cd155 Cd 0.68234 0.65417 0.42383 0.0
Cd156 Cd 0.67378 0.59848 0.4126 0.0
O157 O 0.70604 0.60738 0.37736 0.0
O158 O 0.68385 0.68934 0.41667 0.0
O159 O 0.69735 0.67307 0.46237 0.0
C160 C 0.69423 0.69202 0.44513 0.0
C161 C 0.68213 0.56135 0.4369 0.0
C162 C 0.72113 0.6268 0.37317 0.0
C163 C 0.61625 0.63138 0.41046 0.0
O164 O 0.62714 0.61018 0.40925 0.0
O165 O 0.63436 0.64919 0.41547 0.0
O166 O 0.67143 0.56305 0.4083 0.0
O167 O 0.68791 0.58088 0.45217 0.0
O168 O 0.17212 0.31814 0.92213 0.0
Cd169 Cd 0.15978 0.3499 0.8995 0.0
Cd170 Cd 0.16077 0.36478 0.96114 0.0
O171 O 0.17879 0.33148 0.97099 0.0
O172 O 0.164 0.34171 0.85368 0.0
O173 O 0.1931 0.36963 0.87689 0.0
C174 C 0.18573 0.35789 0.85154 0.0
C175 C 0.19008 0.39935 0.96874 0.0
C176 C 0.18007 0.31456 0.95093 0.0
C177 C 0.09917 0.37012 0.92813 0.0
O178 O 0.11237 0.36931 0.95526 0.0
O179 O 0.11455 0.36434 0.90327 0.0
O180 O 0.17597 0.38893 0.99229 0.0
O181 O 0.18858 0.3894 0.94105 0.0
O182 O 0.29026 0.66782 0.42365 0.0
Cd183 Cd 0.31457 0.64691 0.39169 0.0
Cd184 Cd 0.32488 0.61842 0.44302 0.0
O185 O 0.30056 0.64572 0.46591 0.0
O186 O 0.29901 0.65666 0.34911 0.0
O187 O 0.29373 0.6199 0.36809 0.0
C188 C 0.28935 0.63498 0.34519 0.0
C189 C 0.31061 0.57952 0.45652 0.0
C190 C 0.28799 0.66417 0.45335 0.0
C191 C 0.38239 0.63761 0.40757 0.0
O192 O 0.37172 0.62351 0.42876 0.0
O193 O 0.36335 0.64975 0.39051 0.0
O194 O 0.32886 0.59205 0.47458 0.0
O195 O 0.30011 0.58903 0.43056 0.0
O196 O 0.20768 0.65808 0.05122 0.0
Cd197 Cd 0.1828 0.63439 0.07906 0.0
Cd198 Cd 0.18714 0.60476 0.02711 0.0
O199 O 0.21339 0.63349 0.01071 0.0
O200 O 0.18793 0.64606 0.12323 0.0
O201 O 0.20525 0.61063 0.10718 0.0
C202 C 0.20207 0.62615 0.12971 0.0
C203 C 0.20655 0.56689 0.0143 0.0
C204 C 0.21834 0.65367 0.02361 0.0
C205 C 0.12137 0.61917 0.04953 0.0
O206 O 0.13796 0.60737 0.02969 0.0
O207 O 0.13474 0.63131 0.07124 0.0
O208 O 0.19468 0.58085 0.99303 0.0
O209 O 0.20776 0.57443 0.04327 0.0
O210 O 0.2802 0.32526 0.55611 0.0
Cd211 Cd 0.30378 0.34394 0.59089 0.0
Cd212 Cd 0.31879 0.37391 0.5423 0.0
O213 O 0.29629 0.34762 0.51595 0.0
O214 O 0.28573 0.3328 0.63193 0.0
O215 O 0.28412 0.37062 0.61621 0.0
C216 C 0.2779 0.35468 0.63761 0.0
C217 C 0.30688 0.41341 0.52911 0.0
C218 C 0.2814 0.32944 0.52646 0.0
C219 C 0.3728 0.35168 0.57968 0.0
O220 O 0.36417 0.36744 0.55967 0.0
O221 O 0.35218 0.33903 0.594 0.0
O222 O 0.32629 0.40084 0.51227 0.0
O223 O 0.29384 0.40357 0.55368 0.0
H224 H 0.27311 0.2222 0.06135 0.0
H225 H 0.25248 0.16713 0.9918 0.0
H226 H 0.22147 0.19642 0.9602 0.0
H227 H 0.19582 0.25183 0.05718 0.0
H228 H 0.21277 0.28119 0.06203 0.0
H229 H 0.23217 0.2556 0.07951 0.0
H230 H 0.28449 0.26636 0.04991 0.0
H231 H 0.26526 0.29192 0.03227 0.0
H232 H 0.28394 0.2698 0.00729 0.0
H233 H 0.19568 0.23264 0.93464 0.0
H234 H 0.17509 0.27225 0.91841 0.0
H235 H 0.21149 0.3029 0.00591 0.0
C236 C 0.26191 0.21621 0.03958 0.0
C237 C 0.26526 0.1924 0.02896 0.0
C238 C 0.25015 0.18528 0.0004 0.0
C239 C 0.23253 0.20179 0.9823 0.0
C240 C 0.23003 0.22523 0.99332 0.0
C241 C 0.24408 0.23234 0.02145 0.0
C242 C 0.23823 0.25859 0.02792 0.0
C243 C 0.21857 0.26199 0.05847 0.0
C244 C 0.26986 0.27248 0.02942 0.0
C245 C 0.21913 0.26528 -0.00125 0.0
C246 C 0.21464 0.24583 0.97904 0.0
C247 C 0.19878 0.24794 0.95005 0.0
C248 C 0.18726 0.27052 0.941 0.0
C249 C 0.19151 0.29066 0.96096 0.0
C250 C 0.20751 0.28783 0.99028 0.0
H251 H 0.27313 0.7107 0.43889 0.0
H252 H 0.26418 0.65715 0.51319 0.0
H253 H 0.23542 0.68629 0.54671 0.0
H254 H 0.28829 0.75975 0.49102 0.0
H255 H 0.2664 0.78117 0.4675 0.0
H256 H 0.28477 0.75576 0.44864 0.0
H257 H 0.2302 0.7437 0.42464 0.0
H258 H 0.21162 0.76904 0.44352 0.0
H259 H 0.19643 0.73938 0.45059 0.0
H260 H 0.20809 0.72093 0.57208 0.0
H261 H 0.18683 0.75972 0.58963 0.0
H262 H 0.2151 0.79163 0.49971 0.0
C263 C 0.26489 0.70504 0.46211 0.0
C264 C 0.2707 0.6816 0.47338 0.0
C265 C 0.25999 0.675 0.50409 0.0
C266 C 0.24353 0.69139 0.52323 0.0
C267 C 0.23822 0.71434 0.5114 0.0
C268 C 0.24877 0.72126 0.48169 0.0
C269 C 0.24124 0.74736 0.4753 0.0
C270 C 0.27201 0.76186 0.47033 0.0
C271 C 0.21852 0.75002 0.44682 0.0
C272 C 0.22486 0.75404 0.50615 0.0
C273 C 0.22313 0.73462 0.52646 0.0
C274 C 0.20929 0.73627 0.55642 0.0
C275 C 0.19723 0.75842 0.56612 0.0
C276 C 0.1993 0.77876 0.54605 0.0
C277 C 0.2131 0.77642 0.51555 0.0
H278 H 0.27031 0.78673 0.97679 0.0
H279 H 0.323 0.75522 0.89834 0.0
H280 H 0.30639 0.71512 0.91563 0.0
H281 H 0.2892 0.74058 0.03409 0.0
H282 H 0.2505 0.74125 0.05278 0.0
H283 H 0.26616 0.76782 0.03425 0.0
H284 H 0.21559 0.77096 -0.00094 0.0
H285 H 0.19973 0.74447 0.01757 0.0
H286 H 0.20397 0.74582 0.97496 0.0
H287 H 0.28354 0.67864 0.94011 0.0
H288 H 0.25612 0.64751 0.97138 0.0
H289 H 0.21947 0.70198 0.03525 0.0
C290 C 0.27825 0.77138 0.96326 0.0
C291 C 0.29792 0.77412 0.9362 0.0
C292 C 0.30799 0.75359 0.91919 0.0
C293 C 0.29868 0.7307 0.92879 0.0
C294 C 0.27946 0.72858 0.95558 0.0
C295 C 0.26939 0.74827 0.97269 0.0
C296 C 0.24897 0.7408 0.00075 0.0
C297 C 0.26466 0.74804 0.03233 0.0
C298 C 0.21505 0.75112 -0.0021 0.0
C299 C 0.24908 0.71389 0.99652 0.0
C300 C 0.26675 0.70728 0.97024 0.0
C301 C 0.26974 0.68353 0.96087 0.0
C302 C 0.25405 0.666 0.97875 0.0
C303 C 0.23581 0.6723 0.00582 0.0
C304 C 0.23354 0.69658 0.01488 0.0
H305 H 0.26164 0.28364 0.53862 0.0
H306 H 0.26822 0.33666 0.46339 0.0
H307 H 0.24553 0.30765 0.42544 0.0
H308 H 0.28505 0.23398 0.49126 0.0
H309 H 0.25843 0.21314 0.51037 0.0
H310 H 0.27343 0.23844 0.53209 0.0
H311 H 0.21559 0.25171 0.54497 0.0
H312 H 0.20039 0.22638 0.52338 0.0
H313 H 0.1876 0.25616 0.51297 0.0
H314 H 0.22303 0.2729 0.39564 0.0
H315 H 0.20338 0.23436 0.37535 0.0
H316 H 0.21302 0.20336 0.46959 0.0
C317 C 0.25797 0.28927 0.51425 0.0
C318 C 0.26651 0.31248 0.50399 0.0
C319 C 0.26181 0.31899 0.47178 0.0
C320 C 0.24889 0.30266 0.45007 0.0
C321 C 0.24101 0.27987 0.46092 0.0
C322 C 0.24543 0.27312 0.49221 0.0
C323 C 0.23615 0.24724 0.49745 0.0
C324 C 0.26499 0.23233 0.50843 0.0
C325 C 0.20827 0.24527 0.52109 0.0
C326 C 0.2259 0.24044 0.46416 0.0
C327 C 0.22871 0.2596 0.44354 0.0
C328 C 0.2207 0.25778 0.41154 0.0
C329 C 0.20955 0.23578 0.40027 0.0
C330 C 0.20669 0.21582 0.42087 0.0
C331 C 0.21501 0.21826 0.45325 0.0
H332 H 0.78559 0.71563 0.0337 0.0
H333 H 0.83274 0.74869 0.11425 0.0
H334 H 0.81247 0.78814 0.09739 0.0
H335 H 0.80193 0.76358 0.97806 0.0
H336 H 0.76415 0.76077 0.95796 0.0
H337 H 0.78211 0.73502 0.97652 0.0
H338 H 0.73076 0.72832 0.00971 0.0
H339 H 0.71265 0.75403 0.99124 0.0
H340 H 0.71548 0.7523 0.03394 0.0
H341 H 0.78497 0.82374 0.0733 0.0
H342 H 0.75479 0.85336 0.04148 0.0
H343 H 0.72838 0.79754 0.975 0.0
C344 C 0.79162 0.73118 0.04776 0.0
C345 C 0.81063 0.72911 0.07533 0.0
C346 C 0.81826 0.74988 0.09298 0.0
C347 C 0.80681 0.77237 0.08365 0.0
C348 C 0.78811 0.77383 0.05639 0.0
C349 C 0.7808 0.75385 0.03851 0.0
C350 C 0.76067 0.76043 0.00991 0.0
C351 C 0.77828 0.75461 0.97877 0.0
C352 C 0.72795 0.74803 0.0113 0.0
C353 C 0.75758 0.78715 0.01472 0.0
C354 C 0.77337 0.79451 0.04179 0.0
C355 C 0.77278 0.81825 0.05185 0.0
C356 C 0.75556 0.83492 0.03371 0.0
C357 C 0.73958 0.82779 0.00565 0.0
C358 C 0.74082 0.8036 0.99606 0.0
H359 H 0.77772 0.21356 0.44395 0.0
H360 H 0.78363 0.15949 0.51796 0.0
H361 H 0.76039 0.18791 0.55633 0.0
H362 H 0.79806 0.26405 0.49459 0.0
H363 H 0.77102 0.28419 0.47469 0.0
H364 H 0.78887 0.25979 0.45312 0.0
H365 H 0.7327 0.24483 0.43696 0.0
H366 H 0.71466 0.26912 0.45855 0.0
H367 H 0.70352 0.23872 0.46742 0.0
H368 H 0.73388 0.22103 0.58571 0.0
H369 H 0.70831 0.25775 0.60549 0.0
H370 H 0.72125 0.29121 0.51316 0.0
C371 C 0.77427 0.20772 0.46826 0.0
C372 C 0.78241 0.18426 0.47794 0.0
C373 C 0.77765 0.17736 0.51001 0.0
C374 C 0.76442 0.19337 0.53197 0.0
C375 C 0.75641 0.21625 0.52156 0.0
C376 C 0.76139 0.22353 0.49058 0.0
C377 C 0.75054 0.24913 0.48559 0.0
C378 C 0.77881 0.26524 0.47647 0.0
C379 C 0.72376 0.25052 0.46066 0.0
C380 C 0.73821 0.25497 0.51854 0.0
C381 C 0.74179 0.23569 0.53883 0.0
C382 C 0.7312 0.23633 0.57015 0.0
C383 C 0.71658 0.25725 0.5811 0.0
C384 C 0.71288 0.27735 0.56087 0.0
C385 C 0.72402 0.2762 0.52921 0.0
H386 H 0.75703 0.3227 0.00321 0.0
H387 H 0.83873 0.29375 0.95261 0.0
H388 H 0.82555 0.25348 0.97196 0.0
H389 H 0.76214 0.28132 0.07267 0.0
H390 H 0.71938 0.27893 0.07593 0.0
H391 H 0.73711 0.30607 0.06106 0.0
H392 H 0.70285 0.30286 0.01 0.0
H393 H 0.68521 0.27567 0.02458 0.0
H394 H 0.70481 0.276 0.98643 0.0
H395 H 0.80043 0.21605 0.9908 0.0
H396 H 0.76622 0.18359 0.01119 0.0
H397 H 0.70158 0.23615 0.05146 0.0
C398 C 0.77253 0.30796 0.99685 0.0
C399 C 0.79892 0.3114 0.97641 0.0
C400 C 0.81837 0.29159 0.96822 0.0
C401 C 0.81114 0.26861 0.97914 0.0
C402 C 0.78454 0.26569 -0.00149 0.0
C403 C 0.76569 0.28479 0.00766 0.0
C404 C 0.73742 0.27638 0.02722 0.0
C405 C 0.73913 0.28626 0.06124 0.0
C406 C 0.70571 0.28313 0.01108 0.0
C407 C 0.7429 0.24958 0.02672 0.0
C408 C 0.7703 0.24386 0.01011 0.0
C409 C 0.77922 0.22026 0.00437 0.0
C410 C 0.75957 0.20197 0.01588 0.0
C411 C 0.73145 0.20737 0.03311 0.0
C412 C 0.72326 0.23151 0.03887 0.0
H413 H 0.76603 0.78886 0.56485 0.0
H414 H 0.76025 0.84002 0.48733 0.0
H415 H 0.73474 0.8094 0.45365 0.0
H416 H 0.78672 0.73899 0.51692 0.0
H417 H 0.7641 0.71768 0.53986 0.0
H418 H 0.77978 0.74404 0.55868 0.0
H419 H 0.72301 0.7554 0.57793 0.0
H420 H 0.70713 0.72905 0.55916 0.0
H421 H 0.69113 0.75806 0.54937 0.0
H422 H 0.71121 0.77332 0.42816 0.0
H423 H 0.69338 0.73348 0.41117 0.0
H424 H 0.71603 0.70498 0.50461 0.0
C425 C 0.75903 0.79372 0.54092 0.0
C426 C 0.7649 0.81689 0.52875 0.0
C427 C 0.75594 0.82241 0.49713 0.0
C428 C 0.74135 0.80516 0.47788 0.0
C429 C 0.73611 0.78247 0.49055 0.0
C430 C 0.7448 0.77665 0.52126 0.0
C431 C 0.73804 0.75057 0.52847 0.0
C432 C 0.76901 0.73703 0.53644 0.0
C433 C 0.71335 0.74814 0.55532 0.0
C434 C 0.72438 0.7426 0.49689 0.0
C435 C 0.72321 0.76138 0.47552 0.0
C436 C 0.71193 0.75848 0.44469 0.0
C437 C 0.70184 0.73574 0.4353 0.0
C438 C 0.7033 0.71606 0.45656 0.0
C439 C 0.71454 0.71965 0.48786 0.0
H440 H 0.2975 0.02281 0.05059 0.0
H441 H 0.27441 0.07257 0.97491 0.0
H442 H 0.26531 0.03863 0.93842 0.0
H443 H 0.34191 0.98487 0.00803 0.0
H444 H 0.32875 0.9575 0.02646 0.0
H445 H 0.32671 0.98506 0.04814 0.0
H446 H 0.26622 0.97883 0.05771 0.0
H447 H 0.26808 0.95099 0.03625 0.0
H448 H 0.24012 0.97381 0.02434 0.0
H449 H 0.27154 0.00067 0.90804 0.0
H450 H 0.28726 0.96109 0.8871 0.0
H451 H 0.30213 0.93532 0.98307 0.0
C452 C 0.28946 0.0265 0.02661 0.0
C453 C 0.28665 0.05022 0.01544 0.0
C454 C 0.27639 0.05449 0.98393 0.0
C455 C 0.27118 0.03532 0.96309 0.0
C456 C 0.27552 0.01209 0.97448 0.0
C457 C 0.28367 0.0076 0.00576 0.0
C458 C 0.28984 0.98125 0.0114 0.0
C459 C 0.32381 0.97694 0.02424 0.0
C460 C 0.26455 0.97059 0.03375 0.0
C461 C 0.28609 0.97179 0.97795 0.0
C462 C 0.27747 0.98983 0.95704 0.0
C463 C 0.27711 0.98622 0.92427 0.0
C464 C 0.28621 0.96378 0.91258 0.0
C465 C 0.29512 0.94521 0.93363 0.0
C466 C 0.29424 0.94906 0.96668 0.0
H467 H 0.17765 0.9435 0.5063 0.0
H468 H 0.1838 0.97413 0.60077 0.0
H469 H 0.18905 0.01444 0.57732 0.0
H470 H 0.23244 0.98504 0.46641 0.0
H471 H 0.20863 0.9863 0.43078 0.0
H472 H 0.20869 0.95965 0.45489 0.0
H473 H 0.14708 0.96193 0.45953 0.0
H474 H 0.14684 0.98857 0.43549 0.0
H475 H 0.12874 0.98887 0.47437 0.0
H476 H 0.19162 0.05165 0.54358 0.0
H477 H 0.18779 0.08302 0.50218 0.0
H478 H 0.17717 0.02817 0.43013 0.0
C479 C 0.18067 0.95866 0.52199 0.0
C480 C 0.1806 0.95572 0.55532 0.0
C481 C 0.18386 0.97602 0.57514 0.0
C482 C 0.18699 0.99896 0.56206 0.0
C483 C 0.18656 0.00133 0.5291 0.0
C484 C 0.1833 0.98175 0.50932 0.0
C485 C 0.18109 0.98934 0.47483 0.0
C486 C 0.2094 0.9795 0.4556 0.0
C487 C 0.14903 0.98173 0.46021 0.0
C488 C 0.18315 0.01623 0.47836 0.0
C489 C 0.18681 0.0228 0.50978 0.0
C490 C 0.18885 0.04672 0.51887 0.0
C491 C 0.18669 0.0644 0.49523 0.0
C492 C 0.18208 0.05803 0.46301 0.0
C493 C 0.1806 0.03361 0.45458 0.0
H494 H 0.69015 0.9597 0.03265 0.0
H495 H 0.72233 0.95737 0.93459 0.0
H496 H 0.73296 0.00078 0.93633 0.0
H497 H 0.64873 0.01343 0.02702 0.0
H498 H 0.65909 0.02397 0.06614 0.0
H499 H 0.6576 0.9924 0.05832 0.0
H500 H 0.71591 0.9879 0.07799 0.0
H501 H 0.7176 0.01954 0.08584 0.0
H502 H 0.74686 0.00586 0.06023 0.0
H503 H 0.73453 0.04483 0.94689 0.0
H504 H 0.72677 0.08629 0.96532 0.0
H505 H 0.69462 0.0599 0.05691 0.0
C506 C 0.69998 0.96821 0.01169 0.0
C507 C 0.70552 0.95512 0.98349 0.0
C508 C 0.71802 0.96701 0.95649 0.0
C509 C 0.72422 0.99165 0.95729 0.0
C510 C 0.71805 0.00407 0.98534 0.0
C511 C 0.70635 0.99274 0.01211 0.0
C512 C 0.69966 0.01041 0.03855 0.0
C513 C 0.66417 0.01003 0.04804 0.0
C514 C 0.7213 0.00564 0.06736 0.0
C515 C 0.70848 0.03359 0.02215 0.0
C516 C 0.71933 0.02951 0.99157 0.0
C517 C 0.72659 0.04822 0.97095 0.0
C518 C 0.72206 0.07171 0.98162 0.0
C519 C 0.71042 0.07629 0.01264 0.0
C520 C 0.70424 0.05695 0.03334 0.0
H521 H 0.8519 0.04553 0.46671 0.0
H522 H 0.75113 0.06255 0.46249 0.0
H523 H 0.73833 0.02291 0.48597 0.0
H524 H 0.84239 0.98309 0.44391 0.0
H525 H 0.87469 0.97319 0.46899 0.0
H526 H 0.87525 0.00285 0.45231 0.0
H527 H 0.88133 0.02059 0.50888 0.0
H528 H 0.88039 0.99101 0.52577 0.0
H529 H 0.85228 0.0133 0.53899 0.0
H530 H 0.73769 0.98259 0.51479 0.0
H531 H 0.74839 0.94242 0.53779 0.0
H532 H 0.84902 0.95079 0.517 0.0
C533 C 0.82714 0.04077 0.47054 0.0
C534 C 0.80242 0.05692 0.46311 0.0
C535 C 0.77029 0.05021 0.46802 0.0
C536 C 0.76288 0.02787 0.48148 0.0
C537 C 0.78793 0.0124 0.48906 0.0
C538 C 0.81936 0.01837 0.48298 0.0
C539 C 0.84185 0.99831 0.49195 0.0
C540 C 0.85958 0.9888 0.46254 0.0
C541 C 0.86534 0.00629 0.51794 0.0
C542 C 0.81828 0.98021 0.50458 0.0
C543 C 0.78732 0.98875 0.50329 0.0
C544 C 0.76176 0.97558 0.5154 0.0
C545 C 0.76802 0.95294 0.52858 0.0
C546 C 0.79941 0.94363 0.52875 0.0
C547 C 0.82474 0.95747 0.51669 0.0
H548 H 0.77968 0.46167 0.00372 0.0
H549 H 0.75715 0.49386 0.91269 0.0
H550 H 0.74644 0.53237 0.93922 0.0
H551 H 0.72383 0.49966 0.05451 0.0
H552 H 0.75312 0.50124 0.0858 0.0
H553 H 0.75069 0.47495 0.06116 0.0
H554 H 0.81056 0.47939 0.0469 0.0
H555 H 0.81314 0.50561 0.07126 0.0
H556 H 0.82455 0.5071 0.02997 0.0
H557 H 0.74758 0.56859 0.97365 0.0
H558 H 0.76344 0.59957 0.01232 0.0
H559 H 0.78714 0.54419 0.08064 0.0
C560 C 0.77114 0.47658 0.98964 0.0
C561 C 0.76878 0.47479 0.9563 0.0
C562 C 0.75881 0.49488 0.93835 0.0
C563 C 0.75249 0.51678 0.95324 0.0
C564 C 0.7563 0.5183 0.98609 0.0
C565 C 0.7653 0.49868 0.00411 0.0
C566 C 0.77279 0.50583 0.03799 0.0
C567 C 0.74866 0.49476 0.06124 0.0
C568 C 0.8073 0.4991 0.04702 0.0
C569 C 0.76844 0.53265 0.0357 0.0
C570 C 0.75796 0.53944 0.00588 0.0
C571 C 0.75512 0.56346 0.9973 0.0
C572 C 0.76419 0.58096 0.01941 0.0
C573 C 0.77647 0.57427 0.04946 0.0
C574 C 0.77754 0.54984 0.05795 0.0
H575 H 0.67589 0.46327 0.57418 0.0
H576 H 0.69654 0.41002 0.50209 0.0
H577 H 0.70338 0.44215 0.46225 0.0
H578 H 0.63053 0.50163 0.52674 0.0
H579 H 0.64557 0.52894 0.54373 0.0
H580 H 0.64494 0.502 0.56712 0.0
H581 H 0.70562 0.50599 0.5776 0.0
H582 H 0.70643 0.53307 0.55434 0.0
H583 H 0.73267 0.50864 0.54444 0.0
H584 H 0.7017 0.47954 0.42928 0.0
H585 H 0.69576 0.51988 0.40608 0.0
H586 H 0.6793 0.54915 0.5001 0.0
C587 C 0.68232 0.45838 0.55011 0.0
C588 C 0.68564 0.43414 0.54118 0.0
C589 C 0.69403 0.42847 0.50947 0.0
C590 C 0.69792 0.44659 0.48669 0.0
C591 C 0.69386 0.47028 0.49615 0.0
C592 C 0.68672 0.47624 0.52721 0.0
C593 C 0.68268 0.50302 0.531 0.0
C594 C 0.64892 0.50925 0.54284 0.0
C595 C 0.70839 0.51328 0.55316 0.0
C596 C 0.68771 0.51115 0.49702 0.0
C597 C 0.69412 0.49197 0.47731 0.0
C598 C 0.69729 0.49474 0.44455 0.0
C599 C 0.69374 0.51769 0.43159 0.0
C600 C 0.68741 0.53761 0.45136 0.0
C601 C 0.68477 0.5343 0.48453 0.0
H602 H 0.20146 0.52615 0.04985 0.0
H603 H 0.23206 0.55284 0.95803 0.0
H604 H 0.24064 0.5115 0.9395 0.0
H605 H 0.25323 0.47042 0.0517 0.0
H606 H 0.22161 0.45315 0.06948 0.0
H607 H 0.22512 0.4846 0.0781 0.0
H608 H 0.16676 0.49115 0.05969 0.0
H609 H 0.16313 0.45987 0.05089 0.0
H610 H 0.15509 0.48174 0.0204 0.0
H611 H 0.23765 0.46812 0.92804 0.0
H612 H 0.22128 0.42593 0.92377 0.0
H613 H 0.19081 0.42698 0.0224 0.0
C614 C 0.21122 0.52321 0.02633 0.0
C615 C 0.21663 0.54256 0.00548 0.0
C616 C 0.2281 0.53817 0.97439 0.0
C617 C 0.23319 0.51478 0.96374 0.0
C618 C 0.22655 0.49596 0.98443 0.0
C619 C 0.21586 0.49989 0.01513 0.0
C620 C 0.20597 0.47667 0.03089 0.0
C621 C 0.2278 0.47087 0.05922 0.0
C622 C 0.17065 0.47742 0.04103 0.0
C623 C 0.21135 0.45931 0.00379 0.0
C624 C 0.22397 0.47071 0.97748 0.0
C625 C 0.22837 0.45887 0.94867 0.0
C626 C 0.21892 0.4349 0.94645 0.0
C627 C 0.2049 0.42313 0.97278 0.0
C628 C 0.20192 0.43538 0.002 0.0
H629 H 0.35233 0.54374 0.46864 0.0
H630 H 0.2514 0.56018 0.4647 0.0
H631 H 0.23886 0.51943 0.4847 0.0
H632 H 0.34393 0.48264 0.4403 0.0
H633 H 0.37604 0.47164 0.4648 0.0
H634 H 0.37645 0.50211 0.45096 0.0
H635 H 0.38159 0.51683 0.50914 0.0
H636 H 0.38083 0.48642 0.52318 0.0
H637 H 0.35227 0.50776 0.53811 0.0
H638 H 0.23837 0.47771 0.50955 0.0
H639 H 0.24921 0.4364 0.52848 0.0
H640 H 0.35001 0.44648 0.50998 0.0
C641 C 0.32761 0.53861 0.47183 0.0
C642 C 0.30273 0.55486 0.46543 0.0
C643 C 0.27065 0.54774 0.46947 0.0
C644 C 0.26339 0.52476 0.48096 0.0
C645 C 0.28856 0.50914 0.48749 0.0
C646 C 0.31999 0.51561 0.48231 0.0
C647 C 0.34261 0.49526 0.48965 0.0
C648 C 0.36082 0.48745 0.45964 0.0
C649 C 0.36568 0.50198 0.51663 0.0
C650 C 0.31911 0.47638 0.50024 0.0
C651 C 0.28808 0.48479 0.49943 0.0
C652 C 0.26252 0.47083 0.50981 0.0
C653 C 0.26885 0.44752 0.52067 0.0
C654 C 0.30033 0.43839 0.5203 0.0
C655 C 0.32567 0.45303 0.51006 0.0
H656 H 0.56005 0.17291 0.07069 0.0
H657 H 0.58545 0.11967 6e-05 0.0
H658 H 0.52834 0.11101 0.99151 0.0
H659 H 0.49848 0.14152 0.10606 0.0
H660 H 0.47287 0.16696 0.11263 0.0
H661 H 0.5154 0.17093 0.11065 0.0
H662 H 0.50849 0.20208 0.0655 0.0
H663 H 0.46582 0.19836 0.0675 0.0
H664 H 0.48642 0.19415 0.0303 0.0
H665 H 0.4694 0.1043 0.99617 0.0
H666 H 0.4122 0.10248 0.01028 0.0
H667 H 0.42499 0.16154 0.07573 0.0
C668 C 0.5536 0.15976 0.05297 0.0
C669 C 0.57718 0.14694 0.03606 0.0
C670 C 0.56778 0.12981 0.01315 0.0
C671 C 0.53541 0.12475 0.00816 0.0
C672 C 0.5128 0.13726 0.02586 0.0
C673 C 0.52144 0.15471 0.04741 0.0
C674 C 0.4926 0.16482 0.06444 0.0
C675 C 0.495 0.1608 0.10057 0.0
C676 C 0.48807 0.19143 0.05644 0.0
C677 C 0.46649 0.14975 0.0499 0.0
C678 C 0.47862 0.13398 0.02767 0.0
C679 C 0.4595 0.11689 0.01301 0.0
C680 C 0.42713 0.1159 0.02131 0.0
C681 C 0.41422 0.13203 0.04382 0.0
C682 C 0.43413 0.14933 0.05796 0.0
H683 H 0.92299 0.89208 0.5777 0.0
H684 H 0.90455 0.82323 0.62174 0.0
H685 H 0.96252 0.81638 0.62696 0.0
H686 H 0.99133 0.87519 0.53317 0.0
H687 H 0.01254 0.90276 0.53961 0.0
H688 H 0.96958 0.90255 0.53983 0.0
H689 H 0.96939 0.92148 0.59601 0.0
H690 H 0.01238 0.92183 0.59593 0.0
H691 H 0.99118 0.90715 0.62772 0.0
H692 H 0.02199 0.81563 0.62365 0.0
H693 H 0.07973 0.8226 0.6166 0.0
H694 H 0.05989 0.89313 0.57826 0.0
C695 C 0.93118 0.87561 0.58856 0.0
C696 C 0.90933 0.85812 0.5992 0.0
C697 C 0.9209 0.83689 0.61353 0.0
C698 C 0.95375 0.83281 0.61652 0.0
C699 C 0.97465 0.85031 0.60554 0.0
C700 C 0.96389 0.87144 0.59228 0.0
C701 C 0.99146 0.88741 0.5827 0.0
C702 C 0.9912 0.89225 0.54669 0.0
C703 C 0.99107 0.91085 0.60173 0.0
C704 C 0.0194 0.87175 0.59215 0.0
C705 C 0.00912 0.85036 0.60504 0.0
C706 C 0.03038 0.83243 0.61399 0.0
C707 C 0.06306 0.83651 0.60976 0.0
C708 C 0.07416 0.85845 0.59714 0.0
C709 C 0.05202 0.87634 0.58841 0.0
H710 H 0.43522 0.89596 0.93308 0.0
H711 H 0.42108 0.81899 0.93384 0.0
H712 H 0.4777 0.81307 0.94626 0.0
H713 H 0.51028 0.89566 0.89605 0.0
H714 H 0.52712 0.91955 0.9193 0.0
H715 H 0.48469 0.91824 0.91297 0.0
H716 H 0.47522 0.91882 0.97382 0.0
H717 H 0.51768 0.9202 0.98037 0.0
H718 H 0.49448 0.89676 -0.00144 0.0
H719 H 0.53602 0.81475 0.95198 0.0
H720 H 0.59341 0.82441 0.95475 0.0
H721 H 0.57088 0.90008 0.95423 0.0
C722 C 0.44397 0.8779 0.93629 0.0
C723 C 0.42361 0.85797 0.93239 0.0
C724 C 0.43605 0.8346 0.93671 0.0
C725 C 0.46825 0.83099 0.94383 0.0
C726 C 0.48772 0.85092 0.94702 0.0
C727 C 0.47615 0.87393 0.94381 0.0
C728 C 0.50275 0.8921 0.94746 0.0
C729 C 0.50642 0.90727 0.91713 0.0
C730 C 0.49719 0.9079 0.9768 0.0
C731 C 0.5311 0.87559 0.9522 0.0
C732 C 0.52174 0.8519 0.95184 0.0
C733 C 0.54366 0.8332 0.95301 0.0
C734 C 0.57611 0.83883 0.95445 0.0
C735 C 0.58623 0.8629 0.95518 0.0
C736 C 0.56349 0.88153 0.95449 0.0
H737 H 0.06234 0.1074 0.40719 0.0
H738 H 0.08026 0.17091 0.35054 0.0
H739 H 0.02229 0.17631 0.34295 0.0
H740 H 0.9929 0.08598 0.36324 0.0
H741 H 0.97239 0.07625 0.39863 0.0
H742 H 0.01538 0.07621 0.39741 0.0
H743 H 0.01696 0.1028 0.44779 0.0
H744 H 0.97404 0.10288 0.44921 0.0
H745 H 0.99551 0.13076 0.44804 0.0
H746 H 0.96248 0.17549 0.3428 0.0
H747 H 0.90498 0.17025 0.35341 0.0
H748 H 0.92618 0.10819 0.41191 0.0
C749 C 0.05407 0.12225 0.39284 0.0
C750 C 0.07577 0.13865 0.37927 0.0
C751 C 0.06403 0.15814 0.36116 0.0
C752 C 0.03117 0.16128 0.35656 0.0
C753 C 0.0104 0.14487 0.37041 0.0
C754 C 0.02135 0.12584 0.38837 0.0
C755 C 0.99397 0.11175 0.40248 0.0
C756 C 0.99365 0.08602 0.38966 0.0
C757 C 0.9952 0.11209 0.43904 0.0
C758 C 0.96594 0.12601 0.38998 0.0
C759 C 0.9759 0.14483 0.37115 0.0
C760 C 0.95436 0.16076 0.35742 0.0
C761 C 0.92174 0.15761 0.36354 0.0
C762 C 0.91107 0.13884 0.38353 0.0
C763 C 0.93355 0.12271 0.39653 0.0
H764 H 0.07936 0.65107 0.0753 0.0
H765 H 0.08406 0.58551 0.02044 0.0
H766 H 0.02513 0.58312 0.02086 0.0
H767 H 0.01547 0.63477 0.1251 0.0
H768 H -0.00265 0.66401 0.12543 0.0
H769 H 0.03971 0.66104 0.11954 0.0
H770 H 0.0355 0.68486 0.06678 0.0
H771 H 0.99309 0.68797 0.07256 0.0
H772 H 0.00825 0.67497 0.03638 0.0
H773 H 0.96599 0.58623 0.03134 0.0
H774 H 0.91085 0.59619 0.04767 0.0
H775 H 0.94524 0.66082 0.09305 0.0
C776 C 0.06801 0.63628 0.06318 0.0
C777 C 0.08622 0.61841 0.04795 0.0
C778 C 0.0705 0.59944 0.03217 0.0
C779 C 0.03709 0.59791 0.03233 0.0
C780 C 0.01986 0.6157 0.04794 0.0
C781 C 0.03478 0.63469 0.0627 0.0
C782 C 0.01089 0.65137 0.07801 0.0
C783 C 0.01618 0.65287 0.11416 0.0
C784 C 0.012 0.67627 0.0625 0.0
C785 C 0.98019 0.63854 0.07015 0.0
C786 C 0.98582 0.61796 0.05289 0.0
C787 C 0.96124 0.60248 0.04446 0.0
C788 C 0.93006 0.60822 0.05394 0.0
C789 C 0.92382 0.62937 0.07136 0.0
C790 C 0.94924 0.64474 0.07929 0.0
H791 H 0.5585 0.38326 0.57853 0.0
H792 H 0.57587 0.31141 0.6137 0.0
H793 H 0.51788 0.30385 0.61471 0.0
H794 H 0.48673 0.39496 0.6231 0.0
H795 H 0.46736 0.41076 0.59107 0.0
H796 H 0.51024 0.41087 0.59408 0.0
H797 H 0.51462 0.39431 0.53673 0.0
H798 H 0.47177 0.3942 0.53352 0.0
H799 H 0.49402 0.36711 0.52652 0.0
H800 H 0.45822 0.30438 0.61318 0.0
H801 H 0.40071 0.31181 0.60498 0.0
H802 H 0.42227 0.38246 0.56795 0.0
C803 C 0.55006 0.36599 0.58657 0.0
C804 C 0.57161 0.34796 0.5962 0.0
C805 C 0.55974 0.32546 0.60615 0.0
C806 C 0.52687 0.32102 0.60694 0.0
C807 C 0.50625 0.33917 0.59734 0.0
C808 C 0.51733 0.36111 0.58701 0.0
C809 C 0.49011 0.37719 0.57676 0.0
C810 C 0.48852 0.39978 0.5975 0.0
C811 C 0.4928 0.38357 0.54128 0.0
C812 C 0.46202 0.36086 0.58305 0.0
C813 C 0.47184 0.33913 0.59525 0.0
C814 C 0.45021 0.32128 0.60349 0.0
C815 C 0.41762 0.32569 0.59885 0.0
C816 C 0.40708 0.34764 0.5857 0.0
C817 C 0.42965 0.36543 0.57781 0.0
H818 H 0.04817 0.36233 0.9676 0.0
H819 H 0.07679 0.39887 0.8812 0.0
H820 H 0.02242 0.4155 0.87558 0.0
H821 H 0.97267 0.34448 0.93809 0.0
H822 H 0.95228 0.34757 0.97561 0.0
H823 H 0.99429 0.34092 0.97485 0.0
H824 H 0.00525 0.37808 0.00991 0.0
H825 H 0.96323 0.38496 0.01051 0.0
H826 H 0.99145 0.40704 0.99699 0.0
H827 H 0.96505 0.42759 0.87878 0.0
H828 H 0.90659 0.4294 0.88588 0.0
H829 H 0.91418 0.38238 0.96771 0.0
C830 C 0.04297 0.37407 0.94776 0.0
C831 C 0.06654 0.37956 0.92496 0.0
C832 C 0.0589 0.3945 0.89887 0.0
C833 C 0.02823 0.40418 0.89564 0.0
C834 C 0.00542 0.39844 0.91848 0.0
C835 C 0.01221 0.3834 0.94373 0.0
C836 C 0.98254 0.37809 0.96303 0.0
C837 C 0.97501 0.35117 0.96286 0.0
C838 C 0.98583 0.38762 0.99713 0.0
C839 C 0.95798 0.39223 0.94442 0.0
C840 C 0.97183 0.40431 0.9193 0.0
C841 C 0.9539 0.41825 0.89841 0.0
C842 C 0.92075 0.41927 0.90272 0.0
C843 C 0.90592 0.40601 0.9273 0.0
C844 C 0.92492 0.39273 0.94873 0.0
H845 H 0.56617 0.60182 0.42533 0.0
H846 H 0.58899 0.67114 0.38491 0.0
H847 H 0.53161 0.6794 0.37743 0.0
H848 H 0.49707 0.58875 0.37592 0.0
H849 H 0.47483 0.57536 0.40801 0.0
H850 H 0.5178 0.57409 0.40806 0.0
H851 H 0.51881 0.59385 0.46373 0.0
H852 H 0.47588 0.5952 0.46384 0.0
H853 H 0.49884 0.62207 0.46962 0.0
H854 H 0.47208 0.68024 0.3744 0.0
H855 H 0.41385 0.67495 0.37985 0.0
H856 H 0.42946 0.60625 0.42548 0.0
C857 C 0.55903 0.61859 0.41456 0.0
C858 C 0.58192 0.63578 0.40544 0.0
C859 C 0.57176 0.65775 0.39204 0.0
C860 C 0.53927 0.66256 0.38757 0.0
C861 C 0.51726 0.64534 0.39702 0.0
C862 C 0.52662 0.62389 0.41051 0.0
C863 C 0.49801 0.60913 0.42041 0.0
C864 C 0.49687 0.58543 0.40199 0.0
C865 C 0.49789 0.60482 0.45654 0.0
C866 C 0.47116 0.62568 0.41047 0.0
C867 C 0.4828 0.6463 0.39661 0.0
C868 C 0.46263 0.66419 0.38527 0.0
C869 C 0.42962 0.66101 0.38841 0.0
C870 C 0.41717 0.64026 0.40322 0.0
C871 C 0.4383 0.62238 0.41427 0.0
H872 H 0.28723 0.15149 0.17645 0.0
H873 H 0.29734 0.0751 0.16097 0.0
H874 H 0.27957 0.0675 0.21598 0.0
H875 H 0.31301 0.15157 0.25993 0.0
H876 H 0.28438 0.17417 0.27093 0.0
H877 H 0.3006 0.17369 0.23125 0.0
H878 H 0.24338 0.17191 0.20796 0.0
H879 H 0.22703 0.17244 0.24749 0.0
H880 H 0.21669 0.14854 0.22074 0.0
H881 H 0.25675 0.06808 0.27119 0.0
H882 H 0.22979 0.07688 0.32207 0.0
H883 H 0.23526 0.15284 0.30125 0.0
C884 C 0.28613 0.13316 0.1847 0.0
C885 C 0.29372 0.11391 0.16438 0.0
C886 C 0.29168 0.09018 0.17609 0.0
C887 C 0.28172 0.08566 0.20734 0.0
C888 C 0.27411 0.10506 0.22663 0.0
C889 C 0.27628 0.12834 0.21578 0.0
C890 C 0.26499 0.14593 0.24063 0.0
C891 C 0.29238 0.1623 0.25132 0.0
C892 C 0.23632 0.16055 0.22847 0.0
C893 C 0.25532 0.12887 0.26683 0.0
C894 C 0.26106 0.10539 0.25846 0.0
C895 C 0.25248 0.08642 0.27819 0.0
C896 C 0.23715 0.09159 0.30702 0.0
C897 C 0.23047 0.11555 0.31573 0.0
C898 C 0.24028 0.13435 0.29551 0.0
H899 H 0.28364 0.89344 0.80549 0.0
H900 H 0.31982 0.82068 0.80543 0.0
H901 H 0.30285 0.81602 0.7497 0.0
H902 H 0.21398 0.88079 0.76215 0.0
H903 H 0.21356 0.90849 0.74021 0.0
H904 H 0.23185 0.90724 0.77886 0.0
H905 H 0.28467 0.92334 0.75502 0.0
H906 H 0.26652 0.92459 0.71621 0.0
H907 H 0.30291 0.90794 0.72206 0.0
H908 H 0.27959 0.81814 0.69589 0.0
H909 H 0.24799 0.82579 0.64777 0.0
H910 H 0.22486 0.89687 0.68252 0.0
C911 C 0.28846 0.8767 0.79351 0.0
C912 C 0.30322 0.85746 0.80962 0.0
C913 C 0.30853 0.83563 0.79348 0.0
C914 C 0.29918 0.83286 0.76179 0.0
C915 C 0.28442 0.85205 0.74666 0.0
C916 C 0.27887 0.87351 0.76194 0.0
C917 C 0.26006 0.89051 0.74099 0.0
C918 C 0.22796 0.89713 0.75648 0.0
C919 C 0.27972 0.91292 0.73311 0.0
C920 C 0.25537 0.87503 0.71185 0.0
C921 C 0.27011 0.85309 0.71553 0.0
C922 C 0.26812 0.83531 0.69257 0.0
C923 C 0.25002 0.83985 0.66533 0.0
C924 C 0.23387 0.86194 0.66134 0.0
C925 C 0.23714 0.87991 0.68471 0.0
H926 H 0.71603 0.83663 0.83084 0.0
H927 H 0.71586 0.91292 0.84935 0.0
H928 H 0.73331 0.92043 0.79392 0.0
H929 H 0.78608 0.83591 0.78339 0.0
H930 H 0.77151 0.81307 0.75697 0.0
H931 H 0.75768 0.81414 0.79744 0.0
H932 H 0.69916 0.81615 0.77758 0.0
H933 H 0.71283 0.81518 0.73701 0.0
H934 H 0.68755 0.83933 0.75009 0.0
H935 H 0.7512 0.91914 0.7358 0.0
H936 H 0.77112 0.90904 0.68195 0.0
H937 H 0.76043 0.83361 0.70355 0.0
C938 C 0.71947 0.85496 0.82327 0.0
C939 C 0.71446 0.87421 0.84435 0.0
C940 C 0.71957 0.8979 0.83356 0.0
C941 C 0.72935 0.90233 0.80211 0.0
C942 C 0.73401 0.88287 0.78192 0.0
C943 C 0.7294 0.85966 0.79223 0.0
C944 C 0.73713 0.84174 0.76651 0.0
C945 C 0.76475 0.82526 0.77669 0.0
C946 C 0.70739 0.82725 0.75725 0.0
C947 C 0.7471 0.85843 0.74007 0.0
C948 C 0.74485 0.88211 0.74915 0.0
C949 C 0.75303 0.90065 0.72848 0.0
C950 C 0.76421 0.89476 0.69794 0.0
C951 C 0.7674 0.87056 0.68864 0.0
C952 C 0.75838 0.85229 0.70998 0.0
H953 H 0.78024 0.12219 0.28983 0.0
H954 H 0.71319 0.16262 0.34674 0.0
H955 H 0.67624 0.16497 0.30102 0.0
H956 H 0.7722 0.15573 0.22237 0.0
H957 H 0.77534 0.13166 0.1941 0.0
H958 H 0.7936 0.1288 0.23257 0.0
H959 H 0.76207 0.08977 0.24292 0.0
H960 H 0.74385 0.09238 0.20424 0.0
H961 H 0.71921 0.08983 0.23922 0.0
H962 H 0.65116 0.16859 0.24814 0.0
H963 H 0.63852 0.17269 0.19119 0.0
H964 H 0.7214 0.12972 0.16738 0.0
C965 C 0.75716 0.13064 0.2928 0.0
C966 C 0.74889 0.14172 0.32172 0.0
C967 C 0.71933 0.15362 0.32478 0.0
C968 C 0.6983 0.15501 0.299 0.0
C969 C 0.70735 0.14443 0.2704 0.0
C970 C 0.73595 0.13229 0.26713 0.0
C971 C 0.74149 0.12496 0.23286 0.0
C972 C 0.77248 0.13596 0.21972 0.0
C973 C 0.74165 0.0976 0.22963 0.0
C974 C 0.71227 0.13579 0.21721 0.0
C975 C 0.69271 0.14663 0.23942 0.0
C976 C 0.66587 0.15974 0.23058 0.0
C977 C 0.659 0.16208 0.19817 0.0
C978 C 0.67885 0.15136 0.17496 0.0
C979 C 0.70546 0.13766 0.18468 0.0
H980 H 0.72542 0.59937 0.31918 0.0
H981 H 0.76765 0.6604 0.36685 0.0
H982 H 0.8006 0.66853 0.31961 0.0
H983 H 0.79827 0.58152 0.27316 0.0
H984 H 0.775 0.57358 0.23874 0.0
H985 H 0.75826 0.57027 0.27799 0.0
H986 H 0.71024 0.59668 0.26137 0.0
H987 H 0.72696 0.60032 0.22228 0.0
H988 H 0.7174 0.62625 0.24583 0.0
H989 H 0.82342 0.67339 0.26581 0.0
H990 H 0.83697 0.67355 0.20884 0.0
H991 H 0.78044 0.60933 0.19536 0.0
C992 C 0.74233 0.61398 0.32 0.0
C993 C 0.74408 0.6292 0.34672 0.0
C994 C 0.76592 0.64851 0.34663 0.0
C995 C 0.78482 0.65324 0.31996 0.0
C996 C 0.78172 0.63844 0.2936 0.0
C997 C 0.7613 0.61905 0.29343 0.0
C998 C 0.76063 0.60724 0.26103 0.0
C999 C 0.77384 0.58163 0.26285 0.0
C1000 C 0.7268 0.60767 0.2468 0.0
C1001 C 0.78301 0.62353 0.24284 0.0
C1002 C 0.7951 0.64126 0.2622 0.0
C1003 C 0.81458 0.65937 0.25047 0.0
C1004 C 0.82195 0.65939 0.21803 0.0
C1005 C 0.80985 0.64141 0.19766 0.0
C1006 C 0.79037 0.62314 0.21039 0.0
H1007 H 0.70723 0.39868 0.69578 0.0
H1008 H 0.72715 0.32314 0.68181 0.0
H1009 H 0.74966 0.32074 0.73563 0.0
H1010 H 0.77891 0.41158 0.74145 0.0
H1011 H 0.75894 0.43231 0.76753 0.0
H1012 H 0.74498 0.42838 0.72739 0.0
H1013 H 0.68858 0.41825 0.74878 0.0
H1014 H 0.70244 0.42193 0.789 0.0
H1015 H 0.6839 0.3943 0.77712 0.0
H1016 H 0.76808 0.32572 0.79115 0.0
H1017 H 0.78475 0.33861 0.84453 0.0
H1018 H 0.75373 0.41102 0.82295 0.0
C1019 C 0.71659 0.38171 0.70392 0.0
C1020 C 0.71533 0.36112 0.68451 0.0
C1021 C 0.72776 0.3392 0.69617 0.0
C1022 C 0.74058 0.33759 0.72676 0.0
C1023 C 0.74094 0.35806 0.74544 0.0
C1024 C 0.72958 0.37976 0.73448 0.0
C1025 C 0.73282 0.39896 0.75962 0.0
C1026 C 0.75525 0.41899 0.74832 0.0
C1027 C 0.69998 0.40894 0.76919 0.0
C1028 C 0.74762 0.38457 0.78638 0.0
C1029 C 0.75196 0.36101 0.77766 0.0
C1030 C 0.76497 0.34416 0.79829 0.0
C1031 C 0.77427 0.35166 0.82861 0.0
C1032 C 0.77061 0.37584 0.83797 0.0
C1033 C 0.75685 0.39241 0.81655 0.0
H1034 H 0.24446 0.32551 0.67722 0.0
H1035 H 0.27922 0.39815 0.66767 0.0
H1036 H 0.2594 0.40734 0.72185 0.0
H1037 H 0.17193 0.3409 0.7204 0.0
H1038 H 0.17358 0.3143 0.74458 0.0
H1039 H 0.18991 0.31402 0.70497 0.0
H1040 H 0.24426 0.29971 0.7275 0.0
H1041 H 0.22822 0.30017 0.7672 0.0
H1042 H 0.26367 0.31702 0.75798 0.0
H1043 H 0.23944 0.40717 0.77921 0.0
H1044 H 0.21545 0.39911 0.83208 0.0
H1045 H 0.19128 0.32735 0.80162 0.0
C1046 C 0.24766 0.34342 0.68641 0.0
C1047 C 0.26344 0.36112 0.66842 0.0
C1048 C 0.26702 0.38439 0.68111 0.0
C1049 C 0.256 0.38971 0.71187 0.0
C1050 C 0.24104 0.37166 0.72926 0.0
C1051 C 0.23636 0.34912 0.71669 0.0
C1052 C 0.21932 0.33289 0.73989 0.0
C1053 C 0.18675 0.32508 0.72667 0.0
C1054 C 0.24012 0.31117 0.74866 0.0
C1055 C 0.21551 0.34968 0.76775 0.0
C1056 C 0.22842 0.3719 0.76139 0.0
C1057 C 0.22889 0.38993 0.78427 0.0
C1058 C 0.21541 0.38517 0.81423 0.0
C1059 C 0.20133 0.3627 0.82074 0.0
C1060 C 0.20152 0.34481 0.79716 0.0
H1061 H 0.2627 0.6643 0.30092 0.0
H1062 H 0.28272 0.58968 0.32092 0.0
H1063 H 0.26139 0.57865 0.26797 0.0
H1064 H 0.1883 0.65417 0.25843 0.0
H1065 H 0.19561 0.67822 0.23083 0.0
H1066 H 0.21142 0.67972 0.27058 0.0
H1067 H 0.26831 0.68571 0.24767 0.0
H1068 H 0.25274 0.68408 0.20787 0.0
H1069 H 0.2842 0.66409 0.22012 0.0
H1070 H 0.2414 0.57659 0.21063 0.0
H1071 H 0.22065 0.58331 0.15613 0.0
H1072 H 0.21203 0.65911 0.1761 0.0
C1073 C 0.2624 0.6456 0.2943 0.0
C1074 C 0.27446 0.62783 0.31488 0.0
C1075 C 0.27347 0.60355 0.30547 0.0
C1076 C 0.2615 0.59715 0.27544 0.0
C1077 C 0.25025 0.61523 0.25547 0.0
C1078 C 0.25021 0.63891 0.26478 0.0
C1079 C 0.23695 0.65504 0.23914 0.0
C1080 C 0.20624 0.66751 0.25042 0.0
C1081 C 0.26205 0.6733 0.22805 0.0
C1082 C 0.23001 0.63682 0.21361 0.0
C1083 C 0.23791 0.61394 0.22329 0.0
C1084 C 0.23479 0.59439 0.20297 0.0
C1085 C 0.22312 0.59838 0.17207 0.0
C1086 C 0.21452 0.62168 0.16202 0.0
C1087 C 0.21801 0.64103 0.1832 0.0
loop_
_geom_bond_atom_site_label_1
_geom_bond_atom_site_label_2
_geom_bond_distance
_geom_bond_site_symmetry_2
_ccdc_geom_bond_type
O0 Cd1 2.223 . S
O0 C8 1.315 . S
Cd1 O0 2.223 . S
Cd1 O4 2.297 . S
Cd1 O5 2.439 . S
Cd1 O11 2.240 . S
Cd2 O3 2.240 . S
Cd2 O10 2.223 . S
Cd2 O12 2.297 . S
Cd2 O13 2.439 . S
O3 Cd2 2.240 . S
O3 C8 1.279 . S
O4 Cd1 2.297 . S
O4 C6 1.247 . S
O5 Cd1 2.439 . S
O5 C6 1.208 . S
C6 O4 1.247 . S
C6 O5 1.208 . S
C7 O12 1.247 . S
C7 O13 1.208 . S
C8 O0 1.315 . S
C8 O3 1.279 . S
C9 O10 1.315 . S
C9 O11 1.279 . S
O10 Cd2 2.223 . S
O10 C9 1.315 . S
O11 Cd1 2.240 . S
O11 C9 1.279 . S
O12 Cd2 2.297 . S
O12 C7 1.247 . S
O13 Cd2 2.439 . S
O13 C7 1.208 . S
O14 Cd15 2.223 . S
O14 C22 1.315 . S
Cd15 O14 2.223 . S
Cd15 O18 2.297 . S
Cd15 O19 2.439 . S
Cd15 O25 2.240 . S
Cd16 O17 2.240 . S
Cd16 O24 2.223 . S
Cd16 O26 2.297 . S
Cd16 O27 2.439 . S
O17 Cd16 2.240 . S
O17 C22 1.279 . S
O18 Cd15 2.297 . S
O18 C20 1.247 . S
O19 Cd15 2.439 . S
O19 C20 1.208 . S
C20 O18 1.247 . S
C20 O19 1.208 . S
C21 O26 1.247 . S
C21 O27 1.208 . S
C22 O14 1.315 . S
C22 O17 1.279 . S
C23 O24 1.315 . S
C23 O25 1.279 . S
O24 Cd16 2.223 . S
O24 C23 1.315 . S
O25 Cd15 2.240 . S
O25 C23 1.279 . S
O26 Cd16 2.297 . S
O26 C21 1.247 . S
O27 Cd16 2.439 . S
O27 C21 1.208 . S
O28 Cd29 2.223 . S
O28 C36 1.315 . S
Cd29 O28 2.223 . S
Cd29 O32 2.297 . S
Cd29 O33 2.439 . S
Cd29 O39 2.240 . S
Cd30 O31 2.240 . S
Cd30 O38 2.223 . S
Cd30 O40 2.297 . S
Cd30 O41 2.439 . S
O31 Cd30 2.240 . S
O31 C36 1.279 . S
O32 Cd29 2.297 . S
O32 C34 1.247 . S
O33 Cd29 2.439 . S
O33 C34 1.208 . S
C34 O32 1.247 . S
C34 O33 1.208 . S
C35 O40 1.247 . S
C35 O41 1.208 . S
C36 O28 1.315 . S
C36 O31 1.279 . S
C37 O38 1.315 . S
C37 O39 1.279 . S
O38 Cd30 2.223 . S
O38 C37 1.315 . S
O39 Cd29 2.240 . S
O39 C37 1.279 . S
O40 Cd30 2.297 . S
O40 C35 1.247 . S
O41 Cd30 2.439 . S
O41 C35 1.208 . S
O42 Cd43 2.223 . S
O42 C50 1.315 . S
Cd43 O42 2.223 . S
Cd43 O46 2.297 . S
Cd43 O47 2.439 . S
Cd43 O53 2.240 . S
Cd44 O45 2.240 . S
Cd44 O52 2.223 . S
Cd44 O54 2.297 . S
Cd44 O55 2.439 . S
O45 Cd44 2.240 . S
O45 C50 1.279 . S
O46 Cd43 2.297 . S
O46 C48 1.247 . S
O47 Cd43 2.439 . S
O47 C48 1.208 . S
C48 O46 1.247 . S
C48 O47 1.208 . S
C49 O54 1.247 . S
C49 O55 1.208 . S
C50 O42 1.315 . S
C50 O45 1.279 . S
C51 O52 1.315 . S
C51 O53 1.279 . S
O52 Cd44 2.223 . S
O52 C51 1.315 . S
O53 Cd43 2.240 . S
O53 C51 1.279 . S
O54 Cd44 2.297 . S
O54 C49 1.247 . S
O55 Cd44 2.439 . S
O55 C49 1.208 . S
O56 Cd57 2.223 . S
O56 C64 1.315 . S
Cd57 O56 2.223 . S
Cd57 O60 2.297 . S
Cd57 O61 2.439 . S
Cd57 O67 2.240 . S
Cd58 O59 2.240 . S
Cd58 O66 2.223 . S
Cd58 O68 2.297 . S
Cd58 O69 2.439 . S
O59 Cd58 2.240 . S
O59 C64 1.279 . S
O60 Cd57 2.297 . S
O60 C62 1.247 . S
O61 Cd57 2.439 . S
O61 C62 1.208 . S
C62 O60 1.247 . S
C62 O61 1.208 . S
C63 O68 1.247 . S
C63 O69 1.208 . S
C64 O56 1.315 . S
C64 O59 1.279 . S
C65 O66 1.315 . S
C65 O67 1.279 . S
O66 Cd58 2.223 . S
O66 C65 1.315 . S
O67 Cd57 2.240 . S
O67 C65 1.279 . S
O68 Cd58 2.297 . S
O68 C63 1.247 . S
O69 Cd58 2.439 . S
O69 C63 1.208 . S
O70 Cd71 2.223 . S
O70 C78 1.315 . S
Cd71 O70 2.223 . S
Cd71 O74 2.297 . S
Cd71 O75 2.439 . S
Cd71 O81 2.240 . S
Cd72 O73 2.240 . S
Cd72 O80 2.223 . S
Cd72 O82 2.297 . S
Cd72 O83 2.439 . S
O73 Cd72 2.240 . S
O73 C78 1.279 . S
O74 Cd71 2.297 . S
O74 C76 1.247 . S
O75 Cd71 2.439 . S
O75 C76 1.208 . S
C76 O74 1.247 . S
C76 O75 1.208 . S
C77 O82 1.247 . S
C77 O83 1.208 . S
C78 O70 1.315 . S
C78 O73 1.279 . S
C79 O80 1.315 . S
C79 O81 1.279 . S
O80 Cd72 2.223 . S
O80 C79 1.315 . S
O81 Cd71 2.240 . S
O81 C79 1.279 . S
O82 Cd72 2.297 . S
O82 C77 1.247 . S
O83 Cd72 2.439 . S
O83 C77 1.208 . S
O84 Cd85 2.223 . S
O84 C92 1.315 . S
Cd85 O84 2.223 . S
Cd85 O88 2.297 . S
Cd85 O89 2.439 . S
Cd85 O95 2.240 . S
Cd86 O87 2.240 . S
Cd86 O94 2.223 . S
Cd86 O96 2.297 . S
Cd86 O97 2.439 . S
O87 Cd86 2.240 . S
O87 C92 1.279 . S
O88 Cd85 2.297 . S
O88 C90 1.247 . S
O89 Cd85 2.439 . S
O89 C90 1.208 . S
C90 O88 1.247 . S
C90 O89 1.208 . S
C91 O96 1.247 . S
C91 O97 1.208 . S
C92 O84 1.315 . S
C92 O87 1.279 . S
C93 O94 1.315 . S
C93 O95 1.279 . S
O94 Cd86 2.223 . S
O94 C93 1.315 . S
O95 Cd85 2.240 . S
O95 C93 1.279 . S
O96 Cd86 2.297 . S
O96 C91 1.247 . S
O97 Cd86 2.439 . S
O97 C91 1.208 . S
O98 Cd99 2.223 . S
O98 C106 1.315 . S
Cd99 O98 2.223 . S
Cd99 O102 2.297 . S
Cd99 O103 2.439 . S
Cd99 O109 2.240 . S
Cd100 O101 2.240 . S
Cd100 O108 2.223 . S
Cd100 O110 2.297 . S
Cd100 O111 2.439 . S
O101 Cd100 2.240 . S
O101 C106 1.279 . S
O102 Cd99 2.297 . S
O102 C104 1.247 . S
O103 Cd99 2.439 . S
O103 C104 1.208 . S
C104 O102 1.247 . S
C104 O103 1.208 . S
C105 O110 1.247 . S
C105 O111 1.208 . S
C106 O98 1.315 . S
C106 O101 1.279 . S
C107 O108 1.315 . S
C107 O109 1.279 . S
O108 Cd100 2.223 . S
O108 C107 1.315 . S
O109 Cd99 2.240 . S
O109 C107 1.279 . S
O110 Cd100 2.297 . S
O110 C105 1.247 . S
O111 Cd100 2.439 . S
O111 C105 1.208 . S
O112 Cd113 2.223 . S
O112 C120 1.315 . S
Cd113 O112 2.223 . S
Cd113 O116 2.297 . S
Cd113 O117 2.439 . S
Cd113 O123 2.240 . S
Cd114 O115 2.240 . S
Cd114 O122 2.223 . S
Cd114 O124 2.297 . S
Cd114 O125 2.439 . S
O115 Cd114 2.240 . S
O115 C120 1.279 . S
O116 Cd113 2.297 . S
O116 C118 1.247 . S
O117 Cd113 2.439 . S
O117 C118 1.208 . S
C118 O116 1.247 . S
C118 O117 1.208 . S
C119 O124 1.247 . S
C119 O125 1.208 . S
C120 O112 1.315 . S
C120 O115 1.279 . S
C121 O122 1.315 . S
C121 O123 1.279 . S
O122 Cd114 2.223 . S
O122 C121 1.315 . S
O123 Cd113 2.240 . S
O123 C121 1.279 . S
O124 Cd114 2.297 . S
O124 C119 1.247 . S
O125 Cd114 2.439 . S
O125 C119 1.208 . S
O126 Cd127 2.223 . S
O126 C134 1.315 . S
Cd127 O126 2.223 . S
Cd127 O130 2.297 . S
Cd127 O131 2.439 . S
Cd127 O137 2.240 . S
Cd128 O129 2.240 . S
Cd128 O136 2.223 . S
Cd128 O138 2.297 . S
Cd128 O139 2.439 . S
O129 Cd128 2.240 . S
O129 C134 1.279 . S
O130 Cd127 2.297 . S
O130 C132 1.247 . S
O131 Cd127 2.439 . S
O131 C132 1.208 . S
C132 O130 1.247 . S
C132 O131 1.208 . S
C133 O138 1.247 . S
C133 O139 1.208 . S
C134 O126 1.315 . S
C134 O129 1.279 . S
C135 O136 1.315 . S
C135 O137 1.279 . S
O136 Cd128 2.223 . S
O136 C135 1.315 . S
O137 Cd127 2.240 . S
O137 C135 1.279 . S
O138 Cd128 2.297 . S
O138 C133 1.247 . S
O139 Cd128 2.439 . S
O139 C133 1.208 . S
O140 Cd141 2.223 . S
O140 C148 1.315 . S
Cd141 O140 2.223 . S
Cd141 O144 2.297 . S
Cd141 O145 2.439 . S
Cd141 O151 2.240 . S
Cd142 O143 2.240 . S
Cd142 O150 2.223 . S
Cd142 O152 2.297 . S
Cd142 O153 2.439 . S
O143 Cd142 2.240 . S
O143 C148 1.279 . S
O144 Cd141 2.297 . S
O144 C146 1.247 . S
O145 Cd141 2.439 . S
O145 C146 1.208 . S
C146 O144 1.247 . S
C146 O145 1.208 . S
C147 O152 1.247 . S
C147 O153 1.208 . S
C148 O140 1.315 . S
C148 O143 1.279 . S
C149 O150 1.315 . S
C149 O151 1.279 . S
O150 Cd142 2.223 . S
O150 C149 1.315 . S
O151 Cd141 2.240 . S
O151 C149 1.279 . S
O152 Cd142 2.297 . S
O152 C147 1.247 . S
O153 Cd142 2.439 . S
O153 C147 1.208 . S
O154 Cd155 2.223 . S
O154 C162 1.315 . S
Cd155 O154 2.223 . S
Cd155 O158 2.297 . S
Cd155 O159 2.439 . S
Cd155 O165 2.240 . S
Cd156 O157 2.240 . S
Cd156 O164 2.223 . S
Cd156 O166 2.297 . S
Cd156 O167 2.439 . S
O157 Cd156 2.240 . S
O157 C162 1.279 . S
O158 Cd155 2.297 . S
O158 C160 1.247 . S
O159 Cd155 2.439 . S
O159 C160 1.208 . S
C160 O158 1.247 . S
C160 O159 1.208 . S
C161 O166 1.247 . S
C161 O167 1.208 . S
C162 O154 1.315 . S
C162 O157 1.279 . S
C163 O164 1.315 . S
C163 O165 1.279 . S
O164 Cd156 2.223 . S
O164 C163 1.315 . S
O165 Cd155 2.240 . S
O165 C163 1.279 . S
O166 Cd156 2.297 . S
O166 C161 1.247 . S
O167 Cd156 2.439 . S
O167 C161 1.208 . S
O168 Cd169 2.223 . S
O168 C176 1.315 . S
Cd169 O168 2.223 . S
Cd169 O172 2.297 . S
Cd169 O173 2.439 . S
Cd169 O179 2.240 . S
Cd170 O171 2.240 . S
Cd170 O178 2.223 . S
Cd170 O180 2.297 . S
Cd170 O181 2.439 . S
O171 Cd170 2.240 . S
O171 C176 1.279 . S
O172 Cd169 2.297 . S
O172 C174 1.247 . S
O173 Cd169 2.439 . S
O173 C174 1.208 . S
C174 O172 1.247 . S
C174 O173 1.208 . S
C175 O180 1.247 . S
C175 O181 1.208 . S
C176 O168 1.315 . S
C176 O171 1.279 . S
C177 O178 1.315 . S
C177 O179 1.279 . S
O178 Cd170 2.223 . S
O178 C177 1.315 . S
O179 Cd169 2.240 . S
O179 C177 1.279 . S
O180 Cd170 2.297 . S
O180 C175 1.247 . S
O181 Cd170 2.439 . S
O181 C175 1.208 . S
O182 Cd183 2.223 . S
O182 C190 1.315 . S
Cd183 O182 2.223 . S
Cd183 O186 2.297 . S
Cd183 O187 2.439 . S
Cd183 O193 2.240 . S
Cd184 O185 2.240 . S
Cd184 O192 2.223 . S
Cd184 O194 2.297 . S
Cd184 O195 2.439 . S
O185 Cd184 2.240 . S
O185 C190 1.279 . S
O186 Cd183 2.297 . S
O186 C188 1.247 . S
O187 Cd183 2.439 . S
O187 C188 1.208 . S
C188 O186 1.247 . S
C188 O187 1.208 . S
C189 O194 1.247 . S
C189 O195 1.208 . S
C190 O182 1.315 . S
C190 O185 1.279 . S
C191 O192 1.315 . S
C191 O193 1.279 . S
O192 Cd184 2.223 . S
O192 C191 1.315 . S
O193 Cd183 2.240 . S
O193 C191 1.279 . S
O194 Cd184 2.297 . S
O194 C189 1.247 . S
O195 Cd184 2.439 . S
O195 C189 1.208 . S
O196 Cd197 2.223 . S
O196 C204 1.315 . S
Cd197 O196 2.223 . S
Cd197 O200 2.297 . S
Cd197 O201 2.439 . S
Cd197 O207 2.240 . S
Cd198 O199 2.240 . S
Cd198 O206 2.223 . S
Cd198 O208 2.297 . S
Cd198 O209 2.439 . S
O199 Cd198 2.240 . S
O199 C204 1.279 . S
O200 Cd197 2.297 . S
O200 C202 1.247 . S
O201 Cd197 2.439 . S
O201 C202 1.208 . S
C202 O200 1.247 . S
C202 O201 1.208 . S
C203 O208 1.247 . S
C203 O209 1.208 . S
C204 O196 1.315 . S
C204 O199 1.279 . S
C205 O206 1.315 . S
C205 O207 1.279 . S
O206 Cd198 2.223 . S
O206 C205 1.315 . S
O207 Cd197 2.240 . S
O207 C205 1.279 . S
O208 Cd198 2.297 . S
O208 C203 1.247 . S
O209 Cd198 2.439 . S
O209 C203 1.208 . S
O210 Cd211 2.223 . S
O210 C218 1.315 . S
Cd211 O210 2.223 . S
Cd211 O214 2.297 . S
Cd211 O215 2.439 . S
Cd211 O221 2.240 . S
Cd212 O213 2.240 . S
Cd212 O220 2.223 . S
Cd212 O222 2.297 . S
Cd212 O223 2.439 . S
O213 Cd212 2.240 . S
O213 C218 1.279 . S
O214 Cd211 2.297 . S
O214 C216 1.247 . S
O215 Cd211 2.439 . S
O215 C216 1.208 . S
C216 O214 1.247 . S
C216 O215 1.208 . S
C217 O222 1.247 . S
C217 O223 1.208 . S
C218 O210 1.315 . S
C218 O213 1.279 . S
C219 O220 1.315 . S
C219 O221 1.279 . S
O220 Cd212 2.223 . S
O220 C219 1.315 . S
O221 Cd211 2.240 . S
O221 C219 1.279 . S
O222 Cd212 2.297 . S
O222 C217 1.247 . S
O223 Cd212 2.439 . S
O223 C217 1.208 . S
H224 C236 0.930 . S
H225 C238 0.936 . S
H226 C239 0.930 . S
H227 C243 0.959 . S
H228 C243 0.959 . S
H229 C243 0.961 . S
H230 C244 0.960 . S
H231 C244 0.961 . S
H232 C244 0.959 . S
H233 C247 0.929 . S
H234 C248 0.931 . S
H235 C250 0.930 . S
C236 H224 0.930 . S
C236 C237 1.399 . S
C236 C241 1.399 . S
C237 C236 1.399 . S
C237 C238 1.354 1_554 S
C238 H225 0.936 . S
C238 C237 1.354 1_556 S
C238 C239 1.406 . S
C239 H226 0.930 . S
C239 C238 1.406 . S
C239 C240 1.390 . S
C240 C239 1.390 . S
C240 C241 1.394 1_556 S
C240 C246 1.465 . S
C241 C236 1.399 . S
C241 C240 1.394 1_554 S
C241 C242 1.516 . S
C242 C241 1.516 . S
C242 C243 1.502 . S
C242 C244 1.561 . S
C242 C245 1.526 1_554 S
C243 H227 0.959 . S
C243 H228 0.959 . S
C243 H229 0.961 . S
C243 C242 1.502 . S
C244 H230 0.960 . S
C244 H231 0.961 . S
C244 H232 0.959 . S
C244 C242 1.561 . S
C245 C242 1.526 1_556 S
C245 C246 1.396 . S
C245 C250 1.390 . S
C246 C240 1.465 . S
C246 C245 1.396 . S
C246 C247 1.399 . S
C247 H233 0.929 . S
C247 C246 1.399 . S
C247 C248 1.385 . S
C248 H234 0.931 . S
C248 C247 1.385 . S
C248 C249 1.389 . S
C249 C248 1.389 . S
C249 C250 1.387 . S
C250 H235 0.930 . S
C250 C245 1.390 . S
C250 C249 1.387 . S
H251 C263 0.930 . S
H252 C265 0.930 . S
H253 C266 0.930 . S
H254 C270 0.959 . S
H255 C270 0.959 . S
H256 C270 0.961 . S
H257 C271 0.960 . S
H258 C271 0.961 . S
H259 C271 0.959 . S
H260 C274 0.929 . S
H261 C275 0.931 . S
H262 C277 0.930 . S
C263 H251 0.930 . S
C263 C264 1.399 . S
C263 C268 1.399 . S
C264 C263 1.399 . S
C264 C265 1.376 . S
C265 H252 0.930 . S
C265 C264 1.376 . S
C265 C266 1.388 . S
C266 H253 0.930 . S
C266 C265 1.388 . S
C266 C267 1.390 . S
C267 C266 1.390 . S
C267 C268 1.394 . S
C267 C273 1.465 . S
C268 C263 1.399 . S
C268 C267 1.394 . S
C268 C269 1.516 . S
C269 C268 1.516 . S
C269 C270 1.502 . S
C269 C271 1.561 . S
C269 C272 1.526 . S
C270 H254 0.959 . S
C270 H255 0.959 . S
C270 H256 0.961 . S
C270 C269 1.502 . S
C271 H257 0.960 . S
C271 H258 0.961 . S
C271 H259 0.959 . S
C271 C269 1.561 . S
C272 C269 1.526 . S
C272 C273 1.396 . S
C272 C277 1.390 . S
C273 C267 1.465 . S
C273 C272 1.396 . S
C273 C274 1.399 . S
C274 H260 0.929 . S
C274 C273 1.399 . S
C274 C275 1.385 . S
C275 H261 0.931 . S
C275 C274 1.385 . S
C275 C276 1.389 . S
C276 C275 1.389 . S
C276 C277 1.387 . S
C277 H262 0.930 . S
C277 C272 1.390 . S
C277 C276 1.387 . S
H278 C290 0.930 1_554 S
H279 C292 0.930 . S
H280 C293 0.930 . S
H281 C297 0.959 . S
H282 C297 0.959 . S
H283 C297 0.961 . S
H284 C298 0.960 . S
H285 C298 0.961 . S
H286 C298 0.959 . S
H287 C301 0.929 1_556 S
H288 C302 0.931 . S
H289 C304 0.930 . S
C290 H278 0.930 1_556 S
C290 C291 1.399 . S
C290 C295 1.399 1_556 S
C291 C290 1.399 . S
C291 C292 1.376 . S
C292 H279 0.930 . S
C292 C291 1.376 . S
C292 C293 1.388 . S
C293 H280 0.930 . S
C293 C292 1.388 . S
C293 C294 1.390 . S
C294 C293 1.390 . S
C294 C295 1.394 1_556 S
C294 C300 1.465 1_556 S
C295 C290 1.399 1_554 S
C295 C294 1.394 1_554 S
C295 C296 1.516 . S
C296 C295 1.516 . S
C296 C297 1.502 . S
C296 C298 1.561 . S
C296 C299 1.526 . S
C297 H281 0.959 . S
C297 H282 0.959 . S
C297 H283 0.961 . S
C297 C296 1.502 . S
C298 H284 0.960 . S
C298 H285 0.961 . S
C298 H286 0.959 . S
C298 C296 1.561 . S
C299 C296 1.526 . S
C299 C300 1.396 . S
C299 C304 1.390 . S
C300 C294 1.465 1_554 S
C300 C299 1.396 . S
C300 C301 1.399 . S
C301 H287 0.929 1_554 S
C301 C300 1.399 . S
C301 C302 1.385 . S
C302 H288 0.931 . S
C302 C301 1.385 . S
C302 C303 1.389 . S
C303 C302 1.389 . S
C303 C304 1.387 . S
C304 H289 0.930 . S
C304 C299 1.390 . S
C304 C303 1.387 . S
H305 C317 0.930 . S
H306 C319 0.930 . S
H307 C320 0.930 . S
H308 C324 0.959 . S
H309 C324 0.959 . S
H310 C324 0.961 . S
H311 C325 0.960 . S
H312 C325 0.961 . S
H313 C325 0.959 . S
H314 C328 0.929 . S
H315 C329 0.931 . S
H316 C331 0.930 . S
C317 H305 0.930 . S
C317 C318 1.399 . S
C317 C322 1.399 . S
C318 C317 1.399 . S
C318 C319 1.376 . S
C319 H306 0.930 . S
C319 C318 1.376 . S
C319 C320 1.388 . S
C320 H307 0.930 . S
C320 C319 1.388 . S
C320 C321 1.390 . S
C321 C320 1.390 . S
C321 C322 1.394 . S
C321 C327 1.465 . S
C322 C317 1.399 . S
C322 C321 1.394 . S
C322 C323 1.516 . S
C323 C322 1.516 . S
C323 C324 1.502 . S
C323 C325 1.561 . S
C323 C326 1.526 . S
C324 H308 0.959 . S
C324 H309 0.959 . S
C324 H310 0.961 . S
C324 C323 1.502 . S
C325 H311 0.960 . S
C325 H312 0.961 . S
C325 H313 0.959 . S
C325 C323 1.561 . S
C326 C323 1.526 . S
C326 C327 1.396 . S
C326 C331 1.390 . S
C327 C321 1.465 . S
C327 C326 1.396 . S
C327 C328 1.399 . S
C328 H314 0.929 . S
C328 C327 1.399 . S
C328 C329 1.385 . S
C329 H315 0.931 . S
C329 C328 1.385 . S
C329 C330 1.389 . S
C330 C329 1.389 . S
C330 C331 1.387 . S
C331 H316 0.930 . S
C331 C326 1.390 . S
C331 C330 1.387 . S
H332 C344 0.942 . S
H333 C346 0.930 . S
H334 C347 0.930 . S
H335 C351 0.959 . S
H336 C351 0.959 . S
H337 C351 0.961 . S
H338 C352 0.960 . S
H339 C352 0.961 . S
H340 C352 0.959 . S
H341 C355 0.938 . S
H342 C356 0.931 . S
H343 C358 0.930 . S
C344 H332 0.942 . S
C344 C345 1.380 1_556 S
C344 C349 1.406 . S
C345 C344 1.380 1_554 S
C345 C346 1.376 . S
C346 H333 0.930 . S
C346 C345 1.376 . S
C346 C347 1.388 . S
C347 H334 0.930 . S
C347 C346 1.388 . S
C347 C348 1.390 . S
C348 C347 1.390 . S
C348 C349 1.394 1_554 S
C348 C354 1.465 1_554 S
C349 C344 1.406 . S
C349 C348 1.394 1_556 S
C349 C350 1.516 . S
C350 C349 1.516 . S
C350 C351 1.502 . S
C350 C352 1.561 . S
C350 C353 1.526 . S
C351 H335 0.959 . S
C351 H336 0.959 . S
C351 H337 0.961 . S
C351 C350 1.502 . S
C352 H338 0.960 . S
C352 H339 0.961 . S
C352 H340 0.959 . S
C352 C350 1.561 . S
C353 C350 1.526 . S
C353 C354 1.396 . S
C353 C358 1.390 . S
C354 C348 1.465 1_556 S
C354 C353 1.396 . S
C354 C355 1.396 1_556 S
C355 H341 0.938 . S
C355 C354 1.396 1_554 S
C355 C356 1.379 1_554 S
C356 H342 0.931 . S
C356 C355 1.379 1_556 S
C356 C357 1.389 . S
C357 C356 1.389 . S
C357 C358 1.387 . S
C358 H343 0.930 . S
C358 C353 1.390 . S
C358 C357 1.387 . S
H359 C371 0.930 . S
H360 C373 0.930 . S
H361 C374 0.930 . S
H362 C378 0.959 . S
H363 C378 0.959 . S
H364 C378 0.961 . S
H365 C379 0.960 . S
H366 C379 0.961 . S
H367 C379 0.959 . S
H368 C382 0.929 . S
H369 C383 0.931 . S
H370 C385 0.930 . S
C371 H359 0.930 . S
C371 C372 1.399 . S
C371 C376 1.399 . S
C372 C371 1.399 . S
C372 C373 1.376 . S
C373 H360 0.930 . S
C373 C372 1.376 . S
C373 C374 1.388 . S
C374 H361 0.930 . S
C374 C373 1.388 . S
C374 C375 1.390 . S
C375 C374 1.390 . S
C375 C376 1.394 . S
C375 C381 1.465 . S
C376 C371 1.399 . S
C376 C375 1.394 . S
C376 C377 1.516 . S
C377 C376 1.516 . S
C377 C378 1.502 . S
C377 C379 1.561 . S
C377 C380 1.526 . S
C378 H362 0.959 . S
C378 H363 0.959 . S
C378 H364 0.961 . S
C378 C377 1.502 . S
C379 H365 0.960 . S
C379 H366 0.961 . S
C379 H367 0.959 . S
C379 C377 1.561 . S
C380 C377 1.526 . S
C380 C381 1.396 . S
C380 C385 1.390 . S
C381 C375 1.465 . S
C381 C380 1.396 . S
C381 C382 1.399 . S
C382 H368 0.929 . S
C382 C381 1.399 . S
C382 C383 1.385 . S
C383 H369 0.931 . S
C383 C382 1.385 . S
C383 C384 1.389 . S
C384 C383 1.389 . S
C384 C385 1.387 . S
C385 H370 0.930 . S
C385 C380 1.390 . S
C385 C384 1.387 . S
H386 C398 0.934 . S
H387 C400 0.930 . S
H388 C401 0.930 . S
H389 C405 0.959 . S
H390 C405 0.959 . S
H391 C405 0.961 . S
H392 C406 0.960 . S
H393 C406 0.961 . S
H394 C406 0.959 . S
H395 C409 0.910 1_556 S
H396 C410 0.931 . S
H397 C412 0.930 . S
C398 H386 0.934 . S
C398 C399 1.392 1_554 S
C398 C403 1.402 . S
C399 C398 1.392 1_556 S
C399 C400 1.376 . S
C400 H387 0.930 . S
C400 C399 1.376 . S
C400 C401 1.388 . S
C401 H388 0.930 . S
C401 C400 1.388 . S
C401 C402 1.390 . S
C402 C401 1.390 . S
C402 C403 1.394 1_556 S
C402 C408 1.465 1_556 S
C403 C398 1.402 . S
C403 C402 1.394 1_554 S
C403 C404 1.516 . S
C404 C403 1.516 . S
C404 C405 1.502 . S
C404 C406 1.561 . S
C404 C407 1.526 . S
C405 H389 0.959 . S
C405 H390 0.959 . S
C405 H391 0.961 . S
C405 C404 1.502 . S
C406 H392 0.960 . S
C406 H393 0.961 . S
C406 H394 0.959 . S
C406 C404 1.561 . S
C407 C404 1.526 . S
C407 C408 1.396 . S
C407 C412 1.390 . S
C408 C402 1.465 1_554 S
C408 C407 1.396 . S
C408 C409 1.405 . S
C409 H395 0.910 1_554 S
C409 C408 1.405 . S
C409 C410 1.399 . S
C410 H396 0.931 . S
C410 C409 1.399 . S
C410 C411 1.389 . S
C411 C410 1.389 . S
C411 C412 1.387 . S
C412 H397 0.930 . S
C412 C407 1.390 . S
C412 C411 1.387 . S
H413 C425 0.930 . S
H414 C427 0.930 . S
H415 C428 0.930 . S
H416 C432 0.959 . S
H417 C432 0.959 . S
H418 C432 0.961 . S
H419 C433 0.960 . S
H420 C433 0.961 . S
H421 C433 0.959 . S
H422 C436 0.929 . S
H423 C437 0.931 . S
H424 C439 0.930 . S
C425 H413 0.930 . S
C425 C426 1.399 . S
C425 C430 1.399 . S
C426 C425 1.399 . S
C426 C427 1.376 . S
C427 H414 0.930 . S
C427 C426 1.376 . S
C427 C428 1.388 . S
C428 H415 0.930 . S
C428 C427 1.388 . S
C428 C429 1.390 . S
C429 C428 1.390 . S
C429 C430 1.394 . S
C429 C435 1.465 . S
C430 C425 1.399 . S
C430 C429 1.394 . S
C430 C431 1.516 . S
C431 C430 1.516 . S
C431 C432 1.502 . S
C431 C433 1.561 . S
C431 C434 1.526 . S
C432 H416 0.959 . S
C432 H417 0.959 . S
C432 H418 0.961 . S
C432 C431 1.502 . S
C433 H419 0.960 . S
C433 H420 0.961 . S
C433 H421 0.959 . S
C433 C431 1.561 . S
C434 C431 1.526 . S
C434 C435 1.396 . S
C434 C439 1.390 . S
C435 C429 1.465 . S
C435 C434 1.396 . S
C435 C436 1.399 . S
C436 H422 0.929 . S
C436 C435 1.399 . S
C436 C437 1.385 . S
C437 H423 0.931 . S
C437 C436 1.385 . S
C437 C438 1.389 . S
C438 C437 1.389 . S
C438 C439 1.387 . S
C439 H424 0.930 . S
C439 C434 1.390 . S
C439 C438 1.387 . S
H440 C452 0.930 . S
H441 C454 0.930 . S
H442 C455 0.930 . S
H443 C459 0.959 . S
H444 C459 0.959 . S
H445 C459 0.961 1_545 S
H446 C460 0.960 1_545 S
H447 C460 0.961 . S
H448 C460 0.959 . S
H449 C463 0.929 . S
H450 C464 0.931 . S
H451 C466 0.930 . S
C452 H440 0.930 . S
C452 C453 1.399 . S
C452 C457 1.399 . S
C453 C452 1.399 . S
C453 C454 1.376 1_554 S
C454 H441 0.930 . S
C454 C453 1.376 1_556 S
C454 C455 1.388 . S
C455 H442 0.930 . S
C455 C454 1.388 . S
C455 C456 1.390 . S
C456 C455 1.390 . S
C456 C457 1.394 1_556 S
C456 C462 1.465 1_545 S
C457 C452 1.399 . S
C457 C456 1.394 1_554 S
C457 C458 1.516 1_545 S
C458 C457 1.516 1_565 S
C458 C459 1.502 . S
C458 C460 1.561 . S
C458 C461 1.526 . S
C459 H443 0.959 . S
C459 H444 0.959 . S
C459 H445 0.961 1_565 S
C459 C458 1.502 . S
C460 H446 0.960 1_565 S
C460 H447 0.961 . S
C460 H448 0.959 . S
C460 C458 1.561 . S
C461 C458 1.526 . S
C461 C462 1.396 1_554 S
C461 C466 1.390 . S
C462 C456 1.465 1_565 S
C462 C461 1.396 1_556 S
C462 C463 1.399 . S
C463 H449 0.929 . S
C463 C462 1.399 . S
C463 C464 1.385 . S
C464 H450 0.931 . S
C464 C463 1.385 . S
C464 C465 1.389 . S
C465 C464 1.389 . S
C465 C466 1.387 1_556 S
C466 H451 0.930 . S
C466 C461 1.390 . S
C466 C465 1.387 1_554 S
H467 C479 0.930 . S
H468 C481 0.930 . S
H469 C482 0.930 . S
H470 C486 0.959 . S
H471 C486 0.959 1_545 S
H472 C486 0.961 . S
H473 C487 0.960 . S
H474 C487 0.961 1_545 S
H475 C487 0.959 . S
H476 C490 0.929 . S
H477 C491 0.931 . S
H478 C493 0.930 . S
C479 H467 0.930 . S
C479 C480 1.399 . S
C479 C484 1.399 . S
C480 C479 1.399 . S
C480 C481 1.376 . S
C481 H468 0.930 . S
C481 C480 1.376 . S
C481 C482 1.388 . S
C482 H469 0.930 . S
C482 C481 1.388 . S
C482 C483 1.390 . S
C483 C482 1.390 . S
C483 C484 1.394 . S
C483 C489 1.465 1_565 S
C484 C479 1.399 . S
C484 C483 1.394 . S
C484 C485 1.516 . S
C485 C484 1.516 . S
C485 C486 1.502 . S
C485 C487 1.561 . S
C485 C488 1.526 1_565 S
C486 H470 0.959 . S
C486 H471 0.959 1_565 S
C486 H472 0.961 . S
C486 C485 1.502 . S
C487 H473 0.960 . S
C487 H474 0.961 1_565 S
C487 H475 0.959 . S
C487 C485 1.561 . S
C488 C485 1.526 1_545 S
C488 C489 1.396 . S
C488 C493 1.390 . S
C489 C483 1.465 1_545 S
C489 C488 1.396 . S
C489 C490 1.399 . S
C490 H476 0.929 . S
C490 C489 1.399 . S
C490 C491 1.385 . S
C491 H477 0.931 . S
C491 C490 1.385 . S
C491 C492 1.389 . S
C492 C491 1.389 . S
C492 C493 1.387 . S
C493 H478 0.930 . S
C493 C488 1.390 . S
C493 C492 1.387 . S
H494 C506 0.930 . S
H495 C508 0.930 . S
H496 C509 0.930 1_545 S
H497 C513 0.959 . S
H498 C513 0.959 . S
H499 C513 0.961 . S
H500 C514 0.960 . S
H501 C514 0.961 . S
H502 C514 0.959 . S
H503 C517 0.929 . S
H504 C518 0.931 . S
H505 C520 0.930 . S
C506 H494 0.930 . S
C506 C507 1.399 . S
C506 C511 1.399 . S
C507 C506 1.399 . S
C507 C508 1.376 . S
C508 H495 0.930 . S
C508 C507 1.376 . S
C508 C509 1.388 . S
C509 H496 0.930 1_565 S
C509 C508 1.388 . S
C509 C510 1.390 . S
C510 C509 1.390 . S
C510 C511 1.394 . S
C510 C516 1.465 1_565 S
C511 C506 1.399 . S
C511 C510 1.394 . S
C511 C512 1.516 1_556 S
C512 C511 1.516 1_554 S
C512 C513 1.502 . S
C512 C514 1.561 . S
C512 C515 1.526 1_565 S
C513 H497 0.959 . S
C513 H498 0.959 . S
C513 H499 0.961 . S
C513 C512 1.502 . S
C514 H500 0.960 . S
C514 H501 0.961 . S
C514 H502 0.959 . S
C514 C512 1.561 . S
C515 C512 1.526 1_545 S
C515 C516 1.396 1_554 S
C515 C520 1.390 . S
C516 C510 1.465 1_545 S
C516 C515 1.396 1_556 S
C516 C517 1.399 . S
C517 H503 0.929 . S
C517 C516 1.399 . S
C517 C518 1.385 1_556 S
C518 H504 0.931 . S
C518 C517 1.385 1_554 S
C518 C519 1.389 . S
C519 C518 1.389 . S
C519 C520 1.387 . S
C520 H505 0.930 . S
C520 C515 1.390 . S
C520 C519 1.387 . S
H521 C533 0.930 . S
H522 C535 0.930 . S
H523 C536 0.930 . S
H524 C540 0.959 . S
H525 C540 0.959 . S
H526 C540 0.971 . S
H527 C541 0.960 . S
H528 C541 0.961 . S
H529 C541 0.959 . S
H530 C544 0.929 . S
H531 C545 0.931 . S
H532 C547 0.930 . S
C533 H521 0.930 . S
C533 C534 1.399 . S
C533 C538 1.399 . S
C534 C533 1.399 . S
C534 C535 1.376 . S
C535 H522 0.930 . S
C535 C534 1.376 . S
C535 C536 1.388 . S
C536 H523 0.930 . S
C536 C535 1.388 . S
C536 C537 1.390 . S
C537 C536 1.390 . S
C537 C538 1.394 . S
C537 C543 1.465 1_545 S
C538 C533 1.399 . S
C538 C537 1.394 . S
C538 C539 1.514 . S
C539 C538 1.514 . S
C539 C540 1.503 1_545 S
C539 C541 1.560 . S
C539 C542 1.527 1_545 S
C540 H524 0.959 . S
C540 H525 0.959 . S
C540 H526 0.971 . S
C540 C539 1.503 1_565 S
C541 H527 0.960 . S
C541 H528 0.961 . S
C541 H529 0.959 . S
C541 C539 1.560 . S
C542 C539 1.527 1_565 S
C542 C543 1.396 . S
C542 C547 1.390 . S
C543 C537 1.465 1_565 S
C543 C542 1.396 . S
C543 C544 1.399 . S
C544 H530 0.929 . S
C544 C543 1.399 . S
C544 C545 1.385 . S
C545 H531 0.931 . S
C545 C544 1.385 . S
C545 C546 1.389 . S
C546 C545 1.389 . S
C546 C547 1.387 . S
C547 H532 0.930 . S
C547 C542 1.390 . S
C547 C546 1.387 . S
H548 C560 0.930 . S
H549 C562 0.930 . S
H550 C563 0.930 . S
H551 C567 0.959 . S
H552 C567 0.959 . S
H553 C567 0.961 . S
H554 C568 0.960 . S
H555 C568 0.961 . S
H556 C568 0.959 . S
H557 C571 0.929 . S
H558 C572 0.931 . S
H559 C574 0.930 . S
C560 H548 0.930 . S
C560 C561 1.399 1_554 S
C560 C565 1.399 . S
C561 C560 1.399 1_556 S
C561 C562 1.376 . S
C562 H549 0.930 . S
C562 C561 1.376 . S
C562 C563 1.388 . S
C563 H550 0.930 . S
C563 C562 1.388 . S
C563 C564 1.390 . S
C564 C563 1.390 . S
C564 C565 1.394 1_556 S
C564 C570 1.465 . S
C565 C560 1.399 . S
C565 C564 1.394 1_554 S
C565 C566 1.516 . S
C566 C565 1.516 . S
C566 C567 1.502 . S
C566 C568 1.561 . S
C566 C569 1.526 . S
C567 H551 0.959 . S
C567 H552 0.959 . S
C567 H553 0.961 . S
C567 C566 1.502 . S
C568 H554 0.960 . S
C568 H555 0.961 . S
C568 H556 0.959 . S
C568 C566 1.561 . S
C569 C566 1.526 . S
C569 C570 1.396 1_554 S
C569 C574 1.390 . S
C570 C564 1.465 . S
C570 C569 1.396 1_556 S
C570 C571 1.399 . S
C571 H557 0.929 . S
C571 C570 1.399 . S
C571 C572 1.385 . S
C572 H558 0.931 . S
C572 C571 1.385 . S
C572 C573 1.389 1_556 S
C573 C572 1.389 1_554 S
C573 C574 1.387 . S
C574 H559 0.930 . S
C574 C569 1.390 . S
C574 C573 1.387 . S
H575 C587 0.930 . S
H576 C589 0.930 . S
H577 C590 0.930 . S
H578 C594 0.959 . S
H579 C594 0.959 . S
H580 C594 0.961 . S
H581 C595 0.960 . S
H582 C595 0.961 . S
H583 C595 0.959 . S
H584 C598 0.929 . S
H585 C599 0.931 . S
H586 C601 0.930 . S
C587 H575 0.930 . S
C587 C588 1.399 . S
C587 C592 1.399 . S
C588 C587 1.399 . S
C588 C589 1.376 . S
C589 H576 0.930 . S
C589 C588 1.376 . S
C589 C590 1.388 . S
C590 H577 0.930 . S
C590 C589 1.388 . S
C590 C591 1.390 . S
C591 C590 1.390 . S
C591 C592 1.394 . S
C591 C597 1.465 . S
C592 C587 1.399 . S
C592 C591 1.394 . S
C592 C593 1.516 . S
C593 C592 1.516 . S
C593 C594 1.502 . S
C593 C595 1.561 . S
C593 C596 1.526 . S
C594 H578 0.959 . S
C594 H579 0.959 . S
C594 H580 0.961 . S
C594 C593 1.502 . S
C595 H581 0.960 . S
C595 H582 0.961 . S
C595 H583 0.959 . S
C595 C593 1.561 . S
C596 C593 1.526 . S
C596 C597 1.396 . S
C596 C601 1.390 . S
C597 C591 1.465 . S
C597 C596 1.396 . S
C597 C598 1.399 . S
C598 H584 0.929 . S
C598 C597 1.399 . S
C598 C599 1.385 . S
C599 H585 0.931 . S
C599 C598 1.385 . S
C599 C600 1.389 . S
C600 C599 1.389 . S
C600 C601 1.387 . S
C601 H586 0.930 . S
C601 C596 1.390 . S
C601 C600 1.387 . S
H602 C614 0.930 . S
H603 C616 0.930 . S
H604 C617 0.930 . S
H605 C621 0.959 . S
H606 C621 0.959 . S
H607 C621 0.961 . S
H608 C622 0.960 . S
H609 C622 0.961 . S
H610 C622 0.959 . S
H611 C625 0.929 . S
H612 C626 0.931 . S
H613 C628 0.930 . S
C614 H602 0.930 . S
C614 C615 1.399 . S
C614 C619 1.399 . S
C615 C614 1.399 . S
C615 C616 1.376 . S
C616 H603 0.930 . S
C616 C615 1.376 . S
C616 C617 1.388 1_554 S
C617 H604 0.930 . S
C617 C616 1.388 1_556 S
C617 C618 1.389 . S
C618 C617 1.389 . S
C618 C619 1.396 1_556 S
C618 C624 1.463 . S
C619 C614 1.399 . S
C619 C618 1.396 1_554 S
C619 C620 1.516 . S
C620 C619 1.516 . S
C620 C621 1.502 . S
C620 C622 1.561 . S
C620 C623 1.526 1_554 S
C621 H605 0.959 . S
C621 H606 0.959 . S
C621 H607 0.961 . S
C621 C620 1.502 . S
C622 H608 0.960 . S
C622 H609 0.961 . S
C622 H610 0.959 . S
C622 C620 1.561 . S
C623 C620 1.526 1_556 S
C623 C624 1.396 . S
C623 C628 1.390 . S
C624 C618 1.463 . S
C624 C623 1.396 . S
C624 C625 1.399 . S
C625 H611 0.929 . S
C625 C624 1.399 . S
C625 C626 1.385 . S
C626 H612 0.931 . S
C626 C625 1.385 . S
C626 C627 1.389 . S
C627 C626 1.389 . S
C627 C628 1.387 . S
C628 H613 0.930 . S
C628 C623 1.390 . S
C628 C627 1.387 . S
H629 C641 0.930 . S
H630 C643 0.930 . S
H631 C644 0.930 . S
H632 C648 0.959 . S
H633 C648 0.959 . S
H634 C648 0.961 . S
H635 C649 0.960 . S
H636 C649 0.961 . S
H637 C649 0.959 . S
H638 C652 0.929 . S
H639 C653 0.931 . S
H640 C655 0.930 . S
C641 H629 0.930 . S
C641 C642 1.399 . S
C641 C646 1.399 . S
C642 C641 1.399 . S
C642 C643 1.376 . S
C643 H630 0.930 . S
C643 C642 1.376 . S
C643 C644 1.388 . S
C644 H631 0.930 . S
C644 C643 1.388 . S
C644 C645 1.390 . S
C645 C644 1.390 . S
C645 C646 1.394 . S
C645 C651 1.465 . S
C646 C641 1.399 . S
C646 C645 1.394 . S
C646 C647 1.516 . S
C647 C646 1.516 . S
C647 C648 1.502 . S
C647 C649 1.561 . S
C647 C650 1.526 . S
C648 H632 0.959 . S
C648 H633 0.959 . S
C648 H634 0.961 . S
C648 C647 1.502 . S
C649 H635 0.960 . S
C649 H636 0.961 . S
C649 H637 0.959 . S
C649 C647 1.561 . S
C650 C647 1.526 . S
C650 C651 1.396 . S
C650 C655 1.390 . S
C651 C645 1.465 . S
C651 C650 1.396 . S
C651 C652 1.399 . S
C652 H638 0.929 . S
C652 C651 1.399 . S
C652 C653 1.385 . S
C653 H639 0.931 . S
C653 C652 1.385 . S
C653 C654 1.389 . S
C654 C653 1.389 . S
C654 C655 1.387 . S
C655 H640 0.930 . S
C655 C650 1.390 . S
C655 C654 1.387 . S
H656 C668 0.930 . S
H657 C670 0.930 . S
H658 C671 0.930 . S
H659 C675 0.959 . S
H660 C675 0.959 . S
H661 C675 0.961 . S
H662 C676 0.960 . S
H663 C676 0.961 . S
H664 C676 0.959 . S
H665 C679 0.929 . S
H666 C680 0.931 . S
H667 C682 0.930 . S
C668 H656 0.930 . S
C668 C669 1.399 . S
C668 C673 1.399 . S
C669 C668 1.399 . S
C669 C670 1.376 . S
C670 H657 0.930 . S
C670 C669 1.376 . S
C670 C671 1.388 . S
C671 H658 0.930 . S
C671 C670 1.388 . S
C671 C672 1.390 . S
C672 C671 1.390 . S
C672 C673 1.394 . S
C672 C678 1.465 . S
C673 C668 1.399 . S
C673 C672 1.394 . S
C673 C674 1.516 . S
C674 C673 1.516 . S
C674 C675 1.502 . S
C674 C676 1.561 . S
C674 C677 1.526 . S
C675 H659 0.959 . S
C675 H660 0.959 . S
C675 H661 0.961 . S
C675 C674 1.502 . S
C676 H662 0.960 . S
C676 H663 0.961 . S
C676 H664 0.959 . S
C676 C674 1.561 . S
C677 C674 1.526 . S
C677 C678 1.396 . S
C677 C682 1.390 . S
C678 C672 1.465 . S
C678 C677 1.396 . S
C678 C679 1.399 . S
C679 H665 0.929 . S
C679 C678 1.399 . S
C679 C680 1.385 . S
C680 H666 0.931 . S
C680 C679 1.385 . S
C680 C681 1.389 . S
C681 C680 1.389 . S
C681 C682 1.387 . S
C682 H667 0.930 . S
C682 C677 1.390 . S
C682 C681 1.387 . S
H683 C695 0.930 . S
H684 C697 0.930 . S
H685 C698 0.930 . S
H686 C702 0.959 . S
H687 C702 0.959 . S
H688 C702 0.961 . S
H689 C703 0.960 . S
H690 C703 0.961 . S
H691 C703 0.959 . S
H692 C706 0.929 . S
H693 C707 0.931 . S
H694 C709 0.930 . S
C695 H683 0.930 . S
C695 C696 1.399 . S
C695 C700 1.399 1_655 S
C696 C695 1.399 . S
C696 C697 1.376 . S
C697 H684 0.930 . S
C697 C696 1.376 . S
C697 C698 1.388 1_655 S
C698 H685 0.930 . S
C698 C697 1.388 1_455 S
C698 C699 1.390 . S
C699 C698 1.390 . S
C699 C700 1.394 . S
C699 C705 1.465 . S
C700 C695 1.399 1_455 S
C700 C699 1.394 . S
C700 C701 1.516 . S
C701 C700 1.516 . S
C701 C702 1.502 . S
C701 C703 1.561 . S
C701 C704 1.526 . S
C702 H686 0.959 . S
C702 H687 0.959 . S
C702 H688 0.961 . S
C702 C701 1.502 . S
C703 H689 0.960 . S
C703 H690 0.961 . S
C703 H691 0.959 . S
C703 C701 1.561 . S
C704 C701 1.526 . S
C704 C705 1.396 . S
C704 C709 1.390 . S
C705 C699 1.465 . S
C705 C704 1.396 . S
C705 C706 1.399 . S
C706 H692 0.929 . S
C706 C705 1.399 . S
C706 C707 1.385 . S
C707 H693 0.931 . S
C707 C706 1.385 . S
C707 C708 1.389 . S
C708 C707 1.389 . S
C708 C709 1.387 . S
C709 H694 0.930 . S
C709 C704 1.390 . S
C709 C708 1.387 . S
H710 C722 0.930 . S
H711 C724 0.930 . S
H712 C725 0.930 . S
H713 C729 0.959 . S
H714 C729 0.959 . S
H715 C729 0.961 . S
H716 C730 0.960 . S
H717 C730 0.961 . S
H718 C730 0.959 . S
H719 C733 0.929 . S
H720 C734 0.931 . S
H721 C736 0.930 . S
C722 H710 0.930 . S
C722 C723 1.399 . S
C722 C727 1.399 . S
C723 C722 1.399 . S
C723 C724 1.376 . S
C724 H711 0.930 . S
C724 C723 1.376 . S
C724 C725 1.388 . S
C725 H712 0.930 . S
C725 C724 1.388 . S
C725 C726 1.390 . S
C726 C725 1.390 . S
C726 C727 1.394 . S
C726 C732 1.465 . S
C727 C722 1.399 . S
C727 C726 1.394 . S
C727 C728 1.516 . S
C728 C727 1.516 . S
C728 C729 1.502 . S
C728 C730 1.561 . S
C728 C731 1.526 . S
C729 H713 0.959 . S
C729 H714 0.959 . S
C729 H715 0.961 . S
C729 C728 1.502 . S
C730 H716 0.960 . S
C730 H717 0.961 . S
C730 H718 0.959 . S
C730 C728 1.561 . S
C731 C728 1.526 . S
C731 C732 1.396 . S
C731 C736 1.390 . S
C732 C726 1.465 . S
C732 C731 1.396 . S
C732 C733 1.399 . S
C733 H719 0.929 . S
C733 C732 1.399 . S
C733 C734 1.385 . S
C734 H720 0.931 . S
C734 C733 1.385 . S
C734 C735 1.389 . S
C735 C734 1.389 . S
C735 C736 1.387 . S
C736 H721 0.930 . S
C736 C731 1.390 . S
C736 C735 1.387 . S
H737 C749 0.930 . S
H738 C751 0.930 . S
H739 C752 0.930 . S
H740 C756 0.959 . S
H741 C756 0.959 . S
H742 C756 0.961 . S
H743 C757 0.960 . S
H744 C757 0.961 . S
H745 C757 0.959 . S
H746 C760 0.929 . S
H747 C761 0.931 . S
H748 C763 0.930 . S
C749 H737 0.930 . S
C749 C750 1.399 . S
C749 C754 1.399 . S
C750 C749 1.399 . S
C750 C751 1.376 . S
C751 H738 0.930 . S
C751 C750 1.376 . S
C751 C752 1.388 . S
C752 H739 0.930 . S
C752 C751 1.388 . S
C752 C753 1.390 . S
C753 C752 1.390 . S
C753 C754 1.394 . S
C753 C759 1.465 . S
C754 C749 1.399 . S
C754 C753 1.394 . S
C754 C755 1.516 . S
C755 C754 1.516 . S
C755 C756 1.502 . S
C755 C757 1.561 . S
C755 C758 1.526 . S
C756 H740 0.959 . S
C756 H741 0.959 . S
C756 H742 0.961 . S
C756 C755 1.502 . S
C757 H743 0.960 . S
C757 H744 0.961 . S
C757 H745 0.959 . S
C757 C755 1.561 . S
C758 C755 1.526 . S
C758 C759 1.396 . S
C758 C763 1.390 1_455 S
C759 C753 1.465 . S
C759 C758 1.396 . S
C759 C760 1.399 . S
C760 H746 0.929 . S
C760 C759 1.399 . S
C760 C761 1.385 1_455 S
C761 H747 0.931 . S
C761 C760 1.385 1_655 S
C761 C762 1.389 . S
C762 C761 1.389 . S
C762 C763 1.387 . S
C763 H748 0.930 . S
C763 C758 1.390 1_655 S
C763 C762 1.387 . S
H764 C776 0.930 . S
H765 C778 0.930 . S
H766 C779 0.930 . S
H767 C783 0.959 . S
H768 C783 0.959 . S
H769 C783 0.961 . S
H770 C784 0.960 . S
H771 C784 0.961 . S
H772 C784 0.959 . S
H773 C787 0.929 . S
H774 C788 0.931 . S
H775 C790 0.930 . S
C776 H764 0.930 . S
C776 C777 1.399 . S
C776 C781 1.399 1_455 S
C777 C776 1.399 . S
C777 C778 1.376 . S
C778 H765 0.930 . S
C778 C777 1.376 . S
C778 C779 1.388 1_455 S
C779 H766 0.930 . S
C779 C778 1.388 1_655 S
C779 C780 1.390 . S
C780 C779 1.390 . S
C780 C781 1.394 . S
C780 C786 1.465 . S
C781 C776 1.399 1_655 S
C781 C780 1.394 . S
C781 C782 1.516 . S
C782 C781 1.516 . S
C782 C783 1.502 . S
C782 C784 1.561 . S
C782 C785 1.526 . S
C783 H767 0.959 . S
C783 H768 0.959 . S
C783 H769 0.961 . S
C783 C782 1.502 . S
C784 H770 0.960 . S
C784 H771 0.961 . S
C784 H772 0.959 . S
C784 C782 1.561 . S
C785 C782 1.526 . S
C785 C786 1.396 . S
C785 C790 1.390 . S
C786 C780 1.465 . S
C786 C785 1.396 . S
C786 C787 1.399 . S
C787 H773 0.929 . S
C787 C786 1.399 . S
C787 C788 1.385 . S
C788 H774 0.931 . S
C788 C787 1.385 . S
C788 C789 1.389 . S
C789 C788 1.389 . S
C789 C790 1.387 . S
C790 H775 0.930 . S
C790 C785 1.390 . S
C790 C789 1.387 . S
H791 C803 0.930 . S
H792 C805 0.930 . S
H793 C806 0.930 . S
H794 C810 0.959 . S
H795 C810 0.959 . S
H796 C810 0.961 . S
H797 C811 0.960 . S
H798 C811 0.961 . S
H799 C811 0.959 . S
H800 C814 0.929 . S
H801 C815 0.931 . S
H802 C817 0.930 . S
C803 H791 0.930 . S
C803 C804 1.399 . S
C803 C808 1.399 . S
C804 C803 1.399 . S
C804 C805 1.376 . S
C805 H792 0.930 . S
C805 C804 1.376 . S
C805 C806 1.388 . S
C806 H793 0.930 . S
C806 C805 1.388 . S
C806 C807 1.390 . S
C807 C806 1.390 . S
C807 C808 1.394 . S
C807 C813 1.465 . S
C808 C803 1.399 . S
C808 C807 1.394 . S
C808 C809 1.516 . S
C809 C808 1.516 . S
C809 C810 1.502 . S
C809 C811 1.561 . S
C809 C812 1.526 . S
C810 H794 0.959 . S
C810 H795 0.959 . S
C810 H796 0.961 . S
C810 C809 1.502 . S
C811 H797 0.960 . S
C811 H798 0.961 . S
C811 H799 0.959 . S
C811 C809 1.561 . S
C812 C809 1.526 . S
C812 C813 1.396 . S
C812 C817 1.390 . S
C813 C807 1.465 . S
C813 C812 1.396 . S
C813 C814 1.399 . S
C814 H800 0.929 . S
C814 C813 1.399 . S
C814 C815 1.385 . S
C815 H801 0.931 . S
C815 C814 1.385 . S
C815 C816 1.389 . S
C816 C815 1.389 . S
C816 C817 1.387 . S
C817 H802 0.930 . S
C817 C812 1.390 . S
C817 C816 1.387 . S
H818 C830 0.930 . S
H819 C832 0.930 . S
H820 C833 0.930 . S
H821 C837 0.959 . S
H822 C837 0.959 . S
H823 C837 0.961 . S
H824 C838 0.960 . S
H825 C838 0.961 . S
H826 C838 0.959 . S
H827 C841 0.929 . S
H828 C842 0.931 . S
H829 C844 0.930 . S
C830 H818 0.930 . S
C830 C831 1.399 . S
C830 C835 1.399 1_455 S
C831 C830 1.399 . S
C831 C832 1.376 . S
C832 H819 0.930 . S
C832 C831 1.376 . S
C832 C833 1.388 1_455 S
C833 H820 0.930 . S
C833 C832 1.388 1_655 S
C833 C834 1.390 . S
C834 C833 1.390 . S
C834 C835 1.394 . S
C834 C840 1.465 . S
C835 C830 1.399 1_655 S
C835 C834 1.394 . S
C835 C836 1.516 . S
C836 C835 1.516 . S
C836 C837 1.502 . S
C836 C838 1.561 . S
C836 C839 1.526 . S
C837 H821 0.959 . S
C837 H822 0.959 . S
C837 H823 0.961 . S
C837 C836 1.502 . S
C838 H824 0.960 . S
C838 H825 0.961 . S
C838 H826 0.959 . S
C838 C836 1.561 . S
C839 C836 1.526 . S
C839 C840 1.396 . S
C839 C844 1.390 . S
C840 C834 1.465 . S
C840 C839 1.396 . S
C840 C841 1.399 . S
C841 H827 0.929 . S
C841 C840 1.399 . S
C841 C842 1.385 . S
C842 H828 0.931 . S
C842 C841 1.385 . S
C842 C843 1.389 . S
C843 C842 1.389 . S
C843 C844 1.387 . S
C844 H829 0.930 . S
C844 C839 1.390 . S
C844 C843 1.387 . S
H845 C857 0.930 . S
H846 C859 0.930 . S
H847 C860 0.930 . S
H848 C864 0.959 . S
H849 C864 0.959 . S
H850 C864 0.961 . S
H851 C865 0.960 . S
H852 C865 0.961 . S
H853 C865 0.959 . S
H854 C868 0.929 . S
H855 C869 0.931 . S
H856 C871 0.930 . S
C857 H845 0.930 . S
C857 C858 1.399 . S
C857 C862 1.399 . S
C858 C857 1.399 . S
C858 C859 1.376 . S
C859 H846 0.930 . S
C859 C858 1.376 . S
C859 C860 1.388 . S
C860 H847 0.930 . S
C860 C859 1.388 . S
C860 C861 1.390 . S
C861 C860 1.390 . S
C861 C862 1.394 . S
C861 C867 1.465 . S
C862 C857 1.399 . S
C862 C861 1.394 . S
C862 C863 1.516 . S
C863 C862 1.516 . S
C863 C864 1.502 . S
C863 C865 1.561 . S
C863 C866 1.526 . S
C864 H848 0.959 . S
C864 H849 0.959 . S
C864 H850 0.961 . S
C864 C863 1.502 . S
C865 H851 0.960 . S
C865 H852 0.961 . S
C865 H853 0.959 . S
C865 C863 1.561 . S
C866 C863 1.526 . S
C866 C867 1.396 . S
C866 C871 1.390 . S
C867 C861 1.465 . S
C867 C866 1.396 . S
C867 C868 1.399 . S
C868 H854 0.929 . S
C868 C867 1.399 . S
C868 C869 1.385 . S
C869 H855 0.931 . S
C869 C868 1.385 . S
C869 C870 1.389 . S
C870 C869 1.389 . S
C870 C871 1.387 . S
C871 H856 0.930 . S
C871 C866 1.390 . S
C871 C870 1.387 . S
H872 C884 0.930 . S
H873 C886 0.930 . S
H874 C887 0.930 . S
H875 C891 0.959 . S
H876 C891 0.959 . S
H877 C891 0.961 . S
H878 C892 0.960 . S
H879 C892 0.961 . S
H880 C892 0.959 . S
H881 C895 0.929 . S
H882 C896 0.931 . S
H883 C898 0.930 . S
C884 H872 0.930 . S
C884 C885 1.399 . S
C884 C889 1.399 . S
C885 C884 1.399 . S
C885 C886 1.376 . S
C886 H873 0.930 . S
C886 C885 1.376 . S
C886 C887 1.388 . S
C887 H874 0.930 . S
C887 C886 1.388 . S
C887 C888 1.390 . S
C888 C887 1.390 . S
C888 C889 1.394 . S
C888 C894 1.465 . S
C889 C884 1.399 . S
C889 C888 1.394 . S
C889 C890 1.516 . S
C890 C889 1.516 . S
C890 C891 1.502 . S
C890 C892 1.561 . S
C890 C893 1.526 . S
C891 H875 0.959 . S
C891 H876 0.959 . S
C891 H877 0.961 . S
C891 C890 1.502 . S
C892 H878 0.960 . S
C892 H879 0.961 . S
C892 H880 0.959 . S
C892 C890 1.561 . S
C893 C890 1.526 . S
C893 C894 1.396 . S
C893 C898 1.390 . S
C894 C888 1.465 . S
C894 C893 1.396 . S
C894 C895 1.399 . S
C895 H881 0.929 . S
C895 C894 1.399 . S
C895 C896 1.385 . S
C896 H882 0.931 . S
C896 C895 1.385 . S
C896 C897 1.389 . S
C897 C896 1.389 . S
C897 C898 1.387 . S
C898 H883 0.930 . S
C898 C893 1.390 . S
C898 C897 1.387 . S
H899 C911 0.930 . S
H900 C913 0.930 . S
H901 C914 0.930 . S
H902 C918 0.959 . S
H903 C918 0.959 . S
H904 C918 0.961 . S
H905 C919 0.960 . S
H906 C919 0.961 . S
H907 C919 0.959 . S
H908 C922 0.929 . S
H909 C923 0.931 . S
H910 C925 0.930 . S
C911 H899 0.930 . S
C911 C912 1.399 . S
C911 C916 1.399 . S
C912 C911 1.399 . S
C912 C913 1.376 . S
C913 H900 0.930 . S
C913 C912 1.376 . S
C913 C914 1.388 . S
C914 H901 0.930 . S
C914 C913 1.388 . S
C914 C915 1.390 . S
C915 C914 1.390 . S
C915 C916 1.394 . S
C915 C921 1.465 . S
C916 C911 1.399 . S
C916 C915 1.394 . S
C916 C917 1.516 . S
C917 C916 1.516 . S
C917 C918 1.502 . S
C917 C919 1.561 . S
C917 C920 1.526 . S
C918 H902 0.959 . S
C918 H903 0.959 . S
C918 H904 0.961 . S
C918 C917 1.502 . S
C919 H905 0.960 . S
C919 H906 0.961 . S
C919 H907 0.959 . S
C919 C917 1.561 . S
C920 C917 1.526 . S
C920 C921 1.396 . S
C920 C925 1.390 . S
C921 C915 1.465 . S
C921 C920 1.396 . S
C921 C922 1.399 . S
C922 H908 0.929 . S
C922 C921 1.399 . S
C922 C923 1.385 . S
C923 H909 0.931 . S
C923 C922 1.385 . S
C923 C924 1.389 . S
C924 C923 1.389 . S
C924 C925 1.387 . S
C925 H910 0.930 . S
C925 C920 1.390 . S
C925 C924 1.387 . S
H926 C938 0.930 . S
H927 C940 0.930 . S
H928 C941 0.930 . S
H929 C945 0.959 . S
H930 C945 0.959 . S
H931 C945 0.961 . S
H932 C946 0.960 . S
H933 C946 0.961 . S
H934 C946 0.959 . S
H935 C949 0.929 . S
H936 C950 0.931 . S
H937 C952 0.930 . S
C938 H926 0.930 . S
C938 C939 1.399 . S
C938 C943 1.399 . S
C939 C938 1.399 . S
C939 C940 1.376 . S
C940 H927 0.930 . S
C940 C939 1.376 . S
C940 C941 1.388 . S
C941 H928 0.930 . S
C941 C940 1.388 . S
C941 C942 1.390 . S
C942 C941 1.390 . S
C942 C943 1.394 . S
C942 C948 1.465 . S
C943 C938 1.399 . S
C943 C942 1.394 . S
C943 C944 1.516 . S
C944 C943 1.516 . S
C944 C945 1.502 . S
C944 C946 1.561 . S
C944 C947 1.526 . S
C945 H929 0.959 . S
C945 H930 0.959 . S
C945 H931 0.961 . S
C945 C944 1.502 . S
C946 H932 0.960 . S
C946 H933 0.961 . S
C946 H934 0.959 . S
C946 C944 1.561 . S
C947 C944 1.526 . S
C947 C948 1.396 . S
C947 C952 1.390 . S
C948 C942 1.465 . S
C948 C947 1.396 . S
C948 C949 1.399 . S
C949 H935 0.929 . S
C949 C948 1.399 . S
C949 C950 1.385 . S
C950 H936 0.931 . S
C950 C949 1.385 . S
C950 C951 1.389 . S
C951 C950 1.389 . S
C951 C952 1.387 . S
C952 H937 0.930 . S
C952 C947 1.390 . S
C952 C951 1.387 . S
H953 C965 0.930 . S
H954 C967 0.930 . S
H955 C968 0.930 . S
H956 C972 0.959 . S
H957 C972 0.959 . S
H958 C972 0.961 . S
H959 C973 0.960 . S
H960 C973 0.961 . S
H961 C973 0.959 . S
H962 C976 0.929 . S
H963 C977 0.931 . S
H964 C979 0.930 . S
C965 H953 0.930 . S
C965 C966 1.399 . S
C965 C970 1.399 . S
C966 C965 1.399 . S
C966 C967 1.376 . S
C967 H954 0.930 . S
C967 C966 1.376 . S
C967 C968 1.388 . S
C968 H955 0.930 . S
C968 C967 1.388 . S
C968 C969 1.390 . S
C969 C968 1.390 . S
C969 C970 1.394 . S
C969 C975 1.465 . S
C970 C965 1.399 . S
C970 C969 1.394 . S
C970 C971 1.516 . S
C971 C970 1.516 . S
C971 C972 1.502 . S
C971 C973 1.561 . S
C971 C974 1.526 . S
C972 H956 0.959 . S
C972 H957 0.959 . S
C972 H958 0.961 . S
C972 C971 1.502 . S
C973 H959 0.960 . S
C973 H960 0.961 . S
C973 H961 0.959 . S
C973 C971 1.561 . S
C974 C971 1.526 . S
C974 C975 1.396 . S
C974 C979 1.390 . S
C975 C969 1.465 . S
C975 C974 1.396 . S
C975 C976 1.399 . S
C976 H962 0.929 . S
C976 C975 1.399 . S
C976 C977 1.385 . S
C977 H963 0.931 . S
C977 C976 1.385 . S
C977 C978 1.389 . S
C978 C977 1.389 . S
C978 C979 1.387 . S
C979 H964 0.930 . S
C979 C974 1.390 . S
C979 C978 1.387 . S
H980 C992 0.930 . S
H981 C994 0.930 . S
H982 C995 0.930 . S
H983 C999 0.959 . S
H984 C999 0.959 . S
H985 C999 0.961 . S
H986 C1000 0.960 . S
H987 C1000 0.961 . S
H988 C1000 0.959 . S
H989 C1003 0.929 . S
H990 C1004 0.931 . S
H991 C1006 0.930 . S
C992 H980 0.930 . S
C992 C993 1.399 . S
C992 C997 1.399 . S
C993 C992 1.399 . S
C993 C994 1.376 . S
C994 H981 0.930 . S
C994 C993 1.376 . S
C994 C995 1.388 . S
C995 H982 0.930 . S
C995 C994 1.388 . S
C995 C996 1.390 . S
C996 C995 1.390 . S
C996 C997 1.394 . S
C996 C1002 1.465 . S
C997 C992 1.399 . S
C997 C996 1.394 . S
C997 C998 1.516 . S
C998 C997 1.516 . S
C998 C999 1.502 . S
C998 C1000 1.561 . S
C998 C1001 1.526 . S
C999 H983 0.959 . S
C999 H984 0.959 . S
C999 H985 0.961 . S
C999 C998 1.502 . S
C1000 H986 0.960 . S
C1000 H987 0.961 . S
C1000 H988 0.959 . S
C1000 C998 1.561 . S
C1001 C998 1.526 . S
C1001 C1002 1.396 . S
C1001 C1006 1.390 . S
C1002 C996 1.465 . S
C1002 C1001 1.396 . S
C1002 C1003 1.399 . S
C1003 H989 0.929 . S
C1003 C1002 1.399 . S
C1003 C1004 1.385 . S
C1004 H990 0.931 . S
C1004 C1003 1.385 . S
C1004 C1005 1.389 . S
C1005 C1004 1.389 . S
C1005 C1006 1.387 . S
C1006 H991 0.930 . S
C1006 C1001 1.390 . S
C1006 C1005 1.387 . S
H1007 C1019 0.930 . S
H1008 C1021 0.930 . S
H1009 C1022 0.930 . S
H1010 C1026 0.959 . S
H1011 C1026 0.959 . S
H1012 C1026 0.961 . S
H1013 C1027 0.960 . S
H1014 C1027 0.961 . S
H1015 C1027 0.959 . S
H1016 C1030 0.929 . S
H1017 C1031 0.931 . S
H1018 C1033 0.930 . S
C1019 H1007 0.930 . S
C1019 C1020 1.399 . S
C1019 C1024 1.399 . S
C1020 C1019 1.399 . S
C1020 C1021 1.376 . S
C1021 H1008 0.930 . S
C1021 C1020 1.376 . S
C1021 C1022 1.388 . S
C1022 H1009 0.930 . S
C1022 C1021 1.388 . S
C1022 C1023 1.390 . S
C1023 C1022 1.390 . S
C1023 C1024 1.394 . S
C1023 C1029 1.465 . S
C1024 C1019 1.399 . S
C1024 C1023 1.394 . S
C1024 C1025 1.516 . S
C1025 C1024 1.516 . S
C1025 C1026 1.502 . S
C1025 C1027 1.561 . S
C1025 C1028 1.526 . S
C1026 H1010 0.959 . S
C1026 H1011 0.959 . S
C1026 H1012 0.961 . S
C1026 C1025 1.502 . S
C1027 H1013 0.960 . S
C1027 H1014 0.961 . S
C1027 H1015 0.959 . S
C1027 C1025 1.561 . S
C1028 C1025 1.526 . S
C1028 C1029 1.396 . S
C1028 C1033 1.390 . S
C1029 C1023 1.465 . S
C1029 C1028 1.396 . S
C1029 C1030 1.399 . S
C1030 H1016 0.929 . S
C1030 C1029 1.399 . S
C1030 C1031 1.385 . S
C1031 H1017 0.931 . S
C1031 C1030 1.385 . S
C1031 C1032 1.389 . S
C1032 C1031 1.389 . S
C1032 C1033 1.387 . S
C1033 H1018 0.930 . S
C1033 C1028 1.390 . S
C1033 C1032 1.387 . S
H1034 C1046 0.930 . S
H1035 C1048 0.930 . S
H1036 C1049 0.930 . S
H1037 C1053 0.959 . S
H1038 C1053 0.959 . S
H1039 C1053 0.961 . S
H1040 C1054 0.960 . S
H1041 C1054 0.961 . S
H1042 C1054 0.959 . S
H1043 C1057 0.929 . S
H1044 C1058 0.931 . S
H1045 C1060 0.930 . S
C1046 H1034 0.930 . S
C1046 C1047 1.399 . S
C1046 C1051 1.399 . S
C1047 C1046 1.399 . S
C1047 C1048 1.376 . S
C1048 H1035 0.930 . S
C1048 C1047 1.376 . S
C1048 C1049 1.388 . S
C1049 H1036 0.930 . S
C1049 C1048 1.388 . S
C1049 C1050 1.390 . S
C1050 C1049 1.390 . S
C1050 C1051 1.394 . S
C1050 C1056 1.465 . S
C1051 C1046 1.399 . S
C1051 C1050 1.394 . S
C1051 C1052 1.516 . S
C1052 C1051 1.516 . S
C1052 C1053 1.502 . S
C1052 C1054 1.561 . S
C1052 C1055 1.526 . S
C1053 H1037 0.959 . S
C1053 H1038 0.959 . S
C1053 H1039 0.961 . S
C1053 C1052 1.502 . S
C1054 H1040 0.960 . S
C1054 H1041 0.961 . S
C1054 H1042 0.959 . S
C1054 C1052 1.561 . S
C1055 C1052 1.526 . S
C1055 C1056 1.396 . S
C1055 C1060 1.390 . S
C1056 C1050 1.465 . S
C1056 C1055 1.396 . S
C1056 C1057 1.399 . S
C1057 H1043 0.929 . S
C1057 C1056 1.399 . S
C1057 C1058 1.385 . S
C1058 H1044 0.931 . S
C1058 C1057 1.385 . S
C1058 C1059 1.389 . S
C1059 C1058 1.389 . S
C1059 C1060 1.387 . S
C1060 H1045 0.930 . S
C1060 C1055 1.390 . S
C1060 C1059 1.387 . S
H1061 C1073 0.930 . S
H1062 C1075 0.930 . S
H1063 C1076 0.930 . S
H1064 C1080 0.959 . S
H1065 C1080 0.959 . S
H1066 C1080 0.961 . S
H1067 C1081 0.960 . S
H1068 C1081 0.961 . S
H1069 C1081 0.959 . S
H1070 C1084 0.929 . S
H1071 C1085 0.931 . S
H1072 C1087 0.930 . S
C1073 H1061 0.930 . S
C1073 C1074 1.399 . S
C1073 C1078 1.399 . S
C1074 C1073 1.399 . S
C1074 C1075 1.376 . S
C1075 H1062 0.930 . S
C1075 C1074 1.376 . S
C1075 C1076 1.388 . S
C1076 H1063 0.930 . S
C1076 C1075 1.388 . S
C1076 C1077 1.390 . S
C1077 C1076 1.390 . S
C1077 C1078 1.394 . S
C1077 C1083 1.465 . S
C1078 C1073 1.399 . S
C1078 C1077 1.394 . S
C1078 C1079 1.516 . S
C1079 C1078 1.516 . S
C1079 C1080 1.502 . S
C1079 C1081 1.561 . S
C1079 C1082 1.526 . S
C1080 H1064 0.959 . S
C1080 H1065 0.959 . S
C1080 H1066 0.961 . S
C1080 C1079 1.502 . S
C1081 H1067 0.960 . S
C1081 H1068 0.961 . S
C1081 H1069 0.959 . S
C1081 C1079 1.561 . S
C1082 C1079 1.526 . S
C1082 C1083 1.396 . S
C1082 C1087 1.390 . S
C1083 C1077 1.465 . S
C1083 C1082 1.396 . S
C1083 C1084 1.399 . S
C1084 H1070 0.929 . S
C1084 C1083 1.399 . S
C1084 C1085 1.385 . S
C1085 H1071 0.931 . S
C1085 C1084 1.385 . S
C1085 C1086 1.389 . S
C1086 C1085 1.389 . S
C1086 C1087 1.387 . S
C1087 H1072 0.930 . S
C1087 C1082 1.390 . S
C1087 C1086 1.387 . S
C237 C6 1.559 . S
C249 C176 1.650 . S
C264 C190 1.663 . S
C276 C20 1.575 . S
C291 C34 1.592 . S
C303 C204 1.669 . S
C318 C218 1.666 . S
C330 C48 1.582 . S
C345 C118 1.616 . S
C357 C64 1.675 . S
C372 C78 1.668 . S
C384 C132 1.588 . S
C399 C146 1.619 . S
C411 C92 1.675 . S
C426 C106 1.674 . S
C438 C160 1.610 . S
C453 C7 1.680 . S
C465 C35 1.594 . S
C480 C21 1.597 . S
C492 C49 1.678 . S
C507 C63 1.440 . S
C519 C91 1.363 . S
C534 C77 1.381 . S
C546 C105 1.413 . S
C561 C147 1.599 . S
C573 C119 1.676 . S
C588 C133 1.666 . S
C600 C161 1.607 . S
C615 C203 1.383 . S
C627 C175 1.438 . S
C642 C189 1.370 . S
C654 C217 1.427 . S
C669 C93 1.528 . S
C681 C9 1.546 . S
C696 C107 1.543 . S
C708 C23 1.571 . S
C723 C37 1.571 . S
C735 C65 1.563 . S
C750 C51 1.565 . S
C762 C79 1.558 . S
C777 C205 1.517 . S
C789 C121 1.542 . S
C804 C135 1.552 . S
C816 C219 1.541 . S
C831 C177 1.555 . S
C843 C149 1.574 . S
C858 C163 1.573 . S
C870 C191 1.563 . S
C885 C8 1.553 . S
C897 C50 1.551 . S
C912 C36 1.538 . S
C924 C22 1.541 . S
C939 C62 1.564 . S
C951 C104 1.541 . S
C966 C76 1.549 . S
C978 C90 1.523 . S
C993 C162 1.538 . S
C1005 C120 1.542 . S
C1020 C134 1.538 . S
C1032 C148 1.539 . S
C1047 C216 1.539 . S
C1059 C174 1.565 . S
C1074 C188 1.540 . S
C1086 C202 1.564 . S
