# Generated by pormake.
# Topology rkf, (6)-cn, num edge types: 1
# Building blocks:
#     Node 0, Type 0, BuildingBlock: MIFKUJ_clean_sbu_0, # of connection points: 6
#     Node 1, Type 0, BuildingBlock: MIFKUJ_clean_sbu_0, # of connection points: 6
#     Node 2, Type 0, BuildingBlock: MIFKUJ_clean_sbu_0, # of connection points: 6
#     Node 3, Type 0, BuildingBlock: MIFKUJ_clean_sbu_0, # of connection points: 6
#     Node 4, Type 0, BuildingBlock: MIFKUJ_clean_sbu_0, # of connection points: 6
#     Node 5, Type 0, BuildingBlock: MIFKUJ_clean_sbu_0, # of connection points: 6
#     Edge 6, Type (0, 0), BuildingBlock: XIVTED_clean_linker_0, # of connection points: 2
#     Edge 7, Type (0, 0), BuildingBlock: XIVTED_clean_linker_0, # of connection points: 2
#     Edge 8, Type (0, 0), BuildingBlock: XIVTED_clean_linker_0, # of connection points: 2
#     Edge 9, Type (0, 0), BuildingBlock: XIVTED_clean_linker_0, # of connection points: 2
#     Edge 10, Type (0, 0), BuildingBlock: XIVTED_clean_linker_0, # of connection points: 2
#     Edge 11, Type (0, 0), BuildingBlock: XIVTED_clean_linker_0, # of connection points: 2
#     Edge 12, Type (0, 0), BuildingBlock: XIVTED_clean_linker_0, # of connection points: 2
#     Edge 13, Type (0, 0), BuildingBlock: XIVTED_clean_linker_0, # of connection points: 2
#     Edge 14, Type (0, 0), BuildingBlock: XIVTED_clean_linker_0, # of connection points: 2
#     Edge 15, Type (0, 0), BuildingBlock: XIVTED_clean_linker_0, # of connection points: 2
#     Edge 16, Type (0, 0), BuildingBlock: XIVTED_clean_linker_0, # of connection points: 2
#     Edge 17, Type (0, 0), BuildingBlock: XIVTED_clean_linker_0, # of connection points: 2
#     Edge 18, Type (0, 0), BuildingBlock: XIVTED_clean_linker_0, # of connection points: 2
#     Edge 19, Type (0, 0), BuildingBlock: XIVTED_clean_linker_0, # of connection points: 2
#     Edge 20, Type (0, 0), BuildingBlock: XIVTED_clean_linker_0, # of connection points: 2
#     Edge 21, Type (0, 0), BuildingBlock: XIVTED_clean_linker_0, # of connection points: 2
#     Edge 22, Type (0, 0), BuildingBlock: XIVTED_clean_linker_0, # of connection points: 2
#     Edge 23, Type (0, 0), BuildingBlock: XIVTED_clean_linker_0, # of connection points: 2
# Relax obj value: 0.342
# Max RMSD: 0.299
# Mean RMSD: 0.299
data_MOF--net-rkf--node1-MIFKUJ_clean_sbu_0--edge1-XIVTED_clean_linker_0
_symmetry_space_group_name_H-M    P1
_symmetry_Int_Tables_number       1
_symmetry_cell_setting            triclinic
loop_
_symmetry_equiv_pos_as_xyz
'x, y, z'
_cell_length_a     22.876734
_cell_length_b     22.815952
_cell_length_c     46.478434
_cell_angle_alpha  90.039321
_cell_angle_beta   90.180363
_cell_angle_gamma 120.17971
loop_
_atom_site_label
_atom_site_type_symbol
_atom_site_fract_x
_atom_site_fract_y
_atom_site_fract_z
_atom_type_partial_charge
Zn0 Zn 0.25542 0.02776 0.96377 0.0
Zn1 Zn 0.30027 0.00964 0.04704 0.0
C2 C 0.28391 0.9919 0.9105 0.0
O3 O 0.33458 0.05427 0.91345 0.0
C4 C 0.37273 0.13628 0.08093 0.0
O5 O 0.32257 0.14628 0.07429 0.0
O6 O 0.25657 0.10467 0.94092 0.0
O7 O 0.17552 0.98223 0.99038 0.0
O8 O 0.24935 0.03971 0.02362 0.0
C9 C 0.2022 0.10415 0.93445 0.0
O10 O 0.14558 0.06009 0.94701 0.0
O11 O 0.24447 0.96405 0.93171 0.0
C12 C 0.2618 0.93329 0.10058 0.0
O13 O 0.32721 0.97056 0.10515 0.0
O14 O 0.23849 0.93577 0.07591 0.0
O15 O 0.34622 0.98513 0.01619 0.0
O16 O 0.34509 0.05796 0.98473 0.0
O17 O 0.37373 0.08533 0.07048 0.0
C18 C 0.19031 -0.00632 0.01685 0.0
C19 C 0.36743 0.01934 0.99285 0.0
Zn20 Zn 0.29684 0.08677 0.38888 0.0
Zn21 Zn 0.37627 0.19538 0.31058 0.0
C22 C 0.2158 0.15479 0.3895 0.0
O23 O 0.2668 0.20602 0.37659 0.0
C24 C 0.49405 0.22551 0.27778 0.0
O25 O 0.48334 0.16731 0.28807 0.0
O26 O 0.28145 0.02132 0.42198 0.0
O27 O 0.32752 0.0683 0.34926 0.0
O28 O 0.34478 0.09553 0.30402 0.0
C29 C 0.27043 0.04316 0.4455 0.0
O30 O 0.27557 0.10316 0.4455 0.0
O31 O 0.21501 0.09886 0.3916 0.0
C32 C 0.31107 0.22561 0.2651 0.0
O33 O 0.35666 0.21734 0.25155 0.0
O34 O 0.30701 0.21847 0.29243 0.0
O35 O 0.38404 0.20097 0.35417 0.0
O36 O 0.37334 0.17815 0.40029 0.0
O37 O 0.46363 0.25309 0.28939 0.0
C38 C 0.30328 0.0619 0.32388 0.0
C39 C 0.40186 0.22006 0.37998 0.0
Zn40 Zn 0.9504 0.1966 0.61513 0.0
Zn41 Zn 0.02073 0.2002 0.69745 0.0
C42 C 0.05129 0.24734 0.57138 0.0
O43 O 0.04997 0.30352 0.5759 0.0
C44 C 0.90581 0.15821 0.73563 0.0
O45 O 0.89499 0.09675 0.73092 0.0
O46 O 0.86067 0.14766 0.59386 0.0
O47 O 0.9451 0.14908 0.65107 0.0
O48 O 0.9833 0.1043 0.68096 0.0
C49 C 0.85794 0.16302 0.56776 0.0
O50 O 0.90726 0.22046 0.55776 0.0
O51 O 0.01793 0.19705 0.58789 0.0
C52 C 0.10278 0.25441 0.74832 0.0
O53 O 0.07123 0.28912 0.74873 0.0
O54 O 0.09631 0.21848 0.72619 0.0
O55 O 0.04295 0.26186 0.66169 0.0
O56 O 0.98248 0.28831 0.63304 0.0
O57 O 0.95127 0.20717 0.72132 0.0
C58 C 0.95488 0.10107 0.65703 0.0
C59 C 0.01514 0.29729 0.65666 0.0
Zn60 Zn 0.92473 0.17296 0.06642 0.0
Zn61 Zn 0.88128 0.09608 0.984 0.0
C62 C 0.82062 0.05214 0.09196 0.0
O63 O 0.79215 0.08973 0.09301 0.0
C64 C 0.90986 0.19843 0.93973 0.0
O65 O 0.97323 0.22572 0.948 0.0
O66 O -0.01232 0.23044 0.09943 0.0
O67 O 0.97926 0.18838 0.02977 0.0
O68 O 0.98091 0.1333 0.99192 0.0
C69 C 0.97173 0.21381 0.12569 0.0
O70 O 0.90895 0.16848 0.1318 0.0
O71 O 0.87867 0.07616 0.08055 0.0
C72 C 0.79574 0.9793 0.94805 0.0
O73 O 0.76626 0.01493 0.94295 0.0
O74 O 0.84251 0.00052 0.96697 0.0
O75 O 0.85143 0.10797 0.02347 0.0
O76 O 0.84623 0.18266 0.05118 0.0
O77 O 0.86449 0.1488 0.95377 0.0
C78 C -0.0092 0.14422 0.01889 0.0
C79 C 0.8248 0.14382 0.0291 0.0
Zn80 Zn 0.8166 0.74636 0.29592 0.0
Zn81 Zn 0.76751 0.77233 0.38195 0.0
C82 C 0.74855 0.73069 0.24439 0.0
O83 O 0.76643 0.68458 0.24134 0.0
C84 C 0.82983 0.70177 0.41535 0.0
O85 O 0.87832 0.72047 0.39633 0.0
O86 O 0.89429 0.75387 0.27078 0.0
O87 O 0.84274 0.81469 0.32754 0.0
O88 O 0.84986 0.86045 0.36967 0.0
C89 C 0.95845 0.78828 0.27332 0.0
O90 O 0.98529 0.82234 0.29718 0.0
O91 O 0.75935 0.76137 0.26831 0.0
C92 C 0.69146 0.79156 0.42683 0.0
O93 O 0.68901 0.73736 0.43782 0.0
O94 O 0.71145 0.80782 0.40098 0.0
O95 O 0.73522 0.71946 0.34456 0.0
O96 O 0.76071 0.65799 0.31662 0.0
O97 O 0.78548 0.71922 0.41217 0.0
C98 C 0.86719 0.86687 0.34332 0.0
C99 C 0.73457 0.66428 0.3398 0.0
Zn100 Zn 0.88168 0.71373 0.72988 0.0
Zn101 Zn 0.95946 0.68944 0.65958 0.0
C102 C 0.03473 0.84554 0.72654 0.0
O103 O 0.05222 0.88409 0.70357 0.0
C104 C 0.85762 0.59631 0.61726 0.0
O105 O 0.81175 0.59682 0.63401 0.0
O106 O 0.84703 0.71761 0.76978 0.0
O107 O 0.82219 0.72288 0.69876 0.0
O108 O 0.89279 0.70453 0.67688 0.0
C109 C 0.80109 0.73259 0.77402 0.0
O110 O 0.77081 0.74126 0.75173 0.0
O111 O 0.97545 0.79446 0.72786 0.0
C112 C 0.07012 0.75784 0.62237 0.0
O113 O 0.0589 0.69544 0.62159 0.0
O114 O 0.03814 0.77248 0.6408 0.0
O115 O 0.9796 0.65002 0.69422 0.0
O116 O 0.89888 0.63325 0.72698 0.0
O117 O 0.91845 0.62391 0.62608 0.0
C118 C 0.84725 0.71957 0.67509 0.0
C119 C 0.94622 0.62375 0.71745 0.0
H120 H 0.04009 0.15254 0.073 0.0
H121 H 0.06342 0.88137 0.01181 0.0
H122 H 0.91715 0.00777 0.008 0.0
H123 H 0.19724 0.02884 0.0738 0.0
H124 H 0.96731 0.86729 0.03969 0.0
H125 H 0.04639 0.06245 0.09869 0.0
C126 C 0.0135 0.10145 0.06439 0.0
C127 C 0.98187 0.08815 0.03742 0.0
C128 C 0.01778 0.90104 0.0479 0.0
C129 C -0.00935 0.98588 0.06596 0.0
C130 C 0.07271 0.90951 0.03171 0.0
C131 C 0.13786 0.96142 0.03904 0.0
C132 C 0.0292 0.94991 0.06908 0.0
C133 C 0.14723 0.99253 0.06601 0.0
C134 C 0.01617 0.04973 0.07924 0.0
C135 C 0.94551 0.02089 0.02785 0.0
N136 N 0.09298 0.98754 0.07994 0.0
N137 N 0.95201 0.97241 0.0418 0.0
H138 H 0.93366 0.98998 0.37076 0.0
H139 H 0.19941 -0.00321 0.36099 0.0
H140 H 0.91186 0.89558 0.28787 0.0
H141 H 0.24631 0.08865 0.27707 0.0
H142 H 0.09182 -0.00629 0.3593 0.0
H143 H 0.04462 0.08147 0.35616 0.0
C144 C 0.95136 0.98942 0.34923 0.0
C145 C 0.91751 0.93231 0.33149 0.0
C146 C 0.12717 0.01778 0.34181 0.0
C147 C 0.04307 0.03353 0.31566 0.0
C148 C 0.18797 0.01866 0.34266 0.0
C149 C 0.23442 0.04984 0.32061 0.0
C150 C 0.11167 0.04578 0.31811 0.0
C151 C 0.21411 0.0703 0.29578 0.0
C152 C 0.01396 0.04223 0.34068 0.0
C153 C 0.93997 0.93617 0.30314 0.0
N154 N 0.15363 0.06791 0.29509 0.0
N155 N 0.00343 0.98505 0.29629 0.0
H156 H 0.74869 0.75111 0.66383 0.0
H157 H 0.03035 0.04336 0.64349 0.0
H158 H 0.9157 0.74553 0.62404 0.0
H159 H 0.84392 0.03774 0.62291 0.0
H160 H -0.01102 0.93541 0.61888 0.0
H161 H 0.76397 0.8395 0.63047 0.0
C162 C 0.78711 0.76677 0.64738 0.0
C163 C 0.83445 0.7451 0.6481 0.0
C164 C 0.95764 0.95857 0.61868 0.0
C165 C 0.85444 0.84815 0.61108 0.0
C166 C 0.98119 0.01982 0.63312 0.0
C167 C 0.93902 0.04717 0.63615 0.0
C168 C 0.88991 0.92276 0.60917 0.0
C169 C 0.87686 0.01658 0.62159 0.0
C170 C 0.79575 0.81717 0.62808 0.0
C171 C 0.88096 0.76443 0.62545 0.0
N172 N 0.85275 0.95429 0.60963 0.0
N173 N 0.8919 0.81726 0.60846 0.0
H174 H 0.11415 0.14961 0.92394 0.0
H175 H 0.18079 0.19466 0.75662 0.0
H176 H 0.28194 0.14123 0.88637 0.0
H177 H 0.08946 0.29282 0.80241 0.0
H178 H 0.21489 0.16898 0.80299 0.0
H179 H 0.09989 0.19685 0.87887 0.0
C180 C 0.14862 0.15869 0.90634 0.0
C181 C 0.19956 0.14192 0.90899 0.0
C182 C 0.18825 0.19702 0.80276 0.0
C183 C 0.18229 0.19401 0.85703 0.0
C184 C 0.16876 0.21165 0.77632 0.0
C185 C 0.13219 0.24598 0.77552 0.0
C186 C 0.16974 0.21553 0.82856 0.0
C187 C 0.11774 0.26647 0.80183 0.0
C188 C 0.14046 0.18558 0.88062 0.0
C189 C 0.24251 0.15422 0.88537 0.0
N190 N 0.13564 0.2501 0.82719 0.0
N191 N 0.23224 0.17849 0.86023 0.0
H192 H 0.18466 0.20538 0.27986 0.0
H193 H 0.11006 0.28263 0.11916 0.0
H194 H 0.32825 0.27263 0.21027 0.0
H195 H 0.9549 0.18711 0.1836 0.0
H196 H 0.19456 0.29647 0.15503 0.0
H197 H 0.10367 0.21415 0.24762 0.0
C198 C 0.19951 0.2228 0.258 0.0
C199 C 0.2632 0.23763 0.24773 0.0
C200 C 0.14211 0.27313 0.16145 0.0
C201 C 0.17105 0.24805 0.21077 0.0
C202 C 0.09378 0.26564 0.14096 0.0
C203 C 0.02498 0.23326 0.14821 0.0
C204 C 0.12181 0.24813 0.18953 0.0
C205 C 0.00723 0.21204 0.1769 0.0
C206 C 0.15321 0.22759 0.23956 0.0
C207 C 0.27956 0.25991 0.21912 0.0
N208 N 0.0551 0.21931 0.19639 0.0
N209 N 0.23393 0.26415 0.20174 0.0
H210 H 0.84379 0.17584 0.50995 0.0
H211 H 0.65618 0.77665 0.48377 0.0
H212 H 0.76806 0.02826 0.57835 0.0
H213 H 0.72942 0.92432 0.4154 0.0
H214 H 0.68009 0.86695 0.51822 0.0
H215 H 0.78604 0.08429 0.47498 0.0
C216 C 0.81392 0.12432 0.51771 0.0
C217 C 0.81152 0.10987 0.54721 0.0
C218 C 0.6899 0.87951 0.49562 0.0
C219 C 0.74579 0.0043 0.50706 0.0
C220 C 0.67596 0.82782 0.47586 0.0
C221 C 0.69132 0.84278 0.44659 0.0
C222 C 0.7199 0.94696 0.48615 0.0
C223 C 0.71686 0.9102 0.43771 0.0
C224 C 0.7811 0.07192 0.49766 0.0
C225 C 0.77179 0.04197 0.55587 0.0
N226 N 0.73124 0.95982 0.45745 0.0
N227 N 0.74135 0.99173 0.53589 0.0
H228 H 0.69208 0.91477 0.90965 0.0
H229 H 0.87052 0.74335 0.82399 0.0
H230 H 0.87243 0.91833 0.93982 0.0
H231 H 0.70437 0.7625 0.79096 0.0
H232 H 0.85984 0.78841 0.87028 0.0
H233 H 0.68357 0.83979 0.87046 0.0
C234 C 0.7294 0.89894 0.90831 0.0
C235 C 0.78353 0.92366 0.92792 0.0
C236 C 0.82524 0.782 0.853 0.0
C237 C 0.77455 0.83813 0.88263 0.0
C238 C 0.83115 0.75607 0.82656 0.0
C239 C 0.78893 0.75002 0.80335 0.0
C240 C 0.77657 0.80181 0.85633 0.0
C241 C 0.73864 0.76703 0.80806 0.0
C242 C 0.72461 0.8562 0.88581 0.0
C243 C 0.82998 0.90079 0.92517 0.0
N244 N 0.7343 0.79265 0.83388 0.0
N245 N 0.82495 0.86006 0.90269 0.0
H246 H 0.919 0.74673 0.21752 0.0
H247 H 0.2971 0.92417 0.15601 0.0
H248 H 0.09748 0.8518 0.27075 0.0
H249 H 0.12194 0.86417 0.10209 0.0
H250 H 0.22336 0.88044 0.19788 0.0
H251 H -0.00874 0.77235 0.1752 0.0
C252 C 0.97337 0.77447 0.22043 0.0
C253 C 0.00199 0.79735 0.2479 0.0
C254 C 0.20091 0.87634 0.17688 0.0
C255 C 0.08527 0.82695 0.19922 0.0
C256 C 0.24302 0.90109 0.15284 0.0
C257 C 0.21596 0.89837 0.12533 0.0
C258 C 0.13079 0.84819 0.17361 0.0
C259 C 0.14528 0.86756 0.12279 0.0
C260 C 0.01461 0.78934 0.19616 0.0
C261 C 0.07294 0.83328 0.2501 0.0
N262 N 0.10527 0.84405 0.1466 0.0
N263 N 0.11197 0.84704 0.22615 0.0
H264 H 0.09505 0.88773 0.61283 0.0
H265 H 0.24861 0.91383 0.45508 0.0
H266 H 0.13216 0.7348 0.57709 0.0
H267 H 0.23915 0.07782 0.49693 0.0
H268 H 0.20564 0.8467 0.49932 0.0
H269 H 0.14833 0.9583 0.57046 0.0
C270 C 0.11516 0.86933 0.59631 0.0
C271 C 0.10917 0.80522 0.59868 0.0
C272 C 0.21344 0.89759 0.49882 0.0
C273 C 0.1693 0.88532 0.54974 0.0
C274 C 0.23799 0.9359 0.47355 0.0
C275 C 0.24771 0.00168 0.47219 0.0
C276 C 0.19812 0.9251 0.52283 0.0
C277 C 0.23268 0.02745 0.49684 0.0
C278 C 0.14535 0.90952 0.57201 0.0
C279 C 0.13568 0.78389 0.57633 0.0
N280 N 0.2085 0.98915 0.52097 0.0
N281 N 0.16405 0.82351 0.55279 0.0
H282 H 0.46725 0.14311 0.97424 0.0
H283 H 0.74491 0.03652 0.99567 0.0
H284 H 0.42493 0.93989 0.99239 0.0
H285 H 0.77247 0.22902 0.02386 0.0
H286 H 0.63832 0.01016 0.97316 0.0
H287 H 0.58779 0.18059 0.97155 0.0
C288 C 0.48306 0.10593 0.97682 0.0
C289 C 0.43648 0.0385 0.98425 0.0
C290 C 0.6686 0.05895 0.98357 0.0
C291 C 0.5733 0.08107 0.98079 0.0
C292 C 0.7297 0.07441 0.9962 0.0
C293 C 0.7675 0.13514 0.01156 0.0
C294 C 0.64475 0.10424 0.98659 0.0
C295 C 0.7444 0.18144 0.01238 0.0
C296 C 0.55174 0.12755 0.97535 0.0
C297 C 0.45956 0.99251 0.98719 0.0
N298 N 0.68367 0.16461 1.00033 0.0
N299 N 0.52671 0.01485 0.98577 0.0
H300 H 0.5298 0.25621 0.39527 0.0
H301 H 0.64359 0.64556 0.38142 0.0
H302 H 0.39703 0.3355 0.37925 0.0
H303 H 0.75485 0.55665 0.34521 0.0
H304 H 0.5692 0.53835 0.40561 0.0
H305 H 0.62526 0.37303 0.40036 0.0
C306 C 0.52096 0.29847 0.3934 0.0
C307 C 0.45691 0.28773 0.38625 0.0
C308 C 0.61138 0.54332 0.39313 0.0
C309 C 0.56333 0.41884 0.39287 0.0
C310 C 0.65368 0.60417 0.3793 0.0
C311 C 0.70351 0.60859 0.36049 0.0
C312 C 0.61974 0.48743 0.38813 0.0
C313 C 0.71539 0.55418 0.35884 0.0
C314 C 0.57481 0.36445 0.39651 0.0
C315 C 0.44654 0.34282 0.38427 0.0
N316 N 0.67269 0.49497 0.37206 0.0
N317 N 0.49965 0.40654 0.38733 0.0
H318 H 0.89334 0.28191 0.67102 0.0
H319 H 0.06502 0.6295 0.7292 0.0
H320 H 0.10204 0.38006 0.69781 0.0
H321 H 0.84918 0.49892 0.73555 0.0
H322 H 0.0792 0.53108 0.73363 0.0
H323 H 0.87205 0.34585 0.70729 0.0
C324 C 0.93458 0.31694 0.68477 0.0
C325 C 0.00014 0.32855 0.68079 0.0
C326 C 0.02871 0.52375 0.73513 0.0
C327 C 0.97675 0.40242 0.72196 0.0
C328 C 0.02078 0.58002 0.73251 0.0
C329 C 0.95581 0.57126 0.73079 0.0
C330 C 0.97106 0.45872 0.73451 0.0
C331 C 0.90006 0.50702 0.73594 0.0
C332 C 0.92232 0.35265 0.70581 0.0
C333 C 0.0513 0.37183 0.69978 0.0
N334 N 0.90872 0.45243 0.73652 0.0
N335 N 0.03906 0.40899 0.71909 0.0
H336 H 0.47398 0.11936 0.10343 0.0
H337 H 0.496 0.3262 0.24458 0.0
H338 H 0.37817 0.23993 0.11322 0.0
H339 H 0.53944 0.16278 0.2412 0.0
H340 H 0.49082 0.32552 0.1921 0.0
H341 H 0.53369 0.16504 0.14881 0.0
C342 C 0.46646 0.15651 0.11479 0.0
C343 C 0.41967 0.17462 0.1048 0.0
C344 C 0.50319 0.29102 0.20285 0.0
C345 C 0.48806 0.227 0.15686 0.0
C346 C 0.5066 0.29156 0.23285 0.0
C347 C 0.51562 0.24263 0.24741 0.0
C348 C 0.50991 0.24194 0.18735 0.0
C349 C 0.53047 0.20016 0.23096 0.0
C350 C 0.50062 0.18251 0.14075 0.0
C351 C 0.41286 0.22365 0.12033 0.0
N352 N 0.5257 0.19979 0.20181 0.0
N353 N 0.44581 0.24732 0.14584 0.0
H354 H 0.1084 0.06205 0.42115 0.0
H355 H 0.12196 0.34117 0.52953 0.0
H356 H 0.23151 0.27732 0.40618 0.0
H357 H 0.03634 0.12901 0.54998 0.0
H358 H 0.15106 0.31896 0.48165 0.0
H359 H 0.06452 0.08578 0.46464 0.0
C360 C 0.12512 0.11432 0.42664 0.0
C361 C 0.17479 0.16781 0.41028 0.0
C362 C 0.12603 0.27741 0.49668 0.0
C363 C 0.1256 0.19529 0.46036 0.0
C364 C 0.10987 0.29011 0.52407 0.0
C365 C 0.07692 0.23695 0.54385 0.0
C366 C 0.10855 0.21102 0.48897 0.0
C367 C 0.06208 0.1717 0.53554 0.0
C368 C 0.10052 0.12784 0.45165 0.0
C369 C 0.19384 0.23448 0.41828 0.0
N370 N 0.07775 0.16058 0.50872 0.0
N371 N 0.16999 0.24641 0.44304 0.0
H372 H 0.80868 0.0687 0.77251 0.0
H373 H -0.00743 0.29761 0.90182 0.0
H374 H 0.94928 0.28222 0.7607 0.0
H375 H 0.78992 0.12742 0.91049 0.0
H376 H 0.9733 0.29859 0.8501 0.0
H377 H 0.7935 0.0917 0.82246 0.0
C378 C 0.8351 0.12061 0.78019 0.0
C379 C 0.88166 0.17328 0.7626 0.0
C380 C 0.93247 0.26212 0.86346 0.0
C381 C 0.86572 0.1997 0.81982 0.0
C382 C 0.94351 0.2615 0.893 0.0
C383 C 0.89346 0.21134 0.91043 0.0
C384 C 0.87156 0.21135 0.85128 0.0
C385 C 0.83056 0.16619 0.89782 0.0
C386 C 0.8264 0.13375 0.80872 0.0
C387 C 0.91392 0.23974 0.77363 0.0
N388 N 0.82202 0.16608 0.86889 0.0
N389 N 0.90686 0.25083 0.80179 0.0
H390 H 0.85779 0.95523 0.09162 0.0
H391 H 0.70269 0.82039 0.24291 0.0
H392 H 0.71795 0.00601 0.13073 0.0
H393 H 0.764 0.70835 0.18792 0.0
H394 H 0.70365 0.88609 0.20135 0.0
H395 H 0.82113 0.8613 0.12554 0.0
C396 C 0.8187 0.94596 0.10703 0.0
C397 C 0.79161 0.98897 0.10868 0.0
C398 C 0.71531 0.84601 0.19825 0.0
C399 C 0.75001 0.88252 0.14753 0.0
C400 C 0.71477 0.80851 0.22196 0.0
C401 C 0.7339 0.75933 0.21887 0.0
C402 C 0.73625 0.83495 0.17144 0.0
C403 C 0.74915 0.74602 0.19126 0.0
C404 C 0.79758 0.89226 0.12628 0.0
C405 C 0.74061 0.97442 0.12886 0.0
N406 N 0.75136 0.78466 0.16865 0.0
N407 N 0.72234 0.92314 0.14788 0.0
H408 H 0.93079 0.68337 0.43817 0.0
H409 H 0.73912 0.55737 0.58805 0.0
H410 H 0.72527 0.63552 0.45288 0.0
H411 H 0.94605 0.60797 0.57486 0.0
H412 H 0.72634 0.56377 0.53618 0.0
H413 H 0.93095 0.6357 0.48542 0.0
C414 C 0.88544 0.66207 0.45114 0.0
C415 C 0.8285 0.66491 0.44183 0.0
C416 C 0.77425 0.57238 0.54457 0.0
C417 C 0.82828 0.61039 0.49589 0.0
C418 C 0.78147 0.56835 0.57424 0.0
C419 C 0.84412 0.58335 0.58597 0.0
C420 C 0.8302 0.59205 0.52645 0.0
C421 C 0.89701 0.59688 0.56687 0.0
C422 C 0.88555 0.63491 0.47814 0.0
C423 C 0.77092 0.63594 0.45945 0.0
N424 N 0.88921 0.60207 0.53814 0.0
N425 N 0.77258 0.61069 0.4857 0.0
H426 H 0.15077 0.96583 0.73707 0.0
H427 H 0.18968 0.86151 0.89602 0.0
H428 H 0.02841 0.76415 0.77126 0.0
H429 H 0.32843 0.05576 0.8587 0.0
H430 H 0.13942 0.82064 0.84854 0.0
H431 H 0.22426 -0.00368 0.77937 0.0
C432 C 0.1398 0.9277 0.75332 0.0
C433 C 0.08267 0.8627 0.75087 0.0
C434 C 0.18154 0.87191 0.85062 0.0
C435 C 0.1668 0.89712 0.79933 0.0
C436 C 0.21036 0.89517 0.87774 0.0
C437 C 0.26273 0.96232 0.8814 0.0
C438 C 0.20446 0.91645 0.82706 0.0
C439 C 0.28787 0.00364 0.85692 0.0
C440 C 0.18189 0.94512 0.77746 0.0
C441 C 0.0711 0.81528 0.77254 0.0
N442 N 0.25771 0.98043 0.83087 0.0
N443 N 0.11246 0.83361 0.79595 0.0
loop_
_geom_bond_atom_site_label_1
_geom_bond_atom_site_label_2
_geom_bond_distance
_geom_bond_site_symmetry_2
_ccdc_geom_bond_type
Zn0 O6 1.969 . S
Zn0 O7 1.965 . S
Zn0 O11 2.024 1_545 S
Zn0 O16 1.969 . S
Zn1 O8 1.969 . S
Zn1 O14 1.969 1_545 S
Zn1 O15 1.964 1_545 S
Zn1 O17 2.024 . S
C2 O3 1.229 . S
C2 O11 1.058 . S
O3 C2 1.229 . S
C4 O5 1.229 . S
C4 O17 1.058 . S
O5 C4 1.229 . S
O6 Zn0 1.969 . S
O6 C9 1.267 . S
O7 Zn0 1.965 . S
O7 C18 1.260 1_556 S
O8 Zn1 1.969 . S
O8 C18 1.258 . S
C9 O6 1.267 . S
C9 O10 1.228 . S
O10 C9 1.228 . S
O11 Zn0 2.024 1_565 S
O11 C2 1.058 . S
C12 O13 1.228 . S
C12 O14 1.267 . S
O13 C12 1.228 . S
O14 Zn1 1.969 1_565 S
O14 C12 1.267 . S
O15 Zn1 1.964 1_565 S
O15 C19 1.260 1_565 S
O16 Zn0 1.969 . S
O16 C19 1.258 1_556 S
O17 Zn1 2.024 . S
O17 C4 1.058 . S
C18 O7 1.260 1_554 S
C18 O8 1.258 . S
C19 O15 1.260 1_545 S
C19 O16 1.258 1_554 S
Zn20 O26 1.969 . S
Zn20 O27 1.965 . S
Zn20 O31 2.024 . S
Zn20 O36 1.969 . S
Zn21 O28 1.969 . S
Zn21 O34 1.969 . S
Zn21 O35 1.965 . S
Zn21 O37 2.024 . S
C22 O23 1.229 . S
C22 O31 1.058 . S
O23 C22 1.229 . S
C24 O25 1.229 . S
C24 O37 1.058 . S
O25 C24 1.229 . S
O26 Zn20 1.969 . S
O26 C29 1.267 . S
O27 Zn20 1.965 . S
O27 C38 1.260 . S
O28 Zn21 1.969 . S
O28 C38 1.258 . S
C29 O26 1.267 . S
C29 O30 1.228 . S
O30 C29 1.228 . S
O31 Zn20 2.024 . S
O31 C22 1.058 . S
C32 O33 1.228 . S
C32 O34 1.267 . S
O33 C32 1.228 . S
O34 Zn21 1.969 . S
O34 C32 1.267 . S
O35 Zn21 1.965 . S
O35 C39 1.260 . S
O36 Zn20 1.969 . S
O36 C39 1.258 . S
O37 Zn21 2.024 . S
O37 C24 1.058 . S
C38 O27 1.260 . S
C38 O28 1.258 . S
C39 O35 1.260 . S
C39 O36 1.258 . S
Zn40 O46 1.969 . S
Zn40 O47 1.965 . S
Zn40 O51 2.024 1_655 S
Zn40 O56 1.969 1_655 S
Zn41 O48 1.969 . S
Zn41 O54 1.969 . S
Zn41 O55 1.965 . S
Zn41 O57 2.024 1_455 S
C42 O43 1.229 . S
C42 O51 1.058 . S
O43 C42 1.229 . S
C44 O45 1.229 . S
C44 O57 1.058 . S
O45 C44 1.229 . S
O46 Zn40 1.969 . S
O46 C49 1.267 . S
O47 Zn40 1.965 . S
O47 C58 1.260 . S
O48 Zn41 1.969 . S
O48 C58 1.258 1_455 S
C49 O46 1.267 . S
C49 O50 1.228 . S
O50 C49 1.228 . S
O51 Zn40 2.024 1_455 S
O51 C42 1.058 . S
C52 O53 1.228 . S
C52 O54 1.267 . S
O53 C52 1.228 . S
O54 Zn41 1.969 . S
O54 C52 1.267 . S
O55 Zn41 1.965 . S
O55 C59 1.260 . S
O56 Zn40 1.969 1_455 S
O56 C59 1.258 . S
O57 Zn41 2.024 1_655 S
O57 C44 1.058 . S
C58 O47 1.260 . S
C58 O48 1.258 1_655 S
C59 O55 1.260 . S
C59 O56 1.258 . S
Zn60 O66 1.969 . S
Zn60 O67 1.965 . S
Zn60 O71 2.024 1_545 S
Zn60 O76 1.969 . S
Zn61 O68 1.969 . S
Zn61 O74 1.969 1_545 S
Zn61 O75 1.964 . S
Zn61 O77 2.024 . S
C62 O63 1.229 . S
C62 O71 1.058 . S
O63 C62 1.229 . S
C64 O65 1.229 . S
C64 O77 1.058 . S
O65 C64 1.229 . S
O66 Zn60 1.969 . S
O66 C69 1.267 . S
O67 Zn60 1.965 . S
O67 C78 1.260 . S
O68 Zn61 1.969 . S
O68 C78 1.258 1_556 S
C69 O66 1.267 . S
C69 O70 1.228 . S
O70 C69 1.228 . S
O71 Zn60 2.024 1_565 S
O71 C62 1.058 . S
C72 O73 1.228 . S
C72 O74 1.267 . S
O73 C72 1.228 . S
O74 Zn61 1.969 1_565 S
O74 C72 1.267 . S
O75 Zn61 1.964 . S
O75 C79 1.261 1_556 S
O76 Zn60 1.969 . S
O76 C79 1.258 . S
O77 Zn61 2.024 . S
O77 C64 1.058 . S
C78 O67 1.260 . S
C78 O68 1.258 1_554 S
C79 O75 1.261 1_554 S
C79 O76 1.258 . S
Zn80 O86 1.969 . S
Zn80 O87 1.965 . S
Zn80 O91 2.024 . S
Zn80 O96 1.969 . S
Zn81 O88 1.969 . S
Zn81 O94 1.969 . S
Zn81 O95 1.965 . S
Zn81 O97 2.024 . S
C82 O83 1.229 . S
C82 O91 1.058 . S
O83 C82 1.229 . S
C84 O85 1.229 . S
C84 O97 1.058 . S
O85 C84 1.229 . S
O86 Zn80 1.969 . S
O86 C89 1.267 . S
O87 Zn80 1.965 . S
O87 C98 1.260 . S
O88 Zn81 1.969 . S
O88 C98 1.258 . S
C89 O86 1.267 . S
C89 O90 1.228 . S
O90 C89 1.228 . S
O91 Zn80 2.024 . S
O91 C82 1.058 . S
C92 O93 1.228 . S
C92 O94 1.267 . S
O93 C92 1.228 . S
O94 Zn81 1.969 . S
O94 C92 1.267 . S
O95 Zn81 1.965 . S
O95 C99 1.260 . S
O96 Zn80 1.969 . S
O96 C99 1.258 . S
O97 Zn81 2.024 . S
O97 C84 1.058 . S
C98 O87 1.260 . S
C98 O88 1.258 . S
C99 O95 1.260 . S
C99 O96 1.258 . S
Zn100 O106 1.969 . S
Zn100 O107 1.965 . S
Zn100 O111 2.024 1_655 S
Zn100 O116 1.969 1_655 S
Zn101 O108 1.969 . S
Zn101 O114 1.969 . S
Zn101 O115 1.965 . S
Zn101 O117 2.024 1_455 S
C102 O103 1.229 . S
C102 O111 1.058 . S
O103 C102 1.229 . S
C104 O105 1.229 . S
C104 O117 1.058 . S
O105 C104 1.229 . S
O106 Zn100 1.969 . S
O106 C109 1.267 . S
O107 Zn100 1.965 . S
O107 C118 1.260 . S
O108 Zn101 1.969 . S
O108 C118 1.258 1_455 S
C109 O106 1.267 . S
C109 O110 1.228 . S
O110 C109 1.228 . S
O111 Zn100 2.024 1_455 S
O111 C102 1.058 . S
C112 O113 1.228 . S
C112 O114 1.267 . S
O113 C112 1.228 . S
O114 Zn101 1.969 . S
O114 C112 1.267 . S
O115 Zn101 1.965 . S
O115 C119 1.260 . S
O116 Zn100 1.969 1_455 S
O116 C119 1.258 . S
O117 Zn101 2.024 1_655 S
O117 C104 1.058 . S
C118 O107 1.260 . S
C118 O108 1.258 1_655 S
C119 O115 1.260 . S
C119 O116 1.258 . S
H120 C126 0.930 . S
H121 C130 0.930 1_565 S
H122 C135 0.929 1_565 S
H123 C133 0.929 . S
H124 C128 0.929 1_565 S
H125 C134 0.929 . S
C126 H120 0.930 . S
C126 C127 1.367 . S
C126 C134 1.378 1_655 S
C127 C126 1.367 . S
C127 C135 1.433 1_554 S
C128 H124 0.929 1_545 S
C128 C130 1.378 . S
C128 C132 1.350 1_556 S
C129 C132 1.463 . S
C129 C134 1.350 . S
C129 N137 1.427 1_454 S
C130 H121 0.930 1_545 S
C130 C128 1.378 . S
C130 C131 1.367 1_556 S
C131 C130 1.367 1_554 S
C131 C133 1.433 . S
C132 C128 1.350 1_554 S
C132 C129 1.463 . S
C132 N136 1.427 . S
C133 H123 0.929 . S
C133 C131 1.433 . S
C133 N136 1.384 . S
C134 H125 0.929 . S
C134 C126 1.378 1_455 S
C134 C129 1.350 . S
C135 H122 0.929 1_545 S
C135 C127 1.433 1_556 S
C135 N137 1.384 . S
N136 C132 1.427 . S
N136 C133 1.384 . S
N137 C129 1.427 1_656 S
N137 C135 1.384 . S
H138 C144 0.930 . S
H139 C148 0.930 . S
H140 C153 0.929 . S
H141 C151 0.929 . S
H142 C146 0.929 . S
H143 C152 0.929 . S
C144 H138 0.930 . S
C144 C145 1.367 . S
C144 C152 1.378 1_655 S
C145 C144 1.367 . S
C145 C153 1.433 . S
C146 H142 0.929 . S
C146 C148 1.378 . S
C146 C150 1.350 . S
C147 C150 1.463 1_565 S
C147 C152 1.350 . S
C147 N155 1.427 . S
C148 H139 0.930 . S
C148 C146 1.378 . S
C148 C149 1.367 . S
C149 C148 1.367 . S
C149 C151 1.433 . S
C150 C146 1.350 . S
C150 C147 1.463 1_545 S
C150 N154 1.427 . S
C151 H141 0.929 . S
C151 C149 1.433 . S
C151 N154 1.384 . S
C152 H143 0.929 . S
C152 C144 1.378 1_455 S
C152 C147 1.350 . S
C153 H140 0.929 . S
C153 C145 1.433 . S
C153 N155 1.384 1_655 S
N154 C150 1.427 . S
N154 C151 1.384 . S
N155 C147 1.427 . S
N155 C153 1.384 1_455 S
H156 C162 0.930 . S
H157 C166 0.930 . S
H158 C171 0.929 . S
H159 C169 0.929 . S
H160 C164 0.929 . S
H161 C170 0.929 . S
C162 H156 0.930 . S
C162 C163 1.367 . S
C162 C170 1.378 . S
C163 C162 1.367 . S
C163 C171 1.433 1_655 S
C164 H160 0.929 . S
C164 C166 1.378 . S
C164 C168 1.350 . S
C165 C168 1.463 1_665 S
C165 C170 1.350 . S
C165 N173 1.427 1_655 S
C166 H157 0.930 . S
C166 C164 1.378 . S
C166 C167 1.384 . S
C167 C166 1.384 . S
C167 C169 1.425 1_455 S
C168 C164 1.350 . S
C168 C165 1.463 1_445 S
C168 N172 1.427 1_455 S
C169 H159 0.929 . S
C169 C167 1.425 1_655 S
C169 N172 1.384 . S
C170 H161 0.929 . S
C170 C162 1.378 . S
C170 C165 1.350 . S
C171 H158 0.929 . S
C171 C163 1.433 1_455 S
C171 N173 1.384 . S
N172 C168 1.427 1_655 S
N172 C169 1.384 . S
N173 C165 1.427 1_455 S
N173 C171 1.384 . S
H174 C180 0.930 . S
H175 C184 0.930 . S
H176 C189 0.929 . S
H177 C187 0.929 . S
H178 C182 0.929 . S
H179 C188 0.929 . S
C180 H174 0.930 . S
C180 C181 1.367 . S
C180 C188 1.378 . S
C181 C180 1.367 . S
C181 C189 1.433 . S
C182 H178 0.929 . S
C182 C184 1.378 . S
C182 C186 1.350 . S
C183 C186 1.463 . S
C183 C188 1.350 . S
C183 N191 1.427 . S
C184 H175 0.930 . S
C184 C182 1.378 . S
C184 C185 1.367 . S
C185 C184 1.367 . S
C185 C187 1.433 . S
C186 C182 1.350 . S
C186 C183 1.463 . S
C186 N190 1.427 . S
C187 H177 0.929 . S
C187 C185 1.433 . S
C187 N190 1.384 . S
C188 H179 0.929 . S
C188 C180 1.378 . S
C188 C183 1.350 . S
C189 H176 0.929 . S
C189 C181 1.433 . S
C189 N191 1.384 . S
N190 C186 1.427 . S
N190 C187 1.384 . S
N191 C183 1.427 . S
N191 C189 1.384 . S
H192 C198 0.930 . S
H193 C202 0.930 . S
H194 C207 0.929 . S
H195 C205 0.929 . S
H196 C200 0.929 . S
H197 C206 0.929 . S
C198 H192 0.930 . S
C198 C199 1.367 . S
C198 C206 1.378 . S
C199 C198 1.367 . S
C199 C207 1.433 . S
C200 H196 0.929 . S
C200 C202 1.378 . S
C200 C204 1.350 . S
C201 C204 1.463 . S
C201 C206 1.350 . S
C201 N209 1.427 . S
C202 H193 0.930 . S
C202 C200 1.378 . S
C202 C203 1.367 1_455 S
C203 C202 1.367 1_655 S
C203 C205 1.433 . S
C204 C200 1.350 . S
C204 C201 1.463 . S
C204 N208 1.427 1_455 S
C205 H195 0.929 . S
C205 C203 1.433 . S
C205 N208 1.384 . S
C206 H197 0.929 . S
C206 C198 1.378 . S
C206 C201 1.350 . S
C207 H194 0.929 . S
C207 C199 1.433 . S
C207 N209 1.384 . S
N208 C204 1.427 1_655 S
N208 C205 1.384 . S
N209 C201 1.427 . S
N209 C207 1.384 . S
H210 C216 0.930 . S
H211 C220 0.930 . S
H212 C225 0.929 1_565 S
H213 C223 0.929 . S
H214 C218 0.929 . S
H215 C224 0.929 . S
C216 H210 0.930 . S
C216 C217 1.367 . S
C216 C224 1.378 . S
C217 C216 1.367 . S
C217 C225 1.433 . S
C218 H214 0.929 . S
C218 C220 1.378 . S
C218 C222 1.350 . S
C219 C222 1.463 . S
C219 C224 1.350 1_565 S
C219 N227 1.427 . S
C220 H211 0.930 . S
C220 C218 1.378 . S
C220 C221 1.367 . S
C221 C220 1.367 . S
C221 C223 1.433 . S
C222 C218 1.350 . S
C222 C219 1.463 . S
C222 N226 1.427 . S
C223 H213 0.929 . S
C223 C221 1.433 . S
C223 N226 1.384 . S
C224 H215 0.929 . S
C224 C216 1.378 . S
C224 C219 1.350 1_545 S
C225 H212 0.929 1_545 S
C225 C217 1.433 . S
C225 N227 1.384 1_545 S
N226 C222 1.427 . S
N226 C223 1.384 . S
N227 C219 1.427 . S
N227 C225 1.384 1_565 S
H228 C234 0.930 . S
H229 C238 0.930 . S
H230 C243 0.929 . S
H231 C241 0.929 . S
H232 C236 0.929 . S
H233 C242 0.929 . S
C234 H228 0.930 . S
C234 C235 1.367 . S
C234 C242 1.378 . S
C235 C234 1.367 . S
C235 C243 1.433 . S
C236 H232 0.929 . S
C236 C238 1.378 . S
C236 C240 1.350 . S
C237 C240 1.463 . S
C237 C242 1.350 . S
C237 N245 1.427 . S
C238 H229 0.930 . S
C238 C236 1.378 . S
C238 C239 1.367 . S
C239 C238 1.367 . S
C239 C241 1.433 . S
C240 C236 1.350 . S
C240 C237 1.463 . S
C240 N244 1.427 . S
C241 H231 0.929 . S
C241 C239 1.433 . S
C241 N244 1.384 . S
C242 H233 0.929 . S
C242 C234 1.378 . S
C242 C237 1.350 . S
C243 H230 0.929 . S
C243 C235 1.433 . S
C243 N245 1.384 . S
N244 C240 1.427 . S
N244 C241 1.384 . S
N245 C237 1.427 . S
N245 C243 1.384 . S
H246 C252 0.930 . S
H247 C256 0.930 . S
H248 C261 0.929 . S
H249 C259 0.929 . S
H250 C254 0.929 . S
H251 C260 0.929 1_655 S
C252 H246 0.930 . S
C252 C253 1.367 . S
C252 C260 1.378 1_655 S
C253 C252 1.367 . S
C253 C261 1.433 1_655 S
C254 H250 0.929 . S
C254 C256 1.378 . S
C254 C258 1.350 . S
C255 C258 1.463 . S
C255 C260 1.350 . S
C255 N263 1.427 . S
C256 H247 0.930 . S
C256 C254 1.378 . S
C256 C257 1.367 . S
C257 C256 1.367 . S
C257 C259 1.433 . S
C258 C254 1.350 . S
C258 C255 1.463 . S
C258 N262 1.427 . S
C259 H249 0.929 . S
C259 C257 1.433 . S
C259 N262 1.384 . S
C260 H251 0.929 1_455 S
C260 C252 1.378 1_455 S
C260 C255 1.350 . S
C261 H248 0.929 . S
C261 C253 1.433 1_455 S
C261 N263 1.384 . S
N262 C258 1.427 . S
N262 C259 1.384 . S
N263 C255 1.427 . S
N263 C261 1.384 . S
H264 C270 0.930 . S
H265 C274 0.930 . S
H266 C279 0.929 . S
H267 C277 0.929 . S
H268 C272 0.929 . S
H269 C278 0.929 . S
C270 H264 0.930 . S
C270 C271 1.367 . S
C270 C278 1.378 . S
C271 C270 1.367 . S
C271 C279 1.433 . S
C272 H268 0.929 . S
C272 C274 1.378 1_565 S
C272 C276 1.350 . S
C273 C276 1.463 . S
C273 C278 1.350 . S
C273 N281 1.427 . S
C274 H265 0.930 . S
C274 C272 1.378 1_545 S
C274 C275 1.367 . S
C275 C274 1.367 . S
C275 C277 1.433 . S
C276 C272 1.350 . S
C276 C273 1.463 . S
C276 N280 1.427 1_565 S
C277 H267 0.929 . S
C277 C275 1.433 . S
C277 N280 1.384 . S
C278 H269 0.929 . S
C278 C270 1.378 . S
C278 C273 1.350 . S
C279 H266 0.929 . S
C279 C271 1.433 . S
C279 N281 1.384 . S
N280 C276 1.427 1_545 S
N280 C277 1.384 . S
N281 C273 1.427 . S
N281 C279 1.384 . S
H282 C288 0.930 . S
H283 C292 0.930 . S
H284 C297 0.929 . S
H285 C295 0.929 . S
H286 C290 0.929 . S
H287 C296 0.929 . S
C288 H282 0.930 . S
C288 C289 1.367 . S
C288 C296 1.378 . S
C289 C288 1.367 . S
C289 C297 1.433 1_544 S
C290 H286 0.929 . S
C290 C292 1.378 . S
C290 C294 1.350 1_566 S
C291 C294 1.463 . S
C291 C296 1.350 . S
C291 N299 1.427 1_544 S
C292 H283 0.930 . S
C292 C290 1.378 . S
C292 C293 1.367 1_566 S
C293 C292 1.367 1_544 S
C293 C295 1.433 . S
C294 C290 1.350 1_544 S
C294 C291 1.463 . S
C294 N298 1.427 . S
C295 H285 0.929 . S
C295 C293 1.433 . S
C295 N298 1.384 . S
C296 H287 0.929 . S
C296 C288 1.378 . S
C296 C291 1.350 . S
C297 H284 0.929 . S
C297 C289 1.433 1_566 S
C297 N299 1.384 . S
N298 C294 1.427 . S
N298 C295 1.384 . S
N299 C291 1.427 1_566 S
N299 C297 1.384 . S
H300 C306 0.930 . S
H301 C310 0.930 . S
H302 C315 0.929 . S
H303 C313 0.929 . S
H304 C308 0.929 . S
H305 C314 0.929 . S
C306 H300 0.930 . S
C306 C307 1.367 . S
C306 C314 1.378 . S
C307 C306 1.367 . S
C307 C315 1.433 . S
C308 H304 0.929 . S
C308 C310 1.378 . S
C308 C312 1.350 . S
C309 C312 1.463 . S
C309 C314 1.350 . S
C309 N317 1.427 . S
C310 H301 0.930 . S
C310 C308 1.378 . S
C310 C311 1.367 . S
C311 C310 1.367 . S
C311 C313 1.433 . S
C312 C308 1.350 . S
C312 C309 1.463 . S
C312 N316 1.427 . S
C313 H303 0.929 . S
C313 C311 1.433 . S
C313 N316 1.384 . S
C314 H305 0.929 . S
C314 C306 1.378 . S
C314 C309 1.350 . S
C315 H302 0.929 . S
C315 C307 1.433 . S
C315 N317 1.384 . S
N316 C312 1.427 . S
N316 C313 1.384 . S
N317 C309 1.427 . S
N317 C315 1.384 . S
H318 C324 0.930 . S
H319 C328 0.930 . S
H320 C333 0.929 . S
H321 C331 0.929 . S
H322 C326 0.929 . S
H323 C332 0.929 . S
C324 H318 0.930 . S
C324 C325 1.367 1_655 S
C324 C332 1.378 . S
C325 C324 1.367 1_455 S
C325 C333 1.433 . S
C326 H322 0.929 . S
C326 C328 1.378 . S
C326 C330 1.350 . S
C327 C330 1.463 . S
C327 C332 1.350 1_455 S
C327 N335 1.427 . S
C328 H319 0.930 . S
C328 C326 1.378 . S
C328 C329 1.367 . S
C329 C328 1.367 . S
C329 C331 1.433 1_455 S
C330 C326 1.350 . S
C330 C327 1.463 . S
C330 N334 1.427 1_455 S
C331 H321 0.929 . S
C331 C329 1.433 1_655 S
C331 N334 1.384 . S
C332 H323 0.929 . S
C332 C324 1.378 . S
C332 C327 1.350 1_655 S
C333 H320 0.929 . S
C333 C325 1.433 . S
C333 N335 1.384 . S
N334 C330 1.427 1_655 S
N334 C331 1.384 . S
N335 C327 1.427 . S
N335 C333 1.384 . S
H336 C342 0.930 . S
H337 C346 0.930 . S
H338 C351 0.929 . S
H339 C349 0.929 . S
H340 C344 0.929 . S
H341 C350 0.929 . S
C342 H336 0.930 . S
C342 C343 1.367 . S
C342 C350 1.378 . S
C343 C342 1.367 . S
C343 C351 1.433 . S
C344 H340 0.929 . S
C344 C346 1.378 . S
C344 C348 1.350 . S
C345 C348 1.463 . S
C345 C350 1.350 . S
C345 N353 1.427 . S
C346 H337 0.930 . S
C346 C344 1.378 . S
C346 C347 1.367 . S
C347 C346 1.367 . S
C347 C349 1.433 . S
C348 C344 1.350 . S
C348 C345 1.463 . S
C348 N352 1.427 . S
C349 H339 0.929 . S
C349 C347 1.433 . S
C349 N352 1.384 . S
C350 H341 0.929 . S
C350 C342 1.378 . S
C350 C345 1.350 . S
C351 H338 0.929 . S
C351 C343 1.433 . S
C351 N353 1.384 . S
N352 C348 1.427 . S
N352 C349 1.384 . S
N353 C345 1.427 . S
N353 C351 1.384 . S
H354 C360 0.930 . S
H355 C364 0.930 . S
H356 C369 0.929 . S
H357 C367 0.929 . S
H358 C362 0.929 . S
H359 C368 0.929 . S
C360 H354 0.930 . S
C360 C361 1.367 . S
C360 C368 1.378 . S
C361 C360 1.367 . S
C361 C369 1.433 . S
C362 H358 0.929 . S
C362 C364 1.378 . S
C362 C366 1.350 . S
C363 C366 1.463 . S
C363 C368 1.350 . S
C363 N371 1.427 . S
C364 H355 0.930 . S
C364 C362 1.378 . S
C364 C365 1.367 . S
C365 C364 1.367 . S
C365 C367 1.433 . S
C366 C362 1.350 . S
C366 C363 1.463 . S
C366 N370 1.427 . S
C367 H357 0.929 . S
C367 C365 1.433 . S
C367 N370 1.384 . S
C368 H359 0.929 . S
C368 C360 1.378 . S
C368 C363 1.350 . S
C369 H356 0.929 . S
C369 C361 1.433 . S
C369 N371 1.384 . S
N370 C366 1.427 . S
N370 C367 1.384 . S
N371 C363 1.427 . S
N371 C369 1.384 . S
H372 C378 0.930 . S
H373 C382 0.930 . S
H374 C387 0.929 . S
H375 C385 0.929 . S
H376 C380 0.929 . S
H377 C386 0.929 . S
C378 H372 0.930 . S
C378 C379 1.367 . S
C378 C386 1.378 . S
C379 C378 1.367 . S
C379 C387 1.433 . S
C380 H376 0.929 . S
C380 C382 1.378 . S
C380 C384 1.350 . S
C381 C384 1.463 . S
C381 C386 1.350 . S
C381 N389 1.427 . S
C382 H373 0.930 . S
C382 C380 1.378 . S
C382 C383 1.367 . S
C383 C382 1.367 . S
C383 C385 1.433 . S
C384 C380 1.350 . S
C384 C381 1.463 . S
C384 N388 1.427 . S
C385 H375 0.929 . S
C385 C383 1.433 . S
C385 N388 1.384 . S
C386 H377 0.929 . S
C386 C378 1.378 . S
C386 C381 1.350 . S
C387 H374 0.929 . S
C387 C379 1.433 . S
C387 N389 1.384 . S
N388 C384 1.427 . S
N388 C385 1.384 . S
N389 C381 1.427 . S
N389 C387 1.384 . S
H390 C396 0.930 . S
H391 C400 0.930 . S
H392 C405 0.929 . S
H393 C403 0.929 . S
H394 C398 0.929 . S
H395 C404 0.929 . S
C396 H390 0.930 . S
C396 C397 1.367 . S
C396 C404 1.378 . S
C397 C396 1.367 . S
C397 C405 1.433 . S
C398 H394 0.929 . S
C398 C400 1.378 . S
C398 C402 1.350 . S
C399 C402 1.463 . S
C399 C404 1.350 . S
C399 N407 1.427 . S
C400 H391 0.930 . S
C400 C398 1.378 . S
C400 C401 1.367 . S
C401 C400 1.367 . S
C401 C403 1.433 . S
C402 C398 1.350 . S
C402 C399 1.463 . S
C402 N406 1.427 . S
C403 H393 0.929 . S
C403 C401 1.433 . S
C403 N406 1.384 . S
C404 H395 0.929 . S
C404 C396 1.378 . S
C404 C399 1.350 . S
C405 H392 0.929 . S
C405 C397 1.433 . S
C405 N407 1.384 . S
N406 C402 1.427 . S
N406 C403 1.384 . S
N407 C399 1.427 . S
N407 C405 1.384 . S
H408 C414 0.930 . S
H409 C418 0.930 . S
H410 C423 0.929 . S
H411 C421 0.929 . S
H412 C416 0.929 . S
H413 C422 0.929 . S
C414 H408 0.930 . S
C414 C415 1.367 . S
C414 C422 1.378 . S
C415 C414 1.367 . S
C415 C423 1.433 . S
C416 H412 0.929 . S
C416 C418 1.378 . S
C416 C420 1.350 . S
C417 C420 1.463 . S
C417 C422 1.350 . S
C417 N425 1.427 . S
C418 H409 0.930 . S
C418 C416 1.378 . S
C418 C419 1.367 . S
C419 C418 1.367 . S
C419 C421 1.433 . S
C420 C416 1.350 . S
C420 C417 1.463 . S
C420 N424 1.427 . S
C421 H411 0.929 . S
C421 C419 1.433 . S
C421 N424 1.384 . S
C422 H413 0.929 . S
C422 C414 1.378 . S
C422 C417 1.350 . S
C423 H410 0.929 . S
C423 C415 1.433 . S
C423 N425 1.384 . S
N424 C420 1.427 . S
N424 C421 1.384 . S
N425 C417 1.427 . S
N425 C423 1.384 . S
H426 C432 0.930 . S
H427 C436 0.930 . S
H428 C441 0.929 . S
H429 C439 0.929 . S
H430 C434 0.929 . S
H431 C440 0.929 . S
C432 H426 0.930 . S
C432 C433 1.367 . S
C432 C440 1.378 . S
C433 C432 1.367 . S
C433 C441 1.433 . S
C434 H430 0.929 . S
C434 C436 1.378 . S
C434 C438 1.350 . S
C435 C438 1.463 . S
C435 C440 1.350 . S
C435 N443 1.427 . S
C436 H427 0.930 . S
C436 C434 1.378 . S
C436 C437 1.367 . S
C437 C436 1.367 . S
C437 C439 1.433 . S
C438 C434 1.350 . S
C438 C435 1.463 . S
C438 N442 1.427 . S
C439 H429 0.929 . S
C439 C437 1.433 . S
C439 N442 1.384 . S
C440 H431 0.929 . S
C440 C432 1.378 . S
C440 C435 1.350 . S
C441 H428 0.929 . S
C441 C433 1.433 . S
C441 N443 1.384 . S
N442 C438 1.427 . S
N442 C439 1.384 . S
N443 C435 1.427 . S
N443 C441 1.384 . S
C127 C78 0.719 . S
C131 C18 0.724 . S
C145 C98 0.725 . S
C149 C38 0.723 . S
C163 C118 0.705 . S
C167 C58 0.718 1_455 S
C181 C9 1.615 . S
C185 C52 1.713 . S
C199 C32 1.702 . S
C203 C69 1.629 . S
C217 C49 1.620 . S
C221 C92 1.709 . S
C235 C72 1.703 . S
C239 C109 1.628 . S
C253 C89 1.630 . S
C257 C12 1.701 . S
C271 C112 1.712 . S
C275 C29 1.617 . S
C289 C19 0.921 . S
C293 C79 0.916 . S
C307 C39 0.912 . S
C311 C99 0.908 . S
C325 C59 0.910 . S
C329 C119 0.907 . S
C343 C4 0.991 . S
C347 C24 0.994 . S
C361 C22 1.094 . S
C365 C42 1.109 . S
C379 C44 1.015 . S
C383 C64 1.029 . S
C397 C62 1.118 . S
C401 C82 1.120 . S
C415 C84 1.026 . S
C419 C104 1.005 . S
C433 C102 1.121 . S
C437 C2 1.112 . S
