# Generated by pormake.
# Topology sxc, (6)-cn, num edge types: 1
# Building blocks:
#     Node 0, Type 0, BuildingBlock: PAMTOO_clean_sbu_0, # of connection points: 6
#     Node 1, Type 0, BuildingBlock: PAMTOO_clean_sbu_0, # of connection points: 6
#     Node 2, Type 0, BuildingBlock: PAMTOO_clean_sbu_0, # of connection points: 6
#     Edge 3, Type (0, 0), BuildingBlock: XUDNAN_clean_linker_2, # of connection points: 2
#     Edge 4, Type (0, 0), BuildingBlock: XUDNAN_clean_linker_2, # of connection points: 2
#     Edge 5, Type (0, 0), BuildingBlock: XUDNAN_clean_linker_2, # of connection points: 2
#     Edge 6, Type (0, 0), BuildingBlock: XUDNAN_clean_linker_2, # of connection points: 2
#     Edge 7, Type (0, 0), BuildingBlock: XUDNAN_clean_linker_2, # of connection points: 2
#     Edge 8, Type (0, 0), BuildingBlock: XUDNAN_clean_linker_2, # of connection points: 2
#     Edge 9, Type (0, 0), BuildingBlock: XUDNAN_clean_linker_2, # of connection points: 2
#     Edge 10, Type (0, 0), BuildingBlock: XUDNAN_clean_linker_2, # of connection points: 2
#     Edge 11, Type (0, 0), BuildingBlock: XUDNAN_clean_linker_2, # of connection points: 2
# Relax obj value: 0.342
# Max RMSD: 0.127
# Mean RMSD: 0.099
data_MOF--net-sxc--node1-PAMTOO_clean_sbu_0--edge1-XUDNAN_clean_linker_2
_symmetry_space_group_name_H-M    P1
_symmetry_Int_Tables_number       1
_symmetry_cell_setting            triclinic
loop_
_symmetry_equiv_pos_as_xyz
'x, y, z'
_cell_length_a     16.838649
_cell_length_b     15.675456
_cell_length_c     45.413251
_cell_angle_alpha  95.183742
_cell_angle_beta   97.161434
_cell_angle_gamma 91.314514
loop_
_atom_site_label
_atom_site_type_symbol
_atom_site_fract_x
_atom_site_fract_y
_atom_site_fract_z
_atom_type_partial_charge
Dy0 Dy 1.13514 0.10107 0.00356 0.0
Dy1 Dy 0.32871 0.10266 0.00615 0.0
C2 C 0.24658 0.09993 0.06541 0.0
O3 O 0.16599 0.24229 0.00146 0.0
O4 O 0.30226 0.2417 0.01452 0.0
O5 O 1.02725 0.07024 0.0221 0.0
O6 O 1.02011 0.13177 0.98108 0.0
O7 O 0.28126 0.1374 0.96105 0.0
O8 O 0.16194 0.06341 0.95691 0.0
O9 O 0.29152 0.96496 -0.00558 0.0
O10 O 0.16511 0.96093 0.00801 0.0
O11 O 0.43247 0.0568 0.98712 0.0
O12 O 0.44705 0.14331 0.0276 0.0
C13 C 0.23606 0.28342 0.00838 0.0
O14 O 0.18394 0.13506 0.05168 0.0
O15 O 0.30193 0.06699 0.05037 0.0
C16 C 0.92677 1.01992 0.98415 0.0
C17 C 0.84658 0.86217 0.96476 0.0
C18 C 0.82325 0.91409 -0.01112 0.0
C19 C 0.86311 0.99262 -0.0015 0.0
C20 C 0.9465 0.97076 0.9588 0.0
C21 C 0.90629 0.89266 0.94906 0.0
C22 C 0.98111 0.08996 -0.00137 0.0
C23 C 0.21914 0.09908 0.94453 0.0
C24 C 0.22956 0.92135 0.001 0.0
C25 C 0.53421 0.16307 -0.00769 0.0
C26 C 0.62976 0.285 0.97002 0.0
C27 C 0.54891 0.27106 0.95822 0.0
C28 C 0.50145 0.21088 0.96938 0.0
C29 C 0.61557 0.17406 0.00336 0.0
C30 C 0.66317 0.23486 -0.0077 0.0
C31 C 0.48188 0.10655 0.0059 0.0
H32 H 0.77674 0.89205 0.00115 0.0
H33 H 0.84754 1.02942 0.0182 0.0
H34 H 0.99625 0.98997 0.94759 0.0
H35 H 0.92578 0.85351 0.93058 0.0
H36 H 0.52116 0.30984 0.94149 0.0
H37 H 0.43845 0.20375 0.96078 0.0
H38 H 0.64157 0.13762 0.0211 0.0
H39 H 0.72542 0.24442 0.00172 0.0
Dy40 Dy 0.23953 0.0568 0.34788 0.0
Dy41 Dy 1.05603 1.03877 0.31683 0.0
C42 C 0.19761 0.0586 0.27819 0.0
O43 O 0.20797 0.19113 0.33555 0.0
O44 O 1.07231 0.17778 0.33424 0.0
O45 O 0.32357 0.10086 0.38653 0.0
O46 O 0.36712 1.04708 0.34642 0.0
O47 O 1.04862 1.0023 0.36313 0.0
O48 O 0.16361 0.07455 0.38487 0.0
O49 O 1.09838 0.9039 0.3148 0.0
O50 O 0.21007 0.91423 0.3498 0.0
O51 O 0.92934 0.06121 0.3135 0.0
O52 O 0.97862 0.99065 0.27705 0.0
C53 C 1.13753 0.22654 0.33531 0.0
O54 O 0.24433 1.0249 0.29901 0.0
O55 O 1.12901 0.08863 0.28395 0.0
C56 C 0.43133 0.17366 0.37007 0.0
C57 C 0.50472 0.31747 0.35048 0.0
C58 C 0.54668 0.24147 0.35355 0.0
C59 C 0.50999 0.16984 0.36313 0.0
C60 C 0.39261 0.25233 0.36983 0.0
C61 C 0.42894 0.3235 0.35991 0.0
C62 C 0.38486 0.09378 0.37172 0.0
C63 C 1.09568 1.03444 0.38705 0.0
C64 C 0.15288 0.86746 0.33249 0.0
C65 C 0.88316 0.09233 0.26506 0.0
C66 C 0.8132 0.23305 0.23918 0.0
C67 C 0.89687 0.22971 0.24505 0.0
C68 C 0.93157 0.16001 0.25811 0.0
C69 C 0.80077 0.0904 0.25583 0.0
C70 C 0.76596 0.1601 0.24273 0.0
C71 C 0.9174 1.03145 0.28541 0.0
H72 H 0.60498 0.23493 0.34599 0.0
H73 H 0.5407 0.10984 0.36295 0.0
H74 H 0.33199 0.25729 0.37526 0.0
H75 H 0.39603 0.38147 0.35773 0.0
H76 H 0.93457 0.28501 0.2427 0.0
H77 H 0.99551 0.16247 0.26503 0.0
H78 H 0.7627 1.03848 0.26092 0.0
H79 H 0.7012 0.16095 0.23878 0.0
Dy80 Dy 1.09261 0.12534 0.66426 0.0
Dy81 Dy 1.0899 0.92779 0.6639 0.0
C82 C 1.07444 1.01087 0.60251 0.0
O83 O 0.95355 0.09735 0.65965 0.0
O84 O 0.95251 0.95728 0.66877 0.0
O85 O 1.05171 0.23881 0.64426 0.0
O86 O 1.13547 0.2501 0.68487 0.0
O87 O 0.15014 0.98104 0.70859 0.0
O88 O 1.07886 0.10053 0.71131 0.0
O89 O 0.22816 0.9517 0.65888 0.0
O90 O 0.23099 0.09752 0.66736 0.0
O91 O 1.07952 0.81966 0.68934 0.0
O92 O 1.09344 0.79882 0.64245 0.0
C93 C 0.91038 1.02786 0.66405 0.0
O94 O 1.11056 0.07877 0.61757 0.0
O95 O 1.04699 0.94983 0.61665 0.0
C96 C 0.15724 0.34131 0.64866 0.0
C97 C 0.2862 0.4287 0.62966 0.0
C98 C 0.26111 0.34668 0.6163 0.0
C99 C 0.19737 0.30319 0.62582 0.0
C100 C 0.17844 0.42533 0.66066 0.0
C101 C 0.24255 0.46892 0.65118 0.0
C102 C 1.10186 0.28913 0.66259 0.0
C103 C 1.12218 1.04388 0.72462 0.0
C104 C 0.27213 1.02574 0.66314 0.0
C105 C 0.99578 0.71406 0.6602 0.0
C106 C 0.84413 0.63153 0.64445 0.0
C107 C 0.85434 0.70352 0.66545 0.0
C108 C 0.92909 0.74404 0.67329 0.0
C109 C 0.98646 0.64112 0.63959 0.0
C110 C 0.91099 0.60003 0.63173 0.0
C111 C 1.07156 0.76515 0.66559 0.0
H112 H 0.29419 0.3136 0.6 0.0
H113 H 0.1824 0.23791 0.6165 0.0
H114 H 0.14821 0.45545 0.67838 0.0
H115 H 0.26042 0.53244 0.66167 0.0
H116 H 0.80388 0.73058 0.6752 0.0
H117 H 0.93374 0.80073 0.68899 0.0
H118 H 1.03694 0.61741 0.62904 0.0
H119 H 0.90478 0.54427 0.61559 0.0
H120 H 1.11748 0.41005 0.00535 0.0
H121 H 0.37441 0.37724 0.01013 0.0
H122 H 0.39553 0.53129 0.0086 0.0
H123 H 1.10731 0.58194 0.95529 0.0
H124 H 1.03419 0.64136 0.97371 0.0
H125 H 1.03749 0.52675 0.97459 0.0
H126 H 1.05219 0.54743 0.03244 0.0
H127 H 1.04965 0.66196 0.0311 0.0
H128 H 1.13267 0.61559 0.05234 0.0
H129 H 0.39321 0.68565 0.00549 0.0
H130 H 0.36859 0.83761 0.00313 0.0
H131 H 1.11315 0.78619 0.00187 0.0
C132 C 0.17815 0.43544 0.00612 0.0
C133 C 0.24427 0.37966 0.00798 0.0
C134 C 0.32243 0.41672 0.00895 0.0
C135 C 0.3353 0.50497 0.00798 0.0
C136 C 0.26978 0.55761 0.0062 0.0
C137 C 0.19257 0.52516 0.00545 0.0
C138 C 1.13393 0.59879 0.00398 0.0
C139 C 1.0747 0.58648 0.97518 0.0
C140 C 1.08946 0.60638 0.03161 0.0
C141 C 0.19069 0.67677 0.00384 0.0
C142 C 0.26854 0.65006 0.00498 0.0
C143 C 0.33251 0.70743 0.00465 0.0
C144 C 0.31744 0.79444 0.00317 0.0
C145 C 0.23872 0.82582 0.00217 0.0
C146 C 0.17412 0.76534 0.00266 0.0
H147 H 0.64745 0.40524 0.35801 0.0
H148 H 0.42595 0.3632 0.29911 0.0
H149 H 0.49116 0.41021 0.25783 0.0
H150 H 0.73728 0.58336 0.30554 0.0
H151 H 0.83509 0.54342 0.31633 0.0
H152 H 0.76543 0.55867 0.34334 0.0
H153 H 0.78097 0.40165 0.35514 0.0
H154 H 0.84997 0.38642 0.32877 0.0
H155 H 0.76188 0.31663 0.32524 0.0
H156 H 0.58283 0.37723 0.22288 0.0
H157 H 0.68178 0.28298 0.20314 0.0
H158 H 0.85422 0.36676 0.27923 0.0
C159 C 0.61238 0.41257 0.33681 0.0
C160 C 0.53272 0.38053 0.33146 0.0
C161 C 0.48715 0.38843 0.30365 0.0
C162 C 0.52402 0.41538 0.28 0.0
C163 C 0.60603 0.43617 0.28472 0.0
C164 C 0.64902 0.44025 0.31305 0.0
C165 C 0.73827 0.44571 0.31134 0.0
C166 C 0.77088 0.5383 0.31961 0.0
C167 C 0.78524 0.3837 0.33119 0.0
C168 C 0.73849 0.42114 0.27827 0.0
C169 C 0.66187 0.42228 0.26288 0.0
C170 C 0.64331 0.37952 0.23431 0.0
C171 C 0.70005 0.32595 0.223 0.0
C172 C 0.77485 0.31713 0.24005 0.0
C173 C 0.79734 0.37362 0.26583 0.0
H174 H 0.73156 0.60109 0.68079 0.0
H175 H 0.7726 0.57592 0.588 0.0
H176 H 0.63151 0.52553 0.57327 0.0
H177 H 0.59759 0.4183 0.67755 0.0
H178 H 0.53615 0.47095 0.70297 0.0
H179 H 0.64083 0.50074 0.7056 0.0
H180 H 0.60396 0.65944 0.70033 0.0
H181 H 0.4992 0.62939 0.69751 0.0
H182 H 0.5362 0.68445 0.66857 0.0
H183 H 0.48403 0.48069 0.56912 0.0
H184 H 0.34573 0.43732 0.57621 0.0
H185 H 0.4042 0.49876 0.67164 0.0
C186 C 0.71104 0.58497 0.65734 0.0
C187 C 0.76285 0.59255 0.63551 0.0
C188 C 0.73403 0.56956 0.60511 0.0
C189 C 0.65391 0.54178 0.59653 0.0
C190 C 0.60385 0.53765 0.61866 0.0
C191 C 0.63166 0.55811 0.64844 0.0
C192 C 0.56635 0.54906 0.668 0.0
C193 C 0.58644 0.48068 0.6898 0.0
C194 C 0.55054 0.63574 0.68458 0.0
C195 C 0.49715 0.51988 0.6446 0.0
C196 C 0.51959 0.51374 0.61625 0.0
C197 C 0.46577 0.48556 0.59121 0.0
C198 C 0.38752 0.46124 0.59542 0.0
C199 C 0.36417 0.46575 0.62442 0.0
C200 C 0.41962 0.49671 0.64914 0.0
H201 H 0.77171 0.90061 0.66623 0.0
H202 H 0.81738 0.1719 0.66141 0.0
H203 H 0.67354 0.19629 0.6608 0.0
H204 H 0.57583 0.88658 0.61701 0.0
H205 H 0.52562 0.81367 0.63764 0.0
H206 H 0.63305 0.81279 0.63866 0.0
H207 H 0.65063 0.8361 0.69545 0.0
H208 H 0.5435 0.83772 0.69547 0.0
H209 H 0.60613 0.92646 0.71378 0.0
H210 H 0.51373 0.19628 0.66126 0.0
H211 H 0.36906 0.17107 0.66145 0.0
H212 H 0.40706 0.89933 0.66448 0.0
C213 C 0.75241 0.96571 0.66509 0.0
C214 C 0.81325 1.03424 0.66397 0.0
C215 C 0.77837 0.11663 0.66235 0.0
C216 C 0.69407 0.13163 0.66199 0.0
C217 C 0.63749 0.06437 0.66306 0.0
C218 C 0.66549 0.98226 0.66448 0.0
C219 C 0.58968 0.92177 0.66512 0.0
C220 C 0.58054 0.85464 0.63801 0.0
C221 C 0.59802 0.8778 0.69417 0.0
C222 C 0.5156 0.98178 0.66378 0.0
C223 C 0.54596 0.06416 0.66279 0.0
C224 C 0.49131 0.13132 0.66195 0.0
C225 C 0.40655 0.1159 0.6621 0.0
C226 C 0.36935 1.033 0.66286 0.0
C227 C 0.42822 0.96464 0.66368 0.0
H228 H 0.83626 0.74548 0.00483 0.0
H229 H 0.79114 0.77669 0.91037 0.0
H230 H 0.74458 0.6244 0.90036 0.0
H231 H 0.90556 0.5267 -0.00288 0.0
H232 H 0.8588 0.49633 0.02838 0.0
H233 H 0.89329 0.60563 0.02748 0.0
H234 H 0.75112 0.65847 0.03432 0.0
H235 H 0.71671 0.54957 0.03552 0.0
H236 H 0.66643 0.61479 0.00873 0.0
H237 H 0.69352 0.4723 0.90158 0.0
H238 H 0.63794 0.33438 0.91398 0.0
H239 H 0.71953 0.40487 0.0076 0.0
C240 C 0.81614 0.72036 0.98205 0.0
C241 C 0.81617 0.77257 0.95836 0.0
C242 C 0.79119 0.73729 0.92877 0.0
C243 C 0.76511 0.65107 0.92291 0.0
C244 C 0.76577 0.60126 0.94687 0.0
C245 C 0.79078 0.63473 0.97583 0.0
C246 C 0.7826 0.56936 -0.00218 0.0
C247 C 0.86497 0.54827 0.01363 0.0
C248 C 0.72582 0.59986 0.02041 0.0
C249 C 0.74637 0.49443 0.97684 0.0
C250 C 0.738 0.51353 0.9475 0.0
C251 C 0.70075 0.45617 0.92441 0.0
C252 C 0.66931 0.37825 0.93164 0.0
C253 C 0.67527 0.35889 0.96169 0.0
C254 C 0.71609 0.41694 0.98437 0.0
H255 H 0.25546 0.36113 0.34369 0.0
H256 H 0.99862 0.31184 0.32504 0.0
H257 H 0.9786 0.46601 0.32337 0.0
H258 H 0.24434 0.56232 0.3918 0.0
H259 H 0.32766 0.61455 0.37853 0.0
H260 H 0.32322 0.49962 0.3786 0.0
H261 H 0.33641 0.48454 0.32198 0.0
H262 H 0.34026 0.59952 0.32212 0.0
H263 H 0.26594 0.53625 0.29681 0.0
H264 H 0.98318 0.62399 0.32284 0.0
H265 H 1.01169 0.77814 0.3236 0.0
H266 H 0.26608 0.73757 0.34428 0.0
C267 C 0.19512 0.38285 0.33947 0.0
C268 C 1.12878 0.32257 0.33477 0.0
C269 C 1.05081 0.35496 0.32904 0.0
C270 C 1.03859 0.44314 0.32799 0.0
C271 C 1.10462 0.5003 0.33293 0.0
C272 C 0.18155 0.47204 0.33868 0.0
C273 C 0.24136 0.54897 0.34323 0.0
C274 C 0.28688 0.55679 0.37492 0.0
C275 C 0.29945 0.54189 0.31963 0.0
C276 C 0.18588 0.62431 0.33887 0.0
C277 C 1.10732 0.59363 0.33291 0.0
C278 C 1.04448 0.64857 0.32752 0.0
C279 C 1.06163 0.73676 0.32794 0.0
C280 C 1.14124 0.77173 0.3339 0.0
C281 C 0.20445 0.71397 0.33982 0.0
H282 H 1.10813 0.11143 0.2286 0.0
H283 H 0.34127 1.01588 0.25907 0.0
H284 H 0.37986 1.02119 0.20849 0.0
H285 H 1.08301 0.99345 0.15685 0.0
H286 H 1.03421 0.078 0.13794 0.0
H287 H 1.02591 0.06991 0.17675 0.0
H288 H 1.0811 0.22606 0.18951 0.0
H289 H 1.08969 0.23482 0.15073 0.0
H290 H 0.176 0.2567 0.17837 0.0
H291 H 0.39195 1.03304 0.15442 0.0
H292 H 0.37711 1.04916 0.10065 0.0
H293 H 1.13564 0.13718 0.1047 0.0
C294 C 0.16752 0.09211 0.22475 0.0
C295 C 0.22176 0.06333 0.24795 0.0
C296 C 0.29864 1.03812 0.24176 0.0
C297 C 0.32118 1.04104 0.21309 0.0
C298 C 0.26618 0.06931 0.19076 0.0
C299 C 0.19094 0.0944 0.19624 0.0
C300 C 1.14248 0.12024 0.16812 0.0
C301 C 1.06694 0.0619 0.15941 0.0
C302 C 1.12108 0.2151 0.17192 0.0
C303 C 0.2021 0.10525 0.14587 0.0
C304 C 0.27311 0.07611 0.15949 0.0
C305 C 0.33672 0.05608 0.14356 0.0
C306 C 0.32757 0.0654 0.11291 0.0
C307 C 0.25522 0.09458 0.09825 0.0
C308 C 0.19193 0.1153 0.11517 0.0
H309 H 0.16295 0.1186 0.44036 0.0
H310 H 0.98193 0.92412 0.40274 0.0
H311 H 0.95524 0.89818 0.45364 0.0
H312 H 0.24188 1.01258 0.50277 0.0
H313 H 0.25781 0.10874 0.52799 0.0
H314 H 0.26046 0.11411 0.48869 0.0
H315 H 0.1508 0.22743 0.48777 0.0
H316 H 0.14818 0.22272 0.52713 0.0
H317 H 1.05753 0.20376 0.50147 0.0
H318 H 0.9549 0.88734 0.50921 0.0
H319 H 0.97371 0.89943 0.56431 0.0
H320 H 0.15151 0.10495 0.56543 0.0
C321 C 1.11711 0.07095 0.44272 0.0
C322 C 1.07448 1.02333 0.41741 0.0
C323 C 1.01503 0.96179 0.42167 0.0
C324 C 0.99971 0.94641 0.45054 0.0
C325 C 1.04369 0.99367 0.47498 0.0
C326 C 1.10054 0.05546 0.47132 0.0
C327 C 1.13985 0.09734 0.5012 0.0
C328 C 0.23035 0.08226 0.5054 0.0
C329 C 1.12306 0.19351 0.50458 0.0
C330 C 1.09696 1.04885 0.52233 0.0
C331 C 1.042 0.98903 0.50679 0.0
C332 C 0.99724 0.93455 0.52154 0.0
C333 C 1.00859 0.94173 0.55289 0.0
C334 C 1.0638 1.00341 0.56931 0.0
C335 C 1.10831 0.05767 0.55364 0.0
H336 H 1.03159 0.06795 0.77133 0.0
H337 H 0.27516 1.04547 0.75067 0.0
H338 H 0.3254 0.06111 0.80444 0.0
H339 H 1.07311 0.21985 0.83766 0.0
H340 H 1.00286 0.16899 0.85799 0.0
H341 H 0.98567 0.16236 0.81787 0.0
H342 H 0.97709 0.99675 0.81577 0.0
H343 H 0.99452 1.00289 0.85588 0.0
H344 H 1.05887 0.94087 0.83399 0.0
H345 H 0.35004 0.08176 0.85978 0.0
H346 H 0.34787 0.09372 0.91412 0.0
H347 H 1.08796 0.08916 0.90061 0.0
C348 C 1.09546 0.06748 0.77829 0.0
C349 C 0.14989 0.05677 0.75697 0.0
C350 C 0.23282 1.05417 0.76673 0.0
C351 C 0.26183 0.06313 0.79718 0.0
C352 C 0.20697 0.07287 0.81771 0.0
C353 C 1.12545 0.07402 0.80882 0.0
C354 C 1.07968 0.07995 0.83576 0.0
C355 C 1.03255 0.16273 0.83741 0.0
C356 C 1.02427 1.00037 0.83532 0.0
C357 C 0.14827 0.08235 0.86107 0.0
C358 C 0.22109 0.07943 0.85 0.0
C359 C 0.2934 0.08348 0.86872 0.0
C360 C 0.29151 0.09049 0.89959 0.0
C361 C 0.21782 0.09186 0.91164 0.0
C362 C 0.14516 0.0873 0.89203 0.0
loop_
_geom_bond_atom_site_label_1
_geom_bond_atom_site_label_2
_geom_bond_distance
_geom_bond_site_symmetry_2
_ccdc_geom_bond_type
Dy0 O3 2.307 1_565 S
Dy0 O5 2.395 1_556 S
Dy0 O6 2.379 . S
Dy0 O8 2.339 . S
Dy0 O10 2.298 . S
Dy0 O14 2.275 1_666 S
Dy0 C22 2.738 . S
Dy1 O4 2.298 . S
Dy1 O7 2.275 1_554 S
Dy1 O9 2.307 1_545 S
Dy1 O11 2.395 1_554 S
Dy1 O12 2.379 . S
Dy1 O15 2.339 . S
Dy1 C31 2.738 . S
C2 O14 1.253 . S
C2 O15 1.257 . S
O3 Dy0 2.307 1_545 S
O3 C13 1.266 1_656 S
O4 Dy1 2.298 . S
O4 C13 1.236 . S
O5 Dy0 2.395 1_554 S
O5 C22 1.255 1_554 S
O6 Dy0 2.379 . S
O6 C22 1.249 . S
O7 Dy1 2.275 1_556 S
O7 C23 1.254 . S
O8 Dy0 2.339 . S
O8 C23 1.257 1_665 S
O9 Dy1 2.307 1_565 S
O9 C24 1.266 . S
O10 Dy0 2.298 . S
O10 C24 1.236 1_656 S
O11 Dy1 2.395 1_556 S
O11 C31 1.255 1_556 S
O12 Dy1 2.379 . S
O12 C31 1.249 . S
C13 O3 1.266 1_454 S
C13 O4 1.236 . S
O14 Dy0 2.275 1_444 S
O14 C2 1.253 . S
O15 Dy1 2.339 . S
O15 C2 1.257 . S
C16 C19 1.344 1_556 S
C16 C20 1.328 . S
C16 C22 1.516 . S
C17 C18 1.304 1_556 S
C17 C21 1.324 . S
C18 C17 1.304 1_554 S
C18 C19 1.371 . S
C18 H32 0.930 . S
C19 C16 1.344 1_554 S
C19 C18 1.371 . S
C19 H33 0.931 . S
C20 C16 1.328 . S
C20 C21 1.433 . S
C20 H34 0.931 . S
C21 C17 1.324 . S
C21 C20 1.433 . S
C21 H35 0.933 . S
C22 Dy0 2.738 . S
C22 O5 1.255 1_556 S
C22 O6 1.249 . S
C22 C16 1.516 . S
C23 O7 1.254 . S
C23 O8 1.257 1_445 S
C24 O9 1.266 . S
C24 O10 1.236 1_454 S
C25 C28 1.344 1_554 S
C25 C29 1.328 . S
C25 C31 1.516 . S
C26 C27 1.304 1_554 S
C26 C30 1.323 . S
C27 C26 1.304 1_556 S
C27 C28 1.371 . S
C27 H36 0.930 . S
C28 C25 1.344 1_556 S
C28 C27 1.371 . S
C28 H37 0.931 . S
C29 C25 1.328 . S
C29 C30 1.433 . S
C29 H38 0.931 . S
C30 C26 1.323 . S
C30 C29 1.433 . S
C30 H39 0.933 . S
C31 Dy1 2.738 . S
C31 O11 1.255 1_554 S
C31 O12 1.249 . S
C31 C25 1.516 . S
H32 C18 0.930 . S
H33 C19 0.931 . S
H34 C20 0.931 . S
H35 C21 0.933 . S
H36 C27 0.930 . S
H37 C28 0.931 . S
H38 C29 0.931 . S
H39 C30 0.933 . S
Dy40 O43 2.307 . S
Dy40 O45 2.395 . S
Dy40 O46 2.379 . S
Dy40 O48 2.339 . S
Dy40 O50 2.298 1_545 S
Dy40 O54 2.275 . S
Dy40 C62 2.738 . S
Dy41 O44 2.298 1_565 S
Dy41 O47 2.275 1_565 S
Dy41 O49 2.307 . S
Dy41 O51 2.395 1_565 S
Dy41 O52 2.379 1_565 S
Dy41 O55 2.339 . S
Dy41 C71 2.738 1_565 S
C42 O54 1.254 1_655 S
C42 O55 1.257 1_545 S
O43 Dy40 2.307 . S
O43 C53 1.266 1_455 S
O44 Dy41 2.298 1_545 S
O44 C53 1.236 . S
O45 Dy40 2.395 . S
O45 C62 1.255 . S
O46 Dy40 2.379 . S
O46 C62 1.249 . S
O47 Dy41 2.275 1_545 S
O47 C63 1.254 1_655 S
O48 Dy40 2.339 . S
O48 C63 1.257 . S
O49 Dy41 2.307 . S
O49 C64 1.266 1_655 S
O50 Dy40 2.298 1_565 S
O50 C64 1.236 . S
O51 Dy41 2.395 1_545 S
O51 C71 1.255 . S
O52 Dy41 2.379 1_545 S
O52 C71 1.249 . S
C53 O43 1.266 1_655 S
C53 O44 1.236 . S
O54 Dy40 2.275 . S
O54 C42 1.254 1_455 S
O55 Dy41 2.339 . S
O55 C42 1.257 1_565 S
C56 C59 1.344 . S
C56 C60 1.328 1_565 S
C56 C62 1.516 1_565 S
C57 C58 1.304 . S
C57 C61 1.323 . S
C58 C57 1.304 . S
C58 C59 1.371 . S
C58 H72 0.930 . S
C59 C56 1.344 . S
C59 C58 1.371 . S
C59 H73 0.931 . S
C60 C56 1.328 1_545 S
C60 C61 1.433 1_545 S
C60 H74 0.931 . S
C61 C57 1.323 . S
C61 C60 1.433 1_565 S
C61 H75 0.933 . S
C62 Dy40 2.738 . S
C62 O45 1.255 . S
C62 O46 1.249 . S
C62 C56 1.516 1_545 S
C63 O47 1.254 1_455 S
C63 O48 1.257 . S
C64 O49 1.266 1_455 S
C64 O50 1.236 . S
C65 C68 1.344 . S
C65 C69 1.328 . S
C65 C71 1.516 . S
C66 C67 1.304 . S
C66 C70 1.323 . S
C67 C66 1.304 . S
C67 C68 1.371 . S
C67 H76 0.930 . S
C68 C65 1.344 . S
C68 C67 1.371 . S
C68 H77 0.931 . S
C69 C65 1.328 . S
C69 C70 1.433 . S
C69 H78 0.931 . S
C70 C66 1.323 . S
C70 C69 1.433 . S
C70 H79 0.933 . S
C71 Dy41 2.738 1_545 S
C71 O51 1.255 . S
C71 O52 1.249 . S
C71 C65 1.516 . S
H72 C58 0.930 . S
H73 C59 0.931 . S
H74 C60 0.931 . S
H75 C61 0.933 . S
H76 C67 0.930 . S
H77 C68 0.931 . S
H78 C69 0.931 . S
H79 C70 0.933 . S
Dy80 O83 2.307 1_455 S
Dy80 O85 2.395 . S
Dy80 O86 2.379 . S
Dy80 O88 2.339 . S
Dy80 O90 2.298 . S
Dy80 O94 2.275 . S
Dy80 C102 2.738 . S
Dy81 O84 2.298 1_565 S
Dy81 O87 2.276 1_565 S
Dy81 O89 2.307 1_655 S
Dy81 O91 2.395 . S
Dy81 O92 2.379 . S
Dy81 O95 2.339 . S
Dy81 C111 2.738 . S
C82 O94 1.254 1_655 S
C82 O95 1.257 1_545 S
O83 Dy80 2.307 1_655 S
O83 C93 1.266 . S
O84 Dy81 2.298 1_545 S
O84 C93 1.236 . S
O85 Dy80 2.395 . S
O85 C102 1.255 . S
O86 Dy80 2.379 . S
O86 C102 1.249 . S
O87 Dy81 2.276 1_545 S
O87 C103 1.254 1_655 S
O88 Dy80 2.339 . S
O88 C103 1.257 . S
O89 Dy81 2.307 1_455 S
O89 C104 1.265 1_565 S
O90 Dy80 2.298 . S
O90 C104 1.236 . S
O91 Dy81 2.395 . S
O91 C111 1.255 . S
O92 Dy81 2.379 . S
O92 C111 1.249 . S
C93 O83 1.266 . S
C93 O84 1.236 . S
O94 Dy80 2.275 . S
O94 C82 1.254 1_455 S
O95 Dy81 2.339 . S
O95 C82 1.257 1_565 S
C96 C99 1.344 . S
C96 C100 1.328 . S
C96 C102 1.516 . S
C97 C98 1.304 . S
C97 C101 1.323 . S
C98 C97 1.304 . S
C98 C99 1.371 . S
C98 H112 0.930 . S
C99 C96 1.344 . S
C99 C98 1.371 . S
C99 H113 0.931 . S
C100 C96 1.328 . S
C100 C101 1.433 . S
C100 H114 0.931 . S
C101 C97 1.323 . S
C101 C100 1.433 . S
C101 H115 0.933 . S
C102 Dy80 2.738 . S
C102 O85 1.255 . S
C102 O86 1.249 . S
C102 C96 1.516 . S
C103 O87 1.254 1_455 S
C103 O88 1.257 . S
C104 O89 1.265 1_545 S
C104 O90 1.236 . S
C105 C108 1.344 . S
C105 C109 1.328 . S
C105 C111 1.516 . S
C106 C107 1.304 . S
C106 C110 1.323 . S
C107 C106 1.304 . S
C107 C108 1.371 . S
C107 H116 0.930 . S
C108 C105 1.344 . S
C108 C107 1.371 . S
C108 H117 0.931 . S
C109 C105 1.328 . S
C109 C110 1.433 . S
C109 H118 0.931 . S
C110 C106 1.323 . S
C110 C109 1.433 . S
C110 H119 0.933 . S
C111 Dy81 2.738 . S
C111 O91 1.255 . S
C111 O92 1.249 . S
C111 C105 1.516 . S
H112 C98 0.930 . S
H113 C99 0.931 . S
H114 C100 0.931 . S
H115 C101 0.933 . S
H116 C107 0.930 . S
H117 C108 0.931 . S
H118 C109 0.931 . S
H119 C110 0.933 . S
H120 C132 0.930 . S
H121 C134 0.930 . S
H122 C135 0.930 . S
H123 C139 0.959 . S
H124 C139 0.959 . S
H125 C139 0.961 . S
H126 C140 0.960 . S
H127 C140 0.961 . S
H128 C140 0.959 . S
H129 C143 0.929 . S
H130 C144 0.931 . S
H131 C146 0.930 . S
C132 H120 0.930 . S
C132 C133 1.399 1_556 S
C132 C137 1.399 . S
C133 C132 1.399 1_554 S
C133 C134 1.376 . S
C134 H121 0.930 . S
C134 C133 1.376 . S
C134 C135 1.388 . S
C135 H122 0.930 . S
C135 C134 1.388 . S
C135 C136 1.390 . S
C136 C135 1.390 . S
C136 C137 1.394 1_554 S
C136 C142 1.465 . S
C137 C132 1.399 . S
C137 C136 1.394 1_556 S
C137 C138 1.516 . S
C138 C137 1.516 . S
C138 C139 1.502 . S
C138 C140 1.561 1_455 S
C138 C141 1.526 . S
C139 H123 0.959 . S
C139 H124 0.959 . S
C139 H125 0.961 . S
C139 C138 1.502 . S
C140 H126 0.960 . S
C140 H127 0.961 . S
C140 H128 0.959 . S
C140 C138 1.561 1_655 S
C141 C138 1.526 . S
C141 C142 1.396 1_556 S
C141 C146 1.390 . S
C142 C136 1.465 . S
C142 C141 1.396 1_554 S
C142 C143 1.399 . S
C143 H129 0.929 . S
C143 C142 1.399 . S
C143 C144 1.385 . S
C144 H130 0.931 . S
C144 C143 1.385 . S
C144 C145 1.389 . S
C145 C144 1.389 . S
C145 C146 1.387 1_554 S
C146 H131 0.930 . S
C146 C141 1.390 . S
C146 C145 1.387 1_556 S
H147 C159 0.930 . S
H148 C161 0.930 . S
H149 C162 0.930 . S
H150 C166 0.959 . S
H151 C166 0.959 . S
H152 C166 0.961 . S
H153 C167 0.960 . S
H154 C167 0.961 . S
H155 C167 0.959 . S
H156 C170 0.929 . S
H157 C171 0.931 . S
H158 C173 0.930 . S
C159 H147 0.930 . S
C159 C160 1.399 . S
C159 C164 1.399 . S
C160 C159 1.399 . S
C160 C161 1.376 . S
C161 H148 0.930 . S
C161 C160 1.376 . S
C161 C162 1.388 1_565 S
C162 H149 0.930 . S
C162 C161 1.388 1_545 S
C162 C163 1.390 . S
C163 C162 1.390 . S
C163 C164 1.394 1_545 S
C163 C169 1.465 . S
C164 C159 1.399 . S
C164 C163 1.394 1_565 S
C164 C165 1.516 . S
C165 C164 1.516 . S
C165 C166 1.502 . S
C165 C167 1.561 . S
C165 C168 1.526 1_565 S
C166 H150 0.959 . S
C166 H151 0.959 . S
C166 H152 0.961 . S
C166 C165 1.502 . S
C167 H153 0.960 . S
C167 H154 0.961 . S
C167 H155 0.959 . S
C167 C165 1.561 . S
C168 C165 1.526 1_545 S
C168 C169 1.396 . S
C168 C173 1.390 . S
C169 C163 1.465 . S
C169 C168 1.396 . S
C169 C170 1.399 . S
C170 H156 0.929 . S
C170 C169 1.399 . S
C170 C171 1.385 . S
C171 H157 0.931 . S
C171 C170 1.385 . S
C171 C172 1.389 . S
C172 C171 1.389 . S
C172 C173 1.387 . S
C173 H158 0.930 . S
C173 C168 1.390 . S
C173 C172 1.387 . S
H174 C186 0.930 . S
H175 C188 0.930 . S
H176 C189 0.930 . S
H177 C193 0.959 . S
H178 C193 0.959 . S
H179 C193 0.961 . S
H180 C194 0.960 . S
H181 C194 0.961 . S
H182 C194 0.959 . S
H183 C197 0.929 . S
H184 C198 0.931 . S
H185 C200 0.930 . S
C186 H174 0.930 . S
C186 C187 1.399 . S
C186 C191 1.399 . S
C187 C186 1.399 . S
C187 C188 1.376 . S
C188 H175 0.930 . S
C188 C187 1.376 . S
C188 C189 1.388 . S
C189 H176 0.930 . S
C189 C188 1.388 . S
C189 C190 1.390 . S
C190 C189 1.390 . S
C190 C191 1.394 . S
C190 C196 1.465 . S
C191 C186 1.399 . S
C191 C190 1.394 . S
C191 C192 1.516 . S
C192 C191 1.516 . S
C192 C193 1.502 . S
C192 C194 1.561 . S
C192 C195 1.526 . S
C193 H177 0.959 . S
C193 H178 0.959 . S
C193 H179 0.961 . S
C193 C192 1.502 . S
C194 H180 0.960 . S
C194 H181 0.961 . S
C194 H182 0.959 . S
C194 C192 1.561 . S
C195 C192 1.526 . S
C195 C196 1.396 . S
C195 C200 1.390 . S
C196 C190 1.465 . S
C196 C195 1.396 . S
C196 C197 1.399 . S
C197 H183 0.929 . S
C197 C196 1.399 . S
C197 C198 1.385 . S
C198 H184 0.931 . S
C198 C197 1.385 . S
C198 C199 1.389 . S
C199 C198 1.389 . S
C199 C200 1.387 . S
C200 H185 0.930 . S
C200 C195 1.390 . S
C200 C199 1.387 . S
H201 C213 0.930 . S
H202 C215 0.930 . S
H203 C216 0.930 . S
H204 C220 0.959 . S
H205 C220 0.959 . S
H206 C220 0.961 . S
H207 C221 0.960 . S
H208 C221 0.961 . S
H209 C221 0.959 . S
H210 C224 0.929 . S
H211 C225 0.931 . S
H212 C227 0.930 . S
C213 H201 0.930 . S
C213 C214 1.399 . S
C213 C218 1.399 . S
C214 C213 1.399 . S
C214 C215 1.376 . S
C215 H202 0.930 . S
C215 C214 1.376 . S
C215 C216 1.388 . S
C216 H203 0.930 . S
C216 C215 1.388 . S
C216 C217 1.390 . S
C217 C216 1.390 . S
C217 C218 1.394 . S
C217 C223 1.465 . S
C218 C213 1.399 . S
C218 C217 1.394 . S
C218 C219 1.516 . S
C219 C218 1.516 . S
C219 C220 1.502 . S
C219 C221 1.561 1_545 S
C219 C222 1.526 . S
C220 H204 0.959 . S
C220 H205 0.959 . S
C220 H206 0.961 . S
C220 C219 1.502 . S
C221 H207 0.960 . S
C221 H208 0.961 . S
C221 H209 0.959 . S
C221 C219 1.561 1_565 S
C222 C219 1.526 . S
C222 C223 1.396 . S
C222 C227 1.390 . S
C223 C217 1.465 . S
C223 C222 1.396 . S
C223 C224 1.399 . S
C224 H210 0.929 . S
C224 C223 1.399 . S
C224 C225 1.385 . S
C225 H211 0.931 . S
C225 C224 1.385 . S
C225 C226 1.389 . S
C226 C225 1.389 . S
C226 C227 1.387 . S
C227 H212 0.930 . S
C227 C222 1.390 . S
C227 C226 1.387 . S
H228 C240 0.930 . S
H229 C242 0.930 . S
H230 C243 0.930 . S
H231 C247 0.959 . S
H232 C247 0.959 . S
H233 C247 0.961 . S
H234 C248 0.960 . S
H235 C248 0.961 . S
H236 C248 0.959 . S
H237 C251 0.929 . S
H238 C252 0.931 . S
H239 C254 0.930 . S
C240 H228 0.930 . S
C240 C241 1.399 1_554 S
C240 C245 1.399 . S
C241 C240 1.399 1_556 S
C241 C242 1.376 . S
C242 H229 0.930 . S
C242 C241 1.376 . S
C242 C243 1.388 . S
C243 H230 0.930 . S
C243 C242 1.388 . S
C243 C244 1.390 . S
C244 C243 1.390 . S
C244 C245 1.394 1_556 S
C244 C250 1.465 . S
C245 C240 1.399 . S
C245 C244 1.394 1_554 S
C245 C246 1.516 . S
C246 C245 1.516 . S
C246 C247 1.502 . S
C246 C248 1.561 . S
C246 C249 1.526 . S
C247 H231 0.959 . S
C247 H232 0.959 . S
C247 H233 0.961 . S
C247 C246 1.502 . S
C248 H234 0.960 . S
C248 H235 0.961 . S
C248 H236 0.959 . S
C248 C246 1.561 . S
C249 C246 1.526 . S
C249 C250 1.396 1_554 S
C249 C254 1.390 . S
C250 C244 1.465 . S
C250 C249 1.396 1_556 S
C250 C251 1.399 . S
C251 H237 0.929 . S
C251 C250 1.399 . S
C251 C252 1.385 . S
C252 H238 0.931 . S
C252 C251 1.385 . S
C252 C253 1.389 1_556 S
C253 C252 1.389 1_554 S
C253 C254 1.387 . S
C254 H239 0.930 . S
C254 C249 1.390 . S
C254 C253 1.387 . S
H255 C267 0.930 . S
H256 C269 0.930 . S
H257 C270 0.930 . S
H258 C274 0.959 . S
H259 C274 0.959 . S
H260 C274 0.961 . S
H261 C275 0.960 . S
H262 C275 0.961 . S
H263 C275 0.959 . S
H264 C278 0.929 . S
H265 C279 0.931 . S
H266 C281 0.934 . S
C267 H255 0.930 . S
C267 C268 1.399 . S
C267 C272 1.399 . S
C268 C267 1.399 . S
C268 C269 1.376 1_655 S
C269 H256 0.930 . S
C269 C268 1.376 1_455 S
C269 C270 1.388 . S
C270 H257 0.930 . S
C270 C269 1.388 . S
C270 C271 1.390 . S
C271 C270 1.390 . S
C271 C272 1.391 1_455 S
C271 C277 1.465 . S
C272 C267 1.399 . S
C272 C271 1.391 1_655 S
C272 C273 1.518 . S
C273 C272 1.518 . S
C273 C274 1.502 . S
C273 C275 1.561 1_655 S
C273 C276 1.526 1_655 S
C274 H258 0.959 . S
C274 H259 0.959 . S
C274 H260 0.961 . S
C274 C273 1.502 . S
C275 H261 0.960 . S
C275 H262 0.961 . S
C275 H263 0.959 . S
C275 C273 1.561 1_455 S
C276 C273 1.526 1_455 S
C276 C277 1.396 . S
C276 C281 1.390 . S
C277 C271 1.465 . S
C277 C276 1.396 . S
C277 C278 1.399 . S
C278 H264 0.929 . S
C278 C277 1.399 . S
C278 C279 1.385 . S
C279 H265 0.931 . S
C279 C278 1.385 . S
C279 C280 1.389 . S
C280 C279 1.389 . S
C280 C281 1.387 . S
C281 H266 0.934 . S
C281 C276 1.390 . S
C281 C280 1.387 . S
H282 C294 0.930 . S
H283 C296 0.930 . S
H284 C297 0.930 . S
H285 C301 0.959 . S
H286 C301 0.959 . S
H287 C301 0.961 . S
H288 C302 0.960 . S
H289 C302 0.961 . S
H290 C302 0.959 . S
H291 C305 0.929 . S
H292 C306 0.931 . S
H293 C308 0.930 . S
C294 H282 0.930 . S
C294 C295 1.399 1_565 S
C294 C299 1.399 . S
C295 C294 1.399 1_545 S
C295 C296 1.376 . S
C296 H283 0.930 . S
C296 C295 1.376 . S
C296 C297 1.388 . S
C297 H284 0.930 . S
C297 C296 1.388 . S
C297 C298 1.390 . S
C298 C297 1.390 . S
C298 C299 1.394 1_545 S
C298 C304 1.465 . S
C299 C294 1.399 . S
C299 C298 1.394 1_565 S
C299 C300 1.516 . S
C300 C299 1.516 . S
C300 C301 1.502 . S
C300 C302 1.561 1_455 S
C300 C303 1.526 . S
C301 H285 0.959 . S
C301 H286 0.959 . S
C301 H287 0.961 . S
C301 C300 1.502 . S
C302 H288 0.960 . S
C302 H289 0.961 . S
C302 H290 0.959 . S
C302 C300 1.561 1_655 S
C303 C300 1.526 . S
C303 C304 1.396 1_565 S
C303 C308 1.390 . S
C304 C298 1.465 . S
C304 C303 1.396 1_545 S
C304 C305 1.399 . S
C305 H291 0.929 . S
C305 C304 1.399 . S
C305 C306 1.385 . S
C306 H292 0.931 . S
C306 C305 1.385 . S
C306 C307 1.389 . S
C307 C306 1.389 . S
C307 C308 1.387 1_545 S
C308 H293 0.930 . S
C308 C303 1.390 . S
C308 C307 1.387 1_565 S
H309 C321 0.930 . S
H310 C323 0.930 . S
H311 C324 0.930 . S
H312 C328 0.959 . S
H313 C328 0.959 . S
H314 C328 0.961 . S
H315 C329 0.960 . S
H316 C329 0.961 . S
H317 C329 0.959 1_655 S
H318 C332 0.929 . S
H319 C333 0.931 1_565 S
H320 C335 0.930 . S
C321 H309 0.930 . S
C321 C322 1.394 1_455 S
C321 C326 1.399 . S
C322 C321 1.394 1_655 S
C322 C323 1.387 1_545 S
C323 H310 0.930 . S
C323 C322 1.387 1_565 S
C323 C324 1.388 . S
C324 H311 0.930 . S
C324 C323 1.388 . S
C324 C325 1.390 1_565 S
C325 C324 1.390 1_545 S
C325 C326 1.394 1_655 S
C325 C331 1.465 . S
C326 C321 1.399 . S
C326 C325 1.394 1_455 S
C326 C327 1.516 . S
C327 C326 1.516 . S
C327 C328 1.502 . S
C327 C329 1.561 . S
C327 C330 1.526 . S
C328 H312 0.959 . S
C328 H313 0.959 . S
C328 H314 0.961 . S
C328 C327 1.502 . S
C329 H315 0.960 . S
C329 H316 0.961 . S
C329 H317 0.959 1_455 S
C329 C327 1.561 . S
C330 C327 1.526 . S
C330 C331 1.396 1_455 S
C330 C335 1.390 . S
C331 C325 1.465 . S
C331 C330 1.396 1_655 S
C331 C332 1.399 1_545 S
C332 H318 0.929 . S
C332 C331 1.399 1_565 S
C332 C333 1.385 1_565 S
C333 H319 0.931 1_545 S
C333 C332 1.385 1_545 S
C333 C334 1.389 . S
C334 C333 1.389 . S
C334 C335 1.387 1_655 S
C335 H320 0.930 . S
C335 C330 1.390 . S
C335 C334 1.387 1_455 S
H336 C348 0.930 . S
H337 C350 0.930 . S
H338 C351 0.930 . S
H339 C355 0.959 1_545 S
H340 C355 0.959 . S
H341 C355 0.961 . S
H342 C356 0.960 . S
H343 C356 0.961 . S
H344 C356 0.959 . S
H345 C359 0.929 . S
H346 C360 0.931 . S
H347 C362 0.930 . S
C348 H336 0.930 . S
C348 C349 1.399 1_655 S
C348 C353 1.399 . S
C349 C348 1.399 1_455 S
C349 C350 1.376 . S
C350 H337 0.930 . S
C350 C349 1.376 . S
C350 C351 1.388 . S
C351 H338 0.930 . S
C351 C350 1.388 . S
C351 C352 1.390 . S
C352 C351 1.390 . S
C352 C353 1.394 1_455 S
C352 C358 1.465 . S
C353 C348 1.399 . S
C353 C352 1.394 1_655 S
C353 C354 1.516 1_545 S
C354 C353 1.516 1_565 S
C354 C355 1.502 . S
C354 C356 1.561 . S
C354 C357 1.526 1_565 S
C355 H339 0.959 1_565 S
C355 H340 0.959 . S
C355 H341 0.961 . S
C355 C354 1.502 . S
C356 H342 0.960 . S
C356 H343 0.961 . S
C356 H344 0.959 . S
C356 C354 1.561 . S
C357 C354 1.526 1_545 S
C357 C358 1.396 1_655 S
C357 C362 1.390 1_545 S
C358 C352 1.465 . S
C358 C357 1.396 1_455 S
C358 C359 1.399 . S
C359 H345 0.929 . S
C359 C358 1.399 . S
C359 C360 1.385 . S
C360 H346 0.931 . S
C360 C359 1.385 . S
C360 C361 1.389 . S
C361 C360 1.389 . S
C361 C362 1.387 1_445 S
C362 H347 0.930 . S
C362 C357 1.390 1_565 S
C362 C361 1.387 1_665 S
C133 C13 2.843 . S
C145 C24 2.855 . S
C160 C57 0.972 . S
C172 C66 1.121 . S
C187 C106 0.731 . S
C199 C97 0.805 . S
C214 C93 4.814 . S
C226 C104 4.812 . S
C241 C17 0.504 . S
C253 C26 0.401 . S
C268 C53 2.877 . S
C280 C64 2.901 . S
C295 C42 1.475 1_455 S
C307 C2 1.475 . S
C322 C63 1.496 1_655 S
C334 C82 1.430 . S
C349 C103 1.471 . S
C361 C23 1.512 . S
