# Generated by pormake.
# Topology dft, (4)-cn, num edge types: 1
# Building blocks:
#     Node 0, Type 0, BuildingBlock: NAHDIM_clean_sbu_0, # of connection points: 4
#     Node 1, Type 0, BuildingBlock: NAHDIM_clean_sbu_0, # of connection points: 4
#     Node 2, Type 0, BuildingBlock: NAHDIM_clean_sbu_0, # of connection points: 4
#     Node 3, Type 0, BuildingBlock: NAHDIM_clean_sbu_0, # of connection points: 4
#     Node 4, Type 0, BuildingBlock: NAHDIM_clean_sbu_0, # of connection points: 4
#     Node 5, Type 0, BuildingBlock: NAHDIM_clean_sbu_0, # of connection points: 4
#     Node 6, Type 0, BuildingBlock: NAHDIM_clean_sbu_0, # of connection points: 4
#     Node 7, Type 0, BuildingBlock: NAHDIM_clean_sbu_0, # of connection points: 4
#     Edge 8, Type (0, 0), BuildingBlock: TEMPAE_clean_linker_10, # of connection points: 2
#     Edge 9, Type (0, 0), BuildingBlock: TEMPAE_clean_linker_10, # of connection points: 2
#     Edge 10, Type (0, 0), BuildingBlock: TEMPAE_clean_linker_10, # of connection points: 2
#     Edge 11, Type (0, 0), BuildingBlock: TEMPAE_clean_linker_10, # of connection points: 2
#     Edge 12, Type (0, 0), BuildingBlock: TEMPAE_clean_linker_10, # of connection points: 2
#     Edge 13, Type (0, 0), BuildingBlock: TEMPAE_clean_linker_10, # of connection points: 2
#     Edge 14, Type (0, 0), BuildingBlock: TEMPAE_clean_linker_10, # of connection points: 2
#     Edge 15, Type (0, 0), BuildingBlock: TEMPAE_clean_linker_10, # of connection points: 2
#     Edge 16, Type (0, 0), BuildingBlock: TEMPAE_clean_linker_10, # of connection points: 2
#     Edge 17, Type (0, 0), BuildingBlock: TEMPAE_clean_linker_10, # of connection points: 2
#     Edge 18, Type (0, 0), BuildingBlock: TEMPAE_clean_linker_10, # of connection points: 2
#     Edge 19, Type (0, 0), BuildingBlock: TEMPAE_clean_linker_10, # of connection points: 2
#     Edge 20, Type (0, 0), BuildingBlock: TEMPAE_clean_linker_10, # of connection points: 2
#     Edge 21, Type (0, 0), BuildingBlock: TEMPAE_clean_linker_10, # of connection points: 2
#     Edge 22, Type (0, 0), BuildingBlock: TEMPAE_clean_linker_10, # of connection points: 2
#     Edge 23, Type (0, 0), BuildingBlock: TEMPAE_clean_linker_10, # of connection points: 2
# Relax obj value: 0.139
# Max RMSD: 0.138
# Mean RMSD: 0.138
data_MOF--net-dft--node1-NAHDIM_clean_sbu_0--edge1-TEMPAE_clean_linker_10
_symmetry_space_group_name_H-M    P1
_symmetry_Int_Tables_number       1
_symmetry_cell_setting            triclinic
loop_
_symmetry_equiv_pos_as_xyz
'x, y, z'
_cell_length_a     35.433161
_cell_length_b     35.468511
_cell_length_c     39.057515
_cell_angle_alpha  89.958603
_cell_angle_beta   90.007612
_cell_angle_gamma 89.994557
loop_
_atom_site_label
_atom_site_type_symbol
_atom_site_fract_x
_atom_site_fract_y
_atom_site_fract_z
_atom_type_partial_charge
C0 C 0.37835 0.04683 0.22381 0.0
O1 O 0.36736 0.07445 0.20372 0.0
O2 O 0.27771 0.08027 0.24054 0.0
Zn3 Zn 0.30005 0.03246 0.22181 0.0
O4 O 0.29931 0.03275 0.17037 0.0
C5 C 0.26707 0.95877 0.22032 0.0
O6 O 0.28784 0.95585 0.19258 0.0
O7 O 0.35361 0.02512 0.23662 0.0
C8 C 0.26985 0.04012 0.15309 0.0
O9 O 0.23863 0.04942 0.16915 0.0
C10 C 0.27852 0.11177 0.225 0.0
O11 O 0.29631 0.11438 0.19558 0.0
O12 O 0.26841 0.98898 0.23774 0.0
C13 C 0.97127 0.3777 0.69569 0.0
O14 O 0.94649 0.36735 0.6725 0.0
O15 O 0.93783 0.27537 0.71859 0.0
Zn16 Zn 0.98423 0.29848 0.69766 0.0
O17 O 0.98053 0.29515 0.64649 0.0
C18 C 0.03465 0.25584 0.74169 0.0
O19 O 0.00807 0.26074 0.76471 0.0
O20 O 0.99029 0.35255 0.71112 0.0
C21 C 0.00981 0.30199 0.62877 0.0
O22 O 0.04121 0.31135 0.64453 0.0
C23 C 0.93533 0.23967 0.71727 0.0
O24 O 0.96254 0.22044 0.70254 0.0
O25 O 0.03046 0.26978 0.71197 0.0
C26 C 0.64707 0.96883 0.19334 0.0
O27 O 0.65384 0.94698 0.16689 0.0
O28 O 0.75224 0.934 0.21118 0.0
Zn29 Zn 0.72679 0.97862 0.18971 0.0
O30 O 0.72487 0.97514 0.13836 0.0
C31 C 0.76266 0.03389 0.23215 0.0
O32 O 0.74764 0.01356 0.25677 0.0
O33 O 0.67451 0.98506 0.20814 0.0
C34 C 0.74719 0.95556 0.12016 0.0
O35 O 0.77309 0.93481 0.13514 0.0
C36 C 0.74412 0.89961 0.20593 0.0
O37 O 0.71671 0.89101 0.18468 0.0
O38 O 0.75707 0.02439 0.20123 0.0
C39 C 0.04915 0.64962 0.69787 0.0
O40 O 0.07617 0.65947 0.67662 0.0
O41 O 0.08451 0.74968 0.72091 0.0
Zn42 Zn 0.0384 0.72874 0.69785 0.0
O43 O 0.04325 0.73034 0.64652 0.0
C44 C 0.98479 0.78895 0.69351 0.0
O45 O 0.00522 0.79756 0.66655 0.0
O46 O 0.02929 0.67519 0.71174 0.0
C47 C 0.01508 0.71915 0.62914 0.0
O48 O 0.98502 0.70681 0.64538 0.0
C49 C 0.11596 0.75423 0.70584 0.0
O50 O 0.11951 0.74363 0.67378 0.0
O51 O -0.00624 0.76039 0.71144 0.0
C52 C 0.35961 0.01899 0.78112 0.0
O53 O 0.33449 0.00379 0.7606 0.0
O54 O 0.27163 0.98075 0.80963 0.0
Zn55 Zn 0.2957 0.02851 0.82659 0.0
O56 O 0.29533 0.03047 0.87807 0.0
C57 C 0.24252 0.06871 0.78456 0.0
O58 O 0.24129 0.03639 0.7682 0.0
O59 O 0.34913 0.03183 0.80996 0.0
C60 C 0.27411 0.00977 0.89636 0.0
O61 O 0.25191 0.98508 0.88146 0.0
C62 C 0.28525 0.94768 0.8115 0.0
O63 O 0.31805 0.9424 0.82645 0.0
O64 O 0.26503 0.07245 0.80967 0.0
C65 C 0.00165 0.36467 0.25539 0.0
O66 O 0.02372 0.34177 0.23813 0.0
O67 O 0.04213 0.27973 0.28467 0.0
Zn68 Zn 0.99325 0.30115 0.30166 0.0
O69 O -0.0048 0.30555 0.35288 0.0
C70 C 0.95801 0.23153 0.28403 0.0
O71 O 0.99299 0.21973 0.287 0.0
O72 O 0.98527 0.35278 0.28225 0.0
C73 C 0.00391 0.27748 0.3715 0.0
O74 O 0.01192 0.24514 0.35684 0.0
C75 C 0.07448 0.29 0.29509 0.0
O76 O 0.0771 0.31717 0.31781 0.0
O77 O 0.95077 0.26625 0.28873 0.0
C78 C 0.64036 0.00622 0.75877 0.0
O79 O 0.66066 0.03153 0.74251 0.0
O80 O 0.72715 0.04539 0.78396 0.0
Zn81 Zn 0.7098 0.99293 0.79602 0.0
O82 O 0.71299 0.98378 0.84693 0.0
C83 C 0.7788 0.96579 0.7686 0.0
O84 O 0.7892 -0.00022 0.77796 0.0
O85 O 0.65592 0.98586 0.78154 0.0
C86 C 0.74273 0.99035 0.86413 0.0
O87 O 0.77244 0.0044 0.8486 0.0
C88 C 0.73037 0.07311 0.80433 0.0
O89 O 0.71962 0.0695 0.83634 0.0
O90 O 0.7446 0.95586 0.77276 0.0
C91 C 0.01371 0.64449 0.2571 0.0
O92 O -0.00597 0.66804 0.23824 0.0
O93 O 0.97387 0.73032 0.28415 0.0
Zn94 Zn 0.02231 0.70873 0.30219 0.0
O95 O 0.02094 0.70664 0.35347 0.0
C96 C 0.06038 0.77382 0.27499 0.0
O97 O 0.02559 0.78553 0.27039 0.0
O98 O 0.0288 0.65616 0.28464 0.0
C99 C 0.01425 0.73585 0.37125 0.0
O100 O 0.00759 0.76799 0.35562 0.0
C101 C 0.94148 0.72442 0.29698 0.0
O102 O 0.93828 0.70243 0.32391 0.0
O103 O 0.06605 0.74139 0.28787 0.0
C104 C 0.24089 0.05097 0.09547 0.0
C105 C 0.27055 0.03665 0.11536 0.0
C106 C 0.24111 0.04724 0.05968 0.0
C107 C 0.27146 0.02831 0.04354 0.0
C108 C 0.30143 0.01375 0.06351 0.0
C109 C 0.30074 0.01831 0.09916 0.0
C110 C 0.20891 0.06357 0.03914 0.0
C111 C 0.33408 0.99304 0.04725 0.0
C112 C 0.25556 0.9876 0.9548 0.0
C113 C 0.27363 0.01432 0.93402 0.0
C114 C 0.2547 0.99176 0.99053 0.0
C115 C 0.27191 0.02364 0.00574 0.0
C116 C 0.28999 0.05082 0.98488 0.0
C117 C 0.29084 0.04571 0.94928 0.0
C118 C 0.23558 0.96194 0.01201 0.0
C119 C 0.30834 0.08537 0.00017 0.0
H120 H 0.21756 0.06529 0.10784 0.0
H121 H 0.32366 0.00697 0.11439 0.0
H122 H 0.21992 0.08403 0.02009 0.0
H123 H 0.19445 0.04086 0.02469 0.0
H124 H 0.18781 0.07808 0.05553 0.0
H125 H 0.35502 0.98317 0.06645 0.0
H126 H 0.32349 0.96826 0.03282 0.0
H127 H 0.34865 0.01167 0.02865 0.0
H128 H 0.24231 0.96321 0.94319 0.0
H129 H 0.30468 0.0666 0.93337 0.0
H130 H 0.21241 0.97474 0.02715 0.0
H131 H 0.25605 0.94978 0.03048 0.0
H132 H 0.22373 0.93874 0.99624 0.0
H133 H 0.28731 0.10157 0.01522 0.0
H134 H 0.32056 0.10422 0.98034 0.0
H135 H 0.33113 0.07684 0.01804 0.0
C136 C 0.04178 0.30385 0.57173 0.0
C137 C 0.00875 0.29887 0.591 0.0
C138 C 0.04136 0.30048 0.53595 0.0
C139 C 0.00705 0.29204 0.51905 0.0
C140 C 0.97357 0.28716 0.53831 0.0
C141 C 0.97483 0.29059 0.57407 0.0
C142 C 0.07764 0.30582 0.51623 0.0
C143 C 0.93644 0.27825 0.52113 0.0
C144 C -0.00156 0.31632 0.42472 0.0
C145 C 0.00481 0.28121 0.40923 0.0
C146 C -0.00089 0.32025 0.46045 0.0
C147 C 0.00622 0.28829 0.48117 0.0
C148 C 0.01263 0.25277 0.46574 0.0
C149 C 0.01192 0.24966 0.42993 0.0
C150 C 0.99224 0.35861 0.47602 0.0
C151 C 0.02022 0.21804 0.48705 0.0
H152 H 0.06812 0.3102 0.5846 0.0
H153 H 0.94916 0.28676 0.58877 0.0
H154 H 0.08426 0.2799 0.50152 0.0
H155 H 0.07438 0.3291 0.49748 0.0
H156 H 0.10191 0.31235 0.53323 0.0
H157 H 0.91294 0.27545 0.53978 0.0
H158 H 0.92919 0.30081 0.50256 0.0
H159 H 0.93886 0.25156 0.5065 0.0
H160 H 0.99298 0.34086 0.40892 0.0
H161 H 0.0168 0.22242 0.41818 0.0
H162 H 0.01693 0.36714 0.49167 0.0
H163 H 0.96749 0.35747 0.49339 0.0
H164 H 0.9871 0.38063 0.45632 0.0
H165 H 0.04569 0.22244 0.50308 0.0
H166 H 0.02456 0.1925 0.47109 0.0
H167 H -0.00377 0.21285 0.50468 0.0
C168 C 0.71595 0.96038 0.91676 0.0
C169 C 0.74357 0.9831 0.90139 0.0
C170 C 0.71626 0.95361 0.95216 0.0
C171 C 0.74451 0.97048 0.9727 0.0
C172 C 0.77255 -0.00668 0.9573 0.0
C173 C 0.77191 -0.00088 0.92178 0.0
C174 C 0.68622 0.92867 0.96763 0.0
C175 C 0.8028 0.01223 0.97844 0.0
C176 C 0.72386 0.9866 0.0668 0.0
C177 C 0.74529 0.95809 0.08238 0.0
C178 C 0.72317 0.99074 0.03111 0.0
C179 C 0.74399 0.96543 0.01046 0.0
C180 C 0.76497 0.93603 0.02595 0.0
C181 C 0.76559 0.93287 0.06179 0.0
C182 C 0.70078 0.02271 0.01556 0.0
C183 C 0.78705 0.90818 0.00467 0.0
H184 H 0.69414 0.94769 0.90108 0.0
H185 H 0.79324 0.01683 0.91007 0.0
H186 H 0.69951 0.90546 0.98239 0.0
H187 H 0.66877 0.9452 0.98581 0.0
H188 H 0.66735 0.91624 0.94792 0.0
H189 H 0.82284 0.0287 0.96247 0.0
H190 H 0.78959 0.03152 0.99732 0.0
H191 H 0.81893 0.99082 0.99309 0.0
H192 H 0.70818 0.0063 0.08253 0.0
H193 H 0.78203 0.91064 0.07366 0.0
H194 H 0.6797 0.01149 0.99721 0.0
H195 H 0.7199 0.04161 0.001 0.0
H196 H 0.68577 0.03969 0.03519 0.0
H197 H 0.76822 0.89452 0.98567 0.0
H198 H 0.8005 0.88593 0.02055 0.0
H199 H 0.80941 0.92313 0.99014 0.0
C200 C 0.02389 0.69972 0.42557 0.0
C201 C 0.01445 0.73362 0.40911 0.0
C202 C 0.02449 0.69715 0.4614 0.0
C203 C 0.01528 0.7292 0.48126 0.0
C204 C 0.00567 0.76349 0.46485 0.0
C205 C 0.00543 0.76531 0.42895 0.0
C206 C 0.03496 0.66012 0.478 0.0
C207 C -0.00448 0.7982 0.48524 0.0
C208 C 0.98264 0.71303 0.57262 0.0
C209 C 0.01539 0.72138 0.59132 0.0
C210 C 0.98218 0.71565 0.53679 0.0
C211 C 0.01532 0.72669 0.51924 0.0
C212 C 0.04853 0.73499 0.53792 0.0
C213 C 0.04814 0.73233 0.57377 0.0
C214 C 0.94618 0.7067 0.51774 0.0
C215 C 0.08447 0.74663 0.52002 0.0
H216 H 0.03096 0.6751 0.41046 0.0
H217 H -0.00192 0.79159 0.41644 0.0
H218 H 0.05973 0.66406 0.495 0.0
H219 H 0.01133 0.65 0.49421 0.0
H220 H 0.04178 0.63796 0.4589 0.0
H221 H 0.98879 0.82271 0.46859 0.0
H222 H 0.97076 0.79225 0.50177 0.0
H223 H 0.01925 0.80602 0.50235 0.0
H224 H 0.95718 0.70466 0.58598 0.0
H225 H 0.07357 0.73879 0.58805 0.0
H226 H 0.95106 0.68309 0.49966 0.0
H227 H 0.93727 0.73145 0.50233 0.0
H228 H 0.92275 0.69884 0.53524 0.0
H229 H 0.09343 0.72424 0.50195 0.0
H230 H 0.10788 0.75208 0.53828 0.0
H231 H 0.07949 0.77254 0.50474 0.0
C232 C 0.44578 0.05947 0.20962 0.0
C233 C 0.41891 0.03777 0.22711 0.0
C234 C 0.48366 0.04826 0.20822 0.0
C235 C 0.49492 0.01465 0.22488 0.0
C236 C 0.46844 -0.00617 0.24433 0.0
C237 C 0.43066 0.00563 0.24517 0.0
C238 C 0.51115 0.0713 0.18733 0.0
C239 C 0.47958 0.95809 0.26275 0.0
C240 C 0.57764 0.96499 0.18341 0.0
C241 C 0.60786 0.9774 0.20361 0.0
C242 C 0.54055 0.97598 0.19079 0.0
C243 C 0.53351 -0.00031 0.21922 0.0
C244 C 0.56366 0.01095 0.24064 0.0
C245 C 0.60057 -0.00022 0.23249 0.0
C246 C 0.50907 0.96345 0.1673 0.0
C247 C 0.55711 0.03584 0.27141 0.0
H248 H 0.43701 0.08451 0.19581 0.0
H249 H 0.4101 0.98884 0.25896 0.0
H250 H 0.53671 0.0778 0.20261 0.0
H251 H 0.52037 0.05478 0.1647 0.0
H252 H 0.49861 0.09821 0.17823 0.0
H253 H 0.45693 0.94782 0.28007 0.0
H254 H 0.48578 0.93571 0.24374 0.0
H255 H 0.50561 0.96263 0.27798 0.0
H256 H 0.58302 0.94762 0.16112 0.0
H257 H 0.62379 0.00926 0.24838 0.0
H258 H 0.4965 0.98839 0.15445 0.0
H259 H 0.48634 0.94965 0.18227 0.0
H260 H 0.51901 0.9435 0.14732 0.0
H261 H 0.54798 0.06424 0.26282 0.0
H262 H 0.58291 0.03899 0.28732 0.0
H263 H 0.53417 0.02418 0.28759 0.0
C264 C 0.96288 0.4456 0.68049 0.0
C265 C 0.9799 0.41806 0.70111 0.0
C266 C 0.9736 0.48355 0.68288 0.0
C267 C 0.00188 0.4942 0.70659 0.0
C268 C 0.01803 0.46682 0.72849 0.0
C269 C 0.00691 0.42902 0.72544 0.0
C270 C 0.95571 0.51201 0.65909 0.0
C271 C 0.04802 0.47723 0.75428 0.0
C272 C 0.05761 0.58165 0.68322 0.0
C273 C 0.03937 0.60943 0.70265 0.0
C274 C 0.04626 0.54385 0.68496 0.0
C275 C 0.01611 0.53356 0.70683 0.0
C276 C -0.00148 0.56118 0.72749 0.0
C277 C 0.0103 0.59886 0.72509 0.0
C278 C 0.0657 0.51513 0.66251 0.0
C279 C 0.96652 0.55114 0.75134 0.0
H280 H 0.94193 0.4374 0.6617 0.0
H281 H 0.02005 0.40793 0.74162 0.0
H282 H 0.9441 0.53599 0.67395 0.0
H283 H 0.97743 0.52358 0.64152 0.0
H284 H 0.93266 0.49955 0.64349 0.0
H285 H 0.05541 0.45326 0.77134 0.0
H286 H 0.07392 0.48648 0.74071 0.0
H287 H 0.03839 0.5012 0.77029 0.0
H288 H 0.08013 0.58955 0.66587 0.0
H289 H -0.00382 0.62015 0.74033 0.0
H290 H 0.04521 0.50333 0.64389 0.0
H291 H 0.0763 0.49134 0.67826 0.0
H292 H 0.08977 0.52741 0.64808 0.0
H293 H 0.94178 0.54166 0.73621 0.0
H294 H 0.95778 0.57534 0.76755 0.0
H295 H 0.97483 0.52741 0.76825 0.0
C296 C 0.58027 0.03257 0.73497 0.0
C297 C 0.59892 0.00481 0.75419 0.0
C298 C 0.5407 0.03465 0.73455 0.0
C299 C 0.51942 0.00828 0.75371 0.0
C300 C 0.53804 0.97881 0.77139 0.0
C301 C 0.57756 0.97746 0.77144 0.0
C302 C 0.52181 0.06636 0.71525 0.0
C303 C 0.51631 0.94993 0.79189 0.0
C304 C 0.42628 0.03738 0.79311 0.0
C305 C 0.40017 0.01878 0.77209 0.0
C306 C 0.46509 0.03516 0.78663 0.0
C307 C 0.47818 0.0137 0.75849 0.0
C308 C 0.45198 -0.00414 0.73647 0.0
C309 C 0.4132 -0.00134 0.74351 0.0
C310 C 0.49216 0.05483 0.8106 0.0
C311 C 0.46495 0.97278 0.70622 0.0
H312 H 0.59654 0.05371 0.7214 0.0
H313 H 0.59173 0.95566 0.78606 0.0
H314 H 0.49806 0.05548 0.69962 0.0
H315 H 0.50989 0.08689 0.73375 0.0
H316 H 0.54181 0.0815 0.69819 0.0
H317 H 0.53467 0.92673 0.80127 0.0
H318 H 0.50303 0.9638 0.81432 0.0
H319 H 0.4933 0.93762 0.77622 0.0
H320 H 0.41646 0.05323 0.81509 0.0
H321 H 0.39318 0.98424 0.72711 0.0
H322 H 0.51141 0.07346 0.79592 0.0
H323 H 0.50987 0.03362 0.82396 0.0
H324 H 0.47733 0.07205 0.83017 0.0
H325 H 0.48492 0.98927 0.69027 0.0
H326 H 0.44102 0.96347 0.68991 0.0
H327 H 0.48027 0.94744 0.71542 0.0
C328 C 0.02499 0.42096 0.22296 0.0
C329 C -0.00023 0.40519 0.24667 0.0
C330 C 0.02725 0.46019 0.21853 0.0
C331 C 0.0037 0.48397 0.23825 0.0
C332 C 0.97644 0.46805 0.26045 0.0
C333 C 0.97483 0.42885 0.26439 0.0
C334 C 0.05641 0.47618 0.19439 0.0
C335 C 0.95057 0.49247 0.28174 0.0
C336 C 0.03709 0.57942 0.26853 0.0
C337 C 0.01491 0.60386 0.24874 0.0
C338 C 0.0351 0.54032 0.26403 0.0
C339 C 0.01033 0.52527 0.23912 0.0
C340 C 0.98947 0.5498 0.2177 0.0
C341 C 0.992 0.58892 0.22276 0.0
C342 C 0.05804 0.51508 0.28727 0.0
C343 C 0.963 0.53473 0.19069 0.0
H344 H 0.04421 0.40283 0.209 0.0
H345 H 0.95491 0.41685 0.28243 0.0
H346 H 0.04408 0.49901 0.17851 0.0
H347 H 0.07984 0.48868 0.20943 0.0
H348 H 0.06833 0.45425 0.17721 0.0
H349 H 0.92855 0.47573 0.29512 0.0
H350 H 0.96738 0.50781 0.30125 0.0
H351 H 0.93649 0.51388 0.26544 0.0
H352 H 0.05519 0.59074 0.28839 0.0
H353 H 0.97492 0.60765 0.20724 0.0
H354 H 0.07418 0.49427 0.27196 0.0
H355 H 0.03885 0.49905 0.30437 0.0
H356 H 0.07815 0.53125 0.3034 0.0
H357 H 0.97697 0.51237 0.17542 0.0
H358 H 0.95302 0.55724 0.17309 0.0
H359 H 0.93805 0.52183 0.20324 0.0
C360 C 0.14426 0.27802 0.29648 0.0
C361 C 0.10841 0.26936 0.28341 0.0
C362 C 0.17597 0.25644 0.28739 0.0
C363 C 0.17156 0.2255 0.26488 0.0
C364 C 0.13568 0.21747 0.25073 0.0
C365 C 0.10461 0.23953 0.26011 0.0
C366 C 0.21389 0.26596 0.30272 0.0
C367 C 0.12979 0.1847 0.22661 0.0
C368 C 0.25189 0.1768 0.21856 0.0
C369 C 0.2555 0.14358 0.23781 0.0
C370 C 0.22618 0.20498 0.22819 0.0
C371 C 0.20357 0.19968 0.25767 0.0
C372 C 0.20873 0.16726 0.2783 0.0
C373 C 0.23468 0.13964 0.26815 0.0
C374 C 0.22169 0.23936 0.20575 0.0
C375 C 0.18521 0.16061 0.30999 0.0
H376 H 0.14745 0.30114 0.31437 0.0
H377 H 0.07707 0.23273 0.24971 0.0
H378 H 0.22269 0.24319 0.3205 0.0
H379 H 0.23565 0.26785 0.28237 0.0
H380 H 0.21333 0.29299 0.31707 0.0
H381 H 0.10047 0.18341 0.21659 0.0
H382 H 0.14949 0.18676 0.20462 0.0
H383 H 0.136 0.15785 0.24008 0.0
H384 H 0.26808 0.18021 0.19522 0.0
H385 H 0.23753 0.11424 0.28338 0.0
H386 H 0.22113 0.26537 0.2215 0.0
H387 H 0.19441 0.23774 0.19188 0.0
H388 H 0.24474 0.24179 0.1866 0.0
H389 H 0.18571 0.18582 0.32676 0.0
H390 H 0.19518 0.1359 0.32496 0.0
H391 H 0.1554 0.15566 0.3025 0.0
C392 C 0.90477 0.181 0.73863 0.0
C393 C 0.90257 0.21979 0.73218 0.0
C394 C 0.87391 0.16124 0.75204 0.0
C395 C 0.83976 0.18065 0.75867 0.0
C396 C 0.83739 0.21991 0.75251 0.0
C397 C 0.869 0.23913 0.73955 0.0
C398 C 0.87774 0.11943 0.75869 0.0
C399 C 0.80127 0.24137 0.75884 0.0
C400 C 0.75665 0.11396 0.75829 0.0
C401 C 0.75261 0.10613 0.79327 0.0
C402 C 0.78305 0.1405 0.74677 0.0
C403 C 0.80639 0.15911 0.77083 0.0
C404 C 0.8007 0.15315 0.80631 0.0
C405 C 0.77357 0.12688 0.81715 0.0
C406 C 0.78772 0.14664 0.70875 0.0
C407 C 0.82522 0.17223 0.83273 0.0
H408 H 0.93076 0.16598 0.73328 0.0
H409 H 0.86715 0.26913 0.7345 0.0
H410 H 0.87021 0.11297 0.78564 0.0
H411 H 0.8579 0.10361 0.74206 0.0
H412 H 0.90679 0.10898 0.75376 0.0
H413 H 0.80455 0.27209 0.75416 0.0
H414 H 0.77872 0.23045 0.7418 0.0
H415 H 0.79164 0.23706 0.78558 0.0
H416 H 0.74017 0.09822 0.73977 0.0
H417 H 0.77061 0.12083 0.84423 0.0
H418 H 0.81438 0.13332 0.70006 0.0
H419 H 0.7896 0.17717 0.70283 0.0
H420 H 0.76403 0.13429 0.69385 0.0
H421 H 0.85402 0.15997 0.83178 0.0
H422 H 0.81398 0.16863 0.85908 0.0
H423 H 0.82786 0.20279 0.82721 0.0
C424 C 0.91189 0.76538 0.25255 0.0
C425 C 0.90828 0.74433 0.28279 0.0
C426 C 0.88192 0.78718 0.24013 0.0
C427 C 0.84747 0.78807 0.25843 0.0
C428 C 0.84303 0.76566 0.28817 0.0
C429 C 0.87355 0.74397 0.30001 0.0
C430 C 0.88772 0.81054 0.20819 0.0
C431 C 0.80666 0.76589 0.30828 0.0
C432 C 0.79397 0.87947 0.24711 0.0
C433 C 0.76757 0.86985 0.22182 0.0
C434 C 0.81895 0.85259 0.26037 0.0
C435 C 0.81764 0.81514 0.24796 0.0
C436 C 0.79002 0.80479 0.22351 0.0
C437 C 0.76519 0.83231 0.21074 0.0
C438 C 0.84785 0.86471 0.2866 0.0
C439 C 0.78779 0.7651 0.20974 0.0
H440 H 0.93852 0.76554 0.23888 0.0
H441 H 0.8705 0.72766 0.32333 0.0
H442 H 0.86467 0.80525 0.1896 0.0
H443 H 0.8869 0.84094 0.21484 0.0
H444 H 0.91513 0.80445 0.19554 0.0
H445 H 0.80632 0.74396 0.3286 0.0
H446 H 0.80281 0.79386 0.32049 0.0
H447 H 0.78222 0.76129 0.29102 0.0
H448 H 0.79572 0.90833 0.25609 0.0
H449 H 0.74479 0.82465 0.19127 0.0
H450 H 0.87655 0.86281 0.27537 0.0
H451 H 0.84708 0.84565 0.30911 0.0
H452 H 0.84321 0.89409 0.2955 0.0
H453 H 0.81313 0.75915 0.19395 0.0
H454 H 0.76229 0.76062 0.1937 0.0
H455 H 0.78756 0.74441 0.23106 0.0
C456 C 0.14308 0.7852 0.75776 0.0
C457 C 0.14654 0.77538 0.72311 0.0
C458 C 0.16912 0.80947 0.77338 0.0
C459 C 0.19924 0.82441 0.75383 0.0
C460 C 0.20423 0.81279 0.71946 0.0
C461 C 0.17784 0.78829 0.70451 0.0
C462 C 0.16302 0.82092 0.8102 0.0
C463 C 0.23604 0.82808 0.69781 0.0
C464 C 0.23065 0.92278 0.77824 0.0
C465 C 0.26404 0.91578 0.79647 0.0
C466 C 0.20973 0.89327 0.76391 0.0
C467 C 0.22236 0.85569 0.76799 0.0
C468 C 0.25617 0.8483 0.78612 0.0
C469 C 0.2767 0.87851 0.80013 0.0
C470 C 0.17387 0.90238 0.74465 0.0
C471 C 0.27037 0.80854 0.79101 0.0
H472 H 0.11923 0.77497 0.77246 0.0
H473 H 0.18086 0.78066 0.67778 0.0
H474 H 0.18973 0.81869 0.82488 0.0
H475 H 0.15385 0.85081 0.81121 0.0
H476 H 0.14122 0.80336 0.823 0.0
H477 H 0.23888 0.81271 0.67317 0.0
H478 H 0.23074 0.85828 0.69213 0.0
H479 H 0.26321 0.82635 0.71183 0.0
H480 H 0.22069 0.95147 0.77511 0.0
H481 H 0.30249 0.87288 0.81416 0.0
H482 H 0.14943 0.8888 0.75743 0.0
H483 H 0.17543 0.89095 0.71825 0.0
H484 H 0.16848 0.93319 0.74309 0.0
H485 H 0.24935 0.7919 0.80567 0.0
H486 H 0.29775 0.80763 0.80484 0.0
H487 H 0.27387 0.79456 0.76581 0.0
C488 C 0.84579 0.94766 0.75849 0.0
C489 C 0.80731 0.93895 0.75559 0.0
C490 C 0.87354 0.9222 0.7477 0.0
C491 C 0.86256 0.88734 0.73323 0.0
C492 C 0.82377 0.87855 0.72968 0.0
C493 C 0.79654 0.90441 0.74114 0.0
C494 C 0.91463 0.93242 0.75224 0.0
C495 C 0.81111 0.84182 0.71391 0.0
C496 C 0.93764 0.83904 0.67983 0.0
C497 C 0.95215 0.81262 0.70309 0.0
C498 C 0.90751 0.86264 0.68889 0.0
C499 C 0.89193 0.86009 0.72216 0.0
C500 C 0.90601 0.83303 0.74557 0.0
C501 C 0.93582 0.80942 0.73566 0.0
C502 C 0.89291 0.89086 0.66312 0.0
C503 C 0.89039 0.82984 0.78143 0.0
H504 H 0.85437 0.97422 0.76978 0.0
H505 H 0.76684 0.89759 0.73874 0.0
H506 H 0.92879 0.91113 0.76863 0.0
H507 H 0.92918 0.93226 0.72709 0.0
H508 H 0.91841 0.96065 0.76408 0.0
H509 H 0.77989 0.83973 0.7121 0.0
H510 H 0.82323 0.83885 0.68786 0.0
H511 H 0.82167 0.8178 0.72939 0.0
H512 H 0.94992 0.8414 0.6545 0.0
H513 H 0.94695 0.78907 0.75375 0.0
H514 H 0.89856 0.9199 0.67231 0.0
H515 H 0.86189 0.88797 0.66026 0.0
H516 H 0.90625 0.8874 0.63757 0.0
H517 H 0.89558 0.85648 0.79554 0.0
H518 H 0.90335 0.80625 0.79601 0.0
H519 H 0.85941 0.82551 0.78059 0.0
C520 C 0.23265 0.89912 0.2067 0.0
C521 C 0.24015 0.9286 0.22963 0.0
C522 C 0.20495 0.87203 0.21398 0.0
C523 C 0.18454 0.87434 0.24505 0.0
C524 C 0.1929 0.90324 0.26883 0.0
C525 C 0.22051 0.93013 0.26077 0.0
C526 C 0.19662 0.84171 0.18792 0.0
C527 C 0.17195 0.90637 0.30239 0.0
C528 C 0.08609 0.83281 0.24908 0.0
C529 C 0.09247 0.79875 0.26639 0.0
C530 C 0.11593 0.8574 0.2416 0.0
C531 C 0.15302 0.84781 0.25189 0.0
C532 C 0.15974 0.81335 0.26912 0.0
C533 C 0.12937 0.78912 0.27607 0.0
C534 C 0.10771 0.89381 0.22295 0.0
C535 C 0.19891 0.80236 0.28065 0.0
H536 H 0.24768 0.89777 0.18256 0.0
H537 H 0.22633 0.9527 0.27871 0.0
H538 H 0.19838 0.81345 0.19999 0.0
H539 H 0.16741 0.84513 0.17816 0.0
H540 H 0.21638 0.84262 0.16585 0.0
H541 H 0.18352 0.929 0.31902 0.0
H542 H 0.14173 0.91247 0.29742 0.0
H543 H 0.17331 0.87924 0.3165 0.0
H544 H 0.05769 0.84039 0.2414 0.0
H545 H 0.13449 0.76289 0.28954 0.0
H546 H 0.12492 0.89553 0.19927 0.0
H547 H 0.11564 0.91815 0.23926 0.0
H548 H 0.07746 0.89658 0.21591 0.0
H549 H 0.2184 0.80187 0.25843 0.0
H550 H 0.19948 0.77427 0.29323 0.0
H551 H 0.20989 0.82364 0.29892 0.0
C552 C 0.09881 0.2317 0.72681 0.0
C553 C 0.0678 0.23192 0.74915 0.0
C554 C 0.12942 0.20736 0.73226 0.0
C555 C 0.12873 0.18232 0.76046 0.0
C556 C 0.09789 0.18296 0.78352 0.0
C557 C 0.06788 0.20796 0.7777 0.0
C558 C 0.16206 0.20783 0.70741 0.0
C559 C 0.09603 0.1564 0.81371 0.0
C560 C 0.18442 0.09128 0.75479 0.0
C561 C 0.21516 0.09887 0.77631 0.0
C562 C 0.15633 0.1184 0.7491 0.0
C563 C 0.15933 0.15414 0.76496 0.0
C564 C 0.19092 0.16245 0.7858 0.0
C565 C 0.21839 0.13461 0.79141 0.0
C566 C 0.1229 0.10842 0.72688 0.0
C567 C 0.19531 0.20047 0.80271 0.0
H568 H 0.09903 0.25036 0.70481 0.0
H569 H 0.04395 0.20791 0.79499 0.0
H570 H 0.18907 0.21144 0.72141 0.0
H571 H 0.16358 0.18048 0.69372 0.0
H572 H 0.15945 0.23075 0.68815 0.0
H573 H 0.07074 0.16138 0.82989 0.0
H574 H 0.09537 0.12682 0.80448 0.0
H575 H 0.1216 0.15954 0.82984 0.0
H576 H 0.18165 0.0637 0.74312 0.0
H577 H 0.24218 0.14072 0.80794 0.0
H578 H 0.12016 0.12898 0.70561 0.0
H579 H 0.09656 0.11 0.74219 0.0
H580 H 0.12522 0.07966 0.71583 0.0
H581 H 0.19348 0.22323 0.78327 0.0
H582 H 0.22258 0.20316 0.81654 0.0
H583 H 0.172 0.20501 0.8212 0.0
C584 C 0.88974 0.21609 0.27479 0.0
C585 C 0.92754 0.20439 0.2762 0.0
C586 C 0.86072 0.19023 0.26796 0.0
C587 C 0.8698 0.15186 0.26239 0.0
C588 C 0.90788 0.13993 0.26366 0.0
C589 C 0.93627 0.16633 0.27057 0.0
C590 C 0.82038 0.20388 0.26676 0.0
C591 C 0.91867 0.09924 0.25774 0.0
C592 C 0.79692 0.07464 0.27418 0.0
C593 C 0.78772 0.06605 0.24015 0.0
C594 C 0.82275 0.10339 0.28188 0.0
C595 C 0.83968 0.12399 0.25489 0.0
C596 C 0.82957 0.1163 0.22057 0.0
C597 C 0.80372 0.0874 0.2136 0.0
C598 C 0.83285 0.11089 0.31882 0.0
C599 C 0.84699 0.13775 0.19112 0.0
H600 H 0.88278 0.24545 0.27917 0.0
H601 H 0.96539 0.15703 0.27158 0.0
H602 H 0.80794 0.19778 0.2413 0.0
H603 H 0.80323 0.18859 0.28605 0.0
H604 H 0.81805 0.23463 0.27174 0.0
H605 H 0.94959 0.09457 0.25971 0.0
H606 H 0.90432 0.08091 0.27673 0.0
H607 H 0.90918 0.09014 0.23196 0.0
H608 H 0.78458 0.05837 0.29484 0.0
H609 H 0.79661 0.0811 0.18723 0.0
H610 H 0.82927 0.14125 0.32481 0.0
H611 H 0.86296 0.1038 0.32323 0.0
H612 H 0.81533 0.09415 0.33686 0.0
H613 H 0.84357 0.16853 0.19501 0.0
H614 H 0.83428 0.13001 0.16609 0.0
H615 H 0.87773 0.13188 0.19002 0.0
loop_
_geom_bond_atom_site_label_1
_geom_bond_atom_site_label_2
_geom_bond_distance
_geom_bond_site_symmetry_2
_ccdc_geom_bond_type
C0 O1 1.160 . S
C0 O7 1.185 . S
O1 C0 1.160 . S
O2 Zn3 1.899 . S
O2 C10 1.284 . S
Zn3 O2 1.899 . S
Zn3 O4 2.032 . S
Zn3 O7 2.086 . S
Zn3 O12 1.977 1_545 S
O4 Zn3 2.032 . S
O4 C8 1.278 . S
C5 O6 1.203 . S
C5 O12 1.267 . S
O6 C5 1.203 . S
O7 C0 1.185 . S
O7 Zn3 2.086 . S
C8 O4 1.278 . S
C8 O9 1.211 1_545 S
O9 C8 1.211 1_565 S
C10 O2 1.284 . S
C10 O11 1.273 . S
O11 C10 1.273 . S
O12 Zn3 1.977 1_565 S
O12 C5 1.267 . S
C13 O14 1.160 1_455 S
C13 O20 1.185 . S
O14 C13 1.160 1_655 S
O15 Zn16 1.899 1_655 S
O15 C23 1.284 . S
Zn16 O15 1.899 1_455 S
Zn16 O17 2.032 . S
Zn16 O20 2.086 . S
Zn16 O25 1.977 . S
O17 Zn16 2.032 . S
O17 C21 1.278 . S
C18 O19 1.203 . S
C18 O25 1.267 . S
O19 C18 1.203 . S
O20 C13 1.185 . S
O20 Zn16 2.086 . S
C21 O17 1.278 . S
C21 O22 1.211 . S
O22 C21 1.211 . S
C23 O15 1.284 . S
C23 O24 1.273 . S
O24 C23 1.273 . S
O25 Zn16 1.977 . S
O25 C18 1.267 . S
C26 O27 1.160 1_545 S
C26 O33 1.185 . S
O27 C26 1.160 1_565 S
O28 Zn29 1.899 1_565 S
O28 C36 1.284 . S
Zn29 O28 1.899 1_545 S
Zn29 O30 2.032 . S
Zn29 O33 2.086 . S
Zn29 O38 1.977 . S
O30 Zn29 2.032 . S
O30 C34 1.278 . S
C31 O32 1.203 . S
C31 O38 1.267 . S
O32 C31 1.203 . S
O33 C26 1.185 . S
O33 Zn29 2.086 . S
C34 O30 1.278 . S
C34 O35 1.211 . S
O35 C34 1.211 . S
C36 O28 1.284 . S
C36 O37 1.273 . S
O37 C36 1.273 . S
O38 Zn29 1.977 . S
O38 C31 1.267 . S
C39 O40 1.160 . S
C39 O46 1.185 . S
O40 C39 1.160 . S
O41 Zn42 1.899 . S
O41 C49 1.284 . S
Zn42 O41 1.899 . S
Zn42 O43 2.032 . S
Zn42 O46 2.086 . S
Zn42 O51 1.977 1_455 S
O43 Zn42 2.032 . S
O43 C47 1.278 . S
C44 O45 1.203 . S
C44 O51 1.267 . S
O45 C44 1.203 . S
O46 C39 1.185 . S
O46 Zn42 2.086 . S
C47 O43 1.278 . S
C47 O48 1.211 1_455 S
O48 C47 1.211 1_655 S
C49 O41 1.284 . S
C49 O50 1.273 . S
O50 C49 1.273 . S
O51 Zn42 1.977 1_655 S
O51 C44 1.267 . S
C52 O53 1.160 1_545 S
C52 O59 1.185 . S
O53 C52 1.160 1_565 S
O54 Zn55 1.899 1_565 S
O54 C62 1.284 . S
Zn55 O54 1.899 1_545 S
Zn55 O56 2.032 . S
Zn55 O59 2.086 . S
Zn55 O64 1.977 . S
O56 Zn55 2.032 . S
O56 C60 1.278 . S
C57 O58 1.203 . S
C57 O64 1.267 . S
O58 C57 1.203 . S
O59 C52 1.185 . S
O59 Zn55 2.086 . S
C60 O56 1.278 . S
C60 O61 1.211 . S
O61 C60 1.211 . S
C62 O54 1.284 . S
C62 O63 1.273 . S
O63 C62 1.273 . S
O64 Zn55 1.977 . S
O64 C57 1.267 . S
C65 O66 1.160 . S
C65 O72 1.185 . S
O66 C65 1.160 . S
O67 Zn68 1.899 . S
O67 C75 1.284 . S
Zn68 O67 1.899 . S
Zn68 O69 2.032 . S
Zn68 O72 2.086 . S
Zn68 O77 1.977 1_455 S
O69 Zn68 2.032 . S
O69 C73 1.278 . S
C70 O71 1.203 . S
C70 O77 1.267 . S
O71 C70 1.203 . S
O72 C65 1.185 . S
O72 Zn68 2.086 . S
C73 O69 1.278 . S
C73 O74 1.211 1_455 S
O74 C73 1.211 1_655 S
C75 O67 1.284 . S
C75 O76 1.273 . S
O76 C75 1.273 . S
O77 Zn68 1.977 1_655 S
O77 C70 1.267 . S
C78 O79 1.160 . S
C78 O85 1.185 . S
O79 C78 1.160 . S
O80 Zn81 1.899 . S
O80 C88 1.284 . S
Zn81 O80 1.899 . S
Zn81 O82 2.032 . S
Zn81 O85 2.086 . S
Zn81 O90 1.977 1_545 S
O82 Zn81 2.032 . S
O82 C86 1.278 . S
C83 O84 1.203 . S
C83 O90 1.267 . S
O84 C83 1.203 . S
O85 C78 1.185 . S
O85 Zn81 2.086 . S
C86 O82 1.278 . S
C86 O87 1.211 1_545 S
O87 C86 1.211 1_565 S
C88 O80 1.284 . S
C88 O89 1.273 . S
O89 C88 1.273 . S
O90 Zn81 1.977 1_565 S
O90 C83 1.267 . S
C91 O92 1.160 1_455 S
C91 O98 1.185 . S
O92 C91 1.160 1_655 S
O93 Zn94 1.899 1_655 S
O93 C101 1.284 . S
Zn94 O93 1.899 1_455 S
Zn94 O95 2.032 . S
Zn94 O98 2.086 . S
Zn94 O103 1.977 . S
O95 Zn94 2.032 . S
O95 C99 1.278 . S
C96 O97 1.203 . S
C96 O103 1.267 . S
O97 C96 1.203 . S
O98 C91 1.185 . S
O98 Zn94 2.086 . S
C99 O95 1.278 . S
C99 O100 1.211 . S
O100 C99 1.211 . S
C101 O93 1.284 . S
C101 O102 1.273 . S
O102 C101 1.273 . S
O103 Zn94 1.977 . S
O103 C96 1.267 . S
C104 C105 1.391 . S
C104 C106 1.394 . S
C104 H120 0.931 . S
C105 C104 1.391 . S
C105 C109 1.376 1_545 S
C106 C104 1.394 . S
C106 C107 1.369 . S
C106 C110 1.531 . S
C107 C106 1.369 . S
C107 C108 1.410 1_545 S
C107 C115 1.503 1_554 S
C108 C107 1.410 1_565 S
C108 C109 1.392 . S
C108 C111 1.511 . S
C109 C105 1.376 1_565 S
C109 C108 1.392 . S
C109 H121 0.929 . S
C110 C106 1.531 . S
C110 H122 0.960 1_554 S
C110 H123 0.962 . S
C110 H124 0.960 . S
C111 C108 1.511 . S
C111 H125 0.961 . S
C111 H126 0.961 1_554 S
C111 H127 0.961 . S
C112 C113 1.370 1_565 S
C112 C114 1.363 . S
C112 H128 0.931 . S
C113 C112 1.370 1_545 S
C113 C117 1.408 . S
C114 C112 1.363 . S
C114 C115 1.370 1_565 S
C114 C118 1.524 . S
C115 C107 1.503 1_556 S
C115 C114 1.370 1_545 S
C115 C116 1.403 . S
C116 C115 1.403 . S
C116 C117 1.404 . S
C116 C119 1.539 . S
C117 C113 1.408 . S
C117 C116 1.404 . S
C117 H129 0.930 . S
C118 C114 1.524 . S
C118 H130 0.972 . S
C118 H131 0.961 1_556 S
C118 H132 0.961 . S
C119 C116 1.539 . S
C119 H133 0.958 . S
C119 H134 0.961 . S
C119 H135 0.960 . S
H120 C104 0.931 . S
H121 C109 0.929 . S
H122 C110 0.960 1_556 S
H123 C110 0.962 . S
H124 C110 0.960 . S
H125 C111 0.961 . S
H126 C111 0.961 1_556 S
H127 C111 0.961 . S
H128 C112 0.931 . S
H129 C117 0.930 . S
H130 C118 0.972 . S
H131 C118 0.961 1_554 S
H132 C118 0.961 . S
H133 C119 0.958 . S
H134 C119 0.961 . S
H135 C119 0.960 . S
C136 C137 1.391 . S
C136 C138 1.394 . S
C136 H152 0.931 . S
C137 C136 1.391 . S
C137 C141 1.376 1_455 S
C138 C136 1.394 . S
C138 C139 1.369 . S
C138 C142 1.531 . S
C139 C138 1.369 . S
C139 C140 1.410 1_455 S
C139 C147 1.503 . S
C140 C139 1.410 1_655 S
C140 C141 1.392 . S
C140 C143 1.511 . S
C141 C137 1.376 1_655 S
C141 C140 1.392 . S
C141 H153 0.929 . S
C142 C138 1.531 . S
C142 H154 0.960 . S
C142 H155 0.962 . S
C142 H156 0.960 . S
C143 C140 1.511 . S
C143 H157 0.961 . S
C143 H158 0.961 . S
C143 H159 0.961 . S
C144 C145 1.370 . S
C144 C146 1.363 . S
C144 H160 0.931 . S
C145 C144 1.370 . S
C145 C149 1.408 1_455 S
C146 C144 1.363 . S
C146 C147 1.370 . S
C146 C150 1.524 . S
C147 C139 1.503 . S
C147 C146 1.370 . S
C147 C148 1.403 1_455 S
C148 C147 1.403 1_655 S
C148 C149 1.404 . S
C148 C151 1.539 . S
C149 C145 1.408 1_655 S
C149 C148 1.404 . S
C149 H161 0.930 . S
C150 C146 1.524 . S
C150 H162 0.956 . S
C150 H163 0.961 . S
C150 H164 0.961 . S
C151 C148 1.539 . S
C151 H165 0.958 . S
C151 H166 0.961 . S
C151 H167 0.960 . S
H152 C136 0.931 . S
H153 C141 0.929 . S
H154 C142 0.960 . S
H155 C142 0.962 . S
H156 C142 0.960 . S
H157 C143 0.961 . S
H158 C143 0.961 . S
H159 C143 0.961 . S
H160 C144 0.931 . S
H161 C149 0.930 . S
H162 C150 0.956 . S
H163 C150 0.961 . S
H164 C150 0.961 . S
H165 C151 0.958 . S
H166 C151 0.961 . S
H167 C151 0.960 . S
C168 C169 1.391 1_565 S
C168 C170 1.394 . S
C168 H184 0.931 . S
C169 C168 1.391 1_545 S
C169 C173 1.376 . S
C170 C168 1.394 . S
C170 C171 1.369 1_565 S
C170 C174 1.531 . S
C171 C170 1.369 1_545 S
C171 C172 1.410 . S
C171 C179 1.503 1_556 S
C172 C171 1.410 . S
C172 C173 1.392 . S
C172 C175 1.511 . S
C173 C169 1.376 . S
C173 C172 1.392 . S
C173 H185 0.929 . S
C174 C170 1.531 . S
C174 H186 0.960 1_556 S
C174 H187 0.962 . S
C174 H188 0.960 . S
C175 C172 1.511 . S
C175 H189 0.961 . S
C175 H190 0.961 1_556 S
C175 H191 0.961 . S
C176 C177 1.370 . S
C176 C178 1.363 . S
C176 H192 0.931 . S
C177 C176 1.370 . S
C177 C181 1.408 1_545 S
C178 C176 1.363 . S
C178 C179 1.370 . S
C178 C182 1.524 . S
C179 C171 1.503 1_554 S
C179 C178 1.370 . S
C179 C180 1.403 1_545 S
C180 C179 1.403 1_565 S
C180 C181 1.404 . S
C180 C183 1.539 . S
C181 C177 1.408 1_565 S
C181 C180 1.404 . S
C181 H193 0.930 . S
C182 C178 1.524 . S
C182 H194 0.956 . S
C182 H195 0.951 1_554 S
C182 H196 0.961 . S
C183 C180 1.539 . S
C183 H197 0.958 . S
C183 H198 0.961 . S
C183 H199 0.939 1_554 S
H184 C168 0.931 . S
H185 C173 0.929 . S
H186 C174 0.960 1_554 S
H187 C174 0.962 . S
H188 C174 0.960 . S
H189 C175 0.961 . S
H190 C175 0.961 1_554 S
H191 C175 0.961 . S
H192 C176 0.931 . S
H193 C181 0.930 . S
H194 C182 0.956 . S
H195 C182 0.951 1_556 S
H196 C182 0.961 . S
H197 C183 0.958 . S
H198 C183 0.961 . S
H199 C183 0.939 1_556 S
C200 C201 1.391 1_655 S
C200 C202 1.394 . S
C200 H216 0.931 . S
C201 C200 1.391 1_455 S
C201 C205 1.376 . S
C202 C200 1.394 . S
C202 C203 1.369 1_655 S
C202 C206 1.531 . S
C203 C202 1.369 1_455 S
C203 C204 1.410 . S
C203 C211 1.503 . S
C204 C203 1.410 . S
C204 C205 1.392 . S
C204 C207 1.511 . S
C205 C201 1.376 . S
C205 C204 1.392 . S
C205 H217 0.929 . S
C206 C202 1.531 . S
C206 H218 0.960 . S
C206 H219 0.962 . S
C206 H220 0.960 . S
C207 C204 1.511 . S
C207 H221 0.961 . S
C207 H222 0.961 . S
C207 H223 0.961 . S
C208 C209 1.370 1_655 S
C208 C210 1.363 . S
C208 H224 0.931 . S
C209 C208 1.370 1_455 S
C209 C213 1.408 . S
C210 C208 1.363 . S
C210 C211 1.370 1_655 S
C210 C214 1.524 . S
C211 C203 1.503 . S
C211 C210 1.370 1_455 S
C211 C212 1.403 . S
C212 C211 1.403 . S
C212 C213 1.404 . S
C212 C215 1.539 . S
C213 C209 1.408 . S
C213 C212 1.404 . S
C213 H225 0.930 . S
C214 C210 1.524 . S
C214 H226 0.956 . S
C214 H227 0.961 . S
C214 H228 0.961 . S
C215 C212 1.539 . S
C215 H229 0.958 . S
C215 H230 0.961 . S
C215 H231 0.960 . S
H216 C200 0.931 . S
H217 C205 0.929 . S
H218 C206 0.960 . S
H219 C206 0.962 . S
H220 C206 0.960 . S
H221 C207 0.961 . S
H222 C207 0.961 . S
H223 C207 0.961 . S
H224 C208 0.931 . S
H225 C213 0.930 . S
H226 C214 0.956 . S
H227 C214 0.961 . S
H228 C214 0.961 . S
H229 C215 0.958 . S
H230 C215 0.961 . S
H231 C215 0.960 . S
C232 C233 1.391 . S
C232 C234 1.394 . S
C232 H248 0.931 . S
C233 C232 1.391 . S
C233 C237 1.376 1_545 S
C234 C232 1.394 . S
C234 C235 1.369 . S
C234 C238 1.531 . S
C235 C234 1.369 . S
C235 C236 1.410 1_545 S
C235 C243 1.503 . S
C236 C235 1.410 1_565 S
C236 C237 1.392 . S
C236 C239 1.511 . S
C237 C233 1.376 1_565 S
C237 C236 1.392 . S
C237 H249 0.929 . S
C238 C234 1.531 . S
C238 H250 0.960 . S
C238 H251 0.962 . S
C238 H252 0.960 . S
C239 C236 1.511 . S
C239 H253 0.961 . S
C239 H254 0.961 . S
C239 H255 0.961 . S
C240 C241 1.370 . S
C240 C242 1.363 . S
C240 H256 0.931 . S
C241 C240 1.370 . S
C241 C245 1.408 . S
C242 C240 1.363 . S
C242 C243 1.370 . S
C242 C246 1.524 . S
C243 C235 1.503 . S
C243 C242 1.370 . S
C243 C244 1.403 . S
C244 C243 1.403 . S
C244 C245 1.404 . S
C244 C247 1.539 . S
C245 C241 1.408 . S
C245 C244 1.404 . S
C245 H257 0.930 . S
C246 C242 1.524 . S
C246 H258 0.956 . S
C246 H259 0.961 1_545 S
C246 H260 0.961 1_545 S
C247 C244 1.539 . S
C247 H261 0.958 . S
C247 H262 0.961 . S
C247 H263 0.960 . S
H248 C232 0.931 . S
H249 C237 0.929 . S
H250 C238 0.960 . S
H251 C238 0.962 . S
H252 C238 0.960 . S
H253 C239 0.961 . S
H254 C239 0.961 . S
H255 C239 0.961 . S
H256 C240 0.931 . S
H257 C245 0.930 . S
H258 C246 0.956 . S
H259 C246 0.961 1_565 S
H260 C246 0.961 1_565 S
H261 C247 0.958 . S
H262 C247 0.961 . S
H263 C247 0.960 . S
C264 C265 1.391 1_655 S
C264 C266 1.394 . S
C264 H280 0.931 . S
C265 C264 1.391 1_455 S
C265 C269 1.376 . S
C266 C264 1.394 . S
C266 C267 1.369 1_655 S
C266 C270 1.531 . S
C267 C266 1.369 1_455 S
C267 C268 1.410 . S
C267 C275 1.503 . S
C268 C267 1.410 . S
C268 C269 1.392 . S
C268 C271 1.511 . S
C269 C265 1.376 . S
C269 C268 1.392 . S
C269 H281 0.929 . S
C270 C266 1.531 . S
C270 H282 0.960 . S
C270 H283 0.962 . S
C270 H284 0.960 . S
C271 C268 1.511 . S
C271 H285 0.961 . S
C271 H286 0.961 . S
C271 H287 0.961 . S
C272 C273 1.370 . S
C272 C274 1.363 . S
C272 H288 0.931 . S
C273 C272 1.370 . S
C273 C277 1.408 . S
C274 C272 1.363 . S
C274 C275 1.370 . S
C274 C278 1.524 . S
C275 C267 1.503 . S
C275 C274 1.370 . S
C275 C276 1.403 . S
C276 C275 1.403 . S
C276 C277 1.404 . S
C276 C279 1.539 . S
C277 C273 1.408 . S
C277 C276 1.404 . S
C277 H289 0.930 . S
C278 C274 1.524 . S
C278 H290 0.958 1_455 S
C278 H291 0.961 . S
C278 H292 0.961 . S
C279 C276 1.539 . S
C279 H293 0.958 1_455 S
C279 H294 0.961 . S
C279 H295 0.960 . S
H280 C264 0.931 . S
H281 C269 0.929 . S
H282 C270 0.960 . S
H283 C270 0.962 . S
H284 C270 0.960 . S
H285 C271 0.961 . S
H286 C271 0.961 . S
H287 C271 0.961 . S
H288 C272 0.931 . S
H289 C277 0.930 . S
H290 C278 0.958 1_655 S
H291 C278 0.961 . S
H292 C278 0.961 . S
H293 C279 0.958 1_655 S
H294 C279 0.961 . S
H295 C279 0.960 . S
C296 C297 1.391 . S
C296 C298 1.394 . S
C296 H312 0.931 . S
C297 C296 1.391 . S
C297 C301 1.376 1_545 S
C298 C296 1.394 . S
C298 C299 1.369 . S
C298 C302 1.531 . S
C299 C298 1.369 . S
C299 C300 1.410 1_545 S
C299 C307 1.503 . S
C300 C299 1.410 1_565 S
C300 C301 1.392 . S
C300 C303 1.511 . S
C301 C297 1.376 1_565 S
C301 C300 1.392 . S
C301 H313 0.929 . S
C302 C298 1.531 . S
C302 H314 0.960 . S
C302 H315 0.962 . S
C302 H316 0.960 . S
C303 C300 1.511 . S
C303 H317 0.961 . S
C303 H318 0.961 . S
C303 H319 0.961 . S
C304 C305 1.370 . S
C304 C306 1.363 . S
C304 H320 0.931 . S
C305 C304 1.370 . S
C305 C309 1.408 1_545 S
C306 C304 1.363 . S
C306 C307 1.370 . S
C306 C310 1.524 . S
C307 C299 1.503 . S
C307 C306 1.370 . S
C307 C308 1.403 1_545 S
C308 C307 1.403 1_565 S
C308 C309 1.404 . S
C308 C311 1.539 . S
C309 C305 1.408 1_565 S
C309 C308 1.404 . S
C309 H321 0.930 . S
C310 C306 1.524 . S
C310 H322 0.956 . S
C310 H323 0.961 . S
C310 H324 0.961 . S
C311 C308 1.539 . S
C311 H325 0.958 . S
C311 H326 0.961 . S
C311 H327 0.960 . S
H312 C296 0.931 . S
H313 C301 0.929 . S
H314 C302 0.960 . S
H315 C302 0.962 . S
H316 C302 0.960 . S
H317 C303 0.961 . S
H318 C303 0.961 . S
H319 C303 0.961 . S
H320 C304 0.931 . S
H321 C309 0.930 . S
H322 C310 0.956 . S
H323 C310 0.961 . S
H324 C310 0.961 . S
H325 C311 0.958 . S
H326 C311 0.961 . S
H327 C311 0.960 . S
C328 C329 1.391 . S
C328 C330 1.394 . S
C328 H344 0.931 . S
C329 C328 1.391 . S
C329 C333 1.376 1_455 S
C330 C328 1.394 . S
C330 C331 1.369 . S
C330 C334 1.531 . S
C331 C330 1.369 . S
C331 C332 1.410 1_455 S
C331 C339 1.503 . S
C332 C331 1.410 1_655 S
C332 C333 1.392 . S
C332 C335 1.511 . S
C333 C329 1.376 1_655 S
C333 C332 1.392 . S
C333 H345 0.929 . S
C334 C330 1.531 . S
C334 H346 0.960 . S
C334 H347 0.962 . S
C334 H348 0.960 . S
C335 C332 1.511 . S
C335 H349 0.961 . S
C335 H350 0.961 . S
C335 H351 0.961 . S
C336 C337 1.370 . S
C336 C338 1.363 . S
C336 H352 0.931 . S
C337 C336 1.370 . S
C337 C341 1.408 1_455 S
C338 C336 1.363 . S
C338 C339 1.370 . S
C338 C342 1.524 . S
C339 C331 1.503 . S
C339 C338 1.370 . S
C339 C340 1.403 1_455 S
C340 C339 1.403 1_655 S
C340 C341 1.404 . S
C340 C343 1.539 . S
C341 C337 1.408 1_655 S
C341 C340 1.404 . S
C341 H353 0.930 . S
C342 C338 1.524 . S
C342 H354 0.956 . S
C342 H355 0.961 . S
C342 H356 0.961 . S
C343 C340 1.539 . S
C343 H357 0.958 . S
C343 H358 0.961 . S
C343 H359 0.960 . S
H344 C328 0.931 . S
H345 C333 0.929 . S
H346 C334 0.960 . S
H347 C334 0.962 . S
H348 C334 0.960 . S
H349 C335 0.961 . S
H350 C335 0.961 . S
H351 C335 0.961 . S
H352 C336 0.931 . S
H353 C341 0.930 . S
H354 C342 0.956 . S
H355 C342 0.961 . S
H356 C342 0.961 . S
H357 C343 0.958 . S
H358 C343 0.961 . S
H359 C343 0.960 . S
C360 C361 1.391 . S
C360 C362 1.394 . S
C360 H376 0.931 . S
C361 C360 1.391 . S
C361 C365 1.376 . S
C362 C360 1.394 . S
C362 C363 1.369 . S
C362 C366 1.531 . S
C363 C362 1.369 . S
C363 C364 1.410 . S
C363 C371 1.503 . S
C364 C363 1.410 . S
C364 C365 1.392 . S
C364 C367 1.511 . S
C365 C361 1.376 . S
C365 C364 1.392 . S
C365 H377 0.929 . S
C366 C362 1.531 . S
C366 H378 0.960 . S
C366 H379 0.962 . S
C366 H380 0.960 . S
C367 C364 1.511 . S
C367 H381 0.961 . S
C367 H382 0.961 . S
C367 H383 0.961 . S
C368 C369 1.370 . S
C368 C370 1.363 . S
C368 H384 0.931 . S
C369 C368 1.370 . S
C369 C373 1.408 . S
C370 C368 1.363 . S
C370 C371 1.370 . S
C370 C374 1.524 . S
C371 C363 1.503 . S
C371 C370 1.370 . S
C371 C372 1.403 . S
C372 C371 1.403 . S
C372 C373 1.404 . S
C372 C375 1.539 . S
C373 C369 1.408 . S
C373 C372 1.404 . S
C373 H385 0.930 . S
C374 C370 1.524 . S
C374 H386 0.956 . S
C374 H387 0.961 . S
C374 H388 0.961 . S
C375 C372 1.539 . S
C375 H389 0.958 . S
C375 H390 0.961 . S
C375 H391 0.960 . S
H376 C360 0.931 . S
H377 C365 0.929 . S
H378 C366 0.960 . S
H379 C366 0.962 . S
H380 C366 0.960 . S
H381 C367 0.961 . S
H382 C367 0.961 . S
H383 C367 0.961 . S
H384 C368 0.931 . S
H385 C373 0.930 . S
H386 C374 0.956 . S
H387 C374 0.961 . S
H388 C374 0.961 . S
H389 C375 0.958 . S
H390 C375 0.961 . S
H391 C375 0.960 . S
C392 C393 1.391 . S
C392 C394 1.394 . S
C392 H408 0.931 . S
C393 C392 1.391 . S
C393 C397 1.376 . S
C394 C392 1.394 . S
C394 C395 1.369 . S
C394 C398 1.531 . S
C395 C394 1.369 . S
C395 C396 1.410 . S
C395 C403 1.503 . S
C396 C395 1.410 . S
C396 C397 1.392 . S
C396 C399 1.511 . S
C397 C393 1.376 . S
C397 C396 1.392 . S
C397 H409 0.929 . S
C398 C394 1.531 . S
C398 H410 0.960 . S
C398 H411 0.962 . S
C398 H412 0.960 . S
C399 C396 1.511 . S
C399 H413 0.961 . S
C399 H414 0.961 . S
C399 H415 0.961 . S
C400 C401 1.370 . S
C400 C402 1.363 . S
C400 H416 0.931 . S
C401 C400 1.370 . S
C401 C405 1.408 . S
C402 C400 1.363 . S
C402 C403 1.370 . S
C402 C406 1.524 . S
C403 C395 1.503 . S
C403 C402 1.370 . S
C403 C404 1.403 . S
C404 C403 1.403 . S
C404 C405 1.404 . S
C404 C407 1.539 . S
C405 C401 1.408 . S
C405 C404 1.404 . S
C405 H417 0.930 . S
C406 C402 1.524 . S
C406 H418 0.956 . S
C406 H419 0.961 . S
C406 H420 0.961 . S
C407 C404 1.539 . S
C407 H421 0.958 . S
C407 H422 0.961 . S
C407 H423 0.960 . S
H408 C392 0.931 . S
H409 C397 0.929 . S
H410 C398 0.960 . S
H411 C398 0.962 . S
H412 C398 0.960 . S
H413 C399 0.961 . S
H414 C399 0.961 . S
H415 C399 0.961 . S
H416 C400 0.931 . S
H417 C405 0.930 . S
H418 C406 0.956 . S
H419 C406 0.961 . S
H420 C406 0.961 . S
H421 C407 0.958 . S
H422 C407 0.961 . S
H423 C407 0.960 . S
C424 C425 1.391 . S
C424 C426 1.394 . S
C424 H440 0.931 . S
C425 C424 1.391 . S
C425 C429 1.376 . S
C426 C424 1.394 . S
C426 C427 1.369 . S
C426 C430 1.531 . S
C427 C426 1.369 . S
C427 C428 1.410 . S
C427 C435 1.503 . S
C428 C427 1.410 . S
C428 C429 1.392 . S
C428 C431 1.511 . S
C429 C425 1.376 . S
C429 C428 1.392 . S
C429 H441 0.929 . S
C430 C426 1.531 . S
C430 H442 0.960 . S
C430 H443 0.962 . S
C430 H444 0.960 . S
C431 C428 1.511 . S
C431 H445 0.961 . S
C431 H446 0.961 . S
C431 H447 0.961 . S
C432 C433 1.370 . S
C432 C434 1.363 . S
C432 H448 0.931 . S
C433 C432 1.370 . S
C433 C437 1.408 . S
C434 C432 1.363 . S
C434 C435 1.370 . S
C434 C438 1.524 . S
C435 C427 1.503 . S
C435 C434 1.370 . S
C435 C436 1.403 . S
C436 C435 1.403 . S
C436 C437 1.404 . S
C436 C439 1.539 . S
C437 C433 1.408 . S
C437 C436 1.404 . S
C437 H449 0.930 . S
C438 C434 1.524 . S
C438 H450 0.956 . S
C438 H451 0.961 . S
C438 H452 0.961 . S
C439 C436 1.539 . S
C439 H453 0.958 . S
C439 H454 0.961 . S
C439 H455 0.960 . S
H440 C424 0.931 . S
H441 C429 0.929 . S
H442 C430 0.960 . S
H443 C430 0.962 . S
H444 C430 0.960 . S
H445 C431 0.961 . S
H446 C431 0.961 . S
H447 C431 0.961 . S
H448 C432 0.931 . S
H449 C437 0.930 . S
H450 C438 0.956 . S
H451 C438 0.961 . S
H452 C438 0.961 . S
H453 C439 0.958 . S
H454 C439 0.961 . S
H455 C439 0.960 . S
C456 C457 1.391 . S
C456 C458 1.394 . S
C456 H472 0.931 . S
C457 C456 1.391 . S
C457 C461 1.376 . S
C458 C456 1.394 . S
C458 C459 1.369 . S
C458 C462 1.531 . S
C459 C458 1.369 . S
C459 C460 1.410 . S
C459 C467 1.503 . S
C460 C459 1.410 . S
C460 C461 1.392 . S
C460 C463 1.511 . S
C461 C457 1.376 . S
C461 C460 1.392 . S
C461 H473 0.929 . S
C462 C458 1.531 . S
C462 H474 0.960 . S
C462 H475 0.962 . S
C462 H476 0.960 . S
C463 C460 1.511 . S
C463 H477 0.961 . S
C463 H478 0.961 . S
C463 H479 0.961 . S
C464 C465 1.370 . S
C464 C466 1.363 . S
C464 H480 0.931 . S
C465 C464 1.370 . S
C465 C469 1.408 . S
C466 C464 1.363 . S
C466 C467 1.370 . S
C466 C470 1.524 . S
C467 C459 1.503 . S
C467 C466 1.370 . S
C467 C468 1.403 . S
C468 C467 1.403 . S
C468 C469 1.404 . S
C468 C471 1.539 . S
C469 C465 1.408 . S
C469 C468 1.404 . S
C469 H481 0.930 . S
C470 C466 1.524 . S
C470 H482 0.956 . S
C470 H483 0.961 . S
C470 H484 0.961 . S
C471 C468 1.539 . S
C471 H485 0.958 . S
C471 H486 0.961 . S
C471 H487 0.960 . S
H472 C456 0.931 . S
H473 C461 0.929 . S
H474 C462 0.960 . S
H475 C462 0.962 . S
H476 C462 0.960 . S
H477 C463 0.961 . S
H478 C463 0.961 . S
H479 C463 0.961 . S
H480 C464 0.931 . S
H481 C469 0.930 . S
H482 C470 0.956 . S
H483 C470 0.961 . S
H484 C470 0.961 . S
H485 C471 0.958 . S
H486 C471 0.961 . S
H487 C471 0.960 . S
C488 C489 1.391 . S
C488 C490 1.394 . S
C488 H504 0.931 . S
C489 C488 1.391 . S
C489 C493 1.376 . S
C490 C488 1.394 . S
C490 C491 1.369 . S
C490 C494 1.531 . S
C491 C490 1.369 . S
C491 C492 1.410 . S
C491 C499 1.503 . S
C492 C491 1.410 . S
C492 C493 1.392 . S
C492 C495 1.511 . S
C493 C489 1.376 . S
C493 C492 1.392 . S
C493 H505 0.929 . S
C494 C490 1.531 . S
C494 H506 0.960 . S
C494 H507 0.962 . S
C494 H508 0.960 . S
C495 C492 1.511 . S
C495 H509 0.961 . S
C495 H510 0.961 . S
C495 H511 0.961 . S
C496 C497 1.370 . S
C496 C498 1.363 . S
C496 H512 0.931 . S
C497 C496 1.370 . S
C497 C501 1.408 . S
C498 C496 1.363 . S
C498 C499 1.370 . S
C498 C502 1.524 . S
C499 C491 1.503 . S
C499 C498 1.370 . S
C499 C500 1.403 . S
C500 C499 1.403 . S
C500 C501 1.404 . S
C500 C503 1.539 . S
C501 C497 1.408 . S
C501 C500 1.404 . S
C501 H513 0.930 . S
C502 C498 1.524 . S
C502 H514 0.956 . S
C502 H515 0.961 . S
C502 H516 0.961 . S
C503 C500 1.539 . S
C503 H517 0.958 . S
C503 H518 0.961 . S
C503 H519 0.960 . S
H504 C488 0.931 . S
H505 C493 0.929 . S
H506 C494 0.960 . S
H507 C494 0.962 . S
H508 C494 0.960 . S
H509 C495 0.961 . S
H510 C495 0.961 . S
H511 C495 0.961 . S
H512 C496 0.931 . S
H513 C501 0.930 . S
H514 C502 0.956 . S
H515 C502 0.961 . S
H516 C502 0.961 . S
H517 C503 0.958 . S
H518 C503 0.961 . S
H519 C503 0.960 . S
C520 C521 1.391 . S
C520 C522 1.394 . S
C520 H536 0.931 . S
C521 C520 1.391 . S
C521 C525 1.376 . S
C522 C520 1.394 . S
C522 C523 1.369 . S
C522 C526 1.531 . S
C523 C522 1.369 . S
C523 C524 1.410 . S
C523 C531 1.503 . S
C524 C523 1.410 . S
C524 C525 1.392 . S
C524 C527 1.511 . S
C525 C521 1.376 . S
C525 C524 1.392 . S
C525 H537 0.929 . S
C526 C522 1.531 . S
C526 H538 0.960 . S
C526 H539 0.962 . S
C526 H540 0.960 . S
C527 C524 1.511 . S
C527 H541 0.961 . S
C527 H542 0.961 . S
C527 H543 0.961 . S
C528 C529 1.370 . S
C528 C530 1.363 . S
C528 H544 0.931 . S
C529 C528 1.370 . S
C529 C533 1.408 . S
C530 C528 1.363 . S
C530 C531 1.370 . S
C530 C534 1.524 . S
C531 C523 1.503 . S
C531 C530 1.370 . S
C531 C532 1.403 . S
C532 C531 1.403 . S
C532 C533 1.404 . S
C532 C535 1.539 . S
C533 C529 1.408 . S
C533 C532 1.404 . S
C533 H545 0.930 . S
C534 C530 1.524 . S
C534 H546 0.956 . S
C534 H547 0.961 . S
C534 H548 0.961 . S
C535 C532 1.539 . S
C535 H549 0.958 . S
C535 H550 0.961 . S
C535 H551 0.960 . S
H536 C520 0.931 . S
H537 C525 0.929 . S
H538 C526 0.960 . S
H539 C526 0.962 . S
H540 C526 0.960 . S
H541 C527 0.961 . S
H542 C527 0.961 . S
H543 C527 0.961 . S
H544 C528 0.931 . S
H545 C533 0.930 . S
H546 C534 0.956 . S
H547 C534 0.961 . S
H548 C534 0.961 . S
H549 C535 0.958 . S
H550 C535 0.961 . S
H551 C535 0.960 . S
C552 C553 1.391 . S
C552 C554 1.394 . S
C552 H568 0.931 . S
C553 C552 1.391 . S
C553 C557 1.376 . S
C554 C552 1.394 . S
C554 C555 1.369 . S
C554 C558 1.531 . S
C555 C554 1.369 . S
C555 C556 1.410 . S
C555 C563 1.503 . S
C556 C555 1.410 . S
C556 C557 1.392 . S
C556 C559 1.511 . S
C557 C553 1.376 . S
C557 C556 1.392 . S
C557 H569 0.929 . S
C558 C554 1.531 . S
C558 H570 0.960 . S
C558 H571 0.962 . S
C558 H572 0.960 . S
C559 C556 1.511 . S
C559 H573 0.961 . S
C559 H574 0.961 . S
C559 H575 0.961 . S
C560 C561 1.370 . S
C560 C562 1.363 . S
C560 H576 0.931 . S
C561 C560 1.370 . S
C561 C565 1.408 . S
C562 C560 1.363 . S
C562 C563 1.370 . S
C562 C566 1.524 . S
C563 C555 1.503 . S
C563 C562 1.370 . S
C563 C564 1.403 . S
C564 C563 1.403 . S
C564 C565 1.404 . S
C564 C567 1.539 . S
C565 C561 1.408 . S
C565 C564 1.404 . S
C565 H577 0.930 . S
C566 C562 1.524 . S
C566 H578 0.956 . S
C566 H579 0.961 . S
C566 H580 0.961 . S
C567 C564 1.539 . S
C567 H581 0.958 . S
C567 H582 0.961 . S
C567 H583 0.960 . S
H568 C552 0.931 . S
H569 C557 0.929 . S
H570 C558 0.960 . S
H571 C558 0.962 . S
H572 C558 0.960 . S
H573 C559 0.961 . S
H574 C559 0.961 . S
H575 C559 0.961 . S
H576 C560 0.931 . S
H577 C565 0.930 . S
H578 C566 0.956 . S
H579 C566 0.961 . S
H580 C566 0.961 . S
H581 C567 0.958 . S
H582 C567 0.961 . S
H583 C567 0.960 . S
C584 C585 1.391 . S
C584 C586 1.394 . S
C584 H600 0.931 . S
C585 C584 1.391 . S
C585 C589 1.376 . S
C586 C584 1.394 . S
C586 C587 1.369 . S
C586 C590 1.531 . S
C587 C586 1.369 . S
C587 C588 1.410 . S
C587 C595 1.503 . S
C588 C587 1.410 . S
C588 C589 1.392 . S
C588 C591 1.511 . S
C589 C585 1.376 . S
C589 C588 1.392 . S
C589 H601 0.929 . S
C590 C586 1.531 . S
C590 H602 0.960 . S
C590 H603 0.962 . S
C590 H604 0.960 . S
C591 C588 1.511 . S
C591 H605 0.961 . S
C591 H606 0.961 . S
C591 H607 0.961 . S
C592 C593 1.370 . S
C592 C594 1.363 . S
C592 H608 0.931 . S
C593 C592 1.370 . S
C593 C597 1.408 . S
C594 C592 1.363 . S
C594 C595 1.370 . S
C594 C598 1.524 . S
C595 C587 1.503 . S
C595 C594 1.370 . S
C595 C596 1.403 . S
C596 C595 1.403 . S
C596 C597 1.404 . S
C596 C599 1.539 . S
C597 C593 1.408 . S
C597 C596 1.404 . S
C597 H609 0.930 . S
C598 C594 1.524 . S
C598 H610 0.956 . S
C598 H611 0.961 . S
C598 H612 0.961 . S
C599 C596 1.539 . S
C599 H613 0.958 . S
C599 H614 0.961 . S
C599 H615 0.960 . S
H600 C584 0.931 . S
H601 C589 0.929 . S
H602 C590 0.960 . S
H603 C590 0.962 . S
H604 C590 0.960 . S
H605 C591 0.961 . S
H606 C591 0.961 . S
H607 C591 0.961 . S
H608 C592 0.931 . S
H609 C597 0.930 . S
H610 C598 0.956 . S
H611 C598 0.961 . S
H612 C598 0.961 . S
H613 C599 0.958 . S
H614 C599 0.961 . S
H615 C599 0.960 . S
C105 C8 1.543 . S
C113 C60 1.528 . S
C137 C21 1.522 . S
C145 C73 1.518 . S
C169 C86 1.502 . S
C177 C34 1.527 . S
C201 C99 1.519 . S
C209 C47 1.535 . S
C233 C0 1.104 . S
C241 C26 1.108 . S
C265 C13 1.105 . S
C273 C39 1.108 . S
C297 C78 1.117 . S
C305 C52 1.102 . S
C329 C65 1.115 . S
C337 C91 1.103 . S
C361 C75 1.255 . S
C369 C10 1.296 . S
C393 C23 1.292 . S
C401 C88 1.275 . S
C425 C101 1.314 . S
C433 C36 1.280 . S
C457 C49 1.303 . S
C465 C62 1.295 . S
C489 C83 1.215 . S
C497 C44 1.220 . S
C521 C5 1.236 . S
C529 C96 1.223 . S
C553 C18 1.239 . S
C561 C57 1.216 . S
C585 C70 1.218 . S
C593 C31 1.204 . S
