# Generated by pormake.
# Topology uoo, (4)-cn, num edge types: 1
# Building blocks:
#     Node 0, Type 0, BuildingBlock: GALJAG_clean_sbu_0, # of connection points: 4
#     Node 1, Type 0, BuildingBlock: GALJAG_clean_sbu_0, # of connection points: 4
#     Node 2, Type 0, BuildingBlock: GALJAG_clean_sbu_0, # of connection points: 4
#     Node 3, Type 0, BuildingBlock: GALJAG_clean_sbu_0, # of connection points: 4
#     Node 4, Type 0, BuildingBlock: GALJAG_clean_sbu_0, # of connection points: 4
#     Node 5, Type 0, BuildingBlock: GALJAG_clean_sbu_0, # of connection points: 4
#     Edge 6, Type (0, 0), BuildingBlock: TEMPAE_clean_linker_10, # of connection points: 2
#     Edge 7, Type (0, 0), BuildingBlock: TEMPAE_clean_linker_10, # of connection points: 2
#     Edge 8, Type (0, 0), BuildingBlock: TEMPAE_clean_linker_10, # of connection points: 2
#     Edge 9, Type (0, 0), BuildingBlock: TEMPAE_clean_linker_10, # of connection points: 2
#     Edge 10, Type (0, 0), BuildingBlock: TEMPAE_clean_linker_10, # of connection points: 2
#     Edge 11, Type (0, 0), BuildingBlock: TEMPAE_clean_linker_10, # of connection points: 2
#     Edge 12, Type (0, 0), BuildingBlock: TEMPAE_clean_linker_10, # of connection points: 2
#     Edge 13, Type (0, 0), BuildingBlock: TEMPAE_clean_linker_10, # of connection points: 2
#     Edge 14, Type (0, 0), BuildingBlock: TEMPAE_clean_linker_10, # of connection points: 2
#     Edge 15, Type (0, 0), BuildingBlock: TEMPAE_clean_linker_10, # of connection points: 2
#     Edge 16, Type (0, 0), BuildingBlock: TEMPAE_clean_linker_10, # of connection points: 2
#     Edge 17, Type (0, 0), BuildingBlock: TEMPAE_clean_linker_10, # of connection points: 2
# Relax obj value: 0.098
# Max RMSD: 0.113
# Mean RMSD: 0.113
data_MOF--net-uoo--node1-GALJAG_clean_sbu_0--edge1-TEMPAE_clean_linker_10
_symmetry_space_group_name_H-M    P1
_symmetry_Int_Tables_number       1
_symmetry_cell_setting            triclinic
loop_
_symmetry_equiv_pos_as_xyz
'x, y, z'
_cell_length_a     25.626247
_cell_length_b     25.612572
_cell_length_c     39.359878
_cell_angle_alpha  90.134002
_cell_angle_beta   89.934615
_cell_angle_gamma 120.00865
loop_
_atom_site_label
_atom_site_type_symbol
_atom_site_fract_x
_atom_site_fract_y
_atom_site_fract_z
_atom_type_partial_charge
In0 In 0.1602 0.32505 0.01406 0.0
O1 O 0.12487 0.24247 0.04921 0.0
O2 O 0.14224 0.3261 0.07017 0.0
C3 C 0.13451 0.26342 0.95499 0.0
C4 C 0.0989 0.3842 0.00458 0.0
C5 C 0.2816 0.38617 0.0215 0.0
O6 O 0.11753 0.23704 0.98331 0.0
O7 O 0.16332 0.3202 0.95672 0.0
O8 O 0.24852 0.4067 0.03115 0.0
O9 O 0.25356 0.33438 0.00837 0.0
C10 C 0.12425 0.27113 0.07521 0.0
O11 O 0.15416 0.40713 -0.00221 0.0
O12 O 0.07404 0.33076 0.01546 0.0
In13 In 0.86695 0.15994 0.34985 0.0
O14 O 0.89092 0.10014 0.38201 0.0
O15 O 0.84952 0.14428 0.40627 0.0
C16 C 0.91895 0.14006 0.29545 0.0
C17 C 0.74624 0.10769 0.34288 0.0
C18 C 0.92519 0.28195 0.35187 0.0
O19 O 0.94657 0.16017 0.32321 0.0
O20 O 0.86518 0.12898 0.29557 0.0
O21 O 0.88934 0.25159 0.32837 0.0
O22 O 0.93208 0.25086 0.37431 0.0
C23 C 0.87037 0.1092 0.40917 0.0
O24 O 0.77943 0.16278 0.35003 0.0
O25 O 0.77401 0.07902 0.33888 0.0
In26 In 0.67811 0.82673 0.67824 0.0
O27 O 0.59212 0.73732 0.6872 0.0
O28 O 0.6674 0.734 0.66719 0.0
C29 C 0.61552 0.88629 0.67751 0.0
C30 C 0.73746 0.84092 0.73713 0.0
C31 C 0.74509 0.87282 0.62167 0.0
O32 O 0.60184 0.8408 0.65924 0.0
O33 O 0.66089 0.90196 0.69619 0.0
O34 O 0.76201 0.89742 0.65043 0.0
O35 O 0.69493 0.82457 0.62161 0.0
C36 C 0.61322 0.70495 0.67693 0.0
O37 O 0.76412 0.8548 0.70883 0.0
O38 O 0.68134 0.82019 0.7356 0.0
In39 In 0.85507 0.71353 0.0156 0.0
O40 O 0.9292 0.79589 0.04319 0.0
O41 O 0.84988 0.73731 0.07073 0.0
C42 C 0.87872 0.77685 0.95736 0.0
C43 C 0.90513 0.64253 0.01105 0.0
C44 C 0.7338 0.64579 0.02143 0.0
O45 O 0.86449 0.79315 0.98445 0.0
O46 O 0.88279 0.73 0.9601 0.0
O47 O 0.76927 0.63278 0.03638 0.0
O48 O 0.75944 0.69335 0.00402 0.0
C49 C 0.90143 0.78384 0.07116 0.0
O50 O 0.85996 0.63338 0.99374 0.0
O51 O 0.92526 0.68759 0.03056 0.0
In52 In 0.172 0.85558 0.34487 0.0
O53 O 0.26207 0.87443 0.36662 0.0
O54 O 0.26273 0.91342 0.31882 0.0
C55 C 0.12344 0.73533 0.354 0.0
C56 C 0.15465 0.90918 0.39961 0.0
C57 C 0.12493 0.86813 0.28592 0.0
O58 O 0.1775 0.76933 0.34532 0.0
O59 O 0.09397 0.76207 0.35874 0.0
O60 O 0.12771 0.89753 0.31225 0.0
O61 O 0.14619 0.83359 0.28946 0.0
C62 C 0.29294 0.90688 0.34206 0.0
O63 O 0.19963 0.93559 0.38025 0.0
O64 O 0.11717 0.85586 0.39094 0.0
In65 In 0.28584 0.13028 0.68584 0.0
O66 O 0.36005 0.22082 0.70612 0.0
O67 O 0.3218 0.22068 0.65839 0.0
C68 C 0.35943 0.08319 0.68393 0.0
C69 C 0.22083 0.11782 0.7427 0.0
C70 C 0.21322 0.07006 0.63297 0.0
O71 O 0.36872 0.12804 0.66617 0.0
O72 O 0.31317 0.06231 0.7025 0.0
O73 O 0.2296 0.04514 0.65476 0.0
O74 O 0.23145 0.12507 0.63859 0.0
C75 C 0.35938 0.25124 0.68119 0.0
O76 O 0.2022 0.1208 0.71354 0.0
O77 O 0.2708 0.11968 0.74283 0.0
C78 C 0.13485 0.11659 0.774 0.0
C79 C 0.19115 0.11992 0.77447 0.0
C80 C 0.11142 0.12824 0.80354 0.0
C81 C 0.14599 0.14509 0.83379 0.0
C82 C 0.2008 0.14427 0.83486 0.0
C83 C 0.22237 0.13113 0.80527 0.0
C84 C 0.05164 0.12624 0.80176 0.0
C85 C 0.23926 0.16208 0.86654 0.0
C86 C 0.15282 0.2644 0.89292 0.0
C87 C 0.12707 0.23118 0.92256 0.0
C88 C 0.15532 0.23607 0.86301 0.0
C89 C 0.13083 0.17277 0.8626 0.0
C90 C 0.10015 0.13833 0.89158 0.0
C91 C 0.09908 0.16808 0.92144 0.0
C92 C 0.18829 0.27459 0.83266 0.0
C93 C 0.07174 0.07058 0.89177 0.0
H94 H 0.11013 0.10707 0.75032 0.0
H95 H 0.26568 0.13324 0.80588 0.0
H96 H 0.02516 0.10677 0.82532 0.0
H97 H 0.05953 0.17275 0.79916 0.0
H98 H 0.02451 0.09935 0.77965 0.0
H99 H 0.27799 0.15424 0.864 0.0
H100 H 0.25708 0.21067 0.87189 0.0
H101 H 0.21196 0.1364 0.88877 0.0
H102 H 0.17387 0.31312 0.8935 0.0
H103 H 0.07841 0.14209 0.94419 0.0
H104 H 0.16031 0.25687 0.80944 0.0
H105 H 0.23036 0.27315 0.82832 0.0
H106 H 0.20034 0.32239 0.83616 0.0
H107 H 0.04843 0.05087 0.86736 0.0
H108 H 0.03893 0.04981 0.91289 0.0
H109 H 0.10738 0.05844 0.89493 0.0
C110 C 0.01064 0.15595 0.26397 0.0
C111 C 0.94914 0.13771 0.26396 0.0
C112 C 0.04234 0.16621 0.23329 0.0
C113 C 0.01183 0.15889 0.20214 0.0
C114 C 0.94862 0.13465 0.20206 0.0
C115 C 0.91797 0.12408 0.23302 0.0
C116 C 0.10938 0.19011 0.23437 0.0
C117 C 0.91422 0.12589 0.16943 0.0
C118 C 0.09132 0.27576 0.13385 0.0
C119 C 0.10056 0.24268 0.10856 0.0
C120 C 0.06416 0.2492 0.16473 0.0
C121 C 0.0466 0.18811 0.17083 0.0
C122 C 0.05842 0.15508 0.14609 0.0
C123 C 0.08475 0.18266 0.11495 0.0
C124 C 0.0521 0.28609 0.1903 0.0
C125 C 0.0417 0.09035 0.15206 0.0
H126 H 0.03478 0.16558 0.28786 0.0
H127 H 0.8702 0.10907 0.23287 0.0
H128 H 0.12329 0.16988 0.21384 0.0
H129 H 0.13354 0.23962 0.23038 0.0
H130 H 0.12374 0.18097 0.25922 0.0
H131 H 0.8647 0.09868 0.1733 0.0
H132 H 0.92506 0.17057 0.15922 0.0
H133 H 0.92755 0.10339 0.14998 0.0
H134 H 0.10356 0.32219 0.1291 0.0
H135 H 0.09225 0.15707 0.09551 0.0
H136 H 0.073 0.28674 0.21507 0.0
H137 H 0.00285 0.26531 0.19453 0.0
H138 H 0.06986 0.33339 0.18189 0.0
H139 H 0.05469 0.08452 0.17806 0.0
H140 H 0.06348 0.07472 0.13336 0.0
H141 H 0.99217 0.0609 0.14985 0.0
C142 C 0.89275 0.04175 0.44493 0.0
C143 C 0.86615 0.07781 0.44134 0.0
C144 C 0.8839 0.00783 0.47462 0.0
C145 C 0.84663 0.0093 0.50075 0.0
C146 C 0.82157 0.04737 0.49763 0.0
C147 C 0.83206 0.08146 0.4681 0.0
C148 C 0.91264 0.96898 0.4775 0.0
C149 C 0.78132 0.05011 0.52485 0.0
C150 C 0.75052 0.8787 0.55854 0.0
C151 C 0.7778 0.90172 0.59007 0.0
C152 C 0.77536 0.9113 0.5286 0.0
C153 C 0.82908 0.96791 0.53028 0.0
C154 C 0.85975 0.98865 0.56162 0.0
C155 C 0.83343 0.95545 0.59128 0.0
C156 C 0.74121 0.88757 0.49568 0.0
C157 C 0.91793 0.04802 0.56427 0.0
H158 H 0.91956 0.03922 0.42435 0.0
H159 H 0.81154 0.10938 0.4655 0.0
H160 H 0.93408 0.97483 0.50276 0.0
H161 H 0.87752 0.92081 0.47506 0.0
H162 H 0.94716 0.9796 0.4575 0.0
H163 H 0.76722 0.08368 0.519 0.0
H164 H 0.74025 0.0052 0.5276 0.0
H165 H 0.80486 0.06191 0.5497 0.0
H166 H 0.70778 0.83688 0.55743 0.0
H167 H 0.85513 0.97299 0.61559 0.0
H168 H 0.77205 0.89084 0.47495 0.0
H169 H 0.721 0.9154 0.48825 0.0
H170 H 0.70449 0.8399 0.49784 0.0
H171 H 0.9485 0.0535 0.54288 0.0
H172 H 0.94165 0.05213 0.5886 0.0
H173 H 0.90814 0.08554 0.56283 0.0
C174 C 0.87473 0.85554 0.92178 0.0
C175 C 0.88046 0.80402 0.92405 0.0
C176 C 0.86331 0.87388 0.89041 0.0
C177 C 0.85619 0.83898 0.861 0.0
C178 C 0.86736 0.79023 0.86275 0.0
C179 C 0.87989 0.77366 0.89426 0.0
C180 C 0.85401 0.92755 0.88929 0.0
C181 C 0.86023 0.75178 0.83202 0.0
C182 C 0.7347 0.81382 0.79788 0.0
C183 C 0.76854 0.8454 0.76945 0.0
C184 C 0.76293 0.81311 0.82814 0.0
C185 C 0.82666 0.84588 0.83026 0.0
C186 C 0.86109 0.88051 0.8022 0.0
C187 C 0.83156 0.87917 0.77185 0.0
C188 C 0.72447 0.77516 0.85738 0.0
C189 C 0.92897 0.91746 0.80387 0.0
H190 H 0.87607 0.87973 0.9447 0.0
H191 H 0.8849 0.73413 0.89583 0.0
H192 H 0.87474 0.95486 0.86615 0.0
H193 H 0.80503 0.91163 0.88842 0.0
H194 H 0.87334 0.95685 0.91202 0.0
H195 H 0.87758 0.72041 0.83666 0.0
H196 H 0.81177 0.72471 0.82528 0.0
H197 H 0.88417 0.7804 0.80982 0.0
H198 H 0.68598 0.78775 0.79612 0.0
H199 H 0.85779 0.90418 0.74995 0.0
H200 H 0.73435 0.80327 0.88056 0.0
H201 H 0.73521 0.73916 0.8631 0.0
H202 H 0.67549 0.75367 0.85187 0.0
H203 H 0.94379 0.94291 0.82813 0.0
H204 H 0.94804 0.94982 0.78244 0.0
H205 H 0.9481 0.88705 0.80287 0.0
C206 C 0.0722 0.90898 0.25025 0.0
C207 C 0.09637 0.87077 0.25388 0.0
C208 C 0.04135 0.90785 0.22045 0.0
C209 C 0.03385 0.86683 0.19414 0.0
C210 C 0.06002 0.82974 0.19735 0.0
C211 C 0.09114 0.83242 0.22705 0.0
C212 C 0.01503 0.94885 0.21778 0.0
C213 C 0.05327 0.78537 0.16989 0.0
C214 C 0.90212 0.79186 0.13422 0.0
C215 C 0.9304 0.81572 0.10303 0.0
C216 C 0.93394 0.81248 0.16482 0.0
C217 C 0.99525 0.85838 0.16413 0.0
C218 C 0.02183 0.88729 0.13309 0.0
C219 C 0.98918 0.86523 0.10275 0.0
C220 C 0.90366 0.78093 0.19745 0.0
C221 C 0.08636 0.93796 0.13154 0.0
H222 H 0.07643 0.93896 0.27089 0.0
H223 H 0.11001 0.80303 0.22961 0.0
H224 H 0.01931 0.9665 0.1916 0.0
H225 H 0.96633 0.92301 0.22407 0.0
H226 H 0.03714 0.98753 0.23568 0.0
H227 H 0.07801 0.76123 0.17593 0.0
H228 H 0.00491 0.75147 0.16644 0.0
H229 H 0.07024 0.80907 0.14532 0.0
H230 H 0.85637 0.75413 0.13463 0.0
H231 H 0.0109 0.88457 0.07871 0.0
H232 H 0.91312 0.8142 0.218 0.0
H233 H 0.92193 0.75175 0.2056 0.0
H234 H 0.85406 0.75234 0.19448 0.0
H235 H 0.09631 0.97013 0.15281 0.0
H236 H 0.09654 0.96291 0.10714 0.0
H237 H 0.11694 0.91921 0.13408 0.0
C238 C 0.16381 0.06783 0.5777 0.0
C239 C 0.18362 0.03988 0.60084 0.0
C240 C 0.14638 0.04501 0.5446 0.0
C241 C 0.15049 0.99417 0.53433 0.0
C242 C 0.1662 0.96334 0.55841 0.0
C243 C 0.18197 0.98626 0.59148 0.0
C244 C 0.12756 0.07771 0.52004 0.0
C245 C 0.17146 0.90913 0.54853 0.0
C246 C 0.09631 0.91037 0.45048 0.0
C247 C 0.1502 0.93621 0.43188 0.0
C248 C 0.09431 0.93172 0.48314 0.0
C249 C 0.14789 0.97855 0.49773 0.0
C250 C 0.20164 0.00654 0.47832 0.0
C251 C 0.2019 0.98548 0.4455 0.0
C252 C 0.03564 0.90236 0.50252 0.0
C253 C 0.25998 0.05628 0.49298 0.0
H254 H 0.16432 0.10893 0.58498 0.0
H255 H 0.19695 0.96429 0.60932 0.0
H256 H 0.16544 0.10534 0.50254 0.0
H257 H 0.08884 0.04523 0.50434 0.0
H258 H 0.11499 0.10808 0.5334 0.0
H259 H 0.17883 0.88718 0.57088 0.0
H260 H 0.13023 0.87533 0.53511 0.0
H261 H 0.20993 0.92331 0.5308 0.0
H262 H 0.05606 0.87264 0.43984 0.0
H263 H 0.24364 0.00564 0.43119 0.0
H264 H 0.02871 0.93682 0.51564 0.0
H265 H 0.03688 0.87217 0.52226 0.0
H266 H 0.99649 0.87517 0.48562 0.0
H267 H 0.25368 0.09338 0.50277 0.0
H268 H 0.29702 0.07518 0.47399 0.0
H269 H 0.27402 0.03857 0.5147 0.0
C270 C 0.37584 0.47255 0.04485 0.0
C271 C 0.34794 0.42127 0.02403 0.0
C272 C 0.43884 0.50819 0.04624 0.0
C273 C 0.47464 0.49273 0.02583 0.0
C274 C 0.44668 0.44053 0.00508 0.0
C275 C 0.38358 0.40507 0.00467 0.0
C276 C 0.46704 0.56292 0.06912 0.0
C277 C 0.48333 0.42308 0.9826 0.0
C278 C 0.63078 0.61841 0.00155 0.0
C279 C 0.66757 0.6075 0.02327 0.0
C280 C 0.56792 0.58125 0.00207 0.0
C281 C 0.54122 0.53248 0.02519 0.0
C282 C 0.57811 0.52173 0.0475 0.0
C283 C 0.64096 0.55918 0.04612 0.0
C284 C 0.53013 0.59381 0.97764 0.0
C285 C 0.55119 0.47064 0.07279 0.0
H286 H 0.34836 0.48498 0.06 0.0
H287 H 0.36209 0.36559 0.98843 0.0
H288 H 0.50047 0.5611 0.08623 0.0
H289 H 0.49154 0.60436 0.05358 0.0
H290 H 0.43305 0.56667 0.08487 0.0
H291 H 0.45477 0.38034 0.96861 0.0
H292 H 0.50899 0.45938 0.96386 0.0
H293 H 0.51664 0.4179 -0.00197 0.0
H294 H 0.65119 0.65556 0.98373 0.0
H295 H 0.66928 0.55069 0.06301 0.0
H296 H 0.49793 0.60257 0.99191 0.0
H297 H 0.50318 0.55374 0.96133 0.0
H298 H 0.55794 0.63317 0.96105 0.0
H299 H 0.51886 0.47527 0.08953 0.0
H300 H 0.58602 0.46917 0.08887 0.0
H301 H 0.52561 0.42696 0.05923 0.0
C302 C 0.98758 0.37973 0.38238 0.0
C303 C 0.95576 0.3485 0.35323 0.0
C304 C 0.01564 0.44285 0.38422 0.0
C305 C 0.0123 0.47542 0.35609 0.0
C306 C 0.98068 0.44409 0.32649 0.0
C307 C 0.95252 0.38097 0.32549 0.0
C308 C 0.04852 0.47466 0.4163 0.0
C309 C 0.97664 0.47727 0.29584 0.0
C310 C 0.03664 0.63341 0.36788 0.0
C311 C 0.09613 0.66915 0.35658 0.0
C312 C 0.0092 0.57028 0.3686 0.0
C313 C 0.04193 0.54233 0.35747 0.0
C314 C 0.10236 0.57829 0.34657 0.0
C315 C 0.12881 0.6413 0.34639 0.0
C316 C 0.94485 0.53346 0.38069 0.0
C317 C 0.13859 0.55016 0.33432 0.0
H318 H 0.99001 0.35477 0.40394 0.0
H319 H 0.92811 0.35702 0.30287 0.0
H320 H 0.09646 0.50707 0.4105 0.0
H321 H 0.02864 0.50097 0.42695 0.0
H322 H 0.04662 0.44273 0.43599 0.0
H323 H 0.95101 0.44627 0.27464 0.0
H324 H 0.95437 0.50338 0.3029 0.0
H325 H 0.02254 0.50997 0.28665 0.0
H326 H 0.01124 0.65474 0.37585 0.0
H327 H 0.1748 0.66872 0.33757 0.0
H328 H 0.94177 0.50276 0.40143 0.0
H329 H 0.91586 0.5049 0.35961 0.0
H330 H 0.92665 0.56213 0.39006 0.0
H331 H 0.13985 0.52014 0.35417 0.0
H332 H 0.18561 0.58448 0.32765 0.0
H333 H 0.11677 0.52189 0.31158 0.0
C334 C 0.38678 0.00744 0.7037 0.0
C335 C 0.39894 0.05651 0.6828 0.0
C336 C 0.42324 0.98099 0.70272 0.0
C337 C 0.47301 0.00409 0.68025 0.0
C338 C 0.48569 0.05381 0.65918 0.0
C339 C 0.44849 0.0795 0.66073 0.0
C340 C 0.40831 0.92808 0.72562 0.0
C341 C 0.53828 0.07956 0.63484 0.0
C342 C 0.59591 0.96663 0.69937 0.0
C343 C 0.58047 0.91784 0.67743 0.0
C344 C 0.56182 0.99575 0.70022 0.0
C345 C 0.51122 0.97558 0.67857 0.0
C346 C 0.49599 0.9269 0.656 0.0
C347 C 0.53079 0.89857 0.65574 0.0
C348 C 0.57939 0.04747 0.72464 0.0
C349 C 0.44244 0.9042 0.63248 0.0
H350 H 0.34855 0.98952 0.72083 0.0
H351 H 0.45804 0.11741 0.64452 0.0
H352 H 0.39904 0.88813 0.71009 0.0
H353 H 0.44739 0.93855 0.74217 0.0
H354 H 0.36852 0.91606 0.74197 0.0
H355 H 0.54242 0.11874 0.62047 0.0
H356 H 0.58083 0.09405 0.64895 0.0
H357 H 0.53309 0.04438 0.61645 0.0
H358 H 0.63432 0.98173 0.71616 0.0
H359 H 0.51875 0.86095 0.63867 0.0
H360 H 0.5423 0.03585 0.743 0.0
H361 H 0.58668 0.08813 0.71063 0.0
H362 H 0.62101 0.05883 0.73904 0.0
H363 H 0.40049 0.88748 0.64758 0.0
H364 H 0.43781 0.86716 0.61572 0.0
H365 H 0.44659 0.94156 0.61635 0.0
C366 C 0.39462 0.34972 0.65166 0.0
C367 C 0.39876 0.31745 0.67925 0.0
C368 C 0.43053 0.41278 0.65011 0.0
C369 C 0.47152 0.4442 0.67678 0.0
C370 C 0.47646 0.41172 0.70445 0.0
C371 C 0.43999 0.34873 0.70536 0.0
C372 C 0.42398 0.44586 0.62019 0.0
C373 C 0.51962 0.4436 0.73337 0.0
C374 C 0.59999 0.60403 0.66176 0.0
C375 C 0.57714 0.63835 0.67655 0.0
C376 C 0.5659 0.54074 0.66135 0.0
C377 C 0.50786 0.51122 0.67632 0.0
C378 C 0.48465 0.54572 0.6913 0.0
C379 C 0.51949 0.60885 0.69112 0.0
C380 C 0.59199 0.50546 0.64498 0.0
C381 C 0.42314 0.51592 0.70772 0.0
H382 H 0.36284 0.32575 0.6314 0.0
H383 H 0.44346 0.32401 0.72672 0.0
H384 H 0.40829 0.47684 0.62907 0.0
H385 H 0.46831 0.47386 0.60773 0.0
H386 H 0.39154 0.41466 0.60101 0.0
H387 H 0.51927 0.41164 0.75252 0.0
H388 H 0.56615 0.47126 0.72347 0.0
H389 H 0.50759 0.47476 0.74621 0.0
H390 H 0.64447 0.62664 0.65039 0.0
H391 H 0.50165 0.63515 0.70265 0.0
H392 H 0.56163 0.47624 0.62451 0.0
H393 H 0.59549 0.47547 0.66401 0.0
H394 H 0.63736 0.53522 0.63398 0.0
H395 H 0.38823 0.48708 0.68893 0.0
H396 H 0.41157 0.54922 0.71811 0.0
H397 H 0.42136 0.48619 0.72869 0.0
C398 C 0.91609 0.56151 0.98223 0.0
C399 C 0.93218 0.60349 0.00873 0.0
C400 C 0.94169 0.52434 0.97968 0.0
C401 C 0.9836 0.52871 0.00452 0.0
C402 C 0.99962 0.57073 0.03147 0.0
C403 C 0.97405 0.60797 0.03309 0.0
C404 C 0.9242 0.4807 0.95032 0.0
C405 C 0.04359 0.57618 0.05869 0.0
C406 C 0.01089 0.39746 0.01784 0.0
C407 C 0.06708 0.41879 0.00218 0.0
C408 C 0.98267 0.43239 0.01834 0.0
C409 C 0.01101 0.48955 0.00238 0.0
C410 C 0.06678 0.51035 0.98552 0.0
C411 C 0.09437 0.47488 0.98584 0.0
C412 C 0.92351 0.40897 0.03687 0.0
C413 C 0.09794 0.57066 0.96779 0.0
H414 H 0.88389 0.55813 0.96326 0.0
H415 H 0.98638 0.6402 0.0537 0.0
H416 H 0.96491 0.4901 0.93557 0.0
H417 H 0.90394 0.4339 0.95998 0.0
H418 H 0.89151 0.48336 0.93292 0.0
H419 H 0.05036 0.61029 0.07829 0.0
H420 H 0.02713 0.53201 0.07136 0.0
H421 H 0.08785 0.58893 0.04709 0.0
H422 H 0.98978 0.35422 0.03062 0.0
H423 H 0.13772 0.4914 0.97359 0.0
H424 H 0.88903 0.40849 0.01967 0.0
H425 H 0.92917 0.43945 0.05839 0.0
H426 H 0.90639 0.36275 0.04696 0.0
H427 H 0.06682 0.57371 0.94938 0.0
H428 H 0.13914 0.57853 0.95406 0.0
H429 H 0.11082 0.60736 0.98666 0.0
C430 C 0.65091 0.11084 0.34941 0.0
C431 C 0.67994 0.07869 0.3405 0.0
C432 C 0.58785 0.08319 0.34875 0.0
C433 C 0.55307 0.02208 0.33867 0.0
C434 C 0.5822 0.98973 0.329 0.0
C435 C 0.64534 0.01838 0.33018 0.0
C436 C 0.55841 0.11905 0.35945 0.0
C437 C 0.54663 0.92465 0.31784 0.0
C438 C 0.39109 0.93349 0.36934 0.0
C439 C 0.35931 0.93554 0.34089 0.0
C440 C 0.45417 0.96139 0.36891 0.0
C441 C 0.48614 0.99156 0.3392 0.0
C442 C 0.45423 0.9932 0.31026 0.0
C443 C 0.39114 0.96539 0.31151 0.0
C444 C 0.48664 0.95909 0.40038 0.0
C445 C 0.48676 0.02448 0.27803 0.0
H446 H 0.67746 0.15746 0.35746 0.0
H447 H 0.6676 0.99339 0.32317 0.0
H448 H 0.52903 0.11911 0.33879 0.0
H449 H 0.52929 0.0977 0.38193 0.0
H450 H 0.59192 0.1665 0.36592 0.0
H451 H 0.57617 0.90663 0.30981 0.0
H452 H 0.51751 0.89651 0.33896 0.0
H453 H 0.51656 0.91997 0.29636 0.0
H454 H 0.36669 0.91058 0.39214 0.0
H455 H 0.36672 0.96691 0.28942 0.0
H456 H 0.51825 0.00553 0.40937 0.0
H457 H 0.51384 0.93753 0.39438 0.0
H458 H 0.45512 0.93367 0.42137 0.0
H459 H 0.51803 0.07299 0.28318 0.0
H460 H 0.45523 0.02049 0.25751 0.0
H461 H 0.51436 0.00502 0.26883 0.0
loop_
_geom_bond_atom_site_label_1
_geom_bond_atom_site_label_2
_geom_bond_distance
_geom_bond_site_symmetry_2
_ccdc_geom_bond_type
In0 O1 2.294 . S
In0 O2 2.326 . S
In0 O6 2.266 1_554 S
In0 O7 2.326 1_554 S
In0 O8 2.266 . S
In0 O9 2.326 . S
In0 O11 2.294 . S
In0 O12 2.326 . S
O1 In0 2.294 . S
O1 C10 1.240 . S
O2 In0 2.326 . S
O2 C10 1.252 . S
C3 O6 1.252 . S
C3 O7 1.260 . S
C4 O11 1.240 . S
C4 O12 1.252 . S
C5 O8 1.252 . S
C5 O9 1.260 . S
O6 In0 2.266 1_556 S
O6 C3 1.252 . S
O7 In0 2.326 1_556 S
O7 C3 1.260 . S
O8 In0 2.266 . S
O8 C5 1.252 . S
O9 In0 2.326 . S
O9 C5 1.260 . S
C10 O1 1.240 . S
C10 O2 1.252 . S
O11 In0 2.294 . S
O11 C4 1.240 . S
O12 In0 2.326 . S
O12 C4 1.252 . S
In13 O14 2.294 . S
In13 O15 2.326 . S
In13 O19 2.266 . S
In13 O20 2.326 . S
In13 O21 2.266 . S
In13 O22 2.326 . S
In13 O24 2.294 . S
In13 O25 2.326 . S
O14 In13 2.294 . S
O14 C23 1.240 . S
O15 In13 2.326 . S
O15 C23 1.252 . S
C16 O19 1.252 . S
C16 O20 1.260 . S
C17 O24 1.240 . S
C17 O25 1.252 . S
C18 O21 1.252 . S
C18 O22 1.260 . S
O19 In13 2.266 . S
O19 C16 1.252 . S
O20 In13 2.326 . S
O20 C16 1.260 . S
O21 In13 2.266 . S
O21 C18 1.252 . S
O22 In13 2.326 . S
O22 C18 1.260 . S
C23 O14 1.240 . S
C23 O15 1.252 . S
O24 In13 2.294 . S
O24 C17 1.240 . S
O25 In13 2.326 . S
O25 C17 1.252 . S
In26 O27 2.294 . S
In26 O28 2.326 . S
In26 O32 2.266 . S
In26 O33 2.326 . S
In26 O34 2.266 . S
In26 O35 2.326 . S
In26 O37 2.294 . S
In26 O38 2.326 . S
O27 In26 2.294 . S
O27 C36 1.240 . S
O28 In26 2.326 . S
O28 C36 1.252 . S
C29 O32 1.252 . S
C29 O33 1.260 . S
C30 O37 1.240 . S
C30 O38 1.252 . S
C31 O34 1.252 . S
C31 O35 1.260 . S
O32 In26 2.266 . S
O32 C29 1.252 . S
O33 In26 2.326 . S
O33 C29 1.260 . S
O34 In26 2.266 . S
O34 C31 1.252 . S
O35 In26 2.326 . S
O35 C31 1.260 . S
C36 O27 1.240 . S
C36 O28 1.252 . S
O37 In26 2.294 . S
O37 C30 1.240 . S
O38 In26 2.326 . S
O38 C30 1.252 . S
In39 O40 2.294 . S
In39 O41 2.326 . S
In39 O45 2.266 1_554 S
In39 O46 2.326 1_554 S
In39 O47 2.266 . S
In39 O48 2.326 . S
In39 O50 2.294 . S
In39 O51 2.326 . S
O40 In39 2.294 . S
O40 C49 1.240 . S
O41 In39 2.326 . S
O41 C49 1.252 . S
C42 O45 1.252 . S
C42 O46 1.260 . S
C43 O50 1.240 . S
C43 O51 1.252 . S
C44 O47 1.252 . S
C44 O48 1.260 . S
O45 In39 2.266 1_556 S
O45 C42 1.252 . S
O46 In39 2.326 1_556 S
O46 C42 1.260 . S
O47 In39 2.266 . S
O47 C44 1.252 . S
O48 In39 2.326 . S
O48 C44 1.260 . S
C49 O40 1.240 . S
C49 O41 1.252 . S
O50 In39 2.294 . S
O50 C43 1.240 . S
O51 In39 2.326 . S
O51 C43 1.252 . S
In52 O53 2.294 . S
In52 O54 2.326 . S
In52 O58 2.266 . S
In52 O59 2.326 . S
In52 O60 2.266 . S
In52 O61 2.326 . S
In52 O63 2.294 . S
In52 O64 2.326 . S
O53 In52 2.294 . S
O53 C62 1.240 . S
O54 In52 2.326 . S
O54 C62 1.252 . S
C55 O58 1.252 . S
C55 O59 1.260 . S
C56 O63 1.240 . S
C56 O64 1.252 . S
C57 O60 1.252 . S
C57 O61 1.260 . S
O58 In52 2.266 . S
O58 C55 1.252 . S
O59 In52 2.326 . S
O59 C55 1.260 . S
O60 In52 2.266 . S
O60 C57 1.252 . S
O61 In52 2.326 . S
O61 C57 1.260 . S
C62 O53 1.240 . S
C62 O54 1.252 . S
O63 In52 2.294 . S
O63 C56 1.240 . S
O64 In52 2.326 . S
O64 C56 1.252 . S
In65 O66 2.294 . S
In65 O67 2.326 . S
In65 O71 2.266 . S
In65 O72 2.326 . S
In65 O73 2.266 . S
In65 O74 2.326 . S
In65 O76 2.294 . S
In65 O77 2.326 . S
O66 In65 2.294 . S
O66 C75 1.240 . S
O67 In65 2.326 . S
O67 C75 1.252 . S
C68 O71 1.252 . S
C68 O72 1.260 . S
C69 O76 1.240 . S
C69 O77 1.252 . S
C70 O73 1.252 . S
C70 O74 1.260 . S
O71 In65 2.266 . S
O71 C68 1.252 . S
O72 In65 2.326 . S
O72 C68 1.260 . S
O73 In65 2.266 . S
O73 C70 1.252 . S
O74 In65 2.326 . S
O74 C70 1.260 . S
C75 O66 1.240 . S
C75 O67 1.252 . S
O76 In65 2.294 . S
O76 C69 1.240 . S
O77 In65 2.326 . S
O77 C69 1.252 . S
C78 C79 1.391 . S
C78 C80 1.394 . S
C78 H94 0.931 . S
C79 C78 1.391 . S
C79 C83 1.376 . S
C80 C78 1.394 . S
C80 C81 1.369 . S
C80 C84 1.531 . S
C81 C80 1.369 . S
C81 C82 1.410 . S
C81 C89 1.503 . S
C82 C81 1.410 . S
C82 C83 1.392 . S
C82 C85 1.511 . S
C83 C79 1.376 . S
C83 C82 1.392 . S
C83 H95 0.929 . S
C84 C80 1.531 . S
C84 H96 0.960 . S
C84 H97 0.962 . S
C84 H98 0.960 . S
C85 C82 1.511 . S
C85 H99 0.961 . S
C85 H100 0.961 . S
C85 H101 0.961 . S
C86 C87 1.370 . S
C86 C88 1.363 . S
C86 H102 0.931 . S
C87 C86 1.370 . S
C87 C91 1.408 . S
C88 C86 1.363 . S
C88 C89 1.370 . S
C88 C92 1.524 . S
C89 C81 1.503 . S
C89 C88 1.370 . S
C89 C90 1.403 . S
C90 C89 1.403 . S
C90 C91 1.404 . S
C90 C93 1.539 . S
C91 C87 1.408 . S
C91 C90 1.404 . S
C91 H103 0.930 . S
C92 C88 1.524 . S
C92 H104 0.956 . S
C92 H105 0.961 . S
C92 H106 0.961 . S
C93 C90 1.539 . S
C93 H107 0.958 . S
C93 H108 0.961 . S
C93 H109 0.960 . S
H94 C78 0.931 . S
H95 C83 0.929 . S
H96 C84 0.960 . S
H97 C84 0.962 . S
H98 C84 0.960 . S
H99 C85 0.961 . S
H100 C85 0.961 . S
H101 C85 0.961 . S
H102 C86 0.931 . S
H103 C91 0.930 . S
H104 C92 0.956 . S
H105 C92 0.961 . S
H106 C92 0.961 . S
H107 C93 0.958 . S
H108 C93 0.961 . S
H109 C93 0.960 . S
C110 C111 1.391 . S
C110 C112 1.394 1_655 S
C110 H126 0.931 . S
C111 C110 1.391 . S
C111 C115 1.376 . S
C112 C110 1.394 1_455 S
C112 C113 1.369 1_455 S
C112 C116 1.531 . S
C113 C112 1.369 1_655 S
C113 C114 1.410 . S
C113 C121 1.503 1_655 S
C114 C113 1.410 . S
C114 C115 1.392 . S
C114 C117 1.511 . S
C115 C111 1.376 . S
C115 C114 1.392 . S
C115 H127 0.929 . S
C116 C112 1.531 . S
C116 H128 0.960 . S
C116 H129 0.962 . S
C116 H130 0.960 . S
C117 C114 1.511 . S
C117 H131 0.961 . S
C117 H132 0.961 . S
C117 H133 0.961 . S
C118 C119 1.370 . S
C118 C120 1.363 . S
C118 H134 0.931 . S
C119 C118 1.370 . S
C119 C123 1.408 . S
C120 C118 1.363 . S
C120 C121 1.370 . S
C120 C124 1.524 1_455 S
C121 C113 1.503 1_455 S
C121 C120 1.370 . S
C121 C122 1.403 . S
C122 C121 1.403 . S
C122 C123 1.404 . S
C122 C125 1.539 . S
C123 C119 1.408 . S
C123 C122 1.404 . S
C123 H135 0.930 . S
C124 C120 1.524 1_655 S
C124 H136 0.956 . S
C124 H137 0.961 . S
C124 H138 0.961 . S
C125 C122 1.539 . S
C125 H139 0.958 . S
C125 H140 0.961 . S
C125 H141 0.960 . S
H126 C110 0.931 . S
H127 C115 0.929 . S
H128 C116 0.960 . S
H129 C116 0.962 . S
H130 C116 0.960 . S
H131 C117 0.961 . S
H132 C117 0.961 . S
H133 C117 0.961 . S
H134 C118 0.931 . S
H135 C123 0.930 . S
H136 C124 0.956 . S
H137 C124 0.961 . S
H138 C124 0.961 . S
H139 C125 0.958 . S
H140 C125 0.961 . S
H141 C125 0.960 . S
C142 C143 1.391 . S
C142 C144 1.394 . S
C142 H158 0.931 . S
C143 C142 1.391 . S
C143 C147 1.376 . S
C144 C142 1.394 . S
C144 C145 1.369 . S
C144 C148 1.531 . S
C145 C144 1.369 . S
C145 C146 1.410 . S
C145 C153 1.503 1_545 S
C146 C145 1.410 . S
C146 C147 1.392 . S
C146 C149 1.511 1_545 S
C147 C143 1.376 . S
C147 C146 1.392 . S
C147 H159 0.929 . S
C148 C144 1.531 . S
C148 H160 0.960 . S
C148 H161 0.962 . S
C148 H162 0.960 . S
C149 C146 1.511 1_565 S
C149 H163 0.961 . S
C149 H164 0.961 . S
C149 H165 0.961 . S
C150 C151 1.370 . S
C150 C152 1.363 . S
C150 H166 0.931 . S
C151 C150 1.370 . S
C151 C155 1.408 . S
C152 C150 1.363 . S
C152 C153 1.370 . S
C152 C156 1.524 . S
C153 C145 1.503 1_565 S
C153 C152 1.370 . S
C153 C154 1.403 1_565 S
C154 C153 1.403 1_545 S
C154 C155 1.404 1_545 S
C154 C157 1.539 . S
C155 C151 1.408 . S
C155 C154 1.404 1_565 S
C155 H167 0.930 . S
C156 C152 1.524 . S
C156 H168 0.956 . S
C156 H169 0.961 . S
C156 H170 0.961 . S
C157 C154 1.539 . S
C157 H171 0.958 . S
C157 H172 0.961 . S
C157 H173 0.960 . S
H158 C142 0.931 . S
H159 C147 0.929 . S
H160 C148 0.960 . S
H161 C148 0.962 . S
H162 C148 0.960 . S
H163 C149 0.961 . S
H164 C149 0.961 . S
H165 C149 0.961 . S
H166 C150 0.931 . S
H167 C155 0.930 . S
H168 C156 0.956 . S
H169 C156 0.961 . S
H170 C156 0.961 . S
H171 C157 0.958 . S
H172 C157 0.961 . S
H173 C157 0.960 . S
C174 C175 1.391 . S
C174 C176 1.394 . S
C174 H190 0.931 . S
C175 C174 1.391 . S
C175 C179 1.376 . S
C176 C174 1.394 . S
C176 C177 1.369 . S
C176 C180 1.531 . S
C177 C176 1.369 . S
C177 C178 1.410 . S
C177 C185 1.503 . S
C178 C177 1.410 . S
C178 C179 1.392 . S
C178 C181 1.511 . S
C179 C175 1.376 . S
C179 C178 1.392 . S
C179 H191 0.929 . S
C180 C176 1.531 . S
C180 H192 0.960 . S
C180 H193 0.962 . S
C180 H194 0.960 . S
C181 C178 1.511 . S
C181 H195 0.961 . S
C181 H196 0.961 . S
C181 H197 0.961 . S
C182 C183 1.370 . S
C182 C184 1.363 . S
C182 H198 0.931 . S
C183 C182 1.370 . S
C183 C187 1.408 . S
C184 C182 1.363 . S
C184 C185 1.370 . S
C184 C188 1.524 . S
C185 C177 1.503 . S
C185 C184 1.370 . S
C185 C186 1.403 . S
C186 C185 1.403 . S
C186 C187 1.404 . S
C186 C189 1.539 . S
C187 C183 1.408 . S
C187 C186 1.404 . S
C187 H199 0.930 . S
C188 C184 1.524 . S
C188 H200 0.956 . S
C188 H201 0.961 . S
C188 H202 0.961 . S
C189 C186 1.539 . S
C189 H203 0.958 . S
C189 H204 0.961 . S
C189 H205 0.960 . S
H190 C174 0.931 . S
H191 C179 0.929 . S
H192 C180 0.960 . S
H193 C180 0.962 . S
H194 C180 0.960 . S
H195 C181 0.961 . S
H196 C181 0.961 . S
H197 C181 0.961 . S
H198 C182 0.931 . S
H199 C187 0.930 . S
H200 C188 0.956 . S
H201 C188 0.961 . S
H202 C188 0.961 . S
H203 C189 0.958 . S
H204 C189 0.961 . S
H205 C189 0.960 . S
C206 C207 1.391 . S
C206 C208 1.394 . S
C206 H222 0.931 . S
C207 C206 1.391 . S
C207 C211 1.376 . S
C208 C206 1.394 . S
C208 C209 1.369 . S
C208 C212 1.531 . S
C209 C208 1.369 . S
C209 C210 1.410 . S
C209 C217 1.503 1_455 S
C210 C209 1.410 . S
C210 C211 1.392 . S
C210 C213 1.511 . S
C211 C207 1.376 . S
C211 C210 1.392 . S
C211 H223 0.929 . S
C212 C208 1.531 . S
C212 H224 0.960 . S
C212 H225 0.962 1_455 S
C212 H226 0.960 . S
C213 C210 1.511 . S
C213 H227 0.961 . S
C213 H228 0.961 . S
C213 H229 0.961 . S
C214 C215 1.370 . S
C214 C216 1.363 . S
C214 H230 0.931 . S
C215 C214 1.370 . S
C215 C219 1.408 . S
C216 C214 1.363 . S
C216 C217 1.370 . S
C216 C220 1.524 . S
C217 C209 1.503 1_655 S
C217 C216 1.370 . S
C217 C218 1.403 1_655 S
C218 C217 1.403 1_455 S
C218 C219 1.404 1_455 S
C218 C221 1.539 . S
C219 C215 1.408 . S
C219 C218 1.404 1_655 S
C219 H231 0.924 1_655 S
C220 C216 1.524 . S
C220 H232 0.956 . S
C220 H233 0.961 . S
C220 H234 0.961 . S
C221 C218 1.539 . S
C221 H235 0.958 . S
C221 H236 0.961 . S
C221 H237 0.960 . S
H222 C206 0.931 . S
H223 C211 0.929 . S
H224 C212 0.960 . S
H225 C212 0.962 1_655 S
H226 C212 0.960 . S
H227 C213 0.961 . S
H228 C213 0.961 . S
H229 C213 0.961 . S
H230 C214 0.931 . S
H231 C219 0.924 1_455 S
H232 C220 0.956 . S
H233 C220 0.961 . S
H234 C220 0.961 . S
H235 C221 0.958 . S
H236 C221 0.961 . S
H237 C221 0.960 . S
C238 C239 1.391 . S
C238 C240 1.394 . S
C238 H254 0.931 . S
C239 C238 1.391 . S
C239 C243 1.376 . S
C240 C238 1.394 . S
C240 C241 1.369 . S
C240 C244 1.531 . S
C241 C240 1.369 . S
C241 C242 1.413 . S
C241 C249 1.503 1_545 S
C242 C241 1.413 . S
C242 C243 1.395 . S
C242 C245 1.506 1_545 S
C243 C239 1.376 . S
C243 C242 1.395 . S
C243 H255 0.929 . S
C244 C240 1.531 . S
C244 H256 0.960 . S
C244 H257 0.962 . S
C244 H258 0.960 . S
C245 C242 1.506 1_565 S
C245 H259 0.961 . S
C245 H260 0.961 . S
C245 H261 0.961 . S
C246 C247 1.370 . S
C246 C248 1.363 . S
C246 H262 0.931 . S
C247 C246 1.370 . S
C247 C251 1.408 . S
C248 C246 1.363 . S
C248 C249 1.370 . S
C248 C252 1.524 . S
C249 C241 1.503 1_565 S
C249 C248 1.370 . S
C249 C250 1.403 . S
C250 C249 1.403 . S
C250 C251 1.404 . S
C250 C253 1.539 1_565 S
C251 C247 1.408 . S
C251 C250 1.404 . S
C251 H263 0.930 . S
C252 C248 1.524 . S
C252 H264 0.956 . S
C252 H265 0.961 . S
C252 H266 0.961 . S
C253 C250 1.539 1_545 S
C253 H267 0.958 . S
C253 H268 0.961 . S
C253 H269 0.960 . S
H254 C238 0.931 . S
H255 C243 0.929 . S
H256 C244 0.960 . S
H257 C244 0.962 . S
H258 C244 0.960 . S
H259 C245 0.961 . S
H260 C245 0.961 . S
H261 C245 0.961 . S
H262 C246 0.931 . S
H263 C251 0.930 . S
H264 C252 0.956 . S
H265 C252 0.961 . S
H266 C252 0.961 . S
H267 C253 0.958 . S
H268 C253 0.961 . S
H269 C253 0.960 . S
C270 C271 1.391 . S
C270 C272 1.394 . S
C270 H286 0.931 . S
C271 C270 1.391 . S
C271 C275 1.376 . S
C272 C270 1.394 . S
C272 C273 1.369 . S
C272 C276 1.531 . S
C273 C272 1.369 . S
C273 C274 1.422 . S
C273 C281 1.503 . S
C274 C273 1.422 . S
C274 C275 1.392 . S
C274 C277 1.499 1_554 S
C275 C271 1.376 . S
C275 C274 1.392 . S
C275 H287 0.929 1_554 S
C276 C272 1.531 . S
C276 H288 0.960 . S
C276 H289 0.962 . S
C276 H290 0.960 . S
C277 C274 1.499 1_556 S
C277 H291 0.961 . S
C277 H292 0.961 . S
C277 H293 0.961 . S
C278 C279 1.370 . S
C278 C280 1.363 . S
C278 H294 0.931 . S
C279 C278 1.370 . S
C279 C283 1.408 . S
C280 C278 1.363 . S
C280 C281 1.370 . S
C280 C284 1.524 . S
C281 C273 1.503 . S
C281 C280 1.370 . S
C281 C282 1.403 . S
C282 C281 1.403 . S
C282 C283 1.404 . S
C282 C285 1.539 . S
C283 C279 1.408 . S
C283 C282 1.404 . S
C283 H295 0.930 . S
C284 C280 1.524 . S
C284 H296 0.956 . S
C284 H297 0.961 1_554 S
C284 H298 0.961 1_554 S
C285 C282 1.539 . S
C285 H299 0.958 . S
C285 H300 0.961 . S
C285 H301 0.960 . S
H286 C270 0.931 . S
H287 C275 0.929 1_556 S
H288 C276 0.960 . S
H289 C276 0.962 . S
H290 C276 0.960 . S
H291 C277 0.961 . S
H292 C277 0.961 . S
H293 C277 0.961 . S
H294 C278 0.931 . S
H295 C283 0.930 . S
H296 C284 0.956 . S
H297 C284 0.961 1_556 S
H298 C284 0.961 1_556 S
H299 C285 0.958 . S
H300 C285 0.961 . S
H301 C285 0.960 . S
C302 C303 1.391 1_455 S
C302 C304 1.394 . S
C302 H318 0.931 . S
C303 C302 1.391 1_655 S
C303 C307 1.376 . S
C304 C302 1.394 . S
C304 C305 1.369 1_455 S
C304 C308 1.531 . S
C305 C304 1.369 1_655 S
C305 C306 1.410 . S
C305 C313 1.503 1_655 S
C306 C305 1.410 . S
C306 C307 1.392 . S
C306 C309 1.511 . S
C307 C303 1.376 . S
C307 C306 1.392 . S
C307 H319 0.929 . S
C308 C304 1.531 . S
C308 H320 0.960 . S
C308 H321 0.962 . S
C308 H322 0.960 . S
C309 C306 1.511 . S
C309 H323 0.961 . S
C309 H324 0.961 . S
C309 H325 0.961 . S
C310 C311 1.370 . S
C310 C312 1.363 1_455 S
C310 H326 0.931 . S
C311 C310 1.370 . S
C311 C315 1.408 . S
C312 C310 1.363 1_655 S
C312 C313 1.370 1_655 S
C312 C316 1.524 . S
C313 C305 1.503 1_455 S
C313 C312 1.370 1_455 S
C313 C314 1.403 . S
C314 C313 1.403 . S
C314 C315 1.404 . S
C314 C317 1.539 . S
C315 C311 1.408 . S
C315 C314 1.404 . S
C315 H327 0.930 . S
C316 C312 1.524 . S
C316 H328 0.956 . S
C316 H329 0.961 . S
C316 H330 0.961 . S
C317 C314 1.539 . S
C317 H331 0.958 . S
C317 H332 0.961 . S
C317 H333 0.960 . S
H318 C302 0.931 . S
H319 C307 0.929 . S
H320 C308 0.960 . S
H321 C308 0.962 . S
H322 C308 0.960 . S
H323 C309 0.961 . S
H324 C309 0.961 . S
H325 C309 0.961 . S
H326 C310 0.931 . S
H327 C315 0.930 . S
H328 C316 0.956 . S
H329 C316 0.961 . S
H330 C316 0.961 . S
H331 C317 0.958 . S
H332 C317 0.961 . S
H333 C317 0.960 . S
C334 C335 1.391 1_565 S
C334 C336 1.394 . S
C334 H350 0.931 . S
C335 C334 1.391 1_545 S
C335 C339 1.376 . S
C336 C334 1.394 . S
C336 C337 1.369 1_565 S
C336 C340 1.531 . S
C337 C336 1.369 1_545 S
C337 C338 1.410 . S
C337 C345 1.503 1_545 S
C338 C337 1.410 . S
C338 C339 1.392 . S
C338 C341 1.511 . S
C339 C335 1.376 . S
C339 C338 1.392 . S
C339 H351 0.929 . S
C340 C336 1.531 . S
C340 H352 0.960 . S
C340 H353 0.962 . S
C340 H354 0.960 . S
C341 C338 1.511 . S
C341 H355 0.961 . S
C341 H356 0.961 . S
C341 H357 0.961 . S
C342 C343 1.370 . S
C342 C344 1.363 . S
C342 H358 0.931 . S
C343 C342 1.370 . S
C343 C347 1.408 . S
C344 C342 1.363 . S
C344 C345 1.370 . S
C344 C348 1.524 . S
C345 C337 1.503 1_565 S
C345 C344 1.370 . S
C345 C346 1.403 . S
C346 C345 1.403 . S
C346 C347 1.404 . S
C346 C349 1.539 1_565 S
C347 C343 1.408 . S
C347 C346 1.404 . S
C347 H359 0.930 . S
C348 C344 1.524 . S
C348 H360 0.956 . S
C348 H361 0.961 1_565 S
C348 H362 0.961 . S
C349 C346 1.539 1_545 S
C349 H363 0.958 1_545 S
C349 H364 0.961 . S
C349 H365 0.960 . S
H350 C334 0.931 . S
H351 C339 0.929 . S
H352 C340 0.960 . S
H353 C340 0.962 . S
H354 C340 0.960 . S
H355 C341 0.961 . S
H356 C341 0.961 . S
H357 C341 0.961 . S
H358 C342 0.931 . S
H359 C347 0.930 . S
H360 C348 0.956 . S
H361 C348 0.961 1_545 S
H362 C348 0.961 . S
H363 C349 0.958 1_565 S
H364 C349 0.961 . S
H365 C349 0.960 . S
C366 C367 1.391 . S
C366 C368 1.394 . S
C366 H382 0.931 . S
C367 C366 1.391 . S
C367 C371 1.376 . S
C368 C366 1.394 . S
C368 C369 1.369 . S
C368 C372 1.531 . S
C369 C368 1.369 . S
C369 C370 1.410 . S
C369 C377 1.503 . S
C370 C369 1.410 . S
C370 C371 1.392 . S
C370 C373 1.511 . S
C371 C367 1.376 . S
C371 C370 1.392 . S
C371 H383 0.929 . S
C372 C368 1.531 . S
C372 H384 0.960 . S
C372 H385 0.962 . S
C372 H386 0.960 . S
C373 C370 1.511 . S
C373 H387 0.961 . S
C373 H388 0.961 . S
C373 H389 0.961 . S
C374 C375 1.370 . S
C374 C376 1.363 . S
C374 H390 0.931 . S
C375 C374 1.370 . S
C375 C379 1.408 . S
C376 C374 1.363 . S
C376 C377 1.370 . S
C376 C380 1.524 . S
C377 C369 1.503 . S
C377 C376 1.370 . S
C377 C378 1.403 . S
C378 C377 1.403 . S
C378 C379 1.404 . S
C378 C381 1.539 . S
C379 C375 1.408 . S
C379 C378 1.404 . S
C379 H391 0.930 . S
C380 C376 1.524 . S
C380 H392 0.956 . S
C380 H393 0.961 . S
C380 H394 0.961 . S
C381 C378 1.539 . S
C381 H395 0.958 . S
C381 H396 0.961 . S
C381 H397 0.960 . S
H382 C366 0.931 . S
H383 C371 0.929 . S
H384 C372 0.960 . S
H385 C372 0.962 . S
H386 C372 0.960 . S
H387 C373 0.961 . S
H388 C373 0.961 . S
H389 C373 0.961 . S
H390 C374 0.931 . S
H391 C379 0.930 . S
H392 C380 0.956 . S
H393 C380 0.961 . S
H394 C380 0.961 . S
H395 C381 0.958 . S
H396 C381 0.961 . S
H397 C381 0.960 . S
C398 C399 1.391 1_556 S
C398 C400 1.394 . S
C398 H414 0.931 . S
C399 C398 1.391 1_554 S
C399 C403 1.376 . S
C400 C398 1.394 . S
C400 C401 1.369 1_556 S
C400 C404 1.531 . S
C401 C400 1.369 1_554 S
C401 C402 1.410 1_655 S
C401 C409 1.503 1_655 S
C402 C401 1.410 1_455 S
C402 C403 1.392 1_455 S
C402 C405 1.511 . S
C403 C399 1.376 . S
C403 C402 1.392 1_655 S
C403 H415 0.929 1_655 S
C404 C400 1.531 . S
C404 H416 0.960 . S
C404 H417 0.962 . S
C404 H418 0.960 . S
C405 C402 1.511 . S
C405 H419 0.961 . S
C405 H420 0.961 . S
C405 H421 0.961 . S
C406 C407 1.370 . S
C406 C408 1.363 1_455 S
C406 H422 0.931 1_455 S
C407 C406 1.370 . S
C407 C411 1.408 1_554 S
C408 C406 1.363 1_655 S
C408 C409 1.370 1_655 S
C408 C412 1.524 . S
C409 C401 1.503 1_455 S
C409 C408 1.370 1_455 S
C409 C410 1.403 1_554 S
C410 C409 1.403 1_556 S
C410 C411 1.404 . S
C410 C413 1.539 . S
C411 C407 1.408 1_556 S
C411 C410 1.404 . S
C411 H423 0.930 . S
C412 C408 1.524 . S
C412 H424 0.956 . S
C412 H425 0.961 . S
C412 H426 0.961 . S
C413 C410 1.539 . S
C413 H427 0.958 . S
C413 H428 0.961 . S
C413 H429 0.960 . S
H414 C398 0.931 . S
H415 C403 0.929 1_455 S
H416 C404 0.960 . S
H417 C404 0.962 . S
H418 C404 0.960 . S
H419 C405 0.961 . S
H420 C405 0.961 . S
H421 C405 0.961 . S
H422 C406 0.931 1_655 S
H423 C411 0.930 . S
H424 C412 0.956 . S
H425 C412 0.961 . S
H426 C412 0.961 . S
H427 C413 0.958 . S
H428 C413 0.961 . S
H429 C413 0.960 . S
C430 C431 1.391 . S
C430 C432 1.394 . S
C430 H446 0.931 . S
C431 C430 1.391 . S
C431 C435 1.376 1_545 S
C432 C430 1.394 . S
C432 C433 1.369 . S
C432 C436 1.531 . S
C433 C432 1.369 . S
C433 C434 1.410 1_545 S
C433 C441 1.503 1_545 S
C434 C433 1.410 1_565 S
C434 C435 1.392 . S
C434 C437 1.511 . S
C435 C431 1.376 1_565 S
C435 C434 1.392 . S
C435 H447 0.929 . S
C436 C432 1.531 . S
C436 H448 0.960 . S
C436 H449 0.962 . S
C436 H450 0.960 . S
C437 C434 1.511 . S
C437 H451 0.961 . S
C437 H452 0.961 . S
C437 H453 0.961 . S
C438 C439 1.370 . S
C438 C440 1.363 . S
C438 H454 0.931 . S
C439 C438 1.370 . S
C439 C443 1.408 . S
C440 C438 1.363 . S
C440 C441 1.370 . S
C440 C444 1.524 . S
C441 C433 1.503 1_565 S
C441 C440 1.370 . S
C441 C442 1.403 . S
C442 C441 1.403 . S
C442 C443 1.404 . S
C442 C445 1.539 . S
C443 C439 1.408 . S
C443 C442 1.404 . S
C443 H455 0.930 . S
C444 C440 1.524 . S
C444 H456 0.956 1_565 S
C444 H457 0.961 . S
C444 H458 0.961 . S
C445 C442 1.539 . S
C445 H459 0.958 1_565 S
C445 H460 0.961 . S
C445 H461 0.960 . S
H446 C430 0.931 . S
H447 C435 0.929 . S
H448 C436 0.960 . S
H449 C436 0.962 . S
H450 C436 0.960 . S
H451 C437 0.961 . S
H452 C437 0.961 . S
H453 C437 0.961 . S
H454 C438 0.931 . S
H455 C443 0.930 . S
H456 C444 0.956 1_545 S
H457 C444 0.961 . S
H458 C444 0.961 . S
H459 C445 0.958 1_545 S
H460 C445 0.961 . S
H461 C445 0.960 . S
C79 C69 1.331 . S
C87 C3 1.325 . S
C111 C16 1.335 . S
C119 C10 1.332 . S
C143 C23 1.319 . S
C151 C31 1.322 . S
C175 C42 1.337 . S
C183 C30 1.331 . S
C207 C57 1.330 . S
C215 C49 1.322 . S
C239 C70 1.314 . S
C247 C56 1.318 . S
C271 C5 1.467 . S
C279 C44 1.447 . S
C303 C18 1.452 . S
C311 C55 1.448 . S
C335 C68 1.439 . S
C343 C29 1.453 . S
C367 C75 1.418 . S
C375 C36 1.423 . S
C399 C43 1.444 . S
C407 C4 1.424 . S
C431 C17 1.435 . S
C439 C62 1.431 . S
