# Generated by pormake.
# Topology cdt, (3)-cn, num edge types: 1
# Building blocks:
#     Node 0, Type 0, BuildingBlock: OLANEW_clean_sbu_2, # of connection points: 3
#     Node 1, Type 0, BuildingBlock: OLANEW_clean_sbu_2, # of connection points: 3
#     Node 2, Type 0, BuildingBlock: OLANEW_clean_sbu_2, # of connection points: 3
#     Node 3, Type 0, BuildingBlock: OLANEW_clean_sbu_2, # of connection points: 3
#     Node 4, Type 0, BuildingBlock: OLANEW_clean_sbu_2, # of connection points: 3
#     Node 5, Type 0, BuildingBlock: OLANEW_clean_sbu_2, # of connection points: 3
#     Node 6, Type 0, BuildingBlock: OLANEW_clean_sbu_2, # of connection points: 3
#     Node 7, Type 0, BuildingBlock: OLANEW_clean_sbu_2, # of connection points: 3
#     Edge 8, Type (0, 0), BuildingBlock: TEMPAE_clean_linker_10, # of connection points: 2
#     Edge 9, Type (0, 0), BuildingBlock: TEMPAE_clean_linker_10, # of connection points: 2
#     Edge 10, Type (0, 0), BuildingBlock: TEMPAE_clean_linker_10, # of connection points: 2
#     Edge 11, Type (0, 0), BuildingBlock: TEMPAE_clean_linker_10, # of connection points: 2
#     Edge 12, Type (0, 0), BuildingBlock: TEMPAE_clean_linker_10, # of connection points: 2
#     Edge 13, Type (0, 0), BuildingBlock: TEMPAE_clean_linker_10, # of connection points: 2
#     Edge 14, Type (0, 0), BuildingBlock: TEMPAE_clean_linker_10, # of connection points: 2
#     Edge 15, Type (0, 0), BuildingBlock: TEMPAE_clean_linker_10, # of connection points: 2
#     Edge 16, Type (0, 0), BuildingBlock: TEMPAE_clean_linker_10, # of connection points: 2
#     Edge 17, Type (0, 0), BuildingBlock: TEMPAE_clean_linker_10, # of connection points: 2
#     Edge 18, Type (0, 0), BuildingBlock: TEMPAE_clean_linker_10, # of connection points: 2
#     Edge 19, Type (0, 0), BuildingBlock: TEMPAE_clean_linker_10, # of connection points: 2
# Relax obj value: 0.002
# Max RMSD: 0.035
# Mean RMSD: 0.035
data_MOF--net-cdt--node1-OLANEW_clean_sbu_2--edge1-TEMPAE_clean_linker_10
_symmetry_space_group_name_H-M    P1
_symmetry_Int_Tables_number       1
_symmetry_cell_setting            triclinic
loop_
_symmetry_equiv_pos_as_xyz
'x, y, z'
_cell_length_a     43.05187
_cell_length_b     21.682909
_cell_length_c     48.762442
_cell_angle_alpha  90.008938
_cell_angle_beta   89.97929
_cell_angle_gamma 90.027751
loop_
_atom_site_label
_atom_site_type_symbol
_atom_site_fract_x
_atom_site_fract_y
_atom_site_fract_z
_atom_type_partial_charge
O0 O 0.40589 0.22995 0.13567 0.0
Cd1 Cd 0.38795 0.2114 0.08882 0.0
O2 O 0.44393 0.16234 0.13582 0.0
Cd3 Cd 0.42513 0.12363 0.09796 0.0
O4 O 0.3829 0.07984 0.08247 0.0
C5 C 0.36295 0.07122 0.1013 0.0
O6 O 0.37003 0.08818 0.12642 0.0
C7 C 0.42893 0.20519 0.14774 0.0
C8 C 0.40532 0.30836 0.0545 0.0
O9 O 0.38052 0.31115 0.06899 0.0
O10 O 0.42188 0.25935 0.05604 0.0
O11 O 0.05058 0.78415 0.13421 0.0
Cd12 Cd 0.07193 0.79699 0.08807 0.0
O13 O 0.05742 0.88116 0.14582 0.0
Cd14 Cd 0.08223 0.90486 0.1082 0.0
O15 O 0.12554 0.93603 0.08941 0.0
C16 C 0.14809 0.89839 0.08767 0.0
O17 O 0.14362 0.84077 0.09505 0.0
C18 C 0.04796 0.82723 0.15176 0.0
C19 C 0.05747 0.69606 0.05499 0.0
O20 O 0.08083 0.69485 0.07126 0.0
O21 O 0.04099 0.74524 0.05418 0.0
O22 O 0.43489 0.27721 0.36466 0.0
Cd23 Cd 0.43039 0.30444 0.41317 0.0
O24 O 0.4511 0.37 0.35347 0.0
Cd25 Cd 0.43297 0.40895 0.39157 0.0
O26 O 0.39164 0.45004 0.41013 0.0
C27 C 0.36786 0.41604 0.4135 0.0
O28 O 0.37007 0.3569 0.40796 0.0
C29 C 0.44596 0.31416 0.34689 0.0
C30 C 0.44612 0.20512 0.44661 0.0
O31 O 0.41758 0.21799 0.44177 0.0
O32 O 0.46708 0.23933 0.43581 0.0
O33 O 0.02961 0.70488 0.36632 0.0
Cd34 Cd 0.04082 0.67768 0.41393 0.0
O35 O 0.07949 0.69989 0.35675 0.0
Cd36 Cd 0.09747 0.66796 0.39614 0.0
O37 O 0.13894 0.62466 0.41338 0.0
C38 C 0.15768 0.60675 0.39487 0.0
O39 O 0.14993 0.61528 0.36908 0.0
C40 C 0.05172 0.71044 0.3492 0.0
C41 C 0.0369 0.78035 0.44821 0.0
O42 O 0.06172 0.76874 0.43464 0.0
O43 O 0.01389 0.74324 0.44567 0.0
O44 O 0.49046 0.77536 0.86408 0.0
Cd45 Cd 0.47494 0.78758 0.91199 0.0
O46 O 0.5399 0.78467 0.87434 0.0
Cd47 Cd 0.58833 0.79938 0.86248 0.0
O48 O 0.63477 0.83746 0.85611 0.0
C49 C 0.64149 0.8674 0.83449 0.0
O50 O 0.62036 0.87331 0.81522 0.0
C51 C 0.51869 0.77736 0.85654 0.0
C52 C 0.46354 0.67646 0.93903 0.0
O53 O 0.44266 0.70182 0.92408 0.0
O54 O 0.49002 0.70322 0.94092 0.0
O55 O 0.98905 0.21487 0.86797 0.0
Cd56 Cd 0.99475 0.20508 0.91764 0.0
O57 O 0.93836 0.20469 0.86993 0.0
Cd58 Cd 0.89277 0.18882 0.85146 0.0
O59 O 0.84725 0.14864 0.84267 0.0
C60 C 0.84574 0.09544 0.83177 0.0
O61 O 0.87168 0.06737 0.82498 0.0
C62 C 0.96295 0.21193 0.85589 0.0
C63 C 0.00622 0.31712 0.94389 0.0
O64 O 0.02824 0.28677 0.93247 0.0
O65 O 0.97867 0.29483 0.94269 0.0
O66 O 0.52767 0.74452 0.63879 0.0
Cd67 Cd 0.53638 0.74071 0.58932 0.0
O68 O 0.57822 0.7364 0.64134 0.0
Cd69 Cd 0.62203 0.71925 0.66251 0.0
O70 O 0.66587 0.67014 0.66783 0.0
C71 C 0.66963 0.624 0.65209 0.0
O72 O 0.64736 0.60981 0.63477 0.0
C73 C 0.55213 0.74147 0.65328 0.0
C74 C 0.51255 0.84241 0.5615 0.0
O75 O 0.49753 0.79138 0.56223 0.0
O76 O 0.53862 0.84549 0.57411 0.0
O77 O 0.01632 0.25822 0.64578 0.0
Cd78 Cd 0.03337 0.26835 0.59819 0.0
O79 O 0.96723 0.27061 0.63489 0.0
Cd80 Cd 0.91905 0.28879 0.64638 0.0
O81 O 0.87459 0.33466 0.65328 0.0
C82 C 0.87086 0.38672 0.64177 0.0
O83 O 0.89352 0.40903 0.62666 0.0
C84 C 0.98802 0.26205 0.65296 0.0
C85 C 0.03023 0.15855 0.56852 0.0
O86 O 0.05352 0.17054 0.58398 0.0
O87 O 0.00819 0.19819 0.5673 0.0
C88 C 0.31125 0.03351 0.11706 0.0
C89 C 0.33214 0.04371 0.09546 0.0
C90 C 0.28174 0.00853 0.11229 0.0
C91 C 0.27274 0.99332 0.08521 0.0
C92 C 0.29372 0.00311 0.06325 0.0
C93 C 0.32324 0.02821 0.06864 0.0
C94 C 0.2601 0.9987 0.13632 0.0
C95 C 0.28489 0.98741 0.03412 0.0
C96 C 0.20537 0.88096 0.08355 0.0
C97 C 0.17992 0.92121 0.08195 0.0
C98 C 0.23594 0.90342 0.08276 0.0
C99 C 0.24117 0.96764 0.08028 0.0
C100 C 0.21565 0.00797 0.07667 0.0
C101 C 0.18531 0.98427 0.07754 0.0
C102 C 0.26254 0.85884 0.08649 0.0
C103 C 0.22025 0.0767 0.07379 0.0
H104 H 0.31789 0.04521 0.13786 0.0
H105 H 0.33925 0.036 0.05184 0.0
H106 H 0.23851 0.02579 0.13335 0.0
H107 H 0.25336 0.9494 0.13764 0.0
H108 H 0.27076 0.01252 0.15614 0.0
H109 H 0.30402 0.99689 0.01941 0.0
H110 H 0.27847 0.93797 0.03264 0.0
H111 H 0.26422 0.01455 0.02792 0.0
H112 H 0.20147 0.83209 0.0867 0.0
H113 H 0.16582 0.0157 0.07602 0.0
H114 H 0.27273 0.86507 0.10721 0.0
H115 H 0.28117 0.86806 0.07132 0.0
H116 H 0.25497 0.81007 0.08439 0.0
H117 H 0.22803 0.09611 0.09369 0.0
H118 H 0.19855 0.10062 0.06757 0.0
H119 H 0.23859 0.08686 0.05846 0.0
C120 C 0.33357 0.50827 0.41997 0.0
C121 C 0.33703 0.44396 0.41893 0.0
C122 C 0.30397 0.53544 0.42027 0.0
C123 C 0.27724 0.49739 0.41958 0.0
C124 C 0.2806 0.4325 0.42064 0.0
C125 C 0.31046 0.40656 0.4203 0.0
C126 C 0.30138 0.60484 0.41931 0.0
C127 C 0.2527 0.3903 0.42014 0.0
C128 C 0.19728 0.56978 0.42907 0.0
C129 C 0.18792 0.578 0.40174 0.0
C130 C 0.22629 0.54339 0.43535 0.0
C131 C 0.24627 0.52494 0.41379 0.0
C132 C 0.23682 0.53286 0.38622 0.0
C133 C 0.20783 0.5592 0.38056 0.0
C134 C 0.2356 0.53548 0.46497 0.0
C135 C 0.2574 0.51372 0.36258 0.0
H136 H 0.35394 0.53759 0.41916 0.0
H137 H 0.31288 0.35682 0.41982 0.0
H138 H 0.29358 0.61927 0.3986 0.0
H139 H 0.2838 0.62137 0.43424 0.0
H140 H 0.32389 0.62781 0.42377 0.0
H141 H 0.25899 0.34183 0.425 0.0
H142 H 0.23486 0.40608 0.43498 0.0
H143 H 0.24201 0.39137 0.39945 0.0
H144 H 0.18203 0.58417 0.44556 0.0
H145 H 0.20084 0.56525 0.35938 0.0
H146 H 0.25721 0.56176 0.46914 0.0
H147 H 0.24066 0.48624 0.46925 0.0
H148 H 0.21726 0.55143 0.47935 0.0
H149 H 0.27981 0.53891 0.36359 0.0
H150 H 0.24654 0.5229 0.34233 0.0
H151 H 0.2627 0.46376 0.364 0.0
C152 C 0.78801 0.09137 0.83815 0.0
C153 C 0.81546 0.06345 0.82885 0.0
C154 C 0.75956 0.05971 0.83743 0.0
C155 C 0.7585 0.9987 0.82712 0.0
C156 C 0.78593 0.97094 0.81692 0.0
C157 C 0.81407 0.00363 0.81792 0.0
C158 C 0.7308 0.09093 0.84846 0.0
C159 C 0.78571 0.90605 0.80566 0.0
C160 C 0.69361 0.89583 0.85344 0.0
C161 C 0.67206 0.89849 0.83189 0.0
C162 C 0.72195 0.92764 0.85197 0.0
C163 C 0.72902 0.96288 0.82834 0.0
C164 C 0.70767 0.96485 0.80628 0.0
C165 C 0.67942 0.93267 0.80833 0.0
C166 C 0.74412 0.92435 0.87593 0.0
C167 C 0.71447 0.00171 0.78071 0.0
H168 H 0.78881 0.13761 0.84656 0.0
H169 H 0.83512 0.98172 0.81059 0.0
H170 H 0.71206 0.09008 0.83286 0.0
H171 H 0.72216 0.0655 0.86667 0.0
H172 H 0.7352 0.13959 0.85446 0.0
H173 H 0.80858 0.8925 0.797 0.0
H174 H 0.77954 0.87313 0.82221 0.0
H175 H 0.76782 0.90155 0.78942 0.0
H176 H 0.68817 0.86953 0.87173 0.0
H177 H 0.66296 0.93491 0.79155 0.0
H178 H 0.74779 0.97117 0.88453 0.0
H179 H 0.76706 0.90709 0.869 0.0
H180 H 0.73546 0.89377 0.89255 0.0
H181 H 0.71682 0.05126 0.78599 0.0
H182 H 0.69595 0.99675 0.76499 0.0
H183 H 0.73687 0.98679 0.77162 0.0
C184 C 0.70312 0.53948 0.63369 0.0
C185 C 0.69882 0.5878 0.65245 0.0
C186 C 0.73093 0.50591 0.63297 0.0
C187 C 0.75505 0.5208 0.65154 0.0
C188 C 0.75071 0.56878 0.67086 0.0
C189 C 0.72265 0.60183 0.67106 0.0
C190 C 0.73471 0.45519 0.61199 0.0
C191 C 0.77588 0.58578 0.69105 0.0
C192 C 0.81788 0.40007 0.66235 0.0
C193 C 0.84148 0.42157 0.64495 0.0
C194 C 0.7898 0.43247 0.6651 0.0
C195 C 0.78519 0.48746 0.64998 0.0
C196 C 0.80902 0.50966 0.63259 0.0
C197 C 0.83689 0.47655 0.63034 0.0
C198 C 0.76493 0.40753 0.68392 0.0
C199 C 0.80492 0.56796 0.61603 0.0
H200 H 0.68485 0.52823 0.61924 0.0
H201 H 0.71948 0.63897 0.68568 0.0
H202 H 0.75423 0.46642 0.59798 0.0
H203 H 0.74055 0.41112 0.62232 0.0
H204 H 0.71341 0.44822 0.59951 0.0
H205 H 0.7684 0.62255 0.70547 0.0
H206 H 0.78285 0.54463 0.70308 0.0
H207 H 0.79678 0.60203 0.67985 0.0
H208 H 0.82128 0.35776 0.67379 0.0
H209 H 0.85498 0.49356 0.61685 0.0
H210 H 0.74381 0.39623 0.6719 0.0
H211 H 0.75827 0.44306 0.69921 0.0
H212 H 0.77258 0.36544 0.69501 0.0
H213 H 0.78511 0.56251 0.60168 0.0
H214 H 0.82599 0.5798 0.60397 0.0
H215 H 0.79936 0.60717 0.62979 0.0
C216 C 0.40187 0.41924 0.04098 0.0
C217 C 0.41468 0.36056 0.03677 0.0
C218 C 0.41078 0.46954 0.02468 0.0
C219 C 0.43258 0.4607 0.00329 0.0
C220 C 0.44537 0.40142 0.99875 0.0
C221 C 0.4365 0.35214 0.01574 0.0
C222 C 0.39701 0.53227 0.03048 0.0
C223 C 0.46825 0.39 0.97582 0.0
C224 C 0.43147 0.58202 0.94711 0.0
C225 C 0.45685 0.61911 0.95439 0.0
C226 C 0.42394 0.5291 0.96232 0.0
C227 C 0.44183 0.51369 0.98569 0.0
C228 C 0.46774 0.55052 0.99291 0.0
C229 C 0.47513 0.60247 0.977 0.0
C230 C 0.39652 0.49028 0.95364 0.0
C231 C 0.48708 0.53616 0.01795 0.0
H232 H 0.38516 0.42612 0.05733 0.0
H233 H 0.44636 0.3068 0.01232 0.0
H234 H 0.41583 0.56599 0.03463 0.0
H235 H 0.38409 0.54897 0.01227 0.0
H236 H 0.38094 0.53167 0.04831 0.0
H237 H 0.47565 0.34098 0.97473 0.0
H238 H 0.45771 0.40308 0.95589 0.0
H239 H 0.48915 0.41921 0.97868 0.0
H240 H 0.41741 0.59442 0.92952 0.0
H241 H 0.49469 0.63114 0.98279 0.0
H242 H 0.37824 0.49201 0.96965 0.0
H243 H 0.40364 0.44135 0.95142 0.0
H244 H 0.38632 0.50612 0.93394 0.0
H245 H 0.47238 0.53905 0.0366 0.0
H246 H 0.50698 0.56834 0.02032 0.0
H247 H 0.49616 0.48838 0.01677 0.0
C248 C 0.99203 0.3966 0.97884 0.0
C249 C 0.01262 0.37532 0.95868 0.0
C250 C 0.99871 0.4498 0.99417 0.0
C251 C 0.0263 0.48325 0.98873 0.0
C252 C 0.0467 0.46299 0.9678 0.0
C253 C 0.0398 0.40882 0.95325 0.0
C254 C 0.97669 0.46926 0.01667 0.0
C255 C 0.07598 0.49818 0.96099 0.0
C256 C 0.03088 0.64851 0.01455 0.0
C257 C 0.04962 0.64193 0.03788 0.0
C258 C 0.02341 0.59739 0.99812 0.0
C259 C 0.03437 0.53817 0.00559 0.0
C260 C 0.05305 0.53123 0.02929 0.0
C261 C 0.06074 0.58331 0.04496 0.0
C262 C 0.00399 0.60679 0.97268 0.0
C263 C 0.06468 0.46869 0.03823 0.0
H264 H 0.97108 0.37064 0.98321 0.0
H265 H 0.05567 0.39278 0.93753 0.0
H266 H 0.98893 0.4686 0.03669 0.0
H267 H 0.96868 0.51721 0.01315 0.0
H268 H 0.95603 0.4387 0.01805 0.0
H269 H 0.08837 0.47844 0.94303 0.0
H270 H 0.07035 0.54712 0.95658 0.0
H271 H 0.09193 0.49769 0.97884 0.0
H272 H 0.02238 0.69382 0.00891 0.0
H273 H 0.07506 0.57794 0.06309 0.0
H274 H 0.98218 0.57975 0.97422 0.0
H275 H 0.01674 0.58968 0.95442 0.0
H276 H 0.99794 0.65603 0.96936 0.0
H277 H 0.04477 0.43696 0.04139 0.0
H278 H 0.07835 0.47099 0.05753 0.0
H279 H 0.07951 0.44834 0.02198 0.0
C280 C 0.43447 0.13081 0.48442 0.0
C281 C 0.4547 0.15201 0.46396 0.0
C282 C 0.4427 0.08098 0.50132 0.0
C283 C 0.47142 0.05062 0.49704 0.0
C284 C 0.49168 0.07128 0.47607 0.0
C285 C 0.48326 0.12234 0.46006 0.0
C286 C 0.4209 0.06135 0.52395 0.0
C287 C 0.52213 0.03913 0.4704 0.0
C288 C 0.50946 0.95583 0.55321 0.0
C289 C 0.50064 0.8958 0.54593 0.0
C290 C 0.4992 0.00687 0.53802 0.0
C291 C 0.48047 0.99738 0.51452 0.0
C292 C 0.47139 0.93681 0.50717 0.0
C293 C 0.48123 0.88676 0.52323 0.0
C294 C 0.50866 0.07087 0.54694 0.0
C295 C 0.4521 0.9247 0.48187 0.0
H296 H 0.41245 0.15401 0.48758 0.0
H297 H 0.49883 0.13837 0.44409 0.0
H298 H 0.4136 0.0128 0.52082 0.0
H299 H 0.43303 0.06359 0.54401 0.0
H300 H 0.39979 0.09072 0.52498 0.0
H301 H 0.53464 0.05947 0.45264 0.0
H302 H 0.53737 0.04194 0.48868 0.0
H303 H 0.51795 0.98951 0.46621 0.0
H304 H 0.52428 0.96292 0.5709 0.0
H305 H 0.47456 0.84031 0.51746 0.0
H306 H 0.48784 0.10065 0.54903 0.0
H307 H 0.52382 0.09208 0.53115 0.0
H308 H 0.52135 0.07062 0.56678 0.0
H309 H 0.42995 0.95066 0.48297 0.0
H310 H 0.44671 0.87496 0.47917 0.0
H311 H 0.46472 0.94121 0.46343 0.0
C312 C 0.00997 0.09736 0.5289 0.0
C313 C 0.02929 0.10139 0.55197 0.0
C314 C 0.01023 0.04479 0.51208 0.0
C315 C 0.0298 0.99458 0.51885 0.0
C316 C 0.04867 0.99769 0.54259 0.0
C317 C 0.04844 0.05135 0.5587 0.0
C318 C 0.99018 0.04365 0.48667 0.0
C319 C 0.06936 0.9446 0.5508 0.0
C320 C 0.01229 0.83841 0.48689 0.0
C321 C 0.03489 0.83513 0.46622 0.0
C322 C 0.01049 0.88984 0.50434 0.0
C323 C 0.03135 0.93964 0.50061 0.0
C324 C 0.05392 0.9369 0.47952 0.0
C325 C 0.05563 0.88438 0.46277 0.0
C326 C 0.9865 0.89059 0.52694 0.0
C327 C 0.0762 0.98957 0.47456 0.0
H328 H 0.99524 0.13606 0.52353 0.0
H329 H 0.06325 0.05406 0.57663 0.0
H330 H 0.00507 0.03899 0.4682 0.0
H331 H 0.97447 0.00311 0.48713 0.0
H332 H 0.97589 0.08602 0.48454 0.0
H333 H 0.08121 0.95289 0.5707 0.0
H334 H 0.05552 0.90156 0.55241 0.0
H335 H 0.0873 0.93692 0.53483 0.0
H336 H 0.99631 0.80029 0.48973 0.0
H337 H 0.073 0.88225 0.44669 0.0
H338 H 0.97078 0.93067 0.52434 0.0
H339 H 0.99813 0.89588 0.54711 0.0
H340 H 0.97227 0.84784 0.52732 0.0
H341 H 0.06305 0.03276 0.4708 0.0
H342 H 0.09174 0.98098 0.45678 0.0
H343 H 0.09075 0.99718 0.49302 0.0
C344 C 0.43717 0.23828 0.30903 0.0
C345 C 0.45033 0.29384 0.31812 0.0
C346 C 0.43743 0.22233 0.28114 0.0
C347 C 0.45154 0.26251 0.26192 0.0
C348 C 0.46656 0.31672 0.27118 0.0
C349 C 0.46559 0.33198 0.29916 0.0
C350 C 0.42095 0.1643 0.27207 0.0
C351 C 0.48232 0.36018 0.25139 0.0
C352 C 0.46287 0.20007 0.18964 0.0
C353 C 0.43653 0.22351 0.17626 0.0
C354 C 0.4687 0.21386 0.21735 0.0
C355 C 0.44746 0.25122 0.23204 0.0
C356 C 0.42126 0.27608 0.21846 0.0
C357 C 0.41625 0.26227 0.19075 0.0
C358 C 0.49715 0.18741 0.23106 0.0
C359 C 0.39791 0.31578 0.23343 0.0
H360 H 0.42538 0.20846 0.32352 0.0
H361 H 0.4761 0.3747 0.30605 0.0
H362 H 0.40008 0.17677 0.25993 0.0
H363 H 0.43623 0.13636 0.25863 0.0
H364 H 0.4135 0.1354 0.2897 0.0
H365 H 0.49635 0.39577 0.26212 0.0
H366 H 0.49766 0.33427 0.23719 0.0
H367 H 0.46453 0.38386 0.23875 0.0
H368 H 0.47874 0.17029 0.17857 0.0
H369 H 0.39581 0.28059 0.18066 0.0
H370 H 0.49004 0.15406 0.24713 0.0
H371 H 0.51052 0.22454 0.24135 0.0
H372 H 0.51264 0.16341 0.21629 0.0
H373 H 0.38721 0.28903 0.25038 0.0
H374 H 0.37912 0.33259 0.21973 0.0
H375 H 0.40966 0.35624 0.24272 0.0
C376 C 0.07055 0.73133 0.30172 0.0
C377 C 0.04572 0.72855 0.32033 0.0
C378 C 0.06591 0.74815 0.27432 0.0
C379 C 0.03562 0.76279 0.26512 0.0
C380 C 0.01034 0.76001 0.28366 0.0
C381 C 0.01568 0.74286 0.31111 0.0
C382 C 0.09356 0.75043 0.25523 0.0
C383 C 0.97776 0.77535 0.27453 0.0
C384 C 0.03895 0.85887 0.2005 0.0
C385 C 0.03784 0.81306 0.18017 0.0
C386 C 0.03568 0.84384 0.22834 0.0
C387 C 0.03111 0.78155 0.23603 0.0
C388 C 0.02721 0.73601 0.21551 0.0
C389 C 0.03066 0.75229 0.1878 0.0
C390 C 0.03978 0.8939 0.24956 0.0
C391 C 0.02198 0.66916 0.22284 0.0
H392 H 0.09386 0.72025 0.30854 0.0
H393 H 0.99635 0.74081 0.32533 0.0
H394 H 0.08983 0.71879 0.23765 0.0
H395 H 0.09627 0.79765 0.2468 0.0
H396 H 0.11555 0.73727 0.26561 0.0
H397 H 0.96054 0.76991 0.29133 0.0
H398 H 0.97683 0.82358 0.26699 0.0
H399 H 0.9709 0.74511 0.2572 0.0
H400 H 0.04414 0.90611 0.19484 0.0
H401 H 0.0294 0.71663 0.17226 0.0
H402 H 0.06288 0.88889 0.25941 0.0
H403 H 0.02198 0.88981 0.26591 0.0
H404 H 0.03831 0.94072 0.24041 0.0
H405 H 0.04394 0.64915 0.23073 0.0
H406 H 0.01436 0.64157 0.20485 0.0
H407 H 0.0043 0.66482 0.23928 0.0
C408 C 0.52726 0.7093 0.6971 0.0
C409 C 0.55013 0.74329 0.68341 0.0
C410 C 0.52427 0.71264 0.72572 0.0
C411 C 0.54377 0.75299 0.74076 0.0
C412 C 0.56699 0.78736 0.72695 0.0
C413 C 0.57025 0.7812 0.69842 0.0
C414 C 0.49998 0.67361 0.7398 0.0
C415 C 0.5875 0.83244 0.74211 0.0
C416 C 0.50957 0.80814 0.80814 0.0
C417 C 0.52642 0.77344 0.82719 0.0
C418 C 0.51587 0.80365 0.77999 0.0
C419 C 0.5387 0.76151 0.77069 0.0
C420 C 0.55578 0.72626 0.78995 0.0
C421 C 0.54978 0.73349 0.81808 0.0
C422 C 0.49793 0.84367 0.76021 0.0
C423 C 0.57956 0.67943 0.7808 0.0
H424 H 0.51185 0.67974 0.6854 0.0
H425 H 0.5877 0.808 0.68768 0.0
H426 H 0.51057 0.64756 0.75701 0.0
H427 H 0.48167 0.70365 0.74861 0.0
H428 H 0.48882 0.64036 0.72553 0.0
H429 H 0.60486 0.85463 0.72843 0.0
H430 H 0.57296 0.86898 0.75156 0.0
H431 H 0.59998 0.80884 0.75899 0.0
H432 H 0.49162 0.8393 0.81532 0.0
H433 H 0.56254 0.70623 0.83293 0.0
H434 H 0.48303 0.81445 0.74697 0.0
H435 H 0.51419 0.86896 0.74659 0.0
H436 H 0.48292 0.87767 0.77093 0.0
H437 H 0.56815 0.64374 0.76795 0.0
H438 H 0.59113 0.65635 0.79838 0.0
H439 H 0.59758 0.70179 0.76794 0.0
C440 C 0.95598 0.21873 0.69094 0.0
C441 C 0.97977 0.25814 0.6822 0.0
C442 C 0.95006 0.21004 0.71902 0.0
C443 C 0.96774 0.24318 0.7386 0.0
C444 C 0.99076 0.28538 0.72968 0.0
C445 C 0.99692 0.29139 0.70157 0.0
C446 C 0.92604 0.16323 0.72772 0.0
C447 C 0.00943 0.32308 0.74984 0.0
C448 C 0.94076 0.25505 0.81271 0.0
C449 C 0.96175 0.21543 0.82576 0.0
C450 C 0.94196 0.26388 0.78417 0.0
C451 C 0.964 0.23068 0.76842 0.0
C452 C 0.9841 0.18817 0.78149 0.0
C453 C 0.98315 0.18202 0.81009 0.0
C454 C 0.92082 0.31099 0.77112 0.0
C455 C 0.00722 0.15035 0.76536 0.0
H456 H 0.94297 0.1926 0.67585 0.0
H457 H 0.0152 0.32214 0.69468 0.0
H458 H 0.93766 0.12454 0.73851 0.0
H459 H 0.90934 0.18407 0.74234 0.0
H460 H 0.91292 0.14427 0.71 0.0
H461 H 0.02392 0.35855 0.7395 0.0
H462 H 0.99375 0.34641 0.76464 0.0
H463 H 0.02496 0.29236 0.76178 0.0
H464 H 0.92445 0.28133 0.82498 0.0
H465 H 0.99923 0.15112 0.82029 0.0
H466 H 0.90816 0.29045 0.75355 0.0
H467 H 0.93495 0.34968 0.76296 0.0
H468 H 0.90362 0.32988 0.78589 0.0
H469 H 0.99553 0.12723 0.74788 0.0
H470 H 0.0187 0.1147 0.7782 0.0
H471 H 0.02542 0.18096 0.75674 0.0
loop_
_geom_bond_atom_site_label_1
_geom_bond_atom_site_label_2
_geom_bond_distance
_geom_bond_site_symmetry_2
_ccdc_geom_bond_type
O0 Cd1 2.300 . S
O0 C7 1.275 . S
Cd1 O0 2.300 . S
Cd1 O9 2.381 . S
Cd1 O10 2.378 . S
O2 Cd3 2.385 . S
O2 C7 1.255 . S
Cd3 O2 2.385 . S
Cd3 O4 2.317 . S
O4 Cd3 2.317 . S
O4 C5 1.232 . S
C5 O4 1.232 . S
C5 O6 1.218 . S
O6 C5 1.218 . S
C7 O0 1.275 . S
C7 O2 1.255 . S
C8 O9 1.258 . S
C8 O10 1.256 . S
O9 Cd1 2.381 . S
O9 C8 1.258 . S
O10 Cd1 2.378 . S
O10 C8 1.256 . S
O11 Cd12 2.300 . S
O11 C18 1.275 . S
Cd12 O11 2.300 . S
Cd12 O20 2.381 . S
Cd12 O21 2.378 . S
O13 Cd14 2.385 . S
O13 C18 1.255 . S
Cd14 O13 2.385 . S
Cd14 O15 2.317 . S
O15 Cd14 2.317 . S
O15 C16 1.232 . S
C16 O15 1.232 . S
C16 O17 1.218 . S
O17 C16 1.218 . S
C18 O11 1.275 . S
C18 O13 1.255 . S
C19 O20 1.258 . S
C19 O21 1.256 . S
O20 Cd12 2.381 . S
O20 C19 1.258 . S
O21 Cd12 2.378 . S
O21 C19 1.256 . S
O22 Cd23 2.300 . S
O22 C29 1.275 . S
Cd23 O22 2.300 . S
Cd23 O31 2.381 . S
Cd23 O32 2.378 . S
O24 Cd25 2.385 . S
O24 C29 1.255 . S
Cd25 O24 2.385 . S
Cd25 O26 2.317 . S
O26 Cd25 2.317 . S
O26 C27 1.232 . S
C27 O26 1.232 . S
C27 O28 1.218 . S
O28 C27 1.218 . S
C29 O22 1.275 . S
C29 O24 1.255 . S
C30 O31 1.258 . S
C30 O32 1.256 . S
O31 Cd23 2.381 . S
O31 C30 1.258 . S
O32 Cd23 2.378 . S
O32 C30 1.256 . S
O33 Cd34 2.300 . S
O33 C40 1.275 . S
Cd34 O33 2.300 . S
Cd34 O42 2.381 . S
Cd34 O43 2.378 . S
O35 Cd36 2.385 . S
O35 C40 1.255 . S
Cd36 O35 2.385 . S
Cd36 O37 2.317 . S
O37 Cd36 2.317 . S
O37 C38 1.232 . S
C38 O37 1.232 . S
C38 O39 1.218 . S
O39 C38 1.218 . S
C40 O33 1.275 . S
C40 O35 1.255 . S
C41 O42 1.258 . S
C41 O43 1.256 . S
O42 Cd34 2.381 . S
O42 C41 1.258 . S
O43 Cd34 2.378 . S
O43 C41 1.256 . S
O44 Cd45 2.300 . S
O44 C51 1.275 . S
Cd45 O44 2.300 . S
Cd45 O53 2.381 . S
Cd45 O54 2.378 . S
O46 Cd47 2.385 . S
O46 C51 1.255 . S
Cd47 O46 2.385 . S
Cd47 O48 2.317 . S
O48 Cd47 2.317 . S
O48 C49 1.232 . S
C49 O48 1.232 . S
C49 O50 1.218 . S
O50 C49 1.218 . S
C51 O44 1.275 . S
C51 O46 1.255 . S
C52 O53 1.258 . S
C52 O54 1.256 . S
O53 Cd45 2.381 . S
O53 C52 1.258 . S
O54 Cd45 2.378 . S
O54 C52 1.256 . S
O55 Cd56 2.300 . S
O55 C62 1.275 . S
Cd56 O55 2.300 . S
Cd56 O64 2.381 . S
Cd56 O65 2.378 . S
O57 Cd58 2.385 . S
O57 C62 1.255 . S
Cd58 O57 2.385 . S
Cd58 O59 2.317 . S
O59 Cd58 2.317 . S
O59 C60 1.232 . S
C60 O59 1.232 . S
C60 O61 1.218 . S
O61 C60 1.218 . S
C62 O55 1.275 . S
C62 O57 1.255 . S
C63 O64 1.258 . S
C63 O65 1.256 . S
O64 Cd56 2.381 . S
O64 C63 1.258 . S
O65 Cd56 2.378 . S
O65 C63 1.256 . S
O66 Cd67 2.300 . S
O66 C73 1.275 . S
Cd67 O66 2.300 . S
Cd67 O75 2.381 . S
Cd67 O76 2.378 . S
O68 Cd69 2.385 . S
O68 C73 1.255 . S
Cd69 O68 2.385 . S
Cd69 O70 2.317 . S
O70 Cd69 2.317 . S
O70 C71 1.232 . S
C71 O70 1.232 . S
C71 O72 1.218 . S
O72 C71 1.218 . S
C73 O66 1.275 . S
C73 O68 1.255 . S
C74 O75 1.258 . S
C74 O76 1.256 . S
O75 Cd67 2.381 . S
O75 C74 1.258 . S
O76 Cd67 2.378 . S
O76 C74 1.256 . S
O77 Cd78 2.300 . S
O77 C84 1.275 . S
Cd78 O77 2.300 . S
Cd78 O86 2.381 . S
Cd78 O87 2.378 . S
O79 Cd80 2.385 . S
O79 C84 1.255 . S
Cd80 O79 2.385 . S
Cd80 O81 2.317 . S
O81 Cd80 2.317 . S
O81 C82 1.232 . S
C82 O81 1.232 . S
C82 O83 1.218 . S
O83 C82 1.218 . S
C84 O77 1.275 . S
C84 O79 1.255 . S
C85 O86 1.258 . S
C85 O87 1.256 . S
O86 Cd78 2.381 . S
O86 C85 1.258 . S
O87 Cd78 2.378 . S
O87 C85 1.256 . S
C88 C89 1.391 . S
C88 C90 1.394 . S
C88 H104 0.931 . S
C89 C88 1.391 . S
C89 C93 1.376 . S
C90 C88 1.394 . S
C90 C91 1.369 . S
C90 C94 1.531 . S
C91 C90 1.369 . S
C91 C92 1.410 . S
C91 C99 1.503 1_545 S
C92 C91 1.410 . S
C92 C93 1.392 . S
C92 C95 1.511 . S
C93 C89 1.376 . S
C93 C92 1.392 . S
C93 H105 0.929 . S
C94 C90 1.531 . S
C94 H106 0.960 . S
C94 H107 0.962 1_545 S
C94 H108 0.960 . S
C95 C92 1.511 . S
C95 H109 0.961 . S
C95 H110 0.961 . S
C95 H111 0.961 . S
C96 C97 1.370 . S
C96 C98 1.363 . S
C96 H112 0.931 . S
C97 C96 1.370 . S
C97 C101 1.408 . S
C98 C96 1.363 . S
C98 C99 1.370 . S
C98 C102 1.524 . S
C99 C91 1.503 1_565 S
C99 C98 1.370 . S
C99 C100 1.403 1_565 S
C100 C99 1.403 1_545 S
C100 C101 1.404 1_545 S
C100 C103 1.539 . S
C101 C97 1.408 . S
C101 C100 1.404 1_565 S
C101 H113 0.930 1_565 S
C102 C98 1.524 . S
C102 H114 0.956 . S
C102 H115 0.961 . S
C102 H116 0.961 . S
C103 C100 1.539 . S
C103 H117 0.958 . S
C103 H118 0.961 . S
C103 H119 0.960 . S
H104 C88 0.931 . S
H105 C93 0.929 . S
H106 C94 0.960 . S
H107 C94 0.962 1_565 S
H108 C94 0.960 . S
H109 C95 0.961 . S
H110 C95 0.961 . S
H111 C95 0.961 . S
H112 C96 0.931 . S
H113 C101 0.930 1_545 S
H114 C102 0.956 . S
H115 C102 0.961 . S
H116 C102 0.961 . S
H117 C103 0.958 . S
H118 C103 0.961 . S
H119 C103 0.960 . S
C120 C121 1.391 . S
C120 C122 1.394 . S
C120 H136 0.931 . S
C121 C120 1.391 . S
C121 C125 1.376 . S
C122 C120 1.394 . S
C122 C123 1.369 . S
C122 C126 1.531 . S
C123 C122 1.369 . S
C123 C124 1.410 . S
C123 C131 1.503 . S
C124 C123 1.410 . S
C124 C125 1.392 . S
C124 C127 1.511 . S
C125 C121 1.376 . S
C125 C124 1.392 . S
C125 H137 0.929 . S
C126 C122 1.531 . S
C126 H138 0.960 . S
C126 H139 0.962 . S
C126 H140 0.960 . S
C127 C124 1.511 . S
C127 H141 0.961 . S
C127 H142 0.961 . S
C127 H143 0.961 . S
C128 C129 1.370 . S
C128 C130 1.363 . S
C128 H144 0.931 . S
C129 C128 1.370 . S
C129 C133 1.408 . S
C130 C128 1.363 . S
C130 C131 1.370 . S
C130 C134 1.524 . S
C131 C123 1.503 . S
C131 C130 1.370 . S
C131 C132 1.403 . S
C132 C131 1.403 . S
C132 C133 1.404 . S
C132 C135 1.539 . S
C133 C129 1.408 . S
C133 C132 1.404 . S
C133 H145 0.930 . S
C134 C130 1.524 . S
C134 H146 0.956 . S
C134 H147 0.961 . S
C134 H148 0.961 . S
C135 C132 1.539 . S
C135 H149 0.958 . S
C135 H150 0.961 . S
C135 H151 0.960 . S
H136 C120 0.931 . S
H137 C125 0.929 . S
H138 C126 0.960 . S
H139 C126 0.962 . S
H140 C126 0.960 . S
H141 C127 0.961 . S
H142 C127 0.961 . S
H143 C127 0.961 . S
H144 C128 0.931 . S
H145 C133 0.930 . S
H146 C134 0.956 . S
H147 C134 0.961 . S
H148 C134 0.961 . S
H149 C135 0.958 . S
H150 C135 0.961 . S
H151 C135 0.960 . S
C152 C153 1.391 . S
C152 C154 1.394 . S
C152 H168 0.931 . S
C153 C152 1.391 . S
C153 C157 1.376 . S
C154 C152 1.394 . S
C154 C155 1.369 . S
C154 C158 1.531 . S
C155 C154 1.369 . S
C155 C156 1.410 1_545 S
C155 C163 1.503 1_545 S
C156 C155 1.410 1_565 S
C156 C157 1.392 1_565 S
C156 C159 1.511 . S
C157 C153 1.376 . S
C157 C156 1.392 1_545 S
C157 H169 0.929 1_545 S
C158 C154 1.531 . S
C158 H170 0.960 . S
C158 H171 0.962 . S
C158 H172 0.960 . S
C159 C156 1.511 . S
C159 H173 0.961 . S
C159 H174 0.961 . S
C159 H175 0.961 . S
C160 C161 1.370 . S
C160 C162 1.363 . S
C160 H176 0.931 . S
C161 C160 1.370 . S
C161 C165 1.408 . S
C162 C160 1.363 . S
C162 C163 1.370 . S
C162 C166 1.524 . S
C163 C155 1.503 1_565 S
C163 C162 1.370 . S
C163 C164 1.403 . S
C164 C163 1.403 . S
C164 C165 1.404 . S
C164 C167 1.539 1_565 S
C165 C161 1.408 . S
C165 C164 1.404 . S
C165 H177 0.930 . S
C166 C162 1.524 . S
C166 H178 0.956 . S
C166 H179 0.961 . S
C166 H180 0.961 . S
C167 C164 1.539 1_545 S
C167 H181 0.958 . S
C167 H182 0.961 1_545 S
C167 H183 0.960 . S
H168 C152 0.931 . S
H169 C157 0.929 1_565 S
H170 C158 0.960 . S
H171 C158 0.962 . S
H172 C158 0.960 . S
H173 C159 0.961 . S
H174 C159 0.961 . S
H175 C159 0.961 . S
H176 C160 0.931 . S
H177 C165 0.930 . S
H178 C166 0.956 . S
H179 C166 0.961 . S
H180 C166 0.961 . S
H181 C167 0.958 . S
H182 C167 0.961 1_565 S
H183 C167 0.960 . S
C184 C185 1.391 . S
C184 C186 1.394 . S
C184 H200 0.931 . S
C185 C184 1.391 . S
C185 C189 1.376 . S
C186 C184 1.394 . S
C186 C187 1.369 . S
C186 C190 1.531 . S
C187 C186 1.369 . S
C187 C188 1.410 . S
C187 C195 1.503 . S
C188 C187 1.410 . S
C188 C189 1.392 . S
C188 C191 1.511 . S
C189 C185 1.376 . S
C189 C188 1.392 . S
C189 H201 0.929 . S
C190 C186 1.531 . S
C190 H202 0.960 . S
C190 H203 0.962 . S
C190 H204 0.960 . S
C191 C188 1.511 . S
C191 H205 0.961 . S
C191 H206 0.961 . S
C191 H207 0.961 . S
C192 C193 1.370 . S
C192 C194 1.363 . S
C192 H208 0.931 . S
C193 C192 1.370 . S
C193 C197 1.408 . S
C194 C192 1.363 . S
C194 C195 1.370 . S
C194 C198 1.524 . S
C195 C187 1.503 . S
C195 C194 1.370 . S
C195 C196 1.403 . S
C196 C195 1.403 . S
C196 C197 1.404 . S
C196 C199 1.539 . S
C197 C193 1.408 . S
C197 C196 1.404 . S
C197 H209 0.930 . S
C198 C194 1.524 . S
C198 H210 0.956 . S
C198 H211 0.961 . S
C198 H212 0.961 . S
C199 C196 1.539 . S
C199 H213 0.958 . S
C199 H214 0.961 . S
C199 H215 0.960 . S
H200 C184 0.931 . S
H201 C189 0.929 . S
H202 C190 0.960 . S
H203 C190 0.962 . S
H204 C190 0.960 . S
H205 C191 0.961 . S
H206 C191 0.961 . S
H207 C191 0.961 . S
H208 C192 0.931 . S
H209 C197 0.930 . S
H210 C198 0.956 . S
H211 C198 0.961 . S
H212 C198 0.961 . S
H213 C199 0.958 . S
H214 C199 0.961 . S
H215 C199 0.960 . S
C216 C217 1.391 . S
C216 C218 1.394 . S
C216 H232 0.931 . S
C217 C216 1.391 . S
C217 C221 1.376 . S
C218 C216 1.394 . S
C218 C219 1.369 . S
C218 C222 1.531 . S
C219 C218 1.369 . S
C219 C220 1.410 . S
C219 C227 1.503 1_554 S
C220 C219 1.410 . S
C220 C221 1.392 . S
C220 C223 1.511 . S
C221 C217 1.376 . S
C221 C220 1.392 . S
C221 H233 0.929 . S
C222 C218 1.531 . S
C222 H234 0.960 . S
C222 H235 0.962 . S
C222 H236 0.960 . S
C223 C220 1.511 . S
C223 H237 0.968 . S
C223 H238 0.961 1_554 S
C223 H239 0.961 . S
C224 C225 1.370 . S
C224 C226 1.363 . S
C224 H240 0.931 . S
C225 C224 1.370 . S
C225 C229 1.408 . S
C226 C224 1.363 . S
C226 C227 1.370 . S
C226 C230 1.524 . S
C227 C219 1.503 1_556 S
C227 C226 1.370 . S
C227 C228 1.403 1_556 S
C228 C227 1.403 1_554 S
C228 C229 1.404 1_554 S
C228 C231 1.539 . S
C229 C225 1.408 . S
C229 C228 1.404 1_556 S
C229 H241 0.930 . S
C230 C226 1.524 . S
C230 H242 0.956 . S
C230 H243 0.961 . S
C230 H244 0.961 . S
C231 C228 1.539 . S
C231 H245 0.958 . S
C231 H246 0.961 . S
C231 H247 0.960 . S
H232 C216 0.931 . S
H233 C221 0.929 . S
H234 C222 0.960 . S
H235 C222 0.962 . S
H236 C222 0.960 . S
H237 C223 0.968 . S
H238 C223 0.961 1_556 S
H239 C223 0.961 . S
H240 C224 0.931 . S
H241 C229 0.930 . S
H242 C230 0.956 . S
H243 C230 0.961 . S
H244 C230 0.961 . S
H245 C231 0.958 . S
H246 C231 0.961 . S
H247 C231 0.960 . S
C248 C249 1.391 . S
C248 C250 1.394 . S
C248 H264 0.931 . S
C249 C248 1.391 . S
C249 C253 1.376 1_655 S
C250 C248 1.394 . S
C250 C251 1.369 . S
C250 C254 1.531 1_556 S
C251 C250 1.369 . S
C251 C252 1.410 1_655 S
C251 C259 1.503 1_656 S
C252 C251 1.410 1_455 S
C252 C253 1.392 . S
C252 C255 1.511 . S
C253 C249 1.376 1_455 S
C253 C252 1.392 . S
C253 H265 0.929 . S
C254 C250 1.531 1_554 S
C254 H266 0.960 . S
C254 H267 0.962 1_554 S
C254 H268 0.960 . S
C255 C252 1.511 . S
C255 H269 0.961 . S
C255 H270 0.961 . S
C255 H271 0.961 1_556 S
C256 C257 1.370 . S
C256 C258 1.363 1_554 S
C256 H272 0.931 . S
C257 C256 1.370 . S
C257 C261 1.408 . S
C258 C256 1.363 1_556 S
C258 C259 1.370 1_556 S
C258 C262 1.524 . S
C259 C251 1.503 1_454 S
C259 C258 1.370 1_554 S
C259 C260 1.403 . S
C260 C259 1.403 . S
C260 C261 1.404 . S
C260 C263 1.539 . S
C261 C257 1.408 . S
C261 C260 1.404 . S
C261 H273 0.930 . S
C262 C258 1.524 . S
C262 H274 0.956 1_455 S
C262 H275 0.961 . S
C262 H276 0.961 . S
C263 C260 1.539 . S
C263 H277 0.958 1_455 S
C263 H278 0.961 . S
C263 H279 0.960 . S
H264 C248 0.931 . S
H265 C253 0.929 . S
H266 C254 0.960 . S
H267 C254 0.962 1_556 S
H268 C254 0.960 . S
H269 C255 0.961 . S
H270 C255 0.961 . S
H271 C255 0.961 1_554 S
H272 C256 0.931 . S
H273 C261 0.930 . S
H274 C262 0.956 1_655 S
H275 C262 0.961 . S
H276 C262 0.961 . S
H277 C263 0.958 1_655 S
H278 C263 0.961 . S
H279 C263 0.960 . S
C280 C281 1.391 . S
C280 C282 1.394 . S
C280 H296 0.931 . S
C281 C280 1.391 . S
C281 C285 1.376 . S
C282 C280 1.394 . S
C282 C283 1.369 . S
C282 C286 1.531 . S
C283 C282 1.369 . S
C283 C284 1.410 . S
C283 C291 1.503 1_545 S
C284 C283 1.410 . S
C284 C285 1.392 . S
C284 C287 1.511 . S
C285 C281 1.376 . S
C285 C284 1.392 . S
C285 H297 0.929 . S
C286 C282 1.531 . S
C286 H298 0.960 1_545 S
C286 H299 0.962 . S
C286 H300 0.960 . S
C287 C284 1.511 . S
C287 H301 0.961 . S
C287 H302 0.961 . S
C287 H303 0.961 1_545 S
C288 C289 1.370 . S
C288 C290 1.363 . S
C288 H304 0.931 . S
C289 C288 1.370 . S
C289 C293 1.408 . S
C290 C288 1.363 . S
C290 C291 1.370 . S
C290 C294 1.524 1_565 S
C291 C283 1.503 1_565 S
C291 C290 1.370 . S
C291 C292 1.403 . S
C292 C291 1.403 . S
C292 C293 1.404 . S
C292 C295 1.539 . S
C293 C289 1.408 . S
C293 C292 1.404 . S
C293 H305 0.930 . S
C294 C290 1.524 1_545 S
C294 H306 0.956 . S
C294 H307 0.961 . S
C294 H308 0.961 . S
C295 C292 1.539 . S
C295 H309 0.958 . S
C295 H310 0.961 . S
C295 H311 0.960 . S
H296 C280 0.931 . S
H297 C285 0.929 . S
H298 C286 0.960 1_565 S
H299 C286 0.962 . S
H300 C286 0.960 . S
H301 C287 0.961 . S
H302 C287 0.961 . S
H303 C287 0.961 1_565 S
H304 C288 0.931 . S
H305 C293 0.930 . S
H306 C294 0.956 . S
H307 C294 0.961 . S
H308 C294 0.961 . S
H309 C295 0.958 . S
H310 C295 0.961 . S
H311 C295 0.960 . S
C312 C313 1.391 . S
C312 C314 1.394 . S
C312 H328 0.931 . S
C313 C312 1.391 . S
C313 C317 1.376 . S
C314 C312 1.394 . S
C314 C315 1.369 . S
C314 C318 1.531 . S
C315 C314 1.369 . S
C315 C316 1.410 1_655 S
C315 C323 1.503 1_645 S
C316 C315 1.410 1_455 S
C316 C317 1.392 1_455 S
C316 C319 1.511 . S
C317 C313 1.376 . S
C317 C316 1.392 1_655 S
C317 H329 0.929 1_655 S
C318 C314 1.531 . S
C318 H330 0.960 . S
C318 H331 0.962 . S
C318 H332 0.960 . S
C319 C316 1.511 . S
C319 H333 0.961 . S
C319 H334 0.961 1_545 S
C319 H335 0.961 . S
C320 C321 1.370 . S
C320 C322 1.363 1_455 S
C320 H336 0.931 1_455 S
C321 C320 1.370 . S
C321 C325 1.408 . S
C322 C320 1.363 1_655 S
C322 C323 1.370 1_655 S
C322 C326 1.524 . S
C323 C315 1.503 1_465 S
C323 C322 1.370 1_455 S
C323 C324 1.403 . S
C324 C323 1.403 . S
C324 C325 1.404 . S
C324 C327 1.539 1_565 S
C325 C321 1.408 . S
C325 C324 1.404 . S
C325 H337 0.930 . S
C326 C322 1.524 . S
C326 H338 0.956 . S
C326 H339 0.961 . S
C326 H340 0.961 . S
C327 C324 1.539 1_545 S
C327 H341 0.958 . S
C327 H342 0.961 . S
C327 H343 0.960 . S
H328 C312 0.931 . S
H329 C317 0.929 1_455 S
H330 C318 0.960 . S
H331 C318 0.962 . S
H332 C318 0.960 . S
H333 C319 0.961 . S
H334 C319 0.961 1_565 S
H335 C319 0.961 . S
H336 C320 0.931 1_655 S
H337 C325 0.930 . S
H338 C326 0.956 . S
H339 C326 0.961 . S
H340 C326 0.961 . S
H341 C327 0.958 . S
H342 C327 0.961 . S
H343 C327 0.960 . S
C344 C345 1.391 . S
C344 C346 1.394 . S
C344 H360 0.931 . S
C345 C344 1.391 . S
C345 C349 1.376 . S
C346 C344 1.394 . S
C346 C347 1.369 . S
C346 C350 1.531 . S
C347 C346 1.369 . S
C347 C348 1.410 . S
C347 C355 1.503 . S
C348 C347 1.410 . S
C348 C349 1.392 . S
C348 C351 1.511 . S
C349 C345 1.376 . S
C349 C348 1.392 . S
C349 H361 0.929 . S
C350 C346 1.531 . S
C350 H362 0.960 . S
C350 H363 0.962 . S
C350 H364 0.960 . S
C351 C348 1.511 . S
C351 H365 0.961 . S
C351 H366 0.961 . S
C351 H367 0.961 . S
C352 C353 1.370 . S
C352 C354 1.363 . S
C352 H368 0.931 . S
C353 C352 1.370 . S
C353 C357 1.408 . S
C354 C352 1.363 . S
C354 C355 1.370 . S
C354 C358 1.524 . S
C355 C347 1.503 . S
C355 C354 1.370 . S
C355 C356 1.403 . S
C356 C355 1.403 . S
C356 C357 1.404 . S
C356 C359 1.539 . S
C357 C353 1.408 . S
C357 C356 1.404 . S
C357 H369 0.930 . S
C358 C354 1.524 . S
C358 H370 0.956 . S
C358 H371 0.961 . S
C358 H372 0.961 . S
C359 C356 1.539 . S
C359 H373 0.958 . S
C359 H374 0.961 . S
C359 H375 0.960 . S
H360 C344 0.931 . S
H361 C349 0.929 . S
H362 C350 0.960 . S
H363 C350 0.962 . S
H364 C350 0.960 . S
H365 C351 0.961 . S
H366 C351 0.961 . S
H367 C351 0.961 . S
H368 C352 0.931 . S
H369 C357 0.930 . S
H370 C358 0.956 . S
H371 C358 0.961 . S
H372 C358 0.961 . S
H373 C359 0.958 . S
H374 C359 0.961 . S
H375 C359 0.960 . S
C376 C377 1.391 . S
C376 C378 1.394 . S
C376 H392 0.931 . S
C377 C376 1.391 . S
C377 C381 1.376 . S
C378 C376 1.394 . S
C378 C379 1.369 . S
C378 C382 1.531 . S
C379 C378 1.369 . S
C379 C380 1.410 . S
C379 C387 1.503 . S
C380 C379 1.410 . S
C380 C381 1.392 . S
C380 C383 1.511 . S
C381 C377 1.376 . S
C381 C380 1.392 . S
C381 H393 0.929 . S
C382 C378 1.531 . S
C382 H394 0.960 . S
C382 H395 0.962 . S
C382 H396 0.960 . S
C383 C380 1.511 . S
C383 H397 0.961 . S
C383 H398 0.961 . S
C383 H399 0.961 . S
C384 C385 1.370 . S
C384 C386 1.363 . S
C384 H400 0.931 . S
C385 C384 1.370 . S
C385 C389 1.408 . S
C386 C384 1.363 . S
C386 C387 1.370 . S
C386 C390 1.524 . S
C387 C379 1.503 . S
C387 C386 1.370 . S
C387 C388 1.403 . S
C388 C387 1.403 . S
C388 C389 1.404 . S
C388 C391 1.539 . S
C389 C385 1.408 . S
C389 C388 1.404 . S
C389 H401 0.930 . S
C390 C386 1.524 . S
C390 H402 0.956 . S
C390 H403 0.961 . S
C390 H404 0.961 . S
C391 C388 1.539 . S
C391 H405 0.958 . S
C391 H406 0.961 . S
C391 H407 0.960 . S
H392 C376 0.931 . S
H393 C381 0.929 . S
H394 C382 0.960 . S
H395 C382 0.962 . S
H396 C382 0.960 . S
H397 C383 0.961 . S
H398 C383 0.961 . S
H399 C383 0.961 . S
H400 C384 0.931 . S
H401 C389 0.930 . S
H402 C390 0.956 . S
H403 C390 0.961 . S
H404 C390 0.961 . S
H405 C391 0.958 . S
H406 C391 0.961 . S
H407 C391 0.960 . S
C408 C409 1.391 . S
C408 C410 1.394 . S
C408 H424 0.931 . S
C409 C408 1.391 . S
C409 C413 1.376 . S
C410 C408 1.394 . S
C410 C411 1.369 . S
C410 C414 1.531 . S
C411 C410 1.369 . S
C411 C412 1.410 . S
C411 C419 1.503 . S
C412 C411 1.410 . S
C412 C413 1.392 . S
C412 C415 1.511 . S
C413 C409 1.376 . S
C413 C412 1.392 . S
C413 H425 0.929 . S
C414 C410 1.531 . S
C414 H426 0.960 . S
C414 H427 0.962 . S
C414 H428 0.960 . S
C415 C412 1.511 . S
C415 H429 0.961 . S
C415 H430 0.961 . S
C415 H431 0.961 . S
C416 C417 1.370 . S
C416 C418 1.363 . S
C416 H432 0.931 . S
C417 C416 1.370 . S
C417 C421 1.408 . S
C418 C416 1.363 . S
C418 C419 1.370 . S
C418 C422 1.524 . S
C419 C411 1.503 . S
C419 C418 1.370 . S
C419 C420 1.403 . S
C420 C419 1.403 . S
C420 C421 1.404 . S
C420 C423 1.539 . S
C421 C417 1.408 . S
C421 C420 1.404 . S
C421 H433 0.930 . S
C422 C418 1.524 . S
C422 H434 0.956 . S
C422 H435 0.961 . S
C422 H436 0.961 . S
C423 C420 1.539 . S
C423 H437 0.958 . S
C423 H438 0.961 . S
C423 H439 0.960 . S
H424 C408 0.931 . S
H425 C413 0.929 . S
H426 C414 0.960 . S
H427 C414 0.962 . S
H428 C414 0.960 . S
H429 C415 0.961 . S
H430 C415 0.961 . S
H431 C415 0.961 . S
H432 C416 0.931 . S
H433 C421 0.930 . S
H434 C422 0.956 . S
H435 C422 0.961 . S
H436 C422 0.961 . S
H437 C423 0.958 . S
H438 C423 0.961 . S
H439 C423 0.960 . S
C440 C441 1.391 . S
C440 C442 1.394 . S
C440 H456 0.931 . S
C441 C440 1.391 . S
C441 C445 1.376 . S
C442 C440 1.394 . S
C442 C443 1.369 . S
C442 C446 1.531 . S
C443 C442 1.369 . S
C443 C444 1.410 . S
C443 C451 1.503 . S
C444 C443 1.410 . S
C444 C445 1.392 . S
C444 C447 1.511 . S
C445 C441 1.376 . S
C445 C444 1.392 . S
C445 H457 0.929 . S
C446 C442 1.531 . S
C446 H458 0.960 . S
C446 H459 0.962 . S
C446 H460 0.960 . S
C447 C444 1.511 . S
C447 H461 0.961 . S
C447 H462 0.961 . S
C447 H463 0.961 . S
C448 C449 1.370 . S
C448 C450 1.363 . S
C448 H464 0.931 . S
C449 C448 1.370 . S
C449 C453 1.408 . S
C450 C448 1.363 . S
C450 C451 1.370 . S
C450 C454 1.524 . S
C451 C443 1.503 . S
C451 C450 1.370 . S
C451 C452 1.403 . S
C452 C451 1.403 . S
C452 C453 1.404 . S
C452 C455 1.539 . S
C453 C449 1.408 . S
C453 C452 1.404 . S
C453 H465 0.930 . S
C454 C450 1.524 . S
C454 H466 0.956 . S
C454 H467 0.961 . S
C454 H468 0.961 . S
C455 C452 1.539 . S
C455 H469 0.958 . S
C455 H470 0.961 . S
C455 H471 0.960 . S
H456 C440 0.931 . S
H457 C445 0.929 . S
H458 C446 0.960 . S
H459 C446 0.962 . S
H460 C446 0.960 . S
H461 C447 0.961 . S
H462 C447 0.961 . S
H463 C447 0.961 . S
H464 C448 0.931 . S
H465 C453 0.930 . S
H466 C454 0.956 . S
H467 C454 0.961 . S
H468 C454 0.961 . S
H469 C455 0.958 . S
H470 C455 0.961 . S
H471 C455 0.960 . S
C89 C5 1.508 . S
C97 C16 1.456 . S
C121 C27 1.458 . S
C129 C38 1.463 . S
C153 C60 1.216 . S
C161 C49 1.258 . S
C185 C71 1.233 . S
C193 C82 1.294 . S
C217 C8 1.619 . S
C225 C52 1.582 . S
C249 C63 1.594 . S
C257 C19 1.626 . S
C281 C30 1.619 . S
C289 C74 1.590 . S
C313 C85 1.604 . S
C321 C41 1.628 . S
C345 C29 1.567 . S
C353 C7 1.561 . S
C377 C40 1.552 . S
C385 C18 1.546 . S
C409 C73 1.502 . S
C417 C51 1.487 . S
C441 C84 1.471 . S
C449 C62 1.506 . S
