# Generated by pormake.
# Topology umj, (4)-cn, num edge types: 1
# Building blocks:
#     Node 0, Type 0, BuildingBlock: ICAMEG_clean_sbu_1, # of connection points: 4
#     Node 1, Type 0, BuildingBlock: ICAMEG_clean_sbu_1, # of connection points: 4
#     Node 2, Type 0, BuildingBlock: ICAMEG_clean_sbu_1, # of connection points: 4
#     Node 3, Type 0, BuildingBlock: ICAMEG_clean_sbu_1, # of connection points: 4
#     Node 4, Type 0, BuildingBlock: ICAMEG_clean_sbu_1, # of connection points: 4
#     Node 5, Type 0, BuildingBlock: ICAMEG_clean_sbu_1, # of connection points: 4
#     Node 6, Type 0, BuildingBlock: ICAMEG_clean_sbu_1, # of connection points: 4
#     Node 7, Type 0, BuildingBlock: ICAMEG_clean_sbu_1, # of connection points: 4
#     Node 8, Type 0, BuildingBlock: ICAMEG_clean_sbu_1, # of connection points: 4
#     Node 9, Type 0, BuildingBlock: ICAMEG_clean_sbu_1, # of connection points: 4
#     Node 10, Type 0, BuildingBlock: ICAMEG_clean_sbu_1, # of connection points: 4
#     Node 11, Type 0, BuildingBlock: ICAMEG_clean_sbu_1, # of connection points: 4
#     Edge 12, Type (0, 0), BuildingBlock: UVAHIK_clean_linker_0, # of connection points: 2
#     Edge 13, Type (0, 0), BuildingBlock: UVAHIK_clean_linker_0, # of connection points: 2
#     Edge 14, Type (0, 0), BuildingBlock: UVAHIK_clean_linker_0, # of connection points: 2
#     Edge 15, Type (0, 0), BuildingBlock: UVAHIK_clean_linker_0, # of connection points: 2
#     Edge 16, Type (0, 0), BuildingBlock: UVAHIK_clean_linker_0, # of connection points: 2
#     Edge 17, Type (0, 0), BuildingBlock: UVAHIK_clean_linker_0, # of connection points: 2
#     Edge 18, Type (0, 0), BuildingBlock: UVAHIK_clean_linker_0, # of connection points: 2
#     Edge 19, Type (0, 0), BuildingBlock: UVAHIK_clean_linker_0, # of connection points: 2
#     Edge 20, Type (0, 0), BuildingBlock: UVAHIK_clean_linker_0, # of connection points: 2
#     Edge 21, Type (0, 0), BuildingBlock: UVAHIK_clean_linker_0, # of connection points: 2
#     Edge 22, Type (0, 0), BuildingBlock: UVAHIK_clean_linker_0, # of connection points: 2
#     Edge 23, Type (0, 0), BuildingBlock: UVAHIK_clean_linker_0, # of connection points: 2
#     Edge 24, Type (0, 0), BuildingBlock: UVAHIK_clean_linker_0, # of connection points: 2
#     Edge 25, Type (0, 0), BuildingBlock: UVAHIK_clean_linker_0, # of connection points: 2
#     Edge 26, Type (0, 0), BuildingBlock: UVAHIK_clean_linker_0, # of connection points: 2
#     Edge 27, Type (0, 0), BuildingBlock: UVAHIK_clean_linker_0, # of connection points: 2
#     Edge 28, Type (0, 0), BuildingBlock: UVAHIK_clean_linker_0, # of connection points: 2
#     Edge 29, Type (0, 0), BuildingBlock: UVAHIK_clean_linker_0, # of connection points: 2
#     Edge 30, Type (0, 0), BuildingBlock: UVAHIK_clean_linker_0, # of connection points: 2
#     Edge 31, Type (0, 0), BuildingBlock: UVAHIK_clean_linker_0, # of connection points: 2
#     Edge 32, Type (0, 0), BuildingBlock: UVAHIK_clean_linker_0, # of connection points: 2
#     Edge 33, Type (0, 0), BuildingBlock: UVAHIK_clean_linker_0, # of connection points: 2
#     Edge 34, Type (0, 0), BuildingBlock: UVAHIK_clean_linker_0, # of connection points: 2
#     Edge 35, Type (0, 0), BuildingBlock: UVAHIK_clean_linker_0, # of connection points: 2
# Relax obj value: 0.069
# Max RMSD: 0.261
# Mean RMSD: 0.229
data_MOF--net-umj--node1-ICAMEG_clean_sbu_1--edge1-UVAHIK_clean_linker_0
_symmetry_space_group_name_H-M    P1
_symmetry_Int_Tables_number       1
_symmetry_cell_setting            triclinic
loop_
_symmetry_equiv_pos_as_xyz
'x, y, z'
_cell_length_a     39.300922
_cell_length_b     39.274975
_cell_length_c     114.88998
_cell_angle_alpha  90.002067
_cell_angle_beta   90.001322
_cell_angle_gamma 119.99653
loop_
_atom_site_label
_atom_site_type_symbol
_atom_site_fract_x
_atom_site_fract_y
_atom_site_fract_z
_atom_type_partial_charge
Co0 Co 0.0805 0.27559 0.07752 0.0
Co1 Co 0.9913 0.2465 0.06416 0.0
O2 O 0.0319 0.27675 0.0756 0.0
C3 C 0.03881 0.24964 0.09972 0.0
O4 O 0.00781 0.22704 0.09339 0.0
C5 C 0.01885 0.32901 0.05891 0.0
O6 O 0.05422 0.33367 0.05965 0.0
O7 O 0.03089 0.26012 0.0517 0.0
O8 O 0.08916 0.27895 0.06028 0.0
H9 H 0.92789 0.15006 0.03144 0.0
H10 H 0.06828 0.33369 0.09063 0.0
O11 O 0.07184 0.2716 0.09482 0.0
H12 H 0.18646 0.41219 0.0667 0.0
H13 H 0.20798 0.31131 0.09751 0.0
H14 H 0.11783 0.23568 0.06557 0.0
H15 H 0.15222 0.33971 0.0662 0.0
H16 H 0.14659 0.31282 0.09444 0.0
O17 O 0.98879 0.29507 0.0604 0.0
H18 H 0.97914 0.18752 0.04609 0.0
H19 H 0.91656 0.24347 0.0576 0.0
H20 H 0.17903 0.23356 0.06827 0.0
H21 H 0.10174 0.40609 0.09145 0.0
H22 H 0.22458 0.27157 0.08434 0.0
H23 H 0.16119 0.44583 0.07939 0.0
O24 O 0.0522 0.21741 0.07651 0.0
H25 H 0.92908 0.27498 0.0982 0.0
H26 H 0.92239 0.17169 0.07228 0.0
H27 H 0.87404 0.15358 0.08815 0.0
H28 H 0.87723 0.20544 0.10124 0.0
H29 H 0.97699 0.29175 0.08228 0.0
H30 H 0.86476 0.20687 0.04302 0.0
H31 H 0.87019 0.15965 0.02985 0.0
O32 O -0.00584 0.19812 0.0677 0.0
C33 C 0.06756 0.27196 0.05127 0.0
C34 C 0.92511 0.17043 0.03716 0.0
C35 C 0.8897 0.20235 0.04365 0.0
N36 N 0.95058 0.21729 0.05277 0.0
C37 C 0.95396 0.19161 0.0455 0.0
C38 C 0.91913 0.22303 0.05188 0.0
C39 C 0.89277 0.17586 0.03627 0.0
C40 C 0.09439 0.35079 0.08546 0.0
N41 N 0.10844 0.33252 0.07844 0.0
C42 C 0.11311 0.39177 0.08592 0.0
C43 C 0.14643 0.41405 0.07914 0.0
C44 C 0.16062 0.39519 0.07201 0.0
C45 C 0.14109 0.35415 0.07176 0.0
C46 C 0.18841 0.2947 0.09046 0.0
C47 C 0.13766 0.25252 0.07253 0.0
C48 C 0.15361 0.2954 0.08869 0.0
N49 N 0.12889 0.27466 0.07977 0.0
C50 C 0.17219 0.2511 0.07404 0.0
C51 C 0.19772 0.27241 0.08306 0.0
C52 C 0.01936 0.19093 0.07241 0.0
C53 C 0.92731 0.25214 0.09253 0.0
C54 C 0.92394 0.19441 0.07794 0.0
C55 C 0.89647 0.18399 0.0869 0.0
C56 C 0.89826 0.21311 0.09424 0.0
N57 N 0.95233 0.23276 0.07632 0.0
C58 C 0.95424 0.26148 0.08347 0.0
Co59 Co 0.79116 0.04969 0.41004 0.0
Co60 Co 0.72844 0.97085 0.39288 0.0
O61 O 0.73976 0.00576 0.40613 0.0
C62 C 0.76539 -0.00119 0.43061 0.0
O63 O 0.75669 0.96972 0.42338 0.0
C64 C 0.67961 0.00674 0.3899 0.0
O65 O 0.71215 0.04003 0.39178 0.0
O66 O 0.75815 0.01579 0.38227 0.0
O67 O 0.80286 0.06567 0.39328 0.0
H68 H 0.75948 0.92018 0.3566 0.0
H69 H 0.72039 0.04041 0.42216 0.0
O70 O 0.78029 0.03388 0.4268 0.0
H71 H 0.77914 0.16967 0.40283 0.0
H72 H 0.88572 0.16332 0.43493 0.0
H73 H 0.8713 0.08365 0.40013 0.0
H74 H 0.81056 0.12894 0.40136 0.0
H75 H 0.82072 0.10839 0.42927 0.0
O76 O 0.68003 0.97445 0.3899 0.0
H77 H 0.77476 0.9641 0.37354 0.0
H78 H 0.65483 0.90322 0.38371 0.0
H79 H 0.93679 0.13847 0.40541 0.0
H80 H 0.68814 0.08029 0.42392 0.0
H81 H 0.94428 0.17874 0.42293 0.0
H82 H 0.71746 0.14535 0.41416 0.0
O83 O 0.81539 0.01641 0.40823 0.0
H84 H 0.63147 0.89623 0.42464 0.0
H85 H 0.72773 0.8957 0.39721 0.0
H86 H 0.6926 0.84018 0.4108 0.0
H87 H 0.64408 0.84025 0.42464 0.0
H88 H 0.66744 0.95125 0.41095 0.0
H89 H 0.63815 0.8588 0.36682 0.0
H90 H 0.69074 0.86707 0.35316 0.0
O91 O 0.7775 0.96811 0.3956 0.0
C92 C 0.78727 0.05039 0.3835 0.0
C93 C 0.73634 0.91616 0.36252 0.0
C94 C 0.66823 0.88175 0.36825 0.0
N95 N 0.7158 0.93588 0.37967 0.0
C96 C 0.74485 0.94083 0.37215 0.0
C97 C 0.67783 0.907 0.37778 0.0
C98 C 0.69776 0.8864 0.36059 0.0
C99 C 0.73358 0.0689 0.41801 0.0
N100 N 0.76743 0.08244 0.41173 0.0
C101 C 0.71508 0.09126 0.41899 0.0
C102 C 0.73152 0.12774 0.4135 0.0
C103 C 0.76611 0.14139 0.40713 0.0
C104 C 0.78374 0.11818 0.40632 0.0
C105 C 0.88281 0.14607 0.42726 0.0
C106 C 0.8743 0.10126 0.40771 0.0
C107 C 0.84611 0.11492 0.42402 0.0
N108 N 0.84221 0.09317 0.41431 0.0
C109 C 0.91147 0.13216 0.41068 0.0
C110 C 0.91566 0.15471 0.42052 0.0
C111 C 0.80808 0.98677 0.40196 0.0
C112 C 0.65245 0.89581 0.41862 0.0
C113 C 0.70667 0.89593 0.40321 0.0
C114 C 0.68683 0.8644 0.41087 0.0
C115 C 0.65959 0.86444 0.41863 0.0
N116 N 0.69948 0.92657 0.40325 0.0
C117 C 0.67277 0.92679 0.41082 0.0
Co118 Co 0.73728 0.78198 0.74109 0.0
Co119 Co 0.76366 0.72789 0.72338 0.0
O120 O 0.73631 0.73381 0.73665 0.0
C121 C 0.76723 0.7593 0.76127 0.0
O122 O 0.78943 0.75387 0.75384 0.0
C123 C 0.68041 0.67473 0.71914 0.0
O124 O 0.67693 0.70551 0.72147 0.0
O125 O 0.7466 0.75693 0.71309 0.0
O126 O 0.73094 0.79364 0.72451 0.0
H127 H 0.84993 0.77161 0.68788 0.0
H128 H 0.68181 0.70688 0.75269 0.0
O129 O 0.7442 0.77118 0.75771 0.0
H130 H 0.59884 0.75339 0.73444 0.0
H131 H 0.70434 0.86454 0.76711 0.0
H132 H 0.77512 0.86328 0.73181 0.0
H133 H 0.67108 0.79254 0.73298 0.0
H134 H 0.70254 0.8036 0.76079 0.0
O135 O 0.71417 0.67748 0.71948 0.0
H136 H 0.81659 0.78029 0.70486 0.0
H137 H 0.76578 0.65926 0.71326 0.0
H138 H 0.77748 0.9248 0.73775 0.0
H139 H 0.60971 0.66692 0.75441 0.0
H140 H 0.7419 0.92566 0.75552 0.0
H141 H 0.56772 0.69007 0.74521 0.0
O142 O 0.79497 0.8125 0.73924 0.0
H143 H 0.7455 0.62763 0.7536 0.0
H144 H 0.84081 0.73354 0.72812 0.0
H145 H 0.86371 0.69954 0.74131 0.0
H146 H 0.81587 0.64617 0.75416 0.0
H147 H 0.72394 0.66258 0.74034 0.0
H148 H 0.79829 0.64913 0.69631 0.0
H149 H 0.84086 0.70562 0.68352 0.0
O150 O 0.8126 0.77893 0.72703 0.0
C151 C 0.73542 0.782 0.71454 0.0
C152 C 0.83164 0.74682 0.69343 0.0
C153 C 0.80261 0.67806 0.69815 0.0
N154 N 0.78978 0.72045 0.71013 0.0
C155 C 0.81285 0.75161 0.70309 0.0
C156 C 0.78426 0.68396 0.70773 0.0
C157 C 0.82649 0.70977 0.69097 0.0
C158 C 0.66374 0.71737 0.74877 0.0
N159 N 0.68062 0.75212 0.74281 0.0
C160 C 0.62293 0.69453 0.74973 0.0
C161 C 0.59939 0.70751 0.74455 0.0
C162 C 0.61683 0.74303 0.7385 0.0
C163 C 0.65774 0.76505 0.7377 0.0
C164 C 0.71987 0.86451 0.75933 0.0
C165 C 0.75932 0.86338 0.7395 0.0
C166 C 0.71899 0.83012 0.75573 0.0
N167 N 0.73836 0.82983 0.74588 0.0
C168 C 0.76088 0.89832 0.74284 0.0
C169 C 0.74094 0.89879 0.75282 0.0
C170 C 0.8204 0.80884 0.73332 0.0
C171 C 0.7666 0.65075 0.74801 0.0
C172 C 0.81985 0.71036 0.7337 0.0
C173 C 0.83296 0.69118 0.74113 0.0
C174 C 0.8061 0.66121 0.74834 0.0
N175 N 0.78106 0.6999 0.73342 0.0
C176 C 0.75453 0.67053 0.74045 0.0
Co177 Co 0.89834 0.71187 0.07722 0.0
Co178 Co 0.98983 0.74533 0.06487 0.0
O179 O 0.94835 0.71319 0.07584 0.0
C180 C 0.93706 0.73759 0.09983 0.0
O181 O 0.96814 0.76203 0.0938 0.0
C182 C 0.96704 0.664 0.05945 0.0
O183 O 0.93083 0.65724 0.05979 0.0
O184 O 0.95158 0.73051 0.05196 0.0
O185 O 0.89191 0.70949 0.05988 0.0
H186 H 0.05379 0.84408 0.03273 0.0
H187 H 0.91198 0.65485 0.09043 0.0
O188 O 0.90488 0.71485 0.0946 0.0
H189 H 0.79809 0.57441 0.06514 0.0
H190 H 0.76711 0.66922 0.09577 0.0
H191 H 0.85963 0.74974 0.06488 0.0
H192 H 0.82964 0.64674 0.06506 0.0
H193 H 0.83045 0.67113 0.09339 0.0
O194 O -0.00433 0.69859 0.06125 0.0
H195 H 0.00136 0.80411 0.0468 0.0
H196 H 0.06727 0.75284 0.05928 0.0
H197 H 0.7965 0.74846 0.06689 0.0
H198 H 0.88118 0.5826 0.09084 0.0
H199 H 0.74974 0.70797 0.08243 0.0
H200 H 0.82391 0.54189 0.07809 0.0
O201 O 0.9245 0.77008 0.07652 0.0
H202 H 0.05061 0.71941 0.09977 0.0
H203 H 0.05531 0.82139 0.07368 0.0
H204 H 0.10174 0.84085 0.09012 0.0
H205 H 0.09953 0.78965 0.1033 0.0
H206 H 0.00458 0.70128 0.08327 0.0
H207 H 0.1203 0.79202 0.04528 0.0
H208 H 0.11378 0.83816 0.03192 0.0
O209 O 0.98375 0.79193 0.06823 0.0
C210 C 0.91476 0.71755 0.05113 0.0
C211 C 0.05704 0.8242 0.03854 0.0
C212 C 0.09434 0.79494 0.04557 0.0
N213 N 0.03148 0.77653 0.05393 0.0
C214 C 0.02752 0.8016 0.04655 0.0
C215 C 0.06422 0.7728 0.05346 0.0
C216 C 0.09067 0.82083 0.03808 0.0
C217 C 0.88678 0.63731 0.08496 0.0
N218 N 0.87245 0.65496 0.07779 0.0
C219 C 0.86958 0.59642 0.08519 0.0
C220 C 0.83749 0.5736 0.07802 0.0
C221 C 0.823 0.59183 0.07075 0.0
C222 C 0.84099 0.63279 0.07073 0.0
C223 C 0.78719 0.6869 0.08895 0.0
C224 C 0.8393 0.73184 0.07161 0.0
C225 C 0.82311 0.68814 0.08757 0.0
N226 N 0.84849 0.71023 0.07894 0.0
C227 C 0.80367 0.73133 0.07273 0.0
C228 C 0.77746 0.70864 0.08146 0.0
C229 C 0.95716 0.7976 0.07264 0.0
C230 C 0.05195 0.74197 0.09406 0.0
C231 C 0.05421 0.79896 0.07937 0.0
C232 C 0.08059 0.81014 0.08866 0.0
C233 C 0.07935 0.7814 0.09605 0.0
N234 N 0.02744 0.76022 0.07748 0.0
C235 C 0.02608 0.73187 0.08467 0.0
Co236 Co 0.20166 0.94212 0.40753 0.0
Co237 Co 0.25976 0.03145 0.39398 0.0
O238 O 0.25055 0.99127 0.40544 0.0
C239 C 0.21812 0.98341 0.42984 0.0
O240 O 0.22526 0.01436 0.42365 0.0
C241 C 0.31453 0.00428 0.38848 0.0
O242 O 0.28338 0.96918 0.3891 0.0
O243 O 0.23396 0.9917 0.38156 0.0
O244 O 0.19512 0.93352 0.39027 0.0
H245 H 0.22524 0.09329 0.36114 0.0
H246 H 0.27337 0.9556 0.42005 0.0
O247 O 0.20747 0.95063 0.42482 0.0
H248 H 0.23402 0.83805 0.39581 0.0
H249 H 0.11306 0.81374 0.42761 0.0
H250 H 0.12357 0.90373 0.39608 0.0
H251 H 0.19458 0.87102 0.39589 0.0
H252 H 0.17508 0.87587 0.42432 0.0
O253 O 0.31128 0.03466 0.39017 0.0
H254 H 0.21232 0.04231 0.3758 0.0
H255 H 0.33056 0.1069 0.38743 0.0
H256 H 0.06109 0.84178 0.399 0.0
H257 H 0.31354 0.92342 0.42028 0.0
H258 H 0.05557 0.7963 0.41486 0.0
H259 H 0.29401 0.86431 0.40806 0.0
O260 O 0.17113 0.96963 0.40692 0.0
H261 H 0.35076 0.09551 0.42784 0.0
H262 H 0.25212 0.09925 0.40217 0.0
H263 H 0.28178 0.14787 0.418 0.0
H264 H 0.33146 0.14615 0.43097 0.0
H265 H 0.32018 0.04731 0.41195 0.0
H266 H 0.34491 0.15848 0.37283 0.0
H267 H 0.29196 0.1519 0.3596 0.0
O268 O 0.20772 0.02721 0.39749 0.0
C269 C 0.20908 0.95502 0.38121 0.0
C270 C 0.2485 0.09659 0.3669 0.0
C271 C 0.31569 0.13315 0.37345 0.0
N272 N 0.2705 0.07193 0.38256 0.0
C273 C 0.2413 0.06791 0.37525 0.0
C274 C 0.3074 0.10386 0.38169 0.0
C275 C 0.28596 0.12945 0.36603 0.0
C276 C 0.26442 0.92961 0.41482 0.0
N277 N 0.23153 0.91504 0.40803 0.0
C278 C 0.28739 0.91163 0.41494 0.0
C279 C 0.27644 0.87849 0.40807 0.0
C280 C 0.2428 0.86375 0.40119 0.0
C281 C 0.22059 0.88255 0.40127 0.0
C282 C 0.11513 0.83326 0.42065 0.0
C283 C 0.12146 0.88394 0.40295 0.0
C284 C 0.15013 0.86849 0.41876 0.0
N285 N 0.153 0.89316 0.40995 0.0
C286 C 0.08598 0.84897 0.40458 0.0
C287 C 0.08289 0.82349 0.41349 0.0
C288 C 0.17621 0.0017 0.40256 0.0
C289 C 0.32924 0.09664 0.42222 0.0
C290 C 0.27373 0.09835 0.40778 0.0
C291 C 0.29045 0.12597 0.41672 0.0
C292 C 0.31835 0.12501 0.42399 0.0
N293 N 0.28458 0.07064 0.4061 0.0
C294 C 0.31196 0.06954 0.41318 0.0
Co295 Co 0.24769 0.19968 0.74227 0.0
Co296 Co 0.23132 0.26224 0.72508 0.0
O297 O 0.25404 0.25083 0.73854 0.0
C298 C 0.21826 0.22235 0.76258 0.0
O299 O 0.19852 0.23111 0.75512 0.0
C300 C 0.31608 0.31278 0.72285 0.0
O301 O 0.31746 0.28071 0.72502 0.0
O302 O 0.24871 0.23403 0.71458 0.0
O303 O 0.25509 0.18995 0.72556 0.0
H304 H 0.15331 0.23162 0.68805 0.0
H305 H 0.30574 0.27021 0.7553 0.0
O306 O 0.23968 0.20858 0.75898 0.0
H307 H 0.38248 0.21687 0.73681 0.0
H308 H 0.26655 0.10515 0.76725 0.0
H309 H 0.20535 0.12032 0.73163 0.0
H310 H 0.31055 0.18362 0.73434 0.0
H311 H 0.27531 0.16986 0.76183 0.0
O312 O 0.28303 0.31157 0.72254 0.0
H313 H 0.18091 0.21629 0.70523 0.0
H314 H 0.23637 0.3356 0.71601 0.0
H315 H 0.19606 0.05514 0.73667 0.0
H316 H 0.37757 0.30422 0.75806 0.0
H317 H 0.22679 0.04727 0.7546 0.0
H318 H 0.41645 0.27764 0.74873 0.0
O319 O 0.19042 0.17398 0.73971 0.0
H320 H 0.24814 0.35662 0.75708 0.0
H321 H 0.15553 0.26076 0.72874 0.0
H322 H 0.13259 0.29408 0.74218 0.0
H323 H 0.17906 0.34239 0.75648 0.0
H324 H 0.26975 0.32244 0.74354 0.0
H325 H 0.20965 0.35234 0.6989 0.0
H326 H 0.16765 0.30008 0.6848 0.0
O327 O 0.17987 0.2123 0.7273 0.0
C328 C 0.25567 0.20588 0.71582 0.0
C329 C 0.17141 0.25461 0.69416 0.0
C330 C 0.20308 0.32237 0.70024 0.0
N331 N 0.20978 0.27492 0.71168 0.0
C332 C 0.18698 0.24607 0.70392 0.0
C333 C 0.21816 0.31274 0.7099 0.0
C334 C 0.17951 0.29304 0.69233 0.0
C335 C 0.3224 0.2582 0.75133 0.0
N336 N 0.30396 0.22485 0.74473 0.0
C337 C 0.36309 0.27769 0.75288 0.0
C338 C 0.3849 0.26279 0.74762 0.0
C339 C 0.36586 0.22871 0.74093 0.0
C340 C 0.32513 0.21004 0.73955 0.0
C341 C 0.25311 0.10823 0.7594 0.0
C342 C 0.21906 0.11717 0.73939 0.0
C343 C 0.25792 0.14477 0.7563 0.0
N344 N 0.2412 0.14889 0.74636 0.0
C345 C 0.21359 0.08017 0.74222 0.0
C346 C 0.2308 0.07577 0.75229 0.0
C347 C 0.16813 0.18111 0.73336 0.0
C348 C 0.22765 0.33572 0.75087 0.0
C349 C 0.1759 0.28173 0.73495 0.0
C350 C 0.16277 0.30055 0.74252 0.0
C351 C 0.18887 0.32768 0.75054 0.0
N352 N 0.21398 0.28981 0.73532 0.0
C353 C 0.23977 0.31641 0.74314 0.0
Co354 Co 0.71427 0.91268 0.57715 0.0
Co355 Co 0.74556 0.00481 0.58878 0.0
O356 O 0.7135 0.96167 0.57825 0.0
C357 C 0.73647 0.94936 0.55419 0.0
O358 O 0.76024 0.98161 0.55987 0.0
C359 C 0.66408 0.97747 0.59514 0.0
O360 O 0.66023 0.94235 0.59494 0.0
O361 O 0.73472 0.96826 0.60196 0.0
O362 O 0.71379 0.90799 0.5945 0.0
H363 H 0.84775 0.07629 0.61957 0.0
H364 H 0.65412 0.92209 0.56422 0.0
O365 O 0.71539 0.91743 0.55974 0.0
H366 H 0.57972 0.80962 0.59058 0.0
H367 H 0.67538 0.78083 0.55958 0.0
H368 H 0.75605 0.87799 0.58948 0.0
H369 H 0.65214 0.84369 0.59003 0.0
H370 H 0.67436 0.84287 0.56161 0.0
O371 O 0.69734 0.00764 0.59291 0.0
H372 H 0.80798 0.0216 0.60612 0.0
H373 H 0.74896 0.0806 0.5941 0.0
H374 H 0.75775 0.81623 0.58782 0.0
H375 H 0.58173 0.88872 0.56444 0.0
H376 H 0.7172 0.76715 0.57277 0.0
H377 H 0.54405 0.83216 0.57773 0.0
O378 O 0.77246 0.94106 0.57739 0.0
H379 H 0.71014 0.05874 0.55409 0.0
H380 H 0.8184 0.0719 0.57894 0.0
H381 H 0.8332 0.11646 0.56218 0.0
H382 H 0.77882 0.10999 0.54963 0.0
H383 H 0.69669 0.01465 0.57088 0.0
H384 H 0.78786 0.13582 0.60749 0.0
H385 H 0.83779 0.13393 0.62031 0.0
O386 O 0.79345 0.00133 0.58492 0.0
C387 C 0.72283 0.93171 0.60308 0.0
C388 C 0.82621 0.07753 0.614 0.0
C389 C 0.79255 0.11092 0.60723 0.0
N390 N 0.77654 0.04816 0.59925 0.0
C391 C 0.80371 0.04673 0.60633 0.0
C392 C 0.77058 0.07956 0.59968 0.0
C393 C 0.82057 0.10985 0.61441 0.0
C394 C 0.63791 0.89719 0.56992 0.0
N395 N 0.6573 0.88467 0.57704 0.0
C396 C 0.59693 0.87854 0.57005 0.0
C397 C 0.57581 0.84684 0.57752 0.0
C398 C 0.59581 0.83419 0.58474 0.0
C399 C 0.63681 0.8536 0.58439 0.0
C400 C 0.69311 0.80194 0.56618 0.0
C401 C 0.73811 0.85664 0.58297 0.0
C402 C 0.69269 0.83713 0.56736 0.0
N403 N 0.71484 0.8638 0.57573 0.0
C404 C 0.73929 0.82179 0.58204 0.0
C405 C 0.71657 0.79428 0.57359 0.0
C406 C 0.79967 0.97477 0.58071 0.0
C407 C 0.73406 0.06193 0.55952 0.0
C408 C 0.7946 0.06894 0.57351 0.0
C409 C 0.80314 0.09427 0.56405 0.0
C410 C 0.77262 0.09064 0.55701 0.0
N411 N 0.7567 0.04088 0.57592 0.0
C412 C 0.72661 0.03717 0.56907 0.0
Co413 Co 0.8128 0.71464 0.90762 0.0
Co414 Co 0.74765 0.74179 0.91835 0.0
O415 O 0.7619 0.71173 0.908 0.0
C416 C 0.80073 0.73759 0.88449 0.0
O417 O 0.79131 0.76082 0.89008 0.0
C418 C 0.69239 0.65918 0.92345 0.0
O419 O 0.72334 0.6548 0.92377 0.0
O420 O 0.77073 0.72943 0.93189 0.0
O421 O 0.81433 0.71304 0.92504 0.0
H422 H 0.76979 0.83892 0.95004 0.0
H423 H 0.74645 0.65377 0.89377 0.0
O424 O 0.81158 0.71671 0.89016 0.0
H425 H 0.78432 0.58063 0.92071 0.0
H426 H 0.91167 0.68151 0.8914 0.0
H427 H 0.88702 0.75761 0.92099 0.0
H428 H 0.82026 0.65315 0.92068 0.0
H429 H 0.84723 0.6779 0.89254 0.0
O430 O 0.69633 0.69288 0.92141 0.0
H431 H 0.78849 0.8017 0.93674 0.0
H432 H 0.67362 0.74342 0.92232 0.0
H433 H 0.95178 0.76187 0.92023 0.0
H434 H 0.70987 0.58126 0.89346 0.0
H435 H 0.96441 0.72362 0.90535 0.0
H436 H 0.72868 0.54421 0.90703 0.0
O437 O 0.84095 0.77294 0.90817 0.0
H438 H 0.66635 0.7099 0.88197 0.0
H439 H 0.75402 0.81543 0.90887 0.0
H440 H 0.7275 0.83181 0.89164 0.0
H441 H 0.68334 0.77882 0.87805 0.0
H442 H 0.69371 0.69486 0.89925 0.0
H443 H 0.65354 0.77976 0.93553 0.0
H444 H 0.70187 0.82804 0.94948 0.0
O445 O 0.79904 0.79069 0.91556 0.0
C446 C 0.79653 0.71921 0.93338 0.0
C447 C 0.74852 0.81809 0.94397 0.0
C448 C 0.68325 0.78485 0.93583 0.0
N449 N 0.7323 0.77079 0.92868 0.0
C450 C 0.75898 0.79705 0.93639 0.0
C451 C 0.69476 0.76433 0.92839 0.0
C452 C 0.71039 0.81194 0.94366 0.0
C453 C 0.75509 0.63786 0.89961 0.0
N454 N 0.78561 0.65766 0.90718 0.0
C455 C 0.73415 0.5968 0.89943 0.0
C456 C 0.74468 0.57603 0.90706 0.0
C457 C 0.77589 0.59645 0.91474 0.0
C458 C 0.7961 0.6375 0.91469 0.0
C459 C 0.90649 0.69824 0.89794 0.0
C460 C 0.89223 0.74068 0.91455 0.0
C461 C 0.8701 0.69636 0.89862 0.0
N462 N 0.86331 0.71724 0.90689 0.0
C463 C 0.92899 0.7433 0.91413 0.0
C464 C 0.93607 0.72186 0.90577 0.0
C465 C 0.83266 0.79879 0.91164 0.0
C466 C 0.68544 0.73322 0.88785 0.0
C467 C 0.73479 0.79221 0.903 0.0
C468 C 0.71984 0.80166 0.89327 0.0
C469 C 0.69504 0.77191 0.88565 0.0
N470 N 0.72521 0.75419 0.9051 0.0
C471 C 0.70087 0.72485 0.89768 0.0
Co472 Co 0.0496 0.79078 0.24375 0.0
Co473 Co 0.96807 0.73376 0.26077 0.0
O474 O 0.0029 0.74152 0.24775 0.0
C475 C -0.0013 0.76788 0.22318 0.0
O476 O 0.97025 0.76116 0.23044 0.0
C477 C -0.00073 0.68133 0.2649 0.0
O478 O 0.0335 0.71246 0.26281 0.0
O479 O 0.01298 0.76283 0.27146 0.0
O480 O 0.06587 0.80175 0.2605 0.0
H481 H 0.92039 0.77328 0.29606 0.0
H482 H 0.03347 0.71713 0.23186 0.0
O483 O 0.03352 0.78061 0.22697 0.0
H484 H 0.16165 0.7661 0.25119 0.0
H485 H 0.1665 0.87756 0.21874 0.0
H486 H 0.09008 0.87147 0.25352 0.0
H487 H 0.12645 0.80327 0.25247 0.0
H488 H 0.10793 0.81526 0.2245 0.0
O489 O 0.96813 0.68385 0.26456 0.0
H490 H 0.96428 0.78415 0.27939 0.0
H491 H 0.8974 0.66346 0.27023 0.0
H492 H 0.14861 0.93431 0.24814 0.0
H493 H 0.06777 0.67915 0.23031 0.0
H494 H 0.18725 0.93761 0.23064 0.0
H495 H 0.13226 0.70353 0.24006 0.0
O496 O 0.02071 0.81976 0.24542 0.0
H497 H 0.89072 0.63492 0.2297 0.0
H498 H 0.89581 0.73758 0.25557 0.0
H499 H 0.84041 0.70345 0.24188 0.0
H500 H 0.83766 0.65171 0.22883 0.0
H501 H 0.94569 0.66997 0.24345 0.0
H502 H 0.85293 0.65115 0.28686 0.0
H503 H 0.86423 0.70636 0.29987 0.0
O504 O 0.96896 0.78427 0.25726 0.0
C505 C 0.04904 0.78889 0.27033 0.0
C506 C 0.91503 0.74903 0.29041 0.0
C507 C 0.8772 0.68047 0.28526 0.0
N508 N 0.93304 0.7246 0.27376 0.0
C509 C 0.93967 0.75506 0.28093 0.0
C510 C 0.90248 0.6876 0.27587 0.0
C511 C 0.88356 0.71146 0.29256 0.0
C512 C 0.06174 0.72816 0.23601 0.0
N513 N 0.07807 0.7625 0.24218 0.0
C514 C 0.08094 0.70644 0.23515 0.0
C515 C 0.1171 0.72011 0.24064 0.0
C516 C 0.13359 0.7552 0.24689 0.0
C517 C 0.11352 0.7761 0.24759 0.0
C518 C 0.14997 0.87647 0.22641 0.0
C519 C 0.10694 0.87263 0.24594 0.0
C520 C 0.11677 0.84131 0.2297 0.0
N521 N 0.0959 0.83969 0.2394 0.0
C522 C 0.13996 0.90832 0.24292 0.0
C523 C 0.1616 0.91015 0.23309 0.0
C524 C 0.99078 0.81475 0.25115 0.0
C525 C 0.89153 0.65732 0.23537 0.0
C526 C 0.8948 0.71511 0.2499 0.0
C527 C 0.86334 0.69585 0.24219 0.0
C528 C 0.8618 0.6668 0.23487 0.0
N529 N 0.92381 0.70561 0.25035 0.0
C530 C 0.92249 0.67714 0.24321 0.0
Co531 Co 0.27044 0.07638 0.57578 0.0
Co532 Co 0.23857 0.9884 0.59025 0.0
O533 O 0.26945 0.02696 0.5784 0.0
C534 C 0.2435 0.03225 0.55398 0.0
O535 O 0.2198 0.00237 0.56054 0.0
C536 C 0.32045 0.01347 0.59537 0.0
O537 O 0.32628 0.04921 0.59421 0.0
O538 O 0.25461 0.02985 0.60224 0.0
O539 O 0.27371 0.08718 0.59293 0.0
H540 H 0.14307 0.93247 0.62349 0.0
H541 H 0.32687 0.05995 0.56336 0.0
O542 O 0.26639 0.06559 0.5586 0.0
H543 H 0.40834 0.17987 0.58633 0.0
H544 H 0.31133 0.20263 0.55427 0.0
H545 H 0.23249 0.11741 0.5867 0.0
H546 H 0.33604 0.14815 0.58665 0.0
H547 H 0.31013 0.14031 0.55829 0.0
O548 O 0.28599 0.98395 0.59415 0.0
H549 H 0.18139 0.9812 0.60832 0.0
H550 H 0.23229 0.91292 0.59774 0.0
H551 H 0.23306 0.1796 0.58305 0.0
H552 H 0.39906 0.09083 0.56274 0.0
H553 H 0.27271 0.22268 0.56673 0.0
H554 H 0.44028 0.15113 0.57432 0.0
O555 O 0.21248 0.05008 0.57672 0.0
H556 H 0.26121 0.91856 0.55711 0.0
H557 H 0.16181 0.92068 0.58283 0.0
H558 H 0.14084 0.86992 0.56756 0.0
H559 H 0.19074 0.86867 0.55458 0.0
H560 H 0.28085 0.96895 0.57244 0.0
H561 H 0.19478 0.86358 0.61287 0.0
H562 H 0.14966 0.87314 0.62583 0.0
O563 O 0.1914 0.99346 0.58659 0.0
C564 C 0.26697 0.06665 0.60217 0.0
C565 C 0.16251 0.92789 0.61786 0.0
C566 C 0.19158 0.88925 0.61191 0.0
N567 N 0.20869 0.94966 0.60208 0.0
C568 C 0.18417 0.95531 0.60923 0.0
C569 C 0.21278 0.9173 0.60338 0.0
C570 C 0.16626 0.89463 0.61918 0.0
C571 C 0.34463 0.08646 0.56831 0.0
N572 N 0.32729 0.10239 0.57497 0.0
C573 C 0.38548 0.1037 0.56797 0.0
C574 C 0.40859 0.13751 0.57449 0.0
C575 C 0.39069 0.15363 0.58123 0.0
C576 C 0.34975 0.13553 0.58138 0.0
C577 C 0.29404 0.18417 0.56143 0.0
C578 C 0.25006 0.13618 0.57965 0.0
C579 C 0.29321 0.14885 0.56374 0.0
N580 N 0.27162 0.12552 0.5728 0.0
C581 C 0.25015 0.17127 0.57759 0.0
C582 C 0.27237 0.19541 0.56843 0.0
C583 C 0.18536 0.01868 0.58135 0.0
C584 C 0.23921 0.91873 0.56274 0.0
C585 C 0.18368 0.92031 0.57721 0.0
C586 C 0.17164 0.89148 0.56859 0.0
C587 C 0.19966 0.89078 0.56131 0.0
N588 N 0.22253 0.9476 0.57856 0.0
C589 C 0.25018 0.94707 0.57147 0.0
Co590 Co 0.18163 0.28244 0.9088 0.0
Co591 Co 0.24086 0.24882 0.92019 0.0
O592 O 0.23014 0.28047 0.90941 0.0
C593 C 0.19011 0.25445 0.88603 0.0
O594 O 0.19695 0.22997 0.89196 0.0
C595 C 0.30155 0.33016 0.92459 0.0
O596 O 0.27268 0.33783 0.92471 0.0
O597 O 0.22057 0.26562 0.93346 0.0
O598 O 0.18065 0.28617 0.92619 0.0
H599 H 0.21068 0.153 0.95292 0.0
H600 H 0.25017 0.33784 0.89455 0.0
O601 O 0.18219 0.27813 0.89137 0.0
H602 H 0.22252 0.42124 0.92045 0.0
H603 H 0.09135 0.32554 0.89172 0.0
H604 H 0.10732 0.24642 0.92228 0.0
H605 H 0.18115 0.349 0.9211 0.0
H606 H 0.15257 0.32274 0.89313 0.0
O607 O 0.29442 0.29511 0.92292 0.0
H608 H 0.19652 0.19231 0.93907 0.0
H609 H 0.31078 0.24007 0.92458 0.0
H610 H 0.04574 0.24863 0.92126 0.0
H611 H 0.29212 0.40996 0.89356 0.0
H612 H 0.03748 0.28842 0.90589 0.0
H613 H 0.27848 0.45216 0.9066 0.0
O614 O 0.14912 0.22433 0.90991 0.0
H615 H 0.32003 0.26973 0.88384 0.0
H616 H 0.22717 0.17134 0.9116 0.0
H617 H 0.2501 0.14951 0.8947 0.0
H618 H 0.29685 0.19889 0.88068 0.0
H619 H 0.29616 0.29025 0.9008 0.0
H620 H 0.32633 0.20151 0.93834 0.0
H621 H 0.276 0.15747 0.9526 0.0
O622 O 0.1873 0.20259 0.91773 0.0
C623 C 0.19711 0.27893 0.93469 0.0
C624 C 0.2328 0.17196 0.94671 0.0
C625 C 0.29772 0.19923 0.93854 0.0
N626 N 0.25264 0.21809 0.93095 0.0
C627 C 0.22489 0.19418 0.93882 0.0
C628 C 0.28878 0.22102 0.93078 0.0
C629 C 0.26947 0.17452 0.94654 0.0
C630 C 0.24377 0.35603 0.90016 0.0
N631 N 0.2131 0.33925 0.90782 0.0
C632 C 0.26774 0.39683 0.8996 0.0
C633 C 0.2601 0.42049 0.90693 0.0
C634 C 0.22872 0.40316 0.91471 0.0
C635 C 0.20543 0.36225 0.91504 0.0
C636 C 0.09463 0.30818 0.89848 0.0
C637 C 0.10403 0.26401 0.91562 0.0
C638 C 0.12918 0.30643 0.8993 0.0
N639 N 0.1336 0.28474 0.90785 0.0
C640 C 0.06905 0.26505 0.91506 0.0
C641 C 0.06442 0.28735 0.90643 0.0
C642 C 0.15454 0.19693 0.91374 0.0
C643 C 0.29978 0.24795 0.88991 0.0
C644 C 0.24755 0.193 0.90554 0.0
C645 C 0.26046 0.18047 0.896 0.0
C646 C 0.28671 0.20819 0.88814 0.0
N647 N 0.26052 0.23205 0.90722 0.0
C648 C 0.2863 0.25941 0.89956 0.0
Co649 Co 0.94497 0.20456 0.24556 0.0
Co650 Co 0.02913 0.26582 0.26106 0.0
O651 O 0.99126 0.25519 0.24868 0.0
C652 C 0.99095 0.22657 0.224 0.0
O653 O 0.02138 0.23546 0.23067 0.0
C654 C -0.00378 0.31647 0.26564 0.0
O655 O 0.96226 0.28426 0.26428 0.0
O656 O 0.98682 0.23737 0.27259 0.0
O657 O 0.93275 0.1948 0.26259 0.0
H658 H 0.08691 0.23343 0.29543 0.0
H659 H 0.9552 0.2758 0.23349 0.0
O660 O 0.95697 0.21331 0.2285 0.0
H661 H 0.83138 0.2245 0.25547 0.0
H662 H 0.82378 0.1119 0.22299 0.0
H663 H 0.90995 0.12492 0.25593 0.0
H664 H 0.86922 0.18986 0.2559 0.0
H665 H 0.88198 0.17599 0.2276 0.0
O666 O 0.02802 0.31536 0.26466 0.0
H667 H 0.03908 0.21894 0.27962 0.0
H668 H 0.10016 0.33862 0.26913 0.0
H669 H 0.85192 0.06034 0.25169 0.0
H670 H 0.91817 0.31123 0.23276 0.0
H671 H 0.80837 0.05355 0.23512 0.0
H672 H 0.85587 0.28567 0.24385 0.0
O673 O 0.97623 0.17793 0.24655 0.0
H674 H 0.09769 0.36122 0.22844 0.0
H675 H 0.10147 0.2637 0.25463 0.0
H676 H 0.15362 0.29717 0.23993 0.0
H677 H 0.15191 0.34632 0.22671 0.0
H678 H 0.046 0.32685 0.2432 0.0
H679 H 0.14853 0.35452 0.28488 0.0
H680 H 0.14213 0.30165 0.29813 0.0
O681 O 0.02926 0.21563 0.25774 0.0
C682 C 0.95118 0.2098 0.27207 0.0
C683 C 0.09012 0.25668 0.28968 0.0
C684 C 0.12467 0.32466 0.28377 0.0
N685 N 0.06714 0.27782 0.27339 0.0
C686 C 0.06322 0.24862 0.28069 0.0
C687 C 0.09719 0.31551 0.27488 0.0
C688 C 0.12107 0.29498 0.2912 0.0
C689 C 0.92787 0.26425 0.23822 0.0
N690 N 0.91425 0.23068 0.24466 0.0
C691 C 0.90713 0.28453 0.23782 0.0
C692 C 0.87221 0.27021 0.24406 0.0
C693 C 0.85846 0.23589 0.25059 0.0
C694 C 0.88002 0.21643 0.2508 0.0
C695 C 0.84246 0.11451 0.23026 0.0
C696 C 0.89094 0.12224 0.24876 0.0
C697 C 0.87546 0.1507 0.2329 0.0
N698 N 0.89903 0.15423 0.24211 0.0
C699 C 0.85822 0.08558 0.24638 0.0
C700 C 0.83382 0.08179 0.23707 0.0
C701 C 0.00742 0.18455 0.25186 0.0
C702 C 0.09882 0.33995 0.23417 0.0
C703 C 0.10053 0.28503 0.2489 0.0
C704 C 0.13016 0.30393 0.24061 0.0
C705 C 0.1292 0.33153 0.23319 0.0
N706 N 0.07085 0.29347 0.24981 0.0
C707 C 0.06973 0.32053 0.24258 0.0
C708 C 0.96342 0.21711 0.20386 0.0
C709 C -0.00384 0.23151 0.21127 0.0
C710 C 0.96846 0.22071 0.19181 0.0
C711 C 0.04034 0.27642 0.16886 0.0
H712 H 0.97494 0.18476 0.14995 0.0
C713 C 0.06812 0.26862 0.1197 0.0
C714 C 0.03486 0.24968 0.11249 0.0
C715 C 0.06391 0.26764 0.1318 0.0
C716 C 0.9931 0.2108 0.15508 0.0
H717 H 0.05989 0.26179 0.21189 0.0
H718 H 0.06859 0.26797 0.19084 0.0
H719 H 0.96617 0.18124 0.17097 0.0
H720 H 0.97111 0.2159 0.11229 0.0
H721 H 0.96382 0.21481 0.1333 0.0
H722 H 0.06713 0.30607 0.15294 0.0
C723 C 0.03908 0.25403 0.19435 0.0
C724 C 0.98808 0.20874 0.16712 0.0
C725 C 0.03405 0.25023 0.2064 0.0
C726 C -0.00263 0.23038 0.1176 0.0
C727 C 0.99318 0.22959 0.12966 0.0
C728 C 0.04525 0.27856 0.15678 0.0
C729 C 0.00633 0.23899 0.18693 0.0
C730 C 0.01159 0.24152 0.17414 0.0
C731 C 0.02637 0.24787 0.13691 0.0
C732 C 0.02162 0.24577 0.14975 0.0
H733 H 0.93385 0.20266 0.20735 0.0
H734 H 0.9427 0.20927 0.18629 0.0
H735 H 0.05863 0.30226 0.17405 0.0
H736 H 0.09739 0.28372 0.116 0.0
H737 H 0.09008 0.2817 0.13715 0.0
C738 C 0.76943 0.02187 0.45111 0.0
C739 C 0.75738 0.99077 0.44316 0.0
C740 C 0.76211 0.01427 0.46298 0.0
C741 C 0.74177 0.93879 0.48513 0.0
H742 H 0.71404 0.00325 0.50397 0.0
C743 C 0.71372 0.91616 0.53481 0.0
C744 C 0.73368 0.95079 0.54142 0.0
C745 C 0.71194 0.91809 0.52269 0.0
C746 C 0.72184 0.98508 0.49882 0.0
H747 H 0.72756 0.92726 0.44138 0.0
H748 H 0.71448 0.91405 0.46212 0.0
H749 H 0.71941 0.01206 0.48292 0.0
H750 H 0.76668 0.01456 0.54056 0.0
H751 H 0.76357 0.01781 0.51949 0.0
H752 H 0.74461 0.91216 0.5011 0.0
C753 C 0.7301 0.9443 0.45919 0.0
C754 C 0.72503 0.99018 0.48677 0.0
C755 C 0.73751 0.95189 0.44731 0.0
C756 C 0.75124 0.98731 0.53571 0.0
C757 C 0.74918 0.98922 0.52365 0.0
C758 C 0.73842 0.93359 0.49719 0.0
C759 C 0.74243 0.97542 0.46716 0.0
C760 C 0.73579 0.96764 0.47982 0.0
C761 C 0.72969 0.95468 0.517 0.0
C762 C 0.72919 0.95723 0.50416 0.0
H763 H 0.78488 0.05215 0.44819 0.0
H764 H 0.77256 0.03893 0.46891 0.0
H765 H 0.75048 0.92123 0.48003 0.0
H766 H 0.69985 0.8876 0.53899 0.0
H767 H 0.69655 0.89102 0.51776 0.0
C768 C 0.74843 0.76095 0.78195 0.0
C769 C 0.76878 0.75134 0.77375 0.0
C770 C 0.75034 0.75395 0.79377 0.0
C771 C 0.81156 0.73963 0.81527 0.0
H772 H 0.72016 0.70677 0.83494 0.0
C773 C 0.81201 0.71513 0.86515 0.0
C774 C 0.79641 0.73432 0.87173 0.0
C775 C 0.80751 0.71235 0.85304 0.0
C776 C 0.74591 0.71595 0.82954 0.0
H777 H 0.80645 0.72608 0.77147 0.0
H778 H 0.80939 0.71346 0.79213 0.0
H779 H 0.71396 0.71034 0.81392 0.0
H780 H 0.7634 0.76505 0.87082 0.0
H781 H 0.75551 0.76001 0.84981 0.0
H782 H 0.8435 0.74556 0.83098 0.0
C783 C 0.79249 0.727 0.78943 0.0
C784 C 0.74242 0.71814 0.81752 0.0
C785 C 0.7907 0.73413 0.7776 0.0
C786 C 0.77594 0.75024 0.86601 0.0
C787 C 0.77109 0.74707 0.85398 0.0
C788 C 0.81498 0.73719 0.82731 0.0
C789 C 0.77246 0.73698 0.79765 0.0
C790 C 0.77539 0.73089 0.81027 0.0
C791 C 0.78685 0.72818 0.84737 0.0
C792 C 0.78237 0.72621 0.83456 0.0
H793 H 0.73137 0.77434 0.77927 0.0
H794 H 0.7351 0.76262 0.79989 0.0
H795 H 0.8376 0.74988 0.80994 0.0
H796 H 0.82788 0.70255 0.86934 0.0
H797 H 0.81984 0.69755 0.84813 0.0
C798 C 0.9775 0.75472 0.11786 0.0
C799 C 0.94027 0.73578 0.11258 0.0
C800 C 0.98113 0.7534 0.12989 0.0
C801 C 0.92869 0.74215 0.15704 0.0
H802 H 0.00972 0.72492 0.17023 0.0
C803 C 0.02074 0.77232 0.20253 0.0
C804 C 0.99011 0.76023 0.21064 0.0
C805 C 0.01251 0.76556 0.19066 0.0
C806 C 0.98719 0.73013 0.16668 0.0
H807 H 0.87762 0.70036 0.11574 0.0
H808 H 0.88404 0.69846 0.13691 0.0
H809 H -0.00119 0.71955 0.14925 0.0
H810 H 0.92676 0.73072 0.21271 0.0
H811 H 0.91242 0.71839 0.19202 0.0
H812 H 0.91776 0.75387 0.1744 0.0
C813 C 0.91033 0.71431 0.13167 0.0
C814 C 0.98087 0.7269 0.15468 0.0
C815 C 0.90669 0.71529 0.11958 0.0
C816 C 0.95106 0.74076 0.20666 0.0
C817 C 0.94282 0.73381 0.19479 0.0
C818 C 0.93517 0.74563 0.16905 0.0
C819 C 0.94763 0.73334 0.13693 0.0
C820 C 0.95194 0.73342 0.14973 0.0
C821 C 0.97345 0.74631 0.18665 0.0
C822 C 0.96487 0.74019 0.17399 0.0
H823 H 0.00399 0.7706 0.11271 0.0
H824 H 0.01021 0.76873 0.13372 0.0
H825 H 0.90647 0.74773 0.15344 0.0
H826 H 0.05114 0.78749 0.20533 0.0
H827 H 0.03683 0.77614 0.18461 0.0
C828 C 0.26307 0.05912 0.53378 0.0
C829 C 0.24367 0.02673 0.54128 0.0
C830 C 0.26215 0.05354 0.52175 0.0
C831 C 0.20491 0.98055 0.49895 0.0
H832 H 0.29564 0.0461 0.47973 0.0
C833 C 0.20941 0.9536 0.44967 0.0
C834 C 0.22307 0.98709 0.44259 0.0
C835 C 0.21349 0.95743 0.46176 0.0
C836 C 0.27003 0.02771 0.485 0.0
H837 H 0.20919 0.96304 0.5421 0.0
H838 H 0.20828 0.95332 0.52118 0.0
H839 H 0.30014 0.0548 0.50082 0.0
H840 H 0.25252 0.05087 0.44259 0.0
H841 H 0.25961 0.05744 0.46365 0.0
H842 H 0.1749 0.95342 0.4831 0.0
C843 C 0.22335 0.98308 0.52453 0.0
C844 C 0.27255 0.03276 0.49706 0.0
C845 C 0.22402 0.98866 0.53654 0.0
C846 C 0.24148 0.02446 0.44781 0.0
C847 C 0.24584 0.02828 0.45987 0.0
C848 C 0.2025 0.97534 0.4869 0.0
C849 C 0.24207 0.01544 0.51698 0.0
C850 C 0.23992 0.00943 0.50417 0.0
C851 C 0.23166 0.99483 0.46697 0.0
C852 C 0.23493 -0.00094 0.4798 0.0
H853 H 0.27841 0.08881 0.53719 0.0
H854 H 0.27647 0.07914 0.51617 0.0
H855 H 0.179 0.96252 0.50413 0.0
H856 H 0.19518 0.92442 0.44589 0.0
H857 H 0.20258 0.93117 0.46704 0.0
C858 C 0.19727 0.24944 0.77903 0.0
C859 C 0.2163 0.22932 0.77513 0.0
C860 C 0.19566 0.25628 0.79089 0.0
C861 C 0.24326 0.25928 0.81899 0.0
H862 H 0.14602 0.24402 0.83241 0.0
C863 C 0.21045 0.23534 0.86778 0.0
C864 C 0.19365 0.25546 0.87323 0.0
C865 C 0.21448 0.23624 0.85573 0.0
C866 C 0.17352 0.24893 0.82875 0.0
H867 H 0.24844 0.20046 0.78059 0.0
H868 H 0.24496 0.21167 0.80128 0.0
H869 H 0.15057 0.23744 0.81141 0.0
H870 H 0.16782 0.2923 0.87032 0.0
H871 H 0.17448 0.29343 0.84908 0.0
H872 H 0.2658 0.26965 0.83637 0.0
C873 C 0.23193 0.22287 0.79518 0.0
C874 C 0.17617 0.2452 0.81673 0.0
C875 C 0.23369 0.21619 0.78332 0.0
C876 C 0.18085 0.2765 0.86635 0.0
C877 C 0.18453 0.27705 0.85422 0.0
C878 C 0.24052 0.26277 0.83099 0.0
C879 C 0.21297 0.24306 0.7991 0.0
C880 C 0.21088 0.24969 0.81174 0.0
C881 C 0.20157 0.25705 0.84882 0.0
C882 C 0.20544 0.257 0.836 0.0
H883 H 0.18383 0.26021 0.77292 0.0
H884 H 0.18124 0.27232 0.79362 0.0
H885 H 0.27071 0.26383 0.8154 0.0
H886 H 0.22076 0.21897 0.87283 0.0
H887 H 0.22723 0.22013 0.85179 0.0
C888 C 0.12415 0.28543 0.03818 0.0
C889 C 0.0859 0.27914 0.03963 0.0
C890 C 0.14057 0.29097 0.02706 0.0
C891 C 0.13147 0.31837 -0.003 0.0
H892 H 0.17644 0.25379 0.98837 0.0
C893 C 0.15628 0.29053 0.94921 0.0
C894 C 0.18899 0.28637 0.94669 0.0
C895 C 0.14733 0.29455 0.96073 0.0
C896 C 0.16467 0.27262 0.99067 0.0
H897 H 0.03536 0.27482 0.03054 0.0
H898 H 0.06404 0.28447 0.01125 0.0
H899 H 0.15535 0.25277 0.00834 0.0
H900 H 0.23921 0.2854 0.95422 0.0
H901 H 0.22415 0.29334 0.97417 0.0
H902 H 0.14052 0.33804 0.97931 0.0
C903 C 0.08135 0.28526 0.0187 0.0
C904 C 0.15256 0.27196 0.00212 0.0
C905 C 0.06483 0.27938 0.02976 0.0
C906 C 0.21341 0.28792 0.95586 0.0
C907 C 0.2047 0.2923 0.96733 0.0
C908 C 0.14383 0.31924 0.98556 0.0
C909 C 0.11922 0.29078 0.01722 0.0
C910 C 0.13534 0.29439 0.00536 0.0
C911 C 0.17114 0.29487 0.96993 0.0
C912 C 0.16011 0.29598 0.98222 0.0
H913 H 0.14118 0.2855 0.04561 0.0
H914 H 0.16993 0.29538 0.02615 0.0
H915 H 0.11865 0.33628 -0.00068 0.0
H916 H 0.13689 0.28944 0.94234 0.0
H917 H 0.12103 0.29608 0.96244 0.0
C918 C 0.84388 0.09532 0.371 0.0
C919 C 0.80326 0.07373 0.37288 0.0
C920 C 0.85859 0.11311 0.36022 0.0
C921 C 0.82627 0.10726 0.32944 0.0
H922 H 0.92927 0.19958 0.32626 0.0
C923 C 0.90371 0.15573 0.28495 0.0
C924 C 0.93006 0.19579 0.28314 0.0
C925 C 0.88659 0.1424 0.29589 0.0
C926 C 0.9001 0.17419 0.32695 0.0
H927 H 0.74608 0.05574 0.36547 0.0
H928 H 0.77156 0.08887 0.34696 0.0
H929 H 0.90257 0.17649 0.3455 0.0
H930 H 0.95763 0.25373 0.29095 0.0
H931 H 0.92607 0.23103 0.30977 0.0
H932 H 0.82287 0.10619 0.3109 0.0
C933 C 0.79225 0.09058 0.35348 0.0
C934 C 0.88506 0.16046 0.33804 0.0
C935 C 0.77759 0.07194 0.36412 0.0
C936 C 0.93775 0.22255 0.29222 0.0
C937 C 0.91991 0.20943 0.30304 0.0
C938 C 0.84092 0.12152 0.31835 0.0
C939 C 0.83289 0.11042 0.35124 0.0
C940 C 0.84812 0.12652 0.33945 0.0
C941 C 0.89477 0.16908 0.30512 0.0
C942 C 0.87825 0.1549 0.31694 0.0
H943 H 0.86413 0.09673 0.37764 0.0
H944 H 0.89 0.1276 0.35882 0.0
H945 H 0.79803 0.08061 0.3301 0.0
H946 H 0.89759 0.13457 0.27807 0.0
H947 H 0.86793 0.11107 0.29716 0.0
C948 C 0.72401 0.83177 0.70424 0.0
C949 C 0.72576 0.79691 0.704 0.0
C950 C 0.7172 0.84664 0.69399 0.0
C951 C 0.67958 0.8193 0.66402 0.0
H952 H 0.75641 0.92711 0.65641 0.0
C953 C 0.70907 0.87719 0.61702 0.0
C954 C 0.71779 0.91603 0.61503 0.0
C955 C 0.70508 0.86294 0.62836 0.0
C956 C 0.73424 0.89718 0.65847 0.0
H957 H 0.72 0.74938 0.69296 0.0
H958 H 0.7081 0.77522 0.67521 0.0
H959 H 0.75649 0.90168 0.67574 0.0
H960 H 0.72813 0.97002 0.62341 0.0
H961 H 0.72059 0.9449 0.64311 0.0
H962 H 0.65774 0.81451 0.6467 0.0
C963 C 0.71195 0.79107 0.68327 0.0
C964 C 0.73429 0.88268 0.66955 0.0
C965 C 0.71918 0.77651 0.69343 0.0
C966 C 0.72177 0.94004 0.62461 0.0
C967 C 0.71757 0.92572 0.63593 0.0
C968 C 0.67938 0.83384 0.65296 0.0
C969 C 0.71142 0.82651 0.68341 0.0
C970 C 0.70755 0.84336 0.67233 0.0
C971 C 0.70951 0.88714 0.63794 0.0
C972 C 0.70728 0.87268 0.64998 0.0
H973 H 0.72889 0.84807 0.71227 0.0
H974 H 0.71678 0.87399 0.69431 0.0
H975 H 0.65836 0.78897 0.66602 0.0
H976 H 0.70589 0.85795 0.60983 0.0
H977 H 0.69945 0.83324 0.62963 0.0
C978 C 0.86001 0.70508 0.03739 0.0
C979 C 0.89798 0.71113 0.03928 0.0
C980 C 0.84543 0.70117 0.02608 0.0
C981 C 0.85935 0.67849 -0.00409 0.0
H982 H 0.81594 0.74461 0.98747 0.0
C983 C 0.83849 0.71019 0.94813 0.0
C984 C 0.80535 0.71348 0.94548 0.0
C985 C 0.84722 0.7063 0.95969 0.0
C986 C 0.82736 0.72543 0.98971 0.0
H987 H 0.94985 0.71644 0.03078 0.0
H988 H 0.92432 0.70957 0.01115 0.0
H989 H 0.83421 0.74271 0.00761 0.0
H990 H 0.75456 0.71375 0.95286 0.0
H991 H 0.76932 0.70615 0.97286 0.0
H992 H 0.85265 0.66128 0.97801 0.0
C993 C 0.90584 0.70778 0.01839 0.0
C994 C 0.83782 0.72438 0.00125 0.0
C995 C 0.92054 0.71204 0.02966 0.0
C996 C 0.78064 0.71181 0.95459 0.0
C997 C 0.78918 0.70762 0.96609 0.0
C998 C 0.84864 0.67932 0.98437 0.0
C999 C 0.86836 0.70277 0.01648 0.0
C1000 C 0.8543 0.70124 0.00444 0.0
C1001 C 0.82281 0.70533 0.9688 0.0
C1002 C 0.83287 0.70311 0.98112 0.0
H1003 H 0.84187 0.70416 0.04462 0.0
H1004 H 0.81629 0.69706 0.02482 0.0
H1005 H 0.87167 0.6601 -0.00182 0.0
H1006 H 0.85813 0.71141 0.94132 0.0
H1007 H 0.87361 0.70505 0.96149 0.0
C1008 C 0.05706 0.7847 0.29172 0.0
C1009 C 0.07229 0.80433 0.2811 0.0
C1010 C 0.07732 0.80016 0.30208 0.0
C1011 C 0.14547 0.89347 0.31546 0.0
H1012 H 0.15071 0.82796 0.33987 0.0
C1013 C 0.2172 0.95803 0.35961 0.0
C1014 C 0.19733 0.93654 0.3696 0.0
C1015 C 0.20597 0.94136 0.34858 0.0
C1016 C 0.1492 0.84655 0.33317 0.0
H1017 H 0.1214 0.85498 0.27301 0.0
H1018 H 0.15679 0.88227 0.29126 0.0
H1019 H 0.12523 0.7997 0.32072 0.0
H1020 H 0.15039 0.88041 0.37582 0.0
H1021 H 0.13018 0.85152 0.35648 0.0
H1022 H 0.16818 0.93999 0.32794 0.0
C1023 C 0.12902 0.85492 0.29148 0.0
C1024 C 0.13481 0.83043 0.3222 0.0
C1025 C 0.10886 0.83924 0.28105 0.0
C1026 C 0.16631 0.89773 0.3683 0.0
C1027 C 0.15491 0.8811 0.35723 0.0
C1028 C 0.15967 0.90953 0.32643 0.0
C1029 C 0.11318 0.83569 0.3021 0.0
C1030 C 0.13234 0.85363 0.3133 0.0
C1031 C 0.17446 0.90288 0.34725 0.0
C1032 C 0.16125 0.88614 0.33545 0.0
H1033 H 0.02908 0.75759 0.29208 0.0
H1034 H 0.06417 0.78494 0.31014 0.0
H1035 H 0.1433 0.91186 0.30882 0.0
H1036 H 0.24153 0.98788 0.36027 0.0
H1037 H 0.22208 0.95867 0.34109 0.0
C1038 C 0.291 0.07474 0.6225 0.0
C1039 C 0.27473 0.08626 0.61353 0.0
C1040 C 0.29532 0.09046 0.63364 0.0
C1041 C 0.28927 0.16869 0.6505 0.0
H1042 H 0.2723 0.09801 0.67621 0.0
C1043 C 0.29295 0.21953 0.69741 0.0
C1044 C 0.26586 0.19204 0.70526 0.0
C1045 C 0.29946 0.20737 0.68666 0.0
C1046 C 0.27668 0.11806 0.66916 0.0
H1047 H 0.25079 0.12351 0.60895 0.0
H1048 H 0.25615 0.14952 0.62855 0.0
H1049 H 0.27191 0.07628 0.65648 0.0
H1050 H 0.22487 0.13047 0.70834 0.0
H1051 H 0.23434 0.10907 0.68927 0.0
H1052 H 0.29082 0.20926 0.66308 0.0
C1053 C 0.26701 0.12946 0.62699 0.0
C1054 C 0.27723 0.10584 0.65779 0.0
C1055 C 0.26368 0.11446 0.61575 0.0
C1056 C 0.24618 0.15204 0.7024 0.0
C1057 C 0.25183 0.1399 0.69149 0.0
C1058 C 0.28779 0.18056 0.66184 0.0
C1059 C 0.28239 0.11723 0.63613 0.0
C1060 C 0.28341 0.13094 0.64828 0.0
C1061 C 0.27803 0.16755 0.68337 0.0
C1062 C 0.28137 0.15538 0.67134 0.0
H1063 H 0.3002 0.05334 0.62092 0.0
H1064 H 0.30842 0.0812 0.64031 0.0
H1065 H 0.29479 0.18918 0.64347 0.0
H1066 H 0.3087 0.25058 0.69954 0.0
H1067 H 0.32079 0.22941 0.68085 0.0
C1068 C 0.01262 0.63739 0.05681 0.0
C1069 C 0.97418 0.631 0.05751 0.0
C1070 C 0.01903 0.6057 0.05545 0.0
C1071 C 0.97003 0.50078 0.04696 0.0
H1072 H 0.04884 0.49884 0.06681 0.0
C1073 C 0.97697 0.36 0.05647 0.0
C1074 C 0.01437 0.36367 0.05699 0.0
C1075 C 0.97319 0.39335 0.05526 0.0
C1076 C 0.02712 0.49918 0.06109 0.0
H1077 H 0.91231 0.58652 0.05718 0.0
H1078 H 0.92356 0.5314 0.05498 0.0
H1079 H 0.04077 0.55636 0.06686 0.0
H1080 H 0.07713 0.40501 0.05635 0.0
H1081 H 0.07042 0.46295 0.05416 0.0
H1082 H 0.9559 0.44314 0.04139 0.0
C1083 C 0.94873 0.56085 0.05528 0.0
C1084 C 0.02254 0.53216 0.0611 0.0
C1085 C 0.94231 0.59246 0.05662 0.0
C1086 C 0.04786 0.40117 0.05602 0.0
C1087 C 0.04407 0.43442 0.05482 0.0
C1088 C 0.97457 0.46772 0.04697 0.0
C1089 C 0.98713 0.56709 0.05478 0.0
C1090 C 0.99371 0.53316 0.05412 0.0
C1091 C 0.00675 0.43091 0.05457 0.0
C1092 C 0.00294 0.4665 0.05411 0.0
H1093 H 0.03776 0.66679 0.05741 0.0
H1094 H 0.04896 0.61142 0.05496 0.0
H1095 H 0.94792 0.50095 0.04138 0.0
H1096 H 0.95063 0.33148 0.0572 0.0
H1097 H 0.94404 0.38983 0.05521 0.0
C1098 C 0.64218 0.04251 0.3894 0.0
C1099 C 0.6426 0.00708 0.38828 0.0
C1100 C 0.60715 0.04305 0.3883 0.0
C1101 C 0.50076 0.97877 0.39106 0.0
H1102 H 0.49585 0.06345 0.37519 0.0
C1103 C 0.3547 0.97342 0.38383 0.0
C1104 C 0.35308 0.00742 0.38662 0.0
C1105 C 0.3906 0.97469 0.38304 0.0
C1106 C 0.49695 0.03984 0.37972 0.0
H1107 H 0.60684 0.94456 0.3849 0.0
H1108 H 0.54553 0.94559 0.38286 0.0
H1109 H 0.5575 0.06231 0.37545 0.0
H1110 H 0.38785 0.06979 0.39032 0.0
H1111 H 0.45115 0.07195 0.389 0.0
H1112 H 0.44044 0.95637 0.3954 0.0
C1113 C 0.57229 0.97284 0.38474 0.0
C1114 C 0.53214 0.03913 0.37987 0.0
C1115 C 0.60738 0.97227 0.38586 0.0
C1116 C 0.38826 0.04315 0.38816 0.0
C1117 C 0.42441 0.0444 0.38738 0.0
C1118 C 0.46568 0.97945 0.3909 0.0
C1119 C 0.5718 0.0082 0.38605 0.0
C1120 C 0.53435 0.00856 0.38554 0.0
C1121 C 0.42577 0.00993 0.38505 0.0
C1122 C 0.46337 0.0099 0.38521 0.0
H1123 H 0.66882 0.06985 0.39132 0.0
H1124 H 0.60763 0.07064 0.38952 0.0
H1125 H 0.50176 0.95531 0.39572 0.0
H1126 H 0.32814 0.94546 0.38247 0.0
H1127 H 0.3908 0.94786 0.38099 0.0
C1128 C 0.38914 0.35065 0.72169 0.0
C1129 C 0.35308 0.34992 0.72089 0.0
C1130 C 0.42442 0.3856 0.72004 0.0
C1131 C 0.467 0.49211 0.72187 0.0
H1132 H 0.55386 0.49481 0.70498 0.0
C1133 C 0.60929 0.63672 0.71451 0.0
C1134 C 0.64447 0.63697 0.71688 0.0
C1135 C 0.57406 0.60141 0.71355 0.0
C1136 C 0.52993 0.49438 0.70979 0.0
H1137 H 0.32564 0.38508 0.71758 0.0
H1138 H 0.38755 0.44637 0.71464 0.0
H1139 H 0.49075 0.43363 0.70595 0.0
H1140 H 0.67076 0.6005 0.71962 0.0
H1141 H 0.6086 0.53826 0.71811 0.0
H1142 H 0.50609 0.55249 0.72588 0.0
C1143 C 0.38839 0.41985 0.71665 0.0
C1144 C 0.49385 0.45945 0.71033 0.0
C1145 C 0.35299 0.3848 0.7183 0.0
C1146 C 0.64404 0.6011 0.71778 0.0
C1147 C 0.60853 0.56556 0.71688 0.0
C1148 C 0.50298 0.52693 0.72134 0.0
C1149 C 0.42444 0.4206 0.71756 0.0
C1150 C 0.4621 0.45797 0.71642 0.0
C1151 C 0.57309 0.56549 0.71503 0.0
C1152 C 0.53485 0.52843 0.71531 0.0
H1153 H 0.39026 0.32429 0.72372 0.0
H1154 H 0.45173 0.38538 0.72098 0.0
H1155 H 0.44333 0.49168 0.72682 0.0
H1156 H 0.60875 0.66391 0.7136 0.0
H1157 H 0.54738 0.60228 0.71185 0.0
C1158 C 0.39246 0.04093 0.59777 0.0
C1159 C 0.3544 0.00803 0.5975 0.0
C1160 C 0.42505 0.03624 0.59921 0.0
C1161 C 0.45674 0.96415 0.59463 0.0
H1162 H 0.54771 0.03821 0.6125 0.0
C1163 C 0.59259 0.94711 0.59928 0.0
C1164 C 0.62908 0.98112 0.59731 0.0
C1165 C 0.55876 0.94965 0.60069 0.0
C1166 C 0.52257 0.01747 0.60744 0.0
H1167 H 0.32052 0.94447 0.59882 0.0
H1168 H 0.37772 0.93627 0.60146 0.0
H1169 H 0.48805 0.04294 0.61281 0.0
H1170 H 0.65893 0.04457 0.59557 0.0
H1171 H 0.5994 0.04897 0.59796 0.0
H1172 H 0.49131 0.93898 0.58914 0.0
C1173 C 0.38224 0.96566 0.60041 0.0
C1174 C 0.48845 0.02012 0.60761 0.0
C1175 C 0.34952 0.97034 0.59894 0.0
C1176 C 0.63121 0.01788 0.59707 0.0
C1177 C 0.59722 0.02041 0.5985 0.0
C1178 C 0.49076 0.96143 0.59448 0.0
C1179 C 0.42035 -0.00143 0.60044 0.0
C1180 C 0.45535 0.99377 0.60109 0.0
C1181 C 0.56061 0.98621 0.60015 0.0
C1182 C 0.52412 0.9883 0.60079 0.0
H1183 H 0.39727 0.0704 0.59664 0.0
H1184 H 0.45403 0.06212 0.599 0.0
H1185 H 0.43199 0.94386 0.58935 0.0
H1186 H 0.58993 0.9183 0.59957 0.0
H1187 H 0.53103 0.92289 0.60212 0.0
C1188 C 0.37363 0.35494 0.92641 0.0
C1189 C 0.34231 0.36252 0.92596 0.0
C1190 C 0.41225 0.3859 0.92737 0.0
C1191 C 0.47114 0.49087 0.93545 0.0
H1192 H 0.54972 0.48952 0.91535 0.0
C1193 C 0.61958 0.62895 0.92536 0.0
C1194 C 0.65298 0.62468 0.92503 0.0
C1195 C 0.58224 0.59603 0.92653 0.0
C1196 C 0.52823 0.49006 0.92113 0.0
H1197 H 0.32678 0.40838 0.92625 0.0
H1198 H 0.39405 0.46225 0.92777 0.0
H1199 H 0.48329 0.43319 0.91559 0.0
H1200 H 0.67354 0.58266 0.92579 0.0
H1201 H 0.60831 0.52527 0.92787 0.0
H1202 H 0.51599 0.54814 0.9408 0.0
C1203 C 0.38881 0.43243 0.92758 0.0
C1204 C 0.49022 0.4578 0.92128 0.0
C1205 C 0.35026 0.40154 0.92664 0.0
C1206 C 0.64837 0.58693 0.92602 0.0
C1207 C 0.61103 0.55403 0.92714 0.0
C1208 C 0.50913 0.52318 0.93527 0.0
C1209 C 0.42022 0.42497 0.9279 0.0
C1210 C 0.46117 0.45806 0.92835 0.0
C1211 C 0.57761 0.55824 0.92735 0.0
C1212 C 0.53791 0.52323 0.92802 0.0
H1213 H 0.36838 0.32514 0.92595 0.0
H1214 H 0.43586 0.37926 0.92772 0.0
H1215 H 0.44951 0.49162 0.94112 0.0
H1216 H 0.62222 0.65767 0.92461 0.0
H1217 H 0.55692 0.60006 0.92652 0.0
C1218 C 0.03212 0.64152 0.26712 0.0
C1219 C -0.00265 0.64345 0.26712 0.0
C1220 C 0.03081 0.60573 0.26865 0.0
C1221 C 0.96536 0.5004 0.26458 0.0
H1222 H 0.04449 0.49169 0.28244 0.0
C1223 C 0.96117 0.35335 0.26947 0.0
C1224 C -0.00321 0.35376 0.26776 0.0
C1225 C 0.96071 0.38833 0.27077 0.0
C1226 C 0.02239 0.4938 0.27737 0.0
H1227 H 0.93399 0.60952 0.26898 0.0
H1228 H 0.93173 0.54666 0.27172 0.0
H1229 H 0.04358 0.55344 0.28253 0.0
H1230 H 0.05999 0.39108 0.2664 0.0
H1231 H 0.05912 0.45262 0.26855 0.0
H1232 H 0.94455 0.44113 0.25924 0.0
C1233 C 0.95995 0.57296 0.27043 0.0
C1234 C 0.02179 0.52905 0.27744 0.0
C1235 C 0.96124 0.6089 0.26891 0.0
C1236 C 0.03212 0.3899 0.26771 0.0
C1237 C 0.03162 0.42506 0.26899 0.0
C1238 C 0.96595 0.46521 0.26452 0.0
C1239 C -0.00527 0.57102 0.27021 0.0
C1240 C 0.9935 0.5328 0.27095 0.0
C1241 C -0.0042 0.42457 0.27036 0.0
C1242 C -0.00536 0.46164 0.27083 0.0
H1243 H 0.06046 0.66758 0.26574 0.0
H1244 H 0.05803 0.60511 0.26826 0.0
H1245 H 0.94365 0.50261 0.25933 0.0
H1246 H 0.93342 0.32597 0.26965 0.0
H1247 H 0.93274 0.38699 0.27202 0.0
C1248 C 0.03312 0.1399 0.0804 0.0
C1249 C 0.0104 0.14972 0.07319 0.0
C1250 C 0.02634 0.10154 0.08073 0.0
C1251 C 0.02393 0.0262 0.07417 0.0
H1252 H 0.91878 0.936 0.07258 0.0
C1253 C -0.0041 0.86888 0.06724 0.0
C1254 C 0.96429 0.83824 0.07326 0.0
C1255 C 0.00138 0.90684 0.06739 0.0
C1256 C 0.94833 0.96087 0.07315 0.0
H1257 H 0.96222 0.12672 0.06082 0.0
H1258 H 0.95099 0.0598 0.06119 0.0
H1259 H 0.92765 0.00194 0.07297 0.0
H1260 H 0.9142 0.82374 0.08441 0.0
H1261 H 0.92442 0.89006 0.08491 0.0
H1262 H 0.04458 0.98519 0.07472 0.0
C1263 C 0.97364 0.0817 0.06674 0.0
C1264 C 0.95343 -0.00131 0.07321 0.0
C1265 C 0.98019 0.12009 0.06649 0.0
C1266 C 0.93872 0.84658 0.0796 0.0
C1267 C 0.94439 0.88458 0.07983 0.0
C1268 C 0.01882 0.98841 0.07419 0.0
C1269 C -0.00306 0.0721 0.07378 0.0
C1270 C 0.9913 0.0318 0.07373 0.0
C1271 C 0.97557 0.91509 0.07364 0.0
C1272 C 0.98098 0.95529 0.07367 0.0
H1273 H 0.05634 0.1619 0.08578 0.0
H1274 H 0.04421 0.09498 0.08645 0.0
H1275 H 0.05355 0.05105 0.07439 0.0
H1276 H 0.01604 0.86345 0.06222 0.0
H1277 H 0.02541 0.92955 0.06241 0.0
C1278 C 0.85856 0.97676 0.41175 0.0
C1279 C 0.8388 0.97601 0.4015 0.0
C1280 C 0.89306 0.97496 0.41122 0.0
C1281 C 0.97835 0.00968 0.39366 0.0
H1282 H 0.00155 0.94061 0.41182 0.0
C1283 C 0.13024 0.01881 0.39275 0.0
C1284 C 0.14209 0.00747 0.40284 0.0
C1285 C 0.09307 0.01532 0.39222 0.0
C1286 C -0.00417 0.96064 0.40685 0.0
H1287 H 0.83843 0.97156 0.38271 0.0
H1288 H 0.89982 0.96952 0.38175 0.0
H1289 H 0.93463 0.9291 0.41126 0.0
H1290 H 0.12635 0.98672 0.42055 0.0
H1291 H 0.06271 0.98305 0.41994 0.0
H1292 H 0.03967 0.04259 0.38971 0.0
C1293 C 0.8881 0.97081 0.39017 0.0
C1294 C 0.95738 0.95361 0.40642 0.0
C1295 C 0.85297 0.97161 0.39073 0.0
C1296 C 0.11762 0.99541 0.41265 0.0
C1297 C 0.08095 0.99275 0.41222 0.0
C1298 C 0.01702 0.01721 0.39426 0.0
C1299 C 0.90878 0.97338 0.4004 0.0
C1300 C 0.94842 0.9782 0.39989 0.0
C1301 C 0.06749 0.00109 0.40185 0.0
C1302 C 0.02633 0.99301 0.40097 0.0
H1303 H 0.84819 0.98041 0.42015 0.0
H1304 H 0.90869 0.9772 0.41921 0.0
H1305 H 0.97208 0.02937 0.3887 0.0
H1306 H 0.14846 0.0277 0.38503 0.0
H1307 H 0.08373 0.02184 0.38406 0.0
C1308 C 0.10769 0.12873 0.74265 0.0
C1309 C 0.12697 0.14974 0.73259 0.0
C1310 C 0.07182 0.09389 0.74181 0.0
C1311 C 0.02207 0.01047 0.72314 0.0
H1312 H 0.93172 0.98265 0.74278 0.0
C1313 C 0.88095 0.8565 0.72263 0.0
C1314 C 0.86024 0.84321 0.73314 0.0
C1315 C 0.914 0.89411 0.72192 0.0
C1316 C 0.95694 0.98972 0.73736 0.0
H1317 H 0.12371 0.15198 0.71381 0.0
H1318 H 0.06091 0.09004 0.7123 0.0
H1319 H 0.98571 0.05035 0.74238 0.0
H1320 H 0.85943 0.85689 0.75136 0.0
H1321 H 0.91817 0.92141 0.75033 0.0
H1322 H -0.00566 0.9496 0.7185 0.0
C1323 C 0.07344 0.10098 0.72082 0.0
C1324 C 0.98756 0.02859 0.73704 0.0
C1325 C 0.10901 0.13644 0.72169 0.0
C1326 C 0.87479 0.86668 0.74313 0.0
C1327 C 0.9081 0.90385 0.74248 0.0
C1328 C 0.99165 0.97137 0.72357 0.0
C1329 C 0.05508 0.07906 0.73087 0.0
C1330 C 0.02057 0.03919 0.73004 0.0
C1331 C 0.92711 0.91874 0.73177 0.0
C1332 C 0.95901 0.96041 0.73085 0.0
H1333 H 0.12121 0.13843 0.75113 0.0
H1334 H 0.05832 0.07736 0.74967 0.0
H1335 H 0.04757 0.01795 0.71779 0.0
H1336 H 0.87004 0.83907 0.71478 0.0
H1337 H 0.92787 0.9046 0.71353 0.0
C1338 C 0.84865 0.95716 0.57338 0.0
C1339 C 0.84047 0.98257 0.57987 0.0
C1340 C 0.88621 0.96189 0.57337 0.0
C1341 C 0.95904 0.96123 0.58109 0.0
H1342 H 0.05293 0.06393 0.58011 0.0
C1343 C 0.11479 0.98346 0.58771 0.0
C1344 C 0.14491 0.01202 0.58073 0.0
C1345 C 0.07744 0.97959 0.58768 0.0
C1346 C 0.02698 0.035 0.5803 0.0
H1347 H 0.86572 0.03367 0.59118 0.0
H1348 H 0.93138 0.04156 0.59131 0.0
H1349 H 0.98862 0.0589 0.57948 0.0
H1350 H 0.15895 0.05788 0.56791 0.0
H1351 H 0.09387 0.05042 0.56768 0.0
H1352 H -0.00265 0.93727 0.58155 0.0
C1353 C 0.90872 0.01821 0.58612 0.0
C1354 C 0.99013 0.03217 0.58008 0.0
C1355 C 0.87107 0.01364 0.58607 0.0
C1356 C 0.13657 0.03581 0.5735 0.0
C1357 C 0.09929 0.03177 0.57342 0.0
C1358 C -0.00413 0.96406 0.58125 0.0
C1359 C 0.91649 0.99195 0.57992 0.0
C1360 C 0.95575 0.99523 0.5804 0.0
C1361 C 0.06944 0.00403 0.58063 0.0
C1362 C 0.03026 0.00096 0.58078 0.0
H1363 H 0.82589 0.93317 0.56839 0.0
H1364 H 0.89145 0.94178 0.56826 0.0
H1365 H 0.93311 0.93234 0.58155 0.0
H1366 H 0.12028 0.96476 0.59342 0.0
H1367 H 0.05513 0.9581 0.5934 0.0
C1368 C 0.86086 0.86933 0.91741 0.0
C1369 C 0.86395 0.84042 0.91106 0.0
C1370 C 0.89163 0.90824 0.91739 0.0
C1371 C 0.95289 0.99216 0.91152 0.0
H1372 H 0.05935 0.01025 0.91166 0.0
C1373 C 0.0875 0.14727 0.90673 0.0
C1374 C 0.12114 0.15625 0.9133 0.0
C1375 C 0.05589 0.10889 0.90631 0.0
C1376 C 0.02983 0.00576 0.91175 0.0
H1377 H 0.90102 0.82997 0.8993 0.0
H1378 H 0.954 0.89789 0.89897 0.0
H1379 H 0.00438 0.94338 0.91138 0.0
H1380 H 0.14779 0.132 0.92468 0.0
H1381 H 0.09222 0.0653 0.92421 0.0
H1382 H 0.97842 0.05458 0.91239 0.0
C1383 C 0.92841 0.89037 0.90428 0.0
C1384 C -0.00174 0.96737 0.9114 0.0
C1385 C 0.8979 0.85144 0.90441 0.0
C1386 C 0.12242 0.12603 0.91948 0.0
C1387 C 0.09062 0.08772 0.91915 0.0
C1388 C 0.9845 0.03059 0.91199 0.0
C1389 C 0.92593 0.91914 0.9109 0.0
C1390 C 0.95941 0.96009 0.91124 0.0
C1391 C 0.05702 0.07867 0.91253 0.0
C1392 C 0.02335 0.03784 0.91209 0.0
H1393 H 0.83513 0.86177 0.92265 0.0
H1394 H 0.88891 0.92954 0.9227 0.0
H1395 H 0.92337 0.98764 0.91129 0.0
H1396 H 0.08566 0.16982 0.9018 0.0
H1397 H 0.03079 0.10285 0.90096 0.0
C1398 C 0.99074 0.87065 0.24109 0.0
C1399 C 0.98315 0.84775 0.25117 0.0
C1400 C 0.99065 0.90606 0.24151 0.0
C1401 C 0.01587 0.98705 0.26059 0.0
H1402 H 0.96013 0.01686 0.23878 0.0
C1403 C 0.02134 0.13736 0.26225 0.0
C1404 C 0.01618 0.1524 0.25176 0.0
C1405 C 0.01912 0.10069 0.26247 0.0
C1406 C 0.97654 0.00935 0.2448 0.0
H1407 H 0.96835 0.84303 0.26949 0.0
H1408 H 0.96916 0.90588 0.27028 0.0
H1409 H 0.94827 0.9498 0.23873 0.0
H1410 H 0.00801 0.14321 0.23316 0.0
H1411 H 0.0068 0.08062 0.23335 0.0
H1412 H 0.04551 0.04686 0.26635 0.0
C1413 C 0.97468 0.89599 0.26206 0.0
C1414 C 0.96928 0.97078 0.24485 0.0
C1415 C 0.97386 0.86001 0.26158 0.0
C1416 C 0.01197 0.13198 0.24136 0.0
C1417 C 0.01064 0.09587 0.24153 0.0
C1418 C 0.0237 0.02591 0.26041 0.0
C1419 C 0.98381 0.91956 0.25207 0.0
C1420 C 0.98899 0.95939 0.2527 0.0
C1421 C 0.01234 0.07887 0.25214 0.0
C1422 C 0.00436 0.03764 0.25244 0.0
H1423 H -0.00192 0.86178 0.23297 0.0
H1424 H -0.0021 0.92387 0.23371 0.0
H1425 H 0.0318 0.97892 0.26662 0.0
H1426 H 0.024 0.15243 0.27039 0.0
H1427 H 0.02039 0.08855 0.27081 0.0
loop_
_geom_bond_atom_site_label_1
_geom_bond_atom_site_label_2
_geom_bond_distance
_geom_bond_site_symmetry_2
_ccdc_geom_bond_type
Co0 O2 2.143 . S
Co0 O8 2.074 . S
Co0 O11 2.093 . S
Co0 O24 2.097 . S
Co0 N41 2.151 . S
Co0 N49 2.214 . S
Co1 O2 2.160 1_655 S
Co1 O7 2.058 1_655 S
Co1 O17 2.057 . S
Co1 O32 2.037 . S
Co1 N36 2.145 . S
Co1 N57 2.257 . S
O2 Co0 2.143 . S
O2 Co1 2.160 1_455 S
C3 O4 1.278 . S
C3 O11 1.224 . S
O4 C3 1.278 . S
C5 O6 1.245 . S
C5 O17 1.232 1_455 S
O6 C5 1.245 . S
O7 Co1 2.058 1_455 S
O7 C33 1.269 . S
O8 Co0 2.074 . S
O8 C33 1.257 . S
H9 C34 0.930 . S
H10 C40 0.930 . S
O11 Co0 2.093 . S
O11 C3 1.224 . S
H12 C44 0.929 . S
H13 C46 0.930 . S
H14 C47 0.930 . S
H15 C45 0.929 . S
H16 C48 0.928 . S
O17 Co1 2.057 . S
O17 C5 1.232 1_655 S
H18 C37 0.929 . S
H19 C38 0.929 . S
H20 C50 0.931 . S
H21 C42 0.929 . S
H22 C51 0.930 . S
H23 C43 0.931 . S
O24 Co0 2.097 . S
O24 C52 1.214 . S
H25 C53 0.929 . S
H26 C54 0.929 . S
H27 C55 0.930 . S
H28 C56 0.929 . S
H29 C58 0.930 . S
H30 C35 0.930 . S
H31 C39 0.930 . S
O32 Co1 2.037 . S
O32 C52 1.234 1_655 S
C33 O7 1.269 . S
C33 O8 1.257 . S
C34 H9 0.930 . S
C34 C37 1.388 . S
C34 C39 1.418 . S
C35 H30 0.930 . S
C35 C38 1.404 . S
C35 C39 1.353 . S
N36 Co1 2.145 . S
N36 C37 1.397 . S
N36 C38 1.334 . S
C37 H18 0.929 . S
C37 C34 1.388 . S
C37 N36 1.397 . S
C38 H19 0.929 . S
C38 C35 1.404 . S
C38 N36 1.334 . S
C39 H31 0.930 . S
C39 C34 1.418 . S
C39 C35 1.353 . S
C40 H10 0.930 . S
C40 N41 1.330 . S
C40 C42 1.446 . S
N41 Co0 2.151 . S
N41 C40 1.330 . S
N41 C45 1.418 . S
C42 H21 0.929 . S
C42 C40 1.446 . S
C42 C43 1.332 . S
C43 H23 0.931 . S
C43 C42 1.332 . S
C43 C44 1.267 . S
C44 H12 0.929 . S
C44 C43 1.267 . S
C44 C45 1.251 . S
C45 H15 0.929 . S
C45 N41 1.418 . S
C45 C44 1.251 . S
C46 H13 0.930 . S
C46 C48 1.406 . S
C46 C51 1.261 . S
C47 H14 0.930 . S
C47 N49 1.325 . S
C47 C50 1.357 . S
C48 H16 0.928 . S
C48 C46 1.406 . S
C48 N49 1.261 . S
N49 Co0 2.214 . S
N49 C47 1.325 . S
N49 C48 1.261 . S
C50 H20 0.931 . S
C50 C47 1.357 . S
C50 C51 1.312 . S
C51 H22 0.930 . S
C51 C46 1.261 . S
C51 C50 1.312 . S
C52 O24 1.214 . S
C52 O32 1.234 1_455 S
C53 H25 0.929 . S
C53 C56 1.391 . S
C53 C58 1.391 . S
C54 H26 0.929 . S
C54 C55 1.390 . S
C54 N57 1.391 . S
C55 H27 0.930 . S
C55 C54 1.390 . S
C55 C56 1.392 . S
C56 H28 0.929 . S
C56 C53 1.391 . S
C56 C55 1.392 . S
N57 Co1 2.257 . S
N57 C54 1.391 . S
N57 C58 1.388 . S
C58 H29 0.930 . S
C58 C53 1.391 . S
C58 N57 1.388 . S
Co59 O61 2.148 . S
Co59 O67 2.074 . S
Co59 O70 2.093 . S
Co59 O83 2.097 1_545 S
Co59 N100 2.151 . S
Co59 N108 2.214 . S
Co60 O61 2.146 1_565 S
Co60 O66 2.058 1_565 S
Co60 O76 2.057 . S
Co60 O91 2.037 . S
Co60 N95 2.145 . S
Co60 N116 2.257 . S
O61 Co59 2.148 . S
O61 Co60 2.146 1_545 S
C62 O63 1.278 1_545 S
C62 O70 1.224 . S
O63 C62 1.278 1_565 S
C64 O65 1.245 1_565 S
C64 O76 1.232 . S
O65 C64 1.245 1_545 S
O66 Co60 2.058 1_545 S
O66 C92 1.269 . S
O67 Co59 2.074 . S
O67 C92 1.257 . S
H68 C93 0.930 . S
H69 C99 0.930 . S
O70 Co59 2.093 . S
O70 C62 1.224 . S
H71 C103 0.929 . S
H72 C105 0.930 . S
H73 C106 0.930 . S
H74 C104 0.929 . S
H75 C107 0.928 . S
O76 Co60 2.057 . S
O76 C64 1.232 . S
H77 C96 0.929 . S
H78 C97 0.929 . S
H79 C109 0.931 . S
H80 C101 0.929 . S
H81 C110 0.930 . S
H82 C102 0.931 . S
O83 Co59 2.097 1_565 S
O83 C111 1.214 . S
H84 C112 0.929 . S
H85 C113 0.929 . S
H86 C114 0.930 . S
H87 C115 0.929 . S
H88 C117 0.930 . S
H89 C94 0.930 . S
H90 C98 0.930 . S
O91 Co60 2.037 . S
O91 C111 1.234 . S
C92 O66 1.269 . S
C92 O67 1.257 . S
C93 H68 0.930 . S
C93 C96 1.388 . S
C93 C98 1.418 . S
C94 H89 0.930 . S
C94 C97 1.404 . S
C94 C98 1.353 . S
N95 Co60 2.145 . S
N95 C96 1.397 . S
N95 C97 1.334 . S
C96 H77 0.929 . S
C96 C93 1.388 . S
C96 N95 1.397 . S
C97 H78 0.929 . S
C97 C94 1.404 . S
C97 N95 1.334 . S
C98 H90 0.930 . S
C98 C93 1.418 . S
C98 C94 1.353 . S
C99 H69 0.930 . S
C99 N100 1.330 . S
C99 C101 1.446 . S
N100 Co59 2.151 . S
N100 C99 1.330 . S
N100 C104 1.418 . S
C101 H80 0.929 . S
C101 C99 1.446 . S
C101 C102 1.332 . S
C102 H82 0.931 . S
C102 C101 1.332 . S
C102 C103 1.267 . S
C103 H71 0.929 . S
C103 C102 1.267 . S
C103 C104 1.251 . S
C104 H74 0.929 . S
C104 N100 1.418 . S
C104 C103 1.251 . S
C105 H72 0.930 . S
C105 C107 1.406 . S
C105 C110 1.261 . S
C106 H73 0.930 . S
C106 N108 1.325 . S
C106 C109 1.357 . S
C107 H75 0.928 . S
C107 C105 1.406 . S
C107 N108 1.261 . S
N108 Co59 2.214 . S
N108 C106 1.325 . S
N108 C107 1.261 . S
C109 H79 0.931 . S
C109 C106 1.357 . S
C109 C110 1.312 . S
C110 H81 0.930 . S
C110 C105 1.261 . S
C110 C109 1.312 . S
C111 O83 1.214 . S
C111 O91 1.234 . S
C112 H84 0.929 . S
C112 C115 1.391 . S
C112 C117 1.391 . S
C113 H85 0.929 . S
C113 C114 1.390 . S
C113 N116 1.391 . S
C114 H86 0.930 . S
C114 C113 1.390 . S
C114 C115 1.392 . S
C115 H87 0.929 . S
C115 C112 1.391 . S
C115 C114 1.392 . S
N116 Co60 2.257 . S
N116 C113 1.391 . S
N116 C117 1.388 . S
C117 H88 0.930 . S
C117 C112 1.391 . S
C117 N116 1.388 . S
Co118 O120 2.143 . S
Co118 O126 2.074 . S
Co118 O129 2.093 . S
Co118 O142 2.097 . S
Co118 N159 2.151 . S
Co118 N167 2.214 . S
Co119 O120 2.160 . S
Co119 O125 2.058 . S
Co119 O135 2.057 . S
Co119 O150 2.037 . S
Co119 N154 2.145 . S
Co119 N175 2.257 . S
O120 Co118 2.143 . S
O120 Co119 2.160 . S
C121 O122 1.278 . S
C121 O129 1.224 . S
O122 C121 1.278 . S
C123 O124 1.245 . S
C123 O135 1.232 . S
O124 C123 1.245 . S
O125 Co119 2.058 . S
O125 C151 1.269 . S
O126 Co118 2.074 . S
O126 C151 1.257 . S
H127 C152 0.930 . S
H128 C158 0.930 . S
O129 Co118 2.093 . S
O129 C121 1.224 . S
H130 C162 0.929 . S
H131 C164 0.930 . S
H132 C165 0.930 . S
H133 C163 0.929 . S
H134 C166 0.928 . S
O135 Co119 2.057 . S
O135 C123 1.232 . S
H136 C155 0.929 . S
H137 C156 0.929 . S
H138 C168 0.931 . S
H139 C160 0.929 . S
H140 C169 0.930 . S
H141 C161 0.931 . S
O142 Co118 2.097 . S
O142 C170 1.214 . S
H143 C171 0.929 . S
H144 C172 0.929 . S
H145 C173 0.930 . S
H146 C174 0.929 . S
H147 C176 0.930 . S
H148 C153 0.930 . S
H149 C157 0.930 . S
O150 Co119 2.037 . S
O150 C170 1.234 . S
C151 O125 1.269 . S
C151 O126 1.257 . S
C152 H127 0.930 . S
C152 C155 1.388 . S
C152 C157 1.418 . S
C153 H148 0.930 . S
C153 C156 1.404 . S
C153 C157 1.353 . S
N154 Co119 2.145 . S
N154 C155 1.397 . S
N154 C156 1.334 . S
C155 H136 0.929 . S
C155 C152 1.388 . S
C155 N154 1.397 . S
C156 H137 0.929 . S
C156 C153 1.404 . S
C156 N154 1.334 . S
C157 H149 0.930 . S
C157 C152 1.418 . S
C157 C153 1.353 . S
C158 H128 0.930 . S
C158 N159 1.330 . S
C158 C160 1.446 . S
N159 Co118 2.151 . S
N159 C158 1.330 . S
N159 C163 1.418 . S
C160 H139 0.929 . S
C160 C158 1.446 . S
C160 C161 1.332 . S
C161 H141 0.931 . S
C161 C160 1.332 . S
C161 C162 1.267 . S
C162 H130 0.929 . S
C162 C161 1.267 . S
C162 C163 1.251 . S
C163 H133 0.929 . S
C163 N159 1.418 . S
C163 C162 1.251 . S
C164 H131 0.930 . S
C164 C166 1.406 . S
C164 C169 1.261 . S
C165 H132 0.930 . S
C165 N167 1.325 . S
C165 C168 1.357 . S
C166 H134 0.928 . S
C166 C164 1.406 . S
C166 N167 1.261 . S
N167 Co118 2.214 . S
N167 C165 1.325 . S
N167 C166 1.261 . S
C168 H138 0.931 . S
C168 C165 1.357 . S
C168 C169 1.312 . S
C169 H140 0.930 . S
C169 C164 1.261 . S
C169 C168 1.312 . S
C170 O142 1.214 . S
C170 O150 1.234 . S
C171 H143 0.929 . S
C171 C174 1.391 . S
C171 C176 1.391 . S
C172 H144 0.929 . S
C172 C173 1.390 . S
C172 N175 1.391 . S
C173 H145 0.930 . S
C173 C172 1.390 . S
C173 C174 1.392 . S
C174 H146 0.929 . S
C174 C171 1.391 . S
C174 C173 1.392 . S
N175 Co119 2.257 . S
N175 C172 1.391 . S
N175 C176 1.388 . S
C176 H147 0.930 . S
C176 C171 1.391 . S
C176 N175 1.388 . S
Co177 O179 2.143 . S
Co177 O185 2.074 . S
Co177 O188 2.093 . S
Co177 O201 2.097 . S
Co177 N218 2.151 . S
Co177 N226 2.214 . S
Co178 O179 2.160 1_455 S
Co178 O184 2.058 1_455 S
Co178 O194 2.057 . S
Co178 O209 2.037 . S
Co178 N213 2.145 . S
Co178 N234 2.257 . S
O179 Co177 2.143 . S
O179 Co178 2.160 1_655 S
C180 O181 1.278 . S
C180 O188 1.224 . S
O181 C180 1.278 . S
C182 O183 1.245 . S
C182 O194 1.232 1_655 S
O183 C182 1.245 . S
O184 Co178 2.058 1_655 S
O184 C210 1.269 . S
O185 Co177 2.074 . S
O185 C210 1.257 . S
H186 C211 0.930 . S
H187 C217 0.930 . S
O188 Co177 2.093 . S
O188 C180 1.224 . S
H189 C221 0.929 . S
H190 C223 0.930 . S
H191 C224 0.930 . S
H192 C222 0.929 . S
H193 C225 0.928 . S
O194 Co178 2.057 . S
O194 C182 1.232 1_455 S
H195 C214 0.929 . S
H196 C215 0.929 . S
H197 C227 0.931 . S
H198 C219 0.929 . S
H199 C228 0.930 . S
H200 C220 0.931 . S
O201 Co177 2.097 . S
O201 C229 1.214 . S
H202 C230 0.929 . S
H203 C231 0.929 . S
H204 C232 0.930 . S
H205 C233 0.929 . S
H206 C235 0.930 . S
H207 C212 0.930 . S
H208 C216 0.930 . S
O209 Co178 2.037 . S
O209 C229 1.234 1_455 S
C210 O184 1.269 . S
C210 O185 1.257 . S
C211 H186 0.930 . S
C211 C214 1.388 . S
C211 C216 1.418 . S
C212 H207 0.930 . S
C212 C215 1.404 . S
C212 C216 1.353 . S
N213 Co178 2.145 . S
N213 C214 1.397 . S
N213 C215 1.334 . S
C214 H195 0.929 . S
C214 C211 1.388 . S
C214 N213 1.397 . S
C215 H196 0.929 . S
C215 C212 1.404 . S
C215 N213 1.334 . S
C216 H208 0.930 . S
C216 C211 1.418 . S
C216 C212 1.353 . S
C217 H187 0.930 . S
C217 N218 1.330 . S
C217 C219 1.446 . S
N218 Co177 2.151 . S
N218 C217 1.330 . S
N218 C222 1.418 . S
C219 H198 0.929 . S
C219 C217 1.446 . S
C219 C220 1.332 . S
C220 H200 0.931 . S
C220 C219 1.332 . S
C220 C221 1.267 . S
C221 H189 0.929 . S
C221 C220 1.267 . S
C221 C222 1.251 . S
C222 H192 0.929 . S
C222 N218 1.418 . S
C222 C221 1.251 . S
C223 H190 0.930 . S
C223 C225 1.406 . S
C223 C228 1.261 . S
C224 H191 0.930 . S
C224 N226 1.325 . S
C224 C227 1.357 . S
C225 H193 0.928 . S
C225 C223 1.406 . S
C225 N226 1.261 . S
N226 Co177 2.214 . S
N226 C224 1.325 . S
N226 C225 1.261 . S
C227 H197 0.931 . S
C227 C224 1.357 . S
C227 C228 1.312 . S
C228 H199 0.930 . S
C228 C223 1.261 . S
C228 C227 1.312 . S
C229 O201 1.214 . S
C229 O209 1.234 1_655 S
C230 H202 0.929 . S
C230 C233 1.391 . S
C230 C235 1.391 . S
C231 H203 0.929 . S
C231 C232 1.390 . S
C231 N234 1.391 . S
C232 H204 0.930 . S
C232 C231 1.390 . S
C232 C233 1.392 . S
C233 H205 0.929 . S
C233 C230 1.391 . S
C233 C232 1.392 . S
N234 Co178 2.257 . S
N234 C231 1.391 . S
N234 C235 1.388 . S
C235 H206 0.930 . S
C235 C230 1.391 . S
C235 N234 1.388 . S
Co236 O238 2.143 . S
Co236 O244 2.074 . S
Co236 O247 2.093 . S
Co236 O260 2.097 1_565 S
Co236 N277 2.151 . S
Co236 N285 2.214 . S
Co237 O238 2.160 1_545 S
Co237 O243 2.058 1_545 S
Co237 O253 2.057 . S
Co237 O268 2.037 . S
Co237 N272 2.145 . S
Co237 N293 2.257 . S
O238 Co236 2.143 . S
O238 Co237 2.160 1_565 S
C239 O240 1.278 1_565 S
C239 O247 1.224 . S
O240 C239 1.278 1_545 S
C241 O242 1.245 1_545 S
C241 O253 1.232 . S
O242 C241 1.245 1_565 S
O243 Co237 2.058 1_565 S
O243 C269 1.269 . S
O244 Co236 2.074 . S
O244 C269 1.257 . S
H245 C270 0.930 . S
H246 C276 0.930 . S
O247 Co236 2.093 . S
O247 C239 1.224 . S
H248 C280 0.929 . S
H249 C282 0.930 . S
H250 C283 0.930 . S
H251 C281 0.929 . S
H252 C284 0.928 . S
O253 Co237 2.057 . S
O253 C241 1.232 . S
H254 C273 0.929 . S
H255 C274 0.929 . S
H256 C286 0.931 . S
H257 C278 0.929 . S
H258 C287 0.930 . S
H259 C279 0.931 . S
O260 Co236 2.097 1_545 S
O260 C288 1.214 . S
H261 C289 0.929 . S
H262 C290 0.929 . S
H263 C291 0.930 . S
H264 C292 0.929 . S
H265 C294 0.930 . S
H266 C271 0.930 . S
H267 C275 0.930 . S
O268 Co237 2.037 . S
O268 C288 1.234 . S
C269 O243 1.269 . S
C269 O244 1.257 . S
C270 H245 0.930 . S
C270 C273 1.388 . S
C270 C275 1.418 . S
C271 H266 0.930 . S
C271 C274 1.404 . S
C271 C275 1.353 . S
N272 Co237 2.145 . S
N272 C273 1.397 . S
N272 C274 1.334 . S
C273 H254 0.929 . S
C273 C270 1.388 . S
C273 N272 1.397 . S
C274 H255 0.929 . S
C274 C271 1.404 . S
C274 N272 1.334 . S
C275 H267 0.930 . S
C275 C270 1.418 . S
C275 C271 1.353 . S
C276 H246 0.930 . S
C276 N277 1.330 . S
C276 C278 1.446 . S
N277 Co236 2.151 . S
N277 C276 1.330 . S
N277 C281 1.418 . S
C278 H257 0.929 . S
C278 C276 1.446 . S
C278 C279 1.332 . S
C279 H259 0.931 . S
C279 C278 1.332 . S
C279 C280 1.267 . S
C280 H248 0.929 . S
C280 C279 1.267 . S
C280 C281 1.251 . S
C281 H251 0.929 . S
C281 N277 1.418 . S
C281 C280 1.251 . S
C282 H249 0.930 . S
C282 C284 1.406 . S
C282 C287 1.261 . S
C283 H250 0.930 . S
C283 N285 1.325 . S
C283 C286 1.357 . S
C284 H252 0.928 . S
C284 C282 1.406 . S
C284 N285 1.261 . S
N285 Co236 2.214 . S
N285 C283 1.325 . S
N285 C284 1.261 . S
C286 H256 0.931 . S
C286 C283 1.357 . S
C286 C287 1.312 . S
C287 H258 0.930 . S
C287 C282 1.261 . S
C287 C286 1.312 . S
C288 O260 1.214 . S
C288 O268 1.234 . S
C289 H261 0.929 . S
C289 C292 1.391 . S
C289 C294 1.391 . S
C290 H262 0.929 . S
C290 C291 1.390 . S
C290 N293 1.391 . S
C291 H263 0.930 . S
C291 C290 1.390 . S
C291 C292 1.392 . S
C292 H264 0.929 . S
C292 C289 1.391 . S
C292 C291 1.392 . S
N293 Co237 2.257 . S
N293 C290 1.391 . S
N293 C294 1.388 . S
C294 H265 0.930 . S
C294 C289 1.391 . S
C294 N293 1.388 . S
Co295 O297 2.143 . S
Co295 O303 2.074 . S
Co295 O306 2.093 . S
Co295 O319 2.097 . S
Co295 N336 2.151 . S
Co295 N344 2.214 . S
Co296 O297 2.160 . S
Co296 O302 2.058 . S
Co296 O312 2.057 . S
Co296 O327 2.037 . S
Co296 N331 2.145 . S
Co296 N352 2.257 . S
O297 Co295 2.143 . S
O297 Co296 2.160 . S
C298 O299 1.278 . S
C298 O306 1.224 . S
O299 C298 1.278 . S
C300 O301 1.245 . S
C300 O312 1.232 . S
O301 C300 1.245 . S
O302 Co296 2.058 . S
O302 C328 1.269 . S
O303 Co295 2.074 . S
O303 C328 1.257 . S
H304 C329 0.930 . S
H305 C335 0.930 . S
O306 Co295 2.093 . S
O306 C298 1.224 . S
H307 C339 0.929 . S
H308 C341 0.930 . S
H309 C342 0.930 . S
H310 C340 0.929 . S
H311 C343 0.928 . S
O312 Co296 2.057 . S
O312 C300 1.232 . S
H313 C332 0.929 . S
H314 C333 0.929 . S
H315 C345 0.931 . S
H316 C337 0.929 . S
H317 C346 0.930 . S
H318 C338 0.931 . S
O319 Co295 2.097 . S
O319 C347 1.214 . S
H320 C348 0.929 . S
H321 C349 0.929 . S
H322 C350 0.930 . S
H323 C351 0.929 . S
H324 C353 0.930 . S
H325 C330 0.930 . S
H326 C334 0.930 . S
O327 Co296 2.037 . S
O327 C347 1.234 . S
C328 O302 1.269 . S
C328 O303 1.257 . S
C329 H304 0.930 . S
C329 C332 1.388 . S
C329 C334 1.418 . S
C330 H325 0.930 . S
C330 C333 1.404 . S
C330 C334 1.353 . S
N331 Co296 2.145 . S
N331 C332 1.397 . S
N331 C333 1.334 . S
C332 H313 0.929 . S
C332 C329 1.388 . S
C332 N331 1.397 . S
C333 H314 0.929 . S
C333 C330 1.404 . S
C333 N331 1.334 . S
C334 H326 0.930 . S
C334 C329 1.418 . S
C334 C330 1.353 . S
C335 H305 0.930 . S
C335 N336 1.330 . S
C335 C337 1.446 . S
N336 Co295 2.151 . S
N336 C335 1.330 . S
N336 C340 1.418 . S
C337 H316 0.929 . S
C337 C335 1.446 . S
C337 C338 1.332 . S
C338 H318 0.931 . S
C338 C337 1.332 . S
C338 C339 1.267 . S
C339 H307 0.929 . S
C339 C338 1.267 . S
C339 C340 1.251 . S
C340 H310 0.929 . S
C340 N336 1.418 . S
C340 C339 1.251 . S
C341 H308 0.930 . S
C341 C343 1.406 . S
C341 C346 1.261 . S
C342 H309 0.930 . S
C342 N344 1.325 . S
C342 C345 1.357 . S
C343 H311 0.928 . S
C343 C341 1.406 . S
C343 N344 1.261 . S
N344 Co295 2.214 . S
N344 C342 1.325 . S
N344 C343 1.261 . S
C345 H315 0.931 . S
C345 C342 1.357 . S
C345 C346 1.312 . S
C346 H317 0.930 . S
C346 C341 1.261 . S
C346 C345 1.312 . S
C347 O319 1.214 . S
C347 O327 1.234 . S
C348 H320 0.929 . S
C348 C351 1.391 . S
C348 C353 1.391 . S
C349 H321 0.929 . S
C349 C350 1.390 . S
C349 N352 1.391 . S
C350 H322 0.930 . S
C350 C349 1.390 . S
C350 C351 1.392 . S
C351 H323 0.929 . S
C351 C348 1.391 . S
C351 C350 1.392 . S
N352 Co296 2.257 . S
N352 C349 1.391 . S
N352 C353 1.388 . S
C353 H324 0.930 . S
C353 C348 1.391 . S
C353 N352 1.388 . S
Co354 O356 2.143 . S
Co354 O362 2.074 . S
Co354 O365 2.093 . S
Co354 O378 2.097 . S
Co354 N395 2.151 . S
Co354 N403 2.214 . S
Co355 O356 2.160 1_545 S
Co355 O361 2.058 1_545 S
Co355 O371 2.057 . S
Co355 O386 2.037 . S
Co355 N390 2.145 . S
Co355 N411 2.257 . S
O356 Co354 2.143 . S
O356 Co355 2.160 1_565 S
C357 O358 1.278 . S
C357 O365 1.224 . S
O358 C357 1.278 . S
C359 O360 1.234 1_545 S
C359 O371 1.233 . S
O360 C359 1.234 1_565 S
O361 Co355 2.058 1_565 S
O361 C387 1.269 . S
O362 Co354 2.074 . S
O362 C387 1.257 . S
H363 C388 0.930 . S
H364 C394 0.930 . S
O365 Co354 2.093 . S
O365 C357 1.224 . S
H366 C398 0.929 . S
H367 C400 0.930 . S
H368 C401 0.930 . S
H369 C399 0.929 . S
H370 C402 0.928 . S
O371 Co355 2.057 . S
O371 C359 1.233 . S
H372 C391 0.929 . S
H373 C392 0.929 . S
H374 C404 0.931 . S
H375 C396 0.929 . S
H376 C405 0.930 . S
H377 C397 0.931 . S
O378 Co354 2.097 . S
O378 C406 1.214 1_565 S
H379 C407 0.929 . S
H380 C408 0.929 . S
H381 C409 0.930 . S
H382 C410 0.929 . S
H383 C412 0.930 . S
H384 C389 0.930 . S
H385 C393 0.930 . S
O386 Co355 2.037 . S
O386 C406 1.234 . S
C387 O361 1.269 . S
C387 O362 1.257 . S
C388 H363 0.930 . S
C388 C391 1.388 . S
C388 C393 1.418 . S
C389 H384 0.930 . S
C389 C392 1.404 . S
C389 C393 1.353 . S
N390 Co355 2.145 . S
N390 C391 1.397 . S
N390 C392 1.334 . S
C391 H372 0.929 . S
C391 C388 1.388 . S
C391 N390 1.397 . S
C392 H373 0.929 . S
C392 C389 1.404 . S
C392 N390 1.334 . S
C393 H385 0.930 . S
C393 C388 1.418 . S
C393 C389 1.353 . S
C394 H364 0.930 . S
C394 N395 1.330 . S
C394 C396 1.446 . S
N395 Co354 2.151 . S
N395 C394 1.330 . S
N395 C399 1.418 . S
C396 H375 0.929 . S
C396 C394 1.446 . S
C396 C397 1.332 . S
C397 H377 0.931 . S
C397 C396 1.332 . S
C397 C398 1.267 . S
C398 H366 0.929 . S
C398 C397 1.267 . S
C398 C399 1.251 . S
C399 H369 0.929 . S
C399 N395 1.418 . S
C399 C398 1.251 . S
C400 H367 0.930 . S
C400 C402 1.406 . S
C400 C405 1.261 . S
C401 H368 0.930 . S
C401 N403 1.325 . S
C401 C404 1.357 . S
C402 H370 0.928 . S
C402 C400 1.406 . S
C402 N403 1.261 . S
N403 Co354 2.214 . S
N403 C401 1.325 . S
N403 C402 1.261 . S
C404 H374 0.931 . S
C404 C401 1.357 . S
C404 C405 1.312 . S
C405 H376 0.930 . S
C405 C400 1.261 . S
C405 C404 1.312 . S
C406 O378 1.214 1_545 S
C406 O386 1.234 . S
C407 H379 0.929 . S
C407 C410 1.391 . S
C407 C412 1.391 . S
C408 H380 0.929 . S
C408 C409 1.390 . S
C408 N411 1.391 . S
C409 H381 0.930 . S
C409 C408 1.390 . S
C409 C410 1.392 . S
C410 H382 0.929 . S
C410 C407 1.391 . S
C410 C409 1.392 . S
N411 Co355 2.257 . S
N411 C408 1.391 . S
N411 C412 1.388 . S
C412 H383 0.930 . S
C412 C407 1.391 . S
C412 N411 1.388 . S
Co413 O415 2.143 . S
Co413 O421 2.074 . S
Co413 O424 2.093 . S
Co413 O437 2.097 . S
Co413 N454 2.151 . S
Co413 N462 2.214 . S
Co414 O415 2.160 . S
Co414 O420 2.058 . S
Co414 O430 2.057 . S
Co414 O445 2.037 . S
Co414 N449 2.145 . S
Co414 N470 2.257 . S
O415 Co413 2.143 . S
O415 Co414 2.160 . S
C416 O417 1.278 . S
C416 O424 1.224 . S
O417 C416 1.278 . S
C418 O419 1.245 . S
C418 O430 1.232 . S
O419 C418 1.245 . S
O420 Co414 2.058 . S
O420 C446 1.269 . S
O421 Co413 2.074 . S
O421 C446 1.257 . S
H422 C447 0.930 . S
H423 C453 0.930 . S
O424 Co413 2.093 . S
O424 C416 1.224 . S
H425 C457 0.929 . S
H426 C459 0.930 . S
H427 C460 0.930 . S
H428 C458 0.929 . S
H429 C461 0.928 . S
O430 Co414 2.057 . S
O430 C418 1.232 . S
H431 C450 0.929 . S
H432 C451 0.929 . S
H433 C463 0.931 . S
H434 C455 0.929 . S
H435 C464 0.930 . S
H436 C456 0.931 . S
O437 Co413 2.097 . S
O437 C465 1.214 . S
H438 C466 0.929 . S
H439 C467 0.929 . S
H440 C468 0.930 . S
H441 C469 0.929 . S
H442 C471 0.930 . S
H443 C448 0.930 . S
H444 C452 0.930 . S
O445 Co414 2.037 . S
O445 C465 1.234 . S
C446 O420 1.269 . S
C446 O421 1.257 . S
C447 H422 0.930 . S
C447 C450 1.388 . S
C447 C452 1.418 . S
C448 H443 0.930 . S
C448 C451 1.404 . S
C448 C452 1.353 . S
N449 Co414 2.145 . S
N449 C450 1.397 . S
N449 C451 1.334 . S
C450 H431 0.929 . S
C450 C447 1.388 . S
C450 N449 1.397 . S
C451 H432 0.929 . S
C451 C448 1.404 . S
C451 N449 1.334 . S
C452 H444 0.930 . S
C452 C447 1.418 . S
C452 C448 1.353 . S
C453 H423 0.930 . S
C453 N454 1.330 . S
C453 C455 1.446 . S
N454 Co413 2.151 . S
N454 C453 1.330 . S
N454 C458 1.418 . S
C455 H434 0.929 . S
C455 C453 1.446 . S
C455 C456 1.332 . S
C456 H436 0.931 . S
C456 C455 1.332 . S
C456 C457 1.267 . S
C457 H425 0.929 . S
C457 C456 1.267 . S
C457 C458 1.251 . S
C458 H428 0.929 . S
C458 N454 1.418 . S
C458 C457 1.251 . S
C459 H426 0.930 . S
C459 C461 1.406 . S
C459 C464 1.261 . S
C460 H427 0.930 . S
C460 N462 1.325 . S
C460 C463 1.357 . S
C461 H429 0.928 . S
C461 C459 1.406 . S
C461 N462 1.261 . S
N462 Co413 2.214 . S
N462 C460 1.325 . S
N462 C461 1.261 . S
C463 H433 0.931 . S
C463 C460 1.357 . S
C463 C464 1.312 . S
C464 H435 0.930 . S
C464 C459 1.261 . S
C464 C463 1.312 . S
C465 O437 1.214 . S
C465 O445 1.234 . S
C466 H438 0.929 . S
C466 C469 1.391 . S
C466 C471 1.391 . S
C467 H439 0.929 . S
C467 C468 1.390 . S
C467 N470 1.391 . S
C468 H440 0.930 . S
C468 C467 1.390 . S
C468 C469 1.392 . S
C469 H441 0.929 . S
C469 C466 1.391 . S
C469 C468 1.392 . S
N470 Co414 2.257 . S
N470 C467 1.391 . S
N470 C471 1.388 . S
C471 H442 0.930 . S
C471 C466 1.391 . S
C471 N470 1.388 . S
Co472 O474 2.144 . S
Co472 O480 2.074 . S
Co472 O483 2.093 . S
Co472 O496 2.097 1_455 S
Co472 N513 2.151 . S
Co472 N521 2.214 . S
Co473 O474 2.155 1_655 S
Co473 O479 2.058 1_655 S
Co473 O489 2.057 . S
Co473 O504 2.037 . S
Co473 N508 2.145 . S
Co473 N529 2.257 . S
O474 Co472 2.144 . S
O474 Co473 2.155 1_455 S
C475 O476 1.278 1_455 S
C475 O483 1.224 . S
O476 C475 1.278 1_655 S
C477 O478 1.245 1_655 S
C477 O489 1.232 . S
O478 C477 1.245 1_455 S
O479 Co473 2.058 1_455 S
O479 C505 1.269 . S
O480 Co472 2.074 . S
O480 C505 1.257 . S
H481 C506 0.930 . S
H482 C512 0.930 . S
O483 Co472 2.093 . S
O483 C475 1.224 . S
H484 C516 0.929 . S
H485 C518 0.930 . S
H486 C519 0.930 . S
H487 C517 0.929 . S
H488 C520 0.928 . S
O489 Co473 2.057 . S
O489 C477 1.232 . S
H490 C509 0.929 . S
H491 C510 0.929 . S
H492 C522 0.931 . S
H493 C514 0.929 . S
H494 C523 0.930 . S
H495 C515 0.931 . S
O496 Co472 2.097 1_655 S
O496 C524 1.214 . S
H497 C525 0.929 . S
H498 C526 0.929 . S
H499 C527 0.930 . S
H500 C528 0.929 . S
H501 C530 0.930 . S
H502 C507 0.930 . S
H503 C511 0.930 . S
O504 Co473 2.037 . S
O504 C524 1.234 . S
C505 O479 1.269 . S
C505 O480 1.257 . S
C506 H481 0.930 . S
C506 C509 1.388 . S
C506 C511 1.418 . S
C507 H502 0.930 . S
C507 C510 1.404 . S
C507 C511 1.353 . S
N508 Co473 2.145 . S
N508 C509 1.397 . S
N508 C510 1.334 . S
C509 H490 0.929 . S
C509 C506 1.388 . S
C509 N508 1.397 . S
C510 H491 0.929 . S
C510 C507 1.404 . S
C510 N508 1.334 . S
C511 H503 0.930 . S
C511 C506 1.418 . S
C511 C507 1.353 . S
C512 H482 0.930 . S
C512 N513 1.330 . S
C512 C514 1.446 . S
N513 Co472 2.151 . S
N513 C512 1.330 . S
N513 C517 1.418 . S
C514 H493 0.929 . S
C514 C512 1.446 . S
C514 C515 1.332 . S
C515 H495 0.931 . S
C515 C514 1.332 . S
C515 C516 1.267 . S
C516 H484 0.929 . S
C516 C515 1.267 . S
C516 C517 1.251 . S
C517 H487 0.929 . S
C517 N513 1.418 . S
C517 C516 1.251 . S
C518 H485 0.930 . S
C518 C520 1.406 . S
C518 C523 1.261 . S
C519 H486 0.930 . S
C519 N521 1.325 . S
C519 C522 1.357 . S
C520 H488 0.928 . S
C520 C518 1.406 . S
C520 N521 1.261 . S
N521 Co472 2.214 . S
N521 C519 1.325 . S
N521 C520 1.261 . S
C522 H492 0.931 . S
C522 C519 1.357 . S
C522 C523 1.312 . S
C523 H494 0.930 . S
C523 C518 1.261 . S
C523 C522 1.312 . S
C524 O496 1.214 . S
C524 O504 1.234 . S
C525 H497 0.929 . S
C525 C528 1.391 . S
C525 C530 1.391 . S
C526 H498 0.929 . S
C526 C527 1.390 . S
C526 N529 1.391 . S
C527 H499 0.930 . S
C527 C526 1.390 . S
C527 C528 1.392 . S
C528 H500 0.929 . S
C528 C525 1.391 . S
C528 C527 1.392 . S
N529 Co473 2.257 . S
N529 C526 1.391 . S
N529 C530 1.388 . S
C530 H501 0.930 . S
C530 C525 1.391 . S
C530 N529 1.388 . S
Co531 O533 2.143 . S
Co531 O539 2.074 . S
Co531 O542 2.093 . S
Co531 O555 2.097 . S
Co531 N572 2.151 . S
Co531 N580 2.214 . S
Co532 O533 2.160 1_565 S
Co532 O538 2.058 1_565 S
Co532 O548 2.057 . S
Co532 O563 2.037 . S
Co532 N567 2.145 . S
Co532 N588 2.257 . S
O533 Co531 2.143 . S
O533 Co532 2.160 1_545 S
C534 O535 1.278 . S
C534 O542 1.224 . S
O535 C534 1.278 . S
C536 O537 1.231 1_565 S
C536 O548 1.233 . S
O537 C536 1.231 1_545 S
O538 Co532 2.058 1_545 S
O538 C564 1.269 . S
O539 Co531 2.074 . S
O539 C564 1.257 . S
H540 C565 0.930 . S
H541 C571 0.930 . S
O542 Co531 2.093 . S
O542 C534 1.224 . S
H543 C575 0.929 . S
H544 C577 0.930 . S
H545 C578 0.930 . S
H546 C576 0.929 . S
H547 C579 0.928 . S
O548 Co532 2.057 . S
O548 C536 1.233 . S
H549 C568 0.929 . S
H550 C569 0.929 . S
H551 C581 0.931 . S
H552 C573 0.929 . S
H553 C582 0.930 . S
H554 C574 0.931 . S
O555 Co531 2.097 . S
O555 C583 1.214 1_545 S
H556 C584 0.929 . S
H557 C585 0.929 . S
H558 C586 0.930 . S
H559 C587 0.929 . S
H560 C589 0.930 . S
H561 C566 0.930 . S
H562 C570 0.930 . S
O563 Co532 2.037 . S
O563 C583 1.234 . S
C564 O538 1.269 . S
C564 O539 1.257 . S
C565 H540 0.930 . S
C565 C568 1.388 . S
C565 C570 1.418 . S
C566 H561 0.930 . S
C566 C569 1.404 . S
C566 C570 1.353 . S
N567 Co532 2.145 . S
N567 C568 1.397 . S
N567 C569 1.334 . S
C568 H549 0.929 . S
C568 C565 1.388 . S
C568 N567 1.397 . S
C569 H550 0.929 . S
C569 C566 1.404 . S
C569 N567 1.334 . S
C570 H562 0.930 . S
C570 C565 1.418 . S
C570 C566 1.353 . S
C571 H541 0.930 . S
C571 N572 1.330 . S
C571 C573 1.446 . S
N572 Co531 2.151 . S
N572 C571 1.330 . S
N572 C576 1.418 . S
C573 H552 0.929 . S
C573 C571 1.446 . S
C573 C574 1.332 . S
C574 H554 0.931 . S
C574 C573 1.332 . S
C574 C575 1.267 . S
C575 H543 0.929 . S
C575 C574 1.267 . S
C575 C576 1.251 . S
C576 H546 0.929 . S
C576 N572 1.418 . S
C576 C575 1.251 . S
C577 H544 0.930 . S
C577 C579 1.406 . S
C577 C582 1.261 . S
C578 H545 0.930 . S
C578 N580 1.325 . S
C578 C581 1.357 . S
C579 H547 0.928 . S
C579 C577 1.406 . S
C579 N580 1.261 . S
N580 Co531 2.214 . S
N580 C578 1.325 . S
N580 C579 1.261 . S
C581 H551 0.931 . S
C581 C578 1.357 . S
C581 C582 1.312 . S
C582 H553 0.930 . S
C582 C577 1.261 . S
C582 C581 1.312 . S
C583 O555 1.214 1_565 S
C583 O563 1.234 . S
C584 H556 0.929 . S
C584 C587 1.391 . S
C584 C589 1.391 . S
C585 H557 0.929 . S
C585 C586 1.390 . S
C585 N588 1.391 . S
C586 H558 0.930 . S
C586 C585 1.390 . S
C586 C587 1.392 . S
C587 H559 0.929 . S
C587 C584 1.391 . S
C587 C586 1.392 . S
N588 Co532 2.257 . S
N588 C585 1.391 . S
N588 C589 1.388 . S
C589 H560 0.930 . S
C589 C584 1.391 . S
C589 N588 1.388 . S
Co590 O592 2.143 . S
Co590 O598 2.074 . S
Co590 O601 2.093 . S
Co590 O614 2.097 . S
Co590 N631 2.151 . S
Co590 N639 2.214 . S
Co591 O592 2.160 . S
Co591 O597 2.058 . S
Co591 O607 2.057 . S
Co591 O622 2.037 . S
Co591 N626 2.145 . S
Co591 N647 2.257 . S
O592 Co590 2.143 . S
O592 Co591 2.160 . S
C593 O594 1.278 . S
C593 O601 1.224 . S
O594 C593 1.278 . S
C595 O596 1.245 . S
C595 O607 1.232 . S
O596 C595 1.245 . S
O597 Co591 2.058 . S
O597 C623 1.269 . S
O598 Co590 2.074 . S
O598 C623 1.257 . S
H599 C624 0.930 . S
H600 C630 0.930 . S
O601 Co590 2.093 . S
O601 C593 1.224 . S
H602 C634 0.929 . S
H603 C636 0.930 . S
H604 C637 0.930 . S
H605 C635 0.929 . S
H606 C638 0.928 . S
O607 Co591 2.057 . S
O607 C595 1.232 . S
H608 C627 0.929 . S
H609 C628 0.929 . S
H610 C640 0.931 . S
H611 C632 0.929 . S
H612 C641 0.944 . S
H613 C633 0.931 . S
O614 Co590 2.097 . S
O614 C642 1.214 . S
H615 C643 0.929 . S
H616 C644 0.929 . S
H617 C645 0.930 . S
H618 C646 0.929 . S
H619 C648 0.930 . S
H620 C625 0.930 . S
H621 C629 0.930 . S
O622 Co591 2.037 . S
O622 C642 1.234 . S
C623 O597 1.269 . S
C623 O598 1.257 . S
C624 H599 0.930 . S
C624 C627 1.388 . S
C624 C629 1.418 . S
C625 H620 0.930 . S
C625 C628 1.404 . S
C625 C629 1.353 . S
N626 Co591 2.145 . S
N626 C627 1.397 . S
N626 C628 1.334 . S
C627 H608 0.929 . S
C627 C624 1.388 . S
C627 N626 1.397 . S
C628 H609 0.929 . S
C628 C625 1.404 . S
C628 N626 1.334 . S
C629 H621 0.930 . S
C629 C624 1.418 . S
C629 C625 1.353 . S
C630 H600 0.930 . S
C630 N631 1.330 . S
C630 C632 1.446 . S
N631 Co590 2.151 . S
N631 C630 1.330 . S
N631 C635 1.418 . S
C632 H611 0.929 . S
C632 C630 1.446 . S
C632 C633 1.332 . S
C633 H613 0.931 . S
C633 C632 1.332 . S
C633 C634 1.267 . S
C634 H602 0.929 . S
C634 C633 1.267 . S
C634 C635 1.251 . S
C635 H605 0.929 . S
C635 N631 1.418 . S
C635 C634 1.251 . S
C636 H603 0.930 . S
C636 C638 1.406 . S
C636 C641 1.261 . S
C637 H604 0.930 . S
C637 N639 1.325 . S
C637 C640 1.357 . S
C638 H606 0.928 . S
C638 C636 1.406 . S
C638 N639 1.261 . S
N639 Co590 2.214 . S
N639 C637 1.325 . S
N639 C638 1.261 . S
C640 H610 0.931 . S
C640 C637 1.357 . S
C640 C641 1.312 . S
C641 H612 0.944 . S
C641 C636 1.261 . S
C641 C640 1.312 . S
C642 O614 1.214 . S
C642 O622 1.234 . S
C643 H615 0.929 . S
C643 C646 1.391 . S
C643 C648 1.391 . S
C644 H616 0.929 . S
C644 C645 1.390 . S
C644 N647 1.391 . S
C645 H617 0.930 . S
C645 C644 1.390 . S
C645 C646 1.392 . S
C646 H618 0.929 . S
C646 C643 1.391 . S
C646 C645 1.392 . S
N647 Co591 2.257 . S
N647 C644 1.391 . S
N647 C648 1.388 . S
C648 H619 0.930 . S
C648 C643 1.391 . S
C648 N647 1.388 . S
Co649 O651 2.144 . S
Co649 O657 2.074 . S
Co649 O660 2.093 . S
Co649 O673 2.097 1_655 S
Co649 N690 2.151 . S
Co649 N698 2.214 . S
Co650 O651 2.155 1_455 S
Co650 O656 2.058 1_455 S
Co650 O666 2.057 . S
Co650 O681 2.037 . S
Co650 N685 2.145 . S
Co650 N706 2.257 . S
O651 Co649 2.144 . S
O651 Co650 2.155 1_655 S
C652 O653 1.278 1_655 S
C652 O660 1.224 . S
O653 C652 1.278 1_455 S
C654 O655 1.245 1_455 S
C654 O666 1.232 . S
O655 C654 1.245 1_655 S
O656 Co650 2.058 1_655 S
O656 C682 1.269 . S
O657 Co649 2.074 . S
O657 C682 1.257 . S
H658 C683 0.930 . S
H659 C689 0.930 . S
O660 Co649 2.093 . S
O660 C652 1.224 . S
H661 C693 0.929 . S
H662 C695 0.930 . S
H663 C696 0.930 . S
H664 C694 0.929 . S
H665 C697 0.928 . S
O666 Co650 2.057 . S
O666 C654 1.232 . S
H667 C686 0.929 . S
H668 C687 0.929 . S
H669 C699 0.931 . S
H670 C691 0.929 . S
H671 C700 0.930 . S
H672 C692 0.931 . S
O673 Co649 2.097 1_455 S
O673 C701 1.214 . S
H674 C702 0.929 . S
H675 C703 0.929 . S
H676 C704 0.930 . S
H677 C705 0.929 . S
H678 C707 0.930 . S
H679 C684 0.930 . S
H680 C688 0.930 . S
O681 Co650 2.037 . S
O681 C701 1.234 . S
C682 O656 1.269 . S
C682 O657 1.257 . S
C683 H658 0.930 . S
C683 C686 1.388 . S
C683 C688 1.418 . S
C684 H679 0.930 . S
C684 C687 1.404 . S
C684 C688 1.353 . S
N685 Co650 2.145 . S
N685 C686 1.397 . S
N685 C687 1.334 . S
C686 H667 0.929 . S
C686 C683 1.388 . S
C686 N685 1.397 . S
C687 H668 0.929 . S
C687 C684 1.404 . S
C687 N685 1.334 . S
C688 H680 0.930 . S
C688 C683 1.418 . S
C688 C684 1.353 . S
C689 H659 0.930 . S
C689 N690 1.330 . S
C689 C691 1.446 . S
N690 Co649 2.151 . S
N690 C689 1.330 . S
N690 C694 1.418 . S
C691 H670 0.929 . S
C691 C689 1.446 . S
C691 C692 1.332 . S
C692 H672 0.931 . S
C692 C691 1.332 . S
C692 C693 1.267 . S
C693 H661 0.929 . S
C693 C692 1.267 . S
C693 C694 1.251 . S
C694 H664 0.929 . S
C694 N690 1.418 . S
C694 C693 1.251 . S
C695 H662 0.930 . S
C695 C697 1.406 . S
C695 C700 1.261 . S
C696 H663 0.930 . S
C696 N698 1.325 . S
C696 C699 1.357 . S
C697 H665 0.928 . S
C697 C695 1.406 . S
C697 N698 1.261 . S
N698 Co649 2.214 . S
N698 C696 1.325 . S
N698 C697 1.261 . S
C699 H669 0.931 . S
C699 C696 1.357 . S
C699 C700 1.312 . S
C700 H671 0.930 . S
C700 C695 1.261 . S
C700 C699 1.312 . S
C701 O673 1.214 . S
C701 O681 1.234 . S
C702 H674 0.929 . S
C702 C705 1.391 . S
C702 C707 1.391 . S
C703 H675 0.929 . S
C703 C704 1.390 . S
C703 N706 1.391 . S
C704 H676 0.930 . S
C704 C703 1.390 . S
C704 C705 1.392 . S
C705 H677 0.929 . S
C705 C702 1.391 . S
C705 C704 1.392 . S
N706 Co650 2.257 . S
N706 C703 1.391 . S
N706 C707 1.388 . S
C707 H678 0.930 . S
C707 C702 1.391 . S
C707 N706 1.388 . S
C708 C709 1.349 . S
C708 C710 1.327 . S
C708 H733 0.950 . S
C709 C708 1.349 . S
C709 C725 1.349 1_655 S
C710 C708 1.327 . S
C710 C729 1.429 1_655 S
C710 H734 0.950 . S
C711 C728 1.574 . S
C711 C730 1.368 . S
C711 H735 0.949 . S
H712 C716 0.949 . S
C713 C714 1.349 . S
C713 C715 1.327 . S
C713 H736 0.950 . S
C714 C713 1.349 . S
C714 C726 1.349 . S
C715 C713 1.327 . S
C715 C731 1.429 . S
C715 H737 0.950 . S
C716 H712 0.949 . S
C716 C724 1.574 . S
C716 C732 1.368 1_655 S
H717 C725 0.950 . S
H718 C723 0.950 . S
H719 C724 0.949 . S
H720 C726 0.950 1_655 S
H721 C727 0.950 1_655 S
H722 C728 0.949 . S
C723 H718 0.950 . S
C723 C725 1.327 . S
C723 C729 1.429 . S
C724 C716 1.574 . S
C724 H719 0.949 . S
C724 C730 1.368 1_655 S
C725 C709 1.349 1_455 S
C725 H717 0.950 . S
C725 C723 1.327 . S
C726 C714 1.349 . S
C726 H720 0.950 1_455 S
C726 C727 1.327 . S
C727 H721 0.950 1_455 S
C727 C726 1.327 . S
C727 C731 1.429 . S
C728 C711 1.574 . S
C728 H722 0.949 . S
C728 C732 1.368 . S
C729 C710 1.429 1_455 S
C729 C723 1.429 . S
C729 C730 1.523 . S
C730 C711 1.368 . S
C730 C724 1.368 1_455 S
C730 C729 1.523 . S
C731 C715 1.429 . S
C731 C727 1.429 . S
C731 C732 1.523 . S
C732 C716 1.368 1_455 S
C732 C728 1.368 . S
C732 C731 1.523 . S
H733 C708 0.950 . S
H734 C710 0.950 . S
H735 C711 0.949 . S
H736 C713 0.950 . S
H737 C715 0.950 . S
C738 C739 1.349 . S
C738 C740 1.327 . S
C738 H763 0.950 . S
C739 C738 1.349 . S
C739 C755 1.349 1_545 S
C740 C738 1.327 . S
C740 C759 1.429 1_545 S
C740 H764 0.950 . S
C741 C758 1.574 . S
C741 C760 1.368 . S
C741 H765 0.949 . S
H742 C746 0.949 . S
C743 C744 1.349 . S
C743 C745 1.327 . S
C743 H766 0.950 . S
C744 C743 1.349 . S
C744 C756 1.349 . S
C745 C743 1.327 . S
C745 C761 1.429 . S
C745 H767 0.950 . S
C746 H742 0.949 . S
C746 C754 1.574 . S
C746 C762 1.368 1_545 S
H747 C755 0.950 . S
H748 C753 0.950 . S
H749 C754 0.949 . S
H750 C756 0.950 1_545 S
H751 C757 0.950 1_545 S
H752 C758 0.949 . S
C753 H748 0.950 . S
C753 C755 1.327 . S
C753 C759 1.429 . S
C754 C746 1.574 . S
C754 H749 0.949 . S
C754 C760 1.368 1_545 S
C755 C739 1.349 1_565 S
C755 H747 0.950 . S
C755 C753 1.327 . S
C756 C744 1.349 . S
C756 H750 0.950 1_565 S
C756 C757 1.327 . S
C757 H751 0.950 1_565 S
C757 C756 1.327 . S
C757 C761 1.429 . S
C758 C741 1.574 . S
C758 H752 0.949 . S
C758 C762 1.368 . S
C759 C740 1.429 1_565 S
C759 C753 1.429 . S
C759 C760 1.523 . S
C760 C741 1.368 . S
C760 C754 1.368 1_565 S
C760 C759 1.523 . S
C761 C745 1.429 . S
C761 C757 1.429 . S
C761 C762 1.523 . S
C762 C746 1.368 1_565 S
C762 C758 1.368 . S
C762 C761 1.523 . S
H763 C738 0.950 . S
H764 C740 0.950 . S
H765 C741 0.949 . S
H766 C743 0.950 . S
H767 C745 0.950 . S
C768 C769 1.349 . S
C768 C770 1.327 . S
C768 H793 0.950 . S
C769 C768 1.349 . S
C769 C785 1.349 . S
C770 C768 1.327 . S
C770 C789 1.429 . S
C770 H794 0.950 . S
C771 C788 1.574 . S
C771 C790 1.368 . S
C771 H795 0.949 . S
H772 C776 0.949 . S
C773 C774 1.349 . S
C773 C775 1.327 . S
C773 H796 0.950 . S
C774 C773 1.349 . S
C774 C786 1.349 . S
C775 C773 1.327 . S
C775 C791 1.429 . S
C775 H797 0.950 . S
C776 H772 0.949 . S
C776 C784 1.574 . S
C776 C792 1.368 . S
H777 C785 0.950 . S
H778 C783 0.950 . S
H779 C784 0.949 . S
H780 C786 0.950 . S
H781 C787 0.950 . S
H782 C788 0.949 . S
C783 H778 0.950 . S
C783 C785 1.327 . S
C783 C789 1.429 . S
C784 C776 1.574 . S
C784 H779 0.949 . S
C784 C790 1.368 . S
C785 C769 1.349 . S
C785 H777 0.950 . S
C785 C783 1.327 . S
C786 C774 1.349 . S
C786 H780 0.950 . S
C786 C787 1.327 . S
C787 H781 0.950 . S
C787 C786 1.327 . S
C787 C791 1.429 . S
C788 C771 1.574 . S
C788 H782 0.949 . S
C788 C792 1.368 . S
C789 C770 1.429 . S
C789 C783 1.429 . S
C789 C790 1.523 . S
C790 C771 1.368 . S
C790 C784 1.368 . S
C790 C789 1.523 . S
C791 C775 1.429 . S
C791 C787 1.429 . S
C791 C792 1.523 . S
C792 C776 1.368 . S
C792 C788 1.368 . S
C792 C791 1.523 . S
H793 C768 0.950 . S
H794 C770 0.950 . S
H795 C771 0.949 . S
H796 C773 0.950 . S
H797 C775 0.950 . S
C798 C799 1.349 . S
C798 C800 1.327 . S
C798 H823 0.950 . S
C799 C798 1.349 . S
C799 C815 1.349 . S
C800 C798 1.327 . S
C800 C819 1.429 . S
C800 H824 0.950 . S
C801 C818 1.574 . S
C801 C820 1.368 . S
C801 H825 0.949 . S
H802 C806 0.949 . S
C803 C804 1.349 . S
C803 C805 1.327 1_455 S
C803 H826 0.950 . S
C804 C803 1.349 . S
C804 C816 1.349 . S
C805 C803 1.327 1_655 S
C805 C821 1.429 . S
C805 H827 0.950 . S
C806 H802 0.949 . S
C806 C814 1.574 . S
C806 C822 1.368 . S
H807 C815 0.950 . S
H808 C813 0.950 . S
H809 C814 0.949 . S
H810 C816 0.950 . S
H811 C817 0.950 . S
H812 C818 0.949 . S
C813 H808 0.950 . S
C813 C815 1.327 . S
C813 C819 1.429 . S
C814 C806 1.574 . S
C814 H809 0.949 . S
C814 C820 1.368 . S
C815 C799 1.349 . S
C815 H807 0.950 . S
C815 C813 1.327 . S
C816 C804 1.349 . S
C816 H810 0.950 . S
C816 C817 1.327 . S
C817 H811 0.950 . S
C817 C816 1.327 . S
C817 C821 1.429 1_455 S
C818 C801 1.574 . S
C818 H812 0.949 . S
C818 C822 1.368 . S
C819 C800 1.429 . S
C819 C813 1.429 . S
C819 C820 1.523 . S
C820 C801 1.368 . S
C820 C814 1.368 . S
C820 C819 1.523 . S
C821 C805 1.429 . S
C821 C817 1.429 1_655 S
C821 C822 1.523 . S
C822 C806 1.368 . S
C822 C818 1.368 . S
C822 C821 1.523 . S
H823 C798 0.950 . S
H824 C800 0.950 . S
H825 C801 0.949 . S
H826 C803 0.950 . S
H827 C805 0.950 . S
C828 C829 1.349 . S
C828 C830 1.327 . S
C828 H853 0.950 . S
C829 C828 1.349 . S
C829 C845 1.349 . S
C830 C828 1.327 . S
C830 C849 1.429 . S
C830 H854 0.950 . S
C831 C848 1.574 . S
C831 C850 1.368 1_565 S
C831 H855 0.949 . S
H832 C836 0.949 . S
C833 C834 1.349 . S
C833 C835 1.327 . S
C833 H856 0.950 . S
C834 C833 1.349 . S
C834 C846 1.349 1_565 S
C835 C833 1.327 . S
C835 C851 1.429 1_565 S
C835 H857 0.950 . S
C836 H832 0.949 . S
C836 C844 1.574 . S
C836 C852 1.368 . S
H837 C845 0.950 . S
H838 C843 0.950 1_565 S
H839 C844 0.949 . S
H840 C846 0.950 . S
H841 C847 0.950 . S
H842 C848 0.949 . S
C843 H838 0.950 1_545 S
C843 C845 1.327 . S
C843 C849 1.429 . S
C844 C836 1.574 . S
C844 H839 0.949 . S
C844 C850 1.368 . S
C845 C829 1.349 . S
C845 H837 0.950 . S
C845 C843 1.327 . S
C846 C834 1.349 1_545 S
C846 H840 0.950 . S
C846 C847 1.327 . S
C847 H841 0.950 . S
C847 C846 1.327 . S
C847 C851 1.429 . S
C848 C831 1.574 . S
C848 H842 0.949 . S
C848 C852 1.368 1_565 S
C849 C830 1.429 . S
C849 C843 1.429 . S
C849 C850 1.523 . S
C850 C831 1.368 1_545 S
C850 C844 1.368 . S
C850 C849 1.523 . S
C851 C835 1.429 1_545 S
C851 C847 1.429 . S
C851 C852 1.523 . S
C852 C836 1.368 . S
C852 C848 1.368 1_545 S
C852 C851 1.523 . S
H853 C828 0.950 . S
H854 C830 0.950 . S
H855 C831 0.949 . S
H856 C833 0.950 . S
H857 C835 0.950 . S
C858 C859 1.349 . S
C858 C860 1.327 . S
C858 H883 0.950 . S
C859 C858 1.349 . S
C859 C875 1.349 . S
C860 C858 1.327 . S
C860 C879 1.429 . S
C860 H884 0.950 . S
C861 C878 1.574 . S
C861 C880 1.368 . S
C861 H885 0.949 . S
H862 C866 0.949 . S
C863 C864 1.349 . S
C863 C865 1.327 . S
C863 H886 0.950 . S
C864 C863 1.349 . S
C864 C876 1.349 . S
C865 C863 1.327 . S
C865 C881 1.429 . S
C865 H887 0.950 . S
C866 H862 0.949 . S
C866 C874 1.574 . S
C866 C882 1.368 . S
H867 C875 0.950 . S
H868 C873 0.950 . S
H869 C874 0.949 . S
H870 C876 0.950 . S
H871 C877 0.950 . S
H872 C878 0.949 . S
C873 H868 0.950 . S
C873 C875 1.327 . S
C873 C879 1.429 . S
C874 C866 1.574 . S
C874 H869 0.949 . S
C874 C880 1.368 . S
C875 C859 1.349 . S
C875 H867 0.950 . S
C875 C873 1.327 . S
C876 C864 1.349 . S
C876 H870 0.950 . S
C876 C877 1.327 . S
C877 H871 0.950 . S
C877 C876 1.327 . S
C877 C881 1.429 . S
C878 C861 1.574 . S
C878 H872 0.949 . S
C878 C882 1.368 . S
C879 C860 1.429 . S
C879 C873 1.429 . S
C879 C880 1.523 . S
C880 C861 1.368 . S
C880 C874 1.368 . S
C880 C879 1.523 . S
C881 C865 1.429 . S
C881 C877 1.429 . S
C881 C882 1.523 . S
C882 C866 1.368 . S
C882 C878 1.368 . S
C882 C881 1.523 . S
H883 C858 0.950 . S
H884 C860 0.950 . S
H885 C861 0.949 . S
H886 C863 0.950 . S
H887 C865 0.950 . S
C888 C889 1.349 . S
C888 C890 1.327 . S
C888 H913 0.950 . S
C889 C888 1.349 . S
C889 C905 1.349 . S
C890 C888 1.327 . S
C890 C909 1.429 . S
C890 H914 0.950 . S
C891 C908 1.574 1_554 S
C891 C910 1.368 . S
C891 H915 0.949 . S
H892 C896 0.949 . S
C893 C894 1.349 . S
C893 C895 1.327 . S
C893 H916 0.950 . S
C894 C893 1.349 . S
C894 C906 1.349 . S
C895 C893 1.327 . S
C895 C911 1.429 . S
C895 H917 0.950 . S
C896 H892 0.949 . S
C896 C904 1.574 1_556 S
C896 C912 1.368 . S
H897 C905 0.950 . S
H898 C903 0.950 . S
H899 C904 0.949 . S
H900 C906 0.950 . S
H901 C907 0.950 . S
H902 C908 0.949 . S
C903 H898 0.950 . S
C903 C905 1.327 . S
C903 C909 1.429 . S
C904 C896 1.574 1_554 S
C904 H899 0.949 . S
C904 C910 1.368 . S
C905 C889 1.349 . S
C905 H897 0.950 . S
C905 C903 1.327 . S
C906 C894 1.349 . S
C906 H900 0.950 . S
C906 C907 1.327 . S
C907 H901 0.950 . S
C907 C906 1.327 . S
C907 C911 1.429 . S
C908 C891 1.574 1_556 S
C908 H902 0.949 . S
C908 C912 1.368 . S
C909 C890 1.429 . S
C909 C903 1.429 . S
C909 C910 1.523 . S
C910 C891 1.368 . S
C910 C904 1.368 . S
C910 C909 1.523 . S
C911 C895 1.429 . S
C911 C907 1.429 . S
C911 C912 1.523 . S
C912 C896 1.368 . S
C912 C908 1.368 . S
C912 C911 1.523 . S
H913 C888 0.950 . S
H914 C890 0.950 . S
H915 C891 0.949 . S
H916 C893 0.950 . S
H917 C895 0.950 . S
C918 C919 1.349 . S
C918 C920 1.327 . S
C918 H943 0.950 . S
C919 C918 1.349 . S
C919 C935 1.349 . S
C920 C918 1.327 . S
C920 C939 1.429 . S
C920 H944 0.950 . S
C921 C938 1.574 . S
C921 C940 1.368 . S
C921 H945 0.949 . S
H922 C926 0.949 . S
C923 C924 1.349 . S
C923 C925 1.327 . S
C923 H946 0.950 . S
C924 C923 1.349 . S
C924 C936 1.349 . S
C925 C923 1.327 . S
C925 C941 1.429 . S
C925 H947 0.950 . S
C926 H922 0.949 . S
C926 C934 1.574 . S
C926 C942 1.368 . S
H927 C935 0.950 . S
H928 C933 0.950 . S
H929 C934 0.949 . S
H930 C936 0.950 . S
H931 C937 0.950 . S
H932 C938 0.949 . S
C933 H928 0.950 . S
C933 C935 1.327 . S
C933 C939 1.429 . S
C934 C926 1.574 . S
C934 H929 0.949 . S
C934 C940 1.368 . S
C935 C919 1.349 . S
C935 H927 0.950 . S
C935 C933 1.327 . S
C936 C924 1.349 . S
C936 H930 0.950 . S
C936 C937 1.327 . S
C937 H931 0.950 . S
C937 C936 1.327 . S
C937 C941 1.429 . S
C938 C921 1.574 . S
C938 H932 0.949 . S
C938 C942 1.368 . S
C939 C920 1.429 . S
C939 C933 1.429 . S
C939 C940 1.523 . S
C940 C921 1.368 . S
C940 C934 1.368 . S
C940 C939 1.523 . S
C941 C925 1.429 . S
C941 C937 1.429 . S
C941 C942 1.523 . S
C942 C926 1.368 . S
C942 C938 1.368 . S
C942 C941 1.523 . S
H943 C918 0.950 . S
H944 C920 0.950 . S
H945 C921 0.949 . S
H946 C923 0.950 . S
H947 C925 0.950 . S
C948 C949 1.349 . S
C948 C950 1.327 . S
C948 H973 0.950 . S
C949 C948 1.349 . S
C949 C965 1.349 . S
C950 C948 1.327 . S
C950 C969 1.429 . S
C950 H974 0.950 . S
C951 C968 1.574 . S
C951 C970 1.368 . S
C951 H975 0.949 . S
H952 C956 0.949 . S
C953 C954 1.349 . S
C953 C955 1.327 . S
C953 H976 0.950 . S
C954 C953 1.349 . S
C954 C966 1.349 . S
C955 C953 1.327 . S
C955 C971 1.429 . S
C955 H977 0.950 . S
C956 H952 0.949 . S
C956 C964 1.574 . S
C956 C972 1.368 . S
H957 C965 0.950 . S
H958 C963 0.950 . S
H959 C964 0.949 . S
H960 C966 0.950 . S
H961 C967 0.950 . S
H962 C968 0.949 . S
C963 H958 0.950 . S
C963 C965 1.327 . S
C963 C969 1.429 . S
C964 C956 1.574 . S
C964 H959 0.949 . S
C964 C970 1.368 . S
C965 C949 1.349 . S
C965 H957 0.950 . S
C965 C963 1.327 . S
C966 C954 1.349 . S
C966 H960 0.950 . S
C966 C967 1.327 . S
C967 H961 0.950 . S
C967 C966 1.327 . S
C967 C971 1.429 . S
C968 C951 1.574 . S
C968 H962 0.949 . S
C968 C972 1.368 . S
C969 C950 1.429 . S
C969 C963 1.429 . S
C969 C970 1.523 . S
C970 C951 1.368 . S
C970 C964 1.368 . S
C970 C969 1.523 . S
C971 C955 1.429 . S
C971 C967 1.429 . S
C971 C972 1.523 . S
C972 C956 1.368 . S
C972 C968 1.368 . S
C972 C971 1.523 . S
H973 C948 0.950 . S
H974 C950 0.950 . S
H975 C951 0.949 . S
H976 C953 0.950 . S
H977 C955 0.950 . S
C978 C979 1.349 . S
C978 C980 1.327 . S
C978 H1003 0.950 . S
C979 C978 1.349 . S
C979 C995 1.349 . S
C980 C978 1.327 . S
C980 C999 1.429 . S
C980 H1004 0.950 . S
C981 C998 1.574 1_554 S
C981 C1000 1.368 . S
C981 H1005 0.949 . S
H982 C986 0.949 . S
C983 C984 1.349 . S
C983 C985 1.327 . S
C983 H1006 0.950 . S
C984 C983 1.349 . S
C984 C996 1.349 . S
C985 C983 1.327 . S
C985 C1001 1.429 . S
C985 H1007 0.950 . S
C986 H982 0.949 . S
C986 C994 1.574 1_556 S
C986 C1002 1.368 . S
H987 C995 0.950 . S
H988 C993 0.950 . S
H989 C994 0.949 . S
H990 C996 0.950 . S
H991 C997 0.950 . S
H992 C998 0.949 . S
C993 H988 0.950 . S
C993 C995 1.327 . S
C993 C999 1.429 . S
C994 C986 1.574 1_554 S
C994 H989 0.949 . S
C994 C1000 1.368 . S
C995 C979 1.349 . S
C995 H987 0.950 . S
C995 C993 1.327 . S
C996 C984 1.349 . S
C996 H990 0.950 . S
C996 C997 1.327 . S
C997 H991 0.950 . S
C997 C996 1.327 . S
C997 C1001 1.429 . S
C998 C981 1.574 1_556 S
C998 H992 0.949 . S
C998 C1002 1.368 . S
C999 C980 1.429 . S
C999 C993 1.429 . S
C999 C1000 1.523 . S
C1000 C981 1.368 . S
C1000 C994 1.368 . S
C1000 C999 1.523 . S
C1001 C985 1.429 . S
C1001 C997 1.429 . S
C1001 C1002 1.523 . S
C1002 C986 1.368 . S
C1002 C998 1.368 . S
C1002 C1001 1.523 . S
H1003 C978 0.950 . S
H1004 C980 0.950 . S
H1005 C981 0.949 . S
H1006 C983 0.950 . S
H1007 C985 0.950 . S
C1008 C1009 1.349 . S
C1008 C1010 1.327 . S
C1008 H1033 0.950 . S
C1009 C1008 1.349 . S
C1009 C1025 1.349 . S
C1010 C1008 1.327 . S
C1010 C1029 1.429 . S
C1010 H1034 0.950 . S
C1011 C1028 1.574 . S
C1011 C1030 1.368 . S
C1011 H1035 0.949 . S
H1012 C1016 0.949 . S
C1013 C1014 1.349 . S
C1013 C1015 1.327 . S
C1013 H1036 0.950 . S
C1014 C1013 1.349 . S
C1014 C1026 1.349 . S
C1015 C1013 1.327 . S
C1015 C1031 1.429 . S
C1015 H1037 0.950 . S
C1016 H1012 0.949 . S
C1016 C1024 1.574 . S
C1016 C1032 1.368 . S
H1017 C1025 0.950 . S
H1018 C1023 0.950 . S
H1019 C1024 0.949 . S
H1020 C1026 0.950 . S
H1021 C1027 0.950 . S
H1022 C1028 0.949 . S
C1023 H1018 0.950 . S
C1023 C1025 1.327 . S
C1023 C1029 1.429 . S
C1024 C1016 1.574 . S
C1024 H1019 0.949 . S
C1024 C1030 1.368 . S
C1025 C1009 1.349 . S
C1025 H1017 0.950 . S
C1025 C1023 1.327 . S
C1026 C1014 1.349 . S
C1026 H1020 0.950 . S
C1026 C1027 1.327 . S
C1027 H1021 0.950 . S
C1027 C1026 1.327 . S
C1027 C1031 1.429 . S
C1028 C1011 1.574 . S
C1028 H1022 0.949 . S
C1028 C1032 1.368 . S
C1029 C1010 1.429 . S
C1029 C1023 1.429 . S
C1029 C1030 1.523 . S
C1030 C1011 1.368 . S
C1030 C1024 1.368 . S
C1030 C1029 1.523 . S
C1031 C1015 1.429 . S
C1031 C1027 1.429 . S
C1031 C1032 1.523 . S
C1032 C1016 1.368 . S
C1032 C1028 1.368 . S
C1032 C1031 1.523 . S
H1033 C1008 0.950 . S
H1034 C1010 0.950 . S
H1035 C1011 0.949 . S
H1036 C1013 0.950 . S
H1037 C1015 0.950 . S
C1038 C1039 1.349 . S
C1038 C1040 1.327 . S
C1038 H1063 0.950 . S
C1039 C1038 1.349 . S
C1039 C1055 1.349 . S
C1040 C1038 1.327 . S
C1040 C1059 1.429 . S
C1040 H1064 0.950 . S
C1041 C1058 1.574 . S
C1041 C1060 1.368 . S
C1041 H1065 0.949 . S
H1042 C1046 0.949 . S
C1043 C1044 1.349 . S
C1043 C1045 1.327 . S
C1043 H1066 0.950 . S
C1044 C1043 1.349 . S
C1044 C1056 1.349 . S
C1045 C1043 1.327 . S
C1045 C1061 1.429 . S
C1045 H1067 0.950 . S
C1046 H1042 0.949 . S
C1046 C1054 1.574 . S
C1046 C1062 1.368 . S
H1047 C1055 0.950 . S
H1048 C1053 0.950 . S
H1049 C1054 0.949 . S
H1050 C1056 0.950 . S
H1051 C1057 0.950 . S
H1052 C1058 0.949 . S
C1053 H1048 0.950 . S
C1053 C1055 1.327 . S
C1053 C1059 1.429 . S
C1054 C1046 1.574 . S
C1054 H1049 0.949 . S
C1054 C1060 1.368 . S
C1055 C1039 1.349 . S
C1055 H1047 0.950 . S
C1055 C1053 1.327 . S
C1056 C1044 1.349 . S
C1056 H1050 0.950 . S
C1056 C1057 1.327 . S
C1057 H1051 0.950 . S
C1057 C1056 1.327 . S
C1057 C1061 1.429 . S
C1058 C1041 1.574 . S
C1058 H1052 0.949 . S
C1058 C1062 1.368 . S
C1059 C1040 1.429 . S
C1059 C1053 1.429 . S
C1059 C1060 1.523 . S
C1060 C1041 1.368 . S
C1060 C1054 1.368 . S
C1060 C1059 1.523 . S
C1061 C1045 1.429 . S
C1061 C1057 1.429 . S
C1061 C1062 1.523 . S
C1062 C1046 1.368 . S
C1062 C1058 1.368 . S
C1062 C1061 1.523 . S
H1063 C1038 0.950 . S
H1064 C1040 0.950 . S
H1065 C1041 0.949 . S
H1066 C1043 0.950 . S
H1067 C1045 0.950 . S
C1068 C1069 1.349 . S
C1068 C1070 1.327 . S
C1068 H1093 0.950 . S
C1069 C1068 1.349 . S
C1069 C1085 1.349 1_455 S
C1070 C1068 1.327 . S
C1070 C1089 1.429 . S
C1070 H1094 0.950 . S
C1071 C1088 1.574 . S
C1071 C1090 1.368 1_655 S
C1071 H1095 0.949 . S
H1072 C1076 0.949 . S
C1073 C1074 1.349 . S
C1073 C1075 1.327 . S
C1073 H1096 0.950 . S
C1074 C1073 1.349 . S
C1074 C1086 1.349 1_655 S
C1075 C1073 1.327 . S
C1075 C1091 1.429 . S
C1075 H1097 0.950 . S
C1076 H1072 0.949 . S
C1076 C1084 1.574 . S
C1076 C1092 1.368 1_455 S
H1077 C1085 0.950 . S
H1078 C1083 0.950 . S
H1079 C1084 0.949 . S
H1080 C1086 0.950 . S
H1081 C1087 0.950 . S
H1082 C1088 0.949 . S
C1083 H1078 0.950 . S
C1083 C1085 1.327 . S
C1083 C1089 1.429 1_655 S
C1084 C1076 1.574 . S
C1084 H1079 0.949 . S
C1084 C1090 1.368 . S
C1085 C1069 1.349 1_655 S
C1085 H1077 0.950 . S
C1085 C1083 1.327 . S
C1086 C1074 1.349 1_455 S
C1086 H1080 0.950 . S
C1086 C1087 1.327 . S
C1087 H1081 0.950 . S
C1087 C1086 1.327 . S
C1087 C1091 1.429 1_455 S
C1088 C1071 1.574 . S
C1088 H1082 0.949 . S
C1088 C1092 1.368 . S
C1089 C1070 1.429 . S
C1089 C1083 1.429 1_455 S
C1089 C1090 1.523 . S
C1090 C1071 1.368 1_455 S
C1090 C1084 1.368 . S
C1090 C1089 1.523 . S
C1091 C1075 1.429 . S
C1091 C1087 1.429 1_655 S
C1091 C1092 1.523 . S
C1092 C1076 1.368 1_655 S
C1092 C1088 1.368 . S
C1092 C1091 1.523 . S
H1093 C1068 0.950 . S
H1094 C1070 0.950 . S
H1095 C1071 0.949 . S
H1096 C1073 0.950 . S
H1097 C1075 0.950 . S
C1098 C1099 1.349 . S
C1098 C1100 1.327 1_565 S
C1098 H1123 0.950 1_565 S
C1099 C1098 1.349 . S
C1099 C1115 1.349 . S
C1100 C1098 1.327 1_545 S
C1100 C1119 1.429 1_545 S
C1100 H1124 0.950 . S
C1101 C1118 1.574 . S
C1101 C1120 1.368 . S
C1101 H1125 0.949 . S
H1102 C1106 0.949 . S
C1103 C1104 1.349 . S
C1103 C1105 1.327 1_545 S
C1103 H1126 0.950 1_545 S
C1104 C1103 1.349 . S
C1104 C1116 1.349 . S
C1105 C1103 1.327 1_565 S
C1105 C1121 1.429 1_565 S
C1105 H1127 0.950 . S
C1106 H1102 0.949 . S
C1106 C1114 1.574 . S
C1106 C1122 1.368 . S
H1107 C1115 0.950 . S
H1108 C1113 0.950 . S
H1109 C1114 0.949 . S
H1110 C1116 0.950 . S
H1111 C1117 0.950 . S
H1112 C1118 0.949 . S
C1113 H1108 0.950 . S
C1113 C1115 1.327 . S
C1113 C1119 1.429 . S
C1114 C1106 1.574 . S
C1114 H1109 0.949 . S
C1114 C1120 1.368 1_545 S
C1115 C1099 1.349 . S
C1115 H1107 0.950 . S
C1115 C1113 1.327 . S
C1116 C1104 1.349 . S
C1116 H1110 0.950 . S
C1116 C1117 1.327 . S
C1117 H1111 0.950 . S
C1117 C1116 1.327 . S
C1117 C1121 1.429 . S
C1118 C1101 1.574 . S
C1118 H1112 0.949 . S
C1118 C1122 1.368 1_565 S
C1119 C1100 1.429 1_565 S
C1119 C1113 1.429 . S
C1119 C1120 1.523 . S
C1120 C1101 1.368 . S
C1120 C1114 1.368 1_565 S
C1120 C1119 1.523 . S
C1121 C1105 1.429 1_545 S
C1121 C1117 1.429 . S
C1121 C1122 1.523 . S
C1122 C1106 1.368 . S
C1122 C1118 1.368 1_545 S
C1122 C1121 1.523 . S
H1123 C1098 0.950 1_545 S
H1124 C1100 0.950 . S
H1125 C1101 0.949 . S
H1126 C1103 0.950 1_565 S
H1127 C1105 0.950 . S
C1128 C1129 1.349 . S
C1128 C1130 1.327 . S
C1128 H1153 0.950 . S
C1129 C1128 1.349 . S
C1129 C1145 1.349 . S
C1130 C1128 1.327 . S
C1130 C1149 1.429 . S
C1130 H1154 0.950 . S
C1131 C1148 1.574 . S
C1131 C1150 1.368 . S
C1131 H1155 0.949 . S
H1132 C1136 0.949 . S
C1133 C1134 1.349 . S
C1133 C1135 1.327 . S
C1133 H1156 0.950 . S
C1134 C1133 1.349 . S
C1134 C1146 1.349 . S
C1135 C1133 1.327 . S
C1135 C1151 1.429 . S
C1135 H1157 0.950 . S
C1136 H1132 0.949 . S
C1136 C1144 1.574 . S
C1136 C1152 1.368 . S
H1137 C1145 0.950 . S
H1138 C1143 0.950 . S
H1139 C1144 0.949 . S
H1140 C1146 0.950 . S
H1141 C1147 0.950 . S
H1142 C1148 0.949 . S
C1143 H1138 0.950 . S
C1143 C1145 1.327 . S
C1143 C1149 1.429 . S
C1144 C1136 1.574 . S
C1144 H1139 0.949 . S
C1144 C1150 1.368 . S
C1145 C1129 1.349 . S
C1145 H1137 0.950 . S
C1145 C1143 1.327 . S
C1146 C1134 1.349 . S
C1146 H1140 0.950 . S
C1146 C1147 1.327 . S
C1147 H1141 0.950 . S
C1147 C1146 1.327 . S
C1147 C1151 1.429 . S
C1148 C1131 1.574 . S
C1148 H1142 0.949 . S
C1148 C1152 1.368 . S
C1149 C1130 1.429 . S
C1149 C1143 1.429 . S
C1149 C1150 1.523 . S
C1150 C1131 1.368 . S
C1150 C1144 1.368 . S
C1150 C1149 1.523 . S
C1151 C1135 1.429 . S
C1151 C1147 1.429 . S
C1151 C1152 1.523 . S
C1152 C1136 1.368 . S
C1152 C1148 1.368 . S
C1152 C1151 1.523 . S
H1153 C1128 0.950 . S
H1154 C1130 0.950 . S
H1155 C1131 0.949 . S
H1156 C1133 0.950 . S
H1157 C1135 0.950 . S
C1158 C1159 1.349 1_545 S
C1158 C1160 1.327 . S
C1158 H1183 0.950 . S
C1159 C1158 1.349 1_565 S
C1159 C1175 1.349 . S
C1160 C1158 1.327 . S
C1160 C1179 1.429 1_545 S
C1160 H1184 0.950 . S
C1161 C1178 1.574 . S
C1161 C1180 1.368 . S
C1161 H1185 0.949 . S
H1162 C1166 0.949 . S
C1163 C1164 1.349 1_565 S
C1163 C1165 1.327 . S
C1163 H1186 0.950 . S
C1164 C1163 1.349 1_545 S
C1164 C1176 1.349 . S
C1165 C1163 1.327 . S
C1165 C1181 1.429 1_565 S
C1165 H1187 0.950 . S
C1166 H1162 0.949 . S
C1166 C1174 1.574 . S
C1166 C1182 1.368 . S
H1167 C1175 0.950 . S
H1168 C1173 0.950 . S
H1169 C1174 0.949 . S
H1170 C1176 0.950 . S
H1171 C1177 0.950 . S
H1172 C1178 0.949 . S
C1173 H1168 0.950 . S
C1173 C1175 1.327 . S
C1173 C1179 1.429 . S
C1174 C1166 1.574 . S
C1174 H1169 0.949 . S
C1174 C1180 1.368 1_545 S
C1175 C1159 1.349 . S
C1175 H1167 0.950 . S
C1175 C1173 1.327 . S
C1176 C1164 1.349 . S
C1176 H1170 0.950 . S
C1176 C1177 1.327 . S
C1177 H1171 0.950 . S
C1177 C1176 1.327 . S
C1177 C1181 1.429 . S
C1178 C1161 1.574 . S
C1178 H1172 0.949 . S
C1178 C1182 1.368 1_565 S
C1179 C1160 1.429 1_565 S
C1179 C1173 1.429 . S
C1179 C1180 1.523 . S
C1180 C1161 1.368 . S
C1180 C1174 1.368 1_565 S
C1180 C1179 1.523 . S
C1181 C1165 1.429 1_545 S
C1181 C1177 1.429 . S
C1181 C1182 1.523 . S
C1182 C1166 1.368 . S
C1182 C1178 1.368 1_545 S
C1182 C1181 1.523 . S
H1183 C1158 0.950 . S
H1184 C1160 0.950 . S
H1185 C1161 0.949 . S
H1186 C1163 0.950 . S
H1187 C1165 0.950 . S
C1188 C1189 1.349 . S
C1188 C1190 1.327 . S
C1188 H1213 0.950 . S
C1189 C1188 1.349 . S
C1189 C1205 1.349 . S
C1190 C1188 1.327 . S
C1190 C1209 1.429 . S
C1190 H1214 0.950 . S
C1191 C1208 1.574 . S
C1191 C1210 1.368 . S
C1191 H1215 0.949 . S
H1192 C1196 0.949 . S
C1193 C1194 1.349 . S
C1193 C1195 1.327 . S
C1193 H1216 0.950 . S
C1194 C1193 1.349 . S
C1194 C1206 1.349 . S
C1195 C1193 1.327 . S
C1195 C1211 1.429 . S
C1195 H1217 0.950 . S
C1196 H1192 0.949 . S
C1196 C1204 1.574 . S
C1196 C1212 1.368 . S
H1197 C1205 0.950 . S
H1198 C1203 0.950 . S
H1199 C1204 0.949 . S
H1200 C1206 0.950 . S
H1201 C1207 0.950 . S
H1202 C1208 0.949 . S
C1203 H1198 0.950 . S
C1203 C1205 1.327 . S
C1203 C1209 1.429 . S
C1204 C1196 1.574 . S
C1204 H1199 0.949 . S
C1204 C1210 1.368 . S
C1205 C1189 1.349 . S
C1205 H1197 0.950 . S
C1205 C1203 1.327 . S
C1206 C1194 1.349 . S
C1206 H1200 0.950 . S
C1206 C1207 1.327 . S
C1207 H1201 0.950 . S
C1207 C1206 1.327 . S
C1207 C1211 1.429 . S
C1208 C1191 1.574 . S
C1208 H1202 0.949 . S
C1208 C1212 1.368 . S
C1209 C1190 1.429 . S
C1209 C1203 1.429 . S
C1209 C1210 1.523 . S
C1210 C1191 1.368 . S
C1210 C1204 1.368 . S
C1210 C1209 1.523 . S
C1211 C1195 1.429 . S
C1211 C1207 1.429 . S
C1211 C1212 1.523 . S
C1212 C1196 1.368 . S
C1212 C1208 1.368 . S
C1212 C1211 1.523 . S
H1213 C1188 0.950 . S
H1214 C1190 0.950 . S
H1215 C1191 0.949 . S
H1216 C1193 0.950 . S
H1217 C1195 0.950 . S
C1218 C1219 1.349 . S
C1218 C1220 1.327 1_655 S
C1218 H1243 0.950 1_655 S
C1219 C1218 1.349 . S
C1219 C1235 1.349 . S
C1220 C1218 1.327 1_455 S
C1220 C1239 1.429 1_455 S
C1220 H1244 0.950 . S
C1221 C1238 1.574 . S
C1221 C1240 1.368 . S
C1221 H1245 0.949 . S
H1222 C1226 0.949 . S
C1223 C1224 1.349 . S
C1223 C1225 1.327 1_455 S
C1223 H1246 0.950 1_455 S
C1224 C1223 1.349 . S
C1224 C1236 1.349 . S
C1225 C1223 1.327 1_655 S
C1225 C1241 1.429 1_655 S
C1225 H1247 0.950 . S
C1226 H1222 0.949 . S
C1226 C1234 1.574 . S
C1226 C1242 1.368 . S
H1227 C1235 0.950 . S
H1228 C1233 0.950 . S
H1229 C1234 0.949 . S
H1230 C1236 0.950 . S
H1231 C1237 0.950 . S
H1232 C1238 0.949 . S
C1233 H1228 0.950 . S
C1233 C1235 1.327 . S
C1233 C1239 1.429 . S
C1234 C1226 1.574 . S
C1234 H1229 0.949 . S
C1234 C1240 1.368 1_455 S
C1235 C1219 1.349 . S
C1235 H1227 0.950 . S
C1235 C1233 1.327 . S
C1236 C1224 1.349 . S
C1236 H1230 0.950 . S
C1236 C1237 1.327 . S
C1237 H1231 0.950 . S
C1237 C1236 1.327 . S
C1237 C1241 1.429 . S
C1238 C1221 1.574 . S
C1238 H1232 0.949 . S
C1238 C1242 1.368 1_655 S
C1239 C1220 1.429 1_655 S
C1239 C1233 1.429 . S
C1239 C1240 1.523 . S
C1240 C1221 1.368 . S
C1240 C1234 1.368 1_655 S
C1240 C1239 1.523 . S
C1241 C1225 1.429 1_455 S
C1241 C1237 1.429 . S
C1241 C1242 1.523 . S
C1242 C1226 1.368 . S
C1242 C1238 1.368 1_455 S
C1242 C1241 1.523 . S
H1243 C1218 0.950 1_455 S
H1244 C1220 0.950 . S
H1245 C1221 0.949 . S
H1246 C1223 0.950 1_655 S
H1247 C1225 0.950 . S
C1248 C1249 1.349 . S
C1248 C1250 1.327 . S
C1248 H1273 0.950 . S
C1249 C1248 1.349 . S
C1249 C1265 1.349 1_655 S
C1250 C1248 1.327 . S
C1250 C1269 1.429 . S
C1250 H1274 0.950 . S
C1251 C1268 1.574 1_545 S
C1251 C1270 1.368 1_455 S
C1251 H1275 0.949 . S
H1252 C1256 0.949 . S
C1253 C1254 1.349 . S
C1253 C1255 1.327 . S
C1253 H1276 0.950 . S
C1254 C1253 1.349 . S
C1254 C1266 1.349 1_455 S
C1255 C1253 1.327 . S
C1255 C1271 1.429 . S
C1255 H1277 0.950 . S
C1256 H1252 0.949 . S
C1256 C1264 1.574 1_565 S
C1256 C1272 1.351 1_655 S
H1257 C1265 0.950 . S
H1258 C1263 0.950 . S
H1259 C1264 0.949 . S
H1260 C1266 0.950 . S
H1261 C1267 0.950 . S
H1262 C1268 0.949 . S
C1263 H1258 0.950 . S
C1263 C1265 1.327 . S
C1263 C1269 1.429 1_455 S
C1264 C1256 1.574 1_545 S
C1264 H1259 0.949 . S
C1264 C1270 1.368 . S
C1265 C1249 1.349 1_455 S
C1265 H1257 0.950 . S
C1265 C1263 1.327 . S
C1266 C1254 1.349 1_655 S
C1266 H1260 0.950 . S
C1266 C1267 1.327 . S
C1267 H1261 0.950 . S
C1267 C1266 1.327 . S
C1267 C1271 1.429 1_655 S
C1268 C1251 1.574 1_565 S
C1268 H1262 0.949 . S
C1268 C1272 1.375 . S
C1269 C1250 1.429 . S
C1269 C1263 1.429 1_655 S
C1269 C1270 1.523 . S
C1270 C1251 1.368 1_655 S
C1270 C1264 1.368 . S
C1270 C1269 1.523 . S
C1271 C1255 1.429 . S
C1271 C1267 1.429 1_455 S
C1271 C1272 1.537 . S
C1272 C1256 1.351 1_455 S
C1272 C1268 1.375 . S
C1272 C1271 1.537 . S
H1273 C1248 0.950 . S
H1274 C1250 0.950 . S
H1275 C1251 0.949 . S
H1276 C1253 0.950 . S
H1277 C1255 0.950 . S
C1278 C1279 1.349 . S
C1278 C1280 1.327 . S
C1278 H1303 0.950 . S
C1279 C1278 1.349 . S
C1279 C1295 1.349 . S
C1280 C1278 1.327 . S
C1280 C1299 1.429 . S
C1280 H1304 0.950 . S
C1281 C1298 1.574 1_655 S
C1281 C1300 1.368 1_545 S
C1281 H1305 0.949 . S
H1282 C1286 0.949 . S
C1283 C1284 1.349 . S
C1283 C1285 1.327 . S
C1283 H1306 0.950 . S
C1284 C1283 1.349 . S
C1284 C1296 1.349 . S
C1285 C1283 1.327 . S
C1285 C1301 1.429 . S
C1285 H1307 0.950 . S
C1286 H1282 0.949 . S
C1286 C1294 1.574 1_455 S
C1286 C1302 1.368 1_565 S
H1287 C1295 0.950 1_545 S
H1288 C1293 0.950 1_545 S
H1289 C1294 0.949 . S
H1290 C1296 0.950 1_565 S
H1291 C1297 0.952 . S
H1292 C1298 0.949 . S
C1293 H1288 0.950 1_565 S
C1293 C1295 1.327 . S
C1293 C1299 1.428 . S
C1294 C1286 1.574 1_655 S
C1294 H1289 0.949 . S
C1294 C1300 1.368 . S
C1295 C1279 1.349 . S
C1295 H1287 0.950 1_565 S
C1295 C1293 1.327 . S
C1296 C1284 1.349 . S
C1296 H1290 0.950 1_545 S
C1296 C1297 1.330 1_545 S
C1297 H1291 0.952 . S
C1297 C1296 1.330 1_565 S
C1297 C1301 1.424 1_565 S
C1298 C1281 1.574 1_455 S
C1298 H1292 0.949 . S
C1298 C1302 1.368 . S
C1299 C1280 1.429 . S
C1299 C1293 1.428 . S
C1299 C1300 1.523 . S
C1300 C1281 1.368 1_565 S
C1300 C1294 1.368 . S
C1300 C1299 1.523 . S
C1301 C1285 1.429 . S
C1301 C1297 1.424 1_545 S
C1301 C1302 1.523 . S
C1302 C1286 1.368 1_545 S
C1302 C1298 1.368 . S
C1302 C1301 1.523 . S
H1303 C1278 0.950 . S
H1304 C1280 0.950 . S
H1305 C1281 0.949 . S
H1306 C1283 0.950 . S
H1307 C1285 0.950 . S
C1308 C1309 1.349 . S
C1308 C1310 1.327 . S
C1308 H1333 0.950 . S
C1309 C1308 1.349 . S
C1309 C1325 1.349 . S
C1310 C1308 1.327 . S
C1310 C1329 1.429 . S
C1310 H1334 0.950 . S
C1311 C1328 1.574 1_445 S
C1311 C1330 1.368 . S
C1311 H1335 0.949 . S
H1312 C1316 0.949 . S
C1313 C1314 1.349 . S
C1313 C1315 1.327 . S
C1313 H1336 0.950 . S
C1314 C1313 1.349 . S
C1314 C1326 1.349 . S
C1315 C1313 1.327 . S
C1315 C1331 1.429 . S
C1315 H1337 0.950 . S
C1316 H1312 0.949 . S
C1316 C1324 1.574 1_665 S
C1316 C1332 1.368 . S
H1317 C1325 0.950 . S
H1318 C1323 0.950 . S
H1319 C1324 0.949 . S
H1320 C1326 0.950 . S
H1321 C1327 0.950 . S
H1322 C1328 0.949 . S
C1323 H1318 0.950 . S
C1323 C1325 1.327 . S
C1323 C1329 1.429 . S
C1324 C1316 1.574 1_445 S
C1324 H1319 0.949 . S
C1324 C1330 1.368 . S
C1325 C1309 1.349 . S
C1325 H1317 0.950 . S
C1325 C1323 1.327 . S
C1326 C1314 1.349 . S
C1326 H1320 0.950 . S
C1326 C1327 1.327 . S
C1327 H1321 0.950 . S
C1327 C1326 1.327 . S
C1327 C1331 1.429 . S
C1328 C1311 1.574 1_665 S
C1328 H1322 0.949 . S
C1328 C1332 1.368 . S
C1329 C1310 1.429 . S
C1329 C1323 1.429 . S
C1329 C1330 1.523 . S
C1330 C1311 1.368 . S
C1330 C1324 1.368 . S
C1330 C1329 1.523 . S
C1331 C1315 1.429 . S
C1331 C1327 1.429 . S
C1331 C1332 1.523 . S
C1332 C1316 1.368 . S
C1332 C1328 1.368 . S
C1332 C1331 1.523 . S
H1333 C1308 0.950 . S
H1334 C1310 0.950 . S
H1335 C1311 0.949 . S
H1336 C1313 0.950 . S
H1337 C1315 0.950 . S
C1338 C1339 1.349 . S
C1338 C1340 1.327 . S
C1338 H1363 0.950 . S
C1339 C1338 1.349 . S
C1339 C1355 1.349 1_545 S
C1340 C1338 1.327 . S
C1340 C1359 1.429 . S
C1340 H1364 0.950 . S
C1341 C1358 1.574 1_655 S
C1341 C1360 1.368 1_565 S
C1341 H1365 0.949 . S
H1342 C1346 0.949 . S
C1343 C1344 1.349 . S
C1343 C1345 1.327 . S
C1343 H1366 0.950 . S
C1344 C1343 1.349 . S
C1344 C1356 1.349 1_565 S
C1345 C1343 1.327 . S
C1345 C1361 1.429 . S
C1345 H1367 0.950 . S
C1346 H1342 0.949 . S
C1346 C1354 1.574 1_455 S
C1346 C1362 1.368 1_545 S
H1347 C1355 0.950 . S
H1348 C1353 0.950 . S
H1349 C1354 0.949 . S
H1350 C1356 0.950 . S
H1351 C1357 0.950 . S
H1352 C1358 0.949 . S
C1353 H1348 0.950 . S
C1353 C1355 1.327 . S
C1353 C1359 1.429 1_565 S
C1354 C1346 1.574 1_655 S
C1354 H1349 0.949 . S
C1354 C1360 1.368 . S
C1355 C1339 1.349 1_565 S
C1355 H1347 0.950 . S
C1355 C1353 1.327 . S
C1356 C1344 1.349 1_545 S
C1356 H1350 0.950 . S
C1356 C1357 1.327 . S
C1357 H1351 0.950 . S
C1357 C1356 1.327 . S
C1357 C1361 1.429 1_545 S
C1358 C1341 1.574 1_455 S
C1358 H1352 0.949 . S
C1358 C1362 1.368 . S
C1359 C1340 1.429 . S
C1359 C1353 1.429 1_545 S
C1359 C1360 1.523 . S
C1360 C1341 1.368 1_545 S
C1360 C1354 1.368 . S
C1360 C1359 1.523 . S
C1361 C1345 1.429 . S
C1361 C1357 1.429 1_565 S
C1361 C1362 1.523 . S
C1362 C1346 1.368 1_565 S
C1362 C1358 1.368 . S
C1362 C1361 1.523 . S
H1363 C1338 0.950 . S
H1364 C1340 0.950 . S
H1365 C1341 0.949 . S
H1366 C1343 0.950 . S
H1367 C1345 0.950 . S
C1368 C1369 1.349 . S
C1368 C1370 1.327 . S
C1368 H1393 0.950 . S
C1369 C1368 1.349 . S
C1369 C1385 1.349 . S
C1370 C1368 1.327 . S
C1370 C1389 1.429 . S
C1370 H1394 0.950 . S
C1371 C1388 1.574 1_665 S
C1371 C1390 1.368 . S
C1371 H1395 0.949 . S
H1372 C1376 0.949 . S
C1373 C1374 1.349 . S
C1373 C1375 1.327 . S
C1373 H1396 0.950 . S
C1374 C1373 1.349 . S
C1374 C1386 1.349 . S
C1375 C1373 1.327 . S
C1375 C1391 1.429 . S
C1375 H1397 0.950 . S
C1376 H1372 0.949 . S
C1376 C1384 1.574 1_445 S
C1376 C1392 1.368 . S
H1377 C1385 0.950 . S
H1378 C1383 0.950 . S
H1379 C1384 0.949 . S
H1380 C1386 0.950 . S
H1381 C1387 0.950 . S
H1382 C1388 0.949 . S
C1383 H1378 0.950 . S
C1383 C1385 1.327 . S
C1383 C1389 1.429 . S
C1384 C1376 1.574 1_665 S
C1384 H1379 0.949 . S
C1384 C1390 1.368 . S
C1385 C1369 1.349 . S
C1385 H1377 0.950 . S
C1385 C1383 1.327 . S
C1386 C1374 1.349 . S
C1386 H1380 0.950 . S
C1386 C1387 1.327 . S
C1387 H1381 0.950 . S
C1387 C1386 1.327 . S
C1387 C1391 1.429 . S
C1388 C1371 1.574 1_445 S
C1388 H1382 0.949 . S
C1388 C1392 1.368 . S
C1389 C1370 1.429 . S
C1389 C1383 1.429 . S
C1389 C1390 1.523 . S
C1390 C1371 1.368 . S
C1390 C1384 1.368 . S
C1390 C1389 1.523 . S
C1391 C1375 1.429 . S
C1391 C1387 1.429 . S
C1391 C1392 1.523 . S
C1392 C1376 1.368 . S
C1392 C1388 1.368 . S
C1392 C1391 1.523 . S
H1393 C1368 0.950 . S
H1394 C1370 0.950 . S
H1395 C1371 0.949 . S
H1396 C1373 0.950 . S
H1397 C1375 0.950 . S
C1398 C1399 1.349 . S
C1398 C1400 1.327 . S
C1398 H1423 0.950 . S
C1399 C1398 1.349 . S
C1399 C1415 1.349 . S
C1400 C1398 1.327 . S
C1400 C1419 1.429 . S
C1400 H1424 0.950 . S
C1401 C1418 1.574 1_565 S
C1401 C1420 1.368 1_455 S
C1401 H1425 0.949 . S
H1402 C1406 0.949 . S
C1403 C1404 1.349 . S
C1403 C1405 1.327 . S
C1403 H1426 0.950 . S
C1404 C1403 1.349 . S
C1404 C1416 1.349 . S
C1405 C1403 1.327 . S
C1405 C1421 1.429 . S
C1405 H1427 0.950 . S
C1406 H1402 0.949 . S
C1406 C1414 1.574 1_545 S
C1406 C1422 1.368 1_655 S
H1407 C1415 0.950 1_455 S
H1408 C1413 0.950 1_455 S
H1409 C1414 0.949 . S
H1410 C1416 0.950 1_655 S
H1411 C1417 0.948 1_655 S
H1412 C1418 0.949 . S
C1413 H1408 0.950 1_655 S
C1413 C1415 1.328 . S
C1413 C1419 1.427 . S
C1414 C1406 1.574 1_565 S
C1414 H1409 0.949 . S
C1414 C1420 1.368 . S
C1415 C1399 1.349 . S
C1415 H1407 0.950 1_655 S
C1415 C1413 1.328 . S
C1416 C1404 1.349 . S
C1416 H1410 0.950 1_455 S
C1416 C1417 1.325 . S
C1417 H1411 0.948 1_455 S
C1417 C1416 1.325 . S
C1417 C1421 1.432 . S
C1418 C1401 1.574 1_545 S
C1418 H1412 0.949 . S
C1418 C1422 1.368 . S
C1419 C1400 1.429 . S
C1419 C1413 1.427 . S
C1419 C1420 1.523 . S
C1420 C1401 1.368 1_655 S
C1420 C1414 1.368 . S
C1420 C1419 1.523 . S
C1421 C1405 1.429 . S
C1421 C1417 1.432 . S
C1421 C1422 1.523 . S
C1422 C1406 1.368 1_455 S
C1422 C1418 1.368 . S
C1422 C1421 1.523 . S
H1423 C1398 0.950 . S
H1424 C1400 0.950 . S
H1425 C1401 0.949 . S
H1426 C1403 0.950 . S
H1427 C1405 0.950 . S
C709 C652 1.367 . S
C714 C3 1.363 . S
C739 C62 1.378 . S
C744 C357 1.376 . S
C769 C121 1.364 . S
C774 C416 1.358 . S
C799 C180 1.363 . S
C804 C475 1.367 . S
C829 C534 1.377 . S
C834 C239 1.379 . S
C859 C298 1.367 . S
C864 C593 1.360 . S
C889 C33 1.195 . S
C894 C623 1.195 . S
C919 C92 1.258 . S
C924 C682 1.257 . S
C949 C151 1.247 . S
C954 C387 1.244 . S
C979 C210 1.194 . S
C984 C446 1.194 . S
C1009 C505 1.258 . S
C1014 C269 1.257 . S
C1039 C564 1.244 . S
C1044 C328 1.247 . S
C1069 C182 1.297 1_455 S
C1074 C5 1.297 1_655 S
C1099 C64 1.424 . S
C1104 C241 1.424 . S
C1129 C300 1.447 . S
C1134 C123 1.447 . S
C1159 C536 1.383 . S
C1164 C359 1.380 . S
C1189 C595 1.305 . S
C1194 C418 1.305 . S
C1219 C477 1.412 . S
C1224 C654 1.408 . S
C1249 C52 1.186 1_655 S
C1254 C229 1.186 1_455 S
C1279 C111 1.222 . S
C1284 C288 1.222 . S
C1309 C347 1.331 . S
C1314 C170 1.331 . S
C1339 C406 1.133 . S
C1344 C583 1.133 . S
C1369 C465 1.184 . S
C1374 C642 1.184 . S
C1399 C524 1.231 . S
C1404 C701 1.235 . S
