# Generated by pormake.
# Topology whz, (6)-cn, num edge types: 1
# Building blocks:
#     Node 0, Type 0, BuildingBlock: FUNLAD_clean_sbu_0, # of connection points: 6
#     Node 1, Type 0, BuildingBlock: FUNLAD_clean_sbu_0, # of connection points: 6
#     Node 2, Type 0, BuildingBlock: FUNLAD_clean_sbu_0, # of connection points: 6
#     Node 3, Type 0, BuildingBlock: FUNLAD_clean_sbu_0, # of connection points: 6
#     Node 4, Type 0, BuildingBlock: FUNLAD_clean_sbu_0, # of connection points: 6
#     Node 5, Type 0, BuildingBlock: FUNLAD_clean_sbu_0, # of connection points: 6
#     Node 6, Type 0, BuildingBlock: FUNLAD_clean_sbu_0, # of connection points: 6
#     Node 7, Type 0, BuildingBlock: FUNLAD_clean_sbu_0, # of connection points: 6
#     Node 8, Type 0, BuildingBlock: FUNLAD_clean_sbu_0, # of connection points: 6
#     Node 9, Type 0, BuildingBlock: FUNLAD_clean_sbu_0, # of connection points: 6
#     Node 10, Type 0, BuildingBlock: FUNLAD_clean_sbu_0, # of connection points: 6
#     Node 11, Type 0, BuildingBlock: FUNLAD_clean_sbu_0, # of connection points: 6
#     Node 12, Type 0, BuildingBlock: FUNLAD_clean_sbu_0, # of connection points: 6
#     Node 13, Type 0, BuildingBlock: FUNLAD_clean_sbu_0, # of connection points: 6
#     Node 14, Type 0, BuildingBlock: FUNLAD_clean_sbu_0, # of connection points: 6
#     Node 15, Type 0, BuildingBlock: FUNLAD_clean_sbu_0, # of connection points: 6
#     Edge 16, Type (0, 0), BuildingBlock: AJUNOK_clean_linker_0, # of connection points: 2
#     Edge 17, Type (0, 0), BuildingBlock: AJUNOK_clean_linker_0, # of connection points: 2
#     Edge 18, Type (0, 0), BuildingBlock: AJUNOK_clean_linker_0, # of connection points: 2
#     Edge 19, Type (0, 0), BuildingBlock: AJUNOK_clean_linker_0, # of connection points: 2
#     Edge 20, Type (0, 0), BuildingBlock: AJUNOK_clean_linker_0, # of connection points: 2
#     Edge 21, Type (0, 0), BuildingBlock: AJUNOK_clean_linker_0, # of connection points: 2
#     Edge 22, Type (0, 0), BuildingBlock: AJUNOK_clean_linker_0, # of connection points: 2
#     Edge 23, Type (0, 0), BuildingBlock: AJUNOK_clean_linker_0, # of connection points: 2
#     Edge 24, Type (0, 0), BuildingBlock: AJUNOK_clean_linker_0, # of connection points: 2
#     Edge 25, Type (0, 0), BuildingBlock: AJUNOK_clean_linker_0, # of connection points: 2
#     Edge 26, Type (0, 0), BuildingBlock: AJUNOK_clean_linker_0, # of connection points: 2
#     Edge 27, Type (0, 0), BuildingBlock: AJUNOK_clean_linker_0, # of connection points: 2
#     Edge 28, Type (0, 0), BuildingBlock: AJUNOK_clean_linker_0, # of connection points: 2
#     Edge 29, Type (0, 0), BuildingBlock: AJUNOK_clean_linker_0, # of connection points: 2
#     Edge 30, Type (0, 0), BuildingBlock: AJUNOK_clean_linker_0, # of connection points: 2
#     Edge 31, Type (0, 0), BuildingBlock: AJUNOK_clean_linker_0, # of connection points: 2
#     Edge 32, Type (0, 0), BuildingBlock: AJUNOK_clean_linker_0, # of connection points: 2
#     Edge 33, Type (0, 0), BuildingBlock: AJUNOK_clean_linker_0, # of connection points: 2
#     Edge 34, Type (0, 0), BuildingBlock: AJUNOK_clean_linker_0, # of connection points: 2
#     Edge 35, Type (0, 0), BuildingBlock: AJUNOK_clean_linker_0, # of connection points: 2
#     Edge 36, Type (0, 0), BuildingBlock: AJUNOK_clean_linker_0, # of connection points: 2
#     Edge 37, Type (0, 0), BuildingBlock: AJUNOK_clean_linker_0, # of connection points: 2
#     Edge 38, Type (0, 0), BuildingBlock: AJUNOK_clean_linker_0, # of connection points: 2
#     Edge 39, Type (0, 0), BuildingBlock: AJUNOK_clean_linker_0, # of connection points: 2
#     Edge 40, Type (0, 0), BuildingBlock: AJUNOK_clean_linker_0, # of connection points: 2
#     Edge 41, Type (0, 0), BuildingBlock: AJUNOK_clean_linker_0, # of connection points: 2
#     Edge 42, Type (0, 0), BuildingBlock: AJUNOK_clean_linker_0, # of connection points: 2
#     Edge 43, Type (0, 0), BuildingBlock: AJUNOK_clean_linker_0, # of connection points: 2
#     Edge 44, Type (0, 0), BuildingBlock: AJUNOK_clean_linker_0, # of connection points: 2
#     Edge 45, Type (0, 0), BuildingBlock: AJUNOK_clean_linker_0, # of connection points: 2
#     Edge 46, Type (0, 0), BuildingBlock: AJUNOK_clean_linker_0, # of connection points: 2
#     Edge 47, Type (0, 0), BuildingBlock: AJUNOK_clean_linker_0, # of connection points: 2
#     Edge 48, Type (0, 0), BuildingBlock: AJUNOK_clean_linker_0, # of connection points: 2
#     Edge 49, Type (0, 0), BuildingBlock: AJUNOK_clean_linker_0, # of connection points: 2
#     Edge 50, Type (0, 0), BuildingBlock: AJUNOK_clean_linker_0, # of connection points: 2
#     Edge 51, Type (0, 0), BuildingBlock: AJUNOK_clean_linker_0, # of connection points: 2
#     Edge 52, Type (0, 0), BuildingBlock: AJUNOK_clean_linker_0, # of connection points: 2
#     Edge 53, Type (0, 0), BuildingBlock: AJUNOK_clean_linker_0, # of connection points: 2
#     Edge 54, Type (0, 0), BuildingBlock: AJUNOK_clean_linker_0, # of connection points: 2
#     Edge 55, Type (0, 0), BuildingBlock: AJUNOK_clean_linker_0, # of connection points: 2
#     Edge 56, Type (0, 0), BuildingBlock: AJUNOK_clean_linker_0, # of connection points: 2
#     Edge 57, Type (0, 0), BuildingBlock: AJUNOK_clean_linker_0, # of connection points: 2
#     Edge 58, Type (0, 0), BuildingBlock: AJUNOK_clean_linker_0, # of connection points: 2
#     Edge 59, Type (0, 0), BuildingBlock: AJUNOK_clean_linker_0, # of connection points: 2
#     Edge 60, Type (0, 0), BuildingBlock: AJUNOK_clean_linker_0, # of connection points: 2
#     Edge 61, Type (0, 0), BuildingBlock: AJUNOK_clean_linker_0, # of connection points: 2
#     Edge 62, Type (0, 0), BuildingBlock: AJUNOK_clean_linker_0, # of connection points: 2
#     Edge 63, Type (0, 0), BuildingBlock: AJUNOK_clean_linker_0, # of connection points: 2
# Relax obj value: 0.684
# Max RMSD: 0.297
# Mean RMSD: 0.297
data_MOF--net-whz--node1-FUNLAD_clean_sbu_0--edge1-AJUNOK_clean_linker_0
_symmetry_space_group_name_H-M    P1
_symmetry_Int_Tables_number       1
_symmetry_cell_setting            triclinic
loop_
_symmetry_equiv_pos_as_xyz
'x, y, z'
_cell_length_a     29.318426
_cell_length_b     29.297221
_cell_length_c     43.83164
_cell_angle_alpha  89.740247
_cell_angle_beta   89.723595
_cell_angle_gamma 89.888547
loop_
_atom_site_label
_atom_site_type_symbol
_atom_site_fract_x
_atom_site_fract_y
_atom_site_fract_z
_atom_type_partial_charge
C0 C 0.33878 0.13234 0.09307 0.0
N1 N 0.27641 0.25672 0.11322 0.0
C2 C 0.2964 0.28425 0.09194 0.0
C3 C 0.27276 0.32257 0.08085 0.0
C4 C 0.2283 0.33147 0.09157 0.0
C5 C 0.20868 0.30191 0.11288 0.0
C6 C 0.23327 0.2651 0.12347 0.0
Zn7 Zn 0.30524 0.20233 0.13508 0.0
C8 C 0.23626 0.13011 0.14505 0.0
N9 N 0.34724 0.08702 0.19141 0.0
C10 C 0.38599 0.06205 0.19601 0.0
C11 C 0.3098 0.07877 0.20938 0.0
C12 C 0.30869 0.04381 0.23065 0.0
C13 C 0.34823 0.01951 0.23753 0.0
C14 C 0.38744 0.02843 0.21941 0.0
Zn15 Zn 0.33327 0.14281 0.1614 0.0
O16 O 0.32441 0.17301 0.09513 0.0
C17 C 0.40508 0.21314 0.15133 0.0
O18 O 0.34788 0.10942 0.11746 0.0
H19 H 0.27975 0.09986 0.20822 0.0
H20 H 0.33088 0.27733 0.08434 0.0
H21 H 0.41608 0.06901 0.1824 0.0
O22 O 0.37128 0.23347 0.13879 0.0
O23 O 0.39953 0.17342 0.16306 0.0
H24 H 0.21795 0.24453 0.1412 0.0
O25 O 0.31266 0.17853 0.20257 0.0
O26 O 0.28517 0.23292 0.17431 0.0
O27 O 0.27072 0.11399 0.15784 0.0
O28 O 0.23952 0.16845 0.1319 0.0
C29 C 0.29069 0.21577 0.20028 0.0
H30 H 0.28927 0.34555 0.06485 0.0
H31 H 0.17546 0.30868 0.12286 0.0
H32 H 0.2767 0.03708 0.24219 0.0
H33 H 0.41911 0.01053 0.22369 0.0
C34 C 0.62102 0.58185 0.34695 0.0
N35 N 0.494 0.52729 0.37528 0.0
C36 C 0.475 0.53467 0.3474 0.0
C37 C 0.44005 0.50585 0.33711 0.0
C38 C 0.42546 0.46924 0.35569 0.0
C39 C 0.44525 0.46332 0.38427 0.0
C40 C 0.47961 0.49212 0.3934 0.0
Zn41 Zn 0.54923 0.55974 0.39381 0.0
C42 C 0.61863 0.48716 0.40547 0.0
N43 N 0.67103 0.60021 0.44169 0.0
C44 C 0.69465 0.63969 0.44632 0.0
C45 C 0.68068 0.56283 0.45939 0.0
C46 C 0.71521 0.56284 0.48082 0.0
C47 C 0.73889 0.60286 0.48728 0.0
C48 C 0.72843 0.64196 0.46939 0.0
Zn49 Zn 0.61365 0.58561 0.41342 0.0
O50 O 0.58249 0.56369 0.3523 0.0
C51 C 0.5435 0.65965 0.4019 0.0
O52 O 0.64415 0.59928 0.36885 0.0
H53 H 0.66043 0.5323 0.45837 0.0
H54 H 0.48727 0.56224 0.33308 0.0
H55 H 0.68617 0.66987 0.4332 0.0
O56 O 0.5236 0.62655 0.38854 0.0
O57 O 0.5817 0.65278 0.41542 0.0
H58 H 0.49522 0.4852 0.41516 0.0
O59 O 0.58077 0.56543 0.45627 0.0
O60 O 0.51546 0.55741 0.43404 0.0
O61 O 0.64249 0.52229 0.40847 0.0
O62 O 0.57644 0.49188 0.40064 0.0
C63 C 0.53859 0.55598 0.45795 0.0
H64 H 0.42482 0.51187 0.31499 0.0
H65 H 0.43386 0.43689 0.3999 0.0
H66 H 0.72174 0.53146 0.49321 0.0
H67 H 0.74461 0.67437 0.47384 0.0
C68 C 0.16518 0.86999 0.59509 0.0
N69 N 0.2282 0.75258 0.62666 0.0
C70 C 0.21701 0.72726 0.60188 0.0
C71 C 0.24506 0.69086 0.59302 0.0
C72 C 0.28475 0.68117 0.60982 0.0
C73 C 0.29561 0.7085 0.63474 0.0
C74 C 0.267 0.74405 0.6427 0.0
Zn75 Zn 0.19069 0.80501 0.6437 0.0
C76 C 0.25464 0.88258 0.65987 0.0
N77 N 0.12841 0.92164 0.6864 0.0
C78 C 0.10768 0.91212 0.71356 0.0
C79 C 0.14352 0.96472 0.68007 0.0
C80 C 0.14256 -0.00138 0.70265 0.0
C81 C 0.12585 0.98791 0.73185 0.0
C82 C 0.10642 0.94476 0.73676 0.0
Zn83 Zn 0.15771 0.86644 0.66381 0.0
O84 O 0.18353 0.83215 0.60161 0.0
C85 C 0.0911 0.79102 0.64872 0.0
O86 O 0.14948 0.89518 0.61669 0.0
H87 H 0.16059 0.97162 0.65861 0.0
H88 H 0.18607 0.73471 0.58945 0.0
H89 H 0.09619 0.87778 0.71841 0.0
O90 O 0.12678 0.77031 0.63917 0.0
O91 O 0.09482 0.83082 0.66011 0.0
H92 H 0.27545 0.76401 0.66253 0.0
O93 O 0.1718 0.83446 0.70881 0.0
O94 O 0.19802 0.7752 0.68457 0.0
O95 O 0.21767 0.90109 0.66756 0.0
O96 O 0.25405 0.84234 0.64924 0.0
C97 C 0.18911 0.79448 0.70934 0.0
H98 H 0.2354 0.6699 0.57382 0.0
H99 H 0.32483 0.70115 0.649 0.0
H100 H 0.15765 0.03167 0.69802 0.0
H101 H 0.09279 0.93551 0.75896 0.0
C102 C 0.87529 0.40805 0.84686 0.0
N103 N 0.99463 0.4706 0.86593 0.0
C104 C 0.0234 0.45338 0.84444 0.0
C105 C 0.06039 0.4796 0.83425 0.0
C106 C 0.06706 0.52341 0.84654 0.0
C107 C 0.03479 0.54119 0.86668 0.0
C108 C -0.00079 0.51409 0.87633 0.0
Zn109 Zn 0.94452 0.43609 0.8879 0.0
C110 C 0.87188 0.50507 0.90405 0.0
N111 N 0.83364 0.38756 0.94265 0.0
C112 C 0.79098 0.4027 0.93533 0.0
C113 C 0.84226 0.37032 0.97096 0.0
C114 C 0.80876 0.37181 0.99384 0.0
C115 C 0.76561 0.39038 0.98749 0.0
C116 C 0.75622 0.4041 0.95746 0.0
Zn117 Zn 0.88868 0.41091 0.91672 0.0
O118 O 0.91758 0.41581 0.84791 0.0
C119 C 0.95986 0.33895 0.90128 0.0
O120 O 0.85262 0.40443 0.87192 0.0
H121 H 0.87624 0.35878 0.97663 0.0
H122 H 0.01899 0.41881 0.83642 0.0
H123 H 0.78488 0.41752 0.91307 0.0
O124 O 0.98174 0.37328 0.89071 0.0
O125 O 0.91969 0.34477 0.9121 0.0
H126 H 0.97716 0.52735 0.89395 0.0
O127 O 0.92655 0.42462 0.95832 0.0
O128 O 0.97461 0.45788 0.92746 0.0
O129 O 0.86006 0.4737 0.92202 0.0
O130 O 0.90385 0.49774 0.88514 0.0
C131 C 0.96209 0.44891 0.95426 0.0
H132 H 0.08489 0.46495 0.81851 0.0
H133 H 0.03922 0.57428 0.87722 0.0
H134 H 0.81708 0.36023 0.01666 0.0
H135 H 0.72333 0.41853 0.95167 0.0
C136 C 0.70006 0.77827 0.80785 0.0
N137 N 0.64966 0.91115 0.81734 0.0
C138 C 0.68735 0.91907 0.79961 0.0
C139 C 0.68841 0.95358 0.77782 0.0
C140 C 0.64949 0.97976 0.77203 0.0
C141 C 0.61034 0.97108 0.79019 0.0
C142 C 0.61132 0.93679 0.81304 0.0
Zn143 Zn 0.65899 0.85403 0.8466 0.0
C144 C 0.58202 0.78985 0.85406 0.0
N145 N 0.70025 0.73571 0.89526 0.0
C146 C 0.73387 0.73876 0.91643 0.0
C147 C 0.68799 0.69507 0.88293 0.0
C148 C 0.71409 0.65643 0.88857 0.0
C149 C 0.75245 0.66013 0.90721 0.0
C150 C 0.76084 0.70075 0.92284 0.0
Zn151 Zn 0.6821 0.79206 0.87199 0.0
O152 O 0.68065 0.81711 0.80591 0.0
C153 C 0.75718 0.85703 0.86373 0.0
O154 O 0.70216 0.75888 0.83343 0.0
H155 H 0.66145 0.69362 0.86595 0.0
H156 H 0.71718 0.89772 0.8013 0.0
H157 H 0.74285 0.77155 0.92588 0.0
O158 O 0.72363 0.87695 0.85196 0.0
O159 O 0.75135 0.81787 0.87561 0.0
H160 H 0.58107 0.92975 0.82647 0.0
O161 O 0.66424 0.82374 0.91166 0.0
O162 O 0.64417 0.8887 0.88995 0.0
O163 O 0.61407 0.76794 0.86716 0.0
O164 O 0.5901 0.82922 0.84261 0.0
C165 C 0.65161 0.86485 0.91412 0.0
H166 H 0.71961 0.95865 0.76493 0.0
H167 H 0.57875 0.9892 0.78614 0.0
H168 H 0.70677 0.62509 0.87652 0.0
H169 H 0.79022 0.70415 0.93755 0.0
C170 C 0.46371 0.4476 0.55632 0.0
N171 N 0.3327 0.39854 0.57051 0.0
C172 C 0.32321 0.43633 0.55314 0.0
C173 C 0.29053 0.43601 0.53045 0.0
C174 C 0.26857 0.39557 0.52285 0.0
C175 C 0.27768 0.35651 0.54096 0.0
C176 C 0.31001 0.35879 0.56492 0.0
Zn177 Zn 0.38926 0.41223 0.59959 0.0
C178 C 0.4599 0.33843 0.60866 0.0
N179 N 0.50758 0.46707 0.64134 0.0
C180 C 0.5217 0.50593 0.62703 0.0
C181 C 0.5275 0.45242 0.66761 0.0
C182 C 0.56392 0.47709 0.67996 0.0
C183 C 0.57918 0.51686 0.66496 0.0
C184 C 0.55731 0.53117 0.63838 0.0
Zn185 Zn 0.45324 0.43828 0.6204 0.0
O186 O 0.42271 0.43387 0.55771 0.0
C187 C 0.383 0.51066 0.61106 0.0
O188 O 0.48695 0.44791 0.58027 0.0
H189 H 0.51529 0.42182 0.67884 0.0
H190 H 0.34248 0.46733 0.55524 0.0
H191 H 0.50558 0.51779 0.60637 0.0
O192 O 0.36045 0.47549 0.60516 0.0
O193 O 0.42471 0.5063 0.61768 0.0
H194 H 0.31815 0.32847 0.578 0.0
O195 O 0.42064 0.4285 0.66153 0.0
O196 O 0.35783 0.39703 0.64362 0.0
O197 O 0.48013 0.37139 0.62188 0.0
O198 O 0.4208 0.3452 0.59639 0.0
C199 C 0.38142 0.41167 0.66621 0.0
H200 H 0.28406 0.46736 0.51799 0.0
H201 H 0.26142 0.32428 0.53593 0.0
H202 H 0.58017 0.46511 0.70064 0.0
H203 H 0.56861 0.56096 0.62571 0.0
C204 C 0.79879 0.2067 0.30251 0.0
N205 N 0.86763 0.08125 0.32076 0.0
C206 C 0.88293 0.09167 0.29218 0.0
C207 C 0.8819 0.05898 0.26897 0.0
C208 C 0.86597 0.01473 0.27523 0.0
C209 C 0.85502 0.00342 0.30555 0.0
C210 C 0.85591 0.03744 0.32809 0.0
Zn211 Zn 0.83921 0.13503 0.34565 0.0
C212 C 0.90375 0.21372 0.35818 0.0
N213 N 0.76825 0.24483 0.38719 0.0
C214 C 0.72731 0.25264 0.37356 0.0
C215 C 0.78209 0.26992 0.41145 0.0
C216 C 0.75474 0.30573 0.42206 0.0
C217 C 0.71305 0.31509 0.40751 0.0
C218 C 0.69922 0.28758 0.38335 0.0
Zn219 Zn 0.80559 0.19474 0.36746 0.0
O220 O 0.81748 0.16731 0.30179 0.0
C221 C 0.74387 0.11499 0.35347 0.0
O222 O 0.79297 0.22561 0.32779 0.0
H223 H 0.81475 0.26306 0.42191 0.0
H224 H 0.89175 0.12653 0.28652 0.0
H225 H 0.71689 0.23298 0.35402 0.0
O226 O 0.78092 0.0975 0.34501 0.0
O227 O 0.74347 0.15545 0.36364 0.0
H228 H 0.84278 0.02977 0.35064 0.0
O229 O 0.81767 0.16654 0.40856 0.0
O230 O 0.85432 0.1059 0.39198 0.0
O231 O 0.86818 0.23185 0.36994 0.0
O232 O 0.90101 0.17405 0.34633 0.0
C233 C 0.83877 0.1299 0.41424 0.0
H234 H 0.89131 0.06883 0.24593 0.0
H235 H 0.84274 0.96961 0.31132 0.0
H236 H 0.76667 0.32687 0.44058 0.0
H237 H 0.66829 0.29472 0.37075 0.0
C238 C 0.04264 0.55941 0.04936 0.0
N239 N 0.16903 0.62266 0.07219 0.0
C240 C 0.16131 0.63944 0.04363 0.0
C241 C 0.19576 0.63826 0.02139 0.0
C242 C 0.23887 0.62042 0.02863 0.0
C243 C 0.24746 0.60778 0.05897 0.0
C244 C 0.2118 0.60904 0.08052 0.0
Zn245 Zn 0.11276 0.59531 0.09516 0.0
C246 C 0.03566 0.66239 0.10804 0.0
N247 N 0.99806 0.52715 0.13244 0.0
C248 C 0.98748 0.48842 0.11698 0.0
C249 C 0.97492 0.53941 0.1581 0.0
C250 C 0.93883 0.51241 0.1687 0.0
C251 C 0.92701 0.47272 0.15266 0.0
C252 C 0.9519 0.46091 0.12657 0.0
Zn253 Zn 0.05053 0.56321 0.11439 0.0
O254 O 0.08284 0.57608 0.05018 0.0
C255 C 0.12798 0.49862 0.09923 0.0
O256 O 0.02072 0.55577 0.07387 0.0
H257 H 0.9841 0.57025 0.17005 0.0
H258 H 0.12723 0.64961 0.03715 0.0
H259 H 0.00603 0.47907 0.09659 0.0
O260 O 0.14809 0.53563 0.09389 0.0
O261 O 0.08672 0.49933 0.10816 0.0
H262 H 0.21727 0.59471 0.103 0.0
O263 O 0.07786 0.57003 0.15642 0.0
O264 O 0.13977 0.6067 0.14222 0.0
O265 O 0.01633 0.62687 0.11894 0.0
O266 O 0.0756 0.65902 0.0964 0.0
C267 C 0.1148 0.5893 0.16347 0.0
H268 H 0.18805 0.64878 0.99825 0.0
H269 H 0.28036 0.594 0.0654 0.0
H270 H 0.91989 0.52277 0.18879 0.0
H271 H 0.94285 0.43165 0.11286 0.0
C272 C 0.83449 0.62397 0.6 0.0
N273 N 0.77722 0.74391 0.62999 0.0
C274 C 0.78965 0.76757 0.60452 0.0
C275 C 0.76371 0.80511 0.59503 0.0
C276 C 0.72532 0.81829 0.61229 0.0
C277 C 0.71292 0.79244 0.63787 0.0
C278 C 0.73913 0.75519 0.64618 0.0
Zn279 Zn 0.81226 0.69009 0.64715 0.0
C280 C 0.74675 0.6162 0.66615 0.0
N281 N 0.87126 0.5728 0.69165 0.0
C282 C 0.85476 0.53071 0.68436 0.0
C283 C 0.88987 0.58036 0.71958 0.0
C284 C 0.88695 0.5471 0.74254 0.0
C285 C 0.86578 0.50513 0.73657 0.0
C286 C 0.85178 0.49615 0.70662 0.0
Zn287 Zn 0.84464 0.62964 0.66911 0.0
O288 O 0.81887 0.6634 0.60497 0.0
C289 C 0.91259 0.70248 0.65157 0.0
O290 O 0.8489 0.59954 0.62243 0.0
H291 H 0.90282 0.61382 0.72516 0.0
H292 H 0.81978 0.75761 0.59183 0.0
H293 H 0.83929 0.52539 0.66232 0.0
O294 O 0.87656 0.72264 0.6423 0.0
O295 O 0.90948 0.66272 0.66348 0.0
H296 H 0.72931 0.73592 0.66621 0.0
O297 O 0.83306 0.66212 0.71369 0.0
O298 O 0.80496 0.71936 0.68819 0.0
O299 O 0.78344 0.59837 0.67488 0.0
O300 O 0.74786 0.65496 0.65307 0.0
C301 C 0.8141 0.70125 0.71339 0.0
H302 H 0.77386 0.82392 0.5748 0.0
H303 H 0.68403 0.80177 0.65205 0.0
H304 H 0.89904 0.55498 0.76523 0.0
H305 H 0.83557 0.46408 0.70106 0.0
C306 C 0.11602 0.07515 0.84652 0.0
N307 N 0.99117 0.02301 0.88022 0.0
C308 C 0.97211 0.02626 0.85203 0.0
C309 C 0.93727 0.99592 0.84373 0.0
C310 C 0.92314 0.96191 0.86454 0.0
C311 C 0.94319 0.95994 0.89324 0.0
C312 C 0.97707 0.99047 0.90053 0.0
Zn313 Zn 0.04679 0.05745 0.89615 0.0
C314 C 0.11625 0.98474 0.90926 0.0
N315 N 0.17014 0.0978 0.93898 0.0
C316 C 0.19211 0.13819 0.94379 0.0
C317 C 0.18243 0.06027 0.95573 0.0
C318 C 0.21826 0.06098 0.97611 0.0
C319 C 0.23912 0.1021 0.9835 0.0
C320 C 0.22652 0.14125 0.9664 0.0
Zn321 Zn 0.11168 0.08215 0.91212 0.0
O322 O 0.07931 0.05496 0.85404 0.0
C323 C 0.04243 0.15667 0.90029 0.0
O324 O 0.13938 0.09633 0.86678 0.0
H325 H 0.16323 0.02913 0.95507 0.0
H326 H 0.98423 0.0517 0.83599 0.0
H327 H 0.18169 0.16841 0.93136 0.0
O328 O 0.02236 0.12374 0.8868 0.0
O329 O 0.07973 0.14907 0.9147 0.0
H330 H 0.99264 0.98696 0.92264 0.0
O331 O 0.08046 0.06053 0.95616 0.0
O332 O 0.01301 0.06257 0.93632 0.0
O333 O 0.14091 0.01935 0.9062 0.0
O334 O 0.07349 0.98994 0.908 0.0
C335 C 0.03746 0.0566 0.9593 0.0
H336 H 0.92171 -0.00118 0.82144 0.0
H337 H 0.93217 0.93547 0.91035 0.0
H338 H 0.22764 0.02932 0.98728 0.0
H339 H 0.24171 0.17408 0.97119 0.0
C340 C 0.66441 0.3769 0.09673 0.0
N341 N 0.7201 0.2531 0.12114 0.0
C342 C 0.70739 0.23251 0.09477 0.0
C343 C 0.73415 0.19721 0.08274 0.0
C344 C 0.77392 0.18356 0.09819 0.0
C345 C 0.78696 0.20693 0.1244 0.0
C346 C 0.75954 0.24145 0.13552 0.0
Zn347 Zn 0.68627 0.30507 0.14161 0.0
C348 C 0.7565 0.37681 0.15854 0.0
N349 N 0.63504 0.42202 0.18983 0.0
C350 C 0.61524 0.41267 0.21731 0.0
C351 C 0.65123 0.46469 0.18345 0.0
C352 C 0.65158 0.49849 0.20606 0.0
C353 C 0.63557 0.48799 0.23545 0.0
C354 C 0.61547 0.44518 0.24059 0.0
Zn355 Zn 0.65973 0.36686 0.1651 0.0
O356 O 0.67698 0.33597 0.10034 0.0
C357 C 0.58698 0.29583 0.14967 0.0
O358 O 0.65293 0.40065 0.12007 0.0
H359 H 0.66779 0.47134 0.16178 0.0
H360 H 0.67638 0.24296 0.08341 0.0
H361 H 0.60291 0.37863 0.22217 0.0
O362 O 0.62082 0.27363 0.13875 0.0
O363 O 0.59366 0.33509 0.16141 0.0
H364 H 0.76973 0.25828 0.15624 0.0
O365 O 0.67425 0.33118 0.208 0.0
O366 O 0.69654 0.272 0.18189 0.0
O367 O 0.72199 0.39698 0.16903 0.0
O368 O 0.75153 0.33862 0.14548 0.0
C369 C 0.69146 0.2912 0.20723 0.0
H370 H 0.72323 0.17986 0.06228 0.0
H371 H 0.81685 0.19696 0.13729 0.0
H372 H 0.66711 0.53128 0.20126 0.0
H373 H 0.6022 0.43615 0.26292 0.0
C374 C 0.37514 0.91267 0.34592 0.0
N375 N 0.49862 0.96825 0.3637 0.0
C376 C 0.52896 0.94647 0.3452 0.0
C377 C 0.56871 0.96902 0.33564 0.0
C378 C 0.57667 0.01398 0.34548 0.0
C379 C 0.5435 0.036 0.363 0.0
C380 C 0.50498 0.01254 0.37195 0.0
Zn381 Zn 0.44524 0.93862 0.38588 0.0
C382 C 0.37805 0.0111 0.40064 0.0
N383 N 0.33362 0.89892 0.44325 0.0
C384 C 0.295 0.87638 0.43486 0.0
C385 C 0.33471 0.92105 0.47059 0.0
C386 C 0.29831 0.91948 0.49094 0.0
C387 C 0.25799 0.89684 0.4833 0.0
C388 C 0.25657 0.87516 0.45451 0.0
Zn389 Zn 0.3906 0.91456 0.41528 0.0
O390 O 0.41814 0.91584 0.34638 0.0
C391 C 0.45676 0.84013 0.40149 0.0
O392 O 0.35305 0.91125 0.37135 0.0
H393 H 0.36306 0.94223 0.47674 0.0
H394 H 0.52342 0.91118 0.33909 0.0
H395 H 0.29326 0.86073 0.41259 0.0
O396 O 0.47949 0.87446 0.39171 0.0
O397 O 0.41572 0.84604 0.41082 0.0
H398 H 0.48192 0.02931 0.38753 0.0
O399 O 0.43188 0.92265 0.45544 0.0
O400 O 0.4743 0.96308 0.42496 0.0
O401 O 0.36781 0.98099 0.42008 0.0
O402 O 0.40747 0.00151 0.38039 0.0
C403 C 0.46451 0.95051 0.45162 0.0
H404 H 0.59366 0.95106 0.32189 0.0
H405 H 0.54871 0.07013 0.37175 0.0
H406 H 0.30215 0.93637 0.5127 0.0
H407 H 0.22596 0.8583 0.44681 0.0
C408 C 0.18726 0.28911 0.3016 0.0
N409 N 0.14598 0.42395 0.31701 0.0
C410 C 0.17265 0.42462 0.29138 0.0
C411 C 0.17173 0.46084 0.27084 0.0
C412 C 0.14472 0.49927 0.27663 0.0
C413 C 0.11762 0.49868 0.30349 0.0
C414 C 0.11876 0.46052 0.32345 0.0
Zn415 Zn 0.15914 0.36451 0.34341 0.0
C416 C 0.08263 0.30226 0.35786 0.0
N417 N 0.20832 0.24525 0.38787 0.0
C418 C 0.24296 0.24881 0.40829 0.0
C419 C 0.19703 0.2045 0.37522 0.0
C420 C 0.22405 0.16621 0.38052 0.0
C421 C 0.26226 0.17017 0.3993 0.0
C422 C 0.27069 0.2112 0.41442 0.0
Zn423 Zn 0.18504 0.30283 0.3675 0.0
O424 O 0.16495 0.32635 0.3012 0.0
C425 C 0.2597 0.36549 0.35147 0.0
O426 O 0.19911 0.27262 0.32689 0.0
H427 H 0.1696 0.20263 0.35886 0.0
H428 H 0.19602 0.39719 0.28661 0.0
H429 H 0.25146 0.28166 0.41787 0.0
O430 O 0.22579 0.38418 0.33916 0.0
O431 O 0.2537 0.32951 0.36722 0.0
H432 H 0.09838 0.46051 0.34409 0.0
O433 O 0.17297 0.33175 0.40899 0.0
O434 O 0.15887 0.3989 0.38826 0.0
O435 O 0.11663 0.27824 0.36649 0.0
O436 O 0.08932 0.3429 0.34803 0.0
C437 C 0.16632 0.37412 0.41201 0.0
H438 H 0.19165 0.45775 0.25011 0.0
H439 H 0.09579 0.52733 0.30904 0.0
H440 H 0.21686 0.13463 0.36871 0.0
H441 H 0.30003 0.21488 0.42913 0.0
C442 C 0.95056 0.94399 0.05057 0.0
N443 N 0.81841 0.89838 0.06947 0.0
C444 C 0.80786 0.93497 0.0513 0.0
C445 C 0.77265 0.93383 0.0304 0.0
C446 C 0.74914 0.89333 0.02501 0.0
C447 C 0.76059 0.85502 0.04337 0.0
C448 C 0.79509 0.85849 0.06586 0.0
Zn449 Zn 0.87621 0.91458 0.09683 0.0
C450 C 0.94629 0.84122 0.1085 0.0
N451 N 0.9956 0.9742 0.13139 0.0
C452 C 0.00899 0.00932 0.11296 0.0
C453 C 0.01693 0.96566 0.15833 0.0
C454 C 0.05409 0.99271 0.16704 0.0
C455 C 0.06861 0.02844 0.1477 0.0
C456 C 0.04528 0.03661 0.1206 0.0
Zn457 Zn 0.94063 0.94128 0.11404 0.0
O458 O 0.9081 0.93594 0.05319 0.0
C459 C 0.86917 0.01243 0.10179 0.0
O460 O 0.97491 0.94083 0.07383 0.0
H461 H 0.00533 0.93804 0.17287 0.0
H462 H 0.82768 0.96581 0.0517 0.0
H463 H 0.99189 0.01644 0.09173 0.0
O464 O 0.84636 0.97642 0.10178 0.0
O465 O 0.91199 0.00929 0.10484 0.0
H466 H 0.80429 0.8289 0.07938 0.0
O467 O 0.90836 0.94023 0.15592 0.0
O468 O 0.84745 0.90091 0.1423 0.0
O469 O 0.96665 0.87457 0.12129 0.0
O470 O 0.90842 0.84823 0.09469 0.0
C471 C 0.8711 0.92087 0.16299 0.0
H472 H 0.76536 0.96467 0.0176 0.0
H473 H 0.74458 0.82229 0.0397 0.0
H474 H 0.07143 0.98561 0.1883 0.0
H475 H 0.05591 0.06307 0.10474 0.0
C476 C 0.28893 0.70972 0.80798 0.0
N477 N 0.34507 0.57924 0.82206 0.0
C478 C 0.30741 0.56585 0.80611 0.0
C479 C 0.30927 0.53136 0.78465 0.0
C480 C 0.35109 0.5124 0.7762 0.0
C481 C 0.39014 0.5261 0.79265 0.0
C482 C 0.38628 0.55951 0.81583 0.0
Zn483 Zn 0.32882 0.63513 0.85097 0.0
C484 C 0.4004 0.70784 0.85822 0.0
N485 N 0.26899 0.75035 0.89242 0.0
C486 C 0.22928 0.76182 0.87829 0.0
C487 C 0.2815 0.77052 0.919 0.0
C488 C 0.25375 0.80459 0.93177 0.0
C489 C 0.21271 0.81661 0.91721 0.0
C490 C 0.20066 0.79449 0.89034 0.0
Zn491 Zn 0.30168 0.69836 0.87086 0.0
O492 O 0.30104 0.66792 0.80915 0.0
C493 C 0.23325 0.62342 0.86267 0.0
O494 O 0.29223 0.73329 0.83164 0.0
H495 H 0.31293 0.76055 0.93004 0.0
H496 H 0.27511 0.58294 0.80869 0.0
H497 H 0.21943 0.74599 0.85715 0.0
O498 O 0.26988 0.60231 0.85895 0.0
O499 O 0.23467 0.66617 0.86655 0.0
H500 H 0.41638 0.57079 0.8278 0.0
O501 O 0.31153 0.66531 0.91169 0.0
O502 O 0.34924 0.60508 0.8949 0.0
O503 O 0.36839 0.7279 0.87298 0.0
O504 O 0.39247 0.66962 0.84528 0.0
C505 C 0.33213 0.62814 0.91711 0.0
H506 H 0.27781 0.52107 0.77385 0.0
H507 H 0.42343 0.51243 0.78697 0.0
H508 H 0.26453 0.82198 0.95225 0.0
H509 H 0.17043 0.80406 0.87768 0.0
C510 C 0.54113 0.05183 0.55206 0.0
N511 N 0.6732 0.10073 0.5658 0.0
C512 C 0.67381 0.07671 0.53917 0.0
C513 C 0.71055 0.07836 0.51915 0.0
C514 C 0.74987 0.10288 0.52648 0.0
C515 C 0.74979 0.1263 0.55473 0.0
C516 C 0.71083 0.12503 0.57399 0.0
Zn517 Zn 0.61455 0.08449 0.59232 0.0
C518 C 0.54713 0.15827 0.60621 0.0
N519 N 0.50057 0.02813 0.63896 0.0
C520 C 0.49089 0.98612 0.62755 0.0
C521 C 0.4743 0.04709 0.66125 0.0
C522 C 0.43556 0.02392 0.672 0.0
C523 C 0.42423 0.98128 0.65943 0.0
C524 C 0.453 0.96224 0.6374 0.0
Zn525 Zn 0.55548 0.05785 0.6184 0.0
O526 O 0.57624 0.077 0.55051 0.0
C527 C 0.62414 0.98668 0.60404 0.0
O528 O 0.52682 0.03964 0.57789 0.0
H529 H 0.48279 0.08038 0.67014 0.0
H530 H 0.6466 0.05387 0.53344 0.0
H531 H 0.51165 0.97128 0.60976 0.0
O532 O 0.63871 0.01923 0.58801 0.0
O533 O 0.58969 0.99288 0.62108 0.0
H534 H 0.7114 0.14219 0.59579 0.0
O535 O 0.58268 0.07475 0.65942 0.0
O536 O 0.64916 0.087 0.6372 0.0
O537 O 0.52414 0.12371 0.61532 0.0
O538 O 0.5882 0.15262 0.59681 0.0
C539 C 0.6251 0.08173 0.66157 0.0
H540 H 0.70763 0.06004 0.49786 0.0
H541 H 0.77958 0.14462 0.56234 0.0
H542 H 0.41427 0.03951 0.68932 0.0
H543 H 0.44517 0.92997 0.62665 0.0
C544 C 0.25893 0.2105 0.25304 0.0
C545 C 0.26515 0.23577 0.22612 0.0
C546 C 0.23081 0.22676 0.27644 0.0
C547 C 0.20782 0.26901 0.27392 0.0
H548 H 0.27552 0.17771 0.25603 0.0
H549 H 0.22806 0.2064 0.29708 0.0
S550 S 0.21117 0.34762 0.20741 0.0
N551 N 0.24508 0.30496 0.19785 0.0
N552 N 0.1917 0.33479 0.24176 0.0
C553 C 0.21264 0.29402 0.24676 0.0
C554 C 0.24164 0.27773 0.22298 0.0
C555 C 0.529 0.48207 0.52823 0.0
C556 C 0.48197 0.47216 0.52955 0.0
C557 C 0.54689 0.51175 0.50619 0.0
C558 C 0.51839 0.53278 0.48467 0.0
H559 H 0.55228 0.46706 0.54459 0.0
H560 H 0.58344 0.51712 0.5055 0.0
S561 S 0.39245 0.51981 0.47903 0.0
N562 N 0.40715 0.48653 0.50781 0.0
N563 N 0.44039 0.54291 0.46661 0.0
C564 C 0.47112 0.52373 0.48601 0.0
C565 C 0.45304 0.49307 0.50824 0.0
C566 C 0.22807 0.7984 0.7596 0.0
C567 C 0.20724 0.77218 0.737 0.0
C568 C 0.25587 0.77779 0.78165 0.0
C569 C 0.26392 0.73014 0.78199 0.0
H570 H 0.22475 0.83525 0.7594 0.0
H571 H 0.27142 0.79962 0.79854 0.0
S572 S 0.21408 0.64597 0.72893 0.0
N573 N 0.19421 0.69575 0.71713 0.0
N574 N 0.24645 0.65726 0.75865 0.0
C575 C 0.24223 0.70342 0.75998 0.0
C576 C 0.21374 0.72435 0.73762 0.0
C577 C 0.95895 0.48924 1.00398 0.0
C578 C 0.9848 0.47393 0.97915 0.0
C579 C 0.97738 0.51965 0.02507 0.0
C580 C 0.0229 0.53548 0.02271 0.0
H581 H 0.92369 0.47885 0.00667 0.0
H582 H 0.9557 0.53006 0.04388 0.0
S583 S 0.10497 0.5054 0.96145 0.0
N584 N 0.05806 0.4773 0.95269 0.0
N585 N 0.09318 0.5333 0.9932 0.0
C586 C 0.04914 0.52058 0.99784 0.0
C587 C 0.03008 0.48996 0.97599 0.0
C588 C 0.74265 0.71307 0.78458 0.0
C589 C 0.72814 0.75906 0.78288 0.0
C590 C 0.77413 0.69502 0.76363 0.0
C591 C 0.79262 0.72246 0.74038 0.0
H592 H 0.72932 0.69063 0.8022 0.0
H593 H 0.78226 0.65896 0.76479 0.0
S594 S 0.7698 0.84607 0.72778 0.0
N595 N 0.73714 0.8321 0.75711 0.0
N596 N 0.797 0.79882 0.71828 0.0
C597 C 0.78 0.769 0.73931 0.0
C598 C 0.7474 0.78707 0.76024 0.0
C599 C 0.72493 0.22276 0.23282 0.0
C600 C 0.71508 0.27003 0.23347 0.0
C601 C 0.7548 0.20249 0.25386 0.0
C602 C 0.77623 0.22883 0.2762 0.0
H603 H 0.70971 0.20121 0.21562 0.0
H604 H 0.75991 0.16587 0.25322 0.0
S605 S 0.76455 0.35436 0.28657 0.0
N606 N 0.7307 0.34264 0.25769 0.0
N607 N 0.78715 0.30508 0.29699 0.0
C608 C 0.76735 0.27629 0.27673 0.0
C609 C 0.73655 0.29671 0.25558 0.0
C610 C 0.01809 0.967 0.01983 0.0
C611 C 0.97048 0.96902 0.02451 0.0
C612 C 0.04048 0.99797 1.00048 0.0
C613 C 0.01609 0.03234 0.98522 0.0
H614 H 0.0384 0.94166 0.0317 0.0
H615 H 0.07681 0.99391 0.99668 0.0
S616 S 0.89141 0.05417 0.99102 0.0
N617 N 0.90007 0.00932 0.01318 0.0
N618 N 0.94189 0.06764 0.97679 0.0
C619 C 0.96853 0.03513 0.99002 0.0
C620 C 0.94575 0.00332 0.00949 0.0
C621 C 0.4649 0.97514 0.50584 0.0
C622 C 0.48639 0.97429 0.47724 0.0
C623 C 0.48166 0.00248 0.52924 0.0
C624 C 0.52081 0.02988 0.52509 0.0
H625 H 0.43437 0.95529 0.51009 0.0
H626 H 0.46395 0.00147 0.55099 0.0
S627 S 0.58993 0.03953 0.45428 0.0
N628 N 0.54922 0.00293 0.44587 0.0
N629 N 0.58038 0.05457 0.48999 0.0
C630 C 0.5425 0.02962 0.49651 0.0
C631 C 0.52553 0.00159 0.47262 0.0
C632 C 0.31029 0.13016 0.0103 0.0
C633 C 0.27045 0.10342 0.01057 0.0
C634 C 0.33786 0.13388 0.03644 0.0
C635 C 0.32723 0.11045 0.06379 0.0
H636 H 0.3193 0.14977 0.99016 0.0
H637 H 0.36556 0.15831 0.03609 0.0
S638 S 0.22765 0.03526 0.07681 0.0
N639 N 0.22206 0.05316 0.04131 0.0
N640 N 0.27566 0.05787 0.08898 0.0
C641 C 0.28963 0.08099 0.06363 0.0
C642 C 0.26061 0.07836 0.03756 0.0
C643 C 0.61581 0.58579 0.29064 0.0
C644 C 0.64044 0.57171 0.3166 0.0
C645 C 0.61712 0.56056 0.26337 0.0
C646 C 0.64227 0.51979 0.26143 0.0
H647 H 0.59204 0.61404 0.29235 0.0
H648 H 0.59547 0.57097 0.24462 0.0
S649 S 0.71578 0.47034 0.32177 0.0
N650 N 0.69381 0.51663 0.33749 0.0
N651 N 0.69565 0.4688 0.28665 0.0
C652 C 0.66969 0.50727 0.28636 0.0
C653 C 0.66907 0.53345 0.31381 0.0
C654 C 0.18903 0.92617 0.55482 0.0
C655 C 0.16942 0.88404 0.56254 0.0
C656 C 0.21322 0.9317 0.52716 0.0
C657 C 0.21999 0.89493 0.50663 0.0
H658 H 0.18983 0.95343 0.57142 0.0
H659 H 0.22984 0.96415 0.52308 0.0
S660 S 0.1657 0.78091 0.5137 0.0
N661 N 0.14947 0.80831 0.54472 0.0
N662 N 0.19753 0.81731 0.49425 0.0
C663 C 0.19547 0.85459 0.51253 0.0
C664 C 0.1696 0.84959 0.54011 0.0
C665 C 0.83215 0.48738 0.7881 0.0
C666 C 0.8565 0.47257 0.76215 0.0
C667 C 0.83059 0.46098 0.81501 0.0
C668 C 0.85419 0.41922 0.81715 0.0
H669 H 0.81659 0.52095 0.78823 0.0
H670 H 0.81569 0.47607 0.83528 0.0
S671 S 0.9169 0.36212 0.75428 0.0
N672 N 0.89916 0.41062 0.73901 0.0
N673 N 0.89754 0.36175 0.78975 0.0
C674 C 0.87449 0.40202 0.79035 0.0
C675 C 0.87558 0.42861 0.76286 0.0
C676 C 0.72709 0.91696 0.97149 0.0
C677 C 0.71687 0.89172 0.99833 0.0
C678 C 0.70005 0.91433 0.94522 0.0
C679 C 0.66218 0.88527 0.94404 0.0
H680 H 0.75799 0.93697 0.96982 0.0
H681 H 0.71206 0.93119 0.92464 0.0
S682 S 0.61643 0.81609 0.00832 0.0
N683 N 0.6619 0.84113 0.02272 0.0
N684 N 0.61311 0.83373 0.97254 0.0
C685 C 0.64968 0.86206 0.97105 0.0
C686 C 0.67665 0.86551 0.99819 0.0
C687 C 0.3814 0.44233 0.7489 0.0
C688 C 0.35315 0.48126 0.74904 0.0
C689 C 0.3856 0.41479 0.72274 0.0
C690 C 0.36101 0.42437 0.69587 0.0
H691 H 0.40168 0.43398 0.76875 0.0
H692 H 0.41087 0.38774 0.72276 0.0
S693 S 0.28297 0.52219 0.68367 0.0
N694 N 0.30094 0.52822 0.71902 0.0
N695 N 0.30694 0.47479 0.67119 0.0
C696 C 0.33069 0.46143 0.69629 0.0
C697 C 0.32743 0.49038 0.7224 0.0
C698 C 0.81906 0.07326 0.45511 0.0
C699 C 0.83764 0.11564 0.44686 0.0
C700 C 0.7956 0.06774 0.48306 0.0
C701 C 0.78817 0.10485 0.50327 0.0
H702 H 0.81824 0.04577 0.43867 0.0
H703 H 0.77982 0.035 0.48753 0.0
S704 S 0.84077 0.21952 0.49498 0.0
N705 N 0.85698 0.1918 0.46408 0.0
N706 N 0.80974 0.183 0.51491 0.0
C707 C 0.81211 0.14541 0.49693 0.0
C708 C 0.83759 0.15029 0.46916 0.0
C709 C 0.09899 0.55487 0.24521 0.0
C710 C 0.14174 0.53637 0.25276 0.0
C711 C 0.09245 0.57869 0.21773 0.0
C712 C 0.12802 0.58433 0.19613 0.0
H713 H 0.06928 0.54745 0.25912 0.0
H714 H 0.05791 0.58864 0.21194 0.0
S715 S 0.24926 0.55489 0.20883 0.0
N716 N 0.22288 0.53621 0.23985 0.0
N717 N 0.20935 0.57776 0.18707 0.0
C718 C 0.17204 0.57152 0.20508 0.0
C719 C 0.17911 0.54817 0.23358 0.0
C720 C 0.78549 0.57751 0.56726 0.0
C721 C 0.82377 0.60582 0.56949 0.0
C722 C 0.75909 0.57661 0.54064 0.0
C723 C 0.7703 0.60306 0.51448 0.0
H724 H 0.77291 0.55966 0.58732 0.0
H725 H 0.72794 0.55689 0.5415 0.0
S726 S 0.8715 0.67843 0.50762 0.0
N727 N 0.87378 0.65872 0.54296 0.0
N728 N 0.82626 0.65458 0.49205 0.0
C729 C 0.81069 0.62893 0.51577 0.0
C730 C 0.83698 0.63061 0.54329 0.0
C731 C 0.16247 0.0317 0.8094 0.0
C732 C 0.13156 0.06757 0.81482 0.0
C733 C 0.16243 0.00791 0.78156 0.0
C734 C 0.13183 0.01945 0.75806 0.0
H735 H 0.18347 0.01887 0.82784 0.0
H736 H 0.18451 0.97844 0.77911 0.0
S737 S 0.04738 0.11344 0.75971 0.0
N738 N 0.07192 0.11542 0.79354 0.0
N739 N 0.07282 0.07156 0.74103 0.0
C740 C 0.1035 0.05754 0.76223 0.0
C741 C 0.1032 0.08142 0.79065 0.0
C742 C 0.71617 0.42322 0.06486 0.0
C743 C 0.6762 0.39681 0.06667 0.0
C744 C 0.74371 0.423 0.03845 0.0
C745 C 0.73183 0.39709 0.01267 0.0
H746 H 0.72908 0.43984 0.0851 0.0
H747 H 0.77591 0.44107 0.03885 0.0
S748 S 0.62744 0.32742 1.00431 0.0
N749 N 0.624 0.34775 0.03935 0.0
N750 N 0.67477 0.34871 0.98944 0.0
C751 C 0.68972 0.37439 0.01309 0.0
C752 C 0.66208 0.37406 0.04012 0.0
C753 C 0.37318 0.94625 0.26352 0.0
C754 C 0.34811 0.98725 0.2644 0.0
C755 C 0.37627 0.91757 0.28928 0.0
C756 C 0.35408 0.9283 0.317 0.0
H757 H 0.39194 0.93695 0.24313 0.0
H758 H 0.39927 0.88861 0.28826 0.0
S759 S 0.2802 0.02877 0.33105 0.0
N760 N 0.29865 0.03562 0.29573 0.0
N761 N 0.30243 0.98009 0.34282 0.0
C762 C 0.32566 0.96684 0.31743 0.0
C763 C 0.32349 0.99687 0.29161 0.0
C764 C 0.19613 0.3736 0.4952 0.0
C765 C 0.23908 0.39497 0.49494 0.0
C766 C 0.16894 0.37223 0.46876 0.0
C767 C 0.18314 0.39288 0.44115 0.0
H768 H 0.18396 0.35678 0.51573 0.0
H769 H 0.13786 0.3523 0.46936 0.0
S770 S 0.29333 0.45146 0.42769 0.0
N771 N 0.29503 0.43586 0.4639 0.0
N772 N 0.24303 0.4349 0.41521 0.0
C773 C 0.22502 0.41596 0.44095 0.0
C774 C 0.25325 0.4164 0.46749 0.0
C775 C 0.82665 0.96844 0.19866 0.0
C776 C 0.8548 0.93001 0.19436 0.0
C777 C 0.82857 0.99419 0.22569 0.0
C778 C 0.85822 0.98215 0.24964 0.0
H779 H 0.80678 0.98164 0.17977 0.0
H780 H 0.80865 0.0253 0.22713 0.0
S781 S 0.9351 0.88176 0.25116 0.0
N782 N 0.91053 0.87933 0.21736 0.0
N783 N 0.91291 0.92669 0.26845 0.0
C784 C 0.88337 0.94156 0.24677 0.0
C785 C 0.88187 0.91573 0.2191 0.0
C786 C 0.31048 0.64117 0.9999 0.0
C787 C 0.27285 0.61211 1.00383 0.0
C788 C 0.33636 0.64051 0.97272 0.0
C789 C 0.32575 0.6106 0.94858 0.0
H790 H 0.31756 0.66711 0.01676 0.0
H791 H 0.36152 0.66708 0.96919 0.0
S792 S 0.23517 0.52264 0.95011 0.0
N793 N 0.22993 0.54867 0.9833 0.0
N794 N 0.27864 0.54729 0.93249 0.0
C795 C 0.29147 0.57804 0.95388 0.0
C796 C 0.26476 0.57907 0.98133 0.0
C797 C 0.67131 0.02797 0.69188 0.0
C798 C 0.64494 0.06798 0.69118 0.0
C799 C 0.67333 0.0006 0.71824 0.0
C800 C 0.64983 0.01242 0.74539 0.0
H801 H 0.68653 0.01506 0.67103 0.0
H802 H 0.69124 0.96837 0.71649 0.0
S803 S 0.58227 0.11836 0.7566 0.0
N804 N 0.59849 0.12069 0.72048 0.0
N805 N 0.60448 0.07088 0.77062 0.0
C806 C 0.62658 0.05453 0.74564 0.0
C807 C 0.6239 0.08197 0.71854 0.0
C808 C 0.49082 0.20804 0.15142 0.0
C809 C 0.451 0.23506 0.15132 0.0
C810 C 0.53451 0.22788 0.15026 0.0
C811 C 0.54027 0.27562 0.14967 0.0
H812 H 0.48827 0.17116 0.15192 0.0
H813 H 0.56402 0.20558 0.1503 0.0
S814 S 0.44714 0.36173 0.14955 0.0
N815 N 0.42035 0.31221 0.15049 0.0
N816 N 0.50212 0.34939 0.14916 0.0
C817 C 0.50074 0.30303 0.14987 0.0
C818 C 0.45627 0.28282 0.15044 0.0
C819 C 0.54706 0.74569 0.40312 0.0
C820 C 0.52105 0.70539 0.40236 0.0
C821 C 0.52607 0.78901 0.40258 0.0
C822 C 0.47816 0.79381 0.40203 0.0
H823 H 0.58396 0.74379 0.40357 0.0
H824 H 0.54762 0.81899 0.40287 0.0
S825 S 0.39451 0.69882 0.4012 0.0
N826 N 0.44467 0.67315 0.40163 0.0
N827 N 0.40546 0.75407 0.40133 0.0
C828 C 0.45181 0.75371 0.40185 0.0
C829 C 0.47316 0.70971 0.40182 0.0
C830 C -0.00158 0.69986 0.64993 0.0
C831 C 0.95773 0.72558 0.64929 0.0
C832 C 0.04142 0.72108 0.64875 0.0
C833 C 0.04546 0.76893 0.64754 0.0
H834 H 0.99709 0.66296 0.65139 0.0
H835 H 0.07169 0.69986 0.64964 0.0
S836 S 0.94964 0.85196 0.6447 0.0
N837 N 0.92453 0.80164 0.64653 0.0
N838 N 0.00496 0.84136 0.64491 0.0
C839 C 0.00508 0.79501 0.64657 0.0
C840 C 0.96138 0.77341 0.64727 0.0
C841 C 0.02824 0.28646 0.90152 0.0
C842 C 0.98052 0.29235 0.90077 0.0
C843 C 0.04814 0.2426 0.9017 0.0
C844 C 0.02115 0.20294 0.90029 0.0
H845 H 0.05042 0.31594 0.90245 0.0
H846 H 0.08496 0.23976 0.90256 0.0
S847 S 0.8946 0.19949 0.89772 0.0
N848 N 0.9069 0.25442 0.89872 0.0
N849 N 0.94411 0.17258 0.89829 0.0
C850 C 0.97345 0.20842 0.89924 0.0
C851 C 0.95321 0.2529 0.89969 0.0
C852 C 0.49634 0.79614 0.85668 0.0
C853 C 0.53575 0.76917 0.85299 0.0
C854 C 0.45271 0.77614 0.85859 0.0
C855 C 0.44676 0.72854 0.85613 0.0
H856 H 0.49933 0.83281 0.85903 0.0
H857 H 0.42341 0.79819 0.86189 0.0
S858 S 0.53905 0.64315 0.84476 0.0
N859 N 0.56589 0.69256 0.84617 0.0
N860 N 0.48437 0.65524 0.84896 0.0
C861 C 0.48592 0.70143 0.85163 0.0
C862 C 0.53023 0.72166 0.85028 0.0
C863 C 0.45673 0.25253 0.60584 0.0
C864 C 0.48261 0.29285 0.60732 0.0
C865 C 0.47783 0.20929 0.60572 0.0
C866 C 0.52574 0.20458 0.60636 0.0
H867 H 0.41983 0.25431 0.60534 0.0
H868 H 0.45635 0.17929 0.60488 0.0
S869 S 0.60915 0.29964 0.60907 0.0
N870 N 0.55893 0.32522 0.60886 0.0
N871 N 0.59834 0.2444 0.60796 0.0
C872 C 0.552 0.2447 0.60726 0.0
C873 C 0.53053 0.28863 0.60794 0.0
C874 C 0.03197 0.23356 0.35743 0.0
C875 C 0.03622 0.28145 0.35818 0.0
C876 C 0.98914 0.21229 0.35727 0.0
C877 C 0.94848 0.23782 0.35849 0.0
H878 H 0.06209 0.21211 0.35653 0.0
H879 H 0.98799 0.17535 0.35648 0.0
S880 S 0.9403 0.36423 0.36102 0.0
N881 N 0.9957 0.35389 0.36003 0.0
N882 N 0.91515 0.31383 0.36049 0.0
C883 C 0.95205 0.28575 0.35955 0.0
C884 C 0.99585 0.30754 0.35914 0.0
C885 C 0.03721 0.74804 0.11006 0.0
C886 C 0.01185 0.70737 0.10858 0.0
C887 C 0.01563 0.79093 0.11053 0.0
C888 C 0.96781 0.79508 0.10875 0.0
H889 H 0.07409 0.74675 0.11118 0.0
H890 H 0.03675 0.82116 0.11178 0.0
S891 S 0.88569 0.69917 0.10397 0.0
N892 N 0.93612 0.67404 0.10538 0.0
N893 N 0.89577 0.75457 0.10534 0.0
C894 C 0.94204 0.75471 0.10698 0.0
C895 C 0.96397 0.71095 0.10718 0.0
C896 C 0.22606 0.41577 0.093 0.0
C897 C 0.2043 0.37476 0.08555 0.0
C898 C 0.20086 0.45578 0.09703 0.0
C899 C 0.15305 0.45595 0.09408 0.0
H900 H 0.26227 0.41632 0.09783 0.0
H901 H 0.21881 0.48641 0.10376 0.0
S902 S 0.08115 0.35922 0.06951 0.0
N903 N 0.13329 0.3379 0.0712 0.0
N904 N 0.08568 0.41333 0.07944 0.0
C905 C 0.13125 0.41597 0.08462 0.0
C906 C 0.15702 0.37536 0.08003 0.0
C907 C 0.30476 0.43507 0.33977 0.0
C908 C 0.3041 0.3887 0.34867 0.0
C909 C 0.34516 0.46014 0.33946 0.0
C910 C 0.38651 0.43972 0.34776 0.0
H911 H 0.27345 0.45302 0.3344 0.0
H912 H 0.34339 0.49642 0.33469 0.0
S913 S 0.40478 0.31746 0.36711 0.0
N914 N 0.34912 0.32204 0.36225 0.0
N915 N 0.4258 0.36893 0.36074 0.0
C916 C 0.38704 0.39246 0.35417 0.0
C917 C 0.34564 0.36703 0.35497 0.0
C918 C 0.2883 0.59731 0.60413 0.0
C919 C 0.31139 0.63909 0.6049 0.0
C920 C 0.31211 0.55622 0.60596 0.0
C921 C 0.35997 0.55526 0.60886 0.0
H922 H 0.25136 0.59627 0.60368 0.0
H923 H 0.29246 0.52493 0.60595 0.0
S924 S 0.43677 0.65559 0.60799 0.0
N925 N 0.38492 0.67748 0.60565 0.0
N926 N 0.42994 0.59968 0.60961 0.0
C927 C 0.38375 0.59677 0.60826 0.0
C928 C 0.35939 0.63881 0.60611 0.0
C929 C 0.11222 0.59491 0.84086 0.0
C930 C 0.11115 0.54713 0.84472 0.0
C931 C 0.15142 0.61999 0.84767 0.0
C932 C 0.19077 0.59792 0.85832 0.0
H933 H 0.08186 0.61315 0.83374 0.0
H934 H 0.15098 0.65667 0.84444 0.0
S935 S 0.20581 0.47327 0.87138 0.0
N936 N 0.15284 0.47883 0.85945 0.0
N937 N 0.22693 0.52539 0.87137 0.0
C938 C 0.19054 0.54997 0.86127 0.0
C939 C 0.1507 0.52466 0.85451 0.0
C940 C 0.795 0.59819 0.93321 0.0
C941 C 0.78665 0.62377 0.90682 0.0
C942 C 0.82444 0.56075 0.93225 0.0
C943 C 0.84678 0.54832 0.90496 0.0
H944 H 0.77744 0.60618 0.95434 0.0
H945 H 0.82888 0.54072 0.95287 0.0
S946 S 0.83913 0.608 0.83045 0.0
N947 N 0.80478 0.63692 0.8533 0.0
N948 N 0.86089 0.56653 0.85154 0.0
C949 C 0.84054 0.57531 0.87882 0.0
C950 C 0.8101 0.61308 0.87973 0.0
C951 C 0.66203 0.61385 0.67089 0.0
C952 C 0.70398 0.59082 0.6707 0.0
C953 C 0.6211 0.58958 0.67274 0.0
C954 C 0.62084 0.54147 0.67381 0.0
H955 H 0.66075 0.65069 0.66874 0.0
H956 H 0.58932 0.60839 0.67125 0.0
S957 S 0.72178 0.4654 0.67688 0.0
N958 N 0.743 0.51742 0.67475 0.0
N959 N 0.66589 0.47201 0.67703 0.0
C960 C 0.66254 0.51828 0.67578 0.0
C961 C 0.70422 0.54293 0.67433 0.0
C962 C 0.71188 0.39904 0.41148 0.0
C963 C 0.68786 0.3578 0.41307 0.0
C964 C 0.68883 0.44048 0.40931 0.0
C965 C 0.64082 0.44232 0.40858 0.0
H966 H 0.74879 0.39926 0.41009 0.0
H967 H 0.70911 0.47123 0.40725 0.0
S968 S 0.56212 0.34399 0.41601 0.0
N969 N 0.61364 0.32107 0.41678 0.0
N970 N 0.56995 0.39958 0.41241 0.0
C971 C 0.61625 0.40149 0.4117 0.0
C972 C 0.63987 0.35909 0.41409 0.0
C973 C 0.80267 0.44698 0.16407 0.0
C974 C 0.80111 0.39928 0.16053 0.0
C975 C 0.84408 0.47029 0.16373 0.0
C976 C 0.88541 0.44667 0.16011 0.0
H977 H 0.77154 0.46684 0.16579 0.0
H978 H 0.84345 0.50724 0.1645 0.0
S979 S 0.90026 0.32106 0.15541 0.0
N980 N 0.84447 0.3287 0.15684 0.0
N981 N 0.92287 0.37259 0.15697 0.0
C982 C 0.88457 0.39867 0.15879 0.0
C983 C 0.84225 0.37494 0.15873 0.0
C984 C 0.65177 0.86096 0.60821 0.0
C985 C 0.69976 0.86069 0.60583 0.0
C986 C 0.62715 0.9019 0.60765 0.0
C987 C 0.64973 0.94368 0.60406 0.0
H988 H 0.63322 0.82934 0.61139 0.0
H989 H 0.59037 0.90087 0.6101 0.0
S990 S 0.77462 0.96181 0.59685 0.0
N991 N 0.76873 0.90599 0.60011 0.0
N992 N 0.72238 0.98281 0.59777 0.0
C993 C 0.69748 0.94388 0.60066 0.0
C994 C 0.72255 0.90236 0.60174 0.0
C995 C 0.80188 0.92695 0.85264 0.0
C996 C 0.80148 0.88083 0.86224 0.0
C997 C 0.8422 0.95189 0.85095 0.0
C998 C 0.88383 0.93185 0.85883 0.0
H999 H 0.77053 0.94472 0.8471 0.0
H1000 H 0.8403 0.98784 0.84515 0.0
S1001 S 0.90286 0.81102 0.88147 0.0
N1002 N 0.84707 0.81506 0.87698 0.0
N1003 N 0.92357 0.86219 0.87367 0.0
C1004 C 0.88459 0.88515 0.86684 0.0
C1005 C 0.84324 0.85962 0.86868 0.0
C1006 C 0.86922 0.09735 0.09479 0.0
C1007 C 0.84507 0.05612 0.09683 0.0
C1008 C 0.84599 0.13898 0.09203 0.0
C1009 C 0.79795 0.14062 0.09119 0.0
H1010 H 0.90609 0.09764 0.09634 0.0
H1011 H 0.86555 0.17032 0.09228 0.0
S1012 S 0.71891 0.04212 0.09262 0.0
N1013 N 0.77024 0.01944 0.09511 0.0
N1014 N 0.7273 0.09764 0.09036 0.0
C1015 C 0.77365 0.09956 0.09113 0.0
C1016 C 0.79704 0.0573 0.09398 0.0
C1017 C 0.6225 0.08389 0.33517 0.0
C1018 C 0.62122 0.03683 0.34201 0.0
C1019 C 0.66217 0.10939 0.3395 0.0
C1020 C 0.70205 0.08838 0.35011 0.0
H1021 H 0.59197 0.10149 0.32768 0.0
H1022 H 0.66166 0.14564 0.33447 0.0
S1023 S 0.71758 0.96623 0.37002 0.0
N1024 N 0.66376 0.97035 0.35946 0.0
N1025 N 0.73905 0.01798 0.36613 0.0
C1026 C 0.70202 0.04111 0.35561 0.0
C1027 C 0.66145 0.0153 0.35177 0.0
C1028 C 0.29462 0.10235 0.42535 0.0
C1029 C 0.29539 0.13275 0.40069 0.0
C1030 C 0.32301 0.06402 0.42555 0.0
C1031 C 0.35319 0.05496 0.4011 0.0
H1032 H 0.27098 0.10752 0.4441 0.0
H1033 H 0.32031 0.0407 0.44473 0.0
S1034 S 0.36977 0.12733 0.33227 0.0
N1035 N 0.32963 0.15369 0.3521 0.0
N1036 N 0.38389 0.08177 0.3525 0.0
C1037 C 0.35568 0.08664 0.37697 0.0
C1038 C 0.32636 0.12547 0.3767 0.0
C1039 C 0.1105 0.10234 0.14732 0.0
C1040 C 0.11051 0.0549 0.15298 0.0
C1041 C 0.1513 0.12663 0.14431 0.0
C1042 C 0.19338 0.10437 0.14737 0.0
H1043 H 0.07864 0.12042 0.1439 0.0
H1044 H 0.14985 0.16291 0.13948 0.0
S1045 S 0.21181 0.98102 0.16391 0.0
N1046 N 0.15591 0.98696 0.16238 0.0
N1047 N 0.23273 0.03252 0.15794 0.0
C1048 C 0.19378 0.05731 0.15452 0.0
C1049 C 0.15228 0.03262 0.15719 0.0
C1050 C 0.18621 0.94024 0.92052 0.0
C1051 C 0.13846 0.9409 0.91661 0.0
C1052 C 0.20982 0.8995 0.92489 0.0
C1053 C 0.18665 0.85781 0.92531 0.0
H1054 H 0.20615 0.97124 0.91884 0.0
H1055 H 0.24677 0.90045 0.92514 0.0
S1056 S 0.06131 0.8412 0.92241 0.0
N1057 N 0.06826 0.89682 0.91819 0.0
N1058 N 0.11307 0.81955 0.9263 0.0
C1059 C 0.13861 0.85814 0.92451 0.0
C1060 C 0.1144 0.89985 0.92004 0.0
C1061 C 0.33882 0.88573 0.66732 0.0
C1062 C 0.29727 0.90854 0.66295 0.0
C1063 C 0.37971 0.9101 0.66907 0.0
C1064 C 0.3805 0.95802 0.66586 0.0
H1065 H 0.33984 0.84883 0.66901 0.0
H1066 H 0.41125 0.89114 0.67153 0.0
S1067 S 0.28031 0.03375 0.65515 0.0
N1068 N 0.2588 0.98181 0.65711 0.0
N1069 N 0.33589 0.02734 0.65918 0.0
C1070 C 0.3389 0.98131 0.66279 0.0
C1071 C 0.29722 0.95659 0.66148 0.0
loop_
_geom_bond_atom_site_label_1
_geom_bond_atom_site_label_2
_geom_bond_distance
_geom_bond_site_symmetry_2
_ccdc_geom_bond_type
C0 O16 1.251 . S
C0 O18 1.254 . S
N1 C2 1.333 . S
N1 C6 1.307 . S
N1 Zn7 2.020 . S
C2 N1 1.333 . S
C2 C3 1.379 . S
C2 H20 0.952 . S
C3 C2 1.379 . S
C3 C4 1.390 . S
C3 H30 0.949 . S
C4 C3 1.390 . S
C4 C5 1.357 . S
C5 C4 1.357 . S
C5 C6 1.370 . S
C5 H31 0.950 . S
C6 N1 1.307 . S
C6 C5 1.370 . S
C6 H24 0.948 . S
Zn7 N1 2.020 . S
Zn7 O16 2.039 . S
Zn7 O22 2.034 . S
Zn7 O26 2.025 . S
Zn7 O28 2.024 . S
C8 O27 1.246 . S
C8 O28 1.249 . S
N9 C10 1.307 . S
N9 C11 1.333 . S
N9 Zn15 2.020 . S
C10 N9 1.307 . S
C10 C14 1.370 . S
C10 H21 0.948 . S
C11 N9 1.333 . S
C11 C12 1.379 . S
C11 H19 0.952 . S
C12 C11 1.379 . S
C12 C13 1.390 1_545 S
C12 H32 0.949 . S
C13 C12 1.390 1_565 S
C13 C14 1.357 1_565 S
C14 C10 1.370 . S
C14 C13 1.357 1_545 S
C14 H33 0.950 1_545 S
Zn15 N9 2.020 . S
Zn15 O18 2.025 . S
Zn15 O23 2.024 . S
Zn15 O25 2.039 . S
Zn15 O27 2.034 . S
O16 C0 1.251 . S
O16 Zn7 2.039 . S
C17 O22 1.246 . S
C17 O23 1.249 . S
O18 C0 1.254 . S
O18 Zn15 2.025 . S
H19 C11 0.952 . S
H20 C2 0.952 . S
H21 C10 0.948 . S
O22 Zn7 2.034 . S
O22 C17 1.246 . S
O23 Zn15 2.024 . S
O23 C17 1.249 . S
H24 C6 0.948 . S
O25 Zn15 2.039 . S
O25 C29 1.251 . S
O26 Zn7 2.025 . S
O26 C29 1.254 . S
O27 C8 1.246 . S
O27 Zn15 2.034 . S
O28 Zn7 2.024 . S
O28 C8 1.249 . S
C29 O25 1.251 . S
C29 O26 1.254 . S
H30 C3 0.949 . S
H31 C5 0.950 . S
H32 C12 0.949 . S
H33 C14 0.950 1_565 S
C34 O50 1.251 . S
C34 O52 1.254 . S
N35 C36 1.333 . S
N35 C40 1.307 . S
N35 Zn41 2.020 . S
C36 N35 1.333 . S
C36 C37 1.379 . S
C36 H54 0.952 . S
C37 C36 1.379 . S
C37 C38 1.390 . S
C37 H64 0.949 . S
C38 C37 1.390 . S
C38 C39 1.357 . S
C39 C38 1.357 . S
C39 C40 1.370 . S
C39 H65 0.950 . S
C40 N35 1.307 . S
C40 C39 1.370 . S
C40 H58 0.948 . S
Zn41 N35 2.020 . S
Zn41 O50 2.039 . S
Zn41 O56 2.034 . S
Zn41 O60 2.025 . S
Zn41 O62 2.024 . S
C42 O61 1.246 . S
C42 O62 1.249 . S
N43 C44 1.307 . S
N43 C45 1.333 . S
N43 Zn49 2.020 . S
C44 N43 1.307 . S
C44 C48 1.370 . S
C44 H55 0.948 . S
C45 N43 1.333 . S
C45 C46 1.379 . S
C45 H53 0.952 . S
C46 C45 1.379 . S
C46 C47 1.390 . S
C46 H66 0.949 . S
C47 C46 1.390 . S
C47 C48 1.357 . S
C48 C44 1.370 . S
C48 C47 1.357 . S
C48 H67 0.950 . S
Zn49 N43 2.020 . S
Zn49 O52 2.025 . S
Zn49 O57 2.024 . S
Zn49 O59 2.039 . S
Zn49 O61 2.034 . S
O50 C34 1.251 . S
O50 Zn41 2.039 . S
C51 O56 1.246 . S
C51 O57 1.249 . S
O52 C34 1.254 . S
O52 Zn49 2.025 . S
H53 C45 0.952 . S
H54 C36 0.952 . S
H55 C44 0.948 . S
O56 Zn41 2.034 . S
O56 C51 1.246 . S
O57 Zn49 2.024 . S
O57 C51 1.249 . S
H58 C40 0.948 . S
O59 Zn49 2.039 . S
O59 C63 1.251 . S
O60 Zn41 2.025 . S
O60 C63 1.254 . S
O61 C42 1.246 . S
O61 Zn49 2.034 . S
O62 Zn41 2.024 . S
O62 C42 1.249 . S
C63 O59 1.251 . S
C63 O60 1.254 . S
H64 C37 0.949 . S
H65 C39 0.950 . S
H66 C46 0.949 . S
H67 C48 0.950 . S
C68 O84 1.251 . S
C68 O86 1.254 . S
N69 C70 1.333 . S
N69 C74 1.307 . S
N69 Zn75 2.020 . S
C70 N69 1.333 . S
C70 C71 1.379 . S
C70 H88 0.952 . S
C71 C70 1.379 . S
C71 C72 1.390 . S
C71 H98 0.949 . S
C72 C71 1.390 . S
C72 C73 1.357 . S
C73 C72 1.357 . S
C73 C74 1.370 . S
C73 H99 0.950 . S
C74 N69 1.307 . S
C74 C73 1.370 . S
C74 H92 0.948 . S
Zn75 N69 2.020 . S
Zn75 O84 2.039 . S
Zn75 O90 2.034 . S
Zn75 O94 2.025 . S
Zn75 O96 2.024 . S
C76 O95 1.246 . S
C76 O96 1.249 . S
N77 C78 1.307 . S
N77 C79 1.333 . S
N77 Zn83 2.020 . S
C78 N77 1.307 . S
C78 C82 1.370 . S
C78 H89 0.948 . S
C79 N77 1.333 . S
C79 C80 1.379 . S
C79 H87 0.952 . S
C80 C79 1.379 . S
C80 C81 1.390 1_565 S
C80 H100 0.949 . S
C81 C80 1.390 1_545 S
C81 C82 1.357 1_545 S
C82 C78 1.370 . S
C82 C81 1.357 1_565 S
C82 H101 0.950 1_565 S
Zn83 N77 2.020 . S
Zn83 O86 2.025 . S
Zn83 O91 2.024 . S
Zn83 O93 2.039 . S
Zn83 O95 2.034 . S
O84 C68 1.251 . S
O84 Zn75 2.039 . S
C85 O90 1.246 . S
C85 O91 1.249 . S
O86 C68 1.254 . S
O86 Zn83 2.025 . S
H87 C79 0.952 . S
H88 C70 0.952 . S
H89 C78 0.948 . S
O90 Zn75 2.034 . S
O90 C85 1.246 . S
O91 Zn83 2.024 . S
O91 C85 1.249 . S
H92 C74 0.948 . S
O93 Zn83 2.039 . S
O93 C97 1.251 . S
O94 Zn75 2.025 . S
O94 C97 1.254 . S
O95 C76 1.246 . S
O95 Zn83 2.034 . S
O96 Zn75 2.024 . S
O96 C76 1.249 . S
C97 O93 1.251 . S
C97 O94 1.254 . S
H98 C71 0.949 . S
H99 C73 0.950 . S
H100 C80 0.949 . S
H101 C82 0.950 1_545 S
C102 O118 1.251 . S
C102 O120 1.254 . S
N103 C104 1.333 . S
N103 C108 1.307 . S
N103 Zn109 2.020 1_455 S
C104 N103 1.333 . S
C104 C105 1.379 . S
C104 H122 0.952 . S
C105 C104 1.379 . S
C105 C106 1.390 . S
C105 H132 0.949 . S
C106 C105 1.390 . S
C106 C107 1.357 . S
C107 C106 1.357 . S
C107 C108 1.370 . S
C107 H133 0.950 . S
C108 N103 1.307 . S
C108 C107 1.370 . S
C108 H126 0.948 . S
Zn109 N103 2.020 1_655 S
Zn109 O118 2.039 . S
Zn109 O124 2.034 . S
Zn109 O128 2.025 . S
Zn109 O130 2.024 . S
C110 O129 1.246 . S
C110 O130 1.249 . S
N111 C112 1.307 . S
N111 C113 1.333 . S
N111 Zn117 2.020 . S
C112 N111 1.307 . S
C112 C116 1.370 . S
C112 H123 0.948 . S
C113 N111 1.333 . S
C113 C114 1.379 . S
C113 H121 0.952 . S
C114 C113 1.379 . S
C114 C115 1.390 . S
C114 H134 0.949 . S
C115 C114 1.390 . S
C115 C116 1.357 . S
C116 C112 1.370 . S
C116 C115 1.357 . S
C116 H135 0.950 . S
Zn117 N111 2.020 . S
Zn117 O120 2.025 . S
Zn117 O125 2.024 . S
Zn117 O127 2.039 . S
Zn117 O129 2.034 . S
O118 C102 1.251 . S
O118 Zn109 2.039 . S
C119 O124 1.246 . S
C119 O125 1.249 . S
O120 C102 1.254 . S
O120 Zn117 2.025 . S
H121 C113 0.952 . S
H122 C104 0.952 . S
H123 C112 0.948 . S
O124 Zn109 2.034 . S
O124 C119 1.246 . S
O125 Zn117 2.024 . S
O125 C119 1.249 . S
H126 C108 0.948 . S
O127 Zn117 2.039 . S
O127 C131 1.251 . S
O128 Zn109 2.025 . S
O128 C131 1.254 . S
O129 C110 1.246 . S
O129 Zn117 2.034 . S
O130 Zn109 2.024 . S
O130 C110 1.249 . S
C131 O127 1.251 . S
C131 O128 1.254 . S
H132 C105 0.949 . S
H133 C107 0.950 . S
H134 C114 0.949 . S
H135 C116 0.950 . S
C136 O152 1.251 . S
C136 O154 1.254 . S
N137 C138 1.333 . S
N137 C142 1.307 . S
N137 Zn143 2.020 . S
C138 N137 1.333 . S
C138 C139 1.379 . S
C138 H156 0.952 . S
C139 C138 1.379 . S
C139 C140 1.390 1_565 S
C139 H166 0.949 . S
C140 C139 1.390 1_545 S
C140 C141 1.357 1_545 S
C141 C140 1.357 1_565 S
C141 C142 1.370 . S
C141 H167 0.950 1_565 S
C142 N137 1.307 . S
C142 C141 1.370 . S
C142 H160 0.948 . S
Zn143 N137 2.020 . S
Zn143 O152 2.039 . S
Zn143 O158 2.034 . S
Zn143 O162 2.025 . S
Zn143 O164 2.024 . S
C144 O163 1.246 . S
C144 O164 1.249 . S
N145 C146 1.307 . S
N145 C147 1.333 . S
N145 Zn151 2.020 . S
C146 N145 1.307 . S
C146 C150 1.370 . S
C146 H157 0.948 . S
C147 N145 1.333 . S
C147 C148 1.379 . S
C147 H155 0.952 . S
C148 C147 1.379 . S
C148 C149 1.390 . S
C148 H168 0.949 . S
C149 C148 1.390 . S
C149 C150 1.357 . S
C150 C146 1.370 . S
C150 C149 1.357 . S
C150 H169 0.950 . S
Zn151 N145 2.020 . S
Zn151 O154 2.025 . S
Zn151 O159 2.024 . S
Zn151 O161 2.039 . S
Zn151 O163 2.034 . S
O152 C136 1.251 . S
O152 Zn143 2.039 . S
C153 O158 1.246 . S
C153 O159 1.249 . S
O154 C136 1.254 . S
O154 Zn151 2.025 . S
H155 C147 0.952 . S
H156 C138 0.952 . S
H157 C146 0.948 . S
O158 Zn143 2.034 . S
O158 C153 1.246 . S
O159 Zn151 2.024 . S
O159 C153 1.249 . S
H160 C142 0.948 . S
O161 Zn151 2.039 . S
O161 C165 1.251 . S
O162 Zn143 2.025 . S
O162 C165 1.254 . S
O163 C144 1.246 . S
O163 Zn151 2.034 . S
O164 Zn143 2.024 . S
O164 C144 1.249 . S
C165 O161 1.251 . S
C165 O162 1.254 . S
H166 C139 0.949 . S
H167 C141 0.950 1_545 S
H168 C148 0.949 . S
H169 C150 0.950 . S
C170 O186 1.251 . S
C170 O188 1.254 . S
N171 C172 1.333 . S
N171 C176 1.307 . S
N171 Zn177 2.020 . S
C172 N171 1.333 . S
C172 C173 1.379 . S
C172 H190 0.952 . S
C173 C172 1.379 . S
C173 C174 1.390 . S
C173 H200 0.949 . S
C174 C173 1.390 . S
C174 C175 1.357 . S
C175 C174 1.357 . S
C175 C176 1.370 . S
C175 H201 0.950 . S
C176 N171 1.307 . S
C176 C175 1.370 . S
C176 H194 0.948 . S
Zn177 N171 2.020 . S
Zn177 O186 2.039 . S
Zn177 O192 2.034 . S
Zn177 O196 2.025 . S
Zn177 O198 2.024 . S
C178 O197 1.246 . S
C178 O198 1.249 . S
N179 C180 1.307 . S
N179 C181 1.333 . S
N179 Zn185 2.020 . S
C180 N179 1.307 . S
C180 C184 1.370 . S
C180 H191 0.948 . S
C181 N179 1.333 . S
C181 C182 1.379 . S
C181 H189 0.952 . S
C182 C181 1.379 . S
C182 C183 1.390 . S
C182 H202 0.949 . S
C183 C182 1.390 . S
C183 C184 1.357 . S
C184 C180 1.370 . S
C184 C183 1.357 . S
C184 H203 0.950 . S
Zn185 N179 2.020 . S
Zn185 O188 2.025 . S
Zn185 O193 2.024 . S
Zn185 O195 2.039 . S
Zn185 O197 2.034 . S
O186 C170 1.251 . S
O186 Zn177 2.039 . S
C187 O192 1.246 . S
C187 O193 1.249 . S
O188 C170 1.254 . S
O188 Zn185 2.025 . S
H189 C181 0.952 . S
H190 C172 0.952 . S
H191 C180 0.948 . S
O192 Zn177 2.034 . S
O192 C187 1.246 . S
O193 Zn185 2.024 . S
O193 C187 1.249 . S
H194 C176 0.948 . S
O195 Zn185 2.039 . S
O195 C199 1.251 . S
O196 Zn177 2.025 . S
O196 C199 1.254 . S
O197 C178 1.246 . S
O197 Zn185 2.034 . S
O198 Zn177 2.024 . S
O198 C178 1.249 . S
C199 O195 1.251 . S
C199 O196 1.254 . S
H200 C173 0.949 . S
H201 C175 0.950 . S
H202 C182 0.949 . S
H203 C184 0.950 . S
C204 O220 1.251 . S
C204 O222 1.254 . S
N205 C206 1.333 . S
N205 C210 1.307 . S
N205 Zn211 2.020 . S
C206 N205 1.333 . S
C206 C207 1.379 . S
C206 H224 0.952 . S
C207 C206 1.379 . S
C207 C208 1.390 1_545 S
C207 H234 0.949 . S
C208 C207 1.390 1_565 S
C208 C209 1.357 1_565 S
C209 C208 1.357 1_545 S
C209 C210 1.370 . S
C209 H235 0.950 1_545 S
C210 N205 1.307 . S
C210 C209 1.370 . S
C210 H228 0.948 . S
Zn211 N205 2.020 . S
Zn211 O220 2.039 . S
Zn211 O226 2.034 . S
Zn211 O230 2.025 . S
Zn211 O232 2.024 . S
C212 O231 1.246 . S
C212 O232 1.249 . S
N213 C214 1.307 . S
N213 C215 1.333 . S
N213 Zn219 2.020 . S
C214 N213 1.307 . S
C214 C218 1.370 . S
C214 H225 0.948 . S
C215 N213 1.333 . S
C215 C216 1.379 . S
C215 H223 0.952 . S
C216 C215 1.379 . S
C216 C217 1.390 . S
C216 H236 0.949 . S
C217 C216 1.390 . S
C217 C218 1.357 . S
C218 C214 1.370 . S
C218 C217 1.357 . S
C218 H237 0.950 . S
Zn219 N213 2.020 . S
Zn219 O222 2.025 . S
Zn219 O227 2.024 . S
Zn219 O229 2.039 . S
Zn219 O231 2.034 . S
O220 C204 1.251 . S
O220 Zn211 2.039 . S
C221 O226 1.246 . S
C221 O227 1.249 . S
O222 C204 1.254 . S
O222 Zn219 2.025 . S
H223 C215 0.952 . S
H224 C206 0.952 . S
H225 C214 0.948 . S
O226 Zn211 2.034 . S
O226 C221 1.246 . S
O227 Zn219 2.024 . S
O227 C221 1.249 . S
H228 C210 0.948 . S
O229 Zn219 2.039 . S
O229 C233 1.251 . S
O230 Zn211 2.025 . S
O230 C233 1.254 . S
O231 C212 1.246 . S
O231 Zn219 2.034 . S
O232 Zn211 2.024 . S
O232 C212 1.249 . S
C233 O229 1.251 . S
C233 O230 1.254 . S
H234 C207 0.949 . S
H235 C209 0.950 1_565 S
H236 C216 0.949 . S
H237 C218 0.950 . S
C238 O254 1.251 . S
C238 O256 1.254 . S
N239 C240 1.333 . S
N239 C244 1.307 . S
N239 Zn245 2.020 . S
C240 N239 1.333 . S
C240 C241 1.379 . S
C240 H258 0.952 . S
C241 C240 1.379 . S
C241 C242 1.390 . S
C241 H268 0.949 . S
C242 C241 1.390 . S
C242 C243 1.357 . S
C243 C242 1.357 . S
C243 C244 1.370 . S
C243 H269 0.950 . S
C244 N239 1.307 . S
C244 C243 1.370 . S
C244 H262 0.948 . S
Zn245 N239 2.020 . S
Zn245 O254 2.039 . S
Zn245 O260 2.034 . S
Zn245 O264 2.025 . S
Zn245 O266 2.024 . S
C246 O265 1.246 . S
C246 O266 1.249 . S
N247 C248 1.307 . S
N247 C249 1.333 . S
N247 Zn253 2.020 1_655 S
C248 N247 1.307 . S
C248 C252 1.370 . S
C248 H259 0.948 . S
C249 N247 1.333 . S
C249 C250 1.379 . S
C249 H257 0.952 . S
C250 C249 1.379 . S
C250 C251 1.390 . S
C250 H270 0.949 . S
C251 C250 1.390 . S
C251 C252 1.357 . S
C252 C248 1.370 . S
C252 C251 1.357 . S
C252 H271 0.950 . S
Zn253 N247 2.020 1_455 S
Zn253 O256 2.025 . S
Zn253 O261 2.024 . S
Zn253 O263 2.039 . S
Zn253 O265 2.034 . S
O254 C238 1.251 . S
O254 Zn245 2.039 . S
C255 O260 1.246 . S
C255 O261 1.249 . S
O256 C238 1.254 . S
O256 Zn253 2.025 . S
H257 C249 0.952 . S
H258 C240 0.952 . S
H259 C248 0.948 . S
O260 Zn245 2.034 . S
O260 C255 1.246 . S
O261 Zn253 2.024 . S
O261 C255 1.249 . S
H262 C244 0.948 . S
O263 Zn253 2.039 . S
O263 C267 1.251 . S
O264 Zn245 2.025 . S
O264 C267 1.254 . S
O265 C246 1.246 . S
O265 Zn253 2.034 . S
O266 Zn245 2.024 . S
O266 C246 1.249 . S
C267 O263 1.251 . S
C267 O264 1.254 . S
H268 C241 0.949 . S
H269 C243 0.950 . S
H270 C250 0.949 . S
H271 C252 0.950 . S
C272 O288 1.251 . S
C272 O290 1.254 . S
N273 C274 1.333 . S
N273 C278 1.307 . S
N273 Zn279 2.020 . S
C274 N273 1.333 . S
C274 C275 1.379 . S
C274 H292 0.952 . S
C275 C274 1.379 . S
C275 C276 1.390 . S
C275 H302 0.949 . S
C276 C275 1.390 . S
C276 C277 1.357 . S
C277 C276 1.357 . S
C277 C278 1.370 . S
C277 H303 0.950 . S
C278 N273 1.307 . S
C278 C277 1.370 . S
C278 H296 0.948 . S
Zn279 N273 2.020 . S
Zn279 O288 2.039 . S
Zn279 O294 2.034 . S
Zn279 O298 2.025 . S
Zn279 O300 2.024 . S
C280 O299 1.246 . S
C280 O300 1.249 . S
N281 C282 1.307 . S
N281 C283 1.333 . S
N281 Zn287 2.020 . S
C282 N281 1.307 . S
C282 C286 1.370 . S
C282 H293 0.948 . S
C283 N281 1.333 . S
C283 C284 1.379 . S
C283 H291 0.952 . S
C284 C283 1.379 . S
C284 C285 1.390 . S
C284 H304 0.949 . S
C285 C284 1.390 . S
C285 C286 1.357 . S
C286 C282 1.370 . S
C286 C285 1.357 . S
C286 H305 0.950 . S
Zn287 N281 2.020 . S
Zn287 O290 2.025 . S
Zn287 O295 2.024 . S
Zn287 O297 2.039 . S
Zn287 O299 2.034 . S
O288 C272 1.251 . S
O288 Zn279 2.039 . S
C289 O294 1.246 . S
C289 O295 1.249 . S
O290 C272 1.254 . S
O290 Zn287 2.025 . S
H291 C283 0.952 . S
H292 C274 0.952 . S
H293 C282 0.948 . S
O294 Zn279 2.034 . S
O294 C289 1.246 . S
O295 Zn287 2.024 . S
O295 C289 1.249 . S
H296 C278 0.948 . S
O297 Zn287 2.039 . S
O297 C301 1.251 . S
O298 Zn279 2.025 . S
O298 C301 1.254 . S
O299 C280 1.246 . S
O299 Zn287 2.034 . S
O300 Zn279 2.024 . S
O300 C280 1.249 . S
C301 O297 1.251 . S
C301 O298 1.254 . S
H302 C275 0.949 . S
H303 C277 0.950 . S
H304 C284 0.949 . S
H305 C286 0.950 . S
C306 O322 1.251 . S
C306 O324 1.254 . S
N307 C308 1.333 . S
N307 C312 1.307 1_545 S
N307 Zn313 2.020 1_655 S
C308 N307 1.333 . S
C308 C309 1.379 . S
C308 H326 0.952 . S
C309 C308 1.379 . S
C309 C310 1.390 1_545 S
C309 H336 0.949 . S
C310 C309 1.390 1_565 S
C310 C311 1.357 . S
C311 C310 1.357 . S
C311 C312 1.370 . S
C311 H337 0.950 . S
C312 N307 1.307 1_565 S
C312 C311 1.370 . S
C312 H330 0.948 . S
Zn313 N307 2.020 1_455 S
Zn313 O322 2.039 . S
Zn313 O328 2.034 . S
Zn313 O332 2.025 . S
Zn313 O334 2.024 1_545 S
C314 O333 1.246 1_565 S
C314 O334 1.249 . S
N315 C316 1.307 . S
N315 C317 1.333 . S
N315 Zn321 2.020 . S
C316 N315 1.307 . S
C316 C320 1.370 . S
C316 H327 0.948 . S
C317 N315 1.333 . S
C317 C318 1.379 . S
C317 H325 0.952 . S
C318 C317 1.379 . S
C318 C319 1.390 . S
C318 H338 0.949 . S
C319 C318 1.390 . S
C319 C320 1.357 . S
C320 C316 1.370 . S
C320 C319 1.357 . S
C320 H339 0.950 . S
Zn321 N315 2.020 . S
Zn321 O324 2.025 . S
Zn321 O329 2.024 . S
Zn321 O331 2.039 . S
Zn321 O333 2.034 . S
O322 C306 1.251 . S
O322 Zn313 2.039 . S
C323 O328 1.246 . S
C323 O329 1.249 . S
O324 C306 1.254 . S
O324 Zn321 2.025 . S
H325 C317 0.952 . S
H326 C308 0.952 . S
H327 C316 0.948 . S
O328 Zn313 2.034 . S
O328 C323 1.246 . S
O329 Zn321 2.024 . S
O329 C323 1.249 . S
H330 C312 0.948 . S
O331 Zn321 2.039 . S
O331 C335 1.251 . S
O332 Zn313 2.025 . S
O332 C335 1.254 . S
O333 C314 1.246 1_545 S
O333 Zn321 2.034 . S
O334 Zn313 2.024 1_565 S
O334 C314 1.249 . S
C335 O331 1.251 . S
C335 O332 1.254 . S
H336 C309 0.949 . S
H337 C311 0.950 . S
H338 C318 0.949 . S
H339 C320 0.950 . S
C340 O356 1.251 . S
C340 O358 1.254 . S
N341 C342 1.333 . S
N341 C346 1.307 . S
N341 Zn347 2.020 . S
C342 N341 1.333 . S
C342 C343 1.379 . S
C342 H360 0.952 . S
C343 C342 1.379 . S
C343 C344 1.390 . S
C343 H370 0.949 . S
C344 C343 1.390 . S
C344 C345 1.357 . S
C345 C344 1.357 . S
C345 C346 1.370 . S
C345 H371 0.950 . S
C346 N341 1.307 . S
C346 C345 1.370 . S
C346 H364 0.948 . S
Zn347 N341 2.020 . S
Zn347 O356 2.039 . S
Zn347 O362 2.034 . S
Zn347 O366 2.025 . S
Zn347 O368 2.024 . S
C348 O367 1.246 . S
C348 O368 1.249 . S
N349 C350 1.307 . S
N349 C351 1.333 . S
N349 Zn355 2.020 . S
C350 N349 1.307 . S
C350 C354 1.370 . S
C350 H361 0.948 . S
C351 N349 1.333 . S
C351 C352 1.379 . S
C351 H359 0.952 . S
C352 C351 1.379 . S
C352 C353 1.390 . S
C352 H372 0.949 . S
C353 C352 1.390 . S
C353 C354 1.357 . S
C354 C350 1.370 . S
C354 C353 1.357 . S
C354 H373 0.950 . S
Zn355 N349 2.020 . S
Zn355 O358 2.025 . S
Zn355 O363 2.024 . S
Zn355 O365 2.039 . S
Zn355 O367 2.034 . S
O356 C340 1.251 . S
O356 Zn347 2.039 . S
C357 O362 1.246 . S
C357 O363 1.249 . S
O358 C340 1.254 . S
O358 Zn355 2.025 . S
H359 C351 0.952 . S
H360 C342 0.952 . S
H361 C350 0.948 . S
O362 Zn347 2.034 . S
O362 C357 1.246 . S
O363 Zn355 2.024 . S
O363 C357 1.249 . S
H364 C346 0.948 . S
O365 Zn355 2.039 . S
O365 C369 1.251 . S
O366 Zn347 2.025 . S
O366 C369 1.254 . S
O367 C348 1.246 . S
O367 Zn355 2.034 . S
O368 Zn347 2.024 . S
O368 C348 1.249 . S
C369 O365 1.251 . S
C369 O366 1.254 . S
H370 C343 0.949 . S
H371 C345 0.950 . S
H372 C352 0.949 . S
H373 C354 0.950 . S
C374 O390 1.251 . S
C374 O392 1.254 . S
N375 C376 1.333 . S
N375 C380 1.307 1_565 S
N375 Zn381 2.020 . S
C376 N375 1.333 . S
C376 C377 1.379 . S
C376 H394 0.952 . S
C377 C376 1.379 . S
C377 C378 1.390 1_565 S
C377 H404 0.949 . S
C378 C377 1.390 1_545 S
C378 C379 1.357 . S
C379 C378 1.357 . S
C379 C380 1.370 . S
C379 H405 0.950 . S
C380 N375 1.307 1_545 S
C380 C379 1.370 . S
C380 H398 0.948 . S
Zn381 N375 2.020 . S
Zn381 O390 2.039 . S
Zn381 O396 2.034 . S
Zn381 O400 2.025 . S
Zn381 O402 2.024 1_565 S
C382 O401 1.246 1_545 S
C382 O402 1.249 . S
N383 C384 1.307 . S
N383 C385 1.333 . S
N383 Zn389 2.020 . S
C384 N383 1.307 . S
C384 C388 1.370 . S
C384 H395 0.948 . S
C385 N383 1.333 . S
C385 C386 1.379 . S
C385 H393 0.952 . S
C386 C385 1.379 . S
C386 C387 1.390 . S
C386 H406 0.949 . S
C387 C386 1.390 . S
C387 C388 1.357 . S
C388 C384 1.370 . S
C388 C387 1.357 . S
C388 H407 0.950 . S
Zn389 N383 2.020 . S
Zn389 O392 2.025 . S
Zn389 O397 2.024 . S
Zn389 O399 2.039 . S
Zn389 O401 2.034 . S
O390 C374 1.251 . S
O390 Zn381 2.039 . S
C391 O396 1.246 . S
C391 O397 1.249 . S
O392 C374 1.254 . S
O392 Zn389 2.025 . S
H393 C385 0.952 . S
H394 C376 0.952 . S
H395 C384 0.948 . S
O396 Zn381 2.034 . S
O396 C391 1.246 . S
O397 Zn389 2.024 . S
O397 C391 1.249 . S
H398 C380 0.948 . S
O399 Zn389 2.039 . S
O399 C403 1.251 . S
O400 Zn381 2.025 . S
O400 C403 1.254 . S
O401 C382 1.246 1_565 S
O401 Zn389 2.034 . S
O402 Zn381 2.024 1_545 S
O402 C382 1.249 . S
C403 O399 1.251 . S
C403 O400 1.254 . S
H404 C377 0.949 . S
H405 C379 0.950 . S
H406 C386 0.949 . S
H407 C388 0.950 . S
C408 O424 1.251 . S
C408 O426 1.254 . S
N409 C410 1.333 . S
N409 C414 1.307 . S
N409 Zn415 2.020 . S
C410 N409 1.333 . S
C410 C411 1.379 . S
C410 H428 0.952 . S
C411 C410 1.379 . S
C411 C412 1.390 . S
C411 H438 0.949 . S
C412 C411 1.390 . S
C412 C413 1.357 . S
C413 C412 1.357 . S
C413 C414 1.370 . S
C413 H439 0.950 . S
C414 N409 1.307 . S
C414 C413 1.370 . S
C414 H432 0.948 . S
Zn415 N409 2.020 . S
Zn415 O424 2.039 . S
Zn415 O430 2.034 . S
Zn415 O434 2.025 . S
Zn415 O436 2.024 . S
C416 O435 1.246 . S
C416 O436 1.249 . S
N417 C418 1.307 . S
N417 C419 1.333 . S
N417 Zn423 2.020 . S
C418 N417 1.307 . S
C418 C422 1.370 . S
C418 H429 0.948 . S
C419 N417 1.333 . S
C419 C420 1.379 . S
C419 H427 0.952 . S
C420 C419 1.379 . S
C420 C421 1.390 . S
C420 H440 0.949 . S
C421 C420 1.390 . S
C421 C422 1.357 . S
C422 C418 1.370 . S
C422 C421 1.357 . S
C422 H441 0.950 . S
Zn423 N417 2.020 . S
Zn423 O426 2.025 . S
Zn423 O431 2.024 . S
Zn423 O433 2.039 . S
Zn423 O435 2.034 . S
O424 C408 1.251 . S
O424 Zn415 2.039 . S
C425 O430 1.246 . S
C425 O431 1.249 . S
O426 C408 1.254 . S
O426 Zn423 2.025 . S
H427 C419 0.952 . S
H428 C410 0.952 . S
H429 C418 0.948 . S
O430 Zn415 2.034 . S
O430 C425 1.246 . S
O431 Zn423 2.024 . S
O431 C425 1.249 . S
H432 C414 0.948 . S
O433 Zn423 2.039 . S
O433 C437 1.251 . S
O434 Zn415 2.025 . S
O434 C437 1.254 . S
O435 C416 1.246 . S
O435 Zn423 2.034 . S
O436 Zn415 2.024 . S
O436 C416 1.249 . S
C437 O433 1.251 . S
C437 O434 1.254 . S
H438 C411 0.949 . S
H439 C413 0.950 . S
H440 C420 0.949 . S
H441 C422 0.950 . S
C442 O458 1.251 . S
C442 O460 1.254 . S
N443 C444 1.333 . S
N443 C448 1.307 . S
N443 Zn449 2.020 . S
C444 N443 1.333 . S
C444 C445 1.379 . S
C444 H462 0.952 . S
C445 C444 1.379 . S
C445 C446 1.390 . S
C445 H472 0.949 . S
C446 C445 1.390 . S
C446 C447 1.357 . S
C447 C446 1.357 . S
C447 C448 1.370 . S
C447 H473 0.950 . S
C448 N443 1.307 . S
C448 C447 1.370 . S
C448 H466 0.948 . S
Zn449 N443 2.020 . S
Zn449 O458 2.039 . S
Zn449 O464 2.034 . S
Zn449 O468 2.025 . S
Zn449 O470 2.024 . S
C450 O469 1.246 . S
C450 O470 1.249 . S
N451 C452 1.307 1_565 S
N451 C453 1.333 . S
N451 Zn457 2.020 1_455 S
C452 N451 1.307 1_545 S
C452 C456 1.370 . S
C452 H463 0.948 . S
C453 N451 1.333 . S
C453 C454 1.379 . S
C453 H461 0.952 . S
C454 C453 1.379 . S
C454 C455 1.390 1_565 S
C454 H474 0.949 . S
C455 C454 1.390 1_545 S
C455 C456 1.357 . S
C456 C452 1.370 . S
C456 C455 1.357 . S
C456 H475 0.950 . S
Zn457 N451 2.020 1_655 S
Zn457 O460 2.025 . S
Zn457 O465 2.024 1_565 S
Zn457 O467 2.039 . S
Zn457 O469 2.034 . S
O458 C442 1.251 . S
O458 Zn449 2.039 . S
C459 O464 1.246 1_545 S
C459 O465 1.249 . S
O460 C442 1.254 . S
O460 Zn457 2.025 . S
H461 C453 0.952 . S
H462 C444 0.952 . S
H463 C452 0.948 . S
O464 Zn449 2.034 . S
O464 C459 1.246 1_565 S
O465 Zn457 2.024 1_545 S
O465 C459 1.249 . S
H466 C448 0.948 . S
O467 Zn457 2.039 . S
O467 C471 1.251 . S
O468 Zn449 2.025 . S
O468 C471 1.254 . S
O469 C450 1.246 . S
O469 Zn457 2.034 . S
O470 Zn449 2.024 . S
O470 C450 1.249 . S
C471 O467 1.251 . S
C471 O468 1.254 . S
H472 C445 0.949 . S
H473 C447 0.950 . S
H474 C454 0.949 . S
H475 C456 0.950 . S
C476 O492 1.251 . S
C476 O494 1.254 . S
N477 C478 1.333 . S
N477 C482 1.307 . S
N477 Zn483 2.020 . S
C478 N477 1.333 . S
C478 C479 1.379 . S
C478 H496 0.952 . S
C479 C478 1.379 . S
C479 C480 1.390 . S
C479 H506 0.949 . S
C480 C479 1.390 . S
C480 C481 1.357 . S
C481 C480 1.357 . S
C481 C482 1.370 . S
C481 H507 0.950 . S
C482 N477 1.307 . S
C482 C481 1.370 . S
C482 H500 0.948 . S
Zn483 N477 2.020 . S
Zn483 O492 2.039 . S
Zn483 O498 2.034 . S
Zn483 O502 2.025 . S
Zn483 O504 2.024 . S
C484 O503 1.246 . S
C484 O504 1.249 . S
N485 C486 1.307 . S
N485 C487 1.333 . S
N485 Zn491 2.020 . S
C486 N485 1.307 . S
C486 C490 1.370 . S
C486 H497 0.948 . S
C487 N485 1.333 . S
C487 C488 1.379 . S
C487 H495 0.952 . S
C488 C487 1.379 . S
C488 C489 1.390 . S
C488 H508 0.949 . S
C489 C488 1.390 . S
C489 C490 1.357 . S
C490 C486 1.370 . S
C490 C489 1.357 . S
C490 H509 0.950 . S
Zn491 N485 2.020 . S
Zn491 O494 2.025 . S
Zn491 O499 2.024 . S
Zn491 O501 2.039 . S
Zn491 O503 2.034 . S
O492 C476 1.251 . S
O492 Zn483 2.039 . S
C493 O498 1.246 . S
C493 O499 1.249 . S
O494 C476 1.254 . S
O494 Zn491 2.025 . S
H495 C487 0.952 . S
H496 C478 0.952 . S
H497 C486 0.948 . S
O498 Zn483 2.034 . S
O498 C493 1.246 . S
O499 Zn491 2.024 . S
O499 C493 1.249 . S
H500 C482 0.948 . S
O501 Zn491 2.039 . S
O501 C505 1.251 . S
O502 Zn483 2.025 . S
O502 C505 1.254 . S
O503 C484 1.246 . S
O503 Zn491 2.034 . S
O504 Zn483 2.024 . S
O504 C484 1.249 . S
C505 O501 1.251 . S
C505 O502 1.254 . S
H506 C479 0.949 . S
H507 C481 0.950 . S
H508 C488 0.949 . S
H509 C490 0.950 . S
C510 O526 1.251 . S
C510 O528 1.254 . S
N511 C512 1.333 . S
N511 C516 1.307 . S
N511 Zn517 2.020 . S
C512 N511 1.333 . S
C512 C513 1.379 . S
C512 H530 0.952 . S
C513 C512 1.379 . S
C513 C514 1.390 . S
C513 H540 0.949 . S
C514 C513 1.390 . S
C514 C515 1.357 . S
C515 C514 1.357 . S
C515 C516 1.370 . S
C515 H541 0.950 . S
C516 N511 1.307 . S
C516 C515 1.370 . S
C516 H534 0.948 . S
Zn517 N511 2.020 . S
Zn517 O526 2.039 . S
Zn517 O532 2.034 . S
Zn517 O536 2.025 . S
Zn517 O538 2.024 . S
C518 O537 1.246 . S
C518 O538 1.249 . S
N519 C520 1.307 1_545 S
N519 C521 1.333 . S
N519 Zn525 2.020 . S
C520 N519 1.307 1_565 S
C520 C524 1.370 . S
C520 H531 0.948 . S
C521 N519 1.333 . S
C521 C522 1.379 . S
C521 H529 0.952 . S
C522 C521 1.379 . S
C522 C523 1.390 1_545 S
C522 H542 0.949 . S
C523 C522 1.390 1_565 S
C523 C524 1.357 . S
C524 C520 1.370 . S
C524 C523 1.357 . S
C524 H543 0.950 . S
Zn525 N519 2.020 . S
Zn525 O528 2.025 . S
Zn525 O533 2.024 1_545 S
Zn525 O535 2.039 . S
Zn525 O537 2.034 . S
O526 C510 1.251 . S
O526 Zn517 2.039 . S
C527 O532 1.246 1_565 S
C527 O533 1.249 . S
O528 C510 1.254 . S
O528 Zn525 2.025 . S
H529 C521 0.952 . S
H530 C512 0.952 . S
H531 C520 0.948 . S
O532 Zn517 2.034 . S
O532 C527 1.246 1_545 S
O533 Zn525 2.024 1_565 S
O533 C527 1.249 . S
H534 C516 0.948 . S
O535 Zn525 2.039 . S
O535 C539 1.251 . S
O536 Zn517 2.025 . S
O536 C539 1.254 . S
O537 C518 1.246 . S
O537 Zn525 2.034 . S
O538 Zn517 2.024 . S
O538 C518 1.249 . S
C539 O535 1.251 . S
C539 O536 1.254 . S
H540 C513 0.949 . S
H541 C515 0.950 . S
H542 C522 0.949 . S
H543 C524 0.950 . S
C544 C545 1.369 . S
C544 C546 1.419 . S
C544 H548 0.930 . S
C545 C544 1.369 . S
C545 C554 1.429 . S
C546 C544 1.419 . S
C546 C547 1.363 . S
C546 H549 0.929 . S
C547 C546 1.363 . S
C547 C553 1.428 . S
H548 C544 0.930 . S
H549 C546 0.929 . S
S550 N551 1.613 . S
S550 N552 1.610 . S
N551 S550 1.613 . S
N551 C554 1.350 . S
N552 S550 1.610 . S
N552 C553 1.351 . S
C553 C547 1.428 . S
C553 N552 1.351 . S
C553 C554 1.434 . S
C554 C545 1.429 . S
C554 N551 1.350 . S
C554 C553 1.434 . S
C555 C556 1.369 . S
C555 C557 1.419 . S
C555 H559 0.930 . S
C556 C555 1.369 . S
C556 C565 1.429 . S
C557 C555 1.419 . S
C557 C558 1.363 . S
C557 H560 0.929 . S
C558 C557 1.363 . S
C558 C564 1.428 . S
H559 C555 0.930 . S
H560 C557 0.929 . S
S561 N562 1.613 . S
S561 N563 1.610 . S
N562 S561 1.613 . S
N562 C565 1.350 . S
N563 S561 1.610 . S
N563 C564 1.351 . S
C564 C558 1.428 . S
C564 N563 1.351 . S
C564 C565 1.434 . S
C565 C556 1.429 . S
C565 N562 1.350 . S
C565 C564 1.434 . S
C566 C567 1.369 . S
C566 C568 1.419 . S
C566 H570 0.930 . S
C567 C566 1.369 . S
C567 C576 1.429 . S
C568 C566 1.419 . S
C568 C569 1.363 . S
C568 H571 0.929 . S
C569 C568 1.363 . S
C569 C575 1.428 . S
H570 C566 0.930 . S
H571 C568 0.929 . S
S572 N573 1.613 . S
S572 N574 1.610 . S
N573 S572 1.613 . S
N573 C576 1.350 . S
N574 S572 1.610 . S
N574 C575 1.351 . S
C575 C569 1.428 . S
C575 N574 1.351 . S
C575 C576 1.434 . S
C576 C567 1.429 . S
C576 N573 1.350 . S
C576 C575 1.434 . S
C577 C578 1.369 . S
C577 C579 1.419 . S
C577 H581 0.930 . S
C578 C577 1.369 . S
C578 C587 1.429 1_656 S
C579 C577 1.419 . S
C579 C580 1.363 1_656 S
C579 H582 0.929 . S
C580 C579 1.363 1_454 S
C580 C586 1.428 . S
H581 C577 0.930 . S
H582 C579 0.929 . S
S583 N584 1.613 . S
S583 N585 1.610 . S
N584 S583 1.613 . S
N584 C587 1.350 . S
N585 S583 1.610 . S
N585 C586 1.351 . S
C586 C580 1.428 . S
C586 N585 1.351 . S
C586 C587 1.434 . S
C587 C578 1.429 1_454 S
C587 N584 1.350 . S
C587 C586 1.434 . S
C588 C589 1.369 . S
C588 C590 1.419 . S
C588 H592 0.930 . S
C589 C588 1.369 . S
C589 C598 1.429 . S
C590 C588 1.419 . S
C590 C591 1.363 . S
C590 H593 0.929 . S
C591 C590 1.363 . S
C591 C597 1.428 . S
H592 C588 0.930 . S
H593 C590 0.929 . S
S594 N595 1.613 . S
S594 N596 1.610 . S
N595 S594 1.613 . S
N595 C598 1.350 . S
N596 S594 1.610 . S
N596 C597 1.351 . S
C597 C591 1.428 . S
C597 N596 1.351 . S
C597 C598 1.434 . S
C598 C589 1.429 . S
C598 N595 1.350 . S
C598 C597 1.434 . S
C599 C600 1.369 . S
C599 C601 1.419 . S
C599 H603 0.930 . S
C600 C599 1.369 . S
C600 C609 1.429 . S
C601 C599 1.419 . S
C601 C602 1.363 . S
C601 H604 0.929 . S
C602 C601 1.363 . S
C602 C608 1.428 . S
H603 C599 0.930 . S
H604 C601 0.929 . S
S605 N606 1.613 . S
S605 N607 1.610 . S
N606 S605 1.613 . S
N606 C609 1.350 . S
N607 S605 1.610 . S
N607 C608 1.351 . S
C608 C602 1.428 . S
C608 N607 1.351 . S
C608 C609 1.434 . S
C609 C600 1.429 . S
C609 N606 1.350 . S
C609 C608 1.434 . S
C610 C611 1.351 1_456 S
C610 C612 1.435 . S
C610 H614 0.932 . S
C611 C610 1.351 1_654 S
C611 C620 1.429 1_565 S
C612 C610 1.435 . S
C612 C613 1.363 1_565 S
C612 H615 0.929 . S
C613 C612 1.363 1_545 S
C613 C619 1.428 1_456 S
H614 C610 0.932 . S
H615 C612 0.929 . S
S616 N617 1.613 . S
S616 N618 1.610 . S
N617 S616 1.613 . S
N617 C620 1.350 . S
N618 S616 1.610 . S
N618 C619 1.351 . S
C619 C613 1.428 1_654 S
C619 N618 1.351 . S
C619 C620 1.434 . S
C620 C611 1.429 1_545 S
C620 N617 1.350 . S
C620 C619 1.434 . S
C621 C622 1.369 . S
C621 C623 1.419 . S
C621 H625 0.930 . S
C622 C621 1.369 . S
C622 C631 1.429 1_565 S
C623 C621 1.419 . S
C623 C624 1.363 1_565 S
C623 H626 0.929 . S
C624 C623 1.363 1_545 S
C624 C630 1.428 . S
H625 C621 0.930 . S
H626 C623 0.929 . S
S627 N628 1.613 . S
S627 N629 1.610 . S
N628 S627 1.613 . S
N628 C631 1.350 . S
N629 S627 1.610 . S
N629 C630 1.351 . S
C630 C624 1.428 . S
C630 N629 1.351 . S
C630 C631 1.434 . S
C631 C622 1.429 1_545 S
C631 N628 1.350 . S
C631 C630 1.434 . S
C632 C633 1.369 1_554 S
C632 C634 1.419 . S
C632 H636 0.930 1_554 S
C633 C632 1.369 1_556 S
C633 C642 1.429 1_556 S
C634 C632 1.419 . S
C634 C635 1.363 . S
C634 H637 0.929 . S
C635 C634 1.363 . S
C635 C641 1.428 . S
H636 C632 0.930 1_556 S
H637 C634 0.929 . S
S638 N639 1.613 . S
S638 N640 1.610 . S
N639 S638 1.613 . S
N639 C642 1.350 . S
N640 S638 1.610 . S
N640 C641 1.351 . S
C641 C635 1.428 . S
C641 N640 1.351 . S
C641 C642 1.434 . S
C642 C633 1.429 1_554 S
C642 N639 1.350 . S
C642 C641 1.434 . S
C643 C644 1.369 . S
C643 C645 1.419 . S
C643 H647 0.930 . S
C644 C643 1.369 . S
C644 C653 1.429 . S
C645 C643 1.419 . S
C645 C646 1.363 . S
C645 H648 0.929 . S
C646 C645 1.363 . S
C646 C652 1.428 . S
H647 C643 0.930 . S
H648 C645 0.929 . S
S649 N650 1.613 . S
S649 N651 1.610 . S
N650 S649 1.613 . S
N650 C653 1.350 . S
N651 S649 1.610 . S
N651 C652 1.351 . S
C652 C646 1.428 . S
C652 N651 1.351 . S
C652 C653 1.434 . S
C653 C644 1.429 . S
C653 N650 1.350 . S
C653 C652 1.434 . S
C654 C655 1.369 . S
C654 C656 1.419 . S
C654 H658 0.930 . S
C655 C654 1.369 . S
C655 C664 1.429 . S
C656 C654 1.419 . S
C656 C657 1.363 . S
C656 H659 0.929 . S
C657 C656 1.363 . S
C657 C663 1.428 . S
H658 C654 0.930 . S
H659 C656 0.929 . S
S660 N661 1.613 . S
S660 N662 1.610 . S
N661 S660 1.613 . S
N661 C664 1.350 . S
N662 S660 1.610 . S
N662 C663 1.351 . S
C663 C657 1.428 . S
C663 N662 1.351 . S
C663 C664 1.434 . S
C664 C655 1.429 . S
C664 N661 1.350 . S
C664 C663 1.434 . S
C665 C666 1.369 . S
C665 C667 1.419 . S
C665 H669 0.930 . S
C666 C665 1.369 . S
C666 C675 1.429 . S
C667 C665 1.419 . S
C667 C668 1.363 . S
C667 H670 0.929 . S
C668 C667 1.363 . S
C668 C674 1.428 . S
H669 C665 0.930 . S
H670 C667 0.929 . S
S671 N672 1.613 . S
S671 N673 1.610 . S
N672 S671 1.613 . S
N672 C675 1.350 . S
N673 S671 1.610 . S
N673 C674 1.351 . S
C674 C668 1.428 . S
C674 N673 1.351 . S
C674 C675 1.434 . S
C675 C666 1.429 . S
C675 N672 1.350 . S
C675 C674 1.434 . S
C676 C677 1.369 1_556 S
C676 C678 1.419 . S
C676 H680 0.930 . S
C677 C676 1.369 1_554 S
C677 C686 1.429 . S
C678 C676 1.419 . S
C678 C679 1.363 . S
C678 H681 0.929 . S
C679 C678 1.363 . S
C679 C685 1.428 . S
H680 C676 0.930 . S
H681 C678 0.929 . S
S682 N683 1.611 1_556 S
S682 N684 1.614 . S
N683 S682 1.611 1_554 S
N683 C686 1.350 . S
N684 S682 1.614 . S
N684 C685 1.351 . S
C685 C679 1.428 . S
C685 N684 1.351 . S
C685 C686 1.434 1_556 S
C686 C677 1.429 . S
C686 N683 1.350 . S
C686 C685 1.434 1_554 S
C687 C688 1.369 . S
C687 C689 1.419 . S
C687 H691 0.930 . S
C688 C687 1.369 . S
C688 C697 1.429 . S
C689 C687 1.419 . S
C689 C690 1.363 . S
C689 H692 0.929 . S
C690 C689 1.363 . S
C690 C696 1.428 . S
H691 C687 0.930 . S
H692 C689 0.929 . S
S693 N694 1.613 . S
S693 N695 1.610 . S
N694 S693 1.613 . S
N694 C697 1.350 . S
N695 S693 1.610 . S
N695 C696 1.351 . S
C696 C690 1.428 . S
C696 N695 1.351 . S
C696 C697 1.434 . S
C697 C688 1.429 . S
C697 N694 1.350 . S
C697 C696 1.434 . S
C698 C699 1.369 . S
C698 C700 1.419 . S
C698 H702 0.930 . S
C699 C698 1.369 . S
C699 C708 1.429 . S
C700 C698 1.419 . S
C700 C701 1.363 . S
C700 H703 0.929 . S
C701 C700 1.363 . S
C701 C707 1.428 . S
H702 C698 0.930 . S
H703 C700 0.929 . S
S704 N705 1.613 . S
S704 N706 1.610 . S
N705 S704 1.613 . S
N705 C708 1.350 . S
N706 S704 1.610 . S
N706 C707 1.351 . S
C707 C701 1.428 . S
C707 N706 1.351 . S
C707 C708 1.434 . S
C708 C699 1.429 . S
C708 N705 1.350 . S
C708 C707 1.434 . S
C709 C710 1.369 . S
C709 C711 1.419 . S
C709 H713 0.930 . S
C710 C709 1.369 . S
C710 C719 1.429 . S
C711 C709 1.419 . S
C711 C712 1.363 . S
C711 H714 0.929 . S
C712 C711 1.363 . S
C712 C718 1.428 . S
H713 C709 0.930 . S
H714 C711 0.929 . S
S715 N716 1.613 . S
S715 N717 1.610 . S
N716 S715 1.613 . S
N716 C719 1.350 . S
N717 S715 1.610 . S
N717 C718 1.351 . S
C718 C712 1.428 . S
C718 N717 1.351 . S
C718 C719 1.434 . S
C719 C710 1.429 . S
C719 N716 1.350 . S
C719 C718 1.434 . S
C720 C721 1.369 . S
C720 C722 1.419 . S
C720 H724 0.930 . S
C721 C720 1.369 . S
C721 C730 1.429 . S
C722 C720 1.419 . S
C722 C723 1.363 . S
C722 H725 0.929 . S
C723 C722 1.363 . S
C723 C729 1.428 . S
H724 C720 0.930 . S
H725 C722 0.929 . S
S726 N727 1.613 . S
S726 N728 1.610 . S
N727 S726 1.613 . S
N727 C730 1.350 . S
N728 S726 1.610 . S
N728 C729 1.351 . S
C729 C723 1.428 . S
C729 N728 1.351 . S
C729 C730 1.434 . S
C730 C721 1.429 . S
C730 N727 1.350 . S
C730 C729 1.434 . S
C731 C732 1.369 . S
C731 C733 1.419 . S
C731 H735 0.930 . S
C732 C731 1.369 . S
C732 C741 1.429 . S
C733 C731 1.419 . S
C733 C734 1.363 . S
C733 H736 0.929 1_545 S
C734 C733 1.363 . S
C734 C740 1.428 . S
H735 C731 0.930 . S
H736 C733 0.929 1_565 S
S737 N738 1.613 . S
S737 N739 1.610 . S
N738 S737 1.613 . S
N738 C741 1.350 . S
N739 S737 1.610 . S
N739 C740 1.351 . S
C740 C734 1.428 . S
C740 N739 1.351 . S
C740 C741 1.434 . S
C741 C732 1.429 . S
C741 N738 1.350 . S
C741 C740 1.434 . S
C742 C743 1.369 . S
C742 C744 1.419 . S
C742 H746 0.930 . S
C743 C742 1.369 . S
C743 C752 1.429 . S
C744 C742 1.419 . S
C744 C745 1.363 1_554 S
C744 H747 0.929 1_554 S
C745 C744 1.363 1_556 S
C745 C751 1.428 1_556 S
H746 C742 0.930 . S
H747 C744 0.929 1_556 S
S748 N749 1.613 . S
S748 N750 1.582 1_554 S
N749 S748 1.613 . S
N749 C752 1.350 . S
N750 S748 1.582 1_556 S
N750 C751 1.340 1_556 S
C751 C745 1.428 1_554 S
C751 N750 1.340 1_554 S
C751 C752 1.434 . S
C752 C743 1.429 . S
C752 N749 1.350 . S
C752 C751 1.434 . S
C753 C754 1.369 . S
C753 C755 1.419 . S
C753 H757 0.930 . S
C754 C753 1.369 . S
C754 C763 1.429 . S
C755 C753 1.419 . S
C755 C756 1.363 . S
C755 H758 0.929 . S
C756 C755 1.363 . S
C756 C762 1.428 . S
H757 C753 0.930 . S
H758 C755 0.929 . S
S759 N760 1.613 . S
S759 N761 1.610 . S
N760 S759 1.613 . S
N760 C763 1.350 1_545 S
N761 S759 1.610 . S
N761 C762 1.351 1_545 S
C762 C756 1.428 . S
C762 N761 1.351 1_565 S
C762 C763 1.434 . S
C763 C754 1.429 . S
C763 N760 1.350 1_565 S
C763 C762 1.434 . S
C764 C765 1.369 . S
C764 C766 1.419 . S
C764 H768 0.930 . S
C765 C764 1.369 . S
C765 C774 1.429 . S
C766 C764 1.419 . S
C766 C767 1.363 . S
C766 H769 0.929 . S
C767 C766 1.363 . S
C767 C773 1.428 . S
H768 C764 0.930 . S
H769 C766 0.929 . S
S770 N771 1.613 . S
S770 N772 1.610 . S
N771 S770 1.613 . S
N771 C774 1.350 . S
N772 S770 1.610 . S
N772 C773 1.351 . S
C773 C767 1.428 . S
C773 N772 1.351 . S
C773 C774 1.434 . S
C774 C765 1.429 . S
C774 N771 1.350 . S
C774 C773 1.434 . S
C775 C776 1.369 . S
C775 C777 1.419 . S
C775 H779 0.930 . S
C776 C775 1.369 . S
C776 C785 1.429 . S
C777 C775 1.419 . S
C777 C778 1.363 . S
C777 H780 0.929 . S
C778 C777 1.363 . S
C778 C784 1.428 . S
H779 C775 0.930 . S
H780 C777 0.929 . S
S781 N782 1.613 1_455 S
S781 N783 1.610 1_455 S
N782 S781 1.613 1_655 S
N782 C785 1.350 . S
N783 S781 1.610 1_655 S
N783 C784 1.351 . S
C784 C778 1.428 . S
C784 N783 1.351 . S
C784 C785 1.434 . S
C785 C776 1.429 . S
C785 N782 1.350 . S
C785 C784 1.434 . S
C786 C787 1.369 1_556 S
C786 C788 1.419 . S
C786 H790 0.930 1_556 S
C787 C786 1.369 1_554 S
C787 C796 1.429 1_554 S
C788 C786 1.419 . S
C788 C789 1.363 . S
C788 H791 0.929 . S
C789 C788 1.363 . S
C789 C795 1.428 . S
H790 C786 0.930 1_554 S
H791 C788 0.929 . S
S792 N793 1.613 1_556 S
S792 N794 1.610 . S
N793 S792 1.613 1_554 S
N793 C796 1.350 1_554 S
N794 S792 1.610 . S
N794 C795 1.351 . S
C795 C789 1.428 . S
C795 N794 1.351 . S
C795 C796 1.434 . S
C796 C787 1.429 1_556 S
C796 N793 1.350 1_556 S
C796 C795 1.434 . S
C797 C798 1.369 . S
C797 C799 1.419 . S
C797 H801 0.930 1_545 S
C798 C797 1.369 . S
C798 C807 1.429 . S
C799 C797 1.419 . S
C799 C800 1.363 . S
C799 H802 0.929 1_545 S
C800 C799 1.363 . S
C800 C806 1.428 . S
H801 C797 0.930 1_565 S
H802 C799 0.929 1_565 S
S803 N804 1.613 . S
S803 N805 1.610 . S
N804 S803 1.613 . S
N804 C807 1.350 . S
N805 S803 1.610 . S
N805 C806 1.351 . S
C806 C800 1.428 . S
C806 N805 1.351 . S
C806 C807 1.434 . S
C807 C798 1.429 . S
C807 N804 1.350 . S
C807 C806 1.434 . S
C808 C809 1.369 . S
C808 C810 1.419 . S
C808 H812 0.930 . S
C809 C808 1.369 . S
C809 C818 1.429 . S
C810 C808 1.419 . S
C810 C811 1.363 . S
C810 H813 0.929 . S
C811 C810 1.363 . S
C811 C817 1.428 . S
H812 C808 0.930 . S
H813 C810 0.929 . S
S814 N815 1.613 . S
S814 N816 1.610 . S
N815 S814 1.613 . S
N815 C818 1.350 . S
N816 S814 1.610 . S
N816 C817 1.351 . S
C817 C811 1.428 . S
C817 N816 1.351 . S
C817 C818 1.434 . S
C818 C809 1.429 . S
C818 N815 1.350 . S
C818 C817 1.434 . S
C819 C820 1.369 . S
C819 C821 1.419 . S
C819 H823 0.930 . S
C820 C819 1.369 . S
C820 C829 1.429 . S
C821 C819 1.419 . S
C821 C822 1.363 . S
C821 H824 0.929 . S
C822 C821 1.363 . S
C822 C828 1.428 . S
H823 C819 0.930 . S
H824 C821 0.929 . S
S825 N826 1.613 . S
S825 N827 1.610 . S
N826 S825 1.613 . S
N826 C829 1.350 . S
N827 S825 1.610 . S
N827 C828 1.351 . S
C828 C822 1.428 . S
C828 N827 1.351 . S
C828 C829 1.434 . S
C829 C820 1.429 . S
C829 N826 1.350 . S
C829 C828 1.434 . S
C830 C831 1.369 . S
C830 C832 1.419 1_655 S
C830 H834 0.930 . S
C831 C830 1.369 . S
C831 C840 1.429 . S
C832 C830 1.419 1_455 S
C832 C833 1.363 . S
C832 H835 0.929 . S
C833 C832 1.363 . S
C833 C839 1.428 . S
H834 C830 0.930 . S
H835 C832 0.929 . S
S836 N837 1.613 . S
S836 N838 1.610 1_655 S
N837 S836 1.613 . S
N837 C840 1.350 . S
N838 S836 1.610 1_455 S
N838 C839 1.351 . S
C839 C833 1.428 . S
C839 N838 1.351 . S
C839 C840 1.434 1_455 S
C840 C831 1.429 . S
C840 N837 1.350 . S
C840 C839 1.434 1_655 S
C841 C842 1.369 1_455 S
C841 C843 1.419 . S
C841 H845 0.930 . S
C842 C841 1.369 1_655 S
C842 C851 1.429 . S
C843 C841 1.419 . S
C843 C844 1.363 . S
C843 H846 0.929 . S
C844 C843 1.363 . S
C844 C850 1.428 1_455 S
H845 C841 0.930 . S
H846 C843 0.929 . S
S847 N848 1.613 . S
S847 N849 1.610 . S
N848 S847 1.613 . S
N848 C851 1.350 . S
N849 S847 1.610 . S
N849 C850 1.351 . S
C850 C844 1.428 1_655 S
C850 N849 1.351 . S
C850 C851 1.434 . S
C851 C842 1.429 . S
C851 N848 1.350 . S
C851 C850 1.434 . S
C852 C853 1.369 . S
C852 C854 1.419 . S
C852 H856 0.930 . S
C853 C852 1.369 . S
C853 C862 1.429 . S
C854 C852 1.419 . S
C854 C855 1.363 . S
C854 H857 0.929 . S
C855 C854 1.363 . S
C855 C861 1.428 . S
H856 C852 0.930 . S
H857 C854 0.929 . S
S858 N859 1.613 . S
S858 N860 1.610 . S
N859 S858 1.613 . S
N859 C862 1.350 . S
N860 S858 1.610 . S
N860 C861 1.351 . S
C861 C855 1.428 . S
C861 N860 1.351 . S
C861 C862 1.434 . S
C862 C853 1.429 . S
C862 N859 1.350 . S
C862 C861 1.434 . S
C863 C864 1.369 . S
C863 C865 1.419 . S
C863 H867 0.930 . S
C864 C863 1.369 . S
C864 C873 1.429 . S
C865 C863 1.419 . S
C865 C866 1.363 . S
C865 H868 0.929 . S
C866 C865 1.363 . S
C866 C872 1.428 . S
H867 C863 0.930 . S
H868 C865 0.929 . S
S869 N870 1.613 . S
S869 N871 1.610 . S
N870 S869 1.613 . S
N870 C873 1.350 . S
N871 S869 1.610 . S
N871 C872 1.351 . S
C872 C866 1.428 . S
C872 N871 1.351 . S
C872 C873 1.434 . S
C873 C864 1.429 . S
C873 N870 1.350 . S
C873 C872 1.434 . S
C874 C875 1.369 . S
C874 C876 1.419 1_455 S
C874 H878 0.930 . S
C875 C874 1.369 . S
C875 C884 1.429 . S
C876 C874 1.419 1_655 S
C876 C877 1.363 . S
C876 H879 0.929 . S
C877 C876 1.363 . S
C877 C883 1.428 . S
H878 C874 0.930 . S
H879 C876 0.929 . S
S880 N881 1.613 1_655 S
S880 N882 1.610 . S
N881 S880 1.613 1_455 S
N881 C884 1.350 . S
N882 S880 1.610 . S
N882 C883 1.351 . S
C883 C877 1.428 . S
C883 N882 1.351 . S
C883 C884 1.434 1_655 S
C884 C875 1.429 . S
C884 N881 1.350 . S
C884 C883 1.434 1_455 S
C885 C886 1.369 . S
C885 C887 1.419 . S
C885 H889 0.930 . S
C886 C885 1.369 . S
C886 C895 1.429 1_455 S
C887 C885 1.419 . S
C887 C888 1.363 1_455 S
C887 H890 0.929 . S
C888 C887 1.363 1_655 S
C888 C894 1.428 . S
H889 C885 0.930 . S
H890 C887 0.929 . S
S891 N892 1.613 . S
S891 N893 1.610 . S
N892 S891 1.613 . S
N892 C895 1.350 . S
N893 S891 1.610 . S
N893 C894 1.351 . S
C894 C888 1.428 . S
C894 N893 1.351 . S
C894 C895 1.434 . S
C895 C886 1.429 1_655 S
C895 N892 1.350 . S
C895 C894 1.434 . S
C896 C897 1.369 . S
C896 C898 1.419 . S
C896 H900 0.930 . S
C897 C896 1.369 . S
C897 C906 1.429 . S
C898 C896 1.419 . S
C898 C899 1.363 . S
C898 H901 0.929 . S
C899 C898 1.363 . S
C899 C905 1.428 . S
H900 C896 0.930 . S
H901 C898 0.929 . S
S902 N903 1.613 . S
S902 N904 1.610 . S
N903 S902 1.613 . S
N903 C906 1.350 . S
N904 S902 1.610 . S
N904 C905 1.351 . S
C905 C899 1.428 . S
C905 N904 1.351 . S
C905 C906 1.434 . S
C906 C897 1.429 . S
C906 N903 1.350 . S
C906 C905 1.434 . S
C907 C908 1.369 . S
C907 C909 1.419 . S
C907 H911 0.930 . S
C908 C907 1.369 . S
C908 C917 1.429 . S
C909 C907 1.419 . S
C909 C910 1.363 . S
C909 H912 0.929 . S
C910 C909 1.363 . S
C910 C916 1.428 . S
H911 C907 0.930 . S
H912 C909 0.929 . S
S913 N914 1.613 . S
S913 N915 1.610 . S
N914 S913 1.613 . S
N914 C917 1.350 . S
N915 S913 1.610 . S
N915 C916 1.351 . S
C916 C910 1.428 . S
C916 N915 1.351 . S
C916 C917 1.434 . S
C917 C908 1.429 . S
C917 N914 1.350 . S
C917 C916 1.434 . S
C918 C919 1.369 . S
C918 C920 1.419 . S
C918 H922 0.930 . S
C919 C918 1.369 . S
C919 C928 1.429 . S
C920 C918 1.419 . S
C920 C921 1.363 . S
C920 H923 0.929 . S
C921 C920 1.363 . S
C921 C927 1.428 . S
H922 C918 0.930 . S
H923 C920 0.929 . S
S924 N925 1.613 . S
S924 N926 1.610 . S
N925 S924 1.613 . S
N925 C928 1.350 . S
N926 S924 1.610 . S
N926 C927 1.351 . S
C927 C921 1.428 . S
C927 N926 1.351 . S
C927 C928 1.434 . S
C928 C919 1.429 . S
C928 N925 1.350 . S
C928 C927 1.434 . S
C929 C930 1.369 . S
C929 C931 1.419 . S
C929 H933 0.930 . S
C930 C929 1.369 . S
C930 C939 1.429 . S
C931 C929 1.419 . S
C931 C932 1.363 . S
C931 H934 0.929 . S
C932 C931 1.363 . S
C932 C938 1.428 . S
H933 C929 0.930 . S
H934 C931 0.929 . S
S935 N936 1.613 . S
S935 N937 1.610 . S
N936 S935 1.613 . S
N936 C939 1.350 . S
N937 S935 1.610 . S
N937 C938 1.351 . S
C938 C932 1.428 . S
C938 N937 1.351 . S
C938 C939 1.434 . S
C939 C930 1.429 . S
C939 N936 1.350 . S
C939 C938 1.434 . S
C940 C941 1.369 . S
C940 C942 1.419 . S
C940 H944 0.930 . S
C941 C940 1.369 . S
C941 C950 1.429 . S
C942 C940 1.419 . S
C942 C943 1.363 . S
C942 H945 0.929 . S
C943 C942 1.363 . S
C943 C949 1.428 . S
H944 C940 0.930 . S
H945 C942 0.929 . S
S946 N947 1.613 . S
S946 N948 1.610 . S
N947 S946 1.613 . S
N947 C950 1.350 . S
N948 S946 1.610 . S
N948 C949 1.351 . S
C949 C943 1.428 . S
C949 N948 1.351 . S
C949 C950 1.434 . S
C950 C941 1.429 . S
C950 N947 1.350 . S
C950 C949 1.434 . S
C951 C952 1.369 . S
C951 C953 1.419 . S
C951 H955 0.930 . S
C952 C951 1.369 . S
C952 C961 1.429 . S
C953 C951 1.419 . S
C953 C954 1.363 . S
C953 H956 0.929 . S
C954 C953 1.363 . S
C954 C960 1.428 . S
H955 C951 0.930 . S
H956 C953 0.929 . S
S957 N958 1.613 . S
S957 N959 1.610 . S
N958 S957 1.613 . S
N958 C961 1.350 . S
N959 S957 1.610 . S
N959 C960 1.351 . S
C960 C954 1.428 . S
C960 N959 1.351 . S
C960 C961 1.434 . S
C961 C952 1.429 . S
C961 N958 1.350 . S
C961 C960 1.434 . S
C962 C963 1.369 . S
C962 C964 1.419 . S
C962 H966 0.930 . S
C963 C962 1.369 . S
C963 C972 1.429 . S
C964 C962 1.419 . S
C964 C965 1.363 . S
C964 H967 0.929 . S
C965 C964 1.363 . S
C965 C971 1.428 . S
H966 C962 0.930 . S
H967 C964 0.929 . S
S968 N969 1.613 . S
S968 N970 1.610 . S
N969 S968 1.613 . S
N969 C972 1.350 . S
N970 S968 1.610 . S
N970 C971 1.351 . S
C971 C965 1.428 . S
C971 N970 1.351 . S
C971 C972 1.434 . S
C972 C963 1.429 . S
C972 N969 1.350 . S
C972 C971 1.434 . S
C973 C974 1.369 . S
C973 C975 1.419 . S
C973 H977 0.930 . S
C974 C973 1.369 . S
C974 C983 1.429 . S
C975 C973 1.419 . S
C975 C976 1.363 . S
C975 H978 0.929 . S
C976 C975 1.363 . S
C976 C982 1.428 . S
H977 C973 0.930 . S
H978 C975 0.929 . S
S979 N980 1.613 . S
S979 N981 1.610 . S
N980 S979 1.613 . S
N980 C983 1.350 . S
N981 S979 1.610 . S
N981 C982 1.351 . S
C982 C976 1.428 . S
C982 N981 1.351 . S
C982 C983 1.434 . S
C983 C974 1.429 . S
C983 N980 1.350 . S
C983 C982 1.434 . S
C984 C985 1.369 . S
C984 C986 1.419 . S
C984 H988 0.930 . S
C985 C984 1.369 . S
C985 C994 1.429 . S
C986 C984 1.419 . S
C986 C987 1.363 . S
C986 H989 0.929 . S
C987 C986 1.363 . S
C987 C993 1.428 . S
H988 C984 0.930 . S
H989 C986 0.929 . S
S990 N991 1.613 . S
S990 N992 1.610 . S
N991 S990 1.613 . S
N991 C994 1.350 . S
N992 S990 1.610 . S
N992 C993 1.351 . S
C993 C987 1.428 . S
C993 N992 1.351 . S
C993 C994 1.434 . S
C994 C985 1.429 . S
C994 N991 1.350 . S
C994 C993 1.434 . S
C995 C996 1.369 . S
C995 C997 1.419 . S
C995 H999 0.930 . S
C996 C995 1.369 . S
C996 C1005 1.429 . S
C997 C995 1.419 . S
C997 C998 1.363 . S
C997 H1000 0.929 . S
C998 C997 1.363 . S
C998 C1004 1.428 . S
H999 C995 0.930 . S
H1000 C997 0.929 . S
S1001 N1002 1.613 . S
S1001 N1003 1.610 . S
N1002 S1001 1.613 . S
N1002 C1005 1.350 . S
N1003 S1001 1.610 . S
N1003 C1004 1.351 . S
C1004 C998 1.428 . S
C1004 N1003 1.351 . S
C1004 C1005 1.434 . S
C1005 C996 1.429 . S
C1005 N1002 1.350 . S
C1005 C1004 1.434 . S
C1006 C1007 1.369 . S
C1006 C1008 1.419 . S
C1006 H1010 0.930 . S
C1007 C1006 1.369 . S
C1007 C1016 1.429 . S
C1008 C1006 1.419 . S
C1008 C1009 1.363 . S
C1008 H1011 0.929 . S
C1009 C1008 1.363 . S
C1009 C1015 1.428 . S
H1010 C1006 0.930 . S
H1011 C1008 0.929 . S
S1012 N1013 1.613 . S
S1012 N1014 1.610 . S
N1013 S1012 1.613 . S
N1013 C1016 1.350 . S
N1014 S1012 1.610 . S
N1014 C1015 1.351 . S
C1015 C1009 1.428 . S
C1015 N1014 1.351 . S
C1015 C1016 1.434 . S
C1016 C1007 1.429 . S
C1016 N1013 1.350 . S
C1016 C1015 1.434 . S
C1017 C1018 1.369 . S
C1017 C1019 1.419 . S
C1017 H1021 0.930 . S
C1018 C1017 1.369 . S
C1018 C1027 1.429 . S
C1019 C1017 1.419 . S
C1019 C1020 1.363 . S
C1019 H1022 0.929 . S
C1020 C1019 1.363 . S
C1020 C1026 1.428 . S
H1021 C1017 0.930 . S
H1022 C1019 0.929 . S
S1023 N1024 1.613 . S
S1023 N1025 1.610 1_565 S
N1024 S1023 1.613 . S
N1024 C1027 1.350 1_565 S
N1025 S1023 1.610 1_545 S
N1025 C1026 1.351 . S
C1026 C1020 1.428 . S
C1026 N1025 1.351 . S
C1026 C1027 1.434 . S
C1027 C1018 1.429 . S
C1027 N1024 1.350 1_545 S
C1027 C1026 1.434 . S
C1028 C1029 1.369 . S
C1028 C1030 1.419 . S
C1028 H1032 0.930 . S
C1029 C1028 1.369 . S
C1029 C1038 1.429 . S
C1030 C1028 1.419 . S
C1030 C1031 1.363 . S
C1030 H1033 0.929 . S
C1031 C1030 1.363 . S
C1031 C1037 1.428 . S
H1032 C1028 0.930 . S
H1033 C1030 0.929 . S
S1034 N1035 1.613 . S
S1034 N1036 1.610 . S
N1035 S1034 1.613 . S
N1035 C1038 1.350 . S
N1036 S1034 1.610 . S
N1036 C1037 1.351 . S
C1037 C1031 1.428 . S
C1037 N1036 1.351 . S
C1037 C1038 1.434 . S
C1038 C1029 1.429 . S
C1038 N1035 1.350 . S
C1038 C1037 1.434 . S
C1039 C1040 1.369 . S
C1039 C1041 1.419 . S
C1039 H1043 0.930 . S
C1040 C1039 1.369 . S
C1040 C1049 1.429 . S
C1041 C1039 1.419 . S
C1041 C1042 1.363 . S
C1041 H1044 0.929 . S
C1042 C1041 1.363 . S
C1042 C1048 1.428 . S
H1043 C1039 0.930 . S
H1044 C1041 0.929 . S
S1045 N1046 1.613 . S
S1045 N1047 1.610 1_565 S
N1046 S1045 1.613 . S
N1046 C1049 1.350 1_565 S
N1047 S1045 1.610 1_545 S
N1047 C1048 1.351 . S
C1048 C1042 1.428 . S
C1048 N1047 1.351 . S
C1048 C1049 1.434 . S
C1049 C1040 1.429 . S
C1049 N1046 1.350 1_545 S
C1049 C1048 1.434 . S
C1050 C1051 1.369 . S
C1050 C1052 1.419 . S
C1050 H1054 0.930 . S
C1051 C1050 1.369 . S
C1051 C1060 1.429 . S
C1052 C1050 1.419 . S
C1052 C1053 1.363 . S
C1052 H1055 0.929 . S
C1053 C1052 1.363 . S
C1053 C1059 1.428 . S
H1054 C1050 0.930 . S
H1055 C1052 0.929 . S
S1056 N1057 1.613 . S
S1056 N1058 1.610 . S
N1057 S1056 1.613 . S
N1057 C1060 1.350 . S
N1058 S1056 1.610 . S
N1058 C1059 1.351 . S
C1059 C1053 1.428 . S
C1059 N1058 1.351 . S
C1059 C1060 1.434 . S
C1060 C1051 1.429 . S
C1060 N1057 1.350 . S
C1060 C1059 1.434 . S
C1061 C1062 1.369 . S
C1061 C1063 1.419 . S
C1061 H1065 0.930 . S
C1062 C1061 1.369 . S
C1062 C1071 1.429 . S
C1063 C1061 1.419 . S
C1063 C1064 1.363 . S
C1063 H1066 0.929 . S
C1064 C1063 1.363 . S
C1064 C1070 1.428 . S
H1065 C1061 0.930 . S
H1066 C1063 0.929 . S
S1067 N1068 1.613 1_545 S
S1067 N1069 1.610 . S
N1068 S1067 1.613 1_565 S
N1068 C1071 1.350 . S
N1069 S1067 1.610 . S
N1069 C1070 1.351 1_545 S
C1070 C1064 1.428 . S
C1070 N1069 1.351 1_565 S
C1070 C1071 1.434 . S
C1071 C1062 1.429 . S
C1071 N1068 1.350 . S
C1071 C1070 1.434 . S
C545 C29 1.751 . S
C547 C408 1.755 . S
C556 C170 1.755 . S
C558 C63 1.752 . S
C567 C97 1.757 . S
C569 C476 1.750 . S
C578 C131 1.758 . S
C580 C238 1.749 . S
C589 C136 1.757 . S
C591 C301 1.750 . S
C600 C369 1.749 . S
C602 C204 1.756 . S
C611 C442 1.750 . S
C613 C335 1.756 . S
C622 C403 1.749 . S
C624 C510 1.756 . S
C633 C319 1.744 . S
C635 C0 1.828 . S
C644 C34 1.826 . S
C646 C353 1.747 . S
C655 C68 1.826 . S
C657 C387 1.746 . S
C666 C285 1.751 . S
C668 C102 1.826 . S
C677 C446 1.754 . S
C679 C165 1.830 . S
C688 C480 1.743 . S
C690 C199 1.828 . S
C699 C233 1.825 . S
C701 C514 1.751 . S
C710 C412 1.752 . S
C712 C267 1.831 . S
C721 C272 1.828 . S
C723 C47 1.753 . S
C732 C306 1.827 . S
C734 C81 1.753 . S
C743 C340 1.826 . S
C745 C115 1.752 . S
C754 C13 1.744 . S
C756 C374 1.829 . S
C765 C174 1.744 . S
C767 C437 1.828 . S
C776 C471 1.826 . S
C778 C208 1.751 . S
C787 C242 1.743 . S
C789 C505 1.832 . S
C798 C539 1.832 . S
C800 C140 1.752 . S
C809 C17 1.814 . S
C811 C357 1.813 . S
C820 C51 1.815 . S
C822 C391 1.813 . S
C831 C289 1.815 . S
C833 C85 1.813 . S
C842 C119 1.813 . S
C844 C323 1.815 . S
C853 C144 1.815 . S
C855 C484 1.813 . S
C864 C178 1.814 . S
C866 C518 1.814 . S
C875 C416 1.813 . S
C877 C212 1.815 . S
C886 C246 1.815 . S
C888 C450 1.813 . S
C897 C4 1.272 . S
C899 C255 1.370 . S
C908 C425 1.372 . S
C910 C38 1.269 . S
C919 C72 1.270 . S
C921 C187 1.371 . S
C930 C106 1.270 . S
C932 C493 1.369 . S
C941 C149 1.267 . S
C943 C110 1.371 . S
C952 C280 1.371 . S
C954 C183 1.268 . S
C963 C217 1.266 . S
C965 C42 1.371 . S
C974 C348 1.371 . S
C976 C251 1.270 . S
C985 C276 1.267 . S
C987 C527 1.370 . S
C996 C153 1.369 . S
C998 C310 1.276 . S
C1007 C459 1.367 . S
C1009 C344 1.275 . S
C1018 C378 1.275 . S
C1020 C221 1.367 . S
C1029 C421 1.266 . S
C1031 C382 1.371 . S
C1040 C455 1.278 . S
C1042 C8 1.367 . S
C1051 C314 1.367 . S
C1053 C489 1.277 . S
C1062 C76 1.370 . S
C1064 C523 1.270 . S
