# Generated by pormake.
# Topology wme, (6)-cn, num edge types: 1
# Building blocks:
#     Node 0, Type 0, BuildingBlock: UKALOJ_clean_sbu_0, # of connection points: 6
#     Node 1, Type 0, BuildingBlock: UKALOJ_clean_sbu_0, # of connection points: 6
#     Node 2, Type 0, BuildingBlock: UKALOJ_clean_sbu_0, # of connection points: 6
#     Node 3, Type 0, BuildingBlock: UKALOJ_clean_sbu_0, # of connection points: 6
#     Node 4, Type 0, BuildingBlock: UKALOJ_clean_sbu_0, # of connection points: 6
#     Node 5, Type 0, BuildingBlock: UKALOJ_clean_sbu_0, # of connection points: 6
#     Node 6, Type 0, BuildingBlock: UKALOJ_clean_sbu_0, # of connection points: 6
#     Node 7, Type 0, BuildingBlock: UKALOJ_clean_sbu_0, # of connection points: 6
#     Node 8, Type 0, BuildingBlock: UKALOJ_clean_sbu_0, # of connection points: 6
#     Node 9, Type 0, BuildingBlock: UKALOJ_clean_sbu_0, # of connection points: 6
#     Node 10, Type 0, BuildingBlock: UKALOJ_clean_sbu_0, # of connection points: 6
#     Node 11, Type 0, BuildingBlock: UKALOJ_clean_sbu_0, # of connection points: 6
#     Edge 12, Type (0, 0), BuildingBlock: OJICUG_clean_linker_0, # of connection points: 2
#     Edge 13, Type (0, 0), BuildingBlock: OJICUG_clean_linker_0, # of connection points: 2
#     Edge 14, Type (0, 0), BuildingBlock: OJICUG_clean_linker_0, # of connection points: 2
#     Edge 15, Type (0, 0), BuildingBlock: OJICUG_clean_linker_0, # of connection points: 2
#     Edge 16, Type (0, 0), BuildingBlock: OJICUG_clean_linker_0, # of connection points: 2
#     Edge 17, Type (0, 0), BuildingBlock: OJICUG_clean_linker_0, # of connection points: 2
#     Edge 18, Type (0, 0), BuildingBlock: OJICUG_clean_linker_0, # of connection points: 2
#     Edge 19, Type (0, 0), BuildingBlock: OJICUG_clean_linker_0, # of connection points: 2
#     Edge 20, Type (0, 0), BuildingBlock: OJICUG_clean_linker_0, # of connection points: 2
#     Edge 21, Type (0, 0), BuildingBlock: OJICUG_clean_linker_0, # of connection points: 2
#     Edge 22, Type (0, 0), BuildingBlock: OJICUG_clean_linker_0, # of connection points: 2
#     Edge 23, Type (0, 0), BuildingBlock: OJICUG_clean_linker_0, # of connection points: 2
#     Edge 24, Type (0, 0), BuildingBlock: OJICUG_clean_linker_0, # of connection points: 2
#     Edge 25, Type (0, 0), BuildingBlock: OJICUG_clean_linker_0, # of connection points: 2
#     Edge 26, Type (0, 0), BuildingBlock: OJICUG_clean_linker_0, # of connection points: 2
#     Edge 27, Type (0, 0), BuildingBlock: OJICUG_clean_linker_0, # of connection points: 2
#     Edge 28, Type (0, 0), BuildingBlock: OJICUG_clean_linker_0, # of connection points: 2
#     Edge 29, Type (0, 0), BuildingBlock: OJICUG_clean_linker_0, # of connection points: 2
#     Edge 30, Type (0, 0), BuildingBlock: OJICUG_clean_linker_0, # of connection points: 2
#     Edge 31, Type (0, 0), BuildingBlock: OJICUG_clean_linker_0, # of connection points: 2
#     Edge 32, Type (0, 0), BuildingBlock: OJICUG_clean_linker_0, # of connection points: 2
#     Edge 33, Type (0, 0), BuildingBlock: OJICUG_clean_linker_0, # of connection points: 2
#     Edge 34, Type (0, 0), BuildingBlock: OJICUG_clean_linker_0, # of connection points: 2
#     Edge 35, Type (0, 0), BuildingBlock: OJICUG_clean_linker_0, # of connection points: 2
#     Edge 36, Type (0, 0), BuildingBlock: OJICUG_clean_linker_0, # of connection points: 2
#     Edge 37, Type (0, 0), BuildingBlock: OJICUG_clean_linker_0, # of connection points: 2
#     Edge 38, Type (0, 0), BuildingBlock: OJICUG_clean_linker_0, # of connection points: 2
#     Edge 39, Type (0, 0), BuildingBlock: OJICUG_clean_linker_0, # of connection points: 2
#     Edge 40, Type (0, 0), BuildingBlock: OJICUG_clean_linker_0, # of connection points: 2
#     Edge 41, Type (0, 0), BuildingBlock: OJICUG_clean_linker_0, # of connection points: 2
#     Edge 42, Type (0, 0), BuildingBlock: OJICUG_clean_linker_0, # of connection points: 2
#     Edge 43, Type (0, 0), BuildingBlock: OJICUG_clean_linker_0, # of connection points: 2
#     Edge 44, Type (0, 0), BuildingBlock: OJICUG_clean_linker_0, # of connection points: 2
#     Edge 45, Type (0, 0), BuildingBlock: OJICUG_clean_linker_0, # of connection points: 2
#     Edge 46, Type (0, 0), BuildingBlock: OJICUG_clean_linker_0, # of connection points: 2
#     Edge 47, Type (0, 0), BuildingBlock: OJICUG_clean_linker_0, # of connection points: 2
# Relax obj value: 0.101
# Max RMSD: 0.174
# Mean RMSD: 0.174
data_MOF--net-wme--node1-UKALOJ_clean_sbu_0--edge1-OJICUG_clean_linker_0
_symmetry_space_group_name_H-M    P1
_symmetry_Int_Tables_number       1
_symmetry_cell_setting            triclinic
loop_
_symmetry_equiv_pos_as_xyz
'x, y, z'
_cell_length_a     21.56599
_cell_length_b     21.460298
_cell_length_c     63.011235
_cell_angle_alpha  89.848241
_cell_angle_beta   90.094391
_cell_angle_gamma 120.07556
loop_
_atom_site_label
_atom_site_type_symbol
_atom_site_fract_x
_atom_site_fract_y
_atom_site_fract_z
_atom_type_partial_charge
Zn0 Zn 0.18122 0.29417 0.16657 0.0
O1 O 0.1475 0.36957 0.16518 0.0
C2 C 0.32273 0.40189 0.15226 0.0
Zn3 Zn 0.18722 0.29352 0.13098 0.0
C4 C 0.1395 0.39193 0.14724 0.0
O5 O 0.15535 0.37097 0.13028 0.0
C6 C 0.22215 0.19049 0.15033 0.0
O7 O 0.07969 0.21516 0.12816 0.0
O8 O 0.07448 0.21442 0.16302 0.0
N9 N 0.20057 0.29948 0.09844 0.0
C10 C 0.19293 0.24958 0.08402 0.0
C11 C 0.23887 0.35029 0.0679 0.0
N12 N 0.22872 0.36194 0.0883 0.0
N13 N 0.21729 0.28021 0.06482 0.0
C14 C 0.17176 0.32353 0.21562 0.0
C15 C 0.13665 0.21819 0.22774 0.0
N16 N 0.16826 0.28203 0.19904 0.0
N17 N 0.14693 0.21689 0.20675 0.0
N18 N 0.15229 0.28455 0.23381 0.0
H19 H 0.22487 0.42649 0.19994 0.0
H20 H 0.13828 0.40067 0.21107 0.0
H21 H 0.21415 0.43035 0.22838 0.0
C22 C 0.18882 0.39998 0.21365 0.0
C23 C 0.15833 0.17046 0.08838 0.0
H24 H 0.12215 0.15466 0.10227 0.0
H25 H 0.12765 0.13935 0.07427 0.0
H26 H 0.20039 0.15659 0.09158 0.0
O27 O 0.21709 0.21499 0.13249 0.0
O28 O 0.21232 0.21648 0.16718 0.0
C29 C 0.04366 0.1927 0.14518 0.0
O30 O 0.28761 0.37663 0.16937 0.0
O31 O 0.29376 0.37456 0.13454 0.0
Zn32 Zn 0.82118 0.18957 0.62932 0.0
O33 O 0.78969 0.08023 0.63172 0.0
C34 C 0.95921 0.2249 0.6495 0.0
Zn35 Zn 0.81785 0.19293 0.6649 0.0
C36 C 0.77661 0.04888 0.6497 0.0
O37 O 0.78693 0.08461 0.66668 0.0
C38 C 0.85406 0.33176 0.64467 0.0
O39 O 0.71018 0.16365 0.66313 0.0
O40 O 0.71225 0.15877 0.62824 0.0
N41 N 0.81926 0.20334 0.69733 0.0
C42 C 0.78206 0.15957 0.71364 0.0
C43 C 0.86066 0.25964 0.72689 0.0
N44 N 0.8678 0.26542 0.70568 0.0
N45 N 0.80732 0.19371 0.73246 0.0
C46 C 0.86895 0.17969 0.58285 0.0
C47 C 0.80852 0.21426 0.56462 0.0
N48 N 0.82546 0.18831 0.59647 0.0
N49 N 0.78761 0.20923 0.58501 0.0
N50 N 0.86003 0.19653 0.56279 0.0
H51 H 0.89654 0.11677 0.60339 0.0
H52 H 0.92099 0.11903 0.57576 0.0
H53 H -0.02884 0.19641 0.59224 0.0
C54 C 0.91688 0.15087 0.58897 0.0
C55 C 0.71915 0.08536 0.71082 0.0
H56 H 0.69193 0.0811 0.69552 0.0
H57 H 0.7382 0.04599 0.71059 0.0
H58 H 0.68033 0.0715 0.72401 0.0
O59 O 0.84669 0.3007 0.66239 0.0
O60 O 0.8487 0.298 0.62764 0.0
C61 C 0.6778 0.15004 0.64539 0.0
O62 O 0.92971 0.21844 0.63154 0.0
O63 O 0.9245 0.21925 0.66629 0.0
Zn64 Zn 0.64785 0.83954 0.16417 0.0
O65 O 0.57141 0.73086 0.16601 0.0
C66 C 0.53959 0.86865 0.14802 0.0
Zn67 Zn 0.64583 0.83467 0.12853 0.0
C68 C 0.54843 0.69402 0.14911 0.0
O69 O 0.56951 0.72439 0.13107 0.0
C70 C 0.74957 -0.02153 0.14426 0.0
O71 O 0.72531 0.80634 0.12724 0.0
O72 O 0.72629 0.81038 0.16215 0.0
N73 N 0.63592 0.83256 0.09572 0.0
C74 C 0.68264 0.8715 0.08012 0.0
C75 C 0.57813 0.82135 0.06672 0.0
N76 N 0.5712 0.80064 0.08717 0.0
N77 N 0.64751 0.86654 0.06173 0.0
C78 C 0.61834 0.82012 0.21353 0.0
C79 C 0.72421 0.88794 0.22519 0.0
N80 N 0.66183 0.84804 0.19652 0.0
N81 N 0.72743 0.8901 0.20388 0.0
N82 N 0.65641 0.8444 0.2318 0.0
H83 H 0.51813 0.781 0.19687 0.0
H84 H 0.52563 0.71522 0.21247 0.0
H85 H 0.51163 0.7819 0.2255 0.0
C86 C 0.53874 0.77221 0.21202 0.0
C87 C 0.76217 0.91547 0.0831 0.0
H88 H 0.77832 0.91272 0.09956 0.0
H89 H 0.78853 0.89365 0.07287 0.0
H90 H 0.78165 0.97211 0.07834 0.0
O91 O 0.72281 0.9442 0.1272 0.0
O92 O 0.72561 0.94731 0.16191 0.0
C93 C 0.74829 0.79753 0.14494 0.0
O94 O 0.56781 0.86632 0.16549 0.0
O95 O 0.56399 0.8597 0.13067 0.0
Zn96 Zn 0.73411 0.65191 0.63038 0.0
O97 O 0.84211 0.73073 0.63127 0.0
C98 C 0.69975 0.75453 0.65085 0.0
Zn99 Zn 0.73605 0.64704 0.666 0.0
C100 C 0.8766 0.74997 0.64868 0.0
O101 O 0.84422 0.72516 0.66621 0.0
C102 C 0.59549 0.54265 0.64754 0.0
O103 O 0.76577 0.56879 0.66379 0.0
O104 O 0.76627 0.57453 0.62887 0.0
N105 N 0.73073 0.64025 0.69866 0.0
C106 C 0.77548 0.64436 0.71433 0.0
C107 C 0.67862 0.6257 0.72899 0.0
N108 N 0.67078 0.62875 0.7079 0.0
N109 N 0.74395 0.63554 0.73358 0.0
C110 C 0.73973 0.70861 0.58397 0.0
C111 C 0.70106 0.61246 0.56594 0.0
N112 N 0.73085 0.65596 0.59759 0.0
N113 N 0.70731 0.59644 0.58625 0.0
N114 N 0.72057 0.68251 0.56405 0.0
H115 H 0.80478 0.79911 0.6043 0.0
H116 H 0.80347 0.82132 0.57658 0.0
H117 H 0.72709 0.79726 0.59304 0.0
C118 C 0.77101 0.78614 0.58989 0.0
C119 C 0.84802 0.6532 0.71056 0.0
H120 H 0.8516 0.6346 0.69447 0.0
H121 H 0.88901 0.71107 0.7118 0.0
H122 H 0.85999 0.62287 0.7226 0.0
O123 O 0.62844 0.56701 0.66494 0.0
O124 O 0.627 0.57048 0.63017 0.0
C125 C 0.7777 0.54978 0.64587 0.0
O126 O 0.70402 0.73039 0.63286 0.0
O127 O 0.70897 0.72732 0.6676 0.0
Zn128 Zn 0.10584 0.75731 0.12904 0.0
O129 O 0.13751 0.86653 0.13102 0.0
C130 C -0.03426 0.72157 0.14724 0.0
Zn131 Zn 0.10478 0.75252 0.16463 0.0
C132 C 0.14895 0.89744 0.14898 0.0
O133 O 0.13668 0.86117 0.16598 0.0
C134 C 0.06943 0.61411 0.14495 0.0
O135 O 0.21206 0.78042 0.16422 0.0
O136 O 0.21445 0.78773 0.12933 0.0
N137 N 0.1002 0.74286 0.19713 0.0
C138 C 0.13785 0.78685 0.2133 0.0
C139 C 0.05645 0.68871 0.22688 0.0
N140 N 0.04988 0.68196 0.20566 0.0
N141 N 0.11116 0.75408 0.23223 0.0
C142 C 0.06364 0.77032 0.08232 0.0
C143 C 0.11953 0.72947 0.06467 0.0
N144 N 0.10472 0.7589 0.09623 0.0
N145 N 0.13986 0.73411 0.08513 0.0
N146 N 0.07123 0.75139 0.06246 0.0
H147 H 0.03926 0.83623 0.10257 0.0
H148 H 0.01988 0.83817 0.07465 0.0
H149 H -0.0368 0.76082 0.09041 0.0
C150 C 0.0193 0.80371 0.08791 0.0
C151 C 0.20252 0.8599 0.21034 0.0
H152 H 0.22978 0.86291 0.19518 0.0
H153 H 0.18547 0.90079 0.20979 0.0
H154 H 0.24082 0.87284 0.22364 0.0
O155 O 0.07491 0.64453 0.16262 0.0
O156 O 0.07781 0.64883 0.12785 0.0
C157 C 0.24663 0.79509 0.14688 0.0
O158 O -0.00236 0.72868 0.12973 0.0
O159 O -0.00176 0.72701 0.16453 0.0
Zn160 Zn 0.27724 0.10502 0.66519 0.0
O161 O 0.35452 0.21446 0.66461 0.0
C162 C 0.38432 0.07583 0.64501 0.0
Zn163 Zn 0.27444 0.10671 0.62963 0.0
C164 C 0.37424 0.24895 0.64714 0.0
O165 O 0.35043 0.21608 0.62961 0.0
C166 C 0.17118 0.96507 0.64776 0.0
O167 O 0.19514 0.1351 0.63216 0.0
O168 O 0.19801 0.13363 0.6671 0.0
N169 N 0.265 0.10344 0.59692 0.0
C170 C 0.25184 0.04973 0.58323 0.0
C171 C 0.2489 0.13265 0.56541 0.0
N172 N 0.26325 0.15493 0.58577 0.0
N173 N 0.24058 0.06632 0.5634 0.0
C174 C 0.29055 0.14053 0.71428 0.0
C175 C 0.27716 0.04199 0.7267 0.0
N176 N 0.28214 0.09766 0.69759 0.0
N177 N 0.27405 0.0367 0.70543 0.0
N178 N 0.28767 0.10667 0.73276 0.0
H179 H 0.27483 0.21881 0.6972 0.0
H180 H 0.27081 0.22336 0.72586 0.0
H181 H 0.35542 0.25495 0.71269 0.0
C182 C 0.29776 0.21344 0.71238 0.0
C183 C 0.25326 -0.01746 0.58905 0.0
H184 H 0.19808 0.93875 0.59254 0.0
H185 H 0.2746 0.96516 0.57571 0.0
H186 H 0.28623 -0.00974 0.60325 0.0
O187 O 0.19598 -0.00163 0.63045 0.0
O188 O 0.1981 -0.00324 0.66512 0.0
C189 C 0.17437 0.14557 0.64998 0.0
O190 O 0.35815 0.079 0.66273 0.0
O191 O 0.35742 0.08341 0.62797 0.0
Zn192 Zn 0.61419 0.77993 0.42257 0.0
O193 O 0.69179 0.88896 0.42027 0.0
C194 C 0.71863 0.74347 0.40497 0.0
Zn195 Zn 0.61121 0.77481 0.38698 0.0
C196 C 0.712 0.91981 0.40229 0.0
O197 O 0.68854 0.88354 0.38528 0.0
C198 C 0.50737 0.63687 0.40704 0.0
O199 O 0.53249 0.80338 0.38669 0.0
O200 O 0.53592 0.81069 0.42157 0.0
N201 N 0.60675 0.76298 0.35457 0.0
C202 C 0.61227 0.80472 0.33778 0.0
C203 C 0.59509 0.70474 0.32561 0.0
N204 N 0.59603 0.701 0.34689 0.0
N205 N 0.6052 0.76924 0.31933 0.0
C206 C 0.6668 0.7925 0.46962 0.0
C207 C 0.56922 0.75225 0.48679 0.0
N208 N 0.61544 0.78213 0.45544 0.0
N209 N 0.55499 0.75774 0.46624 0.0
N210 N 0.63903 0.77321 0.48937 0.0
H211 H 0.75825 0.85781 0.4497 0.0
H212 H 0.77782 0.85951 0.47776 0.0
H213 H 0.75758 0.78197 0.46224 0.0
C214 C 0.74468 0.82524 0.46443 0.0
C215 C 0.62095 0.87824 0.33972 0.0
H216 H 0.59821 0.88366 0.35488 0.0
H217 H 0.67888 0.919 0.33959 0.0
H218 H 0.59444 0.88922 0.32629 0.0
O219 O 0.53258 0.66711 0.38934 0.0
O220 O 0.53374 0.67159 0.42408 0.0
C221 C 0.51186 0.8181 0.40386 0.0
O222 O 0.69399 0.7511 0.42245 0.0
O223 O 0.69142 0.74849 0.38766 0.0
Zn224 Zn 0.85438 0.64151 0.88586 0.0
O225 O 0.74598 0.5638 0.8871 0.0
C226 C 0.88924 0.53589 0.90394 0.0
Zn227 Zn 0.85927 0.64515 0.92149 0.0
C228 C 0.71452 0.54373 0.90495 0.0
O229 O 0.75011 0.56743 0.92205 0.0
C230 C -0.00273 0.74856 0.90209 0.0
O231 O 0.82924 0.72359 0.92107 0.0
O232 O 0.82522 0.72043 0.88611 0.0
N233 N 0.86381 0.64558 0.95428 0.0
C234 C 0.90679 0.69684 0.96827 0.0
C235 C 0.84884 0.59892 0.98558 0.0
N236 N 0.82746 0.58493 0.96517 0.0
N237 N 0.89908 0.66877 0.98797 0.0
C238 C 0.81188 0.63516 0.83738 0.0
C239 C 0.907 0.64853 0.82284 0.0
N240 N 0.8567 0.64016 0.85315 0.0
N241 N 0.91551 0.64823 0.84398 0.0
N242 N 0.84235 0.64025 0.81817 0.0
H243 H 0.73727 0.64878 0.8569 0.0
H244 H 0.73006 0.66 0.82865 0.0
H245 H 0.69804 0.57175 0.83978 0.0
C246 C 0.74042 0.62916 0.84093 0.0
C247 C 0.95319 0.77494 0.96293 0.0
H248 H 0.93273 0.78952 0.94874 0.0
H249 H 0.9557 0.80878 0.97656 0.0
H250 H 0.0082 0.78619 0.95968 0.0
O251 O -0.0322 0.72427 0.91995 0.0
O252 O 0.96196 0.72136 0.88522 0.0
C253 C 0.8155 0.74383 0.90357 0.0
O254 O 0.88107 0.5605 0.88647 0.0
O255 O 0.88551 0.56384 0.92126 0.0
Zn256 Zn 0.1521 0.85817 0.38573 0.0
O257 O 0.11866 0.74905 0.38654 0.0
C258 C 0.29138 0.89046 0.40157 0.0
Zn259 Zn 0.15384 0.86159 0.42129 0.0
C260 C 0.10768 0.71667 0.40425 0.0
O261 O 0.12057 0.75169 0.4215 0.0
C262 C 0.19173 0.00155 0.40233 0.0
O263 O 0.04603 0.83306 0.42286 0.0
O264 O 0.04525 0.83069 0.38797 0.0
N265 N 0.16311 0.86606 0.45393 0.0
C266 C 0.15617 0.90856 0.46837 0.0
C267 C 0.19697 0.84979 0.48475 0.0
N268 N 0.18804 0.82923 0.46423 0.0
N269 N 0.17763 0.89983 0.48771 0.0
C270 C 0.15698 0.8263 0.33699 0.0
C271 C 0.11805 0.89169 0.32376 0.0
N272 N 0.14346 0.85852 0.35329 0.0
N273 N 0.11931 0.89898 0.34495 0.0
N274 N 0.14136 0.84633 0.3182 0.0
H275 H 0.21923 0.7905 0.35464 0.0
H276 H 0.14428 0.72151 0.34046 0.0
H277 H 0.22362 0.78442 0.32607 0.0
C278 C 0.18836 0.77832 0.33967 0.0
C279 C 0.1258 0.95652 0.46394 0.0
H280 H 0.09352 0.94061 0.44919 0.0
H281 H 0.09188 0.95456 0.47744 0.0
H282 H 0.17033 0.01271 0.46251 0.0
O283 O 0.18543 0.97101 0.4201 0.0
O284 O 0.18303 0.96656 0.38538 0.0
C285 C 0.01233 0.82103 0.40542 0.0
O286 O 0.25857 0.88341 0.38419 0.0
O287 O 0.26039 0.88644 0.41907 0.0
Zn288 Zn 0.31373 0.18299 0.92258 0.0
O289 O 0.23614 0.07392 0.92075 0.0
C290 C 0.2079 0.21876 0.90591 0.0
Zn291 Zn 0.31509 0.18807 0.88703 0.0
C292 C 0.21496 0.04301 0.90284 0.0
O293 O 0.23743 0.07928 0.88577 0.0
C294 C 0.42039 0.32598 0.9066 0.0
O295 O 0.394 0.15903 0.88602 0.0
O296 O 0.39187 0.15244 0.92092 0.0
N297 N 0.31637 0.19991 0.85464 0.0
C298 C 0.30813 0.15758 0.83783 0.0
C299 C 0.32587 0.25804 0.82568 0.0
N300 N 0.3273 0.26215 0.84699 0.0
N301 N 0.31366 0.19291 0.81943 0.0
C302 C 0.26591 0.17137 0.96999 0.0
C303 C 0.36518 0.21172 0.98628 0.0
N304 N 0.31569 0.18112 0.95535 0.0
N305 N 0.37721 0.20554 0.96561 0.0
N306 N 0.29574 0.1911 0.98946 0.0
H307 H 0.17232 0.10689 0.95073 0.0
H308 H 0.15579 0.10449 0.97901 0.0
H309 H 0.17475 0.18263 0.96389 0.0
C310 C 0.18759 0.13908 0.96552 0.0
C311 C 0.29857 0.08364 0.83962 0.0
H312 H 0.3221 0.07773 0.85459 0.0
H313 H 0.24047 0.04346 0.83972 0.0
H314 H 0.32375 0.07228 0.82595 0.0
O315 O 0.39433 0.29583 0.88898 0.0
O316 O 0.39427 0.29136 0.9237 0.0
C317 C 0.41524 0.14459 0.90319 0.0
O318 O 0.23366 0.21141 0.92323 0.0
O319 O 0.23467 0.21438 0.88847 0.0
Zn320 Zn 0.0751 0.32055 0.38569 0.0
O321 O 0.18347 0.39767 0.38745 0.0
C322 C 0.03958 0.42436 0.4048 0.0
Zn323 Zn 0.07001 0.31476 0.42135 0.0
C324 C 0.21466 0.41684 0.40536 0.0
O325 O 0.17889 0.39238 0.42239 0.0
C326 C 0.93207 0.21299 0.40137 0.0
O327 O 0.10029 0.23647 0.41993 0.0
O328 O 0.10342 0.24147 0.38494 0.0
N329 N 0.06496 0.31052 0.4542 0.0
C330 C 0.02195 0.25792 0.46789 0.0
C331 C 0.08083 0.35384 0.48592 0.0
N332 N 0.10185 0.3699 0.46553 0.0
N333 N 0.03024 0.2839 0.48788 0.0
C334 C 0.11575 0.32826 0.33682 0.0
C335 C 0.02584 0.32951 0.32322 0.0
N336 N 0.07436 0.32759 0.35303 0.0
N337 N 0.01902 0.32898 0.34443 0.0
N338 N 0.08626 0.32943 0.31791 0.0
H339 H 0.1898 0.31245 0.35614 0.0
H340 H 0.1814 0.28271 0.3288 0.0
H341 H 0.22957 0.37691 0.33505 0.0
C342 C 0.1827 0.32433 0.33951 0.0
C343 C -0.02485 0.18052 0.46194 0.0
H344 H -0.00407 0.16727 0.4476 0.0
H345 H -0.02823 0.145 0.47526 0.0
H346 H 0.92048 0.17019 0.45859 0.0
O347 O 0.96172 0.23593 0.41929 0.0
O348 O -0.03269 0.24106 0.38452 0.0
C349 C 0.1134 0.21707 0.40222 0.0
O350 O 0.04854 0.40104 0.38727 0.0
O351 O 0.04342 0.39582 0.42204 0.0
Zn352 Zn 0.77267 0.09932 0.88673 0.0
O353 O 0.80587 0.20853 0.88717 0.0
C354 C 0.63378 0.06893 0.90194 0.0
Zn355 Zn 0.77113 0.09721 0.92238 0.0
C356 C 0.81801 0.24197 0.90469 0.0
O357 O 0.80606 0.2079 0.92217 0.0
C358 C 0.73262 0.95642 0.90393 0.0
O359 O 0.87866 0.12417 0.9244 0.0
O360 O 0.8796 0.12711 0.88949 0.0
N361 N 0.75963 0.09168 0.95514 0.0
C362 C 0.76727 0.05055 0.9701 0.0
C363 C 0.71158 0.09787 0.98444 0.0
N364 N 0.7259 0.12171 0.96427 0.0
N365 N 0.73632 0.05249 0.98865 0.0
C366 C 0.76734 0.12904 0.83775 0.0
C367 C 0.80773 0.06442 0.82505 0.0
N368 N 0.78215 0.09847 0.8543 0.0
N369 N 0.80724 0.05851 0.84629 0.0
N370 N 0.78295 0.10834 0.81911 0.0
H371 H 0.7053 0.16535 0.85519 0.0
H372 H 0.77815 0.23328 0.8401 0.0
H373 H 0.69805 0.16765 0.8266 0.0
C374 C 0.7348 0.17609 0.84003 0.0
C375 C 0.8033 0.00731 0.96629 0.0
H376 H 0.82124 0.01126 0.94969 0.0
H377 H 0.85203 0.02879 0.97629 0.0
H378 H 0.76692 0.95025 0.97077 0.0
O379 O 0.73773 -0.01256 0.92146 0.0
O380 O 0.7421 -0.00911 0.88677 0.0
C381 C 0.91245 0.13639 0.90696 0.0
O382 O 0.66623 0.07394 0.88466 0.0
O383 O 0.66484 0.07405 0.91953 0.0
C384 C 0.17724 0.00765 0.16933 0.0
C385 C 0.17818 0.97538 0.1501 0.0
H386 H 0.19276 0.10286 0.18466 0.0
C387 C 0.20735 0.01828 0.13194 0.0
H388 H 0.15634 0.97599 0.18368 0.0
C389 C 0.2298 0.09136 0.13261 0.0
C390 C 0.22189 0.12208 0.1513 0.0
H391 H 0.21098 -0.00491 0.11707 0.0
H392 H 0.24964 0.1228 0.11823 0.0
C393 C 0.19896 0.08055 0.16994 0.0
C394 C 0.09117 0.17372 0.6696 0.0
C395 C 0.12578 0.17479 0.65067 0.0
H396 H 0.01174 0.19079 0.68421 0.0
C397 C 0.11438 0.20505 0.63233 0.0
H398 H 0.10024 0.15213 0.68409 0.0
C399 C 0.06511 0.22891 0.63252 0.0
C400 C 0.02544 0.22149 0.6509 0.0
H401 H 0.14235 0.20893 0.61768 0.0
H402 H 0.05579 0.25008 0.61804 0.0
C403 C 0.04124 0.19683 0.66972 0.0
C404 C 0.85688 0.07031 0.1247 0.0
C405 C 0.81855 0.04591 0.14381 0.0
H406 H 0.95928 0.13488 0.11015 0.0
C407 C 0.85304 0.07686 0.16305 0.0
H408 H 0.83145 0.04821 0.10962 0.0
C409 C 0.92611 0.12571 0.16337 0.0
C410 C -0.03419 0.14493 0.14446 0.0
H411 H 0.82475 0.05975 0.17803 0.0
H412 H 0.95179 0.14636 0.17857 0.0
C413 C 0.93021 0.11928 0.12503 0.0
C414 C 0.69254 0.85473 0.63349 0.0
C415 C 0.70149 0.82367 0.65201 0.0
H416 H 0.71145 0.95146 0.61805 0.0
C417 C 0.72662 0.86526 0.67055 0.0
H418 H 0.67079 0.82322 0.61923 0.0
C419 C 0.74917 0.93841 0.66997 0.0
C420 C 0.74711 0.97087 0.65083 0.0
H421 H 0.73369 0.84269 0.68513 0.0
H422 H 0.77151 0.97006 0.68422 0.0
C423 C 0.71606 0.92807 0.63281 0.0
C424 C 0.86242 0.71849 0.12857 0.0
C425 C 0.89913 0.7243 0.14754 0.0
H426 H 0.78689 0.73924 0.11265 0.0
C427 C 0.88006 0.74676 0.16608 0.0
H428 H 0.87428 0.69882 0.11426 0.0
C429 C 0.82994 0.76932 0.16523 0.0
C430 C 0.79798 0.76971 0.14584 0.0
H431 H 0.90711 0.75147 0.181 0.0
H432 H 0.81844 0.78909 0.17964 0.0
C433 C 0.81267 0.7418 0.12765 0.0
C434 C -0.00946 0.82332 0.62901 0.0
C435 C 0.95442 0.79838 0.6484 0.0
H436 H 0.08893 0.89427 0.61355 0.0
C437 C -0.00653 0.81939 0.66744 0.0
H438 H -0.03794 0.80674 0.61404 0.0
C439 C 0.06661 0.86889 0.66715 0.0
C440 C 0.10157 0.89829 0.64782 0.0
H441 H -0.03278 0.7997 0.68261 0.0
H442 H 0.09459 0.88742 0.68214 0.0
C443 C 0.06357 0.8727 0.62871 0.0
C444 C 0.89442 0.76836 0.42388 0.0
C445 C 0.93481 0.79282 0.40516 0.0
H446 H 0.79152 0.72757 0.4382 0.0
C447 C 0.90016 0.7883 0.38587 0.0
H448 H 0.91946 0.76892 0.43886 0.0
C449 C 0.8274 0.76518 0.38556 0.0
C450 C 0.78806 0.74635 0.40454 0.0
H451 H 0.92967 0.80522 0.37108 0.0
H452 H 0.80328 0.76664 0.3706 0.0
C453 C 0.82127 0.74451 0.42352 0.0
C454 C 0.08174 0.8591 0.88233 0.0
C455 C 0.06448 0.8178 0.90101 0.0
H456 H 0.14223 0.96353 0.86839 0.0
C457 C 0.10366 0.84913 0.91958 0.0
H458 H 0.05276 0.83634 0.8677 0.0
C459 C 0.1537 0.92238 0.92009 0.0
C460 C 0.16631 0.96495 0.90189 0.0
H461 H 0.09319 0.8179 0.93397 0.0
H462 H 0.18109 0.94591 0.93488 0.0
C463 C 0.13233 0.93219 0.88277 0.0
C464 C 0.16884 0.15418 0.42046 0.0
C465 C 0.14344 0.16922 0.40174 0.0
H466 H 0.20975 0.09231 0.43499 0.0
C467 C 0.14824 0.13919 0.3825 0.0
H468 H 0.16824 0.17878 0.4354 0.0
C469 C 0.17173 0.08954 0.38233 0.0
C470 C 0.19067 0.06928 0.40141 0.0
H471 H 0.13082 0.15144 0.36772 0.0
H472 H 0.17002 0.06338 0.36748 0.0
C473 C 0.19306 0.10511 0.42023 0.0
C474 C 0.09797 0.196 0.88685 0.0
C475 C 0.13761 0.21423 0.90578 0.0
H476 H -0.00461 0.15537 0.8725 0.0
C477 C 0.10407 0.21372 0.92491 0.0
H478 H 0.12222 0.19623 0.87178 0.0
C479 C 0.03062 0.18858 0.92541 0.0
C480 C -0.00987 0.16505 0.90668 0.0
H481 H 0.13386 0.22993 0.93959 0.0
H482 H 0.00548 0.18646 0.94048 0.0
C483 C 0.02492 0.17153 0.8873 0.0
C484 C 0.84685 0.10309 0.38158 0.0
C485 C 0.8643 0.14438 0.40021 0.0
H486 H 0.78536 -0.00126 0.36774 0.0
C487 C 0.82459 0.11347 0.41873 0.0
H488 H 0.8763 0.12559 0.36699 0.0
C489 C 0.77383 0.04046 0.4193 0.0
C490 C 0.761 -0.00224 0.40118 0.0
H491 H 0.83526 0.14478 0.43308 0.0
H492 H 0.74611 0.01717 0.43407 0.0
C493 C 0.79544 0.03022 0.38206 0.0
C494 C 0.77165 0.81563 0.8843 0.0
C495 C 0.78468 0.79114 0.90355 0.0
H496 H 0.74176 0.88582 0.86928 0.0
C497 C 0.76652 0.81103 0.92275 0.0
H498 H 0.78329 0.79957 0.86922 0.0
C499 C 0.74127 0.8593 0.92277 0.0
C500 C 0.73487 0.8892 0.90362 0.0
H501 H 0.77393 0.79117 0.93781 0.0
H502 H 0.73131 0.87663 0.93785 0.0
C503 C 0.7468 0.86421 0.88433 0.0
C504 C 0.06728 0.51156 0.16387 0.0
C505 C 0.06969 0.54588 0.14463 0.0
H506 H 0.08844 0.43638 0.1798 0.0
C507 C 0.08664 0.52275 0.12581 0.0
H508 H 0.05377 0.52782 0.17861 0.0
C509 C 0.10727 0.47081 0.12655 0.0
C510 C 0.11098 0.4412 0.14608 0.0
H511 H 0.08873 0.5481 0.11073 0.0
H512 H 0.12329 0.45629 0.11194 0.0
C513 C 0.08798 0.45978 0.16459 0.0
C514 C 0.56102 0.10336 0.6639 0.0
C515 C 0.60021 0.12224 0.64489 0.0
H516 H 0.46061 0.07098 0.67876 0.0
C517 C 0.56456 0.11427 0.62556 0.0
H518 H 0.58673 0.10731 0.67902 0.0
C519 C 0.49192 0.09283 0.62539 0.0
C520 C 0.454 0.07908 0.64456 0.0
H521 H 0.59327 0.12723 0.61063 0.0
H522 H 0.46668 0.09109 0.61035 0.0
C523 C 0.4885 0.08168 0.66373 0.0
C524 C 0.46746 0.58411 0.17007 0.0
C525 C 0.49759 0.61633 0.15046 0.0
H526 H 0.3889 0.48954 0.18614 0.0
C527 C 0.47765 0.57389 0.13208 0.0
H528 H 0.48271 0.61532 0.18456 0.0
C529 C 0.42478 0.50166 0.13304 0.0
C530 C 0.39051 0.47082 0.15236 0.0
H531 H 0.50111 0.59693 0.11682 0.0
H532 H 0.40799 0.47122 0.1184 0.0
C533 C 0.41425 0.51185 0.17102 0.0
C534 C 0.81257 0.47237 0.62553 0.0
C535 C 0.80694 0.50106 0.64495 0.0
H536 H 0.8343 0.39683 0.61007 0.0
C537 C 0.82959 0.48283 0.66367 0.0
H538 H 0.7968 0.48666 0.61079 0.0
C539 C 0.85219 0.43252 0.66322 0.0
C540 C 0.85191 0.39906 0.64407 0.0
H541 H 0.82768 0.50558 0.67881 0.0
H542 H 0.86557 0.41664 0.67809 0.0
C543 C 0.83495 0.42167 0.62508 0.0
C544 C 0.43544 0.86026 0.12857 0.0
C545 C 0.47021 0.86589 0.14794 0.0
H546 H 0.33683 0.83222 0.11303 0.0
C547 C 0.43269 0.85522 0.16703 0.0
H548 H 0.46313 0.86854 0.11359 0.0
C549 C 0.36013 0.83361 0.16669 0.0
C550 C 0.32413 0.82268 0.14725 0.0
H551 H 0.4581 0.85931 0.18222 0.0
H552 H 0.33185 0.8232 0.18164 0.0
C553 C 0.36291 0.83869 0.12823 0.0
C554 C 0.49978 0.43673 0.66663 0.0
C555 C 0.52805 0.47351 0.64743 0.0
H556 H 0.42956 0.33627 0.68157 0.0
C557 C 0.49934 0.43795 0.62814 0.0
H558 H 0.52054 0.46286 0.68176 0.0
C559 C 0.44763 0.36517 0.62805 0.0
C560 C 0.42377 0.327 0.64723 0.0
H561 H 0.51986 0.46502 0.61309 0.0
H562 H 0.42855 0.33831 0.61292 0.0
C563 C 0.4482 0.36398 0.66652 0.0
C564 C 0.38844 0.88483 0.42121 0.0
C565 C 0.35805 0.88775 0.40175 0.0
H566 H 0.4603 0.85926 0.43717 0.0
C567 C 0.38395 0.87473 0.38284 0.0
H568 H 0.36978 0.89493 0.43605 0.0
C569 C 0.43533 0.85364 0.38351 0.0
C570 C 0.46168 0.84542 0.4031 0.0
H571 H 0.36168 0.87672 0.3676 0.0
H572 H 0.45247 0.84141 0.36872 0.0
C573 C 0.43972 0.86363 0.42188 0.0
C574 C 0.60213 0.46732 0.92528 0.0
C575 C 0.63669 0.49488 0.90579 0.0
H576 H 0.50488 0.39304 0.94094 0.0
C577 C 0.59615 0.47547 0.88703 0.0
H578 H 0.63186 0.48251 0.94005 0.0
C579 C 0.52331 0.42521 0.88757 0.0
C580 C 0.48991 0.39304 0.90686 0.0
H581 H 0.62102 0.49724 0.87182 0.0
H582 H 0.4943 0.4084 0.87269 0.0
C583 C 0.52921 0.41676 0.92582 0.0
C584 C 0.07147 0.60293 0.42409 0.0
C585 C 0.07971 0.63875 0.40472 0.0
H586 H 0.04997 0.50521 0.43937 0.0
C587 C 0.0622 0.59965 0.3857 0.0
H588 H 0.08329 0.63153 0.43903 0.0
C589 C 0.0423 0.52722 0.38591 0.0
C590 C 0.03999 0.49289 0.40513 0.0
H591 H 0.06644 0.62551 0.37056 0.0
H592 H 0.03298 0.49944 0.37089 0.0
C593 C 0.05161 0.5304 0.4243 0.0
C594 C 0.54307 0.08706 0.8827 0.0
C595 C 0.56767 0.07283 0.90175 0.0
H596 H 0.47602 0.12206 0.86825 0.0
C597 C 0.53662 0.07558 0.92104 0.0
H598 H 0.56594 0.0853 0.86758 0.0
C599 C 0.48594 0.09757 0.92145 0.0
C600 C 0.46514 0.11682 0.90256 0.0
H601 H 0.55424 0.06458 0.93598 0.0
H602 H 0.46479 0.10158 0.93664 0.0
C603 C 0.49222 0.10897 0.88311 0.0
C604 C 0.3332 0.48497 0.38762 0.0
C605 C 0.29237 0.46586 0.4063 0.0
H606 H 0.43501 0.55258 0.37335 0.0
C607 C 0.32641 0.49425 0.4258 0.0
H608 H 0.30869 0.46243 0.37243 0.0
C609 C 0.39909 0.54557 0.42636 0.0
C610 C 0.43854 0.56915 0.40742 0.0
H611 H 0.2964 0.47926 0.44051 0.0
H612 H 0.42299 0.57005 0.44144 0.0
C613 C 0.40578 0.53596 0.38819 0.0
C614 C 0.88077 0.43026 0.88513 0.0
C615 C 0.88747 0.46656 0.90425 0.0
H616 H 0.8527 0.3303 0.87028 0.0
C617 C 0.87909 0.43048 0.9236 0.0
H618 H 0.88728 0.45674 0.86996 0.0
C619 C 0.85848 0.35772 0.92378 0.0
C620 C 0.84627 0.32009 0.90463 0.0
H621 H 0.88413 0.45712 0.93861 0.0
H622 H 0.84947 0.33046 0.93892 0.0
C623 C 0.86022 0.35759 0.88531 0.0
C624 C 0.17484 0.36137 0.28868 0.0
C625 C 0.10469 0.32014 0.29662 0.0
H626 H 0.24503 0.3829 0.2619 0.0
C627 C 0.05062 0.27072 0.2831 0.0
H628 H 0.21714 0.40107 0.29858 0.0
C629 C 0.06635 0.26106 0.26233 0.0
C630 C 0.13625 0.30146 0.2544 0.0
H631 H -0.00385 0.23848 0.28878 0.0
H632 H 0.02401 0.22127 0.25241 0.0
C633 C 0.19051 0.35205 0.26766 0.0
C634 C 0.77218 0.09808 0.75971 0.0
C635 C 0.78993 0.16846 0.7541 0.0
H636 H 0.75417 0.02362 0.78485 0.0
C637 C 0.80012 0.21746 0.7704 0.0
H638 H 0.76704 0.05971 0.74779 0.0
C639 C 0.79508 0.19743 0.79177 0.0
C640 C 0.77857 0.1274 0.79737 0.0
H641 H 0.81502 0.27246 0.7666 0.0
H642 H 0.80811 0.23811 0.80373 0.0
C643 C 0.76602 0.07773 0.78105 0.0
C644 C 0.5841 0.75784 0.26016 0.0
C645 C 0.63538 0.82775 0.25377 0.0
H646 H 0.5332 0.68535 0.28614 0.0
C647 C 0.67289 0.87977 0.26952 0.0
H648 H 0.55637 0.71552 0.24866 0.0
C649 C 0.66113 0.8619 0.29108 0.0
C650 C 0.61073 0.79166 0.29745 0.0
H651 H 0.71354 0.93385 0.26509 0.0
H652 H 0.69441 0.90214 0.30258 0.0
C653 C 0.57162 0.74025 0.28172 0.0
C654 C 0.72272 0.58847 0.77024 0.0
C655 C 0.7699 0.63563 0.75471 0.0
H656 H 0.70892 0.55175 0.80248 0.0
C657 C 0.84057 0.68537 0.76064 0.0
H658 H 0.66788 0.54967 0.76612 0.0
C659 C 0.86375 0.687 0.7815 0.0
C660 C 0.81655 0.63988 0.79701 0.0
H661 H 0.87749 0.72418 0.74934 0.0
H662 H 0.91855 0.72583 0.78564 0.0
C663 C 0.74586 0.59024 0.79112 0.0
C664 C 0.14917 0.85175 0.25878 0.0
C665 C 0.1292 0.78042 0.25372 0.0
H666 H 0.17065 0.92875 0.28331 0.0
C667 C 0.11821 0.73216 0.2704 0.0
H668 H 0.15493 0.88965 0.24655 0.0
C669 C 0.12503 0.75403 0.2916 0.0
C670 C 0.14398 0.82512 0.29664 0.0
H671 H 0.1016 0.6765 0.26701 0.0
H672 H 0.11157 0.71413 0.3039 0.0
C673 C 0.15704 0.87387 0.27994 0.0
C674 C 0.35236 0.21935 0.78208 0.0
C675 C 0.30792 0.17016 0.79766 0.0
H676 H 0.38182 0.23747 0.74921 0.0
C677 C 0.25529 0.10081 0.79136 0.0
H678 H 0.39322 0.27327 0.78652 0.0
C679 C 0.24832 0.08068 0.77002 0.0
C680 C 0.29291 0.12978 0.75446 0.0
H681 H 0.21852 0.06261 0.80282 0.0
H682 H 0.20751 0.02675 0.76557 0.0
C683 C 0.34526 0.19927 0.76071 0.0
C684 C 0.2823 0.18682 0.02838 0.0
C685 C 0.26734 0.20514 1.00838 0.0
H686 H 0.27825 0.19663 0.0621 0.0
C687 C 0.23241 0.24556 1.00732 0.0
H688 H 0.31069 0.15725 0.02957 0.0
C689 C 0.21372 0.26795 0.02588 0.0
C690 C 0.22909 0.25005 0.04588 0.0
H691 H 0.22306 0.26325 0.99218 0.0
H692 H 0.18889 0.30093 1.02467 0.0
C693 C 0.26311 0.20877 0.04695 0.0
C694 C 0.02 0.26757 0.52676 0.0
C695 C -0.01248 0.25161 0.50664 0.0
H696 H 0.0051 0.26288 0.56042 0.0
C697 C 0.91228 0.2121 0.50545 0.0
H698 H 0.07777 0.29918 0.52813 0.0
C699 C 0.8706 0.19077 0.52394 0.0
C700 C 0.90305 0.20813 0.54406 0.0
H701 H 0.88541 0.20147 0.49028 0.0
H702 H 0.81278 0.16301 0.52256 0.0
C703 C -0.02168 0.24598 0.54526 0.0
C704 C 0.73866 0.9357 0.03356 0.0
C705 C 0.67145 0.91242 0.04306 0.0
H706 H 0.81407 0.00125 1.00975 0.0
C707 C 0.62671 0.93565 0.03409 0.0
H708 H 0.77391 0.9175 0.03942 0.0
C709 C 0.64849 -0.01878 1.01644 0.0
C710 C 0.71586 0.00534 1.00702 0.0
H711 H 0.57469 0.9192 0.04092 0.0
H712 H 0.61201 -0.00268 1.01002 0.0
C713 C 0.76104 -0.01753 1.01597 0.0
C714 C 0.67389 0.75455 0.54672 0.0
C715 C 0.70986 0.71519 0.54539 0.0
H716 H 0.62358 0.80436 0.52971 0.0
C717 C 0.72664 0.69997 0.52525 0.0
H718 H 0.65749 0.76456 0.56194 0.0
C719 C 0.70685 0.7224 0.50683 0.0
C720 C 0.66949 0.76037 0.50814 0.0
H721 H 0.7529 0.66842 0.52378 0.0
H722 H 0.71696 0.70611 0.49161 0.0
C723 C 0.65375 0.77667 0.52829 0.0
C724 C 0.01776 0.73756 1.00527 0.0
C725 C 0.94253 0.69937 1.00667 0.0
H726 H 0.11775 0.78451 1.02216 0.0
C727 C 0.9106 0.68323 0.02684 0.0
H728 H 0.04401 0.74817 0.99001 0.0
C729 C 0.95284 0.70371 0.04522 0.0
C730 C 0.02806 0.74048 0.04382 0.0
H731 H 0.85282 0.65252 0.02833 0.0
H732 H 0.92651 0.6869 0.06045 0.0
C733 C 0.06001 0.75767 1.02365 0.0
C734 C 0.23525 0.01712 0.50598 0.0
C735 C 0.18987 0.94209 0.50655 0.0
H736 H 0.28766 0.11536 0.52384 0.0
C737 C 0.15962 0.90852 0.52592 0.0
H738 H 0.25994 0.0439 0.49121 0.0
C739 C 0.17458 0.9493 0.54448 0.0
C740 C 0.22234 0.02418 0.54417 0.0
H741 H 0.12401 0.85079 0.52659 0.0
H742 H 0.1482 0.92211 0.55899 0.0
C743 C 0.25132 0.05779 0.52461 0.0
loop_
_geom_bond_atom_site_label_1
_geom_bond_atom_site_label_2
_geom_bond_distance
_geom_bond_site_symmetry_2
_ccdc_geom_bond_type
Zn0 O1 2.055 . S
Zn0 O8 2.046 . S
Zn0 N16 2.036 . S
Zn0 O28 2.053 . S
Zn0 O30 2.066 . S
O1 Zn0 2.055 . S
O1 C4 1.259 . S
C2 O30 1.256 . S
C2 O31 1.244 . S
Zn3 O5 2.046 . S
Zn3 O7 2.055 . S
Zn3 N9 2.036 . S
Zn3 O27 2.066 . S
Zn3 O31 2.053 . S
C4 O1 1.259 . S
C4 O5 1.254 . S
O5 Zn3 2.046 . S
O5 C4 1.254 . S
C6 O27 1.256 . S
C6 O28 1.244 . S
O7 Zn3 2.055 . S
O7 C29 1.259 . S
O8 Zn0 2.046 . S
O8 C29 1.254 . S
N9 Zn3 2.036 . S
N9 C10 1.298 . S
N9 N12 1.398 . S
C10 N9 1.298 . S
C10 N13 1.367 . S
C10 C23 1.481 . S
C11 N12 1.299 . S
C11 N13 1.379 . S
N12 N9 1.398 . S
N12 C11 1.299 . S
N13 C10 1.367 . S
N13 C11 1.379 . S
C14 N16 1.298 . S
C14 N18 1.367 . S
C14 C22 1.481 . S
C15 N17 1.299 . S
C15 N18 1.379 . S
N16 Zn0 2.036 . S
N16 C14 1.298 . S
N16 N17 1.398 . S
N17 C15 1.299 . S
N17 N16 1.398 . S
N18 C14 1.367 . S
N18 C15 1.379 . S
H19 C22 0.980 . S
H20 C22 0.981 . S
H21 C22 0.981 . S
C22 C14 1.481 . S
C22 H19 0.980 . S
C22 H20 0.981 . S
C22 H21 0.981 . S
C23 C10 1.481 . S
C23 H24 0.980 . S
C23 H25 0.981 . S
C23 H26 0.981 . S
H24 C23 0.980 . S
H25 C23 0.981 . S
H26 C23 0.981 . S
O27 Zn3 2.066 . S
O27 C6 1.256 . S
O28 Zn0 2.053 . S
O28 C6 1.244 . S
C29 O7 1.259 . S
C29 O8 1.254 . S
O30 Zn0 2.066 . S
O30 C2 1.256 . S
O31 C2 1.244 . S
O31 Zn3 2.053 . S
Zn32 O33 2.055 . S
Zn32 O40 2.046 . S
Zn32 N48 2.036 . S
Zn32 O60 2.053 . S
Zn32 O62 2.066 . S
O33 Zn32 2.055 . S
O33 C36 1.259 . S
C34 O62 1.256 . S
C34 O63 1.244 . S
Zn35 O37 2.046 . S
Zn35 O39 2.055 . S
Zn35 N41 2.036 . S
Zn35 O59 2.066 . S
Zn35 O63 2.053 . S
C36 O33 1.259 . S
C36 O37 1.254 . S
O37 Zn35 2.046 . S
O37 C36 1.254 . S
C38 O59 1.256 . S
C38 O60 1.244 . S
O39 Zn35 2.055 . S
O39 C61 1.259 . S
O40 Zn32 2.046 . S
O40 C61 1.254 . S
N41 Zn35 2.036 . S
N41 C42 1.298 . S
N41 N44 1.398 . S
C42 N41 1.298 . S
C42 N45 1.367 . S
C42 C55 1.481 . S
C43 N44 1.299 . S
C43 N45 1.379 . S
N44 N41 1.398 . S
N44 C43 1.299 . S
N45 C42 1.367 . S
N45 C43 1.379 . S
C46 N48 1.298 . S
C46 N50 1.367 . S
C46 C54 1.481 . S
C47 N49 1.299 . S
C47 N50 1.379 . S
N48 Zn32 2.036 . S
N48 C46 1.298 . S
N48 N49 1.398 . S
N49 C47 1.299 . S
N49 N48 1.398 . S
N50 C46 1.367 . S
N50 C47 1.379 . S
H51 C54 0.980 . S
H52 C54 0.981 . S
H53 C54 0.981 . S
C54 C46 1.481 . S
C54 H51 0.980 . S
C54 H52 0.981 . S
C54 H53 0.981 . S
C55 C42 1.481 . S
C55 H56 0.980 . S
C55 H57 0.981 . S
C55 H58 0.981 . S
H56 C55 0.980 . S
H57 C55 0.981 . S
H58 C55 0.981 . S
O59 Zn35 2.066 . S
O59 C38 1.256 . S
O60 Zn32 2.053 . S
O60 C38 1.244 . S
C61 O39 1.259 . S
C61 O40 1.254 . S
O62 Zn32 2.066 . S
O62 C34 1.256 . S
O63 C34 1.244 . S
O63 Zn35 2.053 . S
Zn64 O65 2.055 . S
Zn64 O72 2.046 . S
Zn64 N80 2.036 . S
Zn64 O92 2.053 . S
Zn64 O94 2.066 . S
O65 Zn64 2.055 . S
O65 C68 1.259 . S
C66 O94 1.256 . S
C66 O95 1.244 . S
Zn67 O69 2.046 . S
Zn67 O71 2.055 . S
Zn67 N73 2.036 . S
Zn67 O91 2.066 . S
Zn67 O95 2.053 . S
C68 O65 1.259 . S
C68 O69 1.254 . S
O69 Zn67 2.046 . S
O69 C68 1.254 . S
C70 O91 1.256 . S
C70 O92 1.244 . S
O71 Zn67 2.055 . S
O71 C93 1.259 . S
O72 Zn64 2.046 . S
O72 C93 1.254 . S
N73 Zn67 2.036 . S
N73 C74 1.298 . S
N73 N76 1.398 . S
C74 N73 1.298 . S
C74 N77 1.367 . S
C74 C87 1.481 . S
C75 N76 1.299 . S
C75 N77 1.379 . S
N76 N73 1.398 . S
N76 C75 1.299 . S
N77 C74 1.367 . S
N77 C75 1.379 . S
C78 N80 1.298 . S
C78 N82 1.367 . S
C78 C86 1.481 . S
C79 N81 1.299 . S
C79 N82 1.379 . S
N80 Zn64 2.036 . S
N80 C78 1.298 . S
N80 N81 1.398 . S
N81 C79 1.299 . S
N81 N80 1.398 . S
N82 C78 1.367 . S
N82 C79 1.379 . S
H83 C86 0.980 . S
H84 C86 0.981 . S
H85 C86 0.981 . S
C86 C78 1.481 . S
C86 H83 0.980 . S
C86 H84 0.981 . S
C86 H85 0.981 . S
C87 C74 1.481 . S
C87 H88 0.980 . S
C87 H89 0.981 . S
C87 H90 0.981 . S
H88 C87 0.980 . S
H89 C87 0.981 . S
H90 C87 0.981 . S
O91 Zn67 2.066 . S
O91 C70 1.256 . S
O92 Zn64 2.053 . S
O92 C70 1.244 . S
C93 O71 1.259 . S
C93 O72 1.254 . S
O94 Zn64 2.066 . S
O94 C66 1.256 . S
O95 C66 1.244 . S
O95 Zn67 2.053 . S
Zn96 O97 2.055 . S
Zn96 O104 2.046 . S
Zn96 N112 2.036 . S
Zn96 O124 2.053 . S
Zn96 O126 2.066 . S
O97 Zn96 2.055 . S
O97 C100 1.259 . S
C98 O126 1.256 . S
C98 O127 1.244 . S
Zn99 O101 2.046 . S
Zn99 O103 2.055 . S
Zn99 N105 2.036 . S
Zn99 O123 2.066 . S
Zn99 O127 2.053 . S
C100 O97 1.259 . S
C100 O101 1.254 . S
O101 Zn99 2.046 . S
O101 C100 1.254 . S
C102 O123 1.256 . S
C102 O124 1.244 . S
O103 Zn99 2.055 . S
O103 C125 1.259 . S
O104 Zn96 2.046 . S
O104 C125 1.254 . S
N105 Zn99 2.036 . S
N105 C106 1.298 . S
N105 N108 1.398 . S
C106 N105 1.298 . S
C106 N109 1.367 . S
C106 C119 1.481 . S
C107 N108 1.299 . S
C107 N109 1.379 . S
N108 N105 1.398 . S
N108 C107 1.299 . S
N109 C106 1.367 . S
N109 C107 1.379 . S
C110 N112 1.298 . S
C110 N114 1.367 . S
C110 C118 1.481 . S
C111 N113 1.299 . S
C111 N114 1.379 . S
N112 Zn96 2.036 . S
N112 C110 1.298 . S
N112 N113 1.398 . S
N113 C111 1.299 . S
N113 N112 1.398 . S
N114 C110 1.367 . S
N114 C111 1.379 . S
H115 C118 0.980 . S
H116 C118 0.981 . S
H117 C118 0.981 . S
C118 C110 1.481 . S
C118 H115 0.980 . S
C118 H116 0.981 . S
C118 H117 0.981 . S
C119 C106 1.481 . S
C119 H120 0.980 . S
C119 H121 0.981 . S
C119 H122 0.981 . S
H120 C119 0.980 . S
H121 C119 0.981 . S
H122 C119 0.981 . S
O123 Zn99 2.066 . S
O123 C102 1.256 . S
O124 Zn96 2.053 . S
O124 C102 1.244 . S
C125 O103 1.259 . S
C125 O104 1.254 . S
O126 Zn96 2.066 . S
O126 C98 1.256 . S
O127 C98 1.244 . S
O127 Zn99 2.053 . S
Zn128 O129 2.055 . S
Zn128 O136 2.046 . S
Zn128 N144 2.036 . S
Zn128 O156 2.053 . S
Zn128 O158 2.066 . S
O129 Zn128 2.055 . S
O129 C132 1.259 . S
C130 O158 1.256 . S
C130 O159 1.244 . S
Zn131 O133 2.046 . S
Zn131 O135 2.055 . S
Zn131 N137 2.036 . S
Zn131 O155 2.066 . S
Zn131 O159 2.053 . S
C132 O129 1.259 . S
C132 O133 1.254 . S
O133 Zn131 2.046 . S
O133 C132 1.254 . S
C134 O155 1.256 . S
C134 O156 1.244 . S
O135 Zn131 2.055 . S
O135 C157 1.259 . S
O136 Zn128 2.046 . S
O136 C157 1.254 . S
N137 Zn131 2.036 . S
N137 C138 1.298 . S
N137 N140 1.398 . S
C138 N137 1.298 . S
C138 N141 1.367 . S
C138 C151 1.481 . S
C139 N140 1.299 . S
C139 N141 1.379 . S
N140 N137 1.398 . S
N140 C139 1.299 . S
N141 C138 1.367 . S
N141 C139 1.379 . S
C142 N144 1.298 . S
C142 N146 1.367 . S
C142 C150 1.481 . S
C143 N145 1.299 . S
C143 N146 1.379 . S
N144 Zn128 2.036 . S
N144 C142 1.298 . S
N144 N145 1.398 . S
N145 C143 1.299 . S
N145 N144 1.398 . S
N146 C142 1.367 . S
N146 C143 1.379 . S
H147 C150 0.980 . S
H148 C150 0.981 . S
H149 C150 0.981 . S
C150 C142 1.481 . S
C150 H147 0.980 . S
C150 H148 0.981 . S
C150 H149 0.981 . S
C151 C138 1.481 . S
C151 H152 0.980 . S
C151 H153 0.981 . S
C151 H154 0.981 . S
H152 C151 0.980 . S
H153 C151 0.981 . S
H154 C151 0.981 . S
O155 Zn131 2.066 . S
O155 C134 1.256 . S
O156 Zn128 2.053 . S
O156 C134 1.244 . S
C157 O135 1.259 . S
C157 O136 1.254 . S
O158 Zn128 2.066 . S
O158 C130 1.256 . S
O159 C130 1.244 . S
O159 Zn131 2.053 . S
Zn160 O161 2.055 . S
Zn160 O168 2.046 . S
Zn160 N176 2.036 . S
Zn160 O188 2.053 . S
Zn160 O190 2.066 . S
O161 Zn160 2.055 . S
O161 C164 1.259 . S
C162 O190 1.256 . S
C162 O191 1.244 . S
Zn163 O165 2.046 . S
Zn163 O167 2.055 . S
Zn163 N169 2.036 . S
Zn163 O187 2.066 . S
Zn163 O191 2.053 . S
C164 O161 1.259 . S
C164 O165 1.254 . S
O165 Zn163 2.046 . S
O165 C164 1.254 . S
C166 O187 1.256 . S
C166 O188 1.244 . S
O167 Zn163 2.055 . S
O167 C189 1.259 . S
O168 Zn160 2.046 . S
O168 C189 1.254 . S
N169 Zn163 2.036 . S
N169 C170 1.298 . S
N169 N172 1.398 . S
C170 N169 1.298 . S
C170 N173 1.367 . S
C170 C183 1.481 . S
C171 N172 1.299 . S
C171 N173 1.379 . S
N172 N169 1.398 . S
N172 C171 1.299 . S
N173 C170 1.367 . S
N173 C171 1.379 . S
C174 N176 1.298 . S
C174 N178 1.367 . S
C174 C182 1.481 . S
C175 N177 1.299 . S
C175 N178 1.379 . S
N176 Zn160 2.036 . S
N176 C174 1.298 . S
N176 N177 1.398 . S
N177 C175 1.299 . S
N177 N176 1.398 . S
N178 C174 1.367 . S
N178 C175 1.379 . S
H179 C182 0.980 . S
H180 C182 0.981 . S
H181 C182 0.981 . S
C182 C174 1.481 . S
C182 H179 0.980 . S
C182 H180 0.981 . S
C182 H181 0.981 . S
C183 C170 1.481 . S
C183 H184 0.980 . S
C183 H185 0.981 . S
C183 H186 0.981 . S
H184 C183 0.980 . S
H185 C183 0.981 . S
H186 C183 0.981 . S
O187 Zn163 2.066 . S
O187 C166 1.256 . S
O188 Zn160 2.053 . S
O188 C166 1.244 . S
C189 O167 1.259 . S
C189 O168 1.254 . S
O190 Zn160 2.066 . S
O190 C162 1.256 . S
O191 C162 1.244 . S
O191 Zn163 2.053 . S
Zn192 O193 2.055 . S
Zn192 O200 2.046 . S
Zn192 N208 2.036 . S
Zn192 O220 2.053 . S
Zn192 O222 2.066 . S
O193 Zn192 2.055 . S
O193 C196 1.259 . S
C194 O222 1.256 . S
C194 O223 1.244 . S
Zn195 O197 2.046 . S
Zn195 O199 2.055 . S
Zn195 N201 2.036 . S
Zn195 O219 2.066 . S
Zn195 O223 2.053 . S
C196 O193 1.259 . S
C196 O197 1.254 . S
O197 Zn195 2.046 . S
O197 C196 1.254 . S
C198 O219 1.256 . S
C198 O220 1.244 . S
O199 Zn195 2.055 . S
O199 C221 1.259 . S
O200 Zn192 2.046 . S
O200 C221 1.254 . S
N201 Zn195 2.036 . S
N201 C202 1.298 . S
N201 N204 1.398 . S
C202 N201 1.298 . S
C202 N205 1.367 . S
C202 C215 1.481 . S
C203 N204 1.299 . S
C203 N205 1.379 . S
N204 N201 1.398 . S
N204 C203 1.299 . S
N205 C202 1.367 . S
N205 C203 1.379 . S
C206 N208 1.298 . S
C206 N210 1.367 . S
C206 C214 1.481 . S
C207 N209 1.299 . S
C207 N210 1.379 . S
N208 Zn192 2.036 . S
N208 C206 1.298 . S
N208 N209 1.398 . S
N209 C207 1.299 . S
N209 N208 1.398 . S
N210 C206 1.367 . S
N210 C207 1.379 . S
H211 C214 0.980 . S
H212 C214 0.981 . S
H213 C214 0.981 . S
C214 C206 1.481 . S
C214 H211 0.980 . S
C214 H212 0.981 . S
C214 H213 0.981 . S
C215 C202 1.481 . S
C215 H216 0.980 . S
C215 H217 0.981 . S
C215 H218 0.981 . S
H216 C215 0.980 . S
H217 C215 0.981 . S
H218 C215 0.981 . S
O219 Zn195 2.066 . S
O219 C198 1.256 . S
O220 Zn192 2.053 . S
O220 C198 1.244 . S
C221 O199 1.259 . S
C221 O200 1.254 . S
O222 Zn192 2.066 . S
O222 C194 1.256 . S
O223 C194 1.244 . S
O223 Zn195 2.053 . S
Zn224 O225 2.055 . S
Zn224 O232 2.046 . S
Zn224 N240 2.036 . S
Zn224 O252 2.053 . S
Zn224 O254 2.066 . S
O225 Zn224 2.055 . S
O225 C228 1.259 . S
C226 O254 1.256 . S
C226 O255 1.244 . S
Zn227 O229 2.046 . S
Zn227 O231 2.055 . S
Zn227 N233 2.036 . S
Zn227 O251 2.066 . S
Zn227 O255 2.053 . S
C228 O225 1.259 . S
C228 O229 1.254 . S
O229 Zn227 2.046 . S
O229 C228 1.254 . S
C230 O251 1.256 . S
C230 O252 1.244 . S
O231 Zn227 2.055 . S
O231 C253 1.259 . S
O232 Zn224 2.046 . S
O232 C253 1.254 . S
N233 Zn227 2.036 . S
N233 C234 1.298 . S
N233 N236 1.398 . S
C234 N233 1.298 . S
C234 N237 1.367 . S
C234 C247 1.481 . S
C235 N236 1.299 . S
C235 N237 1.379 . S
N236 N233 1.398 . S
N236 C235 1.299 . S
N237 C234 1.367 . S
N237 C235 1.379 . S
C238 N240 1.298 . S
C238 N242 1.367 . S
C238 C246 1.481 . S
C239 N241 1.299 . S
C239 N242 1.379 . S
N240 Zn224 2.036 . S
N240 C238 1.298 . S
N240 N241 1.398 . S
N241 C239 1.299 . S
N241 N240 1.398 . S
N242 C238 1.367 . S
N242 C239 1.379 . S
H243 C246 0.980 . S
H244 C246 0.981 . S
H245 C246 0.981 . S
C246 C238 1.481 . S
C246 H243 0.980 . S
C246 H244 0.981 . S
C246 H245 0.981 . S
C247 C234 1.481 . S
C247 H248 0.980 . S
C247 H249 0.981 . S
C247 H250 0.981 . S
H248 C247 0.980 . S
H249 C247 0.981 . S
H250 C247 0.981 . S
O251 Zn227 2.066 . S
O251 C230 1.256 . S
O252 Zn224 2.053 . S
O252 C230 1.244 . S
C253 O231 1.259 . S
C253 O232 1.254 . S
O254 Zn224 2.066 . S
O254 C226 1.256 . S
O255 C226 1.244 . S
O255 Zn227 2.053 . S
Zn256 O257 2.055 . S
Zn256 O264 2.046 . S
Zn256 N272 2.036 . S
Zn256 O284 2.053 . S
Zn256 O286 2.066 . S
O257 Zn256 2.055 . S
O257 C260 1.259 . S
C258 O286 1.256 . S
C258 O287 1.244 . S
Zn259 O261 2.046 . S
Zn259 O263 2.055 . S
Zn259 N265 2.036 . S
Zn259 O283 2.066 . S
Zn259 O287 2.053 . S
C260 O257 1.259 . S
C260 O261 1.254 . S
O261 Zn259 2.046 . S
O261 C260 1.254 . S
C262 O283 1.256 . S
C262 O284 1.244 . S
O263 Zn259 2.055 . S
O263 C285 1.259 . S
O264 Zn256 2.046 . S
O264 C285 1.254 . S
N265 Zn259 2.036 . S
N265 C266 1.298 . S
N265 N268 1.398 . S
C266 N265 1.298 . S
C266 N269 1.367 . S
C266 C279 1.481 . S
C267 N268 1.299 . S
C267 N269 1.379 . S
N268 N265 1.398 . S
N268 C267 1.299 . S
N269 C266 1.367 . S
N269 C267 1.379 . S
C270 N272 1.298 . S
C270 N274 1.367 . S
C270 C278 1.481 . S
C271 N273 1.299 . S
C271 N274 1.379 . S
N272 Zn256 2.036 . S
N272 C270 1.298 . S
N272 N273 1.398 . S
N273 C271 1.299 . S
N273 N272 1.398 . S
N274 C270 1.367 . S
N274 C271 1.379 . S
H275 C278 0.980 . S
H276 C278 0.981 . S
H277 C278 0.981 . S
C278 C270 1.481 . S
C278 H275 0.980 . S
C278 H276 0.981 . S
C278 H277 0.981 . S
C279 C266 1.481 . S
C279 H280 0.980 . S
C279 H281 0.981 . S
C279 H282 0.981 . S
H280 C279 0.980 . S
H281 C279 0.981 . S
H282 C279 0.981 . S
O283 Zn259 2.066 . S
O283 C262 1.256 . S
O284 Zn256 2.053 . S
O284 C262 1.244 . S
C285 O263 1.259 . S
C285 O264 1.254 . S
O286 Zn256 2.066 . S
O286 C258 1.256 . S
O287 C258 1.244 . S
O287 Zn259 2.053 . S
Zn288 O289 2.055 . S
Zn288 O296 2.046 . S
Zn288 N304 2.036 . S
Zn288 O316 2.053 . S
Zn288 O318 2.066 . S
O289 Zn288 2.055 . S
O289 C292 1.259 . S
C290 O318 1.256 . S
C290 O319 1.244 . S
Zn291 O293 2.046 . S
Zn291 O295 2.055 . S
Zn291 N297 2.036 . S
Zn291 O315 2.066 . S
Zn291 O319 2.053 . S
C292 O289 1.259 . S
C292 O293 1.254 . S
O293 Zn291 2.046 . S
O293 C292 1.254 . S
C294 O315 1.256 . S
C294 O316 1.244 . S
O295 Zn291 2.055 . S
O295 C317 1.259 . S
O296 Zn288 2.046 . S
O296 C317 1.254 . S
N297 Zn291 2.036 . S
N297 C298 1.298 . S
N297 N300 1.398 . S
C298 N297 1.298 . S
C298 N301 1.367 . S
C298 C311 1.481 . S
C299 N300 1.299 . S
C299 N301 1.379 . S
N300 N297 1.398 . S
N300 C299 1.299 . S
N301 C298 1.367 . S
N301 C299 1.379 . S
C302 N304 1.298 . S
C302 N306 1.367 . S
C302 C310 1.481 . S
C303 N305 1.299 . S
C303 N306 1.379 . S
N304 Zn288 2.036 . S
N304 C302 1.298 . S
N304 N305 1.398 . S
N305 C303 1.299 . S
N305 N304 1.398 . S
N306 C302 1.367 . S
N306 C303 1.379 . S
H307 C310 0.980 . S
H308 C310 0.981 . S
H309 C310 0.981 . S
C310 C302 1.481 . S
C310 H307 0.980 . S
C310 H308 0.981 . S
C310 H309 0.981 . S
C311 C298 1.481 . S
C311 H312 0.980 . S
C311 H313 0.981 . S
C311 H314 0.981 . S
H312 C311 0.980 . S
H313 C311 0.981 . S
H314 C311 0.981 . S
O315 Zn291 2.066 . S
O315 C294 1.256 . S
O316 Zn288 2.053 . S
O316 C294 1.244 . S
C317 O295 1.259 . S
C317 O296 1.254 . S
O318 Zn288 2.066 . S
O318 C290 1.256 . S
O319 C290 1.244 . S
O319 Zn291 2.053 . S
Zn320 O321 2.055 . S
Zn320 O328 2.046 . S
Zn320 N336 2.036 . S
Zn320 O348 2.053 . S
Zn320 O350 2.066 . S
O321 Zn320 2.055 . S
O321 C324 1.259 . S
C322 O350 1.256 . S
C322 O351 1.244 . S
Zn323 O325 2.046 . S
Zn323 O327 2.055 . S
Zn323 N329 2.036 . S
Zn323 O347 2.066 . S
Zn323 O351 2.053 . S
C324 O321 1.259 . S
C324 O325 1.254 . S
O325 Zn323 2.046 . S
O325 C324 1.254 . S
C326 O347 1.256 . S
C326 O348 1.244 . S
O327 Zn323 2.055 . S
O327 C349 1.259 . S
O328 Zn320 2.046 . S
O328 C349 1.254 . S
N329 Zn323 2.036 . S
N329 C330 1.298 . S
N329 N332 1.398 . S
C330 N329 1.298 . S
C330 N333 1.367 . S
C330 C343 1.481 . S
C331 N332 1.299 . S
C331 N333 1.379 . S
N332 N329 1.398 . S
N332 C331 1.299 . S
N333 C330 1.367 . S
N333 C331 1.379 . S
C334 N336 1.298 . S
C334 N338 1.367 . S
C334 C342 1.481 . S
C335 N337 1.299 . S
C335 N338 1.379 . S
N336 Zn320 2.036 . S
N336 C334 1.298 . S
N336 N337 1.398 . S
N337 C335 1.299 . S
N337 N336 1.398 . S
N338 C334 1.367 . S
N338 C335 1.379 . S
H339 C342 0.980 . S
H340 C342 0.981 . S
H341 C342 0.981 . S
C342 C334 1.481 . S
C342 H339 0.980 . S
C342 H340 0.981 . S
C342 H341 0.981 . S
C343 C330 1.481 . S
C343 H344 0.980 . S
C343 H345 0.981 . S
C343 H346 0.981 . S
H344 C343 0.980 . S
H345 C343 0.981 . S
H346 C343 0.981 . S
O347 Zn323 2.066 . S
O347 C326 1.256 . S
O348 Zn320 2.053 . S
O348 C326 1.244 . S
C349 O327 1.259 . S
C349 O328 1.254 . S
O350 Zn320 2.066 . S
O350 C322 1.256 . S
O351 C322 1.244 . S
O351 Zn323 2.053 . S
Zn352 O353 2.055 . S
Zn352 O360 2.046 . S
Zn352 N368 2.036 . S
Zn352 O380 2.053 . S
Zn352 O382 2.066 . S
O353 Zn352 2.055 . S
O353 C356 1.259 . S
C354 O382 1.256 . S
C354 O383 1.244 . S
Zn355 O357 2.046 . S
Zn355 O359 2.055 . S
Zn355 N361 2.036 . S
Zn355 O379 2.066 . S
Zn355 O383 2.053 . S
C356 O353 1.259 . S
C356 O357 1.254 . S
O357 Zn355 2.046 . S
O357 C356 1.254 . S
C358 O379 1.256 . S
C358 O380 1.244 . S
O359 Zn355 2.055 . S
O359 C381 1.259 . S
O360 Zn352 2.046 . S
O360 C381 1.254 . S
N361 Zn355 2.036 . S
N361 C362 1.298 . S
N361 N364 1.398 . S
C362 N361 1.298 . S
C362 N365 1.367 . S
C362 C375 1.481 . S
C363 N364 1.299 . S
C363 N365 1.379 . S
N364 N361 1.398 . S
N364 C363 1.299 . S
N365 C362 1.367 . S
N365 C363 1.379 . S
C366 N368 1.298 . S
C366 N370 1.367 . S
C366 C374 1.481 . S
C367 N369 1.299 . S
C367 N370 1.379 . S
N368 Zn352 2.036 . S
N368 C366 1.298 . S
N368 N369 1.398 . S
N369 C367 1.299 . S
N369 N368 1.398 . S
N370 C366 1.367 . S
N370 C367 1.379 . S
H371 C374 0.980 . S
H372 C374 0.981 . S
H373 C374 0.981 . S
C374 C366 1.481 . S
C374 H371 0.980 . S
C374 H372 0.981 . S
C374 H373 0.981 . S
C375 C362 1.481 . S
C375 H376 0.980 . S
C375 H377 0.981 . S
C375 H378 0.981 . S
H376 C375 0.980 . S
H377 C375 0.981 . S
H378 C375 0.981 . S
O379 Zn355 2.066 . S
O379 C358 1.256 . S
O380 Zn352 2.053 . S
O380 C358 1.244 . S
C381 O359 1.259 . S
C381 O360 1.254 . S
O382 Zn352 2.066 . S
O382 C354 1.256 . S
O383 C354 1.244 . S
O383 Zn355 2.053 . S
C384 C385 1.387 . S
C384 H388 0.950 . S
C384 C393 1.390 . S
C385 C384 1.387 . S
C385 C387 1.387 . S
H386 C393 0.950 . S
C387 C385 1.387 . S
C387 C389 1.390 . S
C387 H391 0.950 . S
H388 C384 0.950 . S
C389 C387 1.390 . S
C389 C390 1.387 . S
C389 H392 0.950 . S
C390 C389 1.387 . S
C390 C393 1.387 . S
H391 C387 0.950 . S
H392 C389 0.950 . S
C393 C384 1.390 . S
C393 H386 0.950 . S
C393 C390 1.387 . S
C394 C395 1.387 . S
C394 H398 0.950 . S
C394 C403 1.390 . S
C395 C394 1.387 . S
C395 C397 1.387 . S
H396 C403 0.950 . S
C397 C395 1.387 . S
C397 C399 1.390 . S
C397 H401 0.950 . S
H398 C394 0.950 . S
C399 C397 1.390 . S
C399 C400 1.387 . S
C399 H402 0.950 . S
C400 C399 1.387 . S
C400 C403 1.387 . S
H401 C397 0.950 . S
H402 C399 0.950 . S
C403 C394 1.390 . S
C403 H396 0.950 . S
C403 C400 1.387 . S
C404 C405 1.387 . S
C404 H408 0.950 . S
C404 C413 1.390 . S
C405 C404 1.387 . S
C405 C407 1.387 . S
H406 C413 0.950 . S
C407 C405 1.387 . S
C407 C409 1.390 . S
C407 H411 0.950 . S
H408 C404 0.950 . S
C409 C407 1.390 . S
C409 C410 1.387 . S
C409 H412 0.950 . S
C410 C409 1.387 . S
C410 C413 1.387 . S
H411 C407 0.950 . S
H412 C409 0.950 . S
C413 C404 1.390 . S
C413 H406 0.950 . S
C413 C410 1.387 . S
C414 C415 1.387 . S
C414 H418 0.950 . S
C414 C423 1.390 . S
C415 C414 1.387 . S
C415 C417 1.387 . S
H416 C423 0.950 . S
C417 C415 1.387 . S
C417 C419 1.390 . S
C417 H421 0.950 . S
H418 C414 0.950 . S
C419 C417 1.390 . S
C419 C420 1.387 . S
C419 H422 0.950 . S
C420 C419 1.387 . S
C420 C423 1.387 . S
H421 C417 0.950 . S
H422 C419 0.950 . S
C423 C414 1.390 . S
C423 H416 0.950 . S
C423 C420 1.387 . S
C424 C425 1.387 . S
C424 H428 0.950 . S
C424 C433 1.390 . S
C425 C424 1.387 . S
C425 C427 1.387 . S
H426 C433 0.950 . S
C427 C425 1.387 . S
C427 C429 1.390 . S
C427 H431 0.950 . S
H428 C424 0.950 . S
C429 C427 1.390 . S
C429 C430 1.387 . S
C429 H432 0.950 . S
C430 C429 1.387 . S
C430 C433 1.387 . S
H431 C427 0.950 . S
H432 C429 0.950 . S
C433 C424 1.390 . S
C433 H426 0.950 . S
C433 C430 1.387 . S
C434 C435 1.387 . S
C434 H438 0.950 . S
C434 C443 1.390 . S
C435 C434 1.387 . S
C435 C437 1.387 . S
H436 C443 0.950 . S
C437 C435 1.387 . S
C437 C439 1.390 . S
C437 H441 0.950 . S
H438 C434 0.950 . S
C439 C437 1.390 . S
C439 C440 1.387 . S
C439 H442 0.950 . S
C440 C439 1.387 . S
C440 C443 1.387 . S
H441 C437 0.950 . S
H442 C439 0.950 . S
C443 C434 1.390 . S
C443 H436 0.950 . S
C443 C440 1.387 . S
C444 C445 1.387 . S
C444 H448 0.950 . S
C444 C453 1.390 . S
C445 C444 1.387 . S
C445 C447 1.387 . S
H446 C453 0.950 . S
C447 C445 1.387 . S
C447 C449 1.390 . S
C447 H451 0.950 . S
H448 C444 0.950 . S
C449 C447 1.390 . S
C449 C450 1.387 . S
C449 H452 0.950 . S
C450 C449 1.387 . S
C450 C453 1.387 . S
H451 C447 0.950 . S
H452 C449 0.950 . S
C453 C444 1.390 . S
C453 H446 0.950 . S
C453 C450 1.387 . S
C454 C455 1.387 . S
C454 H458 0.950 . S
C454 C463 1.390 . S
C455 C454 1.387 . S
C455 C457 1.387 . S
H456 C463 0.950 . S
C457 C455 1.387 . S
C457 C459 1.390 . S
C457 H461 0.950 . S
H458 C454 0.950 . S
C459 C457 1.390 . S
C459 C460 1.387 . S
C459 H462 0.950 . S
C460 C459 1.387 . S
C460 C463 1.387 . S
H461 C457 0.950 . S
H462 C459 0.950 . S
C463 C454 1.390 . S
C463 H456 0.950 . S
C463 C460 1.387 . S
C464 C465 1.387 . S
C464 H468 0.950 . S
C464 C473 1.390 . S
C465 C464 1.387 . S
C465 C467 1.387 . S
H466 C473 0.950 . S
C467 C465 1.387 . S
C467 C469 1.390 . S
C467 H471 0.950 . S
H468 C464 0.950 . S
C469 C467 1.390 . S
C469 C470 1.387 . S
C469 H472 0.950 . S
C470 C469 1.387 . S
C470 C473 1.387 . S
H471 C467 0.950 . S
H472 C469 0.950 . S
C473 C464 1.390 . S
C473 H466 0.950 . S
C473 C470 1.387 . S
C474 C475 1.387 . S
C474 H478 0.950 . S
C474 C483 1.390 . S
C475 C474 1.387 . S
C475 C477 1.387 . S
H476 C483 0.950 . S
C477 C475 1.387 . S
C477 C479 1.390 . S
C477 H481 0.950 . S
H478 C474 0.950 . S
C479 C477 1.390 . S
C479 C480 1.387 . S
C479 H482 0.950 . S
C480 C479 1.387 . S
C480 C483 1.387 . S
H481 C477 0.950 . S
H482 C479 0.950 . S
C483 C474 1.390 . S
C483 H476 0.950 . S
C483 C480 1.387 . S
C484 C485 1.387 . S
C484 H488 0.950 . S
C484 C493 1.390 . S
C485 C484 1.387 . S
C485 C487 1.387 . S
H486 C493 0.950 . S
C487 C485 1.387 . S
C487 C489 1.390 . S
C487 H491 0.950 . S
H488 C484 0.950 . S
C489 C487 1.390 . S
C489 C490 1.387 . S
C489 H492 0.950 . S
C490 C489 1.387 . S
C490 C493 1.387 . S
H491 C487 0.950 . S
H492 C489 0.950 . S
C493 C484 1.390 . S
C493 H486 0.950 . S
C493 C490 1.387 . S
C494 C495 1.387 . S
C494 H498 0.950 . S
C494 C503 1.390 . S
C495 C494 1.387 . S
C495 C497 1.387 . S
H496 C503 0.950 . S
C497 C495 1.387 . S
C497 C499 1.390 . S
C497 H501 0.950 . S
H498 C494 0.950 . S
C499 C497 1.390 . S
C499 C500 1.387 . S
C499 H502 0.950 . S
C500 C499 1.387 . S
C500 C503 1.387 . S
H501 C497 0.950 . S
H502 C499 0.950 . S
C503 C494 1.390 . S
C503 H496 0.950 . S
C503 C500 1.387 . S
C504 C505 1.387 . S
C504 H508 0.950 . S
C504 C513 1.390 . S
C505 C504 1.387 . S
C505 C507 1.387 . S
H506 C513 0.950 . S
C507 C505 1.387 . S
C507 C509 1.390 . S
C507 H511 0.950 . S
H508 C504 0.950 . S
C509 C507 1.390 . S
C509 C510 1.387 . S
C509 H512 0.950 . S
C510 C509 1.387 . S
C510 C513 1.387 . S
H511 C507 0.950 . S
H512 C509 0.950 . S
C513 C504 1.390 . S
C513 H506 0.950 . S
C513 C510 1.387 . S
C514 C515 1.387 . S
C514 H518 0.950 . S
C514 C523 1.390 . S
C515 C514 1.387 . S
C515 C517 1.387 . S
H516 C523 0.950 . S
C517 C515 1.387 . S
C517 C519 1.390 . S
C517 H521 0.950 . S
H518 C514 0.950 . S
C519 C517 1.390 . S
C519 C520 1.387 . S
C519 H522 0.950 . S
C520 C519 1.387 . S
C520 C523 1.387 . S
H521 C517 0.950 . S
H522 C519 0.950 . S
C523 C514 1.390 . S
C523 H516 0.950 . S
C523 C520 1.387 . S
C524 C525 1.387 . S
C524 H528 0.950 . S
C524 C533 1.390 . S
C525 C524 1.387 . S
C525 C527 1.387 . S
H526 C533 0.950 . S
C527 C525 1.387 . S
C527 C529 1.390 . S
C527 H531 0.950 . S
H528 C524 0.950 . S
C529 C527 1.390 . S
C529 C530 1.387 . S
C529 H532 0.950 . S
C530 C529 1.387 . S
C530 C533 1.387 . S
H531 C527 0.950 . S
H532 C529 0.950 . S
C533 C524 1.390 . S
C533 H526 0.950 . S
C533 C530 1.387 . S
C534 C535 1.387 . S
C534 H538 0.950 . S
C534 C543 1.390 . S
C535 C534 1.387 . S
C535 C537 1.387 . S
H536 C543 0.950 . S
C537 C535 1.387 . S
C537 C539 1.390 . S
C537 H541 0.950 . S
H538 C534 0.950 . S
C539 C537 1.390 . S
C539 C540 1.387 . S
C539 H542 0.950 . S
C540 C539 1.387 . S
C540 C543 1.387 . S
H541 C537 0.950 . S
H542 C539 0.950 . S
C543 C534 1.390 . S
C543 H536 0.950 . S
C543 C540 1.387 . S
C544 C545 1.387 . S
C544 H548 0.950 . S
C544 C553 1.390 . S
C545 C544 1.387 . S
C545 C547 1.387 . S
H546 C553 0.950 . S
C547 C545 1.387 . S
C547 C549 1.390 . S
C547 H551 0.950 . S
H548 C544 0.950 . S
C549 C547 1.390 . S
C549 C550 1.387 . S
C549 H552 0.950 . S
C550 C549 1.387 . S
C550 C553 1.387 . S
H551 C547 0.950 . S
H552 C549 0.950 . S
C553 C544 1.390 . S
C553 H546 0.950 . S
C553 C550 1.387 . S
C554 C555 1.387 . S
C554 H558 0.950 . S
C554 C563 1.390 . S
C555 C554 1.387 . S
C555 C557 1.387 . S
H556 C563 0.950 . S
C557 C555 1.387 . S
C557 C559 1.390 . S
C557 H561 0.950 . S
H558 C554 0.950 . S
C559 C557 1.390 . S
C559 C560 1.387 . S
C559 H562 0.950 . S
C560 C559 1.387 . S
C560 C563 1.387 . S
H561 C557 0.950 . S
H562 C559 0.950 . S
C563 C554 1.390 . S
C563 H556 0.950 . S
C563 C560 1.387 . S
C564 C565 1.387 . S
C564 H568 0.950 . S
C564 C573 1.390 . S
C565 C564 1.387 . S
C565 C567 1.387 . S
H566 C573 0.950 . S
C567 C565 1.387 . S
C567 C569 1.390 . S
C567 H571 0.950 . S
H568 C564 0.950 . S
C569 C567 1.390 . S
C569 C570 1.387 . S
C569 H572 0.950 . S
C570 C569 1.387 . S
C570 C573 1.387 . S
H571 C567 0.950 . S
H572 C569 0.950 . S
C573 C564 1.390 . S
C573 H566 0.950 . S
C573 C570 1.387 . S
C574 C575 1.387 . S
C574 H578 0.950 . S
C574 C583 1.390 . S
C575 C574 1.387 . S
C575 C577 1.387 . S
H576 C583 0.950 . S
C577 C575 1.387 . S
C577 C579 1.390 . S
C577 H581 0.950 . S
H578 C574 0.950 . S
C579 C577 1.390 . S
C579 C580 1.387 . S
C579 H582 0.950 . S
C580 C579 1.387 . S
C580 C583 1.387 . S
H581 C577 0.950 . S
H582 C579 0.950 . S
C583 C574 1.390 . S
C583 H576 0.950 . S
C583 C580 1.387 . S
C584 C585 1.387 . S
C584 H588 0.950 . S
C584 C593 1.390 . S
C585 C584 1.387 . S
C585 C587 1.387 . S
H586 C593 0.950 . S
C587 C585 1.387 . S
C587 C589 1.390 . S
C587 H591 0.950 . S
H588 C584 0.950 . S
C589 C587 1.390 . S
C589 C590 1.387 . S
C589 H592 0.950 . S
C590 C589 1.387 . S
C590 C593 1.387 . S
H591 C587 0.950 . S
H592 C589 0.950 . S
C593 C584 1.390 . S
C593 H586 0.950 . S
C593 C590 1.387 . S
C594 C595 1.387 . S
C594 H598 0.950 . S
C594 C603 1.390 . S
C595 C594 1.387 . S
C595 C597 1.387 . S
H596 C603 0.950 . S
C597 C595 1.387 . S
C597 C599 1.390 . S
C597 H601 0.950 . S
H598 C594 0.950 . S
C599 C597 1.390 . S
C599 C600 1.387 . S
C599 H602 0.950 . S
C600 C599 1.387 . S
C600 C603 1.387 . S
H601 C597 0.950 . S
H602 C599 0.950 . S
C603 C594 1.390 . S
C603 H596 0.950 . S
C603 C600 1.387 . S
C604 C605 1.387 . S
C604 H608 0.950 . S
C604 C613 1.390 . S
C605 C604 1.387 . S
C605 C607 1.387 . S
H606 C613 0.950 . S
C607 C605 1.387 . S
C607 C609 1.390 . S
C607 H611 0.950 . S
H608 C604 0.950 . S
C609 C607 1.390 . S
C609 C610 1.387 . S
C609 H612 0.950 . S
C610 C609 1.387 . S
C610 C613 1.387 . S
H611 C607 0.950 . S
H612 C609 0.950 . S
C613 C604 1.390 . S
C613 H606 0.950 . S
C613 C610 1.387 . S
C614 C615 1.387 . S
C614 H618 0.950 . S
C614 C623 1.390 . S
C615 C614 1.387 . S
C615 C617 1.387 . S
H616 C623 0.950 . S
C617 C615 1.387 . S
C617 C619 1.390 . S
C617 H621 0.950 . S
H618 C614 0.950 . S
C619 C617 1.390 . S
C619 C620 1.387 . S
C619 H622 0.950 . S
C620 C619 1.387 . S
C620 C623 1.387 . S
H621 C617 0.950 . S
H622 C619 0.950 . S
C623 C614 1.390 . S
C623 H616 0.950 . S
C623 C620 1.387 . S
C624 C625 1.387 . S
C624 H628 0.950 . S
C624 C633 1.390 . S
C625 C624 1.387 . S
C625 C627 1.387 . S
H626 C633 0.950 . S
C627 C625 1.387 . S
C627 C629 1.390 . S
C627 H631 0.950 . S
H628 C624 0.950 . S
C629 C627 1.390 . S
C629 C630 1.387 . S
C629 H632 0.950 . S
C630 C629 1.387 . S
C630 C633 1.387 . S
H631 C627 0.950 . S
H632 C629 0.950 . S
C633 C624 1.390 . S
C633 H626 0.950 . S
C633 C630 1.387 . S
C634 C635 1.387 . S
C634 H638 0.950 . S
C634 C643 1.390 . S
C635 C634 1.387 . S
C635 C637 1.387 . S
H636 C643 0.950 . S
C637 C635 1.387 . S
C637 C639 1.390 . S
C637 H641 0.950 . S
H638 C634 0.950 . S
C639 C637 1.390 . S
C639 C640 1.387 . S
C639 H642 0.950 . S
C640 C639 1.387 . S
C640 C643 1.387 . S
H641 C637 0.950 . S
H642 C639 0.950 . S
C643 C634 1.390 . S
C643 H636 0.950 . S
C643 C640 1.387 . S
C644 C645 1.387 . S
C644 H648 0.950 . S
C644 C653 1.390 . S
C645 C644 1.387 . S
C645 C647 1.387 . S
H646 C653 0.950 . S
C647 C645 1.387 . S
C647 C649 1.390 . S
C647 H651 0.950 . S
H648 C644 0.950 . S
C649 C647 1.390 . S
C649 C650 1.387 . S
C649 H652 0.950 . S
C650 C649 1.387 . S
C650 C653 1.387 . S
H651 C647 0.950 . S
H652 C649 0.950 . S
C653 C644 1.390 . S
C653 H646 0.950 . S
C653 C650 1.387 . S
C654 C655 1.387 . S
C654 H658 0.950 . S
C654 C663 1.390 . S
C655 C654 1.387 . S
C655 C657 1.387 . S
H656 C663 0.950 . S
C657 C655 1.387 . S
C657 C659 1.390 . S
C657 H661 0.950 . S
H658 C654 0.950 . S
C659 C657 1.390 . S
C659 C660 1.387 . S
C659 H662 0.950 . S
C660 C659 1.387 . S
C660 C663 1.387 . S
H661 C657 0.950 . S
H662 C659 0.950 . S
C663 C654 1.390 . S
C663 H656 0.950 . S
C663 C660 1.387 . S
C664 C665 1.387 . S
C664 H668 0.950 . S
C664 C673 1.390 . S
C665 C664 1.387 . S
C665 C667 1.387 . S
H666 C673 0.950 . S
C667 C665 1.387 . S
C667 C669 1.390 . S
C667 H671 0.950 . S
H668 C664 0.950 . S
C669 C667 1.390 . S
C669 C670 1.387 . S
C669 H672 0.950 . S
C670 C669 1.387 . S
C670 C673 1.387 . S
H671 C667 0.950 . S
H672 C669 0.950 . S
C673 C664 1.390 . S
C673 H666 0.950 . S
C673 C670 1.387 . S
C674 C675 1.387 . S
C674 H678 0.950 . S
C674 C683 1.390 . S
C675 C674 1.387 . S
C675 C677 1.387 . S
H676 C683 0.950 . S
C677 C675 1.387 . S
C677 C679 1.390 . S
C677 H681 0.950 . S
H678 C674 0.950 . S
C679 C677 1.390 . S
C679 C680 1.387 . S
C679 H682 0.950 . S
C680 C679 1.387 . S
C680 C683 1.387 . S
H681 C677 0.950 . S
H682 C679 0.950 . S
C683 C674 1.390 . S
C683 H676 0.950 . S
C683 C680 1.387 . S
C684 C685 1.387 . S
C684 H688 0.950 . S
C684 C693 1.390 1_556 S
C685 C684 1.387 . S
C685 C687 1.387 . S
H686 C693 0.950 . S
C687 C685 1.387 . S
C687 C689 1.390 1_556 S
C687 H691 0.950 . S
H688 C684 0.950 . S
C689 C687 1.390 1_554 S
C689 C690 1.387 . S
C689 H692 0.950 . S
C690 C689 1.387 . S
C690 C693 1.387 . S
H691 C687 0.950 . S
H692 C689 0.950 . S
C693 C684 1.390 1_554 S
C693 H686 0.950 . S
C693 C690 1.387 . S
C694 C695 1.387 . S
C694 H698 0.950 . S
C694 C703 1.390 . S
C695 C694 1.387 . S
C695 C697 1.387 1_455 S
H696 C703 0.950 . S
C697 C695 1.387 1_655 S
C697 C699 1.390 . S
C697 H701 0.950 . S
H698 C694 0.950 . S
C699 C697 1.390 . S
C699 C700 1.387 . S
C699 H702 0.950 . S
C700 C699 1.387 . S
C700 C703 1.387 1_655 S
H701 C697 0.950 . S
H702 C699 0.950 . S
C703 C694 1.390 . S
C703 H696 0.950 . S
C703 C700 1.387 1_455 S
C704 C705 1.387 . S
C704 H708 0.950 . S
C704 C713 1.390 1_564 S
C705 C704 1.387 . S
C705 C707 1.387 . S
H706 C713 0.950 . S
C707 C705 1.387 . S
C707 C709 1.390 1_564 S
C707 H711 0.950 . S
H708 C704 0.950 . S
C709 C707 1.390 1_546 S
C709 C710 1.387 . S
C709 H712 0.950 . S
C710 C709 1.387 . S
C710 C713 1.387 . S
H711 C707 0.950 . S
H712 C709 0.950 . S
C713 C704 1.390 1_546 S
C713 H706 0.950 . S
C713 C710 1.387 . S
C714 C715 1.387 . S
C714 H718 0.950 . S
C714 C723 1.390 . S
C715 C714 1.387 . S
C715 C717 1.387 . S
H716 C723 0.950 . S
C717 C715 1.387 . S
C717 C719 1.390 . S
C717 H721 0.950 . S
H718 C714 0.950 . S
C719 C717 1.390 . S
C719 C720 1.387 . S
C719 H722 0.950 . S
C720 C719 1.387 . S
C720 C723 1.387 . S
H721 C717 0.950 . S
H722 C719 0.950 . S
C723 C714 1.390 . S
C723 H716 0.950 . S
C723 C720 1.387 . S
C724 C725 1.387 1_455 S
C724 H728 0.950 . S
C724 C733 1.390 1_556 S
C725 C724 1.387 1_655 S
C725 C727 1.387 . S
H726 C733 0.950 . S
C727 C725 1.387 . S
C727 C729 1.390 1_556 S
C727 H731 0.950 . S
H728 C724 0.950 . S
C729 C727 1.390 1_554 S
C729 C730 1.387 1_655 S
C729 H732 0.950 . S
C730 C729 1.387 1_455 S
C730 C733 1.387 . S
H731 C727 0.950 . S
H732 C729 0.950 . S
C733 C724 1.390 1_554 S
C733 H726 0.950 . S
C733 C730 1.387 . S
C734 C735 1.387 . S
C734 H738 0.950 . S
C734 C743 1.390 1_565 S
C735 C734 1.387 . S
C735 C737 1.387 . S
H736 C743 0.950 . S
C737 C735 1.387 . S
C737 C739 1.390 1_565 S
C737 H741 0.950 . S
H738 C734 0.950 . S
C739 C737 1.390 1_545 S
C739 C740 1.387 . S
C739 H742 0.950 . S
C740 C739 1.387 . S
C740 C743 1.387 . S
H741 C737 0.950 . S
H742 C739 0.950 . S
C743 C734 1.390 1_545 S
C743 H736 0.950 . S
C743 C740 1.387 . S
C385 C132 1.205 1_545 S
C390 C6 1.200 . S
C395 C189 1.205 . S
C400 C34 1.200 1_455 S
C405 C70 1.198 1_545 S
C410 C29 1.205 1_655 S
C415 C98 1.198 . S
C420 C36 1.205 1_565 S
C425 C130 1.198 1_655 S
C430 C93 1.204 . S
C435 C100 1.205 1_455 S
C440 C166 1.198 1_565 S
C445 C285 1.205 1_655 S
C450 C194 1.198 . S
C455 C230 1.200 1_455 S
C460 C292 1.205 1_565 S
C465 C349 1.205 . S
C470 C262 1.198 1_545 S
C475 C290 1.200 . S
C480 C381 1.205 1_455 S
C485 C326 1.200 1_655 S
C490 C196 1.205 1_545 S
C495 C253 1.205 . S
C500 C358 1.199 1_565 S
C505 C134 1.277 . S
C510 C4 1.285 . S
C515 C61 1.286 . S
C520 C162 1.277 . S
C525 C68 1.286 . S
C530 C2 1.277 . S
C535 C125 1.286 . S
C540 C38 1.278 . S
C545 C66 1.279 . S
C550 C157 1.286 . S
C555 C102 1.276 . S
C560 C164 1.285 . S
C565 C258 1.278 . S
C570 C221 1.286 . S
C575 C228 1.286 . S
C580 C294 1.278 . S
C585 C260 1.286 . S
C590 C322 1.278 . S
C595 C354 1.276 . S
C600 C317 1.285 . S
C605 C324 1.285 . S
C610 C198 1.276 . S
C615 C226 1.277 . S
C620 C356 1.286 . S
C625 N338 1.527 . S
C630 N18 1.527 . S
C635 N45 1.528 . S
C640 N370 1.525 . S
C645 N82 1.527 . S
C650 N205 1.526 . S
C655 N109 1.527 . S
C660 N242 1.527 . S
C665 N141 1.527 . S
C670 N274 1.526 . S
C675 N301 1.527 . S
C680 N178 1.527 . S
C685 N306 1.659 . S
C690 N13 1.658 . S
C695 N333 1.659 . S
C700 N50 1.658 . S
C705 N77 1.658 . S
C710 N365 1.658 . S
C715 N114 1.657 . S
C720 N210 1.659 . S
C725 N237 1.658 . S
C730 N146 1.659 . S
C735 N269 1.659 . S
C740 N173 1.659 . S
