# Generated by pormake.
# Topology wgp, (5)-cn, num edge types: 1
# Building blocks:
#     Node 0, Type 0, BuildingBlock: XOMCOT_clean_sbu_0, # of connection points: 5
#     Node 1, Type 0, BuildingBlock: XOMCOT_clean_sbu_0, # of connection points: 5
#     Node 2, Type 0, BuildingBlock: XOMCOT_clean_sbu_0, # of connection points: 5
#     Node 3, Type 0, BuildingBlock: XOMCOT_clean_sbu_0, # of connection points: 5
#     Node 4, Type 0, BuildingBlock: XOMCOT_clean_sbu_0, # of connection points: 5
#     Node 5, Type 0, BuildingBlock: XOMCOT_clean_sbu_0, # of connection points: 5
#     Node 6, Type 0, BuildingBlock: XOMCOT_clean_sbu_0, # of connection points: 5
#     Node 7, Type 0, BuildingBlock: XOMCOT_clean_sbu_0, # of connection points: 5
#     Node 8, Type 0, BuildingBlock: XOMCOT_clean_sbu_0, # of connection points: 5
#     Node 9, Type 0, BuildingBlock: XOMCOT_clean_sbu_0, # of connection points: 5
#     Node 10, Type 0, BuildingBlock: XOMCOT_clean_sbu_0, # of connection points: 5
#     Node 11, Type 0, BuildingBlock: XOMCOT_clean_sbu_0, # of connection points: 5
#     Node 12, Type 0, BuildingBlock: XOMCOT_clean_sbu_0, # of connection points: 5
#     Node 13, Type 0, BuildingBlock: XOMCOT_clean_sbu_0, # of connection points: 5
#     Node 14, Type 0, BuildingBlock: XOMCOT_clean_sbu_0, # of connection points: 5
#     Node 15, Type 0, BuildingBlock: XOMCOT_clean_sbu_0, # of connection points: 5
#     Node 16, Type 0, BuildingBlock: XOMCOT_clean_sbu_0, # of connection points: 5
#     Node 17, Type 0, BuildingBlock: XOMCOT_clean_sbu_0, # of connection points: 5
#     Node 18, Type 0, BuildingBlock: XOMCOT_clean_sbu_0, # of connection points: 5
#     Node 19, Type 0, BuildingBlock: XOMCOT_clean_sbu_0, # of connection points: 5
#     Node 20, Type 0, BuildingBlock: XOMCOT_clean_sbu_0, # of connection points: 5
#     Node 21, Type 0, BuildingBlock: XOMCOT_clean_sbu_0, # of connection points: 5
#     Node 22, Type 0, BuildingBlock: XOMCOT_clean_sbu_0, # of connection points: 5
#     Node 23, Type 0, BuildingBlock: XOMCOT_clean_sbu_0, # of connection points: 5
#     Node 24, Type 0, BuildingBlock: XOMCOT_clean_sbu_0, # of connection points: 5
#     Node 25, Type 0, BuildingBlock: XOMCOT_clean_sbu_0, # of connection points: 5
#     Node 26, Type 0, BuildingBlock: XOMCOT_clean_sbu_0, # of connection points: 5
#     Node 27, Type 0, BuildingBlock: XOMCOT_clean_sbu_0, # of connection points: 5
#     Node 28, Type 0, BuildingBlock: XOMCOT_clean_sbu_0, # of connection points: 5
#     Node 29, Type 0, BuildingBlock: XOMCOT_clean_sbu_0, # of connection points: 5
#     Node 30, Type 0, BuildingBlock: XOMCOT_clean_sbu_0, # of connection points: 5
#     Node 31, Type 0, BuildingBlock: XOMCOT_clean_sbu_0, # of connection points: 5
#     Edge 32, Type (0, 0), BuildingBlock: KIFKEQ_clean_linker_1, # of connection points: 2
#     Edge 33, Type (0, 0), BuildingBlock: KIFKEQ_clean_linker_1, # of connection points: 2
#     Edge 34, Type (0, 0), BuildingBlock: KIFKEQ_clean_linker_1, # of connection points: 2
#     Edge 35, Type (0, 0), BuildingBlock: KIFKEQ_clean_linker_1, # of connection points: 2
#     Edge 36, Type (0, 0), BuildingBlock: KIFKEQ_clean_linker_1, # of connection points: 2
#     Edge 37, Type (0, 0), BuildingBlock: KIFKEQ_clean_linker_1, # of connection points: 2
#     Edge 38, Type (0, 0), BuildingBlock: KIFKEQ_clean_linker_1, # of connection points: 2
#     Edge 39, Type (0, 0), BuildingBlock: KIFKEQ_clean_linker_1, # of connection points: 2
#     Edge 40, Type (0, 0), BuildingBlock: KIFKEQ_clean_linker_1, # of connection points: 2
#     Edge 41, Type (0, 0), BuildingBlock: KIFKEQ_clean_linker_1, # of connection points: 2
#     Edge 42, Type (0, 0), BuildingBlock: KIFKEQ_clean_linker_1, # of connection points: 2
#     Edge 43, Type (0, 0), BuildingBlock: KIFKEQ_clean_linker_1, # of connection points: 2
#     Edge 44, Type (0, 0), BuildingBlock: KIFKEQ_clean_linker_1, # of connection points: 2
#     Edge 45, Type (0, 0), BuildingBlock: KIFKEQ_clean_linker_1, # of connection points: 2
#     Edge 46, Type (0, 0), BuildingBlock: KIFKEQ_clean_linker_1, # of connection points: 2
#     Edge 47, Type (0, 0), BuildingBlock: KIFKEQ_clean_linker_1, # of connection points: 2
#     Edge 48, Type (0, 0), BuildingBlock: KIFKEQ_clean_linker_1, # of connection points: 2
#     Edge 49, Type (0, 0), BuildingBlock: KIFKEQ_clean_linker_1, # of connection points: 2
#     Edge 50, Type (0, 0), BuildingBlock: KIFKEQ_clean_linker_1, # of connection points: 2
#     Edge 51, Type (0, 0), BuildingBlock: KIFKEQ_clean_linker_1, # of connection points: 2
#     Edge 52, Type (0, 0), BuildingBlock: KIFKEQ_clean_linker_1, # of connection points: 2
#     Edge 53, Type (0, 0), BuildingBlock: KIFKEQ_clean_linker_1, # of connection points: 2
#     Edge 54, Type (0, 0), BuildingBlock: KIFKEQ_clean_linker_1, # of connection points: 2
#     Edge 55, Type (0, 0), BuildingBlock: KIFKEQ_clean_linker_1, # of connection points: 2
#     Edge 56, Type (0, 0), BuildingBlock: KIFKEQ_clean_linker_1, # of connection points: 2
#     Edge 57, Type (0, 0), BuildingBlock: KIFKEQ_clean_linker_1, # of connection points: 2
#     Edge 58, Type (0, 0), BuildingBlock: KIFKEQ_clean_linker_1, # of connection points: 2
#     Edge 59, Type (0, 0), BuildingBlock: KIFKEQ_clean_linker_1, # of connection points: 2
#     Edge 60, Type (0, 0), BuildingBlock: KIFKEQ_clean_linker_1, # of connection points: 2
#     Edge 61, Type (0, 0), BuildingBlock: KIFKEQ_clean_linker_1, # of connection points: 2
#     Edge 62, Type (0, 0), BuildingBlock: KIFKEQ_clean_linker_1, # of connection points: 2
#     Edge 63, Type (0, 0), BuildingBlock: KIFKEQ_clean_linker_1, # of connection points: 2
#     Edge 64, Type (0, 0), BuildingBlock: KIFKEQ_clean_linker_1, # of connection points: 2
#     Edge 65, Type (0, 0), BuildingBlock: KIFKEQ_clean_linker_1, # of connection points: 2
#     Edge 66, Type (0, 0), BuildingBlock: KIFKEQ_clean_linker_1, # of connection points: 2
#     Edge 67, Type (0, 0), BuildingBlock: KIFKEQ_clean_linker_1, # of connection points: 2
#     Edge 68, Type (0, 0), BuildingBlock: KIFKEQ_clean_linker_1, # of connection points: 2
#     Edge 69, Type (0, 0), BuildingBlock: KIFKEQ_clean_linker_1, # of connection points: 2
#     Edge 70, Type (0, 0), BuildingBlock: KIFKEQ_clean_linker_1, # of connection points: 2
#     Edge 71, Type (0, 0), BuildingBlock: KIFKEQ_clean_linker_1, # of connection points: 2
#     Edge 72, Type (0, 0), BuildingBlock: KIFKEQ_clean_linker_1, # of connection points: 2
#     Edge 73, Type (0, 0), BuildingBlock: KIFKEQ_clean_linker_1, # of connection points: 2
#     Edge 74, Type (0, 0), BuildingBlock: KIFKEQ_clean_linker_1, # of connection points: 2
#     Edge 75, Type (0, 0), BuildingBlock: KIFKEQ_clean_linker_1, # of connection points: 2
#     Edge 76, Type (0, 0), BuildingBlock: KIFKEQ_clean_linker_1, # of connection points: 2
#     Edge 77, Type (0, 0), BuildingBlock: KIFKEQ_clean_linker_1, # of connection points: 2
#     Edge 78, Type (0, 0), BuildingBlock: KIFKEQ_clean_linker_1, # of connection points: 2
#     Edge 79, Type (0, 0), BuildingBlock: KIFKEQ_clean_linker_1, # of connection points: 2
#     Edge 80, Type (0, 0), BuildingBlock: KIFKEQ_clean_linker_1, # of connection points: 2
#     Edge 81, Type (0, 0), BuildingBlock: KIFKEQ_clean_linker_1, # of connection points: 2
#     Edge 82, Type (0, 0), BuildingBlock: KIFKEQ_clean_linker_1, # of connection points: 2
#     Edge 83, Type (0, 0), BuildingBlock: KIFKEQ_clean_linker_1, # of connection points: 2
#     Edge 84, Type (0, 0), BuildingBlock: KIFKEQ_clean_linker_1, # of connection points: 2
#     Edge 85, Type (0, 0), BuildingBlock: KIFKEQ_clean_linker_1, # of connection points: 2
#     Edge 86, Type (0, 0), BuildingBlock: KIFKEQ_clean_linker_1, # of connection points: 2
#     Edge 87, Type (0, 0), BuildingBlock: KIFKEQ_clean_linker_1, # of connection points: 2
#     Edge 88, Type (0, 0), BuildingBlock: KIFKEQ_clean_linker_1, # of connection points: 2
#     Edge 89, Type (0, 0), BuildingBlock: KIFKEQ_clean_linker_1, # of connection points: 2
#     Edge 90, Type (0, 0), BuildingBlock: KIFKEQ_clean_linker_1, # of connection points: 2
#     Edge 91, Type (0, 0), BuildingBlock: KIFKEQ_clean_linker_1, # of connection points: 2
#     Edge 92, Type (0, 0), BuildingBlock: KIFKEQ_clean_linker_1, # of connection points: 2
#     Edge 93, Type (0, 0), BuildingBlock: KIFKEQ_clean_linker_1, # of connection points: 2
#     Edge 94, Type (0, 0), BuildingBlock: KIFKEQ_clean_linker_1, # of connection points: 2
#     Edge 95, Type (0, 0), BuildingBlock: KIFKEQ_clean_linker_1, # of connection points: 2
#     Edge 96, Type (0, 0), BuildingBlock: KIFKEQ_clean_linker_1, # of connection points: 2
#     Edge 97, Type (0, 0), BuildingBlock: KIFKEQ_clean_linker_1, # of connection points: 2
#     Edge 98, Type (0, 0), BuildingBlock: KIFKEQ_clean_linker_1, # of connection points: 2
#     Edge 99, Type (0, 0), BuildingBlock: KIFKEQ_clean_linker_1, # of connection points: 2
#     Edge 100, Type (0, 0), BuildingBlock: KIFKEQ_clean_linker_1, # of connection points: 2
#     Edge 101, Type (0, 0), BuildingBlock: KIFKEQ_clean_linker_1, # of connection points: 2
#     Edge 102, Type (0, 0), BuildingBlock: KIFKEQ_clean_linker_1, # of connection points: 2
#     Edge 103, Type (0, 0), BuildingBlock: KIFKEQ_clean_linker_1, # of connection points: 2
#     Edge 104, Type (0, 0), BuildingBlock: KIFKEQ_clean_linker_1, # of connection points: 2
#     Edge 105, Type (0, 0), BuildingBlock: KIFKEQ_clean_linker_1, # of connection points: 2
#     Edge 106, Type (0, 0), BuildingBlock: KIFKEQ_clean_linker_1, # of connection points: 2
#     Edge 107, Type (0, 0), BuildingBlock: KIFKEQ_clean_linker_1, # of connection points: 2
#     Edge 108, Type (0, 0), BuildingBlock: KIFKEQ_clean_linker_1, # of connection points: 2
#     Edge 109, Type (0, 0), BuildingBlock: KIFKEQ_clean_linker_1, # of connection points: 2
#     Edge 110, Type (0, 0), BuildingBlock: KIFKEQ_clean_linker_1, # of connection points: 2
#     Edge 111, Type (0, 0), BuildingBlock: KIFKEQ_clean_linker_1, # of connection points: 2
# Relax obj value: 0.157
# Max RMSD: 0.189
# Mean RMSD: 0.189
data_MOF--net-wgp--node1-XOMCOT_clean_sbu_0--edge1-KIFKEQ_clean_linker_1
_symmetry_space_group_name_H-M    P1
_symmetry_Int_Tables_number       1
_symmetry_cell_setting            triclinic
loop_
_symmetry_equiv_pos_as_xyz
'x, y, z'
_cell_length_a     34.78649
_cell_length_b     34.777941
_cell_length_c     118.79196
_cell_angle_alpha  90.03721
_cell_angle_beta   90.053962
_cell_angle_gamma 89.984714
loop_
_atom_site_label
_atom_site_type_symbol
_atom_site_fract_x
_atom_site_fract_y
_atom_site_fract_z
_atom_type_partial_charge
Co0 Co 0.29596 0.16656 0.08183 0.0
C1 C 0.30564 0.0822 0.08317 0.0
C2 C 0.35602 0.11106 0.08906 0.0
C3 C 0.36038 0.07216 0.09095 0.0
N4 N 0.32212 0.11736 0.0838 0.0
N5 N 0.32839 0.05427 0.08732 0.0
H6 H 0.27652 0.07704 0.08045 0.0
H7 H 0.3753 0.13322 0.09203 0.0
C8 C 0.37616 0.18395 0.07473 0.0
O9 O 0.37226 0.15401 0.06806 0.0
N10 N 0.26811 0.21435 0.08016 0.0
C11 C 0.23376 0.21619 0.07496 0.0
C12 C 0.22096 0.25329 0.07515 0.0
C13 C 0.27583 0.25069 0.08355 0.0
N14 N 0.24732 0.27521 0.08046 0.0
C15 C 0.27419 0.13137 0.06071 0.0
C16 C 0.29894 0.19103 0.04718 0.0
C17 C 0.2794 0.16014 0.04221 0.0
C18 C 0.26727 0.1299 0.04913 0.0
C19 C 0.30535 0.19131 0.05879 0.0
N20 N 0.29378 0.16133 0.06543 0.0
H21 H 0.26152 0.10952 0.06586 0.0
H22 H 0.3184 0.2165 0.06249 0.0
H23 H 0.21892 0.19194 0.07127 0.0
H24 H 0.30163 0.25897 0.08803 0.0
O25 O 0.24789 0.14191 0.0855 0.0
O26 O 0.2876 0.16748 0.09801 0.0
O27 O 0.34796 0.19418 0.08105 0.0
C28 C 0.25573 0.14891 0.09599 0.0
H29 H 0.38412 0.05841 0.09525 0.0
H30 H 0.19379 0.26318 0.07178 0.0
H31 H 0.30861 0.21521 0.04219 0.0
H32 H 0.25082 0.10614 0.04573 0.0
Co33 Co 0.10234 0.06062 0.33199 0.0
C34 C 0.18677 0.06614 0.33413 0.0
C35 C 0.1601 0.11838 0.33948 0.0
C36 C 0.19887 0.12044 0.3419 0.0
N37 N 0.15256 0.08467 0.33424 0.0
N38 N 0.21535 0.08727 0.33863 0.0
H39 H 0.19056 0.03656 0.33164 0.0
H40 H 0.13871 0.13896 0.34216 0.0
C41 C 0.08804 0.14141 0.3249 0.0
O42 O 0.11824 0.13678 0.3184 0.0
N43 N 0.05355 0.0348 0.33006 0.0
C44 C 0.05022 1.00122 0.32448 0.0
C45 C 0.01234 0.99088 0.32409 0.0
C46 C 0.0174 0.04432 0.33321 0.0
N47 N 0.9917 0.01785 0.32953 0.0
C48 C 0.13859 0.03939 0.311 0.0
C49 C 0.07963 0.06467 0.29727 0.0
C50 C 0.11064 0.04504 0.29239 0.0
C51 C 0.14064 0.03287 0.29942 0.0
C52 C 0.07892 0.07094 0.30887 0.0
N53 N 0.10839 0.05877 0.31563 0.0
H54 H 0.16038 0.02683 0.31621 0.0
H55 H 0.05368 0.08414 0.3125 0.0
H56 H 0.07388 0.98562 0.32073 0.0
H57 H 0.01 0.0702 0.33778 0.0
O58 O 0.12476 0.01152 0.33566 0.0
O59 O 0.10027 0.05215 0.34812 0.0
O60 O 0.07676 0.1135 0.33116 0.0
C61 C 0.11783 0.01969 0.34614 0.0
H62 H 0.21326 0.14331 0.34644 0.0
H63 H 1.00072 0.9654 0.3201 0.0
H64 H 0.05518 0.07362 0.29227 0.0
H65 H 0.16518 0.01749 0.29608 0.0
Co66 Co 0.21323 0.84244 0.58294 0.0
C67 C 0.19955 0.92566 0.58687 0.0
C68 C 0.1499 0.89846 0.57977 0.0
C69 C 0.143 0.93741 0.58058 0.0
N70 N 0.18538 0.89098 0.58379 0.0
N71 N 0.17439 0.9545 0.58502 0.0
H72 H 0.22869 0.9304 0.58967 0.0
H73 H 0.13098 0.87753 0.57595 0.0
C74 C 0.13787 0.81147 0.59 0.0
O75 O 0.14488 0.82815 0.59971 0.0
N76 N 0.24188 0.79499 0.58187 0.0
C77 C 0.27678 0.79233 0.57702 0.0
C78 C 0.29055 0.75574 0.57846 0.0
C79 C 0.2345 0.75971 0.58612 0.0
N80 N 0.26409 0.73533 0.58416 0.0
C81 C 0.23203 0.87771 0.562 0.0
C82 C 0.20622 0.81853 0.54837 0.0
C83 C 0.22507 0.84992 0.54341 0.0
C84 C 0.2376 0.87999 0.55039 0.0
C85 C 0.20136 0.81731 0.56005 0.0
N86 N 0.21445 0.84656 0.56669 0.0
H87 H 0.24271 0.90059 0.56731 0.0
H88 H 0.18845 0.7921 0.56377 0.0
H89 H 0.29146 0.81571 0.57284 0.0
H90 H 0.20878 0.75233 0.59076 0.0
O91 O 0.26088 0.8685 0.58639 0.0
O92 O 0.22175 0.84361 0.59912 0.0
O93 O 0.16289 0.81348 0.58215 0.0
C94 C 0.2535 0.86202 0.59694 0.0
H95 H 0.11734 0.95205 0.57772 0.0
H96 H 0.31791 0.74479 0.57552 0.0
H97 H 0.19659 0.79442 0.54333 0.0
H98 H 0.25191 0.90495 0.54691 0.0
Co99 Co 0.42776 0.96484 0.83404 0.0
C100 C 0.34649 0.94896 0.83003 0.0
C101 C 0.37297 0.90259 0.83906 0.0
C102 C 0.33366 0.89723 0.8391 0.0
N103 N 0.38084 0.93516 0.8334 0.0
N104 N 0.31707 0.92682 0.83357 0.0
H105 H 0.34302 0.97629 0.8258 0.0
H106 H 0.39383 0.88588 0.84371 0.0
C107 C 0.4819 0.89931 0.82746 0.0
O108 O 0.49368 0.91848 0.81858 0.0
N109 N 0.47453 0.99651 0.83505 0.0
C110 C 0.4745 0.03517 0.83653 0.0
C111 C 0.51122 0.0489 0.83597 0.0
C112 C 0.51235 0.98739 0.83408 0.0
N113 N 0.53498 0.01902 0.83435 0.0
C114 C 0.43359 1.00257 0.81275 0.0
C115 C 0.41812 0.93931 0.7994 0.0
C116 C 0.42579 0.97478 0.79425 0.0
C117 C 0.43311 0.00669 0.8011 0.0
C118 C 0.41909 0.9364 0.81115 0.0
N119 N 0.42821 0.96755 0.81767 0.0
H120 H 0.43741 0.02796 0.8178 0.0
H121 H 0.41302 0.90893 0.81502 0.0
H122 H 0.44945 0.05317 0.8375 0.0
H123 H 0.52357 0.95877 0.83311 0.0
O124 O 0.39656 0.00966 0.83685 0.0
O125 O 0.42007 0.97142 0.85012 0.0
O126 O 0.4582 0.91472 0.83439 0.0
C127 C 0.39912 1.0012 0.84748 0.0
H128 H 0.3184 0.87522 0.84374 0.0
H129 H 0.51982 0.07876 0.83654 0.0
H130 H 0.41187 0.914 0.79441 0.0
H131 H 0.43758 0.03495 0.7975 0.0
Co132 Co 0.29478 0.84313 0.41996 0.0
C133 C 0.30674 0.92478 0.4245 0.0
C134 C 0.35566 0.9005 0.4161 0.0
C135 C 0.35987 0.93993 0.41648 0.0
N136 N 0.32225 0.89119 0.42112 0.0
N137 N 0.32876 0.95513 0.42162 0.0
H138 H 0.27869 0.92699 0.42837 0.0
H139 H 0.37411 0.88047 0.4117 0.0
C140 C 0.36096 0.79202 0.42748 0.0
O141 O 0.34076 0.7798 0.43609 0.0
N142 N 0.26551 0.7951 0.41833 0.0
C143 C 0.22728 0.79366 0.41615 0.0
C144 C 0.216 0.75641 0.41479 0.0
C145 C 0.27683 0.75772 0.4181 0.0
N146 N 0.24696 0.73376 0.416 0.0
C147 C 0.254 0.83463 0.44077 0.0
C148 C 0.31372 0.85509 0.45492 0.0
C149 C 0.27774 0.84645 0.45962 0.0
C150 C 0.24775 0.83607 0.45235 0.0
C151 C 0.31879 0.85321 0.44324 0.0
N152 N 0.28936 0.84205 0.43631 0.0
H153 H 0.22987 0.8285 0.4354 0.0
H154 H 0.34651 0.86064 0.43975 0.0
H155 H 0.20799 0.81791 0.4157 0.0
H156 H 0.30604 0.74793 0.41909 0.0
O157 O 0.24906 0.87232 0.41655 0.0
O158 O 0.29067 0.85126 0.40384 0.0
O159 O 0.34606 0.81475 0.42021 0.0
C160 C 0.25933 0.87044 0.40604 0.0
H161 H 0.38257 0.95624 0.41248 0.0
H162 H 0.18693 0.74659 0.41325 0.0
H163 H 0.33755 0.86406 0.46017 0.0
H164 H 0.21944 0.82919 0.45555 0.0
Co165 Co 0.42084 0.04388 0.6711 0.0
C166 C 0.33684 0.05493 0.67065 0.0
C167 C 0.36567 0.10225 0.6629 0.0
C168 C 0.32669 0.10608 0.66103 0.0
N169 N 0.37204 0.07054 0.66919 0.0
N170 N 0.30879 0.07591 0.66583 0.0
H171 H 0.33178 0.02716 0.67433 0.0
H172 H 0.38789 0.11986 0.65918 0.0
C173 C 0.43791 0.12472 0.67753 0.0
O174 O 0.40757 0.12145 0.68405 0.0
N175 N 0.46816 0.01527 0.67282 0.0
C176 C 0.46875 0.98003 0.67753 0.0
C177 C 0.50589 0.96783 0.67842 0.0
C178 C 0.50543 0.02421 0.67087 0.0
N179 N 0.52909 0.9955 0.67433 0.0
C180 C 0.38795 0.02027 0.69232 0.0
C181 C 0.44589 0.04982 0.70567 0.0
C182 C 0.41661 0.02831 0.71075 0.0
C183 C 0.38724 0.01367 0.70391 0.0
C184 C 0.4455 0.05571 0.69406 0.0
N185 N 0.41612 0.04209 0.6875 0.0
H186 H 0.36736 1.0053 0.68722 0.0
H187 H 0.46992 0.06985 0.69029 0.0
H188 H 0.44371 0.96448 0.68041 0.0
H189 H 0.51502 0.05124 0.66734 0.0
O190 O 0.39517 0.99619 0.66745 0.0
O191 O 0.42132 0.03532 0.65493 0.0
O192 O 0.4489 0.09566 0.67166 0.0
C193 C 0.40206 1.00392 0.65695 0.0
H194 H 0.31296 0.12775 0.65588 0.0
H195 H 0.51515 0.9405 0.68183 0.0
H196 H 0.46949 0.06129 0.71058 0.0
H197 H 0.36499 0.99542 0.70738 0.0
Co198 Co 0.21145 0.17846 0.91906 0.0
C199 C 0.1961 0.09721 0.92301 0.0
C200 C 0.14956 0.12325 0.91393 0.0
C201 C 0.1443 0.0839 0.914 0.0
N202 N 0.18213 0.13139 0.91957 0.0
N203 N 0.17398 0.0676 0.91957 0.0
H204 H 0.22333 0.09403 0.92732 0.0
H205 H 0.13257 0.14402 0.90932 0.0
C206 C 0.14903 0.2342 0.92612 0.0
O207 O 0.17174 0.24681 0.93416 0.0
N208 N 0.24274 0.2254 0.91816 0.0
C209 C 0.28162 0.22566 0.91756 0.0
C210 C 0.29446 0.26241 0.91608 0.0
C211 C 0.23266 0.2628 0.91668 0.0
N212 N 0.26382 0.28581 0.91555 0.0
C213 C 0.25048 0.1796 0.94027 0.0
C214 C 0.18697 0.16676 0.95371 0.0
C215 C 0.22332 0.16979 0.95877 0.0
C216 C 0.25524 0.1763 0.95187 0.0
C217 C 0.1835 0.17007 0.942 0.0
N218 N 0.21494 0.17763 0.93545 0.0
H219 H 0.2758 0.18245 0.93519 0.0
H220 H 0.15555 0.16623 0.93818 0.0
H221 H 0.30014 0.20081 0.91806 0.0
H222 H 0.20353 0.27316 0.91598 0.0
O223 O 0.25626 0.14779 0.91587 0.0
O224 O 0.21728 0.17191 0.90289 0.0
O225 O 0.16128 0.20877 0.91919 0.0
C226 C 0.24735 0.15104 0.9053 0.0
H227 H 0.12206 0.06839 0.90952 0.0
H228 H 0.32421 0.27137 0.91556 0.0
H229 H 0.16164 0.16085 0.95871 0.0
H230 H 0.28389 0.17861 0.95538 0.0
Co231 Co 0.09183 0.96588 0.17009 0.0
C232 C 0.17585 0.95699 0.16786 0.0
C233 C 0.14662 0.90761 0.16143 0.0
C234 C 0.18509 0.90459 0.15875 0.0
N235 N 0.14085 0.94011 0.16744 0.0
N236 N 0.20324 0.93601 0.16272 0.0
H237 H 0.18095 0.98564 0.17095 0.0
H238 H 0.12414 0.88887 0.15837 0.0
C239 C 0.07585 0.88484 0.17648 0.0
O240 O 0.10663 0.88812 0.18284 0.0
N241 N 0.04418 0.99345 0.17248 0.0
C242 C 0.04321 0.02805 0.17758 0.0
C243 C 1.00585 0.03931 0.1788 0.0
C244 C 0.00697 0.98401 0.17059 0.0
N245 N 0.98293 0.0117 0.17451 0.0
C246 C 0.12923 0.98511 0.19109 0.0
C247 C 0.07103 0.95856 0.20487 0.0
C248 C 0.10261 0.97715 0.20975 0.0
C249 C 0.13213 0.99016 0.20272 0.0
C250 C 0.06949 0.9537 0.19321 0.0
N251 N 0.09873 0.96622 0.18643 0.0
H252 H 0.15043 0.99865 0.1859 0.0
H253 H 0.04393 0.94109 0.1896 0.0
H254 H 0.06815 0.04373 0.18049 0.0
H255 H 0.99772 0.95728 0.16679 0.0
O256 O 0.11614 0.01434 0.1666 0.0
O257 O 0.08923 0.97581 0.15401 0.0
O258 O 0.06452 0.91378 0.17063 0.0
C259 C 0.1083 0.00731 0.1561 0.0
H260 H 0.19809 0.88255 0.15356 0.0
H261 H 0.99625 0.06598 0.18257 0.0
H262 H 0.04732 0.94853 0.20999 0.0
H263 H 0.15632 1.00599 0.20612 0.0
Co264 Co 0.70079 0.84551 0.91968 0.0
C265 C 0.70016 0.93044 0.92023 0.0
C266 C 0.6468 0.90901 0.91395 0.0
C267 C 0.64693 0.94859 0.9129 0.0
N268 N 0.67987 0.8976 0.9189 0.0
N269 N 0.68065 0.9619 0.9169 0.0
H270 H 0.73017 0.93139 0.92245 0.0
H271 H 0.62497 0.88994 0.91067 0.0
C272 C 0.61959 0.83418 0.92694 0.0
O273 O 0.6261 0.86241 0.93405 0.0
N274 N 0.72336 0.7948 0.92012 0.0
C275 C 0.75717 0.78726 0.92522 0.0
C276 C 0.76762 0.75011 0.92294 0.0
C277 C 0.71349 0.76196 0.91475 0.0
N278 N 0.74029 0.73435 0.91639 0.0
C279 C 0.72758 0.8739 0.9411 0.0
C280 C 0.6975 0.8152 0.95402 0.0
C281 C 0.7202 0.84333 0.95928 0.0
C282 C 0.73485 0.87319 0.95264 0.0
C283 C 0.6905 0.81729 0.94243 0.0
N284 N 0.70477 0.84692 0.93611 0.0
H285 H 0.74235 0.89501 0.93619 0.0
H286 H 0.67486 0.79411 0.93846 0.0
H287 H 0.77368 0.80787 0.93004 0.0
H288 H 0.68826 0.75877 0.90949 0.0
O289 O 0.75088 0.86571 0.91605 0.0
O290 O 0.70754 0.8474 0.90346 0.0
O291 O 0.6466 0.82297 0.92035 0.0
C292 C 0.74134 0.86206 0.90553 0.0
H293 H 0.62451 0.96595 0.90915 0.0
H294 H 0.79358 0.73577 0.92572 0.0
H295 H 0.68651 0.79086 0.9587 0.0
H296 H 0.7527 0.89554 0.95624 0.0
Co297 Co 0.91947 0.96696 0.66885 0.0
C298 C 0.83808 0.95376 0.67278 0.0
C299 C 0.86309 0.90524 0.66436 0.0
C300 C 0.82358 0.90084 0.66449 0.0
N301 N 0.87192 0.93854 0.66955 0.0
N302 N 0.8081 0.93179 0.66963 0.0
H303 H 0.83532 0.98174 0.67669 0.0
H304 H 0.88348 0.88705 0.66002 0.0
C305 C 0.97354 0.90351 0.67629 0.0
O306 O 0.98594 0.9261 0.68439 0.0
N307 N 0.96682 0.99768 0.66776 0.0
C308 C 0.96718 0.03656 0.66694 0.0
C309 C 1.00409 0.04953 0.66657 0.0
C310 C 1.00457 0.9877 0.6673 0.0
N311 N 0.02766 0.01903 0.66689 0.0
C312 C 0.92386 1.00654 0.69004 0.0
C313 C 0.90827 0.94408 0.70363 0.0
C314 C 0.91504 0.97997 0.7087 0.0
C315 C 0.92278 0.0114 0.70168 0.0
C316 C 0.91 0.94041 0.6919 0.0
N317 N 0.9191 0.97121 0.68525 0.0
H318 H 0.92771 0.03168 0.68493 0.0
H319 H 0.90419 0.91268 0.68815 0.0
H320 H 0.94235 0.05516 0.66687 0.0
H321 H 0.01532 0.95862 0.66729 0.0
O322 O 0.8897 0.01228 0.66551 0.0
O323 O 0.9125 0.97208 0.65267 0.0
O324 O 0.94897 0.9162 0.66915 0.0
C325 C 0.89269 1.00297 0.65496 0.0
H326 H 0.80743 0.8783 0.66034 0.0
H327 H 0.01305 0.07932 0.66615 0.0
H328 H 0.9011 0.91912 0.70865 0.0
H329 H 0.92812 0.03975 0.7051 0.0
Co330 Co 0.79658 0.17735 0.42 0.0
C331 C 0.80338 0.09266 0.41892 0.0
C332 C 0.85045 0.1202 0.41065 0.0
C333 C 0.85173 0.0814 0.40823 0.0
N334 N 0.8204 0.12731 0.41754 0.0
N335 N 0.82201 0.06429 0.41347 0.0
H336 H 0.77539 0.0885 0.42257 0.0
H337 H 0.86837 0.14205 0.40686 0.0
C338 C 0.87856 0.18964 0.42607 0.0
O339 O 0.87433 0.15852 0.43221 0.0
N340 N 0.77094 0.22613 0.42222 0.0
C341 C 0.73754 0.22901 0.4279 0.0
C342 C 0.72783 0.26694 0.4289 0.0
C343 C 0.78104 0.26268 0.41966 0.0
N344 N 0.75504 0.28811 0.42377 0.0
C345 C 0.77437 0.14319 0.44121 0.0
C346 C 0.80644 0.19953 0.45467 0.0
C347 C 0.78516 0.1701 0.45972 0.0
C348 C 0.7693 0.14149 0.45286 0.0
C349 C 0.81125 0.19985 0.443 0.0
N350 N 0.79614 0.17135 0.43638 0.0
H351 H 0.75831 0.12341 0.43613 0.0
H352 H 0.82563 0.2242 0.43927 0.0
H353 H 0.72175 0.20501 0.43137 0.0
H354 H 0.80707 0.27053 0.41524 0.0
O355 O 0.74721 0.15468 0.41654 0.0
O356 O 0.78673 0.17962 0.40391 0.0
O357 O 0.84977 0.20262 0.42043 0.0
C358 C 0.75458 0.16176 0.40603 0.0
H359 H 0.87165 0.06727 0.40259 0.0
H360 H 0.70266 0.27825 0.43312 0.0
H361 H 0.81853 0.22265 0.45966 0.0
H362 H 0.75123 0.1192 0.45639 0.0
Co363 Co 0.58987 0.03984 0.16835 0.0
C364 C 0.67204 0.04925 0.17263 0.0
C365 C 0.64871 0.1 0.16496 0.0
C366 C 0.68821 0.10358 0.16549 0.0
N367 N 0.63875 0.06588 0.16945 0.0
N368 N 0.70271 0.07134 0.17017 0.0
H369 H 0.67393 0.0206 0.17614 0.0
H370 H 0.62909 0.11969 0.16089 0.0
C371 C 0.53559 0.10546 0.17419 0.0
O372 O 0.51839 0.08352 0.18165 0.0
N373 N 0.54121 0.01185 0.16689 0.0
C374 C 0.53823 0.97303 0.1671 0.0
C375 C 0.50173 0.96229 0.1643 0.0
C376 C 0.50586 0.02399 0.16358 0.0
N377 N 0.48137 0.99416 0.16209 0.0
C378 C 0.58531 1.00127 0.18967 0.0
C379 C 0.59459 0.0655 0.20309 0.0
C380 C 0.5894 0.02957 0.20825 0.0
C381 C 0.58521 0.9972 0.20134 0.0
C382 C 0.5944 0.06829 0.19132 0.0
N383 N 0.58823 0.03657 0.18475 0.0
H384 H 0.58431 0.97564 0.18465 0.0
H385 H 0.59946 0.096 0.18749 0.0
H386 H 0.5613 0.95301 0.16871 0.0
H387 H 0.49842 0.05348 0.16176 0.0
O388 O 0.61738 0.99271 0.16526 0.0
O389 O 0.59788 0.03407 0.15228 0.0
O390 O 0.563 0.09184 0.1682 0.0
C391 C 0.61569 1.00212 0.15468 0.0
H392 H 0.70508 0.12682 0.16199 0.0
H393 H 0.49092 0.93313 0.16386 0.0
H394 H 0.59861 0.09125 0.20808 0.0
H395 H 0.58293 0.96864 0.20491 0.0
Co396 Co 0.70515 0.17171 0.58228 0.0
C397 C 0.69875 0.08676 0.58269 0.0
C398 C 0.64621 0.11277 0.58804 0.0
C399 C 0.64347 0.07355 0.58962 0.0
N400 N 0.68055 0.12117 0.58332 0.0
N401 N 0.6768 0.0574 0.58633 0.0
H402 H 0.72856 0.08321 0.58043 0.0
H403 H 0.62555 0.13369 0.59097 0.0
C404 C 0.62478 0.18895 0.5752 0.0
O405 O 0.62941 0.16068 0.56797 0.0
N406 N 0.73148 0.22073 0.58159 0.0
C407 C 0.76643 0.22488 0.57684 0.0
C408 C 0.77903 0.26171 0.57854 0.0
C409 C 0.72296 0.25549 0.58608 0.0
N410 N 0.75187 0.28089 0.58432 0.0
C411 C 0.72599 0.13964 0.5607 0.0
C412 C 0.70204 0.20173 0.54798 0.0
C413 C 0.71968 0.17058 0.54258 0.0
C414 C 0.73153 0.1392 0.54908 0.0
C415 C 0.69655 0.20076 0.55963 0.0
N416 N 0.70777 0.1696 0.56586 0.0
H417 H 0.73819 0.11666 0.56553 0.0
H418 H 0.68408 0.2256 0.5637 0.0
H419 H 0.78201 0.20228 0.57256 0.0
H420 H 0.697 0.26174 0.59075 0.0
O421 O 0.75382 0.14785 0.58568 0.0
O422 O 0.71281 0.16969 0.59844 0.0
O423 O 0.65258 0.19809 0.5818 0.0
C424 C 0.74519 0.1523 0.59624 0.0
H425 H 0.61994 0.05846 0.59361 0.0
H426 H 0.80617 0.27364 0.57577 0.0
H427 H 0.69291 0.22678 0.54327 0.0
H428 H 0.74653 0.11519 0.54527 0.0
Co429 Co 0.59855 0.97009 0.3322 0.0
C430 C 0.68349 0.96754 0.33147 0.0
C431 C 0.66079 0.92023 0.3408 0.0
C432 C 0.70025 0.92051 0.34204 0.0
N433 N 0.65026 0.9493 0.33392 0.0
N434 N 0.71439 0.95045 0.33616 0.0
H435 H 0.68508 0.99506 0.32739 0.0
H436 H 0.64102 0.90155 0.3452 0.0
C437 C 0.59058 0.88673 0.32686 0.0
O438 O 0.62128 0.89172 0.32059 0.0
N439 N 0.54806 0.99264 0.33079 0.0
C440 C 0.54126 0.02495 0.32484 0.0
C441 C 0.5043 0.03673 0.32676 0.0
C442 C 0.51496 0.98504 0.33631 0.0
N443 N 0.48789 0.01178 0.33394 0.0
C444 C 0.62657 0.99672 0.3107 0.0
C445 C 0.57445 0.95683 0.29761 0.0
C446 C 0.60029 0.98189 0.29231 0.0
C447 C 0.62665 1.00188 0.29904 0.0
C448 C 0.57541 0.95246 0.3093 0.0
N449 N 0.60217 0.97123 0.31574 0.0
H450 H 0.64428 0.01551 0.31565 0.0
H451 H 0.55331 0.93526 0.3132 0.0
H452 H 0.56234 0.03989 0.31979 0.0
H453 H 0.51133 0.96178 0.34227 0.0
O454 O 0.61875 0.02068 0.33551 0.0
O455 O 0.59819 0.97936 0.34832 0.0
O456 O 0.57602 0.91569 0.33205 0.0
C457 C 0.61365 0.01262 0.34609 0.0
H458 H 0.71693 0.9011 0.34722 0.0
H459 H 0.49063 0.06221 0.32338 0.0
H460 H 0.55305 0.94127 0.2928 0.0
H461 H 0.6459 0.02296 0.29541 0.0
Co462 Co 0.80079 0.83322 0.08152 0.0
C463 C 0.8137 0.91641 0.08573 0.0
C464 C 0.85783 0.89239 0.07532 0.0
C465 C 0.8618 0.93192 0.07541 0.0
N466 N 0.82737 0.88261 0.08174 0.0
N467 N 0.8339 0.9468 0.08197 0.0
H468 H 0.7874 0.91959 0.09045 0.0
H469 H 0.8741 0.87252 0.07019 0.0
C470 C 0.87812 0.80877 0.08833 0.0
O471 O 0.87152 0.82988 0.09729 0.0
N472 N 0.77297 0.78506 0.08094 0.0
C473 C 0.7372 0.78224 0.07664 0.0
C474 C 0.72451 0.74524 0.07782 0.0
C475 C 0.78202 0.74927 0.08454 0.0
N476 N 0.75251 0.72457 0.08276 0.0
C477 C 0.78103 0.86655 0.06039 0.0
C478 C 0.80465 0.80523 0.04723 0.0
C479 C 0.78651 0.83665 0.04207 0.0
C480 C 0.77517 0.86783 0.04877 0.0
C481 C 0.8105 0.80535 0.05887 0.0
N482 N 0.79836 0.83559 0.06527 0.0
H483 H 0.7709 0.89009 0.06553 0.0
H484 H 0.82353 0.78052 0.06279 0.0
H485 H 0.72132 0.8057 0.07289 0.0
H486 H 0.80901 0.7416 0.08849 0.0
O487 O 0.75284 0.85861 0.08504 0.0
O488 O 0.79335 0.83551 0.09772 0.0
O489 O 0.85196 0.80571 0.08081 0.0
C490 C 0.76097 0.85287 0.09559 0.0
H491 H 0.88226 0.94849 0.07057 0.0
H492 H 0.69692 0.73408 0.07513 0.0
H493 H 0.81393 0.78067 0.04232 0.0
H494 H 0.76067 0.89242 0.04513 0.0
Co495 Co 0.92807 0.03336 0.83287 0.0
C496 C 0.847 0.04838 0.82815 0.0
C497 C 0.87242 0.09523 0.83726 0.0
C498 C 0.8332 0.10079 0.8368 0.0
N499 N 0.88088 0.0623 0.83185 0.0
N500 N 0.81722 0.07098 0.83119 0.0
H501 H 0.84416 0.02094 0.82394 0.0
H502 H 0.89278 0.11228 0.842 0.0
C503 C 0.98389 0.09618 0.8262 0.0
O504 O 0.99807 0.07347 0.81839 0.0
N505 N 0.97523 1.0026 0.83433 0.0
C506 C 0.97584 0.96375 0.8351 0.0
C507 C 0.01263 0.95132 0.83679 0.0
C508 C 0.01244 0.01309 0.83595 0.0
N509 N 0.0357 0.9822 0.83729 0.0
C510 C 0.93375 0.99413 0.81163 0.0
C511 C 0.91955 0.05726 0.79813 0.0
C512 C 0.9259 0.0214 0.79306 0.0
C513 C 0.93298 0.98962 0.79998 0.0
C514 C 0.92117 0.06064 0.80987 0.0
N515 N 0.9292 0.02943 0.81648 0.0
H516 H 0.93684 0.96882 0.81672 0.0
H517 H 0.91579 0.08839 0.81366 0.0
H518 H 0.95123 0.94495 0.83447 0.0
H519 H 0.02252 0.04233 0.83658 0.0
O520 O 0.89768 0.98819 0.836 0.0
O521 O 0.91986 0.02841 0.84895 0.0
O522 O 0.95763 0.08384 0.83281 0.0
C523 C 0.89985 0.99775 0.84657 0.0
H524 H 0.81753 0.12338 0.84106 0.0
H525 H 0.02187 0.92166 0.83739 0.0
H526 H 0.91354 0.08247 0.79308 0.0
H527 H 0.93669 0.96118 0.79641 0.0
Co528 Co 0.79414 0.67168 0.58164 0.0
C529 C 0.80088 0.58686 0.58235 0.0
C530 C 0.85118 0.61341 0.58915 0.0
C531 C 0.85345 0.5743 0.59102 0.0
N532 N 0.81862 0.62137 0.58338 0.0
N533 N 0.82149 0.55782 0.58682 0.0
H534 H 0.772 0.58306 0.57927 0.0
H535 H 0.87056 0.63464 0.59261 0.0
C536 C 0.87646 0.68836 0.57622 0.0
O537 O 0.87464 0.65892 0.5693 0.0
N538 N 0.76798 0.72053 0.58019 0.0
C539 C 0.73425 0.72452 0.57471 0.0
C540 C 0.721 0.76125 0.5762 0.0
C541 C 0.77509 0.75522 0.58493 0.0
N542 N 0.74652 0.78047 0.5826 0.0
C543 C 0.77252 0.63959 0.56024 0.0
C544 C 0.80263 0.69786 0.54715 0.0
C545 C 0.78103 0.66881 0.54194 0.0
C546 C 0.7663 0.63921 0.54865 0.0
C547 C 0.80812 0.69719 0.55881 0.0
N548 N 0.79374 0.66787 0.56523 0.0
H549 H 0.758 0.61837 0.5652 0.0
H550 H 0.82231 0.72135 0.56273 0.0
H551 H 0.71976 0.70181 0.57016 0.0
H552 H 0.79963 0.76141 0.59024 0.0
O553 O 0.74508 0.64799 0.58469 0.0
O554 O 0.7844 0.67134 0.59769 0.0
O555 O 0.84639 0.69836 0.58175 0.0
C556 C 0.75245 0.65353 0.59529 0.0
H557 H 0.8754 0.55959 0.59584 0.0
H558 H 0.69441 0.773 0.57293 0.0
H559 H 0.81359 0.72192 0.54234 0.0
H560 H 0.74912 0.61638 0.54502 0.0
Co561 Co 0.59192 0.54288 0.83126 0.0
C562 C 0.6766 0.54153 0.83217 0.0
C563 C 0.65515 0.59611 0.83768 0.0
C564 C 0.69466 0.59572 0.83897 0.0
N565 N 0.6439 0.5621 0.83333 0.0
N566 N 0.70798 0.5613 0.83547 0.0
H567 H 0.67743 0.51181 0.82956 0.0
H568 H 0.63608 0.61919 0.84013 0.0
C569 C 0.53916 0.61362 0.83053 0.0
O570 O 0.509 0.59179 0.82888 0.0
N571 N 0.54068 0.52128 0.82924 0.0
C572 C 0.52873 0.50049 0.82027 0.0
C573 C 0.49261 0.4864 0.82234 0.0
C574 C 0.51189 0.51805 0.83687 0.0
N575 N 0.48219 0.49744 0.83272 0.0
C576 C 0.62262 0.51442 0.8105 0.0
C577 C 0.58238 0.56233 0.79619 0.0
C578 C 0.60502 0.53296 0.79158 0.0
C579 C 0.62593 0.50938 0.79889 0.0
C580 C 0.58031 0.56684 0.80788 0.0
N581 N 0.59976 0.54258 0.81494 0.0
H582 H 0.63707 0.49418 0.81589 0.0
H583 H 0.56149 0.58869 0.81108 0.0
H584 H 0.54515 0.49484 0.81275 0.0
H585 H 0.51233 0.53101 0.84516 0.0
O586 O 0.60949 0.49146 0.83474 0.0
O587 O 0.58932 0.53369 0.84735 0.0
O588 O 0.57287 0.5987 0.8311 0.0
C589 C 0.60379 0.49988 0.84526 0.0
H590 H 0.7121 0.61885 0.8423 0.0
H591 H 0.47518 0.46938 0.81666 0.0
H592 H 0.56584 0.58127 0.7908 0.0
H593 H 0.64328 0.48592 0.7957 0.0
Co594 Co 0.71683 0.33322 0.08175 0.0
C595 C 0.70639 0.41586 0.07847 0.0
C596 C 0.65705 0.39124 0.08653 0.0
C597 C 0.65382 0.43081 0.08683 0.0
N598 N 0.69013 0.38201 0.08131 0.0
N599 N 0.68524 0.44616 0.08191 0.0
H600 H 0.73454 0.41825 0.07466 0.0
H601 H 0.63828 0.37093 0.09068 0.0
C602 C 0.65183 0.28037 0.07471 0.0
O603 O 0.67408 0.26619 0.06679 0.0
N604 N 0.74559 0.28454 0.0826 0.0
C605 C 0.78444 0.28231 0.08326 0.0
C606 C 0.79545 0.24504 0.08494 0.0
C607 C 0.73368 0.24772 0.08421 0.0
N608 N 0.76369 0.22333 0.0855 0.0
C609 C 0.75585 0.33086 0.06058 0.0
C610 C 0.69322 0.34801 0.04717 0.0
C611 C 0.72952 0.34409 0.04214 0.0
C612 C 0.76095 0.33515 0.04903 0.0
C613 C 0.68939 0.34352 0.05884 0.0
N614 N 0.7204 0.3342 0.06538 0.0
H615 H 0.78094 0.32632 0.06568 0.0
H616 H 0.66158 0.34828 0.06264 0.0
H617 H 0.80421 0.30615 0.08274 0.0
H618 H 0.70411 0.23877 0.08494 0.0
O619 O 0.76329 0.3612 0.08504 0.0
O620 O 0.72286 0.33907 0.09792 0.0
O621 O 0.66504 0.30578 0.0815 0.0
C622 C 0.75412 0.3582 0.0956 0.0
H623 H 0.63175 0.44695 0.09118 0.0
H624 H 0.82466 0.2345 0.08563 0.0
H625 H 0.66827 0.35569 0.04219 0.0
H626 H 0.78954 0.3319 0.04555 0.0
Co627 Co 0.92925 0.4771 0.33159 0.0
C628 C 0.84772 0.46404 0.32731 0.0
C629 C 0.87305 0.4154 0.33557 0.0
C630 C 0.83362 0.41109 0.33558 0.0
N631 N 0.88172 0.44874 0.33043 0.0
N632 N 0.81771 0.44206 0.33053 0.0
H633 H 0.84501 0.49221 0.32353 0.0
H634 H 0.8935 0.39736 0.33995 0.0
C635 C 0.98616 0.41518 0.32469 0.0
O636 O 1.00143 0.43891 0.31734 0.0
N637 N 0.97659 0.50749 0.33307 0.0
C638 C 0.97751 0.54641 0.33334 0.0
C639 C 0.01424 0.55874 0.33519 0.0
C640 C 0.01351 0.4969 0.33518 0.0
N641 N 0.03695 0.52777 0.3363 0.0
C642 C 0.92838 0.51943 0.31102 0.0
C643 C 0.92411 0.45753 0.29651 0.0
C644 C 0.92494 0.49488 0.29198 0.0
C645 C 0.92636 0.52596 0.29948 0.0
C646 C 0.92544 0.45233 0.3082 0.0
N647 N 0.92942 0.48307 0.31529 0.0
H648 H 0.92762 0.54395 0.31651 0.0
H649 H 0.92306 0.42355 0.31155 0.0
H650 H 0.95312 0.56535 0.33249 0.0
H651 H 0.02316 0.46767 0.33629 0.0
O652 O 0.89957 0.52211 0.33531 0.0
O653 O 0.92193 0.48033 0.34777 0.0
O654 O 0.95856 0.42647 0.331 0.0
C655 C 0.90223 0.51149 0.34575 0.0
H656 H 0.8179 0.38866 0.33989 0.0
H657 H 0.02367 0.58839 0.33554 0.0
H658 H 0.92245 0.43248 0.29113 0.0
H659 H 0.92487 0.55537 0.29653 0.0
Co660 Co 0.79345 0.34891 0.91918 0.0
C661 C 0.79565 0.43339 0.91621 0.0
C662 C 0.84476 0.40675 0.90873 0.0
C663 C 0.84493 0.44525 0.90595 0.0
N664 N 0.81444 0.39941 0.91551 0.0
N665 N 0.81371 0.46172 0.91058 0.0
H666 H 0.76777 0.43707 0.91998 0.0
H667 H 0.86406 0.38523 0.90539 0.0
C668 C 0.8769 0.34158 0.92431 0.0
O669 O 0.87234 0.37401 0.92984 0.0
N670 N 0.77062 0.29959 0.92254 0.0
C671 C 0.74018 0.29557 0.92945 0.0
C672 C 0.73059 0.25752 0.93009 0.0
C673 C 0.77871 0.26376 0.91879 0.0
N674 N 0.75465 0.23753 0.92342 0.0
C675 C 0.77128 0.38646 0.93987 0.0
C676 C 0.80772 0.33524 0.9541 0.0
C677 C 0.78383 0.36348 0.95877 0.0
C678 C 0.76591 0.38962 0.95149 0.0
C679 C 0.81227 0.33305 0.94243 0.0
N680 N 0.79467 0.35884 0.93541 0.0
H681 H 0.75415 0.40447 0.93453 0.0
H682 H 0.82802 0.30893 0.93905 0.0
H683 H 0.72581 0.31891 0.93374 0.0
H684 H 0.8016 0.25702 0.91295 0.0
O685 O 0.74264 0.36826 0.91591 0.0
O686 O 0.78187 0.34254 0.90331 0.0
O687 O 0.84767 0.32593 0.91952 0.0
C688 C 0.74913 0.35926 0.90547 0.0
H689 H 0.8649 0.4594 0.90033 0.0
H690 H 0.70723 0.24539 0.93494 0.0
H691 H 0.82109 0.31357 0.95935 0.0
H692 H 0.74677 0.4116 0.9547 0.0
Co693 Co 0.92026 0.54746 0.16864 0.0
C694 C 0.83721 0.56011 0.16884 0.0
C695 C 0.86582 0.60912 0.1618 0.0
C696 C 0.82652 0.61414 0.1607 0.0
N697 N 0.87234 0.57517 0.16692 0.0
N698 N 0.80881 0.58296 0.16501 0.0
H699 H 0.83247 0.53203 0.17251 0.0
H700 H 0.88789 0.62781 0.15848 0.0
C701 C 0.97763 0.61007 0.17463 0.0
O702 O 0.99229 0.58734 0.18235 0.0
N703 N 0.96767 0.5175 0.17031 0.0
C704 C 0.9687 0.48115 0.17429 0.0
C705 C 1.00567 0.46803 0.17429 0.0
C706 C 1.00466 0.52508 0.16734 0.0
N707 N 0.02855 0.49567 0.17009 0.0
C708 C 0.90223 0.51508 0.19018 0.0
C709 C 0.91202 0.58082 0.20288 0.0
C710 C 0.90549 0.54576 0.20834 0.0
C711 C 0.89904 0.51295 0.20184 0.0
C712 C 0.91393 0.58178 0.19111 0.0
N713 N 0.91258 0.54851 0.18496 0.0
H714 H 0.89606 0.48956 0.18541 0.0
H715 H 0.91659 0.60931 0.18702 0.0
H716 H 0.94422 0.46416 0.17671 0.0
H717 H 0.01407 0.5515 0.16342 0.0
O718 O 0.89296 0.50058 0.16539 0.0
O719 O 0.92066 0.5372 0.15252 0.0
O720 O 0.94938 0.59843 0.16859 0.0
C721 C 0.89997 0.50698 0.15484 0.0
H722 H 0.81221 0.63761 0.15642 0.0
H723 H 0.01498 0.43981 0.17701 0.0
H724 H 0.91535 0.60715 0.20766 0.0
H725 H 0.89257 0.48557 0.20576 0.0
Co726 Co 0.71195 0.67782 0.41869 0.0
C727 C 0.70199 0.59605 0.42315 0.0
C728 C 0.65456 0.61814 0.41358 0.0
C729 C 0.65254 0.57848 0.41364 0.0
N730 N 0.68575 0.62897 0.4195 0.0
N731 N 0.6827 0.56469 0.41957 0.0
H732 H 0.72959 0.59506 0.42735 0.0
H733 H 0.63654 0.6374 0.40876 0.0
C734 C 0.64705 0.73047 0.42564 0.0
O735 O 0.66929 0.74515 0.43348 0.0
N736 N 0.74015 0.72652 0.41746 0.0
C737 C 0.77899 0.72905 0.41725 0.0
C738 C 0.7898 0.76576 0.41482 0.0
C739 C 0.72802 0.7625 0.41475 0.0
N740 N 0.75797 0.78689 0.4132 0.0
C741 C 0.75129 0.68279 0.43988 0.0
C742 C 0.68837 0.66955 0.4535 0.0
C743 C 0.72416 0.67697 0.45851 0.0
C744 C 0.75591 0.683 0.45152 0.0
C745 C 0.68499 0.66983 0.44175 0.0
N746 N 0.71595 0.6782 0.43508 0.0
H747 H 0.77659 0.68526 0.43479 0.0
H748 H 0.65735 0.66364 0.43799 0.0
H749 H 0.79894 0.70559 0.41838 0.0
H750 H 0.69837 0.7705 0.41341 0.0
O751 O 0.75865 0.65016 0.41541 0.0
O752 O 0.71725 0.67081 0.40257 0.0
O753 O 0.66013 0.70502 0.41886 0.0
C754 C 0.74901 0.65247 0.40487 0.0
H755 H 0.63176 0.56121 0.40912 0.0
H756 H 0.81907 0.77615 0.41421 0.0
H757 H 0.66319 0.66397 0.4586 0.0
H758 H 0.78443 0.68695 0.455 0.0
Co759 Co 0.58832 0.46455 0.66849 0.0
C760 C 0.6714 0.45771 0.67144 0.0
C761 C 0.6483 0.40552 0.66455 0.0
C762 C 0.68795 0.40282 0.66473 0.0
N763 N 0.63812 0.43999 0.66878 0.0
N764 N 0.70226 0.43594 0.66892 0.0
H765 H 0.67307 0.48667 0.67474 0.0
H766 H 0.62859 0.38473 0.66102 0.0
C767 C 0.5342 0.40028 0.67495 0.0
O768 O 0.51722 0.42422 0.68192 0.0
N769 N 0.53874 0.49122 0.66792 0.0
C770 C 0.53424 0.52953 0.66945 0.0
C771 C 0.49749 0.53997 0.66678 0.0
C772 C 0.50415 0.47922 0.66393 0.0
N773 N 0.47856 0.50848 0.66335 0.0
C774 C 0.59355 0.50421 0.68959 0.0
C775 C 0.59733 0.44024 0.7033 0.0
C776 C 0.59846 0.47688 0.70822 0.0
C777 C 0.59699 0.50904 0.70119 0.0
C778 C 0.59444 0.43671 0.69158 0.0
N779 N 0.59052 0.46852 0.68489 0.0
H780 H 0.59487 0.52946 0.68443 0.0
H781 H 0.59615 0.40837 0.6879 0.0
H782 H 0.55653 0.54969 0.67163 0.0
H783 H 0.49813 0.45038 0.66102 0.0
O784 O 0.61344 0.51232 0.6648 0.0
O785 O 0.59268 0.47004 0.65225 0.0
O786 O 0.56258 0.41188 0.66899 0.0
C787 C 0.60983 0.50264 0.6543 0.0
H788 H 0.70496 0.3793 0.66143 0.0
H789 H 0.48561 0.56874 0.66714 0.0
H790 H 0.5998 0.41463 0.70844 0.0
H791 H 0.59863 0.53788 0.70461 0.0
Co792 Co 0.21725 0.34411 0.42091 0.0
C793 C 0.20252 0.4251 0.425 0.0
C794 C 0.15697 0.40023 0.41523 0.0
C795 C 0.15297 0.43972 0.41514 0.0
N796 N 0.18824 0.3913 0.42137 0.0
N797 N 0.18209 0.45531 0.42114 0.0
H798 H 0.22929 0.42747 0.42959 0.0
H799 H 0.14056 0.37992 0.41028 0.0
C800 C 0.15345 0.28878 0.4278 0.0
O801 O 0.17497 0.2756 0.43604 0.0
N802 N 0.24863 0.29708 0.42021 0.0
C803 C 0.28757 0.29713 0.41996 0.0
C804 C 0.30102 0.26031 0.42026 0.0
C805 C 0.2392 0.25915 0.42007 0.0
N806 N 0.27078 0.2364 0.42044 0.0
C807 C 0.25683 0.34568 0.442 0.0
C808 C 0.19311 0.35472 0.45562 0.0
C809 C 0.22972 0.35358 0.46055 0.0
C810 C 0.26179 0.34936 0.45359 0.0
C811 C 0.18949 0.35163 0.44391 0.0
N812 N 0.22105 0.34552 0.43728 0.0
H813 H 0.28211 0.34428 0.43683 0.0
H814 H 0.16131 0.35447 0.44016 0.0
H815 H 0.30582 0.32221 0.41986 0.0
H816 H 0.21033 0.24799 0.41975 0.0
O817 O 0.26227 0.37437 0.41749 0.0
O818 O 0.22271 0.35016 0.40472 0.0
O819 O 0.16672 0.3143 0.42107 0.0
C820 C 0.25316 0.37068 0.40694 0.0
H821 H 0.1324 0.45568 0.41015 0.0
H822 H 0.33093 0.25168 0.42045 0.0
H823 H 0.16769 0.35899 0.46073 0.0
H824 H 0.29059 0.34897 0.45706 0.0
Co825 Co 0.4246 0.46185 0.17111 0.0
C826 C 0.33974 0.45925 0.1686 0.0
C827 C 0.36462 0.40391 0.16548 0.0
C828 C 0.32541 0.40149 0.16388 0.0
N829 N 0.37364 0.4401 0.16859 0.0
N830 N 0.30983 0.43639 0.16583 0.0
H831 H 0.33683 0.48947 0.17051 0.0
H832 H 0.3849 0.38089 0.16413 0.0
C833 C 0.48006 0.39259 0.17246 0.0
O834 O 0.50946 0.41494 0.17463 0.0
N835 N 0.47447 0.48598 0.17356 0.0
C836 C 0.48197 0.51141 0.18189 0.0
C837 C 0.51749 0.52747 0.18019 0.0
C838 C 0.50535 0.48821 0.16662 0.0
N839 N 0.53214 0.51279 0.17066 0.0
C840 C 0.38885 0.48615 0.19161 0.0
C841 C 0.43553 0.44563 0.2062 0.0
C842 C 0.40927 0.47217 0.21066 0.0
C843 C 0.38508 0.49183 0.20319 0.0
C844 C 0.43828 0.44067 0.19455 0.0
N845 N 0.41561 0.46134 0.18735 0.0
H846 H 0.37148 0.50342 0.18607 0.0
H847 H 0.46033 0.42191 0.19145 0.0
H848 H 0.4625 0.51901 0.18861 0.0
H849 H 0.50815 0.47229 0.15883 0.0
O850 O 0.40488 0.51246 0.16771 0.0
O851 O 0.42807 0.47186 0.15507 0.0
O852 O 0.44623 0.4069 0.17136 0.0
C853 C 0.41187 0.50487 0.1572 0.0
H854 H 0.30977 0.37614 0.16124 0.0
H855 H 0.53166 0.54831 0.18555 0.0
H856 H 0.45529 0.4302 0.21161 0.0
H857 H 0.36402 0.51228 0.20622 0.0
Co858 Co 0.28245 0.67767 0.92057 0.0
C859 C 0.29851 0.59609 0.92344 0.0
C860 C 0.34433 0.62361 0.91444 0.0
C861 C 0.34963 0.58429 0.91395 0.0
N862 N 0.31215 0.6308 0.92037 0.0
N863 N 0.32038 0.5671 0.91947 0.0
H864 H 0.27147 0.59217 0.92778 0.0
H865 H 0.36081 0.64506 0.90997 0.0
C866 C 0.34499 0.73382 0.92759 0.0
O867 O 0.323 0.74618 0.93582 0.0
N868 N 0.25048 0.72436 0.92051 0.0
C869 C 0.21158 0.72392 0.92083 0.0
C870 C 0.1978 0.76063 0.92099 0.0
C871 C 0.25947 0.76234 0.91987 0.0
N872 N 0.22776 0.78489 0.92052 0.0
C873 C 0.24534 0.67404 0.94208 0.0
C874 C 0.31086 0.66423 0.95492 0.0
C875 C 0.275 0.66534 0.96031 0.0
C876 C 0.24201 0.67007 0.9537 0.0
C877 C 0.31286 0.66812 0.9432 0.0
N878 N 0.28042 0.67455 0.93696 0.0
H879 H 0.21937 0.67555 0.93721 0.0
H880 H 0.34053 0.66571 0.93913 0.0
H881 H 0.1936 0.69864 0.92103 0.0
H882 H 0.28816 0.77361 0.91892 0.0
O883 O 0.23746 0.64727 0.91719 0.0
O884 O 0.27573 0.67325 0.90439 0.0
O885 O 0.33245 0.70822 0.92075 0.0
C886 C 0.24575 0.65208 0.90662 0.0
H887 H 0.37137 0.56952 0.90907 0.0
H888 H 0.16782 0.76892 0.9214 0.0
H889 H 0.33701 0.65953 0.95968 0.0
H890 H 0.21367 0.6707 0.95746 0.0
Co891 Co 0.08976 0.54738 0.67175 0.0
C892 C 0.17404 0.55244 0.66857 0.0
C893 C 0.14555 0.60053 0.6611 0.0
C894 C 0.18385 0.60172 0.65813 0.0
N895 N 0.13945 0.57019 0.66798 0.0
N896 N 0.20154 0.57114 0.66276 0.0
H897 H 0.17869 0.52468 0.67233 0.0
H898 H 0.12331 0.61898 0.65776 0.0
C899 C 0.07932 0.63055 0.67655 0.0
O900 O 0.1115 0.62686 0.68226 0.0
N901 N 0.04143 0.52247 0.67523 0.0
C902 C 0.03976 0.49055 0.68162 0.0
C903 C 1.00234 0.47926 0.68262 0.0
C904 C 1.00458 0.53012 0.67229 0.0
N905 N 0.98001 0.50405 0.67684 0.0
C906 C 0.12874 0.52971 0.69263 0.0
C907 C 0.07368 0.56191 0.70649 0.0
C908 C 0.10383 0.54104 0.71135 0.0
C909 C 0.13201 0.52548 0.70428 0.0
C910 C 0.07176 0.56591 0.69481 0.0
N911 N 0.09924 0.55017 0.68797 0.0
H912 H 0.14835 0.51389 0.68744 0.0
H913 H 0.04676 0.57974 0.69125 0.0
H914 H 0.06437 0.47629 0.6853 0.0
H915 H 0.99601 0.55411 0.66706 0.0
O916 O 0.11144 0.49722 0.66881 0.0
O917 O 0.08419 0.53436 0.65594 0.0
O918 O 0.06468 0.60078 0.67177 0.0
C919 C 0.10238 0.50257 0.65831 0.0
H920 H 0.19701 0.62187 0.65236 0.0
H921 H 0.99245 0.45404 0.6871 0.0
H922 H 0.051 0.57395 0.71165 0.0
H923 H 0.15502 0.50797 0.70768 0.0
Co924 Co 0.22252 0.66605 0.08412 0.0
C925 C 0.21258 0.58182 0.08573 0.0
C926 C 0.16503 0.61117 0.09321 0.0
C927 C 0.16099 0.57228 0.0952 0.0
N928 N 0.19681 0.61713 0.0869 0.0
N929 N 0.19126 0.5541 0.09058 0.0
H930 H 0.24043 0.57635 0.08212 0.0
H931 H 0.14716 0.63357 0.09673 0.0
C932 C 0.14032 0.68263 0.07888 0.0
O933 O 0.14187 0.65149 0.07261 0.0
N934 N 0.25 0.71353 0.08158 0.0
C935 C 0.28327 0.71482 0.07582 0.0
C936 C 0.29573 0.75201 0.07533 0.0
C937 C 0.24258 0.75027 0.08463 0.0
N938 N 0.27022 0.77449 0.08079 0.0
C939 C 0.24135 0.6302 0.06288 0.0
C940 C 0.21067 0.68736 0.04946 0.0
C941 C 0.23081 0.65717 0.04434 0.0
C942 C 0.24594 0.62815 0.05121 0.0
C943 C 0.20666 0.68823 0.06115 0.0
N944 N 0.22112 0.65942 0.06776 0.0
H945 H 0.25656 0.60967 0.06793 0.0
H946 H 0.19345 0.71323 0.06491 0.0
H947 H 0.29754 0.69017 0.07216 0.0
H948 H 0.21754 0.75907 0.08938 0.0
O949 O 0.2712 0.64142 0.0872 0.0
O950 O 0.23404 0.6685 0.1001 0.0
O951 O 0.17071 0.69393 0.08408 0.0
C952 C 0.26532 0.64946 0.09775 0.0
H953 H 0.13885 0.55872 0.10022 0.0
H954 H 0.32207 0.76163 0.0714 0.0
H955 H 0.19885 0.71068 0.04451 0.0
H956 H 0.26304 0.6051 0.04767 0.0
Co957 Co 0.09665 0.45185 0.83319 0.0
C958 C 0.18129 0.44536 0.83547 0.0
C959 C 0.1538 0.39335 0.84062 0.0
C960 C 0.19259 0.39031 0.84289 0.0
N961 N 0.14672 0.42747 0.83556 0.0
N962 N 0.20962 0.42328 0.83972 0.0
H963 H 0.18558 0.47495 0.83306 0.0
H964 H 0.13215 0.37298 0.84324 0.0
C965 C 0.08173 0.3711 0.82617 0.0
O966 O 0.11172 0.37553 0.81957 0.0
N967 N 0.0478 0.47773 0.8312 0.0
C968 C 0.04414 0.51084 0.82539 0.0
C969 C 1.00613 0.5209 0.825 0.0
C970 C 0.01177 0.46832 0.83448 0.0
N971 N 0.98582 0.49433 0.83068 0.0
C972 C 0.13353 0.47171 0.81218 0.0
C973 C 0.0738 0.44793 0.79848 0.0
C974 C 0.10517 0.46687 0.79363 0.0
C975 C 0.1356 0.47823 0.80059 0.0
C976 C 0.07312 0.44149 0.81008 0.0
N977 N 0.10285 0.45312 0.81683 0.0
H978 H 0.15559 0.48384 0.81739 0.0
H979 H 0.04773 0.4286 0.81371 0.0
H980 H 0.06762 0.5262 0.82148 0.0
H981 H 1.0046 0.44277 0.83924 0.0
O982 O 0.11921 0.50101 0.83669 0.0
O983 O 0.09452 0.46114 0.8493 0.0
O984 O 0.07084 0.39906 0.83248 0.0
C985 C 0.11201 0.49353 0.84719 0.0
H986 H 0.2067 0.3668 0.8472 0.0
H987 H 0.99415 0.54584 0.82081 0.0
H988 H 0.04954 0.43895 0.7934 0.0
H989 H 0.15984 0.49397 0.79721 0.0
Co990 Co 0.28605 0.34276 0.58402 0.0
C991 C 0.29563 0.42609 0.58562 0.0
C992 C 0.34647 0.39741 0.59149 0.0
C993 C 0.35121 0.4366 0.59288 0.0
N994 N 0.31162 0.39105 0.5869 0.0
N995 N 0.31898 0.45437 0.58927 0.0
H996 H 0.26713 0.43083 0.58224 0.0
H997 H 0.36652 0.37528 0.59401 0.0
C998 C 0.34937 0.28571 0.57812 0.0
O999 O 0.32582 0.26862 0.57107 0.0
N1000 N 0.25842 0.29508 0.58112 0.0
C1001 C 0.22769 0.29201 0.57424 0.0
C1002 C 0.21524 0.25476 0.57413 0.0
C1003 C 0.26297 0.25947 0.58559 0.0
N1004 N 0.23751 0.23418 0.58115 0.0
C1005 C 0.25442 0.37302 0.56357 0.0
C1006 C 0.31296 0.3521 0.5492 0.0
C1007 C 0.27828 0.36551 0.54458 0.0
C1008 C 0.2497 0.37803 0.55202 0.0
C1009 C 0.31674 0.34836 0.56089 0.0
N1010 N 0.28625 0.35526 0.56788 0.0
H1011 H 0.23121 0.38199 0.56896 0.0
H1012 H 0.34427 0.33986 0.56413 0.0
H1013 H 0.21428 0.31517 0.5697 0.0
H1014 H 0.28522 0.25193 0.59157 0.0
O1015 O 0.23758 0.3661 0.58805 0.0
O1016 O 0.27642 0.33739 0.60012 0.0
O1017 O 0.33832 0.31582 0.58346 0.0
C1018 C 0.24473 0.35649 0.59838 0.0
H1019 H 0.37576 0.45078 0.59664 0.0
H1020 H 0.19142 0.24352 0.56926 0.0
H1021 H 0.3367 0.34351 0.54388 0.0
H1022 H 0.22334 0.39092 0.54897 0.0
Co1023 Co 0.42913 0.55109 0.33349 0.0
C1024 C 0.34736 0.56373 0.32936 0.0
C1025 C 0.37277 0.61294 0.33733 0.0
C1026 C 0.33333 0.61728 0.33734 0.0
N1027 N 0.3814 0.57923 0.33237 0.0
N1028 N 0.31742 0.58596 0.33248 0.0
H1029 H 0.34456 0.53538 0.3257 0.0
H1030 H 0.39331 0.63138 0.34153 0.0
C1031 C 0.48325 0.61435 0.32584 0.0
O1032 O 0.49606 0.59148 0.31787 0.0
N1033 N 0.47679 0.521 0.33502 0.0
C1034 C 0.47774 0.48237 0.33646 0.0
C1035 C 0.51482 0.47036 0.33778 0.0
C1036 C 0.51424 0.53183 0.33582 0.0
N1037 N 0.53785 0.50128 0.33736 0.0
C1038 C 0.43359 0.509 0.3128 0.0
C1039 C 0.4187 0.5698 0.29849 0.0
C1040 C 0.42469 0.5331 0.29388 0.0
C1041 C 0.43184 0.50249 0.30124 0.0
C1042 C 0.42066 0.57506 0.31017 0.0
N1043 N 0.4294 0.54505 0.31716 0.0
H1044 H 0.43707 0.48457 0.31824 0.0
H1045 H 0.41529 0.60335 0.3136 0.0
H1046 H 0.45324 0.46334 0.33646 0.0
H1047 H 0.52434 0.56112 0.33566 0.0
O1048 O 0.39953 0.5059 0.33713 0.0
O1049 O 0.42151 0.54764 0.34967 0.0
O1050 O 0.45834 0.60194 0.3329 0.0
C1051 C 0.40188 0.51646 0.3476 0.0
H1052 H 0.31759 0.64007 0.3415 0.0
H1053 H 0.52424 0.44086 0.33873 0.0
H1054 H 0.4127 0.59429 0.29314 0.0
H1055 H 0.43498 0.47336 0.29815 0.0
H1056 H 0.27124 0.14418 0.11858 0.0
H1057 H 0.18447 0.11756 0.09376 0.0
H1058 H 0.23289 0.11205 0.13299 0.0
H1059 H 0.14559 0.08661 0.10816 0.0
H1060 H 0.11123 0.99255 0.13347 0.0
H1061 H 0.14512 0.02941 0.1191 0.0
H1062 H 0.1759 0.11453 0.14406 0.0
H1063 H 0.14307 0.07703 0.15843 0.0
C1064 C 0.24366 0.13209 0.11625 0.0
C1065 C 0.23095 0.13335 0.10504 0.0
C1066 C 0.22155 0.11374 0.12451 0.0
C1067 C 0.1861 0.09646 0.12176 0.0
C1068 C 0.17299 0.09887 0.11058 0.0
C1069 C 0.19519 0.11694 0.10233 0.0
C1070 C 0.12479 0.01939 0.13584 0.0
C1071 C 0.12445 0.03184 0.14708 0.0
C1072 C 0.14421 0.04064 0.1276 0.0
C1073 C 0.16353 0.07498 0.1304 0.0
C1074 C 0.16203 0.08794 0.14161 0.0
C1075 C 0.14285 0.06659 0.14984 0.0
H1076 H 0.15023 0.94885 0.34404 0.0
H1077 H 0.12186 0.03558 0.3687 0.0
H1078 H 0.18243 0.91115 0.35849 0.0
H1079 H 0.15506 0.99832 0.38316 0.0
H1080 H 0.19046 0.90672 0.40846 0.0
H1081 H 0.15339 0.94061 0.39419 0.0
H1082 H 0.24027 0.91351 0.36943 0.0
H1083 H 0.27682 0.8786 0.38369 0.0
C1084 C 0.15064 0.95976 0.35258 0.0
C1085 C 0.13344 0.99519 0.35524 0.0
C1086 C 0.16946 0.93828 0.36085 0.0
C1087 C 0.17175 0.95179 0.37199 0.0
C1088 C 0.15356 0.98679 0.37471 0.0
C1089 C 0.13453 0.00822 0.36642 0.0
C1090 C 0.20156 0.90781 0.39995 0.0
C1091 C 0.23656 0.88992 0.3972 0.0
C1092 C 0.1804 0.92749 0.39178 0.0
C1093 C 0.19379 0.92993 0.38064 0.0
C1094 C 0.22874 0.91175 0.37788 0.0
C1095 C 0.24984 0.89188 0.38606 0.0
H1096 H 0.23893 0.86647 0.61956 0.0
H1097 H 0.32395 0.89509 0.59448 0.0
H1098 H 0.27736 0.89897 0.63389 0.0
H1099 H 0.363 0.92648 0.60881 0.0
H1100 H 0.39746 0.01994 0.63441 0.0
H1101 H 0.3633 0.98331 0.62 0.0
H1102 H 0.33491 0.89664 0.6447 0.0
H1103 H 0.36794 0.93388 0.65911 0.0
C1104 C 0.26614 0.87913 0.61715 0.0
C1105 C 0.27834 0.87827 0.60589 0.0
C1106 C 0.28831 0.89769 0.62537 0.0
C1107 C 0.32334 0.91559 0.62253 0.0
C1108 C 0.33592 0.9137 0.61129 0.0
C1109 C 0.31365 0.8954 0.60308 0.0
C1110 C 0.3843 0.99284 0.63671 0.0
C1111 C 0.38536 0.97986 0.6479 0.0
C1112 C 0.36476 0.97172 0.62845 0.0
C1113 C 0.34604 0.937 0.63117 0.0
C1114 C 0.34826 0.92354 0.64231 0.0
C1115 C 0.36754 0.94476 0.65057 0.0
H1116 H 0.33503 0.04402 0.84409 0.0
H1117 H 0.41496 0.00909 0.86992 0.0
H1118 H 0.29806 0.07989 0.85789 0.0
H1119 H 0.37961 0.04715 0.88371 0.0
H1120 H 0.28848 0.08583 0.90826 0.0
H1121 H 0.32457 0.04973 0.89435 0.0
H1122 H 0.29434 0.134 0.86904 0.0
H1123 H 0.25597 0.16865 0.88296 0.0
C1124 C 0.34498 0.04453 0.85273 0.0
C1125 C 0.37781 0.02375 0.85595 0.0
C1126 C 0.32393 0.06541 0.86066 0.0
C1127 C 0.33566 0.06677 0.872 0.0
C1128 C 0.36902 0.04629 0.87515 0.0
C1129 C 0.38956 0.02464 0.86724 0.0
C1130 C 0.28959 0.09661 0.89971 0.0
C1131 C 0.26953 0.13007 0.89667 0.0
C1132 C 0.31061 0.07604 0.89172 0.0
C1133 C 0.3129 0.08886 0.8805 0.0
C1134 C 0.29287 0.12267 0.87751 0.0
C1135 C 0.27104 0.14279 0.88549 0.0
H1136 H 0.85892 0.93167 0.84368 0.0
H1137 H 0.89336 0.01374 0.86906 0.0
H1138 H 0.82237 0.89612 0.85771 0.0
H1139 H 0.85597 0.9787 0.88308 0.0
H1140 H 0.72513 0.87032 0.88307 0.0
H1141 H 0.76471 0.90184 0.86882 0.0
H1142 H 0.85421 0.9196 0.89354 0.0
H1143 H 0.81435 0.88905 0.90778 0.0
C1144 C 0.85872 0.94211 0.85227 0.0
C1145 C 0.87911 0.9755 0.85527 0.0
C1146 C 0.83751 0.92185 0.8603 0.0
C1147 C 0.83608 0.93452 0.87153 0.0
C1148 C 0.85685 0.96776 0.87454 0.0
C1149 C 0.87816 0.98798 0.8665 0.0
C1150 C 0.75343 0.88059 0.88541 0.0
C1151 C 0.76655 0.87727 0.89655 0.0
C1152 C 0.77619 0.8986 0.87724 0.0
C1153 C 0.81261 0.91356 0.88004 0.0
C1154 C 0.82607 0.90913 0.89113 0.0
C1155 C 0.8033 0.89129 0.89927 0.0
H1156 H 0.88494 0.9871 0.63244 0.0
H1157 H 0.85683 0.07175 0.65774 0.0
H1158 H 0.85021 0.02489 0.61837 0.0
H1159 H 0.82324 0.10994 0.64371 0.0
H1160 H 0.72895 0.1449 0.61868 0.0
H1161 H 0.76562 0.10924 0.63275 0.0
H1162 H 0.85238 0.08368 0.60782 0.0
H1163 H 0.8152 0.11837 0.59373 0.0
C1164 C 0.87171 0.01395 0.63496 0.0
C1165 C 0.87357 0.02638 0.64619 0.0
C1166 C 0.85194 0.03574 0.6269 0.0
C1167 C 0.83379 0.0705 0.6299 0.0
C1168 C 0.83625 0.08306 0.64112 0.0
C1169 C 0.85578 0.06124 0.64916 0.0
C1170 C 0.75607 0.13203 0.61626 0.0
C1171 C 0.76918 0.13451 0.60511 0.0
C1172 C 0.77717 0.11161 0.62432 0.0
C1173 C 0.81195 0.09335 0.62142 0.0
C1174 C 0.82543 0.09673 0.61031 0.0
C1175 C 0.80427 0.11697 0.60226 0.0
H1176 H 0.61811 0.99865 0.36873 0.0
H1177 H 0.64384 0.08455 0.34362 0.0
H1178 H 0.64947 0.03804 0.38303 0.0
H1179 H 0.67424 0.1245 0.35795 0.0
H1180 H 0.76909 0.15871 0.38338 0.0
H1181 H 0.73177 0.12525 0.36899 0.0
H1182 H 0.64632 0.09569 0.39391 0.0
H1183 H 0.68421 0.12819 0.40831 0.0
C1184 C 0.62982 0.02628 0.3663 0.0
C1185 C 0.62853 0.0384 0.35503 0.0
C1186 C 0.64773 0.049 0.37451 0.0
C1187 C 0.66464 0.08451 0.37166 0.0
C1188 C 0.66218 0.09709 0.36043 0.0
C1189 C 0.64443 0.0743 0.35222 0.0
C1190 C 0.74206 0.14554 0.38574 0.0
C1191 C 0.72968 0.14606 0.39699 0.0
C1192 C 0.72055 0.12639 0.37748 0.0
C1193 C 0.68604 0.10744 0.38027 0.0
C1194 C 0.67305 0.10927 0.39147 0.0
C1195 C 0.69464 0.12823 0.39972 0.0
H1196 H 0.65049 0.93261 0.15754 0.0
H1197 H 0.62338 0.01739 0.1322 0.0
H1198 H 0.68321 0.89366 0.14345 0.0
H1199 H 0.65706 0.97895 0.11813 0.0
H1200 H 0.69062 0.88632 0.09331 0.0
H1201 H 0.65356 0.92021 0.10759 0.0
H1202 H 0.74076 0.8937 0.13233 0.0
H1203 H 0.77732 0.85885 0.11807 0.0
C1204 C 0.65152 0.94294 0.14894 0.0
C1205 C 0.6343 0.97808 0.14597 0.0
C1206 C 0.67053 0.9207 0.14088 0.0
C1207 C 0.67291 0.93312 0.12964 0.0
C1208 C 0.65532 0.96816 0.12666 0.0
C1209 C 0.63617 0.99035 0.13473 0.0
C1210 C 0.70166 0.88733 0.10183 0.0
C1211 C 0.7369 0.8699 0.10457 0.0
C1212 C 0.68056 0.90708 0.11 0.0
C1213 C 0.69427 0.91006 0.1211 0.0
C1214 C 0.72908 0.89167 0.1239 0.0
C1215 C 0.75012 0.87174 0.11572 0.0
H1216 H 0.68411 0.61651 0.59238 0.0
H1217 H 0.76576 0.65025 0.61796 0.0
H1218 H 0.64668 0.58207 0.60647 0.0
H1219 H 0.72892 0.61496 0.63201 0.0
H1220 H 0.61884 0.48559 0.63191 0.0
H1221 H 0.65123 0.52454 0.61766 0.0
H1222 H 0.66986 0.6141 0.64231 0.0
H1223 H 0.63859 0.57484 0.65654 0.0
C1224 C 0.69391 0.61683 0.60104 0.0
C1225 C 0.72784 0.63621 0.60407 0.0
C1226 C 0.67263 0.59676 0.60909 0.0
C1227 C 0.68484 0.59549 0.62037 0.0
C1228 C 0.71834 0.61571 0.62344 0.0
C1229 C 0.73956 0.63591 0.61538 0.0
C1230 C 0.62959 0.51373 0.63423 0.0
C1231 C 0.62633 0.52706 0.64534 0.0
C1232 C 0.64803 0.53615 0.62607 0.0
C1233 C 0.66339 0.57243 0.62885 0.0
C1234 C 0.65907 0.58605 0.63992 0.0
C1235 C 0.64088 0.56361 0.64806 0.0
H1236 H 0.76132 0.35905 0.8827 0.0
H1237 H 0.67754 0.38993 0.90794 0.0
H1238 H 0.72173 0.38945 0.86827 0.0
H1239 H 0.6374 0.41934 0.8935 0.0
H1240 H 0.60747 0.51471 0.86784 0.0
H1241 H 0.63905 0.4762 0.88227 0.0
H1242 H 0.66337 0.38819 0.85758 0.0
H1243 H 0.63274 0.42731 0.8431 0.0
C1244 C 0.73402 0.37154 0.88513 0.0
C1245 C 0.72265 0.37219 0.89646 0.0
C1246 C 0.7112 0.38892 0.87685 0.0
C1247 C 0.6764 0.4072 0.87971 0.0
C1248 C 0.66431 0.40623 0.891 0.0
C1249 C 0.6872 0.38906 0.89927 0.0
C1250 C 0.61901 0.48688 0.86554 0.0
C1251 C 0.6177 0.47415 0.85432 0.0
C1252 C 0.63706 0.46466 0.87382 0.0
C1253 C 0.65406 0.42907 0.8711 0.0
C1254 C 0.65124 0.4157 0.85995 0.0
C1255 C 0.63336 0.438 0.85166 0.0
H1256 H 0.80007 0.42022 0.09277 0.0
H1257 H 0.76029 0.34037 0.11796 0.0
H1258 H 0.83631 0.45504 0.10694 0.0
H1259 H 0.79891 0.37337 0.13214 0.0
H1260 H 0.83587 0.46396 0.15721 0.0
H1261 H 0.8018 0.42759 0.143 0.0
H1262 H 0.88903 0.45773 0.11858 0.0
H1263 H 0.92161 0.4967 0.13281 0.0
C1264 C 0.79963 0.40977 0.10135 0.0
C1265 C 0.77726 0.37772 0.1043 0.0
C1266 C 0.82078 0.42956 0.1095 0.0
C1267 C 0.82087 0.41724 0.12078 0.0
C1268 C 0.79903 0.38444 0.12363 0.0
C1269 C 0.77705 0.36524 0.11551 0.0
C1270 C 0.84788 0.46269 0.14881 0.0
C1271 C 0.88144 0.48312 0.14611 0.0
C1272 C 0.82844 0.44146 0.14063 0.0
C1273 C 0.84252 0.43925 0.12956 0.0
C1274 C 0.87672 0.45919 0.12693 0.0
C1275 C 0.8957 0.48131 0.13509 0.0
H1276 H 0.89354 0.49222 0.36798 0.0
H1277 H 0.865 0.57974 0.34357 0.0
H1278 H 0.85658 0.52686 0.38224 0.0
H1279 H 0.82907 0.61475 0.35781 0.0
H1280 H 0.73249 0.6441 0.38247 0.0
H1281 H 0.77032 0.60994 0.36833 0.0
H1282 H 0.85682 0.58474 0.39341 0.0
H1283 H 0.81858 0.61793 0.40755 0.0
C1284 C 0.87976 0.51904 0.3657 0.0
C1285 C 0.88214 0.53322 0.35467 0.0
C1286 C 0.85867 0.53898 0.37387 0.0
C1287 C 0.83969 0.57355 0.37116 0.0
C1288 C 0.84271 0.58791 0.36015 0.0
C1289 C 0.8636 0.56795 0.352 0.0
C1290 C 0.75967 0.63141 0.38493 0.0
C1291 C 0.77256 0.63371 0.3961 0.0
C1292 C 0.78144 0.61193 0.37683 0.0
C1293 C 0.81663 0.59451 0.37974 0.0
C1294 C 0.82961 0.59725 0.39091 0.0
C1295 C 0.8078 0.61656 0.399 0.0
H1296 H 0.23653 0.37742 0.38446 0.0
H1297 H 0.32082 0.40891 0.40953 0.0
H1298 H 0.27271 0.41297 0.37026 0.0
H1299 H 0.35753 0.44336 0.39534 0.0
H1300 H 0.36581 0.4475 0.34538 0.0
H1301 H 0.33079 0.41157 0.35961 0.0
H1302 H 0.35605 0.50015 0.38406 0.0
H1303 H 0.39221 0.53561 0.36982 0.0
C1304 C 0.26299 0.39157 0.38691 0.0
C1305 C 0.2758 0.39032 0.39811 0.0
C1306 C 0.28385 0.41186 0.37877 0.0
C1307 C 0.31811 0.43118 0.38164 0.0
C1308 C 0.33101 0.42946 0.39284 0.0
C1309 C 0.31008 0.4094 0.40097 0.0
C1310 C 0.36408 0.45926 0.35381 0.0
C1311 C 0.38189 0.49438 0.35649 0.0
C1312 C 0.34368 0.43876 0.36196 0.0
C1313 C 0.34033 0.45295 0.373 0.0
C1314 C 0.35841 0.48804 0.37569 0.0
C1315 C 0.37905 0.50849 0.36753 0.0
H1316 H 0.40724 0.49 0.13462 0.0
H1317 H 0.38269 0.57722 0.15948 0.0
H1318 H 0.37472 0.52838 0.12033 0.0
H1319 H 0.35128 0.61626 0.14515 0.0
H1320 H 0.33533 0.61569 0.09487 0.0
H1321 H 0.37536 0.58476 0.10906 0.0
H1322 H 0.29291 0.61583 0.1347 0.0
H1323 H 0.25356 0.64788 0.12053 0.0
C1324 C 0.39567 0.51778 0.13698 0.0
C1325 C 0.39745 0.53049 0.14818 0.0
C1326 C 0.37706 0.53992 0.12877 0.0
C1327 C 0.36001 0.57543 0.13157 0.0
C1328 C 0.36333 0.58878 0.14271 0.0
C1329 C 0.38169 0.56653 0.15092 0.0
C1330 C 0.32601 0.61636 0.10357 0.0
C1331 C 0.29125 0.63423 0.10658 0.0
C1332 C 0.34884 0.59833 0.1117 0.0
C1333 C 0.33735 0.59743 0.12305 0.0
C1334 C 0.30304 0.61632 0.12609 0.0
C1335 C 0.28033 0.63463 0.11795 0.0
H1336 H 0.11706 0.47914 0.86982 0.0
H1337 H 0.14077 0.56574 0.84475 0.0
H1338 H 0.14793 0.51913 0.88412 0.0
H1339 H 0.17046 0.60619 0.85903 0.0
H1340 H 0.26241 0.64592 0.88416 0.0
H1341 H 0.22771 0.60876 0.86999 0.0
H1342 H 0.14322 0.57674 0.89494 0.0
H1343 H 0.17858 0.61285 0.90913 0.0
C1344 C 0.12822 0.50702 0.86741 0.0
C1345 C 0.12653 0.51924 0.85617 0.0
C1346 C 0.14587 0.53004 0.87561 0.0
C1347 C 0.162 0.56589 0.87273 0.0
C1348 C 0.15912 0.57849 0.86152 0.0
C1349 C 0.14175 0.55541 0.85334 0.0
C1350 C 0.23625 0.6312 0.88658 0.0
C1351 C 0.22327 0.63232 0.89776 0.0
C1352 C 0.21622 0.60997 0.87845 0.0
C1353 C 0.1826 0.58959 0.8813 0.0
C1354 C 0.16929 0.59147 0.89246 0.0
C1355 C 0.18943 0.61246 0.90059 0.0
H1356 H 0.26115 0.361 0.62093 0.0
H1357 H 0.17215 0.38468 0.59655 0.0
H1358 H 0.22318 0.39314 0.63545 0.0
H1359 H 0.13363 0.41552 0.61106 0.0
H1360 H 0.1022 0.51328 0.6355 0.0
H1361 H 0.13409 0.47394 0.62132 0.0
H1362 H 0.16736 0.3926 0.64705 0.0
H1363 H 0.1365 0.43267 0.66124 0.0
C1364 C 0.23309 0.37226 0.61874 0.0
C1365 C 0.21974 0.37046 0.6076 0.0
C1366 C 0.21121 0.39067 0.62706 0.0
C1367 C 0.17536 0.40738 0.62443 0.0
C1368 C 0.16139 0.40384 0.61337 0.0
C1369 C 0.18337 0.38582 0.60506 0.0
C1370 C 0.1158 0.4867 0.63809 0.0
C1371 C 0.11679 0.47613 0.64949 0.0
C1372 C 0.13406 0.464 0.62996 0.0
C1373 C 0.15356 0.43002 0.63301 0.0
C1374 C 0.15328 0.41884 0.64439 0.0
C1375 C 0.13523 0.44166 0.65252 0.0
H1376 H 0.27902 0.12917 0.96976 0.0
H1377 H 0.17956 0.20069 0.9757 0.0
H1378 H 0.29116 0.12619 0.98993 0.0
H1379 H 0.19105 0.19675 0.99599 0.0
H1380 H 0.25415 0.22074 0.02949 0.0
H1381 H 0.23859 0.22125 0.00947 0.0
H1382 H 0.26562 0.10021 0.0074 0.0
H1383 H 0.28244 0.1 0.02734 0.0
C1384 C 0.25962 0.14413 0.97539 0.0
C1385 C 0.22853 0.16549 0.97113 0.0
C1386 C 0.26636 0.14208 0.98696 0.0
C1387 C 0.24217 0.16134 0.99457 0.0
C1388 C 0.21049 0.18197 0.99033 0.0
C1389 C 0.20366 0.18391 0.97873 0.0
C1390 C 0.25717 0.19432 0.02474 0.0
C1391 C 0.26985 0.16038 0.03 0.0
C1392 C 0.24771 0.19449 0.0133 0.0
C1393 C 0.25078 0.16075 0.00684 0.0
C1394 C 0.26326 0.12677 0.01211 0.0
C1395 C 0.27261 0.12657 0.02356 0.0
H1396 H 0.08461 0.0889 0.27474 0.0
H1397 H 0.13587 0.97862 0.28235 0.0
H1398 H 0.08219 0.0715 0.25484 0.0
H1399 H 0.13442 0.96195 0.26244 0.0
H1400 H 0.16276 0.96748 0.22427 0.0
H1401 H 0.16525 0.98416 0.24427 0.0
H1402 H 0.0473 0.02256 0.24275 0.0
H1403 H 0.0449 1.00619 0.22276 0.0
C1404 C 0.09529 0.06096 0.2722 0.0
C1405 C 0.11053 0.03526 0.28018 0.0
C1406 C 0.09394 0.05106 0.2608 0.0
C1407 C 0.10813 0.01539 0.25711 0.0
C1408 C 0.12373 0.98984 0.26504 0.0
C1409 C 0.12472 0.99955 0.27644 0.0
C1410 C 0.1374 0.97944 0.22823 0.0
C1411 C 0.10362 0.98544 0.22198 0.0
C1412 C 0.13875 0.98878 0.23967 0.0
C1413 C 0.10649 1.00475 0.24504 0.0
C1414 C 0.07268 0.01061 0.2388 0.0
C1415 C 0.07119 1.00086 0.2274 0.0
H1416 H 0.29136 0.87154 0.53279 0.0
H1417 H 0.17668 0.82951 0.52622 0.0
H1418 H 0.30458 0.87215 0.51261 0.0
H1419 H 0.19023 0.82922 0.50606 0.0
H1420 H 0.2142 0.87416 0.47055 0.0
H1421 H 0.20176 0.87545 0.49071 0.0
H1422 H 0.31368 0.82611 0.49696 0.0
H1423 H 0.32606 0.82434 0.47673 0.0
C1424 C 0.2689 0.86263 0.52703 0.0
C1425 C 0.23289 0.85063 0.53111 0.0
C1426 C 0.27664 0.86257 0.51548 0.0
C1427 C 0.24848 0.85073 0.50773 0.0
C1428 C 0.21242 0.83888 0.5118 0.0
C1429 C 0.20476 0.83871 0.52336 0.0
C1430 C 0.23608 0.86323 0.4762 0.0
C1431 C 0.27104 0.84883 0.47199 0.0
C1432 C 0.22892 0.86403 0.48777 0.0
C1433 C 0.25662 0.85067 0.49544 0.0
C1434 C 0.29189 0.83696 0.49127 0.0
C1435 C 0.29901 0.836 0.47968 0.0
H1436 H 0.47704 0.01431 0.78136 0.0
H1437 H 0.37395 0.94553 0.77909 0.0
H1438 H 0.47449 0.02603 0.76117 0.0
H1439 H 0.37199 0.95639 0.75875 0.0
H1440 H 0.35693 0.02636 0.72579 0.0
H1441 H 0.35955 0.01055 0.7458 0.0
H1442 H 0.48213 0.99276 0.74324 0.0
H1443 H 0.47954 0.00836 0.72327 0.0
C1444 C 0.45392 1.00153 0.77652 0.0
C1445 C 0.42556 0.97918 0.78182 0.0
C1446 C 0.45266 0.00795 0.76494 0.0
C1447 C 0.42299 0.99221 0.75836 0.0
C1448 C 0.39498 0.96925 0.76361 0.0
C1449 C 0.39633 0.96267 0.77523 0.0
C1450 C 0.38438 0.01881 0.72949 0.0
C1451 C 0.41807 0.01897 0.72295 0.0
C1452 C 0.38587 0.00965 0.74094 0.0
C1453 C 0.42107 1.00047 0.74611 0.0
C1454 C 0.45466 1.0003 0.73955 0.0
C1455 C 0.45318 0.0094 0.72811 0.0
H1456 H 0.6748 0.81893 0.97683 0.0
H1457 H 0.78885 0.86125 0.96935 0.0
H1458 H 0.69165 0.81576 0.99679 0.0
H1459 H 0.80492 0.85924 0.98927 0.0
H1460 H 0.79909 0.89418 0.0269 0.0
H1461 H 0.78299 0.89467 0.00686 0.0
H1462 H 0.73836 0.77922 0.00963 0.0
H1463 H 0.75439 0.77877 0.02971 0.0
C1464 C 0.70346 0.82735 0.9794 0.0
C1465 C 0.73028 0.84073 0.97145 0.0
C1466 C 0.71305 0.82561 0.99083 0.0
C1467 C 0.74949 0.83752 0.99457 0.0
C1468 C 0.7764 0.85049 0.98664 0.0
C1469 C 0.76703 0.85182 0.97522 0.0
C1470 C 0.78586 0.86893 0.02322 0.0
C1471 C 0.77807 0.83641 0.02984 0.0
C1472 C 0.77685 0.86912 0.01175 0.0
C1473 C 0.7594 0.83698 0.00671 0.0
C1474 C 0.75155 0.80447 0.01333 0.0
C1475 C 0.76105 0.80408 0.02477 0.0
H1476 H 0.97702 0.98391 0.7796 0.0
H1477 H 0.87048 0.04736 0.77863 0.0
H1478 H 0.97325 0.97363 0.75934 0.0
H1479 H 0.86565 0.03592 0.75842 0.0
H1480 H 0.8881 0.04178 0.72074 0.0
H1481 H 0.89152 0.05246 0.74089 0.0
H1482 H 0.94032 0.93913 0.7453 0.0
H1483 H 0.93961 0.92961 0.72501 0.0
C1484 C 0.95264 0.99545 0.77503 0.0
C1485 C 0.92409 0.0165 0.78067 0.0
C1486 C 0.95027 0.98932 0.76342 0.0
C1487 C 0.91898 1.00366 0.75718 0.0
C1488 C 0.89048 0.0249 0.76287 0.0
C1489 C 0.89315 0.03146 0.77447 0.0
C1490 C 0.90006 0.01926 0.72597 0.0
C1491 C 0.91406 0.98499 0.72117 0.0
C1492 C 0.90145 0.02518 0.73759 0.0
C1493 C 0.91637 0.99678 0.7448 0.0
C1494 C 0.92932 0.96202 0.74003 0.0
C1495 C 0.92833 0.95627 0.72838 0.0
H1496 H 0.70641 0.11402 0.52715 0.0
H1497 H 0.75173 0.22897 0.53048 0.0
H1498 H 0.72208 0.11437 0.50715 0.0
H1499 H 0.76874 0.22906 0.51057 0.0
H1500 H 0.76051 0.23089 0.47228 0.0
H1501 H 0.74346 0.23146 0.49217 0.0
H1502 H 0.77475 0.1114 0.49467 0.0
H1503 H 0.79045 0.11074 0.47466 0.0
C1504 C 0.7199 0.1393 0.52358 0.0
C1505 C 0.72776 0.1715 0.53034 0.0
C1506 C 0.72914 0.13946 0.51214 0.0
C1507 C 0.74693 0.17166 0.50721 0.0
C1508 C 0.75452 0.20398 0.514 0.0
C1509 C 0.74484 0.20396 0.52542 0.0
C1510 C 0.76404 0.20475 0.47713 0.0
C1511 C 0.77688 0.17079 0.47195 0.0
C1512 C 0.75433 0.20505 0.48854 0.0
C1513 C 0.75763 0.17146 0.49507 0.0
C1514 C 0.77107 0.13762 0.48988 0.0
C1515 C 0.78033 0.13724 0.47844 0.0
H1516 H 0.65997 0.99096 0.2775 0.0
H1517 H 0.53594 0.98995 0.2792 0.0
H1518 H 0.65655 1.00442 0.25736 0.0
H1519 H 0.53252 1.00345 0.2591 0.0
H1520 H 0.54251 0.98413 0.22101 0.0
H1521 H 0.54528 0.97292 0.24122 0.0
H1522 H 0.63838 0.05456 0.24405 0.0
H1523 H 0.63651 0.06473 0.22371 0.0
C1524 C 0.63197 0.99381 0.27359 0.0
C1525 C 0.59825 0.98915 0.27996 0.0
C1526 C 0.63001 1.00166 0.26205 0.0
C1527 C 0.59426 1.00507 0.2566 0.0
C1528 C 0.56054 1.00043 0.26298 0.0
C1529 C 0.5625 0.99257 0.27451 0.0
C1530 C 0.56368 0.9996 0.22593 0.0
C1531 C 0.58944 0.02516 0.22072 0.0
C1532 C 0.56501 0.99347 0.23755 0.0
C1533 C 0.59212 0.01275 0.24428 0.0
C1534 C 0.61745 0.03887 0.2391 0.0
C1535 C 0.61607 0.04507 0.22746 0.0
H1536 H 0.71192 0.65468 0.53179 0.0
H1537 H 0.82911 0.68719 0.52453 0.0
H1538 H 0.69641 0.65768 0.51181 0.0
H1539 H 0.81374 0.68985 0.50449 0.0
H1540 H 0.76486 0.72866 0.47098 0.0
H1541 H 0.77761 0.72736 0.49114 0.0
H1542 H 0.70838 0.62475 0.49426 0.0
H1543 H 0.69525 0.62644 0.47405 0.0
C1544 C 0.73451 0.66204 0.5259 0.0
C1545 C 0.77183 0.67051 0.52974 0.0
C1546 C 0.72559 0.66377 0.51444 0.0
C1547 C 0.75379 0.67398 0.50653 0.0
C1548 C 0.79114 0.68248 0.51037 0.0
C1549 C 0.80002 0.68088 0.52185 0.0
C1550 C 0.75234 0.70584 0.47598 0.0
C1551 C 0.72923 0.67752 0.47092 0.0
C1552 C 0.75978 0.705 0.48753 0.0
C1553 C 0.74438 0.67573 0.49431 0.0
C1554 C 0.72042 0.64792 0.4893 0.0
C1555 C 0.71285 0.64887 0.47773 0.0
H1556 H 0.64812 0.52374 0.71951 0.0
H1557 H 0.55637 0.44217 0.72477 0.0
H1558 H 0.65036 0.53674 0.73971 0.0
H1559 H 0.55868 0.4551 0.74505 0.0
H1560 H 0.5432 0.52851 0.77748 0.0
H1561 H 0.54294 0.51272 0.75741 0.0
H1562 H 0.66668 0.50318 0.75794 0.0
H1563 H 0.66696 0.51915 0.77801 0.0
C1564 C 0.62857 0.50845 0.72501 0.0
C1565 C 0.60193 0.48208 0.72058 0.0
C1566 C 0.63002 0.51573 0.73657 0.0
C1567 C 0.60456 0.4971 0.74394 0.0
C1568 C 0.57839 0.47016 0.73954 0.0
C1569 C 0.57728 0.4625 0.72797 0.0
C1570 C 0.57035 0.52341 0.77328 0.0
C1571 C 0.60512 0.52525 0.77929 0.0
C1572 C 0.57016 0.51392 0.76183 0.0
C1573 C 0.60477 0.50653 0.75613 0.0
C1574 C 0.63959 0.50886 0.76211 0.0
C1575 C 0.63974 0.51786 0.77359 0.0
H1576 H 0.83401 0.35219 0.97622 0.0
H1577 H 0.71427 0.37447 0.96907 0.0
H1578 H 0.81941 0.34896 0.99627 0.0
H1579 H 0.69991 0.37257 0.98915 0.0
H1580 H 0.68441 0.31903 0.02466 0.0
H1581 H 0.69681 0.32572 0.0045 0.0
H1582 H 0.80004 0.3901 0.01183 0.0
H1583 H 0.78771 0.38339 0.03189 0.0
C1584 C 0.80461 0.35661 0.97894 0.0
C1585 C 0.77537 0.3637 0.97104 0.0
C1586 C 0.79628 0.35511 0.99044 0.0
C1587 C 0.75847 0.36058 0.99432 0.0
C1588 C 0.72926 0.36792 0.98643 0.0
C1589 C 0.73761 0.36951 0.97493 0.0
C1590 C 0.70948 0.33499 0.02194 0.0
C1591 C 0.73529 0.35027 0.02988 0.0
C1592 C 0.7166 0.33884 0.0104 0.0
C1593 C 0.74964 0.35813 0.00655 0.0
C1594 C 0.77479 0.37435 0.0145 0.0
C1595 C 0.76769 0.3705 0.02601 0.0
H1596 H 0.95946 0.55278 0.28001 0.0
H1597 H 0.88637 0.45326 0.27575 0.0
H1598 H 0.95225 0.56803 0.26027 0.0
H1599 H 0.8823 0.4664 0.25571 0.0
H1600 H 0.84984 0.51769 0.2222 0.0
H1601 H 0.85429 0.50636 0.24242 0.0
H1602 H 0.97014 0.55181 0.24227 0.0
H1603 H 0.96429 0.56517 0.22222 0.0
C1604 C 0.94192 0.53396 0.27488 0.0
C1605 C 0.9231 0.50199 0.2796 0.0
C1606 C 0.93833 0.5424 0.26344 0.0
C1607 C 0.91657 0.5186 0.25629 0.0
C1608 C 0.89864 0.48596 0.26095 0.0
C1609 C 0.90161 0.47794 0.27246 0.0
C1610 C 0.87592 0.52577 0.2266 0.0
C1611 C 0.90661 0.54256 0.22074 0.0
C1612 C 0.87876 0.51884 0.23815 0.0
C1613 C 0.91275 0.52775 0.24406 0.0
C1614 C 0.94323 0.54512 0.23813 0.0
C1615 C 0.94001 0.55278 0.22662 0.0
H1616 H 0.32969 0.3784 0.52727 0.0
H1617 H 0.21033 0.35152 0.53366 0.0
H1618 H 0.31751 0.37514 0.50712 0.0
H1619 H 0.19757 0.35155 0.51365 0.0
H1620 H 0.19407 0.31285 0.47712 0.0
H1621 H 0.20633 0.31567 0.49733 0.0
H1622 H 0.28878 0.40691 0.49191 0.0
H1623 H 0.2776 0.40253 0.47169 0.0
C1624 C 0.30083 0.372 0.52442 0.0
C1625 C 0.27105 0.36537 0.53218 0.0
C1626 C 0.29366 0.37071 0.51282 0.0
C1627 C 0.25646 0.36316 0.50868 0.0
C1628 C 0.2267 0.35688 0.51645 0.0
C1629 C 0.23395 0.35762 0.52801 0.0
C1630 C 0.21457 0.33363 0.48031 0.0
C1631 C 0.23494 0.35739 0.47288 0.0
C1632 C 0.22159 0.33542 0.49189 0.0
C1633 C 0.24868 0.36151 0.49633 0.0
C1634 C 0.26837 0.38587 0.48884 0.0
C1635 C 0.26177 0.38362 0.47725 0.0
H1636 H 0.40113 0.54265 0.2207 0.0
H1637 H 0.41735 0.42232 0.22842 0.0
H1638 H 0.404 0.55809 0.24068 0.0
H1639 H 0.42063 0.43793 0.24843 0.0
H1640 H 0.47056 0.48623 0.28119 0.0
H1641 H 0.46506 0.47148 0.26122 0.0
H1642 H 0.36874 0.54931 0.25852 0.0
H1643 H 0.37397 0.56387 0.27859 0.0
C1644 C 0.40471 0.51937 0.22666 0.0
C1645 C 0.40896 0.48118 0.22292 0.0
C1646 C 0.40647 0.5283 0.23812 0.0
C1647 C 0.41273 0.49929 0.24614 0.0
C1648 C 0.41641 0.46103 0.24244 0.0
C1649 C 0.41451 0.45208 0.23097 0.0
C1650 C 0.44801 0.50004 0.27637 0.0
C1651 C 0.42256 0.52607 0.28153 0.0
C1652 C 0.44484 0.49152 0.26492 0.0
C1653 C 0.41625 0.50894 0.2583 0.0
C1654 C 0.39127 0.53561 0.26337 0.0
C1655 C 0.39435 0.54405 0.27487 0.0
H1656 H 0.2283 0.59613 0.02978 0.0
H1657 H 0.25078 0.71821 0.03105 0.0
H1658 H 0.2421 0.59605 0.00963 0.0
H1659 H 0.26333 0.71836 0.01087 0.0
H1660 H 0.31922 0.6989 0.97668 0.0
H1661 H 0.31042 0.69534 0.99707 0.0
H1662 H 0.21316 0.61984 0.99227 0.0
H1663 H 0.22269 0.62246 0.97198 0.0
C1664 C 0.23617 0.62294 0.02576 0.0
C1665 C 0.23823 0.6572 0.03201 0.0
C1666 C 0.2438 0.62295 0.0142 0.0
C1667 C 0.25384 0.6572 0.00864 0.0
C1668 C 0.2561 0.69141 0.01491 0.0
C1669 C 0.24835 0.69142 0.02646 0.0
C1670 C 0.29635 0.6811 0.98 0.0
C1671 C 0.27151 0.66118 0.97272 0.0
C1672 C 0.29104 0.67939 0.99167 0.0
C1673 C 0.26091 0.65751 0.9963 0.0
C1674 C 0.23679 0.63674 0.989 0.0
C1675 C 0.24201 0.63857 0.97736 0.0
H1676 H 0.16288 0.45764 0.77826 0.0
H1677 H 0.0471 0.50047 0.78183 0.0
H1678 H 0.1626 0.47608 0.75843 0.0
H1679 H 0.04709 0.5203 0.76218 0.0
H1680 H 0.04412 0.51496 0.72399 0.0
H1681 H 0.04464 0.4965 0.74373 0.0
H1682 H 0.16434 0.5292 0.74608 0.0
H1683 H 0.16392 0.54629 0.72614 0.0
C1684 C 0.13747 0.47121 0.77479 0.0
C1685 C 0.10491 0.47733 0.78154 0.0
C1686 C 0.13734 0.48205 0.76345 0.0
C1687 C 0.10481 0.49976 0.75865 0.0
C1688 C 0.07237 0.50605 0.76548 0.0
C1689 C 0.07235 0.49475 0.77676 0.0
C1690 C 0.0704 0.51858 0.72877 0.0
C1691 C 0.10392 0.53226 0.72356 0.0
C1692 C 0.07074 0.50805 0.74011 0.0
C1693 C 0.10453 0.51136 0.74657 0.0
C1694 C 0.13797 0.52558 0.74135 0.0
C1695 C 0.13772 0.53565 0.72995 0.0
H1696 H 0.30507 0.82356 0.0665 0.0
H1697 H 0.24298 0.81902 0.09794 0.0
H1698 H 0.31892 0.89107 0.06958 0.0
H1699 H 0.25607 0.88788 0.10086 0.0
H1700 H 0.25857 0.02281 0.09153 0.0
H1701 H 0.2418 0.95444 0.09083 0.0
H1702 H 0.36059 0.92637 0.0843 0.0
H1703 H 0.37727 0.99468 0.08495 0.0
C1704 C 0.29441 0.83695 0.0741 0.0
C1705 C 0.27365 0.8156 0.08211 0.0
C1706 C 0.30236 0.8757 0.07585 0.0
C1707 C 0.28931 0.89443 0.08557 0.0
C1708 C 0.26669 0.87392 0.09333 0.0
C1709 C 0.25903 0.83467 0.09163 0.0
C1710 C 0.28108 1.00197 0.08999 0.0
C1711 C 0.31918 0.01401 0.08812 0.0
C1712 C 0.27152 0.96289 0.08971 0.0
C1713 C 0.29983 0.93525 0.08741 0.0
C1714 C 0.33815 0.9472 0.08599 0.0
C1715 C 0.34777 0.98617 0.08642 0.0
H1716 H 0.46272 0.06952 0.34681 0.0
H1717 H 0.42752 0.96517 0.33032 0.0
H1718 H 0.39559 0.08616 0.35041 0.0
H1719 H 0.35998 0.98209 0.33339 0.0
H1720 H 0.23997 0.0155 0.34382 0.0
H1721 H 0.30637 0.99365 0.34538 0.0
H1722 H 0.34563 0.10944 0.33881 0.0
H1723 H 0.27913 0.13116 0.33754 0.0
C1724 C 0.44034 0.04972 0.34424 0.0
C1725 C 0.44989 0.01601 0.3384 0.0
C1726 C 0.40194 0.05942 0.34613 0.0
C1727 C 0.37219 0.03592 0.34199 0.0
C1728 C 0.382 1.0008 0.33678 0.0
C1729 C 0.42059 0.99091 0.33504 0.0
C1730 C 0.26286 0.03623 0.34273 0.0
C1731 C 0.25444 0.075 0.34041 0.0
C1732 C 0.30095 0.02371 0.34363 0.0
C1733 C 0.33155 0.04963 0.34217 0.0
C1734 C 0.32294 0.08867 0.34019 0.0
C1735 C 0.28484 0.10122 0.33939 0.0
H1736 H 0.2398 0.19335 0.60065 0.0
H1737 H 0.22909 0.18262 0.56464 0.0
H1738 H 0.22421 0.12457 0.60272 0.0
H1739 H 0.21431 0.11464 0.56658 0.0
H1740 H 0.14085 0.01236 0.57322 0.0
H1741 H 0.15852 0.07982 0.57335 0.0
H1742 H 0.24507 0.05723 0.59857 0.0
H1743 H 0.22624 0.98955 0.59881 0.0
C1744 C 0.23493 0.17604 0.5932 0.0
C1745 C 0.23508 0.19317 0.5825 0.0
C1746 C 0.22589 0.13684 0.59436 0.0
C1747 C 0.21702 0.11437 0.58482 0.0
C1748 C 0.21971 0.1313 0.57412 0.0
C1749 C 0.22847 0.17015 0.57299 0.0
C1750 C 0.16312 0.02167 0.57896 0.0
C1751 C 0.18235 0.9952 0.5859 0.0
C1752 C 0.17365 0.0604 0.57893 0.0
C1753 C 0.20378 0.0738 0.5858 0.0
C1754 C 0.22186 0.04782 0.59315 0.0
C1755 C 0.21128 0.00894 0.59319 0.0
H1756 H 0.28628 0.99872 0.83363 0.0
H1757 H 0.25648 0.87822 0.83401 0.0
H1758 H 0.21862 0.01577 0.8352 0.0
H1759 H 0.18865 0.89523 0.8355 0.0
H1760 H 0.07674 0.93375 0.85018 0.0
H1761 H 0.14574 0.92241 0.84932 0.0
H1762 H 0.15713 0.01477 0.82523 0.0
H1763 H 0.08766 0.0264 0.82631 0.0
C1764 C 0.26528 0.97581 0.83385 0.0
C1765 C 0.27684 0.93699 0.83367 0.0
C1766 C 0.22642 0.98566 0.83478 0.0
C1767 C 0.19819 0.95693 0.83559 0.0
C1768 C 0.20971 0.91813 0.83515 0.0
C1769 C 0.24854 0.90831 0.83424 0.0
C1770 C 0.09412 0.95192 0.84482 0.0
C1771 C 0.07691 0.98069 0.83823 0.0
C1772 C 0.13359 0.94525 0.84424 0.0
C1773 C 0.15688 0.96705 0.837 0.0
C1774 C 0.14001 0.99743 0.8309 0.0
C1775 C 0.10033 1.00425 0.83153 0.0
H1776 H 0.31895 0.19914 0.43425 0.0
H1777 H 0.22881 0.18126 0.40988 0.0
H1778 H 0.33058 0.13029 0.43513 0.0
H1779 H 0.24083 0.11159 0.41055 0.0
H1780 H 0.25656 0.98528 0.42163 0.0
H1781 H 0.23895 0.05308 0.42216 0.0
H1782 H 0.35923 0.08394 0.42261 0.0
H1783 H 0.37679 0.01615 0.42252 0.0
C1784 C 0.30156 0.18026 0.42908 0.0
C1785 C 0.2734 0.19543 0.42187 0.0
C1786 C 0.30833 0.14084 0.42954 0.0
C1787 C 0.28726 0.11547 0.42273 0.0
C1788 C 0.25758 0.1304 0.41591 0.0
C1789 C 0.25062 0.17015 0.41552 0.0
C1790 C 0.27928 1.00647 0.42204 0.0
C1791 C 0.3182 0.99522 0.42216 0.0
C1792 C 0.26912 0.04539 0.42219 0.0
C1793 C 0.29761 0.07396 0.42248 0.0
C1794 C 0.33649 0.06267 0.42256 0.0
C1795 C 0.34663 0.02381 0.42241 0.0
H1796 H 0.06807 0.06901 0.67927 0.0
H1797 H 0.08003 0.97527 0.65577 0.0
H1798 H 0.13681 0.08105 0.67842 0.0
H1799 H 0.14967 0.98751 0.65476 0.0
H1800 H 0.27821 1.004 0.66533 0.0
H1801 H 0.21028 0.987 0.66574 0.0
H1802 H 0.18034 0.10746 0.66438 0.0
H1803 H 0.24839 0.1245 0.66441 0.0
C1804 C 0.08566 0.05088 0.67394 0.0
C1805 C 0.06884 0.02155 0.66747 0.0
C1806 C 0.12496 0.05793 0.67339 0.0
C1807 C 0.14856 0.0359 0.66631 0.0
C1808 C 0.13214 1.00509 0.66026 0.0
C1809 C 0.09247 0.99792 0.66086 0.0
C1810 C 0.25717 0.02691 0.66522 0.0
C1811 C 0.2687 0.06574 0.66508 0.0
C1812 C 0.21821 0.01707 0.6653 0.0
C1813 C 0.18993 0.04584 0.66525 0.0
C1814 C 0.20148 0.0846 0.66465 0.0
C1815 C 0.24041 0.09442 0.66456 0.0
H1816 H 0.27096 0.83848 0.90964 0.0
H1817 H 0.17791 0.82459 0.93326 0.0
H1818 H 0.25964 0.90831 0.9095 0.0
H1819 H 0.16677 0.8935 0.93323 0.0
H1820 H 0.12452 0.00765 0.91958 0.0
H1821 H 0.14056 0.93941 0.9199 0.0
H1822 H 0.26142 0.96762 0.92105 0.0
H1823 H 0.24539 0.03581 0.92034 0.0
C1824 C 0.24854 0.85043 0.91491 0.0
C1825 C 0.22486 0.82613 0.9213 0.0
C1826 C 0.24198 0.89029 0.91483 0.0
C1827 C 0.21174 0.90635 0.92118 0.0
C1828 C 0.18951 0.88203 0.92798 0.0
C1829 C 0.19597 0.84252 0.92803 0.0
C1830 C 0.15448 0.99929 0.91986 0.0
C1831 C 0.18354 0.02725 0.92006 0.0
C1832 C 0.16373 0.9602 0.92013 0.0
C1833 C 0.20232 0.94805 0.92059 0.0
C1834 C 0.23146 0.97598 0.92065 0.0
C1835 C 0.22218 0.01512 0.92042 0.0
H1836 H 0.26481 0.88922 0.16074 0.0
H1837 H 0.23088 0.00863 0.16026 0.0
H1838 H 0.33187 0.9083 0.15865 0.0
H1839 H 0.29785 0.0278 0.15817 0.0
H1840 H 0.42609 0.03992 0.17078 0.0
H1841 H 0.35665 0.02858 0.16946 0.0
H1842 H 0.37718 0.93668 0.1457 0.0
H1843 H 0.44621 0.94768 0.14729 0.0
C1844 C 0.27165 0.91949 0.16005 0.0
C1845 C 0.24258 0.9473 0.16082 0.0
C1846 C 0.31005 0.93051 0.15881 0.0
C1847 C 0.32027 0.96967 0.15826 0.0
C1848 C 0.29105 0.99747 0.15875 0.0
C1849 C 0.25265 0.98643 0.16 0.0
C1850 C 0.41546 0.01818 0.16504 0.0
C1851 C 0.44125 0.99441 0.15922 0.0
C1852 C 0.37579 0.01151 0.1643 0.0
C1853 C 0.36143 0.9811 0.15766 0.0
C1854 C 0.38731 0.95959 0.15113 0.0
C1855 C 0.42675 0.96608 0.15194 0.0
H1856 H 0.65987 0.02136 0.90321 0.0
H1857 H 0.73424 0.99116 0.93098 0.0
H1858 H 0.68397 0.08749 0.90397 0.0
H1859 H 0.75921 0.05623 0.93141 0.0
H1860 H 0.74678 0.18493 0.93963 0.0
H1861 H 0.73189 0.11711 0.93725 0.0
H1862 H 0.74241 0.12942 0.90118 0.0
H1863 H 0.75704 0.19824 0.9037 0.0
C1864 C 0.68139 0.0287 0.90943 0.0
C1865 C 0.69496 1.00089 0.91706 0.0
C1866 C 0.69562 0.06643 0.90976 0.0
C1867 C 0.72352 0.0771 0.91775 0.0
C1868 C 0.73752 0.04907 0.92521 0.0
C1869 C 0.72337 0.01159 0.92489 0.0
C1870 C 0.74659 0.17292 0.93121 0.0
C1871 C 0.75306 0.1966 0.92185 0.0
C1872 C 0.73818 0.13407 0.92983 0.0
C1873 C 0.73582 0.11784 0.91902 0.0
C1874 C 0.7437 0.14122 0.90961 0.0
C1875 C 0.75255 0.18033 0.91103 0.0
H1876 H 0.77909 1.0032 0.66656 0.0
H1877 H 0.74707 0.88538 0.67297 0.0
H1878 H 0.71153 0.02249 0.66754 0.0
H1879 H 0.67937 0.90462 0.67393 0.0
H1880 H 0.57425 0.96078 0.68965 0.0
H1881 H 0.64236 0.94653 0.68794 0.0
H1882 H 0.64683 0.01091 0.65692 0.0
H1883 H 0.57758 0.02461 0.65852 0.0
C1884 C 0.75756 0.98148 0.66824 0.0
C1885 C 0.76825 0.94283 0.66988 0.0
C1886 C 0.71893 0.99248 0.66867 0.0
C1887 C 0.69033 0.96512 0.67089 0.0
C1888 C 0.70096 0.92637 0.67232 0.0
C1889 C 0.73954 0.91529 0.67173 0.0
C1890 C 0.58966 0.97193 0.68245 0.0
C1891 C 0.57041 0.99314 0.67409 0.0
C1892 C 0.62865 0.9637 0.68147 0.0
C1893 C 0.64961 0.97686 0.67218 0.0
C1894 C 0.63116 1.00023 0.66414 0.0
C1895 C 0.59172 0.00825 0.66508 0.0
H1896 H 0.82576 0.01939 0.39485 0.0
H1897 H 0.78718 0.02139 0.42933 0.0
H1898 H 0.80178 0.9538 0.39283 0.0
H1899 H 0.76443 0.95541 0.42754 0.0
H1900 H 0.70951 0.84178 0.42109 0.0
H1901 H 0.71938 0.9115 0.41976 0.0
H1902 H 0.81874 0.89203 0.39865 0.0
H1903 H 0.80752 0.8234 0.39957 0.0
C1904 C 0.81254 1.00556 0.40203 0.0
C1905 C 0.80872 0.02527 0.41229 0.0
C1906 C 0.79864 0.968 0.40089 0.0
C1907 C 0.78114 0.94904 0.41003 0.0
C1908 C 0.77696 0.96914 0.42024 0.0
C1909 C 0.79038 0.00684 0.42132 0.0
C1910 C 0.73258 0.85273 0.41589 0.0
C1911 C 0.75807 0.82729 0.41057 0.0
C1912 C 0.73868 0.89257 0.41525 0.0
C1913 C 0.77036 0.90756 0.40927 0.0
C1914 C 0.79395 0.88192 0.40328 0.0
C1915 C 0.78775 0.8424 0.40389 0.0
H1916 H 0.93781 0.04404 0.1903 0.0
H1917 H 0.9341 0.98274 0.15871 0.0
H1918 H 0.86922 0.05652 0.18904 0.0
H1919 H 0.86445 0.9947 0.15755 0.0
H1920 H 0.73237 1.00011 0.16697 0.0
H1921 H 0.80012 0.9813 0.16808 0.0
H1922 H 0.83092 0.09878 0.17561 0.0
H1923 H 0.76321 0.1175 0.17453 0.0
C1924 C 0.92224 0.03307 0.18309 0.0
C1925 C 0.94151 0.01312 0.17447 0.0
C1926 C 0.88294 0.04024 0.18238 0.0
C1927 C 0.86169 0.0273 0.17309 0.0
C1928 C 0.88027 1.00514 0.16479 0.0
C1929 C 0.91998 0.99815 0.16546 0.0
C1930 C 0.75363 0.02182 0.16895 0.0
C1931 C 0.74254 0.06025 0.17081 0.0
C1932 C 0.79238 0.0111 0.16946 0.0
C1933 C 0.8207 0.03851 0.17199 0.0
C1934 C 0.80961 0.07696 0.17376 0.0
C1935 C 0.77097 0.08775 0.17309 0.0
H1936 H 0.7951 0.8397 0.57904 0.0
H1937 H 0.68622 0.80934 0.5937 0.0
H1938 H 0.7795 0.90808 0.58118 0.0
H1939 H 0.67092 0.87717 0.59641 0.0
H1940 H 0.63181 0.99481 0.58383 0.0
H1941 H 0.65153 0.92766 0.58466 0.0
H1942 H 0.76764 0.96292 0.59259 0.0
H1943 H 0.74782 0.03008 0.59144 0.0
C1944 C 0.76846 0.84785 0.5831 0.0
C1945 C 0.74181 0.81959 0.58621 0.0
C1946 C 0.75934 0.88695 0.58432 0.0
C1947 C 0.72352 0.89837 0.58879 0.0
C1948 C 0.69823 0.86968 0.59263 0.0
C1949 C 0.70712 0.83082 0.59125 0.0
C1950 C 0.66142 0.98811 0.58584 0.0
C1951 C 0.68824 0.0177 0.58745 0.0
C1952 C 0.67283 0.94958 0.58638 0.0
C1953 C 0.71131 0.9396 0.58872 0.0
C1954 C 0.73797 0.96935 0.59058 0.0
C1955 C 0.7266 0.00791 0.58992 0.0
H1956 H 0.77149 0.93908 0.35155 0.0
H1957 H 0.74634 0.99361 0.31972 0.0
H1958 H 0.83783 0.96196 0.35037 0.0
H1959 H 0.81172 0.01771 0.3188 0.0
H1960 H 0.94136 1.00055 0.31328 0.0
H1961 H 0.87311 0.98783 0.31544 0.0
H1962 H 0.88017 0.0201 0.35052 0.0
H1963 H 0.94951 0.03229 0.34826 0.0
C1964 C 0.77999 0.95598 0.34433 0.0
C1965 C 0.75353 0.96425 0.33569 0.0
C1966 C 0.81786 0.96962 0.34374 0.0
C1967 C 0.83009 0.99167 0.33449 0.0
C1968 C 0.80338 1.00052 0.326 0.0
C1969 C 0.76573 0.98691 0.32657 0.0
C1970 C 0.92816 1.00548 0.3214 0.0
C1971 C 0.95055 0.01727 0.33061 0.0
C1972 C 0.88901 0.99839 0.32265 0.0
C1973 C 0.87114 1.0028 0.33317 0.0
C1974 C 0.89323 0.01609 0.34233 0.0
C1975 C 0.93266 0.02353 0.34104 0.0
H1976 H 0.80374 0.98074 0.10038 0.0
H1977 H 0.83713 1.00222 0.06599 0.0
H1978 H 0.78 0.04686 0.10198 0.0
H1979 H 0.81325 0.06828 0.06755 0.0
H1980 H 0.73287 0.17203 0.0711 0.0
H1981 H 0.74754 0.10281 0.0705 0.0
H1982 H 0.81182 0.11366 0.10145 0.0
H1983 H 0.79765 0.18262 0.10184 0.0
C1984 C 0.80608 0.9997 0.09318 0.0
C1985 C 0.82257 0.98648 0.0831 0.0
C1986 C 0.79248 0.03743 0.09409 0.0
C1987 C 0.79444 0.06255 0.08485 0.0
C1988 C 0.81091 0.04936 0.07476 0.0
C1989 C 0.8251 0.01179 0.07391 0.0
C1990 C 0.74905 0.15914 0.07792 0.0
C1991 C 0.76389 0.18224 0.08657 0.0
C1992 C 0.75789 0.11983 0.07751 0.0
C1993 C 0.78111 0.10298 0.08588 0.0
C1994 C 0.79375 0.12577 0.09492 0.0
C1995 C 0.78556 0.16509 0.09518 0.0
H1996 H 0.78472 0.99998 0.82927 0.0
H1997 H 0.75756 0.12094 0.8317 0.0
H1998 H 0.71654 0.98465 0.82883 0.0
H1999 H 0.68944 0.10548 0.83186 0.0
H2000 H 0.57041 0.07246 0.82183 0.0
H2001 H 0.63923 0.08297 0.82 0.0
H2002 H 0.66074 0.98353 0.84091 0.0
H2003 H 0.59121 0.97257 0.84241 0.0
C2004 C 0.76432 0.02341 0.8296 0.0
C2005 C 0.7768 0.06185 0.83045 0.0
C2006 C 0.72511 0.0145 0.82952 0.0
C2007 C 0.6974 0.04376 0.8303 0.0
C2008 C 0.70991 0.08218 0.83107 0.0
C2009 C 0.74905 0.09109 0.8311 0.0
C2010 C 0.58993 0.05275 0.82597 0.0
C2011 C 0.57565 0.02203 0.83239 0.0
C2012 C 0.62935 0.05885 0.82498 0.0
C2013 C 0.6556 0.03459 0.83049 0.0
C2014 C 0.64134 1.00271 0.83651 0.0
C2015 C 0.60164 0.99638 0.8374 0.0
H2016 H 0.70475 0.33956 0.57882 0.0
H2017 H 0.80811 0.31101 0.59689 0.0
H2018 H 0.71995 0.40814 0.58061 0.0
H2019 H 0.82286 0.37915 0.59922 0.0
H2020 H 0.86665 0.49476 0.58629 0.0
H2021 H 0.84631 0.42782 0.58741 0.0
H2022 H 0.72843 0.46456 0.59163 0.0
H2023 H 0.74897 0.53142 0.5902 0.0
C2024 C 0.72993 0.34821 0.58356 0.0
C2025 C 0.75525 0.32033 0.58775 0.0
C2026 C 0.73884 0.38742 0.58456 0.0
C2027 C 0.77312 0.39937 0.58988 0.0
C2028 C 0.79684 0.37119 0.59479 0.0
C2029 C 0.78818 0.33218 0.59363 0.0
C2030 C 0.83648 0.48844 0.58755 0.0
C2031 C 0.80946 0.51832 0.58803 0.0
C2032 C 0.82471 0.45005 0.58825 0.0
C2033 C 0.78558 0.44052 0.58964 0.0
C2034 C 0.75866 0.47061 0.59037 0.0
C2035 C 0.77043 0.509 0.58954 0.0
H2036 H 0.76611 0.58241 0.84951 0.0
H2037 H 0.73886 0.50856 0.82138 0.0
H2038 H 0.83274 0.55966 0.84904 0.0
H2039 H 0.80485 0.48532 0.82108 0.0
H2040 H 0.935 0.50353 0.81402 0.0
H2041 H 0.86631 0.51593 0.81585 0.0
H2042 H 0.87492 0.50045 0.85185 0.0
H2043 H 0.94434 0.48787 0.84987 0.0
C2044 C 0.77427 0.5613 0.84326 0.0
C2045 C 0.74716 0.54748 0.83545 0.0
C2046 C 0.81229 0.54787 0.84309 0.0
C2047 C 0.82405 0.52065 0.83503 0.0
C2048 C 0.79676 0.50644 0.82736 0.0
C2049 C 0.75884 0.51962 0.82758 0.0
C2050 C 0.92195 0.50198 0.82228 0.0
C2051 C 0.94469 0.49462 0.8318 0.0
C2052 C 0.88266 0.50902 0.82335 0.0
C2053 C 0.86516 0.50933 0.834 0.0
C2054 C 0.88769 0.50066 0.84354 0.0
C2055 C 0.92716 0.49302 0.84242 0.0
H2056 H 0.7997 0.66818 0.07549 0.0
H2057 H 0.69746 0.69036 0.09479 0.0
H2058 H 0.78516 0.59913 0.07561 0.0
H2059 H 0.68336 0.6217 0.09542 0.0
H2060 H 0.6398 0.50908 0.08101 0.0
H2061 H 0.65973 0.57612 0.08241 0.0
H2062 H 0.77815 0.54009 0.08571 0.0
H2063 H 0.7581 0.47324 0.08402 0.0
C2064 C 0.77492 0.65795 0.08011 0.0
C2065 C 0.74969 0.68423 0.08515 0.0
C2066 C 0.76638 0.61851 0.08016 0.0
C2067 C 0.73257 0.60478 0.08533 0.0
C2068 C 0.70898 0.63118 0.09106 0.0
C2069 C 0.71728 0.67042 0.09087 0.0
C2070 C 0.67004 0.51557 0.08203 0.0
C2071 C 0.69728 0.48585 0.08233 0.0
C2072 C 0.68155 0.55399 0.08292 0.0
C2073 C 0.72063 0.56369 0.08429 0.0
C2074 C 0.74792 0.53387 0.08453 0.0
C2075 C 0.73639 0.49545 0.08354 0.0
H2076 H 0.78828 0.51473 0.33083 0.0
H2077 H 0.75598 0.39479 0.33116 0.0
H2078 H 0.72106 0.53305 0.33288 0.0
H2079 H 0.68877 0.41319 0.33331 0.0
H2080 H 0.58112 0.45449 0.35017 0.0
H2081 H 0.64972 0.44237 0.34827 0.0
H2082 H 0.65728 0.53176 0.32314 0.0
H2083 H 0.58803 0.54393 0.32513 0.0
C2084 C 0.76688 0.4922 0.33113 0.0
C2085 C 0.77768 0.45313 0.33083 0.0
C2086 C 0.72829 0.50281 0.33236 0.0
C2087 C 0.69962 0.47463 0.33339 0.0
C2088 C 0.71028 0.43564 0.33278 0.0
C2089 C 0.74879 0.42504 0.33152 0.0
C2090 C 0.59753 0.47183 0.34433 0.0
C2091 C 0.57921 0.49982 0.33769 0.0
C2092 C 0.63676 0.46473 0.34318 0.0
C2093 C 0.65877 0.48543 0.33535 0.0
C2094 C 0.64104 0.51523 0.32922 0.0
C2095 C 0.60152 0.52238 0.33039 0.0
H2096 H 0.85713 0.52571 0.90903 0.0
H2097 H 0.73982 0.48561 0.90867 0.0
H2098 H 0.83456 0.59198 0.9081 0.0
H2099 H 0.71695 0.55178 0.90745 0.0
H2100 H 0.69647 0.67449 0.92254 0.0
H2101 H 0.71179 0.6067 0.91926 0.0
H2102 H 0.80495 0.64063 0.89732 0.0
H2103 H 0.79018 0.70814 0.90112 0.0
C2104 C 0.82652 0.53114 0.90855 0.0
C2105 C 0.8003 0.50059 0.90909 0.0
C2106 C 0.81346 0.56911 0.90795 0.0
C2107 C 0.77379 0.57742 0.90772 0.0
C2108 C 0.74762 0.5466 0.90783 0.0
C2109 C 0.76072 0.50866 0.90854 0.0
C2110 C 0.71926 0.66711 0.91672 0.0
C2111 C 0.742 0.69608 0.91198 0.0
C2112 C 0.72825 0.62837 0.91485 0.0
C2113 C 0.76009 0.61805 0.90815 0.0
C2114 C 0.78085 0.6474 0.90273 0.0
C2115 C 0.77211 0.686 0.90473 0.0
H2116 H 0.77928 0.51424 0.15908 0.0
H2117 H 0.74793 0.62924 0.16891 0.0
H2118 H 0.71173 0.49632 0.15804 0.0
H2119 H 0.6801 0.6112 0.16859 0.0
H2120 H 0.55831 0.57869 0.16183 0.0
H2121 H 0.62558 0.59578 0.15858 0.0
H2122 H 0.65944 0.48133 0.16894 0.0
H2123 H 0.59189 0.46431 0.17137 0.0
C2124 C 0.75773 0.53556 0.16114 0.0
C2125 C 0.76871 0.57302 0.16418 0.0
C2126 C 0.7189 0.52531 0.16059 0.0
C2127 C 0.68993 0.55206 0.16331 0.0
C2128 C 0.70118 0.58981 0.16621 0.0
C2129 C 0.74009 0.60024 0.16651 0.0
C2130 C 0.58035 0.55707 0.163 0.0
C2131 C 0.57027 0.5201 0.16663 0.0
C2132 C 0.61896 0.56691 0.16136 0.0
C2133 C 0.64849 0.54024 0.16364 0.0
C2134 C 0.6379 0.50265 0.16689 0.0
C2135 C 0.59919 0.49269 0.16828 0.0
H2136 H 0.76749 0.33306 0.40552 0.0
H2137 H 0.74035 0.33597 0.44088 0.0
H2138 H 0.75396 0.40239 0.40419 0.0
H2139 H 0.72639 0.40441 0.43966 0.0
H2140 H 0.727 0.5332 0.43587 0.0
H2141 H 0.75261 0.46799 0.43651 0.0
H2142 H 0.69444 0.44156 0.40531 0.0
H2143 H 0.6699 0.50721 0.40449 0.0
C2144 C 0.75959 0.34881 0.41303 0.0
C2145 C 0.75485 0.3294 0.42329 0.0
C2146 C 0.75136 0.38825 0.41228 0.0
C2147 C 0.73873 0.40887 0.42181 0.0
C2148 C 0.73629 0.38963 0.43217 0.0
C2149 C 0.74415 0.35041 0.43288 0.0
C2150 C 0.71988 0.51358 0.42911 0.0
C2151 C 0.69616 0.52545 0.42018 0.0
C2152 C 0.73444 0.47613 0.42949 0.0
C2153 C 0.72568 0.44954 0.42094 0.0
C2154 C 0.70219 0.46145 0.41195 0.0
C2155 C 0.68753 0.49893 0.41159 0.0
H2156 H 0.76326 0.39128 0.67406 0.0
H2157 H 0.73113 0.50687 0.66482 0.0
H2158 H 0.83051 0.41151 0.6756 0.0
H2159 H 0.79846 0.52711 0.66631 0.0
H2160 H 0.93493 0.5264 0.6592 0.0
H2161 H 0.86618 0.51178 0.65669 0.0
H2162 H 0.86377 0.45883 0.68952 0.0
H2163 H 0.93121 0.47434 0.69217 0.0
C2164 C 0.77067 0.4209 0.67229 0.0
C2165 C 0.74198 0.44755 0.66946 0.0
C2166 C 0.80903 0.43254 0.67321 0.0
C2167 C 0.81959 0.47094 0.67112 0.0
C2168 C 0.7911 0.49736 0.66794 0.0
C2169 C 0.75261 0.48585 0.66721 0.0
C2170 C 0.91944 0.51237 0.66594 0.0
C2171 C 0.93877 0.50084 0.67578 0.0
C2172 C 0.88024 0.50382 0.66449 0.0
C2173 C 0.85999 0.48338 0.67282 0.0
C2174 C 0.87889 0.47372 0.68285 0.0
C2175 C 0.9176 0.4826 0.68434 0.0
H2176 H 0.20647 0.69064 0.4015 0.0
H2177 H 0.28395 0.68377 0.42978 0.0
H2178 H 0.19295 0.62217 0.40308 0.0
H2179 H 0.27034 0.61461 0.43145 0.0
H2180 H 0.25488 0.48354 0.42327 0.0
H2181 H 0.275 0.55034 0.42178 0.0
H2182 H 0.15674 0.58467 0.4172 0.0
H2183 H 0.13641 0.51781 0.41882 0.0
C2184 C 0.221 0.6742 0.40797 0.0
C2185 C 0.2459 0.69245 0.4156 0.0
C2186 C 0.21304 0.6351 0.40894 0.0
C2187 C 0.2298 0.61322 0.41757 0.0
C2188 C 0.25687 0.63082 0.42474 0.0
C2189 C 0.26487 0.67023 0.42376 0.0
C2190 C 0.23296 0.50527 0.42218 0.0
C2191 C 0.19384 0.49515 0.42117 0.0
C2192 C 0.24464 0.54362 0.42127 0.0
C2193 C 0.21756 0.5727 0.41925 0.0
C2194 C 0.17842 0.56277 0.41854 0.0
C2195 C 0.16671 0.52449 0.41949 0.0
H2196 H 0.07495 0.4597 0.18479 0.0
H2197 H 0.07616 0.52609 0.15412 0.0
H2198 H 0.14325 0.44736 0.18293 0.0
H2199 H 0.14572 0.51385 0.15226 0.0
H2200 H 0.2793 0.50695 0.16136 0.0
H2201 H 0.21126 0.52509 0.16197 0.0
H2202 H 0.18119 0.40756 0.16959 0.0
H2203 H 0.24879 0.38967 0.16925 0.0
C2204 C 0.08989 0.47166 0.17761 0.0
C2205 C 0.06993 0.49315 0.16946 0.0
C2206 C 0.1291 0.46454 0.17654 0.0
C2207 C 0.14975 0.47883 0.16731 0.0
C2208 C 0.13047 0.50227 0.15944 0.0
C2209 C 0.09077 0.50937 0.16051 0.0
C2210 C 0.25815 0.48502 0.16319 0.0
C2211 C 0.26962 0.44686 0.16538 0.0
C2212 C 0.21916 0.49537 0.16342 0.0
C2213 C 0.19089 0.46787 0.16594 0.0
C2214 C 0.20232 0.42957 0.16778 0.0
C2215 C 0.24111 0.4192 0.16748 0.0
H2216 H 0.31277 0.32625 0.90268 0.0
H2217 H 0.22008 0.33831 0.92648 0.0
H2218 H 0.32453 0.39521 0.90345 0.0
H2219 H 0.23218 0.40772 0.92749 0.0
H2220 H 0.24854 0.53646 0.91925 0.0
H2221 H 0.23137 0.46884 0.91758 0.0
H2222 H 0.35186 0.43868 0.91699 0.0
H2223 H 0.36896 0.50651 0.91857 0.0
C2224 C 0.2947 0.34388 0.90801 0.0
C2225 C 0.26575 0.327 0.9146 0.0
C2226 C 0.30162 0.38333 0.90854 0.0
C2227 C 0.27991 0.40694 0.91573 0.0
C2228 C 0.24943 0.39038 0.92185 0.0
C2229 C 0.24234 0.35072 0.92126 0.0
C2230 C 0.27141 0.5154 0.91895 0.0
C2231 C 0.31023 0.52689 0.9191 0.0
C2232 C 0.26151 0.47657 0.91795 0.0
C2233 C 0.29017 0.44827 0.91707 0.0
C2234 C 0.32899 0.45976 0.91741 0.0
C2235 C 0.33887 0.49859 0.91837 0.0
H2236 H 0.44501 0.55441 0.64816 0.0
H2237 H 0.42258 0.46338 0.67178 0.0
H2238 H 0.37616 0.56593 0.64611 0.0
H2239 H 0.35338 0.47556 0.67018 0.0
H2240 H 0.22792 0.49768 0.66161 0.0
H2241 H 0.29454 0.47691 0.6596 0.0
H2242 H 0.33045 0.59577 0.65804 0.0
H2243 H 0.26381 0.61628 0.65988 0.0
C2244 C 0.42503 0.5363 0.65271 0.0
C2245 C 0.4388 0.50807 0.66011 0.0
C2246 C 0.38567 0.54317 0.65167 0.0
C2247 C 0.35913 0.52237 0.65819 0.0
C2248 C 0.37288 0.49209 0.66499 0.0
C2249 C 0.41244 0.48491 0.6659 0.0
C2250 C 0.25009 0.51935 0.66087 0.0
C2251 C 0.24066 0.55872 0.66102 0.0
C2252 C 0.28831 0.50742 0.65969 0.0
C2253 C 0.31803 0.53456 0.65865 0.0
C2254 C 0.30837 0.57393 0.65859 0.0
C2255 C 0.27016 0.58581 0.6597 0.0
H2256 H 0.27872 0.31775 0.09747 0.0
H2257 H 0.20815 0.32588 0.06762 0.0
H2258 H 0.26625 0.38613 0.10141 0.0
H2259 H 0.19485 0.39279 0.07176 0.0
H2260 H 0.14145 0.4949 0.08935 0.0
H2261 H 0.15753 0.42652 0.08792 0.0
H2262 H 0.278 0.45374 0.09143 0.0
H2263 H 0.26186 0.52214 0.09288 0.0
C2264 C 0.26087 0.33404 0.09173 0.0
C2265 C 0.24381 0.31607 0.08236 0.0
C2266 C 0.25356 0.37301 0.09402 0.0
C2267 C 0.22882 0.39435 0.08703 0.0
C2268 C 0.21313 0.37674 0.07746 0.0
C2269 C 0.22076 0.33829 0.07511 0.0
C2270 C 0.17124 0.48616 0.09001 0.0
C2271 C 0.2004 0.51376 0.09105 0.0
C2272 C 0.18049 0.44716 0.08913 0.0
C2273 C 0.21905 0.43499 0.08946 0.0
C2274 C 0.24808 0.46237 0.09116 0.0
C2275 C 0.23886 0.50146 0.09187 0.0
H2276 H 0.45948 0.43646 0.84484 0.0
H2277 H 0.42106 0.54301 0.83036 0.0
H2278 H 0.39278 0.41881 0.84909 0.0
H2279 H 0.35433 0.52546 0.83409 0.0
H2280 H 0.2366 0.49351 0.84552 0.0
H2281 H 0.30366 0.51343 0.84673 0.0
H2282 H 0.33932 0.39771 0.83843 0.0
H2283 H 0.27209 0.37783 0.8376 0.0
C2284 C 0.43658 0.45648 0.84288 0.0
C2285 C 0.44495 0.49127 0.83749 0.0
C2286 C 0.39842 0.44626 0.84513 0.0
C2287 C 0.36792 0.47048 0.84184 0.0
C2288 C 0.37684 0.50625 0.83693 0.0
C2289 C 0.41498 0.51647 0.83478 0.0
C2290 C 0.25886 0.47237 0.84399 0.0
C2291 C 0.2492 0.43422 0.8413 0.0
C2292 C 0.29732 0.48375 0.84468 0.0
C2293 C 0.32713 0.45736 0.84256 0.0
C2294 C 0.31733 0.41881 0.84028 0.0
C2295 C 0.2788 0.40735 0.83973 0.0
H2296 H 0.24987 0.48659 0.59368 0.0
H2297 H 0.36794 0.51349 0.586 0.0
H2298 H 0.23434 0.55495 0.59418 0.0
H2299 H 0.35249 0.58181 0.58601 0.0
H2300 H 0.3249 0.70318 0.59431 0.0
H2301 H 0.33692 0.63477 0.59703 0.0
H2302 H 0.22531 0.6092 0.58276 0.0
H2303 H 0.21296 0.67817 0.58069 0.0
C2304 C 0.27243 0.50724 0.592 0.0
C2305 C 0.31011 0.49479 0.58976 0.0
C2306 C 0.26354 0.54647 0.59225 0.0
C2307 C 0.29205 0.57423 0.59014 0.0
C2308 C 0.32983 0.56154 0.58794 0.0
C2309 C 0.33878 0.52234 0.58786 0.0
C2310 C 0.30277 0.68276 0.59199 0.0
C2311 C 0.26808 0.69566 0.58729 0.0
C2312 C 0.30974 0.64354 0.5934 0.0
C2313 C 0.28249 0.61612 0.5899 0.0
C2314 C 0.24694 0.62929 0.58565 0.0
C2315 C 0.23972 0.66874 0.58445 0.0
H2316 H 0.07708 0.57751 0.34901 0.0
H2317 H 0.08964 0.48215 0.32611 0.0
H2318 H 0.14604 0.58927 0.34825 0.0
H2319 H 0.15911 0.4941 0.32517 0.0
H2320 H 0.28808 0.51353 0.3337 0.0
H2321 H 0.22069 0.49545 0.33544 0.0
H2322 H 0.18833 0.61525 0.33392 0.0
H2323 H 0.25578 0.63333 0.33218 0.0
C2324 C 0.09483 0.55877 0.34391 0.0
C2325 C 0.07807 0.52918 0.33753 0.0
C2326 C 0.13426 0.56568 0.3434 0.0
C2327 C 0.15798 0.54326 0.33643 0.0
C2328 C 0.14162 0.51196 0.3306 0.0
C2329 C 0.10195 0.50494 0.33117 0.0
C2330 C 0.26661 0.53603 0.33354 0.0
C2331 C 0.27739 0.575 0.33277 0.0
C2332 C 0.22793 0.5256 0.33459 0.0
C2333 C 0.19912 0.55387 0.33493 0.0
C2334 C 0.20986 0.59275 0.33393 0.0
C2335 C 0.24849 0.60317 0.33289 0.0
H2336 H 0.61912 0.21757 0.06479 0.0
H2337 H 0.59202 0.31327 0.08653 0.0
H2338 H 0.55251 0.19699 0.06533 0.0
H2339 H 0.5245 0.2935 0.08674 0.0
H2340 H 0.42762 0.18845 0.05772 0.0
H2341 H 0.49259 0.21357 0.0581 0.0
H2342 H 0.47722 0.24785 0.09279 0.0
H2343 H 0.41086 0.22376 0.09218 0.0
C2344 C 0.59887 0.23442 0.06965 0.0
C2345 C 0.61108 0.26724 0.07556 0.0
C2346 C 0.56036 0.22277 0.0699 0.0
C2347 C 0.53251 0.24386 0.07592 0.0
C2348 C 0.5449 0.27631 0.08205 0.0
C2349 C 0.58369 0.28777 0.08189 0.0
C2350 C 0.4379 0.20166 0.06542 0.0
C2351 C 0.41407 0.20382 0.07495 0.0
C2352 C 0.47549 0.21579 0.06569 0.0
C2353 C 0.49093 0.23202 0.07556 0.0
C2354 C 0.46653 0.23564 0.08501 0.0
C2355 C 0.42843 0.22184 0.08468 0.0
H2356 H 0.9519 0.35319 0.33498 0.0
H2357 H 0.05269 0.38563 0.31608 0.0
H2358 H 0.97376 0.28641 0.33517 0.0
H2359 H 0.07533 0.31958 0.31664 0.0
H2360 H 0.0892 0.19508 0.30838 0.0
H2361 H 0.06323 0.25972 0.30863 0.0
H2362 H 0.01866 0.24042 0.34211 0.0
H2363 H 0.04365 0.17446 0.3416 0.0
C2364 C 0.97895 0.34617 0.33097 0.0
C2365 C 1.00036 0.37483 0.32543 0.0
C2366 C 0.99161 0.3078 0.33112 0.0
C2367 C 0.02621 0.29712 0.32581 0.0
C2368 C 0.04804 0.32618 0.32056 0.0
C2369 C 0.03519 0.36432 0.3203 0.0
C2370 C 0.07367 0.20446 0.31579 0.0
C2371 C 0.06879 0.17962 0.32501 0.0
C2372 C 0.059 0.24185 0.31599 0.0
C2373 C 0.03942 0.256 0.32549 0.0
C2374 C 0.03342 0.23069 0.33461 0.0
C2375 C 0.04778 0.19284 0.33435 0.0
H2376 H 0.07931 0.79991 0.60505 0.0
H2377 H 0.10956 0.782 0.5702 0.0
H2378 H 0.01637 0.77145 0.60163 0.0
H2379 H 0.04621 0.75449 0.56668 0.0
H2380 H 0.9458 0.66999 0.56688 0.0
H2381 H 0.00806 0.6994 0.57021 0.0
H2382 H 0.95541 0.78137 0.59278 0.0
H2383 H 0.89287 0.75102 0.58965 0.0
C2384 C 0.07254 0.78998 0.59664 0.0
C2385 C 0.09974 0.79316 0.58792 0.0
C2386 C 0.03618 0.77392 0.59465 0.0
C2387 C 0.02584 0.76062 0.58386 0.0
C2388 C 0.05313 0.76382 0.57514 0.0
C2389 C 0.08955 0.77977 0.57715 0.0
C2390 C 0.94731 0.69438 0.57253 0.0
C2391 C 0.91411 0.70803 0.578 0.0
C2392 C 0.9832 0.71148 0.5744 0.0
C2393 C 0.98711 0.74294 0.58176 0.0
C2394 C 0.95379 0.75688 0.58717 0.0
C2395 C 0.91778 0.73964 0.58532 0.0
H2396 H 0.45662 0.84726 0.84317 0.0
H2397 H 0.53551 0.85883 0.81532 0.0
H2398 H 0.47312 0.77927 0.84472 0.0
H2399 H 0.55186 0.79074 0.81686 0.0
H2400 H 0.59365 0.67112 0.82881 0.0
H2401 H 0.58279 0.74084 0.82895 0.0
H2402 H 0.46109 0.72166 0.83328 0.0
H2403 H 0.47181 0.65261 0.8332 0.0
C2404 C 0.47771 0.83546 0.83743 0.0
C2405 C 0.49448 0.85866 0.82907 0.0
C2406 C 0.48705 0.79635 0.83828 0.0
C2407 C 0.51365 0.77935 0.83086 0.0
C2408 C 0.53148 0.80285 0.82277 0.0
C2409 C 0.52191 0.84193 0.82186 0.0
C2410 C 0.56464 0.68184 0.82987 0.0
C2411 C 0.53363 0.65612 0.83097 0.0
C2412 C 0.55837 0.7218 0.82989 0.0
C2413 C 0.52104 0.73696 0.83116 0.0
C2414 C 0.49026 0.71115 0.83243 0.0
C2415 C 0.49643 0.6714 0.8323 0.0
H2416 H 0.60097 0.74747 0.40758 0.0
H2417 H 0.59936 0.73385 0.4436 0.0
H2418 H 0.5328 0.76383 0.40776 0.0
H2419 H 0.53084 0.74608 0.44387 0.0
H2420 H 0.41326 0.79804 0.44423 0.0
H2421 H 0.48177 0.78591 0.44352 0.0
H2422 H 0.47045 0.74955 0.40876 0.0
H2423 H 0.40228 0.76585 0.40938 0.0
C2424 C 0.58574 0.7476 0.41553 0.0
C2425 C 0.60549 0.73994 0.42559 0.0
C2426 C 0.54633 0.75657 0.41567 0.0
C2427 C 0.52522 0.75672 0.42585 0.0
C2428 C 0.54541 0.74789 0.43585 0.0
C2429 C 0.58496 0.7404 0.43573 0.0
C2430 C 0.42563 0.78746 0.43645 0.0
C2431 C 0.40249 0.78267 0.42689 0.0
C2432 C 0.46516 0.78 0.43602 0.0
C2433 C 0.48272 0.76597 0.42611 0.0
C2434 C 0.45899 0.76091 0.41654 0.0
C2435 C 0.41958 0.76983 0.41688 0.0
H2436 H 0.43825 0.17978 0.69365 0.0
H2437 H 0.48179 0.15595 0.66038 0.0
H2438 H 0.46341 0.24464 0.69266 0.0
H2439 H 0.50617 0.22215 0.65916 0.0
H2440 H 0.57069 0.33811 0.66521 0.0
H2441 H 0.55085 0.27057 0.66565 0.0
H2442 H 0.44817 0.30277 0.6838 0.0
H2443 H 0.46856 0.36949 0.68368 0.0
C2444 C 0.45328 0.18844 0.68608 0.0
C2445 C 0.45769 0.16267 0.67706 0.0
C2446 C 0.46748 0.22596 0.68547 0.0
C2447 C 0.48613 0.23933 0.67572 0.0
C2448 C 0.49201 0.21304 0.66682 0.0
C2449 C 0.47806 0.17505 0.6675 0.0
C2450 C 0.54383 0.3307 0.66927 0.0
C2451 C 0.52144 0.35933 0.67451 0.0
C2452 C 0.53235 0.2919 0.66948 0.0
C2453 C 0.49809 0.28077 0.6749 0.0
C2454 C 0.47527 0.30976 0.67982 0.0
C2455 C 0.48685 0.34829 0.67968 0.0
H2456 H 0.89904 0.26876 0.91728 0.0
H2457 H 0.94425 0.37608 0.92991 0.0
H2458 H 0.96427 0.24159 0.91738 0.0
H2459 H 0.00859 0.34977 0.92969 0.0
H2460 H 0.11239 0.28278 0.94064 0.0
H2461 H 0.04676 0.30617 0.93986 0.0
H2462 H 0.02807 0.24305 0.90901 0.0
H2463 H 0.09398 0.21848 0.91 0.0
C2464 C 0.92282 0.28663 0.91999 0.0
C2465 C 0.91619 0.32448 0.92371 0.0
C2466 C 0.96028 0.27114 0.92001 0.0
C2467 C 0.99193 0.29323 0.9237 0.0
C2468 C 0.9851 0.33138 0.92709 0.0
C2469 C 0.94796 0.34663 0.92714 0.0
C2470 C 0.09447 0.27387 0.93365 0.0
C2471 C 0.10881 0.24894 0.92533 0.0
C2472 C 0.05666 0.28751 0.93316 0.0
C2473 C 0.03188 0.27697 0.92429 0.0
C2474 C 0.04605 0.25165 0.91601 0.0
C2475 C 0.08402 0.23778 0.91653 0.0
H2476 H 0.94256 0.67195 0.16435 0.0
H2477 H 0.04389 0.64018 0.18317 0.0
H2478 H 0.96318 0.7392 0.16457 0.0
H2479 H 0.06519 0.70664 0.18305 0.0
H2480 H 0.07584 0.82999 0.19263 0.0
H2481 H 0.05065 0.76512 0.1917 0.0
H2482 H 0.00777 0.78715 0.15816 0.0
H2483 H 0.03206 0.85335 0.15934 0.0
C2484 C 0.96948 0.67919 0.16841 0.0
C2485 C 0.99136 0.65059 0.17383 0.0
C2486 C 0.98141 0.71784 0.16851 0.0
C2487 C 0.01565 0.72883 0.17398 0.0
C2488 C 0.03809 0.69979 0.17903 0.0
C2489 C 0.02602 0.66141 0.17902 0.0
C2490 C 0.06078 0.82119 0.18507 0.0
C2491 C 0.05625 0.84683 0.17603 0.0
C2492 C 0.04659 0.78368 0.18448 0.0
C2493 C 0.02786 0.77019 0.17474 0.0
C2494 C 0.02195 0.79634 0.16582 0.0
C2495 C 0.03586 0.83433 0.16648 0.0
H2496 H 0.37495 0.79926 0.93677 0.0
H2497 H 0.40589 0.70196 0.91612 0.0
H2498 H 0.44074 0.82243 0.93597 0.0
H2499 H 0.47253 0.72412 0.91572 0.0
H2500 H 0.58473 0.79301 0.90984 0.0
H2501 H 0.51844 0.76916 0.9093 0.0
H2502 H 0.50112 0.81023 0.94328 0.0
H2503 H 0.56608 0.83528 0.94355 0.0
C2504 C 0.3959 0.78265 0.93209 0.0
C2505 C 0.38504 0.74865 0.92655 0.0
C2506 C 0.43393 0.79577 0.9317 0.0
C2507 C 0.4626 0.77496 0.92593 0.0
C2508 C 0.45149 0.74125 0.92018 0.0
C2509 C 0.41319 0.72839 0.92045 0.0
C2510 C 0.56666 0.79674 0.91719 0.0
C2511 C 0.58063 0.81642 0.92669 0.0
C2512 C 0.52861 0.78297 0.9169 0.0
C2513 C 0.50377 0.78816 0.92618 0.0
C2514 C 0.51856 0.80663 0.93581 0.0
C2515 C 0.55617 0.82079 0.93602 0.0
H2516 H 0.11319 0.69839 0.68185 0.0
H2517 H 0.00682 0.65204 0.6689 0.0
H2518 H 0.08691 0.7626 0.68107 0.0
H2519 H 0.97961 0.71737 0.66841 0.0
H2520 H 0.01984 0.86656 0.69133 0.0
H2521 H 0.04234 0.80065 0.69098 0.0
H2522 H 0.98202 0.78145 0.65968 0.0
H2523 H 0.95828 0.84788 0.66023 0.0
C2524 C 0.08392 0.7018 0.6789 0.0
C2525 C 0.06204 0.66972 0.67556 0.0
C2526 C 0.06868 0.73891 0.67851 0.0
C2527 C 0.03077 0.74548 0.67488 0.0
C2528 C 0.00895 0.71355 0.67124 0.0
C2529 C 0.02445 0.67605 0.67156 0.0
C2530 C 0.01134 0.84851 0.68433 0.0
C2531 C 0.98751 0.86292 0.67575 0.0
C2532 C 0.02446 0.8105 0.68409 0.0
C2533 C 0.01455 0.78551 0.67522 0.0
C2534 C 0.99016 0.79965 0.66669 0.0
C2535 C 0.97679 0.83789 0.66695 0.0
H2536 H 0.93111 0.18914 0.44286 0.0
H2537 H 0.91278 0.23328 0.40936 0.0
H2538 H 0.99593 0.2145 0.44287 0.0
H2539 H 0.97909 0.25749 0.40908 0.0
H2540 H 0.12209 0.22344 0.43657 0.0
H2541 H 0.05595 0.20152 0.43554 0.0
H2542 H 0.02617 0.30143 0.41573 0.0
H2543 H 0.09326 0.32239 0.41636 0.0
C2544 C 0.94107 0.20424 0.43544 0.0
C2545 C 0.91678 0.20891 0.42608 0.0
C2546 C 0.97861 0.21853 0.43539 0.0
C2547 C 0.9936 0.2374 0.42587 0.0
C2548 C 0.9688 0.24326 0.4166 0.0
C2549 C 0.93073 0.22937 0.41673 0.0
C2550 C 0.10152 0.2407 0.43195 0.0
C2551 C 0.11311 0.27479 0.4266 0.0
C2552 C 0.06327 0.2283 0.43142 0.0
C2553 C 0.03502 0.24994 0.42572 0.0
C2554 C 0.04684 0.28372 0.42015 0.0
C2555 C 0.0854 0.29587 0.42054 0.0
H2556 H 0.56741 0.16028 0.16045 0.0
H2557 H 0.47922 0.14486 0.18561 0.0
H2558 H 0.55224 0.2286 0.15949 0.0
H2559 H 0.46434 0.21344 0.18473 0.0
H2560 H 0.42613 0.33431 0.17325 0.0
H2561 H 0.43758 0.26488 0.173 0.0
H2562 H 0.55982 0.2853 0.17108 0.0
H2563 H 0.5484 0.35427 0.1711 0.0
C2564 C 0.5447 0.17136 0.16576 0.0
C2565 C 0.52473 0.14686 0.17315 0.0
C2566 C 0.53611 0.21072 0.16526 0.0
C2567 C 0.5072 0.22681 0.17209 0.0
C2568 C 0.48655 0.20214 0.17927 0.0
C2569 C 0.49525 0.16274 0.17981 0.0
C2570 C 0.4554 0.324 0.17265 0.0
C2571 C 0.48627 0.3501 0.17213 0.0
C2572 C 0.46202 0.28411 0.17262 0.0
C2573 C 0.49967 0.26927 0.17198 0.0
C2574 C 0.53042 0.29547 0.1714 0.0
C2575 C 0.52384 0.3352 0.1715 0.0
H2576 H 0.56851 0.18793 0.55937 0.0
H2577 H 0.5937 0.23242 0.5925 0.0
H2578 H 0.50362 0.21285 0.5606 0.0
H2579 H 0.52756 0.25675 0.5939 0.0
H2580 H 0.41208 0.32269 0.58749 0.0
H2581 H 0.47943 0.30212 0.5871 0.0
H2582 H 0.44587 0.19774 0.56999 0.0
H2583 H 0.37933 0.21867 0.57011 0.0
C2584 C 0.56016 0.20305 0.56697 0.0
C2585 C 0.58635 0.20779 0.57588 0.0
C2586 C 0.52265 0.21715 0.56771 0.0
C2587 C 0.50974 0.23619 0.57745 0.0
C2588 C 0.53635 0.24229 0.58625 0.0
C2589 C 0.57429 0.22831 0.58547 0.0
C2590 C 0.41912 0.29528 0.58369 0.0
C2591 C 0.39017 0.27257 0.57872 0.0
C2592 C 0.4578 0.2834 0.5835 0.0
C2593 C 0.46846 0.24846 0.57836 0.0
C2594 C 0.43917 0.2253 0.57375 0.0
C2595 C 0.40077 0.23723 0.57388 0.0
H2596 H 0.5191 0.86436 0.33486 0.0
H2597 H 0.62417 0.81948 0.32069 0.0
H2598 H 0.49187 0.79918 0.33495 0.0
H2599 H 0.5979 0.7551 0.32111 0.0
H2600 H 0.52968 0.65143 0.31086 0.0
H2601 H 0.55312 0.71703 0.3115 0.0
H2602 H 0.49387 0.73518 0.343 0.0
H2603 H 0.46914 0.66928 0.34214 0.0
C2604 C 0.53649 0.84064 0.33186 0.0
C2605 C 0.57368 0.84737 0.32764 0.0
C2606 C 0.52096 0.80319 0.33195 0.0
C2607 C 0.54237 0.77161 0.32788 0.0
C2608 C 0.57995 0.77852 0.32401 0.0
C2609 C 0.5952 0.81568 0.32384 0.0
C2610 C 0.52161 0.66923 0.31796 0.0
C2611 C 0.49772 0.65472 0.3265 0.0
C2612 C 0.53531 0.70704 0.31836 0.0
C2613 C 0.52594 0.73166 0.32738 0.0
C2614 C 0.50158 0.71734 0.33588 0.0
C2615 C 0.48761 0.67938 0.33543 0.0
H2616 H 0.12406 0.75028 0.09017 0.0
H2617 H 0.07095 0.66073 0.07034 0.0
H2618 H 0.06149 0.78189 0.09213 0.0
H2619 H 0.00884 0.6913 0.07256 0.0
H2620 H 0.9066 0.77168 0.06966 0.0
H2621 H 0.9704 0.74385 0.0671 0.0
H2622 H 1.00052 0.77631 0.1011 0.0
H2623 H 0.93727 0.80511 0.1035 0.0
C2624 C 0.09912 0.73729 0.08625 0.0
C2625 C 0.10275 0.70295 0.08008 0.0
C2626 C 0.0631 0.75527 0.08742 0.0
C2627 C 0.02977 0.73931 0.08249 0.0
C2628 C 0.03368 0.70503 0.07631 0.0
C2629 C 0.06951 0.68725 0.0751 0.0
C2630 C 0.92681 0.77282 0.07659 0.0
C2631 C 0.9166 0.79058 0.08679 0.0
C2632 C 0.96349 0.75671 0.07515 0.0
C2633 C 0.99097 0.75765 0.0839 0.0
C2634 C 0.98061 0.77547 0.09409 0.0
C2635 C 0.94405 0.79174 0.09551 0.0
H2636 H 0.04033 0.33718 0.84335 0.0
H2637 H 0.08032 0.31829 0.80943 0.0
H2638 H 0.01636 0.27084 0.84401 0.0
H2639 H 0.05531 0.25328 0.80984 0.0
H2640 H 0.04871 0.12717 0.81698 0.0
H2641 H 0.07023 0.19357 0.81753 0.0
H2642 H 0.97115 0.22407 0.83757 0.0
H2643 H 0.95047 0.1569 0.83738 0.0
C2644 C 0.04337 0.3191 0.83598 0.0
C2645 C 0.06259 0.33288 0.82639 0.0
C2646 C 0.02963 0.28104 0.83633 0.0
C2647 C 0.03448 0.2561 0.82705 0.0
C2648 C 0.05209 0.27086 0.81731 0.0
C2649 C 0.06618 0.30845 0.81702 0.0
C2650 C 0.03155 0.14795 0.82155 0.0
C2651 C 0.99774 0.1366 0.82708 0.0
C2652 C 0.04373 0.1863 0.8218 0.0
C2653 C 0.02219 0.21473 0.82744 0.0
C2654 C 0.98873 0.20318 0.8332 0.0
C2655 C 0.97675 0.16459 0.83305 0.0
loop_
_geom_bond_atom_site_label_1
_geom_bond_atom_site_label_2
_geom_bond_distance
_geom_bond_site_symmetry_2
_ccdc_geom_bond_type
Co0 N4 2.148 . S
Co0 N10 2.128 . S
Co0 N20 2.194 . S
Co0 O25 2.351 . S
Co0 O26 2.155 . S
Co0 O27 2.096 . S
C1 N4 1.301 . S
C1 N5 1.328 . S
C1 H6 0.930 . S
C2 C3 1.333 . S
C2 N4 1.317 . S
C2 H7 0.930 . S
C3 C2 1.333 . S
C3 N5 1.350 . S
C3 H29 0.931 . S
N4 Co0 2.148 . S
N4 C1 1.301 . S
N4 C2 1.317 . S
N5 C1 1.328 . S
N5 C3 1.350 . S
H6 C1 0.930 . S
H7 C2 0.930 . S
C8 O9 1.224 . S
C8 O27 1.247 . S
O9 C8 1.224 . S
N10 Co0 2.128 . S
N10 C11 1.355 . S
N10 C13 1.311 . S
C11 N10 1.355 . S
C11 C12 1.363 . S
C11 H23 0.929 . S
C12 C11 1.363 . S
C12 N14 1.375 . S
C12 H30 0.931 . S
C13 N10 1.311 . S
C13 N14 1.347 . S
C13 H24 0.929 . S
N14 C12 1.375 . S
N14 C13 1.347 . S
C15 C18 1.365 . S
C15 N20 1.328 . S
C15 H21 0.929 . S
C16 C17 1.362 . S
C16 C19 1.378 . S
C16 H31 0.929 . S
C17 C16 1.362 . S
C17 C18 1.366 . S
C18 C15 1.365 . S
C18 C17 1.366 . S
C18 H32 0.930 . S
C19 C16 1.378 . S
C19 N20 1.315 . S
C19 H22 0.930 . S
N20 Co0 2.194 . S
N20 C15 1.328 . S
N20 C19 1.315 . S
H21 C15 0.929 . S
H22 C19 0.930 . S
H23 C11 0.929 . S
H24 C13 0.929 . S
O25 Co0 2.351 . S
O25 C28 1.244 . S
O26 Co0 2.155 . S
O26 C28 1.240 . S
O27 Co0 2.096 . S
O27 C8 1.247 . S
C28 O25 1.244 . S
C28 O26 1.240 . S
H29 C3 0.931 . S
H30 C12 0.931 . S
H31 C16 0.929 . S
H32 C18 0.930 . S
Co33 N37 2.148 . S
Co33 N43 2.128 . S
Co33 N53 2.194 . S
Co33 O58 2.351 1_545 S
Co33 O59 2.155 . S
Co33 O60 2.096 . S
C34 N37 1.301 . S
C34 N38 1.328 . S
C34 H39 0.930 . S
C35 C36 1.333 . S
C35 N37 1.317 . S
C35 H40 0.930 . S
C36 C35 1.333 . S
C36 N38 1.350 . S
C36 H62 0.931 . S
N37 Co33 2.148 . S
N37 C34 1.301 . S
N37 C35 1.317 . S
N38 C34 1.328 . S
N38 C36 1.350 . S
H39 C34 0.930 . S
H40 C35 0.930 . S
C41 O42 1.224 . S
C41 O60 1.247 . S
O42 C41 1.224 . S
N43 Co33 2.128 . S
N43 C44 1.355 1_545 S
N43 C46 1.311 1_455 S
C44 N43 1.355 1_565 S
C44 C45 1.363 1_455 S
C44 H56 0.929 . S
C45 C44 1.363 1_655 S
C45 N47 1.375 1_565 S
C45 H63 0.931 . S
C46 N43 1.311 1_655 S
C46 N47 1.347 . S
C46 H57 0.929 . S
N47 C45 1.375 1_545 S
N47 C46 1.347 . S
C48 C51 1.365 . S
C48 N53 1.328 1_565 S
C48 H54 0.929 . S
C49 C50 1.362 1_545 S
C49 C52 1.378 . S
C49 H64 0.929 . S
C50 C49 1.362 1_565 S
C50 C51 1.366 . S
C51 C48 1.365 . S
C51 C50 1.366 . S
C51 H65 0.930 . S
C52 C49 1.378 . S
C52 N53 1.315 . S
C52 H55 0.930 . S
N53 Co33 2.194 . S
N53 C48 1.328 1_545 S
N53 C52 1.315 . S
H54 C48 0.929 . S
H55 C52 0.930 . S
H56 C44 0.929 . S
H57 C46 0.929 . S
O58 Co33 2.351 1_565 S
O58 C61 1.244 . S
O59 Co33 2.155 . S
O59 C61 1.240 1_545 S
O60 Co33 2.096 . S
O60 C41 1.247 . S
C61 O58 1.244 . S
C61 O59 1.240 1_565 S
H62 C36 0.931 . S
H63 C45 0.931 . S
H64 C49 0.929 . S
H65 C51 0.930 . S
Co66 N70 2.148 . S
Co66 N76 2.128 . S
Co66 N86 2.194 . S
Co66 O91 2.351 . S
Co66 O92 2.155 . S
Co66 O93 2.096 . S
C67 N70 1.301 . S
C67 N71 1.328 . S
C67 H72 0.930 . S
C68 C69 1.333 . S
C68 N70 1.317 . S
C68 H73 0.930 . S
C69 C68 1.333 . S
C69 N71 1.350 . S
C69 H95 0.931 . S
N70 Co66 2.148 . S
N70 C67 1.301 . S
N70 C68 1.317 . S
N71 C67 1.328 . S
N71 C69 1.350 . S
H72 C67 0.930 . S
H73 C68 0.930 . S
C74 O75 1.224 . S
C74 O93 1.247 . S
O75 C74 1.224 . S
N76 Co66 2.128 . S
N76 C77 1.355 . S
N76 C79 1.311 . S
C77 N76 1.355 . S
C77 C78 1.363 . S
C77 H89 0.929 . S
C78 C77 1.363 . S
C78 N80 1.375 . S
C78 H96 0.931 . S
C79 N76 1.311 . S
C79 N80 1.347 . S
C79 H90 0.929 . S
N80 C78 1.375 . S
N80 C79 1.347 . S
C81 C84 1.365 . S
C81 N86 1.328 . S
C81 H87 0.929 . S
C82 C83 1.362 . S
C82 C85 1.378 . S
C82 H97 0.929 . S
C83 C82 1.362 . S
C83 C84 1.366 . S
C84 C81 1.365 . S
C84 C83 1.366 . S
C84 H98 0.930 . S
C85 C82 1.378 . S
C85 N86 1.315 . S
C85 H88 0.930 . S
N86 Co66 2.194 . S
N86 C81 1.328 . S
N86 C85 1.315 . S
H87 C81 0.929 . S
H88 C85 0.930 . S
H89 C77 0.929 . S
H90 C79 0.929 . S
O91 Co66 2.351 . S
O91 C94 1.244 . S
O92 Co66 2.155 . S
O92 C94 1.240 . S
O93 Co66 2.096 . S
O93 C74 1.247 . S
C94 O91 1.244 . S
C94 O92 1.240 . S
H95 C69 0.931 . S
H96 C78 0.931 . S
H97 C82 0.929 . S
H98 C84 0.930 . S
Co99 N103 2.148 . S
Co99 N109 2.128 . S
Co99 N119 2.194 . S
Co99 O124 2.351 1_565 S
Co99 O125 2.155 . S
Co99 O126 2.096 . S
C100 N103 1.301 . S
C100 N104 1.328 . S
C100 H105 0.930 . S
C101 C102 1.333 . S
C101 N103 1.317 . S
C101 H106 0.930 . S
C102 C101 1.333 . S
C102 N104 1.350 . S
C102 H128 0.931 . S
N103 Co99 2.148 . S
N103 C100 1.301 . S
N103 C101 1.317 . S
N104 C100 1.328 . S
N104 C102 1.350 . S
H105 C100 0.930 . S
H106 C101 0.930 . S
C107 O108 1.224 . S
C107 O126 1.247 . S
O108 C107 1.224 . S
N109 Co99 2.128 . S
N109 C110 1.355 1_565 S
N109 C112 1.311 . S
C110 N109 1.355 1_545 S
C110 C111 1.363 . S
C110 H122 0.929 . S
C111 C110 1.363 . S
C111 N113 1.375 1_545 S
C111 H129 0.931 . S
C112 N109 1.311 . S
C112 N113 1.347 . S
C112 H123 0.929 . S
N113 C111 1.375 1_565 S
N113 C112 1.347 . S
C114 C117 1.365 . S
C114 N119 1.328 1_545 S
C114 H120 0.929 . S
C115 C116 1.362 1_565 S
C115 C118 1.378 . S
C115 H130 0.929 . S
C116 C115 1.362 1_545 S
C116 C117 1.366 . S
C117 C114 1.365 . S
C117 C116 1.366 . S
C117 H131 0.930 . S
C118 C115 1.378 . S
C118 N119 1.315 . S
C118 H121 0.930 . S
N119 Co99 2.194 . S
N119 C114 1.328 1_565 S
N119 C118 1.315 . S
H120 C114 0.929 . S
H121 C118 0.930 . S
H122 C110 0.929 . S
H123 C112 0.929 . S
O124 Co99 2.351 1_545 S
O124 C127 1.244 . S
O125 Co99 2.155 . S
O125 C127 1.240 1_565 S
O126 Co99 2.096 . S
O126 C107 1.247 . S
C127 O124 1.244 . S
C127 O125 1.240 1_545 S
H128 C102 0.931 . S
H129 C111 0.931 . S
H130 C115 0.929 . S
H131 C117 0.930 . S
Co132 N136 2.148 . S
Co132 N142 2.128 . S
Co132 N152 2.194 . S
Co132 O157 2.351 . S
Co132 O158 2.155 . S
Co132 O159 2.096 . S
C133 N136 1.301 . S
C133 N137 1.328 . S
C133 H138 0.930 . S
C134 C135 1.333 . S
C134 N136 1.317 . S
C134 H139 0.930 . S
C135 C134 1.333 . S
C135 N137 1.350 . S
C135 H161 0.931 . S
N136 Co132 2.148 . S
N136 C133 1.301 . S
N136 C134 1.317 . S
N137 C133 1.328 . S
N137 C135 1.350 . S
H138 C133 0.930 . S
H139 C134 0.930 . S
C140 O141 1.224 . S
C140 O159 1.247 . S
O141 C140 1.224 . S
N142 Co132 2.128 . S
N142 C143 1.355 . S
N142 C145 1.311 . S
C143 N142 1.355 . S
C143 C144 1.363 . S
C143 H155 0.929 . S
C144 C143 1.363 . S
C144 N146 1.375 . S
C144 H162 0.931 . S
C145 N142 1.311 . S
C145 N146 1.347 . S
C145 H156 0.929 . S
N146 C144 1.375 . S
N146 C145 1.347 . S
C147 C150 1.365 . S
C147 N152 1.328 . S
C147 H153 0.929 . S
C148 C149 1.362 . S
C148 C151 1.378 . S
C148 H163 0.929 . S
C149 C148 1.362 . S
C149 C150 1.366 . S
C150 C147 1.365 . S
C150 C149 1.366 . S
C150 H164 0.930 . S
C151 C148 1.378 . S
C151 N152 1.315 . S
C151 H154 0.930 . S
N152 Co132 2.194 . S
N152 C147 1.328 . S
N152 C151 1.315 . S
H153 C147 0.929 . S
H154 C151 0.930 . S
H155 C143 0.929 . S
H156 C145 0.929 . S
O157 Co132 2.351 . S
O157 C160 1.244 . S
O158 Co132 2.155 . S
O158 C160 1.240 . S
O159 Co132 2.096 . S
O159 C140 1.247 . S
C160 O157 1.244 . S
C160 O158 1.240 . S
H161 C135 0.931 . S
H162 C144 0.931 . S
H163 C148 0.929 . S
H164 C150 0.930 . S
Co165 N169 2.148 . S
Co165 N175 2.128 . S
Co165 N185 2.194 . S
Co165 O190 2.351 1_545 S
Co165 O191 2.155 . S
Co165 O192 2.096 . S
C166 N169 1.301 . S
C166 N170 1.328 . S
C166 H171 0.930 . S
C167 C168 1.333 . S
C167 N169 1.317 . S
C167 H172 0.930 . S
C168 C167 1.333 . S
C168 N170 1.350 . S
C168 H194 0.931 . S
N169 Co165 2.148 . S
N169 C166 1.301 . S
N169 C167 1.317 . S
N170 C166 1.328 . S
N170 C168 1.350 . S
H171 C166 0.930 . S
H172 C167 0.930 . S
C173 O174 1.224 . S
C173 O192 1.247 . S
O174 C173 1.224 . S
N175 Co165 2.128 . S
N175 C176 1.355 1_545 S
N175 C178 1.311 . S
C176 N175 1.355 1_565 S
C176 C177 1.363 . S
C176 H188 0.929 . S
C177 C176 1.363 . S
C177 N179 1.375 1_565 S
C177 H195 0.931 . S
C178 N175 1.311 . S
C178 N179 1.347 . S
C178 H189 0.929 . S
N179 C177 1.375 1_545 S
N179 C178 1.347 . S
C180 C183 1.365 . S
C180 N185 1.328 1_565 S
C180 H186 0.929 . S
C181 C182 1.362 1_545 S
C181 C184 1.378 . S
C181 H196 0.929 . S
C182 C181 1.362 1_565 S
C182 C183 1.366 . S
C183 C180 1.365 . S
C183 C182 1.366 . S
C183 H197 0.930 . S
C184 C181 1.378 . S
C184 N185 1.315 . S
C184 H187 0.930 . S
N185 Co165 2.194 . S
N185 C180 1.328 1_545 S
N185 C184 1.315 . S
H186 C180 0.929 . S
H187 C184 0.930 . S
H188 C176 0.929 . S
H189 C178 0.929 . S
O190 Co165 2.351 1_565 S
O190 C193 1.244 . S
O191 Co165 2.155 . S
O191 C193 1.240 1_545 S
O192 Co165 2.096 . S
O192 C173 1.247 . S
C193 O190 1.244 . S
C193 O191 1.240 1_565 S
H194 C168 0.931 . S
H195 C177 0.931 . S
H196 C181 0.929 . S
H197 C183 0.930 . S
Co198 N202 2.148 . S
Co198 N208 2.128 . S
Co198 N218 2.194 . S
Co198 O223 2.351 . S
Co198 O224 2.155 . S
Co198 O225 2.096 . S
C199 N202 1.301 . S
C199 N203 1.328 . S
C199 H204 0.930 . S
C200 C201 1.333 . S
C200 N202 1.317 . S
C200 H205 0.930 . S
C201 C200 1.333 . S
C201 N203 1.350 . S
C201 H227 0.931 . S
N202 Co198 2.148 . S
N202 C199 1.301 . S
N202 C200 1.317 . S
N203 C199 1.328 . S
N203 C201 1.350 . S
H204 C199 0.930 . S
H205 C200 0.930 . S
C206 O207 1.224 . S
C206 O225 1.247 . S
O207 C206 1.224 . S
N208 Co198 2.128 . S
N208 C209 1.355 . S
N208 C211 1.311 . S
C209 N208 1.355 . S
C209 C210 1.363 . S
C209 H221 0.929 . S
C210 C209 1.363 . S
C210 N212 1.375 . S
C210 H228 0.931 . S
C211 N208 1.311 . S
C211 N212 1.347 . S
C211 H222 0.929 . S
N212 C210 1.375 . S
N212 C211 1.347 . S
C213 C216 1.365 . S
C213 N218 1.328 . S
C213 H219 0.929 . S
C214 C215 1.362 . S
C214 C217 1.378 . S
C214 H229 0.929 . S
C215 C214 1.362 . S
C215 C216 1.366 . S
C216 C213 1.365 . S
C216 C215 1.366 . S
C216 H230 0.930 . S
C217 C214 1.378 . S
C217 N218 1.315 . S
C217 H220 0.930 . S
N218 Co198 2.194 . S
N218 C213 1.328 . S
N218 C217 1.315 . S
H219 C213 0.929 . S
H220 C217 0.930 . S
H221 C209 0.929 . S
H222 C211 0.929 . S
O223 Co198 2.351 . S
O223 C226 1.244 . S
O224 Co198 2.155 . S
O224 C226 1.240 . S
O225 Co198 2.096 . S
O225 C206 1.247 . S
C226 O223 1.244 . S
C226 O224 1.240 . S
H227 C201 0.931 . S
H228 C210 0.931 . S
H229 C214 0.929 . S
H230 C216 0.930 . S
Co231 N235 2.148 . S
Co231 N241 2.128 . S
Co231 N251 2.194 . S
Co231 O256 2.351 1_565 S
Co231 O257 2.155 . S
Co231 O258 2.096 . S
C232 N235 1.301 . S
C232 N236 1.328 . S
C232 H237 0.930 . S
C233 C234 1.333 . S
C233 N235 1.317 . S
C233 H238 0.930 . S
C234 C233 1.333 . S
C234 N236 1.350 . S
C234 H260 0.931 . S
N235 Co231 2.148 . S
N235 C232 1.301 . S
N235 C233 1.317 . S
N236 C232 1.328 . S
N236 C234 1.350 . S
H237 C232 0.930 . S
H238 C233 0.930 . S
C239 O240 1.224 . S
C239 O258 1.247 . S
O240 C239 1.224 . S
N241 Co231 2.128 . S
N241 C242 1.355 1_565 S
N241 C244 1.311 1_455 S
C242 N241 1.355 1_545 S
C242 C243 1.363 1_455 S
C242 H254 0.929 . S
C243 C242 1.363 1_655 S
C243 N245 1.375 1_545 S
C243 H261 0.931 . S
C244 N241 1.311 1_655 S
C244 N245 1.347 . S
C244 H255 0.929 . S
N245 C243 1.375 1_565 S
N245 C244 1.347 . S
C246 C249 1.365 . S
C246 N251 1.328 1_545 S
C246 H252 0.929 . S
C247 C248 1.362 1_565 S
C247 C250 1.378 . S
C247 H262 0.929 . S
C248 C247 1.362 1_545 S
C248 C249 1.366 . S
C249 C246 1.365 . S
C249 C248 1.366 . S
C249 H263 0.930 . S
C250 C247 1.378 . S
C250 N251 1.315 . S
C250 H253 0.930 . S
N251 Co231 2.194 . S
N251 C246 1.328 1_565 S
N251 C250 1.315 . S
H252 C246 0.929 . S
H253 C250 0.930 . S
H254 C242 0.929 . S
H255 C244 0.929 . S
O256 Co231 2.351 1_545 S
O256 C259 1.244 . S
O257 Co231 2.155 . S
O257 C259 1.240 1_565 S
O258 Co231 2.096 . S
O258 C239 1.247 . S
C259 O256 1.244 . S
C259 O257 1.240 1_545 S
H260 C234 0.931 . S
H261 C243 0.931 . S
H262 C247 0.929 . S
H263 C249 0.930 . S
Co264 N268 2.148 . S
Co264 N274 2.128 . S
Co264 N284 2.194 . S
Co264 O289 2.351 . S
Co264 O290 2.155 . S
Co264 O291 2.096 . S
C265 N268 1.301 . S
C265 N269 1.328 . S
C265 H270 0.930 . S
C266 C267 1.333 . S
C266 N268 1.317 . S
C266 H271 0.930 . S
C267 C266 1.333 . S
C267 N269 1.350 . S
C267 H293 0.931 . S
N268 Co264 2.148 . S
N268 C265 1.301 . S
N268 C266 1.317 . S
N269 C265 1.328 . S
N269 C267 1.350 . S
H270 C265 0.930 . S
H271 C266 0.930 . S
C272 O273 1.224 . S
C272 O291 1.247 . S
O273 C272 1.224 . S
N274 Co264 2.128 . S
N274 C275 1.355 . S
N274 C277 1.311 . S
C275 N274 1.355 . S
C275 C276 1.363 . S
C275 H287 0.929 . S
C276 C275 1.363 . S
C276 N278 1.375 . S
C276 H294 0.931 . S
C277 N274 1.311 . S
C277 N278 1.347 . S
C277 H288 0.929 . S
N278 C276 1.375 . S
N278 C277 1.347 . S
C279 C282 1.365 . S
C279 N284 1.328 . S
C279 H285 0.929 . S
C280 C281 1.362 . S
C280 C283 1.378 . S
C280 H295 0.929 . S
C281 C280 1.362 . S
C281 C282 1.366 . S
C282 C279 1.365 . S
C282 C281 1.366 . S
C282 H296 0.930 . S
C283 C280 1.378 . S
C283 N284 1.315 . S
C283 H286 0.930 . S
N284 Co264 2.194 . S
N284 C279 1.328 . S
N284 C283 1.315 . S
H285 C279 0.929 . S
H286 C283 0.930 . S
H287 C275 0.929 . S
H288 C277 0.929 . S
O289 Co264 2.351 . S
O289 C292 1.244 . S
O290 Co264 2.155 . S
O290 C292 1.240 . S
O291 Co264 2.096 . S
O291 C272 1.247 . S
C292 O289 1.244 . S
C292 O290 1.240 . S
H293 C267 0.931 . S
H294 C276 0.931 . S
H295 C280 0.929 . S
H296 C282 0.930 . S
Co297 N301 2.148 . S
Co297 N307 2.128 . S
Co297 N317 2.194 . S
Co297 O322 2.351 1_565 S
Co297 O323 2.155 . S
Co297 O324 2.096 . S
C298 N301 1.301 . S
C298 N302 1.328 . S
C298 H303 0.930 . S
C299 C300 1.333 . S
C299 N301 1.317 . S
C299 H304 0.930 . S
C300 C299 1.333 . S
C300 N302 1.350 . S
C300 H326 0.931 . S
N301 Co297 2.148 . S
N301 C298 1.301 . S
N301 C299 1.317 . S
N302 C298 1.328 . S
N302 C300 1.350 . S
H303 C298 0.930 . S
H304 C299 0.930 . S
C305 O306 1.224 . S
C305 O324 1.247 . S
O306 C305 1.224 . S
N307 Co297 2.128 . S
N307 C308 1.355 1_565 S
N307 C310 1.311 1_655 S
C308 N307 1.355 1_545 S
C308 C309 1.363 1_655 S
C308 H320 0.929 . S
C309 C308 1.363 1_455 S
C309 N311 1.375 1_545 S
C309 H327 0.931 . S
C310 N307 1.311 1_455 S
C310 N311 1.347 . S
C310 H321 0.929 . S
N311 C309 1.375 1_565 S
N311 C310 1.347 . S
C312 C315 1.365 . S
C312 N317 1.328 1_545 S
C312 H318 0.929 . S
C313 C314 1.362 1_565 S
C313 C316 1.378 . S
C313 H328 0.929 . S
C314 C313 1.362 1_545 S
C314 C315 1.366 . S
C315 C312 1.365 . S
C315 C314 1.366 . S
C315 H329 0.930 . S
C316 C313 1.378 . S
C316 N317 1.315 . S
C316 H319 0.930 . S
N317 Co297 2.194 . S
N317 C312 1.328 1_565 S
N317 C316 1.315 . S
H318 C312 0.929 . S
H319 C316 0.930 . S
H320 C308 0.929 . S
H321 C310 0.929 . S
O322 Co297 2.351 1_545 S
O322 C325 1.244 . S
O323 Co297 2.155 . S
O323 C325 1.240 1_565 S
O324 Co297 2.096 . S
O324 C305 1.247 . S
C325 O322 1.244 . S
C325 O323 1.240 1_545 S
H326 C300 0.931 . S
H327 C309 0.931 . S
H328 C313 0.929 . S
H329 C315 0.930 . S
Co330 N334 2.148 . S
Co330 N340 2.128 . S
Co330 N350 2.194 . S
Co330 O355 2.351 . S
Co330 O356 2.155 . S
Co330 O357 2.096 . S
C331 N334 1.301 . S
C331 N335 1.328 . S
C331 H336 0.930 . S
C332 C333 1.333 . S
C332 N334 1.317 . S
C332 H337 0.930 . S
C333 C332 1.333 . S
C333 N335 1.350 . S
C333 H359 0.931 . S
N334 Co330 2.148 . S
N334 C331 1.301 . S
N334 C332 1.317 . S
N335 C331 1.328 . S
N335 C333 1.350 . S
H336 C331 0.930 . S
H337 C332 0.930 . S
C338 O339 1.224 . S
C338 O357 1.247 . S
O339 C338 1.224 . S
N340 Co330 2.128 . S
N340 C341 1.355 . S
N340 C343 1.311 . S
C341 N340 1.355 . S
C341 C342 1.363 . S
C341 H353 0.929 . S
C342 C341 1.363 . S
C342 N344 1.375 . S
C342 H360 0.931 . S
C343 N340 1.311 . S
C343 N344 1.347 . S
C343 H354 0.929 . S
N344 C342 1.375 . S
N344 C343 1.347 . S
C345 C348 1.365 . S
C345 N350 1.328 . S
C345 H351 0.929 . S
C346 C347 1.362 . S
C346 C349 1.378 . S
C346 H361 0.929 . S
C347 C346 1.362 . S
C347 C348 1.366 . S
C348 C345 1.365 . S
C348 C347 1.366 . S
C348 H362 0.930 . S
C349 C346 1.378 . S
C349 N350 1.315 . S
C349 H352 0.930 . S
N350 Co330 2.194 . S
N350 C345 1.328 . S
N350 C349 1.315 . S
H351 C345 0.929 . S
H352 C349 0.930 . S
H353 C341 0.929 . S
H354 C343 0.929 . S
O355 Co330 2.351 . S
O355 C358 1.244 . S
O356 Co330 2.155 . S
O356 C358 1.240 . S
O357 Co330 2.096 . S
O357 C338 1.247 . S
C358 O355 1.244 . S
C358 O356 1.240 . S
H359 C333 0.931 . S
H360 C342 0.931 . S
H361 C346 0.929 . S
H362 C348 0.930 . S
Co363 N367 2.148 . S
Co363 N373 2.128 . S
Co363 N383 2.194 . S
Co363 O388 2.351 1_545 S
Co363 O389 2.155 . S
Co363 O390 2.096 . S
C364 N367 1.301 . S
C364 N368 1.328 . S
C364 H369 0.930 . S
C365 C366 1.333 . S
C365 N367 1.317 . S
C365 H370 0.930 . S
C366 C365 1.333 . S
C366 N368 1.350 . S
C366 H392 0.931 . S
N367 Co363 2.148 . S
N367 C364 1.301 . S
N367 C365 1.317 . S
N368 C364 1.328 . S
N368 C366 1.350 . S
H369 C364 0.930 . S
H370 C365 0.930 . S
C371 O372 1.224 . S
C371 O390 1.247 . S
O372 C371 1.224 . S
N373 Co363 2.128 . S
N373 C374 1.355 1_545 S
N373 C376 1.311 . S
C374 N373 1.355 1_565 S
C374 C375 1.363 . S
C374 H386 0.929 . S
C375 C374 1.363 . S
C375 N377 1.375 1_565 S
C375 H393 0.931 . S
C376 N373 1.311 . S
C376 N377 1.347 . S
C376 H387 0.929 . S
N377 C375 1.375 1_545 S
N377 C376 1.347 . S
C378 C381 1.365 . S
C378 N383 1.328 1_565 S
C378 H384 0.929 . S
C379 C380 1.362 1_545 S
C379 C382 1.378 . S
C379 H394 0.929 . S
C380 C379 1.362 1_565 S
C380 C381 1.366 . S
C381 C378 1.365 . S
C381 C380 1.366 . S
C381 H395 0.930 . S
C382 C379 1.378 . S
C382 N383 1.315 . S
C382 H385 0.930 . S
N383 Co363 2.194 . S
N383 C378 1.328 1_545 S
N383 C382 1.315 . S
H384 C378 0.929 . S
H385 C382 0.930 . S
H386 C374 0.929 . S
H387 C376 0.929 . S
O388 Co363 2.351 1_565 S
O388 C391 1.244 . S
O389 Co363 2.155 . S
O389 C391 1.240 1_545 S
O390 Co363 2.096 . S
O390 C371 1.247 . S
C391 O388 1.244 . S
C391 O389 1.240 1_565 S
H392 C366 0.931 . S
H393 C375 0.931 . S
H394 C379 0.929 . S
H395 C381 0.930 . S
Co396 N400 2.148 . S
Co396 N406 2.128 . S
Co396 N416 2.194 . S
Co396 O421 2.351 . S
Co396 O422 2.155 . S
Co396 O423 2.096 . S
C397 N400 1.301 . S
C397 N401 1.328 . S
C397 H402 0.930 . S
C398 C399 1.333 . S
C398 N400 1.317 . S
C398 H403 0.930 . S
C399 C398 1.333 . S
C399 N401 1.350 . S
C399 H425 0.931 . S
N400 Co396 2.148 . S
N400 C397 1.301 . S
N400 C398 1.317 . S
N401 C397 1.328 . S
N401 C399 1.350 . S
H402 C397 0.930 . S
H403 C398 0.930 . S
C404 O405 1.224 . S
C404 O423 1.247 . S
O405 C404 1.224 . S
N406 Co396 2.128 . S
N406 C407 1.355 . S
N406 C409 1.311 . S
C407 N406 1.355 . S
C407 C408 1.363 . S
C407 H419 0.929 . S
C408 C407 1.363 . S
C408 N410 1.375 . S
C408 H426 0.931 . S
C409 N406 1.311 . S
C409 N410 1.347 . S
C409 H420 0.929 . S
N410 C408 1.375 . S
N410 C409 1.347 . S
C411 C414 1.365 . S
C411 N416 1.328 . S
C411 H417 0.929 . S
C412 C413 1.362 . S
C412 C415 1.378 . S
C412 H427 0.929 . S
C413 C412 1.362 . S
C413 C414 1.366 . S
C414 C411 1.365 . S
C414 C413 1.366 . S
C414 H428 0.930 . S
C415 C412 1.378 . S
C415 N416 1.315 . S
C415 H418 0.930 . S
N416 Co396 2.194 . S
N416 C411 1.328 . S
N416 C415 1.315 . S
H417 C411 0.929 . S
H418 C415 0.930 . S
H419 C407 0.929 . S
H420 C409 0.929 . S
O421 Co396 2.351 . S
O421 C424 1.244 . S
O422 Co396 2.155 . S
O422 C424 1.240 . S
O423 Co396 2.096 . S
O423 C404 1.247 . S
C424 O421 1.244 . S
C424 O422 1.240 . S
H425 C399 0.931 . S
H426 C408 0.931 . S
H427 C412 0.929 . S
H428 C414 0.930 . S
Co429 N433 2.148 . S
Co429 N439 2.128 . S
Co429 N449 2.194 . S
Co429 O454 2.351 1_565 S
Co429 O455 2.155 . S
Co429 O456 2.096 . S
C430 N433 1.301 . S
C430 N434 1.328 . S
C430 H435 0.930 . S
C431 C432 1.333 . S
C431 N433 1.317 . S
C431 H436 0.930 . S
C432 C431 1.333 . S
C432 N434 1.350 . S
C432 H458 0.931 . S
N433 Co429 2.148 . S
N433 C430 1.301 . S
N433 C431 1.317 . S
N434 C430 1.328 . S
N434 C432 1.350 . S
H435 C430 0.930 . S
H436 C431 0.930 . S
C437 O438 1.224 . S
C437 O456 1.247 . S
O438 C437 1.224 . S
N439 Co429 2.128 . S
N439 C440 1.355 1_565 S
N439 C442 1.311 . S
C440 N439 1.355 1_545 S
C440 C441 1.363 . S
C440 H452 0.929 . S
C441 C440 1.363 . S
C441 N443 1.375 1_545 S
C441 H459 0.931 . S
C442 N439 1.311 . S
C442 N443 1.347 . S
C442 H453 0.929 . S
N443 C441 1.375 1_565 S
N443 C442 1.347 . S
C444 C447 1.365 . S
C444 N449 1.328 1_545 S
C444 H450 0.929 . S
C445 C446 1.362 1_565 S
C445 C448 1.378 . S
C445 H460 0.929 . S
C446 C445 1.362 1_545 S
C446 C447 1.366 . S
C447 C444 1.365 . S
C447 C446 1.366 . S
C447 H461 0.930 . S
C448 C445 1.378 . S
C448 N449 1.315 . S
C448 H451 0.930 . S
N449 Co429 2.194 . S
N449 C444 1.328 1_565 S
N449 C448 1.315 . S
H450 C444 0.929 . S
H451 C448 0.930 . S
H452 C440 0.929 . S
H453 C442 0.929 . S
O454 Co429 2.351 1_545 S
O454 C457 1.244 . S
O455 Co429 2.155 . S
O455 C457 1.240 1_565 S
O456 Co429 2.096 . S
O456 C437 1.247 . S
C457 O454 1.244 . S
C457 O455 1.240 1_545 S
H458 C432 0.931 . S
H459 C441 0.931 . S
H460 C445 0.929 . S
H461 C447 0.930 . S
Co462 N466 2.148 . S
Co462 N472 2.128 . S
Co462 N482 2.194 . S
Co462 O487 2.351 . S
Co462 O488 2.155 . S
Co462 O489 2.096 . S
C463 N466 1.301 . S
C463 N467 1.328 . S
C463 H468 0.930 . S
C464 C465 1.333 . S
C464 N466 1.317 . S
C464 H469 0.930 . S
C465 C464 1.333 . S
C465 N467 1.350 . S
C465 H491 0.931 . S
N466 Co462 2.148 . S
N466 C463 1.301 . S
N466 C464 1.317 . S
N467 C463 1.328 . S
N467 C465 1.350 . S
H468 C463 0.930 . S
H469 C464 0.930 . S
C470 O471 1.224 . S
C470 O489 1.247 . S
O471 C470 1.224 . S
N472 Co462 2.128 . S
N472 C473 1.355 . S
N472 C475 1.311 . S
C473 N472 1.355 . S
C473 C474 1.363 . S
C473 H485 0.929 . S
C474 C473 1.363 . S
C474 N476 1.375 . S
C474 H492 0.931 . S
C475 N472 1.311 . S
C475 N476 1.347 . S
C475 H486 0.929 . S
N476 C474 1.375 . S
N476 C475 1.347 . S
C477 C480 1.365 . S
C477 N482 1.328 . S
C477 H483 0.929 . S
C478 C479 1.362 . S
C478 C481 1.378 . S
C478 H493 0.929 . S
C479 C478 1.362 . S
C479 C480 1.366 . S
C480 C477 1.365 . S
C480 C479 1.366 . S
C480 H494 0.930 . S
C481 C478 1.378 . S
C481 N482 1.315 . S
C481 H484 0.930 . S
N482 Co462 2.194 . S
N482 C477 1.328 . S
N482 C481 1.315 . S
H483 C477 0.929 . S
H484 C481 0.930 . S
H485 C473 0.929 . S
H486 C475 0.929 . S
O487 Co462 2.351 . S
O487 C490 1.244 . S
O488 Co462 2.155 . S
O488 C490 1.240 . S
O489 Co462 2.096 . S
O489 C470 1.247 . S
C490 O487 1.244 . S
C490 O488 1.240 . S
H491 C465 0.931 . S
H492 C474 0.931 . S
H493 C478 0.929 . S
H494 C480 0.930 . S
Co495 N499 2.148 . S
Co495 N505 2.128 . S
Co495 N515 2.194 . S
Co495 O520 2.351 1_545 S
Co495 O521 2.155 . S
Co495 O522 2.096 . S
C496 N499 1.301 . S
C496 N500 1.328 . S
C496 H501 0.930 . S
C497 C498 1.333 . S
C497 N499 1.317 . S
C497 H502 0.930 . S
C498 C497 1.333 . S
C498 N500 1.350 . S
C498 H524 0.931 . S
N499 Co495 2.148 . S
N499 C496 1.301 . S
N499 C497 1.317 . S
N500 C496 1.328 . S
N500 C498 1.350 . S
H501 C496 0.930 . S
H502 C497 0.930 . S
C503 O504 1.224 . S
C503 O522 1.247 . S
O504 C503 1.224 . S
N505 Co495 2.128 . S
N505 C506 1.355 1_545 S
N505 C508 1.311 1_655 S
C506 N505 1.355 1_565 S
C506 C507 1.363 1_655 S
C506 H518 0.929 . S
C507 C506 1.363 1_455 S
C507 N509 1.375 1_565 S
C507 H525 0.931 . S
C508 N505 1.311 1_455 S
C508 N509 1.347 . S
C508 H519 0.929 . S
N509 C507 1.375 1_545 S
N509 C508 1.347 . S
C510 C513 1.365 . S
C510 N515 1.328 1_565 S
C510 H516 0.929 . S
C511 C512 1.362 1_545 S
C511 C514 1.378 . S
C511 H526 0.929 . S
C512 C511 1.362 1_565 S
C512 C513 1.366 . S
C513 C510 1.365 . S
C513 C512 1.366 . S
C513 H527 0.930 . S
C514 C511 1.378 . S
C514 N515 1.315 . S
C514 H517 0.930 . S
N515 Co495 2.194 . S
N515 C510 1.328 1_545 S
N515 C514 1.315 . S
H516 C510 0.929 . S
H517 C514 0.930 . S
H518 C506 0.929 . S
H519 C508 0.929 . S
O520 Co495 2.351 1_565 S
O520 C523 1.244 . S
O521 Co495 2.155 . S
O521 C523 1.240 1_545 S
O522 Co495 2.096 . S
O522 C503 1.247 . S
C523 O520 1.244 . S
C523 O521 1.240 1_565 S
H524 C498 0.931 . S
H525 C507 0.931 . S
H526 C511 0.929 . S
H527 C513 0.930 . S
Co528 N532 2.148 . S
Co528 N538 2.128 . S
Co528 N548 2.194 . S
Co528 O553 2.351 . S
Co528 O554 2.155 . S
Co528 O555 2.096 . S
C529 N532 1.301 . S
C529 N533 1.328 . S
C529 H534 0.930 . S
C530 C531 1.333 . S
C530 N532 1.317 . S
C530 H535 0.930 . S
C531 C530 1.333 . S
C531 N533 1.350 . S
C531 H557 0.931 . S
N532 Co528 2.148 . S
N532 C529 1.301 . S
N532 C530 1.317 . S
N533 C529 1.328 . S
N533 C531 1.350 . S
H534 C529 0.930 . S
H535 C530 0.930 . S
C536 O537 1.224 . S
C536 O555 1.247 . S
O537 C536 1.224 . S
N538 Co528 2.128 . S
N538 C539 1.355 . S
N538 C541 1.311 . S
C539 N538 1.355 . S
C539 C540 1.363 . S
C539 H551 0.929 . S
C540 C539 1.363 . S
C540 N542 1.375 . S
C540 H558 0.931 . S
C541 N538 1.311 . S
C541 N542 1.347 . S
C541 H552 0.929 . S
N542 C540 1.375 . S
N542 C541 1.347 . S
C543 C546 1.365 . S
C543 N548 1.328 . S
C543 H549 0.929 . S
C544 C545 1.362 . S
C544 C547 1.378 . S
C544 H559 0.929 . S
C545 C544 1.362 . S
C545 C546 1.366 . S
C546 C543 1.365 . S
C546 C545 1.366 . S
C546 H560 0.930 . S
C547 C544 1.378 . S
C547 N548 1.315 . S
C547 H550 0.930 . S
N548 Co528 2.194 . S
N548 C543 1.328 . S
N548 C547 1.315 . S
H549 C543 0.929 . S
H550 C547 0.930 . S
H551 C539 0.929 . S
H552 C541 0.929 . S
O553 Co528 2.351 . S
O553 C556 1.244 . S
O554 Co528 2.155 . S
O554 C556 1.240 . S
O555 Co528 2.096 . S
O555 C536 1.247 . S
C556 O553 1.244 . S
C556 O554 1.240 . S
H557 C531 0.931 . S
H558 C540 0.931 . S
H559 C544 0.929 . S
H560 C546 0.930 . S
Co561 N565 2.148 . S
Co561 N571 2.128 . S
Co561 N581 2.194 . S
Co561 O586 2.351 . S
Co561 O587 2.155 . S
Co561 O588 2.096 . S
C562 N565 1.301 . S
C562 N566 1.328 . S
C562 H567 0.930 . S
C563 C564 1.333 . S
C563 N565 1.317 . S
C563 H568 0.930 . S
C564 C563 1.333 . S
C564 N566 1.350 . S
C564 H590 0.931 . S
N565 Co561 2.148 . S
N565 C562 1.301 . S
N565 C563 1.317 . S
N566 C562 1.328 . S
N566 C564 1.350 . S
H567 C562 0.930 . S
H568 C563 0.930 . S
C569 O570 1.224 . S
C569 O588 1.247 . S
O570 C569 1.224 . S
N571 Co561 2.128 . S
N571 C572 1.355 . S
N571 C574 1.311 . S
C572 N571 1.355 . S
C572 C573 1.363 . S
C572 H584 0.929 . S
C573 C572 1.363 . S
C573 N575 1.375 . S
C573 H591 0.931 . S
C574 N571 1.311 . S
C574 N575 1.347 . S
C574 H585 0.929 . S
N575 C573 1.375 . S
N575 C574 1.347 . S
C576 C579 1.365 . S
C576 N581 1.328 . S
C576 H582 0.929 . S
C577 C578 1.362 . S
C577 C580 1.378 . S
C577 H592 0.929 . S
C578 C577 1.362 . S
C578 C579 1.366 . S
C579 C576 1.365 . S
C579 C578 1.366 . S
C579 H593 0.930 . S
C580 C577 1.378 . S
C580 N581 1.315 . S
C580 H583 0.930 . S
N581 Co561 2.194 . S
N581 C576 1.328 . S
N581 C580 1.315 . S
H582 C576 0.929 . S
H583 C580 0.930 . S
H584 C572 0.929 . S
H585 C574 0.929 . S
O586 Co561 2.351 . S
O586 C589 1.244 . S
O587 Co561 2.155 . S
O587 C589 1.240 . S
O588 Co561 2.096 . S
O588 C569 1.247 . S
C589 O586 1.244 . S
C589 O587 1.240 . S
H590 C564 0.931 . S
H591 C573 0.931 . S
H592 C577 0.929 . S
H593 C579 0.930 . S
Co594 N598 2.148 . S
Co594 N604 2.128 . S
Co594 N614 2.194 . S
Co594 O619 2.351 . S
Co594 O620 2.155 . S
Co594 O621 2.096 . S
C595 N598 1.301 . S
C595 N599 1.328 . S
C595 H600 0.930 . S
C596 C597 1.333 . S
C596 N598 1.317 . S
C596 H601 0.930 . S
C597 C596 1.333 . S
C597 N599 1.350 . S
C597 H623 0.931 . S
N598 Co594 2.148 . S
N598 C595 1.301 . S
N598 C596 1.317 . S
N599 C595 1.328 . S
N599 C597 1.350 . S
H600 C595 0.930 . S
H601 C596 0.930 . S
C602 O603 1.224 . S
C602 O621 1.247 . S
O603 C602 1.224 . S
N604 Co594 2.128 . S
N604 C605 1.355 . S
N604 C607 1.311 . S
C605 N604 1.355 . S
C605 C606 1.363 . S
C605 H617 0.929 . S
C606 C605 1.363 . S
C606 N608 1.375 . S
C606 H624 0.931 . S
C607 N604 1.311 . S
C607 N608 1.347 . S
C607 H618 0.929 . S
N608 C606 1.375 . S
N608 C607 1.347 . S
C609 C612 1.365 . S
C609 N614 1.328 . S
C609 H615 0.929 . S
C610 C611 1.362 . S
C610 C613 1.378 . S
C610 H625 0.929 . S
C611 C610 1.362 . S
C611 C612 1.366 . S
C612 C609 1.365 . S
C612 C611 1.366 . S
C612 H626 0.930 . S
C613 C610 1.378 . S
C613 N614 1.315 . S
C613 H616 0.930 . S
N614 Co594 2.194 . S
N614 C609 1.328 . S
N614 C613 1.315 . S
H615 C609 0.929 . S
H616 C613 0.930 . S
H617 C605 0.929 . S
H618 C607 0.929 . S
O619 Co594 2.351 . S
O619 C622 1.244 . S
O620 Co594 2.155 . S
O620 C622 1.240 . S
O621 Co594 2.096 . S
O621 C602 1.247 . S
C622 O619 1.244 . S
C622 O620 1.240 . S
H623 C597 0.931 . S
H624 C606 0.931 . S
H625 C610 0.929 . S
H626 C612 0.930 . S
Co627 N631 2.148 . S
Co627 N637 2.128 . S
Co627 N647 2.194 . S
Co627 O652 2.351 . S
Co627 O653 2.155 . S
Co627 O654 2.096 . S
C628 N631 1.301 . S
C628 N632 1.328 . S
C628 H633 0.930 . S
C629 C630 1.333 . S
C629 N631 1.317 . S
C629 H634 0.930 . S
C630 C629 1.333 . S
C630 N632 1.350 . S
C630 H656 0.931 . S
N631 Co627 2.148 . S
N631 C628 1.301 . S
N631 C629 1.317 . S
N632 C628 1.328 . S
N632 C630 1.350 . S
H633 C628 0.930 . S
H634 C629 0.930 . S
C635 O636 1.224 . S
C635 O654 1.247 . S
O636 C635 1.224 . S
N637 Co627 2.128 . S
N637 C638 1.355 . S
N637 C640 1.311 1_655 S
C638 N637 1.355 . S
C638 C639 1.363 1_655 S
C638 H650 0.929 . S
C639 C638 1.363 1_455 S
C639 N641 1.375 . S
C639 H657 0.931 . S
C640 N637 1.311 1_455 S
C640 N641 1.347 . S
C640 H651 0.929 . S
N641 C639 1.375 . S
N641 C640 1.347 . S
C642 C645 1.365 . S
C642 N647 1.328 . S
C642 H648 0.929 . S
C643 C644 1.362 . S
C643 C646 1.378 . S
C643 H658 0.929 . S
C644 C643 1.362 . S
C644 C645 1.366 . S
C645 C642 1.365 . S
C645 C644 1.366 . S
C645 H659 0.930 . S
C646 C643 1.378 . S
C646 N647 1.315 . S
C646 H649 0.930 . S
N647 Co627 2.194 . S
N647 C642 1.328 . S
N647 C646 1.315 . S
H648 C642 0.929 . S
H649 C646 0.930 . S
H650 C638 0.929 . S
H651 C640 0.929 . S
O652 Co627 2.351 . S
O652 C655 1.244 . S
O653 Co627 2.155 . S
O653 C655 1.240 . S
O654 Co627 2.096 . S
O654 C635 1.247 . S
C655 O652 1.244 . S
C655 O653 1.240 . S
H656 C630 0.931 . S
H657 C639 0.931 . S
H658 C643 0.929 . S
H659 C645 0.930 . S
Co660 N664 2.148 . S
Co660 N670 2.128 . S
Co660 N680 2.194 . S
Co660 O685 2.351 . S
Co660 O686 2.155 . S
Co660 O687 2.096 . S
C661 N664 1.301 . S
C661 N665 1.328 . S
C661 H666 0.930 . S
C662 C663 1.333 . S
C662 N664 1.317 . S
C662 H667 0.930 . S
C663 C662 1.333 . S
C663 N665 1.350 . S
C663 H689 0.931 . S
N664 Co660 2.148 . S
N664 C661 1.301 . S
N664 C662 1.317 . S
N665 C661 1.328 . S
N665 C663 1.350 . S
H666 C661 0.930 . S
H667 C662 0.930 . S
C668 O669 1.224 . S
C668 O687 1.247 . S
O669 C668 1.224 . S
N670 Co660 2.128 . S
N670 C671 1.355 . S
N670 C673 1.311 . S
C671 N670 1.355 . S
C671 C672 1.363 . S
C671 H683 0.929 . S
C672 C671 1.363 . S
C672 N674 1.375 . S
C672 H690 0.931 . S
C673 N670 1.311 . S
C673 N674 1.347 . S
C673 H684 0.929 . S
N674 C672 1.375 . S
N674 C673 1.347 . S
C675 C678 1.365 . S
C675 N680 1.328 . S
C675 H681 0.929 . S
C676 C677 1.362 . S
C676 C679 1.378 . S
C676 H691 0.929 . S
C677 C676 1.362 . S
C677 C678 1.366 . S
C678 C675 1.365 . S
C678 C677 1.366 . S
C678 H692 0.930 . S
C679 C676 1.378 . S
C679 N680 1.315 . S
C679 H682 0.930 . S
N680 Co660 2.194 . S
N680 C675 1.328 . S
N680 C679 1.315 . S
H681 C675 0.929 . S
H682 C679 0.930 . S
H683 C671 0.929 . S
H684 C673 0.929 . S
O685 Co660 2.351 . S
O685 C688 1.244 . S
O686 Co660 2.155 . S
O686 C688 1.240 . S
O687 Co660 2.096 . S
O687 C668 1.247 . S
C688 O685 1.244 . S
C688 O686 1.240 . S
H689 C663 0.931 . S
H690 C672 0.931 . S
H691 C676 0.929 . S
H692 C678 0.930 . S
Co693 N697 2.148 . S
Co693 N703 2.128 . S
Co693 N713 2.194 . S
Co693 O718 2.351 . S
Co693 O719 2.155 . S
Co693 O720 2.096 . S
C694 N697 1.301 . S
C694 N698 1.328 . S
C694 H699 0.930 . S
C695 C696 1.333 . S
C695 N697 1.317 . S
C695 H700 0.930 . S
C696 C695 1.333 . S
C696 N698 1.350 . S
C696 H722 0.931 . S
N697 Co693 2.148 . S
N697 C694 1.301 . S
N697 C695 1.317 . S
N698 C694 1.328 . S
N698 C696 1.350 . S
H699 C694 0.930 . S
H700 C695 0.930 . S
C701 O702 1.224 . S
C701 O720 1.247 . S
O702 C701 1.224 . S
N703 Co693 2.128 . S
N703 C704 1.355 . S
N703 C706 1.311 1_655 S
C704 N703 1.355 . S
C704 C705 1.363 1_655 S
C704 H716 0.929 . S
C705 C704 1.363 1_455 S
C705 N707 1.375 . S
C705 H723 0.931 . S
C706 N703 1.311 1_455 S
C706 N707 1.347 . S
C706 H717 0.929 . S
N707 C705 1.375 . S
N707 C706 1.347 . S
C708 C711 1.365 . S
C708 N713 1.328 . S
C708 H714 0.929 . S
C709 C710 1.362 . S
C709 C712 1.378 . S
C709 H724 0.929 . S
C710 C709 1.362 . S
C710 C711 1.366 . S
C711 C708 1.365 . S
C711 C710 1.366 . S
C711 H725 0.930 . S
C712 C709 1.378 . S
C712 N713 1.315 . S
C712 H715 0.930 . S
N713 Co693 2.194 . S
N713 C708 1.328 . S
N713 C712 1.315 . S
H714 C708 0.929 . S
H715 C712 0.930 . S
H716 C704 0.929 . S
H717 C706 0.929 . S
O718 Co693 2.351 . S
O718 C721 1.244 . S
O719 Co693 2.155 . S
O719 C721 1.240 . S
O720 Co693 2.096 . S
O720 C701 1.247 . S
C721 O718 1.244 . S
C721 O719 1.240 . S
H722 C696 0.931 . S
H723 C705 0.931 . S
H724 C709 0.929 . S
H725 C711 0.930 . S
Co726 N730 2.148 . S
Co726 N736 2.128 . S
Co726 N746 2.194 . S
Co726 O751 2.351 . S
Co726 O752 2.155 . S
Co726 O753 2.096 . S
C727 N730 1.301 . S
C727 N731 1.328 . S
C727 H732 0.930 . S
C728 C729 1.333 . S
C728 N730 1.317 . S
C728 H733 0.930 . S
C729 C728 1.333 . S
C729 N731 1.350 . S
C729 H755 0.931 . S
N730 Co726 2.148 . S
N730 C727 1.301 . S
N730 C728 1.317 . S
N731 C727 1.328 . S
N731 C729 1.350 . S
H732 C727 0.930 . S
H733 C728 0.930 . S
C734 O735 1.224 . S
C734 O753 1.247 . S
O735 C734 1.224 . S
N736 Co726 2.128 . S
N736 C737 1.355 . S
N736 C739 1.311 . S
C737 N736 1.355 . S
C737 C738 1.363 . S
C737 H749 0.929 . S
C738 C737 1.363 . S
C738 N740 1.375 . S
C738 H756 0.931 . S
C739 N736 1.311 . S
C739 N740 1.347 . S
C739 H750 0.929 . S
N740 C738 1.375 . S
N740 C739 1.347 . S
C741 C744 1.365 . S
C741 N746 1.328 . S
C741 H747 0.929 . S
C742 C743 1.362 . S
C742 C745 1.378 . S
C742 H757 0.929 . S
C743 C742 1.362 . S
C743 C744 1.366 . S
C744 C741 1.365 . S
C744 C743 1.366 . S
C744 H758 0.930 . S
C745 C742 1.378 . S
C745 N746 1.315 . S
C745 H748 0.930 . S
N746 Co726 2.194 . S
N746 C741 1.328 . S
N746 C745 1.315 . S
H747 C741 0.929 . S
H748 C745 0.930 . S
H749 C737 0.929 . S
H750 C739 0.929 . S
O751 Co726 2.351 . S
O751 C754 1.244 . S
O752 Co726 2.155 . S
O752 C754 1.240 . S
O753 Co726 2.096 . S
O753 C734 1.247 . S
C754 O751 1.244 . S
C754 O752 1.240 . S
H755 C729 0.931 . S
H756 C738 0.931 . S
H757 C742 0.929 . S
H758 C744 0.930 . S
Co759 N763 2.148 . S
Co759 N769 2.128 . S
Co759 N779 2.194 . S
Co759 O784 2.351 . S
Co759 O785 2.155 . S
Co759 O786 2.096 . S
C760 N763 1.301 . S
C760 N764 1.328 . S
C760 H765 0.930 . S
C761 C762 1.333 . S
C761 N763 1.317 . S
C761 H766 0.930 . S
C762 C761 1.333 . S
C762 N764 1.350 . S
C762 H788 0.931 . S
N763 Co759 2.148 . S
N763 C760 1.301 . S
N763 C761 1.317 . S
N764 C760 1.328 . S
N764 C762 1.350 . S
H765 C760 0.930 . S
H766 C761 0.930 . S
C767 O768 1.224 . S
C767 O786 1.247 . S
O768 C767 1.224 . S
N769 Co759 2.128 . S
N769 C770 1.355 . S
N769 C772 1.311 . S
C770 N769 1.355 . S
C770 C771 1.363 . S
C770 H782 0.929 . S
C771 C770 1.363 . S
C771 N773 1.375 . S
C771 H789 0.931 . S
C772 N769 1.311 . S
C772 N773 1.347 . S
C772 H783 0.929 . S
N773 C771 1.375 . S
N773 C772 1.347 . S
C774 C777 1.365 . S
C774 N779 1.328 . S
C774 H780 0.929 . S
C775 C776 1.362 . S
C775 C778 1.378 . S
C775 H790 0.929 . S
C776 C775 1.362 . S
C776 C777 1.366 . S
C777 C774 1.365 . S
C777 C776 1.366 . S
C777 H791 0.930 . S
C778 C775 1.378 . S
C778 N779 1.315 . S
C778 H781 0.930 . S
N779 Co759 2.194 . S
N779 C774 1.328 . S
N779 C778 1.315 . S
H780 C774 0.929 . S
H781 C778 0.930 . S
H782 C770 0.929 . S
H783 C772 0.929 . S
O784 Co759 2.351 . S
O784 C787 1.244 . S
O785 Co759 2.155 . S
O785 C787 1.240 . S
O786 Co759 2.096 . S
O786 C767 1.247 . S
C787 O784 1.244 . S
C787 O785 1.240 . S
H788 C762 0.931 . S
H789 C771 0.931 . S
H790 C775 0.929 . S
H791 C777 0.930 . S
Co792 N796 2.148 . S
Co792 N802 2.128 . S
Co792 N812 2.194 . S
Co792 O817 2.351 . S
Co792 O818 2.155 . S
Co792 O819 2.096 . S
C793 N796 1.301 . S
C793 N797 1.328 . S
C793 H798 0.930 . S
C794 C795 1.333 . S
C794 N796 1.317 . S
C794 H799 0.930 . S
C795 C794 1.333 . S
C795 N797 1.350 . S
C795 H821 0.931 . S
N796 Co792 2.148 . S
N796 C793 1.301 . S
N796 C794 1.317 . S
N797 C793 1.328 . S
N797 C795 1.350 . S
H798 C793 0.930 . S
H799 C794 0.930 . S
C800 O801 1.224 . S
C800 O819 1.247 . S
O801 C800 1.224 . S
N802 Co792 2.128 . S
N802 C803 1.355 . S
N802 C805 1.311 . S
C803 N802 1.355 . S
C803 C804 1.363 . S
C803 H815 0.929 . S
C804 C803 1.363 . S
C804 N806 1.375 . S
C804 H822 0.931 . S
C805 N802 1.311 . S
C805 N806 1.347 . S
C805 H816 0.929 . S
N806 C804 1.375 . S
N806 C805 1.347 . S
C807 C810 1.365 . S
C807 N812 1.328 . S
C807 H813 0.929 . S
C808 C809 1.362 . S
C808 C811 1.378 . S
C808 H823 0.929 . S
C809 C808 1.362 . S
C809 C810 1.366 . S
C810 C807 1.365 . S
C810 C809 1.366 . S
C810 H824 0.930 . S
C811 C808 1.378 . S
C811 N812 1.315 . S
C811 H814 0.930 . S
N812 Co792 2.194 . S
N812 C807 1.328 . S
N812 C811 1.315 . S
H813 C807 0.929 . S
H814 C811 0.930 . S
H815 C803 0.929 . S
H816 C805 0.929 . S
O817 Co792 2.351 . S
O817 C820 1.244 . S
O818 Co792 2.155 . S
O818 C820 1.240 . S
O819 Co792 2.096 . S
O819 C800 1.247 . S
C820 O817 1.244 . S
C820 O818 1.240 . S
H821 C795 0.931 . S
H822 C804 0.931 . S
H823 C808 0.929 . S
H824 C810 0.930 . S
Co825 N829 2.148 . S
Co825 N835 2.128 . S
Co825 N845 2.194 . S
Co825 O850 2.351 . S
Co825 O851 2.155 . S
Co825 O852 2.096 . S
C826 N829 1.301 . S
C826 N830 1.328 . S
C826 H831 0.930 . S
C827 C828 1.333 . S
C827 N829 1.317 . S
C827 H832 0.930 . S
C828 C827 1.333 . S
C828 N830 1.350 . S
C828 H854 0.931 . S
N829 Co825 2.148 . S
N829 C826 1.301 . S
N829 C827 1.317 . S
N830 C826 1.328 . S
N830 C828 1.350 . S
H831 C826 0.930 . S
H832 C827 0.930 . S
C833 O834 1.224 . S
C833 O852 1.247 . S
O834 C833 1.224 . S
N835 Co825 2.128 . S
N835 C836 1.355 . S
N835 C838 1.311 . S
C836 N835 1.355 . S
C836 C837 1.363 . S
C836 H848 0.929 . S
C837 C836 1.363 . S
C837 N839 1.375 . S
C837 H855 0.931 . S
C838 N835 1.311 . S
C838 N839 1.347 . S
C838 H849 0.929 . S
N839 C837 1.375 . S
N839 C838 1.347 . S
C840 C843 1.365 . S
C840 N845 1.328 . S
C840 H846 0.929 . S
C841 C842 1.362 . S
C841 C844 1.378 . S
C841 H856 0.929 . S
C842 C841 1.362 . S
C842 C843 1.366 . S
C843 C840 1.365 . S
C843 C842 1.366 . S
C843 H857 0.930 . S
C844 C841 1.378 . S
C844 N845 1.315 . S
C844 H847 0.930 . S
N845 Co825 2.194 . S
N845 C840 1.328 . S
N845 C844 1.315 . S
H846 C840 0.929 . S
H847 C844 0.930 . S
H848 C836 0.929 . S
H849 C838 0.929 . S
O850 Co825 2.351 . S
O850 C853 1.244 . S
O851 Co825 2.155 . S
O851 C853 1.240 . S
O852 Co825 2.096 . S
O852 C833 1.247 . S
C853 O850 1.244 . S
C853 O851 1.240 . S
H854 C828 0.931 . S
H855 C837 0.931 . S
H856 C841 0.929 . S
H857 C843 0.930 . S
Co858 N862 2.148 . S
Co858 N868 2.128 . S
Co858 N878 2.194 . S
Co858 O883 2.351 . S
Co858 O884 2.155 . S
Co858 O885 2.096 . S
C859 N862 1.301 . S
C859 N863 1.328 . S
C859 H864 0.930 . S
C860 C861 1.333 . S
C860 N862 1.317 . S
C860 H865 0.930 . S
C861 C860 1.333 . S
C861 N863 1.350 . S
C861 H887 0.931 . S
N862 Co858 2.148 . S
N862 C859 1.301 . S
N862 C860 1.317 . S
N863 C859 1.328 . S
N863 C861 1.350 . S
H864 C859 0.930 . S
H865 C860 0.930 . S
C866 O867 1.224 . S
C866 O885 1.247 . S
O867 C866 1.224 . S
N868 Co858 2.128 . S
N868 C869 1.355 . S
N868 C871 1.311 . S
C869 N868 1.355 . S
C869 C870 1.363 . S
C869 H881 0.929 . S
C870 C869 1.363 . S
C870 N872 1.375 . S
C870 H888 0.931 . S
C871 N868 1.311 . S
C871 N872 1.347 . S
C871 H882 0.929 . S
N872 C870 1.375 . S
N872 C871 1.347 . S
C873 C876 1.365 . S
C873 N878 1.328 . S
C873 H879 0.929 . S
C874 C875 1.362 . S
C874 C877 1.378 . S
C874 H889 0.929 . S
C875 C874 1.362 . S
C875 C876 1.366 . S
C876 C873 1.365 . S
C876 C875 1.366 . S
C876 H890 0.930 . S
C877 C874 1.378 . S
C877 N878 1.315 . S
C877 H880 0.930 . S
N878 Co858 2.194 . S
N878 C873 1.328 . S
N878 C877 1.315 . S
H879 C873 0.929 . S
H880 C877 0.930 . S
H881 C869 0.929 . S
H882 C871 0.929 . S
O883 Co858 2.351 . S
O883 C886 1.244 . S
O884 Co858 2.155 . S
O884 C886 1.240 . S
O885 Co858 2.096 . S
O885 C866 1.247 . S
C886 O883 1.244 . S
C886 O884 1.240 . S
H887 C861 0.931 . S
H888 C870 0.931 . S
H889 C874 0.929 . S
H890 C876 0.930 . S
Co891 N895 2.148 . S
Co891 N901 2.128 . S
Co891 N911 2.194 . S
Co891 O916 2.351 . S
Co891 O917 2.155 . S
Co891 O918 2.096 . S
C892 N895 1.301 . S
C892 N896 1.328 . S
C892 H897 0.930 . S
C893 C894 1.333 . S
C893 N895 1.317 . S
C893 H898 0.930 . S
C894 C893 1.333 . S
C894 N896 1.350 . S
C894 H920 0.931 . S
N895 Co891 2.148 . S
N895 C892 1.301 . S
N895 C893 1.317 . S
N896 C892 1.328 . S
N896 C894 1.350 . S
H897 C892 0.930 . S
H898 C893 0.930 . S
C899 O900 1.224 . S
C899 O918 1.247 . S
O900 C899 1.224 . S
N901 Co891 2.128 . S
N901 C902 1.355 . S
N901 C904 1.311 1_455 S
C902 N901 1.355 . S
C902 C903 1.363 1_455 S
C902 H914 0.929 . S
C903 C902 1.363 1_655 S
C903 N905 1.375 . S
C903 H921 0.931 . S
C904 N901 1.311 1_655 S
C904 N905 1.347 . S
C904 H915 0.929 . S
N905 C903 1.375 . S
N905 C904 1.347 . S
C906 C909 1.365 . S
C906 N911 1.328 . S
C906 H912 0.929 . S
C907 C908 1.362 . S
C907 C910 1.378 . S
C907 H922 0.929 . S
C908 C907 1.362 . S
C908 C909 1.366 . S
C909 C906 1.365 . S
C909 C908 1.366 . S
C909 H923 0.930 . S
C910 C907 1.378 . S
C910 N911 1.315 . S
C910 H913 0.930 . S
N911 Co891 2.194 . S
N911 C906 1.328 . S
N911 C910 1.315 . S
H912 C906 0.929 . S
H913 C910 0.930 . S
H914 C902 0.929 . S
H915 C904 0.929 . S
O916 Co891 2.351 . S
O916 C919 1.244 . S
O917 Co891 2.155 . S
O917 C919 1.240 . S
O918 Co891 2.096 . S
O918 C899 1.247 . S
C919 O916 1.244 . S
C919 O917 1.240 . S
H920 C894 0.931 . S
H921 C903 0.931 . S
H922 C907 0.929 . S
H923 C909 0.930 . S
Co924 N928 2.148 . S
Co924 N934 2.128 . S
Co924 N944 2.194 . S
Co924 O949 2.351 . S
Co924 O950 2.155 . S
Co924 O951 2.096 . S
C925 N928 1.301 . S
C925 N929 1.328 . S
C925 H930 0.930 . S
C926 C927 1.333 . S
C926 N928 1.317 . S
C926 H931 0.930 . S
C927 C926 1.333 . S
C927 N929 1.350 . S
C927 H953 0.931 . S
N928 Co924 2.148 . S
N928 C925 1.301 . S
N928 C926 1.317 . S
N929 C925 1.328 . S
N929 C927 1.350 . S
H930 C925 0.930 . S
H931 C926 0.930 . S
C932 O933 1.224 . S
C932 O951 1.247 . S
O933 C932 1.224 . S
N934 Co924 2.128 . S
N934 C935 1.355 . S
N934 C937 1.311 . S
C935 N934 1.355 . S
C935 C936 1.363 . S
C935 H947 0.929 . S
C936 C935 1.363 . S
C936 N938 1.375 . S
C936 H954 0.931 . S
C937 N934 1.311 . S
C937 N938 1.347 . S
C937 H948 0.929 . S
N938 C936 1.375 . S
N938 C937 1.347 . S
C939 C942 1.365 . S
C939 N944 1.328 . S
C939 H945 0.929 . S
C940 C941 1.362 . S
C940 C943 1.378 . S
C940 H955 0.929 . S
C941 C940 1.362 . S
C941 C942 1.366 . S
C942 C939 1.365 . S
C942 C941 1.366 . S
C942 H956 0.930 . S
C943 C940 1.378 . S
C943 N944 1.315 . S
C943 H946 0.930 . S
N944 Co924 2.194 . S
N944 C939 1.328 . S
N944 C943 1.315 . S
H945 C939 0.929 . S
H946 C943 0.930 . S
H947 C935 0.929 . S
H948 C937 0.929 . S
O949 Co924 2.351 . S
O949 C952 1.244 . S
O950 Co924 2.155 . S
O950 C952 1.240 . S
O951 Co924 2.096 . S
O951 C932 1.247 . S
C952 O949 1.244 . S
C952 O950 1.240 . S
H953 C927 0.931 . S
H954 C936 0.931 . S
H955 C940 0.929 . S
H956 C942 0.930 . S
Co957 N961 2.148 . S
Co957 N967 2.128 . S
Co957 N977 2.194 . S
Co957 O982 2.351 . S
Co957 O983 2.155 . S
Co957 O984 2.096 . S
C958 N961 1.301 . S
C958 N962 1.328 . S
C958 H963 0.930 . S
C959 C960 1.333 . S
C959 N961 1.317 . S
C959 H964 0.930 . S
C960 C959 1.333 . S
C960 N962 1.350 . S
C960 H986 0.931 . S
N961 Co957 2.148 . S
N961 C958 1.301 . S
N961 C959 1.317 . S
N962 C958 1.328 . S
N962 C960 1.350 . S
H963 C958 0.930 . S
H964 C959 0.930 . S
C965 O966 1.224 . S
C965 O984 1.247 . S
O966 C965 1.224 . S
N967 Co957 2.128 . S
N967 C968 1.355 . S
N967 C970 1.311 1_455 S
C968 N967 1.355 . S
C968 C969 1.363 1_455 S
C968 H980 0.929 . S
C969 C968 1.363 1_655 S
C969 N971 1.375 . S
C969 H987 0.931 . S
C970 N967 1.311 1_655 S
C970 N971 1.347 . S
C970 H981 0.929 . S
N971 C969 1.375 . S
N971 C970 1.347 . S
C972 C975 1.365 . S
C972 N977 1.328 . S
C972 H978 0.929 . S
C973 C974 1.362 . S
C973 C976 1.378 . S
C973 H988 0.929 . S
C974 C973 1.362 . S
C974 C975 1.366 . S
C975 C972 1.365 . S
C975 C974 1.366 . S
C975 H989 0.930 . S
C976 C973 1.378 . S
C976 N977 1.315 . S
C976 H979 0.930 . S
N977 Co957 2.194 . S
N977 C972 1.328 . S
N977 C976 1.315 . S
H978 C972 0.929 . S
H979 C976 0.930 . S
H980 C968 0.929 . S
H981 C970 0.929 . S
O982 Co957 2.351 . S
O982 C985 1.244 . S
O983 Co957 2.155 . S
O983 C985 1.240 . S
O984 Co957 2.096 . S
O984 C965 1.247 . S
C985 O982 1.244 . S
C985 O983 1.240 . S
H986 C960 0.931 . S
H987 C969 0.931 . S
H988 C973 0.929 . S
H989 C975 0.930 . S
Co990 N994 2.148 . S
Co990 N1000 2.128 . S
Co990 N1010 2.194 . S
Co990 O1015 2.351 . S
Co990 O1016 2.155 . S
Co990 O1017 2.096 . S
C991 N994 1.301 . S
C991 N995 1.328 . S
C991 H996 0.930 . S
C992 C993 1.333 . S
C992 N994 1.317 . S
C992 H997 0.930 . S
C993 C992 1.333 . S
C993 N995 1.350 . S
C993 H1019 0.931 . S
N994 Co990 2.148 . S
N994 C991 1.301 . S
N994 C992 1.317 . S
N995 C991 1.328 . S
N995 C993 1.350 . S
H996 C991 0.930 . S
H997 C992 0.930 . S
C998 O999 1.224 . S
C998 O1017 1.247 . S
O999 C998 1.224 . S
N1000 Co990 2.128 . S
N1000 C1001 1.355 . S
N1000 C1003 1.311 . S
C1001 N1000 1.355 . S
C1001 C1002 1.363 . S
C1001 H1013 0.929 . S
C1002 C1001 1.363 . S
C1002 N1004 1.375 . S
C1002 H1020 0.931 . S
C1003 N1000 1.311 . S
C1003 N1004 1.347 . S
C1003 H1014 0.929 . S
N1004 C1002 1.375 . S
N1004 C1003 1.347 . S
C1005 C1008 1.365 . S
C1005 N1010 1.328 . S
C1005 H1011 0.929 . S
C1006 C1007 1.362 . S
C1006 C1009 1.378 . S
C1006 H1021 0.929 . S
C1007 C1006 1.362 . S
C1007 C1008 1.366 . S
C1008 C1005 1.365 . S
C1008 C1007 1.366 . S
C1008 H1022 0.930 . S
C1009 C1006 1.378 . S
C1009 N1010 1.315 . S
C1009 H1012 0.930 . S
N1010 Co990 2.194 . S
N1010 C1005 1.328 . S
N1010 C1009 1.315 . S
H1011 C1005 0.929 . S
H1012 C1009 0.930 . S
H1013 C1001 0.929 . S
H1014 C1003 0.929 . S
O1015 Co990 2.351 . S
O1015 C1018 1.244 . S
O1016 Co990 2.155 . S
O1016 C1018 1.240 . S
O1017 Co990 2.096 . S
O1017 C998 1.247 . S
C1018 O1015 1.244 . S
C1018 O1016 1.240 . S
H1019 C993 0.931 . S
H1020 C1002 0.931 . S
H1021 C1006 0.929 . S
H1022 C1008 0.930 . S
Co1023 N1027 2.148 . S
Co1023 N1033 2.128 . S
Co1023 N1043 2.194 . S
Co1023 O1048 2.351 . S
Co1023 O1049 2.155 . S
Co1023 O1050 2.096 . S
C1024 N1027 1.301 . S
C1024 N1028 1.328 . S
C1024 H1029 0.930 . S
C1025 C1026 1.333 . S
C1025 N1027 1.317 . S
C1025 H1030 0.930 . S
C1026 C1025 1.333 . S
C1026 N1028 1.350 . S
C1026 H1052 0.931 . S
N1027 Co1023 2.148 . S
N1027 C1024 1.301 . S
N1027 C1025 1.317 . S
N1028 C1024 1.328 . S
N1028 C1026 1.350 . S
H1029 C1024 0.930 . S
H1030 C1025 0.930 . S
C1031 O1032 1.224 . S
C1031 O1050 1.247 . S
O1032 C1031 1.224 . S
N1033 Co1023 2.128 . S
N1033 C1034 1.355 . S
N1033 C1036 1.311 . S
C1034 N1033 1.355 . S
C1034 C1035 1.363 . S
C1034 H1046 0.929 . S
C1035 C1034 1.363 . S
C1035 N1037 1.375 . S
C1035 H1053 0.931 . S
C1036 N1033 1.311 . S
C1036 N1037 1.347 . S
C1036 H1047 0.929 . S
N1037 C1035 1.375 . S
N1037 C1036 1.347 . S
C1038 C1041 1.365 . S
C1038 N1043 1.328 . S
C1038 H1044 0.929 . S
C1039 C1040 1.362 . S
C1039 C1042 1.378 . S
C1039 H1054 0.929 . S
C1040 C1039 1.362 . S
C1040 C1041 1.366 . S
C1041 C1038 1.365 . S
C1041 C1040 1.366 . S
C1041 H1055 0.930 . S
C1042 C1039 1.378 . S
C1042 N1043 1.315 . S
C1042 H1045 0.930 . S
N1043 Co1023 2.194 . S
N1043 C1038 1.328 . S
N1043 C1042 1.315 . S
H1044 C1038 0.929 . S
H1045 C1042 0.930 . S
H1046 C1034 0.929 . S
H1047 C1036 0.929 . S
O1048 Co1023 2.351 . S
O1048 C1051 1.244 . S
O1049 Co1023 2.155 . S
O1049 C1051 1.240 . S
O1050 Co1023 2.096 . S
O1050 C1031 1.247 . S
C1051 O1048 1.244 . S
C1051 O1049 1.240 . S
H1052 C1026 0.931 . S
H1053 C1035 0.931 . S
H1054 C1039 0.929 . S
H1055 C1041 0.930 . S
H1056 C1064 0.950 . S
H1057 C1069 0.950 . S
H1058 C1066 0.950 . S
H1059 C1068 0.950 . S
H1060 C1070 0.950 . S
H1061 C1072 0.950 . S
H1062 C1074 0.950 . S
H1063 C1075 0.950 . S
C1064 H1056 0.950 . S
C1064 C1065 1.386 . S
C1064 C1066 1.391 . S
C1065 C1064 1.386 . S
C1065 C1069 1.393 . S
C1066 H1058 0.950 . S
C1066 C1064 1.391 . S
C1066 C1067 1.400 . S
C1067 C1066 1.400 . S
C1067 C1068 1.398 . S
C1067 C1073 1.491 . S
C1068 H1059 0.950 . S
C1068 C1067 1.398 . S
C1068 C1069 1.391 . S
C1069 H1057 0.950 . S
C1069 C1065 1.393 . S
C1069 C1068 1.391 . S
C1070 H1060 0.950 . S
C1070 C1071 1.386 . S
C1070 C1072 1.391 . S
C1071 C1070 1.386 . S
C1071 C1075 1.393 . S
C1072 H1061 0.950 . S
C1072 C1070 1.391 . S
C1072 C1073 1.400 . S
C1073 C1067 1.491 . S
C1073 C1072 1.400 . S
C1073 C1074 1.398 . S
C1074 H1062 0.950 . S
C1074 C1073 1.398 . S
C1074 C1075 1.391 . S
C1075 H1063 0.950 . S
C1075 C1071 1.393 . S
C1075 C1074 1.391 . S
H1076 C1084 0.950 . S
H1077 C1089 0.950 . S
H1078 C1086 0.950 . S
H1079 C1088 0.950 . S
H1080 C1090 0.950 . S
H1081 C1092 0.950 . S
H1082 C1094 0.950 . S
H1083 C1095 0.950 . S
C1084 H1076 0.950 . S
C1084 C1085 1.386 . S
C1084 C1086 1.391 . S
C1085 C1084 1.386 . S
C1085 C1089 1.393 . S
C1086 H1078 0.950 . S
C1086 C1084 1.391 . S
C1086 C1087 1.400 . S
C1087 C1086 1.400 . S
C1087 C1088 1.398 . S
C1087 C1093 1.491 . S
C1088 H1079 0.950 . S
C1088 C1087 1.398 . S
C1088 C1089 1.391 . S
C1089 H1077 0.950 . S
C1089 C1085 1.393 . S
C1089 C1088 1.391 . S
C1090 H1080 0.950 . S
C1090 C1091 1.386 . S
C1090 C1092 1.391 . S
C1091 C1090 1.386 . S
C1091 C1095 1.393 . S
C1092 H1081 0.950 . S
C1092 C1090 1.391 . S
C1092 C1093 1.400 . S
C1093 C1087 1.491 . S
C1093 C1092 1.400 . S
C1093 C1094 1.398 . S
C1094 H1082 0.950 . S
C1094 C1093 1.398 . S
C1094 C1095 1.391 . S
C1095 H1083 0.950 . S
C1095 C1091 1.393 . S
C1095 C1094 1.391 . S
H1096 C1104 0.950 . S
H1097 C1109 0.950 . S
H1098 C1106 0.950 . S
H1099 C1108 0.950 . S
H1100 C1110 0.950 1_545 S
H1101 C1112 0.950 . S
H1102 C1114 0.950 . S
H1103 C1115 0.950 . S
C1104 H1096 0.950 . S
C1104 C1105 1.386 . S
C1104 C1106 1.391 . S
C1105 C1104 1.386 . S
C1105 C1109 1.393 . S
C1106 H1098 0.950 . S
C1106 C1104 1.391 . S
C1106 C1107 1.400 . S
C1107 C1106 1.400 . S
C1107 C1108 1.398 . S
C1107 C1113 1.491 . S
C1108 H1099 0.950 . S
C1108 C1107 1.398 . S
C1108 C1109 1.391 . S
C1109 H1097 0.950 . S
C1109 C1105 1.393 . S
C1109 C1108 1.391 . S
C1110 H1100 0.950 1_565 S
C1110 C1111 1.386 . S
C1110 C1112 1.391 . S
C1111 C1110 1.386 . S
C1111 C1115 1.393 . S
C1112 H1101 0.950 . S
C1112 C1110 1.391 . S
C1112 C1113 1.400 . S
C1113 C1107 1.491 . S
C1113 C1112 1.400 . S
C1113 C1114 1.398 . S
C1114 H1102 0.950 . S
C1114 C1113 1.398 . S
C1114 C1115 1.391 . S
C1115 H1103 0.950 . S
C1115 C1111 1.393 . S
C1115 C1114 1.391 . S
H1116 C1124 0.950 . S
H1117 C1129 0.950 . S
H1118 C1126 0.950 . S
H1119 C1128 0.950 . S
H1120 C1130 0.950 . S
H1121 C1132 0.950 . S
H1122 C1134 0.950 . S
H1123 C1135 0.950 . S
C1124 H1116 0.950 . S
C1124 C1125 1.386 . S
C1124 C1126 1.391 . S
C1125 C1124 1.386 . S
C1125 C1129 1.393 . S
C1126 H1118 0.950 . S
C1126 C1124 1.391 . S
C1126 C1127 1.400 . S
C1127 C1126 1.400 . S
C1127 C1128 1.398 . S
C1127 C1133 1.491 . S
C1128 H1119 0.950 . S
C1128 C1127 1.398 . S
C1128 C1129 1.391 . S
C1129 H1117 0.950 . S
C1129 C1125 1.393 . S
C1129 C1128 1.391 . S
C1130 H1120 0.950 . S
C1130 C1131 1.386 . S
C1130 C1132 1.391 . S
C1131 C1130 1.386 . S
C1131 C1135 1.393 . S
C1132 H1121 0.950 . S
C1132 C1130 1.391 . S
C1132 C1133 1.400 . S
C1133 C1127 1.491 . S
C1133 C1132 1.400 . S
C1133 C1134 1.398 . S
C1134 H1122 0.950 . S
C1134 C1133 1.398 . S
C1134 C1135 1.391 . S
C1135 H1123 0.950 . S
C1135 C1131 1.393 . S
C1135 C1134 1.391 . S
H1136 C1144 0.950 . S
H1137 C1149 0.950 . S
H1138 C1146 0.950 . S
H1139 C1148 0.950 . S
H1140 C1150 0.950 . S
H1141 C1152 0.950 . S
H1142 C1154 0.950 . S
H1143 C1155 0.950 . S
C1144 H1136 0.950 . S
C1144 C1145 1.386 . S
C1144 C1146 1.391 . S
C1145 C1144 1.386 . S
C1145 C1149 1.393 . S
C1146 H1138 0.950 . S
C1146 C1144 1.391 . S
C1146 C1147 1.400 . S
C1147 C1146 1.400 . S
C1147 C1148 1.398 . S
C1147 C1153 1.491 . S
C1148 H1139 0.950 . S
C1148 C1147 1.398 . S
C1148 C1149 1.391 . S
C1149 H1137 0.950 . S
C1149 C1145 1.393 . S
C1149 C1148 1.391 . S
C1150 H1140 0.950 . S
C1150 C1151 1.386 . S
C1150 C1152 1.391 . S
C1151 C1150 1.386 . S
C1151 C1155 1.393 . S
C1152 H1141 0.950 . S
C1152 C1150 1.391 . S
C1152 C1153 1.400 . S
C1153 C1147 1.491 . S
C1153 C1152 1.400 . S
C1153 C1154 1.398 . S
C1154 H1142 0.950 . S
C1154 C1153 1.398 . S
C1154 C1155 1.391 . S
C1155 H1143 0.950 . S
C1155 C1151 1.393 . S
C1155 C1154 1.391 . S
H1156 C1164 0.950 . S
H1157 C1169 0.950 . S
H1158 C1166 0.950 . S
H1159 C1168 0.950 . S
H1160 C1170 0.950 . S
H1161 C1172 0.950 . S
H1162 C1174 0.950 . S
H1163 C1175 0.950 . S
C1164 H1156 0.950 . S
C1164 C1165 1.386 . S
C1164 C1166 1.391 . S
C1165 C1164 1.386 . S
C1165 C1169 1.393 . S
C1166 H1158 0.950 . S
C1166 C1164 1.391 . S
C1166 C1167 1.400 . S
C1167 C1166 1.400 . S
C1167 C1168 1.398 . S
C1167 C1173 1.491 . S
C1168 H1159 0.950 . S
C1168 C1167 1.398 . S
C1168 C1169 1.391 . S
C1169 H1157 0.950 . S
C1169 C1165 1.393 . S
C1169 C1168 1.391 . S
C1170 H1160 0.950 . S
C1170 C1171 1.386 . S
C1170 C1172 1.391 . S
C1171 C1170 1.386 . S
C1171 C1175 1.393 . S
C1172 H1161 0.950 . S
C1172 C1170 1.391 . S
C1172 C1173 1.400 . S
C1173 C1167 1.491 . S
C1173 C1172 1.400 . S
C1173 C1174 1.398 . S
C1174 H1162 0.950 . S
C1174 C1173 1.398 . S
C1174 C1175 1.391 . S
C1175 H1163 0.950 . S
C1175 C1171 1.393 . S
C1175 C1174 1.391 . S
H1176 C1184 0.950 . S
H1177 C1189 0.950 . S
H1178 C1186 0.950 . S
H1179 C1188 0.950 . S
H1180 C1190 0.950 . S
H1181 C1192 0.950 . S
H1182 C1194 0.950 . S
H1183 C1195 0.950 . S
C1184 H1176 0.950 . S
C1184 C1185 1.386 . S
C1184 C1186 1.391 . S
C1185 C1184 1.386 . S
C1185 C1189 1.393 . S
C1186 H1178 0.950 . S
C1186 C1184 1.391 . S
C1186 C1187 1.400 . S
C1187 C1186 1.400 . S
C1187 C1188 1.398 . S
C1187 C1193 1.491 . S
C1188 H1179 0.950 . S
C1188 C1187 1.398 . S
C1188 C1189 1.391 . S
C1189 H1177 0.950 . S
C1189 C1185 1.393 . S
C1189 C1188 1.391 . S
C1190 H1180 0.950 . S
C1190 C1191 1.386 . S
C1190 C1192 1.391 . S
C1191 C1190 1.386 . S
C1191 C1195 1.393 . S
C1192 H1181 0.950 . S
C1192 C1190 1.391 . S
C1192 C1193 1.400 . S
C1193 C1187 1.491 . S
C1193 C1192 1.400 . S
C1193 C1194 1.398 . S
C1194 H1182 0.950 . S
C1194 C1193 1.398 . S
C1194 C1195 1.391 . S
C1195 H1183 0.950 . S
C1195 C1191 1.393 . S
C1195 C1194 1.391 . S
H1196 C1204 0.950 . S
H1197 C1209 0.950 . S
H1198 C1206 0.950 . S
H1199 C1208 0.950 . S
H1200 C1210 0.950 . S
H1201 C1212 0.950 . S
H1202 C1214 0.950 . S
H1203 C1215 0.950 . S
C1204 H1196 0.950 . S
C1204 C1205 1.386 . S
C1204 C1206 1.391 . S
C1205 C1204 1.386 . S
C1205 C1209 1.393 . S
C1206 H1198 0.950 . S
C1206 C1204 1.391 . S
C1206 C1207 1.400 . S
C1207 C1206 1.400 . S
C1207 C1208 1.398 . S
C1207 C1213 1.491 . S
C1208 H1199 0.950 . S
C1208 C1207 1.398 . S
C1208 C1209 1.391 . S
C1209 H1197 0.950 . S
C1209 C1205 1.393 . S
C1209 C1208 1.391 . S
C1210 H1200 0.950 . S
C1210 C1211 1.386 . S
C1210 C1212 1.391 . S
C1211 C1210 1.386 . S
C1211 C1215 1.393 . S
C1212 H1201 0.950 . S
C1212 C1210 1.391 . S
C1212 C1213 1.400 . S
C1213 C1207 1.491 . S
C1213 C1212 1.400 . S
C1213 C1214 1.398 . S
C1214 H1202 0.950 . S
C1214 C1213 1.398 . S
C1214 C1215 1.391 . S
C1215 H1203 0.950 . S
C1215 C1211 1.393 . S
C1215 C1214 1.391 . S
H1216 C1224 0.950 . S
H1217 C1229 0.950 . S
H1218 C1226 0.950 . S
H1219 C1228 0.950 . S
H1220 C1230 0.950 . S
H1221 C1232 0.950 . S
H1222 C1234 0.950 . S
H1223 C1235 0.950 . S
C1224 H1216 0.950 . S
C1224 C1225 1.386 . S
C1224 C1226 1.391 . S
C1225 C1224 1.386 . S
C1225 C1229 1.393 . S
C1226 H1218 0.950 . S
C1226 C1224 1.391 . S
C1226 C1227 1.400 . S
C1227 C1226 1.400 . S
C1227 C1228 1.398 . S
C1227 C1233 1.491 . S
C1228 H1219 0.950 . S
C1228 C1227 1.398 . S
C1228 C1229 1.391 . S
C1229 H1217 0.950 . S
C1229 C1225 1.393 . S
C1229 C1228 1.391 . S
C1230 H1220 0.950 . S
C1230 C1231 1.386 . S
C1230 C1232 1.391 . S
C1231 C1230 1.386 . S
C1231 C1235 1.393 . S
C1232 H1221 0.950 . S
C1232 C1230 1.391 . S
C1232 C1233 1.400 . S
C1233 C1227 1.491 . S
C1233 C1232 1.400 . S
C1233 C1234 1.398 . S
C1234 H1222 0.950 . S
C1234 C1233 1.398 . S
C1234 C1235 1.391 . S
C1235 H1223 0.950 . S
C1235 C1231 1.393 . S
C1235 C1234 1.391 . S
H1236 C1244 0.950 . S
H1237 C1249 0.950 . S
H1238 C1246 0.950 . S
H1239 C1248 0.950 . S
H1240 C1250 0.950 . S
H1241 C1252 0.950 . S
H1242 C1254 0.950 . S
H1243 C1255 0.950 . S
C1244 H1236 0.950 . S
C1244 C1245 1.386 . S
C1244 C1246 1.391 . S
C1245 C1244 1.386 . S
C1245 C1249 1.393 . S
C1246 H1238 0.950 . S
C1246 C1244 1.391 . S
C1246 C1247 1.400 . S
C1247 C1246 1.400 . S
C1247 C1248 1.398 . S
C1247 C1253 1.491 . S
C1248 H1239 0.950 . S
C1248 C1247 1.398 . S
C1248 C1249 1.391 . S
C1249 H1237 0.950 . S
C1249 C1245 1.393 . S
C1249 C1248 1.391 . S
C1250 H1240 0.950 . S
C1250 C1251 1.386 . S
C1250 C1252 1.391 . S
C1251 C1250 1.386 . S
C1251 C1255 1.393 . S
C1252 H1241 0.950 . S
C1252 C1250 1.391 . S
C1252 C1253 1.400 . S
C1253 C1247 1.491 . S
C1253 C1252 1.400 . S
C1253 C1254 1.398 . S
C1254 H1242 0.950 . S
C1254 C1253 1.398 . S
C1254 C1255 1.391 . S
C1255 H1243 0.950 . S
C1255 C1251 1.393 . S
C1255 C1254 1.391 . S
H1256 C1264 0.950 . S
H1257 C1269 0.950 . S
H1258 C1266 0.950 . S
H1259 C1268 0.950 . S
H1260 C1270 0.950 . S
H1261 C1272 0.950 . S
H1262 C1274 0.950 . S
H1263 C1275 0.950 . S
C1264 H1256 0.950 . S
C1264 C1265 1.386 . S
C1264 C1266 1.391 . S
C1265 C1264 1.386 . S
C1265 C1269 1.393 . S
C1266 H1258 0.950 . S
C1266 C1264 1.391 . S
C1266 C1267 1.400 . S
C1267 C1266 1.400 . S
C1267 C1268 1.398 . S
C1267 C1273 1.491 . S
C1268 H1259 0.950 . S
C1268 C1267 1.398 . S
C1268 C1269 1.391 . S
C1269 H1257 0.950 . S
C1269 C1265 1.393 . S
C1269 C1268 1.391 . S
C1270 H1260 0.950 . S
C1270 C1271 1.386 . S
C1270 C1272 1.391 . S
C1271 C1270 1.386 . S
C1271 C1275 1.393 . S
C1272 H1261 0.950 . S
C1272 C1270 1.391 . S
C1272 C1273 1.400 . S
C1273 C1267 1.491 . S
C1273 C1272 1.400 . S
C1273 C1274 1.398 . S
C1274 H1262 0.950 . S
C1274 C1273 1.398 . S
C1274 C1275 1.391 . S
C1275 H1263 0.950 . S
C1275 C1271 1.393 . S
C1275 C1274 1.391 . S
H1276 C1284 0.950 . S
H1277 C1289 0.950 . S
H1278 C1286 0.950 . S
H1279 C1288 0.950 . S
H1280 C1290 0.950 . S
H1281 C1292 0.950 . S
H1282 C1294 0.950 . S
H1283 C1295 0.950 . S
C1284 H1276 0.950 . S
C1284 C1285 1.386 . S
C1284 C1286 1.391 . S
C1285 C1284 1.386 . S
C1285 C1289 1.393 . S
C1286 H1278 0.950 . S
C1286 C1284 1.391 . S
C1286 C1287 1.400 . S
C1287 C1286 1.400 . S
C1287 C1288 1.398 . S
C1287 C1293 1.491 . S
C1288 H1279 0.950 . S
C1288 C1287 1.398 . S
C1288 C1289 1.391 . S
C1289 H1277 0.950 . S
C1289 C1285 1.393 . S
C1289 C1288 1.391 . S
C1290 H1280 0.950 . S
C1290 C1291 1.386 . S
C1290 C1292 1.391 . S
C1291 C1290 1.386 . S
C1291 C1295 1.393 . S
C1292 H1281 0.950 . S
C1292 C1290 1.391 . S
C1292 C1293 1.400 . S
C1293 C1287 1.491 . S
C1293 C1292 1.400 . S
C1293 C1294 1.398 . S
C1294 H1282 0.950 . S
C1294 C1293 1.398 . S
C1294 C1295 1.391 . S
C1295 H1283 0.950 . S
C1295 C1291 1.393 . S
C1295 C1294 1.391 . S
H1296 C1304 0.950 . S
H1297 C1309 0.950 . S
H1298 C1306 0.950 . S
H1299 C1308 0.950 . S
H1300 C1310 0.950 . S
H1301 C1312 0.950 . S
H1302 C1314 0.950 . S
H1303 C1315 0.950 . S
C1304 H1296 0.950 . S
C1304 C1305 1.386 . S
C1304 C1306 1.391 . S
C1305 C1304 1.386 . S
C1305 C1309 1.393 . S
C1306 H1298 0.950 . S
C1306 C1304 1.391 . S
C1306 C1307 1.400 . S
C1307 C1306 1.400 . S
C1307 C1308 1.398 . S
C1307 C1313 1.491 . S
C1308 H1299 0.950 . S
C1308 C1307 1.398 . S
C1308 C1309 1.391 . S
C1309 H1297 0.950 . S
C1309 C1305 1.393 . S
C1309 C1308 1.391 . S
C1310 H1300 0.950 . S
C1310 C1311 1.386 . S
C1310 C1312 1.391 . S
C1311 C1310 1.386 . S
C1311 C1315 1.393 . S
C1312 H1301 0.950 . S
C1312 C1310 1.391 . S
C1312 C1313 1.400 . S
C1313 C1307 1.491 . S
C1313 C1312 1.400 . S
C1313 C1314 1.398 . S
C1314 H1302 0.950 . S
C1314 C1313 1.398 . S
C1314 C1315 1.391 . S
C1315 H1303 0.950 . S
C1315 C1311 1.393 . S
C1315 C1314 1.391 . S
H1316 C1324 0.950 . S
H1317 C1329 0.950 . S
H1318 C1326 0.950 . S
H1319 C1328 0.950 . S
H1320 C1330 0.950 . S
H1321 C1332 0.950 . S
H1322 C1334 0.950 . S
H1323 C1335 0.950 . S
C1324 H1316 0.950 . S
C1324 C1325 1.386 . S
C1324 C1326 1.391 . S
C1325 C1324 1.386 . S
C1325 C1329 1.393 . S
C1326 H1318 0.950 . S
C1326 C1324 1.391 . S
C1326 C1327 1.400 . S
C1327 C1326 1.400 . S
C1327 C1328 1.398 . S
C1327 C1333 1.491 . S
C1328 H1319 0.950 . S
C1328 C1327 1.398 . S
C1328 C1329 1.391 . S
C1329 H1317 0.950 . S
C1329 C1325 1.393 . S
C1329 C1328 1.391 . S
C1330 H1320 0.950 . S
C1330 C1331 1.386 . S
C1330 C1332 1.391 . S
C1331 C1330 1.386 . S
C1331 C1335 1.393 . S
C1332 H1321 0.950 . S
C1332 C1330 1.391 . S
C1332 C1333 1.400 . S
C1333 C1327 1.491 . S
C1333 C1332 1.400 . S
C1333 C1334 1.398 . S
C1334 H1322 0.950 . S
C1334 C1333 1.398 . S
C1334 C1335 1.391 . S
C1335 H1323 0.950 . S
C1335 C1331 1.393 . S
C1335 C1334 1.391 . S
H1336 C1344 0.950 . S
H1337 C1349 0.950 . S
H1338 C1346 0.950 . S
H1339 C1348 0.950 . S
H1340 C1350 0.950 . S
H1341 C1352 0.950 . S
H1342 C1354 0.950 . S
H1343 C1355 0.950 . S
C1344 H1336 0.950 . S
C1344 C1345 1.386 . S
C1344 C1346 1.391 . S
C1345 C1344 1.386 . S
C1345 C1349 1.393 . S
C1346 H1338 0.950 . S
C1346 C1344 1.391 . S
C1346 C1347 1.400 . S
C1347 C1346 1.400 . S
C1347 C1348 1.398 . S
C1347 C1353 1.491 . S
C1348 H1339 0.950 . S
C1348 C1347 1.398 . S
C1348 C1349 1.391 . S
C1349 H1337 0.950 . S
C1349 C1345 1.393 . S
C1349 C1348 1.391 . S
C1350 H1340 0.950 . S
C1350 C1351 1.386 . S
C1350 C1352 1.391 . S
C1351 C1350 1.386 . S
C1351 C1355 1.393 . S
C1352 H1341 0.950 . S
C1352 C1350 1.391 . S
C1352 C1353 1.400 . S
C1353 C1347 1.491 . S
C1353 C1352 1.400 . S
C1353 C1354 1.398 . S
C1354 H1342 0.950 . S
C1354 C1353 1.398 . S
C1354 C1355 1.391 . S
C1355 H1343 0.950 . S
C1355 C1351 1.393 . S
C1355 C1354 1.391 . S
H1356 C1364 0.950 . S
H1357 C1369 0.950 . S
H1358 C1366 0.950 . S
H1359 C1368 0.950 . S
H1360 C1370 0.950 . S
H1361 C1372 0.950 . S
H1362 C1374 0.950 . S
H1363 C1375 0.950 . S
C1364 H1356 0.950 . S
C1364 C1365 1.386 . S
C1364 C1366 1.391 . S
C1365 C1364 1.386 . S
C1365 C1369 1.393 . S
C1366 H1358 0.950 . S
C1366 C1364 1.391 . S
C1366 C1367 1.400 . S
C1367 C1366 1.400 . S
C1367 C1368 1.398 . S
C1367 C1373 1.491 . S
C1368 H1359 0.950 . S
C1368 C1367 1.398 . S
C1368 C1369 1.391 . S
C1369 H1357 0.950 . S
C1369 C1365 1.393 . S
C1369 C1368 1.391 . S
C1370 H1360 0.950 . S
C1370 C1371 1.386 . S
C1370 C1372 1.391 . S
C1371 C1370 1.386 . S
C1371 C1375 1.393 . S
C1372 H1361 0.950 . S
C1372 C1370 1.391 . S
C1372 C1373 1.400 . S
C1373 C1367 1.491 . S
C1373 C1372 1.400 . S
C1373 C1374 1.398 . S
C1374 H1362 0.950 . S
C1374 C1373 1.398 . S
C1374 C1375 1.391 . S
C1375 H1363 0.950 . S
C1375 C1371 1.393 . S
C1375 C1374 1.391 . S
H1376 C1384 0.950 . S
H1377 C1389 0.950 . S
H1378 C1386 0.950 . S
H1379 C1388 0.950 . S
H1380 C1390 0.950 . S
H1381 C1392 0.950 . S
H1382 C1394 0.950 . S
H1383 C1395 0.950 . S
C1384 H1376 0.950 . S
C1384 C1385 1.386 . S
C1384 C1386 1.391 . S
C1385 C1384 1.386 . S
C1385 C1389 1.393 . S
C1386 H1378 0.950 . S
C1386 C1384 1.391 . S
C1386 C1387 1.400 . S
C1387 C1386 1.400 . S
C1387 C1388 1.398 . S
C1387 C1393 1.491 1_556 S
C1388 H1379 0.950 . S
C1388 C1387 1.398 . S
C1388 C1389 1.391 . S
C1389 H1377 0.950 . S
C1389 C1385 1.393 . S
C1389 C1388 1.391 . S
C1390 H1380 0.950 . S
C1390 C1391 1.386 . S
C1390 C1392 1.391 . S
C1391 C1390 1.386 . S
C1391 C1395 1.393 . S
C1392 H1381 0.950 . S
C1392 C1390 1.391 . S
C1392 C1393 1.400 . S
C1393 C1387 1.491 1_554 S
C1393 C1392 1.400 . S
C1393 C1394 1.398 . S
C1394 H1382 0.950 . S
C1394 C1393 1.398 . S
C1394 C1395 1.391 . S
C1395 H1383 0.950 . S
C1395 C1391 1.393 . S
C1395 C1394 1.391 . S
H1396 C1404 0.950 . S
H1397 C1409 0.950 . S
H1398 C1406 0.950 . S
H1399 C1408 0.950 . S
H1400 C1410 0.950 . S
H1401 C1412 0.950 . S
H1402 C1414 0.950 . S
H1403 C1415 0.950 . S
C1404 H1396 0.950 . S
C1404 C1405 1.386 1_545 S
C1404 C1406 1.391 . S
C1405 C1404 1.386 1_565 S
C1405 C1409 1.393 . S
C1406 H1398 0.950 . S
C1406 C1404 1.391 . S
C1406 C1407 1.400 1_545 S
C1407 C1406 1.400 1_565 S
C1407 C1408 1.398 . S
C1407 C1413 1.491 1_565 S
C1408 H1399 0.950 . S
C1408 C1407 1.398 . S
C1408 C1409 1.391 . S
C1409 H1397 0.950 . S
C1409 C1405 1.393 . S
C1409 C1408 1.391 . S
C1410 H1400 0.950 . S
C1410 C1411 1.386 1_565 S
C1410 C1412 1.391 . S
C1411 C1410 1.386 1_545 S
C1411 C1415 1.393 . S
C1412 H1401 0.950 . S
C1412 C1410 1.391 . S
C1412 C1413 1.400 1_565 S
C1413 C1407 1.491 1_545 S
C1413 C1412 1.400 1_545 S
C1413 C1414 1.398 . S
C1414 H1402 0.950 . S
C1414 C1413 1.398 . S
C1414 C1415 1.391 . S
C1415 H1403 0.950 . S
C1415 C1411 1.393 . S
C1415 C1414 1.391 . S
H1416 C1424 0.950 . S
H1417 C1429 0.950 . S
H1418 C1426 0.950 . S
H1419 C1428 0.950 . S
H1420 C1430 0.950 . S
H1421 C1432 0.950 . S
H1422 C1434 0.950 . S
H1423 C1435 0.950 . S
C1424 H1416 0.950 . S
C1424 C1425 1.386 . S
C1424 C1426 1.391 . S
C1425 C1424 1.386 . S
C1425 C1429 1.393 . S
C1426 H1418 0.950 . S
C1426 C1424 1.391 . S
C1426 C1427 1.400 . S
C1427 C1426 1.400 . S
C1427 C1428 1.398 . S
C1427 C1433 1.491 . S
C1428 H1419 0.950 . S
C1428 C1427 1.398 . S
C1428 C1429 1.391 . S
C1429 H1417 0.950 . S
C1429 C1425 1.393 . S
C1429 C1428 1.391 . S
C1430 H1420 0.950 . S
C1430 C1431 1.386 . S
C1430 C1432 1.391 . S
C1431 C1430 1.386 . S
C1431 C1435 1.393 . S
C1432 H1421 0.950 . S
C1432 C1430 1.391 . S
C1432 C1433 1.400 . S
C1433 C1427 1.491 . S
C1433 C1432 1.400 . S
C1433 C1434 1.398 . S
C1434 H1422 0.950 . S
C1434 C1433 1.398 . S
C1434 C1435 1.391 . S
C1435 H1423 0.950 . S
C1435 C1431 1.393 . S
C1435 C1434 1.391 . S
H1436 C1444 0.950 . S
H1437 C1449 0.956 . S
H1438 C1446 0.950 . S
H1439 C1448 0.950 . S
H1440 C1450 0.950 . S
H1441 C1452 0.950 . S
H1442 C1454 0.950 . S
H1443 C1455 0.956 . S
C1444 H1436 0.950 . S
C1444 C1445 1.386 . S
C1444 C1446 1.391 . S
C1445 C1444 1.386 . S
C1445 C1449 1.384 1_545 S
C1446 H1438 0.950 . S
C1446 C1444 1.391 . S
C1446 C1447 1.400 . S
C1447 C1446 1.400 . S
C1447 C1448 1.398 1_545 S
C1447 C1453 1.491 1_545 S
C1448 H1439 0.950 . S
C1448 C1447 1.398 1_565 S
C1448 C1449 1.395 . S
C1449 H1437 0.956 . S
C1449 C1445 1.384 1_565 S
C1449 C1448 1.395 . S
C1450 H1440 0.950 . S
C1450 C1451 1.386 . S
C1450 C1452 1.391 . S
C1451 C1450 1.386 . S
C1451 C1455 1.384 1_565 S
C1452 H1441 0.950 . S
C1452 C1450 1.391 . S
C1452 C1453 1.400 . S
C1453 C1447 1.491 1_565 S
C1453 C1452 1.400 . S
C1453 C1454 1.398 1_565 S
C1454 H1442 0.950 . S
C1454 C1453 1.398 1_545 S
C1454 C1455 1.395 . S
C1455 H1443 0.956 . S
C1455 C1451 1.384 1_545 S
C1455 C1454 1.395 . S
H1456 C1464 0.950 . S
H1457 C1469 0.950 . S
H1458 C1466 0.950 . S
H1459 C1468 0.950 . S
H1460 C1470 0.950 . S
H1461 C1472 0.950 . S
H1462 C1474 0.950 . S
H1463 C1475 0.950 . S
C1464 H1456 0.950 . S
C1464 C1465 1.386 . S
C1464 C1466 1.391 . S
C1465 C1464 1.386 . S
C1465 C1469 1.393 . S
C1466 H1458 0.950 . S
C1466 C1464 1.391 . S
C1466 C1467 1.400 . S
C1467 C1466 1.400 . S
C1467 C1468 1.398 . S
C1467 C1473 1.491 1_556 S
C1468 H1459 0.950 . S
C1468 C1467 1.398 . S
C1468 C1469 1.391 . S
C1469 H1457 0.950 . S
C1469 C1465 1.393 . S
C1469 C1468 1.391 . S
C1470 H1460 0.950 . S
C1470 C1471 1.386 . S
C1470 C1472 1.391 . S
C1471 C1470 1.386 . S
C1471 C1475 1.393 . S
C1472 H1461 0.950 . S
C1472 C1470 1.391 . S
C1472 C1473 1.400 . S
C1473 C1467 1.491 1_554 S
C1473 C1472 1.400 . S
C1473 C1474 1.398 . S
C1474 H1462 0.950 . S
C1474 C1473 1.398 . S
C1474 C1475 1.391 . S
C1475 H1463 0.950 . S
C1475 C1471 1.393 . S
C1475 C1474 1.391 . S
H1476 C1484 0.950 . S
H1477 C1489 0.948 1_545 S
H1478 C1486 0.950 . S
H1479 C1488 0.950 . S
H1480 C1490 0.950 . S
H1481 C1492 0.950 . S
H1482 C1494 0.950 . S
H1483 C1495 0.948 1_565 S
C1484 H1476 0.950 . S
C1484 C1485 1.386 . S
C1484 C1486 1.391 . S
C1485 C1484 1.386 . S
C1485 C1489 1.396 . S
C1486 H1478 0.950 . S
C1486 C1484 1.391 . S
C1486 C1487 1.400 . S
C1487 C1486 1.400 . S
C1487 C1488 1.398 1_565 S
C1487 C1493 1.491 1_565 S
C1488 H1479 0.950 . S
C1488 C1487 1.398 1_545 S
C1488 C1489 1.389 1_545 S
C1489 H1477 0.948 1_565 S
C1489 C1485 1.396 . S
C1489 C1488 1.389 1_565 S
C1490 H1480 0.950 . S
C1490 C1491 1.386 . S
C1490 C1492 1.391 . S
C1491 C1490 1.386 . S
C1491 C1495 1.396 . S
C1492 H1481 0.950 . S
C1492 C1490 1.391 . S
C1492 C1493 1.400 . S
C1493 C1487 1.491 1_545 S
C1493 C1492 1.400 . S
C1493 C1494 1.398 1_545 S
C1494 H1482 0.950 . S
C1494 C1493 1.398 1_565 S
C1494 C1495 1.389 1_565 S
C1495 H1483 0.948 1_545 S
C1495 C1491 1.396 . S
C1495 C1494 1.389 1_545 S
H1496 C1504 0.950 . S
H1497 C1509 0.950 . S
H1498 C1506 0.950 . S
H1499 C1508 0.950 . S
H1500 C1510 0.950 . S
H1501 C1512 0.950 . S
H1502 C1514 0.950 . S
H1503 C1515 0.950 . S
C1504 H1496 0.950 . S
C1504 C1505 1.386 . S
C1504 C1506 1.391 . S
C1505 C1504 1.386 . S
C1505 C1509 1.393 . S
C1506 H1498 0.950 . S
C1506 C1504 1.391 . S
C1506 C1507 1.400 . S
C1507 C1506 1.400 . S
C1507 C1508 1.398 . S
C1507 C1513 1.491 . S
C1508 H1499 0.950 . S
C1508 C1507 1.398 . S
C1508 C1509 1.391 . S
C1509 H1497 0.950 . S
C1509 C1505 1.393 . S
C1509 C1508 1.391 . S
C1510 H1500 0.950 . S
C1510 C1511 1.386 . S
C1510 C1512 1.391 . S
C1511 C1510 1.386 . S
C1511 C1515 1.393 . S
C1512 H1501 0.950 . S
C1512 C1510 1.391 . S
C1512 C1513 1.400 . S
C1513 C1507 1.491 . S
C1513 C1512 1.400 . S
C1513 C1514 1.398 . S
C1514 H1502 0.950 . S
C1514 C1513 1.398 . S
C1514 C1515 1.391 . S
C1515 H1503 0.950 . S
C1515 C1511 1.393 . S
C1515 C1514 1.391 . S
H1516 C1524 0.950 . S
H1517 C1529 0.950 1_565 S
H1518 C1526 0.950 . S
H1519 C1528 0.950 . S
H1520 C1530 0.950 . S
H1521 C1532 0.950 . S
H1522 C1534 0.950 . S
H1523 C1535 0.950 1_545 S
C1524 H1516 0.950 . S
C1524 C1525 1.386 . S
C1524 C1526 1.391 . S
C1525 C1524 1.386 . S
C1525 C1529 1.393 . S
C1526 H1518 0.950 . S
C1526 C1524 1.391 . S
C1526 C1527 1.400 . S
C1527 C1526 1.400 . S
C1527 C1528 1.398 1_545 S
C1527 C1533 1.491 1_545 S
C1528 H1519 0.950 . S
C1528 C1527 1.398 1_565 S
C1528 C1529 1.391 1_565 S
C1529 H1517 0.950 1_545 S
C1529 C1525 1.393 . S
C1529 C1528 1.391 1_545 S
C1530 H1520 0.950 . S
C1530 C1531 1.386 . S
C1530 C1532 1.391 . S
C1531 C1530 1.386 . S
C1531 C1535 1.393 . S
C1532 H1521 0.950 . S
C1532 C1530 1.391 . S
C1532 C1533 1.400 . S
C1533 C1527 1.491 1_565 S
C1533 C1532 1.400 . S
C1533 C1534 1.398 1_565 S
C1534 H1522 0.950 . S
C1534 C1533 1.398 1_545 S
C1534 C1535 1.391 1_545 S
C1535 H1523 0.950 1_565 S
C1535 C1531 1.393 . S
C1535 C1534 1.391 1_565 S
H1536 C1544 0.950 . S
H1537 C1549 0.950 . S
H1538 C1546 0.950 . S
H1539 C1548 0.950 . S
H1540 C1550 0.950 . S
H1541 C1552 0.950 . S
H1542 C1554 0.950 . S
H1543 C1555 0.950 . S
C1544 H1536 0.950 . S
C1544 C1545 1.386 . S
C1544 C1546 1.391 . S
C1545 C1544 1.386 . S
C1545 C1549 1.393 . S
C1546 H1538 0.950 . S
C1546 C1544 1.391 . S
C1546 C1547 1.400 . S
C1547 C1546 1.400 . S
C1547 C1548 1.398 . S
C1547 C1553 1.491 . S
C1548 H1539 0.950 . S
C1548 C1547 1.398 . S
C1548 C1549 1.391 . S
C1549 H1537 0.950 . S
C1549 C1545 1.393 . S
C1549 C1548 1.391 . S
C1550 H1540 0.950 . S
C1550 C1551 1.386 . S
C1550 C1552 1.391 . S
C1551 C1550 1.386 . S
C1551 C1555 1.393 . S
C1552 H1541 0.950 . S
C1552 C1550 1.391 . S
C1552 C1553 1.400 . S
C1553 C1547 1.491 . S
C1553 C1552 1.400 . S
C1553 C1554 1.398 . S
C1554 H1542 0.950 . S
C1554 C1553 1.398 . S
C1554 C1555 1.391 . S
C1555 H1543 0.950 . S
C1555 C1551 1.393 . S
C1555 C1554 1.391 . S
H1556 C1564 0.950 . S
H1557 C1569 0.950 . S
H1558 C1566 0.950 . S
H1559 C1568 0.950 . S
H1560 C1570 0.950 . S
H1561 C1572 0.950 . S
H1562 C1574 0.950 . S
H1563 C1575 0.950 . S
C1564 H1556 0.950 . S
C1564 C1565 1.386 . S
C1564 C1566 1.391 . S
C1565 C1564 1.386 . S
C1565 C1569 1.393 . S
C1566 H1558 0.950 . S
C1566 C1564 1.391 . S
C1566 C1567 1.400 . S
C1567 C1566 1.400 . S
C1567 C1568 1.398 . S
C1567 C1573 1.491 . S
C1568 H1559 0.950 . S
C1568 C1567 1.398 . S
C1568 C1569 1.391 . S
C1569 H1557 0.950 . S
C1569 C1565 1.393 . S
C1569 C1568 1.391 . S
C1570 H1560 0.950 . S
C1570 C1571 1.386 . S
C1570 C1572 1.391 . S
C1571 C1570 1.386 . S
C1571 C1575 1.393 . S
C1572 H1561 0.950 . S
C1572 C1570 1.391 . S
C1572 C1573 1.400 . S
C1573 C1567 1.491 . S
C1573 C1572 1.400 . S
C1573 C1574 1.398 . S
C1574 H1562 0.950 . S
C1574 C1573 1.398 . S
C1574 C1575 1.391 . S
C1575 H1563 0.950 . S
C1575 C1571 1.393 . S
C1575 C1574 1.391 . S
H1576 C1584 0.950 . S
H1577 C1589 0.950 . S
H1578 C1586 0.950 . S
H1579 C1588 0.950 . S
H1580 C1590 0.950 . S
H1581 C1592 0.950 . S
H1582 C1594 0.950 . S
H1583 C1595 0.950 . S
C1584 H1576 0.950 . S
C1584 C1585 1.386 . S
C1584 C1586 1.391 . S
C1585 C1584 1.386 . S
C1585 C1589 1.393 . S
C1586 H1578 0.950 . S
C1586 C1584 1.391 . S
C1586 C1587 1.400 . S
C1587 C1586 1.400 . S
C1587 C1588 1.398 . S
C1587 C1593 1.491 1_556 S
C1588 H1579 0.950 . S
C1588 C1587 1.398 . S
C1588 C1589 1.391 . S
C1589 H1577 0.950 . S
C1589 C1585 1.393 . S
C1589 C1588 1.391 . S
C1590 H1580 0.950 . S
C1590 C1591 1.386 . S
C1590 C1592 1.391 . S
C1591 C1590 1.386 . S
C1591 C1595 1.393 . S
C1592 H1581 0.950 . S
C1592 C1590 1.391 . S
C1592 C1593 1.400 . S
C1593 C1587 1.491 1_554 S
C1593 C1592 1.400 . S
C1593 C1594 1.398 . S
C1594 H1582 0.950 . S
C1594 C1593 1.398 . S
C1594 C1595 1.391 . S
C1595 H1583 0.950 . S
C1595 C1591 1.393 . S
C1595 C1594 1.391 . S
H1596 C1604 0.950 . S
H1597 C1609 0.950 . S
H1598 C1606 0.950 . S
H1599 C1608 0.950 . S
H1600 C1610 0.950 . S
H1601 C1612 0.950 . S
H1602 C1614 0.950 . S
H1603 C1615 0.950 . S
C1604 H1596 0.950 . S
C1604 C1605 1.386 . S
C1604 C1606 1.391 . S
C1605 C1604 1.386 . S
C1605 C1609 1.393 . S
C1606 H1598 0.950 . S
C1606 C1604 1.391 . S
C1606 C1607 1.400 . S
C1607 C1606 1.400 . S
C1607 C1608 1.398 . S
C1607 C1613 1.491 . S
C1608 H1599 0.950 . S
C1608 C1607 1.398 . S
C1608 C1609 1.391 . S
C1609 H1597 0.950 . S
C1609 C1605 1.393 . S
C1609 C1608 1.391 . S
C1610 H1600 0.950 . S
C1610 C1611 1.386 . S
C1610 C1612 1.391 . S
C1611 C1610 1.386 . S
C1611 C1615 1.393 . S
C1612 H1601 0.950 . S
C1612 C1610 1.391 . S
C1612 C1613 1.400 . S
C1613 C1607 1.491 . S
C1613 C1612 1.400 . S
C1613 C1614 1.398 . S
C1614 H1602 0.950 . S
C1614 C1613 1.398 . S
C1614 C1615 1.391 . S
C1615 H1603 0.950 . S
C1615 C1611 1.393 . S
C1615 C1614 1.391 . S
H1616 C1624 0.950 . S
H1617 C1629 0.950 . S
H1618 C1626 0.950 . S
H1619 C1628 0.950 . S
H1620 C1630 0.950 . S
H1621 C1632 0.950 . S
H1622 C1634 0.950 . S
H1623 C1635 0.950 . S
C1624 H1616 0.950 . S
C1624 C1625 1.386 . S
C1624 C1626 1.391 . S
C1625 C1624 1.386 . S
C1625 C1629 1.393 . S
C1626 H1618 0.950 . S
C1626 C1624 1.391 . S
C1626 C1627 1.400 . S
C1627 C1626 1.400 . S
C1627 C1628 1.398 . S
C1627 C1633 1.491 . S
C1628 H1619 0.950 . S
C1628 C1627 1.398 . S
C1628 C1629 1.391 . S
C1629 H1617 0.950 . S
C1629 C1625 1.393 . S
C1629 C1628 1.391 . S
C1630 H1620 0.950 . S
C1630 C1631 1.386 . S
C1630 C1632 1.391 . S
C1631 C1630 1.386 . S
C1631 C1635 1.393 . S
C1632 H1621 0.950 . S
C1632 C1630 1.391 . S
C1632 C1633 1.400 . S
C1633 C1627 1.491 . S
C1633 C1632 1.400 . S
C1633 C1634 1.398 . S
C1634 H1622 0.950 . S
C1634 C1633 1.398 . S
C1634 C1635 1.391 . S
C1635 H1623 0.950 . S
C1635 C1631 1.393 . S
C1635 C1634 1.391 . S
H1636 C1644 0.950 . S
H1637 C1649 0.950 . S
H1638 C1646 0.950 . S
H1639 C1648 0.950 . S
H1640 C1650 0.950 . S
H1641 C1652 0.950 . S
H1642 C1654 0.950 . S
H1643 C1655 0.950 . S
C1644 H1636 0.950 . S
C1644 C1645 1.386 . S
C1644 C1646 1.391 . S
C1645 C1644 1.386 . S
C1645 C1649 1.393 . S
C1646 H1638 0.950 . S
C1646 C1644 1.391 . S
C1646 C1647 1.400 . S
C1647 C1646 1.400 . S
C1647 C1648 1.398 . S
C1647 C1653 1.491 . S
C1648 H1639 0.950 . S
C1648 C1647 1.398 . S
C1648 C1649 1.391 . S
C1649 H1637 0.950 . S
C1649 C1645 1.393 . S
C1649 C1648 1.391 . S
C1650 H1640 0.950 . S
C1650 C1651 1.386 . S
C1650 C1652 1.391 . S
C1651 C1650 1.386 . S
C1651 C1655 1.393 . S
C1652 H1641 0.950 . S
C1652 C1650 1.391 . S
C1652 C1653 1.400 . S
C1653 C1647 1.491 . S
C1653 C1652 1.400 . S
C1653 C1654 1.398 . S
C1654 H1642 0.950 . S
C1654 C1653 1.398 . S
C1654 C1655 1.391 . S
C1655 H1643 0.950 . S
C1655 C1651 1.393 . S
C1655 C1654 1.391 . S
H1656 C1664 0.950 . S
H1657 C1669 0.950 . S
H1658 C1666 0.950 . S
H1659 C1668 0.950 . S
H1660 C1670 0.950 . S
H1661 C1672 0.950 . S
H1662 C1674 0.950 . S
H1663 C1675 0.950 . S
C1664 H1656 0.950 . S
C1664 C1665 1.386 . S
C1664 C1666 1.391 . S
C1665 C1664 1.386 . S
C1665 C1669 1.393 . S
C1666 H1658 0.950 . S
C1666 C1664 1.391 . S
C1666 C1667 1.400 . S
C1667 C1666 1.400 . S
C1667 C1668 1.398 . S
C1667 C1673 1.491 1_554 S
C1668 H1659 0.950 . S
C1668 C1667 1.398 . S
C1668 C1669 1.391 . S
C1669 H1657 0.950 . S
C1669 C1665 1.393 . S
C1669 C1668 1.391 . S
C1670 H1660 0.950 . S
C1670 C1671 1.386 . S
C1670 C1672 1.391 . S
C1671 C1670 1.386 . S
C1671 C1675 1.393 . S
C1672 H1661 0.950 . S
C1672 C1670 1.391 . S
C1672 C1673 1.400 . S
C1673 C1667 1.491 1_556 S
C1673 C1672 1.400 . S
C1673 C1674 1.398 . S
C1674 H1662 0.950 . S
C1674 C1673 1.398 . S
C1674 C1675 1.391 . S
C1675 H1663 0.950 . S
C1675 C1671 1.393 . S
C1675 C1674 1.391 . S
H1676 C1684 0.950 . S
H1677 C1689 0.950 . S
H1678 C1686 0.950 . S
H1679 C1688 0.950 . S
H1680 C1690 0.950 . S
H1681 C1692 0.950 . S
H1682 C1694 0.950 . S
H1683 C1695 0.950 . S
C1684 H1676 0.950 . S
C1684 C1685 1.386 . S
C1684 C1686 1.391 . S
C1685 C1684 1.386 . S
C1685 C1689 1.393 . S
C1686 H1678 0.950 . S
C1686 C1684 1.391 . S
C1686 C1687 1.400 . S
C1687 C1686 1.400 . S
C1687 C1688 1.398 . S
C1687 C1693 1.491 . S
C1688 H1679 0.950 . S
C1688 C1687 1.398 . S
C1688 C1689 1.391 . S
C1689 H1677 0.950 . S
C1689 C1685 1.393 . S
C1689 C1688 1.391 . S
C1690 H1680 0.950 . S
C1690 C1691 1.386 . S
C1690 C1692 1.391 . S
C1691 C1690 1.386 . S
C1691 C1695 1.393 . S
C1692 H1681 0.950 . S
C1692 C1690 1.391 . S
C1692 C1693 1.400 . S
C1693 C1687 1.491 . S
C1693 C1692 1.400 . S
C1693 C1694 1.398 . S
C1694 H1682 0.950 . S
C1694 C1693 1.398 . S
C1694 C1695 1.391 . S
C1695 H1683 0.950 . S
C1695 C1691 1.393 . S
C1695 C1694 1.391 . S
H1696 C1704 0.950 . S
H1697 C1709 0.950 . S
H1698 C1706 0.950 . S
H1699 C1708 0.950 . S
H1700 C1710 0.950 . S
H1701 C1712 0.950 . S
H1702 C1714 0.950 . S
H1703 C1715 0.950 1_545 S
C1704 H1696 0.950 . S
C1704 C1705 1.386 . S
C1704 C1706 1.391 . S
C1705 C1704 1.386 . S
C1705 C1709 1.393 . S
C1706 H1698 0.950 . S
C1706 C1704 1.391 . S
C1706 C1707 1.400 . S
C1707 C1706 1.400 . S
C1707 C1708 1.398 . S
C1707 C1713 1.491 . S
C1708 H1699 0.950 . S
C1708 C1707 1.398 . S
C1708 C1709 1.391 . S
C1709 H1697 0.950 . S
C1709 C1705 1.393 . S
C1709 C1708 1.391 . S
C1710 H1700 0.950 . S
C1710 C1711 1.386 . S
C1710 C1712 1.391 1_545 S
C1711 C1710 1.386 . S
C1711 C1715 1.393 1_545 S
C1712 H1701 0.950 . S
C1712 C1710 1.391 1_565 S
C1712 C1713 1.400 . S
C1713 C1707 1.491 . S
C1713 C1712 1.400 . S
C1713 C1714 1.398 . S
C1714 H1702 0.950 . S
C1714 C1713 1.398 . S
C1714 C1715 1.391 . S
C1715 H1703 0.950 1_565 S
C1715 C1711 1.393 1_565 S
C1715 C1714 1.391 . S
H1716 C1724 0.950 . S
H1717 C1729 0.950 . S
H1718 C1726 0.950 . S
H1719 C1728 0.950 . S
H1720 C1730 0.950 1_565 S
H1721 C1732 0.950 . S
H1722 C1734 0.950 . S
H1723 C1735 0.950 . S
C1724 H1716 0.950 . S
C1724 C1725 1.386 1_545 S
C1724 C1726 1.391 . S
C1725 C1724 1.386 1_565 S
C1725 C1729 1.393 . S
C1726 H1718 0.950 . S
C1726 C1724 1.391 . S
C1726 C1727 1.400 . S
C1727 C1726 1.400 . S
C1727 C1728 1.398 1_545 S
C1727 C1733 1.491 . S
C1728 H1719 0.950 . S
C1728 C1727 1.398 1_565 S
C1728 C1729 1.391 . S
C1729 H1717 0.950 . S
C1729 C1725 1.393 . S
C1729 C1728 1.391 . S
C1730 H1720 0.950 1_545 S
C1730 C1731 1.386 . S
C1730 C1732 1.391 1_545 S
C1731 C1730 1.386 . S
C1731 C1735 1.393 . S
C1732 H1721 0.950 . S
C1732 C1730 1.391 1_565 S
C1732 C1733 1.400 1_565 S
C1733 C1727 1.491 . S
C1733 C1732 1.400 1_545 S
C1733 C1734 1.398 . S
C1734 H1722 0.950 . S
C1734 C1733 1.398 . S
C1734 C1735 1.391 . S
C1735 H1723 0.950 . S
C1735 C1731 1.393 . S
C1735 C1734 1.391 . S
H1736 C1744 0.950 . S
H1737 C1749 0.950 . S
H1738 C1746 0.950 . S
H1739 C1748 0.950 . S
H1740 C1750 0.950 1_565 S
H1741 C1752 0.950 . S
H1742 C1754 0.950 . S
H1743 C1755 0.950 . S
C1744 H1736 0.950 . S
C1744 C1745 1.386 . S
C1744 C1746 1.391 . S
C1745 C1744 1.386 . S
C1745 C1749 1.393 . S
C1746 H1738 0.950 . S
C1746 C1744 1.391 . S
C1746 C1747 1.400 . S
C1747 C1746 1.400 . S
C1747 C1748 1.398 . S
C1747 C1753 1.491 . S
C1748 H1739 0.950 . S
C1748 C1747 1.398 . S
C1748 C1749 1.391 . S
C1749 H1737 0.950 . S
C1749 C1745 1.393 . S
C1749 C1748 1.391 . S
C1750 H1740 0.950 1_545 S
C1750 C1751 1.386 1_545 S
C1750 C1752 1.391 . S
C1751 C1750 1.386 1_565 S
C1751 C1755 1.393 . S
C1752 H1741 0.950 . S
C1752 C1750 1.391 . S
C1752 C1753 1.400 . S
C1753 C1747 1.491 . S
C1753 C1752 1.400 . S
C1753 C1754 1.398 . S
C1754 H1742 0.950 . S
C1754 C1753 1.398 . S
C1754 C1755 1.391 1_545 S
C1755 H1743 0.950 . S
C1755 C1751 1.393 . S
C1755 C1754 1.391 1_565 S
H1756 C1764 0.950 1_545 S
H1757 C1769 0.950 . S
H1758 C1766 0.950 . S
H1759 C1768 0.950 . S
H1760 C1770 0.950 . S
H1761 C1772 0.950 . S
H1762 C1774 0.950 . S
H1763 C1775 0.950 . S
C1764 H1756 0.950 1_565 S
C1764 C1765 1.386 . S
C1764 C1766 1.391 1_565 S
C1765 C1764 1.386 . S
C1765 C1769 1.393 . S
C1766 H1758 0.950 . S
C1766 C1764 1.391 1_545 S
C1766 C1767 1.400 1_545 S
C1767 C1766 1.400 1_565 S
C1767 C1768 1.398 . S
C1767 C1773 1.491 . S
C1768 H1759 0.950 . S
C1768 C1767 1.398 . S
C1768 C1769 1.391 . S
C1769 H1757 0.950 . S
C1769 C1765 1.393 . S
C1769 C1768 1.391 . S
C1770 H1760 0.950 . S
C1770 C1771 1.386 1_565 S
C1770 C1772 1.391 . S
C1771 C1770 1.386 1_545 S
C1771 C1775 1.393 . S
C1772 H1761 0.950 . S
C1772 C1770 1.391 . S
C1772 C1773 1.400 . S
C1773 C1767 1.491 . S
C1773 C1772 1.400 . S
C1773 C1774 1.398 1_565 S
C1774 H1762 0.950 . S
C1774 C1773 1.398 1_545 S
C1774 C1775 1.391 . S
C1775 H1763 0.950 . S
C1775 C1771 1.393 . S
C1775 C1774 1.391 . S
H1776 C1784 0.950 . S
H1777 C1789 0.950 . S
H1778 C1786 0.950 . S
H1779 C1788 0.950 . S
H1780 C1790 0.950 . S
H1781 C1792 0.950 . S
H1782 C1794 0.950 . S
H1783 C1795 0.950 1_565 S
C1784 H1776 0.950 . S
C1784 C1785 1.386 . S
C1784 C1786 1.391 . S
C1785 C1784 1.386 . S
C1785 C1789 1.393 . S
C1786 H1778 0.950 . S
C1786 C1784 1.391 . S
C1786 C1787 1.400 . S
C1787 C1786 1.400 . S
C1787 C1788 1.398 . S
C1787 C1793 1.491 . S
C1788 H1779 0.950 . S
C1788 C1787 1.398 . S
C1788 C1789 1.391 . S
C1789 H1777 0.950 . S
C1789 C1785 1.393 . S
C1789 C1788 1.391 . S
C1790 H1780 0.950 . S
C1790 C1791 1.386 . S
C1790 C1792 1.391 1_565 S
C1791 C1790 1.386 . S
C1791 C1795 1.393 1_565 S
C1792 H1781 0.950 . S
C1792 C1790 1.391 1_545 S
C1792 C1793 1.400 . S
C1793 C1787 1.491 . S
C1793 C1792 1.400 . S
C1793 C1794 1.398 . S
C1794 H1782 0.950 . S
C1794 C1793 1.398 . S
C1794 C1795 1.391 . S
C1795 H1783 0.950 1_545 S
C1795 C1791 1.393 1_545 S
C1795 C1794 1.391 . S
H1796 C1804 0.950 . S
H1797 C1809 0.950 . S
H1798 C1806 0.950 . S
H1799 C1808 0.950 . S
H1800 C1810 0.950 1_565 S
H1801 C1812 0.950 . S
H1802 C1814 0.950 . S
H1803 C1815 0.950 . S
C1804 H1796 0.950 . S
C1804 C1805 1.386 1_545 S
C1804 C1806 1.391 . S
C1805 C1804 1.386 1_565 S
C1805 C1809 1.393 . S
C1806 H1798 0.950 . S
C1806 C1804 1.391 . S
C1806 C1807 1.400 . S
C1807 C1806 1.400 . S
C1807 C1808 1.398 1_545 S
C1807 C1813 1.491 . S
C1808 H1799 0.950 . S
C1808 C1807 1.398 1_565 S
C1808 C1809 1.391 . S
C1809 H1797 0.950 . S
C1809 C1805 1.393 . S
C1809 C1808 1.391 . S
C1810 H1800 0.950 1_545 S
C1810 C1811 1.386 . S
C1810 C1812 1.391 1_545 S
C1811 C1810 1.386 . S
C1811 C1815 1.393 . S
C1812 H1801 0.950 . S
C1812 C1810 1.391 1_565 S
C1812 C1813 1.400 1_565 S
C1813 C1807 1.491 . S
C1813 C1812 1.400 1_545 S
C1813 C1814 1.398 . S
C1814 H1802 0.950 . S
C1814 C1813 1.398 . S
C1814 C1815 1.391 . S
C1815 H1803 0.950 . S
C1815 C1811 1.393 . S
C1815 C1814 1.391 . S
H1816 C1824 0.950 . S
H1817 C1829 0.950 . S
H1818 C1826 0.950 . S
H1819 C1828 0.950 . S
H1820 C1830 0.950 1_545 S
H1821 C1832 0.950 . S
H1822 C1834 0.950 . S
H1823 C1835 0.950 . S
C1824 H1816 0.950 . S
C1824 C1825 1.386 . S
C1824 C1826 1.391 . S
C1825 C1824 1.386 . S
C1825 C1829 1.393 . S
C1826 H1818 0.950 . S
C1826 C1824 1.391 . S
C1826 C1827 1.400 . S
C1827 C1826 1.400 . S
C1827 C1828 1.398 . S
C1827 C1833 1.491 . S
C1828 H1819 0.950 . S
C1828 C1827 1.398 . S
C1828 C1829 1.391 . S
C1829 H1817 0.950 . S
C1829 C1825 1.393 . S
C1829 C1828 1.391 . S
C1830 H1820 0.950 1_565 S
C1830 C1831 1.386 1_565 S
C1830 C1832 1.391 . S
C1831 C1830 1.386 1_545 S
C1831 C1835 1.393 . S
C1832 H1821 0.950 . S
C1832 C1830 1.391 . S
C1832 C1833 1.400 . S
C1833 C1827 1.491 . S
C1833 C1832 1.400 . S
C1833 C1834 1.398 . S
C1834 H1822 0.950 . S
C1834 C1833 1.398 . S
C1834 C1835 1.391 1_565 S
C1835 H1823 0.950 . S
C1835 C1831 1.393 . S
C1835 C1834 1.391 1_545 S
H1836 C1844 0.950 . S
H1837 C1849 0.950 1_545 S
H1838 C1846 0.950 . S
H1839 C1848 0.950 . S
H1840 C1850 0.950 . S
H1841 C1852 0.950 . S
H1842 C1854 0.950 . S
H1843 C1855 0.950 . S
C1844 H1836 0.950 . S
C1844 C1845 1.386 . S
C1844 C1846 1.391 . S
C1845 C1844 1.386 . S
C1845 C1849 1.393 . S
C1846 H1838 0.950 . S
C1846 C1844 1.391 . S
C1846 C1847 1.400 . S
C1847 C1846 1.400 . S
C1847 C1848 1.398 1_565 S
C1847 C1853 1.491 . S
C1848 H1839 0.950 . S
C1848 C1847 1.398 1_545 S
C1848 C1849 1.391 1_545 S
C1849 H1837 0.950 1_565 S
C1849 C1845 1.393 . S
C1849 C1848 1.391 1_565 S
C1850 H1840 0.950 . S
C1850 C1851 1.386 . S
C1850 C1852 1.391 . S
C1851 C1850 1.386 . S
C1851 C1855 1.393 1_545 S
C1852 H1841 0.950 . S
C1852 C1850 1.391 . S
C1852 C1853 1.400 1_545 S
C1853 C1847 1.491 . S
C1853 C1852 1.400 1_565 S
C1853 C1854 1.398 . S
C1854 H1842 0.950 . S
C1854 C1853 1.398 . S
C1854 C1855 1.391 . S
C1855 H1843 0.950 . S
C1855 C1851 1.393 1_565 S
C1855 C1854 1.391 . S
H1856 C1864 0.950 . S
H1857 C1869 0.950 . S
H1858 C1866 0.950 . S
H1859 C1868 0.950 . S
H1860 C1870 0.950 . S
H1861 C1872 0.950 . S
H1862 C1874 0.950 . S
H1863 C1875 0.950 . S
C1864 H1856 0.950 . S
C1864 C1865 1.386 . S
C1864 C1866 1.391 1_565 S
C1865 C1864 1.386 . S
C1865 C1869 1.393 . S
C1866 H1858 0.950 . S
C1866 C1864 1.391 1_545 S
C1866 C1867 1.400 . S
C1867 C1866 1.400 . S
C1867 C1868 1.398 . S
C1867 C1873 1.491 . S
C1868 H1859 0.950 . S
C1868 C1867 1.398 . S
C1868 C1869 1.391 1_545 S
C1869 H1857 0.950 . S
C1869 C1865 1.393 . S
C1869 C1868 1.391 1_565 S
C1870 H1860 0.950 . S
C1870 C1871 1.386 . S
C1870 C1872 1.391 . S
C1871 C1870 1.386 . S
C1871 C1875 1.393 . S
C1872 H1861 0.950 . S
C1872 C1870 1.391 . S
C1872 C1873 1.400 . S
C1873 C1867 1.491 . S
C1873 C1872 1.400 . S
C1873 C1874 1.398 . S
C1874 H1862 0.950 . S
C1874 C1873 1.398 . S
C1874 C1875 1.391 . S
C1875 H1863 0.950 . S
C1875 C1871 1.393 . S
C1875 C1874 1.391 . S
H1876 C1884 0.950 1_545 S
H1877 C1889 0.950 . S
H1878 C1886 0.950 . S
H1879 C1888 0.950 . S
H1880 C1890 0.950 . S
H1881 C1892 0.950 . S
H1882 C1894 0.950 . S
H1883 C1895 0.950 . S
C1884 H1876 0.950 1_565 S
C1884 C1885 1.386 . S
C1884 C1886 1.391 1_565 S
C1885 C1884 1.386 . S
C1885 C1889 1.393 . S
C1886 H1878 0.950 . S
C1886 C1884 1.391 1_545 S
C1886 C1887 1.400 1_545 S
C1887 C1886 1.400 1_565 S
C1887 C1888 1.398 . S
C1887 C1893 1.491 . S
C1888 H1879 0.950 . S
C1888 C1887 1.398 . S
C1888 C1889 1.391 . S
C1889 H1877 0.950 . S
C1889 C1885 1.393 . S
C1889 C1888 1.391 . S
C1890 H1880 0.950 . S
C1890 C1891 1.386 1_565 S
C1890 C1892 1.391 . S
C1891 C1890 1.386 1_545 S
C1891 C1895 1.393 . S
C1892 H1881 0.950 . S
C1892 C1890 1.391 . S
C1892 C1893 1.400 . S
C1893 C1887 1.491 . S
C1893 C1892 1.400 . S
C1893 C1894 1.398 1_565 S
C1894 H1882 0.950 . S
C1894 C1893 1.398 1_545 S
C1894 C1895 1.391 . S
C1895 H1883 0.950 . S
C1895 C1891 1.393 . S
C1895 C1894 1.391 . S
H1896 C1904 0.950 . S
H1897 C1909 0.950 . S
H1898 C1906 0.950 . S
H1899 C1908 0.950 . S
H1900 C1910 0.950 . S
H1901 C1912 0.950 . S
H1902 C1914 0.950 . S
H1903 C1915 0.950 . S
C1904 H1896 0.950 . S
C1904 C1905 1.386 . S
C1904 C1906 1.391 1_545 S
C1905 C1904 1.386 . S
C1905 C1909 1.393 . S
C1906 H1898 0.950 . S
C1906 C1904 1.391 1_565 S
C1906 C1907 1.400 . S
C1907 C1906 1.400 . S
C1907 C1908 1.398 . S
C1907 C1913 1.491 . S
C1908 H1899 0.950 . S
C1908 C1907 1.398 . S
C1908 C1909 1.391 1_565 S
C1909 H1897 0.950 . S
C1909 C1905 1.393 . S
C1909 C1908 1.391 1_545 S
C1910 H1900 0.950 . S
C1910 C1911 1.386 . S
C1910 C1912 1.391 . S
C1911 C1910 1.386 . S
C1911 C1915 1.393 . S
C1912 H1901 0.950 . S
C1912 C1910 1.391 . S
C1912 C1913 1.400 . S
C1913 C1907 1.491 . S
C1913 C1912 1.400 . S
C1913 C1914 1.398 . S
C1914 H1902 0.950 . S
C1914 C1913 1.398 . S
C1914 C1915 1.391 . S
C1915 H1903 0.950 . S
C1915 C1911 1.393 . S
C1915 C1914 1.391 . S
H1916 C1924 0.950 . S
H1917 C1929 0.950 . S
H1918 C1926 0.950 . S
H1919 C1928 0.950 . S
H1920 C1930 0.950 1_565 S
H1921 C1932 0.950 . S
H1922 C1934 0.950 . S
H1923 C1935 0.950 . S
C1924 H1916 0.950 . S
C1924 C1925 1.386 1_545 S
C1924 C1926 1.391 . S
C1925 C1924 1.386 1_565 S
C1925 C1929 1.393 . S
C1926 H1918 0.950 . S
C1926 C1924 1.391 . S
C1926 C1927 1.400 . S
C1927 C1926 1.400 . S
C1927 C1928 1.398 1_545 S
C1927 C1933 1.491 . S
C1928 H1919 0.950 . S
C1928 C1927 1.398 1_565 S
C1928 C1929 1.391 . S
C1929 H1917 0.950 . S
C1929 C1925 1.393 . S
C1929 C1928 1.391 . S
C1930 H1920 0.950 1_545 S
C1930 C1931 1.386 . S
C1930 C1932 1.391 1_545 S
C1931 C1930 1.386 . S
C1931 C1935 1.393 . S
C1932 H1921 0.950 . S
C1932 C1930 1.391 1_565 S
C1932 C1933 1.400 1_565 S
C1933 C1927 1.491 . S
C1933 C1932 1.400 1_545 S
C1933 C1934 1.398 . S
C1934 H1922 0.950 . S
C1934 C1933 1.398 . S
C1934 C1935 1.391 . S
C1935 H1923 0.950 . S
C1935 C1931 1.393 . S
C1935 C1934 1.391 . S
H1936 C1944 0.950 . S
H1937 C1949 0.950 . S
H1938 C1946 0.950 . S
H1939 C1948 0.950 . S
H1940 C1950 0.950 1_545 S
H1941 C1952 0.950 . S
H1942 C1954 0.950 . S
H1943 C1955 0.950 . S
C1944 H1936 0.950 . S
C1944 C1945 1.386 . S
C1944 C1946 1.391 . S
C1945 C1944 1.386 . S
C1945 C1949 1.393 . S
C1946 H1938 0.950 . S
C1946 C1944 1.391 . S
C1946 C1947 1.400 . S
C1947 C1946 1.400 . S
C1947 C1948 1.398 . S
C1947 C1953 1.491 . S
C1948 H1939 0.950 . S
C1948 C1947 1.398 . S
C1948 C1949 1.391 . S
C1949 H1937 0.950 . S
C1949 C1945 1.393 . S
C1949 C1948 1.391 . S
C1950 H1940 0.950 1_565 S
C1950 C1951 1.386 1_565 S
C1950 C1952 1.391 . S
C1951 C1950 1.386 1_545 S
C1951 C1955 1.393 . S
C1952 H1941 0.950 . S
C1952 C1950 1.391 . S
C1952 C1953 1.400 . S
C1953 C1947 1.491 . S
C1953 C1952 1.400 . S
C1953 C1954 1.398 . S
C1954 H1942 0.950 . S
C1954 C1953 1.398 . S
C1954 C1955 1.391 1_565 S
C1955 H1943 0.950 . S
C1955 C1951 1.393 . S
C1955 C1954 1.391 1_545 S
H1956 C1964 0.950 . S
H1957 C1969 0.950 . S
H1958 C1966 0.950 . S
H1959 C1968 0.961 . S
H1960 C1970 0.950 . S
H1961 C1972 0.950 . S
H1962 C1974 0.950 . S
H1963 C1975 0.948 1_565 S
C1964 H1956 0.950 . S
C1964 C1965 1.386 . S
C1964 C1966 1.391 . S
C1965 C1964 1.386 . S
C1965 C1969 1.393 . S
C1966 H1958 0.950 . S
C1966 C1964 1.391 . S
C1966 C1967 1.400 . S
C1967 C1966 1.400 . S
C1967 C1968 1.398 . S
C1967 C1973 1.491 . S
C1968 H1959 0.961 . S
C1968 C1967 1.398 . S
C1968 C1969 1.391 . S
C1969 H1957 0.950 . S
C1969 C1965 1.393 . S
C1969 C1968 1.391 . S
C1970 H1960 0.950 . S
C1970 C1971 1.386 . S
C1970 C1972 1.391 . S
C1971 C1970 1.386 . S
C1971 C1975 1.397 . S
C1972 H1961 0.950 . S
C1972 C1970 1.391 . S
C1972 C1973 1.400 1_545 S
C1973 C1967 1.491 . S
C1973 C1972 1.400 1_565 S
C1973 C1974 1.398 . S
C1974 H1962 0.950 . S
C1974 C1973 1.398 . S
C1974 C1975 1.388 1_565 S
C1975 H1963 0.948 1_545 S
C1975 C1971 1.397 . S
C1975 C1974 1.388 1_545 S
H1976 C1984 0.950 . S
H1977 C1989 0.950 1_565 S
H1978 C1986 0.950 . S
H1979 C1988 0.950 . S
H1980 C1990 0.950 . S
H1981 C1992 0.950 . S
H1982 C1994 0.950 . S
H1983 C1995 0.950 . S
C1984 H1976 0.950 . S
C1984 C1985 1.386 . S
C1984 C1986 1.391 1_565 S
C1985 C1984 1.386 . S
C1985 C1989 1.393 1_565 S
C1986 H1978 0.950 . S
C1986 C1984 1.391 1_545 S
C1986 C1987 1.400 . S
C1987 C1986 1.400 . S
C1987 C1988 1.398 . S
C1987 C1993 1.491 . S
C1988 H1979 0.950 . S
C1988 C1987 1.398 . S
C1988 C1989 1.391 . S
C1989 H1977 0.950 1_545 S
C1989 C1985 1.393 1_545 S
C1989 C1988 1.391 . S
C1990 H1980 0.950 . S
C1990 C1991 1.386 . S
C1990 C1992 1.391 . S
C1991 C1990 1.386 . S
C1991 C1995 1.393 . S
C1992 H1981 0.950 . S
C1992 C1990 1.391 . S
C1992 C1993 1.400 . S
C1993 C1987 1.491 . S
C1993 C1992 1.400 . S
C1993 C1994 1.398 . S
C1994 H1982 0.950 . S
C1994 C1993 1.398 . S
C1994 C1995 1.391 . S
C1995 H1983 0.950 . S
C1995 C1991 1.393 . S
C1995 C1994 1.391 . S
H1996 C2004 0.950 . S
H1997 C2009 0.950 . S
H1998 C2006 0.950 1_565 S
H1999 C2008 0.950 . S
H2000 C2010 0.950 . S
H2001 C2012 0.950 . S
H2002 C2014 0.950 . S
H2003 C2015 0.950 . S
C2004 H1996 0.950 . S
C2004 C2005 1.386 . S
C2004 C2006 1.391 . S
C2005 C2004 1.386 . S
C2005 C2009 1.393 . S
C2006 H1998 0.950 1_545 S
C2006 C2004 1.391 . S
C2006 C2007 1.400 . S
C2007 C2006 1.400 . S
C2007 C2008 1.398 . S
C2007 C2013 1.491 . S
C2008 H1999 0.950 . S
C2008 C2007 1.398 . S
C2008 C2009 1.391 . S
C2009 H1997 0.950 . S
C2009 C2005 1.393 . S
C2009 C2008 1.391 . S
C2010 H2000 0.950 . S
C2010 C2011 1.386 1_545 S
C2010 C2012 1.391 . S
C2011 C2010 1.386 1_565 S
C2011 C2015 1.393 . S
C2012 H2001 0.950 . S
C2012 C2010 1.391 . S
C2012 C2013 1.400 . S
C2013 C2007 1.491 . S
C2013 C2012 1.400 . S
C2013 C2014 1.398 1_545 S
C2014 H2002 0.950 . S
C2014 C2013 1.398 1_565 S
C2014 C2015 1.391 . S
C2015 H2003 0.950 . S
C2015 C2011 1.393 . S
C2015 C2014 1.391 . S
H2016 C2024 0.950 . S
H2017 C2029 0.950 . S
H2018 C2026 0.950 . S
H2019 C2028 0.950 . S
H2020 C2030 0.950 . S
H2021 C2032 0.950 . S
H2022 C2034 0.950 . S
H2023 C2035 0.950 . S
C2024 H2016 0.950 . S
C2024 C2025 1.386 . S
C2024 C2026 1.391 . S
C2025 C2024 1.386 . S
C2025 C2029 1.393 . S
C2026 H2018 0.950 . S
C2026 C2024 1.391 . S
C2026 C2027 1.400 . S
C2027 C2026 1.400 . S
C2027 C2028 1.398 . S
C2027 C2033 1.491 . S
C2028 H2019 0.950 . S
C2028 C2027 1.398 . S
C2028 C2029 1.391 . S
C2029 H2017 0.950 . S
C2029 C2025 1.393 . S
C2029 C2028 1.391 . S
C2030 H2020 0.950 . S
C2030 C2031 1.386 . S
C2030 C2032 1.391 . S
C2031 C2030 1.386 . S
C2031 C2035 1.393 . S
C2032 H2021 0.950 . S
C2032 C2030 1.391 . S
C2032 C2033 1.400 . S
C2033 C2027 1.491 . S
C2033 C2032 1.400 . S
C2033 C2034 1.398 . S
C2034 H2022 0.950 . S
C2034 C2033 1.398 . S
C2034 C2035 1.391 . S
C2035 H2023 0.950 . S
C2035 C2031 1.393 . S
C2035 C2034 1.391 . S
H2036 C2044 0.950 . S
H2037 C2049 0.950 . S
H2038 C2046 0.950 . S
H2039 C2048 0.950 . S
H2040 C2050 0.950 . S
H2041 C2052 0.950 . S
H2042 C2054 0.950 . S
H2043 C2055 0.950 . S
C2044 H2036 0.950 . S
C2044 C2045 1.386 . S
C2044 C2046 1.391 . S
C2045 C2044 1.386 . S
C2045 C2049 1.393 . S
C2046 H2038 0.950 . S
C2046 C2044 1.391 . S
C2046 C2047 1.400 . S
C2047 C2046 1.400 . S
C2047 C2048 1.398 . S
C2047 C2053 1.491 . S
C2048 H2039 0.950 . S
C2048 C2047 1.398 . S
C2048 C2049 1.391 . S
C2049 H2037 0.950 . S
C2049 C2045 1.393 . S
C2049 C2048 1.391 . S
C2050 H2040 0.950 . S
C2050 C2051 1.386 . S
C2050 C2052 1.391 . S
C2051 C2050 1.386 . S
C2051 C2055 1.393 . S
C2052 H2041 0.950 . S
C2052 C2050 1.391 . S
C2052 C2053 1.400 . S
C2053 C2047 1.491 . S
C2053 C2052 1.400 . S
C2053 C2054 1.398 . S
C2054 H2042 0.950 . S
C2054 C2053 1.398 . S
C2054 C2055 1.391 . S
C2055 H2043 0.950 . S
C2055 C2051 1.393 . S
C2055 C2054 1.391 . S
H2056 C2064 0.950 . S
H2057 C2069 0.950 . S
H2058 C2066 0.950 . S
H2059 C2068 0.950 . S
H2060 C2070 0.950 . S
H2061 C2072 0.950 . S
H2062 C2074 0.950 . S
H2063 C2075 0.950 . S
C2064 H2056 0.950 . S
C2064 C2065 1.386 . S
C2064 C2066 1.391 . S
C2065 C2064 1.386 . S
C2065 C2069 1.393 . S
C2066 H2058 0.950 . S
C2066 C2064 1.391 . S
C2066 C2067 1.400 . S
C2067 C2066 1.400 . S
C2067 C2068 1.398 . S
C2067 C2073 1.491 . S
C2068 H2059 0.950 . S
C2068 C2067 1.398 . S
C2068 C2069 1.391 . S
C2069 H2057 0.950 . S
C2069 C2065 1.393 . S
C2069 C2068 1.391 . S
C2070 H2060 0.950 . S
C2070 C2071 1.386 . S
C2070 C2072 1.391 . S
C2071 C2070 1.386 . S
C2071 C2075 1.393 . S
C2072 H2061 0.950 . S
C2072 C2070 1.391 . S
C2072 C2073 1.400 . S
C2073 C2067 1.491 . S
C2073 C2072 1.400 . S
C2073 C2074 1.398 . S
C2074 H2062 0.950 . S
C2074 C2073 1.398 . S
C2074 C2075 1.391 . S
C2075 H2063 0.950 . S
C2075 C2071 1.393 . S
C2075 C2074 1.391 . S
H2076 C2084 0.950 . S
H2077 C2089 0.950 . S
H2078 C2086 0.950 . S
H2079 C2088 0.950 . S
H2080 C2090 0.950 . S
H2081 C2092 0.950 . S
H2082 C2094 0.950 . S
H2083 C2095 0.950 . S
C2084 H2076 0.950 . S
C2084 C2085 1.386 . S
C2084 C2086 1.391 . S
C2085 C2084 1.386 . S
C2085 C2089 1.393 . S
C2086 H2078 0.950 . S
C2086 C2084 1.391 . S
C2086 C2087 1.400 . S
C2087 C2086 1.400 . S
C2087 C2088 1.398 . S
C2087 C2093 1.491 . S
C2088 H2079 0.950 . S
C2088 C2087 1.398 . S
C2088 C2089 1.391 . S
C2089 H2077 0.950 . S
C2089 C2085 1.393 . S
C2089 C2088 1.391 . S
C2090 H2080 0.950 . S
C2090 C2091 1.386 . S
C2090 C2092 1.391 . S
C2091 C2090 1.386 . S
C2091 C2095 1.393 . S
C2092 H2081 0.950 . S
C2092 C2090 1.391 . S
C2092 C2093 1.400 . S
C2093 C2087 1.491 . S
C2093 C2092 1.400 . S
C2093 C2094 1.398 . S
C2094 H2082 0.950 . S
C2094 C2093 1.398 . S
C2094 C2095 1.391 . S
C2095 H2083 0.950 . S
C2095 C2091 1.393 . S
C2095 C2094 1.391 . S
H2096 C2104 0.950 . S
H2097 C2109 0.950 . S
H2098 C2106 0.950 . S
H2099 C2108 0.950 . S
H2100 C2110 0.950 . S
H2101 C2112 0.950 . S
H2102 C2114 0.950 . S
H2103 C2115 0.950 . S
C2104 H2096 0.950 . S
C2104 C2105 1.386 . S
C2104 C2106 1.391 . S
C2105 C2104 1.386 . S
C2105 C2109 1.393 . S
C2106 H2098 0.950 . S
C2106 C2104 1.391 . S
C2106 C2107 1.400 . S
C2107 C2106 1.400 . S
C2107 C2108 1.398 . S
C2107 C2113 1.491 . S
C2108 H2099 0.950 . S
C2108 C2107 1.398 . S
C2108 C2109 1.391 . S
C2109 H2097 0.950 . S
C2109 C2105 1.393 . S
C2109 C2108 1.391 . S
C2110 H2100 0.950 . S
C2110 C2111 1.386 . S
C2110 C2112 1.391 . S
C2111 C2110 1.386 . S
C2111 C2115 1.393 . S
C2112 H2101 0.950 . S
C2112 C2110 1.391 . S
C2112 C2113 1.400 . S
C2113 C2107 1.491 . S
C2113 C2112 1.400 . S
C2113 C2114 1.398 . S
C2114 H2102 0.950 . S
C2114 C2113 1.398 . S
C2114 C2115 1.391 . S
C2115 H2103 0.950 . S
C2115 C2111 1.393 . S
C2115 C2114 1.391 . S
H2116 C2124 0.950 . S
H2117 C2129 0.950 . S
H2118 C2126 0.950 . S
H2119 C2128 0.950 . S
H2120 C2130 0.950 . S
H2121 C2132 0.950 . S
H2122 C2134 0.950 . S
H2123 C2135 0.950 . S
C2124 H2116 0.950 . S
C2124 C2125 1.386 . S
C2124 C2126 1.391 . S
C2125 C2124 1.386 . S
C2125 C2129 1.393 . S
C2126 H2118 0.950 . S
C2126 C2124 1.391 . S
C2126 C2127 1.400 . S
C2127 C2126 1.400 . S
C2127 C2128 1.398 . S
C2127 C2133 1.491 . S
C2128 H2119 0.950 . S
C2128 C2127 1.398 . S
C2128 C2129 1.391 . S
C2129 H2117 0.950 . S
C2129 C2125 1.393 . S
C2129 C2128 1.391 . S
C2130 H2120 0.950 . S
C2130 C2131 1.386 . S
C2130 C2132 1.391 . S
C2131 C2130 1.386 . S
C2131 C2135 1.393 . S
C2132 H2121 0.950 . S
C2132 C2130 1.391 . S
C2132 C2133 1.400 . S
C2133 C2127 1.491 . S
C2133 C2132 1.400 . S
C2133 C2134 1.398 . S
C2134 H2122 0.950 . S
C2134 C2133 1.398 . S
C2134 C2135 1.391 . S
C2135 H2123 0.950 . S
C2135 C2131 1.393 . S
C2135 C2134 1.391 . S
H2136 C2144 0.950 . S
H2137 C2149 0.950 . S
H2138 C2146 0.950 . S
H2139 C2148 0.950 . S
H2140 C2150 0.950 . S
H2141 C2152 0.950 . S
H2142 C2154 0.950 . S
H2143 C2155 0.950 . S
C2144 H2136 0.950 . S
C2144 C2145 1.386 . S
C2144 C2146 1.391 . S
C2145 C2144 1.386 . S
C2145 C2149 1.393 . S
C2146 H2138 0.950 . S
C2146 C2144 1.391 . S
C2146 C2147 1.400 . S
C2147 C2146 1.400 . S
C2147 C2148 1.398 . S
C2147 C2153 1.491 . S
C2148 H2139 0.950 . S
C2148 C2147 1.398 . S
C2148 C2149 1.391 . S
C2149 H2137 0.950 . S
C2149 C2145 1.393 . S
C2149 C2148 1.391 . S
C2150 H2140 0.950 . S
C2150 C2151 1.386 . S
C2150 C2152 1.391 . S
C2151 C2150 1.386 . S
C2151 C2155 1.393 . S
C2152 H2141 0.950 . S
C2152 C2150 1.391 . S
C2152 C2153 1.400 . S
C2153 C2147 1.491 . S
C2153 C2152 1.400 . S
C2153 C2154 1.398 . S
C2154 H2142 0.950 . S
C2154 C2153 1.398 . S
C2154 C2155 1.391 . S
C2155 H2143 0.950 . S
C2155 C2151 1.393 . S
C2155 C2154 1.391 . S
H2156 C2164 0.950 . S
H2157 C2169 0.950 . S
H2158 C2166 0.950 . S
H2159 C2168 0.950 . S
H2160 C2170 0.950 . S
H2161 C2172 0.950 . S
H2162 C2174 0.950 . S
H2163 C2175 0.950 . S
C2164 H2156 0.950 . S
C2164 C2165 1.386 . S
C2164 C2166 1.391 . S
C2165 C2164 1.386 . S
C2165 C2169 1.393 . S
C2166 H2158 0.950 . S
C2166 C2164 1.391 . S
C2166 C2167 1.400 . S
C2167 C2166 1.400 . S
C2167 C2168 1.398 . S
C2167 C2173 1.491 . S
C2168 H2159 0.950 . S
C2168 C2167 1.398 . S
C2168 C2169 1.391 . S
C2169 H2157 0.950 . S
C2169 C2165 1.393 . S
C2169 C2168 1.391 . S
C2170 H2160 0.950 . S
C2170 C2171 1.386 . S
C2170 C2172 1.391 . S
C2171 C2170 1.386 . S
C2171 C2175 1.393 . S
C2172 H2161 0.950 . S
C2172 C2170 1.391 . S
C2172 C2173 1.400 . S
C2173 C2167 1.491 . S
C2173 C2172 1.400 . S
C2173 C2174 1.398 . S
C2174 H2162 0.950 . S
C2174 C2173 1.398 . S
C2174 C2175 1.391 . S
C2175 H2163 0.950 . S
C2175 C2171 1.393 . S
C2175 C2174 1.391 . S
H2176 C2184 0.950 . S
H2177 C2189 0.950 . S
H2178 C2186 0.950 . S
H2179 C2188 0.950 . S
H2180 C2190 0.950 . S
H2181 C2192 0.950 . S
H2182 C2194 0.950 . S
H2183 C2195 0.950 . S
C2184 H2176 0.950 . S
C2184 C2185 1.386 . S
C2184 C2186 1.391 . S
C2185 C2184 1.386 . S
C2185 C2189 1.393 . S
C2186 H2178 0.950 . S
C2186 C2184 1.391 . S
C2186 C2187 1.400 . S
C2187 C2186 1.400 . S
C2187 C2188 1.398 . S
C2187 C2193 1.491 . S
C2188 H2179 0.950 . S
C2188 C2187 1.398 . S
C2188 C2189 1.391 . S
C2189 H2177 0.950 . S
C2189 C2185 1.393 . S
C2189 C2188 1.391 . S
C2190 H2180 0.950 . S
C2190 C2191 1.386 . S
C2190 C2192 1.391 . S
C2191 C2190 1.386 . S
C2191 C2195 1.393 . S
C2192 H2181 0.950 . S
C2192 C2190 1.391 . S
C2192 C2193 1.400 . S
C2193 C2187 1.491 . S
C2193 C2192 1.400 . S
C2193 C2194 1.398 . S
C2194 H2182 0.950 . S
C2194 C2193 1.398 . S
C2194 C2195 1.391 . S
C2195 H2183 0.950 . S
C2195 C2191 1.393 . S
C2195 C2194 1.391 . S
H2196 C2204 0.950 . S
H2197 C2209 0.950 . S
H2198 C2206 0.950 . S
H2199 C2208 0.950 . S
H2200 C2210 0.950 . S
H2201 C2212 0.950 . S
H2202 C2214 0.950 . S
H2203 C2215 0.950 . S
C2204 H2196 0.950 . S
C2204 C2205 1.386 . S
C2204 C2206 1.391 . S
C2205 C2204 1.386 . S
C2205 C2209 1.393 . S
C2206 H2198 0.950 . S
C2206 C2204 1.391 . S
C2206 C2207 1.400 . S
C2207 C2206 1.400 . S
C2207 C2208 1.398 . S
C2207 C2213 1.491 . S
C2208 H2199 0.950 . S
C2208 C2207 1.398 . S
C2208 C2209 1.391 . S
C2209 H2197 0.950 . S
C2209 C2205 1.393 . S
C2209 C2208 1.391 . S
C2210 H2200 0.950 . S
C2210 C2211 1.386 . S
C2210 C2212 1.391 . S
C2211 C2210 1.386 . S
C2211 C2215 1.393 . S
C2212 H2201 0.950 . S
C2212 C2210 1.391 . S
C2212 C2213 1.400 . S
C2213 C2207 1.491 . S
C2213 C2212 1.400 . S
C2213 C2214 1.398 . S
C2214 H2202 0.950 . S
C2214 C2213 1.398 . S
C2214 C2215 1.391 . S
C2215 H2203 0.950 . S
C2215 C2211 1.393 . S
C2215 C2214 1.391 . S
H2216 C2224 0.950 . S
H2217 C2229 0.950 . S
H2218 C2226 0.950 . S
H2219 C2228 0.950 . S
H2220 C2230 0.950 . S
H2221 C2232 0.950 . S
H2222 C2234 0.950 . S
H2223 C2235 0.950 . S
C2224 H2216 0.950 . S
C2224 C2225 1.386 . S
C2224 C2226 1.391 . S
C2225 C2224 1.386 . S
C2225 C2229 1.393 . S
C2226 H2218 0.950 . S
C2226 C2224 1.391 . S
C2226 C2227 1.400 . S
C2227 C2226 1.400 . S
C2227 C2228 1.398 . S
C2227 C2233 1.491 . S
C2228 H2219 0.950 . S
C2228 C2227 1.398 . S
C2228 C2229 1.391 . S
C2229 H2217 0.950 . S
C2229 C2225 1.393 . S
C2229 C2228 1.391 . S
C2230 H2220 0.950 . S
C2230 C2231 1.386 . S
C2230 C2232 1.391 . S
C2231 C2230 1.386 . S
C2231 C2235 1.393 . S
C2232 H2221 0.950 . S
C2232 C2230 1.391 . S
C2232 C2233 1.400 . S
C2233 C2227 1.491 . S
C2233 C2232 1.400 . S
C2233 C2234 1.398 . S
C2234 H2222 0.950 . S
C2234 C2233 1.398 . S
C2234 C2235 1.391 . S
C2235 H2223 0.950 . S
C2235 C2231 1.393 . S
C2235 C2234 1.391 . S
H2236 C2244 0.950 . S
H2237 C2249 0.950 . S
H2238 C2246 0.950 . S
H2239 C2248 0.950 . S
H2240 C2250 0.950 . S
H2241 C2252 0.950 . S
H2242 C2254 0.950 . S
H2243 C2255 0.950 . S
C2244 H2236 0.950 . S
C2244 C2245 1.386 . S
C2244 C2246 1.391 . S
C2245 C2244 1.386 . S
C2245 C2249 1.393 . S
C2246 H2238 0.950 . S
C2246 C2244 1.391 . S
C2246 C2247 1.400 . S
C2247 C2246 1.400 . S
C2247 C2248 1.398 . S
C2247 C2253 1.491 . S
C2248 H2239 0.950 . S
C2248 C2247 1.398 . S
C2248 C2249 1.391 . S
C2249 H2237 0.950 . S
C2249 C2245 1.393 . S
C2249 C2248 1.391 . S
C2250 H2240 0.950 . S
C2250 C2251 1.386 . S
C2250 C2252 1.391 . S
C2251 C2250 1.386 . S
C2251 C2255 1.393 . S
C2252 H2241 0.950 . S
C2252 C2250 1.391 . S
C2252 C2253 1.400 . S
C2253 C2247 1.491 . S
C2253 C2252 1.400 . S
C2253 C2254 1.398 . S
C2254 H2242 0.950 . S
C2254 C2253 1.398 . S
C2254 C2255 1.391 . S
C2255 H2243 0.950 . S
C2255 C2251 1.393 . S
C2255 C2254 1.391 . S
H2256 C2264 0.950 . S
H2257 C2269 0.950 . S
H2258 C2266 0.950 . S
H2259 C2268 0.950 . S
H2260 C2270 0.950 . S
H2261 C2272 0.950 . S
H2262 C2274 0.950 . S
H2263 C2275 0.950 . S
C2264 H2256 0.950 . S
C2264 C2265 1.386 . S
C2264 C2266 1.391 . S
C2265 C2264 1.386 . S
C2265 C2269 1.393 . S
C2266 H2258 0.950 . S
C2266 C2264 1.391 . S
C2266 C2267 1.400 . S
C2267 C2266 1.400 . S
C2267 C2268 1.398 . S
C2267 C2273 1.491 . S
C2268 H2259 0.950 . S
C2268 C2267 1.398 . S
C2268 C2269 1.391 . S
C2269 H2257 0.950 . S
C2269 C2265 1.393 . S
C2269 C2268 1.391 . S
C2270 H2260 0.950 . S
C2270 C2271 1.386 . S
C2270 C2272 1.391 . S
C2271 C2270 1.386 . S
C2271 C2275 1.393 . S
C2272 H2261 0.950 . S
C2272 C2270 1.391 . S
C2272 C2273 1.400 . S
C2273 C2267 1.491 . S
C2273 C2272 1.400 . S
C2273 C2274 1.398 . S
C2274 H2262 0.950 . S
C2274 C2273 1.398 . S
C2274 C2275 1.391 . S
C2275 H2263 0.950 . S
C2275 C2271 1.393 . S
C2275 C2274 1.391 . S
H2276 C2284 0.950 . S
H2277 C2289 0.950 . S
H2278 C2286 0.950 . S
H2279 C2288 0.950 . S
H2280 C2290 0.950 . S
H2281 C2292 0.950 . S
H2282 C2294 0.950 . S
H2283 C2295 0.950 . S
C2284 H2276 0.950 . S
C2284 C2285 1.386 . S
C2284 C2286 1.391 . S
C2285 C2284 1.386 . S
C2285 C2289 1.393 . S
C2286 H2278 0.950 . S
C2286 C2284 1.391 . S
C2286 C2287 1.400 . S
C2287 C2286 1.400 . S
C2287 C2288 1.398 . S
C2287 C2293 1.491 . S
C2288 H2279 0.950 . S
C2288 C2287 1.398 . S
C2288 C2289 1.391 . S
C2289 H2277 0.950 . S
C2289 C2285 1.393 . S
C2289 C2288 1.391 . S
C2290 H2280 0.950 . S
C2290 C2291 1.386 . S
C2290 C2292 1.391 . S
C2291 C2290 1.386 . S
C2291 C2295 1.393 . S
C2292 H2281 0.950 . S
C2292 C2290 1.391 . S
C2292 C2293 1.400 . S
C2293 C2287 1.491 . S
C2293 C2292 1.400 . S
C2293 C2294 1.398 . S
C2294 H2282 0.950 . S
C2294 C2293 1.398 . S
C2294 C2295 1.391 . S
C2295 H2283 0.950 . S
C2295 C2291 1.393 . S
C2295 C2294 1.391 . S
H2296 C2304 0.950 . S
H2297 C2309 0.950 . S
H2298 C2306 0.950 . S
H2299 C2308 0.950 . S
H2300 C2310 0.950 . S
H2301 C2312 0.950 . S
H2302 C2314 0.950 . S
H2303 C2315 0.950 . S
C2304 H2296 0.950 . S
C2304 C2305 1.386 . S
C2304 C2306 1.391 . S
C2305 C2304 1.386 . S
C2305 C2309 1.393 . S
C2306 H2298 0.950 . S
C2306 C2304 1.391 . S
C2306 C2307 1.400 . S
C2307 C2306 1.400 . S
C2307 C2308 1.398 . S
C2307 C2313 1.491 . S
C2308 H2299 0.950 . S
C2308 C2307 1.398 . S
C2308 C2309 1.391 . S
C2309 H2297 0.950 . S
C2309 C2305 1.393 . S
C2309 C2308 1.391 . S
C2310 H2300 0.950 . S
C2310 C2311 1.386 . S
C2310 C2312 1.391 . S
C2311 C2310 1.386 . S
C2311 C2315 1.393 . S
C2312 H2301 0.950 . S
C2312 C2310 1.391 . S
C2312 C2313 1.400 . S
C2313 C2307 1.491 . S
C2313 C2312 1.400 . S
C2313 C2314 1.398 . S
C2314 H2302 0.950 . S
C2314 C2313 1.398 . S
C2314 C2315 1.391 . S
C2315 H2303 0.950 . S
C2315 C2311 1.393 . S
C2315 C2314 1.391 . S
H2316 C2324 0.950 . S
H2317 C2329 0.950 . S
H2318 C2326 0.950 . S
H2319 C2328 0.950 . S
H2320 C2330 0.950 . S
H2321 C2332 0.950 . S
H2322 C2334 0.950 . S
H2323 C2335 0.950 . S
C2324 H2316 0.950 . S
C2324 C2325 1.386 . S
C2324 C2326 1.391 . S
C2325 C2324 1.386 . S
C2325 C2329 1.393 . S
C2326 H2318 0.950 . S
C2326 C2324 1.391 . S
C2326 C2327 1.400 . S
C2327 C2326 1.400 . S
C2327 C2328 1.398 . S
C2327 C2333 1.491 . S
C2328 H2319 0.950 . S
C2328 C2327 1.398 . S
C2328 C2329 1.391 . S
C2329 H2317 0.950 . S
C2329 C2325 1.393 . S
C2329 C2328 1.391 . S
C2330 H2320 0.950 . S
C2330 C2331 1.386 . S
C2330 C2332 1.391 . S
C2331 C2330 1.386 . S
C2331 C2335 1.393 . S
C2332 H2321 0.950 . S
C2332 C2330 1.391 . S
C2332 C2333 1.400 . S
C2333 C2327 1.491 . S
C2333 C2332 1.400 . S
C2333 C2334 1.398 . S
C2334 H2322 0.950 . S
C2334 C2333 1.398 . S
C2334 C2335 1.391 . S
C2335 H2323 0.950 . S
C2335 C2331 1.393 . S
C2335 C2334 1.391 . S
H2336 C2344 0.950 . S
H2337 C2349 0.950 . S
H2338 C2346 0.950 . S
H2339 C2348 0.950 . S
H2340 C2350 0.950 . S
H2341 C2352 0.950 . S
H2342 C2354 0.950 . S
H2343 C2355 0.950 . S
C2344 H2336 0.950 . S
C2344 C2345 1.386 . S
C2344 C2346 1.391 . S
C2345 C2344 1.386 . S
C2345 C2349 1.393 . S
C2346 H2338 0.950 . S
C2346 C2344 1.391 . S
C2346 C2347 1.400 . S
C2347 C2346 1.400 . S
C2347 C2348 1.398 . S
C2347 C2353 1.491 . S
C2348 H2339 0.950 . S
C2348 C2347 1.398 . S
C2348 C2349 1.391 . S
C2349 H2337 0.950 . S
C2349 C2345 1.393 . S
C2349 C2348 1.391 . S
C2350 H2340 0.950 . S
C2350 C2351 1.386 . S
C2350 C2352 1.391 . S
C2351 C2350 1.386 . S
C2351 C2355 1.393 . S
C2352 H2341 0.950 . S
C2352 C2350 1.391 . S
C2352 C2353 1.400 . S
C2353 C2347 1.491 . S
C2353 C2352 1.400 . S
C2353 C2354 1.398 . S
C2354 H2342 0.950 . S
C2354 C2353 1.398 . S
C2354 C2355 1.391 . S
C2355 H2343 0.950 . S
C2355 C2351 1.393 . S
C2355 C2354 1.391 . S
H2356 C2364 0.950 . S
H2357 C2369 0.950 . S
H2358 C2366 0.950 . S
H2359 C2368 0.950 . S
H2360 C2370 0.950 . S
H2361 C2372 0.950 . S
H2362 C2374 0.950 . S
H2363 C2375 0.950 . S
C2364 H2356 0.950 . S
C2364 C2365 1.386 . S
C2364 C2366 1.391 . S
C2365 C2364 1.386 . S
C2365 C2369 1.393 1_655 S
C2366 H2358 0.950 . S
C2366 C2364 1.391 . S
C2366 C2367 1.400 . S
C2367 C2366 1.400 . S
C2367 C2368 1.398 1_655 S
C2367 C2373 1.491 1_655 S
C2368 H2359 0.950 . S
C2368 C2367 1.398 1_455 S
C2368 C2369 1.391 . S
C2369 H2357 0.950 . S
C2369 C2365 1.393 1_455 S
C2369 C2368 1.391 . S
C2370 H2360 0.950 . S
C2370 C2371 1.386 . S
C2370 C2372 1.391 . S
C2371 C2370 1.386 . S
C2371 C2375 1.393 1_455 S
C2372 H2361 0.950 . S
C2372 C2370 1.391 . S
C2372 C2373 1.400 . S
C2373 C2367 1.491 1_455 S
C2373 C2372 1.400 . S
C2373 C2374 1.398 1_455 S
C2374 H2362 0.950 . S
C2374 C2373 1.398 1_655 S
C2374 C2375 1.391 . S
C2375 H2363 0.950 . S
C2375 C2371 1.393 1_655 S
C2375 C2374 1.391 . S
H2376 C2384 0.950 . S
H2377 C2389 0.950 . S
H2378 C2386 0.950 . S
H2379 C2388 0.950 . S
H2380 C2390 0.950 . S
H2381 C2392 0.950 . S
H2382 C2394 0.950 . S
H2383 C2395 0.950 . S
C2384 H2376 0.950 . S
C2384 C2385 1.386 . S
C2384 C2386 1.391 . S
C2385 C2384 1.386 . S
C2385 C2389 1.393 . S
C2386 H2378 0.950 . S
C2386 C2384 1.391 . S
C2386 C2387 1.400 . S
C2387 C2386 1.400 . S
C2387 C2388 1.398 . S
C2387 C2393 1.491 1_455 S
C2388 H2379 0.950 . S
C2388 C2387 1.398 . S
C2388 C2389 1.391 . S
C2389 H2377 0.950 . S
C2389 C2385 1.393 . S
C2389 C2388 1.391 . S
C2390 H2380 0.950 . S
C2390 C2391 1.386 . S
C2390 C2392 1.391 . S
C2391 C2390 1.386 . S
C2391 C2395 1.393 . S
C2392 H2381 0.950 . S
C2392 C2390 1.391 . S
C2392 C2393 1.400 . S
C2393 C2387 1.491 1_655 S
C2393 C2392 1.400 . S
C2393 C2394 1.398 . S
C2394 H2382 0.950 . S
C2394 C2393 1.398 . S
C2394 C2395 1.391 . S
C2395 H2383 0.950 . S
C2395 C2391 1.393 . S
C2395 C2394 1.391 . S
H2396 C2404 0.950 . S
H2397 C2409 0.950 . S
H2398 C2406 0.950 . S
H2399 C2408 0.950 . S
H2400 C2410 0.950 . S
H2401 C2412 0.950 . S
H2402 C2414 0.950 . S
H2403 C2415 0.950 . S
C2404 H2396 0.950 . S
C2404 C2405 1.386 . S
C2404 C2406 1.391 . S
C2405 C2404 1.386 . S
C2405 C2409 1.393 . S
C2406 H2398 0.950 . S
C2406 C2404 1.391 . S
C2406 C2407 1.400 . S
C2407 C2406 1.400 . S
C2407 C2408 1.398 . S
C2407 C2413 1.491 . S
C2408 H2399 0.950 . S
C2408 C2407 1.398 . S
C2408 C2409 1.391 . S
C2409 H2397 0.950 . S
C2409 C2405 1.393 . S
C2409 C2408 1.391 . S
C2410 H2400 0.950 . S
C2410 C2411 1.386 . S
C2410 C2412 1.391 . S
C2411 C2410 1.386 . S
C2411 C2415 1.393 . S
C2412 H2401 0.950 . S
C2412 C2410 1.391 . S
C2412 C2413 1.400 . S
C2413 C2407 1.491 . S
C2413 C2412 1.400 . S
C2413 C2414 1.398 . S
C2414 H2402 0.950 . S
C2414 C2413 1.398 . S
C2414 C2415 1.391 . S
C2415 H2403 0.950 . S
C2415 C2411 1.393 . S
C2415 C2414 1.391 . S
H2416 C2424 0.950 . S
H2417 C2429 0.950 . S
H2418 C2426 0.950 . S
H2419 C2428 0.950 . S
H2420 C2430 0.950 . S
H2421 C2432 0.950 . S
H2422 C2434 0.950 . S
H2423 C2435 0.950 . S
C2424 H2416 0.950 . S
C2424 C2425 1.386 . S
C2424 C2426 1.391 . S
C2425 C2424 1.386 . S
C2425 C2429 1.393 . S
C2426 H2418 0.950 . S
C2426 C2424 1.391 . S
C2426 C2427 1.400 . S
C2427 C2426 1.400 . S
C2427 C2428 1.398 . S
C2427 C2433 1.491 . S
C2428 H2419 0.950 . S
C2428 C2427 1.398 . S
C2428 C2429 1.391 . S
C2429 H2417 0.950 . S
C2429 C2425 1.393 . S
C2429 C2428 1.391 . S
C2430 H2420 0.950 . S
C2430 C2431 1.386 . S
C2430 C2432 1.391 . S
C2431 C2430 1.386 . S
C2431 C2435 1.393 . S
C2432 H2421 0.950 . S
C2432 C2430 1.391 . S
C2432 C2433 1.400 . S
C2433 C2427 1.491 . S
C2433 C2432 1.400 . S
C2433 C2434 1.398 . S
C2434 H2422 0.950 . S
C2434 C2433 1.398 . S
C2434 C2435 1.391 . S
C2435 H2423 0.950 . S
C2435 C2431 1.393 . S
C2435 C2434 1.391 . S
H2436 C2444 0.950 . S
H2437 C2449 0.950 . S
H2438 C2446 0.950 . S
H2439 C2448 0.950 . S
H2440 C2450 0.950 . S
H2441 C2452 0.950 . S
H2442 C2454 0.950 . S
H2443 C2455 0.950 . S
C2444 H2436 0.950 . S
C2444 C2445 1.386 . S
C2444 C2446 1.391 . S
C2445 C2444 1.386 . S
C2445 C2449 1.393 . S
C2446 H2438 0.950 . S
C2446 C2444 1.391 . S
C2446 C2447 1.400 . S
C2447 C2446 1.400 . S
C2447 C2448 1.398 . S
C2447 C2453 1.491 . S
C2448 H2439 0.950 . S
C2448 C2447 1.398 . S
C2448 C2449 1.391 . S
C2449 H2437 0.950 . S
C2449 C2445 1.393 . S
C2449 C2448 1.391 . S
C2450 H2440 0.950 . S
C2450 C2451 1.386 . S
C2450 C2452 1.391 . S
C2451 C2450 1.386 . S
C2451 C2455 1.393 . S
C2452 H2441 0.950 . S
C2452 C2450 1.391 . S
C2452 C2453 1.400 . S
C2453 C2447 1.491 . S
C2453 C2452 1.400 . S
C2453 C2454 1.398 . S
C2454 H2442 0.950 . S
C2454 C2453 1.398 . S
C2454 C2455 1.391 . S
C2455 H2443 0.950 . S
C2455 C2451 1.393 . S
C2455 C2454 1.391 . S
H2456 C2464 0.950 . S
H2457 C2469 0.950 . S
H2458 C2466 0.950 . S
H2459 C2468 0.950 . S
H2460 C2470 0.950 . S
H2461 C2472 0.950 . S
H2462 C2474 0.950 . S
H2463 C2475 0.950 . S
C2464 H2456 0.950 . S
C2464 C2465 1.386 . S
C2464 C2466 1.391 . S
C2465 C2464 1.386 . S
C2465 C2469 1.393 . S
C2466 H2458 0.950 . S
C2466 C2464 1.391 . S
C2466 C2467 1.400 . S
C2467 C2466 1.400 . S
C2467 C2468 1.398 . S
C2467 C2473 1.491 1_655 S
C2468 H2459 0.950 . S
C2468 C2467 1.398 . S
C2468 C2469 1.391 . S
C2469 H2457 0.950 . S
C2469 C2465 1.393 . S
C2469 C2468 1.391 . S
C2470 H2460 0.950 . S
C2470 C2471 1.386 . S
C2470 C2472 1.391 . S
C2471 C2470 1.386 . S
C2471 C2475 1.393 . S
C2472 H2461 0.950 . S
C2472 C2470 1.391 . S
C2472 C2473 1.400 . S
C2473 C2467 1.491 1_455 S
C2473 C2472 1.400 . S
C2473 C2474 1.398 . S
C2474 H2462 0.950 . S
C2474 C2473 1.398 . S
C2474 C2475 1.391 . S
C2475 H2463 0.950 . S
C2475 C2471 1.393 . S
C2475 C2474 1.391 . S
H2476 C2484 0.950 . S
H2477 C2489 0.950 . S
H2478 C2486 0.950 . S
H2479 C2488 0.950 . S
H2480 C2490 0.950 . S
H2481 C2492 0.950 . S
H2482 C2494 0.950 . S
H2483 C2495 0.950 . S
C2484 H2476 0.950 . S
C2484 C2485 1.386 . S
C2484 C2486 1.391 . S
C2485 C2484 1.386 . S
C2485 C2489 1.393 1_655 S
C2486 H2478 0.950 . S
C2486 C2484 1.391 . S
C2486 C2487 1.400 . S
C2487 C2486 1.400 . S
C2487 C2488 1.398 1_655 S
C2487 C2493 1.491 1_655 S
C2488 H2479 0.950 . S
C2488 C2487 1.398 1_455 S
C2488 C2489 1.391 . S
C2489 H2477 0.950 . S
C2489 C2485 1.393 1_455 S
C2489 C2488 1.391 . S
C2490 H2480 0.950 . S
C2490 C2491 1.386 . S
C2490 C2492 1.391 . S
C2491 C2490 1.386 . S
C2491 C2495 1.393 1_455 S
C2492 H2481 0.950 . S
C2492 C2490 1.391 . S
C2492 C2493 1.400 . S
C2493 C2487 1.491 1_455 S
C2493 C2492 1.400 . S
C2493 C2494 1.398 1_455 S
C2494 H2482 0.950 . S
C2494 C2493 1.398 1_655 S
C2494 C2495 1.391 . S
C2495 H2483 0.950 . S
C2495 C2491 1.393 1_655 S
C2495 C2494 1.391 . S
H2496 C2504 0.950 . S
H2497 C2509 0.950 . S
H2498 C2506 0.950 . S
H2499 C2508 0.950 . S
H2500 C2510 0.950 . S
H2501 C2512 0.950 . S
H2502 C2514 0.950 . S
H2503 C2515 0.950 . S
C2504 H2496 0.950 . S
C2504 C2505 1.386 . S
C2504 C2506 1.391 . S
C2505 C2504 1.386 . S
C2505 C2509 1.393 . S
C2506 H2498 0.950 . S
C2506 C2504 1.391 . S
C2506 C2507 1.400 . S
C2507 C2506 1.400 . S
C2507 C2508 1.398 . S
C2507 C2513 1.491 . S
C2508 H2499 0.950 . S
C2508 C2507 1.398 . S
C2508 C2509 1.391 . S
C2509 H2497 0.950 . S
C2509 C2505 1.393 . S
C2509 C2508 1.391 . S
C2510 H2500 0.950 . S
C2510 C2511 1.386 . S
C2510 C2512 1.391 . S
C2511 C2510 1.386 . S
C2511 C2515 1.393 . S
C2512 H2501 0.950 . S
C2512 C2510 1.391 . S
C2512 C2513 1.400 . S
C2513 C2507 1.491 . S
C2513 C2512 1.400 . S
C2513 C2514 1.398 . S
C2514 H2502 0.950 . S
C2514 C2513 1.398 . S
C2514 C2515 1.391 . S
C2515 H2503 0.950 . S
C2515 C2511 1.393 . S
C2515 C2514 1.391 . S
H2516 C2524 0.950 . S
H2517 C2529 0.945 1_655 S
H2518 C2526 0.950 . S
H2519 C2528 0.950 . S
H2520 C2530 0.950 . S
H2521 C2532 0.950 . S
H2522 C2534 0.950 . S
H2523 C2535 0.945 1_455 S
C2524 H2516 0.950 . S
C2524 C2525 1.386 . S
C2524 C2526 1.391 . S
C2525 C2524 1.386 . S
C2525 C2529 1.401 . S
C2526 H2518 0.950 . S
C2526 C2524 1.391 . S
C2526 C2527 1.400 . S
C2527 C2526 1.400 . S
C2527 C2528 1.398 1_455 S
C2527 C2533 1.491 1_455 S
C2528 H2519 0.950 . S
C2528 C2527 1.398 1_655 S
C2528 C2529 1.387 1_655 S
C2529 H2517 0.945 1_455 S
C2529 C2525 1.401 . S
C2529 C2528 1.387 1_455 S
C2530 H2520 0.950 . S
C2530 C2531 1.386 . S
C2530 C2532 1.391 . S
C2531 C2530 1.386 . S
C2531 C2535 1.402 . S
C2532 H2521 0.950 . S
C2532 C2530 1.391 . S
C2532 C2533 1.400 . S
C2533 C2527 1.491 1_655 S
C2533 C2532 1.400 . S
C2533 C2534 1.398 1_655 S
C2534 H2522 0.950 . S
C2534 C2533 1.398 1_455 S
C2534 C2535 1.387 1_455 S
C2535 H2523 0.945 1_655 S
C2535 C2531 1.402 . S
C2535 C2534 1.387 1_655 S
H2536 C2544 0.950 . S
H2537 C2549 0.950 . S
H2538 C2546 0.950 . S
H2539 C2548 0.950 . S
H2540 C2550 0.950 . S
H2541 C2552 0.950 . S
H2542 C2554 0.950 . S
H2543 C2555 0.950 . S
C2544 H2536 0.950 . S
C2544 C2545 1.386 . S
C2544 C2546 1.391 . S
C2545 C2544 1.386 . S
C2545 C2549 1.393 . S
C2546 H2538 0.950 . S
C2546 C2544 1.391 . S
C2546 C2547 1.400 . S
C2547 C2546 1.400 . S
C2547 C2548 1.398 . S
C2547 C2553 1.491 1_655 S
C2548 H2539 0.950 . S
C2548 C2547 1.398 . S
C2548 C2549 1.391 . S
C2549 H2537 0.950 . S
C2549 C2545 1.393 . S
C2549 C2548 1.391 . S
C2550 H2540 0.950 . S
C2550 C2551 1.386 . S
C2550 C2552 1.391 . S
C2551 C2550 1.386 . S
C2551 C2555 1.393 . S
C2552 H2541 0.950 . S
C2552 C2550 1.391 . S
C2552 C2553 1.400 . S
C2553 C2547 1.491 1_455 S
C2553 C2552 1.400 . S
C2553 C2554 1.398 . S
C2554 H2542 0.950 . S
C2554 C2553 1.398 . S
C2554 C2555 1.391 . S
C2555 H2543 0.950 . S
C2555 C2551 1.393 . S
C2555 C2554 1.391 . S
H2556 C2564 0.950 . S
H2557 C2569 0.950 . S
H2558 C2566 0.950 . S
H2559 C2568 0.950 . S
H2560 C2570 0.950 . S
H2561 C2572 0.950 . S
H2562 C2574 0.950 . S
H2563 C2575 0.950 . S
C2564 H2556 0.950 . S
C2564 C2565 1.386 . S
C2564 C2566 1.391 . S
C2565 C2564 1.386 . S
C2565 C2569 1.393 . S
C2566 H2558 0.950 . S
C2566 C2564 1.391 . S
C2566 C2567 1.400 . S
C2567 C2566 1.400 . S
C2567 C2568 1.398 . S
C2567 C2573 1.491 . S
C2568 H2559 0.950 . S
C2568 C2567 1.398 . S
C2568 C2569 1.391 . S
C2569 H2557 0.950 . S
C2569 C2565 1.393 . S
C2569 C2568 1.391 . S
C2570 H2560 0.950 . S
C2570 C2571 1.386 . S
C2570 C2572 1.391 . S
C2571 C2570 1.386 . S
C2571 C2575 1.393 . S
C2572 H2561 0.950 . S
C2572 C2570 1.391 . S
C2572 C2573 1.400 . S
C2573 C2567 1.491 . S
C2573 C2572 1.400 . S
C2573 C2574 1.398 . S
C2574 H2562 0.950 . S
C2574 C2573 1.398 . S
C2574 C2575 1.391 . S
C2575 H2563 0.950 . S
C2575 C2571 1.393 . S
C2575 C2574 1.391 . S
H2576 C2584 0.950 . S
H2577 C2589 0.950 . S
H2578 C2586 0.950 . S
H2579 C2588 0.950 . S
H2580 C2590 0.950 . S
H2581 C2592 0.950 . S
H2582 C2594 0.950 . S
H2583 C2595 0.950 . S
C2584 H2576 0.950 . S
C2584 C2585 1.386 . S
C2584 C2586 1.391 . S
C2585 C2584 1.386 . S
C2585 C2589 1.393 . S
C2586 H2578 0.950 . S
C2586 C2584 1.391 . S
C2586 C2587 1.400 . S
C2587 C2586 1.400 . S
C2587 C2588 1.398 . S
C2587 C2593 1.491 . S
C2588 H2579 0.950 . S
C2588 C2587 1.398 . S
C2588 C2589 1.391 . S
C2589 H2577 0.950 . S
C2589 C2585 1.393 . S
C2589 C2588 1.391 . S
C2590 H2580 0.950 . S
C2590 C2591 1.386 . S
C2590 C2592 1.391 . S
C2591 C2590 1.386 . S
C2591 C2595 1.393 . S
C2592 H2581 0.950 . S
C2592 C2590 1.391 . S
C2592 C2593 1.400 . S
C2593 C2587 1.491 . S
C2593 C2592 1.400 . S
C2593 C2594 1.398 . S
C2594 H2582 0.950 . S
C2594 C2593 1.398 . S
C2594 C2595 1.391 . S
C2595 H2583 0.950 . S
C2595 C2591 1.393 . S
C2595 C2594 1.391 . S
H2596 C2604 0.950 . S
H2597 C2609 0.950 . S
H2598 C2606 0.950 . S
H2599 C2608 0.950 . S
H2600 C2610 0.950 . S
H2601 C2612 0.950 . S
H2602 C2614 0.950 . S
H2603 C2615 0.950 . S
C2604 H2596 0.950 . S
C2604 C2605 1.386 . S
C2604 C2606 1.391 . S
C2605 C2604 1.386 . S
C2605 C2609 1.393 . S
C2606 H2598 0.950 . S
C2606 C2604 1.391 . S
C2606 C2607 1.400 . S
C2607 C2606 1.400 . S
C2607 C2608 1.398 . S
C2607 C2613 1.491 . S
C2608 H2599 0.950 . S
C2608 C2607 1.398 . S
C2608 C2609 1.391 . S
C2609 H2597 0.950 . S
C2609 C2605 1.393 . S
C2609 C2608 1.391 . S
C2610 H2600 0.950 . S
C2610 C2611 1.386 . S
C2610 C2612 1.391 . S
C2611 C2610 1.386 . S
C2611 C2615 1.393 . S
C2612 H2601 0.950 . S
C2612 C2610 1.391 . S
C2612 C2613 1.400 . S
C2613 C2607 1.491 . S
C2613 C2612 1.400 . S
C2613 C2614 1.398 . S
C2614 H2602 0.950 . S
C2614 C2613 1.398 . S
C2614 C2615 1.391 . S
C2615 H2603 0.950 . S
C2615 C2611 1.393 . S
C2615 C2614 1.391 . S
H2616 C2624 0.950 . S
H2617 C2629 0.950 . S
H2618 C2626 0.950 . S
H2619 C2628 0.950 . S
H2620 C2630 0.950 . S
H2621 C2632 0.950 . S
H2622 C2634 0.950 . S
H2623 C2635 0.950 . S
C2624 H2616 0.950 . S
C2624 C2625 1.386 . S
C2624 C2626 1.391 . S
C2625 C2624 1.386 . S
C2625 C2629 1.393 . S
C2626 H2618 0.950 . S
C2626 C2624 1.391 . S
C2626 C2627 1.400 . S
C2627 C2626 1.400 . S
C2627 C2628 1.398 . S
C2627 C2633 1.491 1_455 S
C2628 H2619 0.950 . S
C2628 C2627 1.398 . S
C2628 C2629 1.391 . S
C2629 H2617 0.950 . S
C2629 C2625 1.393 . S
C2629 C2628 1.391 . S
C2630 H2620 0.950 . S
C2630 C2631 1.386 . S
C2630 C2632 1.391 . S
C2631 C2630 1.386 . S
C2631 C2635 1.393 . S
C2632 H2621 0.950 . S
C2632 C2630 1.391 . S
C2632 C2633 1.400 . S
C2633 C2627 1.491 1_655 S
C2633 C2632 1.400 . S
C2633 C2634 1.398 . S
C2634 H2622 0.950 . S
C2634 C2633 1.398 . S
C2634 C2635 1.391 . S
C2635 H2623 0.950 . S
C2635 C2631 1.393 . S
C2635 C2634 1.391 . S
H2636 C2644 0.950 . S
H2637 C2649 0.950 . S
H2638 C2646 0.950 . S
H2639 C2648 0.950 . S
H2640 C2650 0.950 . S
H2641 C2652 0.950 . S
H2642 C2654 0.950 . S
H2643 C2655 0.950 . S
C2644 H2636 0.950 . S
C2644 C2645 1.386 1_655 S
C2644 C2646 1.391 . S
C2645 C2644 1.386 1_455 S
C2645 C2649 1.393 . S
C2646 H2638 0.950 . S
C2646 C2644 1.391 . S
C2646 C2647 1.400 1_655 S
C2647 C2646 1.400 1_455 S
C2647 C2648 1.398 . S
C2647 C2653 1.491 1_455 S
C2648 H2639 0.950 . S
C2648 C2647 1.398 . S
C2648 C2649 1.391 . S
C2649 H2637 0.950 . S
C2649 C2645 1.393 . S
C2649 C2648 1.391 . S
C2650 H2640 0.950 . S
C2650 C2651 1.386 1_455 S
C2650 C2652 1.391 . S
C2651 C2650 1.386 1_655 S
C2651 C2655 1.393 . S
C2652 H2641 0.950 . S
C2652 C2650 1.391 . S
C2652 C2653 1.400 1_455 S
C2653 C2647 1.491 1_655 S
C2653 C2652 1.400 1_655 S
C2653 C2654 1.398 . S
C2654 H2642 0.950 . S
C2654 C2653 1.398 . S
C2654 C2655 1.391 . S
C2655 H2643 0.950 . S
C2655 C2651 1.393 . S
C2655 C2654 1.391 . S
C1065 C28 1.202 . S
C1071 C259 1.189 . S
C1085 C61 1.190 . S
C1091 C160 1.201 . S
C1105 C94 1.200 . S
C1111 C193 1.190 . S
C1125 C127 1.193 . S
C1131 C226 1.199 . S
C1145 C523 1.194 . S
C1151 C292 1.198 . S
C1165 C325 1.189 . S
C1171 C424 1.202 . S
C1185 C457 1.188 . S
C1191 C358 1.202 . S
C1205 C391 1.202 . S
C1211 C490 1.189 . S
C1225 C556 1.193 . S
C1231 C787 1.196 . S
C1245 C688 1.202 . S
C1251 C589 1.188 . S
C1265 C622 1.191 . S
C1271 C721 1.199 . S
C1285 C655 1.201 . S
C1291 C754 1.189 . S
C1305 C820 1.195 . S
C1311 C1051 1.194 . S
C1325 C853 1.197 . S
C1331 C952 1.192 . S
C1345 C985 1.189 . S
C1351 C886 1.201 . S
C1365 C1018 1.188 . S
C1371 C919 1.202 . S
C1385 C215 1.596 . S
C1391 C17 1.594 . S
C1405 C50 1.583 . S
C1411 C248 1.588 . S
C1425 C83 1.581 . S
C1431 C149 1.578 . S
C1445 C116 1.576 . S
C1451 C182 1.575 . S
C1465 C281 1.592 . S
C1471 C479 1.587 . S
C1485 C512 1.594 . S
C1491 C314 1.597 . S
C1505 C413 1.578 . S
C1511 C347 1.576 . S
C1525 C446 1.575 . S
C1531 C380 1.576 . S
C1545 C545 1.590 . S
C1551 C743 1.585 . S
C1565 C776 1.597 . S
C1571 C578 1.597 . S
C1585 C677 1.592 . S
C1591 C611 1.595 . S
C1605 C644 1.578 . S
C1611 C710 1.576 . S
C1625 C1007 1.581 . S
C1631 C809 1.578 . S
C1645 C842 1.582 . S
C1651 C1040 1.586 . S
C1665 C941 1.579 . S
C1671 C875 1.576 . S
C1685 C974 1.576 . S
C1691 C908 1.579 . S
C1705 N938 1.181 . S
C1711 N5 1.223 . S
C1725 N443 1.171 . S
C1731 N38 1.222 . S
C1745 N1004 1.154 . S
C1751 N71 1.228 . S
C1765 N104 1.229 . S
C1771 N509 1.183 . S
C1785 N806 1.180 . S
C1791 N137 1.223 . S
C1805 N311 1.176 . S
C1811 N170 1.222 . S
C1825 N872 1.162 . S
C1831 N203 1.230 . S
C1845 N236 1.223 . S
C1851 N377 1.150 . S
C1865 N269 1.228 . S
C1871 N674 1.186 . S
C1885 N302 1.222 . S
C1891 N179 1.173 . S
C1905 N335 1.226 . S
C1911 N740 1.187 . S
C1925 N245 1.166 . S
C1931 N368 1.230 . S
C1945 N542 1.154 . S
C1951 N401 1.222 . S
C1965 N434 1.228 . S
C1971 N47 1.186 . S
C1985 N467 1.224 . S
C1991 N608 1.183 . S
C2005 N500 1.223 . S
C2011 N113 1.181 . S
C2025 N410 1.178 . S
C2031 N533 1.230 . S
C2045 N566 1.223 . S
C2051 N971 1.151 . S
C2065 N476 1.164 . S
C2071 N599 1.230 . S
C2085 N632 1.229 . S
C2091 N1037 1.185 . S
C2105 N665 1.223 . S
C2111 N278 1.151 . S
C2125 N698 1.230 . S
C2131 N839 1.177 . S
C2145 N344 1.150 . S
C2151 N731 1.224 . S
C2165 N764 1.222 . S
C2171 N905 1.168 . S
C2185 N146 1.181 . S
C2191 N797 1.230 . S
C2205 N707 1.155 . S
C2211 N830 1.228 . S
C2225 N212 1.186 . S
C2231 N863 1.228 . S
C2245 N773 1.180 . S
C2251 N896 1.230 . S
C2265 N14 1.177 . S
C2271 N929 1.222 . S
C2285 N575 1.172 . S
C2291 N962 1.230 . S
C2305 N995 1.222 . S
C2311 N80 1.168 . S
C2325 N641 1.173 . S
C2331 N1028 1.230 . S
C2345 C602 1.830 . S
C2351 C8 1.826 . S
C2365 C635 1.822 . S
C2371 C41 1.831 . S
C2385 C74 1.830 . S
C2391 C536 1.826 . S
C2405 C107 1.827 . S
C2411 C569 1.829 . S
C2425 C734 1.827 . S
C2431 C140 1.829 . S
C2445 C173 1.827 . S
C2451 C767 1.824 . S
C2465 C668 1.830 . S
C2471 C206 1.822 . S
C2485 C701 1.822 . S
C2491 C239 1.831 . S
C2505 C866 1.823 . S
C2511 C272 1.832 . S
C2525 C899 1.829 . S
C2531 C305 1.823 . S
C2545 C338 1.826 . S
C2551 C800 1.830 . S
C2565 C371 1.830 . S
C2571 C833 1.827 . S
C2585 C404 1.831 . S
C2591 C998 1.822 . S
C2605 C437 1.827 . S
C2611 C1031 1.824 . S
C2625 C932 1.828 . S
C2631 C470 1.823 . S
C2645 C965 1.823 . S
C2651 C503 1.832 . S
