# Generated by pormake.
# Topology uke, (4)-cn, num edge types: 1
# Building blocks:
#     Node 0, Type 0, BuildingBlock: NAHDIM_clean_sbu_0, # of connection points: 4
#     Node 1, Type 0, BuildingBlock: NAHDIM_clean_sbu_0, # of connection points: 4
#     Node 2, Type 0, BuildingBlock: NAHDIM_clean_sbu_0, # of connection points: 4
#     Node 3, Type 0, BuildingBlock: NAHDIM_clean_sbu_0, # of connection points: 4
#     Node 4, Type 0, BuildingBlock: NAHDIM_clean_sbu_0, # of connection points: 4
#     Node 5, Type 0, BuildingBlock: NAHDIM_clean_sbu_0, # of connection points: 4
#     Node 6, Type 0, BuildingBlock: NAHDIM_clean_sbu_0, # of connection points: 4
#     Node 7, Type 0, BuildingBlock: NAHDIM_clean_sbu_0, # of connection points: 4
#     Node 8, Type 0, BuildingBlock: NAHDIM_clean_sbu_0, # of connection points: 4
#     Node 9, Type 0, BuildingBlock: NAHDIM_clean_sbu_0, # of connection points: 4
#     Node 10, Type 0, BuildingBlock: NAHDIM_clean_sbu_0, # of connection points: 4
#     Node 11, Type 0, BuildingBlock: NAHDIM_clean_sbu_0, # of connection points: 4
#     Node 12, Type 0, BuildingBlock: NAHDIM_clean_sbu_0, # of connection points: 4
#     Node 13, Type 0, BuildingBlock: NAHDIM_clean_sbu_0, # of connection points: 4
#     Node 14, Type 0, BuildingBlock: NAHDIM_clean_sbu_0, # of connection points: 4
#     Node 15, Type 0, BuildingBlock: NAHDIM_clean_sbu_0, # of connection points: 4
#     Node 16, Type 0, BuildingBlock: NAHDIM_clean_sbu_0, # of connection points: 4
#     Node 17, Type 0, BuildingBlock: NAHDIM_clean_sbu_0, # of connection points: 4
#     Node 18, Type 0, BuildingBlock: NAHDIM_clean_sbu_0, # of connection points: 4
#     Node 19, Type 0, BuildingBlock: NAHDIM_clean_sbu_0, # of connection points: 4
#     Node 20, Type 0, BuildingBlock: NAHDIM_clean_sbu_0, # of connection points: 4
#     Node 21, Type 0, BuildingBlock: NAHDIM_clean_sbu_0, # of connection points: 4
#     Node 22, Type 0, BuildingBlock: NAHDIM_clean_sbu_0, # of connection points: 4
#     Node 23, Type 0, BuildingBlock: NAHDIM_clean_sbu_0, # of connection points: 4
#     Node 24, Type 0, BuildingBlock: NAHDIM_clean_sbu_0, # of connection points: 4
#     Node 25, Type 0, BuildingBlock: NAHDIM_clean_sbu_0, # of connection points: 4
#     Node 26, Type 0, BuildingBlock: NAHDIM_clean_sbu_0, # of connection points: 4
#     Node 27, Type 0, BuildingBlock: NAHDIM_clean_sbu_0, # of connection points: 4
#     Node 28, Type 0, BuildingBlock: NAHDIM_clean_sbu_0, # of connection points: 4
#     Node 29, Type 0, BuildingBlock: NAHDIM_clean_sbu_0, # of connection points: 4
#     Node 30, Type 0, BuildingBlock: NAHDIM_clean_sbu_0, # of connection points: 4
#     Node 31, Type 0, BuildingBlock: NAHDIM_clean_sbu_0, # of connection points: 4
#     Edge 32, Type (0, 0), BuildingBlock: AJUNOK_clean_linker_0, # of connection points: 2
#     Edge 33, Type (0, 0), BuildingBlock: AJUNOK_clean_linker_0, # of connection points: 2
#     Edge 34, Type (0, 0), BuildingBlock: AJUNOK_clean_linker_0, # of connection points: 2
#     Edge 35, Type (0, 0), BuildingBlock: AJUNOK_clean_linker_0, # of connection points: 2
#     Edge 36, Type (0, 0), BuildingBlock: AJUNOK_clean_linker_0, # of connection points: 2
#     Edge 37, Type (0, 0), BuildingBlock: AJUNOK_clean_linker_0, # of connection points: 2
#     Edge 38, Type (0, 0), BuildingBlock: AJUNOK_clean_linker_0, # of connection points: 2
#     Edge 39, Type (0, 0), BuildingBlock: AJUNOK_clean_linker_0, # of connection points: 2
#     Edge 40, Type (0, 0), BuildingBlock: AJUNOK_clean_linker_0, # of connection points: 2
#     Edge 41, Type (0, 0), BuildingBlock: AJUNOK_clean_linker_0, # of connection points: 2
#     Edge 42, Type (0, 0), BuildingBlock: AJUNOK_clean_linker_0, # of connection points: 2
#     Edge 43, Type (0, 0), BuildingBlock: AJUNOK_clean_linker_0, # of connection points: 2
#     Edge 44, Type (0, 0), BuildingBlock: AJUNOK_clean_linker_0, # of connection points: 2
#     Edge 45, Type (0, 0), BuildingBlock: AJUNOK_clean_linker_0, # of connection points: 2
#     Edge 46, Type (0, 0), BuildingBlock: AJUNOK_clean_linker_0, # of connection points: 2
#     Edge 47, Type (0, 0), BuildingBlock: AJUNOK_clean_linker_0, # of connection points: 2
#     Edge 48, Type (0, 0), BuildingBlock: AJUNOK_clean_linker_0, # of connection points: 2
#     Edge 49, Type (0, 0), BuildingBlock: AJUNOK_clean_linker_0, # of connection points: 2
#     Edge 50, Type (0, 0), BuildingBlock: AJUNOK_clean_linker_0, # of connection points: 2
#     Edge 51, Type (0, 0), BuildingBlock: AJUNOK_clean_linker_0, # of connection points: 2
#     Edge 52, Type (0, 0), BuildingBlock: AJUNOK_clean_linker_0, # of connection points: 2
#     Edge 53, Type (0, 0), BuildingBlock: AJUNOK_clean_linker_0, # of connection points: 2
#     Edge 54, Type (0, 0), BuildingBlock: AJUNOK_clean_linker_0, # of connection points: 2
#     Edge 55, Type (0, 0), BuildingBlock: AJUNOK_clean_linker_0, # of connection points: 2
#     Edge 56, Type (0, 0), BuildingBlock: AJUNOK_clean_linker_0, # of connection points: 2
#     Edge 57, Type (0, 0), BuildingBlock: AJUNOK_clean_linker_0, # of connection points: 2
#     Edge 58, Type (0, 0), BuildingBlock: AJUNOK_clean_linker_0, # of connection points: 2
#     Edge 59, Type (0, 0), BuildingBlock: AJUNOK_clean_linker_0, # of connection points: 2
#     Edge 60, Type (0, 0), BuildingBlock: AJUNOK_clean_linker_0, # of connection points: 2
#     Edge 61, Type (0, 0), BuildingBlock: AJUNOK_clean_linker_0, # of connection points: 2
#     Edge 62, Type (0, 0), BuildingBlock: AJUNOK_clean_linker_0, # of connection points: 2
#     Edge 63, Type (0, 0), BuildingBlock: AJUNOK_clean_linker_0, # of connection points: 2
#     Edge 64, Type (0, 0), BuildingBlock: AJUNOK_clean_linker_0, # of connection points: 2
#     Edge 65, Type (0, 0), BuildingBlock: AJUNOK_clean_linker_0, # of connection points: 2
#     Edge 66, Type (0, 0), BuildingBlock: AJUNOK_clean_linker_0, # of connection points: 2
#     Edge 67, Type (0, 0), BuildingBlock: AJUNOK_clean_linker_0, # of connection points: 2
#     Edge 68, Type (0, 0), BuildingBlock: AJUNOK_clean_linker_0, # of connection points: 2
#     Edge 69, Type (0, 0), BuildingBlock: AJUNOK_clean_linker_0, # of connection points: 2
#     Edge 70, Type (0, 0), BuildingBlock: AJUNOK_clean_linker_0, # of connection points: 2
#     Edge 71, Type (0, 0), BuildingBlock: AJUNOK_clean_linker_0, # of connection points: 2
#     Edge 72, Type (0, 0), BuildingBlock: AJUNOK_clean_linker_0, # of connection points: 2
#     Edge 73, Type (0, 0), BuildingBlock: AJUNOK_clean_linker_0, # of connection points: 2
#     Edge 74, Type (0, 0), BuildingBlock: AJUNOK_clean_linker_0, # of connection points: 2
#     Edge 75, Type (0, 0), BuildingBlock: AJUNOK_clean_linker_0, # of connection points: 2
#     Edge 76, Type (0, 0), BuildingBlock: AJUNOK_clean_linker_0, # of connection points: 2
#     Edge 77, Type (0, 0), BuildingBlock: AJUNOK_clean_linker_0, # of connection points: 2
#     Edge 78, Type (0, 0), BuildingBlock: AJUNOK_clean_linker_0, # of connection points: 2
#     Edge 79, Type (0, 0), BuildingBlock: AJUNOK_clean_linker_0, # of connection points: 2
#     Edge 80, Type (0, 0), BuildingBlock: AJUNOK_clean_linker_0, # of connection points: 2
#     Edge 81, Type (0, 0), BuildingBlock: AJUNOK_clean_linker_0, # of connection points: 2
#     Edge 82, Type (0, 0), BuildingBlock: AJUNOK_clean_linker_0, # of connection points: 2
#     Edge 83, Type (0, 0), BuildingBlock: AJUNOK_clean_linker_0, # of connection points: 2
#     Edge 84, Type (0, 0), BuildingBlock: AJUNOK_clean_linker_0, # of connection points: 2
#     Edge 85, Type (0, 0), BuildingBlock: AJUNOK_clean_linker_0, # of connection points: 2
#     Edge 86, Type (0, 0), BuildingBlock: AJUNOK_clean_linker_0, # of connection points: 2
#     Edge 87, Type (0, 0), BuildingBlock: AJUNOK_clean_linker_0, # of connection points: 2
#     Edge 88, Type (0, 0), BuildingBlock: AJUNOK_clean_linker_0, # of connection points: 2
#     Edge 89, Type (0, 0), BuildingBlock: AJUNOK_clean_linker_0, # of connection points: 2
#     Edge 90, Type (0, 0), BuildingBlock: AJUNOK_clean_linker_0, # of connection points: 2
#     Edge 91, Type (0, 0), BuildingBlock: AJUNOK_clean_linker_0, # of connection points: 2
#     Edge 92, Type (0, 0), BuildingBlock: AJUNOK_clean_linker_0, # of connection points: 2
#     Edge 93, Type (0, 0), BuildingBlock: AJUNOK_clean_linker_0, # of connection points: 2
#     Edge 94, Type (0, 0), BuildingBlock: AJUNOK_clean_linker_0, # of connection points: 2
#     Edge 95, Type (0, 0), BuildingBlock: AJUNOK_clean_linker_0, # of connection points: 2
# Relax obj value: 0.226
# Max RMSD: 0.243
# Mean RMSD: 0.243
data_MOF--net-uke--node1-NAHDIM_clean_sbu_0--edge1-AJUNOK_clean_linker_0
_symmetry_space_group_name_H-M    P1
_symmetry_Int_Tables_number       1
_symmetry_cell_setting            triclinic
loop_
_symmetry_equiv_pos_as_xyz
'x, y, z'
_cell_length_a     19.66987
_cell_length_b     72.968701
_cell_length_c     36.843255
_cell_angle_alpha  89.853958
_cell_angle_beta   89.957257
_cell_angle_gamma 89.925407
loop_
_atom_site_label
_atom_site_type_symbol
_atom_site_fract_x
_atom_site_fract_y
_atom_site_fract_z
_atom_type_partial_charge
C0 C 0.03507 0.04266 0.32895 0.0
O1 O 0.09339 0.04172 0.34622 0.0
O2 O 0.18081 0.0217 0.28031 0.0
Zn3 Zn 0.12846 0.04506 0.27187 0.0
O4 O 0.17109 0.06775 0.29312 0.0
C5 C 0.13206 0.03785 0.19333 0.0
O6 O 0.13551 0.02046 0.20242 0.0
O7 O 0.03581 0.04341 0.29447 0.0
C8 C 0.20871 0.07763 0.27299 0.0
O9 O 0.22944 0.07092 0.24187 0.0
C10 C 0.23624 0.01917 0.26332 0.0
O11 O 0.26168 0.03273 0.24414 0.0
O12 O 0.12339 0.04979 0.21794 0.0
C13 C 0.21087 0.21116 0.32095 0.0
O14 O 0.14913 0.20882 0.33374 0.0
O15 O 0.06072 0.19989 0.2719 0.0
Zn16 Zn 0.15576 0.19237 0.25877 0.0
O17 O 0.17268 0.16533 0.26306 0.0
C18 C 0.15654 0.18786 0.18147 0.0
O19 O 0.15786 0.17047 0.19068 0.0
O20 O 0.22441 0.20568 0.28903 0.0
C21 C 0.18188 0.15603 0.29182 0.0
O22 O 0.17567 0.16393 0.32364 0.0
C23 C 0.01497 0.19619 0.2487 0.0
O24 O 0.02828 0.18419 0.22318 0.0
O25 O 0.16249 0.19989 0.20615 0.0
C26 C 0.01201 0.20497 0.89732 0.0
O27 O 0.07318 0.20359 0.88325 0.0
O28 O 0.15002 0.21961 0.96151 0.0
Zn29 Zn 0.08846 0.19785 0.96045 0.0
O30 O 0.13037 0.1746 0.94179 0.0
C31 C 0.06197 0.20538 0.03581 0.0
O32 O 0.05507 0.22233 0.02427 0.0
O33 O 0.00527 0.20364 0.93152 0.0
C34 C 0.08678 0.16196 0.93723 0.0
O35 O 0.02213 0.16588 0.94181 0.0
C36 C 0.19349 0.2203 0.98697 0.0
O37 O 0.20757 0.2052 0.00498 0.0
O38 O 0.06741 0.19261 0.01261 0.0
C39 C 0.26758 0.04284 0.90424 0.0
O40 O 0.21144 0.05108 0.89381 0.0
O41 O 0.12043 0.03838 0.97095 0.0
Zn42 Zn 0.20881 0.05199 0.97173 0.0
O43 O 0.1966 0.07856 0.95873 0.0
C44 C 0.19221 0.05902 0.04469 0.0
O45 O 0.14879 0.07031 0.02931 0.0
O46 O 0.27853 0.04094 0.93806 0.0
C47 C 0.14629 0.08431 0.94038 0.0
O48 O 0.10029 0.07253 0.92939 0.0
C49 C 0.10887 0.02362 0.95399 0.0
O50 O 0.15352 0.0174 0.93056 0.0
O51 O 0.23233 0.04984 0.0246 0.0
C52 C 0.02267 0.94181 0.62447 0.0
O53 O 0.96593 0.93769 0.60758 0.0
O54 O 0.86454 0.95237 0.67111 0.0
Zn55 Zn 0.93752 0.93428 0.68483 0.0
O56 O 0.91418 0.90779 0.67582 0.0
C57 C 0.91866 0.92665 0.76117 0.0
O58 O 0.90185 0.91028 0.74949 0.0
O59 O 0.02376 0.9412 0.65896 0.0
C60 C 0.85824 0.90169 0.66365 0.0
O61 O 0.81198 0.91335 0.65228 0.0
C62 C 0.81312 0.95304 0.69199 0.0
O63 O 0.80364 0.93967 0.71536 0.0
O64 O 0.94399 0.93814 0.73896 0.0
C65 C 0.7065 0.78112 0.69346 0.0
O66 O 0.76125 0.77904 0.67344 0.0
O67 O 0.87241 0.77178 0.72856 0.0
Zn68 Zn 0.80938 0.79246 0.74126 0.0
O69 O 0.83621 0.81601 0.7157 0.0
C70 C 0.82799 0.78184 0.81569 0.0
O71 O 0.81555 0.76559 0.80193 0.0
O72 O 0.71378 0.78602 0.72634 0.0
C73 C 0.79032 0.82705 0.70479 0.0
O74 O 0.72627 0.82287 0.71036 0.0
C75 C 0.9304 0.77234 0.74364 0.0
O76 O 0.94839 0.78726 0.76104 0.0
O77 O 0.82126 0.79588 0.79544 0.0
C78 C 0.01231 0.79466 0.09323 0.0
O79 O 0.94872 0.79829 0.10143 0.0
O80 O 0.87192 0.79179 0.03975 0.0
Zn81 Zn 0.95688 0.80532 0.02683 0.0
O82 O 0.94364 0.83235 0.03182 0.0
C83 C 0.95089 0.78526 0.95972 0.0
O84 O 0.93943 0.77138 0.98167 0.0
O85 O 0.03161 0.79673 0.06047 0.0
C86 C 0.98912 0.84259 0.01806 0.0
O87 O 0.04326 0.83491 0.00375 0.0
C88 C 0.82083 0.79224 0.01873 0.0
O89 O 0.82042 0.8039 0.99151 0.0
O90 O 0.96973 0.80044 0.9733 0.0
C91 C 0.72423 0.94645 0.03857 0.0
O92 O 0.78695 0.94714 0.0507 0.0
O93 O 0.85872 0.96676 0.97746 0.0
Zn94 Zn 0.80336 0.94374 0.97705 0.0
O95 O 0.85468 0.92313 0.00015 0.0
C96 C 0.80548 0.94894 0.90031 0.0
O97 O 0.80515 0.96623 0.91008 0.0
O98 O 0.7149 0.94592 0.00444 0.0
C99 C 0.9108 0.91757 0.9872 0.0
O100 O 0.93786 0.92651 0.95978 0.0
C101 C 0.9059 0.97111 -0.00081 0.0
O102 O 0.91896 0.96066 0.02741 0.0
O103 O 0.79575 0.93671 0.92442 0.0
C104 C 0.95832 0.53783 0.83211 0.0
O105 O 0.02426 0.53806 0.83774 0.0
O106 O 0.08121 0.52821 0.76546 0.0
Zn107 Zn 0.01184 0.54852 0.76614 0.0
O108 O 0.04774 0.57267 0.78371 0.0
C109 C 0.98387 0.53941 0.6916 0.0
O110 O 0.98024 0.52265 0.70461 0.0
O111 O 0.93659 0.5415 0.80036 0.0
C112 C 0.10884 0.57822 0.78327 0.0
O113 O 0.15707 0.56714 0.77204 0.0
C114 C 0.12326 0.52719 0.73933 0.0
O115 O 0.12767 0.54092 0.71634 0.0
O116 O 0.98559 0.55268 0.71386 0.0
C117 C 0.29014 0.69619 0.82895 0.0
O118 O 0.22817 0.6925 0.84009 0.0
O119 O 0.14404 0.70582 0.77493 0.0
Zn120 Zn 0.22334 0.68963 0.76294 0.0
O121 O 0.20255 0.66298 0.7703 0.0
C122 C 0.2275 0.70878 0.6948 0.0
O123 O 0.21415 0.72294 0.71559 0.0
O124 O 0.30217 0.69623 0.79502 0.0
C125 C 0.15643 0.65663 0.79091 0.0
O126 O 0.11771 0.66804 0.80915 0.0
C127 C 0.09275 0.70606 0.75399 0.0
O128 O 0.08887 0.69381 0.72799 0.0
O129 O 0.24092 0.69341 0.7095 0.0
C130 C 0.02734 0.71905 0.41329 0.0
O131 O 0.08462 0.71784 0.39508 0.0
O132 O 0.17786 0.73954 0.47118 0.0
Zn133 Zn 0.12143 0.71663 0.4723 0.0
O134 O 0.16362 0.69325 0.45333 0.0
C135 C 0.17166 0.70867 0.54011 0.0
O136 O 0.22325 0.70529 0.51847 0.0
O137 O 0.0299 0.71978 0.44777 0.0
C138 C 0.12022 0.68032 0.45407 0.0
O139 O 0.05802 0.68402 0.4648 0.0
C140 C 0.14256 0.75337 0.48055 0.0
O141 O 0.07606 0.75213 0.47877 0.0
O142 O 0.11458 0.71311 0.52633 0.0
C143 C 0.24646 0.55328 0.4351 0.0
O144 O 0.19423 0.5561 0.41356 0.0
O145 O 0.07903 0.54985 0.46003 0.0
Zn146 Zn 0.14752 0.56617 0.48321 0.0
O147 O 0.1349 0.59214 0.46636 0.0
C148 C 0.11223 0.54862 0.55002 0.0
O149 O 0.12024 0.53406 0.52954 0.0
O150 O 0.23992 0.55681 0.46871 0.0
C151 C 0.18409 0.60328 0.46277 0.0
O152 O 0.24608 0.59771 0.47022 0.0
C153 C 0.01825 0.54976 0.47159 0.0
O154 O -0.00098 0.56246 0.49469 0.0
O155 O 0.12761 0.56425 0.53698 0.0
C156 C 0.99223 0.46033 0.13607 0.0
O157 O 0.93166 0.45427 0.12712 0.0
O158 O 0.8594 0.45407 0.19874 0.0
Zn159 Zn 0.95344 0.44358 0.20242 0.0
O160 O 0.95946 0.41627 0.19477 0.0
C161 C 0.96346 0.43675 0.27819 0.0
O162 O 0.96247 0.41966 0.26718 0.0
O163 O 0.01439 0.45724 0.16792 0.0
C164 C 0.92923 0.40618 0.17188 0.0
O165 O 0.88803 0.41374 0.14812 0.0
C166 C 0.81969 0.45105 0.22537 0.0
O167 O 0.82648 0.43561 0.24339 0.0
O168 O 0.97391 0.44928 0.25478 0.0
C169 C 0.73663 0.29665 0.17009 0.0
O170 O 0.79162 0.29365 0.15073 0.0
O171 O 0.8739 0.27134 0.20522 0.0
Zn172 Zn 0.8418 0.29662 0.21837 0.0
O173 O 0.88596 0.31768 0.1914 0.0
C174 C 0.91556 0.2912 0.28353 0.0
O175 O 0.95647 0.28354 0.25981 0.0
O176 O 0.74303 0.29825 0.20432 0.0
C177 C 0.92773 0.32863 0.20617 0.0
O178 O 0.95244 0.32448 0.23825 0.0
C179 C 0.84556 0.25927 0.2251 0.0
O180 O 0.79541 0.26426 0.24648 0.0
O181 O 0.86087 0.29879 0.27242 0.0
C182 C 0.02127 0.30052 0.57306 0.0
O183 O 0.9585 0.30468 0.58209 0.0
O184 O 0.87981 0.29676 0.5152 0.0
Zn185 Zn 0.96565 0.31074 0.50605 0.0
O186 O 0.95509 0.33771 0.51309 0.0
C187 C 0.98343 0.29238 0.43678 0.0
O188 O 0.97803 0.27722 0.45585 0.0
O189 O 0.03845 0.30162 0.53982 0.0
C190 C 0.91451 0.3464 0.53358 0.0
O191 O 0.87104 0.33728 0.55378 0.0
C192 C 0.83245 0.29672 0.49177 0.0
O193 O 0.83727 0.30758 0.46339 0.0
O194 O 0.98567 0.30769 0.45303 0.0
C195 C 0.68786 0.46027 0.53323 0.0
O196 O 0.74609 0.46488 0.54809 0.0
O197 O 0.83259 0.47622 0.48831 0.0
Zn198 Zn 0.78381 0.45217 0.48253 0.0
O199 O 0.82543 0.43176 0.51201 0.0
C200 C 0.80148 0.45601 0.40479 0.0
O201 O 0.7875 0.47337 0.41063 0.0
O202 O 0.68824 0.45458 0.50066 0.0
C203 C 0.87582 0.42287 0.49958 0.0
O204 O 0.90426 0.42838 0.46923 0.0
C205 C 0.88851 0.47879 0.47182 0.0
O206 O 0.91704 0.46506 0.45462 0.0
O207 O 0.7932 0.44456 0.43042 0.0
C208 C 0.47391 0.02946 0.79458 0.0
O209 O 0.53763 0.02718 0.80423 0.0
O210 O 0.61599 0.0206 0.73689 0.0
Zn211 Zn 0.54165 0.03911 0.73004 0.0
O212 O 0.56976 0.06485 0.74052 0.0
C213 C 0.53934 0.02676 0.65556 0.0
O214 O 0.5473 0.01033 0.66961 0.0
O215 O 0.46104 0.03368 0.76176 0.0
C216 C 0.59653 0.07269 0.76769 0.0
O217 O 0.61506 0.06296 0.79605 0.0
C218 C 0.66686 0.02127 0.71564 0.0
O219 O 0.67456 0.03574 0.69473 0.0
O220 O 0.52288 0.03989 0.67641 0.0
C221 C 0.76662 0.1986 0.81106 0.0
O222 O 0.7084 0.19792 0.82853 0.0
O223 O 0.60782 0.20579 0.77541 0.0
Zn224 Zn 0.67635 0.18737 0.75812 0.0
O225 O 0.65644 0.16169 0.7753 0.0
C226 C 0.65604 0.20164 0.68569 0.0
O227 O 0.65508 0.21753 0.7024 0.0
O228 O 0.76736 0.19466 0.77749 0.0
C229 C 0.61691 0.152 0.75606 0.0
O230 O 0.5869 0.15962 0.72801 0.0
C231 C 0.54958 0.20717 0.76085 0.0
O232 O 0.53094 0.19491 0.7368 0.0
O233 O 0.67158 0.18735 0.70361 0.0
C234 C 0.4424 0.22446 0.41409 0.0
O235 O 0.50309 0.22512 0.39918 0.0
O236 O 0.5949 0.23512 0.46549 0.0
Zn237 Zn 0.52642 0.21472 0.47197 0.0
O238 O 0.55725 0.1907 0.45027 0.0
C239 C 0.53482 0.19678 0.54182 0.0
O240 O 0.54442 0.18211 0.52194 0.0
O241 O 0.43809 0.22105 0.44784 0.0
C242 C 0.61809 0.18491 0.44839 0.0
O243 O 0.6678 0.19573 0.45851 0.0
C244 C 0.64071 0.23624 0.48977 0.0
O245 O 0.64514 0.22322 0.51427 0.0
O246 O 0.51707 0.21162 0.52629 0.0
C247 C 0.78453 0.05936 0.40639 0.0
O248 O 0.72943 0.06313 0.38764 0.0
O249 O 0.61842 0.0564 0.4434 0.0
Zn250 Zn 0.69709 0.07051 0.46362 0.0
O251 O 0.6893 0.09785 0.45744 0.0
C252 C 0.68549 0.0468 0.52371 0.0
O253 O 0.69682 0.03487 0.49774 0.0
O254 O 0.78336 0.06152 0.4406 0.0
C255 C 0.64687 0.10591 0.4369 0.0
O256 O 0.60301 0.09612 0.41837 0.0
C257 C 0.56706 0.05528 0.46429 0.0
O258 O 0.55797 0.06829 0.48841 0.0
O259 O 0.6926 0.06377 0.51657 0.0
C260 C 0.51062 0.934 0.14542 0.0
O261 O 0.44591 0.93716 0.13919 0.0
O262 O 0.38845 0.94386 0.21515 0.0
Zn263 Zn 0.46474 0.92548 0.21867 0.0
O264 O 0.43117 0.89919 0.22464 0.0
C265 C 0.50663 0.94747 0.2795 0.0
O266 O 0.48777 0.96139 0.2592 0.0
O267 O 0.52898 0.92854 0.17673 0.0
C268 C 0.42506 0.89338 0.25714 0.0
O269 O 0.43597 0.90477 0.28394 0.0
C270 C 0.34878 0.94624 0.24204 0.0
O271 O 0.35061 0.93443 0.26895 0.0
O272 O 0.51336 0.93183 0.2649 0.0
C273 C 0.20552 0.78317 0.2105 0.0
O274 O 0.27066 0.78537 0.20388 0.0
O275 O 0.32029 0.76471 0.28667 0.0
Zn276 Zn 0.25673 0.78633 0.28182 0.0
O277 O 0.30891 0.80919 0.26767 0.0
C278 C 0.21854 0.77848 0.35577 0.0
O279 O 0.22707 0.76137 0.34579 0.0
O280 O 0.18579 0.78233 0.24336 0.0
C281 C 0.3284 0.82021 0.29221 0.0
O282 O 0.3161 0.81617 0.32631 0.0
C283 C 0.36675 0.76554 0.31064 0.0
O284 O 0.37392 0.7807 0.32935 0.0
O285 O 0.21724 0.79091 0.33157 0.0
C286 C 0.4465 0.79388 0.62367 0.0
O287 O 0.39504 0.79967 0.6433 0.0
O288 O 0.28434 0.80985 0.59856 0.0
Zn289 Zn 0.36643 0.80923 0.56533 0.0
O290 O 0.39608 0.83531 0.55699 0.0
C291 C 0.30453 0.80707 0.49534 0.0
O292 O 0.28331 0.82342 0.50508 0.0
O293 O 0.44428 0.79588 0.58939 0.0
C294 C 0.40702 0.84607 0.58342 0.0
O295 O 0.39904 0.83994 0.61671 0.0
C296 C 0.226 0.80275 0.59389 0.0
O297 O 0.17782 0.80601 0.61771 0.0
O298 O 0.34293 0.79817 0.51685 0.0
C299 C 0.27306 0.96021 0.5483 0.0
O300 O 0.3204 0.96942 0.56554 0.0
O301 O 0.42899 0.97687 0.51318 0.0
Zn302 Zn 0.38551 0.95263 0.50146 0.0
O303 O 0.42969 0.92994 0.52242 0.0
C304 C 0.43942 0.94178 0.43239 0.0
O305 O 0.47744 0.93131 0.45314 0.0
O306 O 0.28812 0.95246 0.51848 0.0
C307 C 0.4204 0.92409 0.55453 0.0
O308 O 0.38937 0.93471 0.57804 0.0
C309 C 0.48371 0.98062 0.49643 0.0
O310 O 0.51594 0.96739 0.47951 0.0
O311 O 0.3921 0.95119 0.44681 0.0
C312 C 0.50623 0.53489 0.36889 0.0
O313 O 0.56279 0.53606 0.38768 0.0
O314 O 0.66132 0.51508 0.31779 0.0
Zn315 Zn 0.60344 0.53792 0.31364 0.0
O316 O 0.63689 0.56127 0.33696 0.0
C317 C 0.6097 0.53231 0.23525 0.0
O318 O 0.61138 0.51476 0.24323 0.0
O319 O 0.5102 0.53415 0.33446 0.0
C320 C 0.6715 0.57278 0.31876 0.0
O321 O 0.70012 0.56758 0.28829 0.0
C322 C 0.71776 0.51547 0.30101 0.0
O323 O 0.74158 0.53144 0.29059 0.0
O324 O 0.59997 0.5439 0.2604 0.0
C325 C 0.76779 0.7019 0.34536 0.0
O326 O 0.7163 0.69838 0.36703 0.0
O327 O 0.59936 0.70534 0.32062 0.0
Zn328 Zn 0.66902 0.68847 0.29797 0.0
O329 O 0.66966 0.66236 0.31639 0.0
C330 C 0.59361 0.69218 0.23082 0.0
O331 O 0.54404 0.69551 0.25367 0.0
O332 O 0.76064 0.69892 0.31156 0.0
C333 C 0.6234 0.65052 0.31135 0.0
O334 O 0.5678 0.65519 0.29391 0.0
C335 C 0.539 0.70213 0.33109 0.0
O336 O 0.51583 0.68527 0.33074 0.0
O337 O 0.65283 0.68865 0.24311 0.0
C338 C 0.506 0.70145 0.9366 0.0
O339 O 0.56958 0.70406 0.92696 0.0
O340 O 0.62951 0.7193 0.99656 0.0
Zn341 Zn 0.57786 0.6956 5e-05 0.0
O342 O 0.63099 0.67449 0.98003 0.0
C343 C 0.53822 0.70036 0.07643 0.0
O344 O 0.51232 0.71607 0.0657 0.0
O345 O 0.49339 0.69769 0.96968 0.0
C346 C 0.67914 0.66771 0.99864 0.0
O347 O 0.69846 0.67619 0.02828 0.0
C348 C 0.66655 0.72478 0.02257 0.0
O349 O 0.67401 0.71426 0.05126 0.0
O350 O 0.56239 0.68946 0.05291 0.0
C351 C 0.77003 0.53933 0.95344 0.0
O352 O 0.70469 0.54091 0.94673 0.0
O353 O 0.63273 0.54146 0.0136 0.0
Zn354 Zn 0.72312 0.55346 0.02045 0.0
O355 O 0.71892 0.58082 0.01427 0.0
C356 C 0.69384 0.5564 0.09191 0.0
O357 O 0.65251 0.56779 0.07525 0.0
O358 O 0.79162 0.54317 0.98509 0.0
C359 C 0.72307 0.58972 0.98467 0.0
O360 O 0.72895 0.58085 0.95387 0.0
C361 C 0.63546 0.52435 0.01993 0.0
O362 O 0.6948 0.51664 0.02595 0.0
O363 O 0.73922 0.54819 0.07335 0.0
C364 C 0.46032 0.45055 0.63178 0.0
O365 O 0.39887 0.44576 0.62163 0.0
O366 O 0.31881 0.45947 0.69286 0.0
Zn367 Zn 0.40453 0.44563 0.70325 0.0
O368 O 0.39022 0.41815 0.70746 0.0
C369 C 0.4166 0.46927 0.7667 0.0
O370 O 0.38646 0.48177 0.74666 0.0
O371 O 0.47406 0.45135 0.66543 0.0
C372 C 0.38554 0.41131 0.7392 0.0
O373 O 0.38431 0.42234 0.76726 0.0
C374 C 0.27236 0.45949 0.71681 0.0
O375 O 0.27671 0.44779 0.74386 0.0
O376 O 0.43619 0.45442 0.75208 0.0
C377 C 0.22233 0.29236 0.68757 0.0
O378 O 0.28732 0.29175 0.67941 0.0
O379 O 0.35214 0.27841 0.74626 0.0
Zn380 Zn 0.28587 0.29904 0.75321 0.0
O381 O 0.32529 0.32354 0.73916 0.0
C382 C 0.2695 0.2865 0.82767 0.0
O383 O 0.27244 0.27008 0.81322 0.0
O384 O 0.20553 0.29496 0.72053 0.0
C385 C 0.35686 0.33287 0.76282 0.0
O386 O 0.36923 0.3254 0.79457 0.0
C387 C 0.40183 0.27609 0.7678 0.0
O388 O 0.41349 0.28841 0.79292 0.0
O389 O 0.26489 0.30034 0.80678 0.0
C390 C 0.47371 0.30855 0.10061 0.0
O391 O 0.4198 0.31136 0.12095 0.0
O392 O 0.3113 0.29405 0.0614 0.0
Zn393 Zn 0.37531 0.31373 0.04461 0.0
O394 O 0.346 0.33978 0.05532 0.0
C395 C 0.37227 0.2951 0.97515 0.0
O396 O 0.3807 0.28036 0.99522 0.0
O397 O 0.46724 0.30903 0.06629 0.0
C398 C 0.31275 0.34832 0.03095 0.0
O399 O 0.29265 0.33932 0.00211 0.0
C400 C 0.25679 0.29255 0.04321 0.0
O401 O 0.23548 0.30682 0.02466 0.0
O402 O 0.37637 0.31074 0.99008 0.0
C403 C 0.18557 0.48261 0.02729 0.0
O404 O 0.22834 0.49638 0.02885 0.0
O405 O 0.37007 0.47491 0.00518 0.0
Zn406 Zn 0.28901 0.462 0.98503 0.0
O407 O 0.29937 0.43503 0.99285 0.0
C408 C 0.35364 0.4618 0.91962 0.0
O409 O 0.39639 0.45414 0.94248 0.0
O410 O 0.2002 0.4686 0.00849 0.0
C411 C 0.3009 0.42786 0.02431 0.0
O412 O 0.29845 0.43851 0.05297 0.0
C413 C 0.38744 0.48284 0.03427 0.0
O414 O 0.34511 0.48404 0.06173 0.0
O415 O 0.29553 0.46674 0.93136 0.0
C416 C 0.19197 0.03622 0.09529 0.0
C417 C 0.18352 0.05441 0.08345 0.0
C418 C 0.17406 0.03096 0.13065 0.0
C419 C 0.14786 0.04373 0.15566 0.0
H420 H 0.21014 0.02582 0.07673 0.0
H421 H 0.18091 0.01674 0.13834 0.0
S422 S 0.1211 0.09344 0.13852 0.0
N423 N 0.15027 0.08539 0.09967 0.0
N424 N 0.11771 0.07568 0.1663 0.0
C425 C 0.14113 0.06211 0.14435 0.0
C426 C 0.1587 0.06739 0.10823 0.0
C427 C 0.09671 0.18338 0.08427 0.0
C428 C 0.08126 0.2015 0.07399 0.0
C429 C 0.12278 0.17929 0.11861 0.0
C430 C 0.13436 0.19311 0.1444 0.0
H431 H 0.08965 0.17216 0.06546 0.0
H432 H 0.13358 0.16508 0.12494 0.0
S433 S 0.10092 0.24285 0.13164 0.0
N434 N 0.07866 0.23348 0.09271 0.0
N435 N 0.12723 0.22577 0.15752 0.0
C436 C 0.11865 0.21133 0.13472 0.0
C437 C 0.09201 0.21552 0.09956 0.0
C438 C 0.84532 0.9251 0.85633 0.0
C439 C 0.83094 0.94362 0.86386 0.0
C440 C 0.87549 0.91983 0.82351 0.0
C441 C 0.89307 0.93286 0.79693 0.0
H442 H 0.83402 0.91452 0.87611 0.0
H443 H 0.88506 0.9054 0.81894 0.0
S444 S 0.8629 0.98307 0.80217 0.0
N445 N 0.83428 0.97499 0.84115 0.0
N446 N 0.89144 0.9651 0.77971 0.0
C447 C 0.87854 0.95143 0.8039 0.0
C448 C 0.84723 0.95679 0.83722 0.0
C449 C 0.89642 0.76826 0.90845 0.0
C450 C 0.92541 0.78456 0.9217 0.0
C451 C 0.86435 0.76764 0.87452 0.0
C452 C 0.85946 0.78331 0.85229 0.0
H453 H 0.89724 0.75587 0.92469 0.0
H454 H 0.84285 0.75473 0.86581 0.0
S455 S 0.92937 0.82935 0.87342 0.0
N456 N 0.9489 0.81673 0.90915 0.0
N457 N 0.88847 0.81557 0.84554 0.0
C458 C 0.88909 0.79968 0.86488 0.0
C459 C 0.92219 0.80029 0.89943 0.0
C460 C 0.02687 0.52719 0.63243 0.0
C461 C 0.0084 0.54238 0.6538 0.0
C462 C 0.06071 0.5294 0.59922 0.0
C463 C 0.07765 0.5469 0.5858 0.0
H464 H 0.01721 0.51337 0.64188 0.0
H465 H 0.07439 0.51719 0.58422 0.0
S466 S 0.03607 0.5913 0.62971 0.0
N467 N 0.00615 0.57567 0.65794 0.0
N468 N 0.06981 0.5798 0.59564 0.0
C469 C 0.05763 0.56226 0.60628 0.0
C470 C 0.0229 0.56001 0.64012 0.0
C471 C 0.24435 0.69659 0.63215 0.0
C472 C 0.21474 0.70969 0.65522 0.0
C473 C 0.22941 0.69628 0.59499 0.0
C474 C 0.18298 0.70875 0.57967 0.0
H475 H 0.27949 0.68649 0.64286 0.0
H476 H 0.25401 0.68607 0.57816 0.0
S477 S 0.09219 0.746 0.62788 0.0
N478 N 0.13749 0.73574 0.65973 0.0
N479 N 0.10873 0.73485 0.58992 0.0
C480 C 0.1529 0.72192 0.60227 0.0
C481 C 0.16906 0.72249 0.64004 0.0
C482 C 0.86487 0.46415 0.34807 0.0
C483 C 0.84221 0.45064 0.37256 0.0
C484 C 0.90737 0.45974 0.31884 0.0
C485 C 0.92913 0.44159 0.3128 0.0
H486 H 0.84961 0.47832 0.35134 0.0
H487 H 0.92142 0.47061 0.30024 0.0
S488 S 0.88802 0.4012 0.37033 0.0
N489 N 0.84705 0.41837 0.38954 0.0
N490 N 0.92766 0.41016 0.33503 0.0
C491 C 0.9085 0.42802 0.33769 0.0
C492 C 0.86478 0.43249 0.36733 0.0
C493 C 0.91282 0.30567 0.34482 0.0
C494 C 0.93439 0.29128 0.32235 0.0
C495 C 0.9313 0.30621 0.3815 0.0
C496 C 0.97058 0.29215 0.39729 0.0
H497 H 0.88201 0.3167 0.33392 0.0
H498 H 0.91305 0.31753 0.39784 0.0
S499 S 0.04032 0.25145 0.35014 0.0
N500 N -0.0014 0.26278 0.31829 0.0
N501 N 0.03094 0.26352 0.38769 0.0
C502 C 0.99234 0.27765 0.3752 0.0
C503 C 0.97493 0.2773 0.3376 0.0
C504 C 0.58406 0.04972 0.61113 0.0
C505 C 0.57098 0.03126 0.61999 0.0
C506 C 0.62266 0.0545 0.58065 0.0
C507 C 0.64952 0.04107 0.55735 0.0
H508 H 0.56587 0.06069 0.62836 0.0
H509 H 0.63099 0.06892 0.57529 0.0
S510 S 0.62662 0.99074 0.56691 0.0
N511 N 0.58582 -0.00055 0.60203 0.0
N512 N 0.65791 0.00843 0.54446 0.0
C513 C 0.63559 0.02254 0.56532 0.0
C514 C 0.59637 0.01766 0.59658 0.0
C515 C 0.60159 0.2156 0.63086 0.0
C516 C 0.62684 0.19994 0.64869 0.0
C517 C 0.56933 0.21434 0.59709 0.0
C518 C 0.56104 0.19735 0.57959 0.0
H519 H 0.60647 0.22903 0.64306 0.0
H520 H 0.55209 0.2269 0.58433 0.0
S521 S 0.61618 0.15202 0.61512 0.0
N522 N 0.64016 0.16675 0.64647 0.0
N523 N 0.57927 0.1644 0.58317 0.0
C524 C 0.58524 0.18152 0.59729 0.0
C525 C 0.61832 0.18281 0.63169 0.0
C526 C 0.50028 0.93124 0.37691 0.0
C527 C 0.45765 0.94418 0.39369 0.0
C528 C 0.51944 0.9331 0.34053 0.0
C529 C 0.49707 0.94803 0.31939 0.0
H530 H 0.51807 0.91933 0.39175 0.0
H531 H 0.55043 0.92241 0.32859 0.0
S532 S 0.38987 0.98671 0.3515 0.0
N533 N 0.39742 0.97316 0.38723 0.0
N534 N 0.43332 0.97668 0.31874 0.0
C535 C 0.45675 0.96152 0.33627 0.0
C536 C 0.43681 0.95955 0.37337 0.0
C537 C 0.23375 0.80848 0.43898 0.0
C538 C 0.28012 0.79878 0.46094 0.0
C539 C 0.21093 0.80132 0.40592 0.0
C540 C 0.23273 0.78406 0.39365 0.0
H541 H 0.21564 0.8219 0.44699 0.0
H542 H 0.17725 0.8096 0.38935 0.0
S543 S 0.35184 0.75271 0.44145 0.0
N544 N 0.34584 0.77071 0.46828 0.0
N545 N 0.30171 0.75712 0.40662 0.0
C546 C 0.27705 0.77387 0.41594 0.0
C547 C 0.30122 0.78129 0.44937 0.0
C548 C 0.68913 0.53286 0.14124 0.0
C549 C 0.67834 0.55099 0.12965 0.0
C550 C 0.6654 0.52682 0.17513 0.0
C551 C 0.63062 0.53876 0.19877 0.0
H552 H 0.71408 0.52309 0.12356 0.0
H553 H 0.67484 0.51271 0.18288 0.0
S554 S 0.5931 0.58793 0.18176 0.0
N555 N 0.63302 0.58102 0.14481 0.0
N556 N 0.58889 0.56979 0.20851 0.0
C557 C 0.62102 0.55706 0.18775 0.0
C558 C 0.64477 0.56314 0.1532 0.0
C559 C 0.52716 0.70487 0.17887 0.0
C560 C 0.57992 0.69343 0.19138 0.0
C561 C 0.51311 0.70671 0.14175 0.0
C562 C 0.55026 0.69688 0.11565 0.0
H563 H 0.49725 0.71283 0.19787 0.0
H564 H 0.47307 0.71603 0.13347 0.0
S565 S 0.6912 0.66418 0.13451 0.0
N566 N 0.66811 0.67165 0.17495 0.0
N567 N 0.64092 0.67468 0.10521 0.0
C568 C 0.60199 0.68494 0.1279 0.0
C569 C 0.61712 0.68335 0.16573 0.0
C570 C 0.35388 0.47916 0.82229 0.0
C571 C 0.40863 0.46956 0.8066 0.0
C572 C 0.33659 0.47668 0.85891 0.0
C573 C 0.37389 0.46469 0.88128 0.0
H574 H 0.322 0.48798 0.80582 0.0
H575 H 0.29309 0.48403 0.86957 0.0
S576 S 0.52502 0.43737 0.85383 0.0
N577 N 0.50229 0.44841 0.81663 0.0
N578 N 0.47045 0.44382 0.88537 0.0
C579 C 0.43058 0.45562 0.86625 0.0
C580 C 0.44782 0.45806 0.82897 0.0
C581 C 0.3071 0.27385 0.88769 0.0
C582 C 0.28937 0.28914 0.86628 0.0
C583 C 0.33484 0.27594 0.92248 0.0
C584 C 0.34645 0.29342 0.93737 0.0
H585 H 0.30078 0.26008 0.87732 0.0
H586 H 0.34729 0.26369 0.93776 0.0
S587 S 0.30602 0.338 0.89326 0.0
N588 N 0.28255 0.32245 0.86338 0.0
N589 N 0.33623 0.32637 0.92815 0.0
C590 C 0.32799 0.30885 0.91649 0.0
C591 C 0.29894 0.30672 0.88122 0.0
C592 C 0.32994 0.97871 0.22293 0.0
C593 C 0.31478 0.96423 0.24691 0.0
C594 C 0.30552 0.99644 0.22904 0.0
C595 C 0.26421 0.00045 0.25916 0.0
H596 H 0.36227 0.97649 0.19953 0.0
H597 H 0.3187 0.00704 0.20964 0.0
S598 S 0.20843 0.96752 0.33004 0.0
N599 N 0.25509 0.95514 0.30202 0.0
N600 N 0.20849 0.9885 0.31317 0.0
C601 C 0.24764 0.98611 0.28314 0.0
C602 C 0.27302 0.96801 0.27708 0.0
C603 C 0.91332 0.23294 0.20166 0.0
C604 C 0.87876 0.24134 0.23053 0.0
C605 C 0.95316 0.21729 0.20743 0.0
C606 C 0.96123 0.20985 0.24247 0.0
H607 H 0.91122 0.23883 0.17464 0.0
H608 H 0.98126 0.2117 0.18468 0.0
S609 S 0.87883 0.22609 0.32682 0.0
N610 N 0.85177 0.24036 0.29509 0.0
N611 N 0.92926 0.21137 0.30596 0.0
C612 C 0.92524 0.21771 0.27131 0.0
C613 C 0.8832 0.23335 0.26532 0.0
C614 C 0.19588 0.25438 0.98231 0.0
C615 C 0.21251 0.23843 0.00189 0.0
C616 C 0.20677 0.27179 0.99689 0.0
C617 C 0.23544 0.27404 0.03158 0.0
H618 H 0.17408 0.25348 0.95538 0.0
H619 H 0.19469 0.28357 0.98012 0.0
S620 S 0.2851 0.23681 0.09499 0.0
N621 N 0.25671 0.22603 0.0587 0.0
N622 N 0.27822 0.25889 0.08576 0.0
C623 C 0.25162 0.25825 0.05175 0.0
C624 C 0.24016 0.24044 0.03696 0.0
C625 C 0.01637 0.00145 0.94035 0.0
C626 C 0.05253 0.01179 0.96588 0.0
C627 C 0.96677 0.98889 0.95147 0.0
C628 C 0.9532 0.98584 0.98857 0.0
H629 H 0.027 0.00295 0.91163 0.0
H630 H 0.94084 0.98098 0.93085 0.0
S631 S 0.034 0.0096 0.06609 0.0
N632 N 0.07051 0.0186 0.02982 0.0
N633 N 0.97885 0.99444 0.05071 0.0
C634 C 0.98852 0.99624 0.01435 0.0
C635 C 0.03778 0.00938 0.00299 0.0
C636 C 0.70379 0.98997 0.73445 0.0
C637 C 0.70716 0.00443 0.70923 0.0
C638 C 0.73639 0.97326 0.72794 0.0
C639 C 0.77399 0.97028 0.69595 0.0
H640 H 0.67557 0.99153 0.75952 0.0
H641 H 0.73305 0.96273 0.74865 0.0
S642 S 0.79569 0.00334 0.62012 0.0
N643 N 0.749 0.01443 0.65016 0.0
N644 N 0.81085 0.983 0.63813 0.0
C645 C 0.77738 0.98454 0.67027 0.0
C646 C 0.74399 0.00162 0.67688 0.0
C647 C 0.00566 0.72566 0.72317 0.0
C648 C 0.04724 0.72225 0.75359 0.0
C649 C 0.96815 0.74192 0.72004 0.0
C650 C 0.97135 0.75546 0.74702 0.0
H651 H 0.00326 0.71591 0.70107 0.0
H652 H 0.93736 0.74405 0.69602 0.0
S653 S 0.0662 0.75248 0.83391 0.0
N654 N 0.08488 0.73325 0.81258 0.0
N655 N 0.01483 0.76384 0.8065 0.0
C656 C 0.01102 0.75204 0.77805 0.0
C657 C 0.04875 0.73543 0.78141 0.0
C658 C 0.73148 0.7498 0.05261 0.0
C659 C 0.70018 0.7429 0.02117 0.0
C660 C 0.76699 0.76637 0.05199 0.0
C661 C 0.77255 0.77676 0.01995 0.0
H662 H 0.72976 0.7422 0.07789 0.0
H663 H 0.79205 0.7708 0.07664 0.0
S664 S 0.6976 0.7652 0.93043 0.0
N665 N 0.67487 0.74812 0.95727 0.0
N666 N 0.74185 0.77932 0.95614 0.0
C667 C 0.73929 0.77043 0.98859 0.0
C668 C 0.70315 0.75348 0.98918 0.0
C669 C 0.16387 0.49642 0.75976 0.0
C670 C 0.15977 0.50981 0.73234 0.0
C671 C 0.19713 0.47973 0.75379 0.0
C672 C 0.22762 0.47574 0.72014 0.0
H673 H 0.14222 0.49894 0.78633 0.0
H674 H 0.20096 0.47019 0.77627 0.0
S675 S 0.22453 0.50535 0.63801 0.0
N676 N 0.18441 0.51739 0.66927 0.0
N677 N 0.24685 0.486 0.65807 0.0
C678 C 0.22152 0.48871 0.69199 0.0
C679 C 0.18781 0.50576 0.6981 0.0
C680 C 0.24506 0.7748 0.55633 0.0
C681 C 0.21067 0.79144 0.56195 0.0
C682 C 0.22603 0.76301 0.52803 0.0
C683 C 0.17189 0.7675 0.50458 0.0
H684 H 0.28541 0.77064 0.57459 0.0
H685 H 0.25169 0.74992 0.52571 0.0
S686 S 0.07023 0.81032 0.50637 0.0
N687 N 0.12321 0.81236 0.54089 0.0
N688 N 0.08766 0.79035 0.48753 0.0
C689 C 0.13908 0.78446 0.50926 0.0
C690 C 0.15821 0.79636 0.5381 0.0
C691 C 0.90011 0.51073 0.49509 0.0
C692 C 0.91798 0.49734 0.46941 0.0
C693 C 0.92964 0.52817 0.49423 0.0
C694 C 0.97792 0.53285 0.46757 0.0
H695 H 0.86468 0.50755 0.51673 0.0
H696 H 0.91681 0.53771 0.51565 0.0
S697 S 0.03385 0.50367 0.39076 0.0
N698 N 0.9811 0.49061 0.41413 0.0
N699 N 0.03664 0.52339 0.41259 0.0
C700 C 0.99318 0.51994 0.44049 0.0
C701 C 0.96329 0.50218 0.44142 0.0
C702 C 0.78456 0.50024 0.25216 0.0
C703 C 0.74419 0.49859 0.28355 0.0
C704 C 0.80532 0.48486 0.23253 0.0
C705 C 0.78759 0.46701 0.24363 0.0
H706 H 0.79956 0.5136 0.24208 0.0
H707 H 0.83707 0.48706 0.20889 0.0
S708 S 0.68157 0.45508 0.32374 0.0
N709 N 0.68591 0.47768 0.32454 0.0
N710 N 0.72607 0.4486 0.28797 0.0
C711 C 0.74669 0.46511 0.27485 0.0
C712 C 0.72488 0.48089 0.29473 0.0
C713 C 0.73956 0.27874 0.46222 0.0
C714 C 0.77908 0.28243 0.49322 0.0
C715 C 0.69427 0.26392 0.4614 0.0
C716 C 0.68698 0.2522 0.4915 0.0
H717 H 0.74492 0.28701 0.43794 0.0
H718 H 0.66596 0.26141 0.4367 0.0
S719 S 0.77312 0.25709 0.58071 0.0
N720 N 0.80386 0.27397 0.55577 0.0
N721 N 0.7191 0.24617 0.55426 0.0
C722 C 0.7243 0.25615 0.52315 0.0
C723 C 0.77018 0.27125 0.52402 0.0
C724 C 0.42461 0.24533 0.74087 0.0
C725 C 0.44043 0.25865 0.7671 0.0
C726 C 0.45845 0.22848 0.73998 0.0
C727 C 0.5098 0.22424 0.76518 0.0
H728 H 0.38582 0.24791 0.72062 0.0
H729 H 0.44515 0.2189 0.71874 0.0
S730 S 0.56849 0.25392 0.84064 0.0
N731 N 0.50946 0.26614 0.81988 0.0
N732 N 0.57326 0.23445 0.81808 0.0
C733 C 0.52547 0.23727 0.79201 0.0
C734 C 0.49084 0.25447 0.79297 0.0
C735 C 0.55835 0.02205 0.44908 0.0
C736 C 0.53703 0.03686 0.47071 0.0
C737 C 0.54187 0.00399 0.45819 0.0
C738 C 0.50256 -0.0001 0.48906 0.0
H739 H 0.58997 0.02432 0.42541 0.0
H740 H 0.55997 0.99315 0.44059 0.0
S741 S 0.43077 0.03352 0.55399 0.0
N742 N 0.4721 0.04615 0.524 0.0
N743 N 0.44061 0.01209 0.54073 0.0
C744 C 0.47892 0.01452 0.51038 0.0
C745 C 0.49605 0.03301 0.50125 0.0
C746 C 0.42749 0.7162 0.31523 0.0
C747 C 0.49134 0.71774 0.33207 0.0
C748 C 0.3873 0.73173 0.30863 0.0
C749 C 0.40905 0.7493 0.31914 0.0
H750 H 0.41 0.70307 0.30528 0.0
H751 H 0.33928 0.72995 0.29471 0.0
S752 S 0.56946 0.76027 0.36751 0.0
N753 N 0.57269 0.73789 0.36121 0.0
N754 N 0.49662 0.76706 0.34971 0.0
C755 C 0.47123 0.75085 0.33779 0.0
C756 C 0.51251 0.73507 0.344 0.0
C757 C 0.45671 0.51069 0.0468 0.0
C758 C 0.45282 0.49255 0.03434 0.0
C759 C 0.5158 0.5211 0.04138 0.0
C760 C 0.57302 0.5135 0.02407 0.0
H761 H 0.41304 0.5171 0.05947 0.0
H762 H 0.5169 0.53511 0.05102 0.0
S763 S 0.58907 0.46634 0.988 0.0
N764 N 0.51121 0.46731 0.00468 0.0
N765 N 0.62289 0.48668 0.99556 0.0
C766 C 0.57035 0.49522 0.01255 0.0
C767 C 0.50999 0.48478 0.01741 0.0
C768 C 0.17879 0.12404 0.3166 0.0
C769 C 0.19791 0.13627 0.28891 0.0
C770 C 0.18628 0.10504 0.31221 0.0
C771 C 0.21391 0.09761 0.28012 0.0
H772 H 0.15492 0.12909 0.34113 0.0
H773 H 0.16766 0.09612 0.33354 0.0
S774 S 0.28177 0.12417 0.20188 0.0
N775 N 0.25262 0.13984 0.23011 0.0
N776 N 0.26748 0.1043 0.22191 0.0
C777 C 0.23779 0.10984 0.25337 0.0
C778 C 0.22945 0.12913 0.25771 0.0
C779 C 0.05753 0.12955 0.9233 0.0
C780 C 0.10729 0.14259 0.93245 0.0
C781 C 0.07162 0.11077 0.92431 0.0
C782 C 0.13594 0.10423 0.9348 0.0
H783 H 0.00634 0.13383 0.91646 0.0
H784 H 0.03074 0.10132 0.91829 0.0
S785 S 0.28666 0.13271 0.95693 0.0
N786 N 0.22551 0.1477 0.94895 0.0
N787 N 0.25208 0.11234 0.95098 0.0
C788 C 0.18747 0.11713 0.94192 0.0
C789 C 0.17317 0.13632 0.94064 0.0
C790 C 0.89096 0.87013 0.68399 0.0
C791 C 0.84201 0.88194 0.66857 0.0
C792 C 0.87463 0.85215 0.69414 0.0
C793 C 0.80858 0.84522 0.68945 0.0
H794 H 0.94192 0.87497 0.68955 0.0
H795 H 0.91352 0.84391 0.70711 0.0
S796 S 0.66411 0.86952 0.64559 0.0
N797 N 0.72638 0.88466 0.64564 0.0
N798 N 0.6957 0.85089 0.66475 0.0
C799 C 0.76016 0.85647 0.67208 0.0
C800 C 0.77688 0.87479 0.66159 0.0
C801 C 0.89982 0.88852 0.02265 0.0
C802 C 0.93828 0.89957 0.99893 0.0
C803 C 0.91847 0.87038 0.02993 0.0
C804 C 0.97661 0.86254 0.01402 0.0
H805 H 0.85316 0.89361 0.03459 0.0
H806 H 0.88558 0.86229 0.04726 0.0
S807 S 0.10013 0.88643 0.95404 0.0
N808 N 0.04115 0.90196 0.96252 0.0
N809 N 0.07653 0.86786 0.97635 0.0
C810 C 0.01813 0.8738 0.99219 0.0
C811 C -0.00112 0.8923 0.98462 0.0
C812 C 0.18305 0.60571 0.77578 0.0
C813 C 0.12334 0.59786 0.78983 0.0
C814 C 0.19382 0.62465 0.77711 0.0
C815 C 0.14562 0.63653 0.79283 0.0
H816 H 0.22075 0.59727 0.76234 0.0
H817 H 0.23989 0.63003 0.765 0.0
S818 S 0.98397 0.62261 0.83704 0.0
N819 N 0.01763 0.60323 0.82254 0.0
N820 N 0.03804 0.63884 0.82519 0.0
C821 C 0.08719 0.62877 0.80863 0.0
C822 C 0.07601 0.60944 0.80707 0.0
C823 C 0.20555 0.65497 0.45871 0.0
C824 C 0.14014 0.66098 0.44897 0.0
C825 C 0.22052 0.6362 0.46137 0.0
C826 C 0.17057 0.62283 0.45434 0.0
H827 H 0.24421 0.66477 0.46644 0.0
H828 H 0.27058 0.6322 0.47073 0.0
S829 S 0.99532 0.63169 0.42115 0.0
N830 N 0.02799 0.65225 0.42749 0.0
N831 N 0.05593 0.61706 0.43231 0.0
C832 C 0.10663 0.62875 0.44181 0.0
C833 C 0.09148 0.64781 0.43917 0.0
C834 C 0.97948 0.35977 0.20993 0.0
C835 C 0.93628 0.34753 0.1917 0.0
C836 C 0.97909 0.37852 0.20196 0.0
C837 C 0.9354 0.38593 0.17539 0.0
H838 H 0.01194 0.35501 0.23176 0.0
H839 H 0.01163 0.38736 0.21789 0.0
S840 S 0.8192 0.35941 0.11604 0.0
N841 N 0.85384 0.34387 0.14293 0.0
N842 N 0.85305 0.37918 0.12802 0.0
C843 C 0.89542 0.37369 0.15508 0.0
C844 C 0.89592 0.35449 0.16318 0.0
C845 C 0.85303 0.37612 0.54267 0.0
C846 C 0.91115 0.36664 0.53072 0.0
C847 C 0.84396 0.39477 0.53469 0.0
C848 C 0.89263 0.40456 0.5144 0.0
H849 H 0.81254 0.36892 0.55661 0.0
H850 H 0.79664 0.40122 0.54266 0.0
S851 S 0.05959 0.38699 0.48299 0.0
N852 N 0.02261 0.36915 0.50224 0.0
N853 N 0.00509 0.40408 0.48705 0.0
C854 C 0.95332 0.39562 0.50489 0.0
C855 C 0.96271 0.37669 0.51309 0.0
C856 C 0.56383 0.10284 0.74134 0.0
C857 C 0.60151 0.09296 0.76733 0.0
C858 C 0.56779 0.12188 0.73891 0.0
C859 C 0.60992 0.132 0.76221 0.0
H860 H 0.53085 0.09583 0.72238 0.0
H861 H 0.53819 0.12864 0.71801 0.0
S862 S 0.71782 0.11287 0.8359 0.0
N863 N 0.68107 0.09475 0.81768 0.0
N864 N 0.68905 0.13075 0.81301 0.0
C865 C 0.64696 0.1224 0.78897 0.0
C866 C 0.64262 0.10286 0.79155 0.0
C867 C 0.57684 0.15418 0.42805 0.0
C868 C 0.63041 0.16518 0.44097 0.0
C869 C 0.58351 0.1351 0.42547 0.0
C870 C 0.64378 0.12622 0.43609 0.0
H871 H 0.52847 0.16027 0.42076 0.0
H872 H 0.5401 0.12723 0.4164 0.0
S873 S 0.80189 0.14875 0.46803 0.0
N874 N 0.74793 0.1658 0.46162 0.0
N875 N 0.76019 0.12996 0.45705 0.0
C876 C 0.69889 0.13708 0.44743 0.0
C877 C 0.69233 0.15655 0.44973 0.0
C878 C 0.37537 0.86306 0.23884 0.0
C879 C 0.40561 0.8742 0.26542 0.0
C880 C 0.35247 0.84533 0.24732 0.0
C881 C 0.35907 0.83812 0.28266 0.0
H882 H 0.36758 0.86824 0.21158 0.0
H883 H 0.32759 0.83746 0.22628 0.0
S884 S 0.44265 0.86084 0.36087 0.0
N885 N 0.44656 0.87603 0.32772 0.0
N886 N 0.40366 0.84289 0.34348 0.0
C887 C 0.39202 0.84881 0.30899 0.0
C888 C 0.41523 0.8668 0.30043 0.0
C889 C 0.41332 0.89753 0.59751 0.0
C890 C 0.42993 0.90429 0.5628 0.0
C891 C 0.4093 0.87866 0.60439 0.0
C892 C 0.42116 0.86576 0.57675 0.0
H893 H 0.40046 0.90686 0.61929 0.0
H894 H 0.39363 0.87421 0.63119 0.0
S895 S 0.47657 0.8761 0.48256 0.0
N896 N 0.46629 0.89638 0.50153 0.0
N897 N 0.45786 0.86099 0.51444 0.0
C898 C 0.44221 0.87226 0.54258 0.0
C899 C 0.44695 0.89148 0.53562 0.0
C900 C 0.70244 0.62379 0.31396 0.0
C901 C 0.63699 0.63105 0.31972 0.0
C902 C 0.71443 0.60486 0.31597 0.0
C903 C 0.66196 0.59262 0.32497 0.0
H904 H 0.7438 0.63266 0.30567 0.0
H905 H 0.76446 0.59971 0.30903 0.0
S906 S 0.48329 0.60498 0.34653 0.0
N907 N 0.52027 0.62475 0.33718 0.0
N908 N 0.54317 0.58924 0.34234 0.0
C909 C 0.59739 0.59985 0.33327 0.0
C910 C 0.58479 0.61906 0.33024 0.0
C911 C 0.7255 0.63809 0.02132 0.0
C912 C 0.70064 0.64857 0.99213 0.0
C913 C 0.73437 0.61915 0.01817 0.0
C914 C 0.71976 0.60997 0.98557 0.0
H915 H 0.73492 0.64434 0.04747 0.0
H916 H 0.75133 0.61159 0.04186 0.0
S917 S 0.66133 0.63149 0.89971 0.0
N918 N 0.667 0.64869 0.9286 0.0
N919 N 0.68479 0.61302 0.9225 0.0
C920 C 0.699 0.62043 0.95544 0.0
C921 C 0.68912 0.63975 0.95878 0.0
C922 C 0.36346 0.37949 0.71662 0.0
C923 C 0.3827 0.39124 0.74499 0.0
C924 C 0.35721 0.36055 0.7223 0.0
C925 C 0.37069 0.35261 0.75646 0.0
H926 H 0.35143 0.385 0.69005 0.0
H927 H 0.34044 0.35213 0.69985 0.0
S928 S 0.42887 0.37731 0.83889 0.0
N929 N 0.41943 0.39347 0.80792 0.0
N930 N 0.40825 0.35799 0.81852 0.0
C931 C 0.3926 0.36416 0.78468 0.0
C932 C 0.39836 0.38344 0.77897 0.0
C933 C 0.28474 0.39683 0.99787 0.0
C934 C 0.30194 0.40765 0.028 0.0
C935 C 0.28614 0.37772 -0.00026 0.0
C936 C 0.30561 0.36853 0.03172 0.0
H937 H 0.27012 0.40314 0.97239 0.0
H938 H 0.27338 0.37015 0.97543 0.0
S939 S 0.35311 0.39044 0.1189 0.0
N940 N 0.33686 0.40779 0.09137 0.0
N941 N 0.34038 0.37171 0.09476 0.0
C942 C 0.32177 0.37913 0.06239 0.0
C943 C 0.31968 0.39871 0.06057 0.0
C944 C 0.91057 0.04977 0.33063 0.0
C945 C 0.97052 0.04509 0.34932 0.0
C946 C 0.8505 0.05395 0.34932 0.0
C947 C 0.84777 0.05364 0.3875 0.0
H948 H 0.91026 0.05071 0.30128 0.0
H949 H 0.80629 0.05787 0.33358 0.0
S950 S 0.98885 0.04049 0.44931 0.0
N951 N 0.02204 0.03911 0.40826 0.0
N952 N 0.90924 0.04699 0.44333 0.0
C953 C 0.90661 0.0483 0.40654 0.0
C954 C 0.96787 0.04401 0.38748 0.0
C955 C 0.33285 0.21922 0.33046 0.0
C956 C 0.26675 0.21761 0.34475 0.0
C957 C 0.38872 0.22253 0.35294 0.0
C958 C 0.38101 0.22427 0.39074 0.0
H959 H 0.3422 0.21721 0.30176 0.0
H960 H 0.43871 0.22284 0.34061 0.0
S961 S 0.21754 0.22427 0.44119 0.0
N962 N 0.19575 0.22033 0.39866 0.0
N963 N 0.30109 0.22642 0.441 0.0
C964 C 0.31472 0.22401 0.40516 0.0
C965 C 0.25754 0.22073 0.38215 0.0
C966 C 0.82711 0.20482 0.86911 0.0
C967 C 0.8302 0.20226 0.8313 0.0
C968 C 0.88615 0.20642 0.8899 0.0
C969 C 0.95093 0.20559 0.87382 0.0
H970 H 0.77869 0.20507 0.88312 0.0
H971 H 0.88071 0.20782 0.91903 0.0
S972 S 0.98708 0.20111 0.77523 0.0
N973 N 0.90337 0.20046 0.77812 0.0
N974 N 0.01466 0.20354 0.81725 0.0
C975 C 0.95489 0.204 0.83577 0.0
C976 C 0.8945 0.20231 0.81452 0.0
C977 C 0.30557 0.04043 0.83972 0.0
C978 C 0.31858 0.03715 0.87675 0.0
C979 C 0.3549 0.03703 0.81318 0.0
C980 C 0.41952 0.03022 0.8225 0.0
H981 H 0.25748 0.04621 0.83106 0.0
H982 H 0.34291 0.04043 0.78527 0.0
S983 S 0.47672 0.01715 0.91514 0.0
N984 N 0.39892 0.02511 0.92103 0.0
N985 N 0.49173 0.01869 0.87115 0.0
C986 C 0.43206 0.02592 0.85921 0.0
C987 C 0.38163 0.02938 0.88631 0.0
C988 C 0.19958 0.95977 0.60362 0.0
C989 C 0.20672 0.95666 0.56612 0.0
C990 C 0.13988 0.95502 0.6221 0.0
C991 C 0.08443 0.94713 0.60381 0.0
H992 H 0.2411 0.9655 0.61919 0.0
H993 H 0.13748 0.95748 0.65106 0.0
S994 S 0.07562 0.93708 0.50511 0.0
N995 N 0.15217 0.94581 0.511 0.0
N996 N 0.03965 0.93702 0.5456 0.0
C997 C 0.09008 0.9444 0.56608 0.0
C998 C 0.15124 0.94912 0.54729 0.0
C999 C 0.58153 0.78758 0.6961 0.0
C1000 C 0.63813 0.78128 0.67632 0.0
C1001 C 0.51881 0.79072 0.67916 0.0
C1002 C 0.51009 0.78774 0.64171 0.0
H1003 H 0.58624 0.79089 0.72463 0.0
H1004 H 0.4778 0.7963 0.69538 0.0
S1005 S 0.6391 0.76856 0.57871 0.0
N1006 N 0.67898 0.77013 0.61797 0.0
N1007 N 0.56125 0.77613 0.58619 0.0
C1008 C 0.5649 0.7803 0.62207 0.0
C1009 C 0.62881 0.77704 0.63936 0.0
C1010 C 0.17775 0.78878 0.14506 0.0
C1011 C 0.15575 0.78393 0.18023 0.0
C1012 C 0.13133 0.79157 0.1167 0.0
C1013 C 0.061 0.78967 0.12238 0.0
H1014 H 0.23118 0.79101 0.13952 0.0
H1015 H 0.15067 0.79586 0.0905 0.0
S1016 S 0.97748 0.77479 0.20802 0.0
N1017 N 0.05914 0.77565 0.21811 0.0
N1018 N 0.97199 0.78088 0.16494 0.0
C1019 C 0.03851 0.78393 0.1569 0.0
C1020 C 0.0858 0.78106 0.18576 0.0
C1021 C 0.68269 0.94158 0.10172 0.0
C1022 C 0.66742 0.94425 0.06476 0.0
C1023 C 0.63166 0.93826 0.12727 0.0
C1024 C 0.56278 0.93761 0.11718 0.0
H1025 H 0.73481 0.94175 0.11117 0.0
H1026 H 0.64666 0.93621 0.15528 0.0
S1027 S 0.49485 0.94429 0.02403 0.0
N1028 N 0.57798 0.94639 0.01935 0.0
N1029 N 0.48157 0.94029 0.0676 0.0
C1030 C 0.54633 0.94058 0.08041 0.0
C1031 C 0.59868 0.94385 0.05418 0.0
C1032 C 0.84037 0.53798 0.85767 0.0
C1033 C 0.91061 0.53563 0.86308 0.0
C1034 C 0.79505 0.53826 0.887 0.0
C1035 C 0.81806 0.53629 0.923 0.0
H1036 H 0.82025 0.54026 0.83067 0.0
H1037 H 0.74183 0.5408 0.88135 0.0
S1038 S 0.99571 0.52718 0.95169 0.0
N1039 N 0.00014 0.52933 0.90714 0.0
N1040 N 0.9148 0.53004 0.96215 0.0
C1041 C 0.88758 0.53289 0.92871 0.0
C1042 C 0.93384 0.5325 0.8988 0.0
C1043 C 0.33256 0.69559 0.89292 0.0
C1044 C 0.34534 0.69891 0.85586 0.0
C1045 C 0.38433 0.69685 0.91887 0.0
C1046 C 0.45113 0.70154 0.90891 0.0
H1047 H 0.28236 0.69158 0.90204 0.0
H1048 H 0.37196 0.69378 0.94689 0.0
S1049 S 0.51037 0.71307 0.81575 0.0
N1050 N 0.42908 0.70812 0.81078 0.0
N1051 N 0.52638 0.71059 0.85945 0.0
C1052 C 0.46422 0.7055 0.87207 0.0
C1053 C 0.41141 0.70416 0.8456 0.0
C1054 C 0.90132 0.71459 0.41525 0.0
C1055 C 0.96092 0.71677 0.39457 0.0
C1056 C 0.83916 0.7103 0.39887 0.0
C1057 C 0.83361 0.70801 0.36104 0.0
H1058 H 0.90279 0.71566 0.44456 0.0
H1059 H 0.79541 0.70836 0.41632 0.0
S1060 S 0.97296 0.71405 0.29404 0.0
N1061 N 0.00938 0.71765 0.33374 0.0
N1062 N 0.89243 0.70957 0.303 0.0
C1063 C 0.89211 0.71093 0.33978 0.0
C1064 C 0.95569 0.71531 0.35651 0.0
C1065 C 0.38083 0.54032 0.36579 0.0
C1066 C 0.43937 0.53742 0.38695 0.0
C1067 C 0.31864 0.54501 0.38177 0.0
C1068 C 0.31216 0.547 0.41963 0.0
H1069 H 0.38329 0.53954 0.33646 0.0
H1070 H 0.27571 0.54751 0.36404 0.0
S1071 S 0.44822 0.53898 0.48766 0.0
N1072 N 0.48559 0.53546 0.44816 0.0
N1073 N 0.36862 0.54431 0.47814 0.0
C1074 C 0.3695 0.54336 0.44131 0.0
C1075 C 0.43303 0.53855 0.425 0.0
C1076 C 0.02587 0.46476 0.07137 0.0
C1077 C 0.03649 0.46882 0.10824 0.0
C1078 C 0.07218 0.47046 0.04478 0.0
C1079 C 0.12991 0.48079 0.05394 0.0
H1080 H 0.98353 0.45626 0.06313 0.0
H1081 H 0.06431 0.46606 0.01702 0.0
S1082 S 0.17637 0.497 0.14597 0.0
N1083 N 0.10579 0.48516 0.15217 0.0
N1084 N 0.1922 0.49619 0.10198 0.0
C1085 C 0.13853 0.48609 0.0903 0.0
C1086 C 0.09202 0.47998 0.11754 0.0
C1087 C 0.61136 0.30315 0.17239 0.0
C1088 C 0.66977 0.29902 0.15191 0.0
C1089 C 0.54828 0.30609 0.1556 0.0
C1090 C 0.54097 0.30505 0.11762 0.0
H1091 H 0.61433 0.3043 0.20165 0.0
H1092 H 0.50505 0.30935 0.17263 0.0
S1093 S 0.67773 0.29407 0.05153 0.0
N1094 N 0.71573 0.29361 0.09142 0.0
N1095 N 0.59757 0.29914 0.06006 0.0
C1096 C 0.59881 0.30071 0.09682 0.0
C1097 C 0.663 0.29769 0.1139 0.0
C1098 C 0.05454 0.29903 0.63849 0.0
C1099 C 0.07198 0.29641 0.60177 0.0
C1100 C 0.10276 0.29699 0.66617 0.0
C1101 C 0.17048 0.29223 0.65831 0.0
H1102 H 0.00363 0.30324 0.646 0.0
H1103 H 0.08715 0.29976 0.69382 0.0
S1104 S 0.24038 0.28156 0.56699 0.0
N1105 N 0.16037 0.28719 0.55934 0.0
N1106 N 0.25101 0.28328 0.61128 0.0
C1107 C 0.18784 0.28866 0.62186 0.0
C1108 C 0.13866 0.29077 0.59364 0.0
C1109 C 0.57587 0.46215 0.61654 0.0
C1110 C 0.51435 0.45439 0.60478 0.0
C1111 C 0.63026 0.46469 0.5927 0.0
C1112 C 0.62582 0.4595 0.55603 0.0
H1113 H 0.5828 0.46603 0.64466 0.0
H1114 H 0.67688 0.47034 0.60357 0.0
S1115 S 0.47397 0.43993 0.51065 0.0
N1116 N 0.4504 0.4426 0.55334 0.0
N1117 N 0.55318 0.44731 0.50841 0.0
C1118 C 0.56363 0.45244 0.5434 0.0
C1119 C 0.50781 0.4499 0.56778 0.0
loop_
_geom_bond_atom_site_label_1
_geom_bond_atom_site_label_2
_geom_bond_distance
_geom_bond_site_symmetry_2
_ccdc_geom_bond_type
C0 O1 1.160 1_655 S
C0 O7 1.185 . S
O1 C0 1.160 1_455 S
O2 Zn3 1.899 . S
O2 C10 1.284 . S
Zn3 O2 1.899 . S
Zn3 O4 2.032 . S
Zn3 O7 2.086 1_455 S
Zn3 O12 1.977 . S
O4 Zn3 2.032 . S
O4 C8 1.278 . S
C5 O6 1.203 . S
C5 O12 1.267 . S
O6 C5 1.203 . S
O7 C0 1.185 . S
O7 Zn3 2.086 1_655 S
C8 O4 1.278 . S
C8 O9 1.211 . S
O9 C8 1.211 . S
C10 O2 1.284 . S
C10 O11 1.273 . S
O11 C10 1.273 . S
O12 Zn3 1.977 . S
O12 C5 1.267 . S
C13 O14 1.160 . S
C13 O20 1.185 . S
O14 C13 1.160 . S
O15 Zn16 1.899 . S
O15 C23 1.284 . S
Zn16 O15 1.899 . S
Zn16 O17 2.032 . S
Zn16 O20 2.086 . S
Zn16 O25 1.977 . S
O17 Zn16 2.032 . S
O17 C21 1.278 . S
C18 O19 1.203 . S
C18 O25 1.267 . S
O19 C18 1.203 . S
O20 C13 1.185 . S
O20 Zn16 2.086 . S
C21 O17 1.278 . S
C21 O22 1.211 . S
O22 C21 1.211 . S
C23 O15 1.284 . S
C23 O24 1.273 . S
O24 C23 1.273 . S
O25 Zn16 1.977 . S
O25 C18 1.267 . S
C26 O27 1.160 1_655 S
C26 O33 1.185 . S
O27 C26 1.160 1_455 S
O28 Zn29 1.899 . S
O28 C36 1.284 . S
Zn29 O28 1.899 . S
Zn29 O30 2.032 . S
Zn29 O33 2.086 1_455 S
Zn29 O38 1.977 1_556 S
O30 Zn29 2.032 . S
O30 C34 1.278 . S
C31 O32 1.203 . S
C31 O38 1.267 . S
O32 C31 1.203 . S
O33 C26 1.185 . S
O33 Zn29 2.086 1_655 S
C34 O30 1.278 . S
C34 O35 1.211 1_556 S
O35 C34 1.211 1_554 S
C36 O28 1.284 . S
C36 O37 1.273 . S
O37 C36 1.273 . S
O38 Zn29 1.977 1_554 S
O38 C31 1.267 . S
C39 O40 1.160 . S
C39 O46 1.185 . S
O40 C39 1.160 . S
O41 Zn42 1.899 . S
O41 C49 1.284 . S
Zn42 O41 1.899 . S
Zn42 O43 2.032 . S
Zn42 O46 2.086 . S
Zn42 O51 1.977 1_556 S
O43 Zn42 2.032 . S
O43 C47 1.278 . S
C44 O45 1.203 . S
C44 O51 1.267 . S
O45 C44 1.203 . S
O46 C39 1.185 . S
O46 Zn42 2.086 . S
C47 O43 1.278 . S
C47 O48 1.211 1_556 S
O48 C47 1.211 1_554 S
C49 O41 1.284 . S
C49 O50 1.273 . S
O50 C49 1.273 . S
O51 Zn42 1.977 1_554 S
O51 C44 1.267 . S
C52 O53 1.160 1_455 S
C52 O59 1.185 . S
O53 C52 1.160 1_655 S
O54 Zn55 1.899 . S
O54 C62 1.284 . S
Zn55 O54 1.899 . S
Zn55 O56 2.032 . S
Zn55 O59 2.086 1_655 S
Zn55 O64 1.977 . S
O56 Zn55 2.032 . S
O56 C60 1.278 . S
C57 O58 1.203 . S
C57 O64 1.267 . S
O58 C57 1.203 . S
O59 C52 1.185 . S
O59 Zn55 2.086 1_455 S
C60 O56 1.278 . S
C60 O61 1.211 . S
O61 C60 1.211 . S
C62 O54 1.284 . S
C62 O63 1.273 . S
O63 C62 1.273 . S
O64 Zn55 1.977 . S
O64 C57 1.267 . S
C65 O66 1.160 . S
C65 O72 1.185 . S
O66 C65 1.160 . S
O67 Zn68 1.899 . S
O67 C75 1.284 . S
Zn68 O67 1.899 . S
Zn68 O69 2.032 . S
Zn68 O72 2.086 . S
Zn68 O77 1.977 . S
O69 Zn68 2.032 . S
O69 C73 1.278 . S
C70 O71 1.203 . S
C70 O77 1.267 . S
O71 C70 1.203 . S
O72 C65 1.185 . S
O72 Zn68 2.086 . S
C73 O69 1.278 . S
C73 O74 1.211 . S
O74 C73 1.211 . S
C75 O67 1.284 . S
C75 O76 1.273 . S
O76 C75 1.273 . S
O77 Zn68 1.977 . S
O77 C70 1.267 . S
C78 O79 1.160 1_455 S
C78 O85 1.185 . S
O79 C78 1.160 1_655 S
O80 Zn81 1.899 . S
O80 C88 1.284 . S
Zn81 O80 1.899 . S
Zn81 O82 2.032 . S
Zn81 O85 2.086 1_655 S
Zn81 O90 1.977 1_554 S
O82 Zn81 2.032 . S
O82 C86 1.278 . S
C83 O84 1.203 . S
C83 O90 1.267 . S
O84 C83 1.203 . S
O85 C78 1.185 . S
O85 Zn81 2.086 1_455 S
C86 O82 1.278 . S
C86 O87 1.211 1_554 S
O87 C86 1.211 1_556 S
C88 O80 1.284 . S
C88 O89 1.273 . S
O89 C88 1.273 . S
O90 Zn81 1.977 1_556 S
O90 C83 1.267 . S
C91 O92 1.160 . S
C91 O98 1.185 . S
O92 C91 1.160 . S
O93 Zn94 1.899 . S
O93 C101 1.284 . S
Zn94 O93 1.899 . S
Zn94 O95 2.032 . S
Zn94 O98 2.086 . S
Zn94 O103 1.977 1_554 S
O95 Zn94 2.032 . S
O95 C99 1.278 . S
C96 O97 1.203 . S
C96 O103 1.267 . S
O97 C96 1.203 . S
O98 C91 1.185 . S
O98 Zn94 2.086 . S
C99 O95 1.278 . S
C99 O100 1.211 1_554 S
O100 C99 1.211 1_556 S
C101 O93 1.284 . S
C101 O102 1.273 . S
O102 C101 1.273 . S
O103 Zn94 1.977 1_556 S
O103 C96 1.267 . S
C104 O105 1.160 1_655 S
C104 O111 1.185 . S
O105 C104 1.160 1_455 S
O106 Zn107 1.899 . S
O106 C114 1.284 . S
Zn107 O106 1.899 . S
Zn107 O108 2.032 . S
Zn107 O111 2.086 1_455 S
Zn107 O116 1.977 . S
O108 Zn107 2.032 . S
O108 C112 1.278 . S
C109 O110 1.203 . S
C109 O116 1.267 . S
O110 C109 1.203 . S
O111 C104 1.185 . S
O111 Zn107 2.086 1_655 S
C112 O108 1.278 . S
C112 O113 1.211 . S
O113 C112 1.211 . S
C114 O106 1.284 . S
C114 O115 1.273 . S
O115 C114 1.273 . S
O116 Zn107 1.977 . S
O116 C109 1.267 . S
C117 O118 1.160 . S
C117 O124 1.185 . S
O118 C117 1.160 . S
O119 Zn120 1.899 . S
O119 C127 1.284 . S
Zn120 O119 1.899 . S
Zn120 O121 2.032 . S
Zn120 O124 2.086 . S
Zn120 O129 1.977 . S
O121 Zn120 2.032 . S
O121 C125 1.278 . S
C122 O123 1.203 . S
C122 O129 1.267 . S
O123 C122 1.203 . S
O124 C117 1.185 . S
O124 Zn120 2.086 . S
C125 O121 1.278 . S
C125 O126 1.211 . S
O126 C125 1.211 . S
C127 O119 1.284 . S
C127 O128 1.273 . S
O128 C127 1.273 . S
O129 Zn120 1.977 . S
O129 C122 1.267 . S
C130 O131 1.160 1_655 S
C130 O137 1.185 . S
O131 C130 1.160 1_455 S
O132 Zn133 1.899 . S
O132 C140 1.284 . S
Zn133 O132 1.899 . S
Zn133 O134 2.032 . S
Zn133 O137 2.086 1_455 S
Zn133 O142 1.977 . S
O134 Zn133 2.032 . S
O134 C138 1.278 . S
C135 O136 1.203 . S
C135 O142 1.267 . S
O136 C135 1.203 . S
O137 C130 1.185 . S
O137 Zn133 2.086 1_655 S
C138 O134 1.278 . S
C138 O139 1.211 . S
O139 C138 1.211 . S
C140 O132 1.284 . S
C140 O141 1.273 . S
O141 C140 1.273 . S
O142 Zn133 1.977 . S
O142 C135 1.267 . S
C143 O144 1.160 . S
C143 O150 1.185 . S
O144 C143 1.160 . S
O145 Zn146 1.899 . S
O145 C153 1.284 . S
Zn146 O145 1.899 . S
Zn146 O147 2.032 . S
Zn146 O150 2.086 . S
Zn146 O155 1.977 . S
O147 Zn146 2.032 . S
O147 C151 1.278 . S
C148 O149 1.203 . S
C148 O155 1.267 . S
O149 C148 1.203 . S
O150 C143 1.185 . S
O150 Zn146 2.086 . S
C151 O147 1.278 . S
C151 O152 1.211 . S
O152 C151 1.211 . S
C153 O145 1.284 . S
C153 O154 1.273 . S
O154 C153 1.273 . S
O155 Zn146 1.977 . S
O155 C148 1.267 . S
C156 O157 1.160 1_455 S
C156 O163 1.185 . S
O157 C156 1.160 1_655 S
O158 Zn159 1.899 . S
O158 C166 1.284 . S
Zn159 O158 1.899 . S
Zn159 O160 2.032 . S
Zn159 O163 2.086 1_655 S
Zn159 O168 1.977 . S
O160 Zn159 2.032 . S
O160 C164 1.278 . S
C161 O162 1.203 . S
C161 O168 1.267 . S
O162 C161 1.203 . S
O163 C156 1.185 . S
O163 Zn159 2.086 1_455 S
C164 O160 1.278 . S
C164 O165 1.211 . S
O165 C164 1.211 . S
C166 O158 1.284 . S
C166 O167 1.273 . S
O167 C166 1.273 . S
O168 Zn159 1.977 . S
O168 C161 1.267 . S
C169 O170 1.160 . S
C169 O176 1.185 . S
O170 C169 1.160 . S
O171 Zn172 1.899 . S
O171 C179 1.284 . S
Zn172 O171 1.899 . S
Zn172 O173 2.032 . S
Zn172 O176 2.086 . S
Zn172 O181 1.977 . S
O173 Zn172 2.032 . S
O173 C177 1.278 . S
C174 O175 1.203 . S
C174 O181 1.267 . S
O175 C174 1.203 . S
O176 C169 1.185 . S
O176 Zn172 2.086 . S
C177 O173 1.278 . S
C177 O178 1.211 . S
O178 C177 1.211 . S
C179 O171 1.284 . S
C179 O180 1.273 . S
O180 C179 1.273 . S
O181 Zn172 1.977 . S
O181 C174 1.267 . S
C182 O183 1.160 1_455 S
C182 O189 1.185 . S
O183 C182 1.160 1_655 S
O184 Zn185 1.899 . S
O184 C192 1.284 . S
Zn185 O184 1.899 . S
Zn185 O186 2.032 . S
Zn185 O189 2.086 1_655 S
Zn185 O194 1.977 . S
O186 Zn185 2.032 . S
O186 C190 1.278 . S
C187 O188 1.203 . S
C187 O194 1.267 . S
O188 C187 1.203 . S
O189 C182 1.185 . S
O189 Zn185 2.086 1_455 S
C190 O186 1.278 . S
C190 O191 1.211 . S
O191 C190 1.211 . S
C192 O184 1.284 . S
C192 O193 1.273 . S
O193 C192 1.273 . S
O194 Zn185 1.977 . S
O194 C187 1.267 . S
C195 O196 1.160 . S
C195 O202 1.185 . S
O196 C195 1.160 . S
O197 Zn198 1.899 . S
O197 C205 1.284 . S
Zn198 O197 1.899 . S
Zn198 O199 2.032 . S
Zn198 O202 2.086 . S
Zn198 O207 1.977 . S
O199 Zn198 2.032 . S
O199 C203 1.278 . S
C200 O201 1.203 . S
C200 O207 1.267 . S
O201 C200 1.203 . S
O202 C195 1.185 . S
O202 Zn198 2.086 . S
C203 O199 1.278 . S
C203 O204 1.211 . S
O204 C203 1.211 . S
C205 O197 1.284 . S
C205 O206 1.273 . S
O206 C205 1.273 . S
O207 Zn198 1.977 . S
O207 C200 1.267 . S
C208 O209 1.160 . S
C208 O215 1.185 . S
O209 C208 1.160 . S
O210 Zn211 1.899 . S
O210 C218 1.284 . S
Zn211 O210 1.899 . S
Zn211 O212 2.032 . S
Zn211 O215 2.086 . S
Zn211 O220 1.977 . S
O212 Zn211 2.032 . S
O212 C216 1.278 . S
C213 O214 1.203 . S
C213 O220 1.267 . S
O214 C213 1.203 . S
O215 C208 1.185 . S
O215 Zn211 2.086 . S
C216 O212 1.278 . S
C216 O217 1.211 . S
O217 C216 1.211 . S
C218 O210 1.284 . S
C218 O219 1.273 . S
O219 C218 1.273 . S
O220 Zn211 1.977 . S
O220 C213 1.267 . S
C221 O222 1.160 . S
C221 O228 1.185 . S
O222 C221 1.160 . S
O223 Zn224 1.899 . S
O223 C231 1.284 . S
Zn224 O223 1.899 . S
Zn224 O225 2.032 . S
Zn224 O228 2.086 . S
Zn224 O233 1.977 . S
O225 Zn224 2.032 . S
O225 C229 1.278 . S
C226 O227 1.203 . S
C226 O233 1.267 . S
O227 C226 1.203 . S
O228 C221 1.185 . S
O228 Zn224 2.086 . S
C229 O225 1.278 . S
C229 O230 1.211 . S
O230 C229 1.211 . S
C231 O223 1.284 . S
C231 O232 1.273 . S
O232 C231 1.273 . S
O233 Zn224 1.977 . S
O233 C226 1.267 . S
C234 O235 1.160 . S
C234 O241 1.185 . S
O235 C234 1.160 . S
O236 Zn237 1.899 . S
O236 C244 1.284 . S
Zn237 O236 1.899 . S
Zn237 O238 2.032 . S
Zn237 O241 2.086 . S
Zn237 O246 1.977 . S
O238 Zn237 2.032 . S
O238 C242 1.278 . S
C239 O240 1.203 . S
C239 O246 1.267 . S
O240 C239 1.203 . S
O241 C234 1.185 . S
O241 Zn237 2.086 . S
C242 O238 1.278 . S
C242 O243 1.211 . S
O243 C242 1.211 . S
C244 O236 1.284 . S
C244 O245 1.273 . S
O245 C244 1.273 . S
O246 Zn237 1.977 . S
O246 C239 1.267 . S
C247 O248 1.160 . S
C247 O254 1.185 . S
O248 C247 1.160 . S
O249 Zn250 1.899 . S
O249 C257 1.284 . S
Zn250 O249 1.899 . S
Zn250 O251 2.032 . S
Zn250 O254 2.086 . S
Zn250 O259 1.977 . S
O251 Zn250 2.032 . S
O251 C255 1.278 . S
C252 O253 1.203 . S
C252 O259 1.267 . S
O253 C252 1.203 . S
O254 C247 1.185 . S
O254 Zn250 2.086 . S
C255 O251 1.278 . S
C255 O256 1.211 . S
O256 C255 1.211 . S
C257 O249 1.284 . S
C257 O258 1.273 . S
O258 C257 1.273 . S
O259 Zn250 1.977 . S
O259 C252 1.267 . S
C260 O261 1.160 . S
C260 O267 1.185 . S
O261 C260 1.160 . S
O262 Zn263 1.899 . S
O262 C270 1.284 . S
Zn263 O262 1.899 . S
Zn263 O264 2.032 . S
Zn263 O267 2.086 . S
Zn263 O272 1.977 . S
O264 Zn263 2.032 . S
O264 C268 1.278 . S
C265 O266 1.203 . S
C265 O272 1.267 . S
O266 C265 1.203 . S
O267 C260 1.185 . S
O267 Zn263 2.086 . S
C268 O264 1.278 . S
C268 O269 1.211 . S
O269 C268 1.211 . S
C270 O262 1.284 . S
C270 O271 1.273 . S
O271 C270 1.273 . S
O272 Zn263 1.977 . S
O272 C265 1.267 . S
C273 O274 1.160 . S
C273 O280 1.185 . S
O274 C273 1.160 . S
O275 Zn276 1.899 . S
O275 C283 1.284 . S
Zn276 O275 1.899 . S
Zn276 O277 2.032 . S
Zn276 O280 2.086 . S
Zn276 O285 1.977 . S
O277 Zn276 2.032 . S
O277 C281 1.278 . S
C278 O279 1.203 . S
C278 O285 1.267 . S
O279 C278 1.203 . S
O280 C273 1.185 . S
O280 Zn276 2.086 . S
C281 O277 1.278 . S
C281 O282 1.211 . S
O282 C281 1.211 . S
C283 O275 1.284 . S
C283 O284 1.273 . S
O284 C283 1.273 . S
O285 Zn276 1.977 . S
O285 C278 1.267 . S
C286 O287 1.160 . S
C286 O293 1.185 . S
O287 C286 1.160 . S
O288 Zn289 1.899 . S
O288 C296 1.284 . S
Zn289 O288 1.899 . S
Zn289 O290 2.032 . S
Zn289 O293 2.086 . S
Zn289 O298 1.977 . S
O290 Zn289 2.032 . S
O290 C294 1.278 . S
C291 O292 1.203 . S
C291 O298 1.267 . S
O292 C291 1.203 . S
O293 C286 1.185 . S
O293 Zn289 2.086 . S
C294 O290 1.278 . S
C294 O295 1.211 . S
O295 C294 1.211 . S
C296 O288 1.284 . S
C296 O297 1.273 . S
O297 C296 1.273 . S
O298 Zn289 1.977 . S
O298 C291 1.267 . S
C299 O300 1.160 . S
C299 O306 1.185 . S
O300 C299 1.160 . S
O301 Zn302 1.899 . S
O301 C309 1.284 . S
Zn302 O301 1.899 . S
Zn302 O303 2.032 . S
Zn302 O306 2.086 . S
Zn302 O311 1.977 . S
O303 Zn302 2.032 . S
O303 C307 1.278 . S
C304 O305 1.203 . S
C304 O311 1.267 . S
O305 C304 1.203 . S
O306 C299 1.185 . S
O306 Zn302 2.086 . S
C307 O303 1.278 . S
C307 O308 1.211 . S
O308 C307 1.211 . S
C309 O301 1.284 . S
C309 O310 1.273 . S
O310 C309 1.273 . S
O311 Zn302 1.977 . S
O311 C304 1.267 . S
C312 O313 1.160 . S
C312 O319 1.185 . S
O313 C312 1.160 . S
O314 Zn315 1.899 . S
O314 C322 1.284 . S
Zn315 O314 1.899 . S
Zn315 O316 2.032 . S
Zn315 O319 2.086 . S
Zn315 O324 1.977 . S
O316 Zn315 2.032 . S
O316 C320 1.278 . S
C317 O318 1.203 . S
C317 O324 1.267 . S
O318 C317 1.203 . S
O319 C312 1.185 . S
O319 Zn315 2.086 . S
C320 O316 1.278 . S
C320 O321 1.211 . S
O321 C320 1.211 . S
C322 O314 1.284 . S
C322 O323 1.273 . S
O323 C322 1.273 . S
O324 Zn315 1.977 . S
O324 C317 1.267 . S
C325 O326 1.160 . S
C325 O332 1.185 . S
O326 C325 1.160 . S
O327 Zn328 1.899 . S
O327 C335 1.284 . S
Zn328 O327 1.899 . S
Zn328 O329 2.032 . S
Zn328 O332 2.086 . S
Zn328 O337 1.977 . S
O329 Zn328 2.032 . S
O329 C333 1.278 . S
C330 O331 1.203 . S
C330 O337 1.267 . S
O331 C330 1.203 . S
O332 C325 1.185 . S
O332 Zn328 2.086 . S
C333 O329 1.278 . S
C333 O334 1.211 . S
O334 C333 1.211 . S
C335 O327 1.284 . S
C335 O336 1.273 . S
O336 C335 1.273 . S
O337 Zn328 1.977 . S
O337 C330 1.267 . S
C338 O339 1.160 . S
C338 O345 1.185 . S
O339 C338 1.160 . S
O340 Zn341 1.899 . S
O340 C348 1.284 . S
Zn341 O340 1.899 . S
Zn341 O342 2.032 . S
Zn341 O345 2.086 . S
Zn341 O350 1.977 1_556 S
O342 Zn341 2.032 . S
O342 C346 1.278 . S
C343 O344 1.203 . S
C343 O350 1.267 . S
O344 C343 1.203 . S
O345 C338 1.185 . S
O345 Zn341 2.086 . S
C346 O342 1.278 . S
C346 O347 1.211 1_556 S
O347 C346 1.211 1_554 S
C348 O340 1.284 . S
C348 O349 1.273 . S
O349 C348 1.273 . S
O350 Zn341 1.977 1_554 S
O350 C343 1.267 . S
C351 O352 1.160 . S
C351 O358 1.185 . S
O352 C351 1.160 . S
O353 Zn354 1.899 . S
O353 C361 1.284 . S
Zn354 O353 1.899 . S
Zn354 O355 2.032 . S
Zn354 O358 2.086 . S
Zn354 O363 1.977 1_556 S
O355 Zn354 2.032 . S
O355 C359 1.278 . S
C356 O357 1.203 . S
C356 O363 1.267 . S
O357 C356 1.203 . S
O358 C351 1.185 . S
O358 Zn354 2.086 . S
C359 O355 1.278 . S
C359 O360 1.211 1_556 S
O360 C359 1.211 1_554 S
C361 O353 1.284 . S
C361 O362 1.273 . S
O362 C361 1.273 . S
O363 Zn354 1.977 1_554 S
O363 C356 1.267 . S
C364 O365 1.160 . S
C364 O371 1.185 . S
O365 C364 1.160 . S
O366 Zn367 1.899 . S
O366 C374 1.284 . S
Zn367 O366 1.899 . S
Zn367 O368 2.032 . S
Zn367 O371 2.086 . S
Zn367 O376 1.977 . S
O368 Zn367 2.032 . S
O368 C372 1.278 . S
C369 O370 1.203 . S
C369 O376 1.267 . S
O370 C369 1.203 . S
O371 C364 1.185 . S
O371 Zn367 2.086 . S
C372 O368 1.278 . S
C372 O373 1.211 . S
O373 C372 1.211 . S
C374 O366 1.284 . S
C374 O375 1.273 . S
O375 C374 1.273 . S
O376 Zn367 1.977 . S
O376 C369 1.267 . S
C377 O378 1.160 . S
C377 O384 1.185 . S
O378 C377 1.160 . S
O379 Zn380 1.899 . S
O379 C387 1.284 . S
Zn380 O379 1.899 . S
Zn380 O381 2.032 . S
Zn380 O384 2.086 . S
Zn380 O389 1.977 . S
O381 Zn380 2.032 . S
O381 C385 1.278 . S
C382 O383 1.203 . S
C382 O389 1.267 . S
O383 C382 1.203 . S
O384 C377 1.185 . S
O384 Zn380 2.086 . S
C385 O381 1.278 . S
C385 O386 1.211 . S
O386 C385 1.211 . S
C387 O379 1.284 . S
C387 O388 1.273 . S
O388 C387 1.273 . S
O389 Zn380 1.977 . S
O389 C382 1.267 . S
C390 O391 1.160 . S
C390 O397 1.185 . S
O391 C390 1.160 . S
O392 Zn393 1.899 . S
O392 C400 1.284 . S
Zn393 O392 1.899 . S
Zn393 O394 2.032 . S
Zn393 O397 2.086 . S
Zn393 O402 1.977 1_554 S
O394 Zn393 2.032 . S
O394 C398 1.278 . S
C395 O396 1.203 . S
C395 O402 1.267 . S
O396 C395 1.203 . S
O397 C390 1.185 . S
O397 Zn393 2.086 . S
C398 O394 1.278 . S
C398 O399 1.211 1_554 S
O399 C398 1.211 1_556 S
C400 O392 1.284 . S
C400 O401 1.273 . S
O401 C400 1.273 . S
O402 Zn393 1.977 1_556 S
O402 C395 1.267 . S
C403 O404 1.160 . S
C403 O410 1.185 . S
O404 C403 1.160 . S
O405 Zn406 1.899 . S
O405 C413 1.284 . S
Zn406 O405 1.899 . S
Zn406 O407 2.032 . S
Zn406 O410 2.086 . S
Zn406 O415 1.977 1_554 S
O407 Zn406 2.032 . S
O407 C411 1.278 . S
C408 O409 1.203 . S
C408 O415 1.267 . S
O409 C408 1.203 . S
O410 C403 1.185 . S
O410 Zn406 2.086 . S
C411 O407 1.278 . S
C411 O412 1.211 1_554 S
O412 C411 1.211 1_556 S
C413 O405 1.284 . S
C413 O414 1.273 . S
O414 C413 1.273 . S
O415 Zn406 1.977 1_556 S
O415 C408 1.267 . S
C416 C417 1.369 . S
C416 C418 1.419 . S
C416 H420 0.930 . S
C417 C416 1.369 . S
C417 C426 1.429 . S
C418 C416 1.419 . S
C418 C419 1.363 . S
C418 H421 0.929 . S
C419 C418 1.363 . S
C419 C425 1.428 . S
H420 C416 0.930 . S
H421 C418 0.929 . S
S422 N423 1.613 . S
S422 N424 1.610 . S
N423 S422 1.613 . S
N423 C426 1.350 . S
N424 S422 1.610 . S
N424 C425 1.351 . S
C425 C419 1.428 . S
C425 N424 1.351 . S
C425 C426 1.434 . S
C426 C417 1.429 . S
C426 N423 1.350 . S
C426 C425 1.434 . S
C427 C428 1.369 . S
C427 C429 1.419 . S
C427 H431 0.930 . S
C428 C427 1.369 . S
C428 C437 1.429 . S
C429 C427 1.419 . S
C429 C430 1.363 . S
C429 H432 0.929 . S
C430 C429 1.363 . S
C430 C436 1.428 . S
H431 C427 0.930 . S
H432 C429 0.929 . S
S433 N434 1.613 . S
S433 N435 1.610 . S
N434 S433 1.613 . S
N434 C437 1.350 . S
N435 S433 1.610 . S
N435 C436 1.351 . S
C436 C430 1.428 . S
C436 N435 1.351 . S
C436 C437 1.434 . S
C437 C428 1.429 . S
C437 N434 1.350 . S
C437 C436 1.434 . S
C438 C439 1.369 . S
C438 C440 1.419 . S
C438 H442 0.930 . S
C439 C438 1.369 . S
C439 C448 1.429 . S
C440 C438 1.419 . S
C440 C441 1.363 . S
C440 H443 0.929 . S
C441 C440 1.363 . S
C441 C447 1.428 . S
H442 C438 0.930 . S
H443 C440 0.929 . S
S444 N445 1.613 1_455 S
S444 N446 1.610 . S
N445 S444 1.613 1_655 S
N445 C448 1.350 . S
N446 S444 1.610 . S
N446 C447 1.351 1_455 S
C447 C441 1.428 . S
C447 N446 1.351 1_655 S
C447 C448 1.434 . S
C448 C439 1.429 . S
C448 N445 1.350 . S
C448 C447 1.434 . S
C449 C450 1.369 . S
C449 C451 1.419 . S
C449 H453 0.930 . S
C450 C449 1.369 . S
C450 C459 1.429 . S
C451 C449 1.419 . S
C451 C452 1.363 . S
C451 H454 0.929 . S
C452 C451 1.363 . S
C452 C458 1.428 . S
H453 C449 0.930 . S
H454 C451 0.929 . S
S455 N456 1.613 . S
S455 N457 1.610 1_455 S
N456 S455 1.613 . S
N456 C459 1.350 1_455 S
N457 S455 1.610 1_655 S
N457 C458 1.351 . S
C458 C452 1.428 . S
C458 N457 1.351 . S
C458 C459 1.434 . S
C459 C450 1.429 . S
C459 N456 1.350 1_655 S
C459 C458 1.434 . S
C460 C461 1.369 . S
C460 C462 1.419 . S
C460 H464 0.930 . S
C461 C460 1.369 . S
C461 C470 1.429 . S
C462 C460 1.419 . S
C462 C463 1.363 . S
C462 H465 0.929 . S
C463 C462 1.363 . S
C463 C469 1.428 . S
H464 C460 0.930 . S
H465 C462 0.929 . S
S466 N467 1.613 . S
S466 N468 1.610 . S
N467 S466 1.613 . S
N467 C470 1.350 . S
N468 S466 1.610 . S
N468 C469 1.351 . S
C469 C463 1.428 . S
C469 N468 1.351 . S
C469 C470 1.434 . S
C470 C461 1.429 . S
C470 N467 1.350 . S
C470 C469 1.434 . S
C471 C472 1.369 . S
C471 C473 1.419 . S
C471 H475 0.930 . S
C472 C471 1.369 . S
C472 C481 1.429 . S
C473 C471 1.419 . S
C473 C474 1.363 . S
C473 H476 0.929 . S
C474 C473 1.363 . S
C474 C480 1.428 . S
H475 C471 0.930 . S
H476 C473 0.929 . S
S477 N478 1.613 . S
S477 N479 1.610 . S
N478 S477 1.613 . S
N478 C481 1.350 . S
N479 S477 1.610 . S
N479 C480 1.351 . S
C480 C474 1.428 . S
C480 N479 1.351 . S
C480 C481 1.434 . S
C481 C472 1.429 . S
C481 N478 1.350 . S
C481 C480 1.434 . S
C482 C483 1.369 . S
C482 C484 1.419 . S
C482 H486 0.930 . S
C483 C482 1.369 . S
C483 C492 1.429 . S
C484 C482 1.419 . S
C484 C485 1.363 . S
C484 H487 0.929 . S
C485 C484 1.363 . S
C485 C491 1.428 . S
H486 C482 0.930 . S
H487 C484 0.929 . S
S488 N489 1.613 . S
S488 N490 1.610 . S
N489 S488 1.613 . S
N489 C492 1.350 . S
N490 S488 1.610 . S
N490 C491 1.351 . S
C491 C485 1.428 . S
C491 N490 1.351 . S
C491 C492 1.434 . S
C492 C483 1.429 . S
C492 N489 1.350 . S
C492 C491 1.434 . S
C493 C494 1.369 . S
C493 C495 1.419 . S
C493 H497 0.930 . S
C494 C493 1.369 . S
C494 C503 1.429 . S
C495 C493 1.419 . S
C495 C496 1.363 . S
C495 H498 0.929 . S
C496 C495 1.363 . S
C496 C502 1.428 . S
H497 C493 0.930 . S
H498 C495 0.929 . S
S499 N500 1.613 1_455 S
S499 N501 1.610 . S
N500 S499 1.613 1_655 S
N500 C503 1.350 . S
N501 S499 1.610 . S
N501 C502 1.351 1_455 S
C502 C496 1.428 . S
C502 N501 1.351 1_655 S
C502 C503 1.434 . S
C503 C494 1.429 . S
C503 N500 1.350 . S
C503 C502 1.434 . S
C504 C505 1.369 . S
C504 C506 1.419 . S
C504 H508 0.930 . S
C505 C504 1.369 . S
C505 C514 1.429 . S
C506 C504 1.419 . S
C506 C507 1.363 . S
C506 H509 0.929 . S
C507 C506 1.363 . S
C507 C513 1.428 . S
H508 C504 0.930 . S
H509 C506 0.929 . S
S510 N511 1.613 . S
S510 N512 1.610 . S
N511 S510 1.613 . S
N511 C514 1.350 . S
N512 S510 1.610 . S
N512 C513 1.351 . S
C513 C507 1.428 . S
C513 N512 1.351 . S
C513 C514 1.434 . S
C514 C505 1.429 . S
C514 N511 1.350 . S
C514 C513 1.434 . S
C515 C516 1.369 . S
C515 C517 1.419 . S
C515 H519 0.930 . S
C516 C515 1.369 . S
C516 C525 1.429 . S
C517 C515 1.419 . S
C517 C518 1.363 . S
C517 H520 0.929 . S
C518 C517 1.363 . S
C518 C524 1.428 . S
H519 C515 0.930 . S
H520 C517 0.929 . S
S521 N522 1.613 . S
S521 N523 1.610 . S
N522 S521 1.613 . S
N522 C525 1.350 . S
N523 S521 1.610 . S
N523 C524 1.351 . S
C524 C518 1.428 . S
C524 N523 1.351 . S
C524 C525 1.434 . S
C525 C516 1.429 . S
C525 N522 1.350 . S
C525 C524 1.434 . S
C526 C527 1.369 . S
C526 C528 1.419 . S
C526 H530 0.930 . S
C527 C526 1.369 . S
C527 C536 1.429 . S
C528 C526 1.419 . S
C528 C529 1.363 . S
C528 H531 0.929 . S
C529 C528 1.363 . S
C529 C535 1.428 . S
H530 C526 0.930 . S
H531 C528 0.929 . S
S532 N533 1.613 . S
S532 N534 1.610 . S
N533 S532 1.613 . S
N533 C536 1.350 . S
N534 S532 1.610 . S
N534 C535 1.351 . S
C535 C529 1.428 . S
C535 N534 1.351 . S
C535 C536 1.434 . S
C536 C527 1.429 . S
C536 N533 1.350 . S
C536 C535 1.434 . S
C537 C538 1.369 . S
C537 C539 1.419 . S
C537 H541 0.930 . S
C538 C537 1.369 . S
C538 C547 1.429 . S
C539 C537 1.419 . S
C539 C540 1.363 . S
C539 H542 0.929 . S
C540 C539 1.363 . S
C540 C546 1.428 . S
H541 C537 0.930 . S
H542 C539 0.929 . S
S543 N544 1.613 . S
S543 N545 1.610 . S
N544 S543 1.613 . S
N544 C547 1.350 . S
N545 S543 1.610 . S
N545 C546 1.351 . S
C546 C540 1.428 . S
C546 N545 1.351 . S
C546 C547 1.434 . S
C547 C538 1.429 . S
C547 N544 1.350 . S
C547 C546 1.434 . S
C548 C549 1.369 . S
C548 C550 1.419 . S
C548 H552 0.930 . S
C549 C548 1.369 . S
C549 C558 1.429 . S
C550 C548 1.419 . S
C550 C551 1.363 . S
C550 H553 0.929 . S
C551 C550 1.363 . S
C551 C557 1.428 . S
H552 C548 0.930 . S
H553 C550 0.929 . S
S554 N555 1.613 . S
S554 N556 1.610 . S
N555 S554 1.613 . S
N555 C558 1.350 . S
N556 S554 1.610 . S
N556 C557 1.351 . S
C557 C551 1.428 . S
C557 N556 1.351 . S
C557 C558 1.434 . S
C558 C549 1.429 . S
C558 N555 1.350 . S
C558 C557 1.434 . S
C559 C560 1.369 . S
C559 C561 1.419 . S
C559 H563 0.930 . S
C560 C559 1.369 . S
C560 C569 1.429 . S
C561 C559 1.419 . S
C561 C562 1.363 . S
C561 H564 0.929 . S
C562 C561 1.363 . S
C562 C568 1.428 . S
H563 C559 0.930 . S
H564 C561 0.929 . S
S565 N566 1.613 . S
S565 N567 1.610 . S
N566 S565 1.613 . S
N566 C569 1.350 . S
N567 S565 1.610 . S
N567 C568 1.351 . S
C568 C562 1.428 . S
C568 N567 1.351 . S
C568 C569 1.434 . S
C569 C560 1.429 . S
C569 N566 1.350 . S
C569 C568 1.434 . S
C570 C571 1.369 . S
C570 C572 1.419 . S
C570 H574 0.930 . S
C571 C570 1.369 . S
C571 C580 1.429 . S
C572 C570 1.419 . S
C572 C573 1.363 . S
C572 H575 0.929 . S
C573 C572 1.363 . S
C573 C579 1.428 . S
H574 C570 0.930 . S
H575 C572 0.929 . S
S576 N577 1.613 . S
S576 N578 1.610 . S
N577 S576 1.613 . S
N577 C580 1.350 . S
N578 S576 1.610 . S
N578 C579 1.351 . S
C579 C573 1.428 . S
C579 N578 1.351 . S
C579 C580 1.434 . S
C580 C571 1.429 . S
C580 N577 1.350 . S
C580 C579 1.434 . S
C581 C582 1.369 . S
C581 C583 1.419 . S
C581 H585 0.930 . S
C582 C581 1.369 . S
C582 C591 1.429 . S
C583 C581 1.419 . S
C583 C584 1.363 . S
C583 H586 0.929 . S
C584 C583 1.363 . S
C584 C590 1.428 . S
H585 C581 0.930 . S
H586 C583 0.929 . S
S587 N588 1.613 . S
S587 N589 1.610 . S
N588 S587 1.613 . S
N588 C591 1.350 . S
N589 S587 1.610 . S
N589 C590 1.351 . S
C590 C584 1.428 . S
C590 N589 1.351 . S
C590 C591 1.434 . S
C591 C582 1.429 . S
C591 N588 1.350 . S
C591 C590 1.434 . S
C592 C593 1.369 1_545 S
C592 C594 1.419 . S
C592 H596 0.930 . S
C593 C592 1.369 1_565 S
C593 C602 1.429 . S
C594 C592 1.419 . S
C594 C595 1.363 . S
C594 H597 0.929 . S
C595 C594 1.363 . S
C595 C601 1.428 1_545 S
H596 C592 0.930 . S
H597 C594 0.929 . S
S598 N599 1.613 . S
S598 N600 1.610 . S
N599 S598 1.613 . S
N599 C602 1.350 . S
N600 S598 1.610 . S
N600 C601 1.351 . S
C601 C595 1.428 1_565 S
C601 N600 1.351 . S
C601 C602 1.434 . S
C602 C593 1.429 . S
C602 N599 1.350 . S
C602 C601 1.434 . S
C603 C604 1.369 1_455 S
C603 C605 1.419 . S
C603 H607 0.930 . S
C604 C603 1.369 1_655 S
C604 C613 1.429 . S
C605 C603 1.419 . S
C605 C606 1.363 . S
C605 H608 0.929 . S
C606 C605 1.363 . S
C606 C612 1.428 1_455 S
H607 C603 0.930 . S
H608 C605 0.929 . S
S609 N610 1.613 . S
S609 N611 1.610 . S
N610 S609 1.613 . S
N610 C613 1.350 . S
N611 S609 1.610 . S
N611 C612 1.351 . S
C612 C606 1.428 1_655 S
C612 N611 1.351 . S
C612 C613 1.434 . S
C613 C604 1.429 . S
C613 N610 1.350 . S
C613 C612 1.434 . S
C614 C615 1.369 . S
C614 C616 1.419 . S
C614 H618 0.930 . S
C615 C614 1.369 . S
C615 C624 1.429 1_556 S
C616 C614 1.419 . S
C616 C617 1.363 1_556 S
C616 H619 0.929 . S
C617 C616 1.363 1_554 S
C617 C623 1.428 . S
H618 C614 0.930 . S
H619 C616 0.929 . S
S620 N621 1.613 . S
S620 N622 1.610 . S
N621 S620 1.613 . S
N621 C624 1.350 . S
N622 S620 1.610 . S
N622 C623 1.351 . S
C623 C617 1.428 . S
C623 N622 1.351 . S
C623 C624 1.434 . S
C624 C615 1.429 1_554 S
C624 N621 1.350 . S
C624 C623 1.434 . S
C625 C626 1.369 1_655 S
C625 C627 1.419 1_545 S
C625 H629 0.930 . S
C626 C625 1.369 1_455 S
C626 C635 1.429 1_556 S
C627 C625 1.419 1_565 S
C627 C628 1.363 1_556 S
C627 H630 0.929 . S
C628 C627 1.363 1_554 S
C628 C634 1.428 1_655 S
H629 C625 0.930 . S
H630 C627 0.929 . S
S631 N632 1.613 . S
S631 N633 1.610 1_545 S
N632 S631 1.613 . S
N632 C635 1.350 . S
N633 S631 1.610 1_565 S
N633 C634 1.351 . S
C634 C628 1.428 1_455 S
C634 N633 1.351 . S
C634 C635 1.434 1_565 S
C635 C626 1.429 1_554 S
C635 N632 1.350 . S
C635 C634 1.434 1_545 S
C636 C637 1.369 . S
C636 C638 1.419 1_545 S
C636 H640 0.930 . S
C637 C636 1.369 . S
C637 C646 1.429 . S
C638 C636 1.419 1_565 S
C638 C639 1.363 . S
C638 H641 0.929 . S
C639 C638 1.363 . S
C639 C645 1.428 . S
H640 C636 0.930 . S
H641 C638 0.929 . S
S642 N643 1.613 1_565 S
S642 N644 1.610 . S
N643 S642 1.613 1_545 S
N643 C646 1.350 . S
N644 S642 1.610 . S
N644 C645 1.351 . S
C645 C639 1.428 . S
C645 N644 1.351 . S
C645 C646 1.434 1_565 S
C646 C637 1.429 . S
C646 N643 1.350 . S
C646 C645 1.434 1_545 S
C647 C648 1.369 1_655 S
C647 C649 1.419 . S
C647 H651 0.930 . S
C648 C647 1.369 1_455 S
C648 C657 1.429 . S
C649 C647 1.419 . S
C649 C650 1.363 . S
C649 H652 0.929 . S
C650 C649 1.363 . S
C650 C656 1.428 1_655 S
H651 C647 0.930 . S
H652 C649 0.929 . S
S653 N654 1.613 . S
S653 N655 1.610 . S
N654 S653 1.613 . S
N654 C657 1.350 . S
N655 S653 1.610 . S
N655 C656 1.351 . S
C656 C650 1.428 1_455 S
C656 N655 1.351 . S
C656 C657 1.434 . S
C657 C648 1.429 . S
C657 N654 1.350 . S
C657 C656 1.434 . S
C658 C659 1.369 . S
C658 C660 1.419 1_556 S
C658 H662 0.930 . S
C659 C658 1.369 . S
C659 C668 1.429 . S
C660 C658 1.419 1_554 S
C660 C661 1.363 . S
C660 H663 0.929 . S
C661 C660 1.363 . S
C661 C667 1.428 . S
H662 C658 0.930 . S
H663 C660 0.929 . S
S664 N665 1.616 . S
S664 N666 1.607 1_556 S
N665 S664 1.616 . S
N665 C668 1.350 . S
N666 S664 1.607 1_554 S
N666 C667 1.351 . S
C667 C661 1.428 . S
C667 N666 1.351 . S
C667 C668 1.434 1_554 S
C668 C659 1.429 . S
C668 N665 1.350 . S
C668 C667 1.434 1_556 S
C669 C670 1.369 . S
C669 C671 1.419 . S
C669 H673 0.930 . S
C670 C669 1.369 . S
C670 C679 1.429 . S
C671 C669 1.419 . S
C671 C672 1.363 . S
C671 H674 0.929 . S
C672 C671 1.363 . S
C672 C678 1.428 . S
H673 C669 0.930 . S
H674 C671 0.929 . S
S675 N676 1.613 . S
S675 N677 1.610 . S
N676 S675 1.613 . S
N676 C679 1.350 . S
N677 S675 1.610 . S
N677 C678 1.351 . S
C678 C672 1.428 . S
C678 N677 1.351 . S
C678 C679 1.434 . S
C679 C670 1.429 . S
C679 N676 1.350 . S
C679 C678 1.434 . S
C680 C681 1.369 . S
C680 C682 1.419 . S
C680 H684 0.930 . S
C681 C680 1.369 . S
C681 C690 1.429 . S
C682 C680 1.419 . S
C682 C683 1.363 . S
C682 H685 0.929 . S
C683 C682 1.363 . S
C683 C689 1.428 . S
H684 C680 0.930 . S
H685 C682 0.929 . S
S686 N687 1.613 . S
S686 N688 1.610 . S
N687 S686 1.613 . S
N687 C690 1.350 . S
N688 S686 1.610 . S
N688 C689 1.351 . S
C689 C683 1.428 . S
C689 N688 1.351 . S
C689 C690 1.434 . S
C690 C681 1.429 . S
C690 N687 1.350 . S
C690 C689 1.434 . S
C691 C692 1.369 . S
C691 C693 1.419 . S
C691 H695 0.930 . S
C692 C691 1.369 . S
C692 C701 1.429 1_655 S
C693 C691 1.419 . S
C693 C694 1.363 1_655 S
C693 H696 0.929 . S
C694 C693 1.363 1_455 S
C694 C700 1.428 . S
H695 C691 0.930 . S
H696 C693 0.929 . S
S697 N698 1.613 . S
S697 N699 1.610 . S
N698 S697 1.613 . S
N698 C701 1.350 . S
N699 S697 1.610 . S
N699 C700 1.351 . S
C700 C694 1.428 . S
C700 N699 1.351 . S
C700 C701 1.434 . S
C701 C692 1.429 1_455 S
C701 N698 1.350 . S
C701 C700 1.434 . S
C702 C703 1.369 . S
C702 C704 1.419 . S
C702 H706 0.930 . S
C703 C702 1.369 . S
C703 C712 1.429 . S
C704 C702 1.419 . S
C704 C705 1.363 . S
C704 H707 0.929 . S
C705 C704 1.363 . S
C705 C711 1.428 . S
H706 C702 0.930 . S
H707 C704 0.929 . S
S708 N709 1.613 . S
S708 N710 1.610 . S
N709 S708 1.613 . S
N709 C712 1.350 . S
N710 S708 1.610 . S
N710 C711 1.351 . S
C711 C705 1.428 . S
C711 N710 1.351 . S
C711 C712 1.434 . S
C712 C703 1.429 . S
C712 N709 1.350 . S
C712 C711 1.434 . S
C713 C714 1.369 . S
C713 C715 1.419 . S
C713 H717 0.930 . S
C714 C713 1.369 . S
C714 C723 1.429 . S
C715 C713 1.419 . S
C715 C716 1.363 . S
C715 H718 0.929 . S
C716 C715 1.363 . S
C716 C722 1.428 . S
H717 C713 0.930 . S
H718 C715 0.929 . S
S719 N720 1.613 . S
S719 N721 1.610 . S
N720 S719 1.613 . S
N720 C723 1.350 . S
N721 S719 1.610 . S
N721 C722 1.351 . S
C722 C716 1.428 . S
C722 N721 1.351 . S
C722 C723 1.434 . S
C723 C714 1.429 . S
C723 N720 1.350 . S
C723 C722 1.434 . S
C724 C725 1.369 . S
C724 C726 1.419 . S
C724 H728 0.930 . S
C725 C724 1.369 . S
C725 C734 1.429 . S
C726 C724 1.419 . S
C726 C727 1.363 . S
C726 H729 0.929 . S
C727 C726 1.363 . S
C727 C733 1.428 . S
H728 C724 0.930 . S
H729 C726 0.929 . S
S730 N731 1.613 . S
S730 N732 1.610 . S
N731 S730 1.613 . S
N731 C734 1.350 . S
N732 S730 1.610 . S
N732 C733 1.351 . S
C733 C727 1.428 . S
C733 N732 1.351 . S
C733 C734 1.434 . S
C734 C725 1.429 . S
C734 N731 1.350 . S
C734 C733 1.434 . S
C735 C736 1.369 . S
C735 C737 1.419 1_545 S
C735 H739 0.930 . S
C736 C735 1.369 . S
C736 C745 1.429 . S
C737 C735 1.419 1_565 S
C737 C738 1.363 . S
C737 H740 0.929 . S
C738 C737 1.363 . S
C738 C744 1.428 . S
H739 C735 0.930 . S
H740 C737 0.929 . S
S741 N742 1.613 1_565 S
S741 N743 1.610 . S
N742 S741 1.613 1_545 S
N742 C745 1.350 . S
N743 S741 1.610 . S
N743 C744 1.351 . S
C744 C738 1.428 . S
C744 N743 1.351 . S
C744 C745 1.434 1_565 S
C745 C736 1.429 . S
C745 N742 1.350 . S
C745 C744 1.434 1_545 S
C746 C747 1.369 . S
C746 C748 1.419 . S
C746 H750 0.930 . S
C747 C746 1.369 . S
C747 C756 1.429 . S
C748 C746 1.419 . S
C748 C749 1.363 . S
C748 H751 0.929 . S
C749 C748 1.363 . S
C749 C755 1.428 . S
H750 C746 0.930 . S
H751 C748 0.929 . S
S752 N753 1.613 . S
S752 N754 1.610 . S
N753 S752 1.613 . S
N753 C756 1.350 . S
N754 S752 1.610 . S
N754 C755 1.351 . S
C755 C749 1.428 . S
C755 N754 1.351 . S
C755 C756 1.434 . S
C756 C747 1.429 . S
C756 N753 1.350 . S
C756 C755 1.434 . S
C757 C758 1.369 . S
C757 C759 1.419 . S
C757 H761 0.930 . S
C758 C757 1.369 . S
C758 C767 1.429 1_554 S
C759 C757 1.419 . S
C759 C760 1.363 1_554 S
C759 H762 0.929 . S
C760 C759 1.363 1_556 S
C760 C766 1.428 . S
H761 C757 0.930 . S
H762 C759 0.929 . S
S763 N764 1.613 . S
S763 N765 1.610 . S
N764 S763 1.613 . S
N764 C767 1.350 . S
N765 S763 1.610 . S
N765 C766 1.351 . S
C766 C760 1.428 . S
C766 N765 1.351 . S
C766 C767 1.434 . S
C767 C758 1.429 1_556 S
C767 N764 1.350 . S
C767 C766 1.434 . S
C768 C769 1.369 . S
C768 C770 1.419 . S
C768 H772 0.930 . S
C769 C768 1.369 . S
C769 C778 1.429 . S
C770 C768 1.419 . S
C770 C771 1.363 . S
C770 H773 0.929 . S
C771 C770 1.363 . S
C771 C777 1.428 . S
H772 C768 0.930 . S
H773 C770 0.929 . S
S774 N775 1.613 . S
S774 N776 1.610 . S
N775 S774 1.613 . S
N775 C778 1.350 . S
N776 S774 1.610 . S
N776 C777 1.351 . S
C777 C771 1.428 . S
C777 N776 1.351 . S
C777 C778 1.434 . S
C778 C769 1.429 . S
C778 N775 1.350 . S
C778 C777 1.434 . S
C779 C780 1.395 . S
C779 C781 1.419 . S
C779 H783 0.903 1_556 S
C780 C779 1.395 . S
C780 C789 1.429 . S
C781 C779 1.419 . S
C781 C782 1.363 . S
C781 H784 0.929 1_556 S
C782 C781 1.363 . S
C782 C788 1.428 . S
H783 C779 0.903 1_554 S
H784 C781 0.929 1_554 S
S785 N786 1.613 . S
S785 N787 1.610 . S
N786 S785 1.613 . S
N786 C789 1.350 . S
N787 S785 1.610 . S
N787 C788 1.351 . S
C788 C782 1.428 . S
C788 N787 1.351 . S
C788 C789 1.434 . S
C789 C780 1.429 . S
C789 N786 1.350 . S
C789 C788 1.434 . S
C790 C791 1.369 . S
C790 C792 1.419 . S
C790 H794 0.930 . S
C791 C790 1.369 . S
C791 C800 1.429 . S
C792 C790 1.419 . S
C792 C793 1.363 . S
C792 H795 0.929 . S
C793 C792 1.363 . S
C793 C799 1.428 . S
H794 C790 0.930 . S
H795 C792 0.929 . S
S796 N797 1.613 . S
S796 N798 1.610 . S
N797 S796 1.613 . S
N797 C800 1.350 . S
N798 S796 1.610 . S
N798 C799 1.351 . S
C799 C793 1.428 . S
C799 N798 1.351 . S
C799 C800 1.434 . S
C800 C791 1.429 . S
C800 N797 1.350 . S
C800 C799 1.434 . S
C801 C802 1.369 . S
C801 C803 1.419 . S
C801 H805 0.930 . S
C802 C801 1.369 . S
C802 C811 1.429 1_554 S
C803 C801 1.419 . S
C803 C804 1.363 . S
C803 H806 0.929 . S
C804 C803 1.363 . S
C804 C810 1.428 1_554 S
H805 C801 0.930 . S
H806 C803 0.929 . S
S807 N808 1.613 . S
S807 N809 1.610 . S
N808 S807 1.613 . S
N808 C811 1.350 . S
N809 S807 1.610 . S
N809 C810 1.351 . S
C810 C804 1.428 1_556 S
C810 N809 1.351 . S
C810 C811 1.434 . S
C811 C802 1.429 1_556 S
C811 N808 1.350 . S
C811 C810 1.434 . S
C812 C813 1.369 . S
C812 C814 1.419 . S
C812 H816 0.930 . S
C813 C812 1.369 . S
C813 C822 1.429 . S
C814 C812 1.419 . S
C814 C815 1.363 . S
C814 H817 0.929 . S
C815 C814 1.363 . S
C815 C821 1.428 . S
H816 C812 0.930 . S
H817 C814 0.929 . S
S818 N819 1.613 1_655 S
S818 N820 1.610 . S
N819 S818 1.613 1_455 S
N819 C822 1.350 . S
N820 S818 1.610 . S
N820 C821 1.351 1_655 S
C821 C815 1.428 . S
C821 N820 1.351 1_455 S
C821 C822 1.434 . S
C822 C813 1.429 . S
C822 N819 1.350 . S
C822 C821 1.434 . S
C823 C824 1.369 . S
C823 C825 1.419 . S
C823 H827 0.930 . S
C824 C823 1.369 . S
C824 C833 1.429 . S
C825 C823 1.419 . S
C825 C826 1.363 . S
C825 H828 0.929 . S
C826 C825 1.363 . S
C826 C832 1.428 . S
H827 C823 0.930 . S
H828 C825 0.929 . S
S829 N830 1.613 . S
S829 N831 1.610 . S
N830 S829 1.613 . S
N830 C833 1.350 . S
N831 S829 1.610 . S
N831 C832 1.351 . S
C832 C826 1.428 . S
C832 N831 1.351 . S
C832 C833 1.434 . S
C833 C824 1.429 . S
C833 N830 1.350 . S
C833 C832 1.434 . S
C834 C835 1.369 . S
C834 C836 1.419 . S
C834 H838 0.930 . S
C835 C834 1.369 . S
C835 C844 1.429 . S
C836 C834 1.419 . S
C836 C837 1.363 . S
C836 H839 0.929 . S
C837 C836 1.363 . S
C837 C843 1.428 . S
H838 C834 0.930 . S
H839 C836 0.929 . S
S840 N841 1.613 . S
S840 N842 1.610 . S
N841 S840 1.613 . S
N841 C844 1.350 . S
N842 S840 1.610 . S
N842 C843 1.351 . S
C843 C837 1.428 . S
C843 N842 1.351 . S
C843 C844 1.434 . S
C844 C835 1.429 . S
C844 N841 1.350 . S
C844 C843 1.434 . S
C845 C846 1.369 . S
C845 C847 1.419 . S
C845 H849 0.930 . S
C846 C845 1.369 . S
C846 C855 1.429 . S
C847 C845 1.419 . S
C847 C848 1.363 . S
C847 H850 0.929 . S
C848 C847 1.363 . S
C848 C854 1.428 . S
H849 C845 0.930 . S
H850 C847 0.929 . S
S851 N852 1.613 . S
S851 N853 1.610 . S
N852 S851 1.613 . S
N852 C855 1.350 . S
N853 S851 1.610 . S
N853 C854 1.351 . S
C854 C848 1.428 . S
C854 N853 1.351 . S
C854 C855 1.434 . S
C855 C846 1.429 . S
C855 N852 1.350 . S
C855 C854 1.434 . S
C856 C857 1.369 . S
C856 C858 1.419 . S
C856 H860 0.930 . S
C857 C856 1.369 . S
C857 C866 1.429 . S
C858 C856 1.419 . S
C858 C859 1.363 . S
C858 H861 0.929 . S
C859 C858 1.363 . S
C859 C865 1.428 . S
H860 C856 0.930 . S
H861 C858 0.929 . S
S862 N863 1.613 . S
S862 N864 1.610 . S
N863 S862 1.613 . S
N863 C866 1.350 . S
N864 S862 1.610 . S
N864 C865 1.351 . S
C865 C859 1.428 . S
C865 N864 1.351 . S
C865 C866 1.434 . S
C866 C857 1.429 . S
C866 N863 1.350 . S
C866 C865 1.434 . S
C867 C868 1.369 . S
C867 C869 1.419 . S
C867 H871 0.930 . S
C868 C867 1.369 . S
C868 C877 1.429 . S
C869 C867 1.419 . S
C869 C870 1.363 . S
C869 H872 0.929 . S
C870 C869 1.363 . S
C870 C876 1.428 . S
H871 C867 0.930 . S
H872 C869 0.929 . S
S873 N874 1.613 . S
S873 N875 1.610 . S
N874 S873 1.613 . S
N874 C877 1.350 . S
N875 S873 1.610 . S
N875 C876 1.351 . S
C876 C870 1.428 . S
C876 N875 1.351 . S
C876 C877 1.434 . S
C877 C868 1.429 . S
C877 N874 1.350 . S
C877 C876 1.434 . S
C878 C879 1.369 . S
C878 C880 1.419 . S
C878 H882 0.930 . S
C879 C878 1.369 . S
C879 C888 1.429 . S
C880 C878 1.419 . S
C880 C881 1.363 . S
C880 H883 0.929 . S
C881 C880 1.363 . S
C881 C887 1.428 . S
H882 C878 0.930 . S
H883 C880 0.929 . S
S884 N885 1.613 . S
S884 N886 1.610 . S
N885 S884 1.613 . S
N885 C888 1.350 . S
N886 S884 1.610 . S
N886 C887 1.351 . S
C887 C881 1.428 . S
C887 N886 1.351 . S
C887 C888 1.434 . S
C888 C879 1.429 . S
C888 N885 1.350 . S
C888 C887 1.434 . S
C889 C890 1.369 . S
C889 C891 1.419 . S
C889 H893 0.930 . S
C890 C889 1.369 . S
C890 C899 1.429 . S
C891 C889 1.419 . S
C891 C892 1.363 . S
C891 H894 0.929 . S
C892 C891 1.363 . S
C892 C898 1.428 . S
H893 C889 0.930 . S
H894 C891 0.929 . S
S895 N896 1.613 . S
S895 N897 1.610 . S
N896 S895 1.613 . S
N896 C899 1.350 . S
N897 S895 1.610 . S
N897 C898 1.351 . S
C898 C892 1.428 . S
C898 N897 1.351 . S
C898 C899 1.434 . S
C899 C890 1.429 . S
C899 N896 1.350 . S
C899 C898 1.434 . S
C900 C901 1.369 . S
C900 C902 1.419 . S
C900 H904 0.930 . S
C901 C900 1.369 . S
C901 C910 1.429 . S
C902 C900 1.419 . S
C902 C903 1.363 . S
C902 H905 0.929 . S
C903 C902 1.363 . S
C903 C909 1.428 . S
H904 C900 0.930 . S
H905 C902 0.929 . S
S906 N907 1.613 . S
S906 N908 1.610 . S
N907 S906 1.613 . S
N907 C910 1.350 . S
N908 S906 1.610 . S
N908 C909 1.351 . S
C909 C903 1.428 . S
C909 N908 1.351 . S
C909 C910 1.434 . S
C910 C901 1.429 . S
C910 N907 1.350 . S
C910 C909 1.434 . S
C911 C912 1.369 . S
C911 C913 1.419 . S
C911 H915 0.930 . S
C912 C911 1.369 . S
C912 C921 1.435 . S
C913 C911 1.419 . S
C913 C914 1.363 . S
C913 H916 0.929 . S
C914 C913 1.363 . S
C914 C920 1.439 . S
H915 C911 0.930 . S
H916 C913 0.929 . S
S917 N918 1.613 . S
S917 N919 1.610 . S
N918 S917 1.613 . S
N918 C921 1.343 1_554 S
N919 S917 1.610 . S
N919 C920 1.339 1_554 S
C920 C914 1.439 . S
C920 N919 1.339 1_556 S
C920 C921 1.434 . S
C921 C912 1.435 . S
C921 N918 1.343 1_556 S
C921 C920 1.434 . S
C922 C923 1.369 . S
C922 C924 1.419 . S
C922 H926 0.930 . S
C923 C922 1.369 . S
C923 C932 1.429 . S
C924 C922 1.419 . S
C924 C925 1.363 . S
C924 H927 0.929 . S
C925 C924 1.363 . S
C925 C931 1.428 . S
H926 C922 0.930 . S
H927 C924 0.929 . S
S928 N929 1.613 . S
S928 N930 1.610 . S
N929 S928 1.613 . S
N929 C932 1.350 . S
N930 S928 1.610 . S
N930 C931 1.351 . S
C931 C925 1.428 . S
C931 N930 1.351 . S
C931 C932 1.434 . S
C932 C923 1.429 . S
C932 N929 1.350 . S
C932 C931 1.434 . S
C933 C934 1.369 . S
C933 C935 1.419 . S
C933 H937 0.930 . S
C934 C933 1.369 . S
C934 C943 1.429 1_554 S
C935 C933 1.419 . S
C935 C936 1.363 . S
C935 H938 0.929 . S
C936 C935 1.363 . S
C936 C942 1.428 1_554 S
H937 C933 0.930 . S
H938 C935 0.929 . S
S939 N940 1.613 . S
S939 N941 1.610 . S
N940 S939 1.613 . S
N940 C943 1.350 . S
N941 S939 1.610 . S
N941 C942 1.351 . S
C942 C936 1.428 1_556 S
C942 N941 1.351 . S
C942 C943 1.434 . S
C943 C934 1.429 1_556 S
C943 N940 1.350 . S
C943 C942 1.434 . S
C944 C945 1.369 . S
C944 C946 1.419 . S
C944 H948 0.930 . S
C945 C944 1.369 . S
C945 C954 1.429 . S
C946 C944 1.419 . S
C946 C947 1.363 . S
C946 H949 0.929 . S
C947 C946 1.363 . S
C947 C953 1.428 . S
H948 C944 0.930 . S
H949 C946 0.929 . S
S950 N951 1.627 . S
S950 N952 1.625 . S
N951 S950 1.627 . S
N951 C954 1.350 . S
N952 S950 1.625 . S
N952 C953 1.351 . S
C953 C947 1.428 . S
C953 N952 1.351 . S
C953 C954 1.434 . S
C954 C945 1.429 . S
C954 N951 1.350 . S
C954 C953 1.434 . S
C955 C956 1.369 . S
C955 C957 1.419 . S
C955 H959 0.930 . S
C956 C955 1.369 . S
C956 C965 1.429 . S
C957 C955 1.419 . S
C957 C958 1.363 . S
C957 H960 0.929 . S
C958 C957 1.363 . S
C958 C964 1.428 . S
H959 C955 0.930 . S
H960 C957 0.929 . S
S961 N962 1.613 . S
S961 N963 1.610 . S
N962 S961 1.613 . S
N962 C965 1.350 . S
N963 S961 1.610 . S
N963 C964 1.351 . S
C964 C958 1.428 . S
C964 N963 1.351 . S
C964 C965 1.434 . S
C965 C956 1.429 . S
C965 N962 1.350 . S
C965 C964 1.434 . S
C966 C967 1.369 . S
C966 C968 1.419 . S
C966 H970 0.930 . S
C967 C966 1.369 . S
C967 C976 1.429 . S
C968 C966 1.419 . S
C968 C969 1.363 . S
C968 H971 0.929 . S
C969 C968 1.363 . S
C969 C975 1.428 . S
H970 C966 0.930 . S
H971 C968 0.929 . S
S972 N973 1.612 . S
S972 N974 1.610 1_655 S
N973 S972 1.612 . S
N973 C976 1.350 . S
N974 S972 1.610 1_455 S
N974 C975 1.342 1_455 S
C975 C969 1.428 . S
C975 N974 1.342 1_655 S
C975 C976 1.434 . S
C976 C967 1.429 . S
C976 N973 1.350 . S
C976 C975 1.434 . S
C977 C978 1.369 . S
C977 C979 1.419 . S
C977 H981 0.930 . S
C978 C977 1.369 . S
C978 C987 1.429 . S
C979 C977 1.419 . S
C979 C980 1.363 . S
C979 H982 0.929 . S
C980 C979 1.363 . S
C980 C986 1.428 . S
H981 C977 0.930 . S
H982 C979 0.929 . S
S983 N984 1.613 . S
S983 N985 1.610 . S
N984 S983 1.613 . S
N984 C987 1.350 . S
N985 S983 1.610 . S
N985 C986 1.351 . S
C986 C980 1.428 . S
C986 N985 1.351 . S
C986 C987 1.434 . S
C987 C978 1.429 . S
C987 N984 1.350 . S
C987 C986 1.434 . S
C988 C989 1.369 . S
C988 C990 1.419 . S
C988 H992 0.930 . S
C989 C988 1.369 . S
C989 C998 1.429 . S
C990 C988 1.419 . S
C990 C991 1.363 . S
C990 H993 0.929 . S
C991 C990 1.363 . S
C991 C997 1.428 . S
H992 C988 0.930 . S
H993 C990 0.929 . S
S994 N995 1.613 . S
S994 N996 1.610 . S
N995 S994 1.613 . S
N995 C998 1.350 . S
N996 S994 1.610 . S
N996 C997 1.351 . S
C997 C991 1.428 . S
C997 N996 1.351 . S
C997 C998 1.434 . S
C998 C989 1.429 . S
C998 N995 1.350 . S
C998 C997 1.434 . S
C999 C1000 1.369 . S
C999 C1001 1.419 . S
C999 H1003 0.930 . S
C1000 C999 1.369 . S
C1000 C1009 1.429 . S
C1001 C999 1.419 . S
C1001 C1002 1.363 . S
C1001 H1004 0.929 . S
C1002 C1001 1.363 . S
C1002 C1008 1.428 . S
H1003 C999 0.930 . S
H1004 C1001 0.929 . S
S1005 N1006 1.613 . S
S1005 N1007 1.610 . S
N1006 S1005 1.613 . S
N1006 C1009 1.350 . S
N1007 S1005 1.610 . S
N1007 C1008 1.351 . S
C1008 C1002 1.428 . S
C1008 N1007 1.351 . S
C1008 C1009 1.434 . S
C1009 C1000 1.429 . S
C1009 N1006 1.350 . S
C1009 C1008 1.434 . S
C1010 C1011 1.369 . S
C1010 C1012 1.419 . S
C1010 H1014 0.930 . S
C1011 C1010 1.369 . S
C1011 C1020 1.429 . S
C1012 C1010 1.419 . S
C1012 C1013 1.363 . S
C1012 H1015 0.929 . S
C1013 C1012 1.363 . S
C1013 C1019 1.428 . S
H1014 C1010 0.930 . S
H1015 C1012 0.929 . S
S1016 N1017 1.613 . S
S1016 N1018 1.610 . S
N1017 S1016 1.613 . S
N1017 C1020 1.350 . S
N1018 S1016 1.610 . S
N1018 C1019 1.351 . S
C1019 C1013 1.428 . S
C1019 N1018 1.351 . S
C1019 C1020 1.434 . S
C1020 C1011 1.429 . S
C1020 N1017 1.350 . S
C1020 C1019 1.434 . S
C1021 C1022 1.369 . S
C1021 C1023 1.419 . S
C1021 H1025 0.930 . S
C1022 C1021 1.369 . S
C1022 C1031 1.429 . S
C1023 C1021 1.419 . S
C1023 C1024 1.363 . S
C1023 H1026 0.929 . S
C1024 C1023 1.363 . S
C1024 C1030 1.428 . S
H1025 C1021 0.930 . S
H1026 C1023 0.929 . S
S1027 N1028 1.613 . S
S1027 N1029 1.610 . S
N1028 S1027 1.613 . S
N1028 C1031 1.350 . S
N1029 S1027 1.610 . S
N1029 C1030 1.351 . S
C1030 C1024 1.428 . S
C1030 N1029 1.351 . S
C1030 C1031 1.434 . S
C1031 C1022 1.429 . S
C1031 N1028 1.350 . S
C1031 C1030 1.434 . S
C1032 C1033 1.369 . S
C1032 C1034 1.419 . S
C1032 H1036 0.930 . S
C1033 C1032 1.369 . S
C1033 C1042 1.429 . S
C1034 C1032 1.419 . S
C1034 C1035 1.363 . S
C1034 H1037 0.929 . S
C1035 C1034 1.363 . S
C1035 C1041 1.428 . S
H1036 C1032 0.930 . S
H1037 C1034 0.929 . S
S1038 N1039 1.613 . S
S1038 N1040 1.610 . S
N1039 S1038 1.613 . S
N1039 C1042 1.350 . S
N1040 S1038 1.610 . S
N1040 C1041 1.351 . S
C1041 C1035 1.428 . S
C1041 N1040 1.351 . S
C1041 C1042 1.434 . S
C1042 C1033 1.429 . S
C1042 N1039 1.350 . S
C1042 C1041 1.434 . S
C1043 C1044 1.369 . S
C1043 C1045 1.419 . S
C1043 H1047 0.930 . S
C1044 C1043 1.369 . S
C1044 C1053 1.429 . S
C1045 C1043 1.419 . S
C1045 C1046 1.363 . S
C1045 H1048 0.929 . S
C1046 C1045 1.363 . S
C1046 C1052 1.428 . S
H1047 C1043 0.930 . S
H1048 C1045 0.929 . S
S1049 N1050 1.613 . S
S1049 N1051 1.610 . S
N1050 S1049 1.613 . S
N1050 C1053 1.350 . S
N1051 S1049 1.610 . S
N1051 C1052 1.351 . S
C1052 C1046 1.428 . S
C1052 N1051 1.351 . S
C1052 C1053 1.434 . S
C1053 C1044 1.429 . S
C1053 N1050 1.350 . S
C1053 C1052 1.434 . S
C1054 C1055 1.369 . S
C1054 C1056 1.419 . S
C1054 H1058 0.930 . S
C1055 C1054 1.369 . S
C1055 C1064 1.429 . S
C1056 C1054 1.419 . S
C1056 C1057 1.363 . S
C1056 H1059 0.929 . S
C1057 C1056 1.363 . S
C1057 C1063 1.428 . S
H1058 C1054 0.930 . S
H1059 C1056 0.929 . S
S1060 N1061 1.613 . S
S1060 N1062 1.610 1_455 S
N1061 S1060 1.613 . S
N1061 C1064 1.350 1_455 S
N1062 S1060 1.610 1_655 S
N1062 C1063 1.351 . S
C1063 C1057 1.428 . S
C1063 N1062 1.351 . S
C1063 C1064 1.434 . S
C1064 C1055 1.429 . S
C1064 N1061 1.350 1_655 S
C1064 C1063 1.434 . S
C1065 C1066 1.369 . S
C1065 C1067 1.419 . S
C1065 H1069 0.930 . S
C1066 C1065 1.369 . S
C1066 C1075 1.429 . S
C1067 C1065 1.419 . S
C1067 C1068 1.363 . S
C1067 H1070 0.929 . S
C1068 C1067 1.363 . S
C1068 C1074 1.428 . S
H1069 C1065 0.930 . S
H1070 C1067 0.929 . S
S1071 N1072 1.613 . S
S1071 N1073 1.610 . S
N1072 S1071 1.613 . S
N1072 C1075 1.350 . S
N1073 S1071 1.610 . S
N1073 C1074 1.351 . S
C1074 C1068 1.428 . S
C1074 N1073 1.351 . S
C1074 C1075 1.434 . S
C1075 C1066 1.429 . S
C1075 N1072 1.350 . S
C1075 C1074 1.434 . S
C1076 C1077 1.369 . S
C1076 C1078 1.419 . S
C1076 H1080 0.930 . S
C1077 C1076 1.369 . S
C1077 C1086 1.429 . S
C1078 C1076 1.419 . S
C1078 C1079 1.363 . S
C1078 H1081 0.929 . S
C1079 C1078 1.363 . S
C1079 C1085 1.428 . S
H1080 C1076 0.930 . S
H1081 C1078 0.929 . S
S1082 N1083 1.613 . S
S1082 N1084 1.610 . S
N1083 S1082 1.613 . S
N1083 C1086 1.350 . S
N1084 S1082 1.610 . S
N1084 C1085 1.351 . S
C1085 C1079 1.428 . S
C1085 N1084 1.351 . S
C1085 C1086 1.434 . S
C1086 C1077 1.429 . S
C1086 N1083 1.350 . S
C1086 C1085 1.434 . S
C1087 C1088 1.369 . S
C1087 C1089 1.419 . S
C1087 H1091 0.930 . S
C1088 C1087 1.369 . S
C1088 C1097 1.429 . S
C1089 C1087 1.419 . S
C1089 C1090 1.363 . S
C1089 H1092 0.929 . S
C1090 C1089 1.363 . S
C1090 C1096 1.428 . S
H1091 C1087 0.930 . S
H1092 C1089 0.929 . S
S1093 N1094 1.613 . S
S1093 N1095 1.610 . S
N1094 S1093 1.613 . S
N1094 C1097 1.350 . S
N1095 S1093 1.610 . S
N1095 C1096 1.351 . S
C1096 C1090 1.428 . S
C1096 N1095 1.351 . S
C1096 C1097 1.434 . S
C1097 C1088 1.429 . S
C1097 N1094 1.350 . S
C1097 C1096 1.434 . S
C1098 C1099 1.369 . S
C1098 C1100 1.419 . S
C1098 H1102 0.930 . S
C1099 C1098 1.369 . S
C1099 C1108 1.429 . S
C1100 C1098 1.419 . S
C1100 C1101 1.363 . S
C1100 H1103 0.929 . S
C1101 C1100 1.363 . S
C1101 C1107 1.428 . S
H1102 C1098 0.930 . S
H1103 C1100 0.929 . S
S1104 N1105 1.613 . S
S1104 N1106 1.610 . S
N1105 S1104 1.613 . S
N1105 C1108 1.350 . S
N1106 S1104 1.610 . S
N1106 C1107 1.351 . S
C1107 C1101 1.428 . S
C1107 N1106 1.351 . S
C1107 C1108 1.434 . S
C1108 C1099 1.429 . S
C1108 N1105 1.350 . S
C1108 C1107 1.434 . S
C1109 C1110 1.369 . S
C1109 C1111 1.419 . S
C1109 H1113 0.930 . S
C1110 C1109 1.369 . S
C1110 C1119 1.429 . S
C1111 C1109 1.419 . S
C1111 C1112 1.363 . S
C1111 H1114 0.929 . S
C1112 C1111 1.363 . S
C1112 C1118 1.428 . S
H1113 C1109 0.930 . S
H1114 C1111 0.929 . S
S1115 N1116 1.613 . S
S1115 N1117 1.610 . S
N1116 S1115 1.613 . S
N1116 C1119 1.350 . S
N1117 S1115 1.610 . S
N1117 C1118 1.351 . S
C1118 C1112 1.428 . S
C1118 N1117 1.351 . S
C1118 C1119 1.434 . S
C1119 C1110 1.429 . S
C1119 N1116 1.350 . S
C1119 C1118 1.434 . S
C417 C44 1.065 . S
C419 C5 1.071 . S
C428 C31 1.062 . S
C430 C18 1.071 . S
C439 C96 1.058 . S
C441 C57 1.075 . S
C450 C83 1.079 . S
C452 C70 1.060 . S
C461 C109 1.064 . S
C463 C148 1.072 . S
C472 C122 1.072 . S
C474 C135 1.064 . S
C483 C200 1.070 . S
C485 C161 1.066 . S
C494 C174 1.059 . S
C496 C187 1.075 . S
C505 C213 1.057 . S
C507 C252 1.076 . S
C516 C226 1.076 . S
C518 C239 1.061 . S
C527 C304 1.079 . S
C529 C265 1.060 . S
C538 C291 1.068 . S
C540 C278 1.068 . S
C549 C356 1.062 . S
C551 C317 1.073 . S
C560 C330 1.078 . S
C562 C343 1.060 . S
C571 C369 1.079 . S
C573 C408 1.059 . S
C582 C382 1.068 . S
C584 C395 1.068 . S
C593 C270 1.373 . S
C595 C10 1.376 . S
C604 C179 1.369 . S
C606 C23 1.379 . S
C615 C36 1.370 . S
C617 C400 1.378 . S
C626 C49 1.369 . S
C628 C101 1.379 . S
C637 C218 1.379 . S
C639 C62 1.371 . S
C648 C127 1.380 . S
C650 C75 1.371 . S
C659 C348 1.376 . S
C661 C88 1.374 . S
C670 C114 1.376 . S
C672 C374 1.373 . S
C681 C296 1.370 . S
C683 C140 1.379 . S
C692 C205 1.380 . S
C694 C153 1.371 . S
C703 C322 1.380 . S
C705 C166 1.370 . S
C714 C192 1.378 . S
C716 C244 1.372 . S
C725 C387 1.380 . S
C727 C231 1.370 . S
C736 C257 1.379 . S
C738 C309 1.371 . S
C747 C335 1.380 . S
C749 C283 1.371 . S
C758 C413 1.369 . S
C760 C361 1.379 . S
C769 C21 1.361 . S
C771 C8 1.366 . S
C780 C34 1.372 . S
C782 C47 1.371 . S
C791 C60 1.361 . S
C793 C73 1.363 . S
C802 C99 1.362 . S
C804 C86 1.363 . S
C813 C112 1.361 . S
C815 C125 1.367 . S
C824 C138 1.373 . S
C826 C151 1.371 . S
C835 C177 1.370 . S
C837 C164 1.372 . S
C846 C190 1.361 . S
C848 C203 1.364 . S
C857 C216 1.367 . S
C859 C229 1.362 . S
C868 C242 1.373 . S
C870 C255 1.370 . S
C879 C268 1.361 . S
C881 C281 1.364 . S
C890 C307 1.361 . S
C892 C294 1.365 . S
C901 C333 1.374 . S
C903 C320 1.368 . S
C912 C346 1.362 . S
C914 C359 1.364 . S
C923 C372 1.361 . S
C925 C385 1.364 . S
C934 C411 1.361 . S
C936 C398 1.364 . S
C945 C0 1.485 . S
C947 C247 1.484 . S
C956 C13 1.484 . S
C958 C234 1.485 . S
C967 C221 1.489 . S
C969 C26 1.484 . S
C978 C39 1.488 . S
C980 C208 1.485 . S
C989 C299 1.490 . S
C991 C52 1.484 . S
C1000 C65 1.484 . S
C1002 C286 1.489 . S
C1011 C273 1.490 . S
C1013 C78 1.483 . S
C1022 C91 1.486 . S
C1024 C260 1.483 . S
C1033 C104 1.484 . S
C1035 C351 1.485 . S
C1044 C117 1.487 . S
C1046 C338 1.483 . S
C1055 C130 1.481 . S
C1057 C325 1.488 . S
C1066 C312 1.485 . S
C1068 C143 1.484 . S
C1077 C156 1.490 . S
C1079 C403 1.482 . S
C1088 C169 1.483 . S
C1090 C390 1.489 . S
C1099 C182 1.486 . S
C1101 C377 1.483 . S
C1110 C364 1.485 . S
C1112 C195 1.488 . S
