# Generated by pormake.
# Topology umm, (4)-cn, num edge types: 1
# Building blocks:
#     Node 0, Type 0, BuildingBlock: ESEHIV_clean_sbu_0, # of connection points: 4
#     Node 1, Type 0, BuildingBlock: ESEHIV_clean_sbu_0, # of connection points: 4
#     Node 2, Type 0, BuildingBlock: ESEHIV_clean_sbu_0, # of connection points: 4
#     Node 3, Type 0, BuildingBlock: ESEHIV_clean_sbu_0, # of connection points: 4
#     Node 4, Type 0, BuildingBlock: ESEHIV_clean_sbu_0, # of connection points: 4
#     Node 5, Type 0, BuildingBlock: ESEHIV_clean_sbu_0, # of connection points: 4
#     Node 6, Type 0, BuildingBlock: ESEHIV_clean_sbu_0, # of connection points: 4
#     Node 7, Type 0, BuildingBlock: ESEHIV_clean_sbu_0, # of connection points: 4
#     Node 8, Type 0, BuildingBlock: ESEHIV_clean_sbu_0, # of connection points: 4
#     Node 9, Type 0, BuildingBlock: ESEHIV_clean_sbu_0, # of connection points: 4
#     Node 10, Type 0, BuildingBlock: ESEHIV_clean_sbu_0, # of connection points: 4
#     Node 11, Type 0, BuildingBlock: ESEHIV_clean_sbu_0, # of connection points: 4
#     Edge 12, Type (0, 0), BuildingBlock: XIVTED_clean_linker_0, # of connection points: 2
#     Edge 13, Type (0, 0), BuildingBlock: XIVTED_clean_linker_0, # of connection points: 2
#     Edge 14, Type (0, 0), BuildingBlock: XIVTED_clean_linker_0, # of connection points: 2
#     Edge 15, Type (0, 0), BuildingBlock: XIVTED_clean_linker_0, # of connection points: 2
#     Edge 16, Type (0, 0), BuildingBlock: XIVTED_clean_linker_0, # of connection points: 2
#     Edge 17, Type (0, 0), BuildingBlock: XIVTED_clean_linker_0, # of connection points: 2
#     Edge 18, Type (0, 0), BuildingBlock: XIVTED_clean_linker_0, # of connection points: 2
#     Edge 19, Type (0, 0), BuildingBlock: XIVTED_clean_linker_0, # of connection points: 2
#     Edge 20, Type (0, 0), BuildingBlock: XIVTED_clean_linker_0, # of connection points: 2
#     Edge 21, Type (0, 0), BuildingBlock: XIVTED_clean_linker_0, # of connection points: 2
#     Edge 22, Type (0, 0), BuildingBlock: XIVTED_clean_linker_0, # of connection points: 2
#     Edge 23, Type (0, 0), BuildingBlock: XIVTED_clean_linker_0, # of connection points: 2
#     Edge 24, Type (0, 0), BuildingBlock: XIVTED_clean_linker_0, # of connection points: 2
#     Edge 25, Type (0, 0), BuildingBlock: XIVTED_clean_linker_0, # of connection points: 2
#     Edge 26, Type (0, 0), BuildingBlock: XIVTED_clean_linker_0, # of connection points: 2
#     Edge 27, Type (0, 0), BuildingBlock: XIVTED_clean_linker_0, # of connection points: 2
#     Edge 28, Type (0, 0), BuildingBlock: XIVTED_clean_linker_0, # of connection points: 2
#     Edge 29, Type (0, 0), BuildingBlock: XIVTED_clean_linker_0, # of connection points: 2
#     Edge 30, Type (0, 0), BuildingBlock: XIVTED_clean_linker_0, # of connection points: 2
#     Edge 31, Type (0, 0), BuildingBlock: XIVTED_clean_linker_0, # of connection points: 2
#     Edge 32, Type (0, 0), BuildingBlock: XIVTED_clean_linker_0, # of connection points: 2
#     Edge 33, Type (0, 0), BuildingBlock: XIVTED_clean_linker_0, # of connection points: 2
#     Edge 34, Type (0, 0), BuildingBlock: XIVTED_clean_linker_0, # of connection points: 2
#     Edge 35, Type (0, 0), BuildingBlock: XIVTED_clean_linker_0, # of connection points: 2
# Relax obj value: 0.042
# Max RMSD: 0.104
# Mean RMSD: 0.104
data_MOF--net-umm--node1-ESEHIV_clean_sbu_0--edge1-XIVTED_clean_linker_0
_symmetry_space_group_name_H-M    P1
_symmetry_Int_Tables_number       1
_symmetry_cell_setting            triclinic
loop_
_symmetry_equiv_pos_as_xyz
'x, y, z'
_cell_length_a     66.489284
_cell_length_b     66.373921
_cell_length_c     28.648765
_cell_angle_alpha  89.796506
_cell_angle_beta   90.18081
_cell_angle_gamma 119.77496
loop_
_atom_site_label
_atom_site_type_symbol
_atom_site_fract_x
_atom_site_fract_y
_atom_site_fract_z
_atom_type_partial_charge
Cu0 Cu 0.40339 0.54728 0.10349 0.0
N1 N 0.4114 0.52443 0.11402 0.0
N2 N 0.43627 0.51112 0.12229 0.0
C3 C 0.43294 0.52953 0.12638 0.0
C4 C 0.41569 0.49358 0.1073 0.0
C5 C 0.40043 0.5019 0.10191 0.0
O6 O 0.41669 0.56872 0.15573 0.0
C7 C 0.4183 0.5769 1.01988 0.0
O8 O 0.41211 0.59084 0.03945 0.0
H9 H 0.44622 0.54688 0.13577 0.0
H10 H 0.38319 0.49263 0.08715 0.0
N11 N 0.37124 0.53525 0.10072 0.0
N12 N 0.33716 0.53332 0.08691 0.0
C13 C 0.36039 0.54587 0.08164 0.0
C14 C 0.35426 0.51521 0.11858 0.0
C15 C 0.33323 0.514 0.11026 0.0
C16 C 0.40696 0.56114 0.19518 0.0
O17 O 0.38802 0.54078 0.19695 0.0
H18 H 0.36939 0.56273 0.06511 0.0
H19 H 0.357 0.50251 0.13698 0.0
O20 O 0.41659 0.5596 0.04253 0.0
H21 H 0.41229 0.47642 0.09776 0.0
H22 H 0.31636 0.49992 0.12022 0.0
Cu23 Cu 0.87891 0.40816 0.42215 0.0
N24 N 0.90912 0.41286 0.42307 0.0
N25 N 0.94784 0.43044 0.42679 0.0
C26 C 0.92898 0.43314 0.42913 0.0
C27 C 0.93944 0.40761 0.41882 0.0
C28 C 0.91564 0.39687 0.41632 0.0
O29 O 0.87291 0.41706 0.4833 0.0
C30 C 0.85853 0.4237 0.35011 0.0
O31 O 0.83978 0.41523 0.37597 0.0
H32 H 0.92954 0.44949 0.4352 0.0
H33 H 0.90395 0.37871 0.40926 0.0
N34 N 0.85785 0.3763 0.41786 0.0
N35 N 0.82558 0.3425 0.40414 0.0
C36 C 0.83793 0.36532 0.39324 0.0
C37 C 0.85802 0.35988 0.44522 0.0
C38 C 0.83829 0.33904 0.43665 0.0
C39 C 0.87925 0.43693 0.50077 0.0
O40 O 0.89018 0.4556 0.47465 0.0
H41 H 0.83234 0.37387 0.36858 0.0
H42 H 0.87114 0.36309 0.47114 0.0
O43 O 0.8765 0.42378 0.36597 0.0
H44 H 0.94978 0.39933 0.41386 0.0
H45 H 0.83317 0.32286 0.45473 0.0
Cu46 Cu 0.48843 0.86371 0.78611 0.0
N47 N 0.5122 0.8943 0.77989 0.0
N48 N 0.52987 0.933 0.77585 0.0
C49 C 0.50973 0.91315 0.78352 0.0
C50 C 0.54556 0.9262 0.76691 0.0
C51 C 0.53458 0.9023 0.76934 0.0
O52 O 0.47203 0.86106 0.84483 0.0
C53 C 0.45803 0.83917 0.70742 0.0
O54 O 0.45424 0.81956 0.72645 0.0
H55 H 0.49344 0.91216 0.79216 0.0
H56 H 0.54228 0.8915 0.76341 0.0
N57 N 0.50107 0.84407 0.79052 0.0
N58 N 0.51085 0.81693 0.77627 0.0
C59 C 0.503 0.83054 0.7578 0.0
C60 C 0.50842 0.83919 0.83053 0.0
C61 C 0.51441 0.8225 0.82194 0.0
C62 C 0.48418 0.8724 0.88007 0.0
O63 O 0.50666 0.8857 0.87489 0.0
H64 H 0.49785 0.82992 0.72175 0.0
H65 H 0.50872 0.84669 0.8641 0.0
O66 O 0.47013 0.85816 0.72923 0.0
H67 H 0.56361 0.93757 0.7584 0.0
H68 H 0.52049 0.81473 0.84759 0.0
Cu69 Cu 0.6259 0.48049 0.11606 0.0
N70 N 0.61277 0.49966 0.11348 0.0
N71 N 0.58639 0.5112 0.11673 0.0
C72 C 0.59126 0.4942 0.12709 0.0
C73 C 0.60578 0.52811 0.09632 0.0
C74 C 0.62197 0.52092 0.0943 0.0
O75 O 0.61625 0.46245 0.1737 0.0
C76 C 0.59817 0.45406 0.03855 0.0
O77 O 0.58168 0.4565 0.05811 0.0
H78 H 0.57931 0.47782 0.14334 0.0
H79 H 0.63899 0.53021 0.07866 0.0
N80 N 0.65817 0.49831 0.11539 0.0
N81 N 0.69476 0.50914 0.09679 0.0
C82 C 0.6722 0.4935 0.08985 0.0
C83 C 0.67232 0.51778 0.13916 0.0
C84 C 0.69497 0.52443 0.12794 0.0
C85 C 0.62037 0.47361 0.21194 0.0
O86 O 0.63036 0.49634 0.2104 0.0
H87 H 0.66595 0.47861 0.06703 0.0
H88 H 0.66662 0.52663 0.16269 0.0
O89 O 0.61747 0.46166 0.05958 0.0
H90 H 0.60784 0.54414 0.08204 0.0
H91 H 0.71033 0.53955 0.14096 0.0
Cu92 Cu 0.16539 0.61783 0.44138 0.0
N93 N 0.14785 0.58541 0.44358 0.0
N94 N 0.1158 0.55038 0.44309 0.0
C95 C 0.12472 0.5735 0.43753 0.0
C96 C 0.13425 0.54774 0.4532 0.0
C97 C 0.15397 0.56937 0.45363 0.0
O98 O 0.16367 0.62938 0.50267 0.0
C99 C 0.1561 0.61944 0.35139 0.0
O100 O 0.16321 0.6042 0.35308 0.0
H101 H 0.11465 0.5819 0.43049 0.0
H102 H 0.17137 0.57311 0.46164 0.0
N103 N 0.19674 0.63026 0.4263 0.0
N104 N 0.23133 0.65832 0.40171 0.0
C105 C 0.20988 0.65287 0.41567 0.0
C106 C 0.21033 0.62086 0.41896 0.0
C107 C 0.23184 0.63825 0.40408 0.0
C108 C 0.17696 0.62792 0.53295 0.0
O109 O 0.19016 0.61935 0.52024 0.0
H110 H 0.20352 0.66502 0.41752 0.0
H111 H 0.2049 0.60266 0.42273 0.0
O112 O 0.15403 0.62816 0.38936 0.0
H113 H 0.13367 0.53142 0.46004 0.0
H114 H 0.24635 0.6361 0.39411 0.0
Cu115 Cu 0.59777 0.16257 0.77363 0.0
N116 N 0.57356 0.1327 0.78569 0.0
N117 N 0.55488 0.09399 0.78961 0.0
C118 C 0.57338 0.11319 0.7726 0.0
C119 C 0.54262 0.10172 0.81365 0.0
C120 C 0.55426 0.12568 0.81127 0.0
O121 O 0.62042 0.17076 0.82346 0.0
C122 C 0.62827 0.17474 0.69269 0.0
O123 O 0.64303 0.19428 0.71309 0.0
H124 H 0.58699 0.11318 0.75194 0.0
H125 H 0.5494 0.13715 0.82825 0.0
N126 N 0.58688 0.18365 0.77654 0.0
N127 N 0.57825 0.21167 0.7625 0.0
C128 C 0.5853 0.1975 0.74376 0.0
C129 C 0.58051 0.18918 0.81683 0.0
C130 C 0.57519 0.20637 0.80837 0.0
C131 C 0.6259 0.15662 0.84178 0.0
O132 O 0.6186 0.13625 0.82245 0.0
H133 H 0.58995 0.19776 0.7075 0.0
H134 H 0.58024 0.18148 0.85034 0.0
O135 O 0.6093 0.16086 0.7127 0.0
H136 H 0.52698 0.09094 0.83328 0.0
H137 H 0.56957 0.21444 0.83408 0.0
Cu138 Cu 0.48981 0.61725 0.60373 0.0
N139 N 0.5086 0.60378 0.60965 0.0
N140 N 0.51876 0.57638 0.61247 0.0
C141 C 0.50428 0.58293 0.59349 0.0
C142 C 0.53284 0.59383 0.64118 0.0
C143 C 0.52659 0.61074 0.63922 0.0
O144 O 0.47253 0.60782 0.54531 0.0
C145 C 0.46305 0.59022 0.68139 0.0
O146 O 0.46677 0.57402 0.66432 0.0
H147 H 0.48962 0.57196 0.57147 0.0
H148 H 0.53364 0.62632 0.66015 0.0
N149 N 0.50774 0.64956 0.60479 0.0
N150 N 0.51814 0.68619 0.62284 0.0
C151 C 0.50222 0.66358 0.62855 0.0
C152 C 0.52794 0.66374 0.58337 0.0
C153 C 0.53435 0.68642 0.59425 0.0
C154 C 0.48376 0.61255 0.50711 0.0
O155 O 0.50648 0.62286 0.50868 0.0
H156 H 0.48665 0.65727 0.64928 0.0
H157 H 0.53743 0.65803 0.56169 0.0
O158 O 0.47001 0.60904 0.65869 0.0
H159 H 0.546 0.59384 0.66357 0.0
H160 H 0.54992 0.7018 0.58283 0.0
Cu161 Cu 0.87156 0.48156 0.92537 0.0
N162 N 0.90278 0.50381 0.92093 0.0
N163 N 0.94129 0.51958 0.91878 0.0
C164 C 0.92076 0.49998 0.92515 0.0
C165 C 0.93589 0.53639 0.91052 0.0
C166 C 0.91213 0.5266 0.91188 0.0
O167 O 0.86325 0.46422 0.86671 0.0
C168 C 0.84932 0.45206 1.00607 0.0
O169 O 0.82942 0.44655 0.98616 0.0
H170 H 0.91871 0.48303 0.93201 0.0
H171 H 0.90237 0.53547 0.90652 0.0
N172 N 0.85432 0.49679 0.92645 0.0
N173 N 0.82842 0.50768 0.94425 0.0
C174 C 0.84031 0.49735 0.95977 0.0
C175 C 0.85145 0.50745 0.88912 0.0
C176 C 0.83552 0.51417 0.89991 0.0
C177 C 0.87309 0.4538 0.84883 0.0
O178 O 0.88782 0.45061 0.87399 0.0
H179 H 0.83799 0.48938 0.99378 0.0
H180 H 0.85978 0.50939 0.85572 0.0
O181 O 0.86809 0.46479 0.98401 0.0
H182 H 0.94816 0.55453 0.90432 0.0
H183 H 0.8292 0.52264 0.87652 0.0
Cu184 Cu 0.41553 0.87206 0.29101 0.0
N185 N 0.41903 0.90183 0.28949 0.0
N186 N 0.43571 0.94053 0.28483 0.0
C187 C 0.43902 0.92201 0.28394 0.0
C188 C 0.41271 0.93156 0.29125 0.0
C189 C 0.40251 0.90774 0.29427 0.0
O190 O 0.43145 0.86955 0.23574 0.0
C191 C 0.42878 0.85148 0.36582 0.0
O192 O 0.423 0.83383 0.33772 0.0
H193 H 0.45562 0.923 0.27903 0.0
H194 H 0.38434 0.89561 0.30002 0.0
N195 N 0.38395 0.84995 0.28761 0.0
N196 N 0.35017 0.8171 0.2972 0.0
C197 C 0.37237 0.82991 0.31173 0.0
C198 C 0.36854 0.84988 0.257 0.0
C199 C 0.3477 0.82971 0.26288 0.0
C200 C 0.42239 0.85232 0.20783 0.0
O201 O 0.40285 0.83378 0.21936 0.0
H202 H 0.3801 0.82472 0.33903 0.0
H203 H 0.37244 0.86324 0.23117 0.0
O204 O 0.42787 0.86913 0.351 0.0
H205 H 0.4039 0.94151 0.29457 0.0
H206 H 0.33223 0.82439 0.24221 0.0
Cu207 Cu 0.55222 0.39485 0.61781 0.0
N208 N 0.52769 0.4007 0.61061 0.0
N209 N 0.51128 0.42301 0.60668 0.0
C210 C 0.53019 0.42126 0.59688 0.0
C211 C 0.49623 0.4027 0.62713 0.0
C212 C 0.5064 0.38895 0.62949 0.0
O213 O 0.57241 0.4087 0.56401 0.0
C214 C 0.58353 0.41129 0.69862 0.0
O215 O 0.59778 0.40617 0.6769 0.0
H216 H 0.5464 0.4355 0.5843 0.0
H217 H 0.49955 0.37243 0.64724 0.0
N218 N 0.54193 0.36293 0.62055 0.0
N219 N 0.54183 0.32961 0.63415 0.0
C220 C 0.55365 0.35297 0.63859 0.0
C221 C 0.52196 0.34525 0.60419 0.0
C222 C 0.52187 0.3247 0.6124 0.0
C223 C 0.56425 0.39894 0.52482 0.0
O224 O 0.54385 0.38004 0.52395 0.0
H225 H 0.57068 0.36269 0.654 0.0
H226 H 0.50847 0.34718 0.58719 0.0
O227 O 0.56537 0.40854 0.67801 0.0
H228 H 0.47967 0.39866 0.64192 0.0
H229 H 0.50804 0.30748 0.60366 0.0
Cu230 Cu 0.16984 0.58766 0.94658 0.0
N231 N 0.13963 0.56264 0.94831 0.0
N232 N 0.10097 0.54298 0.9426 0.0
C233 C 0.12096 0.5607 0.92582 0.0
C234 C 0.10753 0.53301 0.97607 0.0
C235 C 0.13134 0.54519 0.97951 0.0
O236 O 0.17494 0.60567 0.88981 0.0
C237 C 0.15877 0.60947 1.01758 0.0
O238 O 0.13953 0.60149 0.99337 0.0
H239 H 0.12199 0.57281 0.89944 0.0
H240 H 0.14178 0.54255 1.00516 0.0
N241 N 0.19018 0.57595 0.9431 0.0
N242 N 0.2179 0.56683 0.95573 0.0
C243 C 0.20514 0.57551 0.97457 0.0
C244 C 0.19348 0.56709 0.90363 0.0
C245 C 0.21053 0.56151 0.91121 0.0
C246 C 0.16452 0.61619 0.87517 0.0
O247 O 0.14842 0.61667 0.90072 0.0
H248 H 0.20714 0.58206 1.00983 0.0
H249 H 0.18432 0.56524 0.87124 0.0
O250 O 0.1749 0.6061 1.00262 0.0
H251 H 0.09598 0.51904 0.99893 0.0
H252 H 0.21707 0.55413 0.88587 0.0
Cu253 Cu 0.62445 0.15809 0.27359 0.0
N254 N 0.59218 0.14033 0.26748 0.0
N255 N 0.55738 0.10805 0.26545 0.0
C256 C 0.58055 0.11697 0.26861 0.0
C257 C 0.5544 0.12669 0.26124 0.0
C258 C 0.57591 0.14659 0.26245 0.0
O259 O 0.63745 0.15707 0.21335 0.0
C260 C 0.62136 0.14055 0.36257 0.0
O261 O 0.60099 0.13909 0.35968 0.0
H262 H 0.58911 0.10681 0.27219 0.0
H263 H 0.57936 0.16429 0.26032 0.0
N264 N 0.63628 0.18925 0.28905 0.0
N265 N 0.66485 0.22408 0.3113 0.0
C266 C 0.65927 0.20334 0.29267 0.0
C267 C 0.6267 0.20146 0.30587 0.0
C268 C 0.64439 0.22315 0.31927 0.0
C269 C 0.63711 0.17083 0.18261 0.0
O270 O 0.62885 0.18447 0.1941 0.0
H271 H 0.67166 0.19796 0.28337 0.0
H272 H 0.60832 0.19474 0.31051 0.0
O273 O 0.63446 0.14685 0.32679 0.0
H274 H 0.53788 0.12611 0.25864 0.0
H275 H 0.64233 0.2366 0.33607 0.0
H276 H 0.45205 0.59556 0.21068 0.0
H277 H 0.43691 0.5886 0.48935 0.0
H278 H 0.38703 0.55308 0.28111 0.0
H279 H 0.50327 0.62379 0.4202 0.0
H280 H 0.41786 0.57905 0.41294 0.0
H281 H 0.4706 0.61025 0.28676 0.0
C282 C 0.44161 0.58962 0.24202 0.0
C283 C 0.41799 0.57295 0.23953 0.0
C284 C 0.43659 0.58893 0.4145 0.0
C285 C 0.43909 0.58946 0.32661 0.0
C286 C 0.44748 0.59437 0.45816 0.0
C287 C 0.47174 0.60688 0.46129 0.0
C288 C 0.45004 0.59611 0.37359 0.0
C289 C 0.48452 0.61397 0.41957 0.0
C290 C 0.45222 0.59787 0.28546 0.0
C291 C 0.40533 0.56577 0.28134 0.0
N292 N 0.47354 0.60846 0.37754 0.0
N293 N 0.41603 0.57394 0.32305 0.0
H294 H 0.88082 0.47353 0.54918 0.0
H295 H 0.88253 0.42365 0.80105 0.0
H296 H 0.87086 0.40468 0.56888 0.0
H297 H 0.85936 0.47328 0.78012 0.0
H298 H 0.88231 0.41869 0.71614 0.0
H299 H 0.87713 0.47636 0.63396 0.0
C300 C 0.87779 0.459 0.57122 0.0
C301 C 0.87609 0.43882 0.55173 0.0
C302 C 0.87709 0.43051 0.73021 0.0
C303 C 0.87226 0.44211 0.6488 0.0
C304 C 0.8772 0.43334 0.77867 0.0
C305 C 0.87084 0.4488 0.79787 0.0
C306 C 0.87112 0.44366 0.70055 0.0
C307 C 0.8642 0.46101 0.76699 0.0
C308 C 0.87561 0.4606 0.61957 0.0
C309 C 0.87216 0.42054 0.58217 0.0
N310 N 0.86479 0.4584 0.71994 0.0
N311 N 0.87063 0.42271 0.62908 0.0
H312 H 0.50428 0.90032 0.95516 0.0
H313 H 0.40408 0.82113 0.13587 0.0
H314 H 0.4414 0.83886 0.91335 0.0
H315 H 0.46222 0.88815 0.17028 0.0
H316 H 0.41824 0.82601 0.05561 0.0
H317 H 0.48959 0.89514 0.03456 0.0
C318 C 0.48728 0.88574 0.96259 0.0
C319 C 0.47408 0.86997 0.92736 0.0
C320 C 0.42792 0.83961 0.08074 0.0
C321 C 0.45715 0.86381 1.01904 0.0
C322 C 0.41994 0.8368 0.12675 0.0
C323 C 0.43198 0.85426 0.16012 0.0
C324 C 0.44819 0.85998 0.06783 0.0
C325 C 0.45236 0.87421 0.14594 0.0
C326 C 0.4789 0.8828 1.00812 0.0
C327 C 0.45214 0.85149 0.9393 0.0
N328 N 0.45978 0.87651 0.10098 0.0
N329 N 0.44441 0.84883 0.98422 0.0
H330 H 0.59455 0.42672 0.23007 0.0
H331 H 0.60051 0.44308 0.50848 0.0
H332 H 0.63186 0.4932 0.29854 0.0
H333 H 0.55436 0.37877 0.43887 0.0
H334 H 0.61623 0.46081 0.43224 0.0
H335 H 0.58335 0.40793 0.3068 0.0
C336 C 0.60048 0.43735 0.26117 0.0
C337 C 0.61402 0.46159 0.25778 0.0
C338 C 0.60277 0.44276 0.43375 0.0
C339 C 0.60136 0.44023 0.34572 0.0
C340 C 0.59389 0.43262 0.47728 0.0
C341 C 0.57598 0.40947 0.48007 0.0
C342 C 0.59376 0.42962 0.39278 0.0
C343 C 0.56802 0.39675 0.43842 0.0
C344 C 0.59407 0.42663 0.30498 0.0
C345 C 0.62124 0.47448 0.29936 0.0
N346 N 0.57687 0.40699 0.39659 0.0
N347 N 0.6148 0.46367 0.34149 0.0
H348 H 0.14232 0.62947 0.58302 0.0
H349 H 0.20312 0.62919 0.82295 0.0
H350 H 0.21128 0.63928 0.59594 0.0
H351 H 0.13554 0.62327 0.81724 0.0
H352 H 0.20805 0.63845 0.7401 0.0
H353 H 0.14094 0.6326 0.66841 0.0
C354 C 0.1573 0.63275 0.6037 0.0
C355 C 0.1768 0.63376 0.58257 0.0
C356 C 0.1922 0.6354 0.75685 0.0
C357 C 0.17534 0.63722 0.67966 0.0
C358 C 0.1894 0.63011 0.80427 0.0
C359 C 0.1688 0.62522 0.82686 0.0
C360 C 0.1741 0.63542 0.73139 0.0
C361 C 0.15168 0.62688 0.80104 0.0
C362 C 0.15649 0.63444 0.65237 0.0
C363 C 0.19574 0.63799 0.61087 0.0
N364 N 0.15454 0.63147 0.7544 0.0
N365 N 0.19444 0.63933 0.65783 0.0
H366 H 0.63824 0.13553 0.13423 0.0
H367 H 0.64493 0.19737 0.8906 0.0
H368 H 0.65017 0.20529 0.11874 0.0
H369 H 0.62937 0.12619 0.90196 0.0
H370 H 0.65449 0.20262 0.97349 0.0
H371 H 0.64222 0.13374 0.04925 0.0
C372 C 0.64218 0.15061 0.1131 0.0
C373 C 0.64354 0.17046 0.13339 0.0
C374 C 0.64928 0.18591 0.95782 0.0
C375 C 0.64798 0.16854 0.03658 0.0
C376 C 0.64388 0.18293 0.91036 0.0
C377 C 0.636 0.16122 0.88937 0.0
C378 C 0.64657 0.16698 0.9848 0.0
C379 C 0.63519 0.1432 0.91673 0.0
C380 C 0.64434 0.14956 0.06463 0.0
C381 C 0.64862 0.18949 0.10446 0.0
N382 N 0.64002 0.14637 0.96322 0.0
N383 N 0.65042 0.18798 0.05762 0.0
H384 H 0.29532 0.5212 0.12555 0.0
H385 H 0.25711 0.57341 0.91433 0.0
H386 H 0.34024 0.55906 1.01077 0.0
H387 H 0.22046 0.55444 0.04525 0.0
H388 H 0.28678 0.56636 0.94821 0.0
H389 H 0.26658 0.53104 0.09591 0.0
C390 C 0.29912 0.53153 0.0941 0.0
C391 C 0.32022 0.53928 0.07055 0.0
C392 C 0.27235 0.56385 0.96975 0.0
C393 C 0.28746 0.55061 0.03652 0.0
C394 C 0.25535 0.56777 0.95033 0.0
C395 C 0.23624 0.56436 0.97697 0.0
C396 C 0.27016 0.55612 1.01611 0.0
C397 C 0.23499 0.55736 1.02366 0.0
C398 C 0.28279 0.53729 0.07742 0.0
C399 C 0.32434 0.55289 0.03029 0.0
N400 N 0.25161 0.55322 0.04168 0.0
N401 N 0.30807 0.55796 1.01441 0.0
H402 H 0.80728 0.29591 0.39901 0.0
H403 H 0.68135 0.27068 0.31705 0.0
H404 H 0.79134 0.35054 0.37311 0.0
H405 H 0.7008 0.21818 0.33726 0.0
H406 H 0.72101 0.30048 0.33845 0.0
H407 H 0.7679 0.26738 0.37656 0.0
C408 C 0.79548 0.30192 0.38864 0.0
C409 C 0.80268 0.32568 0.38817 0.0
C410 C 0.71654 0.28242 0.338 0.0
C411 C 0.7573 0.29298 0.3621 0.0
C412 C 0.69391 0.26543 0.32605 0.0
C413 C 0.68779 0.24192 0.32479 0.0
C414 C 0.73305 0.27576 0.34912 0.0
C415 C 0.70478 0.23608 0.33664 0.0
C416 C 0.77296 0.2856 0.37562 0.0
C417 C 0.78665 0.33243 0.37361 0.0
N418 N 0.72652 0.25282 0.34825 0.0
N419 N 0.76468 0.31616 0.36137 0.0
H420 H 0.50397 0.77694 0.81586 0.0
H421 H 0.53562 0.72976 0.58732 0.0
H422 H 0.52114 0.81436 0.68533 0.0
H423 H 0.50019 0.68729 0.70679 0.0
H424 H 0.53437 0.76252 0.6241 0.0
H425 H 0.50654 0.74553 0.77798 0.0
C426 C 0.5085 0.77865 0.77925 0.0
C427 C 0.51249 0.7984 0.75379 0.0
C428 C 0.52685 0.74599 0.64212 0.0
C429 C 0.51526 0.76223 0.70988 0.0
C430 C 0.52769 0.72737 0.62133 0.0
C431 C 0.51792 0.70575 0.64397 0.0
C432 C 0.51645 0.74301 0.68613 0.0
C433 C 0.50766 0.70353 0.68781 0.0
C434 C 0.50977 0.76059 0.75751 0.0
C435 C 0.51781 0.79939 0.70613 0.0
N436 N 0.50728 0.72192 0.70747 0.0
N437 N 0.51916 0.78158 0.68569 0.0
H438 H 0.6966 0.4947 1.00957 0.0
H439 H 0.82383 0.51226 0.03726 0.0
H440 H 0.7376 0.52429 0.13363 0.0
H441 H 0.79033 0.50527 0.90441 0.0
H442 H 0.79131 0.51318 0.07581 0.0
H443 H 0.7297 0.49472 0.97282 0.0
C444 C 0.71257 0.50111 0.02914 0.0
C445 C 0.71436 0.50947 0.07473 0.0
C446 C 0.7912 0.51157 0.0382 0.0
C447 C 0.75238 0.50958 0.03288 0.0
C448 C 0.80966 0.51093 1.01628 0.0
C449 C 0.80984 0.50882 0.96757 0.0
C450 C 0.77266 0.50968 1.0112 0.0
C451 C 0.7911 0.50728 0.94192 0.0
C452 C 0.73151 0.50127 1.00805 0.0
C453 C 0.73559 0.51788 0.09827 0.0
N454 N 0.77324 0.5076 0.96405 0.0
N455 N 0.75376 0.51759 0.07719 0.0
H456 H 0.27812 0.67638 0.40579 0.0
H457 H 0.30338 0.79738 0.2921 0.0
H458 H 0.22521 0.69148 0.35945 0.0
H459 H 0.35766 0.78418 0.33797 0.0
H460 H 0.27468 0.75828 0.31621 0.0
H461 H 0.30778 0.71529 0.38014 0.0
C462 C 0.27274 0.68781 0.39006 0.0
C463 C 0.24913 0.68072 0.38528 0.0
C464 C 0.29287 0.7639 0.32108 0.0
C465 C 0.28287 0.72523 0.35611 0.0
C466 C 0.30931 0.78626 0.30709 0.0
C467 C 0.33304 0.79418 0.31285 0.0
C468 C 0.3001 0.74917 0.34103 0.0
C469 C 0.33959 0.77899 0.33329 0.0
C470 C 0.28965 0.71004 0.37566 0.0
C471 C 0.24315 0.69631 0.36485 0.0
N472 N 0.32322 0.75721 0.34653 0.0
N473 N 0.25985 0.71775 0.35114 0.0
H474 H 0.56245 0.21128 0.67454 0.0
H475 H 0.57014 0.33494 0.70716 0.0
H476 H 0.58733 0.25279 0.79913 0.0
H477 H 0.52956 0.28709 0.59826 0.0
H478 H 0.58112 0.30699 0.73529 0.0
H479 H 0.5548 0.24086 0.63993 0.0
C480 C 0.56651 0.22671 0.69434 0.0
C481 C 0.57532 0.22951 0.7399 0.0
C482 C 0.56984 0.30259 0.70515 0.0
C483 C 0.5667 0.26329 0.7008 0.0
C484 C 0.56368 0.31864 0.68888 0.0
C485 C 0.54883 0.31337 0.65033 0.0
C486 C 0.56127 0.28109 0.68262 0.0
C487 C 0.54079 0.29176 0.62845 0.0
C488 C 0.56201 0.24348 0.67479 0.0
C489 C 0.58017 0.24976 0.76423 0.0
N490 N 0.54711 0.27642 0.64487 0.0
N491 N 0.5758 0.26581 0.74444 0.0
H492 H 0.47995 0.54867 0.1201 0.0
H493 H 0.5433 0.47315 0.12431 0.0
H494 H 0.44294 0.47393 0.13265 0.0
H495 H 0.57922 0.54806 0.12178 0.0
H496 H 0.5065 0.47285 0.12993 0.0
H497 H 0.51627 0.54848 0.12323 0.0
C498 C 0.4793 0.53217 0.12407 0.0
C499 C 0.45805 0.51124 0.12615 0.0
C500 C 0.52245 0.48935 0.12836 0.0
C501 C 0.50016 0.51097 0.12888 0.0
C502 C 0.54355 0.48956 0.12542 0.0
C503 C 0.56453 0.51069 0.12237 0.0
C504 C 0.52225 0.51041 0.12819 0.0
C505 C 0.56356 0.53135 0.1233 0.0
C506 C 0.50022 0.5321 0.12554 0.0
C507 C 0.45875 0.49047 0.13036 0.0
N508 N 0.54283 0.53067 0.12596 0.0
N509 N 0.47943 0.49086 0.13142 0.0
H510 H 0.96712 0.47626 0.40499 0.0
H511 H 0.09547 0.50617 0.47778 0.0
H512 H 0.98379 0.42515 0.45656 0.0
H513 H 0.08027 0.55355 0.40247 0.0
H514 H 0.05448 0.4769 0.47431 0.0
H515 H 1.00821 0.50563 0.40916 0.0
C516 C 0.97937 0.47123 0.41751 0.0
C517 C 0.97194 0.44815 0.43033 0.0
C518 C 0.06015 0.49373 0.45854 0.0
C519 C 1.01912 0.4817 0.43492 0.0
C520 C 0.08366 0.51049 0.46029 0.0
C521 C 0.0916 0.5326 0.44056 0.0
C522 C 0.0443 0.49903 0.43711 0.0
C523 C 0.07514 0.53703 0.41892 0.0
C524 C 1.00288 0.48798 0.41956 0.0
C525 C 0.98872 0.44263 0.44574 0.0
N526 N 0.05236 0.52047 0.41791 0.0
N527 N 1.01147 0.45926 0.44769 0.0
H528 H 0.51331 0.05411 0.79136 0.0
H529 H 0.57097 0.97317 0.78585 0.0
H530 H 0.58693 0.08026 0.78217 0.0
H531 H 0.49751 0.94675 0.76864 0.0
H532 H 0.57693 1.01243 0.78828 0.0
H533 H 0.50685 1.01441 0.78759 0.0
C534 C 0.52808 0.05149 0.78859 0.0
C535 C 0.55066 0.07052 0.78679 0.0
C536 C 0.5595 0.99802 0.78391 0.0
C537 C 0.54347 0.02527 0.78252 0.0
C538 C 0.55608 0.97552 0.7823 0.0
C539 C 0.53368 0.95641 0.77705 0.0
C540 C 0.5404 1.00157 0.78051 0.0
C541 C 0.51506 0.96076 0.77342 0.0
C542 C 0.52441 0.02887 0.78622 0.0
C543 C 0.56921 0.06616 0.78287 0.0
N544 N 0.51884 0.98284 0.77531 0.0
N545 N 0.5652 0.04403 0.78103 0.0
H546 H 0.51217 0.55078 0.53457 0.0
H547 H 0.49405 0.43897 0.67335 0.0
H548 H 0.5207 0.55064 0.68364 0.0
H549 H 0.52595 0.45511 0.53749 0.0
H550 H 0.49494 0.47636 0.67342 0.0
H551 H 0.50902 0.51216 0.53077 0.0
C552 C 0.51332 0.54255 0.56638 0.0
C553 C 0.5169 0.55387 0.6094 0.0
C554 C 0.50157 0.47162 0.64345 0.0
C555 C 0.51279 0.50985 0.60556 0.0
C556 C 0.50088 0.45025 0.64322 0.0
C557 C 0.5099 0.44399 0.60528 0.0
C558 C 0.5109 0.48664 0.60507 0.0
C559 C 0.51891 0.45941 0.56739 0.0
C560 C 0.5116 0.52067 0.56422 0.0
C561 C 0.51826 0.54257 0.64977 0.0
N562 N 0.51909 0.48002 0.56807 0.0
N563 N 0.516 0.52111 0.64694 0.0
H564 H 0.08805 0.57223 0.90249 0.0
H565 H 0.95409 0.49057 0.96009 0.0
H566 H 0.06029 0.5036 0.96196 0.0
H567 H 0.98091 0.55393 0.87986 0.0
H568 H 0.99272 0.49497 0.96141 0.0
H569 H 0.04894 0.56557 0.89341 0.0
C570 C 0.07383 0.55561 0.91313 0.0
C571 C 0.07772 0.53849 0.93331 0.0
C572 C 0.99011 0.50786 0.94337 0.0
C573 C 0.03253 0.53098 0.92377 0.0
C574 C 0.96798 0.50533 0.94243 0.0
C575 C 0.96408 0.52193 0.91987 0.0
C576 C 1.00859 0.52718 0.92182 0.0
C577 C 0.98302 0.54087 0.89831 0.0
C578 C 0.05138 0.5519 0.90818 0.0
C579 C 0.05829 0.51747 0.94697 0.0
N580 N 1.00441 0.543 0.89995 0.0
N581 N 0.03658 0.51438 0.94224 0.0
H582 H 0.42971 0.97603 0.25394 0.0
H583 H 0.56155 0.07255 0.30323 0.0
H584 H 0.48148 0.96072 0.3069 0.0
H585 H 0.51261 0.08769 0.23469 0.0
H586 H 0.532 0.0318 0.30684 0.0
H587 H 0.45921 0.0171 0.24909 0.0
C588 C 0.44724 0.98127 0.26472 0.0
C589 C 0.45305 0.96479 0.28091 0.0
C590 C 0.5277 0.044 0.29087 0.0
C591 C 0.48702 1.0119 0.27521 0.0
C592 C 0.54468 0.06738 0.2885 0.0
C593 C 0.53977 0.08379 0.2682 0.0
C594 C 0.50546 0.03675 0.27305 0.0
C595 C 0.51725 0.07583 0.25092 0.0
C596 C 0.46412 1.00474 0.26169 0.0
C597 C 0.47619 0.97267 0.29372 0.0
N598 N 0.50096 0.05291 0.25372 0.0
N599 N 0.49225 0.9956 0.29074 0.0
H600 H 0.4553 0.62128 0.73071 0.0
H601 H 0.42978 0.5494 0.96893 0.0
H602 H 0.45069 0.55424 0.74256 0.0
H603 H 0.42268 0.61044 0.95676 0.0
H604 H 0.43916 0.55236 0.8864 0.0
H605 H 0.44421 0.61859 0.81303 0.0
C606 C 0.45173 0.60589 0.7504 0.0
C607 C 0.45398 0.58796 0.72957 0.0
C608 C 0.43556 0.56515 0.90162 0.0
C609 C 0.4416 0.58497 0.82396 0.0
C610 C 0.43029 0.56354 0.94899 0.0
C611 C 0.42539 0.5797 0.97006 0.0
C612 C 0.4361 0.58311 0.87467 0.0
C613 C 0.42635 0.5976 0.94209 0.0
C614 C 0.44547 0.60442 0.79745 0.0
C615 C 0.44921 0.56851 0.75695 0.0
N616 N 0.43161 0.59884 0.89581 0.0
N617 N 0.44341 0.56762 0.80264 0.0
H618 H 0.89427 0.44253 0.28686 0.0
H619 H 0.81323 0.43064 0.06818 0.0
H620 H 0.82104 0.41814 0.29878 0.0
H621 H 0.88747 0.46098 0.05895 0.0
H622 H 0.8155 0.42458 0.15192 0.0
H623 H 0.892 0.44883 0.20332 0.0
C624 C 0.87773 0.43868 0.27207 0.0
C625 C 0.85782 0.4298 0.30019 0.0
C626 C 0.83129 0.43249 0.13157 0.0
C627 C 0.85504 0.43672 0.20388 0.0
C628 C 0.83 0.43584 0.08358 0.0
C629 C 0.85018 0.44633 0.05618 0.0
C630 C 0.85292 0.4396 0.15261 0.0
C631 C 0.87142 0.45281 0.07845 0.0
C632 C 0.87643 0.44221 0.2242 0.0
C633 C 0.83688 0.42509 0.27872 0.0
N634 N 0.87222 0.44938 0.12519 0.0
N635 N 0.83603 0.42849 0.23196 0.0
H636 H 0.4392 0.80358 0.64348 0.0
H637 H 0.4428 0.88531 0.43268 0.0
H638 H 0.46205 0.87652 0.65825 0.0
H639 H 0.42583 0.8141 0.41378 0.0
H640 H 0.44856 0.88185 0.51588 0.0
H641 H 0.43209 0.80633 0.56034 0.0
C642 C 0.44249 0.82011 0.62945 0.0
C643 C 0.45127 0.83985 0.6581 0.0
C644 C 0.44364 0.86698 0.49358 0.0
C645 C 0.44337 0.84316 0.56263 0.0
C646 C 0.4404 0.86896 0.44592 0.0
C647 C 0.43385 0.84998 0.41595 0.0
C648 C 0.44023 0.84582 0.51181 0.0
C649 C 0.43096 0.82923 0.43539 0.0
C650 C 0.43856 0.8217 0.58185 0.0
C651 C 0.45532 0.86083 0.63768 0.0
N652 N 0.4341 0.82769 0.48203 0.0
N653 N 0.4514 0.86192 0.59135 0.0
H654 H 0.61931 0.41793 0.75744 0.0
H655 H 0.56054 0.43978 0.98129 0.0
H656 H 0.55542 0.41998 0.75424 0.0
H657 H 0.6296 0.44915 0.98427 0.0
H658 H 0.55745 0.4293 0.8991 0.0
H659 H 0.62289 0.42708 0.84111 0.0
C660 C 0.60612 0.42041 0.77415 0.0
C661 C 0.58705 0.41818 0.74859 0.0
C662 C 0.57328 0.43356 0.91768 0.0
C663 C 0.59089 0.42837 0.84435 0.0
C664 C 0.57501 0.43944 0.96482 0.0
C665 C 0.59538 0.44543 0.98986 0.0
C666 C 0.59202 0.43357 0.89512 0.0
C667 C 0.61355 0.44467 0.96639 0.0
C668 C 0.60814 0.42558 0.82194 0.0
C669 C 0.57045 0.42152 0.77227 0.0
N670 N 0.61147 0.43893 0.92031 0.0
N671 N 0.57273 0.42634 0.81864 0.0
H672 H 0.19631 0.63027 0.07642 0.0
H673 H 0.11893 0.61048 0.29678 0.0
H674 H 0.12414 0.61093 0.06586 0.0
H675 H 0.19349 0.64856 0.30139 0.0
H676 H 0.12052 0.61536 0.21168 0.0
H677 H 0.19629 0.64136 0.15769 0.0
C678 C 0.18055 0.62864 0.09099 0.0
C679 C 0.16012 0.61931 0.06451 0.0
C680 C 0.13654 0.62334 0.23138 0.0
C681 C 0.15987 0.63174 0.15764 0.0
C682 C 0.13557 0.62077 0.27995 0.0
C683 C 0.1561 0.62935 0.3057 0.0
C684 C 0.1582 0.63401 0.2088 0.0
C685 C 0.17731 0.64192 0.28243 0.0
C686 C 0.18055 0.63506 0.13737 0.0
C687 C 0.14025 0.6178 0.0851 0.0
N688 N 0.17785 0.64349 0.23516 0.0
N689 N 0.14051 0.62354 0.13065 0.0
H690 H 0.66152 0.2025 0.62835 0.0
H691 H 0.60154 0.10782 0.42959 0.0
H692 H 0.60592 0.13242 0.65082 0.0
H693 H 0.66008 0.17553 0.40311 0.0
H694 H 0.60832 0.11444 0.51325 0.0
H695 H 0.66595 0.19169 0.54864 0.0
C696 C 0.65044 0.18482 0.61676 0.0
C697 C 0.63303 0.16847 0.64602 0.0
C698 C 0.62012 0.12771 0.48937 0.0
C699 C 0.63809 0.15596 0.55526 0.0
C700 C 0.61639 0.12375 0.44158 0.0
C701 C 0.63039 0.14106 0.40968 0.0
C702 C 0.63755 0.14946 0.50543 0.0
C703 C 0.64913 0.16163 0.4268 0.0
C704 C 0.65301 0.17864 0.57132 0.0
C705 C 0.61928 0.14576 0.62928 0.0
N706 N 0.65187 0.16552 0.47367 0.0
N707 N 0.62198 0.14028 0.58506 0.0
loop_
_geom_bond_atom_site_label_1
_geom_bond_atom_site_label_2
_geom_bond_distance
_geom_bond_site_symmetry_2
_ccdc_geom_bond_type
Cu0 N1 1.999 . S
Cu0 O6 1.974 . S
Cu0 N11 1.985 . S
Cu0 O20 1.959 . S
N1 Cu0 1.999 . S
N1 C3 1.263 . S
N1 C5 1.389 . S
N2 C3 1.358 . S
N2 C4 1.400 . S
C3 N1 1.263 . S
C3 N2 1.358 . S
C3 H9 0.930 . S
C4 N2 1.400 . S
C4 C5 1.351 . S
C4 H21 0.930 . S
C5 N1 1.389 . S
C5 C4 1.351 . S
C5 H10 0.930 . S
O6 Cu0 1.974 . S
O6 C16 1.282 . S
C7 O8 1.261 1_556 S
C7 O20 1.251 1_556 S
O8 C7 1.261 1_554 S
H9 C3 0.930 . S
H10 C5 0.930 . S
N11 Cu0 1.985 . S
N11 C13 1.335 . S
N11 C14 1.390 . S
N12 C13 1.345 . S
N12 C15 1.336 . S
C13 N11 1.335 . S
C13 N12 1.345 . S
C13 H18 0.930 . S
C14 N11 1.390 . S
C14 C15 1.346 . S
C14 H19 0.930 . S
C15 N12 1.336 . S
C15 C14 1.346 . S
C15 H22 0.929 . S
C16 O6 1.282 . S
C16 O17 1.216 . S
O17 C16 1.216 . S
H18 C13 0.930 . S
H19 C14 0.930 . S
O20 Cu0 1.959 . S
O20 C7 1.251 1_554 S
H21 C4 0.930 . S
H22 C15 0.929 . S
Cu23 N24 1.999 . S
Cu23 O29 1.974 . S
Cu23 N34 1.985 . S
Cu23 O43 1.959 . S
N24 Cu23 1.999 . S
N24 C26 1.263 . S
N24 C28 1.389 . S
N25 C26 1.358 . S
N25 C27 1.400 . S
C26 N24 1.263 . S
C26 N25 1.358 . S
C26 H32 0.930 . S
C27 N25 1.400 . S
C27 C28 1.351 . S
C27 H44 0.930 . S
C28 N24 1.389 . S
C28 C27 1.351 . S
C28 H33 0.930 . S
O29 Cu23 1.974 . S
O29 C39 1.282 . S
C30 O31 1.261 . S
C30 O43 1.251 . S
O31 C30 1.261 . S
H32 C26 0.930 . S
H33 C28 0.930 . S
N34 Cu23 1.985 . S
N34 C36 1.335 . S
N34 C37 1.390 . S
N35 C36 1.345 . S
N35 C38 1.336 . S
C36 N34 1.335 . S
C36 N35 1.345 . S
C36 H41 0.930 . S
C37 N34 1.390 . S
C37 C38 1.346 . S
C37 H42 0.930 . S
C38 N35 1.336 . S
C38 C37 1.346 . S
C38 H45 0.929 . S
C39 O29 1.282 . S
C39 O40 1.216 . S
O40 C39 1.216 . S
H41 C36 0.930 . S
H42 C37 0.930 . S
O43 Cu23 1.959 . S
O43 C30 1.251 . S
H44 C27 0.930 . S
H45 C38 0.929 . S
Cu46 N47 1.999 . S
Cu46 O52 1.974 . S
Cu46 N57 1.985 . S
Cu46 O66 1.959 . S
N47 Cu46 1.999 . S
N47 C49 1.263 . S
N47 C51 1.389 . S
N48 C49 1.358 . S
N48 C50 1.400 . S
C49 N47 1.263 . S
C49 N48 1.358 . S
C49 H55 0.930 . S
C50 N48 1.400 . S
C50 C51 1.351 . S
C50 H67 0.930 . S
C51 N47 1.389 . S
C51 C50 1.351 . S
C51 H56 0.930 . S
O52 Cu46 1.974 . S
O52 C62 1.282 . S
C53 O54 1.261 . S
C53 O66 1.251 . S
O54 C53 1.261 . S
H55 C49 0.930 . S
H56 C51 0.930 . S
N57 Cu46 1.985 . S
N57 C59 1.335 . S
N57 C60 1.390 . S
N58 C59 1.345 . S
N58 C61 1.336 . S
C59 N57 1.335 . S
C59 N58 1.345 . S
C59 H64 0.930 . S
C60 N57 1.390 . S
C60 C61 1.346 . S
C60 H65 0.930 . S
C61 N58 1.336 . S
C61 C60 1.346 . S
C61 H68 0.929 . S
C62 O52 1.282 . S
C62 O63 1.216 . S
O63 C62 1.216 . S
H64 C59 0.930 . S
H65 C60 0.930 . S
O66 Cu46 1.959 . S
O66 C53 1.251 . S
H67 C50 0.930 . S
H68 C61 0.929 . S
Cu69 N70 1.999 . S
Cu69 O75 1.974 . S
Cu69 N80 1.985 . S
Cu69 O89 1.959 . S
N70 Cu69 1.999 . S
N70 C72 1.263 . S
N70 C74 1.389 . S
N71 C72 1.358 . S
N71 C73 1.400 . S
C72 N70 1.263 . S
C72 N71 1.358 . S
C72 H78 0.930 . S
C73 N71 1.400 . S
C73 C74 1.351 . S
C73 H90 0.930 . S
C74 N70 1.389 . S
C74 C73 1.351 . S
C74 H79 0.930 . S
O75 Cu69 1.974 . S
O75 C85 1.282 . S
C76 O77 1.261 1_556 S
C76 O89 1.251 1_556 S
O77 C76 1.261 1_554 S
H78 C72 0.930 . S
H79 C74 0.930 . S
N80 Cu69 1.985 . S
N80 C82 1.335 . S
N80 C83 1.390 . S
N81 C82 1.345 . S
N81 C84 1.336 . S
C82 N80 1.335 . S
C82 N81 1.345 . S
C82 H87 0.930 . S
C83 N80 1.390 . S
C83 C84 1.346 . S
C83 H88 0.930 . S
C84 N81 1.336 . S
C84 C83 1.346 . S
C84 H91 0.929 . S
C85 O75 1.282 . S
C85 O86 1.216 . S
O86 C85 1.216 . S
H87 C82 0.930 . S
H88 C83 0.930 . S
O89 Cu69 1.959 . S
O89 C76 1.251 1_554 S
H90 C73 0.930 . S
H91 C84 0.929 . S
Cu92 N93 1.999 . S
Cu92 O98 1.974 . S
Cu92 N103 1.985 . S
Cu92 O112 1.959 . S
N93 Cu92 1.999 . S
N93 C95 1.263 . S
N93 C97 1.389 . S
N94 C95 1.358 . S
N94 C96 1.400 . S
C95 N93 1.263 . S
C95 N94 1.358 . S
C95 H101 0.930 . S
C96 N94 1.400 . S
C96 C97 1.351 . S
C96 H113 0.930 . S
C97 N93 1.389 . S
C97 C96 1.351 . S
C97 H102 0.930 . S
O98 Cu92 1.974 . S
O98 C108 1.282 . S
C99 O100 1.261 . S
C99 O112 1.251 . S
O100 C99 1.261 . S
H101 C95 0.930 . S
H102 C97 0.930 . S
N103 Cu92 1.985 . S
N103 C105 1.335 . S
N103 C106 1.390 . S
N104 C105 1.345 . S
N104 C107 1.336 . S
C105 N103 1.335 . S
C105 N104 1.345 . S
C105 H110 0.930 . S
C106 N103 1.390 . S
C106 C107 1.346 . S
C106 H111 0.930 . S
C107 N104 1.336 . S
C107 C106 1.346 . S
C107 H114 0.929 . S
C108 O98 1.282 . S
C108 O109 1.216 . S
O109 C108 1.216 . S
H110 C105 0.930 . S
H111 C106 0.930 . S
O112 Cu92 1.959 . S
O112 C99 1.251 . S
H113 C96 0.930 . S
H114 C107 0.929 . S
Cu115 N116 1.999 . S
Cu115 O121 1.974 . S
Cu115 N126 1.985 . S
Cu115 O135 1.959 . S
N116 Cu115 1.999 . S
N116 C118 1.263 . S
N116 C120 1.389 . S
N117 C118 1.358 . S
N117 C119 1.400 . S
C118 N116 1.263 . S
C118 N117 1.358 . S
C118 H124 0.930 . S
C119 N117 1.400 . S
C119 C120 1.351 . S
C119 H136 0.930 . S
C120 N116 1.389 . S
C120 C119 1.351 . S
C120 H125 0.930 . S
O121 Cu115 1.974 . S
O121 C131 1.282 . S
C122 O123 1.261 . S
C122 O135 1.251 . S
O123 C122 1.261 . S
H124 C118 0.930 . S
H125 C120 0.930 . S
N126 Cu115 1.985 . S
N126 C128 1.335 . S
N126 C129 1.390 . S
N127 C128 1.345 . S
N127 C130 1.336 . S
C128 N126 1.335 . S
C128 N127 1.345 . S
C128 H133 0.930 . S
C129 N126 1.390 . S
C129 C130 1.346 . S
C129 H134 0.930 . S
C130 N127 1.336 . S
C130 C129 1.346 . S
C130 H137 0.929 . S
C131 O121 1.282 . S
C131 O132 1.216 . S
O132 C131 1.216 . S
H133 C128 0.930 . S
H134 C129 0.930 . S
O135 Cu115 1.959 . S
O135 C122 1.251 . S
H136 C119 0.930 . S
H137 C130 0.929 . S
Cu138 N139 1.999 . S
Cu138 O144 1.974 . S
Cu138 N149 1.985 . S
Cu138 O158 1.959 . S
N139 Cu138 1.999 . S
N139 C141 1.263 . S
N139 C143 1.389 . S
N140 C141 1.358 . S
N140 C142 1.400 . S
C141 N139 1.263 . S
C141 N140 1.358 . S
C141 H147 0.930 . S
C142 N140 1.400 . S
C142 C143 1.351 . S
C142 H159 0.930 . S
C143 N139 1.389 . S
C143 C142 1.351 . S
C143 H148 0.930 . S
O144 Cu138 1.974 . S
O144 C154 1.282 . S
C145 O146 1.261 . S
C145 O158 1.251 . S
O146 C145 1.261 . S
H147 C141 0.930 . S
H148 C143 0.930 . S
N149 Cu138 1.985 . S
N149 C151 1.335 . S
N149 C152 1.390 . S
N150 C151 1.345 . S
N150 C153 1.336 . S
C151 N149 1.335 . S
C151 N150 1.345 . S
C151 H156 0.930 . S
C152 N149 1.390 . S
C152 C153 1.346 . S
C152 H157 0.930 . S
C153 N150 1.336 . S
C153 C152 1.346 . S
C153 H160 0.929 . S
C154 O144 1.282 . S
C154 O155 1.216 . S
O155 C154 1.216 . S
H156 C151 0.930 . S
H157 C152 0.930 . S
O158 Cu138 1.959 . S
O158 C145 1.251 . S
H159 C142 0.930 . S
H160 C153 0.929 . S
Cu161 N162 1.999 . S
Cu161 O167 1.974 . S
Cu161 N172 1.985 . S
Cu161 O181 1.959 . S
N162 Cu161 1.999 . S
N162 C164 1.263 . S
N162 C166 1.389 . S
N163 C164 1.358 . S
N163 C165 1.400 . S
C164 N162 1.263 . S
C164 N163 1.358 . S
C164 H170 0.930 . S
C165 N163 1.400 . S
C165 C166 1.351 . S
C165 H182 0.930 . S
C166 N162 1.389 . S
C166 C165 1.351 . S
C166 H171 0.930 . S
O167 Cu161 1.974 . S
O167 C177 1.282 . S
C168 O169 1.261 1_554 S
C168 O181 1.251 1_554 S
O169 C168 1.261 1_556 S
H170 C164 0.930 . S
H171 C166 0.930 . S
N172 Cu161 1.985 . S
N172 C174 1.335 . S
N172 C175 1.390 . S
N173 C174 1.345 . S
N173 C176 1.336 . S
C174 N172 1.335 . S
C174 N173 1.345 . S
C174 H179 0.930 . S
C175 N172 1.390 . S
C175 C176 1.346 . S
C175 H180 0.930 . S
C176 N173 1.336 . S
C176 C175 1.346 . S
C176 H183 0.929 . S
C177 O167 1.282 . S
C177 O178 1.216 . S
O178 C177 1.216 . S
H179 C174 0.930 . S
H180 C175 0.930 . S
O181 Cu161 1.959 . S
O181 C168 1.251 1_556 S
H182 C165 0.930 . S
H183 C176 0.929 . S
Cu184 N185 1.999 . S
Cu184 O190 1.974 . S
Cu184 N195 1.985 . S
Cu184 O204 1.959 . S
N185 Cu184 1.999 . S
N185 C187 1.263 . S
N185 C189 1.389 . S
N186 C187 1.358 . S
N186 C188 1.400 . S
C187 N185 1.263 . S
C187 N186 1.358 . S
C187 H193 0.930 . S
C188 N186 1.400 . S
C188 C189 1.351 . S
C188 H205 0.930 . S
C189 N185 1.389 . S
C189 C188 1.351 . S
C189 H194 0.930 . S
O190 Cu184 1.974 . S
O190 C200 1.282 . S
C191 O192 1.261 . S
C191 O204 1.251 . S
O192 C191 1.261 . S
H193 C187 0.930 . S
H194 C189 0.930 . S
N195 Cu184 1.985 . S
N195 C197 1.335 . S
N195 C198 1.390 . S
N196 C197 1.345 . S
N196 C199 1.336 . S
C197 N195 1.335 . S
C197 N196 1.345 . S
C197 H202 0.930 . S
C198 N195 1.390 . S
C198 C199 1.346 . S
C198 H203 0.930 . S
C199 N196 1.336 . S
C199 C198 1.346 . S
C199 H206 0.929 . S
C200 O190 1.282 . S
C200 O201 1.216 . S
O201 C200 1.216 . S
H202 C197 0.930 . S
H203 C198 0.930 . S
O204 Cu184 1.959 . S
O204 C191 1.251 . S
H205 C188 0.930 . S
H206 C199 0.929 . S
Cu207 N208 1.999 . S
Cu207 O213 1.974 . S
Cu207 N218 1.985 . S
Cu207 O227 1.959 . S
N208 Cu207 1.999 . S
N208 C210 1.263 . S
N208 C212 1.389 . S
N209 C210 1.358 . S
N209 C211 1.400 . S
C210 N208 1.263 . S
C210 N209 1.358 . S
C210 H216 0.930 . S
C211 N209 1.400 . S
C211 C212 1.351 . S
C211 H228 0.930 . S
C212 N208 1.389 . S
C212 C211 1.351 . S
C212 H217 0.930 . S
O213 Cu207 1.974 . S
O213 C223 1.282 . S
C214 O215 1.261 . S
C214 O227 1.251 . S
O215 C214 1.261 . S
H216 C210 0.930 . S
H217 C212 0.930 . S
N218 Cu207 1.985 . S
N218 C220 1.335 . S
N218 C221 1.390 . S
N219 C220 1.345 . S
N219 C222 1.336 . S
C220 N218 1.335 . S
C220 N219 1.345 . S
C220 H225 0.930 . S
C221 N218 1.390 . S
C221 C222 1.346 . S
C221 H226 0.930 . S
C222 N219 1.336 . S
C222 C221 1.346 . S
C222 H229 0.929 . S
C223 O213 1.282 . S
C223 O224 1.216 . S
O224 C223 1.216 . S
H225 C220 0.930 . S
H226 C221 0.930 . S
O227 Cu207 1.959 . S
O227 C214 1.251 . S
H228 C211 0.930 . S
H229 C222 0.929 . S
Cu230 N231 1.999 . S
Cu230 O236 1.974 . S
Cu230 N241 1.985 . S
Cu230 O250 1.959 . S
N231 Cu230 1.999 . S
N231 C233 1.263 . S
N231 C235 1.389 . S
N232 C233 1.358 . S
N232 C234 1.400 . S
C233 N231 1.263 . S
C233 N232 1.358 . S
C233 H239 0.930 . S
C234 N232 1.400 . S
C234 C235 1.351 . S
C234 H251 0.930 . S
C235 N231 1.389 . S
C235 C234 1.351 . S
C235 H240 0.930 . S
O236 Cu230 1.974 . S
O236 C246 1.282 . S
C237 O238 1.261 1_554 S
C237 O250 1.251 1_554 S
O238 C237 1.261 1_556 S
H239 C233 0.930 . S
H240 C235 0.930 . S
N241 Cu230 1.985 . S
N241 C243 1.335 . S
N241 C244 1.390 . S
N242 C243 1.345 . S
N242 C245 1.336 . S
C243 N241 1.335 . S
C243 N242 1.345 . S
C243 H248 0.930 . S
C244 N241 1.390 . S
C244 C245 1.346 . S
C244 H249 0.930 . S
C245 N242 1.336 . S
C245 C244 1.346 . S
C245 H252 0.929 . S
C246 O236 1.282 . S
C246 O247 1.216 . S
O247 C246 1.216 . S
H248 C243 0.930 . S
H249 C244 0.930 . S
O250 Cu230 1.959 . S
O250 C237 1.251 1_556 S
H251 C234 0.930 . S
H252 C245 0.929 . S
Cu253 N254 1.999 . S
Cu253 O259 1.974 . S
Cu253 N264 1.985 . S
Cu253 O273 1.959 . S
N254 Cu253 1.999 . S
N254 C256 1.263 . S
N254 C258 1.389 . S
N255 C256 1.358 . S
N255 C257 1.400 . S
C256 N254 1.263 . S
C256 N255 1.358 . S
C256 H262 0.930 . S
C257 N255 1.400 . S
C257 C258 1.351 . S
C257 H274 0.930 . S
C258 N254 1.389 . S
C258 C257 1.351 . S
C258 H263 0.930 . S
O259 Cu253 1.974 . S
O259 C269 1.282 . S
C260 O261 1.261 . S
C260 O273 1.251 . S
O261 C260 1.261 . S
H262 C256 0.930 . S
H263 C258 0.930 . S
N264 Cu253 1.985 . S
N264 C266 1.335 . S
N264 C267 1.390 . S
N265 C266 1.345 . S
N265 C268 1.336 . S
C266 N264 1.335 . S
C266 N265 1.345 . S
C266 H271 0.930 . S
C267 N264 1.390 . S
C267 C268 1.346 . S
C267 H272 0.930 . S
C268 N265 1.336 . S
C268 C267 1.346 . S
C268 H275 0.929 . S
C269 O259 1.282 . S
C269 O270 1.216 . S
O270 C269 1.216 . S
H271 C266 0.930 . S
H272 C267 0.930 . S
O273 Cu253 1.959 . S
O273 C260 1.251 . S
H274 C257 0.930 . S
H275 C268 0.929 . S
H276 C282 0.930 . S
H277 C286 0.930 . S
H278 C291 0.929 . S
H279 C289 0.929 . S
H280 C284 0.929 . S
H281 C290 0.929 . S
C282 H276 0.930 . S
C282 C283 1.367 . S
C282 C290 1.378 . S
C283 C282 1.367 . S
C283 C291 1.433 . S
C284 H280 0.929 . S
C284 C286 1.378 . S
C284 C288 1.350 . S
C285 C288 1.463 . S
C285 C290 1.350 . S
C285 N293 1.427 . S
C286 H277 0.930 . S
C286 C284 1.378 . S
C286 C287 1.367 . S
C287 C286 1.367 . S
C287 C289 1.433 . S
C288 C284 1.350 . S
C288 C285 1.463 . S
C288 N292 1.427 . S
C289 H279 0.929 . S
C289 C287 1.433 . S
C289 N292 1.384 . S
C290 H281 0.929 . S
C290 C282 1.378 . S
C290 C285 1.350 . S
C291 H278 0.929 . S
C291 C283 1.433 . S
C291 N293 1.384 . S
N292 C288 1.427 . S
N292 C289 1.384 . S
N293 C285 1.427 . S
N293 C291 1.384 . S
H294 C300 0.930 . S
H295 C304 0.930 . S
H296 C309 0.929 . S
H297 C307 0.929 . S
H298 C302 0.929 . S
H299 C308 0.929 . S
C300 H294 0.930 . S
C300 C301 1.367 . S
C300 C308 1.378 . S
C301 C300 1.367 . S
C301 C309 1.433 . S
C302 H298 0.929 . S
C302 C304 1.378 . S
C302 C306 1.350 . S
C303 C306 1.463 . S
C303 C308 1.350 . S
C303 N311 1.427 . S
C304 H295 0.930 . S
C304 C302 1.378 . S
C304 C305 1.367 . S
C305 C304 1.367 . S
C305 C307 1.433 . S
C306 C302 1.350 . S
C306 C303 1.463 . S
C306 N310 1.427 . S
C307 H297 0.929 . S
C307 C305 1.433 . S
C307 N310 1.384 . S
C308 H299 0.929 . S
C308 C300 1.378 . S
C308 C303 1.350 . S
C309 H296 0.929 . S
C309 C301 1.433 . S
C309 N311 1.384 . S
N310 C306 1.427 . S
N310 C307 1.384 . S
N311 C303 1.427 . S
N311 C309 1.384 . S
H312 C318 0.930 . S
H313 C322 0.930 . S
H314 C327 0.929 . S
H315 C325 0.929 . S
H316 C320 0.929 . S
H317 C326 0.929 . S
C318 H312 0.930 . S
C318 C319 1.367 . S
C318 C326 1.378 . S
C319 C318 1.367 . S
C319 C327 1.433 . S
C320 H316 0.929 . S
C320 C322 1.378 . S
C320 C324 1.350 . S
C321 C324 1.463 1_556 S
C321 C326 1.350 . S
C321 N329 1.427 . S
C322 H313 0.930 . S
C322 C320 1.378 . S
C322 C323 1.367 . S
C323 C322 1.367 . S
C323 C325 1.433 . S
C324 C320 1.350 . S
C324 C321 1.463 1_554 S
C324 N328 1.427 . S
C325 H315 0.929 . S
C325 C323 1.433 . S
C325 N328 1.384 . S
C326 H317 0.929 . S
C326 C318 1.378 . S
C326 C321 1.350 . S
C327 H314 0.929 . S
C327 C319 1.433 . S
C327 N329 1.384 . S
N328 C324 1.427 . S
N328 C325 1.384 . S
N329 C321 1.427 . S
N329 C327 1.384 . S
H330 C336 0.930 . S
H331 C340 0.930 . S
H332 C345 0.929 . S
H333 C343 0.929 . S
H334 C338 0.929 . S
H335 C344 0.929 . S
C336 H330 0.930 . S
C336 C337 1.367 . S
C336 C344 1.378 . S
C337 C336 1.367 . S
C337 C345 1.433 . S
C338 H334 0.929 . S
C338 C340 1.378 . S
C338 C342 1.350 . S
C339 C342 1.463 . S
C339 C344 1.350 . S
C339 N347 1.427 . S
C340 H331 0.930 . S
C340 C338 1.378 . S
C340 C341 1.367 . S
C341 C340 1.367 . S
C341 C343 1.433 . S
C342 C338 1.350 . S
C342 C339 1.463 . S
C342 N346 1.427 . S
C343 H333 0.929 . S
C343 C341 1.433 . S
C343 N346 1.384 . S
C344 H335 0.929 . S
C344 C336 1.378 . S
C344 C339 1.350 . S
C345 H332 0.929 . S
C345 C337 1.433 . S
C345 N347 1.384 . S
N346 C342 1.427 . S
N346 C343 1.384 . S
N347 C339 1.427 . S
N347 C345 1.384 . S
H348 C354 0.930 . S
H349 C358 0.930 . S
H350 C363 0.929 . S
H351 C361 0.929 . S
H352 C356 0.929 . S
H353 C362 0.929 . S
C354 H348 0.930 . S
C354 C355 1.367 . S
C354 C362 1.378 . S
C355 C354 1.367 . S
C355 C363 1.433 . S
C356 H352 0.929 . S
C356 C358 1.378 . S
C356 C360 1.350 . S
C357 C360 1.463 . S
C357 C362 1.350 . S
C357 N365 1.427 . S
C358 H349 0.930 . S
C358 C356 1.378 . S
C358 C359 1.367 . S
C359 C358 1.367 . S
C359 C361 1.433 . S
C360 C356 1.350 . S
C360 C357 1.463 . S
C360 N364 1.427 . S
C361 H351 0.929 . S
C361 C359 1.433 . S
C361 N364 1.384 . S
C362 H353 0.929 . S
C362 C354 1.378 . S
C362 C357 1.350 . S
C363 H350 0.929 . S
C363 C355 1.433 . S
C363 N365 1.384 . S
N364 C360 1.427 . S
N364 C361 1.384 . S
N365 C357 1.427 . S
N365 C363 1.384 . S
H366 C372 0.930 . S
H367 C376 0.930 . S
H368 C381 0.929 . S
H369 C379 0.929 . S
H370 C374 0.929 . S
H371 C380 0.929 . S
C372 H366 0.930 . S
C372 C373 1.367 . S
C372 C380 1.378 . S
C373 C372 1.367 . S
C373 C381 1.433 . S
C374 H370 0.929 . S
C374 C376 1.378 . S
C374 C378 1.350 . S
C375 C378 1.463 1_554 S
C375 C380 1.350 . S
C375 N383 1.427 . S
C376 H367 0.930 . S
C376 C374 1.378 . S
C376 C377 1.367 . S
C377 C376 1.367 . S
C377 C379 1.433 . S
C378 C374 1.350 . S
C378 C375 1.463 1_556 S
C378 N382 1.427 . S
C379 H369 0.929 . S
C379 C377 1.433 . S
C379 N382 1.384 . S
C380 H371 0.929 . S
C380 C372 1.378 . S
C380 C375 1.350 . S
C381 H368 0.929 . S
C381 C373 1.433 . S
C381 N383 1.384 . S
N382 C378 1.427 . S
N382 C379 1.384 . S
N383 C375 1.427 . S
N383 C381 1.384 . S
H384 C390 0.930 . S
H385 C394 0.930 . S
H386 C399 0.929 . S
H387 C397 0.929 . S
H388 C392 0.929 . S
H389 C398 0.929 . S
C390 H384 0.930 . S
C390 C391 1.367 . S
C390 C398 1.378 . S
C391 C390 1.367 . S
C391 C399 1.433 . S
C392 H388 0.929 . S
C392 C394 1.378 . S
C392 C396 1.350 . S
C393 C396 1.463 1_554 S
C393 C398 1.350 . S
C393 N401 1.427 . S
C394 H385 0.930 . S
C394 C392 1.378 . S
C394 C395 1.367 . S
C395 C394 1.367 . S
C395 C397 1.433 . S
C396 C392 1.350 . S
C396 C393 1.463 1_556 S
C396 N400 1.427 . S
C397 H387 0.929 . S
C397 C395 1.433 . S
C397 N400 1.384 . S
C398 H389 0.929 . S
C398 C390 1.378 . S
C398 C393 1.350 . S
C399 H386 0.929 . S
C399 C391 1.433 . S
C399 N401 1.384 . S
N400 C396 1.427 . S
N400 C397 1.384 . S
N401 C393 1.427 . S
N401 C399 1.384 . S
H402 C408 0.930 . S
H403 C412 0.930 . S
H404 C417 0.929 . S
H405 C415 0.929 . S
H406 C410 0.929 . S
H407 C416 0.929 . S
C408 H402 0.930 . S
C408 C409 1.367 . S
C408 C416 1.378 . S
C409 C408 1.367 . S
C409 C417 1.433 . S
C410 H406 0.929 . S
C410 C412 1.378 . S
C410 C414 1.350 . S
C411 C414 1.463 . S
C411 C416 1.350 . S
C411 N419 1.427 . S
C412 H403 0.930 . S
C412 C410 1.378 . S
C412 C413 1.367 . S
C413 C412 1.367 . S
C413 C415 1.433 . S
C414 C410 1.350 . S
C414 C411 1.463 . S
C414 N418 1.427 . S
C415 H405 0.929 . S
C415 C413 1.433 . S
C415 N418 1.384 . S
C416 H407 0.929 . S
C416 C408 1.378 . S
C416 C411 1.350 . S
C417 H404 0.929 . S
C417 C409 1.433 . S
C417 N419 1.384 . S
N418 C414 1.427 . S
N418 C415 1.384 . S
N419 C411 1.427 . S
N419 C417 1.384 . S
H420 C426 0.930 . S
H421 C430 0.930 . S
H422 C435 0.929 . S
H423 C433 0.929 . S
H424 C428 0.929 . S
H425 C434 0.929 . S
C426 H420 0.930 . S
C426 C427 1.367 . S
C426 C434 1.378 . S
C427 C426 1.367 . S
C427 C435 1.433 . S
C428 H424 0.929 . S
C428 C430 1.378 . S
C428 C432 1.350 . S
C429 C432 1.463 . S
C429 C434 1.350 . S
C429 N437 1.427 . S
C430 H421 0.930 . S
C430 C428 1.378 . S
C430 C431 1.367 . S
C431 C430 1.367 . S
C431 C433 1.433 . S
C432 C428 1.350 . S
C432 C429 1.463 . S
C432 N436 1.427 . S
C433 H423 0.929 . S
C433 C431 1.433 . S
C433 N436 1.384 . S
C434 H425 0.929 . S
C434 C426 1.378 . S
C434 C429 1.350 . S
C435 H422 0.929 . S
C435 C427 1.433 . S
C435 N437 1.384 . S
N436 C432 1.427 . S
N436 C433 1.384 . S
N437 C429 1.427 . S
N437 C435 1.384 . S
H438 C444 0.930 . S
H439 C448 0.930 . S
H440 C453 0.929 . S
H441 C451 0.929 . S
H442 C446 0.929 . S
H443 C452 0.929 . S
C444 H438 0.930 . S
C444 C445 1.367 1_556 S
C444 C452 1.378 . S
C445 C444 1.367 1_554 S
C445 C453 1.433 . S
C446 H442 0.929 . S
C446 C448 1.378 . S
C446 C450 1.350 1_554 S
C447 C450 1.463 1_554 S
C447 C452 1.350 1_554 S
C447 N455 1.427 . S
C448 H439 0.930 . S
C448 C446 1.378 . S
C448 C449 1.367 1_554 S
C449 C448 1.367 1_556 S
C449 C451 1.433 . S
C450 C446 1.350 1_556 S
C450 C447 1.463 1_556 S
C450 N454 1.427 . S
C451 H441 0.929 . S
C451 C449 1.433 . S
C451 N454 1.384 . S
C452 H443 0.929 . S
C452 C444 1.378 . S
C452 C447 1.350 1_556 S
C453 H440 0.929 . S
C453 C445 1.433 . S
C453 N455 1.384 . S
N454 C450 1.427 . S
N454 C451 1.384 . S
N455 C447 1.427 . S
N455 C453 1.384 . S
H456 C462 0.930 . S
H457 C466 0.930 . S
H458 C471 0.929 . S
H459 C469 0.929 . S
H460 C464 0.929 . S
H461 C470 0.929 . S
C462 H456 0.930 . S
C462 C463 1.367 . S
C462 C470 1.378 . S
C463 C462 1.367 . S
C463 C471 1.433 . S
C464 H460 0.929 . S
C464 C466 1.378 . S
C464 C468 1.350 . S
C465 C468 1.463 . S
C465 C470 1.350 . S
C465 N473 1.427 . S
C466 H457 0.930 . S
C466 C464 1.378 . S
C466 C467 1.367 . S
C467 C466 1.367 . S
C467 C469 1.433 . S
C468 C464 1.350 . S
C468 C465 1.463 . S
C468 N472 1.427 . S
C469 H459 0.929 . S
C469 C467 1.433 . S
C469 N472 1.384 . S
C470 H461 0.929 . S
C470 C462 1.378 . S
C470 C465 1.350 . S
C471 H458 0.929 . S
C471 C463 1.433 . S
C471 N473 1.384 . S
N472 C468 1.427 . S
N472 C469 1.384 . S
N473 C465 1.427 . S
N473 C471 1.384 . S
H474 C480 0.930 . S
H475 C484 0.930 . S
H476 C489 0.929 . S
H477 C487 0.929 . S
H478 C482 0.929 . S
H479 C488 0.929 . S
C480 H474 0.930 . S
C480 C481 1.367 . S
C480 C488 1.378 . S
C481 C480 1.367 . S
C481 C489 1.433 . S
C482 H478 0.929 . S
C482 C484 1.378 . S
C482 C486 1.350 . S
C483 C486 1.463 . S
C483 C488 1.350 . S
C483 N491 1.427 . S
C484 H475 0.930 . S
C484 C482 1.378 . S
C484 C485 1.367 . S
C485 C484 1.367 . S
C485 C487 1.433 . S
C486 C482 1.350 . S
C486 C483 1.463 . S
C486 N490 1.427 . S
C487 H477 0.929 . S
C487 C485 1.433 . S
C487 N490 1.384 . S
C488 H479 0.929 . S
C488 C480 1.378 . S
C488 C483 1.350 . S
C489 H476 0.929 . S
C489 C481 1.433 . S
C489 N491 1.384 . S
N490 C486 1.427 . S
N490 C487 1.384 . S
N491 C483 1.427 . S
N491 C489 1.384 . S
H492 C498 0.930 . S
H493 C502 0.930 . S
H494 C507 0.929 . S
H495 C505 0.929 . S
H496 C500 0.929 . S
H497 C506 0.929 . S
C498 H492 0.930 . S
C498 C499 1.367 . S
C498 C506 1.378 . S
C499 C498 1.367 . S
C499 C507 1.433 . S
C500 H496 0.929 . S
C500 C502 1.378 . S
C500 C504 1.350 . S
C501 C504 1.463 . S
C501 C506 1.350 . S
C501 N509 1.427 . S
C502 H493 0.930 . S
C502 C500 1.378 . S
C502 C503 1.367 . S
C503 C502 1.367 . S
C503 C505 1.433 . S
C504 C500 1.350 . S
C504 C501 1.463 . S
C504 N508 1.427 . S
C505 H495 0.929 . S
C505 C503 1.433 . S
C505 N508 1.384 . S
C506 H497 0.929 . S
C506 C498 1.378 . S
C506 C501 1.350 . S
C507 H494 0.929 . S
C507 C499 1.433 . S
C507 N509 1.384 . S
N508 C504 1.427 . S
N508 C505 1.384 . S
N509 C501 1.427 . S
N509 C507 1.384 . S
H510 C516 0.930 . S
H511 C520 0.930 . S
H512 C525 0.929 . S
H513 C523 0.929 . S
H514 C518 0.929 . S
H515 C524 0.929 . S
C516 H510 0.930 . S
C516 C517 1.367 . S
C516 C524 1.378 . S
C517 C516 1.367 . S
C517 C525 1.433 . S
C518 H514 0.929 . S
C518 C520 1.378 . S
C518 C522 1.350 . S
C519 C522 1.463 1_655 S
C519 C524 1.350 . S
C519 N527 1.427 . S
C520 H511 0.930 . S
C520 C518 1.378 . S
C520 C521 1.367 . S
C521 C520 1.367 . S
C521 C523 1.433 . S
C522 C518 1.350 . S
C522 C519 1.463 1_455 S
C522 N526 1.427 . S
C523 H513 0.929 . S
C523 C521 1.433 . S
C523 N526 1.384 . S
C524 H515 0.929 . S
C524 C516 1.378 . S
C524 C519 1.350 . S
C525 H512 0.929 . S
C525 C517 1.433 . S
C525 N527 1.384 . S
N526 C522 1.427 . S
N526 C523 1.384 . S
N527 C519 1.427 . S
N527 C525 1.384 . S
H528 C534 0.930 . S
H529 C538 0.930 . S
H530 C543 0.929 . S
H531 C541 0.929 . S
H532 C536 0.929 . S
H533 C542 0.929 . S
C534 H528 0.930 . S
C534 C535 1.367 . S
C534 C542 1.378 . S
C535 C534 1.367 . S
C535 C543 1.433 . S
C536 H532 0.929 . S
C536 C538 1.378 . S
C536 C540 1.350 . S
C537 C540 1.463 1_545 S
C537 C542 1.350 . S
C537 N545 1.427 . S
C538 H529 0.930 . S
C538 C536 1.378 . S
C538 C539 1.367 . S
C539 C538 1.367 . S
C539 C541 1.433 . S
C540 C536 1.350 . S
C540 C537 1.463 1_565 S
C540 N544 1.427 . S
C541 H531 0.929 . S
C541 C539 1.433 . S
C541 N544 1.384 . S
C542 H533 0.929 . S
C542 C534 1.378 . S
C542 C537 1.350 . S
C543 H530 0.929 . S
C543 C535 1.433 . S
C543 N545 1.384 . S
N544 C540 1.427 . S
N544 C541 1.384 . S
N545 C537 1.427 . S
N545 C543 1.384 . S
H546 C552 0.930 . S
H547 C556 0.930 . S
H548 C561 0.929 . S
H549 C559 0.929 . S
H550 C554 0.929 . S
H551 C560 0.929 . S
C552 H546 0.930 . S
C552 C553 1.367 . S
C552 C560 1.378 . S
C553 C552 1.367 . S
C553 C561 1.433 . S
C554 H550 0.929 . S
C554 C556 1.378 . S
C554 C558 1.350 . S
C555 C558 1.463 . S
C555 C560 1.350 . S
C555 N563 1.427 . S
C556 H547 0.930 . S
C556 C554 1.378 . S
C556 C557 1.367 . S
C557 C556 1.367 . S
C557 C559 1.433 . S
C558 C554 1.350 . S
C558 C555 1.463 . S
C558 N562 1.427 . S
C559 H549 0.929 . S
C559 C557 1.433 . S
C559 N562 1.384 . S
C560 H551 0.929 . S
C560 C552 1.378 . S
C560 C555 1.350 . S
C561 H548 0.929 . S
C561 C553 1.433 . S
C561 N563 1.384 . S
N562 C558 1.427 . S
N562 C559 1.384 . S
N563 C555 1.427 . S
N563 C561 1.384 . S
H564 C570 0.930 . S
H565 C574 0.930 . S
H566 C579 0.929 . S
H567 C577 0.929 . S
H568 C572 0.929 . S
H569 C578 0.929 . S
C570 H564 0.930 . S
C570 C571 1.367 . S
C570 C578 1.378 . S
C571 C570 1.367 . S
C571 C579 1.433 . S
C572 H568 0.929 . S
C572 C574 1.378 . S
C572 C576 1.350 . S
C573 C576 1.463 1_455 S
C573 C578 1.350 . S
C573 N581 1.427 . S
C574 H565 0.930 . S
C574 C572 1.378 . S
C574 C575 1.367 . S
C575 C574 1.367 . S
C575 C577 1.433 . S
C576 C572 1.350 . S
C576 C573 1.463 1_655 S
C576 N580 1.427 . S
C577 H567 0.929 . S
C577 C575 1.433 . S
C577 N580 1.384 . S
C578 H569 0.929 . S
C578 C570 1.378 . S
C578 C573 1.350 . S
C579 H566 0.929 . S
C579 C571 1.433 . S
C579 N581 1.384 . S
N580 C576 1.427 . S
N580 C577 1.384 . S
N581 C573 1.427 . S
N581 C579 1.384 . S
H582 C588 0.930 . S
H583 C592 0.930 . S
H584 C597 0.929 . S
H585 C595 0.929 . S
H586 C590 0.929 . S
H587 C596 0.929 . S
C588 H582 0.930 . S
C588 C589 1.367 . S
C588 C596 1.378 . S
C589 C588 1.367 . S
C589 C597 1.433 . S
C590 H586 0.929 . S
C590 C592 1.378 . S
C590 C594 1.350 . S
C591 C594 1.463 1_565 S
C591 C596 1.350 . S
C591 N599 1.427 . S
C592 H583 0.930 . S
C592 C590 1.378 . S
C592 C593 1.367 . S
C593 C592 1.367 . S
C593 C595 1.433 . S
C594 C590 1.350 . S
C594 C591 1.463 1_545 S
C594 N598 1.427 . S
C595 H585 0.929 . S
C595 C593 1.433 . S
C595 N598 1.384 . S
C596 H587 0.929 . S
C596 C588 1.378 . S
C596 C591 1.350 . S
C597 H584 0.929 . S
C597 C589 1.433 . S
C597 N599 1.384 . S
N598 C594 1.427 . S
N598 C595 1.384 . S
N599 C591 1.427 . S
N599 C597 1.384 . S
H600 C606 0.930 . S
H601 C610 0.930 . S
H602 C615 0.929 . S
H603 C613 0.929 . S
H604 C608 0.929 . S
H605 C614 0.929 . S
C606 H600 0.930 . S
C606 C607 1.367 . S
C606 C614 1.378 . S
C607 C606 1.367 . S
C607 C615 1.433 . S
C608 H604 0.929 . S
C608 C610 1.378 . S
C608 C612 1.350 . S
C609 C612 1.463 . S
C609 C614 1.350 . S
C609 N617 1.427 . S
C610 H601 0.930 . S
C610 C608 1.378 . S
C610 C611 1.367 . S
C611 C610 1.367 . S
C611 C613 1.433 . S
C612 C608 1.350 . S
C612 C609 1.463 . S
C612 N616 1.427 . S
C613 H603 0.929 . S
C613 C611 1.433 . S
C613 N616 1.384 . S
C614 H605 0.929 . S
C614 C606 1.378 . S
C614 C609 1.350 . S
C615 H602 0.929 . S
C615 C607 1.433 . S
C615 N617 1.384 . S
N616 C612 1.427 . S
N616 C613 1.384 . S
N617 C609 1.427 . S
N617 C615 1.384 . S
H618 C624 0.930 . S
H619 C628 0.930 . S
H620 C633 0.929 . S
H621 C631 0.929 . S
H622 C626 0.929 . S
H623 C632 0.929 . S
C624 H618 0.930 . S
C624 C625 1.367 . S
C624 C632 1.378 . S
C625 C624 1.367 . S
C625 C633 1.433 . S
C626 H622 0.929 . S
C626 C628 1.378 . S
C626 C630 1.350 . S
C627 C630 1.463 . S
C627 C632 1.350 . S
C627 N635 1.427 . S
C628 H619 0.930 . S
C628 C626 1.378 . S
C628 C629 1.367 . S
C629 C628 1.367 . S
C629 C631 1.433 . S
C630 C626 1.350 . S
C630 C627 1.463 . S
C630 N634 1.427 . S
C631 H621 0.929 . S
C631 C629 1.433 . S
C631 N634 1.384 . S
C632 H623 0.929 . S
C632 C624 1.378 . S
C632 C627 1.350 . S
C633 H620 0.929 . S
C633 C625 1.433 . S
C633 N635 1.384 . S
N634 C630 1.427 . S
N634 C631 1.384 . S
N635 C627 1.427 . S
N635 C633 1.384 . S
H636 C642 0.930 . S
H637 C646 0.930 . S
H638 C651 0.929 . S
H639 C649 0.929 . S
H640 C644 0.929 . S
H641 C650 0.929 . S
C642 H636 0.930 . S
C642 C643 1.367 . S
C642 C650 1.378 . S
C643 C642 1.367 . S
C643 C651 1.433 . S
C644 H640 0.929 . S
C644 C646 1.378 . S
C644 C648 1.350 . S
C645 C648 1.463 . S
C645 C650 1.350 . S
C645 N653 1.427 . S
C646 H637 0.930 . S
C646 C644 1.378 . S
C646 C647 1.367 . S
C647 C646 1.367 . S
C647 C649 1.433 . S
C648 C644 1.350 . S
C648 C645 1.463 . S
C648 N652 1.427 . S
C649 H639 0.929 . S
C649 C647 1.433 . S
C649 N652 1.384 . S
C650 H641 0.929 . S
C650 C642 1.378 . S
C650 C645 1.350 . S
C651 H638 0.929 . S
C651 C643 1.433 . S
C651 N653 1.384 . S
N652 C648 1.427 . S
N652 C649 1.384 . S
N653 C645 1.427 . S
N653 C651 1.384 . S
H654 C660 0.930 . S
H655 C664 0.930 . S
H656 C669 0.929 . S
H657 C667 0.929 . S
H658 C662 0.929 . S
H659 C668 0.929 . S
C660 H654 0.930 . S
C660 C661 1.367 . S
C660 C668 1.378 . S
C661 C660 1.367 . S
C661 C669 1.433 . S
C662 H658 0.929 . S
C662 C664 1.378 . S
C662 C666 1.350 . S
C663 C666 1.463 . S
C663 C668 1.350 . S
C663 N671 1.427 . S
C664 H655 0.930 . S
C664 C662 1.378 . S
C664 C665 1.367 . S
C665 C664 1.367 . S
C665 C667 1.433 . S
C666 C662 1.350 . S
C666 C663 1.463 . S
C666 N670 1.427 . S
C667 H657 0.929 . S
C667 C665 1.433 . S
C667 N670 1.384 . S
C668 H659 0.929 . S
C668 C660 1.378 . S
C668 C663 1.350 . S
C669 H656 0.929 . S
C669 C661 1.433 . S
C669 N671 1.384 . S
N670 C666 1.427 . S
N670 C667 1.384 . S
N671 C663 1.427 . S
N671 C669 1.384 . S
H672 C678 0.930 . S
H673 C682 0.930 . S
H674 C687 0.929 . S
H675 C685 0.929 . S
H676 C680 0.929 . S
H677 C686 0.929 . S
C678 H672 0.930 . S
C678 C679 1.367 . S
C678 C686 1.378 . S
C679 C678 1.367 . S
C679 C687 1.433 . S
C680 H676 0.929 . S
C680 C682 1.378 . S
C680 C684 1.350 . S
C681 C684 1.463 . S
C681 C686 1.350 . S
C681 N689 1.427 . S
C682 H673 0.930 . S
C682 C680 1.378 . S
C682 C683 1.367 . S
C683 C682 1.367 . S
C683 C685 1.433 . S
C684 C680 1.350 . S
C684 C681 1.463 . S
C684 N688 1.427 . S
C685 H675 0.929 . S
C685 C683 1.433 . S
C685 N688 1.384 . S
C686 H677 0.929 . S
C686 C678 1.378 . S
C686 C681 1.350 . S
C687 H674 0.929 . S
C687 C679 1.433 . S
C687 N689 1.384 . S
N688 C684 1.427 . S
N688 C685 1.384 . S
N689 C681 1.427 . S
N689 C687 1.384 . S
H690 C696 0.930 . S
H691 C700 0.930 . S
H692 C705 0.929 . S
H693 C703 0.929 . S
H694 C698 0.929 . S
H695 C704 0.929 . S
C696 H690 0.930 . S
C696 C697 1.367 . S
C696 C704 1.378 . S
C697 C696 1.367 . S
C697 C705 1.433 . S
C698 H694 0.929 . S
C698 C700 1.378 . S
C698 C702 1.350 . S
C699 C702 1.463 . S
C699 C704 1.350 . S
C699 N707 1.427 . S
C700 H691 0.930 . S
C700 C698 1.378 . S
C700 C701 1.367 . S
C701 C700 1.367 . S
C701 C703 1.433 . S
C702 C698 1.350 . S
C702 C699 1.463 . S
C702 N706 1.427 . S
C703 H693 0.929 . S
C703 C701 1.433 . S
C703 N706 1.384 . S
C704 H695 0.929 . S
C704 C696 1.378 . S
C704 C699 1.350 . S
C705 H692 0.929 . S
C705 C697 1.433 . S
C705 N707 1.384 . S
N706 C702 1.427 . S
N706 C703 1.384 . S
N707 C699 1.427 . S
N707 C705 1.384 . S
C283 C16 1.492 . S
C287 C154 1.486 . S
C301 C39 1.484 . S
C305 C177 1.484 . S
C319 C62 1.488 . S
C323 C200 1.483 . S
C337 C85 1.488 . S
C341 C223 1.492 . S
C355 C108 1.491 . S
C359 C246 1.490 . S
C373 C269 1.490 . S
C377 C131 1.491 . S
C391 N12 1.709 . S
C395 N242 1.710 . S
C409 N35 1.708 . S
C413 N265 1.709 . S
C427 N58 1.708 . S
C431 N150 1.708 . S
C445 N81 1.713 . S
C449 N173 1.714 . S
C463 N104 1.708 . S
C467 N196 1.707 . S
C481 N127 1.713 . S
C485 N219 1.714 . S
C499 N2 1.675 . S
C503 N71 1.677 . S
C517 N25 1.668 . S
C521 N94 1.678 . S
C535 N117 1.660 . S
C539 N48 1.670 . S
C553 N140 1.673 . S
C557 N209 1.661 . S
C571 N232 1.676 . S
C575 N163 1.675 . S
C589 N186 1.668 . S
C593 N255 1.659 . S
C607 C145 1.474 . S
C611 C7 1.471 . S
C625 C30 1.469 . S
C629 C168 1.473 . S
C643 C53 1.474 . S
C647 C191 1.470 . S
C661 C214 1.471 . S
C665 C76 1.469 . S
C679 C237 1.474 . S
C683 C99 1.472 . S
C697 C122 1.473 . S
C701 C260 1.469 . S
