# Generated by pormake.
# Topology pcu-i, (5)-cn, num edge types: 1
# Building blocks:
#     Node 0, Type 0, BuildingBlock: XOMCOT_clean_sbu_0, # of connection points: 5
#     Node 1, Type 0, BuildingBlock: XOMCOT_clean_sbu_0, # of connection points: 5
#     Node 2, Type 0, BuildingBlock: XOMCOT_clean_sbu_0, # of connection points: 5
#     Node 3, Type 0, BuildingBlock: XOMCOT_clean_sbu_0, # of connection points: 5
#     Node 4, Type 0, BuildingBlock: XOMCOT_clean_sbu_0, # of connection points: 5
#     Node 5, Type 0, BuildingBlock: XOMCOT_clean_sbu_0, # of connection points: 5
#     Node 6, Type 0, BuildingBlock: XOMCOT_clean_sbu_0, # of connection points: 5
#     Node 7, Type 0, BuildingBlock: XOMCOT_clean_sbu_0, # of connection points: 5
#     Node 8, Type 0, BuildingBlock: XOMCOT_clean_sbu_0, # of connection points: 5
#     Node 9, Type 0, BuildingBlock: XOMCOT_clean_sbu_0, # of connection points: 5
#     Node 10, Type 0, BuildingBlock: XOMCOT_clean_sbu_0, # of connection points: 5
#     Node 11, Type 0, BuildingBlock: XOMCOT_clean_sbu_0, # of connection points: 5
#     Node 12, Type 0, BuildingBlock: XOMCOT_clean_sbu_0, # of connection points: 5
#     Node 13, Type 0, BuildingBlock: XOMCOT_clean_sbu_0, # of connection points: 5
#     Node 14, Type 0, BuildingBlock: XOMCOT_clean_sbu_0, # of connection points: 5
#     Node 15, Type 0, BuildingBlock: XOMCOT_clean_sbu_0, # of connection points: 5
#     Node 16, Type 0, BuildingBlock: XOMCOT_clean_sbu_0, # of connection points: 5
#     Node 17, Type 0, BuildingBlock: XOMCOT_clean_sbu_0, # of connection points: 5
#     Node 18, Type 0, BuildingBlock: XOMCOT_clean_sbu_0, # of connection points: 5
#     Node 19, Type 0, BuildingBlock: XOMCOT_clean_sbu_0, # of connection points: 5
#     Node 20, Type 0, BuildingBlock: XOMCOT_clean_sbu_0, # of connection points: 5
#     Node 21, Type 0, BuildingBlock: XOMCOT_clean_sbu_0, # of connection points: 5
#     Node 22, Type 0, BuildingBlock: XOMCOT_clean_sbu_0, # of connection points: 5
#     Node 23, Type 0, BuildingBlock: XOMCOT_clean_sbu_0, # of connection points: 5
#     Edge 24, Type (0, 0), None
#     Edge 25, Type (0, 0), None
#     Edge 26, Type (0, 0), None
#     Edge 27, Type (0, 0), None
#     Edge 28, Type (0, 0), None
#     Edge 29, Type (0, 0), None
#     Edge 30, Type (0, 0), None
#     Edge 31, Type (0, 0), None
#     Edge 32, Type (0, 0), None
#     Edge 33, Type (0, 0), None
#     Edge 34, Type (0, 0), None
#     Edge 35, Type (0, 0), None
#     Edge 36, Type (0, 0), None
#     Edge 37, Type (0, 0), None
#     Edge 38, Type (0, 0), None
#     Edge 39, Type (0, 0), None
#     Edge 40, Type (0, 0), None
#     Edge 41, Type (0, 0), None
#     Edge 42, Type (0, 0), None
#     Edge 43, Type (0, 0), None
#     Edge 44, Type (0, 0), None
#     Edge 45, Type (0, 0), None
#     Edge 46, Type (0, 0), None
#     Edge 47, Type (0, 0), None
#     Edge 48, Type (0, 0), None
#     Edge 49, Type (0, 0), None
#     Edge 50, Type (0, 0), None
#     Edge 51, Type (0, 0), None
#     Edge 52, Type (0, 0), None
#     Edge 53, Type (0, 0), None
#     Edge 54, Type (0, 0), None
#     Edge 55, Type (0, 0), None
#     Edge 56, Type (0, 0), None
#     Edge 57, Type (0, 0), None
#     Edge 58, Type (0, 0), None
#     Edge 59, Type (0, 0), None
#     Edge 60, Type (0, 0), None
#     Edge 61, Type (0, 0), None
#     Edge 62, Type (0, 0), None
#     Edge 63, Type (0, 0), None
#     Edge 64, Type (0, 0), None
#     Edge 65, Type (0, 0), None
#     Edge 66, Type (0, 0), None
#     Edge 67, Type (0, 0), None
#     Edge 68, Type (0, 0), None
#     Edge 69, Type (0, 0), None
#     Edge 70, Type (0, 0), None
#     Edge 71, Type (0, 0), None
#     Edge 72, Type (0, 0), None
#     Edge 73, Type (0, 0), None
#     Edge 74, Type (0, 0), None
#     Edge 75, Type (0, 0), None
#     Edge 76, Type (0, 0), None
#     Edge 77, Type (0, 0), None
#     Edge 78, Type (0, 0), None
#     Edge 79, Type (0, 0), None
#     Edge 80, Type (0, 0), None
#     Edge 81, Type (0, 0), None
#     Edge 82, Type (0, 0), None
#     Edge 83, Type (0, 0), None
# Relax obj value: 0.320
# Max RMSD: 0.282
# Mean RMSD: 0.282
data_MOF--net-pcu-i--node1-XOMCOT_clean_sbu_0--edge1-none
_symmetry_space_group_name_H-M    P1
_symmetry_Int_Tables_number       1
_symmetry_cell_setting            triclinic
loop_
_symmetry_equiv_pos_as_xyz
'x, y, z'
_cell_length_a     28.826113
_cell_length_b     28.825412
_cell_length_c     28.827677
_cell_angle_alpha  90.000232
_cell_angle_beta   90.001181
_cell_angle_gamma 89.999343
loop_
_atom_site_label
_atom_site_type_symbol
_atom_site_fract_x
_atom_site_fract_y
_atom_site_fract_z
_atom_type_partial_charge
Co0 Co 0.14188 0.14015 0.3233 0.0
C1 C 0.03994 0.12178 0.30876 0.0
C2 C 0.05694 0.19331 0.31234 0.0
C3 C 0.01455 0.18911 0.29159 0.0
N4 N 0.07458 0.15098 0.3219 0.0
N5 N 1.00282 0.14401 0.28946 0.0
H6 H 0.0412 0.08458 0.3137 0.0
H7 H 0.07361 0.22602 0.31932 0.0
C8 C 0.16278 0.24141 0.30316 0.0
O9 O 0.18336 0.24753 0.34333 0.0
N10 N 0.21007 0.13567 0.31862 0.0
C11 C 0.24162 0.15741 0.34638 0.0
C12 C 0.28127 0.16748 0.32202 0.0
C13 C 0.23201 0.1344 0.27694 0.0
N14 N 0.27469 0.15412 0.27809 0.0
C15 C 0.17122 0.12447 0.41344 0.0
C16 C 0.1381 0.1997 0.46067 0.0
C17 C 0.16225 0.16451 0.48561 0.0
C18 C 0.17882 0.12703 0.4606 0.0
C19 C 0.13087 0.19562 0.41214 0.0
N20 N 0.14851 0.15845 0.38877 0.0
H21 H 0.18647 0.09494 0.39626 0.0
H22 H 0.1112 0.22185 0.394 0.0
H23 H 0.23526 0.17197 0.38018 0.0
H24 H 0.21505 0.12435 0.24501 0.0
O25 O 0.13212 0.07689 0.34164 0.0
O26 O 0.13691 0.09862 0.26902 0.0
O27 O 0.14855 0.20148 0.29114 0.0
C28 C 0.13255 0.06484 0.29901 0.0
H29 H 0.99142 0.21781 0.28408 0.0
H30 H 0.31069 0.18717 0.33462 0.0
H31 H 0.1241 0.22964 0.47844 0.0
H32 H 0.19624 0.09826 0.47731 0.0
Co33 Co 0.8831 0.14191 0.32329 0.0
C34 C 0.90151 0.03998 0.30875 0.0
C35 C 0.82998 0.05695 0.31236 0.0
C36 C 0.83418 0.01456 0.29161 0.0
N37 N 0.87231 0.0746 0.32191 0.0
N38 N 0.87928 1.00285 0.28946 0.0
H39 H 0.93871 0.04125 0.31367 0.0
H40 H 0.79726 0.07361 0.31936 0.0
C41 C 0.78184 0.16278 0.30317 0.0
O42 O 0.77571 0.18337 0.34334 0.0
N43 N 0.88756 0.21011 0.31861 0.0
C44 C 0.8658 0.24165 0.34636 0.0
C45 C 0.85572 0.2813 0.322 0.0
C46 C 0.88882 0.23205 0.27693 0.0
N47 N 0.86909 0.27472 0.27807 0.0
C48 C 0.89879 0.17127 0.41343 0.0
C49 C 0.82359 0.1381 0.46067 0.0
C50 C 0.85877 0.16226 0.48561 0.0
C51 C 0.89624 0.17886 0.46059 0.0
C52 C 0.82766 0.13088 0.41214 0.0
N53 N 0.86482 0.14854 0.38876 0.0
H54 H 0.9283 0.18653 0.39625 0.0
H55 H 0.80144 0.1112 0.39401 0.0
H56 H 0.85125 0.23528 0.38017 0.0
H57 H 0.89889 0.21509 0.245 0.0
O58 O 0.94637 0.1322 0.34162 0.0
O59 O 0.9246 0.13694 0.26899 0.0
O60 O 0.82177 0.14855 0.29115 0.0
C61 C 0.95839 0.13264 0.29898 0.0
H62 H 0.80548 0.99143 0.28411 0.0
H63 H 0.83602 0.31071 0.3346 0.0
H64 H 0.79365 0.12408 0.47845 0.0
H65 H 0.925 0.19629 0.4773 0.0
Co66 Co 0.88138 0.88313 0.32328 0.0
C67 C 0.98331 0.9015 0.30872 0.0
C68 C 0.96632 0.82997 0.31237 0.0
C69 C 1.00871 0.83416 0.29161 0.0
N70 N 0.94868 0.87231 0.3219 0.0
N71 N 0.02043 0.87925 0.28944 0.0
H72 H 0.98205 0.9387 0.31363 0.0
H73 H 0.94965 0.79727 0.31938 0.0
C74 C 0.86049 0.78186 0.30317 0.0
O75 O 0.8399 0.77574 0.34333 0.0
N76 N 0.81318 0.88759 0.31861 0.0
C77 C 0.78164 0.86586 0.34636 0.0
C78 C 0.74199 0.85578 0.32201 0.0
C79 C 0.79124 0.88885 0.27692 0.0
N80 N 0.74856 0.86913 0.27807 0.0
C81 C 0.85204 0.89882 0.41343 0.0
C82 C 0.88518 0.8236 0.46067 0.0
C83 C 0.86103 0.8588 0.48561 0.0
C84 C 0.84445 0.89627 0.46059 0.0
C85 C 0.8924 0.82767 0.41214 0.0
N86 N 0.87475 0.86484 0.38876 0.0
H87 H 0.83679 0.92834 0.39625 0.0
H88 H 0.91206 0.80145 0.394 0.0
H89 H 0.788 0.85131 0.38018 0.0
H90 H 0.8082 0.8989 0.24499 0.0
O91 O 0.89111 0.9464 0.34161 0.0
O92 O 0.88635 0.92462 0.26898 0.0
O93 O 0.87472 0.82179 0.29114 0.0
C94 C 0.89067 0.95841 0.29897 0.0
H95 H 0.03183 0.80545 0.28411 0.0
H96 H 0.71257 0.83609 0.33462 0.0
H97 H 0.89918 0.79366 0.47844 0.0
H98 H 0.82703 0.92504 0.4773 0.0
Co99 Co 0.14016 0.88133 0.32325 0.0
C100 C 0.12175 0.98328 0.30882 0.0
C101 C 0.1933 0.96628 0.31219 0.0
C102 C 0.18907 1.00871 0.2915 0.0
N103 N 0.15098 0.94863 0.32184 0.0
N104 N 0.14397 0.0204 0.28955 0.0
H105 H 0.08455 0.98203 0.31385 0.0
H106 H 0.22603 0.94961 0.31911 0.0
C107 C 0.24142 0.86043 0.30314 0.0
O108 O 0.24755 0.83987 0.34332 0.0
N109 N 0.13568 0.81313 0.31858 0.0
C110 C 0.15744 0.78159 0.34634 0.0
C111 C 0.16752 0.74195 0.32198 0.0
C112 C 0.13442 0.79119 0.2769 0.0
N113 N 0.15415 0.74852 0.27805 0.0
C114 C 0.12448 0.85199 0.41339 0.0
C115 C 0.19967 0.88519 0.46063 0.0
C116 C 0.16449 0.86102 0.48557 0.0
C117 C 0.12703 0.84441 0.46055 0.0
C118 C 0.1956 0.89239 0.4121 0.0
N119 N 0.15845 0.87471 0.38872 0.0
H120 H 0.09496 0.83673 0.39621 0.0
H121 H 0.22181 0.91208 0.39396 0.0
H122 H 0.172 0.78796 0.38014 0.0
H123 H 0.12435 0.80815 0.24497 0.0
O124 O 0.07689 0.89107 0.34158 0.0
O125 O 0.09865 0.8863 0.26895 0.0
O126 O 0.20149 0.87465 0.2911 0.0
C127 C 0.06487 0.89063 0.29894 0.0
H128 H 0.21774 0.03185 0.28396 0.0
H129 H 0.18723 0.71254 0.33458 0.0
H130 H 0.2296 0.89922 0.4784 0.0
H131 H 0.09826 0.82699 0.47726 0.0
Co132 Co 0.14186 0.8831 0.69987 0.0
C133 C 0.03992 0.90148 0.71442 0.0
C134 C 0.05692 0.82996 0.71082 0.0
C135 C 0.01453 0.83416 0.73158 0.0
N136 N 0.07455 0.87229 0.70127 0.0
N137 N 1.0028 0.87925 0.73372 0.0
H138 H 0.04118 0.93869 0.70948 0.0
H139 H 0.07358 0.79724 0.70383 0.0
C140 C 0.16275 0.78185 0.72 0.0
O141 O 0.18333 0.77572 0.67984 0.0
N142 N 0.21005 0.88758 0.70454 0.0
C143 C 0.2416 0.86583 0.67679 0.0
C144 C 0.28125 0.85577 0.70115 0.0
C145 C 0.23199 0.88885 0.74623 0.0
N146 N 0.27467 0.86913 0.74509 0.0
C147 C 0.1712 0.89878 0.60973 0.0
C148 C 0.13805 0.82356 0.56249 0.0
C149 C 0.1622 0.85875 0.53755 0.0
C150 C 0.17879 0.89622 0.56256 0.0
C151 C 0.13083 0.82763 0.61102 0.0
N152 N 0.14849 0.8648 0.6344 0.0
H153 H 0.18646 0.9283 0.62691 0.0
H154 H 0.11116 0.80142 0.62916 0.0
H155 H 0.23524 0.85128 0.64299 0.0
H156 H 0.21503 0.8989 0.77816 0.0
O157 O 0.13211 0.94636 0.68152 0.0
O158 O 0.13689 0.92464 0.75414 0.0
O159 O 0.14853 0.82178 0.73203 0.0
C160 C 0.13254 0.95842 0.72415 0.0
H161 H 0.9914 0.80545 0.73908 0.0
H162 H 0.31067 0.83607 0.68855 0.0
H163 H 0.12404 0.79362 0.54472 0.0
H164 H 0.19621 0.92499 0.54585 0.0
Co165 Co 0.14018 0.14193 0.69991 0.0
C166 C 0.12176 0.03998 0.71432 0.0
C167 C 0.19332 0.05698 0.71101 0.0
C168 C 0.18907 0.01455 0.73169 0.0
N169 N 0.151 0.07463 0.70132 0.0
N170 N 0.14397 1.00286 0.7336 0.0
H171 H 0.08457 0.04123 0.70926 0.0
H172 H 0.22605 0.07364 0.70411 0.0
C173 C 0.24143 0.16283 0.72003 0.0
O174 O 0.24756 0.18338 0.67985 0.0
N175 N 0.1357 0.21013 0.70456 0.0
C176 C 0.15746 0.24167 0.67682 0.0
C177 C 0.16753 0.28132 0.70118 0.0
C178 C 0.13441 0.23207 0.74625 0.0
N179 N 0.15415 0.27474 0.74511 0.0
C180 C 0.12452 0.17128 0.60976 0.0
C181 C 0.19971 0.13806 0.56254 0.0
C182 C 0.16453 0.16223 0.53759 0.0
C183 C 0.12707 0.17885 0.5626 0.0
C184 C 0.19564 0.13086 0.61107 0.0
N185 N 0.15848 0.14855 0.63444 0.0
H186 H 0.095 0.18654 0.62694 0.0
H187 H 0.22184 0.11117 0.62921 0.0
H188 H 0.17203 0.2353 0.64302 0.0
H189 H 0.12434 0.21511 0.77817 0.0
O190 O 0.07692 0.13217 0.68155 0.0
O191 O 0.09864 0.13697 0.75417 0.0
O192 O 0.20149 0.14862 0.73207 0.0
C193 C 0.06486 0.1326 0.72418 0.0
H194 H 0.21773 0.9914 0.73925 0.0
H195 H 0.18725 0.31073 0.68859 0.0
H196 H 0.22963 0.12402 0.54476 0.0
H197 H 0.09831 0.19628 0.54589 0.0
Co198 Co 0.88135 0.14018 0.69991 0.0
C199 C 0.98331 0.12179 0.71435 0.0
C200 C 0.96629 0.19334 0.711 0.0
C201 C 1.00872 0.18912 0.73169 0.0
N202 N 0.94865 0.15102 0.70133 0.0
N203 N 0.02042 0.14402 0.73362 0.0
H204 H 0.98207 0.0846 0.7093 0.0
H205 H 0.94961 0.22607 0.70409 0.0
C206 C 0.86044 0.24143 0.72004 0.0
O207 O 0.83988 0.24756 0.67986 0.0
N208 N 0.81316 0.13568 0.70457 0.0
C209 C 0.78161 0.15743 0.67682 0.0
C210 C 0.74196 0.1675 0.70117 0.0
C211 C 0.79122 0.13441 0.74625 0.0
N212 N 0.74854 0.15414 0.74511 0.0
C213 C 0.85203 0.12451 0.60976 0.0
C214 C 0.88522 0.19972 0.56254 0.0
C215 C 0.86106 0.16453 0.53759 0.0
C216 C 0.84445 0.12706 0.5626 0.0
C217 C 0.89242 0.19565 0.61107 0.0
N218 N 0.87474 0.15849 0.63444 0.0
H219 H 0.83677 0.09499 0.62694 0.0
H220 H 0.91209 0.22186 0.62922 0.0
H221 H 0.78798 0.17199 0.64301 0.0
H222 H 0.80818 0.12436 0.77818 0.0
O223 O 0.89113 0.07693 0.68155 0.0
O224 O 0.88632 0.09863 0.75417 0.0
O225 O 0.87465 0.2015 0.73208 0.0
C226 C 0.8907 0.06486 0.72418 0.0
H227 H 0.03186 0.21779 0.73924 0.0
H228 H 0.71255 0.1872 0.68857 0.0
H229 H 0.89924 0.22965 0.54477 0.0
H230 H 0.82703 0.0983 0.54589 0.0
Co231 Co 0.88307 0.88135 0.69992 0.0
C232 C 0.9015 0.9833 0.71435 0.0
C233 C 0.82994 0.9663 0.71098 0.0
C234 C 0.83417 1.00873 0.73167 0.0
N235 N 0.87226 0.94865 0.70133 0.0
N236 N 0.87927 0.02042 0.73362 0.0
H237 H 0.93869 0.98204 0.70933 0.0
H238 H 0.79721 0.94964 0.70406 0.0
C239 C 0.78182 0.86047 0.72003 0.0
O240 O 0.77568 0.83991 0.67985 0.0
N241 N 0.88754 0.81315 0.70458 0.0
C242 C 0.86578 0.78161 0.67684 0.0
C243 C 0.8557 0.74196 0.70119 0.0
C244 C 0.88881 0.79121 0.74627 0.0
N245 N 0.86907 0.74854 0.74512 0.0
C246 C 0.89874 0.852 0.60977 0.0
C247 C 0.82357 0.88524 0.56254 0.0
C248 C 0.85875 0.86107 0.53759 0.0
C249 C 0.8962 0.84444 0.56261 0.0
C250 C 0.82763 0.89243 0.61107 0.0
N251 N 0.86478 0.87473 0.63445 0.0
H252 H 0.92825 0.83673 0.62696 0.0
H253 H 0.80143 0.91212 0.62921 0.0
H254 H 0.85121 0.78798 0.64303 0.0
H255 H 0.89888 0.80817 0.77819 0.0
O256 O 0.94634 0.89108 0.68158 0.0
O257 O 0.92458 0.88631 0.75421 0.0
O258 O 0.82175 0.87467 0.73207 0.0
C259 C 0.95837 0.89063 0.72422 0.0
H260 H 0.8055 0.03187 0.73921 0.0
H261 H 0.83598 0.71256 0.6886 0.0
H262 H 0.79365 0.89928 0.54476 0.0
H263 H 0.92496 0.827 0.5459 0.0
Co264 Co 0.32332 0.1418 0.14017 0.0
C265 C 0.30873 0.03987 0.12176 0.0
C266 C 0.3124 0.05683 0.19328 0.0
C267 C 0.29162 0.01445 0.18908 0.0
N268 N 0.32192 0.07449 0.15095 0.0
N269 N 0.28944 1.00275 0.14398 0.0
H270 H 0.31364 0.04115 0.08455 0.0
H271 H 0.31942 0.07349 0.22599 0.0
C272 C 0.30321 0.16264 0.24143 0.0
O273 O 0.34338 0.18321 0.24756 0.0
N274 N 0.31866 0.21 0.13572 0.0
C275 C 0.34642 0.24153 0.15747 0.0
C276 C 0.32207 0.28119 0.16755 0.0
C277 C 0.27698 0.23195 0.13446 0.0
N278 N 0.27813 0.27463 0.15418 0.0
C279 C 0.41346 0.17115 0.12446 0.0
C280 C 0.46074 0.138 0.19965 0.0
C281 C 0.48566 0.16217 0.16446 0.0
C282 C 0.46062 0.17876 0.127 0.0
C283 C 0.41221 0.13077 0.19559 0.0
N284 N 0.38881 0.14842 0.15844 0.0
H285 H 0.39627 0.18641 0.09496 0.0
H286 H 0.39408 0.11109 0.22182 0.0
H287 H 0.38022 0.23516 0.17203 0.0
H288 H 0.24504 0.21499 0.12439 0.0
O289 O 0.34165 0.13207 0.0769 0.0
O290 O 0.26904 0.13686 0.09864 0.0
O291 O 0.29117 0.14844 0.2015 0.0
C292 C 0.29902 0.13251 0.06485 0.0
H293 H 0.28413 0.99132 0.21778 0.0
H294 H 0.33468 0.3106 0.18725 0.0
H295 H 0.47853 0.124 0.22958 0.0
H296 H 0.47732 0.19619 0.09823 0.0
Co297 Co 0.88144 0.32334 0.14015 0.0
C298 C 0.98336 0.30874 0.12176 0.0
C299 C 0.96639 0.3124 0.19328 0.0
C300 C 1.00877 0.29163 0.18908 0.0
N301 N 0.94874 0.32193 0.15095 0.0
N302 N 0.02048 0.28945 0.14399 0.0
H303 H 0.98209 0.31365 0.08456 0.0
H304 H 0.94973 0.31943 0.22599 0.0
C305 C 0.86057 0.30323 0.24141 0.0
O306 O 0.83999 0.3434 0.24753 0.0
N307 N 0.81324 0.31868 0.1357 0.0
C308 C 0.7817 0.34644 0.15744 0.0
C309 C 0.74204 0.3221 0.16751 0.0
C310 C 0.79129 0.27699 0.13444 0.0
N311 N 0.74861 0.27816 0.15416 0.0
C312 C 0.85209 0.41348 0.12444 0.0
C313 C 0.88522 0.46075 0.19965 0.0
C314 C 0.86106 0.48568 0.16446 0.0
C315 C 0.84449 0.46065 0.12699 0.0
C316 C 0.89246 0.41222 0.19559 0.0
N317 N 0.87481 0.38882 0.15843 0.0
H318 H 0.83684 0.39629 0.09493 0.0
H319 H 0.91213 0.39409 0.22181 0.0
H320 H 0.78807 0.38025 0.17199 0.0
H321 H 0.80824 0.24506 0.12439 0.0
O322 O 0.89117 0.34167 0.07689 0.0
O323 O 0.88638 0.26905 0.09863 0.0
O324 O 0.87478 0.29119 0.20149 0.0
C325 C 0.89073 0.29903 0.06484 0.0
H326 H 0.0319 0.28413 0.21778 0.0
H327 H 0.71263 0.33471 0.1872 0.0
H328 H 0.89922 0.47853 0.22959 0.0
H329 H 0.82707 0.47735 0.09822 0.0
Co330 Co 0.69992 0.88145 0.14016 0.0
C331 C 0.71452 0.98337 0.12176 0.0
C332 C 0.71084 0.96641 0.19328 0.0
C333 C 0.73161 1.00879 0.18909 0.0
N334 N 0.70132 0.94876 0.15095 0.0
N335 N 0.7338 0.0205 0.14399 0.0
H336 H 0.70962 0.9821 0.08455 0.0
H337 H 0.70381 0.94975 0.22599 0.0
C338 C 0.72005 0.86061 0.24142 0.0
O339 O 0.67987 0.84004 0.24755 0.0
N340 N 0.70459 0.81325 0.13571 0.0
C341 C 0.67683 0.78171 0.15746 0.0
C342 C 0.70118 0.74206 0.16754 0.0
C343 C 0.74627 0.7913 0.13445 0.0
N344 N 0.74511 0.74863 0.15417 0.0
C345 C 0.60978 0.85209 0.12445 0.0
C346 C 0.56251 0.88523 0.19964 0.0
C347 C 0.53758 0.86106 0.16445 0.0
C348 C 0.56262 0.84449 0.12698 0.0
C349 C 0.61104 0.89247 0.19559 0.0
N350 N 0.63444 0.87482 0.15843 0.0
H351 H 0.62698 0.83684 0.09494 0.0
H352 H 0.62916 0.91215 0.22181 0.0
H353 H 0.64302 0.78809 0.17202 0.0
H354 H 0.7782 0.80826 0.12439 0.0
O355 O 0.68158 0.89118 0.07689 0.0
O356 O 0.7542 0.88639 0.09862 0.0
O357 O 0.73208 0.8748 0.20149 0.0
C358 C 0.72421 0.89074 0.06484 0.0
H359 H 0.7391 0.03192 0.21779 0.0
H360 H 0.68857 0.71265 0.18724 0.0
H361 H 0.54472 0.89923 0.22957 0.0
H362 H 0.54593 0.82706 0.09821 0.0
Co363 Co 0.14181 0.69991 0.14013 0.0
C364 C 0.03988 0.71452 0.12175 0.0
C365 C 0.05686 0.71084 0.19327 0.0
C366 C 0.01448 0.73162 0.18908 0.0
N367 N 0.0745 0.70132 0.15093 0.0
N368 N 1.00277 0.73381 0.14399 0.0
H369 H 0.04115 0.70961 0.08454 0.0
H370 H 0.07352 0.7038 0.22597 0.0
C371 C 0.16268 0.72001 0.24139 0.0
O372 O 0.18327 0.67985 0.24751 0.0
N373 N 0.21001 0.70457 0.13567 0.0
C374 C 0.24155 0.6768 0.1574 0.0
C375 C 0.2812 0.70115 0.16748 0.0
C376 C 0.23196 0.74625 0.13441 0.0
N377 N 0.27464 0.74509 0.15412 0.0
C378 C 0.17115 0.60976 0.12441 0.0
C379 C 0.13804 0.56251 0.19963 0.0
C380 C 0.16219 0.53757 0.16443 0.0
C381 C 0.17875 0.5626 0.12696 0.0
C382 C 0.1308 0.61103 0.19557 0.0
N383 N 0.14843 0.63443 0.1584 0.0
H384 H 0.18639 0.62695 0.0949 0.0
H385 H 0.11113 0.62916 0.22179 0.0
H386 H 0.23517 0.64299 0.17195 0.0
H387 H 0.215 0.77819 0.12436 0.0
O388 O 0.13206 0.68159 0.07686 0.0
O389 O 0.13686 0.7542 0.09861 0.0
O390 O 0.14847 0.73205 0.20146 0.0
C391 C 0.13251 0.72422 0.06482 0.0
H392 H 0.99136 0.7391 0.21778 0.0
H393 H 0.31062 0.68853 0.18717 0.0
H394 H 0.12405 0.54472 0.22957 0.0
H395 H 0.19617 0.5459 0.09818 0.0
Co396 Co 0.32331 0.88145 0.88301 0.0
C397 C 0.30872 0.98338 0.90142 0.0
C398 C 0.31237 0.96642 0.82989 0.0
C399 C 0.2916 1.00881 0.8341 0.0
N400 N 0.3219 0.94876 0.87222 0.0
N401 N 0.28943 0.02051 0.8792 0.0
H402 H 0.31363 0.9821 0.93862 0.0
H403 H 0.31939 0.94977 0.79718 0.0
C404 C 0.30319 0.86061 0.78174 0.0
O405 O 0.34336 0.84004 0.77561 0.0
N406 N 0.31864 0.81325 0.88745 0.0
C407 C 0.3464 0.78172 0.8657 0.0
C408 C 0.32205 0.74206 0.85562 0.0
C409 C 0.27696 0.79131 0.88872 0.0
N410 N 0.27812 0.74863 0.86899 0.0
C411 C 0.41345 0.8521 0.89871 0.0
C412 C 0.46072 0.88526 0.82353 0.0
C413 C 0.48565 0.86108 0.85872 0.0
C414 C 0.46061 0.8445 0.89618 0.0
C415 C 0.41219 0.89249 0.82758 0.0
N416 N 0.38879 0.87483 0.86473 0.0
H417 H 0.39625 0.83683 0.92821 0.0
H418 H 0.39407 0.91217 0.80136 0.0
H419 H 0.3802 0.7881 0.85114 0.0
H420 H 0.24503 0.80826 0.89878 0.0
O421 O 0.34164 0.89118 0.94627 0.0
O422 O 0.26903 0.8864 0.92454 0.0
O423 O 0.29115 0.87481 0.82167 0.0
C424 C 0.29901 0.89074 0.95833 0.0
H425 H 0.28411 0.03194 0.8054 0.0
H426 H 0.33466 0.71265 0.83592 0.0
H427 H 0.47851 0.89926 0.7936 0.0
H428 H 0.4773 0.82706 0.92494 0.0
Co429 Co 0.1418 0.32334 0.88304 0.0
C430 C 0.03988 0.30875 0.90143 0.0
C431 C 0.05685 0.3124 0.82991 0.0
C432 C 0.01446 0.29163 0.83411 0.0
N433 N 0.07449 0.32193 0.87224 0.0
N434 N 1.00276 0.28946 0.8792 0.0
H435 H 0.04115 0.31366 0.93864 0.0
H436 H 0.0735 0.31942 0.7972 0.0
C437 C 0.16267 0.30325 0.78177 0.0
O438 O 0.18326 0.34341 0.77566 0.0
N439 N 0.21 0.31868 0.88749 0.0
C440 C 0.24154 0.34645 0.86576 0.0
C441 C 0.2812 0.32211 0.85568 0.0
C442 C 0.23195 0.277 0.88876 0.0
N443 N 0.27463 0.27816 0.86904 0.0
C444 C 0.17114 0.41349 0.89875 0.0
C445 C 0.13801 0.46075 0.82354 0.0
C446 C 0.16217 0.48568 0.85873 0.0
C447 C 0.17874 0.46065 0.89621 0.0
C448 C 0.13078 0.41222 0.8276 0.0
N449 N 0.14842 0.38883 0.86477 0.0
H450 H 0.18639 0.3963 0.92826 0.0
H451 H 0.11111 0.39409 0.80138 0.0
H452 H 0.23516 0.38026 0.85121 0.0
H453 H 0.215 0.24506 0.89881 0.0
O454 O 0.13206 0.34166 0.9463 0.0
O455 O 0.13686 0.26905 0.92456 0.0
O456 O 0.14846 0.2912 0.8217 0.0
C457 C 0.13251 0.29903 0.95835 0.0
H458 H 0.99133 0.28414 0.80541 0.0
H459 H 0.31061 0.33472 0.83599 0.0
H460 H 0.12402 0.47853 0.7936 0.0
H461 H 0.19617 0.47735 0.92498 0.0
Co462 Co 0.69992 0.14182 0.88303 0.0
C463 C 0.71451 0.03989 0.90143 0.0
C464 C 0.71084 0.05686 0.82991 0.0
C465 C 0.73161 0.01447 0.83411 0.0
N466 N 0.70132 0.07451 0.87224 0.0
N467 N 0.73379 1.00276 0.8792 0.0
H468 H 0.7096 0.04116 0.93864 0.0
H469 H 0.70381 0.07351 0.7972 0.0
C470 C 0.72003 0.16266 0.78176 0.0
O471 O 0.67986 0.18323 0.77564 0.0
N472 N 0.70458 0.21002 0.88748 0.0
C473 C 0.67682 0.24155 0.86573 0.0
C474 C 0.70117 0.28121 0.85565 0.0
C475 C 0.74626 0.23196 0.88874 0.0
N476 N 0.74511 0.27464 0.86902 0.0
C477 C 0.60978 0.17117 0.89874 0.0
C478 C 0.56251 0.13803 0.82355 0.0
C479 C 0.53758 0.1622 0.85874 0.0
C480 C 0.56262 0.17878 0.8962 0.0
C481 C 0.61103 0.13079 0.8276 0.0
N482 N 0.63443 0.14844 0.86476 0.0
H483 H 0.62698 0.18643 0.92824 0.0
H484 H 0.62916 0.11111 0.80138 0.0
H485 H 0.64302 0.23517 0.85117 0.0
H486 H 0.7782 0.21501 0.89881 0.0
O487 O 0.68159 0.13208 0.94629 0.0
O488 O 0.7542 0.13687 0.92456 0.0
O489 O 0.73207 0.14846 0.8217 0.0
C490 C 0.72422 0.13252 0.95835 0.0
H491 H 0.7391 0.99134 0.80541 0.0
H492 H 0.68856 0.31062 0.83595 0.0
H493 H 0.54471 0.12402 0.79362 0.0
H494 H 0.54592 0.19621 0.92497 0.0
Co495 Co 0.88142 0.69993 0.88305 0.0
C496 C 0.98335 0.71453 0.90143 0.0
C497 C 0.96637 0.71085 0.82991 0.0
C498 C 1.00875 0.73163 0.8341 0.0
N499 N 0.94873 0.70133 0.87224 0.0
N500 N 0.02047 0.73381 0.87919 0.0
H501 H 0.98208 0.70962 0.93863 0.0
H502 H 0.94971 0.70382 0.7972 0.0
C503 C 0.86055 0.72003 0.78178 0.0
O504 O 0.83996 0.67986 0.77567 0.0
N505 N 0.81322 0.70459 0.8875 0.0
C506 C 0.78168 0.67682 0.86576 0.0
C507 C 0.74203 0.70117 0.85569 0.0
C508 C 0.79127 0.74627 0.88876 0.0
N509 N 0.74859 0.74511 0.86904 0.0
C510 C 0.85208 0.60978 0.89876 0.0
C511 C 0.8852 0.56252 0.82355 0.0
C512 C 0.86104 0.53759 0.85874 0.0
C513 C 0.84447 0.56262 0.89622 0.0
C514 C 0.89243 0.61105 0.82761 0.0
N515 N 0.8748 0.63444 0.86477 0.0
H516 H 0.83683 0.62698 0.92827 0.0
H517 H 0.9121 0.62918 0.80138 0.0
H518 H 0.78806 0.64301 0.85121 0.0
H519 H 0.80823 0.77821 0.89881 0.0
O520 O 0.89117 0.6816 0.94631 0.0
O521 O 0.88637 0.75421 0.92457 0.0
O522 O 0.87476 0.73207 0.82171 0.0
C523 C 0.89072 0.72423 0.95836 0.0
H524 H 0.03188 0.73911 0.8054 0.0
H525 H 0.71261 0.68855 0.83599 0.0
H526 H 0.89919 0.54473 0.79361 0.0
H527 H 0.82705 0.54592 0.92499 0.0
Co528 Co 0.14021 0.32325 0.14185 0.0
C529 C 0.12174 0.30882 0.03991 0.0
C530 C 0.19331 0.3122 0.05687 0.0
C531 C 0.18906 0.29151 0.01445 0.0
N532 N 0.15099 0.32184 0.07454 0.0
N533 N 0.14395 0.28956 1.00277 0.0
H534 H 0.08455 0.31385 0.04118 0.0
H535 H 0.22604 0.31911 0.07353 0.0
C536 C 0.24148 0.30315 0.16269 0.0
O537 O 0.24761 0.34333 0.18325 0.0
N538 N 0.13577 0.31859 0.21004 0.0
C539 C 0.15754 0.34635 0.24157 0.0
C540 C 0.16764 0.322 0.28121 0.0
C541 C 0.13452 0.27691 0.23198 0.0
N542 N 0.15429 0.27805 0.27464 0.0
C543 C 0.12452 0.41339 0.1712 0.0
C544 C 0.19968 0.46066 0.13797 0.0
C545 C 0.16449 0.48559 0.16214 0.0
C546 C 0.12705 0.46056 0.17877 0.0
C547 C 0.19563 0.41212 0.13076 0.0
N548 N 0.15849 0.38873 0.14846 0.0
H549 H 0.09502 0.3962 0.18648 0.0
H550 H 0.22183 0.39399 0.11107 0.0
H551 H 0.17209 0.38016 0.23519 0.0
H552 H 0.12443 0.24498 0.21504 0.0
O553 O 0.07694 0.34158 0.13214 0.0
O554 O 0.0987 0.26895 0.1369 0.0
O555 O 0.20155 0.2911 0.1485 0.0
C556 C 0.06491 0.29894 0.13259 0.0
H557 H 0.21772 0.28398 0.99129 0.0
H558 H 0.18735 0.3346 0.31062 0.0
H559 H 0.22959 0.47845 0.12393 0.0
H560 H 0.09829 0.47726 0.19622 0.0
Co561 Co 0.14019 0.70001 0.88132 0.0
C562 C 0.12174 0.71443 0.98326 0.0
C563 C 0.1933 0.71105 0.96629 0.0
C564 C 0.18905 0.73173 1.00872 0.0
N565 N 0.15098 0.70141 0.94863 0.0
N566 N 0.14395 0.73369 0.0204 0.0
H567 H 0.08455 0.70941 0.98199 0.0
H568 H 0.22603 0.70413 0.94964 0.0
C569 C 0.24146 0.72011 0.86047 0.0
O570 O 0.2476 0.67993 0.83992 0.0
N571 N 0.13575 0.70467 0.81313 0.0
C572 C 0.15751 0.67691 0.7816 0.0
C573 C 0.16761 0.70126 0.74196 0.0
C574 C 0.13449 0.74635 0.79119 0.0
N575 N 0.15426 0.7452 0.74853 0.0
C576 C 0.1245 0.60986 0.85197 0.0
C577 C 0.19966 0.56259 0.8852 0.0
C578 C 0.16448 0.53766 0.86102 0.0
C579 C 0.12703 0.5627 0.84439 0.0
C580 C 0.19561 0.61113 0.8924 0.0
N581 N 0.15847 0.63452 0.87471 0.0
H582 H 0.095 0.62706 0.83669 0.0
H583 H 0.22182 0.62926 0.91209 0.0
H584 H 0.17207 0.6431 0.78797 0.0
H585 H 0.12441 0.77828 0.80813 0.0
O586 O 0.07692 0.68167 0.89103 0.0
O587 O 0.09869 0.75431 0.88627 0.0
O588 O 0.20153 0.73215 0.87467 0.0
C589 C 0.0649 0.72432 0.89058 0.0
H590 H 0.21772 0.73927 0.03188 0.0
H591 H 0.18732 0.68866 0.71255 0.0
H592 H 0.22958 0.5448 0.89923 0.0
H593 H 0.09827 0.546 0.82695 0.0
Co594 Co 0.32326 0.14023 0.88136 0.0
C595 C 0.30882 0.12176 0.98329 0.0
C596 C 0.31222 0.19332 0.96634 0.0
C597 C 0.29154 0.18907 1.00876 0.0
N598 N 0.32185 0.15101 0.94866 0.0
N599 N 0.28956 0.14397 0.02043 0.0
H600 H 0.31383 0.08456 0.98201 0.0
H601 H 0.31915 0.22606 0.94969 0.0
C602 C 0.30316 0.24152 0.86052 0.0
O603 O 0.34334 0.24765 0.83997 0.0
N604 N 0.3186 0.1358 0.81316 0.0
C605 C 0.34636 0.15756 0.78164 0.0
C606 C 0.32202 0.16767 0.74199 0.0
C607 C 0.27692 0.13457 0.79122 0.0
N608 N 0.27807 0.15433 0.74856 0.0
C609 C 0.4134 0.12452 0.85201 0.0
C610 C 0.46067 0.19969 0.88522 0.0
C611 C 0.4856 0.1645 0.86104 0.0
C612 C 0.46056 0.12705 0.84443 0.0
C613 C 0.41214 0.19564 0.89243 0.0
N614 N 0.38874 0.1585 0.87475 0.0
H615 H 0.3962 0.09503 0.83673 0.0
H616 H 0.39401 0.22185 0.91212 0.0
H617 H 0.38018 0.1721 0.78801 0.0
H618 H 0.24498 0.12449 0.80816 0.0
O619 O 0.34158 0.07696 0.89106 0.0
O620 O 0.26895 0.09873 0.88629 0.0
O621 O 0.29112 0.20158 0.87472 0.0
C622 C 0.29894 0.06494 0.8906 0.0
H623 H 0.28401 0.21774 0.03192 0.0
H624 H 0.33463 0.18737 0.71259 0.0
H625 H 0.47847 0.22961 0.89925 0.0
H626 H 0.47726 0.09829 0.82699 0.0
Co627 Co 0.88303 0.32327 0.88135 0.0
C628 C 0.90149 0.30883 0.98328 0.0
C629 C 0.82993 0.31223 0.96632 0.0
C630 C 0.83418 0.29154 1.00875 0.0
N631 N 0.87225 0.32186 0.94865 0.0
N632 N 0.87928 0.28957 0.02042 0.0
H633 H 0.93868 0.31384 0.98201 0.0
H634 H 0.7972 0.31916 0.94967 0.0
C635 C 0.78176 0.30316 0.8605 0.0
O636 O 0.77562 0.34334 0.83994 0.0
N637 N 0.88746 0.31861 0.81315 0.0
C638 C 0.8657 0.34637 0.78163 0.0
C639 C 0.85559 0.32202 0.74198 0.0
C640 C 0.8887 0.27692 0.79122 0.0
N641 N 0.86893 0.27807 0.74856 0.0
C642 C 0.89872 0.41341 0.852 0.0
C643 C 0.82356 0.46068 0.88521 0.0
C644 C 0.85874 0.48561 0.86104 0.0
C645 C 0.89619 0.46058 0.84442 0.0
C646 C 0.82761 0.41214 0.89242 0.0
N647 N 0.86475 0.38875 0.87474 0.0
H648 H 0.92822 0.39622 0.83673 0.0
H649 H 0.8014 0.39401 0.91211 0.0
H650 H 0.85116 0.38019 0.788 0.0
H651 H 0.89878 0.24499 0.80816 0.0
O652 O 0.9463 0.3416 0.89106 0.0
O653 O 0.92453 0.26897 0.88629 0.0
O654 O 0.82169 0.29112 0.8747 0.0
C655 C 0.95832 0.29896 0.8906 0.0
H656 H 0.80551 0.28401 0.0319 0.0
H657 H 0.83589 0.33463 0.71258 0.0
H658 H 0.79363 0.47847 0.89924 0.0
H659 H 0.92495 0.47727 0.82698 0.0
Co660 Co 0.69997 0.88304 0.88134 0.0
C661 C 0.71442 0.9015 0.98328 0.0
C662 C 0.71099 0.82994 0.96632 0.0
C663 C 0.73168 0.83418 1.00874 0.0
N664 N 0.70137 0.87226 0.94865 0.0
N665 N 0.73367 0.87929 0.02041 0.0
H666 H 0.70942 0.9387 0.982 0.0
H667 H 0.70405 0.79721 0.94967 0.0
C668 C 0.72007 0.78176 0.86052 0.0
O669 O 0.67989 0.77562 0.83996 0.0
N670 N 0.70464 0.88747 0.81315 0.0
C671 C 0.67688 0.86571 0.78162 0.0
C672 C 0.70123 0.85561 0.74198 0.0
C673 C 0.74632 0.88872 0.79121 0.0
N674 N 0.74517 0.86896 0.74855 0.0
C675 C 0.60983 0.89875 0.85198 0.0
C676 C 0.56255 0.82359 0.8852 0.0
C677 C 0.53763 0.85878 0.86102 0.0
C678 C 0.56267 0.89622 0.8444 0.0
C679 C 0.61109 0.82763 0.89241 0.0
N680 N 0.63449 0.86477 0.87472 0.0
H681 H 0.62703 0.92824 0.83671 0.0
H682 H 0.62921 0.80142 0.9121 0.0
H683 H 0.64306 0.85117 0.78799 0.0
H684 H 0.77825 0.8988 0.80816 0.0
O685 O 0.68165 0.94631 0.89105 0.0
O686 O 0.75428 0.92454 0.88629 0.0
O687 O 0.73211 0.8217 0.87471 0.0
C688 C 0.72429 0.95833 0.8906 0.0
H689 H 0.7392 0.80551 0.0319 0.0
H690 H 0.68862 0.83591 0.71257 0.0
H691 H 0.54476 0.79367 0.89922 0.0
H692 H 0.54597 0.92499 0.82696 0.0
Co693 Co 0.88304 0.7 0.14186 0.0
C694 C 0.90149 0.71444 0.03992 0.0
C695 C 0.82993 0.71104 0.05688 0.0
C696 C 0.83417 0.73172 0.01446 0.0
N697 N 0.87225 0.7014 0.07455 0.0
N698 N 0.87928 0.73369 1.00278 0.0
H699 H 0.93868 0.70942 0.04119 0.0
H700 H 0.7972 0.70411 0.07354 0.0
C701 C 0.78177 0.72011 0.1627 0.0
O702 O 0.77563 0.67993 0.18325 0.0
N703 N 0.88748 0.70467 0.21005 0.0
C704 C 0.86571 0.67692 0.24158 0.0
C705 C 0.85562 0.70127 0.28122 0.0
C706 C 0.88874 0.74636 0.23199 0.0
N707 N 0.86898 0.74521 0.27465 0.0
C708 C 0.89873 0.60986 0.17122 0.0
C709 C 0.82357 0.56259 0.13799 0.0
C710 C 0.85876 0.53766 0.16217 0.0
C711 C 0.8962 0.5627 0.1788 0.0
C712 C 0.82762 0.61113 0.13078 0.0
N713 N 0.86476 0.63452 0.14848 0.0
H714 H 0.92823 0.62706 0.1865 0.0
H715 H 0.80142 0.62926 0.11108 0.0
H716 H 0.85115 0.64311 0.2352 0.0
H717 H 0.89883 0.77828 0.21504 0.0
O718 O 0.94631 0.68167 0.13215 0.0
O719 O 0.92455 0.7543 0.1369 0.0
O720 O 0.8217 0.73215 0.1485 0.0
C721 C 0.95833 0.72431 0.13259 0.0
H722 H 0.80551 0.73925 0.9913 0.0
H723 H 0.83591 0.68867 0.31063 0.0
H724 H 0.79366 0.5448 0.12395 0.0
H725 H 0.92496 0.546 0.19624 0.0
Co726 Co 0.32326 0.88302 0.14182 0.0
C727 C 0.30881 0.9015 0.03989 0.0
C728 C 0.31224 0.82993 0.05684 0.0
C729 C 0.29154 0.83418 0.01442 0.0
N730 N 0.32186 0.87225 0.07452 0.0
N731 N 0.28956 0.87928 1.00275 0.0
H732 H 0.31382 0.93869 0.04117 0.0
H733 H 0.31917 0.7972 0.07349 0.0
C734 C 0.30316 0.78174 0.16265 0.0
O735 O 0.34334 0.7756 0.1832 0.0
N736 N 0.3186 0.88745 0.21002 0.0
C737 C 0.34636 0.86568 0.24155 0.0
C738 C 0.32201 0.85558 0.28119 0.0
C739 C 0.27691 0.88869 0.23196 0.0
N740 N 0.27806 0.86893 0.27462 0.0
C741 C 0.4134 0.89873 0.17119 0.0
C742 C 0.46068 0.82357 0.13796 0.0
C743 C 0.4856 0.85876 0.16214 0.0
C744 C 0.46056 0.8962 0.17877 0.0
C745 C 0.41214 0.82762 0.13075 0.0
N746 N 0.38874 0.86475 0.14844 0.0
H747 H 0.3962 0.92822 0.18647 0.0
H748 H 0.39402 0.80141 0.11105 0.0
H749 H 0.38017 0.85114 0.23517 0.0
H750 H 0.24498 0.89878 0.21501 0.0
O751 O 0.34158 0.9463 0.13213 0.0
O752 O 0.26895 0.92453 0.13688 0.0
O753 O 0.29112 0.82168 0.14846 0.0
C754 C 0.29894 0.95832 0.13258 0.0
H755 H 0.28402 0.80551 0.99126 0.0
H756 H 0.33461 0.83587 0.31059 0.0
H757 H 0.47847 0.79365 0.12393 0.0
H758 H 0.47725 0.92496 0.19622 0.0
Co759 Co 0.69999 0.14022 0.14185 0.0
C760 C 0.71442 0.12176 0.03991 0.0
C761 C 0.71101 0.19332 0.05687 0.0
C762 C 0.7317 0.18908 0.01445 0.0
N763 N 0.70139 0.15101 0.07454 0.0
N764 N 0.73367 0.14398 1.00277 0.0
H765 H 0.70942 0.08457 0.04119 0.0
H766 H 0.70408 0.22606 0.07352 0.0
C767 C 0.72009 0.24151 0.16268 0.0
O768 O 0.67991 0.24764 0.18323 0.0
N769 N 0.70466 0.13579 0.21004 0.0
C770 C 0.6769 0.15756 0.24157 0.0
C771 C 0.70125 0.16765 0.28121 0.0
C772 C 0.74634 0.13453 0.23199 0.0
N773 N 0.74519 0.15429 0.27465 0.0
C774 C 0.60985 0.12452 0.17121 0.0
C775 C 0.56257 0.19967 0.13798 0.0
C776 C 0.53764 0.16448 0.16216 0.0
C777 C 0.56269 0.12705 0.17879 0.0
C778 C 0.6111 0.19563 0.13077 0.0
N779 N 0.63451 0.15849 0.14847 0.0
H780 H 0.62705 0.09503 0.18649 0.0
H781 H 0.62923 0.22184 0.11108 0.0
H782 H 0.6431 0.17212 0.23519 0.0
H783 H 0.77827 0.12444 0.21504 0.0
O784 O 0.68166 0.07695 0.13214 0.0
O785 O 0.75429 0.09872 0.1369 0.0
O786 O 0.73213 0.20157 0.14849 0.0
C787 C 0.7243 0.06493 0.13259 0.0
H788 H 0.73922 0.21775 0.99129 0.0
H789 H 0.68865 0.18736 0.31062 0.0
H790 H 0.54477 0.22959 0.12395 0.0
H791 H 0.546 0.09828 0.19624 0.0
loop_
_geom_bond_atom_site_label_1
_geom_bond_atom_site_label_2
_geom_bond_distance
_geom_bond_site_symmetry_2
_ccdc_geom_bond_type
Co0 N4 2.148 . S
Co0 N10 2.128 . S
Co0 N20 2.194 . S
Co0 O25 2.351 . S
Co0 O26 2.155 . S
Co0 O27 2.096 . S
C1 N4 1.301 . S
C1 N5 1.328 1_455 S
C1 H6 0.930 . S
C2 C3 1.333 1_455 S
C2 N4 1.317 . S
C2 H7 0.930 . S
C3 C2 1.333 1_655 S
C3 N5 1.350 . S
C3 H29 0.931 . S
N4 Co0 2.148 . S
N4 C1 1.301 . S
N4 C2 1.317 . S
N5 C1 1.328 1_655 S
N5 C3 1.350 . S
H6 C1 0.930 . S
H7 C2 0.930 . S
C8 O9 1.224 . S
C8 O27 1.247 . S
O9 C8 1.224 . S
N10 Co0 2.128 . S
N10 C11 1.355 . S
N10 C13 1.311 . S
C11 N10 1.355 . S
C11 C12 1.363 . S
C11 H23 0.929 . S
C12 C11 1.363 . S
C12 N14 1.375 . S
C12 H30 0.931 . S
C13 N10 1.311 . S
C13 N14 1.347 . S
C13 H24 0.929 . S
N14 C12 1.375 . S
N14 C13 1.347 . S
C15 C18 1.365 . S
C15 N20 1.328 . S
C15 H21 0.929 . S
C16 C17 1.362 . S
C16 C19 1.378 . S
C16 H31 0.929 . S
C17 C16 1.362 . S
C17 C18 1.366 . S
C18 C15 1.365 . S
C18 C17 1.366 . S
C18 H32 0.930 . S
C19 C16 1.378 . S
C19 N20 1.315 . S
C19 H22 0.930 . S
N20 Co0 2.194 . S
N20 C15 1.328 . S
N20 C19 1.315 . S
H21 C15 0.929 . S
H22 C19 0.930 . S
H23 C11 0.929 . S
H24 C13 0.929 . S
O25 Co0 2.351 . S
O25 C28 1.244 . S
O26 Co0 2.155 . S
O26 C28 1.240 . S
O27 Co0 2.096 . S
O27 C8 1.247 . S
C28 O25 1.244 . S
C28 O26 1.240 . S
H29 C3 0.931 . S
H30 C12 0.931 . S
H31 C16 0.929 . S
H32 C18 0.930 . S
Co33 N37 2.148 . S
Co33 N43 2.128 . S
Co33 N53 2.194 . S
Co33 O58 2.351 . S
Co33 O59 2.155 . S
Co33 O60 2.096 . S
C34 N37 1.301 . S
C34 N38 1.328 1_545 S
C34 H39 0.930 . S
C35 C36 1.333 1_545 S
C35 N37 1.317 . S
C35 H40 0.930 . S
C36 C35 1.333 1_565 S
C36 N38 1.350 . S
C36 H62 0.931 . S
N37 Co33 2.148 . S
N37 C34 1.301 . S
N37 C35 1.317 . S
N38 C34 1.328 1_565 S
N38 C36 1.350 . S
H39 C34 0.930 . S
H40 C35 0.930 . S
C41 O42 1.224 . S
C41 O60 1.247 . S
O42 C41 1.224 . S
N43 Co33 2.128 . S
N43 C44 1.355 . S
N43 C46 1.311 . S
C44 N43 1.355 . S
C44 C45 1.363 . S
C44 H56 0.929 . S
C45 C44 1.363 . S
C45 N47 1.375 . S
C45 H63 0.931 . S
C46 N43 1.311 . S
C46 N47 1.347 . S
C46 H57 0.929 . S
N47 C45 1.375 . S
N47 C46 1.347 . S
C48 C51 1.365 . S
C48 N53 1.328 . S
C48 H54 0.929 . S
C49 C50 1.362 . S
C49 C52 1.378 . S
C49 H64 0.929 . S
C50 C49 1.362 . S
C50 C51 1.366 . S
C51 C48 1.365 . S
C51 C50 1.366 . S
C51 H65 0.930 . S
C52 C49 1.378 . S
C52 N53 1.315 . S
C52 H55 0.930 . S
N53 Co33 2.194 . S
N53 C48 1.328 . S
N53 C52 1.315 . S
H54 C48 0.929 . S
H55 C52 0.930 . S
H56 C44 0.929 . S
H57 C46 0.929 . S
O58 Co33 2.351 . S
O58 C61 1.244 . S
O59 Co33 2.155 . S
O59 C61 1.240 . S
O60 Co33 2.096 . S
O60 C41 1.247 . S
C61 O58 1.244 . S
C61 O59 1.240 . S
H62 C36 0.931 . S
H63 C45 0.931 . S
H64 C49 0.929 . S
H65 C51 0.930 . S
Co66 N70 2.148 . S
Co66 N76 2.128 . S
Co66 N86 2.194 . S
Co66 O91 2.351 . S
Co66 O92 2.155 . S
Co66 O93 2.096 . S
C67 N70 1.301 . S
C67 N71 1.328 1_655 S
C67 H72 0.930 . S
C68 C69 1.333 1_655 S
C68 N70 1.317 . S
C68 H73 0.930 . S
C69 C68 1.333 1_455 S
C69 N71 1.350 . S
C69 H95 0.931 . S
N70 Co66 2.148 . S
N70 C67 1.301 . S
N70 C68 1.317 . S
N71 C67 1.328 1_455 S
N71 C69 1.350 . S
H72 C67 0.930 . S
H73 C68 0.930 . S
C74 O75 1.224 . S
C74 O93 1.247 . S
O75 C74 1.224 . S
N76 Co66 2.128 . S
N76 C77 1.355 . S
N76 C79 1.311 . S
C77 N76 1.355 . S
C77 C78 1.363 . S
C77 H89 0.929 . S
C78 C77 1.363 . S
C78 N80 1.375 . S
C78 H96 0.931 . S
C79 N76 1.311 . S
C79 N80 1.347 . S
C79 H90 0.929 . S
N80 C78 1.375 . S
N80 C79 1.347 . S
C81 C84 1.365 . S
C81 N86 1.328 . S
C81 H87 0.929 . S
C82 C83 1.362 . S
C82 C85 1.378 . S
C82 H97 0.929 . S
C83 C82 1.362 . S
C83 C84 1.366 . S
C84 C81 1.365 . S
C84 C83 1.366 . S
C84 H98 0.930 . S
C85 C82 1.378 . S
C85 N86 1.315 . S
C85 H88 0.930 . S
N86 Co66 2.194 . S
N86 C81 1.328 . S
N86 C85 1.315 . S
H87 C81 0.929 . S
H88 C85 0.930 . S
H89 C77 0.929 . S
H90 C79 0.929 . S
O91 Co66 2.351 . S
O91 C94 1.244 . S
O92 Co66 2.155 . S
O92 C94 1.240 . S
O93 Co66 2.096 . S
O93 C74 1.247 . S
C94 O91 1.244 . S
C94 O92 1.240 . S
H95 C69 0.931 . S
H96 C78 0.931 . S
H97 C82 0.929 . S
H98 C84 0.930 . S
Co99 N103 2.148 . S
Co99 N109 2.128 . S
Co99 N119 2.194 . S
Co99 O124 2.351 . S
Co99 O125 2.155 . S
Co99 O126 2.096 . S
C100 N103 1.301 . S
C100 N104 1.328 1_565 S
C100 H105 0.930 . S
C101 C102 1.333 1_565 S
C101 N103 1.317 . S
C101 H106 0.930 . S
C102 C101 1.333 1_545 S
C102 N104 1.350 . S
C102 H128 0.931 . S
N103 Co99 2.148 . S
N103 C100 1.301 . S
N103 C101 1.317 . S
N104 C100 1.328 1_545 S
N104 C102 1.350 . S
H105 C100 0.930 . S
H106 C101 0.930 . S
C107 O108 1.224 . S
C107 O126 1.247 . S
O108 C107 1.224 . S
N109 Co99 2.128 . S
N109 C110 1.355 . S
N109 C112 1.311 . S
C110 N109 1.355 . S
C110 C111 1.363 . S
C110 H122 0.929 . S
C111 C110 1.363 . S
C111 N113 1.375 . S
C111 H129 0.931 . S
C112 N109 1.311 . S
C112 N113 1.347 . S
C112 H123 0.929 . S
N113 C111 1.375 . S
N113 C112 1.347 . S
C114 C117 1.365 . S
C114 N119 1.328 . S
C114 H120 0.929 . S
C115 C116 1.362 . S
C115 C118 1.378 . S
C115 H130 0.929 . S
C116 C115 1.362 . S
C116 C117 1.366 . S
C117 C114 1.365 . S
C117 C116 1.366 . S
C117 H131 0.930 . S
C118 C115 1.378 . S
C118 N119 1.315 . S
C118 H121 0.930 . S
N119 Co99 2.194 . S
N119 C114 1.328 . S
N119 C118 1.315 . S
H120 C114 0.929 . S
H121 C118 0.930 . S
H122 C110 0.929 . S
H123 C112 0.929 . S
O124 Co99 2.351 . S
O124 C127 1.244 . S
O125 Co99 2.155 . S
O125 C127 1.240 . S
O126 Co99 2.096 . S
O126 C107 1.247 . S
C127 O124 1.244 . S
C127 O125 1.240 . S
H128 C102 0.931 . S
H129 C111 0.931 . S
H130 C115 0.929 . S
H131 C117 0.930 . S
Co132 N136 2.148 . S
Co132 N142 2.128 . S
Co132 N152 2.194 . S
Co132 O157 2.351 . S
Co132 O158 2.155 . S
Co132 O159 2.096 . S
C133 N136 1.301 . S
C133 N137 1.328 1_455 S
C133 H138 0.930 . S
C134 C135 1.333 1_455 S
C134 N136 1.317 . S
C134 H139 0.930 . S
C135 C134 1.333 1_655 S
C135 N137 1.350 . S
C135 H161 0.931 . S
N136 Co132 2.148 . S
N136 C133 1.301 . S
N136 C134 1.317 . S
N137 C133 1.328 1_655 S
N137 C135 1.350 . S
H138 C133 0.930 . S
H139 C134 0.930 . S
C140 O141 1.224 . S
C140 O159 1.247 . S
O141 C140 1.224 . S
N142 Co132 2.128 . S
N142 C143 1.355 . S
N142 C145 1.311 . S
C143 N142 1.355 . S
C143 C144 1.363 . S
C143 H155 0.929 . S
C144 C143 1.363 . S
C144 N146 1.375 . S
C144 H162 0.931 . S
C145 N142 1.311 . S
C145 N146 1.347 . S
C145 H156 0.929 . S
N146 C144 1.375 . S
N146 C145 1.347 . S
C147 C150 1.365 . S
C147 N152 1.328 . S
C147 H153 0.929 . S
C148 C149 1.362 . S
C148 C151 1.378 . S
C148 H163 0.929 . S
C149 C148 1.362 . S
C149 C150 1.366 . S
C150 C147 1.365 . S
C150 C149 1.366 . S
C150 H164 0.930 . S
C151 C148 1.378 . S
C151 N152 1.315 . S
C151 H154 0.930 . S
N152 Co132 2.194 . S
N152 C147 1.328 . S
N152 C151 1.315 . S
H153 C147 0.929 . S
H154 C151 0.930 . S
H155 C143 0.929 . S
H156 C145 0.929 . S
O157 Co132 2.351 . S
O157 C160 1.244 . S
O158 Co132 2.155 . S
O158 C160 1.240 . S
O159 Co132 2.096 . S
O159 C140 1.247 . S
C160 O157 1.244 . S
C160 O158 1.240 . S
H161 C135 0.931 . S
H162 C144 0.931 . S
H163 C148 0.929 . S
H164 C150 0.930 . S
Co165 N169 2.148 . S
Co165 N175 2.128 . S
Co165 N185 2.194 . S
Co165 O190 2.351 . S
Co165 O191 2.155 . S
Co165 O192 2.096 . S
C166 N169 1.301 . S
C166 N170 1.328 1_545 S
C166 H171 0.930 . S
C167 C168 1.333 1_545 S
C167 N169 1.317 . S
C167 H172 0.930 . S
C168 C167 1.333 1_565 S
C168 N170 1.350 . S
C168 H194 0.931 . S
N169 Co165 2.148 . S
N169 C166 1.301 . S
N169 C167 1.317 . S
N170 C166 1.328 1_565 S
N170 C168 1.350 . S
H171 C166 0.930 . S
H172 C167 0.930 . S
C173 O174 1.224 . S
C173 O192 1.247 . S
O174 C173 1.224 . S
N175 Co165 2.128 . S
N175 C176 1.355 . S
N175 C178 1.311 . S
C176 N175 1.355 . S
C176 C177 1.363 . S
C176 H188 0.929 . S
C177 C176 1.363 . S
C177 N179 1.375 . S
C177 H195 0.931 . S
C178 N175 1.311 . S
C178 N179 1.347 . S
C178 H189 0.929 . S
N179 C177 1.375 . S
N179 C178 1.347 . S
C180 C183 1.365 . S
C180 N185 1.328 . S
C180 H186 0.929 . S
C181 C182 1.362 . S
C181 C184 1.378 . S
C181 H196 0.929 . S
C182 C181 1.362 . S
C182 C183 1.366 . S
C183 C180 1.365 . S
C183 C182 1.366 . S
C183 H197 0.930 . S
C184 C181 1.378 . S
C184 N185 1.315 . S
C184 H187 0.930 . S
N185 Co165 2.194 . S
N185 C180 1.328 . S
N185 C184 1.315 . S
H186 C180 0.929 . S
H187 C184 0.930 . S
H188 C176 0.929 . S
H189 C178 0.929 . S
O190 Co165 2.351 . S
O190 C193 1.244 . S
O191 Co165 2.155 . S
O191 C193 1.240 . S
O192 Co165 2.096 . S
O192 C173 1.247 . S
C193 O190 1.244 . S
C193 O191 1.240 . S
H194 C168 0.931 . S
H195 C177 0.931 . S
H196 C181 0.929 . S
H197 C183 0.930 . S
Co198 N202 2.148 . S
Co198 N208 2.128 . S
Co198 N218 2.194 . S
Co198 O223 2.351 . S
Co198 O224 2.155 . S
Co198 O225 2.096 . S
C199 N202 1.301 . S
C199 N203 1.328 1_655 S
C199 H204 0.930 . S
C200 C201 1.333 1_655 S
C200 N202 1.317 . S
C200 H205 0.930 . S
C201 C200 1.333 1_455 S
C201 N203 1.350 . S
C201 H227 0.931 . S
N202 Co198 2.148 . S
N202 C199 1.301 . S
N202 C200 1.317 . S
N203 C199 1.328 1_455 S
N203 C201 1.350 . S
H204 C199 0.930 . S
H205 C200 0.930 . S
C206 O207 1.224 . S
C206 O225 1.247 . S
O207 C206 1.224 . S
N208 Co198 2.128 . S
N208 C209 1.355 . S
N208 C211 1.311 . S
C209 N208 1.355 . S
C209 C210 1.363 . S
C209 H221 0.929 . S
C210 C209 1.363 . S
C210 N212 1.375 . S
C210 H228 0.931 . S
C211 N208 1.311 . S
C211 N212 1.347 . S
C211 H222 0.929 . S
N212 C210 1.375 . S
N212 C211 1.347 . S
C213 C216 1.365 . S
C213 N218 1.328 . S
C213 H219 0.929 . S
C214 C215 1.362 . S
C214 C217 1.378 . S
C214 H229 0.929 . S
C215 C214 1.362 . S
C215 C216 1.366 . S
C216 C213 1.365 . S
C216 C215 1.366 . S
C216 H230 0.930 . S
C217 C214 1.378 . S
C217 N218 1.315 . S
C217 H220 0.930 . S
N218 Co198 2.194 . S
N218 C213 1.328 . S
N218 C217 1.315 . S
H219 C213 0.929 . S
H220 C217 0.930 . S
H221 C209 0.929 . S
H222 C211 0.929 . S
O223 Co198 2.351 . S
O223 C226 1.244 . S
O224 Co198 2.155 . S
O224 C226 1.240 . S
O225 Co198 2.096 . S
O225 C206 1.247 . S
C226 O223 1.244 . S
C226 O224 1.240 . S
H227 C201 0.931 . S
H228 C210 0.931 . S
H229 C214 0.929 . S
H230 C216 0.930 . S
Co231 N235 2.148 . S
Co231 N241 2.128 . S
Co231 N251 2.194 . S
Co231 O256 2.351 . S
Co231 O257 2.155 . S
Co231 O258 2.096 . S
C232 N235 1.301 . S
C232 N236 1.328 1_565 S
C232 H237 0.930 . S
C233 C234 1.333 1_565 S
C233 N235 1.317 . S
C233 H238 0.930 . S
C234 C233 1.333 1_545 S
C234 N236 1.350 . S
C234 H260 0.931 . S
N235 Co231 2.148 . S
N235 C232 1.301 . S
N235 C233 1.317 . S
N236 C232 1.328 1_545 S
N236 C234 1.350 . S
H237 C232 0.930 . S
H238 C233 0.930 . S
C239 O240 1.224 . S
C239 O258 1.247 . S
O240 C239 1.224 . S
N241 Co231 2.128 . S
N241 C242 1.355 . S
N241 C244 1.311 . S
C242 N241 1.355 . S
C242 C243 1.363 . S
C242 H254 0.929 . S
C243 C242 1.363 . S
C243 N245 1.375 . S
C243 H261 0.931 . S
C244 N241 1.311 . S
C244 N245 1.347 . S
C244 H255 0.929 . S
N245 C243 1.375 . S
N245 C244 1.347 . S
C246 C249 1.365 . S
C246 N251 1.328 . S
C246 H252 0.929 . S
C247 C248 1.362 . S
C247 C250 1.378 . S
C247 H262 0.929 . S
C248 C247 1.362 . S
C248 C249 1.366 . S
C249 C246 1.365 . S
C249 C248 1.366 . S
C249 H263 0.930 . S
C250 C247 1.378 . S
C250 N251 1.315 . S
C250 H253 0.930 . S
N251 Co231 2.194 . S
N251 C246 1.328 . S
N251 C250 1.315 . S
H252 C246 0.929 . S
H253 C250 0.930 . S
H254 C242 0.929 . S
H255 C244 0.929 . S
O256 Co231 2.351 . S
O256 C259 1.244 . S
O257 Co231 2.155 . S
O257 C259 1.240 . S
O258 Co231 2.096 . S
O258 C239 1.247 . S
C259 O256 1.244 . S
C259 O257 1.240 . S
H260 C234 0.931 . S
H261 C243 0.931 . S
H262 C247 0.929 . S
H263 C249 0.930 . S
Co264 N268 2.148 . S
Co264 N274 2.128 . S
Co264 N284 2.194 . S
Co264 O289 2.351 . S
Co264 O290 2.155 . S
Co264 O291 2.096 . S
C265 N268 1.301 . S
C265 N269 1.328 1_545 S
C265 H270 0.930 . S
C266 C267 1.333 1_545 S
C266 N268 1.317 . S
C266 H271 0.930 . S
C267 C266 1.333 1_565 S
C267 N269 1.350 . S
C267 H293 0.931 . S
N268 Co264 2.148 . S
N268 C265 1.301 . S
N268 C266 1.317 . S
N269 C265 1.328 1_565 S
N269 C267 1.350 . S
H270 C265 0.930 . S
H271 C266 0.930 . S
C272 O273 1.224 . S
C272 O291 1.247 . S
O273 C272 1.224 . S
N274 Co264 2.128 . S
N274 C275 1.355 . S
N274 C277 1.311 . S
C275 N274 1.355 . S
C275 C276 1.363 . S
C275 H287 0.929 . S
C276 C275 1.363 . S
C276 N278 1.375 . S
C276 H294 0.931 . S
C277 N274 1.311 . S
C277 N278 1.347 . S
C277 H288 0.929 . S
N278 C276 1.375 . S
N278 C277 1.347 . S
C279 C282 1.365 . S
C279 N284 1.328 . S
C279 H285 0.929 . S
C280 C281 1.362 . S
C280 C283 1.378 . S
C280 H295 0.929 . S
C281 C280 1.362 . S
C281 C282 1.366 . S
C282 C279 1.365 . S
C282 C281 1.366 . S
C282 H296 0.930 . S
C283 C280 1.378 . S
C283 N284 1.315 . S
C283 H286 0.930 . S
N284 Co264 2.194 . S
N284 C279 1.328 . S
N284 C283 1.315 . S
H285 C279 0.929 . S
H286 C283 0.930 . S
H287 C275 0.929 . S
H288 C277 0.929 . S
O289 Co264 2.351 . S
O289 C292 1.244 . S
O290 Co264 2.155 . S
O290 C292 1.240 . S
O291 Co264 2.096 . S
O291 C272 1.247 . S
C292 O289 1.244 . S
C292 O290 1.240 . S
H293 C267 0.931 . S
H294 C276 0.931 . S
H295 C280 0.929 . S
H296 C282 0.930 . S
Co297 N301 2.148 . S
Co297 N307 2.128 . S
Co297 N317 2.194 . S
Co297 O322 2.351 . S
Co297 O323 2.155 . S
Co297 O324 2.096 . S
C298 N301 1.301 . S
C298 N302 1.328 1_655 S
C298 H303 0.930 . S
C299 C300 1.333 1_655 S
C299 N301 1.317 . S
C299 H304 0.930 . S
C300 C299 1.333 1_455 S
C300 N302 1.350 . S
C300 H326 0.931 . S
N301 Co297 2.148 . S
N301 C298 1.301 . S
N301 C299 1.317 . S
N302 C298 1.328 1_455 S
N302 C300 1.350 . S
H303 C298 0.930 . S
H304 C299 0.930 . S
C305 O306 1.224 . S
C305 O324 1.247 . S
O306 C305 1.224 . S
N307 Co297 2.128 . S
N307 C308 1.355 . S
N307 C310 1.311 . S
C308 N307 1.355 . S
C308 C309 1.363 . S
C308 H320 0.929 . S
C309 C308 1.363 . S
C309 N311 1.375 . S
C309 H327 0.931 . S
C310 N307 1.311 . S
C310 N311 1.347 . S
C310 H321 0.929 . S
N311 C309 1.375 . S
N311 C310 1.347 . S
C312 C315 1.365 . S
C312 N317 1.328 . S
C312 H318 0.929 . S
C313 C314 1.362 . S
C313 C316 1.378 . S
C313 H328 0.929 . S
C314 C313 1.362 . S
C314 C315 1.366 . S
C315 C312 1.365 . S
C315 C314 1.366 . S
C315 H329 0.930 . S
C316 C313 1.378 . S
C316 N317 1.315 . S
C316 H319 0.930 . S
N317 Co297 2.194 . S
N317 C312 1.328 . S
N317 C316 1.315 . S
H318 C312 0.929 . S
H319 C316 0.930 . S
H320 C308 0.929 . S
H321 C310 0.929 . S
O322 Co297 2.351 . S
O322 C325 1.244 . S
O323 Co297 2.155 . S
O323 C325 1.240 . S
O324 Co297 2.096 . S
O324 C305 1.247 . S
C325 O322 1.244 . S
C325 O323 1.240 . S
H326 C300 0.931 . S
H327 C309 0.931 . S
H328 C313 0.929 . S
H329 C315 0.930 . S
Co330 N334 2.148 . S
Co330 N340 2.128 . S
Co330 N350 2.194 . S
Co330 O355 2.351 . S
Co330 O356 2.155 . S
Co330 O357 2.096 . S
C331 N334 1.301 . S
C331 N335 1.328 1_565 S
C331 H336 0.930 . S
C332 C333 1.333 1_565 S
C332 N334 1.317 . S
C332 H337 0.930 . S
C333 C332 1.333 1_545 S
C333 N335 1.350 . S
C333 H359 0.931 . S
N334 Co330 2.148 . S
N334 C331 1.301 . S
N334 C332 1.317 . S
N335 C331 1.328 1_545 S
N335 C333 1.350 . S
H336 C331 0.930 . S
H337 C332 0.930 . S
C338 O339 1.224 . S
C338 O357 1.247 . S
O339 C338 1.224 . S
N340 Co330 2.128 . S
N340 C341 1.355 . S
N340 C343 1.311 . S
C341 N340 1.355 . S
C341 C342 1.363 . S
C341 H353 0.929 . S
C342 C341 1.363 . S
C342 N344 1.375 . S
C342 H360 0.931 . S
C343 N340 1.311 . S
C343 N344 1.347 . S
C343 H354 0.929 . S
N344 C342 1.375 . S
N344 C343 1.347 . S
C345 C348 1.365 . S
C345 N350 1.328 . S
C345 H351 0.929 . S
C346 C347 1.362 . S
C346 C349 1.378 . S
C346 H361 0.929 . S
C347 C346 1.362 . S
C347 C348 1.366 . S
C348 C345 1.365 . S
C348 C347 1.366 . S
C348 H362 0.930 . S
C349 C346 1.378 . S
C349 N350 1.315 . S
C349 H352 0.930 . S
N350 Co330 2.194 . S
N350 C345 1.328 . S
N350 C349 1.315 . S
H351 C345 0.929 . S
H352 C349 0.930 . S
H353 C341 0.929 . S
H354 C343 0.929 . S
O355 Co330 2.351 . S
O355 C358 1.244 . S
O356 Co330 2.155 . S
O356 C358 1.240 . S
O357 Co330 2.096 . S
O357 C338 1.247 . S
C358 O355 1.244 . S
C358 O356 1.240 . S
H359 C333 0.931 . S
H360 C342 0.931 . S
H361 C346 0.929 . S
H362 C348 0.930 . S
Co363 N367 2.148 . S
Co363 N373 2.128 . S
Co363 N383 2.194 . S
Co363 O388 2.351 . S
Co363 O389 2.155 . S
Co363 O390 2.096 . S
C364 N367 1.301 . S
C364 N368 1.328 1_455 S
C364 H369 0.930 . S
C365 C366 1.333 1_455 S
C365 N367 1.317 . S
C365 H370 0.930 . S
C366 C365 1.333 1_655 S
C366 N368 1.350 . S
C366 H392 0.931 . S
N367 Co363 2.148 . S
N367 C364 1.301 . S
N367 C365 1.317 . S
N368 C364 1.328 1_655 S
N368 C366 1.350 . S
H369 C364 0.930 . S
H370 C365 0.930 . S
C371 O372 1.224 . S
C371 O390 1.247 . S
O372 C371 1.224 . S
N373 Co363 2.128 . S
N373 C374 1.355 . S
N373 C376 1.311 . S
C374 N373 1.355 . S
C374 C375 1.363 . S
C374 H386 0.929 . S
C375 C374 1.363 . S
C375 N377 1.375 . S
C375 H393 0.931 . S
C376 N373 1.311 . S
C376 N377 1.347 . S
C376 H387 0.929 . S
N377 C375 1.375 . S
N377 C376 1.347 . S
C378 C381 1.365 . S
C378 N383 1.328 . S
C378 H384 0.929 . S
C379 C380 1.362 . S
C379 C382 1.378 . S
C379 H394 0.929 . S
C380 C379 1.362 . S
C380 C381 1.366 . S
C381 C378 1.365 . S
C381 C380 1.366 . S
C381 H395 0.930 . S
C382 C379 1.378 . S
C382 N383 1.315 . S
C382 H385 0.930 . S
N383 Co363 2.194 . S
N383 C378 1.328 . S
N383 C382 1.315 . S
H384 C378 0.929 . S
H385 C382 0.930 . S
H386 C374 0.929 . S
H387 C376 0.929 . S
O388 Co363 2.351 . S
O388 C391 1.244 . S
O389 Co363 2.155 . S
O389 C391 1.240 . S
O390 Co363 2.096 . S
O390 C371 1.247 . S
C391 O388 1.244 . S
C391 O389 1.240 . S
H392 C366 0.931 . S
H393 C375 0.931 . S
H394 C379 0.929 . S
H395 C381 0.930 . S
Co396 N400 2.148 . S
Co396 N406 2.128 . S
Co396 N416 2.194 . S
Co396 O421 2.351 . S
Co396 O422 2.155 . S
Co396 O423 2.096 . S
C397 N400 1.301 . S
C397 N401 1.328 1_565 S
C397 H402 0.930 . S
C398 C399 1.333 1_565 S
C398 N400 1.317 . S
C398 H403 0.930 . S
C399 C398 1.333 1_545 S
C399 N401 1.350 . S
C399 H425 0.931 . S
N400 Co396 2.148 . S
N400 C397 1.301 . S
N400 C398 1.317 . S
N401 C397 1.328 1_545 S
N401 C399 1.350 . S
H402 C397 0.930 . S
H403 C398 0.930 . S
C404 O405 1.224 . S
C404 O423 1.247 . S
O405 C404 1.224 . S
N406 Co396 2.128 . S
N406 C407 1.355 . S
N406 C409 1.311 . S
C407 N406 1.355 . S
C407 C408 1.363 . S
C407 H419 0.929 . S
C408 C407 1.363 . S
C408 N410 1.375 . S
C408 H426 0.931 . S
C409 N406 1.311 . S
C409 N410 1.347 . S
C409 H420 0.929 . S
N410 C408 1.375 . S
N410 C409 1.347 . S
C411 C414 1.365 . S
C411 N416 1.328 . S
C411 H417 0.929 . S
C412 C413 1.362 . S
C412 C415 1.378 . S
C412 H427 0.929 . S
C413 C412 1.362 . S
C413 C414 1.366 . S
C414 C411 1.365 . S
C414 C413 1.366 . S
C414 H428 0.930 . S
C415 C412 1.378 . S
C415 N416 1.315 . S
C415 H418 0.930 . S
N416 Co396 2.194 . S
N416 C411 1.328 . S
N416 C415 1.315 . S
H417 C411 0.929 . S
H418 C415 0.930 . S
H419 C407 0.929 . S
H420 C409 0.929 . S
O421 Co396 2.351 . S
O421 C424 1.244 . S
O422 Co396 2.155 . S
O422 C424 1.240 . S
O423 Co396 2.096 . S
O423 C404 1.247 . S
C424 O421 1.244 . S
C424 O422 1.240 . S
H425 C399 0.931 . S
H426 C408 0.931 . S
H427 C412 0.929 . S
H428 C414 0.930 . S
Co429 N433 2.148 . S
Co429 N439 2.128 . S
Co429 N449 2.194 . S
Co429 O454 2.351 . S
Co429 O455 2.155 . S
Co429 O456 2.096 . S
C430 N433 1.301 . S
C430 N434 1.328 1_455 S
C430 H435 0.930 . S
C431 C432 1.333 1_455 S
C431 N433 1.317 . S
C431 H436 0.930 . S
C432 C431 1.333 1_655 S
C432 N434 1.350 . S
C432 H458 0.931 . S
N433 Co429 2.148 . S
N433 C430 1.301 . S
N433 C431 1.317 . S
N434 C430 1.328 1_655 S
N434 C432 1.350 . S
H435 C430 0.930 . S
H436 C431 0.930 . S
C437 O438 1.224 . S
C437 O456 1.247 . S
O438 C437 1.224 . S
N439 Co429 2.128 . S
N439 C440 1.355 . S
N439 C442 1.311 . S
C440 N439 1.355 . S
C440 C441 1.363 . S
C440 H452 0.929 . S
C441 C440 1.363 . S
C441 N443 1.375 . S
C441 H459 0.931 . S
C442 N439 1.311 . S
C442 N443 1.347 . S
C442 H453 0.929 . S
N443 C441 1.375 . S
N443 C442 1.347 . S
C444 C447 1.365 . S
C444 N449 1.328 . S
C444 H450 0.929 . S
C445 C446 1.362 . S
C445 C448 1.378 . S
C445 H460 0.929 . S
C446 C445 1.362 . S
C446 C447 1.366 . S
C447 C444 1.365 . S
C447 C446 1.366 . S
C447 H461 0.930 . S
C448 C445 1.378 . S
C448 N449 1.315 . S
C448 H451 0.930 . S
N449 Co429 2.194 . S
N449 C444 1.328 . S
N449 C448 1.315 . S
H450 C444 0.929 . S
H451 C448 0.930 . S
H452 C440 0.929 . S
H453 C442 0.929 . S
O454 Co429 2.351 . S
O454 C457 1.244 . S
O455 Co429 2.155 . S
O455 C457 1.240 . S
O456 Co429 2.096 . S
O456 C437 1.247 . S
C457 O454 1.244 . S
C457 O455 1.240 . S
H458 C432 0.931 . S
H459 C441 0.931 . S
H460 C445 0.929 . S
H461 C447 0.930 . S
Co462 N466 2.148 . S
Co462 N472 2.128 . S
Co462 N482 2.194 . S
Co462 O487 2.351 . S
Co462 O488 2.155 . S
Co462 O489 2.096 . S
C463 N466 1.301 . S
C463 N467 1.328 1_545 S
C463 H468 0.930 . S
C464 C465 1.333 1_545 S
C464 N466 1.317 . S
C464 H469 0.930 . S
C465 C464 1.333 1_565 S
C465 N467 1.350 . S
C465 H491 0.931 . S
N466 Co462 2.148 . S
N466 C463 1.301 . S
N466 C464 1.317 . S
N467 C463 1.328 1_565 S
N467 C465 1.350 . S
H468 C463 0.930 . S
H469 C464 0.930 . S
C470 O471 1.224 . S
C470 O489 1.247 . S
O471 C470 1.224 . S
N472 Co462 2.128 . S
N472 C473 1.355 . S
N472 C475 1.311 . S
C473 N472 1.355 . S
C473 C474 1.363 . S
C473 H485 0.929 . S
C474 C473 1.363 . S
C474 N476 1.375 . S
C474 H492 0.931 . S
C475 N472 1.311 . S
C475 N476 1.347 . S
C475 H486 0.929 . S
N476 C474 1.375 . S
N476 C475 1.347 . S
C477 C480 1.365 . S
C477 N482 1.328 . S
C477 H483 0.929 . S
C478 C479 1.362 . S
C478 C481 1.378 . S
C478 H493 0.929 . S
C479 C478 1.362 . S
C479 C480 1.366 . S
C480 C477 1.365 . S
C480 C479 1.366 . S
C480 H494 0.930 . S
C481 C478 1.378 . S
C481 N482 1.315 . S
C481 H484 0.930 . S
N482 Co462 2.194 . S
N482 C477 1.328 . S
N482 C481 1.315 . S
H483 C477 0.929 . S
H484 C481 0.930 . S
H485 C473 0.929 . S
H486 C475 0.929 . S
O487 Co462 2.351 . S
O487 C490 1.244 . S
O488 Co462 2.155 . S
O488 C490 1.240 . S
O489 Co462 2.096 . S
O489 C470 1.247 . S
C490 O487 1.244 . S
C490 O488 1.240 . S
H491 C465 0.931 . S
H492 C474 0.931 . S
H493 C478 0.929 . S
H494 C480 0.930 . S
Co495 N499 2.148 . S
Co495 N505 2.128 . S
Co495 N515 2.194 . S
Co495 O520 2.351 . S
Co495 O521 2.155 . S
Co495 O522 2.096 . S
C496 N499 1.301 . S
C496 N500 1.328 1_655 S
C496 H501 0.930 . S
C497 C498 1.333 1_655 S
C497 N499 1.317 . S
C497 H502 0.930 . S
C498 C497 1.333 1_455 S
C498 N500 1.350 . S
C498 H524 0.931 . S
N499 Co495 2.148 . S
N499 C496 1.301 . S
N499 C497 1.317 . S
N500 C496 1.328 1_455 S
N500 C498 1.350 . S
H501 C496 0.930 . S
H502 C497 0.930 . S
C503 O504 1.224 . S
C503 O522 1.247 . S
O504 C503 1.224 . S
N505 Co495 2.128 . S
N505 C506 1.355 . S
N505 C508 1.311 . S
C506 N505 1.355 . S
C506 C507 1.363 . S
C506 H518 0.929 . S
C507 C506 1.363 . S
C507 N509 1.375 . S
C507 H525 0.931 . S
C508 N505 1.311 . S
C508 N509 1.347 . S
C508 H519 0.929 . S
N509 C507 1.375 . S
N509 C508 1.347 . S
C510 C513 1.365 . S
C510 N515 1.328 . S
C510 H516 0.929 . S
C511 C512 1.362 . S
C511 C514 1.378 . S
C511 H526 0.929 . S
C512 C511 1.362 . S
C512 C513 1.366 . S
C513 C510 1.365 . S
C513 C512 1.366 . S
C513 H527 0.930 . S
C514 C511 1.378 . S
C514 N515 1.315 . S
C514 H517 0.930 . S
N515 Co495 2.194 . S
N515 C510 1.328 . S
N515 C514 1.315 . S
H516 C510 0.929 . S
H517 C514 0.930 . S
H518 C506 0.929 . S
H519 C508 0.929 . S
O520 Co495 2.351 . S
O520 C523 1.244 . S
O521 Co495 2.155 . S
O521 C523 1.240 . S
O522 Co495 2.096 . S
O522 C503 1.247 . S
C523 O520 1.244 . S
C523 O521 1.240 . S
H524 C498 0.931 . S
H525 C507 0.931 . S
H526 C511 0.929 . S
H527 C513 0.930 . S
Co528 N532 2.148 . S
Co528 N538 2.128 . S
Co528 N548 2.194 . S
Co528 O553 2.351 . S
Co528 O554 2.155 . S
Co528 O555 2.096 . S
C529 N532 1.301 . S
C529 N533 1.328 1_554 S
C529 H534 0.930 . S
C530 C531 1.333 1_554 S
C530 N532 1.317 . S
C530 H535 0.930 . S
C531 C530 1.333 1_556 S
C531 N533 1.350 . S
C531 H557 0.931 . S
N532 Co528 2.148 . S
N532 C529 1.301 . S
N532 C530 1.317 . S
N533 C529 1.328 1_556 S
N533 C531 1.350 . S
H534 C529 0.930 . S
H535 C530 0.930 . S
C536 O537 1.224 . S
C536 O555 1.247 . S
O537 C536 1.224 . S
N538 Co528 2.128 . S
N538 C539 1.355 . S
N538 C541 1.311 . S
C539 N538 1.355 . S
C539 C540 1.363 . S
C539 H551 0.929 . S
C540 C539 1.363 . S
C540 N542 1.375 . S
C540 H558 0.931 . S
C541 N538 1.311 . S
C541 N542 1.347 . S
C541 H552 0.929 . S
N542 C540 1.375 . S
N542 C541 1.347 . S
C543 C546 1.365 . S
C543 N548 1.328 . S
C543 H549 0.929 . S
C544 C545 1.362 . S
C544 C547 1.378 . S
C544 H559 0.929 . S
C545 C544 1.362 . S
C545 C546 1.366 . S
C546 C543 1.365 . S
C546 C545 1.366 . S
C546 H560 0.930 . S
C547 C544 1.378 . S
C547 N548 1.315 . S
C547 H550 0.930 . S
N548 Co528 2.194 . S
N548 C543 1.328 . S
N548 C547 1.315 . S
H549 C543 0.929 . S
H550 C547 0.930 . S
H551 C539 0.929 . S
H552 C541 0.929 . S
O553 Co528 2.351 . S
O553 C556 1.244 . S
O554 Co528 2.155 . S
O554 C556 1.240 . S
O555 Co528 2.096 . S
O555 C536 1.247 . S
C556 O553 1.244 . S
C556 O554 1.240 . S
H557 C531 0.931 . S
H558 C540 0.931 . S
H559 C544 0.929 . S
H560 C546 0.930 . S
Co561 N565 2.148 . S
Co561 N571 2.128 . S
Co561 N581 2.194 . S
Co561 O586 2.351 . S
Co561 O587 2.155 . S
Co561 O588 2.096 . S
C562 N565 1.301 . S
C562 N566 1.328 1_556 S
C562 H567 0.930 . S
C563 C564 1.333 1_556 S
C563 N565 1.317 . S
C563 H568 0.930 . S
C564 C563 1.333 1_554 S
C564 N566 1.350 . S
C564 H590 0.931 . S
N565 Co561 2.148 . S
N565 C562 1.301 . S
N565 C563 1.317 . S
N566 C562 1.328 1_554 S
N566 C564 1.350 . S
H567 C562 0.930 . S
H568 C563 0.930 . S
C569 O570 1.224 . S
C569 O588 1.247 . S
O570 C569 1.224 . S
N571 Co561 2.128 . S
N571 C572 1.355 . S
N571 C574 1.311 . S
C572 N571 1.355 . S
C572 C573 1.363 . S
C572 H584 0.929 . S
C573 C572 1.363 . S
C573 N575 1.375 . S
C573 H591 0.931 . S
C574 N571 1.311 . S
C574 N575 1.347 . S
C574 H585 0.929 . S
N575 C573 1.375 . S
N575 C574 1.347 . S
C576 C579 1.365 . S
C576 N581 1.328 . S
C576 H582 0.929 . S
C577 C578 1.362 . S
C577 C580 1.378 . S
C577 H592 0.929 . S
C578 C577 1.362 . S
C578 C579 1.366 . S
C579 C576 1.365 . S
C579 C578 1.366 . S
C579 H593 0.930 . S
C580 C577 1.378 . S
C580 N581 1.315 . S
C580 H583 0.930 . S
N581 Co561 2.194 . S
N581 C576 1.328 . S
N581 C580 1.315 . S
H582 C576 0.929 . S
H583 C580 0.930 . S
H584 C572 0.929 . S
H585 C574 0.929 . S
O586 Co561 2.351 . S
O586 C589 1.244 . S
O587 Co561 2.155 . S
O587 C589 1.240 . S
O588 Co561 2.096 . S
O588 C569 1.247 . S
C589 O586 1.244 . S
C589 O587 1.240 . S
H590 C564 0.931 . S
H591 C573 0.931 . S
H592 C577 0.929 . S
H593 C579 0.930 . S
Co594 N598 2.148 . S
Co594 N604 2.128 . S
Co594 N614 2.194 . S
Co594 O619 2.351 . S
Co594 O620 2.155 . S
Co594 O621 2.096 . S
C595 N598 1.301 . S
C595 N599 1.328 1_556 S
C595 H600 0.930 . S
C596 C597 1.333 1_556 S
C596 N598 1.317 . S
C596 H601 0.930 . S
C597 C596 1.333 1_554 S
C597 N599 1.350 . S
C597 H623 0.931 . S
N598 Co594 2.148 . S
N598 C595 1.301 . S
N598 C596 1.317 . S
N599 C595 1.328 1_554 S
N599 C597 1.350 . S
H600 C595 0.930 . S
H601 C596 0.930 . S
C602 O603 1.224 . S
C602 O621 1.247 . S
O603 C602 1.224 . S
N604 Co594 2.128 . S
N604 C605 1.355 . S
N604 C607 1.311 . S
C605 N604 1.355 . S
C605 C606 1.363 . S
C605 H617 0.929 . S
C606 C605 1.363 . S
C606 N608 1.375 . S
C606 H624 0.931 . S
C607 N604 1.311 . S
C607 N608 1.347 . S
C607 H618 0.929 . S
N608 C606 1.375 . S
N608 C607 1.347 . S
C609 C612 1.365 . S
C609 N614 1.328 . S
C609 H615 0.929 . S
C610 C611 1.362 . S
C610 C613 1.378 . S
C610 H625 0.929 . S
C611 C610 1.362 . S
C611 C612 1.366 . S
C612 C609 1.365 . S
C612 C611 1.366 . S
C612 H626 0.930 . S
C613 C610 1.378 . S
C613 N614 1.315 . S
C613 H616 0.930 . S
N614 Co594 2.194 . S
N614 C609 1.328 . S
N614 C613 1.315 . S
H615 C609 0.929 . S
H616 C613 0.930 . S
H617 C605 0.929 . S
H618 C607 0.929 . S
O619 Co594 2.351 . S
O619 C622 1.244 . S
O620 Co594 2.155 . S
O620 C622 1.240 . S
O621 Co594 2.096 . S
O621 C602 1.247 . S
C622 O619 1.244 . S
C622 O620 1.240 . S
H623 C597 0.931 . S
H624 C606 0.931 . S
H625 C610 0.929 . S
H626 C612 0.930 . S
Co627 N631 2.148 . S
Co627 N637 2.128 . S
Co627 N647 2.194 . S
Co627 O652 2.351 . S
Co627 O653 2.155 . S
Co627 O654 2.096 . S
C628 N631 1.301 . S
C628 N632 1.328 1_556 S
C628 H633 0.930 . S
C629 C630 1.333 1_556 S
C629 N631 1.317 . S
C629 H634 0.930 . S
C630 C629 1.333 1_554 S
C630 N632 1.350 . S
C630 H656 0.931 . S
N631 Co627 2.148 . S
N631 C628 1.301 . S
N631 C629 1.317 . S
N632 C628 1.328 1_554 S
N632 C630 1.350 . S
H633 C628 0.930 . S
H634 C629 0.930 . S
C635 O636 1.224 . S
C635 O654 1.247 . S
O636 C635 1.224 . S
N637 Co627 2.128 . S
N637 C638 1.355 . S
N637 C640 1.311 . S
C638 N637 1.355 . S
C638 C639 1.363 . S
C638 H650 0.929 . S
C639 C638 1.363 . S
C639 N641 1.375 . S
C639 H657 0.931 . S
C640 N637 1.311 . S
C640 N641 1.347 . S
C640 H651 0.929 . S
N641 C639 1.375 . S
N641 C640 1.347 . S
C642 C645 1.365 . S
C642 N647 1.328 . S
C642 H648 0.929 . S
C643 C644 1.362 . S
C643 C646 1.378 . S
C643 H658 0.929 . S
C644 C643 1.362 . S
C644 C645 1.366 . S
C645 C642 1.365 . S
C645 C644 1.366 . S
C645 H659 0.930 . S
C646 C643 1.378 . S
C646 N647 1.315 . S
C646 H649 0.930 . S
N647 Co627 2.194 . S
N647 C642 1.328 . S
N647 C646 1.315 . S
H648 C642 0.929 . S
H649 C646 0.930 . S
H650 C638 0.929 . S
H651 C640 0.929 . S
O652 Co627 2.351 . S
O652 C655 1.244 . S
O653 Co627 2.155 . S
O653 C655 1.240 . S
O654 Co627 2.096 . S
O654 C635 1.247 . S
C655 O652 1.244 . S
C655 O653 1.240 . S
H656 C630 0.931 . S
H657 C639 0.931 . S
H658 C643 0.929 . S
H659 C645 0.930 . S
Co660 N664 2.148 . S
Co660 N670 2.128 . S
Co660 N680 2.194 . S
Co660 O685 2.351 . S
Co660 O686 2.155 . S
Co660 O687 2.096 . S
C661 N664 1.301 . S
C661 N665 1.328 1_556 S
C661 H666 0.930 . S
C662 C663 1.333 1_556 S
C662 N664 1.317 . S
C662 H667 0.930 . S
C663 C662 1.333 1_554 S
C663 N665 1.350 . S
C663 H689 0.931 . S
N664 Co660 2.148 . S
N664 C661 1.301 . S
N664 C662 1.317 . S
N665 C661 1.328 1_554 S
N665 C663 1.350 . S
H666 C661 0.930 . S
H667 C662 0.930 . S
C668 O669 1.224 . S
C668 O687 1.247 . S
O669 C668 1.224 . S
N670 Co660 2.128 . S
N670 C671 1.355 . S
N670 C673 1.311 . S
C671 N670 1.355 . S
C671 C672 1.363 . S
C671 H683 0.929 . S
C672 C671 1.363 . S
C672 N674 1.375 . S
C672 H690 0.931 . S
C673 N670 1.311 . S
C673 N674 1.347 . S
C673 H684 0.929 . S
N674 C672 1.375 . S
N674 C673 1.347 . S
C675 C678 1.365 . S
C675 N680 1.328 . S
C675 H681 0.929 . S
C676 C677 1.362 . S
C676 C679 1.378 . S
C676 H691 0.929 . S
C677 C676 1.362 . S
C677 C678 1.366 . S
C678 C675 1.365 . S
C678 C677 1.366 . S
C678 H692 0.930 . S
C679 C676 1.378 . S
C679 N680 1.315 . S
C679 H682 0.930 . S
N680 Co660 2.194 . S
N680 C675 1.328 . S
N680 C679 1.315 . S
H681 C675 0.929 . S
H682 C679 0.930 . S
H683 C671 0.929 . S
H684 C673 0.929 . S
O685 Co660 2.351 . S
O685 C688 1.244 . S
O686 Co660 2.155 . S
O686 C688 1.240 . S
O687 Co660 2.096 . S
O687 C668 1.247 . S
C688 O685 1.244 . S
C688 O686 1.240 . S
H689 C663 0.931 . S
H690 C672 0.931 . S
H691 C676 0.929 . S
H692 C678 0.930 . S
Co693 N697 2.148 . S
Co693 N703 2.128 . S
Co693 N713 2.194 . S
Co693 O718 2.351 . S
Co693 O719 2.155 . S
Co693 O720 2.096 . S
C694 N697 1.301 . S
C694 N698 1.328 1_554 S
C694 H699 0.930 . S
C695 C696 1.333 1_554 S
C695 N697 1.317 . S
C695 H700 0.930 . S
C696 C695 1.333 1_556 S
C696 N698 1.350 . S
C696 H722 0.931 . S
N697 Co693 2.148 . S
N697 C694 1.301 . S
N697 C695 1.317 . S
N698 C694 1.328 1_556 S
N698 C696 1.350 . S
H699 C694 0.930 . S
H700 C695 0.930 . S
C701 O702 1.224 . S
C701 O720 1.247 . S
O702 C701 1.224 . S
N703 Co693 2.128 . S
N703 C704 1.355 . S
N703 C706 1.311 . S
C704 N703 1.355 . S
C704 C705 1.363 . S
C704 H716 0.929 . S
C705 C704 1.363 . S
C705 N707 1.375 . S
C705 H723 0.931 . S
C706 N703 1.311 . S
C706 N707 1.347 . S
C706 H717 0.929 . S
N707 C705 1.375 . S
N707 C706 1.347 . S
C708 C711 1.365 . S
C708 N713 1.328 . S
C708 H714 0.929 . S
C709 C710 1.362 . S
C709 C712 1.378 . S
C709 H724 0.929 . S
C710 C709 1.362 . S
C710 C711 1.366 . S
C711 C708 1.365 . S
C711 C710 1.366 . S
C711 H725 0.930 . S
C712 C709 1.378 . S
C712 N713 1.315 . S
C712 H715 0.930 . S
N713 Co693 2.194 . S
N713 C708 1.328 . S
N713 C712 1.315 . S
H714 C708 0.929 . S
H715 C712 0.930 . S
H716 C704 0.929 . S
H717 C706 0.929 . S
O718 Co693 2.351 . S
O718 C721 1.244 . S
O719 Co693 2.155 . S
O719 C721 1.240 . S
O720 Co693 2.096 . S
O720 C701 1.247 . S
C721 O718 1.244 . S
C721 O719 1.240 . S
H722 C696 0.931 . S
H723 C705 0.931 . S
H724 C709 0.929 . S
H725 C711 0.930 . S
Co726 N730 2.148 . S
Co726 N736 2.128 . S
Co726 N746 2.194 . S
Co726 O751 2.351 . S
Co726 O752 2.155 . S
Co726 O753 2.096 . S
C727 N730 1.301 . S
C727 N731 1.328 1_554 S
C727 H732 0.930 . S
C728 C729 1.333 1_554 S
C728 N730 1.317 . S
C728 H733 0.930 . S
C729 C728 1.333 1_556 S
C729 N731 1.350 . S
C729 H755 0.931 . S
N730 Co726 2.148 . S
N730 C727 1.301 . S
N730 C728 1.317 . S
N731 C727 1.328 1_556 S
N731 C729 1.350 . S
H732 C727 0.930 . S
H733 C728 0.930 . S
C734 O735 1.224 . S
C734 O753 1.247 . S
O735 C734 1.224 . S
N736 Co726 2.128 . S
N736 C737 1.355 . S
N736 C739 1.311 . S
C737 N736 1.355 . S
C737 C738 1.363 . S
C737 H749 0.929 . S
C738 C737 1.363 . S
C738 N740 1.375 . S
C738 H756 0.931 . S
C739 N736 1.311 . S
C739 N740 1.347 . S
C739 H750 0.929 . S
N740 C738 1.375 . S
N740 C739 1.347 . S
C741 C744 1.365 . S
C741 N746 1.328 . S
C741 H747 0.929 . S
C742 C743 1.362 . S
C742 C745 1.378 . S
C742 H757 0.929 . S
C743 C742 1.362 . S
C743 C744 1.366 . S
C744 C741 1.365 . S
C744 C743 1.366 . S
C744 H758 0.930 . S
C745 C742 1.378 . S
C745 N746 1.315 . S
C745 H748 0.930 . S
N746 Co726 2.194 . S
N746 C741 1.328 . S
N746 C745 1.315 . S
H747 C741 0.929 . S
H748 C745 0.930 . S
H749 C737 0.929 . S
H750 C739 0.929 . S
O751 Co726 2.351 . S
O751 C754 1.244 . S
O752 Co726 2.155 . S
O752 C754 1.240 . S
O753 Co726 2.096 . S
O753 C734 1.247 . S
C754 O751 1.244 . S
C754 O752 1.240 . S
H755 C729 0.931 . S
H756 C738 0.931 . S
H757 C742 0.929 . S
H758 C744 0.930 . S
Co759 N763 2.148 . S
Co759 N769 2.128 . S
Co759 N779 2.194 . S
Co759 O784 2.351 . S
Co759 O785 2.155 . S
Co759 O786 2.096 . S
C760 N763 1.301 . S
C760 N764 1.328 1_554 S
C760 H765 0.930 . S
C761 C762 1.333 1_554 S
C761 N763 1.317 . S
C761 H766 0.930 . S
C762 C761 1.333 1_556 S
C762 N764 1.350 . S
C762 H788 0.931 . S
N763 Co759 2.148 . S
N763 C760 1.301 . S
N763 C761 1.317 . S
N764 C760 1.328 1_556 S
N764 C762 1.350 . S
H765 C760 0.930 . S
H766 C761 0.930 . S
C767 O768 1.224 . S
C767 O786 1.247 . S
O768 C767 1.224 . S
N769 Co759 2.128 . S
N769 C770 1.355 . S
N769 C772 1.311 . S
C770 N769 1.355 . S
C770 C771 1.363 . S
C770 H782 0.929 . S
C771 C770 1.363 . S
C771 N773 1.375 . S
C771 H789 0.931 . S
C772 N769 1.311 . S
C772 N773 1.347 . S
C772 H783 0.929 . S
N773 C771 1.375 . S
N773 C772 1.347 . S
C774 C777 1.365 . S
C774 N779 1.328 . S
C774 H780 0.929 . S
C775 C776 1.362 . S
C775 C778 1.378 . S
C775 H790 0.929 . S
C776 C775 1.362 . S
C776 C777 1.366 . S
C777 C774 1.365 . S
C777 C776 1.366 . S
C777 H791 0.930 . S
C778 C775 1.378 . S
C778 N779 1.315 . S
C778 H781 0.930 . S
N779 Co759 2.194 . S
N779 C774 1.328 . S
N779 C778 1.315 . S
H780 C774 0.929 . S
H781 C778 0.930 . S
H782 C770 0.929 . S
H783 C772 0.929 . S
O784 Co759 2.351 . S
O784 C787 1.244 . S
O785 Co759 2.155 . S
O785 C787 1.240 . S
O786 Co759 2.096 . S
O786 C767 1.247 . S
C787 O784 1.244 . S
C787 O785 1.240 . S
H788 C762 0.931 . S
H789 C771 0.931 . S
H790 C775 0.929 . S
H791 C777 0.930 . S
C182 C17 1.550 . S
C50 C215 1.550 . S
C83 C248 1.550 . S
C149 C116 1.550 . S
C281 C776 1.550 . S
C710 C314 1.550 . S
C347 C743 1.550 . S
C545 C380 1.550 . S
C413 C677 1.550 . S
C446 C578 1.550 . S
C611 C479 1.550 . S
C512 C644 1.550 . S
N104 C28 2.128 . S
C61 N5 2.128 . S
C94 N38 2.128 . S
N71 C127 2.128 . S
N170 C160 2.128 . S
C193 N203 2.128 . S
N236 C226 2.128 . S
N137 C259 2.128 . S
N599 C292 2.128 . S
C325 N632 2.128 . S
N665 C358 2.128 . S
C391 N566 2.128 . S
N731 C424 2.128 . S
C457 N533 2.128 . S
N764 C490 2.128 . S
C523 N698 2.128 . S
N302 C556 2.128 . S
N500 C589 2.128 . S
C622 N401 2.128 . S
C655 N434 2.128 . S
N467 C688 2.128 . S
N368 C721 2.128 . S
N269 C754 2.128 . S
C787 N335 2.128 . S
C8 N542 2.195 . S
N773 C41 2.195 . S
C74 N707 2.195 . S
N740 C107 2.195 . S
C140 N575 2.195 . S
C173 N608 2.195 . S
N641 C206 2.195 . S
N674 C239 2.195 . S
N14 C272 2.195 . S
C305 N47 2.195 . S
C338 N80 2.195 . S
C371 N113 2.195 . S
C404 N146 2.195 . S
C437 N179 2.195 . S
C470 N212 2.195 . S
C503 N245 2.195 . S
N278 C536 2.195 . S
C569 N410 2.195 . S
C602 N443 2.195 . S
N476 C635 2.195 . S
C668 N509 2.195 . S
N344 C701 2.195 . S
N377 C734 2.195 . S
C767 N311 2.195 . S
