# Generated by pormake.
# Topology smu, (6)-cn, num edge types: 1
# Building blocks:
#     Node 0, Type 0, BuildingBlock: JUFBIX_clean_sbu_0, # of connection points: 6
#     Node 1, Type 0, BuildingBlock: JUFBIX_clean_sbu_0, # of connection points: 6
#     Node 2, Type 0, BuildingBlock: JUFBIX_clean_sbu_0, # of connection points: 6
#     Node 3, Type 0, BuildingBlock: JUFBIX_clean_sbu_0, # of connection points: 6
#     Node 4, Type 0, BuildingBlock: JUFBIX_clean_sbu_0, # of connection points: 6
#     Node 5, Type 0, BuildingBlock: JUFBIX_clean_sbu_0, # of connection points: 6
#     Edge 6, Type (0, 0), BuildingBlock: ZUJKAS_clean_linker_0, # of connection points: 2
#     Edge 7, Type (0, 0), BuildingBlock: ZUJKAS_clean_linker_0, # of connection points: 2
#     Edge 8, Type (0, 0), BuildingBlock: ZUJKAS_clean_linker_0, # of connection points: 2
#     Edge 9, Type (0, 0), BuildingBlock: ZUJKAS_clean_linker_0, # of connection points: 2
#     Edge 10, Type (0, 0), BuildingBlock: ZUJKAS_clean_linker_0, # of connection points: 2
#     Edge 11, Type (0, 0), BuildingBlock: ZUJKAS_clean_linker_0, # of connection points: 2
#     Edge 12, Type (0, 0), BuildingBlock: ZUJKAS_clean_linker_0, # of connection points: 2
#     Edge 13, Type (0, 0), BuildingBlock: ZUJKAS_clean_linker_0, # of connection points: 2
#     Edge 14, Type (0, 0), BuildingBlock: ZUJKAS_clean_linker_0, # of connection points: 2
#     Edge 15, Type (0, 0), BuildingBlock: ZUJKAS_clean_linker_0, # of connection points: 2
#     Edge 16, Type (0, 0), BuildingBlock: ZUJKAS_clean_linker_0, # of connection points: 2
#     Edge 17, Type (0, 0), BuildingBlock: ZUJKAS_clean_linker_0, # of connection points: 2
#     Edge 18, Type (0, 0), BuildingBlock: ZUJKAS_clean_linker_0, # of connection points: 2
#     Edge 19, Type (0, 0), BuildingBlock: ZUJKAS_clean_linker_0, # of connection points: 2
#     Edge 20, Type (0, 0), BuildingBlock: ZUJKAS_clean_linker_0, # of connection points: 2
#     Edge 21, Type (0, 0), BuildingBlock: ZUJKAS_clean_linker_0, # of connection points: 2
#     Edge 22, Type (0, 0), BuildingBlock: ZUJKAS_clean_linker_0, # of connection points: 2
#     Edge 23, Type (0, 0), BuildingBlock: ZUJKAS_clean_linker_0, # of connection points: 2
# Relax obj value: 0.404
# Max RMSD: 0.297
# Mean RMSD: 0.296
data_MOF--net-smu--node1-JUFBIX_clean_sbu_0--edge1-ZUJKAS_clean_linker_0
_symmetry_space_group_name_H-M    P1
_symmetry_Int_Tables_number       1
_symmetry_cell_setting            triclinic
loop_
_symmetry_equiv_pos_as_xyz
'x, y, z'
_cell_length_a     39.70807
_cell_length_b     39.773632
_cell_length_c     36.936968
_cell_angle_alpha  91.686043
_cell_angle_beta   89.688685
_cell_angle_gamma 120.06523
loop_
_atom_site_label
_atom_site_type_symbol
_atom_site_fract_x
_atom_site_fract_y
_atom_site_fract_z
_atom_type_partial_charge
Co0 Co 0.32644 0.04422 0.27661 0.0
C1 C 0.35656 0.0884 0.21646 0.0
Co2 Co 0.37135 0.10479 0.2909 0.0
C3 C 0.25025 0.97719 0.27639 0.0
C4 C 0.28774 0.96837 0.24046 0.0
N5 N 0.28737 0.99398 0.26495 0.0
N6 N 0.22709 0.94247 0.25959 0.0
C7 C 0.25069 0.9367 0.23704 0.0
H8 H 0.23994 0.99128 0.29524 0.0
H9 H 0.31288 0.97319 0.22495 0.0
C10 C 0.33905 0.05727 0.3506 0.0
N11 N 0.40971 0.15542 0.30295 0.0
C12 C 0.41504 0.18925 0.29012 0.0
C13 C 0.43809 0.16604 0.32799 0.0
N14 N 0.44572 0.22062 0.30617 0.0
C15 C 0.46018 0.20591 0.33003 0.0
C16 C 0.29837 0.09601 0.28706 0.0
O17 O 0.31975 0.03248 0.32566 0.0
O18 O 0.36379 0.09194 0.34204 0.0
O19 O 0.33389 0.12011 0.29358 0.0
O20 O 0.28821 0.0608 0.27918 0.0
O21 O 0.37802 0.1158 0.23907 0.0
H22 H 0.44221 0.14603 0.34402 0.0
H23 H 0.3968 0.19069 0.26928 0.0
O24 O 0.33247 0.05524 0.22793 0.0
O25 O 0.36625 0.02923 0.27363 0.0
O26 O 0.40891 0.08994 0.28847 0.0
C27 C 0.40133 0.05567 0.28052 0.0
H28 H 0.24172 0.91192 0.21866 0.0
H29 H 0.48456 0.22267 0.34829 0.0
Co30 Co 0.74375 0.64262 0.26102 0.0
C31 C 0.73183 0.67355 0.19826 0.0
Co32 Co 0.73179 0.69077 0.27096 0.0
C33 C 0.78415 0.59828 0.26026 0.0
C34 C 0.73067 0.57012 0.23002 0.0
N35 N 0.753 0.60172 0.25134 0.0
N36 N 0.78227 0.56604 0.24495 0.0
C37 C 0.74843 0.5482 0.22615 0.0
H38 H 0.80848 0.61983 0.27643 0.0
H39 H 0.70366 0.56394 0.21717 0.0
C40 C 0.7419 0.66109 0.33396 0.0
N41 N 0.72346 0.73207 0.27988 0.0
C42 C 0.74508 0.76837 0.26755 0.0
C43 C 0.69802 0.73412 0.30286 0.0
N44 N 0.73474 0.79328 0.28234 0.0
C45 C 0.70491 0.77172 0.30447 0.0
C46 C 0.66538 0.61793 0.26795 0.0
O47 O 0.74572 0.63703 0.3131 0.0
O48 O 0.73663 0.68699 0.32045 0.0
O49 O 0.67639 0.65377 0.27354 0.0
O50 O 0.69034 0.60769 0.26156 0.0
O51 O 0.72671 0.69476 0.22131 0.0
H52 H 0.67689 0.71022 0.31852 0.0
H53 H 0.76938 0.7768 0.24948 0.0
O54 O 0.74072 0.64886 0.20935 0.0
O55 O 0.79746 0.67774 0.26063 0.0
O56 O 0.78713 0.72651 0.26867 0.0
C57 C 0.8108 0.71401 0.26432 0.0
H58 H 0.73735 0.52133 0.21035 0.0
H59 H 0.68971 0.78244 0.32129 0.0
Co60 Co 0.97565 0.28656 0.26342 0.0
C61 C 0.9302 0.27298 0.20297 0.0
Co62 Co 0.91598 0.27304 0.27715 0.0
C63 C 0.04249 0.27733 0.26536 0.0
C64 C 0.04905 0.31854 0.22599 0.0
N65 N 0.02519 0.29629 0.25219 0.0
N66 N 0.07572 0.28609 0.24799 0.0
C67 C 0.08009 0.31218 0.22321 0.0
H68 H 0.02956 0.25549 0.28574 0.0
H69 H 0.0432 0.3366 0.20877 0.0
C70 C 0.96487 0.28899 0.33719 0.0
N71 N 0.86573 0.26173 0.2886 0.0
C72 C 0.8315 0.23195 0.27589 0.0
C73 C 0.85571 0.28044 0.3136 0.0
N74 N 0.80054 0.23108 0.29228 0.0
C75 C 0.81579 0.26171 0.31594 0.0
C76 C 0.92278 0.20753 0.2719 0.0
O77 O 0.98902 0.29412 0.31241 0.0
O78 O 0.92965 0.27785 0.32846 0.0
O79 O 0.89929 0.21991 0.27709 0.0
O80 O 0.95837 0.23185 0.2661 0.0
O81 O 0.90414 0.26946 0.22543 0.0
H82 H 0.87617 0.30569 0.32959 0.0
H83 H 0.82942 0.21053 0.25588 0.0
O84 O 0.96285 0.27938 0.21456 0.0
O85 O 0.99163 0.34124 0.26052 0.0
O86 O 0.93248 0.32588 0.27733 0.0
C87 C 0.96667 0.35137 0.26887 0.0
H88 H 0.10331 0.32478 0.20371 0.0
H89 H 0.7993 0.27001 0.33379 0.0
Co90 Co 0.11064 0.37049 0.77919 0.0
C91 C 0.06507 0.34074 0.84132 0.0
Co92 Co 0.04988 0.32402 0.76844 0.0
C93 C 0.19474 0.41316 0.77447 0.0
C94 C 0.1735 0.44013 0.81191 0.0
N95 N 0.16162 0.40942 0.7887 0.0
N96 N 0.22687 0.4451 0.78779 0.0
C97 C 0.21347 0.4621 0.81137 0.0
H98 H 0.19516 0.39298 0.75442 0.0
H99 H 0.1543 0.44607 0.8283 0.0
C100 C 0.09214 0.35152 0.70602 0.0
N101 N 0.99948 0.28459 0.75842 0.0
C102 C 0.98264 0.24747 0.76904 0.0
C103 C 0.97436 0.28479 0.73412 0.0
N104 N 0.94853 0.2243 0.7517 0.0
C105 C 0.94309 0.2477 0.72978 0.0
C106 C 0.06049 0.39876 0.77084 0.0
O107 O 0.12035 0.37416 0.7271 0.0
O108 O 0.05951 0.32815 0.7193 0.0
O109 O 0.03422 0.36314 0.76667 0.0
O110 O 0.09547 0.4077 0.77641 0.0
O111 O 0.03969 0.31926 0.81776 0.0
H112 H 0.9796 0.30975 0.71888 0.0
H113 H 0.99647 0.23702 0.78717 0.0
O114 O 0.09905 0.36597 0.83095 0.0
O115 O 0.12619 0.33329 0.7821 0.0
O116 O 0.06688 0.2863 0.77008 0.0
C117 C 0.10239 0.29739 0.77682 0.0
H118 H 0.23125 0.48825 0.82759 0.0
H119 H 0.91905 0.23836 0.71091 0.0
Co120 Co 0.27619 0.91403 0.78532 0.0
C121 C 0.29468 0.96623 0.8446 0.0
Co122 Co 0.29185 0.97358 0.77056 0.0
C123 C 0.23471 0.8295 0.78556 0.0
C124 C 0.28155 0.85565 0.82425 0.0
N125 N 0.26388 0.8643 0.79803 0.0
N126 N 0.23327 0.79957 0.80334 0.0
C127 C 0.2628 0.81602 0.82762 0.0
H128 H 0.21421 0.82627 0.76464 0.0
H129 H 0.30618 0.8769 0.84029 0.0
C130 C 0.27558 0.92471 0.71091 0.0
N131 N 0.30301 0.02286 0.75816 0.0
C132 C 0.28432 0.04139 0.77031 0.0
C133 C 0.32598 0.0449 0.73139 0.0
N134 N 0.29388 0.07358 0.75169 0.0
C135 C 0.32027 0.07603 0.72722 0.0
C136 C 0.35511 0.96204 0.77423 0.0
O137 O 0.27069 0.89916 0.73374 0.0
O138 O 0.28413 0.95844 0.722 0.0
O139 O 0.34623 0.98773 0.76648 0.0
O140 O 0.32869 0.92867 0.7834 0.0
O141 O 0.30005 0.9895 0.81956 0.0
H142 H 0.34393 0.03756 0.71461 0.0
H143 H 0.26196 0.02994 0.79073 0.0
O144 O 0.28278 0.93064 0.8362 0.0
O145 O 0.22344 0.89907 0.78751 0.0
O146 O 0.23723 0.95784 0.77416 0.0
C147 C 0.21215 0.92309 0.7817 0.0
H148 H 0.2704 0.80048 0.84646 0.0
H149 H 0.33336 0.09787 0.70687 0.0
Co150 Co 0.64889 0.74335 0.76124 0.0
C151 C 0.6815 0.73418 0.82456 0.0
Co152 Co 0.69573 0.72937 0.75188 0.0
C153 C 0.6049 0.78352 0.75614 0.0
C154 C 0.57873 0.73561 0.79167 0.0
N155 N 0.60918 0.75452 0.76943 0.0
N156 N 0.57291 0.78338 0.76917 0.0
C157 C 0.55641 0.75314 0.7915 0.0
H158 H 0.62491 0.80434 0.73727 0.0
H159 H 0.57344 0.71098 0.80747 0.0
C160 C 0.66427 0.73658 0.68841 0.0
N161 N 0.73617 0.71953 0.74386 0.0
C162 C 0.7727 0.74062 0.75746 0.0
C163 C 0.73772 0.69438 0.71957 0.0
N164 N 0.79723 0.73027 0.74215 0.0
C165 C 0.77528 0.70102 0.71835 0.0
C166 C 0.62206 0.66437 0.75589 0.0
O167 O 0.642 0.74303 0.70892 0.0
O168 O 0.68982 0.73066 0.70226 0.0
O169 O 0.65757 0.67412 0.7507 0.0
O170 O 0.61284 0.69033 0.76098 0.0
O171 O 0.70182 0.72783 0.80178 0.0
H172 H 0.7136 0.67393 0.70255 0.0
H173 H 0.78167 0.76481 0.7766 0.0
O174 O 0.65636 0.74252 0.81309 0.0
O175 O 0.68505 0.79661 0.76182 0.0
O176 O 0.73254 0.7845 0.75291 0.0
C177 C 0.72101 0.80891 0.75782 0.0
H178 H 0.53058 0.74482 0.8074 0.0
H179 H 0.78582 0.68627 0.70057 0.0
H180 H 0.33281 0.04219 0.86697 0.0
H181 H 0.34999 0.06948 0.92827 0.0
H182 H 0.29479 0.95397 0.97025 0.0
H183 H 0.27856 0.92616 0.90821 0.0
H184 H 0.30643 0.06567 0.98241 0.0
H185 H 0.3964 1.00287 0.02453 0.0
H186 H 0.38105 1.00041 0.97816 0.0
H187 H 0.34833 0.96637 1.01027 0.0
C188 C 0.32436 0.02238 0.88913 0.0
C189 C 0.30423 0.98185 0.88256 0.0
C190 C 0.3343 0.03816 0.92431 0.0
C191 C 0.32428 0.01397 0.95408 0.0
C192 C 0.30382 0.97338 0.94777 0.0
H193 H 0.29508 0.06724 0.17289 0.0
H194 H 0.29157 0.0554 0.10765 0.0
C195 C 0.2942 0.95745 0.9123 0.0
C196 C 0.33397 0.03169 0.9915 0.0
H197 H 0.37768 0.0328 0.07141 0.0
C198 C 0.32232 0.05865 1.0017 0.0
C199 C 0.35549 0.02341 1.01662 0.0
C200 C 0.37142 0.99701 1.00676 0.0
C201 C 0.33041 0.07649 0.03643 0.0
C202 C 0.34981 0.06641 0.06225 0.0
C203 C 0.36267 0.04048 0.05175 0.0
C204 C 0.35357 0.07934 0.10107 0.0
C205 C 0.31808 0.10607 0.045 0.0
C206 C 0.38974 0.09726 0.11945 0.0
C207 C 0.3918 0.10426 0.15716 0.0
C208 C 0.35764 0.09301 0.1769 0.0
C209 C 0.32193 0.07689 0.15818 0.0
C210 C 0.31989 0.07007 0.1208 0.0
H211 H 0.31726 0.12078 0.02019 0.0
H212 H 0.28829 0.09111 0.05629 0.0
H213 H 0.33798 0.12849 0.06512 0.0
H214 H 0.41611 0.10439 0.10485 0.0
H215 H 0.41951 0.11574 0.1711 0.0
H216 H 0.60819 0.67582 0.64907 0.0
H217 H 0.61732 0.6565 0.58762 0.0
H218 H 0.72308 0.76667 0.57835 0.0
H219 H 0.71434 0.78556 0.63983 0.0
H220 H 0.63179 0.68751 0.51571 0.0
H221 H 0.75914 0.68562 0.57414 0.0
H222 H 0.7233 0.68899 0.60184 0.0
H223 H 0.7609 0.73139 0.58055 0.0
C224 C 0.63221 0.69663 0.6331 0.0
C225 C 0.66017 0.73249 0.64878 0.0
C226 C 0.63774 0.68537 0.59822 0.0
C227 C 0.6714 0.70977 0.57879 0.0
C228 C 0.69727 0.74711 0.59312 0.0
H229 H 0.78566 0.71794 0.38271 0.0
H230 H 0.7673 0.72329 0.44498 0.0
C231 C 0.6919 0.7582 0.62796 0.0
C232 C 0.68168 0.69514 0.54543 0.0
H233 H 0.75235 0.67919 0.50983 0.0
C234 C 0.65785 0.68521 0.51448 0.0
C235 C 0.71549 0.69167 0.54403 0.0
C236 C 0.74101 0.69959 0.57699 0.0
C237 C 0.66808 0.67391 0.48163 0.0
C238 C 0.70271 0.67192 0.47992 0.0
C239 C 0.72579 0.6806 0.51121 0.0
C240 C 0.71752 0.66512 0.44501 0.0
C241 C 0.64274 0.66594 0.44855 0.0
C242 C 0.69705 0.62977 0.42509 0.0
C243 C 0.7081 0.62642 0.38958 0.0
C244 C 0.73962 0.65843 0.37365 0.0
C245 C 0.76174 0.69262 0.39467 0.0
C246 C 0.75101 0.69582 0.43011 0.0
H247 H 0.62032 0.67449 0.45308 0.0
H248 H 0.66073 0.68182 0.42509 0.0
H249 H 0.62767 0.63441 0.44139 0.0
H250 H 0.67137 0.60555 0.43626 0.0
H251 H 0.69 0.60012 0.3736 0.0
H252 H 0.92186 0.32555 0.16426 0.0
H253 H 0.94165 0.34079 0.10094 0.0
H254 H 0.95363 0.239 0.09057 0.0
H255 H 0.93461 0.2243 0.15374 0.0
H256 H 0.02168 0.30824 0.07581 0.0
H257 H 0.89554 0.29593 0.99927 0.0
H258 H 0.90821 0.32414 0.04105 0.0
H259 H 0.89009 0.2728 0.04196 0.0
C260 C 0.92664 0.30536 0.14777 0.0
C261 C 0.92585 0.27325 0.1635 0.0
C262 C 0.93839 0.3143 0.11171 0.0
C263 C 0.94925 0.29107 0.091 0.0
C264 C 0.94544 0.25734 0.106 0.0
H265 H 1.00252 0.27912 0.87006 0.0
H266 H 0.97788 0.27232 0.93133 0.0
C267 C 0.93401 0.24862 0.14191 0.0
C268 C 0.96883 0.30383 0.0555 0.0
H269 H 0.95464 0.31919 0.96783 0.0
C270 C 1.00711 0.31085 0.0522 0.0
C271 C 0.94986 0.30739 0.02484 0.0
C272 C 0.90856 0.29944 0.02664 0.0
C273 C 0.02651 0.32017 0.01888 0.0
C274 C 1.00733 0.32312 0.98803 0.0
C275 C 0.96942 0.31716 0.99156 0.0
C276 C 0.02421 0.32811 0.95117 0.0
C277 C 0.06668 0.3251 1.01661 0.0
C278 C 0.05905 0.36165 0.94186 0.0
C279 C 0.07361 0.36561 0.90648 0.0
C280 C 0.0533 0.33621 0.8799 0.0
C281 C 0.01889 0.30251 0.88971 0.0
C282 C 1.00458 0.29856 0.92479 0.0
H283 H 0.07444 0.31494 0.04123 0.0
H284 H 0.06889 0.30885 0.99261 0.0
H285 H 0.08838 0.35632 1.01365 0.0
H286 H 0.07451 0.38505 0.96169 0.0
H287 H 0.09995 0.39204 0.89967 0.0
H288 H 0.28018 0.98961 0.37543 0.0
H289 H 0.2712 0.96421 0.43592 0.0
H290 H 0.37489 0.06823 0.47285 0.0
H291 H 0.38402 0.09441 0.41171 0.0
H292 H 0.3202 0.94801 0.47493 0.0
H293 H 0.29423 0.05678 0.54854 0.0
H294 H 0.29283 0.0521 0.49974 0.0
H295 H 0.33872 0.07633 0.52348 0.0
C296 C 0.30108 1.00742 0.39635 0.0
C297 C 0.33288 0.04419 0.38861 0.0
C298 C 0.2959 0.99267 0.43101 0.0
C299 C 0.32223 0.01422 0.45906 0.0
C300 C 0.35386 0.05123 0.45175 0.0
H301 H 0.33028 0.92133 0.66921 0.0
H302 H 0.34193 0.93953 0.60554 0.0
C303 C 0.35907 0.06619 0.41682 0.0
C304 C 0.31621 0.99712 0.49553 0.0
H305 H 0.2947 1.0082 0.58318 0.0
C306 C 0.31481 0.96125 0.49867 0.0
C307 C 0.30874 0.01415 0.52642 0.0
C308 C 0.30835 0.05179 0.52454 0.0
C309 C 0.30581 0.94186 0.53167 0.0
C310 C 0.2984 0.95894 0.56254 0.0
C311 C 0.30027 0.99501 0.55949 0.0
C312 C 0.28809 0.94001 0.5983 0.0
C313 C 0.30318 0.90275 0.53296 0.0
C314 C 0.25337 0.93276 0.61512 0.0
C315 C 0.24666 0.92213 0.65134 0.0
C316 C 0.27437 0.91825 0.67141 0.0
C317 C 0.30774 0.92257 0.6539 0.0
C318 C 0.3146 0.93343 0.6176 0.0
H319 H 0.30015 0.88942 0.50544 0.0
H320 H 0.33014 0.90637 0.54559 0.0
H321 H 0.27813 0.88248 0.54953 0.0
H322 H 0.23252 0.93769 0.60088 0.0
H323 H 0.22136 0.92025 0.66456 0.0
H324 H 0.64398 0.74451 0.88346 0.0
H325 H 0.65273 0.73493 0.94753 0.0
H326 H 0.73811 0.70281 0.91723 0.0
H327 H 0.73049 0.71315 0.85411 0.0
H328 H 0.64119 0.66912 0.98108 0.0
H329 H 0.79591 0.78371 0.99593 0.0
H330 H 0.76629 0.78076 0.95776 0.0
H331 H 0.78808 0.75052 0.95873 0.0
C332 C 0.66492 0.73586 0.89059 0.0
C333 C 0.68674 0.72998 0.86362 0.0
C334 C 0.66981 0.73028 0.92715 0.0
C335 C 0.69667 0.71888 0.93728 0.0
C336 C 0.71805 0.71264 0.9103 0.0
H337 H 0.74963 0.64206 0.13856 0.0
H338 H 0.7403 0.65096 0.07435 0.0
C339 C 0.71339 0.71838 0.87405 0.0
C340 C 0.70175 0.71212 0.97575 0.0
H341 H 0.77045 0.73689 0.04237 0.0
C342 C 0.6694 0.68415 0.99454 0.0
C343 C 0.73861 0.73169 0.99336 0.0
C344 C 0.7741 0.76361 0.97553 0.0
C345 C 0.6731 0.6748 0.03017 0.0
C346 C 0.71002 0.69381 0.04735 0.0
C347 C 0.74231 0.72189 0.02877 0.0
C348 C 0.71504 0.68728 0.08571 0.0
C349 C 0.63764 0.64459 0.04936 0.0
C350 C 0.70416 0.70495 0.11302 0.0
C351 C 0.70974 0.70029 0.14935 0.0
C352 C 0.72621 0.67763 0.15928 0.0
C353 C 0.73687 0.65962 0.13181 0.0
C354 C 0.73157 0.66467 0.09521 0.0
H355 H 0.61214 0.62879 0.03081 0.0
H356 H 0.64396 0.62326 0.06188 0.0
H357 H 0.6299 0.65893 0.07148 0.0
H358 H 0.69159 0.72267 0.10617 0.0
H359 H 0.70101 0.7145 0.16969 0.0
H360 H 0.04019 0.32866 0.35947 0.0
H361 H 0.06624 0.34317 0.42076 0.0
H362 H 0.94986 0.28451 0.4632 0.0
H363 H 0.92304 0.27056 0.40099 0.0
H364 H 0.99883 0.35335 0.50103 0.0
H365 H 0.07047 0.26508 0.48492 0.0
H366 H 0.08503 0.30101 0.45102 0.0
H367 H 0.03517 0.26235 0.4527 0.0
C368 C 0.01986 0.31859 0.38168 0.0
C369 C 0.97938 0.29786 0.37522 0.0
C370 C 0.03497 0.32687 0.41684 0.0
C371 C 1.01013 0.3141 0.44662 0.0
C372 C 0.9696 0.29433 0.44054 0.0
H373 H 0.06645 0.2881 0.66272 0.0
H374 H 0.05102 0.2828 0.59839 0.0
C375 C 0.9543 0.2863 0.40505 0.0
C376 C 0.02702 0.3215 0.48384 0.0
H377 H 0.08913 0.3077 0.53677 0.0
C378 C 0.01846 0.34327 0.50895 0.0
C379 C 0.05249 0.30813 0.49423 0.0
C380 C 0.06104 0.28252 0.46943 0.0
C381 C 0.03476 0.35215 0.5441 0.0
C382 C 0.06115 0.33975 0.5541 0.0
C383 C 0.0696 0.31794 0.52892 0.0
C384 C 0.07639 0.34471 0.5918 0.0
C385 C 0.02251 0.37356 0.57055 0.0
C386 C 0.09781 0.38151 0.6093 0.0
C387 C 0.10694 0.38462 0.64643 0.0
C388 C 0.09488 0.35093 0.66624 0.0
C389 C 0.0763 0.31454 0.64795 0.0
C390 C 0.06725 0.31146 0.61119 0.0
H391 H 0.99595 0.37353 0.56116 0.0
H392 H 0.01675 0.36038 0.59759 0.0
H393 H 0.04626 0.40424 0.57361 0.0
H394 H 0.106 0.40766 0.59466 0.0
H395 H 0.12076 0.41293 0.66006 0.0
H396 H 0.45107 0.06896 0.33509 0.0
H397 H 0.51768 0.0819 0.32912 0.0
H398 H 0.49527 0.04387 0.21681 0.0
H399 H 0.42814 0.03133 0.2228 0.0
H400 H 0.55776 0.04447 0.30714 0.0
H401 H 0.57808 0.15853 0.21109 0.0
H402 H 0.53443 0.13271 0.23725 0.0
H403 H 0.54246 0.1093 0.19854 0.0
C404 C 0.45986 0.06175 0.30955 0.0
C405 C 0.43448 0.04882 0.27951 0.0
C406 C 0.49805 0.06941 0.30606 0.0
C407 C 0.51183 0.06473 0.27233 0.0
C408 C 0.48546 0.04834 0.24297 0.0
H409 H 0.76495 0.18928 0.23067 0.0
H410 H 0.69525 0.14263 0.22179 0.0
C411 C 0.44695 0.04053 0.24652 0.0
C412 C 0.55455 0.08162 0.26772 0.0
H413 H 0.63399 0.15917 0.23147 0.0
C414 C 0.57438 0.06909 0.29006 0.0
C415 C 0.57638 0.11392 0.24554 0.0
C416 C 0.55696 0.12974 0.22188 0.0
C417 C 0.61527 0.08886 0.29193 0.0
C418 C 0.63697 0.12235 0.27126 0.0
C419 C 0.61728 0.13353 0.24733 0.0
C420 C 0.67957 0.14846 0.27684 0.0
C421 C 0.63492 0.07432 0.31674 0.0
C422 C 0.69387 0.16746 0.31058 0.0
C423 C 0.73346 0.19418 0.31564 0.0
C424 C 0.75981 0.2026 0.28705 0.0
C425 C 0.74552 0.1832 0.25332 0.0
C426 C 0.70571 0.15663 0.24818 0.0
H427 H 0.61599 0.04285 0.32171 0.0
H428 H 0.66289 0.07919 0.30532 0.0
H429 H 0.64112 0.0903 0.34323 0.0
H430 H 0.6742 0.16222 0.33292 0.0
H431 H 0.74345 0.2082 0.34206 0.0
H432 H 0.62914 0.58338 0.32927 0.0
H433 H 0.57729 0.5154 0.33183 0.0
H434 H 0.56068 0.51193 0.21621 0.0
H435 H 0.61353 0.5796 0.21358 0.0
H436 H 0.49971 0.4635 0.30994 0.0
H437 H 0.60619 0.44099 0.22978 0.0
H438 H 0.61801 0.48767 0.24945 0.0
H439 H 0.58925 0.46989 0.20855 0.0
C440 C 0.61292 0.56871 0.30474 0.0
C441 C 0.62484 0.58673 0.2713 0.0
C442 C 0.58353 0.52972 0.30615 0.0
C443 C 0.56577 0.50829 0.27409 0.0
C444 C 0.57446 0.52772 0.2412 0.0
H445 H 0.40604 0.2536 0.278 0.0
H446 H 0.43138 0.32274 0.26761 0.0
C447 C 0.60418 0.56656 0.23976 0.0
C448 C 0.54363 0.46508 0.27451 0.0
H449 H 0.54928 0.38524 0.24711 0.0
C450 C 0.5102 0.44626 0.29589 0.0
C451 C 0.55786 0.4427 0.2567 0.0
C452 C 0.59495 0.46123 0.23508 0.0
C453 C 0.49098 0.40577 0.30034 0.0
C454 C 0.5053 0.38351 0.28253 0.0
C455 C 0.53818 0.40228 0.26055 0.0
C456 C 0.48904 0.34135 0.28867 0.0
C457 C 0.4566 0.38742 0.32531 0.0
C458 C 0.51321 0.3286 0.30305 0.0
C459 C 0.49905 0.28918 0.30849 0.0
C460 C 0.46025 0.26132 0.2997 0.0
C461 C 0.43609 0.27409 0.28493 0.0
C462 C 0.4504 0.31373 0.27939 0.0
H463 H 0.45427 0.40947 0.34264 0.0
H464 H 0.42946 0.37129 0.30891 0.0
H465 H 0.45866 0.36644 0.34305 0.0
H466 H 0.54322 0.34929 0.31016 0.0
H467 H 0.51881 0.2806 0.31925 0.0
H468 H 0.96696 0.39648 0.32466 0.0
H469 H 0.95074 0.44797 0.31975 0.0
H470 H 0.96197 0.44475 0.20379 0.0
H471 H 0.9787 0.39336 0.20872 0.0
H472 H 0.98293 0.52743 0.26117 0.0
H473 H 0.83795 0.39185 0.25086 0.0
H474 H 0.87556 0.3942 0.27979 0.0
H475 H 0.88051 0.39332 0.2316 0.0
C476 C 0.96837 0.40852 0.29838 0.0
C477 C 0.97468 0.39154 0.26711 0.0
C478 C 0.95889 0.43775 0.29558 0.0
C479 C 0.95513 0.45006 0.26144 0.0
C480 C 0.96525 0.43594 0.2304 0.0
H481 H 0.79522 0.5235 0.19404 0.0
H482 H 0.84075 0.49952 0.19767 0.0
C483 C 0.9751 0.40683 0.23324 0.0
C484 C 0.93252 0.47018 0.25789 0.0
H485 H 0.83891 0.45109 0.25022 0.0
C486 C 0.95148 0.51092 0.25865 0.0
C487 C 0.89151 0.44839 0.25474 0.0
C488 C 0.86988 0.4045 0.25416 0.0
C489 C 0.93023 0.53046 0.25608 0.0
C490 C 0.88911 0.50857 0.25316 0.0
C491 C 0.8704 0.46784 0.25241 0.0
C492 C 0.8645 0.52679 0.25003 0.0
C493 C 0.95188 0.57425 0.25583 0.0
C494 C 0.86276 0.55036 0.27822 0.0
C495 C 0.8364 0.56402 0.27632 0.0
C496 C 0.81105 0.554 0.24635 0.0
C497 C 0.81364 0.53114 0.21787 0.0
C498 C 0.83995 0.51766 0.21974 0.0
H499 H 0.98321 0.58625 0.24973 0.0
H500 H 0.93897 0.58473 0.23556 0.0
H501 H 0.94971 0.58583 0.2829 0.0
H502 H 0.88085 0.55714 0.30221 0.0
H503 H 0.83497 0.5813 0.29882 0.0
H504 H 0.04853 0.43407 0.82861 0.0
H505 H 0.06409 0.50197 0.83112 0.0
H506 H 0.07577 0.50637 0.71503 0.0
H507 H 0.06027 0.43835 0.71256 0.0
H508 H 0.14259 0.55352 0.79841 0.0
H509 H 0.02514 0.5769 0.74524 0.0
H510 H 0.01459 0.53274 0.76737 0.0
H511 H 0.03422 0.54144 0.72263 0.0
C512 C 0.05203 0.44884 0.80348 0.0
C513 C 0.05227 0.43084 0.77032 0.0
C514 C 0.06128 0.48772 0.80494 0.0
C515 C 0.07089 0.50915 0.77325 0.0
C516 C 0.06773 0.49018 0.73971 0.0
H517 H 0.19855 0.76032 0.74056 0.0
H518 H 0.15671 0.68955 0.73198 0.0
C519 C 0.05858 0.45124 0.73827 0.0
C520 C 0.092 0.55223 0.77612 0.0
H521 H 0.08542 0.63299 0.7603 0.0
C522 C 0.13003 0.57091 0.79023 0.0
C523 C 0.07583 0.57473 0.76466 0.0
C524 C 0.03513 0.55568 0.74919 0.0
C525 C 0.15237 0.61153 0.79341 0.0
C526 C 0.13584 0.63425 0.78323 0.0
C527 C 0.09795 0.61558 0.76841 0.0
C528 C 0.15756 0.67727 0.78856 0.0
C529 C 0.19384 0.62969 0.80701 0.0
C530 C 0.17085 0.69395 0.82328 0.0
C531 C 0.19495 0.73408 0.82811 0.0
C532 C 0.20582 0.75859 0.79842 0.0
C533 C 0.19069 0.74214 0.76391 0.0
C534 C 0.16682 0.70176 0.759 0.0
H535 H 0.20547 0.6096 0.80311 0.0
H536 H 0.2132 0.65703 0.79299 0.0
H537 H 0.19484 0.63656 0.83645 0.0
H538 H 0.16324 0.67578 0.84664 0.0
H539 H 0.20536 0.74596 0.85514 0.0
H540 H 0.39405 0.94896 0.82586 0.0
H541 H 0.44782 0.93686 0.81653 0.0
H542 H 0.45769 0.97301 0.70611 0.0
H543 H 0.40308 0.98495 0.71558 0.0
H544 H 0.44619 0.90083 0.70949 0.0
H545 H 0.56385 0.9931 0.80623 0.0
H546 H 0.5182 0.97012 0.82919 0.0
H547 H 0.52634 1.00392 0.79412 0.0
C548 C 0.40896 0.95615 0.80013 0.0
C549 C 0.39491 0.96844 0.77161 0.0
C550 C 0.43981 0.94926 0.79479 0.0
C551 C 0.45728 0.95439 0.76072 0.0
C552 C 0.44498 0.96925 0.73276 0.0
H553 H 0.61654 0.85916 0.75087 0.0
H554 H 0.59344 0.90523 0.74192 0.0
C555 C 0.4141 0.97648 0.73824 0.0
C556 C 0.48301 0.93776 0.7533 0.0
H557 H 0.55651 0.92922 0.79138 0.0
C558 C 0.47099 0.9078 0.72678 0.0
C559 C 0.51571 0.94696 0.77542 0.0
C560 C 0.53198 0.9806 0.80255 0.0
C561 C 0.48867 0.88486 0.72383 0.0
C562 C 0.51874 0.89154 0.74846 0.0
C563 C 0.53296 0.92354 0.77292 0.0
C564 C 0.53297 0.86352 0.75162 0.0
C565 C 0.4741 0.85284 0.69505 0.0
C566 C 0.50677 0.82486 0.76024 0.0
C567 C 0.51982 0.79857 0.76527 0.0
C568 C 0.55949 0.81031 0.76206 0.0
C569 C 0.58575 0.84901 0.75311 0.0
C570 C 0.57263 0.87544 0.74818 0.0
H571 H 0.46163 0.85977 0.67149 0.0
H572 H 0.49774 0.8477 0.68541 0.0
H573 H 0.4507 0.82555 0.70646 0.0
H574 H 0.47617 0.81512 0.7638 0.0
H575 H 0.49874 0.769 0.77181 0.0
H576 H 0.28695 0.51926 0.79164 0.0
H577 H 0.35516 0.542 0.77869 0.0
H578 H 0.32707 0.42483 0.7502 0.0
H579 H 0.25846 0.40154 0.76406 0.0
H580 H 0.3925 0.46408 0.79585 0.0
H581 H 0.4053 0.5539 0.67955 0.0
H582 H 0.38492 0.56524 0.71827 0.0
H583 H 0.35884 0.51764 0.69677 0.0
C584 C 0.29514 0.4982 0.78276 0.0
C585 C 0.26707 0.45852 0.77892 0.0
C586 C 0.33418 0.51135 0.77494 0.0
C587 C 0.34619 0.48525 0.76287 0.0
C588 C 0.3184 0.44555 0.75914 0.0
H589 H 0.59038 0.61289 0.69882 0.0
H590 H 0.52344 0.55758 0.69662 0.0
C591 C 0.27916 0.43233 0.76687 0.0
C592 C 0.38805 0.49976 0.75553 0.0
H593 H 0.4652 0.57015 0.71032 0.0
C594 C 0.40834 0.48674 0.77664 0.0
C595 C 0.40867 0.52864 0.72987 0.0
C596 C 0.38823 0.54187 0.70455 0.0
C597 C 0.44906 0.50396 0.77469 0.0
C598 C 0.47007 0.5354 0.75145 0.0
C599 C 0.44937 0.5463 0.7284 0.0
C600 C 0.51316 0.56086 0.75392 0.0
C601 C 0.4692 0.48886 0.79819 0.0
C602 C 0.53031 0.57999 0.78702 0.0
C603 C 0.56848 0.61113 0.78827 0.0
C604 C 0.59033 0.62377 0.75651 0.0
C605 C 0.5745 0.60284 0.72384 0.0
C606 C 0.5361 0.57159 0.72254 0.0
H607 H 0.45015 0.45728 0.80257 0.0
H608 H 0.49691 0.49377 0.78608 0.0
H609 H 0.47568 0.50403 0.82511 0.0
H610 H 0.51317 0.57323 0.81142 0.0
H611 H 0.5797 0.62763 0.81353 0.0
H612 H 0.2266 0.0621 0.2536 0.0
H613 H 0.1855 0.09146 0.24578 0.0
H614 H 0.26577 0.19083 0.31168 0.0
H615 H 0.30719 0.16241 0.31876 0.0
H616 H 0.14803 0.11725 0.29226 0.0
H617 H 0.26335 0.24068 0.21845 0.0
H618 H 0.26622 0.19798 0.22814 0.0
H619 H 0.2796 0.23598 0.26223 0.0
C620 C 0.23516 0.08999 0.26672 0.0
C621 C 0.27034 0.11018 0.28638 0.0
C622 C 0.21176 0.10677 0.26217 0.0
C623 C 0.22318 0.14383 0.27732 0.0
C624 C 0.25701 0.16278 0.29882 0.0
H625 H 0.08814 0.25835 0.30938 0.0
H626 H 0.12274 0.22229 0.31527 0.0
C627 C 0.28052 0.14633 0.30304 0.0
C628 C 0.20059 0.16348 0.27008 0.0
H629 H 0.21003 0.24775 0.23897 0.0
C630 C 0.16144 0.14564 0.28035 0.0
C631 C 0.21789 0.20018 0.25382 0.0
C632 C 0.25895 0.21964 0.23966 0.0
C633 C 0.13951 0.16415 0.27597 0.0
C634 C 0.15757 0.20191 0.26176 0.0
C635 C 0.19634 0.2191 0.25037 0.0
C636 C 0.13694 0.2242 0.2584 0.0
C637 C 0.09713 0.14282 0.28621 0.0
C638 C 0.13485 0.23881 0.22484 0.0
C639 C 0.11568 0.26001 0.22157 0.0
C640 C 0.09809 0.26692 0.25181 0.0
C641 C 0.10092 0.25297 0.28553 0.0
C642 C 0.12043 0.23211 0.28886 0.0
H643 H 0.08506 0.11085 0.28561 0.0
H644 H 0.09414 0.15183 0.31421 0.0
H645 H 0.07944 0.14952 0.26775 0.0
H646 H 0.1476 0.23332 0.201 0.0
H647 H 0.11365 0.27 0.19517 0.0
H648 H 0.86692 0.69446 0.25487 0.0
H649 H 0.9372 0.73705 0.25672 0.0
H650 H 0.92249 0.83638 0.27585 0.0
H651 H 0.85143 0.7937 0.27371 0.0
H652 H 0.97902 0.84735 0.2229 0.0
H653 H 1.00251 0.78901 0.3487 0.0
H654 H 0.97457 0.7519 0.31503 0.0
H655 H 0.95522 0.78044 0.3349 0.0
C656 C 0.87844 0.72535 0.2595 0.0
C657 C 0.85348 0.74065 0.26439 0.0
C658 C 0.91871 0.74963 0.26075 0.0
C659 C 0.93504 0.78973 0.26714 0.0
C660 C 0.91038 0.8054 0.27121 0.0
H661 H 0.1825 0.93932 0.31675 0.0
H662 H 0.11146 0.90473 0.31903 0.0
C663 C 0.86985 0.78102 0.26998 0.0
C664 C 0.97794 0.81494 0.26898 0.0
H665 H 0.05879 0.82679 0.31293 0.0
C666 C 0.9965 0.84319 0.24279 0.0
C667 C 1.00063 0.80979 0.29526 0.0
C668 C 0.98224 0.78141 0.3253 0.0
C669 C 0.03728 0.86541 0.24133 0.0
C670 C 0.05999 0.85868 0.26636 0.0
C671 C 0.04136 0.83151 0.29342 0.0
C672 C 0.10311 0.87939 0.26488 0.0
C673 C 0.05567 0.89596 0.21307 0.0
C674 C 0.12204 0.8759 0.23401 0.0
C675 C 0.16269 0.89582 0.23254 0.0
C676 C 0.18525 0.9195 0.26202 0.0
C677 C 0.1661 0.92193 0.29333 0.0
C678 C 0.12547 0.90203 0.29475 0.0
H679 H 0.03512 0.90499 0.20313 0.0
H680 H 0.0822 0.92206 0.22393 0.0
H681 H 0.06415 0.88389 0.18957 0.0
H682 H 0.10536 0.85784 0.21096 0.0
H683 H 0.17633 0.8934 0.20794 0.0
H684 H 0.84843 0.15048 0.2835 0.0
H685 H 0.82235 0.08059 0.28208 0.0
H686 H 0.93623 0.09772 0.25819 0.0
H687 H 0.96305 0.1685 0.25988 0.0
H688 H 0.8236 0.03429 0.22332 0.0
H689 H 0.89928 0.02497 0.34584 0.0
H690 H 0.89579 0.06748 0.33673 0.0
H691 H 0.92928 0.05807 0.31185 0.0
C692 C 0.86816 0.13961 0.27811 0.0
C693 C 0.90792 0.16515 0.27187 0.0
C694 C 0.8531 0.09955 0.27722 0.0
C695 C 0.87735 0.084 0.27024 0.0
C696 C 0.91712 0.10923 0.26407 0.0
H697 H 0.77702 0.8338 0.2249 0.0
H698 H 0.81423 0.90445 0.22002 0.0
C699 C 0.93235 0.14959 0.26493 0.0
C700 C 0.86017 0.04123 0.26903 0.0
H701 H 0.85599 0.96614 0.3152 0.0
C702 C 0.83092 0.01932 0.24315 0.0
C703 C 0.86959 0.02194 0.29519 0.0
C704 C 0.89999 0.04414 0.32421 0.0
C705 C 0.81019 0.97856 0.24319 0.0
C706 C 0.81935 0.95924 0.26955 0.0
C707 C 0.84915 0.98112 0.29499 0.0
C708 C 0.79703 0.9164 0.27231 0.0
C709 C 0.77764 0.95656 0.21594 0.0
C710 C 0.77541 0.89972 0.30349 0.0
C711 C 0.75434 0.85936 0.30649 0.0
C712 C 0.75468 0.83485 0.27842 0.0
C713 C 0.77633 0.85176 0.24713 0.0
C714 C 0.79739 0.89214 0.24416 0.0
H715 H 0.76893 0.97582 0.20272 0.0
H716 H 0.78741 0.9433 0.19454 0.0
H717 H 0.75171 0.9328 0.22903 0.0
H718 H 0.77484 0.91798 0.32557 0.0
H719 H 0.73856 0.84747 0.33118 0.0
H720 H 0.16984 0.3094 0.8069 0.0
H721 H 0.19852 0.26784 0.80177 0.0
H722 H 0.09823 0.18209 0.74077 0.0
H723 H 0.06857 0.22339 0.74672 0.0
H724 H 0.1245 0.14891 0.78904 0.0
H725 H 0.24757 0.25712 0.70926 0.0
H726 H 0.24343 0.27724 0.752 0.0
H727 H 0.20502 0.26102 0.7187 0.0
C728 C 0.15365 0.28156 0.7926 0.0
C729 C 0.11712 0.26984 0.77683 0.0
C730 C 0.17025 0.25795 0.7895 0.0
C731 C 0.15108 0.22242 0.76996 0.0
C732 C 0.11372 0.20965 0.75562 0.0
H733 H 0.2782 0.10708 0.69642 0.0
H734 H 0.24128 0.14118 0.69952 0.0
C735 C 0.09678 0.23318 0.75909 0.0
C736 C 0.17069 0.1993 0.76413 0.0
H737 H 0.25513 0.20617 0.7335 0.0
C738 C 0.1529 0.16125 0.77661 0.0
C739 C 0.2074 0.21514 0.7472 0.0
C740 C 0.22678 0.25471 0.73067 0.0
C741 C 0.17151 0.13912 0.77383 0.0
C742 C 0.20933 0.15594 0.75901 0.0
C743 C 0.22644 0.19348 0.74538 0.0
C744 C 0.23179 0.13524 0.75733 0.0
C745 C 0.15021 0.09783 0.78641 0.0
C746 C 0.23958 0.12136 0.78889 0.0
C747 C 0.26054 0.10173 0.78711 0.0
C748 C 0.27475 0.09623 0.75386 0.0
C749 C 0.26801 0.11124 0.72248 0.0
C750 C 0.24667 0.13049 0.7242 0.0
H751 H 0.11819 0.0857 0.78599 0.0
H752 H 0.15709 0.07871 0.76925 0.0
H753 H 0.15909 0.0973 0.81472 0.0
H754 H 0.22955 0.12578 0.81495 0.0
H755 H 0.26577 0.09092 0.81177 0.0
H756 H 0.17258 0.95321 0.74691 0.0
H757 H 0.10166 0.92374 0.74122 0.0
H758 H 0.08605 0.83268 0.81197 0.0
H759 H 0.15635 0.86104 0.81664 0.0
H760 H 0.04408 0.8029 0.75244 0.0
H761 H 0.019 0.91968 0.8075 0.0
H762 H 0.05322 0.93482 0.77114 0.0
H763 H 0.06472 0.92093 0.81317 0.0
C764 C 0.15392 0.92733 0.76175 0.0
C765 C 0.16997 0.90935 0.78211 0.0
C766 C 0.1134 0.91057 0.7586 0.0
C767 C 0.08841 0.87607 0.77638 0.0
C768 C 0.10463 0.85917 0.7979 0.0
H769 H 0.83816 0.766 0.80344 0.0
H770 H 0.90906 0.80153 0.81107 0.0
C771 C 0.14487 0.87549 0.8006 0.0
C772 C 0.04551 0.85557 0.77066 0.0
H773 H 0.965 0.86528 0.77859 0.0
C774 C 0.02681 0.81657 0.75827 0.0
C775 C 0.02288 0.87323 0.77855 0.0
C776 C 0.04087 0.91434 0.79366 0.0
C777 C 0.98627 0.7947 0.75371 0.0
C778 C 0.96371 0.81262 0.76062 0.0
C779 C 0.98233 0.85163 0.77302 0.0
C780 C 0.9207 0.79113 0.75579 0.0
C781 C 0.968 0.75227 0.74254 0.0
C782 C 0.90361 0.77365 0.72216 0.0
C783 C 0.86313 0.75298 0.71789 0.0
C784 C 0.8389 0.74996 0.747 0.0
C785 C 0.85608 0.76793 0.78051 0.0
C786 C 0.89656 0.78826 0.78488 0.0
H787 H 0.98744 0.74054 0.74873 0.0
H788 H 0.93985 0.7345 0.75636 0.0
H789 H 0.96251 0.74892 0.71287 0.0
H790 H 0.92159 0.77632 0.69905 0.0
H791 H 0.85083 0.74023 0.69153 0.0
H792 H 0.93523 0.17913 0.80928 0.0
H793 H 0.89969 0.10792 0.80933 0.0
H794 H 0.87828 0.10406 0.69443 0.0
H795 H 0.91254 0.17506 0.69468 0.0
H796 H 0.8152 0.0542 0.72595 0.0
H797 H 0.93477 0.0342 0.77616 0.0
H798 H 0.92472 0.06356 0.80709 0.0
H799 H 0.9426 0.08074 0.76254 0.0
C800 C 0.92291 0.16294 0.78411 0.0
C801 C 0.9265 0.18253 0.75203 0.0
C802 C 0.90296 0.12231 0.78405 0.0
C803 C 0.88708 0.10054 0.75171 0.0
C804 C 0.8904 0.12016 0.71971 0.0
H805 H 0.7948 0.84851 0.72998 0.0
H806 H 0.83671 0.91942 0.72704 0.0
C807 C 0.90977 0.16073 0.71989 0.0
C808 C 0.86545 0.05734 0.75137 0.0
H809 H 0.87074 0.97819 0.77691 0.0
C810 C 0.82755 0.03764 0.73682 0.0
C811 C 0.88174 0.03554 0.76485 0.0
C812 C 0.92334 0.0546 0.77816 0.0
C813 C 0.80514 0.99697 0.73626 0.0
C814 C 0.82046 0.97531 0.75193 0.0
C815 C 0.85879 0.99483 0.76545 0.0
C816 C 0.79658 0.93255 0.75537 0.0
C817 C 0.76541 0.97771 0.71842 0.0
C818 C 0.76085 0.91652 0.77329 0.0
C819 C 0.73682 0.87636 0.7745 0.0
C820 C 0.74838 0.85125 0.75858 0.0
C821 C 0.78512 0.8672 0.74234 0.0
C822 C 0.80901 0.90763 0.74064 0.0
H823 H 0.7636 0.99647 0.69772 0.0
H824 H 0.75809 0.94938 0.70521 0.0
H825 H 0.74319 0.97256 0.73922 0.0
H826 H 0.75123 0.93513 0.78595 0.0
H827 H 0.70895 0.86497 0.78775 0.0
loop_
_geom_bond_atom_site_label_1
_geom_bond_atom_site_label_2
_geom_bond_distance
_geom_bond_site_symmetry_2
_ccdc_geom_bond_type
Co0 N5 2.057 . S
Co0 O17 2.021 . S
Co0 O20 2.062 . S
Co0 O24 2.117 . S
Co0 O25 2.020 . S
C1 O21 1.259 . S
C1 O24 1.258 . S
Co2 N11 2.057 . S
Co2 O18 2.117 . S
Co2 O19 2.020 . S
Co2 O21 2.021 . S
Co2 O26 2.062 . S
C3 N5 1.316 1_565 S
C3 N6 1.347 . S
C3 H8 0.931 . S
C4 N5 1.375 1_565 S
C4 C7 1.350 . S
C4 H9 0.930 . S
N5 Co0 2.057 . S
N5 C3 1.316 1_545 S
N5 C4 1.375 1_545 S
N6 C3 1.347 . S
N6 C7 1.373 . S
C7 C4 1.350 . S
C7 N6 1.373 . S
C7 H28 0.931 . S
H8 C3 0.931 . S
H9 C4 0.930 . S
C10 O17 1.259 . S
C10 O18 1.258 . S
N11 Co2 2.057 . S
N11 C12 1.316 . S
N11 C13 1.375 . S
C12 N11 1.316 . S
C12 N14 1.347 . S
C12 H23 0.931 . S
C13 N11 1.375 . S
C13 C15 1.350 . S
C13 H22 0.930 . S
N14 C12 1.347 . S
N14 C15 1.373 . S
C15 C13 1.350 . S
C15 N14 1.373 . S
C15 H29 0.931 . S
C16 O19 1.256 . S
C16 O20 1.255 . S
O17 Co0 2.021 . S
O17 C10 1.259 . S
O18 Co2 2.117 . S
O18 C10 1.258 . S
O19 Co2 2.020 . S
O19 C16 1.256 . S
O20 Co0 2.062 . S
O20 C16 1.255 . S
O21 C1 1.259 . S
O21 Co2 2.021 . S
H22 C13 0.930 . S
H23 C12 0.931 . S
O24 Co0 2.117 . S
O24 C1 1.258 . S
O25 Co0 2.020 . S
O25 C27 1.256 . S
O26 Co2 2.062 . S
O26 C27 1.255 . S
C27 O25 1.256 . S
C27 O26 1.255 . S
H28 C7 0.931 . S
H29 C15 0.931 . S
Co30 N35 2.057 . S
Co30 O47 2.021 . S
Co30 O50 2.062 . S
Co30 O54 2.117 . S
Co30 O55 2.020 . S
C31 O51 1.259 . S
C31 O54 1.258 . S
Co32 N41 2.057 . S
Co32 O48 2.117 . S
Co32 O49 2.020 . S
Co32 O51 2.021 . S
Co32 O56 2.062 . S
C33 N35 1.316 . S
C33 N36 1.347 . S
C33 H38 0.931 . S
C34 N35 1.375 . S
C34 C37 1.350 . S
C34 H39 0.930 . S
N35 Co30 2.057 . S
N35 C33 1.316 . S
N35 C34 1.375 . S
N36 C33 1.347 . S
N36 C37 1.373 . S
C37 C34 1.350 . S
C37 N36 1.373 . S
C37 H58 0.931 . S
H38 C33 0.931 . S
H39 C34 0.930 . S
C40 O47 1.259 . S
C40 O48 1.258 . S
N41 Co32 2.057 . S
N41 C42 1.316 . S
N41 C43 1.375 . S
C42 N41 1.316 . S
C42 N44 1.347 . S
C42 H53 0.931 . S
C43 N41 1.375 . S
C43 C45 1.350 . S
C43 H52 0.930 . S
N44 C42 1.347 . S
N44 C45 1.373 . S
C45 C43 1.350 . S
C45 N44 1.373 . S
C45 H59 0.931 . S
C46 O49 1.256 . S
C46 O50 1.255 . S
O47 Co30 2.021 . S
O47 C40 1.259 . S
O48 Co32 2.117 . S
O48 C40 1.258 . S
O49 Co32 2.020 . S
O49 C46 1.256 . S
O50 Co30 2.062 . S
O50 C46 1.255 . S
O51 C31 1.259 . S
O51 Co32 2.021 . S
H52 C43 0.930 . S
H53 C42 0.931 . S
O54 Co30 2.117 . S
O54 C31 1.258 . S
O55 Co30 2.020 . S
O55 C57 1.256 . S
O56 Co32 2.062 . S
O56 C57 1.255 . S
C57 O55 1.256 . S
C57 O56 1.255 . S
H58 C37 0.931 . S
H59 C45 0.931 . S
Co60 N65 2.057 . S
Co60 O77 2.021 . S
Co60 O80 2.062 . S
Co60 O84 2.117 . S
Co60 O85 2.020 . S
C61 O81 1.259 . S
C61 O84 1.258 . S
Co62 N71 2.057 . S
Co62 O78 2.117 . S
Co62 O79 2.020 . S
Co62 O81 2.021 . S
Co62 O86 2.062 . S
C63 N65 1.316 1_455 S
C63 N66 1.347 . S
C63 H68 0.931 . S
C64 N65 1.375 1_455 S
C64 C67 1.350 . S
C64 H69 0.930 . S
N65 Co60 2.057 . S
N65 C63 1.316 1_655 S
N65 C64 1.375 1_655 S
N66 C63 1.347 . S
N66 C67 1.373 . S
C67 C64 1.350 . S
C67 N66 1.373 . S
C67 H88 0.931 . S
H68 C63 0.931 . S
H69 C64 0.930 . S
C70 O77 1.259 . S
C70 O78 1.258 . S
N71 Co62 2.057 . S
N71 C72 1.316 . S
N71 C73 1.375 . S
C72 N71 1.316 . S
C72 N74 1.347 . S
C72 H83 0.931 . S
C73 N71 1.375 . S
C73 C75 1.350 . S
C73 H82 0.930 . S
N74 C72 1.347 . S
N74 C75 1.373 . S
C75 C73 1.350 . S
C75 N74 1.373 . S
C75 H89 0.931 . S
C76 O79 1.256 . S
C76 O80 1.255 . S
O77 Co60 2.021 . S
O77 C70 1.259 . S
O78 Co62 2.117 . S
O78 C70 1.258 . S
O79 Co62 2.020 . S
O79 C76 1.256 . S
O80 Co60 2.062 . S
O80 C76 1.255 . S
O81 C61 1.259 . S
O81 Co62 2.021 . S
H82 C73 0.930 . S
H83 C72 0.931 . S
O84 Co60 2.117 . S
O84 C61 1.258 . S
O85 Co60 2.020 . S
O85 C87 1.256 . S
O86 Co62 2.062 . S
O86 C87 1.255 . S
C87 O85 1.256 . S
C87 O86 1.255 . S
H88 C67 0.931 . S
H89 C75 0.931 . S
Co90 N95 2.057 . S
Co90 O107 2.021 . S
Co90 O110 2.062 . S
Co90 O114 2.117 . S
Co90 O115 2.020 . S
C91 O111 1.259 . S
C91 O114 1.258 . S
Co92 N101 2.057 . S
Co92 O108 2.117 . S
Co92 O109 2.020 . S
Co92 O111 2.021 . S
Co92 O116 2.062 . S
C93 N95 1.316 . S
C93 N96 1.347 . S
C93 H98 0.931 . S
C94 N95 1.375 . S
C94 C97 1.350 . S
C94 H99 0.930 . S
N95 Co90 2.057 . S
N95 C93 1.316 . S
N95 C94 1.375 . S
N96 C93 1.347 . S
N96 C97 1.373 . S
C97 C94 1.350 . S
C97 N96 1.373 . S
C97 H118 0.931 . S
H98 C93 0.931 . S
H99 C94 0.930 . S
C100 O107 1.259 . S
C100 O108 1.258 . S
N101 Co92 2.057 . S
N101 C102 1.316 1_455 S
N101 C103 1.375 1_455 S
C102 N101 1.316 1_655 S
C102 N104 1.347 . S
C102 H113 0.931 . S
C103 N101 1.375 1_655 S
C103 C105 1.350 . S
C103 H112 0.930 . S
N104 C102 1.347 . S
N104 C105 1.373 . S
C105 C103 1.350 . S
C105 N104 1.373 . S
C105 H119 0.931 . S
C106 O109 1.256 . S
C106 O110 1.255 . S
O107 Co90 2.021 . S
O107 C100 1.259 . S
O108 Co92 2.117 . S
O108 C100 1.258 . S
O109 Co92 2.020 . S
O109 C106 1.256 . S
O110 Co90 2.062 . S
O110 C106 1.255 . S
O111 C91 1.259 . S
O111 Co92 2.021 . S
H112 C103 0.930 . S
H113 C102 0.931 . S
O114 Co90 2.117 . S
O114 C91 1.258 . S
O115 Co90 2.020 . S
O115 C117 1.256 . S
O116 Co92 2.062 . S
O116 C117 1.255 . S
C117 O115 1.256 . S
C117 O116 1.255 . S
H118 C97 0.931 . S
H119 C105 0.931 . S
Co120 N125 2.057 . S
Co120 O137 2.021 . S
Co120 O140 2.062 . S
Co120 O144 2.117 . S
Co120 O145 2.020 . S
C121 O141 1.259 . S
C121 O144 1.258 . S
Co122 N131 2.057 . S
Co122 O138 2.117 . S
Co122 O139 2.020 . S
Co122 O141 2.021 . S
Co122 O146 2.062 . S
C123 N125 1.316 . S
C123 N126 1.347 . S
C123 H128 0.931 . S
C124 N125 1.375 . S
C124 C127 1.350 . S
C124 H129 0.930 . S
N125 Co120 2.057 . S
N125 C123 1.316 . S
N125 C124 1.375 . S
N126 C123 1.347 . S
N126 C127 1.373 . S
C127 C124 1.350 . S
C127 N126 1.373 . S
C127 H148 0.931 . S
H128 C123 0.931 . S
H129 C124 0.930 . S
C130 O137 1.259 . S
C130 O138 1.258 . S
N131 Co122 2.057 . S
N131 C132 1.316 1_565 S
N131 C133 1.375 1_565 S
C132 N131 1.316 1_545 S
C132 N134 1.347 . S
C132 H143 0.931 . S
C133 N131 1.375 1_545 S
C133 C135 1.350 . S
C133 H142 0.937 . S
N134 C132 1.347 . S
N134 C135 1.373 . S
C135 C133 1.350 . S
C135 N134 1.373 . S
C135 H149 0.931 . S
C136 O139 1.256 . S
C136 O140 1.255 . S
O137 Co120 2.021 . S
O137 C130 1.259 . S
O138 Co122 2.117 . S
O138 C130 1.258 . S
O139 Co122 2.020 . S
O139 C136 1.256 . S
O140 Co120 2.062 . S
O140 C136 1.255 . S
O141 C121 1.259 . S
O141 Co122 2.021 . S
H142 C133 0.937 . S
H143 C132 0.931 . S
O144 Co120 2.117 . S
O144 C121 1.258 . S
O145 Co120 2.020 . S
O145 C147 1.256 . S
O146 Co122 2.062 . S
O146 C147 1.255 . S
C147 O145 1.256 . S
C147 O146 1.255 . S
H148 C127 0.931 . S
H149 C135 0.931 . S
Co150 N155 2.057 . S
Co150 O167 2.021 . S
Co150 O170 2.062 . S
Co150 O174 2.117 . S
Co150 O175 2.020 . S
C151 O171 1.259 . S
C151 O174 1.258 . S
Co152 N161 2.057 . S
Co152 O168 2.117 . S
Co152 O169 2.020 . S
Co152 O171 2.021 . S
Co152 O176 2.062 . S
C153 N155 1.316 . S
C153 N156 1.347 . S
C153 H158 0.931 . S
C154 N155 1.375 . S
C154 C157 1.350 . S
C154 H159 0.930 . S
N155 Co150 2.057 . S
N155 C153 1.316 . S
N155 C154 1.375 . S
N156 C153 1.347 . S
N156 C157 1.373 . S
C157 C154 1.350 . S
C157 N156 1.373 . S
C157 H178 0.931 . S
H158 C153 0.931 . S
H159 C154 0.930 . S
C160 O167 1.259 . S
C160 O168 1.258 . S
N161 Co152 2.057 . S
N161 C162 1.316 . S
N161 C163 1.375 . S
C162 N161 1.316 . S
C162 N164 1.347 . S
C162 H173 0.931 . S
C163 N161 1.375 . S
C163 C165 1.350 . S
C163 H172 0.930 . S
N164 C162 1.347 . S
N164 C165 1.373 . S
C165 C163 1.350 . S
C165 N164 1.373 . S
C165 H179 0.931 . S
C166 O169 1.256 . S
C166 O170 1.255 . S
O167 Co150 2.021 . S
O167 C160 1.259 . S
O168 Co152 2.117 . S
O168 C160 1.258 . S
O169 Co152 2.020 . S
O169 C166 1.256 . S
O170 Co150 2.062 . S
O170 C166 1.255 . S
O171 C151 1.259 . S
O171 Co152 2.021 . S
H172 C163 0.930 . S
H173 C162 0.931 . S
O174 Co150 2.117 . S
O174 C151 1.258 . S
O175 Co150 2.020 . S
O175 C177 1.256 . S
O176 Co152 2.062 . S
O176 C177 1.255 . S
C177 O175 1.256 . S
C177 O176 1.255 . S
H178 C157 0.931 . S
H179 C165 0.931 . S
H180 C188 0.929 . S
H181 C190 0.930 . S
H182 C192 0.930 . S
H183 C195 0.929 . S
H184 C198 0.930 . S
H185 C200 0.960 1_554 S
H186 C200 0.960 . S
H187 C200 0.960 . S
C188 H180 0.929 . S
C188 C189 1.377 . S
C188 C190 1.384 . S
C189 C188 1.377 . S
C189 C195 1.390 . S
C190 H181 0.930 . S
C190 C188 1.384 . S
C190 C191 1.372 . S
C191 C190 1.372 . S
C191 C192 1.400 . S
C191 C196 1.490 . S
C192 H182 0.930 . S
C192 C191 1.400 . S
C192 C195 1.386 . S
H193 C209 0.930 . S
H194 C210 0.931 . S
C195 H183 0.929 . S
C195 C189 1.390 . S
C195 C192 1.386 . S
C196 C191 1.490 . S
C196 C198 1.395 1_565 S
C196 C199 1.403 . S
H197 C203 0.930 . S
C198 H184 0.930 . S
C198 C196 1.395 1_545 S
C198 C201 1.427 . S
C199 C196 1.403 . S
C199 C200 1.524 . S
C199 C203 1.400 1_556 S
C200 H185 0.960 1_556 S
C200 H186 0.960 . S
C200 H187 0.960 . S
C200 C199 1.524 . S
C201 C198 1.427 . S
C201 C202 1.368 1_556 S
C201 C205 1.497 . S
C202 C201 1.368 1_554 S
C202 C203 1.385 1_545 S
C202 C204 1.478 . S
C203 H197 0.930 . S
C203 C199 1.400 1_554 S
C203 C202 1.385 1_565 S
C204 C202 1.478 . S
C204 C206 1.381 . S
C204 C210 1.383 . S
C205 C201 1.497 . S
C205 H211 0.959 . S
C205 H212 0.961 1_556 S
C205 H213 0.960 1_556 S
C206 C204 1.381 . S
C206 C207 1.394 . S
C206 H214 0.930 . S
C207 C206 1.394 . S
C207 C208 1.383 . S
C207 H215 0.929 . S
C208 C207 1.383 . S
C208 C209 1.377 . S
C209 H193 0.930 . S
C209 C208 1.377 . S
C209 C210 1.379 . S
C210 H194 0.931 . S
C210 C204 1.383 . S
C210 C209 1.379 . S
H211 C205 0.959 . S
H212 C205 0.961 1_554 S
H213 C205 0.960 1_554 S
H214 C206 0.930 . S
H215 C207 0.929 . S
H216 C224 0.929 . S
H217 C226 0.930 . S
H218 C228 0.930 . S
H219 C231 0.929 . S
H220 C234 0.930 . S
H221 C236 0.960 . S
H222 C236 0.960 . S
H223 C236 0.960 . S
C224 H216 0.929 . S
C224 C225 1.377 . S
C224 C226 1.384 . S
C225 C224 1.377 . S
C225 C231 1.390 . S
C226 H217 0.930 . S
C226 C224 1.384 . S
C226 C227 1.372 . S
C227 C226 1.372 . S
C227 C228 1.400 . S
C227 C232 1.490 . S
C228 H218 0.930 . S
C228 C227 1.400 . S
C228 C231 1.386 . S
H229 C245 0.930 . S
H230 C246 0.931 . S
C231 H219 0.929 . S
C231 C225 1.390 . S
C231 C228 1.386 . S
C232 C227 1.490 . S
C232 C234 1.395 . S
C232 C235 1.403 . S
H233 C239 0.930 . S
C234 H220 0.930 . S
C234 C232 1.395 . S
C234 C237 1.403 . S
C235 C232 1.403 . S
C235 C236 1.524 . S
C235 C239 1.400 . S
C236 H221 0.960 . S
C236 H222 0.960 . S
C236 H223 0.960 . S
C236 C235 1.524 . S
C237 C234 1.403 . S
C237 C238 1.392 . S
C237 C241 1.495 . S
C238 C237 1.392 . S
C238 C239 1.385 . S
C238 C240 1.478 . S
C239 H233 0.930 . S
C239 C235 1.400 . S
C239 C238 1.385 . S
C240 C238 1.478 . S
C240 C242 1.381 . S
C240 C246 1.383 . S
C241 C237 1.495 . S
C241 H247 0.959 . S
C241 H248 0.961 . S
C241 H249 0.960 . S
C242 C240 1.381 . S
C242 C243 1.394 . S
C242 H250 0.930 . S
C243 C242 1.394 . S
C243 C244 1.383 . S
C243 H251 0.929 . S
C244 C243 1.383 . S
C244 C245 1.377 . S
C245 H229 0.930 . S
C245 C244 1.377 . S
C245 C246 1.379 . S
C246 H230 0.931 . S
C246 C240 1.383 . S
C246 C245 1.379 . S
H247 C241 0.959 . S
H248 C241 0.961 . S
H249 C241 0.960 . S
H250 C242 0.930 . S
H251 C243 0.929 . S
H252 C260 0.929 . S
H253 C262 0.930 1_455 S
H254 C264 0.930 . S
H255 C267 0.929 . S
H256 C270 0.930 . S
H257 C272 0.960 1_556 S
H258 C272 0.960 . S
H259 C272 0.960 . S
C260 H252 0.929 . S
C260 C261 1.377 . S
C260 C262 1.384 . S
C261 C260 1.377 . S
C261 C267 1.390 . S
C262 H253 0.930 1_655 S
C262 C260 1.384 . S
C262 C263 1.372 . S
C263 C262 1.372 . S
C263 C264 1.400 . S
C263 C268 1.490 . S
C264 H254 0.930 . S
C264 C263 1.400 . S
C264 C267 1.386 . S
H265 C281 0.930 . S
H266 C282 0.931 1_655 S
C267 H255 0.929 . S
C267 C261 1.390 . S
C267 C264 1.386 . S
C268 C263 1.490 . S
C268 C270 1.395 1_655 S
C268 C271 1.403 . S
H269 C275 0.930 . S
C270 H256 0.930 . S
C270 C268 1.395 1_455 S
C270 C273 1.403 1_554 S
C271 C268 1.403 . S
C271 C272 1.524 . S
C271 C275 1.400 1_554 S
C272 H257 0.960 1_554 S
C272 H258 0.960 . S
C272 H259 0.960 . S
C272 C271 1.524 . S
C273 C270 1.403 1_556 S
C273 C274 1.392 . S
C273 C277 1.495 . S
C274 C273 1.392 . S
C274 C275 1.385 1_455 S
C274 C276 1.478 . S
C275 H269 0.930 . S
C275 C271 1.400 1_556 S
C275 C274 1.385 1_655 S
C276 C274 1.478 . S
C276 C278 1.381 . S
C276 C282 1.383 . S
C277 C273 1.495 . S
C277 H283 0.959 1_556 S
C277 H284 0.961 . S
C277 H285 0.960 . S
C278 C276 1.381 . S
C278 C279 1.394 . S
C278 H286 0.930 . S
C279 C278 1.394 . S
C279 C280 1.383 . S
C279 H287 0.929 . S
C280 C279 1.383 . S
C280 C281 1.377 . S
C281 H265 0.930 . S
C281 C280 1.377 . S
C281 C282 1.379 . S
C282 H266 0.931 1_455 S
C282 C276 1.383 . S
C282 C281 1.379 . S
H283 C277 0.959 1_554 S
H284 C277 0.961 . S
H285 C277 0.960 . S
H286 C278 0.930 . S
H287 C279 0.929 . S
H288 C296 0.929 . S
H289 C298 0.930 . S
H290 C300 0.930 . S
H291 C303 0.929 . S
H292 C306 0.930 . S
H293 C308 0.960 . S
H294 C308 0.960 . S
H295 C308 0.960 . S
C296 H288 0.929 . S
C296 C297 1.377 . S
C296 C298 1.384 . S
C297 C296 1.377 . S
C297 C303 1.390 . S
C298 H289 0.930 . S
C298 C296 1.384 . S
C298 C299 1.372 . S
C299 C298 1.372 . S
C299 C300 1.400 . S
C299 C304 1.490 . S
C300 H290 0.930 . S
C300 C299 1.400 . S
C300 C303 1.386 . S
H301 C317 0.930 . S
H302 C318 0.931 . S
C303 H291 0.929 . S
C303 C297 1.390 . S
C303 C300 1.386 . S
C304 C299 1.490 . S
C304 C306 1.395 1_545 S
C304 C307 1.403 . S
H305 C311 0.930 . S
C306 H292 0.930 . S
C306 C304 1.395 1_565 S
C306 C309 1.403 . S
C307 C304 1.403 . S
C307 C308 1.524 . S
C307 C311 1.400 . S
C308 H293 0.960 . S
C308 H294 0.960 . S
C308 H295 0.960 . S
C308 C307 1.524 . S
C309 C306 1.403 . S
C309 C310 1.392 . S
C309 C313 1.495 . S
C310 C309 1.392 . S
C310 C311 1.385 1_565 S
C310 C312 1.478 . S
C311 H305 0.930 . S
C311 C307 1.400 . S
C311 C310 1.385 1_545 S
C312 C310 1.478 . S
C312 C314 1.381 . S
C312 C318 1.383 . S
C313 C309 1.495 . S
C313 H319 0.959 . S
C313 H320 0.961 . S
C313 H321 0.960 . S
C314 C312 1.381 . S
C314 C315 1.394 . S
C314 H322 0.930 . S
C315 C314 1.394 . S
C315 C316 1.383 . S
C315 H323 0.929 . S
C316 C315 1.383 . S
C316 C317 1.377 . S
C317 H301 0.930 . S
C317 C316 1.377 . S
C317 C318 1.379 . S
C318 H302 0.931 . S
C318 C312 1.383 . S
C318 C317 1.379 . S
H319 C313 0.959 . S
H320 C313 0.961 . S
H321 C313 0.960 . S
H322 C314 0.930 . S
H323 C315 0.929 . S
H324 C332 0.929 . S
H325 C334 0.930 . S
H326 C336 0.930 . S
H327 C339 0.929 . S
H328 C342 0.930 . S
H329 C344 0.960 . S
H330 C344 0.960 . S
H331 C344 0.960 . S
C332 H324 0.929 . S
C332 C333 1.377 . S
C332 C334 1.384 . S
C333 C332 1.377 . S
C333 C339 1.390 . S
C334 H325 0.930 . S
C334 C332 1.384 . S
C334 C335 1.372 . S
C335 C334 1.372 . S
C335 C336 1.400 . S
C335 C340 1.490 . S
C336 H326 0.930 . S
C336 C335 1.400 . S
C336 C339 1.386 . S
H337 C353 0.930 . S
H338 C354 0.931 . S
C339 H327 0.929 . S
C339 C333 1.390 . S
C339 C336 1.386 . S
C340 C335 1.490 . S
C340 C342 1.395 . S
C340 C343 1.403 . S
H341 C347 0.930 . S
C342 H328 0.930 . S
C342 C340 1.395 . S
C342 C345 1.403 1_556 S
C343 C340 1.403 . S
C343 C344 1.524 . S
C343 C347 1.400 1_556 S
C344 H329 0.960 . S
C344 H330 0.960 . S
C344 H331 0.960 . S
C344 C343 1.524 . S
C345 C342 1.403 1_554 S
C345 C346 1.392 . S
C345 C349 1.495 . S
C346 C345 1.392 . S
C346 C347 1.385 . S
C346 C348 1.478 . S
C347 H341 0.930 . S
C347 C343 1.400 1_554 S
C347 C346 1.385 . S
C348 C346 1.478 . S
C348 C350 1.381 . S
C348 C354 1.383 . S
C349 C345 1.495 . S
C349 H355 0.959 . S
C349 H356 0.961 . S
C349 H357 0.960 . S
C350 C348 1.381 . S
C350 C351 1.394 . S
C350 H358 0.930 . S
C351 C350 1.394 . S
C351 C352 1.383 . S
C351 H359 0.929 . S
C352 C351 1.383 . S
C352 C353 1.377 . S
C353 H337 0.930 . S
C353 C352 1.377 . S
C353 C354 1.379 . S
C354 H338 0.931 . S
C354 C348 1.383 . S
C354 C353 1.379 . S
H355 C349 0.959 . S
H356 C349 0.961 . S
H357 C349 0.960 . S
H358 C350 0.930 . S
H359 C351 0.929 . S
H360 C368 0.929 . S
H361 C370 0.930 . S
H362 C372 0.930 . S
H363 C375 0.929 . S
H364 C378 0.930 . S
H365 C380 0.960 . S
H366 C380 0.960 . S
H367 C380 0.960 1_655 S
C368 H360 0.929 . S
C368 C369 1.377 . S
C368 C370 1.384 . S
C369 C368 1.377 . S
C369 C375 1.390 . S
C370 H361 0.930 . S
C370 C368 1.384 . S
C370 C371 1.372 . S
C371 C370 1.372 . S
C371 C372 1.400 . S
C371 C376 1.490 . S
C372 H362 0.930 . S
C372 C371 1.400 . S
C372 C375 1.386 . S
H373 C389 0.930 . S
H374 C390 0.931 . S
C375 H363 0.929 . S
C375 C369 1.390 . S
C375 C372 1.386 . S
C376 C371 1.490 . S
C376 C378 1.395 . S
C376 C379 1.375 1_655 S
H377 C383 0.930 . S
C378 H364 0.930 . S
C378 C376 1.395 . S
C378 C381 1.403 1_655 S
C379 C376 1.375 1_455 S
C379 C380 1.541 . S
C379 C383 1.412 . S
C380 H365 0.960 . S
C380 H366 0.960 . S
C380 H367 0.960 1_455 S
C380 C379 1.541 . S
C381 C378 1.403 1_455 S
C381 C382 1.392 . S
C381 C385 1.495 . S
C382 C381 1.392 . S
C382 C383 1.385 . S
C382 C384 1.478 . S
C383 H377 0.930 . S
C383 C379 1.412 . S
C383 C382 1.385 . S
C384 C382 1.478 . S
C384 C386 1.381 . S
C384 C390 1.383 . S
C385 C381 1.495 . S
C385 H391 0.959 1_455 S
C385 H392 0.961 1_455 S
C385 H393 0.960 . S
C386 C384 1.381 . S
C386 C387 1.394 . S
C386 H394 0.930 . S
C387 C386 1.394 . S
C387 C388 1.383 . S
C387 H395 0.929 . S
C388 C387 1.383 . S
C388 C389 1.377 . S
C389 H373 0.930 . S
C389 C388 1.377 . S
C389 C390 1.379 . S
C390 H374 0.931 . S
C390 C384 1.383 . S
C390 C389 1.379 . S
H391 C385 0.959 1_655 S
H392 C385 0.961 1_655 S
H393 C385 0.960 . S
H394 C386 0.930 . S
H395 C387 0.929 . S
H396 C404 0.929 . S
H397 C406 0.930 . S
H398 C408 0.930 . S
H399 C411 0.929 . S
H400 C414 0.930 . S
H401 C416 0.960 . S
H402 C416 0.960 . S
H403 C416 0.960 . S
C404 H396 0.929 . S
C404 C405 1.377 . S
C404 C406 1.384 . S
C405 C404 1.377 . S
C405 C411 1.390 . S
C406 H397 0.930 . S
C406 C404 1.384 . S
C406 C407 1.372 . S
C407 C406 1.372 . S
C407 C408 1.400 . S
C407 C412 1.490 . S
C408 H398 0.930 . S
C408 C407 1.400 . S
C408 C411 1.386 . S
H409 C425 0.930 . S
H410 C426 0.931 . S
C411 H399 0.929 . S
C411 C405 1.390 . S
C411 C408 1.386 . S
C412 C407 1.490 . S
C412 C414 1.395 . S
C412 C415 1.403 . S
H413 C419 0.930 . S
C414 H400 0.930 . S
C414 C412 1.395 . S
C414 C417 1.403 . S
C415 C412 1.403 . S
C415 C416 1.524 . S
C415 C419 1.400 . S
C416 H401 0.960 . S
C416 H402 0.960 . S
C416 H403 0.960 . S
C416 C415 1.524 . S
C417 C414 1.403 . S
C417 C418 1.392 . S
C417 C421 1.495 . S
C418 C417 1.392 . S
C418 C419 1.385 . S
C418 C420 1.478 . S
C419 H413 0.930 . S
C419 C415 1.400 . S
C419 C418 1.385 . S
C420 C418 1.478 . S
C420 C422 1.381 . S
C420 C426 1.383 . S
C421 C417 1.495 . S
C421 H427 0.959 . S
C421 H428 0.961 . S
C421 H429 0.960 . S
C422 C420 1.381 . S
C422 C423 1.394 . S
C422 H430 0.930 . S
C423 C422 1.394 . S
C423 C424 1.383 . S
C423 H431 0.929 . S
C424 C423 1.383 . S
C424 C425 1.377 . S
C425 H409 0.930 . S
C425 C424 1.377 . S
C425 C426 1.379 . S
C426 H410 0.931 . S
C426 C420 1.383 . S
C426 C425 1.379 . S
H427 C421 0.959 . S
H428 C421 0.961 . S
H429 C421 0.960 . S
H430 C422 0.930 . S
H431 C423 0.929 . S
H432 C440 0.929 . S
H433 C442 0.930 . S
H434 C444 0.930 . S
H435 C447 0.929 . S
H436 C450 0.930 . S
H437 C452 0.960 . S
H438 C452 0.960 . S
H439 C452 0.960 . S
C440 H432 0.929 . S
C440 C441 1.377 . S
C440 C442 1.384 . S
C441 C440 1.377 . S
C441 C447 1.390 . S
C442 H433 0.930 . S
C442 C440 1.384 . S
C442 C443 1.372 . S
C443 C442 1.372 . S
C443 C444 1.400 . S
C443 C448 1.490 . S
C444 H434 0.930 . S
C444 C443 1.400 . S
C444 C447 1.386 . S
H445 C461 0.930 . S
H446 C462 0.931 . S
C447 H435 0.929 . S
C447 C441 1.390 . S
C447 C444 1.386 . S
C448 C443 1.490 . S
C448 C450 1.395 . S
C448 C451 1.403 . S
H449 C455 0.930 . S
C450 H436 0.930 . S
C450 C448 1.395 . S
C450 C453 1.403 . S
C451 C448 1.403 . S
C451 C452 1.524 . S
C451 C455 1.400 . S
C452 H437 0.960 . S
C452 H438 0.960 . S
C452 H439 0.960 . S
C452 C451 1.524 . S
C453 C450 1.403 . S
C453 C454 1.392 . S
C453 C457 1.495 . S
C454 C453 1.392 . S
C454 C455 1.385 . S
C454 C456 1.478 . S
C455 H449 0.930 . S
C455 C451 1.400 . S
C455 C454 1.385 . S
C456 C454 1.478 . S
C456 C458 1.381 . S
C456 C462 1.383 . S
C457 C453 1.495 . S
C457 H463 0.959 . S
C457 H464 0.961 . S
C457 H465 0.960 . S
C458 C456 1.381 . S
C458 C459 1.394 . S
C458 H466 0.930 . S
C459 C458 1.394 . S
C459 C460 1.383 . S
C459 H467 0.929 . S
C460 C459 1.383 . S
C460 C461 1.377 . S
C461 H445 0.930 . S
C461 C460 1.377 . S
C461 C462 1.379 . S
C462 H446 0.931 . S
C462 C456 1.383 . S
C462 C461 1.379 . S
H463 C457 0.959 . S
H464 C457 0.961 . S
H465 C457 0.960 . S
H466 C458 0.930 . S
H467 C459 0.929 . S
H468 C476 0.929 . S
H469 C478 0.930 . S
H470 C480 0.930 . S
H471 C483 0.929 . S
H472 C486 0.930 . S
H473 C488 0.960 . S
H474 C488 0.960 . S
H475 C488 0.960 . S
C476 H468 0.929 . S
C476 C477 1.377 . S
C476 C478 1.384 . S
C477 C476 1.377 . S
C477 C483 1.390 . S
C478 H469 0.930 . S
C478 C476 1.384 . S
C478 C479 1.372 . S
C479 C478 1.372 . S
C479 C480 1.400 . S
C479 C484 1.490 . S
C480 H470 0.930 . S
C480 C479 1.400 . S
C480 C483 1.386 . S
H481 C497 0.930 . S
H482 C498 0.931 . S
C483 H471 0.929 . S
C483 C477 1.390 . S
C483 C480 1.386 . S
C484 C479 1.490 . S
C484 C486 1.395 . S
C484 C487 1.403 . S
H485 C491 0.930 . S
C486 H472 0.930 . S
C486 C484 1.395 . S
C486 C489 1.403 . S
C487 C484 1.403 . S
C487 C488 1.524 . S
C487 C491 1.400 . S
C488 H473 0.960 . S
C488 H474 0.960 . S
C488 H475 0.960 . S
C488 C487 1.524 . S
C489 C486 1.403 . S
C489 C490 1.392 . S
C489 C493 1.495 . S
C490 C489 1.392 . S
C490 C491 1.385 . S
C490 C492 1.478 . S
C491 H485 0.930 . S
C491 C487 1.400 . S
C491 C490 1.385 . S
C492 C490 1.478 . S
C492 C494 1.381 . S
C492 C498 1.383 . S
C493 C489 1.495 . S
C493 H499 0.959 . S
C493 H500 0.961 . S
C493 H501 0.960 . S
C494 C492 1.381 . S
C494 C495 1.394 . S
C494 H502 0.930 . S
C495 C494 1.394 . S
C495 C496 1.383 . S
C495 H503 0.929 . S
C496 C495 1.383 . S
C496 C497 1.377 . S
C497 H481 0.930 . S
C497 C496 1.377 . S
C497 C498 1.379 . S
C498 H482 0.931 . S
C498 C492 1.383 . S
C498 C497 1.379 . S
H499 C493 0.959 . S
H500 C493 0.961 . S
H501 C493 0.960 . S
H502 C494 0.930 . S
H503 C495 0.929 . S
H504 C512 0.929 . S
H505 C514 0.930 . S
H506 C516 0.930 . S
H507 C519 0.929 . S
H508 C522 0.930 . S
H509 C524 0.960 . S
H510 C524 0.960 . S
H511 C524 0.960 . S
C512 H504 0.929 . S
C512 C513 1.377 . S
C512 C514 1.384 . S
C513 C512 1.377 . S
C513 C519 1.390 . S
C514 H505 0.930 . S
C514 C512 1.384 . S
C514 C515 1.372 . S
C515 C514 1.372 . S
C515 C516 1.400 . S
C515 C520 1.490 . S
C516 H506 0.930 . S
C516 C515 1.400 . S
C516 C519 1.386 . S
H517 C533 0.930 . S
H518 C534 0.931 . S
C519 H507 0.929 . S
C519 C513 1.390 . S
C519 C516 1.386 . S
C520 C515 1.490 . S
C520 C522 1.395 . S
C520 C523 1.403 . S
H521 C527 0.930 . S
C522 H508 0.930 . S
C522 C520 1.395 . S
C522 C525 1.403 . S
C523 C520 1.403 . S
C523 C524 1.524 . S
C523 C527 1.400 . S
C524 H509 0.960 . S
C524 H510 0.960 . S
C524 H511 0.960 . S
C524 C523 1.524 . S
C525 C522 1.403 . S
C525 C526 1.392 . S
C525 C529 1.495 . S
C526 C525 1.392 . S
C526 C527 1.385 . S
C526 C528 1.478 . S
C527 H521 0.930 . S
C527 C523 1.400 . S
C527 C526 1.385 . S
C528 C526 1.478 . S
C528 C530 1.381 . S
C528 C534 1.383 . S
C529 C525 1.495 . S
C529 H535 0.959 . S
C529 H536 0.961 . S
C529 H537 0.960 . S
C530 C528 1.381 . S
C530 C531 1.394 . S
C530 H538 0.930 . S
C531 C530 1.394 . S
C531 C532 1.383 . S
C531 H539 0.929 . S
C532 C531 1.383 . S
C532 C533 1.377 . S
C533 H517 0.930 . S
C533 C532 1.377 . S
C533 C534 1.379 . S
C534 H518 0.931 . S
C534 C528 1.383 . S
C534 C533 1.379 . S
H535 C529 0.959 . S
H536 C529 0.961 . S
H537 C529 0.960 . S
H538 C530 0.930 . S
H539 C531 0.929 . S
H540 C548 0.929 . S
H541 C550 0.930 . S
H542 C552 0.930 . S
H543 C555 0.929 . S
H544 C558 0.930 . S
H545 C560 0.960 . S
H546 C560 0.960 . S
H547 C560 0.960 . S
C548 H540 0.929 . S
C548 C549 1.377 . S
C548 C550 1.384 . S
C549 C548 1.377 . S
C549 C555 1.390 . S
C550 H541 0.930 . S
C550 C548 1.384 . S
C550 C551 1.372 . S
C551 C550 1.372 . S
C551 C552 1.400 . S
C551 C556 1.490 . S
C552 H542 0.930 . S
C552 C551 1.400 . S
C552 C555 1.386 . S
H553 C569 0.930 . S
H554 C570 0.931 . S
C555 H543 0.929 . S
C555 C549 1.390 . S
C555 C552 1.386 . S
C556 C551 1.490 . S
C556 C558 1.395 . S
C556 C559 1.403 . S
H557 C563 0.930 . S
C558 H544 0.930 . S
C558 C556 1.395 . S
C558 C561 1.403 . S
C559 C556 1.403 . S
C559 C560 1.524 . S
C559 C563 1.400 . S
C560 H545 0.960 . S
C560 H546 0.960 . S
C560 H547 0.960 . S
C560 C559 1.524 . S
C561 C558 1.403 . S
C561 C562 1.392 . S
C561 C565 1.495 . S
C562 C561 1.392 . S
C562 C563 1.385 . S
C562 C564 1.478 . S
C563 H557 0.930 . S
C563 C559 1.400 . S
C563 C562 1.385 . S
C564 C562 1.478 . S
C564 C566 1.381 . S
C564 C570 1.383 . S
C565 C561 1.495 . S
C565 H571 0.959 . S
C565 H572 0.961 . S
C565 H573 0.960 . S
C566 C564 1.381 . S
C566 C567 1.394 . S
C566 H574 0.930 . S
C567 C566 1.394 . S
C567 C568 1.383 . S
C567 H575 0.929 . S
C568 C567 1.383 . S
C568 C569 1.377 . S
C569 H553 0.930 . S
C569 C568 1.377 . S
C569 C570 1.379 . S
C570 H554 0.931 . S
C570 C564 1.383 . S
C570 C569 1.379 . S
H571 C565 0.959 . S
H572 C565 0.961 . S
H573 C565 0.960 . S
H574 C566 0.930 . S
H575 C567 0.929 . S
H576 C584 0.929 . S
H577 C586 0.930 . S
H578 C588 0.930 . S
H579 C591 0.929 . S
H580 C594 0.930 . S
H581 C596 0.960 . S
H582 C596 0.960 . S
H583 C596 0.960 . S
C584 H576 0.929 . S
C584 C585 1.377 . S
C584 C586 1.384 . S
C585 C584 1.377 . S
C585 C591 1.390 . S
C586 H577 0.930 . S
C586 C584 1.384 . S
C586 C587 1.372 . S
C587 C586 1.372 . S
C587 C588 1.400 . S
C587 C592 1.490 . S
C588 H578 0.930 . S
C588 C587 1.400 . S
C588 C591 1.386 . S
H589 C605 0.930 . S
H590 C606 0.931 . S
C591 H579 0.929 . S
C591 C585 1.390 . S
C591 C588 1.386 . S
C592 C587 1.490 . S
C592 C594 1.395 . S
C592 C595 1.403 . S
H593 C599 0.930 . S
C594 H580 0.930 . S
C594 C592 1.395 . S
C594 C597 1.403 . S
C595 C592 1.403 . S
C595 C596 1.524 . S
C595 C599 1.400 . S
C596 H581 0.960 . S
C596 H582 0.960 . S
C596 H583 0.960 . S
C596 C595 1.524 . S
C597 C594 1.403 . S
C597 C598 1.392 . S
C597 C601 1.495 . S
C598 C597 1.392 . S
C598 C599 1.385 . S
C598 C600 1.478 . S
C599 H593 0.930 . S
C599 C595 1.400 . S
C599 C598 1.385 . S
C600 C598 1.478 . S
C600 C602 1.381 . S
C600 C606 1.383 . S
C601 C597 1.495 . S
C601 H607 0.959 . S
C601 H608 0.961 . S
C601 H609 0.960 . S
C602 C600 1.381 . S
C602 C603 1.394 . S
C602 H610 0.930 . S
C603 C602 1.394 . S
C603 C604 1.383 . S
C603 H611 0.929 . S
C604 C603 1.383 . S
C604 C605 1.377 . S
C605 H589 0.930 . S
C605 C604 1.377 . S
C605 C606 1.379 . S
C606 H590 0.931 . S
C606 C600 1.383 . S
C606 C605 1.379 . S
H607 C601 0.959 . S
H608 C601 0.961 . S
H609 C601 0.960 . S
H610 C602 0.930 . S
H611 C603 0.929 . S
H612 C620 0.929 . S
H613 C622 0.930 . S
H614 C624 0.930 . S
H615 C627 0.929 . S
H616 C630 0.930 . S
H617 C632 0.960 . S
H618 C632 0.960 . S
H619 C632 0.960 . S
C620 H612 0.929 . S
C620 C621 1.377 . S
C620 C622 1.384 . S
C621 C620 1.377 . S
C621 C627 1.390 . S
C622 H613 0.930 . S
C622 C620 1.384 . S
C622 C623 1.372 . S
C623 C622 1.372 . S
C623 C624 1.400 . S
C623 C628 1.490 . S
C624 H614 0.930 . S
C624 C623 1.400 . S
C624 C627 1.386 . S
H625 C641 0.930 . S
H626 C642 0.931 . S
C627 H615 0.929 . S
C627 C621 1.390 . S
C627 C624 1.386 . S
C628 C623 1.490 . S
C628 C630 1.395 . S
C628 C631 1.403 . S
H629 C635 0.930 . S
C630 H616 0.930 . S
C630 C628 1.395 . S
C630 C633 1.403 . S
C631 C628 1.403 . S
C631 C632 1.524 . S
C631 C635 1.400 . S
C632 H617 0.960 . S
C632 H618 0.960 . S
C632 H619 0.960 . S
C632 C631 1.524 . S
C633 C630 1.403 . S
C633 C634 1.392 . S
C633 C637 1.495 . S
C634 C633 1.392 . S
C634 C635 1.385 . S
C634 C636 1.478 . S
C635 H629 0.930 . S
C635 C631 1.400 . S
C635 C634 1.385 . S
C636 C634 1.478 . S
C636 C638 1.381 . S
C636 C642 1.383 . S
C637 C633 1.495 . S
C637 H643 0.959 . S
C637 H644 0.961 . S
C637 H645 0.960 . S
C638 C636 1.381 . S
C638 C639 1.394 . S
C638 H646 0.930 . S
C639 C638 1.394 . S
C639 C640 1.383 . S
C639 H647 0.929 . S
C640 C639 1.383 . S
C640 C641 1.377 . S
C641 H625 0.930 . S
C641 C640 1.377 . S
C641 C642 1.379 . S
C642 H626 0.931 . S
C642 C636 1.383 . S
C642 C641 1.379 . S
H643 C637 0.959 . S
H644 C637 0.961 . S
H645 C637 0.960 . S
H646 C638 0.930 . S
H647 C639 0.929 . S
H648 C656 0.929 . S
H649 C658 0.930 . S
H650 C660 0.930 . S
H651 C663 0.929 . S
H652 C666 0.930 1_655 S
H653 C668 0.960 1_455 S
H654 C668 0.960 . S
H655 C668 0.960 . S
C656 H648 0.929 . S
C656 C657 1.377 . S
C656 C658 1.384 . S
C657 C656 1.377 . S
C657 C663 1.390 . S
C658 H649 0.930 . S
C658 C656 1.384 . S
C658 C659 1.372 . S
C659 C658 1.372 . S
C659 C660 1.400 . S
C659 C664 1.490 . S
C660 H650 0.930 . S
C660 C659 1.400 . S
C660 C663 1.386 . S
H661 C677 0.930 . S
H662 C678 0.931 . S
C663 H651 0.929 . S
C663 C657 1.390 . S
C663 C660 1.386 . S
C664 C659 1.490 . S
C664 C666 1.395 1_655 S
C664 C667 1.403 1_655 S
H665 C671 0.930 . S
C666 H652 0.930 1_455 S
C666 C664 1.395 1_455 S
C666 C669 1.403 . S
C667 C664 1.403 1_455 S
C667 C668 1.524 1_455 S
C667 C671 1.400 . S
C668 H653 0.960 1_655 S
C668 H654 0.960 . S
C668 H655 0.960 . S
C668 C667 1.524 1_655 S
C669 C666 1.403 . S
C669 C670 1.392 . S
C669 C673 1.495 . S
C670 C669 1.392 . S
C670 C671 1.385 . S
C670 C672 1.478 . S
C671 H665 0.930 . S
C671 C667 1.400 . S
C671 C670 1.385 . S
C672 C670 1.478 . S
C672 C674 1.381 . S
C672 C678 1.383 . S
C673 C669 1.495 . S
C673 H679 0.959 . S
C673 H680 0.961 . S
C673 H681 0.960 . S
C674 C672 1.381 . S
C674 C675 1.394 . S
C674 H682 0.930 . S
C675 C674 1.394 . S
C675 C676 1.383 . S
C675 H683 0.929 . S
C676 C675 1.383 . S
C676 C677 1.377 . S
C677 H661 0.930 . S
C677 C676 1.377 . S
C677 C678 1.379 . S
C678 H662 0.931 . S
C678 C672 1.383 . S
C678 C677 1.379 . S
H679 C673 0.959 . S
H680 C673 0.961 . S
H681 C673 0.960 . S
H682 C674 0.930 . S
H683 C675 0.929 . S
H684 C692 0.929 . S
H685 C694 0.930 . S
H686 C696 0.930 . S
H687 C699 0.929 . S
H688 C702 0.930 1_545 S
H689 C704 0.960 1_565 S
H690 C704 0.960 . S
H691 C704 0.960 . S
C692 H684 0.929 . S
C692 C693 1.377 . S
C692 C694 1.384 . S
C693 C692 1.377 . S
C693 C699 1.390 . S
C694 H685 0.930 . S
C694 C692 1.384 . S
C694 C695 1.372 . S
C695 C694 1.372 . S
C695 C696 1.400 . S
C695 C700 1.490 . S
C696 H686 0.930 . S
C696 C695 1.400 . S
C696 C699 1.386 . S
H697 C713 0.930 . S
H698 C714 0.931 . S
C699 H687 0.929 . S
C699 C693 1.390 . S
C699 C696 1.386 . S
C700 C695 1.490 . S
C700 C702 1.395 1_545 S
C700 C703 1.403 1_545 S
H701 C707 0.930 . S
C702 H688 0.930 1_565 S
C702 C700 1.395 1_565 S
C702 C705 1.403 . S
C703 C700 1.403 1_565 S
C703 C704 1.524 1_565 S
C703 C707 1.400 . S
C704 H689 0.960 1_545 S
C704 H690 0.960 . S
C704 H691 0.960 . S
C704 C703 1.524 1_545 S
C705 C702 1.403 . S
C705 C706 1.392 . S
C705 C709 1.495 . S
C706 C705 1.392 . S
C706 C707 1.385 . S
C706 C708 1.478 . S
C707 H701 0.930 . S
C707 C703 1.400 . S
C707 C706 1.385 . S
C708 C706 1.478 . S
C708 C710 1.381 . S
C708 C714 1.383 . S
C709 C705 1.495 . S
C709 H715 0.959 . S
C709 H716 0.961 . S
C709 H717 0.960 . S
C710 C708 1.381 . S
C710 C711 1.394 . S
C710 H718 0.930 . S
C711 C710 1.394 . S
C711 C712 1.383 . S
C711 H719 0.929 . S
C712 C711 1.383 . S
C712 C713 1.377 . S
C713 H697 0.930 . S
C713 C712 1.377 . S
C713 C714 1.379 . S
C714 H698 0.931 . S
C714 C708 1.383 . S
C714 C713 1.379 . S
H715 C709 0.959 . S
H716 C709 0.961 . S
H717 C709 0.960 . S
H718 C710 0.930 . S
H719 C711 0.929 . S
H720 C728 0.929 . S
H721 C730 0.930 . S
H722 C732 0.930 . S
H723 C735 0.929 . S
H724 C738 0.930 . S
H725 C740 0.960 . S
H726 C740 0.960 . S
H727 C740 0.960 . S
C728 H720 0.929 . S
C728 C729 1.377 . S
C728 C730 1.384 . S
C729 C728 1.377 . S
C729 C735 1.390 . S
C730 H721 0.930 . S
C730 C728 1.384 . S
C730 C731 1.372 . S
C731 C730 1.372 . S
C731 C732 1.400 . S
C731 C736 1.490 . S
C732 H722 0.930 . S
C732 C731 1.400 . S
C732 C735 1.386 . S
H733 C749 0.930 . S
H734 C750 0.931 . S
C735 H723 0.929 . S
C735 C729 1.390 . S
C735 C732 1.386 . S
C736 C731 1.490 . S
C736 C738 1.395 . S
C736 C739 1.403 . S
H737 C743 0.930 . S
C738 H724 0.930 . S
C738 C736 1.395 . S
C738 C741 1.403 . S
C739 C736 1.403 . S
C739 C740 1.524 . S
C739 C743 1.400 . S
C740 H725 0.960 . S
C740 H726 0.960 . S
C740 H727 0.960 . S
C740 C739 1.524 . S
C741 C738 1.403 . S
C741 C742 1.392 . S
C741 C745 1.495 . S
C742 C741 1.392 . S
C742 C743 1.385 . S
C742 C744 1.478 . S
C743 H737 0.930 . S
C743 C739 1.400 . S
C743 C742 1.385 . S
C744 C742 1.478 . S
C744 C746 1.381 . S
C744 C750 1.383 . S
C745 C741 1.495 . S
C745 H751 0.959 . S
C745 H752 0.961 . S
C745 H753 0.960 . S
C746 C744 1.381 . S
C746 C747 1.394 . S
C746 H754 0.930 . S
C747 C746 1.394 . S
C747 C748 1.383 . S
C747 H755 0.929 . S
C748 C747 1.383 . S
C748 C749 1.377 . S
C749 H733 0.930 . S
C749 C748 1.377 . S
C749 C750 1.379 . S
C750 H734 0.931 . S
C750 C744 1.383 . S
C750 C749 1.379 . S
H751 C745 0.959 . S
H752 C745 0.961 . S
H753 C745 0.960 . S
H754 C746 0.930 . S
H755 C747 0.929 . S
H756 C764 0.929 . S
H757 C766 0.930 . S
H758 C768 0.930 . S
H759 C771 0.929 . S
H760 C774 0.930 1_455 S
H761 C776 0.960 1_655 S
H762 C776 0.960 . S
H763 C776 0.960 . S
C764 H756 0.929 . S
C764 C765 1.377 . S
C764 C766 1.384 . S
C765 C764 1.377 . S
C765 C771 1.390 . S
C766 H757 0.930 . S
C766 C764 1.384 . S
C766 C767 1.372 . S
C767 C766 1.372 . S
C767 C768 1.400 . S
C767 C772 1.490 . S
C768 H758 0.930 . S
C768 C767 1.400 . S
C768 C771 1.386 . S
H769 C785 0.930 . S
H770 C786 0.931 . S
C771 H759 0.929 . S
C771 C765 1.390 . S
C771 C768 1.386 . S
C772 C767 1.490 . S
C772 C774 1.395 1_455 S
C772 C775 1.403 1_455 S
H773 C779 0.930 . S
C774 H760 0.930 1_655 S
C774 C772 1.395 1_655 S
C774 C777 1.403 . S
C775 C772 1.403 1_655 S
C775 C776 1.524 1_655 S
C775 C779 1.400 . S
C776 H761 0.960 1_455 S
C776 H762 0.960 . S
C776 H763 0.960 . S
C776 C775 1.524 1_455 S
C777 C774 1.403 . S
C777 C778 1.392 . S
C777 C781 1.495 . S
C778 C777 1.392 . S
C778 C779 1.385 . S
C778 C780 1.478 . S
C779 H773 0.930 . S
C779 C775 1.400 . S
C779 C778 1.385 . S
C780 C778 1.478 . S
C780 C782 1.381 . S
C780 C786 1.383 . S
C781 C777 1.495 . S
C781 H787 0.959 . S
C781 H788 0.961 . S
C781 H789 0.960 . S
C782 C780 1.381 . S
C782 C783 1.394 . S
C782 H790 0.930 . S
C783 C782 1.394 . S
C783 C784 1.383 . S
C783 H791 0.929 . S
C784 C783 1.383 . S
C784 C785 1.377 . S
C785 H769 0.930 . S
C785 C784 1.377 . S
C785 C786 1.379 . S
C786 H770 0.931 . S
C786 C780 1.383 . S
C786 C785 1.379 . S
H787 C781 0.959 . S
H788 C781 0.961 . S
H789 C781 0.960 . S
H790 C782 0.930 . S
H791 C783 0.929 . S
H792 C800 0.929 . S
H793 C802 0.930 . S
H794 C804 0.930 . S
H795 C807 0.929 . S
H796 C810 0.930 . S
H797 C812 0.960 . S
H798 C812 0.960 . S
H799 C812 0.960 . S
C800 H792 0.929 . S
C800 C801 1.377 . S
C800 C802 1.384 . S
C801 C800 1.377 . S
C801 C807 1.390 . S
C802 H793 0.930 . S
C802 C800 1.384 . S
C802 C803 1.372 . S
C803 C802 1.372 . S
C803 C804 1.400 . S
C803 C808 1.490 . S
C804 H794 0.930 . S
C804 C803 1.400 . S
C804 C807 1.386 . S
H805 C821 0.930 . S
H806 C822 0.931 . S
C807 H795 0.929 . S
C807 C801 1.390 . S
C807 C804 1.386 . S
C808 C803 1.490 . S
C808 C810 1.395 . S
C808 C811 1.403 . S
H809 C815 0.930 1_565 S
C810 H796 0.930 . S
C810 C808 1.395 . S
C810 C813 1.403 . S
C811 C808 1.403 . S
C811 C812 1.524 . S
C811 C815 1.400 . S
C812 H797 0.960 . S
C812 H798 0.960 . S
C812 H799 0.960 . S
C812 C811 1.524 . S
C813 C810 1.403 . S
C813 C814 1.392 1_545 S
C813 C817 1.495 1_545 S
C814 C813 1.392 1_565 S
C814 C815 1.385 1_565 S
C814 C816 1.478 . S
C815 H809 0.930 1_545 S
C815 C811 1.400 . S
C815 C814 1.385 1_545 S
C816 C814 1.478 . S
C816 C818 1.381 . S
C816 C822 1.383 . S
C817 C813 1.495 1_565 S
C817 H823 0.959 1_565 S
C817 H824 0.961 . S
C817 H825 0.960 . S
C818 C816 1.381 . S
C818 C819 1.394 . S
C818 H826 0.930 . S
C819 C818 1.394 . S
C819 C820 1.383 . S
C819 H827 0.929 . S
C820 C819 1.383 . S
C820 C821 1.377 . S
C821 H805 0.930 . S
C821 C820 1.377 . S
C821 C822 1.379 . S
C822 H806 0.931 . S
C822 C816 1.383 . S
C822 C821 1.379 . S
H823 C817 0.959 1_545 S
H824 C817 0.961 . S
H825 C817 0.960 . S
H826 C818 0.930 . S
H827 C819 0.929 . S
C189 C121 2.016 . S
C208 C1 2.084 . S
C225 C160 2.144 . S
C244 C40 2.141 . S
C261 C61 2.200 . S
C280 C91 2.144 . S
C297 C10 2.176 . S
C316 C130 2.251 . S
C333 C151 2.108 . S
C352 C31 2.084 . S
C369 C70 2.049 . S
C388 C100 2.111 . S
C405 C27 1.125 . S
C424 N74 1.098 . S
C441 C46 1.120 . S
C460 N14 1.088 . S
C477 C87 1.122 . S
C496 N36 1.113 . S
C513 C106 1.137 . S
C532 N126 1.106 . S
C549 C136 1.130 . S
C568 N156 1.148 . S
C585 N96 1.128 . S
C604 C166 1.150 . S
C621 C16 0.564 . S
C640 N66 0.539 . S
C657 C57 0.562 . S
C676 N6 0.536 . S
C693 C76 0.573 . S
C712 N44 0.630 . S
C729 C117 0.565 . S
C748 N134 0.564 . S
C765 C147 0.575 . S
C784 N164 0.622 . S
C801 N104 0.600 . S
C820 C177 0.538 . S
