# Generated by pormake.
# Topology dmp, (4)-cn, num edge types: 1
# Building blocks:
#     Node 0, Type 0, BuildingBlock: ICAMEG_clean_sbu_1, # of connection points: 4
#     Node 1, Type 0, BuildingBlock: ICAMEG_clean_sbu_1, # of connection points: 4
#     Node 2, Type 0, BuildingBlock: ICAMEG_clean_sbu_1, # of connection points: 4
#     Node 3, Type 0, BuildingBlock: ICAMEG_clean_sbu_1, # of connection points: 4
#     Edge 4, Type (0, 0), BuildingBlock: KIFKEQ_clean_linker_1, # of connection points: 2
#     Edge 5, Type (0, 0), BuildingBlock: KIFKEQ_clean_linker_1, # of connection points: 2
#     Edge 6, Type (0, 0), BuildingBlock: KIFKEQ_clean_linker_1, # of connection points: 2
#     Edge 7, Type (0, 0), BuildingBlock: KIFKEQ_clean_linker_1, # of connection points: 2
#     Edge 8, Type (0, 0), BuildingBlock: KIFKEQ_clean_linker_1, # of connection points: 2
#     Edge 9, Type (0, 0), BuildingBlock: KIFKEQ_clean_linker_1, # of connection points: 2
#     Edge 10, Type (0, 0), BuildingBlock: KIFKEQ_clean_linker_1, # of connection points: 2
#     Edge 11, Type (0, 0), BuildingBlock: KIFKEQ_clean_linker_1, # of connection points: 2
# Relax obj value: 0.009
# Max RMSD: 0.070
# Mean RMSD: 0.070
data_MOF--net-dmp--node1-ICAMEG_clean_sbu_1--edge1-KIFKEQ_clean_linker_1
_symmetry_space_group_name_H-M    P1
_symmetry_Int_Tables_number       1
_symmetry_cell_setting            triclinic
loop_
_symmetry_equiv_pos_as_xyz
'x, y, z'
_cell_length_a     44.238532
_cell_length_b     19.484273
_cell_length_c     18.303427
_cell_angle_alpha  90.020496
_cell_angle_beta   90.200247
_cell_angle_gamma 90.004731
loop_
_atom_site_label
_atom_site_type_symbol
_atom_site_fract_x
_atom_site_fract_y
_atom_site_fract_z
_atom_type_partial_charge
Co0 Co 0.12193 0.25242 0.15816 0.0
Co1 Co 0.12213 0.24732 0.34592 0.0
O2 O 0.10121 0.2498 0.25198 0.0
C3 C 0.08104 0.13339 0.14114 0.0
O4 O 0.09257 0.10923 0.20214 0.0
C5 C 0.08103 0.36596 0.36288 0.0
O6 O 0.09245 0.39045 0.3021 0.0
O7 O 0.14721 0.3284 0.31916 0.0
O8 O 0.15401 0.31407 0.19851 0.0
H9 H 0.21245 0.25543 0.51304 0.0
H10 H 0.05659 0.28569 0.16555 0.0
O11 O 0.09019 0.19056 0.11572 0.0
H12 H 0.10539 0.49294 0.06595 0.0
H13 H 0.1261 0.26463 0.88364 0.0
H14 H 0.18586 0.24366 0.11047 0.0
H15 H 0.13565 0.39045 0.09626 0.0
H16 H 0.10092 0.26362 0.0037 0.0
O17 O 0.09034 0.30883 0.38821 0.0
H18 H 0.18612 0.25671 0.39405 0.0
H19 H 0.10141 0.23576 0.50023 0.0
H20 H 0.21197 0.24496 0.99165 0.0
H21 H 0.02543 0.38687 0.13544 0.0
H22 H 0.18203 0.25551 0.87713 0.0
H23 H 0.04985 0.49149 0.08539 0.0
O24 O 0.1472 0.1716 0.1851 0.0
H25 H 0.02589 0.11199 0.36787 0.0
H26 H 0.13619 0.10933 0.40776 0.0
H27 H 0.10615 0.00653 0.43769 0.0
H28 H 0.05057 0.00751 0.41789 0.0
H29 H 0.05683 0.21348 0.33812 0.0
H30 H 0.1268 0.23477 0.62045 0.0
H31 H 0.18273 0.24438 0.62734 0.0
O32 O 0.15426 0.186 0.30575 0.0
C33 C 0.16055 0.34266 0.25932 0.0
C34 C 0.18808 0.25093 0.51074 0.0
C35 C 0.14 0.23942 0.57103 0.0
N36 N 0.1423 0.2456 0.44016 0.0
C37 C 0.17305 0.25141 0.44351 0.0
C38 C 0.12575 0.24011 0.50281 0.0
C39 C 0.17139 0.2448 0.57485 0.0
C40 C 0.06733 0.33083 0.14319 0.0
N41 N 0.09786 0.33202 0.13226 0.0
C42 C 0.04959 0.38805 0.12651 0.0
C43 C 0.06332 0.44677 0.09853 0.0
C44 C 0.09448 0.44763 0.08765 0.0
C45 C 0.11151 0.38949 0.10505 0.0
C46 C 0.1394 0.2602 0.93316 0.0
C47 C 0.17269 0.24875 0.06092 0.0
C48 C 0.12527 0.2595 0.00128 0.0
N49 N 0.14194 0.25427 0.06405 0.0
C50 C 0.1876 0.24924 0.99378 0.0
C51 C 0.17078 0.25509 0.92954 0.0
C52 C 0.16071 0.15748 0.24496 0.0
C53 C 0.05007 0.11102 0.37695 0.0
C54 C 0.11202 0.11009 0.39882 0.0
C55 C 0.09512 0.05178 0.41601 0.0
C56 C 0.06394 0.05238 0.40492 0.0
N57 N 0.09824 0.16747 0.37161 0.0
C58 C 0.06769 0.16842 0.36048 0.0
Co59 Co 0.38166 0.75245 0.34328 0.0
Co60 Co 0.38039 0.74787 0.15539 0.0
O61 O 0.40191 0.7494 0.24872 0.0
C62 C 0.42222 0.63261 0.35919 0.0
O63 O 0.41038 0.60845 0.29851 0.0
C64 C 0.42333 0.86302 0.13992 0.0
O65 O 0.41457 0.88363 0.20477 0.0
O66 O 0.35604 0.8296 0.18338 0.0
O67 O 0.34959 0.81479 0.30402 0.0
H68 H 0.28891 0.7587 0.99224 0.0
H69 H 0.44717 0.78394 0.33516 0.0
O70 O 0.41334 0.68994 0.38475 0.0
H71 H 0.39968 0.99269 0.43498 0.0
H72 H 0.37889 0.76475 0.61794 0.0
H73 H 0.31795 0.74484 0.39281 0.0
H74 H 0.3688 0.89099 0.40516 0.0
H75 H 0.40347 0.76323 0.49717 0.0
O76 O 0.41195 0.80908 0.11173 0.0
H77 H 0.31611 0.75897 0.11008 0.0
H78 H 0.3999 0.73607 1.00014 0.0
H79 H 0.29243 0.74666 0.51236 0.0
H80 H 0.47893 0.88428 0.36486 0.0
H81 H 0.32296 0.75669 0.62603 0.0
H82 H 0.45517 0.98968 0.41495 0.0
O83 O 0.35598 0.67215 0.31695 0.0
H84 H 0.47585 0.61049 0.12926 0.0
H85 H 0.36531 0.61038 0.09345 0.0
H86 H 0.39471 0.50702 0.06197 0.0
H87 H 0.4504 0.50671 0.07972 0.0
H88 H 0.44554 0.71258 0.16054 0.0
H89 H 0.37362 0.7361 0.88103 0.0
H90 H 0.31771 0.7472 0.87661 0.0
O91 O 0.3483 0.68706 0.19661 0.0
C92 C 0.34296 0.84382 0.24353 0.0
C93 C 0.31327 0.75357 0.99346 0.0
C94 C 0.36082 0.74097 0.93104 0.0
N95 N 0.35952 0.74687 0.06202 0.0
C96 C 0.32879 0.75348 0.06003 0.0
C97 C 0.37557 0.7411 0.99863 0.0
C98 C 0.32944 0.74719 0.9286 0.0
C99 C 0.43671 0.82938 0.35764 0.0
N100 N 0.4062 0.83149 0.36873 0.0
C101 C 0.45479 0.88614 0.37405 0.0
C102 C 0.44144 0.9453 0.40203 0.0
C103 C 0.4103 0.94705 0.41322 0.0
C104 C 0.39292 0.88936 0.39606 0.0
C105 C 0.36533 0.76055 0.56879 0.0
C106 C 0.33138 0.7497 0.44198 0.0
C107 C 0.37913 0.75957 0.50027 0.0
N108 N 0.36213 0.75465 0.43797 0.0
C109 C 0.3168 0.75048 0.50954 0.0
C110 C 0.33395 0.75604 0.5733 0.0
C111 C 0.3421 0.65841 0.25747 0.0
C112 C 0.45161 0.61008 0.12105 0.0
C113 C 0.38953 0.61058 0.10148 0.0
C114 C 0.40606 0.55195 0.08342 0.0
C115 C 0.43731 0.55183 0.09336 0.0
N116 N 0.40374 0.66758 0.12839 0.0
C117 C 0.43435 0.66782 0.1384 0.0
Co118 Co 0.88082 0.74769 0.84537 0.0
Co119 Co 0.88055 0.74942 0.65739 0.0
O120 O 0.90173 0.74835 0.75138 0.0
C121 C 0.92386 0.86315 0.85904 0.0
O122 O 0.91497 0.88307 0.7939 0.0
C123 C 0.92327 0.63335 0.64359 0.0
O124 O 0.9145 0.61337 0.70865 0.0
O125 O 0.85586 0.66846 0.68585 0.0
O126 O 0.84843 0.68631 0.80565 0.0
H127 H 0.78959 0.73819 0.49256 0.0
H128 H 0.94602 0.71285 0.84038 0.0
O129 O 0.91258 0.80946 0.88776 0.0
H130 H 0.89584 0.5079 0.94131 0.0
H131 H 0.87574 0.73913 0.11999 0.0
H132 H 0.81685 0.75947 0.89178 0.0
H133 H 0.86617 0.61068 0.90876 0.0
H134 H 0.90129 0.73751 1.00041 0.0
O135 O 0.912 0.68718 0.61495 0.0
H136 H 0.8164 0.73886 0.61092 0.0
H137 H 0.90062 0.75932 0.50236 0.0
H138 H 0.79037 0.76083 0.01012 0.0
H139 H 0.9766 0.61138 0.87282 0.0
H140 H 0.81987 0.75061 0.12534 0.0
H141 H 0.95148 0.50789 0.92349 0.0
O142 O 0.85633 0.82904 0.8169 0.0
H143 H 0.97673 0.88405 0.63001 0.0
H144 H 0.8662 0.88673 0.59405 0.0
H145 H 0.89613 0.98898 0.56153 0.0
H146 H 0.95182 0.98799 0.57936 0.0
H147 H 0.94588 0.78312 0.66241 0.0
H148 H 0.87474 0.75834 0.38277 0.0
H149 H 0.81881 0.74798 0.37738 0.0
O150 O 0.84848 0.81136 0.69712 0.0
C151 C 0.84216 0.65604 0.74561 0.0
C152 C 0.81396 0.74299 0.4942 0.0
C153 C 0.86175 0.75422 0.43258 0.0
N154 N 0.86001 0.74979 0.56358 0.0
C155 C 0.82926 0.74361 0.56107 0.0
C156 C 0.87628 0.75464 0.50045 0.0
C157 C 0.83037 0.74842 0.42959 0.0
C158 C 0.93498 0.66825 0.8631 0.0
N159 N 0.90438 0.6678 0.87299 0.0
C160 C 0.95239 0.61085 0.88106 0.0
C161 C 0.93827 0.55275 0.90937 0.0
C162 C 0.90705 0.5527 0.91932 0.0
C163 C 0.89036 0.61099 0.90062 0.0
C164 C 0.86263 0.74344 0.07017 0.0
C165 C 0.82982 0.75451 0.94165 0.0
C166 C 0.87697 0.74264 0.00231 0.0
N167 N 0.86054 0.74773 0.93916 0.0
C168 C 0.81471 0.75553 0.00851 0.0
C169 C 0.83128 0.74987 0.07313 0.0
C170 C 0.8425 0.84174 0.75717 0.0
C171 C 0.95249 0.88502 0.62176 0.0
C172 C 0.89041 0.88599 0.6022 0.0
C173 C 0.90725 0.94398 0.58351 0.0
C174 C 0.9385 0.94337 0.59347 0.0
N175 N 0.90431 0.82892 0.62981 0.0
C176 C 0.93493 0.82792 0.63971 0.0
Co177 Co 0.62211 0.24663 0.65594 0.0
Co178 Co 0.62154 0.25073 0.8439 0.0
O179 O 0.60095 0.24796 0.7494 0.0
C180 C 0.5793 0.36217 0.64097 0.0
O181 O 0.58822 0.38248 0.70596 0.0
C182 C 0.58104 0.13073 0.85965 0.0
O183 O 0.5927 0.10653 0.79899 0.0
O184 O 0.64721 0.17059 0.81716 0.0
O185 O 0.65425 0.18549 0.69671 0.0
H186 H 0.7114 0.24523 0.01257 0.0
H187 H 0.55694 0.21178 0.66134 0.0
O188 O 0.59051 0.30821 0.61264 0.0
H189 H 0.60709 0.00618 0.56172 0.0
H190 H 0.62786 0.23574 0.38151 0.0
H191 H 0.68624 0.25737 0.61038 0.0
H192 H 0.63676 0.10925 0.59335 0.0
H193 H 0.60201 0.2355 0.50073 0.0
O194 O 0.59004 0.18801 0.88526 0.0
H195 H 0.68545 0.24349 0.89312 0.0
H196 H 0.60028 0.26078 0.99793 0.0
H197 H 0.71301 0.2573 0.49241 0.0
H198 H 0.52636 0.10999 0.62991 0.0
H199 H 0.68377 0.24642 0.37687 0.0
H200 H 0.55147 0.00619 0.57985 0.0
O201 O 0.64669 0.32811 0.68411 0.0
H202 H 0.52425 0.38208 0.86627 0.0
H203 H 0.6345 0.38911 0.90634 0.0
H204 H 0.60366 0.49057 0.93666 0.0
H205 H 0.5481 0.4874 0.91676 0.0
H206 H 0.55598 0.282 0.83606 0.0
H207 H 0.6253 0.2622 0.11859 0.0
H208 H 0.68127 0.25466 0.1264 0.0
O209 O 0.65341 0.31336 0.80477 0.0
C210 C 0.66074 0.1568 0.75745 0.0
C211 C 0.68701 0.24881 0.00987 0.0
C212 C 0.63868 0.25825 0.06937 0.0
N213 N 0.64141 0.25271 0.93852 0.0
C214 C 0.67219 0.24806 0.94237 0.0
C215 C 0.62464 0.25731 0.00091 0.0
C216 C 0.67009 0.25403 0.07372 0.0
C217 C 0.56797 0.16701 0.63896 0.0
N218 N 0.59855 0.1666 0.62875 0.0
C219 C 0.55057 0.10944 0.62154 0.0
C220 C 0.56468 0.05118 0.59355 0.0
C221 C 0.59589 0.05113 0.5834 0.0
C222 C 0.61257 0.1096 0.60154 0.0
C223 C 0.64085 0.24034 0.43148 0.0
C224 C 0.67338 0.25216 0.56037 0.0
C225 C 0.62634 0.24035 0.49913 0.0
N226 N 0.64263 0.2458 0.56246 0.0
C227 C 0.68865 0.25236 0.49372 0.0
C228 C 0.67223 0.24632 0.42892 0.0
C229 C 0.65987 0.34244 0.74432 0.0
C230 C 0.54842 0.38401 0.87541 0.0
C231 C 0.61036 0.38741 0.89729 0.0
C232 C 0.593 0.44496 0.91474 0.0
C233 C 0.56182 0.44312 0.90361 0.0
N234 N 0.59703 0.32958 0.86974 0.0
C235 C 0.56648 0.32739 0.85871 0.0
H236 H 0.32267 0.92484 0.13035 0.0
H237 H 0.30432 0.87215 0.35534 0.0
H238 H 0.27857 0.0002 0.1295 0.0
H239 H 0.25985 0.94411 0.35333 0.0
H240 H 0.18037 0.07618 0.1316 0.0
H241 H 0.22456 0.00104 0.13012 0.0
H242 H 0.24484 0.0587 0.35308 0.0
H243 H 0.20032 0.13043 0.35574 0.0
C244 C 0.3093 0.9293 0.17959 0.0
C245 C 0.31725 0.89269 0.24303 0.0
C246 C 0.2838 0.97195 0.17887 0.0
C247 C 0.26555 0.97844 0.24136 0.0
C248 C 0.2736 0.94169 0.30459 0.0
C249 C 0.29917 0.89992 0.3056 0.0
C250 C 0.19412 0.07215 0.18049 0.0
C251 C 0.18658 0.10909 0.24391 0.0
C252 C 0.21965 0.02962 0.17942 0.0
C253 C 0.23835 0.02359 0.24151 0.0
C254 C 0.23074 0.06075 0.30466 0.0
C255 C 0.20514 0.10239 0.30604 0.0
H256 H 0.18067 0.4235 0.37301 0.0
H257 H 0.19942 0.37102 0.14811 0.0
H258 H 0.22459 0.49954 0.37412 0.0
H259 H 0.24365 0.44367 0.15037 0.0
H260 H 0.30212 0.6314 0.14747 0.0
H261 H 0.25781 0.55903 0.15065 0.0
H262 H 0.27878 0.50143 0.3732 0.0
H263 H 0.3228 0.57714 0.37119 0.0
C264 C 0.19409 0.42812 0.32388 0.0
C265 C 0.18629 0.39144 0.26034 0.0
C266 C 0.21947 0.47117 0.32474 0.0
C267 C 0.23772 0.47802 0.26228 0.0
C268 C 0.22987 0.44102 0.19906 0.0
C269 C 0.20444 0.39885 0.19791 0.0
C270 C 0.2975 0.60327 0.1972 0.0
C271 C 0.31622 0.61006 0.25903 0.0
C272 C 0.27202 0.56126 0.19888 0.0
C273 C 0.26469 0.52384 0.26203 0.0
C274 C 0.28349 0.53014 0.3239 0.0
C275 C 0.30892 0.57301 0.32252 0.0
H276 H 0.68144 0.07748 0.87166 0.0
H277 H 0.6992 0.12732 0.64562 0.0
H278 H 0.72546 0.0018 0.87272 0.0
H279 H 0.74352 0.05493 0.64776 0.0
H280 H 0.80239 0.86721 0.64693 0.0
H281 H 0.75803 0.93962 0.64949 0.0
H282 H 0.77961 0.00096 0.87061 0.0
H283 H 0.82364 0.92538 0.86927 0.0
C284 C 0.69466 0.07236 0.82226 0.0
C285 C 0.68657 0.10825 0.75847 0.0
C286 C 0.7201 0.02951 0.82307 0.0
C287 C 0.73811 0.02205 0.76029 0.0
C288 C 0.72994 0.05814 0.69675 0.0
C289 C 0.70447 0.10017 0.69568 0.0
C290 C 0.79789 0.89624 0.69617 0.0
C291 C 0.81676 0.89048 0.75785 0.0
C292 C 0.77239 0.93822 0.6975 0.0
C293 C 0.76519 0.97657 0.76015 0.0
C294 C 0.7842 0.97146 0.82175 0.0
C295 C 0.80964 0.92867 0.82072 0.0
H296 H 0.82294 0.57178 0.63407 0.0
H297 H 0.80198 0.63235 0.85546 0.0
H298 H 0.77865 0.49699 0.63285 0.0
H299 H 0.75734 0.56078 0.85298 0.0
H300 H 0.68062 0.42133 0.6303 0.0
H301 H 0.72464 0.49691 0.62971 0.0
H302 H 0.74217 0.44605 0.85581 0.0
H303 H 0.69779 0.37372 0.85744 0.0
C304 C 0.80894 0.5692 0.68243 0.0
C305 C 0.81622 0.60781 0.74501 0.0
C306 C 0.78335 0.52687 0.68147 0.0
C307 C 0.76432 0.52268 0.74283 0.0
C308 C 0.77169 0.56146 0.80519 0.0
C309 C 0.79735 0.60296 0.80646 0.0
C310 C 0.6937 0.42698 0.68008 0.0
C311 C 0.68547 0.39162 0.74399 0.0
C312 C 0.71915 0.46976 0.67953 0.0
C313 C 0.73707 0.4777 0.74269 0.0
C314 C 0.72869 0.44241 0.80647 0.0
C315 C 0.70318 0.40043 0.80727 0.0
H316 H 0.04549 0.17781 0.02841 0.0
H317 H 0.06385 -3e-05 0.16223 0.0
H318 H 0.00736 0.11342 0.96119 0.0
H319 H 0.02663 0.93444 0.09299 0.0
H320 H 0.93737 0.85486 0.00428 0.0
H321 H 0.97457 0.92077 0.07263 0.0
H322 H 1.00055 0.0256 0.87433 0.0
H323 H 0.96229 0.96148 0.80659 0.0
C324 C 0.04153 0.12472 0.04316 0.0
C325 C 0.05771 0.09402 0.10075 0.0
C326 C 0.01978 0.08755 0.00417 0.0
C327 C 0.01386 0.01843 0.02121 0.0
C328 C 0.03013 0.9878 0.07891 0.0
C329 C 0.05165 0.02527 0.11847 0.0
C330 C 0.95102 0.89202 0.97524 0.0
C331 C 0.94683 0.90302 0.89999 0.0
C332 C 0.97255 0.9296 0.01443 0.0
C333 C 0.99077 0.9786 0.97924 0.0
C334 C 0.98664 0.98925 0.90371 0.0
C335 C 0.96481 0.9522 0.86465 0.0
H336 H 0.54493 0.17596 0.97025 0.0
H337 H 0.56415 0.99685 0.83926 0.0
H338 H 0.50669 0.11199 0.03671 0.0
H339 H 0.52676 0.9317 0.90786 0.0
H340 H 0.43723 0.85252 0.99517 0.0
H341 H 0.4746 0.91758 0.92696 0.0
H342 H 0.50001 0.02525 0.12448 0.0
H343 H 0.46164 0.96201 0.19195 0.0
C344 C 0.54114 0.12267 0.95598 0.0
C345 C 0.55761 0.09148 0.89942 0.0
C346 C 0.51931 0.08574 0.99454 0.0
C347 C 0.5136 0.01636 0.97816 0.0
C348 C 0.53013 0.98525 0.92142 0.0
C349 C 0.55173 0.0225 0.88224 0.0
C350 C 0.45079 0.89014 0.02403 0.0
C351 C 0.4464 0.90224 0.09897 0.0
C352 C 0.47241 0.92722 0.98495 0.0
C353 C 0.49049 0.97682 0.01996 0.0
C354 C 0.48619 0.98846 0.0952 0.0
C355 C 0.46428 0.95191 0.13411 0.0
H356 H 0.9369 0.64266 0.49869 0.0
H357 H 0.96156 0.53439 0.69597 0.0
H358 H 0.97421 0.5774 0.43065 0.0
H359 H 0.99993 0.47089 0.62857 0.0
H360 H 0.04535 0.32037 0.47423 0.0
H361 H 0.00702 0.38392 0.54104 0.0
H362 H 0.02632 0.56417 0.41155 0.0
H363 H 0.06374 0.49947 0.34266 0.0
C364 C 0.9505 0.60525 0.52771 0.0
C365 C 0.94622 0.59363 0.60276 0.0
C366 C 0.9721 0.56805 0.48871 0.0
C367 C 0.9903 0.51879 0.52388 0.0
C368 C 0.98605 0.50746 0.59919 0.0
C369 C 0.96415 0.54416 0.63806 0.0
C370 C 0.04136 0.37355 0.45991 0.0
C371 C 0.0576 0.40485 0.40305 0.0
C372 C 0.01949 0.41025 0.49866 0.0
C373 C 0.01351 0.47947 0.48214 0.0
C374 C 0.02986 0.5107 0.42519 0.0
C375 C 0.05149 0.47371 0.38584 0.0
H376 H 0.45844 0.67724 0.4705 0.0
H377 H 0.43889 0.49872 0.33855 0.0
H378 H 0.49656 0.61268 0.53741 0.0
H379 H 0.47614 0.43301 0.40755 0.0
H380 H 0.56545 0.3526 0.49594 0.0
H381 H 0.52828 0.41844 0.42738 0.0
H382 H 0.50303 0.52546 0.625 0.0
H383 H 0.54122 0.46139 0.69288 0.0
C384 C 0.46214 0.62397 0.45609 0.0
C385 C 0.44562 0.59311 0.39915 0.0
C386 C 0.48389 0.5867 0.49491 0.0
C387 C 0.48946 0.51732 0.47838 0.0
C388 C 0.47288 0.48655 0.42124 0.0
C389 C 0.45136 0.52412 0.38182 0.0
C390 C 0.55196 0.39023 0.52477 0.0
C391 C 0.55634 0.40189 0.59985 0.0
C392 C 0.53046 0.42777 0.48548 0.0
C393 C 0.51248 0.4774 0.52042 0.0
C394 C 0.51677 0.48863 0.5958 0.0
C395 C 0.53857 0.45162 0.63494 0.0
loop_
_geom_bond_atom_site_label_1
_geom_bond_atom_site_label_2
_geom_bond_distance
_geom_bond_site_symmetry_2
_ccdc_geom_bond_type
Co0 O2 2.143 . S
Co0 O8 2.074 . S
Co0 O11 2.093 . S
Co0 O24 2.097 . S
Co0 N41 2.151 . S
Co0 N49 2.214 . S
Co1 O2 2.160 . S
Co1 O7 2.058 . S
Co1 O17 2.057 . S
Co1 O32 2.037 . S
Co1 N36 2.145 . S
Co1 N57 2.257 . S
O2 Co0 2.143 . S
O2 Co1 2.160 . S
C3 O4 1.278 . S
C3 O11 1.224 . S
O4 C3 1.278 . S
C5 O6 1.245 . S
C5 O17 1.232 . S
O6 C5 1.245 . S
O7 Co1 2.058 . S
O7 C33 1.269 . S
O8 Co0 2.074 . S
O8 C33 1.257 . S
H9 C34 0.930 . S
H10 C40 0.930 . S
O11 Co0 2.093 . S
O11 C3 1.224 . S
H12 C44 0.929 1_556 S
H13 C46 0.930 . S
H14 C47 0.930 . S
H15 C45 0.929 . S
H16 C48 0.928 . S
O17 Co1 2.057 . S
O17 C5 1.232 . S
H18 C37 0.929 . S
H19 C38 0.929 . S
H20 C50 0.931 . S
H21 C42 0.929 . S
H22 C51 0.930 . S
H23 C43 0.931 . S
O24 Co0 2.097 . S
O24 C52 1.214 . S
H25 C53 0.929 . S
H26 C54 0.929 . S
H27 C55 0.930 . S
H28 C56 0.929 . S
H29 C58 0.930 . S
H30 C35 0.930 . S
H31 C39 0.930 . S
O32 Co1 2.037 . S
O32 C52 1.234 . S
C33 O7 1.269 . S
C33 O8 1.257 . S
C34 H9 0.930 . S
C34 C37 1.388 . S
C34 C39 1.418 . S
C35 H30 0.930 . S
C35 C38 1.404 . S
C35 C39 1.353 . S
N36 Co1 2.145 . S
N36 C37 1.397 . S
N36 C38 1.334 . S
C37 H18 0.929 . S
C37 C34 1.388 . S
C37 N36 1.397 . S
C38 H19 0.929 . S
C38 C35 1.404 . S
C38 N36 1.334 . S
C39 H31 0.930 . S
C39 C34 1.418 . S
C39 C35 1.353 . S
C40 H10 0.930 . S
C40 N41 1.330 . S
C40 C42 1.446 . S
N41 Co0 2.151 . S
N41 C40 1.330 . S
N41 C45 1.418 . S
C42 H21 0.929 . S
C42 C40 1.446 . S
C42 C43 1.332 1_554 S
C43 H23 0.931 . S
C43 C42 1.332 1_556 S
C43 C44 1.267 1_556 S
C44 H12 0.929 1_554 S
C44 C43 1.267 1_554 S
C44 C45 1.251 . S
C45 H15 0.929 . S
C45 N41 1.418 . S
C45 C44 1.251 . S
C46 H13 0.930 . S
C46 C48 1.406 . S
C46 C51 1.261 . S
C47 H14 0.930 . S
C47 N49 1.325 . S
C47 C50 1.357 . S
C48 H16 0.928 . S
C48 C46 1.406 . S
C48 N49 1.261 1_556 S
N49 Co0 2.214 . S
N49 C47 1.325 . S
N49 C48 1.261 1_554 S
C50 H20 0.931 . S
C50 C47 1.357 . S
C50 C51 1.312 1_554 S
C51 H22 0.930 . S
C51 C46 1.261 . S
C51 C50 1.312 1_556 S
C52 O24 1.214 . S
C52 O32 1.234 . S
C53 H25 0.929 . S
C53 C56 1.391 . S
C53 C58 1.391 . S
C54 H26 0.929 . S
C54 C55 1.390 . S
C54 N57 1.391 . S
C55 H27 0.930 . S
C55 C54 1.390 . S
C55 C56 1.392 . S
C56 H28 0.929 . S
C56 C53 1.391 . S
C56 C55 1.392 . S
N57 Co1 2.257 . S
N57 C54 1.391 . S
N57 C58 1.388 . S
C58 H29 0.930 . S
C58 C53 1.391 . S
C58 N57 1.388 . S
Co59 O61 2.143 . S
Co59 O67 2.074 . S
Co59 O70 2.093 . S
Co59 O83 2.097 . S
Co59 N100 2.151 . S
Co59 N108 2.214 . S
Co60 O61 2.160 . S
Co60 O66 2.058 . S
Co60 O76 2.057 . S
Co60 O91 2.037 . S
Co60 N95 2.145 . S
Co60 N116 2.257 . S
O61 Co59 2.143 . S
O61 Co60 2.160 . S
C62 O63 1.278 . S
C62 O70 1.224 . S
O63 C62 1.278 . S
C64 O65 1.245 . S
C64 O76 1.232 . S
O65 C64 1.245 . S
O66 Co60 2.058 . S
O66 C92 1.269 . S
O67 Co59 2.074 . S
O67 C92 1.257 . S
H68 C93 0.930 . S
H69 C99 0.930 . S
O70 Co59 2.093 . S
O70 C62 1.224 . S
H71 C103 0.929 . S
H72 C105 0.930 . S
H73 C106 0.930 . S
H74 C104 0.929 . S
H75 C107 0.928 . S
O76 Co60 2.057 . S
O76 C64 1.232 . S
H77 C96 0.929 . S
H78 C97 0.929 . S
H79 C109 0.931 . S
H80 C101 0.929 . S
H81 C110 0.930 . S
H82 C102 0.931 . S
O83 Co59 2.097 . S
O83 C111 1.214 . S
H84 C112 0.929 . S
H85 C113 0.929 . S
H86 C114 0.930 . S
H87 C115 0.929 . S
H88 C117 0.930 . S
H89 C94 0.930 . S
H90 C98 0.930 . S
O91 Co60 2.037 . S
O91 C111 1.234 . S
C92 O66 1.269 . S
C92 O67 1.257 . S
C93 H68 0.930 . S
C93 C96 1.388 1_556 S
C93 C98 1.418 . S
C94 H89 0.930 . S
C94 C97 1.404 . S
C94 C98 1.353 . S
N95 Co60 2.145 . S
N95 C96 1.397 . S
N95 C97 1.334 1_554 S
C96 H77 0.929 . S
C96 C93 1.388 1_554 S
C96 N95 1.397 . S
C97 H78 0.929 . S
C97 C94 1.404 . S
C97 N95 1.334 1_556 S
C98 H90 0.930 . S
C98 C93 1.418 . S
C98 C94 1.353 . S
C99 H69 0.930 . S
C99 N100 1.330 . S
C99 C101 1.446 . S
N100 Co59 2.151 . S
N100 C99 1.330 . S
N100 C104 1.418 . S
C101 H80 0.929 . S
C101 C99 1.446 . S
C101 C102 1.332 . S
C102 H82 0.931 . S
C102 C101 1.332 . S
C102 C103 1.267 . S
C103 H71 0.929 . S
C103 C102 1.267 . S
C103 C104 1.251 . S
C104 H74 0.929 . S
C104 N100 1.418 . S
C104 C103 1.251 . S
C105 H72 0.930 . S
C105 C107 1.406 . S
C105 C110 1.261 . S
C106 H73 0.930 . S
C106 N108 1.325 . S
C106 C109 1.357 . S
C107 H75 0.928 . S
C107 C105 1.406 . S
C107 N108 1.261 . S
N108 Co59 2.214 . S
N108 C106 1.325 . S
N108 C107 1.261 . S
C109 H79 0.931 . S
C109 C106 1.357 . S
C109 C110 1.312 . S
C110 H81 0.930 . S
C110 C105 1.261 . S
C110 C109 1.312 . S
C111 O83 1.214 . S
C111 O91 1.234 . S
C112 H84 0.929 . S
C112 C115 1.391 . S
C112 C117 1.391 . S
C113 H85 0.929 . S
C113 C114 1.390 . S
C113 N116 1.391 . S
C114 H86 0.930 . S
C114 C113 1.390 . S
C114 C115 1.392 . S
C115 H87 0.929 . S
C115 C112 1.391 . S
C115 C114 1.392 . S
N116 Co60 2.257 . S
N116 C113 1.391 . S
N116 C117 1.388 . S
C117 H88 0.930 . S
C117 C112 1.391 . S
C117 N116 1.388 . S
Co118 O120 2.143 . S
Co118 O126 2.074 . S
Co118 O129 2.093 . S
Co118 O142 2.097 . S
Co118 N159 2.151 . S
Co118 N167 2.214 . S
Co119 O120 2.160 . S
Co119 O125 2.058 . S
Co119 O135 2.057 . S
Co119 O150 2.037 . S
Co119 N154 2.145 . S
Co119 N175 2.257 . S
O120 Co118 2.143 . S
O120 Co119 2.160 . S
C121 O122 1.278 . S
C121 O129 1.224 . S
O122 C121 1.278 . S
C123 O124 1.245 . S
C123 O135 1.232 . S
O124 C123 1.245 . S
O125 Co119 2.058 . S
O125 C151 1.269 . S
O126 Co118 2.074 . S
O126 C151 1.257 . S
H127 C152 0.930 . S
H128 C158 0.930 . S
O129 Co118 2.093 . S
O129 C121 1.224 . S
H130 C162 0.929 1_554 S
H131 C164 0.930 . S
H132 C165 0.930 . S
H133 C163 0.929 . S
H134 C166 0.928 . S
O135 Co119 2.057 . S
O135 C123 1.232 . S
H136 C155 0.929 . S
H137 C156 0.929 . S
H138 C168 0.931 . S
H139 C160 0.929 . S
H140 C169 0.930 . S
H141 C161 0.931 . S
O142 Co118 2.097 . S
O142 C170 1.214 . S
H143 C171 0.929 . S
H144 C172 0.929 . S
H145 C173 0.930 . S
H146 C174 0.929 . S
H147 C176 0.930 . S
H148 C153 0.930 . S
H149 C157 0.930 . S
O150 Co119 2.037 . S
O150 C170 1.234 . S
C151 O125 1.269 . S
C151 O126 1.257 . S
C152 H127 0.930 . S
C152 C155 1.388 . S
C152 C157 1.418 . S
C153 H148 0.930 . S
C153 C156 1.404 . S
C153 C157 1.353 . S
N154 Co119 2.145 . S
N154 C155 1.397 . S
N154 C156 1.334 . S
C155 H136 0.929 . S
C155 C152 1.388 . S
C155 N154 1.397 . S
C156 H137 0.929 . S
C156 C153 1.404 . S
C156 N154 1.334 . S
C157 H149 0.930 . S
C157 C152 1.418 . S
C157 C153 1.353 . S
C158 H128 0.930 . S
C158 N159 1.330 . S
C158 C160 1.446 . S
N159 Co118 2.151 . S
N159 C158 1.330 . S
N159 C163 1.418 . S
C160 H139 0.929 . S
C160 C158 1.446 . S
C160 C161 1.332 1_556 S
C161 H141 0.931 . S
C161 C160 1.332 1_554 S
C161 C162 1.267 1_554 S
C162 H130 0.929 1_556 S
C162 C161 1.267 1_556 S
C162 C163 1.251 . S
C163 H133 0.929 . S
C163 N159 1.418 . S
C163 C162 1.251 . S
C164 H131 0.930 . S
C164 C166 1.406 . S
C164 C169 1.261 . S
C165 H132 0.930 . S
C165 N167 1.325 . S
C165 C168 1.357 . S
C166 H134 0.928 . S
C166 C164 1.406 . S
C166 N167 1.261 1_554 S
N167 Co118 2.214 . S
N167 C165 1.325 . S
N167 C166 1.261 1_556 S
C168 H138 0.931 . S
C168 C165 1.357 . S
C168 C169 1.312 1_556 S
C169 H140 0.930 . S
C169 C164 1.261 . S
C169 C168 1.312 1_554 S
C170 O142 1.214 . S
C170 O150 1.234 . S
C171 H143 0.929 . S
C171 C174 1.391 . S
C171 C176 1.391 . S
C172 H144 0.929 . S
C172 C173 1.390 . S
C172 N175 1.391 . S
C173 H145 0.930 . S
C173 C172 1.390 . S
C173 C174 1.392 . S
C174 H146 0.929 . S
C174 C171 1.391 . S
C174 C173 1.392 . S
N175 Co119 2.257 . S
N175 C172 1.391 . S
N175 C176 1.388 . S
C176 H147 0.930 . S
C176 C171 1.391 . S
C176 N175 1.388 . S
Co177 O179 2.143 . S
Co177 O185 2.074 . S
Co177 O188 2.093 . S
Co177 O201 2.097 . S
Co177 N218 2.151 . S
Co177 N226 2.214 . S
Co178 O179 2.160 . S
Co178 O184 2.058 . S
Co178 O194 2.057 . S
Co178 O209 2.037 . S
Co178 N213 2.145 . S
Co178 N234 2.257 . S
O179 Co177 2.143 . S
O179 Co178 2.160 . S
C180 O181 1.278 . S
C180 O188 1.224 . S
O181 C180 1.278 . S
C182 O183 1.245 . S
C182 O194 1.232 . S
O183 C182 1.245 . S
O184 Co178 2.058 . S
O184 C210 1.269 . S
O185 Co177 2.074 . S
O185 C210 1.257 . S
H186 C211 0.930 . S
H187 C217 0.930 . S
O188 Co177 2.093 . S
O188 C180 1.224 . S
H189 C221 0.929 . S
H190 C223 0.930 . S
H191 C224 0.930 . S
H192 C222 0.929 . S
H193 C225 0.928 . S
O194 Co178 2.057 . S
O194 C182 1.232 . S
H195 C214 0.929 . S
H196 C215 0.929 . S
H197 C227 0.931 . S
H198 C219 0.929 . S
H199 C228 0.930 . S
H200 C220 0.931 . S
O201 Co177 2.097 . S
O201 C229 1.214 . S
H202 C230 0.929 . S
H203 C231 0.929 . S
H204 C232 0.930 . S
H205 C233 0.929 . S
H206 C235 0.930 . S
H207 C212 0.930 . S
H208 C216 0.930 . S
O209 Co178 2.037 . S
O209 C229 1.234 . S
C210 O184 1.269 . S
C210 O185 1.257 . S
C211 H186 0.930 . S
C211 C214 1.388 1_554 S
C211 C216 1.418 . S
C212 H207 0.930 . S
C212 C215 1.404 . S
C212 C216 1.353 . S
N213 Co178 2.145 . S
N213 C214 1.397 . S
N213 C215 1.334 1_556 S
C214 H195 0.929 . S
C214 C211 1.388 1_556 S
C214 N213 1.397 . S
C215 H196 0.929 . S
C215 C212 1.404 . S
C215 N213 1.334 1_554 S
C216 H208 0.930 . S
C216 C211 1.418 . S
C216 C212 1.353 . S
C217 H187 0.930 . S
C217 N218 1.330 . S
C217 C219 1.446 . S
N218 Co177 2.151 . S
N218 C217 1.330 . S
N218 C222 1.418 . S
C219 H198 0.929 . S
C219 C217 1.446 . S
C219 C220 1.332 . S
C220 H200 0.931 . S
C220 C219 1.332 . S
C220 C221 1.267 . S
C221 H189 0.929 . S
C221 C220 1.267 . S
C221 C222 1.251 . S
C222 H192 0.929 . S
C222 N218 1.418 . S
C222 C221 1.251 . S
C223 H190 0.930 . S
C223 C225 1.406 . S
C223 C228 1.261 . S
C224 H191 0.930 . S
C224 N226 1.325 . S
C224 C227 1.357 . S
C225 H193 0.928 . S
C225 C223 1.406 . S
C225 N226 1.261 . S
N226 Co177 2.214 . S
N226 C224 1.325 . S
N226 C225 1.261 . S
C227 H197 0.931 . S
C227 C224 1.357 . S
C227 C228 1.312 . S
C228 H199 0.930 . S
C228 C223 1.261 . S
C228 C227 1.312 . S
C229 O201 1.214 . S
C229 O209 1.234 . S
C230 H202 0.929 . S
C230 C233 1.391 . S
C230 C235 1.391 . S
C231 H203 0.929 . S
C231 C232 1.390 . S
C231 N234 1.391 . S
C232 H204 0.930 . S
C232 C231 1.390 . S
C232 C233 1.392 . S
C233 H205 0.929 . S
C233 C230 1.391 . S
C233 C232 1.392 . S
N234 Co178 2.257 . S
N234 C231 1.391 . S
N234 C235 1.388 . S
C235 H206 0.930 . S
C235 C230 1.391 . S
C235 N234 1.388 . S
H236 C244 0.950 . S
H237 C249 0.950 . S
H238 C246 0.950 1_545 S
H239 C248 0.950 . S
H240 C250 0.950 . S
H241 C252 0.950 1_565 S
H242 C254 0.950 . S
H243 C255 0.950 . S
C244 H236 0.950 . S
C244 C245 1.386 . S
C244 C246 1.391 . S
C245 C244 1.386 . S
C245 C249 1.393 . S
C246 H238 0.950 1_565 S
C246 C244 1.391 . S
C246 C247 1.400 . S
C247 C246 1.400 . S
C247 C248 1.398 . S
C247 C253 1.491 1_565 S
C248 H239 0.950 . S
C248 C247 1.398 . S
C248 C249 1.391 . S
C249 H237 0.950 . S
C249 C245 1.393 . S
C249 C248 1.391 . S
C250 H240 0.950 . S
C250 C251 1.386 . S
C250 C252 1.391 . S
C251 C250 1.386 . S
C251 C255 1.393 . S
C252 H241 0.950 1_545 S
C252 C250 1.391 . S
C252 C253 1.400 . S
C253 C247 1.491 1_545 S
C253 C252 1.400 . S
C253 C254 1.398 . S
C254 H242 0.950 . S
C254 C253 1.398 . S
C254 C255 1.391 . S
C255 H243 0.950 . S
C255 C251 1.393 . S
C255 C254 1.391 . S
H256 C264 0.950 . S
H257 C269 0.950 . S
H258 C266 0.950 . S
H259 C268 0.950 . S
H260 C270 0.950 . S
H261 C272 0.950 . S
H262 C274 0.950 . S
H263 C275 0.950 . S
C264 H256 0.950 . S
C264 C265 1.386 . S
C264 C266 1.391 . S
C265 C264 1.386 . S
C265 C269 1.393 . S
C266 H258 0.950 . S
C266 C264 1.391 . S
C266 C267 1.400 . S
C267 C266 1.400 . S
C267 C268 1.398 . S
C267 C273 1.491 . S
C268 H259 0.950 . S
C268 C267 1.398 . S
C268 C269 1.391 . S
C269 H257 0.950 . S
C269 C265 1.393 . S
C269 C268 1.391 . S
C270 H260 0.950 . S
C270 C271 1.386 . S
C270 C272 1.391 . S
C271 C270 1.386 . S
C271 C275 1.393 . S
C272 H261 0.950 . S
C272 C270 1.391 . S
C272 C273 1.400 . S
C273 C267 1.491 . S
C273 C272 1.400 . S
C273 C274 1.398 . S
C274 H262 0.950 . S
C274 C273 1.398 . S
C274 C275 1.391 . S
C275 H263 0.950 . S
C275 C271 1.393 . S
C275 C274 1.391 . S
H276 C284 0.950 . S
H277 C289 0.950 . S
H278 C286 0.950 . S
H279 C288 0.950 1_565 S
H280 C290 0.950 . S
H281 C292 0.950 . S
H282 C294 0.950 1_545 S
H283 C295 0.950 . S
C284 H276 0.950 . S
C284 C285 1.386 . S
C284 C286 1.391 . S
C285 C284 1.386 . S
C285 C289 1.393 . S
C286 H278 0.950 . S
C286 C284 1.391 . S
C286 C287 1.400 . S
C287 C286 1.400 . S
C287 C288 1.398 . S
C287 C293 1.491 1_545 S
C288 H279 0.950 1_545 S
C288 C287 1.398 . S
C288 C289 1.391 . S
C289 H277 0.950 . S
C289 C285 1.393 . S
C289 C288 1.391 . S
C290 H280 0.950 . S
C290 C291 1.386 . S
C290 C292 1.391 . S
C291 C290 1.386 . S
C291 C295 1.393 . S
C292 H281 0.950 . S
C292 C290 1.391 . S
C292 C293 1.400 . S
C293 C287 1.491 1_565 S
C293 C292 1.400 . S
C293 C294 1.398 . S
C294 H282 0.950 1_565 S
C294 C293 1.398 . S
C294 C295 1.391 . S
C295 H283 0.950 . S
C295 C291 1.393 . S
C295 C294 1.391 . S
H296 C304 0.950 . S
H297 C309 0.950 . S
H298 C306 0.950 . S
H299 C308 0.950 . S
H300 C310 0.950 . S
H301 C312 0.950 . S
H302 C314 0.950 . S
H303 C315 0.950 . S
C304 H296 0.950 . S
C304 C305 1.386 . S
C304 C306 1.391 . S
C305 C304 1.386 . S
C305 C309 1.393 . S
C306 H298 0.950 . S
C306 C304 1.391 . S
C306 C307 1.400 . S
C307 C306 1.400 . S
C307 C308 1.398 . S
C307 C313 1.491 . S
C308 H299 0.950 . S
C308 C307 1.398 . S
C308 C309 1.391 . S
C309 H297 0.950 . S
C309 C305 1.393 . S
C309 C308 1.391 . S
C310 H300 0.950 . S
C310 C311 1.386 . S
C310 C312 1.391 . S
C311 C310 1.386 . S
C311 C315 1.393 . S
C312 H301 0.950 . S
C312 C310 1.391 . S
C312 C313 1.400 . S
C313 C307 1.491 . S
C313 C312 1.400 . S
C313 C314 1.398 . S
C314 H302 0.950 . S
C314 C313 1.398 . S
C314 C315 1.391 . S
C315 H303 0.950 . S
C315 C311 1.393 . S
C315 C314 1.391 . S
H316 C324 0.950 . S
H317 C329 0.950 . S
H318 C326 0.950 1_565 S
H319 C328 0.964 . S
H320 C330 0.950 . S
H321 C332 0.950 1_545 S
H322 C334 0.964 . S
H323 C335 0.950 . S
C324 H316 0.950 . S
C324 C325 1.386 . S
C324 C326 1.391 . S
C325 C324 1.386 . S
C325 C329 1.393 . S
C326 H318 0.950 1_545 S
C326 C324 1.391 . S
C326 C327 1.400 . S
C327 C326 1.400 . S
C327 C328 1.394 1_455 S
C327 C333 1.491 1_444 S
C328 H319 0.964 . S
C328 C327 1.394 1_655 S
C328 C329 1.382 1_655 S
C329 H317 0.950 . S
C329 C325 1.393 . S
C329 C328 1.382 1_455 S
C330 H320 0.950 . S
C330 C331 1.386 . S
C330 C332 1.391 . S
C331 C330 1.386 . S
C331 C335 1.393 . S
C332 H321 0.950 1_565 S
C332 C330 1.391 . S
C332 C333 1.400 . S
C333 C327 1.491 1_666 S
C333 C332 1.400 . S
C333 C334 1.394 1_655 S
C334 H322 0.964 . S
C334 C333 1.394 1_455 S
C334 C335 1.382 1_455 S
C335 H323 0.950 . S
C335 C331 1.393 . S
C335 C334 1.382 1_655 S
H336 C344 0.950 . S
H337 C349 0.950 . S
H338 C346 0.950 1_554 S
H339 C348 0.950 . S
H340 C350 0.950 . S
H341 C352 0.950 1_556 S
H342 C354 0.950 . S
H343 C355 0.950 . S
C344 H336 0.950 . S
C344 C345 1.386 . S
C344 C346 1.391 . S
C345 C344 1.386 . S
C345 C349 1.393 . S
C346 H338 0.950 1_556 S
C346 C344 1.391 . S
C346 C347 1.400 . S
C347 C346 1.400 . S
C347 C348 1.398 1_545 S
C347 C353 1.491 1_546 S
C348 H339 0.950 . S
C348 C347 1.398 1_565 S
C348 C349 1.391 1_565 S
C349 H337 0.950 . S
C349 C345 1.393 . S
C349 C348 1.391 1_545 S
C350 H340 0.950 . S
C350 C351 1.386 . S
C350 C352 1.391 . S
C351 C350 1.386 . S
C351 C355 1.393 . S
C352 H341 0.950 1_554 S
C352 C350 1.391 . S
C352 C353 1.400 . S
C353 C347 1.491 1_564 S
C353 C352 1.400 . S
C353 C354 1.398 1_565 S
C354 H342 0.950 . S
C354 C353 1.398 1_545 S
C354 C355 1.391 1_545 S
C355 H343 0.950 . S
C355 C351 1.393 . S
C355 C354 1.391 1_565 S
H356 C364 0.950 . S
H357 C369 0.950 . S
H358 C366 0.950 1_455 S
H359 C368 0.950 . S
H360 C370 0.950 . S
H361 C372 0.950 1_655 S
H362 C374 0.950 . S
H363 C375 0.950 . S
C364 H356 0.950 . S
C364 C365 1.386 . S
C364 C366 1.391 . S
C365 C364 1.386 . S
C365 C369 1.393 . S
C366 H358 0.950 1_655 S
C366 C364 1.391 . S
C366 C367 1.400 . S
C367 C366 1.400 . S
C367 C368 1.398 . S
C367 C373 1.491 1_655 S
C368 H359 0.950 . S
C368 C367 1.398 . S
C368 C369 1.391 . S
C369 H357 0.950 . S
C369 C365 1.393 . S
C369 C368 1.391 . S
C370 H360 0.950 . S
C370 C371 1.386 . S
C370 C372 1.391 . S
C371 C370 1.386 . S
C371 C375 1.393 . S
C372 H361 0.950 1_455 S
C372 C370 1.391 . S
C372 C373 1.400 . S
C373 C367 1.491 1_455 S
C373 C372 1.400 . S
C373 C374 1.398 . S
C374 H362 0.950 . S
C374 C373 1.398 . S
C374 C375 1.391 . S
C375 H363 0.950 . S
C375 C371 1.393 . S
C375 C374 1.391 . S
H376 C384 0.950 . S
H377 C389 0.950 . S
H378 C386 0.950 . S
H379 C388 0.950 . S
H380 C390 0.950 . S
H381 C392 0.950 . S
H382 C394 0.950 . S
H383 C395 0.950 . S
C384 H376 0.950 . S
C384 C385 1.386 . S
C384 C386 1.391 . S
C385 C384 1.386 . S
C385 C389 1.393 . S
C386 H378 0.950 . S
C386 C384 1.391 . S
C386 C387 1.400 . S
C387 C386 1.400 . S
C387 C388 1.398 . S
C387 C393 1.491 . S
C388 H379 0.950 . S
C388 C387 1.398 . S
C388 C389 1.391 . S
C389 H377 0.950 . S
C389 C385 1.393 . S
C389 C388 1.391 . S
C390 H380 0.950 . S
C390 C391 1.386 . S
C390 C392 1.391 . S
C391 C390 1.386 . S
C391 C395 1.393 . S
C392 H381 0.950 . S
C392 C390 1.391 . S
C392 C393 1.400 . S
C393 C387 1.491 . S
C393 C392 1.400 . S
C393 C394 1.398 . S
C394 H382 0.950 . S
C394 C393 1.398 . S
C394 C395 1.391 . S
C395 H383 0.950 . S
C395 C391 1.393 . S
C395 C394 1.391 . S
C245 C92 1.308 . S
C251 C52 1.318 . S
C265 C33 1.310 . S
C271 C111 1.315 . S
C285 C210 1.313 . S
C291 C170 1.319 . S
C305 C151 1.313 . S
C311 C229 1.314 . S
C325 C3 1.483 . S
C331 C121 1.483 . S
C345 C182 1.494 . S
C351 C64 1.494 . S
C365 C123 1.492 . S
C371 C5 1.492 . S
C385 C62 1.478 . S
C391 C180 1.478 . S
