# Generated by pormake.
# Topology wip, (6)-cn, num edge types: 1
# Building blocks:
#     Node 0, Type 0, BuildingBlock: GEDQOX_clean_sbu_0, # of connection points: 6
#     Node 1, Type 0, BuildingBlock: GEDQOX_clean_sbu_0, # of connection points: 6
#     Node 2, Type 0, BuildingBlock: GEDQOX_clean_sbu_0, # of connection points: 6
#     Node 3, Type 0, BuildingBlock: GEDQOX_clean_sbu_0, # of connection points: 6
#     Node 4, Type 0, BuildingBlock: GEDQOX_clean_sbu_0, # of connection points: 6
#     Node 5, Type 0, BuildingBlock: GEDQOX_clean_sbu_0, # of connection points: 6
#     Node 6, Type 0, BuildingBlock: GEDQOX_clean_sbu_0, # of connection points: 6
#     Node 7, Type 0, BuildingBlock: GEDQOX_clean_sbu_0, # of connection points: 6
#     Node 8, Type 0, BuildingBlock: GEDQOX_clean_sbu_0, # of connection points: 6
#     Node 9, Type 0, BuildingBlock: GEDQOX_clean_sbu_0, # of connection points: 6
#     Node 10, Type 0, BuildingBlock: GEDQOX_clean_sbu_0, # of connection points: 6
#     Node 11, Type 0, BuildingBlock: GEDQOX_clean_sbu_0, # of connection points: 6
#     Node 12, Type 0, BuildingBlock: GEDQOX_clean_sbu_0, # of connection points: 6
#     Node 13, Type 0, BuildingBlock: GEDQOX_clean_sbu_0, # of connection points: 6
#     Node 14, Type 0, BuildingBlock: GEDQOX_clean_sbu_0, # of connection points: 6
#     Node 15, Type 0, BuildingBlock: GEDQOX_clean_sbu_0, # of connection points: 6
#     Node 16, Type 0, BuildingBlock: GEDQOX_clean_sbu_0, # of connection points: 6
#     Node 17, Type 0, BuildingBlock: GEDQOX_clean_sbu_0, # of connection points: 6
#     Node 18, Type 0, BuildingBlock: GEDQOX_clean_sbu_0, # of connection points: 6
#     Node 19, Type 0, BuildingBlock: GEDQOX_clean_sbu_0, # of connection points: 6
#     Node 20, Type 0, BuildingBlock: GEDQOX_clean_sbu_0, # of connection points: 6
#     Node 21, Type 0, BuildingBlock: GEDQOX_clean_sbu_0, # of connection points: 6
#     Node 22, Type 0, BuildingBlock: GEDQOX_clean_sbu_0, # of connection points: 6
#     Node 23, Type 0, BuildingBlock: GEDQOX_clean_sbu_0, # of connection points: 6
#     Node 24, Type 0, BuildingBlock: GEDQOX_clean_sbu_0, # of connection points: 6
#     Node 25, Type 0, BuildingBlock: GEDQOX_clean_sbu_0, # of connection points: 6
#     Node 26, Type 0, BuildingBlock: GEDQOX_clean_sbu_0, # of connection points: 6
#     Node 27, Type 0, BuildingBlock: GEDQOX_clean_sbu_0, # of connection points: 6
#     Node 28, Type 0, BuildingBlock: GEDQOX_clean_sbu_0, # of connection points: 6
#     Node 29, Type 0, BuildingBlock: GEDQOX_clean_sbu_0, # of connection points: 6
#     Node 30, Type 0, BuildingBlock: GEDQOX_clean_sbu_0, # of connection points: 6
#     Node 31, Type 0, BuildingBlock: GEDQOX_clean_sbu_0, # of connection points: 6
#     Edge 32, Type (0, 0), BuildingBlock: TEMPAE_clean_linker_10, # of connection points: 2
#     Edge 33, Type (0, 0), BuildingBlock: TEMPAE_clean_linker_10, # of connection points: 2
#     Edge 34, Type (0, 0), BuildingBlock: TEMPAE_clean_linker_10, # of connection points: 2
#     Edge 35, Type (0, 0), BuildingBlock: TEMPAE_clean_linker_10, # of connection points: 2
#     Edge 36, Type (0, 0), BuildingBlock: TEMPAE_clean_linker_10, # of connection points: 2
#     Edge 37, Type (0, 0), BuildingBlock: TEMPAE_clean_linker_10, # of connection points: 2
#     Edge 38, Type (0, 0), BuildingBlock: TEMPAE_clean_linker_10, # of connection points: 2
#     Edge 39, Type (0, 0), BuildingBlock: TEMPAE_clean_linker_10, # of connection points: 2
#     Edge 40, Type (0, 0), BuildingBlock: TEMPAE_clean_linker_10, # of connection points: 2
#     Edge 41, Type (0, 0), BuildingBlock: TEMPAE_clean_linker_10, # of connection points: 2
#     Edge 42, Type (0, 0), BuildingBlock: TEMPAE_clean_linker_10, # of connection points: 2
#     Edge 43, Type (0, 0), BuildingBlock: TEMPAE_clean_linker_10, # of connection points: 2
#     Edge 44, Type (0, 0), BuildingBlock: TEMPAE_clean_linker_10, # of connection points: 2
#     Edge 45, Type (0, 0), BuildingBlock: TEMPAE_clean_linker_10, # of connection points: 2
#     Edge 46, Type (0, 0), BuildingBlock: TEMPAE_clean_linker_10, # of connection points: 2
#     Edge 47, Type (0, 0), BuildingBlock: TEMPAE_clean_linker_10, # of connection points: 2
#     Edge 48, Type (0, 0), BuildingBlock: TEMPAE_clean_linker_10, # of connection points: 2
#     Edge 49, Type (0, 0), BuildingBlock: TEMPAE_clean_linker_10, # of connection points: 2
#     Edge 50, Type (0, 0), BuildingBlock: TEMPAE_clean_linker_10, # of connection points: 2
#     Edge 51, Type (0, 0), BuildingBlock: TEMPAE_clean_linker_10, # of connection points: 2
#     Edge 52, Type (0, 0), BuildingBlock: TEMPAE_clean_linker_10, # of connection points: 2
#     Edge 53, Type (0, 0), BuildingBlock: TEMPAE_clean_linker_10, # of connection points: 2
#     Edge 54, Type (0, 0), BuildingBlock: TEMPAE_clean_linker_10, # of connection points: 2
#     Edge 55, Type (0, 0), BuildingBlock: TEMPAE_clean_linker_10, # of connection points: 2
#     Edge 56, Type (0, 0), BuildingBlock: TEMPAE_clean_linker_10, # of connection points: 2
#     Edge 57, Type (0, 0), BuildingBlock: TEMPAE_clean_linker_10, # of connection points: 2
#     Edge 58, Type (0, 0), BuildingBlock: TEMPAE_clean_linker_10, # of connection points: 2
#     Edge 59, Type (0, 0), BuildingBlock: TEMPAE_clean_linker_10, # of connection points: 2
#     Edge 60, Type (0, 0), BuildingBlock: TEMPAE_clean_linker_10, # of connection points: 2
#     Edge 61, Type (0, 0), BuildingBlock: TEMPAE_clean_linker_10, # of connection points: 2
#     Edge 62, Type (0, 0), BuildingBlock: TEMPAE_clean_linker_10, # of connection points: 2
#     Edge 63, Type (0, 0), BuildingBlock: TEMPAE_clean_linker_10, # of connection points: 2
#     Edge 64, Type (0, 0), BuildingBlock: TEMPAE_clean_linker_10, # of connection points: 2
#     Edge 65, Type (0, 0), BuildingBlock: TEMPAE_clean_linker_10, # of connection points: 2
#     Edge 66, Type (0, 0), BuildingBlock: TEMPAE_clean_linker_10, # of connection points: 2
#     Edge 67, Type (0, 0), BuildingBlock: TEMPAE_clean_linker_10, # of connection points: 2
#     Edge 68, Type (0, 0), BuildingBlock: TEMPAE_clean_linker_10, # of connection points: 2
#     Edge 69, Type (0, 0), BuildingBlock: TEMPAE_clean_linker_10, # of connection points: 2
#     Edge 70, Type (0, 0), BuildingBlock: TEMPAE_clean_linker_10, # of connection points: 2
#     Edge 71, Type (0, 0), BuildingBlock: TEMPAE_clean_linker_10, # of connection points: 2
#     Edge 72, Type (0, 0), BuildingBlock: TEMPAE_clean_linker_10, # of connection points: 2
#     Edge 73, Type (0, 0), BuildingBlock: TEMPAE_clean_linker_10, # of connection points: 2
#     Edge 74, Type (0, 0), BuildingBlock: TEMPAE_clean_linker_10, # of connection points: 2
#     Edge 75, Type (0, 0), BuildingBlock: TEMPAE_clean_linker_10, # of connection points: 2
#     Edge 76, Type (0, 0), BuildingBlock: TEMPAE_clean_linker_10, # of connection points: 2
#     Edge 77, Type (0, 0), BuildingBlock: TEMPAE_clean_linker_10, # of connection points: 2
#     Edge 78, Type (0, 0), BuildingBlock: TEMPAE_clean_linker_10, # of connection points: 2
#     Edge 79, Type (0, 0), BuildingBlock: TEMPAE_clean_linker_10, # of connection points: 2
#     Edge 80, Type (0, 0), BuildingBlock: TEMPAE_clean_linker_10, # of connection points: 2
#     Edge 81, Type (0, 0), BuildingBlock: TEMPAE_clean_linker_10, # of connection points: 2
#     Edge 82, Type (0, 0), BuildingBlock: TEMPAE_clean_linker_10, # of connection points: 2
#     Edge 83, Type (0, 0), BuildingBlock: TEMPAE_clean_linker_10, # of connection points: 2
#     Edge 84, Type (0, 0), BuildingBlock: TEMPAE_clean_linker_10, # of connection points: 2
#     Edge 85, Type (0, 0), BuildingBlock: TEMPAE_clean_linker_10, # of connection points: 2
#     Edge 86, Type (0, 0), BuildingBlock: TEMPAE_clean_linker_10, # of connection points: 2
#     Edge 87, Type (0, 0), BuildingBlock: TEMPAE_clean_linker_10, # of connection points: 2
#     Edge 88, Type (0, 0), BuildingBlock: TEMPAE_clean_linker_10, # of connection points: 2
#     Edge 89, Type (0, 0), BuildingBlock: TEMPAE_clean_linker_10, # of connection points: 2
#     Edge 90, Type (0, 0), BuildingBlock: TEMPAE_clean_linker_10, # of connection points: 2
#     Edge 91, Type (0, 0), BuildingBlock: TEMPAE_clean_linker_10, # of connection points: 2
#     Edge 92, Type (0, 0), BuildingBlock: TEMPAE_clean_linker_10, # of connection points: 2
#     Edge 93, Type (0, 0), BuildingBlock: TEMPAE_clean_linker_10, # of connection points: 2
#     Edge 94, Type (0, 0), BuildingBlock: TEMPAE_clean_linker_10, # of connection points: 2
#     Edge 95, Type (0, 0), BuildingBlock: TEMPAE_clean_linker_10, # of connection points: 2
#     Edge 96, Type (0, 0), BuildingBlock: TEMPAE_clean_linker_10, # of connection points: 2
#     Edge 97, Type (0, 0), BuildingBlock: TEMPAE_clean_linker_10, # of connection points: 2
#     Edge 98, Type (0, 0), BuildingBlock: TEMPAE_clean_linker_10, # of connection points: 2
#     Edge 99, Type (0, 0), BuildingBlock: TEMPAE_clean_linker_10, # of connection points: 2
#     Edge 100, Type (0, 0), BuildingBlock: TEMPAE_clean_linker_10, # of connection points: 2
#     Edge 101, Type (0, 0), BuildingBlock: TEMPAE_clean_linker_10, # of connection points: 2
#     Edge 102, Type (0, 0), BuildingBlock: TEMPAE_clean_linker_10, # of connection points: 2
#     Edge 103, Type (0, 0), BuildingBlock: TEMPAE_clean_linker_10, # of connection points: 2
#     Edge 104, Type (0, 0), BuildingBlock: TEMPAE_clean_linker_10, # of connection points: 2
#     Edge 105, Type (0, 0), BuildingBlock: TEMPAE_clean_linker_10, # of connection points: 2
#     Edge 106, Type (0, 0), BuildingBlock: TEMPAE_clean_linker_10, # of connection points: 2
#     Edge 107, Type (0, 0), BuildingBlock: TEMPAE_clean_linker_10, # of connection points: 2
#     Edge 108, Type (0, 0), BuildingBlock: TEMPAE_clean_linker_10, # of connection points: 2
#     Edge 109, Type (0, 0), BuildingBlock: TEMPAE_clean_linker_10, # of connection points: 2
#     Edge 110, Type (0, 0), BuildingBlock: TEMPAE_clean_linker_10, # of connection points: 2
#     Edge 111, Type (0, 0), BuildingBlock: TEMPAE_clean_linker_10, # of connection points: 2
#     Edge 112, Type (0, 0), BuildingBlock: TEMPAE_clean_linker_10, # of connection points: 2
#     Edge 113, Type (0, 0), BuildingBlock: TEMPAE_clean_linker_10, # of connection points: 2
#     Edge 114, Type (0, 0), BuildingBlock: TEMPAE_clean_linker_10, # of connection points: 2
#     Edge 115, Type (0, 0), BuildingBlock: TEMPAE_clean_linker_10, # of connection points: 2
#     Edge 116, Type (0, 0), BuildingBlock: TEMPAE_clean_linker_10, # of connection points: 2
#     Edge 117, Type (0, 0), BuildingBlock: TEMPAE_clean_linker_10, # of connection points: 2
#     Edge 118, Type (0, 0), BuildingBlock: TEMPAE_clean_linker_10, # of connection points: 2
#     Edge 119, Type (0, 0), BuildingBlock: TEMPAE_clean_linker_10, # of connection points: 2
#     Edge 120, Type (0, 0), BuildingBlock: TEMPAE_clean_linker_10, # of connection points: 2
#     Edge 121, Type (0, 0), BuildingBlock: TEMPAE_clean_linker_10, # of connection points: 2
#     Edge 122, Type (0, 0), BuildingBlock: TEMPAE_clean_linker_10, # of connection points: 2
#     Edge 123, Type (0, 0), BuildingBlock: TEMPAE_clean_linker_10, # of connection points: 2
#     Edge 124, Type (0, 0), BuildingBlock: TEMPAE_clean_linker_10, # of connection points: 2
#     Edge 125, Type (0, 0), BuildingBlock: TEMPAE_clean_linker_10, # of connection points: 2
#     Edge 126, Type (0, 0), BuildingBlock: TEMPAE_clean_linker_10, # of connection points: 2
#     Edge 127, Type (0, 0), BuildingBlock: TEMPAE_clean_linker_10, # of connection points: 2
# Relax obj value: 0.278
# Max RMSD: 0.257
# Mean RMSD: 0.233
data_MOF--net-wip--node1-GEDQOX_clean_sbu_0--edge1-TEMPAE_clean_linker_10
_symmetry_space_group_name_H-M    P1
_symmetry_Int_Tables_number       1
_symmetry_cell_setting            triclinic
loop_
_symmetry_equiv_pos_as_xyz
'x, y, z'
_cell_length_a     65.071587
_cell_length_b     65.082461
_cell_length_c     36.087363
_cell_angle_alpha  90.012012
_cell_angle_beta   90.000994
_cell_angle_gamma 90.009708
loop_
_atom_site_label
_atom_site_type_symbol
_atom_site_fract_x
_atom_site_fract_y
_atom_site_fract_z
_atom_type_partial_charge
Nd0 Nd 0.08105 0.44227 0.07523 0.0
Nd1 Nd 0.0544 0.408 0.12192 0.0
C2 C 0.09728 0.46689 0.02456 0.0
C3 C 0.09547 0.47426 0.98558 0.0
C4 C 0.08105 0.48932 0.97525 0.0
C5 C 0.08088 0.49733 0.93911 0.0
C6 C 0.09515 0.49055 0.91238 0.0
C7 C 0.10935 0.47529 0.92268 0.0
C8 C 0.10955 0.46733 0.95876 0.0
C9 C 0.10221 0.41267 0.11393 0.0
C10 C 0.05031 0.40787 0.03295 0.0
C11 C 0.04491 0.37999 0.17221 0.0
C12 C 0.03809 0.38157 0.21141 0.0
C13 C 0.04687 0.39616 0.23539 0.0
C14 C 0.04047 0.39769 0.27234 0.0
C15 C 0.02487 0.38485 0.28635 0.0
C16 C 0.01592 0.3704 0.26204 0.0
C17 C 0.0225 0.36876 0.22508 0.0
C18 C 0.03083 0.44124 0.10282 0.0
C19 C 0.07306 0.4508 0.16212 0.0
O20 O 0.08374 0.47313 0.04919 0.0
O21 O 0.1031 0.44779 0.02959 0.0
O22 O 0.10873 0.43133 0.10911 0.0
O23 O 0.08576 0.40983 0.09601 0.0
O24 O 0.06047 0.42556 0.03303 0.0
O25 O 0.0485 0.39608 0.06288 0.0
O26 O 0.06377 0.38587 0.16525 0.0
O27 O 0.03188 0.38618 0.14688 0.0
O28 O 0.02373 0.4257 0.12142 0.0
O29 O 0.04939 0.4382 0.09554 0.0
O30 O 0.06662 0.43147 0.16506 0.0
O31 O 0.07741 0.45963 0.12993 0.0
H32 H 0.07006 0.49515 0.99518 0.0
H33 H 0.06953 0.50886 0.93211 0.0
H34 H 0.12075 0.46985 0.90313 0.0
H35 H 0.12109 0.456 0.9659 0.0
H36 H 0.05893 0.40624 0.22572 0.0
H37 H 0.0481 0.40875 0.29005 0.0
H38 H 0.00362 0.36047 0.27136 0.0
H39 H 0.01533 0.35752 0.2071 0.0
Nd40 Nd 0.7837 0.83409 0.34349 0.0
Nd41 Nd 0.81761 0.81172 0.38632 0.0
C42 C 0.75499 0.8466 0.29608 0.0
C43 C 0.74879 0.84601 0.25634 0.0
C44 C 0.74418 0.82749 0.23799 0.0
C45 C 0.73674 0.82763 0.20142 0.0
C46 C 0.73371 0.84628 0.18223 0.0
C47 C 0.73885 0.86471 0.20048 0.0
C48 C 0.74621 0.86456 0.23699 0.0
C49 C 0.81523 0.85826 0.36987 0.0
C50 C 0.81829 0.80592 0.29901 0.0
C51 C 0.84428 0.79899 0.43713 0.0
C52 C 0.84288 0.79364 0.47704 0.0
C53 C 0.82979 0.80441 0.50123 0.0
C54 C 0.82821 0.79875 0.53864 0.0
C55 C 0.83956 0.78205 0.55272 0.0
C56 C 0.85263 0.77132 0.52832 0.0
C57 C 0.85426 0.77706 0.49099 0.0
C58 C 0.78382 0.78753 0.37333 0.0
C59 C 0.77939 0.83505 0.43194 0.0
O60 O 0.75353 0.82972 0.31568 0.0
O61 O 0.77116 0.85754 0.30474 0.0
O62 O 0.79614 0.86403 0.36826 0.0
O63 O 0.81726 0.84093 0.35451 0.0
O64 O 0.79942 0.81332 0.30067 0.0
O65 O 0.83073 0.80661 0.32801 0.0
O66 O 0.84177 0.81828 0.42819 0.0
O67 O 0.83493 0.7866 0.41422 0.0
O68 O 0.80253 0.78216 0.36599 0.0
O69 O 0.78362 0.80638 0.38119 0.0
O70 O 0.79865 0.82842 0.43203 0.0
O71 O 0.76868 0.83623 0.40084 0.0
H72 H 0.74593 0.8129 0.25206 0.0
H73 H 0.73279 0.81311 0.1886 0.0
H74 H 0.73713 0.87935 0.1866 0.0
H75 H 0.7496 0.87907 0.25038 0.0
H76 H 0.82071 0.81716 0.49122 0.0
H77 H 0.81781 0.80726 0.55636 0.0
H78 H 0.86184 0.75859 0.53818 0.0
H79 H 0.86441 0.76847 0.47291 0.0
Nd80 Nd 0.39731 0.53665 0.58816 0.0
Nd81 Nd 0.42861 0.55822 0.63774 0.0
C82 C 0.37823 0.51495 0.53598 0.0
C83 C 0.38082 0.50776 0.4971 0.0
C84 C 0.39885 0.49784 0.48511 0.0
C85 C 0.40033 0.49004 0.44891 0.0
C86 C 0.38389 0.49206 0.42373 0.0
C87 C 0.36606 0.50238 0.43564 0.0
C88 C 0.36454 0.51005 0.47188 0.0
C89 C 0.38562 0.57488 0.61315 0.0
C90 C 0.43773 0.55978 0.55149 0.0
C91 C 0.44932 0.57737 0.69135 0.0
C92 C 0.45266 0.57638 0.73206 0.0
C93 C 0.45265 0.59465 0.75267 0.0
C94 C 0.45654 0.59444 0.79085 0.0
C95 C 0.46078 0.57591 0.80958 0.0
C96 C 0.46035 0.55749 0.78893 0.0
C97 C 0.45631 0.55773 0.75063 0.0
C98 C 0.43826 0.51788 0.62143 0.0
C99 C 0.39023 0.53227 0.67597 0.0
O100 O 0.39007 0.50683 0.56138 0.0
O101 O 0.37509 0.53458 0.54127 0.0
O102 O 0.37305 0.55953 0.6089 0.0
O103 O 0.40336 0.57007 0.60175 0.0
O104 O 0.42477 0.54416 0.55021 0.0
O105 O 0.43982 0.57087 0.58198 0.0
O106 O 0.43115 0.58299 0.68006 0.0
O107 O 0.45709 0.56274 0.67089 0.0
O108 O 0.45076 0.53325 0.61779 0.0
O109 O 0.42072 0.52483 0.62892 0.0
O110 O 0.40339 0.54769 0.67895 0.0
O111 O 0.38671 0.52319 0.64378 0.0
H112 H 0.41174 0.49593 0.50377 0.0
H113 H 0.41442 0.48248 0.44058 0.0
H114 H 0.35305 0.50411 0.4172 0.0
H115 H 0.35044 0.51754 0.4804 0.0
H116 H 0.44984 0.60922 0.73909 0.0
H117 H 0.45621 0.60889 0.80568 0.0
H118 H 0.46361 0.54291 0.8021 0.0
H119 H 0.45632 0.54338 0.73547 0.0
Nd120 Nd 0.69665 0.1624 0.82198 0.0
Nd121 Nd 0.67142 0.18895 0.87445 0.0
C122 C 0.7179 0.14391 0.76893 0.0
C123 C 0.72596 0.14574 0.73072 0.0
C124 C 0.73342 0.16437 0.71633 0.0
C125 C 0.74172 0.16514 0.6804 0.0
C126 C 0.74271 0.14732 0.65817 0.0
C127 C 0.7348 0.12886 0.67263 0.0
C128 C 0.72658 0.1281 0.70842 0.0
C129 C 0.66509 0.14248 0.85906 0.0
C130 C 0.66833 0.19955 0.78588 0.0
C131 C 0.64688 0.20758 0.92242 0.0
C132 C 0.6486 0.21354 0.96209 0.0
C133 C 0.63293 0.20823 0.98707 0.0
C134 C 0.63439 0.21356 0.02466 0.0
C135 C 0.65157 0.22441 0.03827 0.0
C136 C 0.66734 0.22954 1.01316 0.0
C137 C 0.6659 0.22413 0.97561 0.0
C138 C 0.71064 0.2033 0.86254 0.0
C139 C 0.70625 0.15875 0.90895 0.0
O140 O 0.72644 0.15504 0.7951 0.0
O141 O 0.69797 0.14205 0.77269 0.0
O142 O 0.68281 0.13445 0.85178 0.0
O143 O 0.66408 0.16005 0.84442 0.0
O144 O 0.6821 0.18492 0.78096 0.0
O145 O 0.66032 0.2033 0.81901 0.0
O146 O 0.64589 0.18788 0.91543 0.0
O147 O 0.65846 0.21747 0.89869 0.0
O148 O 0.70225 0.20082 0.8948 0.0
O149 O 0.69888 0.19605 0.83808 0.0
O150 O 0.68761 0.16638 0.91352 0.0
O151 O 0.71523 0.15879 0.87601 0.0
H152 H 0.73304 0.17822 0.73295 0.0
H153 H 0.74777 0.17961 0.67038 0.0
H154 H 0.73488 0.11492 0.65623 0.0
H155 H 0.7208 0.1136 0.71887 0.0
H156 H 0.61956 0.19985 0.97751 0.0
H157 H 0.62212 0.20896 0.04314 0.0
H158 H 0.68071 0.23803 0.02236 0.0
H159 H 0.67835 0.22826 0.95716 0.0
Nd160 Nd 0.07556 0.55861 0.57068 0.0
Nd161 Nd 0.04443 0.58448 0.61807 0.0
C162 C 0.10136 0.54752 0.51747 0.0
C163 C 0.09919 0.54078 0.47854 0.0
C164 C 0.08346 0.54848 0.45578 0.0
C165 C 0.0807 0.54084 0.41981 0.0
C166 C 0.09363 0.52533 0.40582 0.0
C167 C 0.10965 0.518 0.42851 0.0
C168 C 0.11236 0.52563 0.46446 0.0
C169 C 0.04568 0.53569 0.6018 0.0
C170 C 0.03203 0.57775 0.53264 0.0
C171 C 0.02099 0.60068 0.67068 0.0
C172 C 0.01529 0.59724 0.70986 0.0
C173 C 0.02175 0.57974 0.72944 0.0
C174 C 0.01646 0.57718 0.76692 0.0
C175 C 0.00468 0.59216 0.78563 0.0
C176 C -0.00159 0.60968 0.76568 0.0
C177 C 0.00361 0.61214 0.72831 0.0
C178 C 0.07409 0.60605 0.57965 0.0
C179 C 0.07896 0.55496 0.65901 0.0
O180 O 0.09688 0.56668 0.5249 0.0
O181 O 0.09436 0.5348 0.54249 0.0
O182 O 0.06355 0.52821 0.59314 0.0
O183 O 0.04317 0.55371 0.58974 0.0
O184 O 0.05013 0.56846 0.52863 0.0
O185 O 0.0253 0.58425 0.5652 0.0
O186 O 0.01418 0.58744 0.6462 0.0
O187 O 0.03996 0.60641 0.66439 0.0
O188 O 0.05527 0.61222 0.58379 0.0
O189 O 0.07675 0.58953 0.59738 0.0
O190 O 0.06055 0.56337 0.65926 0.0
O191 O 0.0905 0.55471 0.62865 0.0
H192 H 0.07317 0.56026 0.46594 0.0
H193 H 0.06842 0.54707 0.40296 0.0
H194 H 0.11976 0.50591 0.41887 0.0
H195 H 0.12454 0.5194 0.48157 0.0
H196 H 0.03087 0.56807 0.71579 0.0
H197 H 0.02145 0.5634 0.7811 0.0
H198 H 0.98974 0.62178 0.77911 0.0
H199 H -0.00136 0.62586 0.71385 0.0
Nd200 Nd 0.67006 0.82594 0.8417 0.0
Nd201 Nd 0.64478 0.79331 0.88557 0.0
C202 C 0.68344 0.8524 0.79124 0.0
C203 C 0.69208 0.85114 0.75351 0.0
C204 C 0.68917 0.8336 0.73151 0.0
C205 C 0.69822 0.83222 0.69638 0.0
C206 C 0.7105 0.84833 0.68262 0.0
C207 C 0.71322 0.86595 0.70478 0.0
C208 C 0.7041 0.86732 0.73984 0.0
C209 C 0.69315 0.79798 0.87816 0.0
C210 C 0.6543 0.78192 0.80087 0.0
C211 C 0.63017 0.76747 0.93586 0.0
C212 C 0.63338 0.76239 0.97538 0.0
C213 C 0.65048 0.76976 0.99516 0.0
C214 C 0.65318 0.7646 0.03265 0.0
C215 C 0.63887 0.7519 0.05103 0.0
C216 C 0.62175 0.74471 0.03095 0.0
C217 C 0.61906 0.74991 0.99362 0.0
C218 C 0.62254 0.82081 0.84341 0.0
C219 C 0.6676 0.83137 0.93018 0.0
O220 O 0.66403 0.84756 0.79526 0.0
O221 O 0.69499 0.84488 0.81751 0.0
O222 O 0.69894 0.81686 0.87332 0.0
O223 O 0.67664 0.79396 0.86143 0.0
O224 O 0.66262 0.80054 0.79781 0.0
O225 O 0.64764 0.77461 0.83281 0.0
O226 O 0.64515 0.76286 0.91306 0.0
O227 O 0.62175 0.7853 0.92864 0.0
O228 O 0.61747 0.80168 0.84803 0.0
O229 O 0.63795 0.82503 0.86332 0.0
O230 O 0.66084 0.81229 0.93023 0.0
O231 O 0.66955 0.842 0.89897 0.0
H232 H 0.67985 0.82102 0.74147 0.0
H233 H 0.69548 0.81857 0.67994 0.0
H234 H 0.72277 0.87854 0.69538 0.0
H235 H 0.70665 0.88093 0.7565 0.0
H236 H 0.66177 0.7794 0.9816 0.0
H237 H 0.66661 0.77032 0.04707 0.0
H238 H 0.61021 0.73525 0.04423 0.0
H239 H 0.60572 0.74415 0.97895 0.0
Nd240 Nd 0.40972 0.42737 0.08039 0.0
Nd241 Nd 0.44591 0.40724 0.12546 0.0
C242 C 0.38023 0.43414 0.0314 0.0
C243 C 0.37938 0.44328 0.99405 0.0
C244 C 0.39613 0.44169 0.96969 0.0
C245 C 0.39555 0.45128 0.93505 0.0
C246 C 0.37831 0.4629 0.92417 0.0
C247 C 0.36148 0.46424 0.94858 0.0
C248 C 0.36202 0.45449 0.98315 0.0
C249 C 0.43767 0.45488 0.10521 0.0
C250 C 0.45404 0.41367 0.0379 0.0
C251 C 0.47286 0.39564 0.17651 0.0
C252 C 0.47867 0.4006 0.21514 0.0
C253 C 0.46919 0.41663 0.23488 0.0
C254 C 0.47376 0.41983 0.27252 0.0
C255 C 0.48783 0.40699 0.29116 0.0
C256 C 0.49763 0.39133 0.2708 0.0
C257 C 0.49306 0.38817 0.23332 0.0
C258 C 0.4189 0.38074 0.09077 0.0
C259 C 0.40869 0.4317 0.16875 0.0
O260 O 0.38977 0.41651 0.03458 0.0
O261 O 0.38459 0.44687 0.05829 0.0
O262 O 0.41878 0.45994 0.09816 0.0
O263 O 0.44169 0.43691 0.09461 0.0
O264 O 0.43464 0.42016 0.03549 0.0
O265 O 0.46279 0.40901 0.07001 0.0
O266 O 0.47704 0.40926 0.15083 0.0
O267 O 0.45485 0.38701 0.17206 0.0
O268 O 0.43842 0.37729 0.09475 0.0
O269 O 0.41415 0.397 0.10798 0.0
O270 O 0.42836 0.42708 0.16703 0.0
O271 O 0.39635 0.42898 0.13989 0.0
H272 H 0.40967 0.43305 0.97746 0.0
H273 H 0.40864 0.44957 0.91678 0.0
H274 H 0.34806 0.47324 0.94141 0.0
H275 H 0.349 0.45601 1.00167 0.0
H276 H 0.45799 0.42641 0.22142 0.0
H277 H 0.46581 0.43196 0.28725 0.0
H278 H 0.50882 0.38139 0.2839 0.0
H279 H 0.50055 0.37573 0.21864 0.0
Nd280 Nd 0.80073 0.17446 0.31705 0.0
Nd281 Nd 0.83056 0.20349 0.36408 0.0
C282 C 0.78621 0.14499 0.27426 0.0
C283 C 0.78283 0.14308 0.23412 0.0
C284 C 0.79096 0.15776 0.20976 0.0
C285 C 0.78614 0.15712 0.17204 0.0
C286 C 0.77278 0.14198 0.15802 0.0
C287 C 0.76507 0.12699 0.18253 0.0
C288 C 0.77008 0.12754 0.22025 0.0
C289 C 0.7824 0.20673 0.34958 0.0
C290 C 0.81706 0.21738 0.2787 0.0
C291 C 0.84633 0.2319 0.40841 0.0
C292 C 0.84373 0.23735 0.44808 0.0
C293 C 0.8292 0.22723 0.47034 0.0
C294 C 0.82677 0.23254 0.50781 0.0
C295 C 0.83903 0.24796 0.52423 0.0
C296 C 0.85381 0.25779 0.50172 0.0
C297 C 0.85605 0.25261 0.46416 0.0
C298 C 0.84882 0.17427 0.31884 0.0
C299 C 0.8079 0.1651 0.40687 0.0
O300 O 0.80542 0.14566 0.28534 0.0
O301 O 0.77448 0.15851 0.29091 0.0
O302 O 0.77577 0.19881 0.31865 0.0
O303 O 0.79671 0.19629 0.36397 0.0
O304 O 0.80873 0.19898 0.27355 0.0
O305 O 0.82513 0.22312 0.31105 0.0
O306 O 0.83052 0.23525 0.38668 0.0
O307 O 0.85535 0.21429 0.40161 0.0
O308 O 0.85735 0.18031 0.3496 0.0
O309 O 0.83305 0.18462 0.31341 0.0
O310 O 0.81824 0.18247 0.4093 0.0
O311 O 0.80118 0.15787 0.37457 0.0
H312 H 0.80064 0.17001 0.22004 0.0
H313 H 0.79261 0.16873 0.15399 0.0
H314 H 0.7545 0.11529 0.17291 0.0
H315 H 0.76348 0.11622 0.23876 0.0
H316 H 0.81963 0.21525 0.45871 0.0
H317 H 0.81503 0.22469 0.52368 0.0
H318 H 0.86395 0.26935 0.51316 0.0
H319 H 0.86753 0.26048 0.44769 0.0
Nd320 Nd 0.93258 0.5741 0.22493 0.0
Nd321 Nd 0.90613 0.54373 0.26798 0.0
C322 C 0.9487 0.59866 0.17382 0.0
C323 C 0.95493 0.59643 0.13439 0.0
C324 C 0.94145 0.58825 0.10769 0.0
C325 C 0.94757 0.58627 0.07061 0.0
C326 C 0.96731 0.59245 0.05922 0.0
C327 C 0.9808 0.60056 0.08604 0.0
C328 C 0.97468 0.60249 0.12315 0.0
C329 C 0.95284 0.53824 0.23947 0.0
C330 C 0.90516 0.53851 0.17941 0.0
C331 C 0.89073 0.51694 0.31646 0.0
C332 C 0.89146 0.51025 0.35594 0.0
C333 C 0.91009 0.50642 0.37449 0.0
C334 C 0.91014 0.49852 0.41079 0.0
C335 C 0.89157 0.49427 0.42955 0.0
C336 C 0.87299 0.49866 0.41107 0.0
C337 C 0.87297 0.50647 0.37483 0.0
C338 C 0.88638 0.57897 0.24467 0.0
C339 C 0.93796 0.5751 0.31186 0.0
O340 O 0.92907 0.59767 0.18109 0.0
O341 O 0.95977 0.5889 0.19838 0.0
O342 O 0.96013 0.55631 0.24656 0.0
O343 O 0.93406 0.53978 0.23106 0.0
O344 O 0.9149 0.55639 0.179 0.0
O345 O 0.90098 0.52899 0.21091 0.0
O346 O 0.90669 0.51318 0.29543 0.0
O347 O 0.88216 0.53464 0.30904 0.0
O348 O 0.87797 0.56085 0.24442 0.0
O349 O 0.90414 0.57801 0.25853 0.0
O350 O 0.92897 0.55692 0.31035 0.0
O351 O 0.93839 0.58739 0.2827 0.0
H352 H 0.9261 0.58345 0.11536 0.0
H353 H 0.93666 0.58026 0.0507 0.0
H354 H -0.00382 0.60529 0.07838 0.0
H355 H 0.9854 0.60878 0.14312 0.0
H356 H 0.92463 0.50916 0.36074 0.0
H357 H 0.92478 0.49523 0.42372 0.0
H358 H 0.85837 0.49604 0.42458 0.0
H359 H 0.85838 0.50929 0.36127 0.0
Nd360 Nd 0.16663 0.19417 0.99857 0.0
Nd361 Nd 0.18665 0.15873 0.043 0.0
C362 C 0.15205 0.22025 0.94834 0.0
C363 C 0.14946 0.22163 0.90765 0.0
C364 C 0.16123 0.20942 0.88355 0.0
C365 C 0.16046 0.21258 0.84512 0.0
C366 C 0.14802 0.22819 0.82988 0.0
C367 C 0.1359 0.24003 0.85424 0.0
C368 C 0.13661 0.23676 0.89262 0.0
C369 C 0.20094 0.2049 0.03901 0.0
C370 C 0.19871 0.16222 0.95705 0.0
C371 C 0.2059 0.13588 0.09315 0.0
C372 C 0.21399 0.13665 0.13162 0.0
C373 C 0.20292 0.14576 0.1608 0.0
C374 C 0.2107 0.1455 0.19713 0.0
C375 C 0.2297 0.13606 0.20516 0.0
C376 C 0.24079 0.12722 0.17565 0.0
C377 C 0.23302 0.12751 0.13944 0.0
C378 C 0.15453 0.14647 0.99876 0.0
C379 C 0.15803 0.1942 0.08537 0.0
O380 O 0.14018 0.20769 0.96699 0.0
O381 O 0.17104 0.22007 0.96004 0.0
O382 O 0.18438 0.21588 0.03663 0.0
O383 O 0.19863 0.18858 0.02066 0.0
O384 O 0.18222 0.17398 0.95414 0.0
O385 O 0.20574 0.15616 0.98968 0.0
O386 O 0.21553 0.14679 0.06809 0.0
O387 O 0.18592 0.13594 0.08869 0.0
O388 O 0.1699 0.13473 1.00741 0.0
O389 O 0.15529 0.16318 1.01674 0.0
O390 O 0.17322 0.18071 0.08692 0.0
O391 O 0.14976 0.1997 0.05337 0.0
H392 H 0.17135 0.19772 0.89449 0.0
H393 H 0.16975 0.20289 0.8274 0.0
H394 H 0.12636 0.25237 0.84382 0.0
H395 H 0.12759 0.24653 0.91068 0.0
H396 H 0.18816 0.15289 0.15562 0.0
H397 H 0.20162 0.15235 0.21904 0.0
H398 H 0.25563 0.12018 0.18044 0.0
H399 H 0.24189 0.12044 0.11746 0.0
Nd400 Nd 0.56002 0.42635 0.73025 0.0
Nd401 Nd 0.58945 0.44696 0.78395 0.0
C402 C 0.53642 0.40658 0.68191 0.0
C403 C 0.53058 0.40967 0.64265 0.0
C404 C 0.5421 0.42264 0.61945 0.0
C405 C 0.53704 0.42468 0.58183 0.0
C406 C 0.52026 0.41387 0.56662 0.0
C407 C 0.50857 0.40121 0.59027 0.0
C408 C 0.5137 0.39913 0.62782 0.0
C409 C 0.55042 0.46673 0.74542 0.0
C410 C 0.59535 0.45495 0.69652 0.0
C411 C 0.60897 0.46677 0.83769 0.0
C412 C 0.60611 0.47584 0.87523 0.0
C413 C 0.60488 0.49728 0.87957 0.0
C414 C 0.60388 0.50614 0.91493 0.0
C415 C 0.60426 0.49382 0.94701 0.0
C416 C 0.60527 0.47234 0.94261 0.0
C417 C 0.60621 0.46348 0.90723 0.0
C418 C 0.6045 0.41185 0.75006 0.0
C419 C 0.54978 0.42164 0.81822 0.0
O420 O 0.55568 0.40208 0.68797 0.0
O421 O 0.52922 0.41983 0.70587 0.0
O422 O 0.55315 0.45932 0.71251 0.0
O423 O 0.55641 0.45362 0.76864 0.0
O424 O 0.58617 0.43701 0.69287 0.0
O425 O 0.59585 0.4643 0.72913 0.0
O426 O 0.60036 0.4761 0.80943 0.0
O427 O 0.60859 0.4467 0.83468 0.0
O428 O 0.61542 0.42807 0.75684 0.0
O429 O 0.58664 0.4143 0.76274 0.0
O430 O 0.56501 0.43468 0.82397 0.0
O431 O 0.54573 0.41433 0.78475 0.0
H432 H 0.55513 0.43105 0.63036 0.0
H433 H 0.54625 0.43477 0.56469 0.0
H434 H 0.49573 0.39245 0.57956 0.0
H435 H 0.50463 0.38902 0.64519 0.0
H436 H 0.60497 0.50727 0.85557 0.0
H437 H 0.60276 0.5227 0.91707 0.0
H438 H 0.60586 0.46233 0.96655 0.0
H439 H 0.60741 0.44692 0.90507 0.0
Nd440 Nd 0.33409 0.80045 0.49156 0.0
Nd441 Nd 0.3076 0.83063 0.53694 0.0
C442 C 0.35568 0.78114 0.43944 0.0
C443 C 0.35367 0.77653 0.39928 0.0
C444 C 0.34676 0.79134 0.37376 0.0
C445 C 0.3448 0.78646 0.33599 0.0
C446 C 0.34978 0.76667 0.32284 0.0
C447 C 0.35661 0.75192 0.34863 0.0
C448 C 0.35851 0.7568 0.3863 0.0
C449 C 0.29855 0.78399 0.51952 0.0
C450 C 0.29948 0.83001 0.44913 0.0
C451 C 0.28419 0.84981 0.58645 0.0
C452 C 0.27626 0.84841 0.62488 0.0
C453 C 0.28783 0.83961 0.65369 0.0
C454 C 0.28025 0.83946 0.69014 0.0
C455 C 0.261 0.84825 0.69859 0.0
C456 C 0.24943 0.85681 0.66945 0.0
C457 C 0.25697 0.85687 0.63311 0.0
C458 C 0.34202 0.84742 0.50484 0.0
C459 C 0.33711 0.79612 0.57889 0.0
O460 O 0.35881 0.80023 0.44905 0.0
O461 O 0.34283 0.77184 0.46156 0.0
O462 O 0.31607 0.77454 0.51858 0.0
O463 O 0.30028 0.80167 0.50555 0.0
O464 O 0.31655 0.81903 0.44709 0.0
O465 O 0.29111 0.83496 0.48131 0.0
O466 O 0.27692 0.83681 0.56206 0.0
O467 O 0.30385 0.85335 0.58219 0.0
O468 O 0.32463 0.857 0.50828 0.0
O469 O 0.34117 0.83004 0.52039 0.0
O470 O 0.32008 0.80721 0.57898 0.0
O471 O 0.34839 0.79412 0.54853 0.0
H472 H 0.34293 0.80669 0.38296 0.0
H473 H 0.3397 0.7983 0.31702 0.0
H474 H 0.36028 0.73645 0.33977 0.0
H475 H 0.36375 0.74507 0.4054 0.0
H476 H 0.30283 0.83312 0.6481 0.0
H477 H 0.28965 0.83283 0.71182 0.0
H478 H 0.23441 0.86337 0.67467 0.0
H479 H 0.24777 0.86374 0.61137 0.0
Nd480 Nd 0.94505 0.40199 0.72542 0.0
Nd481 Nd 0.91334 0.42831 0.76981 0.0
C482 C 0.97051 0.38616 0.67556 0.0
C483 C 0.97567 0.38799 0.63577 0.0
C484 C 0.96725 0.40353 0.6134 0.0
C485 C 0.97219 0.40464 0.57553 0.0
C486 C 0.98581 0.39035 0.55944 0.0
C487 C 0.99426 0.37493 0.58217 0.0
C488 C 0.9892 0.37376 0.61983 0.0
C489 C 0.91665 0.38058 0.76717 0.0
C490 C 0.9078 0.42647 0.68094 0.0
C491 C 0.88714 0.44231 0.82025 0.0
C492 C 0.88826 0.45019 0.85852 0.0
C493 C 0.87044 0.45731 0.87612 0.0
C494 C 0.87142 0.46549 0.91199 0.0
C495 C 0.89032 0.46699 0.93087 0.0
C496 C 0.90816 0.45967 0.91302 0.0
C497 C 0.90711 0.45136 0.87725 0.0
C498 C 0.94213 0.45036 0.73344 0.0
C499 C 0.9568 0.41082 0.81049 0.0
O500 O 0.97526 0.40175 0.6969 0.0
O501 O 0.95262 0.37811 0.68365 0.0
O502 O 0.93562 0.37491 0.76262 0.0
O503 O 0.91303 0.3963 0.74764 0.0
O504 O 0.9265 0.41866 0.68069 0.0
O505 O 0.89738 0.42891 0.71231 0.0
O506 O 0.89096 0.42274 0.81537 0.0
O507 O 0.89574 0.45384 0.79504 0.0
O508 O 0.92347 0.45686 0.73829 0.0
O509 O 0.94551 0.43371 0.75014 0.0
O510 O 0.93848 0.4198 0.81367 0.0
O511 O 0.96384 0.40404 0.77839 0.0
H512 H 0.9569 0.4148 0.62519 0.0
H513 H 0.96557 0.41683 0.55897 0.0
H514 H 0.00457 0.36352 0.5707 0.0
H515 H 0.99583 0.36162 0.63654 0.0
H516 H 0.85573 0.45651 0.86213 0.0
H517 H 0.8573 0.4706 0.92494 0.0
H518 H 0.92305 0.46082 0.92626 0.0
H519 H 0.92106 0.44618 0.86391 0.0
Nd520 Nd 0.32244 0.18592 0.49646 0.0
Nd521 Nd 0.29849 0.15332 0.54475 0.0
C522 C 0.33545 0.21181 0.44487 0.0
C523 C 0.33379 0.21557 0.40449 0.0
C524 C 0.31487 0.21502 0.38562 0.0
C525 C 0.31398 0.21906 0.3474 0.0
C526 C 0.33201 0.22357 0.32732 0.0
C527 C 0.35086 0.22396 0.34641 0.0
C528 C 0.35171 0.22004 0.38447 0.0
C529 C 0.34552 0.15652 0.53156 0.0
C530 C 0.29695 0.14802 0.45581 0.0
C531 C 0.28778 0.12721 0.59763 0.0
C532 C 0.28191 0.12876 0.63715 0.0
C533 C 0.29264 0.14149 0.66198 0.0
C534 C 0.28576 0.14389 0.69856 0.0
C535 C 0.26796 0.13368 0.71104 0.0
C536 C 0.25753 0.12067 0.68615 0.0
C537 C 0.26445 0.11823 0.64971 0.0
C538 C 0.27467 0.18246 0.51296 0.0
C539 C 0.31873 0.19596 0.58357 0.0
O540 O 0.31916 0.21515 0.46537 0.0
O541 O 0.34579 0.19552 0.4551 0.0
O542 O 0.35142 0.17545 0.52725 0.0
O543 O 0.32862 0.15347 0.51535 0.0
O544 O 0.30474 0.16671 0.45411 0.0
O545 O 0.29545 0.13766 0.48744 0.0
O546 O 0.30692 0.13114 0.58895 0.0
O547 O 0.27472 0.13505 0.57401 0.0
O548 O 0.26813 0.16399 0.51978 0.0
O549 O 0.29227 0.18551 0.52651 0.0
O550 O 0.31028 0.17748 0.5875 0.0
O551 O 0.32323 0.20377 0.55072 0.0
H552 H 0.30079 0.21151 0.40035 0.0
H553 H 0.29924 0.21846 0.3335 0.0
H554 H 0.36499 0.22767 0.33202 0.0
H555 H 0.36646 0.22063 0.3984 0.0
H556 H 0.30618 0.14982 0.65304 0.0
H557 H 0.29436 0.15381 0.71701 0.0
H558 H 0.2436 0.1128 0.69444 0.0
H559 H 0.25584 0.10845 0.63101 0.0
Nd560 Nd 0.54155 0.58288 0.24104 0.0
Nd561 Nd 0.57101 0.54953 0.28114 0.0
C562 C 0.5124 0.59876 0.1987 0.0
C563 C 0.50621 0.59461 0.1598 0.0
C564 C 0.51135 0.57595 0.14245 0.0
C565 C 0.50584 0.57224 0.10544 0.0
C566 C 0.49517 0.58717 0.08466 0.0
C567 C 0.49016 0.60588 0.10227 0.0
C568 C 0.49558 0.60952 0.13935 0.0
C569 C 0.57444 0.59807 0.28128 0.0
C570 C 0.57942 0.56077 0.19532 0.0
C571 C 0.59444 0.52991 0.32895 0.0
C572 C 0.59608 0.52788 0.36971 0.0
C573 C 0.61465 0.53242 0.3877 0.0
C574 C 0.61678 0.52916 0.42589 0.0
C575 C 0.60042 0.52101 0.44684 0.0
C576 C 0.58166 0.51701 0.42875 0.0
C577 C 0.57948 0.52052 0.3908 0.0
C578 C 0.54335 0.53474 0.23166 0.0
C579 C 0.52965 0.56871 0.32553 0.0
O580 O 0.50907 0.58393 0.22251 0.0
O581 O 0.53035 0.60751 0.20335 0.0
O582 O 0.5664 0.60826 0.25377 0.0
O583 O 0.56378 0.58255 0.28732 0.0
O584 O 0.56072 0.56864 0.19467 0.0
O585 O 0.58886 0.55628 0.22699 0.0
O586 O 0.59981 0.54761 0.31424 0.0
O587 O 0.57813 0.52174 0.31339 0.0
O588 O 0.56101 0.52585 0.23695 0.0
O589 O 0.54064 0.54929 0.25381 0.0
O590 O 0.54567 0.55594 0.32501 0.0
O591 O 0.52495 0.58097 0.29725 0.0
H592 H 0.51972 0.56426 0.1575 0.0
H593 H 0.50987 0.55758 0.09326 0.0
H594 H 0.48235 0.61797 0.08722 0.0
H595 H 0.49163 0.6241 0.15197 0.0
H596 H 0.62763 0.53827 0.37212 0.0
H597 H 0.63132 0.53282 0.43888 0.0
H598 H 0.56878 0.51042 0.44354 0.0
H599 H 0.56488 0.51694 0.37789 0.0
Nd600 Nd 0.16595 0.79647 0.98849 0.0
Nd601 Nd 0.19693 0.82194 0.03902 0.0
C602 C 0.14801 0.76988 0.94301 0.0
C603 C 0.14992 0.76413 0.90332 0.0
C604 C 0.16645 0.77108 0.88157 0.0
C605 C 0.16779 0.76583 0.84384 0.0
C606 C 0.15247 0.75371 0.82686 0.0
C607 C 0.13595 0.74685 0.84888 0.0
C608 C 0.13473 0.75197 0.8866 0.0
C609 C 0.14957 0.82891 0.02834 0.0
C610 C 0.19416 0.83174 0.9486 0.0
C611 C 0.21581 0.84841 0.08294 0.0
C612 C 0.2206 0.8493 0.12283 0.0
C613 C 0.21093 0.836 0.14801 0.0
C614 C 0.21717 0.83543 0.18516 0.0
C615 C 0.23328 0.8481 0.19781 0.0
C616 C 0.24255 0.86174 0.17251 0.0
C617 C 0.23628 0.86229 0.13542 0.0
C618 C 0.21203 0.78691 1.00988 0.0
C619 C 0.17339 0.78226 0.076 0.0
O620 O 0.16339 0.76503 0.96482 0.0
O621 O 0.14068 0.78823 0.94986 0.0
O622 O 0.1423 0.82339 0.99627 0.0
O623 O 0.16328 0.81667 0.03801 0.0
O624 O 0.18274 0.81515 0.94472 0.0
O625 O 0.19982 0.83867 0.98179 0.0
O626 O 0.19644 0.85027 0.07339 0.0
O627 O 0.22539 0.83399 0.0645 0.0
O628 O 0.21762 0.79387 0.04213 0.0
O629 O 0.2003 0.79925 0.9931 0.0
O630 O 0.18343 0.7997 0.08204 0.0
O631 O 0.16643 0.77703 0.0426 0.0
H632 H 0.17826 0.78069 0.89368 0.0
H633 H 0.18061 0.7716 0.8278 0.0
H634 H 0.124 0.73732 0.837 0.0
H635 H 0.12181 0.74647 0.90274 0.0
H636 H 0.19886 0.82575 0.13878 0.0
H637 H 0.20951 0.82493 0.20389 0.0
H638 H 0.25518 0.87149 0.18103 0.0
H639 H 0.24409 0.87249 0.11631 0.0
Nd640 Nd 0.59919 0.94689 0.59068 0.0
Nd641 Nd 0.56637 0.92899 0.64009 0.0
C642 C 0.62023 0.96658 0.53847 0.0
C643 C 0.6177 0.97508 0.50059 0.0
C644 C 0.60655 0.96469 0.47298 0.0
C645 C 0.60513 0.97282 0.437 0.0
C646 C 0.61476 0.99158 0.42785 0.0
C647 C 0.62557 0.00205 0.45594 0.0
C648 C 0.62705 0.99387 0.49174 0.0
C649 C 0.60685 0.90747 0.61506 0.0
C650 C 0.55662 0.92818 0.55496 0.0
C651 C 0.54334 0.91208 0.69274 0.0
C652 C 0.53752 0.91599 0.73167 0.0
C653 C 0.55047 0.92688 0.7559 0.0
C654 C 0.54515 0.9292 0.79336 0.0
C655 C 0.5268 0.92067 0.80727 0.0
C656 C 0.51362 0.9104 0.78247 0.0
C657 C 0.51895 0.90808 0.74514 0.0
C658 C 0.56113 0.97042 0.62531 0.0
C659 C 0.60775 0.94965 0.67823 0.0
O660 O 0.61051 0.97594 0.56532 0.0
O661 O 0.62015 0.94658 0.54216 0.0
O662 O 0.62095 0.92142 0.61077 0.0
O663 O 0.58973 0.91417 0.60377 0.0
O664 O 0.57038 0.94311 0.55388 0.0
O665 O 0.55476 0.9166 0.58476 0.0
O666 O 0.56246 0.90712 0.68659 0.0
O667 O 0.53608 0.92466 0.6678 0.0
O668 O 0.54698 0.95658 0.62186 0.0
O669 O 0.57781 0.96148 0.63218 0.0
O670 O 0.5927 0.9361 0.68122 0.0
O671 O 0.61213 0.95847 0.64615 0.0
H672 H 0.59909 0.9502 0.47907 0.0
H673 H 0.5968 0.96418 0.41622 0.0
H674 H 0.6328 0.01671 0.4504 0.0
H675 H 0.63563 0.00224 0.5126 0.0
H676 H 0.56486 0.93325 0.74607 0.0
H677 H 0.55573 0.93707 0.81164 0.0
H678 H 0.4992 0.90398 0.79199 0.0
H679 H 0.50867 0.89978 0.72686 0.0
Nd680 Nd 0.29844 0.32671 0.849 0.0
Nd681 Nd 0.32695 0.29838 0.891 0.0
C682 C 0.27093 0.34369 0.80386 0.0
C683 C 0.26383 0.34309 0.76496 0.0
C684 C 0.27487 0.33259 0.73742 0.0
C685 C 0.26796 0.3326 0.70055 0.0
C686 C 0.25002 0.34337 0.69047 0.0
C687 C 0.23905 0.35384 0.7183 0.0
C688 C 0.24586 0.35364 0.75511 0.0
C689 C 0.33567 0.34406 0.86695 0.0
C690 C 0.3247 0.2906 0.80472 0.0
C691 C 0.35037 0.27942 0.94062 0.0
C692 C 0.34793 0.27404 0.98043 0.0
C693 C 0.34575 0.28934 1.00773 0.0
C694 C 0.34291 0.28404 0.04499 0.0
C695 C 0.34207 0.26329 0.05598 0.0
C696 C 0.34443 0.24802 0.02864 0.0
C697 C 0.34733 0.25334 0.99137 0.0
C698 C 0.28781 0.28301 0.8848 0.0
C699 C 0.29828 0.33186 0.93772 0.0
O700 O 0.26706 0.32761 0.82446 0.0
O701 O 0.28923 0.35128 0.80979 0.0
O702 O 0.31842 0.35403 0.86573 0.0
O703 O 0.33315 0.32581 0.85552 0.0
O704 O 0.30777 0.30174 0.80701 0.0
O705 O 0.33774 0.28964 0.83272 0.0
O706 O 0.35203 0.29886 0.93249 0.0
O707 O 0.33869 0.26962 0.9171 0.0
O708 O 0.30418 0.27331 0.87449 0.0
O709 O 0.29251 0.30148 0.89069 0.0
O710 O 0.31498 0.32028 0.93674 0.0
O711 O 0.28735 0.33536 0.90745 0.0
H712 H 0.28892 0.32459 0.74439 0.0
H713 H 0.27687 0.32451 0.67981 0.0
H714 H 0.22505 0.36205 0.71169 0.0
H715 H 0.23712 0.36186 0.77593 0.0
H716 H 0.34601 0.30545 1.00035 0.0
H717 H 0.34095 0.29624 0.06509 0.0
H718 H 0.34421 0.23191 0.03606 0.0
H719 H 0.34902 0.24123 0.97101 0.0
Nd720 Nd 0.91319 0.05464 0.07528 0.0
Nd721 Nd 0.93941 0.08452 0.12115 0.0
C722 C 0.89721 0.02755 0.02821 0.0
C723 C 0.89767 0.01989 0.9896 0.0
C724 C 0.90645 0.03128 0.96057 0.0
C725 C 0.90566 0.0239 0.92396 0.0
C726 C 0.89595 0.00505 0.91569 0.0
C727 C 0.88747 0.99367 0.94513 0.0
C728 C 0.88833 0.001 0.98156 0.0
C729 C 0.89337 0.08925 0.10063 0.0
C730 C 0.94716 0.08505 0.03454 0.0
C731 C 0.95545 0.10838 0.1734 0.0
C732 C 0.96038 0.10569 0.21326 0.0
C733 C 0.94761 0.09419 0.23691 0.0
C734 C 0.95284 0.09134 0.27428 0.0
C735 C 0.97101 0.0999 0.28888 0.0
C736 C 0.98376 0.11134 0.26499 0.0
C737 C 0.9785 0.11417 0.22768 0.0
C738 C 0.95797 0.04708 0.11012 0.0
C739 C 0.90897 0.05092 0.16383 0.0
O740 O 0.91301 0.02354 0.04945 0.0
O741 O 0.88965 0.04591 0.03373 0.0
O742 O 0.88471 0.07141 0.09684 0.0
O743 O 0.91128 0.08875 0.0871 0.0
O744 O 0.93746 0.0672 0.03501 0.0
O745 O 0.94708 0.09736 0.06372 0.0
O746 O 0.93604 0.10867 0.1642 0.0
O747 O 0.96656 0.09779 0.15011 0.0
O748 O 0.96662 0.0646 0.10349 0.0
O749 O 0.93915 0.05013 0.11579 0.0
O750 O 0.91838 0.06895 0.1648 0.0
O751 O 0.90714 0.04046 0.13253 0.0
H752 H 0.91366 0.04596 0.96613 0.0
H753 H 0.91229 0.03315 0.90205 0.0
H754 H 0.88025 0.97894 0.94009 0.0
H755 H 0.88149 0.99195 1.00353 0.0
H756 H 0.93358 0.08737 0.22655 0.0
H757 H 0.94254 0.0826 0.2918 0.0
H758 H -0.00199 0.11791 0.27502 0.0
H759 H 0.9887 0.12293 0.20996 0.0
Nd760 Nd 0.20097 0.65351 0.3391 0.0
Nd761 Nd 0.17257 0.68155 0.38369 0.0
C762 C 0.22671 0.63748 0.28951 0.0
C763 C 0.23255 0.63797 0.24956 0.0
C764 C 0.23748 0.65637 0.2311 0.0
C765 C 0.24468 0.65607 0.19434 0.0
C766 C 0.24715 0.63735 0.17504 0.0
C767 C 0.24157 0.61907 0.19337 0.0
C768 C 0.23445 0.61939 0.23006 0.0
C769 C 0.16472 0.63576 0.36207 0.0
C770 C 0.17135 0.68765 0.29652 0.0
C771 C 0.1494 0.69875 0.43606 0.0
C772 C 0.15161 0.70432 0.47594 0.0
C773 C 0.15959 0.69037 0.50204 0.0
C774 C 0.1611 0.69573 0.53965 0.0
C775 C 0.15456 0.71516 0.55235 0.0
C776 C 0.14669 0.7291 0.52598 0.0
C777 C 0.14527 0.72375 0.48837 0.0
C778 C 0.2101 0.69897 0.3698 0.0
C779 C 0.20617 0.65094 0.42758 0.0
O780 O 0.23107 0.6535 0.31002 0.0
O781 O 0.20911 0.62909 0.29829 0.0
O782 O 0.18219 0.62611 0.36087 0.0
O783 O 0.16666 0.65371 0.3493 0.0
O784 O 0.18878 0.67726 0.29741 0.0
O785 O 0.15945 0.68902 0.32617 0.0
O786 O 0.14905 0.67922 0.42792 0.0
O787 O 0.16003 0.7094 0.41208 0.0
O788 O 0.19267 0.70766 0.36242 0.0
O789 O 0.2069 0.68037 0.37758 0.0
O790 O 0.18903 0.66194 0.42856 0.0
O791 O 0.21538 0.64659 0.39585 0.0
H792 H 0.23618 0.67099 0.24527 0.0
H793 H 0.24893 0.67049 0.18149 0.0
H794 H 0.24279 0.60438 0.17944 0.0
H795 H 0.23074 0.60497 0.24351 0.0
H796 H 0.16464 0.67526 0.49345 0.0
H797 H 0.16753 0.68462 0.55872 0.0
H798 H 0.14115 0.74406 0.53445 0.0
H799 H 0.13897 0.73477 0.46896 0.0
Nd800 Nd 0.58367 0.04696 0.08471 0.0
Nd801 Nd 0.55722 0.07969 0.13069 0.0
C802 C 0.61256 0.02878 0.04515 0.0
C803 C 0.61581 0.02358 1.00599 0.0
C804 C 0.60147 0.0295 0.97904 0.0
C805 C 0.60349 0.02262 0.94252 0.0
C806 C 0.61986 0.00963 0.93236 0.0
C807 C 0.63458 0.00434 0.95928 0.0
C808 C 0.63252 0.01124 0.99582 0.0
C809 C 0.54969 0.03219 0.11766 0.0
C810 C 0.54296 0.06706 0.04464 0.0
C811 C 0.5297 0.09695 0.17477 0.0
C812 C 0.52426 0.09423 0.21457 0.0
C813 C 0.50365 0.0951 0.22598 0.0
C814 C 0.49838 0.09274 0.26351 0.0
C815 C 0.51361 0.08947 0.29073 0.0
C816 C 0.53425 0.08828 0.27898 0.0
C817 C 0.53948 0.09057 0.24146 0.0
C818 C 0.58818 0.09515 0.08582 0.0
C819 C 0.59364 0.05438 0.17439 0.0
O820 O 0.61315 0.04835 0.05388 0.0
O821 O 0.59756 0.01883 0.06143 0.0
O822 O 0.55693 0.02448 0.08697 0.0
O823 O 0.56153 0.04551 0.13153 0.0
O824 O 0.56038 0.0567 0.04009 0.0
O825 O 0.53791 0.07604 0.07661 0.0
O826 O 0.52525 0.08166 0.1525 0.0
O827 O 0.5477 0.10517 0.16765 0.0
O828 O 0.58231 0.10452 0.11594 0.0
O829 O 0.5767 0.08014 0.08046 0.0
O830 O 0.57726 0.06626 0.17664 0.0
O831 O 0.60013 0.04676 0.14226 0.0
H832 H 0.58844 0.03901 0.98646 0.0
H833 H 0.59205 0.0272 0.92233 0.0
H834 H 0.64722 0.9942 0.95248 0.0
H835 H 0.64366 0.00642 1.01639 0.0
H836 H 0.49159 0.09764 0.20581 0.0
H837 H 0.4823 0.09334 0.27111 0.0
H838 H 0.5465 0.08599 0.29886 0.0
H839 H 0.5555 0.08964 0.23355 0.0
Nd840 Nd 0.19115 0.32673 0.34261 0.0
Nd841 Nd 0.15753 0.30335 0.38975 0.0
C842 C 0.21483 0.35204 0.30409 0.0
C843 C 0.22126 0.35255 0.26493 0.0
C844 C 0.21925 0.33499 0.24266 0.0
C845 C 0.2263 0.33509 0.20605 0.0
C846 C 0.23537 0.35283 0.19076 0.0
C847 C 0.23682 0.37057 0.21302 0.0
C848 C 0.22986 0.3704 0.24977 0.0
C849 C 0.20163 0.28857 0.36635 0.0
C850 C 0.16458 0.28988 0.30365 0.0
C851 C 0.1381 0.28145 0.44067 0.0
C852 C 0.14102 0.27558 0.47992 0.0
C853 C 0.15727 0.28359 0.50112 0.0
C854 C 0.15949 0.27813 0.53856 0.0
C855 C 0.1456 0.26438 0.55543 0.0
C856 C 0.1295 0.25628 0.53382 0.0
C857 C 0.12724 0.26185 0.49654 0.0
C858 C 0.1422 0.33206 0.3414 0.0
C859 C 0.18915 0.33479 0.43312 0.0
O860 O 0.19545 0.35575 0.31071 0.0
O861 O 0.22192 0.33667 0.32358 0.0
O862 O 0.20729 0.29579 0.33434 0.0
O863 O 0.19176 0.30171 0.3848 0.0
O864 O 0.17436 0.30752 0.29823 0.0
O865 O 0.15925 0.2834 0.33717 0.0
O866 O 0.15094 0.27342 0.41667 0.0
O867 O 0.13411 0.30087 0.43412 0.0
O868 O 0.132 0.31593 0.35182 0.0
O869 O 0.15872 0.33376 0.3597 0.0
O870 O 0.17246 0.32332 0.43428 0.0
O871 O 0.19913 0.33842 0.40172 0.0
H872 H 0.21256 0.32105 0.25382 0.0
H873 H 0.22512 0.32104 0.19009 0.0
H874 H 0.24337 0.38461 0.20207 0.0
H875 H 0.23139 0.38416 0.26647 0.0
H876 H 0.16822 0.29407 0.48877 0.0
H877 H 0.1722 0.2845 0.55417 0.0
H878 H 0.11835 0.24589 0.5459 0.0
H879 H 0.11459 0.2555 0.48071 0.0
Nd880 Nd 0.91926 0.94667 0.58005 0.0
Nd881 Nd 0.94151 0.91042 0.62414 0.0
C882 C 0.89998 0.9704 0.53203 0.0
C883 C 0.89792 0.97394 0.49195 0.0
C884 C 0.91286 0.96683 0.46701 0.0
C885 C 0.91244 0.97311 0.42992 0.0
C886 C 0.89703 0.98656 0.41716 0.0
C887 C 0.88155 0.9928 0.44195 0.0
C888 C 0.88204 0.98657 0.47902 0.0
C889 C 0.94572 0.95884 0.63389 0.0
C890 C 0.95842 0.92121 0.54061 0.0
C891 C 0.96654 0.8894 0.66816 0.0
C892 C 0.97208 0.89094 0.70797 0.0
C893 C 0.96466 0.90716 0.72995 0.0
C894 C 0.97016 0.90873 0.76747 0.0
C895 C 0.98317 0.89403 0.78401 0.0
C896 C 0.99047 0.87775 0.76182 0.0
C897 C 0.98502 0.87626 0.72426 0.0
C898 C 0.90775 0.8997 0.58141 0.0
C899 C 0.90615 0.93789 0.6654 0.0
O900 O 0.89159 0.95375 0.54602 0.0
O901 O 0.91801 0.97474 0.54622 0.0
O902 O 0.92988 0.96959 0.62403 0.0
O903 O 0.94829 0.94372 0.61272 0.0
O904 O 0.94471 0.93638 0.53896 0.0
O905 O 0.95994 0.90874 0.56967 0.0
O906 O 0.97263 0.90456 0.64702 0.0
O907 O 0.94772 0.88359 0.66068 0.0
O908 O 0.9128 0.88966 0.61126 0.0
O909 O 0.9212 0.91283 0.57474 0.0
O910 O 0.92329 0.92724 0.66868 0.0
O911 O 0.89887 0.94357 0.63253 0.0
H912 H 0.92521 0.95701 0.4765 0.0
H913 H 0.92441 0.96778 0.4114 0.0
H914 H 0.86957 0.00327 0.43314 0.0
H915 H 0.87046 0.99231 0.49795 0.0
H916 H 0.95455 0.91861 0.71809 0.0
H917 H 0.96398 0.9213 0.78366 0.0
H918 H 0.00068 0.86628 0.77337 0.0
H919 H 0.99098 0.86365 0.70787 0.0
Nd920 Nd 0.31596 0.655 0.83535 0.0
Nd921 Nd 0.34046 0.68768 0.88202 0.0
C922 C 0.30428 0.62837 0.78374 0.0
C923 C 0.29617 0.6295 0.74561 0.0
C924 C 0.29651 0.64803 0.72577 0.0
C925 C 0.28798 0.64917 0.69019 0.0
C926 C 0.27886 0.63177 0.67371 0.0
C927 C 0.27886 0.61315 0.69364 0.0
C928 C 0.28737 0.61207 0.72925 0.0
C929 C 0.29205 0.68274 0.87027 0.0
C930 C 0.33244 0.69945 0.79671 0.0
C931 C 0.35466 0.71313 0.93342 0.0
C932 C 0.35186 0.7183 0.97309 0.0
C933 C 0.33341 0.71426 0.99208 0.0
C934 C 0.33128 0.71968 0.02963 0.0
C935 C 0.34754 0.72929 0.0489 0.0
C936 C 0.36601 0.733 0.02965 0.0
C937 C 0.3681 0.72759 0.9923 0.0
C938 C 0.3634 0.66006 0.84113 0.0
C939 C 0.31597 0.64996 0.92453 0.0
O940 O 0.32342 0.63392 0.78874 0.0
O941 O 0.29209 0.63536 0.80956 0.0
O942 O 0.28596 0.66418 0.86309 0.0
O943 O 0.30918 0.68673 0.85559 0.0
O944 O 0.32411 0.68087 0.7927 0.0
O945 O 0.33851 0.70657 0.82922 0.0
O946 O 0.33967 0.71783 0.91069 0.0
O947 O 0.36316 0.69537 0.92589 0.0
O948 O 0.36849 0.67914 0.84638 0.0
O949 O 0.34746 0.65596 0.85976 0.0
O950 O 0.32318 0.66887 0.92522 0.0
O951 O 0.31457 0.63931 0.89316 0.0
H952 H 0.30312 0.66167 0.73802 0.0
H953 H 0.28806 0.66383 0.67601 0.0
H954 H 0.2723 0.59937 0.6817 0.0
H955 H 0.287 0.5976 0.74409 0.0
H956 H 0.32065 0.70703 0.97785 0.0
H957 H 0.3168 0.71664 0.04336 0.0
H958 H 0.37903 0.73992 0.04356 0.0
H959 H 0.38251 0.73072 0.97832 0.0
Nd960 Nd 0.4436 0.05947 0.73142 0.0
Nd961 Nd 0.41387 0.03794 0.7839 0.0
C962 C 0.46736 0.08078 0.68521 0.0
C963 C 0.47077 0.08121 0.64442 0.0
C964 C 0.4744 0.09996 0.62636 0.0
C965 C 0.47838 0.10056 0.58812 0.0
C966 C 0.47891 0.08239 0.56683 0.0
C967 C 0.47491 0.06362 0.58502 0.0
C968 C 0.47084 0.06305 0.62324 0.0
C969 C 0.4559 0.02087 0.75308 0.0
C970 C 0.41229 0.02627 0.6971 0.0
C971 C 0.3949 0.01686 0.8366 0.0
C972 C 0.39743 0.00858 0.87466 0.0
C973 C 0.39266 0.98789 0.88142 0.0
C974 C 0.39338 0.97987 0.91738 0.0
C975 C 0.39878 0.99237 0.94772 0.0
C976 C 0.40405 0.01303 0.94078 0.0
C977 C 0.40336 0.02106 0.90467 0.0
C978 C 0.39603 0.06889 0.74266 0.0
C979 C 0.44975 0.06709 0.82103 0.0
O980 O 0.44979 0.08765 0.69753 0.0
O981 O 0.47339 0.06433 0.70283 0.0
O982 O 0.45394 0.02674 0.71893 0.0
O983 O 0.448 0.03429 0.77382 0.0
O984 O 0.42087 0.04436 0.6914 0.0
O985 O 0.41125 0.01828 0.73079 0.0
O986 O 0.40549 0.00813 0.80997 0.0
O987 O 0.39324 0.03683 0.83267 0.0
O988 O 0.38653 0.0523 0.7525 0.0
O989 O 0.41379 0.06947 0.75682 0.0
O990 O 0.43371 0.05502 0.82608 0.0
O991 O 0.45632 0.07189 0.78731 0.0
H992 H 0.47427 0.1142 0.64193 0.0
H993 H 0.48096 0.11536 0.57522 0.0
H994 H 0.47534 0.04926 0.56991 0.0
H995 H 0.46797 0.04834 0.63631 0.0
H996 H 0.38806 0.97793 0.85882 0.0
H997 H 0.38966 0.96381 0.92139 0.0
H998 H 0.40819 0.02318 0.96336 0.0
H999 H 0.4071 0.03709 0.90038 0.0
Nd1000 Nd 0.66364 0.68607 0.49328 0.0
Nd1001 Nd 0.69286 0.65697 0.53782 0.0
C1002 C 0.6397 0.7035 0.44261 0.0
C1003 C 0.63996 0.70709 0.40211 0.0
C1004 C 0.65037 0.69385 0.37776 0.0
C1005 C 0.65118 0.69818 0.33966 0.0
C1006 C 0.64151 0.71581 0.32511 0.0
C1007 C 0.6311 0.72896 0.34979 0.0
C1008 C 0.63036 0.72465 0.38778 0.0
C1009 C 0.69695 0.70484 0.52549 0.0
C1010 C 0.70225 0.66186 0.45066 0.0
C1011 C 0.71736 0.63906 0.58703 0.0
C1012 C 0.72516 0.641 0.62554 0.0
C1013 C 0.71247 0.64715 0.65507 0.0
C1014 C 0.72016 0.64787 0.69146 0.0
C1015 C 0.74069 0.64236 0.69916 0.0
C1016 C 0.75335 0.63652 0.6693 0.0
C1017 C 0.74567 0.63584 0.63305 0.0
C1018 C 0.66168 0.6384 0.4989 0.0
C1019 C 0.65929 0.68737 0.58081 0.0
O1020 O 0.63729 0.6846 0.45414 0.0
O1021 O 0.65341 0.71354 0.46183 0.0
O1022 O 0.67884 0.71313 0.52307 0.0
O1023 O 0.69686 0.68747 0.5101 0.0
O1024 O 0.68406 0.67093 0.44836 0.0
O1025 O 0.71062 0.65689 0.48289 0.0
O1026 O 0.72386 0.65251 0.56269 0.0
O1027 O 0.69799 0.63417 0.58252 0.0
O1028 O 0.67969 0.63024 0.50382 0.0
O1029 O 0.66019 0.65475 0.51751 0.0
O1030 O 0.6772 0.67773 0.58109 0.0
O1031 O 0.6484 0.68942 0.55005 0.0
H1032 H 0.65787 0.68018 0.38818 0.0
H1033 H 0.65916 0.68756 0.32156 0.0
H1034 H 0.62379 0.74286 0.33987 0.0
H1035 H 0.62243 0.73519 0.40609 0.0
H1036 H 0.69656 0.65115 0.65012 0.0
H1037 H 0.70988 0.65234 0.71365 0.0
H1038 H 0.76931 0.63257 0.67386 0.0
H1039 H 0.75579 0.63109 0.61078 0.0
Nd1040 Nd 0.0513 0.9228 0.22904 0.0
Nd1041 Nd 0.08122 0.95094 0.27388 0.0
C1042 C 0.03392 0.9004 0.17597 0.0
C1043 C 0.03049 0.90166 0.13511 0.0
C1044 C 0.03943 0.88705 0.11134 0.0
C1045 C 0.03534 0.88731 0.0731 0.0
C1046 C 0.02202 0.90206 0.05765 0.0
C1047 C 0.01339 0.91691 0.08139 0.0
C1048 C 0.0176 0.91675 0.11953 0.0
C1049 C 0.03318 0.95561 0.26363 0.0
C1050 C 0.07575 0.96187 0.18731 0.0
C1051 C 0.10022 0.97424 0.3237 0.0
C1052 C 0.10012 0.98047 0.36333 0.0
C1053 C 0.08197 0.98595 0.382 0.0
C1054 C 0.08269 0.99314 0.41873 0.0
C1055 C 0.10158 0.99501 0.43766 0.0
C1056 C 0.11962 0.98897 0.41903 0.0
C1057 C 0.11888 0.98184 0.3824 0.0
C1058 C 0.09911 0.92011 0.23336 0.0
C1059 C 0.05067 0.91725 0.3169 0.0
O1060 O 0.05271 0.89733 0.18766 0.0
O1061 O 0.02385 0.91332 0.19693 0.0
O1062 O 0.02473 0.93759 0.26047 0.0
O1063 O 0.0504 0.95578 0.24755 0.0
O1064 O 0.06565 0.94424 0.18486 0.0
O1065 O 0.08196 0.96933 0.2196 0.0
O1066 O 0.08534 0.98089 0.30235 0.0
O1067 O 0.10581 0.95539 0.31599 0.0
O1068 O 0.10744 0.938 0.2386 0.0
O1069 O 0.08281 0.91844 0.25214 0.0
O1070 O 0.06126 0.93461 0.31762 0.0
O1071 O 0.04734 0.9071 0.28559 0.0
H1072 H 0.04933 0.87518 0.12247 0.0
H1073 H 0.04216 0.87555 0.05579 0.0
H1074 H 0.00331 0.92868 0.07047 0.0
H1075 H 0.01049 0.92835 0.13683 0.0
H1076 H 0.06725 0.98502 0.36806 0.0
H1077 H 0.06848 -0.00222 0.43188 0.0
H1078 H 0.1344 0.98977 0.43272 0.0
H1079 H 0.13309 0.97766 0.3687 0.0
Nd1080 Nd 0.81257 0.32044 0.96943 0.0
Nd1081 Nd 0.7906 0.35219 1.01837 0.0
C1082 C 0.83258 0.30046 0.91598 0.0
C1083 C 0.83133 0.2965 0.87538 0.0
C1084 C 0.84861 0.30026 0.8531 0.0
C1085 C 0.84835 0.29574 0.81512 0.0
C1086 C 0.83083 0.28706 0.79824 0.0
C1087 C 0.81331 0.28379 0.82053 0.0
C1088 C 0.81354 0.28854 0.85855 0.0
C1089 C 0.77219 0.31087 0.98543 0.0
C1090 C 0.78634 0.3586 0.93027 0.0
C1091 C 0.76875 0.37121 0.07041 0.0
C1092 C 0.76045 0.36819 0.10849 0.0
C1093 C 0.77264 0.36075 0.13779 0.0
C1094 C 0.76459 0.3592 0.17387 0.0
C1095 C 0.74413 0.36503 0.18158 0.0
C1096 C 0.73192 0.372 0.15186 0.0
C1097 C 0.73999 0.37361 0.11595 0.0
C1098 C 0.8291 0.36335 0.99378 0.0
C1099 C 0.81309 0.31171 0.05583 0.0
O1100 O 0.83694 0.31917 0.92627 0.0
O1101 O 0.81893 0.29184 0.93757 0.0
O1102 O 0.78738 0.29805 0.98747 0.0
O1103 O 0.77917 0.32841 0.97808 0.0
O1104 O 0.80152 0.34514 0.92762 0.0
O1105 O 0.77745 0.36271 0.96244 0.0
O1106 O 0.76047 0.36043 0.04369 0.0
O1107 O 0.78863 0.37334 0.06655 0.0
O1108 O 0.81387 0.37613 0.99749 0.0
O1109 O 0.82399 0.3458 1.00557 0.0
O1110 O 0.79736 0.32455 0.05617 0.0
O1111 O 0.82466 0.3096 0.02591 0.0
H1112 H 0.86248 0.30654 0.86519 0.0
H1113 H 0.86199 0.29906 0.79901 0.0
H1114 H 0.79952 0.27708 0.8089 0.0
H1115 H 0.79987 0.28573 0.87484 0.0
H1116 H 0.78848 0.35637 0.13295 0.0
H1117 H 0.77458 0.35387 0.19584 0.0
H1118 H 0.716 0.37617 0.15622 0.0
H1119 H 0.73022 0.3793 0.09392 0.0
Nd1120 Nd 0.4543 0.91038 0.24684 0.0
Nd1121 Nd 0.41705 0.92987 0.28955 0.0
C1122 C 0.48279 0.90105 0.19725 0.0
C1123 C 0.48706 0.90571 0.15792 0.0
C1124 C 0.47818 0.92275 0.14012 0.0
C1125 C 0.48238 0.92674 0.10265 0.0
C1126 C 0.49562 0.91382 0.08229 0.0
C1127 C 0.50427 0.8967 0.10038 0.0
C1128 C 0.50004 0.89272 0.13772 0.0
C1129 C 0.42903 0.88348 0.28412 0.0
C1130 C 0.41424 0.92882 0.20071 0.0
C1131 C 0.38803 0.93691 0.33919 0.0
C1132 C 0.38805 0.94137 0.37922 0.0
C1133 C 0.40353 0.93361 0.40242 0.0
C1134 C 0.40447 0.93948 0.43966 0.0
C1135 C 0.39005 0.9534 0.45436 0.0
C1136 C 0.37425 0.96068 0.43116 0.0
C1137 C 0.37327 0.95469 0.39397 0.0
C1138 C 0.44257 0.95734 0.25733 0.0
C1139 C 0.46202 0.9199 0.33305 0.0
O1140 O 0.48455 0.91629 0.22075 0.0
O1141 O 0.46679 0.8894 0.20389 0.0
O1142 O 0.44882 0.8812 0.28129 0.0
O1143 O 0.4233 0.89886 0.26541 0.0
O1144 O 0.43396 0.92421 0.20167 0.0
O1145 O 0.40274 0.92931 0.23106 0.0
O1146 O 0.39364 0.9184 0.32907 0.0
O1147 O 0.39589 0.95128 0.31825 0.0
O1148 O 0.42299 0.96073 0.26098 0.0
O1149 O 0.44801 0.94096 0.2731 0.0
O1150 O 0.44224 0.92505 0.33499 0.0
O1151 O 0.47104 0.91511 0.30139 0.0
H1152 H 0.46806 0.933 0.15519 0.0
H1153 H 0.47548 0.94011 0.08981 0.0
H1154 H 0.51413 0.88611 0.08555 0.0
H1155 H 0.5069 0.8794 0.15082 0.0
H1156 H 0.41511 0.9233 0.39161 0.0
H1157 H 0.41667 0.93331 0.45679 0.0
H1158 H 0.36306 0.97164 0.4413 0.0
H1159 H 0.36128 0.96095 0.37644 0.0
Nd1160 Nd 0.83154 0.70024 0.99197 0.0
Nd1161 Nd 0.80664 0.66792 0.03879 0.0
C1162 C 0.84634 0.72564 0.94094 0.0
C1163 C 0.84375 0.73103 0.90138 0.0
C1164 C 0.8287 0.72172 0.87906 0.0
C1165 C 0.82705 0.72681 0.84131 0.0
C1166 C 0.84046 0.7413 0.82513 0.0
C1167 C 0.8553 0.75072 0.84794 0.0
C1168 C 0.85692 0.74562 0.88552 0.0
C1169 C 0.8541 0.67189 0.03157 0.0
C1170 C 0.8066 0.66237 0.95005 0.0
C1171 C 0.7959 0.64141 0.09106 0.0
C1172 C 0.78926 0.64257 0.13013 0.0
C1173 C 0.79634 0.65818 0.15378 0.0
C1174 C 0.78888 0.65974 0.1901 0.0
C1175 C 0.77409 0.64576 0.20346 0.0
C1176 C 0.76731 0.62998 0.17971 0.0
C1177 C 0.77483 0.62841 0.14349 0.0
C1178 C 0.783 0.69612 1.00441 0.0
C1179 C 0.82346 0.71207 0.0776 0.0
O1180 O 0.83135 0.73052 0.96353 0.0
O1181 O 0.85433 0.70761 0.9482 0.0
O1182 O 0.85941 0.691 0.02755 0.0
O1183 O 0.83792 0.66832 1.01337 0.0
O1184 O 0.81406 0.68122 0.9489 0.0
O1185 O 0.80491 0.652 0.98159 0.0
O1186 O 0.81502 0.64622 0.08379 0.0
O1187 O 0.78302 0.64881 0.06671 0.0
O1188 O 0.77631 0.67791 1.01281 0.0
O1189 O 0.80035 0.69977 1.01847 0.0
O1190 O 0.8149 0.69361 0.0814 0.0
O1191 O 0.82988 0.71907 0.04518 0.0
H1192 H 0.81832 0.71044 0.89075 0.0
H1193 H 0.81553 0.71912 0.82468 0.0
H1194 H 0.86564 0.76221 0.83682 0.0
H1195 H 0.86858 0.75306 0.90224 0.0
H1196 H 0.8075 0.66927 0.14407 0.0
H1197 H 0.79468 0.67192 0.20768 0.0
H1198 H 0.75573 0.61912 0.18873 0.0
H1199 H 0.76907 0.61632 0.12563 0.0
Nd1200 Nd 0.05137 0.08762 0.72875 0.0
Nd1201 Nd 0.08516 0.06587 0.77715 0.0
C1202 C 0.0241 0.09859 0.67772 0.0
C1203 C 0.01903 0.09589 0.63803 0.0
C1204 C 0.02728 0.07983 0.61665 0.0
C1205 C 0.0221 0.07788 0.57896 0.0
C1206 C 0.00852 0.09194 0.56198 0.0
C1207 C 0.00051 0.10805 0.5837 0.0
C1208 C 0.00569 0.10996 0.62117 0.0
C1209 C 0.08017 0.11268 0.76163 0.0
C1210 C 0.08933 0.0626 0.6882 0.0
C1211 C 0.11129 0.05616 0.83075 0.0
C1212 C 0.10828 0.04842 0.86883 0.0
C1213 C 0.12516 0.0447 0.89199 0.0
C1214 C 0.12223 0.037 0.92791 0.0
C1215 C 0.10231 0.03276 0.94133 0.0
C1216 C 0.08545 0.03664 0.91787 0.0
C1217 C 0.08842 0.04433 0.88205 0.0
C1218 C 0.05522 0.04051 0.7521 0.0
C1219 C 0.04259 0.08628 0.81631 0.0
O1220 O 0.0217 0.08271 0.69962 0.0
O1221 O 0.04057 0.10932 0.68545 0.0
O1222 O 0.06116 0.11789 0.75587 0.0
O1223 O 0.08376 0.09553 0.74648 0.0
O1224 O 0.07012 0.06896 0.68741 0.0
O1225 O 0.10034 0.0626 0.71924 0.0
O1226 O 0.1051 0.07495 0.82442 0.0
O1227 O 0.10602 0.04351 0.80428 0.0
O1228 O 0.074 0.03454 0.75736 0.0
O1229 O 0.05246 0.05868 0.76295 0.0
O1230 O 0.06132 0.07836 0.81997 0.0
O1231 O 0.03418 0.08966 0.78352 0.0
H1232 H 0.03768 0.06881 0.62907 0.0
H1233 H 0.02852 0.06523 0.56328 0.0
H1234 H 0.99041 0.11945 0.57162 0.0
H1235 H -0.00073 0.12255 0.63705 0.0
H1236 H 0.14062 0.04779 0.88233 0.0
H1237 H 0.13557 0.0345 0.94526 0.0
H1238 H 0.06993 0.03326 0.92682 0.0
H1239 H 0.07519 0.04681 0.8644 0.0
Nd1240 Nd 0.65788 0.30512 0.47903 0.0
Nd1241 Nd 0.68029 0.34037 0.52357 0.0
C1242 C 0.64685 0.27807 0.42786 0.0
C1243 C 0.65063 0.274 0.38778 0.0
C1244 C 0.66062 0.25585 0.37678 0.0
C1245 C 0.66302 0.25105 0.33911 0.0
C1246 C 0.65542 0.26424 0.31135 0.0
C1247 C 0.64597 0.28273 0.32245 0.0
C1248 C 0.64361 0.28754 0.36011 0.0
C1249 C 0.63306 0.3324 0.51657 0.0
C1250 C 0.6796 0.34401 0.43441 0.0
C1251 C 0.69012 0.36898 0.57265 0.0
C1252 C 0.69855 0.36961 0.61055 0.0
C1253 C 0.69516 0.35347 0.63562 0.0
C1254 C 0.70415 0.3539 0.67085 0.0
C1255 C 0.71694 0.37036 0.68155 0.0
C1256 C 0.72007 0.38657 0.65634 0.0
C1257 C 0.71093 0.38619 0.62125 0.0
C1258 C 0.70555 0.31265 0.49145 0.0
C1259 C 0.66624 0.29605 0.56587 0.0
O1260 O 0.66217 0.27501 0.45078 0.0
O1261 O 0.63585 0.29426 0.43651 0.0
O1262 O 0.62883 0.31302 0.51214 0.0
O1263 O 0.64908 0.33693 0.49848 0.0
O1264 O 0.67364 0.32465 0.43461 0.0
O1265 O 0.68044 0.35514 0.46521 0.0
O1266 O 0.67142 0.36186 0.56858 0.0
O1267 O 0.70273 0.36242 0.54708 0.0
O1268 O 0.71089 0.33166 0.49654 0.0
O1269 O 0.68856 0.30866 0.5064 0.0
O1270 O 0.67362 0.31513 0.56832 0.0
O1271 O 0.66039 0.28787 0.53393 0.0
H1272 H 0.66632 0.24516 0.39738 0.0
H1273 H 0.67074 0.23688 0.33177 0.0
H1274 H 0.63977 0.29323 0.30206 0.0
H1275 H 0.63591 0.30172 0.36745 0.0
H1276 H 0.68559 0.34054 0.62797 0.0
H1277 H 0.70109 0.34132 0.68968 0.0
H1278 H 0.73003 0.39933 0.66328 0.0
H1279 H 0.71384 0.39871 0.60218 0.0
C1280 C 0.07523 0.4843 0.19662 0.0
C1281 C 0.07575 0.46276 0.19684 0.0
C1282 C 0.07754 0.4956 0.22964 0.0
C1283 C 0.0806 0.48512 0.26365 0.0
C1284 C 0.08112 0.46336 0.26393 0.0
C1285 C 0.07874 0.45249 0.23059 0.0
C1286 C 0.07676 0.51876 0.22813 0.0
C1287 C 0.08436 0.45149 0.29941 0.0
C1288 C 0.10681 0.51166 0.34503 0.0
C1289 C 0.09013 0.5163 0.36826 0.0
C1290 C 0.10387 0.50201 0.31057 0.0
C1291 C 0.08374 0.49679 0.29889 0.0
C1292 C 0.06678 0.50186 0.32176 0.0
C1293 C 0.07017 0.51157 0.35609 0.0
C1294 C 0.12236 0.49704 0.28694 0.0
C1295 C 0.04509 0.49646 0.3105 0.0
H1296 H 0.0728 0.49234 0.17068 0.0
H1297 H 0.07958 0.43588 0.23096 0.0
H1298 H 0.06432 0.52453 0.24639 0.0
H1299 H 0.09142 0.52527 0.23858 0.0
H1300 H 0.07406 0.52458 0.1996 0.0
H1301 H 0.08379 0.43459 0.29502 0.0
H1302 H 0.09951 0.45549 0.31156 0.0
H1303 H 0.07244 0.45574 0.32 0.0
H1304 H 0.12225 0.51554 0.35388 0.0
H1305 H 0.05719 0.51488 0.37395 0.0
H1306 H 0.1205 0.50377 0.2589 0.0
H1307 H 0.12369 0.48015 0.28347 0.0
H1308 H 0.13689 0.5029 0.29919 0.0
H1309 H 0.04177 0.50239 0.28231 0.0
H1310 H 0.03349 0.50274 0.33003 0.0
H1311 H 0.04336 0.4795 0.30948 0.0
C1312 C 0.72185 0.8638 0.62199 0.0
C1313 C 0.72067 0.84668 0.64558 0.0
C1314 C 0.7316 0.86255 0.58729 0.0
C1315 C 0.74033 0.84369 0.57562 0.0
C1316 C 0.73922 0.82635 0.59925 0.0
C1317 C 0.72943 0.82805 0.63388 0.0
C1318 C 0.73253 0.88143 0.56303 0.0
C1319 C 0.74827 0.80593 0.58786 0.0
C1320 C 0.74802 0.83523 0.47205 0.0
C1321 C 0.76918 0.83863 0.46805 0.0
C1322 C 0.73848 0.8367 0.50691 0.0
C1323 C 0.75031 0.84205 0.53845 0.0
C1324 C 0.77165 0.84582 0.5344 0.0
C1325 C 0.78083 0.84398 0.49929 0.0
C1326 C 0.71577 0.83227 0.51005 0.0
C1327 C 0.78485 0.85163 0.56717 0.0
H1328 H 0.71491 0.87819 0.63046 0.0
H1329 H 0.7289 0.8148 0.65204 0.0
H1330 H 0.74874 0.88506 0.55611 0.0
H1331 H 0.72439 0.87848 0.53655 0.0
H1332 H 0.7255 0.89508 0.57652 0.0
H1333 H 0.74651 0.79402 0.60968 0.0
H1334 H 0.74064 0.80042 0.56227 0.0
H1335 H 0.76485 0.8077 0.58145 0.0
H1336 H 0.739 0.8308 0.44809 0.0
H1337 H 0.79717 0.84675 0.49629 0.0
H1338 H 0.70756 0.84628 0.51938 0.0
H1339 H 0.71303 0.82019 0.53117 0.0
H1340 H 0.70901 0.82713 0.48334 0.0
H1341 H 0.77864 0.86564 0.58065 0.0
H1342 H 0.80109 0.85452 0.55918 0.0
H1343 H 0.78455 0.83914 0.58808 0.0
C1344 C 0.37879 0.53451 0.74186 0.0
C1345 C 0.38329 0.52248 0.71069 0.0
C1346 C 0.37599 0.52545 0.77686 0.0
C1347 C 0.37861 0.50396 0.781 0.0
C1348 C 0.38286 0.49174 0.74942 0.0
C1349 C 0.38466 0.5011 0.7145 0.0
C1350 C 0.37152 0.53904 0.80975 0.0
C1351 C 0.38691 0.46899 0.75288 0.0
C1352 C 0.39599 0.48361 0.87485 0.0
C1353 C 0.37814 0.47393 0.88791 0.0
C1354 C 0.3963 0.49384 0.84062 0.0
C1355 C 0.37826 0.49438 0.81857 0.0
C1356 C 0.35999 0.48521 0.83209 0.0
C1357 C 0.36018 0.47498 0.8664 0.0
C1358 C 0.4163 0.50356 0.82863 0.0
C1359 C 0.34022 0.48624 0.81027 0.0
H1360 H 0.37802 0.55106 0.73899 0.0
H1361 H 0.3887 0.49184 0.69061 0.0
H1362 H 0.35978 0.53193 0.82801 0.0
H1363 H 0.38578 0.541 0.82625 0.0
H1364 H 0.366 0.55446 0.80116 0.0
H1365 H 0.38961 0.46157 0.72558 0.0
H1366 H 0.40065 0.46649 0.77056 0.0
H1367 H 0.37376 0.46126 0.76659 0.0
H1368 H 0.40984 0.48338 0.89154 0.0
H1369 H 0.3463 0.46752 0.87611 0.0
H1370 H 0.41483 0.51375 0.80421 0.0
H1371 H 0.42748 0.49121 0.82212 0.0
H1372 H 0.42291 0.51264 0.85182 0.0
H1373 H 0.3366 0.50246 0.80336 0.0
H1374 H 0.32704 0.47955 0.82567 0.0
H1375 H 0.34199 0.47782 0.78373 0.0
C1376 C 0.7612 0.16155 0.10188 0.0
C1377 C 0.7658 0.14264 0.11867 0.0
C1378 C 0.75314 0.1625 0.06587 0.0
C1379 C 0.74938 0.14408 0.0461 0.0
C1380 C 0.7545 0.12496 0.06237 0.0
C1381 C 0.7627 0.12447 0.09841 0.0
C1382 C 0.74786 0.18322 0.04959 0.0
C1383 C 0.75068 0.105 0.04219 0.0
C1384 C 0.70655 0.14873 0.97555 0.0
C1385 C 0.71747 0.15201 0.94253 0.0
C1386 C 0.71677 0.14517 1.00909 0.0
C1387 C 0.73851 0.14493 1.0098 0.0
C1388 C 0.74964 0.1472 0.97628 0.0
C1389 C 0.73897 0.15066 0.94293 0.0
C1390 C 0.70426 0.14264 0.04407 0.0
C1391 C 0.77283 0.14702 0.97594 0.0
H1392 H 0.76319 0.17567 0.11739 0.0
H1393 H 0.76648 0.10981 0.11089 0.0
H1394 H 0.75479 0.18487 0.02166 0.0
H1395 H 0.73096 0.18453 0.04631 0.0
H1396 H 0.75326 0.19612 0.06725 0.0
H1397 H 0.75696 0.09156 0.05741 0.0
H1398 H 0.73391 0.10274 0.0384 0.0
H1399 H 0.7577 0.1055 1.01419 0.0
H1400 H 0.68991 0.14956 0.97548 0.0
H1401 H 0.7475 0.15322 0.91755 0.0
H1402 H 0.70726 0.15573 0.06304 0.0
H1403 H 0.70885 0.1284 0.05878 0.0
H1404 H 0.6875 0.14197 0.03844 0.0
H1405 H 0.77868 0.16096 0.99016 0.0
H1406 H 0.77913 0.14671 0.94733 0.0
H1407 H 0.77876 0.1335 0.99131 0.0
C1408 C 0.91354 0.53338 0.11243 0.0
C1409 C 0.9017 0.52789 0.14344 0.0
C1410 C 0.91155 0.52299 0.07852 0.0
C1411 C 0.89716 0.50678 0.07516 0.0
C1412 C 0.88513 0.50114 0.10633 0.0
C1413 C 0.88765 0.51165 0.14018 0.0
C1414 C 0.92493 0.52938 0.04632 0.0
C1415 C 0.86964 0.48393 0.1039 0.0
C1416 C 0.87941 0.49386 0.97722 0.0
C1417 C 0.89152 0.47665 0.96849 0.0
C1418 C 0.88076 0.50349 1.01204 0.0
C1419 C 0.89468 0.4959 0.03891 0.0
C1420 C 0.90682 0.47844 0.03048 0.0
C1421 C 0.90506 0.46901 0.99552 0.0
C1422 C 0.86756 0.52208 1.0198 0.0
C1423 C 0.92215 0.47007 0.05799 0.0
H1424 H 0.92482 0.54553 0.11483 0.0
H1425 H 0.87857 0.50721 0.16405 0.0
H1426 H 0.93297 0.51586 0.03448 0.0
H1427 H 0.91522 0.53603 0.02407 0.0
H1428 H 0.93663 0.54094 0.05447 0.0
H1429 H 0.86138 0.48148 0.13048 0.0
H1430 H 0.8582 0.48735 0.08194 0.0
H1431 H 0.87747 0.46942 0.09605 0.0
H1432 H 0.86916 0.50018 0.95649 0.0
H1433 H 0.91432 0.4556 0.9894 0.0
H1434 H 0.87747 0.53573 0.02422 0.0
H1435 H 0.85857 0.5197 0.04558 0.0
H1436 H 0.85673 0.52543 0.99678 0.0
H1437 H 0.93471 0.4814 0.06187 0.0
H1438 H 0.92902 0.45532 0.0487 0.0
H1439 H 0.91479 0.46769 0.08538 0.0
C1440 C 0.19921 0.15746 0.88833 0.0
C1441 C 0.20954 0.15632 0.92243 0.0
C1442 C 0.20939 0.15344 0.85481 0.0
C1443 C 0.23047 0.14802 0.85522 0.0
C1444 C 0.24093 0.14651 0.8896 0.0
C1445 C 0.23032 0.15062 0.92282 0.0
C1446 C 0.19754 0.15509 0.81893 0.0
C1447 C 0.26341 0.14092 0.89123 0.0
C1448 C 0.25095 0.1208 0.76934 0.0
C1449 C 0.25975 0.13708 0.74927 0.0
C1450 C 0.24178 0.12406 0.80414 0.0
C1451 C 0.24149 0.14406 0.81957 0.0
C1452 C 0.25086 0.16046 0.80003 0.0
C1453 C 0.25982 0.15679 0.76515 0.0
C1454 C 0.23198 0.10615 0.82401 0.0
C1455 C 0.25086 0.18203 0.81542 0.0
H1456 H 0.18306 0.16154 0.88777 0.0
H1457 H 0.23843 0.14985 0.94901 0.0
H1458 H 0.2055 0.16564 0.79953 0.0
H1459 H 0.19678 0.13979 0.80541 0.0
H1460 H 0.18162 0.16078 0.82321 0.0
H1461 H 0.26923 0.14001 0.92013 0.0
H1462 H 0.26601 0.12589 0.87748 0.0
H1463 H 0.27259 0.15253 0.87596 0.0
H1464 H 0.25111 0.10545 0.75771 0.0
H1465 H 0.2663 0.16955 0.74981 0.0
H1466 H 0.21523 0.10888 0.82698 0.0
H1467 H 0.23844 0.10467 0.85234 0.0
H1468 H 0.23429 0.09139 0.80909 0.0
H1469 H 0.23485 0.18782 0.81713 0.0
H1470 H 0.25997 0.1928 0.79807 0.0
H1471 H 0.25722 0.18212 0.84395 0.0
C1472 C 0.62163 0.50688 0.49946 0.0
C1473 C 0.60308 0.5154 0.48673 0.0
C1474 C 0.62343 0.49908 0.53564 0.0
C1475 C 0.60616 0.49935 0.55946 0.0
C1476 C 0.58774 0.50886 0.54751 0.0
C1477 C 0.58653 0.517 0.51156 0.0
C1478 C 0.6435 0.48952 0.54762 0.0
C1479 C 0.56885 0.50927 0.57182 0.0
C1480 C 0.59882 0.4558 0.62779 0.0
C1481 C 0.60166 0.46568 0.66204 0.0
C1482 C 0.60074 0.46649 0.59432 0.0
C1483 C 0.60637 0.48749 0.5948 0.0
C1484 C 0.61076 0.49721 0.62907 0.0
C1485 C 0.60812 0.48624 0.6624 0.0
C1486 C 0.59563 0.45553 0.55854 0.0
C1487 C 0.61738 0.51941 0.63062 0.0
H1488 H 0.63453 0.50538 0.48068 0.0
H1489 H 0.57231 0.52407 0.50253 0.0
H1490 H 0.64758 0.4945 0.57609 0.0
H1491 H 0.64191 0.47255 0.54803 0.0
H1492 H 0.6563 0.49358 0.52861 0.0
H1493 H 0.55621 0.51849 0.55951 0.0
H1494 H 0.56322 0.49334 0.57614 0.0
H1495 H 0.57261 0.51568 0.59946 0.0
H1496 H 0.5941 0.43984 0.627 0.0
H1497 H 0.61045 0.49398 0.68866 0.0
H1498 H 0.609 0.45598 0.53952 0.0
H1499 H 0.58268 0.46341 0.54445 0.0
H1500 H 0.59124 0.43922 0.56306 0.0
H1501 H 0.62969 0.52241 0.61004 0.0
H1502 H 0.62303 0.52381 0.65857 0.0
H1503 H 0.60419 0.52945 0.62346 0.0
C1504 C 0.26777 0.83866 0.41258 0.0
C1505 C 0.28906 0.83539 0.41388 0.0
C1506 C 0.2576 0.84152 0.37852 0.0
C1507 C 0.26903 0.84125 0.34505 0.0
C1508 C 0.29061 0.83857 0.34641 0.0
C1509 C 0.30032 0.83568 0.38073 0.0
C1510 C 0.23457 0.84419 0.37825 0.0
C1511 C 0.30345 0.83825 0.31154 0.0
C1512 C 0.24338 0.82722 0.25361 0.0
C1513 C 0.24108 0.8465 0.23665 0.0
C1514 C 0.25194 0.82534 0.28923 0.0
C1515 C 0.25846 0.84317 0.30846 0.0
C1516 C 0.25577 0.86271 0.29189 0.0
C1517 C 0.2471 0.86414 0.25629 0.0
C1518 C 0.25456 0.8042 0.30582 0.0
C1519 C 0.26252 0.88208 0.31143 0.0
H1520 H 0.25895 0.83828 0.43805 0.0
H1521 H 0.31681 0.83345 0.38155 0.0
H1522 H 0.23035 0.85838 0.36302 0.0
H1523 H 0.22733 0.8311 0.36348 0.0
H1524 H 0.22804 0.84503 0.40666 0.0
H1525 H 0.32016 0.83701 0.31752 0.0
H1526 H 0.29888 0.82502 0.294 0.0
H1527 H 0.30074 0.85242 0.29515 0.0
H1528 H 0.23907 0.81346 0.23857 0.0
H1529 H 0.24512 0.87913 0.24372 0.0
H1530 H 0.24762 0.80363 0.33389 0.0
H1531 H 0.27116 0.80071 0.30892 0.0
H1532 H 0.24743 0.79202 0.28849 0.0
H1533 H 0.25522 0.88306 0.33916 0.0
H1534 H 0.25858 0.89615 0.29551 0.0
H1535 H 0.27939 0.88174 0.3158 0.0
C1536 C 0.63954 -0.00107 0.8754 0.0
C1537 C 0.62082 0.00061 0.89449 0.0
C1538 C 0.64045 0.98997 0.83995 0.0
C1539 C 0.62218 0.98273 0.82301 0.0
C1540 C 0.60337 0.98379 0.8428 0.0
C1541 C 0.60294 0.99282 0.87804 0.0
C1542 C 0.66103 0.98764 0.82112 0.0
C1543 C 0.58345 0.97509 0.82815 0.0
C1544 C 0.61821 0.97907 0.71812 0.0
C1545 C 0.61646 0.9578 0.71306 0.0
C1546 C 0.62076 0.98744 0.75374 0.0
C1547 C 0.62268 0.97415 0.78468 0.0
C1548 C 0.62287 0.95261 0.77907 0.0
C1549 C 0.61926 0.94471 0.74344 0.0
C1550 C 0.61967 0.01047 0.75859 0.0
C1551 C 0.6252 0.93779 0.81093 0.0
H1552 H 0.65348 0.0047 0.88812 0.0
H1553 H 0.58852 0.99336 0.8931 0.0
H1554 H 0.66372 0.97121 0.81436 0.0
H1555 H 0.66119 -0.00375 0.79463 0.0
H1556 H 0.6739 0.99323 0.83866 0.0
H1557 H 0.57805 0.96279 0.84711 0.0
H1558 H 0.57147 0.98724 0.82843 0.0
H1559 H 0.58455 0.96859 0.79988 0.0
H1560 H 0.61576 0.98923 0.69473 0.0
H1561 H 0.61783 0.92828 0.73951 0.0
H1562 H 0.63393 0.01621 0.77181 0.0
H1563 H 0.60671 0.01446 0.77725 0.0
H1564 H 0.61751 0.01863 0.73184 0.0
H1565 H 0.63241 0.92323 0.80162 0.0
H1566 H 0.60975 0.93415 0.82221 0.0
H1567 H 0.63469 0.94431 0.83362 0.0
C1568 C 0.29485 0.32564 1.00555 0.0
C1569 C 0.29002 0.33772 0.97452 0.0
C1570 C 0.28571 0.32934 0.04011 0.0
C1571 C 0.27181 0.34592 0.04417 0.0
C1572 C 0.26735 0.35859 1.01324 0.0
C1573 C 0.27629 0.35414 0.97859 0.0
C1574 C 0.29033 0.31496 0.07191 0.0
C1575 C 0.25292 0.37663 1.01662 0.0
C1576 C 0.23388 0.34147 0.12406 0.0
C1577 C 0.24387 0.3525 0.15226 0.0
C1578 C 0.24253 0.33962 0.08854 0.0
C1579 C 0.26149 0.34937 0.08061 0.0
C1580 C 0.27127 0.3612 0.10842 0.0
C1581 C 0.26244 0.3625 0.14392 0.0
C1582 C 0.23149 0.32694 0.0597 0.0
C1583 C 0.29139 0.372 0.10099 0.0
H1584 H 0.30516 0.31268 1.00254 0.0
H1585 H 0.2725 0.36349 0.95469 0.0
H1586 H 0.27597 0.30722 0.0809 0.0
H1587 H 0.30173 0.30299 0.06438 0.0
H1588 H 0.2963 0.32373 0.09596 0.0
H1589 H 0.2525 0.38605 0.99096 0.0
H1590 H 0.23715 0.37105 0.02251 0.0
H1591 H 0.2576 0.38658 0.04013 0.0
H1592 H 0.21929 0.33408 0.12982 0.0
H1593 H 0.27046 0.37088 0.16546 0.0
H1594 H 0.24228 0.31616 0.04604 0.0
H1595 H 0.22526 0.33721 0.03792 0.0
H1596 H 0.21856 0.31799 0.07169 0.0
H1597 H 0.30367 0.36047 0.09625 0.0
H1598 H 0.2961 0.38207 0.12436 0.0
H1599 H 0.29021 0.38145 0.07549 0.0
C1600 C 0.90004 0.05332 0.23094 0.0
C1601 C 0.90376 0.04114 0.19958 0.0
C1602 C 0.89789 0.04444 0.26618 0.0
C1603 C 0.89978 0.02287 0.27023 0.0
C1604 C 0.90311 0.01048 0.23851 0.0
C1605 C 0.90486 0.01975 0.2035 0.0
C1606 C 0.89426 0.05824 0.29916 0.0
C1607 C 0.90553 0.98748 0.24174 0.0
C1608 C 0.91642 0.00215 0.36412 0.0
C1609 C 0.89776 0.9951 0.37891 0.0
C1610 C 0.91728 0.01121 0.32885 0.0
C1611 C 0.89904 0.01331 0.30776 0.0
C1612 C 0.88017 0.0062 0.32247 0.0
C1613 C 0.87975 -0.00284 0.35784 0.0
C1614 C 0.9377 0.01886 0.31451 0.0
C1615 C 0.86037 0.00836 0.30102 0.0
H1616 H 0.89914 0.06987 0.228 0.0
H1617 H 0.90805 0.0103 0.17943 0.0
H1618 H 0.88145 0.05227 0.31637 0.0
H1619 H 0.90823 0.05853 0.31678 0.0
H1620 H 0.89063 0.07426 0.2908 0.0
H1621 H 0.90899 0.98012 0.21467 0.0
H1622 H 0.9181 0.98377 0.26141 0.0
H1623 H 0.89122 0.98064 0.25302 0.0
H1624 H 0.93033 0.00103 0.38052 0.0
H1625 H 0.8653 0.99167 0.36902 0.0
H1626 H 0.94026 0.0134 0.28582 0.0
H1627 H 0.95077 0.01375 0.33203 0.0
H1628 H 0.93764 0.0359 0.31378 0.0
H1629 H 0.85753 0.02479 0.29459 0.0
H1630 H 0.84694 0.00222 0.31648 0.0
H1631 H 0.86158 0.0001 0.27421 0.0
C1632 C 0.21304 0.65931 0.49392 0.0
C1633 C 0.21664 0.64652 0.46327 0.0
C1634 C 0.22353 0.65648 0.5275 0.0
C1635 C 0.23789 0.64024 0.53091 0.0
C1636 C 0.24155 0.62717 0.50014 0.0
C1637 C 0.23102 0.63059 0.46654 0.0
C1638 C 0.2195 0.67114 0.55913 0.0
C1639 C 0.25663 0.60962 0.5027 0.0
C1640 C 0.27767 0.6451 0.60809 0.0
C1641 C 0.26888 0.6332 0.63644 0.0
C1642 C 0.26796 0.64724 0.57345 0.0
C1643 C 0.24904 0.63711 0.56672 0.0
C1644 C 0.24028 0.62478 0.59493 0.0
C1645 C 0.25024 0.62303 0.62938 0.0
C1646 C 0.27787 0.6605 0.54417 0.0
C1647 C 0.22011 0.61379 0.589 0.0
H1648 H 0.2024 0.67204 0.49138 0.0
H1649 H 0.23398 0.62075 0.4429 0.0
H1650 H 0.21367 0.66256 0.58352 0.0
H1651 H 0.23403 0.67875 0.56755 0.0
H1652 H 0.20815 0.68322 0.55175 0.0
H1653 H 0.25739 0.60055 0.47665 0.0
H1654 H 0.27219 0.61563 0.50899 0.0
H1655 H 0.25224 0.59921 0.52573 0.0
H1656 H 0.29222 0.65275 0.61293 0.0
H1657 H 0.24311 0.61405 0.65115 0.0
H1658 H 0.26669 0.67192 0.53354 0.0
H1659 H 0.28262 0.6508 0.52038 0.0
H1660 H 0.29159 0.66879 0.55477 0.0
H1661 H 0.20766 0.62519 0.58466 0.0
H1662 H 0.2159 0.60387 0.61287 0.0
H1663 H 0.22091 0.60413 0.5637 0.0
C1664 C 0.40223 0.02443 0.63056 0.0
C1665 C 0.40576 0.01428 0.66427 0.0
C1666 C 0.39838 0.01341 0.59791 0.0
C1667 C 0.39824 0.99166 0.59881 0.0
C1668 C 0.40111 0.98132 0.63299 0.0
C1669 C 0.40472 0.99278 0.66542 0.0
C1670 C 0.39515 0.02508 0.5622 0.0
C1671 C 0.40121 0.95815 0.63501 0.0
C1672 C 0.37478 0.96509 0.51494 0.0
C1673 C 0.39219 0.96136 0.49294 0.0
C1674 C 0.37654 0.97435 0.54999 0.0
C1675 C 0.39619 0.9799 0.56354 0.0
C1676 C 0.41388 0.97547 0.54212 0.0
C1677 C 0.41166 0.96637 0.50708 0.0
C1678 C 0.35731 0.97885 0.57195 0.0
C1679 C 0.43514 0.98106 0.55556 0.0
H1680 H 0.40284 0.04107 0.62953 0.0
H1681 H 0.40757 0.98486 0.69133 0.0
H1682 H 0.40806 0.02194 0.54295 0.0
H1683 H 0.38083 0.01988 0.5484 0.0
H1684 H 0.39418 0.04194 0.56672 0.0
H1685 H 0.40214 0.95248 0.66399 0.0
H1686 H 0.38715 0.9518 0.62193 0.0
H1687 H 0.41457 0.95208 0.61935 0.0
H1688 H 0.3597 0.96099 0.50454 0.0
H1689 H 0.42518 0.96388 0.49017 0.0
H1690 H 0.35532 0.99571 0.57468 0.0
H1691 H 0.35867 0.97249 0.60036 0.0
H1692 H 0.34333 0.97236 0.5587 0.0
H1693 H 0.43666 -0.00197 0.55693 0.0
H1694 H 0.44739 0.97498 0.53712 0.0
H1695 H 0.43767 0.97502 0.58394 0.0
C1696 C 0.76092 0.63047 0.26303 0.0
C1697 C 0.76523 0.64792 0.24149 0.0
C1698 C 0.75142 0.63217 0.2979 0.0
C1699 C 0.74616 0.65182 0.31184 0.0
C1700 C 0.7509 0.66955 0.29071 0.0
C1701 C 0.76032 0.66739 0.25583 0.0
C1702 C 0.74664 0.61289 0.31951 0.0
C1703 C 0.74556 0.69079 0.30454 0.0
C1704 C 0.70285 0.65595 0.38233 0.0
C1705 C 0.71364 0.65814 0.41574 0.0
C1706 C 0.71322 0.65371 0.34847 0.0
C1707 C 0.73499 0.65377 0.34786 0.0
C1708 C 0.74599 0.65577 0.3816 0.0
C1709 C 0.73518 0.65781 0.41519 0.0
C1710 C 0.70082 0.65148 0.31331 0.0
C1711 C 0.76918 0.65612 0.38214 0.0
H1712 H 0.76494 0.61539 0.25258 0.0
H1713 H 0.76332 0.68097 0.23932 0.0
H1714 H 0.75379 0.61369 0.34738 0.0
H1715 H 0.72979 0.61155 0.32363 0.0
H1716 H 0.75221 0.59881 0.30531 0.0
H1717 H 0.75147 0.70306 0.28598 0.0
H1718 H 0.72862 0.69238 0.30663 0.0
H1719 H 0.75195 0.69321 0.33271 0.0
H1720 H 0.6862 0.65592 0.38263 0.0
H1721 H 0.74359 0.65971 0.4409 0.0
H1722 H 0.70524 0.63716 0.29865 0.0
H1723 H 0.70415 0.6645 0.29442 0.0
H1724 H 0.68401 0.65108 0.31872 0.0
H1725 H 0.77532 0.64184 0.3695 0.0
H1726 H 0.77544 0.65759 0.41066 0.0
H1727 H 0.77488 0.66919 0.36528 0.0
C1728 C 0.09164 0.99142 0.1522 0.0
C1729 C 0.07975 0.97342 0.15239 0.0
C1730 C 0.09565 0.00205 0.11894 0.0
C1731 C 0.08751 0.99459 0.08505 0.0
C1732 C 0.07531 0.97658 0.08518 0.0
C1733 C 0.07163 0.96624 0.11869 0.0
C1734 C 0.10878 0.02116 0.12 0.0
C1735 C 0.06621 0.96809 0.04983 0.0
C1736 C 0.08235 0.02987 1.00109 0.0
C1737 C 0.09912 0.0238 0.97911 0.0
C1738 C 0.0786 0.0208 0.03586 0.0
C1739 C 0.09199 0.00532 0.04926 0.0
C1740 C 0.10917 -0.00058 0.02762 0.0
C1741 C 0.11249 0.00866 0.99288 0.0
C1742 C 0.06008 0.02753 0.05795 0.0
C1743 C 0.1238 0.98296 0.04078 0.0
H1744 H 0.09799 -0.00288 0.17799 0.0
H1745 H 0.06232 0.95242 0.11833 0.0
H1746 H 0.10019 0.03433 0.10814 0.0
H1747 H 0.11367 0.02519 0.14859 0.0
H1748 H 0.12269 0.01891 0.10269 0.0
H1749 H 0.05651 0.97992 0.03626 0.0
H1750 H 0.07868 0.96407 0.03016 0.0
H1751 H 0.05668 0.95418 0.05474 0.0
H1752 H 0.07209 0.04176 0.99111 0.0
H1753 H 0.12531 0.0036 0.97605 0.0
H1754 H 0.06489 0.03274 0.08591 0.0
H1755 H 0.04949 0.01434 0.06186 0.0
H1756 H 0.05152 0.04018 0.04423 0.0
H1757 H 0.1298 0.98688 0.06868 0.0
H1758 H 0.13701 0.98086 0.02164 0.0
H1759 H 0.11554 0.96811 0.04328 0.0
C1760 C 0.73555 0.35202 0.73282 0.0
C1761 C 0.72748 0.37032 0.71832 0.0
C1762 C 0.74574 0.35163 0.7671 0.0
C1763 C 0.74789 0.37005 0.7878 0.0
C1764 C 0.74022 0.38868 0.77295 0.0
C1765 C 0.72998 0.38857 0.73862 0.0
C1766 C 0.75387 0.3312 0.78039 0.0
C1767 C 0.74305 0.4088 0.79316 0.0
C1768 C 0.75521 0.36579 0.89221 0.0
C1769 C 0.77668 0.36545 0.89529 0.0
C1770 C 0.74563 0.36752 0.85743 0.0
C1771 C 0.7578 0.36983 0.82513 0.0
C1772 C 0.77948 0.37069 0.82843 0.0
C1773 C 0.78867 0.36812 0.86338 0.0
C1774 C 0.72256 0.36544 0.85498 0.0
C1775 C 0.79302 0.37306 0.79476 0.0
H1776 H 0.73421 0.33788 0.71711 0.0
H1777 H 0.72376 0.40281 0.72784 0.0
H1778 H 0.7638 0.33227 0.80524 0.0
H1779 H 0.74068 0.32096 0.78667 0.0
H1780 H 0.7628 0.32369 0.75791 0.0
H1781 H 0.73484 0.40835 0.82008 0.0
H1782 H 0.75959 0.41128 0.79925 0.0
H1783 H 0.73724 0.4221 0.77695 0.0
H1784 H 0.7459 0.36318 0.91668 0.0
H1785 H 0.80527 0.36761 0.86565 0.0
H1786 H 0.71863 0.35168 0.83821 0.0
H1787 H 0.71586 0.37897 0.84077 0.0
H1788 H 0.71527 0.36389 0.88268 0.0
H1789 H 0.79287 0.35853 0.77865 0.0
H1790 H 0.80916 0.37665 0.80235 0.0
H1791 H 0.78712 0.38544 0.77646 0.0
C1792 C 0.15025 0.34915 0.28119 0.0
C1793 C 0.13611 0.34471 0.3092 0.0
C1794 C 0.14453 0.36011 0.24943 0.0
C1795 C 0.12388 0.36646 0.24514 0.0
C1796 C 0.10931 0.36167 0.27303 0.0
C1797 C 0.1156 0.35074 0.30471 0.0
C1798 C 0.16057 0.36464 0.22027 0.0
C1799 C 0.08716 0.36821 0.26954 0.0
C1800 C 0.11459 0.4108 0.17897 0.0
C1801 C 0.10816 0.40058 0.14679 0.0
C1802 C 0.11923 0.39992 0.21141 0.0
C1803 C 0.11775 0.37823 0.21152 0.0
C1804 C 0.11138 0.3678 0.17897 0.0
C1805 C 0.10666 0.37913 0.14689 0.0
C1806 C 0.12583 0.41166 0.24551 0.0
C1807 C 0.10946 0.34469 0.17813 0.0
H1808 H 0.16558 0.34324 0.28311 0.0
H1809 H 0.10449 0.34694 0.32603 0.0
H1810 H 0.15611 0.35742 0.19361 0.0
H1811 H 0.16157 0.38145 0.2155 0.0
H1812 H 0.17604 0.35891 0.22819 0.0
H1813 H 0.07742 0.36198 0.29219 0.0
H1814 H 0.08626 0.38522 0.27022 0.0
H1815 H 0.08077 0.36309 0.24257 0.0
H1816 H 0.11558 0.42743 0.17904 0.0
H1817 H 0.1016 0.37128 0.122 0.0
H1818 H 0.14166 0.40709 0.25344 0.0
H1819 H 0.11562 0.40787 0.26915 0.0
H1820 H 0.12549 0.42857 0.24119 0.0
H1821 H 0.12455 0.33753 0.18425 0.0
H1822 H 0.10397 0.33895 0.15087 0.0
H1823 H 0.09858 0.33953 0.19991 0.0
C1824 C 0.88106 0.87532 0.55586 0.0
C1825 C 0.89263 0.89341 0.55291 0.0
C1826 C 0.86808 0.86901 0.52666 0.0
C1827 C 0.86648 0.8813 0.49427 0.0
C1828 C 0.87778 0.89979 0.49175 0.0
C1829 C 0.8909 0.90538 0.52071 0.0
C1830 C 0.85655 0.84897 0.52997 0.0
C1831 C 0.87626 0.91361 0.45818 0.0
C1832 C 0.84949 0.85946 0.4013 0.0
C1833 C 0.82883 0.86539 0.40012 0.0
C1834 C 0.86177 0.86395 0.43234 0.0
C1835 C 0.85324 0.87497 0.46255 0.0
C1836 C 0.83246 0.88134 0.4611 0.0
C1837 C 0.82053 0.87651 0.42991 0.0
C1838 C 0.88378 0.85665 0.43305 0.0
C1839 C 0.82283 0.8933 0.49247 0.0
H1840 H 0.88256 0.86588 0.58045 0.0
H1841 H 0.90019 0.91908 0.51771 0.0
H1842 H 0.83992 0.85139 0.52486 0.0
H1843 H 0.86215 0.8381 0.50854 0.0
H1844 H 0.85851 0.84175 0.55764 0.0
H1845 H 0.88517 0.92805 0.46157 0.0
H1846 H 0.88209 0.90543 0.43334 0.0
H1847 H 0.85997 0.91765 0.45279 0.0
H1848 H 0.85588 0.85077 0.37839 0.0
H1849 H 0.8045 0.88102 0.42933 0.0
H1850 H 0.88647 0.84712 0.45808 0.0
H1851 H 0.89432 0.87002 0.43469 0.0
H1852 H 0.8878 0.84746 0.40814 0.0
H1853 H 0.80636 0.89679 0.48732 0.0
H1854 H 0.83121 0.90798 0.49653 0.0
H1855 H 0.82404 0.88449 0.51869 0.0
C1856 C 0.37327 0.62847 0.80576 0.0
C1857 C 0.36852 0.64941 0.80615 0.0
C1858 C 0.37702 0.61821 0.77207 0.0
C1859 C 0.37446 0.62883 0.73799 0.0
C1860 C 0.36955 0.65002 0.73844 0.0
C1861 C 0.36753 0.66017 0.77255 0.0
C1862 C 0.38349 0.59595 0.77292 0.0
C1863 C 0.36503 0.66176 0.70327 0.0
C1864 C 0.3971 0.60533 0.65029 0.0
C1865 C 0.38154 0.59158 0.64006 0.0
C1866 C 0.39506 0.61772 0.68204 0.0
C1867 C 0.37636 0.61751 0.70216 0.0
C1868 C 0.35973 0.60553 0.68898 0.0
C1869 C 0.36264 0.59238 0.65861 0.0
C1870 C 0.41322 0.6302 0.6951 0.0
C1871 C 0.33896 0.60636 0.70737 0.0
H1872 H 0.37428 0.6202 0.83177 0.0
H1873 H 0.36425 0.67645 0.77277 0.0
H1874 H 0.37093 0.58626 0.76177 0.0
H1875 H 0.39718 0.59357 0.75503 0.0
H1876 H 0.38717 0.59064 0.80141 0.0
H1877 H 0.36549 0.67866 0.70773 0.0
H1878 H 0.3759 0.65775 0.68079 0.0
H1879 H 0.34937 0.65765 0.69356 0.0
H1880 H 0.41139 0.60544 0.63485 0.0
H1881 H 0.35026 0.58229 0.65009 0.0
H1882 H 0.41658 0.62665 0.72457 0.0
H1883 H 0.40961 0.64682 0.69344 0.0
H1884 H 0.42725 0.62721 0.67839 0.0
H1885 H 0.33988 0.59991 0.73576 0.0
H1886 H 0.32711 0.59772 0.6916 0.0
H1887 H 0.33403 0.62261 0.70984 0.0
C1888 C 0.63389 0.14436 0.89985 0.0
C1889 C 0.65357 0.1366 0.89283 0.0
C1890 C 0.62366 0.13983 0.93324 0.0
C1891 C 0.63345 0.12736 0.96022 0.0
C1892 C 0.6535 0.11985 0.95344 0.0
C1893 C 0.66315 0.12427 0.91966 0.0
C1894 C 0.60221 0.14795 0.93929 0.0
C1895 C 0.66465 0.10679 0.9816 0.0
C1896 C 0.61126 0.12249 0.05808 0.0
C1897 C 0.60066 0.10381 0.05518 0.0
C1898 C 0.62205 0.13056 0.02736 0.0
C1899 C 0.62185 0.11979 0.99311 0.0
C1900 C 0.6111 0.10101 0.99027 0.0
C1901 C 0.60085 0.09325 0.02123 0.0
C1902 C 0.63352 0.15059 0.03143 0.0
C1903 C 0.61041 0.08895 0.95444 0.0
H1904 H 0.62651 0.15396 0.87922 0.0
H1905 H 0.67849 0.1184 0.91467 0.0
H1906 H 0.59717 0.15829 0.91656 0.0
H1907 H 0.59125 0.13492 0.94124 0.0
H1908 H 0.60142 0.15648 0.96586 0.0
H1909 H 0.68114 0.10471 0.9745 0.0
H1910 H 0.66361 0.11381 1.00955 0.0
H1911 H 0.65733 0.09142 0.98312 0.0
H1912 H 0.61106 0.13078 0.08413 0.0
H1913 H 0.59263 0.07887 1.01849 0.0
H1914 H 0.62576 0.16264 1.01482 0.0
H1915 H 0.64941 0.14909 0.0206 0.0
H1916 H 0.63423 0.15581 0.06072 0.0
H1917 H 0.60517 0.09892 0.93137 0.0
H1918 H 0.59999 0.07546 0.95611 0.0
H1919 H 0.62604 0.0834 0.9474 0.0
C1920 C 0.07649 0.60921 0.51118 0.0
C1921 C 0.08585 0.61118 0.54597 0.0
C1922 C 0.08788 0.61138 0.47845 0.0
C1923 C 0.10859 0.61787 0.48053 0.0
C1924 C 0.11772 0.62135 0.51573 0.0
C1925 C 0.10644 0.61714 0.54813 0.0
C1926 C 0.0779 0.60604 0.44187 0.0
C1927 C 0.13933 0.6296 0.51919 0.0
C1928 C 0.14859 0.61042 0.40521 0.0
C1929 C 0.14776 0.62937 0.38683 0.0
C1930 C 0.13481 0.60585 0.43401 0.0
C1931 C 0.12074 0.62106 0.44603 0.0
C1932 C 0.11905 0.6397 0.42602 0.0
C1933 C 0.13196 0.64315 0.39546 0.0
C1934 C 0.13572 0.585 0.45225 0.0
C1935 C 0.10505 0.6568 0.43882 0.0
H1936 H 0.06043 0.60517 0.50945 0.0
H1937 H 0.11357 0.61893 0.57509 0.0
H1938 H 0.07613 0.62001 0.42462 0.0
H1939 H 0.08778 0.59517 0.42621 0.0
H1940 H 0.0625 0.59894 0.44557 0.0
H1941 H 0.14298 0.63439 0.548 0.0
H1942 H 0.15051 0.61763 0.51074 0.0
H1943 H 0.1415 0.64298 0.50052 0.0
H1944 H 0.16036 0.59937 0.39781 0.0
H1945 H 0.13076 0.65742 0.38015 0.0
H1946 H 0.12 0.57872 0.45568 0.0
H1947 H 0.14261 0.58639 0.48024 0.0
H1948 H 0.14501 0.57389 0.43594 0.0
H1949 H 0.08922 0.65113 0.4435 0.0
H1950 H 0.10445 0.6697 0.41869 0.0
H1951 H 0.11074 0.66284 0.46572 0.0
C1952 C 0.59197 0.87918 0.6539 0.0
C1953 C 0.60907 0.89066 0.64253 0.0
C1954 C 0.5929 0.86662 0.68563 0.0
C1955 C 0.61173 0.86455 0.70501 0.0
C1956 C 0.62951 0.87451 0.69122 0.0
C1957 C 0.62791 0.88769 0.66057 0.0
C1958 C 0.57342 0.85678 0.69981 0.0
C1959 C 0.65013 0.87183 0.70961 0.0
C1960 C 0.61442 0.85299 0.80845 0.0
C1961 C 0.61788 0.83179 0.80855 0.0
C1962 C 0.61122 0.86361 0.77496 0.0
C1963 C 0.61273 0.85296 0.74074 0.0
C1964 C 0.61625 0.83149 0.74086 0.0
C1965 C 0.61811 0.8211 0.7748 0.0
C1966 C 0.60674 0.88632 0.77614 0.0
C1967 C 0.61905 0.81964 0.70523 0.0
H1968 H 0.57751 0.88102 0.63938 0.0
H1969 H 0.64132 0.89619 0.6515 0.0
H1970 H 0.57584 0.84018 0.70512 0.0
H1971 H 0.56908 0.86398 0.72658 0.0
H1972 H 0.56041 0.8586 0.68015 0.0
H1973 H 0.66292 0.87772 0.69219 0.0
H1974 H 0.65033 0.88015 0.73643 0.0
H1975 H 0.65286 0.85535 0.71548 0.0
H1976 H 0.61415 0.86124 0.83456 0.0
H1977 H 0.62068 0.80466 0.77481 0.0
H1978 H 0.59315 0.88999 0.75875 0.0
H1979 H 0.62003 0.89476 0.76449 0.0
H1980 H 0.60392 0.89192 0.80477 0.0
H1981 H 0.62111 0.80291 0.7101 0.0
H1982 H 0.63278 0.82551 0.69036 0.0
H1983 H 0.60564 0.82192 0.68673 0.0
C1984 C 0.41884 0.37433 0.02293 0.0
C1985 C 0.40824 0.37397 0.05674 0.0
C1986 C 0.40872 0.37062 0.98933 0.0
C1987 C 0.38797 0.36418 0.98979 0.0
C1988 C 0.37751 0.36236 0.02424 0.0
C1989 C 0.38758 0.36806 0.05724 0.0
C1990 C 0.41994 0.37478 0.95342 0.0
C1991 C 0.35558 0.35485 0.02647 0.0
C1992 C 0.35108 0.37009 0.90916 0.0
C1993 C 0.35226 0.3507 0.89235 0.0
C1994 C 0.36367 0.37515 0.93932 0.0
C1995 C 0.37702 0.36011 0.95424 0.0
C1996 C 0.37927 0.34101 0.93576 0.0
C1997 C 0.36751 0.33698 0.90384 0.0
C1998 C 0.36218 0.39637 0.95588 0.0
C1999 C 0.39266 0.32416 0.95142 0.0
H2000 H 0.43494 0.3784 0.02249 0.0
H2001 H 0.37941 0.36761 0.08341 0.0
H2002 H 0.42007 0.36092 0.9356 0.0
H2003 H 0.41179 0.38703 0.93786 0.0
H2004 H 0.43607 0.37979 0.95801 0.0
H2005 H 0.35226 0.34789 0.05394 0.0
H2006 H 0.34497 0.36802 0.0227 0.0
H2007 H 0.35216 0.34334 1.00464 0.0
H2008 H 0.33979 0.38113 0.89957 0.0
H2009 H 0.36922 0.32248 0.88943 0.0
H2010 H 0.37773 0.40224 0.96245 0.0
H2011 H 0.3533 0.39575 0.98207 0.0
H2012 H 0.35447 0.40738 0.93689 0.0
H2013 H 0.40815 0.32998 0.95857 0.0
H2014 H 0.39435 0.31107 0.9319 0.0
H2015 H 0.38562 0.31839 0.97744 0.0
C2016 C 0.84875 0.16292 0.25351 0.0
C2017 C 0.85818 0.16212 0.28848 0.0
C2018 C 0.85632 0.15186 0.22338 0.0
C2019 C 0.8738 0.13929 0.2281 0.0
C2020 C 0.88382 0.13858 0.26307 0.0
C2021 C 0.87591 0.15016 0.29302 0.0
C2022 C 0.84497 0.15311 0.18685 0.0
C2023 C 0.90271 0.12551 0.26878 0.0
C2024 C 0.87477 0.09516 0.15995 0.0
C2025 C 0.88779 0.1027 0.13208 0.0
C2026 C 0.87102 0.10648 0.19225 0.0
C2027 C 0.88033 0.12596 0.19675 0.0
C2028 C 0.89344 0.13371 0.16868 0.0
C2029 C 0.89687 0.12204 0.13644 0.0
C2030 C 0.85675 0.09772 0.22125 0.0
C2031 C 0.90358 0.15446 0.17248 0.0
H2032 H 0.83519 0.17225 0.24943 0.0
H2033 H 0.88337 0.14963 0.31986 0.0
H2034 H 0.85578 0.15427 0.1632 0.0
H2035 H 0.83572 0.13893 0.183 0.0
H2036 H 0.83445 0.16653 0.18573 0.0
H2037 H 0.90822 0.12591 0.2979 0.0
H2038 H 0.89947 0.10933 0.26101 0.0
H2039 H 0.91524 0.13098 0.2504 0.0
H2040 H 0.8678 0.08012 0.15695 0.0
H2041 H 0.907 0.12784 0.11501 0.0
H2042 H 0.84265 0.10726 0.22295 0.0
H2043 H 0.8642 0.09808 0.2489 0.0
H2044 H 0.85219 0.08163 0.21504 0.0
H2045 H 0.8917 0.16668 0.17211 0.0
H2046 H 0.91474 0.15749 0.14983 0.0
H2047 H 0.91171 0.15552 0.19943 0.0
C2048 C 0.89224 0.61275 0.21381 0.0
C2049 C 0.87931 0.59599 0.22067 0.0
C2050 C 0.88843 0.62615 0.1841 0.0
C2051 C 0.87015 0.62389 0.16319 0.0
C2052 C 0.85564 0.60869 0.17348 0.0
C2053 C 0.86067 0.5945 0.20139 0.0
C2054 C 0.90489 0.64133 0.17303 0.0
C2055 C 0.83511 0.607 0.15427 0.0
C2056 C 0.8567 0.66865 0.10007 0.0
C2057 C 0.85973 0.66007 0.06488 0.0
C2058 C 0.85912 0.65681 0.13225 0.0
C2059 C 0.86678 0.63653 0.1293 0.0
C2060 C 0.87128 0.62828 0.09379 0.0
C2061 C 0.86691 0.63989 0.06188 0.0
C2062 C 0.85276 0.66579 0.16914 0.0
C2063 C 0.88072 0.60722 0.08944 0.0
H2064 H 0.90626 0.61441 0.22976 0.0
H2065 H 0.85025 0.58194 0.20742 0.0
H2066 H 0.91155 0.63658 0.14603 0.0
H2067 H 0.89841 0.65691 0.16921 0.0
H2068 H 0.91749 0.64219 0.19374 0.0
H2069 H 0.8243 0.59689 0.16961 0.0
H2070 H 0.82805 0.62243 0.15135 0.0
H2071 H 0.83722 0.60064 0.12603 0.0
H2072 H 0.8516 0.68438 0.10247 0.0
H2073 H 0.86944 0.63336 0.03462 0.0
H2074 H 0.86638 0.66794 0.18715 0.0
H2075 H 0.84222 0.65507 0.18366 0.0
H2076 H 0.84493 0.68087 0.16603 0.0
H2077 H 0.89379 0.60532 0.10891 0.0
H2078 H 0.88632 0.60448 0.06078 0.0
H2079 H 0.86919 0.59526 0.0962 0.0
C2080 C 0.11246 0.11867 0.79788 0.0
C2081 C 0.09101 0.11958 0.79535 0.0
C2082 C 0.12252 0.12358 0.83126 0.0
C2083 C 0.11074 0.12877 0.86299 0.0
C2084 C 0.08908 0.12975 0.86038 0.0
C2085 C 0.07953 0.1256 0.8264 0.0
C2086 C 0.14569 0.12294 0.83275 0.0
C2087 C 0.07594 0.13489 0.89362 0.0
C2088 C 0.13613 0.12201 0.95722 0.0
C2089 C 0.14144 0.14227 0.96614 0.0
C2090 C 0.1257 0.11742 0.92412 0.0
C2091 C 0.121 0.13343 0.89891 0.0
C2092 C 0.12615 0.15393 0.90806 0.0
C2093 C 0.13629 0.15802 0.94156 0.0
C2094 C 0.12005 0.09542 0.91581 0.0
C2095 C 0.12188 0.17151 0.88186 0.0
H2096 H 0.12131 0.11398 0.77387 0.0
H2097 H 0.06292 0.12628 0.82461 0.0
H2098 H 0.15175 0.13743 0.84474 0.0
H2099 H 0.15071 0.11021 0.85105 0.0
H2100 H 0.15264 0.12066 0.80493 0.0
H2101 H 0.05924 0.13418 0.88729 0.0
H2102 H 0.07927 0.12404 0.91657 0.0
H2103 H 0.07968 0.15057 0.90365 0.0
H2104 H 0.14032 0.1097 0.97602 0.0
H2105 H 0.14122 0.17338 0.9475 0.0
H2106 H 0.12907 0.08997 0.89167 0.0
H2107 H 0.10355 0.09424 0.90832 0.0
H2108 H 0.12312 0.08506 0.93964 0.0
H2109 H 0.1338 0.17165 0.85985 0.0
H2110 H 0.12222 0.18654 0.89638 0.0
H2111 H 0.10671 0.16985 0.86819 0.0
C2112 C 0.62844 0.33267 0.58484 0.0
C2113 C 0.62725 0.34317 0.55102 0.0
C2114 C 0.62589 0.34298 0.6186 0.0
C2115 C 0.61984 0.36385 0.61849 0.0
C2116 C 0.61725 0.37424 0.58421 0.0
C2117 C 0.62176 0.36395 0.55084 0.0
C2118 C 0.63071 0.33178 0.65425 0.0
C2119 C 0.60985 0.39621 0.58276 0.0
C2120 C 0.5951 0.3831 0.70749 0.0
C2121 C 0.60969 0.39727 0.72006 0.0
C2122 C 0.59793 0.37252 0.67394 0.0
C2123 C 0.61664 0.37483 0.65429 0.0
C2124 C 0.6323 0.38758 0.66905 0.0
C2125 C 0.62843 0.39905 0.70123 0.0
C2126 C 0.58041 0.35996 0.65843 0.0
C2127 C 0.65297 0.38965 0.65058 0.0
H2128 H 0.63226 0.31651 0.58505 0.0
H2129 H 0.62069 0.37202 0.52463 0.0
H2130 H 0.61706 0.33145 0.67259 0.0
H2131 H 0.63585 0.31572 0.64936 0.0
H2132 H 0.64306 0.34007 0.66933 0.0
H2133 H 0.6054 0.40086 0.55425 0.0
H2134 H 0.59645 0.39839 0.60141 0.0
H2135 H 0.62222 0.40664 0.5924 0.0
H2136 H 0.58098 0.38108 0.72296 0.0
H2137 H 0.63998 0.40972 0.71118 0.0
H2138 H 0.56711 0.35921 0.67769 0.0
H2139 H 0.58546 0.34408 0.65215 0.0
H2140 H 0.57519 0.36692 0.63196 0.0
H2141 H 0.65754 0.37508 0.63709 0.0
H2142 H 0.66508 0.39408 0.67077 0.0
H2143 H 0.65221 0.40177 0.62903 0.0
C2144 C 0.35442 0.87138 0.45609 0.0
C2145 C 0.35747 0.85349 0.47691 0.0
C2146 C 0.36697 0.87603 0.42572 0.0
C2147 C 0.38259 0.86205 0.415 0.0
C2148 C 0.38609 0.8442 0.43664 0.0
C2149 C 0.37404 0.84065 0.46834 0.0
C2150 C 0.36259 0.89565 0.40491 0.0
C2151 C 0.40136 0.82801 0.42474 0.0
C2152 C 0.39799 0.86789 0.31373 0.0
C2153 C 0.41773 0.8762 0.31701 0.0
C2154 C 0.38682 0.86207 0.34544 0.0
C2155 C 0.3951 0.866 0.38115 0.0
C2156 C 0.41492 0.8748 0.38438 0.0
C2157 C 0.42633 0.87886 0.35226 0.0
C2158 C 0.36597 0.85224 0.34073 0.0
C2159 C 0.42376 0.88085 0.42156 0.0
H2160 H 0.34184 0.88163 0.46294 0.0
H2161 H 0.37689 0.82724 0.48534 0.0
H2162 H 0.37445 0.89945 0.38414 0.0
H2163 H 0.34755 0.89424 0.39061 0.0
H2164 H 0.36127 0.90865 0.42471 0.0
H2165 H 0.4029 0.81551 0.4455 0.0
H2166 H 0.39618 0.82117 0.39813 0.0
H2167 H 0.41671 0.83482 0.41981 0.0
H2168 H 0.39138 0.8658 0.28641 0.0
H2169 H 0.44169 0.88504 0.35484 0.0
H2170 H 0.35383 0.86361 0.3475 0.0
H2171 H 0.36418 0.83904 0.35995 0.0
H2172 H 0.36344 0.84679 0.31192 0.0
H2173 H 0.41217 0.88944 0.43802 0.0
H2174 H 0.4377 0.89059 0.4187 0.0
H2175 H 0.42797 0.86694 0.43753 0.0
C2176 C 0.91602 0.37748 0.83592 0.0
C2177 C 0.90557 0.37623 0.80204 0.0
C2178 C 0.90548 0.37626 0.86975 0.0
C2179 C 0.88421 0.37165 0.86977 0.0
C2180 C 0.87392 0.36862 0.83547 0.0
C2181 C 0.88454 0.37179 0.80197 0.0
C2182 C 0.91727 0.38023 0.90508 0.0
C2183 C 0.85168 0.36203 0.83414 0.0
C2184 C 0.86015 0.35132 0.95893 0.0
C2185 C 0.84594 0.36687 0.96691 0.0
C2186 C 0.87296 0.3526 0.92759 0.0
C2187 C 0.87247 0.37052 0.90528 0.0
C2188 C 0.86003 0.3873 0.91626 0.0
C2189 C 0.84658 0.38513 0.9464 0.0
C2190 C 0.88652 0.33451 0.91822 0.0
C2191 C 0.86094 0.40757 0.89615 0.0
H2192 H 0.9324 0.38025 0.83612 0.0
H2193 H 0.87652 0.37046 0.77574 0.0
H2194 H 0.90745 0.3872 0.92687 0.0
H2195 H 0.92343 0.36549 0.91571 0.0
H2196 H 0.93055 0.39059 0.90005 0.0
H2197 H 0.84699 0.357 0.80596 0.0
H2198 H 0.8489 0.34923 0.85387 0.0
H2199 H 0.84171 0.37503 0.84254 0.0
H2200 H 0.86032 0.33752 0.97577 0.0
H2201 H 0.83618 0.39757 0.95326 0.0
H2202 H 0.90192 0.33697 0.93058 0.0
H2203 H 0.88843 0.33261 0.88786 0.0
H2204 H 0.8803 0.31998 0.92985 0.0
H2205 H 0.8772 0.41255 0.89378 0.0
H2206 H 0.85207 0.41974 0.91063 0.0
H2207 H 0.85478 0.40592 0.86767 0.0
C2208 C 0.36216 0.15281 0.5932 0.0
C2209 C 0.35299 0.1436 0.56224 0.0
C2210 C 0.36811 0.14103 0.62389 0.0
C2211 C 0.36516 0.11949 0.62327 0.0
C2212 C 0.35601 0.11009 0.59191 0.0
C2213 C 0.34991 0.12232 0.56177 0.0
C2214 C 0.37767 0.15164 0.65689 0.0
C2215 C 0.35282 0.08713 0.5901 0.0
C2216 C 0.4007 0.08767 0.6832 0.0
C2217 C 0.38826 0.08275 0.71343 0.0
C2218 C 0.39337 0.09951 0.65369 0.0
C2219 C 0.37289 0.10671 0.65443 0.0
C2220 C 0.36003 0.10175 0.68487 0.0
C2221 C 0.36784 0.08958 0.71391 0.0
C2222 C 0.40751 0.10399 0.62144 0.0
C2223 C 0.33812 0.10932 0.68672 0.0
H2224 H 0.36428 0.16933 0.59381 0.0
H2225 H 0.3427 0.11527 0.53785 0.0
H2226 H 0.36911 0.14766 0.68249 0.0
H2227 H 0.39371 0.14623 0.6606 0.0
H2228 H 0.37784 0.16862 0.65382 0.0
H2229 H 0.34513 0.08228 0.56404 0.0
H2230 H 0.36784 0.07914 0.59212 0.0
H2231 H 0.34335 0.08198 0.61392 0.0
H2232 H 0.41587 0.08141 0.68157 0.0
H2233 H 0.35804 0.08547 0.73704 0.0
H2234 H 0.40079 0.0978 0.59548 0.0
H2235 H 0.42303 0.09719 0.62522 0.0
H2236 H 0.4092 0.12083 0.6178 0.0
H2237 H 0.3379 0.12637 0.68647 0.0
H2238 H 0.33003 0.10387 0.71198 0.0
H2239 H 0.32945 0.10408 0.66199 0.0
C2240 C 0.59158 0.59421 0.34198 0.0
C2241 C 0.58881 0.60595 0.30974 0.0
C2242 C 0.60396 0.60104 0.37106 0.0
C2243 C 0.61384 0.6203 0.36824 0.0
C2244 C 0.61124 0.63236 0.33578 0.0
C2245 C 0.59869 0.62501 0.30673 0.0
C2246 C 0.60635 0.58754 0.40492 0.0
C2247 C 0.62145 0.65306 0.33207 0.0
C2248 C 0.62895 0.64068 0.46291 0.0
C2249 C 0.64941 0.63426 0.46531 0.0
C2250 C 0.61752 0.63751 0.43035 0.0
C2251 C 0.62676 0.62743 0.39976 0.0
C2252 C 0.64762 0.62139 0.40182 0.0
C2253 C 0.65865 0.62478 0.43464 0.0
C2254 C 0.59535 0.64428 0.42918 0.0
C2255 C 0.6581 0.61066 0.3699 0.0
H2256 H 0.58366 0.57967 0.34501 0.0
H2257 H 0.59641 0.63422 0.28204 0.0
H2258 H 0.6226 0.58262 0.40761 0.0
H2259 H 0.60231 0.5962 0.43037 0.0
H2260 H 0.59651 0.57361 0.40365 0.0
H2261 H 0.61858 0.66021 0.30461 0.0
H2262 H 0.61567 0.66354 0.35396 0.0
H2263 H 0.63828 0.65155 0.33615 0.0
H2264 H 0.62186 0.64812 0.48656 0.0
H2265 H 0.67461 0.62007 0.43616 0.0
H2266 H 0.5852 0.63057 0.42898 0.0
H2267 H 0.59225 0.65304 0.4034 0.0
H2268 H 0.59119 0.65399 0.45336 0.0
H2269 H 0.67496 0.60934 0.37411 0.0
H2270 H 0.65527 0.61901 0.3436 0.0
H2271 H 0.65163 0.59498 0.36673 0.0
C2272 C 0.14885 0.84479 0.09057 0.0
C2273 C 0.1402 0.84339 0.05504 0.0
C2274 C 0.1406 0.85772 0.11761 0.0
C2275 C 0.12281 0.86931 0.10943 0.0
C2276 C 0.11374 0.86789 0.07374 0.0
C2277 C 0.12262 0.85494 0.04676 0.0
C2278 C 0.15105 0.85896 0.15499 0.0
C2279 C 0.09448 0.8797 0.06437 0.0
C2280 C 0.09643 0.88727 0.19745 0.0
C2281 C 0.10434 0.90716 0.20109 0.0
C2282 C 0.10106 0.87524 0.16617 0.0
C2283 C 0.11435 0.88314 0.13851 0.0
C2284 C 0.12204 0.90339 0.14181 0.0
C2285 C 0.11692 0.91515 0.17302 0.0
C2286 C 0.09228 0.85383 0.16336 0.0
C2287 C 0.1364 0.91236 0.11318 0.0
H2288 H 0.16213 0.83557 0.09759 0.0
H2289 H 0.11572 0.85367 1.01952 0.0
H2290 H 0.15567 0.87505 0.16082 0.0
H2291 H 0.14024 0.85418 0.17713 0.0
H2292 H 0.16495 0.84908 0.15663 0.0
H2293 H 0.09038 0.87843 0.03457 0.0
H2294 H 0.08153 0.87364 0.08108 0.0
H2295 H 0.09628 0.89617 0.07157 0.0
H2296 H 0.08674 0.88106 0.21917 0.0
H2297 H 0.12292 0.93063 0.1755 0.0
H2298 H 0.1047 0.84239 0.16761 0.0
H2299 H 0.08579 0.85119 0.13533 0.0
H2300 H 0.08007 0.85104 0.18428 0.0
H2301 H 0.15127 0.90402 0.11394 0.0
H2302 H 0.13942 0.92895 0.11795 0.0
H2303 H 0.12992 0.91042 0.08497 0.0
C2304 C 0.96502 0.53319 0.17604 0.0
C2305 C 0.96538 0.52684 0.21321 0.0
C2306 C 0.97684 0.52326 0.14935 0.0
C2307 C 0.98911 0.50648 0.16026 0.0
C2308 C 0.99025 0.50058 0.19816 0.0
C2309 C 0.9783 0.511 0.22444 0.0
C2310 C 0.97549 0.53023 0.10947 0.0
C2311 C 0.00348 0.48281 0.21068 0.0
C2312 C -0.00159 0.45985 0.10316 0.0
C2313 C 0.0198 0.46064 0.10043 0.0
C2314 C 0.9876 0.47608 0.11908 0.0
C2315 C -0.00131 0.49333 0.13198 0.0
C2316 C 0.01978 0.4956 0.12335 0.0
C2317 C 0.0302 0.47907 0.10713 0.0
C2318 C 0.96498 0.4733 0.12713 0.0
C2319 C 0.03183 0.51423 0.13548 0.0
H2320 H 0.95535 0.54597 0.16784 0.0
H2321 H 0.97878 0.5066 0.25341 0.0
H2322 H 0.99083 0.52999 0.09606 0.0
H2323 H 0.9654 0.5196 0.0938 0.0
H2324 H 0.96898 0.54596 0.1071 0.0
H2325 H 0.00339 0.48091 0.24128 0.0
H2326 H -0.00213 0.46835 0.19787 0.0
H2327 H 0.01959 0.48511 0.20149 0.0
H2328 H 0.99044 0.44559 0.09708 0.0
H2329 H 0.04672 0.47977 0.10399 0.0
H2330 H 0.95631 0.48756 0.12104 0.0
H2331 H 0.96289 0.46982 0.15701 0.0
H2332 H 0.95822 0.4605 0.11082 0.0
H2333 H 0.02267 0.52847 0.13193 0.0
H2334 H 0.04643 0.51573 0.11975 0.0
H2335 H 0.03567 0.51278 0.16533 0.0
C2336 C 0.75712 0.76233 0.39264 0.0
C2337 C 0.77406 0.77452 0.40092 0.0
C2338 C 0.74762 0.75092 0.42078 0.0
C2339 C 0.75544 0.75202 0.45754 0.0
C2340 C 0.77295 0.76395 0.46556 0.0
C2341 C 0.78198 0.77515 0.43708 0.0
C2342 C 0.72901 0.73805 0.41141 0.0
C2343 C 0.7818 0.7657 0.50416 0.0
C2344 C 0.71324 0.73906 0.52346 0.0
C2345 C 0.71539 0.71766 0.5241 0.0
C2346 C 0.7277 0.75113 0.50492 0.0
C2347 C 0.74452 0.74134 0.48754 0.0
C2348 C 0.74862 0.72036 0.49421 0.0
C2349 C 0.73393 0.70866 0.51289 0.0
C2350 C 0.72342 0.77374 0.49962 0.0
C2351 C 0.76708 0.70975 0.47763 0.0
H2352 H 0.75119 0.76198 0.36456 0.0
H2353 H 0.79516 0.78479 0.44322 0.0
H2354 H 0.73171 0.72181 0.41944 0.0
H2355 H 0.71551 0.7436 0.42731 0.0
H2356 H 0.72522 0.73855 0.3814 0.0
H2357 H 0.77461 0.77897 0.51846 0.0
H2358 H 0.77898 0.75173 0.52102 0.0
H2359 H 0.79863 0.76851 0.50313 0.0
H2360 H 0.69915 0.74609 0.5333 0.0
H2361 H 0.73586 0.69213 0.5146 0.0
H2362 H 0.71652 0.77617 0.47183 0.0
H2363 H 0.73781 0.78285 0.50091 0.0
H2364 H 0.71253 0.77966 0.52079 0.0
H2365 H 0.76438 0.70714 0.44762 0.0
H2366 H 0.77002 0.69464 0.49093 0.0
H2367 H 0.78101 0.71947 0.48042 0.0
C2368 C 0.51389 0.46209 0.75789 0.0
C2369 C 0.53008 0.47574 0.75034 0.0
C2370 C 0.49436 0.46551 0.74299 0.0
C2371 C 0.49091 0.4836 0.72244 0.0
C2372 C 0.50614 0.4992 0.72137 0.0
C2373 C 0.52592 0.49478 0.73435 0.0
C2374 C 0.47842 0.44871 0.74521 0.0
C2375 C 0.50235 0.51954 0.70251 0.0
C2376 C 0.46376 0.49047 0.63221 0.0
C2377 C 0.4463 0.50103 0.64402 0.0
C2378 C 0.47711 0.48173 0.65822 0.0
C2379 C 0.47338 0.48496 0.69654 0.0
C2380 C 0.4544 0.49319 0.70829 0.0
C2381 C 0.44073 0.50055 0.68159 0.0
C2382 C 0.49635 0.47113 0.64466 0.0
C2383 C 0.44893 0.49598 0.74864 0.0
H2384 H 0.51719 0.44733 0.77052 0.0
H2385 H 0.53844 0.50532 0.72873 0.0
H2386 H 0.46386 0.45491 0.75656 0.0
H2387 H 0.47514 0.44276 0.71698 0.0
H2388 H 0.48348 0.4357 0.76293 0.0
H2389 H 0.51329 0.53147 0.71233 0.0
H2390 H 0.50443 0.51774 0.67216 0.0
H2391 H 0.48643 0.52496 0.70756 0.0
H2392 H 0.46792 0.49064 0.6031 0.0
H2393 H 0.42705 0.50849 0.69081 0.0
H2394 H 0.50042 0.45801 0.6629 0.0
H2395 H 0.50936 0.48216 0.645 0.0
H2396 H 0.49449 0.46541 0.61584 0.0
H2397 H 0.43884 0.48307 0.75719 0.0
H2398 H 0.44005 0.51036 0.75284 0.0
H2399 H 0.46251 0.49627 0.76717 0.0
C2400 C 0.70582 0.24005 0.85526 0.0
C2401 C 0.71962 0.22354 0.85751 0.0
C2402 C 0.71076 0.25901 0.87111 0.0
C2403 C 0.73033 0.26154 0.88733 0.0
C2404 C 0.74549 0.24602 0.88329 0.0
C2405 C 0.73973 0.22685 0.86924 0.0
C2406 C 0.69409 0.27497 0.87521 0.0
C2407 C 0.76699 0.24865 0.89819 0.0
C2408 C 0.75214 0.30974 0.92795 0.0
C2409 C 0.75428 0.30349 0.96496 0.0
C2410 C 0.74249 0.29707 0.90207 0.0
C2411 C 0.73403 0.27828 0.91412 0.0
C2412 C 0.733 0.27376 0.95254 0.0
C2413 C 0.7437 0.28622 0.97759 0.0
C2414 C 0.74415 0.30273 0.86168 0.0
C2415 C 0.72269 0.25452 0.96671 0.0
H2416 H 0.69013 0.23726 0.84635 0.0
H2417 H 0.75028 0.21398 0.87101 0.0
H2418 H 0.70033 0.29078 0.87322 0.0
H2419 H 0.6819 0.27299 0.85394 0.0
H2420 H 0.6869 0.2733 0.90295 0.0
H2421 H 0.77798 0.23822 0.88399 0.0
H2422 H 0.77234 0.26471 0.89489 0.0
H2423 H 0.76713 0.2449 0.92819 0.0
H2424 H 0.7604 0.32309 0.918 0.0
H2425 H 0.74529 0.28149 1.00627 0.0
H2426 H 0.73299 0.29443 0.84395 0.0
H2427 H 0.75989 0.29908 0.85178 0.0
H2428 H 0.74177 0.31951 0.85819 0.0
H2429 H 0.71903 0.25571 0.99672 0.0
H2430 H 0.73309 0.24119 0.9627 0.0
H2431 H 0.7083 0.25146 0.95118 0.0
C2432 C 0.95098 0.47457 0.68377 0.0
C2433 C 0.95743 0.46176 0.71255 0.0
C2434 C 0.96515 0.48656 0.66445 0.0
C2435 C 0.98607 0.48582 0.67485 0.0
C2436 C 0.99267 0.47277 0.70387 0.0
C2437 C 0.9782 0.46054 0.72212 0.0
C2438 C 0.95773 0.49991 0.63295 0.0
C2439 C 0.01485 0.47214 0.71618 0.0
C2440 C 0.02665 0.50322 0.60747 0.0
C2441 C 0.02963 0.5235 0.61895 0.0
C2442 C 0.01204 0.49085 0.62493 0.0
C2443 C 0.00103 0.49886 0.65544 0.0
C2444 C 0.00417 0.51936 0.66725 0.0
C2445 C 0.01824 0.53164 0.6482 0.0
C2446 C 0.00839 0.46929 0.6108 0.0
C2447 C 0.99305 0.52812 0.70043 0.0
H2448 H 0.93485 0.47514 0.67627 0.0
H2449 H 0.98297 0.45059 0.74464 0.0
H2450 H 0.96365 0.51582 0.63578 0.0
H2451 H 0.96364 0.49371 0.60636 0.0
H2452 H 0.94071 0.50057 0.63158 0.0
H2453 H 0.01726 0.46166 0.74009 0.0
H2454 H 0.02477 0.467 0.69298 0.0
H2455 H 0.02001 0.48778 0.72412 0.0
H2456 H 0.0356 0.49714 0.5846 0.0
H2457 H 0.02097 0.54729 0.65711 0.0
H2458 H 0.99189 0.4672 0.60393 0.0
H2459 H 0.01225 0.45795 0.63264 0.0
H2460 H 0.01768 0.46578 0.58576 0.0
H2461 H -0.00357 0.54468 0.70462 0.0
H2462 H -0.00231 0.51961 0.72573 0.0
H2463 H 0.9762 0.52623 0.69725 0.0
C2464 C 0.75021 0.71476 1.00097 0.0
C2465 C 0.7701 0.71168 0.98755 0.0
C2466 C 0.73729 0.72919 0.98433 0.0
C2467 C 0.74438 0.74001 0.95286 0.0
C2468 C 0.76448 0.73673 0.93904 0.0
C2469 C 0.77729 0.72271 0.95707 0.0
C2470 C 0.71614 0.73285 1.00033 0.0
C2471 C 0.77227 0.74774 0.90499 0.0
C2472 C 0.70417 0.76213 0.88909 0.0
C2473 C 0.70536 0.78295 0.89826 0.0
C2474 C 0.71701 0.74788 0.90654 0.0
C2475 C 0.73072 0.75477 0.93433 0.0
C2476 C 0.73148 0.77574 0.94437 0.0
C2477 C 0.71883 0.78968 0.92588 0.0
C2478 C 0.71624 0.72563 0.89471 0.0
C2479 C 0.74554 0.78344 0.97466 0.0
H2480 H 0.74489 0.70605 0.02473 0.0
H2481 H 0.79264 0.71984 0.94663 0.0
H2482 H 0.71418 0.74936 1.00716 0.0
H2483 H 0.70422 0.72887 0.97956 0.0
H2484 H 0.71335 0.72365 0.02577 0.0
H2485 H 0.76228 0.7441 0.88095 0.0
H2486 H 0.77162 0.76461 0.90926 0.0
H2487 H 0.78833 0.74341 0.898 0.0
H2488 H 0.69371 0.75711 0.86752 0.0
H2489 H 0.71939 0.80586 0.93311 0.0
H2490 H 0.71223 0.71575 0.91868 0.0
H2491 H 0.73161 0.72068 0.88477 0.0
H2492 H 0.70486 0.72291 0.87229 0.0
H2493 H 0.74052 0.77704 1.00168 0.0
H2494 H 0.74557 0.80047 0.9766 0.0
H2495 H 0.76153 0.77818 0.96984 0.0
C2496 C 0.46769 0.46262 0.14361 0.0
C2497 C 0.45323 0.46924 0.11783 0.0
C2498 C 0.48259 0.47607 0.15695 0.0
C2499 C 0.48311 0.49648 0.14337 0.0
C2500 C 0.46889 0.50308 0.11628 0.0
C2501 C 0.45375 0.48935 0.10417 0.0
C2502 C 0.49743 0.46855 0.18618 0.0
C2503 C 0.46991 0.52441 0.09991 0.0
C2504 C 0.50713 0.53032 0.21464 0.0
C2505 C 0.52784 0.52812 0.2053 0.0
C2506 C 0.49191 0.52155 0.19252 0.0
C2507 C 0.49776 0.511 0.15993 0.0
C2508 C 0.5185 0.51103 0.14814 0.0
C2509 C 0.5335 0.5192 0.17162 0.0
C2510 C 0.46994 0.52177 0.20605 0.0
C2511 C 0.52524 0.50125 0.11227 0.0
H2512 H 0.4669 0.4471 0.15424 0.0
H2513 H 0.44257 0.49417 0.08365 0.0
H2514 H 0.49601 0.47809 0.21155 0.0
H2515 H 0.49473 0.45224 0.19383 0.0
H2516 H 0.51345 0.47007 0.17597 0.0
H2517 H 0.45723 0.52734 0.07999 0.0
H2518 H 0.46931 0.53618 0.12212 0.0
H2519 H 0.48478 0.52639 0.08528 0.0
H2520 H 0.50291 0.53763 0.24056 0.0
H2521 H 0.5496 0.51828 0.16397 0.0
H2522 H 0.46568 0.50618 0.21589 0.0
H2523 H 0.45928 0.52586 0.18325 0.0
H2524 H 0.46765 0.53278 0.22923 0.0
H2525 H 0.53336 0.48663 0.11838 0.0
H2526 H 0.53626 0.51154 0.09785 0.0
H2527 H 0.51227 0.49803 0.09319 0.0
C2528 C 0.75649 0.23449 0.34992 0.0
C2529 C 0.77243 0.22404 0.36789 0.0
C2530 C 0.74577 0.25014 0.36801 0.0
C2531 C 0.75129 0.25526 0.40473 0.0
C2532 C 0.76777 0.24514 0.4226 0.0
C2533 C 0.77824 0.2296 0.40379 0.0
C2534 C 0.72812 0.26064 0.34843 0.0
C2535 C 0.77399 0.25037 0.46183 0.0
C2536 C 0.73349 0.30501 0.44718 0.0
C2537 C 0.71708 0.29812 0.46891 0.0
C2538 C 0.74461 0.29123 0.42531 0.0
C2539 C 0.73901 0.27026 0.42549 0.0
C2540 C 0.72217 0.26332 0.44689 0.0
C2541 C 0.71144 0.27741 0.46863 0.0
C2542 C 0.76241 0.29903 0.40242 0.0
C2543 C 0.71577 0.241 0.4474 0.0
H2544 H 0.75212 0.23018 0.32198 0.0
H2545 H 0.7906 0.22146 0.41749 0.0
H2546 H 0.72665 0.25567 0.3191 0.0
H2547 H 0.7135 0.25715 0.36297 0.0
H2548 H 0.73016 0.27756 0.34911 0.0
H2549 H 0.7862 0.24005 0.47246 0.0
H2550 H 0.77965 0.26644 0.46297 0.0
H2551 H 0.76055 0.24928 0.48065 0.0
H2552 H 0.73763 0.32115 0.44726 0.0
H2553 H 0.69878 0.27218 0.48573 0.0
H2554 H 0.76025 0.29478 0.3729 0.0
H2555 H 0.77688 0.2917 0.41191 0.0
H2556 H 0.76418 0.31598 0.4043 0.0
H2557 H 0.71279 0.23555 0.41877 0.0
H2558 H 0.70173 0.2384 0.46428 0.0
H2559 H 0.72839 0.23147 0.4589 0.0
C2560 C 0.2584 0.26286 0.9099 0.0
C2561 C 0.27706 0.27287 0.91516 0.0
C2562 C 0.2493 0.25214 0.93935 0.0
C2563 C 0.25948 0.25131 0.97423 0.0
C2564 C 0.27828 0.26163 0.97953 0.0
C2565 C 0.28681 0.27236 0.94987 0.0
C2566 C 0.22895 0.24151 0.93304 0.0
C2567 C 0.28985 0.26071 1.01578 0.0
C2568 C 0.2211 0.23668 0.04599 0.0
C2569 C 0.22085 0.21542 0.03991 0.0
C2570 C 0.23556 0.24896 0.0279 0.0
C2571 C 0.25023 0.23942 1.00471 0.0
C2572 C 0.25271 0.21785 1.00545 0.0
C2573 C 0.23784 0.20593 0.02333 0.0
C2574 C 0.23306 0.27199 0.02907 0.0
C2575 C 0.26913 0.20727 0.98296 0.0
H2576 H 0.2511 0.26327 0.8829 0.0
H2577 H 0.30147 0.28003 0.95352 0.0
H2578 H 0.23086 0.22466 0.93625 0.0
H2579 H 0.21759 0.24664 0.95403 0.0
H2580 H 0.22261 0.2446 0.90501 0.0
H2581 H 0.27936 0.26163 0.03994 0.0
H2582 H 0.29812 0.24585 1.01755 0.0
H2583 H 0.3013 0.27328 1.01795 0.0
H2584 H 0.20836 0.24395 0.06027 0.0
H2585 H 0.23808 0.18937 1.01994 0.0
H2586 H 0.22475 0.27711 1.00384 0.0
H2587 H 0.2482 0.2798 0.02938 0.0
H2588 H 0.22412 0.27697 0.05372 0.0
H2589 H 0.26423 0.20656 0.95352 0.0
H2590 H 0.27183 0.19131 0.99278 0.0
H2591 H 0.28381 0.21593 0.9842 0.0
C2592 C 0.21357 0.71165 0.43318 0.0
C2593 C 0.22188 0.71024 0.39738 0.0
C2594 C 0.22301 0.72349 0.46042 0.0
C2595 C 0.24138 0.73383 0.4516 0.0
C2596 C 0.25017 0.73204 0.41567 0.0
C2597 C 0.2401 0.72031 0.38861 0.0
C2598 C 0.21298 0.72539 0.49806 0.0
C2599 C 0.27007 0.74266 0.40578 0.0
C2600 C 0.26267 0.78069 0.4978 0.0
C2601 C 0.27966 0.77198 0.51566 0.0
C2602 C 0.24846 0.76811 0.47966 0.0
C2603 C 0.2516 0.74661 0.47972 0.0
C2604 C 0.26685 0.73776 0.50256 0.0
C2605 C 0.28063 0.75069 0.52087 0.0
C2606 C 0.23168 0.77796 0.45689 0.0
C2607 C 0.27042 0.71484 0.50376 0.0
H2608 H 0.1993 0.7038 0.43959 0.0
H2609 H 0.24631 0.71912 0.36081 0.0
H2610 H 0.22417 0.72212 0.52045 0.0
H2611 H 0.2075 0.74138 0.50208 0.0
H2612 H 0.19968 0.71485 0.50122 0.0
H2613 H 0.2753 0.73886 0.37728 0.0
H2614 H 0.26811 0.75955 0.40782 0.0
H2615 H 0.28231 0.73819 0.42564 0.0
H2616 H 0.26166 0.79723 0.49458 0.0
H2617 H 0.29352 0.74402 0.53566 0.0
H2618 H 0.21718 0.76908 0.45897 0.0
H2619 H 0.23635 0.77817 0.42731 0.0
H2620 H 0.22873 0.79405 0.46572 0.0
H2621 H 0.2802 0.71035 0.52767 0.0
H2622 H 0.27829 0.70999 0.47791 0.0
H2623 H 0.2557 0.70633 0.50539 0.0
C2624 C 0.27036 0.21703 0.48534 0.0
C2625 C 0.26411 0.19655 0.48793 0.0
C2626 C 0.26004 0.23063 0.46185 0.0
C2627 C 0.24313 0.22343 0.44085 0.0
C2628 C 0.23724 0.20257 0.44246 0.0
C2629 C 0.24781 0.18933 0.4662 0.0
C2630 C 0.26683 0.25282 0.46039 0.0
C2631 C 0.21937 0.1944 0.42017 0.0
C2632 C 0.20445 0.26458 0.41904 0.0
C2633 C 0.21018 0.26997 0.38298 0.0
C2634 C 0.21448 0.24869 0.43764 0.0
C2635 C 0.23066 0.23816 0.41962 0.0
C2636 C 0.23577 0.24279 0.38246 0.0
C2637 C 0.22535 0.25871 0.36441 0.0
C2638 C 0.20849 0.24396 0.47719 0.0
C2639 C 0.25296 0.23176 0.36255 0.0
H2640 H 0.283 0.2225 0.50223 0.0
H2641 H 0.24322 0.17334 0.46789 0.0
H2642 H 0.26949 0.25757 0.43126 0.0
H2643 H 0.25452 0.26281 0.47175 0.0
H2644 H 0.28113 0.25554 0.47647 0.0
H2645 H 0.2185 0.17735 0.42095 0.0
H2646 H 0.20481 0.20071 0.43142 0.0
H2647 H 0.22052 0.1994 0.39087 0.0
H2648 H 0.19266 0.27329 0.4333 0.0
H2649 H 0.22969 0.26291 0.33641 0.0
H2650 H 0.22121 0.24839 0.49607 0.0
H2651 H 0.20585 0.22724 0.48072 0.0
H2652 H 0.19439 0.25231 0.48586 0.0
H2653 H 0.25303 0.23511 0.33236 0.0
H2654 H 0.25174 0.2149 0.36654 0.0
H2655 H 0.26793 0.23666 0.37433 0.0
C2656 C 0.28642 0.71747 0.89617 0.0
C2657 C 0.28044 0.69692 0.89338 0.0
C2658 C 0.27491 0.73122 0.9174 0.0
C2659 C 0.25715 0.72404 0.93596 0.0
C2660 C 0.25145 0.70314 0.93413 0.0
C2661 C 0.26322 0.68976 0.91267 0.0
C2662 C 0.28147 0.75347 0.9193 0.0
C2663 C 0.23271 0.69503 0.95409 0.0
C2664 C 0.2368 0.75817 1.01156 0.0
C2665 C 0.22188 0.76935 0.99219 0.0
C2666 C 0.24808 0.74281 0.99383 0.0
C2667 C 0.24411 0.73866 0.95608 0.0
C2668 C 0.22839 0.74924 0.9369 0.0
C2669 C 0.21742 0.76458 0.9553 0.0
C2670 C 0.2648 0.73171 1.01493 0.0
C2671 C 0.22371 0.74492 0.89663 0.0
H2672 H 0.29984 0.72286 0.88125 0.0
H2673 H 0.25884 0.67372 0.91081 0.0
H2674 H 0.26944 0.76335 0.90672 0.0
H2675 H 0.28322 0.7583 0.94861 0.0
H2676 H 0.29621 0.75627 0.90462 0.0
H2677 H 0.23122 0.67808 0.95165 0.0
H2678 H 0.23337 0.69913 0.98391 0.0
H2679 H 0.21868 0.70225 0.94247 0.0
H2680 H 0.24011 0.76186 0.04025 0.0
H2681 H 0.2058 0.77324 0.94052 0.0
H2682 H 0.28004 0.73604 1.00356 0.0
H2683 H 0.2632 0.71485 1.01159 0.0
H2684 H 0.26459 0.73543 0.04497 0.0
H2685 H 0.23726 0.74886 0.87936 0.0
H2686 H 0.21031 0.75383 0.88641 0.0
H2687 H 0.22056 0.72832 0.8926 0.0
C2688 C 0.49176 0.0283 0.76636 0.0
C2689 C 0.47646 0.01331 0.76155 0.0
C2690 C 0.51127 0.02548 0.75097 0.0
C2691 C 0.51565 0.00673 0.733 0.0
C2692 C 0.50175 0.99001 0.7361 0.0
C2693 C 0.4819 0.99371 0.74943 0.0
C2694 C 0.52557 0.0437 0.74886 0.0
C2695 C 0.50669 0.96912 0.72023 0.0
C2696 C 0.53742 -0.00097 0.63859 0.0
C2697 C 0.5553 0.9883 0.64769 0.0
C2698 C 0.52563 0.00824 0.66648 0.0
C2699 C 0.53165 0.00576 0.704 0.0
C2700 C 0.55126 -0.00211 0.71245 0.0
C2701 C 0.56315 0.98963 0.68386 0.0
C2702 C 0.50537 0.018 0.6562 0.0
C2703 C 0.55838 0.99511 0.75183 0.0
H2704 H 0.48754 0.04347 0.77619 0.0
H2705 H 0.47009 0.98208 0.74619 0.0
H2706 H 0.5242 0.05335 0.77414 0.0
H2707 H 0.54184 0.03905 0.7453 0.0
H2708 H 0.52115 0.05333 0.72475 0.0
H2709 H 0.49647 0.95704 0.73181 0.0
H2710 H 0.50458 0.96945 0.68971 0.0
H2711 H 0.52289 0.96486 0.72599 0.0
H2712 H 0.53149 -0.00178 0.61054 0.0
H2713 H 0.57707 0.98148 0.69107 0.0
H2714 H 0.50246 0.03185 0.67334 0.0
H2715 H 0.49272 0.00692 0.66139 0.0
H2716 H 0.50492 0.02243 0.62647 0.0
H2717 H 0.55225 0.00718 0.77046 0.0
H2718 H 0.5754 0.99522 0.75336 0.0
H2719 H 0.5529 0.97999 0.7621 0.0
C2720 C -0.00103 0.97186 0.26249 0.0
C2721 C 0.02036 0.97406 0.26403 0.0
C2722 C 0.98708 0.9866 0.24432 0.0
C2723 C -0.00298 0.0038 0.22857 0.0
C2724 C 0.01779 0.00801 0.23698 0.0
C2725 C 0.02937 0.99293 0.25491 0.0
C2726 C 0.96465 0.98213 0.23746 0.0
C2727 C 0.02839 0.02705 0.22274 0.0
C2728 C 0.97988 0.01813 0.13192 0.0
C2729 C 0.96812 0.03549 0.13933 0.0
C2730 C 0.98947 0.00765 0.16111 0.0
C2731 C 0.98703 0.01492 0.19804 0.0
C2732 C 0.97512 0.03254 0.20538 0.0
C2733 C 0.96597 0.0427 0.17579 0.0
C2734 C 0.00223 0.98884 0.15249 0.0
C2735 C 0.97212 0.04113 0.24391 0.0
H2736 H 0.99186 0.95753 0.27091 0.0
H2737 H 0.04586 0.9949 0.25749 0.0
H2738 H 0.95558 -0.00358 0.23395 0.0
H2739 H 0.96316 0.97297 0.21165 0.0
H2740 H 0.95797 0.97302 0.26055 0.0
H2741 H 0.04341 0.02961 0.23662 0.0
H2742 H 0.03113 0.02544 0.19251 0.0
H2743 H 0.01854 0.04077 0.22702 0.0
H2744 H 0.98154 0.01283 0.10359 0.0
H2745 H 0.95708 0.05648 0.18121 0.0
H2746 H -0.00397 0.97534 0.1676 0.0
H2747 H 0.01827 0.99122 0.16201 0.0
H2748 H 0.00249 0.98523 0.1224 0.0
H2749 H 0.9756 0.02991 0.26614 0.0
H2750 H 0.95604 0.04655 0.24749 0.0
H2751 H 0.98231 0.05466 0.24754 0.0
C2752 C 0.44896 0.98709 0.21606 0.0
C2753 C 0.4566 0.9707 0.23703 0.0
C2754 C 0.46231 -0.00047 0.19557 0.0
C2755 C 0.4836 0.99523 0.19627 0.0
C2756 C 0.49134 0.97876 0.21771 0.0
C2757 C 0.47768 0.96672 0.23803 0.0
C2758 C 0.45368 0.01696 0.17276 0.0
C2759 C 0.51399 0.97361 0.21866 0.0
C2760 C 0.51947 0.00925 0.11892 0.0
C2761 C 0.53107 0.02475 0.13577 0.0
C2762 C 0.50293 0.00031 0.13753 0.0
C2763 C 0.49796 0.00727 0.17355 0.0
C2764 C 0.50875 0.0239 0.18961 0.0
C2765 C 0.5254 0.03238 0.17054 0.0
C2766 C 0.49185 0.98241 0.11983 0.0
C2767 C 0.50356 0.03188 0.22779 0.0
H2768 H 0.43257 0.99003 0.21528 0.0
H2769 H 0.48351 0.9541 0.25457 0.0
H2770 H 0.46153 0.03155 0.17998 0.0
H2771 H 0.45655 0.01405 0.14292 0.0
H2772 H 0.43688 0.01892 0.17695 0.0
H2773 H 0.51943 0.96981 0.19034 0.0
H2774 H 0.52293 0.98709 0.22837 0.0
H2775 H 0.51741 0.96039 0.23714 0.0
H2776 H 0.52381 0.00352 0.09181 0.0
H2777 H 0.5344 0.04444 0.18343 0.0
H2778 H 0.49578 0.98066 0.09003 0.0
H2779 H 0.47497 0.98418 0.12243 0.0
H2780 H 0.49617 0.96803 0.1344 0.0
H2781 H 0.48678 0.03459 0.23028 0.0
H2782 H 0.51179 0.0464 0.2343 0.0
H2783 H 0.50782 0.02023 0.24887 0.0
C2784 C 0.96353 0.96534 0.69292 0.0
C2785 C 0.96237 0.96793 0.6546 0.0
C2786 C 0.97887 0.97535 0.71318 0.0
C2787 C 0.99266 0.98852 0.69433 0.0
C2788 C 0.99154 0.99089 0.6554 0.0
C2789 C 0.97636 0.98037 0.63589 0.0
C2790 C 0.9801 0.97219 0.75456 0.0
C2791 C 0.00597 0.00495 0.63449 0.0
C2792 C 0.01847 0.03364 0.73936 0.0
C2793 C 0.03876 0.02664 0.74093 0.0
C2794 C 0.00286 0.02079 0.72639 0.0
C2795 C 0.00787 0.00061 0.71497 0.0
C2796 C 0.02814 0.99312 0.71854 0.0
C2797 C 0.04345 0.00634 0.73138 0.0
C2798 C 0.98131 0.02918 0.72284 0.0
C2799 C 0.03389 0.97159 0.70678 0.0
H2800 H 0.9523 0.9558 0.70695 0.0
H2801 H 0.97505 0.98225 0.60611 0.0
H2802 H 0.99595 0.96786 0.76274 0.0
H2803 H 0.97636 0.98677 0.769 0.0
H2804 H 0.96937 0.96006 0.76431 0.0
H2805 H 0.00314 0.00471 0.60413 0.0
H2806 H 0.00414 0.02097 0.64452 0.0
H2807 H 0.02215 0.0004 0.63958 0.0
H2808 H 0.01489 0.04929 0.74736 0.0
H2809 H 0.05918 0.00091 0.73302 0.0
H2810 H 0.97005 0.01839 0.73525 0.0
H2811 H 0.97735 0.03085 0.69308 0.0
H2812 H 0.97961 0.04441 0.73642 0.0
H2813 H 0.02263 0.96028 0.71759 0.0
H2814 H 0.04949 0.96721 0.7165 0.0
H2815 H 0.03361 0.97055 0.6761 0.0
C2816 C 0.0213 0.38996 0.99933 0.0
C2817 C 0.03823 0.40333 0.99881 0.0
C2818 C 0.00757 0.38898 0.96907 0.0
C2819 C 0.01073 0.40183 0.93781 0.0
C2820 C 0.02831 0.4146 0.93651 0.0
C2821 C 0.04187 0.41502 0.9667 0.0
C2822 C 0.98924 0.37482 0.97116 0.0
C2823 C 0.03235 0.42861 0.90391 0.0
C2824 C 0.98571 0.39326 0.84374 0.0
C2825 C 0.96978 0.40783 0.84401 0.0
C2826 C -0.00153 0.39039 0.87475 0.0
C2827 C 0.99551 0.40261 0.90676 0.0
C2828 C 0.97911 0.41697 0.90759 0.0
C2829 C 0.96637 0.41929 0.87634 0.0
C2830 C 0.01546 0.37464 0.87286 0.0
C2831 C 0.9755 0.43048 0.94098 0.0
H2832 H 0.01823 0.38094 0.02396 0.0
H2833 H 0.05497 0.42531 0.96566 0.0
H2834 H 0.97495 0.38404 0.97324 0.0
H2835 H 0.98809 0.36545 0.94555 0.0
H2836 H 0.99005 0.36435 0.99543 0.0
H2837 H 0.04695 0.43731 0.90684 0.0
H2838 H 0.03301 0.41956 0.87789 0.0
H2839 H 0.01955 0.43977 0.90105 0.0
H2840 H 0.98827 0.38404 0.81916 0.0
H2841 H 0.95408 0.4305 0.87693 0.0
H2842 H 0.01501 0.36454 0.89761 0.0
H2843 H 0.03059 0.3825 0.87283 0.0
H2844 H 0.01441 0.36492 0.84762 0.0
H2845 H 0.97428 0.42099 0.9664 0.0
H2846 H 0.96133 0.43988 0.93826 0.0
H2847 H 0.98879 0.44098 0.94472 0.0
C2848 C 0.83843 0.74288 0.1097 0.0
C2849 C 0.82573 0.72544 0.11081 0.0
C2850 C 0.84022 0.75605 0.14045 0.0
C2851 C 0.82885 0.75187 0.17304 0.0
C2852 C 0.81646 0.73397 0.17471 0.0
C2853 C 0.81514 0.72094 0.1437 0.0
C2854 C 0.85383 0.77478 0.13763 0.0
C2855 C 0.80393 0.72898 0.20876 0.0
C2856 C 0.83929 0.77928 0.26494 0.0
C2857 C 0.82379 0.79427 0.26494 0.0
C2858 C 0.84168 0.76577 0.23464 0.0
C2859 C 0.82819 0.76723 0.20385 0.0
C2860 C 0.81321 0.78298 0.20306 0.0
C2861 C 0.81132 0.79632 0.23336 0.0
C2862 C 0.85806 0.74939 0.23624 0.0
C2863 C 0.79847 0.78518 0.17094 0.0
H2864 H 0.84692 0.74637 0.08465 0.0
H2865 H 0.8053 0.70753 0.14494 0.0
H2866 H 0.84421 0.78885 0.13765 0.0
H2867 H 0.8642 0.77571 0.16198 0.0
H2868 H 0.8633 0.7747 0.11202 0.0
H2869 H 0.79612 0.71384 0.20658 0.0
H2870 H 0.81388 0.7289 0.23371 0.0
H2871 H 0.79208 0.74102 0.21298 0.0
H2872 H 0.84893 0.77749 0.28922 0.0
H2873 H 0.79939 0.80795 0.23281 0.0
H2874 H 0.86715 0.74929 0.21023 0.0
H2875 H 0.85073 0.73407 0.23892 0.0
H2876 H 0.86868 0.75163 0.26002 0.0
H2877 H 0.80708 0.7868 0.14458 0.0
H2878 H 0.78812 0.79865 0.17407 0.0
H2879 H 0.78887 0.77114 0.16862 0.0
C2880 C 0.49949 0.58229 0.36188 0.0
C2881 C 0.51674 0.56937 0.35965 0.0
C2882 C 0.48692 0.58254 0.39363 0.0
C2883 C 0.49161 0.56953 0.42396 0.0
C2884 C 0.50926 0.55682 0.42223 0.0
C2885 C 0.52157 0.5569 0.39022 0.0
C2886 C 0.46829 0.59636 0.39434 0.0
C2887 C 0.51485 0.54265 0.45382 0.0
C2888 C 0.46679 0.57815 0.51881 0.0
C2889 C 0.45095 0.56351 0.51844 0.0
C2890 C 0.47997 0.58057 0.48807 0.0
C2891 C 0.47728 0.56803 0.45627 0.0
C2892 C 0.46109 0.55352 0.45555 0.0
C2893 C 0.44817 0.55149 0.48644 0.0
C2894 C 0.497 0.59628 0.48984 0.0
C2895 C 0.45763 0.53979 0.42235 0.0
H2896 H 0.49562 0.59208 0.33861 0.0
H2897 H 0.53489 0.54693 0.38909 0.0
H2898 H 0.45412 0.58689 0.39514 0.0
H2899 H 0.4684 0.60598 0.41973 0.0
H2900 H 0.46755 0.60661 0.36975 0.0
H2901 H 0.52979 0.53478 0.44925 0.0
H2902 H 0.5157 0.55139 0.48017 0.0
H2903 H 0.50272 0.53081 0.4572 0.0
H2904 H 0.46911 0.5875 0.54331 0.0
H2905 H 0.43597 0.54015 0.48558 0.0
H2906 H 0.49595 0.60689 0.46586 0.0
H2907 H 0.51212 0.58846 0.48808 0.0
H2908 H 0.49653 0.60545 0.5158 0.0
H2909 H 0.45538 0.54924 0.39708 0.0
H2910 H 0.44405 0.52962 0.42582 0.0
H2911 H 0.47137 0.53004 0.41765 0.0
C2912 C 0.65115 0.23053 0.75628 0.0
C2913 C 0.66466 0.21374 0.75395 0.0
C2914 C 0.64963 0.24495 0.72707 0.0
C2915 C 0.66221 0.24278 0.69514 0.0
C2916 C 0.67568 0.22578 0.69261 0.0
C2917 C 0.67655 0.21146 0.72162 0.0
C2918 C 0.63475 0.26261 0.7305 0.0
C2919 C 0.68962 0.2229 0.65949 0.0
C2920 C 0.65064 0.26668 0.60106 0.0
C2921 C 0.66425 0.28341 0.60013 0.0
C2922 C 0.64893 0.25411 0.63262 0.0
C2923 C 0.66144 0.25802 0.66397 0.0
C2924 C 0.67479 0.27526 0.66363 0.0
C2925 C 0.67589 0.28785 0.63188 0.0
C2926 C 0.63417 0.23621 0.63193 0.0
C2927 C 0.68866 0.27988 0.6961 0.0
H2928 H 0.64197 0.23257 0.78106 0.0
H2929 H 0.68718 0.19871 0.71923 0.0
H2930 H 0.64327 0.27737 0.73065 0.0
H2931 H 0.62429 0.2629 0.70621 0.0
H2932 H 0.62536 0.26164 0.75616 0.0
H2933 H 0.69961 0.20913 0.66216 0.0
H2934 H 0.68032 0.22131 0.6339 0.0
H2935 H 0.69957 0.23661 0.65598 0.0
H2936 H 0.64128 0.26332 0.57695 0.0
H2937 H 0.6864 0.30077 0.63153 0.0
H2938 H 0.62461 0.23611 0.6574 0.0
H2939 H 0.64291 0.22158 0.63132 0.0
H2940 H 0.62385 0.23665 0.60741 0.0
H2941 H 0.6797 0.28017 0.72224 0.0
H2942 H 0.69675 0.29482 0.69297 0.0
H2943 H 0.70033 0.26754 0.69878 0.0
C2944 C 0.98426 0.6071 1.00229 0.0
C2945 C 0.97363 0.5909 1.01943 0.0
C2946 C 0.98972 0.60622 0.96457 0.0
C2947 C 0.98456 0.58866 0.94325 0.0
C2948 C 0.97416 0.57209 0.96053 0.0
C2949 C 0.96878 0.57344 0.99828 0.0
C2950 C 0.00062 0.62433 0.94733 0.0
C2951 C 0.96853 0.553 0.93905 0.0
C2952 C 0.97989 0.59655 0.83882 0.0
C2953 C -0.00087 0.58987 0.82578 0.0
C2954 C 0.97487 0.59588 0.87672 0.0
C2955 C 0.9893 0.58813 0.90257 0.0
C2956 C 0.00849 0.58072 0.88957 0.0
C2957 C 0.01319 0.58173 0.85146 0.0
C2958 C 0.95422 0.60391 0.88919 0.0
C2959 C 0.02428 0.57218 0.91605 0.0
H2960 H 0.98788 0.62076 1.01818 0.0
H2961 H 0.96084 0.56072 1.01134 0.0
H2962 H 0.01522 0.61925 0.93435 0.0
H2963 H 0.99094 0.63101 0.92507 0.0
H2964 H 0.00413 0.63655 0.96787 0.0
H2965 H 0.96113 0.54117 0.95679 0.0
H2966 H 0.95783 0.55702 0.91625 0.0
H2967 H 0.98247 0.54626 0.92618 0.0
H2968 H 0.96868 0.60242 0.81931 0.0
H2969 H 0.02815 0.57667 0.84197 0.0
H2970 H 0.95642 0.61716 0.90813 0.0
H2971 H 0.94587 0.59187 0.90491 0.0
H2972 H 0.94448 0.60891 0.86558 0.0
H2973 H 0.02962 0.58451 0.93497 0.0
H2974 H 0.03783 0.5657 0.9014 0.0
H2975 H 0.01733 0.55997 0.93347 0.0
C2976 C 0.66024 0.7175 0.26377 0.0
C2977 C 0.64222 0.72061 0.28452 0.0
C2978 C 0.66112 0.72245 0.22576 0.0
C2979 C 0.64357 0.73073 0.20788 0.0
C2980 C 0.62535 0.73382 0.22862 0.0
C2981 C 0.62488 0.72871 0.26648 0.0
C2982 C 0.68086 0.71887 0.20477 0.0
C2983 C 0.60624 0.74249 0.21076 0.0
C2984 C 0.64812 0.76073 0.11716 0.0
C2985 C 0.64152 0.74619 0.09096 0.0
C2986 C 0.64941 0.75578 0.15512 0.0
C2987 C 0.64399 0.73579 0.16735 0.0
C2988 C 0.63791 0.72089 0.14091 0.0
C2989 C 0.63678 0.72624 0.1032 0.0
C2990 C 0.65599 0.77215 0.18227 0.0
C2991 C 0.63215 0.69936 0.15256 0.0
H2992 H 0.67381 0.7115 0.27739 0.0
H2993 H 0.61077 0.73086 0.28194 0.0
H2994 H 0.67807 0.70829 0.1812 0.0
H2995 H 0.68647 0.73358 0.19298 0.0
H2996 H 0.69311 0.71225 0.22258 0.0
H2997 H 0.59341 0.74432 0.2308 0.0
H2998 H 0.60965 0.75769 0.19829 0.0
H2999 H 0.60108 0.73223 0.18802 0.0
H3000 H 0.65169 0.77622 0.10817 0.0
H3001 H 0.63207 0.71475 0.08319 0.0
H3002 H 0.6688 0.76644 0.19974 0.0
H3003 H 0.64303 0.77588 0.20108 0.0
H3004 H 0.661 0.78648 0.1682 0.0
H3005 H 0.64481 0.69235 0.1688 0.0
H3006 H 0.62869 0.68929 0.1285 0.0
H3007 H 0.61842 0.69987 0.17079 0.0
C3008 C 0.49479 0.416 0.51393 0.0
C3009 C 0.51529 0.41524 0.52612 0.0
C3010 C 0.48988 0.41604 0.47591 0.0
C3011 C 0.50581 0.41527 0.44916 0.0
C3012 C 0.52654 0.41506 0.46125 0.0
C3013 C 0.53102 0.41506 0.49944 0.0
C3014 C 0.46758 0.41644 0.46437 0.0
C3015 C 0.54403 0.4142 0.43381 0.0
C3016 C 0.49398 0.39195 0.35451 0.0
C3017 C 0.49198 0.40938 0.33181 0.0
C3018 C 0.49835 0.3937 0.39255 0.0
C3019 C 0.50079 0.41339 0.40871 0.0
C3020 C 0.49856 0.43109 0.38614 0.0
C3021 C 0.49415 0.42888 0.34806 0.0
C3022 C 0.50041 0.37439 0.41547 0.0
C3023 C 0.50105 0.45237 0.40216 0.0
H3024 H 0.48251 0.41649 0.5342 0.0
H3025 H 0.5469 0.41427 0.50841 0.0
H3026 H 0.46481 0.42926 0.44476 0.0
H3027 H 0.46368 0.40197 0.44969 0.0
H3028 H 0.45705 0.41819 0.4884 0.0
H3029 H 0.55928 0.41543 0.44748 0.0
H3030 H 0.54341 0.3995 0.41827 0.0
H3031 H 0.54256 0.4268 0.41329 0.0
H3032 H 0.49193 0.37681 0.34254 0.0
H3033 H 0.4928 0.44246 0.33084 0.0
H3034 H 0.48909 0.37459 0.43846 0.0
H3035 H 0.51594 0.3737 0.42812 0.0
H3036 H 0.49798 0.36024 0.39882 0.0
H3037 H 0.49013 0.45463 0.42541 0.0
H3038 H 0.49841 0.46459 0.3812 0.0
H3039 H 0.51678 0.45418 0.41358 0.0
C3040 C 0.84913 0.27327 0.74157 0.0
C3041 C 0.83112 0.28111 0.7579 0.0
C3042 C 0.84987 0.26784 0.70379 0.0
C3043 C 0.8321 0.26995 0.68142 0.0
C3044 C 0.81377 0.27756 0.6977 0.0
C3045 C 0.81353 0.28313 0.73552 0.0
C3046 C 0.86979 0.25994 0.68776 0.0
C3047 C 0.7944 0.2799 0.6751 0.0
C3048 C 0.83986 0.27401 0.57653 0.0
C3049 C 0.83654 0.2537 0.56449 0.0
C3050 C 0.83831 0.27949 0.61423 0.0
C3051 C 0.83289 0.26447 0.64093 0.0
C3052 C 0.829 0.24408 0.629 0.0
C3053 C 0.83104 0.23892 0.5912 0.0
C3054 C 0.84278 0.30137 0.62556 0.0
C3055 C 0.82293 0.22758 0.65629 0.0
H3056 H 0.86273 0.27113 0.75843 0.0
H3057 H 0.79957 0.28936 0.74738 0.0
H3058 H 0.86753 0.24427 0.67637 0.0
H3059 H 0.87476 0.26992 0.6645 0.0
H3060 H 0.88232 0.25938 0.70865 0.0
H3061 H 0.78124 0.28542 0.692 0.0
H3062 H 0.79702 0.29092 0.65215 0.0
H3063 H 0.79019 0.26495 0.66238 0.0
H3064 H 0.84363 0.28578 0.55645 0.0
H3065 H 0.82868 0.22312 0.58278 0.0
H3066 H 0.85585 0.30168 0.6453 0.0
H3067 H 0.8293 0.30802 0.64006 0.0
H3068 H 0.84662 0.31131 0.60151 0.0
H3069 H 0.83571 0.22484 0.67603 0.0
H3070 H 0.81909 0.21283 0.64243 0.0
H3071 H 0.80945 0.23266 0.67275 0.0
C3072 C 0.02265 0.56939 0.46695 0.0
C3073 C 0.01867 0.58039 0.49962 0.0
C3074 C 0.00956 0.57094 0.43613 0.0
C3075 C 0.99212 0.58394 0.43783 0.0
C3076 C 0.98843 0.59565 0.47021 0.0
C3077 C 0.00167 0.59365 0.50077 0.0
C3078 C 0.01399 0.55805 0.40225 0.0
C3079 C 0.97013 0.60983 0.47301 0.0
C3080 C 0.96536 0.59499 0.34585 0.0
C3081 C 0.94991 0.57995 0.34582 0.0
C3082 C 0.97882 0.59706 0.37623 0.0
C3083 C 0.97678 0.58372 0.4071 0.0
C3084 C 0.9606 0.56922 0.40786 0.0
C3085 C 0.94735 0.5676 0.37741 0.0
C3086 C 0.99574 0.61289 0.37464 0.0
C3087 C 0.95781 0.55468 0.44014 0.0
H3088 H 0.03567 0.55905 0.46577 0.0
H3089 H -0.00141 0.6024 0.52572 0.0
H3090 H 0.00127 0.54696 0.39775 0.0
H3091 H 0.01487 0.56796 0.3773 0.0
H3092 H 0.02859 0.54932 0.40478 0.0
H3093 H 0.97052 0.61935 0.49856 0.0
H3094 H 0.96951 0.62018 0.4486 0.0
H3095 H 0.95576 0.60066 0.47307 0.0
H3096 H 0.9675 0.60456 0.32158 0.0
H3097 H 0.93536 0.55603 0.37789 0.0
H3098 H 0.01083 0.60505 0.37239 0.0
H3099 H -0.00401 0.62211 0.40049 0.0
H3100 H 0.99399 0.62343 0.35064 0.0
H3101 H 0.97146 0.54454 0.44254 0.0
H3102 H 0.94394 0.54486 0.43711 0.0
H3103 H 0.95655 0.56342 0.46641 0.0
C3104 C 0.14537 0.26095 0.27324 0.0
C3105 C 0.16027 0.27651 0.27118 0.0
C3106 C 0.1419 0.24756 0.24325 0.0
C3107 C 0.15392 0.24946 0.21071 0.0
C3108 C 0.16869 0.26542 0.20822 0.0
C3109 C 0.17152 0.27886 0.23829 0.0
C3110 C 0.1257 0.23107 0.24675 0.0
C3111 C 0.18211 0.26781 0.17435 0.0
C3112 C 0.16512 0.20243 0.15182 0.0
C3113 C 0.15374 0.20638 0.11949 0.0
C3114 C 0.16478 0.21596 0.18206 0.0
C3115 C 0.15239 0.23381 0.18051 0.0
C3116 C 0.13974 0.23722 0.1491 0.0
C3117 C 0.14068 0.22355 0.11881 0.0
C3118 C 0.17867 0.21174 0.21475 0.0
C3119 C 0.12593 0.25579 0.14677 0.0
H3120 H 0.13644 0.25916 0.29839 0.0
H3121 H 0.1831 0.2908 0.23645 0.0
H3122 H 0.11543 0.23125 0.2222 0.0
H3123 H 0.13313 0.21575 0.24771 0.0
H3124 H 0.11621 0.23298 0.27211 0.0
H3125 H 0.19228 0.2815 0.17613 0.0
H3126 H 0.19186 0.25394 0.17095 0.0
H3127 H 0.17248 0.26918 0.14912 0.0
H3128 H 0.17525 0.18923 0.15294 0.0
H3129 H 0.13179 0.22679 0.0941 0.0
H3130 H 0.16974 0.21201 0.24092 0.0
H3131 H 0.19051 0.22396 0.21673 0.0
H3132 H 0.18657 0.19665 0.21252 0.0
H3133 H 0.11688 0.25749 0.17266 0.0
H3134 H 0.11517 0.25487 0.12293 0.0
H3135 H 0.13542 0.26984 0.14366 0.0
C3136 C 0.48382 0.3993 1.00227 0.0
C3137 C 0.46653 0.41216 1.00354 0.0
C3138 C 0.49643 0.39847 0.97066 0.0
C3139 C 0.49193 0.41113 0.93977 0.0
C3140 C 0.47412 0.42367 0.94046 0.0
C3141 C 0.46154 0.42388 0.97219 0.0
C3142 C 0.51498 0.38454 0.97084 0.0
C3143 C 0.46889 0.43768 0.90848 0.0
C3144 C 0.53746 0.42916 0.88242 0.0
C3145 C 0.5356 0.41749 0.8498 0.0
C3146 C 0.52335 0.42723 0.91157 0.0
C3147 C 0.50703 0.41295 0.90869 0.0
C3148 C 0.50528 0.40069 0.87633 0.0
C3149 C 0.51946 0.40324 0.84708 0.0
C3150 C 0.5257 0.44087 0.94523 0.0
C3151 C 0.48833 0.385 0.87253 0.0
H3152 H 0.4876 0.38994 0.02616 0.0
H3153 H 0.44823 0.43388 0.97293 0.0
H3154 H 0.51554 0.37532 0.945 0.0
H3155 H 0.52919 0.39394 0.97186 0.0
H3156 H 0.51499 0.37393 0.99495 0.0
H3157 H 0.45359 0.44504 0.91186 0.0
H3158 H 0.48069 0.44993 0.90628 0.0
H3159 H 0.46902 0.42903 0.88201 0.0
H3160 H 0.54971 0.44036 0.88497 0.0
H3161 H 0.51783 0.39418 0.82205 0.0
H3162 H 0.52765 0.43134 0.97046 0.0
H3163 H 0.5116 0.45022 0.94912 0.0
H3164 H 0.53907 0.45141 0.94296 0.0
H3165 H 0.48872 0.3742 0.89632 0.0
H3166 H 0.48958 0.37604 0.84642 0.0
H3167 H 0.47317 0.39277 0.87308 0.0
C3168 C 0.35438 0.7662 0.61094 0.0
C3169 C 0.34093 0.78305 0.61206 0.0
C3170 C 0.35509 0.75192 0.64036 0.0
C3171 C 0.34191 0.75447 0.67134 0.0
C3172 C 0.32893 0.77188 0.67316 0.0
C3173 C 0.32875 0.78595 0.6438 0.0
C3174 C 0.36944 0.73377 0.63778 0.0
C3175 C 0.31456 0.77527 0.70551 0.0
C3176 C 0.32448 0.70935 0.73086 0.0
C3177 C 0.33561 0.71265 0.76359 0.0
C3178 C 0.32695 0.72236 0.70002 0.0
C3179 C 0.34113 0.7389 0.70173 0.0
C3180 C 0.35305 0.74171 0.73413 0.0
C3181 C 0.35004 0.72869 0.7647 0.0
C3182 C 0.31374 0.71892 0.66619 0.0
C3183 C 0.3686 0.75887 0.73694 0.0
H3184 H 0.36378 0.76372 0.58656 0.0
H3185 H 0.31835 0.79891 0.64522 0.0
H3186 H 0.37879 0.73251 0.66339 0.0
H3187 H 0.36039 0.7194 0.63528 0.0
H3188 H 0.37994 0.7349 0.61358 0.0
H3189 H 0.30567 0.78977 0.70295 0.0
H3190 H 0.30357 0.76227 0.7075 0.0
H3191 H 0.32337 0.77573 0.73181 0.0
H3192 H 0.31336 0.697 0.72968 0.0
H3193 H 0.35902 0.73115 0.7896 0.0
H3194 H 0.32341 0.71825 0.64092 0.0
H3195 H 0.30299 0.73202 0.66281 0.0
H3196 H 0.30462 0.70452 0.66809 0.0
H3197 H 0.37885 0.75883 0.71237 0.0
H3198 H 0.37818 0.75764 0.76232 0.0
H3199 H 0.36055 0.77389 0.73741 0.0
C3200 C 0.01773 0.40556 0.34437 0.0
C3201 C 0.01816 0.38645 0.32611 0.0
C3202 C 0.01216 0.40719 0.38199 0.0
C3203 C 0.00652 0.38934 0.40204 0.0
C3204 C 0.00652 0.37008 0.3837 0.0
C3205 C 0.01245 0.36885 0.34622 0.0
C3206 C 0.01255 0.42802 0.4004 0.0
C3207 C 0.00051 0.35066 0.40386 0.0
C3208 C 0.01155 0.38822 0.50744 0.0
C3209 C 0.99118 0.39125 0.51913 0.0
C3210 C 0.01677 0.38797 0.46959 0.0
C3211 C 0.00126 0.39066 0.44246 0.0
C3212 C 0.98071 0.39407 0.45405 0.0
C3213 C 0.97594 0.39443 0.49217 0.0
C3214 C 0.03891 0.38462 0.45863 0.0
C3215 C 0.96365 0.39685 0.42616 0.0
H3216 H 0.02169 0.41938 0.32922 0.0
H3217 H 0.01299 0.35394 0.33291 0.0
H3218 H -0.00286 0.43173 0.4117 0.0
H3219 H 0.02343 0.42783 0.42408 0.0
H3220 H 0.01722 0.44043 0.38102 0.0
H3221 H 0.0003 0.33705 0.38529 0.0
H3222 H 0.01148 0.34769 0.42677 0.0
H3223 H 0.98505 0.35247 0.41642 0.0
H3224 H 0.02349 0.38607 0.52801 0.0
H3225 H 0.96015 0.39662 0.50085 0.0
H3226 H 0.04424 0.3974 0.44069 0.0
H3227 H 0.04031 0.37024 0.44232 0.0
H3228 H 0.04926 0.38356 0.48304 0.0
H3229 H 0.96737 0.40968 0.40707 0.0
H3230 H 0.94862 0.40007 0.43957 0.0
H3231 H 0.96214 0.38276 0.40907 0.0
C3232 C 0.34852 0.26874 0.12416 0.0
C3233 C 0.33885 0.2576 0.09574 0.0
C3234 C 0.34612 0.26323 0.1616 0.0
C3235 C 0.33381 0.24605 0.17112 0.0
C3236 C 0.3237 0.23495 0.14267 0.0
C3237 C 0.32629 0.24087 0.10544 0.0
C3238 C 0.35713 0.27555 0.19097 0.0
C3239 C 0.31041 0.21658 0.15153 0.0
C3240 C 0.34642 0.22007 0.26298 0.0
C3241 C 0.33139 0.22818 0.28675 0.0
C3242 C 0.34706 0.22538 0.22523 0.0
C3243 C 0.33233 0.23923 0.21066 0.0
C3244 C 0.31677 0.24706 0.23425 0.0
C3245 C 0.31644 0.2414 0.27195 0.0
C3246 C 0.36378 0.21646 0.20108 0.0
C3247 C 0.30081 0.2619 0.21993 0.0
H3248 H 0.35842 0.28155 0.1171 0.0
H3249 H 0.31841 0.23239 0.08385 0.0
H3250 H 0.34603 0.28097 0.21216 0.0
H3251 H 0.36853 0.26569 0.20533 0.0
H3252 H 0.36525 0.28909 0.17926 0.0
H3253 H 0.30297 0.21006 0.12644 0.0
H3254 H 0.31987 0.20443 0.16472 0.0
H3255 H 0.29827 0.22094 0.17163 0.0
H3256 H 0.35783 0.20959 0.27399 0.0
H3257 H 0.30486 0.24786 0.29011 0.0
H3258 H 0.37375 0.22898 0.19049 0.0
H3259 H 0.35692 0.20867 0.17669 0.0
H3260 H 0.37353 0.20525 0.21622 0.0
H3261 H 0.3084 0.27634 0.21098 0.0
H3262 H 0.28906 0.26569 0.2412 0.0
H3263 H 0.29296 0.25537 0.19532 0.0
C3264 C 0.50287 0.57273 0.02089 0.0
C3265 C 0.48958 0.5835 0.04473 0.0
C3266 C 0.49819 0.56999 0.98304 0.0
C3267 C 0.47981 0.57835 0.96823 0.0
C3268 C 0.46613 0.58885 0.99223 0.0
C3269 C 0.4711 0.59119 0.03 0.0
C3270 C 0.51319 0.55857 0.95868 0.0
C3271 C 0.44639 0.59804 0.97781 0.0
C3272 C 0.47783 0.59208 0.86532 0.0
C3273 C 0.46601 0.57604 0.85019 0.0
C3274 C 0.4825 0.59288 0.9034 0.0
C3275 C 0.47541 0.57717 0.92737 0.0
C3276 C 0.46379 0.56071 0.91231 0.0
C3277 C 0.45919 0.56037 0.87406 0.0
C3278 C 0.4949 0.61074 0.91803 0.0
C3279 C 0.456 0.54356 0.93669 0.0
H3280 H 0.51729 0.56686 0.03154 0.0
H3281 H 0.46043 0.59913 0.04805 0.0
H3282 H 0.50519 0.5461 0.94346 0.0
H3283 H 0.51969 0.5692 0.9377 0.0
H3284 H 0.52606 0.55177 0.97479 0.0
H3285 H 0.43702 0.60509 1.00018 0.0
H3286 H 0.44992 0.61002 0.95687 0.0
H3287 H 0.43705 0.58607 0.96383 0.0
H3288 H 0.48364 0.60405 0.84729 0.0
H3289 H 0.4499 0.54798 0.86301 0.0
H3290 H 0.50904 0.60503 0.9318 0.0
H3291 H 0.48587 0.6192 0.93919 0.0
H3292 H 0.49941 0.62166 0.89582 0.0
H3293 H 0.469 0.53638 0.95179 0.0
H3294 H 0.44787 0.53147 0.92062 0.0
H3295 H 0.44531 0.54982 0.95779 0.0
C3296 C 0.17215 0.74234 0.76989 0.0
C3297 C 0.15354 0.74837 0.78639 0.0
C3298 C 0.17317 0.73686 0.73207 0.0
C3299 C 0.1552 0.73758 0.70983 0.0
C3300 C 0.13643 0.7439 0.72625 0.0
C3301 C 0.13582 0.7491 0.76416 0.0
C3302 C 0.19347 0.73004 0.71599 0.0
C3303 C 0.11694 0.74519 0.7037 0.0
C3304 C 0.15999 0.74096 0.60416 0.0
C3305 C 0.15552 0.72075 0.59285 0.0
C3306 C 0.16013 0.74658 0.64193 0.0
C3307 C 0.15592 0.73165 0.66951 0.0
C3308 C 0.15181 0.71116 0.65842 0.0
C3309 C 0.15157 0.706 0.62045 0.0
C3310 C 0.16455 0.76861 0.65229 0.0
C3311 C 0.14735 0.69467 0.68672 0.0
H3312 H 0.1859 0.7415 0.78676 0.0
H3313 H 0.12141 0.75402 0.77635 0.0
H3314 H 0.19207 0.71417 0.70506 0.0
H3315 H 0.19776 0.74008 0.69238 0.0
H3316 H 0.20606 0.73041 0.73676 0.0
H3317 H 0.10365 0.75063 0.72035 0.0
H3318 H 0.11917 0.75581 0.67999 0.0
H3319 H 0.11315 0.72987 0.69204 0.0
H3320 H 0.16348 0.75248 0.58344 0.0
H3321 H 0.1478 0.69041 0.6124 0.0
H3322 H 0.17796 0.76934 0.67124 0.0
H3323 H 0.15123 0.77519 0.66736 0.0
H3324 H 0.16778 0.77835 0.62769 0.0
H3325 H 0.16001 0.69387 0.70728 0.0
H3326 H 0.14544 0.67928 0.67386 0.0
H3327 H 0.1331 0.69852 0.70208 0.0
C3328 C 0.49386 0.9099 0.36748 0.0
C3329 C 0.47464 0.91969 0.36735 0.0
C3330 C 0.50646 0.91009 0.39906 0.0
C3331 C 0.49985 0.92055 0.43132 0.0
C3332 C 0.48026 0.93009 0.43171 0.0
C3333 C 0.46782 0.92942 0.39981 0.0
C3334 C 0.52707 0.89945 0.39758 0.0
C3335 C 0.47269 0.94154 0.46544 0.0
C3336 C 0.52785 0.90967 0.52217 0.0
C3337 C 0.54217 0.92579 0.52332 0.0
C3338 C 0.51386 0.90781 0.49258 0.0
C3339 C 0.51404 0.92253 0.46365 0.0
C3340 C 0.52837 0.93889 0.4648 0.0
C3341 C 0.54229 0.94025 0.49441 0.0
C3342 C 0.49902 0.88998 0.49205 0.0
C3343 C 0.52904 0.955 0.43468 0.0
H3344 H 0.49917 0.90208 0.34274 0.0
H3345 H 0.45299 0.93699 0.40003 0.0
H3346 H 0.53956 0.91097 0.40009 0.0
H3347 H 0.52864 0.88866 0.42121 0.0
H3348 H 0.52931 0.89077 0.37138 0.0
H3349 H 0.45683 0.9475 0.46173 0.0
H3350 H 0.47296 0.93134 0.49005 0.0
H3351 H 0.48306 0.95467 0.47136 0.0
H3352 H 0.52762 0.89843 0.54433 0.0
H3353 H 0.55318 0.95284 0.49498 0.0
H3354 H 0.50168 0.88049 0.46696 0.0
H3355 H 0.48299 0.89571 0.49058 0.0
H3356 H 0.50058 0.88003 0.5169 0.0
H3357 H 0.53263 0.94769 0.40767 0.0
H3358 H 0.54073 0.96707 0.44021 0.0
H3359 H 0.51378 0.96245 0.43195 0.0
C3360 C 0.33516 0.22618 0.61503 0.0
C3361 C 0.32264 0.20865 0.61713 0.0
C3362 C 0.33813 0.23898 0.64596 0.0
C3363 C 0.32815 0.23433 0.6798 0.0
C3364 C 0.31605 0.21626 0.68247 0.0
C3365 C 0.31355 0.20359 0.65121 0.0
C3366 C 0.35135 0.25792 0.64199 0.0
C3367 C 0.30499 0.21078 0.7179 0.0
C3368 C 0.34264 0.26218 0.76948 0.0
C3369 C 0.3273 0.27731 0.77141 0.0
C3370 C 0.34341 0.24824 0.73953 0.0
C3371 C 0.32848 0.24945 0.71096 0.0
C3372 C 0.31336 0.26505 0.71234 0.0
C3373 C 0.31298 0.27869 0.74237 0.0
C3374 C 0.35989 0.23194 0.73886 0.0
C3375 C 0.29714 0.26702 0.68255 0.0
H3376 H 0.34251 0.23009 0.58902 0.0
H3377 H 0.30389 0.19008 0.65321 0.0
H3378 H 0.34155 0.27185 0.64354 0.0
H3379 H 0.3626 0.25883 0.66502 0.0
H3380 H 0.35983 0.25818 0.61527 0.0
H3381 H 0.29751 0.19545 0.71638 0.0
H3382 H 0.31585 0.21086 0.74158 0.0
H3383 H 0.293 0.22246 0.72376 0.0
H3384 H 0.35372 0.26087 0.79177 0.0
H3385 H 0.30098 0.29019 0.74342 0.0
H3386 H 0.36827 0.23238 0.7121 0.0
H3387 H 0.35273 0.21652 0.74118 0.0
H3388 H 0.37111 0.23382 0.7618 0.0
H3389 H 0.30451 0.26883 0.65502 0.0
H3390 H 0.28676 0.28033 0.68726 0.0
H3391 H 0.28771 0.25283 0.68154 0.0
C3392 C 0.95984 0.07605 0.97138 0.0
C3393 C 0.96029 0.08955 1.00177 0.0
C3394 C 0.97384 0.07787 0.9421 0.0
C3395 C 0.98861 0.09381 0.94266 0.0
C3396 C 0.98865 0.10811 0.97232 0.0
C3397 C 0.97453 0.10575 1.00169 0.0
C3398 C 0.97321 0.06223 0.91113 0.0
C3399 C 0.00393 0.12553 0.9735 0.0
C3400 C 0.03566 0.08176 0.88422 0.0
C3401 C 0.03019 0.09043 0.85003 0.0
C3402 C 0.0228 0.08369 0.91532 0.0
C3403 C 0.00419 0.0949 0.91237 0.0
C3404 C -0.00067 0.10488 0.87863 0.0
C3405 C 0.01228 0.10238 0.84781 0.0
C3406 C 0.02853 0.07262 0.95061 0.0
C3407 C 0.9799 0.11734 0.8745 0.0
H3408 H 0.94888 0.06352 0.97085 0.0
H3409 H 0.97504 0.11625 0.025 0.0
H3410 H 0.97118 0.07006 0.88408 0.0
H3411 H 0.988 0.05377 0.90999 0.0
H3412 H 0.96056 0.05092 0.91462 0.0
H3413 H 0.00082 0.13635 0.99664 0.0
H3414 H 0.01968 0.11928 0.97688 0.0
H3415 H 0.00365 0.13418 0.94701 0.0
H3416 H 0.04956 0.07269 0.88637 0.0
H3417 H 0.0081 0.10948 0.8217 0.0
H3418 H 0.01778 0.05961 0.95512 0.0
H3419 H 0.02711 0.08304 0.97479 0.0
H3420 H 0.04445 0.06646 0.94973 0.0
H3421 H 0.96643 0.1069 0.87409 0.0
H3422 H 0.97984 0.12652 0.84855 0.0
H3423 H 0.97797 0.12789 0.8984 0.0
C3424 C 0.18 0.77198 0.14183 0.0
C3425 C 0.16974 0.76841 0.10819 0.0
C3426 C 0.17763 0.7587 0.1722 0.0
C3427 C 0.16447 0.74144 0.16923 0.0
C3428 C 0.1535 0.73811 0.13582 0.0
C3429 C 0.15638 0.75153 0.10561 0.0
C3430 C 0.18987 0.76275 0.20702 0.0
C3431 C 0.1391 0.72007 0.13168 0.0
C3432 C 0.17949 0.69669 0.23091 0.0
C3433 C 0.16695 0.69962 0.26222 0.0
C3434 C 0.17823 0.70969 0.20002 0.0
C3435 C 0.16385 0.72598 0.19987 0.0
C3436 C 0.15025 0.72832 0.23035 0.0
C3437 C 0.15202 0.71516 0.26129 0.0
C3438 C 0.19315 0.70661 0.16839 0.0
C3439 C 0.13446 0.74528 0.23097 0.0
H3440 H 0.19039 0.78493 0.14429 0.0
H3441 H 0.14823 0.74871 0.07992 0.0
H3442 H 0.17954 0.76321 0.23145 0.0
H3443 H 0.20097 0.75005 0.21153 0.0
H3444 H 0.19853 0.77744 0.20567 0.0
H3445 H 0.13012 0.7208 0.10553 0.0
H3446 H 0.14804 0.70556 0.13185 0.0
H3447 H 0.12827 0.71944 0.1554 0.0
H3448 H 0.19096 0.68462 0.23095 0.0
H3449 H 0.14224 0.71756 0.28521 0.0
H3450 H 0.2036 0.72004 0.16651 0.0
H3451 H 0.18477 0.70553 0.14171 0.0
H3452 H 0.20263 0.69254 0.17184 0.0
H3453 H 0.1423 0.76033 0.234 0.0
H3454 H 0.12339 0.74348 0.25419 0.0
H3455 H 0.12581 0.74566 0.20448 0.0
C3456 C 0.51873 0.07416 0.35472 0.0
C3457 C 0.50807 0.08768 0.33113 0.0
C3458 C 0.51405 0.07279 0.39283 0.0
C3459 C 0.49819 0.08512 0.40809 0.0
C3460 C 0.48721 0.0986 0.38442 0.0
C3461 C 0.49229 0.09975 0.34648 0.0
C3462 C 0.52618 0.05818 0.41683 0.0
C3463 C 0.4702 0.11204 0.3993 0.0
C3464 C 0.4739 0.06983 0.50088 0.0
C3465 C 0.48384 0.083 0.52607 0.0
C3466 C 0.47846 0.07026 0.46265 0.0
C3467 C 0.49334 0.08423 0.44886 0.0
C3468 C 0.50346 0.09753 0.47407 0.0
C3469 C 0.49864 0.09674 0.51215 0.0
C3470 C 0.46724 0.05581 0.43693 0.0
C3471 C 0.51945 0.11265 0.46081 0.0
H3472 H 0.53072 0.06448 0.34336 0.0
H3473 H 0.4841 0.1105 0.32896 0.0
H3474 H 0.534 0.06682 0.43929 0.0
H3475 H 0.51568 0.047 0.43024 0.0
H3476 H 0.53796 0.04956 0.40084 0.0
H3477 H 0.46268 0.12124 0.37721 0.0
H3478 H 0.45836 0.10245 0.41309 0.0
H3479 H 0.47644 0.1227 0.4205 0.0
H3480 H 0.46225 0.05932 0.51095 0.0
H3481 H 0.50675 0.10676 0.53115 0.0
H3482 H 0.47842 0.04611 0.42169 0.0
H3483 H 0.45852 0.06475 0.416 0.0
H3484 H 0.45637 0.04562 0.45195 0.0
H3485 H 0.53218 0.10433 0.4469 0.0
H3486 H 0.52594 0.12196 0.4838 0.0
H3487 H 0.51261 0.1232 0.44006 0.0
C3488 C 0.14429 0.23831 0.60707 0.0
C3489 C 0.14758 0.25865 0.59548 0.0
C3490 C 0.14506 0.23284 0.64479 0.0
C3491 C 0.14914 0.24807 0.67188 0.0
C3492 C 0.15287 0.26856 0.66034 0.0
C3493 C 0.15212 0.27358 0.62237 0.0
C3494 C 0.14126 0.21077 0.65568 0.0
C3495 C 0.15721 0.28532 0.6882 0.0
C3496 C 0.13015 0.23859 0.77059 0.0
C3497 C 0.14821 0.23265 0.78907 0.0
C3498 C 0.13027 0.24367 0.73266 0.0
C3499 C 0.14886 0.24266 0.71229 0.0
C3500 C 0.1671 0.23642 0.73056 0.0
C3501 C 0.16658 0.23158 0.76861 0.0
C3502 C 0.11045 0.25021 0.71438 0.0
C3503 C 0.18725 0.23503 0.70996 0.0
H3504 H 0.14112 0.22657 0.58653 0.0
H3505 H 0.15452 0.28937 0.61384 0.0
H3506 H 0.15438 0.20487 0.67218 0.0
H3507 H 0.12738 0.20978 0.67345 0.0
H3508 H 0.13904 0.20062 0.63125 0.0
H3509 H 0.16057 0.3003 0.67475 0.0
H3510 H 0.14375 0.28725 0.70677 0.0
H3511 H 0.17048 0.281 0.70583 0.0
H3512 H 0.11579 0.23918 0.78576 0.0
H3513 H 0.18072 0.22735 0.78249 0.0
H3514 H 0.1067 0.2396 0.69128 0.0
H3515 H 0.11222 0.26579 0.70233 0.0
H3516 H 0.09733 0.25041 0.73407 0.0
H3517 H 0.18568 0.22452 0.68591 0.0
H3518 H 0.19996 0.2294 0.72785 0.0
H3519 H 0.19151 0.25036 0.69892 0.0
C3520 C 0.03176 0.89813 0.99015 0.0
C3521 C 0.01664 0.90162 1.01722 0.0
C3522 C 0.02676 0.89738 0.95212 0.0
C3523 C 0.00606 0.89993 0.94064 0.0
C3524 C 0.99074 0.90349 0.96784 0.0
C3525 C -0.00379 0.90438 1.0056 0.0
C3526 C 0.04365 0.89381 0.9242 0.0
C3527 C 0.96847 0.90607 0.95709 0.0
C3528 C 0.99405 0.91467 0.84012 0.0
C3529 C 0.98905 0.8956 0.82416 0.0
C3530 C -0.00026 0.91629 0.87774 0.0
C3531 C 0.00034 0.89846 0.90033 0.0
C3532 C 0.99522 0.8792 0.88443 0.0
C3533 C 0.98973 0.878 0.8467 0.0
C3534 C 0.00521 0.93712 0.89329 0.0
C3535 C 0.99538 0.85982 0.9074 0.0
H3536 H 0.04761 0.89619 0.9987 0.0
H3537 H 0.98434 0.90681 0.02621 0.0
H3538 H 0.04063 0.87942 0.90862 0.0
H3539 H 0.04393 0.90654 0.90376 0.0
H3540 H 0.05902 0.89265 0.93741 0.0
H3541 H 0.95843 0.90896 0.98143 0.0
H3542 H 0.96681 0.91907 0.93742 0.0
H3543 H 0.96296 0.89205 0.94269 0.0
H3544 H 0.99383 0.92835 0.823 0.0
H3545 H 0.98563 0.86324 0.83494 0.0
H3546 H 0.02104 0.93681 0.90469 0.0
H3547 H 0.99471 0.94102 0.91648 0.0
H3548 H 0.00424 0.94946 0.8721 0.0
H3549 H 0.0109 0.85733 0.91931 0.0
H3550 H 0.99105 0.84604 0.891 0.0
H3551 H 0.98452 0.86138 0.93093 0.0
C3552 C 0.33152 0.76831 0.26096 0.0
C3553 C 0.34815 0.76139 0.28247 0.0
C3554 C 0.32988 0.76327 0.22304 0.0
C3555 C 0.34526 0.75107 0.20596 0.0
C3556 C 0.36205 0.74404 0.22753 0.0
C3557 C 0.36328 0.74926 0.26532 0.0
C3558 C 0.31167 0.77103 0.20124 0.0
C3559 C 0.37891 0.73118 0.21056 0.0
C3560 C 0.33556 0.72271 0.11462 0.0
C3561 C 0.34554 0.73545 0.08883 0.0
C3562 C 0.33481 0.72785 0.15259 0.0
C3563 C 0.3443 0.74617 0.16531 0.0
C3564 C 0.35387 0.75936 0.13928 0.0
C3565 C 0.35431 0.7539 0.10155 0.0
C3566 C 0.32436 0.71337 0.17926 0.0
C3567 C 0.3641 0.77907 0.1514 0.0
H3568 H 0.31961 0.77747 0.27389 0.0
H3569 H 0.37637 0.74408 0.28137 0.0
H3570 H 0.31702 0.78092 0.17813 0.0
H3571 H 0.30326 0.75791 0.18875 0.0
H3572 H 0.30083 0.78001 0.21865 0.0
H3573 H 0.39067 0.7265 0.23121 0.0
H3574 H 0.37229 0.71714 0.19784 0.0
H3575 H 0.38661 0.73994 0.18814 0.0
H3576 H 0.32884 0.70836 0.10533 0.0
H3577 H 0.36166 0.76412 0.08192 0.0
H3578 H 0.31291 0.7218 0.19621 0.0
H3579 H 0.33589 0.70683 0.19859 0.0
H3580 H 0.31648 0.70052 0.1648 0.0
H3581 H 0.35307 0.78877 0.16698 0.0
H3582 H 0.37013 0.78808 0.12762 0.0
H3583 H 0.37705 0.77554 0.17037 0.0
C3584 C 0.48142 0.08203 0.85171 0.0
C3585 C 0.46231 0.07212 0.85448 0.0
C3586 C 0.49461 0.08359 0.88267 0.0
C3587 C 0.48876 0.07466 0.91698 0.0
C3588 C 0.46918 0.06538 0.92022 0.0
C3589 C 0.45618 0.06449 0.88925 0.0
C3590 C 0.51515 0.09406 0.87825 0.0
C3591 C 0.46236 0.0553 0.95589 0.0
C3592 C 0.53 0.05493 0.98303 0.0
C3593 C 0.52921 0.06935 1.01194 0.0
C3594 C 0.51718 0.05668 0.95182 0.0
C3595 C 0.50351 0.07356 0.94882 0.0
C3596 C 0.50302 0.08846 0.97747 0.0
C3597 C 0.51567 0.08604 1.00889 0.0
C3598 C 0.5179 0.04013 0.9225 0.0
C3599 C 0.48905 0.10692 0.975 0.0
H3600 H 0.48639 0.08796 0.82512 0.0
H3601 H 0.44148 0.05683 0.89206 0.0
H3602 H 0.51783 0.10496 0.9014 0.0
H3603 H 0.52759 0.08242 0.87918 0.0
H3604 H 0.5163 0.10254 0.85161 0.0
H3605 H 0.44636 0.04938 0.95431 0.0
H3606 H 0.47274 0.04227 0.96247 0.0
H3607 H 0.46336 0.06634 0.97922 0.0
H3608 H 0.54038 0.04196 0.98515 0.0
H3609 H 0.51515 0.0974 0.03084 0.0
H3610 H 0.52136 0.04698 0.89507 0.0
H3611 H 0.50266 0.03256 0.92035 0.0
H3612 H 0.52964 0.0282 0.92861 0.0
H3613 H 0.49152 0.11503 0.94832 0.0
H3614 H 0.49162 0.11793 0.99808 0.0
H3615 H 0.47277 0.10189 0.97564 0.0
C3616 C 0.66508 0.69618 0.64726 0.0
C3617 C 0.65379 0.69926 0.61456 0.0
C3618 C 0.66346 0.70971 0.67732 0.0
C3619 C 0.64998 0.72672 0.67503 0.0
C3620 C 0.63759 0.72929 0.64305 0.0
C3621 C 0.63967 0.71555 0.61309 0.0
C3622 C 0.67696 0.70632 0.71085 0.0
C3623 C 0.62279 0.74705 0.63984 0.0
C3624 C 0.63837 0.75227 0.76738 0.0
C3625 C 0.65236 0.76869 0.76755 0.0
C3626 C 0.63675 0.73904 0.73677 0.0
C3627 C 0.64962 0.74212 0.70566 0.0
C3628 C 0.66339 0.75901 0.70523 0.0
C3629 C 0.66451 0.77215 0.7361 0.0
C3630 C 0.62167 0.72143 0.73816 0.0
C3631 C 0.67752 0.76276 0.67273 0.0
H3632 H 0.67595 0.6836 0.64889 0.0
H3633 H 0.63094 0.71815 0.58795 0.0
H3634 H 0.68775 0.71942 0.71397 0.0
H3635 H 0.66748 0.70566 0.73635 0.0
H3636 H 0.68608 0.69193 0.70884 0.0
H3637 H 0.61286 0.74579 0.6149 0.0
H3638 H 0.61286 0.74791 0.66479 0.0
H3639 H 0.6315 0.76168 0.63823 0.0
H3640 H 0.62867 0.74964 0.79134 0.0
H3641 H 0.67541 0.78472 0.73603 0.0
H3642 H 0.63013 0.70664 0.739 0.0
H3643 H 0.61201 0.72129 0.71282 0.0
H3644 H 0.61146 0.72225 0.76279 0.0
H3645 H 0.68847 0.74977 0.67005 0.0
H3646 H 0.68644 0.77722 0.67572 0.0
H3647 H 0.66855 0.76351 0.64664 0.0
C3648 C 0.0454 0.92084 0.38516 0.0
C3649 C 0.03943 0.91175 0.35149 0.0
C3650 C 0.0327 0.92015 0.4166 0.0
C3651 C 0.0135 0.90998 0.41468 0.0
C3652 C 0.00799 0.89953 0.38161 0.0
C3653 C 0.02102 0.90054 0.35038 0.0
C3654 C 0.03931 0.93149 0.45114 0.0
C3655 C 0.98776 0.88834 0.37846 0.0
C3656 C 0.98567 0.901 0.5066 0.0
C3657 C 0.97219 0.91786 0.50804 0.0
C3658 C -0.00121 0.89788 0.47603 0.0
C3659 C -0.00143 0.91198 0.44611 0.0
C3660 C 0.98481 0.92886 0.44718 0.0
C3661 C 0.97185 0.93157 0.47798 0.0
C3662 C 0.01313 0.87965 0.47597 0.0
C3663 C 0.98405 0.94436 0.41605 0.0
H3664 H 0.05965 0.92945 0.38649 0.0
H3665 H 0.01616 0.89359 0.32452 0.0
H3666 H 0.02904 0.94487 0.4557 0.0
H3667 H 0.03796 0.92139 0.47576 0.0
H3668 H 0.05538 0.93716 0.44925 0.0
H3669 H 0.98689 0.87883 0.35294 0.0
H3670 H 0.98529 0.8783 0.40289 0.0
H3671 H 0.97502 0.89968 0.37788 0.0
H3672 H 0.98605 0.89021 0.52946 0.0
H3673 H 0.9616 0.94467 0.47861 0.0
H3674 H 0.0293 0.88505 0.47636 0.0
H3675 H 0.01103 0.87056 0.45024 0.0
H3676 H 0.01063 0.86943 0.50021 0.0
H3677 H -0.00094 0.95236 0.41389 0.0
H3678 H 0.97183 0.95606 0.42021 0.0
H3679 H 0.98129 0.93647 0.38926 0.0
C3680 C 0.83147 0.28335 0.09049 0.0
C3681 C 0.81632 0.29869 0.08929 0.0
C3682 C 0.83335 0.2703 0.12154 0.0
C3683 C 0.81969 0.27255 0.15193 0.0
C3684 C 0.80474 0.28832 0.15117 0.0
C3685 C 0.80332 0.30118 0.1201 0.0
C3686 C 0.84966 0.25383 0.1215 0.0
C3687 C 0.78975 0.29125 0.18273 0.0
C3688 C 0.80727 0.22683 0.21372 0.0
C3689 C 0.81821 0.23146 0.24625 0.0
C3690 C 0.80801 0.2398 0.18266 0.0
C3691 C 0.82015 0.25785 0.18377 0.0
C3692 C 0.83156 0.26245 0.21621 0.0
C3693 C 0.83035 0.24929 0.24713 0.0
C3694 C 0.79536 0.23441 0.14892 0.0
C3695 C 0.84485 0.28142 0.2184 0.0
H3696 H 0.84162 0.28131 0.06698 0.0
H3697 H 0.7916 0.313 0.1198 0.0
H3698 H 0.85905 0.25484 0.14711 0.0
H3699 H 0.8423 0.23845 0.1213 0.0
H3700 H 0.86001 0.255 0.09711 0.0
H3701 H 0.77966 0.30483 0.17863 0.0
H3702 H 0.77993 0.2774 0.18547 0.0
H3703 H 0.79814 0.29316 0.20926 0.0
H3704 H 0.79782 0.21312 0.2126 0.0
H3705 H 0.839 0.25294 0.27193 0.0
H3706 H 0.80526 0.23393 0.12392 0.0
H3707 H 0.78356 0.24643 0.14423 0.0
H3708 H 0.7875 0.21933 0.15179 0.0
H3709 H 0.85567 0.28185 0.19465 0.0
H3710 H 0.85382 0.28212 0.24456 0.0
H3711 H 0.8351 0.29536 0.21657 0.0
C3712 C 0.51373 0.90424 0.86568 0.0
C3713 C 0.52176 0.9216 0.84767 0.0
C3714 C 0.50919 0.90451 0.90374 0.0
C3715 C 0.51271 0.9226 0.92463 0.0
C3716 C 0.52065 0.94027 0.90664 0.0
C3717 C 0.52516 0.93954 0.86845 0.0
C3718 C 0.50095 0.88524 0.92174 0.0
C3719 C 0.5245 0.95991 0.92779 0.0
C3720 C 0.48503 0.92479 1.01786 0.0
C3721 C 0.50034 0.91788 0.04232 0.0
C3722 C 0.48903 0.92725 0.97975 0.0
C3723 C 0.50879 0.92255 0.96553 0.0
C3724 C 0.52449 0.91625 0.99024 0.0
C3725 C 0.52011 0.91411 0.0282 0.0
C3726 C 0.47189 0.93419 0.95451 0.0
C3727 C 0.54577 0.91108 0.97641 0.0
H3728 H 0.51139 0.89019 0.85012 0.0
H3729 H 0.53118 0.95308 0.85476 0.0
H3730 H 0.5118 0.87987 0.94338 0.0
H3731 H 0.4861 0.88853 0.93562 0.0
H3732 H 0.49857 0.87261 0.90149 0.0
H3733 H 0.5302 0.97246 0.90962 0.0
H3734 H 0.51013 0.96507 0.94147 0.0
H3735 H 0.53599 0.95717 0.94996 0.0
H3736 H 0.46967 0.92763 0.02824 0.0
H3737 H 0.53223 0.90926 0.04685 0.0
H3738 H 0.46742 0.92138 0.93588 0.0
H3739 H 0.47714 0.94707 0.93674 0.0
H3740 H 0.45808 0.9392 0.97021 0.0
H3741 H 0.545 0.89758 0.95768 0.0
H3742 H 0.55657 0.90752 0.99937 0.0
H3743 H 0.5521 0.92407 0.96011 0.0
C3744 C 0.83758 0.75502 0.60276 0.0
C3745 C 0.83795 0.77587 0.59263 0.0
C3746 C 0.83692 0.74895 0.64021 0.0
C3747 C 0.83664 0.76405 0.66851 0.0
C3748 C 0.83657 0.78512 0.65849 0.0
C3749 C 0.8372 0.79076 0.6208 0.0
C3750 C 0.83688 0.72634 0.64949 0.0
C3751 C 0.83631 0.80174 0.68765 0.0
C3752 C 0.82026 0.74891 0.76674 0.0
C3753 C 0.83928 0.74656 0.7847 0.0
C3754 C 0.81913 0.7545 0.72902 0.0
C3755 C 0.83744 0.75782 0.70854 0.0
C3756 C 0.85666 0.75522 0.72639 0.0
C3757 C 0.85734 0.74961 0.76403 0.0
C3758 C 0.79832 0.75708 0.71115 0.0
C3759 C 0.87658 0.75844 0.70573 0.0
H3760 H 0.83776 0.74337 0.58131 0.0
H3761 H 0.83767 0.8069 0.61344 0.0
H3762 H 0.85095 0.7224 0.66534 0.0
H3763 H 0.82352 0.72261 0.66736 0.0
H3764 H 0.83626 0.71651 0.62434 0.0
H3765 H 0.83525 0.81737 0.67541 0.0
H3766 H 0.82312 0.79947 0.70669 0.0
H3767 H 0.85053 0.80085 0.70457 0.0
H3768 H 0.8062 0.7468 0.78238 0.0
H3769 H 0.87213 0.74747 0.77727 0.0
H3770 H 0.79701 0.74687 0.68664 0.0
H3771 H 0.7965 0.7731 0.70116 0.0
H3772 H 0.78554 0.75354 0.73053 0.0
H3773 H 0.87738 0.74786 0.68166 0.0
H3774 H 0.89026 0.75581 0.72352 0.0
H3775 H 0.87726 0.77434 0.69473 0.0
C3776 C 0.98268 0.09476 0.5101 0.0
C3777 C 0.00278 0.0902 0.52181 0.0
C3778 C 0.97732 0.09487 0.47232 0.0
C3779 C 0.99234 0.09016 0.4452 0.0
C3780 C 0.01245 0.08474 0.45682 0.0
C3781 C 0.01743 0.08486 0.49487 0.0
C3782 C 0.95568 0.10066 0.46137 0.0
C3783 C 0.02892 0.07948 0.42895 0.0
C3784 C 0.97383 0.07819 0.34678 0.0
C3785 C 0.97661 0.09716 0.32885 0.0
C3786 C 0.97909 0.07555 0.3844 0.0
C3787 C 0.98731 0.09229 0.40479 0.0
C3788 C 0.99018 0.11143 0.38679 0.0
C3789 C 0.98482 0.11362 0.34922 0.0
C3790 C 0.97583 0.05486 0.40232 0.0
C3791 C -0.00131 0.12975 0.40738 0.0
H3792 H 0.97106 0.09845 0.53056 0.0
H3793 H 0.03303 0.08142 0.50338 0.0
H3794 H 0.95593 0.11514 0.44515 0.0
H3795 H 0.94894 0.0886 0.44335 0.0
H3796 H 0.94551 0.10285 0.48578 0.0
H3797 H 0.04324 0.07392 0.44241 0.0
H3798 H 0.02332 0.06748 0.40958 0.0
H3799 H 0.03265 0.09327 0.41219 0.0
H3800 H 0.96775 0.06529 0.33125 0.0
H3801 H 0.98676 0.12842 0.33591 0.0
H3802 H 0.96518 0.05637 0.42616 0.0
H3803 H 0.99063 0.04897 0.4133 0.0
H3804 H 0.96942 0.04337 0.38269 0.0
H3805 H 0.98838 0.13378 0.43076 0.0
H3806 H 0.0004 0.14345 0.38926 0.0
H3807 H 0.01393 0.12594 0.41934 0.0
C3808 C 0.67172 0.22954 0.09754 0.0
C3809 C 0.65293 0.23045 0.07836 0.0
C3810 C 0.67316 0.23517 0.13519 0.0
C3811 C 0.65538 0.24187 0.15442 0.0
C3812 C 0.6364 0.24289 0.13523 0.0
C3813 C 0.63542 0.23722 0.0976 0.0
C3814 C 0.69369 0.23377 0.15448 0.0
C3815 C 0.61706 0.24998 0.15449 0.0
C3816 C 0.65295 0.238 0.26 0.0
C3817 C 0.65652 0.25839 0.27116 0.0
C3818 C 0.65292 0.23239 0.2223 0.0
C3819 C 0.65647 0.24748 0.19474 0.0
C3820 C 0.66043 0.26802 0.20577 0.0
C3821 C 0.66043 0.27321 0.24371 0.0
C3822 C 0.64864 0.21032 0.21194 0.0
C3823 C 0.6644 0.28461 0.17743 0.0
H3824 H 0.68533 0.22409 0.08328 0.0
H3825 H 0.62088 0.23834 0.08309 0.0
H3826 H 0.6979 0.24894 0.1663 0.0
H3827 H 0.69271 0.22277 0.17789 0.0
H3828 H 0.70616 0.22871 0.13552 0.0
H3829 H 0.60354 0.25003 0.13571 0.0
H3830 H 0.61368 0.23979 0.17837 0.0
H3831 H 0.61926 0.26572 0.1656 0.0
H3832 H 0.64961 0.22644 0.28074 0.0
H3833 H 0.66352 0.28893 0.25187 0.0
H3834 H 0.66122 0.20427 0.19428 0.0
H3835 H 0.63426 0.20942 0.19551 0.0
H3836 H 0.64705 0.20025 0.23662 0.0
H3837 H 0.67751 0.2802 0.15946 0.0
H3838 H 0.66785 0.29969 0.19046 0.0
H3839 H 0.65077 0.28638 0.15926 0.0
C3840 C 0.10454 0.54221 0.7071 0.0
C3841 C 0.08448 0.54337 0.69315 0.0
C3842 C 0.10841 0.53313 0.74209 0.0
C3843 C 0.09187 0.52493 0.76321 0.0
C3844 C 0.07178 0.52541 0.74832 0.0
C3845 C 0.06841 0.53449 0.71371 0.0
C3846 C 0.13005 0.53292 0.75702 0.0
C3847 C 0.05362 0.51677 0.76933 0.0
C3848 C 0.09866 0.48699 0.84294 0.0
C3849 C 0.09545 0.49953 0.87412 0.0
C3850 C 0.09849 0.49517 0.80679 0.0
C3851 C 0.09506 0.51646 0.80144 0.0
C3852 C 0.09231 0.52929 0.83282 0.0
C3853 C 0.09252 0.5207 0.86863 0.0
C3854 C 0.10119 0.48086 0.77423 0.0
C3855 C 0.08844 0.55204 0.82852 0.0
H3856 H 0.11701 0.54904 0.69145 0.0
H3857 H 0.05288 0.53491 0.70289 0.0
H3858 H 0.13092 0.54268 0.78218 0.0
H3859 H 0.13442 0.5171 0.76535 0.0
H3860 H 0.14138 0.53866 0.73645 0.0
H3861 H 0.03895 0.51853 0.75388 0.0
H3862 H 0.0561 0.50021 0.77507 0.0
H3863 H 0.05202 0.52468 0.79642 0.0
H3864 H 0.10074 0.4706 0.84669 0.0
H3865 H 0.09038 0.53062 0.89243 0.0
H3866 H 0.11299 0.48695 0.75495 0.0
H3867 H 0.08655 0.47979 0.75859 0.0
H3868 H 0.10576 0.46514 0.78298 0.0
H3869 H 0.10029 0.55902 0.81035 0.0
H3870 H 0.08847 0.56021 0.85556 0.0
H3871 H 0.07331 0.55452 0.81507 0.0
C3872 C 0.66712 0.83065 0.99913 0.0
C3873 C 0.67534 0.83908 0.96646 0.0
C3874 C 0.67667 0.83346 0.03364 0.0
C3875 C 0.69497 0.84514 0.036 0.0
C3876 C 0.70282 0.85462 1.00346 0.0
C3877 C 0.69291 0.85148 0.96902 0.0
C3878 C 0.66766 0.82298 0.0673 0.0
C3879 C 0.72228 0.86719 1.00469 0.0
C3880 C 0.71054 0.86194 0.13354 0.0
C3881 C 0.72465 0.8466 0.14391 0.0
C3882 C 0.70135 0.86209 0.09818 0.0
C3883 C 0.70621 0.84647 0.07228 0.0
C3884 C 0.72068 0.83115 0.08225 0.0
C3885 C 0.72971 0.8314 0.11777 0.0
C3886 C 0.68595 0.87865 0.08894 0.0
C3887 C 0.72634 0.81419 0.05559 0.0
H3888 H 0.65355 0.82102 0.99747 0.0
H3889 H 0.69959 0.85773 0.94393 0.0
H3890 H 0.67845 0.81106 0.0775 0.0
H3891 H 0.66544 0.83423 0.09004 0.0
H3892 H 0.65268 0.81549 0.06127 0.0
H3893 H 0.72526 0.87522 0.97806 0.0
H3894 H 0.72144 0.87876 0.02722 0.0
H3895 H 0.73551 0.857 1.01081 0.0
H3896 H 0.70619 0.8736 0.15348 0.0
H3897 H 0.7408 0.81965 0.12503 0.0
H3898 H 0.67051 0.87169 0.08535 0.0
H3899 H 0.69006 0.88617 0.06236 0.0
H3900 H 0.68499 0.89059 0.11088 0.0
H3901 H 0.71266 0.80455 0.04974 0.0
H3902 H 0.73875 0.80416 0.06652 0.0
H3903 H 0.73145 0.82087 0.02888 0.0
C3904 C 0.37815 0.49441 0.35459 0.0
C3905 C 0.38524 0.48326 0.3854 0.0
C3906 C 0.37979 0.48648 0.31834 0.0
C3907 C 0.38855 0.4668 0.31253 0.0
C3908 C 0.39529 0.45527 0.3436 0.0
C3909 C 0.39364 0.46365 0.37949 0.0
C3910 C 0.3728 0.4995 0.28612 0.0
C3911 C 0.40467 0.43422 0.33887 0.0
C3912 C 0.38253 0.43877 0.21938 0.0
C3913 C 0.40184 0.44215 0.20332 0.0
C3914 C 0.37775 0.44697 0.2547 0.0
C3915 C 0.3925 0.45905 0.27398 0.0
C3916 C 0.41164 0.46317 0.25692 0.0
C3917 C 0.41606 0.45465 0.22213 0.0
C3918 C 0.35723 0.44208 0.27199 0.0
C3919 C 0.42781 0.47613 0.27584 0.0
H3920 H 0.37182 0.50963 0.35872 0.0
H3921 H 0.39887 0.45475 0.40305 0.0
H3922 H 0.38626 0.50376 0.26886 0.0
H3923 H 0.36212 0.49067 0.26821 0.0
H3924 H 0.365 0.51381 0.29529 0.0
H3925 H 0.4076 0.42653 0.36585 0.0
H3926 H 0.39439 0.42432 0.32205 0.0
H3927 H 0.41946 0.43552 0.32375 0.0
H3928 H 0.37154 0.42907 0.20513 0.0
H3929 H 0.43095 0.4576 0.20971 0.0
H3930 H 0.3494 0.45644 0.28067 0.0
H3931 H 0.35959 0.43267 0.29728 0.0
H3932 H 0.34699 0.43353 0.25277 0.0
H3933 H 0.42121 0.49111 0.28439 0.0
H3934 H 0.44131 0.47906 0.25774 0.0
H3935 H 0.43323 0.46826 0.30129 0.0
C3936 C 0.81032 0.16231 0.47564 0.0
C3937 C 0.80044 0.15646 0.44263 0.0
C3938 C 0.80114 0.15917 0.51037 0.0
C3939 C 0.78159 0.14972 0.51248 0.0
C3940 C 0.77212 0.1425 0.47951 0.0
C3941 C 0.78165 0.14597 0.44493 0.0
C3942 C 0.81188 0.16713 0.54461 0.0
C3943 C 0.75135 0.13221 0.48056 0.0
C3944 C 0.76452 0.13135 0.60806 0.0
C3945 C 0.75223 0.14776 0.62036 0.0
C3946 C 0.77371 0.13151 0.57276 0.0
C3947 C 0.7707 0.14855 0.54899 0.0
C3948 C 0.7582 0.16511 0.56104 0.0
C3949 C 0.74913 0.16451 0.59646 0.0
C3950 C 0.78703 0.11363 0.5612 0.0
C3951 C 0.75463 0.18363 0.53668 0.0
H3952 H 0.82487 0.17039 0.47426 0.0
H3953 H 0.77377 0.14159 0.41967 0.0
H3954 H 0.80301 0.18015 0.55641 0.0
H3955 H 0.81265 0.15499 0.56613 0.0
H3956 H 0.82772 0.17257 0.53863 0.0
H3957 H 0.74701 0.12562 0.45326 0.0
H3958 H 0.7512 0.11977 0.50158 0.0
H3959 H 0.7395 0.14358 0.48879 0.0
H3960 H 0.76735 0.11846 0.62638 0.0
H3961 H 0.73946 0.17714 0.60535 0.0
H3962 H 0.80311 0.11889 0.5575 0.0
H3963 H 0.78177 0.10746 0.53415 0.0
H3964 H 0.78686 0.101 0.5819 0.0
H3965 H 0.76945 0.19149 0.53114 0.0
H3966 H 0.7439 0.19486 0.54946 0.0
H3967 H 0.74827 0.17875 0.50954 0.0
C3968 C 0.90879 0.42678 0.61177 0.0
C3969 C 0.90028 0.43464 0.64468 0.0
C3970 C 0.90581 0.43648 0.57741 0.0
C3971 C 0.89375 0.45455 0.57532 0.0
C3972 C 0.88415 0.462 0.60806 0.0
C3973 C 0.88756 0.45201 0.64238 0.0
C3974 C 0.91649 0.42788 0.54361 0.0
C3975 C 0.87099 0.48107 0.60715 0.0
C3976 C 0.90646 0.49024 0.4941 0.0
C3977 C 0.89151 0.48485 0.4677 0.0
C3978 C 0.90698 0.48096 0.52942 0.0
C3979 C 0.89212 0.46593 0.5391 0.0
C3980 C 0.87672 0.46074 0.51296 0.0
C3981 C 0.87665 0.47014 0.47773 0.0
C3982 C 0.92364 0.48708 0.55631 0.0
C3983 C 0.86061 0.4448 0.52184 0.0
H3984 H 0.91854 0.41329 0.61305 0.0
H3985 H 0.88112 0.45839 0.66757 0.0
H3986 H 0.90539 0.42583 0.52058 0.0
H3987 H 0.92841 0.43887 0.53403 0.0
H3988 H 0.92402 0.41288 0.54925 0.0
H3989 H 0.8628 0.48362 0.63377 0.0
H3990 H 0.88078 0.49465 0.60141 0.0
H3991 H 0.8595 0.48002 0.5845 0.0
H3992 H 0.91781 0.50181 0.48723 0.0
H3993 H 0.86517 0.4655 0.45765 0.0
H3994 H 0.93296 0.47345 0.56399 0.0
H3995 H 0.91655 0.49306 0.58209 0.0
H3996 H 0.93403 0.49903 0.54483 0.0
H3997 H 0.86801 0.42955 0.52513 0.0
H3998 H 0.84872 0.44364 0.49986 0.0
H3999 H 0.85297 0.44852 0.5485 0.0
C4000 C 0.23621 0.15237 0.26773 0.0
C4001 C 0.23804 0.13537 0.24393 0.0
C4002 C 0.24497 0.15222 0.30346 0.0
C4003 C 0.25592 0.13468 0.3159 0.0
C4004 C 0.25732 0.11728 0.29247 0.0
C4005 C 0.24836 0.11781 0.25696 0.0
C4006 C 0.2431 0.17115 0.32744 0.0
C4007 C 0.26883 0.09828 0.3045 0.0
C4008 C 0.29764 0.14551 0.38718 0.0
C4009 C 0.28805 0.14018 0.42066 0.0
C4010 C 0.28764 0.14307 0.35299 0.0
C4011 C 0.26734 0.13525 0.35201 0.0
C4012 C 0.25787 0.12896 0.38561 0.0
C4013 C 0.26837 0.13144 0.4196 0.0
C4014 C 0.29848 0.14991 0.31808 0.0
C4015 C 0.23618 0.12078 0.38592 0.0
H4016 H 0.22846 0.16609 0.25803 0.0
H4017 H 0.24955 0.10442 0.23925 0.0
H4018 H 0.23241 0.18269 0.31549 0.0
H4019 H 0.23762 0.16693 0.35553 0.0
H4020 H 0.25843 0.17841 0.33072 0.0
H4021 H 0.26742 0.08556 0.28413 0.0
H4022 H 0.28536 0.102 0.30803 0.0
H4023 H 0.26302 0.09288 0.33171 0.0
H4024 H 0.31279 0.15247 0.38786 0.0
H4025 H 0.26067 0.1278 0.44542 0.0
H4026 H 0.29044 0.16341 0.30618 0.0
H4027 H 0.29808 0.13751 0.29698 0.0
H4028 H 0.31476 0.1542 0.32324 0.0
H4029 H 0.22536 0.13336 0.37886 0.0
H4030 H 0.23184 0.11445 0.41342 0.0
H4031 H 0.2343 0.10859 0.3647 0.0
C4032 C 0.61436 0.52168 0.99218 0.0
C4033 C 0.60366 0.50337 0.98478 0.0
C4034 C 0.61326 0.53126 0.0271 0.0
C4035 C 0.60108 0.52246 0.0555 0.0
C4036 C 0.59082 0.5036 0.04866 0.0
C4037 C 0.59227 0.49432 1.01353 0.0
C4038 C 0.62482 0.55107 0.03339 0.0
C4039 C 0.57828 0.49286 0.07809 0.0
C4040 C 0.6043 0.53978 0.1568 0.0
C4041 C 0.58763 0.55342 0.15905 0.0
C4042 C 0.6094 0.53009 0.12298 0.0
C4043 C 0.59746 0.53397 0.09083 0.0
C4044 C 0.58102 0.54815 0.0928 0.0
C4045 C 0.57655 0.55786 0.12652 0.0
C4046 C 0.6269 0.51492 0.12205 0.0
C4047 C 0.56728 0.55216 0.05981 0.0
H4048 H 0.62367 0.52857 0.97061 0.0
H4049 H 0.58396 0.48017 1.0084 0.0
H4050 H 0.61376 0.56386 0.03733 0.0
H4051 H 0.6342 0.54997 0.059 0.0
H4052 H 0.63509 0.55495 1.00981 0.0
H4053 H 0.58793 0.48081 0.09115 0.0
H4054 H 0.57289 0.50334 0.10024 0.0
H4055 H 0.56473 0.4851 0.06563 0.0
H4056 H 0.61283 0.53602 0.18167 0.0
H4057 H 0.56359 0.5683 0.12761 0.0
H4058 H 0.63721 0.51822 0.09828 0.0
H4059 H 0.62066 0.4992 0.1181 0.0
H4060 H 0.63606 0.51519 0.14802 0.0
H4061 H 0.57656 0.55713 0.03565 0.0
H4062 H 0.55548 0.56408 0.06556 0.0
H4063 H 0.55929 0.53773 0.05191 0.0
C4064 C 0.2229 0.84896 0.91334 0.0
C4065 C 0.20322 0.84015 0.91388 0.0
C4066 C 0.23327 0.85242 0.87951 0.0
C4067 C 0.22373 0.84695 0.84551 0.0
C4068 C 0.20342 0.83918 0.84598 0.0
C4069 C 0.19346 0.83594 0.87998 0.0
C4070 C 0.25486 0.86084 0.88027 0.0
C4071 C 0.19252 0.8332 0.81061 0.0
C4072 C 0.24248 0.86581 0.75125 0.0
C4073 C 0.25286 0.84848 0.73744 0.0
C4074 C 0.23366 0.86586 0.78688 0.0
C4075 C 0.23516 0.84814 0.80949 0.0
C4076 C 0.24616 0.83082 0.79621 0.0
C4077 C 0.25487 0.8312 0.76048 0.0
C4078 C 0.22218 0.88468 0.79989 0.0
C4079 C 0.24807 0.81154 0.81924 0.0
H4080 H 0.23067 0.85204 0.93932 0.0
H4081 H 0.17823 0.82917 0.88003 0.0
H4082 H 0.2565 0.87363 0.86015 0.0
H4083 H 0.25926 0.86647 0.90824 0.0
H4084 H 0.26581 0.84862 0.87191 0.0
H4085 H 0.17628 0.82867 0.81551 0.0
H4086 H 0.19279 0.84612 0.79059 0.0
H4087 H 0.20062 0.82007 0.7975 0.0
H4088 H 0.24114 0.87939 0.73404 0.0
H4089 H 0.26269 0.81767 0.7501 0.0
H4090 H 0.2278 0.88951 0.82758 0.0
H4091 H 0.20561 0.88101 0.80276 0.0
H4092 H 0.22382 0.89779 0.78039 0.0
H4093 H 0.25414 0.8153 0.84716 0.0
H4094 H 0.25834 0.79998 0.80619 0.0
H4095 H 0.23268 0.80453 0.8231 0.0
C4096 C 0.59556 -0.00145 0.36819 0.0
C4097 C 0.61362 0.00025 0.38934 0.0
C4098 C 0.59417 0.00712 0.33242 0.0
C4099 C 0.61118 0.01785 0.31728 0.0
C4100 C 0.62951 0.01944 0.33823 0.0
C4101 C 0.63055 0.01056 0.37376 0.0
C4102 C 0.57432 0.005 0.31109 0.0
C4103 C 0.64795 0.03085 0.32336 0.0
C4104 C 0.61091 0.02693 0.21249 0.0
C4105 C 0.60205 0.04655 0.2101 0.0
C4106 C 0.61457 0.01761 0.24717 0.0
C4107 C 0.6094 0.02819 0.28028 0.0
C4108 C 0.60153 0.04844 0.27795 0.0
C4109 C 0.59795 0.05731 0.24304 0.0
C4110 C 0.62288 0.99598 0.24833 0.0
C4111 C 0.59594 0.06044 0.31234 0.0
H4112 H 0.58227 0.99091 0.3799 0.0
H4113 H 0.64474 0.01168 0.38934 0.0
H4114 H 0.5674 0.02039 0.30669 0.0
H4115 H 0.57734 -0.0017 0.28334 0.0
H4116 H 0.56295 0.99517 0.32571 0.0
H4117 H 0.66127 0.03025 0.3426 0.0
H4118 H 0.65267 0.02429 0.29629 0.0
H4119 H 0.64388 0.04718 0.3185 0.0
H4120 H 0.61388 0.01836 0.1873 0.0
H4121 H 0.59116 0.07249 0.24157 0.0
H4122 H 0.61087 0.98545 0.25911 0.0
H4123 H 0.63619 0.99503 0.26746 0.0
H4124 H 0.62774 0.99048 0.22053 0.0
H4125 H 0.58277 0.05295 0.32644 0.0
H4126 H 0.59163 0.07657 0.30596 0.0
H4127 H 0.60899 0.06054 0.33213 0.0
C4128 C 0.18655 0.33856 0.50199 0.0
C4129 C 0.19826 0.34077 0.46948 0.0
C4130 C 0.19553 0.34012 0.53725 0.0
C4131 C 0.21683 0.3442 0.54045 0.0
C4132 C 0.2286 0.34744 0.50786 0.0
C4133 C 0.21918 0.34569 0.47277 0.0
C4134 C 0.18234 0.33651 0.57109 0.0
C4135 C 0.25133 0.35186 0.51003 0.0
C4136 C 0.23543 0.36212 0.63538 0.0
C4137 C 0.24265 0.34377 0.65121 0.0
C4138 C 0.22757 0.36262 0.59906 0.0
C4139 C 0.22676 0.3443 0.57791 0.0
C4140 C 0.23438 0.32579 0.59345 0.0
C4141 C 0.24229 0.32577 0.62979 0.0
C4142 C 0.21972 0.38269 0.5836 0.0
C4143 C 0.23363 0.30586 0.57207 0.0
H4144 H 0.17035 0.33483 0.49994 0.0
H4145 H 0.22845 0.34723 0.44797 0.0
H4146 H 0.18765 0.32251 0.5858 0.0
H4147 H 0.18381 0.34958 0.59064 0.0
H4148 H 0.16585 0.3345 0.56398 0.0
H4149 H 0.258 0.35556 0.48249 0.0
H4150 H 0.25428 0.36489 0.52913 0.0
H4151 H 0.25945 0.33826 0.52143 0.0
H4152 H 0.23591 0.37617 0.65149 0.0
H4153 H 0.24766 0.31149 0.64184 0.0
H4154 H 0.20297 0.38151 0.57826 0.0
H4155 H 0.22726 0.38605 0.5567 0.0
H4156 H 0.22246 0.39578 0.60272 0.0
H4157 H 0.2174 0.30159 0.56654 0.0
H4158 H 0.24112 0.29303 0.58724 0.0
H4159 H 0.24131 0.30771 0.54483 0.0
C4160 C 0.87671 0.98733 0.86408 0.0
C4161 C 0.89467 -0.00292 0.87678 0.0
C4162 C 0.87568 0.97843 0.82856 0.0
C4163 C 0.89302 0.97923 0.8049 0.0
C4164 C 0.91095 0.98967 0.81699 0.0
C4165 C 0.91155 -0.00153 0.85267 0.0
C4166 C 0.85624 0.96757 0.81683 0.0
C4167 C 0.92982 0.99086 0.79275 0.0
C4168 C 0.90251 0.93699 0.73405 0.0
C4169 C 0.89799 0.94683 0.70038 0.0
C4170 C 0.90021 0.9471 0.76816 0.0
C4171 C 0.89312 0.96766 0.76895 0.0
C4172 C 0.88732 0.9773 0.73524 0.0
C4173 C 0.88981 0.96676 0.70131 0.0
C4174 C 0.90657 0.93611 0.8032 0.0
C4175 C 0.87967 -0.00082 0.73478 0.0
H4176 H 0.86341 0.9865 0.8821 0.0
H4177 H 0.92554 0.00581 0.86215 0.0
H4178 H 0.85109 0.97329 0.7894 0.0
H4179 H 0.85929 0.95088 0.81389 0.0
H4180 H 0.84357 0.9697 0.83711 0.0
H4181 H 0.94215 0.00043 0.80525 0.0
H4182 H 0.93595 0.97518 0.78801 0.0
H4183 H 0.9258 -0.00267 0.76525 0.0
H4184 H 0.90891 0.92161 0.73363 0.0
H4185 H 0.88663 0.97464 0.67548 0.0
H4186 H 0.89417 0.93703 0.82424 0.0
H4187 H 0.92036 0.94367 0.81509 0.0
H4188 H 0.91025 0.91967 0.79821 0.0
H4189 H 0.86749 0.00139 0.75593 0.0
H4190 H 0.87349 0.00363 0.70723 0.0
H4191 H 0.89249 0.00971 0.74187 0.0
C4192 C 0.25177 0.6522 0.1105 0.0
C4193 C 0.25618 0.63677 0.13661 0.0
C4194 C 0.2609 0.6522 0.07502 0.0
C4195 C 0.27482 0.63635 0.06503 0.0
C4196 C 0.27896 0.62049 0.09085 0.0
C4197 C 0.2697 0.62092 0.12616 0.0
C4198 C 0.25606 0.66949 0.0485 0.0
C4199 C 0.29375 0.60337 0.08164 0.0
C4200 C 0.28918 0.63096 0.96211 0.0
C4201 C 0.30737 0.64249 0.96038 0.0
C4202 C 0.27864 0.62831 0.9961 0.0
C4203 C 0.28644 0.63742 0.02905 0.0
C4204 C 0.30528 0.64827 0.02752 0.0
C4205 C 0.31546 0.65057 0.99346 0.0
C4206 C 0.25863 0.61662 0.99644 0.0
C4207 C 0.31427 0.65837 0.06158 0.0
H4208 H 0.24115 0.66438 0.11779 0.0
H4209 H 0.2736 0.60907 0.14601 0.0
H4210 H 0.27018 0.67854 0.04295 0.0
H4211 H 0.25074 0.6632 0.02158 0.0
H4212 H 0.24409 0.68003 0.05948 0.0
H4213 H 0.29405 0.59127 0.10334 0.0
H4214 H 0.28956 0.59619 0.0548 0.0
H4215 H 0.30949 0.60972 0.0786 0.0
H4216 H 0.28258 0.62504 0.93669 0.0
H4217 H 0.32947 0.65958 0.99247 0.0
H4218 H 0.24579 0.62737 1.0022 0.0
H4219 H 0.25869 0.60495 1.01885 0.0
H4220 H 0.25561 0.60881 0.9696 0.0
H4221 H 0.30376 0.67059 0.07158 0.0
H4222 H 0.32954 0.66539 0.05612 0.0
H4223 H 0.31591 0.64697 0.08424 0.0
C4224 C 0.41522 0.92774 0.13201 0.0
C4225 C 0.40645 0.93597 0.16431 0.0
C4226 C 0.41238 0.93706 0.09734 0.0
C4227 C 0.40048 0.9552 0.09468 0.0
C4228 C 0.39078 0.96311 0.12693 0.0
C4229 C 0.39383 0.95334 0.16143 0.0
C4230 C 0.42292 0.92796 0.06383 0.0
C4231 C 0.37819 0.98254 0.12537 0.0
C4232 C 0.41394 0.98919 1.01199 0.0
C4233 C 0.39861 0.98385 0.9863 0.0
C4234 C 0.41429 0.98057 0.0478 0.0
C4235 C 0.39901 0.96615 0.05829 0.0
C4236 C 0.38326 0.96106 0.03283 0.0
C4237 C 0.3832 0.97 0.99734 0.0
C4238 C 0.43142 0.98641 0.07404 0.0
C4239 C 0.36675 0.94571 0.04273 0.0
H4240 H 0.42512 0.91438 0.13411 0.0
H4241 H 0.38742 0.96004 0.18639 0.0
H4242 H 0.41148 0.92478 0.04177 0.0
H4243 H 0.43414 0.93913 0.05243 0.0
H4244 H 0.4312 0.91349 0.07041 0.0
H4245 H 0.37014 0.98566 0.15193 0.0
H4246 H 0.3884 0.99575 0.11904 0.0
H4247 H 0.36663 0.9816 0.10284 0.0
H4248 H 0.42603 -0.0003 1.0038 0.0
H4249 H 0.37103 0.96605 0.97812 0.0
H4250 H 0.44144 0.9729 0.07908 0.0
H4251 H 0.42503 0.99118 0.10122 0.0
H4252 H 0.44107 -0.0009 0.06301 0.0
H4253 H 0.37379 0.9304 0.0474 0.0
H4254 H 0.35492 0.94425 0.02067 0.0
H4255 H 0.35906 0.95027 0.06891 0.0
C4256 C 0.80637 0.66182 0.88107 0.0
C4257 C 0.79824 0.65432 0.9145 0.0
C4258 C 0.79661 0.65823 0.847 0.0
C4259 C 0.77813 0.64675 0.84595 0.0
C4260 C 0.77031 0.63827 0.87937 0.0
C4261 C 0.78048 0.64212 0.9133 0.0
C4262 C 0.80566 0.66754 0.81229 0.0
C4263 C 0.75067 0.62596 0.87953 0.0
C4264 C 0.74388 0.65859 0.76263 0.0
C4265 C 0.74901 0.64268 0.73796 0.0
C4266 C 0.75259 0.65963 0.79836 0.0
C4267 C 0.76683 0.64443 0.80993 0.0
C4268 C 0.77156 0.628 0.78564 0.0
C4269 C 0.76261 0.62731 0.75013 0.0
C4270 C 0.7471 0.67746 0.82326 0.0
C4271 C 0.78662 0.61146 0.79671 0.0
H4272 H 0.82015 0.67118 0.88167 0.0
H4273 H 0.77392 0.63653 0.939 0.0
H4274 H 0.80778 0.65554 0.79079 0.0
H4275 H 0.79494 0.67919 0.80087 0.0
H4276 H 0.82071 0.67508 0.8175 0.0
H4277 H 0.74757 0.6189 0.907 0.0
H4278 H 0.73758 0.6361 0.87221 0.0
H4279 H 0.75135 0.61362 0.85835 0.0
H4280 H 0.73354 0.67064 0.75361 0.0
H4281 H 0.7664 0.61471 0.73173 0.0
H4282 H 0.76081 0.68732 0.82753 0.0
H4283 H 0.74223 0.67179 0.85089 0.0
H4284 H 0.73458 0.68707 0.81152 0.0
H4285 H 0.80215 0.61825 0.80001 0.0
H4286 H 0.78751 0.59891 0.77589 0.0
H4287 H 0.78222 0.60476 0.82384 0.0
C4288 C 0.1187 0.01711 0.48634 0.0
C4289 C 0.10261 0.00382 0.47612 0.0
C4290 C 0.11947 0.02622 0.52174 0.0
C4291 C 0.10373 0.02212 0.54783 0.0
C4292 C 0.08771 0.00835 0.53808 0.0
C4293 C 0.08735 -0.00061 0.50251 0.0
C4294 C 0.13676 0.04086 0.53072 0.0
C4295 C 0.07056 0.00354 0.5649 0.0
C4296 C 0.10893 0.03623 0.65075 0.0
C4297 C 0.09718 0.05425 0.65251 0.0
C4298 C 0.11187 0.02588 0.61666 0.0
C4299 C 0.10282 0.03376 0.58372 0.0
C4300 C 0.0919 0.05254 0.58528 0.0
C4301 C 0.08931 0.0625 0.61943 0.0
C4302 C 0.12369 0.00596 0.61622 0.0
C4303 C 0.08194 0.06163 0.55118 0.0
H4304 H 0.13045 0.02095 0.46623 0.0
H4305 H 0.07502 0.98893 0.49533 0.0
H4306 H 0.13057 0.05667 0.53355 0.0
H4307 H 0.14393 0.03672 0.55759 0.0
H4308 H 0.14883 0.04094 0.50895 0.0
H4309 H 0.06006 0.99145 0.55424 0.0
H4310 H 0.07698 -0.00159 0.59183 0.0
H4311 H 0.06143 0.01763 0.57029 0.0
H4312 H 0.11477 0.02958 0.6762 0.0
H4313 H 0.08019 0.07645 0.62051 0.0
H4314 H 0.13533 0.00611 0.59375 0.0
H4315 H 0.11301 0.99306 0.61048 0.0
H4316 H 0.13155 0.00298 0.64301 0.0
H4317 H 0.09339 0.06324 0.5286 0.0
H4318 H 0.07499 0.07693 0.55666 0.0
H4319 H 0.06967 0.0512 0.54106 0.0
C4320 C 0.67927 0.34363 0.36536 0.0
C4321 C 0.68739 0.35185 0.39826 0.0
C4322 C 0.68863 0.34711 0.33085 0.0
C4323 C 0.7068 0.35904 0.32883 0.0
C4324 C 0.71471 0.36804 0.36177 0.0
C4325 C 0.70486 0.36442 0.3961 0.0
C4326 C 0.67944 0.3373 0.29669 0.0
C4327 C 0.73415 0.38066 0.36102 0.0
C4328 C 0.74079 0.34798 0.24457 0.0
C4329 C 0.73549 0.36402 0.22025 0.0
C4330 C 0.73215 0.34658 0.28036 0.0
C4331 C 0.71767 0.36147 0.29233 0.0
C4332 C 0.71256 0.37789 0.26828 0.0
C4333 C 0.72157 0.37903 0.23284 0.0
C4334 C 0.73815 0.32882 0.30505 0.0
C4335 C 0.69713 0.39403 0.27965 0.0
H4336 H 0.66582 0.33381 0.36676 0.0
H4337 H 0.71149 0.37046 0.42141 0.0
H4338 H 0.67701 0.34903 0.27483 0.0
H4339 H 0.69022 0.32567 0.2854 0.0
H4340 H 0.66454 0.32962 0.30254 0.0
H4341 H 0.73749 0.38785 0.38828 0.0
H4342 H 0.7473 0.3707 0.35325 0.0
H4343 H 0.73301 0.39292 0.33977 0.0
H4344 H 0.75133 0.33616 0.23533 0.0
H4345 H 0.71762 0.39177 0.21489 0.0
H4346 H 0.72467 0.31868 0.30957 0.0
H4347 H 0.74308 0.33455 0.33261 0.0
H4348 H 0.75078 0.31948 0.293 0.0
H4349 H 0.6819 0.38675 0.28404 0.0
H4350 H 0.69547 0.40634 0.25854 0.0
H4351 H 0.70176 0.40113 0.30632 0.0
loop_
_geom_bond_atom_site_label_1
_geom_bond_atom_site_label_2
_geom_bond_distance
_geom_bond_site_symmetry_2
_ccdc_geom_bond_type
Nd0 C2 2.836 . S
Nd0 O20 2.500 . S
Nd0 O21 2.492 . S
Nd0 O22 2.487 . S
Nd0 O23 2.682 . S
Nd0 O24 2.410 . S
Nd0 O29 2.414 . S
Nd0 O31 2.424 . S
Nd1 C11 2.836 . S
Nd1 O23 2.414 . S
Nd1 O25 2.424 . S
Nd1 O26 2.500 . S
Nd1 O27 2.492 . S
Nd1 O28 2.487 . S
Nd1 O29 2.682 . S
Nd1 O30 2.410 . S
C2 Nd0 2.836 . S
C2 C3 1.498 1_554 S
C2 O20 1.258 . S
C2 O21 1.239 . S
C3 C2 1.498 1_556 S
C3 C4 1.366 . S
C3 C8 1.407 . S
C4 C3 1.366 . S
C4 C5 1.392 . S
C4 H32 0.930 . S
C5 C4 1.392 . S
C5 C6 1.398 . S
C5 H33 0.929 . S
C6 C5 1.398 . S
C6 C7 1.352 . S
C7 C6 1.352 . S
C7 C8 1.384 . S
C7 H34 0.930 . S
C8 C3 1.407 . S
C8 C7 1.384 . S
C8 H35 0.929 . S
C9 O22 1.241 . S
C9 O23 1.273 . S
C10 O24 1.251 . S
C10 O25 1.268 . S
C11 Nd1 2.836 . S
C11 C12 1.498 . S
C11 O26 1.258 . S
C11 O27 1.239 . S
C12 C11 1.498 . S
C12 C13 1.366 . S
C12 C17 1.395 1_455 S
C13 C12 1.366 . S
C13 C14 1.392 . S
C13 H36 0.930 . S
C14 C13 1.392 . S
C14 C15 1.398 . S
C14 H37 0.929 . S
C15 C14 1.398 . S
C15 C16 1.352 1_455 S
C16 C15 1.352 1_655 S
C16 C17 1.387 . S
C16 H38 0.930 . S
C17 C12 1.395 1_655 S
C17 C16 1.387 . S
C17 H39 0.939 . S
C18 O28 1.241 . S
C18 O29 1.273 . S
C19 O30 1.251 . S
C19 O31 1.268 . S
O20 Nd0 2.500 . S
O20 C2 1.258 . S
O21 Nd0 2.492 . S
O21 C2 1.239 . S
O22 Nd0 2.487 . S
O22 C9 1.241 . S
O23 Nd0 2.682 . S
O23 Nd1 2.414 . S
O23 C9 1.273 . S
O24 Nd0 2.410 . S
O24 C10 1.251 . S
O25 Nd1 2.424 . S
O25 C10 1.268 . S
O26 Nd1 2.500 . S
O26 C11 1.258 . S
O27 Nd1 2.492 . S
O27 C11 1.239 . S
O28 Nd1 2.487 . S
O28 C18 1.241 . S
O29 Nd0 2.414 . S
O29 Nd1 2.682 . S
O29 C18 1.273 . S
O30 Nd1 2.410 . S
O30 C19 1.251 . S
O31 Nd0 2.424 . S
O31 C19 1.268 . S
H32 C4 0.930 . S
H33 C5 0.929 . S
H34 C7 0.930 . S
H35 C8 0.929 . S
H36 C13 0.930 . S
H37 C14 0.929 . S
H38 C16 0.930 . S
H39 C17 0.939 . S
Nd40 C42 2.836 . S
Nd40 O60 2.500 . S
Nd40 O61 2.492 . S
Nd40 O62 2.487 . S
Nd40 O63 2.682 . S
Nd40 O64 2.410 . S
Nd40 O69 2.414 . S
Nd40 O71 2.424 . S
Nd41 C51 2.836 . S
Nd41 O63 2.414 . S
Nd41 O65 2.424 . S
Nd41 O66 2.500 . S
Nd41 O67 2.492 . S
Nd41 O68 2.487 . S
Nd41 O69 2.682 . S
Nd41 O70 2.410 . S
C42 Nd40 2.836 . S
C42 C43 1.498 . S
C42 O60 1.258 . S
C42 O61 1.239 . S
C43 C42 1.498 . S
C43 C44 1.366 . S
C43 C48 1.407 . S
C44 C43 1.366 . S
C44 C45 1.392 . S
C44 H72 0.930 . S
C45 C44 1.392 . S
C45 C46 1.398 . S
C45 H73 0.929 . S
C46 C45 1.398 . S
C46 C47 1.352 . S
C47 C46 1.352 . S
C47 C48 1.384 . S
C47 H74 0.930 . S
C48 C43 1.407 . S
C48 C47 1.384 . S
C48 H75 0.929 . S
C49 O62 1.241 . S
C49 O63 1.273 . S
C50 O64 1.251 . S
C50 O65 1.268 . S
C51 Nd41 2.836 . S
C51 C52 1.498 . S
C51 O66 1.258 . S
C51 O67 1.239 . S
C52 C51 1.498 . S
C52 C53 1.366 . S
C52 C57 1.407 . S
C53 C52 1.366 . S
C53 C54 1.392 . S
C53 H76 0.930 . S
C54 C53 1.392 . S
C54 C55 1.398 . S
C54 H77 0.929 . S
C55 C54 1.398 . S
C55 C56 1.352 . S
C56 C55 1.352 . S
C56 C57 1.384 . S
C56 H78 0.930 . S
C57 C52 1.407 . S
C57 C56 1.384 . S
C57 H79 0.929 . S
C58 O68 1.241 . S
C58 O69 1.273 . S
C59 O70 1.251 . S
C59 O71 1.268 . S
O60 Nd40 2.500 . S
O60 C42 1.258 . S
O61 Nd40 2.492 . S
O61 C42 1.239 . S
O62 Nd40 2.487 . S
O62 C49 1.241 . S
O63 Nd40 2.682 . S
O63 Nd41 2.414 . S
O63 C49 1.273 . S
O64 Nd40 2.410 . S
O64 C50 1.251 . S
O65 Nd41 2.424 . S
O65 C50 1.268 . S
O66 Nd41 2.500 . S
O66 C51 1.258 . S
O67 Nd41 2.492 . S
O67 C51 1.239 . S
O68 Nd41 2.487 . S
O68 C58 1.241 . S
O69 Nd40 2.414 . S
O69 Nd41 2.682 . S
O69 C58 1.273 . S
O70 Nd41 2.410 . S
O70 C59 1.251 . S
O71 Nd40 2.424 . S
O71 C59 1.268 . S
H72 C44 0.930 . S
H73 C45 0.929 . S
H74 C47 0.930 . S
H75 C48 0.929 . S
H76 C53 0.930 . S
H77 C54 0.929 . S
H78 C56 0.930 . S
H79 C57 0.929 . S
Nd80 C82 2.836 . S
Nd80 O100 2.500 . S
Nd80 O101 2.492 . S
Nd80 O102 2.487 . S
Nd80 O103 2.682 . S
Nd80 O104 2.410 . S
Nd80 O109 2.414 . S
Nd80 O111 2.424 . S
Nd81 C91 2.836 . S
Nd81 O103 2.414 . S
Nd81 O105 2.424 . S
Nd81 O106 2.500 . S
Nd81 O107 2.492 . S
Nd81 O108 2.487 . S
Nd81 O109 2.682 . S
Nd81 O110 2.410 . S
C82 Nd80 2.836 . S
C82 C83 1.498 . S
C82 O100 1.258 . S
C82 O101 1.239 . S
C83 C82 1.498 . S
C83 C84 1.366 . S
C83 C88 1.407 . S
C84 C83 1.366 . S
C84 C85 1.392 . S
C84 H112 0.930 . S
C85 C84 1.392 . S
C85 C86 1.398 . S
C85 H113 0.929 . S
C86 C85 1.398 . S
C86 C87 1.352 . S
C87 C86 1.352 . S
C87 C88 1.384 . S
C87 H114 0.930 . S
C88 C83 1.407 . S
C88 C87 1.384 . S
C88 H115 0.929 . S
C89 O102 1.241 . S
C89 O103 1.273 . S
C90 O104 1.251 . S
C90 O105 1.268 . S
C91 Nd81 2.836 . S
C91 C92 1.498 . S
C91 O106 1.258 . S
C91 O107 1.239 . S
C92 C91 1.498 . S
C92 C93 1.366 . S
C92 C97 1.407 . S
C93 C92 1.366 . S
C93 C94 1.392 . S
C93 H116 0.930 . S
C94 C93 1.392 . S
C94 C95 1.398 . S
C94 H117 0.929 . S
C95 C94 1.398 . S
C95 C96 1.352 . S
C96 C95 1.352 . S
C96 C97 1.384 . S
C96 H118 0.930 . S
C97 C92 1.407 . S
C97 C96 1.384 . S
C97 H119 0.929 . S
C98 O108 1.241 . S
C98 O109 1.273 . S
C99 O110 1.251 . S
C99 O111 1.268 . S
O100 Nd80 2.500 . S
O100 C82 1.258 . S
O101 Nd80 2.492 . S
O101 C82 1.239 . S
O102 Nd80 2.487 . S
O102 C89 1.241 . S
O103 Nd80 2.682 . S
O103 Nd81 2.414 . S
O103 C89 1.273 . S
O104 Nd80 2.410 . S
O104 C90 1.251 . S
O105 Nd81 2.424 . S
O105 C90 1.268 . S
O106 Nd81 2.500 . S
O106 C91 1.258 . S
O107 Nd81 2.492 . S
O107 C91 1.239 . S
O108 Nd81 2.487 . S
O108 C98 1.241 . S
O109 Nd80 2.414 . S
O109 Nd81 2.682 . S
O109 C98 1.273 . S
O110 Nd81 2.410 . S
O110 C99 1.251 . S
O111 Nd80 2.424 . S
O111 C99 1.268 . S
H112 C84 0.930 . S
H113 C85 0.929 . S
H114 C87 0.930 . S
H115 C88 0.929 . S
H116 C93 0.930 . S
H117 C94 0.929 . S
H118 C96 0.930 . S
H119 C97 0.929 . S
Nd120 C122 2.836 . S
Nd120 O140 2.500 . S
Nd120 O141 2.492 . S
Nd120 O142 2.487 . S
Nd120 O143 2.682 . S
Nd120 O144 2.410 . S
Nd120 O149 2.414 . S
Nd120 O151 2.424 . S
Nd121 C131 2.836 . S
Nd121 O143 2.414 . S
Nd121 O145 2.424 . S
Nd121 O146 2.500 . S
Nd121 O147 2.492 . S
Nd121 O148 2.487 . S
Nd121 O149 2.682 . S
Nd121 O150 2.410 . S
C122 Nd120 2.836 . S
C122 C123 1.498 . S
C122 O140 1.258 . S
C122 O141 1.239 . S
C123 C122 1.498 . S
C123 C124 1.366 . S
C123 C128 1.407 . S
C124 C123 1.366 . S
C124 C125 1.392 . S
C124 H152 0.930 . S
C125 C124 1.392 . S
C125 C126 1.398 . S
C125 H153 0.929 . S
C126 C125 1.398 . S
C126 C127 1.352 . S
C127 C126 1.352 . S
C127 C128 1.384 . S
C127 H154 0.930 . S
C128 C123 1.407 . S
C128 C127 1.384 . S
C128 H155 0.929 . S
C129 O142 1.241 . S
C129 O143 1.273 . S
C130 O144 1.251 . S
C130 O145 1.268 . S
C131 Nd121 2.836 . S
C131 C132 1.498 1_556 S
C131 O146 1.258 . S
C131 O147 1.239 . S
C132 C131 1.498 1_554 S
C132 C133 1.366 . S
C132 C137 1.407 . S
C133 C132 1.366 . S
C133 C134 1.392 . S
C133 H156 0.930 . S
C134 C133 1.392 . S
C134 C135 1.398 . S
C134 H157 0.929 . S
C135 C134 1.398 . S
C135 C136 1.352 . S
C136 C135 1.352 . S
C136 C137 1.384 . S
C136 H158 0.930 . S
C137 C132 1.407 . S
C137 C136 1.384 . S
C137 H159 0.929 . S
C138 O148 1.241 . S
C138 O149 1.273 . S
C139 O150 1.251 . S
C139 O151 1.268 . S
O140 Nd120 2.500 . S
O140 C122 1.258 . S
O141 Nd120 2.492 . S
O141 C122 1.239 . S
O142 Nd120 2.487 . S
O142 C129 1.241 . S
O143 Nd120 2.682 . S
O143 Nd121 2.414 . S
O143 C129 1.273 . S
O144 Nd120 2.410 . S
O144 C130 1.251 . S
O145 Nd121 2.424 . S
O145 C130 1.268 . S
O146 Nd121 2.500 . S
O146 C131 1.258 . S
O147 Nd121 2.492 . S
O147 C131 1.239 . S
O148 Nd121 2.487 . S
O148 C138 1.241 . S
O149 Nd120 2.414 . S
O149 Nd121 2.682 . S
O149 C138 1.273 . S
O150 Nd121 2.410 . S
O150 C139 1.251 . S
O151 Nd120 2.424 . S
O151 C139 1.268 . S
H152 C124 0.930 . S
H153 C125 0.929 . S
H154 C127 0.930 . S
H155 C128 0.929 . S
H156 C133 0.930 . S
H157 C134 0.929 . S
H158 C136 0.930 . S
H159 C137 0.929 . S
Nd160 C162 2.836 . S
Nd160 O180 2.500 . S
Nd160 O181 2.492 . S
Nd160 O182 2.487 . S
Nd160 O183 2.682 . S
Nd160 O184 2.410 . S
Nd160 O189 2.414 . S
Nd160 O191 2.424 . S
Nd161 C171 2.836 . S
Nd161 O183 2.414 . S
Nd161 O185 2.424 . S
Nd161 O186 2.500 . S
Nd161 O187 2.492 . S
Nd161 O188 2.487 . S
Nd161 O189 2.682 . S
Nd161 O190 2.410 . S
C162 Nd160 2.836 . S
C162 C163 1.498 . S
C162 O180 1.258 . S
C162 O181 1.239 . S
C163 C162 1.498 . S
C163 C164 1.366 . S
C163 C168 1.407 . S
C164 C163 1.366 . S
C164 C165 1.392 . S
C164 H192 0.930 . S
C165 C164 1.392 . S
C165 C166 1.398 . S
C165 H193 0.929 . S
C166 C165 1.398 . S
C166 C167 1.352 . S
C167 C166 1.352 . S
C167 C168 1.384 . S
C167 H194 0.930 . S
C168 C163 1.407 . S
C168 C167 1.384 . S
C168 H195 0.929 . S
C169 O182 1.241 . S
C169 O183 1.273 . S
C170 O184 1.251 . S
C170 O185 1.268 . S
C171 Nd161 2.836 . S
C171 C172 1.498 . S
C171 O186 1.258 . S
C171 O187 1.239 . S
C172 C171 1.498 . S
C172 C173 1.366 . S
C172 C177 1.407 . S
C173 C172 1.366 . S
C173 C174 1.392 . S
C173 H196 0.930 . S
C174 C173 1.392 . S
C174 C175 1.398 . S
C174 H197 0.929 . S
C175 C174 1.398 . S
C175 C176 1.352 . S
C176 C175 1.352 . S
C176 C177 1.384 . S
C176 H198 0.930 . S
C177 C172 1.407 . S
C177 C176 1.384 . S
C177 H199 0.929 . S
C178 O188 1.241 . S
C178 O189 1.273 . S
C179 O190 1.251 . S
C179 O191 1.268 . S
O180 Nd160 2.500 . S
O180 C162 1.258 . S
O181 Nd160 2.492 . S
O181 C162 1.239 . S
O182 Nd160 2.487 . S
O182 C169 1.241 . S
O183 Nd160 2.682 . S
O183 Nd161 2.414 . S
O183 C169 1.273 . S
O184 Nd160 2.410 . S
O184 C170 1.251 . S
O185 Nd161 2.424 . S
O185 C170 1.268 . S
O186 Nd161 2.500 . S
O186 C171 1.258 . S
O187 Nd161 2.492 . S
O187 C171 1.239 . S
O188 Nd161 2.487 . S
O188 C178 1.241 . S
O189 Nd160 2.414 . S
O189 Nd161 2.682 . S
O189 C178 1.273 . S
O190 Nd161 2.410 . S
O190 C179 1.251 . S
O191 Nd160 2.424 . S
O191 C179 1.268 . S
H192 C164 0.930 . S
H193 C165 0.929 . S
H194 C167 0.930 . S
H195 C168 0.929 . S
H196 C173 0.930 . S
H197 C174 0.929 . S
H198 C176 0.930 . S
H199 C177 0.929 . S
Nd200 C202 2.836 . S
Nd200 O220 2.500 . S
Nd200 O221 2.492 . S
Nd200 O222 2.487 . S
Nd200 O223 2.682 . S
Nd200 O224 2.410 . S
Nd200 O229 2.414 . S
Nd200 O231 2.424 . S
Nd201 C211 2.836 . S
Nd201 O223 2.414 . S
Nd201 O225 2.424 . S
Nd201 O226 2.500 . S
Nd201 O227 2.492 . S
Nd201 O228 2.487 . S
Nd201 O229 2.682 . S
Nd201 O230 2.410 . S
C202 Nd200 2.836 . S
C202 C203 1.498 . S
C202 O220 1.258 . S
C202 O221 1.239 . S
C203 C202 1.498 . S
C203 C204 1.366 . S
C203 C208 1.407 . S
C204 C203 1.366 . S
C204 C205 1.392 . S
C204 H232 0.930 . S
C205 C204 1.392 . S
C205 C206 1.398 . S
C205 H233 0.929 . S
C206 C205 1.398 . S
C206 C207 1.352 . S
C207 C206 1.352 . S
C207 C208 1.384 . S
C207 H234 0.930 . S
C208 C203 1.407 . S
C208 C207 1.384 . S
C208 H235 0.929 . S
C209 O222 1.241 . S
C209 O223 1.273 . S
C210 O224 1.251 . S
C210 O225 1.268 . S
C211 Nd201 2.836 . S
C211 C212 1.498 . S
C211 O226 1.258 . S
C211 O227 1.239 . S
C212 C211 1.498 . S
C212 C213 1.366 . S
C212 C217 1.407 . S
C213 C212 1.366 . S
C213 C214 1.392 1_556 S
C213 H236 0.930 . S
C214 C213 1.392 1_554 S
C214 C215 1.398 . S
C214 H237 0.929 . S
C215 C214 1.398 . S
C215 C216 1.352 . S
C216 C215 1.352 . S
C216 C217 1.384 1_554 S
C216 H238 0.930 . S
C217 C212 1.407 . S
C217 C216 1.384 1_556 S
C217 H239 0.929 . S
C218 O228 1.241 . S
C218 O229 1.273 . S
C219 O230 1.251 . S
C219 O231 1.268 . S
O220 Nd200 2.500 . S
O220 C202 1.258 . S
O221 Nd200 2.492 . S
O221 C202 1.239 . S
O222 Nd200 2.487 . S
O222 C209 1.241 . S
O223 Nd200 2.682 . S
O223 Nd201 2.414 . S
O223 C209 1.273 . S
O224 Nd200 2.410 . S
O224 C210 1.251 . S
O225 Nd201 2.424 . S
O225 C210 1.268 . S
O226 Nd201 2.500 . S
O226 C211 1.258 . S
O227 Nd201 2.492 . S
O227 C211 1.239 . S
O228 Nd201 2.487 . S
O228 C218 1.241 . S
O229 Nd200 2.414 . S
O229 Nd201 2.682 . S
O229 C218 1.273 . S
O230 Nd201 2.410 . S
O230 C219 1.251 . S
O231 Nd200 2.424 . S
O231 C219 1.268 . S
H232 C204 0.930 . S
H233 C205 0.929 . S
H234 C207 0.930 . S
H235 C208 0.929 . S
H236 C213 0.930 . S
H237 C214 0.929 . S
H238 C216 0.930 . S
H239 C217 0.929 . S
Nd240 C242 2.836 1_554 S
Nd240 O260 2.500 1_554 S
Nd240 O261 2.503 . S
Nd240 O262 2.487 . S
Nd240 O263 2.682 . S
Nd240 O264 2.410 . S
Nd240 O269 2.414 . S
Nd240 O271 2.424 . S
Nd241 C251 2.836 . S
Nd241 O263 2.414 . S
Nd241 O265 2.424 . S
Nd241 O266 2.500 . S
Nd241 O267 2.492 . S
Nd241 O268 2.487 . S
Nd241 O269 2.682 . S
Nd241 O270 2.410 . S
C242 Nd240 2.836 1_556 S
C242 C243 1.498 . S
C242 O260 1.258 . S
C242 O261 1.229 1_556 S
C243 C242 1.498 . S
C243 C244 1.366 . S
C243 C248 1.407 . S
C244 C243 1.366 . S
C244 C245 1.392 . S
C244 H272 0.930 . S
C245 C244 1.392 . S
C245 C246 1.398 . S
C245 H273 0.929 . S
C246 C245 1.398 . S
C246 C247 1.352 . S
C247 C246 1.352 . S
C247 C248 1.384 . S
C247 H274 0.930 . S
C248 C243 1.407 . S
C248 C247 1.384 . S
C248 H275 0.929 . S
C249 O262 1.241 . S
C249 O263 1.273 . S
C250 O264 1.251 . S
C250 O265 1.268 . S
C251 Nd241 2.836 . S
C251 C252 1.498 . S
C251 O266 1.258 . S
C251 O267 1.239 . S
C252 C251 1.498 . S
C252 C253 1.366 . S
C252 C257 1.407 . S
C253 C252 1.366 . S
C253 C254 1.392 . S
C253 H276 0.930 . S
C254 C253 1.392 . S
C254 C255 1.398 . S
C254 H277 0.929 . S
C255 C254 1.398 . S
C255 C256 1.352 . S
C256 C255 1.352 . S
C256 C257 1.384 . S
C256 H278 0.930 . S
C257 C252 1.407 . S
C257 C256 1.384 . S
C257 H279 0.929 . S
C258 O268 1.241 . S
C258 O269 1.273 . S
C259 O270 1.251 . S
C259 O271 1.268 . S
O260 Nd240 2.500 1_556 S
O260 C242 1.258 . S
O261 Nd240 2.503 . S
O261 C242 1.229 1_554 S
O262 Nd240 2.487 . S
O262 C249 1.241 . S
O263 Nd240 2.682 . S
O263 Nd241 2.414 . S
O263 C249 1.273 . S
O264 Nd240 2.410 . S
O264 C250 1.251 . S
O265 Nd241 2.424 . S
O265 C250 1.268 . S
O266 Nd241 2.500 . S
O266 C251 1.258 . S
O267 Nd241 2.492 . S
O267 C251 1.239 . S
O268 Nd241 2.487 . S
O268 C258 1.241 . S
O269 Nd240 2.414 . S
O269 Nd241 2.682 . S
O269 C258 1.273 . S
O270 Nd241 2.410 . S
O270 C259 1.251 . S
O271 Nd240 2.424 . S
O271 C259 1.268 . S
H272 C244 0.930 . S
H273 C245 0.929 . S
H274 C247 0.930 . S
H275 C248 0.929 . S
H276 C253 0.930 . S
H277 C254 0.929 . S
H278 C256 0.930 . S
H279 C257 0.929 . S
Nd280 C282 2.836 . S
Nd280 O300 2.500 . S
Nd280 O301 2.492 . S
Nd280 O302 2.487 . S
Nd280 O303 2.682 . S
Nd280 O304 2.410 . S
Nd280 O309 2.414 . S
Nd280 O311 2.424 . S
Nd281 C291 2.836 . S
Nd281 O303 2.414 . S
Nd281 O305 2.424 . S
Nd281 O306 2.500 . S
Nd281 O307 2.492 . S
Nd281 O308 2.487 . S
Nd281 O309 2.682 . S
Nd281 O310 2.410 . S
C282 Nd280 2.836 . S
C282 C283 1.498 . S
C282 O300 1.258 . S
C282 O301 1.239 . S
C283 C282 1.498 . S
C283 C284 1.366 . S
C283 C288 1.407 . S
C284 C283 1.366 . S
C284 C285 1.392 . S
C284 H312 0.930 . S
C285 C284 1.392 . S
C285 C286 1.398 . S
C285 H313 0.929 . S
C286 C285 1.398 . S
C286 C287 1.352 . S
C287 C286 1.352 . S
C287 C288 1.384 . S
C287 H314 0.930 . S
C288 C283 1.407 . S
C288 C287 1.384 . S
C288 H315 0.929 . S
C289 O302 1.241 . S
C289 O303 1.273 . S
C290 O304 1.251 . S
C290 O305 1.268 . S
C291 Nd281 2.836 . S
C291 C292 1.498 . S
C291 O306 1.258 . S
C291 O307 1.239 . S
C292 C291 1.498 . S
C292 C293 1.366 . S
C292 C297 1.407 . S
C293 C292 1.366 . S
C293 C294 1.392 . S
C293 H316 0.930 . S
C294 C293 1.392 . S
C294 C295 1.398 . S
C294 H317 0.929 . S
C295 C294 1.398 . S
C295 C296 1.352 . S
C296 C295 1.352 . S
C296 C297 1.384 . S
C296 H318 0.930 . S
C297 C292 1.407 . S
C297 C296 1.384 . S
C297 H319 0.929 . S
C298 O308 1.241 . S
C298 O309 1.273 . S
C299 O310 1.251 . S
C299 O311 1.268 . S
O300 Nd280 2.500 . S
O300 C282 1.258 . S
O301 Nd280 2.492 . S
O301 C282 1.239 . S
O302 Nd280 2.487 . S
O302 C289 1.241 . S
O303 Nd280 2.682 . S
O303 Nd281 2.414 . S
O303 C289 1.273 . S
O304 Nd280 2.410 . S
O304 C290 1.251 . S
O305 Nd281 2.424 . S
O305 C290 1.268 . S
O306 Nd281 2.500 . S
O306 C291 1.258 . S
O307 Nd281 2.492 . S
O307 C291 1.239 . S
O308 Nd281 2.487 . S
O308 C298 1.241 . S
O309 Nd280 2.414 . S
O309 Nd281 2.682 . S
O309 C298 1.273 . S
O310 Nd281 2.410 . S
O310 C299 1.251 . S
O311 Nd280 2.424 . S
O311 C299 1.268 . S
H312 C284 0.930 . S
H313 C285 0.929 . S
H314 C287 0.930 . S
H315 C288 0.929 . S
H316 C293 0.930 . S
H317 C294 0.929 . S
H318 C296 0.930 . S
H319 C297 0.929 . S
Nd320 C322 2.836 . S
Nd320 O340 2.500 . S
Nd320 O341 2.492 . S
Nd320 O342 2.487 . S
Nd320 O343 2.682 . S
Nd320 O344 2.410 . S
Nd320 O349 2.414 . S
Nd320 O351 2.424 . S
Nd321 C331 2.836 . S
Nd321 O343 2.414 . S
Nd321 O345 2.424 . S
Nd321 O346 2.500 . S
Nd321 O347 2.492 . S
Nd321 O348 2.487 . S
Nd321 O349 2.682 . S
Nd321 O350 2.410 . S
C322 Nd320 2.836 . S
C322 C323 1.498 . S
C322 O340 1.258 . S
C322 O341 1.239 . S
C323 C322 1.498 . S
C323 C324 1.366 . S
C323 C328 1.394 1_655 S
C324 C323 1.366 . S
C324 C325 1.392 . S
C324 H352 0.930 . S
C325 C324 1.392 . S
C325 C326 1.398 1_554 S
C325 H353 0.929 1_554 S
C326 C325 1.398 1_556 S
C326 C327 1.352 1_656 S
C327 C326 1.352 1_454 S
C327 C328 1.387 . S
C327 H354 0.930 . S
C328 C323 1.394 1_455 S
C328 C327 1.387 . S
C328 H355 0.939 . S
C329 O342 1.241 . S
C329 O343 1.273 . S
C330 O344 1.251 . S
C330 O345 1.268 . S
C331 Nd321 2.836 . S
C331 C332 1.498 . S
C331 O346 1.258 . S
C331 O347 1.239 . S
C332 C331 1.498 . S
C332 C333 1.366 . S
C332 C337 1.407 . S
C333 C332 1.366 . S
C333 C334 1.392 . S
C333 H356 0.930 . S
C334 C333 1.392 . S
C334 C335 1.398 . S
C334 H357 0.929 . S
C335 C334 1.398 . S
C335 C336 1.352 . S
C336 C335 1.352 . S
C336 C337 1.384 . S
C336 H358 0.930 . S
C337 C332 1.407 . S
C337 C336 1.384 . S
C337 H359 0.929 . S
C338 O348 1.241 . S
C338 O349 1.273 . S
C339 O350 1.251 . S
C339 O351 1.268 . S
O340 Nd320 2.500 . S
O340 C322 1.258 . S
O341 Nd320 2.492 . S
O341 C322 1.239 . S
O342 Nd320 2.487 . S
O342 C329 1.241 . S
O343 Nd320 2.682 . S
O343 Nd321 2.414 . S
O343 C329 1.273 . S
O344 Nd320 2.410 . S
O344 C330 1.251 . S
O345 Nd321 2.424 . S
O345 C330 1.268 . S
O346 Nd321 2.500 . S
O346 C331 1.258 . S
O347 Nd321 2.492 . S
O347 C331 1.239 . S
O348 Nd321 2.487 . S
O348 C338 1.241 . S
O349 Nd320 2.414 . S
O349 Nd321 2.682 . S
O349 C338 1.273 . S
O350 Nd321 2.410 . S
O350 C339 1.251 . S
O351 Nd320 2.424 . S
O351 C339 1.268 . S
H352 C324 0.930 . S
H353 C325 0.929 1_556 S
H354 C327 0.930 . S
H355 C328 0.939 . S
H356 C333 0.930 . S
H357 C334 0.929 . S
H358 C336 0.930 . S
H359 C337 0.929 . S
Nd360 C362 2.836 . S
Nd360 O380 2.500 . S
Nd360 O381 2.492 . S
Nd360 O382 2.487 . S
Nd360 O383 2.682 . S
Nd360 O384 2.410 . S
Nd360 O389 2.414 . S
Nd360 O391 2.424 . S
Nd361 C371 2.836 1_556 S
Nd361 O383 2.414 . S
Nd361 O385 2.424 . S
Nd361 O386 2.500 1_556 S
Nd361 O387 2.492 1_556 S
Nd361 O388 2.487 . S
Nd361 O389 2.682 . S
Nd361 O390 2.410 1_556 S
C362 Nd360 2.836 . S
C362 C363 1.498 . S
C362 O380 1.258 . S
C362 O381 1.239 . S
C363 C362 1.498 . S
C363 C364 1.366 . S
C363 C368 1.407 . S
C364 C363 1.366 . S
C364 C365 1.392 . S
C364 H392 0.930 . S
C365 C364 1.392 . S
C365 C366 1.398 . S
C365 H393 0.929 . S
C366 C365 1.398 . S
C366 C367 1.352 . S
C367 C366 1.352 . S
C367 C368 1.384 . S
C367 H394 0.930 . S
C368 C363 1.407 . S
C368 C367 1.384 . S
C368 H395 0.929 . S
C369 O382 1.241 . S
C369 O383 1.273 . S
C370 O384 1.251 . S
C370 O385 1.268 . S
C371 Nd361 2.836 1_554 S
C371 C372 1.498 . S
C371 O386 1.258 . S
C371 O387 1.239 . S
C372 C371 1.498 . S
C372 C373 1.366 . S
C372 C377 1.407 . S
C373 C372 1.366 . S
C373 C374 1.392 . S
C373 H396 0.930 . S
C374 C373 1.392 . S
C374 C375 1.398 . S
C374 H397 0.929 . S
C375 C374 1.398 . S
C375 C376 1.352 . S
C376 C375 1.352 . S
C376 C377 1.384 . S
C376 H398 0.930 . S
C377 C372 1.407 . S
C377 C376 1.384 . S
C377 H399 0.929 . S
C378 O388 1.241 . S
C378 O389 1.273 . S
C379 O390 1.251 . S
C379 O391 1.268 1_554 S
O380 Nd360 2.500 . S
O380 C362 1.258 . S
O381 Nd360 2.492 . S
O381 C362 1.239 . S
O382 Nd360 2.487 . S
O382 C369 1.241 . S
O383 Nd360 2.682 . S
O383 Nd361 2.414 . S
O383 C369 1.273 . S
O384 Nd360 2.410 . S
O384 C370 1.251 . S
O385 Nd361 2.424 . S
O385 C370 1.268 . S
O386 Nd361 2.500 1_554 S
O386 C371 1.258 . S
O387 Nd361 2.492 1_554 S
O387 C371 1.239 . S
O388 Nd361 2.487 . S
O388 C378 1.241 . S
O389 Nd360 2.414 . S
O389 Nd361 2.682 . S
O389 C378 1.273 . S
O390 Nd361 2.410 1_554 S
O390 C379 1.251 . S
O391 Nd360 2.424 . S
O391 C379 1.268 1_556 S
H392 C364 0.930 . S
H393 C365 0.929 . S
H394 C367 0.930 . S
H395 C368 0.929 . S
H396 C373 0.930 . S
H397 C374 0.929 . S
H398 C376 0.930 . S
H399 C377 0.929 . S
Nd400 C402 2.836 . S
Nd400 O420 2.500 . S
Nd400 O421 2.492 . S
Nd400 O422 2.487 . S
Nd400 O423 2.682 . S
Nd400 O424 2.410 . S
Nd400 O429 2.414 . S
Nd400 O431 2.424 . S
Nd401 C411 2.836 . S
Nd401 O423 2.414 . S
Nd401 O425 2.424 . S
Nd401 O426 2.500 . S
Nd401 O427 2.492 . S
Nd401 O428 2.487 . S
Nd401 O429 2.682 . S
Nd401 O430 2.410 . S
C402 Nd400 2.836 . S
C402 C403 1.498 . S
C402 O420 1.258 . S
C402 O421 1.239 . S
C403 C402 1.498 . S
C403 C404 1.366 . S
C403 C408 1.407 . S
C404 C403 1.366 . S
C404 C405 1.392 . S
C404 H432 0.930 . S
C405 C404 1.392 . S
C405 C406 1.398 . S
C405 H433 0.929 . S
C406 C405 1.398 . S
C406 C407 1.352 . S
C407 C406 1.352 . S
C407 C408 1.384 . S
C407 H434 0.930 . S
C408 C403 1.407 . S
C408 C407 1.384 . S
C408 H435 0.929 . S
C409 O422 1.241 . S
C409 O423 1.273 . S
C410 O424 1.251 . S
C410 O425 1.268 . S
C411 Nd401 2.836 . S
C411 C412 1.498 . S
C411 O426 1.258 . S
C411 O427 1.239 . S
C412 C411 1.498 . S
C412 C413 1.366 . S
C412 C417 1.407 . S
C413 C412 1.366 . S
C413 C414 1.392 . S
C413 H436 0.930 . S
C414 C413 1.392 . S
C414 C415 1.398 . S
C414 H437 0.929 . S
C415 C414 1.398 . S
C415 C416 1.352 . S
C416 C415 1.352 . S
C416 C417 1.384 . S
C416 H438 0.930 . S
C417 C412 1.407 . S
C417 C416 1.384 . S
C417 H439 0.929 . S
C418 O428 1.241 . S
C418 O429 1.273 . S
C419 O430 1.251 . S
C419 O431 1.268 . S
O420 Nd400 2.500 . S
O420 C402 1.258 . S
O421 Nd400 2.492 . S
O421 C402 1.239 . S
O422 Nd400 2.487 . S
O422 C409 1.241 . S
O423 Nd400 2.682 . S
O423 Nd401 2.414 . S
O423 C409 1.273 . S
O424 Nd400 2.410 . S
O424 C410 1.251 . S
O425 Nd401 2.424 . S
O425 C410 1.268 . S
O426 Nd401 2.500 . S
O426 C411 1.258 . S
O427 Nd401 2.492 . S
O427 C411 1.239 . S
O428 Nd401 2.487 . S
O428 C418 1.241 . S
O429 Nd400 2.414 . S
O429 Nd401 2.682 . S
O429 C418 1.273 . S
O430 Nd401 2.410 . S
O430 C419 1.251 . S
O431 Nd400 2.424 . S
O431 C419 1.268 . S
H432 C404 0.930 . S
H433 C405 0.929 . S
H434 C407 0.930 . S
H435 C408 0.929 . S
H436 C413 0.930 . S
H437 C414 0.929 . S
H438 C416 0.930 . S
H439 C417 0.929 . S
Nd440 C442 2.836 . S
Nd440 O460 2.500 . S
Nd440 O461 2.492 . S
Nd440 O462 2.487 . S
Nd440 O463 2.682 . S
Nd440 O464 2.410 . S
Nd440 O469 2.414 . S
Nd440 O471 2.424 . S
Nd441 C451 2.836 . S
Nd441 O463 2.414 . S
Nd441 O465 2.424 . S
Nd441 O466 2.500 . S
Nd441 O467 2.492 . S
Nd441 O468 2.487 . S
Nd441 O469 2.682 . S
Nd441 O470 2.410 . S
C442 Nd440 2.836 . S
C442 C443 1.498 . S
C442 O460 1.258 . S
C442 O461 1.239 . S
C443 C442 1.498 . S
C443 C444 1.366 . S
C443 C448 1.407 . S
C444 C443 1.366 . S
C444 C445 1.392 . S
C444 H472 0.930 . S
C445 C444 1.392 . S
C445 C446 1.398 . S
C445 H473 0.929 . S
C446 C445 1.398 . S
C446 C447 1.352 . S
C447 C446 1.352 . S
C447 C448 1.384 . S
C447 H474 0.930 . S
C448 C443 1.407 . S
C448 C447 1.384 . S
C448 H475 0.929 . S
C449 O462 1.241 . S
C449 O463 1.273 . S
C450 O464 1.251 . S
C450 O465 1.268 . S
C451 Nd441 2.836 . S
C451 C452 1.498 . S
C451 O466 1.258 . S
C451 O467 1.239 . S
C452 C451 1.498 . S
C452 C453 1.366 . S
C452 C457 1.407 . S
C453 C452 1.366 . S
C453 C454 1.392 . S
C453 H476 0.930 . S
C454 C453 1.392 . S
C454 C455 1.398 . S
C454 H477 0.929 . S
C455 C454 1.398 . S
C455 C456 1.352 . S
C456 C455 1.352 . S
C456 C457 1.384 . S
C456 H478 0.930 . S
C457 C452 1.407 . S
C457 C456 1.384 . S
C457 H479 0.929 . S
C458 O468 1.241 . S
C458 O469 1.273 . S
C459 O470 1.251 . S
C459 O471 1.268 . S
O460 Nd440 2.500 . S
O460 C442 1.258 . S
O461 Nd440 2.492 . S
O461 C442 1.239 . S
O462 Nd440 2.487 . S
O462 C449 1.241 . S
O463 Nd440 2.682 . S
O463 Nd441 2.414 . S
O463 C449 1.273 . S
O464 Nd440 2.410 . S
O464 C450 1.251 . S
O465 Nd441 2.424 . S
O465 C450 1.268 . S
O466 Nd441 2.500 . S
O466 C451 1.258 . S
O467 Nd441 2.492 . S
O467 C451 1.239 . S
O468 Nd441 2.487 . S
O468 C458 1.241 . S
O469 Nd440 2.414 . S
O469 Nd441 2.682 . S
O469 C458 1.273 . S
O470 Nd441 2.410 . S
O470 C459 1.251 . S
O471 Nd440 2.424 . S
O471 C459 1.268 . S
H472 C444 0.930 . S
H473 C445 0.929 . S
H474 C447 0.930 . S
H475 C448 0.929 . S
H476 C453 0.930 . S
H477 C454 0.929 . S
H478 C456 0.930 . S
H479 C457 0.929 . S
Nd480 C482 2.836 . S
Nd480 O500 2.500 . S
Nd480 O501 2.492 . S
Nd480 O502 2.487 . S
Nd480 O503 2.682 . S
Nd480 O504 2.410 . S
Nd480 O509 2.414 . S
Nd480 O511 2.424 . S
Nd481 C491 2.836 . S
Nd481 O503 2.414 . S
Nd481 O505 2.424 . S
Nd481 O506 2.500 . S
Nd481 O507 2.492 . S
Nd481 O508 2.487 . S
Nd481 O509 2.682 . S
Nd481 O510 2.410 . S
C482 Nd480 2.836 . S
C482 C483 1.498 . S
C482 O500 1.258 . S
C482 O501 1.239 . S
C483 C482 1.498 . S
C483 C484 1.366 . S
C483 C488 1.407 . S
C484 C483 1.366 . S
C484 C485 1.392 . S
C484 H512 0.930 . S
C485 C484 1.392 . S
C485 C486 1.398 . S
C485 H513 0.929 . S
C486 C485 1.398 . S
C486 C487 1.352 . S
C487 C486 1.352 . S
C487 C488 1.384 . S
C487 H514 0.930 . S
C488 C483 1.407 . S
C488 C487 1.384 . S
C488 H515 0.929 . S
C489 O502 1.241 . S
C489 O503 1.273 . S
C490 O504 1.251 . S
C490 O505 1.268 . S
C491 Nd481 2.836 . S
C491 C492 1.498 . S
C491 O506 1.258 . S
C491 O507 1.239 . S
C492 C491 1.498 . S
C492 C493 1.366 . S
C492 C497 1.407 . S
C493 C492 1.366 . S
C493 C494 1.392 . S
C493 H516 0.930 . S
C494 C493 1.392 . S
C494 C495 1.398 . S
C494 H517 0.929 . S
C495 C494 1.398 . S
C495 C496 1.352 . S
C496 C495 1.352 . S
C496 C497 1.384 . S
C496 H518 0.930 . S
C497 C492 1.407 . S
C497 C496 1.384 . S
C497 H519 0.929 . S
C498 O508 1.241 . S
C498 O509 1.273 . S
C499 O510 1.251 . S
C499 O511 1.268 . S
O500 Nd480 2.500 . S
O500 C482 1.258 . S
O501 Nd480 2.492 . S
O501 C482 1.239 . S
O502 Nd480 2.487 . S
O502 C489 1.241 . S
O503 Nd480 2.682 . S
O503 Nd481 2.414 . S
O503 C489 1.273 . S
O504 Nd480 2.410 . S
O504 C490 1.251 . S
O505 Nd481 2.424 . S
O505 C490 1.268 . S
O506 Nd481 2.500 . S
O506 C491 1.258 . S
O507 Nd481 2.492 . S
O507 C491 1.239 . S
O508 Nd481 2.487 . S
O508 C498 1.241 . S
O509 Nd480 2.414 . S
O509 Nd481 2.682 . S
O509 C498 1.273 . S
O510 Nd481 2.410 . S
O510 C499 1.251 . S
O511 Nd480 2.424 . S
O511 C499 1.268 . S
H512 C484 0.930 . S
H513 C485 0.929 . S
H514 C487 0.930 . S
H515 C488 0.929 . S
H516 C493 0.930 . S
H517 C494 0.929 . S
H518 C496 0.930 . S
H519 C497 0.929 . S
Nd520 C522 2.836 . S
Nd520 O540 2.500 . S
Nd520 O541 2.492 . S
Nd520 O542 2.487 . S
Nd520 O543 2.682 . S
Nd520 O544 2.410 . S
Nd520 O549 2.414 . S
Nd520 O551 2.424 . S
Nd521 C531 2.836 . S
Nd521 O543 2.414 . S
Nd521 O545 2.424 . S
Nd521 O546 2.500 . S
Nd521 O547 2.492 . S
Nd521 O548 2.487 . S
Nd521 O549 2.682 . S
Nd521 O550 2.410 . S
C522 Nd520 2.836 . S
C522 C523 1.498 . S
C522 O540 1.258 . S
C522 O541 1.239 . S
C523 C522 1.498 . S
C523 C524 1.366 . S
C523 C528 1.407 . S
C524 C523 1.366 . S
C524 C525 1.392 . S
C524 H552 0.930 . S
C525 C524 1.392 . S
C525 C526 1.398 . S
C525 H553 0.929 . S
C526 C525 1.398 . S
C526 C527 1.352 . S
C527 C526 1.352 . S
C527 C528 1.384 . S
C527 H554 0.930 . S
C528 C523 1.407 . S
C528 C527 1.384 . S
C528 H555 0.929 . S
C529 O542 1.241 . S
C529 O543 1.273 . S
C530 O544 1.251 . S
C530 O545 1.268 . S
C531 Nd521 2.836 . S
C531 C532 1.498 . S
C531 O546 1.258 . S
C531 O547 1.239 . S
C532 C531 1.498 . S
C532 C533 1.366 . S
C532 C537 1.407 . S
C533 C532 1.366 . S
C533 C534 1.392 . S
C533 H556 0.930 . S
C534 C533 1.392 . S
C534 C535 1.398 . S
C534 H557 0.929 . S
C535 C534 1.398 . S
C535 C536 1.352 . S
C536 C535 1.352 . S
C536 C537 1.384 . S
C536 H558 0.930 . S
C537 C532 1.407 . S
C537 C536 1.384 . S
C537 H559 0.929 . S
C538 O548 1.241 . S
C538 O549 1.273 . S
C539 O550 1.251 . S
C539 O551 1.268 . S
O540 Nd520 2.500 . S
O540 C522 1.258 . S
O541 Nd520 2.492 . S
O541 C522 1.239 . S
O542 Nd520 2.487 . S
O542 C529 1.241 . S
O543 Nd520 2.682 . S
O543 Nd521 2.414 . S
O543 C529 1.273 . S
O544 Nd520 2.410 . S
O544 C530 1.251 . S
O545 Nd521 2.424 . S
O545 C530 1.268 . S
O546 Nd521 2.500 . S
O546 C531 1.258 . S
O547 Nd521 2.492 . S
O547 C531 1.239 . S
O548 Nd521 2.487 . S
O548 C538 1.241 . S
O549 Nd520 2.414 . S
O549 Nd521 2.682 . S
O549 C538 1.273 . S
O550 Nd521 2.410 . S
O550 C539 1.251 . S
O551 Nd520 2.424 . S
O551 C539 1.268 . S
H552 C524 0.930 . S
H553 C525 0.929 . S
H554 C527 0.930 . S
H555 C528 0.929 . S
H556 C533 0.930 . S
H557 C534 0.929 . S
H558 C536 0.930 . S
H559 C537 0.929 . S
Nd560 C562 2.836 . S
Nd560 O580 2.500 . S
Nd560 O581 2.492 . S
Nd560 O582 2.487 . S
Nd560 O583 2.682 . S
Nd560 O584 2.410 . S
Nd560 O589 2.414 . S
Nd560 O591 2.424 . S
Nd561 C571 2.836 . S
Nd561 O583 2.414 . S
Nd561 O585 2.424 . S
Nd561 O586 2.500 . S
Nd561 O587 2.492 . S
Nd561 O588 2.487 . S
Nd561 O589 2.682 . S
Nd561 O590 2.410 . S
C562 Nd560 2.836 . S
C562 C563 1.498 . S
C562 O580 1.258 . S
C562 O581 1.239 . S
C563 C562 1.498 . S
C563 C564 1.366 . S
C563 C568 1.407 . S
C564 C563 1.366 . S
C564 C565 1.392 . S
C564 H592 0.930 . S
C565 C564 1.392 . S
C565 C566 1.398 . S
C565 H593 0.929 . S
C566 C565 1.398 . S
C566 C567 1.352 . S
C567 C566 1.352 . S
C567 C568 1.384 . S
C567 H594 0.930 . S
C568 C563 1.407 . S
C568 C567 1.384 . S
C568 H595 0.929 . S
C569 O582 1.241 . S
C569 O583 1.273 . S
C570 O584 1.251 . S
C570 O585 1.268 . S
C571 Nd561 2.836 . S
C571 C572 1.498 . S
C571 O586 1.258 . S
C571 O587 1.239 . S
C572 C571 1.498 . S
C572 C573 1.366 . S
C572 C577 1.407 . S
C573 C572 1.366 . S
C573 C574 1.392 . S
C573 H596 0.930 . S
C574 C573 1.392 . S
C574 C575 1.398 . S
C574 H597 0.929 . S
C575 C574 1.398 . S
C575 C576 1.352 . S
C576 C575 1.352 . S
C576 C577 1.384 . S
C576 H598 0.930 . S
C577 C572 1.407 . S
C577 C576 1.384 . S
C577 H599 0.929 . S
C578 O588 1.241 . S
C578 O589 1.273 . S
C579 O590 1.251 . S
C579 O591 1.268 . S
O580 Nd560 2.500 . S
O580 C562 1.258 . S
O581 Nd560 2.492 . S
O581 C562 1.239 . S
O582 Nd560 2.487 . S
O582 C569 1.241 . S
O583 Nd560 2.682 . S
O583 Nd561 2.414 . S
O583 C569 1.273 . S
O584 Nd560 2.410 . S
O584 C570 1.251 . S
O585 Nd561 2.424 . S
O585 C570 1.268 . S
O586 Nd561 2.500 . S
O586 C571 1.258 . S
O587 Nd561 2.492 . S
O587 C571 1.239 . S
O588 Nd561 2.487 . S
O588 C578 1.241 . S
O589 Nd560 2.414 . S
O589 Nd561 2.682 . S
O589 C578 1.273 . S
O590 Nd561 2.410 . S
O590 C579 1.251 . S
O591 Nd560 2.424 . S
O591 C579 1.268 . S
H592 C564 0.930 . S
H593 C565 0.929 . S
H594 C567 0.930 . S
H595 C568 0.929 . S
H596 C573 0.930 . S
H597 C574 0.929 . S
H598 C576 0.930 . S
H599 C577 0.929 . S
Nd600 C602 2.836 . S
Nd600 O620 2.500 . S
Nd600 O621 2.492 . S
Nd600 O622 2.487 . S
Nd600 O623 2.682 1_556 S
Nd600 O624 2.410 . S
Nd600 O629 2.414 . S
Nd600 O631 2.424 1_556 S
Nd601 C611 2.836 . S
Nd601 O623 2.414 . S
Nd601 O625 2.424 1_554 S
Nd601 O626 2.500 . S
Nd601 O627 2.492 . S
Nd601 O628 2.487 . S
Nd601 O629 2.682 1_554 S
Nd601 O630 2.410 . S
C602 Nd600 2.836 . S
C602 C603 1.498 . S
C602 O620 1.258 . S
C602 O621 1.239 . S
C603 C602 1.498 . S
C603 C604 1.366 . S
C603 C608 1.407 . S
C604 C603 1.366 . S
C604 C605 1.392 . S
C604 H632 0.930 . S
C605 C604 1.392 . S
C605 C606 1.398 . S
C605 H633 0.929 . S
C606 C605 1.398 . S
C606 C607 1.352 . S
C607 C606 1.352 . S
C607 C608 1.384 . S
C607 H634 0.930 . S
C608 C603 1.407 . S
C608 C607 1.384 . S
C608 H635 0.929 . S
C609 O622 1.241 1_554 S
C609 O623 1.273 . S
C610 O624 1.251 . S
C610 O625 1.268 . S
C611 Nd601 2.836 . S
C611 C612 1.498 . S
C611 O626 1.258 . S
C611 O627 1.239 . S
C612 C611 1.498 . S
C612 C613 1.366 . S
C612 C617 1.407 . S
C613 C612 1.366 . S
C613 C614 1.392 . S
C613 H636 0.930 . S
C614 C613 1.392 . S
C614 C615 1.398 . S
C614 H637 0.929 . S
C615 C614 1.398 . S
C615 C616 1.352 . S
C616 C615 1.352 . S
C616 C617 1.384 . S
C616 H638 0.930 . S
C617 C612 1.407 . S
C617 C616 1.384 . S
C617 H639 0.929 . S
C618 O628 1.241 1_556 S
C618 O629 1.273 . S
C619 O630 1.251 . S
C619 O631 1.268 . S
O620 Nd600 2.500 . S
O620 C602 1.258 . S
O621 Nd600 2.492 . S
O621 C602 1.239 . S
O622 Nd600 2.487 . S
O622 C609 1.241 1_556 S
O623 Nd600 2.682 1_554 S
O623 Nd601 2.414 . S
O623 C609 1.273 . S
O624 Nd600 2.410 . S
O624 C610 1.251 . S
O625 Nd601 2.424 1_556 S
O625 C610 1.268 . S
O626 Nd601 2.500 . S
O626 C611 1.258 . S
O627 Nd601 2.492 . S
O627 C611 1.239 . S
O628 Nd601 2.487 . S
O628 C618 1.241 1_554 S
O629 Nd600 2.414 . S
O629 Nd601 2.682 1_556 S
O629 C618 1.273 . S
O630 Nd601 2.410 . S
O630 C619 1.251 . S
O631 Nd600 2.424 1_554 S
O631 C619 1.268 . S
H632 C604 0.930 . S
H633 C605 0.929 . S
H634 C607 0.930 . S
H635 C608 0.929 . S
H636 C613 0.930 . S
H637 C614 0.929 . S
H638 C616 0.930 . S
H639 C617 0.929 . S
Nd640 C642 2.836 . S
Nd640 O660 2.500 . S
Nd640 O661 2.492 . S
Nd640 O662 2.487 . S
Nd640 O663 2.682 . S
Nd640 O664 2.410 . S
Nd640 O669 2.414 . S
Nd640 O671 2.424 . S
Nd641 C651 2.836 . S
Nd641 O663 2.414 . S
Nd641 O665 2.424 . S
Nd641 O666 2.500 . S
Nd641 O667 2.492 . S
Nd641 O668 2.487 . S
Nd641 O669 2.682 . S
Nd641 O670 2.410 . S
C642 Nd640 2.836 . S
C642 C643 1.498 . S
C642 O660 1.258 . S
C642 O661 1.239 . S
C643 C642 1.498 . S
C643 C644 1.366 . S
C643 C648 1.407 . S
C644 C643 1.366 . S
C644 C645 1.392 . S
C644 H672 0.930 . S
C645 C644 1.392 . S
C645 C646 1.398 . S
C645 H673 0.929 . S
C646 C645 1.398 . S
C646 C647 1.352 . S
C647 C646 1.352 . S
C647 C648 1.384 . S
C647 H674 0.930 . S
C648 C643 1.407 . S
C648 C647 1.384 . S
C648 H675 0.929 . S
C649 O662 1.241 . S
C649 O663 1.273 . S
C650 O664 1.251 . S
C650 O665 1.268 . S
C651 Nd641 2.836 . S
C651 C652 1.498 . S
C651 O666 1.258 . S
C651 O667 1.239 . S
C652 C651 1.498 . S
C652 C653 1.366 . S
C652 C657 1.407 . S
C653 C652 1.366 . S
C653 C654 1.392 . S
C653 H676 0.930 . S
C654 C653 1.392 . S
C654 C655 1.398 . S
C654 H677 0.929 . S
C655 C654 1.398 . S
C655 C656 1.352 . S
C656 C655 1.352 . S
C656 C657 1.384 . S
C656 H678 0.930 . S
C657 C652 1.407 . S
C657 C656 1.384 . S
C657 H679 0.929 . S
C658 O668 1.241 . S
C658 O669 1.273 . S
C659 O670 1.251 . S
C659 O671 1.268 . S
O660 Nd640 2.500 . S
O660 C642 1.258 . S
O661 Nd640 2.492 . S
O661 C642 1.239 . S
O662 Nd640 2.487 . S
O662 C649 1.241 . S
O663 Nd640 2.682 . S
O663 Nd641 2.414 . S
O663 C649 1.273 . S
O664 Nd640 2.410 . S
O664 C650 1.251 . S
O665 Nd641 2.424 . S
O665 C650 1.268 . S
O666 Nd641 2.500 . S
O666 C651 1.258 . S
O667 Nd641 2.492 . S
O667 C651 1.239 . S
O668 Nd641 2.487 . S
O668 C658 1.241 . S
O669 Nd640 2.414 . S
O669 Nd641 2.682 . S
O669 C658 1.273 . S
O670 Nd641 2.410 . S
O670 C659 1.251 . S
O671 Nd640 2.424 . S
O671 C659 1.268 . S
H672 C644 0.930 . S
H673 C645 0.929 . S
H674 C647 0.930 . S
H675 C648 0.929 . S
H676 C653 0.930 . S
H677 C654 0.929 . S
H678 C656 0.930 . S
H679 C657 0.929 . S
Nd680 C682 2.836 . S
Nd680 O700 2.500 . S
Nd680 O701 2.492 . S
Nd680 O702 2.487 . S
Nd680 O703 2.682 . S
Nd680 O704 2.410 . S
Nd680 O709 2.414 . S
Nd680 O711 2.424 . S
Nd681 C691 2.836 . S
Nd681 O703 2.414 . S
Nd681 O705 2.424 . S
Nd681 O706 2.500 . S
Nd681 O707 2.492 . S
Nd681 O708 2.487 . S
Nd681 O709 2.682 . S
Nd681 O710 2.410 . S
C682 Nd680 2.836 . S
C682 C683 1.498 . S
C682 O700 1.258 . S
C682 O701 1.239 . S
C683 C682 1.498 . S
C683 C684 1.366 . S
C683 C688 1.407 . S
C684 C683 1.366 . S
C684 C685 1.392 . S
C684 H712 0.930 . S
C685 C684 1.392 . S
C685 C686 1.398 . S
C685 H713 0.929 . S
C686 C685 1.398 . S
C686 C687 1.352 . S
C687 C686 1.352 . S
C687 C688 1.384 . S
C687 H714 0.930 . S
C688 C683 1.407 . S
C688 C687 1.384 . S
C688 H715 0.929 . S
C689 O702 1.241 . S
C689 O703 1.273 . S
C690 O704 1.251 . S
C690 O705 1.268 . S
C691 Nd681 2.836 . S
C691 C692 1.498 1_556 S
C691 O706 1.258 . S
C691 O707 1.239 . S
C692 C691 1.498 1_554 S
C692 C693 1.366 . S
C692 C697 1.407 . S
C693 C692 1.366 . S
C693 C694 1.392 . S
C693 H716 0.930 . S
C694 C693 1.392 . S
C694 C695 1.398 . S
C694 H717 0.929 . S
C695 C694 1.398 . S
C695 C696 1.352 . S
C696 C695 1.352 . S
C696 C697 1.384 . S
C696 H718 0.930 . S
C697 C692 1.407 . S
C697 C696 1.384 . S
C697 H719 0.929 . S
C698 O708 1.241 . S
C698 O709 1.273 . S
C699 O710 1.251 . S
C699 O711 1.268 . S
O700 Nd680 2.500 . S
O700 C682 1.258 . S
O701 Nd680 2.492 . S
O701 C682 1.239 . S
O702 Nd680 2.487 . S
O702 C689 1.241 . S
O703 Nd680 2.682 . S
O703 Nd681 2.414 . S
O703 C689 1.273 . S
O704 Nd680 2.410 . S
O704 C690 1.251 . S
O705 Nd681 2.424 . S
O705 C690 1.268 . S
O706 Nd681 2.500 . S
O706 C691 1.258 . S
O707 Nd681 2.492 . S
O707 C691 1.239 . S
O708 Nd681 2.487 . S
O708 C698 1.241 . S
O709 Nd680 2.414 . S
O709 Nd681 2.682 . S
O709 C698 1.273 . S
O710 Nd681 2.410 . S
O710 C699 1.251 . S
O711 Nd680 2.424 . S
O711 C699 1.268 . S
H712 C684 0.930 . S
H713 C685 0.929 . S
H714 C687 0.930 . S
H715 C688 0.929 . S
H716 C693 0.930 . S
H717 C694 0.929 . S
H718 C696 0.930 . S
H719 C697 0.929 . S
Nd720 C722 2.836 . S
Nd720 O740 2.500 . S
Nd720 O741 2.492 . S
Nd720 O742 2.487 . S
Nd720 O743 2.682 . S
Nd720 O744 2.410 . S
Nd720 O749 2.414 . S
Nd720 O751 2.424 . S
Nd721 C731 2.836 . S
Nd721 O743 2.414 . S
Nd721 O745 2.424 . S
Nd721 O746 2.500 . S
Nd721 O747 2.492 . S
Nd721 O748 2.487 . S
Nd721 O749 2.682 . S
Nd721 O750 2.410 . S
C722 Nd720 2.836 . S
C722 C723 1.498 1_554 S
C722 O740 1.258 . S
C722 O741 1.239 . S
C723 C722 1.498 1_556 S
C723 C724 1.366 . S
C723 C728 1.407 . S
C724 C723 1.366 . S
C724 C725 1.392 . S
C724 H752 0.930 . S
C725 C724 1.392 . S
C725 C726 1.398 . S
C725 H753 0.929 . S
C726 C725 1.398 . S
C726 C727 1.352 . S
C727 C726 1.352 . S
C727 C728 1.384 . S
C727 H754 0.930 . S
C728 C723 1.407 . S
C728 C727 1.384 . S
C728 H755 0.929 . S
C729 O742 1.241 . S
C729 O743 1.273 . S
C730 O744 1.251 . S
C730 O745 1.268 . S
C731 Nd721 2.836 . S
C731 C732 1.498 . S
C731 O746 1.258 . S
C731 O747 1.239 . S
C732 C731 1.498 . S
C732 C733 1.366 . S
C732 C737 1.395 1_655 S
C733 C732 1.366 . S
C733 C734 1.392 . S
C733 H756 0.930 . S
C734 C733 1.392 . S
C734 C735 1.398 . S
C734 H757 0.929 . S
C735 C734 1.398 . S
C735 C736 1.352 1_655 S
C736 C735 1.352 1_455 S
C736 C737 1.387 . S
C736 H758 0.930 . S
C737 C732 1.395 1_455 S
C737 C736 1.387 . S
C737 H759 0.939 . S
C738 O748 1.241 . S
C738 O749 1.273 . S
C739 O750 1.251 . S
C739 O751 1.268 . S
O740 Nd720 2.500 . S
O740 C722 1.258 . S
O741 Nd720 2.492 . S
O741 C722 1.239 . S
O742 Nd720 2.487 . S
O742 C729 1.241 . S
O743 Nd720 2.682 . S
O743 Nd721 2.414 . S
O743 C729 1.273 . S
O744 Nd720 2.410 . S
O744 C730 1.251 . S
O745 Nd721 2.424 . S
O745 C730 1.268 . S
O746 Nd721 2.500 . S
O746 C731 1.258 . S
O747 Nd721 2.492 . S
O747 C731 1.239 . S
O748 Nd721 2.487 . S
O748 C738 1.241 . S
O749 Nd720 2.414 . S
O749 Nd721 2.682 . S
O749 C738 1.273 . S
O750 Nd721 2.410 . S
O750 C739 1.251 . S
O751 Nd720 2.424 . S
O751 C739 1.268 . S
H752 C724 0.930 . S
H753 C725 0.929 . S
H754 C727 0.930 . S
H755 C728 0.929 . S
H756 C733 0.930 . S
H757 C734 0.929 . S
H758 C736 0.930 . S
H759 C737 0.939 . S
Nd760 C762 2.836 . S
Nd760 O780 2.500 . S
Nd760 O781 2.492 . S
Nd760 O782 2.487 . S
Nd760 O783 2.682 . S
Nd760 O784 2.410 . S
Nd760 O789 2.414 . S
Nd760 O791 2.424 . S
Nd761 C771 2.836 . S
Nd761 O783 2.414 . S
Nd761 O785 2.424 . S
Nd761 O786 2.500 . S
Nd761 O787 2.492 . S
Nd761 O788 2.487 . S
Nd761 O789 2.682 . S
Nd761 O790 2.410 . S
C762 Nd760 2.836 . S
C762 C763 1.498 . S
C762 O780 1.258 . S
C762 O781 1.239 . S
C763 C762 1.498 . S
C763 C764 1.366 . S
C763 C768 1.407 . S
C764 C763 1.366 . S
C764 C765 1.392 . S
C764 H792 0.930 . S
C765 C764 1.392 . S
C765 C766 1.398 . S
C765 H793 0.929 . S
C766 C765 1.398 . S
C766 C767 1.352 . S
C767 C766 1.352 . S
C767 C768 1.384 . S
C767 H794 0.930 . S
C768 C763 1.407 . S
C768 C767 1.384 . S
C768 H795 0.929 . S
C769 O782 1.241 . S
C769 O783 1.273 . S
C770 O784 1.251 . S
C770 O785 1.268 . S
C771 Nd761 2.836 . S
C771 C772 1.498 . S
C771 O786 1.258 . S
C771 O787 1.239 . S
C772 C771 1.498 . S
C772 C773 1.366 . S
C772 C777 1.407 . S
C773 C772 1.366 . S
C773 C774 1.392 . S
C773 H796 0.930 . S
C774 C773 1.392 . S
C774 C775 1.398 . S
C774 H797 0.929 . S
C775 C774 1.398 . S
C775 C776 1.352 . S
C776 C775 1.352 . S
C776 C777 1.384 . S
C776 H798 0.930 . S
C777 C772 1.407 . S
C777 C776 1.384 . S
C777 H799 0.929 . S
C778 O788 1.241 . S
C778 O789 1.273 . S
C779 O790 1.251 . S
C779 O791 1.268 . S
O780 Nd760 2.500 . S
O780 C762 1.258 . S
O781 Nd760 2.492 . S
O781 C762 1.239 . S
O782 Nd760 2.487 . S
O782 C769 1.241 . S
O783 Nd760 2.682 . S
O783 Nd761 2.414 . S
O783 C769 1.273 . S
O784 Nd760 2.410 . S
O784 C770 1.251 . S
O785 Nd761 2.424 . S
O785 C770 1.268 . S
O786 Nd761 2.500 . S
O786 C771 1.258 . S
O787 Nd761 2.492 . S
O787 C771 1.239 . S
O788 Nd761 2.487 . S
O788 C778 1.241 . S
O789 Nd760 2.414 . S
O789 Nd761 2.682 . S
O789 C778 1.273 . S
O790 Nd761 2.410 . S
O790 C779 1.251 . S
O791 Nd760 2.424 . S
O791 C779 1.268 . S
H792 C764 0.930 . S
H793 C765 0.929 . S
H794 C767 0.930 . S
H795 C768 0.929 . S
H796 C773 0.930 . S
H797 C774 0.929 . S
H798 C776 0.930 . S
H799 C777 0.929 . S
Nd800 C802 2.836 1_554 S
Nd800 O820 2.500 1_554 S
Nd800 O821 2.503 1_545 S
Nd800 O822 2.466 1_545 S
Nd800 O823 2.682 . S
Nd800 O824 2.410 . S
Nd800 O829 2.414 . S
Nd800 O831 2.424 . S
Nd801 C811 2.836 . S
Nd801 O823 2.414 . S
Nd801 O825 2.424 . S
Nd801 O826 2.500 . S
Nd801 O827 2.492 . S
Nd801 O828 2.487 . S
Nd801 O829 2.682 . S
Nd801 O830 2.410 . S
C802 Nd800 2.836 1_556 S
C802 C803 1.498 1_545 S
C802 O820 1.258 . S
C802 O821 1.229 1_546 S
C803 C802 1.498 1_565 S
C803 C804 1.366 1_565 S
C803 C808 1.407 . S
C804 C803 1.366 1_545 S
C804 C805 1.392 . S
C804 H832 0.930 . S
C805 C804 1.392 . S
C805 C806 1.398 1_545 S
C805 H833 0.929 . S
C806 C805 1.398 1_565 S
C806 C807 1.352 . S
C807 C806 1.352 . S
C807 C808 1.384 . S
C807 H834 0.930 . S
C808 C803 1.407 . S
C808 C807 1.384 . S
C808 H835 0.929 . S
C809 O822 1.210 1_545 S
C809 O823 1.273 . S
C810 O824 1.251 . S
C810 O825 1.268 . S
C811 Nd801 2.836 . S
C811 C812 1.498 . S
C811 O826 1.258 . S
C811 O827 1.239 . S
C812 C811 1.498 . S
C812 C813 1.366 . S
C812 C817 1.407 . S
C813 C812 1.366 . S
C813 C814 1.392 . S
C813 H836 0.930 . S
C814 C813 1.392 . S
C814 C815 1.398 . S
C814 H837 0.929 . S
C815 C814 1.398 . S
C815 C816 1.352 . S
C816 C815 1.352 . S
C816 C817 1.384 . S
C816 H838 0.930 . S
C817 C812 1.407 . S
C817 C816 1.384 . S
C817 H839 0.929 . S
C818 O828 1.241 . S
C818 O829 1.273 . S
C819 O830 1.251 . S
C819 O831 1.268 . S
O820 Nd800 2.500 1_556 S
O820 C802 1.258 . S
O821 Nd800 2.503 1_565 S
O821 C802 1.229 1_564 S
O822 Nd800 2.466 1_565 S
O822 C809 1.210 1_565 S
O823 Nd800 2.682 . S
O823 Nd801 2.414 . S
O823 C809 1.273 . S
O824 Nd800 2.410 . S
O824 C810 1.251 . S
O825 Nd801 2.424 . S
O825 C810 1.268 . S
O826 Nd801 2.500 . S
O826 C811 1.258 . S
O827 Nd801 2.492 . S
O827 C811 1.239 . S
O828 Nd801 2.487 . S
O828 C818 1.241 . S
O829 Nd800 2.414 . S
O829 Nd801 2.682 . S
O829 C818 1.273 . S
O830 Nd801 2.410 . S
O830 C819 1.251 . S
O831 Nd800 2.424 . S
O831 C819 1.268 . S
H832 C804 0.930 . S
H833 C805 0.929 . S
H834 C807 0.930 . S
H835 C808 0.929 . S
H836 C813 0.930 . S
H837 C814 0.929 . S
H838 C816 0.930 . S
H839 C817 0.929 . S
Nd840 C842 2.836 . S
Nd840 O860 2.500 . S
Nd840 O861 2.492 . S
Nd840 O862 2.487 . S
Nd840 O863 2.682 . S
Nd840 O864 2.410 . S
Nd840 O869 2.414 . S
Nd840 O871 2.424 . S
Nd841 C851 2.836 . S
Nd841 O863 2.414 . S
Nd841 O865 2.424 . S
Nd841 O866 2.500 . S
Nd841 O867 2.492 . S
Nd841 O868 2.487 . S
Nd841 O869 2.682 . S
Nd841 O870 2.410 . S
C842 Nd840 2.836 . S
C842 C843 1.498 . S
C842 O860 1.258 . S
C842 O861 1.239 . S
C843 C842 1.498 . S
C843 C844 1.366 . S
C843 C848 1.407 . S
C844 C843 1.366 . S
C844 C845 1.392 . S
C844 H872 0.930 . S
C845 C844 1.392 . S
C845 C846 1.398 . S
C845 H873 0.929 . S
C846 C845 1.398 . S
C846 C847 1.352 . S
C847 C846 1.352 . S
C847 C848 1.384 . S
C847 H874 0.930 . S
C848 C843 1.407 . S
C848 C847 1.384 . S
C848 H875 0.929 . S
C849 O862 1.241 . S
C849 O863 1.273 . S
C850 O864 1.251 . S
C850 O865 1.268 . S
C851 Nd841 2.836 . S
C851 C852 1.498 . S
C851 O866 1.258 . S
C851 O867 1.239 . S
C852 C851 1.498 . S
C852 C853 1.366 . S
C852 C857 1.407 . S
C853 C852 1.366 . S
C853 C854 1.392 . S
C853 H876 0.930 . S
C854 C853 1.392 . S
C854 C855 1.398 . S
C854 H877 0.929 . S
C855 C854 1.398 . S
C855 C856 1.352 . S
C856 C855 1.352 . S
C856 C857 1.384 . S
C856 H878 0.930 . S
C857 C852 1.407 . S
C857 C856 1.384 . S
C857 H879 0.929 . S
C858 O868 1.241 . S
C858 O869 1.273 . S
C859 O870 1.251 . S
C859 O871 1.268 . S
O860 Nd840 2.500 . S
O860 C842 1.258 . S
O861 Nd840 2.492 . S
O861 C842 1.239 . S
O862 Nd840 2.487 . S
O862 C849 1.241 . S
O863 Nd840 2.682 . S
O863 Nd841 2.414 . S
O863 C849 1.273 . S
O864 Nd840 2.410 . S
O864 C850 1.251 . S
O865 Nd841 2.424 . S
O865 C850 1.268 . S
O866 Nd841 2.500 . S
O866 C851 1.258 . S
O867 Nd841 2.492 . S
O867 C851 1.239 . S
O868 Nd841 2.487 . S
O868 C858 1.241 . S
O869 Nd840 2.414 . S
O869 Nd841 2.682 . S
O869 C858 1.273 . S
O870 Nd841 2.410 . S
O870 C859 1.251 . S
O871 Nd840 2.424 . S
O871 C859 1.268 . S
H872 C844 0.930 . S
H873 C845 0.929 . S
H874 C847 0.930 . S
H875 C848 0.929 . S
H876 C853 0.930 . S
H877 C854 0.929 . S
H878 C856 0.930 . S
H879 C857 0.929 . S
Nd880 C882 2.836 . S
Nd880 O900 2.500 . S
Nd880 O901 2.492 1_565 S
Nd880 O902 2.465 1_565 S
Nd880 O903 2.682 . S
Nd880 O904 2.410 . S
Nd880 O909 2.414 . S
Nd880 O911 2.424 . S
Nd881 C891 2.836 . S
Nd881 O903 2.414 . S
Nd881 O905 2.424 . S
Nd881 O906 2.500 . S
Nd881 O907 2.492 . S
Nd881 O908 2.487 . S
Nd881 O909 2.682 . S
Nd881 O910 2.410 . S
C882 Nd880 2.836 . S
C882 C883 1.498 1_565 S
C882 O900 1.258 . S
C882 O901 1.239 1_565 S
C883 C882 1.498 1_545 S
C883 C884 1.366 1_545 S
C883 C888 1.407 . S
C884 C883 1.366 1_565 S
C884 C885 1.392 . S
C884 H912 0.930 . S
C885 C884 1.392 . S
C885 C886 1.398 1_565 S
C885 H913 0.929 . S
C886 C885 1.398 1_545 S
C886 C887 1.352 . S
C887 C886 1.352 . S
C887 C888 1.384 . S
C887 H914 0.930 . S
C888 C883 1.407 . S
C888 C887 1.384 . S
C888 H915 0.929 . S
C889 O902 1.209 1_565 S
C889 O903 1.273 . S
C890 O904 1.251 . S
C890 O905 1.268 . S
C891 Nd881 2.836 . S
C891 C892 1.498 . S
C891 O906 1.258 . S
C891 O907 1.239 . S
C892 C891 1.498 . S
C892 C893 1.366 . S
C892 C897 1.407 . S
C893 C892 1.366 . S
C893 C894 1.392 . S
C893 H916 0.930 . S
C894 C893 1.392 . S
C894 C895 1.398 . S
C894 H917 0.929 . S
C895 C894 1.398 . S
C895 C896 1.352 . S
C896 C895 1.352 . S
C896 C897 1.384 . S
C896 H918 0.930 . S
C897 C892 1.407 . S
C897 C896 1.384 . S
C897 H919 0.929 . S
C898 O908 1.241 . S
C898 O909 1.273 . S
C899 O910 1.251 . S
C899 O911 1.268 . S
O900 Nd880 2.500 . S
O900 C882 1.258 . S
O901 Nd880 2.492 1_545 S
O901 C882 1.239 1_545 S
O902 Nd880 2.465 1_545 S
O902 C889 1.209 1_545 S
O903 Nd880 2.682 . S
O903 Nd881 2.414 . S
O903 C889 1.273 . S
O904 Nd880 2.410 . S
O904 C890 1.251 . S
O905 Nd881 2.424 . S
O905 C890 1.268 . S
O906 Nd881 2.500 . S
O906 C891 1.258 . S
O907 Nd881 2.492 . S
O907 C891 1.239 . S
O908 Nd881 2.487 . S
O908 C898 1.241 . S
O909 Nd880 2.414 . S
O909 Nd881 2.682 . S
O909 C898 1.273 . S
O910 Nd881 2.410 . S
O910 C899 1.251 . S
O911 Nd880 2.424 . S
O911 C899 1.268 . S
H912 C884 0.930 . S
H913 C885 0.929 . S
H914 C887 0.930 . S
H915 C888 0.929 . S
H916 C893 0.930 . S
H917 C894 0.929 . S
H918 C896 0.930 . S
H919 C897 0.929 . S
Nd920 C922 2.836 . S
Nd920 O940 2.500 . S
Nd920 O941 2.492 . S
Nd920 O942 2.487 . S
Nd920 O943 2.682 . S
Nd920 O944 2.410 . S
Nd920 O949 2.414 . S
Nd920 O951 2.424 . S
Nd921 C931 2.836 . S
Nd921 O943 2.414 . S
Nd921 O945 2.424 . S
Nd921 O946 2.500 . S
Nd921 O947 2.492 . S
Nd921 O948 2.487 . S
Nd921 O949 2.682 . S
Nd921 O950 2.410 . S
C922 Nd920 2.836 . S
C922 C923 1.498 . S
C922 O940 1.258 . S
C922 O941 1.239 . S
C923 C922 1.498 . S
C923 C924 1.366 . S
C923 C928 1.407 . S
C924 C923 1.366 . S
C924 C925 1.392 . S
C924 H952 0.930 . S
C925 C924 1.392 . S
C925 C926 1.398 . S
C925 H953 0.929 . S
C926 C925 1.398 . S
C926 C927 1.352 . S
C927 C926 1.352 . S
C927 C928 1.384 . S
C927 H954 0.930 . S
C928 C923 1.407 . S
C928 C927 1.384 . S
C928 H955 0.929 . S
C929 O942 1.241 . S
C929 O943 1.273 . S
C930 O944 1.251 . S
C930 O945 1.268 . S
C931 Nd921 2.836 . S
C931 C932 1.498 . S
C931 O946 1.258 . S
C931 O947 1.239 . S
C932 C931 1.498 . S
C932 C933 1.366 . S
C932 C937 1.407 . S
C933 C932 1.366 . S
C933 C934 1.392 1_556 S
C933 H956 0.930 . S
C934 C933 1.392 1_554 S
C934 C935 1.398 . S
C934 H957 0.929 . S
C935 C934 1.398 . S
C935 C936 1.352 . S
C936 C935 1.352 . S
C936 C937 1.384 1_554 S
C936 H958 0.930 . S
C937 C932 1.407 . S
C937 C936 1.384 1_556 S
C937 H959 0.929 . S
C938 O948 1.241 . S
C938 O949 1.273 . S
C939 O950 1.251 . S
C939 O951 1.268 . S
O940 Nd920 2.500 . S
O940 C922 1.258 . S
O941 Nd920 2.492 . S
O941 C922 1.239 . S
O942 Nd920 2.487 . S
O942 C929 1.241 . S
O943 Nd920 2.682 . S
O943 Nd921 2.414 . S
O943 C929 1.273 . S
O944 Nd920 2.410 . S
O944 C930 1.251 . S
O945 Nd921 2.424 . S
O945 C930 1.268 . S
O946 Nd921 2.500 . S
O946 C931 1.258 . S
O947 Nd921 2.492 . S
O947 C931 1.239 . S
O948 Nd921 2.487 . S
O948 C938 1.241 . S
O949 Nd920 2.414 . S
O949 Nd921 2.682 . S
O949 C938 1.273 . S
O950 Nd921 2.410 . S
O950 C939 1.251 . S
O951 Nd920 2.424 . S
O951 C939 1.268 . S
H952 C924 0.930 . S
H953 C925 0.929 . S
H954 C927 0.930 . S
H955 C928 0.929 . S
H956 C933 0.930 . S
H957 C934 0.929 . S
H958 C936 0.930 . S
H959 C937 0.929 . S
Nd960 C962 2.836 . S
Nd960 O980 2.500 . S
Nd960 O981 2.492 . S
Nd960 O982 2.487 . S
Nd960 O983 2.682 . S
Nd960 O984 2.410 . S
Nd960 O989 2.414 . S
Nd960 O991 2.424 . S
Nd961 C971 2.836 . S
Nd961 O983 2.414 . S
Nd961 O985 2.424 . S
Nd961 O986 2.500 . S
Nd961 O987 2.492 . S
Nd961 O988 2.487 . S
Nd961 O989 2.682 . S
Nd961 O990 2.410 . S
C962 Nd960 2.836 . S
C962 C963 1.498 . S
C962 O980 1.258 . S
C962 O981 1.239 . S
C963 C962 1.498 . S
C963 C964 1.366 . S
C963 C968 1.407 . S
C964 C963 1.366 . S
C964 C965 1.392 . S
C964 H992 0.930 . S
C965 C964 1.392 . S
C965 C966 1.398 . S
C965 H993 0.929 . S
C966 C965 1.398 . S
C966 C967 1.352 . S
C967 C966 1.352 . S
C967 C968 1.384 . S
C967 H994 0.930 . S
C968 C963 1.407 . S
C968 C967 1.384 . S
C968 H995 0.929 . S
C969 O982 1.241 . S
C969 O983 1.273 . S
C970 O984 1.251 . S
C970 O985 1.268 . S
C971 Nd961 2.836 . S
C971 C972 1.498 . S
C971 O986 1.258 . S
C971 O987 1.239 . S
C972 C971 1.498 . S
C972 C973 1.366 . S
C972 C977 1.407 . S
C973 C972 1.366 . S
C973 C974 1.392 . S
C973 H996 0.930 . S
C974 C973 1.392 . S
C974 C975 1.398 . S
C974 H997 0.929 . S
C975 C974 1.398 . S
C975 C976 1.352 . S
C976 C975 1.352 . S
C976 C977 1.384 . S
C976 H998 0.930 . S
C977 C972 1.407 . S
C977 C976 1.384 . S
C977 H999 0.929 . S
C978 O988 1.241 . S
C978 O989 1.273 . S
C979 O990 1.251 . S
C979 O991 1.268 . S
O980 Nd960 2.500 . S
O980 C962 1.258 . S
O981 Nd960 2.492 . S
O981 C962 1.239 . S
O982 Nd960 2.487 . S
O982 C969 1.241 . S
O983 Nd960 2.682 . S
O983 Nd961 2.414 . S
O983 C969 1.273 . S
O984 Nd960 2.410 . S
O984 C970 1.251 . S
O985 Nd961 2.424 . S
O985 C970 1.268 . S
O986 Nd961 2.500 . S
O986 C971 1.258 . S
O987 Nd961 2.492 . S
O987 C971 1.239 . S
O988 Nd961 2.487 . S
O988 C978 1.241 . S
O989 Nd960 2.414 . S
O989 Nd961 2.682 . S
O989 C978 1.273 . S
O990 Nd961 2.410 . S
O990 C979 1.251 . S
O991 Nd960 2.424 . S
O991 C979 1.268 . S
H992 C964 0.930 . S
H993 C965 0.929 . S
H994 C967 0.930 . S
H995 C968 0.929 . S
H996 C973 0.930 . S
H997 C974 0.929 . S
H998 C976 0.930 . S
H999 C977 0.929 . S
Nd1000 C1002 2.836 . S
Nd1000 O1020 2.500 . S
Nd1000 O1021 2.492 . S
Nd1000 O1022 2.487 . S
Nd1000 O1023 2.682 . S
Nd1000 O1024 2.410 . S
Nd1000 O1029 2.414 . S
Nd1000 O1031 2.424 . S
Nd1001 C1011 2.836 . S
Nd1001 O1023 2.414 . S
Nd1001 O1025 2.424 . S
Nd1001 O1026 2.500 . S
Nd1001 O1027 2.492 . S
Nd1001 O1028 2.487 . S
Nd1001 O1029 2.682 . S
Nd1001 O1030 2.410 . S
C1002 Nd1000 2.836 . S
C1002 C1003 1.498 . S
C1002 O1020 1.258 . S
C1002 O1021 1.239 . S
C1003 C1002 1.498 . S
C1003 C1004 1.366 . S
C1003 C1008 1.407 . S
C1004 C1003 1.366 . S
C1004 C1005 1.392 . S
C1004 H1032 0.930 . S
C1005 C1004 1.392 . S
C1005 C1006 1.398 . S
C1005 H1033 0.929 . S
C1006 C1005 1.398 . S
C1006 C1007 1.352 . S
C1007 C1006 1.352 . S
C1007 C1008 1.384 . S
C1007 H1034 0.930 . S
C1008 C1003 1.407 . S
C1008 C1007 1.384 . S
C1008 H1035 0.929 . S
C1009 O1022 1.241 . S
C1009 O1023 1.273 . S
C1010 O1024 1.251 . S
C1010 O1025 1.268 . S
C1011 Nd1001 2.836 . S
C1011 C1012 1.498 . S
C1011 O1026 1.258 . S
C1011 O1027 1.239 . S
C1012 C1011 1.498 . S
C1012 C1013 1.366 . S
C1012 C1017 1.407 . S
C1013 C1012 1.366 . S
C1013 C1014 1.392 . S
C1013 H1036 0.930 . S
C1014 C1013 1.392 . S
C1014 C1015 1.398 . S
C1014 H1037 0.929 . S
C1015 C1014 1.398 . S
C1015 C1016 1.352 . S
C1016 C1015 1.352 . S
C1016 C1017 1.384 . S
C1016 H1038 0.930 . S
C1017 C1012 1.407 . S
C1017 C1016 1.384 . S
C1017 H1039 0.929 . S
C1018 O1028 1.241 . S
C1018 O1029 1.273 . S
C1019 O1030 1.251 . S
C1019 O1031 1.268 . S
O1020 Nd1000 2.500 . S
O1020 C1002 1.258 . S
O1021 Nd1000 2.492 . S
O1021 C1002 1.239 . S
O1022 Nd1000 2.487 . S
O1022 C1009 1.241 . S
O1023 Nd1000 2.682 . S
O1023 Nd1001 2.414 . S
O1023 C1009 1.273 . S
O1024 Nd1000 2.410 . S
O1024 C1010 1.251 . S
O1025 Nd1001 2.424 . S
O1025 C1010 1.268 . S
O1026 Nd1001 2.500 . S
O1026 C1011 1.258 . S
O1027 Nd1001 2.492 . S
O1027 C1011 1.239 . S
O1028 Nd1001 2.487 . S
O1028 C1018 1.241 . S
O1029 Nd1000 2.414 . S
O1029 Nd1001 2.682 . S
O1029 C1018 1.273 . S
O1030 Nd1001 2.410 . S
O1030 C1019 1.251 . S
O1031 Nd1000 2.424 . S
O1031 C1019 1.268 . S
H1032 C1004 0.930 . S
H1033 C1005 0.929 . S
H1034 C1007 0.930 . S
H1035 C1008 0.929 . S
H1036 C1013 0.930 . S
H1037 C1014 0.929 . S
H1038 C1016 0.930 . S
H1039 C1017 0.929 . S
Nd1040 C1042 2.836 . S
Nd1040 O1060 2.500 . S
Nd1040 O1061 2.492 . S
Nd1040 O1062 2.487 . S
Nd1040 O1063 2.682 . S
Nd1040 O1064 2.410 . S
Nd1040 O1069 2.414 . S
Nd1040 O1071 2.424 . S
Nd1041 C1051 2.836 . S
Nd1041 O1063 2.414 . S
Nd1041 O1065 2.424 . S
Nd1041 O1066 2.500 . S
Nd1041 O1067 2.492 . S
Nd1041 O1068 2.487 . S
Nd1041 O1069 2.682 . S
Nd1041 O1070 2.410 . S
C1042 Nd1040 2.836 . S
C1042 C1043 1.498 . S
C1042 O1060 1.258 . S
C1042 O1061 1.239 . S
C1043 C1042 1.498 . S
C1043 C1044 1.366 . S
C1043 C1048 1.394 1_455 S
C1044 C1043 1.366 . S
C1044 C1045 1.392 . S
C1044 H1072 0.930 . S
C1045 C1044 1.392 . S
C1045 C1046 1.398 1_554 S
C1045 H1073 0.929 1_554 S
C1046 C1045 1.398 1_556 S
C1046 C1047 1.352 1_456 S
C1047 C1046 1.352 1_654 S
C1047 C1048 1.387 . S
C1047 H1074 0.930 . S
C1048 C1043 1.394 1_655 S
C1048 C1047 1.387 . S
C1048 H1075 0.939 . S
C1049 O1062 1.241 . S
C1049 O1063 1.273 . S
C1050 O1064 1.251 . S
C1050 O1065 1.268 . S
C1051 Nd1041 2.836 . S
C1051 C1052 1.498 . S
C1051 O1066 1.258 . S
C1051 O1067 1.239 . S
C1052 C1051 1.498 . S
C1052 C1053 1.366 . S
C1052 C1057 1.407 . S
C1053 C1052 1.366 . S
C1053 C1054 1.392 . S
C1053 H1076 0.930 . S
C1054 C1053 1.392 . S
C1054 C1055 1.398 . S
C1054 H1077 0.929 . S
C1055 C1054 1.398 . S
C1055 C1056 1.352 . S
C1056 C1055 1.352 . S
C1056 C1057 1.384 . S
C1056 H1078 0.930 . S
C1057 C1052 1.407 . S
C1057 C1056 1.384 . S
C1057 H1079 0.929 . S
C1058 O1068 1.241 . S
C1058 O1069 1.273 . S
C1059 O1070 1.251 . S
C1059 O1071 1.268 . S
O1060 Nd1040 2.500 . S
O1060 C1042 1.258 . S
O1061 Nd1040 2.492 . S
O1061 C1042 1.239 . S
O1062 Nd1040 2.487 . S
O1062 C1049 1.241 . S
O1063 Nd1040 2.682 . S
O1063 Nd1041 2.414 . S
O1063 C1049 1.273 . S
O1064 Nd1040 2.410 . S
O1064 C1050 1.251 . S
O1065 Nd1041 2.424 . S
O1065 C1050 1.268 . S
O1066 Nd1041 2.500 . S
O1066 C1051 1.258 . S
O1067 Nd1041 2.492 . S
O1067 C1051 1.239 . S
O1068 Nd1041 2.487 . S
O1068 C1058 1.241 . S
O1069 Nd1040 2.414 . S
O1069 Nd1041 2.682 . S
O1069 C1058 1.273 . S
O1070 Nd1041 2.410 . S
O1070 C1059 1.251 . S
O1071 Nd1040 2.424 . S
O1071 C1059 1.268 . S
H1072 C1044 0.930 . S
H1073 C1045 0.929 1_556 S
H1074 C1047 0.930 . S
H1075 C1048 0.939 . S
H1076 C1053 0.930 . S
H1077 C1054 0.929 . S
H1078 C1056 0.930 . S
H1079 C1057 0.929 . S
Nd1080 C1082 2.836 . S
Nd1080 O1100 2.500 . S
Nd1080 O1101 2.492 . S
Nd1080 O1102 2.487 . S
Nd1080 O1103 2.682 . S
Nd1080 O1104 2.410 . S
Nd1080 O1109 2.414 . S
Nd1080 O1111 2.424 . S
Nd1081 C1091 2.836 1_556 S
Nd1081 O1103 2.414 . S
Nd1081 O1105 2.424 . S
Nd1081 O1106 2.500 1_556 S
Nd1081 O1107 2.492 1_556 S
Nd1081 O1108 2.487 . S
Nd1081 O1109 2.682 . S
Nd1081 O1110 2.410 1_556 S
C1082 Nd1080 2.836 . S
C1082 C1083 1.498 . S
C1082 O1100 1.258 . S
C1082 O1101 1.239 . S
C1083 C1082 1.498 . S
C1083 C1084 1.366 . S
C1083 C1088 1.407 . S
C1084 C1083 1.366 . S
C1084 C1085 1.392 . S
C1084 H1112 0.930 . S
C1085 C1084 1.392 . S
C1085 C1086 1.398 . S
C1085 H1113 0.929 . S
C1086 C1085 1.398 . S
C1086 C1087 1.352 . S
C1087 C1086 1.352 . S
C1087 C1088 1.384 . S
C1087 H1114 0.930 . S
C1088 C1083 1.407 . S
C1088 C1087 1.384 . S
C1088 H1115 0.929 . S
C1089 O1102 1.241 . S
C1089 O1103 1.273 . S
C1090 O1104 1.251 . S
C1090 O1105 1.268 . S
C1091 Nd1081 2.836 1_554 S
C1091 C1092 1.498 . S
C1091 O1106 1.258 . S
C1091 O1107 1.239 . S
C1092 C1091 1.498 . S
C1092 C1093 1.366 . S
C1092 C1097 1.407 . S
C1093 C1092 1.366 . S
C1093 C1094 1.392 . S
C1093 H1116 0.930 . S
C1094 C1093 1.392 . S
C1094 C1095 1.398 . S
C1094 H1117 0.929 . S
C1095 C1094 1.398 . S
C1095 C1096 1.352 . S
C1096 C1095 1.352 . S
C1096 C1097 1.384 . S
C1096 H1118 0.930 . S
C1097 C1092 1.407 . S
C1097 C1096 1.384 . S
C1097 H1119 0.929 . S
C1098 O1108 1.241 . S
C1098 O1109 1.273 . S
C1099 O1110 1.251 . S
C1099 O1111 1.268 1_554 S
O1100 Nd1080 2.500 . S
O1100 C1082 1.258 . S
O1101 Nd1080 2.492 . S
O1101 C1082 1.239 . S
O1102 Nd1080 2.487 . S
O1102 C1089 1.241 . S
O1103 Nd1080 2.682 . S
O1103 Nd1081 2.414 . S
O1103 C1089 1.273 . S
O1104 Nd1080 2.410 . S
O1104 C1090 1.251 . S
O1105 Nd1081 2.424 . S
O1105 C1090 1.268 . S
O1106 Nd1081 2.500 1_554 S
O1106 C1091 1.258 . S
O1107 Nd1081 2.492 1_554 S
O1107 C1091 1.239 . S
O1108 Nd1081 2.487 . S
O1108 C1098 1.241 . S
O1109 Nd1080 2.414 . S
O1109 Nd1081 2.682 . S
O1109 C1098 1.273 . S
O1110 Nd1081 2.410 1_554 S
O1110 C1099 1.251 . S
O1111 Nd1080 2.424 . S
O1111 C1099 1.268 1_556 S
H1112 C1084 0.930 . S
H1113 C1085 0.929 . S
H1114 C1087 0.930 . S
H1115 C1088 0.929 . S
H1116 C1093 0.930 . S
H1117 C1094 0.929 . S
H1118 C1096 0.930 . S
H1119 C1097 0.929 . S
Nd1120 C1122 2.836 . S
Nd1120 O1140 2.500 . S
Nd1120 O1141 2.492 . S
Nd1120 O1142 2.487 . S
Nd1120 O1143 2.682 . S
Nd1120 O1144 2.410 . S
Nd1120 O1149 2.414 . S
Nd1120 O1151 2.424 . S
Nd1121 C1131 2.836 . S
Nd1121 O1143 2.414 . S
Nd1121 O1145 2.424 . S
Nd1121 O1146 2.500 . S
Nd1121 O1147 2.492 1_565 S
Nd1121 O1148 2.464 1_565 S
Nd1121 O1149 2.682 . S
Nd1121 O1150 2.410 . S
C1122 Nd1120 2.836 . S
C1122 C1123 1.498 . S
C1122 O1140 1.258 . S
C1122 O1141 1.239 . S
C1123 C1122 1.498 . S
C1123 C1124 1.366 . S
C1123 C1128 1.407 . S
C1124 C1123 1.366 . S
C1124 C1125 1.392 . S
C1124 H1152 0.930 . S
C1125 C1124 1.392 . S
C1125 C1126 1.398 . S
C1125 H1153 0.929 . S
C1126 C1125 1.398 . S
C1126 C1127 1.352 . S
C1127 C1126 1.352 . S
C1127 C1128 1.384 . S
C1127 H1154 0.930 . S
C1128 C1123 1.407 . S
C1128 C1127 1.384 . S
C1128 H1155 0.929 . S
C1129 O1142 1.241 . S
C1129 O1143 1.273 . S
C1130 O1144 1.251 . S
C1130 O1145 1.268 . S
C1131 Nd1121 2.836 . S
C1131 C1132 1.498 1_565 S
C1131 O1146 1.258 . S
C1131 O1147 1.239 1_565 S
C1132 C1131 1.498 1_545 S
C1132 C1133 1.366 1_545 S
C1132 C1137 1.407 . S
C1133 C1132 1.366 1_565 S
C1133 C1134 1.392 . S
C1133 H1156 0.930 . S
C1134 C1133 1.392 . S
C1134 C1135 1.398 1_565 S
C1134 H1157 0.929 . S
C1135 C1134 1.398 1_545 S
C1135 C1136 1.352 . S
C1136 C1135 1.352 . S
C1136 C1137 1.384 . S
C1136 H1158 0.930 . S
C1137 C1132 1.407 . S
C1137 C1136 1.384 . S
C1137 H1159 0.929 . S
C1138 O1148 1.208 1_565 S
C1138 O1149 1.273 . S
C1139 O1150 1.251 . S
C1139 O1151 1.268 . S
O1140 Nd1120 2.500 . S
O1140 C1122 1.258 . S
O1141 Nd1120 2.492 . S
O1141 C1122 1.239 . S
O1142 Nd1120 2.487 . S
O1142 C1129 1.241 . S
O1143 Nd1120 2.682 . S
O1143 Nd1121 2.414 . S
O1143 C1129 1.273 . S
O1144 Nd1120 2.410 . S
O1144 C1130 1.251 . S
O1145 Nd1121 2.424 . S
O1145 C1130 1.268 . S
O1146 Nd1121 2.500 . S
O1146 C1131 1.258 . S
O1147 Nd1121 2.492 1_545 S
O1147 C1131 1.239 1_545 S
O1148 Nd1121 2.464 1_545 S
O1148 C1138 1.208 1_545 S
O1149 Nd1120 2.414 . S
O1149 Nd1121 2.682 . S
O1149 C1138 1.273 . S
O1150 Nd1121 2.410 . S
O1150 C1139 1.251 . S
O1151 Nd1120 2.424 . S
O1151 C1139 1.268 . S
H1152 C1124 0.930 . S
H1153 C1125 0.929 . S
H1154 C1127 0.930 . S
H1155 C1128 0.929 . S
H1156 C1133 0.930 . S
H1157 C1134 0.929 . S
H1158 C1136 0.930 . S
H1159 C1137 0.929 . S
Nd1160 C1162 2.836 . S
Nd1160 O1180 2.500 . S
Nd1160 O1181 2.492 . S
Nd1160 O1182 2.487 . S
Nd1160 O1183 2.682 1_556 S
Nd1160 O1184 2.410 . S
Nd1160 O1189 2.414 . S
Nd1160 O1191 2.424 1_556 S
Nd1161 C1171 2.836 . S
Nd1161 O1183 2.414 . S
Nd1161 O1185 2.424 1_554 S
Nd1161 O1186 2.500 . S
Nd1161 O1187 2.492 . S
Nd1161 O1188 2.487 . S
Nd1161 O1189 2.682 1_554 S
Nd1161 O1190 2.410 . S
C1162 Nd1160 2.836 . S
C1162 C1163 1.498 . S
C1162 O1180 1.258 . S
C1162 O1181 1.239 . S
C1163 C1162 1.498 . S
C1163 C1164 1.366 . S
C1163 C1168 1.407 . S
C1164 C1163 1.366 . S
C1164 C1165 1.392 . S
C1164 H1192 0.930 . S
C1165 C1164 1.392 . S
C1165 C1166 1.398 . S
C1165 H1193 0.929 . S
C1166 C1165 1.398 . S
C1166 C1167 1.352 . S
C1167 C1166 1.352 . S
C1167 C1168 1.384 . S
C1167 H1194 0.930 . S
C1168 C1163 1.407 . S
C1168 C1167 1.384 . S
C1168 H1195 0.929 . S
C1169 O1182 1.241 1_554 S
C1169 O1183 1.273 . S
C1170 O1184 1.251 . S
C1170 O1185 1.268 . S
C1171 Nd1161 2.836 . S
C1171 C1172 1.498 . S
C1171 O1186 1.258 . S
C1171 O1187 1.239 . S
C1172 C1171 1.498 . S
C1172 C1173 1.366 . S
C1172 C1177 1.407 . S
C1173 C1172 1.366 . S
C1173 C1174 1.392 . S
C1173 H1196 0.930 . S
C1174 C1173 1.392 . S
C1174 C1175 1.398 . S
C1174 H1197 0.929 . S
C1175 C1174 1.398 . S
C1175 C1176 1.352 . S
C1176 C1175 1.352 . S
C1176 C1177 1.384 . S
C1176 H1198 0.930 . S
C1177 C1172 1.407 . S
C1177 C1176 1.384 . S
C1177 H1199 0.929 . S
C1178 O1188 1.241 1_556 S
C1178 O1189 1.273 . S
C1179 O1190 1.251 . S
C1179 O1191 1.268 . S
O1180 Nd1160 2.500 . S
O1180 C1162 1.258 . S
O1181 Nd1160 2.492 . S
O1181 C1162 1.239 . S
O1182 Nd1160 2.487 . S
O1182 C1169 1.241 1_556 S
O1183 Nd1160 2.682 1_554 S
O1183 Nd1161 2.414 . S
O1183 C1169 1.273 . S
O1184 Nd1160 2.410 . S
O1184 C1170 1.251 . S
O1185 Nd1161 2.424 1_556 S
O1185 C1170 1.268 . S
O1186 Nd1161 2.500 . S
O1186 C1171 1.258 . S
O1187 Nd1161 2.492 . S
O1187 C1171 1.239 . S
O1188 Nd1161 2.487 . S
O1188 C1178 1.241 1_554 S
O1189 Nd1160 2.414 . S
O1189 Nd1161 2.682 1_556 S
O1189 C1178 1.273 . S
O1190 Nd1161 2.410 . S
O1190 C1179 1.251 . S
O1191 Nd1160 2.424 1_554 S
O1191 C1179 1.268 . S
H1192 C1164 0.930 . S
H1193 C1165 0.929 . S
H1194 C1167 0.930 . S
H1195 C1168 0.929 . S
H1196 C1173 0.930 . S
H1197 C1174 0.929 . S
H1198 C1176 0.930 . S
H1199 C1177 0.929 . S
Nd1200 C1202 2.836 . S
Nd1200 O1220 2.500 . S
Nd1200 O1221 2.492 . S
Nd1200 O1222 2.487 . S
Nd1200 O1223 2.682 . S
Nd1200 O1224 2.410 . S
Nd1200 O1229 2.414 . S
Nd1200 O1231 2.424 . S
Nd1201 C1211 2.836 . S
Nd1201 O1223 2.414 . S
Nd1201 O1225 2.424 . S
Nd1201 O1226 2.500 . S
Nd1201 O1227 2.492 1_545 S
Nd1201 O1228 2.465 1_545 S
Nd1201 O1229 2.682 . S
Nd1201 O1230 2.410 . S
C1202 Nd1200 2.836 . S
C1202 C1203 1.498 . S
C1202 O1220 1.258 . S
C1202 O1221 1.239 . S
C1203 C1202 1.498 . S
C1203 C1204 1.366 . S
C1203 C1208 1.407 . S
C1204 C1203 1.366 . S
C1204 C1205 1.392 . S
C1204 H1232 0.930 . S
C1205 C1204 1.392 . S
C1205 C1206 1.398 . S
C1205 H1233 0.929 . S
C1206 C1205 1.398 . S
C1206 C1207 1.352 . S
C1207 C1206 1.352 . S
C1207 C1208 1.384 . S
C1207 H1234 0.930 . S
C1208 C1203 1.407 . S
C1208 C1207 1.384 . S
C1208 H1235 0.929 . S
C1209 O1222 1.241 . S
C1209 O1223 1.273 . S
C1210 O1224 1.251 . S
C1210 O1225 1.268 . S
C1211 Nd1201 2.836 . S
C1211 C1212 1.498 1_545 S
C1211 O1226 1.258 . S
C1211 O1227 1.239 1_545 S
C1212 C1211 1.498 1_565 S
C1212 C1213 1.366 1_565 S
C1212 C1217 1.407 . S
C1213 C1212 1.366 1_545 S
C1213 C1214 1.392 . S
C1213 H1236 0.930 . S
C1214 C1213 1.392 . S
C1214 C1215 1.398 1_545 S
C1214 H1237 0.929 . S
C1215 C1214 1.398 1_565 S
C1215 C1216 1.352 . S
C1216 C1215 1.352 . S
C1216 C1217 1.384 . S
C1216 H1238 0.930 . S
C1217 C1212 1.407 . S
C1217 C1216 1.384 . S
C1217 H1239 0.929 . S
C1218 O1228 1.209 1_545 S
C1218 O1229 1.273 . S
C1219 O1230 1.251 . S
C1219 O1231 1.268 . S
O1220 Nd1200 2.500 . S
O1220 C1202 1.258 . S
O1221 Nd1200 2.492 . S
O1221 C1202 1.239 . S
O1222 Nd1200 2.487 . S
O1222 C1209 1.241 . S
O1223 Nd1200 2.682 . S
O1223 Nd1201 2.414 . S
O1223 C1209 1.273 . S
O1224 Nd1200 2.410 . S
O1224 C1210 1.251 . S
O1225 Nd1201 2.424 . S
O1225 C1210 1.268 . S
O1226 Nd1201 2.500 . S
O1226 C1211 1.258 . S
O1227 Nd1201 2.492 1_565 S
O1227 C1211 1.239 1_565 S
O1228 Nd1201 2.465 1_565 S
O1228 C1218 1.209 1_565 S
O1229 Nd1200 2.414 . S
O1229 Nd1201 2.682 . S
O1229 C1218 1.273 . S
O1230 Nd1201 2.410 . S
O1230 C1219 1.251 . S
O1231 Nd1200 2.424 . S
O1231 C1219 1.268 . S
H1232 C1204 0.930 . S
H1233 C1205 0.929 . S
H1234 C1207 0.930 . S
H1235 C1208 0.929 . S
H1236 C1213 0.930 . S
H1237 C1214 0.929 . S
H1238 C1216 0.930 . S
H1239 C1217 0.929 . S
Nd1240 C1242 2.836 . S
Nd1240 O1260 2.500 . S
Nd1240 O1261 2.492 . S
Nd1240 O1262 2.487 . S
Nd1240 O1263 2.682 . S
Nd1240 O1264 2.410 . S
Nd1240 O1269 2.414 . S
Nd1240 O1271 2.424 . S
Nd1241 C1251 2.836 . S
Nd1241 O1263 2.414 . S
Nd1241 O1265 2.424 . S
Nd1241 O1266 2.500 . S
Nd1241 O1267 2.492 . S
Nd1241 O1268 2.487 . S
Nd1241 O1269 2.682 . S
Nd1241 O1270 2.410 . S
C1242 Nd1240 2.836 . S
C1242 C1243 1.498 . S
C1242 O1260 1.258 . S
C1242 O1261 1.239 . S
C1243 C1242 1.498 . S
C1243 C1244 1.366 . S
C1243 C1248 1.407 . S
C1244 C1243 1.366 . S
C1244 C1245 1.392 . S
C1244 H1272 0.930 . S
C1245 C1244 1.392 . S
C1245 C1246 1.398 . S
C1245 H1273 0.929 . S
C1246 C1245 1.398 . S
C1246 C1247 1.352 . S
C1247 C1246 1.352 . S
C1247 C1248 1.384 . S
C1247 H1274 0.930 . S
C1248 C1243 1.407 . S
C1248 C1247 1.384 . S
C1248 H1275 0.929 . S
C1249 O1262 1.241 . S
C1249 O1263 1.273 . S
C1250 O1264 1.251 . S
C1250 O1265 1.268 . S
C1251 Nd1241 2.836 . S
C1251 C1252 1.498 . S
C1251 O1266 1.258 . S
C1251 O1267 1.239 . S
C1252 C1251 1.498 . S
C1252 C1253 1.366 . S
C1252 C1257 1.407 . S
C1253 C1252 1.366 . S
C1253 C1254 1.392 . S
C1253 H1276 0.930 . S
C1254 C1253 1.392 . S
C1254 C1255 1.398 . S
C1254 H1277 0.929 . S
C1255 C1254 1.398 . S
C1255 C1256 1.352 . S
C1256 C1255 1.352 . S
C1256 C1257 1.384 . S
C1256 H1278 0.930 . S
C1257 C1252 1.407 . S
C1257 C1256 1.384 . S
C1257 H1279 0.929 . S
C1258 O1268 1.241 . S
C1258 O1269 1.273 . S
C1259 O1270 1.251 . S
C1259 O1271 1.268 . S
O1260 Nd1240 2.500 . S
O1260 C1242 1.258 . S
O1261 Nd1240 2.492 . S
O1261 C1242 1.239 . S
O1262 Nd1240 2.487 . S
O1262 C1249 1.241 . S
O1263 Nd1240 2.682 . S
O1263 Nd1241 2.414 . S
O1263 C1249 1.273 . S
O1264 Nd1240 2.410 . S
O1264 C1250 1.251 . S
O1265 Nd1241 2.424 . S
O1265 C1250 1.268 . S
O1266 Nd1241 2.500 . S
O1266 C1251 1.258 . S
O1267 Nd1241 2.492 . S
O1267 C1251 1.239 . S
O1268 Nd1241 2.487 . S
O1268 C1258 1.241 . S
O1269 Nd1240 2.414 . S
O1269 Nd1241 2.682 . S
O1269 C1258 1.273 . S
O1270 Nd1241 2.410 . S
O1270 C1259 1.251 . S
O1271 Nd1240 2.424 . S
O1271 C1259 1.268 . S
H1272 C1244 0.930 . S
H1273 C1245 0.929 . S
H1274 C1247 0.930 . S
H1275 C1248 0.929 . S
H1276 C1253 0.930 . S
H1277 C1254 0.929 . S
H1278 C1256 0.930 . S
H1279 C1257 0.929 . S
C1280 C1281 1.391 . S
C1280 C1282 1.394 . S
C1280 H1296 0.931 . S
C1281 C1280 1.391 . S
C1281 C1285 1.376 . S
C1282 C1280 1.394 . S
C1282 C1283 1.369 . S
C1282 C1286 1.531 . S
C1283 C1282 1.369 . S
C1283 C1284 1.410 . S
C1283 C1291 1.503 . S
C1284 C1283 1.410 . S
C1284 C1285 1.392 . S
C1284 C1287 1.511 . S
C1285 C1281 1.376 . S
C1285 C1284 1.392 . S
C1285 H1297 0.929 . S
C1286 C1282 1.531 . S
C1286 H1298 0.960 . S
C1286 H1299 0.962 . S
C1286 H1300 0.960 . S
C1287 C1284 1.511 . S
C1287 H1301 0.961 . S
C1287 H1302 0.961 . S
C1287 H1303 0.961 . S
C1288 C1289 1.370 . S
C1288 C1290 1.363 . S
C1288 H1304 0.931 . S
C1289 C1288 1.370 . S
C1289 C1293 1.408 . S
C1290 C1288 1.363 . S
C1290 C1291 1.370 . S
C1290 C1294 1.524 . S
C1291 C1283 1.503 . S
C1291 C1290 1.370 . S
C1291 C1292 1.403 . S
C1292 C1291 1.403 . S
C1292 C1293 1.404 . S
C1292 C1295 1.539 . S
C1293 C1289 1.408 . S
C1293 C1292 1.404 . S
C1293 H1305 0.930 . S
C1294 C1290 1.524 . S
C1294 H1306 0.956 . S
C1294 H1307 0.961 . S
C1294 H1308 0.961 . S
C1295 C1292 1.539 . S
C1295 H1309 0.958 . S
C1295 H1310 0.961 . S
C1295 H1311 0.960 . S
H1296 C1280 0.931 . S
H1297 C1285 0.929 . S
H1298 C1286 0.960 . S
H1299 C1286 0.962 . S
H1300 C1286 0.960 . S
H1301 C1287 0.961 . S
H1302 C1287 0.961 . S
H1303 C1287 0.961 . S
H1304 C1288 0.931 . S
H1305 C1293 0.930 . S
H1306 C1294 0.956 . S
H1307 C1294 0.961 . S
H1308 C1294 0.961 . S
H1309 C1295 0.958 . S
H1310 C1295 0.961 . S
H1311 C1295 0.960 . S
C1312 C1313 1.391 . S
C1312 C1314 1.394 . S
C1312 H1328 0.931 . S
C1313 C1312 1.391 . S
C1313 C1317 1.376 . S
C1314 C1312 1.394 . S
C1314 C1315 1.369 . S
C1314 C1318 1.531 . S
C1315 C1314 1.369 . S
C1315 C1316 1.410 . S
C1315 C1323 1.503 . S
C1316 C1315 1.410 . S
C1316 C1317 1.392 . S
C1316 C1319 1.511 . S
C1317 C1313 1.376 . S
C1317 C1316 1.392 . S
C1317 H1329 0.929 . S
C1318 C1314 1.531 . S
C1318 H1330 0.960 . S
C1318 H1331 0.962 . S
C1318 H1332 0.960 . S
C1319 C1316 1.511 . S
C1319 H1333 0.961 . S
C1319 H1334 0.961 . S
C1319 H1335 0.961 . S
C1320 C1321 1.370 . S
C1320 C1322 1.363 . S
C1320 H1336 0.931 . S
C1321 C1320 1.370 . S
C1321 C1325 1.408 . S
C1322 C1320 1.363 . S
C1322 C1323 1.370 . S
C1322 C1326 1.524 . S
C1323 C1315 1.503 . S
C1323 C1322 1.370 . S
C1323 C1324 1.403 . S
C1324 C1323 1.403 . S
C1324 C1325 1.404 . S
C1324 C1327 1.539 . S
C1325 C1321 1.408 . S
C1325 C1324 1.404 . S
C1325 H1337 0.930 . S
C1326 C1322 1.524 . S
C1326 H1338 0.956 . S
C1326 H1339 0.961 . S
C1326 H1340 0.961 . S
C1327 C1324 1.539 . S
C1327 H1341 0.958 . S
C1327 H1342 0.961 . S
C1327 H1343 0.960 . S
H1328 C1312 0.931 . S
H1329 C1317 0.929 . S
H1330 C1318 0.960 . S
H1331 C1318 0.962 . S
H1332 C1318 0.960 . S
H1333 C1319 0.961 . S
H1334 C1319 0.961 . S
H1335 C1319 0.961 . S
H1336 C1320 0.931 . S
H1337 C1325 0.930 . S
H1338 C1326 0.956 . S
H1339 C1326 0.961 . S
H1340 C1326 0.961 . S
H1341 C1327 0.958 . S
H1342 C1327 0.961 . S
H1343 C1327 0.960 . S
C1344 C1345 1.391 . S
C1344 C1346 1.394 . S
C1344 H1360 0.931 . S
C1345 C1344 1.391 . S
C1345 C1349 1.376 . S
C1346 C1344 1.394 . S
C1346 C1347 1.369 . S
C1346 C1350 1.531 . S
C1347 C1346 1.369 . S
C1347 C1348 1.410 . S
C1347 C1355 1.503 . S
C1348 C1347 1.410 . S
C1348 C1349 1.392 . S
C1348 C1351 1.511 . S
C1349 C1345 1.376 . S
C1349 C1348 1.392 . S
C1349 H1361 0.929 . S
C1350 C1346 1.531 . S
C1350 H1362 0.960 . S
C1350 H1363 0.962 . S
C1350 H1364 0.960 . S
C1351 C1348 1.511 . S
C1351 H1365 0.961 . S
C1351 H1366 0.961 . S
C1351 H1367 0.961 . S
C1352 C1353 1.370 . S
C1352 C1354 1.363 . S
C1352 H1368 0.931 . S
C1353 C1352 1.370 . S
C1353 C1357 1.408 . S
C1354 C1352 1.363 . S
C1354 C1355 1.370 . S
C1354 C1358 1.524 . S
C1355 C1347 1.503 . S
C1355 C1354 1.370 . S
C1355 C1356 1.403 . S
C1356 C1355 1.403 . S
C1356 C1357 1.404 . S
C1356 C1359 1.539 . S
C1357 C1353 1.408 . S
C1357 C1356 1.404 . S
C1357 H1369 0.930 . S
C1358 C1354 1.524 . S
C1358 H1370 0.956 . S
C1358 H1371 0.961 . S
C1358 H1372 0.961 . S
C1359 C1356 1.539 . S
C1359 H1373 0.958 . S
C1359 H1374 0.961 . S
C1359 H1375 0.960 . S
H1360 C1344 0.931 . S
H1361 C1349 0.929 . S
H1362 C1350 0.960 . S
H1363 C1350 0.962 . S
H1364 C1350 0.960 . S
H1365 C1351 0.961 . S
H1366 C1351 0.961 . S
H1367 C1351 0.961 . S
H1368 C1352 0.931 . S
H1369 C1357 0.930 . S
H1370 C1358 0.956 . S
H1371 C1358 0.961 . S
H1372 C1358 0.961 . S
H1373 C1359 0.958 . S
H1374 C1359 0.961 . S
H1375 C1359 0.960 . S
C1376 C1377 1.391 . S
C1376 C1378 1.394 . S
C1376 H1392 0.931 . S
C1377 C1376 1.391 . S
C1377 C1381 1.376 . S
C1378 C1376 1.394 . S
C1378 C1379 1.369 . S
C1378 C1382 1.531 . S
C1379 C1378 1.369 . S
C1379 C1380 1.410 . S
C1379 C1387 1.503 . S
C1380 C1379 1.410 . S
C1380 C1381 1.392 . S
C1380 C1383 1.511 . S
C1381 C1377 1.376 . S
C1381 C1380 1.392 . S
C1381 H1393 0.929 . S
C1382 C1378 1.531 . S
C1382 H1394 0.960 1_554 S
C1382 H1395 0.962 . S
C1382 H1396 0.960 . S
C1383 C1380 1.511 . S
C1383 H1397 0.961 . S
C1383 H1398 0.961 . S
C1383 H1399 0.961 . S
C1384 C1385 1.370 . S
C1384 C1386 1.382 . S
C1384 H1400 0.931 . S
C1385 C1384 1.370 . S
C1385 C1389 1.408 . S
C1386 C1384 1.382 . S
C1386 C1387 1.364 1_556 S
C1386 C1390 1.512 1_556 S
C1387 C1379 1.503 . S
C1387 C1386 1.364 1_554 S
C1387 C1388 1.403 1_554 S
C1388 C1387 1.403 1_556 S
C1388 C1389 1.404 . S
C1388 C1391 1.539 1_556 S
C1389 C1385 1.408 . S
C1389 C1388 1.404 . S
C1389 H1401 0.930 . S
C1390 C1386 1.512 1_554 S
C1390 H1402 0.956 . S
C1390 H1403 0.961 . S
C1390 H1404 0.961 . S
C1391 C1388 1.539 1_554 S
C1391 H1405 0.958 1_554 S
C1391 H1406 0.961 1_554 S
C1391 H1407 0.960 . S
H1392 C1376 0.931 . S
H1393 C1381 0.929 . S
H1394 C1382 0.960 1_556 S
H1395 C1382 0.962 . S
H1396 C1382 0.960 . S
H1397 C1383 0.961 . S
H1398 C1383 0.961 . S
H1399 C1383 0.961 . S
H1400 C1384 0.931 . S
H1401 C1389 0.930 . S
H1402 C1390 0.956 . S
H1403 C1390 0.961 . S
H1404 C1390 0.961 . S
H1405 C1391 0.958 1_556 S
H1406 C1391 0.961 1_556 S
H1407 C1391 0.960 . S
C1408 C1409 1.391 . S
C1408 C1410 1.394 . S
C1408 H1424 0.931 . S
C1409 C1408 1.391 . S
C1409 C1413 1.376 . S
C1410 C1408 1.394 . S
C1410 C1411 1.369 . S
C1410 C1414 1.531 . S
C1411 C1410 1.369 . S
C1411 C1412 1.410 . S
C1411 C1419 1.503 . S
C1412 C1411 1.410 . S
C1412 C1413 1.392 . S
C1412 C1415 1.511 . S
C1413 C1409 1.376 . S
C1413 C1412 1.392 . S
C1413 H1425 0.929 . S
C1414 C1410 1.531 . S
C1414 H1426 0.960 . S
C1414 H1427 0.962 . S
C1414 H1428 0.960 . S
C1415 C1412 1.511 . S
C1415 H1429 0.961 . S
C1415 H1430 0.961 . S
C1415 H1431 0.961 . S
C1416 C1417 1.370 . S
C1416 C1418 1.363 1_556 S
C1416 H1432 0.931 . S
C1417 C1416 1.370 . S
C1417 C1421 1.408 . S
C1418 C1416 1.363 1_554 S
C1418 C1419 1.370 . S
C1418 C1422 1.524 . S
C1419 C1411 1.503 . S
C1419 C1418 1.370 . S
C1419 C1420 1.403 1_554 S
C1420 C1419 1.403 1_556 S
C1420 C1421 1.404 . S
C1420 C1423 1.539 1_556 S
C1421 C1417 1.408 . S
C1421 C1420 1.404 . S
C1421 H1433 0.930 . S
C1422 C1418 1.524 . S
C1422 H1434 0.956 . S
C1422 H1435 0.961 . S
C1422 H1436 0.961 . S
C1423 C1420 1.539 1_554 S
C1423 H1437 0.958 1_554 S
C1423 H1438 0.961 1_554 S
C1423 H1439 0.960 . S
H1424 C1408 0.931 . S
H1425 C1413 0.929 . S
H1426 C1414 0.960 . S
H1427 C1414 0.962 . S
H1428 C1414 0.960 . S
H1429 C1415 0.961 . S
H1430 C1415 0.961 . S
H1431 C1415 0.961 . S
H1432 C1416 0.931 . S
H1433 C1421 0.930 . S
H1434 C1422 0.956 . S
H1435 C1422 0.961 . S
H1436 C1422 0.961 . S
H1437 C1423 0.958 1_556 S
H1438 C1423 0.961 1_556 S
H1439 C1423 0.960 . S
C1440 C1441 1.391 . S
C1440 C1442 1.394 . S
C1440 H1456 0.931 . S
C1441 C1440 1.391 . S
C1441 C1445 1.376 . S
C1442 C1440 1.394 . S
C1442 C1443 1.369 . S
C1442 C1446 1.531 . S
C1443 C1442 1.369 . S
C1443 C1444 1.410 . S
C1443 C1451 1.503 . S
C1444 C1443 1.410 . S
C1444 C1445 1.392 . S
C1444 C1447 1.511 . S
C1445 C1441 1.376 . S
C1445 C1444 1.392 . S
C1445 H1457 0.929 . S
C1446 C1442 1.531 . S
C1446 H1458 0.960 . S
C1446 H1459 0.962 . S
C1446 H1460 0.960 . S
C1447 C1444 1.511 . S
C1447 H1461 0.961 . S
C1447 H1462 0.961 . S
C1447 H1463 0.961 . S
C1448 C1449 1.370 . S
C1448 C1450 1.363 . S
C1448 H1464 0.931 . S
C1449 C1448 1.370 . S
C1449 C1453 1.408 . S
C1450 C1448 1.363 . S
C1450 C1451 1.370 . S
C1450 C1454 1.524 . S
C1451 C1443 1.503 . S
C1451 C1450 1.370 . S
C1451 C1452 1.403 . S
C1452 C1451 1.403 . S
C1452 C1453 1.404 . S
C1452 C1455 1.539 . S
C1453 C1449 1.408 . S
C1453 C1452 1.404 . S
C1453 H1465 0.930 . S
C1454 C1450 1.524 . S
C1454 H1466 0.956 . S
C1454 H1467 0.961 . S
C1454 H1468 0.961 . S
C1455 C1452 1.539 . S
C1455 H1469 0.958 . S
C1455 H1470 0.961 . S
C1455 H1471 0.960 . S
H1456 C1440 0.931 . S
H1457 C1445 0.929 . S
H1458 C1446 0.960 . S
H1459 C1446 0.962 . S
H1460 C1446 0.960 . S
H1461 C1447 0.961 . S
H1462 C1447 0.961 . S
H1463 C1447 0.961 . S
H1464 C1448 0.931 . S
H1465 C1453 0.930 . S
H1466 C1454 0.956 . S
H1467 C1454 0.961 . S
H1468 C1454 0.961 . S
H1469 C1455 0.958 . S
H1470 C1455 0.961 . S
H1471 C1455 0.960 . S
C1472 C1473 1.391 . S
C1472 C1474 1.394 . S
C1472 H1488 0.931 . S
C1473 C1472 1.391 . S
C1473 C1477 1.376 . S
C1474 C1472 1.394 . S
C1474 C1475 1.369 . S
C1474 C1478 1.531 . S
C1475 C1474 1.369 . S
C1475 C1476 1.410 . S
C1475 C1483 1.503 . S
C1476 C1475 1.410 . S
C1476 C1477 1.392 . S
C1476 C1479 1.511 . S
C1477 C1473 1.376 . S
C1477 C1476 1.392 . S
C1477 H1489 0.929 . S
C1478 C1474 1.531 . S
C1478 H1490 0.960 . S
C1478 H1491 0.962 . S
C1478 H1492 0.960 . S
C1479 C1476 1.511 . S
C1479 H1493 0.961 . S
C1479 H1494 0.961 . S
C1479 H1495 0.961 . S
C1480 C1481 1.370 . S
C1480 C1482 1.363 . S
C1480 H1496 0.931 . S
C1481 C1480 1.370 . S
C1481 C1485 1.408 . S
C1482 C1480 1.363 . S
C1482 C1483 1.370 . S
C1482 C1486 1.524 . S
C1483 C1475 1.503 . S
C1483 C1482 1.370 . S
C1483 C1484 1.403 . S
C1484 C1483 1.403 . S
C1484 C1485 1.404 . S
C1484 C1487 1.539 . S
C1485 C1481 1.408 . S
C1485 C1484 1.404 . S
C1485 H1497 0.930 . S
C1486 C1482 1.524 . S
C1486 H1498 0.956 . S
C1486 H1499 0.961 . S
C1486 H1500 0.961 . S
C1487 C1484 1.539 . S
C1487 H1501 0.958 . S
C1487 H1502 0.961 . S
C1487 H1503 0.960 . S
H1488 C1472 0.931 . S
H1489 C1477 0.929 . S
H1490 C1478 0.960 . S
H1491 C1478 0.962 . S
H1492 C1478 0.960 . S
H1493 C1479 0.961 . S
H1494 C1479 0.961 . S
H1495 C1479 0.961 . S
H1496 C1480 0.931 . S
H1497 C1485 0.930 . S
H1498 C1486 0.956 . S
H1499 C1486 0.961 . S
H1500 C1486 0.961 . S
H1501 C1487 0.958 . S
H1502 C1487 0.961 . S
H1503 C1487 0.960 . S
C1504 C1505 1.391 . S
C1504 C1506 1.394 . S
C1504 H1520 0.931 . S
C1505 C1504 1.391 . S
C1505 C1509 1.376 . S
C1506 C1504 1.394 . S
C1506 C1507 1.369 . S
C1506 C1510 1.531 . S
C1507 C1506 1.369 . S
C1507 C1508 1.410 . S
C1507 C1515 1.503 . S
C1508 C1507 1.410 . S
C1508 C1509 1.392 . S
C1508 C1511 1.511 . S
C1509 C1505 1.376 . S
C1509 C1508 1.392 . S
C1509 H1521 0.929 . S
C1510 C1506 1.531 . S
C1510 H1522 0.960 . S
C1510 H1523 0.962 . S
C1510 H1524 0.960 . S
C1511 C1508 1.511 . S
C1511 H1525 0.961 . S
C1511 H1526 0.961 . S
C1511 H1527 0.961 . S
C1512 C1513 1.370 . S
C1512 C1514 1.363 . S
C1512 H1528 0.931 . S
C1513 C1512 1.370 . S
C1513 C1517 1.408 . S
C1514 C1512 1.363 . S
C1514 C1515 1.370 . S
C1514 C1518 1.524 . S
C1515 C1507 1.503 . S
C1515 C1514 1.370 . S
C1515 C1516 1.403 . S
C1516 C1515 1.403 . S
C1516 C1517 1.404 . S
C1516 C1519 1.539 . S
C1517 C1513 1.408 . S
C1517 C1516 1.404 . S
C1517 H1529 0.930 . S
C1518 C1514 1.524 . S
C1518 H1530 0.956 . S
C1518 H1531 0.961 . S
C1518 H1532 0.961 . S
C1519 C1516 1.539 . S
C1519 H1533 0.958 . S
C1519 H1534 0.961 . S
C1519 H1535 0.960 . S
H1520 C1504 0.931 . S
H1521 C1509 0.929 . S
H1522 C1510 0.960 . S
H1523 C1510 0.962 . S
H1524 C1510 0.960 . S
H1525 C1511 0.961 . S
H1526 C1511 0.961 . S
H1527 C1511 0.961 . S
H1528 C1512 0.931 . S
H1529 C1517 0.930 . S
H1530 C1518 0.956 . S
H1531 C1518 0.961 . S
H1532 C1518 0.961 . S
H1533 C1519 0.958 . S
H1534 C1519 0.961 . S
H1535 C1519 0.960 . S
C1536 C1537 1.391 . S
C1536 C1538 1.394 . S
C1536 H1552 0.931 . S
C1537 C1536 1.391 . S
C1537 C1541 1.376 . S
C1538 C1536 1.394 . S
C1538 C1539 1.369 . S
C1538 C1542 1.531 . S
C1539 C1538 1.369 . S
C1539 C1540 1.410 . S
C1539 C1547 1.503 . S
C1540 C1539 1.410 . S
C1540 C1541 1.392 . S
C1540 C1543 1.511 . S
C1541 C1537 1.376 . S
C1541 C1540 1.392 . S
C1541 H1553 0.929 1_565 S
C1542 C1538 1.531 . S
C1542 H1554 0.960 . S
C1542 H1555 0.962 . S
C1542 H1556 0.960 . S
C1543 C1540 1.511 . S
C1543 H1557 0.961 1_565 S
C1543 H1558 0.961 . S
C1543 H1559 0.961 . S
C1544 C1545 1.370 . S
C1544 C1546 1.363 . S
C1544 H1560 0.931 . S
C1545 C1544 1.370 . S
C1545 C1549 1.408 . S
C1546 C1544 1.363 . S
C1546 C1547 1.370 . S
C1546 C1550 1.524 . S
C1547 C1539 1.503 . S
C1547 C1546 1.370 . S
C1547 C1548 1.403 . S
C1548 C1547 1.403 . S
C1548 C1549 1.404 . S
C1548 C1551 1.539 . S
C1549 C1545 1.408 . S
C1549 C1548 1.404 . S
C1549 H1561 0.930 . S
C1550 C1546 1.524 . S
C1550 H1562 0.956 . S
C1550 H1563 0.961 . S
C1550 H1564 0.961 . S
C1551 C1548 1.539 . S
C1551 H1565 0.958 . S
C1551 H1566 0.961 . S
C1551 H1567 0.960 . S
H1552 C1536 0.931 . S
H1553 C1541 0.929 1_545 S
H1554 C1542 0.960 . S
H1555 C1542 0.962 . S
H1556 C1542 0.960 . S
H1557 C1543 0.961 1_545 S
H1558 C1543 0.961 . S
H1559 C1543 0.961 . S
H1560 C1544 0.931 . S
H1561 C1549 0.930 . S
H1562 C1550 0.956 . S
H1563 C1550 0.961 . S
H1564 C1550 0.961 . S
H1565 C1551 0.958 . S
H1566 C1551 0.961 . S
H1567 C1551 0.960 . S
C1568 C1569 1.391 . S
C1568 C1570 1.394 . S
C1568 H1584 0.931 . S
C1569 C1568 1.391 . S
C1569 C1573 1.376 . S
C1570 C1568 1.394 . S
C1570 C1571 1.369 1_556 S
C1570 C1574 1.531 1_556 S
C1571 C1570 1.369 1_554 S
C1571 C1572 1.410 . S
C1571 C1579 1.503 . S
C1572 C1571 1.410 . S
C1572 C1573 1.392 1_554 S
C1572 C1575 1.511 . S
C1573 C1569 1.376 . S
C1573 C1572 1.392 1_556 S
C1573 H1585 0.929 . S
C1574 C1570 1.531 1_554 S
C1574 H1586 0.960 . S
C1574 H1587 0.962 . S
C1574 H1588 0.960 1_554 S
C1575 C1572 1.511 . S
C1575 H1589 0.961 . S
C1575 H1590 0.961 . S
C1575 H1591 0.961 . S
C1576 C1577 1.370 . S
C1576 C1578 1.363 . S
C1576 H1592 0.931 . S
C1577 C1576 1.370 . S
C1577 C1581 1.408 . S
C1578 C1576 1.363 . S
C1578 C1579 1.370 . S
C1578 C1582 1.524 . S
C1579 C1571 1.503 . S
C1579 C1578 1.370 . S
C1579 C1580 1.403 . S
C1580 C1579 1.403 . S
C1580 C1581 1.404 . S
C1580 C1583 1.539 . S
C1581 C1577 1.408 . S
C1581 C1580 1.404 . S
C1581 H1593 0.930 . S
C1582 C1578 1.524 . S
C1582 H1594 0.956 . S
C1582 H1595 0.961 . S
C1582 H1596 0.961 . S
C1583 C1580 1.539 . S
C1583 H1597 0.958 . S
C1583 H1598 0.961 . S
C1583 H1599 0.960 . S
H1584 C1568 0.931 . S
H1585 C1573 0.929 . S
H1586 C1574 0.960 . S
H1587 C1574 0.962 . S
H1588 C1574 0.960 1_556 S
H1589 C1575 0.961 . S
H1590 C1575 0.961 . S
H1591 C1575 0.961 . S
H1592 C1576 0.931 . S
H1593 C1581 0.930 . S
H1594 C1582 0.956 . S
H1595 C1582 0.961 . S
H1596 C1582 0.961 . S
H1597 C1583 0.958 . S
H1598 C1583 0.961 . S
H1599 C1583 0.960 . S
C1600 C1601 1.391 . S
C1600 C1602 1.394 . S
C1600 H1616 0.931 . S
C1601 C1600 1.391 . S
C1601 C1605 1.376 . S
C1602 C1600 1.394 . S
C1602 C1603 1.369 . S
C1602 C1606 1.531 . S
C1603 C1602 1.369 . S
C1603 C1604 1.410 . S
C1603 C1611 1.503 . S
C1604 C1603 1.410 . S
C1604 C1605 1.392 . S
C1604 C1607 1.511 . S
C1605 C1601 1.376 . S
C1605 C1604 1.392 . S
C1605 H1617 0.929 . S
C1606 C1602 1.531 . S
C1606 H1618 0.960 . S
C1606 H1619 0.962 . S
C1606 H1620 0.960 . S
C1607 C1604 1.511 . S
C1607 H1621 0.961 . S
C1607 H1622 0.961 . S
C1607 H1623 0.961 . S
C1608 C1609 1.370 . S
C1608 C1610 1.363 . S
C1608 H1624 0.931 1_545 S
C1609 C1608 1.370 . S
C1609 C1613 1.408 . S
C1610 C1608 1.363 . S
C1610 C1611 1.370 . S
C1610 C1614 1.524 . S
C1611 C1603 1.503 . S
C1611 C1610 1.370 . S
C1611 C1612 1.403 . S
C1612 C1611 1.403 . S
C1612 C1613 1.404 . S
C1612 C1615 1.539 . S
C1613 C1609 1.408 . S
C1613 C1612 1.404 . S
C1613 H1625 0.930 . S
C1614 C1610 1.524 . S
C1614 H1626 0.956 . S
C1614 H1627 0.961 . S
C1614 H1628 0.961 1_545 S
C1615 C1612 1.539 . S
C1615 H1629 0.958 . S
C1615 H1630 0.961 . S
C1615 H1631 0.960 . S
H1616 C1600 0.931 . S
H1617 C1605 0.929 . S
H1618 C1606 0.960 . S
H1619 C1606 0.962 . S
H1620 C1606 0.960 . S
H1621 C1607 0.961 . S
H1622 C1607 0.961 . S
H1623 C1607 0.961 . S
H1624 C1608 0.931 1_565 S
H1625 C1613 0.930 . S
H1626 C1614 0.956 . S
H1627 C1614 0.961 . S
H1628 C1614 0.961 1_565 S
H1629 C1615 0.958 . S
H1630 C1615 0.961 . S
H1631 C1615 0.960 . S
C1632 C1633 1.391 . S
C1632 C1634 1.394 . S
C1632 H1648 0.931 . S
C1633 C1632 1.391 . S
C1633 C1637 1.376 . S
C1634 C1632 1.394 . S
C1634 C1635 1.369 . S
C1634 C1638 1.531 . S
C1635 C1634 1.369 . S
C1635 C1636 1.410 . S
C1635 C1643 1.503 . S
C1636 C1635 1.410 . S
C1636 C1637 1.392 . S
C1636 C1639 1.511 . S
C1637 C1633 1.376 . S
C1637 C1636 1.392 . S
C1637 H1649 0.929 . S
C1638 C1634 1.531 . S
C1638 H1650 0.960 . S
C1638 H1651 0.962 . S
C1638 H1652 0.960 . S
C1639 C1636 1.511 . S
C1639 H1653 0.961 . S
C1639 H1654 0.961 . S
C1639 H1655 0.961 . S
C1640 C1641 1.370 . S
C1640 C1642 1.363 . S
C1640 H1656 0.931 . S
C1641 C1640 1.370 . S
C1641 C1645 1.408 . S
C1642 C1640 1.363 . S
C1642 C1643 1.370 . S
C1642 C1646 1.524 . S
C1643 C1635 1.503 . S
C1643 C1642 1.370 . S
C1643 C1644 1.403 . S
C1644 C1643 1.403 . S
C1644 C1645 1.404 . S
C1644 C1647 1.539 . S
C1645 C1641 1.408 . S
C1645 C1644 1.404 . S
C1645 H1657 0.930 . S
C1646 C1642 1.524 . S
C1646 H1658 0.956 . S
C1646 H1659 0.961 . S
C1646 H1660 0.961 . S
C1647 C1644 1.539 . S
C1647 H1661 0.958 . S
C1647 H1662 0.961 . S
C1647 H1663 0.960 . S
H1648 C1632 0.931 . S
H1649 C1637 0.929 . S
H1650 C1638 0.960 . S
H1651 C1638 0.962 . S
H1652 C1638 0.960 . S
H1653 C1639 0.961 . S
H1654 C1639 0.961 . S
H1655 C1639 0.961 . S
H1656 C1640 0.931 . S
H1657 C1645 0.930 . S
H1658 C1646 0.956 . S
H1659 C1646 0.961 . S
H1660 C1646 0.961 . S
H1661 C1647 0.958 . S
H1662 C1647 0.961 . S
H1663 C1647 0.960 . S
C1664 C1665 1.391 . S
C1664 C1666 1.394 . S
C1664 H1680 0.931 . S
C1665 C1664 1.391 . S
C1665 C1669 1.376 . S
C1666 C1664 1.394 . S
C1666 C1667 1.369 . S
C1666 C1670 1.531 . S
C1667 C1666 1.369 . S
C1667 C1668 1.410 . S
C1667 C1675 1.503 . S
C1668 C1667 1.410 . S
C1668 C1669 1.392 . S
C1668 C1671 1.511 . S
C1669 C1665 1.376 . S
C1669 C1668 1.392 . S
C1669 H1681 0.929 . S
C1670 C1666 1.531 . S
C1670 H1682 0.960 . S
C1670 H1683 0.962 . S
C1670 H1684 0.960 . S
C1671 C1668 1.511 . S
C1671 H1685 0.961 . S
C1671 H1686 0.961 . S
C1671 H1687 0.961 . S
C1672 C1673 1.370 . S
C1672 C1674 1.363 . S
C1672 H1688 0.931 . S
C1673 C1672 1.370 . S
C1673 C1677 1.408 . S
C1674 C1672 1.363 . S
C1674 C1675 1.370 . S
C1674 C1678 1.524 . S
C1675 C1667 1.503 . S
C1675 C1674 1.370 . S
C1675 C1676 1.403 . S
C1676 C1675 1.403 . S
C1676 C1677 1.404 . S
C1676 C1679 1.539 1_545 S
C1677 C1673 1.408 . S
C1677 C1676 1.404 . S
C1677 H1689 0.930 1_545 S
C1678 C1674 1.524 . S
C1678 H1690 0.956 . S
C1678 H1691 0.961 . S
C1678 H1692 0.961 . S
C1679 C1676 1.539 1_565 S
C1679 H1693 0.958 . S
C1679 H1694 0.961 . S
C1679 H1695 0.960 1_565 S
H1680 C1664 0.931 . S
H1681 C1669 0.929 . S
H1682 C1670 0.960 . S
H1683 C1670 0.962 . S
H1684 C1670 0.960 . S
H1685 C1671 0.961 . S
H1686 C1671 0.961 . S
H1687 C1671 0.961 . S
H1688 C1672 0.931 . S
H1689 C1677 0.930 1_565 S
H1690 C1678 0.956 . S
H1691 C1678 0.961 . S
H1692 C1678 0.961 . S
H1693 C1679 0.958 . S
H1694 C1679 0.961 . S
H1695 C1679 0.960 1_545 S
C1696 C1697 1.391 . S
C1696 C1698 1.394 . S
C1696 H1712 0.931 . S
C1697 C1696 1.391 . S
C1697 C1701 1.376 . S
C1698 C1696 1.394 . S
C1698 C1699 1.369 . S
C1698 C1702 1.531 . S
C1699 C1698 1.369 . S
C1699 C1700 1.410 . S
C1699 C1707 1.503 . S
C1700 C1699 1.410 . S
C1700 C1701 1.392 . S
C1700 C1703 1.511 . S
C1701 C1697 1.376 . S
C1701 C1700 1.392 . S
C1701 H1713 0.929 . S
C1702 C1698 1.531 . S
C1702 H1714 0.960 . S
C1702 H1715 0.962 . S
C1702 H1716 0.960 . S
C1703 C1700 1.511 . S
C1703 H1717 0.961 . S
C1703 H1718 0.961 . S
C1703 H1719 0.961 . S
C1704 C1705 1.370 . S
C1704 C1706 1.363 . S
C1704 H1720 0.931 . S
C1705 C1704 1.370 . S
C1705 C1709 1.408 . S
C1706 C1704 1.363 . S
C1706 C1707 1.370 . S
C1706 C1710 1.524 . S
C1707 C1699 1.503 . S
C1707 C1706 1.370 . S
C1707 C1708 1.403 . S
C1708 C1707 1.403 . S
C1708 C1709 1.404 . S
C1708 C1711 1.539 . S
C1709 C1705 1.408 . S
C1709 C1708 1.404 . S
C1709 H1721 0.930 . S
C1710 C1706 1.524 . S
C1710 H1722 0.956 . S
C1710 H1723 0.961 . S
C1710 H1724 0.961 . S
C1711 C1708 1.539 . S
C1711 H1725 0.958 . S
C1711 H1726 0.961 . S
C1711 H1727 0.960 . S
H1712 C1696 0.931 . S
H1713 C1701 0.929 . S
H1714 C1702 0.960 . S
H1715 C1702 0.962 . S
H1716 C1702 0.960 . S
H1717 C1703 0.961 . S
H1718 C1703 0.961 . S
H1719 C1703 0.961 . S
H1720 C1704 0.931 . S
H1721 C1709 0.930 . S
H1722 C1710 0.956 . S
H1723 C1710 0.961 . S
H1724 C1710 0.961 . S
H1725 C1711 0.958 . S
H1726 C1711 0.961 . S
H1727 C1711 0.960 . S
C1728 C1729 1.391 . S
C1728 C1730 1.394 . S
C1728 H1744 0.931 . S
C1729 C1728 1.391 . S
C1729 C1733 1.376 . S
C1730 C1728 1.394 . S
C1730 C1731 1.369 . S
C1730 C1734 1.531 . S
C1731 C1730 1.369 . S
C1731 C1732 1.410 . S
C1731 C1739 1.503 . S
C1732 C1731 1.410 . S
C1732 C1733 1.392 . S
C1732 C1735 1.511 . S
C1733 C1729 1.376 . S
C1733 C1732 1.392 . S
C1733 H1745 0.929 . S
C1734 C1730 1.531 . S
C1734 H1746 0.960 . S
C1734 H1747 0.962 . S
C1734 H1748 0.960 . S
C1735 C1732 1.511 . S
C1735 H1749 0.961 . S
C1735 H1750 0.961 . S
C1735 H1751 0.961 . S
C1736 C1737 1.370 . S
C1736 C1738 1.363 1_556 S
C1736 H1752 0.931 . S
C1737 C1736 1.370 . S
C1737 C1741 1.408 . S
C1738 C1736 1.363 1_554 S
C1738 C1739 1.370 . S
C1738 C1742 1.524 . S
C1739 C1731 1.503 . S
C1739 C1738 1.370 . S
C1739 C1740 1.403 . S
C1740 C1739 1.403 . S
C1740 C1741 1.404 1_554 S
C1740 C1743 1.539 . S
C1741 C1737 1.408 . S
C1741 C1740 1.404 1_556 S
C1741 H1753 0.930 . S
C1742 C1738 1.524 . S
C1742 H1754 0.956 . S
C1742 H1755 0.961 . S
C1742 H1756 0.961 1_554 S
C1743 C1740 1.539 . S
C1743 H1757 0.958 . S
C1743 H1758 0.961 . S
C1743 H1759 0.960 . S
H1744 C1728 0.931 . S
H1745 C1733 0.929 . S
H1746 C1734 0.960 . S
H1747 C1734 0.962 . S
H1748 C1734 0.960 . S
H1749 C1735 0.961 . S
H1750 C1735 0.961 . S
H1751 C1735 0.961 . S
H1752 C1736 0.931 . S
H1753 C1741 0.930 . S
H1754 C1742 0.956 . S
H1755 C1742 0.961 . S
H1756 C1742 0.961 1_556 S
H1757 C1743 0.958 . S
H1758 C1743 0.961 . S
H1759 C1743 0.960 . S
C1760 C1761 1.391 . S
C1760 C1762 1.394 . S
C1760 H1776 0.931 . S
C1761 C1760 1.391 . S
C1761 C1765 1.376 . S
C1762 C1760 1.394 . S
C1762 C1763 1.369 . S
C1762 C1766 1.531 . S
C1763 C1762 1.369 . S
C1763 C1764 1.410 . S
C1763 C1771 1.503 . S
C1764 C1763 1.410 . S
C1764 C1765 1.392 . S
C1764 C1767 1.511 . S
C1765 C1761 1.376 . S
C1765 C1764 1.392 . S
C1765 H1777 0.929 . S
C1766 C1762 1.531 . S
C1766 H1778 0.960 . S
C1766 H1779 0.962 . S
C1766 H1780 0.960 . S
C1767 C1764 1.511 . S
C1767 H1781 0.961 . S
C1767 H1782 0.961 . S
C1767 H1783 0.961 . S
C1768 C1769 1.370 . S
C1768 C1770 1.363 . S
C1768 H1784 0.931 . S
C1769 C1768 1.370 . S
C1769 C1773 1.408 . S
C1770 C1768 1.363 . S
C1770 C1771 1.370 . S
C1770 C1774 1.524 . S
C1771 C1763 1.503 . S
C1771 C1770 1.370 . S
C1771 C1772 1.403 . S
C1772 C1771 1.403 . S
C1772 C1773 1.404 . S
C1772 C1775 1.539 . S
C1773 C1769 1.408 . S
C1773 C1772 1.404 . S
C1773 H1785 0.930 . S
C1774 C1770 1.524 . S
C1774 H1786 0.956 . S
C1774 H1787 0.961 . S
C1774 H1788 0.961 . S
C1775 C1772 1.539 . S
C1775 H1789 0.958 . S
C1775 H1790 0.961 . S
C1775 H1791 0.960 . S
H1776 C1760 0.931 . S
H1777 C1765 0.929 . S
H1778 C1766 0.960 . S
H1779 C1766 0.962 . S
H1780 C1766 0.960 . S
H1781 C1767 0.961 . S
H1782 C1767 0.961 . S
H1783 C1767 0.961 . S
H1784 C1768 0.931 . S
H1785 C1773 0.930 . S
H1786 C1774 0.956 . S
H1787 C1774 0.961 . S
H1788 C1774 0.961 . S
H1789 C1775 0.958 . S
H1790 C1775 0.961 . S
H1791 C1775 0.960 . S
C1792 C1793 1.391 . S
C1792 C1794 1.394 . S
C1792 H1808 0.931 . S
C1793 C1792 1.391 . S
C1793 C1797 1.376 . S
C1794 C1792 1.394 . S
C1794 C1795 1.369 . S
C1794 C1798 1.531 . S
C1795 C1794 1.369 . S
C1795 C1796 1.410 . S
C1795 C1803 1.503 . S
C1796 C1795 1.410 . S
C1796 C1797 1.392 . S
C1796 C1799 1.511 . S
C1797 C1793 1.376 . S
C1797 C1796 1.392 . S
C1797 H1809 0.929 . S
C1798 C1794 1.531 . S
C1798 H1810 0.960 . S
C1798 H1811 0.962 . S
C1798 H1812 0.960 . S
C1799 C1796 1.511 . S
C1799 H1813 0.961 . S
C1799 H1814 0.961 . S
C1799 H1815 0.961 . S
C1800 C1801 1.370 . S
C1800 C1802 1.363 . S
C1800 H1816 0.931 . S
C1801 C1800 1.370 . S
C1801 C1805 1.408 . S
C1802 C1800 1.363 . S
C1802 C1803 1.370 . S
C1802 C1806 1.524 . S
C1803 C1795 1.503 . S
C1803 C1802 1.370 . S
C1803 C1804 1.403 . S
C1804 C1803 1.403 . S
C1804 C1805 1.404 . S
C1804 C1807 1.539 . S
C1805 C1801 1.408 . S
C1805 C1804 1.404 . S
C1805 H1817 0.930 . S
C1806 C1802 1.524 . S
C1806 H1818 0.956 . S
C1806 H1819 0.961 . S
C1806 H1820 0.961 . S
C1807 C1804 1.539 . S
C1807 H1821 0.958 . S
C1807 H1822 0.961 . S
C1807 H1823 0.960 . S
H1808 C1792 0.931 . S
H1809 C1797 0.929 . S
H1810 C1798 0.960 . S
H1811 C1798 0.962 . S
H1812 C1798 0.960 . S
H1813 C1799 0.961 . S
H1814 C1799 0.961 . S
H1815 C1799 0.961 . S
H1816 C1800 0.931 . S
H1817 C1805 0.930 . S
H1818 C1806 0.956 . S
H1819 C1806 0.961 . S
H1820 C1806 0.961 . S
H1821 C1807 0.958 . S
H1822 C1807 0.961 . S
H1823 C1807 0.960 . S
C1824 C1825 1.391 . S
C1824 C1826 1.394 . S
C1824 H1840 0.931 . S
C1825 C1824 1.391 . S
C1825 C1829 1.376 . S
C1826 C1824 1.394 . S
C1826 C1827 1.369 . S
C1826 C1830 1.531 . S
C1827 C1826 1.369 . S
C1827 C1828 1.410 . S
C1827 C1835 1.503 . S
C1828 C1827 1.410 . S
C1828 C1829 1.392 . S
C1828 C1831 1.511 . S
C1829 C1825 1.376 . S
C1829 C1828 1.392 . S
C1829 H1841 0.929 . S
C1830 C1826 1.531 . S
C1830 H1842 0.960 . S
C1830 H1843 0.962 . S
C1830 H1844 0.960 . S
C1831 C1828 1.511 . S
C1831 H1845 0.961 . S
C1831 H1846 0.961 . S
C1831 H1847 0.961 . S
C1832 C1833 1.370 . S
C1832 C1834 1.363 . S
C1832 H1848 0.931 . S
C1833 C1832 1.370 . S
C1833 C1837 1.408 . S
C1834 C1832 1.363 . S
C1834 C1835 1.370 . S
C1834 C1838 1.524 . S
C1835 C1827 1.503 . S
C1835 C1834 1.370 . S
C1835 C1836 1.403 . S
C1836 C1835 1.403 . S
C1836 C1837 1.404 . S
C1836 C1839 1.539 . S
C1837 C1833 1.408 . S
C1837 C1836 1.404 . S
C1837 H1849 0.930 . S
C1838 C1834 1.524 . S
C1838 H1850 0.956 . S
C1838 H1851 0.961 . S
C1838 H1852 0.961 . S
C1839 C1836 1.539 . S
C1839 H1853 0.958 . S
C1839 H1854 0.961 . S
C1839 H1855 0.960 . S
H1840 C1824 0.931 . S
H1841 C1829 0.929 . S
H1842 C1830 0.960 . S
H1843 C1830 0.962 . S
H1844 C1830 0.960 . S
H1845 C1831 0.961 . S
H1846 C1831 0.961 . S
H1847 C1831 0.961 . S
H1848 C1832 0.931 . S
H1849 C1837 0.930 . S
H1850 C1838 0.956 . S
H1851 C1838 0.961 . S
H1852 C1838 0.961 . S
H1853 C1839 0.958 . S
H1854 C1839 0.961 . S
H1855 C1839 0.960 . S
C1856 C1857 1.391 . S
C1856 C1858 1.394 . S
C1856 H1872 0.931 . S
C1857 C1856 1.391 . S
C1857 C1861 1.376 . S
C1858 C1856 1.394 . S
C1858 C1859 1.369 . S
C1858 C1862 1.531 . S
C1859 C1858 1.369 . S
C1859 C1860 1.410 . S
C1859 C1867 1.503 . S
C1860 C1859 1.410 . S
C1860 C1861 1.392 . S
C1860 C1863 1.511 . S
C1861 C1857 1.376 . S
C1861 C1860 1.392 . S
C1861 H1873 0.929 . S
C1862 C1858 1.531 . S
C1862 H1874 0.960 . S
C1862 H1875 0.962 . S
C1862 H1876 0.960 . S
C1863 C1860 1.511 . S
C1863 H1877 0.961 . S
C1863 H1878 0.961 . S
C1863 H1879 0.961 . S
C1864 C1865 1.370 . S
C1864 C1866 1.363 . S
C1864 H1880 0.931 . S
C1865 C1864 1.370 . S
C1865 C1869 1.408 . S
C1866 C1864 1.363 . S
C1866 C1867 1.370 . S
C1866 C1870 1.524 . S
C1867 C1859 1.503 . S
C1867 C1866 1.370 . S
C1867 C1868 1.403 . S
C1868 C1867 1.403 . S
C1868 C1869 1.404 . S
C1868 C1871 1.539 . S
C1869 C1865 1.408 . S
C1869 C1868 1.404 . S
C1869 H1881 0.930 . S
C1870 C1866 1.524 . S
C1870 H1882 0.956 . S
C1870 H1883 0.961 . S
C1870 H1884 0.961 . S
C1871 C1868 1.539 . S
C1871 H1885 0.958 . S
C1871 H1886 0.961 . S
C1871 H1887 0.960 . S
H1872 C1856 0.931 . S
H1873 C1861 0.929 . S
H1874 C1862 0.960 . S
H1875 C1862 0.962 . S
H1876 C1862 0.960 . S
H1877 C1863 0.961 . S
H1878 C1863 0.961 . S
H1879 C1863 0.961 . S
H1880 C1864 0.931 . S
H1881 C1869 0.930 . S
H1882 C1870 0.956 . S
H1883 C1870 0.961 . S
H1884 C1870 0.961 . S
H1885 C1871 0.958 . S
H1886 C1871 0.961 . S
H1887 C1871 0.960 . S
C1888 C1889 1.391 . S
C1888 C1890 1.394 . S
C1888 H1904 0.931 . S
C1889 C1888 1.391 . S
C1889 C1893 1.376 . S
C1890 C1888 1.394 . S
C1890 C1891 1.369 . S
C1890 C1894 1.531 1_556 S
C1891 C1890 1.369 . S
C1891 C1892 1.410 . S
C1891 C1899 1.503 . S
C1892 C1891 1.410 . S
C1892 C1893 1.392 . S
C1892 C1895 1.511 . S
C1893 C1889 1.376 . S
C1893 C1892 1.392 . S
C1893 H1905 0.929 . S
C1894 C1890 1.531 1_554 S
C1894 H1906 0.960 . S
C1894 H1907 0.962 . S
C1894 H1908 0.960 . S
C1895 C1892 1.511 . S
C1895 H1909 0.961 . S
C1895 H1910 0.961 . S
C1895 H1911 0.961 . S
C1896 C1897 1.370 . S
C1896 C1898 1.363 1_554 S
C1896 H1912 0.931 . S
C1897 C1896 1.370 . S
C1897 C1901 1.408 . S
C1898 C1896 1.363 1_556 S
C1898 C1899 1.370 . S
C1898 C1902 1.524 . S
C1899 C1891 1.503 . S
C1899 C1898 1.370 . S
C1899 C1900 1.403 1_556 S
C1900 C1899 1.403 1_554 S
C1900 C1901 1.404 . S
C1900 C1903 1.539 . S
C1901 C1897 1.408 . S
C1901 C1900 1.404 . S
C1901 H1913 0.930 . S
C1902 C1898 1.524 . S
C1902 H1914 0.956 . S
C1902 H1915 0.961 . S
C1902 H1916 0.961 . S
C1903 C1900 1.539 . S
C1903 H1917 0.958 . S
C1903 H1918 0.961 . S
C1903 H1919 0.960 1_554 S
H1904 C1888 0.931 . S
H1905 C1893 0.929 . S
H1906 C1894 0.960 . S
H1907 C1894 0.962 . S
H1908 C1894 0.960 . S
H1909 C1895 0.961 . S
H1910 C1895 0.961 . S
H1911 C1895 0.961 . S
H1912 C1896 0.931 . S
H1913 C1901 0.930 . S
H1914 C1902 0.956 . S
H1915 C1902 0.961 . S
H1916 C1902 0.961 . S
H1917 C1903 0.958 . S
H1918 C1903 0.961 . S
H1919 C1903 0.960 1_556 S
C1920 C1921 1.391 . S
C1920 C1922 1.394 . S
C1920 H1936 0.931 . S
C1921 C1920 1.391 . S
C1921 C1925 1.376 . S
C1922 C1920 1.394 . S
C1922 C1923 1.369 . S
C1922 C1926 1.531 . S
C1923 C1922 1.369 . S
C1923 C1924 1.410 . S
C1923 C1931 1.503 . S
C1924 C1923 1.410 . S
C1924 C1925 1.392 . S
C1924 C1927 1.511 . S
C1925 C1921 1.376 . S
C1925 C1924 1.392 . S
C1925 H1937 0.929 . S
C1926 C1922 1.531 . S
C1926 H1938 0.960 . S
C1926 H1939 0.962 . S
C1926 H1940 0.960 . S
C1927 C1924 1.511 . S
C1927 H1941 0.961 . S
C1927 H1942 0.961 . S
C1927 H1943 0.961 . S
C1928 C1929 1.370 . S
C1928 C1930 1.363 . S
C1928 H1944 0.931 . S
C1929 C1928 1.370 . S
C1929 C1933 1.408 . S
C1930 C1928 1.363 . S
C1930 C1931 1.370 . S
C1930 C1934 1.524 . S
C1931 C1923 1.503 . S
C1931 C1930 1.370 . S
C1931 C1932 1.403 . S
C1932 C1931 1.403 . S
C1932 C1933 1.404 . S
C1932 C1935 1.539 . S
C1933 C1929 1.408 . S
C1933 C1932 1.404 . S
C1933 H1945 0.930 . S
C1934 C1930 1.524 . S
C1934 H1946 0.956 . S
C1934 H1947 0.961 . S
C1934 H1948 0.961 . S
C1935 C1932 1.539 . S
C1935 H1949 0.958 . S
C1935 H1950 0.961 . S
C1935 H1951 0.960 . S
H1936 C1920 0.931 . S
H1937 C1925 0.929 . S
H1938 C1926 0.960 . S
H1939 C1926 0.962 . S
H1940 C1926 0.960 . S
H1941 C1927 0.961 . S
H1942 C1927 0.961 . S
H1943 C1927 0.961 . S
H1944 C1928 0.931 . S
H1945 C1933 0.930 . S
H1946 C1934 0.956 . S
H1947 C1934 0.961 . S
H1948 C1934 0.961 . S
H1949 C1935 0.958 . S
H1950 C1935 0.961 . S
H1951 C1935 0.960 . S
C1952 C1953 1.391 . S
C1952 C1954 1.394 . S
C1952 H1968 0.931 . S
C1953 C1952 1.391 . S
C1953 C1957 1.376 . S
C1954 C1952 1.394 . S
C1954 C1955 1.369 . S
C1954 C1958 1.531 . S
C1955 C1954 1.369 . S
C1955 C1956 1.410 . S
C1955 C1963 1.503 . S
C1956 C1955 1.410 . S
C1956 C1957 1.392 . S
C1956 C1959 1.511 . S
C1957 C1953 1.376 . S
C1957 C1956 1.392 . S
C1957 H1969 0.929 . S
C1958 C1954 1.531 . S
C1958 H1970 0.960 . S
C1958 H1971 0.962 . S
C1958 H1972 0.960 . S
C1959 C1956 1.511 . S
C1959 H1973 0.961 . S
C1959 H1974 0.961 . S
C1959 H1975 0.961 . S
C1960 C1961 1.370 . S
C1960 C1962 1.363 . S
C1960 H1976 0.931 . S
C1961 C1960 1.370 . S
C1961 C1965 1.408 . S
C1962 C1960 1.363 . S
C1962 C1963 1.370 . S
C1962 C1966 1.524 . S
C1963 C1955 1.503 . S
C1963 C1962 1.370 . S
C1963 C1964 1.403 . S
C1964 C1963 1.403 . S
C1964 C1965 1.404 . S
C1964 C1967 1.539 . S
C1965 C1961 1.408 . S
C1965 C1964 1.404 . S
C1965 H1977 0.930 . S
C1966 C1962 1.524 . S
C1966 H1978 0.956 . S
C1966 H1979 0.961 . S
C1966 H1980 0.961 . S
C1967 C1964 1.539 . S
C1967 H1981 0.958 . S
C1967 H1982 0.961 . S
C1967 H1983 0.960 . S
H1968 C1952 0.931 . S
H1969 C1957 0.929 . S
H1970 C1958 0.960 . S
H1971 C1958 0.962 . S
H1972 C1958 0.960 . S
H1973 C1959 0.961 . S
H1974 C1959 0.961 . S
H1975 C1959 0.961 . S
H1976 C1960 0.931 . S
H1977 C1965 0.930 . S
H1978 C1966 0.956 . S
H1979 C1966 0.961 . S
H1980 C1966 0.961 . S
H1981 C1967 0.958 . S
H1982 C1967 0.961 . S
H1983 C1967 0.960 . S
C1984 C1985 1.391 . S
C1984 C1986 1.394 1_554 S
C1984 H2000 0.931 . S
C1985 C1984 1.391 . S
C1985 C1989 1.376 . S
C1986 C1984 1.394 1_556 S
C1986 C1987 1.369 . S
C1986 C1990 1.531 . S
C1987 C1986 1.369 . S
C1987 C1988 1.410 1_556 S
C1987 C1995 1.503 . S
C1988 C1987 1.410 1_554 S
C1988 C1989 1.392 . S
C1988 C1991 1.511 . S
C1989 C1985 1.376 . S
C1989 C1988 1.392 . S
C1989 H2001 0.929 . S
C1990 C1986 1.531 . S
C1990 H2002 0.960 . S
C1990 H2003 0.962 . S
C1990 H2004 0.960 . S
C1991 C1988 1.511 . S
C1991 H2005 0.961 . S
C1991 H2006 0.961 1_554 S
C1991 H2007 0.961 . S
C1992 C1993 1.370 . S
C1992 C1994 1.363 . S
C1992 H2008 0.931 . S
C1993 C1992 1.370 . S
C1993 C1997 1.408 . S
C1994 C1992 1.363 . S
C1994 C1995 1.370 . S
C1994 C1998 1.524 . S
C1995 C1987 1.503 . S
C1995 C1994 1.370 . S
C1995 C1996 1.403 . S
C1996 C1995 1.403 . S
C1996 C1997 1.404 . S
C1996 C1999 1.539 . S
C1997 C1993 1.408 . S
C1997 C1996 1.404 . S
C1997 H2009 0.930 . S
C1998 C1994 1.524 . S
C1998 H2010 0.956 . S
C1998 H2011 0.961 . S
C1998 H2012 0.961 . S
C1999 C1996 1.539 . S
C1999 H2013 0.958 . S
C1999 H2014 0.961 . S
C1999 H2015 0.960 1_556 S
H2000 C1984 0.931 . S
H2001 C1989 0.929 . S
H2002 C1990 0.960 . S
H2003 C1990 0.962 . S
H2004 C1990 0.960 . S
H2005 C1991 0.961 . S
H2006 C1991 0.961 1_556 S
H2007 C1991 0.961 . S
H2008 C1992 0.931 . S
H2009 C1997 0.930 . S
H2010 C1998 0.956 . S
H2011 C1998 0.961 . S
H2012 C1998 0.961 . S
H2013 C1999 0.958 . S
H2014 C1999 0.961 . S
H2015 C1999 0.960 1_554 S
C2016 C2017 1.391 . S
C2016 C2018 1.394 . S
C2016 H2032 0.931 . S
C2017 C2016 1.391 . S
C2017 C2021 1.376 . S
C2018 C2016 1.394 . S
C2018 C2019 1.369 . S
C2018 C2022 1.531 . S
C2019 C2018 1.369 . S
C2019 C2020 1.410 . S
C2019 C2027 1.503 . S
C2020 C2019 1.410 . S
C2020 C2021 1.392 . S
C2020 C2023 1.511 . S
C2021 C2017 1.376 . S
C2021 C2020 1.392 . S
C2021 H2033 0.929 . S
C2022 C2018 1.531 . S
C2022 H2034 0.960 . S
C2022 H2035 0.962 . S
C2022 H2036 0.960 . S
C2023 C2020 1.511 . S
C2023 H2037 0.961 . S
C2023 H2038 0.961 . S
C2023 H2039 0.961 . S
C2024 C2025 1.370 . S
C2024 C2026 1.363 . S
C2024 H2040 0.931 . S
C2025 C2024 1.370 . S
C2025 C2029 1.408 . S
C2026 C2024 1.363 . S
C2026 C2027 1.370 . S
C2026 C2030 1.524 . S
C2027 C2019 1.503 . S
C2027 C2026 1.370 . S
C2027 C2028 1.403 . S
C2028 C2027 1.403 . S
C2028 C2029 1.404 . S
C2028 C2031 1.539 . S
C2029 C2025 1.408 . S
C2029 C2028 1.404 . S
C2029 H2041 0.930 . S
C2030 C2026 1.524 . S
C2030 H2042 0.956 . S
C2030 H2043 0.961 . S
C2030 H2044 0.961 . S
C2031 C2028 1.539 . S
C2031 H2045 0.958 . S
C2031 H2046 0.961 . S
C2031 H2047 0.960 . S
H2032 C2016 0.931 . S
H2033 C2021 0.929 . S
H2034 C2022 0.960 . S
H2035 C2022 0.962 . S
H2036 C2022 0.960 . S
H2037 C2023 0.961 . S
H2038 C2023 0.961 . S
H2039 C2023 0.961 . S
H2040 C2024 0.931 . S
H2041 C2029 0.930 . S
H2042 C2030 0.956 . S
H2043 C2030 0.961 . S
H2044 C2030 0.961 . S
H2045 C2031 0.958 . S
H2046 C2031 0.961 . S
H2047 C2031 0.960 . S
C2048 C2049 1.391 . S
C2048 C2050 1.394 . S
C2048 H2064 0.931 . S
C2049 C2048 1.391 . S
C2049 C2053 1.376 . S
C2050 C2048 1.394 . S
C2050 C2051 1.369 . S
C2050 C2054 1.531 . S
C2051 C2050 1.369 . S
C2051 C2052 1.410 . S
C2051 C2059 1.503 . S
C2052 C2051 1.410 . S
C2052 C2053 1.392 . S
C2052 C2055 1.511 . S
C2053 C2049 1.376 . S
C2053 C2052 1.392 . S
C2053 H2065 0.929 . S
C2054 C2050 1.531 . S
C2054 H2066 0.960 . S
C2054 H2067 0.962 . S
C2054 H2068 0.960 . S
C2055 C2052 1.511 . S
C2055 H2069 0.961 . S
C2055 H2070 0.961 . S
C2055 H2071 0.961 . S
C2056 C2057 1.370 . S
C2056 C2058 1.363 . S
C2056 H2072 0.931 . S
C2057 C2056 1.370 . S
C2057 C2061 1.408 . S
C2058 C2056 1.363 . S
C2058 C2059 1.370 . S
C2058 C2062 1.524 . S
C2059 C2051 1.503 . S
C2059 C2058 1.370 . S
C2059 C2060 1.403 . S
C2060 C2059 1.403 . S
C2060 C2061 1.404 . S
C2060 C2063 1.539 . S
C2061 C2057 1.408 . S
C2061 C2060 1.404 . S
C2061 H2073 0.930 . S
C2062 C2058 1.524 . S
C2062 H2074 0.956 . S
C2062 H2075 0.961 . S
C2062 H2076 0.961 . S
C2063 C2060 1.539 . S
C2063 H2077 0.958 . S
C2063 H2078 0.961 . S
C2063 H2079 0.960 . S
H2064 C2048 0.931 . S
H2065 C2053 0.929 . S
H2066 C2054 0.960 . S
H2067 C2054 0.962 . S
H2068 C2054 0.960 . S
H2069 C2055 0.961 . S
H2070 C2055 0.961 . S
H2071 C2055 0.961 . S
H2072 C2056 0.931 . S
H2073 C2061 0.930 . S
H2074 C2062 0.956 . S
H2075 C2062 0.961 . S
H2076 C2062 0.961 . S
H2077 C2063 0.958 . S
H2078 C2063 0.961 . S
H2079 C2063 0.960 . S
C2080 C2081 1.391 . S
C2080 C2082 1.394 . S
C2080 H2096 0.931 . S
C2081 C2080 1.391 . S
C2081 C2085 1.376 . S
C2082 C2080 1.394 . S
C2082 C2083 1.369 . S
C2082 C2086 1.531 . S
C2083 C2082 1.369 . S
C2083 C2084 1.410 . S
C2083 C2091 1.503 . S
C2084 C2083 1.410 . S
C2084 C2085 1.392 . S
C2084 C2087 1.511 . S
C2085 C2081 1.376 . S
C2085 C2084 1.392 . S
C2085 H2097 0.929 . S
C2086 C2082 1.531 . S
C2086 H2098 0.960 . S
C2086 H2099 0.962 . S
C2086 H2100 0.960 . S
C2087 C2084 1.511 . S
C2087 H2101 0.961 . S
C2087 H2102 0.961 . S
C2087 H2103 0.961 . S
C2088 C2089 1.370 . S
C2088 C2090 1.363 . S
C2088 H2104 0.931 . S
C2089 C2088 1.370 . S
C2089 C2093 1.408 . S
C2090 C2088 1.363 . S
C2090 C2091 1.370 . S
C2090 C2094 1.524 . S
C2091 C2083 1.503 . S
C2091 C2090 1.370 . S
C2091 C2092 1.403 . S
C2092 C2091 1.403 . S
C2092 C2093 1.404 . S
C2092 C2095 1.539 . S
C2093 C2089 1.408 . S
C2093 C2092 1.404 . S
C2093 H2105 0.930 . S
C2094 C2090 1.524 . S
C2094 H2106 0.956 . S
C2094 H2107 0.961 . S
C2094 H2108 0.961 . S
C2095 C2092 1.539 . S
C2095 H2109 0.958 . S
C2095 H2110 0.961 . S
C2095 H2111 0.960 . S
H2096 C2080 0.931 . S
H2097 C2085 0.929 . S
H2098 C2086 0.960 . S
H2099 C2086 0.962 . S
H2100 C2086 0.960 . S
H2101 C2087 0.961 . S
H2102 C2087 0.961 . S
H2103 C2087 0.961 . S
H2104 C2088 0.931 . S
H2105 C2093 0.930 . S
H2106 C2094 0.956 . S
H2107 C2094 0.961 . S
H2108 C2094 0.961 . S
H2109 C2095 0.958 . S
H2110 C2095 0.961 . S
H2111 C2095 0.960 . S
C2112 C2113 1.391 . S
C2112 C2114 1.394 . S
C2112 H2128 0.931 . S
C2113 C2112 1.391 . S
C2113 C2117 1.376 . S
C2114 C2112 1.394 . S
C2114 C2115 1.369 . S
C2114 C2118 1.531 . S
C2115 C2114 1.369 . S
C2115 C2116 1.410 . S
C2115 C2123 1.503 . S
C2116 C2115 1.410 . S
C2116 C2117 1.392 . S
C2116 C2119 1.511 . S
C2117 C2113 1.376 . S
C2117 C2116 1.392 . S
C2117 H2129 0.929 . S
C2118 C2114 1.531 . S
C2118 H2130 0.960 . S
C2118 H2131 0.962 . S
C2118 H2132 0.960 . S
C2119 C2116 1.511 . S
C2119 H2133 0.961 . S
C2119 H2134 0.961 . S
C2119 H2135 0.961 . S
C2120 C2121 1.370 . S
C2120 C2122 1.363 . S
C2120 H2136 0.931 . S
C2121 C2120 1.370 . S
C2121 C2125 1.408 . S
C2122 C2120 1.363 . S
C2122 C2123 1.370 . S
C2122 C2126 1.524 . S
C2123 C2115 1.503 . S
C2123 C2122 1.370 . S
C2123 C2124 1.403 . S
C2124 C2123 1.403 . S
C2124 C2125 1.404 . S
C2124 C2127 1.539 . S
C2125 C2121 1.408 . S
C2125 C2124 1.404 . S
C2125 H2137 0.930 . S
C2126 C2122 1.524 . S
C2126 H2138 0.956 . S
C2126 H2139 0.961 . S
C2126 H2140 0.961 . S
C2127 C2124 1.539 . S
C2127 H2141 0.958 . S
C2127 H2142 0.961 . S
C2127 H2143 0.960 . S
H2128 C2112 0.931 . S
H2129 C2117 0.929 . S
H2130 C2118 0.960 . S
H2131 C2118 0.962 . S
H2132 C2118 0.960 . S
H2133 C2119 0.961 . S
H2134 C2119 0.961 . S
H2135 C2119 0.961 . S
H2136 C2120 0.931 . S
H2137 C2125 0.930 . S
H2138 C2126 0.956 . S
H2139 C2126 0.961 . S
H2140 C2126 0.961 . S
H2141 C2127 0.958 . S
H2142 C2127 0.961 . S
H2143 C2127 0.960 . S
C2144 C2145 1.391 . S
C2144 C2146 1.394 . S
C2144 H2160 0.931 . S
C2145 C2144 1.391 . S
C2145 C2149 1.376 . S
C2146 C2144 1.394 . S
C2146 C2147 1.369 . S
C2146 C2150 1.531 . S
C2147 C2146 1.369 . S
C2147 C2148 1.410 . S
C2147 C2155 1.503 . S
C2148 C2147 1.410 . S
C2148 C2149 1.392 . S
C2148 C2151 1.511 . S
C2149 C2145 1.376 . S
C2149 C2148 1.392 . S
C2149 H2161 0.929 . S
C2150 C2146 1.531 . S
C2150 H2162 0.960 . S
C2150 H2163 0.962 . S
C2150 H2164 0.960 . S
C2151 C2148 1.511 . S
C2151 H2165 0.961 . S
C2151 H2166 0.961 . S
C2151 H2167 0.961 . S
C2152 C2153 1.370 . S
C2152 C2154 1.363 . S
C2152 H2168 0.931 . S
C2153 C2152 1.370 . S
C2153 C2157 1.408 . S
C2154 C2152 1.363 . S
C2154 C2155 1.370 . S
C2154 C2158 1.524 . S
C2155 C2147 1.503 . S
C2155 C2154 1.370 . S
C2155 C2156 1.403 . S
C2156 C2155 1.403 . S
C2156 C2157 1.404 . S
C2156 C2159 1.539 . S
C2157 C2153 1.408 . S
C2157 C2156 1.404 . S
C2157 H2169 0.930 . S
C2158 C2154 1.524 . S
C2158 H2170 0.956 . S
C2158 H2171 0.961 . S
C2158 H2172 0.961 . S
C2159 C2156 1.539 . S
C2159 H2173 0.958 . S
C2159 H2174 0.961 . S
C2159 H2175 0.960 . S
H2160 C2144 0.931 . S
H2161 C2149 0.929 . S
H2162 C2150 0.960 . S
H2163 C2150 0.962 . S
H2164 C2150 0.960 . S
H2165 C2151 0.961 . S
H2166 C2151 0.961 . S
H2167 C2151 0.961 . S
H2168 C2152 0.931 . S
H2169 C2157 0.930 . S
H2170 C2158 0.956 . S
H2171 C2158 0.961 . S
H2172 C2158 0.961 . S
H2173 C2159 0.958 . S
H2174 C2159 0.961 . S
H2175 C2159 0.960 . S
C2176 C2177 1.391 . S
C2176 C2178 1.394 . S
C2176 H2192 0.931 . S
C2177 C2176 1.391 . S
C2177 C2181 1.376 . S
C2178 C2176 1.394 . S
C2178 C2179 1.369 . S
C2178 C2182 1.531 . S
C2179 C2178 1.369 . S
C2179 C2180 1.410 . S
C2179 C2187 1.503 . S
C2180 C2179 1.410 . S
C2180 C2181 1.392 . S
C2180 C2183 1.511 . S
C2181 C2177 1.376 . S
C2181 C2180 1.392 . S
C2181 H2193 0.929 . S
C2182 C2178 1.531 . S
C2182 H2194 0.960 . S
C2182 H2195 0.962 . S
C2182 H2196 0.960 . S
C2183 C2180 1.511 . S
C2183 H2197 0.961 . S
C2183 H2198 0.961 . S
C2183 H2199 0.961 . S
C2184 C2185 1.370 . S
C2184 C2186 1.363 . S
C2184 H2200 0.931 . S
C2185 C2184 1.370 . S
C2185 C2189 1.408 . S
C2186 C2184 1.363 . S
C2186 C2187 1.370 . S
C2186 C2190 1.524 . S
C2187 C2179 1.503 . S
C2187 C2186 1.370 . S
C2187 C2188 1.403 . S
C2188 C2187 1.403 . S
C2188 C2189 1.404 . S
C2188 C2191 1.539 . S
C2189 C2185 1.408 . S
C2189 C2188 1.404 . S
C2189 H2201 0.930 . S
C2190 C2186 1.524 . S
C2190 H2202 0.956 . S
C2190 H2203 0.961 . S
C2190 H2204 0.961 . S
C2191 C2188 1.539 . S
C2191 H2205 0.958 . S
C2191 H2206 0.961 . S
C2191 H2207 0.960 . S
H2192 C2176 0.931 . S
H2193 C2181 0.929 . S
H2194 C2182 0.960 . S
H2195 C2182 0.962 . S
H2196 C2182 0.960 . S
H2197 C2183 0.961 . S
H2198 C2183 0.961 . S
H2199 C2183 0.961 . S
H2200 C2184 0.931 . S
H2201 C2189 0.930 . S
H2202 C2190 0.956 . S
H2203 C2190 0.961 . S
H2204 C2190 0.961 . S
H2205 C2191 0.958 . S
H2206 C2191 0.961 . S
H2207 C2191 0.960 . S
C2208 C2209 1.391 . S
C2208 C2210 1.394 . S
C2208 H2224 0.931 . S
C2209 C2208 1.391 . S
C2209 C2213 1.376 . S
C2210 C2208 1.394 . S
C2210 C2211 1.369 . S
C2210 C2214 1.531 . S
C2211 C2210 1.369 . S
C2211 C2212 1.410 . S
C2211 C2219 1.503 . S
C2212 C2211 1.410 . S
C2212 C2213 1.392 . S
C2212 C2215 1.511 . S
C2213 C2209 1.376 . S
C2213 C2212 1.392 . S
C2213 H2225 0.929 . S
C2214 C2210 1.531 . S
C2214 H2226 0.960 . S
C2214 H2227 0.962 . S
C2214 H2228 0.960 . S
C2215 C2212 1.511 . S
C2215 H2229 0.961 . S
C2215 H2230 0.961 . S
C2215 H2231 0.961 . S
C2216 C2217 1.370 . S
C2216 C2218 1.363 . S
C2216 H2232 0.931 . S
C2217 C2216 1.370 . S
C2217 C2221 1.408 . S
C2218 C2216 1.363 . S
C2218 C2219 1.370 . S
C2218 C2222 1.524 . S
C2219 C2211 1.503 . S
C2219 C2218 1.370 . S
C2219 C2220 1.403 . S
C2220 C2219 1.403 . S
C2220 C2221 1.404 . S
C2220 C2223 1.539 . S
C2221 C2217 1.408 . S
C2221 C2220 1.404 . S
C2221 H2233 0.930 . S
C2222 C2218 1.524 . S
C2222 H2234 0.956 . S
C2222 H2235 0.961 . S
C2222 H2236 0.961 . S
C2223 C2220 1.539 . S
C2223 H2237 0.958 . S
C2223 H2238 0.961 . S
C2223 H2239 0.960 . S
H2224 C2208 0.931 . S
H2225 C2213 0.929 . S
H2226 C2214 0.960 . S
H2227 C2214 0.962 . S
H2228 C2214 0.960 . S
H2229 C2215 0.961 . S
H2230 C2215 0.961 . S
H2231 C2215 0.961 . S
H2232 C2216 0.931 . S
H2233 C2221 0.930 . S
H2234 C2222 0.956 . S
H2235 C2222 0.961 . S
H2236 C2222 0.961 . S
H2237 C2223 0.958 . S
H2238 C2223 0.961 . S
H2239 C2223 0.960 . S
C2240 C2241 1.391 . S
C2240 C2242 1.394 . S
C2240 H2256 0.931 . S
C2241 C2240 1.391 . S
C2241 C2245 1.376 . S
C2242 C2240 1.394 . S
C2242 C2243 1.369 . S
C2242 C2246 1.531 . S
C2243 C2242 1.369 . S
C2243 C2244 1.410 . S
C2243 C2251 1.503 . S
C2244 C2243 1.410 . S
C2244 C2245 1.392 . S
C2244 C2247 1.511 . S
C2245 C2241 1.376 . S
C2245 C2244 1.392 . S
C2245 H2257 0.929 . S
C2246 C2242 1.531 . S
C2246 H2258 0.960 . S
C2246 H2259 0.962 . S
C2246 H2260 0.960 . S
C2247 C2244 1.511 . S
C2247 H2261 0.961 . S
C2247 H2262 0.961 . S
C2247 H2263 0.961 . S
C2248 C2249 1.370 . S
C2248 C2250 1.363 . S
C2248 H2264 0.931 . S
C2249 C2248 1.370 . S
C2249 C2253 1.408 . S
C2250 C2248 1.363 . S
C2250 C2251 1.370 . S
C2250 C2254 1.524 . S
C2251 C2243 1.503 . S
C2251 C2250 1.370 . S
C2251 C2252 1.403 . S
C2252 C2251 1.403 . S
C2252 C2253 1.404 . S
C2252 C2255 1.539 . S
C2253 C2249 1.408 . S
C2253 C2252 1.404 . S
C2253 H2265 0.930 . S
C2254 C2250 1.524 . S
C2254 H2266 0.956 . S
C2254 H2267 0.961 . S
C2254 H2268 0.961 . S
C2255 C2252 1.539 . S
C2255 H2269 0.958 . S
C2255 H2270 0.961 . S
C2255 H2271 0.960 . S
H2256 C2240 0.931 . S
H2257 C2245 0.929 . S
H2258 C2246 0.960 . S
H2259 C2246 0.962 . S
H2260 C2246 0.960 . S
H2261 C2247 0.961 . S
H2262 C2247 0.961 . S
H2263 C2247 0.961 . S
H2264 C2248 0.931 . S
H2265 C2253 0.930 . S
H2266 C2254 0.956 . S
H2267 C2254 0.961 . S
H2268 C2254 0.961 . S
H2269 C2255 0.958 . S
H2270 C2255 0.961 . S
H2271 C2255 0.960 . S
C2272 C2273 1.391 . S
C2272 C2274 1.394 . S
C2272 H2288 0.931 . S
C2273 C2272 1.391 . S
C2273 C2277 1.376 . S
C2274 C2272 1.394 . S
C2274 C2275 1.369 . S
C2274 C2278 1.531 . S
C2275 C2274 1.369 . S
C2275 C2276 1.410 . S
C2275 C2283 1.503 . S
C2276 C2275 1.410 . S
C2276 C2277 1.392 . S
C2276 C2279 1.511 . S
C2277 C2273 1.376 . S
C2277 C2276 1.392 . S
C2277 H2289 0.929 . S
C2278 C2274 1.531 . S
C2278 H2290 0.960 . S
C2278 H2291 0.962 . S
C2278 H2292 0.960 . S
C2279 C2276 1.511 . S
C2279 H2293 0.961 . S
C2279 H2294 0.961 . S
C2279 H2295 0.961 . S
C2280 C2281 1.370 . S
C2280 C2282 1.363 . S
C2280 H2296 0.931 . S
C2281 C2280 1.370 . S
C2281 C2285 1.408 . S
C2282 C2280 1.363 . S
C2282 C2283 1.370 . S
C2282 C2286 1.524 . S
C2283 C2275 1.503 . S
C2283 C2282 1.370 . S
C2283 C2284 1.403 . S
C2284 C2283 1.403 . S
C2284 C2285 1.404 . S
C2284 C2287 1.539 . S
C2285 C2281 1.408 . S
C2285 C2284 1.404 . S
C2285 H2297 0.930 . S
C2286 C2282 1.524 . S
C2286 H2298 0.956 . S
C2286 H2299 0.961 . S
C2286 H2300 0.961 . S
C2287 C2284 1.539 . S
C2287 H2301 0.958 . S
C2287 H2302 0.961 . S
C2287 H2303 0.960 . S
H2288 C2272 0.931 . S
H2289 C2277 0.929 . S
H2290 C2278 0.960 . S
H2291 C2278 0.962 . S
H2292 C2278 0.960 . S
H2293 C2279 0.961 . S
H2294 C2279 0.961 . S
H2295 C2279 0.961 . S
H2296 C2280 0.931 . S
H2297 C2285 0.930 . S
H2298 C2286 0.956 . S
H2299 C2286 0.961 . S
H2300 C2286 0.961 . S
H2301 C2287 0.958 . S
H2302 C2287 0.961 . S
H2303 C2287 0.960 . S
C2304 C2305 1.391 . S
C2304 C2306 1.394 . S
C2304 H2320 0.931 . S
C2305 C2304 1.391 . S
C2305 C2309 1.381 1_655 S
C2306 C2304 1.394 . S
C2306 C2307 1.369 . S
C2306 C2310 1.531 . S
C2307 C2306 1.369 . S
C2307 C2308 1.410 1_655 S
C2307 C2315 1.503 1_655 S
C2308 C2307 1.410 1_455 S
C2308 C2309 1.390 . S
C2308 C2311 1.511 . S
C2309 C2305 1.381 1_455 S
C2309 C2308 1.390 . S
C2309 H2321 0.926 . S
C2310 C2306 1.531 . S
C2310 H2322 0.960 . S
C2310 H2323 0.962 . S
C2310 H2324 0.960 . S
C2311 C2308 1.511 . S
C2311 H2325 0.961 . S
C2311 H2326 0.961 . S
C2311 H2327 0.961 . S
C2312 C2313 1.370 . S
C2312 C2314 1.364 . S
C2312 H2328 0.931 . S
C2313 C2312 1.370 . S
C2313 C2317 1.408 . S
C2314 C2312 1.364 . S
C2314 C2315 1.371 . S
C2314 C2318 1.522 1_455 S
C2315 C2307 1.503 1_455 S
C2315 C2314 1.371 . S
C2315 C2316 1.403 . S
C2316 C2315 1.403 . S
C2316 C2317 1.404 . S
C2316 C2319 1.539 . S
C2317 C2313 1.408 . S
C2317 C2316 1.404 . S
C2317 H2329 0.930 . S
C2318 C2314 1.522 1_655 S
C2318 H2330 0.956 . S
C2318 H2331 0.961 . S
C2318 H2332 0.961 . S
C2319 C2316 1.539 . S
C2319 H2333 0.958 . S
C2319 H2334 0.961 . S
C2319 H2335 0.960 . S
H2320 C2304 0.931 . S
H2321 C2309 0.926 . S
H2322 C2310 0.960 . S
H2323 C2310 0.962 . S
H2324 C2310 0.960 . S
H2325 C2311 0.961 . S
H2326 C2311 0.961 . S
H2327 C2311 0.961 . S
H2328 C2312 0.931 . S
H2329 C2317 0.930 . S
H2330 C2318 0.956 . S
H2331 C2318 0.961 . S
H2332 C2318 0.961 . S
H2333 C2319 0.958 . S
H2334 C2319 0.961 . S
H2335 C2319 0.960 . S
C2336 C2337 1.391 . S
C2336 C2338 1.394 . S
C2336 H2352 0.931 . S
C2337 C2336 1.391 . S
C2337 C2341 1.376 . S
C2338 C2336 1.394 . S
C2338 C2339 1.369 . S
C2338 C2342 1.531 . S
C2339 C2338 1.369 . S
C2339 C2340 1.410 . S
C2339 C2347 1.503 . S
C2340 C2339 1.410 . S
C2340 C2341 1.392 . S
C2340 C2343 1.511 . S
C2341 C2337 1.376 . S
C2341 C2340 1.392 . S
C2341 H2353 0.929 . S
C2342 C2338 1.531 . S
C2342 H2354 0.960 . S
C2342 H2355 0.962 . S
C2342 H2356 0.960 . S
C2343 C2340 1.511 . S
C2343 H2357 0.961 . S
C2343 H2358 0.961 . S
C2343 H2359 0.961 . S
C2344 C2345 1.370 . S
C2344 C2346 1.363 . S
C2344 H2360 0.931 . S
C2345 C2344 1.370 . S
C2345 C2349 1.408 . S
C2346 C2344 1.363 . S
C2346 C2347 1.370 . S
C2346 C2350 1.524 . S
C2347 C2339 1.503 . S
C2347 C2346 1.370 . S
C2347 C2348 1.403 . S
C2348 C2347 1.403 . S
C2348 C2349 1.404 . S
C2348 C2351 1.539 . S
C2349 C2345 1.408 . S
C2349 C2348 1.404 . S
C2349 H2361 0.930 . S
C2350 C2346 1.524 . S
C2350 H2362 0.956 . S
C2350 H2363 0.961 . S
C2350 H2364 0.961 . S
C2351 C2348 1.539 . S
C2351 H2365 0.958 . S
C2351 H2366 0.961 . S
C2351 H2367 0.960 . S
H2352 C2336 0.931 . S
H2353 C2341 0.929 . S
H2354 C2342 0.960 . S
H2355 C2342 0.962 . S
H2356 C2342 0.960 . S
H2357 C2343 0.961 . S
H2358 C2343 0.961 . S
H2359 C2343 0.961 . S
H2360 C2344 0.931 . S
H2361 C2349 0.930 . S
H2362 C2350 0.956 . S
H2363 C2350 0.961 . S
H2364 C2350 0.961 . S
H2365 C2351 0.958 . S
H2366 C2351 0.961 . S
H2367 C2351 0.960 . S
C2368 C2369 1.391 . S
C2368 C2370 1.394 . S
C2368 H2384 0.931 . S
C2369 C2368 1.391 . S
C2369 C2373 1.376 . S
C2370 C2368 1.394 . S
C2370 C2371 1.369 . S
C2370 C2374 1.531 . S
C2371 C2370 1.369 . S
C2371 C2372 1.410 . S
C2371 C2379 1.503 . S
C2372 C2371 1.410 . S
C2372 C2373 1.392 . S
C2372 C2375 1.511 . S
C2373 C2369 1.376 . S
C2373 C2372 1.392 . S
C2373 H2385 0.929 . S
C2374 C2370 1.531 . S
C2374 H2386 0.960 . S
C2374 H2387 0.962 . S
C2374 H2388 0.960 . S
C2375 C2372 1.511 . S
C2375 H2389 0.961 . S
C2375 H2390 0.961 . S
C2375 H2391 0.961 . S
C2376 C2377 1.370 . S
C2376 C2378 1.363 . S
C2376 H2392 0.931 . S
C2377 C2376 1.370 . S
C2377 C2381 1.408 . S
C2378 C2376 1.363 . S
C2378 C2379 1.370 . S
C2378 C2382 1.524 . S
C2379 C2371 1.503 . S
C2379 C2378 1.370 . S
C2379 C2380 1.403 . S
C2380 C2379 1.403 . S
C2380 C2381 1.404 . S
C2380 C2383 1.539 . S
C2381 C2377 1.408 . S
C2381 C2380 1.404 . S
C2381 H2393 0.930 . S
C2382 C2378 1.524 . S
C2382 H2394 0.956 . S
C2382 H2395 0.961 . S
C2382 H2396 0.961 . S
C2383 C2380 1.539 . S
C2383 H2397 0.958 . S
C2383 H2398 0.961 . S
C2383 H2399 0.960 . S
H2384 C2368 0.931 . S
H2385 C2373 0.929 . S
H2386 C2374 0.960 . S
H2387 C2374 0.962 . S
H2388 C2374 0.960 . S
H2389 C2375 0.961 . S
H2390 C2375 0.961 . S
H2391 C2375 0.961 . S
H2392 C2376 0.931 . S
H2393 C2381 0.930 . S
H2394 C2382 0.956 . S
H2395 C2382 0.961 . S
H2396 C2382 0.961 . S
H2397 C2383 0.958 . S
H2398 C2383 0.961 . S
H2399 C2383 0.960 . S
C2400 C2401 1.391 . S
C2400 C2402 1.394 . S
C2400 H2416 0.931 . S
C2401 C2400 1.391 . S
C2401 C2405 1.376 . S
C2402 C2400 1.394 . S
C2402 C2403 1.369 . S
C2402 C2406 1.531 . S
C2403 C2402 1.369 . S
C2403 C2404 1.410 . S
C2403 C2411 1.503 . S
C2404 C2403 1.410 . S
C2404 C2405 1.392 . S
C2404 C2407 1.511 . S
C2405 C2401 1.376 . S
C2405 C2404 1.392 . S
C2405 H2417 0.929 . S
C2406 C2402 1.531 . S
C2406 H2418 0.960 . S
C2406 H2419 0.962 . S
C2406 H2420 0.960 . S
C2407 C2404 1.511 . S
C2407 H2421 0.961 . S
C2407 H2422 0.961 . S
C2407 H2423 0.961 . S
C2408 C2409 1.370 . S
C2408 C2410 1.363 . S
C2408 H2424 0.931 . S
C2409 C2408 1.370 . S
C2409 C2413 1.408 . S
C2410 C2408 1.363 . S
C2410 C2411 1.370 . S
C2410 C2414 1.524 . S
C2411 C2403 1.503 . S
C2411 C2410 1.370 . S
C2411 C2412 1.403 . S
C2412 C2411 1.403 . S
C2412 C2413 1.404 . S
C2412 C2415 1.539 . S
C2413 C2409 1.408 . S
C2413 C2412 1.404 . S
C2413 H2425 0.930 1_556 S
C2414 C2410 1.524 . S
C2414 H2426 0.956 . S
C2414 H2427 0.961 . S
C2414 H2428 0.961 . S
C2415 C2412 1.539 . S
C2415 H2429 0.958 . S
C2415 H2430 0.961 . S
C2415 H2431 0.960 . S
H2416 C2400 0.931 . S
H2417 C2405 0.929 . S
H2418 C2406 0.960 . S
H2419 C2406 0.962 . S
H2420 C2406 0.960 . S
H2421 C2407 0.961 . S
H2422 C2407 0.961 . S
H2423 C2407 0.961 . S
H2424 C2408 0.931 . S
H2425 C2413 0.930 1_554 S
H2426 C2414 0.956 . S
H2427 C2414 0.961 . S
H2428 C2414 0.961 . S
H2429 C2415 0.958 . S
H2430 C2415 0.961 . S
H2431 C2415 0.960 . S
C2432 C2433 1.391 . S
C2432 C2434 1.394 . S
C2432 H2448 0.931 . S
C2433 C2432 1.391 . S
C2433 C2437 1.376 . S
C2434 C2432 1.394 . S
C2434 C2435 1.369 . S
C2434 C2438 1.531 . S
C2435 C2434 1.369 . S
C2435 C2436 1.403 1_655 S
C2435 C2443 1.503 1_655 S
C2436 C2435 1.403 1_455 S
C2436 C2437 1.378 1_455 S
C2436 C2439 1.532 . S
C2437 C2433 1.376 . S
C2437 C2436 1.378 1_655 S
C2437 H2449 0.929 . S
C2438 C2434 1.531 . S
C2438 H2450 0.960 . S
C2438 H2451 0.962 . S
C2438 H2452 0.960 . S
C2439 C2436 1.532 . S
C2439 H2453 0.961 . S
C2439 H2454 0.961 . S
C2439 H2455 0.961 . S
C2440 C2441 1.370 . S
C2440 C2442 1.363 . S
C2440 H2456 0.931 . S
C2441 C2440 1.370 . S
C2441 C2445 1.408 . S
C2442 C2440 1.363 . S
C2442 C2443 1.370 . S
C2442 C2446 1.524 1_455 S
C2443 C2435 1.503 1_455 S
C2443 C2442 1.370 . S
C2443 C2444 1.403 . S
C2444 C2443 1.403 . S
C2444 C2445 1.404 . S
C2444 C2447 1.539 . S
C2445 C2441 1.408 . S
C2445 C2444 1.404 . S
C2445 H2457 0.930 . S
C2446 C2442 1.524 1_655 S
C2446 H2458 0.956 . S
C2446 H2459 0.961 . S
C2446 H2460 0.968 . S
C2447 C2444 1.539 . S
C2447 H2461 0.958 . S
C2447 H2462 0.961 . S
C2447 H2463 0.960 . S
H2448 C2432 0.931 . S
H2449 C2437 0.929 . S
H2450 C2438 0.960 . S
H2451 C2438 0.962 . S
H2452 C2438 0.960 . S
H2453 C2439 0.961 . S
H2454 C2439 0.961 . S
H2455 C2439 0.961 . S
H2456 C2440 0.931 . S
H2457 C2445 0.930 . S
H2458 C2446 0.956 . S
H2459 C2446 0.961 . S
H2460 C2446 0.968 . S
H2461 C2447 0.958 . S
H2462 C2447 0.961 . S
H2463 C2447 0.960 . S
C2464 C2465 1.391 . S
C2464 C2466 1.394 . S
C2464 H2480 0.931 1_556 S
C2465 C2464 1.391 . S
C2465 C2469 1.376 . S
C2466 C2464 1.394 . S
C2466 C2467 1.369 . S
C2466 C2470 1.531 . S
C2467 C2466 1.369 . S
C2467 C2468 1.410 . S
C2467 C2475 1.503 . S
C2468 C2467 1.410 . S
C2468 C2469 1.392 . S
C2468 C2471 1.511 . S
C2469 C2465 1.376 . S
C2469 C2468 1.392 . S
C2469 H2481 0.929 . S
C2470 C2466 1.531 . S
C2470 H2482 0.960 . S
C2470 H2483 0.962 . S
C2470 H2484 0.960 . S
C2471 C2468 1.511 . S
C2471 H2485 0.961 . S
C2471 H2486 0.961 . S
C2471 H2487 0.961 . S
C2472 C2473 1.370 . S
C2472 C2474 1.363 . S
C2472 H2488 0.931 . S
C2473 C2472 1.370 . S
C2473 C2477 1.408 . S
C2474 C2472 1.363 . S
C2474 C2475 1.370 . S
C2474 C2478 1.524 . S
C2475 C2467 1.503 . S
C2475 C2474 1.370 . S
C2475 C2476 1.403 . S
C2476 C2475 1.403 . S
C2476 C2477 1.404 . S
C2476 C2479 1.539 . S
C2477 C2473 1.408 . S
C2477 C2476 1.404 . S
C2477 H2489 0.930 . S
C2478 C2474 1.524 . S
C2478 H2490 0.956 . S
C2478 H2491 0.961 . S
C2478 H2492 0.961 . S
C2479 C2476 1.539 . S
C2479 H2493 0.958 . S
C2479 H2494 0.961 . S
C2479 H2495 0.960 . S
H2480 C2464 0.931 1_554 S
H2481 C2469 0.929 . S
H2482 C2470 0.960 . S
H2483 C2470 0.962 . S
H2484 C2470 0.960 . S
H2485 C2471 0.961 . S
H2486 C2471 0.961 . S
H2487 C2471 0.961 . S
H2488 C2472 0.931 . S
H2489 C2477 0.930 . S
H2490 C2478 0.956 . S
H2491 C2478 0.961 . S
H2492 C2478 0.961 . S
H2493 C2479 0.958 . S
H2494 C2479 0.961 . S
H2495 C2479 0.960 . S
C2496 C2497 1.391 . S
C2496 C2498 1.394 . S
C2496 H2512 0.931 . S
C2497 C2496 1.391 . S
C2497 C2501 1.376 . S
C2498 C2496 1.394 . S
C2498 C2499 1.369 . S
C2498 C2502 1.531 . S
C2499 C2498 1.369 . S
C2499 C2500 1.410 . S
C2499 C2507 1.503 . S
C2500 C2499 1.410 . S
C2500 C2501 1.392 . S
C2500 C2503 1.511 . S
C2501 C2497 1.376 . S
C2501 C2500 1.392 . S
C2501 H2513 0.929 . S
C2502 C2498 1.531 . S
C2502 H2514 0.960 . S
C2502 H2515 0.962 . S
C2502 H2516 0.960 . S
C2503 C2500 1.511 . S
C2503 H2517 0.961 . S
C2503 H2518 0.961 . S
C2503 H2519 0.961 . S
C2504 C2505 1.370 . S
C2504 C2506 1.363 . S
C2504 H2520 0.931 . S
C2505 C2504 1.370 . S
C2505 C2509 1.408 . S
C2506 C2504 1.363 . S
C2506 C2507 1.370 . S
C2506 C2510 1.524 . S
C2507 C2499 1.503 . S
C2507 C2506 1.370 . S
C2507 C2508 1.403 . S
C2508 C2507 1.403 . S
C2508 C2509 1.404 . S
C2508 C2511 1.539 . S
C2509 C2505 1.408 . S
C2509 C2508 1.404 . S
C2509 H2521 0.930 . S
C2510 C2506 1.524 . S
C2510 H2522 0.956 . S
C2510 H2523 0.961 . S
C2510 H2524 0.961 . S
C2511 C2508 1.539 . S
C2511 H2525 0.958 . S
C2511 H2526 0.961 . S
C2511 H2527 0.960 . S
H2512 C2496 0.931 . S
H2513 C2501 0.929 . S
H2514 C2502 0.960 . S
H2515 C2502 0.962 . S
H2516 C2502 0.960 . S
H2517 C2503 0.961 . S
H2518 C2503 0.961 . S
H2519 C2503 0.961 . S
H2520 C2504 0.931 . S
H2521 C2509 0.930 . S
H2522 C2510 0.956 . S
H2523 C2510 0.961 . S
H2524 C2510 0.961 . S
H2525 C2511 0.958 . S
H2526 C2511 0.961 . S
H2527 C2511 0.960 . S
C2528 C2529 1.391 . S
C2528 C2530 1.394 . S
C2528 H2544 0.931 . S
C2529 C2528 1.391 . S
C2529 C2533 1.376 . S
C2530 C2528 1.394 . S
C2530 C2531 1.369 . S
C2530 C2534 1.531 . S
C2531 C2530 1.369 . S
C2531 C2532 1.410 . S
C2531 C2539 1.503 . S
C2532 C2531 1.410 . S
C2532 C2533 1.392 . S
C2532 C2535 1.511 . S
C2533 C2529 1.376 . S
C2533 C2532 1.392 . S
C2533 H2545 0.929 . S
C2534 C2530 1.531 . S
C2534 H2546 0.960 . S
C2534 H2547 0.962 . S
C2534 H2548 0.960 . S
C2535 C2532 1.511 . S
C2535 H2549 0.961 . S
C2535 H2550 0.961 . S
C2535 H2551 0.961 . S
C2536 C2537 1.370 . S
C2536 C2538 1.363 . S
C2536 H2552 0.931 . S
C2537 C2536 1.370 . S
C2537 C2541 1.408 . S
C2538 C2536 1.363 . S
C2538 C2539 1.370 . S
C2538 C2542 1.524 . S
C2539 C2531 1.503 . S
C2539 C2538 1.370 . S
C2539 C2540 1.403 . S
C2540 C2539 1.403 . S
C2540 C2541 1.404 . S
C2540 C2543 1.539 . S
C2541 C2537 1.408 . S
C2541 C2540 1.404 . S
C2541 H2553 0.930 . S
C2542 C2538 1.524 . S
C2542 H2554 0.956 . S
C2542 H2555 0.961 . S
C2542 H2556 0.961 . S
C2543 C2540 1.539 . S
C2543 H2557 0.958 . S
C2543 H2558 0.961 . S
C2543 H2559 0.960 . S
H2544 C2528 0.931 . S
H2545 C2533 0.929 . S
H2546 C2534 0.960 . S
H2547 C2534 0.962 . S
H2548 C2534 0.960 . S
H2549 C2535 0.961 . S
H2550 C2535 0.961 . S
H2551 C2535 0.961 . S
H2552 C2536 0.931 . S
H2553 C2541 0.930 . S
H2554 C2542 0.956 . S
H2555 C2542 0.961 . S
H2556 C2542 0.961 . S
H2557 C2543 0.958 . S
H2558 C2543 0.961 . S
H2559 C2543 0.960 . S
C2560 C2561 1.391 . S
C2560 C2562 1.394 . S
C2560 H2576 0.931 . S
C2561 C2560 1.391 . S
C2561 C2565 1.376 . S
C2562 C2560 1.394 . S
C2562 C2563 1.369 . S
C2562 C2566 1.531 . S
C2563 C2562 1.369 . S
C2563 C2564 1.410 . S
C2563 C2571 1.503 . S
C2564 C2563 1.410 . S
C2564 C2565 1.392 . S
C2564 C2567 1.511 . S
C2565 C2561 1.376 . S
C2565 C2564 1.392 . S
C2565 H2577 0.929 . S
C2566 C2562 1.531 . S
C2566 H2578 0.960 . S
C2566 H2579 0.962 . S
C2566 H2580 0.960 . S
C2567 C2564 1.511 . S
C2567 H2581 0.961 . S
C2567 H2582 0.961 . S
C2567 H2583 0.961 . S
C2568 C2569 1.370 . S
C2568 C2570 1.363 . S
C2568 H2584 0.931 . S
C2569 C2568 1.370 . S
C2569 C2573 1.408 . S
C2570 C2568 1.363 . S
C2570 C2571 1.370 . S
C2570 C2574 1.524 . S
C2571 C2563 1.503 . S
C2571 C2570 1.370 . S
C2571 C2572 1.403 . S
C2572 C2571 1.403 . S
C2572 C2573 1.404 . S
C2572 C2575 1.539 . S
C2573 C2569 1.408 . S
C2573 C2572 1.404 . S
C2573 H2585 0.930 . S
C2574 C2570 1.524 . S
C2574 H2586 0.956 . S
C2574 H2587 0.961 . S
C2574 H2588 0.961 . S
C2575 C2572 1.539 . S
C2575 H2589 0.958 . S
C2575 H2590 0.961 . S
C2575 H2591 0.960 . S
H2576 C2560 0.931 . S
H2577 C2565 0.929 . S
H2578 C2566 0.960 . S
H2579 C2566 0.962 . S
H2580 C2566 0.960 . S
H2581 C2567 0.961 . S
H2582 C2567 0.961 . S
H2583 C2567 0.961 . S
H2584 C2568 0.931 . S
H2585 C2573 0.930 . S
H2586 C2574 0.956 . S
H2587 C2574 0.961 . S
H2588 C2574 0.961 . S
H2589 C2575 0.958 . S
H2590 C2575 0.961 . S
H2591 C2575 0.960 . S
C2592 C2593 1.391 . S
C2592 C2594 1.394 . S
C2592 H2608 0.931 . S
C2593 C2592 1.391 . S
C2593 C2597 1.376 . S
C2594 C2592 1.394 . S
C2594 C2595 1.369 . S
C2594 C2598 1.531 . S
C2595 C2594 1.369 . S
C2595 C2596 1.410 . S
C2595 C2603 1.503 . S
C2596 C2595 1.410 . S
C2596 C2597 1.392 . S
C2596 C2599 1.511 . S
C2597 C2593 1.376 . S
C2597 C2596 1.392 . S
C2597 H2609 0.929 . S
C2598 C2594 1.531 . S
C2598 H2610 0.960 . S
C2598 H2611 0.962 . S
C2598 H2612 0.960 . S
C2599 C2596 1.511 . S
C2599 H2613 0.961 . S
C2599 H2614 0.961 . S
C2599 H2615 0.961 . S
C2600 C2601 1.370 . S
C2600 C2602 1.363 . S
C2600 H2616 0.931 . S
C2601 C2600 1.370 . S
C2601 C2605 1.408 . S
C2602 C2600 1.363 . S
C2602 C2603 1.370 . S
C2602 C2606 1.524 . S
C2603 C2595 1.503 . S
C2603 C2602 1.370 . S
C2603 C2604 1.403 . S
C2604 C2603 1.403 . S
C2604 C2605 1.404 . S
C2604 C2607 1.539 . S
C2605 C2601 1.408 . S
C2605 C2604 1.404 . S
C2605 H2617 0.930 . S
C2606 C2602 1.524 . S
C2606 H2618 0.956 . S
C2606 H2619 0.961 . S
C2606 H2620 0.961 . S
C2607 C2604 1.539 . S
C2607 H2621 0.958 . S
C2607 H2622 0.961 . S
C2607 H2623 0.960 . S
H2608 C2592 0.931 . S
H2609 C2597 0.929 . S
H2610 C2598 0.960 . S
H2611 C2598 0.962 . S
H2612 C2598 0.960 . S
H2613 C2599 0.961 . S
H2614 C2599 0.961 . S
H2615 C2599 0.961 . S
H2616 C2600 0.931 . S
H2617 C2605 0.930 . S
H2618 C2606 0.956 . S
H2619 C2606 0.961 . S
H2620 C2606 0.961 . S
H2621 C2607 0.958 . S
H2622 C2607 0.961 . S
H2623 C2607 0.960 . S
C2624 C2625 1.391 . S
C2624 C2626 1.394 . S
C2624 H2640 0.931 . S
C2625 C2624 1.391 . S
C2625 C2629 1.376 . S
C2626 C2624 1.394 . S
C2626 C2627 1.369 . S
C2626 C2630 1.531 . S
C2627 C2626 1.369 . S
C2627 C2628 1.410 . S
C2627 C2635 1.503 . S
C2628 C2627 1.410 . S
C2628 C2629 1.392 . S
C2628 C2631 1.511 . S
C2629 C2625 1.376 . S
C2629 C2628 1.392 . S
C2629 H2641 0.929 . S
C2630 C2626 1.531 . S
C2630 H2642 0.960 . S
C2630 H2643 0.962 . S
C2630 H2644 0.960 . S
C2631 C2628 1.511 . S
C2631 H2645 0.961 . S
C2631 H2646 0.961 . S
C2631 H2647 0.961 . S
C2632 C2633 1.370 . S
C2632 C2634 1.363 . S
C2632 H2648 0.931 . S
C2633 C2632 1.370 . S
C2633 C2637 1.408 . S
C2634 C2632 1.363 . S
C2634 C2635 1.370 . S
C2634 C2638 1.524 . S
C2635 C2627 1.503 . S
C2635 C2634 1.370 . S
C2635 C2636 1.403 . S
C2636 C2635 1.403 . S
C2636 C2637 1.404 . S
C2636 C2639 1.539 . S
C2637 C2633 1.408 . S
C2637 C2636 1.404 . S
C2637 H2649 0.930 . S
C2638 C2634 1.524 . S
C2638 H2650 0.956 . S
C2638 H2651 0.961 . S
C2638 H2652 0.961 . S
C2639 C2636 1.539 . S
C2639 H2653 0.958 . S
C2639 H2654 0.961 . S
C2639 H2655 0.960 . S
H2640 C2624 0.931 . S
H2641 C2629 0.929 . S
H2642 C2630 0.960 . S
H2643 C2630 0.962 . S
H2644 C2630 0.960 . S
H2645 C2631 0.961 . S
H2646 C2631 0.961 . S
H2647 C2631 0.961 . S
H2648 C2632 0.931 . S
H2649 C2637 0.930 . S
H2650 C2638 0.956 . S
H2651 C2638 0.961 . S
H2652 C2638 0.961 . S
H2653 C2639 0.958 . S
H2654 C2639 0.961 . S
H2655 C2639 0.960 . S
C2656 C2657 1.391 . S
C2656 C2658 1.394 . S
C2656 H2672 0.931 . S
C2657 C2656 1.391 . S
C2657 C2661 1.376 . S
C2658 C2656 1.394 . S
C2658 C2659 1.369 . S
C2658 C2662 1.531 . S
C2659 C2658 1.369 . S
C2659 C2660 1.410 . S
C2659 C2667 1.503 . S
C2660 C2659 1.410 . S
C2660 C2661 1.392 . S
C2660 C2663 1.511 . S
C2661 C2657 1.376 . S
C2661 C2660 1.392 . S
C2661 H2673 0.929 . S
C2662 C2658 1.531 . S
C2662 H2674 0.960 . S
C2662 H2675 0.962 . S
C2662 H2676 0.960 . S
C2663 C2660 1.511 . S
C2663 H2677 0.961 . S
C2663 H2678 0.961 . S
C2663 H2679 0.961 . S
C2664 C2665 1.370 . S
C2664 C2666 1.363 . S
C2664 H2680 0.931 1_556 S
C2665 C2664 1.370 . S
C2665 C2669 1.408 . S
C2666 C2664 1.363 . S
C2666 C2667 1.370 . S
C2666 C2670 1.524 . S
C2667 C2659 1.503 . S
C2667 C2666 1.370 . S
C2667 C2668 1.403 . S
C2668 C2667 1.403 . S
C2668 C2669 1.404 . S
C2668 C2671 1.539 . S
C2669 C2665 1.408 . S
C2669 C2668 1.404 . S
C2669 H2681 0.930 . S
C2670 C2666 1.524 . S
C2670 H2682 0.956 . S
C2670 H2683 0.961 . S
C2670 H2684 0.961 . S
C2671 C2668 1.539 . S
C2671 H2685 0.958 . S
C2671 H2686 0.961 . S
C2671 H2687 0.960 . S
H2672 C2656 0.931 . S
H2673 C2661 0.929 . S
H2674 C2662 0.960 . S
H2675 C2662 0.962 . S
H2676 C2662 0.960 . S
H2677 C2663 0.961 . S
H2678 C2663 0.961 . S
H2679 C2663 0.961 . S
H2680 C2664 0.931 1_554 S
H2681 C2669 0.930 . S
H2682 C2670 0.956 . S
H2683 C2670 0.961 . S
H2684 C2670 0.961 . S
H2685 C2671 0.958 . S
H2686 C2671 0.961 . S
H2687 C2671 0.960 . S
C2688 C2689 1.391 . S
C2688 C2690 1.394 . S
C2688 H2704 0.931 . S
C2689 C2688 1.391 . S
C2689 C2693 1.376 . S
C2690 C2688 1.394 . S
C2690 C2691 1.369 . S
C2690 C2694 1.531 . S
C2691 C2690 1.369 . S
C2691 C2692 1.410 . S
C2691 C2699 1.503 1_545 S
C2692 C2691 1.410 . S
C2692 C2693 1.392 . S
C2692 C2695 1.511 1_545 S
C2693 C2689 1.376 . S
C2693 C2692 1.392 . S
C2693 H2705 0.929 . S
C2694 C2690 1.531 . S
C2694 H2706 0.960 . S
C2694 H2707 0.962 . S
C2694 H2708 0.960 . S
C2695 C2692 1.511 1_565 S
C2695 H2709 0.961 . S
C2695 H2710 0.961 . S
C2695 H2711 0.961 . S
C2696 C2697 1.370 . S
C2696 C2698 1.363 . S
C2696 H2712 0.931 . S
C2697 C2696 1.370 . S
C2697 C2701 1.408 . S
C2698 C2696 1.363 . S
C2698 C2699 1.370 . S
C2698 C2702 1.524 . S
C2699 C2691 1.503 1_565 S
C2699 C2698 1.370 . S
C2699 C2700 1.403 . S
C2700 C2699 1.403 . S
C2700 C2701 1.404 . S
C2700 C2703 1.539 . S
C2701 C2697 1.408 . S
C2701 C2700 1.404 . S
C2701 H2713 0.930 . S
C2702 C2698 1.524 . S
C2702 H2714 0.956 1_565 S
C2702 H2715 0.961 . S
C2702 H2716 0.961 . S
C2703 C2700 1.539 . S
C2703 H2717 0.958 . S
C2703 H2718 0.961 . S
C2703 H2719 0.960 . S
H2704 C2688 0.931 . S
H2705 C2693 0.929 . S
H2706 C2694 0.960 . S
H2707 C2694 0.962 . S
H2708 C2694 0.960 . S
H2709 C2695 0.961 . S
H2710 C2695 0.961 . S
H2711 C2695 0.961 . S
H2712 C2696 0.931 . S
H2713 C2701 0.930 . S
H2714 C2702 0.956 1_545 S
H2715 C2702 0.961 . S
H2716 C2702 0.961 . S
H2717 C2703 0.958 . S
H2718 C2703 0.961 . S
H2719 C2703 0.960 . S
C2720 C2721 1.386 1_655 S
C2720 C2722 1.396 . S
C2720 H2736 0.934 . S
C2721 C2720 1.386 1_455 S
C2721 C2725 1.376 . S
C2722 C2720 1.396 . S
C2722 C2723 1.369 1_655 S
C2722 C2726 1.531 . S
C2723 C2722 1.369 1_455 S
C2723 C2724 1.410 . S
C2723 C2731 1.503 1_465 S
C2724 C2723 1.410 . S
C2724 C2725 1.392 . S
C2724 C2727 1.511 1_565 S
C2725 C2721 1.376 . S
C2725 C2724 1.392 . S
C2725 H2737 0.929 . S
C2726 C2722 1.531 . S
C2726 H2738 0.960 1_565 S
C2726 H2739 0.962 . S
C2726 H2740 0.960 . S
C2727 C2724 1.511 1_545 S
C2727 H2741 0.961 1_545 S
C2727 H2742 0.961 . S
C2727 H2743 0.961 . S
C2728 C2729 1.370 . S
C2728 C2730 1.363 . S
C2728 H2744 0.931 . S
C2729 C2728 1.370 . S
C2729 C2733 1.408 . S
C2730 C2728 1.363 . S
C2730 C2731 1.370 . S
C2730 C2734 1.524 1_545 S
C2731 C2723 1.503 1_645 S
C2731 C2730 1.370 . S
C2731 C2732 1.403 . S
C2732 C2731 1.403 . S
C2732 C2733 1.404 . S
C2732 C2735 1.539 1_655 S
C2733 C2729 1.408 . S
C2733 C2732 1.404 . S
C2733 H2745 0.930 . S
C2734 C2730 1.524 1_565 S
C2734 H2746 0.956 . S
C2734 H2747 0.961 1_655 S
C2734 H2748 0.961 . S
C2735 C2732 1.539 1_455 S
C2735 H2749 0.958 1_455 S
C2735 H2750 0.961 . S
C2735 H2751 0.960 . S
H2736 C2720 0.934 . S
H2737 C2725 0.929 . S
H2738 C2726 0.960 1_545 S
H2739 C2726 0.962 . S
H2740 C2726 0.960 . S
H2741 C2727 0.961 1_565 S
H2742 C2727 0.961 . S
H2743 C2727 0.961 . S
H2744 C2728 0.931 . S
H2745 C2733 0.930 . S
H2746 C2734 0.956 . S
H2747 C2734 0.961 1_455 S
H2748 C2734 0.961 . S
H2749 C2735 0.958 1_655 S
H2750 C2735 0.961 . S
H2751 C2735 0.960 . S
C2752 C2753 1.391 1_545 S
C2752 C2754 1.394 . S
C2752 H2768 0.931 . S
C2753 C2752 1.391 1_565 S
C2753 C2757 1.376 . S
C2754 C2752 1.394 . S
C2754 C2755 1.369 1_545 S
C2754 C2758 1.531 . S
C2755 C2754 1.369 1_565 S
C2755 C2756 1.410 . S
C2755 C2763 1.496 1_565 S
C2756 C2755 1.410 . S
C2756 C2757 1.392 . S
C2756 C2759 1.511 . S
C2757 C2753 1.376 . S
C2757 C2756 1.392 . S
C2757 H2769 0.929 . S
C2758 C2754 1.531 . S
C2758 H2770 0.960 . S
C2758 H2771 0.962 . S
C2758 H2772 0.960 . S
C2759 C2756 1.511 . S
C2759 H2773 0.961 . S
C2759 H2774 0.961 . S
C2759 H2775 0.961 . S
C2760 C2761 1.370 . S
C2760 C2762 1.363 . S
C2760 H2776 0.931 . S
C2761 C2760 1.370 . S
C2761 C2765 1.408 1_545 S
C2762 C2760 1.363 . S
C2762 C2763 1.390 . S
C2762 C2766 1.524 . S
C2763 C2755 1.496 1_545 S
C2763 C2762 1.390 . S
C2763 C2764 1.392 1_545 S
C2764 C2763 1.392 1_565 S
C2764 C2765 1.404 . S
C2764 C2767 1.539 . S
C2765 C2761 1.408 1_565 S
C2765 C2764 1.404 . S
C2765 H2777 0.930 . S
C2766 C2762 1.524 . S
C2766 H2778 0.956 . S
C2766 H2779 0.961 . S
C2766 H2780 0.961 . S
C2767 C2764 1.539 . S
C2767 H2781 0.958 . S
C2767 H2782 0.961 . S
C2767 H2783 0.960 . S
H2768 C2752 0.931 . S
H2769 C2757 0.929 . S
H2770 C2758 0.960 . S
H2771 C2758 0.962 . S
H2772 C2758 0.960 . S
H2773 C2759 0.961 . S
H2774 C2759 0.961 . S
H2775 C2759 0.961 . S
H2776 C2760 0.931 . S
H2777 C2765 0.930 . S
H2778 C2766 0.956 . S
H2779 C2766 0.961 . S
H2780 C2766 0.961 . S
H2781 C2767 0.958 . S
H2782 C2767 0.961 . S
H2783 C2767 0.960 . S
C2784 C2785 1.391 . S
C2784 C2786 1.394 . S
C2784 H2800 0.931 . S
C2785 C2784 1.391 . S
C2785 C2789 1.376 1_565 S
C2786 C2784 1.394 . S
C2786 C2787 1.369 . S
C2786 C2790 1.531 . S
C2787 C2786 1.369 . S
C2787 C2788 1.410 1_565 S
C2787 C2795 1.507 1_655 S
C2788 C2787 1.410 1_545 S
C2788 C2789 1.392 . S
C2788 C2791 1.511 1_655 S
C2789 C2785 1.376 1_545 S
C2789 C2788 1.392 . S
C2789 H2801 0.929 . S
C2790 C2786 1.531 . S
C2790 H2802 0.960 . S
C2790 H2803 0.962 . S
C2790 H2804 0.960 . S
C2791 C2788 1.511 1_455 S
C2791 H2805 0.961 . S
C2791 H2806 0.961 . S
C2791 H2807 0.961 . S
C2792 C2793 1.370 . S
C2792 C2794 1.363 . S
C2792 H2808 0.931 . S
C2793 C2792 1.370 . S
C2793 C2797 1.408 1_545 S
C2794 C2792 1.363 . S
C2794 C2795 1.360 1_545 S
C2794 C2798 1.524 1_455 S
C2795 C2787 1.507 1_455 S
C2795 C2794 1.360 1_565 S
C2795 C2796 1.409 . S
C2796 C2795 1.409 . S
C2796 C2797 1.404 . S
C2796 C2799 1.539 . S
C2797 C2793 1.408 1_565 S
C2797 C2796 1.404 . S
C2797 H2809 0.930 . S
C2798 C2794 1.524 1_655 S
C2798 H2810 0.956 . S
C2798 H2811 0.961 . S
C2798 H2812 0.961 . S
C2799 C2796 1.539 . S
C2799 H2813 0.958 . S
C2799 H2814 0.961 . S
C2799 H2815 0.960 . S
H2800 C2784 0.931 . S
H2801 C2789 0.929 . S
H2802 C2790 0.960 . S
H2803 C2790 0.962 . S
H2804 C2790 0.960 . S
H2805 C2791 0.961 . S
H2806 C2791 0.961 . S
H2807 C2791 0.961 . S
H2808 C2792 0.931 . S
H2809 C2797 0.930 . S
H2810 C2798 0.956 . S
H2811 C2798 0.961 . S
H2812 C2798 0.961 . S
H2813 C2799 0.958 . S
H2814 C2799 0.961 . S
H2815 C2799 0.960 . S
C2816 C2817 1.391 . S
C2816 C2818 1.394 1_454 S
C2816 H2832 0.931 1_455 S
C2817 C2816 1.391 . S
C2817 C2821 1.376 1_554 S
C2818 C2816 1.394 1_656 S
C2818 C2819 1.369 1_655 S
C2818 C2822 1.531 . S
C2819 C2818 1.369 1_455 S
C2819 C2820 1.410 . S
C2819 C2827 1.503 1_455 S
C2820 C2819 1.410 . S
C2820 C2821 1.392 . S
C2820 C2823 1.511 . S
C2821 C2817 1.376 1_556 S
C2821 C2820 1.392 . S
C2821 H2833 0.929 . S
C2822 C2818 1.531 . S
C2822 H2834 0.960 . S
C2822 H2835 0.962 . S
C2822 H2836 0.960 1_556 S
C2823 C2820 1.511 . S
C2823 H2837 0.961 . S
C2823 H2838 0.961 . S
C2823 H2839 0.961 . S
C2824 C2825 1.370 . S
C2824 C2826 1.363 . S
C2824 H2840 0.931 . S
C2825 C2824 1.370 . S
C2825 C2829 1.408 . S
C2826 C2824 1.363 . S
C2826 C2827 1.370 . S
C2826 C2830 1.524 . S
C2827 C2819 1.503 1_655 S
C2827 C2826 1.370 . S
C2827 C2828 1.403 . S
C2828 C2827 1.403 . S
C2828 C2829 1.404 . S
C2828 C2831 1.539 1_655 S
C2829 C2825 1.408 . S
C2829 C2828 1.404 . S
C2829 H2841 0.930 . S
C2830 C2826 1.524 . S
C2830 H2842 0.956 . S
C2830 H2843 0.961 . S
C2830 H2844 0.961 . S
C2831 C2828 1.539 1_455 S
C2831 H2845 0.958 1_455 S
C2831 H2846 0.961 . S
C2831 H2847 0.960 . S
H2832 C2816 0.931 1_655 S
H2833 C2821 0.929 . S
H2834 C2822 0.960 . S
H2835 C2822 0.962 . S
H2836 C2822 0.960 1_554 S
H2837 C2823 0.961 . S
H2838 C2823 0.961 . S
H2839 C2823 0.961 . S
H2840 C2824 0.931 . S
H2841 C2829 0.930 . S
H2842 C2830 0.956 . S
H2843 C2830 0.961 . S
H2844 C2830 0.961 . S
H2845 C2831 0.958 1_655 S
H2846 C2831 0.961 . S
H2847 C2831 0.960 . S
C2848 C2849 1.391 . S
C2848 C2850 1.394 . S
C2848 H2864 0.931 . S
C2849 C2848 1.391 . S
C2849 C2853 1.376 . S
C2850 C2848 1.394 . S
C2850 C2851 1.369 . S
C2850 C2854 1.531 . S
C2851 C2850 1.369 . S
C2851 C2852 1.410 . S
C2851 C2859 1.503 . S
C2852 C2851 1.410 . S
C2852 C2853 1.392 . S
C2852 C2855 1.511 . S
C2853 C2849 1.376 . S
C2853 C2852 1.392 . S
C2853 H2865 0.929 . S
C2854 C2850 1.531 . S
C2854 H2866 0.960 . S
C2854 H2867 0.962 . S
C2854 H2868 0.960 . S
C2855 C2852 1.511 . S
C2855 H2869 0.961 . S
C2855 H2870 0.961 . S
C2855 H2871 0.961 . S
C2856 C2857 1.370 . S
C2856 C2858 1.363 . S
C2856 H2872 0.931 . S
C2857 C2856 1.370 . S
C2857 C2861 1.408 . S
C2858 C2856 1.363 . S
C2858 C2859 1.370 . S
C2858 C2862 1.524 . S
C2859 C2851 1.503 . S
C2859 C2858 1.370 . S
C2859 C2860 1.403 . S
C2860 C2859 1.403 . S
C2860 C2861 1.404 . S
C2860 C2863 1.539 . S
C2861 C2857 1.408 . S
C2861 C2860 1.404 . S
C2861 H2873 0.930 . S
C2862 C2858 1.524 . S
C2862 H2874 0.956 . S
C2862 H2875 0.961 . S
C2862 H2876 0.961 . S
C2863 C2860 1.539 . S
C2863 H2877 0.958 . S
C2863 H2878 0.961 . S
C2863 H2879 0.960 . S
H2864 C2848 0.931 . S
H2865 C2853 0.929 . S
H2866 C2854 0.960 . S
H2867 C2854 0.962 . S
H2868 C2854 0.960 . S
H2869 C2855 0.961 . S
H2870 C2855 0.961 . S
H2871 C2855 0.961 . S
H2872 C2856 0.931 . S
H2873 C2861 0.930 . S
H2874 C2862 0.956 . S
H2875 C2862 0.961 . S
H2876 C2862 0.961 . S
H2877 C2863 0.958 . S
H2878 C2863 0.961 . S
H2879 C2863 0.960 . S
C2880 C2881 1.391 . S
C2880 C2882 1.394 . S
C2880 H2896 0.931 . S
C2881 C2880 1.391 . S
C2881 C2885 1.376 . S
C2882 C2880 1.394 . S
C2882 C2883 1.369 . S
C2882 C2886 1.531 . S
C2883 C2882 1.369 . S
C2883 C2884 1.410 . S
C2883 C2891 1.503 . S
C2884 C2883 1.410 . S
C2884 C2885 1.392 . S
C2884 C2887 1.511 . S
C2885 C2881 1.376 . S
C2885 C2884 1.392 . S
C2885 H2897 0.929 . S
C2886 C2882 1.531 . S
C2886 H2898 0.960 . S
C2886 H2899 0.962 . S
C2886 H2900 0.960 . S
C2887 C2884 1.511 . S
C2887 H2901 0.961 . S
C2887 H2902 0.961 . S
C2887 H2903 0.961 . S
C2888 C2889 1.370 . S
C2888 C2890 1.363 . S
C2888 H2904 0.931 . S
C2889 C2888 1.370 . S
C2889 C2893 1.408 . S
C2890 C2888 1.363 . S
C2890 C2891 1.370 . S
C2890 C2894 1.524 . S
C2891 C2883 1.503 . S
C2891 C2890 1.370 . S
C2891 C2892 1.403 . S
C2892 C2891 1.403 . S
C2892 C2893 1.404 . S
C2892 C2895 1.539 . S
C2893 C2889 1.408 . S
C2893 C2892 1.404 . S
C2893 H2905 0.930 . S
C2894 C2890 1.524 . S
C2894 H2906 0.956 . S
C2894 H2907 0.961 . S
C2894 H2908 0.961 . S
C2895 C2892 1.539 . S
C2895 H2909 0.958 . S
C2895 H2910 0.961 . S
C2895 H2911 0.960 . S
H2896 C2880 0.931 . S
H2897 C2885 0.929 . S
H2898 C2886 0.960 . S
H2899 C2886 0.962 . S
H2900 C2886 0.960 . S
H2901 C2887 0.961 . S
H2902 C2887 0.961 . S
H2903 C2887 0.961 . S
H2904 C2888 0.931 . S
H2905 C2893 0.930 . S
H2906 C2894 0.956 . S
H2907 C2894 0.961 . S
H2908 C2894 0.961 . S
H2909 C2895 0.958 . S
H2910 C2895 0.961 . S
H2911 C2895 0.960 . S
C2912 C2913 1.391 . S
C2912 C2914 1.394 . S
C2912 H2928 0.931 . S
C2913 C2912 1.391 . S
C2913 C2917 1.376 . S
C2914 C2912 1.394 . S
C2914 C2915 1.369 . S
C2914 C2918 1.531 . S
C2915 C2914 1.369 . S
C2915 C2916 1.410 . S
C2915 C2923 1.503 . S
C2916 C2915 1.410 . S
C2916 C2917 1.392 . S
C2916 C2919 1.511 . S
C2917 C2913 1.376 . S
C2917 C2916 1.392 . S
C2917 H2929 0.929 . S
C2918 C2914 1.531 . S
C2918 H2930 0.960 . S
C2918 H2931 0.962 . S
C2918 H2932 0.960 . S
C2919 C2916 1.511 . S
C2919 H2933 0.961 . S
C2919 H2934 0.961 . S
C2919 H2935 0.961 . S
C2920 C2921 1.370 . S
C2920 C2922 1.363 . S
C2920 H2936 0.931 . S
C2921 C2920 1.370 . S
C2921 C2925 1.408 . S
C2922 C2920 1.363 . S
C2922 C2923 1.370 . S
C2922 C2926 1.524 . S
C2923 C2915 1.503 . S
C2923 C2922 1.370 . S
C2923 C2924 1.403 . S
C2924 C2923 1.403 . S
C2924 C2925 1.404 . S
C2924 C2927 1.539 . S
C2925 C2921 1.408 . S
C2925 C2924 1.404 . S
C2925 H2937 0.930 . S
C2926 C2922 1.524 . S
C2926 H2938 0.956 . S
C2926 H2939 0.961 . S
C2926 H2940 0.961 . S
C2927 C2924 1.539 . S
C2927 H2941 0.958 . S
C2927 H2942 0.961 . S
C2927 H2943 0.960 . S
H2928 C2912 0.931 . S
H2929 C2917 0.929 . S
H2930 C2918 0.960 . S
H2931 C2918 0.962 . S
H2932 C2918 0.960 . S
H2933 C2919 0.961 . S
H2934 C2919 0.961 . S
H2935 C2919 0.961 . S
H2936 C2920 0.931 . S
H2937 C2925 0.930 . S
H2938 C2926 0.956 . S
H2939 C2926 0.961 . S
H2940 C2926 0.961 . S
H2941 C2927 0.958 . S
H2942 C2927 0.961 . S
H2943 C2927 0.960 . S
C2944 C2945 1.391 1_455 S
C2944 C2946 1.394 . S
C2944 H2960 0.931 . S
C2945 C2944 1.391 1_655 S
C2945 C2949 1.376 . S
C2946 C2944 1.394 . S
C2946 C2947 1.369 . S
C2946 C2950 1.531 . S
C2947 C2946 1.369 . S
C2947 C2948 1.410 . S
C2947 C2955 1.503 . S
C2948 C2947 1.410 . S
C2948 C2949 1.392 1_455 S
C2948 C2951 1.511 1_455 S
C2949 C2945 1.376 . S
C2949 C2948 1.392 1_655 S
C2949 H2961 0.929 . S
C2950 C2946 1.531 . S
C2950 H2962 0.960 . S
C2950 H2963 0.962 . S
C2950 H2964 0.960 . S
C2951 C2948 1.511 1_655 S
C2951 H2965 0.961 . S
C2951 H2966 0.961 . S
C2951 H2967 0.961 1_655 S
C2952 C2953 1.370 . S
C2952 C2954 1.363 . S
C2952 H2968 0.931 . S
C2953 C2952 1.370 . S
C2953 C2957 1.408 . S
C2954 C2952 1.363 . S
C2954 C2955 1.370 . S
C2954 C2958 1.524 1_455 S
C2955 C2947 1.503 . S
C2955 C2954 1.370 . S
C2955 C2956 1.403 . S
C2956 C2955 1.403 . S
C2956 C2957 1.404 . S
C2956 C2959 1.539 . S
C2957 C2953 1.408 . S
C2957 C2956 1.404 . S
C2957 H2969 0.930 . S
C2958 C2954 1.524 1_655 S
C2958 H2970 0.956 1_655 S
C2958 H2971 0.961 . S
C2958 H2972 0.961 . S
C2959 C2956 1.539 . S
C2959 H2973 0.958 . S
C2959 H2974 0.961 . S
C2959 H2975 0.960 . S
H2960 C2944 0.931 . S
H2961 C2949 0.929 . S
H2962 C2950 0.960 . S
H2963 C2950 0.962 . S
H2964 C2950 0.960 . S
H2965 C2951 0.961 . S
H2966 C2951 0.961 . S
H2967 C2951 0.961 1_455 S
H2968 C2952 0.931 . S
H2969 C2957 0.930 . S
H2970 C2958 0.956 1_455 S
H2971 C2958 0.961 . S
H2972 C2958 0.961 . S
H2973 C2959 0.958 . S
H2974 C2959 0.961 . S
H2975 C2959 0.960 . S
C2976 C2977 1.391 . S
C2976 C2978 1.394 . S
C2976 H2992 0.931 . S
C2977 C2976 1.391 . S
C2977 C2981 1.376 . S
C2978 C2976 1.394 . S
C2978 C2979 1.369 . S
C2978 C2982 1.531 . S
C2979 C2978 1.369 . S
C2979 C2980 1.410 . S
C2979 C2987 1.503 . S
C2980 C2979 1.410 . S
C2980 C2981 1.392 . S
C2980 C2983 1.511 . S
C2981 C2977 1.376 . S
C2981 C2980 1.392 . S
C2981 H2993 0.929 . S
C2982 C2978 1.531 . S
C2982 H2994 0.960 . S
C2982 H2995 0.962 . S
C2982 H2996 0.960 . S
C2983 C2980 1.511 . S
C2983 H2997 0.961 . S
C2983 H2998 0.961 . S
C2983 H2999 0.961 . S
C2984 C2985 1.370 . S
C2984 C2986 1.363 . S
C2984 H3000 0.931 . S
C2985 C2984 1.370 . S
C2985 C2989 1.408 . S
C2986 C2984 1.363 . S
C2986 C2987 1.370 . S
C2986 C2990 1.524 . S
C2987 C2979 1.503 . S
C2987 C2986 1.370 . S
C2987 C2988 1.403 . S
C2988 C2987 1.403 . S
C2988 C2989 1.404 . S
C2988 C2991 1.539 . S
C2989 C2985 1.408 . S
C2989 C2988 1.404 . S
C2989 H3001 0.930 . S
C2990 C2986 1.524 . S
C2990 H3002 0.956 . S
C2990 H3003 0.961 . S
C2990 H3004 0.961 . S
C2991 C2988 1.539 . S
C2991 H3005 0.958 . S
C2991 H3006 0.961 . S
C2991 H3007 0.960 . S
H2992 C2976 0.931 . S
H2993 C2981 0.929 . S
H2994 C2982 0.960 . S
H2995 C2982 0.962 . S
H2996 C2982 0.960 . S
H2997 C2983 0.961 . S
H2998 C2983 0.961 . S
H2999 C2983 0.961 . S
H3000 C2984 0.931 . S
H3001 C2989 0.930 . S
H3002 C2990 0.956 . S
H3003 C2990 0.961 . S
H3004 C2990 0.961 . S
H3005 C2991 0.958 . S
H3006 C2991 0.961 . S
H3007 C2991 0.960 . S
C3008 C3009 1.391 . S
C3008 C3010 1.394 . S
C3008 H3024 0.931 . S
C3009 C3008 1.391 . S
C3009 C3013 1.376 . S
C3010 C3008 1.394 . S
C3010 C3011 1.369 . S
C3010 C3014 1.531 . S
C3011 C3010 1.369 . S
C3011 C3012 1.410 . S
C3011 C3019 1.503 . S
C3012 C3011 1.410 . S
C3012 C3013 1.392 . S
C3012 C3015 1.511 . S
C3013 C3009 1.376 . S
C3013 C3012 1.392 . S
C3013 H3025 0.929 . S
C3014 C3010 1.531 . S
C3014 H3026 0.960 . S
C3014 H3027 0.962 . S
C3014 H3028 0.960 . S
C3015 C3012 1.511 . S
C3015 H3029 0.961 . S
C3015 H3030 0.961 . S
C3015 H3031 0.961 . S
C3016 C3017 1.370 . S
C3016 C3018 1.363 . S
C3016 H3032 0.931 . S
C3017 C3016 1.370 . S
C3017 C3021 1.408 . S
C3018 C3016 1.363 . S
C3018 C3019 1.370 . S
C3018 C3022 1.524 . S
C3019 C3011 1.503 . S
C3019 C3018 1.370 . S
C3019 C3020 1.403 . S
C3020 C3019 1.403 . S
C3020 C3021 1.404 . S
C3020 C3023 1.539 . S
C3021 C3017 1.408 . S
C3021 C3020 1.404 . S
C3021 H3033 0.930 . S
C3022 C3018 1.524 . S
C3022 H3034 0.956 . S
C3022 H3035 0.961 . S
C3022 H3036 0.961 . S
C3023 C3020 1.539 . S
C3023 H3037 0.958 . S
C3023 H3038 0.961 . S
C3023 H3039 0.960 . S
H3024 C3008 0.931 . S
H3025 C3013 0.929 . S
H3026 C3014 0.960 . S
H3027 C3014 0.962 . S
H3028 C3014 0.960 . S
H3029 C3015 0.961 . S
H3030 C3015 0.961 . S
H3031 C3015 0.961 . S
H3032 C3016 0.931 . S
H3033 C3021 0.930 . S
H3034 C3022 0.956 . S
H3035 C3022 0.961 . S
H3036 C3022 0.961 . S
H3037 C3023 0.958 . S
H3038 C3023 0.961 . S
H3039 C3023 0.960 . S
C3040 C3041 1.391 . S
C3040 C3042 1.394 . S
C3040 H3056 0.931 . S
C3041 C3040 1.391 . S
C3041 C3045 1.376 . S
C3042 C3040 1.394 . S
C3042 C3043 1.369 . S
C3042 C3046 1.531 . S
C3043 C3042 1.369 . S
C3043 C3044 1.410 . S
C3043 C3051 1.503 . S
C3044 C3043 1.410 . S
C3044 C3045 1.392 . S
C3044 C3047 1.511 . S
C3045 C3041 1.376 . S
C3045 C3044 1.392 . S
C3045 H3057 0.929 . S
C3046 C3042 1.531 . S
C3046 H3058 0.960 . S
C3046 H3059 0.962 . S
C3046 H3060 0.960 . S
C3047 C3044 1.511 . S
C3047 H3061 0.961 . S
C3047 H3062 0.961 . S
C3047 H3063 0.961 . S
C3048 C3049 1.370 . S
C3048 C3050 1.363 . S
C3048 H3064 0.931 . S
C3049 C3048 1.370 . S
C3049 C3053 1.408 . S
C3050 C3048 1.363 . S
C3050 C3051 1.370 . S
C3050 C3054 1.524 . S
C3051 C3043 1.503 . S
C3051 C3050 1.370 . S
C3051 C3052 1.403 . S
C3052 C3051 1.403 . S
C3052 C3053 1.404 . S
C3052 C3055 1.539 . S
C3053 C3049 1.408 . S
C3053 C3052 1.404 . S
C3053 H3065 0.930 . S
C3054 C3050 1.524 . S
C3054 H3066 0.956 . S
C3054 H3067 0.961 . S
C3054 H3068 0.961 . S
C3055 C3052 1.539 . S
C3055 H3069 0.958 . S
C3055 H3070 0.961 . S
C3055 H3071 0.960 . S
H3056 C3040 0.931 . S
H3057 C3045 0.929 . S
H3058 C3046 0.960 . S
H3059 C3046 0.962 . S
H3060 C3046 0.960 . S
H3061 C3047 0.961 . S
H3062 C3047 0.961 . S
H3063 C3047 0.961 . S
H3064 C3048 0.931 . S
H3065 C3053 0.930 . S
H3066 C3054 0.956 . S
H3067 C3054 0.961 . S
H3068 C3054 0.961 . S
H3069 C3055 0.958 . S
H3070 C3055 0.961 . S
H3071 C3055 0.960 . S
C3072 C3073 1.391 . S
C3072 C3074 1.394 . S
C3072 H3088 0.931 . S
C3073 C3072 1.391 . S
C3073 C3077 1.376 . S
C3074 C3072 1.394 . S
C3074 C3075 1.369 . S
C3074 C3078 1.531 . S
C3075 C3074 1.369 . S
C3075 C3076 1.410 . S
C3075 C3083 1.503 1_455 S
C3076 C3075 1.410 . S
C3076 C3077 1.392 . S
C3076 C3079 1.511 1_455 S
C3077 C3073 1.376 . S
C3077 C3076 1.392 . S
C3077 H3089 0.929 . S
C3078 C3074 1.531 . S
C3078 H3090 0.960 . S
C3078 H3091 0.962 . S
C3078 H3092 0.960 . S
C3079 C3076 1.511 1_655 S
C3079 H3093 0.947 1_655 S
C3079 H3094 0.961 . S
C3079 H3095 0.961 . S
C3080 C3081 1.370 . S
C3080 C3082 1.363 1_655 S
C3080 H3096 0.931 1_655 S
C3081 C3080 1.370 . S
C3081 C3085 1.408 . S
C3082 C3080 1.363 1_455 S
C3082 C3083 1.370 1_455 S
C3082 C3086 1.524 . S
C3083 C3075 1.503 1_655 S
C3083 C3082 1.370 1_655 S
C3083 C3084 1.403 . S
C3084 C3083 1.403 . S
C3084 C3085 1.404 . S
C3084 C3087 1.539 . S
C3085 C3081 1.408 . S
C3085 C3084 1.404 . S
C3085 H3097 0.930 . S
C3086 C3082 1.524 . S
C3086 H3098 0.956 . S
C3086 H3099 0.961 . S
C3086 H3100 0.961 . S
C3087 C3084 1.539 . S
C3087 H3101 0.958 . S
C3087 H3102 0.961 . S
C3087 H3103 0.960 . S
H3088 C3072 0.931 . S
H3089 C3077 0.929 . S
H3090 C3078 0.960 . S
H3091 C3078 0.962 . S
H3092 C3078 0.960 . S
H3093 C3079 0.947 1_455 S
H3094 C3079 0.961 . S
H3095 C3079 0.961 . S
H3096 C3080 0.931 1_455 S
H3097 C3085 0.930 . S
H3098 C3086 0.956 . S
H3099 C3086 0.961 . S
H3100 C3086 0.961 . S
H3101 C3087 0.958 . S
H3102 C3087 0.961 . S
H3103 C3087 0.960 . S
C3104 C3105 1.391 . S
C3104 C3106 1.394 . S
C3104 H3120 0.931 . S
C3105 C3104 1.391 . S
C3105 C3109 1.376 . S
C3106 C3104 1.394 . S
C3106 C3107 1.369 . S
C3106 C3110 1.531 . S
C3107 C3106 1.369 . S
C3107 C3108 1.410 . S
C3107 C3115 1.503 . S
C3108 C3107 1.410 . S
C3108 C3109 1.392 . S
C3108 C3111 1.511 . S
C3109 C3105 1.376 . S
C3109 C3108 1.392 . S
C3109 H3121 0.929 . S
C3110 C3106 1.531 . S
C3110 H3122 0.960 . S
C3110 H3123 0.962 . S
C3110 H3124 0.960 . S
C3111 C3108 1.511 . S
C3111 H3125 0.961 . S
C3111 H3126 0.961 . S
C3111 H3127 0.961 . S
C3112 C3113 1.370 . S
C3112 C3114 1.363 . S
C3112 H3128 0.931 . S
C3113 C3112 1.370 . S
C3113 C3117 1.408 . S
C3114 C3112 1.363 . S
C3114 C3115 1.370 . S
C3114 C3118 1.524 . S
C3115 C3107 1.503 . S
C3115 C3114 1.370 . S
C3115 C3116 1.403 . S
C3116 C3115 1.403 . S
C3116 C3117 1.404 . S
C3116 C3119 1.539 . S
C3117 C3113 1.408 . S
C3117 C3116 1.404 . S
C3117 H3129 0.930 . S
C3118 C3114 1.524 . S
C3118 H3130 0.956 . S
C3118 H3131 0.961 . S
C3118 H3132 0.961 . S
C3119 C3116 1.539 . S
C3119 H3133 0.958 . S
C3119 H3134 0.961 . S
C3119 H3135 0.960 . S
H3120 C3104 0.931 . S
H3121 C3109 0.929 . S
H3122 C3110 0.960 . S
H3123 C3110 0.962 . S
H3124 C3110 0.960 . S
H3125 C3111 0.961 . S
H3126 C3111 0.961 . S
H3127 C3111 0.961 . S
H3128 C3112 0.931 . S
H3129 C3117 0.930 . S
H3130 C3118 0.956 . S
H3131 C3118 0.961 . S
H3132 C3118 0.961 . S
H3133 C3119 0.958 . S
H3134 C3119 0.961 . S
H3135 C3119 0.960 . S
C3136 C3137 1.391 . S
C3136 C3138 1.394 . S
C3136 H3152 0.931 . S
C3137 C3136 1.391 . S
C3137 C3141 1.376 . S
C3138 C3136 1.394 . S
C3138 C3139 1.369 . S
C3138 C3142 1.531 . S
C3139 C3138 1.369 . S
C3139 C3140 1.410 . S
C3139 C3147 1.503 . S
C3140 C3139 1.410 . S
C3140 C3141 1.392 . S
C3140 C3143 1.511 . S
C3141 C3137 1.376 . S
C3141 C3140 1.392 . S
C3141 H3153 0.929 . S
C3142 C3138 1.531 . S
C3142 H3154 0.960 . S
C3142 H3155 0.962 . S
C3142 H3156 0.960 . S
C3143 C3140 1.511 . S
C3143 H3157 0.961 . S
C3143 H3158 0.961 . S
C3143 H3159 0.961 . S
C3144 C3145 1.370 . S
C3144 C3146 1.363 . S
C3144 H3160 0.931 . S
C3145 C3144 1.370 . S
C3145 C3149 1.408 . S
C3146 C3144 1.363 . S
C3146 C3147 1.370 . S
C3146 C3150 1.524 . S
C3147 C3139 1.503 . S
C3147 C3146 1.370 . S
C3147 C3148 1.403 . S
C3148 C3147 1.403 . S
C3148 C3149 1.404 . S
C3148 C3151 1.539 . S
C3149 C3145 1.408 . S
C3149 C3148 1.404 . S
C3149 H3161 0.930 . S
C3150 C3146 1.524 . S
C3150 H3162 0.956 . S
C3150 H3163 0.961 . S
C3150 H3164 0.961 . S
C3151 C3148 1.539 . S
C3151 H3165 0.958 . S
C3151 H3166 0.961 . S
C3151 H3167 0.960 . S
H3152 C3136 0.931 . S
H3153 C3141 0.929 . S
H3154 C3142 0.960 . S
H3155 C3142 0.962 . S
H3156 C3142 0.960 . S
H3157 C3143 0.961 . S
H3158 C3143 0.961 . S
H3159 C3143 0.961 . S
H3160 C3144 0.931 . S
H3161 C3149 0.930 . S
H3162 C3150 0.956 . S
H3163 C3150 0.961 . S
H3164 C3150 0.961 . S
H3165 C3151 0.958 . S
H3166 C3151 0.961 . S
H3167 C3151 0.960 . S
C3168 C3169 1.391 . S
C3168 C3170 1.394 . S
C3168 H3184 0.931 . S
C3169 C3168 1.391 . S
C3169 C3173 1.376 . S
C3170 C3168 1.394 . S
C3170 C3171 1.369 . S
C3170 C3174 1.531 . S
C3171 C3170 1.369 . S
C3171 C3172 1.410 . S
C3171 C3179 1.503 . S
C3172 C3171 1.410 . S
C3172 C3173 1.392 . S
C3172 C3175 1.511 . S
C3173 C3169 1.376 . S
C3173 C3172 1.392 . S
C3173 H3185 0.929 . S
C3174 C3170 1.531 . S
C3174 H3186 0.960 . S
C3174 H3187 0.962 . S
C3174 H3188 0.960 . S
C3175 C3172 1.511 . S
C3175 H3189 0.961 . S
C3175 H3190 0.961 . S
C3175 H3191 0.961 . S
C3176 C3177 1.370 . S
C3176 C3178 1.363 . S
C3176 H3192 0.931 . S
C3177 C3176 1.370 . S
C3177 C3181 1.408 . S
C3178 C3176 1.363 . S
C3178 C3179 1.370 . S
C3178 C3182 1.524 . S
C3179 C3171 1.503 . S
C3179 C3178 1.370 . S
C3179 C3180 1.403 . S
C3180 C3179 1.403 . S
C3180 C3181 1.404 . S
C3180 C3183 1.539 . S
C3181 C3177 1.408 . S
C3181 C3180 1.404 . S
C3181 H3193 0.930 . S
C3182 C3178 1.524 . S
C3182 H3194 0.956 . S
C3182 H3195 0.961 . S
C3182 H3196 0.961 . S
C3183 C3180 1.539 . S
C3183 H3197 0.958 . S
C3183 H3198 0.961 . S
C3183 H3199 0.960 . S
H3184 C3168 0.931 . S
H3185 C3173 0.929 . S
H3186 C3174 0.960 . S
H3187 C3174 0.962 . S
H3188 C3174 0.960 . S
H3189 C3175 0.961 . S
H3190 C3175 0.961 . S
H3191 C3175 0.961 . S
H3192 C3176 0.931 . S
H3193 C3181 0.930 . S
H3194 C3182 0.956 . S
H3195 C3182 0.961 . S
H3196 C3182 0.961 . S
H3197 C3183 0.958 . S
H3198 C3183 0.961 . S
H3199 C3183 0.960 . S
C3200 C3201 1.391 . S
C3200 C3202 1.394 . S
C3200 H3216 0.931 . S
C3201 C3200 1.391 . S
C3201 C3205 1.376 1_455 S
C3202 C3200 1.394 . S
C3202 C3203 1.369 1_455 S
C3202 C3206 1.531 . S
C3203 C3202 1.369 1_655 S
C3203 C3204 1.410 . S
C3203 C3211 1.503 . S
C3204 C3203 1.410 . S
C3204 C3205 1.392 . S
C3204 C3207 1.511 . S
C3205 C3201 1.376 1_655 S
C3205 C3204 1.392 . S
C3205 H3217 0.929 . S
C3206 C3202 1.531 . S
C3206 H3218 0.960 . S
C3206 H3219 0.962 . S
C3206 H3220 0.960 . S
C3207 C3204 1.511 . S
C3207 H3221 0.961 . S
C3207 H3222 0.961 . S
C3207 H3223 0.961 . S
C3208 C3209 1.370 . S
C3208 C3210 1.363 . S
C3208 H3224 0.931 . S
C3209 C3208 1.370 . S
C3209 C3213 1.408 . S
C3210 C3208 1.363 . S
C3210 C3211 1.370 . S
C3210 C3214 1.524 . S
C3211 C3203 1.503 . S
C3211 C3210 1.370 . S
C3211 C3212 1.403 . S
C3212 C3211 1.403 . S
C3212 C3213 1.404 . S
C3212 C3215 1.539 . S
C3213 C3209 1.408 . S
C3213 C3212 1.404 . S
C3213 H3225 0.930 . S
C3214 C3210 1.524 . S
C3214 H3226 0.956 1_655 S
C3214 H3227 0.961 . S
C3214 H3228 0.961 . S
C3215 C3212 1.539 . S
C3215 H3229 0.958 . S
C3215 H3230 0.961 . S
C3215 H3231 0.960 . S
H3216 C3200 0.931 . S
H3217 C3205 0.929 . S
H3218 C3206 0.960 . S
H3219 C3206 0.962 . S
H3220 C3206 0.960 . S
H3221 C3207 0.961 . S
H3222 C3207 0.961 . S
H3223 C3207 0.961 . S
H3224 C3208 0.931 . S
H3225 C3213 0.930 . S
H3226 C3214 0.956 1_455 S
H3227 C3214 0.961 . S
H3228 C3214 0.961 . S
H3229 C3215 0.958 . S
H3230 C3215 0.961 . S
H3231 C3215 0.960 . S
C3232 C3233 1.391 . S
C3232 C3234 1.394 . S
C3232 H3248 0.931 . S
C3233 C3232 1.391 . S
C3233 C3237 1.376 . S
C3234 C3232 1.394 . S
C3234 C3235 1.369 . S
C3234 C3238 1.531 . S
C3235 C3234 1.369 . S
C3235 C3236 1.410 . S
C3235 C3243 1.503 . S
C3236 C3235 1.410 . S
C3236 C3237 1.392 . S
C3236 C3239 1.511 . S
C3237 C3233 1.376 . S
C3237 C3236 1.392 . S
C3237 H3249 0.929 . S
C3238 C3234 1.531 . S
C3238 H3250 0.960 . S
C3238 H3251 0.962 . S
C3238 H3252 0.960 . S
C3239 C3236 1.511 . S
C3239 H3253 0.961 . S
C3239 H3254 0.961 . S
C3239 H3255 0.961 . S
C3240 C3241 1.370 . S
C3240 C3242 1.363 . S
C3240 H3256 0.931 . S
C3241 C3240 1.370 . S
C3241 C3245 1.408 . S
C3242 C3240 1.363 . S
C3242 C3243 1.370 . S
C3242 C3246 1.524 . S
C3243 C3235 1.503 . S
C3243 C3242 1.370 . S
C3243 C3244 1.403 . S
C3244 C3243 1.403 . S
C3244 C3245 1.404 . S
C3244 C3247 1.539 . S
C3245 C3241 1.408 . S
C3245 C3244 1.404 . S
C3245 H3257 0.930 . S
C3246 C3242 1.524 . S
C3246 H3258 0.956 . S
C3246 H3259 0.961 . S
C3246 H3260 0.961 . S
C3247 C3244 1.539 . S
C3247 H3261 0.958 . S
C3247 H3262 0.961 . S
C3247 H3263 0.960 . S
H3248 C3232 0.931 . S
H3249 C3237 0.929 . S
H3250 C3238 0.960 . S
H3251 C3238 0.962 . S
H3252 C3238 0.960 . S
H3253 C3239 0.961 . S
H3254 C3239 0.961 . S
H3255 C3239 0.961 . S
H3256 C3240 0.931 . S
H3257 C3245 0.930 . S
H3258 C3246 0.956 . S
H3259 C3246 0.961 . S
H3260 C3246 0.961 . S
H3261 C3247 0.958 . S
H3262 C3247 0.961 . S
H3263 C3247 0.960 . S
C3264 C3265 1.391 1_556 S
C3264 C3266 1.394 . S
C3264 H3280 0.931 . S
C3265 C3264 1.391 1_554 S
C3265 C3269 1.376 . S
C3266 C3264 1.394 . S
C3266 C3267 1.369 . S
C3266 C3270 1.531 . S
C3267 C3266 1.369 . S
C3267 C3268 1.410 . S
C3267 C3275 1.503 . S
C3268 C3267 1.410 . S
C3268 C3269 1.392 1_556 S
C3268 C3271 1.511 . S
C3269 C3265 1.376 . S
C3269 C3268 1.392 1_554 S
C3269 H3281 0.929 . S
C3270 C3266 1.531 . S
C3270 H3282 0.960 . S
C3270 H3283 0.962 . S
C3270 H3284 0.960 . S
C3271 C3268 1.511 . S
C3271 H3285 0.961 1_556 S
C3271 H3286 0.961 . S
C3271 H3287 0.961 . S
C3272 C3273 1.370 . S
C3272 C3274 1.363 . S
C3272 H3288 0.931 . S
C3273 C3272 1.370 . S
C3273 C3277 1.408 . S
C3274 C3272 1.363 . S
C3274 C3275 1.370 . S
C3274 C3278 1.524 . S
C3275 C3267 1.503 . S
C3275 C3274 1.370 . S
C3275 C3276 1.403 . S
C3276 C3275 1.403 . S
C3276 C3277 1.404 . S
C3276 C3279 1.539 . S
C3277 C3273 1.408 . S
C3277 C3276 1.404 . S
C3277 H3289 0.930 . S
C3278 C3274 1.524 . S
C3278 H3290 0.956 . S
C3278 H3291 0.961 . S
C3278 H3292 0.961 . S
C3279 C3276 1.539 . S
C3279 H3293 0.958 . S
C3279 H3294 0.961 . S
C3279 H3295 0.960 . S
H3280 C3264 0.931 . S
H3281 C3269 0.929 . S
H3282 C3270 0.960 . S
H3283 C3270 0.962 . S
H3284 C3270 0.960 . S
H3285 C3271 0.961 1_554 S
H3286 C3271 0.961 . S
H3287 C3271 0.961 . S
H3288 C3272 0.931 . S
H3289 C3277 0.930 . S
H3290 C3278 0.956 . S
H3291 C3278 0.961 . S
H3292 C3278 0.961 . S
H3293 C3279 0.958 . S
H3294 C3279 0.961 . S
H3295 C3279 0.960 . S
C3296 C3297 1.391 . S
C3296 C3298 1.394 . S
C3296 H3312 0.931 . S
C3297 C3296 1.391 . S
C3297 C3301 1.376 . S
C3298 C3296 1.394 . S
C3298 C3299 1.369 . S
C3298 C3302 1.531 . S
C3299 C3298 1.369 . S
C3299 C3300 1.410 . S
C3299 C3307 1.503 . S
C3300 C3299 1.410 . S
C3300 C3301 1.392 . S
C3300 C3303 1.511 . S
C3301 C3297 1.376 . S
C3301 C3300 1.392 . S
C3301 H3313 0.929 . S
C3302 C3298 1.531 . S
C3302 H3314 0.960 . S
C3302 H3315 0.962 . S
C3302 H3316 0.960 . S
C3303 C3300 1.511 . S
C3303 H3317 0.961 . S
C3303 H3318 0.961 . S
C3303 H3319 0.961 . S
C3304 C3305 1.370 . S
C3304 C3306 1.363 . S
C3304 H3320 0.931 . S
C3305 C3304 1.370 . S
C3305 C3309 1.408 . S
C3306 C3304 1.363 . S
C3306 C3307 1.370 . S
C3306 C3310 1.524 . S
C3307 C3299 1.503 . S
C3307 C3306 1.370 . S
C3307 C3308 1.403 . S
C3308 C3307 1.403 . S
C3308 C3309 1.404 . S
C3308 C3311 1.539 . S
C3309 C3305 1.408 . S
C3309 C3308 1.404 . S
C3309 H3321 0.930 . S
C3310 C3306 1.524 . S
C3310 H3322 0.956 . S
C3310 H3323 0.961 . S
C3310 H3324 0.961 . S
C3311 C3308 1.539 . S
C3311 H3325 0.958 . S
C3311 H3326 0.961 . S
C3311 H3327 0.960 . S
H3312 C3296 0.931 . S
H3313 C3301 0.929 . S
H3314 C3302 0.960 . S
H3315 C3302 0.962 . S
H3316 C3302 0.960 . S
H3317 C3303 0.961 . S
H3318 C3303 0.961 . S
H3319 C3303 0.961 . S
H3320 C3304 0.931 . S
H3321 C3309 0.930 . S
H3322 C3310 0.956 . S
H3323 C3310 0.961 . S
H3324 C3310 0.961 . S
H3325 C3311 0.958 . S
H3326 C3311 0.961 . S
H3327 C3311 0.960 . S
C3328 C3329 1.391 . S
C3328 C3330 1.394 . S
C3328 H3344 0.931 . S
C3329 C3328 1.391 . S
C3329 C3333 1.376 . S
C3330 C3328 1.394 . S
C3330 C3331 1.369 . S
C3330 C3334 1.531 . S
C3331 C3330 1.369 . S
C3331 C3332 1.410 . S
C3331 C3339 1.503 . S
C3332 C3331 1.410 . S
C3332 C3333 1.392 . S
C3332 C3335 1.511 . S
C3333 C3329 1.376 . S
C3333 C3332 1.392 . S
C3333 H3345 0.929 . S
C3334 C3330 1.531 . S
C3334 H3346 0.960 . S
C3334 H3347 0.962 . S
C3334 H3348 0.960 . S
C3335 C3332 1.511 . S
C3335 H3349 0.961 . S
C3335 H3350 0.961 . S
C3335 H3351 0.961 . S
C3336 C3337 1.370 . S
C3336 C3338 1.363 . S
C3336 H3352 0.931 . S
C3337 C3336 1.370 . S
C3337 C3341 1.408 . S
C3338 C3336 1.363 . S
C3338 C3339 1.370 . S
C3338 C3342 1.524 . S
C3339 C3331 1.503 . S
C3339 C3338 1.370 . S
C3339 C3340 1.403 . S
C3340 C3339 1.403 . S
C3340 C3341 1.404 . S
C3340 C3343 1.539 . S
C3341 C3337 1.408 . S
C3341 C3340 1.404 . S
C3341 H3353 0.930 . S
C3342 C3338 1.524 . S
C3342 H3354 0.956 . S
C3342 H3355 0.961 . S
C3342 H3356 0.961 . S
C3343 C3340 1.539 . S
C3343 H3357 0.958 . S
C3343 H3358 0.961 . S
C3343 H3359 0.960 . S
H3344 C3328 0.931 . S
H3345 C3333 0.929 . S
H3346 C3334 0.960 . S
H3347 C3334 0.962 . S
H3348 C3334 0.960 . S
H3349 C3335 0.961 . S
H3350 C3335 0.961 . S
H3351 C3335 0.961 . S
H3352 C3336 0.931 . S
H3353 C3341 0.930 . S
H3354 C3342 0.956 . S
H3355 C3342 0.961 . S
H3356 C3342 0.961 . S
H3357 C3343 0.958 . S
H3358 C3343 0.961 . S
H3359 C3343 0.960 . S
C3360 C3361 1.391 . S
C3360 C3362 1.394 . S
C3360 H3376 0.931 . S
C3361 C3360 1.391 . S
C3361 C3365 1.376 . S
C3362 C3360 1.394 . S
C3362 C3363 1.369 . S
C3362 C3366 1.531 . S
C3363 C3362 1.369 . S
C3363 C3364 1.410 . S
C3363 C3371 1.503 . S
C3364 C3363 1.410 . S
C3364 C3365 1.392 . S
C3364 C3367 1.511 . S
C3365 C3361 1.376 . S
C3365 C3364 1.392 . S
C3365 H3377 0.929 . S
C3366 C3362 1.531 . S
C3366 H3378 0.960 . S
C3366 H3379 0.962 . S
C3366 H3380 0.960 . S
C3367 C3364 1.511 . S
C3367 H3381 0.961 . S
C3367 H3382 0.961 . S
C3367 H3383 0.961 . S
C3368 C3369 1.370 . S
C3368 C3370 1.363 . S
C3368 H3384 0.931 . S
C3369 C3368 1.370 . S
C3369 C3373 1.408 . S
C3370 C3368 1.363 . S
C3370 C3371 1.370 . S
C3370 C3374 1.524 . S
C3371 C3363 1.503 . S
C3371 C3370 1.370 . S
C3371 C3372 1.403 . S
C3372 C3371 1.403 . S
C3372 C3373 1.404 . S
C3372 C3375 1.539 . S
C3373 C3369 1.408 . S
C3373 C3372 1.404 . S
C3373 H3385 0.930 . S
C3374 C3370 1.524 . S
C3374 H3386 0.956 . S
C3374 H3387 0.961 . S
C3374 H3388 0.961 . S
C3375 C3372 1.539 . S
C3375 H3389 0.958 . S
C3375 H3390 0.961 . S
C3375 H3391 0.960 . S
H3376 C3360 0.931 . S
H3377 C3365 0.929 . S
H3378 C3366 0.960 . S
H3379 C3366 0.962 . S
H3380 C3366 0.960 . S
H3381 C3367 0.961 . S
H3382 C3367 0.961 . S
H3383 C3367 0.961 . S
H3384 C3368 0.931 . S
H3385 C3373 0.930 . S
H3386 C3374 0.956 . S
H3387 C3374 0.961 . S
H3388 C3374 0.961 . S
H3389 C3375 0.958 . S
H3390 C3375 0.961 . S
H3391 C3375 0.960 . S
C3392 C3393 1.391 1_556 S
C3392 C3394 1.394 . S
C3392 H3408 0.931 . S
C3393 C3392 1.391 1_554 S
C3393 C3397 1.376 . S
C3394 C3392 1.394 . S
C3394 C3395 1.369 . S
C3394 C3398 1.531 . S
C3395 C3394 1.369 . S
C3395 C3396 1.410 1_655 S
C3395 C3403 1.503 1_655 S
C3396 C3395 1.410 1_455 S
C3396 C3397 1.392 1_456 S
C3396 C3399 1.511 . S
C3397 C3393 1.376 . S
C3397 C3396 1.392 1_654 S
C3397 H3409 0.929 . S
C3398 C3394 1.531 . S
C3398 H3410 0.960 . S
C3398 H3411 0.962 . S
C3398 H3412 0.960 . S
C3399 C3396 1.511 . S
C3399 H3413 0.961 . S
C3399 H3414 0.961 . S
C3399 H3415 0.961 . S
C3400 C3401 1.370 . S
C3400 C3402 1.363 . S
C3400 H3416 0.931 . S
C3401 C3400 1.370 . S
C3401 C3405 1.408 . S
C3402 C3400 1.363 . S
C3402 C3403 1.370 . S
C3402 C3406 1.524 . S
C3403 C3395 1.503 1_455 S
C3403 C3402 1.370 . S
C3403 C3404 1.403 . S
C3404 C3403 1.403 . S
C3404 C3405 1.404 . S
C3404 C3407 1.539 1_455 S
C3405 C3401 1.408 . S
C3405 C3404 1.404 . S
C3405 H3417 0.930 . S
C3406 C3402 1.524 . S
C3406 H3418 0.956 . S
C3406 H3419 0.961 . S
C3406 H3420 0.961 . S
C3407 C3404 1.539 1_655 S
C3407 H3421 0.958 . S
C3407 H3422 0.961 . S
C3407 H3423 0.960 . S
H3408 C3392 0.931 . S
H3409 C3397 0.929 . S
H3410 C3398 0.960 . S
H3411 C3398 0.962 . S
H3412 C3398 0.960 . S
H3413 C3399 0.961 . S
H3414 C3399 0.961 . S
H3415 C3399 0.961 . S
H3416 C3400 0.931 . S
H3417 C3405 0.930 . S
H3418 C3406 0.956 . S
H3419 C3406 0.961 . S
H3420 C3406 0.961 . S
H3421 C3407 0.958 . S
H3422 C3407 0.961 . S
H3423 C3407 0.960 . S
C3424 C3425 1.391 . S
C3424 C3426 1.394 . S
C3424 H3440 0.931 . S
C3425 C3424 1.391 . S
C3425 C3429 1.376 . S
C3426 C3424 1.394 . S
C3426 C3427 1.369 . S
C3426 C3430 1.531 . S
C3427 C3426 1.369 . S
C3427 C3428 1.410 . S
C3427 C3435 1.503 . S
C3428 C3427 1.410 . S
C3428 C3429 1.392 . S
C3428 C3431 1.511 . S
C3429 C3425 1.376 . S
C3429 C3428 1.392 . S
C3429 H3441 0.929 . S
C3430 C3426 1.531 . S
C3430 H3442 0.960 . S
C3430 H3443 0.962 . S
C3430 H3444 0.960 . S
C3431 C3428 1.511 . S
C3431 H3445 0.961 . S
C3431 H3446 0.961 . S
C3431 H3447 0.961 . S
C3432 C3433 1.370 . S
C3432 C3434 1.363 . S
C3432 H3448 0.931 . S
C3433 C3432 1.370 . S
C3433 C3437 1.408 . S
C3434 C3432 1.363 . S
C3434 C3435 1.370 . S
C3434 C3438 1.524 . S
C3435 C3427 1.503 . S
C3435 C3434 1.370 . S
C3435 C3436 1.403 . S
C3436 C3435 1.403 . S
C3436 C3437 1.404 . S
C3436 C3439 1.539 . S
C3437 C3433 1.408 . S
C3437 C3436 1.404 . S
C3437 H3449 0.930 . S
C3438 C3434 1.524 . S
C3438 H3450 0.956 . S
C3438 H3451 0.961 . S
C3438 H3452 0.961 . S
C3439 C3436 1.539 . S
C3439 H3453 0.958 . S
C3439 H3454 0.961 . S
C3439 H3455 0.960 . S
H3440 C3424 0.931 . S
H3441 C3429 0.929 . S
H3442 C3430 0.960 . S
H3443 C3430 0.962 . S
H3444 C3430 0.960 . S
H3445 C3431 0.961 . S
H3446 C3431 0.961 . S
H3447 C3431 0.961 . S
H3448 C3432 0.931 . S
H3449 C3437 0.930 . S
H3450 C3438 0.956 . S
H3451 C3438 0.961 . S
H3452 C3438 0.961 . S
H3453 C3439 0.958 . S
H3454 C3439 0.961 . S
H3455 C3439 0.960 . S
C3456 C3457 1.391 . S
C3456 C3458 1.394 . S
C3456 H3472 0.931 . S
C3457 C3456 1.391 . S
C3457 C3461 1.376 . S
C3458 C3456 1.394 . S
C3458 C3459 1.369 . S
C3458 C3462 1.531 . S
C3459 C3458 1.369 . S
C3459 C3460 1.410 . S
C3459 C3467 1.503 . S
C3460 C3459 1.410 . S
C3460 C3461 1.392 . S
C3460 C3463 1.511 . S
C3461 C3457 1.376 . S
C3461 C3460 1.392 . S
C3461 H3473 0.929 . S
C3462 C3458 1.531 . S
C3462 H3474 0.960 . S
C3462 H3475 0.962 . S
C3462 H3476 0.960 . S
C3463 C3460 1.511 . S
C3463 H3477 0.961 . S
C3463 H3478 0.961 . S
C3463 H3479 0.961 . S
C3464 C3465 1.370 . S
C3464 C3466 1.363 . S
C3464 H3480 0.931 . S
C3465 C3464 1.370 . S
C3465 C3469 1.408 . S
C3466 C3464 1.363 . S
C3466 C3467 1.370 . S
C3466 C3470 1.524 . S
C3467 C3459 1.503 . S
C3467 C3466 1.370 . S
C3467 C3468 1.403 . S
C3468 C3467 1.403 . S
C3468 C3469 1.404 . S
C3468 C3471 1.539 . S
C3469 C3465 1.408 . S
C3469 C3468 1.404 . S
C3469 H3481 0.930 . S
C3470 C3466 1.524 . S
C3470 H3482 0.956 . S
C3470 H3483 0.961 . S
C3470 H3484 0.961 . S
C3471 C3468 1.539 . S
C3471 H3485 0.958 . S
C3471 H3486 0.961 . S
C3471 H3487 0.960 . S
H3472 C3456 0.931 . S
H3473 C3461 0.929 . S
H3474 C3462 0.960 . S
H3475 C3462 0.962 . S
H3476 C3462 0.960 . S
H3477 C3463 0.961 . S
H3478 C3463 0.961 . S
H3479 C3463 0.961 . S
H3480 C3464 0.931 . S
H3481 C3469 0.930 . S
H3482 C3470 0.956 . S
H3483 C3470 0.961 . S
H3484 C3470 0.961 . S
H3485 C3471 0.958 . S
H3486 C3471 0.961 . S
H3487 C3471 0.960 . S
C3488 C3489 1.391 . S
C3488 C3490 1.394 . S
C3488 H3504 0.931 . S
C3489 C3488 1.391 . S
C3489 C3493 1.376 . S
C3490 C3488 1.394 . S
C3490 C3491 1.369 . S
C3490 C3494 1.531 . S
C3491 C3490 1.369 . S
C3491 C3492 1.410 . S
C3491 C3499 1.503 . S
C3492 C3491 1.410 . S
C3492 C3493 1.392 . S
C3492 C3495 1.511 . S
C3493 C3489 1.376 . S
C3493 C3492 1.392 . S
C3493 H3505 0.929 . S
C3494 C3490 1.531 . S
C3494 H3506 0.960 . S
C3494 H3507 0.962 . S
C3494 H3508 0.960 . S
C3495 C3492 1.511 . S
C3495 H3509 0.961 . S
C3495 H3510 0.961 . S
C3495 H3511 0.961 . S
C3496 C3497 1.370 . S
C3496 C3498 1.363 . S
C3496 H3512 0.931 . S
C3497 C3496 1.370 . S
C3497 C3501 1.408 . S
C3498 C3496 1.363 . S
C3498 C3499 1.370 . S
C3498 C3502 1.524 . S
C3499 C3491 1.503 . S
C3499 C3498 1.370 . S
C3499 C3500 1.403 . S
C3500 C3499 1.403 . S
C3500 C3501 1.404 . S
C3500 C3503 1.539 . S
C3501 C3497 1.408 . S
C3501 C3500 1.404 . S
C3501 H3513 0.930 . S
C3502 C3498 1.524 . S
C3502 H3514 0.956 . S
C3502 H3515 0.961 . S
C3502 H3516 0.961 . S
C3503 C3500 1.539 . S
C3503 H3517 0.958 . S
C3503 H3518 0.961 . S
C3503 H3519 0.960 . S
H3504 C3488 0.931 . S
H3505 C3493 0.929 . S
H3506 C3494 0.960 . S
H3507 C3494 0.962 . S
H3508 C3494 0.960 . S
H3509 C3495 0.961 . S
H3510 C3495 0.961 . S
H3511 C3495 0.961 . S
H3512 C3496 0.931 . S
H3513 C3501 0.930 . S
H3514 C3502 0.956 . S
H3515 C3502 0.961 . S
H3516 C3502 0.961 . S
H3517 C3503 0.958 . S
H3518 C3503 0.961 . S
H3519 C3503 0.960 . S
C3520 C3521 1.391 . S
C3520 C3522 1.394 . S
C3520 H3536 0.931 . S
C3521 C3520 1.391 . S
C3521 C3525 1.376 1_455 S
C3522 C3520 1.394 . S
C3522 C3523 1.369 1_455 S
C3522 C3526 1.531 . S
C3523 C3522 1.369 1_655 S
C3523 C3524 1.410 . S
C3523 C3531 1.503 . S
C3524 C3523 1.410 . S
C3524 C3525 1.392 . S
C3524 C3527 1.511 . S
C3525 C3521 1.376 1_655 S
C3525 C3524 1.392 . S
C3525 H3537 0.929 . S
C3526 C3522 1.531 . S
C3526 H3538 0.960 . S
C3526 H3539 0.962 . S
C3526 H3540 0.960 . S
C3527 C3524 1.511 . S
C3527 H3541 0.961 . S
C3527 H3542 0.961 . S
C3527 H3543 0.961 . S
C3528 C3529 1.370 . S
C3528 C3530 1.363 . S
C3528 H3544 0.931 . S
C3529 C3528 1.370 . S
C3529 C3533 1.408 . S
C3530 C3528 1.363 . S
C3530 C3531 1.370 . S
C3530 C3534 1.524 . S
C3531 C3523 1.503 . S
C3531 C3530 1.370 . S
C3531 C3532 1.403 . S
C3532 C3531 1.403 . S
C3532 C3533 1.404 . S
C3532 C3535 1.539 . S
C3533 C3529 1.408 . S
C3533 C3532 1.404 . S
C3533 H3545 0.930 . S
C3534 C3530 1.524 . S
C3534 H3546 0.956 1_655 S
C3534 H3547 0.961 . S
C3534 H3548 0.961 . S
C3535 C3532 1.539 . S
C3535 H3549 0.958 . S
C3535 H3550 0.961 . S
C3535 H3551 0.960 . S
H3536 C3520 0.931 . S
H3537 C3525 0.929 . S
H3538 C3526 0.960 . S
H3539 C3526 0.962 . S
H3540 C3526 0.960 . S
H3541 C3527 0.961 . S
H3542 C3527 0.961 . S
H3543 C3527 0.961 . S
H3544 C3528 0.931 . S
H3545 C3533 0.930 . S
H3546 C3534 0.956 1_455 S
H3547 C3534 0.961 . S
H3548 C3534 0.961 . S
H3549 C3535 0.958 . S
H3550 C3535 0.961 . S
H3551 C3535 0.960 . S
C3552 C3553 1.391 . S
C3552 C3554 1.394 . S
C3552 H3568 0.931 . S
C3553 C3552 1.391 . S
C3553 C3557 1.376 . S
C3554 C3552 1.394 . S
C3554 C3555 1.369 . S
C3554 C3558 1.531 . S
C3555 C3554 1.369 . S
C3555 C3556 1.410 . S
C3555 C3563 1.503 . S
C3556 C3555 1.410 . S
C3556 C3557 1.392 . S
C3556 C3559 1.511 . S
C3557 C3553 1.376 . S
C3557 C3556 1.392 . S
C3557 H3569 0.929 . S
C3558 C3554 1.531 . S
C3558 H3570 0.960 . S
C3558 H3571 0.962 . S
C3558 H3572 0.960 . S
C3559 C3556 1.511 . S
C3559 H3573 0.961 . S
C3559 H3574 0.961 . S
C3559 H3575 0.961 . S
C3560 C3561 1.370 . S
C3560 C3562 1.363 . S
C3560 H3576 0.931 . S
C3561 C3560 1.370 . S
C3561 C3565 1.408 . S
C3562 C3560 1.363 . S
C3562 C3563 1.370 . S
C3562 C3566 1.524 . S
C3563 C3555 1.503 . S
C3563 C3562 1.370 . S
C3563 C3564 1.403 . S
C3564 C3563 1.403 . S
C3564 C3565 1.404 . S
C3564 C3567 1.539 . S
C3565 C3561 1.408 . S
C3565 C3564 1.404 . S
C3565 H3577 0.930 . S
C3566 C3562 1.524 . S
C3566 H3578 0.956 . S
C3566 H3579 0.961 . S
C3566 H3580 0.961 . S
C3567 C3564 1.539 . S
C3567 H3581 0.958 . S
C3567 H3582 0.961 . S
C3567 H3583 0.960 . S
H3568 C3552 0.931 . S
H3569 C3557 0.929 . S
H3570 C3558 0.960 . S
H3571 C3558 0.962 . S
H3572 C3558 0.960 . S
H3573 C3559 0.961 . S
H3574 C3559 0.961 . S
H3575 C3559 0.961 . S
H3576 C3560 0.931 . S
H3577 C3565 0.930 . S
H3578 C3566 0.956 . S
H3579 C3566 0.961 . S
H3580 C3566 0.961 . S
H3581 C3567 0.958 . S
H3582 C3567 0.961 . S
H3583 C3567 0.960 . S
C3584 C3585 1.391 . S
C3584 C3586 1.394 . S
C3584 H3600 0.931 . S
C3585 C3584 1.391 . S
C3585 C3589 1.376 . S
C3586 C3584 1.394 . S
C3586 C3587 1.369 . S
C3586 C3590 1.531 . S
C3587 C3586 1.369 . S
C3587 C3588 1.410 . S
C3587 C3595 1.503 . S
C3588 C3587 1.410 . S
C3588 C3589 1.392 . S
C3588 C3591 1.511 . S
C3589 C3585 1.376 . S
C3589 C3588 1.392 . S
C3589 H3601 0.929 . S
C3590 C3586 1.531 . S
C3590 H3602 0.960 . S
C3590 H3603 0.962 . S
C3590 H3604 0.960 . S
C3591 C3588 1.511 . S
C3591 H3605 0.961 . S
C3591 H3606 0.961 . S
C3591 H3607 0.961 . S
C3592 C3593 1.370 . S
C3592 C3594 1.363 . S
C3592 H3608 0.931 . S
C3593 C3592 1.370 . S
C3593 C3597 1.408 . S
C3594 C3592 1.363 . S
C3594 C3595 1.370 . S
C3594 C3598 1.524 . S
C3595 C3587 1.503 . S
C3595 C3594 1.370 . S
C3595 C3596 1.403 . S
C3596 C3595 1.403 . S
C3596 C3597 1.404 . S
C3596 C3599 1.539 . S
C3597 C3593 1.408 . S
C3597 C3596 1.404 . S
C3597 H3609 0.930 . S
C3598 C3594 1.524 . S
C3598 H3610 0.956 . S
C3598 H3611 0.961 . S
C3598 H3612 0.961 . S
C3599 C3596 1.539 . S
C3599 H3613 0.958 . S
C3599 H3614 0.961 . S
C3599 H3615 0.960 . S
H3600 C3584 0.931 . S
H3601 C3589 0.929 . S
H3602 C3590 0.960 . S
H3603 C3590 0.962 . S
H3604 C3590 0.960 . S
H3605 C3591 0.961 . S
H3606 C3591 0.961 . S
H3607 C3591 0.961 . S
H3608 C3592 0.931 . S
H3609 C3597 0.930 . S
H3610 C3598 0.956 . S
H3611 C3598 0.961 . S
H3612 C3598 0.961 . S
H3613 C3599 0.958 . S
H3614 C3599 0.961 . S
H3615 C3599 0.960 . S
C3616 C3617 1.391 . S
C3616 C3618 1.394 . S
C3616 H3632 0.931 . S
C3617 C3616 1.391 . S
C3617 C3621 1.376 . S
C3618 C3616 1.394 . S
C3618 C3619 1.369 . S
C3618 C3622 1.531 . S
C3619 C3618 1.369 . S
C3619 C3620 1.410 . S
C3619 C3627 1.503 . S
C3620 C3619 1.410 . S
C3620 C3621 1.392 . S
C3620 C3623 1.511 . S
C3621 C3617 1.376 . S
C3621 C3620 1.392 . S
C3621 H3633 0.929 . S
C3622 C3618 1.531 . S
C3622 H3634 0.960 . S
C3622 H3635 0.962 . S
C3622 H3636 0.960 . S
C3623 C3620 1.511 . S
C3623 H3637 0.961 . S
C3623 H3638 0.961 . S
C3623 H3639 0.961 . S
C3624 C3625 1.370 . S
C3624 C3626 1.363 . S
C3624 H3640 0.931 . S
C3625 C3624 1.370 . S
C3625 C3629 1.408 . S
C3626 C3624 1.363 . S
C3626 C3627 1.370 . S
C3626 C3630 1.524 . S
C3627 C3619 1.503 . S
C3627 C3626 1.370 . S
C3627 C3628 1.403 . S
C3628 C3627 1.403 . S
C3628 C3629 1.404 . S
C3628 C3631 1.539 . S
C3629 C3625 1.408 . S
C3629 C3628 1.404 . S
C3629 H3641 0.930 . S
C3630 C3626 1.524 . S
C3630 H3642 0.956 . S
C3630 H3643 0.961 . S
C3630 H3644 0.961 . S
C3631 C3628 1.539 . S
C3631 H3645 0.958 . S
C3631 H3646 0.961 . S
C3631 H3647 0.960 . S
H3632 C3616 0.931 . S
H3633 C3621 0.929 . S
H3634 C3622 0.960 . S
H3635 C3622 0.962 . S
H3636 C3622 0.960 . S
H3637 C3623 0.961 . S
H3638 C3623 0.961 . S
H3639 C3623 0.961 . S
H3640 C3624 0.931 . S
H3641 C3629 0.930 . S
H3642 C3630 0.956 . S
H3643 C3630 0.961 . S
H3644 C3630 0.961 . S
H3645 C3631 0.958 . S
H3646 C3631 0.961 . S
H3647 C3631 0.960 . S
C3648 C3649 1.391 . S
C3648 C3650 1.394 . S
C3648 H3664 0.931 . S
C3649 C3648 1.391 . S
C3649 C3653 1.395 . S
C3650 C3648 1.394 . S
C3650 C3651 1.369 1_455 S
C3650 C3654 1.531 . S
C3651 C3650 1.369 1_655 S
C3651 C3652 1.410 . S
C3651 C3659 1.503 . S
C3652 C3651 1.410 . S
C3652 C3653 1.382 1_655 S
C3652 C3655 1.511 . S
C3653 C3649 1.395 . S
C3653 C3652 1.382 1_455 S
C3653 H3665 0.921 1_455 S
C3654 C3650 1.531 . S
C3654 H3666 0.960 . S
C3654 H3667 0.962 . S
C3654 H3668 0.960 . S
C3655 C3652 1.511 . S
C3655 H3669 0.961 . S
C3655 H3670 0.961 . S
C3655 H3671 0.961 . S
C3656 C3657 1.370 . S
C3656 C3658 1.363 . S
C3656 H3672 0.931 . S
C3657 C3656 1.370 . S
C3657 C3661 1.408 . S
C3658 C3656 1.363 . S
C3658 C3659 1.370 . S
C3658 C3662 1.524 . S
C3659 C3651 1.503 . S
C3659 C3658 1.370 . S
C3659 C3660 1.403 . S
C3660 C3659 1.403 . S
C3660 C3661 1.404 . S
C3660 C3663 1.539 . S
C3661 C3657 1.408 . S
C3661 C3660 1.404 . S
C3661 H3673 0.930 . S
C3662 C3658 1.524 . S
C3662 H3674 0.956 1_655 S
C3662 H3675 0.961 . S
C3662 H3676 0.961 . S
C3663 C3660 1.539 . S
C3663 H3677 0.958 . S
C3663 H3678 0.961 . S
C3663 H3679 0.960 . S
H3664 C3648 0.931 . S
H3665 C3653 0.921 1_655 S
H3666 C3654 0.960 . S
H3667 C3654 0.962 . S
H3668 C3654 0.960 . S
H3669 C3655 0.961 . S
H3670 C3655 0.961 . S
H3671 C3655 0.961 . S
H3672 C3656 0.931 . S
H3673 C3661 0.930 . S
H3674 C3662 0.956 1_455 S
H3675 C3662 0.961 . S
H3676 C3662 0.961 . S
H3677 C3663 0.958 . S
H3678 C3663 0.961 . S
H3679 C3663 0.960 . S
C3680 C3681 1.391 . S
C3680 C3682 1.394 . S
C3680 H3696 0.931 . S
C3681 C3680 1.391 . S
C3681 C3685 1.376 . S
C3682 C3680 1.394 . S
C3682 C3683 1.369 . S
C3682 C3686 1.531 . S
C3683 C3682 1.369 . S
C3683 C3684 1.410 . S
C3683 C3691 1.503 . S
C3684 C3683 1.410 . S
C3684 C3685 1.392 . S
C3684 C3687 1.511 . S
C3685 C3681 1.376 . S
C3685 C3684 1.392 . S
C3685 H3697 0.929 . S
C3686 C3682 1.531 . S
C3686 H3698 0.960 . S
C3686 H3699 0.962 . S
C3686 H3700 0.960 . S
C3687 C3684 1.511 . S
C3687 H3701 0.961 . S
C3687 H3702 0.961 . S
C3687 H3703 0.961 . S
C3688 C3689 1.370 . S
C3688 C3690 1.363 . S
C3688 H3704 0.931 . S
C3689 C3688 1.370 . S
C3689 C3693 1.408 . S
C3690 C3688 1.363 . S
C3690 C3691 1.370 . S
C3690 C3694 1.524 . S
C3691 C3683 1.503 . S
C3691 C3690 1.370 . S
C3691 C3692 1.403 . S
C3692 C3691 1.403 . S
C3692 C3693 1.404 . S
C3692 C3695 1.539 . S
C3693 C3689 1.408 . S
C3693 C3692 1.404 . S
C3693 H3705 0.930 . S
C3694 C3690 1.524 . S
C3694 H3706 0.956 . S
C3694 H3707 0.961 . S
C3694 H3708 0.961 . S
C3695 C3692 1.539 . S
C3695 H3709 0.958 . S
C3695 H3710 0.961 . S
C3695 H3711 0.960 . S
H3696 C3680 0.931 . S
H3697 C3685 0.929 . S
H3698 C3686 0.960 . S
H3699 C3686 0.962 . S
H3700 C3686 0.960 . S
H3701 C3687 0.961 . S
H3702 C3687 0.961 . S
H3703 C3687 0.961 . S
H3704 C3688 0.931 . S
H3705 C3693 0.930 . S
H3706 C3694 0.956 . S
H3707 C3694 0.961 . S
H3708 C3694 0.961 . S
H3709 C3695 0.958 . S
H3710 C3695 0.961 . S
H3711 C3695 0.960 . S
C3712 C3713 1.391 . S
C3712 C3714 1.394 . S
C3712 H3728 0.931 . S
C3713 C3712 1.391 . S
C3713 C3717 1.376 . S
C3714 C3712 1.394 . S
C3714 C3715 1.369 . S
C3714 C3718 1.531 . S
C3715 C3714 1.369 . S
C3715 C3716 1.410 . S
C3715 C3723 1.503 . S
C3716 C3715 1.410 . S
C3716 C3717 1.392 . S
C3716 C3719 1.511 . S
C3717 C3713 1.376 . S
C3717 C3716 1.392 . S
C3717 H3729 0.929 . S
C3718 C3714 1.531 . S
C3718 H3730 0.960 . S
C3718 H3731 0.962 . S
C3718 H3732 0.960 . S
C3719 C3716 1.511 . S
C3719 H3733 0.961 . S
C3719 H3734 0.961 . S
C3719 H3735 0.961 . S
C3720 C3721 1.370 1_556 S
C3720 C3722 1.363 . S
C3720 H3736 0.931 . S
C3721 C3720 1.370 1_554 S
C3721 C3725 1.408 . S
C3722 C3720 1.363 . S
C3722 C3723 1.370 . S
C3722 C3726 1.524 . S
C3723 C3715 1.503 . S
C3723 C3722 1.370 . S
C3723 C3724 1.403 . S
C3724 C3723 1.403 . S
C3724 C3725 1.404 1_556 S
C3724 C3727 1.539 . S
C3725 C3721 1.408 . S
C3725 C3724 1.404 1_554 S
C3725 H3737 0.930 . S
C3726 C3722 1.524 . S
C3726 H3738 0.956 . S
C3726 H3739 0.961 . S
C3726 H3740 0.961 . S
C3727 C3724 1.539 . S
C3727 H3741 0.958 . S
C3727 H3742 0.961 1_556 S
C3727 H3743 0.960 . S
H3728 C3712 0.931 . S
H3729 C3717 0.929 . S
H3730 C3718 0.960 . S
H3731 C3718 0.962 . S
H3732 C3718 0.960 . S
H3733 C3719 0.961 . S
H3734 C3719 0.961 . S
H3735 C3719 0.961 . S
H3736 C3720 0.931 . S
H3737 C3725 0.930 . S
H3738 C3726 0.956 . S
H3739 C3726 0.961 . S
H3740 C3726 0.961 . S
H3741 C3727 0.958 . S
H3742 C3727 0.961 1_554 S
H3743 C3727 0.960 . S
C3744 C3745 1.391 . S
C3744 C3746 1.394 . S
C3744 H3760 0.931 . S
C3745 C3744 1.391 . S
C3745 C3749 1.376 . S
C3746 C3744 1.394 . S
C3746 C3747 1.369 . S
C3746 C3750 1.531 . S
C3747 C3746 1.369 . S
C3747 C3748 1.410 . S
C3747 C3755 1.503 . S
C3748 C3747 1.410 . S
C3748 C3749 1.392 . S
C3748 C3751 1.511 . S
C3749 C3745 1.376 . S
C3749 C3748 1.392 . S
C3749 H3761 0.929 . S
C3750 C3746 1.531 . S
C3750 H3762 0.960 . S
C3750 H3763 0.962 . S
C3750 H3764 0.960 . S
C3751 C3748 1.511 . S
C3751 H3765 0.961 . S
C3751 H3766 0.961 . S
C3751 H3767 0.961 . S
C3752 C3753 1.370 . S
C3752 C3754 1.363 . S
C3752 H3768 0.931 . S
C3753 C3752 1.370 . S
C3753 C3757 1.408 . S
C3754 C3752 1.363 . S
C3754 C3755 1.370 . S
C3754 C3758 1.524 . S
C3755 C3747 1.503 . S
C3755 C3754 1.370 . S
C3755 C3756 1.403 . S
C3756 C3755 1.403 . S
C3756 C3757 1.404 . S
C3756 C3759 1.539 . S
C3757 C3753 1.408 . S
C3757 C3756 1.404 . S
C3757 H3769 0.930 . S
C3758 C3754 1.524 . S
C3758 H3770 0.956 . S
C3758 H3771 0.961 . S
C3758 H3772 0.961 . S
C3759 C3756 1.539 . S
C3759 H3773 0.958 . S
C3759 H3774 0.961 . S
C3759 H3775 0.960 . S
H3760 C3744 0.931 . S
H3761 C3749 0.929 . S
H3762 C3750 0.960 . S
H3763 C3750 0.962 . S
H3764 C3750 0.960 . S
H3765 C3751 0.961 . S
H3766 C3751 0.961 . S
H3767 C3751 0.961 . S
H3768 C3752 0.931 . S
H3769 C3757 0.930 . S
H3770 C3758 0.956 . S
H3771 C3758 0.961 . S
H3772 C3758 0.961 . S
H3773 C3759 0.958 . S
H3774 C3759 0.961 . S
H3775 C3759 0.960 . S
C3776 C3777 1.391 . S
C3776 C3778 1.394 . S
C3776 H3792 0.931 . S
C3777 C3776 1.391 . S
C3777 C3781 1.376 . S
C3778 C3776 1.394 . S
C3778 C3779 1.369 . S
C3778 C3782 1.531 1_455 S
C3779 C3778 1.369 . S
C3779 C3780 1.410 . S
C3779 C3787 1.503 . S
C3780 C3779 1.410 . S
C3780 C3781 1.392 . S
C3780 C3783 1.511 . S
C3781 C3777 1.376 . S
C3781 C3780 1.392 . S
C3781 H3793 0.929 . S
C3782 C3778 1.531 1_655 S
C3782 H3794 0.960 . S
C3782 H3795 0.962 . S
C3782 H3796 0.960 . S
C3783 C3780 1.511 . S
C3783 H3797 0.961 . S
C3783 H3798 0.961 . S
C3783 H3799 0.961 . S
C3784 C3785 1.370 . S
C3784 C3786 1.363 1_655 S
C3784 H3800 0.931 . S
C3785 C3784 1.370 . S
C3785 C3789 1.408 1_655 S
C3786 C3784 1.363 1_455 S
C3786 C3787 1.370 . S
C3786 C3790 1.524 1_455 S
C3787 C3779 1.503 . S
C3787 C3786 1.370 . S
C3787 C3788 1.403 . S
C3788 C3787 1.403 . S
C3788 C3789 1.404 . S
C3788 C3791 1.539 . S
C3789 C3785 1.408 1_455 S
C3789 C3788 1.404 . S
C3789 H3801 0.930 . S
C3790 C3786 1.524 1_655 S
C3790 H3802 0.956 . S
C3790 H3803 0.961 1_655 S
C3790 H3804 0.961 . S
C3791 C3788 1.539 . S
C3791 H3805 0.958 . S
C3791 H3806 0.961 . S
C3791 H3807 0.960 . S
H3792 C3776 0.931 . S
H3793 C3781 0.929 . S
H3794 C3782 0.960 . S
H3795 C3782 0.962 . S
H3796 C3782 0.960 . S
H3797 C3783 0.961 . S
H3798 C3783 0.961 . S
H3799 C3783 0.961 . S
H3800 C3784 0.931 . S
H3801 C3789 0.930 . S
H3802 C3790 0.956 . S
H3803 C3790 0.961 1_455 S
H3804 C3790 0.961 . S
H3805 C3791 0.958 . S
H3806 C3791 0.961 . S
H3807 C3791 0.960 . S
C3808 C3809 1.391 . S
C3808 C3810 1.394 . S
C3808 H3824 0.931 . S
C3809 C3808 1.391 . S
C3809 C3813 1.376 . S
C3810 C3808 1.394 . S
C3810 C3811 1.369 . S
C3810 C3814 1.531 . S
C3811 C3810 1.369 . S
C3811 C3812 1.410 . S
C3811 C3819 1.503 . S
C3812 C3811 1.410 . S
C3812 C3813 1.392 . S
C3812 C3815 1.511 . S
C3813 C3809 1.376 . S
C3813 C3812 1.392 . S
C3813 H3825 0.929 . S
C3814 C3810 1.531 . S
C3814 H3826 0.960 . S
C3814 H3827 0.962 . S
C3814 H3828 0.960 . S
C3815 C3812 1.511 . S
C3815 H3829 0.961 . S
C3815 H3830 0.961 . S
C3815 H3831 0.961 . S
C3816 C3817 1.370 . S
C3816 C3818 1.363 . S
C3816 H3832 0.931 . S
C3817 C3816 1.370 . S
C3817 C3821 1.408 . S
C3818 C3816 1.363 . S
C3818 C3819 1.370 . S
C3818 C3822 1.524 . S
C3819 C3811 1.503 . S
C3819 C3818 1.370 . S
C3819 C3820 1.403 . S
C3820 C3819 1.403 . S
C3820 C3821 1.404 . S
C3820 C3823 1.539 . S
C3821 C3817 1.408 . S
C3821 C3820 1.404 . S
C3821 H3833 0.930 . S
C3822 C3818 1.524 . S
C3822 H3834 0.956 . S
C3822 H3835 0.961 . S
C3822 H3836 0.961 . S
C3823 C3820 1.539 . S
C3823 H3837 0.958 . S
C3823 H3838 0.961 . S
C3823 H3839 0.960 . S
H3824 C3808 0.931 . S
H3825 C3813 0.929 . S
H3826 C3814 0.960 . S
H3827 C3814 0.962 . S
H3828 C3814 0.960 . S
H3829 C3815 0.961 . S
H3830 C3815 0.961 . S
H3831 C3815 0.961 . S
H3832 C3816 0.931 . S
H3833 C3821 0.930 . S
H3834 C3822 0.956 . S
H3835 C3822 0.961 . S
H3836 C3822 0.961 . S
H3837 C3823 0.958 . S
H3838 C3823 0.961 . S
H3839 C3823 0.960 . S
C3840 C3841 1.391 . S
C3840 C3842 1.394 . S
C3840 H3856 0.931 . S
C3841 C3840 1.391 . S
C3841 C3845 1.376 . S
C3842 C3840 1.394 . S
C3842 C3843 1.369 . S
C3842 C3846 1.531 . S
C3843 C3842 1.369 . S
C3843 C3844 1.410 . S
C3843 C3851 1.503 . S
C3844 C3843 1.410 . S
C3844 C3845 1.392 . S
C3844 C3847 1.511 . S
C3845 C3841 1.376 . S
C3845 C3844 1.392 . S
C3845 H3857 0.929 . S
C3846 C3842 1.531 . S
C3846 H3858 0.960 . S
C3846 H3859 0.962 . S
C3846 H3860 0.960 . S
C3847 C3844 1.511 . S
C3847 H3861 0.961 . S
C3847 H3862 0.961 . S
C3847 H3863 0.961 . S
C3848 C3849 1.370 . S
C3848 C3850 1.363 . S
C3848 H3864 0.931 . S
C3849 C3848 1.370 . S
C3849 C3853 1.408 . S
C3850 C3848 1.363 . S
C3850 C3851 1.370 . S
C3850 C3854 1.524 . S
C3851 C3843 1.503 . S
C3851 C3850 1.370 . S
C3851 C3852 1.403 . S
C3852 C3851 1.403 . S
C3852 C3853 1.404 . S
C3852 C3855 1.539 . S
C3853 C3849 1.408 . S
C3853 C3852 1.404 . S
C3853 H3865 0.930 . S
C3854 C3850 1.524 . S
C3854 H3866 0.956 . S
C3854 H3867 0.961 . S
C3854 H3868 0.961 . S
C3855 C3852 1.539 . S
C3855 H3869 0.958 . S
C3855 H3870 0.961 . S
C3855 H3871 0.960 . S
H3856 C3840 0.931 . S
H3857 C3845 0.929 . S
H3858 C3846 0.960 . S
H3859 C3846 0.962 . S
H3860 C3846 0.960 . S
H3861 C3847 0.961 . S
H3862 C3847 0.961 . S
H3863 C3847 0.961 . S
H3864 C3848 0.931 . S
H3865 C3853 0.930 . S
H3866 C3854 0.956 . S
H3867 C3854 0.961 . S
H3868 C3854 0.961 . S
H3869 C3855 0.958 . S
H3870 C3855 0.961 . S
H3871 C3855 0.960 . S
C3872 C3873 1.391 . S
C3872 C3874 1.394 . S
C3872 H3888 0.931 . S
C3873 C3872 1.391 . S
C3873 C3877 1.376 . S
C3874 C3872 1.394 . S
C3874 C3875 1.369 1_556 S
C3874 C3878 1.531 1_556 S
C3875 C3874 1.369 1_554 S
C3875 C3876 1.410 1_554 S
C3875 C3883 1.503 . S
C3876 C3875 1.410 1_556 S
C3876 C3877 1.392 . S
C3876 C3879 1.511 . S
C3877 C3873 1.376 . S
C3877 C3876 1.392 . S
C3877 H3889 0.929 . S
C3878 C3874 1.531 1_554 S
C3878 H3890 0.960 . S
C3878 H3891 0.962 . S
C3878 H3892 0.960 . S
C3879 C3876 1.511 . S
C3879 H3893 0.961 . S
C3879 H3894 0.961 1_556 S
C3879 H3895 0.961 . S
C3880 C3881 1.370 . S
C3880 C3882 1.363 . S
C3880 H3896 0.931 . S
C3881 C3880 1.370 . S
C3881 C3885 1.408 . S
C3882 C3880 1.363 . S
C3882 C3883 1.370 . S
C3882 C3886 1.524 . S
C3883 C3875 1.503 . S
C3883 C3882 1.370 . S
C3883 C3884 1.403 . S
C3884 C3883 1.403 . S
C3884 C3885 1.404 . S
C3884 C3887 1.539 . S
C3885 C3881 1.408 . S
C3885 C3884 1.404 . S
C3885 H3897 0.930 . S
C3886 C3882 1.524 . S
C3886 H3898 0.956 . S
C3886 H3899 0.961 . S
C3886 H3900 0.961 . S
C3887 C3884 1.539 . S
C3887 H3901 0.958 . S
C3887 H3902 0.961 . S
C3887 H3903 0.933 1_554 S
H3888 C3872 0.931 . S
H3889 C3877 0.929 . S
H3890 C3878 0.960 . S
H3891 C3878 0.962 . S
H3892 C3878 0.960 . S
H3893 C3879 0.961 . S
H3894 C3879 0.961 1_554 S
H3895 C3879 0.961 . S
H3896 C3880 0.931 . S
H3897 C3885 0.930 . S
H3898 C3886 0.956 . S
H3899 C3886 0.961 . S
H3900 C3886 0.961 . S
H3901 C3887 0.958 . S
H3902 C3887 0.961 . S
H3903 C3887 0.933 1_556 S
C3904 C3905 1.391 . S
C3904 C3906 1.394 . S
C3904 H3920 0.931 . S
C3905 C3904 1.391 . S
C3905 C3909 1.376 . S
C3906 C3904 1.394 . S
C3906 C3907 1.369 . S
C3906 C3910 1.531 . S
C3907 C3906 1.369 . S
C3907 C3908 1.410 . S
C3907 C3915 1.503 . S
C3908 C3907 1.410 . S
C3908 C3909 1.392 . S
C3908 C3911 1.511 . S
C3909 C3905 1.376 . S
C3909 C3908 1.392 . S
C3909 H3921 0.929 . S
C3910 C3906 1.531 . S
C3910 H3922 0.960 . S
C3910 H3923 0.962 . S
C3910 H3924 0.960 . S
C3911 C3908 1.511 . S
C3911 H3925 0.961 . S
C3911 H3926 0.961 . S
C3911 H3927 0.961 . S
C3912 C3913 1.370 . S
C3912 C3914 1.363 . S
C3912 H3928 0.931 . S
C3913 C3912 1.370 . S
C3913 C3917 1.408 . S
C3914 C3912 1.363 . S
C3914 C3915 1.370 . S
C3914 C3918 1.524 . S
C3915 C3907 1.503 . S
C3915 C3914 1.370 . S
C3915 C3916 1.403 . S
C3916 C3915 1.403 . S
C3916 C3917 1.404 . S
C3916 C3919 1.539 . S
C3917 C3913 1.408 . S
C3917 C3916 1.404 . S
C3917 H3929 0.930 . S
C3918 C3914 1.524 . S
C3918 H3930 0.956 . S
C3918 H3931 0.961 . S
C3918 H3932 0.961 . S
C3919 C3916 1.539 . S
C3919 H3933 0.958 . S
C3919 H3934 0.961 . S
C3919 H3935 0.960 . S
H3920 C3904 0.931 . S
H3921 C3909 0.929 . S
H3922 C3910 0.960 . S
H3923 C3910 0.962 . S
H3924 C3910 0.960 . S
H3925 C3911 0.961 . S
H3926 C3911 0.961 . S
H3927 C3911 0.961 . S
H3928 C3912 0.931 . S
H3929 C3917 0.930 . S
H3930 C3918 0.956 . S
H3931 C3918 0.961 . S
H3932 C3918 0.961 . S
H3933 C3919 0.958 . S
H3934 C3919 0.961 . S
H3935 C3919 0.960 . S
C3936 C3937 1.391 . S
C3936 C3938 1.394 . S
C3936 H3952 0.931 . S
C3937 C3936 1.391 . S
C3937 C3941 1.376 . S
C3938 C3936 1.394 . S
C3938 C3939 1.369 . S
C3938 C3942 1.531 . S
C3939 C3938 1.369 . S
C3939 C3940 1.410 . S
C3939 C3947 1.503 . S
C3940 C3939 1.410 . S
C3940 C3941 1.392 . S
C3940 C3943 1.511 . S
C3941 C3937 1.376 . S
C3941 C3940 1.392 . S
C3941 H3953 0.929 . S
C3942 C3938 1.531 . S
C3942 H3954 0.960 . S
C3942 H3955 0.962 . S
C3942 H3956 0.960 . S
C3943 C3940 1.511 . S
C3943 H3957 0.961 . S
C3943 H3958 0.961 . S
C3943 H3959 0.961 . S
C3944 C3945 1.370 . S
C3944 C3946 1.363 . S
C3944 H3960 0.931 . S
C3945 C3944 1.370 . S
C3945 C3949 1.408 . S
C3946 C3944 1.363 . S
C3946 C3947 1.370 . S
C3946 C3950 1.524 . S
C3947 C3939 1.503 . S
C3947 C3946 1.370 . S
C3947 C3948 1.403 . S
C3948 C3947 1.403 . S
C3948 C3949 1.404 . S
C3948 C3951 1.539 . S
C3949 C3945 1.408 . S
C3949 C3948 1.404 . S
C3949 H3961 0.930 . S
C3950 C3946 1.524 . S
C3950 H3962 0.956 . S
C3950 H3963 0.961 . S
C3950 H3964 0.961 . S
C3951 C3948 1.539 . S
C3951 H3965 0.958 . S
C3951 H3966 0.961 . S
C3951 H3967 0.960 . S
H3952 C3936 0.931 . S
H3953 C3941 0.929 . S
H3954 C3942 0.960 . S
H3955 C3942 0.962 . S
H3956 C3942 0.960 . S
H3957 C3943 0.961 . S
H3958 C3943 0.961 . S
H3959 C3943 0.961 . S
H3960 C3944 0.931 . S
H3961 C3949 0.930 . S
H3962 C3950 0.956 . S
H3963 C3950 0.961 . S
H3964 C3950 0.961 . S
H3965 C3951 0.958 . S
H3966 C3951 0.961 . S
H3967 C3951 0.960 . S
C3968 C3969 1.391 . S
C3968 C3970 1.394 . S
C3968 H3984 0.931 . S
C3969 C3968 1.391 . S
C3969 C3973 1.376 . S
C3970 C3968 1.394 . S
C3970 C3971 1.369 . S
C3970 C3974 1.531 . S
C3971 C3970 1.369 . S
C3971 C3972 1.410 . S
C3971 C3979 1.503 . S
C3972 C3971 1.410 . S
C3972 C3973 1.392 . S
C3972 C3975 1.511 . S
C3973 C3969 1.376 . S
C3973 C3972 1.392 . S
C3973 H3985 0.929 . S
C3974 C3970 1.531 . S
C3974 H3986 0.960 . S
C3974 H3987 0.962 . S
C3974 H3988 0.960 . S
C3975 C3972 1.511 . S
C3975 H3989 0.961 . S
C3975 H3990 0.961 . S
C3975 H3991 0.961 . S
C3976 C3977 1.370 . S
C3976 C3978 1.363 . S
C3976 H3992 0.931 . S
C3977 C3976 1.370 . S
C3977 C3981 1.408 . S
C3978 C3976 1.363 . S
C3978 C3979 1.370 . S
C3978 C3982 1.524 . S
C3979 C3971 1.503 . S
C3979 C3978 1.370 . S
C3979 C3980 1.403 . S
C3980 C3979 1.403 . S
C3980 C3981 1.404 . S
C3980 C3983 1.539 . S
C3981 C3977 1.408 . S
C3981 C3980 1.404 . S
C3981 H3993 0.930 . S
C3982 C3978 1.524 . S
C3982 H3994 0.956 . S
C3982 H3995 0.961 . S
C3982 H3996 0.961 . S
C3983 C3980 1.539 . S
C3983 H3997 0.958 . S
C3983 H3998 0.961 . S
C3983 H3999 0.960 . S
H3984 C3968 0.931 . S
H3985 C3973 0.929 . S
H3986 C3974 0.960 . S
H3987 C3974 0.962 . S
H3988 C3974 0.960 . S
H3989 C3975 0.961 . S
H3990 C3975 0.961 . S
H3991 C3975 0.961 . S
H3992 C3976 0.931 . S
H3993 C3981 0.930 . S
H3994 C3982 0.956 . S
H3995 C3982 0.961 . S
H3996 C3982 0.961 . S
H3997 C3983 0.958 . S
H3998 C3983 0.961 . S
H3999 C3983 0.960 . S
C4000 C4001 1.391 . S
C4000 C4002 1.394 . S
C4000 H4016 0.931 . S
C4001 C4000 1.391 . S
C4001 C4005 1.376 . S
C4002 C4000 1.394 . S
C4002 C4003 1.369 . S
C4002 C4006 1.531 . S
C4003 C4002 1.369 . S
C4003 C4004 1.410 . S
C4003 C4011 1.503 . S
C4004 C4003 1.410 . S
C4004 C4005 1.392 . S
C4004 C4007 1.511 . S
C4005 C4001 1.376 . S
C4005 C4004 1.392 . S
C4005 H4017 0.929 . S
C4006 C4002 1.531 . S
C4006 H4018 0.960 . S
C4006 H4019 0.962 . S
C4006 H4020 0.960 . S
C4007 C4004 1.511 . S
C4007 H4021 0.961 . S
C4007 H4022 0.961 . S
C4007 H4023 0.961 . S
C4008 C4009 1.370 . S
C4008 C4010 1.363 . S
C4008 H4024 0.931 . S
C4009 C4008 1.370 . S
C4009 C4013 1.408 . S
C4010 C4008 1.363 . S
C4010 C4011 1.370 . S
C4010 C4014 1.524 . S
C4011 C4003 1.503 . S
C4011 C4010 1.370 . S
C4011 C4012 1.403 . S
C4012 C4011 1.403 . S
C4012 C4013 1.404 . S
C4012 C4015 1.539 . S
C4013 C4009 1.408 . S
C4013 C4012 1.404 . S
C4013 H4025 0.930 . S
C4014 C4010 1.524 . S
C4014 H4026 0.956 . S
C4014 H4027 0.961 . S
C4014 H4028 0.961 . S
C4015 C4012 1.539 . S
C4015 H4029 0.958 . S
C4015 H4030 0.961 . S
C4015 H4031 0.960 . S
H4016 C4000 0.931 . S
H4017 C4005 0.929 . S
H4018 C4006 0.960 . S
H4019 C4006 0.962 . S
H4020 C4006 0.960 . S
H4021 C4007 0.961 . S
H4022 C4007 0.961 . S
H4023 C4007 0.961 . S
H4024 C4008 0.931 . S
H4025 C4013 0.930 . S
H4026 C4014 0.956 . S
H4027 C4014 0.961 . S
H4028 C4014 0.961 . S
H4029 C4015 0.958 . S
H4030 C4015 0.961 . S
H4031 C4015 0.960 . S
C4032 C4033 1.391 . S
C4032 C4034 1.394 1_556 S
C4032 H4048 0.931 . S
C4033 C4032 1.391 . S
C4033 C4037 1.376 . S
C4034 C4032 1.394 1_554 S
C4034 C4035 1.369 . S
C4034 C4038 1.531 . S
C4035 C4034 1.369 . S
C4035 C4036 1.410 . S
C4035 C4043 1.503 . S
C4036 C4035 1.410 . S
C4036 C4037 1.392 1_554 S
C4036 C4039 1.511 . S
C4037 C4033 1.376 . S
C4037 C4036 1.392 1_556 S
C4037 H4049 0.929 . S
C4038 C4034 1.531 . S
C4038 H4050 0.960 . S
C4038 H4051 0.962 . S
C4038 H4052 0.960 1_554 S
C4039 C4036 1.511 . S
C4039 H4053 0.961 . S
C4039 H4054 0.961 . S
C4039 H4055 0.961 . S
C4040 C4041 1.370 . S
C4040 C4042 1.363 . S
C4040 H4056 0.931 . S
C4041 C4040 1.370 . S
C4041 C4045 1.408 . S
C4042 C4040 1.363 . S
C4042 C4043 1.370 . S
C4042 C4046 1.524 . S
C4043 C4035 1.503 . S
C4043 C4042 1.370 . S
C4043 C4044 1.403 . S
C4044 C4043 1.403 . S
C4044 C4045 1.404 . S
C4044 C4047 1.539 . S
C4045 C4041 1.408 . S
C4045 C4044 1.404 . S
C4045 H4057 0.930 . S
C4046 C4042 1.524 . S
C4046 H4058 0.956 . S
C4046 H4059 0.961 . S
C4046 H4060 0.961 . S
C4047 C4044 1.539 . S
C4047 H4061 0.958 . S
C4047 H4062 0.961 . S
C4047 H4063 0.960 . S
H4048 C4032 0.931 . S
H4049 C4037 0.929 . S
H4050 C4038 0.960 . S
H4051 C4038 0.962 . S
H4052 C4038 0.960 1_556 S
H4053 C4039 0.961 . S
H4054 C4039 0.961 . S
H4055 C4039 0.961 . S
H4056 C4040 0.931 . S
H4057 C4045 0.930 . S
H4058 C4046 0.956 . S
H4059 C4046 0.961 . S
H4060 C4046 0.961 . S
H4061 C4047 0.958 . S
H4062 C4047 0.961 . S
H4063 C4047 0.960 . S
C4064 C4065 1.391 . S
C4064 C4066 1.394 . S
C4064 H4080 0.931 . S
C4065 C4064 1.391 . S
C4065 C4069 1.376 . S
C4066 C4064 1.394 . S
C4066 C4067 1.369 . S
C4066 C4070 1.531 . S
C4067 C4066 1.369 . S
C4067 C4068 1.410 . S
C4067 C4075 1.503 . S
C4068 C4067 1.410 . S
C4068 C4069 1.392 . S
C4068 C4071 1.511 . S
C4069 C4065 1.376 . S
C4069 C4068 1.392 . S
C4069 H4081 0.929 . S
C4070 C4066 1.531 . S
C4070 H4082 0.960 . S
C4070 H4083 0.962 . S
C4070 H4084 0.960 . S
C4071 C4068 1.511 . S
C4071 H4085 0.961 . S
C4071 H4086 0.961 . S
C4071 H4087 0.961 . S
C4072 C4073 1.370 . S
C4072 C4074 1.363 . S
C4072 H4088 0.931 . S
C4073 C4072 1.370 . S
C4073 C4077 1.408 . S
C4074 C4072 1.363 . S
C4074 C4075 1.370 . S
C4074 C4078 1.524 . S
C4075 C4067 1.503 . S
C4075 C4074 1.370 . S
C4075 C4076 1.403 . S
C4076 C4075 1.403 . S
C4076 C4077 1.404 . S
C4076 C4079 1.539 . S
C4077 C4073 1.408 . S
C4077 C4076 1.404 . S
C4077 H4089 0.930 . S
C4078 C4074 1.524 . S
C4078 H4090 0.956 . S
C4078 H4091 0.961 . S
C4078 H4092 0.961 . S
C4079 C4076 1.539 . S
C4079 H4093 0.958 . S
C4079 H4094 0.961 . S
C4079 H4095 0.960 . S
H4080 C4064 0.931 . S
H4081 C4069 0.929 . S
H4082 C4070 0.960 . S
H4083 C4070 0.962 . S
H4084 C4070 0.960 . S
H4085 C4071 0.961 . S
H4086 C4071 0.961 . S
H4087 C4071 0.961 . S
H4088 C4072 0.931 . S
H4089 C4077 0.930 . S
H4090 C4078 0.956 . S
H4091 C4078 0.961 . S
H4092 C4078 0.961 . S
H4093 C4079 0.958 . S
H4094 C4079 0.961 . S
H4095 C4079 0.960 . S
C4096 C4097 1.391 . S
C4096 C4098 1.394 . S
C4096 H4112 0.931 . S
C4097 C4096 1.391 . S
C4097 C4101 1.376 . S
C4098 C4096 1.394 . S
C4098 C4099 1.369 . S
C4098 C4102 1.531 1_565 S
C4099 C4098 1.369 . S
C4099 C4100 1.410 . S
C4099 C4107 1.503 1_565 S
C4100 C4099 1.410 . S
C4100 C4101 1.392 . S
C4100 C4103 1.511 . S
C4101 C4097 1.376 . S
C4101 C4100 1.392 . S
C4101 H4113 0.929 . S
C4102 C4098 1.531 1_545 S
C4102 H4114 0.960 . S
C4102 H4115 0.962 1_545 S
C4102 H4116 0.960 . S
C4103 C4100 1.511 . S
C4103 H4117 0.961 . S
C4103 H4118 0.961 . S
C4103 H4119 0.961 . S
C4104 C4105 1.370 1_565 S
C4104 C4106 1.363 . S
C4104 H4120 0.931 . S
C4105 C4104 1.370 1_545 S
C4105 C4109 1.408 . S
C4106 C4104 1.363 . S
C4106 C4107 1.370 1_565 S
C4106 C4110 1.524 . S
C4107 C4099 1.503 1_545 S
C4107 C4106 1.370 1_545 S
C4107 C4108 1.403 . S
C4108 C4107 1.403 . S
C4108 C4109 1.404 . S
C4108 C4111 1.539 . S
C4109 C4105 1.408 . S
C4109 C4108 1.404 . S
C4109 H4121 0.930 . S
C4110 C4106 1.524 . S
C4110 H4122 0.956 . S
C4110 H4123 0.961 . S
C4110 H4124 0.961 . S
C4111 C4108 1.539 . S
C4111 H4125 0.958 . S
C4111 H4126 0.961 . S
C4111 H4127 0.960 . S
H4112 C4096 0.931 . S
H4113 C4101 0.929 . S
H4114 C4102 0.960 . S
H4115 C4102 0.962 1_565 S
H4116 C4102 0.960 . S
H4117 C4103 0.961 . S
H4118 C4103 0.961 . S
H4119 C4103 0.961 . S
H4120 C4104 0.931 . S
H4121 C4109 0.930 . S
H4122 C4110 0.956 . S
H4123 C4110 0.961 . S
H4124 C4110 0.961 . S
H4125 C4111 0.958 . S
H4126 C4111 0.961 . S
H4127 C4111 0.960 . S
C4128 C4129 1.391 . S
C4128 C4130 1.394 . S
C4128 H4144 0.931 . S
C4129 C4128 1.391 . S
C4129 C4133 1.376 . S
C4130 C4128 1.394 . S
C4130 C4131 1.369 . S
C4130 C4134 1.531 . S
C4131 C4130 1.369 . S
C4131 C4132 1.410 . S
C4131 C4139 1.503 . S
C4132 C4131 1.410 . S
C4132 C4133 1.392 . S
C4132 C4135 1.511 . S
C4133 C4129 1.376 . S
C4133 C4132 1.392 . S
C4133 H4145 0.929 . S
C4134 C4130 1.531 . S
C4134 H4146 0.960 . S
C4134 H4147 0.962 . S
C4134 H4148 0.960 . S
C4135 C4132 1.511 . S
C4135 H4149 0.961 . S
C4135 H4150 0.961 . S
C4135 H4151 0.961 . S
C4136 C4137 1.370 . S
C4136 C4138 1.363 . S
C4136 H4152 0.931 . S
C4137 C4136 1.370 . S
C4137 C4141 1.408 . S
C4138 C4136 1.363 . S
C4138 C4139 1.370 . S
C4138 C4142 1.524 . S
C4139 C4131 1.503 . S
C4139 C4138 1.370 . S
C4139 C4140 1.403 . S
C4140 C4139 1.403 . S
C4140 C4141 1.404 . S
C4140 C4143 1.539 . S
C4141 C4137 1.408 . S
C4141 C4140 1.404 . S
C4141 H4153 0.930 . S
C4142 C4138 1.524 . S
C4142 H4154 0.956 . S
C4142 H4155 0.961 . S
C4142 H4156 0.961 . S
C4143 C4140 1.539 . S
C4143 H4157 0.958 . S
C4143 H4158 0.961 . S
C4143 H4159 0.960 . S
H4144 C4128 0.931 . S
H4145 C4133 0.929 . S
H4146 C4134 0.960 . S
H4147 C4134 0.962 . S
H4148 C4134 0.960 . S
H4149 C4135 0.961 . S
H4150 C4135 0.961 . S
H4151 C4135 0.961 . S
H4152 C4136 0.931 . S
H4153 C4141 0.930 . S
H4154 C4142 0.956 . S
H4155 C4142 0.961 . S
H4156 C4142 0.961 . S
H4157 C4143 0.958 . S
H4158 C4143 0.961 . S
H4159 C4143 0.960 . S
C4160 C4161 1.391 . S
C4160 C4162 1.394 . S
C4160 H4176 0.931 . S
C4161 C4160 1.391 . S
C4161 C4165 1.376 . S
C4162 C4160 1.394 . S
C4162 C4163 1.369 . S
C4162 C4166 1.531 . S
C4163 C4162 1.369 . S
C4163 C4164 1.410 . S
C4163 C4171 1.503 . S
C4164 C4163 1.410 . S
C4164 C4165 1.392 . S
C4164 C4167 1.511 1_545 S
C4165 C4161 1.376 . S
C4165 C4164 1.392 . S
C4165 H4177 0.929 . S
C4166 C4162 1.531 . S
C4166 H4178 0.960 . S
C4166 H4179 0.962 . S
C4166 H4180 0.960 . S
C4167 C4164 1.511 1_565 S
C4167 H4181 0.961 . S
C4167 H4182 0.961 . S
C4167 H4183 0.961 1_565 S
C4168 C4169 1.370 . S
C4168 C4170 1.363 . S
C4168 H4184 0.931 . S
C4169 C4168 1.370 . S
C4169 C4173 1.408 1_565 S
C4170 C4168 1.363 . S
C4170 C4171 1.370 1_565 S
C4170 C4174 1.524 . S
C4171 C4163 1.503 . S
C4171 C4170 1.370 1_545 S
C4171 C4172 1.403 . S
C4172 C4171 1.403 . S
C4172 C4173 1.404 . S
C4172 C4175 1.539 . S
C4173 C4169 1.408 1_545 S
C4173 C4172 1.404 . S
C4173 H4185 0.930 . S
C4174 C4170 1.524 . S
C4174 H4186 0.956 . S
C4174 H4187 0.961 . S
C4174 H4188 0.961 . S
C4175 C4172 1.539 . S
C4175 H4189 0.958 . S
C4175 H4190 0.961 . S
C4175 H4191 0.960 . S
H4176 C4160 0.931 . S
H4177 C4165 0.929 . S
H4178 C4166 0.960 . S
H4179 C4166 0.962 . S
H4180 C4166 0.960 . S
H4181 C4167 0.961 . S
H4182 C4167 0.961 . S
H4183 C4167 0.961 1_545 S
H4184 C4168 0.931 . S
H4185 C4173 0.930 . S
H4186 C4174 0.956 . S
H4187 C4174 0.961 . S
H4188 C4174 0.961 . S
H4189 C4175 0.958 . S
H4190 C4175 0.961 . S
H4191 C4175 0.960 . S
C4192 C4193 1.391 . S
C4192 C4194 1.394 . S
C4192 H4208 0.931 . S
C4193 C4192 1.391 . S
C4193 C4197 1.376 . S
C4194 C4192 1.394 . S
C4194 C4195 1.369 . S
C4194 C4198 1.531 . S
C4195 C4194 1.369 . S
C4195 C4196 1.410 . S
C4195 C4203 1.503 . S
C4196 C4195 1.410 . S
C4196 C4197 1.392 . S
C4196 C4199 1.511 . S
C4197 C4193 1.376 . S
C4197 C4196 1.392 . S
C4197 H4209 0.929 . S
C4198 C4194 1.531 . S
C4198 H4210 0.960 . S
C4198 H4211 0.962 . S
C4198 H4212 0.960 . S
C4199 C4196 1.511 . S
C4199 H4213 0.961 . S
C4199 H4214 0.961 . S
C4199 H4215 0.961 . S
C4200 C4201 1.370 . S
C4200 C4202 1.363 . S
C4200 H4216 0.931 . S
C4201 C4200 1.370 . S
C4201 C4205 1.408 . S
C4202 C4200 1.363 . S
C4202 C4203 1.370 1_556 S
C4202 C4206 1.524 . S
C4203 C4195 1.503 . S
C4203 C4202 1.370 1_554 S
C4203 C4204 1.403 . S
C4204 C4203 1.403 . S
C4204 C4205 1.404 1_554 S
C4204 C4207 1.539 . S
C4205 C4201 1.408 . S
C4205 C4204 1.404 1_556 S
C4205 H4217 0.930 . S
C4206 C4202 1.524 . S
C4206 H4218 0.956 . S
C4206 H4219 0.961 1_556 S
C4206 H4220 0.961 . S
C4207 C4204 1.539 . S
C4207 H4221 0.958 . S
C4207 H4222 0.961 . S
C4207 H4223 0.960 . S
H4208 C4192 0.931 . S
H4209 C4197 0.929 . S
H4210 C4198 0.960 . S
H4211 C4198 0.962 . S
H4212 C4198 0.960 . S
H4213 C4199 0.961 . S
H4214 C4199 0.961 . S
H4215 C4199 0.961 . S
H4216 C4200 0.931 . S
H4217 C4205 0.930 . S
H4218 C4206 0.956 . S
H4219 C4206 0.961 1_554 S
H4220 C4206 0.961 . S
H4221 C4207 0.958 . S
H4222 C4207 0.961 . S
H4223 C4207 0.960 . S
C4224 C4225 1.391 . S
C4224 C4226 1.394 . S
C4224 H4240 0.931 . S
C4225 C4224 1.391 . S
C4225 C4229 1.376 . S
C4226 C4224 1.394 . S
C4226 C4227 1.369 . S
C4226 C4230 1.531 . S
C4227 C4226 1.369 . S
C4227 C4228 1.410 . S
C4227 C4235 1.503 1_565 S
C4228 C4227 1.410 . S
C4228 C4229 1.392 . S
C4228 C4231 1.511 . S
C4229 C4225 1.376 . S
C4229 C4228 1.392 . S
C4229 H4241 0.929 . S
C4230 C4226 1.531 . S
C4230 H4242 0.960 . S
C4230 H4243 0.962 1_565 S
C4230 H4244 0.960 . S
C4231 C4228 1.511 . S
C4231 H4245 0.961 . S
C4231 H4246 0.961 1_565 S
C4231 H4247 0.961 . S
C4232 C4233 1.370 . S
C4232 C4234 1.363 1_556 S
C4232 H4248 0.931 . S
C4233 C4232 1.370 . S
C4233 C4237 1.408 . S
C4234 C4232 1.363 1_554 S
C4234 C4235 1.370 . S
C4234 C4238 1.524 . S
C4235 C4227 1.503 1_545 S
C4235 C4234 1.370 . S
C4235 C4236 1.403 1_544 S
C4236 C4235 1.403 1_566 S
C4236 C4237 1.404 1_565 S
C4236 C4239 1.539 . S
C4237 C4233 1.408 . S
C4237 C4236 1.404 1_545 S
C4237 H4249 0.935 . S
C4238 C4234 1.524 . S
C4238 H4250 0.956 . S
C4238 H4251 0.961 . S
C4238 H4252 0.961 . S
C4239 C4236 1.539 . S
C4239 H4253 0.958 . S
C4239 H4254 0.961 . S
C4239 H4255 0.960 1_556 S
H4240 C4224 0.931 . S
H4241 C4229 0.929 . S
H4242 C4230 0.960 . S
H4243 C4230 0.962 1_545 S
H4244 C4230 0.960 . S
H4245 C4231 0.961 . S
H4246 C4231 0.961 1_545 S
H4247 C4231 0.961 . S
H4248 C4232 0.931 . S
H4249 C4237 0.935 . S
H4250 C4238 0.956 . S
H4251 C4238 0.961 . S
H4252 C4238 0.961 . S
H4253 C4239 0.958 . S
H4254 C4239 0.961 . S
H4255 C4239 0.960 1_554 S
C4256 C4257 1.391 . S
C4256 C4258 1.394 . S
C4256 H4272 0.931 . S
C4257 C4256 1.391 . S
C4257 C4261 1.376 . S
C4258 C4256 1.394 . S
C4258 C4259 1.369 . S
C4258 C4262 1.531 . S
C4259 C4258 1.369 . S
C4259 C4260 1.410 . S
C4259 C4267 1.503 . S
C4260 C4259 1.410 . S
C4260 C4261 1.392 . S
C4260 C4263 1.511 . S
C4261 C4257 1.376 . S
C4261 C4260 1.392 . S
C4261 H4273 0.929 . S
C4262 C4258 1.531 . S
C4262 H4274 0.960 . S
C4262 H4275 0.962 . S
C4262 H4276 0.960 . S
C4263 C4260 1.511 . S
C4263 H4277 0.961 . S
C4263 H4278 0.961 . S
C4263 H4279 0.961 . S
C4264 C4265 1.370 . S
C4264 C4266 1.363 . S
C4264 H4280 0.931 . S
C4265 C4264 1.370 . S
C4265 C4269 1.408 . S
C4266 C4264 1.363 . S
C4266 C4267 1.370 . S
C4266 C4270 1.524 . S
C4267 C4259 1.503 . S
C4267 C4266 1.370 . S
C4267 C4268 1.403 . S
C4268 C4267 1.403 . S
C4268 C4269 1.404 . S
C4268 C4271 1.539 . S
C4269 C4265 1.408 . S
C4269 C4268 1.404 . S
C4269 H4281 0.930 . S
C4270 C4266 1.524 . S
C4270 H4282 0.956 . S
C4270 H4283 0.961 . S
C4270 H4284 0.961 . S
C4271 C4268 1.539 . S
C4271 H4285 0.958 . S
C4271 H4286 0.961 . S
C4271 H4287 0.960 . S
H4272 C4256 0.931 . S
H4273 C4261 0.929 . S
H4274 C4262 0.960 . S
H4275 C4262 0.962 . S
H4276 C4262 0.960 . S
H4277 C4263 0.961 . S
H4278 C4263 0.961 . S
H4279 C4263 0.961 . S
H4280 C4264 0.931 . S
H4281 C4269 0.930 . S
H4282 C4270 0.956 . S
H4283 C4270 0.961 . S
H4284 C4270 0.961 . S
H4285 C4271 0.958 . S
H4286 C4271 0.961 . S
H4287 C4271 0.960 . S
C4288 C4289 1.391 . S
C4288 C4290 1.394 . S
C4288 H4304 0.931 . S
C4289 C4288 1.391 . S
C4289 C4293 1.376 . S
C4290 C4288 1.394 . S
C4290 C4291 1.369 . S
C4290 C4294 1.531 1_565 S
C4291 C4290 1.369 . S
C4291 C4292 1.410 . S
C4291 C4299 1.481 1_565 S
C4292 C4291 1.410 . S
C4292 C4293 1.392 . S
C4292 C4295 1.511 . S
C4293 C4289 1.376 . S
C4293 C4292 1.392 . S
C4293 H4305 0.929 . S
C4294 C4290 1.531 1_545 S
C4294 H4306 0.960 . S
C4294 H4307 0.962 . S
C4294 H4308 0.960 . S
C4295 C4292 1.511 . S
C4295 H4309 0.961 . S
C4295 H4310 0.961 . S
C4295 H4311 0.961 . S
C4296 C4297 1.370 . S
C4296 C4298 1.363 1_545 S
C4296 H4312 0.931 1_545 S
C4297 C4296 1.370 . S
C4297 C4301 1.408 . S
C4298 C4296 1.363 1_565 S
C4298 C4299 1.351 1_565 S
C4298 C4302 1.524 . S
C4299 C4291 1.481 1_545 S
C4299 C4298 1.351 1_545 S
C4299 C4300 1.447 . S
C4300 C4299 1.447 . S
C4300 C4301 1.404 . S
C4300 C4303 1.539 . S
C4301 C4297 1.408 . S
C4301 C4300 1.404 . S
C4301 H4313 0.930 . S
C4302 C4298 1.524 . S
C4302 H4314 0.956 . S
C4302 H4315 0.961 . S
C4302 H4316 0.961 . S
C4303 C4300 1.539 . S
C4303 H4317 0.958 . S
C4303 H4318 0.961 . S
C4303 H4319 0.960 . S
H4304 C4288 0.931 . S
H4305 C4293 0.929 . S
H4306 C4294 0.960 . S
H4307 C4294 0.962 . S
H4308 C4294 0.960 . S
H4309 C4295 0.961 . S
H4310 C4295 0.961 . S
H4311 C4295 0.961 . S
H4312 C4296 0.931 1_565 S
H4313 C4301 0.930 . S
H4314 C4302 0.956 . S
H4315 C4302 0.961 . S
H4316 C4302 0.961 . S
H4317 C4303 0.958 . S
H4318 C4303 0.961 . S
H4319 C4303 0.960 . S
C4320 C4321 1.391 . S
C4320 C4322 1.394 . S
C4320 H4336 0.931 . S
C4321 C4320 1.391 . S
C4321 C4325 1.376 . S
C4322 C4320 1.394 . S
C4322 C4323 1.369 . S
C4322 C4326 1.531 . S
C4323 C4322 1.369 . S
C4323 C4324 1.410 . S
C4323 C4331 1.503 . S
C4324 C4323 1.410 . S
C4324 C4325 1.392 . S
C4324 C4327 1.511 . S
C4325 C4321 1.376 . S
C4325 C4324 1.392 . S
C4325 H4337 0.929 . S
C4326 C4322 1.531 . S
C4326 H4338 0.960 . S
C4326 H4339 0.962 . S
C4326 H4340 0.960 . S
C4327 C4324 1.511 . S
C4327 H4341 0.961 . S
C4327 H4342 0.961 . S
C4327 H4343 0.961 . S
C4328 C4329 1.370 . S
C4328 C4330 1.363 . S
C4328 H4344 0.931 . S
C4329 C4328 1.370 . S
C4329 C4333 1.408 . S
C4330 C4328 1.363 . S
C4330 C4331 1.370 . S
C4330 C4334 1.524 . S
C4331 C4323 1.503 . S
C4331 C4330 1.370 . S
C4331 C4332 1.403 . S
C4332 C4331 1.403 . S
C4332 C4333 1.404 . S
C4332 C4335 1.539 . S
C4333 C4329 1.408 . S
C4333 C4332 1.404 . S
C4333 H4345 0.930 . S
C4334 C4330 1.524 . S
C4334 H4346 0.956 . S
C4334 H4347 0.961 . S
C4334 H4348 0.961 . S
C4335 C4332 1.539 . S
C4335 H4349 0.958 . S
C4335 H4350 0.961 . S
C4335 H4351 0.960 . S
H4336 C4320 0.931 . S
H4337 C4325 0.929 . S
H4338 C4326 0.960 . S
H4339 C4326 0.962 . S
H4340 C4326 0.960 . S
H4341 C4327 0.961 . S
H4342 C4327 0.961 . S
H4343 C4327 0.961 . S
H4344 C4328 0.931 . S
H4345 C4333 0.930 . S
H4346 C4334 0.956 . S
H4347 C4334 0.961 . S
H4348 C4334 0.961 . S
H4349 C4335 0.958 . S
H4350 C4335 0.961 . S
H4351 C4335 0.960 . S
C1281 C19 0.342 . S
C1289 C166 0.387 . S
C1313 C206 0.342 . S
C1321 C59 0.406 . S
C1345 C99 0.483 . S
C1353 C246 0.402 . S
C1377 C286 0.454 . S
C1385 C139 0.431 . S
C1409 C330 0.384 . S
C1417 C495 0.357 . S
C1441 C370 0.323 . S
C1449 C535 0.377 . S
C1473 C575 0.391 . S
C1481 C410 0.369 . S
C1505 C450 0.477 . S
C1513 C615 0.386 . S
C1537 C806 0.327 . S
C1545 C659 0.396 . S
C1569 C699 0.428 . S
C1577 C846 0.367 . S
C1601 C739 0.481 . S
C1609 C886 0.397 . S
C1633 C779 0.427 . S
C1641 C926 0.367 . S
C1665 C970 0.347 . S
C1673 C1135 0.399 . S
C1697 C1175 0.428 . S
C1705 C1010 0.382 . S
C1729 C1050 0.420 . S
C1737 C1215 0.415 . S
C1761 C1255 0.320 . S
C1769 C1090 0.397 . S
C1793 C858 1.428 . S
C1801 C9 1.467 . S
C1825 C898 1.479 . S
C1833 C49 1.444 . S
C1857 C938 1.510 . S
C1865 C89 1.438 . S
C1889 C129 1.492 . S
C1897 C818 1.451 . S
C1921 C178 1.423 . S
C1929 C769 1.473 . S
C1953 C649 1.435 . S
C1961 C218 1.482 . S
C1985 C258 1.436 . S
C1993 C689 1.462 . S
C2017 C298 1.439 . S
C2025 C729 1.471 . S
C2049 C338 1.433 . S
C2057 C1169 1.480 . S
C2081 C1209 1.431 . S
C2089 C378 1.471 . S
C2113 C1249 1.480 . S
C2121 C418 1.450 . S
C2145 C458 1.452 . S
C2153 C1129 1.470 . S
C2177 C489 1.508 . S
C2185 C1098 1.438 . S
C2209 C529 1.495 . S
C2217 C978 1.443 . S
C2241 C569 1.495 . S
C2249 C1018 1.442 . S
C2273 C609 1.484 . S
C2281 C1058 1.450 . S
C2305 C329 0.618 . S
C2313 C18 0.734 . S
C2337 C58 0.670 . S
C2345 C1009 0.726 . S
C2369 C409 0.759 . S
C2377 C98 0.675 . S
C2401 C138 0.624 . S
C2409 C1089 0.731 . S
C2433 C498 0.459 . S
C2441 C169 0.403 . S
C2465 C1178 0.469 . S
C2473 C209 0.402 . S
C2497 C249 0.478 . S
C2505 C578 0.395 . S
C2529 C289 0.362 . S
C2537 C1258 0.444 . S
C2561 C698 0.655 . S
C2569 C369 0.731 . S
C2593 C778 0.702 . S
C2601 C449 0.699 . S
C2625 C538 0.445 . S
C2633 C849 0.416 . S
C2657 C929 0.482 . S
C2665 C618 0.393 . S
C2689 C969 0.771 . S
C2697 C658 0.670 . S
C2721 C1049 0.802 . S
C2729 C738 0.663 . S
C2753 C1138 0.474 . S
C2761 C809 0.401 . S
C2785 C889 0.465 . S
C2793 C1218 0.400 . S
C2817 C10 2.067 . S
C2825 C499 2.094 . S
C2849 C1179 2.089 . S
C2857 C50 2.081 . S
C2881 C579 2.082 . S
C2889 C90 2.089 . S
C2913 C130 2.064 . S
C2921 C1259 2.095 . S
C2945 C326 0.893 . S
C2953 C175 0.929 . S
C2977 C1006 0.961 . S
C2985 C215 0.924 . S
C3009 C406 0.917 . S
C3017 C255 0.912 . S
C3041 C1086 0.898 . S
C3049 C295 0.935 . S
C3073 C170 2.080 . S
C3081 C339 2.085 . S
C3105 C850 2.106 . S
C3113 C379 2.081 . S
C3137 C250 2.102 1_556 S
C3145 C419 2.088 . S
C3169 C459 2.086 . S
C3177 C930 2.092 . S
C3201 C15 0.892 . S
C3209 C486 0.927 . S
C3233 C695 0.931 . S
C3241 C526 0.912 . S
C3265 C566 0.899 . S
C3273 C95 0.920 . S
C3297 C606 0.914 . S
C3305 C775 0.942 . S
C3329 C1139 2.084 . S
C3337 C650 2.090 . S
C3361 C539 2.087 . S
C3369 C690 2.078 . S
C3393 C730 2.094 . S
C3401 C1219 2.095 . S
C3425 C619 2.106 . S
C3433 C770 2.087 . S
C3457 C815 0.934 . S
C3465 C966 0.945 . S
C3489 C855 0.888 . S
C3497 C366 0.930 . S
C3521 C1046 0.949 . S
C3529 C895 0.943 . S
C3553 C446 0.964 . S
C3561 C935 0.928 . S
C3585 C979 2.094 . S
C3593 C810 2.093 1_556 S
C3617 C1019 2.065 . S
C3625 C210 2.102 . S
C3649 C1059 2.063 . S
C3657 C890 2.100 . S
C3681 C1099 2.086 . S
C3689 C290 2.101 . S
C3713 C655 0.965 . S
C3721 C1126 0.925 . S
C3745 C55 0.928 . S
C3753 C1166 0.941 . S
C3777 C1206 0.964 . S
C3785 C735 0.932 . S
C3809 C135 0.908 . S
C3817 C1246 0.943 . S
C3841 C179 2.235 . S
C3849 C6 2.209 . S
C3873 C219 2.221 . S
C3881 C46 2.215 . S
C3905 C86 2.202 . S
C3913 C259 2.231 . S
C3937 C299 2.224 . S
C3945 C126 2.209 . S
C3969 C490 2.238 . S
C3977 C335 2.215 . S
C4001 C375 2.209 . S
C4009 C530 2.231 . S
C4033 C415 2.195 . S
C4041 C570 2.233 . S
C4065 C610 2.232 . S
C4073 C455 2.206 . S
C4097 C646 2.206 . S
C4105 C819 2.238 . S
C4129 C859 2.226 . S
C4137 C686 2.208 . S
C4161 C726 2.210 . S
C4169 C899 2.231 . S
C4193 C766 2.195 . S
C4201 C939 2.235 . S
C4225 C1130 2.235 . S
C4233 C975 2.211 . S
C4257 C1170 2.231 . S
C4265 C1015 2.216 . S
C4289 C1055 2.195 . S
C4297 C1210 2.234 . S
C4321 C1250 2.229 . S
C4329 C1095 2.219 . S
