# Generated by pormake.
# Topology son, (6)-cn, num edge types: 1
# Building blocks:
#     Node 0, Type 0, BuildingBlock: BETDEL_clean_sbu_0, # of connection points: 6
#     Node 1, Type 0, BuildingBlock: BETDEL_clean_sbu_0, # of connection points: 6
#     Node 2, Type 0, BuildingBlock: BETDEL_clean_sbu_0, # of connection points: 6
#     Node 3, Type 0, BuildingBlock: BETDEL_clean_sbu_0, # of connection points: 6
#     Node 4, Type 0, BuildingBlock: BETDEL_clean_sbu_0, # of connection points: 6
#     Node 5, Type 0, BuildingBlock: BETDEL_clean_sbu_0, # of connection points: 6
#     Node 6, Type 0, BuildingBlock: BETDEL_clean_sbu_0, # of connection points: 6
#     Node 7, Type 0, BuildingBlock: BETDEL_clean_sbu_0, # of connection points: 6
#     Node 8, Type 0, BuildingBlock: BETDEL_clean_sbu_0, # of connection points: 6
#     Node 9, Type 0, BuildingBlock: BETDEL_clean_sbu_0, # of connection points: 6
#     Node 10, Type 0, BuildingBlock: BETDEL_clean_sbu_0, # of connection points: 6
#     Node 11, Type 0, BuildingBlock: BETDEL_clean_sbu_0, # of connection points: 6
#     Node 12, Type 0, BuildingBlock: BETDEL_clean_sbu_0, # of connection points: 6
#     Node 13, Type 0, BuildingBlock: BETDEL_clean_sbu_0, # of connection points: 6
#     Node 14, Type 0, BuildingBlock: BETDEL_clean_sbu_0, # of connection points: 6
#     Node 15, Type 0, BuildingBlock: BETDEL_clean_sbu_0, # of connection points: 6
#     Node 16, Type 0, BuildingBlock: BETDEL_clean_sbu_0, # of connection points: 6
#     Node 17, Type 0, BuildingBlock: BETDEL_clean_sbu_0, # of connection points: 6
#     Node 18, Type 0, BuildingBlock: BETDEL_clean_sbu_0, # of connection points: 6
#     Node 19, Type 0, BuildingBlock: BETDEL_clean_sbu_0, # of connection points: 6
#     Node 20, Type 0, BuildingBlock: BETDEL_clean_sbu_0, # of connection points: 6
#     Node 21, Type 0, BuildingBlock: BETDEL_clean_sbu_0, # of connection points: 6
#     Node 22, Type 0, BuildingBlock: BETDEL_clean_sbu_0, # of connection points: 6
#     Node 23, Type 0, BuildingBlock: BETDEL_clean_sbu_0, # of connection points: 6
#     Node 24, Type 0, BuildingBlock: BETDEL_clean_sbu_0, # of connection points: 6
#     Node 25, Type 0, BuildingBlock: BETDEL_clean_sbu_0, # of connection points: 6
#     Node 26, Type 0, BuildingBlock: BETDEL_clean_sbu_0, # of connection points: 6
#     Node 27, Type 0, BuildingBlock: BETDEL_clean_sbu_0, # of connection points: 6
#     Node 28, Type 0, BuildingBlock: BETDEL_clean_sbu_0, # of connection points: 6
#     Node 29, Type 0, BuildingBlock: BETDEL_clean_sbu_0, # of connection points: 6
#     Node 30, Type 0, BuildingBlock: BETDEL_clean_sbu_0, # of connection points: 6
#     Node 31, Type 0, BuildingBlock: BETDEL_clean_sbu_0, # of connection points: 6
#     Edge 32, Type (0, 0), BuildingBlock: XIVTED_clean_linker_0, # of connection points: 2
#     Edge 33, Type (0, 0), BuildingBlock: XIVTED_clean_linker_0, # of connection points: 2
#     Edge 34, Type (0, 0), BuildingBlock: XIVTED_clean_linker_0, # of connection points: 2
#     Edge 35, Type (0, 0), BuildingBlock: XIVTED_clean_linker_0, # of connection points: 2
#     Edge 36, Type (0, 0), BuildingBlock: XIVTED_clean_linker_0, # of connection points: 2
#     Edge 37, Type (0, 0), BuildingBlock: XIVTED_clean_linker_0, # of connection points: 2
#     Edge 38, Type (0, 0), BuildingBlock: XIVTED_clean_linker_0, # of connection points: 2
#     Edge 39, Type (0, 0), BuildingBlock: XIVTED_clean_linker_0, # of connection points: 2
#     Edge 40, Type (0, 0), BuildingBlock: XIVTED_clean_linker_0, # of connection points: 2
#     Edge 41, Type (0, 0), BuildingBlock: XIVTED_clean_linker_0, # of connection points: 2
#     Edge 42, Type (0, 0), BuildingBlock: XIVTED_clean_linker_0, # of connection points: 2
#     Edge 43, Type (0, 0), BuildingBlock: XIVTED_clean_linker_0, # of connection points: 2
#     Edge 44, Type (0, 0), BuildingBlock: XIVTED_clean_linker_0, # of connection points: 2
#     Edge 45, Type (0, 0), BuildingBlock: XIVTED_clean_linker_0, # of connection points: 2
#     Edge 46, Type (0, 0), BuildingBlock: XIVTED_clean_linker_0, # of connection points: 2
#     Edge 47, Type (0, 0), BuildingBlock: XIVTED_clean_linker_0, # of connection points: 2
#     Edge 48, Type (0, 0), BuildingBlock: XIVTED_clean_linker_0, # of connection points: 2
#     Edge 49, Type (0, 0), BuildingBlock: XIVTED_clean_linker_0, # of connection points: 2
#     Edge 50, Type (0, 0), BuildingBlock: XIVTED_clean_linker_0, # of connection points: 2
#     Edge 51, Type (0, 0), BuildingBlock: XIVTED_clean_linker_0, # of connection points: 2
#     Edge 52, Type (0, 0), BuildingBlock: XIVTED_clean_linker_0, # of connection points: 2
#     Edge 53, Type (0, 0), BuildingBlock: XIVTED_clean_linker_0, # of connection points: 2
#     Edge 54, Type (0, 0), BuildingBlock: XIVTED_clean_linker_0, # of connection points: 2
#     Edge 55, Type (0, 0), BuildingBlock: XIVTED_clean_linker_0, # of connection points: 2
#     Edge 56, Type (0, 0), BuildingBlock: XIVTED_clean_linker_0, # of connection points: 2
#     Edge 57, Type (0, 0), BuildingBlock: XIVTED_clean_linker_0, # of connection points: 2
#     Edge 58, Type (0, 0), BuildingBlock: XIVTED_clean_linker_0, # of connection points: 2
#     Edge 59, Type (0, 0), BuildingBlock: XIVTED_clean_linker_0, # of connection points: 2
#     Edge 60, Type (0, 0), BuildingBlock: XIVTED_clean_linker_0, # of connection points: 2
#     Edge 61, Type (0, 0), BuildingBlock: XIVTED_clean_linker_0, # of connection points: 2
#     Edge 62, Type (0, 0), BuildingBlock: XIVTED_clean_linker_0, # of connection points: 2
#     Edge 63, Type (0, 0), BuildingBlock: XIVTED_clean_linker_0, # of connection points: 2
#     Edge 64, Type (0, 0), BuildingBlock: XIVTED_clean_linker_0, # of connection points: 2
#     Edge 65, Type (0, 0), BuildingBlock: XIVTED_clean_linker_0, # of connection points: 2
#     Edge 66, Type (0, 0), BuildingBlock: XIVTED_clean_linker_0, # of connection points: 2
#     Edge 67, Type (0, 0), BuildingBlock: XIVTED_clean_linker_0, # of connection points: 2
#     Edge 68, Type (0, 0), BuildingBlock: XIVTED_clean_linker_0, # of connection points: 2
#     Edge 69, Type (0, 0), BuildingBlock: XIVTED_clean_linker_0, # of connection points: 2
#     Edge 70, Type (0, 0), BuildingBlock: XIVTED_clean_linker_0, # of connection points: 2
#     Edge 71, Type (0, 0), BuildingBlock: XIVTED_clean_linker_0, # of connection points: 2
#     Edge 72, Type (0, 0), BuildingBlock: XIVTED_clean_linker_0, # of connection points: 2
#     Edge 73, Type (0, 0), BuildingBlock: XIVTED_clean_linker_0, # of connection points: 2
#     Edge 74, Type (0, 0), BuildingBlock: XIVTED_clean_linker_0, # of connection points: 2
#     Edge 75, Type (0, 0), BuildingBlock: XIVTED_clean_linker_0, # of connection points: 2
#     Edge 76, Type (0, 0), BuildingBlock: XIVTED_clean_linker_0, # of connection points: 2
#     Edge 77, Type (0, 0), BuildingBlock: XIVTED_clean_linker_0, # of connection points: 2
#     Edge 78, Type (0, 0), BuildingBlock: XIVTED_clean_linker_0, # of connection points: 2
#     Edge 79, Type (0, 0), BuildingBlock: XIVTED_clean_linker_0, # of connection points: 2
#     Edge 80, Type (0, 0), BuildingBlock: XIVTED_clean_linker_0, # of connection points: 2
#     Edge 81, Type (0, 0), BuildingBlock: XIVTED_clean_linker_0, # of connection points: 2
#     Edge 82, Type (0, 0), BuildingBlock: XIVTED_clean_linker_0, # of connection points: 2
#     Edge 83, Type (0, 0), BuildingBlock: XIVTED_clean_linker_0, # of connection points: 2
#     Edge 84, Type (0, 0), BuildingBlock: XIVTED_clean_linker_0, # of connection points: 2
#     Edge 85, Type (0, 0), BuildingBlock: XIVTED_clean_linker_0, # of connection points: 2
#     Edge 86, Type (0, 0), BuildingBlock: XIVTED_clean_linker_0, # of connection points: 2
#     Edge 87, Type (0, 0), BuildingBlock: XIVTED_clean_linker_0, # of connection points: 2
#     Edge 88, Type (0, 0), BuildingBlock: XIVTED_clean_linker_0, # of connection points: 2
#     Edge 89, Type (0, 0), BuildingBlock: XIVTED_clean_linker_0, # of connection points: 2
#     Edge 90, Type (0, 0), BuildingBlock: XIVTED_clean_linker_0, # of connection points: 2
#     Edge 91, Type (0, 0), BuildingBlock: XIVTED_clean_linker_0, # of connection points: 2
#     Edge 92, Type (0, 0), BuildingBlock: XIVTED_clean_linker_0, # of connection points: 2
#     Edge 93, Type (0, 0), BuildingBlock: XIVTED_clean_linker_0, # of connection points: 2
#     Edge 94, Type (0, 0), BuildingBlock: XIVTED_clean_linker_0, # of connection points: 2
#     Edge 95, Type (0, 0), BuildingBlock: XIVTED_clean_linker_0, # of connection points: 2
#     Edge 96, Type (0, 0), BuildingBlock: XIVTED_clean_linker_0, # of connection points: 2
#     Edge 97, Type (0, 0), BuildingBlock: XIVTED_clean_linker_0, # of connection points: 2
#     Edge 98, Type (0, 0), BuildingBlock: XIVTED_clean_linker_0, # of connection points: 2
#     Edge 99, Type (0, 0), BuildingBlock: XIVTED_clean_linker_0, # of connection points: 2
#     Edge 100, Type (0, 0), BuildingBlock: XIVTED_clean_linker_0, # of connection points: 2
#     Edge 101, Type (0, 0), BuildingBlock: XIVTED_clean_linker_0, # of connection points: 2
#     Edge 102, Type (0, 0), BuildingBlock: XIVTED_clean_linker_0, # of connection points: 2
#     Edge 103, Type (0, 0), BuildingBlock: XIVTED_clean_linker_0, # of connection points: 2
#     Edge 104, Type (0, 0), BuildingBlock: XIVTED_clean_linker_0, # of connection points: 2
#     Edge 105, Type (0, 0), BuildingBlock: XIVTED_clean_linker_0, # of connection points: 2
#     Edge 106, Type (0, 0), BuildingBlock: XIVTED_clean_linker_0, # of connection points: 2
#     Edge 107, Type (0, 0), BuildingBlock: XIVTED_clean_linker_0, # of connection points: 2
#     Edge 108, Type (0, 0), BuildingBlock: XIVTED_clean_linker_0, # of connection points: 2
#     Edge 109, Type (0, 0), BuildingBlock: XIVTED_clean_linker_0, # of connection points: 2
#     Edge 110, Type (0, 0), BuildingBlock: XIVTED_clean_linker_0, # of connection points: 2
#     Edge 111, Type (0, 0), BuildingBlock: XIVTED_clean_linker_0, # of connection points: 2
#     Edge 112, Type (0, 0), BuildingBlock: XIVTED_clean_linker_0, # of connection points: 2
#     Edge 113, Type (0, 0), BuildingBlock: XIVTED_clean_linker_0, # of connection points: 2
#     Edge 114, Type (0, 0), BuildingBlock: XIVTED_clean_linker_0, # of connection points: 2
#     Edge 115, Type (0, 0), BuildingBlock: XIVTED_clean_linker_0, # of connection points: 2
#     Edge 116, Type (0, 0), BuildingBlock: XIVTED_clean_linker_0, # of connection points: 2
#     Edge 117, Type (0, 0), BuildingBlock: XIVTED_clean_linker_0, # of connection points: 2
#     Edge 118, Type (0, 0), BuildingBlock: XIVTED_clean_linker_0, # of connection points: 2
#     Edge 119, Type (0, 0), BuildingBlock: XIVTED_clean_linker_0, # of connection points: 2
#     Edge 120, Type (0, 0), BuildingBlock: XIVTED_clean_linker_0, # of connection points: 2
#     Edge 121, Type (0, 0), BuildingBlock: XIVTED_clean_linker_0, # of connection points: 2
#     Edge 122, Type (0, 0), BuildingBlock: XIVTED_clean_linker_0, # of connection points: 2
#     Edge 123, Type (0, 0), BuildingBlock: XIVTED_clean_linker_0, # of connection points: 2
#     Edge 124, Type (0, 0), BuildingBlock: XIVTED_clean_linker_0, # of connection points: 2
#     Edge 125, Type (0, 0), BuildingBlock: XIVTED_clean_linker_0, # of connection points: 2
#     Edge 126, Type (0, 0), BuildingBlock: XIVTED_clean_linker_0, # of connection points: 2
#     Edge 127, Type (0, 0), BuildingBlock: XIVTED_clean_linker_0, # of connection points: 2
# Relax obj value: 0.080
# Max RMSD: 0.119
# Mean RMSD: 0.119
data_MOF--net-son--node1-BETDEL_clean_sbu_0--edge1-XIVTED_clean_linker_0
_symmetry_space_group_name_H-M    P1
_symmetry_Int_Tables_number       1
_symmetry_cell_setting            triclinic
loop_
_symmetry_equiv_pos_as_xyz
'x, y, z'
_cell_length_a     109.64041
_cell_length_b     54.978265
_cell_length_c     18.142916
_cell_angle_alpha  89.943018
_cell_angle_beta   90.013775
_cell_angle_gamma 90.147886
loop_
_atom_site_label
_atom_site_type_symbol
_atom_site_fract_x
_atom_site_fract_y
_atom_site_fract_z
_atom_type_partial_charge
Dy0 Dy 0.30853 0.266 0.14285 0.0
C1 C 0.29633 0.27315 0.44772 0.0
C2 C 0.3083 0.27029 0.99347 0.0
Dy3 Dy 0.29852 0.2604 0.3036 0.0
O4 O 0.30084 0.28089 0.03844 0.0
O5 O 0.31628 0.25749 0.0301 0.0
O6 O 0.31671 0.30177 0.17762 0.0
O7 O 0.3003 0.2903 0.22547 0.0
C8 C 0.30847 0.30652 0.22676 0.0
C9 C 0.30228 0.21582 0.24633 0.0
O10 O 0.28111 0.26554 0.23975 0.0
O11 O 0.28978 0.25096 0.13202 0.0
O12 O 0.28862 0.25921 0.41265 0.0
O13 O 0.30476 0.28076 0.4031 0.0
O14 O 0.29793 0.21938 0.31219 0.0
O15 O 0.30415 0.23626 0.21661 0.0
O16 O 0.32555 0.25214 0.1933 0.0
O17 O 0.31902 0.26029 0.31306 0.0
C18 C 0.28013 0.25709 0.17136 0.0
C19 C 0.32763 0.2542 0.26499 0.0
Dy20 Dy 0.92988 1.00309 0.14953 0.0
C21 C 0.94423 0.99915 0.4571 0.0
C22 C 0.92785 1.00017 0.99971 0.0
Dy23 Dy 0.94051 1.00928 0.31152 0.0
O24 O 0.93175 0.983 0.04268 0.0
O25 O 0.92463 0.01896 0.03886 0.0
O26 O 0.9221 0.96747 0.18699 0.0
O27 O 0.93871 0.97954 0.23235 0.0
C28 C 0.93065 0.96304 0.23473 0.0
C29 C 0.93574 0.05322 0.25166 0.0
O30 O 0.95804 1.00596 0.24814 0.0
O31 O 0.94917 0.01438 0.13386 0.0
O32 O 0.94965 0.01649 0.42057 0.0
O33 O 0.93731 0.98663 0.41294 0.0
O34 O 0.94019 0.05039 0.31751 0.0
O35 O 0.9342 0.03242 0.22396 0.0
O36 O 0.91288 0.01506 0.20446 0.0
O37 O 0.92009 1.00765 0.32374 0.0
C38 C 0.95879 0.01185 0.17714 0.0
C39 C 0.91117 0.01282 0.27656 0.0
Dy40 Dy 0.31028 0.99848 0.12305 0.0
C41 C 0.29595 0.99396 0.81594 0.0
C42 C 0.31304 0.9988 0.27316 0.0
Dy43 Dy 0.2988 1.00456 0.96208 0.0
O44 O 0.31283 0.97948 0.23206 0.0
O45 O 0.31233 0.01806 0.23173 0.0
O46 O 0.31932 0.96447 0.08202 0.0
O47 O 0.30225 0.97473 0.03875 0.0
C48 C 0.31085 0.95951 0.03393 0.0
C49 C 0.30182 0.04843 0.02613 0.0
O50 O 0.28147 0.99739 0.02467 0.0
O51 O 0.29027 0.99847 0.14246 0.0
O52 O 0.28986 1.01054 0.8515 0.0
O53 O 0.30309 0.98246 0.86127 0.0
O54 O 0.29731 0.04554 0.96038 0.0
O55 O 0.30428 0.02767 0.05191 0.0
O56 O 0.32638 0.01454 0.0671 0.0
O57 O 0.31914 1.00738 0.94783 0.0
C58 C 0.28072 0.99707 0.09796 0.0
C59 C 0.32792 0.01371 0.99462 0.0
Dy60 Dy 0.92784 0.26793 0.11808 0.0
C61 C 0.94263 0.27273 0.81089 0.0
C62 C 0.92553 0.27033 0.26811 0.0
Dy63 Dy 0.93916 0.26241 0.95682 0.0
O64 O 0.92862 0.28823 0.2253 0.0
O65 O 0.9232 0.25108 0.22858 0.0
O66 O 0.91963 0.303 0.0793 0.0
O67 O 0.9365 0.29188 0.03575 0.0
C68 C 0.92822 0.30782 0.03209 0.0
C69 C 0.93504 0.21827 0.01733 0.0
O70 O 0.95644 0.26774 0.0219 0.0
O71 O 0.94743 0.25943 0.13594 0.0
O72 O 0.94836 0.25587 0.84748 0.0
O73 O 0.93555 0.28475 0.85524 0.0
O74 O 0.9397 0.22131 0.95206 0.0
O75 O 0.93302 0.23899 0.04429 0.0
O76 O 0.91123 0.25454 0.06117 0.0
O77 O 0.91876 0.26224 0.94268 0.0
C78 C 0.95712 0.26264 0.09358 0.0
C79 C 0.90976 0.25646 0.98875 0.0
Dy80 Dy 0.68844 0.76032 0.70901 0.0
C81 C 0.67991 0.75266 0.02052 0.0
C82 C 0.69097 0.74726 0.56566 0.0
Dy83 Dy 0.67882 0.75527 0.87127 0.0
O84 O 0.69844 0.76174 0.60054 0.0
O85 O 0.68259 0.7393 0.6101 0.0
O86 O 0.68802 0.80127 0.69737 0.0
O87 O 0.68228 0.78459 0.79417 0.0
C88 C 0.68363 0.80494 0.76304 0.0
C89 C 0.68034 0.71372 0.79253 0.0
O90 O 0.66136 0.76651 0.81968 0.0
O91 O 0.66805 0.75736 0.70091 0.0
O92 O 0.68777 0.74351 0.97526 0.0
O93 O 0.67105 0.76313 0.98442 0.0
O94 O 0.67223 0.71751 0.84326 0.0
O95 O 0.6877 0.73136 0.79065 0.0
O96 O 0.70591 0.75665 0.77302 0.0
O97 O 0.69708 0.77278 0.87793 0.0
C98 C 0.65932 0.76332 0.74828 0.0
C99 C 0.70681 0.76612 0.84019 0.0
Dy100 Dy 0.048 0.0159 0.70749 0.0
C101 C 0.06138 0.02161 0.01199 0.0
C102 C 0.0451 0.01959 0.55744 0.0
Dy103 Dy 0.05862 0.02141 0.86139 0.0
O104 O 0.04399 0.99979 0.59584 0.0
O105 O 0.04721 0.03772 0.60162 0.0
O106 O 0.0397 0.98026 0.73685 0.0
O107 O 0.05645 0.99045 0.78587 0.0
C108 C 0.04802 0.97458 0.78492 0.0
C109 C 0.05826 0.06219 0.77938 0.0
O110 O 0.07593 1.01015 0.80877 0.0
O111 O 0.06839 0.0163 0.69053 0.0
O112 O 0.05985 0.04065 0.97081 0.0
O113 O 0.06195 1.00239 0.97042 0.0
O114 O 0.06698 0.05679 0.82501 0.0
O115 O 0.04991 0.04634 0.78269 0.0
O116 O 0.03056 0.02466 0.76667 0.0
O117 O 0.03889 0.01445 0.88011 0.0
C118 C 0.07753 0.01186 0.73663 0.0
C119 C 0.02943 0.01923 0.83766 0.0
Dy120 Dy 0.68924 0.0155 0.04694 0.0
C121 C 0.67579 0.02295 0.73513 0.0
C122 C 0.69284 0.02592 0.19254 0.0
Dy123 Dy 0.678 0.02059 0.88523 0.0
O124 O 0.69852 1.009 0.15602 0.0
O125 O 0.68575 0.03798 0.14822 0.0
O126 O 0.68955 0.97438 0.05327 0.0
O127 O 0.68301 0.9919 0.96035 0.0
C128 C 0.6849 0.97123 0.98807 0.0
C129 C 0.67873 0.06088 0.96938 0.0
O130 O 0.66136 1.00749 0.94246 0.0
O131 O 0.66885 0.01577 0.06064 0.0
O132 O 0.67892 0.04081 0.77785 0.0
O133 O 0.67339 1.00374 0.77476 0.0
O134 O 0.67006 0.05604 0.9227 0.0
O135 O 0.68687 0.04465 0.96634 0.0
O136 O 0.70653 0.02028 0.98201 0.0
O137 O 0.69751 0.01126 0.86846 0.0
C138 C 0.65988 1.00966 0.0148 0.0
C139 C 0.70719 0.01462 0.91081 0.0
Dy140 Dy 0.04787 0.76156 0.05142 0.0
C141 C 0.06106 0.75639 0.74681 0.0
C142 C 0.04502 0.75779 0.20139 0.0
Dy143 Dy 0.05841 0.7566 0.89731 0.0
O144 O 0.04464 0.77781 0.16362 0.0
O145 O 0.04639 0.73954 0.15666 0.0
O146 O 0.03916 0.79675 0.02214 0.0
O147 O 0.05599 0.78744 0.9729 0.0
C148 C 0.04741 0.8029 0.97409 0.0
C149 C 0.0587 0.71588 0.97947 0.0
O150 O 0.07564 0.76856 0.94953 0.0
O151 O 0.06828 0.76162 0.06779 0.0
O152 O 0.05878 0.73753 0.78753 0.0
O153 O 0.06242 0.77539 0.78876 0.0
O154 O 0.06728 0.72175 0.93331 0.0
O155 O 0.05015 0.73119 0.97641 0.0
O156 O 0.03048 0.75211 0.99246 0.0
O157 O 0.03864 0.76309 0.87923 0.0
C158 C 0.07732 0.76669 0.02153 0.0
C159 C 0.02925 0.75763 0.92161 0.0
Dy160 Dy 0.31014 0.76692 0.64137 0.0
C161 C 0.29583 0.77198 0.94826 0.0
C162 C 0.31284 0.76593 0.49118 0.0
Dy163 Dy 0.29868 0.76119 0.80224 0.0
O164 O 0.31354 0.78526 0.53204 0.0
O165 O 0.31127 0.74694 0.53291 0.0
O166 O 0.31893 0.80152 0.68095 0.0
O167 O 0.30196 0.79077 0.72454 0.0
C168 C 0.31043 0.80636 0.72882 0.0
C169 C 0.30192 0.71702 0.74062 0.0
O170 O 0.28136 0.76841 0.73949 0.0
O171 O 0.29014 0.76747 0.62172 0.0
O172 O 0.28959 0.75557 0.91257 0.0
O173 O 0.30311 0.78322 0.90308 0.0
O174 O 0.29731 0.72025 0.80591 0.0
O175 O 0.30432 0.73768 0.71351 0.0
O176 O 0.32633 0.75165 0.69785 0.0
O177 O 0.31905 0.75945 0.81655 0.0
C178 C 0.28061 0.76893 0.66621 0.0
C179 C 0.32788 0.75316 0.77019 0.0
Dy180 Dy 0.92765 0.49994 0.63651 0.0
C181 C 0.94178 0.49615 0.94368 0.0
C182 C 0.92495 0.50046 0.48641 0.0
Dy183 Dy 0.93873 0.50668 0.79769 0.0
O184 O 0.92488 0.48111 0.52748 0.0
O185 O 0.92592 0.51964 0.52784 0.0
O186 O 0.91929 0.46498 0.67653 0.0
O187 O 0.93606 0.4767 0.72067 0.0
C188 C 0.9278 0.46067 0.72483 0.0
C189 C 0.93501 0.55048 0.73464 0.0
O190 O 0.95627 0.50079 0.73581 0.0
O191 O 0.94766 0.50087 0.6175 0.0
O192 O 0.9477 0.51302 0.90794 0.0
O193 O 0.93469 0.48438 0.89863 0.0
O194 O 0.93952 0.5477 0.80043 0.0
O195 O 0.93293 0.52965 0.70807 0.0
O196 O 0.91115 0.51437 0.69163 0.0
O197 O 0.91829 0.5075 0.81122 0.0
C198 C 0.95715 0.50025 0.66258 0.0
C199 C 0.90946 0.51309 0.76391 0.0
Dy200 Dy 0.30911 0.49973 0.61666 0.0
C201 C 0.29487 0.49563 0.30966 0.0
C202 C 0.31185 0.50024 0.76678 0.0
Dy203 Dy 0.29796 0.50617 0.45567 0.0
O204 O 0.31167 0.48088 0.72588 0.0
O205 O 0.31111 0.51945 0.72516 0.0
O206 O 0.31737 0.46473 0.57718 0.0
O207 O 0.30058 0.47629 0.53324 0.0
C208 C 0.30881 0.46027 0.52925 0.0
C209 C 0.30189 0.55013 0.51727 0.0
O210 O 0.28042 0.50056 0.51801 0.0
O211 O 0.28912 0.50121 0.63599 0.0
O212 O 0.28901 0.51252 0.34533 0.0
O213 O 0.30189 0.4838 0.35486 0.0
O214 O 0.29736 0.54716 0.45164 0.0
O215 O 0.30392 0.52937 0.54455 0.0
O216 O 0.32566 0.51387 0.56086 0.0
O217 O 0.31837 0.50666 0.44179 0.0
C218 C 0.27959 0.50045 0.59129 0.0
C219 C 0.32728 0.51229 0.48858 0.0
Dy220 Dy 0.92895 0.76767 0.61582 0.0
C221 C 0.94317 0.77199 0.30829 0.0
C222 C 0.92702 0.77009 0.76568 0.0
Dy223 Dy 0.93936 0.76154 0.45352 0.0
O224 O 0.93122 0.78719 0.72337 0.0
O225 O 0.92346 0.75166 0.72586 0.0
O226 O 0.92168 0.80386 0.57968 0.0
O227 O 0.93804 0.79106 0.53353 0.0
C228 C 0.93025 0.80799 0.53178 0.0
C229 C 0.93436 0.71755 0.5128 0.0
O230 O 0.95694 0.76475 0.51653 0.0
O231 O 0.94816 0.75583 0.63068 0.0
O232 O 0.94833 0.75426 0.34413 0.0
O233 O 0.93643 0.78466 0.35289 0.0
O234 O 0.93878 0.72045 0.44688 0.0
O235 O 0.93294 0.73832 0.54085 0.0
O236 O 0.91175 0.7567 0.56106 0.0
O237 O 0.91896 0.76413 0.44182 0.0
C238 C 0.95775 0.75862 0.58732 0.0
C239 C 0.91 0.75929 0.48911 0.0
Dy240 Dy 0.69163 0.26341 0.17756 0.0
C241 C 0.67859 0.25523 0.48947 0.0
C242 C 0.69523 0.25308 0.03204 0.0
Dy243 Dy 0.68065 0.25804 0.33957 0.0
O244 O 0.70092 0.27004 0.06863 0.0
O245 O 0.68809 0.241 0.07614 0.0
O246 O 0.69225 0.30455 0.17213 0.0
O247 O 0.68563 0.28689 0.26472 0.0
C248 C 0.68767 0.3076 0.23756 0.0
C249 C 0.681 0.21795 0.25452 0.0
O250 O 0.66392 0.27099 0.28375 0.0
O251 O 0.67116 0.2632 0.16473 0.0
O252 O 0.68208 0.23775 0.44648 0.0
O253 O 0.67578 0.2743 0.45026 0.0
O254 O 0.67245 0.22277 0.30185 0.0
O255 O 0.68924 0.23405 0.2575 0.0
O256 O 0.70895 0.25809 0.24219 0.0
O257 O 0.70016 0.2677 0.35572 0.0
C258 C 0.66226 0.26885 0.21156 0.0
C259 C 0.70976 0.26389 0.31327 0.0
Dy260 Dy 0.04733 0.51586 0.2039 0.0
C261 C 0.06137 0.5202 0.51521 0.0
C262 C 0.04431 0.52643 0.05786 0.0
Dy263 Dy 0.05877 0.52178 0.36501 0.0
O264 O 0.03796 0.51037 0.09439 0.0
O265 O 0.0518 0.53748 0.10224 0.0
O266 O 0.04627 0.47484 0.20052 0.0
O267 O 0.05318 0.49255 0.29253 0.0
C268 C 0.05093 0.47182 0.26581 0.0
C269 C 0.05876 0.56125 0.27747 0.0
O270 O 0.07492 0.50632 0.30834 0.0
O271 O 0.06772 0.51461 0.18969 0.0
O272 O 0.06373 0.53897 0.47398 0.0
O273 O 0.05819 0.50199 0.47385 0.0
O274 O 0.06725 0.55675 0.32576 0.0
O275 O 0.05042 0.54541 0.28182 0.0
O276 O 0.02996 0.52249 0.26686 0.0
O277 O 0.03876 0.52341 0.38468 0.0
C278 C 0.07654 0.50814 0.23605 0.0
C279 C 0.02921 0.52386 0.34006 0.0
Dy280 Dy 0.69316 0.51015 0.57034 0.0
C281 C 0.67806 0.52059 0.25567 0.0
C282 C 0.69708 0.51277 0.71828 0.0
Dy283 Dy 0.68166 0.52097 0.40401 0.0
O284 O 0.69486 0.49306 0.68147 0.0
O285 O 0.6977 0.5313 0.67352 0.0
O286 O 0.69455 0.4695 0.55663 0.0
O287 O 0.6881 0.49097 0.47135 0.0
C288 C 0.69015 0.46924 0.49006 0.0
C289 C 0.6836 0.56109 0.49054 0.0
O290 O 0.66475 0.51038 0.46298 0.0
O291 O 0.67272 0.51221 0.58359 0.0
O292 O 0.68133 0.53932 0.2943 0.0
O293 O 0.67624 0.50191 0.29869 0.0
O294 O 0.67903 0.56157 0.42443 0.0
O295 O 0.68656 0.53949 0.50355 0.0
O296 O 0.71044 0.51751 0.50745 0.0
O297 O 0.70173 0.51758 0.38844 0.0
C298 C 0.66351 0.50994 0.53596 0.0
C299 C 0.71118 0.51833 0.43405 0.0
Dy300 Dy 0.04785 0.26248 0.5596 0.0
C301 C 0.06142 0.25529 0.24774 0.0
C302 C 0.04436 0.25174 0.70516 0.0
Dy303 Dy 0.05915 0.25728 0.39776 0.0
O304 O 0.03882 0.26904 0.66939 0.0
O305 O 0.05125 0.23954 0.66018 0.0
O306 O 0.04738 0.30362 0.56469 0.0
O307 O 0.05401 0.28592 0.47243 0.0
C308 C 0.05201 0.30664 0.49933 0.0
C309 C 0.05865 0.21724 0.48311 0.0
O310 O 0.07577 0.27041 0.45525 0.0
O311 O 0.06826 0.26251 0.57371 0.0
O312 O 0.05809 0.23741 0.28995 0.0
O313 O 0.06402 0.27427 0.28788 0.0
O314 O 0.06725 0.22198 0.43583 0.0
O315 O 0.05045 0.23331 0.4796 0.0
O316 O 0.03056 0.25741 0.49433 0.0
O317 O 0.03958 0.26614 0.38052 0.0
C318 C 0.07726 0.26833 0.52766 0.0
C319 C 0.02989 0.26277 0.4228 0.0
Dy320 Dy 0.80805 0.26565 0.64058 0.0
C321 C 0.79309 0.27066 0.94791 0.0
C322 C 0.81018 0.26787 0.49052 0.0
Dy323 Dy 0.79668 0.26015 0.80238 0.0
O324 O 0.80655 0.28544 0.53277 0.0
O325 O 0.81314 0.24909 0.53062 0.0
O326 O 0.81595 0.30121 0.67811 0.0
O327 O 0.79921 0.28939 0.72222 0.0
C328 C 0.80734 0.30571 0.72537 0.0
C329 C 0.80106 0.21613 0.74214 0.0
O330 O 0.77947 0.2652 0.73668 0.0
O331 O 0.78855 0.25584 0.62365 0.0
O332 O 0.78766 0.25319 0.91207 0.0
O333 O 0.79992 0.28312 0.90302 0.0
O334 O 0.79633 0.21896 0.80729 0.0
O335 O 0.80298 0.23693 0.71544 0.0
O336 O 0.82471 0.25307 0.69834 0.0
O337 O 0.81709 0.26076 0.81659 0.0
C338 C 0.77884 0.25949 0.66545 0.0
C339 C 0.82614 0.25521 0.77076 0.0
Dy340 Dy 0.42811 1.00302 0.64165 0.0
C341 C 0.44256 0.99844 0.94893 0.0
C342 C 0.4254 1.00366 0.49152 0.0
Dy343 Dy 0.43969 1.0091 0.80282 0.0
O344 O 0.42512 0.98431 0.5326 0.0
O345 O 0.42655 0.02281 0.533 0.0
O346 O 0.41922 0.96864 0.68255 0.0
O347 O 0.43621 0.97946 0.7258 0.0
C348 C 0.42771 0.96399 0.73075 0.0
C349 C 0.43664 0.05292 0.73855 0.0
O350 O 0.45694 1.00151 0.74009 0.0
O351 O 0.44812 1.00247 0.62229 0.0
O352 O 0.44873 0.01496 0.91319 0.0
O353 O 0.43533 0.98706 0.9038 0.0
O354 O 0.44119 0.05009 0.80421 0.0
O355 O 0.43416 0.03215 0.71296 0.0
O356 O 0.41201 0.01866 0.69814 0.0
O357 O 0.41934 0.01139 0.81721 0.0
C358 C 0.45766 1.00093 0.66681 0.0
C359 C 0.41051 0.01758 0.77063 0.0
Dy360 Dy 0.80752 1.00224 0.60598 0.0
C361 C 0.79348 0.99804 0.29781 0.0
C362 C 0.80942 1.00037 0.75576 0.0
Dy363 Dy 0.79719 1.00826 0.44303 0.0
O364 O 0.80533 0.98305 0.71405 0.0
O365 O 0.81288 0.01877 0.71544 0.0
O366 O 0.81441 0.96549 0.57309 0.0
O367 O 0.79841 0.97886 0.52385 0.0
C368 C 0.80601 0.96156 0.52395 0.0
C369 C 0.80215 0.05217 0.50253 0.0
O370 O 0.77959 1.00485 0.50582 0.0
O371 O 0.78829 0.01397 0.62007 0.0
O372 O 0.78791 0.01512 0.33423 0.0
O373 O 0.80062 0.98597 0.3417 0.0
O374 O 0.79775 0.0494 0.43653 0.0
O375 O 0.80355 0.03135 0.53022 0.0
O376 O 0.82474 0.01309 0.55102 0.0
O377 O 0.81757 1.00578 0.43164 0.0
C378 C 0.77873 1.01104 0.57652 0.0
C379 C 0.82649 1.01073 0.47902 0.0
Dy380 Dy 0.42956 0.26846 0.60383 0.0
C381 C 0.4438 0.27301 0.29686 0.0
C382 C 0.427 0.26681 0.75402 0.0
Dy383 Dy 0.44077 0.26244 0.44288 0.0
O384 O 0.42457 0.28553 0.71282 0.0
O385 O 0.43025 0.2487 0.71265 0.0
O386 O 0.42107 0.30333 0.56501 0.0
O387 O 0.43787 0.29221 0.52034 0.0
C388 C 0.42952 0.30798 0.51658 0.0
C389 C 0.43722 0.21836 0.50487 0.0
O390 O 0.45824 0.26904 0.50513 0.0
O391 O 0.44956 0.27027 0.62317 0.0
O392 O 0.45014 0.25701 0.33344 0.0
O393 O 0.4363 0.28397 0.34115 0.0
O394 O 0.44178 0.22144 0.43935 0.0
O395 O 0.435 0.23907 0.53175 0.0
O396 O 0.41334 0.25284 0.54798 0.0
O397 O 0.42036 0.26116 0.42903 0.0
C398 C 0.45907 0.27058 0.57825 0.0
C399 C 0.4116 0.25467 0.47582 0.0
Dy400 Dy 0.18976 0.76113 0.20806 0.0
C401 C 0.17571 0.75625 0.51932 0.0
C402 C 0.19262 0.75041 0.06207 0.0
Dy403 Dy 0.17841 0.75544 0.36924 0.0
O404 O 0.19886 0.76681 0.09779 0.0
O405 O 0.18533 0.73915 0.10716 0.0
O406 O 0.19122 0.80209 0.2047 0.0
O407 O 0.18429 0.78463 0.29717 0.0
C408 C 0.18671 0.80529 0.27026 0.0
C409 C 0.17782 0.71617 0.28112 0.0
O410 O 0.16222 0.77082 0.31317 0.0
O411 O 0.16939 0.76303 0.19417 0.0
O412 O 0.17527 0.7369 0.47844 0.0
O413 O 0.17704 0.77534 0.47768 0.0
O414 O 0.16938 0.72114 0.3293 0.0
O415 O 0.18639 0.73152 0.28559 0.0
O416 O 0.2071 0.75366 0.27035 0.0
O417 O 0.19842 0.75479 0.38837 0.0
C418 C 0.16059 0.76928 0.24088 0.0
C419 C 0.20791 0.75317 0.3436 0.0
Dy420 Dy 0.54733 0.01177 0.20274 0.0
C421 C 0.56174 0.01872 0.51392 0.0
C422 C 0.54431 0.02187 0.05636 0.0
Dy423 Dy 0.55897 0.01872 0.36391 0.0
O424 O 0.53854 1.00481 0.09221 0.0
O425 O 0.5512 0.03405 0.1015 0.0
O426 O 0.5461 0.97064 0.2037 0.0
O427 O 0.55303 0.98937 0.29354 0.0
C428 C 0.55065 0.96836 0.26961 0.0
C429 C 0.55916 0.05741 0.27346 0.0
O430 O 0.57524 1.00393 0.30688 0.0
O431 O 0.56766 1.01014 0.18775 0.0
O432 O 0.56089 0.03799 0.47278 0.0
O433 O 0.56168 0.9994 0.47257 0.0
O434 O 0.56763 0.05314 0.32211 0.0
O435 O 0.55073 0.04177 0.27894 0.0
O436 O 0.53006 0.01897 0.26554 0.0
O437 O 0.53894 0.0179 0.38319 0.0
C438 C 0.57663 1.00476 0.23422 0.0
C439 C 0.52937 0.01928 0.33885 0.0
Dy440 Dy 0.19085 0.01587 0.55809 0.0
C441 C 0.17685 0.0217 0.24705 0.0
C442 C 0.194 0.02615 0.70424 0.0
Dy443 Dy 0.1796 0.0223 0.39724 0.0
O444 O 0.20006 1.00972 0.66777 0.0
O445 O 0.18675 0.0377 0.65975 0.0
O446 O 0.19152 0.97486 0.56177 0.0
O447 O 0.18487 0.99267 0.46921 0.0
C448 C 0.18695 0.9719 0.49624 0.0
C449 C 0.17992 0.06174 0.48485 0.0
O450 O 0.16314 1.00786 0.45344 0.0
O451 O 0.17047 0.01537 0.57226 0.0
O452 O 0.17605 0.04087 0.28849 0.0
O453 O 0.17856 1.00264 0.28819 0.0
O454 O 0.17136 0.05729 0.43695 0.0
O455 O 0.18816 0.04574 0.4805 0.0
O456 O 0.20834 0.02181 0.49563 0.0
O457 O 0.19959 0.02189 0.37772 0.0
C458 C 0.16156 1.00956 0.52573 0.0
C459 C 0.20914 0.02243 0.42238 0.0
Dy460 Dy 0.54583 0.75946 0.57044 0.0
C461 C 0.55999 0.75381 0.2592 0.0
C462 C 0.54275 0.74892 0.71655 0.0
Dy463 Dy 0.55729 0.75323 0.40939 0.0
O464 O 0.53687 0.7658 0.68076 0.0
O465 O 0.54977 0.73712 0.67142 0.0
O466 O 0.54488 0.80059 0.57234 0.0
O467 O 0.55175 0.78248 0.4813 0.0
C468 C 0.54951 0.80334 0.50684 0.0
C469 C 0.55728 0.71392 0.49736 0.0
O470 O 0.57365 0.76776 0.46658 0.0
O471 O 0.56619 0.76055 0.58539 0.0
O472 O 0.56005 0.73445 0.30025 0.0
O473 O 0.55907 0.77296 0.30073 0.0
O474 O 0.56579 0.71858 0.44926 0.0
O475 O 0.54889 0.72963 0.49299 0.0
O476 O 0.52843 0.75323 0.50763 0.0
O477 O 0.53729 0.75382 0.38997 0.0
C478 C 0.57514 0.76626 0.53907 0.0
C479 C 0.52772 0.7529 0.43435 0.0
Dy480 Dy 0.80704 0.76654 0.1457 0.0
C481 C 0.79269 0.75838 0.46002 0.0
C482 C 0.80978 0.76813 0.99762 0.0
Dy483 Dy 0.79634 0.756 0.31239 0.0
O484 O 0.80326 0.783 0.03642 0.0
O485 O 0.81512 0.75215 0.04002 0.0
O486 O 0.80841 0.80773 0.16181 0.0
O487 O 0.80184 0.78568 0.24359 0.0
C488 C 0.80406 0.80746 0.22832 0.0
C489 C 0.79993 0.71448 0.23616 0.0
O490 O 0.77889 0.76121 0.24952 0.0
O491 O 0.78763 0.75512 0.13281 0.0
O492 O 0.79671 0.73966 0.42438 0.0
O493 O 0.79017 0.77603 0.41439 0.0
O494 O 0.79546 0.71521 0.30242 0.0
O495 O 0.80176 0.7361 0.21522 0.0
O496 O 0.82439 0.7584 0.20306 0.0
O497 O 0.81665 0.7614 0.32376 0.0
C498 C 0.77807 0.7573 0.17716 0.0
C499 C 0.82581 0.75926 0.27581 0.0
Dy500 Dy 0.42979 0.50524 0.14521 0.0
C501 C 0.44317 0.50663 0.44907 0.0
C502 C 0.42716 0.50517 0.99463 0.0
Dy503 Dy 0.44028 0.51017 0.29901 0.0
O504 O 0.42942 0.4863 0.03524 0.0
O505 O 0.42581 0.52411 0.03674 0.0
O506 O 0.421 0.47015 0.18004 0.0
O507 O 0.43811 0.47974 0.22391 0.0
C508 C 0.42957 0.46426 0.22612 0.0
C509 C 0.44065 0.55168 0.22205 0.0
O510 O 0.4577 0.50102 0.2401 0.0
O511 O 0.44954 0.51205 0.12705 0.0
O512 O 0.4434 0.52662 0.41112 0.0
O513 O 0.44193 0.48829 0.40446 0.0
O514 O 0.44896 0.5455 0.26964 0.0
O515 O 0.43209 0.5361 0.22111 0.0
O516 O 0.41246 0.51648 0.19749 0.0
O517 O 0.41987 0.50944 0.31551 0.0
C518 C 0.45894 0.50664 0.16932 0.0
C519 C 0.41079 0.51429 0.26941 0.0
Dy520 Dy 0.80769 0.50069 0.10559 0.0
C521 C 0.79365 0.49401 0.79843 0.0
C522 C 0.81008 0.50352 0.25567 0.0
Dy523 Dy 0.79656 0.50525 0.94399 0.0
O524 O 0.81312 0.48491 0.21565 0.0
O525 O 0.80632 0.52097 0.21316 0.0
O526 O 0.81633 0.46563 0.06997 0.0
O527 O 0.79954 0.47615 0.02377 0.0
C528 C 0.80795 0.46048 0.02159 0.0
C529 C 0.79996 0.54987 1.00226 0.0
O530 O 0.77909 0.49846 0.00627 0.0
O531 O 0.78771 0.49811 0.12462 0.0
O532 O 0.7872 0.50999 0.83422 0.0
O533 O 0.80119 0.48338 0.84333 0.0
O534 O 0.79533 0.54618 0.93723 0.0
O535 O 0.80223 0.52944 0.03093 0.0
O536 O 0.82386 0.51624 0.04916 0.0
O537 O 0.81699 0.50661 0.93085 0.0
C538 C 0.77825 0.49722 0.07943 0.0
C539 C 0.82568 0.51371 0.97731 0.0
Dy540 Dy 0.42881 0.77083 0.12044 0.0
C541 C 0.4426 0.76927 0.81636 0.0
C542 C 0.42613 0.76761 0.27074 0.0
Dy543 Dy 0.43991 0.76565 0.96657 0.0
O544 O 0.42884 0.74967 0.22723 0.0
O545 O 0.42428 0.78705 0.23154 0.0
O546 O 0.4194 0.80501 0.08334 0.0
O547 O 0.43662 0.79614 0.03981 0.0
C548 C 0.42782 0.81088 0.03596 0.0
C549 C 0.44113 0.72529 0.04865 0.0
O550 O 0.45715 0.77696 0.02375 0.0
O551 O 0.44879 0.77263 0.14104 0.0
O552 O 0.44061 0.78741 0.86065 0.0
O553 O 0.44371 0.74945 0.85472 0.0
O554 O 0.44937 0.73166 1.00076 0.0
O555 O 0.43222 0.73994 0.0467 0.0
O556 O 0.41215 0.75634 0.06697 0.0
O557 O 0.41958 0.76324 0.94885 0.0
C558 C 0.45815 0.77646 0.09668 0.0
C559 C 0.41058 0.75757 0.99473 0.0
Dy560 Dy 0.19054 0.26284 0.7011 0.0
C561 C 0.18099 0.25369 0.0113 0.0
C562 C 0.19267 0.24961 0.55732 0.0
Dy563 Dy 0.18036 0.25791 0.86196 0.0
O564 O 0.2003 0.26395 0.59157 0.0
O565 O 0.18439 0.24181 0.60268 0.0
O566 O 0.19104 0.30385 0.69107 0.0
O567 O 0.18474 0.28729 0.78688 0.0
C568 C 0.18657 0.30763 0.75651 0.0
C569 C 0.1805 0.21711 0.77938 0.0
O570 O 0.16331 0.27125 0.81026 0.0
O571 O 0.17008 0.26272 0.69115 0.0
O572 O 0.17287 0.26642 0.97548 0.0
O573 O 0.18832 0.24312 0.9656 0.0
O574 O 0.17221 0.22202 0.82812 0.0
O575 O 0.18866 0.23333 0.78056 0.0
O576 O 0.20787 0.2579 0.76585 0.0
O577 O 0.19905 0.27337 0.87192 0.0
C578 C 0.16137 0.26889 0.73845 0.0
C579 C 0.20875 0.26677 0.83379 0.0
Dy580 Dy 0.54941 0.51119 0.70466 0.0
C581 C 0.56179 0.51865 0.01706 0.0
C582 C 0.54562 0.52197 0.55963 0.0
Dy583 Dy 0.55989 0.51633 0.86714 0.0
O584 O 0.54025 0.50445 0.5955 0.0
O585 O 0.55254 0.53434 0.60419 0.0
O586 O 0.54971 0.47018 0.69594 0.0
O587 O 0.55566 0.48739 0.79094 0.0
C588 C 0.55411 0.46683 0.76168 0.0
C589 C 0.55898 0.55697 0.78437 0.0
O590 O 0.577 0.50511 0.81197 0.0
O591 O 0.56984 0.51333 0.69309 0.0
O592 O 0.55782 0.5359 0.97466 0.0
O593 O 0.56513 0.50008 0.97731 0.0
O594 O 0.56754 0.55237 0.83185 0.0
O595 O 0.55101 0.54029 0.78588 0.0
O596 O 0.53186 0.51448 0.76799 0.0
O597 O 0.54059 0.50483 0.88167 0.0
C598 C 0.57876 0.50798 0.7401 0.0
C599 C 0.53101 0.50804 0.83854 0.0
Dy600 Dy 0.1888 0.51796 0.04601 0.0
C601 C 0.17467 0.52383 0.73496 0.0
C602 C 0.19184 0.52832 0.19218 0.0
Dy603 Dy 0.17742 0.52431 0.88513 0.0
O604 O 0.19803 0.51208 0.15577 0.0
O605 O 0.1845 0.53964 0.14763 0.0
O606 O 0.18991 0.47699 0.04858 0.0
O607 O 0.18307 0.49483 0.95654 0.0
C608 C 0.18538 0.47407 0.98292 0.0
C609 C 0.17742 0.56349 0.97385 0.0
O610 O 0.16115 0.50891 0.94117 0.0
O611 O 0.16841 0.51623 0.06027 0.0
O612 O 0.17391 0.54298 0.7765 0.0
O613 O 0.17634 0.50472 0.77599 0.0
O614 O 0.16888 0.55895 0.92588 0.0
O615 O 0.18577 0.54777 0.96888 0.0
O616 O 0.2062 0.52459 0.98322 0.0
O617 O 0.19742 0.52441 0.86539 0.0
C618 C 0.15957 0.51014 0.01358 0.0
C619 C 0.20698 0.52523 0.90992 0.0
Dy620 Dy 0.54865 0.25524 0.04121 0.0
C621 C 0.56238 0.25186 0.72985 0.0
C622 C 0.54562 0.24447 0.1871 0.0
Dy623 Dy 0.55983 0.24989 0.87999 0.0
O624 O 0.53919 0.26031 0.15048 0.0
O625 O 0.55321 0.23373 0.14286 0.0
O626 O 0.54764 0.29617 0.0465 0.0
O627 O 0.5544 0.27904 0.95316 0.0
C628 C 0.55222 0.29959 0.98121 0.0
C629 C 0.56002 0.21015 0.96643 0.0
O630 O 0.57599 0.26565 0.93601 0.0
O631 O 0.56907 0.25662 0.05471 0.0
O632 O 0.56514 0.23329 0.77091 0.0
O633 O 0.55881 0.26972 0.77134 0.0
O634 O 0.56845 0.21502 0.91808 0.0
O635 O 0.55163 0.22581 0.96281 0.0
O636 O 0.53118 0.24871 0.97881 0.0
O637 O 0.53984 0.24777 0.8607 0.0
C638 C 0.57778 0.26351 0.00804 0.0
C639 C 0.53035 0.2473 0.90567 0.0
H640 H 0.2151 0.2993 0.93893 0.0
H641 H 0.2736 0.22424 0.06774 0.0
H642 H 0.22855 0.23629 0.8235 0.0
H643 H 0.26035 0.28757 0.18231 0.0
H644 H 0.25677 0.22754 0.98071 0.0
H645 H 0.23183 0.29583 0.0266 0.0
C646 C 0.22175 0.28497 0.93119 0.0
C647 C 0.22045 0.26802 0.87381 0.0
C648 C 0.25742 0.24059 0.02523 0.0
C649 C 0.2395 0.26361 0.97539 0.0
C650 C 0.26697 0.23859 0.07545 0.0
C651 C 0.26836 0.2557 0.13233 0.0
C652 C 0.2492 0.25994 0.03146 0.0
C653 C 0.25953 0.27389 0.13972 0.0
C654 C 0.23124 0.28289 0.98178 0.0
C655 C 0.2293 0.24987 0.86645 0.0
N656 N 0.25037 0.27569 0.08924 0.0
N657 N 0.2384 0.24799 0.91724 0.0
H658 H 0.01025 0.05142 0.83781 0.0
H659 H 0.97944 0.98383 0.18431 0.0
H660 H 0.02224 0.98254 0.9249 0.0
H661 H 0.96433 0.04786 0.08219 0.0
H662 H -0.00363 0.98521 0.09567 0.0
H663 H 0.99341 0.05126 0.92762 0.0
C664 C 0.00909 0.03597 0.87426 0.0
C665 C 0.01753 0.01694 0.87408 0.0
C666 C 0.98942 0.99915 0.0933 0.0
C667 C -0.00121 0.01699 0.97823 0.0
C668 C 0.97991 0.99856 0.14471 0.0
C669 C 0.97057 0.01576 0.14033 0.0
C670 C 0.98951 0.01707 0.03761 0.0
C671 C 0.97141 0.03424 0.08704 0.0
C672 C -0.00036 0.03603 0.92631 0.0
C673 C 0.01587 0.99757 0.92355 0.0
N674 N 0.98065 0.03431 0.03738 0.0
N675 N 0.00677 0.99818 0.97403 0.0
H676 H 0.22983 0.99706 0.45873 0.0
H677 H 0.25975 0.02134 0.06094 0.0
H678 H 0.21492 0.04621 0.29692 0.0
H679 H 0.27524 0.97351 0.22436 0.0
H680 H 0.2426 0.02921 0.14456 0.0
H681 H 0.24695 0.98886 0.37506 0.0
C682 C 0.23037 1.00665 0.40664 0.0
C683 C 0.22101 0.0223 0.38456 0.0
C684 C 0.24969 0.01674 0.1617 0.0
C685 C 0.24017 0.01245 0.28776 0.0
C686 C 0.25933 0.01195 0.1134 0.0
C687 C 0.26887 0.99679 0.13592 0.0
C688 C 0.24965 1.00627 0.23267 0.0
C689 C 0.26805 0.98541 0.20514 0.0
C690 C 0.24 1.00168 0.35831 0.0
C691 C 0.22197 0.03392 0.3158 0.0
N692 N 0.25869 0.99055 0.25131 0.0
N693 N 0.2313 0.0286 0.2696 0.0
H694 H 0.00874 0.23634 0.44351 0.0
H695 H 0.97828 0.28904 0.07274 0.0
H696 H 0.0246 0.29351 0.31137 0.0
H697 H 0.96239 0.23198 0.20517 0.0
H698 H -0.00422 0.29016 0.15755 0.0
H699 H 0.99125 0.23521 0.35869 0.0
C700 C 0.0084 0.24899 0.39775 0.0
C701 C 0.01811 0.26493 0.38416 0.0
C702 C 0.98849 0.27725 0.16758 0.0
C703 C -0.00156 0.26339 0.28611 0.0
C704 C 0.97862 0.27641 0.11856 0.0
C705 C 0.9689 0.2605 0.13224 0.0
C706 C 0.98857 0.26204 0.23026 0.0
C707 C 0.96968 0.24471 0.19307 0.0
C708 C -0.00147 0.24815 0.34873 0.0
C709 C 0.01732 0.28075 0.32341 0.0
N710 N 0.97927 0.24599 0.24003 0.0
N711 N 0.00773 0.27946 0.27643 0.0
H712 H 0.72702 0.73721 0.82287 0.0
H713 H 0.75748 0.78472 0.19925 0.0
H714 H 0.71269 0.7963 0.95278 0.0
H715 H 0.77213 0.72658 0.06702 0.0
H716 H 0.74023 0.78779 0.11321 0.0
H717 H 0.74387 0.73329 0.91107 0.0
C718 C 0.72759 0.74972 0.86883 0.0
C719 C 0.71846 0.76704 0.88064 0.0
C720 C 0.74716 0.77416 0.1036 0.0
C721 C 0.73738 0.76224 0.98281 0.0
C722 C 0.75686 0.77218 0.15338 0.0
C723 C 0.76619 0.75544 0.13991 0.0
C724 C 0.74687 0.75929 0.04034 0.0
C725 C 0.76512 0.73985 0.07895 0.0
C726 C 0.73708 0.74726 0.91983 0.0
C727 C 0.71952 0.78257 0.94185 0.0
N728 N 0.75571 0.7423 0.03108 0.0
N729 N 0.72873 0.77968 0.9909 0.0
H730 H 0.75791 0.98357 0.56197 0.0
H731 H 0.72782 0.04291 0.92345 0.0
H732 H 0.77312 0.04506 0.67761 0.0
H733 H 0.71277 0.98122 0.80794 0.0
H734 H 0.7449 0.04351 0.83566 0.0
H735 H 0.74067 0.98351 0.64852 0.0
C736 C 0.75741 0.99744 0.60421 0.0
C737 C 0.76688 0.01429 0.61299 0.0
C738 C 0.73791 0.02968 0.83009 0.0
C739 C 0.74758 0.01392 0.71326 0.0
C740 C 0.7283 0.02914 0.88089 0.0
C741 C 0.71894 0.01204 0.87264 0.0
C742 C 0.73806 0.013 0.77109 0.0
C743 C 0.71983 0.99481 0.81579 0.0
C744 C 0.74772 0.9972 0.65435 0.0
C745 C 0.76598 0.03166 0.66942 0.0
N746 N 0.72915 0.99584 0.76688 0.0
N747 N 0.75657 0.0309 0.71781 0.0
H748 H 0.97847 0.78636 0.57379 0.0
H749 H 0.01016 0.72502 0.92738 0.0
H750 H 0.96342 0.72438 0.68809 0.0
H751 H 0.0218 0.79259 0.82887 0.0
H752 H 0.9931 0.72343 0.83918 0.0
H753 H -0.00435 0.78647 0.66069 0.0
C754 C 0.97899 0.77238 0.61579 0.0
C755 C 0.96959 0.75538 0.62408 0.0
C756 C -0.00068 0.73875 0.83759 0.0
C757 C 0.98884 0.75577 0.72474 0.0
C758 C 0.0089 0.73981 0.88865 0.0
C759 C 0.01731 0.75895 0.88514 0.0
C760 C -0.0017 0.7569 0.78298 0.0
C761 C 0.01548 0.77747 0.83298 0.0
C762 C 0.98865 0.77265 0.66617 0.0
C763 C 0.97052 0.73787 0.68027 0.0
N764 N 0.00626 0.77588 0.78358 0.0
N765 N 0.97992 0.73863 0.72884 0.0
H766 H 0.22943 0.77594 0.30722 0.0
H767 H 0.25908 0.74615 0.70236 0.0
H768 H 0.21292 0.72856 0.46862 0.0
H769 H 0.27566 0.79333 0.54067 0.0
H770 H 0.24161 0.74054 0.61917 0.0
H771 H 0.24693 0.78147 0.39023 0.0
C772 C 0.22967 0.76618 0.3591 0.0
C773 C 0.21978 0.75182 0.38128 0.0
C774 C 0.24902 0.75235 0.60231 0.0
C775 C 0.2394 0.75863 0.47728 0.0
C776 C 0.25887 0.75584 0.65036 0.0
C777 C 0.26877 0.77017 0.62817 0.0
C778 C 0.24918 0.76328 0.53199 0.0
C779 C 0.26819 0.782 0.55958 0.0
C780 C 0.23953 0.76963 0.40704 0.0
C781 C 0.22039 0.7399 0.44972 0.0
N782 N 0.25862 0.77814 0.51369 0.0
N783 N 0.22996 0.74373 0.49553 0.0
H784 H 0.96325 0.47336 0.54417 0.0
H785 H 0.02345 0.55054 0.45995 0.0
H786 H 0.97749 0.52781 0.69193 0.0
H787 H 0.00855 0.4974 0.31018 0.0
H788 H 0.00644 0.54337 0.54383 0.0
H789 H 0.98024 0.48082 0.4604 0.0
C790 C 0.97018 0.48648 0.5598 0.0
C791 C 0.96905 0.49992 0.62517 0.0
C792 C 0.00676 0.53349 0.49227 0.0
C793 C 0.9883 0.50917 0.52824 0.0
C794 C 0.01638 0.53778 0.44391 0.0
C795 C 0.01735 0.52458 0.37795 0.0
C796 C -0.00194 0.51568 0.47496 0.0
C797 C 0.00804 0.50816 0.36001 0.0
C798 C 0.97978 0.49095 0.51148 0.0
C799 C 0.97816 0.51683 0.64259 0.0
N800 N -0.00117 0.50395 0.40878 0.0
N801 N 0.98737 0.52118 0.59388 0.0
H802 H 0.25867 0.52478 0.55225 0.0
H803 H 0.22812 0.5018 0.94928 0.0
H804 H 0.27392 0.4779 0.71903 0.0
H805 H 0.21244 0.54776 0.78157 0.0
H806 H 0.24555 0.4942 0.86753 0.0
H807 H 0.24126 0.53273 0.63408 0.0
C808 C 0.25817 0.51566 0.60512 0.0
C809 C 0.2677 0.50071 0.62902 0.0
C810 C 0.23835 0.50618 0.849 0.0
C811 C 0.24818 0.51025 0.72366 0.0
C812 C 0.22853 0.51081 0.8962 0.0
C813 C 0.21887 0.52537 0.87203 0.0
C814 C 0.23844 0.51621 0.77744 0.0
C815 C 0.21971 0.53628 0.8021 0.0
C816 C 0.24837 0.52048 0.65236 0.0
C817 C 0.26675 0.48967 0.6987 0.0
N818 N 0.22925 0.53133 0.75707 0.0
N819 N 0.25725 0.49481 0.74374 0.0
H820 H 0.75908 0.29003 0.6727 0.0
H821 H 0.72935 0.2329 0.30621 0.0
H822 H 0.77263 0.22576 0.56453 0.0
H823 H 0.71631 0.29799 0.4121 0.0
H824 H 0.7458 0.23056 0.39806 0.0
H825 H 0.7427 0.29236 0.58047 0.0
C826 C 0.75836 0.27603 0.63096 0.0
C827 C 0.76714 0.25768 0.62609 0.0
C828 C 0.73942 0.24555 0.40054 0.0
C829 C 0.74885 0.26063 0.5192 0.0
C830 C 0.7302 0.24708 0.3473 0.0
C831 C 0.72154 0.26567 0.3517 0.0
C832 C 0.73989 0.2627 0.45823 0.0
C833 C 0.72285 0.28334 0.40705 0.0
C834 C 0.74917 0.27756 0.57752 0.0
C835 C 0.766 0.24023 0.56995 0.0
N836 N 0.73175 0.2813 0.45851 0.0
N837 N 0.75711 0.24224 0.51837 0.0
H838 H 0.71885 0.55124 0.33459 0.0
H839 H 0.77127 0.46425 0.18106 0.0
H840 H 0.72934 0.4845 0.44141 0.0
H841 H 0.7593 0.52908 0.06926 0.0
H842 H 0.75561 0.4705 0.27487 0.0
H843 H 0.73438 0.54442 0.24047 0.0
C844 C 0.72479 0.53558 0.33957 0.0
C845 C 0.72301 0.51862 0.39636 0.0
C846 C 0.75621 0.48313 0.22916 0.0
C847 C 0.74037 0.50999 0.28687 0.0
C848 C 0.76499 0.47932 0.17491 0.0
C849 C 0.7664 0.49598 0.1169 0.0
C850 C 0.74889 0.50399 0.22594 0.0
C851 C 0.7583 0.51555 0.11228 0.0
C852 C 0.73348 0.53144 0.28508 0.0
C853 C 0.73065 0.49828 0.39942 0.0
N854 N 0.74997 0.51921 0.16677 0.0
N855 N 0.73893 0.49437 0.34481 0.0
H856 H 0.47899 0.0246 0.7011 0.0
H857 H 0.50823 0.99483 0.30524 0.0
H858 H 0.46272 0.97581 0.54295 0.0
H859 H 0.5242 0.04424 0.46267 0.0
H860 H 0.49105 0.98837 0.39009 0.0
H861 H 0.49623 0.03067 0.61658 0.0
C862 C 0.47925 0.01463 0.64965 0.0
C863 C 0.46948 0.99973 0.62877 0.0
C864 C 0.49825 1.00087 0.40561 0.0
C865 C 0.48879 1.00715 0.53101 0.0
C866 C 0.50791 1.00484 0.3566 0.0
C867 C 0.51757 0.02007 0.37716 0.0
C868 C 0.49834 0.01222 0.47525 0.0
C869 C 0.5169 0.03227 0.44502 0.0
C870 C 0.48895 0.01839 0.60082 0.0
C871 C 0.4701 0.98756 0.56083 0.0
N872 N 0.50753 0.02793 0.49189 0.0
N873 N 0.47952 0.9917 0.51409 0.0
H874 H 0.46523 0.29848 0.6948 0.0
H875 H 0.52421 0.21939 0.78909 0.0
H876 H 0.4793 0.24278 0.55134 0.0
H877 H 0.51009 0.27501 0.9327 0.0
H878 H 0.50743 0.22667 0.70365 0.0
H879 H 0.482 0.29118 0.78024 0.0
C880 C 0.47209 0.28515 0.68039 0.0
C881 C 0.47096 0.27129 0.6158 0.0
C882 C 0.50786 0.23707 0.75424 0.0
C883 C 0.48993 0.26218 0.71472 0.0
C884 C 0.51733 0.2327 0.80354 0.0
C885 C 0.51846 0.24654 0.86818 0.0
C886 C 0.49948 0.25562 0.76926 0.0
C887 C 0.50943 0.26371 0.88401 0.0
C888 C 0.48156 0.28076 0.72969 0.0
C889 C 0.47997 0.25409 0.60001 0.0
N890 N 0.50037 0.26798 0.83432 0.0
N891 N 0.48903 0.2498 0.64969 0.0
H892 H 0.47911 0.75187 0.06465 0.0
H893 H 0.50757 0.78074 0.46325 0.0
H894 H 0.46343 0.80293 0.21751 0.0
H895 H 0.52173 0.72673 0.3142 0.0
H896 H 0.49112 0.78918 0.37487 0.0
H897 H 0.49579 0.74467 0.1522 0.0
C898 C 0.47946 0.76224 0.11537 0.0
C899 C 0.47001 0.77812 0.13392 0.0
C900 C 0.49773 0.77522 0.36204 0.0
C901 C 0.4886 0.76927 0.23547 0.0
C902 C 0.50695 0.7701 0.41315 0.0
C903 C 0.51592 0.75296 0.39593 0.0
C904 C 0.4976 0.76312 0.29358 0.0
C905 C 0.51493 0.74008 0.3294 0.0
C906 C 0.48881 0.75778 0.16606 0.0
C907 C 0.47064 0.79061 0.20128 0.0
N908 N 0.50603 0.74558 0.28036 0.0
N909 N 0.4797 0.78575 0.24999 0.0
H910 H 0.51029 0.53556 0.82358 0.0
H911 H 0.47821 0.47467 0.17728 0.0
H912 H 0.52523 0.47413 0.94037 0.0
H913 H 0.46625 0.54119 0.07442 0.0
H914 H 0.49543 0.47324 0.0902 0.0
H915 H 0.49295 0.53559 0.90929 0.0
C916 C 0.50973 0.5217 0.86594 0.0
C917 C 0.51915 0.50489 0.87524 0.0
C918 C 0.4891 0.48829 0.08737 0.0
C919 C 0.49969 0.50516 0.97451 0.0
C920 C 0.47942 0.48926 0.13778 0.0
C921 C 0.47088 0.50805 0.13278 0.0
C922 C 0.49009 0.5062 0.03195 0.0
C923 C 0.47266 0.52632 0.07969 0.0
C924 C 0.49996 0.52192 0.91562 0.0
C925 C 0.51814 0.48751 0.9318 0.0
N926 N 0.48199 0.52484 0.03101 0.0
N927 N 0.50865 0.4882 0.97965 0.0
H928 H 0.39027 0.24651 0.55123 0.0
H929 H 0.34897 0.24873 0.1872 0.0
H930 H 0.40482 0.25328 0.33082 0.0
H931 H 0.33465 0.25102 0.40892 0.0
H932 H 0.36956 0.24518 0.23816 0.0
H933 H 0.36982 0.2428 0.49903 0.0
C934 C 0.38919 0.24704 0.49191 0.0
C935 C 0.39927 0.25048 0.44546 0.0
C936 C 0.36189 0.24633 0.27553 0.0
C937 C 0.3759 0.24631 0.38537 0.0
C938 C 0.35013 0.24832 0.24647 0.0
C939 C 0.34008 0.25044 0.29379 0.0
C940 C 0.36356 0.24637 0.35236 0.0
C941 C 0.34213 0.24972 0.3702 0.0
C942 C 0.37751 0.24497 0.46212 0.0
C943 C 0.39731 0.25092 0.36891 0.0
N944 N 0.35363 0.24786 0.39703 0.0
N945 N 0.38585 0.249 0.34131 0.0
H946 H 0.83325 0.01195 0.33421 0.0
H947 H 0.90447 0.01448 0.42141 0.0
H948 H 0.84805 0.01562 0.55471 0.0
H949 H 0.88958 0.01681 0.20098 0.0
H950 H 0.88389 0.01623 0.4711 0.0
H951 H 0.85379 0.01492 0.28464 0.0
C952 C 0.84081 0.01341 0.37237 0.0
C953 C 0.83892 0.01335 0.44892 0.0
C954 C 0.88512 0.01648 0.41188 0.0
C955 C 0.86251 0.01678 0.39213 0.0
C956 C 0.89688 0.01544 0.38331 0.0
C957 C 0.89876 0.0153 0.30675 0.0
C958 C 0.87514 0.01727 0.36363 0.0
C959 C 0.88856 0.01679 0.26032 0.0
C960 C 0.85256 0.01518 0.34385 0.0
C961 C 0.84908 0.0155 0.49539 0.0
N962 N 0.87717 0.01755 0.28954 0.0
N963 N 0.86047 0.017 0.46621 0.0
H964 H 0.38885 0.02416 0.69733 0.0
H965 H 0.34947 0.0216 0.0682 0.0
H966 H 0.40441 0.0215 0.91602 0.0
H967 H 0.334 0.01828 0.84934 0.0
H968 H 0.36964 0.02727 0.01341 0.0
H969 H 0.3686 0.02781 0.75232 0.0
C970 C 0.38803 0.02456 0.7568 0.0
C971 C 0.39833 0.02217 0.80207 0.0
C972 C 0.3618 0.02546 0.97748 0.0
C973 C 0.37522 0.02625 0.86528 0.0
C974 C 0.35028 0.02225 0.00874 0.0
C975 C 0.34005 0.01912 0.96335 0.0
C976 C 0.36306 0.02556 0.90038 0.0
C977 C 0.34165 0.02027 0.8866 0.0
C978 C 0.37647 0.0266 0.78819 0.0
C979 C 0.39672 0.02294 0.87885 0.0
N980 N 0.35294 0.02323 0.85757 0.0
N981 N 0.38538 0.02473 0.908 0.0
H982 H 0.83213 0.2532 0.91676 0.0
H983 H 0.90376 0.25346 0.84297 0.0
H984 H 0.84809 0.25029 0.6992 0.0
H985 H 0.88783 0.25152 0.0607 0.0
H986 H 0.88348 0.25032 0.78967 0.0
H987 H 0.85242 0.25063 0.97028 0.0
C988 C 0.83989 0.25193 0.88007 0.0
C989 C 0.83839 0.25217 0.80317 0.0
C990 C 0.8844 0.25043 0.84909 0.0
C991 C 0.86171 0.24923 0.86455 0.0
C992 C 0.896 0.25229 0.87974 0.0
C993 C 0.89751 0.25297 0.95661 0.0
C994 C 0.87419 0.24938 0.89549 0.0
C995 C 0.8871 0.25114 1.00121 0.0
C996 C 0.85149 0.25041 0.91085 0.0
C997 C 0.8488 0.25026 0.7587 0.0
N998 N 0.87587 0.2496 0.96994 0.0
N999 N 0.86004 0.24904 0.79009 0.0
H1000 H 0.58136 0.76915 0.68475 0.0
H1001 H 0.65268 0.76465 0.60369 0.0
H1002 H 0.59694 0.77106 0.46607 0.0
H1003 H 0.63771 0.76921 0.82353 0.0
H1004 H 0.6323 0.76855 0.55315 0.0
H1005 H 0.60181 0.77108 0.73685 0.0
C1006 C 0.58907 0.77013 0.64754 0.0
C1007 C 0.58743 0.7697 0.57073 0.0
C1008 C 0.63344 0.76881 0.61244 0.0
C1009 C 0.61088 0.77183 0.63041 0.0
C1010 C 0.6451 0.76648 0.64157 0.0
C1011 C 0.64691 0.76638 0.71822 0.0
C1012 C 0.62344 0.77093 0.66009 0.0
C1013 C 0.63673 0.76909 0.76417 0.0
C1014 C 0.60075 0.77126 0.67751 0.0
C1015 C 0.59777 0.77124 0.52552 0.0
N1016 N 0.62539 0.77109 0.73434 0.0
N1017 N 0.60906 0.77204 0.5561 0.0
H1018 H 0.08381 1.01009 0.59108 0.0
H1019 H 0.15526 1.00602 0.67095 0.0
H1020 H 0.09925 1.00629 0.80992 0.0
H1021 H 0.13978 1.00539 0.45194 0.0
H1022 H 0.13482 1.00384 0.72255 0.0
H1023 H 0.10418 1.00636 0.53925 0.0
C1024 C 0.09148 1.00842 0.62838 0.0
C1025 C 0.08982 1.00869 0.70513 0.0
C1026 C 0.13588 1.00402 0.66321 0.0
C1027 C 0.11321 1.0044 0.64578 0.0
C1028 C 0.14757 1.0053 0.63356 0.0
C1029 C 0.14924 1.00613 0.55686 0.0
C1030 C 0.12576 1.0037 0.61595 0.0
C1031 C 0.13892 1.00488 0.51136 0.0
C1032 C 0.10312 1.00622 0.59859 0.0
C1033 C 0.10011 1.00627 0.75049 0.0
N1034 N 0.1276 1.00393 0.54166 0.0
N1035 N 0.11138 1.00437 0.72008 0.0
H1036 H 0.65401 1.0075 0.16081 0.0
H1037 H 0.58247 0.99918 0.08895 0.0
H1038 H 0.63803 1.00232 0.94361 0.0
H1039 H 0.59864 1.00185 0.306 0.0
H1040 H 0.60275 0.99713 0.0352 0.0
H1041 H 0.63389 1.00256 0.21478 0.0
C1042 C 0.64627 1.00528 0.12428 0.0
C1043 C 0.64771 1.00557 0.04735 0.0
C1044 C 0.60188 0.99798 0.09459 0.0
C1045 C 0.62458 0.99986 0.1093 0.0
C1046 C 0.59028 0.99918 0.12549 0.0
C1047 C 0.58885 1.00098 0.20223 0.0
C1048 C 0.61214 0.9987 0.14064 0.0
C1049 C 0.59931 1.0006 0.24661 0.0
C1050 C 0.63477 1.00238 0.15534 0.0
C1051 C 0.63735 1.00234 1.00313 0.0
N1052 N 0.61053 0.99973 0.21507 0.0
N1053 N 0.62619 0.99978 0.0348 0.0
H1054 H 0.09884 0.77371 0.94725 0.0
H1055 H 0.13901 0.77495 0.31551 0.0
H1056 H 0.08381 0.76805 0.16678 0.0
H1057 H 0.15417 0.7725 0.09581 0.0
H1058 H 0.11862 0.77758 0.2619 0.0
H1059 H 0.11916 0.77808 1.00097 0.0
C1060 C 0.0998 0.77348 0.00667 0.0
C1061 C 0.08962 0.77029 0.05252 0.0
C1062 C 0.12643 0.77661 0.22551 0.0
C1063 C 0.11281 0.77532 0.11426 0.0
C1064 C 0.13807 0.77519 0.25609 0.0
C1065 C 0.14831 0.77322 0.21014 0.0
C1066 C 0.12503 0.77611 0.14853 0.0
C1067 C 0.14654 0.77369 0.13347 0.0
C1068 C 0.1114 0.77598 0.0373 0.0
C1069 C 0.0914 0.77024 0.12918 0.0
N1070 N 0.13512 0.77494 0.10511 0.0
N1071 N 0.10278 0.77262 0.15761 0.0
H1072 H 0.34958 0.74737 0.69676 0.0
H1073 H 0.38903 0.74947 0.0677 0.0
H1074 H 0.33405 0.74953 0.91553 0.0
H1075 H 0.40447 0.75462 0.84912 0.0
H1076 H 0.36886 0.74408 0.01263 0.0
H1077 H 0.36988 0.74443 0.75165 0.0
C1078 C 0.35042 0.747 0.75623 0.0
C1079 C 0.34011 0.74902 0.80156 0.0
C1080 C 0.37669 0.74626 0.9768 0.0
C1081 C 0.36327 0.74575 0.86462 0.0
C1082 C 0.3882 0.74933 0.00822 0.0
C1083 C 0.39843 0.75278 0.96302 0.0
C1084 C 0.37543 0.74663 0.89972 0.0
C1085 C 0.39682 0.75229 0.88622 0.0
C1086 C 0.36201 0.74538 0.78754 0.0
C1087 C 0.34174 0.74834 0.87833 0.0
N1088 N 0.38553 0.74943 0.85703 0.0
N1089 N 0.35311 0.74693 0.9074 0.0
H1090 H 0.88804 0.51927 0.68787 0.0
H1091 H 0.84705 0.52148 0.05285 0.0
H1092 H 0.90271 0.51601 0.90872 0.0
H1093 H 0.83245 0.51513 0.83246 0.0
H1094 H 0.86753 0.52488 1.0006 0.0
H1095 H 0.86758 0.52309 0.73984 0.0
C1096 C 0.88698 0.51952 0.74722 0.0
C1097 C 0.8971 0.51707 0.79394 0.0
C1098 C 0.85982 0.52288 0.96374 0.0
C1099 C 0.87373 0.52141 0.85372 0.0
C1100 C 0.84812 0.521 0.99353 0.0
C1101 C 0.83802 0.51776 0.94705 0.0
C1102 C 0.86141 0.5216 0.88699 0.0
C1103 C 0.83997 0.51734 0.87055 0.0
C1104 C 0.8753 0.52166 0.77686 0.0
C1105 C 0.89517 0.5176 0.87047 0.0
N1106 N 0.85144 0.5191 0.84297 0.0
N1107 N 0.88371 0.5196 0.89793 0.0
H1108 H 0.34888 0.51804 0.56325 0.0
H1109 H 0.38915 0.51983 0.19518 0.0
H1110 H 0.33379 0.5148 0.34343 0.0
H1111 H 0.40425 0.51482 0.41466 0.0
H1112 H 0.36875 0.52231 0.24884 0.0
H1113 H 0.36928 0.52131 0.5098 0.0
C1114 C 0.34983 0.51818 0.50383 0.0
C1115 C 0.33961 0.51592 0.45783 0.0
C1116 C 0.37655 0.52076 0.28519 0.0
C1117 C 0.3629 0.51961 0.39637 0.0
C1118 C 0.3882 0.51937 0.25458 0.0
C1119 C 0.39842 0.51693 0.30041 0.0
C1120 C 0.37514 0.51976 0.36212 0.0
C1121 C 0.39663 0.51649 0.37706 0.0
C1122 C 0.36148 0.51999 0.47334 0.0
C1123 C 0.3414 0.51627 0.38117 0.0
N1124 N 0.38521 0.51781 0.40546 0.0
N1125 N 0.35282 0.51796 0.35289 0.0
H1126 H 0.84747 0.75766 0.20017 0.0
H1127 H 0.88846 0.75456 0.56523 0.0
H1128 H 0.83264 0.75829 0.4209 0.0
H1129 H 0.90306 0.7601 0.34459 0.0
H1130 H 0.8679 0.75338 0.51331 0.0
H1131 H 0.86796 0.75621 0.25234 0.0
C1132 C 0.8485 0.75748 0.25954 0.0
C1133 C 0.8383 0.7582 0.30613 0.0
C1134 C 0.87562 0.7548 0.47636 0.0
C1135 C 0.86174 0.75649 0.3662 0.0
C1136 C 0.88736 0.75543 0.50596 0.0
C1137 C 0.89751 0.75756 0.45929 0.0
C1138 C 0.87404 0.75625 0.39962 0.0
C1139 C 0.89552 0.7586 0.38286 0.0
C1140 C 0.86021 0.75665 0.28931 0.0
C1141 C 0.84022 0.75787 0.3827 0.0
N1142 N 0.88402 0.75798 0.35549 0.0
N1143 N 0.85171 0.75706 0.41031 0.0
H1144 H 0.65559 0.27087 0.06653 0.0
H1145 H 0.58439 0.26621 0.15301 0.0
H1146 H 0.64066 0.27339 0.28676 0.0
H1147 H 0.59918 0.27092 0.93275 0.0
H1148 H 0.60488 0.27073 0.20285 0.0
H1149 H 0.63501 0.27278 0.01663 0.0
C1150 C 0.64799 0.27194 0.10453 0.0
C1151 C 0.64986 0.27175 0.1811 0.0
C1152 C 0.60364 0.27094 0.14363 0.0
C1153 C 0.62623 0.2739 0.12401 0.0
C1154 C 0.59194 0.26831 0.115 0.0
C1155 C 0.59007 0.26797 0.03843 0.0
C1156 C 0.61359 0.2731 0.09545 0.0
C1157 C 0.6002 0.27098 0.99209 0.0
C1158 C 0.63623 0.27309 0.07586 0.0
C1159 C 0.63966 0.27339 0.22741 0.0
N1160 N 0.61155 0.27323 0.02137 0.0
N1161 N 0.62826 0.2742 0.1981 0.0
H1162 H 0.09817 0.50127 0.30965 0.0
H1163 H 0.13796 0.50317 0.93973 0.0
H1164 H 0.08283 0.50545 0.09063 0.0
H1165 H 0.15329 0.50656 0.15891 0.0
H1166 H 0.11768 0.49866 0.99408 0.0
H1167 H 0.11848 0.4978 0.25512 0.0
C1168 C 0.09904 0.50126 0.25019 0.0
C1169 C 0.08879 0.50395 0.20474 0.0
C1170 C 0.1255 0.50025 0.03019 0.0
C1171 C 0.11197 0.50005 0.14204 0.0
C1172 C 0.13709 0.50279 0.99918 0.0
C1173 C 0.14733 0.50554 0.04475 0.0
C1174 C 0.12418 0.50041 0.10725 0.0
C1175 C 0.14565 0.50479 0.12149 0.0
C1176 C 0.11064 0.49933 0.21908 0.0
C1177 C 0.09048 0.50372 0.12797 0.0
N1178 N 0.13429 0.50244 0.15028 0.0
N1179 N 0.10185 0.50197 0.09911 0.0
H1180 H 0.65693 0.50675 0.68139 0.0
H1181 H 0.58556 0.50825 0.5954 0.0
H1182 H 0.64175 0.5077 0.46153 0.0
H1183 H 0.60036 0.5032 0.81564 0.0
H1184 H 0.60613 0.50688 0.54584 0.0
H1185 H 0.63637 0.50431 0.73167 0.0
C1186 C 0.64929 0.50639 0.64353 0.0
C1187 C 0.6511 0.50757 0.56693 0.0
C1188 C 0.6049 0.50597 0.605 0.0
C1189 C 0.6275 0.50478 0.62451 0.0
C1190 C 0.59314 0.50679 0.6335 0.0
C1191 C 0.59122 0.50598 0.70998 0.0
C1192 C 0.61487 0.50444 0.65318 0.0
C1193 C 0.60141 0.50392 0.75636 0.0
C1194 C 0.63754 0.50495 0.67244 0.0
C1195 C 0.64082 0.50691 0.52087 0.0
N1196 N 0.61282 0.50334 0.7272 0.0
N1197 N 0.62947 0.50566 0.55043 0.0
H1198 H 0.15492 0.27298 0.59395 0.0
H1199 H 0.08348 0.26968 0.67355 0.0
H1200 H 0.13963 0.27276 0.8134 0.0
H1201 H 0.09903 0.27482 0.45526 0.0
H1202 H 0.10385 0.27292 0.726 0.0
H1203 H 0.13449 0.27586 0.54298 0.0
C1204 C 0.14726 0.27362 0.63161 0.0
C1205 C 0.14899 0.27238 0.70823 0.0
C1206 C 0.10281 0.27349 0.66667 0.0
C1207 C 0.12549 0.27565 0.64974 0.0
C1208 C 0.09117 0.27158 0.63649 0.0
C1209 C 0.08953 0.27176 0.55966 0.0
C1210 C 0.11293 0.27547 0.6198 0.0
C1211 C 0.09985 0.27449 0.51471 0.0
C1212 C 0.13557 0.27533 0.60229 0.0
C1213 C 0.13871 0.27358 0.75404 0.0
N1214 N 0.11112 0.27607 0.54548 0.0
N1215 N 0.12737 0.27495 0.72401 0.0
H1216 H 0.27889 0.26316 0.5521 0.0
H1217 H 0.32537 0.26106 0.88626 0.0
H1218 H 0.31613 0.28725 0.52632 0.0
H1219 H 0.28774 0.28119 0.91822 0.0
H1220 H 0.32218 0.26322 0.75192 0.0
H1221 H 0.28182 0.26294 0.68667 0.0
C1222 C 0.28761 0.26863 0.57483 0.0
C1223 C 0.29725 0.27539 0.52842 0.0
C1224 C 0.31466 0.26719 0.78868 0.0
C1225 C 0.30077 0.27437 0.68075 0.0
C1226 C 0.31647 0.26586 0.86492 0.0
C1227 C 0.30683 0.27112 0.91288 0.0
C1228 C 0.30307 0.27314 0.76087 0.0
C1229 C 0.29543 0.27722 0.88283 0.0
C1230 C 0.28929 0.26843 0.65125 0.0
C1231 C 0.30843 0.28211 0.56035 0.0
N1232 N 0.29383 0.27787 0.80868 0.0
N1233 N 0.30994 0.28114 0.63456 0.0
H1234 H 0.95104 0.03373 0.55691 0.0
H1235 H 0.92967 0.96017 0.91247 0.0
H1236 H 0.935 0.96223 0.54126 0.0
H1237 H 0.92942 0.03853 0.9037 0.0
H1238 H 0.93429 0.95907 0.7803 0.0
H1239 H 0.9465 0.03407 0.68931 0.0
C1240 C 0.94678 0.01791 0.58165 0.0
C1241 C 0.94342 0.99788 0.53828 0.0
C1242 C 0.93312 0.97649 0.80718 0.0
C1243 C 0.93812 0.99824 0.68918 0.0
C1244 C 0.93045 0.97714 0.8824 0.0
C1245 C 0.92907 0.99947 0.9187 0.0
C1246 C 0.93472 0.99835 0.76836 0.0
C1247 C 0.93028 0.02094 0.87748 0.0
C1248 C 0.94406 0.01825 0.65692 0.0
C1249 C 0.93777 0.97799 0.57289 0.0
N1250 N 0.93318 0.01986 0.80455 0.0
N1251 N 0.93531 0.97864 0.64639 0.0
H1252 H 0.30689 0.03669 0.36312 0.0
H1253 H 0.30716 0.95866 0.73503 0.0
H1254 H 0.31528 0.96012 0.3669 0.0
H1255 H 0.2878 0.02644 0.71289 0.0
H1256 H 0.31168 0.95966 0.6027 0.0
H1257 H 0.30191 0.03468 0.49477 0.0
C1258 C 0.30786 0.01953 0.39195 0.0
C1259 C 0.31155 0.99855 0.35422 0.0
C1260 C 0.30633 0.97418 0.62663 0.0
C1261 C 0.30576 0.99606 0.50454 0.0
C1262 C 0.3037 0.97356 0.70203 0.0
C1263 C 0.29704 0.99243 0.7348 0.0
C1264 C 0.30247 0.99406 0.58391 0.0
C1265 C 0.29288 0.01142 0.68968 0.0
C1266 C 0.3049 0.01834 0.46687 0.0
C1267 C 0.31251 0.97674 0.39404 0.0
N1268 N 0.29577 0.01189 0.6167 0.0
N1269 N 0.30965 0.97605 0.46704 0.0
H1270 H 0.92612 0.3103 0.35649 0.0
H1271 H 0.94998 0.23872 0.71062 0.0
H1272 H 0.92859 0.23209 0.36335 0.0
H1273 H 0.93255 0.30873 0.72682 0.0
H1274 H 0.9453 0.23796 0.57836 0.0
H1275 H 0.93092 0.31175 0.48842 0.0
C1276 C 0.92753 0.29341 0.38607 0.0
C1277 C 0.92686 0.27102 0.34922 0.0
C1278 C 0.94258 0.25356 0.61082 0.0
C1279 C 0.93271 0.2726 0.4995 0.0
C1280 C 0.94538 0.25414 0.68605 0.0
C1281 C 0.94168 0.27387 0.72959 0.0
C1282 C 0.93621 0.273 0.5787 0.0
C1283 C 0.93559 0.29321 0.69511 0.0
C1284 C 0.93031 0.29426 0.46121 0.0
C1285 C 0.92888 0.2497 0.38994 0.0
N1286 N 0.93306 0.29233 0.62168 0.0
N1287 N 0.93185 0.25101 0.46278 0.0
H1288 H 0.70123 0.74777 0.09305 0.0
H1289 H 0.67195 0.72914 0.48741 0.0
H1290 H 0.6626 0.75618 0.1296 0.0
H1291 H 0.70773 0.7609 0.46126 0.0
H1292 H 0.66912 0.73074 0.3538 0.0
H1293 H 0.70441 0.74526 0.22622 0.0
C1294 C 0.69341 0.74907 0.12933 0.0
C1295 C 0.68162 0.75215 0.10077 0.0
C1296 C 0.6776 0.73721 0.37738 0.0
C1297 C 0.6852 0.74887 0.25245 0.0
C1298 C 0.6793 0.73608 0.45337 0.0
C1299 C 0.69011 0.74492 0.48512 0.0
C1300 C 0.68688 0.7468 0.33286 0.0
C1301 C 0.69928 0.75389 0.43869 0.0
C1302 C 0.69525 0.74771 0.20508 0.0
C1303 C 0.67182 0.75388 0.14981 0.0
N1304 N 0.69747 0.75454 0.36455 0.0
N1305 N 0.6738 0.75194 0.22365 0.0
H1306 H 0.06013 0.06086 0.10369 0.0
H1307 H 0.04379 0.98147 0.46161 0.0
H1308 H 0.05936 0.98246 0.10501 0.0
H1309 H 0.04974 0.05898 0.46855 0.0
H1310 H 0.04828 0.98183 0.3295 0.0
H1311 H 0.05573 0.06083 0.23603 0.0
C1312 C 0.05918 0.04362 0.13208 0.0
C1313 C 0.06017 0.02162 0.09337 0.0
C1314 C 0.04855 0.9988 0.3597 0.0
C1315 C 0.05489 0.02144 0.24479 0.0
C1316 C 0.0459 0.99863 0.43509 0.0
C1317 C 0.04635 0.02025 0.47609 0.0
C1318 C 0.05167 0.02077 0.32471 0.0
C1319 C 0.04923 0.04192 0.43894 0.0
C1320 C 0.0566 0.04362 0.20761 0.0
C1321 C 0.05875 0.99983 0.13281 0.0
N1322 N 0.0518 0.04163 0.36543 0.0
N1323 N 0.05611 1.00029 0.20619 0.0
H1324 H 0.67636 0.06297 0.64689 0.0
H1325 H 0.70024 0.99184 0.29261 0.0
H1326 H 0.67885 0.98476 0.63985 0.0
H1327 H 0.68277 0.06183 0.27675 0.0
H1328 H 0.69556 0.9909 0.42484 0.0
H1329 H 0.68115 0.06455 0.51501 0.0
C1330 C 0.67777 0.04611 0.61727 0.0
C1331 C 0.67711 0.02368 0.65405 0.0
C1332 C 0.69284 1.00653 0.39247 0.0
C1333 C 0.68296 0.02542 0.50383 0.0
C1334 C 0.69563 1.00722 0.31726 0.0
C1335 C 0.69192 0.027 0.27382 0.0
C1336 C 0.68645 0.02592 0.42466 0.0
C1337 C 0.68583 0.04629 0.30838 0.0
C1338 C 0.68055 0.04704 0.54216 0.0
C1339 C 0.67914 1.0024 0.6133 0.0
N1340 N 0.6833 0.0453 0.38179 0.0
N1341 N 0.6821 1.00379 0.54047 0.0
H1342 H 0.04775 0.71754 0.28938 0.0
H1343 H 0.06112 0.79585 0.6544 0.0
H1344 H 0.04565 0.79579 0.29779 0.0
H1345 H 0.05786 0.71769 0.65467 0.0
H1346 H 0.05676 0.79605 0.52181 0.0
H1347 H 0.05217 0.71695 0.42202 0.0
C1348 C 0.04808 0.73456 0.31934 0.0
C1349 C 0.04628 0.75673 0.28264 0.0
C1350 C 0.05706 0.77883 0.55075 0.0
C1351 C 0.05158 0.75628 0.434 0.0
C1352 C 0.05964 0.77872 0.62632 0.0
C1353 C 0.05988 0.75672 0.66548 0.0
C1354 C 0.05473 0.75677 0.51395 0.0
C1355 C 0.05779 0.73505 0.6265 0.0
C1356 C 0.05067 0.73424 0.39495 0.0
C1357 C 0.04692 0.77827 0.32398 0.0
N1358 N 0.05529 0.73562 0.55302 0.0
N1359 N 0.04957 0.77752 0.39721 0.0
H1360 H 0.30764 0.80657 0.02935 0.0
H1361 H 0.30539 0.72876 0.40181 0.0
H1362 H 0.28701 0.74008 0.05126 0.0
H1363 H 0.31629 0.80415 0.39681 0.0
H1364 H 0.30042 0.73116 0.27027 0.0
H1365 H 0.31211 0.80527 0.1617 0.0
C1366 C 0.30389 0.7919 0.06231 0.0
C1367 C 0.2969 0.77346 0.02944 0.0
C1368 C 0.30395 0.74715 0.29786 0.0
C1369 C 0.30226 0.77149 0.18043 0.0
C1370 C 0.3069 0.74572 0.37274 0.0
C1371 C 0.31131 0.76627 0.41012 0.0
C1372 C 0.30551 0.76923 0.25984 0.0
C1373 C 0.31296 0.78786 0.36996 0.0
C1374 C 0.3065 0.7911 0.13774 0.0
C1375 C 0.29236 0.75476 0.07452 0.0
N1376 N 0.31008 0.78878 0.297 0.0
N1377 N 0.29522 0.75411 0.14754 0.0
H1378 H 0.9313 0.53836 0.39666 0.0
H1379 H 0.9308 0.4605 0.0249 0.0
H1380 H 0.92253 0.46187 0.39264 0.0
H1381 H 0.94996 0.52871 0.04638 0.0
H1382 H 0.92639 0.46133 0.15733 0.0
H1383 H 0.93627 0.53645 0.26507 0.0
C1384 C 0.93026 0.52124 0.36778 0.0
C1385 C 0.92646 0.50025 0.40542 0.0
C1386 C 0.93167 0.47599 0.13324 0.0
C1387 C 0.93224 0.49786 0.25517 0.0
C1388 C 0.93424 0.47546 0.05779 0.0
C1389 C 0.9408 0.49452 0.0248 0.0
C1390 C 0.9355 0.49593 0.1758 0.0
C1391 C 0.94495 0.51357 0.06976 0.0
C1392 C 0.93321 0.5201 0.29289 0.0
C1393 C 0.92539 0.47849 0.36556 0.0
N1394 N 0.94212 0.51393 0.14281 0.0
N1395 N 0.92825 0.47785 0.29258 0.0
H1396 H 0.30574 0.5382 0.85659 0.0
H1397 H 0.30578 0.46004 0.22844 0.0
H1398 H 0.31408 0.46162 0.86068 0.0
H1399 H 0.2869 0.52838 0.20689 0.0
H1400 H 0.31027 0.461 0.09609 0.0
H1401 H 0.30078 0.53628 0.98827 0.0
C1402 C 0.3067 0.52106 0.88549 0.0
C1403 C 0.31037 0.50005 0.84784 0.0
C1404 C 0.30504 0.47566 0.12014 0.0
C1405 C 0.30459 0.49764 0.99819 0.0
C1406 C 0.30242 0.47506 0.19556 0.0
C1407 C 0.29591 0.4941 0.22851 0.0
C1408 C 0.3013 0.49567 0.07758 0.0
C1409 C 0.29187 0.51324 0.18354 0.0
C1410 C 0.30374 0.51991 0.96043 0.0
C1411 C 0.31132 0.47826 0.88776 0.0
N1412 N 0.29474 0.51367 0.11054 0.0
N1413 N 0.30847 0.47761 0.96075 0.0
H1414 H 0.9273 0.73131 0.86047 0.0
H1415 H 0.93498 0.81012 0.22564 0.0
H1416 H 0.93 0.80954 0.85417 0.0
H1417 H 0.9488 0.73701 0.20743 0.0
H1418 H 0.93062 0.80994 0.09291 0.0
H1419 H 0.93206 0.73234 0.99285 0.0
C1420 C 0.9287 0.7487 0.88726 0.0
C1421 C 0.92823 0.77038 0.84668 0.0
C1422 C 0.93472 0.79405 0.11791 0.0
C1423 C 0.93372 0.7717 0.99722 0.0
C1424 C 0.93726 0.79419 0.19341 0.0
C1425 C 0.94233 0.77362 0.22723 0.0
C1426 C 0.93699 0.77297 0.07646 0.0
C1427 C 0.945 0.75333 0.18326 0.0
C1428 C 0.93154 0.74926 0.96243 0.0
C1429 C 0.93027 0.79242 0.88369 0.0
N1430 N 0.94216 0.75339 0.11026 0.0
N1431 N 0.93288 0.79255 0.95695 0.0
H1432 H 0.68004 0.21511 0.57675 0.0
H1433 H 0.70236 0.28749 0.93227 0.0
H1434 H 0.68073 0.29346 0.58547 0.0
H1435 H 0.68565 0.21658 0.94773 0.0
H1436 H 0.69781 0.28813 0.79987 0.0
H1437 H 0.68477 0.2137 0.70875 0.0
C1438 C 0.68104 0.23202 0.60676 0.0
C1439 C 0.6799 0.25444 0.57048 0.0
C1440 C 0.69523 0.27237 0.83221 0.0
C1441 C 0.68567 0.25295 0.7207 0.0
C1442 C 0.69795 0.27186 0.90749 0.0
C1443 C 0.69441 0.25191 0.95082 0.0
C1444 C 0.6891 0.25262 0.79989 0.0
C1445 C 0.68857 0.23227 0.91614 0.0
C1446 C 0.68378 0.23119 0.68191 0.0
C1447 C 0.68141 0.27581 0.61167 0.0
N1448 N 0.68611 0.23309 0.84264 0.0
N1449 N 0.68435 0.27455 0.68453 0.0
H1450 H 0.03374 0.4963 0.95613 0.0
H1451 H 0.06753 0.55705 0.60955 0.0
H1452 H 0.05742 0.55872 0.97511 0.0
H1453 H 0.05119 0.48566 0.60438 0.0
H1454 H 0.06262 0.55992 0.74115 0.0
H1455 H 0.03812 0.49473 0.82372 0.0
C1456 C 0.03969 0.50993 0.93216 0.0
C1457 C 0.04522 0.52768 0.97656 0.0
C1458 C 0.06018 0.54356 0.71135 0.0
C1459 C 0.05042 0.5258 0.82538 0.0
C1460 C 0.06304 0.54187 0.63637 0.0
C1461 C 0.05983 0.52102 0.5962 0.0
C1462 C 0.05391 0.52439 0.74618 0.0
C1463 C 0.05391 0.50198 0.63345 0.0
C1464 C 0.04229 0.50888 0.85673 0.0
C1465 C 0.05296 0.54476 0.94277 0.0
N1466 N 0.05107 0.50418 0.70616 0.0
N1467 N 0.05535 0.54336 0.86929 0.0
H1468 H 0.68119 0.55886 0.16305 0.0
H1469 H 0.69541 0.47498 0.81391 0.0
H1470 H 0.67813 0.48064 0.16551 0.0
H1471 H 0.69558 0.55339 0.80545 0.0
H1472 H 0.69003 0.47678 0.94425 0.0
H1473 H 0.68656 0.55735 0.03256 0.0
C1474 C 0.68146 0.54137 0.13566 0.0
C1475 C 0.67919 0.51982 0.17486 0.0
C1476 C 0.69132 0.49362 0.9142 0.0
C1477 C 0.68559 0.51792 0.02595 0.0
C1478 C 0.6945 0.49261 0.83993 0.0
C1479 C 0.69596 0.51409 0.79905 0.0
C1480 C 0.68956 0.51629 0.94794 0.0
C1481 C 0.69461 0.53642 0.83524 0.0
C1482 C 0.68461 0.54051 0.0613 0.0
C1483 C 0.67974 0.49766 0.13703 0.0
N1484 N 0.69142 0.53695 0.90769 0.0
N1485 N 0.68297 0.49726 0.06466 0.0
H1486 H 0.05364 0.21455 0.78768 0.0
H1487 H 0.05945 0.29408 0.15358 0.0
H1488 H 0.0381 0.28623 0.80653 0.0
H1489 H 0.05984 0.21568 0.15824 0.0
H1490 H 0.05449 0.29261 0.0215 0.0
H1491 H 0.05823 0.21522 0.92009 0.0
C1492 C 0.05102 0.23026 0.81998 0.0
C1493 C 0.04539 0.25028 0.78634 0.0
C1494 C 0.05574 0.27575 0.05145 0.0
C1495 C 0.05099 0.25152 0.93698 0.0
C1496 C 0.05869 0.27659 0.12649 0.0
C1497 C 0.0601 0.25497 0.16663 0.0
C1498 C 0.05437 0.25313 0.0162 0.0
C1499 C 0.05886 0.23277 0.12915 0.0
C1500 C 0.0537 0.23069 0.89535 0.0
C1501 C 0.04233 0.27031 0.83049 0.0
N1502 N 0.05611 0.23241 0.05603 0.0
N1503 N 0.0453 0.27056 0.90337 0.0
H1504 H 0.80177 0.30841 0.03057 0.0
H1505 H 0.80889 0.22904 0.39616 0.0
H1506 H 0.78732 0.23566 0.04914 0.0
H1507 H 0.80782 0.3074 0.40125 0.0
H1508 H 0.8039 0.23026 0.26408 0.0
H1509 H 0.80634 0.30795 0.16304 0.0
C1510 C 0.79939 0.29249 0.06282 0.0
C1511 C 0.79408 0.27212 0.0291 0.0
C1512 C 0.80483 0.24717 0.29414 0.0
C1513 C 0.79965 0.27114 0.17979 0.0
C1514 C 0.80781 0.24648 0.36917 0.0
C1515 C 0.80882 0.26816 0.40942 0.0
C1516 C 0.80304 0.2697 0.25902 0.0
C1517 C 0.80715 0.29028 0.37208 0.0
C1518 C 0.80206 0.29219 0.13822 0.0
C1519 C 0.7913 0.25184 0.07319 0.0
N1520 N 0.80439 0.2905 0.29897 0.0
N1521 N 0.79426 0.25174 0.14609 0.0
H1522 H 0.4323 0.04122 0.40185 0.0
H1523 H 0.4311 0.96336 0.03003 0.0
H1524 H 0.42256 0.9652 0.3976 0.0
H1525 H 0.45106 0.03064 0.05185 0.0
H1526 H 0.42661 0.96442 0.16235 0.0
H1527 H 0.43734 0.03905 0.27038 0.0
C1528 C 0.43105 0.02416 0.37295 0.0
C1529 C 0.42696 1.00338 0.41051 0.0
C1530 C 0.43208 0.97882 0.13838 0.0
C1531 C 0.43283 1.00068 0.26035 0.0
C1532 C 0.43469 0.97816 0.06297 0.0
C1533 C 0.44151 0.99689 0.03009 0.0
C1534 C 0.43613 0.99858 0.18101 0.0
C1535 C 0.44586 0.01574 0.07513 0.0
C1536 C 0.43405 0.02287 0.29813 0.0
C1537 C 0.42565 0.98167 0.3706 0.0
N1538 N 0.44298 0.01625 0.14813 0.0
N1539 N 0.42856 0.98089 0.29768 0.0
H1540 H 0.80865 0.03933 0.84955 0.0
H1541 H 0.80192 0.96034 0.21521 0.0
H1542 H 0.80692 0.96098 0.84484 0.0
H1543 H 0.78734 0.03287 0.19724 0.0
H1544 H 0.8062 0.96075 0.08253 0.0
H1545 H 0.80385 0.03827 0.98193 0.0
C1546 C 0.80747 0.02193 0.87671 0.0
C1547 C 0.80822 1.0002 0.83665 0.0
C1548 C 0.80195 0.97646 0.10754 0.0
C1549 C 0.80268 0.99884 0.98697 0.0
C1550 C 0.79945 0.97619 0.183 0.0
C1551 C 0.7942 0.99653 0.21683 0.0
C1552 C 0.79944 0.99746 0.06613 0.0
C1553 C 0.79128 0.01672 0.17296 0.0
C1554 C 0.80459 0.02133 0.95182 0.0
C1555 C 0.80644 0.97813 0.874 0.0
N1556 N 0.79409 0.01682 0.09991 0.0
N1557 N 0.8038 0.97799 0.94715 0.0
H1558 H 0.42076 0.30354 0.84835 0.0
H1559 H 0.45445 0.24309 0.19524 0.0
H1560 H 0.43722 0.23242 0.84315 0.0
H1561 H 0.4307 0.30516 0.21405 0.0
H1562 H 0.45016 0.24156 0.06272 0.0
H1563 H 0.42562 0.30642 0.98004 0.0
C1564 C 0.42527 0.28842 0.87518 0.0
C1565 C 0.42852 0.26765 0.835 0.0
C1566 C 0.44596 0.25563 0.09573 0.0
C1567 C 0.43438 0.27104 0.98505 0.0
C1568 C 0.4485 0.25666 0.17121 0.0
C1569 C 0.44293 0.27429 0.21558 0.0
C1570 C 0.43783 0.27245 0.0643 0.0
C1571 C 0.4352 0.29129 0.18173 0.0
C1572 C 0.4281 0.29012 0.9502 0.0
C1573 C 0.43446 0.24868 0.87225 0.0
N1574 N 0.43285 0.28991 0.10819 0.0
N1575 N 0.43727 0.25089 0.945 0.0
H1576 H 0.18093 0.71569 0.98093 0.0
H1577 H 0.18286 0.79361 0.60885 0.0
H1578 H 0.20139 0.7824 0.95923 0.0
H1579 H 0.17252 0.7179 0.61337 0.0
H1580 H 0.18783 0.79128 0.74043 0.0
H1581 H 0.17649 0.71694 0.84855 0.0
C1582 C 0.18465 0.7304 0.948 0.0
C1583 C 0.19158 0.74891 0.98092 0.0
C1584 C 0.18442 0.7752 0.71272 0.0
C1585 C 0.18626 0.75083 0.82995 0.0
C1586 C 0.18147 0.77659 0.63783 0.0
C1587 C 0.17723 0.75594 0.60033 0.0
C1588 C 0.18301 0.75305 0.75058 0.0
C1589 C 0.17572 0.73427 0.64034 0.0
C1590 C 0.18206 0.73117 0.87257 0.0
C1591 C 0.19608 0.76766 0.93591 0.0
N1592 N 0.17859 0.73339 0.7133 0.0
N1593 N 0.19324 0.76829 0.86288 0.0
H1594 H 0.55665 0.98015 0.6042 0.0
H1595 H 0.55453 0.05837 0.97504 0.0
H1596 H 0.56282 0.05763 0.60725 0.0
H1597 H 0.5371 0.98835 0.95374 0.0
H1598 H 0.55912 0.05779 0.8428 0.0
H1599 H 0.55154 0.98161 0.73577 0.0
C1600 C 0.55711 0.9974 0.63286 0.0
C1601 C 0.56021 0.01879 0.59496 0.0
C1602 C 0.55418 0.04266 0.86687 0.0
C1603 C 0.55427 0.02065 0.74512 0.0
C1604 C 0.55151 0.04304 0.94222 0.0
C1605 C 0.54537 0.02343 0.97521 0.0
C1606 C 0.55089 0.02231 0.82442 0.0
C1607 C 0.54176 1.00393 0.93034 0.0
C1608 C 0.55407 0.99827 0.70771 0.0
C1609 C 0.56052 0.0407 0.63453 0.0
N1610 N 0.54468 1.00373 0.85739 0.0
N1611 N 0.5576 0.04108 0.70745 0.0
H1612 H 0.20342 0.99455 0.80585 0.0
H1613 H 0.17279 0.05992 0.15387 0.0
H1614 H 0.18199 0.05992 0.78707 0.0
H1615 H 0.18487 0.98535 0.15661 0.0
H1616 H 0.17771 0.06217 0.02218 0.0
H1617 H 0.19895 0.99335 0.93824 0.0
C1618 C 0.19796 1.00889 0.82986 0.0
C1619 C 0.19308 0.02738 0.78553 0.0
C1620 C 0.1792 0.04526 0.05145 0.0
C1621 C 0.1878 0.02597 0.93667 0.0
C1622 C 0.17634 0.04393 0.12648 0.0
C1623 C 0.17835 0.02237 0.16601 0.0
C1624 C 0.18429 0.02498 0.0159 0.0
C1625 C 0.18308 1.00227 0.12803 0.0
C1626 C 0.1953 1.00806 0.90525 0.0
C1627 C 0.18595 0.04536 0.81936 0.0
N1628 N 0.18598 1.00411 0.05526 0.0
N1629 N 0.18351 0.0442 0.89284 0.0
H1630 H 0.55409 0.71381 0.79767 0.0
H1631 H 0.5529 0.79133 0.17024 0.0
H1632 H 0.53432 0.7811 0.81956 0.0
H1633 H 0.56289 0.71556 0.16471 0.0
H1634 H 0.54778 0.78926 0.03884 0.0
H1635 H 0.55857 0.71481 0.92997 0.0
C1636 C 0.55053 0.7286 0.83062 0.0
C1637 C 0.54378 0.74735 0.79773 0.0
C1638 C 0.55115 0.77311 0.06626 0.0
C1639 C 0.54914 0.74897 0.94874 0.0
C1640 C 0.55419 0.77435 0.14105 0.0
C1641 C 0.55839 0.75361 0.17822 0.0
C1642 C 0.55244 0.75102 0.02812 0.0
C1643 C 0.55974 0.732 0.13799 0.0
C1644 C 0.55314 0.72923 0.90604 0.0
C1645 C 0.53948 0.76619 0.84283 0.0
N1646 N 0.5568 0.73127 0.06511 0.0
N1647 N 0.54234 0.76666 0.91587 0.0
H1648 H 0.79015 0.79904 0.54618 0.0
H1649 H 0.81609 0.73107 0.90442 0.0
H1650 H 0.79813 0.72229 0.55554 0.0
H1651 H 0.80164 0.80396 0.90839 0.0
H1652 H 0.81154 0.72893 0.77218 0.0
H1653 H 0.79537 0.8023 0.67742 0.0
C1654 C 0.79278 0.78285 0.57624 0.0
C1655 C 0.7937 0.76039 0.54045 0.0
C1656 C 0.80945 0.74546 0.80197 0.0
C1657 C 0.79997 0.76399 0.68895 0.0
C1658 C 0.81218 0.74674 0.87706 0.0
C1659 C 0.80919 0.76766 0.91687 0.0
C1660 C 0.80376 0.7653 0.76701 0.0
C1661 C 0.80402 0.78744 0.87937 0.0
C1662 C 0.79588 0.78472 0.65075 0.0
C1663 C 0.79731 0.73997 0.5813 0.0
N1664 N 0.80141 0.78575 0.80653 0.0
N1665 N 0.8004 0.74228 0.65326 0.0
H1666 H 0.42722 0.54468 0.90231 0.0
H1667 H 0.44055 0.46639 0.53736 0.0
H1668 H 0.43029 0.46652 0.90235 0.0
H1669 H 0.44247 0.54469 0.54525 0.0
H1670 H 0.43615 0.46581 0.67002 0.0
H1671 H 0.43159 0.54493 0.76971 0.0
C1672 C 0.42866 0.52756 0.87419 0.0
C1673 C 0.42836 0.50555 0.91329 0.0
C1674 C 0.43761 0.48312 0.64284 0.0
C1675 C 0.43352 0.50565 0.76175 0.0
C1676 C 0.44019 0.48343 0.56722 0.0
C1677 C 0.44193 0.50561 0.53035 0.0
C1678 C 0.43666 0.50517 0.68176 0.0
C1679 C 0.44125 0.52717 0.57156 0.0
C1680 C 0.43125 0.5277 0.79861 0.0
C1681 C 0.4304 0.4839 0.87424 0.0
N1682 N 0.43861 0.52642 0.64482 0.0
N1683 N 0.43291 0.48448 0.80078 0.0
H1684 H 0.79931 0.5377 0.3429 0.0
H1685 H 0.80693 0.46186 0.71697 0.0
H1686 H 0.81677 0.46757 0.35191 0.0
H1687 H 0.78315 0.52382 0.69575 0.0
H1688 H 0.81121 0.46405 0.58462 0.0
H1689 H 0.79445 0.53419 0.47419 0.0
C1690 C 0.80227 0.5217 0.37281 0.0
C1691 C 0.8085 0.50294 0.33662 0.0
C1692 C 0.80496 0.47702 0.60869 0.0
C1693 C 0.80283 0.49863 0.48673 0.0
C1694 C 0.80245 0.47568 0.68415 0.0
C1695 C 0.79465 0.49264 0.71725 0.0
C1696 C 0.79973 0.49565 0.56614 0.0
C1697 C 0.78917 0.5103 0.67233 0.0
C1698 C 0.79939 0.5196 0.44761 0.0
C1699 C 0.812 0.4825 0.37784 0.0
N1700 N 0.79191 0.51149 0.59923 0.0
N1701 N 0.80912 0.48089 0.45069 0.0
H1702 H 0.43708 0.80844 0.72893 0.0
H1703 H 0.43202 0.72893 0.35851 0.0
H1704 H 0.44464 0.7316 0.7191 0.0
H1705 H 0.42382 0.80551 0.36763 0.0
H1706 H 0.43654 0.72955 0.49069 0.0
H1707 H 0.4326 0.80807 0.59643 0.0
C1708 C 0.43795 0.79156 0.69867 0.0
C1709 C 0.44128 0.77004 0.73502 0.0
C1710 C 0.43369 0.74621 0.46402 0.0
C1711 C 0.43598 0.76936 0.58352 0.0
C1712 C 0.43103 0.74582 0.38857 0.0
C1713 C 0.42749 0.76717 0.35208 0.0
C1714 C 0.43285 0.76816 0.50347 0.0
C1715 C 0.42646 0.7886 0.39367 0.0
C1716 C 0.43531 0.79131 0.62311 0.0
C1717 C 0.44215 0.74863 0.69323 0.0
N1718 N 0.42917 0.78857 0.46699 0.0
N1719 N 0.43948 0.74882 0.61994 0.0
H1720 H 0.20199 0.24428 0.08354 0.0
H1721 H 0.17294 0.23393 0.48071 0.0
H1722 H 0.16411 0.26123 0.12123 0.0
H1723 H 0.20958 0.26097 0.45093 0.0
H1724 H 0.16993 0.23514 0.34713 0.0
H1725 H 0.20525 0.24233 0.21684 0.0
C1726 C 0.19434 0.2475 0.12005 0.0
C1727 C 0.18275 0.25288 0.0917 0.0
C1728 C 0.17864 0.24066 0.36992 0.0
C1729 C 0.18641 0.25026 0.24367 0.0
C1730 C 0.18043 0.23975 0.44592 0.0
C1731 C 0.19155 0.24732 0.47669 0.0
C1732 C 0.18813 0.24869 0.32429 0.0
C1733 C 0.20089 0.25493 0.42921 0.0
C1734 C 0.19624 0.24648 0.19588 0.0
C1735 C 0.17318 0.25708 0.14116 0.0
N1736 N 0.199 0.25531 0.35505 0.0
N1737 N 0.17519 0.25542 0.21509 0.0
H1738 H 0.55436 0.55961 0.47654 0.0
H1739 H 0.56094 0.47999 0.11231 0.0
H1740 H 0.53947 0.48717 0.4591 0.0
H1741 H 0.55935 0.55831 0.10511 0.0
H1742 H 0.55617 0.48141 0.24467 0.0
H1743 H 0.55872 0.55905 0.34382 0.0
C1744 C 0.55184 0.54376 0.44449 0.0
C1745 C 0.54647 0.52348 0.47853 0.0
C1746 C 0.55694 0.49827 0.21405 0.0
C1747 C 0.55181 0.52238 0.32778 0.0
C1748 C 0.55979 0.49747 0.1389 0.0
C1749 C 0.56057 0.51907 0.09807 0.0
C1750 C 0.55508 0.52084 0.24857 0.0
C1751 C 0.55884 0.54124 0.13481 0.0
C1752 C 0.55438 0.54339 0.369 0.0
C1753 C 0.54351 0.50327 0.43477 0.0
N1754 N 0.55622 0.54158 0.20805 0.0
N1755 N 0.54636 0.5031 0.36178 0.0
H1756 H 0.20139 0.49694 0.29397 0.0
H1757 H 0.17059 0.56206 0.64183 0.0
H1758 H 0.17969 0.56193 0.27481 0.0
H1759 H 0.18273 0.48753 0.64449 0.0
H1760 H 0.17552 0.56434 0.51013 0.0
H1761 H 0.19693 0.49575 0.42637 0.0
C1762 C 0.19587 0.5112 0.3179 0.0
C1763 C 0.19091 0.52958 0.27346 0.0
C1764 C 0.17702 0.54743 0.5394 0.0
C1765 C 0.18564 0.52818 0.4246 0.0
C1766 C 0.17416 0.54609 0.61443 0.0
C1767 C 0.17618 0.52452 0.65392 0.0
C1768 C 0.18213 0.52717 0.50383 0.0
C1769 C 0.18093 0.50445 0.61593 0.0
C1770 C 0.19321 0.51037 0.39329 0.0
C1771 C 0.1837 0.54746 0.30718 0.0
N1772 N 0.18383 0.50631 0.54317 0.0
N1773 N 0.18127 0.54631 0.38067 0.0
H1774 H 0.53469 0.27408 0.28842 0.0
H1775 H 0.56913 0.2155 0.63558 0.0
H1776 H 0.55903 0.2129 0.27022 0.0
H1777 H 0.5517 0.28569 0.64062 0.0
H1778 H 0.56429 0.21229 0.50396 0.0
H1779 H 0.53898 0.27596 0.42087 0.0
C1780 C 0.54077 0.26077 0.31257 0.0
C1781 C 0.5465 0.24329 0.26838 0.0
C1782 C 0.5616 0.22847 0.53373 0.0
C1783 C 0.55161 0.24554 0.41961 0.0
C1784 C 0.56442 0.23036 0.60872 0.0
C1785 C 0.56088 0.25095 0.64886 0.0
C1786 C 0.55505 0.24719 0.49884 0.0
C1787 C 0.55468 0.26958 0.61157 0.0
C1788 C 0.54331 0.262 0.38803 0.0
C1789 C 0.5544 0.22664 0.3024 0.0
N1790 N 0.5519 0.26719 0.53883 0.0
N1791 N 0.55675 0.22821 0.3759 0.0
H1792 H 0.28911 0.44034 0.45682 0.0
H1793 H 0.32754 0.33676 0.25556 0.0
H1794 H 0.32753 0.42979 0.4952 0.0
H1795 H 0.28929 0.32716 0.30251 0.0
H1796 H 0.32747 0.37429 0.32817 0.0
H1797 H 0.28871 0.40244 0.38435 0.0
C1798 C 0.29746 0.43013 0.44966 0.0
C1799 C 0.30837 0.43817 0.48225 0.0
C1800 C 0.31909 0.36397 0.32276 0.0
C1801 C 0.308 0.39506 0.39905 0.0
C1802 C 0.31912 0.34257 0.28121 0.0
C1803 C 0.30841 0.3288 0.27301 0.0
C1804 C 0.30822 0.37207 0.35536 0.0
C1805 C 0.29776 0.3372 0.30764 0.0
C1806 C 0.29721 0.40847 0.40872 0.0
C1807 C 0.31892 0.42422 0.47131 0.0
N1808 N 0.29789 0.35841 0.34677 0.0
N1809 N 0.31849 0.40348 0.43038 0.0
H1810 H 0.95 0.82723 0.45688 0.0
H1811 H 0.91158 0.93369 0.2692 0.0
H1812 H 0.91196 0.83977 0.5027 0.0
H1813 H 0.95024 0.9416 0.30548 0.0
H1814 H 0.91181 0.89596 0.34045 0.0
H1815 H 0.95059 0.86567 0.38641 0.0
C1816 C 0.94178 0.83798 0.45178 0.0
C1817 C 0.93091 0.83034 0.4858 0.0
C1818 C 0.92026 0.90593 0.33313 0.0
C1819 C 0.9315 0.87403 0.40512 0.0
C1820 C 0.92014 0.92749 0.29236 0.0
C1821 C 0.9309 0.94084 0.28148 0.0
C1822 C 0.93128 0.89724 0.36236 0.0
C1823 C 0.94173 0.9319 0.31289 0.0
C1824 C 0.94214 0.85994 0.41204 0.0
C1825 C 0.92053 0.84499 0.47763 0.0
N1826 N 0.94167 0.91051 0.3514 0.0
N1827 N 0.92107 0.86596 0.43791 0.0
H1828 H 0.33014 0.93062 0.99876 0.0
H1829 H 0.29103 0.82628 0.80317 0.0
H1830 H 0.29149 0.93812 0.96204 0.0
H1831 H 0.32936 0.83689 0.76079 0.0
H1832 H 0.29092 0.86406 0.87588 0.0
H1833 H 0.32999 0.8933 0.92498 0.0
C1834 C 0.32162 0.92441 0.97503 0.0
C1835 C 0.31082 0.9375 0.98651 0.0
C1836 C 0.29934 0.85809 0.85059 0.0
C1837 C 0.31053 0.8945 0.90293 0.0
C1838 C 0.29942 0.8365 0.80947 0.0
C1839 C 0.31022 0.82848 0.77573 0.0
C1840 C 0.31018 0.87153 0.85916 0.0
C1841 C 0.32083 0.84244 0.78561 0.0
C1842 C 0.32154 0.90313 0.93285 0.0
C1843 C 0.30003 0.92861 0.95436 0.0
N1844 N 0.32056 0.86316 0.82667 0.0
N1845 N 0.30013 0.90755 0.91458 0.0
H1846 H 0.94741 0.44155 0.79971 0.0
H1847 H 0.90896 0.33647 0.99615 0.0
H1848 H 0.90922 0.42937 0.75657 0.0
H1849 H 0.94764 0.32925 0.9598 0.0
H1850 H 0.90902 0.37364 0.92189 0.0
H1851 H 0.94786 0.40374 0.87271 0.0
C1852 C 0.93912 0.43099 0.8059 0.0
C1853 C 0.92826 0.43857 0.7719 0.0
C1854 C 0.9175 0.36392 0.92989 0.0
C1855 C 0.92869 0.39552 0.85559 0.0
C1856 C 0.91748 0.34271 0.97239 0.0
C1857 C 0.92831 0.32973 0.98413 0.0
C1858 C 0.92848 0.37262 0.89983 0.0
C1859 C 0.93908 0.33867 0.95187 0.0
C1860 C 0.9394 0.40938 0.84714 0.0
C1861 C 0.91779 0.42417 0.7816 0.0
N1862 N 0.93892 0.3597 0.91171 0.0
N1863 N 0.91825 0.40348 0.82279 0.0
H1864 H 0.6683 0.6709 0.81642 0.0
H1865 H 0.68926 0.60694 0.44918 0.0
H1866 H 0.69564 0.70347 0.67669 0.0
H1867 H 0.68014 0.5643 0.64081 0.0
H1868 H 0.6896 0.64365 0.52576 0.0
H1869 H 0.67038 0.63269 0.74773 0.0
C1870 C 0.67472 0.67004 0.77116 0.0
C1871 C 0.68172 0.6905 0.7517 0.0
C1872 C 0.68767 0.62624 0.55129 0.0
C1873 C 0.68401 0.64693 0.67246 0.0
C1874 C 0.68745 0.60532 0.50769 0.0
C1875 C 0.68482 0.58258 0.53903 0.0
C1876 C 0.68484 0.62457 0.62652 0.0
C1877 C 0.68244 0.58145 0.61493 0.0
C1878 C 0.67594 0.64819 0.73234 0.0
C1879 C 0.68996 0.68826 0.69294 0.0
N1880 N 0.68233 0.60224 0.65604 0.0
N1881 N 0.69076 0.66699 0.65475 0.0
H1882 H 0.03858 0.08286 0.70878 0.0
H1883 H 0.07772 0.18803 0.51818 0.0
H1884 H 0.07695 0.0934 0.75031 0.0
H1885 H 0.03909 0.19608 0.55457 0.0
H1886 H 0.07741 0.15053 0.59081 0.0
H1887 H 0.03831 0.12138 0.63923 0.0
C1888 C 0.04694 0.09324 0.70308 0.0
C1889 C 0.05781 0.08497 0.73547 0.0
C1890 C 0.069 0.16051 0.58323 0.0
C1891 C 0.05758 0.12879 0.65568 0.0
C1892 C 0.06916 0.1819 0.54166 0.0
C1893 C 0.05842 0.19519 0.53036 0.0
C1894 C 0.05795 0.15195 0.6128 0.0
C1895 C 0.04759 0.1864 0.56219 0.0
C1896 C 0.04676 0.11524 0.66378 0.0
C1897 C 0.06837 0.09913 0.72648 0.0
N1898 N 0.0476 0.16519 0.60144 0.0
N1899 N 0.06801 0.1202 0.68714 0.0
H1900 H 0.66026 0.09233 0.99687 0.0
H1901 H 0.70061 0.19629 0.1854 0.0
H1902 H 0.69851 0.08145 0.04064 0.0
H1903 H 0.66192 0.18847 0.22085 0.0
H1904 H 0.7005 0.15752 0.11686 0.0
H1905 H 0.66113 0.13079 0.06404 0.0
C1906 C 0.66885 0.09803 0.02084 0.0
C1907 C 0.67932 0.08363 0.01331 0.0
C1908 C 0.69206 0.16437 0.13968 0.0
C1909 C 0.68043 0.128 0.08962 0.0
C1910 C 0.6921 0.18652 0.17829 0.0
C1911 C 0.68126 0.19555 0.20897 0.0
C1912 C 0.68105 0.1515 0.13053 0.0
C1913 C 0.67049 0.18214 0.19841 0.0
C1914 C 0.66934 0.12 0.05925 0.0
C1915 C 0.69022 0.09197 0.04548 0.0
N1916 N 0.67065 0.16094 0.15988 0.0
N1917 N 0.69052 0.11373 0.08182 0.0
H1918 H 0.07794 0.68646 0.01063 0.0
H1919 H 0.03924 0.58074 0.20297 0.0
H1920 H 0.03931 0.69357 0.04868 0.0
H1921 H 0.07752 0.59204 0.24533 0.0
H1922 H 0.03894 0.61864 0.13051 0.0
H1923 H 0.07785 0.64852 0.0815 0.0
C1924 C 0.06943 0.68 0.0339 0.0
C1925 C 0.05862 0.69319 0.02382 0.0
C1926 C 0.04739 0.61278 0.15571 0.0
C1927 C 0.05841 0.64953 0.10421 0.0
C1928 C 0.04758 0.59112 0.19666 0.0
C1929 C 0.05842 0.58331 0.23038 0.0
C1930 C 0.05817 0.62643 0.14729 0.0
C1931 C 0.06897 0.59745 0.22053 0.0
C1932 C 0.06939 0.65838 0.07446 0.0
C1933 C 0.04785 0.68399 0.05535 0.0
N1934 N 0.06859 0.61821 0.17967 0.0
N1935 N 0.04799 0.66262 0.09369 0.0
H1936 H 0.82689 0.42999 0.99374 0.0
H1937 H 0.7877 0.32592 0.7974 0.0
H1938 H 0.78859 0.43944 0.94857 0.0
H1939 H 0.82621 0.33576 0.75968 0.0
H1940 H 0.78753 0.36397 0.86926 0.0
H1941 H 0.82655 0.39197 0.92358 0.0
C1942 C 0.81841 0.42405 0.96895 0.0
C1943 C 0.80777 0.43791 0.97683 0.0
C1944 C 0.796 0.35774 0.8452 0.0
C1945 C 0.80725 0.39414 0.89736 0.0
C1946 C 0.79612 0.336 0.80464 0.0
C1947 C 0.80698 0.32776 0.77237 0.0
C1948 C 0.80688 0.37099 0.85469 0.0
C1949 C 0.81763 0.34152 0.78331 0.0
C1950 C 0.81822 0.40236 0.92885 0.0
C1951 C 0.79701 0.42933 0.94353 0.0
N1952 N 0.81732 0.36233 0.82376 0.0
N1953 N 0.797 0.40788 0.90569 0.0
H1954 H 0.44712 0.94448 0.80571 0.0
H1955 H 0.40838 0.83994 0.00405 0.0
H1956 H 0.40875 0.93368 0.76463 0.0
H1957 H 0.44701 0.83307 0.96536 0.0
H1958 H 0.40834 0.87755 0.93116 0.0
H1959 H 0.44728 0.90706 0.88008 0.0
C1960 C 0.43872 0.9343 0.81268 0.0
C1961 C 0.42791 0.94213 0.77876 0.0
C1962 C 0.41682 0.8678 0.93855 0.0
C1963 C 0.42801 0.89949 0.8641 0.0
C1964 C 0.41686 0.84638 0.98024 0.0
C1965 C 0.42772 0.83337 0.99071 0.0
C1966 C 0.42777 0.87659 0.90814 0.0
C1967 C 0.43844 0.84252 0.95846 0.0
C1968 C 0.43884 0.91291 0.85477 0.0
C1969 C 0.4173 0.92824 0.78956 0.0
N1970 N 0.43822 0.86366 0.9191 0.0
N1971 N 0.4176 0.90769 0.83151 0.0
H1972 H 0.79804 0.85289 0.18408 0.0
H1973 H 0.81893 0.91987 0.54476 0.0
H1974 H 0.80708 0.81168 0.37857 0.0
H1975 H 0.78994 0.94975 0.41225 0.0
H1976 H 0.81706 0.8814 0.47758 0.0
H1977 H 0.79722 0.89001 0.25894 0.0
C1978 C 0.79974 0.85166 0.2428 0.0
C1979 C 0.80253 0.8292 0.27544 0.0
C1980 C 0.8111 0.89637 0.46336 0.0
C1981 C 0.80195 0.87166 0.36084 0.0
C1982 C 0.81219 0.9184 0.5013 0.0
C1983 C 0.80469 0.93823 0.48341 0.0
C1984 C 0.80264 0.89426 0.40573 0.0
C1985 C 0.79606 0.93512 0.42699 0.0
C1986 C 0.79924 0.87281 0.28538 0.0
C1987 C 0.80472 0.82859 0.35159 0.0
N1988 N 0.79539 0.91368 0.38936 0.0
N1989 N 0.80459 0.8496 0.39163 0.0
H1990 H 0.44905 0.32801 0.44282 0.0
H1991 H 0.41035 0.43445 0.25588 0.0
H1992 H 0.41078 0.3388 0.48587 0.0
H1993 H 0.44899 0.4418 0.29433 0.0
H1994 H 0.41046 0.39612 0.32481 0.0
H1995 H 0.44936 0.36632 0.37229 0.0
C1996 C 0.44071 0.33836 0.43706 0.0
C1997 C 0.42988 0.33028 0.47044 0.0
C1998 C 0.41892 0.40611 0.31829 0.0
C1999 C 0.43015 0.37388 0.38952 0.0
C2000 C 0.41887 0.42796 0.27883 0.0
C2001 C 0.42967 0.44134 0.26942 0.0
C2002 C 0.4299 0.39722 0.3476 0.0
C2003 C 0.44045 0.43208 0.30051 0.0
C2004 C 0.44091 0.36025 0.39721 0.0
C2005 C 0.41934 0.34441 0.46132 0.0
N2006 N 0.44032 0.41049 0.33775 0.0
N2007 N 0.41972 0.3654 0.42151 0.0
H2008 H 0.19699 0.58303 0.0483 0.0
H2009 H 0.15844 0.68729 0.24636 0.0
H2010 H 0.15868 0.5941 0.00694 0.0
H2011 H 0.19708 0.69481 0.20866 0.0
H2012 H 0.15843 0.65005 0.17229 0.0
H2013 H 0.19733 0.62068 0.12172 0.0
C2014 C 0.18865 0.59331 0.05499 0.0
C2015 C 0.17779 0.58548 0.02131 0.0
C2016 C 0.16691 0.65986 0.18001 0.0
C2017 C 0.1781 0.62836 0.10554 0.0
C2018 C 0.16693 0.6811 0.22237 0.0
C2019 C 0.17777 0.69417 0.23363 0.0
C2020 C 0.17787 0.65125 0.14969 0.0
C2021 C 0.18851 0.68531 0.20114 0.0
C2022 C 0.18886 0.61484 0.0965 0.0
C2023 C 0.16726 0.59952 0.03169 0.0
N2024 N 0.18832 0.66428 0.16117 0.0
N2025 N 0.16765 0.62015 0.07312 0.0
H2026 H 0.53967 0.07735 0.19947 0.0
H2027 H 0.57905 0.18025 0.99837 0.0
H2028 H 0.57816 0.08718 0.23809 0.0
H2029 H 0.54062 0.18943 0.03988 0.0
H2030 H 0.57871 0.14279 0.07159 0.0
H2031 H 0.53961 0.11492 0.12536 0.0
C2032 C 0.54811 0.08733 0.19197 0.0
C2033 C 0.55893 0.0792 0.22513 0.0
C2034 C 0.57035 0.15301 0.06486 0.0
C2035 C 0.55895 0.12196 0.14023 0.0
C2036 C 0.57053 0.17437 0.023 0.0
C2037 C 0.55985 0.18797 0.01313 0.0
C2038 C 0.55936 0.14485 0.09611 0.0
C2039 C 0.54907 0.1795 0.04638 0.0
C2040 C 0.54805 0.1088 0.1501 0.0
C2041 C 0.56961 0.09285 0.21377 0.0
N2042 N 0.54907 0.15837 0.08591 0.0
N2043 N 0.56936 0.11343 0.17206 0.0
H2044 H 0.19972 0.08187 0.55605 0.0
H2045 H 0.16141 0.18694 0.75116 0.0
H2046 H 0.16129 0.09247 0.51793 0.0
H2047 H 0.19973 0.19593 0.70527 0.0
H2048 H 0.16147 0.14901 0.6807 0.0
H2049 H 0.20023 0.12021 0.62646 0.0
C2050 C 0.19139 0.09218 0.56288 0.0
C2051 C 0.18045 0.08403 0.53096 0.0
C2052 C 0.16987 0.15927 0.68583 0.0
C2053 C 0.18094 0.12763 0.6117 0.0
C2054 C 0.16985 0.18091 0.72615 0.0
C2055 C 0.18058 0.19462 0.73405 0.0
C2056 C 0.18076 0.15088 0.65411 0.0
C2057 C 0.19125 0.18594 0.70031 0.0
C2058 C 0.1917 0.11409 0.60261 0.0
C2059 C 0.16993 0.09811 0.54136 0.0
N2060 N 0.19111 0.16449 0.66233 0.0
N2061 N 0.17042 0.11908 0.58107 0.0
H2062 H 0.57757 0.58822 0.75605 0.0
H2063 H 0.53764 0.69238 0.5671 0.0
H2064 H 0.53928 0.57751 0.71246 0.0
H2065 H 0.57626 0.68424 0.5306 0.0
H2066 H 0.53761 0.65359 0.6357 0.0
H2067 H 0.57686 0.62658 0.68805 0.0
C2068 C 0.569 0.59395 0.73197 0.0
C2069 C 0.55847 0.57962 0.73982 0.0
C2070 C 0.54607 0.66036 0.61262 0.0
C2071 C 0.55755 0.62389 0.66261 0.0
C2072 C 0.54611 0.68253 0.57397 0.0
C2073 C 0.55698 0.69149 0.54301 0.0
C2074 C 0.55702 0.64739 0.6215 0.0
C2075 C 0.56768 0.67798 0.5533 0.0
C2076 C 0.56861 0.61585 0.69307 0.0
C2077 C 0.54761 0.58797 0.7074 0.0
N2078 N 0.56744 0.65675 0.59186 0.0
N2079 N 0.5474 0.60968 0.67067 0.0
H2080 H 0.3068 0.20421 0.10113 0.0
H2081 H 0.30569 0.05963 0.1729 0.0
H2082 H 0.30135 0.17205 0.31547 0.0
H2083 H 0.30192 0.09224 0.95807 0.0
H2084 H 0.30719 0.10058 0.22695 0.0
H2085 H 0.30808 0.16313 0.04795 0.0
C2086 C 0.30598 0.18851 0.13697 0.0
C2087 C 0.3039 0.1915 0.21264 0.0
C2088 C 0.30612 0.09873 0.16789 0.0
C2089 C 0.3054 0.14454 0.15264 0.0
C2090 C 0.30533 0.07536 0.13714 0.0
C2091 C 0.30366 0.07254 0.06105 0.0
C2092 C 0.30535 0.11937 0.12198 0.0
C2093 C 0.30314 0.09358 0.01715 0.0
C2094 C 0.30667 0.16509 0.10671 0.0
C2095 C 0.30289 0.17055 0.25671 0.0
N2096 N 0.30397 0.11604 0.04812 0.0
N2097 N 0.30364 0.14802 0.22616 0.0
H2098 H 0.93514 0.17455 0.94911 0.0
H2099 H 0.93502 0.0969 0.3201 0.0
H2100 H 0.93076 0.20699 0.16362 0.0
H2101 H 0.93178 0.06429 0.10501 0.0
H2102 H 0.93318 0.13715 0.26425 0.0
H2103 H 0.93363 0.13422 0.00484 0.0
C2104 C 0.93377 0.17316 0.0081 0.0
C2105 C 0.9331 0.19416 0.05191 0.0
C2106 C 0.93275 0.12125 0.22914 0.0
C2107 C 0.93149 0.14785 0.1164 0.0
C2108 C 0.93382 0.09823 0.26096 0.0
C2109 C 0.93358 0.07722 0.21702 0.0
C2110 C 0.93158 0.12344 0.15243 0.0
C2111 C 0.93198 0.08002 0.14083 0.0
C2112 C 0.93288 0.15009 0.03985 0.0
C2113 C 0.93129 0.19128 0.1279 0.0
N2114 N 0.93116 0.10273 0.11083 0.0
N2115 N 0.93066 0.16853 0.15788 0.0
H2116 H 0.68448 0.92784 0.05828 0.0
H2117 H 0.68373 0.84826 0.69154 0.0
H2118 H 0.68062 0.95952 0.84215 0.0
H2119 H 0.67963 0.81718 0.90838 0.0
H2120 H 0.68241 0.88897 0.74492 0.0
H2121 H 0.68254 0.88736 0.00441 0.0
C2122 C 0.68314 0.92625 0.99931 0.0
C2123 C 0.68274 0.94707 0.9545 0.0
C2124 C 0.68169 0.87331 0.7809 0.0
C2125 C 0.68063 0.90058 0.89214 0.0
C2126 C 0.68247 0.85003 0.75051 0.0
C2127 C 0.68184 0.82933 0.79572 0.0
C2128 C 0.68043 0.876 0.85741 0.0
C2129 C 0.68016 0.83267 0.87161 0.0
C2130 C 0.682 0.9031 0.96862 0.0
C2131 C 0.68094 0.94394 0.87859 0.0
N2132 N 0.67963 0.85558 0.90019 0.0
N2133 N 0.68008 0.9211 0.84964 0.0
H2134 H 0.06808 0.94984 0.83879 0.0
H2135 H 0.02845 0.83333 0.95344 0.0
H2136 H 0.02928 0.9434 0.8053 0.0
H2137 H 0.06737 0.82874 0.92283 0.0
H2138 H 0.02896 0.87533 0.91052 0.0
H2139 H 0.06845 0.90732 0.88283 0.0
C2140 C 0.05965 0.93957 0.84144 0.0
C2141 C 0.04863 0.95005 0.81827 0.0
C2142 C 0.03741 0.8652 0.91272 0.0
C2143 C 0.04897 0.90176 0.86811 0.0
C2144 C 0.03712 0.84119 0.93721 0.0
C2145 C 0.04787 0.82757 0.94159 0.0
C2146 C 0.04859 0.87596 0.89318 0.0
C2147 C 0.05886 0.83864 0.91979 0.0
C2148 C 0.05987 0.91532 0.8659 0.0
C2149 C 0.03797 0.93598 0.82229 0.0
N2150 N 0.05896 0.86233 0.897 0.0
N2151 N 0.03841 0.91266 0.84674 0.0
H2152 H 0.30152 0.67372 0.81148 0.0
H2153 H 0.30279 0.59337 0.44634 0.0
H2154 H 0.30651 0.70462 0.5952 0.0
H2155 H 0.30546 0.56233 0.66389 0.0
H2156 H 0.3044 0.63401 0.49948 0.0
H2157 H 0.30317 0.63303 0.75889 0.0
C2158 C 0.30304 0.67195 0.75273 0.0
C2159 C 0.30385 0.69266 0.70754 0.0
C2160 C 0.30476 0.61838 0.53576 0.0
C2161 C 0.30565 0.64584 0.64663 0.0
C2162 C 0.30382 0.59511 0.5055 0.0
C2163 C 0.30398 0.57439 0.55085 0.0
C2164 C 0.3057 0.62113 0.61239 0.0
C2165 C 0.30536 0.57777 0.62696 0.0
C2166 C 0.30402 0.64864 0.72281 0.0
C2167 C 0.30587 0.6892 0.632 0.0
N2168 N 0.30604 0.60072 0.65545 0.0
N2169 N 0.30658 0.66623 0.60378 0.0
H2170 H 0.93071 0.7064 0.65968 0.0
H2171 H 0.93036 0.56175 0.5887 0.0
H2172 H 0.93369 0.67384 0.44442 0.0
H2173 H 0.9352 0.59427 0.80274 0.0
H2174 H 0.92855 0.60269 0.53501 0.0
H2175 H 0.92931 0.6654 0.71389 0.0
C2176 C 0.93092 0.69066 0.62388 0.0
C2177 C 0.93236 0.69348 0.5476 0.0
C2178 C 0.92993 0.60083 0.59384 0.0
C2179 C 0.93079 0.64664 0.60874 0.0
C2180 C 0.9309 0.57745 0.62438 0.0
C2181 C 0.93297 0.5746 0.70009 0.0
C2182 C 0.93093 0.62146 0.63957 0.0
C2183 C 0.93368 0.59563 0.74391 0.0
C2184 C 0.93018 0.66727 0.6547 0.0
C2185 C 0.93265 0.67246 0.50362 0.0
N2186 N 0.93269 0.6181 0.71313 0.0
N2187 N 0.9319 0.65 0.53471 0.0
H2188 H 0.6864 0.42523 0.55055 0.0
H2189 H 0.68949 0.35188 0.17242 0.0
H2190 H 0.68819 0.46101 0.33934 0.0
H2191 H 0.6823 0.31811 0.3825 0.0
H2192 H 0.6883 0.39189 0.23067 0.0
H2193 H 0.6841 0.38623 0.48886 0.0
C2194 C 0.68619 0.42488 0.49084 0.0
C2195 C 0.68747 0.44642 0.44993 0.0
C2196 C 0.68688 0.37579 0.26404 0.0
C2197 C 0.68499 0.40148 0.37847 0.0
C2198 C 0.68757 0.35291 0.23091 0.0
C2199 C 0.68604 0.33164 0.27287 0.0
C2200 C 0.68474 0.37749 0.34008 0.0
C2201 C 0.68353 0.33404 0.3482 0.0
C2202 C 0.68486 0.40254 0.45564 0.0
C2203 C 0.6871 0.44487 0.37286 0.0
N2204 N 0.68307 0.35655 0.3795 0.0
N2205 N 0.68602 0.4227 0.3395 0.0
H2206 H 0.05261 0.35033 0.56757 0.0
H2207 H 0.04991 0.42806 0.19778 0.0
H2208 H 0.05546 0.31776 0.35229 0.0
H2209 H 0.05642 0.46034 0.41049 0.0
H2210 H 0.05184 0.3877 0.25282 0.0
H2211 H 0.05396 0.39063 0.51136 0.0
C2212 C 0.05362 0.35169 0.5083 0.0
C2213 C 0.05391 0.33069 0.46442 0.0
C2214 C 0.05295 0.40357 0.28753 0.0
C2215 C 0.05531 0.37691 0.39944 0.0
C2216 C 0.05182 0.42666 0.25623 0.0
C2217 C 0.05295 0.44765 0.29982 0.0
C2218 C 0.05508 0.40131 0.36345 0.0
C2219 C 0.05548 0.4447 0.375 0.0
C2220 C 0.05442 0.37473 0.47629 0.0
C2221 C 0.05525 0.3335 0.38805 0.0
N2222 N 0.05633 0.42196 0.40463 0.0
N2223 N 0.05577 0.35622 0.35784 0.0
H2224 H 0.80289 0.09614 0.43543 0.0
H2225 H 0.80083 0.1721 0.809 0.0
H2226 H 0.8055 0.06273 0.64984 0.0
H2227 H 0.80581 0.20561 0.59621 0.0
H2228 H 0.80276 0.13207 0.75208 0.0
H2229 H 0.80423 0.13621 0.4929 0.0
C2230 C 0.80385 0.09726 0.49476 0.0
C2231 C 0.80407 0.07609 0.53804 0.0
C2232 C 0.80354 0.14812 0.71773 0.0
C2233 C 0.80547 0.12204 0.60445 0.0
C2234 C 0.80242 0.17101 0.75015 0.0
C2235 C 0.80314 0.1922 0.70713 0.0
C2236 C 0.80525 0.14627 0.64131 0.0
C2237 C 0.80523 0.18972 0.63131 0.0
C2238 C 0.80463 0.12017 0.52751 0.0
C2239 C 0.80535 0.07859 0.61452 0.0
N2240 N 0.8061 0.16715 0.60065 0.0
N2241 N 0.80588 0.10119 0.6454 0.0
H2242 H 0.43815 0.17461 0.43675 0.0
H2243 H 0.43608 0.09663 0.8067 0.0
H2244 H 0.43211 0.20674 0.6501 0.0
H2245 H 0.43335 0.06419 0.59126 0.0
H2246 H 0.43469 0.13694 0.75073 0.0
H2247 H 0.43646 0.13421 0.49186 0.0
C2248 C 0.4364 0.17317 0.49536 0.0
C2249 C 0.43532 0.19413 0.53906 0.0
C2250 C 0.43427 0.12106 0.71555 0.0
C2251 C 0.43348 0.14772 0.60282 0.0
C2252 C 0.43509 0.098 0.74743 0.0
C2253 C 0.43481 0.077 0.70347 0.0
C2254 C 0.43335 0.12328 0.63873 0.0
C2255 C 0.43349 0.07987 0.62712 0.0
C2256 C 0.4354 0.15005 0.52672 0.0
C2257 C 0.433 0.19112 0.61448 0.0
N2258 N 0.43294 0.1026 0.59705 0.0
N2259 N 0.43228 0.16834 0.64414 0.0
H2260 H 0.18638 0.9285 0.56649 0.0
H2261 H 0.18707 0.84872 0.20003 0.0
H2262 H 0.18316 0.95988 0.34967 0.0
H2263 H 0.18239 0.81748 0.41609 0.0
H2264 H 0.18553 0.88934 0.25338 0.0
H2265 H 0.18477 0.88793 0.5128 0.0
C2266 C 0.18524 0.92685 0.50739 0.0
C2267 C 0.18491 0.94766 0.4624 0.0
C2268 C 0.18473 0.87367 0.28925 0.0
C2269 C 0.1832 0.90099 0.40021 0.0
C2270 C 0.18564 0.85041 0.25888 0.0
C2271 C 0.18487 0.82962 0.30378 0.0
C2272 C 0.18321 0.87634 0.36556 0.0
C2273 C 0.18298 0.83296 0.3795 0.0
C2274 C 0.1843 0.90362 0.47681 0.0
C2275 C 0.18339 0.94438 0.38634 0.0
N2276 N 0.18233 0.85588 0.40813 0.0
N2277 N 0.18271 0.92148 0.35753 0.0
H2278 H 0.55543 0.81367 0.36217 0.0
H2279 H 0.55311 0.95876 0.4183 0.0
H2280 H 0.54773 0.84783 0.57048 0.0
H2281 H 0.55176 0.92392 0.20586 0.0
H2282 H 0.55425 0.91845 0.47694 0.0
H2283 H 0.55719 0.8541 0.30528 0.0
C2284 C 0.55422 0.82963 0.39595 0.0
C2285 C 0.55139 0.82734 0.47093 0.0
C2286 C 0.55381 0.91966 0.41743 0.0
C2287 C 0.55338 0.87371 0.40672 0.0
C2288 C 0.55326 0.94268 0.38407 0.0
C2289 C 0.55238 0.94468 0.30725 0.0
C2290 C 0.55359 0.89854 0.37346 0.0
C2291 C 0.55239 0.92319 0.26539 0.0
C2292 C 0.55517 0.85273 0.36356 0.0
C2293 C 0.54986 0.84873 0.51228 0.0
N2294 N 0.55298 0.90109 0.2989 0.0
N2295 N 0.55086 0.87096 0.47974 0.0
H2296 H 0.80442 0.67139 0.29995 0.0
H2297 H 0.79668 0.5933 0.93412 0.0
H2298 H 0.80099 0.70473 0.08584 0.0
H2299 H 0.80758 0.56247 0.14236 0.0
H2300 H 0.79865 0.63404 0.9866 0.0
H2301 H 0.80619 0.6317 0.2419 0.0
C2302 C 0.80416 0.67034 0.24032 0.0
C2303 C 0.80251 0.69137 0.19759 0.0
C2304 C 0.8007 0.61842 0.02079 0.0
C2305 C 0.80434 0.64563 0.13038 0.0
C2306 C 0.79954 0.5951 0.99102 0.0
C2307 C 0.80185 0.57439 0.0343 0.0
C2308 C 0.80409 0.62116 0.09484 0.0
C2309 C 0.8056 0.57787 0.10732 0.0
C2310 C 0.80518 0.64761 0.20721 0.0
C2311 C 0.8023 0.68896 0.12069 0.0
N2312 N 0.8065 0.60079 0.13548 0.0
N2313 N 0.80303 0.66639 0.08946 0.0
H2314 H 0.42063 0.57705 0.17033 0.0
H2315 H 0.46025 0.69523 0.07078 0.0
H2316 H 0.45942 0.58308 0.20501 0.0
H2317 H 0.42118 0.69856 0.09534 0.0
H2318 H 0.45981 0.65282 0.11018 0.0
H2319 H 0.42028 0.62001 0.13076 0.0
C2320 C 0.42906 0.58733 0.16886 0.0
C2321 C 0.44007 0.57657 0.19108 0.0
C2322 C 0.45131 0.66277 0.10747 0.0
C2323 C 0.43975 0.62544 0.14637 0.0
C2324 C 0.45157 0.68702 0.08508 0.0
C2325 C 0.44075 0.70042 0.07994 0.0
C2326 C 0.44012 0.65154 0.12412 0.0
C2327 C 0.42974 0.68887 0.09906 0.0
C2328 C 0.42885 0.61184 0.14694 0.0
C2329 C 0.45073 0.59069 0.18865 0.0
N2330 N 0.42969 0.66498 0.11978 0.0
N2331 N 0.4503 0.61429 0.16671 0.0
H2332 H 0.18757 0.3511 0.68575 0.0
H2333 H 0.18459 0.43061 0.05242 0.0
H2334 H 0.18151 0.31987 0.90071 0.0
H2335 H 0.18237 0.4623 0.83555 0.0
H2336 H 0.18345 0.39012 0.99788 0.0
H2337 H 0.18573 0.39178 0.73886 0.0
C2338 C 0.18579 0.35283 0.74424 0.0
C2339 C 0.18474 0.33207 0.789 0.0
C2340 C 0.18309 0.40586 0.96203 0.0
C2341 C 0.1827 0.37874 0.8504 0.0
C2342 C 0.18376 0.42903 0.99311 0.0
C2343 C 0.18357 0.44989 0.94838 0.0
C2344 C 0.18241 0.40334 0.88522 0.0
C2345 C 0.18246 0.44674 0.872 0.0
C2346 C 0.18471 0.37609 0.77446 0.0
C2347 C 0.18239 0.33539 0.86428 0.0
N2348 N 0.18205 0.42387 0.84271 0.0
N2349 N 0.18156 0.35829 0.89273 0.0
H2350 H 0.55131 0.34273 0.05252 0.0
H2351 H 0.55534 0.42387 0.68969 0.0
H2352 H 0.55795 0.31229 0.83751 0.0
H2353 H 0.55701 0.45435 0.90826 0.0
H2354 H 0.55652 0.38307 0.74241 0.0
H2355 H 0.55352 0.38352 1.00109 0.0
C2356 C 0.5533 0.34463 0.99431 0.0
C2357 C 0.55438 0.32403 0.94904 0.0
C2358 C 0.55676 0.39862 0.77899 0.0
C2359 C 0.55684 0.37093 0.88949 0.0
C2360 C 0.55606 0.42195 0.74897 0.0
C2361 C 0.55605 0.44252 0.79477 0.0
C2362 C 0.55725 0.39568 0.85573 0.0
C2363 C 0.55703 0.43898 0.87105 0.0
C2364 C 0.55459 0.36798 0.96506 0.0
C2365 C 0.55702 0.32763 0.87425 0.0
N2366 N 0.55746 0.41597 0.89924 0.0
N2367 N 0.55805 0.35064 0.84662 0.0
loop_
_geom_bond_atom_site_label_1
_geom_bond_atom_site_label_2
_geom_bond_distance
_geom_bond_site_symmetry_2
_ccdc_geom_bond_type
Dy0 O4 2.398 . S
Dy0 O5 2.491 . S
Dy0 O6 2.403 . S
Dy0 O7 2.664 . S
Dy0 O11 2.326 . S
Dy0 O15 2.310 . S
Dy0 O16 2.351 . S
C1 O12 1.185 . S
C1 O13 1.355 . S
C2 O4 1.185 1_556 S
C2 O5 1.355 1_556 S
Dy3 O7 2.310 . S
Dy3 O10 2.351 . S
Dy3 O12 2.398 . S
Dy3 O13 2.491 . S
Dy3 O14 2.403 . S
Dy3 O15 2.664 . S
Dy3 O17 2.326 . S
O4 Dy0 2.398 . S
O4 C2 1.185 1_554 S
O5 Dy0 2.491 . S
O5 C2 1.355 1_554 S
O6 Dy0 2.403 . S
O6 C8 1.254 . S
O7 Dy0 2.664 . S
O7 Dy3 2.310 . S
O7 C8 1.268 . S
C8 O6 1.254 . S
C8 O7 1.268 . S
C9 O14 1.254 . S
C9 O15 1.268 . S
O10 Dy3 2.351 . S
O10 C18 1.249 . S
O11 Dy0 2.326 . S
O11 C18 1.267 . S
O12 C1 1.185 . S
O12 Dy3 2.398 . S
O13 C1 1.355 . S
O13 Dy3 2.491 . S
O14 Dy3 2.403 . S
O14 C9 1.254 . S
O15 Dy0 2.310 . S
O15 Dy3 2.664 . S
O15 C9 1.268 . S
O16 Dy0 2.351 . S
O16 C19 1.249 . S
O17 Dy3 2.326 . S
O17 C19 1.267 . S
C18 O10 1.249 . S
C18 O11 1.267 . S
C19 O16 1.249 . S
C19 O17 1.267 . S
Dy20 O24 2.398 . S
Dy20 O25 2.491 1_565 S
Dy20 O26 2.403 . S
Dy20 O27 2.664 . S
Dy20 O31 2.326 . S
Dy20 O35 2.310 1_565 S
Dy20 O36 2.351 . S
C21 O32 1.185 . S
C21 O33 1.355 1_545 S
C22 O24 1.185 1_556 S
C22 O25 1.355 1_566 S
Dy23 O27 2.310 1_545 S
Dy23 O30 2.351 . S
Dy23 O32 2.398 . S
Dy23 O33 2.491 1_545 S
Dy23 O34 2.403 . S
Dy23 O35 2.664 . S
Dy23 O37 2.326 . S
O24 Dy20 2.398 . S
O24 C22 1.185 1_554 S
O25 Dy20 2.491 1_545 S
O25 C22 1.355 1_544 S
O26 Dy20 2.403 . S
O26 C28 1.254 . S
O27 Dy20 2.664 . S
O27 Dy23 2.310 1_565 S
O27 C28 1.268 . S
C28 O26 1.254 . S
C28 O27 1.268 . S
C29 O34 1.254 . S
C29 O35 1.268 . S
O30 Dy23 2.351 . S
O30 C38 1.249 1_545 S
O31 Dy20 2.326 . S
O31 C38 1.267 . S
O32 C21 1.185 . S
O32 Dy23 2.398 . S
O33 C21 1.355 1_565 S
O33 Dy23 2.491 1_565 S
O34 Dy23 2.403 . S
O34 C29 1.254 . S
O35 Dy20 2.310 1_545 S
O35 Dy23 2.664 . S
O35 C29 1.268 . S
O36 Dy20 2.351 . S
O36 C39 1.249 1_565 S
O37 Dy23 2.326 . S
O37 C39 1.267 . S
C38 O30 1.249 1_565 S
C38 O31 1.267 . S
C39 O36 1.249 1_545 S
C39 O37 1.267 . S
Dy40 O44 2.398 . S
Dy40 O45 2.491 1_565 S
Dy40 O46 2.403 . S
Dy40 O47 2.664 1_554 S
Dy40 O51 2.326 . S
Dy40 O55 2.310 1_565 S
Dy40 O56 2.351 . S
C41 O52 1.185 . S
C41 O53 1.355 1_545 S
C42 O44 1.185 . S
C42 O45 1.355 1_565 S
Dy43 O47 2.310 1_545 S
Dy43 O50 2.351 1_556 S
Dy43 O52 2.398 . S
Dy43 O53 2.491 1_545 S
Dy43 O54 2.403 . S
Dy43 O55 2.664 1_556 S
Dy43 O57 2.326 . S
O44 Dy40 2.398 . S
O44 C42 1.185 . S
O45 Dy40 2.491 1_545 S
O45 C42 1.355 1_545 S
O46 Dy40 2.403 . S
O46 C48 1.254 . S
O47 Dy40 2.664 1_556 S
O47 Dy43 2.310 1_565 S
O47 C48 1.268 1_556 S
C48 O46 1.254 . S
C48 O47 1.268 1_554 S
C49 O54 1.254 1_554 S
C49 O55 1.268 . S
O50 Dy43 2.351 1_554 S
O50 C58 1.249 1_545 S
O51 Dy40 2.326 . S
O51 C58 1.267 . S
O52 C41 1.185 . S
O52 Dy43 2.398 . S
O53 C41 1.355 1_565 S
O53 Dy43 2.491 1_565 S
O54 Dy43 2.403 . S
O54 C49 1.254 1_556 S
O55 Dy40 2.310 1_545 S
O55 Dy43 2.664 1_554 S
O55 C49 1.268 . S
O56 Dy40 2.351 . S
O56 C59 1.249 1_564 S
O57 Dy43 2.326 . S
O57 C59 1.267 . S
C58 O50 1.249 1_565 S
C58 O51 1.267 . S
C59 O56 1.249 1_546 S
C59 O57 1.267 . S
Dy60 O64 2.398 . S
Dy60 O65 2.491 . S
Dy60 O66 2.403 . S
Dy60 O67 2.664 1_554 S
Dy60 O71 2.326 . S
Dy60 O75 2.310 . S
Dy60 O76 2.351 . S
C61 O72 1.185 . S
C61 O73 1.355 . S
C62 O64 1.185 . S
C62 O65 1.355 . S
Dy63 O67 2.310 . S
Dy63 O70 2.351 1_556 S
Dy63 O72 2.398 . S
Dy63 O73 2.491 . S
Dy63 O74 2.403 . S
Dy63 O75 2.664 1_556 S
Dy63 O77 2.326 . S
O64 Dy60 2.398 . S
O64 C62 1.185 . S
O65 Dy60 2.491 . S
O65 C62 1.355 . S
O66 Dy60 2.403 . S
O66 C68 1.254 . S
O67 Dy60 2.664 1_556 S
O67 Dy63 2.310 . S
O67 C68 1.268 1_556 S
C68 O66 1.254 . S
C68 O67 1.268 1_554 S
C69 O74 1.254 1_554 S
C69 O75 1.268 . S
O70 Dy63 2.351 1_554 S
O70 C78 1.249 . S
O71 Dy60 2.326 . S
O71 C78 1.267 . S
O72 C61 1.185 . S
O72 Dy63 2.398 . S
O73 C61 1.355 . S
O73 Dy63 2.491 . S
O74 Dy63 2.403 . S
O74 C69 1.254 1_556 S
O75 Dy60 2.310 . S
O75 Dy63 2.664 1_554 S
O75 C69 1.268 . S
O76 Dy60 2.351 . S
O76 C79 1.249 1_554 S
O77 Dy63 2.326 . S
O77 C79 1.267 . S
C78 O70 1.249 . S
C78 O71 1.267 . S
C79 O76 1.249 1_556 S
C79 O77 1.267 . S
Dy80 O84 2.398 . S
Dy80 O85 2.491 . S
Dy80 O86 2.403 . S
Dy80 O87 2.664 . S
Dy80 O91 2.326 . S
Dy80 O95 2.310 . S
Dy80 O96 2.351 . S
C81 O92 1.185 1_554 S
C81 O93 1.355 1_554 S
C82 O84 1.185 . S
C82 O85 1.355 . S
Dy83 O87 2.310 . S
Dy83 O90 2.351 . S
Dy83 O92 2.398 . S
Dy83 O93 2.491 . S
Dy83 O94 2.403 . S
Dy83 O95 2.664 . S
Dy83 O97 2.326 . S
O84 Dy80 2.398 . S
O84 C82 1.185 . S
O85 Dy80 2.491 . S
O85 C82 1.355 . S
O86 Dy80 2.403 . S
O86 C88 1.254 . S
O87 Dy80 2.664 . S
O87 Dy83 2.310 . S
O87 C88 1.268 . S
C88 O86 1.254 . S
C88 O87 1.268 . S
C89 O94 1.254 . S
C89 O95 1.268 . S
O90 Dy83 2.351 . S
O90 C98 1.249 . S
O91 Dy80 2.326 . S
O91 C98 1.267 . S
O92 C81 1.185 1_556 S
O92 Dy83 2.398 . S
O93 C81 1.355 1_556 S
O93 Dy83 2.491 . S
O94 Dy83 2.403 . S
O94 C89 1.254 . S
O95 Dy80 2.310 . S
O95 Dy83 2.664 . S
O95 C89 1.268 . S
O96 Dy80 2.351 . S
O96 C99 1.249 . S
O97 Dy83 2.326 . S
O97 C99 1.267 . S
C98 O90 1.249 . S
C98 O91 1.267 . S
C99 O96 1.249 . S
C99 O97 1.267 . S
Dy100 O104 2.398 . S
Dy100 O105 2.491 1_565 S
Dy100 O106 2.403 . S
Dy100 O107 2.664 . S
Dy100 O111 2.326 . S
Dy100 O115 2.310 1_565 S
Dy100 O116 2.351 . S
C101 O112 1.185 1_554 S
C101 O113 1.355 1_544 S
C102 O104 1.185 . S
C102 O105 1.355 1_565 S
Dy103 O107 2.310 1_545 S
Dy103 O110 2.351 . S
Dy103 O112 2.398 . S
Dy103 O113 2.491 1_545 S
Dy103 O114 2.403 . S
Dy103 O115 2.664 . S
Dy103 O117 2.326 . S
O104 Dy100 2.398 . S
O104 C102 1.185 . S
O105 Dy100 2.491 1_545 S
O105 C102 1.355 1_545 S
O106 Dy100 2.403 . S
O106 C108 1.254 . S
O107 Dy100 2.664 . S
O107 Dy103 2.310 1_565 S
O107 C108 1.268 . S
C108 O106 1.254 . S
C108 O107 1.268 . S
C109 O114 1.254 . S
C109 O115 1.268 . S
O110 Dy103 2.351 . S
O110 C118 1.249 1_545 S
O111 Dy100 2.326 . S
O111 C118 1.267 . S
O112 C101 1.185 1_556 S
O112 Dy103 2.398 . S
O113 C101 1.355 1_566 S
O113 Dy103 2.491 1_565 S
O114 Dy103 2.403 . S
O114 C109 1.254 . S
O115 Dy100 2.310 1_545 S
O115 Dy103 2.664 . S
O115 C109 1.268 . S
O116 Dy100 2.351 . S
O116 C119 1.249 1_565 S
O117 Dy103 2.326 . S
O117 C119 1.267 . S
C118 O110 1.249 1_565 S
C118 O111 1.267 . S
C119 O116 1.249 1_545 S
C119 O117 1.267 . S
Dy120 O124 2.398 . S
Dy120 O125 2.491 1_565 S
Dy120 O126 2.403 . S
Dy120 O127 2.664 1_554 S
Dy120 O131 2.326 . S
Dy120 O135 2.310 1_565 S
Dy120 O136 2.351 1_554 S
C121 O132 1.185 . S
C121 O133 1.355 1_545 S
C122 O124 1.185 . S
C122 O125 1.355 1_565 S
Dy123 O127 2.310 1_545 S
Dy123 O130 2.351 . S
Dy123 O132 2.398 . S
Dy123 O133 2.491 1_545 S
Dy123 O134 2.403 . S
Dy123 O135 2.664 1_556 S
Dy123 O137 2.326 . S
O124 Dy120 2.398 . S
O124 C122 1.185 . S
O125 Dy120 2.491 1_545 S
O125 C122 1.355 1_545 S
O126 Dy120 2.403 . S
O126 C128 1.254 1_554 S
O127 Dy120 2.664 1_556 S
O127 Dy123 2.310 1_565 S
O127 C128 1.268 . S
C128 O126 1.254 1_556 S
C128 O127 1.268 . S
C129 O134 1.254 . S
C129 O135 1.268 1_556 S
O130 Dy123 2.351 . S
O130 C138 1.249 1_546 S
O131 Dy120 2.326 . S
O131 C138 1.267 . S
O132 C121 1.185 . S
O132 Dy123 2.398 . S
O133 C121 1.355 1_565 S
O133 Dy123 2.491 1_565 S
O134 Dy123 2.403 . S
O134 C129 1.254 . S
O135 Dy120 2.310 1_545 S
O135 Dy123 2.664 1_554 S
O135 C129 1.268 1_554 S
O136 Dy120 2.351 1_556 S
O136 C139 1.249 1_565 S
O137 Dy123 2.326 . S
O137 C139 1.267 . S
C138 O130 1.249 1_564 S
C138 O131 1.267 . S
C139 O136 1.249 1_545 S
C139 O137 1.267 . S
Dy140 O144 2.398 . S
Dy140 O145 2.491 . S
Dy140 O146 2.403 . S
Dy140 O147 2.664 1_554 S
Dy140 O151 2.326 . S
Dy140 O155 2.310 . S
Dy140 O156 2.351 1_554 S
C141 O152 1.185 . S
C141 O153 1.355 . S
C142 O144 1.185 . S
C142 O145 1.355 . S
Dy143 O147 2.310 . S
Dy143 O150 2.351 . S
Dy143 O152 2.398 . S
Dy143 O153 2.491 . S
Dy143 O154 2.403 . S
Dy143 O155 2.664 1_556 S
Dy143 O157 2.326 . S
O144 Dy140 2.398 . S
O144 C142 1.185 . S
O145 Dy140 2.491 . S
O145 C142 1.355 . S
O146 Dy140 2.403 . S
O146 C148 1.254 1_554 S
O147 Dy140 2.664 1_556 S
O147 Dy143 2.310 . S
O147 C148 1.268 . S
C148 O146 1.254 1_556 S
C148 O147 1.268 . S
C149 O154 1.254 . S
C149 O155 1.268 1_556 S
O150 Dy143 2.351 . S
O150 C158 1.249 1_556 S
O151 Dy140 2.326 . S
O151 C158 1.267 . S
O152 C141 1.185 . S
O152 Dy143 2.398 . S
O153 C141 1.355 . S
O153 Dy143 2.491 . S
O154 Dy143 2.403 . S
O154 C149 1.254 . S
O155 Dy140 2.310 . S
O155 Dy143 2.664 1_554 S
O155 C149 1.268 1_554 S
O156 Dy140 2.351 1_556 S
O156 C159 1.249 . S
O157 Dy143 2.326 . S
O157 C159 1.267 . S
C158 O150 1.249 1_554 S
C158 O151 1.267 . S
C159 O156 1.249 . S
C159 O157 1.267 . S
Dy160 O164 2.398 . S
Dy160 O165 2.491 . S
Dy160 O166 2.403 . S
Dy160 O167 2.664 . S
Dy160 O171 2.326 . S
Dy160 O175 2.310 . S
Dy160 O176 2.351 . S
C161 O172 1.185 . S
C161 O173 1.355 . S
C162 O164 1.185 . S
C162 O165 1.355 . S
Dy163 O167 2.310 . S
Dy163 O170 2.351 . S
Dy163 O172 2.398 . S
Dy163 O173 2.491 . S
Dy163 O174 2.403 . S
Dy163 O175 2.664 . S
Dy163 O177 2.326 . S
O164 Dy160 2.398 . S
O164 C162 1.185 . S
O165 Dy160 2.491 . S
O165 C162 1.355 . S
O166 Dy160 2.403 . S
O166 C168 1.254 . S
O167 Dy160 2.664 . S
O167 Dy163 2.310 . S
O167 C168 1.268 . S
C168 O166 1.254 . S
C168 O167 1.268 . S
C169 O174 1.254 . S
C169 O175 1.268 . S
O170 Dy163 2.351 . S
O170 C178 1.249 . S
O171 Dy160 2.326 . S
O171 C178 1.267 . S
O172 C161 1.185 . S
O172 Dy163 2.398 . S
O173 C161 1.355 . S
O173 Dy163 2.491 . S
O174 Dy163 2.403 . S
O174 C169 1.254 . S
O175 Dy160 2.310 . S
O175 Dy163 2.664 . S
O175 C169 1.268 . S
O176 Dy160 2.351 . S
O176 C179 1.249 . S
O177 Dy163 2.326 . S
O177 C179 1.267 . S
C178 O170 1.249 . S
C178 O171 1.267 . S
C179 O176 1.249 . S
C179 O177 1.267 . S
Dy180 O184 2.398 . S
Dy180 O185 2.491 . S
Dy180 O186 2.403 . S
Dy180 O187 2.664 . S
Dy180 O191 2.326 . S
Dy180 O195 2.310 . S
Dy180 O196 2.351 . S
C181 O192 1.185 . S
C181 O193 1.355 . S
C182 O184 1.185 . S
C182 O185 1.355 . S
Dy183 O187 2.310 . S
Dy183 O190 2.351 . S
Dy183 O192 2.398 . S
Dy183 O193 2.491 . S
Dy183 O194 2.403 . S
Dy183 O195 2.664 . S
Dy183 O197 2.326 . S
O184 Dy180 2.398 . S
O184 C182 1.185 . S
O185 Dy180 2.491 . S
O185 C182 1.355 . S
O186 Dy180 2.403 . S
O186 C188 1.254 . S
O187 Dy180 2.664 . S
O187 Dy183 2.310 . S
O187 C188 1.268 . S
C188 O186 1.254 . S
C188 O187 1.268 . S
C189 O194 1.254 . S
C189 O195 1.268 . S
O190 Dy183 2.351 . S
O190 C198 1.249 . S
O191 Dy180 2.326 . S
O191 C198 1.267 . S
O192 C181 1.185 . S
O192 Dy183 2.398 . S
O193 C181 1.355 . S
O193 Dy183 2.491 . S
O194 Dy183 2.403 . S
O194 C189 1.254 . S
O195 Dy180 2.310 . S
O195 Dy183 2.664 . S
O195 C189 1.268 . S
O196 Dy180 2.351 . S
O196 C199 1.249 . S
O197 Dy183 2.326 . S
O197 C199 1.267 . S
C198 O190 1.249 . S
C198 O191 1.267 . S
C199 O196 1.249 . S
C199 O197 1.267 . S
Dy200 O204 2.398 . S
Dy200 O205 2.491 . S
Dy200 O206 2.403 . S
Dy200 O207 2.664 . S
Dy200 O211 2.326 . S
Dy200 O215 2.310 . S
Dy200 O216 2.351 . S
C201 O212 1.185 . S
C201 O213 1.355 . S
C202 O204 1.185 . S
C202 O205 1.355 . S
Dy203 O207 2.310 . S
Dy203 O210 2.351 . S
Dy203 O212 2.398 . S
Dy203 O213 2.491 . S
Dy203 O214 2.403 . S
Dy203 O215 2.664 . S
Dy203 O217 2.326 . S
O204 Dy200 2.398 . S
O204 C202 1.185 . S
O205 Dy200 2.491 . S
O205 C202 1.355 . S
O206 Dy200 2.403 . S
O206 C208 1.254 . S
O207 Dy200 2.664 . S
O207 Dy203 2.310 . S
O207 C208 1.268 . S
C208 O206 1.254 . S
C208 O207 1.268 . S
C209 O214 1.254 . S
C209 O215 1.268 . S
O210 Dy203 2.351 . S
O210 C218 1.249 . S
O211 Dy200 2.326 . S
O211 C218 1.267 . S
O212 C201 1.185 . S
O212 Dy203 2.398 . S
O213 C201 1.355 . S
O213 Dy203 2.491 . S
O214 Dy203 2.403 . S
O214 C209 1.254 . S
O215 Dy200 2.310 . S
O215 Dy203 2.664 . S
O215 C209 1.268 . S
O216 Dy200 2.351 . S
O216 C219 1.249 . S
O217 Dy203 2.326 . S
O217 C219 1.267 . S
C218 O210 1.249 . S
C218 O211 1.267 . S
C219 O216 1.249 . S
C219 O217 1.267 . S
Dy220 O224 2.398 . S
Dy220 O225 2.491 . S
Dy220 O226 2.403 . S
Dy220 O227 2.664 . S
Dy220 O231 2.326 . S
Dy220 O235 2.310 . S
Dy220 O236 2.351 . S
C221 O232 1.185 . S
C221 O233 1.355 . S
C222 O224 1.185 . S
C222 O225 1.355 . S
Dy223 O227 2.310 . S
Dy223 O230 2.351 . S
Dy223 O232 2.398 . S
Dy223 O233 2.491 . S
Dy223 O234 2.403 . S
Dy223 O235 2.664 . S
Dy223 O237 2.326 . S
O224 Dy220 2.398 . S
O224 C222 1.185 . S
O225 Dy220 2.491 . S
O225 C222 1.355 . S
O226 Dy220 2.403 . S
O226 C228 1.254 . S
O227 Dy220 2.664 . S
O227 Dy223 2.310 . S
O227 C228 1.268 . S
C228 O226 1.254 . S
C228 O227 1.268 . S
C229 O234 1.254 . S
C229 O235 1.268 . S
O230 Dy223 2.351 . S
O230 C238 1.249 . S
O231 Dy220 2.326 . S
O231 C238 1.267 . S
O232 C221 1.185 . S
O232 Dy223 2.398 . S
O233 C221 1.355 . S
O233 Dy223 2.491 . S
O234 Dy223 2.403 . S
O234 C229 1.254 . S
O235 Dy220 2.310 . S
O235 Dy223 2.664 . S
O235 C229 1.268 . S
O236 Dy220 2.351 . S
O236 C239 1.249 . S
O237 Dy223 2.326 . S
O237 C239 1.267 . S
C238 O230 1.249 . S
C238 O231 1.267 . S
C239 O236 1.249 . S
C239 O237 1.267 . S
Dy240 O244 2.398 . S
Dy240 O245 2.491 . S
Dy240 O246 2.403 . S
Dy240 O247 2.664 . S
Dy240 O251 2.326 . S
Dy240 O255 2.310 . S
Dy240 O256 2.351 . S
C241 O252 1.185 . S
C241 O253 1.355 . S
C242 O244 1.185 . S
C242 O245 1.355 . S
Dy243 O247 2.310 . S
Dy243 O250 2.351 . S
Dy243 O252 2.398 . S
Dy243 O253 2.491 . S
Dy243 O254 2.403 . S
Dy243 O255 2.664 . S
Dy243 O257 2.326 . S
O244 Dy240 2.398 . S
O244 C242 1.185 . S
O245 Dy240 2.491 . S
O245 C242 1.355 . S
O246 Dy240 2.403 . S
O246 C248 1.254 . S
O247 Dy240 2.664 . S
O247 Dy243 2.310 . S
O247 C248 1.268 . S
C248 O246 1.254 . S
C248 O247 1.268 . S
C249 O254 1.254 . S
C249 O255 1.268 . S
O250 Dy243 2.351 . S
O250 C258 1.249 . S
O251 Dy240 2.326 . S
O251 C258 1.267 . S
O252 C241 1.185 . S
O252 Dy243 2.398 . S
O253 C241 1.355 . S
O253 Dy243 2.491 . S
O254 Dy243 2.403 . S
O254 C249 1.254 . S
O255 Dy240 2.310 . S
O255 Dy243 2.664 . S
O255 C249 1.268 . S
O256 Dy240 2.351 . S
O256 C259 1.249 . S
O257 Dy243 2.326 . S
O257 C259 1.267 . S
C258 O250 1.249 . S
C258 O251 1.267 . S
C259 O256 1.249 . S
C259 O257 1.267 . S
Dy260 O264 2.398 . S
Dy260 O265 2.491 . S
Dy260 O266 2.403 . S
Dy260 O267 2.664 . S
Dy260 O271 2.326 . S
Dy260 O275 2.310 . S
Dy260 O276 2.351 . S
C261 O272 1.185 . S
C261 O273 1.355 . S
C262 O264 1.185 . S
C262 O265 1.355 . S
Dy263 O267 2.310 . S
Dy263 O270 2.351 . S
Dy263 O272 2.398 . S
Dy263 O273 2.491 . S
Dy263 O274 2.403 . S
Dy263 O275 2.664 . S
Dy263 O277 2.326 . S
O264 Dy260 2.398 . S
O264 C262 1.185 . S
O265 Dy260 2.491 . S
O265 C262 1.355 . S
O266 Dy260 2.403 . S
O266 C268 1.254 . S
O267 Dy260 2.664 . S
O267 Dy263 2.310 . S
O267 C268 1.268 . S
C268 O266 1.254 . S
C268 O267 1.268 . S
C269 O274 1.254 . S
C269 O275 1.268 . S
O270 Dy263 2.351 . S
O270 C278 1.249 . S
O271 Dy260 2.326 . S
O271 C278 1.267 . S
O272 C261 1.185 . S
O272 Dy263 2.398 . S
O273 C261 1.355 . S
O273 Dy263 2.491 . S
O274 Dy263 2.403 . S
O274 C269 1.254 . S
O275 Dy260 2.310 . S
O275 Dy263 2.664 . S
O275 C269 1.268 . S
O276 Dy260 2.351 . S
O276 C279 1.249 . S
O277 Dy263 2.326 . S
O277 C279 1.267 . S
C278 O270 1.249 . S
C278 O271 1.267 . S
C279 O276 1.249 . S
C279 O277 1.267 . S
Dy280 O284 2.398 . S
Dy280 O285 2.491 . S
Dy280 O286 2.403 . S
Dy280 O287 2.664 . S
Dy280 O291 2.326 . S
Dy280 O295 2.310 . S
Dy280 O296 2.351 . S
C281 O292 1.185 . S
C281 O293 1.355 . S
C282 O284 1.185 . S
C282 O285 1.355 . S
Dy283 O287 2.310 . S
Dy283 O290 2.351 . S
Dy283 O292 2.398 . S
Dy283 O293 2.491 . S
Dy283 O294 2.403 . S
Dy283 O295 2.664 . S
Dy283 O297 2.326 . S
O284 Dy280 2.398 . S
O284 C282 1.185 . S
O285 Dy280 2.491 . S
O285 C282 1.355 . S
O286 Dy280 2.403 . S
O286 C288 1.254 . S
O287 Dy280 2.664 . S
O287 Dy283 2.310 . S
O287 C288 1.268 . S
C288 O286 1.254 . S
C288 O287 1.268 . S
C289 O294 1.254 . S
C289 O295 1.268 . S
O290 Dy283 2.351 . S
O290 C298 1.249 . S
O291 Dy280 2.326 . S
O291 C298 1.267 . S
O292 C281 1.185 . S
O292 Dy283 2.398 . S
O293 C281 1.355 . S
O293 Dy283 2.491 . S
O294 Dy283 2.403 . S
O294 C289 1.254 . S
O295 Dy280 2.310 . S
O295 Dy283 2.664 . S
O295 C289 1.268 . S
O296 Dy280 2.351 . S
O296 C299 1.249 . S
O297 Dy283 2.326 . S
O297 C299 1.267 . S
C298 O290 1.249 . S
C298 O291 1.267 . S
C299 O296 1.249 . S
C299 O297 1.267 . S
Dy300 O304 2.398 . S
Dy300 O305 2.491 . S
Dy300 O306 2.403 . S
Dy300 O307 2.664 . S
Dy300 O311 2.326 . S
Dy300 O315 2.310 . S
Dy300 O316 2.351 . S
C301 O312 1.185 . S
C301 O313 1.355 . S
C302 O304 1.185 . S
C302 O305 1.355 . S
Dy303 O307 2.310 . S
Dy303 O310 2.351 . S
Dy303 O312 2.398 . S
Dy303 O313 2.491 . S
Dy303 O314 2.403 . S
Dy303 O315 2.664 . S
Dy303 O317 2.326 . S
O304 Dy300 2.398 . S
O304 C302 1.185 . S
O305 Dy300 2.491 . S
O305 C302 1.355 . S
O306 Dy300 2.403 . S
O306 C308 1.254 . S
O307 Dy300 2.664 . S
O307 Dy303 2.310 . S
O307 C308 1.268 . S
C308 O306 1.254 . S
C308 O307 1.268 . S
C309 O314 1.254 . S
C309 O315 1.268 . S
O310 Dy303 2.351 . S
O310 C318 1.249 . S
O311 Dy300 2.326 . S
O311 C318 1.267 . S
O312 C301 1.185 . S
O312 Dy303 2.398 . S
O313 C301 1.355 . S
O313 Dy303 2.491 . S
O314 Dy303 2.403 . S
O314 C309 1.254 . S
O315 Dy300 2.310 . S
O315 Dy303 2.664 . S
O315 C309 1.268 . S
O316 Dy300 2.351 . S
O316 C319 1.249 . S
O317 Dy303 2.326 . S
O317 C319 1.267 . S
C318 O310 1.249 . S
C318 O311 1.267 . S
C319 O316 1.249 . S
C319 O317 1.267 . S
Dy320 O324 2.398 . S
Dy320 O325 2.491 . S
Dy320 O326 2.403 . S
Dy320 O327 2.664 . S
Dy320 O331 2.326 . S
Dy320 O335 2.310 . S
Dy320 O336 2.351 . S
C321 O332 1.185 . S
C321 O333 1.355 . S
C322 O324 1.185 . S
C322 O325 1.355 . S
Dy323 O327 2.310 . S
Dy323 O330 2.351 . S
Dy323 O332 2.398 . S
Dy323 O333 2.491 . S
Dy323 O334 2.403 . S
Dy323 O335 2.664 . S
Dy323 O337 2.326 . S
O324 Dy320 2.398 . S
O324 C322 1.185 . S
O325 Dy320 2.491 . S
O325 C322 1.355 . S
O326 Dy320 2.403 . S
O326 C328 1.254 . S
O327 Dy320 2.664 . S
O327 Dy323 2.310 . S
O327 C328 1.268 . S
C328 O326 1.254 . S
C328 O327 1.268 . S
C329 O334 1.254 . S
C329 O335 1.268 . S
O330 Dy323 2.351 . S
O330 C338 1.249 . S
O331 Dy320 2.326 . S
O331 C338 1.267 . S
O332 C321 1.185 . S
O332 Dy323 2.398 . S
O333 C321 1.355 . S
O333 Dy323 2.491 . S
O334 Dy323 2.403 . S
O334 C329 1.254 . S
O335 Dy320 2.310 . S
O335 Dy323 2.664 . S
O335 C329 1.268 . S
O336 Dy320 2.351 . S
O336 C339 1.249 . S
O337 Dy323 2.326 . S
O337 C339 1.267 . S
C338 O330 1.249 . S
C338 O331 1.267 . S
C339 O336 1.249 . S
C339 O337 1.267 . S
Dy340 O344 2.398 . S
Dy340 O345 2.491 1_565 S
Dy340 O346 2.403 . S
Dy340 O347 2.664 . S
Dy340 O351 2.326 . S
Dy340 O355 2.310 1_565 S
Dy340 O356 2.351 . S
C341 O352 1.185 . S
C341 O353 1.355 1_545 S
C342 O344 1.185 . S
C342 O345 1.355 1_565 S
Dy343 O347 2.310 1_545 S
Dy343 O350 2.351 . S
Dy343 O352 2.398 . S
Dy343 O353 2.491 1_545 S
Dy343 O354 2.403 . S
Dy343 O355 2.664 . S
Dy343 O357 2.326 . S
O344 Dy340 2.398 . S
O344 C342 1.185 . S
O345 Dy340 2.491 1_545 S
O345 C342 1.355 1_545 S
O346 Dy340 2.403 . S
O346 C348 1.254 . S
O347 Dy340 2.664 . S
O347 Dy343 2.310 1_565 S
O347 C348 1.268 . S
C348 O346 1.254 . S
C348 O347 1.268 . S
C349 O354 1.254 . S
C349 O355 1.268 . S
O350 Dy343 2.351 . S
O350 C358 1.249 1_545 S
O351 Dy340 2.326 . S
O351 C358 1.267 . S
O352 C341 1.185 . S
O352 Dy343 2.398 . S
O353 C341 1.355 1_565 S
O353 Dy343 2.491 1_565 S
O354 Dy343 2.403 . S
O354 C349 1.254 . S
O355 Dy340 2.310 1_545 S
O355 Dy343 2.664 . S
O355 C349 1.268 . S
O356 Dy340 2.351 . S
O356 C359 1.249 1_565 S
O357 Dy343 2.326 . S
O357 C359 1.267 . S
C358 O350 1.249 1_565 S
C358 O351 1.267 . S
C359 O356 1.249 1_545 S
C359 O357 1.267 . S
Dy360 O364 2.398 . S
Dy360 O365 2.491 1_565 S
Dy360 O366 2.403 . S
Dy360 O367 2.664 . S
Dy360 O371 2.326 . S
Dy360 O375 2.310 1_565 S
Dy360 O376 2.351 . S
C361 O372 1.185 . S
C361 O373 1.355 1_545 S
C362 O364 1.185 . S
C362 O365 1.355 1_565 S
Dy363 O367 2.310 1_545 S
Dy363 O370 2.351 . S
Dy363 O372 2.398 . S
Dy363 O373 2.491 1_545 S
Dy363 O374 2.403 . S
Dy363 O375 2.664 . S
Dy363 O377 2.326 . S
O364 Dy360 2.398 . S
O364 C362 1.185 . S
O365 Dy360 2.491 1_545 S
O365 C362 1.355 1_545 S
O366 Dy360 2.403 . S
O366 C368 1.254 . S
O367 Dy360 2.664 . S
O367 Dy363 2.310 1_565 S
O367 C368 1.268 . S
C368 O366 1.254 . S
C368 O367 1.268 . S
C369 O374 1.254 . S
C369 O375 1.268 . S
O370 Dy363 2.351 . S
O370 C378 1.249 1_545 S
O371 Dy360 2.326 . S
O371 C378 1.267 . S
O372 C361 1.185 . S
O372 Dy363 2.398 . S
O373 C361 1.355 1_565 S
O373 Dy363 2.491 1_565 S
O374 Dy363 2.403 . S
O374 C369 1.254 . S
O375 Dy360 2.310 1_545 S
O375 Dy363 2.664 . S
O375 C369 1.268 . S
O376 Dy360 2.351 . S
O376 C379 1.249 1_565 S
O377 Dy363 2.326 . S
O377 C379 1.267 . S
C378 O370 1.249 1_565 S
C378 O371 1.267 . S
C379 O376 1.249 1_545 S
C379 O377 1.267 . S
Dy380 O384 2.398 . S
Dy380 O385 2.491 . S
Dy380 O386 2.403 . S
Dy380 O387 2.664 . S
Dy380 O391 2.326 . S
Dy380 O395 2.310 . S
Dy380 O396 2.351 . S
C381 O392 1.185 . S
C381 O393 1.355 . S
C382 O384 1.185 . S
C382 O385 1.355 . S
Dy383 O387 2.310 . S
Dy383 O390 2.351 . S
Dy383 O392 2.398 . S
Dy383 O393 2.491 . S
Dy383 O394 2.403 . S
Dy383 O395 2.664 . S
Dy383 O397 2.326 . S
O384 Dy380 2.398 . S
O384 C382 1.185 . S
O385 Dy380 2.491 . S
O385 C382 1.355 . S
O386 Dy380 2.403 . S
O386 C388 1.254 . S
O387 Dy380 2.664 . S
O387 Dy383 2.310 . S
O387 C388 1.268 . S
C388 O386 1.254 . S
C388 O387 1.268 . S
C389 O394 1.254 . S
C389 O395 1.268 . S
O390 Dy383 2.351 . S
O390 C398 1.249 . S
O391 Dy380 2.326 . S
O391 C398 1.267 . S
O392 C381 1.185 . S
O392 Dy383 2.398 . S
O393 C381 1.355 . S
O393 Dy383 2.491 . S
O394 Dy383 2.403 . S
O394 C389 1.254 . S
O395 Dy380 2.310 . S
O395 Dy383 2.664 . S
O395 C389 1.268 . S
O396 Dy380 2.351 . S
O396 C399 1.249 . S
O397 Dy383 2.326 . S
O397 C399 1.267 . S
C398 O390 1.249 . S
C398 O391 1.267 . S
C399 O396 1.249 . S
C399 O397 1.267 . S
Dy400 O404 2.398 . S
Dy400 O405 2.491 . S
Dy400 O406 2.403 . S
Dy400 O407 2.664 . S
Dy400 O411 2.326 . S
Dy400 O415 2.310 . S
Dy400 O416 2.351 . S
C401 O412 1.185 . S
C401 O413 1.355 . S
C402 O404 1.185 . S
C402 O405 1.355 . S
Dy403 O407 2.310 . S
Dy403 O410 2.351 . S
Dy403 O412 2.398 . S
Dy403 O413 2.491 . S
Dy403 O414 2.403 . S
Dy403 O415 2.664 . S
Dy403 O417 2.326 . S
O404 Dy400 2.398 . S
O404 C402 1.185 . S
O405 Dy400 2.491 . S
O405 C402 1.355 . S
O406 Dy400 2.403 . S
O406 C408 1.254 . S
O407 Dy400 2.664 . S
O407 Dy403 2.310 . S
O407 C408 1.268 . S
C408 O406 1.254 . S
C408 O407 1.268 . S
C409 O414 1.254 . S
C409 O415 1.268 . S
O410 Dy403 2.351 . S
O410 C418 1.249 . S
O411 Dy400 2.326 . S
O411 C418 1.267 . S
O412 C401 1.185 . S
O412 Dy403 2.398 . S
O413 C401 1.355 . S
O413 Dy403 2.491 . S
O414 Dy403 2.403 . S
O414 C409 1.254 . S
O415 Dy400 2.310 . S
O415 Dy403 2.664 . S
O415 C409 1.268 . S
O416 Dy400 2.351 . S
O416 C419 1.249 . S
O417 Dy403 2.326 . S
O417 C419 1.267 . S
C418 O410 1.249 . S
C418 O411 1.267 . S
C419 O416 1.249 . S
C419 O417 1.267 . S
Dy420 O424 2.398 . S
Dy420 O425 2.491 1_565 S
Dy420 O426 2.403 . S
Dy420 O427 2.664 . S
Dy420 O431 2.326 . S
Dy420 O435 2.310 1_565 S
Dy420 O436 2.351 . S
C421 O432 1.185 . S
C421 O433 1.355 1_545 S
C422 O424 1.185 . S
C422 O425 1.355 1_565 S
Dy423 O427 2.310 1_545 S
Dy423 O430 2.351 . S
Dy423 O432 2.398 . S
Dy423 O433 2.491 1_545 S
Dy423 O434 2.403 . S
Dy423 O435 2.664 . S
Dy423 O437 2.326 . S
O424 Dy420 2.398 . S
O424 C422 1.185 . S
O425 Dy420 2.491 1_545 S
O425 C422 1.355 1_545 S
O426 Dy420 2.403 . S
O426 C428 1.254 . S
O427 Dy420 2.664 . S
O427 Dy423 2.310 1_565 S
O427 C428 1.268 . S
C428 O426 1.254 . S
C428 O427 1.268 . S
C429 O434 1.254 . S
C429 O435 1.268 . S
O430 Dy423 2.351 . S
O430 C438 1.249 1_545 S
O431 Dy420 2.326 . S
O431 C438 1.267 . S
O432 C421 1.185 . S
O432 Dy423 2.398 . S
O433 C421 1.355 1_565 S
O433 Dy423 2.491 1_565 S
O434 Dy423 2.403 . S
O434 C429 1.254 . S
O435 Dy420 2.310 1_545 S
O435 Dy423 2.664 . S
O435 C429 1.268 . S
O436 Dy420 2.351 . S
O436 C439 1.249 1_565 S
O437 Dy423 2.326 . S
O437 C439 1.267 . S
C438 O430 1.249 1_565 S
C438 O431 1.267 . S
C439 O436 1.249 1_545 S
C439 O437 1.267 . S
Dy440 O444 2.398 . S
Dy440 O445 2.491 1_565 S
Dy440 O446 2.403 . S
Dy440 O447 2.664 . S
Dy440 O451 2.326 . S
Dy440 O455 2.310 1_565 S
Dy440 O456 2.351 . S
C441 O452 1.185 . S
C441 O453 1.355 1_545 S
C442 O444 1.185 . S
C442 O445 1.355 1_565 S
Dy443 O447 2.310 1_545 S
Dy443 O450 2.351 . S
Dy443 O452 2.398 . S
Dy443 O453 2.491 1_545 S
Dy443 O454 2.403 . S
Dy443 O455 2.664 . S
Dy443 O457 2.326 . S
O444 Dy440 2.398 . S
O444 C442 1.185 . S
O445 Dy440 2.491 1_545 S
O445 C442 1.355 1_545 S
O446 Dy440 2.403 . S
O446 C448 1.254 . S
O447 Dy440 2.664 . S
O447 Dy443 2.310 1_565 S
O447 C448 1.268 . S
C448 O446 1.254 . S
C448 O447 1.268 . S
C449 O454 1.254 . S
C449 O455 1.268 . S
O450 Dy443 2.351 . S
O450 C458 1.249 1_545 S
O451 Dy440 2.326 . S
O451 C458 1.267 . S
O452 C441 1.185 . S
O452 Dy443 2.398 . S
O453 C441 1.355 1_565 S
O453 Dy443 2.491 1_565 S
O454 Dy443 2.403 . S
O454 C449 1.254 . S
O455 Dy440 2.310 1_545 S
O455 Dy443 2.664 . S
O455 C449 1.268 . S
O456 Dy440 2.351 . S
O456 C459 1.249 1_565 S
O457 Dy443 2.326 . S
O457 C459 1.267 . S
C458 O450 1.249 1_565 S
C458 O451 1.267 . S
C459 O456 1.249 1_545 S
C459 O457 1.267 . S
Dy460 O464 2.398 . S
Dy460 O465 2.491 . S
Dy460 O466 2.403 . S
Dy460 O467 2.664 . S
Dy460 O471 2.326 . S
Dy460 O475 2.310 . S
Dy460 O476 2.351 . S
C461 O472 1.185 . S
C461 O473 1.355 . S
C462 O464 1.185 . S
C462 O465 1.355 . S
Dy463 O467 2.310 . S
Dy463 O470 2.351 . S
Dy463 O472 2.398 . S
Dy463 O473 2.491 . S
Dy463 O474 2.403 . S
Dy463 O475 2.664 . S
Dy463 O477 2.326 . S
O464 Dy460 2.398 . S
O464 C462 1.185 . S
O465 Dy460 2.491 . S
O465 C462 1.355 . S
O466 Dy460 2.403 . S
O466 C468 1.254 . S
O467 Dy460 2.664 . S
O467 Dy463 2.310 . S
O467 C468 1.268 . S
C468 O466 1.254 . S
C468 O467 1.268 . S
C469 O474 1.254 . S
C469 O475 1.268 . S
O470 Dy463 2.351 . S
O470 C478 1.249 . S
O471 Dy460 2.326 . S
O471 C478 1.267 . S
O472 C461 1.185 . S
O472 Dy463 2.398 . S
O473 C461 1.355 . S
O473 Dy463 2.491 . S
O474 Dy463 2.403 . S
O474 C469 1.254 . S
O475 Dy460 2.310 . S
O475 Dy463 2.664 . S
O475 C469 1.268 . S
O476 Dy460 2.351 . S
O476 C479 1.249 . S
O477 Dy463 2.326 . S
O477 C479 1.267 . S
C478 O470 1.249 . S
C478 O471 1.267 . S
C479 O476 1.249 . S
C479 O477 1.267 . S
Dy480 O484 2.398 . S
Dy480 O485 2.491 . S
Dy480 O486 2.403 . S
Dy480 O487 2.664 . S
Dy480 O491 2.326 . S
Dy480 O495 2.310 . S
Dy480 O496 2.351 . S
C481 O492 1.185 . S
C481 O493 1.355 . S
C482 O484 1.185 1_556 S
C482 O485 1.355 1_556 S
Dy483 O487 2.310 . S
Dy483 O490 2.351 . S
Dy483 O492 2.398 . S
Dy483 O493 2.491 . S
Dy483 O494 2.403 . S
Dy483 O495 2.664 . S
Dy483 O497 2.326 . S
O484 Dy480 2.398 . S
O484 C482 1.185 1_554 S
O485 Dy480 2.491 . S
O485 C482 1.355 1_554 S
O486 Dy480 2.403 . S
O486 C488 1.254 . S
O487 Dy480 2.664 . S
O487 Dy483 2.310 . S
O487 C488 1.268 . S
C488 O486 1.254 . S
C488 O487 1.268 . S
C489 O494 1.254 . S
C489 O495 1.268 . S
O490 Dy483 2.351 . S
O490 C498 1.249 . S
O491 Dy480 2.326 . S
O491 C498 1.267 . S
O492 C481 1.185 . S
O492 Dy483 2.398 . S
O493 C481 1.355 . S
O493 Dy483 2.491 . S
O494 Dy483 2.403 . S
O494 C489 1.254 . S
O495 Dy480 2.310 . S
O495 Dy483 2.664 . S
O495 C489 1.268 . S
O496 Dy480 2.351 . S
O496 C499 1.249 . S
O497 Dy483 2.326 . S
O497 C499 1.267 . S
C498 O490 1.249 . S
C498 O491 1.267 . S
C499 O496 1.249 . S
C499 O497 1.267 . S
Dy500 O504 2.398 . S
Dy500 O505 2.491 . S
Dy500 O506 2.403 . S
Dy500 O507 2.664 . S
Dy500 O511 2.326 . S
Dy500 O515 2.310 . S
Dy500 O516 2.351 . S
C501 O512 1.185 . S
C501 O513 1.355 . S
C502 O504 1.185 1_556 S
C502 O505 1.355 1_556 S
Dy503 O507 2.310 . S
Dy503 O510 2.351 . S
Dy503 O512 2.398 . S
Dy503 O513 2.491 . S
Dy503 O514 2.403 . S
Dy503 O515 2.664 . S
Dy503 O517 2.326 . S
O504 Dy500 2.398 . S
O504 C502 1.185 1_554 S
O505 Dy500 2.491 . S
O505 C502 1.355 1_554 S
O506 Dy500 2.403 . S
O506 C508 1.254 . S
O507 Dy500 2.664 . S
O507 Dy503 2.310 . S
O507 C508 1.268 . S
C508 O506 1.254 . S
C508 O507 1.268 . S
C509 O514 1.254 . S
C509 O515 1.268 . S
O510 Dy503 2.351 . S
O510 C518 1.249 . S
O511 Dy500 2.326 . S
O511 C518 1.267 . S
O512 C501 1.185 . S
O512 Dy503 2.398 . S
O513 C501 1.355 . S
O513 Dy503 2.491 . S
O514 Dy503 2.403 . S
O514 C509 1.254 . S
O515 Dy500 2.310 . S
O515 Dy503 2.664 . S
O515 C509 1.268 . S
O516 Dy500 2.351 . S
O516 C519 1.249 . S
O517 Dy503 2.326 . S
O517 C519 1.267 . S
C518 O510 1.249 . S
C518 O511 1.267 . S
C519 O516 1.249 . S
C519 O517 1.267 . S
Dy520 O524 2.398 . S
Dy520 O525 2.491 . S
Dy520 O526 2.403 . S
Dy520 O527 2.664 1_554 S
Dy520 O531 2.326 . S
Dy520 O535 2.310 . S
Dy520 O536 2.351 . S
C521 O532 1.185 . S
C521 O533 1.355 . S
C522 O524 1.185 . S
C522 O525 1.355 . S
Dy523 O527 2.310 . S
Dy523 O530 2.351 1_556 S
Dy523 O532 2.398 . S
Dy523 O533 2.491 . S
Dy523 O534 2.403 . S
Dy523 O535 2.664 1_556 S
Dy523 O537 2.326 . S
O524 Dy520 2.398 . S
O524 C522 1.185 . S
O525 Dy520 2.491 . S
O525 C522 1.355 . S
O526 Dy520 2.403 . S
O526 C528 1.254 . S
O527 Dy520 2.664 1_556 S
O527 Dy523 2.310 . S
O527 C528 1.268 1_556 S
C528 O526 1.254 . S
C528 O527 1.268 1_554 S
C529 O534 1.254 1_554 S
C529 O535 1.268 . S
O530 Dy523 2.351 1_554 S
O530 C538 1.249 . S
O531 Dy520 2.326 . S
O531 C538 1.267 . S
O532 C521 1.185 . S
O532 Dy523 2.398 . S
O533 C521 1.355 . S
O533 Dy523 2.491 . S
O534 Dy523 2.403 . S
O534 C529 1.254 1_556 S
O535 Dy520 2.310 . S
O535 Dy523 2.664 1_554 S
O535 C529 1.268 . S
O536 Dy520 2.351 . S
O536 C539 1.249 1_554 S
O537 Dy523 2.326 . S
O537 C539 1.267 . S
C538 O530 1.249 . S
C538 O531 1.267 . S
C539 O536 1.249 1_556 S
C539 O537 1.267 . S
Dy540 O544 2.398 . S
Dy540 O545 2.491 . S
Dy540 O546 2.403 . S
Dy540 O547 2.664 1_554 S
Dy540 O551 2.326 . S
Dy540 O555 2.310 . S
Dy540 O556 2.351 . S
C541 O552 1.185 . S
C541 O553 1.355 . S
C542 O544 1.185 . S
C542 O545 1.355 . S
Dy543 O547 2.310 . S
Dy543 O550 2.351 1_556 S
Dy543 O552 2.398 . S
Dy543 O553 2.491 . S
Dy543 O554 2.403 . S
Dy543 O555 2.664 1_556 S
Dy543 O557 2.326 . S
O544 Dy540 2.398 . S
O544 C542 1.185 . S
O545 Dy540 2.491 . S
O545 C542 1.355 . S
O546 Dy540 2.403 . S
O546 C548 1.254 . S
O547 Dy540 2.664 1_556 S
O547 Dy543 2.310 . S
O547 C548 1.268 1_556 S
C548 O546 1.254 . S
C548 O547 1.268 1_554 S
C549 O554 1.254 1_554 S
C549 O555 1.268 . S
O550 Dy543 2.351 1_554 S
O550 C558 1.249 . S
O551 Dy540 2.326 . S
O551 C558 1.267 . S
O552 C541 1.185 . S
O552 Dy543 2.398 . S
O553 C541 1.355 . S
O553 Dy543 2.491 . S
O554 Dy543 2.403 . S
O554 C549 1.254 1_556 S
O555 Dy540 2.310 . S
O555 Dy543 2.664 1_554 S
O555 C549 1.268 . S
O556 Dy540 2.351 . S
O556 C559 1.249 1_554 S
O557 Dy543 2.326 . S
O557 C559 1.267 . S
C558 O550 1.249 . S
C558 O551 1.267 . S
C559 O556 1.249 1_556 S
C559 O557 1.267 . S
Dy560 O564 2.398 . S
Dy560 O565 2.491 . S
Dy560 O566 2.403 . S
Dy560 O567 2.664 . S
Dy560 O571 2.326 . S
Dy560 O575 2.310 . S
Dy560 O576 2.351 . S
C561 O572 1.185 1_554 S
C561 O573 1.355 1_554 S
C562 O564 1.185 . S
C562 O565 1.355 . S
Dy563 O567 2.310 . S
Dy563 O570 2.351 . S
Dy563 O572 2.398 . S
Dy563 O573 2.491 . S
Dy563 O574 2.403 . S
Dy563 O575 2.664 . S
Dy563 O577 2.326 . S
O564 Dy560 2.398 . S
O564 C562 1.185 . S
O565 Dy560 2.491 . S
O565 C562 1.355 . S
O566 Dy560 2.403 . S
O566 C568 1.254 . S
O567 Dy560 2.664 . S
O567 Dy563 2.310 . S
O567 C568 1.268 . S
C568 O566 1.254 . S
C568 O567 1.268 . S
C569 O574 1.254 . S
C569 O575 1.268 . S
O570 Dy563 2.351 . S
O570 C578 1.249 . S
O571 Dy560 2.326 . S
O571 C578 1.267 . S
O572 C561 1.185 1_556 S
O572 Dy563 2.398 . S
O573 C561 1.355 1_556 S
O573 Dy563 2.491 . S
O574 Dy563 2.403 . S
O574 C569 1.254 . S
O575 Dy560 2.310 . S
O575 Dy563 2.664 . S
O575 C569 1.268 . S
O576 Dy560 2.351 . S
O576 C579 1.249 . S
O577 Dy563 2.326 . S
O577 C579 1.267 . S
C578 O570 1.249 . S
C578 O571 1.267 . S
C579 O576 1.249 . S
C579 O577 1.267 . S
Dy580 O584 2.398 . S
Dy580 O585 2.491 . S
Dy580 O586 2.403 . S
Dy580 O587 2.664 . S
Dy580 O591 2.326 . S
Dy580 O595 2.310 . S
Dy580 O596 2.351 . S
C581 O592 1.185 1_554 S
C581 O593 1.355 1_554 S
C582 O584 1.185 . S
C582 O585 1.355 . S
Dy583 O587 2.310 . S
Dy583 O590 2.351 . S
Dy583 O592 2.398 . S
Dy583 O593 2.491 . S
Dy583 O594 2.403 . S
Dy583 O595 2.664 . S
Dy583 O597 2.326 . S
O584 Dy580 2.398 . S
O584 C582 1.185 . S
O585 Dy580 2.491 . S
O585 C582 1.355 . S
O586 Dy580 2.403 . S
O586 C588 1.254 . S
O587 Dy580 2.664 . S
O587 Dy583 2.310 . S
O587 C588 1.268 . S
C588 O586 1.254 . S
C588 O587 1.268 . S
C589 O594 1.254 . S
C589 O595 1.268 . S
O590 Dy583 2.351 . S
O590 C598 1.249 . S
O591 Dy580 2.326 . S
O591 C598 1.267 . S
O592 C581 1.185 1_556 S
O592 Dy583 2.398 . S
O593 C581 1.355 1_556 S
O593 Dy583 2.491 . S
O594 Dy583 2.403 . S
O594 C589 1.254 . S
O595 Dy580 2.310 . S
O595 Dy583 2.664 . S
O595 C589 1.268 . S
O596 Dy580 2.351 . S
O596 C599 1.249 . S
O597 Dy583 2.326 . S
O597 C599 1.267 . S
C598 O590 1.249 . S
C598 O591 1.267 . S
C599 O596 1.249 . S
C599 O597 1.267 . S
Dy600 O604 2.398 . S
Dy600 O605 2.491 . S
Dy600 O606 2.403 . S
Dy600 O607 2.664 1_554 S
Dy600 O611 2.326 . S
Dy600 O615 2.310 . S
Dy600 O616 2.351 1_554 S
C601 O612 1.185 . S
C601 O613 1.355 . S
C602 O604 1.185 . S
C602 O605 1.355 . S
Dy603 O607 2.310 . S
Dy603 O610 2.351 . S
Dy603 O612 2.398 . S
Dy603 O613 2.491 . S
Dy603 O614 2.403 . S
Dy603 O615 2.664 1_556 S
Dy603 O617 2.326 . S
O604 Dy600 2.398 . S
O604 C602 1.185 . S
O605 Dy600 2.491 . S
O605 C602 1.355 . S
O606 Dy600 2.403 . S
O606 C608 1.254 1_554 S
O607 Dy600 2.664 1_556 S
O607 Dy603 2.310 . S
O607 C608 1.268 . S
C608 O606 1.254 1_556 S
C608 O607 1.268 . S
C609 O614 1.254 . S
C609 O615 1.268 1_556 S
O610 Dy603 2.351 . S
O610 C618 1.249 1_556 S
O611 Dy600 2.326 . S
O611 C618 1.267 . S
O612 C601 1.185 . S
O612 Dy603 2.398 . S
O613 C601 1.355 . S
O613 Dy603 2.491 . S
O614 Dy603 2.403 . S
O614 C609 1.254 . S
O615 Dy600 2.310 . S
O615 Dy603 2.664 1_554 S
O615 C609 1.268 1_554 S
O616 Dy600 2.351 1_556 S
O616 C619 1.249 . S
O617 Dy603 2.326 . S
O617 C619 1.267 . S
C618 O610 1.249 1_554 S
C618 O611 1.267 . S
C619 O616 1.249 . S
C619 O617 1.267 . S
Dy620 O624 2.398 . S
Dy620 O625 2.491 . S
Dy620 O626 2.403 . S
Dy620 O627 2.664 1_554 S
Dy620 O631 2.326 . S
Dy620 O635 2.310 . S
Dy620 O636 2.351 1_554 S
C621 O632 1.185 . S
C621 O633 1.355 . S
C622 O624 1.185 . S
C622 O625 1.355 . S
Dy623 O627 2.310 . S
Dy623 O630 2.351 . S
Dy623 O632 2.398 . S
Dy623 O633 2.491 . S
Dy623 O634 2.403 . S
Dy623 O635 2.664 1_556 S
Dy623 O637 2.326 . S
O624 Dy620 2.398 . S
O624 C622 1.185 . S
O625 Dy620 2.491 . S
O625 C622 1.355 . S
O626 Dy620 2.403 . S
O626 C628 1.254 1_554 S
O627 Dy620 2.664 1_556 S
O627 Dy623 2.310 . S
O627 C628 1.268 . S
C628 O626 1.254 1_556 S
C628 O627 1.268 . S
C629 O634 1.254 . S
C629 O635 1.268 1_556 S
O630 Dy623 2.351 . S
O630 C638 1.249 1_556 S
O631 Dy620 2.326 . S
O631 C638 1.267 . S
O632 C621 1.185 . S
O632 Dy623 2.398 . S
O633 C621 1.355 . S
O633 Dy623 2.491 . S
O634 Dy623 2.403 . S
O634 C629 1.254 . S
O635 Dy620 2.310 . S
O635 Dy623 2.664 1_554 S
O635 C629 1.268 1_554 S
O636 Dy620 2.351 1_556 S
O636 C639 1.249 . S
O637 Dy623 2.326 . S
O637 C639 1.267 . S
C638 O630 1.249 1_554 S
C638 O631 1.267 . S
C639 O636 1.249 . S
C639 O637 1.267 . S
H640 C646 0.930 . S
H641 C650 0.930 . S
H642 C655 0.929 . S
H643 C653 0.929 . S
H644 C648 0.929 . S
H645 C654 0.929 . S
C646 H640 0.930 . S
C646 C647 1.367 . S
C646 C654 1.378 1_556 S
C647 C646 1.367 . S
C647 C655 1.433 . S
C648 H644 0.929 . S
C648 C650 1.378 1_556 S
C648 C652 1.350 1_556 S
C649 C652 1.463 1_556 S
C649 C654 1.350 1_556 S
C649 N657 1.427 . S
C650 H641 0.930 . S
C650 C648 1.378 1_554 S
C650 C651 1.367 . S
C651 C650 1.367 . S
C651 C653 1.433 . S
C652 C648 1.350 1_554 S
C652 C649 1.463 1_554 S
C652 N656 1.427 . S
C653 H643 0.929 . S
C653 C651 1.433 . S
C653 N656 1.384 . S
C654 H645 0.929 . S
C654 C646 1.378 1_554 S
C654 C649 1.350 1_554 S
C655 H642 0.929 . S
C655 C647 1.433 . S
C655 N657 1.384 . S
N656 C652 1.427 . S
N656 C653 1.384 . S
N657 C649 1.427 . S
N657 C655 1.384 . S
H658 C664 0.930 . S
H659 C668 0.930 . S
H660 C673 0.929 . S
H661 C671 0.929 . S
H662 C666 0.900 1_455 S
H663 C672 0.900 1_655 S
C664 H658 0.930 . S
C664 C665 1.367 . S
C664 C672 1.378 . S
C665 C664 1.367 . S
C665 C673 1.433 1_545 S
C666 H662 0.900 1_655 S
C666 C668 1.378 . S
C666 C670 1.370 . S
C667 C670 1.460 1_446 S
C667 C672 1.378 . S
C667 N675 1.400 1_545 S
C668 H659 0.930 . S
C668 C666 1.378 . S
C668 C669 1.367 . S
C669 C668 1.367 . S
C669 C671 1.433 1_565 S
C670 C666 1.370 . S
C670 C667 1.460 1_664 S
C670 N674 1.408 1_565 S
C671 H661 0.929 . S
C671 C669 1.433 1_545 S
C671 N674 1.384 . S
C672 H663 0.900 1_455 S
C672 C664 1.378 . S
C672 C667 1.378 . S
C673 H660 0.929 . S
C673 C665 1.433 1_565 S
C673 N675 1.384 . S
N674 C670 1.408 1_545 S
N674 C671 1.384 . S
N675 C667 1.400 1_565 S
N675 C673 1.384 . S
H676 C682 0.930 . S
H677 C686 0.930 . S
H678 C691 0.929 . S
H679 C689 0.929 . S
H680 C684 0.929 . S
H681 C690 0.929 . S
C682 H676 0.930 . S
C682 C683 1.342 1_565 S
C682 C690 1.378 . S
C683 C682 1.342 1_545 S
C683 C691 1.458 . S
C684 H680 0.929 . S
C684 C686 1.378 . S
C684 C688 1.371 . S
C685 C688 1.462 1_565 S
C685 C690 1.362 . S
C685 N693 1.415 1_565 S
C686 H677 0.930 . S
C686 C684 1.378 . S
C686 C687 1.352 1_545 S
C687 C686 1.352 1_565 S
C687 C689 1.448 . S
C688 C684 1.371 . S
C688 C685 1.462 1_545 S
C688 N692 1.405 1_545 S
C689 H679 0.929 . S
C689 C687 1.448 . S
C689 N692 1.384 . S
C690 H681 0.929 . S
C690 C682 1.378 . S
C690 C685 1.362 . S
C691 H678 0.929 . S
C691 C683 1.458 . S
C691 N693 1.384 . S
N692 C688 1.405 1_565 S
N692 C689 1.384 . S
N693 C685 1.415 1_545 S
N693 C691 1.384 . S
H694 C700 0.930 . S
H695 C704 0.930 . S
H696 C709 0.929 . S
H697 C707 0.929 . S
H698 C702 0.929 . S
H699 C708 0.929 . S
C700 H694 0.930 . S
C700 C701 1.367 . S
C700 C708 1.378 . S
C701 C700 1.367 . S
C701 C709 1.433 . S
C702 H698 0.929 . S
C702 C704 1.378 . S
C702 C706 1.350 . S
C703 C706 1.463 1_455 S
C703 C708 1.350 . S
C703 N711 1.427 . S
C704 H695 0.930 . S
C704 C702 1.378 . S
C704 C705 1.367 . S
C705 C704 1.367 . S
C705 C707 1.433 . S
C706 C702 1.350 . S
C706 C703 1.463 1_655 S
C706 N710 1.427 . S
C707 H697 0.929 . S
C707 C705 1.433 . S
C707 N710 1.384 . S
C708 H699 0.929 . S
C708 C700 1.378 . S
C708 C703 1.350 . S
C709 H696 0.929 . S
C709 C701 1.433 . S
C709 N711 1.384 . S
N710 C706 1.427 . S
N710 C707 1.384 . S
N711 C703 1.427 . S
N711 C709 1.384 . S
H712 C718 0.930 . S
H713 C722 0.930 . S
H714 C727 0.929 . S
H715 C725 0.929 . S
H716 C720 0.929 . S
H717 C726 0.929 . S
C718 H712 0.930 . S
C718 C719 1.367 . S
C718 C726 1.378 . S
C719 C718 1.367 . S
C719 C727 1.433 . S
C720 H716 0.929 . S
C720 C722 1.378 . S
C720 C724 1.350 . S
C721 C724 1.463 1_556 S
C721 C726 1.350 . S
C721 N729 1.427 . S
C722 H713 0.930 . S
C722 C720 1.378 . S
C722 C723 1.367 . S
C723 C722 1.367 . S
C723 C725 1.433 . S
C724 C720 1.350 . S
C724 C721 1.463 1_554 S
C724 N728 1.427 . S
C725 H715 0.929 . S
C725 C723 1.433 . S
C725 N728 1.384 . S
C726 H717 0.929 . S
C726 C718 1.378 . S
C726 C721 1.350 . S
C727 H714 0.929 . S
C727 C719 1.433 . S
C727 N729 1.384 . S
N728 C724 1.427 . S
N728 C725 1.384 . S
N729 C721 1.427 . S
N729 C727 1.384 . S
H730 C736 0.930 . S
H731 C740 0.930 . S
H732 C745 0.929 . S
H733 C743 0.929 . S
H734 C738 0.929 . S
H735 C744 0.929 . S
C736 H730 0.930 . S
C736 C737 1.367 . S
C736 C744 1.378 . S
C737 C736 1.367 . S
C737 C745 1.433 1_565 S
C738 H734 0.929 . S
C738 C740 1.378 . S
C738 C742 1.371 . S
C739 C742 1.460 1_565 S
C739 C744 1.378 . S
C739 N747 1.400 1_565 S
C740 H731 0.930 . S
C740 C738 1.378 . S
C740 C741 1.367 . S
C741 C740 1.367 . S
C741 C743 1.433 1_545 S
C742 C738 1.371 . S
C742 C739 1.460 1_545 S
C742 N746 1.407 1_545 S
C743 H733 0.929 . S
C743 C741 1.433 1_565 S
C743 N746 1.384 . S
C744 H735 0.929 . S
C744 C736 1.378 . S
C744 C739 1.378 . S
C745 H732 0.929 . S
C745 C737 1.433 1_545 S
C745 N747 1.384 . S
N746 C742 1.407 1_565 S
N746 C743 1.384 . S
N747 C739 1.400 1_545 S
N747 C745 1.384 . S
H748 C754 0.930 . S
H749 C758 0.930 . S
H750 C763 0.929 . S
H751 C761 0.929 . S
H752 C756 0.929 1_655 S
H753 C762 0.929 1_455 S
C754 H748 0.930 . S
C754 C755 1.367 . S
C754 C762 1.378 . S
C755 C754 1.367 . S
C755 C763 1.433 . S
C756 H752 0.929 1_455 S
C756 C758 1.378 . S
C756 C760 1.350 . S
C757 C760 1.463 1_655 S
C757 C762 1.350 . S
C757 N765 1.427 . S
C758 H749 0.930 . S
C758 C756 1.378 . S
C758 C759 1.367 . S
C759 C758 1.367 . S
C759 C761 1.433 . S
C760 C756 1.350 . S
C760 C757 1.463 1_455 S
C760 N764 1.427 . S
C761 H751 0.929 . S
C761 C759 1.433 . S
C761 N764 1.384 . S
C762 H753 0.929 1_655 S
C762 C754 1.378 . S
C762 C757 1.350 . S
C763 H750 0.929 . S
C763 C755 1.433 . S
C763 N765 1.384 . S
N764 C760 1.427 . S
N764 C761 1.384 . S
N765 C757 1.427 . S
N765 C763 1.384 . S
H766 C772 0.930 . S
H767 C776 0.930 . S
H768 C781 0.929 . S
H769 C779 0.929 . S
H770 C774 0.929 . S
H771 C780 0.929 . S
C772 H766 0.930 . S
C772 C773 1.367 . S
C772 C780 1.378 . S
C773 C772 1.367 . S
C773 C781 1.433 . S
C774 H770 0.929 . S
C774 C776 1.378 . S
C774 C778 1.350 . S
C775 C778 1.463 . S
C775 C780 1.350 . S
C775 N783 1.427 . S
C776 H767 0.930 . S
C776 C774 1.378 . S
C776 C777 1.367 . S
C777 C776 1.367 . S
C777 C779 1.433 . S
C778 C774 1.350 . S
C778 C775 1.463 . S
C778 N782 1.427 . S
C779 H769 0.929 . S
C779 C777 1.433 . S
C779 N782 1.384 . S
C780 H771 0.929 . S
C780 C772 1.378 . S
C780 C775 1.350 . S
C781 H768 0.929 . S
C781 C773 1.433 . S
C781 N783 1.384 . S
N782 C778 1.427 . S
N782 C779 1.384 . S
N783 C775 1.427 . S
N783 C781 1.384 . S
H784 C790 0.930 . S
H785 C794 0.930 . S
H786 C799 0.929 . S
H787 C797 0.929 . S
H788 C792 0.929 . S
H789 C798 0.929 . S
C790 H784 0.930 . S
C790 C791 1.367 . S
C790 C798 1.378 . S
C791 C790 1.367 . S
C791 C799 1.433 . S
C792 H788 0.929 . S
C792 C794 1.378 . S
C792 C796 1.350 . S
C793 C796 1.463 1_655 S
C793 C798 1.350 . S
C793 N801 1.427 . S
C794 H785 0.930 . S
C794 C792 1.378 . S
C794 C795 1.367 . S
C795 C794 1.367 . S
C795 C797 1.433 . S
C796 C792 1.350 . S
C796 C793 1.463 1_455 S
C796 N800 1.427 . S
C797 H787 0.929 . S
C797 C795 1.433 . S
C797 N800 1.384 . S
C798 H789 0.929 . S
C798 C790 1.378 . S
C798 C793 1.350 . S
C799 H786 0.929 . S
C799 C791 1.433 . S
C799 N801 1.384 . S
N800 C796 1.427 . S
N800 C797 1.384 . S
N801 C793 1.427 . S
N801 C799 1.384 . S
H802 C808 0.930 . S
H803 C812 0.930 . S
H804 C817 0.929 . S
H805 C815 0.929 . S
H806 C810 0.929 . S
H807 C816 0.929 . S
C808 H802 0.930 . S
C808 C809 1.367 . S
C808 C816 1.378 . S
C809 C808 1.367 . S
C809 C817 1.433 . S
C810 H806 0.929 . S
C810 C812 1.378 . S
C810 C814 1.350 . S
C811 C814 1.463 . S
C811 C816 1.350 . S
C811 N819 1.427 . S
C812 H803 0.930 . S
C812 C810 1.378 . S
C812 C813 1.367 . S
C813 C812 1.367 . S
C813 C815 1.433 . S
C814 C810 1.350 . S
C814 C811 1.463 . S
C814 N818 1.427 . S
C815 H805 0.929 . S
C815 C813 1.433 . S
C815 N818 1.384 . S
C816 H807 0.929 . S
C816 C808 1.378 . S
C816 C811 1.350 . S
C817 H804 0.929 . S
C817 C809 1.433 . S
C817 N819 1.384 . S
N818 C814 1.427 . S
N818 C815 1.384 . S
N819 C811 1.427 . S
N819 C817 1.384 . S
H820 C826 0.930 . S
H821 C830 0.930 . S
H822 C835 0.929 . S
H823 C833 0.929 . S
H824 C828 0.929 . S
H825 C834 0.929 . S
C826 H820 0.930 . S
C826 C827 1.367 . S
C826 C834 1.378 . S
C827 C826 1.367 . S
C827 C835 1.433 . S
C828 H824 0.929 . S
C828 C830 1.378 . S
C828 C832 1.350 . S
C829 C832 1.463 . S
C829 C834 1.350 . S
C829 N837 1.427 . S
C830 H821 0.930 . S
C830 C828 1.378 . S
C830 C831 1.367 . S
C831 C830 1.367 . S
C831 C833 1.433 . S
C832 C828 1.350 . S
C832 C829 1.463 . S
C832 N836 1.427 . S
C833 H823 0.929 . S
C833 C831 1.433 . S
C833 N836 1.384 . S
C834 H825 0.929 . S
C834 C826 1.378 . S
C834 C829 1.350 . S
C835 H822 0.929 . S
C835 C827 1.433 . S
C835 N837 1.384 . S
N836 C832 1.427 . S
N836 C833 1.384 . S
N837 C829 1.427 . S
N837 C835 1.384 . S
H838 C844 0.930 . S
H839 C848 0.930 . S
H840 C853 0.929 . S
H841 C851 0.929 . S
H842 C846 0.929 . S
H843 C852 0.929 . S
C844 H838 0.930 . S
C844 C845 1.367 . S
C844 C852 1.378 . S
C845 C844 1.367 . S
C845 C853 1.433 . S
C846 H842 0.929 . S
C846 C848 1.378 . S
C846 C850 1.350 . S
C847 C850 1.463 . S
C847 C852 1.350 . S
C847 N855 1.427 . S
C848 H839 0.930 . S
C848 C846 1.378 . S
C848 C849 1.367 . S
C849 C848 1.367 . S
C849 C851 1.433 . S
C850 C846 1.350 . S
C850 C847 1.463 . S
C850 N854 1.427 . S
C851 H841 0.929 . S
C851 C849 1.433 . S
C851 N854 1.384 . S
C852 H843 0.929 . S
C852 C844 1.378 . S
C852 C847 1.350 . S
C853 H840 0.929 . S
C853 C845 1.433 . S
C853 N855 1.384 . S
N854 C850 1.427 . S
N854 C851 1.384 . S
N855 C847 1.427 . S
N855 C853 1.384 . S
H856 C862 0.930 . S
H857 C866 0.930 . S
H858 C871 0.929 . S
H859 C869 0.929 . S
H860 C864 0.929 . S
H861 C870 0.929 . S
C862 H856 0.930 . S
C862 C863 1.343 1_545 S
C862 C870 1.378 . S
C863 C862 1.343 1_565 S
C863 C871 1.457 . S
C864 H860 0.929 . S
C864 C866 1.378 . S
C864 C868 1.367 . S
C865 C868 1.462 1_545 S
C865 C870 1.359 . S
C865 N873 1.418 1_545 S
C866 H857 0.930 . S
C866 C864 1.378 . S
C866 C867 1.351 1_565 S
C867 C866 1.351 1_545 S
C867 C869 1.449 . S
C868 C864 1.367 . S
C868 C865 1.462 1_565 S
C868 N872 1.410 1_565 S
C869 H859 0.929 . S
C869 C867 1.449 . S
C869 N872 1.384 . S
C870 H861 0.929 . S
C870 C862 1.378 . S
C870 C865 1.359 . S
C871 H858 0.929 . S
C871 C863 1.457 . S
C871 N873 1.384 . S
N872 C868 1.410 1_545 S
N872 C869 1.384 . S
N873 C865 1.418 1_565 S
N873 C871 1.384 . S
H874 C880 0.930 . S
H875 C884 0.930 . S
H876 C889 0.929 . S
H877 C887 0.929 . S
H878 C882 0.929 . S
H879 C888 0.929 . S
C880 H874 0.930 . S
C880 C881 1.367 . S
C880 C888 1.378 . S
C881 C880 1.367 . S
C881 C889 1.433 . S
C882 H878 0.929 . S
C882 C884 1.378 . S
C882 C886 1.350 . S
C883 C886 1.463 . S
C883 C888 1.350 . S
C883 N891 1.427 . S
C884 H875 0.930 . S
C884 C882 1.378 . S
C884 C885 1.367 . S
C885 C884 1.367 . S
C885 C887 1.433 . S
C886 C882 1.350 . S
C886 C883 1.463 . S
C886 N890 1.427 . S
C887 H877 0.929 . S
C887 C885 1.433 . S
C887 N890 1.384 . S
C888 H879 0.929 . S
C888 C880 1.378 . S
C888 C883 1.350 . S
C889 H876 0.929 . S
C889 C881 1.433 . S
C889 N891 1.384 . S
N890 C886 1.427 . S
N890 C887 1.384 . S
N891 C883 1.427 . S
N891 C889 1.384 . S
H892 C898 0.930 . S
H893 C902 0.930 . S
H894 C907 0.929 . S
H895 C905 0.929 . S
H896 C900 0.929 . S
H897 C906 0.929 . S
C898 H892 0.930 . S
C898 C899 1.367 . S
C898 C906 1.378 . S
C899 C898 1.367 . S
C899 C907 1.433 . S
C900 H896 0.929 . S
C900 C902 1.378 . S
C900 C904 1.350 . S
C901 C904 1.463 . S
C901 C906 1.350 . S
C901 N909 1.427 . S
C902 H893 0.930 . S
C902 C900 1.378 . S
C902 C903 1.367 . S
C903 C902 1.367 . S
C903 C905 1.433 . S
C904 C900 1.350 . S
C904 C901 1.463 . S
C904 N908 1.427 . S
C905 H895 0.929 . S
C905 C903 1.433 . S
C905 N908 1.384 . S
C906 H897 0.929 . S
C906 C898 1.378 . S
C906 C901 1.350 . S
C907 H894 0.929 . S
C907 C899 1.433 . S
C907 N909 1.384 . S
N908 C904 1.427 . S
N908 C905 1.384 . S
N909 C901 1.427 . S
N909 C907 1.384 . S
H910 C916 0.930 . S
H911 C920 0.930 . S
H912 C925 0.929 . S
H913 C923 0.929 . S
H914 C918 0.929 . S
H915 C924 0.929 . S
C916 H910 0.930 . S
C916 C917 1.367 . S
C916 C924 1.378 . S
C917 C916 1.367 . S
C917 C925 1.433 . S
C918 H914 0.929 . S
C918 C920 1.378 . S
C918 C922 1.350 . S
C919 C922 1.463 1_556 S
C919 C924 1.350 . S
C919 N927 1.427 . S
C920 H911 0.930 . S
C920 C918 1.378 . S
C920 C921 1.367 . S
C921 C920 1.367 . S
C921 C923 1.433 . S
C922 C918 1.350 . S
C922 C919 1.463 1_554 S
C922 N926 1.427 . S
C923 H913 0.929 . S
C923 C921 1.433 . S
C923 N926 1.384 . S
C924 H915 0.929 . S
C924 C916 1.378 . S
C924 C919 1.350 . S
C925 H912 0.929 . S
C925 C917 1.433 . S
C925 N927 1.384 . S
N926 C922 1.427 . S
N926 C923 1.384 . S
N927 C919 1.427 . S
N927 C925 1.384 . S
H928 C934 0.930 . S
H929 C938 0.930 . S
H930 C943 0.929 . S
H931 C941 0.929 . S
H932 C936 0.929 . S
H933 C942 0.929 . S
C934 H928 0.930 . S
C934 C935 1.367 . S
C934 C942 1.378 . S
C935 C934 1.367 . S
C935 C943 1.433 . S
C936 H932 0.929 . S
C936 C938 1.378 . S
C936 C940 1.350 . S
C937 C940 1.463 . S
C937 C942 1.350 . S
C937 N945 1.427 . S
C938 H929 0.930 . S
C938 C936 1.378 . S
C938 C939 1.367 . S
C939 C938 1.367 . S
C939 C941 1.433 . S
C940 C936 1.350 . S
C940 C937 1.463 . S
C940 N944 1.427 . S
C941 H931 0.929 . S
C941 C939 1.433 . S
C941 N944 1.384 . S
C942 H933 0.929 . S
C942 C934 1.378 . S
C942 C937 1.350 . S
C943 H930 0.929 . S
C943 C935 1.433 . S
C943 N945 1.384 . S
N944 C940 1.427 . S
N944 C941 1.384 . S
N945 C937 1.427 . S
N945 C943 1.384 . S
H946 C952 0.930 . S
H947 C956 0.930 . S
H948 C961 0.929 . S
H949 C959 0.929 . S
H950 C954 0.929 . S
H951 C960 0.929 . S
C952 H946 0.930 . S
C952 C953 1.367 . S
C952 C960 1.378 . S
C953 C952 1.367 . S
C953 C961 1.433 1_545 S
C954 H950 0.929 . S
C954 C956 1.378 . S
C954 C958 1.336 1_565 S
C955 C958 1.464 . S
C955 C960 1.350 . S
C955 N963 1.427 1_545 S
C956 H947 0.930 . S
C956 C954 1.378 . S
C956 C957 1.350 1_565 S
C957 C956 1.350 1_545 S
C957 C959 1.451 . S
C958 C954 1.336 1_545 S
C958 C955 1.464 . S
C958 N962 1.443 . S
C959 H949 0.929 . S
C959 C957 1.451 . S
C959 N962 1.384 . S
C960 H951 0.929 . S
C960 C952 1.378 . S
C960 C955 1.350 . S
C961 H948 0.929 . S
C961 C953 1.433 1_565 S
C961 N963 1.384 . S
N962 C958 1.443 . S
N962 C959 1.384 . S
N963 C955 1.427 1_565 S
N963 C961 1.384 . S
H964 C970 0.930 . S
H965 C974 0.930 . S
H966 C979 0.929 . S
H967 C977 0.929 . S
H968 C972 0.929 . S
H969 C978 0.929 . S
C970 H964 0.930 . S
C970 C971 1.367 . S
C970 C978 1.378 . S
C971 C970 1.367 . S
C971 C979 1.433 1_545 S
C972 H968 0.929 . S
C972 C974 1.378 . S
C972 C976 1.333 1_565 S
C973 C976 1.464 . S
C973 C978 1.350 . S
C973 N981 1.427 1_545 S
C974 H965 0.930 . S
C974 C972 1.378 . S
C974 C975 1.343 1_565 S
C975 C974 1.343 1_545 S
C975 C977 1.458 . S
C976 C972 1.333 1_545 S
C976 C973 1.464 . S
C976 N980 1.445 . S
C977 H967 0.929 . S
C977 C975 1.458 . S
C977 N980 1.384 . S
C978 H969 0.929 . S
C978 C970 1.378 . S
C978 C973 1.350 . S
C979 H966 0.929 . S
C979 C971 1.433 1_565 S
C979 N981 1.384 . S
N980 C976 1.445 . S
N980 C977 1.384 . S
N981 C973 1.427 1_565 S
N981 C979 1.384 . S
H982 C988 0.930 . S
H983 C992 0.930 . S
H984 C997 0.929 . S
H985 C995 0.937 . S
H986 C990 0.929 . S
H987 C996 0.929 . S
C988 H982 0.930 . S
C988 C989 1.367 . S
C988 C996 1.378 . S
C989 C988 1.367 . S
C989 C997 1.433 . S
C990 H986 0.929 . S
C990 C992 1.378 . S
C990 C994 1.350 . S
C991 C994 1.463 . S
C991 C996 1.350 . S
C991 N999 1.427 . S
C992 H983 0.930 . S
C992 C990 1.378 . S
C992 C993 1.367 . S
C993 C992 1.367 . S
C993 C995 1.433 . S
C994 C990 1.350 . S
C994 C991 1.463 . S
C994 N998 1.427 . S
C995 H985 0.937 . S
C995 C993 1.433 . S
C995 N998 1.384 . S
C996 H987 0.929 . S
C996 C988 1.378 . S
C996 C991 1.350 . S
C997 H984 0.929 . S
C997 C989 1.433 . S
C997 N999 1.384 . S
N998 C994 1.427 . S
N998 C995 1.384 . S
N999 C991 1.427 . S
N999 C997 1.384 . S
H1000 C1006 0.930 . S
H1001 C1010 0.930 . S
H1002 C1015 0.929 . S
H1003 C1013 0.929 . S
H1004 C1008 0.929 . S
H1005 C1014 0.929 . S
C1006 H1000 0.930 . S
C1006 C1007 1.367 . S
C1006 C1014 1.378 . S
C1007 C1006 1.367 . S
C1007 C1015 1.433 . S
C1008 H1004 0.929 . S
C1008 C1010 1.378 . S
C1008 C1012 1.350 . S
C1009 C1012 1.463 . S
C1009 C1014 1.350 . S
C1009 N1017 1.427 . S
C1010 H1001 0.930 . S
C1010 C1008 1.378 . S
C1010 C1011 1.367 . S
C1011 C1010 1.367 . S
C1011 C1013 1.433 . S
C1012 C1008 1.350 . S
C1012 C1009 1.463 . S
C1012 N1016 1.427 . S
C1013 H1003 0.929 . S
C1013 C1011 1.433 . S
C1013 N1016 1.384 . S
C1014 H1005 0.929 . S
C1014 C1006 1.378 . S
C1014 C1009 1.350 . S
C1015 H1002 0.929 . S
C1015 C1007 1.433 . S
C1015 N1017 1.384 . S
N1016 C1012 1.427 . S
N1016 C1013 1.384 . S
N1017 C1009 1.427 . S
N1017 C1015 1.384 . S
H1018 C1024 0.930 . S
H1019 C1028 0.930 . S
H1020 C1033 0.929 . S
H1021 C1031 0.929 . S
H1022 C1026 0.929 . S
H1023 C1032 0.929 . S
C1024 H1018 0.930 . S
C1024 C1025 1.367 . S
C1024 C1032 1.378 . S
C1025 C1024 1.367 . S
C1025 C1033 1.433 1_565 S
C1026 H1022 0.929 . S
C1026 C1028 1.378 . S
C1026 C1030 1.333 1_545 S
C1027 C1030 1.464 . S
C1027 C1032 1.350 . S
C1027 N1035 1.427 1_565 S
C1028 H1019 0.930 . S
C1028 C1026 1.378 . S
C1028 C1029 1.343 1_545 S
C1029 C1028 1.343 1_565 S
C1029 C1031 1.458 . S
C1030 C1026 1.333 1_565 S
C1030 C1027 1.464 . S
C1030 N1034 1.445 . S
C1031 H1021 0.929 . S
C1031 C1029 1.458 . S
C1031 N1034 1.384 . S
C1032 H1023 0.929 . S
C1032 C1024 1.378 . S
C1032 C1027 1.350 . S
C1033 H1020 0.929 . S
C1033 C1025 1.433 1_545 S
C1033 N1035 1.384 . S
N1034 C1030 1.445 . S
N1034 C1031 1.384 . S
N1035 C1027 1.427 1_545 S
N1035 C1033 1.384 . S
H1036 C1042 0.930 . S
H1037 C1046 0.930 . S
H1038 C1051 0.929 . S
H1039 C1049 0.929 . S
H1040 C1044 0.929 . S
H1041 C1050 0.929 . S
C1042 H1036 0.930 . S
C1042 C1043 1.367 . S
C1042 C1050 1.378 . S
C1043 C1042 1.367 . S
C1043 C1051 1.433 1_565 S
C1044 H1040 0.929 . S
C1044 C1046 1.378 . S
C1044 C1048 1.334 1_545 S
C1045 C1048 1.464 . S
C1045 C1050 1.350 . S
C1045 N1053 1.427 1_565 S
C1046 H1037 0.930 . S
C1046 C1044 1.378 . S
C1046 C1047 1.342 1_545 S
C1047 C1046 1.342 1_565 S
C1047 C1049 1.459 . S
C1048 C1044 1.334 1_565 S
C1048 C1045 1.464 . S
C1048 N1052 1.443 . S
C1049 H1039 0.929 . S
C1049 C1047 1.459 . S
C1049 N1052 1.384 . S
C1050 H1041 0.929 . S
C1050 C1042 1.378 . S
C1050 C1045 1.350 . S
C1051 H1038 0.929 . S
C1051 C1043 1.433 1_545 S
C1051 N1053 1.384 . S
N1052 C1048 1.443 . S
N1052 C1049 1.384 . S
N1053 C1045 1.427 1_545 S
N1053 C1051 1.384 . S
H1054 C1060 0.930 . S
H1055 C1064 0.930 . S
H1056 C1069 0.929 . S
H1057 C1067 0.929 . S
H1058 C1062 0.929 . S
H1059 C1068 0.929 . S
C1060 H1054 0.930 . S
C1060 C1061 1.367 . S
C1060 C1068 1.378 . S
C1061 C1060 1.367 . S
C1061 C1069 1.433 . S
C1062 H1058 0.929 . S
C1062 C1064 1.378 . S
C1062 C1066 1.350 . S
C1063 C1066 1.463 . S
C1063 C1068 1.350 . S
C1063 N1071 1.427 . S
C1064 H1055 0.930 . S
C1064 C1062 1.378 . S
C1064 C1065 1.367 . S
C1065 C1064 1.367 . S
C1065 C1067 1.433 . S
C1066 C1062 1.350 . S
C1066 C1063 1.463 . S
C1066 N1070 1.427 . S
C1067 H1057 0.929 . S
C1067 C1065 1.433 . S
C1067 N1070 1.384 . S
C1068 H1059 0.929 . S
C1068 C1060 1.378 . S
C1068 C1063 1.350 . S
C1069 H1056 0.929 . S
C1069 C1061 1.433 . S
C1069 N1071 1.384 . S
N1070 C1066 1.427 . S
N1070 C1067 1.384 . S
N1071 C1063 1.427 . S
N1071 C1069 1.384 . S
H1072 C1078 0.930 . S
H1073 C1082 0.930 . S
H1074 C1087 0.929 . S
H1075 C1085 0.929 . S
H1076 C1080 0.929 . S
H1077 C1086 0.929 . S
C1078 H1072 0.930 . S
C1078 C1079 1.367 . S
C1078 C1086 1.378 . S
C1079 C1078 1.367 . S
C1079 C1087 1.433 . S
C1080 H1076 0.929 . S
C1080 C1082 1.378 . S
C1080 C1084 1.350 . S
C1081 C1084 1.463 . S
C1081 C1086 1.350 . S
C1081 N1089 1.427 . S
C1082 H1073 0.930 . S
C1082 C1080 1.378 . S
C1082 C1083 1.367 . S
C1083 C1082 1.367 . S
C1083 C1085 1.433 . S
C1084 C1080 1.350 . S
C1084 C1081 1.463 . S
C1084 N1088 1.427 . S
C1085 H1075 0.929 . S
C1085 C1083 1.433 . S
C1085 N1088 1.384 . S
C1086 H1077 0.929 . S
C1086 C1078 1.378 . S
C1086 C1081 1.350 . S
C1087 H1074 0.929 . S
C1087 C1079 1.433 . S
C1087 N1089 1.384 . S
N1088 C1084 1.427 . S
N1088 C1085 1.384 . S
N1089 C1081 1.427 . S
N1089 C1087 1.384 . S
H1090 C1096 0.930 . S
H1091 C1100 0.930 . S
H1092 C1105 0.929 . S
H1093 C1103 0.929 . S
H1094 C1098 0.929 . S
H1095 C1104 0.929 . S
C1096 H1090 0.930 . S
C1096 C1097 1.367 . S
C1096 C1104 1.378 . S
C1097 C1096 1.367 . S
C1097 C1105 1.433 . S
C1098 H1094 0.929 . S
C1098 C1100 1.378 . S
C1098 C1102 1.350 . S
C1099 C1102 1.463 . S
C1099 C1104 1.350 . S
C1099 N1107 1.427 . S
C1100 H1091 0.930 . S
C1100 C1098 1.378 . S
C1100 C1101 1.367 . S
C1101 C1100 1.367 . S
C1101 C1103 1.433 . S
C1102 C1098 1.350 . S
C1102 C1099 1.463 . S
C1102 N1106 1.427 . S
C1103 H1093 0.929 . S
C1103 C1101 1.433 . S
C1103 N1106 1.384 . S
C1104 H1095 0.929 . S
C1104 C1096 1.378 . S
C1104 C1099 1.350 . S
C1105 H1092 0.929 . S
C1105 C1097 1.433 . S
C1105 N1107 1.384 . S
N1106 C1102 1.427 . S
N1106 C1103 1.384 . S
N1107 C1099 1.427 . S
N1107 C1105 1.384 . S
H1108 C1114 0.930 . S
H1109 C1118 0.930 . S
H1110 C1123 0.929 . S
H1111 C1121 0.929 . S
H1112 C1116 0.929 . S
H1113 C1122 0.929 . S
C1114 H1108 0.930 . S
C1114 C1115 1.367 . S
C1114 C1122 1.378 . S
C1115 C1114 1.367 . S
C1115 C1123 1.433 . S
C1116 H1112 0.929 . S
C1116 C1118 1.378 . S
C1116 C1120 1.350 . S
C1117 C1120 1.463 . S
C1117 C1122 1.350 . S
C1117 N1125 1.427 . S
C1118 H1109 0.930 . S
C1118 C1116 1.378 . S
C1118 C1119 1.367 . S
C1119 C1118 1.367 . S
C1119 C1121 1.433 . S
C1120 C1116 1.350 . S
C1120 C1117 1.463 . S
C1120 N1124 1.427 . S
C1121 H1111 0.929 . S
C1121 C1119 1.433 . S
C1121 N1124 1.384 . S
C1122 H1113 0.929 . S
C1122 C1114 1.378 . S
C1122 C1117 1.350 . S
C1123 H1110 0.929 . S
C1123 C1115 1.433 . S
C1123 N1125 1.384 . S
N1124 C1120 1.427 . S
N1124 C1121 1.384 . S
N1125 C1117 1.427 . S
N1125 C1123 1.384 . S
H1126 C1132 0.930 . S
H1127 C1136 0.930 . S
H1128 C1141 0.929 . S
H1129 C1139 0.929 . S
H1130 C1134 0.929 . S
H1131 C1140 0.929 . S
C1132 H1126 0.930 . S
C1132 C1133 1.367 . S
C1132 C1140 1.378 . S
C1133 C1132 1.367 . S
C1133 C1141 1.433 . S
C1134 H1130 0.929 . S
C1134 C1136 1.378 . S
C1134 C1138 1.350 . S
C1135 C1138 1.463 . S
C1135 C1140 1.350 . S
C1135 N1143 1.427 . S
C1136 H1127 0.930 . S
C1136 C1134 1.378 . S
C1136 C1137 1.367 . S
C1137 C1136 1.367 . S
C1137 C1139 1.433 . S
C1138 C1134 1.350 . S
C1138 C1135 1.463 . S
C1138 N1142 1.427 . S
C1139 H1129 0.929 . S
C1139 C1137 1.433 . S
C1139 N1142 1.384 . S
C1140 H1131 0.929 . S
C1140 C1132 1.378 . S
C1140 C1135 1.350 . S
C1141 H1128 0.929 . S
C1141 C1133 1.433 . S
C1141 N1143 1.384 . S
N1142 C1138 1.427 . S
N1142 C1139 1.384 . S
N1143 C1135 1.427 . S
N1143 C1141 1.384 . S
H1144 C1150 0.930 . S
H1145 C1154 0.930 . S
H1146 C1159 0.929 . S
H1147 C1157 0.929 . S
H1148 C1152 0.929 . S
H1149 C1158 0.929 . S
C1150 H1144 0.930 . S
C1150 C1151 1.367 . S
C1150 C1158 1.378 . S
C1151 C1150 1.367 . S
C1151 C1159 1.433 . S
C1152 H1148 0.929 . S
C1152 C1154 1.378 . S
C1152 C1156 1.350 . S
C1153 C1156 1.463 . S
C1153 C1158 1.350 . S
C1153 N1161 1.427 . S
C1154 H1145 0.930 . S
C1154 C1152 1.378 . S
C1154 C1155 1.367 . S
C1155 C1154 1.367 . S
C1155 C1157 1.433 . S
C1156 C1152 1.350 . S
C1156 C1153 1.463 . S
C1156 N1160 1.427 . S
C1157 H1147 0.929 . S
C1157 C1155 1.433 . S
C1157 N1160 1.384 . S
C1158 H1149 0.929 . S
C1158 C1150 1.378 . S
C1158 C1153 1.350 . S
C1159 H1146 0.929 . S
C1159 C1151 1.433 . S
C1159 N1161 1.384 . S
N1160 C1156 1.427 . S
N1160 C1157 1.384 . S
N1161 C1153 1.427 . S
N1161 C1159 1.384 . S
H1162 C1168 0.930 . S
H1163 C1172 0.930 . S
H1164 C1177 0.929 . S
H1165 C1175 0.929 . S
H1166 C1170 0.929 . S
H1167 C1176 0.929 . S
C1168 H1162 0.930 . S
C1168 C1169 1.367 . S
C1168 C1176 1.378 . S
C1169 C1168 1.367 . S
C1169 C1177 1.433 . S
C1170 H1166 0.929 . S
C1170 C1172 1.378 . S
C1170 C1174 1.350 . S
C1171 C1174 1.463 . S
C1171 C1176 1.350 . S
C1171 N1179 1.427 . S
C1172 H1163 0.930 . S
C1172 C1170 1.378 . S
C1172 C1173 1.367 . S
C1173 C1172 1.367 . S
C1173 C1175 1.433 . S
C1174 C1170 1.350 . S
C1174 C1171 1.463 . S
C1174 N1178 1.427 . S
C1175 H1165 0.929 . S
C1175 C1173 1.433 . S
C1175 N1178 1.384 . S
C1176 H1167 0.929 . S
C1176 C1168 1.378 . S
C1176 C1171 1.350 . S
C1177 H1164 0.929 . S
C1177 C1169 1.433 . S
C1177 N1179 1.384 . S
N1178 C1174 1.427 . S
N1178 C1175 1.384 . S
N1179 C1171 1.427 . S
N1179 C1177 1.384 . S
H1180 C1186 0.930 . S
H1181 C1190 0.930 . S
H1182 C1195 0.929 . S
H1183 C1193 0.929 . S
H1184 C1188 0.929 . S
H1185 C1194 0.929 . S
C1186 H1180 0.930 . S
C1186 C1187 1.367 . S
C1186 C1194 1.378 . S
C1187 C1186 1.367 . S
C1187 C1195 1.433 . S
C1188 H1184 0.929 . S
C1188 C1190 1.378 . S
C1188 C1192 1.350 . S
C1189 C1192 1.463 . S
C1189 C1194 1.350 . S
C1189 N1197 1.427 . S
C1190 H1181 0.930 . S
C1190 C1188 1.378 . S
C1190 C1191 1.367 . S
C1191 C1190 1.367 . S
C1191 C1193 1.433 . S
C1192 C1188 1.350 . S
C1192 C1189 1.463 . S
C1192 N1196 1.427 . S
C1193 H1183 0.929 . S
C1193 C1191 1.433 . S
C1193 N1196 1.384 . S
C1194 H1185 0.929 . S
C1194 C1186 1.378 . S
C1194 C1189 1.350 . S
C1195 H1182 0.929 . S
C1195 C1187 1.433 . S
C1195 N1197 1.384 . S
N1196 C1192 1.427 . S
N1196 C1193 1.384 . S
N1197 C1189 1.427 . S
N1197 C1195 1.384 . S
H1198 C1204 0.930 . S
H1199 C1208 0.930 . S
H1200 C1213 0.929 . S
H1201 C1211 0.929 . S
H1202 C1206 0.929 . S
H1203 C1212 0.929 . S
C1204 H1198 0.930 . S
C1204 C1205 1.367 . S
C1204 C1212 1.378 . S
C1205 C1204 1.367 . S
C1205 C1213 1.433 . S
C1206 H1202 0.929 . S
C1206 C1208 1.378 . S
C1206 C1210 1.350 . S
C1207 C1210 1.463 . S
C1207 C1212 1.350 . S
C1207 N1215 1.427 . S
C1208 H1199 0.930 . S
C1208 C1206 1.378 . S
C1208 C1209 1.367 . S
C1209 C1208 1.367 . S
C1209 C1211 1.433 . S
C1210 C1206 1.350 . S
C1210 C1207 1.463 . S
C1210 N1214 1.427 . S
C1211 H1201 0.929 . S
C1211 C1209 1.433 . S
C1211 N1214 1.384 . S
C1212 H1203 0.929 . S
C1212 C1204 1.378 . S
C1212 C1207 1.350 . S
C1213 H1200 0.929 . S
C1213 C1205 1.433 . S
C1213 N1215 1.384 . S
N1214 C1210 1.427 . S
N1214 C1211 1.384 . S
N1215 C1207 1.427 . S
N1215 C1213 1.384 . S
H1216 C1222 0.930 . S
H1217 C1226 0.930 . S
H1218 C1231 0.929 . S
H1219 C1229 0.929 . S
H1220 C1224 0.929 . S
H1221 C1230 0.929 . S
C1222 H1216 0.930 . S
C1222 C1223 1.367 . S
C1222 C1230 1.378 . S
C1223 C1222 1.367 . S
C1223 C1231 1.433 . S
C1224 H1220 0.929 . S
C1224 C1226 1.378 . S
C1224 C1228 1.350 . S
C1225 C1228 1.463 . S
C1225 C1230 1.350 . S
C1225 N1233 1.427 . S
C1226 H1217 0.930 . S
C1226 C1224 1.378 . S
C1226 C1227 1.367 . S
C1227 C1226 1.367 . S
C1227 C1229 1.433 . S
C1228 C1224 1.350 . S
C1228 C1225 1.463 . S
C1228 N1232 1.427 . S
C1229 H1219 0.929 . S
C1229 C1227 1.433 . S
C1229 N1232 1.384 . S
C1230 H1221 0.929 . S
C1230 C1222 1.378 . S
C1230 C1225 1.350 . S
C1231 H1218 0.929 . S
C1231 C1223 1.433 . S
C1231 N1233 1.384 . S
N1232 C1228 1.427 . S
N1232 C1229 1.384 . S
N1233 C1225 1.427 . S
N1233 C1231 1.384 . S
H1234 C1240 0.930 . S
H1235 C1244 0.930 . S
H1236 C1249 0.929 . S
H1237 C1247 0.929 . S
H1238 C1242 0.929 . S
H1239 C1248 0.929 . S
C1240 H1234 0.930 . S
C1240 C1241 1.367 . S
C1240 C1248 1.378 . S
C1241 C1240 1.367 . S
C1241 C1249 1.433 1_545 S
C1242 H1238 0.929 . S
C1242 C1244 1.378 . S
C1242 C1246 1.350 . S
C1243 C1246 1.463 1_545 S
C1243 C1248 1.350 . S
C1243 N1251 1.427 1_545 S
C1244 H1235 0.930 . S
C1244 C1242 1.378 . S
C1244 C1245 1.367 . S
C1245 C1244 1.367 . S
C1245 C1247 1.433 1_565 S
C1246 C1242 1.350 . S
C1246 C1243 1.463 1_565 S
C1246 N1250 1.427 1_565 S
C1247 H1237 0.929 . S
C1247 C1245 1.433 1_545 S
C1247 N1250 1.384 . S
C1248 H1239 0.929 . S
C1248 C1240 1.378 . S
C1248 C1243 1.350 . S
C1249 H1236 0.929 . S
C1249 C1241 1.433 1_565 S
C1249 N1251 1.384 . S
N1250 C1246 1.427 1_545 S
N1250 C1247 1.384 . S
N1251 C1243 1.427 1_565 S
N1251 C1249 1.384 . S
H1252 C1258 0.930 . S
H1253 C1262 0.930 . S
H1254 C1267 0.929 . S
H1255 C1265 0.929 . S
H1256 C1260 0.929 . S
H1257 C1266 0.929 . S
C1258 H1252 0.930 . S
C1258 C1259 1.367 1_545 S
C1258 C1266 1.378 . S
C1259 C1258 1.367 1_565 S
C1259 C1267 1.433 . S
C1260 H1256 0.929 . S
C1260 C1262 1.378 . S
C1260 C1264 1.350 1_565 S
C1261 C1264 1.463 1_565 S
C1261 C1266 1.350 1_565 S
C1261 N1269 1.427 . S
C1262 H1253 0.930 . S
C1262 C1260 1.378 . S
C1262 C1263 1.367 1_565 S
C1263 C1262 1.367 1_545 S
C1263 C1265 1.433 . S
C1264 C1260 1.350 1_545 S
C1264 C1261 1.463 1_545 S
C1264 N1268 1.427 . S
C1265 H1255 0.929 . S
C1265 C1263 1.433 . S
C1265 N1268 1.384 . S
C1266 H1257 0.929 . S
C1266 C1258 1.378 . S
C1266 C1261 1.350 1_545 S
C1267 H1254 0.929 . S
C1267 C1259 1.433 . S
C1267 N1269 1.384 . S
N1268 C1264 1.427 . S
N1268 C1265 1.384 . S
N1269 C1261 1.427 . S
N1269 C1267 1.384 . S
H1270 C1276 0.930 . S
H1271 C1280 0.930 . S
H1272 C1285 0.929 . S
H1273 C1283 0.929 . S
H1274 C1278 0.929 . S
H1275 C1284 0.929 . S
C1276 H1270 0.930 . S
C1276 C1277 1.367 . S
C1276 C1284 1.378 . S
C1277 C1276 1.367 . S
C1277 C1285 1.433 . S
C1278 H1274 0.929 . S
C1278 C1280 1.378 . S
C1278 C1282 1.350 . S
C1279 C1282 1.463 . S
C1279 C1284 1.350 . S
C1279 N1287 1.427 . S
C1280 H1271 0.930 . S
C1280 C1278 1.378 . S
C1280 C1281 1.367 . S
C1281 C1280 1.367 . S
C1281 C1283 1.433 . S
C1282 C1278 1.350 . S
C1282 C1279 1.463 . S
C1282 N1286 1.427 . S
C1283 H1273 0.929 . S
C1283 C1281 1.433 . S
C1283 N1286 1.384 . S
C1284 H1275 0.929 . S
C1284 C1276 1.378 . S
C1284 C1279 1.350 . S
C1285 H1272 0.929 . S
C1285 C1277 1.433 . S
C1285 N1287 1.384 . S
N1286 C1282 1.427 . S
N1286 C1283 1.384 . S
N1287 C1279 1.427 . S
N1287 C1285 1.384 . S
H1288 C1294 0.930 . S
H1289 C1298 0.930 . S
H1290 C1303 0.929 . S
H1291 C1301 0.929 . S
H1292 C1296 0.929 . S
H1293 C1302 0.929 . S
C1294 H1288 0.930 . S
C1294 C1295 1.367 . S
C1294 C1302 1.378 . S
C1295 C1294 1.367 . S
C1295 C1303 1.433 . S
C1296 H1292 0.929 . S
C1296 C1298 1.378 . S
C1296 C1300 1.350 . S
C1297 C1300 1.463 . S
C1297 C1302 1.350 . S
C1297 N1305 1.427 . S
C1298 H1289 0.930 . S
C1298 C1296 1.378 . S
C1298 C1299 1.367 . S
C1299 C1298 1.367 . S
C1299 C1301 1.433 . S
C1300 C1296 1.350 . S
C1300 C1297 1.463 . S
C1300 N1304 1.427 . S
C1301 H1291 0.929 . S
C1301 C1299 1.433 . S
C1301 N1304 1.384 . S
C1302 H1293 0.929 . S
C1302 C1294 1.378 . S
C1302 C1297 1.350 . S
C1303 H1290 0.929 . S
C1303 C1295 1.433 . S
C1303 N1305 1.384 . S
N1304 C1300 1.427 . S
N1304 C1301 1.384 . S
N1305 C1297 1.427 . S
N1305 C1303 1.384 . S
H1306 C1312 0.930 . S
H1307 C1316 0.930 . S
H1308 C1321 0.929 . S
H1309 C1319 0.929 . S
H1310 C1314 0.929 . S
H1311 C1320 0.929 . S
C1312 H1306 0.930 . S
C1312 C1313 1.367 . S
C1312 C1320 1.378 . S
C1313 C1312 1.367 . S
C1313 C1321 1.433 1_545 S
C1314 H1310 0.929 . S
C1314 C1316 1.378 . S
C1314 C1318 1.350 . S
C1315 C1318 1.463 1_545 S
C1315 C1320 1.350 . S
C1315 N1323 1.427 1_545 S
C1316 H1307 0.930 . S
C1316 C1314 1.378 . S
C1316 C1317 1.367 . S
C1317 C1316 1.367 . S
C1317 C1319 1.433 1_565 S
C1318 C1314 1.350 . S
C1318 C1315 1.463 1_565 S
C1318 N1322 1.427 1_565 S
C1319 H1309 0.929 . S
C1319 C1317 1.433 1_545 S
C1319 N1322 1.384 . S
C1320 H1311 0.929 . S
C1320 C1312 1.378 . S
C1320 C1315 1.350 . S
C1321 H1308 0.929 . S
C1321 C1313 1.433 1_565 S
C1321 N1323 1.384 . S
N1322 C1318 1.427 1_545 S
N1322 C1319 1.384 . S
N1323 C1315 1.427 1_565 S
N1323 C1321 1.384 . S
H1324 C1330 0.930 . S
H1325 C1334 0.930 . S
H1326 C1339 0.929 . S
H1327 C1337 0.929 . S
H1328 C1332 0.929 . S
H1329 C1338 0.929 . S
C1330 H1324 0.930 . S
C1330 C1331 1.367 . S
C1330 C1338 1.378 . S
C1331 C1330 1.367 . S
C1331 C1339 1.433 1_545 S
C1332 H1328 0.929 . S
C1332 C1334 1.378 . S
C1332 C1336 1.350 . S
C1333 C1336 1.463 1_545 S
C1333 C1338 1.350 . S
C1333 N1341 1.427 1_545 S
C1334 H1325 0.930 . S
C1334 C1332 1.378 . S
C1334 C1335 1.367 . S
C1335 C1334 1.367 . S
C1335 C1337 1.433 1_565 S
C1336 C1332 1.350 . S
C1336 C1333 1.463 1_565 S
C1336 N1340 1.427 1_565 S
C1337 H1327 0.929 . S
C1337 C1335 1.433 1_545 S
C1337 N1340 1.384 . S
C1338 H1329 0.929 . S
C1338 C1330 1.378 . S
C1338 C1333 1.350 . S
C1339 H1326 0.929 . S
C1339 C1331 1.433 1_565 S
C1339 N1341 1.384 . S
N1340 C1336 1.427 1_545 S
N1340 C1337 1.384 . S
N1341 C1333 1.427 1_565 S
N1341 C1339 1.384 . S
H1342 C1348 0.930 . S
H1343 C1352 0.930 . S
H1344 C1357 0.929 . S
H1345 C1355 0.929 . S
H1346 C1350 0.929 . S
H1347 C1356 0.929 . S
C1348 H1342 0.930 . S
C1348 C1349 1.367 . S
C1348 C1356 1.378 . S
C1349 C1348 1.367 . S
C1349 C1357 1.433 . S
C1350 H1346 0.929 . S
C1350 C1352 1.378 . S
C1350 C1354 1.350 . S
C1351 C1354 1.463 . S
C1351 C1356 1.350 . S
C1351 N1359 1.427 . S
C1352 H1343 0.930 . S
C1352 C1350 1.378 . S
C1352 C1353 1.367 . S
C1353 C1352 1.367 . S
C1353 C1355 1.433 . S
C1354 C1350 1.350 . S
C1354 C1351 1.463 . S
C1354 N1358 1.427 . S
C1355 H1345 0.929 . S
C1355 C1353 1.433 . S
C1355 N1358 1.384 . S
C1356 H1347 0.929 . S
C1356 C1348 1.378 . S
C1356 C1351 1.350 . S
C1357 H1344 0.929 . S
C1357 C1349 1.433 . S
C1357 N1359 1.384 . S
N1358 C1354 1.427 . S
N1358 C1355 1.384 . S
N1359 C1351 1.427 . S
N1359 C1357 1.384 . S
H1360 C1366 0.930 . S
H1361 C1370 0.930 . S
H1362 C1375 0.929 . S
H1363 C1373 0.929 . S
H1364 C1368 0.929 . S
H1365 C1374 0.929 . S
C1366 H1360 0.930 . S
C1366 C1367 1.367 . S
C1366 C1374 1.378 . S
C1367 C1366 1.367 . S
C1367 C1375 1.433 . S
C1368 H1364 0.929 . S
C1368 C1370 1.378 . S
C1368 C1372 1.350 . S
C1369 C1372 1.463 . S
C1369 C1374 1.350 . S
C1369 N1377 1.427 . S
C1370 H1361 0.930 . S
C1370 C1368 1.378 . S
C1370 C1371 1.367 . S
C1371 C1370 1.367 . S
C1371 C1373 1.433 . S
C1372 C1368 1.350 . S
C1372 C1369 1.463 . S
C1372 N1376 1.427 . S
C1373 H1363 0.929 . S
C1373 C1371 1.433 . S
C1373 N1376 1.384 . S
C1374 H1365 0.929 . S
C1374 C1366 1.378 . S
C1374 C1369 1.350 . S
C1375 H1362 0.929 . S
C1375 C1367 1.433 . S
C1375 N1377 1.384 . S
N1376 C1372 1.427 . S
N1376 C1373 1.384 . S
N1377 C1369 1.427 . S
N1377 C1375 1.384 . S
H1378 C1384 0.930 . S
H1379 C1388 0.930 . S
H1380 C1393 0.929 . S
H1381 C1391 0.929 . S
H1382 C1386 0.929 . S
H1383 C1392 0.929 . S
C1384 H1378 0.930 . S
C1384 C1385 1.367 . S
C1384 C1392 1.378 . S
C1385 C1384 1.367 . S
C1385 C1393 1.433 . S
C1386 H1382 0.929 . S
C1386 C1388 1.378 . S
C1386 C1390 1.350 . S
C1387 C1390 1.463 . S
C1387 C1392 1.350 . S
C1387 N1395 1.427 . S
C1388 H1379 0.930 . S
C1388 C1386 1.378 . S
C1388 C1389 1.367 . S
C1389 C1388 1.367 . S
C1389 C1391 1.433 . S
C1390 C1386 1.350 . S
C1390 C1387 1.463 . S
C1390 N1394 1.427 . S
C1391 H1381 0.929 . S
C1391 C1389 1.433 . S
C1391 N1394 1.384 . S
C1392 H1383 0.929 . S
C1392 C1384 1.378 . S
C1392 C1387 1.350 . S
C1393 H1380 0.929 . S
C1393 C1385 1.433 . S
C1393 N1395 1.384 . S
N1394 C1390 1.427 . S
N1394 C1391 1.384 . S
N1395 C1387 1.427 . S
N1395 C1393 1.384 . S
H1396 C1402 0.930 . S
H1397 C1406 0.930 . S
H1398 C1411 0.929 . S
H1399 C1409 0.929 . S
H1400 C1404 0.929 . S
H1401 C1410 0.929 . S
C1402 H1396 0.930 . S
C1402 C1403 1.367 . S
C1402 C1410 1.378 . S
C1403 C1402 1.367 . S
C1403 C1411 1.433 . S
C1404 H1400 0.929 . S
C1404 C1406 1.378 . S
C1404 C1408 1.350 . S
C1405 C1408 1.463 1_556 S
C1405 C1410 1.350 . S
C1405 N1413 1.427 . S
C1406 H1397 0.930 . S
C1406 C1404 1.378 . S
C1406 C1407 1.367 . S
C1407 C1406 1.367 . S
C1407 C1409 1.433 . S
C1408 C1404 1.350 . S
C1408 C1405 1.463 1_554 S
C1408 N1412 1.427 . S
C1409 H1399 0.929 . S
C1409 C1407 1.433 . S
C1409 N1412 1.384 . S
C1410 H1401 0.929 . S
C1410 C1402 1.378 . S
C1410 C1405 1.350 . S
C1411 H1398 0.929 . S
C1411 C1403 1.433 . S
C1411 N1413 1.384 . S
N1412 C1408 1.427 . S
N1412 C1409 1.384 . S
N1413 C1405 1.427 . S
N1413 C1411 1.384 . S
H1414 C1420 0.930 . S
H1415 C1424 0.930 . S
H1416 C1429 0.929 . S
H1417 C1427 0.929 . S
H1418 C1422 0.929 . S
H1419 C1428 0.929 . S
C1420 H1414 0.930 . S
C1420 C1421 1.367 . S
C1420 C1428 1.378 . S
C1421 C1420 1.367 . S
C1421 C1429 1.433 . S
C1422 H1418 0.929 . S
C1422 C1424 1.378 . S
C1422 C1426 1.350 . S
C1423 C1426 1.463 1_556 S
C1423 C1428 1.350 . S
C1423 N1431 1.427 . S
C1424 H1415 0.930 . S
C1424 C1422 1.378 . S
C1424 C1425 1.367 . S
C1425 C1424 1.367 . S
C1425 C1427 1.433 . S
C1426 C1422 1.350 . S
C1426 C1423 1.463 1_554 S
C1426 N1430 1.427 . S
C1427 H1417 0.929 . S
C1427 C1425 1.433 . S
C1427 N1430 1.384 . S
C1428 H1419 0.929 . S
C1428 C1420 1.378 . S
C1428 C1423 1.350 . S
C1429 H1416 0.929 . S
C1429 C1421 1.433 . S
C1429 N1431 1.384 . S
N1430 C1426 1.427 . S
N1430 C1427 1.384 . S
N1431 C1423 1.427 . S
N1431 C1429 1.384 . S
H1432 C1438 0.930 . S
H1433 C1442 0.930 . S
H1434 C1447 0.929 . S
H1435 C1445 0.929 . S
H1436 C1440 0.929 . S
H1437 C1446 0.929 . S
C1438 H1432 0.930 . S
C1438 C1439 1.367 . S
C1438 C1446 1.378 . S
C1439 C1438 1.367 . S
C1439 C1447 1.433 . S
C1440 H1436 0.929 . S
C1440 C1442 1.378 . S
C1440 C1444 1.350 . S
C1441 C1444 1.463 . S
C1441 C1446 1.350 . S
C1441 N1449 1.427 . S
C1442 H1433 0.930 . S
C1442 C1440 1.378 . S
C1442 C1443 1.367 . S
C1443 C1442 1.367 . S
C1443 C1445 1.433 . S
C1444 C1440 1.350 . S
C1444 C1441 1.463 . S
C1444 N1448 1.427 . S
C1445 H1435 0.929 . S
C1445 C1443 1.433 . S
C1445 N1448 1.384 . S
C1446 H1437 0.929 . S
C1446 C1438 1.378 . S
C1446 C1441 1.350 . S
C1447 H1434 0.929 . S
C1447 C1439 1.433 . S
C1447 N1449 1.384 . S
N1448 C1444 1.427 . S
N1448 C1445 1.384 . S
N1449 C1441 1.427 . S
N1449 C1447 1.384 . S
H1450 C1456 0.930 . S
H1451 C1460 0.930 . S
H1452 C1465 0.929 . S
H1453 C1463 0.929 . S
H1454 C1458 0.929 . S
H1455 C1464 0.929 . S
C1456 H1450 0.930 . S
C1456 C1457 1.367 . S
C1456 C1464 1.378 . S
C1457 C1456 1.367 . S
C1457 C1465 1.433 . S
C1458 H1454 0.929 . S
C1458 C1460 1.378 . S
C1458 C1462 1.350 . S
C1459 C1462 1.463 . S
C1459 C1464 1.350 . S
C1459 N1467 1.427 . S
C1460 H1451 0.930 . S
C1460 C1458 1.378 . S
C1460 C1461 1.367 . S
C1461 C1460 1.367 . S
C1461 C1463 1.433 . S
C1462 C1458 1.350 . S
C1462 C1459 1.463 . S
C1462 N1466 1.427 . S
C1463 H1453 0.929 . S
C1463 C1461 1.433 . S
C1463 N1466 1.384 . S
C1464 H1455 0.929 . S
C1464 C1456 1.378 . S
C1464 C1459 1.350 . S
C1465 H1452 0.929 . S
C1465 C1457 1.433 . S
C1465 N1467 1.384 . S
N1466 C1462 1.427 . S
N1466 C1463 1.384 . S
N1467 C1459 1.427 . S
N1467 C1465 1.384 . S
H1468 C1474 0.930 . S
H1469 C1478 0.930 . S
H1470 C1483 0.929 . S
H1471 C1481 0.929 . S
H1472 C1476 0.929 . S
H1473 C1482 0.929 . S
C1474 H1468 0.930 . S
C1474 C1475 1.367 . S
C1474 C1482 1.378 . S
C1475 C1474 1.367 . S
C1475 C1483 1.433 . S
C1476 H1472 0.929 . S
C1476 C1478 1.378 . S
C1476 C1480 1.350 . S
C1477 C1480 1.463 1_554 S
C1477 C1482 1.350 . S
C1477 N1485 1.427 . S
C1478 H1469 0.930 . S
C1478 C1476 1.378 . S
C1478 C1479 1.367 . S
C1479 C1478 1.367 . S
C1479 C1481 1.433 . S
C1480 C1476 1.350 . S
C1480 C1477 1.463 1_556 S
C1480 N1484 1.427 . S
C1481 H1471 0.929 . S
C1481 C1479 1.433 . S
C1481 N1484 1.384 . S
C1482 H1473 0.929 . S
C1482 C1474 1.378 . S
C1482 C1477 1.350 . S
C1483 H1470 0.929 . S
C1483 C1475 1.433 . S
C1483 N1485 1.384 . S
N1484 C1480 1.427 . S
N1484 C1481 1.384 . S
N1485 C1477 1.427 . S
N1485 C1483 1.384 . S
H1486 C1492 0.930 . S
H1487 C1496 0.930 . S
H1488 C1501 0.929 . S
H1489 C1499 0.929 . S
H1490 C1494 0.929 . S
H1491 C1500 0.929 . S
C1492 H1486 0.930 . S
C1492 C1493 1.367 . S
C1492 C1500 1.378 . S
C1493 C1492 1.367 . S
C1493 C1501 1.433 . S
C1494 H1490 0.929 . S
C1494 C1496 1.378 . S
C1494 C1498 1.350 . S
C1495 C1498 1.463 1_556 S
C1495 C1500 1.350 . S
C1495 N1503 1.427 . S
C1496 H1487 0.930 . S
C1496 C1494 1.378 . S
C1496 C1497 1.367 . S
C1497 C1496 1.367 . S
C1497 C1499 1.433 . S
C1498 C1494 1.350 . S
C1498 C1495 1.463 1_554 S
C1498 N1502 1.427 . S
C1499 H1489 0.929 . S
C1499 C1497 1.433 . S
C1499 N1502 1.384 . S
C1500 H1491 0.929 . S
C1500 C1492 1.378 . S
C1500 C1495 1.350 . S
C1501 H1488 0.929 . S
C1501 C1493 1.433 . S
C1501 N1503 1.384 . S
N1502 C1498 1.427 . S
N1502 C1499 1.384 . S
N1503 C1495 1.427 . S
N1503 C1501 1.384 . S
H1504 C1510 0.930 . S
H1505 C1514 0.930 . S
H1506 C1519 0.929 . S
H1507 C1517 0.929 . S
H1508 C1512 0.929 . S
H1509 C1518 0.929 . S
C1510 H1504 0.930 . S
C1510 C1511 1.367 . S
C1510 C1518 1.378 . S
C1511 C1510 1.367 . S
C1511 C1519 1.433 . S
C1512 H1508 0.929 . S
C1512 C1514 1.378 . S
C1512 C1516 1.350 . S
C1513 C1516 1.463 . S
C1513 C1518 1.350 . S
C1513 N1521 1.427 . S
C1514 H1505 0.930 . S
C1514 C1512 1.378 . S
C1514 C1515 1.367 . S
C1515 C1514 1.367 . S
C1515 C1517 1.433 . S
C1516 C1512 1.350 . S
C1516 C1513 1.463 . S
C1516 N1520 1.427 . S
C1517 H1507 0.929 . S
C1517 C1515 1.433 . S
C1517 N1520 1.384 . S
C1518 H1509 0.929 . S
C1518 C1510 1.378 . S
C1518 C1513 1.350 . S
C1519 H1506 0.929 . S
C1519 C1511 1.433 . S
C1519 N1521 1.384 . S
N1520 C1516 1.427 . S
N1520 C1517 1.384 . S
N1521 C1513 1.427 . S
N1521 C1519 1.384 . S
H1522 C1528 0.930 . S
H1523 C1532 0.930 . S
H1524 C1537 0.929 . S
H1525 C1535 0.929 . S
H1526 C1530 0.929 . S
H1527 C1536 0.929 . S
C1528 H1522 0.930 . S
C1528 C1529 1.367 1_545 S
C1528 C1536 1.378 . S
C1529 C1528 1.367 1_565 S
C1529 C1537 1.433 . S
C1530 H1526 0.929 . S
C1530 C1532 1.378 . S
C1530 C1534 1.350 1_565 S
C1531 C1534 1.463 1_565 S
C1531 C1536 1.350 1_565 S
C1531 N1539 1.427 . S
C1532 H1523 0.930 . S
C1532 C1530 1.378 . S
C1532 C1533 1.367 1_565 S
C1533 C1532 1.367 1_545 S
C1533 C1535 1.433 . S
C1534 C1530 1.350 1_545 S
C1534 C1531 1.463 1_545 S
C1534 N1538 1.427 . S
C1535 H1525 0.929 . S
C1535 C1533 1.433 . S
C1535 N1538 1.384 . S
C1536 H1527 0.929 . S
C1536 C1528 1.378 . S
C1536 C1531 1.350 1_545 S
C1537 H1524 0.929 . S
C1537 C1529 1.433 . S
C1537 N1539 1.384 . S
N1538 C1534 1.427 . S
N1538 C1535 1.384 . S
N1539 C1531 1.427 . S
N1539 C1537 1.384 . S
H1540 C1546 0.930 . S
H1541 C1550 0.930 . S
H1542 C1555 0.929 . S
H1543 C1553 0.929 . S
H1544 C1548 0.929 1_565 S
H1545 C1554 0.929 . S
C1546 H1540 0.930 . S
C1546 C1547 1.367 . S
C1546 C1554 1.378 . S
C1547 C1546 1.367 . S
C1547 C1555 1.433 . S
C1548 H1544 0.929 1_545 S
C1548 C1550 1.378 . S
C1548 C1552 1.350 . S
C1549 C1552 1.463 1_566 S
C1549 C1554 1.350 . S
C1549 N1557 1.427 . S
C1550 H1541 0.930 . S
C1550 C1548 1.378 . S
C1550 C1551 1.367 . S
C1551 C1550 1.367 . S
C1551 C1553 1.433 . S
C1552 C1548 1.350 . S
C1552 C1549 1.463 1_544 S
C1552 N1556 1.427 . S
C1553 H1543 0.929 . S
C1553 C1551 1.433 . S
C1553 N1556 1.384 . S
C1554 H1545 0.929 . S
C1554 C1546 1.378 . S
C1554 C1549 1.350 . S
C1555 H1542 0.929 . S
C1555 C1547 1.433 . S
C1555 N1557 1.384 . S
N1556 C1552 1.427 . S
N1556 C1553 1.384 . S
N1557 C1549 1.427 . S
N1557 C1555 1.384 . S
H1558 C1564 0.930 . S
H1559 C1568 0.930 . S
H1560 C1573 0.929 . S
H1561 C1571 0.929 . S
H1562 C1566 0.929 . S
H1563 C1572 0.929 . S
C1564 H1558 0.930 . S
C1564 C1565 1.367 . S
C1564 C1572 1.378 . S
C1565 C1564 1.367 . S
C1565 C1573 1.433 . S
C1566 H1562 0.929 . S
C1566 C1568 1.378 . S
C1566 C1570 1.350 . S
C1567 C1570 1.463 1_556 S
C1567 C1572 1.350 . S
C1567 N1575 1.427 . S
C1568 H1559 0.930 . S
C1568 C1566 1.378 . S
C1568 C1569 1.367 . S
C1569 C1568 1.367 . S
C1569 C1571 1.433 . S
C1570 C1566 1.350 . S
C1570 C1567 1.463 1_554 S
C1570 N1574 1.427 . S
C1571 H1561 0.929 . S
C1571 C1569 1.433 . S
C1571 N1574 1.384 . S
C1572 H1563 0.929 . S
C1572 C1564 1.378 . S
C1572 C1567 1.350 . S
C1573 H1560 0.929 . S
C1573 C1565 1.433 . S
C1573 N1575 1.384 . S
N1574 C1570 1.427 . S
N1574 C1571 1.384 . S
N1575 C1567 1.427 . S
N1575 C1573 1.384 . S
H1576 C1582 0.930 . S
H1577 C1586 0.930 . S
H1578 C1591 0.929 . S
H1579 C1589 0.929 . S
H1580 C1584 0.929 . S
H1581 C1590 0.929 . S
C1582 H1576 0.930 . S
C1582 C1583 1.367 . S
C1582 C1590 1.378 . S
C1583 C1582 1.367 . S
C1583 C1591 1.433 . S
C1584 H1580 0.929 . S
C1584 C1586 1.378 . S
C1584 C1588 1.350 . S
C1585 C1588 1.463 . S
C1585 C1590 1.350 . S
C1585 N1593 1.427 . S
C1586 H1577 0.930 . S
C1586 C1584 1.378 . S
C1586 C1587 1.367 . S
C1587 C1586 1.367 . S
C1587 C1589 1.433 . S
C1588 C1584 1.350 . S
C1588 C1585 1.463 . S
C1588 N1592 1.427 . S
C1589 H1579 0.929 . S
C1589 C1587 1.433 . S
C1589 N1592 1.384 . S
C1590 H1581 0.929 . S
C1590 C1582 1.378 . S
C1590 C1585 1.350 . S
C1591 H1578 0.929 . S
C1591 C1583 1.433 . S
C1591 N1593 1.384 . S
N1592 C1588 1.427 . S
N1592 C1589 1.384 . S
N1593 C1585 1.427 . S
N1593 C1591 1.384 . S
H1594 C1600 0.930 . S
H1595 C1604 0.930 . S
H1596 C1609 0.929 . S
H1597 C1607 0.929 . S
H1598 C1602 0.929 . S
H1599 C1608 0.929 . S
C1600 H1594 0.930 . S
C1600 C1601 1.367 1_565 S
C1600 C1608 1.378 . S
C1601 C1600 1.367 1_545 S
C1601 C1609 1.433 . S
C1602 H1598 0.929 . S
C1602 C1604 1.378 . S
C1602 C1606 1.350 1_545 S
C1603 C1606 1.463 1_545 S
C1603 C1608 1.350 1_545 S
C1603 N1611 1.427 . S
C1604 H1595 0.930 . S
C1604 C1602 1.378 . S
C1604 C1605 1.367 1_545 S
C1605 C1604 1.367 1_565 S
C1605 C1607 1.433 . S
C1606 C1602 1.350 1_565 S
C1606 C1603 1.463 1_565 S
C1606 N1610 1.427 . S
C1607 H1597 0.929 . S
C1607 C1605 1.433 . S
C1607 N1610 1.384 . S
C1608 H1599 0.929 . S
C1608 C1600 1.378 . S
C1608 C1603 1.350 1_565 S
C1609 H1596 0.929 . S
C1609 C1601 1.433 . S
C1609 N1611 1.384 . S
N1610 C1606 1.427 . S
N1610 C1607 1.384 . S
N1611 C1603 1.427 . S
N1611 C1609 1.384 . S
H1612 C1618 0.930 . S
H1613 C1622 0.930 . S
H1614 C1627 0.929 . S
H1615 C1625 0.929 . S
H1616 C1620 0.929 . S
H1617 C1626 0.929 . S
C1618 H1612 0.930 . S
C1618 C1619 1.367 . S
C1618 C1626 1.378 . S
C1619 C1618 1.367 . S
C1619 C1627 1.433 1_565 S
C1620 H1616 0.929 . S
C1620 C1622 1.378 . S
C1620 C1624 1.350 . S
C1621 C1624 1.463 1_566 S
C1621 C1626 1.350 . S
C1621 N1629 1.427 1_565 S
C1622 H1613 0.930 . S
C1622 C1620 1.378 . S
C1622 C1623 1.367 . S
C1623 C1622 1.367 . S
C1623 C1625 1.433 1_545 S
C1624 C1620 1.350 . S
C1624 C1621 1.463 1_544 S
C1624 N1628 1.427 1_545 S
C1625 H1615 0.929 . S
C1625 C1623 1.433 1_565 S
C1625 N1628 1.384 . S
C1626 H1617 0.929 . S
C1626 C1618 1.378 . S
C1626 C1621 1.350 . S
C1627 H1614 0.929 . S
C1627 C1619 1.433 1_545 S
C1627 N1629 1.384 . S
N1628 C1624 1.427 1_565 S
N1628 C1625 1.384 . S
N1629 C1621 1.427 1_545 S
N1629 C1627 1.384 . S
H1630 C1636 0.930 . S
H1631 C1640 0.930 . S
H1632 C1645 0.929 . S
H1633 C1643 0.929 . S
H1634 C1638 0.929 . S
H1635 C1644 0.929 . S
C1636 H1630 0.930 . S
C1636 C1637 1.367 . S
C1636 C1644 1.378 . S
C1637 C1636 1.367 . S
C1637 C1645 1.433 . S
C1638 H1634 0.929 . S
C1638 C1640 1.378 . S
C1638 C1642 1.350 . S
C1639 C1642 1.463 1_556 S
C1639 C1644 1.350 . S
C1639 N1647 1.427 . S
C1640 H1631 0.930 . S
C1640 C1638 1.378 . S
C1640 C1641 1.367 . S
C1641 C1640 1.367 . S
C1641 C1643 1.433 . S
C1642 C1638 1.350 . S
C1642 C1639 1.463 1_554 S
C1642 N1646 1.427 . S
C1643 H1633 0.929 . S
C1643 C1641 1.433 . S
C1643 N1646 1.384 . S
C1644 H1635 0.929 . S
C1644 C1636 1.378 . S
C1644 C1639 1.350 . S
C1645 H1632 0.929 . S
C1645 C1637 1.433 . S
C1645 N1647 1.384 . S
N1646 C1642 1.427 . S
N1646 C1643 1.384 . S
N1647 C1639 1.427 . S
N1647 C1645 1.384 . S
H1648 C1654 0.930 . S
H1649 C1658 0.930 . S
H1650 C1663 0.929 . S
H1651 C1661 0.929 . S
H1652 C1656 0.929 . S
H1653 C1662 0.929 . S
C1654 H1648 0.930 . S
C1654 C1655 1.367 . S
C1654 C1662 1.378 . S
C1655 C1654 1.367 . S
C1655 C1663 1.433 . S
C1656 H1652 0.929 . S
C1656 C1658 1.378 . S
C1656 C1660 1.350 . S
C1657 C1660 1.463 . S
C1657 C1662 1.350 . S
C1657 N1665 1.427 . S
C1658 H1649 0.930 . S
C1658 C1656 1.378 . S
C1658 C1659 1.367 . S
C1659 C1658 1.367 . S
C1659 C1661 1.433 . S
C1660 C1656 1.350 . S
C1660 C1657 1.463 . S
C1660 N1664 1.427 . S
C1661 H1651 0.929 . S
C1661 C1659 1.433 . S
C1661 N1664 1.384 . S
C1662 H1653 0.929 . S
C1662 C1654 1.378 . S
C1662 C1657 1.350 . S
C1663 H1650 0.929 . S
C1663 C1655 1.433 . S
C1663 N1665 1.384 . S
N1664 C1660 1.427 . S
N1664 C1661 1.384 . S
N1665 C1657 1.427 . S
N1665 C1663 1.384 . S
H1666 C1672 0.930 . S
H1667 C1676 0.930 . S
H1668 C1681 0.929 . S
H1669 C1679 0.929 . S
H1670 C1674 0.929 . S
H1671 C1680 0.929 . S
C1672 H1666 0.930 . S
C1672 C1673 1.367 . S
C1672 C1680 1.378 . S
C1673 C1672 1.367 . S
C1673 C1681 1.433 . S
C1674 H1670 0.929 . S
C1674 C1676 1.378 . S
C1674 C1678 1.350 . S
C1675 C1678 1.463 . S
C1675 C1680 1.350 . S
C1675 N1683 1.427 . S
C1676 H1667 0.930 . S
C1676 C1674 1.378 . S
C1676 C1677 1.367 . S
C1677 C1676 1.367 . S
C1677 C1679 1.433 . S
C1678 C1674 1.350 . S
C1678 C1675 1.463 . S
C1678 N1682 1.427 . S
C1679 H1669 0.929 . S
C1679 C1677 1.433 . S
C1679 N1682 1.384 . S
C1680 H1671 0.929 . S
C1680 C1672 1.378 . S
C1680 C1675 1.350 . S
C1681 H1668 0.929 . S
C1681 C1673 1.433 . S
C1681 N1683 1.384 . S
N1682 C1678 1.427 . S
N1682 C1679 1.384 . S
N1683 C1675 1.427 . S
N1683 C1681 1.384 . S
H1684 C1690 0.930 . S
H1685 C1694 0.930 . S
H1686 C1699 0.929 . S
H1687 C1697 0.929 . S
H1688 C1692 0.929 . S
H1689 C1698 0.929 . S
C1690 H1684 0.930 . S
C1690 C1691 1.367 . S
C1690 C1698 1.378 . S
C1691 C1690 1.367 . S
C1691 C1699 1.433 . S
C1692 H1688 0.929 . S
C1692 C1694 1.378 . S
C1692 C1696 1.350 . S
C1693 C1696 1.463 . S
C1693 C1698 1.350 . S
C1693 N1701 1.427 . S
C1694 H1685 0.930 . S
C1694 C1692 1.378 . S
C1694 C1695 1.367 . S
C1695 C1694 1.367 . S
C1695 C1697 1.433 . S
C1696 C1692 1.350 . S
C1696 C1693 1.463 . S
C1696 N1700 1.427 . S
C1697 H1687 0.929 . S
C1697 C1695 1.433 . S
C1697 N1700 1.384 . S
C1698 H1689 0.929 . S
C1698 C1690 1.378 . S
C1698 C1693 1.350 . S
C1699 H1686 0.929 . S
C1699 C1691 1.433 . S
C1699 N1701 1.384 . S
N1700 C1696 1.427 . S
N1700 C1697 1.384 . S
N1701 C1693 1.427 . S
N1701 C1699 1.384 . S
H1702 C1708 0.930 . S
H1703 C1712 0.930 . S
H1704 C1717 0.929 . S
H1705 C1715 0.929 . S
H1706 C1710 0.929 . S
H1707 C1716 0.929 . S
C1708 H1702 0.930 . S
C1708 C1709 1.367 . S
C1708 C1716 1.378 . S
C1709 C1708 1.367 . S
C1709 C1717 1.433 . S
C1710 H1706 0.929 . S
C1710 C1712 1.378 . S
C1710 C1714 1.350 . S
C1711 C1714 1.463 . S
C1711 C1716 1.350 . S
C1711 N1719 1.427 . S
C1712 H1703 0.930 . S
C1712 C1710 1.378 . S
C1712 C1713 1.367 . S
C1713 C1712 1.367 . S
C1713 C1715 1.433 . S
C1714 C1710 1.350 . S
C1714 C1711 1.463 . S
C1714 N1718 1.427 . S
C1715 H1705 0.929 . S
C1715 C1713 1.433 . S
C1715 N1718 1.384 . S
C1716 H1707 0.929 . S
C1716 C1708 1.378 . S
C1716 C1711 1.350 . S
C1717 H1704 0.929 . S
C1717 C1709 1.433 . S
C1717 N1719 1.384 . S
N1718 C1714 1.427 . S
N1718 C1715 1.384 . S
N1719 C1711 1.427 . S
N1719 C1717 1.384 . S
H1720 C1726 0.930 . S
H1721 C1730 0.930 . S
H1722 C1735 0.929 . S
H1723 C1733 0.929 . S
H1724 C1728 0.929 . S
H1725 C1734 0.929 . S
C1726 H1720 0.930 . S
C1726 C1727 1.367 . S
C1726 C1734 1.378 . S
C1727 C1726 1.367 . S
C1727 C1735 1.433 . S
C1728 H1724 0.929 . S
C1728 C1730 1.378 . S
C1728 C1732 1.350 . S
C1729 C1732 1.463 . S
C1729 C1734 1.350 . S
C1729 N1737 1.427 . S
C1730 H1721 0.930 . S
C1730 C1728 1.378 . S
C1730 C1731 1.367 . S
C1731 C1730 1.367 . S
C1731 C1733 1.433 . S
C1732 C1728 1.350 . S
C1732 C1729 1.463 . S
C1732 N1736 1.427 . S
C1733 H1723 0.929 . S
C1733 C1731 1.433 . S
C1733 N1736 1.384 . S
C1734 H1725 0.929 . S
C1734 C1726 1.378 . S
C1734 C1729 1.350 . S
C1735 H1722 0.929 . S
C1735 C1727 1.433 . S
C1735 N1737 1.384 . S
N1736 C1732 1.427 . S
N1736 C1733 1.384 . S
N1737 C1729 1.427 . S
N1737 C1735 1.384 . S
H1738 C1744 0.930 . S
H1739 C1748 0.930 . S
H1740 C1753 0.929 . S
H1741 C1751 0.929 . S
H1742 C1746 0.929 . S
H1743 C1752 0.929 . S
C1744 H1738 0.930 . S
C1744 C1745 1.367 . S
C1744 C1752 1.378 . S
C1745 C1744 1.367 . S
C1745 C1753 1.433 . S
C1746 H1742 0.929 . S
C1746 C1748 1.378 . S
C1746 C1750 1.350 . S
C1747 C1750 1.463 . S
C1747 C1752 1.350 . S
C1747 N1755 1.427 . S
C1748 H1739 0.930 . S
C1748 C1746 1.378 . S
C1748 C1749 1.367 . S
C1749 C1748 1.367 . S
C1749 C1751 1.433 . S
C1750 C1746 1.350 . S
C1750 C1747 1.463 . S
C1750 N1754 1.427 . S
C1751 H1741 0.929 . S
C1751 C1749 1.433 . S
C1751 N1754 1.384 . S
C1752 H1743 0.929 . S
C1752 C1744 1.378 . S
C1752 C1747 1.350 . S
C1753 H1740 0.929 . S
C1753 C1745 1.433 . S
C1753 N1755 1.384 . S
N1754 C1750 1.427 . S
N1754 C1751 1.384 . S
N1755 C1747 1.427 . S
N1755 C1753 1.384 . S
H1756 C1762 0.930 . S
H1757 C1766 0.930 . S
H1758 C1771 0.929 . S
H1759 C1769 0.929 . S
H1760 C1764 0.929 . S
H1761 C1770 0.929 . S
C1762 H1756 0.930 . S
C1762 C1763 1.367 . S
C1762 C1770 1.378 . S
C1763 C1762 1.367 . S
C1763 C1771 1.433 . S
C1764 H1760 0.929 . S
C1764 C1766 1.378 . S
C1764 C1768 1.350 . S
C1765 C1768 1.463 . S
C1765 C1770 1.350 . S
C1765 N1773 1.427 . S
C1766 H1757 0.930 . S
C1766 C1764 1.378 . S
C1766 C1767 1.367 . S
C1767 C1766 1.367 . S
C1767 C1769 1.433 . S
C1768 C1764 1.350 . S
C1768 C1765 1.463 . S
C1768 N1772 1.427 . S
C1769 H1759 0.929 . S
C1769 C1767 1.433 . S
C1769 N1772 1.384 . S
C1770 H1761 0.929 . S
C1770 C1762 1.378 . S
C1770 C1765 1.350 . S
C1771 H1758 0.929 . S
C1771 C1763 1.433 . S
C1771 N1773 1.384 . S
N1772 C1768 1.427 . S
N1772 C1769 1.384 . S
N1773 C1765 1.427 . S
N1773 C1771 1.384 . S
H1774 C1780 0.930 . S
H1775 C1784 0.930 . S
H1776 C1789 0.929 . S
H1777 C1787 0.929 . S
H1778 C1782 0.929 . S
H1779 C1788 0.929 . S
C1780 H1774 0.930 . S
C1780 C1781 1.367 . S
C1780 C1788 1.378 . S
C1781 C1780 1.367 . S
C1781 C1789 1.433 . S
C1782 H1778 0.929 . S
C1782 C1784 1.378 . S
C1782 C1786 1.350 . S
C1783 C1786 1.463 . S
C1783 C1788 1.350 . S
C1783 N1791 1.427 . S
C1784 H1775 0.930 . S
C1784 C1782 1.378 . S
C1784 C1785 1.367 . S
C1785 C1784 1.367 . S
C1785 C1787 1.433 . S
C1786 C1782 1.350 . S
C1786 C1783 1.463 . S
C1786 N1790 1.427 . S
C1787 H1777 0.929 . S
C1787 C1785 1.433 . S
C1787 N1790 1.384 . S
C1788 H1779 0.929 . S
C1788 C1780 1.378 . S
C1788 C1783 1.350 . S
C1789 H1776 0.929 . S
C1789 C1781 1.433 . S
C1789 N1791 1.384 . S
N1790 C1786 1.427 . S
N1790 C1787 1.384 . S
N1791 C1783 1.427 . S
N1791 C1789 1.384 . S
H1792 C1798 0.930 . S
H1793 C1802 0.930 . S
H1794 C1807 0.929 . S
H1795 C1805 0.929 . S
H1796 C1800 0.929 . S
H1797 C1806 0.929 . S
C1798 H1792 0.930 . S
C1798 C1799 1.367 . S
C1798 C1806 1.378 . S
C1799 C1798 1.367 . S
C1799 C1807 1.433 . S
C1800 H1796 0.929 . S
C1800 C1802 1.378 . S
C1800 C1804 1.350 . S
C1801 C1804 1.463 . S
C1801 C1806 1.350 . S
C1801 N1809 1.427 . S
C1802 H1793 0.930 . S
C1802 C1800 1.378 . S
C1802 C1803 1.367 . S
C1803 C1802 1.367 . S
C1803 C1805 1.433 . S
C1804 C1800 1.350 . S
C1804 C1801 1.463 . S
C1804 N1808 1.427 . S
C1805 H1795 0.929 . S
C1805 C1803 1.433 . S
C1805 N1808 1.384 . S
C1806 H1797 0.929 . S
C1806 C1798 1.378 . S
C1806 C1801 1.350 . S
C1807 H1794 0.929 . S
C1807 C1799 1.433 . S
C1807 N1809 1.384 . S
N1808 C1804 1.427 . S
N1808 C1805 1.384 . S
N1809 C1801 1.427 . S
N1809 C1807 1.384 . S
H1810 C1816 0.930 . S
H1811 C1820 0.930 . S
H1812 C1825 0.929 . S
H1813 C1823 0.929 . S
H1814 C1818 0.929 . S
H1815 C1824 0.929 . S
C1816 H1810 0.930 . S
C1816 C1817 1.367 . S
C1816 C1824 1.378 . S
C1817 C1816 1.367 . S
C1817 C1825 1.433 . S
C1818 H1814 0.929 . S
C1818 C1820 1.378 . S
C1818 C1822 1.350 . S
C1819 C1822 1.463 . S
C1819 C1824 1.350 . S
C1819 N1827 1.427 . S
C1820 H1811 0.930 . S
C1820 C1818 1.378 . S
C1820 C1821 1.367 . S
C1821 C1820 1.367 . S
C1821 C1823 1.433 . S
C1822 C1818 1.350 . S
C1822 C1819 1.463 . S
C1822 N1826 1.427 . S
C1823 H1813 0.929 . S
C1823 C1821 1.433 . S
C1823 N1826 1.384 . S
C1824 H1815 0.929 . S
C1824 C1816 1.378 . S
C1824 C1819 1.350 . S
C1825 H1812 0.929 . S
C1825 C1817 1.433 . S
C1825 N1827 1.384 . S
N1826 C1822 1.427 . S
N1826 C1823 1.384 . S
N1827 C1819 1.427 . S
N1827 C1825 1.384 . S
H1828 C1834 0.930 . S
H1829 C1838 0.930 . S
H1830 C1843 0.929 1_554 S
H1831 C1841 0.929 . S
H1832 C1836 0.929 . S
H1833 C1842 0.929 . S
C1834 H1828 0.930 . S
C1834 C1835 1.367 . S
C1834 C1842 1.378 . S
C1835 C1834 1.367 . S
C1835 C1843 1.433 . S
C1836 H1832 0.929 . S
C1836 C1838 1.378 . S
C1836 C1840 1.350 . S
C1837 C1840 1.463 . S
C1837 C1842 1.350 . S
C1837 N1845 1.427 . S
C1838 H1829 0.930 . S
C1838 C1836 1.378 . S
C1838 C1839 1.367 . S
C1839 C1838 1.367 . S
C1839 C1841 1.433 . S
C1840 C1836 1.350 . S
C1840 C1837 1.463 . S
C1840 N1844 1.427 . S
C1841 H1831 0.929 . S
C1841 C1839 1.433 . S
C1841 N1844 1.384 . S
C1842 H1833 0.929 . S
C1842 C1834 1.378 . S
C1842 C1837 1.350 . S
C1843 H1830 0.929 1_556 S
C1843 C1835 1.433 . S
C1843 N1845 1.384 . S
N1844 C1840 1.427 . S
N1844 C1841 1.384 . S
N1845 C1837 1.427 . S
N1845 C1843 1.384 . S
H1846 C1852 0.930 . S
H1847 C1856 0.930 . S
H1848 C1861 0.929 . S
H1849 C1859 0.929 1_554 S
H1850 C1854 0.929 . S
H1851 C1860 0.929 . S
C1852 H1846 0.930 . S
C1852 C1853 1.367 . S
C1852 C1860 1.378 . S
C1853 C1852 1.367 . S
C1853 C1861 1.433 . S
C1854 H1850 0.929 . S
C1854 C1856 1.378 . S
C1854 C1858 1.350 . S
C1855 C1858 1.463 . S
C1855 C1860 1.350 . S
C1855 N1863 1.427 . S
C1856 H1847 0.930 . S
C1856 C1854 1.378 . S
C1856 C1857 1.367 . S
C1857 C1856 1.367 . S
C1857 C1859 1.433 . S
C1858 C1854 1.350 . S
C1858 C1855 1.463 . S
C1858 N1862 1.427 . S
C1859 H1849 0.929 1_556 S
C1859 C1857 1.433 . S
C1859 N1862 1.384 . S
C1860 H1851 0.929 . S
C1860 C1852 1.378 . S
C1860 C1855 1.350 . S
C1861 H1848 0.929 . S
C1861 C1853 1.433 . S
C1861 N1863 1.384 . S
N1862 C1858 1.427 . S
N1862 C1859 1.384 . S
N1863 C1855 1.427 . S
N1863 C1861 1.384 . S
H1864 C1870 0.930 . S
H1865 C1874 0.930 . S
H1866 C1879 0.929 . S
H1867 C1877 0.929 . S
H1868 C1872 0.929 . S
H1869 C1878 0.929 . S
C1870 H1864 0.930 . S
C1870 C1871 1.367 . S
C1870 C1878 1.378 . S
C1871 C1870 1.367 . S
C1871 C1879 1.433 . S
C1872 H1868 0.929 . S
C1872 C1874 1.378 . S
C1872 C1876 1.350 . S
C1873 C1876 1.463 . S
C1873 C1878 1.350 . S
C1873 N1881 1.427 . S
C1874 H1865 0.930 . S
C1874 C1872 1.378 . S
C1874 C1875 1.367 . S
C1875 C1874 1.367 . S
C1875 C1877 1.433 . S
C1876 C1872 1.350 . S
C1876 C1873 1.463 . S
C1876 N1880 1.427 . S
C1877 H1867 0.929 . S
C1877 C1875 1.433 . S
C1877 N1880 1.384 . S
C1878 H1869 0.929 . S
C1878 C1870 1.378 . S
C1878 C1873 1.350 . S
C1879 H1866 0.929 . S
C1879 C1871 1.433 . S
C1879 N1881 1.384 . S
N1880 C1876 1.427 . S
N1880 C1877 1.384 . S
N1881 C1873 1.427 . S
N1881 C1879 1.384 . S
H1882 C1888 0.930 . S
H1883 C1892 0.930 . S
H1884 C1897 0.929 . S
H1885 C1895 0.929 . S
H1886 C1890 0.929 . S
H1887 C1896 0.929 . S
C1888 H1882 0.930 . S
C1888 C1889 1.367 . S
C1888 C1896 1.378 . S
C1889 C1888 1.367 . S
C1889 C1897 1.433 . S
C1890 H1886 0.929 . S
C1890 C1892 1.378 . S
C1890 C1894 1.350 . S
C1891 C1894 1.463 . S
C1891 C1896 1.350 . S
C1891 N1899 1.427 . S
C1892 H1883 0.930 . S
C1892 C1890 1.378 . S
C1892 C1893 1.367 . S
C1893 C1892 1.367 . S
C1893 C1895 1.433 . S
C1894 C1890 1.350 . S
C1894 C1891 1.463 . S
C1894 N1898 1.427 . S
C1895 H1885 0.929 . S
C1895 C1893 1.433 . S
C1895 N1898 1.384 . S
C1896 H1887 0.929 . S
C1896 C1888 1.378 . S
C1896 C1891 1.350 . S
C1897 H1884 0.929 . S
C1897 C1889 1.433 . S
C1897 N1899 1.384 . S
N1898 C1894 1.427 . S
N1898 C1895 1.384 . S
N1899 C1891 1.427 . S
N1899 C1897 1.384 . S
H1900 C1906 0.930 1_556 S
H1901 C1910 0.930 . S
H1902 C1915 0.929 . S
H1903 C1913 0.929 . S
H1904 C1908 0.929 . S
H1905 C1914 0.929 . S
C1906 H1900 0.930 1_554 S
C1906 C1907 1.367 . S
C1906 C1914 1.378 . S
C1907 C1906 1.367 . S
C1907 C1915 1.433 . S
C1908 H1904 0.929 . S
C1908 C1910 1.378 . S
C1908 C1912 1.350 . S
C1909 C1912 1.463 . S
C1909 C1914 1.350 . S
C1909 N1917 1.427 . S
C1910 H1901 0.930 . S
C1910 C1908 1.378 . S
C1910 C1911 1.367 . S
C1911 C1910 1.367 . S
C1911 C1913 1.433 . S
C1912 C1908 1.350 . S
C1912 C1909 1.463 . S
C1912 N1916 1.427 . S
C1913 H1903 0.929 . S
C1913 C1911 1.433 . S
C1913 N1916 1.384 . S
C1914 H1905 0.929 . S
C1914 C1906 1.378 . S
C1914 C1909 1.350 . S
C1915 H1902 0.929 . S
C1915 C1907 1.433 . S
C1915 N1917 1.384 . S
N1916 C1912 1.427 . S
N1916 C1913 1.384 . S
N1917 C1909 1.427 . S
N1917 C1915 1.384 . S
H1918 C1924 0.930 . S
H1919 C1928 0.930 . S
H1920 C1933 0.929 . S
H1921 C1931 0.929 . S
H1922 C1926 0.929 . S
H1923 C1932 0.929 . S
C1924 H1918 0.930 . S
C1924 C1925 1.367 1_556 S
C1924 C1932 1.378 1_556 S
C1925 C1924 1.367 1_554 S
C1925 C1933 1.433 . S
C1926 H1922 0.929 . S
C1926 C1928 1.378 . S
C1926 C1930 1.350 . S
C1927 C1930 1.463 . S
C1927 C1932 1.350 . S
C1927 N1935 1.427 . S
C1928 H1919 0.930 . S
C1928 C1926 1.378 . S
C1928 C1929 1.367 . S
C1929 C1928 1.367 . S
C1929 C1931 1.433 . S
C1930 C1926 1.350 . S
C1930 C1927 1.463 . S
C1930 N1934 1.427 . S
C1931 H1921 0.929 . S
C1931 C1929 1.433 . S
C1931 N1934 1.384 . S
C1932 H1923 0.929 . S
C1932 C1924 1.378 1_554 S
C1932 C1927 1.350 . S
C1933 H1920 0.929 . S
C1933 C1925 1.433 . S
C1933 N1935 1.384 . S
N1934 C1930 1.427 . S
N1934 C1931 1.384 . S
N1935 C1927 1.427 . S
N1935 C1933 1.384 . S
H1936 C1942 0.930 . S
H1937 C1946 0.930 . S
H1938 C1951 0.929 . S
H1939 C1949 0.929 . S
H1940 C1944 0.929 . S
H1941 C1950 0.929 . S
C1942 H1936 0.930 . S
C1942 C1943 1.367 1_554 S
C1942 C1950 1.378 1_554 S
C1943 C1942 1.367 1_556 S
C1943 C1951 1.433 . S
C1944 H1940 0.929 . S
C1944 C1946 1.378 . S
C1944 C1948 1.350 . S
C1945 C1948 1.463 . S
C1945 C1950 1.350 . S
C1945 N1953 1.427 . S
C1946 H1937 0.930 . S
C1946 C1944 1.378 . S
C1946 C1947 1.367 . S
C1947 C1946 1.367 . S
C1947 C1949 1.433 . S
C1948 C1944 1.350 . S
C1948 C1945 1.463 . S
C1948 N1952 1.427 . S
C1949 H1939 0.929 . S
C1949 C1947 1.433 . S
C1949 N1952 1.384 . S
C1950 H1941 0.929 . S
C1950 C1942 1.378 1_556 S
C1950 C1945 1.350 . S
C1951 H1938 0.929 . S
C1951 C1943 1.433 . S
C1951 N1953 1.384 . S
N1952 C1948 1.427 . S
N1952 C1949 1.384 . S
N1953 C1945 1.427 . S
N1953 C1951 1.384 . S
H1954 C1960 0.930 . S
H1955 C1964 0.930 . S
H1956 C1969 0.929 . S
H1957 C1967 0.929 . S
H1958 C1962 0.929 . S
H1959 C1968 0.929 . S
C1960 H1954 0.930 . S
C1960 C1961 1.367 . S
C1960 C1968 1.378 . S
C1961 C1960 1.367 . S
C1961 C1969 1.433 . S
C1962 H1958 0.929 . S
C1962 C1964 1.378 1_556 S
C1962 C1966 1.350 . S
C1963 C1966 1.463 . S
C1963 C1968 1.350 . S
C1963 N1971 1.427 . S
C1964 H1955 0.930 . S
C1964 C1962 1.378 1_554 S
C1964 C1965 1.367 1_554 S
C1965 C1964 1.367 1_556 S
C1965 C1967 1.433 . S
C1966 C1962 1.350 . S
C1966 C1963 1.463 . S
C1966 N1970 1.427 . S
C1967 H1957 0.929 . S
C1967 C1965 1.433 . S
C1967 N1970 1.384 . S
C1968 H1959 0.929 . S
C1968 C1960 1.378 . S
C1968 C1963 1.350 . S
C1969 H1956 0.929 . S
C1969 C1961 1.433 . S
C1969 N1971 1.384 . S
N1970 C1966 1.427 . S
N1970 C1967 1.384 . S
N1971 C1963 1.427 . S
N1971 C1969 1.384 . S
H1972 C1978 0.930 . S
H1973 C1982 0.930 . S
H1974 C1987 0.929 . S
H1975 C1985 0.929 . S
H1976 C1980 0.929 . S
H1977 C1986 0.929 . S
C1978 H1972 0.930 . S
C1978 C1979 1.367 . S
C1978 C1986 1.378 . S
C1979 C1978 1.367 . S
C1979 C1987 1.433 . S
C1980 H1976 0.929 . S
C1980 C1982 1.378 . S
C1980 C1984 1.350 . S
C1981 C1984 1.463 . S
C1981 C1986 1.350 . S
C1981 N1989 1.427 . S
C1982 H1973 0.930 . S
C1982 C1980 1.378 . S
C1982 C1983 1.367 . S
C1983 C1982 1.367 . S
C1983 C1985 1.433 . S
C1984 C1980 1.350 . S
C1984 C1981 1.463 . S
C1984 N1988 1.427 . S
C1985 H1975 0.929 . S
C1985 C1983 1.433 . S
C1985 N1988 1.384 . S
C1986 H1977 0.929 . S
C1986 C1978 1.378 . S
C1986 C1981 1.350 . S
C1987 H1974 0.929 . S
C1987 C1979 1.433 . S
C1987 N1989 1.384 . S
N1988 C1984 1.427 . S
N1988 C1985 1.384 . S
N1989 C1981 1.427 . S
N1989 C1987 1.384 . S
H1990 C1996 0.930 . S
H1991 C2000 0.930 . S
H1992 C2005 0.929 . S
H1993 C2003 0.929 . S
H1994 C1998 0.929 . S
H1995 C2004 0.929 . S
C1996 H1990 0.930 . S
C1996 C1997 1.367 . S
C1996 C2004 1.378 . S
C1997 C1996 1.367 . S
C1997 C2005 1.433 . S
C1998 H1994 0.929 . S
C1998 C2000 1.378 . S
C1998 C2002 1.350 . S
C1999 C2002 1.463 . S
C1999 C2004 1.350 . S
C1999 N2007 1.427 . S
C2000 H1991 0.930 . S
C2000 C1998 1.378 . S
C2000 C2001 1.367 . S
C2001 C2000 1.367 . S
C2001 C2003 1.433 . S
C2002 C1998 1.350 . S
C2002 C1999 1.463 . S
C2002 N2006 1.427 . S
C2003 H1993 0.929 . S
C2003 C2001 1.433 . S
C2003 N2006 1.384 . S
C2004 H1995 0.929 . S
C2004 C1996 1.378 . S
C2004 C1999 1.350 . S
C2005 H1992 0.929 . S
C2005 C1997 1.433 . S
C2005 N2007 1.384 . S
N2006 C2002 1.427 . S
N2006 C2003 1.384 . S
N2007 C1999 1.427 . S
N2007 C2005 1.384 . S
H2008 C2014 0.930 . S
H2009 C2018 0.930 . S
H2010 C2023 0.929 1_556 S
H2011 C2021 0.929 . S
H2012 C2016 0.929 . S
H2013 C2022 0.929 . S
C2014 H2008 0.930 . S
C2014 C2015 1.367 . S
C2014 C2022 1.378 . S
C2015 C2014 1.367 . S
C2015 C2023 1.433 . S
C2016 H2012 0.929 . S
C2016 C2018 1.378 . S
C2016 C2020 1.350 . S
C2017 C2020 1.463 . S
C2017 C2022 1.350 . S
C2017 N2025 1.427 . S
C2018 H2009 0.930 . S
C2018 C2016 1.378 . S
C2018 C2019 1.367 . S
C2019 C2018 1.367 . S
C2019 C2021 1.433 . S
C2020 C2016 1.350 . S
C2020 C2017 1.463 . S
C2020 N2024 1.427 . S
C2021 H2011 0.929 . S
C2021 C2019 1.433 . S
C2021 N2024 1.384 . S
C2022 H2013 0.929 . S
C2022 C2014 1.378 . S
C2022 C2017 1.350 . S
C2023 H2010 0.929 1_554 S
C2023 C2015 1.433 . S
C2023 N2025 1.384 . S
N2024 C2020 1.427 . S
N2024 C2021 1.384 . S
N2025 C2017 1.427 . S
N2025 C2023 1.384 . S
H2026 C2032 0.930 . S
H2027 C2036 0.930 . S
H2028 C2041 0.929 . S
H2029 C2039 0.929 . S
H2030 C2034 0.929 . S
H2031 C2040 0.929 . S
C2032 H2026 0.930 . S
C2032 C2033 1.367 . S
C2032 C2040 1.378 . S
C2033 C2032 1.367 . S
C2033 C2041 1.433 . S
C2034 H2030 0.929 . S
C2034 C2036 1.378 . S
C2034 C2038 1.350 . S
C2035 C2038 1.463 . S
C2035 C2040 1.350 . S
C2035 N2043 1.427 . S
C2036 H2027 0.930 . S
C2036 C2034 1.378 . S
C2036 C2037 1.367 . S
C2037 C2036 1.367 . S
C2037 C2039 1.433 1_554 S
C2038 C2034 1.350 . S
C2038 C2035 1.463 . S
C2038 N2042 1.427 . S
C2039 H2029 0.929 . S
C2039 C2037 1.433 1_556 S
C2039 N2042 1.384 1_556 S
C2040 H2031 0.929 . S
C2040 C2032 1.378 . S
C2040 C2035 1.350 . S
C2041 H2028 0.929 . S
C2041 C2033 1.433 . S
C2041 N2043 1.384 . S
N2042 C2038 1.427 . S
N2042 C2039 1.384 1_554 S
N2043 C2035 1.427 . S
N2043 C2041 1.384 . S
H2044 C2050 0.930 . S
H2045 C2054 0.930 . S
H2046 C2059 0.929 . S
H2047 C2057 0.929 . S
H2048 C2052 0.929 . S
H2049 C2058 0.929 . S
C2050 H2044 0.930 . S
C2050 C2051 1.367 . S
C2050 C2058 1.378 . S
C2051 C2050 1.367 . S
C2051 C2059 1.433 . S
C2052 H2048 0.929 . S
C2052 C2054 1.378 . S
C2052 C2056 1.350 . S
C2053 C2056 1.463 . S
C2053 C2058 1.350 . S
C2053 N2061 1.427 . S
C2054 H2045 0.930 . S
C2054 C2052 1.378 . S
C2054 C2055 1.367 . S
C2055 C2054 1.367 . S
C2055 C2057 1.433 . S
C2056 C2052 1.350 . S
C2056 C2053 1.463 . S
C2056 N2060 1.427 . S
C2057 H2047 0.929 . S
C2057 C2055 1.433 . S
C2057 N2060 1.384 . S
C2058 H2049 0.929 . S
C2058 C2050 1.378 . S
C2058 C2053 1.350 . S
C2059 H2046 0.929 . S
C2059 C2051 1.433 . S
C2059 N2061 1.384 . S
N2060 C2056 1.427 . S
N2060 C2057 1.384 . S
N2061 C2053 1.427 . S
N2061 C2059 1.384 . S
H2062 C2068 0.930 . S
H2063 C2072 0.930 . S
H2064 C2077 0.929 . S
H2065 C2075 0.929 . S
H2066 C2070 0.929 . S
H2067 C2076 0.929 . S
C2068 H2062 0.930 . S
C2068 C2069 1.367 . S
C2068 C2076 1.378 . S
C2069 C2068 1.367 . S
C2069 C2077 1.433 . S
C2070 H2066 0.929 . S
C2070 C2072 1.378 . S
C2070 C2074 1.350 . S
C2071 C2074 1.463 . S
C2071 C2076 1.350 . S
C2071 N2079 1.427 . S
C2072 H2063 0.930 . S
C2072 C2070 1.378 . S
C2072 C2073 1.367 . S
C2073 C2072 1.367 . S
C2073 C2075 1.433 . S
C2074 C2070 1.350 . S
C2074 C2071 1.463 . S
C2074 N2078 1.427 . S
C2075 H2065 0.929 . S
C2075 C2073 1.433 . S
C2075 N2078 1.384 . S
C2076 H2067 0.929 . S
C2076 C2068 1.378 . S
C2076 C2071 1.350 . S
C2077 H2064 0.929 . S
C2077 C2069 1.433 . S
C2077 N2079 1.384 . S
N2078 C2074 1.427 . S
N2078 C2075 1.384 . S
N2079 C2071 1.427 . S
N2079 C2077 1.384 . S
H2080 C2086 0.930 . S
H2081 C2090 0.930 . S
H2082 C2095 0.929 . S
H2083 C2093 0.929 1_556 S
H2084 C2088 0.929 . S
H2085 C2094 0.929 . S
C2086 H2080 0.930 . S
C2086 C2087 1.367 . S
C2086 C2094 1.378 . S
C2087 C2086 1.367 . S
C2087 C2095 1.433 . S
C2088 H2084 0.929 . S
C2088 C2090 1.378 . S
C2088 C2092 1.350 . S
C2089 C2092 1.463 . S
C2089 C2094 1.350 . S
C2089 N2097 1.427 . S
C2090 H2081 0.930 . S
C2090 C2088 1.378 . S
C2090 C2091 1.367 . S
C2091 C2090 1.367 . S
C2091 C2093 1.433 . S
C2092 C2088 1.350 . S
C2092 C2089 1.463 . S
C2092 N2096 1.427 . S
C2093 H2083 0.929 1_554 S
C2093 C2091 1.433 . S
C2093 N2096 1.384 . S
C2094 H2085 0.929 . S
C2094 C2086 1.378 . S
C2094 C2089 1.350 . S
C2095 H2082 0.929 . S
C2095 C2087 1.433 . S
C2095 N2097 1.384 . S
N2096 C2092 1.427 . S
N2096 C2093 1.384 . S
N2097 C2089 1.427 . S
N2097 C2095 1.384 . S
H2098 C2104 0.930 1_556 S
H2099 C2108 0.930 . S
H2100 C2113 0.929 . S
H2101 C2111 0.929 . S
H2102 C2106 0.929 . S
H2103 C2112 0.929 . S
C2104 H2098 0.930 1_554 S
C2104 C2105 1.367 . S
C2104 C2112 1.378 . S
C2105 C2104 1.367 . S
C2105 C2113 1.433 . S
C2106 H2102 0.929 . S
C2106 C2108 1.378 . S
C2106 C2110 1.350 . S
C2107 C2110 1.463 . S
C2107 C2112 1.350 . S
C2107 N2115 1.427 . S
C2108 H2099 0.930 . S
C2108 C2106 1.378 . S
C2108 C2109 1.367 . S
C2109 C2108 1.367 . S
C2109 C2111 1.433 . S
C2110 C2106 1.350 . S
C2110 C2107 1.463 . S
C2110 N2114 1.427 . S
C2111 H2101 0.929 . S
C2111 C2109 1.433 . S
C2111 N2114 1.384 . S
C2112 H2103 0.929 . S
C2112 C2104 1.378 . S
C2112 C2107 1.350 . S
C2113 H2100 0.929 . S
C2113 C2105 1.433 . S
C2113 N2115 1.384 . S
N2114 C2110 1.427 . S
N2114 C2111 1.384 . S
N2115 C2107 1.427 . S
N2115 C2113 1.384 . S
H2116 C2122 0.930 1_554 S
H2117 C2126 0.930 . S
H2118 C2131 0.929 . S
H2119 C2129 0.929 . S
H2120 C2124 0.929 . S
H2121 C2130 0.929 . S
C2122 H2116 0.930 1_556 S
C2122 C2123 1.367 . S
C2122 C2130 1.378 . S
C2123 C2122 1.367 . S
C2123 C2131 1.433 . S
C2124 H2120 0.929 . S
C2124 C2126 1.378 . S
C2124 C2128 1.350 . S
C2125 C2128 1.463 . S
C2125 C2130 1.350 . S
C2125 N2133 1.427 . S
C2126 H2117 0.930 . S
C2126 C2124 1.378 . S
C2126 C2127 1.367 . S
C2127 C2126 1.367 . S
C2127 C2129 1.433 . S
C2128 C2124 1.350 . S
C2128 C2125 1.463 . S
C2128 N2132 1.427 . S
C2129 H2119 0.929 . S
C2129 C2127 1.433 . S
C2129 N2132 1.384 . S
C2130 H2121 0.929 . S
C2130 C2122 1.378 . S
C2130 C2125 1.350 . S
C2131 H2118 0.929 . S
C2131 C2123 1.433 . S
C2131 N2133 1.384 . S
N2132 C2128 1.427 . S
N2132 C2129 1.384 . S
N2133 C2125 1.427 . S
N2133 C2131 1.384 . S
H2134 C2140 0.930 . S
H2135 C2144 0.930 . S
H2136 C2149 0.929 . S
H2137 C2147 0.929 . S
H2138 C2142 0.929 . S
H2139 C2148 0.929 . S
C2140 H2134 0.930 . S
C2140 C2141 1.367 . S
C2140 C2148 1.378 . S
C2141 C2140 1.367 . S
C2141 C2149 1.433 . S
C2142 H2138 0.929 . S
C2142 C2144 1.378 . S
C2142 C2146 1.350 . S
C2143 C2146 1.463 . S
C2143 C2148 1.350 . S
C2143 N2151 1.427 . S
C2144 H2135 0.930 . S
C2144 C2142 1.378 . S
C2144 C2145 1.367 . S
C2145 C2144 1.367 . S
C2145 C2147 1.433 . S
C2146 C2142 1.350 . S
C2146 C2143 1.463 . S
C2146 N2150 1.427 . S
C2147 H2137 0.929 . S
C2147 C2145 1.433 . S
C2147 N2150 1.384 . S
C2148 H2139 0.929 . S
C2148 C2140 1.378 . S
C2148 C2143 1.350 . S
C2149 H2136 0.929 . S
C2149 C2141 1.433 . S
C2149 N2151 1.384 . S
N2150 C2146 1.427 . S
N2150 C2147 1.384 . S
N2151 C2143 1.427 . S
N2151 C2149 1.384 . S
H2152 C2158 0.930 . S
H2153 C2162 0.930 . S
H2154 C2167 0.929 . S
H2155 C2165 0.929 . S
H2156 C2160 0.929 . S
H2157 C2166 0.929 . S
C2158 H2152 0.930 . S
C2158 C2159 1.367 . S
C2158 C2166 1.378 . S
C2159 C2158 1.367 . S
C2159 C2167 1.433 . S
C2160 H2156 0.929 . S
C2160 C2162 1.378 . S
C2160 C2164 1.350 . S
C2161 C2164 1.463 . S
C2161 C2166 1.350 . S
C2161 N2169 1.427 . S
C2162 H2153 0.930 . S
C2162 C2160 1.378 . S
C2162 C2163 1.367 . S
C2163 C2162 1.367 . S
C2163 C2165 1.433 . S
C2164 C2160 1.350 . S
C2164 C2161 1.463 . S
C2164 N2168 1.427 . S
C2165 H2155 0.929 . S
C2165 C2163 1.433 . S
C2165 N2168 1.384 . S
C2166 H2157 0.929 . S
C2166 C2158 1.378 . S
C2166 C2161 1.350 . S
C2167 H2154 0.929 . S
C2167 C2159 1.433 . S
C2167 N2169 1.384 . S
N2168 C2164 1.427 . S
N2168 C2165 1.384 . S
N2169 C2161 1.427 . S
N2169 C2167 1.384 . S
H2170 C2176 0.930 . S
H2171 C2180 0.930 . S
H2172 C2185 0.929 . S
H2173 C2183 0.929 . S
H2174 C2178 0.929 . S
H2175 C2184 0.929 . S
C2176 H2170 0.930 . S
C2176 C2177 1.367 . S
C2176 C2184 1.378 . S
C2177 C2176 1.367 . S
C2177 C2185 1.433 . S
C2178 H2174 0.929 . S
C2178 C2180 1.378 . S
C2178 C2182 1.350 . S
C2179 C2182 1.463 . S
C2179 C2184 1.350 . S
C2179 N2187 1.427 . S
C2180 H2171 0.930 . S
C2180 C2178 1.378 . S
C2180 C2181 1.367 . S
C2181 C2180 1.367 . S
C2181 C2183 1.433 . S
C2182 C2178 1.350 . S
C2182 C2179 1.463 . S
C2182 N2186 1.427 . S
C2183 H2173 0.929 . S
C2183 C2181 1.433 . S
C2183 N2186 1.384 . S
C2184 H2175 0.929 . S
C2184 C2176 1.378 . S
C2184 C2179 1.350 . S
C2185 H2172 0.929 . S
C2185 C2177 1.433 . S
C2185 N2187 1.384 . S
N2186 C2182 1.427 . S
N2186 C2183 1.384 . S
N2187 C2179 1.427 . S
N2187 C2185 1.384 . S
H2188 C2194 0.930 . S
H2189 C2198 0.930 . S
H2190 C2203 0.929 . S
H2191 C2201 0.929 . S
H2192 C2196 0.929 . S
H2193 C2202 0.929 . S
C2194 H2188 0.930 . S
C2194 C2195 1.367 . S
C2194 C2202 1.378 . S
C2195 C2194 1.367 . S
C2195 C2203 1.433 . S
C2196 H2192 0.929 . S
C2196 C2198 1.378 . S
C2196 C2200 1.350 . S
C2197 C2200 1.463 . S
C2197 C2202 1.350 . S
C2197 N2205 1.427 . S
C2198 H2189 0.930 . S
C2198 C2196 1.378 . S
C2198 C2199 1.367 . S
C2199 C2198 1.367 . S
C2199 C2201 1.433 . S
C2200 C2196 1.350 . S
C2200 C2197 1.463 . S
C2200 N2204 1.427 . S
C2201 H2191 0.929 . S
C2201 C2199 1.433 . S
C2201 N2204 1.384 . S
C2202 H2193 0.929 . S
C2202 C2194 1.378 . S
C2202 C2197 1.350 . S
C2203 H2190 0.929 . S
C2203 C2195 1.433 . S
C2203 N2205 1.384 . S
N2204 C2200 1.427 . S
N2204 C2201 1.384 . S
N2205 C2197 1.427 . S
N2205 C2203 1.384 . S
H2206 C2212 0.930 . S
H2207 C2216 0.930 . S
H2208 C2221 0.929 . S
H2209 C2219 0.929 . S
H2210 C2214 0.929 . S
H2211 C2220 0.929 . S
C2212 H2206 0.930 . S
C2212 C2213 1.367 . S
C2212 C2220 1.378 . S
C2213 C2212 1.367 . S
C2213 C2221 1.433 . S
C2214 H2210 0.929 . S
C2214 C2216 1.378 . S
C2214 C2218 1.350 . S
C2215 C2218 1.463 . S
C2215 C2220 1.350 . S
C2215 N2223 1.427 . S
C2216 H2207 0.930 . S
C2216 C2214 1.378 . S
C2216 C2217 1.367 . S
C2217 C2216 1.367 . S
C2217 C2219 1.433 . S
C2218 C2214 1.350 . S
C2218 C2215 1.463 . S
C2218 N2222 1.427 . S
C2219 H2209 0.929 . S
C2219 C2217 1.433 . S
C2219 N2222 1.384 . S
C2220 H2211 0.929 . S
C2220 C2212 1.378 . S
C2220 C2215 1.350 . S
C2221 H2208 0.929 . S
C2221 C2213 1.433 . S
C2221 N2223 1.384 . S
N2222 C2218 1.427 . S
N2222 C2219 1.384 . S
N2223 C2215 1.427 . S
N2223 C2221 1.384 . S
H2224 C2230 0.930 . S
H2225 C2234 0.930 . S
H2226 C2239 0.929 . S
H2227 C2237 0.929 . S
H2228 C2232 0.929 . S
H2229 C2238 0.929 . S
C2230 H2224 0.930 . S
C2230 C2231 1.367 . S
C2230 C2238 1.378 . S
C2231 C2230 1.367 . S
C2231 C2239 1.433 . S
C2232 H2228 0.929 . S
C2232 C2234 1.378 . S
C2232 C2236 1.350 . S
C2233 C2236 1.463 . S
C2233 C2238 1.350 . S
C2233 N2241 1.427 . S
C2234 H2225 0.930 . S
C2234 C2232 1.378 . S
C2234 C2235 1.367 . S
C2235 C2234 1.367 . S
C2235 C2237 1.433 . S
C2236 C2232 1.350 . S
C2236 C2233 1.463 . S
C2236 N2240 1.427 . S
C2237 H2227 0.929 . S
C2237 C2235 1.433 . S
C2237 N2240 1.384 . S
C2238 H2229 0.929 . S
C2238 C2230 1.378 . S
C2238 C2233 1.350 . S
C2239 H2226 0.929 . S
C2239 C2231 1.433 . S
C2239 N2241 1.384 . S
N2240 C2236 1.427 . S
N2240 C2237 1.384 . S
N2241 C2233 1.427 . S
N2241 C2239 1.384 . S
H2242 C2248 0.930 . S
H2243 C2252 0.930 . S
H2244 C2257 0.929 . S
H2245 C2255 0.929 . S
H2246 C2250 0.929 . S
H2247 C2256 0.929 . S
C2248 H2242 0.930 . S
C2248 C2249 1.367 . S
C2248 C2256 1.378 . S
C2249 C2248 1.367 . S
C2249 C2257 1.433 . S
C2250 H2246 0.929 . S
C2250 C2252 1.378 . S
C2250 C2254 1.350 . S
C2251 C2254 1.463 . S
C2251 C2256 1.350 . S
C2251 N2259 1.427 . S
C2252 H2243 0.930 . S
C2252 C2250 1.378 . S
C2252 C2253 1.367 . S
C2253 C2252 1.367 . S
C2253 C2255 1.433 . S
C2254 C2250 1.350 . S
C2254 C2251 1.463 . S
C2254 N2258 1.427 . S
C2255 H2245 0.929 . S
C2255 C2253 1.433 . S
C2255 N2258 1.384 . S
C2256 H2247 0.929 . S
C2256 C2248 1.378 . S
C2256 C2251 1.350 . S
C2257 H2244 0.929 . S
C2257 C2249 1.433 . S
C2257 N2259 1.384 . S
N2258 C2254 1.427 . S
N2258 C2255 1.384 . S
N2259 C2251 1.427 . S
N2259 C2257 1.384 . S
H2260 C2266 0.930 . S
H2261 C2270 0.930 . S
H2262 C2275 0.929 . S
H2263 C2273 0.929 . S
H2264 C2268 0.929 . S
H2265 C2274 0.929 . S
C2266 H2260 0.930 . S
C2266 C2267 1.367 . S
C2266 C2274 1.378 . S
C2267 C2266 1.367 . S
C2267 C2275 1.433 . S
C2268 H2264 0.929 . S
C2268 C2270 1.378 . S
C2268 C2272 1.350 . S
C2269 C2272 1.463 . S
C2269 C2274 1.350 . S
C2269 N2277 1.427 . S
C2270 H2261 0.930 . S
C2270 C2268 1.378 . S
C2270 C2271 1.367 . S
C2271 C2270 1.367 . S
C2271 C2273 1.433 . S
C2272 C2268 1.350 . S
C2272 C2269 1.463 . S
C2272 N2276 1.427 . S
C2273 H2263 0.929 . S
C2273 C2271 1.433 . S
C2273 N2276 1.384 . S
C2274 H2265 0.929 . S
C2274 C2266 1.378 . S
C2274 C2269 1.350 . S
C2275 H2262 0.929 . S
C2275 C2267 1.433 . S
C2275 N2277 1.384 . S
N2276 C2272 1.427 . S
N2276 C2273 1.384 . S
N2277 C2269 1.427 . S
N2277 C2275 1.384 . S
H2278 C2284 0.930 . S
H2279 C2288 0.930 . S
H2280 C2293 0.929 . S
H2281 C2291 0.929 . S
H2282 C2286 0.929 . S
H2283 C2292 0.929 . S
C2284 H2278 0.930 . S
C2284 C2285 1.367 . S
C2284 C2292 1.378 . S
C2285 C2284 1.367 . S
C2285 C2293 1.433 . S
C2286 H2282 0.929 . S
C2286 C2288 1.378 . S
C2286 C2290 1.350 . S
C2287 C2290 1.463 . S
C2287 C2292 1.350 . S
C2287 N2295 1.427 . S
C2288 H2279 0.930 . S
C2288 C2286 1.378 . S
C2288 C2289 1.367 . S
C2289 C2288 1.367 . S
C2289 C2291 1.433 . S
C2290 C2286 1.350 . S
C2290 C2287 1.463 . S
C2290 N2294 1.427 . S
C2291 H2281 0.929 . S
C2291 C2289 1.433 . S
C2291 N2294 1.384 . S
C2292 H2283 0.929 . S
C2292 C2284 1.378 . S
C2292 C2287 1.350 . S
C2293 H2280 0.929 . S
C2293 C2285 1.433 . S
C2293 N2295 1.384 . S
N2294 C2290 1.427 . S
N2294 C2291 1.384 . S
N2295 C2287 1.427 . S
N2295 C2293 1.384 . S
H2296 C2302 0.930 . S
H2297 C2306 0.930 1_556 S
H2298 C2311 0.929 . S
H2299 C2309 0.929 . S
H2300 C2304 0.929 . S
H2301 C2310 0.929 . S
C2302 H2296 0.930 . S
C2302 C2303 1.367 . S
C2302 C2310 1.378 . S
C2303 C2302 1.367 . S
C2303 C2311 1.433 . S
C2304 H2300 0.929 . S
C2304 C2306 1.378 . S
C2304 C2308 1.350 . S
C2305 C2308 1.463 . S
C2305 C2310 1.350 . S
C2305 N2313 1.427 . S
C2306 H2297 0.930 1_554 S
C2306 C2304 1.378 . S
C2306 C2307 1.367 . S
C2307 C2306 1.367 . S
C2307 C2309 1.433 . S
C2308 C2304 1.350 . S
C2308 C2305 1.463 . S
C2308 N2312 1.427 . S
C2309 H2299 0.929 . S
C2309 C2307 1.433 . S
C2309 N2312 1.384 . S
C2310 H2301 0.929 . S
C2310 C2302 1.378 . S
C2310 C2305 1.350 . S
C2311 H2298 0.929 . S
C2311 C2303 1.433 . S
C2311 N2313 1.384 . S
N2312 C2308 1.427 . S
N2312 C2309 1.384 . S
N2313 C2305 1.427 . S
N2313 C2311 1.384 . S
H2314 C2320 0.930 . S
H2315 C2324 0.930 . S
H2316 C2329 0.929 . S
H2317 C2327 0.929 . S
H2318 C2322 0.929 . S
H2319 C2328 0.929 . S
C2320 H2314 0.930 . S
C2320 C2321 1.367 . S
C2320 C2328 1.378 . S
C2321 C2320 1.367 . S
C2321 C2329 1.433 . S
C2322 H2318 0.929 . S
C2322 C2324 1.378 . S
C2322 C2326 1.350 . S
C2323 C2326 1.463 . S
C2323 C2328 1.350 . S
C2323 N2331 1.427 . S
C2324 H2315 0.930 . S
C2324 C2322 1.378 . S
C2324 C2325 1.367 . S
C2325 C2324 1.367 . S
C2325 C2327 1.433 . S
C2326 C2322 1.350 . S
C2326 C2323 1.463 . S
C2326 N2330 1.427 . S
C2327 H2317 0.929 . S
C2327 C2325 1.433 . S
C2327 N2330 1.384 . S
C2328 H2319 0.929 . S
C2328 C2320 1.378 . S
C2328 C2323 1.350 . S
C2329 H2316 0.929 . S
C2329 C2321 1.433 . S
C2329 N2331 1.384 . S
N2330 C2326 1.427 . S
N2330 C2327 1.384 . S
N2331 C2323 1.427 . S
N2331 C2329 1.384 . S
H2332 C2338 0.930 . S
H2333 C2342 0.930 1_554 S
H2334 C2347 0.929 . S
H2335 C2345 0.929 . S
H2336 C2340 0.929 . S
H2337 C2346 0.929 . S
C2338 H2332 0.930 . S
C2338 C2339 1.367 . S
C2338 C2346 1.378 . S
C2339 C2338 1.367 . S
C2339 C2347 1.433 . S
C2340 H2336 0.929 . S
C2340 C2342 1.378 . S
C2340 C2344 1.350 . S
C2341 C2344 1.463 . S
C2341 C2346 1.350 . S
C2341 N2349 1.427 . S
C2342 H2333 0.930 1_556 S
C2342 C2340 1.378 . S
C2342 C2343 1.367 . S
C2343 C2342 1.367 . S
C2343 C2345 1.433 . S
C2344 C2340 1.350 . S
C2344 C2341 1.463 . S
C2344 N2348 1.427 . S
C2345 H2335 0.929 . S
C2345 C2343 1.433 . S
C2345 N2348 1.384 . S
C2346 H2337 0.929 . S
C2346 C2338 1.378 . S
C2346 C2341 1.350 . S
C2347 H2334 0.929 . S
C2347 C2339 1.433 . S
C2347 N2349 1.384 . S
N2348 C2344 1.427 . S
N2348 C2345 1.384 . S
N2349 C2341 1.427 . S
N2349 C2347 1.384 . S
H2350 C2356 0.930 1_554 S
H2351 C2360 0.930 . S
H2352 C2365 0.929 . S
H2353 C2363 0.929 . S
H2354 C2358 0.929 . S
H2355 C2364 0.929 . S
C2356 H2350 0.930 1_556 S
C2356 C2357 1.367 . S
C2356 C2364 1.378 . S
C2357 C2356 1.367 . S
C2357 C2365 1.433 . S
C2358 H2354 0.929 . S
C2358 C2360 1.378 . S
C2358 C2362 1.350 . S
C2359 C2362 1.463 . S
C2359 C2364 1.350 . S
C2359 N2367 1.427 . S
C2360 H2351 0.930 . S
C2360 C2358 1.378 . S
C2360 C2361 1.367 . S
C2361 C2360 1.367 . S
C2361 C2363 1.433 . S
C2362 C2358 1.350 . S
C2362 C2359 1.463 . S
C2362 N2366 1.427 . S
C2363 H2353 0.929 . S
C2363 C2361 1.433 . S
C2363 N2366 1.384 . S
C2364 H2355 0.929 . S
C2364 C2356 1.378 . S
C2364 C2359 1.350 . S
C2365 H2352 0.929 . S
C2365 C2357 1.433 . S
C2365 N2367 1.384 . S
N2366 C2362 1.427 . S
N2366 C2363 1.384 . S
N2367 C2359 1.427 . S
N2367 C2365 1.384 . S
C647 C579 1.534 . S
C651 C18 1.534 . S
C665 C119 1.530 . S
C669 C38 1.531 . S
C683 C459 1.537 . S
C687 C58 1.537 . S
C701 C319 1.532 . S
C705 C78 1.532 . S
C719 C99 1.532 . S
C723 C498 1.532 . S
C737 C378 1.530 . S
C741 C139 1.531 . S
C755 C238 1.533 . S
C759 C159 1.533 . S
C773 C419 1.534 . S
C777 C178 1.534 . S
C791 C198 1.530 . S
C795 C279 1.530 . S
C809 C218 1.534 . S
C813 C619 1.534 . S
C827 C338 1.532 . S
C831 C259 1.532 . S
C845 C299 1.532 . S
C849 C538 1.532 . S
C863 C358 1.537 . S
C867 C439 1.537 . S
C881 C398 1.531 . S
C885 C639 1.531 . S
C899 C558 1.535 . S
C903 C479 1.535 . S
C917 C599 1.530 . S
C921 C518 1.530 . S
C935 C399 1.537 . S
C939 C19 1.533 . S
C953 C379 1.539 . S
C957 C39 1.546 . S
C971 C359 1.531 . S
C975 C59 1.539 . S
C989 C339 1.537 . S
C993 C79 1.541 . S
C1007 C478 1.541 . S
C1011 C98 1.538 . S
C1025 C118 1.537 . S
C1029 C458 1.544 . S
C1043 C138 1.535 . S
C1047 C438 1.543 . S
C1061 C158 1.532 . S
C1065 C418 1.536 . S
C1079 C179 1.542 . S
C1083 C559 1.538 . S
C1097 C199 1.533 . S
C1101 C539 1.537 . S
C1115 C219 1.533 . S
C1119 C519 1.537 . S
C1133 C499 1.539 . S
C1137 C239 1.535 . S
C1151 C258 1.538 . S
C1155 C638 1.543 . S
C1169 C278 1.539 . S
C1173 C618 1.534 . S
C1187 C298 1.541 . S
C1191 C598 1.541 . S
C1205 C578 1.544 . S
C1209 C318 1.540 . S
C1223 C1 1.300 . S
C1227 C2 1.300 . S
C1241 C21 1.308 . S
C1245 C22 1.308 . S
C1259 C42 1.307 . S
C1263 C41 1.307 . S
C1277 C62 1.307 . S
C1281 C61 1.307 . S
C1295 C81 1.313 . S
C1299 C82 1.313 . S
C1313 C101 1.310 . S
C1317 C102 1.310 . S
C1331 C121 1.312 . S
C1335 C122 1.312 . S
C1349 C142 1.308 . S
C1353 C141 1.308 . S
C1367 C161 1.303 1_554 S
C1371 C162 1.303 . S
C1385 C182 1.311 . S
C1389 C181 1.311 1_554 S
C1403 C202 1.309 . S
C1407 C201 1.309 . S
C1421 C222 1.311 . S
C1425 C221 1.311 . S
C1439 C241 1.313 . S
C1443 C242 1.313 1_556 S
C1457 C262 1.302 1_556 S
C1461 C261 1.302 . S
C1475 C281 1.312 . S
C1479 C282 1.312 . S
C1493 C302 1.305 . S
C1497 C301 1.305 . S
C1511 C321 1.301 1_554 S
C1515 C322 1.301 . S
C1529 C342 1.308 . S
C1533 C341 1.308 1_554 S
C1547 C362 1.312 . S
C1551 C361 1.312 . S
C1565 C382 1.303 . S
C1569 C381 1.303 . S
C1583 C402 1.307 1_556 S
C1587 C401 1.307 . S
C1601 C421 1.302 . S
C1605 C422 1.302 1_556 S
C1619 C442 1.306 . S
C1623 C441 1.306 . S
C1637 C462 1.304 . S
C1641 C461 1.304 . S
C1655 C481 1.302 . S
C1659 C482 1.302 . S
C1673 C502 1.312 . S
C1677 C501 1.312 . S
C1691 C522 1.308 . S
C1695 C521 1.308 . S
C1709 C541 1.301 . S
C1713 C542 1.301 . S
C1727 C561 1.313 . S
C1731 C562 1.313 . S
C1745 C582 1.307 . S
C1749 C581 1.307 . S
C1763 C602 1.305 . S
C1767 C601 1.305 . S
C1781 C622 1.303 . S
C1785 C621 1.303 . S
C1799 C208 1.793 . S
C1803 C8 1.789 . S
C1817 C228 1.779 . S
C1821 C28 1.772 . S
C1835 C48 1.777 1_556 S
C1839 C168 1.778 . S
C1853 C188 1.794 . S
C1857 C68 1.791 1_556 S
C1871 C89 1.789 . S
C1875 C289 1.793 . S
C1889 C109 1.782 . S
C1893 C309 1.772 . S
C1907 C129 1.776 1_554 S
C1911 C249 1.776 . S
C1925 C149 1.790 1_554 S
C1929 C269 1.792 . S
C1943 C528 1.791 1_556 S
C1947 C328 1.791 . S
C1961 C348 1.778 . S
C1965 C548 1.773 1_556 S
C1979 C488 1.779 . S
C1983 C368 1.772 . S
C1997 C388 1.793 . S
C2001 C508 1.789 . S
C2015 C609 1.795 1_554 S
C2019 C409 1.791 . S
C2033 C429 1.781 . S
C2037 C629 1.775 1_554 S
C2051 C449 1.782 . S
C2055 C569 1.774 . S
C2069 C589 1.789 . S
C2073 C469 1.793 . S
C2087 C9 1.307 . S
C2091 C49 1.311 . S
C2105 C69 1.298 . S
C2109 C29 1.302 . S
C2123 C128 1.300 . S
C2127 C88 1.301 . S
C2141 C108 1.305 . S
C2145 C148 1.302 . S
C2159 C169 1.286 . S
C2163 C209 1.282 . S
C2177 C229 1.295 . S
C2181 C189 1.292 . S
C2195 C288 1.283 . S
C2199 C248 1.284 . S
C2213 C308 1.282 . S
C2217 C268 1.287 . S
C2231 C369 1.296 . S
C2235 C329 1.307 . S
C2249 C389 1.296 . S
C2253 C349 1.307 . S
C2267 C448 1.298 . S
C2271 C408 1.302 . S
C2285 C468 1.305 . S
C2289 C428 1.313 . S
C2303 C489 1.282 . S
C2307 C529 1.287 . S
C2321 C509 1.292 . S
C2325 C549 1.283 . S
C2339 C568 1.285 . S
C2343 C608 1.283 . S
C2357 C628 1.284 . S
C2361 C588 1.283 . S
