# Generated by pormake.
# Topology wme, (6)-cn, num edge types: 1
# Building blocks:
#     Node 0, Type 0, BuildingBlock: GEDQOX_clean_sbu_0, # of connection points: 6
#     Node 1, Type 0, BuildingBlock: GEDQOX_clean_sbu_0, # of connection points: 6
#     Node 2, Type 0, BuildingBlock: GEDQOX_clean_sbu_0, # of connection points: 6
#     Node 3, Type 0, BuildingBlock: GEDQOX_clean_sbu_0, # of connection points: 6
#     Node 4, Type 0, BuildingBlock: GEDQOX_clean_sbu_0, # of connection points: 6
#     Node 5, Type 0, BuildingBlock: GEDQOX_clean_sbu_0, # of connection points: 6
#     Node 6, Type 0, BuildingBlock: GEDQOX_clean_sbu_0, # of connection points: 6
#     Node 7, Type 0, BuildingBlock: GEDQOX_clean_sbu_0, # of connection points: 6
#     Node 8, Type 0, BuildingBlock: GEDQOX_clean_sbu_0, # of connection points: 6
#     Node 9, Type 0, BuildingBlock: GEDQOX_clean_sbu_0, # of connection points: 6
#     Node 10, Type 0, BuildingBlock: GEDQOX_clean_sbu_0, # of connection points: 6
#     Node 11, Type 0, BuildingBlock: GEDQOX_clean_sbu_0, # of connection points: 6
#     Edge 12, Type (0, 0), BuildingBlock: MIFKUJ_clean_linker_0, # of connection points: 2
#     Edge 13, Type (0, 0), BuildingBlock: MIFKUJ_clean_linker_0, # of connection points: 2
#     Edge 14, Type (0, 0), BuildingBlock: MIFKUJ_clean_linker_0, # of connection points: 2
#     Edge 15, Type (0, 0), BuildingBlock: MIFKUJ_clean_linker_0, # of connection points: 2
#     Edge 16, Type (0, 0), BuildingBlock: MIFKUJ_clean_linker_0, # of connection points: 2
#     Edge 17, Type (0, 0), BuildingBlock: MIFKUJ_clean_linker_0, # of connection points: 2
#     Edge 18, Type (0, 0), BuildingBlock: MIFKUJ_clean_linker_0, # of connection points: 2
#     Edge 19, Type (0, 0), BuildingBlock: MIFKUJ_clean_linker_0, # of connection points: 2
#     Edge 20, Type (0, 0), BuildingBlock: MIFKUJ_clean_linker_0, # of connection points: 2
#     Edge 21, Type (0, 0), BuildingBlock: MIFKUJ_clean_linker_0, # of connection points: 2
#     Edge 22, Type (0, 0), BuildingBlock: MIFKUJ_clean_linker_0, # of connection points: 2
#     Edge 23, Type (0, 0), BuildingBlock: MIFKUJ_clean_linker_0, # of connection points: 2
#     Edge 24, Type (0, 0), BuildingBlock: MIFKUJ_clean_linker_0, # of connection points: 2
#     Edge 25, Type (0, 0), BuildingBlock: MIFKUJ_clean_linker_0, # of connection points: 2
#     Edge 26, Type (0, 0), BuildingBlock: MIFKUJ_clean_linker_0, # of connection points: 2
#     Edge 27, Type (0, 0), BuildingBlock: MIFKUJ_clean_linker_0, # of connection points: 2
#     Edge 28, Type (0, 0), BuildingBlock: MIFKUJ_clean_linker_0, # of connection points: 2
#     Edge 29, Type (0, 0), BuildingBlock: MIFKUJ_clean_linker_0, # of connection points: 2
#     Edge 30, Type (0, 0), BuildingBlock: MIFKUJ_clean_linker_0, # of connection points: 2
#     Edge 31, Type (0, 0), BuildingBlock: MIFKUJ_clean_linker_0, # of connection points: 2
#     Edge 32, Type (0, 0), BuildingBlock: MIFKUJ_clean_linker_0, # of connection points: 2
#     Edge 33, Type (0, 0), BuildingBlock: MIFKUJ_clean_linker_0, # of connection points: 2
#     Edge 34, Type (0, 0), BuildingBlock: MIFKUJ_clean_linker_0, # of connection points: 2
#     Edge 35, Type (0, 0), BuildingBlock: MIFKUJ_clean_linker_0, # of connection points: 2
#     Edge 36, Type (0, 0), BuildingBlock: MIFKUJ_clean_linker_0, # of connection points: 2
#     Edge 37, Type (0, 0), BuildingBlock: MIFKUJ_clean_linker_0, # of connection points: 2
#     Edge 38, Type (0, 0), BuildingBlock: MIFKUJ_clean_linker_0, # of connection points: 2
#     Edge 39, Type (0, 0), BuildingBlock: MIFKUJ_clean_linker_0, # of connection points: 2
#     Edge 40, Type (0, 0), BuildingBlock: MIFKUJ_clean_linker_0, # of connection points: 2
#     Edge 41, Type (0, 0), BuildingBlock: MIFKUJ_clean_linker_0, # of connection points: 2
#     Edge 42, Type (0, 0), BuildingBlock: MIFKUJ_clean_linker_0, # of connection points: 2
#     Edge 43, Type (0, 0), BuildingBlock: MIFKUJ_clean_linker_0, # of connection points: 2
#     Edge 44, Type (0, 0), BuildingBlock: MIFKUJ_clean_linker_0, # of connection points: 2
#     Edge 45, Type (0, 0), BuildingBlock: MIFKUJ_clean_linker_0, # of connection points: 2
#     Edge 46, Type (0, 0), BuildingBlock: MIFKUJ_clean_linker_0, # of connection points: 2
#     Edge 47, Type (0, 0), BuildingBlock: MIFKUJ_clean_linker_0, # of connection points: 2
# Relax obj value: 0.094
# Max RMSD: 0.196
# Mean RMSD: 0.196
data_MOF--net-wme--node1-GEDQOX_clean_sbu_0--edge1-MIFKUJ_clean_linker_0
_symmetry_space_group_name_H-M    P1
_symmetry_Int_Tables_number       1
_symmetry_cell_setting            triclinic
loop_
_symmetry_equiv_pos_as_xyz
'x, y, z'
_cell_length_a     49.542338
_cell_length_b     49.481129
_cell_length_c     69.041581
_cell_angle_alpha  90.156262
_cell_angle_beta   90.113627
_cell_angle_gamma 119.80033
loop_
_atom_site_label
_atom_site_type_symbol
_atom_site_fract_x
_atom_site_fract_y
_atom_site_fract_z
_atom_type_partial_charge
Nd0 Nd 0.26411 0.36986 0.13363 0.0
Nd1 Nd 0.19099 0.32227 0.1202 0.0
C2 C 0.31499 0.41164 0.15186 0.0
C3 C 0.34098 0.44355 0.14781 0.0
C4 C 0.34769 0.46772 0.16103 0.0
C5 C 0.3714 0.49822 0.15728 0.0
C6 C 0.38917 0.50534 0.14023 0.0
C7 C 0.38261 0.48101 0.12707 0.0
C8 C 0.35872 0.45051 0.13076 0.0
C9 C 0.25964 0.35499 0.09431 0.0
C10 C 0.21929 0.39838 0.11918 0.0
C11 C 0.13855 0.28419 0.10196 0.0
C12 C 0.10691 0.25861 0.10695 0.0
C13 C 0.09747 0.22793 0.1012 0.0
C14 C 0.06753 0.20362 0.10539 0.0
C15 C 0.04609 0.20939 0.11534 0.0
C16 C 0.05563 0.24015 0.12116 0.0
C17 C 0.08563 0.26444 0.11703 0.0
C18 C 0.19619 0.33187 0.16012 0.0
C19 C 0.2353 0.29395 0.13462 0.0
O20 O 0.2876 0.40898 0.15456 0.0
O21 O 0.31363 0.38847 0.14178 0.0
O22 O 0.28544 0.37402 0.10309 0.0
O23 O 0.23785 0.3474 0.10627 0.0
O24 O 0.24506 0.40303 0.12795 0.0
O25 O 0.19756 0.37063 0.11286 0.0
O26 O 0.16158 0.27847 0.10384 0.0
O27 O 0.14602 0.31249 0.10739 0.0
O28 O 0.17019 0.31364 0.15127 0.0
O29 O 0.21737 0.34332 0.14761 0.0
O30 O 0.21132 0.29017 0.12407 0.0
O31 O 0.25661 0.32122 0.14203 0.0
H32 H 0.33443 0.46304 0.17428 0.0
H33 H 0.37602 0.51621 0.16788 0.0
H34 H 0.39555 0.48564 0.1137 0.0
H35 H 0.354 0.43248 0.12018 0.0
H36 H 0.11328 0.22269 0.09338 0.0
H37 H 0.06128 0.18023 0.10092 0.0
H38 H 0.03971 0.24562 0.1286 0.0
H39 H 0.092 0.28781 0.12162 0.0
Nd40 Nd 0.90366 0.25072 0.63145 0.0
Nd41 Nd 0.87863 0.17925 0.62469 0.0
C42 C 0.92296 0.309 0.64242 0.0
C43 C 0.91322 0.33273 0.63935 0.0
C44 C 0.88356 0.3273 0.64479 0.0
C45 C 0.87504 0.35016 0.64194 0.0
C46 C 0.89585 0.37904 0.63349 0.0
C47 C 0.92542 0.38423 0.62794 0.0
C48 C 0.93398 0.36146 0.63089 0.0
C49 C 0.90645 0.23385 0.59329 0.0
C50 C 0.83051 0.20652 0.62129 0.0
C51 C 0.86399 0.12453 0.60924 0.0
C52 C 0.86022 0.09423 0.61538 0.0
C53 C 0.87182 0.07926 0.60357 0.0
C54 C 0.86753 0.05001 0.60862 0.0
C55 C 0.85142 0.03498 0.62561 0.0
C56 C 0.84043 0.0504 0.63766 0.0
C57 C 0.8448 0.07974 0.63261 0.0
C58 C 0.87162 0.18787 0.66352 0.0
C59 C 0.95057 0.22191 0.63942 0.0
O60 O 0.90498 0.28472 0.65302 0.0
O61 O 0.93429 0.30178 0.62744 0.0
O62 O 0.89787 0.25382 0.5983 0.0
O63 O 0.91156 0.22291 0.60842 0.0
O64 O 0.85118 0.23189 0.63043 0.0
O65 O 0.83789 0.18609 0.6143 0.0
O66 O 0.89228 0.14831 0.60934 0.0
O67 O 0.84332 0.1317 0.61535 0.0
O68 O 0.86467 0.16124 0.65587 0.0
O69 O 0.88255 0.2087 0.65066 0.0
O70 O 0.92821 0.19415 0.63386 0.0
O71 O 0.94687 0.24672 0.64037 0.0
H72 H 0.8669 0.30543 0.65134 0.0
H73 H 0.85224 0.34529 0.64667 0.0
H74 H 0.94197 0.40583 0.62108 0.0
H75 H 0.95694 0.3663 0.6265 0.0
H76 H 0.88402 0.09011 0.59031 0.0
H77 H 0.87688 0.03919 0.59918 0.0
H78 H 0.82776 0.03949 0.65077 0.0
H79 H 0.83579 0.09088 0.64207 0.0
Nd80 Nd 0.66554 0.89724 0.131 0.0
Nd81 Nd 0.71279 0.8713 0.11694 0.0
C82 C 0.62391 0.90617 0.14952 0.0
C83 C 0.59121 0.89839 0.14574 0.0
C84 C 0.56744 0.86745 0.14258 0.0
C85 C 0.53678 0.86051 0.13897 0.0
C86 C 0.52905 0.8843 0.13831 0.0
C87 C 0.55289 0.91524 0.14141 0.0
C88 C 0.58353 0.92216 0.14514 0.0
C89 C 0.67945 0.90766 0.0916 0.0
C90 C 0.63709 0.8237 0.11627 0.0
C91 C 0.75216 0.85872 0.09855 0.0
C92 C 0.77517 0.84913 0.10355 0.0
C93 C 0.78411 0.83457 0.08955 0.0
C94 C 0.80674 0.82633 0.09382 0.0
C95 C 0.82097 0.83256 0.11222 0.0
C96 C 0.81164 0.84689 0.1263 0.0
C97 C 0.78894 0.85504 0.12202 0.0
C98 C 0.70347 0.86675 0.15697 0.0
C99 C 0.74005 0.9447 0.12902 0.0
O100 O 0.62875 0.88291 0.15319 0.0
O101 O 0.64541 0.92738 0.13841 0.0
O102 O 0.66076 0.91464 0.10063 0.0
O103 O 0.68708 0.89308 0.10337 0.0
O104 O 0.63257 0.84496 0.1251 0.0
O105 O 0.66465 0.82951 0.10976 0.0
O106 O 0.75897 0.8868 0.10399 0.0
O107 O 0.72276 0.83805 0.10107 0.0
O108 O 0.72037 0.85739 0.14799 0.0
O109 O 0.69319 0.87777 0.14448 0.0
O110 O 0.74204 0.92424 0.11761 0.0
O111 O 0.71449 0.93809 0.13894 0.0
H112 H 0.57248 0.84852 0.1428 0.0
H113 H 0.51919 0.83648 0.13642 0.0
H114 H 0.54778 0.93413 0.14124 0.0
H115 H 0.6013 0.94618 0.14757 0.0
H116 H 0.77385 0.8299 0.07519 0.0
H117 H 0.81358 0.81572 0.08254 0.0
H118 H 0.82175 0.85168 0.14068 0.0
H119 H 0.7823 0.86617 0.13309 0.0
Nd120 Nd 0.78144 0.65624 0.63602 0.0
Nd121 Nd 0.84946 0.703 0.62139 0.0
C122 C 0.73096 0.60979 0.65191 0.0
C123 C 0.70751 0.57685 0.6474 0.0
C124 C 0.70365 0.55293 0.66 0.0
C125 C 0.68062 0.52195 0.65647 0.0
C126 C 0.66068 0.51414 0.64031 0.0
C127 C 0.66493 0.53809 0.62755 0.0
C128 C 0.68803 0.569 0.63103 0.0
C129 C 0.78314 0.68283 0.60077 0.0
C130 C 0.82429 0.62826 0.61711 0.0
C131 C 0.89931 0.74444 0.60232 0.0
C132 C 0.93152 0.76895 0.60687 0.0
C133 C 0.94615 0.79555 0.59522 0.0
C134 C 0.97673 0.81894 0.59915 0.0
C135 C 0.99343 0.81622 0.61485 0.0
C136 C 0.97859 0.78951 0.62657 0.0
C137 C 0.94792 0.76617 0.62266 0.0
C138 C 0.85064 0.69334 0.66114 0.0
C139 C 0.80748 0.72913 0.64138 0.0
O140 O 0.7592 0.61589 0.6562 0.0
O141 O 0.73065 0.63145 0.64127 0.0
O142 O 0.76125 0.67441 0.6135 0.0
O143 O 0.80264 0.67435 0.60588 0.0
O144 O 0.7972 0.6226 0.62423 0.0
O145 O 0.84731 0.6568 0.6139 0.0
O146 O 0.87707 0.74966 0.60788 0.0
O147 O 0.89248 0.71554 0.60498 0.0
O148 O 0.87525 0.7111 0.65114 0.0
O149 O 0.82777 0.68198 0.64984 0.0
O150 O 0.8265 0.73247 0.62706 0.0
O151 O 0.79139 0.70236 0.65067 0.0
H152 H 0.71821 0.55826 0.67276 0.0
H153 H 0.67792 0.50424 0.66671 0.0
H154 H 0.65042 0.53295 0.61479 0.0
H155 H 0.6904 0.58676 0.62093 0.0
H156 H 0.93395 0.79817 0.58296 0.0
H157 H 0.98746 0.83895 0.58968 0.0
H158 H 0.99054 0.78679 0.63891 0.0
H159 H 0.93704 0.74596 0.63197 0.0
Nd160 Nd 0.13773 0.7717 0.1344 0.0
Nd161 Nd 0.1629 0.84407 0.11909 0.0
C162 C 0.12983 0.72236 0.15393 0.0
C163 C 0.13562 0.69614 0.15009 0.0
C164 C 0.14982 0.68721 0.16437 0.0
C165 C 0.15661 0.66331 0.16079 0.0
C166 C 0.14925 0.64764 0.14283 0.0
C167 C 0.13485 0.65654 0.12857 0.0
C168 C 0.12825 0.68059 0.13212 0.0
C169 C 0.12546 0.773 0.09511 0.0
C170 C 0.21006 0.81505 0.11845 0.0
C171 C 0.17652 0.89534 0.09966 0.0
C172 C 0.184 0.92749 0.10433 0.0
C173 C 0.20159 0.95162 0.09133 0.0
C174 C 0.20919 0.98231 0.09561 0.0
C175 C 0.19929 0.9895 0.11301 0.0
C176 C 0.18175 0.96518 0.12606 0.0
C177 C 0.17428 0.93451 0.1218 0.0
C178 C 0.17031 0.84144 0.15895 0.0
C179 C 0.09088 0.8009 0.13469 0.0
O180 O 0.15458 0.74993 0.15578 0.0
O181 O 0.10748 0.72298 0.14405 0.0
O182 O 0.11933 0.74794 0.10456 0.0
O183 O 0.14034 0.7959 0.10638 0.0
O184 O 0.1896 0.79043 0.12829 0.0
O185 O 0.20356 0.83596 0.11115 0.0
O186 O 0.14797 0.87315 0.10301 0.0
O187 O 0.19739 0.88777 0.10471 0.0
O188 O 0.17913 0.86722 0.14961 0.0
O189 O 0.15841 0.81952 0.14689 0.0
O190 O 0.11081 0.82458 0.12394 0.0
O191 O 0.09704 0.77993 0.14244 0.0
H192 H 0.15585 0.69889 0.17831 0.0
H193 H 0.16739 0.65691 0.17219 0.0
H194 H 0.12921 0.64532 0.11449 0.0
H195 H 0.11765 0.68721 0.12071 0.0
H196 H 0.20939 0.94672 0.0778 0.0
H197 H 0.22238 1.00033 0.08512 0.0
H198 H 0.17406 0.96989 0.13968 0.0
H199 H 0.16094 0.91628 0.13215 0.0
Nd200 Nd 0.37172 0.12632 0.63407 0.0
Nd201 Nd 0.32962 0.15319 0.61933 0.0
C202 C 0.41571 0.11729 0.64976 0.0
C203 C 0.44868 0.12584 0.64586 0.0
C204 C 0.47286 0.14743 0.65783 0.0
C205 C 0.50376 0.1546 0.65481 0.0
C206 C 0.51134 0.1402 0.63979 0.0
C207 C 0.48711 0.11875 0.62775 0.0
C208 C 0.45627 0.11166 0.63073 0.0
C209 C 0.34867 0.10743 0.59728 0.0
C210 C 0.40497 0.19917 0.61806 0.0
C211 C 0.29233 0.16738 0.59965 0.0
C212 C 0.26636 0.17307 0.60399 0.0
C213 C 0.25854 0.18954 0.59075 0.0
C214 C 0.23439 0.19569 0.59478 0.0
C215 C 0.21749 0.18546 0.61217 0.0
C216 C 0.22546 0.16889 0.62541 0.0
C217 C 0.24969 0.16283 0.62138 0.0
C218 C 0.33563 0.16016 0.65946 0.0
C219 C 0.29739 0.08241 0.63655 0.0
O220 O 0.41025 0.13939 0.65541 0.0
O221 O 0.39439 0.09769 0.63784 0.0
O222 O 0.35463 0.0913 0.6095 0.0
O223 O 0.35788 0.13483 0.60379 0.0
O224 O 0.40827 0.1764 0.62551 0.0
O225 O 0.3775 0.19539 0.61323 0.0
O226 O 0.28696 0.13884 0.60183 0.0
O227 O 0.31973 0.18825 0.60614 0.0
O228 O 0.31969 0.16884 0.64892 0.0
O229 O 0.34729 0.14828 0.64855 0.0
O230 O 0.29602 0.10134 0.62364 0.0
O231 O 0.32367 0.08916 0.64566 0.0
H232 H 0.46784 0.15854 0.66973 0.0
H233 H 0.52162 0.17093 0.66455 0.0
H234 H 0.49196 0.10748 0.61587 0.0
H235 H 0.43836 0.09486 0.62121 0.0
H236 H 0.27115 0.19768 0.57727 0.0
H237 H 0.22871 0.20813 0.58413 0.0
H238 H 0.21327 0.161 0.63904 0.0
H239 H 0.25551 0.15029 0.63188 0.0
Nd240 Nd 0.66865 0.77476 0.39281 0.0
Nd241 Nd 0.7083 0.84454 0.40431 0.0
C242 C 0.62543 0.71636 0.38492 0.0
C243 C 0.59148 0.69403 0.38455 0.0
C244 C 0.56925 0.70249 0.37929 0.0
C245 C 0.53723 0.68061 0.38037 0.0
C246 C 0.52679 0.6499 0.38681 0.0
C247 C 0.5494 0.64187 0.39207 0.0
C248 C 0.58115 0.66354 0.39088 0.0
C249 C 0.70366 0.78611 0.42599 0.0
C250 C 0.63404 0.81404 0.40753 0.0
C251 C 0.74759 0.89764 0.42177 0.0
C252 C 0.7731 0.9294 0.41685 0.0
C253 C 0.8029 0.94037 0.4248 0.0
C254 C 0.82697 0.97068 0.42102 0.0
C255 C 0.82182 0.99092 0.40926 0.0
C256 C 0.79198 0.97981 0.40121 0.0
C257 C 0.76795 0.94944 0.40493 0.0
C258 C 0.69352 0.84183 0.36523 0.0
C259 C 0.74122 0.80885 0.38217 0.0
O260 O 0.638 0.73792 0.37156 0.0
O261 O 0.63763 0.72624 0.40205 0.0
O262 O 0.70048 0.7665 0.41254 0.0
O263 O 0.68819 0.79973 0.42194 0.0
O264 O 0.63196 0.7899 0.39798 0.0
O265 O 0.66084 0.8362 0.41439 0.0
O266 O 0.75314 0.87453 0.41964 0.0
O267 O 0.71925 0.89024 0.41667 0.0
O268 O 0.70925 0.86746 0.37494 0.0
O269 O 0.68561 0.81901 0.37641 0.0
O270 O 0.74424 0.83142 0.39388 0.0
O271 O 0.71367 0.7853 0.37704 0.0
H272 H 0.57659 0.72599 0.37455 0.0
H273 H 0.52069 0.68776 0.37606 0.0
H274 H 0.54266 0.61892 0.39757 0.0
H275 H 0.59779 0.65655 0.39528 0.0
H276 H 0.80751 0.92555 0.43414 0.0
H277 H 0.84949 0.97847 0.42765 0.0
H278 H 0.78723 0.99451 0.39186 0.0
H279 H 0.7453 0.94176 0.39851 0.0
Nd280 Nd 0.90681 0.66053 0.89391 0.0
Nd281 Nd 0.88068 0.70704 0.9092 0.0
C282 C 0.91563 0.61944 0.8744 0.0
C283 C 0.91052 0.58775 0.87823 0.0
C284 C 0.90086 0.56579 0.86314 0.0
C285 C 0.89475 0.53535 0.86665 0.0
C286 C 0.8982 0.52613 0.88536 0.0
C287 C 0.90803 0.5483 0.90044 0.0
C288 C 0.91398 0.5787 0.89693 0.0
C289 C 0.9182 0.67368 0.93339 0.0
C290 C 0.83364 0.63107 0.90892 0.0
C291 C 0.86766 0.74492 0.92903 0.0
C292 C 0.86049 0.77002 0.9248 0.0
C293 C 0.87519 0.79781 0.93553 0.0
C294 C 0.86833 0.82162 0.93203 0.0
C295 C 0.84643 0.81812 0.91777 0.0
C296 C 0.83198 0.79029 0.9069 0.0
C297 C 0.839 0.76657 0.91033 0.0
C298 C 0.87338 0.69698 0.86938 0.0
C299 C 0.95212 0.73679 0.8922 0.0
O300 O 0.89052 0.62174 0.87263 0.0
O301 O 0.9377 0.64254 0.88433 0.0
O302 O 0.92489 0.65511 0.92389 0.0
O303 O 0.9038 0.68206 0.92199 0.0
O304 O 0.8547 0.62708 0.89949 0.0
O305 O 0.83964 0.65832 0.91625 0.0
O306 O 0.89617 0.75105 0.92567 0.0
O307 O 0.84668 0.71653 0.92401 0.0
O308 O 0.86395 0.71352 0.87881 0.0
O309 O 0.88554 0.68713 0.88138 0.0
O310 O 0.93213 0.74048 0.90302 0.0
O311 O 0.94666 0.70941 0.88517 0.0
H312 H 0.89786 0.57216 0.84861 0.0
H313 H 0.88757 0.5191 0.85463 0.0
H314 H 0.91052 0.542 0.91507 0.0
H315 H 0.921 0.59504 0.9089 0.0
H316 H 0.892 0.80109 0.94668 0.0
H317 H 0.88039 0.84287 0.94046 0.0
H318 H 0.81475 0.78652 0.89596 0.0
H319 H 0.82739 0.74544 0.90174 0.0
Nd320 Nd 0.26077 0.89903 0.39262 0.0
Nd321 Nd 0.18704 0.87307 0.40579 0.0
C322 C 0.31119 0.90619 0.37482 0.0
C323 C 0.33574 0.8978 0.37856 0.0
C324 C 0.32834 0.86667 0.38131 0.0
C325 C 0.35184 0.8592 0.38457 0.0
C326 C 0.38334 0.88264 0.3853 0.0
C327 C 0.39065 0.91376 0.38265 0.0
C328 C 0.36716 0.92121 0.37926 0.0
C329 C 0.25569 0.91232 0.43132 0.0
C330 C 0.21728 0.82701 0.40945 0.0
C331 C 0.13541 0.86172 0.42382 0.0
C332 C 0.10412 0.85636 0.41845 0.0
C333 C 0.09256 0.87409 0.42731 0.0
C334 C 0.06291 0.86915 0.42261 0.0
C335 C 0.04403 0.84616 0.40902 0.0
C336 C 0.05572 0.8285 0.4001 0.0
C337 C 0.08546 0.83361 0.4047 0.0
C338 C 0.19213 0.86436 0.3665 0.0
C339 C 0.22994 0.94416 0.38806 0.0
O340 O 0.28306 0.88336 0.37097 0.0
O341 O 0.31123 0.92776 0.38593 0.0
O342 O 0.28188 0.91954 0.42296 0.0
O343 O 0.23421 0.89663 0.41937 0.0
O344 O 0.24303 0.84782 0.40065 0.0
O345 O 0.19485 0.83267 0.41483 0.0
O346 O 0.15887 0.88993 0.42131 0.0
O347 O 0.142 0.83994 0.41913 0.0
O348 O 0.16574 0.85523 0.37516 0.0
O349 O 0.21351 0.87705 0.37892 0.0
O350 O 0.20554 0.92424 0.39832 0.0
O351 O 0.25253 0.93883 0.38231 0.0
H352 H 0.30438 0.848 0.38097 0.0
H353 H 0.34525 0.83504 0.38679 0.0
H354 H 0.41462 0.9324 0.38289 0.0
H355 H 0.3736 0.94535 0.37711 0.0
H356 H 0.10643 0.8917 0.43798 0.0
H357 H 0.05455 0.88299 0.42989 0.0
H358 H 0.04201 0.81093 0.38938 0.0
H359 H 0.09378 0.81971 0.39747 0.0
Nd360 Nd 0.37797 0.25717 0.89349 0.0
Nd361 Nd 0.33086 0.18439 0.90794 0.0
C362 C 0.42004 0.30757 0.87518 0.0
C363 C 0.45254 0.33279 0.87901 0.0
C364 C 0.47529 0.32616 0.88606 0.0
C365 C 0.50595 0.35015 0.88928 0.0
C366 C 0.51468 0.38146 0.88569 0.0
C367 C 0.49174 0.38803 0.87884 0.0
C368 C 0.46111 0.36399 0.8755 0.0
C369 C 0.36408 0.25398 0.93291 0.0
C370 C 0.4068 0.21298 0.90892 0.0
C371 C 0.29274 0.13278 0.92682 0.0
C372 C 0.2675 0.10114 0.92184 0.0
C373 C 0.25557 0.07799 0.93608 0.0
C374 C 0.23195 0.04774 0.93154 0.0
C375 C 0.21972 0.03993 0.91261 0.0
C376 C 0.23177 0.06336 0.89837 0.0
C377 C 0.25544 0.09363 0.90294 0.0
C378 C 0.33954 0.18766 0.86796 0.0
C379 C 0.30234 0.22866 0.8932 0.0
O380 O 0.41576 0.27958 0.87192 0.0
O381 O 0.39813 0.3073 0.88594 0.0
O382 O 0.38238 0.2796 0.92384 0.0
O383 O 0.35673 0.23188 0.92112 0.0
O384 O 0.41103 0.23804 0.89946 0.0
O385 O 0.37936 0.19172 0.91576 0.0
O386 O 0.28699 0.15562 0.92399 0.0
O387 O 0.3208 0.13972 0.92145 0.0
O388 O 0.32242 0.16201 0.87731 0.0
O389 O 0.35081 0.20964 0.88009 0.0
O390 O 0.29922 0.20541 0.90425 0.0
O391 O 0.3292 0.24929 0.88515 0.0
H392 H 0.46942 0.3024 0.8891 0.0
H393 H 0.52277 0.34416 0.89482 0.0
H394 H 0.49757 0.41175 0.87572 0.0
H395 H 0.4441 0.36979 0.87006 0.0
H396 H 0.26453 0.08332 0.95076 0.0
H397 H 0.22299 0.03055 0.94297 0.0
H398 H 0.22325 0.05821 0.8836 0.0
H399 H 0.26442 0.11115 0.8917 0.0
Nd400 Nd 0.13319 0.36755 0.39604 0.0
Nd401 Nd 0.1611 0.3253 0.40687 0.0
C402 C 0.11956 0.41097 0.38537 0.0
C403 C 0.13329 0.44523 0.38516 0.0
C404 C 0.11873 0.45843 0.37442 0.0
C405 C 0.12833 0.49016 0.37627 0.0
C406 C 0.15271 0.50948 0.38898 0.0
C407 C 0.16811 0.49636 0.39914 0.0
C408 C 0.15844 0.46456 0.39729 0.0
C409 C 0.11349 0.33739 0.43082 0.0
C410 C 0.208 0.40041 0.40812 0.0
C411 C 0.17654 0.28737 0.42449 0.0
C412 C 0.18252 0.26158 0.41945 0.0
C413 C 0.16213 0.23122 0.42592 0.0
C414 C 0.16788 0.2068 0.42179 0.0
C415 C 0.19433 0.21217 0.4112 0.0
C416 C 0.21475 0.24258 0.40473 0.0
C417 C 0.20891 0.26697 0.40877 0.0
C418 C 0.16734 0.33495 0.36717 0.0
C419 C 0.08996 0.29333 0.38933 0.0
O420 O 0.13032 0.39815 0.37327 0.0
O421 O 0.11392 0.39827 0.40251 0.0
O422 O 0.09592 0.34128 0.4186 0.0
O423 O 0.14159 0.35017 0.42498 0.0
O424 O 0.18482 0.40404 0.40174 0.0
O425 O 0.20407 0.37282 0.41269 0.0
O426 O 0.1478 0.28172 0.42315 0.0
O427 O 0.19684 0.31541 0.4187 0.0
O428 O 0.17563 0.31755 0.37647 0.0
O429 O 0.15551 0.34574 0.37885 0.0
O430 O 0.10998 0.2903 0.40051 0.0
O431 O 0.09524 0.32087 0.38302 0.0
H432 H 0.0992 0.44395 0.36505 0.0
H433 H 0.11629 0.49947 0.36793 0.0
H434 H 0.18679 0.51035 0.40916 0.0
H435 H 0.16984 0.45484 0.40588 0.0
H436 H 0.14179 0.22639 0.43434 0.0
H437 H 0.15186 0.18378 0.42723 0.0
H438 H 0.23515 0.2475 0.39636 0.0
H439 H 0.22519 0.29006 0.40355 0.0
Nd440 Nd 0.78234 0.13354 0.89683 0.0
Nd441 Nd 0.85476 0.15634 0.91081 0.0
C442 C 0.73173 0.12459 0.87831 0.0
C443 C 0.70646 0.13184 0.88209 0.0
C444 C 0.71307 0.16231 0.88655 0.0
C445 C 0.68897 0.16879 0.88999 0.0
C446 C 0.65765 0.14495 0.88921 0.0
C447 C 0.65111 0.11444 0.8849 0.0
C448 C 0.67523 0.10801 0.88132 0.0
C449 C 0.78612 0.1251 0.93654 0.0
C450 C 0.8302 0.20746 0.90901 0.0
C451 C 0.90657 0.16841 0.92918 0.0
C452 C 0.93941 0.17856 0.92448 0.0
C453 C 0.9544 0.16474 0.93412 0.0
C454 C 0.98504 0.17295 0.92953 0.0
C455 C 1.00153 0.19529 0.91518 0.0
C456 C 0.98656 0.20943 0.90568 0.0
C457 C 0.95576 0.20104 0.91021 0.0
C458 C 0.84968 0.15808 0.8706 0.0
C459 C 0.80532 0.08301 0.90134 0.0
O460 O 0.75953 0.14821 0.87496 0.0
O461 O 0.73235 0.10324 0.88921 0.0
O462 O 0.76066 0.11888 0.92749 0.0
O463 O 0.80805 0.13831 0.92455 0.0
O464 O 0.80369 0.1863 0.90097 0.0
O465 O 0.85151 0.20094 0.91566 0.0
O466 O 0.8859 0.14052 0.92318 0.0
O467 O 0.89721 0.18886 0.92731 0.0
O468 O 0.87545 0.16534 0.87959 0.0
O469 O 0.82873 0.15 0.88312 0.0
O470 O 0.82779 0.10314 0.91284 0.0
O471 O 0.78834 0.09092 0.89028 0.0
H472 H 0.73688 0.18123 0.88744 0.0
H473 H 0.69492 0.19246 0.89352 0.0
H474 H 0.62729 0.09557 0.88399 0.0
H475 H 0.66946 0.08435 0.8779 0.0
H476 H 0.94227 0.14735 0.94517 0.0
H477 H 0.99591 0.16188 0.93732 0.0
H478 H 0.99842 0.22648 0.89443 0.0
H479 H 0.94464 0.21186 0.90242 0.0
H480 H 0.16105 1.00895 0.12874 0.0
H481 H 0.17229 0.06231 0.13452 0.0
H482 H 0.26511 0.09747 0.11244 0.0
H483 H 0.25423 0.04398 0.10696 0.0
H484 H 0.26405 0.13032 0.14514 0.0
H485 H 0.21212 0.09822 0.08377 0.0
H486 H 0.17069 0.06351 0.0611 0.0
H487 H 0.10319 0.07337 0.09466 0.0
H488 H 0.14416 0.10779 0.1177 0.0
H489 H 0.28619 0.28592 0.13106 0.0
H490 H 0.28521 0.23571 0.12922 0.0
H491 H 0.18747 0.18781 0.14334 0.0
H492 H 0.18826 0.23742 0.14435 0.0
H493 H 0.19547 0.16292 0.11273 0.0
H494 H 0.24684 0.19344 0.17498 0.0
H495 H 0.28813 0.22791 0.1978 0.0
H496 H 0.35644 0.2215 0.16294 0.0
H497 H 0.31557 0.18727 0.13977 0.0
C498 C 0.18402 0.02796 0.12535 0.0
C499 C 0.20667 0.02209 0.11728 0.0
C500 C 0.19035 0.05851 0.12855 0.0
C501 C 0.21946 0.08396 0.12373 0.0
C502 C 0.24247 0.07824 0.11623 0.0
C503 C 0.2361 0.04764 0.11294 0.0
C504 C 0.22519 0.1164 0.12576 0.0
C505 C 0.24931 0.13763 0.13789 0.0
C506 C 0.20585 0.12592 0.11644 0.0
C507 C 0.18117 0.10536 0.10255 0.0
C508 C 0.1884 0.0928 0.08639 0.0
C509 C 0.16501 0.0732 0.07346 0.0
C510 C 0.13431 0.06618 0.07646 0.0
C511 C 0.12697 0.0788 0.09237 0.0
C512 C 0.15027 0.09838 0.10535 0.0
C513 C 0.2648 0.26464 0.13424 0.0
C514 C 0.23731 0.26546 0.13783 0.0
C515 C 0.26418 0.23594 0.13317 0.0
C516 C 0.23617 0.20776 0.13606 0.0
C517 C 0.20928 0.20903 0.14083 0.0
C518 C 0.20979 0.23744 0.14155 0.0
C519 C 0.2337 0.17676 0.13268 0.0
C520 C 0.21028 0.15577 0.12007 0.0
C521 C 0.25366 0.16758 0.14161 0.0
C522 C 0.2782 0.18808 0.15554 0.0
C523 C 0.2707 0.19958 0.1721 0.0
C524 C 0.29402 0.21903 0.18512 0.0
C525 C 0.3249 0.22697 0.18179 0.0
C526 C 0.33251 0.21538 0.16548 0.0
C527 C 0.30928 0.19593 0.15241 0.0
H528 H 0.34292 0.24203 0.19189 0.0
H529 H 0.11623 0.05101 0.06643 0.0
H530 H 0.21533 0.23905 0.60515 0.0
H531 H 0.17252 0.24908 0.61148 0.0
H532 H 0.11845 0.15702 0.63544 0.0
H533 H 0.16081 0.1465 0.62868 0.0
H534 H 0.08379 0.17003 0.61121 0.0
H535 H 0.15396 0.22233 0.66452 0.0
H536 H 0.2043 0.25929 0.67952 0.0
H537 H 0.20324 0.33528 0.65033 0.0
H538 H 0.15307 0.2987 0.63495 0.0
H539 H 0.96286 0.17877 0.65473 0.0
H540 H 1.01139 0.17757 0.65252 0.0
H541 H 0.05668 0.26953 0.62764 0.0
H542 H 1.00796 0.2711 0.63024 0.0
H543 H 0.09692 0.25949 0.65105 0.0
H544 H 0.0274 0.20875 0.5981 0.0
H545 H 0.97634 0.17296 0.5835 0.0
H546 H 0.97649 0.09533 0.61105 0.0
H547 H 0.02737 0.13076 0.62609 0.0
C548 C 0.19427 0.22083 0.61166 0.0
C549 C 0.19162 0.19193 0.6164 0.0
C550 C 0.16988 0.22673 0.61545 0.0
C551 C 0.14228 0.20394 0.62413 0.0
C552 C 0.13951 0.17504 0.62879 0.0
C553 C 0.1639 0.16914 0.62506 0.0
C554 C 0.11603 0.20988 0.62805 0.0
C555 C 0.08666 0.18939 0.62011 0.0
C556 C 0.11983 0.23573 0.63914 0.0
C557 C 0.14992 0.25774 0.64843 0.0
C558 C 0.16458 0.2469 0.66118 0.0
C559 C 0.19306 0.26778 0.66977 0.0
C560 C 0.207 0.2996 0.66584 0.0
C561 C 0.19244 0.31062 0.65334 0.0
C562 C 0.16397 0.28983 0.6447 0.0
C563 C 0.98337 0.19912 0.64929 0.0
C564 C 0.98157 0.22497 0.64256 0.0
C565 C 1.01108 0.19834 0.64794 0.0
C566 C 0.03751 0.22312 0.63946 0.0
C567 C 0.03655 0.25006 0.63414 0.0
C568 C 1.00875 0.25101 0.63571 0.0
C569 C 0.06472 0.21931 0.63452 0.0
C570 C 0.09418 0.2402 0.64212 0.0
C571 C 0.06115 0.194 0.62296 0.0
C572 C 0.03111 0.17244 0.61334 0.0
C573 C 1.0165 0.18406 0.6011 0.0
C574 C 0.98758 0.16384 0.59275 0.0
C575 C 0.97314 0.13189 0.59638 0.0
C576 C 0.9877 0.12009 0.60827 0.0
C577 C 1.0166 0.14022 0.61669 0.0
H578 H 0.9507 0.11627 0.58996 0.0
H579 H 0.22904 0.31573 0.67251 0.0
H580 H 0.78401 0.97123 0.10144 0.0
H581 H 0.83462 0.01751 0.10392 0.0
H582 H 0.81213 0.03617 0.16091 0.0
H583 H 0.76053 0.98866 0.15863 0.0
H584 H 0.84553 0.09044 0.13844 0.0
H585 H 0.85736 1.00442 0.15752 0.0
H586 H 0.84918 0.95116 0.1548 0.0
H587 H 0.89709 0.97416 0.10035 0.0
H588 H 0.90512 0.02742 0.10258 0.0
H589 H 1.01032 0.19995 0.14787 0.0
H590 H 0.95746 0.15746 0.15405 0.0
H591 H 0.95601 0.11757 0.0982 0.0
H592 H 1.00843 0.16011 0.09173 0.0
H593 H 0.93509 0.07391 0.12659 0.0
H594 H 0.91721 0.1573 0.10596 0.0
H595 H 0.92358 0.20995 0.10789 0.0
H596 H 0.8869 0.19157 0.16566 0.0
H597 H 0.8807 0.13893 0.16415 0.0
C598 C 0.78955 0.98507 0.11456 0.0
C599 C 0.76836 0.97587 0.13002 0.0
C600 C 0.81866 1.0116 0.11595 0.0
C601 C 0.82753 0.02995 0.13276 0.0
C602 C 0.80582 0.02216 0.14784 0.0
C603 C 0.77636 0.99515 0.1465 0.0
C604 C 0.85998 0.05637 0.13435 0.0
C605 C 0.86521 0.08684 0.13634 0.0
C606 C 0.88567 0.0517 0.13133 0.0
C607 C 0.88176 0.01993 0.1302 0.0
C608 C 0.86608 0.99811 0.14494 0.0
C609 C 0.86144 0.9679 0.14347 0.0
C610 C 0.87258 0.95927 0.12741 0.0
C611 C 0.88849 0.98088 0.1128 0.0
C612 C 0.89314 1.01111 0.11417 0.0
C613 C 0.99866 0.18234 0.13679 0.0
C614 C 1.01383 0.18354 0.11929 0.0
C615 C 0.96842 0.15799 0.14039 0.0
C616 C 0.95267 0.13434 0.12657 0.0
C617 C 0.96774 0.13544 0.10914 0.0
C618 C 0.99785 0.15976 0.10551 0.0
C619 C 0.92064 0.10809 0.13016 0.0
C620 C 0.91553 0.07757 0.12912 0.0
C621 C 0.8952 0.11278 0.13416 0.0
C622 C 0.89886 0.14435 0.13503 0.0
C623 C 0.91076 0.1646 0.11914 0.0
C624 C 0.91429 0.19441 0.12014 0.0
C625 C 0.90575 0.20413 0.13691 0.0
C626 C 0.89357 0.18403 0.15269 0.0
C627 C 0.89003 0.1542 0.15177 0.0
H628 H 0.90849 0.22722 0.13766 0.0
H629 H 0.8689 0.93584 0.12628 0.0
H630 H 0.79105 0.75783 0.61502 0.0
H631 H 0.79585 0.80913 0.61763 0.0
H632 H 0.82091 0.81392 0.67792 0.0
H633 H 0.81528 0.76154 0.67538 0.0
H634 H 0.78388 0.84366 0.66841 0.0
H635 H 0.87682 0.84475 0.64827 0.0
H636 H 0.90753 0.8278 0.62887 0.0
H637 H 0.88307 0.85831 0.57694 0.0
H638 H 0.85146 0.87455 0.59592 0.0
H639 H 0.8537 1.01126 0.66128 0.0
H640 H 0.84428 0.95883 0.66866 0.0
H641 H 0.82636 0.93412 0.60818 0.0
H642 H 0.83543 0.98611 0.60074 0.0
H643 H 0.86477 0.91624 0.62289 0.0
H644 H 0.76745 0.90896 0.6419 0.0
H645 H 0.73452 0.92418 0.66039 0.0
H646 H 0.76684 0.9056 0.71374 0.0
H647 H 0.8003 0.89065 0.69556 0.0
C648 C 0.79643 0.76929 0.62902 0.0
C649 C 0.80259 0.75574 0.64502 0.0
C650 C 0.79939 0.7987 0.63047 0.0
C651 C 0.80932 0.81561 0.64786 0.0
C652 C 0.81327 0.80126 0.66436 0.0
C653 C 0.80992 0.77136 0.66294 0.0
C654 C 0.81872 0.84921 0.64775 0.0
C655 C 0.80199 0.85976 0.65877 0.0
C656 C 0.84214 0.87011 0.63499 0.0
C657 C 0.86156 0.86071 0.62354 0.0
C658 C 0.87775 0.84759 0.6327 0.0
C659 C 0.89531 0.83807 0.62177 0.0
C660 C 0.89717 0.84187 0.60168 0.0
C661 C 0.88152 0.85525 0.59249 0.0
C662 C 0.86377 0.86462 0.60333 0.0
C663 C 0.84746 0.99456 0.64958 0.0
C664 C 0.8455 1.00305 0.63038 0.0
C665 C 0.8421 0.96458 0.65383 0.0
C666 C 0.83448 0.94241 0.639 0.0
C667 C 0.83239 0.95083 0.61987 0.0
C668 C 0.83774 0.98068 0.61562 0.0
C669 C 0.82927 0.91059 0.64307 0.0
C670 C 0.84697 0.90038 0.63278 0.0
C671 C 0.80677 0.89012 0.65647 0.0
C672 C 0.78665 0.89906 0.66739 0.0
C673 C 0.76774 0.90838 0.65758 0.0
C674 C 0.74894 0.91691 0.668 0.0
C675 C 0.74867 0.91596 0.68823 0.0
C676 C 0.76713 0.90639 0.69808 0.0
C677 C 0.786 0.89788 0.68772 0.0
H678 H 0.73409 0.92256 0.69627 0.0
H679 H 0.91081 0.83454 0.59325 0.0
H680 H 0.03375 0.74964 0.12845 0.0
H681 H 0.98353 0.74858 0.12663 0.0
H682 H 0.02867 0.84495 0.14434 0.0
H683 H 0.07877 0.84634 0.14552 0.0
H684 H 0.96861 0.80415 0.16275 0.0
H685 H 1.01832 0.8342 0.10009 0.0
H686 H 0.04177 0.82884 0.06991 0.0
H687 H 0.95837 0.74301 0.05693 0.0
H688 H 0.93448 0.74772 0.0872 0.0
H689 H 0.87511 0.86717 0.13267 0.0
H690 H 0.91643 0.85507 0.13904 0.0
H691 H 0.8651 0.76841 0.10779 0.0
H692 H 0.82353 0.78034 0.10139 0.0
H693 H 0.92405 0.79673 0.09723 0.0
H694 H 0.87149 0.76998 0.15762 0.0
H695 H 0.84699 0.77683 0.18685 0.0
H696 H 0.93428 0.85499 0.20427 0.0
H697 H 0.95923 0.84891 0.17498 0.0
C698 C 0.03269 0.77029 0.13241 0.0
C699 C 0.05997 0.79799 0.1373 0.0
C700 C 1.00413 0.76976 0.13122 0.0
C701 C 1.00243 0.79674 0.13529 0.0
C702 C 0.02943 0.82387 0.14119 0.0
C703 C 0.05799 0.82463 0.1419 0.0
C704 C 0.97312 0.79758 0.13237 0.0
C705 C 0.95885 0.8026 0.14844 0.0
C706 C 0.95999 0.79479 0.11374 0.0
C707 C 0.97478 0.79109 0.09604 0.0
C708 C 1.00516 0.81392 0.09097 0.0
C709 C 1.01847 0.81108 0.07381 0.0
C710 C 1.00156 0.78561 0.06152 0.0
C711 C 0.97141 0.76273 0.06647 0.0
C712 C 0.95798 0.76548 0.08363 0.0
C713 C 0.87233 0.8453 0.12738 0.0
C714 C 0.84585 0.8247 0.11656 0.0
C715 C 0.89605 0.83839 0.13104 0.0
C716 C 0.89381 0.8106 0.12413 0.0
C717 C 0.86742 0.78998 0.1133 0.0
C718 C 0.84369 0.79691 0.1096 0.0
C719 C 0.91955 0.80373 0.12761 0.0
C720 C 0.93328 0.79765 0.11163 0.0
C721 C 0.93205 0.80535 0.14635 0.0
C722 C 0.91717 0.80913 0.16401 0.0
C723 C 0.88541 0.78879 0.1676 0.0
C724 C 0.87145 0.79251 0.1842 0.0
C725 C 0.88905 0.81637 0.19739 0.0
C726 C 0.92067 0.83653 0.19403 0.0
C727 C 0.93475 0.83293 0.17744 0.0
H728 H 0.8782 0.81921 0.21024 0.0
H729 H 1.0117 0.78379 0.04809 0.0
H730 H 1.01784 0.87946 0.61311 0.0
H731 H 0.07161 0.92026 0.61845 0.0
H732 H 0.09726 0.85074 0.6313 0.0
H733 H 0.04328 0.80961 0.62594 0.0
H734 H 0.12614 0.89943 0.65594 0.0
H735 H 0.11515 0.88675 0.58761 0.0
H736 H 0.09117 0.88188 0.55552 0.0
H737 H 0.10397 0.97396 0.56135 0.0
H738 H 0.12763 0.97922 0.5936 0.0
H739 H 0.28944 0.02409 0.64465 0.0
H740 H 0.24 0.97416 0.64297 0.0
H741 H 0.19052 0.02399 0.6327 0.0
H742 H 0.23912 0.07319 0.63434 0.0
H743 H 0.17804 0.97939 0.60507 0.0
H744 H 0.1847 0.98871 0.6754 0.0
H745 H 0.20969 0.99274 0.70703 0.0
H746 H 0.20706 0.90593 0.69634 0.0
H747 H 0.18241 0.9016 0.66451 0.0
C748 C 0.03489 0.87275 0.61693 0.0
C749 C 0.02617 0.84115 0.61888 0.0
C750 C 0.0657 0.89616 0.62003 0.0
C751 C 0.08873 0.88864 0.62498 0.0
C752 C 0.08 0.85718 0.62746 0.0
C753 C 0.04907 0.83368 0.62442 0.0
C754 C 0.12183 0.91379 0.62719 0.0
C755 C 0.13766 0.91663 0.64469 0.0
C756 C 0.1371 0.93627 0.61253 0.0
C757 C 0.12296 0.93327 0.5931 0.0
C758 C 0.11266 0.90588 0.58211 0.0
C759 C 0.09914 0.90306 0.56388 0.0
C760 C 0.09599 0.92757 0.55642 0.0
C761 C 0.10641 0.95498 0.56715 0.0
C762 C 0.11991 0.95791 0.5854 0.0
C763 C 0.26786 0.02427 0.64258 0.0
C764 C 0.26817 0.05254 0.63958 0.0
C765 C 0.23967 0.99578 0.6415 0.0
C766 C 0.21154 0.99532 0.63752 0.0
C767 C 0.21188 0.02367 0.63557 0.0
C768 C 0.23974 0.05183 0.63659 0.0
C769 C 0.18173 0.96581 0.63412 0.0
C770 C 0.16661 0.96201 0.61626 0.0
C771 C 0.16736 0.94244 0.64836 0.0
C772 C 0.18207 0.94503 0.66749 0.0
C773 C 0.18971 0.97063 0.67972 0.0
C774 C 0.20375 0.97294 0.6977 0.0
C775 C 0.21005 0.94966 0.70366 0.0
C776 C 0.20223 0.92398 0.69168 0.0
C777 C 0.1882 0.92158 0.67368 0.0
H778 H 0.22092 0.95149 0.71759 0.0
H779 H 0.08553 0.92535 0.5423 0.0
H780 H 0.99029 0.79015 0.40432 0.0
H781 H 0.93813 0.78101 0.39684 0.0
H782 H 0.97354 0.88017 0.39528 0.0
H783 H 0.02568 0.88942 0.40296 0.0
H784 H 0.92144 0.85332 0.41471 0.0
H785 H 0.9542 0.83364 0.3533 0.0
H786 H 0.97401 0.8086 0.33097 0.0
H787 H 0.89563 0.71902 0.3438 0.0
H788 H 0.87555 0.74349 0.36642 0.0
H789 H 0.7969 0.85894 0.3738 0.0
H790 H 0.84754 0.86187 0.37475 0.0
H791 H 0.80252 0.76234 0.38222 0.0
H792 H 0.75141 0.75923 0.38085 0.0
H793 H 0.85768 0.78631 0.36013 0.0
H794 H 0.82509 0.80669 0.42154 0.0
H795 H 0.80479 0.83257 0.44283 0.0
H796 H 0.88308 0.92168 0.42912 0.0
H797 H 0.90378 0.89639 0.40762 0.0
C798 C 0.98704 0.81002 0.4022 0.0
C799 C 1.01224 0.84054 0.40421 0.0
C800 C 0.95715 0.80476 0.3979 0.0
C801 C 0.95182 0.82988 0.39523 0.0
C802 C 0.97695 0.86036 0.39728 0.0
C803 C 1.00678 0.86563 0.40172 0.0
C804 C 0.92001 0.82455 0.39079 0.0
C805 C 0.90775 0.83895 0.40262 0.0
C806 C 0.90157 0.80511 0.37534 0.0
C807 C 0.91354 0.79037 0.3617 0.0
C808 C 0.94131 0.80857 0.35147 0.0
C809 C 0.95257 0.79449 0.33874 0.0
C810 C 0.93614 0.76223 0.33601 0.0
C811 C 0.90836 0.744 0.34596 0.0
C812 C 0.89701 0.75797 0.35872 0.0
C813 C 0.79774 0.83753 0.375 0.0
C814 C 0.77025 0.80886 0.37728 0.0
C815 C 0.82671 0.83926 0.37568 0.0
C816 C 0.82887 0.81244 0.37904 0.0
C817 C 0.8014 0.78336 0.3797 0.0
C818 C 0.77222 0.78156 0.3788 0.0
C819 C 0.85959 0.8155 0.38385 0.0
C820 C 0.87148 0.80059 0.37221 0.0
C821 C 0.8778 0.8345 0.39947 0.0
C822 C 0.86589 0.84966 0.41288 0.0
C823 C 0.83794 0.83181 0.42302 0.0
C824 C 0.82635 0.84636 0.43512 0.0
C825 C 0.84257 0.87873 0.43728 0.0
C826 C 0.87053 0.89661 0.42743 0.0
C827 C 0.88225 0.88218 0.41532 0.0
H828 H 0.83351 0.88995 0.4466 0.0
H829 H 0.94489 0.75136 0.32615 0.0
H830 H 1.01089 0.74603 0.89752 0.0
H831 H 0.05965 0.79648 0.8977 0.0
H832 H 1.00942 0.84226 0.87911 0.0
H833 H 0.9607 0.79227 0.87963 0.0
H834 H 0.07418 0.86272 0.86065 0.0
H835 H 1.01902 0.85272 0.92082 0.0
H836 H 0.99092 0.82553 0.95041 0.0
H837 H 0.06834 0.81481 0.96787 0.0
H838 H 0.09689 0.84214 0.93847 0.0
H839 H 0.16867 0.0218 0.88904 0.0
H840 H 0.1267 0.96895 0.88212 0.0
H841 H 0.17118 0.93175 0.91852 0.0
H842 H 0.21333 0.98451 0.92542 0.0
H843 H 0.11123 0.90486 0.92672 0.0
H844 H 0.17028 0.92543 0.86843 0.0
H845 H 0.1976 0.95481 0.83923 0.0
H846 H 0.11245 0.94587 0.81714 0.0
H847 H 0.08468 0.9168 0.84634 0.0
C848 C 1.01049 0.76675 0.89296 0.0
C849 C 0.98215 0.7653 0.88842 0.0
C850 C 0.03825 0.79554 0.89316 0.0
C851 C 0.03812 0.82309 0.88837 0.0
C852 C 1.01008 0.82129 0.88271 0.0
C853 C 0.9823 0.79275 0.88301 0.0
C854 C 0.06639 0.85407 0.8912 0.0
C855 C 0.08231 0.87208 0.87506 0.0
C856 C 0.07714 0.8661 0.90996 0.0
C857 C 0.05993 0.8492 0.92744 0.0
C858 C 0.02991 0.84435 0.93094 0.0
C859 C 1.01397 0.82908 0.94772 0.0
C860 C 0.0279 0.81866 0.96111 0.0
C861 C 0.05766 0.82317 0.95763 0.0
C862 C 0.07376 0.83859 0.94093 0.0
C863 C 0.16982 1.00239 0.89536 0.0
C864 C 0.19449 1.00758 0.90783 0.0
C865 C 0.14573 0.97209 0.89137 0.0
C866 C 0.14581 0.94618 0.89963 0.0
C867 C 0.17049 0.95127 0.91198 0.0
C868 C 0.19455 0.98154 0.91599 0.0
C869 C 0.11948 0.91393 0.89615 0.0
C870 C 0.10365 0.89558 0.91223 0.0
C871 C 0.10886 0.90177 0.87727 0.0
C872 C 0.12546 0.91916 0.85966 0.0
C873 C 0.15742 0.92993 0.85742 0.0
C874 C 0.17299 0.9465 0.84085 0.0
C875 C 0.15679 0.95227 0.82636 0.0
C876 C 0.12497 0.94141 0.82839 0.0
C877 C 0.1093 0.92486 0.84493 0.0
H878 H 0.16888 0.96509 0.81355 0.0
H879 H 1.01563 0.80727 0.9742 0.0
H880 H 0.25016 0.21302 0.41302 0.0
H881 H 0.26013 0.17006 0.40676 0.0
H882 H 0.16292 0.10961 0.39369 0.0
H883 H 0.15279 0.15237 0.40005 0.0
H884 H 0.18294 0.08079 0.41642 0.0
H885 H 0.22063 0.14089 0.3579 0.0
H886 H 0.25277 0.18826 0.33881 0.0
H887 H 0.3358 0.19331 0.36173 0.0
H888 H 0.30413 0.14617 0.38117 0.0
H889 H 0.18246 0.95256 0.37677 0.0
H890 H 0.18084 1.00101 0.37735 0.0
H891 H 0.27868 0.05199 0.39131 0.0
H892 H 0.28047 1.00318 0.39044 0.0
H893 H 0.26203 0.08724 0.3698 0.0
H894 H 0.22263 0.02295 0.42597 0.0
H895 H 0.18949 0.9748 0.44398 0.0
H896 H 0.10797 0.97673 0.42492 0.0
H897 H 0.14062 0.02471 0.40649 0.0
C898 C 0.23095 0.19066 0.40861 0.0
C899 C 0.20065 0.1862 0.40703 0.0
C900 C 0.2367 0.16608 0.40503 0.0
C901 C 0.21235 0.13655 0.39955 0.0
C902 C 0.18211 0.13209 0.39794 0.0
C903 C 0.17632 0.15657 0.40163 0.0
C904 C 0.21802 0.11001 0.39594 0.0
C905 C 0.19997 0.08212 0.40604 0.0
C906 C 0.24096 0.11195 0.38287 0.0
C907 C 0.26001 0.1402 0.37114 0.0
C908 C 0.24574 0.15224 0.35898 0.0
C909 C 0.26387 0.17902 0.34808 0.0
C910 C 0.2963 0.19383 0.3491 0.0
C911 C 0.31067 0.18184 0.36098 0.0
C912 C 0.29265 0.15508 0.37193 0.0
C913 C 0.20382 0.97421 0.3795 0.0
C914 C 0.23152 0.97414 0.38377 0.0
C915 C 0.20283 1.00189 0.37994 0.0
C916 C 0.22932 0.03 0.3852 0.0
C917 C 0.25776 0.03047 0.3877 0.0
C918 C 0.25885 1.00265 0.38703 0.0
C919 C 0.22631 0.05782 0.38988 0.0
C920 C 0.24503 0.08596 0.38018 0.0
C921 C 0.20385 0.05611 0.40331 0.0
C922 C 0.18419 0.02755 0.4148 0.0
C923 C 0.19769 1.01322 0.42562 0.0
C924 C 0.17896 0.98587 0.43588 0.0
C925 C 0.14666 0.97275 0.43563 0.0
C926 C 0.13301 0.98696 0.42512 0.0
C927 C 0.15163 0.01425 0.41477 0.0
H928 H 0.1322 0.95158 0.44359 0.0
H929 H 0.3103 0.21456 0.34065 0.0
H930 H 0.24294 0.18109 0.89401 0.0
H931 H 0.19517 0.18344 0.89275 0.0
H932 H 0.24811 0.28293 0.88488 0.0
H933 H 0.29676 0.28072 0.88616 0.0
H934 H 0.20292 0.26522 0.91354 0.0
H935 H 0.20574 0.23941 0.84796 0.0
H936 H 0.21248 0.21188 0.82022 0.0
H937 H 0.13544 0.12568 0.83965 0.0
H938 H 0.12854 0.15255 0.86772 0.0
H939 H 0.05207 0.25308 0.90803 0.0
H940 H 0.1053 0.26568 0.90004 0.0
H941 H 0.07757 0.16823 0.90281 0.0
H942 H 0.02442 0.15548 0.91045 0.0
H943 H 0.11363 0.1951 0.87166 0.0
H944 H 0.11776 0.21797 0.93994 0.0
H945 H 0.11214 0.24371 0.96906 0.0
H946 H 0.17659 0.33321 0.94558 0.0
H947 H 0.18229 0.30797 0.9162 0.0
C948 C 0.2446 0.20353 0.89178 0.0
C949 C 0.27374 0.23075 0.89017 0.0
C950 C 0.21714 0.20479 0.89095 0.0
C951 C 0.21791 0.23329 0.88851 0.0
C952 C 0.24693 0.26063 0.88664 0.0
C953 C 0.27467 0.25933 0.88725 0.0
C954 C 0.18816 0.23394 0.88911 0.0
C955 C 0.18358 0.25045 0.90409 0.0
C956 C 0.16276 0.2144 0.87693 0.0
C957 C 0.16669 0.19804 0.86002 0.0
C958 C 0.19036 0.21454 0.84642 0.0
C959 C 0.1942 0.19905 0.83062 0.0
C960 C 0.1744 0.16706 0.82818 0.0
C961 C 0.15074 0.15047 0.84155 0.0
C962 C 0.14682 0.16584 0.8574 0.0
C963 C 0.05727 0.23432 0.90679 0.0
C964 C 0.03394 0.20326 0.91 0.0
C965 C 0.08778 0.24158 0.90235 0.0
C966 C 0.0956 0.21794 0.90095 0.0
C967 C 0.07221 0.18692 0.90382 0.0
C968 C 0.04183 0.17967 0.90836 0.0
C969 C 0.12806 0.22521 0.89667 0.0
C970 C 0.1331 0.21026 0.8809 0.0
C971 C 0.1538 0.2459 0.90826 0.0
C972 C 0.15006 0.26112 0.92576 0.0
C973 C 0.13046 0.24315 0.9409 0.0
C974 C 0.12733 0.25764 0.95747 0.0
C975 C 0.1439 0.29008 0.95913 0.0
C976 C 0.1637 0.30809 0.94425 0.0
C977 C 0.16689 0.29371 0.92763 0.0
H978 H 0.14147 0.30126 0.97199 0.0
H979 H 0.17733 0.15514 0.8159 0.0
H980 H 0.08078 0.23495 0.38536 0.0
H981 H 0.03155 0.18609 0.38492 0.0
H982 H 0.98166 0.23689 0.3852 0.0
H983 H 0.03144 0.28637 0.38562 0.0
H984 H 0.96095 0.19134 0.41337 0.0
H985 H 0.97865 0.19615 0.34552 0.0
H986 H 1.00856 0.20348 0.3156 0.0
H987 H 1.02063 0.12596 0.33054 0.0
H988 H 0.99118 0.11842 0.36071 0.0
H989 H 0.81837 0.04471 0.40781 0.0
H990 H 0.86032 0.09777 0.4014 0.0
H991 H 0.92529 0.06412 0.39612 0.0
H992 H 0.88337 1.01098 0.40199 0.0
H993 H 0.93393 0.10385 0.36776 0.0
H994 H 0.92118 0.10258 0.43694 0.0
H995 H 0.89413 0.09698 0.46788 0.0
H996 H 0.87439 0.16887 0.45105 0.0
H997 H 0.90088 0.17455 0.41986 0.0
C998 C 0.05935 0.23581 0.38491 0.0
C999 C 0.06 0.26454 0.38543 0.0
C1000 C 0.03116 0.20779 0.38462 0.0
C1001 C 1.00279 0.20769 0.38494 0.0
C1002 C 1.00325 0.23637 0.38489 0.0
C1003 C 0.03166 0.26461 0.38493 0.0
C1004 C 0.97311 0.17749 0.38671 0.0
C1005 C 0.95456 0.1724 0.40315 0.0
C1006 C 0.9652 0.15252 0.37364 0.0
C1007 C 0.98284 0.15685 0.35546 0.0
C1008 C 0.98787 0.1808 0.34251 0.0
C1009 C 1.00472 0.18497 0.32549 0.0
C1010 C 1.01653 0.16523 0.32119 0.0
C1011 C 1.01147 0.14123 0.33389 0.0
C1012 C 0.99465 0.13697 0.35094 0.0
C1013 C 0.84153 0.04854 0.40513 0.0
C1014 C 0.8474 0.02344 0.40545 0.0
C1015 C 0.8656 0.079 0.40165 0.0
C1016 C 0.89614 0.08513 0.39844 0.0
C1017 C 0.90199 0.0601 0.3986 0.0
C1018 C 0.87799 0.02968 0.40212 0.0
C1019 C 0.92204 0.11744 0.39465 0.0
C1020 C 0.93993 0.12289 0.37783 0.0
C1021 C 0.92935 0.14271 0.40741 0.0
C1022 C 0.91261 0.13865 0.42593 0.0
C1023 C 0.9107 0.1169 0.43972 0.0
C1024 C 0.89555 0.11379 0.45733 0.0
C1025 C 0.88245 0.13249 0.4614 0.0
C1026 C 0.88447 0.15434 0.44786 0.0
C1027 C 0.89953 0.1575 0.43021 0.0
H1028 H 0.87082 0.13011 0.47507 0.0
H1029 H 0.02958 0.1685 0.30801 0.0
H1030 H 0.83367 0.83735 0.88323 0.0
H1031 H 0.81959 0.87764 0.87813 0.0
H1032 H 0.8281 0.89691 0.93949 0.0
H1033 H 0.84055 0.85563 0.94483 0.0
H1034 H 0.7786 0.89659 0.9265 0.0
H1035 H 0.88508 0.94436 0.90573 0.0
H1036 H 0.92928 0.94918 0.88665 0.0
H1037 H 0.88309 0.94935 0.834 0.0
H1038 H 0.83841 0.94412 0.85277 0.0
H1039 H 0.81307 0.05307 0.9317 0.0
H1040 H 0.81064 1.00269 0.93185 0.0
H1041 H 0.78364 0.9894 0.87163 0.0
H1042 H 0.78536 0.04008 0.87151 0.0
H1043 H 0.83643 0.98305 0.88032 0.0
H1044 H 0.73024 0.93621 0.90179 0.0
H1045 H 0.68545 0.92881 0.92136 0.0
H1046 H 0.73333 0.92939 0.97341 0.0
H1047 H 0.77816 0.93616 0.95409 0.0
C1048 C 0.83223 0.8499 0.89569 0.0
C1049 C 0.8384 0.84317 0.91446 0.0
C1050 C 0.82451 0.87324 0.89271 0.0
C1051 C 0.82314 0.8907 0.90838 0.0
C1052 C 0.82906 0.88389 0.92713 0.0
C1053 C 0.83656 0.86044 0.93014 0.0
C1054 C 0.81541 0.91597 0.90542 0.0
C1055 C 0.79147 0.9156 0.91649 0.0
C1056 C 0.83145 0.94039 0.89195 0.0
C1057 C 0.85824 0.94346 0.88064 0.0
C1058 C 0.88423 0.94515 0.89008 0.0
C1059 C 0.90939 0.94801 0.87932 0.0
C1060 C 0.90895 0.94946 0.85912 0.0
C1061 C 0.88337 0.94815 0.84964 0.0
C1062 C 0.85813 0.94525 0.86033 0.0
C1063 C 0.80612 0.03926 0.91853 0.0
C1064 C 0.79953 0.0506 0.90155 0.0
C1065 C 0.80452 1.01031 0.91869 0.0
C1066 C 0.79684 0.99217 0.90179 0.0
C1067 C 0.78942 1.00296 0.88488 0.0
C1068 C 0.79032 0.03182 0.88482 0.0
C1069 C 0.80001 0.9638 0.90161 0.0
C1070 C 0.82325 0.96371 0.89005 0.0
C1071 C 0.78359 0.93912 0.91476 0.0
C1072 C 0.75753 0.9368 0.92651 0.0
C1073 C 0.73126 0.93493 0.91742 0.0
C1074 C 0.70576 0.93052 0.92845 0.0
C1075 C 0.70647 0.92842 0.94861 0.0
C1076 C 0.73272 0.93079 0.95779 0.0
C1077 C 0.7581 0.93474 0.9468 0.0
H1078 H 0.68678 0.9252 0.95712 0.0
H1079 H 0.92845 0.95169 0.85082 0.0
H1080 H 0.20217 0.64599 0.15269 0.0
H1081 H 0.21411 0.60431 0.14664 0.0
H1082 H 0.12562 0.55032 0.1179 0.0
H1083 H 0.11324 0.59169 0.12425 0.0
H1084 H 0.13731 0.51461 0.14263 0.0
H1085 H 0.1931 0.58828 0.0921 0.0
H1086 H 0.23008 0.63962 0.07851 0.0
H1087 H 0.30453 0.6406 0.11101 0.0
H1088 H 0.26793 0.58946 0.12502 0.0
H1089 H 0.16775 0.39915 0.10478 0.0
H1090 H 0.15638 0.44191 0.10629 0.0
H1091 H 0.24591 0.50101 0.13268 0.0
H1092 H 0.25773 0.45875 0.13089 0.0
H1093 H 0.23298 0.53399 0.10808 0.0
H1094 H 0.17942 0.46259 0.1592 0.0
H1095 H 0.1443 0.41117 0.17328 0.0
H1096 H 0.06721 0.40695 0.14212 0.0
H1097 H 0.10213 0.4579 0.12724 0.0
C1098 C 0.18512 0.62518 0.14519 0.0
C1099 C 0.15671 0.62228 0.13896 0.0
C1100 C 0.19212 0.60144 0.14157 0.0
C1101 C 0.17092 0.5742 0.13162 0.0
C1102 C 0.14243 0.57111 0.12554 0.0
C1103 C 0.13548 0.59492 0.12906 0.0
C1104 C 0.17828 0.5488 0.12779 0.0
C1105 C 0.15797 0.51875 0.13479 0.0
C1106 C 0.20571 0.55428 0.11807 0.0
C1107 C 0.2277 0.58513 0.10973 0.0
C1108 C 0.2173 0.59956 0.09648 0.0
C1109 C 0.23821 0.6286 0.08868 0.0
C1110 C 0.26963 0.64335 0.0939 0.0
C1111 C 0.28019 0.62914 0.10698 0.0
C1112 C 0.25938 0.60011 0.11484 0.0
C1113 C 0.18525 0.42136 0.11065 0.0
C1114 C 0.21361 0.42526 0.11783 0.0
C1115 C 0.17862 0.4458 0.11162 0.0
C1116 C 0.20004 0.47464 0.11993 0.0
C1117 C 0.22891 0.47903 0.12626 0.0
C1118 C 0.2356 0.45469 0.12526 0.0
C1119 C 0.19197 0.49976 0.12287 0.0
C1120 C 0.21219 0.52978 0.11579 0.0
C1121 C 0.16466 0.49435 0.13275 0.0
C1122 C 0.14348 0.46393 0.14192 0.0
C1123 C 0.15503 0.4506 0.1552 0.0
C1124 C 0.13515 0.42153 0.16334 0.0
C1125 C 0.10352 0.40582 0.15864 0.0
C1126 C 0.09173 0.41914 0.14574 0.0
C1127 C 0.11157 0.44807 0.1374 0.0
H1128 H 0.08816 0.38335 0.16501 0.0
H1129 H 0.28582 0.66575 0.08778 0.0
H1130 H 0.7775 0.15145 0.61214 0.0
H1131 H 0.72349 0.14006 0.6139 0.0
H1132 H 0.75511 0.23567 0.62959 0.0
H1133 H 0.80894 0.24693 0.62841 0.0
H1134 H 0.71025 0.20032 0.65238 0.0
H1135 H 0.72284 0.20249 0.58329 0.0
H1136 H 0.73566 0.18755 0.552 0.0
H1137 H 0.66496 0.09247 0.56107 0.0
H1138 H 0.65197 0.10679 0.59254 0.0
H1139 H 0.56552 0.19666 0.64278 0.0
H1140 H 0.619 0.20769 0.63833 0.0
H1141 H 0.58552 0.11077 0.62559 0.0
H1142 H 0.53198 0.09956 0.63002 0.0
H1143 H 0.63082 0.146 0.60118 0.0
H1144 H 0.61842 0.14394 0.67019 0.0
H1145 H 0.60549 0.15886 0.70146 0.0
H1146 H 0.67611 0.25397 0.6924 0.0
H1147 H 0.68918 0.23968 0.66094 0.0
C1148 C 0.77299 0.17018 0.61569 0.0
C1149 C 0.79773 0.20014 0.62009 0.0
C1150 C 0.74198 0.16364 0.61667 0.0
C1151 C 0.73491 0.18702 0.62176 0.0
C1152 C 0.75968 0.2171 0.62571 0.0
C1153 C 0.7906 0.22356 0.62492 0.0
C1154 C 0.70188 0.18005 0.6238 0.0
C1155 C 0.69308 0.18887 0.64101 0.0
C1156 C 0.67894 0.1643 0.6093 0.0
C1157 C 0.68665 0.15567 0.59036 0.0
C1158 C 0.71018 0.17836 0.57868 0.0
C1159 C 0.71745 0.17001 0.5609 0.0
C1160 C 0.7012 0.13907 0.55457 0.0
C1161 C 0.67757 0.11642 0.566 0.0
C1162 C 0.67022 0.12465 0.5838 0.0
C1163 C 0.56947 0.17759 0.63919 0.0
C1164 C 0.54421 0.14715 0.63685 0.0
C1165 C 0.60018 0.18396 0.63662 0.0
C1166 C 0.60656 0.16004 0.63184 0.0
C1167 C 0.58139 0.12972 0.62923 0.0
C1168 C 0.55067 0.12335 0.63173 0.0
C1169 C 0.63939 0.16654 0.62966 0.0
C1170 C 0.64808 0.15755 0.61249 0.0
C1171 C 0.66229 0.18217 0.64418 0.0
C1172 C 0.65457 0.19078 0.66313 0.0
C1173 C 0.63104 0.16807 0.67481 0.0
C1174 C 0.62371 0.17641 0.69257 0.0
C1175 C 0.63992 0.20735 0.69889 0.0
C1176 C 0.66355 0.23001 0.68748 0.0
C1177 C 0.67094 0.22181 0.66969 0.0
H1178 H 0.63421 0.21376 0.71265 0.0
H1179 H 0.70686 0.13265 0.5408 0.0
H1180 H 0.6375 0.77055 0.10486 0.0
H1181 H 0.59503 0.71673 0.10697 0.0
H1182 H 0.53363 0.74891 0.12739 0.0
H1183 H 0.57603 0.80269 0.12565 0.0
H1184 H 0.52855 0.70359 0.14967 0.0
H1185 H 0.52765 0.71756 0.08087 0.0
H1186 H 0.55025 0.73106 0.04814 0.0
H1187 H 0.57547 0.65977 0.05147 0.0
H1188 H 0.55337 0.64611 0.08434 0.0
H1189 H 0.38774 0.55952 0.14597 0.0
H1190 H 0.42899 0.61294 0.14007 0.0
H1191 H 0.48884 0.57894 0.1195 0.0
H1192 H 0.44745 0.52532 0.1252 0.0
H1193 H 0.49507 0.6249 0.09704 0.0
H1194 H 0.497 0.61128 0.16563 0.0
H1195 H 0.47517 0.59772 0.19855 0.0
H1196 H 0.44916 0.66848 0.19585 0.0
H1197 H 0.47047 0.68218 0.16279 0.0
C1198 C 0.61486 0.76629 0.10951 0.0
C1199 C 0.61036 0.79118 0.11509 0.0
C1200 C 0.59049 0.73537 0.11069 0.0
C1201 C 0.56091 0.72855 0.11727 0.0
C1202 C 0.55617 0.75341 0.12233 0.0
C1203 C 0.58052 0.78428 0.12124 0.0
C1204 C 0.53536 0.69561 0.11985 0.0
C1205 C 0.52094 0.68656 0.13803 0.0
C1206 C 0.52592 0.67292 0.10493 0.0
C1207 C 0.53911 0.68102 0.08514 0.0
C1208 C 0.53822 0.70492 0.07468 0.0
C1209 C 0.5509 0.71257 0.0561 0.0
C1210 C 0.56436 0.69634 0.04775 0.0
C1211 C 0.56507 0.67235 0.05796 0.0
C1212 C 0.55244 0.66463 0.07656 0.0
C1213 C 0.40974 0.56336 0.14031 0.0
C1214 C 0.41427 0.53801 0.13622 0.0
C1215 C 0.43338 0.59401 0.13692 0.0
C1216 C 0.46238 0.60021 0.12961 0.0
C1217 C 0.46677 0.57492 0.12515 0.0
C1218 C 0.44302 0.5442 0.12841 0.0
C1219 C 0.48811 0.63301 0.1268 0.0
C1220 C 0.50264 0.64199 0.10864 0.0
C1221 C 0.49778 0.65566 0.14176 0.0
C1222 C 0.48507 0.64755 0.16167 0.0
C1223 C 0.48643 0.6238 0.172 0.0
C1224 C 0.47418 0.61611 0.19069 0.0
C1225 C 0.46072 0.63217 0.19926 0.0
C1226 C 0.45956 0.65602 0.18918 0.0
C1227 C 0.47174 0.66378 0.17047 0.0
H1228 H 0.45125 0.62619 0.21373 0.0
H1229 H 0.57417 0.7023 0.03336 0.0
H1230 H 0.7814 0.56608 0.61283 0.0
H1231 H 0.79114 0.5222 0.61253 0.0
H1232 H 0.88984 0.58618 0.61686 0.0
H1233 H 0.8803 0.63 0.61604 0.0
H1234 H 0.8827 0.54156 0.59531 0.0
H1235 H 0.83921 0.54383 0.65757 0.0
H1236 H 0.79935 0.54387 0.67893 0.0
H1237 H 0.73105 0.45496 0.65607 0.0
H1238 H 0.77047 0.45455 0.63444 0.0
H1239 H 0.93276 0.44272 0.6369 0.0
H1240 H 0.91848 0.48276 0.6316 0.0
H1241 H 0.82427 0.41188 0.61874 0.0
H1242 H 0.83848 0.37155 0.62353 0.0
H1243 H 0.82621 0.45708 0.64296 0.0
H1244 H 0.87195 0.45375 0.58254 0.0
H1245 H 0.91242 0.45465 0.56137 0.0
H1246 H 0.97763 0.54666 0.58157 0.0
H1247 H 0.93766 0.54614 0.60308 0.0
C1248 C 0.80521 0.5708 0.6134 0.0
C1249 C 0.83004 0.60164 0.61449 0.0
C1250 C 0.81078 0.54562 0.61344 0.0
C1251 C 0.84125 0.55059 0.61525 0.0
C1252 C 0.86609 0.58145 0.61554 0.0
C1253 C 0.86058 0.60662 0.61505 0.0
C1254 C 0.84742 0.52395 0.6174 0.0
C1255 C 0.87053 0.52334 0.60591 0.0
C1256 C 0.83117 0.49951 0.63088 0.0
C1257 C 0.80771 0.49929 0.64428 0.0
C1258 C 0.81567 0.52433 0.65708 0.0
C1259 C 0.79316 0.52442 0.66922 0.0
C1260 C 0.76267 0.49947 0.66881 0.0
C1261 C 0.75467 0.47428 0.65635 0.0
C1262 C 0.77709 0.47408 0.64417 0.0
C1263 C 0.90907 0.43549 0.63269 0.0
C1264 C 0.8869 0.40366 0.63055 0.0
C1265 C 0.90089 0.45853 0.62974 0.0
C1266 C 0.87033 0.45046 0.62457 0.0
C1267 C 0.84799 0.41877 0.62273 0.0
C1268 C 0.85618 0.39567 0.62558 0.0
C1269 C 0.86182 0.47514 0.62112 0.0
C1270 C 0.83827 0.47531 0.63235 0.0
C1271 C 0.87784 0.49934 0.60754 0.0
C1272 C 0.90188 0.49979 0.59454 0.0
C1273 C 0.89499 0.47408 0.58257 0.0
C1274 C 0.91783 0.47454 0.5705 0.0
C1275 C 0.9476 0.50067 0.57016 0.0
C1276 C 0.95457 0.52643 0.58186 0.0
C1277 C 0.93182 0.52607 0.59398 0.0
H1278 H 0.96525 0.50098 0.56079 0.0
H1279 H 0.74525 0.49964 0.67818 0.0
H1280 H 0.50865 0.91575 0.1152 0.0
H1281 H 0.45511 0.90367 0.1092 0.0
H1282 H 0.42154 0.82396 0.14676 0.0
H1283 H 0.47501 0.83575 0.15265 0.0
H1284 H 0.38558 0.80892 0.11574 0.0
H1285 H 0.42642 0.89445 0.16121 0.0
H1286 H 0.46356 0.94723 0.17308 0.0
H1287 H 0.44426 0.98708 0.12345 0.0
H1288 H 0.40729 0.93449 0.11116 0.0
H1289 H 0.23405 0.78152 0.13539 0.0
H1290 H 0.28784 0.79317 0.13613 0.0
H1291 H 0.31403 0.87242 0.09911 0.0
H1292 H 0.26004 0.86146 0.0988 0.0
H1293 H 0.35427 0.88845 0.12744 0.0
H1294 H 0.31089 0.80299 0.08289 0.0
H1295 H 0.27252 0.75029 0.07159 0.0
H1296 H 0.296 0.71019 0.11925 0.0
H1297 H 0.33425 0.76271 0.13102 0.0
C1298 C 0.4899 0.89576 0.1223 0.0
C1299 C 0.49628 0.87684 0.1345 0.0
C1300 C 0.45921 0.88884 0.11884 0.0
C1301 C 0.43408 0.86308 0.12771 0.0
C1302 C 0.44038 0.84393 0.13969 0.0
C1303 C 0.47104 0.8507 0.14304 0.0
C1304 C 0.40131 0.85619 0.1247 0.0
C1305 C 0.37872 0.82625 0.11849 0.0
C1306 C 0.39225 0.87893 0.12774 0.0
C1307 C 0.41434 0.91054 0.13517 0.0
C1308 C 0.43026 0.91446 0.15276 0.0
C1309 C 0.45126 0.94434 0.15957 0.0
C1310 C 0.45633 0.97049 0.149 0.0
C1311 C 0.44035 0.9668 0.13161 0.0
C1312 C 0.41935 0.93697 0.12473 0.0
C1313 C 0.25105 0.80125 0.12715 0.0
C1314 C 0.24245 0.82045 0.11695 0.0
C1315 C 0.28198 0.80783 0.12754 0.0
C1316 C 0.3052 0.83347 0.11746 0.0
C1317 C 0.29665 0.85245 0.107 0.0
C1318 C 0.26566 0.84604 0.10674 0.0
C1319 C 0.33846 0.84111 0.11861 0.0
C1320 C 0.36115 0.87118 0.12451 0.0
C1321 C 0.34759 0.81849 0.11525 0.0
C1322 C 0.32527 0.78683 0.10793 0.0
C1323 C 0.30779 0.78295 0.09102 0.0
C1324 C 0.28607 0.75311 0.08453 0.0
C1325 C 0.28174 0.72693 0.09474 0.0
C1326 C 0.29934 0.73051 0.11138 0.0
C1327 C 0.32109 0.76032 0.11795 0.0
H1328 H 0.26476 0.70388 0.08975 0.0
H1329 H 0.4726 0.9936 0.15429 0.0
H1330 H 0.66218 0.45967 0.64524 0.0
H1331 H 0.6199 0.40619 0.64017 0.0
H1332 H 0.55912 0.44072 0.62246 0.0
H1333 H 0.60094 0.49413 0.628 0.0
H1334 H 0.52954 0.39275 0.64657 0.0
H1335 H 0.59134 0.41295 0.58932 0.0
H1336 H 0.63938 0.42864 0.57082 0.0
H1337 H 0.64806 0.35442 0.59659 0.0
H1338 H 0.60026 0.33854 0.61545 0.0
H1339 H 0.40748 0.25366 0.60701 0.0
H1340 H 0.45185 0.30647 0.60918 0.0
H1341 H 0.51001 0.26997 0.62888 0.0
H1342 H 0.46581 0.21698 0.62663 0.0
H1343 H 0.54127 0.31851 0.6038 0.0
H1344 H 0.47931 0.29816 0.66091 0.0
H1345 H 0.43098 0.28218 0.67916 0.0
H1346 H 0.4228 0.35691 0.65379 0.0
H1347 H 0.47075 0.37297 0.63506 0.0
C1348 C 0.63977 0.45591 0.64037 0.0
C1349 C 0.63511 0.48136 0.63696 0.0
C1350 C 0.61565 0.42526 0.63731 0.0
C1351 C 0.58629 0.41928 0.63071 0.0
C1352 C 0.58152 0.44462 0.62747 0.0
C1353 C 0.60561 0.47523 0.63049 0.0
C1354 C 0.56042 0.3867 0.62742 0.0
C1355 C 0.53202 0.37669 0.637 0.0
C1356 C 0.56372 0.36534 0.61531 0.0
C1357 C 0.5924 0.37476 0.60394 0.0
C1358 C 0.60363 0.40013 0.59116 0.0
C1359 C 0.63079 0.40903 0.58058 0.0
C1360 C 0.64681 0.39259 0.58257 0.0
C1361 C 0.63565 0.36716 0.59509 0.0
C1362 C 0.60851 0.35818 0.60571 0.0
C1363 C 0.42978 0.25671 0.61152 0.0
C1364 C 0.43288 0.23089 0.61674 0.0
C1365 C 0.45515 0.28704 0.61287 0.0
C1366 C 0.48423 0.29233 0.61952 0.0
C1367 C 0.48782 0.26656 0.62379 0.0
C1368 C 0.46244 0.2362 0.6225 0.0
C1369 C 0.51039 0.32471 0.62283 0.0
C1370 C 0.53882 0.33462 0.61333 0.0
C1371 C 0.50716 0.34601 0.63503 0.0
C1372 C 0.47847 0.33658 0.64643 0.0
C1373 C 0.46708 0.31104 0.6591 0.0
C1374 C 0.43978 0.30199 0.66955 0.0
C1375 C 0.42382 0.31849 0.66762 0.0
C1376 C 0.43517 0.34413 0.65525 0.0
C1377 C 0.46241 0.35321 0.64472 0.0
H1378 H 0.40269 0.31145 0.67573 0.0
H1379 H 0.66784 0.39952 0.57437 0.0
H1380 H 0.38841 0.834 0.37 0.0
H1381 H 0.42956 0.82123 0.37547 0.0
H1382 H 0.47636 0.9002 0.4139 0.0
H1383 H 0.43541 0.91329 0.40831 0.0
H1384 H 0.51738 0.89767 0.39114 0.0
H1385 H 0.4337 0.82238 0.4304 0.0
H1386 H 0.38015 0.78039 0.43684 0.0
H1387 H 0.39062 0.72171 0.39516 0.0
H1388 H 0.4441 0.76351 0.38828 0.0
H1389 H 0.62736 0.85873 0.42731 0.0
H1390 H 0.5838 0.86875 0.42569 0.0
H1391 H 0.53438 0.78948 0.38779 0.0
H1392 H 0.57735 0.77873 0.38983 0.0
H1393 H 0.49451 0.79219 0.41116 0.0
H1394 H 0.57641 0.86681 0.37079 0.0
H1395 H 0.62977 0.90833 0.3634 0.0
H1396 H 0.62233 0.96777 0.40592 0.0
H1397 H 0.56905 0.92641 0.41376 0.0
C1398 C 0.40729 0.84851 0.37977 0.0
C1399 C 0.40843 0.87465 0.38876 0.0
C1400 C 0.43087 0.84114 0.38291 0.0
C1401 C 0.45602 0.85942 0.39536 0.0
C1402 C 0.45731 0.88565 0.40424 0.0
C1403 C 0.43385 0.89317 0.40099 0.0
C1404 C 0.48124 0.85161 0.39884 0.0
C1405 C 0.51233 0.87472 0.39582 0.0
C1406 C 0.47487 0.82144 0.40446 0.0
C1407 C 0.44281 0.79618 0.40871 0.0
C1408 C 0.42451 0.8006 0.42252 0.0
C1409 C 0.39418 0.77682 0.42626 0.0
C1410 C 0.38196 0.74843 0.41638 0.0
C1411 C 0.4001 0.74372 0.40279 0.0
C1412 C 0.43043 0.76744 0.39898 0.0
C1413 C 0.60707 0.84314 0.41884 0.0
C1414 C 0.6061 0.818 0.40862 0.0
C1415 C 0.58218 0.84906 0.41779 0.0
C1416 C 0.55592 0.83035 0.40623 0.0
C1417 C 0.55433 0.80442 0.39673 0.0
C1418 C 0.57904 0.7983 0.39792 0.0
C1419 C 0.53063 0.83827 0.40349 0.0
C1420 C 0.49954 0.81519 0.40659 0.0
C1421 C 0.53696 0.8684 0.39782 0.0
C1422 C 0.56887 0.89341 0.39299 0.0
C1423 C 0.58623 0.88866 0.37865 0.0
C1424 C 0.61645 0.91217 0.37437 0.0
C1425 C 0.62946 0.94064 0.38422 0.0
C1426 C 0.61223 0.94569 0.39833 0.0
C1427 C 0.58202 0.92223 0.40268 0.0
H1428 H 0.65286 0.95881 0.38089 0.0
H1429 H 0.35847 0.73006 0.41929 0.0
H1430 H 0.81215 0.57098 0.89651 0.0
H1431 H 0.75837 0.52883 0.89411 0.0
H1432 H 0.72699 0.58766 0.92005 0.0
H1433 H 0.78094 0.63003 0.92277 0.0
H1434 H 0.6933 0.52906 0.93336 0.0
H1435 H 0.72349 0.57634 0.87105 0.0
H1436 H 0.75662 0.59618 0.84207 0.0
H1437 H 0.74105 0.50444 0.82963 0.0
H1438 H 0.7082 0.48412 0.85872 0.0
H1439 H 0.53515 0.43955 0.90165 0.0
H1440 H 0.58882 0.48131 0.90676 0.0
H1441 H 0.62255 0.42329 0.88254 0.0
H1442 H 0.56895 0.38164 0.87706 0.0
H1443 H 0.65475 0.48213 0.86846 0.0
H1444 H 0.62411 0.43529 0.9313 0.0
H1445 H 0.59091 0.41641 0.9603 0.0
H1446 H 0.60681 0.50862 0.97144 0.0
H1447 H 0.63977 0.52798 0.94235 0.0
C1448 C 0.79394 0.575 0.90194 0.0
C1449 C 0.80112 0.60418 0.90975 0.0
C1450 C 0.76304 0.5508 0.90044 0.0
C1451 C 0.73837 0.55511 0.90653 0.0
C1452 C 0.74549 0.5837 0.91514 0.0
C1453 C 0.77646 0.60797 0.9167 0.0
C1454 C 0.70527 0.53018 0.9033 0.0
C1455 C 0.68481 0.51911 0.91911 0.0
C1456 C 0.69406 0.5167 0.88478 0.0
C1457 C 0.7136 0.52876 0.86717 0.0
C1458 C 0.72731 0.56043 0.86221 0.0
C1459 C 0.74602 0.57176 0.84576 0.0
C1460 C 0.75098 0.55159 0.83404 0.0
C1461 C 0.73721 0.52004 0.83874 0.0
C1462 C 0.71852 0.5086 0.8552 0.0
C1463 C 0.55395 0.43569 0.89729 0.0
C1464 C 0.54755 0.40706 0.88897 0.0
C1465 C 0.58472 0.45956 0.90038 0.0
C1466 C 0.60993 0.45549 0.89522 0.0
C1467 C 0.60362 0.42708 0.88672 0.0
C1468 C 0.57287 0.40313 0.88373 0.0
C1469 C 0.64282 0.48084 0.89854 0.0
C1470 C 0.66324 0.49206 0.88271 0.0
C1471 C 0.6539 0.49457 0.91702 0.0
C1472 C 0.63415 0.48301 0.93453 0.0
C1473 C 0.62032 0.45149 0.93985 0.0
C1474 C 0.60158 0.44071 0.95632 0.0
C1475 C 0.59668 0.46129 0.96767 0.0
C1476 C 0.61058 0.4927 0.96261 0.0
C1477 C 0.62931 0.50359 0.94614 0.0
H1478 H 0.58218 0.4529 0.98042 0.0
H1479 H 0.7654 0.56039 0.82128 0.0
H1480 H 0.16214 0.77266 0.41425 0.0
H1481 H 0.15322 0.71956 0.41298 0.0
H1482 H 0.25207 0.75513 0.40837 0.0
H1483 H 0.26098 0.80834 0.40876 0.0
H1484 H 0.22567 0.71191 0.38358 0.0
H1485 H 0.2063 0.71699 0.45083 0.0
H1486 H 0.18271 0.72664 0.47954 0.0
H1487 H 0.09191 0.65725 0.46004 0.0
H1488 H 0.11491 0.64745 0.43108 0.0
H1489 H 0.21084 0.56112 0.39378 0.0
H1490 H 0.22373 0.61506 0.39972 0.0
H1491 H 0.12633 0.58718 0.39736 0.0
H1492 H 0.11323 0.53319 0.392 0.0
H1493 H 0.15454 0.62669 0.42713 0.0
H1494 H 0.1757 0.62413 0.35897 0.0
H1495 H 0.20078 0.6146 0.33099 0.0
H1496 H 0.29081 0.67989 0.35384 0.0
H1497 H 0.26626 0.68951 0.38208 0.0
C1498 C 0.18207 0.76924 0.41334 0.0
C1499 C 0.2123 0.79489 0.4117 0.0
C1500 C 0.17693 0.73871 0.41265 0.0
C1501 C 0.20196 0.73299 0.4108 0.0
C1502 C 0.23227 0.75867 0.40976 0.0
C1503 C 0.23737 0.7892 0.41011 0.0
C1504 C 0.19642 0.70042 0.4088 0.0
C1505 C 0.21055 0.69349 0.39338 0.0
C1506 C 0.17624 0.67592 0.42126 0.0
C1507 C 0.16233 0.68168 0.4387 0.0
C1508 C 0.18128 0.70393 0.4526 0.0
C1509 C 0.16802 0.70941 0.46893 0.0
C1510 C 0.13583 0.69262 0.47159 0.0
C1511 C 0.11684 0.67026 0.45795 0.0
C1512 C 0.12998 0.66471 0.44159 0.0
C1513 C 0.19213 0.5664 0.39463 0.0
C1514 C 0.16097 0.54267 0.39224 0.0
C1515 C 0.19956 0.59736 0.39789 0.0
C1516 C 0.17604 0.60539 0.3988 0.0
C1517 C 0.14494 0.58171 0.39666 0.0
C1518 C 0.1375 0.55081 0.39338 0.0
C1519 C 0.18365 0.63836 0.40192 0.0
C1520 C 0.16986 0.64529 0.4175 0.0
C1521 C 0.20441 0.66293 0.38976 0.0
C1522 C 0.21915 0.6573 0.37273 0.0
C1523 C 0.20085 0.63628 0.35809 0.0
C1524 C 0.21497 0.6309 0.34218 0.0
C1525 C 0.24737 0.64657 0.34067 0.0
C1526 C 0.26572 0.66774 0.35504 0.0
C1527 C 0.25172 0.67318 0.37099 0.0
H1528 H 0.25826 0.64236 0.32834 0.0
H1529 H 0.12561 0.6969 0.48424 0.0
H1530 H 0.65259 0.1945 0.87601 0.0
H1531 H 0.61068 0.20598 0.88185 0.0
H1532 H 0.56263 0.12296 0.91646 0.0
H1533 H 0.60436 0.11114 0.91043 0.0
H1534 H 0.52253 0.12763 0.89383 0.0
H1535 H 0.6032 0.19803 0.93679 0.0
H1536 H 0.6564 0.23876 0.94556 0.0
H1537 H 0.64927 0.30263 0.90678 0.0
H1538 H 0.59618 0.26213 0.89755 0.0
H1539 H 0.41005 0.16564 0.92788 0.0
H1540 H 0.45298 0.15449 0.92758 0.0
H1541 H 0.50721 0.23604 0.89271 0.0
H1542 H 0.46499 0.24781 0.89339 0.0
H1543 H 0.544 0.23105 0.91784 0.0
H1544 H 0.46541 0.15995 0.87318 0.0
H1545 H 0.41268 0.11911 0.86359 0.0
H1546 H 0.41641 0.05673 0.90522 0.0
H1547 H 0.46903 0.09736 0.91523 0.0
C1548 C 0.63325 0.1788 0.88501 0.0
C1549 C 0.63199 0.15195 0.89282 0.0
C1550 C 0.60924 0.18542 0.88837 0.0
C1551 C 0.58357 0.16565 0.89989 0.0
C1552 C 0.58212 0.13866 0.90755 0.0
C1553 C 0.60601 0.13188 0.90405 0.0
C1554 C 0.55806 0.17286 0.90366 0.0
C1555 C 0.52723 0.15009 0.8994 0.0
C1556 C 0.56404 0.20235 0.91058 0.0
C1557 C 0.59577 0.22694 0.91637 0.0
C1558 C 0.61303 0.2207 0.93005 0.0
C1559 C 0.64317 0.24376 0.93511 0.0
C1560 C 0.65622 0.27324 0.92671 0.0
C1561 C 0.63913 0.27977 0.91327 0.0
C1562 C 0.609 0.25678 0.90813 0.0
C1563 C 0.43124 0.18144 0.92033 0.0
C1564 C 0.43382 0.20757 0.91058 0.0
C1565 C 0.45576 0.1749 0.92006 0.0
C1566 C 0.48328 0.19405 0.90979 0.0
C1567 C 0.48632 0.22079 0.9007 0.0
C1568 C 0.46198 0.22747 0.90109 0.0
C1569 C 0.5085 0.18591 0.90785 0.0
C1570 C 0.53929 0.20851 0.91244 0.0
C1571 C 0.50252 0.15628 0.9012 0.0
C1572 C 0.471 0.13178 0.89509 0.0
C1573 C 0.45489 0.13758 0.88037 0.0
C1574 C 0.42504 0.11447 0.87485 0.0
C1575 C 0.41117 0.08537 0.88383 0.0
C1576 C 0.42717 0.07929 0.8983 0.0
C1577 C 0.45701 0.10234 0.9039 0.0
H1578 H 0.38806 0.06751 0.87954 0.0
H1579 H 0.67956 0.29105 0.93064 0.0
H1580 H 0.26298 0.4002 0.40714 0.0
H1581 H 0.31541 0.44437 0.4045 0.0
H1582 H 0.27901 0.50743 0.40767 0.0
H1583 H 0.22602 0.46287 0.40916 0.0
H1584 H 0.32114 0.52922 0.38261 0.0
H1585 H 0.32157 0.49483 0.44671 0.0
H1586 H 0.31379 0.45787 0.4729 0.0
H1587 H 0.37979 0.43718 0.44635 0.0
H1588 H 0.38768 0.47372 0.41987 0.0
H1589 H 0.47787 0.65892 0.39734 0.0
H1590 H 0.4231 0.61942 0.40179 0.0
H1591 H 0.44365 0.54758 0.38522 0.0
H1592 H 0.49791 0.5867 0.38004 0.0
H1593 H 0.40938 0.53403 0.41954 0.0
H1594 H 0.406 0.56947 0.35455 0.0
H1595 H 0.4139 0.60921 0.33028 0.0
H1596 H 0.3533 0.63188 0.36204 0.0
H1597 H 0.34536 0.59254 0.38664 0.0
C1598 C 0.26606 0.42345 0.40755 0.0
C1599 C 0.24014 0.42786 0.40859 0.0
C1600 C 0.29627 0.44889 0.40612 0.0
C1601 C 0.3017 0.47965 0.40631 0.0
C1602 C 0.27578 0.48412 0.40753 0.0
C1603 C 0.2454 0.45856 0.40852 0.0
C1604 C 0.3342 0.50684 0.40453 0.0
C1605 C 0.34024 0.53042 0.391 0.0
C1606 C 0.3596 0.50879 0.41528 0.0
C1607 C 0.35503 0.48685 0.43122 0.0
C1608 C 0.33428 0.48225 0.44639 0.0
C1609 C 0.32987 0.4614 0.4613 0.0
C1610 C 0.34624 0.44514 0.46127 0.0
C1611 C 0.36711 0.44977 0.44635 0.0
C1612 C 0.37159 0.47059 0.4314 0.0
C1613 C 0.47074 0.63481 0.39429 0.0
C1614 C 0.49275 0.62624 0.38847 0.0
C1615 C 0.43933 0.61217 0.39696 0.0
C1616 C 0.42915 0.5804 0.39394 0.0
C1617 C 0.45089 0.57185 0.38785 0.0
C1618 C 0.4821 0.59439 0.38499 0.0
C1619 C 0.39612 0.5558 0.39747 0.0
C1620 C 0.39009 0.53279 0.41134 0.0
C1621 C 0.37072 0.55481 0.38738 0.0
C1622 C 0.37536 0.5783 0.37253 0.0
C1623 C 0.39456 0.58311 0.35644 0.0
C1624 C 0.399 0.60552 0.34261 0.0
C1625 C 0.38418 0.62312 0.34464 0.0
C1626 C 0.3648 0.61827 0.36049 0.0
C1627 C 0.36031 0.5959 0.37437 0.0
H1628 H 0.38765 0.64047 0.33392 0.0
H1629 H 0.34278 0.429 0.47281 0.0
H1630 H 0.93039 0.50663 0.9086 0.0
H1631 H 0.91894 0.45328 0.91477 0.0
H1632 H 0.83937 0.41824 0.87672 0.0
H1633 H 0.85023 0.47146 0.87084 0.0
H1634 H 0.8252 0.38371 0.90912 0.0
H1635 H 0.90727 0.42228 0.86214 0.0
H1636 H 0.95899 0.45874 0.8489 0.0
H1637 H 1.00262 0.44204 0.89764 0.0
H1638 H 0.9511 0.40579 0.91131 0.0
H1639 H 0.79626 0.23087 0.89198 0.0
H1640 H 0.80813 0.28468 0.89023 0.0
H1641 H 0.89029 0.31318 0.92513 0.0
H1642 H 0.87909 0.25903 0.92639 0.0
H1643 H 0.90403 0.3519 0.89654 0.0
H1644 H 0.82108 0.31067 0.94272 0.0
H1645 H 0.76902 0.2739 0.9554 0.0
H1646 H 0.72655 0.29519 0.90802 0.0
H1647 H 0.77836 0.33183 0.89491 0.0
C1648 C 0.9103 0.48759 0.90164 0.0
C1649 C 0.89133 0.4935 0.88914 0.0
C1650 C 0.90392 0.45704 0.90507 0.0
C1651 C 0.87843 0.43159 0.89607 0.0
C1652 C 0.85921 0.43739 0.88381 0.0
C1653 C 0.86564 0.46792 0.88032 0.0
C1654 C 0.8718 0.39897 0.89936 0.0
C1655 C 0.84234 0.37668 0.90619 0.0
C1656 C 0.89435 0.38982 0.89604 0.0
C1657 C 0.92533 0.4116 0.88785 0.0
C1658 C 0.92789 0.42659 0.87011 0.0
C1659 C 0.95717 0.44718 0.86252 0.0
C1660 C 0.98408 0.45278 0.87245 0.0
C1661 C 0.98175 0.43773 0.88998 0.0
C1662 C 0.95252 0.41715 0.89765 0.0
C1663 C 0.81674 0.24839 0.89951 0.0
C1664 C 0.83661 0.24033 0.90944 0.0
C1665 C 0.82343 0.27935 0.89856 0.0
C1666 C 0.84985 0.30322 0.90783 0.0
C1667 C 0.86967 0.29529 0.9179 0.0
C1668 C 0.86316 0.26423 0.91869 0.0
C1669 C 0.8573 0.33644 0.90625 0.0
C1670 C 0.88692 0.35889 0.89968 0.0
C1671 C 0.83485 0.34572 0.90981 0.0
C1672 C 0.80364 0.32385 0.91776 0.0
C1673 C 0.80064 0.30738 0.93494 0.0
C1674 C 0.77117 0.28658 0.94221 0.0
C1675 C 0.74449 0.28217 0.9325 0.0
C1676 C 0.74723 0.29863 0.91552 0.0
C1677 C 0.77665 0.31945 0.90818 0.0
H1678 H 0.7217 0.26605 0.93815 0.0
H1679 H 1.00672 0.46871 0.86654 0.0
H1680 H 0.15795 0.29064 0.34097 0.0
H1681 H 0.16622 0.29594 0.30611 0.0
H1682 H 0.19262 0.39309 0.31016 0.0
H1683 H 0.18193 0.38698 0.34522 0.0
H1684 H 0.16532 0.37395 0.27798 0.0
H1685 H 0.24779 0.36496 0.30572 0.0
H1686 H 0.27348 0.34343 0.32609 0.0
H1687 H 0.22877 0.25796 0.29362 0.0
H1688 H 0.20245 0.27879 0.27322 0.0
H1689 H 0.23906 0.38282 0.18139 0.0
H1690 H 0.23869 0.39046 0.21679 0.0
H1691 H 0.15896 0.2986 0.22204 0.0
H1692 H 0.1586 0.29133 0.187 0.0
H1693 H 0.22256 0.32507 0.24929 0.0
H1694 H 0.13474 0.338 0.22506 0.0
H1695 H 0.11431 0.36523 0.20516 0.0
H1696 H 0.17952 0.4523 0.23163 0.0
H1697 H 0.20069 0.42561 0.25144 0.0
C1698 C 0.16515 0.31306 0.33439 0.0
C1699 C 0.16943 0.33843 0.3458 0.0
C1700 C 0.1703 0.31623 0.31442 0.0
C1701 C 0.18134 0.34526 0.30536 0.0
C1702 C 0.18449 0.37047 0.31668 0.0
C1703 C 0.17833 0.36701 0.33672 0.0
C1704 C 0.18958 0.34885 0.28421 0.0
C1705 C 0.17829 0.36365 0.27188 0.0
C1706 C 0.207 0.33599 0.27589 0.0
C1707 C 0.22299 0.3234 0.28801 0.0
C1708 C 0.24331 0.34151 0.30298 0.0
C1709 C 0.25799 0.32943 0.31453 0.0
C1710 C 0.25272 0.29933 0.31117 0.0
C1711 C 0.23282 0.28127 0.29621 0.0
C1712 C 0.21805 0.29322 0.28463 0.0
C1713 C 0.22172 0.36424 0.19018 0.0
C1714 C 0.19892 0.33645 0.18145 0.0
C1715 C 0.22137 0.36868 0.21034 0.0
C1716 C 0.1986 0.34516 0.22202 0.0
C1717 C 0.17658 0.31712 0.21332 0.0
C1718 C 0.17647 0.31299 0.19328 0.0
C1719 C 0.19735 0.34905 0.24335 0.0
C1720 C 0.21003 0.3357 0.25562 0.0
C1721 C 0.18208 0.36399 0.25163 0.0
C1722 C 0.16959 0.3799 0.23949 0.0
C1723 C 0.14502 0.363 0.22642 0.0
C1724 C 0.13322 0.37832 0.21522 0.0
C1725 C 0.14564 0.41048 0.21712 0.0
C1726 C 0.16995 0.4274 0.23016 0.0
C1727 C 0.18186 0.4122 0.24136 0.0
H1728 H 0.13635 0.42229 0.20855 0.0
H1729 H 0.2641 0.29002 0.32014 0.0
H1730 H 0.84387 0.21478 0.68455 0.0
H1731 H 0.83579 0.21142 0.71984 0.0
H1732 H 0.89177 0.16719 0.72527 0.0
H1733 H 0.8981 0.16896 0.6902 0.0
H1734 H 0.84408 0.13576 0.74491 0.0
H1735 H 0.9142 0.24662 0.74085 0.0
H1736 H 0.93201 0.30005 0.72944 0.0
H1737 H 0.84954 0.29599 0.75233 0.0
H1738 H 0.83106 0.24236 0.76367 0.0
H1739 H 0.88924 0.15857 0.84359 0.0
H1740 H 0.88822 0.16518 0.80858 0.0
H1741 H 0.80459 0.17093 0.81417 0.0
H1742 H 0.80517 0.16358 0.84949 0.0
H1743 H 0.85804 0.22054 0.78948 0.0
H1744 H 0.79194 0.10981 0.79631 0.0
H1745 H 0.77822 0.05787 0.80872 0.0
H1746 H 0.85852 0.06384 0.78101 0.0
H1747 H 0.87301 0.11607 0.7687 0.0
C1748 C 0.85497 0.20504 0.69343 0.0
C1749 C 0.87185 0.19239 0.68473 0.0
C1750 C 0.85034 0.20305 0.71362 0.0
C1751 C 0.86317 0.18903 0.72548 0.0
C1752 C 0.88126 0.17781 0.71665 0.0
C1753 C 0.88518 0.17911 0.69657 0.0
C1754 C 0.85667 0.18418 0.74683 0.0
C1755 C 0.84746 0.15454 0.75456 0.0
C1756 C 0.85997 0.20814 0.75965 0.0
C1757 C 0.87109 0.24037 0.7529 0.0
C1758 C 0.89976 0.25705 0.74332 0.0
C1759 C 0.90999 0.28738 0.73689 0.0
C1760 C 0.89187 0.30137 0.7401 0.0
C1761 C 0.86352 0.2851 0.74982 0.0
C1762 C 0.85317 0.25475 0.75626 0.0
C1763 C 0.87045 0.16099 0.83739 0.0
C1764 C 0.84711 0.16028 0.84929 0.0
C1765 C 0.86996 0.16486 0.81736 0.0
C1766 C 0.84641 0.16865 0.80872 0.0
C1767 C 0.82304 0.16813 0.82054 0.0
C1768 C 0.82321 0.16364 0.84067 0.0
C1769 C 0.84647 0.1726 0.7873 0.0
C1770 C 0.8544 0.20189 0.77964 0.0
C1771 C 0.84253 0.14853 0.77451 0.0
C1772 C 0.83368 0.11696 0.78171 0.0
C1773 C 0.80681 0.10016 0.79299 0.0
C1774 C 0.79887 0.07064 0.79999 0.0
C1775 C 0.81752 0.05759 0.79569 0.0
C1776 C 0.84411 0.07399 0.78434 0.0
C1777 C 0.85217 0.10354 0.77733 0.0
H1778 H 0.81134 0.03474 0.80112 0.0
H1779 H 0.89982 0.32485 0.73511 0.0
H1780 H 0.68221 0.89708 0.18085 0.0
H1781 H 0.67495 0.89137 0.21627 0.0
H1782 H 0.70124 0.82039 0.21572 0.0
H1783 H 0.70928 0.82658 0.18073 0.0
H1784 H 0.64732 0.80605 0.23968 0.0
H1785 H 0.7537 0.8881 0.22815 0.0
H1786 H 0.79308 0.93814 0.2142 0.0
H1787 H 0.75309 0.98547 0.24469 0.0
H1788 H 0.71316 0.93558 0.25859 0.0
H1789 H 0.68354 0.79589 0.33881 0.0
H1790 H 0.68047 0.7985 0.30342 0.0
H1791 H 0.68606 0.88813 0.30872 0.0
H1792 H 0.69109 0.88627 0.34378 0.0
H1793 H 0.72073 0.89344 0.28165 0.0
H1794 H 0.61632 0.81484 0.29493 0.0
H1795 H 0.57426 0.76591 0.30845 0.0
H1796 H 0.60531 0.71345 0.27485 0.0
H1797 H 0.64785 0.76211 0.26132 0.0
C1798 C 0.68614 0.8801 0.18831 0.0
C1799 C 0.6964 0.86235 0.17802 0.0
C1800 C 0.68203 0.87686 0.20853 0.0
C1801 C 0.68753 0.85539 0.2187 0.0
C1802 C 0.69671 0.83697 0.20826 0.0
C1803 C 0.70143 0.84066 0.18823 0.0
C1804 C 0.68555 0.85309 0.2403 0.0
C1805 C 0.66341 0.82507 0.24891 0.0
C1806 C 0.70602 0.87809 0.25238 0.0
C1807 C 0.73025 0.90809 0.24423 0.0
C1808 C 0.75315 0.90915 0.23175 0.0
C1809 C 0.7756 0.93748 0.22388 0.0
C1810 C 0.77553 0.96495 0.22851 0.0
C1811 C 0.75308 0.96416 0.24109 0.0
C1812 C 0.73055 0.93587 0.24897 0.0
C1813 C 0.68369 0.8159 0.33237 0.0
C1814 C 0.68748 0.84083 0.34407 0.0
C1815 C 0.6818 0.8174 0.31208 0.0
C1816 C 0.68269 0.84344 0.3031 0.0
C1817 C 0.68552 0.86783 0.31501 0.0
C1818 C 0.68818 0.86667 0.33515 0.0
C1819 C 0.68224 0.84624 0.28139 0.0
C1820 C 0.70416 0.87437 0.27264 0.0
C1821 C 0.66108 0.82149 0.26923 0.0
C1822 C 0.63545 0.79216 0.27725 0.0
C1823 C 0.61431 0.79288 0.29052 0.0
C1824 C 0.59037 0.76519 0.29818 0.0
C1825 C 0.58717 0.73659 0.29255 0.0
C1826 C 0.60785 0.73562 0.27922 0.0
C1827 C 0.63186 0.76325 0.27154 0.0
H1828 H 0.56862 0.71518 0.2985 0.0
H1829 H 0.79292 0.98686 0.22239 0.0
H1830 H 0.80132 0.67155 0.68627 0.0
H1831 H 0.80276 0.6668 0.72172 0.0
H1832 H 0.90062 0.69706 0.71898 0.0
H1833 H 0.89954 0.70289 0.68378 0.0
H1834 H 0.85867 0.6409 0.74553 0.0
H1835 H 0.89006 0.74926 0.73035 0.0
H1836 H 0.88109 0.78848 0.71414 0.0
H1837 H 0.79466 0.75466 0.74443 0.0
H1838 H 0.80291 0.71486 0.76057 0.0
H1839 H 0.9071 0.68202 0.8442 0.0
H1840 H 0.90156 0.67709 0.80879 0.0
H1841 H 0.82216 0.69086 0.81196 0.0
H1842 H 0.82909 0.69782 0.84693 0.0
H1843 H 0.85287 0.72235 0.78434 0.0
H1844 H 0.81943 0.61702 0.80135 0.0
H1845 H 0.82296 0.57418 0.81708 0.0
H1846 H 0.90429 0.59587 0.78376 0.0
H1847 H 0.9016 0.63921 0.76805 0.0
C1848 C 0.82303 0.67689 0.69324 0.0
C1849 C 0.85035 0.68772 0.68228 0.0
C1850 C 0.82383 0.67411 0.71346 0.0
C1851 C 0.8518 0.68144 0.723 0.0
C1852 C 0.87877 0.69107 0.71195 0.0
C1853 C 0.87814 0.69455 0.69185 0.0
C1854 C 0.85363 0.6816 0.74458 0.0
C1855 C 0.85763 0.65878 0.75409 0.0
C1856 C 0.85141 0.70439 0.75575 0.0
C1857 C 0.84694 0.7289 0.7465 0.0
C1858 C 0.86904 0.75005 0.73345 0.0
C1859 C 0.8641 0.7724 0.72428 0.0
C1860 C 0.83727 0.774 0.7282 0.0
C1861 C 0.81541 0.75335 0.74138 0.0
C1862 C 0.82021 0.73091 0.75055 0.0
C1863 C 0.88834 0.68368 0.83727 0.0
C1864 C 0.86855 0.69032 0.8483 0.0
C1865 C 0.88502 0.6807 0.817 0.0
C1866 C 0.86117 0.68328 0.80743 0.0
C1867 C 0.84091 0.68899 0.81871 0.0
C1868 C 0.84477 0.69279 0.8388 0.0
C1869 C 0.85788 0.68144 0.78573 0.0
C1870 C 0.8537 0.70414 0.77604 0.0
C1871 C 0.85911 0.65797 0.7745 0.0
C1872 C 0.86049 0.63157 0.78365 0.0
C1873 C 0.83818 0.61277 0.79744 0.0
C1874 C 0.84002 0.58839 0.80636 0.0
C1875 C 0.86387 0.58236 0.80145 0.0
C1876 C 0.88586 0.60061 0.78756 0.0
C1877 C 0.88418 0.62507 0.77864 0.0
H1878 H 0.86529 0.56351 0.8084 0.0
H1879 H 0.83345 0.79126 0.72106 0.0
H1880 H 0.14121 0.791 0.18342 0.0
H1881 H 0.14767 0.79104 0.21886 0.0
H1882 H 0.21789 0.88811 0.21708 0.0
H1883 H 0.211 0.88837 0.18203 0.0
H1884 H 0.23283 0.8504 0.24237 0.0
H1885 H 0.14986 0.87313 0.22861 0.0
H1886 H 0.0998 0.86159 0.21393 0.0
H1887 H 0.05322 0.77567 0.24541 0.0
H1888 H 0.10313 0.78652 0.26005 0.0
H1889 H 0.23942 0.89977 0.341 0.0
H1890 H 0.23847 0.89301 0.30567 0.0
H1891 H 0.14984 0.80835 0.31013 0.0
H1892 H 0.14996 0.81634 0.34497 0.0
H1893 H 0.14448 0.83714 0.28279 0.0
H1894 H 0.22433 0.81319 0.29831 0.0
H1895 H 0.27346 0.82164 0.31285 0.0
H1896 H 0.32475 0.90393 0.27856 0.0
H1897 H 0.27588 0.89622 0.264 0.0
C1898 C 0.15822 0.81218 0.19061 0.0
C1899 C 0.1755 0.83971 0.17999 0.0
C1900 C 0.1619 0.81222 0.21083 0.0
C1901 C 0.18331 0.83963 0.22065 0.0
C1902 C 0.20138 0.86669 0.20987 0.0
C1903 C 0.19728 0.86682 0.18983 0.0
C1904 C 0.18552 0.84101 0.24224 0.0
C1905 C 0.2136 0.84761 0.25127 0.0
C1906 C 0.16028 0.83679 0.25387 0.0
C1907 C 0.13026 0.83046 0.24525 0.0
C1908 C 0.12898 0.85166 0.23227 0.0
C1909 C 0.10063 0.84527 0.22398 0.0
C1910 C 0.07336 0.81787 0.22869 0.0
C1911 C 0.07437 0.79686 0.24175 0.0
C1912 C 0.10268 0.80312 0.25005 0.0
C1913 C 0.22005 0.87954 0.33438 0.0
C1914 C 0.19478 0.85858 0.3457 0.0
C1915 C 0.21949 0.87555 0.31415 0.0
C1916 C 0.19411 0.84995 0.30497 0.0
C1917 C 0.16958 0.82845 0.31659 0.0
C1918 C 0.16976 0.83291 0.33659 0.0
C1919 C 0.19187 0.84623 0.28331 0.0
C1920 C 0.16376 0.83948 0.27412 0.0
C1921 C 0.21694 0.84971 0.27162 0.0
C1922 C 0.24641 0.85428 0.2802 0.0
C1923 C 0.24607 0.8332 0.29396 0.0
C1924 C 0.27387 0.83784 0.3022 0.0
C1925 C 0.3022 0.86335 0.29667 0.0
C1926 C 0.30279 0.88421 0.28284 0.0
C1927 C 0.27505 0.8797 0.27458 0.0
H1928 H 0.32369 0.86692 0.30308 0.0
H1929 H 0.05143 0.81295 0.22225 0.0
H1930 H 0.3711 0.23905 0.84397 0.0
H1931 H 0.37482 0.2385 0.80828 0.0
H1932 H 0.32195 0.13816 0.80852 0.0
H1933 H 0.31804 0.13857 0.84362 0.0
H1934 H 0.39764 0.21023 0.78151 0.0
H1935 H 0.26941 0.11369 0.77258 0.0
H1936 H 0.21946 0.09419 0.78963 0.0
H1937 H 0.25083 0.18502 0.81393 0.0
H1938 H 0.30082 0.20518 0.79681 0.0
H1939 H 0.3684 0.14401 0.68504 0.0
H1940 H 0.37324 0.15244 0.72038 0.0
H1941 H 0.31677 0.19624 0.71701 0.0
H1942 H 0.31158 0.18753 0.68214 0.0
H1943 H 0.29746 0.15731 0.74564 0.0
H1944 H 0.39706 0.23869 0.7243 0.0
H1945 H 0.44737 0.26062 0.70737 0.0
H1946 H 0.47346 0.20604 0.74276 0.0
H1947 H 0.42317 0.18352 0.75978 0.0
C1948 C 0.36053 0.21696 0.83635 0.0
C1949 C 0.34409 0.18889 0.84662 0.0
C1950 C 0.36274 0.21663 0.81599 0.0
C1951 C 0.34837 0.18825 0.80564 0.0
C1952 C 0.3329 0.16035 0.81606 0.0
C1953 C 0.3307 0.16067 0.8362 0.0
C1954 C 0.34779 0.18718 0.78398 0.0
C1955 C 0.37577 0.19878 0.77364 0.0
C1956 C 0.31929 0.1725 0.7736 0.0
C1957 C 0.28895 0.16086 0.78352 0.0
C1958 C 0.26558 0.12955 0.78146 0.0
C1959 C 0.23728 0.11837 0.79116 0.0
C1960 C 0.23202 0.13833 0.8029 0.0
C1961 C 0.25498 0.16957 0.80488 0.0
C1962 C 0.28331 0.18087 0.7952 0.0
C1963 C 0.35712 0.15547 0.6919 0.0
C1964 C 0.33956 0.16503 0.68079 0.0
C1965 C 0.36001 0.16045 0.71208 0.0
C1966 C 0.34552 0.1752 0.72149 0.0
C1967 C 0.32812 0.18476 0.71026 0.0
C1968 C 0.32522 0.17978 0.69024 0.0
C1969 C 0.34733 0.17996 0.74301 0.0
C1970 C 0.31944 0.1689 0.7534 0.0
C1971 C 0.37592 0.19554 0.75331 0.0
C1972 C 0.40624 0.20921 0.7432 0.0
C1973 C 0.41344 0.2312 0.72839 0.0
C1974 C 0.44196 0.24377 0.71879 0.0
C1975 C 0.46354 0.23466 0.72394 0.0
C1976 C 0.4567 0.21304 0.73876 0.0
C1977 C 0.42822 0.2004 0.74841 0.0
H1978 H 0.4856 0.2444 0.71648 0.0
H1979 H 0.21016 0.12957 0.81047 0.0
H1980 H 0.30729 0.20928 0.94824 0.0
H1981 H 0.28078 0.2158 0.97663 0.0
H1982 H 0.36033 0.30658 0.98717 0.0
H1983 H 0.38665 0.29985 0.95948 0.0
H1984 H 0.33962 0.27875 0.02025 0.0
H1985 H 0.29005 0.29084 0.96151 0.0
H1986 H 0.25947 0.2698 0.93145 0.0
H1987 H 0.184 0.19862 0.96402 0.0
H1988 H 0.21433 0.21889 0.99423 0.0
H1989 H 0.30277 0.37894 0.06628 0.0
H1990 H 0.3112 0.35159 0.03966 0.0
H1991 H 0.22615 0.26784 0.05385 0.0
H1992 H 0.2175 0.29554 0.08087 0.0
H1993 H 0.24027 0.27885 1.01126 0.0
H1994 H 0.28497 0.26781 0.06965 0.0
H1995 H 0.31424 0.28503 0.10036 0.0
H1996 H 0.39636 0.34953 0.06954 0.0
H1997 H 0.3675 0.33285 0.03861 0.0
C1998 C 0.31929 0.23022 0.95695 0.0
C1999 C 0.34916 0.25399 0.95163 0.0
C2000 C 0.30398 0.23416 0.97305 0.0
C2001 C 0.31825 0.26199 0.98403 0.0
C2002 C 0.34859 0.28492 0.97909 0.0
C2003 C 0.36372 0.28101 0.96318 0.0
C2004 C 0.30216 0.26849 1.00036 0.0
C2005 C 0.31789 0.27871 0.01818 0.0
C2006 C 0.27309 0.26742 0.99819 0.0
C2007 C 0.25461 0.25612 0.98009 0.0
C2008 C 0.26698 0.27063 0.96224 0.0
C2009 C 0.24971 0.25882 0.94518 0.0
C2010 C 0.2199 0.23276 0.94583 0.0
C2011 C 0.20715 0.2187 0.96355 0.0
C2012 C 0.22437 0.23032 0.98063 0.0
C2013 C 0.28533 0.35492 0.06347 0.0
C2014 C 0.25944 0.33949 0.07571 0.0
C2015 C 0.29027 0.33923 0.04824 0.0
C2016 C 0.26958 0.30749 0.04481 0.0
C2017 C 0.24246 0.29234 0.05616 0.0
C2018 C 0.23744 0.30822 0.07155 0.0
C2019 C 0.2786 0.29032 0.03065 0.0
C2020 C 0.26168 0.27826 1.01336 0.0
C2021 C 0.30641 0.28923 0.03331 0.0
C2022 C 0.32401 0.29921 0.05183 0.0
C2023 C 0.30922 0.28581 0.06943 0.0
C2024 C 0.32573 0.29545 0.08688 0.0
C2025 C 0.3571 0.31843 0.08691 0.0
C2026 C 0.37205 0.33174 0.06948 0.0
C2027 C 0.35564 0.32214 0.05198 0.0
H2028 H 0.36985 0.32588 0.10044 0.0
H2029 H 0.20665 0.2234 0.93263 0.0
H2030 H 0.12419 0.36386 0.46695 0.0
H2031 H 0.09007 0.3419 0.49516 0.0
H2032 H 0.03742 0.25463 0.46465 0.0
H2033 H 0.07073 0.27711 0.43634 0.0
H2034 H 0.9986 0.2677 0.47838 0.0
H2035 H 0.08515 0.26577 0.50692 0.0
H2036 H 0.13947 0.2861 0.51746 0.0
H2037 H 0.13316 0.35261 0.55447 0.0
H2038 H 0.07891 0.33295 0.54395 0.0
H2039 H 0.94487 0.21026 0.58527 0.0
H2040 H 0.98083 0.22304 0.55812 0.0
H2041 H 0.94643 0.28007 0.53334 0.0
H2042 H 0.91046 0.26748 0.56061 0.0
H2043 H 0.02859 0.27773 0.54767 0.0
H2044 H 0.95285 0.27981 0.48363 0.0
H2045 H 0.89828 0.25129 0.47245 0.0
H2046 H 0.88252 0.17177 0.50592 0.0
H2047 H 0.93704 0.19965 0.51712 0.0
C2048 C 0.10617 0.33959 0.46664 0.0
C2049 C 0.10074 0.32191 0.44964 0.0
C2050 C 0.08639 0.32702 0.48275 0.0
C2051 C 0.06087 0.29637 0.48228 0.0
C2052 C 0.05664 0.2783 0.46556 0.0
C2053 C 0.07608 0.29099 0.44944 0.0
C2054 C 0.03716 0.28392 0.49833 0.0
C2055 C 1.00535 0.26999 0.49351 0.0
C2056 C 0.0454 0.28608 0.51821 0.0
C2057 C 0.07806 0.29808 0.5245 0.0
C2058 C 0.09543 0.2849 0.51718 0.0
C2059 C 0.12619 0.29627 0.52318 0.0
C2060 C 0.13978 0.32068 0.53658 0.0
C2061 C 0.12261 0.33373 0.54406 0.0
C2062 C 0.09185 0.32246 0.5381 0.0
C2063 C 0.94453 0.22513 0.5739 0.0
C2064 C 0.92461 0.2378 0.57518 0.0
C2065 C 0.96537 0.23264 0.5584 0.0
C2066 C 0.96661 0.25264 0.54356 0.0
C2067 C 0.94592 0.26441 0.54444 0.0
C2068 C 0.92525 0.25714 0.56007 0.0
C2069 C 0.99028 0.26214 0.52765 0.0
C2070 C 0.022 0.27556 0.53251 0.0
C2071 C 0.98194 0.25869 0.50778 0.0
C2072 C 0.94894 0.24201 0.50142 0.0
C2073 C 0.93772 0.25625 0.48862 0.0
C2074 C 0.90681 0.24019 0.48227 0.0
C2075 C 0.88691 0.20979 0.48854 0.0
C2076 C 0.8979 0.19538 0.50116 0.0
C2077 C 0.92879 0.21134 0.50756 0.0
H2078 H 0.86302 0.19737 0.48356 0.0
H2079 H 0.1636 0.32944 0.54121 0.0
H2080 H 0.74029 0.92914 0.0794 0.0
H2081 H 0.76697 0.96614 0.05285 0.0
H2082 H 0.68021 0.96022 0.03628 0.0
H2083 H 0.654 0.92416 0.06277 0.0
H2084 H 0.71059 0.96229 1.0048 0.0
H2085 H 0.73319 0.01914 0.06385 0.0
H2086 H 0.7534 0.03892 0.09658 0.0
H2087 H 0.84619 0.06751 0.07759 0.0
H2088 H 0.82644 0.04725 0.04477 0.0
H2089 H 0.73967 0.10137 0.96253 0.0
H2090 H 0.73055 0.06439 0.98836 0.0
H2091 H 0.82022 0.07304 0.97792 0.0
H2092 H 0.82965 0.11063 0.95174 0.0
H2093 H 0.7969 0.06803 0.02092 0.0
H2094 H 0.76728 0.01669 0.95811 0.0
H2095 H 0.74107 1.00915 0.92649 0.0
H2096 H 0.65353 0.97661 0.95501 0.0
H2097 H 0.67921 0.98484 0.98682 0.0
C2098 C 0.72685 0.93521 0.06982 0.0
C2099 C 0.69494 0.92357 0.07321 0.0
C2100 C 0.74218 0.95665 0.05471 0.0
C2101 C 0.72579 0.96645 0.04253 0.0
C2102 C 0.69358 0.95324 0.04531 0.0
C2103 C 0.67851 0.93241 0.06048 0.0
C2104 C 0.74169 0.99126 0.0274 0.0
C2105 C 0.72967 0.98526 1.00839 0.0
C2106 C 0.76665 0.02155 0.03182 0.0
C2107 C 0.77826 0.0312 0.05191 0.0
C2108 C 0.75782 0.02904 0.06672 0.0
C2109 C 0.76922 0.04053 0.08526 0.0
C2110 C 0.80107 0.05465 0.0891 0.0
C2111 C 0.82153 0.0567 0.07454 0.0
C2112 C 0.81024 0.0451 0.05599 0.0
C2113 C 0.7579 0.0961 0.96597 0.0
C2114 C 0.78531 0.10888 0.95491 0.0
C2115 C 0.75256 0.0748 0.98077 0.0
C2116 C 0.77445 0.06551 0.98499 0.0
C2117 C 0.80293 0.0798 0.97494 0.0
C2118 C 0.80834 0.10133 0.95997 0.0
C2119 C 0.76568 0.03887 0.9986 0.0
C2120 C 0.77875 0.04462 0.01726 0.0
C2121 C 0.74099 1.00862 0.99409 0.0
C2122 C 0.72526 1.00163 0.9749 0.0
C2123 C 0.74249 1.00818 0.95766 0.0
C2124 C 0.72778 1.00396 0.93971 0.0
C2125 C 0.69577 0.99269 0.93876 0.0
C2126 C 0.67835 0.98544 0.95577 0.0
C2127 C 0.69297 0.98989 0.97377 0.0
H2128 H 0.68443 0.98931 0.92484 0.0
H2129 H 0.80989 0.06401 0.10337 0.0
H2130 H 0.81344 0.69031 0.56521 0.0
H2131 H 0.80548 0.71319 0.53542 0.0
H2132 H 0.74367 0.73562 0.5665 0.0
H2133 H 0.75062 0.71234 0.59549 0.0
H2134 H 0.71714 0.7096 0.53451 0.0
H2135 H 0.82046 0.79011 0.55211 0.0
H2136 H 0.876 0.81067 0.55952 0.0
H2137 H 0.89059 0.78604 0.50241 0.0
H2138 H 0.83491 0.76436 0.49482 0.0
H2139 H 0.69123 0.79779 0.46346 0.0
H2140 H 0.71066 0.78694 0.49371 0.0
H2141 H 0.76937 0.76279 0.46053 0.0
H2142 H 0.75044 0.77384 0.43067 0.0
H2143 H 0.79883 0.7903 0.49306 0.0
H2144 H 0.69668 0.70681 0.47635 0.0
H2145 H 0.64085 0.68334 0.46857 0.0
H2146 H 0.62464 0.71265 0.52382 0.0
H2147 H 0.68049 0.73667 0.53182 0.0
C2148 C 0.79847 0.70045 0.56564 0.0
C2149 C 0.78259 0.69929 0.58277 0.0
C2150 C 0.7939 0.71359 0.54861 0.0
C2151 C 0.77377 0.72621 0.54853 0.0
C2152 C 0.75898 0.72587 0.56589 0.0
C2153 C 0.76318 0.71257 0.5826 0.0
C2154 C 0.76657 0.73871 0.53055 0.0
C2155 C 0.73516 0.7276 0.52568 0.0
C2156 C 0.78979 0.76168 0.51852 0.0
C2157 C 0.8234 0.77528 0.52296 0.0
C2158 C 0.83544 0.78884 0.54117 0.0
C2159 C 0.86696 0.80072 0.5454 0.0
C2160 C 0.88681 0.79969 0.53145 0.0
C2161 C 0.87518 0.78678 0.51321 0.0
C2162 C 0.84362 0.77463 0.50895 0.0
C2163 C 0.70888 0.791 0.46271 0.0
C2164 C 0.71911 0.78651 0.44465 0.0
C2165 C 0.71981 0.78447 0.48 0.0
C2166 C 0.74117 0.77337 0.47953 0.0
C2167 C 0.75288 0.77109 0.46148 0.0
C2168 C 0.7419 0.77737 0.44435 0.0
C2169 C 0.74946 0.76159 0.49739 0.0
C2170 C 0.78094 0.77257 0.50209 0.0
C2171 C 0.72636 0.73839 0.50931 0.0
C2172 C 0.69278 0.72382 0.50459 0.0
C2173 C 0.68123 0.70843 0.48678 0.0
C2174 C 0.64959 0.69501 0.48234 0.0
C2175 C 0.62923 0.69658 0.49567 0.0
C2176 C 0.64045 0.7115 0.5135 0.0
C2177 C 0.67209 0.72502 0.51799 0.0
H2178 H 0.60474 0.68617 0.49221 0.0
H2179 H 0.91121 0.80893 0.53477 0.0
H2180 H 0.93684 0.64691 0.9601 0.0
H2181 H 0.96909 0.67039 0.98862 0.0
H2182 H 0.96636 0.75501 0.97865 0.0
H2183 H 0.93401 0.73131 0.94949 0.0
H2184 H 0.0251 0.76852 0.98641 0.0
H2185 H 0.92976 0.70917 0.0187 0.0
H2186 H 0.87899 0.66368 0.02665 0.0
H2187 H 0.9241 0.61199 0.0426 0.0
H2188 H 0.97512 0.65702 0.0345 0.0
H2189 H 0.11048 0.81591 0.07972 0.0
H2190 H 0.07329 0.80613 0.05311 0.0
H2191 H 0.06382 0.71565 0.0437 0.0
H2192 H 0.10078 0.72538 0.06974 0.0
H2193 H 1.00693 0.71237 0.04855 0.0
H2194 H 0.10217 0.77544 1.00981 0.0
H2195 H 0.15096 0.82438 1.00334 0.0
H2196 H 0.10116 0.87485 1.00352 0.0
H2197 H 0.05216 0.82621 1.01014 0.0
C2198 C 0.94245 0.6703 0.96417 0.0
C2199 C 0.93247 0.68704 0.95261 0.0
C2200 C 0.96098 0.68378 0.98059 0.0
C2201 C 0.97019 0.71454 0.9861 0.0
C2202 C 0.95964 0.73125 0.97483 0.0
C2203 C 0.94079 0.71757 0.95829 0.0
C2204 C 0.99216 0.72908 1.00294 0.0
C2205 C 1.02059 0.75676 1.0002 0.0
C2206 C 0.98688 0.71371 0.02102 0.0
C2207 C 0.95627 0.68644 0.02586 0.0
C2208 C 0.92884 0.68802 0.02375 0.0
C2209 C 0.90002 0.66233 0.02832 0.0
C2210 C 0.89831 0.63494 0.03509 0.0
C2211 C 0.92545 0.63322 0.03735 0.0
C2212 C 0.95434 0.65884 0.0328 0.0
C2213 C 0.10113 0.79438 0.07156 0.0
C2214 C 0.10872 0.77148 0.07682 0.0
C2215 C 0.07962 0.78865 0.05646 0.0
C2216 C 0.0653 0.75989 0.04646 0.0
C2217 C 0.07414 0.73784 0.05122 0.0
C2218 C 0.09555 0.74357 0.06608 0.0
C2219 C 0.03995 0.75139 0.03176 0.0
C2220 C 1.01093 0.72467 0.03494 0.0
C2221 C 0.04427 0.76827 0.01445 0.0
C2222 C 0.07365 0.79732 1.01052 0.0
C2223 C 0.10172 0.79703 1.00855 0.0
C2224 C 0.12937 0.82468 1.00484 0.0
C2225 C 0.12917 0.85271 1.00304 0.0
C2226 C 0.1013 0.85314 1.00495 0.0
C2227 C 0.0736 0.82556 1.00867 0.0
H2228 H 0.15059 0.87409 1.00014 0.0
H2229 H 0.87597 0.61508 0.03862 0.0
H2230 H 0.2179 0.93705 0.44044 0.0
H2231 H 0.22482 0.97189 0.46804 0.0
H2232 H 0.2987 0.95849 0.49017 0.0
H2233 H 0.29231 0.92454 0.46272 0.0
H2234 H 0.25809 0.95655 0.51926 0.0
H2235 H 0.31231 0.01986 0.46249 0.0
H2236 H 0.31627 0.04268 0.43018 0.0
H2237 H 0.25806 0.07929 0.4487 0.0
H2238 H 0.25301 0.05596 0.48095 0.0
H2239 H 0.36552 0.07215 0.57678 0.0
H2240 H 0.34049 0.04071 0.54821 0.0
H2241 H 0.28119 0.08121 0.54411 0.0
H2242 H 0.30674 0.11338 0.57317 0.0
H2243 H 0.30082 0.06926 0.50674 0.0
H2244 H 0.24859 0.01373 0.56227 0.0
H2245 H 0.24274 0.99453 0.59576 0.0
H2246 H 0.28955 0.94405 0.58079 0.0
H2247 H 0.29607 0.96331 0.54723 0.0
C2248 C 0.23498 0.9409 0.45151 0.0
C2249 C 0.25428 0.92766 0.44957 0.0
C2250 C 0.23919 0.96113 0.46714 0.0
C2251 C 0.26248 0.96811 0.48118 0.0
C2252 C 0.28058 0.95359 0.47963 0.0
C2253 C 0.2768 0.934 0.46395 0.0
C2254 C 0.26933 0.9912 0.49722 0.0
C2255 C 0.26733 0.98115 0.51646 0.0
C2256 C 0.28008 0.02327 0.49382 0.0
C2257 C 0.28196 0.0358 0.47408 0.0
C2258 C 0.2999 0.0323 0.45958 0.0
C2259 C 0.30244 0.04543 0.44129 0.0
C2260 C 0.28752 0.06251 0.43744 0.0
C2261 C 0.2697 0.06616 0.45175 0.0
C2262 C 0.26687 0.05286 0.46999 0.0
C2263 C 0.34766 0.07506 0.56959 0.0
C2264 C 0.33816 0.09533 0.57729 0.0
C2265 C 0.33319 0.05683 0.55326 0.0
C2266 C 0.30846 0.05798 0.54416 0.0
C2267 C 0.30013 0.07977 0.55093 0.0
C2268 C 0.31488 0.09832 0.56745 0.0
C2269 C 0.29066 0.03462 0.52857 0.0
C2270 C 0.29074 0.04454 0.50953 0.0
C2271 C 0.27714 1.00227 0.53214 0.0
C2272 C 0.27297 0.99012 0.55223 0.0
C2273 C 0.25781 0.99868 0.56613 0.0
C2274 C 0.25435 0.98777 0.58513 0.0
C2275 C 0.26582 0.96812 0.59041 0.0
C2276 C 0.28068 0.95927 0.57667 0.0
C2277 C 0.28421 0.97014 0.55764 0.0
H2278 H 0.26315 0.95973 0.60513 0.0
H2279 H 0.28984 0.07306 0.4234 0.0
loop_
_geom_bond_atom_site_label_1
_geom_bond_atom_site_label_2
_geom_bond_distance
_geom_bond_site_symmetry_2
_ccdc_geom_bond_type
Nd0 C2 2.836 . S
Nd0 O20 2.500 . S
Nd0 O21 2.492 . S
Nd0 O22 2.487 . S
Nd0 O23 2.682 . S
Nd0 O24 2.410 . S
Nd0 O29 2.414 . S
Nd0 O31 2.424 . S
Nd1 C11 2.836 . S
Nd1 O23 2.414 . S
Nd1 O25 2.424 . S
Nd1 O26 2.500 . S
Nd1 O27 2.492 . S
Nd1 O28 2.487 . S
Nd1 O29 2.682 . S
Nd1 O30 2.410 . S
C2 Nd0 2.836 . S
C2 C3 1.498 . S
C2 O20 1.258 . S
C2 O21 1.239 . S
C3 C2 1.498 . S
C3 C4 1.366 . S
C3 C8 1.407 . S
C4 C3 1.366 . S
C4 C5 1.392 . S
C4 H32 0.930 . S
C5 C4 1.392 . S
C5 C6 1.398 . S
C5 H33 0.929 . S
C6 C5 1.398 . S
C6 C7 1.352 . S
C7 C6 1.352 . S
C7 C8 1.384 . S
C7 H34 0.930 . S
C8 C3 1.407 . S
C8 C7 1.384 . S
C8 H35 0.929 . S
C9 O22 1.241 . S
C9 O23 1.273 . S
C10 O24 1.251 . S
C10 O25 1.268 . S
C11 Nd1 2.836 . S
C11 C12 1.498 . S
C11 O26 1.258 . S
C11 O27 1.239 . S
C12 C11 1.498 . S
C12 C13 1.366 . S
C12 C17 1.407 . S
C13 C12 1.366 . S
C13 C14 1.392 . S
C13 H36 0.930 . S
C14 C13 1.392 . S
C14 C15 1.398 . S
C14 H37 0.929 . S
C15 C14 1.398 . S
C15 C16 1.352 . S
C16 C15 1.352 . S
C16 C17 1.384 . S
C16 H38 0.930 . S
C17 C12 1.407 . S
C17 C16 1.384 . S
C17 H39 0.929 . S
C18 O28 1.241 . S
C18 O29 1.273 . S
C19 O30 1.251 . S
C19 O31 1.268 . S
O20 Nd0 2.500 . S
O20 C2 1.258 . S
O21 Nd0 2.492 . S
O21 C2 1.239 . S
O22 Nd0 2.487 . S
O22 C9 1.241 . S
O23 Nd0 2.682 . S
O23 Nd1 2.414 . S
O23 C9 1.273 . S
O24 Nd0 2.410 . S
O24 C10 1.251 . S
O25 Nd1 2.424 . S
O25 C10 1.268 . S
O26 Nd1 2.500 . S
O26 C11 1.258 . S
O27 Nd1 2.492 . S
O27 C11 1.239 . S
O28 Nd1 2.487 . S
O28 C18 1.241 . S
O29 Nd0 2.414 . S
O29 Nd1 2.682 . S
O29 C18 1.273 . S
O30 Nd1 2.410 . S
O30 C19 1.251 . S
O31 Nd0 2.424 . S
O31 C19 1.268 . S
H32 C4 0.930 . S
H33 C5 0.929 . S
H34 C7 0.930 . S
H35 C8 0.929 . S
H36 C13 0.930 . S
H37 C14 0.929 . S
H38 C16 0.930 . S
H39 C17 0.929 . S
Nd40 C42 2.836 . S
Nd40 O60 2.500 . S
Nd40 O61 2.492 . S
Nd40 O62 2.487 . S
Nd40 O63 2.682 . S
Nd40 O64 2.410 . S
Nd40 O69 2.414 . S
Nd40 O71 2.424 . S
Nd41 C51 2.836 . S
Nd41 O63 2.414 . S
Nd41 O65 2.424 . S
Nd41 O66 2.500 . S
Nd41 O67 2.492 . S
Nd41 O68 2.487 . S
Nd41 O69 2.682 . S
Nd41 O70 2.410 . S
C42 Nd40 2.836 . S
C42 C43 1.498 . S
C42 O60 1.258 . S
C42 O61 1.239 . S
C43 C42 1.498 . S
C43 C44 1.366 . S
C43 C48 1.407 . S
C44 C43 1.366 . S
C44 C45 1.392 . S
C44 H72 0.930 . S
C45 C44 1.392 . S
C45 C46 1.398 . S
C45 H73 0.929 . S
C46 C45 1.398 . S
C46 C47 1.352 . S
C47 C46 1.352 . S
C47 C48 1.384 . S
C47 H74 0.930 . S
C48 C43 1.407 . S
C48 C47 1.384 . S
C48 H75 0.929 . S
C49 O62 1.241 . S
C49 O63 1.273 . S
C50 O64 1.251 . S
C50 O65 1.268 . S
C51 Nd41 2.836 . S
C51 C52 1.498 . S
C51 O66 1.258 . S
C51 O67 1.239 . S
C52 C51 1.498 . S
C52 C53 1.366 . S
C52 C57 1.407 . S
C53 C52 1.366 . S
C53 C54 1.392 . S
C53 H76 0.930 . S
C54 C53 1.392 . S
C54 C55 1.398 . S
C54 H77 0.929 . S
C55 C54 1.398 . S
C55 C56 1.352 . S
C56 C55 1.352 . S
C56 C57 1.384 . S
C56 H78 0.930 . S
C57 C52 1.407 . S
C57 C56 1.384 . S
C57 H79 0.929 . S
C58 O68 1.241 . S
C58 O69 1.273 . S
C59 O70 1.251 . S
C59 O71 1.268 . S
O60 Nd40 2.500 . S
O60 C42 1.258 . S
O61 Nd40 2.492 . S
O61 C42 1.239 . S
O62 Nd40 2.487 . S
O62 C49 1.241 . S
O63 Nd40 2.682 . S
O63 Nd41 2.414 . S
O63 C49 1.273 . S
O64 Nd40 2.410 . S
O64 C50 1.251 . S
O65 Nd41 2.424 . S
O65 C50 1.268 . S
O66 Nd41 2.500 . S
O66 C51 1.258 . S
O67 Nd41 2.492 . S
O67 C51 1.239 . S
O68 Nd41 2.487 . S
O68 C58 1.241 . S
O69 Nd40 2.414 . S
O69 Nd41 2.682 . S
O69 C58 1.273 . S
O70 Nd41 2.410 . S
O70 C59 1.251 . S
O71 Nd40 2.424 . S
O71 C59 1.268 . S
H72 C44 0.930 . S
H73 C45 0.929 . S
H74 C47 0.930 . S
H75 C48 0.929 . S
H76 C53 0.930 . S
H77 C54 0.929 . S
H78 C56 0.930 . S
H79 C57 0.929 . S
Nd80 C82 2.836 . S
Nd80 O100 2.500 . S
Nd80 O101 2.492 . S
Nd80 O102 2.487 . S
Nd80 O103 2.682 . S
Nd80 O104 2.410 . S
Nd80 O109 2.414 . S
Nd80 O111 2.424 . S
Nd81 C91 2.836 . S
Nd81 O103 2.414 . S
Nd81 O105 2.424 . S
Nd81 O106 2.500 . S
Nd81 O107 2.492 . S
Nd81 O108 2.487 . S
Nd81 O109 2.682 . S
Nd81 O110 2.410 . S
C82 Nd80 2.836 . S
C82 C83 1.498 . S
C82 O100 1.258 . S
C82 O101 1.239 . S
C83 C82 1.498 . S
C83 C84 1.366 . S
C83 C88 1.407 . S
C84 C83 1.366 . S
C84 C85 1.392 . S
C84 H112 0.930 . S
C85 C84 1.392 . S
C85 C86 1.398 . S
C85 H113 0.929 . S
C86 C85 1.398 . S
C86 C87 1.352 . S
C87 C86 1.352 . S
C87 C88 1.384 . S
C87 H114 0.930 . S
C88 C83 1.407 . S
C88 C87 1.384 . S
C88 H115 0.929 . S
C89 O102 1.241 . S
C89 O103 1.273 . S
C90 O104 1.251 . S
C90 O105 1.268 . S
C91 Nd81 2.836 . S
C91 C92 1.498 . S
C91 O106 1.258 . S
C91 O107 1.239 . S
C92 C91 1.498 . S
C92 C93 1.366 . S
C92 C97 1.407 . S
C93 C92 1.366 . S
C93 C94 1.392 . S
C93 H116 0.930 . S
C94 C93 1.392 . S
C94 C95 1.398 . S
C94 H117 0.929 . S
C95 C94 1.398 . S
C95 C96 1.352 . S
C96 C95 1.352 . S
C96 C97 1.384 . S
C96 H118 0.930 . S
C97 C92 1.407 . S
C97 C96 1.384 . S
C97 H119 0.929 . S
C98 O108 1.241 . S
C98 O109 1.273 . S
C99 O110 1.251 . S
C99 O111 1.268 . S
O100 Nd80 2.500 . S
O100 C82 1.258 . S
O101 Nd80 2.492 . S
O101 C82 1.239 . S
O102 Nd80 2.487 . S
O102 C89 1.241 . S
O103 Nd80 2.682 . S
O103 Nd81 2.414 . S
O103 C89 1.273 . S
O104 Nd80 2.410 . S
O104 C90 1.251 . S
O105 Nd81 2.424 . S
O105 C90 1.268 . S
O106 Nd81 2.500 . S
O106 C91 1.258 . S
O107 Nd81 2.492 . S
O107 C91 1.239 . S
O108 Nd81 2.487 . S
O108 C98 1.241 . S
O109 Nd80 2.414 . S
O109 Nd81 2.682 . S
O109 C98 1.273 . S
O110 Nd81 2.410 . S
O110 C99 1.251 . S
O111 Nd80 2.424 . S
O111 C99 1.268 . S
H112 C84 0.930 . S
H113 C85 0.929 . S
H114 C87 0.930 . S
H115 C88 0.929 . S
H116 C93 0.930 . S
H117 C94 0.929 . S
H118 C96 0.930 . S
H119 C97 0.929 . S
Nd120 C122 2.836 . S
Nd120 O140 2.500 . S
Nd120 O141 2.492 . S
Nd120 O142 2.487 . S
Nd120 O143 2.682 . S
Nd120 O144 2.410 . S
Nd120 O149 2.414 . S
Nd120 O151 2.424 . S
Nd121 C131 2.836 . S
Nd121 O143 2.414 . S
Nd121 O145 2.424 . S
Nd121 O146 2.500 . S
Nd121 O147 2.492 . S
Nd121 O148 2.487 . S
Nd121 O149 2.682 . S
Nd121 O150 2.410 . S
C122 Nd120 2.836 . S
C122 C123 1.498 . S
C122 O140 1.258 . S
C122 O141 1.239 . S
C123 C122 1.498 . S
C123 C124 1.366 . S
C123 C128 1.407 . S
C124 C123 1.366 . S
C124 C125 1.392 . S
C124 H152 0.930 . S
C125 C124 1.392 . S
C125 C126 1.398 . S
C125 H153 0.929 . S
C126 C125 1.398 . S
C126 C127 1.352 . S
C127 C126 1.352 . S
C127 C128 1.384 . S
C127 H154 0.930 . S
C128 C123 1.407 . S
C128 C127 1.384 . S
C128 H155 0.929 . S
C129 O142 1.241 . S
C129 O143 1.273 . S
C130 O144 1.251 . S
C130 O145 1.268 . S
C131 Nd121 2.836 . S
C131 C132 1.498 . S
C131 O146 1.258 . S
C131 O147 1.239 . S
C132 C131 1.498 . S
C132 C133 1.366 . S
C132 C137 1.407 . S
C133 C132 1.366 . S
C133 C134 1.392 . S
C133 H156 0.930 . S
C134 C133 1.392 . S
C134 C135 1.398 . S
C134 H157 0.929 . S
C135 C134 1.398 . S
C135 C136 1.352 . S
C136 C135 1.352 . S
C136 C137 1.384 . S
C136 H158 0.930 . S
C137 C132 1.407 . S
C137 C136 1.384 . S
C137 H159 0.929 . S
C138 O148 1.241 . S
C138 O149 1.273 . S
C139 O150 1.251 . S
C139 O151 1.268 . S
O140 Nd120 2.500 . S
O140 C122 1.258 . S
O141 Nd120 2.492 . S
O141 C122 1.239 . S
O142 Nd120 2.487 . S
O142 C129 1.241 . S
O143 Nd120 2.682 . S
O143 Nd121 2.414 . S
O143 C129 1.273 . S
O144 Nd120 2.410 . S
O144 C130 1.251 . S
O145 Nd121 2.424 . S
O145 C130 1.268 . S
O146 Nd121 2.500 . S
O146 C131 1.258 . S
O147 Nd121 2.492 . S
O147 C131 1.239 . S
O148 Nd121 2.487 . S
O148 C138 1.241 . S
O149 Nd120 2.414 . S
O149 Nd121 2.682 . S
O149 C138 1.273 . S
O150 Nd121 2.410 . S
O150 C139 1.251 . S
O151 Nd120 2.424 . S
O151 C139 1.268 . S
H152 C124 0.930 . S
H153 C125 0.929 . S
H154 C127 0.930 . S
H155 C128 0.929 . S
H156 C133 0.930 . S
H157 C134 0.929 . S
H158 C136 0.930 . S
H159 C137 0.929 . S
Nd160 C162 2.836 . S
Nd160 O180 2.500 . S
Nd160 O181 2.492 . S
Nd160 O182 2.487 . S
Nd160 O183 2.682 . S
Nd160 O184 2.410 . S
Nd160 O189 2.414 . S
Nd160 O191 2.424 . S
Nd161 C171 2.836 . S
Nd161 O183 2.414 . S
Nd161 O185 2.424 . S
Nd161 O186 2.500 . S
Nd161 O187 2.492 . S
Nd161 O188 2.487 . S
Nd161 O189 2.682 . S
Nd161 O190 2.410 . S
C162 Nd160 2.836 . S
C162 C163 1.498 . S
C162 O180 1.258 . S
C162 O181 1.239 . S
C163 C162 1.498 . S
C163 C164 1.366 . S
C163 C168 1.407 . S
C164 C163 1.366 . S
C164 C165 1.392 . S
C164 H192 0.930 . S
C165 C164 1.392 . S
C165 C166 1.398 . S
C165 H193 0.929 . S
C166 C165 1.398 . S
C166 C167 1.352 . S
C167 C166 1.352 . S
C167 C168 1.384 . S
C167 H194 0.930 . S
C168 C163 1.407 . S
C168 C167 1.384 . S
C168 H195 0.929 . S
C169 O182 1.241 . S
C169 O183 1.273 . S
C170 O184 1.251 . S
C170 O185 1.268 . S
C171 Nd161 2.836 . S
C171 C172 1.498 . S
C171 O186 1.258 . S
C171 O187 1.239 . S
C172 C171 1.498 . S
C172 C173 1.366 . S
C172 C177 1.407 . S
C173 C172 1.366 . S
C173 C174 1.392 . S
C173 H196 0.930 . S
C174 C173 1.392 . S
C174 C175 1.398 . S
C174 H197 0.929 . S
C175 C174 1.398 . S
C175 C176 1.352 . S
C176 C175 1.352 . S
C176 C177 1.384 . S
C176 H198 0.930 . S
C177 C172 1.407 . S
C177 C176 1.384 . S
C177 H199 0.929 . S
C178 O188 1.241 . S
C178 O189 1.273 . S
C179 O190 1.251 . S
C179 O191 1.268 . S
O180 Nd160 2.500 . S
O180 C162 1.258 . S
O181 Nd160 2.492 . S
O181 C162 1.239 . S
O182 Nd160 2.487 . S
O182 C169 1.241 . S
O183 Nd160 2.682 . S
O183 Nd161 2.414 . S
O183 C169 1.273 . S
O184 Nd160 2.410 . S
O184 C170 1.251 . S
O185 Nd161 2.424 . S
O185 C170 1.268 . S
O186 Nd161 2.500 . S
O186 C171 1.258 . S
O187 Nd161 2.492 . S
O187 C171 1.239 . S
O188 Nd161 2.487 . S
O188 C178 1.241 . S
O189 Nd160 2.414 . S
O189 Nd161 2.682 . S
O189 C178 1.273 . S
O190 Nd161 2.410 . S
O190 C179 1.251 . S
O191 Nd160 2.424 . S
O191 C179 1.268 . S
H192 C164 0.930 . S
H193 C165 0.929 . S
H194 C167 0.930 . S
H195 C168 0.929 . S
H196 C173 0.930 . S
H197 C174 0.929 . S
H198 C176 0.930 . S
H199 C177 0.929 . S
Nd200 C202 2.836 . S
Nd200 O220 2.500 . S
Nd200 O221 2.492 . S
Nd200 O222 2.487 . S
Nd200 O223 2.682 . S
Nd200 O224 2.410 . S
Nd200 O229 2.414 . S
Nd200 O231 2.424 . S
Nd201 C211 2.836 . S
Nd201 O223 2.414 . S
Nd201 O225 2.424 . S
Nd201 O226 2.500 . S
Nd201 O227 2.492 . S
Nd201 O228 2.487 . S
Nd201 O229 2.682 . S
Nd201 O230 2.410 . S
C202 Nd200 2.836 . S
C202 C203 1.498 . S
C202 O220 1.258 . S
C202 O221 1.239 . S
C203 C202 1.498 . S
C203 C204 1.366 . S
C203 C208 1.407 . S
C204 C203 1.366 . S
C204 C205 1.392 . S
C204 H232 0.930 . S
C205 C204 1.392 . S
C205 C206 1.398 . S
C205 H233 0.929 . S
C206 C205 1.398 . S
C206 C207 1.352 . S
C207 C206 1.352 . S
C207 C208 1.384 . S
C207 H234 0.930 . S
C208 C203 1.407 . S
C208 C207 1.384 . S
C208 H235 0.929 . S
C209 O222 1.241 . S
C209 O223 1.273 . S
C210 O224 1.251 . S
C210 O225 1.268 . S
C211 Nd201 2.836 . S
C211 C212 1.498 . S
C211 O226 1.258 . S
C211 O227 1.239 . S
C212 C211 1.498 . S
C212 C213 1.366 . S
C212 C217 1.407 . S
C213 C212 1.366 . S
C213 C214 1.392 . S
C213 H236 0.930 . S
C214 C213 1.392 . S
C214 C215 1.398 . S
C214 H237 0.929 . S
C215 C214 1.398 . S
C215 C216 1.352 . S
C216 C215 1.352 . S
C216 C217 1.384 . S
C216 H238 0.930 . S
C217 C212 1.407 . S
C217 C216 1.384 . S
C217 H239 0.929 . S
C218 O228 1.241 . S
C218 O229 1.273 . S
C219 O230 1.251 . S
C219 O231 1.268 . S
O220 Nd200 2.500 . S
O220 C202 1.258 . S
O221 Nd200 2.492 . S
O221 C202 1.239 . S
O222 Nd200 2.487 . S
O222 C209 1.241 . S
O223 Nd200 2.682 . S
O223 Nd201 2.414 . S
O223 C209 1.273 . S
O224 Nd200 2.410 . S
O224 C210 1.251 . S
O225 Nd201 2.424 . S
O225 C210 1.268 . S
O226 Nd201 2.500 . S
O226 C211 1.258 . S
O227 Nd201 2.492 . S
O227 C211 1.239 . S
O228 Nd201 2.487 . S
O228 C218 1.241 . S
O229 Nd200 2.414 . S
O229 Nd201 2.682 . S
O229 C218 1.273 . S
O230 Nd201 2.410 . S
O230 C219 1.251 . S
O231 Nd200 2.424 . S
O231 C219 1.268 . S
H232 C204 0.930 . S
H233 C205 0.929 . S
H234 C207 0.930 . S
H235 C208 0.929 . S
H236 C213 0.930 . S
H237 C214 0.929 . S
H238 C216 0.930 . S
H239 C217 0.929 . S
Nd240 C242 2.836 . S
Nd240 O260 2.500 . S
Nd240 O261 2.492 . S
Nd240 O262 2.487 . S
Nd240 O263 2.682 . S
Nd240 O264 2.410 . S
Nd240 O269 2.414 . S
Nd240 O271 2.424 . S
Nd241 C251 2.836 . S
Nd241 O263 2.414 . S
Nd241 O265 2.424 . S
Nd241 O266 2.500 . S
Nd241 O267 2.492 . S
Nd241 O268 2.487 . S
Nd241 O269 2.682 . S
Nd241 O270 2.410 . S
C242 Nd240 2.836 . S
C242 C243 1.498 . S
C242 O260 1.258 . S
C242 O261 1.239 . S
C243 C242 1.498 . S
C243 C244 1.366 . S
C243 C248 1.407 . S
C244 C243 1.366 . S
C244 C245 1.392 . S
C244 H272 0.930 . S
C245 C244 1.392 . S
C245 C246 1.398 . S
C245 H273 0.929 . S
C246 C245 1.398 . S
C246 C247 1.352 . S
C247 C246 1.352 . S
C247 C248 1.384 . S
C247 H274 0.930 . S
C248 C243 1.407 . S
C248 C247 1.384 . S
C248 H275 0.929 . S
C249 O262 1.241 . S
C249 O263 1.273 . S
C250 O264 1.251 . S
C250 O265 1.268 . S
C251 Nd241 2.836 . S
C251 C252 1.498 . S
C251 O266 1.258 . S
C251 O267 1.239 . S
C252 C251 1.498 . S
C252 C253 1.366 . S
C252 C257 1.407 . S
C253 C252 1.366 . S
C253 C254 1.392 . S
C253 H276 0.930 . S
C254 C253 1.392 . S
C254 C255 1.398 . S
C254 H277 0.929 . S
C255 C254 1.398 . S
C255 C256 1.352 . S
C256 C255 1.352 . S
C256 C257 1.384 . S
C256 H278 0.930 . S
C257 C252 1.407 . S
C257 C256 1.384 . S
C257 H279 0.929 . S
C258 O268 1.241 . S
C258 O269 1.273 . S
C259 O270 1.251 . S
C259 O271 1.268 . S
O260 Nd240 2.500 . S
O260 C242 1.258 . S
O261 Nd240 2.492 . S
O261 C242 1.239 . S
O262 Nd240 2.487 . S
O262 C249 1.241 . S
O263 Nd240 2.682 . S
O263 Nd241 2.414 . S
O263 C249 1.273 . S
O264 Nd240 2.410 . S
O264 C250 1.251 . S
O265 Nd241 2.424 . S
O265 C250 1.268 . S
O266 Nd241 2.500 . S
O266 C251 1.258 . S
O267 Nd241 2.492 . S
O267 C251 1.239 . S
O268 Nd241 2.487 . S
O268 C258 1.241 . S
O269 Nd240 2.414 . S
O269 Nd241 2.682 . S
O269 C258 1.273 . S
O270 Nd241 2.410 . S
O270 C259 1.251 . S
O271 Nd240 2.424 . S
O271 C259 1.268 . S
H272 C244 0.930 . S
H273 C245 0.929 . S
H274 C247 0.930 . S
H275 C248 0.929 . S
H276 C253 0.930 . S
H277 C254 0.929 . S
H278 C256 0.930 . S
H279 C257 0.929 . S
Nd280 C282 2.836 . S
Nd280 O300 2.500 . S
Nd280 O301 2.492 . S
Nd280 O302 2.487 . S
Nd280 O303 2.682 . S
Nd280 O304 2.410 . S
Nd280 O309 2.414 . S
Nd280 O311 2.424 . S
Nd281 C291 2.836 . S
Nd281 O303 2.414 . S
Nd281 O305 2.424 . S
Nd281 O306 2.500 . S
Nd281 O307 2.492 . S
Nd281 O308 2.487 . S
Nd281 O309 2.682 . S
Nd281 O310 2.410 . S
C282 Nd280 2.836 . S
C282 C283 1.498 . S
C282 O300 1.258 . S
C282 O301 1.239 . S
C283 C282 1.498 . S
C283 C284 1.366 . S
C283 C288 1.407 . S
C284 C283 1.366 . S
C284 C285 1.392 . S
C284 H312 0.930 . S
C285 C284 1.392 . S
C285 C286 1.398 . S
C285 H313 0.929 . S
C286 C285 1.398 . S
C286 C287 1.352 . S
C287 C286 1.352 . S
C287 C288 1.384 . S
C287 H314 0.930 . S
C288 C283 1.407 . S
C288 C287 1.384 . S
C288 H315 0.929 . S
C289 O302 1.241 . S
C289 O303 1.273 . S
C290 O304 1.251 . S
C290 O305 1.268 . S
C291 Nd281 2.836 . S
C291 C292 1.498 . S
C291 O306 1.258 . S
C291 O307 1.239 . S
C292 C291 1.498 . S
C292 C293 1.366 . S
C292 C297 1.407 . S
C293 C292 1.366 . S
C293 C294 1.392 . S
C293 H316 0.930 . S
C294 C293 1.392 . S
C294 C295 1.398 . S
C294 H317 0.929 . S
C295 C294 1.398 . S
C295 C296 1.352 . S
C296 C295 1.352 . S
C296 C297 1.384 . S
C296 H318 0.930 . S
C297 C292 1.407 . S
C297 C296 1.384 . S
C297 H319 0.929 . S
C298 O308 1.241 . S
C298 O309 1.273 . S
C299 O310 1.251 . S
C299 O311 1.268 . S
O300 Nd280 2.500 . S
O300 C282 1.258 . S
O301 Nd280 2.492 . S
O301 C282 1.239 . S
O302 Nd280 2.487 . S
O302 C289 1.241 . S
O303 Nd280 2.682 . S
O303 Nd281 2.414 . S
O303 C289 1.273 . S
O304 Nd280 2.410 . S
O304 C290 1.251 . S
O305 Nd281 2.424 . S
O305 C290 1.268 . S
O306 Nd281 2.500 . S
O306 C291 1.258 . S
O307 Nd281 2.492 . S
O307 C291 1.239 . S
O308 Nd281 2.487 . S
O308 C298 1.241 . S
O309 Nd280 2.414 . S
O309 Nd281 2.682 . S
O309 C298 1.273 . S
O310 Nd281 2.410 . S
O310 C299 1.251 . S
O311 Nd280 2.424 . S
O311 C299 1.268 . S
H312 C284 0.930 . S
H313 C285 0.929 . S
H314 C287 0.930 . S
H315 C288 0.929 . S
H316 C293 0.930 . S
H317 C294 0.929 . S
H318 C296 0.930 . S
H319 C297 0.929 . S
Nd320 C322 2.836 . S
Nd320 O340 2.500 . S
Nd320 O341 2.492 . S
Nd320 O342 2.487 . S
Nd320 O343 2.682 . S
Nd320 O344 2.410 . S
Nd320 O349 2.414 . S
Nd320 O351 2.424 . S
Nd321 C331 2.836 . S
Nd321 O343 2.414 . S
Nd321 O345 2.424 . S
Nd321 O346 2.500 . S
Nd321 O347 2.492 . S
Nd321 O348 2.487 . S
Nd321 O349 2.682 . S
Nd321 O350 2.410 . S
C322 Nd320 2.836 . S
C322 C323 1.498 . S
C322 O340 1.258 . S
C322 O341 1.239 . S
C323 C322 1.498 . S
C323 C324 1.366 . S
C323 C328 1.407 . S
C324 C323 1.366 . S
C324 C325 1.392 . S
C324 H352 0.930 . S
C325 C324 1.392 . S
C325 C326 1.398 . S
C325 H353 0.929 . S
C326 C325 1.398 . S
C326 C327 1.352 . S
C327 C326 1.352 . S
C327 C328 1.384 . S
C327 H354 0.930 . S
C328 C323 1.407 . S
C328 C327 1.384 . S
C328 H355 0.929 . S
C329 O342 1.241 . S
C329 O343 1.273 . S
C330 O344 1.251 . S
C330 O345 1.268 . S
C331 Nd321 2.836 . S
C331 C332 1.498 . S
C331 O346 1.258 . S
C331 O347 1.239 . S
C332 C331 1.498 . S
C332 C333 1.366 . S
C332 C337 1.407 . S
C333 C332 1.366 . S
C333 C334 1.392 . S
C333 H356 0.930 . S
C334 C333 1.392 . S
C334 C335 1.398 . S
C334 H357 0.929 . S
C335 C334 1.398 . S
C335 C336 1.352 . S
C336 C335 1.352 . S
C336 C337 1.384 . S
C336 H358 0.930 . S
C337 C332 1.407 . S
C337 C336 1.384 . S
C337 H359 0.929 . S
C338 O348 1.241 . S
C338 O349 1.273 . S
C339 O350 1.251 . S
C339 O351 1.268 . S
O340 Nd320 2.500 . S
O340 C322 1.258 . S
O341 Nd320 2.492 . S
O341 C322 1.239 . S
O342 Nd320 2.487 . S
O342 C329 1.241 . S
O343 Nd320 2.682 . S
O343 Nd321 2.414 . S
O343 C329 1.273 . S
O344 Nd320 2.410 . S
O344 C330 1.251 . S
O345 Nd321 2.424 . S
O345 C330 1.268 . S
O346 Nd321 2.500 . S
O346 C331 1.258 . S
O347 Nd321 2.492 . S
O347 C331 1.239 . S
O348 Nd321 2.487 . S
O348 C338 1.241 . S
O349 Nd320 2.414 . S
O349 Nd321 2.682 . S
O349 C338 1.273 . S
O350 Nd321 2.410 . S
O350 C339 1.251 . S
O351 Nd320 2.424 . S
O351 C339 1.268 . S
H352 C324 0.930 . S
H353 C325 0.929 . S
H354 C327 0.930 . S
H355 C328 0.929 . S
H356 C333 0.930 . S
H357 C334 0.929 . S
H358 C336 0.930 . S
H359 C337 0.929 . S
Nd360 C362 2.836 . S
Nd360 O380 2.500 . S
Nd360 O381 2.492 . S
Nd360 O382 2.487 . S
Nd360 O383 2.682 . S
Nd360 O384 2.410 . S
Nd360 O389 2.414 . S
Nd360 O391 2.424 . S
Nd361 C371 2.836 . S
Nd361 O383 2.414 . S
Nd361 O385 2.424 . S
Nd361 O386 2.500 . S
Nd361 O387 2.492 . S
Nd361 O388 2.487 . S
Nd361 O389 2.682 . S
Nd361 O390 2.410 . S
C362 Nd360 2.836 . S
C362 C363 1.498 . S
C362 O380 1.258 . S
C362 O381 1.239 . S
C363 C362 1.498 . S
C363 C364 1.366 . S
C363 C368 1.407 . S
C364 C363 1.366 . S
C364 C365 1.392 . S
C364 H392 0.930 . S
C365 C364 1.392 . S
C365 C366 1.398 . S
C365 H393 0.929 . S
C366 C365 1.398 . S
C366 C367 1.352 . S
C367 C366 1.352 . S
C367 C368 1.384 . S
C367 H394 0.930 . S
C368 C363 1.407 . S
C368 C367 1.384 . S
C368 H395 0.929 . S
C369 O382 1.241 . S
C369 O383 1.273 . S
C370 O384 1.251 . S
C370 O385 1.268 . S
C371 Nd361 2.836 . S
C371 C372 1.498 . S
C371 O386 1.258 . S
C371 O387 1.239 . S
C372 C371 1.498 . S
C372 C373 1.366 . S
C372 C377 1.407 . S
C373 C372 1.366 . S
C373 C374 1.392 . S
C373 H396 0.930 . S
C374 C373 1.392 . S
C374 C375 1.398 . S
C374 H397 0.929 . S
C375 C374 1.398 . S
C375 C376 1.352 . S
C376 C375 1.352 . S
C376 C377 1.384 . S
C376 H398 0.930 . S
C377 C372 1.407 . S
C377 C376 1.384 . S
C377 H399 0.929 . S
C378 O388 1.241 . S
C378 O389 1.273 . S
C379 O390 1.251 . S
C379 O391 1.268 . S
O380 Nd360 2.500 . S
O380 C362 1.258 . S
O381 Nd360 2.492 . S
O381 C362 1.239 . S
O382 Nd360 2.487 . S
O382 C369 1.241 . S
O383 Nd360 2.682 . S
O383 Nd361 2.414 . S
O383 C369 1.273 . S
O384 Nd360 2.410 . S
O384 C370 1.251 . S
O385 Nd361 2.424 . S
O385 C370 1.268 . S
O386 Nd361 2.500 . S
O386 C371 1.258 . S
O387 Nd361 2.492 . S
O387 C371 1.239 . S
O388 Nd361 2.487 . S
O388 C378 1.241 . S
O389 Nd360 2.414 . S
O389 Nd361 2.682 . S
O389 C378 1.273 . S
O390 Nd361 2.410 . S
O390 C379 1.251 . S
O391 Nd360 2.424 . S
O391 C379 1.268 . S
H392 C364 0.930 . S
H393 C365 0.929 . S
H394 C367 0.930 . S
H395 C368 0.929 . S
H396 C373 0.930 . S
H397 C374 0.929 . S
H398 C376 0.930 . S
H399 C377 0.929 . S
Nd400 C402 2.836 . S
Nd400 O420 2.500 . S
Nd400 O421 2.492 . S
Nd400 O422 2.487 . S
Nd400 O423 2.682 . S
Nd400 O424 2.410 . S
Nd400 O429 2.414 . S
Nd400 O431 2.424 . S
Nd401 C411 2.836 . S
Nd401 O423 2.414 . S
Nd401 O425 2.424 . S
Nd401 O426 2.500 . S
Nd401 O427 2.492 . S
Nd401 O428 2.487 . S
Nd401 O429 2.682 . S
Nd401 O430 2.410 . S
C402 Nd400 2.836 . S
C402 C403 1.498 . S
C402 O420 1.258 . S
C402 O421 1.239 . S
C403 C402 1.498 . S
C403 C404 1.366 . S
C403 C408 1.407 . S
C404 C403 1.366 . S
C404 C405 1.392 . S
C404 H432 0.930 . S
C405 C404 1.392 . S
C405 C406 1.398 . S
C405 H433 0.929 . S
C406 C405 1.398 . S
C406 C407 1.352 . S
C407 C406 1.352 . S
C407 C408 1.384 . S
C407 H434 0.930 . S
C408 C403 1.407 . S
C408 C407 1.384 . S
C408 H435 0.929 . S
C409 O422 1.241 . S
C409 O423 1.273 . S
C410 O424 1.251 . S
C410 O425 1.268 . S
C411 Nd401 2.836 . S
C411 C412 1.498 . S
C411 O426 1.258 . S
C411 O427 1.239 . S
C412 C411 1.498 . S
C412 C413 1.366 . S
C412 C417 1.407 . S
C413 C412 1.366 . S
C413 C414 1.392 . S
C413 H436 0.930 . S
C414 C413 1.392 . S
C414 C415 1.398 . S
C414 H437 0.929 . S
C415 C414 1.398 . S
C415 C416 1.352 . S
C416 C415 1.352 . S
C416 C417 1.384 . S
C416 H438 0.930 . S
C417 C412 1.407 . S
C417 C416 1.384 . S
C417 H439 0.929 . S
C418 O428 1.241 . S
C418 O429 1.273 . S
C419 O430 1.251 . S
C419 O431 1.268 . S
O420 Nd400 2.500 . S
O420 C402 1.258 . S
O421 Nd400 2.492 . S
O421 C402 1.239 . S
O422 Nd400 2.487 . S
O422 C409 1.241 . S
O423 Nd400 2.682 . S
O423 Nd401 2.414 . S
O423 C409 1.273 . S
O424 Nd400 2.410 . S
O424 C410 1.251 . S
O425 Nd401 2.424 . S
O425 C410 1.268 . S
O426 Nd401 2.500 . S
O426 C411 1.258 . S
O427 Nd401 2.492 . S
O427 C411 1.239 . S
O428 Nd401 2.487 . S
O428 C418 1.241 . S
O429 Nd400 2.414 . S
O429 Nd401 2.682 . S
O429 C418 1.273 . S
O430 Nd401 2.410 . S
O430 C419 1.251 . S
O431 Nd400 2.424 . S
O431 C419 1.268 . S
H432 C404 0.930 . S
H433 C405 0.929 . S
H434 C407 0.930 . S
H435 C408 0.929 . S
H436 C413 0.930 . S
H437 C414 0.929 . S
H438 C416 0.930 . S
H439 C417 0.929 . S
Nd440 C442 2.836 . S
Nd440 O460 2.500 . S
Nd440 O461 2.492 . S
Nd440 O462 2.487 . S
Nd440 O463 2.682 . S
Nd440 O464 2.410 . S
Nd440 O469 2.414 . S
Nd440 O471 2.424 . S
Nd441 C451 2.836 . S
Nd441 O463 2.414 . S
Nd441 O465 2.424 . S
Nd441 O466 2.500 . S
Nd441 O467 2.492 . S
Nd441 O468 2.487 . S
Nd441 O469 2.682 . S
Nd441 O470 2.410 . S
C442 Nd440 2.836 . S
C442 C443 1.498 . S
C442 O460 1.258 . S
C442 O461 1.239 . S
C443 C442 1.498 . S
C443 C444 1.366 . S
C443 C448 1.407 . S
C444 C443 1.366 . S
C444 C445 1.392 . S
C444 H472 0.930 . S
C445 C444 1.392 . S
C445 C446 1.398 . S
C445 H473 0.929 . S
C446 C445 1.398 . S
C446 C447 1.352 . S
C447 C446 1.352 . S
C447 C448 1.384 . S
C447 H474 0.930 . S
C448 C443 1.407 . S
C448 C447 1.384 . S
C448 H475 0.929 . S
C449 O462 1.241 . S
C449 O463 1.273 . S
C450 O464 1.251 . S
C450 O465 1.268 . S
C451 Nd441 2.836 . S
C451 C452 1.498 . S
C451 O466 1.258 . S
C451 O467 1.239 . S
C452 C451 1.498 . S
C452 C453 1.366 . S
C452 C457 1.407 . S
C453 C452 1.366 . S
C453 C454 1.392 . S
C453 H476 0.930 . S
C454 C453 1.392 . S
C454 C455 1.398 . S
C454 H477 0.929 . S
C455 C454 1.398 . S
C455 C456 1.352 . S
C456 C455 1.352 . S
C456 C457 1.384 . S
C456 H478 0.930 . S
C457 C452 1.407 . S
C457 C456 1.384 . S
C457 H479 0.929 . S
C458 O468 1.241 . S
C458 O469 1.273 . S
C459 O470 1.251 . S
C459 O471 1.268 . S
O460 Nd440 2.500 . S
O460 C442 1.258 . S
O461 Nd440 2.492 . S
O461 C442 1.239 . S
O462 Nd440 2.487 . S
O462 C449 1.241 . S
O463 Nd440 2.682 . S
O463 Nd441 2.414 . S
O463 C449 1.273 . S
O464 Nd440 2.410 . S
O464 C450 1.251 . S
O465 Nd441 2.424 . S
O465 C450 1.268 . S
O466 Nd441 2.500 . S
O466 C451 1.258 . S
O467 Nd441 2.492 . S
O467 C451 1.239 . S
O468 Nd441 2.487 . S
O468 C458 1.241 . S
O469 Nd440 2.414 . S
O469 Nd441 2.682 . S
O469 C458 1.273 . S
O470 Nd441 2.410 . S
O470 C459 1.251 . S
O471 Nd440 2.424 . S
O471 C459 1.268 . S
H472 C444 0.930 . S
H473 C445 0.929 . S
H474 C447 0.930 . S
H475 C448 0.929 . S
H476 C453 0.930 . S
H477 C454 0.929 . S
H478 C456 0.930 . S
H479 C457 0.929 . S
H480 C498 0.951 1_565 S
H481 C500 0.951 . S
H482 C502 0.950 . S
H483 C503 0.950 . S
H484 C505 0.950 . S
H485 C508 0.950 . S
H486 C509 0.950 . S
H487 C511 0.950 . S
H488 C512 0.950 . S
H489 C513 0.951 . S
H490 C515 0.951 . S
H491 C517 0.950 . S
H492 C518 0.950 . S
H493 C520 0.950 . S
H494 C523 0.950 . S
H495 C524 0.950 . S
H496 C526 0.950 . S
H497 C527 0.950 . S
C498 H480 0.951 1_545 S
C498 C499 1.366 . S
C498 C500 1.388 . S
C499 C498 1.366 . S
C499 C503 1.385 . S
C500 H481 0.951 . S
C500 C498 1.388 . S
C500 C501 1.366 . S
C501 C500 1.366 . S
C501 C502 1.414 . S
C501 C504 1.499 . S
C502 H482 0.950 . S
C502 C501 1.414 . S
C502 C503 1.374 . S
C503 H483 0.950 . S
C503 C499 1.385 . S
C503 C502 1.374 . S
C504 C501 1.499 . S
C504 C505 1.373 . S
C504 C506 1.389 . S
C505 H484 0.950 . S
C505 C504 1.373 . S
C505 C521 1.377 . S
C506 C504 1.389 . S
C506 C507 1.524 . S
C506 C520 1.377 . S
C507 C506 1.524 . S
C507 C508 1.397 . S
C507 C512 1.363 . S
C508 H485 0.950 . S
C508 C507 1.397 . S
C508 C509 1.334 . S
C509 H486 0.950 . S
C509 C508 1.334 . S
C509 C510 1.287 . S
C510 C509 1.287 . S
C510 C511 1.524 . S
C510 H529 0.913 . S
C511 H487 0.950 . S
C511 C510 1.524 . S
C511 C512 1.415 . S
C512 H488 0.950 . S
C512 C507 1.363 . S
C512 C511 1.415 . S
C513 H489 0.951 . S
C513 C514 1.366 . S
C513 C515 1.388 . S
C514 C513 1.366 . S
C514 C518 1.385 . S
C515 H490 0.951 . S
C515 C513 1.388 . S
C515 C516 1.366 . S
C516 C515 1.366 . S
C516 C517 1.414 . S
C516 C519 1.499 . S
C517 H491 0.950 . S
C517 C516 1.414 . S
C517 C518 1.374 . S
C518 H492 0.950 . S
C518 C514 1.385 . S
C518 C517 1.374 . S
C519 C516 1.499 . S
C519 C520 1.373 . S
C519 C521 1.389 . S
C520 H493 0.950 . S
C520 C506 1.377 . S
C520 C519 1.373 . S
C521 C505 1.377 . S
C521 C519 1.389 . S
C521 C522 1.524 . S
C522 C521 1.524 . S
C522 C523 1.397 . S
C522 C527 1.363 . S
C523 H494 0.950 . S
C523 C522 1.397 . S
C523 C524 1.334 . S
C524 H495 0.950 . S
C524 C523 1.334 . S
C524 C525 1.287 . S
C525 C524 1.287 . S
C525 C526 1.524 . S
C525 H528 0.999 . S
C526 H496 0.950 . S
C526 C525 1.524 . S
C526 C527 1.415 . S
C527 H497 0.950 . S
C527 C522 1.363 . S
C527 C526 1.415 . S
H528 C525 0.999 . S
H529 C510 0.913 . S
H530 C548 0.951 . S
H531 C550 0.951 . S
H532 C552 0.950 . S
H533 C553 0.950 . S
H534 C555 0.950 . S
H535 C558 0.950 . S
H536 C559 0.950 . S
H537 C561 0.950 . S
H538 C562 0.950 . S
H539 C563 0.951 . S
H540 C565 0.951 . S
H541 C567 0.955 . S
H542 C568 0.950 . S
H543 C570 0.950 . S
H544 C573 0.950 . S
H545 C574 0.950 . S
H546 C576 0.950 . S
H547 C577 0.950 . S
C548 H530 0.951 . S
C548 C549 1.366 . S
C548 C550 1.388 . S
C549 C548 1.366 . S
C549 C553 1.385 . S
C550 H531 0.951 . S
C550 C548 1.388 . S
C550 C551 1.366 . S
C551 C550 1.366 . S
C551 C552 1.414 . S
C551 C554 1.499 . S
C552 H532 0.950 . S
C552 C551 1.414 . S
C552 C553 1.374 . S
C553 H533 0.950 . S
C553 C549 1.385 . S
C553 C552 1.374 . S
C554 C551 1.499 . S
C554 C555 1.373 . S
C554 C556 1.389 . S
C555 H534 0.950 . S
C555 C554 1.373 . S
C555 C571 1.377 . S
C556 C554 1.389 . S
C556 C557 1.524 . S
C556 C570 1.377 . S
C557 C556 1.524 . S
C557 C558 1.397 . S
C557 C562 1.363 . S
C558 H535 0.950 . S
C558 C557 1.397 . S
C558 C559 1.334 . S
C559 H536 0.950 . S
C559 C558 1.334 . S
C559 C560 1.287 . S
C560 C559 1.287 . S
C560 C561 1.524 . S
C560 H579 0.913 . S
C561 H537 0.950 . S
C561 C560 1.524 . S
C561 C562 1.415 . S
C562 H538 0.950 . S
C562 C557 1.363 . S
C562 C561 1.415 . S
C563 H539 0.951 . S
C563 C564 1.366 . S
C563 C565 1.388 . S
C564 C563 1.366 . S
C564 C568 1.385 . S
C565 H540 0.951 . S
C565 C563 1.388 . S
C565 C566 1.366 . S
C566 C565 1.366 . S
C566 C567 1.414 . S
C566 C569 1.499 1_655 S
C567 H541 0.955 . S
C567 C566 1.414 . S
C567 C568 1.374 . S
C568 H542 0.950 . S
C568 C564 1.385 . S
C568 C567 1.374 . S
C569 C566 1.499 1_455 S
C569 C570 1.373 . S
C569 C571 1.389 . S
C570 H543 0.950 . S
C570 C556 1.377 . S
C570 C569 1.373 . S
C571 C555 1.377 . S
C571 C569 1.389 . S
C571 C572 1.524 1_455 S
C572 C571 1.524 1_655 S
C572 C573 1.397 . S
C572 C577 1.363 . S
C573 H544 0.950 . S
C573 C572 1.397 . S
C573 C574 1.334 . S
C574 H545 0.950 . S
C574 C573 1.334 . S
C574 C575 1.287 . S
C575 C574 1.287 . S
C575 C576 1.524 . S
C575 H578 0.999 . S
C576 H546 0.950 . S
C576 C575 1.524 . S
C576 C577 1.415 . S
C577 H547 0.950 . S
C577 C572 1.363 . S
C577 C576 1.415 . S
H578 C575 0.999 . S
H579 C560 0.913 . S
H580 C598 0.951 . S
H581 C600 0.951 . S
H582 C602 0.950 . S
H583 C603 0.950 . S
H584 C605 0.950 . S
H585 C608 0.950 . S
H586 C609 0.950 . S
H587 C611 0.950 . S
H588 C612 0.950 . S
H589 C613 0.951 . S
H590 C615 0.951 . S
H591 C617 0.950 . S
H592 C618 0.950 . S
H593 C620 0.950 . S
H594 C623 0.950 . S
H595 C624 0.950 . S
H596 C626 0.950 . S
H597 C627 0.950 . S
C598 H580 0.951 . S
C598 C599 1.366 . S
C598 C600 1.388 . S
C599 C598 1.366 . S
C599 C603 1.385 . S
C600 H581 0.951 . S
C600 C598 1.388 . S
C600 C601 1.366 . S
C601 C600 1.366 . S
C601 C602 1.414 . S
C601 C604 1.499 1_565 S
C602 H582 0.950 . S
C602 C601 1.414 . S
C602 C603 1.374 . S
C603 H583 0.950 . S
C603 C599 1.385 . S
C603 C602 1.374 . S
C604 C601 1.499 1_545 S
C604 C605 1.373 . S
C604 C606 1.389 . S
C605 H584 0.950 . S
C605 C604 1.373 . S
C605 C621 1.377 . S
C606 C604 1.389 . S
C606 C607 1.524 1_545 S
C606 C620 1.377 . S
C607 C606 1.524 1_565 S
C607 C608 1.397 . S
C607 C612 1.363 . S
C608 H585 0.950 . S
C608 C607 1.397 . S
C608 C609 1.334 . S
C609 H586 0.950 . S
C609 C608 1.334 . S
C609 C610 1.287 . S
C610 C609 1.287 . S
C610 C611 1.524 . S
C610 H629 0.913 . S
C611 H587 0.950 . S
C611 C610 1.524 . S
C611 C612 1.415 . S
C612 H588 0.950 . S
C612 C607 1.363 . S
C612 C611 1.415 . S
C613 H589 0.951 . S
C613 C614 1.366 . S
C613 C615 1.388 . S
C614 C613 1.366 . S
C614 C618 1.385 . S
C615 H590 0.951 . S
C615 C613 1.388 . S
C615 C616 1.366 . S
C616 C615 1.366 . S
C616 C617 1.414 . S
C616 C619 1.499 . S
C617 H591 0.950 . S
C617 C616 1.414 . S
C617 C618 1.374 . S
C618 H592 0.950 . S
C618 C614 1.385 . S
C618 C617 1.374 . S
C619 C616 1.499 . S
C619 C620 1.373 . S
C619 C621 1.389 . S
C620 H593 0.950 . S
C620 C606 1.377 . S
C620 C619 1.373 . S
C621 C605 1.377 . S
C621 C619 1.389 . S
C621 C622 1.524 . S
C622 C621 1.524 . S
C622 C623 1.397 . S
C622 C627 1.363 . S
C623 H594 0.950 . S
C623 C622 1.397 . S
C623 C624 1.334 . S
C624 H595 0.950 . S
C624 C623 1.334 . S
C624 C625 1.287 . S
C625 C624 1.287 . S
C625 C626 1.524 . S
C625 H628 0.999 . S
C626 H596 0.950 . S
C626 C625 1.524 . S
C626 C627 1.415 . S
C627 H597 0.950 . S
C627 C622 1.363 . S
C627 C626 1.415 . S
H628 C625 0.999 . S
H629 C610 0.913 . S
H630 C648 0.951 . S
H631 C650 0.951 . S
H632 C652 0.950 . S
H633 C653 0.950 . S
H634 C655 0.950 . S
H635 C658 0.950 . S
H636 C659 0.950 . S
H637 C661 0.950 . S
H638 C662 0.950 . S
H639 C663 0.951 1_545 S
H640 C665 0.951 . S
H641 C667 0.950 . S
H642 C668 0.950 . S
H643 C670 0.950 . S
H644 C673 0.950 . S
H645 C674 0.950 . S
H646 C676 0.950 . S
H647 C677 0.950 . S
C648 H630 0.951 . S
C648 C649 1.366 . S
C648 C650 1.388 . S
C649 C648 1.366 . S
C649 C653 1.385 . S
C650 H631 0.951 . S
C650 C648 1.388 . S
C650 C651 1.366 . S
C651 C650 1.366 . S
C651 C652 1.414 . S
C651 C654 1.499 . S
C652 H632 0.950 . S
C652 C651 1.414 . S
C652 C653 1.374 . S
C653 H633 0.950 . S
C653 C649 1.385 . S
C653 C652 1.374 . S
C654 C651 1.499 . S
C654 C655 1.373 . S
C654 C656 1.389 . S
C655 H634 0.950 . S
C655 C654 1.373 . S
C655 C671 1.377 . S
C656 C654 1.389 . S
C656 C657 1.524 . S
C656 C670 1.377 . S
C657 C656 1.524 . S
C657 C658 1.397 . S
C657 C662 1.363 . S
C658 H635 0.950 . S
C658 C657 1.397 . S
C658 C659 1.334 . S
C659 H636 0.950 . S
C659 C658 1.334 . S
C659 C660 1.287 . S
C660 C659 1.287 . S
C660 C661 1.524 . S
C660 H679 0.913 . S
C661 H637 0.950 . S
C661 C660 1.524 . S
C661 C662 1.415 . S
C662 H638 0.950 . S
C662 C657 1.363 . S
C662 C661 1.415 . S
C663 H639 0.951 1_565 S
C663 C664 1.366 . S
C663 C665 1.388 . S
C664 C663 1.366 . S
C664 C668 1.385 . S
C665 H640 0.951 . S
C665 C663 1.388 . S
C665 C666 1.366 . S
C666 C665 1.366 . S
C666 C667 1.414 . S
C666 C669 1.499 . S
C667 H641 0.950 . S
C667 C666 1.414 . S
C667 C668 1.374 . S
C668 H642 0.950 . S
C668 C664 1.385 . S
C668 C667 1.374 . S
C669 C666 1.499 . S
C669 C670 1.373 . S
C669 C671 1.389 . S
C670 H643 0.950 . S
C670 C656 1.377 . S
C670 C669 1.373 . S
C671 C655 1.377 . S
C671 C669 1.389 . S
C671 C672 1.524 . S
C672 C671 1.524 . S
C672 C673 1.397 . S
C672 C677 1.363 . S
C673 H644 0.950 . S
C673 C672 1.397 . S
C673 C674 1.334 . S
C674 H645 0.950 . S
C674 C673 1.334 . S
C674 C675 1.287 . S
C675 C674 1.287 . S
C675 C676 1.524 . S
C675 H678 0.999 . S
C676 H646 0.950 . S
C676 C675 1.524 . S
C676 C677 1.415 . S
C677 H647 0.950 . S
C677 C672 1.363 . S
C677 C676 1.415 . S
H678 C675 0.999 . S
H679 C660 0.913 . S
H680 C698 0.951 . S
H681 C700 0.951 . S
H682 C702 0.950 . S
H683 C703 0.950 . S
H684 C705 0.950 . S
H685 C708 0.950 . S
H686 C709 0.950 . S
H687 C711 0.950 . S
H688 C712 0.950 1_655 S
H689 C713 0.951 . S
H690 C715 0.951 . S
H691 C717 0.950 . S
H692 C718 0.950 . S
H693 C720 0.950 . S
H694 C723 0.950 . S
H695 C724 0.950 . S
H696 C726 0.950 . S
H697 C727 0.950 . S
C698 H680 0.951 . S
C698 C699 1.366 . S
C698 C700 1.388 . S
C699 C698 1.366 . S
C699 C703 1.385 . S
C700 H681 0.951 . S
C700 C698 1.388 . S
C700 C701 1.366 . S
C701 C700 1.366 . S
C701 C702 1.414 . S
C701 C704 1.499 1_455 S
C702 H682 0.950 . S
C702 C701 1.414 . S
C702 C703 1.374 . S
C703 H683 0.950 . S
C703 C699 1.385 . S
C703 C702 1.374 . S
C704 C701 1.499 1_655 S
C704 C705 1.373 . S
C704 C706 1.389 . S
C705 H684 0.950 . S
C705 C704 1.373 . S
C705 C721 1.377 . S
C706 C704 1.389 . S
C706 C707 1.524 1_655 S
C706 C720 1.377 . S
C707 C706 1.524 1_455 S
C707 C708 1.397 . S
C707 C712 1.363 . S
C708 H685 0.950 . S
C708 C707 1.397 . S
C708 C709 1.334 . S
C709 H686 0.950 . S
C709 C708 1.334 . S
C709 C710 1.287 . S
C710 C709 1.287 . S
C710 C711 1.524 . S
C710 H729 0.913 . S
C711 H687 0.950 . S
C711 C710 1.524 . S
C711 C712 1.415 . S
C712 H688 0.950 1_455 S
C712 C707 1.363 . S
C712 C711 1.415 . S
C713 H689 0.951 . S
C713 C714 1.366 . S
C713 C715 1.388 . S
C714 C713 1.366 . S
C714 C718 1.385 . S
C715 H690 0.951 . S
C715 C713 1.388 . S
C715 C716 1.366 . S
C716 C715 1.366 . S
C716 C717 1.414 . S
C716 C719 1.499 . S
C717 H691 0.950 . S
C717 C716 1.414 . S
C717 C718 1.374 . S
C718 H692 0.950 . S
C718 C714 1.385 . S
C718 C717 1.374 . S
C719 C716 1.499 . S
C719 C720 1.373 . S
C719 C721 1.389 . S
C720 H693 0.950 . S
C720 C706 1.377 . S
C720 C719 1.373 . S
C721 C705 1.377 . S
C721 C719 1.389 . S
C721 C722 1.524 . S
C722 C721 1.524 . S
C722 C723 1.397 . S
C722 C727 1.363 . S
C723 H694 0.950 . S
C723 C722 1.397 . S
C723 C724 1.334 . S
C724 H695 0.950 . S
C724 C723 1.334 . S
C724 C725 1.287 . S
C725 C724 1.287 . S
C725 C726 1.524 . S
C725 H728 0.999 . S
C726 H696 0.950 . S
C726 C725 1.524 . S
C726 C727 1.415 . S
C727 H697 0.950 . S
C727 C722 1.363 . S
C727 C726 1.415 . S
H728 C725 0.999 . S
H729 C710 0.913 . S
H730 C748 0.951 1_655 S
H731 C750 0.951 . S
H732 C752 0.950 . S
H733 C753 0.950 . S
H734 C755 0.950 . S
H735 C758 0.950 . S
H736 C759 0.950 . S
H737 C761 0.950 1_545 S
H738 C762 0.950 1_545 S
H739 C763 0.951 . S
H740 C765 0.951 1_565 S
H741 C767 0.950 . S
H742 C768 0.950 . S
H743 C770 0.950 1_545 S
H744 C773 0.950 1_545 S
H745 C774 0.973 . S
H746 C776 0.950 . S
H747 C777 0.950 . S
C748 H730 0.951 1_455 S
C748 C749 1.366 . S
C748 C750 1.388 . S
C749 C748 1.366 . S
C749 C753 1.385 . S
C750 H731 0.951 . S
C750 C748 1.388 . S
C750 C751 1.366 . S
C751 C750 1.366 . S
C751 C752 1.414 . S
C751 C754 1.499 . S
C752 H732 0.950 . S
C752 C751 1.414 . S
C752 C753 1.374 . S
C753 H733 0.950 . S
C753 C749 1.385 . S
C753 C752 1.374 . S
C754 C751 1.499 . S
C754 C755 1.373 . S
C754 C756 1.389 . S
C755 H734 0.950 . S
C755 C754 1.373 . S
C755 C771 1.377 . S
C756 C754 1.389 . S
C756 C757 1.524 . S
C756 C770 1.377 . S
C757 C756 1.524 . S
C757 C758 1.397 . S
C757 C762 1.363 . S
C758 H735 0.950 . S
C758 C757 1.397 . S
C758 C759 1.334 . S
C759 H736 0.950 . S
C759 C758 1.334 . S
C759 C760 1.287 . S
C760 C759 1.287 . S
C760 C761 1.524 . S
C760 H779 0.913 . S
C761 H737 0.950 1_565 S
C761 C760 1.524 . S
C761 C762 1.415 . S
C762 H738 0.950 1_565 S
C762 C757 1.363 . S
C762 C761 1.415 . S
C763 H739 0.951 . S
C763 C764 1.366 . S
C763 C765 1.388 . S
C764 C763 1.366 . S
C764 C768 1.385 . S
C765 H740 0.951 1_545 S
C765 C763 1.388 . S
C765 C766 1.366 . S
C766 C765 1.366 . S
C766 C767 1.414 . S
C766 C769 1.499 1_545 S
C767 H741 0.950 . S
C767 C766 1.414 . S
C767 C768 1.374 . S
C768 H742 0.950 . S
C768 C764 1.385 . S
C768 C767 1.374 . S
C769 C766 1.499 1_565 S
C769 C770 1.373 . S
C769 C771 1.389 . S
C770 H743 0.950 1_565 S
C770 C756 1.377 . S
C770 C769 1.373 . S
C771 C755 1.377 . S
C771 C769 1.389 . S
C771 C772 1.524 . S
C772 C771 1.524 . S
C772 C773 1.397 . S
C772 C777 1.363 . S
C773 H744 0.950 1_565 S
C773 C772 1.397 . S
C773 C774 1.338 1_565 S
C774 H745 0.973 . S
C774 C773 1.338 1_545 S
C774 C775 1.260 1_545 S
C775 C774 1.260 1_565 S
C775 C776 1.524 . S
C775 H778 0.999 . S
C776 H746 0.950 . S
C776 C775 1.524 . S
C776 C777 1.415 . S
C777 H747 0.950 . S
C777 C772 1.363 . S
C777 C776 1.415 . S
H778 C775 0.999 . S
H779 C760 0.913 . S
H780 C798 0.951 . S
H781 C800 0.951 . S
H782 C802 0.950 . S
H783 C803 0.950 1_455 S
H784 C805 0.950 . S
H785 C808 0.950 . S
H786 C809 0.950 . S
H787 C811 0.950 . S
H788 C812 0.950 . S
H789 C813 0.951 . S
H790 C815 0.951 . S
H791 C817 0.950 . S
H792 C818 0.950 . S
H793 C820 0.950 . S
H794 C823 0.950 . S
H795 C824 0.950 . S
H796 C826 0.950 . S
H797 C827 0.950 . S
C798 H780 0.951 . S
C798 C799 1.366 . S
C798 C800 1.388 . S
C799 C798 1.366 . S
C799 C803 1.385 . S
C800 H781 0.951 . S
C800 C798 1.388 . S
C800 C801 1.366 . S
C801 C800 1.366 . S
C801 C802 1.414 . S
C801 C804 1.499 . S
C802 H782 0.950 . S
C802 C801 1.414 . S
C802 C803 1.374 . S
C803 H783 0.950 1_655 S
C803 C799 1.385 . S
C803 C802 1.374 . S
C804 C801 1.499 . S
C804 C805 1.373 . S
C804 C806 1.389 . S
C805 H784 0.950 . S
C805 C804 1.373 . S
C805 C821 1.377 . S
C806 C804 1.389 . S
C806 C807 1.524 . S
C806 C820 1.377 . S
C807 C806 1.524 . S
C807 C808 1.397 . S
C807 C812 1.363 . S
C808 H785 0.950 . S
C808 C807 1.397 . S
C808 C809 1.334 . S
C809 H786 0.950 . S
C809 C808 1.334 . S
C809 C810 1.287 . S
C810 C809 1.287 . S
C810 C811 1.524 . S
C810 H829 0.913 . S
C811 H787 0.950 . S
C811 C810 1.524 . S
C811 C812 1.415 . S
C812 H788 0.950 . S
C812 C807 1.363 . S
C812 C811 1.415 . S
C813 H789 0.951 . S
C813 C814 1.366 . S
C813 C815 1.388 . S
C814 C813 1.366 . S
C814 C818 1.385 . S
C815 H790 0.951 . S
C815 C813 1.388 . S
C815 C816 1.366 . S
C816 C815 1.366 . S
C816 C817 1.414 . S
C816 C819 1.499 . S
C817 H791 0.950 . S
C817 C816 1.414 . S
C817 C818 1.374 . S
C818 H792 0.950 . S
C818 C814 1.385 . S
C818 C817 1.374 . S
C819 C816 1.499 . S
C819 C820 1.373 . S
C819 C821 1.389 . S
C820 H793 0.950 . S
C820 C806 1.377 . S
C820 C819 1.373 . S
C821 C805 1.377 . S
C821 C819 1.389 . S
C821 C822 1.524 . S
C822 C821 1.524 . S
C822 C823 1.397 . S
C822 C827 1.363 . S
C823 H794 0.950 . S
C823 C822 1.397 . S
C823 C824 1.334 . S
C824 H795 0.950 . S
C824 C823 1.334 . S
C824 C825 1.287 . S
C825 C824 1.287 . S
C825 C826 1.524 . S
C825 H828 0.999 . S
C826 H796 0.950 . S
C826 C825 1.524 . S
C826 C827 1.415 . S
C827 H797 0.950 . S
C827 C822 1.363 . S
C827 C826 1.415 . S
H828 C825 0.999 . S
H829 C810 0.913 . S
H830 C848 0.951 . S
H831 C850 0.951 . S
H832 C852 0.950 . S
H833 C853 0.950 . S
H834 C855 0.950 . S
H835 C858 0.950 . S
H836 C859 0.950 . S
H837 C861 0.950 . S
H838 C862 0.950 . S
H839 C863 0.951 1_545 S
H840 C865 0.951 . S
H841 C867 0.950 . S
H842 C868 0.950 . S
H843 C870 0.950 . S
H844 C873 0.950 . S
H845 C874 0.950 . S
H846 C876 0.950 . S
H847 C877 0.950 . S
C848 H830 0.951 . S
C848 C849 1.366 . S
C848 C850 1.388 . S
C849 C848 1.366 . S
C849 C853 1.385 . S
C850 H831 0.951 . S
C850 C848 1.388 . S
C850 C851 1.366 . S
C851 C850 1.366 . S
C851 C852 1.414 . S
C851 C854 1.499 1_655 S
C852 H832 0.950 . S
C852 C851 1.414 . S
C852 C853 1.374 . S
C853 H833 0.950 . S
C853 C849 1.385 . S
C853 C852 1.374 . S
C854 C851 1.499 1_455 S
C854 C855 1.373 . S
C854 C856 1.389 . S
C855 H834 0.950 . S
C855 C854 1.373 . S
C855 C871 1.377 . S
C856 C854 1.389 . S
C856 C857 1.524 . S
C856 C870 1.377 . S
C857 C856 1.524 . S
C857 C858 1.397 1_455 S
C857 C862 1.363 . S
C858 H835 0.950 . S
C858 C857 1.397 1_655 S
C858 C859 1.334 . S
C859 H836 0.950 . S
C859 C858 1.334 . S
C859 C860 1.287 . S
C860 C859 1.287 . S
C860 C861 1.524 1_655 S
C860 H879 0.913 . S
C861 H837 0.950 . S
C861 C860 1.524 1_455 S
C861 C862 1.415 . S
C862 H838 0.950 . S
C862 C857 1.363 . S
C862 C861 1.415 . S
C863 H839 0.951 1_565 S
C863 C864 1.366 . S
C863 C865 1.388 . S
C864 C863 1.366 . S
C864 C868 1.385 . S
C865 H840 0.951 . S
C865 C863 1.388 . S
C865 C866 1.366 . S
C866 C865 1.366 . S
C866 C867 1.414 . S
C866 C869 1.499 . S
C867 H841 0.950 . S
C867 C866 1.414 . S
C867 C868 1.374 . S
C868 H842 0.950 . S
C868 C864 1.385 . S
C868 C867 1.374 . S
C869 C866 1.499 . S
C869 C870 1.373 . S
C869 C871 1.389 . S
C870 H843 0.950 . S
C870 C856 1.377 . S
C870 C869 1.373 . S
C871 C855 1.377 . S
C871 C869 1.389 . S
C871 C872 1.524 . S
C872 C871 1.524 . S
C872 C873 1.397 . S
C872 C877 1.363 . S
C873 H844 0.950 . S
C873 C872 1.397 . S
C873 C874 1.334 . S
C874 H845 0.950 . S
C874 C873 1.334 . S
C874 C875 1.287 . S
C875 C874 1.287 . S
C875 C876 1.524 . S
C875 H878 0.999 . S
C876 H846 0.950 . S
C876 C875 1.524 . S
C876 C877 1.415 . S
C877 H847 0.950 . S
C877 C872 1.363 . S
C877 C876 1.415 . S
H878 C875 0.999 . S
H879 C860 0.913 . S
H880 C898 0.951 . S
H881 C900 0.951 . S
H882 C902 0.950 . S
H883 C903 0.950 . S
H884 C905 0.950 . S
H885 C908 0.950 . S
H886 C909 0.950 . S
H887 C911 0.950 . S
H888 C912 0.950 . S
H889 C913 0.951 . S
H890 C915 0.951 . S
H891 C917 0.950 1_545 S
H892 C918 0.950 . S
H893 C920 0.950 . S
H894 C923 0.950 . S
H895 C924 0.950 . S
H896 C926 0.950 . S
H897 C927 0.950 . S
C898 H880 0.951 . S
C898 C899 1.366 . S
C898 C900 1.388 . S
C899 C898 1.366 . S
C899 C903 1.385 . S
C900 H881 0.951 . S
C900 C898 1.388 . S
C900 C901 1.366 . S
C901 C900 1.366 . S
C901 C902 1.414 . S
C901 C904 1.499 . S
C902 H882 0.950 . S
C902 C901 1.414 . S
C902 C903 1.374 . S
C903 H883 0.950 . S
C903 C899 1.385 . S
C903 C902 1.374 . S
C904 C901 1.499 . S
C904 C905 1.373 . S
C904 C906 1.389 . S
C905 H884 0.950 . S
C905 C904 1.373 . S
C905 C921 1.377 . S
C906 C904 1.389 . S
C906 C907 1.524 . S
C906 C920 1.377 . S
C907 C906 1.524 . S
C907 C908 1.397 . S
C907 C912 1.363 . S
C908 H885 0.950 . S
C908 C907 1.397 . S
C908 C909 1.334 . S
C909 H886 0.950 . S
C909 C908 1.334 . S
C909 C910 1.287 . S
C910 C909 1.287 . S
C910 C911 1.524 . S
C910 H929 0.913 . S
C911 H887 0.950 . S
C911 C910 1.524 . S
C911 C912 1.415 . S
C912 H888 0.950 . S
C912 C907 1.363 . S
C912 C911 1.415 . S
C913 H889 0.951 . S
C913 C914 1.366 . S
C913 C915 1.388 . S
C914 C913 1.366 . S
C914 C918 1.385 . S
C915 H890 0.951 . S
C915 C913 1.388 . S
C915 C916 1.366 . S
C916 C915 1.366 . S
C916 C917 1.414 . S
C916 C919 1.499 1_565 S
C917 H891 0.950 1_565 S
C917 C916 1.414 . S
C917 C918 1.374 . S
C918 H892 0.950 . S
C918 C914 1.385 . S
C918 C917 1.374 . S
C919 C916 1.499 1_545 S
C919 C920 1.373 . S
C919 C921 1.389 . S
C920 H893 0.950 . S
C920 C906 1.377 . S
C920 C919 1.373 . S
C921 C905 1.377 . S
C921 C919 1.389 . S
C921 C922 1.524 1_545 S
C922 C921 1.524 1_565 S
C922 C923 1.397 . S
C922 C927 1.363 . S
C923 H894 0.950 . S
C923 C922 1.397 . S
C923 C924 1.334 . S
C924 H895 0.950 . S
C924 C923 1.334 . S
C924 C925 1.287 . S
C925 C924 1.287 . S
C925 C926 1.524 . S
C925 H928 0.999 . S
C926 H896 0.950 . S
C926 C925 1.524 . S
C926 C927 1.415 . S
C927 H897 0.950 . S
C927 C922 1.363 . S
C927 C926 1.415 . S
H928 C925 0.999 . S
H929 C910 0.913 . S
H930 C948 0.951 . S
H931 C950 0.951 . S
H932 C952 0.950 . S
H933 C953 0.950 . S
H934 C955 0.950 . S
H935 C958 0.950 . S
H936 C959 0.950 . S
H937 C961 0.950 . S
H938 C962 0.950 . S
H939 C963 0.951 . S
H940 C965 0.951 . S
H941 C967 0.950 . S
H942 C968 0.950 1_655 S
H943 C970 0.950 . S
H944 C973 0.950 . S
H945 C974 0.950 . S
H946 C976 0.950 . S
H947 C977 0.950 . S
C948 H930 0.951 . S
C948 C949 1.366 . S
C948 C950 1.388 . S
C949 C948 1.366 . S
C949 C953 1.385 . S
C950 H931 0.951 . S
C950 C948 1.388 . S
C950 C951 1.366 . S
C951 C950 1.366 . S
C951 C952 1.414 . S
C951 C954 1.499 . S
C952 H932 0.950 . S
C952 C951 1.414 . S
C952 C953 1.374 . S
C953 H933 0.950 . S
C953 C949 1.385 . S
C953 C952 1.374 . S
C954 C951 1.499 . S
C954 C955 1.373 . S
C954 C956 1.389 . S
C955 H934 0.950 . S
C955 C954 1.373 . S
C955 C971 1.377 . S
C956 C954 1.389 . S
C956 C957 1.524 . S
C956 C970 1.377 . S
C957 C956 1.524 . S
C957 C958 1.397 . S
C957 C962 1.363 . S
C958 H935 0.950 . S
C958 C957 1.397 . S
C958 C959 1.334 . S
C959 H936 0.950 . S
C959 C958 1.334 . S
C959 C960 1.287 . S
C960 C959 1.287 . S
C960 C961 1.524 . S
C960 H979 0.913 . S
C961 H937 0.950 . S
C961 C960 1.524 . S
C961 C962 1.415 . S
C962 H938 0.950 . S
C962 C957 1.363 . S
C962 C961 1.415 . S
C963 H939 0.951 . S
C963 C964 1.366 . S
C963 C965 1.388 . S
C964 C963 1.366 . S
C964 C968 1.385 . S
C965 H940 0.951 . S
C965 C963 1.388 . S
C965 C966 1.366 . S
C966 C965 1.366 . S
C966 C967 1.414 . S
C966 C969 1.499 . S
C967 H941 0.950 . S
C967 C966 1.414 . S
C967 C968 1.374 . S
C968 H942 0.950 1_455 S
C968 C964 1.385 . S
C968 C967 1.374 . S
C969 C966 1.499 . S
C969 C970 1.373 . S
C969 C971 1.389 . S
C970 H943 0.950 . S
C970 C956 1.377 . S
C970 C969 1.373 . S
C971 C955 1.377 . S
C971 C969 1.389 . S
C971 C972 1.524 . S
C972 C971 1.524 . S
C972 C973 1.397 . S
C972 C977 1.363 . S
C973 H944 0.950 . S
C973 C972 1.397 . S
C973 C974 1.334 . S
C974 H945 0.950 . S
C974 C973 1.334 . S
C974 C975 1.287 . S
C975 C974 1.287 . S
C975 C976 1.524 . S
C975 H978 0.999 . S
C976 H946 0.950 . S
C976 C975 1.524 . S
C976 C977 1.415 . S
C977 H947 0.950 . S
C977 C972 1.363 . S
C977 C976 1.415 . S
H978 C975 0.999 . S
H979 C960 0.913 . S
H980 C998 0.951 . S
H981 C1000 0.951 . S
H982 C1002 0.950 1_655 S
H983 C1003 0.950 . S
H984 C1005 0.950 . S
H985 C1008 0.951 1_655 S
H986 C1009 0.950 . S
H987 C1011 0.950 . S
H988 C1012 0.950 . S
H989 C1013 0.951 . S
H990 C1015 0.951 . S
H991 C1017 0.950 . S
H992 C1018 0.950 1_565 S
H993 C1020 0.950 . S
H994 C1023 0.950 . S
H995 C1024 0.950 . S
H996 C1026 0.950 . S
H997 C1027 0.950 . S
C998 H980 0.951 . S
C998 C999 1.366 . S
C998 C1000 1.388 . S
C999 C998 1.366 . S
C999 C1003 1.385 . S
C1000 H981 0.951 . S
C1000 C998 1.388 . S
C1000 C1001 1.366 . S
C1001 C1000 1.366 . S
C1001 C1002 1.414 . S
C1001 C1004 1.499 1_455 S
C1002 H982 0.950 1_455 S
C1002 C1001 1.414 . S
C1002 C1003 1.374 . S
C1003 H983 0.950 . S
C1003 C999 1.385 . S
C1003 C1002 1.374 . S
C1004 C1001 1.499 1_655 S
C1004 C1005 1.373 . S
C1004 C1006 1.389 . S
C1005 H984 0.950 . S
C1005 C1004 1.373 . S
C1005 C1021 1.377 . S
C1006 C1004 1.389 . S
C1006 C1007 1.524 1_655 S
C1006 C1020 1.377 . S
C1007 C1006 1.524 1_455 S
C1007 C1008 1.396 . S
C1007 C1012 1.363 . S
C1008 H985 0.951 1_455 S
C1008 C1007 1.396 . S
C1008 C1009 1.333 . S
C1009 H986 0.950 . S
C1009 C1008 1.333 . S
C1009 C1010 1.287 . S
C1010 C1009 1.287 . S
C1010 C1011 1.524 . S
C1010 H1029 0.913 . S
C1011 H987 0.950 . S
C1011 C1010 1.524 . S
C1011 C1012 1.415 . S
C1012 H988 0.950 . S
C1012 C1007 1.363 . S
C1012 C1011 1.415 . S
C1013 H989 0.951 . S
C1013 C1014 1.366 . S
C1013 C1015 1.388 . S
C1014 C1013 1.366 . S
C1014 C1018 1.385 . S
C1015 H990 0.951 . S
C1015 C1013 1.388 . S
C1015 C1016 1.366 . S
C1016 C1015 1.366 . S
C1016 C1017 1.414 . S
C1016 C1019 1.499 . S
C1017 H991 0.950 . S
C1017 C1016 1.414 . S
C1017 C1018 1.374 . S
C1018 H992 0.950 1_545 S
C1018 C1014 1.385 . S
C1018 C1017 1.374 . S
C1019 C1016 1.499 . S
C1019 C1020 1.373 . S
C1019 C1021 1.389 . S
C1020 H993 0.950 . S
C1020 C1006 1.377 . S
C1020 C1019 1.373 . S
C1021 C1005 1.377 . S
C1021 C1019 1.389 . S
C1021 C1022 1.524 . S
C1022 C1021 1.524 . S
C1022 C1023 1.397 . S
C1022 C1027 1.363 . S
C1023 H994 0.950 . S
C1023 C1022 1.397 . S
C1023 C1024 1.334 . S
C1024 H995 0.950 . S
C1024 C1023 1.334 . S
C1024 C1025 1.287 . S
C1025 C1024 1.287 . S
C1025 C1026 1.524 . S
C1025 H1028 0.999 . S
C1026 H996 0.950 . S
C1026 C1025 1.524 . S
C1026 C1027 1.415 . S
C1027 H997 0.950 . S
C1027 C1022 1.363 . S
C1027 C1026 1.415 . S
H1028 C1025 0.999 . S
H1029 C1010 0.913 . S
H1030 C1048 0.951 . S
H1031 C1050 0.951 . S
H1032 C1052 0.950 . S
H1033 C1053 0.950 . S
H1034 C1055 0.950 . S
H1035 C1058 0.950 . S
H1036 C1059 0.950 . S
H1037 C1061 0.950 . S
H1038 C1062 0.950 . S
H1039 C1063 0.951 . S
H1040 C1065 0.951 . S
H1041 C1067 0.950 . S
H1042 C1068 0.950 . S
H1043 C1070 0.950 1_545 S
H1044 C1073 0.950 . S
H1045 C1074 0.950 . S
H1046 C1076 0.950 . S
H1047 C1077 0.950 . S
C1048 H1030 0.951 . S
C1048 C1049 1.366 . S
C1048 C1050 1.388 . S
C1049 C1048 1.366 . S
C1049 C1053 1.385 . S
C1050 H1031 0.951 . S
C1050 C1048 1.388 . S
C1050 C1051 1.366 . S
C1051 C1050 1.366 . S
C1051 C1052 1.414 . S
C1051 C1054 1.499 . S
C1052 H1032 0.950 . S
C1052 C1051 1.414 . S
C1052 C1053 1.374 . S
C1053 H1033 0.950 . S
C1053 C1049 1.385 . S
C1053 C1052 1.374 . S
C1054 C1051 1.499 . S
C1054 C1055 1.373 . S
C1054 C1056 1.389 . S
C1055 H1034 0.950 . S
C1055 C1054 1.373 . S
C1055 C1071 1.377 . S
C1056 C1054 1.389 . S
C1056 C1057 1.524 . S
C1056 C1070 1.377 . S
C1057 C1056 1.524 . S
C1057 C1058 1.397 . S
C1057 C1062 1.363 1_565 S
C1058 H1035 0.950 . S
C1058 C1057 1.397 . S
C1058 C1059 1.334 . S
C1059 H1036 0.950 . S
C1059 C1058 1.334 . S
C1059 C1060 1.287 1_565 S
C1060 C1059 1.287 1_545 S
C1060 C1061 1.524 . S
C1060 H1079 0.913 . S
C1061 H1037 0.950 . S
C1061 C1060 1.524 . S
C1061 C1062 1.415 . S
C1062 H1038 0.950 . S
C1062 C1057 1.363 1_545 S
C1062 C1061 1.415 . S
C1063 H1039 0.951 . S
C1063 C1064 1.366 . S
C1063 C1065 1.388 . S
C1064 C1063 1.366 . S
C1064 C1068 1.385 . S
C1065 H1040 0.951 . S
C1065 C1063 1.388 . S
C1065 C1066 1.366 . S
C1066 C1065 1.366 . S
C1066 C1067 1.414 . S
C1066 C1069 1.499 1_545 S
C1067 H1041 0.950 . S
C1067 C1066 1.414 . S
C1067 C1068 1.374 . S
C1068 H1042 0.950 . S
C1068 C1064 1.385 . S
C1068 C1067 1.374 . S
C1069 C1066 1.499 1_565 S
C1069 C1070 1.373 . S
C1069 C1071 1.389 . S
C1070 H1043 0.950 1_565 S
C1070 C1056 1.377 . S
C1070 C1069 1.373 . S
C1071 C1055 1.377 . S
C1071 C1069 1.389 . S
C1071 C1072 1.524 . S
C1072 C1071 1.524 . S
C1072 C1073 1.397 . S
C1072 C1077 1.363 . S
C1073 H1044 0.950 . S
C1073 C1072 1.397 . S
C1073 C1074 1.334 . S
C1074 H1045 0.950 . S
C1074 C1073 1.334 . S
C1074 C1075 1.287 . S
C1075 C1074 1.287 . S
C1075 C1076 1.524 . S
C1075 H1078 0.999 . S
C1076 H1046 0.950 . S
C1076 C1075 1.524 . S
C1076 C1077 1.415 . S
C1077 H1047 0.950 . S
C1077 C1072 1.363 . S
C1077 C1076 1.415 . S
H1078 C1075 0.999 . S
H1079 C1060 0.913 . S
H1080 C1098 0.951 . S
H1081 C1100 0.951 . S
H1082 C1102 0.950 . S
H1083 C1103 0.950 . S
H1084 C1105 0.950 . S
H1085 C1108 0.950 . S
H1086 C1109 0.950 . S
H1087 C1111 0.950 . S
H1088 C1112 0.950 . S
H1089 C1113 0.951 . S
H1090 C1115 0.951 . S
H1091 C1117 0.950 . S
H1092 C1118 0.950 . S
H1093 C1120 0.950 . S
H1094 C1123 0.950 . S
H1095 C1124 0.950 . S
H1096 C1126 0.950 . S
H1097 C1127 0.950 . S
C1098 H1080 0.951 . S
C1098 C1099 1.366 . S
C1098 C1100 1.388 . S
C1099 C1098 1.366 . S
C1099 C1103 1.385 . S
C1100 H1081 0.951 . S
C1100 C1098 1.388 . S
C1100 C1101 1.366 . S
C1101 C1100 1.366 . S
C1101 C1102 1.414 . S
C1101 C1104 1.499 . S
C1102 H1082 0.950 . S
C1102 C1101 1.414 . S
C1102 C1103 1.374 . S
C1103 H1083 0.950 . S
C1103 C1099 1.385 . S
C1103 C1102 1.374 . S
C1104 C1101 1.499 . S
C1104 C1105 1.373 . S
C1104 C1106 1.389 . S
C1105 H1084 0.950 . S
C1105 C1104 1.373 . S
C1105 C1121 1.377 . S
C1106 C1104 1.389 . S
C1106 C1107 1.524 . S
C1106 C1120 1.377 . S
C1107 C1106 1.524 . S
C1107 C1108 1.397 . S
C1107 C1112 1.363 . S
C1108 H1085 0.950 . S
C1108 C1107 1.397 . S
C1108 C1109 1.334 . S
C1109 H1086 0.950 . S
C1109 C1108 1.334 . S
C1109 C1110 1.287 . S
C1110 C1109 1.287 . S
C1110 C1111 1.524 . S
C1110 H1129 0.913 . S
C1111 H1087 0.950 . S
C1111 C1110 1.524 . S
C1111 C1112 1.415 . S
C1112 H1088 0.950 . S
C1112 C1107 1.363 . S
C1112 C1111 1.415 . S
C1113 H1089 0.951 . S
C1113 C1114 1.366 . S
C1113 C1115 1.388 . S
C1114 C1113 1.366 . S
C1114 C1118 1.385 . S
C1115 H1090 0.951 . S
C1115 C1113 1.388 . S
C1115 C1116 1.366 . S
C1116 C1115 1.366 . S
C1116 C1117 1.414 . S
C1116 C1119 1.499 . S
C1117 H1091 0.950 . S
C1117 C1116 1.414 . S
C1117 C1118 1.374 . S
C1118 H1092 0.950 . S
C1118 C1114 1.385 . S
C1118 C1117 1.374 . S
C1119 C1116 1.499 . S
C1119 C1120 1.373 . S
C1119 C1121 1.389 . S
C1120 H1093 0.950 . S
C1120 C1106 1.377 . S
C1120 C1119 1.373 . S
C1121 C1105 1.377 . S
C1121 C1119 1.389 . S
C1121 C1122 1.524 . S
C1122 C1121 1.524 . S
C1122 C1123 1.397 . S
C1122 C1127 1.363 . S
C1123 H1094 0.950 . S
C1123 C1122 1.397 . S
C1123 C1124 1.334 . S
C1124 H1095 0.950 . S
C1124 C1123 1.334 . S
C1124 C1125 1.287 . S
C1125 C1124 1.287 . S
C1125 C1126 1.524 . S
C1125 H1128 0.999 . S
C1126 H1096 0.950 . S
C1126 C1125 1.524 . S
C1126 C1127 1.415 . S
C1127 H1097 0.950 . S
C1127 C1122 1.363 . S
C1127 C1126 1.415 . S
H1128 C1125 0.999 . S
H1129 C1110 0.913 . S
H1130 C1148 0.951 . S
H1131 C1150 0.951 . S
H1132 C1152 0.950 . S
H1133 C1153 0.950 . S
H1134 C1155 0.950 . S
H1135 C1158 0.950 . S
H1136 C1159 0.950 . S
H1137 C1161 0.950 . S
H1138 C1162 0.950 . S
H1139 C1163 0.951 . S
H1140 C1165 0.951 . S
H1141 C1167 0.950 . S
H1142 C1168 0.950 . S
H1143 C1170 0.950 . S
H1144 C1173 0.950 . S
H1145 C1174 0.950 . S
H1146 C1176 0.950 . S
H1147 C1177 0.950 . S
C1148 H1130 0.951 . S
C1148 C1149 1.366 . S
C1148 C1150 1.388 . S
C1149 C1148 1.366 . S
C1149 C1153 1.385 . S
C1150 H1131 0.951 . S
C1150 C1148 1.388 . S
C1150 C1151 1.366 . S
C1151 C1150 1.366 . S
C1151 C1152 1.414 . S
C1151 C1154 1.499 . S
C1152 H1132 0.950 . S
C1152 C1151 1.414 . S
C1152 C1153 1.374 . S
C1153 H1133 0.950 . S
C1153 C1149 1.385 . S
C1153 C1152 1.374 . S
C1154 C1151 1.499 . S
C1154 C1155 1.373 . S
C1154 C1156 1.389 . S
C1155 H1134 0.950 . S
C1155 C1154 1.373 . S
C1155 C1171 1.377 . S
C1156 C1154 1.389 . S
C1156 C1157 1.524 . S
C1156 C1170 1.377 . S
C1157 C1156 1.524 . S
C1157 C1158 1.397 . S
C1157 C1162 1.363 . S
C1158 H1135 0.950 . S
C1158 C1157 1.397 . S
C1158 C1159 1.334 . S
C1159 H1136 0.950 . S
C1159 C1158 1.334 . S
C1159 C1160 1.287 . S
C1160 C1159 1.287 . S
C1160 C1161 1.524 . S
C1160 H1179 0.913 . S
C1161 H1137 0.950 . S
C1161 C1160 1.524 . S
C1161 C1162 1.415 . S
C1162 H1138 0.950 . S
C1162 C1157 1.363 . S
C1162 C1161 1.415 . S
C1163 H1139 0.951 . S
C1163 C1164 1.366 . S
C1163 C1165 1.388 . S
C1164 C1163 1.366 . S
C1164 C1168 1.385 . S
C1165 H1140 0.951 . S
C1165 C1163 1.388 . S
C1165 C1166 1.366 . S
C1166 C1165 1.366 . S
C1166 C1167 1.414 . S
C1166 C1169 1.499 . S
C1167 H1141 0.950 . S
C1167 C1166 1.414 . S
C1167 C1168 1.374 . S
C1168 H1142 0.950 . S
C1168 C1164 1.385 . S
C1168 C1167 1.374 . S
C1169 C1166 1.499 . S
C1169 C1170 1.373 . S
C1169 C1171 1.389 . S
C1170 H1143 0.950 . S
C1170 C1156 1.377 . S
C1170 C1169 1.373 . S
C1171 C1155 1.377 . S
C1171 C1169 1.389 . S
C1171 C1172 1.524 . S
C1172 C1171 1.524 . S
C1172 C1173 1.397 . S
C1172 C1177 1.363 . S
C1173 H1144 0.950 . S
C1173 C1172 1.397 . S
C1173 C1174 1.334 . S
C1174 H1145 0.950 . S
C1174 C1173 1.334 . S
C1174 C1175 1.287 . S
C1175 C1174 1.287 . S
C1175 C1176 1.524 . S
C1175 H1178 0.999 . S
C1176 H1146 0.950 . S
C1176 C1175 1.524 . S
C1176 C1177 1.415 . S
C1177 H1147 0.950 . S
C1177 C1172 1.363 . S
C1177 C1176 1.415 . S
H1178 C1175 0.999 . S
H1179 C1160 0.913 . S
H1180 C1198 0.951 . S
H1181 C1200 0.951 . S
H1182 C1202 0.950 . S
H1183 C1203 0.950 . S
H1184 C1205 0.950 . S
H1185 C1208 0.950 . S
H1186 C1209 0.950 . S
H1187 C1211 0.950 . S
H1188 C1212 0.950 . S
H1189 C1213 0.951 . S
H1190 C1215 0.951 . S
H1191 C1217 0.950 . S
H1192 C1218 0.950 . S
H1193 C1220 0.950 . S
H1194 C1223 0.950 . S
H1195 C1224 0.950 . S
H1196 C1226 0.950 . S
H1197 C1227 0.950 . S
C1198 H1180 0.951 . S
C1198 C1199 1.366 . S
C1198 C1200 1.388 . S
C1199 C1198 1.366 . S
C1199 C1203 1.385 . S
C1200 H1181 0.951 . S
C1200 C1198 1.388 . S
C1200 C1201 1.366 . S
C1201 C1200 1.366 . S
C1201 C1202 1.414 . S
C1201 C1204 1.499 . S
C1202 H1182 0.950 . S
C1202 C1201 1.414 . S
C1202 C1203 1.374 . S
C1203 H1183 0.950 . S
C1203 C1199 1.385 . S
C1203 C1202 1.374 . S
C1204 C1201 1.499 . S
C1204 C1205 1.373 . S
C1204 C1206 1.389 . S
C1205 H1184 0.950 . S
C1205 C1204 1.373 . S
C1205 C1221 1.377 . S
C1206 C1204 1.389 . S
C1206 C1207 1.524 . S
C1206 C1220 1.377 . S
C1207 C1206 1.524 . S
C1207 C1208 1.397 . S
C1207 C1212 1.363 . S
C1208 H1185 0.950 . S
C1208 C1207 1.397 . S
C1208 C1209 1.334 . S
C1209 H1186 0.950 . S
C1209 C1208 1.334 . S
C1209 C1210 1.287 . S
C1210 C1209 1.287 . S
C1210 C1211 1.524 . S
C1210 H1229 0.913 . S
C1211 H1187 0.950 . S
C1211 C1210 1.524 . S
C1211 C1212 1.415 . S
C1212 H1188 0.950 . S
C1212 C1207 1.363 . S
C1212 C1211 1.415 . S
C1213 H1189 0.951 . S
C1213 C1214 1.366 . S
C1213 C1215 1.388 . S
C1214 C1213 1.366 . S
C1214 C1218 1.385 . S
C1215 H1190 0.951 . S
C1215 C1213 1.388 . S
C1215 C1216 1.366 . S
C1216 C1215 1.366 . S
C1216 C1217 1.414 . S
C1216 C1219 1.499 . S
C1217 H1191 0.950 . S
C1217 C1216 1.414 . S
C1217 C1218 1.374 . S
C1218 H1192 0.950 . S
C1218 C1214 1.385 . S
C1218 C1217 1.374 . S
C1219 C1216 1.499 . S
C1219 C1220 1.373 . S
C1219 C1221 1.389 . S
C1220 H1193 0.950 . S
C1220 C1206 1.377 . S
C1220 C1219 1.373 . S
C1221 C1205 1.377 . S
C1221 C1219 1.389 . S
C1221 C1222 1.524 . S
C1222 C1221 1.524 . S
C1222 C1223 1.397 . S
C1222 C1227 1.363 . S
C1223 H1194 0.950 . S
C1223 C1222 1.397 . S
C1223 C1224 1.334 . S
C1224 H1195 0.950 . S
C1224 C1223 1.334 . S
C1224 C1225 1.287 . S
C1225 C1224 1.287 . S
C1225 C1226 1.524 . S
C1225 H1228 0.999 . S
C1226 H1196 0.950 . S
C1226 C1225 1.524 . S
C1226 C1227 1.415 . S
C1227 H1197 0.950 . S
C1227 C1222 1.363 . S
C1227 C1226 1.415 . S
H1228 C1225 0.999 . S
H1229 C1210 0.913 . S
H1230 C1248 0.951 . S
H1231 C1250 0.951 . S
H1232 C1252 0.950 . S
H1233 C1253 0.950 . S
H1234 C1255 0.950 . S
H1235 C1258 0.950 . S
H1236 C1259 0.950 . S
H1237 C1261 0.950 . S
H1238 C1262 0.950 . S
H1239 C1263 0.951 . S
H1240 C1265 0.951 . S
H1241 C1267 0.950 . S
H1242 C1268 0.950 . S
H1243 C1270 0.950 . S
H1244 C1273 0.950 . S
H1245 C1274 0.950 . S
H1246 C1276 0.950 . S
H1247 C1277 0.950 . S
C1248 H1230 0.951 . S
C1248 C1249 1.366 . S
C1248 C1250 1.388 . S
C1249 C1248 1.366 . S
C1249 C1253 1.385 . S
C1250 H1231 0.951 . S
C1250 C1248 1.388 . S
C1250 C1251 1.366 . S
C1251 C1250 1.366 . S
C1251 C1252 1.414 . S
C1251 C1254 1.499 . S
C1252 H1232 0.950 . S
C1252 C1251 1.414 . S
C1252 C1253 1.374 . S
C1253 H1233 0.950 . S
C1253 C1249 1.385 . S
C1253 C1252 1.374 . S
C1254 C1251 1.499 . S
C1254 C1255 1.373 . S
C1254 C1256 1.389 . S
C1255 H1234 0.950 . S
C1255 C1254 1.373 . S
C1255 C1271 1.377 . S
C1256 C1254 1.389 . S
C1256 C1257 1.524 . S
C1256 C1270 1.377 . S
C1257 C1256 1.524 . S
C1257 C1258 1.397 . S
C1257 C1262 1.363 . S
C1258 H1235 0.950 . S
C1258 C1257 1.397 . S
C1258 C1259 1.334 . S
C1259 H1236 0.950 . S
C1259 C1258 1.334 . S
C1259 C1260 1.287 . S
C1260 C1259 1.287 . S
C1260 C1261 1.524 . S
C1260 H1279 0.913 . S
C1261 H1237 0.950 . S
C1261 C1260 1.524 . S
C1261 C1262 1.415 . S
C1262 H1238 0.950 . S
C1262 C1257 1.363 . S
C1262 C1261 1.415 . S
C1263 H1239 0.951 . S
C1263 C1264 1.366 . S
C1263 C1265 1.388 . S
C1264 C1263 1.366 . S
C1264 C1268 1.385 . S
C1265 H1240 0.951 . S
C1265 C1263 1.388 . S
C1265 C1266 1.366 . S
C1266 C1265 1.366 . S
C1266 C1267 1.414 . S
C1266 C1269 1.499 . S
C1267 H1241 0.950 . S
C1267 C1266 1.414 . S
C1267 C1268 1.374 . S
C1268 H1242 0.950 . S
C1268 C1264 1.385 . S
C1268 C1267 1.374 . S
C1269 C1266 1.499 . S
C1269 C1270 1.373 . S
C1269 C1271 1.389 . S
C1270 H1243 0.950 . S
C1270 C1256 1.377 . S
C1270 C1269 1.373 . S
C1271 C1255 1.377 . S
C1271 C1269 1.389 . S
C1271 C1272 1.524 . S
C1272 C1271 1.524 . S
C1272 C1273 1.397 . S
C1272 C1277 1.363 . S
C1273 H1244 0.950 . S
C1273 C1272 1.397 . S
C1273 C1274 1.334 . S
C1274 H1245 0.950 . S
C1274 C1273 1.334 . S
C1274 C1275 1.287 . S
C1275 C1274 1.287 . S
C1275 C1276 1.524 . S
C1275 H1278 0.999 . S
C1276 H1246 0.950 . S
C1276 C1275 1.524 . S
C1276 C1277 1.415 . S
C1277 H1247 0.950 . S
C1277 C1272 1.363 . S
C1277 C1276 1.415 . S
H1278 C1275 0.999 . S
H1279 C1260 0.913 . S
H1280 C1298 0.951 . S
H1281 C1300 0.951 . S
H1282 C1302 0.950 . S
H1283 C1303 0.950 . S
H1284 C1305 0.950 . S
H1285 C1308 0.950 . S
H1286 C1309 0.950 . S
H1287 C1311 0.950 . S
H1288 C1312 0.950 . S
H1289 C1313 0.951 . S
H1290 C1315 0.951 . S
H1291 C1317 0.950 . S
H1292 C1318 0.950 . S
H1293 C1320 0.950 . S
H1294 C1323 0.950 . S
H1295 C1324 0.950 . S
H1296 C1326 0.950 . S
H1297 C1327 0.950 . S
C1298 H1280 0.951 . S
C1298 C1299 1.366 . S
C1298 C1300 1.388 . S
C1299 C1298 1.366 . S
C1299 C1303 1.385 . S
C1300 H1281 0.951 . S
C1300 C1298 1.388 . S
C1300 C1301 1.366 . S
C1301 C1300 1.366 . S
C1301 C1302 1.414 . S
C1301 C1304 1.499 . S
C1302 H1282 0.950 . S
C1302 C1301 1.414 . S
C1302 C1303 1.374 . S
C1303 H1283 0.950 . S
C1303 C1299 1.385 . S
C1303 C1302 1.374 . S
C1304 C1301 1.499 . S
C1304 C1305 1.373 . S
C1304 C1306 1.389 . S
C1305 H1284 0.950 . S
C1305 C1304 1.373 . S
C1305 C1321 1.377 . S
C1306 C1304 1.389 . S
C1306 C1307 1.524 . S
C1306 C1320 1.377 . S
C1307 C1306 1.524 . S
C1307 C1308 1.397 . S
C1307 C1312 1.363 . S
C1308 H1285 0.950 . S
C1308 C1307 1.397 . S
C1308 C1309 1.334 . S
C1309 H1286 0.950 . S
C1309 C1308 1.334 . S
C1309 C1310 1.287 . S
C1310 C1309 1.287 . S
C1310 C1311 1.524 . S
C1310 H1329 0.913 . S
C1311 H1287 0.950 . S
C1311 C1310 1.524 . S
C1311 C1312 1.415 . S
C1312 H1288 0.950 . S
C1312 C1307 1.363 . S
C1312 C1311 1.415 . S
C1313 H1289 0.951 . S
C1313 C1314 1.366 . S
C1313 C1315 1.388 . S
C1314 C1313 1.366 . S
C1314 C1318 1.385 . S
C1315 H1290 0.951 . S
C1315 C1313 1.388 . S
C1315 C1316 1.366 . S
C1316 C1315 1.366 . S
C1316 C1317 1.414 . S
C1316 C1319 1.499 . S
C1317 H1291 0.950 . S
C1317 C1316 1.414 . S
C1317 C1318 1.374 . S
C1318 H1292 0.950 . S
C1318 C1314 1.385 . S
C1318 C1317 1.374 . S
C1319 C1316 1.499 . S
C1319 C1320 1.373 . S
C1319 C1321 1.389 . S
C1320 H1293 0.950 . S
C1320 C1306 1.377 . S
C1320 C1319 1.373 . S
C1321 C1305 1.377 . S
C1321 C1319 1.389 . S
C1321 C1322 1.524 . S
C1322 C1321 1.524 . S
C1322 C1323 1.397 . S
C1322 C1327 1.363 . S
C1323 H1294 0.950 . S
C1323 C1322 1.397 . S
C1323 C1324 1.334 . S
C1324 H1295 0.950 . S
C1324 C1323 1.334 . S
C1324 C1325 1.287 . S
C1325 C1324 1.287 . S
C1325 C1326 1.524 . S
C1325 H1328 0.999 . S
C1326 H1296 0.950 . S
C1326 C1325 1.524 . S
C1326 C1327 1.415 . S
C1327 H1297 0.950 . S
C1327 C1322 1.363 . S
C1327 C1326 1.415 . S
H1328 C1325 0.999 . S
H1329 C1310 0.913 . S
H1330 C1348 0.951 . S
H1331 C1350 0.951 . S
H1332 C1352 0.950 . S
H1333 C1353 0.950 . S
H1334 C1355 0.950 . S
H1335 C1358 0.950 . S
H1336 C1359 0.950 . S
H1337 C1361 0.950 . S
H1338 C1362 0.950 . S
H1339 C1363 0.951 . S
H1340 C1365 0.951 . S
H1341 C1367 0.950 . S
H1342 C1368 0.950 . S
H1343 C1370 0.950 . S
H1344 C1373 0.950 . S
H1345 C1374 0.950 . S
H1346 C1376 0.950 . S
H1347 C1377 0.950 . S
C1348 H1330 0.951 . S
C1348 C1349 1.366 . S
C1348 C1350 1.388 . S
C1349 C1348 1.366 . S
C1349 C1353 1.385 . S
C1350 H1331 0.951 . S
C1350 C1348 1.388 . S
C1350 C1351 1.366 . S
C1351 C1350 1.366 . S
C1351 C1352 1.414 . S
C1351 C1354 1.499 . S
C1352 H1332 0.950 . S
C1352 C1351 1.414 . S
C1352 C1353 1.374 . S
C1353 H1333 0.950 . S
C1353 C1349 1.385 . S
C1353 C1352 1.374 . S
C1354 C1351 1.499 . S
C1354 C1355 1.373 . S
C1354 C1356 1.389 . S
C1355 H1334 0.950 . S
C1355 C1354 1.373 . S
C1355 C1371 1.377 . S
C1356 C1354 1.389 . S
C1356 C1357 1.524 . S
C1356 C1370 1.377 . S
C1357 C1356 1.524 . S
C1357 C1358 1.397 . S
C1357 C1362 1.363 . S
C1358 H1335 0.950 . S
C1358 C1357 1.397 . S
C1358 C1359 1.334 . S
C1359 H1336 0.950 . S
C1359 C1358 1.334 . S
C1359 C1360 1.287 . S
C1360 C1359 1.287 . S
C1360 C1361 1.524 . S
C1360 H1379 0.913 . S
C1361 H1337 0.950 . S
C1361 C1360 1.524 . S
C1361 C1362 1.415 . S
C1362 H1338 0.950 . S
C1362 C1357 1.363 . S
C1362 C1361 1.415 . S
C1363 H1339 0.951 . S
C1363 C1364 1.366 . S
C1363 C1365 1.388 . S
C1364 C1363 1.366 . S
C1364 C1368 1.385 . S
C1365 H1340 0.951 . S
C1365 C1363 1.388 . S
C1365 C1366 1.366 . S
C1366 C1365 1.366 . S
C1366 C1367 1.414 . S
C1366 C1369 1.499 . S
C1367 H1341 0.950 . S
C1367 C1366 1.414 . S
C1367 C1368 1.374 . S
C1368 H1342 0.950 . S
C1368 C1364 1.385 . S
C1368 C1367 1.374 . S
C1369 C1366 1.499 . S
C1369 C1370 1.373 . S
C1369 C1371 1.389 . S
C1370 H1343 0.950 . S
C1370 C1356 1.377 . S
C1370 C1369 1.373 . S
C1371 C1355 1.377 . S
C1371 C1369 1.389 . S
C1371 C1372 1.524 . S
C1372 C1371 1.524 . S
C1372 C1373 1.397 . S
C1372 C1377 1.363 . S
C1373 H1344 0.950 . S
C1373 C1372 1.397 . S
C1373 C1374 1.334 . S
C1374 H1345 0.950 . S
C1374 C1373 1.334 . S
C1374 C1375 1.287 . S
C1375 C1374 1.287 . S
C1375 C1376 1.524 . S
C1375 H1378 0.999 . S
C1376 H1346 0.950 . S
C1376 C1375 1.524 . S
C1376 C1377 1.415 . S
C1377 H1347 0.950 . S
C1377 C1372 1.363 . S
C1377 C1376 1.415 . S
H1378 C1375 0.999 . S
H1379 C1360 0.913 . S
H1380 C1398 0.951 . S
H1381 C1400 0.951 . S
H1382 C1402 0.950 . S
H1383 C1403 0.950 . S
H1384 C1405 0.950 . S
H1385 C1408 0.950 . S
H1386 C1409 0.950 . S
H1387 C1411 0.950 . S
H1388 C1412 0.950 . S
H1389 C1413 0.951 . S
H1390 C1415 0.951 . S
H1391 C1417 0.950 . S
H1392 C1418 0.950 . S
H1393 C1420 0.950 . S
H1394 C1423 0.950 . S
H1395 C1424 0.950 . S
H1396 C1426 0.950 . S
H1397 C1427 0.950 . S
C1398 H1380 0.951 . S
C1398 C1399 1.366 . S
C1398 C1400 1.388 . S
C1399 C1398 1.366 . S
C1399 C1403 1.385 . S
C1400 H1381 0.951 . S
C1400 C1398 1.388 . S
C1400 C1401 1.366 . S
C1401 C1400 1.366 . S
C1401 C1402 1.414 . S
C1401 C1404 1.499 . S
C1402 H1382 0.950 . S
C1402 C1401 1.414 . S
C1402 C1403 1.374 . S
C1403 H1383 0.950 . S
C1403 C1399 1.385 . S
C1403 C1402 1.374 . S
C1404 C1401 1.499 . S
C1404 C1405 1.373 . S
C1404 C1406 1.389 . S
C1405 H1384 0.950 . S
C1405 C1404 1.373 . S
C1405 C1421 1.377 . S
C1406 C1404 1.389 . S
C1406 C1407 1.524 . S
C1406 C1420 1.377 . S
C1407 C1406 1.524 . S
C1407 C1408 1.397 . S
C1407 C1412 1.363 . S
C1408 H1385 0.950 . S
C1408 C1407 1.397 . S
C1408 C1409 1.334 . S
C1409 H1386 0.950 . S
C1409 C1408 1.334 . S
C1409 C1410 1.287 . S
C1410 C1409 1.287 . S
C1410 C1411 1.524 . S
C1410 H1429 0.913 . S
C1411 H1387 0.950 . S
C1411 C1410 1.524 . S
C1411 C1412 1.415 . S
C1412 H1388 0.950 . S
C1412 C1407 1.363 . S
C1412 C1411 1.415 . S
C1413 H1389 0.951 . S
C1413 C1414 1.366 . S
C1413 C1415 1.388 . S
C1414 C1413 1.366 . S
C1414 C1418 1.385 . S
C1415 H1390 0.951 . S
C1415 C1413 1.388 . S
C1415 C1416 1.366 . S
C1416 C1415 1.366 . S
C1416 C1417 1.414 . S
C1416 C1419 1.499 . S
C1417 H1391 0.950 . S
C1417 C1416 1.414 . S
C1417 C1418 1.374 . S
C1418 H1392 0.950 . S
C1418 C1414 1.385 . S
C1418 C1417 1.374 . S
C1419 C1416 1.499 . S
C1419 C1420 1.373 . S
C1419 C1421 1.389 . S
C1420 H1393 0.950 . S
C1420 C1406 1.377 . S
C1420 C1419 1.373 . S
C1421 C1405 1.377 . S
C1421 C1419 1.389 . S
C1421 C1422 1.524 . S
C1422 C1421 1.524 . S
C1422 C1423 1.397 . S
C1422 C1427 1.363 . S
C1423 H1394 0.950 . S
C1423 C1422 1.397 . S
C1423 C1424 1.334 . S
C1424 H1395 0.950 . S
C1424 C1423 1.334 . S
C1424 C1425 1.287 . S
C1425 C1424 1.287 . S
C1425 C1426 1.524 . S
C1425 H1428 0.999 . S
C1426 H1396 0.950 . S
C1426 C1425 1.524 . S
C1426 C1427 1.415 . S
C1427 H1397 0.950 . S
C1427 C1422 1.363 . S
C1427 C1426 1.415 . S
H1428 C1425 0.999 . S
H1429 C1410 0.913 . S
H1430 C1448 0.951 . S
H1431 C1450 0.951 . S
H1432 C1452 0.950 . S
H1433 C1453 0.950 . S
H1434 C1455 0.950 . S
H1435 C1458 0.950 . S
H1436 C1459 0.950 . S
H1437 C1461 0.950 . S
H1438 C1462 0.950 . S
H1439 C1463 0.951 . S
H1440 C1465 0.951 . S
H1441 C1467 0.950 . S
H1442 C1468 0.950 . S
H1443 C1470 0.950 . S
H1444 C1473 0.950 . S
H1445 C1474 0.950 . S
H1446 C1476 0.950 . S
H1447 C1477 0.950 . S
C1448 H1430 0.951 . S
C1448 C1449 1.366 . S
C1448 C1450 1.388 . S
C1449 C1448 1.366 . S
C1449 C1453 1.385 . S
C1450 H1431 0.951 . S
C1450 C1448 1.388 . S
C1450 C1451 1.366 . S
C1451 C1450 1.366 . S
C1451 C1452 1.414 . S
C1451 C1454 1.499 . S
C1452 H1432 0.950 . S
C1452 C1451 1.414 . S
C1452 C1453 1.374 . S
C1453 H1433 0.950 . S
C1453 C1449 1.385 . S
C1453 C1452 1.374 . S
C1454 C1451 1.499 . S
C1454 C1455 1.373 . S
C1454 C1456 1.389 . S
C1455 H1434 0.950 . S
C1455 C1454 1.373 . S
C1455 C1471 1.377 . S
C1456 C1454 1.389 . S
C1456 C1457 1.524 . S
C1456 C1470 1.377 . S
C1457 C1456 1.524 . S
C1457 C1458 1.397 . S
C1457 C1462 1.363 . S
C1458 H1435 0.950 . S
C1458 C1457 1.397 . S
C1458 C1459 1.334 . S
C1459 H1436 0.950 . S
C1459 C1458 1.334 . S
C1459 C1460 1.287 . S
C1460 C1459 1.287 . S
C1460 C1461 1.524 . S
C1460 H1479 0.913 . S
C1461 H1437 0.950 . S
C1461 C1460 1.524 . S
C1461 C1462 1.415 . S
C1462 H1438 0.950 . S
C1462 C1457 1.363 . S
C1462 C1461 1.415 . S
C1463 H1439 0.951 . S
C1463 C1464 1.366 . S
C1463 C1465 1.388 . S
C1464 C1463 1.366 . S
C1464 C1468 1.385 . S
C1465 H1440 0.951 . S
C1465 C1463 1.388 . S
C1465 C1466 1.366 . S
C1466 C1465 1.366 . S
C1466 C1467 1.414 . S
C1466 C1469 1.499 . S
C1467 H1441 0.950 . S
C1467 C1466 1.414 . S
C1467 C1468 1.374 . S
C1468 H1442 0.950 . S
C1468 C1464 1.385 . S
C1468 C1467 1.374 . S
C1469 C1466 1.499 . S
C1469 C1470 1.373 . S
C1469 C1471 1.389 . S
C1470 H1443 0.950 . S
C1470 C1456 1.377 . S
C1470 C1469 1.373 . S
C1471 C1455 1.377 . S
C1471 C1469 1.389 . S
C1471 C1472 1.524 . S
C1472 C1471 1.524 . S
C1472 C1473 1.397 . S
C1472 C1477 1.363 . S
C1473 H1444 0.950 . S
C1473 C1472 1.397 . S
C1473 C1474 1.334 . S
C1474 H1445 0.950 . S
C1474 C1473 1.334 . S
C1474 C1475 1.287 . S
C1475 C1474 1.287 . S
C1475 C1476 1.524 . S
C1475 H1478 0.999 . S
C1476 H1446 0.950 . S
C1476 C1475 1.524 . S
C1476 C1477 1.415 . S
C1477 H1447 0.950 . S
C1477 C1472 1.363 . S
C1477 C1476 1.415 . S
H1478 C1475 0.999 . S
H1479 C1460 0.913 . S
H1480 C1498 0.951 . S
H1481 C1500 0.951 . S
H1482 C1502 0.950 . S
H1483 C1503 0.950 . S
H1484 C1505 0.950 . S
H1485 C1508 0.950 . S
H1486 C1509 0.950 . S
H1487 C1511 0.950 . S
H1488 C1512 0.950 . S
H1489 C1513 0.951 . S
H1490 C1515 0.951 . S
H1491 C1517 0.950 . S
H1492 C1518 0.950 . S
H1493 C1520 0.950 . S
H1494 C1523 0.950 . S
H1495 C1524 0.950 . S
H1496 C1526 0.950 . S
H1497 C1527 0.950 . S
C1498 H1480 0.951 . S
C1498 C1499 1.366 . S
C1498 C1500 1.388 . S
C1499 C1498 1.366 . S
C1499 C1503 1.385 . S
C1500 H1481 0.951 . S
C1500 C1498 1.388 . S
C1500 C1501 1.366 . S
C1501 C1500 1.366 . S
C1501 C1502 1.414 . S
C1501 C1504 1.499 . S
C1502 H1482 0.950 . S
C1502 C1501 1.414 . S
C1502 C1503 1.374 . S
C1503 H1483 0.950 . S
C1503 C1499 1.385 . S
C1503 C1502 1.374 . S
C1504 C1501 1.499 . S
C1504 C1505 1.373 . S
C1504 C1506 1.389 . S
C1505 H1484 0.950 . S
C1505 C1504 1.373 . S
C1505 C1521 1.377 . S
C1506 C1504 1.389 . S
C1506 C1507 1.524 . S
C1506 C1520 1.377 . S
C1507 C1506 1.524 . S
C1507 C1508 1.397 . S
C1507 C1512 1.363 . S
C1508 H1485 0.950 . S
C1508 C1507 1.397 . S
C1508 C1509 1.334 . S
C1509 H1486 0.950 . S
C1509 C1508 1.334 . S
C1509 C1510 1.287 . S
C1510 C1509 1.287 . S
C1510 C1511 1.524 . S
C1510 H1529 0.913 . S
C1511 H1487 0.950 . S
C1511 C1510 1.524 . S
C1511 C1512 1.415 . S
C1512 H1488 0.950 . S
C1512 C1507 1.363 . S
C1512 C1511 1.415 . S
C1513 H1489 0.951 . S
C1513 C1514 1.366 . S
C1513 C1515 1.388 . S
C1514 C1513 1.366 . S
C1514 C1518 1.385 . S
C1515 H1490 0.951 . S
C1515 C1513 1.388 . S
C1515 C1516 1.366 . S
C1516 C1515 1.366 . S
C1516 C1517 1.414 . S
C1516 C1519 1.499 . S
C1517 H1491 0.950 . S
C1517 C1516 1.414 . S
C1517 C1518 1.374 . S
C1518 H1492 0.950 . S
C1518 C1514 1.385 . S
C1518 C1517 1.374 . S
C1519 C1516 1.499 . S
C1519 C1520 1.373 . S
C1519 C1521 1.389 . S
C1520 H1493 0.950 . S
C1520 C1506 1.377 . S
C1520 C1519 1.373 . S
C1521 C1505 1.377 . S
C1521 C1519 1.389 . S
C1521 C1522 1.524 . S
C1522 C1521 1.524 . S
C1522 C1523 1.397 . S
C1522 C1527 1.363 . S
C1523 H1494 0.950 . S
C1523 C1522 1.397 . S
C1523 C1524 1.334 . S
C1524 H1495 0.950 . S
C1524 C1523 1.334 . S
C1524 C1525 1.287 . S
C1525 C1524 1.287 . S
C1525 C1526 1.524 . S
C1525 H1528 0.999 . S
C1526 H1496 0.950 . S
C1526 C1525 1.524 . S
C1526 C1527 1.415 . S
C1527 H1497 0.950 . S
C1527 C1522 1.363 . S
C1527 C1526 1.415 . S
H1528 C1525 0.999 . S
H1529 C1510 0.913 . S
H1530 C1548 0.951 . S
H1531 C1550 0.951 . S
H1532 C1552 0.950 . S
H1533 C1553 0.950 . S
H1534 C1555 0.950 . S
H1535 C1558 0.950 . S
H1536 C1559 0.950 . S
H1537 C1561 0.950 . S
H1538 C1562 0.950 . S
H1539 C1563 0.951 . S
H1540 C1565 0.951 . S
H1541 C1567 0.950 . S
H1542 C1568 0.950 . S
H1543 C1570 0.950 . S
H1544 C1573 0.950 . S
H1545 C1574 0.950 . S
H1546 C1576 0.950 . S
H1547 C1577 0.950 . S
C1548 H1530 0.951 . S
C1548 C1549 1.366 . S
C1548 C1550 1.388 . S
C1549 C1548 1.366 . S
C1549 C1553 1.385 . S
C1550 H1531 0.951 . S
C1550 C1548 1.388 . S
C1550 C1551 1.366 . S
C1551 C1550 1.366 . S
C1551 C1552 1.414 . S
C1551 C1554 1.499 . S
C1552 H1532 0.950 . S
C1552 C1551 1.414 . S
C1552 C1553 1.374 . S
C1553 H1533 0.950 . S
C1553 C1549 1.385 . S
C1553 C1552 1.374 . S
C1554 C1551 1.499 . S
C1554 C1555 1.373 . S
C1554 C1556 1.389 . S
C1555 H1534 0.950 . S
C1555 C1554 1.373 . S
C1555 C1571 1.377 . S
C1556 C1554 1.389 . S
C1556 C1557 1.524 . S
C1556 C1570 1.377 . S
C1557 C1556 1.524 . S
C1557 C1558 1.397 . S
C1557 C1562 1.363 . S
C1558 H1535 0.950 . S
C1558 C1557 1.397 . S
C1558 C1559 1.334 . S
C1559 H1536 0.950 . S
C1559 C1558 1.334 . S
C1559 C1560 1.287 . S
C1560 C1559 1.287 . S
C1560 C1561 1.524 . S
C1560 H1579 0.913 . S
C1561 H1537 0.950 . S
C1561 C1560 1.524 . S
C1561 C1562 1.415 . S
C1562 H1538 0.950 . S
C1562 C1557 1.363 . S
C1562 C1561 1.415 . S
C1563 H1539 0.951 . S
C1563 C1564 1.366 . S
C1563 C1565 1.388 . S
C1564 C1563 1.366 . S
C1564 C1568 1.385 . S
C1565 H1540 0.951 . S
C1565 C1563 1.388 . S
C1565 C1566 1.366 . S
C1566 C1565 1.366 . S
C1566 C1567 1.414 . S
C1566 C1569 1.499 . S
C1567 H1541 0.950 . S
C1567 C1566 1.414 . S
C1567 C1568 1.374 . S
C1568 H1542 0.950 . S
C1568 C1564 1.385 . S
C1568 C1567 1.374 . S
C1569 C1566 1.499 . S
C1569 C1570 1.373 . S
C1569 C1571 1.389 . S
C1570 H1543 0.950 . S
C1570 C1556 1.377 . S
C1570 C1569 1.373 . S
C1571 C1555 1.377 . S
C1571 C1569 1.389 . S
C1571 C1572 1.524 . S
C1572 C1571 1.524 . S
C1572 C1573 1.397 . S
C1572 C1577 1.363 . S
C1573 H1544 0.950 . S
C1573 C1572 1.397 . S
C1573 C1574 1.334 . S
C1574 H1545 0.950 . S
C1574 C1573 1.334 . S
C1574 C1575 1.287 . S
C1575 C1574 1.287 . S
C1575 C1576 1.524 . S
C1575 H1578 0.999 . S
C1576 H1546 0.950 . S
C1576 C1575 1.524 . S
C1576 C1577 1.415 . S
C1577 H1547 0.950 . S
C1577 C1572 1.363 . S
C1577 C1576 1.415 . S
H1578 C1575 0.999 . S
H1579 C1560 0.913 . S
H1580 C1598 0.951 . S
H1581 C1600 0.951 . S
H1582 C1602 0.950 . S
H1583 C1603 0.950 . S
H1584 C1605 0.950 . S
H1585 C1608 0.950 . S
H1586 C1609 0.950 . S
H1587 C1611 0.950 . S
H1588 C1612 0.950 . S
H1589 C1613 0.951 . S
H1590 C1615 0.951 . S
H1591 C1617 0.950 . S
H1592 C1618 0.950 . S
H1593 C1620 0.950 . S
H1594 C1623 0.950 . S
H1595 C1624 0.950 . S
H1596 C1626 0.950 . S
H1597 C1627 0.950 . S
C1598 H1580 0.951 . S
C1598 C1599 1.366 . S
C1598 C1600 1.388 . S
C1599 C1598 1.366 . S
C1599 C1603 1.385 . S
C1600 H1581 0.951 . S
C1600 C1598 1.388 . S
C1600 C1601 1.366 . S
C1601 C1600 1.366 . S
C1601 C1602 1.414 . S
C1601 C1604 1.499 . S
C1602 H1582 0.950 . S
C1602 C1601 1.414 . S
C1602 C1603 1.374 . S
C1603 H1583 0.950 . S
C1603 C1599 1.385 . S
C1603 C1602 1.374 . S
C1604 C1601 1.499 . S
C1604 C1605 1.373 . S
C1604 C1606 1.389 . S
C1605 H1584 0.950 . S
C1605 C1604 1.373 . S
C1605 C1621 1.377 . S
C1606 C1604 1.389 . S
C1606 C1607 1.524 . S
C1606 C1620 1.377 . S
C1607 C1606 1.524 . S
C1607 C1608 1.397 . S
C1607 C1612 1.363 . S
C1608 H1585 0.950 . S
C1608 C1607 1.397 . S
C1608 C1609 1.334 . S
C1609 H1586 0.950 . S
C1609 C1608 1.334 . S
C1609 C1610 1.287 . S
C1610 C1609 1.287 . S
C1610 C1611 1.524 . S
C1610 H1629 0.913 . S
C1611 H1587 0.950 . S
C1611 C1610 1.524 . S
C1611 C1612 1.415 . S
C1612 H1588 0.950 . S
C1612 C1607 1.363 . S
C1612 C1611 1.415 . S
C1613 H1589 0.951 . S
C1613 C1614 1.366 . S
C1613 C1615 1.388 . S
C1614 C1613 1.366 . S
C1614 C1618 1.385 . S
C1615 H1590 0.951 . S
C1615 C1613 1.388 . S
C1615 C1616 1.366 . S
C1616 C1615 1.366 . S
C1616 C1617 1.414 . S
C1616 C1619 1.499 . S
C1617 H1591 0.950 . S
C1617 C1616 1.414 . S
C1617 C1618 1.374 . S
C1618 H1592 0.950 . S
C1618 C1614 1.385 . S
C1618 C1617 1.374 . S
C1619 C1616 1.499 . S
C1619 C1620 1.373 . S
C1619 C1621 1.389 . S
C1620 H1593 0.950 . S
C1620 C1606 1.377 . S
C1620 C1619 1.373 . S
C1621 C1605 1.377 . S
C1621 C1619 1.389 . S
C1621 C1622 1.524 . S
C1622 C1621 1.524 . S
C1622 C1623 1.397 . S
C1622 C1627 1.363 . S
C1623 H1594 0.950 . S
C1623 C1622 1.397 . S
C1623 C1624 1.334 . S
C1624 H1595 0.950 . S
C1624 C1623 1.334 . S
C1624 C1625 1.287 . S
C1625 C1624 1.287 . S
C1625 C1626 1.524 . S
C1625 H1628 0.999 . S
C1626 H1596 0.950 . S
C1626 C1625 1.524 . S
C1626 C1627 1.415 . S
C1627 H1597 0.950 . S
C1627 C1622 1.363 . S
C1627 C1626 1.415 . S
H1628 C1625 0.999 . S
H1629 C1610 0.913 . S
H1630 C1648 0.951 . S
H1631 C1650 0.951 . S
H1632 C1652 0.950 . S
H1633 C1653 0.950 . S
H1634 C1655 0.950 . S
H1635 C1658 0.950 . S
H1636 C1659 0.950 . S
H1637 C1661 0.950 . S
H1638 C1662 0.950 . S
H1639 C1663 0.951 . S
H1640 C1665 0.951 . S
H1641 C1667 0.950 . S
H1642 C1668 0.950 . S
H1643 C1670 0.950 . S
H1644 C1673 0.950 . S
H1645 C1674 0.950 . S
H1646 C1676 0.950 . S
H1647 C1677 0.950 . S
C1648 H1630 0.951 . S
C1648 C1649 1.366 . S
C1648 C1650 1.388 . S
C1649 C1648 1.366 . S
C1649 C1653 1.385 . S
C1650 H1631 0.951 . S
C1650 C1648 1.388 . S
C1650 C1651 1.366 . S
C1651 C1650 1.366 . S
C1651 C1652 1.414 . S
C1651 C1654 1.499 . S
C1652 H1632 0.950 . S
C1652 C1651 1.414 . S
C1652 C1653 1.374 . S
C1653 H1633 0.950 . S
C1653 C1649 1.385 . S
C1653 C1652 1.374 . S
C1654 C1651 1.499 . S
C1654 C1655 1.373 . S
C1654 C1656 1.389 . S
C1655 H1634 0.950 . S
C1655 C1654 1.373 . S
C1655 C1671 1.377 . S
C1656 C1654 1.389 . S
C1656 C1657 1.524 . S
C1656 C1670 1.377 . S
C1657 C1656 1.524 . S
C1657 C1658 1.397 . S
C1657 C1662 1.363 . S
C1658 H1635 0.950 . S
C1658 C1657 1.397 . S
C1658 C1659 1.334 . S
C1659 H1636 0.950 . S
C1659 C1658 1.334 . S
C1659 C1660 1.287 . S
C1660 C1659 1.287 . S
C1660 C1661 1.524 . S
C1660 H1679 0.913 . S
C1661 H1637 0.950 . S
C1661 C1660 1.524 . S
C1661 C1662 1.415 . S
C1662 H1638 0.950 . S
C1662 C1657 1.363 . S
C1662 C1661 1.415 . S
C1663 H1639 0.951 . S
C1663 C1664 1.366 . S
C1663 C1665 1.388 . S
C1664 C1663 1.366 . S
C1664 C1668 1.385 . S
C1665 H1640 0.951 . S
C1665 C1663 1.388 . S
C1665 C1666 1.366 . S
C1666 C1665 1.366 . S
C1666 C1667 1.414 . S
C1666 C1669 1.499 . S
C1667 H1641 0.950 . S
C1667 C1666 1.414 . S
C1667 C1668 1.374 . S
C1668 H1642 0.950 . S
C1668 C1664 1.385 . S
C1668 C1667 1.374 . S
C1669 C1666 1.499 . S
C1669 C1670 1.373 . S
C1669 C1671 1.389 . S
C1670 H1643 0.950 . S
C1670 C1656 1.377 . S
C1670 C1669 1.373 . S
C1671 C1655 1.377 . S
C1671 C1669 1.389 . S
C1671 C1672 1.524 . S
C1672 C1671 1.524 . S
C1672 C1673 1.397 . S
C1672 C1677 1.363 . S
C1673 H1644 0.950 . S
C1673 C1672 1.397 . S
C1673 C1674 1.334 . S
C1674 H1645 0.950 . S
C1674 C1673 1.334 . S
C1674 C1675 1.287 . S
C1675 C1674 1.287 . S
C1675 C1676 1.524 . S
C1675 H1678 0.999 . S
C1676 H1646 0.950 . S
C1676 C1675 1.524 . S
C1676 C1677 1.415 . S
C1677 H1647 0.950 . S
C1677 C1672 1.363 . S
C1677 C1676 1.415 . S
H1678 C1675 0.999 . S
H1679 C1660 0.913 . S
H1680 C1698 0.951 . S
H1681 C1700 0.951 . S
H1682 C1702 0.950 . S
H1683 C1703 0.950 . S
H1684 C1705 0.950 . S
H1685 C1708 0.950 . S
H1686 C1709 0.950 . S
H1687 C1711 0.950 . S
H1688 C1712 0.950 . S
H1689 C1713 0.951 . S
H1690 C1715 0.951 . S
H1691 C1717 0.950 . S
H1692 C1718 0.950 . S
H1693 C1720 0.950 . S
H1694 C1723 0.950 . S
H1695 C1724 0.950 . S
H1696 C1726 0.950 . S
H1697 C1727 0.950 . S
C1698 H1680 0.951 . S
C1698 C1699 1.366 . S
C1698 C1700 1.388 . S
C1699 C1698 1.366 . S
C1699 C1703 1.385 . S
C1700 H1681 0.951 . S
C1700 C1698 1.388 . S
C1700 C1701 1.366 . S
C1701 C1700 1.366 . S
C1701 C1702 1.414 . S
C1701 C1704 1.499 . S
C1702 H1682 0.950 . S
C1702 C1701 1.414 . S
C1702 C1703 1.374 . S
C1703 H1683 0.950 . S
C1703 C1699 1.385 . S
C1703 C1702 1.374 . S
C1704 C1701 1.499 . S
C1704 C1705 1.373 . S
C1704 C1706 1.389 . S
C1705 H1684 0.950 . S
C1705 C1704 1.373 . S
C1705 C1721 1.377 . S
C1706 C1704 1.389 . S
C1706 C1707 1.524 . S
C1706 C1720 1.377 . S
C1707 C1706 1.524 . S
C1707 C1708 1.397 . S
C1707 C1712 1.363 . S
C1708 H1685 0.950 . S
C1708 C1707 1.397 . S
C1708 C1709 1.334 . S
C1709 H1686 0.950 . S
C1709 C1708 1.334 . S
C1709 C1710 1.287 . S
C1710 C1709 1.287 . S
C1710 C1711 1.524 . S
C1710 H1729 0.913 . S
C1711 H1687 0.950 . S
C1711 C1710 1.524 . S
C1711 C1712 1.415 . S
C1712 H1688 0.950 . S
C1712 C1707 1.363 . S
C1712 C1711 1.415 . S
C1713 H1689 0.951 . S
C1713 C1714 1.366 . S
C1713 C1715 1.388 . S
C1714 C1713 1.366 . S
C1714 C1718 1.385 . S
C1715 H1690 0.951 . S
C1715 C1713 1.388 . S
C1715 C1716 1.366 . S
C1716 C1715 1.366 . S
C1716 C1717 1.414 . S
C1716 C1719 1.499 . S
C1717 H1691 0.950 . S
C1717 C1716 1.414 . S
C1717 C1718 1.374 . S
C1718 H1692 0.950 . S
C1718 C1714 1.385 . S
C1718 C1717 1.374 . S
C1719 C1716 1.499 . S
C1719 C1720 1.373 . S
C1719 C1721 1.389 . S
C1720 H1693 0.950 . S
C1720 C1706 1.377 . S
C1720 C1719 1.373 . S
C1721 C1705 1.377 . S
C1721 C1719 1.389 . S
C1721 C1722 1.524 . S
C1722 C1721 1.524 . S
C1722 C1723 1.397 . S
C1722 C1727 1.363 . S
C1723 H1694 0.950 . S
C1723 C1722 1.397 . S
C1723 C1724 1.334 . S
C1724 H1695 0.950 . S
C1724 C1723 1.334 . S
C1724 C1725 1.287 . S
C1725 C1724 1.287 . S
C1725 C1726 1.524 . S
C1725 H1728 0.999 . S
C1726 H1696 0.950 . S
C1726 C1725 1.524 . S
C1726 C1727 1.415 . S
C1727 H1697 0.950 . S
C1727 C1722 1.363 . S
C1727 C1726 1.415 . S
H1728 C1725 0.999 . S
H1729 C1710 0.913 . S
H1730 C1748 0.951 . S
H1731 C1750 0.951 . S
H1732 C1752 0.950 . S
H1733 C1753 0.950 . S
H1734 C1755 0.950 . S
H1735 C1758 0.950 . S
H1736 C1759 0.950 . S
H1737 C1761 0.950 . S
H1738 C1762 0.950 . S
H1739 C1763 0.951 . S
H1740 C1765 0.951 . S
H1741 C1767 0.950 . S
H1742 C1768 0.950 . S
H1743 C1770 0.950 . S
H1744 C1773 0.950 . S
H1745 C1774 0.950 . S
H1746 C1776 0.950 . S
H1747 C1777 0.950 . S
C1748 H1730 0.951 . S
C1748 C1749 1.366 . S
C1748 C1750 1.388 . S
C1749 C1748 1.366 . S
C1749 C1753 1.385 . S
C1750 H1731 0.951 . S
C1750 C1748 1.388 . S
C1750 C1751 1.366 . S
C1751 C1750 1.366 . S
C1751 C1752 1.414 . S
C1751 C1754 1.499 . S
C1752 H1732 0.950 . S
C1752 C1751 1.414 . S
C1752 C1753 1.374 . S
C1753 H1733 0.950 . S
C1753 C1749 1.385 . S
C1753 C1752 1.374 . S
C1754 C1751 1.499 . S
C1754 C1755 1.373 . S
C1754 C1756 1.389 . S
C1755 H1734 0.950 . S
C1755 C1754 1.373 . S
C1755 C1771 1.377 . S
C1756 C1754 1.389 . S
C1756 C1757 1.524 . S
C1756 C1770 1.377 . S
C1757 C1756 1.524 . S
C1757 C1758 1.397 . S
C1757 C1762 1.363 . S
C1758 H1735 0.950 . S
C1758 C1757 1.397 . S
C1758 C1759 1.334 . S
C1759 H1736 0.950 . S
C1759 C1758 1.334 . S
C1759 C1760 1.287 . S
C1760 C1759 1.287 . S
C1760 C1761 1.524 . S
C1760 H1779 0.913 . S
C1761 H1737 0.950 . S
C1761 C1760 1.524 . S
C1761 C1762 1.415 . S
C1762 H1738 0.950 . S
C1762 C1757 1.363 . S
C1762 C1761 1.415 . S
C1763 H1739 0.951 . S
C1763 C1764 1.366 . S
C1763 C1765 1.388 . S
C1764 C1763 1.366 . S
C1764 C1768 1.385 . S
C1765 H1740 0.951 . S
C1765 C1763 1.388 . S
C1765 C1766 1.366 . S
C1766 C1765 1.366 . S
C1766 C1767 1.414 . S
C1766 C1769 1.499 . S
C1767 H1741 0.950 . S
C1767 C1766 1.414 . S
C1767 C1768 1.374 . S
C1768 H1742 0.950 . S
C1768 C1764 1.385 . S
C1768 C1767 1.374 . S
C1769 C1766 1.499 . S
C1769 C1770 1.373 . S
C1769 C1771 1.389 . S
C1770 H1743 0.950 . S
C1770 C1756 1.377 . S
C1770 C1769 1.373 . S
C1771 C1755 1.377 . S
C1771 C1769 1.389 . S
C1771 C1772 1.524 . S
C1772 C1771 1.524 . S
C1772 C1773 1.397 . S
C1772 C1777 1.363 . S
C1773 H1744 0.950 . S
C1773 C1772 1.397 . S
C1773 C1774 1.334 . S
C1774 H1745 0.950 . S
C1774 C1773 1.334 . S
C1774 C1775 1.287 . S
C1775 C1774 1.287 . S
C1775 C1776 1.524 . S
C1775 H1778 0.999 . S
C1776 H1746 0.950 . S
C1776 C1775 1.524 . S
C1776 C1777 1.415 . S
C1777 H1747 0.950 . S
C1777 C1772 1.363 . S
C1777 C1776 1.415 . S
H1778 C1775 0.999 . S
H1779 C1760 0.913 . S
H1780 C1798 0.951 . S
H1781 C1800 0.951 . S
H1782 C1802 0.950 . S
H1783 C1803 0.950 . S
H1784 C1805 0.950 . S
H1785 C1808 0.950 . S
H1786 C1809 0.950 . S
H1787 C1811 0.950 . S
H1788 C1812 0.950 . S
H1789 C1813 0.951 . S
H1790 C1815 0.951 . S
H1791 C1817 0.950 . S
H1792 C1818 0.950 . S
H1793 C1820 0.950 . S
H1794 C1823 0.950 . S
H1795 C1824 0.950 . S
H1796 C1826 0.950 . S
H1797 C1827 0.950 . S
C1798 H1780 0.951 . S
C1798 C1799 1.366 . S
C1798 C1800 1.388 . S
C1799 C1798 1.366 . S
C1799 C1803 1.385 . S
C1800 H1781 0.951 . S
C1800 C1798 1.388 . S
C1800 C1801 1.366 . S
C1801 C1800 1.366 . S
C1801 C1802 1.414 . S
C1801 C1804 1.499 . S
C1802 H1782 0.950 . S
C1802 C1801 1.414 . S
C1802 C1803 1.374 . S
C1803 H1783 0.950 . S
C1803 C1799 1.385 . S
C1803 C1802 1.374 . S
C1804 C1801 1.499 . S
C1804 C1805 1.373 . S
C1804 C1806 1.389 . S
C1805 H1784 0.950 . S
C1805 C1804 1.373 . S
C1805 C1821 1.377 . S
C1806 C1804 1.389 . S
C1806 C1807 1.524 . S
C1806 C1820 1.377 . S
C1807 C1806 1.524 . S
C1807 C1808 1.397 . S
C1807 C1812 1.363 . S
C1808 H1785 0.950 . S
C1808 C1807 1.397 . S
C1808 C1809 1.334 . S
C1809 H1786 0.950 . S
C1809 C1808 1.334 . S
C1809 C1810 1.287 . S
C1810 C1809 1.287 . S
C1810 C1811 1.524 . S
C1810 H1829 0.913 . S
C1811 H1787 0.950 . S
C1811 C1810 1.524 . S
C1811 C1812 1.415 . S
C1812 H1788 0.950 . S
C1812 C1807 1.363 . S
C1812 C1811 1.415 . S
C1813 H1789 0.951 . S
C1813 C1814 1.366 . S
C1813 C1815 1.388 . S
C1814 C1813 1.366 . S
C1814 C1818 1.385 . S
C1815 H1790 0.951 . S
C1815 C1813 1.388 . S
C1815 C1816 1.366 . S
C1816 C1815 1.366 . S
C1816 C1817 1.414 . S
C1816 C1819 1.499 . S
C1817 H1791 0.950 . S
C1817 C1816 1.414 . S
C1817 C1818 1.374 . S
C1818 H1792 0.950 . S
C1818 C1814 1.385 . S
C1818 C1817 1.374 . S
C1819 C1816 1.499 . S
C1819 C1820 1.373 . S
C1819 C1821 1.389 . S
C1820 H1793 0.950 . S
C1820 C1806 1.377 . S
C1820 C1819 1.373 . S
C1821 C1805 1.377 . S
C1821 C1819 1.389 . S
C1821 C1822 1.524 . S
C1822 C1821 1.524 . S
C1822 C1823 1.397 . S
C1822 C1827 1.363 . S
C1823 H1794 0.950 . S
C1823 C1822 1.397 . S
C1823 C1824 1.334 . S
C1824 H1795 0.950 . S
C1824 C1823 1.334 . S
C1824 C1825 1.287 . S
C1825 C1824 1.287 . S
C1825 C1826 1.524 . S
C1825 H1828 0.999 . S
C1826 H1796 0.950 . S
C1826 C1825 1.524 . S
C1826 C1827 1.415 . S
C1827 H1797 0.950 . S
C1827 C1822 1.363 . S
C1827 C1826 1.415 . S
H1828 C1825 0.999 . S
H1829 C1810 0.913 . S
H1830 C1848 0.951 . S
H1831 C1850 0.951 . S
H1832 C1852 0.950 . S
H1833 C1853 0.950 . S
H1834 C1855 0.950 . S
H1835 C1858 0.950 . S
H1836 C1859 0.950 . S
H1837 C1861 0.950 . S
H1838 C1862 0.950 . S
H1839 C1863 0.951 . S
H1840 C1865 0.951 . S
H1841 C1867 0.950 . S
H1842 C1868 0.950 . S
H1843 C1870 0.950 . S
H1844 C1873 0.950 . S
H1845 C1874 0.950 . S
H1846 C1876 0.950 . S
H1847 C1877 0.950 . S
C1848 H1830 0.951 . S
C1848 C1849 1.366 . S
C1848 C1850 1.388 . S
C1849 C1848 1.366 . S
C1849 C1853 1.385 . S
C1850 H1831 0.951 . S
C1850 C1848 1.388 . S
C1850 C1851 1.366 . S
C1851 C1850 1.366 . S
C1851 C1852 1.414 . S
C1851 C1854 1.499 . S
C1852 H1832 0.950 . S
C1852 C1851 1.414 . S
C1852 C1853 1.374 . S
C1853 H1833 0.950 . S
C1853 C1849 1.385 . S
C1853 C1852 1.374 . S
C1854 C1851 1.499 . S
C1854 C1855 1.373 . S
C1854 C1856 1.389 . S
C1855 H1834 0.950 . S
C1855 C1854 1.373 . S
C1855 C1871 1.377 . S
C1856 C1854 1.389 . S
C1856 C1857 1.524 . S
C1856 C1870 1.377 . S
C1857 C1856 1.524 . S
C1857 C1858 1.397 . S
C1857 C1862 1.363 . S
C1858 H1835 0.950 . S
C1858 C1857 1.397 . S
C1858 C1859 1.334 . S
C1859 H1836 0.950 . S
C1859 C1858 1.334 . S
C1859 C1860 1.287 . S
C1860 C1859 1.287 . S
C1860 C1861 1.524 . S
C1860 H1879 0.913 . S
C1861 H1837 0.950 . S
C1861 C1860 1.524 . S
C1861 C1862 1.415 . S
C1862 H1838 0.950 . S
C1862 C1857 1.363 . S
C1862 C1861 1.415 . S
C1863 H1839 0.951 . S
C1863 C1864 1.366 . S
C1863 C1865 1.388 . S
C1864 C1863 1.366 . S
C1864 C1868 1.385 . S
C1865 H1840 0.951 . S
C1865 C1863 1.388 . S
C1865 C1866 1.366 . S
C1866 C1865 1.366 . S
C1866 C1867 1.414 . S
C1866 C1869 1.499 . S
C1867 H1841 0.950 . S
C1867 C1866 1.414 . S
C1867 C1868 1.374 . S
C1868 H1842 0.950 . S
C1868 C1864 1.385 . S
C1868 C1867 1.374 . S
C1869 C1866 1.499 . S
C1869 C1870 1.373 . S
C1869 C1871 1.389 . S
C1870 H1843 0.950 . S
C1870 C1856 1.377 . S
C1870 C1869 1.373 . S
C1871 C1855 1.377 . S
C1871 C1869 1.389 . S
C1871 C1872 1.524 . S
C1872 C1871 1.524 . S
C1872 C1873 1.397 . S
C1872 C1877 1.363 . S
C1873 H1844 0.950 . S
C1873 C1872 1.397 . S
C1873 C1874 1.334 . S
C1874 H1845 0.950 . S
C1874 C1873 1.334 . S
C1874 C1875 1.287 . S
C1875 C1874 1.287 . S
C1875 C1876 1.524 . S
C1875 H1878 0.999 . S
C1876 H1846 0.950 . S
C1876 C1875 1.524 . S
C1876 C1877 1.415 . S
C1877 H1847 0.950 . S
C1877 C1872 1.363 . S
C1877 C1876 1.415 . S
H1878 C1875 0.999 . S
H1879 C1860 0.913 . S
H1880 C1898 0.951 . S
H1881 C1900 0.951 . S
H1882 C1902 0.950 . S
H1883 C1903 0.950 . S
H1884 C1905 0.950 . S
H1885 C1908 0.950 . S
H1886 C1909 0.950 . S
H1887 C1911 0.950 . S
H1888 C1912 0.950 . S
H1889 C1913 0.951 . S
H1890 C1915 0.951 . S
H1891 C1917 0.950 . S
H1892 C1918 0.950 . S
H1893 C1920 0.950 . S
H1894 C1923 0.950 . S
H1895 C1924 0.950 . S
H1896 C1926 0.950 . S
H1897 C1927 0.950 . S
C1898 H1880 0.951 . S
C1898 C1899 1.366 . S
C1898 C1900 1.388 . S
C1899 C1898 1.366 . S
C1899 C1903 1.385 . S
C1900 H1881 0.951 . S
C1900 C1898 1.388 . S
C1900 C1901 1.366 . S
C1901 C1900 1.366 . S
C1901 C1902 1.414 . S
C1901 C1904 1.499 . S
C1902 H1882 0.950 . S
C1902 C1901 1.414 . S
C1902 C1903 1.374 . S
C1903 H1883 0.950 . S
C1903 C1899 1.385 . S
C1903 C1902 1.374 . S
C1904 C1901 1.499 . S
C1904 C1905 1.373 . S
C1904 C1906 1.389 . S
C1905 H1884 0.950 . S
C1905 C1904 1.373 . S
C1905 C1921 1.377 . S
C1906 C1904 1.389 . S
C1906 C1907 1.524 . S
C1906 C1920 1.377 . S
C1907 C1906 1.524 . S
C1907 C1908 1.397 . S
C1907 C1912 1.363 . S
C1908 H1885 0.950 . S
C1908 C1907 1.397 . S
C1908 C1909 1.334 . S
C1909 H1886 0.950 . S
C1909 C1908 1.334 . S
C1909 C1910 1.287 . S
C1910 C1909 1.287 . S
C1910 C1911 1.524 . S
C1910 H1929 0.913 . S
C1911 H1887 0.950 . S
C1911 C1910 1.524 . S
C1911 C1912 1.415 . S
C1912 H1888 0.950 . S
C1912 C1907 1.363 . S
C1912 C1911 1.415 . S
C1913 H1889 0.951 . S
C1913 C1914 1.366 . S
C1913 C1915 1.388 . S
C1914 C1913 1.366 . S
C1914 C1918 1.385 . S
C1915 H1890 0.951 . S
C1915 C1913 1.388 . S
C1915 C1916 1.366 . S
C1916 C1915 1.366 . S
C1916 C1917 1.414 . S
C1916 C1919 1.499 . S
C1917 H1891 0.950 . S
C1917 C1916 1.414 . S
C1917 C1918 1.374 . S
C1918 H1892 0.950 . S
C1918 C1914 1.385 . S
C1918 C1917 1.374 . S
C1919 C1916 1.499 . S
C1919 C1920 1.373 . S
C1919 C1921 1.389 . S
C1920 H1893 0.950 . S
C1920 C1906 1.377 . S
C1920 C1919 1.373 . S
C1921 C1905 1.377 . S
C1921 C1919 1.389 . S
C1921 C1922 1.524 . S
C1922 C1921 1.524 . S
C1922 C1923 1.397 . S
C1922 C1927 1.363 . S
C1923 H1894 0.950 . S
C1923 C1922 1.397 . S
C1923 C1924 1.334 . S
C1924 H1895 0.950 . S
C1924 C1923 1.334 . S
C1924 C1925 1.287 . S
C1925 C1924 1.287 . S
C1925 C1926 1.524 . S
C1925 H1928 0.999 . S
C1926 H1896 0.950 . S
C1926 C1925 1.524 . S
C1926 C1927 1.415 . S
C1927 H1897 0.950 . S
C1927 C1922 1.363 . S
C1927 C1926 1.415 . S
H1928 C1925 0.999 . S
H1929 C1910 0.913 . S
H1930 C1948 0.951 . S
H1931 C1950 0.951 . S
H1932 C1952 0.950 . S
H1933 C1953 0.950 . S
H1934 C1955 0.950 . S
H1935 C1958 0.950 . S
H1936 C1959 0.950 . S
H1937 C1961 0.950 . S
H1938 C1962 0.950 . S
H1939 C1963 0.951 . S
H1940 C1965 0.951 . S
H1941 C1967 0.950 . S
H1942 C1968 0.950 . S
H1943 C1970 0.950 . S
H1944 C1973 0.950 . S
H1945 C1974 0.950 . S
H1946 C1976 0.950 . S
H1947 C1977 0.950 . S
C1948 H1930 0.951 . S
C1948 C1949 1.366 . S
C1948 C1950 1.388 . S
C1949 C1948 1.366 . S
C1949 C1953 1.385 . S
C1950 H1931 0.951 . S
C1950 C1948 1.388 . S
C1950 C1951 1.366 . S
C1951 C1950 1.366 . S
C1951 C1952 1.414 . S
C1951 C1954 1.499 . S
C1952 H1932 0.950 . S
C1952 C1951 1.414 . S
C1952 C1953 1.374 . S
C1953 H1933 0.950 . S
C1953 C1949 1.385 . S
C1953 C1952 1.374 . S
C1954 C1951 1.499 . S
C1954 C1955 1.373 . S
C1954 C1956 1.389 . S
C1955 H1934 0.950 . S
C1955 C1954 1.373 . S
C1955 C1971 1.377 . S
C1956 C1954 1.389 . S
C1956 C1957 1.524 . S
C1956 C1970 1.377 . S
C1957 C1956 1.524 . S
C1957 C1958 1.397 . S
C1957 C1962 1.363 . S
C1958 H1935 0.950 . S
C1958 C1957 1.397 . S
C1958 C1959 1.334 . S
C1959 H1936 0.950 . S
C1959 C1958 1.334 . S
C1959 C1960 1.287 . S
C1960 C1959 1.287 . S
C1960 C1961 1.524 . S
C1960 H1979 0.913 . S
C1961 H1937 0.950 . S
C1961 C1960 1.524 . S
C1961 C1962 1.415 . S
C1962 H1938 0.950 . S
C1962 C1957 1.363 . S
C1962 C1961 1.415 . S
C1963 H1939 0.951 . S
C1963 C1964 1.366 . S
C1963 C1965 1.388 . S
C1964 C1963 1.366 . S
C1964 C1968 1.385 . S
C1965 H1940 0.951 . S
C1965 C1963 1.388 . S
C1965 C1966 1.366 . S
C1966 C1965 1.366 . S
C1966 C1967 1.414 . S
C1966 C1969 1.499 . S
C1967 H1941 0.950 . S
C1967 C1966 1.414 . S
C1967 C1968 1.374 . S
C1968 H1942 0.950 . S
C1968 C1964 1.385 . S
C1968 C1967 1.374 . S
C1969 C1966 1.499 . S
C1969 C1970 1.373 . S
C1969 C1971 1.389 . S
C1970 H1943 0.950 . S
C1970 C1956 1.377 . S
C1970 C1969 1.373 . S
C1971 C1955 1.377 . S
C1971 C1969 1.389 . S
C1971 C1972 1.524 . S
C1972 C1971 1.524 . S
C1972 C1973 1.397 . S
C1972 C1977 1.363 . S
C1973 H1944 0.950 . S
C1973 C1972 1.397 . S
C1973 C1974 1.334 . S
C1974 H1945 0.950 . S
C1974 C1973 1.334 . S
C1974 C1975 1.287 . S
C1975 C1974 1.287 . S
C1975 C1976 1.524 . S
C1975 H1978 0.999 . S
C1976 H1946 0.950 . S
C1976 C1975 1.524 . S
C1976 C1977 1.415 . S
C1977 H1947 0.950 . S
C1977 C1972 1.363 . S
C1977 C1976 1.415 . S
H1978 C1975 0.999 . S
H1979 C1960 0.913 . S
H1980 C1998 0.951 . S
H1981 C2000 0.951 . S
H1982 C2002 0.950 . S
H1983 C2003 0.950 . S
H1984 C2005 0.950 . S
H1985 C2008 0.950 . S
H1986 C2009 0.950 . S
H1987 C2011 0.950 . S
H1988 C2012 0.950 . S
H1989 C2013 0.951 . S
H1990 C2015 0.951 . S
H1991 C2017 0.950 . S
H1992 C2018 0.950 . S
H1993 C2020 0.950 . S
H1994 C2023 0.950 . S
H1995 C2024 0.950 . S
H1996 C2026 0.950 . S
H1997 C2027 0.950 . S
C1998 H1980 0.951 . S
C1998 C1999 1.366 . S
C1998 C2000 1.388 . S
C1999 C1998 1.366 . S
C1999 C2003 1.385 . S
C2000 H1981 0.951 . S
C2000 C1998 1.388 . S
C2000 C2001 1.366 . S
C2001 C2000 1.366 . S
C2001 C2002 1.414 . S
C2001 C2004 1.499 . S
C2002 H1982 0.950 . S
C2002 C2001 1.414 . S
C2002 C2003 1.374 . S
C2003 H1983 0.950 . S
C2003 C1999 1.385 . S
C2003 C2002 1.374 . S
C2004 C2001 1.499 . S
C2004 C2005 1.373 . S
C2004 C2006 1.389 . S
C2005 H1984 0.950 . S
C2005 C2004 1.373 . S
C2005 C2021 1.377 1_556 S
C2006 C2004 1.389 . S
C2006 C2007 1.524 . S
C2006 C2020 1.377 1_556 S
C2007 C2006 1.524 . S
C2007 C2008 1.397 . S
C2007 C2012 1.363 . S
C2008 H1985 0.950 . S
C2008 C2007 1.397 . S
C2008 C2009 1.334 . S
C2009 H1986 0.950 . S
C2009 C2008 1.334 . S
C2009 C2010 1.287 . S
C2010 C2009 1.287 . S
C2010 C2011 1.524 . S
C2010 H2029 0.913 . S
C2011 H1987 0.950 . S
C2011 C2010 1.524 . S
C2011 C2012 1.415 . S
C2012 H1988 0.950 . S
C2012 C2007 1.363 . S
C2012 C2011 1.415 . S
C2013 H1989 0.951 . S
C2013 C2014 1.366 . S
C2013 C2015 1.388 . S
C2014 C2013 1.366 . S
C2014 C2018 1.385 . S
C2015 H1990 0.951 . S
C2015 C2013 1.388 . S
C2015 C2016 1.366 . S
C2016 C2015 1.366 . S
C2016 C2017 1.414 . S
C2016 C2019 1.499 . S
C2017 H1991 0.950 . S
C2017 C2016 1.414 . S
C2017 C2018 1.374 . S
C2018 H1992 0.950 . S
C2018 C2014 1.385 . S
C2018 C2017 1.374 . S
C2019 C2016 1.499 . S
C2019 C2020 1.373 . S
C2019 C2021 1.389 . S
C2020 H1993 0.950 . S
C2020 C2006 1.377 1_554 S
C2020 C2019 1.373 . S
C2021 C2005 1.377 1_554 S
C2021 C2019 1.389 . S
C2021 C2022 1.524 . S
C2022 C2021 1.524 . S
C2022 C2023 1.397 . S
C2022 C2027 1.363 . S
C2023 H1994 0.950 . S
C2023 C2022 1.397 . S
C2023 C2024 1.334 . S
C2024 H1995 0.950 . S
C2024 C2023 1.334 . S
C2024 C2025 1.287 . S
C2025 C2024 1.287 . S
C2025 C2026 1.524 . S
C2025 H2028 0.999 . S
C2026 H1996 0.950 . S
C2026 C2025 1.524 . S
C2026 C2027 1.415 . S
C2027 H1997 0.950 . S
C2027 C2022 1.363 . S
C2027 C2026 1.415 . S
H2028 C2025 0.999 . S
H2029 C2010 0.913 . S
H2030 C2048 0.951 . S
H2031 C2050 0.951 . S
H2032 C2052 0.950 . S
H2033 C2053 0.950 . S
H2034 C2055 0.950 . S
H2035 C2058 0.950 . S
H2036 C2059 0.950 . S
H2037 C2061 0.950 . S
H2038 C2062 0.950 . S
H2039 C2063 0.951 . S
H2040 C2065 0.951 . S
H2041 C2067 0.950 . S
H2042 C2068 0.950 . S
H2043 C2070 0.950 . S
H2044 C2073 0.950 . S
H2045 C2074 0.950 . S
H2046 C2076 0.950 . S
H2047 C2077 0.950 . S
C2048 H2030 0.951 . S
C2048 C2049 1.366 . S
C2048 C2050 1.388 . S
C2049 C2048 1.366 . S
C2049 C2053 1.385 . S
C2050 H2031 0.951 . S
C2050 C2048 1.388 . S
C2050 C2051 1.366 . S
C2051 C2050 1.366 . S
C2051 C2052 1.414 . S
C2051 C2054 1.499 . S
C2052 H2032 0.950 . S
C2052 C2051 1.414 . S
C2052 C2053 1.374 . S
C2053 H2033 0.950 . S
C2053 C2049 1.385 . S
C2053 C2052 1.374 . S
C2054 C2051 1.499 . S
C2054 C2055 1.373 1_455 S
C2054 C2056 1.389 . S
C2055 H2034 0.950 . S
C2055 C2054 1.373 1_655 S
C2055 C2071 1.377 . S
C2056 C2054 1.389 . S
C2056 C2057 1.524 . S
C2056 C2070 1.377 . S
C2057 C2056 1.524 . S
C2057 C2058 1.397 . S
C2057 C2062 1.363 . S
C2058 H2035 0.950 . S
C2058 C2057 1.397 . S
C2058 C2059 1.334 . S
C2059 H2036 0.950 . S
C2059 C2058 1.334 . S
C2059 C2060 1.287 . S
C2060 C2059 1.287 . S
C2060 C2061 1.524 . S
C2060 H2079 0.913 . S
C2061 H2037 0.950 . S
C2061 C2060 1.524 . S
C2061 C2062 1.415 . S
C2062 H2038 0.950 . S
C2062 C2057 1.363 . S
C2062 C2061 1.415 . S
C2063 H2039 0.951 . S
C2063 C2064 1.366 . S
C2063 C2065 1.388 . S
C2064 C2063 1.366 . S
C2064 C2068 1.385 . S
C2065 H2040 0.951 . S
C2065 C2063 1.388 . S
C2065 C2066 1.366 . S
C2066 C2065 1.366 . S
C2066 C2067 1.414 . S
C2066 C2069 1.499 . S
C2067 H2041 0.950 . S
C2067 C2066 1.414 . S
C2067 C2068 1.374 . S
C2068 H2042 0.950 . S
C2068 C2064 1.385 . S
C2068 C2067 1.374 . S
C2069 C2066 1.499 . S
C2069 C2070 1.373 1_655 S
C2069 C2071 1.389 . S
C2070 H2043 0.950 . S
C2070 C2056 1.377 . S
C2070 C2069 1.373 1_455 S
C2071 C2055 1.377 . S
C2071 C2069 1.389 . S
C2071 C2072 1.524 . S
C2072 C2071 1.524 . S
C2072 C2073 1.397 . S
C2072 C2077 1.363 . S
C2073 H2044 0.950 . S
C2073 C2072 1.397 . S
C2073 C2074 1.334 . S
C2074 H2045 0.950 . S
C2074 C2073 1.334 . S
C2074 C2075 1.287 . S
C2075 C2074 1.287 . S
C2075 C2076 1.524 . S
C2075 H2078 0.999 . S
C2076 H2046 0.950 . S
C2076 C2075 1.524 . S
C2076 C2077 1.415 . S
C2077 H2047 0.950 . S
C2077 C2072 1.363 . S
C2077 C2076 1.415 . S
H2078 C2075 0.999 . S
H2079 C2060 0.913 . S
H2080 C2098 0.951 . S
H2081 C2100 0.951 . S
H2082 C2102 0.950 . S
H2083 C2103 0.950 . S
H2084 C2105 0.950 . S
H2085 C2108 0.950 . S
H2086 C2109 0.950 . S
H2087 C2111 0.950 . S
H2088 C2112 0.950 . S
H2089 C2113 0.951 . S
H2090 C2115 0.951 . S
H2091 C2117 0.950 . S
H2092 C2118 0.950 . S
H2093 C2120 0.950 . S
H2094 C2123 0.950 . S
H2095 C2124 0.950 . S
H2096 C2126 0.950 . S
H2097 C2127 0.950 . S
C2098 H2080 0.951 . S
C2098 C2099 1.366 . S
C2098 C2100 1.388 . S
C2099 C2098 1.366 . S
C2099 C2103 1.385 . S
C2100 H2081 0.951 . S
C2100 C2098 1.388 . S
C2100 C2101 1.366 . S
C2101 C2100 1.366 . S
C2101 C2102 1.414 . S
C2101 C2104 1.499 . S
C2102 H2082 0.950 . S
C2102 C2101 1.414 . S
C2102 C2103 1.374 . S
C2103 H2083 0.950 . S
C2103 C2099 1.385 . S
C2103 C2102 1.374 . S
C2104 C2101 1.499 . S
C2104 C2105 1.373 . S
C2104 C2106 1.389 . S
C2105 H2084 0.950 . S
C2105 C2104 1.373 . S
C2105 C2121 1.377 1_564 S
C2106 C2104 1.389 . S
C2106 C2107 1.537 1_565 S
C2106 C2120 1.377 1_564 S
C2107 C2106 1.537 1_545 S
C2107 C2108 1.405 . S
C2107 C2112 1.347 . S
C2108 H2085 0.950 . S
C2108 C2107 1.405 . S
C2108 C2109 1.334 . S
C2109 H2086 0.950 . S
C2109 C2108 1.334 . S
C2109 C2110 1.287 . S
C2110 C2109 1.287 . S
C2110 C2111 1.524 . S
C2110 H2129 0.913 . S
C2111 H2087 0.950 . S
C2111 C2110 1.524 . S
C2111 C2112 1.415 . S
C2112 H2088 0.950 . S
C2112 C2107 1.347 . S
C2112 C2111 1.415 . S
C2113 H2089 0.951 . S
C2113 C2114 1.366 . S
C2113 C2115 1.388 . S
C2114 C2113 1.366 . S
C2114 C2118 1.385 . S
C2115 H2090 0.951 . S
C2115 C2113 1.388 . S
C2115 C2116 1.366 . S
C2116 C2115 1.366 . S
C2116 C2117 1.414 . S
C2116 C2119 1.499 . S
C2117 H2091 0.950 . S
C2117 C2116 1.414 . S
C2117 C2118 1.374 . S
C2118 H2092 0.950 . S
C2118 C2114 1.385 . S
C2118 C2117 1.374 . S
C2119 C2116 1.499 . S
C2119 C2120 1.373 . S
C2119 C2121 1.389 . S
C2120 H2093 0.950 . S
C2120 C2106 1.377 1_546 S
C2120 C2119 1.373 . S
C2121 C2105 1.377 1_546 S
C2121 C2119 1.389 . S
C2121 C2122 1.537 1_545 S
C2122 C2121 1.537 1_565 S
C2122 C2123 1.405 . S
C2122 C2127 1.347 . S
C2123 H2094 0.950 . S
C2123 C2122 1.405 . S
C2123 C2124 1.334 . S
C2124 H2095 0.950 . S
C2124 C2123 1.334 . S
C2124 C2125 1.287 . S
C2125 C2124 1.287 . S
C2125 C2126 1.524 . S
C2125 H2128 0.999 . S
C2126 H2096 0.950 . S
C2126 C2125 1.524 . S
C2126 C2127 1.415 . S
C2127 H2097 0.950 . S
C2127 C2122 1.347 . S
C2127 C2126 1.415 . S
H2128 C2125 0.999 . S
H2129 C2110 0.913 . S
H2130 C2148 0.951 . S
H2131 C2150 0.951 . S
H2132 C2152 0.950 . S
H2133 C2153 0.950 . S
H2134 C2155 0.950 . S
H2135 C2158 0.950 . S
H2136 C2159 0.950 . S
H2137 C2161 0.950 . S
H2138 C2162 0.950 . S
H2139 C2163 0.951 . S
H2140 C2165 0.951 . S
H2141 C2167 0.950 . S
H2142 C2168 0.950 . S
H2143 C2170 0.950 . S
H2144 C2173 0.950 . S
H2145 C2174 0.950 . S
H2146 C2176 0.950 . S
H2147 C2177 0.950 . S
C2148 H2130 0.951 . S
C2148 C2149 1.366 . S
C2148 C2150 1.388 . S
C2149 C2148 1.366 . S
C2149 C2153 1.385 . S
C2150 H2131 0.951 . S
C2150 C2148 1.388 . S
C2150 C2151 1.366 . S
C2151 C2150 1.366 . S
C2151 C2152 1.414 . S
C2151 C2154 1.499 . S
C2152 H2132 0.950 . S
C2152 C2151 1.414 . S
C2152 C2153 1.374 . S
C2153 H2133 0.950 . S
C2153 C2149 1.385 . S
C2153 C2152 1.374 . S
C2154 C2151 1.499 . S
C2154 C2155 1.373 . S
C2154 C2156 1.389 . S
C2155 H2134 0.950 . S
C2155 C2154 1.373 . S
C2155 C2171 1.377 . S
C2156 C2154 1.389 . S
C2156 C2157 1.524 . S
C2156 C2170 1.377 . S
C2157 C2156 1.524 . S
C2157 C2158 1.397 . S
C2157 C2162 1.363 . S
C2158 H2135 0.950 . S
C2158 C2157 1.397 . S
C2158 C2159 1.334 . S
C2159 H2136 0.950 . S
C2159 C2158 1.334 . S
C2159 C2160 1.287 . S
C2160 C2159 1.287 . S
C2160 C2161 1.524 . S
C2160 H2179 0.913 . S
C2161 H2137 0.950 . S
C2161 C2160 1.524 . S
C2161 C2162 1.415 . S
C2162 H2138 0.950 . S
C2162 C2157 1.363 . S
C2162 C2161 1.415 . S
C2163 H2139 0.951 . S
C2163 C2164 1.366 . S
C2163 C2165 1.388 . S
C2164 C2163 1.366 . S
C2164 C2168 1.385 . S
C2165 H2140 0.951 . S
C2165 C2163 1.388 . S
C2165 C2166 1.366 . S
C2166 C2165 1.366 . S
C2166 C2167 1.414 . S
C2166 C2169 1.499 . S
C2167 H2141 0.950 . S
C2167 C2166 1.414 . S
C2167 C2168 1.374 . S
C2168 H2142 0.950 . S
C2168 C2164 1.385 . S
C2168 C2167 1.374 . S
C2169 C2166 1.499 . S
C2169 C2170 1.373 . S
C2169 C2171 1.389 . S
C2170 H2143 0.950 . S
C2170 C2156 1.377 . S
C2170 C2169 1.373 . S
C2171 C2155 1.377 . S
C2171 C2169 1.389 . S
C2171 C2172 1.524 . S
C2172 C2171 1.524 . S
C2172 C2173 1.397 . S
C2172 C2177 1.363 . S
C2173 H2144 0.950 . S
C2173 C2172 1.397 . S
C2173 C2174 1.334 . S
C2174 H2145 0.950 . S
C2174 C2173 1.334 . S
C2174 C2175 1.287 . S
C2175 C2174 1.287 . S
C2175 C2176 1.524 . S
C2175 H2178 0.999 . S
C2176 H2146 0.950 . S
C2176 C2175 1.524 . S
C2176 C2177 1.415 . S
C2177 H2147 0.950 . S
C2177 C2172 1.363 . S
C2177 C2176 1.415 . S
H2178 C2175 0.999 . S
H2179 C2160 0.913 . S
H2180 C2198 0.951 . S
H2181 C2200 0.951 . S
H2182 C2202 0.950 . S
H2183 C2203 0.950 . S
H2184 C2205 0.950 . S
H2185 C2208 0.950 . S
H2186 C2209 0.950 . S
H2187 C2211 0.950 . S
H2188 C2212 0.950 . S
H2189 C2213 0.951 . S
H2190 C2215 0.951 . S
H2191 C2217 0.950 . S
H2192 C2218 0.950 . S
H2193 C2220 0.950 . S
H2194 C2223 0.950 . S
H2195 C2224 0.950 . S
H2196 C2226 0.950 . S
H2197 C2227 0.950 . S
C2198 H2180 0.951 . S
C2198 C2199 1.366 . S
C2198 C2200 1.388 . S
C2199 C2198 1.366 . S
C2199 C2203 1.385 . S
C2200 H2181 0.951 . S
C2200 C2198 1.388 . S
C2200 C2201 1.366 . S
C2201 C2200 1.366 . S
C2201 C2202 1.414 . S
C2201 C2204 1.499 . S
C2202 H2182 0.950 . S
C2202 C2201 1.414 . S
C2202 C2203 1.374 . S
C2203 H2183 0.950 . S
C2203 C2199 1.385 . S
C2203 C2202 1.374 . S
C2204 C2201 1.499 . S
C2204 C2205 1.373 . S
C2204 C2206 1.389 1_556 S
C2205 H2184 0.950 . S
C2205 C2204 1.373 . S
C2205 C2221 1.377 1_655 S
C2206 C2204 1.389 1_554 S
C2206 C2207 1.524 . S
C2206 C2220 1.377 1_655 S
C2207 C2206 1.524 . S
C2207 C2208 1.397 . S
C2207 C2212 1.363 . S
C2208 H2185 0.950 . S
C2208 C2207 1.397 . S
C2208 C2209 1.334 . S
C2209 H2186 0.950 . S
C2209 C2208 1.334 . S
C2209 C2210 1.287 . S
C2210 C2209 1.287 . S
C2210 C2211 1.524 . S
C2210 H2229 0.913 . S
C2211 H2187 0.950 . S
C2211 C2210 1.524 . S
C2211 C2212 1.415 . S
C2212 H2188 0.950 . S
C2212 C2207 1.363 . S
C2212 C2211 1.415 . S
C2213 H2189 0.951 . S
C2213 C2214 1.366 . S
C2213 C2215 1.388 . S
C2214 C2213 1.366 . S
C2214 C2218 1.385 . S
C2215 H2190 0.951 . S
C2215 C2213 1.388 . S
C2215 C2216 1.366 . S
C2216 C2215 1.366 . S
C2216 C2217 1.414 . S
C2216 C2219 1.499 . S
C2217 H2191 0.950 . S
C2217 C2216 1.414 . S
C2217 C2218 1.374 . S
C2218 H2192 0.950 . S
C2218 C2214 1.385 . S
C2218 C2217 1.374 . S
C2219 C2216 1.499 . S
C2219 C2220 1.373 . S
C2219 C2221 1.389 1_554 S
C2220 H2193 0.950 . S
C2220 C2206 1.377 1_455 S
C2220 C2219 1.373 . S
C2221 C2205 1.377 1_455 S
C2221 C2219 1.389 1_556 S
C2221 C2222 1.524 . S
C2222 C2221 1.524 . S
C2222 C2223 1.397 . S
C2222 C2227 1.363 . S
C2223 H2194 0.950 . S
C2223 C2222 1.397 . S
C2223 C2224 1.334 . S
C2224 H2195 0.950 . S
C2224 C2223 1.334 . S
C2224 C2225 1.287 . S
C2225 C2224 1.287 . S
C2225 C2226 1.524 . S
C2225 H2228 0.999 . S
C2226 H2196 0.950 . S
C2226 C2225 1.524 . S
C2226 C2227 1.415 . S
C2227 H2197 0.950 . S
C2227 C2222 1.363 . S
C2227 C2226 1.415 . S
H2228 C2225 0.999 . S
H2229 C2210 0.913 . S
H2230 C2248 0.951 . S
H2231 C2250 0.951 . S
H2232 C2252 0.950 . S
H2233 C2253 0.950 . S
H2234 C2255 0.950 . S
H2235 C2258 0.950 . S
H2236 C2259 0.950 . S
H2237 C2261 0.950 . S
H2238 C2262 0.950 . S
H2239 C2263 0.951 . S
H2240 C2265 0.951 . S
H2241 C2267 0.950 . S
H2242 C2268 0.950 . S
H2243 C2270 0.950 . S
H2244 C2273 0.950 . S
H2245 C2274 0.950 . S
H2246 C2276 0.950 . S
H2247 C2277 0.950 . S
C2248 H2230 0.951 . S
C2248 C2249 1.366 . S
C2248 C2250 1.388 . S
C2249 C2248 1.366 . S
C2249 C2253 1.385 . S
C2250 H2231 0.951 . S
C2250 C2248 1.388 . S
C2250 C2251 1.366 . S
C2251 C2250 1.366 . S
C2251 C2252 1.414 . S
C2251 C2254 1.499 . S
C2252 H2232 0.950 . S
C2252 C2251 1.414 . S
C2252 C2253 1.374 . S
C2253 H2233 0.950 . S
C2253 C2249 1.385 . S
C2253 C2252 1.374 . S
C2254 C2251 1.499 . S
C2254 C2255 1.373 . S
C2254 C2256 1.389 1_565 S
C2255 H2234 0.950 . S
C2255 C2254 1.373 . S
C2255 C2271 1.377 . S
C2256 C2254 1.389 1_545 S
C2256 C2257 1.524 . S
C2256 C2270 1.377 . S
C2257 C2256 1.524 . S
C2257 C2258 1.397 . S
C2257 C2262 1.363 . S
C2258 H2235 0.950 . S
C2258 C2257 1.397 . S
C2258 C2259 1.334 . S
C2259 H2236 0.950 . S
C2259 C2258 1.334 . S
C2259 C2260 1.287 . S
C2260 C2259 1.287 . S
C2260 C2261 1.524 . S
C2260 H2279 0.913 . S
C2261 H2237 0.950 . S
C2261 C2260 1.524 . S
C2261 C2262 1.415 . S
C2262 H2238 0.950 . S
C2262 C2257 1.363 . S
C2262 C2261 1.415 . S
C2263 H2239 0.951 . S
C2263 C2264 1.366 . S
C2263 C2265 1.388 . S
C2264 C2263 1.366 . S
C2264 C2268 1.385 . S
C2265 H2240 0.951 . S
C2265 C2263 1.388 . S
C2265 C2266 1.366 . S
C2266 C2265 1.366 . S
C2266 C2267 1.414 . S
C2266 C2269 1.499 . S
C2267 H2241 0.950 . S
C2267 C2266 1.414 . S
C2267 C2268 1.374 . S
C2268 H2242 0.950 . S
C2268 C2264 1.385 . S
C2268 C2267 1.374 . S
C2269 C2266 1.499 . S
C2269 C2270 1.373 . S
C2269 C2271 1.389 1_545 S
C2270 H2243 0.950 . S
C2270 C2256 1.377 . S
C2270 C2269 1.373 . S
C2271 C2255 1.377 . S
C2271 C2269 1.389 1_565 S
C2271 C2272 1.524 . S
C2272 C2271 1.524 . S
C2272 C2273 1.397 . S
C2272 C2277 1.363 . S
C2273 H2244 0.950 . S
C2273 C2272 1.397 . S
C2273 C2274 1.334 . S
C2274 H2245 0.950 . S
C2274 C2273 1.334 . S
C2274 C2275 1.287 . S
C2275 C2274 1.287 . S
C2275 C2276 1.524 . S
C2275 H2278 0.999 . S
C2276 H2246 0.950 . S
C2276 C2275 1.524 . S
C2276 C2277 1.415 . S
C2277 H2247 0.950 . S
C2277 C2272 1.363 . S
C2277 C2276 1.415 . S
H2278 C2275 0.999 . S
H2279 C2260 0.913 . S
C499 C175 1.295 1_545 S
C514 C19 1.322 . S
C549 C215 1.296 . S
C564 C59 1.322 . S
C599 C99 1.322 . S
C614 C15 1.296 1_655 S
C649 C139 1.322 . S
C664 C55 1.296 1_565 S
C699 C179 1.322 . S
C714 C95 1.295 . S
C749 C135 1.295 1_455 S
C764 C219 1.322 . S
C799 C335 1.295 1_655 S
C814 C259 1.322 . S
C849 C299 1.322 . S
C864 C375 1.296 1_565 S
C899 C415 1.295 . S
C914 C339 1.322 . S
C949 C379 1.322 . S
C964 C455 1.295 1_455 S
C999 C419 1.322 . S
C1014 C255 1.295 1_545 S
C1049 C295 1.295 . S
C1064 C459 1.322 . S
C1099 C166 1.706 . S
C1114 C10 1.699 . S
C1149 C50 1.699 . S
C1164 C206 1.706 . S
C1199 C90 1.699 . S
C1214 C6 1.706 . S
C1249 C130 1.698 . S
C1264 C46 1.706 . S
C1299 C86 1.706 . S
C1314 C170 1.699 . S
C1349 C126 1.706 . S
C1364 C210 1.699 . S
C1399 C326 1.706 . S
C1414 C250 1.699 . S
C1449 C290 1.699 . S
C1464 C366 1.706 . S
C1499 C330 1.699 . S
C1514 C406 1.706 . S
C1549 C446 1.705 . S
C1564 C370 1.699 . S
C1599 C410 1.699 . S
C1614 C246 1.706 . S
C1649 C286 1.706 . S
C1664 C450 1.698 . S
C1699 C418 1.727 . S
C1714 C18 1.726 . S
C1749 C58 1.726 . S
C1764 C458 1.726 . S
C1799 C98 1.727 . S
C1814 C258 1.726 . S
C1849 C138 1.727 . S
C1864 C298 1.726 . S
C1899 C178 1.727 . S
C1914 C338 1.726 . S
C1949 C378 1.727 . S
C1964 C218 1.726 . S
C1999 C369 1.974 . S
C2014 C9 1.974 . S
C2049 C409 1.973 . S
C2064 C49 1.974 . S
C2099 C89 1.974 . S
C2114 C449 1.975 . S
C2149 C129 1.973 . S
C2164 C249 1.974 . S
C2199 C289 1.974 . S
C2214 C169 1.973 . S
C2249 C329 1.974 . S
C2264 C209 1.974 . S
