# Generated by pormake.
# Topology wio, (6)-cn, num edge types: 1
# Building blocks:
#     Node 0, Type 0, BuildingBlock: BETFEN_clean_sbu_0, # of connection points: 6
#     Node 1, Type 0, BuildingBlock: BETFEN_clean_sbu_0, # of connection points: 6
#     Node 2, Type 0, BuildingBlock: BETFEN_clean_sbu_0, # of connection points: 6
#     Node 3, Type 0, BuildingBlock: BETFEN_clean_sbu_0, # of connection points: 6
#     Node 4, Type 0, BuildingBlock: BETFEN_clean_sbu_0, # of connection points: 6
#     Node 5, Type 0, BuildingBlock: BETFEN_clean_sbu_0, # of connection points: 6
#     Node 6, Type 0, BuildingBlock: BETFEN_clean_sbu_0, # of connection points: 6
#     Node 7, Type 0, BuildingBlock: BETFEN_clean_sbu_0, # of connection points: 6
#     Node 8, Type 0, BuildingBlock: BETFEN_clean_sbu_0, # of connection points: 6
#     Node 9, Type 0, BuildingBlock: BETFEN_clean_sbu_0, # of connection points: 6
#     Node 10, Type 0, BuildingBlock: BETFEN_clean_sbu_0, # of connection points: 6
#     Node 11, Type 0, BuildingBlock: BETFEN_clean_sbu_0, # of connection points: 6
#     Node 12, Type 0, BuildingBlock: BETFEN_clean_sbu_0, # of connection points: 6
#     Node 13, Type 0, BuildingBlock: BETFEN_clean_sbu_0, # of connection points: 6
#     Node 14, Type 0, BuildingBlock: BETFEN_clean_sbu_0, # of connection points: 6
#     Node 15, Type 0, BuildingBlock: BETFEN_clean_sbu_0, # of connection points: 6
#     Node 16, Type 0, BuildingBlock: BETFEN_clean_sbu_0, # of connection points: 6
#     Node 17, Type 0, BuildingBlock: BETFEN_clean_sbu_0, # of connection points: 6
#     Node 18, Type 0, BuildingBlock: BETFEN_clean_sbu_0, # of connection points: 6
#     Node 19, Type 0, BuildingBlock: BETFEN_clean_sbu_0, # of connection points: 6
#     Node 20, Type 0, BuildingBlock: BETFEN_clean_sbu_0, # of connection points: 6
#     Node 21, Type 0, BuildingBlock: BETFEN_clean_sbu_0, # of connection points: 6
#     Node 22, Type 0, BuildingBlock: BETFEN_clean_sbu_0, # of connection points: 6
#     Node 23, Type 0, BuildingBlock: BETFEN_clean_sbu_0, # of connection points: 6
#     Node 24, Type 0, BuildingBlock: BETFEN_clean_sbu_0, # of connection points: 6
#     Node 25, Type 0, BuildingBlock: BETFEN_clean_sbu_0, # of connection points: 6
#     Node 26, Type 0, BuildingBlock: BETFEN_clean_sbu_0, # of connection points: 6
#     Node 27, Type 0, BuildingBlock: BETFEN_clean_sbu_0, # of connection points: 6
#     Node 28, Type 0, BuildingBlock: BETFEN_clean_sbu_0, # of connection points: 6
#     Node 29, Type 0, BuildingBlock: BETFEN_clean_sbu_0, # of connection points: 6
#     Node 30, Type 0, BuildingBlock: BETFEN_clean_sbu_0, # of connection points: 6
#     Node 31, Type 0, BuildingBlock: BETFEN_clean_sbu_0, # of connection points: 6
#     Edge 32, Type (0, 0), BuildingBlock: XIVTED_clean_linker_0, # of connection points: 2
#     Edge 33, Type (0, 0), BuildingBlock: XIVTED_clean_linker_0, # of connection points: 2
#     Edge 34, Type (0, 0), BuildingBlock: XIVTED_clean_linker_0, # of connection points: 2
#     Edge 35, Type (0, 0), BuildingBlock: XIVTED_clean_linker_0, # of connection points: 2
#     Edge 36, Type (0, 0), BuildingBlock: XIVTED_clean_linker_0, # of connection points: 2
#     Edge 37, Type (0, 0), BuildingBlock: XIVTED_clean_linker_0, # of connection points: 2
#     Edge 38, Type (0, 0), BuildingBlock: XIVTED_clean_linker_0, # of connection points: 2
#     Edge 39, Type (0, 0), BuildingBlock: XIVTED_clean_linker_0, # of connection points: 2
#     Edge 40, Type (0, 0), BuildingBlock: XIVTED_clean_linker_0, # of connection points: 2
#     Edge 41, Type (0, 0), BuildingBlock: XIVTED_clean_linker_0, # of connection points: 2
#     Edge 42, Type (0, 0), BuildingBlock: XIVTED_clean_linker_0, # of connection points: 2
#     Edge 43, Type (0, 0), BuildingBlock: XIVTED_clean_linker_0, # of connection points: 2
#     Edge 44, Type (0, 0), BuildingBlock: XIVTED_clean_linker_0, # of connection points: 2
#     Edge 45, Type (0, 0), BuildingBlock: XIVTED_clean_linker_0, # of connection points: 2
#     Edge 46, Type (0, 0), BuildingBlock: XIVTED_clean_linker_0, # of connection points: 2
#     Edge 47, Type (0, 0), BuildingBlock: XIVTED_clean_linker_0, # of connection points: 2
#     Edge 48, Type (0, 0), BuildingBlock: XIVTED_clean_linker_0, # of connection points: 2
#     Edge 49, Type (0, 0), BuildingBlock: XIVTED_clean_linker_0, # of connection points: 2
#     Edge 50, Type (0, 0), BuildingBlock: XIVTED_clean_linker_0, # of connection points: 2
#     Edge 51, Type (0, 0), BuildingBlock: XIVTED_clean_linker_0, # of connection points: 2
#     Edge 52, Type (0, 0), BuildingBlock: XIVTED_clean_linker_0, # of connection points: 2
#     Edge 53, Type (0, 0), BuildingBlock: XIVTED_clean_linker_0, # of connection points: 2
#     Edge 54, Type (0, 0), BuildingBlock: XIVTED_clean_linker_0, # of connection points: 2
#     Edge 55, Type (0, 0), BuildingBlock: XIVTED_clean_linker_0, # of connection points: 2
#     Edge 56, Type (0, 0), BuildingBlock: XIVTED_clean_linker_0, # of connection points: 2
#     Edge 57, Type (0, 0), BuildingBlock: XIVTED_clean_linker_0, # of connection points: 2
#     Edge 58, Type (0, 0), BuildingBlock: XIVTED_clean_linker_0, # of connection points: 2
#     Edge 59, Type (0, 0), BuildingBlock: XIVTED_clean_linker_0, # of connection points: 2
#     Edge 60, Type (0, 0), BuildingBlock: XIVTED_clean_linker_0, # of connection points: 2
#     Edge 61, Type (0, 0), BuildingBlock: XIVTED_clean_linker_0, # of connection points: 2
#     Edge 62, Type (0, 0), BuildingBlock: XIVTED_clean_linker_0, # of connection points: 2
#     Edge 63, Type (0, 0), BuildingBlock: XIVTED_clean_linker_0, # of connection points: 2
#     Edge 64, Type (0, 0), BuildingBlock: XIVTED_clean_linker_0, # of connection points: 2
#     Edge 65, Type (0, 0), BuildingBlock: XIVTED_clean_linker_0, # of connection points: 2
#     Edge 66, Type (0, 0), BuildingBlock: XIVTED_clean_linker_0, # of connection points: 2
#     Edge 67, Type (0, 0), BuildingBlock: XIVTED_clean_linker_0, # of connection points: 2
#     Edge 68, Type (0, 0), BuildingBlock: XIVTED_clean_linker_0, # of connection points: 2
#     Edge 69, Type (0, 0), BuildingBlock: XIVTED_clean_linker_0, # of connection points: 2
#     Edge 70, Type (0, 0), BuildingBlock: XIVTED_clean_linker_0, # of connection points: 2
#     Edge 71, Type (0, 0), BuildingBlock: XIVTED_clean_linker_0, # of connection points: 2
#     Edge 72, Type (0, 0), BuildingBlock: XIVTED_clean_linker_0, # of connection points: 2
#     Edge 73, Type (0, 0), BuildingBlock: XIVTED_clean_linker_0, # of connection points: 2
#     Edge 74, Type (0, 0), BuildingBlock: XIVTED_clean_linker_0, # of connection points: 2
#     Edge 75, Type (0, 0), BuildingBlock: XIVTED_clean_linker_0, # of connection points: 2
#     Edge 76, Type (0, 0), BuildingBlock: XIVTED_clean_linker_0, # of connection points: 2
#     Edge 77, Type (0, 0), BuildingBlock: XIVTED_clean_linker_0, # of connection points: 2
#     Edge 78, Type (0, 0), BuildingBlock: XIVTED_clean_linker_0, # of connection points: 2
#     Edge 79, Type (0, 0), BuildingBlock: XIVTED_clean_linker_0, # of connection points: 2
#     Edge 80, Type (0, 0), BuildingBlock: XIVTED_clean_linker_0, # of connection points: 2
#     Edge 81, Type (0, 0), BuildingBlock: XIVTED_clean_linker_0, # of connection points: 2
#     Edge 82, Type (0, 0), BuildingBlock: XIVTED_clean_linker_0, # of connection points: 2
#     Edge 83, Type (0, 0), BuildingBlock: XIVTED_clean_linker_0, # of connection points: 2
#     Edge 84, Type (0, 0), BuildingBlock: XIVTED_clean_linker_0, # of connection points: 2
#     Edge 85, Type (0, 0), BuildingBlock: XIVTED_clean_linker_0, # of connection points: 2
#     Edge 86, Type (0, 0), BuildingBlock: XIVTED_clean_linker_0, # of connection points: 2
#     Edge 87, Type (0, 0), BuildingBlock: XIVTED_clean_linker_0, # of connection points: 2
#     Edge 88, Type (0, 0), BuildingBlock: XIVTED_clean_linker_0, # of connection points: 2
#     Edge 89, Type (0, 0), BuildingBlock: XIVTED_clean_linker_0, # of connection points: 2
#     Edge 90, Type (0, 0), BuildingBlock: XIVTED_clean_linker_0, # of connection points: 2
#     Edge 91, Type (0, 0), BuildingBlock: XIVTED_clean_linker_0, # of connection points: 2
#     Edge 92, Type (0, 0), BuildingBlock: XIVTED_clean_linker_0, # of connection points: 2
#     Edge 93, Type (0, 0), BuildingBlock: XIVTED_clean_linker_0, # of connection points: 2
#     Edge 94, Type (0, 0), BuildingBlock: XIVTED_clean_linker_0, # of connection points: 2
#     Edge 95, Type (0, 0), BuildingBlock: XIVTED_clean_linker_0, # of connection points: 2
#     Edge 96, Type (0, 0), BuildingBlock: XIVTED_clean_linker_0, # of connection points: 2
#     Edge 97, Type (0, 0), BuildingBlock: XIVTED_clean_linker_0, # of connection points: 2
#     Edge 98, Type (0, 0), BuildingBlock: XIVTED_clean_linker_0, # of connection points: 2
#     Edge 99, Type (0, 0), BuildingBlock: XIVTED_clean_linker_0, # of connection points: 2
#     Edge 100, Type (0, 0), BuildingBlock: XIVTED_clean_linker_0, # of connection points: 2
#     Edge 101, Type (0, 0), BuildingBlock: XIVTED_clean_linker_0, # of connection points: 2
#     Edge 102, Type (0, 0), BuildingBlock: XIVTED_clean_linker_0, # of connection points: 2
#     Edge 103, Type (0, 0), BuildingBlock: XIVTED_clean_linker_0, # of connection points: 2
#     Edge 104, Type (0, 0), BuildingBlock: XIVTED_clean_linker_0, # of connection points: 2
#     Edge 105, Type (0, 0), BuildingBlock: XIVTED_clean_linker_0, # of connection points: 2
#     Edge 106, Type (0, 0), BuildingBlock: XIVTED_clean_linker_0, # of connection points: 2
#     Edge 107, Type (0, 0), BuildingBlock: XIVTED_clean_linker_0, # of connection points: 2
#     Edge 108, Type (0, 0), BuildingBlock: XIVTED_clean_linker_0, # of connection points: 2
#     Edge 109, Type (0, 0), BuildingBlock: XIVTED_clean_linker_0, # of connection points: 2
#     Edge 110, Type (0, 0), BuildingBlock: XIVTED_clean_linker_0, # of connection points: 2
#     Edge 111, Type (0, 0), BuildingBlock: XIVTED_clean_linker_0, # of connection points: 2
#     Edge 112, Type (0, 0), BuildingBlock: XIVTED_clean_linker_0, # of connection points: 2
#     Edge 113, Type (0, 0), BuildingBlock: XIVTED_clean_linker_0, # of connection points: 2
#     Edge 114, Type (0, 0), BuildingBlock: XIVTED_clean_linker_0, # of connection points: 2
#     Edge 115, Type (0, 0), BuildingBlock: XIVTED_clean_linker_0, # of connection points: 2
#     Edge 116, Type (0, 0), BuildingBlock: XIVTED_clean_linker_0, # of connection points: 2
#     Edge 117, Type (0, 0), BuildingBlock: XIVTED_clean_linker_0, # of connection points: 2
#     Edge 118, Type (0, 0), BuildingBlock: XIVTED_clean_linker_0, # of connection points: 2
#     Edge 119, Type (0, 0), BuildingBlock: XIVTED_clean_linker_0, # of connection points: 2
#     Edge 120, Type (0, 0), BuildingBlock: XIVTED_clean_linker_0, # of connection points: 2
#     Edge 121, Type (0, 0), BuildingBlock: XIVTED_clean_linker_0, # of connection points: 2
#     Edge 122, Type (0, 0), BuildingBlock: XIVTED_clean_linker_0, # of connection points: 2
#     Edge 123, Type (0, 0), BuildingBlock: XIVTED_clean_linker_0, # of connection points: 2
#     Edge 124, Type (0, 0), BuildingBlock: XIVTED_clean_linker_0, # of connection points: 2
#     Edge 125, Type (0, 0), BuildingBlock: XIVTED_clean_linker_0, # of connection points: 2
#     Edge 126, Type (0, 0), BuildingBlock: XIVTED_clean_linker_0, # of connection points: 2
#     Edge 127, Type (0, 0), BuildingBlock: XIVTED_clean_linker_0, # of connection points: 2
# Relax obj value: 0.202
# Max RMSD: 0.236
# Mean RMSD: 0.236
data_MOF--net-wio--node1-BETFEN_clean_sbu_0--edge1-XIVTED_clean_linker_0
_symmetry_space_group_name_H-M    P1
_symmetry_Int_Tables_number       1
_symmetry_cell_setting            triclinic
loop_
_symmetry_equiv_pos_as_xyz
'x, y, z'
_cell_length_a     62.779446
_cell_length_b     62.762113
_cell_length_c     55.500935
_cell_angle_alpha  90.003464
_cell_angle_beta   89.932937
_cell_angle_gamma 89.972834
loop_
_atom_site_label
_atom_site_type_symbol
_atom_site_fract_x
_atom_site_fract_y
_atom_site_fract_z
_atom_type_partial_charge
Pr0 Pr 0.15336 0.11669 0.28533 0.0
Pr1 Pr 0.10678 0.12654 0.29315 0.0
C2 C 0.19267 0.1045 0.27114 0.0
C3 C 0.20871 0.10759 0.25199 0.0
C4 C 0.22961 0.11306 0.25847 0.0
C5 C 0.24544 0.11518 0.24091 0.0
C6 C 0.2407 0.11168 0.21649 0.0
C7 C 0.21965 0.10654 0.20997 0.0
C8 C 0.20378 0.10458 0.22755 0.0
C9 C 0.1465 0.15581 0.30763 0.0
C10 C 0.12428 0.13316 0.23809 0.0
C11 C 0.06952 0.1415 0.31104 0.0
C12 C 0.05487 0.13859 0.33162 0.0
C13 C 0.05397 0.11932 0.34441 0.0
C14 C 0.03948 0.11677 0.36345 0.0
C15 C 0.02567 0.13349 0.37017 0.0
C16 C 0.02705 0.15292 0.35761 0.0
C17 C 0.04148 0.15541 0.33854 0.0
C18 C 0.11438 0.08497 0.27673 0.0
C19 C 0.13445 0.102 0.33742 0.0
O20 O 0.17537 0.09385 0.26587 0.0
O21 O 0.18922 0.1206 0.28554 0.0
O22 O 0.13555 0.14909 0.28994 0.0
O23 O 0.16163 0.1427 0.3132 0.0
O24 O 0.10907 0.13924 0.25312 0.0
O25 O 0.1414 0.12319 0.24602 0.0
O26 O 0.08799 0.15012 0.31574 0.0
O27 O 0.07072 0.12607 0.29525 0.0
O28 O 0.12495 0.09477 0.29241 0.0
O29 O 0.0986 0.09658 0.26909 0.0
O30 O 0.14972 0.09865 0.32155 0.0
O31 O 0.1173 0.11326 0.3317 0.0
H32 H 0.23377 0.1154 0.27723 0.0
H33 H 0.26152 0.11894 0.24652 0.0
H34 H 0.21546 0.10402 0.19126 0.0
H35 H 0.18774 0.10051 0.22202 0.0
H36 H 0.06435 0.10619 0.33957 0.0
H37 H 0.03911 0.10169 0.37292 0.0
H38 H 0.01656 0.16605 0.36204 0.0
H39 H 0.04199 0.17044 0.32896 0.0
Pr40 Pr 0.14113 0.90376 0.53388 0.0
Pr41 Pr 0.13003 0.85669 0.54275 0.0
C42 C 0.15557 0.94193 0.51847 0.0
C43 C 0.15136 0.9594 0.50149 0.0
C44 C 0.13559 0.95784 0.48367 0.0
C45 C 0.13226 0.97471 0.46752 0.0
C46 C 0.14471 0.99335 0.46895 0.0
C47 C 0.16022 0.99485 0.48715 0.0
C48 C 0.1635 0.97804 0.50321 0.0
C49 C 0.10254 0.89783 0.55772 0.0
C50 C 0.11966 0.8756 0.48856 0.0
C51 C 0.11459 0.82018 0.56201 0.0
C52 C 0.11843 0.80438 0.58154 0.0
C53 C 0.12675 0.7842 0.57588 0.0
C54 C 0.12952 0.76875 0.59379 0.0
C55 C 0.12391 0.77296 0.6179 0.0
C56 C 0.11543 0.79311 0.62357 0.0
C57 C 0.11273 0.80864 0.60563 0.0
C58 C 0.17102 0.86288 0.52387 0.0
C59 C 0.15736 0.88392 0.58506 0.0
O60 O 0.16195 0.92376 0.5094 0.0
O61 O 0.14228 0.93974 0.53644 0.0
O62 O 0.10879 0.88649 0.54014 0.0
O63 O 0.11557 0.91338 0.562 0.0
O64 O 0.11557 0.85963 0.50349 0.0
O65 O 0.12993 0.89276 0.4958 0.0
O66 O 0.10783 0.83916 0.56811 0.0
O67 O 0.12794 0.82057 0.54388 0.0
O68 O 0.16199 0.87432 0.53944 0.0
O69 O 0.15923 0.84648 0.5186 0.0
O70 O 0.16086 0.89877 0.56873 0.0
O71 O 0.14499 0.86731 0.58036 0.0
H72 H 0.12601 0.94355 0.48216 0.0
H73 H 0.12032 0.97296 0.45361 0.0
H74 H 0.16984 0.00906 0.48906 0.0
H75 H 0.17564 0.97957 0.51697 0.0
H76 H 0.13093 0.78025 0.55747 0.0
H77 H 0.13574 0.75331 0.58863 0.0
H78 H 0.11109 0.79699 0.64195 0.0
H79 H 0.10607 0.82392 0.61065 0.0
Pr80 Pr 0.3555 0.88898 0.78214 0.0
Pr81 Pr 0.40247 0.88096 0.79111 0.0
C82 C 0.31663 0.90207 0.76764 0.0
C83 C 0.2996 0.89894 0.74987 0.0
C84 C 0.30038 0.88248 0.73279 0.0
C85 C 0.28374 0.87999 0.71617 0.0
C86 C 0.2662 0.894 0.71639 0.0
C87 C 0.26554 0.91029 0.73379 0.0
C88 C 0.28208 0.91272 0.75033 0.0
C89 C 0.36316 0.8504 0.80522 0.0
C90 C 0.3854 0.87123 0.73606 0.0
C91 C 0.44012 0.86751 0.80941 0.0
C92 C 0.45415 0.87043 0.83052 0.0
C93 C 0.4537 0.88921 0.84424 0.0
C94 C 0.46776 0.89191 0.86362 0.0
C95 C 0.4825 0.87583 0.86975 0.0
C96 C 0.48246 0.85683 0.85626 0.0
C97 C 0.46845 0.8542 0.83686 0.0
C98 C 0.39363 0.92208 0.77403 0.0
C99 C 0.37345 0.90442 0.83463 0.0
O100 O 0.33435 0.91079 0.76009 0.0
O101 O 0.31958 0.88688 0.78337 0.0
O102 O 0.37441 0.85743 0.78789 0.0
O103 O 0.34702 0.86267 0.80966 0.0
O104 O 0.4016 0.86866 0.75101 0.0
O105 O 0.36697 0.87903 0.7434 0.0
O106 O 0.42211 0.85761 0.81308 0.0
O107 O 0.43835 0.88349 0.79443 0.0
O108 O 0.38307 0.91197 0.78952 0.0
O109 O 0.40994 0.91096 0.76687 0.0
O110 O 0.35843 0.90729 0.81837 0.0
O111 O 0.39099 0.89362 0.8294 0.0
H112 H 0.31384 0.87168 0.73224 0.0
H113 H 0.28481 0.86741 0.70287 0.0
H114 H 0.25214 0.92114 0.73473 0.0
H115 H 0.28118 0.92542 0.76352 0.0
H116 H 0.44263 0.90187 0.83983 0.0
H117 H 0.46711 0.90662 0.87379 0.0
H118 H 0.49369 0.84421 0.86023 0.0
H119 H 0.469 0.83955 0.82654 0.0
Pr120 Pr 0.36319 0.10469 0.03043 0.0
Pr121 Pr 0.37469 0.15083 0.04361 0.0
C122 C 0.34913 0.06766 1.01144 0.0
C123 C 0.35437 0.05069 0.99385 0.0
C124 C 0.37059 0.03572 0.99832 0.0
C125 C 0.37399 0.01869 0.98245 0.0
C126 C 0.36118 0.01621 0.96186 0.0
C127 C 0.34534 0.03152 0.95716 0.0
C128 C 0.34193 0.04848 0.97301 0.0
C129 C 0.4034 0.10893 0.05131 0.0
C130 C 0.3807 0.13716 0.98701 0.0
C131 C 0.39084 0.18604 0.06499 0.0
C132 C 0.38772 0.20098 0.08537 0.0
C133 C 0.36765 0.20961 0.09101 0.0
C134 C 0.36551 0.22458 0.10965 0.0
C135 C 0.38337 0.23125 0.12306 0.0
C136 C 0.40332 0.22217 0.11761 0.0
C137 C 0.40544 0.20726 0.09899 0.0
C138 C 0.333 0.14601 0.02639 0.0
C139 C 0.34887 0.12027 0.08414 0.0
O140 O 0.34373 0.08636 1.00297 0.0
O141 O 0.3604 0.06878 0.03119 0.0
O142 O 0.39582 0.12172 0.03586 0.0
O143 O 0.3909 0.09279 0.05462 0.0
O144 O 0.38789 0.15052 1.0036 0.0
O145 O 0.36957 0.12015 0.99289 0.0
O146 O 0.39713 0.16671 0.07018 0.0
O147 O 0.37724 0.1867 0.04715 0.0
O148 O 0.34258 0.13341 0.04027 0.0
O149 O 0.34451 0.16285 0.0223 0.0
O150 O 0.34424 0.10724 0.06624 0.0
O151 O 0.36176 0.13676 0.08078 0.0
H152 H 0.38039 0.03686 1.01431 0.0
H153 H 0.38621 0.00711 0.98672 0.0
H154 H 0.33543 0.03034 0.94126 0.0
H155 H 0.32926 0.0597 0.96915 0.0
H156 H 0.35368 0.20501 0.08083 0.0
H157 H 0.34993 0.23132 0.11313 0.0
H158 H 0.41737 0.22655 0.12776 0.0
H159 H 0.42106 0.20077 0.09506 0.0
Pr160 Pr 0.14785 0.89317 0.26236 0.0
Pr161 Pr 0.09661 0.88571 0.25284 0.0
C162 C 0.18525 0.90905 0.2779 0.0
C163 C 0.20268 0.90484 0.29535 0.0
C164 C 0.21949 0.89077 0.28995 0.0
C165 C 0.23639 0.88797 0.30616 0.0
C166 C 0.23695 0.89931 0.32803 0.0
C167 C 0.21997 0.91313 0.33348 0.0
C168 C 0.20314 0.91592 0.31734 0.0
C169 C 0.13899 0.85104 0.24759 0.0
C170 C 0.11509 0.87855 0.30794 0.0
C171 C 0.05852 0.87344 0.23498 0.0
C172 C 0.04624 0.87457 0.21231 0.0
C173 C 0.04963 0.89105 0.19563 0.0
C174 C 0.03673 0.89283 0.17514 0.0
C175 C 0.02019 0.87812 0.17085 0.0
C176 C 0.0174 0.8612 0.18719 0.0
C177 C 0.03028 0.85949 0.20773 0.0
C178 C 0.1088 0.92578 0.26981 0.0
C179 C 0.12806 0.90652 0.20875 0.0
O180 O 0.16674 0.9147 0.28687 0.0
O181 O 0.18366 0.89676 0.25884 0.0
O182 O 0.12637 0.86582 0.25281 0.0
O183 O 0.15823 0.85766 0.25193 0.0
O184 O 0.09968 0.87297 0.29281 0.0
O185 O 0.13296 0.88775 0.30064 0.0
O186 O 0.07523 0.86096 0.23527 0.0
O187 O 0.06153 0.89141 0.24646 0.0
O188 O 0.11879 0.91462 0.25467 0.0
O189 O 0.09117 0.91643 0.27635 0.0
O190 O 0.1444 0.90763 0.22381 0.0
O191 O 0.10939 0.89804 0.21494 0.0
H192 H 0.21976 0.88212 0.27306 0.0
H193 H 0.24929 0.87734 0.30127 0.0
H194 H 0.21964 0.92186 0.35032 0.0
H195 H 0.19055 0.927 0.32203 0.0
H196 H 0.06199 0.90278 0.19869 0.0
H197 H 0.03955 0.90588 0.16278 0.0
H198 H 0.00474 0.84971 0.18464 0.0
H199 H 0.02741 0.84664 0.22036 0.0
Pr200 Pr 0.36167 0.90099 0.51203 0.0
Pr201 Pr 0.37153 0.85436 0.50025 0.0
C202 C 0.34801 0.93885 0.52913 0.0
C203 C 0.35349 0.95631 0.54565 0.0
C204 C 0.34404 0.97627 0.54211 0.0
C205 C 0.34842 0.99311 0.55776 0.0
C206 C 0.36236 0.99032 0.57734 0.0
C207 C 0.37221 0.97034 0.58054 0.0
C208 C 0.36778 0.95344 0.56481 0.0
C209 C 0.4005 0.89527 0.48854 0.0
C210 C 0.38138 0.87005 0.55602 0.0
C211 C 0.38729 0.81848 0.47981 0.0
C212 C 0.38465 0.80447 0.45867 0.0
C213 C 0.36602 0.80486 0.44474 0.0
C214 C 0.36361 0.79079 0.42529 0.0
C215 C 0.37982 0.77611 0.41937 0.0
C216 C 0.39866 0.77623 0.4331 0.0
C217 C 0.40101 0.79025 0.45254 0.0
C218 C 0.33059 0.86045 0.51922 0.0
C219 C 0.34521 0.88387 0.45943 0.0
O220 O 0.34261 0.92055 0.53868 0.0
O221 O 0.3597 0.93694 0.50975 0.0
O222 O 0.39363 0.88325 0.5052 0.0
O223 O 0.38799 0.9114 0.4851 0.0
O224 O 0.38432 0.85449 0.54024 0.0
O225 O 0.3728 0.88843 0.5498 0.0
O226 O 0.39513 0.83745 0.47586 0.0
O227 O 0.37203 0.81847 0.49588 0.0
O228 O 0.33989 0.87253 0.50447 0.0
O229 O 0.3421 0.84363 0.52356 0.0
O230 O 0.34176 0.89781 0.47681 0.0
O231 O 0.35745 0.86696 0.46307 0.0
H232 H 0.3331 0.9788 0.52729 0.0
H233 H 0.34085 0.00835 0.55453 0.0
H234 H 0.38288 0.96762 0.59554 0.0
H235 H 0.3753 0.93811 0.56773 0.0
H236 H 0.35327 0.81587 0.44904 0.0
H237 H 0.34901 0.79137 0.41494 0.0
H238 H 0.41136 0.76503 0.42931 0.0
H239 H 0.41554 0.78976 0.46305 0.0
Pr240 Pr 0.35708 0.11606 0.75893 0.0
Pr241 Pr 0.40505 0.12184 0.75317 0.0
C242 C 0.31638 0.10804 0.77182 0.0
C243 C 0.30069 0.11199 0.79118 0.0
C244 C 0.28013 0.11884 0.78501 0.0
C245 C 0.26457 0.1217 0.80278 0.0
C246 C 0.26923 0.11761 0.82711 0.0
C247 C 0.29001 0.11118 0.83332 0.0
C248 C 0.30562 0.10847 0.81554 0.0
C249 C 0.36877 0.15268 0.73415 0.0
C250 C 0.38566 0.13298 0.80656 0.0
C251 C 0.44377 0.13367 0.73637 0.0
C252 C 0.45757 0.13157 0.71488 0.0
C253 C 0.45689 0.11342 0.70011 0.0
C254 C 0.47076 0.11151 0.68039 0.0
C255 C 0.48551 0.12775 0.67495 0.0
C256 C 0.48568 0.14614 0.68948 0.0
C257 C 0.47189 0.14799 0.70923 0.0
C258 C 0.39352 0.0818 0.7714 0.0
C259 C 0.37685 0.09844 0.70855 0.0
O260 O 0.33218 0.09501 0.77634 0.0
O261 O 0.32194 0.1244 0.75867 0.0
O262 O 0.37778 0.14617 0.75321 0.0
O263 O 0.35297 0.14056 0.72803 0.0
O264 O 0.40254 0.13561 0.7926 0.0
O265 O 0.36781 0.12478 0.79811 0.0
O266 O 0.42669 0.14542 0.73409 0.0
O267 O 0.44062 0.11662 0.74945 0.0
O268 O 0.38418 0.09176 0.75479 0.0
O269 O 0.40982 0.09259 0.77925 0.0
O270 O 0.36076 0.09663 0.7237 0.0
O271 O 0.39457 0.10861 0.71467 0.0
H272 H 0.27598 0.12164 0.76633 0.0
H273 H 0.24869 0.12647 0.79737 0.0
H274 H 0.29418 0.10817 0.85194 0.0
H275 H 0.32143 0.10338 0.82083 0.0
H276 H 0.4458 0.10064 0.70395 0.0
H277 H 0.46995 0.09726 0.66942 0.0
H278 H 0.49693 0.15885 0.68605 0.0
H279 H 0.47263 0.16216 0.72034 0.0
Pr280 Pr 0.14393 0.10348 1.01126 0.0
Pr281 Pr 0.13266 0.15033 1.00129 0.0
C282 C 0.15817 0.06547 0.0275 0.0
C283 C 0.1536 0.04803 0.04446 0.0
C284 C 0.13778 0.04984 0.06223 0.0
C285 C 0.13414 0.03302 0.07839 0.0
C286 C 0.14632 0.01418 0.07703 0.0
C287 C 0.16191 0.01246 0.05889 0.0
C288 C 0.16549 0.02921 0.04281 0.0
C289 C 0.10491 0.10901 0.98812 0.0
C290 C 0.12401 0.13286 0.05663 0.0
C291 C 0.11639 0.1862 0.98125 0.0
C292 C 0.11912 0.20078 0.96052 0.0
C293 C 0.13841 0.20199 0.94778 0.0
C294 C 0.14076 0.21646 0.92866 0.0
C295 C 0.12384 0.22997 0.92181 0.0
C296 C 0.1044 0.22827 0.93435 0.0
C297 C 0.10211 0.21386 0.95347 0.0
C298 C 0.17356 0.14479 1.0203 0.0
C299 C 0.16051 0.12238 0.95974 0.0
O300 O 0.16411 0.08374 0.03665 0.0
O301 O 0.14546 0.06747 1.00901 0.0
O302 O 0.1115 0.12064 1.00524 0.0
O303 O 0.11788 0.09339 0.98387 0.0
O304 O 0.11947 0.14851 0.0414 0.0
O305 O 0.13385 0.11544 0.04936 0.0
O306 O 0.10922 0.1671 0.9766 0.0
O307 O 0.13115 0.18632 0.99787 0.0
O308 O 0.16473 0.13292 1.00497 0.0
O309 O 0.16158 0.16116 0.02523 0.0
O310 O 0.16404 0.10798 0.97657 0.0
O311 O 0.14782 0.13891 0.96389 0.0
H312 H 0.1284 0.06428 0.06372 0.0
H313 H 0.12215 0.03497 0.09225 0.0
H314 H 0.17133 0.9981 0.05703 0.0
H315 H 0.17768 0.02749 0.0291 0.0
H316 H 0.1517 0.19188 0.95273 0.0
H317 H 0.15586 0.21704 0.91924 0.0
H318 H 0.0911 0.23852 0.92986 0.0
H319 H 0.08705 0.21313 0.96301 0.0
Pr320 Pr 0.89725 0.88187 0.74896 0.0
Pr321 Pr 0.85013 0.88923 0.75501 0.0
C322 C 0.93569 0.86914 0.73215 0.0
C323 C 0.95113 0.87285 0.71227 0.0
C324 C 0.97113 0.88171 0.71748 0.0
C325 C 0.98633 0.88451 0.6993 0.0
C326 C 0.98199 0.87841 0.67539 0.0
C327 C 0.962 0.86941 0.67017 0.0
C328 C 0.94672 0.86669 0.68838 0.0
C329 C 0.88741 0.92284 0.76574 0.0
C330 C 0.86972 0.90567 0.704 0.0
C331 C 0.80976 0.89853 0.76817 0.0
C332 C 0.79429 0.89531 0.78788 0.0
C333 C 0.77366 0.88831 0.78228 0.0
C334 C 0.75838 0.88579 0.8004 0.0
C335 C 0.76341 0.89037 0.82452 0.0
C336 C 0.78422 0.89707 0.83016 0.0
C337 C 0.79955 0.89945 0.81202 0.0
C338 C 0.85979 0.85107 0.73199 0.0
C339 C 0.87867 0.87396 0.8032 0.0
O340 O 0.9178 0.85952 0.72696 0.0
O341 O 0.93338 0.88418 0.74827 0.0
O342 O 0.87755 0.91281 0.74961 0.0
O343 O 0.90341 0.91174 0.77377 0.0
O344 O 0.85366 0.90778 0.71913 0.0
O345 O 0.88729 0.89535 0.71033 0.0
O346 O 0.82588 0.91129 0.77207 0.0
O347 O 0.81482 0.88177 0.75546 0.0
O348 O 0.86961 0.85783 0.7505 0.0
O349 O 0.8445 0.86375 0.72571 0.0
O350 O 0.89461 0.86878 0.78874 0.0
O351 O 0.86136 0.88315 0.79464 0.0
H352 H 0.97512 0.8863 0.73574 0.0
H353 H 1.00166 0.89117 0.70409 0.0
H354 H 0.95806 0.86469 0.65194 0.0
H355 H 0.93151 0.85969 0.68373 0.0
H356 H 0.76927 0.88504 0.76377 0.0
H357 H 0.74246 0.88083 0.79543 0.0
H358 H 0.78866 0.90046 0.84862 0.0
H359 H 0.81541 0.9047 0.81687 0.0
Pr360 Pr 0.87538 0.15192 0.49968 0.0
Pr361 Pr 0.86459 0.10476 0.50825 0.0
C362 C 0.89108 0.18844 0.48066 0.0
C363 C 0.88778 0.20299 0.46005 0.0
C364 C 0.8691 0.20229 0.44622 0.0
C365 C 0.86619 0.21651 0.42699 0.0
C366 C 0.88194 0.23168 0.42113 0.0
C367 C 0.9008 0.23198 0.43484 0.0
C368 C 0.90365 0.21781 0.45408 0.0
C369 C 0.83417 0.14544 0.51769 0.0
C370 C 0.84927 0.12435 0.45672 0.0
C371 C 0.85036 0.06635 0.52313 0.0
C372 C 0.8542 0.04906 0.54045 0.0
C373 C 0.86978 0.0507 0.55846 0.0
C374 C 0.87288 0.03392 0.57478 0.0
C375 C 0.8604 0.01531 0.57333 0.0
C376 C 0.84504 0.01377 0.55497 0.0
C377 C 0.84198 0.03048 0.53874 0.0
C378 C 0.90331 0.11107 0.48489 0.0
C379 C 0.88455 0.1332 0.55427 0.0
O380 O 0.89874 0.16958 0.47571 0.0
O381 O 0.87627 0.18799 0.49726 0.0
O382 O 0.84346 0.13397 0.50231 0.0
O383 O 0.8458 0.16187 0.52328 0.0
O384 O 0.84558 0.10946 0.47293 0.0
O385 O 0.86126 0.14115 0.46174 0.0
O386 O 0.84316 0.08441 0.53167 0.0
O387 O 0.86442 0.06877 0.50596 0.0
O388 O 0.89689 0.12229 0.50252 0.0
O389 O 0.89039 0.09548 0.48037 0.0
O390 O 0.8888 0.14926 0.5395 0.0
O391 O 0.87478 0.11589 0.54661 0.0
H392 H 0.85672 0.19083 0.45037 0.0
H393 H 0.85159 0.21557 0.41666 0.0
H394 H 0.91316 0.24355 0.43112 0.0
H395 H 0.91822 0.21856 0.46449 0.0
H396 H 0.87941 0.06496 0.55996 0.0
H397 H 0.88471 0.03571 0.58882 0.0
H398 H 0.8354 0.99956 0.55305 0.0
H399 H 0.82999 0.0289 0.52482 0.0
Pr400 Pr 0.59902 0.12297 0.25424 0.0
Pr401 Pr 0.6457 0.1143 0.26601 0.0
C402 C 0.56293 0.13718 0.23294 0.0
C403 C 0.54893 0.13363 0.21169 0.0
C404 C 0.53176 0.11931 0.21295 0.0
C405 C 0.51785 0.11687 0.19344 0.0
C406 C 0.52063 0.12876 0.17214 0.0
C407 C 0.5378 0.14312 0.1709 0.0
C408 C 0.55174 0.14555 0.19043 0.0
C409 C 0.6058 0.08229 0.27351 0.0
C410 C 0.62921 0.0969 0.21374 0.0
C411 C 0.68384 0.10218 0.28362 0.0
C412 C 0.70074 0.10788 0.30106 0.0
C413 C 0.71688 0.12248 0.29493 0.0
C414 C 0.73403 0.12604 0.31051 0.0
C415 C 0.73549 0.11495 0.33244 0.0
C416 C 0.71903 0.10084 0.33884 0.0
C417 C 0.70191 0.09729 0.32331 0.0
C418 C 0.63914 0.15277 0.24218 0.0
C419 C 0.61434 0.13355 0.30985 0.0
O420 O 0.58173 0.1455 0.22909 0.0
O421 O 0.56306 0.12278 0.24999 0.0
O422 O 0.61783 0.09168 0.25875 0.0
O423 O 0.58882 0.09356 0.27778 0.0
O424 O 0.64326 0.094 0.23108 0.0
O425 O 0.61203 0.10877 0.21729 0.0
O426 O 0.66569 0.09514 0.29215 0.0
O427 O 0.68165 0.11413 0.26448 0.0
O428 O 0.62729 0.14589 0.25902 0.0
O429 O 0.65537 0.14041 0.23859 0.0
O430 O 0.59874 0.13614 0.29409 0.0
O431 O 0.63285 0.12525 0.30368 0.0
H432 H 0.52885 0.11014 0.22915 0.0
H433 H 0.50459 0.10597 0.19531 0.0
H434 H 0.54057 0.15242 0.15476 0.0
H435 H 0.56463 0.15695 0.18892 0.0
H436 H 0.71661 0.13074 0.2778 0.0
H437 H 0.74653 0.13687 0.30497 0.0
H438 H 0.71952 0.09229 0.35579 0.0
H439 H 0.68983 0.08585 0.32851 0.0
Pr440 Pr 0.63072 0.85593 1.00146 0.0
Pr441 Pr 0.64093 0.90281 1.01164 0.0
C442 C 0.61572 0.81974 0.98106 0.0
C443 C 0.61977 0.80465 0.96084 0.0
C444 C 0.63129 0.78578 0.96483 0.0
C445 C 0.63428 0.77098 0.94625 0.0
C446 C 0.62573 0.77455 0.92315 0.0
C447 C 0.61406 0.79338 0.91918 0.0
C448 C 0.6111 0.80823 0.93779 0.0
C449 C 0.67174 0.8622 1.01998 0.0
C450 C 0.65738 0.88463 0.95973 0.0
C451 C 0.65473 0.94099 0.02765 0.0
C452 C 0.65125 0.95747 0.04603 0.0
C453 C 0.63341 0.95713 0.06128 0.0
C454 C 0.63054 0.97323 0.07851 0.0
C455 C 0.64554 0.9898 0.08078 0.0
C456 C 0.66329 0.98999 0.0653 0.0
C457 C 0.6661 0.97399 0.04812 0.0
C458 C 0.60246 0.89656 0.98765 0.0
C459 C 0.62073 0.87316 0.05653 0.0
O460 O 0.60863 0.83877 0.97571 0.0
O461 O 0.62913 0.81985 0.9991 0.0
O462 O 0.66243 0.874 1.00499 0.0
O463 O 0.66025 0.84548 0.0248 0.0
O464 O 0.66062 0.89914 0.97651 0.0
O465 O 0.64526 0.86774 0.96402 0.0
O466 O 0.66278 0.92286 0.03488 0.0
O467 O 0.64 0.93881 1.01121 0.0
O468 O 0.60886 0.88518 1.00511 0.0
O469 O 0.61537 0.91224 0.98342 0.0
O470 O 0.61676 0.85752 0.04113 0.0
O471 O 0.63052 0.89073 0.04965 0.0
H472 H 0.63783 0.78228 0.98244 0.0
H473 H 0.643 0.7565 0.95017 0.0
H474 H 0.60737 0.79675 0.90161 0.0
H475 H 0.6019 0.82246 0.93411 0.0
H476 H 0.62179 0.94443 0.0599 0.0
H477 H 0.61681 0.9725 0.09032 0.0
H478 H 0.67498 1.00265 0.0663 0.0
H479 H 0.67991 0.97453 0.0364 0.0
Pr480 Pr 0.9071 0.12168 0.78964 0.0
Pr481 Pr 0.85583 0.11562 0.78221 0.0
C482 C 0.94617 0.13231 0.80615 0.0
C483 C 0.95876 0.13139 0.82865 0.0
C484 C 0.95601 0.11474 0.84528 0.0
C485 C 0.9693 0.11312 0.86546 0.0
C486 C 0.98556 0.12816 0.86954 0.0
C487 C 0.98768 0.14527 0.85331 0.0
C488 C 0.97445 0.14682 0.83305 0.0
C489 C 0.89359 0.08207 0.77254 0.0
C490 C 0.87689 0.10146 0.83486 0.0
C491 C 0.81767 0.09965 0.76936 0.0
C492 C 0.79928 0.10416 0.75375 0.0
C493 C 0.7996 0.12103 0.73716 0.0
C494 C 0.78259 0.12393 0.72113 0.0
C495 C 0.76507 0.10991 0.72136 0.0
C496 C 0.76466 0.09341 0.73853 0.0
C497 C 0.7816 0.09058 0.75454 0.0
C498 C 0.86519 0.15732 0.7979 0.0
C499 C 0.88715 0.13042 0.73544 0.0
O500 O 0.93029 0.14581 0.80539 0.0
O501 O 0.94187 0.11413 0.79569 0.0
O502 O 0.88435 0.09319 0.78832 0.0
O503 O 0.91099 0.09133 0.76513 0.0
O504 O 0.86011 0.10083 0.82045 0.0
O505 O 0.89555 0.10946 0.828 0.0
O506 O 0.83552 0.09484 0.75835 0.0
O507 O 0.8203 0.11182 0.78832 0.0
O508 O 0.87789 0.14248 0.79287 0.0
O509 O 0.84594 0.15101 0.79308 0.0
O510 O 0.90326 0.13505 0.75003 0.0
O511 O 0.86923 0.12174 0.74335 0.0
H512 H 0.94388 0.10274 0.84241 0.0
H513 H 0.96699 0.09992 0.87776 0.0
H514 H 1.00012 0.15703 0.85573 0.0
H515 H 0.97683 0.1598 0.82047 0.0
H516 H 0.8132 0.13162 0.73624 0.0
H517 H 0.78351 0.13667 0.70801 0.0
H518 H 0.7513 0.08252 0.73944 0.0
H519 H 0.78108 0.07748 0.76725 0.0
Pr520 Pr 0.6334 0.1504 0.54432 0.0
Pr521 Pr 0.64454 0.10404 0.53286 0.0
C522 C 0.61674 0.186 0.56441 0.0
C523 C 0.61956 0.20085 0.58473 0.0
C524 C 0.63843 0.20124 0.59823 0.0
C525 C 0.64092 0.21598 0.617 0.0
C526 C 0.62454 0.23055 0.62267 0.0
C527 C 0.6055 0.2297 0.60936 0.0
C528 C 0.60307 0.21501 0.59059 0.0
C529 C 0.67449 0.14544 0.52528 0.0
C530 C 0.66054 0.12195 0.58535 0.0
C531 C 0.65953 0.06661 0.51594 0.0
C532 C 0.65537 0.04926 0.49883 0.0
C533 C 0.63849 0.0502 0.4823 0.0
C534 C 0.63512 0.03336 0.46612 0.0
C535 C 0.64863 0.01542 0.46622 0.0
C536 C 0.66529 0.01457 0.48313 0.0
C537 C 0.66861 0.03132 0.49923 0.0
C538 C 0.60581 0.10878 0.55686 0.0
C539 C 0.62292 0.13391 0.48906 0.0
O540 O 0.61025 0.16677 0.56967 0.0
O541 O 0.63116 0.18634 0.54739 0.0
O542 O 0.66557 0.1331 0.54005 0.0
O543 O 0.66253 0.16194 0.52097 0.0
O544 O 0.66422 0.10784 0.5682 0.0
O545 O 0.64797 0.13856 0.5815 0.0
O546 O 0.66507 0.0851 0.507 0.0
O547 O 0.64674 0.0681 0.53446 0.0
O548 O 0.61208 0.12082 0.53991 0.0
O549 O 0.6189 0.09312 0.56037 0.0
O550 O 0.61968 0.1494 0.50481 0.0
O551 O 0.63242 0.11595 0.49517 0.0
H552 H 0.65128 0.19029 0.59412 0.0
H553 H 0.65568 0.21598 0.62707 0.0
H554 H 0.59267 0.24079 0.61296 0.0
H555 H 0.58836 0.2149 0.58039 0.0
H556 H 0.62808 0.06396 0.48181 0.0
H557 H 0.62226 0.03459 0.4532 0.0
H558 H 0.67577 1.00088 0.48399 0.0
H559 H 0.68162 0.03029 0.512 0.0
Pr560 Pr 0.60322 0.88101 0.29347 0.0
Pr561 Pr 0.64978 0.89144 0.28292 0.0
C562 C 0.5671 0.86556 0.31361 0.0
C563 C 0.55161 0.8696 0.33344 0.0
C564 C 0.53246 0.88044 0.32879 0.0
C565 C 0.51732 0.88339 0.34702 0.0
C566 C 0.52081 0.87548 0.37043 0.0
C567 C 0.53992 0.86451 0.37507 0.0
C568 C 0.55513 0.86159 0.35682 0.0
C569 C 0.6091 0.92261 0.27644 0.0
C570 C 0.63236 0.90662 0.33561 0.0
C571 C 0.68841 0.90457 0.26736 0.0
C572 C 0.705 0.90131 0.24903 0.0
C573 C 0.72225 0.91541 0.24831 0.0
C574 C 0.73858 0.91259 0.23153 0.0
C575 C 0.738 0.89557 0.21503 0.0
C576 C 0.72067 0.88133 0.2159 0.0
C577 C 0.70426 0.8842 0.23277 0.0
C578 C 0.64367 0.85206 0.30521 0.0
C579 C 0.61893 0.8749 0.23749 0.0
O580 O 0.58618 0.85896 0.31943 0.0
O581 O 0.56718 0.87869 0.29528 0.0
O582 O 0.62119 0.91299 0.29092 0.0
O583 O 0.59249 0.91108 0.27135 0.0
O584 O 0.64679 0.91014 0.3188 0.0
O585 O 0.61527 0.89485 0.33113 0.0
O586 O 0.67056 0.91339 0.26045 0.0
O587 O 0.68572 0.88935 0.2831 0.0
O588 O 0.63212 0.85906 0.2882 0.0
O589 O 0.65927 0.86488 0.30988 0.0
O590 O 0.60455 0.86827 0.25328 0.0
O591 O 0.63618 0.88514 0.24443 0.0
H592 H 0.52902 0.88646 0.31092 0.0
H593 H 0.50263 0.89156 0.3426 0.0
H594 H 0.54325 0.85833 0.39289 0.0
H595 H 0.56957 0.85293 0.36102 0.0
H596 H 0.72315 0.92861 0.26087 0.0
H597 H 0.75181 0.92366 0.23166 0.0
H598 H 0.71962 0.86819 0.20331 0.0
H599 H 0.69103 0.87312 0.23313 0.0
Pr600 Pr 0.87293 0.85731 0.04042 0.0
Pr601 Pr 0.8615 0.90399 0.03089 0.0
C602 C 0.89001 0.82156 0.05976 0.0
C603 C 0.88741 0.80638 0.07992 0.0
C604 C 0.86777 0.80374 0.09163 0.0
C605 C 0.86559 0.78872 0.11019 0.0
C606 C 0.88302 0.77607 0.11748 0.0
C607 C 0.90279 0.77923 0.10602 0.0
C608 C 0.90492 0.7942 0.08745 0.0
C609 C 0.83137 0.86265 0.02322 0.0
C610 C 0.84642 0.8852 0.08301 0.0
C611 C 0.84725 0.94213 1.01508 0.0
C612 C 0.85228 0.95957 0.9983 0.0
C613 C 0.84197 0.9792 1.00118 0.0
C614 C 0.84609 0.99601 0.98536 0.0
C615 C 0.86064 0.99354 0.96626 0.0
C616 C 0.87125 0.97387 0.96365 0.0
C617 C 0.86708 0.957 0.97955 0.0
C618 C 0.90125 0.89846 0.05243 0.0
C619 C 0.87994 0.87457 0.98485 0.0
O620 O 0.89637 0.84077 0.06526 0.0
O621 O 0.8756 0.82133 0.04275 0.0
O622 O 0.84067 0.87472 0.03798 0.0
O623 O 0.84319 0.84624 1.01799 0.0
O624 O 0.84254 0.89973 0.06644 0.0
O625 O 0.85867 0.86848 0.07829 0.0
O626 O 0.84134 0.92394 1.00571 0.0
O627 O 0.85974 0.93996 0.03373 0.0
O628 O 0.89413 0.88688 0.03554 0.0
O629 O 0.88844 0.91409 0.05716 0.0
O630 O 0.88534 0.85921 1.00007 0.0
O631 O 0.87001 0.89184 0.99238 0.0
H632 H 0.85409 0.81315 0.0863 0.0
H633 H 0.85021 0.787 0.11882 0.0
H634 H 0.91649 0.76969 0.11091 0.0
H635 H 0.92025 0.79606 0.0787 0.0
H636 H 0.83061 0.9815 1.01567 0.0
H637 H 0.8379 0.011 0.98816 0.0
H638 H 0.8824 0.97135 0.94903 0.0
H639 H 0.87525 0.94195 0.97711 0.0
Pr640 Pr 0.6522 0.61466 0.78364 0.0
Pr641 Pr 0.60567 0.62521 0.7919 0.0
C642 C 0.69133 0.60251 0.76873 0.0
C643 C 0.70759 0.60673 0.74998 0.0
C644 C 0.7272 0.61578 0.7566 0.0
C645 C 0.74338 0.61861 0.73955 0.0
C646 C 0.74036 0.61221 0.71554 0.0
C647 C 0.72056 0.60356 0.70881 0.0
C648 C 0.70433 0.60087 0.72582 0.0
C649 C 0.64577 0.65384 0.80614 0.0
C650 C 0.62318 0.63161 0.73655 0.0
C651 C 0.5692 0.64129 0.81063 0.0
C652 C 0.55474 0.63843 0.83139 0.0
C653 C 0.55445 0.6194 0.84466 0.0
C654 C 0.54022 0.61688 0.86395 0.0
C655 C 0.52605 0.63337 0.87042 0.0
C656 C 0.52681 0.65258 0.85735 0.0
C657 C 0.541 0.65504 0.83804 0.0
C658 C 0.61193 0.58374 0.77467 0.0
C659 C 0.63313 0.59937 0.83541 0.0
O660 O 0.67382 0.59266 0.76241 0.0
O661 O 0.68814 0.61742 0.78474 0.0
O662 O 0.63478 0.6472 0.78847 0.0
O663 O 0.6608 0.64058 0.81163 0.0
O664 O 0.60781 0.63748 0.75154 0.0
O665 O 0.64038 0.62187 0.74455 0.0
O666 O 0.58805 0.64907 0.81529 0.0
O667 O 0.56963 0.62615 0.79445 0.0
O668 O 0.62336 0.59304 0.79006 0.0
O669 O 0.59581 0.5956 0.76853 0.0
O670 O 0.64825 0.59591 0.81939 0.0
O671 O 0.61621 0.61112 0.83004 0.0
H672 H 0.73019 0.62029 0.77514 0.0
H673 H 0.7585 0.62512 0.74534 0.0
H674 H 0.71768 0.59871 0.69037 0.0
H675 H 0.68939 0.5939 0.72009 0.0
H676 H 0.56512 0.60645 0.84001 0.0
H677 H 0.54032 0.60199 0.8738 0.0
H678 H 0.51603 0.66552 0.86158 0.0
H679 H 0.54105 0.66989 0.82808 0.0
Pr680 Pr 0.64243 0.39677 0.02525 0.0
Pr681 Pr 0.63569 0.3459 0.03768 0.0
C682 C 0.65829 0.43368 1.00833 0.0
C683 C 0.65367 0.45201 0.99242 0.0
C684 C 0.63536 0.4647 0.99525 0.0
C685 C 0.63211 0.48255 0.98048 0.0
C686 C 0.64712 0.48807 0.96267 0.0
C687 C 0.66518 0.47504 0.95968 0.0
C688 C 0.66843 0.4573 0.97441 0.0
C689 C 0.60189 0.3889 0.04533 0.0
C690 C 0.62337 0.3634 0.98271 0.0
C691 C 0.62414 0.30821 0.0572 0.0
C692 C 0.62292 0.29703 0.08062 0.0
C693 C 0.63747 0.3014 0.09917 0.0
C694 C 0.6377 0.28892 0.1201 0.0
C695 C 0.62337 0.27182 0.12295 0.0
C696 C 0.60817 0.26818 0.10478 0.0
C697 C 0.608 0.28064 0.08382 0.0
C698 C 0.67446 0.35684 1.01608 0.0
C699 C 0.65899 0.37835 0.0784 0.0
O700 O 0.66171 0.41523 0.99786 0.0
O701 O 0.64794 0.43223 0.02884 0.0
O702 O 0.61623 0.37591 0.03969 0.0
O703 O 0.60809 0.4079 0.0391 0.0
O704 O 0.62159 0.34742 0.9983 0.0
O705 O 0.63142 0.38222 0.98842 0.0
O706 O 0.61053 0.32363 0.05317 0.0
O707 O 0.64324 0.3122 0.04886 0.0
O708 O 0.66446 0.36779 0.03148 0.0
O709 O 0.66446 0.33901 1.01189 0.0
O710 O 0.66007 0.39373 0.06209 0.0
O711 O 0.6491 0.35998 0.07428 0.0
H712 H 0.62369 0.46098 1.009 0.0
H713 H 0.61809 0.49228 0.98338 0.0
H714 H 0.67686 0.47848 0.94584 0.0
H715 H 0.68264 0.44775 0.97184 0.0
H716 H 0.64905 0.31407 0.09718 0.0
H717 H 0.64941 0.29239 0.13386 0.0
H718 H 0.59703 0.25508 0.10623 0.0
H719 H 0.59666 0.27698 0.06972 0.0
Pr720 Pr 0.8538 0.39136 0.28141 0.0
Pr721 Pr 0.9002 0.38131 0.29202 0.0
C722 C 0.81516 0.40323 0.26466 0.0
C723 C 0.79943 0.39893 0.24539 0.0
C724 C 0.77935 0.39069 0.25157 0.0
C725 C 0.76368 0.38771 0.23398 0.0
C726 C 0.76769 0.39312 0.20983 0.0
C727 C 0.78791 0.40108 0.20358 0.0
C728 C 0.80363 0.40393 0.22116 0.0
C729 C 0.86003 0.3519 0.30358 0.0
C730 C 0.88499 0.37515 0.23599 0.0
C731 C 0.93627 0.36565 0.31207 0.0
C732 C 0.95098 0.36903 0.33249 0.0
C733 C 0.95257 0.38884 0.34408 0.0
C734 C 0.9672 0.3918 0.36287 0.0
C735 C 0.98049 0.37498 0.37052 0.0
C736 C 0.97841 0.35503 0.35916 0.0
C737 C 0.96383 0.35213 0.34035 0.0
C738 C 0.89409 0.42294 0.27497 0.0
C739 C 0.87057 0.40639 0.33422 0.0
O740 O 0.83288 0.41298 0.25888 0.0
O741 O 0.81782 0.38847 0.28096 0.0
O742 O 0.87159 0.35906 0.28664 0.0
O743 O 0.84442 0.36471 0.30838 0.0
O744 O 0.89936 0.36862 0.2518 0.0
O745 O 0.86767 0.38528 0.24297 0.0
O746 O 0.91725 0.35854 0.31725 0.0
O747 O 0.93619 0.37997 0.29494 0.0
O748 O 0.8821 0.41331 0.28957 0.0
O749 O 0.91065 0.41136 0.26968 0.0
O750 O 0.8562 0.40996 0.31739 0.0
O751 O 0.88775 0.39474 0.3297 0.0
H752 H 0.77561 0.38688 0.27014 0.0
H753 H 0.74822 0.38177 0.23944 0.0
H754 H 0.79159 0.40516 0.18508 0.0
H755 H 0.81895 0.41029 0.21578 0.0
H756 H 0.94263 0.40206 0.33847 0.0
H757 H 0.96811 0.40729 0.3714 0.0
H758 H 0.98849 0.34179 0.36431 0.0
H759 H 0.9628 0.33669 0.33169 0.0
Pr760 Pr 0.86322 0.60229 0.5326 0.0
Pr761 Pr 0.87467 0.64842 0.54132 0.0
C762 C 0.84832 0.5641 0.51781 0.0
C763 C 0.85196 0.547 0.50024 0.0
C764 C 0.86883 0.54786 0.48367 0.0
C765 C 0.87191 0.53121 0.46719 0.0
C766 C 0.85811 0.51352 0.46703 0.0
C767 C 0.84137 0.51277 0.48389 0.0
C768 C 0.83835 0.52935 0.50031 0.0
C769 C 0.90334 0.60736 0.55328 0.0
C770 C 0.88058 0.63145 0.48592 0.0
C771 C 0.89076 0.68504 0.55954 0.0
C772 C 0.88782 0.69951 0.58022 0.0
C773 C 0.87003 0.69778 0.59541 0.0
C774 C 0.86737 0.71192 0.61474 0.0
C775 C 0.88248 0.72804 0.61929 0.0
C776 C 0.90049 0.72937 0.60423 0.0
C777 C 0.90311 0.71525 0.5849 0.0
C778 C 0.83259 0.6425 0.52568 0.0
C779 C 0.85007 0.62072 0.58536 0.0
O780 O 0.84121 0.58227 0.50952 0.0
O781 O 0.86257 0.56631 0.53474 0.0
O782 O 0.8962 0.61906 0.53647 0.0
O783 O 0.89031 0.59204 0.55841 0.0
O784 O 0.88719 0.64625 0.50116 0.0
O785 O 0.87009 0.61456 0.49358 0.0
O786 O 0.89857 0.66621 0.56433 0.0
O787 O 0.87553 0.68449 0.5435 0.0
O788 O 0.84228 0.63128 0.54088 0.0
O789 O 0.84459 0.65804 0.51816 0.0
O790 O 0.84543 0.60638 0.56885 0.0
O791 O 0.8623 0.6373 0.58008 0.0
H792 H 0.87951 0.56142 0.48342 0.0
H793 H 0.88481 0.53238 0.45429 0.0
H794 H 0.83064 0.49926 0.48452 0.0
H795 H 0.82533 0.52838 0.51311 0.0
H796 H 0.85815 0.68559 0.59223 0.0
H797 H 0.85345 0.71022 0.62612 0.0
H798 H 0.91231 0.7417 0.60695 0.0
H799 H 0.91699 0.71678 0.57342 0.0
Pr800 Pr 0.64995 0.39222 0.76065 0.0
Pr801 Pr 0.60311 0.38388 0.74948 0.0
C802 C 0.68832 0.4037 0.77815 0.0
C803 C 0.70459 0.39791 0.79632 0.0
C804 C 0.72369 0.38815 0.78898 0.0
C805 C 0.74004 0.38435 0.80554 0.0
C806 C 0.73772 0.39049 0.82974 0.0
C807 C 0.71839 0.39973 0.83721 0.0
C808 C 0.70201 0.40341 0.8207 0.0
C809 C 0.64299 0.35434 0.73588 0.0
C810 C 0.61914 0.37157 0.80422 0.0
C811 C 0.56653 0.36992 0.72922 0.0
C812 C 0.5522 0.37292 0.70833 0.0
C813 C 0.54446 0.3931 0.70172 0.0
C814 C 0.52994 0.3952 0.68269 0.0
C815 C 0.52287 0.37717 0.66983 0.0
C816 C 0.53106 0.35708 0.67624 0.0
C817 C 0.5455 0.355 0.69528 0.0
C818 C 0.61045 0.42414 0.7697 0.0
C819 C 0.63288 0.41018 0.70885 0.0
O820 O 0.67034 0.41193 0.78575 0.0
O821 O 0.68596 0.39093 0.75973 0.0
O822 O 0.63146 0.36086 0.75316 0.0
O823 O 0.65905 0.36687 0.73206 0.0
O824 O 0.60339 0.36942 0.78861 0.0
O825 O 0.6375 0.38025 0.79813 0.0
O826 O 0.58509 0.36118 0.72506 0.0
O827 O 0.56721 0.3849 0.74559 0.0
O828 O 0.62204 0.41498 0.75434 0.0
O829 O 0.59352 0.41285 0.77416 0.0
O830 O 0.64722 0.41281 0.72595 0.0
O831 O 0.61571 0.39834 0.71252 0.0
H832 H 0.72624 0.38394 0.77026 0.0
H833 H 0.75481 0.3774 0.7992 0.0
H834 H 0.71604 0.4044 0.85582 0.0
H835 H 0.68753 0.41099 0.82698 0.0
H836 H 0.54937 0.40723 0.71145 0.0
H837 H 0.52385 0.4109 0.67847 0.0
H838 H 0.52634 0.34288 0.66653 0.0
H839 H 0.55129 0.33927 0.69999 0.0
Pr840 Pr 0.86524 0.40079 1.0091 0.0
Pr841 Pr 0.87501 0.35387 1.00004 0.0
C842 C 0.85144 0.43929 0.0241 0.0
C843 C 0.85531 0.45627 0.04172 0.0
C844 C 0.87178 0.45484 0.05871 0.0
C845 C 0.87492 0.47132 0.07539 0.0
C846 C 0.86156 0.48936 0.07531 0.0
C847 C 0.8453 0.4907 0.05797 0.0
C848 C 0.84222 0.47431 0.04136 0.0
C849 C 0.90383 0.39428 0.98547 0.0
C850 C 0.88465 0.37171 0.05488 0.0
C851 C 0.88971 0.31699 0.98097 0.0
C852 C 0.88688 0.30253 0.9601 0.0
C853 C 0.86671 0.29517 0.95297 0.0
C854 C 0.8647 0.2808 0.93374 0.0
C855 C 0.88282 0.27348 0.92117 0.0
C856 C 0.90293 0.28124 0.92816 0.0
C857 C 0.90491 0.29553 0.94739 0.0
C858 C 0.83388 0.36107 1.0181 0.0
C859 C 0.84943 0.38207 0.95732 0.0
O860 O 0.84378 0.42131 0.0323 0.0
O861 O 0.86576 0.43676 1.00724 0.0
O862 O 0.89734 0.38291 1.00295 0.0
O863 O 0.89099 0.40998 0.98115 0.0
O864 O 0.88837 0.35568 0.03991 0.0
O865 O 0.87537 0.38938 0.04746 0.0
O866 O 0.89841 0.33553 0.97671 0.0
O867 O 0.87454 0.31785 0.99713 0.0
O868 O 0.84339 0.37228 1.0027 0.0
O869 O 0.84534 0.34456 0.02386 0.0
O870 O 0.84598 0.39675 0.97384 0.0
O871 O 0.86131 0.36512 0.96205 0.0
H872 H 0.88206 0.44098 0.05916 0.0
H873 H 0.88746 0.46972 0.08865 0.0
H874 H 0.83495 0.5045 0.05716 0.0
H875 H 0.82952 0.47569 0.02824 0.0
H876 H 0.85249 0.30033 0.96239 0.0
H877 H 0.84897 0.27506 0.9291 0.0
H878 H 0.91721 0.27634 0.91871 0.0
H879 H 0.92064 0.30104 0.95247 0.0
Pr880 Pr 0.85666 0.6155 0.25782 0.0
Pr881 Pr 0.90387 0.6227 0.25031 0.0
C882 C 0.81648 0.60658 0.27204 0.0
C883 C 0.80066 0.61096 0.2912 0.0
C884 C 0.78097 0.62005 0.28498 0.0
C885 C 0.7651 0.62301 0.30239 0.0
C886 C 0.76853 0.61673 0.32637 0.0
C887 C 0.78846 0.6081 0.33271 0.0
C888 C 0.80439 0.60529 0.31533 0.0
C889 C 0.8658 0.65224 0.23168 0.0
C890 C 0.88566 0.63315 0.30457 0.0
C891 C 0.94194 0.63529 0.23219 0.0
C892 C 0.9561 0.6333 0.21083 0.0
C893 C 0.96332 0.61341 0.20248 0.0
C894 C 0.97773 0.61215 0.18318 0.0
C895 C 0.98528 0.63073 0.17173 0.0
C896 C 0.97766 0.65057 0.1799 0.0
C897 C 0.96331 0.65182 0.19921 0.0
C898 C 0.89459 0.58271 0.27026 0.0
C899 C 0.87571 0.59696 0.20761 0.0
O900 O 0.83287 0.59454 0.27728 0.0
O901 O 0.8212 0.62226 0.25752 0.0
O902 O 0.87595 0.6466 0.25046 0.0
O903 O 0.85047 0.63916 0.22675 0.0
O904 O 0.90207 0.63639 0.29002 0.0
O905 O 0.86785 0.62462 0.29655 0.0
O906 O 0.9244 0.64629 0.22965 0.0
O907 O 0.93959 0.61871 0.2462 0.0
O908 O 0.88418 0.59182 0.25382 0.0
O909 O 0.91109 0.59404 0.27637 0.0
O910 O 0.86031 0.59477 0.22357 0.0
O911 O 0.89299 0.60829 0.21255 0.0
H912 H 0.77767 0.62446 0.26648 0.0
H913 H 0.74988 0.6295 0.29688 0.0
H914 H 0.79167 0.60335 0.35111 0.0
H915 H 0.81945 0.59836 0.32074 0.0
H916 H 0.95809 0.59882 0.21105 0.0
H917 H 0.98336 0.59659 0.17766 0.0
H918 H 0.98274 0.66522 0.17136 0.0
H919 H 0.95801 0.66736 0.20526 0.0
Pr920 Pr 0.64144 0.6039 0.5067 0.0
Pr921 Pr 0.63175 0.65057 0.49984 0.0
C922 C 0.65426 0.56462 0.52034 0.0
C923 C 0.65171 0.54864 0.53948 0.0
C924 C 0.63459 0.54941 0.55574 0.0
C925 C 0.6323 0.5336 0.57339 0.0
C926 C 0.64718 0.51688 0.57512 0.0
C927 C 0.66433 0.51631 0.55878 0.0
C928 C 0.66654 0.53203 0.54115 0.0
C929 C 0.60289 0.61106 0.48329 0.0
C930 C 0.62392 0.63191 0.55444 0.0
C931 C 0.61706 0.68811 0.48238 0.0
C932 C 0.61963 0.70246 0.46145 0.0
C933 C 0.6379 0.70173 0.44688 0.0
C934 C 0.64022 0.71591 0.42751 0.0
C935 C 0.62429 0.73106 0.42226 0.0
C936 C 0.6058 0.73133 0.43665 0.0
C937 C 0.60353 0.71719 0.45602 0.0
C938 C 0.67307 0.64282 0.5169 0.0
C939 C 0.65705 0.62362 0.45542 0.0
O940 O 0.66471 0.58198 0.52579 0.0
O941 O 0.63777 0.56809 0.50655 0.0
O942 O 0.60913 0.62168 0.50147 0.0
O943 O 0.61618 0.59603 0.47777 0.0
O944 O 0.61906 0.64797 0.53997 0.0
O945 O 0.63335 0.61467 0.546 0.0
O946 O 0.60776 0.66984 0.47838 0.0
O947 O 0.63306 0.68661 0.49734 0.0
O948 O 0.66353 0.63245 0.50081 0.0
O949 O 0.66123 0.65837 0.52476 0.0
O950 O 0.66014 0.60817 0.47108 0.0
O951 O 0.64556 0.64063 0.46123 0.0
H952 H 0.62301 0.5622 0.55475 0.0
H953 H 0.61907 0.53463 0.58587 0.0
H954 H 0.67591 0.50353 0.5594 0.0
H955 H 0.6798 0.53115 0.52867 0.0
H956 H 0.65043 0.69032 0.45058 0.0
H957 H 0.65453 0.71499 0.41665 0.0
H958 H 0.59331 0.74288 0.43338 0.0
H959 H 0.58927 0.71796 0.467 0.0
Pr960 Pr 0.40733 0.38396 0.25072 0.0
Pr961 Pr 0.35664 0.39117 0.2612 0.0
C962 C 0.44583 0.37292 0.23277 0.0
C963 C 0.45861 0.37354 0.21026 0.0
C964 C 0.46333 0.39289 0.19866 0.0
C965 C 0.47701 0.39336 0.17871 0.0
C966 C 0.48627 0.3745 0.16976 0.0
C967 C 0.48099 0.35508 0.18102 0.0
C968 C 0.46739 0.35464 0.20106 0.0
C969 C 0.39616 0.42333 0.27061 0.0
C970 C 0.37616 0.40639 0.20816 0.0
C971 C 0.31888 0.40675 0.27616 0.0
C972 C 0.30009 0.40114 0.2908 0.0
C973 C 0.28104 0.41236 0.28737 0.0
C974 C 0.26353 0.40872 0.30241 0.0
C975 C 0.26472 0.39377 0.32128 0.0
C976 C 0.28365 0.38198 0.32412 0.0
C977 C 0.3012 0.38566 0.30902 0.0
C978 C 0.3645 0.34941 0.24417 0.0
C979 C 0.38946 0.37551 0.30571 0.0
O980 O 0.42978 0.35964 0.23383 0.0
O981 O 0.44201 0.39105 0.24359 0.0
O982 O 0.38553 0.4133 0.25497 0.0
O983 O 0.41358 0.41309 0.276 0.0
O984 O 0.36029 0.40765 0.22382 0.0
O985 O 0.39456 0.39698 0.21334 0.0
O986 O 0.33678 0.40964 0.28784 0.0
O987 O 0.32129 0.39694 0.25548 0.0
O988 O 0.3776 0.36395 0.24872 0.0
O989 O 0.34562 0.35607 0.25012 0.0
O990 O 0.40447 0.36985 0.29009 0.0
O991 O 0.37172 0.38523 0.29909 0.0
H992 H 0.45685 0.40778 0.20528 0.0
H993 H 0.48084 0.40866 0.17081 0.0
H994 H 0.48745 0.34017 0.17445 0.0
H995 H 0.46402 0.3395 0.20964 0.0
H996 H 0.27985 0.42432 0.27335 0.0
H997 H 0.24912 0.41784 0.29944 0.0
H998 H 0.2852 0.37049 0.33856 0.0
H999 H 0.31579 0.37682 0.31197 0.0
Pr1000 Pr 0.37568 0.65046 1.00111 0.0
Pr1001 Pr 0.36586 0.60358 1.00943 0.0
C1002 C 0.3911 0.68723 0.98242 0.0
C1003 C 0.38835 0.70148 0.96149 0.0
C1004 C 0.40393 0.71687 0.95647 0.0
C1005 C 0.40156 0.7308 0.93694 0.0
C1006 C 0.3835 0.72966 0.92198 0.0
C1007 C 0.36807 0.7139 0.92688 0.0
C1008 C 0.37049 0.69994 0.94642 0.0
C1009 C 0.33456 0.64354 1.01917 0.0
C1010 C 0.34949 0.62281 0.95818 0.0
C1011 C 0.3541 0.56441 0.02448 0.0
C1012 C 0.35866 0.54818 0.04314 0.0
C1013 C 0.36843 0.5289 0.03648 0.0
C1014 C 0.37166 0.51277 0.05346 0.0
C1015 C 0.36497 0.51547 0.07743 0.0
C1016 C 0.3555 0.53491 0.08419 0.0
C1017 C 0.35241 0.55111 0.06724 0.0
C1018 C 0.40429 0.61061 0.9857 0.0
C1019 C 0.38366 0.63267 0.05611 0.0
O1020 O 0.39946 0.66854 0.97812 0.0
O1021 O 0.37559 0.68651 0.99814 0.0
O1022 O 0.34388 0.6322 1.00367 0.0
O1023 O 0.34623 0.65987 0.02505 0.0
O1024 O 0.34634 0.60772 0.97432 0.0
O1025 O 0.36131 0.63975 0.96321 0.0
O1026 O 0.34427 0.58188 0.03102 0.0
O1027 O 0.36877 0.56765 1.00816 0.0
O1028 O 0.39799 0.62145 1.0037 0.0
O1029 O 0.39116 0.59536 0.98061 0.0
O1030 O 0.38844 0.64846 0.04122 0.0
O1031 O 0.37432 0.6152 0.04821 0.0
H1032 H 0.41787 0.71826 0.96786 0.0
H1033 H 0.41362 0.74285 0.93397 0.0
H1034 H 0.3541 0.71234 0.91559 0.0
H1035 H 0.35838 0.68803 0.94985 0.0
H1036 H 0.37322 0.52614 1.01798 0.0
H1037 H 0.37879 0.49791 0.04764 0.0
H1038 H 0.3504 0.53756 0.1026 0.0
H1039 H 0.34485 0.56577 0.07299 0.0
Pr1040 Pr 0.10386 0.62421 0.74982 0.0
Pr1041 Pr 0.15053 0.61508 0.7616 0.0
C1042 C 0.06774 0.63852 0.72866 0.0
C1043 C 0.05322 0.63454 0.70794 0.0
C1044 C 0.03527 0.62139 0.71066 0.0
C1045 C 0.02089 0.61857 0.69166 0.0
C1046 C 0.02397 0.6289 0.6694 0.0
C1047 C 0.04191 0.64213 0.66669 0.0
C1048 C 0.05633 0.64494 0.68572 0.0
C1049 C 0.11036 0.58341 0.76912 0.0
C1050 C 0.13376 0.59819 0.70921 0.0
C1051 C 0.18856 0.60147 0.77819 0.0
C1052 C 0.20589 0.60528 0.79538 0.0
C1053 C 0.20503 0.6218 0.81239 0.0
C1054 C 0.22188 0.62473 0.82865 0.0
C1055 C 0.23972 0.61111 0.82812 0.0
C1056 C 0.24051 0.59483 0.81072 0.0
C1057 C 0.22375 0.59196 0.79456 0.0
C1058 C 0.14423 0.65322 0.73687 0.0
C1059 C 0.11966 0.63573 0.80504 0.0
O1060 O 0.08664 0.6463 0.72405 0.0
O1061 O 0.06786 0.6247 0.74632 0.0
O1062 O 0.12243 0.59274 0.75437 0.0
O1063 O 0.09345 0.59481 0.77336 0.0
O1064 O 0.14776 0.59501 0.72654 0.0
O1065 O 0.1167 0.61019 0.71282 0.0
O1066 O 0.17033 0.59478 0.78681 0.0
O1067 O 0.18654 0.61501 0.76044 0.0
O1068 O 0.13249 0.64676 0.75401 0.0
O1069 O 0.16035 0.64065 0.73349 0.0
O1070 O 0.10413 0.63831 0.78919 0.0
O1071 O 0.13799 0.62688 0.79911 0.0
H1072 H 0.03212 0.61345 0.72762 0.0
H1073 H 0.00707 0.6086 0.69465 0.0
H1074 H 0.0449 0.65023 0.6498 0.0
H1075 H 0.06983 0.65542 0.68306 0.0
H1076 H 0.19131 0.63226 0.81321 0.0
H1077 H 0.22072 0.6373 0.84195 0.0
H1078 H 0.25413 0.58429 0.80953 0.0
H1079 H 0.22473 0.57922 0.78141 0.0
Pr1080 Pr 0.13179 0.3591 0.49921 0.0
Pr1081 Pr 0.1425 0.40596 0.50654 0.0
C1082 C 0.11605 0.32235 0.48101 0.0
C1083 C 0.11932 0.30712 0.4608 0.0
C1084 C 0.1299 0.28772 0.46488 0.0
C1085 C 0.13247 0.27291 0.44626 0.0
C1086 C 0.12442 0.277 0.42305 0.0
C1087 C 0.11361 0.29631 0.419 0.0
C1088 C 0.1111 0.3112 0.43764 0.0
C1089 C 0.1731 0.36567 0.51656 0.0
C1090 C 0.15782 0.3858 0.45513 0.0
C1091 C 0.15603 0.44495 0.52018 0.0
C1092 C 0.1535 0.46096 0.53924 0.0
C1093 C 0.16806 0.47779 0.54055 0.0
C1094 C 0.1658 0.49355 0.55812 0.0
C1095 C 0.14888 0.49276 0.57473 0.0
C1096 C 0.13426 0.47579 0.57335 0.0
C1097 C 0.13659 0.45995 0.55577 0.0
C1098 C 0.10382 0.39919 0.48331 0.0
C1099 C 0.1244 0.37787 0.55399 0.0
O1100 O 0.10832 0.34116 0.47585 0.0
O1101 O 0.1305 0.32296 0.49797 0.0
O1102 O 0.16383 0.37688 0.50095 0.0
O1103 O 0.16135 0.34952 0.52282 0.0
O1104 O 0.16097 0.40137 0.47066 0.0
O1105 O 0.1463 0.36884 0.46097 0.0
O1106 O 0.16601 0.42737 0.52588 0.0
O1107 O 0.13964 0.44182 0.50615 0.0
O1108 O 0.11006 0.38853 0.50146 0.0
O1109 O 0.11712 0.4142 0.47783 0.0
O1110 O 0.11913 0.36205 0.53935 0.0
O1111 O 0.13416 0.39501 0.54575 0.0
H1112 H 0.13607 0.28389 0.48257 0.0
H1113 H 0.14053 0.25805 0.45019 0.0
H1114 H 0.10732 0.30004 0.40134 0.0
H1115 H 0.10264 0.32587 0.43388 0.0
H1116 H 0.18114 0.47883 0.52784 0.0
H1117 H 0.17717 0.50652 0.5585 0.0
H1118 H 0.12121 0.47461 0.58606 0.0
H1119 H 0.12523 0.44698 0.55502 0.0
Pr1120 Pr 0.39829 0.6242 0.29299 0.0
Pr1121 Pr 0.35141 0.61368 0.28417 0.0
C1122 C 0.43476 0.64 0.31195 0.0
C1123 C 0.44944 0.63721 0.33253 0.0
C1124 C 0.45002 0.6182 0.34584 0.0
C1125 C 0.46457 0.61576 0.36483 0.0
C1126 C 0.47878 0.6323 0.37095 0.0
C1127 C 0.47774 0.65147 0.35782 0.0
C1128 C 0.46324 0.65386 0.33883 0.0
C1129 C 0.39178 0.5828 0.27566 0.0
C1130 C 0.3701 0.59885 0.33628 0.0
C1131 C 0.31276 0.60119 0.26821 0.0
C1132 C 0.29694 0.60559 0.24907 0.0
C1133 C 0.27687 0.61378 0.25538 0.0
C1134 C 0.26124 0.61709 0.23783 0.0
C1135 C 0.26529 0.61208 0.21357 0.0
C1136 C 0.28548 0.60412 0.2072 0.0
C1137 C 0.30117 0.60095 0.22474 0.0
C1138 C 0.35785 0.65284 0.3065 0.0
C1139 C 0.38096 0.63144 0.23772 0.0
O1140 O 0.4159 0.64775 0.31675 0.0
O1141 O 0.43432 0.62493 0.29568 0.0
O1142 O 0.38023 0.59223 0.29087 0.0
O1143 O 0.40822 0.59437 0.26994 0.0
O1144 O 0.35521 0.59512 0.32008 0.0
O1145 O 0.38699 0.6107 0.33106 0.0
O1146 O 0.33054 0.59167 0.26214 0.0
O1147 O 0.3154 0.61587 0.28464 0.0
O1148 O 0.36906 0.64604 0.28904 0.0
O1149 O 0.34247 0.63988 0.31168 0.0
O1150 O 0.39638 0.63686 0.25281 0.0
O1151 O 0.36367 0.62167 0.24547 0.0
H1152 H 0.43935 0.60521 0.34145 0.0
H1153 H 0.46468 0.60089 0.37472 0.0
H1154 H 0.48854 0.66445 0.36176 0.0
H1155 H 0.46301 0.66868 0.32882 0.0
H1156 H 0.27313 0.61733 0.27402 0.0
H1157 H 0.24579 0.62302 0.24336 0.0
H1158 H 0.28917 0.60034 0.18862 0.0
H1159 H 0.31649 0.59466 0.21925 0.0
Pr1160 Pr 0.13648 0.65939 0.03903 0.0
Pr1161 Pr 0.14175 0.60874 0.02688 0.0
C1162 C 0.12654 0.6976 0.05843 0.0
C1163 C 0.12583 0.7095 0.08154 0.0
C1164 C 0.14451 0.71394 0.09459 0.0
C1165 C 0.14391 0.72719 0.11488 0.0
C1166 C 0.12461 0.73633 0.12273 0.0
C1167 C 0.10583 0.73125 0.1101 0.0
C1168 C 0.10646 0.71807 0.08972 0.0
C1169 C 0.17507 0.64748 1.01772 0.0
C1170 C 0.15867 0.62659 0.08007 0.0
C1171 C 0.15702 0.57145 1.01029 0.0
C1172 C 0.15228 0.55324 0.99427 0.0
C1173 C 0.13379 0.5408 0.9969 0.0
C1174 C 0.13036 0.52312 0.98193 0.0
C1175 C 0.14535 0.51754 0.96411 0.0
C1176 C 0.16362 0.53031 0.96137 0.0
C1177 C 0.16705 0.54787 0.97631 0.0
C1178 C 0.1013 0.61709 0.047 0.0
C1179 C 0.1239 0.64241 0.98398 0.0
O1180 O 0.11233 0.68266 0.05476 0.0
O1181 O 0.1453 0.69293 0.04957 0.0
O1182 O 0.16482 0.6368 0.03314 0.0
O1183 O 0.16538 0.66541 1.01321 0.0
O1184 O 0.15923 0.61111 0.06387 0.0
O1185 O 0.14951 0.64529 0.07576 0.0
O1186 O 0.16098 0.5898 0.99988 0.0
O1187 O 0.1464 0.57315 0.03059 0.0
O1188 O 0.11585 0.63007 0.04189 0.0
O1189 O 0.10726 0.59815 0.04027 0.0
O1190 O 0.12242 0.65837 0.99961 0.0
O1191 O 0.13135 0.62337 0.98982 0.0
H1192 H 0.15975 0.70766 0.08878 0.0
H1193 H 0.15875 0.73087 0.12386 0.0
H1194 H 0.09061 0.73764 0.11579 0.0
H1195 H 0.09183 0.71496 0.08002 0.0
H1196 H 0.12211 0.54458 1.01062 0.0
H1197 H 0.11618 0.51359 0.98464 0.0
H1198 H 0.17529 0.52683 0.94754 0.0
H1199 H 0.1814 0.55723 0.9739 0.0
Pr1200 Pr 0.10579 0.38228 0.79146 0.0
Pr1201 Pr 0.15255 0.39144 0.78372 0.0
C1202 C 0.06868 0.36716 0.80962 0.0
C1203 C 0.05437 0.36952 0.8306 0.0
C1204 C 0.05456 0.38796 0.84491 0.0
C1205 C 0.04036 0.39005 0.8643 0.0
C1206 C 0.02574 0.3737 0.86984 0.0
C1207 C 0.02601 0.35507 0.85572 0.0
C1208 C 0.04016 0.35304 0.83632 0.0
C1209 C 0.11316 0.42354 0.77405 0.0
C1210 C 0.13349 0.4075 0.83514 0.0
C1211 C 0.19227 0.40198 0.7692 0.0
C1212 C 0.20813 0.39765 0.75003 0.0
C1213 C 0.22676 0.38625 0.75565 0.0
C1214 C 0.24257 0.38301 0.73825 0.0
C1215 C 0.24022 0.39131 0.7149 0.0
C1216 C 0.22144 0.40246 0.70917 0.0
C1217 C 0.20555 0.40558 0.72652 0.0
C1218 C 0.14493 0.35304 0.80742 0.0
C1219 C 0.12341 0.37554 0.73622 0.0
O1220 O 0.08715 0.35823 0.81356 0.0
O1221 O 0.06978 0.38309 0.7945 0.0
O1222 O 0.12435 0.41404 0.78955 0.0
O1223 O 0.09688 0.41199 0.76777 0.0
O1224 O 0.14883 0.41053 0.81927 0.0
O1225 O 0.11634 0.39616 0.82965 0.0
O1226 O 0.17534 0.41317 0.76371 0.0
O1227 O 0.18826 0.38654 0.78431 0.0
O1228 O 0.13437 0.35934 0.78919 0.0
O1229 O 0.15999 0.36626 0.81287 0.0
O1230 O 0.10771 0.37022 0.75101 0.0
O1231 O 0.1409 0.38455 0.74449 0.0
H1232 H 0.06557 0.4008 0.84097 0.0
H1233 H 0.04084 0.40449 0.87496 0.0
H1234 H 0.01487 0.34227 0.85921 0.0
H1235 H 0.03981 0.33865 0.82554 0.0
H1236 H 0.22928 0.38014 0.77368 0.0
H1237 H 0.25694 0.37457 0.74332 0.0
H1238 H 0.21905 0.40884 0.69124 0.0
H1239 H 0.19139 0.41442 0.72157 0.0
Pr1240 Pr 0.37154 0.35183 0.53881 0.0
Pr1241 Pr 0.36382 0.40295 0.53098 0.0
C1242 C 0.38339 0.31275 0.55409 0.0
C1243 C 0.38427 0.29828 0.57514 0.0
C1244 C 0.3738 0.2786 0.57368 0.0
C1245 C 0.37523 0.26385 0.59242 0.0
C1246 C 0.38733 0.26829 0.61315 0.0
C1247 C 0.39747 0.28824 0.61491 0.0
C1248 C 0.39602 0.3031 0.59603 0.0
C1249 C 0.33248 0.36352 0.51863 0.0
C1250 C 0.34848 0.38107 0.5828 0.0
C1251 C 0.34708 0.44056 0.51749 0.0
C1252 C 0.35207 0.45935 0.50268 0.0
C1253 C 0.36798 0.45865 0.4849 0.0
C1254 C 0.37126 0.47616 0.46968 0.0
C1255 C 0.35864 0.49461 0.47197 0.0
C1256 C 0.34322 0.4954 0.49038 0.0
C1257 C 0.33998 0.47792 0.50556 0.0
C1258 C 0.40496 0.39498 0.54911 0.0
C1259 C 0.38345 0.37302 0.48562 0.0
O1260 O 0.39649 0.32898 0.55317 0.0
O1261 O 0.36457 0.31691 0.54514 0.0
O1262 O 0.34223 0.37349 0.53499 0.0
O1263 O 0.34282 0.34631 0.5126 0.0
O1264 O 0.34733 0.39759 0.56804 0.0
O1265 O 0.35795 0.36288 0.57674 0.0
O1266 O 0.34379 0.4227 0.50579 0.0
O1267 O 0.35789 0.43812 0.5375 0.0
O1268 O 0.3908 0.38183 0.54334 0.0
O1269 O 0.39817 0.41407 0.54421 0.0
O1270 O 0.38649 0.35642 0.50005 0.0
O1271 O 0.37402 0.39075 0.4929 0.0
H1272 H 0.36466 0.27447 0.5578 0.0
H1273 H 0.36681 0.24888 0.59062 0.0
H1274 H 0.40696 0.29216 0.63058 0.0
H1275 H 0.40431 0.31816 0.59766 0.0
H1276 H 0.37747 0.44439 0.48241 0.0
H1277 H 0.38313 0.47493 0.45557 0.0
H1278 H 0.33346 0.50945 0.49289 0.0
H1279 H 0.32768 0.47876 0.51925 0.0
H1280 H 0.24776 0.08394 0.17943 0.0
H1281 H 0.34452 0.14911 0.12141 0.0
H1282 H 0.27278 0.14126 0.21166 0.0
H1283 H 0.32435 0.0867 0.09798 0.0
H1284 H 0.31931 0.14674 0.15518 0.0
H1285 H 0.27599 0.08526 0.14929 0.0
C1286 C 0.25914 0.0969 0.18006 0.0
C1287 C 0.25782 0.11258 0.198 0.0
C1288 C 0.32061 0.1335 0.14275 0.0
C1289 C 0.29046 0.11411 0.1636 0.0
C1290 C 0.33507 0.1348 0.12355 0.0
C1291 C 0.33643 0.11816 0.10669 0.0
C1292 C 0.30742 0.11549 0.14497 0.0
C1293 C 0.32372 0.10004 0.11033 0.0
C1294 C 0.2754 0.09756 0.16297 0.0
C1295 C 0.27328 0.12878 0.1982 0.0
N1296 N 0.30968 0.09928 0.12889 0.0
N1297 N 0.28891 0.12921 0.18117 0.0
H1298 H 0.16994 0.08822 0.36045 0.0
H1299 H 0.10767 0.0101 0.44996 0.0
H1300 H 0.10139 0.08757 0.3658 0.0
H1301 H 0.17605 0.0167 0.44715 0.0
H1302 H 0.10445 0.03895 0.4203 0.0
H1303 H 0.17196 0.06334 0.39399 0.0
C1304 C 0.15528 0.08303 0.36894 0.0
C1305 C 0.13547 0.08993 0.36028 0.0
C1306 C 0.12013 0.03415 0.42633 0.0
C1307 C 0.13762 0.06096 0.39858 0.0
C1308 C 0.12199 0.01758 0.44312 0.0
C1309 C 0.14217 0.01095 0.45114 0.0
C1310 C 0.13858 0.04407 0.41738 0.0
C1311 C 0.16015 0.02141 0.44183 0.0
C1312 C 0.15643 0.06874 0.38809 0.0
C1313 C 0.117 0.08273 0.37203 0.0
N1314 N 0.15792 0.03732 0.42545 0.0
N1315 N 0.1185 0.0684 0.39043 0.0
H1316 H 0.24652 0.92627 0.69207 0.0
H1317 H 0.16848 0.85111 0.61569 0.0
H1318 H 0.24644 0.8578 0.69921 0.0
H1319 H 0.17567 0.91884 0.60505 0.0
H1320 H 0.19397 0.85306 0.64925 0.0
H1321 H 0.21787 0.92362 0.66278 0.0
C1322 C 0.24036 0.91064 0.6876 0.0
C1323 C 0.24888 0.89224 0.69822 0.0
C1324 C 0.18979 0.86749 0.63965 0.0
C1325 C 0.21602 0.88903 0.66427 0.0
C1326 C 0.17513 0.86641 0.62065 0.0
C1327 C 0.17006 0.88482 0.60747 0.0
C1328 C 0.19924 0.88713 0.64553 0.0
C1329 C 0.17926 0.9042 0.61455 0.0
C1330 C 0.22402 0.90912 0.67074 0.0
C1331 C 0.24048 0.87239 0.69131 0.0
N1332 N 0.19341 0.90481 0.63296 0.0
N1333 N 0.22449 0.8713 0.67476 0.0
H1334 H 0.33736 0.91892 0.85608 0.0
H1335 H 0.39831 0.99698 0.9464 0.0
H1336 H 0.40568 0.91829 0.86441 0.0
H1337 H 0.32991 0.99238 0.94063 0.0
H1338 H 0.40173 0.96677 0.91863 0.0
H1339 H 0.33464 0.94397 0.88941 0.0
C1340 C 0.35181 0.92386 0.86517 0.0
C1341 C 0.37178 0.9166 0.85737 0.0
C1342 C 0.38599 0.97233 0.92357 0.0
C1343 C 0.36883 0.94572 0.89544 0.0
C1344 C 0.38401 0.98955 0.93946 0.0
C1345 C 0.36378 0.99745 0.94567 0.0
C1346 C 0.3676 0.96293 0.91382 0.0
C1347 C 0.34584 0.98722 0.93598 0.0
C1348 C 0.35025 0.93824 0.88421 0.0
C1349 C 0.38995 0.92346 0.86991 0.0
N1350 N 0.34819 0.97063 0.92051 0.0
N1351 N 0.38807 0.93788 0.88815 0.0
H1352 H 0.33611 0.85328 0.42519 0.0
H1353 H 0.25669 0.93088 0.35366 0.0
H1354 H 0.3254 0.91944 0.44262 0.0
H1355 H 0.2592 0.86308 0.34096 0.0
H1356 H 0.28514 0.92727 0.38312 0.0
H1357 H 0.31156 0.85694 0.39093 0.0
C1358 C 0.32886 0.86863 0.42163 0.0
C1359 C 0.33271 0.88605 0.43691 0.0
C1360 C 0.27955 0.91314 0.37389 0.0
C1361 C 0.30461 0.8903 0.39792 0.0
C1362 C 0.26316 0.91518 0.35712 0.0
C1363 C 0.25525 0.89722 0.345 0.0
C1364 C 0.28826 0.89297 0.37874 0.0
C1365 C 0.26479 0.87738 0.34982 0.0
C1366 C 0.31476 0.87067 0.40217 0.0
C1367 C 0.32279 0.90552 0.4315 0.0
N1368 N 0.28069 0.87576 0.36643 0.0
N1369 N 0.30919 0.90707 0.41259 0.0
H1370 H 0.39977 1.00313 0.59899 0.0
H1371 H 0.3412 0.08752 0.68397 0.0
H1372 H 0.33265 0.01772 0.5957 0.0
H1373 H 0.4096 0.0812 0.68183 0.0
H1374 H 0.3384 0.06293 0.65023 0.0
H1375 H 0.40434 0.03191 0.62851 0.0
C1376 C 0.38602 0.01237 0.60445 0.0
C1377 C 0.36579 0.00799 0.59481 0.0
C1378 C 0.35408 0.06702 0.65689 0.0
C1379 C 0.37093 0.04097 0.62841 0.0
C1380 C 0.35568 0.08112 0.67616 0.0
C1381 C 0.37565 0.08633 0.68577 0.0
C1382 C 0.37257 0.05772 0.64726 0.0
C1383 C 0.39389 0.07765 0.67488 0.0
C1384 C 0.38867 0.02889 0.62115 0.0
C1385 C 0.34859 0.02065 0.60235 0.0
N1386 N 0.39191 0.06351 0.65636 0.0
N1387 N 0.35154 0.03642 0.61873 0.0
H1388 H 0.18356 0.08851 0.94384 0.0
H1389 H 0.23853 0.14863 0.83287 0.0
H1390 H 0.16781 0.15343 0.92523 0.0
H1391 H 0.26094 0.08961 0.86361 0.0
H1392 H 0.21013 0.14974 0.86334 0.0
H1393 H 0.20889 0.08749 0.91081 0.0
C1394 C 0.18529 0.10256 0.93268 0.0
C1395 C 0.17363 0.12117 0.93753 0.0
C1396 C 0.2213 0.13659 0.86339 0.0
C1397 C 0.20299 0.12011 0.89947 0.0
C1398 C 0.23746 0.1359 0.84599 0.0
C1399 C 0.25223 0.11904 0.84576 0.0
C1400 C 0.21974 0.12017 0.88049 0.0
C1401 C 0.25016 0.10307 0.86328 0.0
C1402 C 0.19988 0.10197 0.9138 0.0
C1403 C 0.17647 0.13875 0.92218 0.0
N1404 N 0.23423 0.10401 0.87982 0.0
N1405 N 0.191 0.13785 0.90389 0.0
H1406 H 0.09602 0.92161 0.17943 0.0
H1407 H 0.17707 0.99005 0.09891 0.0
H1408 H 0.16448 0.91926 0.18604 0.0
H1409 H 0.10886 0.99816 0.09579 0.0
H1410 H 0.17227 0.96135 0.12792 0.0
H1411 H 0.09995 0.94644 0.14558 0.0
C1412 C 0.11188 0.92596 0.1735 0.0
C1413 C 0.12995 0.9184 0.18573 0.0
C1414 C 0.1583 0.96931 0.12087 0.0
C1415 C 0.13453 0.94701 0.14722 0.0
C1416 C 0.16103 0.98568 0.10416 0.0
C1417 C 0.14334 0.99658 0.09478 0.0
C1418 C 0.13771 0.96366 0.12844 0.0
C1419 C 0.12298 0.99039 0.1027 0.0
C1420 C 0.1141 0.94029 0.1543 0.0
C1421 C 0.15007 0.92477 0.17733 0.0
N1422 N 0.12071 0.97436 0.11907 0.0
N1423 N 0.1518 0.93875 0.15876 0.0
H1424 H 0.73323 0.85911 0.83133 0.0
H1425 H 0.68047 0.91862 0.94413 0.0
H1426 H 0.75548 0.91866 0.86087 0.0
H1427 H 0.66393 0.85414 0.92451 0.0
H1428 H 0.70515 0.92 0.91047 0.0
H1429 H 0.70549 0.85791 0.86251 0.0
C1430 C 0.73225 0.87195 0.84433 0.0
C1431 C 0.74677 0.88898 0.84356 0.0
C1432 C 0.6961 0.90555 0.91339 0.0
C1433 C 0.71507 0.88773 0.87914 0.0
C1434 C 0.68188 0.90475 0.93262 0.0
C1435 C 0.67019 0.88614 0.93735 0.0
C1436 C 0.69878 0.88762 0.8986 0.0
C1437 C 0.67264 0.8688 0.92158 0.0
C1438 C 0.71647 0.87121 0.86214 0.0
C1439 C 0.74486 0.90508 0.86096 0.0
N1440 N 0.68679 0.8699 0.90296 0.0
N1441 N 0.72931 0.90407 0.87795 0.0
H1442 H 0.8973 0.99858 0.59265 0.0
H1443 H 0.83442 0.91921 0.68029 0.0
H1444 H 0.8289 0.992 0.59489 0.0
H1445 H 0.90304 0.92111 0.67672 0.0
H1446 H 0.83265 0.94445 0.6471 0.0
H1447 H 0.90032 0.96964 0.6222 0.0
C1448 C 0.88293 0.9911 0.59936 0.0
C1449 C 0.8628 0.99774 0.59119 0.0
C1450 C 0.84815 0.93926 0.65333 0.0
C1451 C 0.86617 0.96451 0.62481 0.0
C1452 C 0.84916 0.92476 0.67228 0.0
C1453 C 0.86891 0.9181 0.68136 0.0
C1454 C 0.86703 0.94746 0.64343 0.0
C1455 C 0.88748 0.92576 0.6702 0.0
C1456 C 0.88468 0.97447 0.61608 0.0
C1457 C 0.84476 0.98727 0.60033 0.0
N1458 N 0.8861 0.94026 0.65197 0.0
N1459 N 0.84688 0.9713 0.61663 0.0
H1460 H 0.75736 0.15145 0.34478 0.0
H1461 H 0.83453 0.08879 0.43476 0.0
H1462 H 0.75733 0.08334 0.35537 0.0
H1463 H 0.83571 0.15722 0.42755 0.0
H1464 H 0.80916 0.08675 0.40181 0.0
H1465 H 0.78833 0.15421 0.37159 0.0
C1466 C 0.76393 0.13708 0.35261 0.0
C1467 C 0.75456 0.11715 0.34808 0.0
C1468 C 0.81505 0.10225 0.40718 0.0
C1469 C 0.78992 0.12019 0.37864 0.0
C1470 C 0.82963 0.10341 0.42598 0.0
C1471 C 0.83708 0.12321 0.43403 0.0
C1472 C 0.80757 0.12106 0.39643 0.0
C1473 C 0.83034 0.14163 0.42186 0.0
C1474 C 0.78157 0.13868 0.36793 0.0
C1475 C 0.7637 0.09908 0.35875 0.0
N1476 N 0.81569 0.14014 0.40383 0.0
N1477 N 0.78077 0.10105 0.37354 0.0
H1478 H 0.67643 0.00677 0.10963 0.0
H1479 H 0.5988 0.08732 0.17958 0.0
H1480 H 0.60914 0.01117 0.09462 0.0
H1481 H 0.66482 0.07669 0.19759 0.0
H1482 H 0.60252 0.06213 0.14594 0.0
H1483 H 0.67263 0.03471 0.13975 0.0
C1484 C 0.66084 0.01372 0.11256 0.0
C1485 C 0.64309 0.00663 0.09948 0.0
C1486 C 0.6162 0.06547 0.15719 0.0
C1487 C 0.63854 0.03867 0.1343 0.0
C1488 C 0.61413 0.07994 0.17628 0.0
C1489 C 0.6315 0.08403 0.19152 0.0
C1490 C 0.6358 0.05516 0.15329 0.0
C1491 C 0.65095 0.07392 0.18647 0.0
C1492 C 0.65865 0.02964 0.12988 0.0
C1493 C 0.62322 0.016 0.10443 0.0
N1494 N 0.65253 0.05995 0.1679 0.0
N1495 N 0.62147 0.03156 0.12144 0.0
H1496 H 0.7458 0.07767 0.69643 0.0
H1497 H 0.66895 0.15324 0.6189 0.0
H1498 H 0.74522 0.14609 0.70419 0.0
H1499 H 0.68099 0.087 0.603 0.0
H1500 H 0.69305 0.15056 0.65363 0.0
H1501 H 0.71833 0.08052 0.66561 0.0
C1502 C 0.73974 0.09331 0.69184 0.0
C1503 C 0.74785 0.11167 0.703 0.0
C1504 C 0.69027 0.13661 0.6426 0.0
C1505 C 0.7164 0.11508 0.66733 0.0
C1506 C 0.67641 0.13808 0.62288 0.0
C1507 C 0.67302 0.12034 0.60794 0.0
C1508 C 0.70059 0.1172 0.64751 0.0
C1509 C 0.68323 0.10114 0.61388 0.0
C1510 C 0.72412 0.09494 0.67408 0.0
C1511 C 0.73958 0.13153 0.69591 0.0
N1512 N 0.69654 0.10011 0.63312 0.0
N1513 N 0.72431 0.13272 0.67853 0.0
H1514 H 0.67977 0.99433 0.44141 0.0
H1515 H 0.60054 0.91881 0.36707 0.0
H1516 H 0.61149 0.99661 0.45023 0.0
H1517 H 0.66834 0.92312 0.35519 0.0
H1518 H 0.60403 0.94417 0.40064 0.0
H1519 H 0.67562 0.96551 0.41253 0.0
C1520 C 0.66387 0.98865 0.43743 0.0
C1521 C 0.64596 0.9979 0.44839 0.0
C1522 C 0.61813 0.93936 0.3908 0.0
C1523 C 0.64104 0.96484 0.41488 0.0
C1524 C 0.61618 0.92476 0.3718 0.0
C1525 C 0.63417 0.91895 0.35824 0.0
C1526 C 0.63822 0.94801 0.39628 0.0
C1527 C 0.65401 0.92729 0.365 0.0
C1528 C 0.6615 0.97221 0.42079 0.0
C1529 C 0.62573 0.99009 0.44206 0.0
N1530 N 0.65547 0.94142 0.3834 0.0
N1531 N 0.62381 0.974 0.42572 0.0
H1532 H 0.83028 0.92082 0.10371 0.0
H1533 H 0.75766 0.85875 0.19928 0.0
H1534 H 0.83392 0.85272 0.11344 0.0
H1535 H 0.7577 0.92692 0.18907 0.0
H1536 H 0.78631 0.85571 0.16931 0.0
H1537 H 0.80529 0.923 0.13708 0.0
C1538 C 0.82598 0.9063 0.1131 0.0
C1539 C 0.83411 0.88654 0.1057 0.0
C1540 C 0.78009 0.87132 0.17376 0.0
C1541 C 0.80504 0.88886 0.1439 0.0
C1542 C 0.76363 0.87306 0.19072 0.0
C1543 C 0.75526 0.89314 0.19679 0.0
C1544 C 0.78816 0.88978 0.16272 0.0
C1545 C 0.76381 0.91114 0.1853 0.0
C1546 C 0.81162 0.90755 0.13216 0.0
C1547 C 0.82807 0.86829 0.11864 0.0
N1548 N 0.77969 0.90901 0.16887 0.0
N1549 N 0.81366 0.86984 0.13698 0.0
H1550 H 0.84087 0.09178 0.86 0.0
H1551 H 0.89832 0.00703 0.94568 0.0
H1552 H 0.9091 0.08365 0.86181 0.0
H1553 H 0.83089 0.02042 0.94685 0.0
H1554 H 0.90316 0.03582 0.9163 0.0
H1555 H 0.83753 0.06726 0.89379 0.0
C1556 C 0.85521 0.08505 0.86774 0.0
C1557 C 0.87529 0.08972 0.85795 0.0
C1558 C 0.88734 0.03253 0.92314 0.0
C1559 C 0.87155 0.06117 0.89655 0.0
C1560 C 0.88453 0.01599 0.93977 0.0
C1561 C 0.86415 0.01124 0.94879 0.0
C1562 C 0.86961 0.04434 0.91532 0.0
C1563 C 0.84693 0.02361 0.9407 0.0
C1564 C 0.85329 0.07097 0.88703 0.0
C1565 C 0.89331 0.08057 0.86883 0.0
N1566 N 0.85005 0.03946 0.9244 0.0
N1567 N 0.891 0.06651 0.88736 0.0
H1568 H 0.75288 0.58187 0.68336 0.0
H1569 H 0.84119 0.65296 0.61782 0.0
H1570 H 0.76848 0.64523 0.70775 0.0
H1571 H 0.83137 0.58587 0.60492 0.0
H1572 H 0.81583 0.65102 0.6516 0.0
H1573 H 0.78197 0.58375 0.6544 0.0
C1574 C 0.76238 0.59626 0.68251 0.0
C1575 C 0.75812 0.61348 0.69786 0.0
C1576 C 0.81949 0.6367 0.64153 0.0
C1577 C 0.79178 0.61572 0.66478 0.0
C1578 C 0.83406 0.63777 0.62238 0.0
C1579 C 0.83823 0.61959 0.60839 0.0
C1580 C 0.80908 0.61734 0.64656 0.0
C1581 C 0.82844 0.60036 0.61499 0.0
C1582 C 0.77915 0.59727 0.6661 0.0
C1583 C 0.77126 0.63157 0.69627 0.0
N1584 N 0.81423 0.5998 0.63337 0.0
N1585 N 0.78743 0.6323 0.67988 0.0
H1586 H 0.60001 0.58568 0.86415 0.0
H1587 H 0.67761 0.51648 0.94801 0.0
H1588 H 0.66853 0.58491 0.85823 0.0
H1589 H 0.61018 0.50398 0.94242 0.0
H1590 H 0.67353 0.5463 0.92032 0.0
H1591 H 0.60253 0.56068 0.8982 0.0
C1592 C 0.61557 0.5806 0.87031 0.0
C1593 C 0.63409 0.58726 0.85827 0.0
C1594 C 0.65958 0.53711 0.9252 0.0
C1595 C 0.63707 0.55873 0.89697 0.0
C1596 C 0.66192 0.51995 0.94093 0.0
C1597 C 0.64429 0.50737 0.94729 0.0
C1598 C 0.63944 0.54193 0.91567 0.0
C1599 C 0.62424 0.51319 0.93806 0.0
C1600 C 0.61699 0.56622 0.88958 0.0
C1601 C 0.65383 0.58005 0.86685 0.0
N1602 N 0.62238 0.52994 0.92257 0.0
N1603 N 0.65478 0.56615 0.88556 0.0
H1604 H 0.66723 0.34885 0.11412 0.0
H1605 H 0.75723 0.4216 0.17447 0.0
H1606 H 0.68066 0.41375 0.0932 0.0
H1607 H 0.73899 0.36044 0.20335 0.0
H1608 H 0.72909 0.41851 0.14443 0.0
H1609 H 0.69261 0.35255 0.14741 0.0
C1610 C 0.67525 0.36395 0.11666 0.0
C1611 C 0.67186 0.38095 0.10064 0.0
C1612 C 0.73116 0.40575 0.15735 0.0
C1613 C 0.70114 0.38518 0.1385 0.0
C1614 C 0.74738 0.40744 0.1744 0.0
C1615 C 0.75059 0.3912 0.19139 0.0
C1616 C 0.71804 0.38762 0.15707 0.0
C1617 C 0.73701 0.3734 0.19068 0.0
C1618 C 0.68982 0.36602 0.13563 0.0
C1619 C 0.6828 0.40011 0.10489 0.0
N1620 N 0.72141 0.37202 0.17373 0.0
N1621 N 0.69701 0.40162 0.12322 0.0
H1622 H 0.89509 0.49442 0.4511 0.0
H1623 H 0.83446 0.42259 0.35399 0.0
H1624 H 0.82686 0.49301 0.4418 0.0
H1625 H 0.90224 0.41826 0.36582 0.0
H1626 H 0.83163 0.44707 0.38782 0.0
H1627 H 0.89845 0.46595 0.42102 0.0
C1628 C 0.88083 0.48816 0.44273 0.0
C1629 C 0.86065 0.49613 0.44902 0.0
C1630 C 0.84713 0.44066 0.38325 0.0
C1631 C 0.86437 0.46346 0.41479 0.0
C1632 C 0.84875 0.42662 0.36393 0.0
C1633 C 0.86863 0.41845 0.357 0.0
C1634 C 0.86557 0.44689 0.3957 0.0
C1635 C 0.88659 0.42414 0.37062 0.0
C1636 C 0.88275 0.4718 0.42571 0.0
C1637 C 0.84272 0.48722 0.4378 0.0
N1638 N 0.88468 0.43824 0.38918 0.0
N1639 N 0.84502 0.47148 0.42123 0.0
H1640 H 0.76509 0.35662 0.83628 0.0
H1641 H 0.83145 0.41752 0.93823 0.0
H1642 H 0.7518 0.4202 0.86176 0.0
H1643 H 0.83852 0.35005 0.92545 0.0
H1644 H 0.80599 0.41948 0.90541 0.0
H1645 H 0.79504 0.35447 0.86469 0.0
C1646 C 0.76851 0.37012 0.84779 0.0
C1647 C 0.75581 0.38855 0.84682 0.0
C1648 C 0.81317 0.40423 0.90959 0.0
C1649 C 0.79003 0.38627 0.87907 0.0
C1650 C 0.82781 0.40311 0.92831 0.0
C1651 C 0.83696 0.38354 0.93478 0.0
C1652 C 0.80744 0.38564 0.89716 0.0
C1653 C 0.83181 0.36546 0.92106 0.0
C1654 C 0.78554 0.36886 0.864 0.0
C1655 C 0.7609 0.40555 0.86217 0.0
N1656 N 0.81717 0.36689 0.90299 0.0
N1657 N 0.77757 0.40399 0.87759 0.0
H1658 H 0.90814 0.58436 0.17719 0.0
H1659 H 0.83006 0.51 0.09994 0.0
H1660 H 0.84012 0.58008 0.18749 0.0
H1661 H 0.89846 0.50766 0.09256 0.0
H1662 H 0.83378 0.53823 0.12962 0.0
H1663 H 0.90523 0.55913 0.14344 0.0
C1664 C 0.89259 0.57838 0.17214 0.0
C1665 C 0.87436 0.58421 0.18526 0.0
C1666 C 0.84803 0.53164 0.12151 0.0
C1667 C 0.87095 0.55536 0.14697 0.0
C1668 C 0.8459 0.51555 0.10443 0.0
C1669 C 0.86397 0.50648 0.09363 0.0
C1670 C 0.86841 0.53883 0.12803 0.0
C1671 C 0.88411 0.51408 0.10058 0.0
C1672 C 0.89096 0.56389 0.15301 0.0
C1673 C 0.85463 0.5759 0.17805 0.0
N1674 N 0.8858 0.52984 0.11735 0.0
N1675 N 0.85349 0.56187 0.15952 0.0
H1676 H 0.75667 0.58657 0.35912 0.0
H1677 H 0.66716 0.65657 0.4243 0.0
H1678 H 0.74026 0.64963 0.33439 0.0
H1679 H 0.6765 0.58917 0.43563 0.0
H1680 H 0.69333 0.65524 0.39128 0.0
H1681 H 0.72765 0.5883 0.3882 0.0
C1682 C 0.74704 0.60087 0.35994 0.0
C1683 C 0.75101 0.61803 0.34439 0.0
C1684 C 0.68941 0.64074 0.40086 0.0
C1685 C 0.7174 0.62007 0.37761 0.0
C1686 C 0.67439 0.64146 0.41959 0.0
C1687 C 0.66976 0.62299 0.4329 0.0
C1688 C 0.69987 0.62144 0.39559 0.0
C1689 C 0.67972 0.60388 0.4261 0.0
C1690 C 0.7303 0.60179 0.37642 0.0
C1691 C 0.73769 0.636 0.34599 0.0
N1692 N 0.69438 0.60366 0.40815 0.0
N1693 N 0.72154 0.63663 0.36241 0.0
H1694 H 0.6021 0.41975 0.67515 0.0
H1695 H 0.67874 0.49956 0.60286 0.0
H1696 H 0.66823 0.43069 0.69237 0.0
H1697 H 0.61099 0.49606 0.59041 0.0
H1698 H 0.67543 0.47181 0.63334 0.0
H1699 H 0.60538 0.44486 0.64142 0.0
C1700 C 0.61736 0.42719 0.67167 0.0
C1701 C 0.6349 0.42318 0.68669 0.0
C1702 C 0.66125 0.47706 0.62395 0.0
C1703 C 0.6387 0.45197 0.64833 0.0
C1704 C 0.66316 0.49286 0.60644 0.0
C1705 C 0.64512 0.50016 0.59399 0.0
C1706 C 0.64116 0.46834 0.62916 0.0
C1707 C 0.62529 0.49108 0.59973 0.0
C1708 C 0.61918 0.44162 0.65252 0.0
C1709 C 0.65424 0.43338 0.6814 0.0
N1710 N 0.62383 0.47562 0.61687 0.0
N1711 N 0.65558 0.44731 0.66276 0.0
H1712 H 0.1724 0.42096 0.43188 0.0
H1713 H 0.24849 0.35711 0.34184 0.0
H1714 H 0.17126 0.3524 0.42654 0.0
H1715 H 0.24012 0.42536 0.34087 0.0
H1716 H 0.22005 0.35447 0.3721 0.0
H1717 H 0.19645 0.42238 0.39749 0.0
C1718 C 0.17705 0.40617 0.42327 0.0
C1719 C 0.16987 0.38653 0.43217 0.0
C1720 C 0.22434 0.36998 0.36507 0.0
C1721 C 0.19784 0.388 0.3928 0.0
C1722 C 0.24066 0.37152 0.34791 0.0
C1723 C 0.24676 0.3915 0.33873 0.0
C1724 C 0.21417 0.38857 0.3733 0.0
C1725 C 0.23585 0.40959 0.34711 0.0
C1726 C 0.19083 0.40699 0.4036 0.0
C1727 C 0.17636 0.3679 0.4202 0.0
N1728 N 0.22026 0.40769 0.36396 0.0
N1729 N 0.19022 0.36907 0.40128 0.0
H1730 H 0.33995 0.42366 0.18934 0.0
H1731 H 0.39917 0.48886 0.08498 0.0
H1732 H 0.4074 0.41764 0.17552 0.0
H1733 H 0.33527 0.50161 0.10981 0.0
H1734 H 0.40176 0.45968 0.1143 0.0
H1735 H 0.33716 0.44856 0.15595 0.0
C1736 C 0.35418 0.42738 0.17913 0.0
C1737 C 0.374 0.41867 0.18548 0.0
C1738 C 0.38718 0.46887 0.11327 0.0
C1739 C 0.37089 0.44751 0.14715 0.0
C1740 C 0.38567 0.48547 0.09653 0.0
C1741 C 0.36702 0.49779 0.09508 0.0
C1742 C 0.36984 0.46443 0.12848 0.0
C1743 C 0.35007 0.49278 0.11056 0.0
C1744 C 0.35257 0.44171 0.16007 0.0
C1745 C 0.3918 0.42399 0.17133 0.0
N1746 N 0.35189 0.47651 0.12655 0.0
N1747 N 0.38987 0.43824 0.15293 0.0
H1748 H 0.26032 0.5792 0.85205 0.0
H1749 H 0.33717 0.65568 0.92824 0.0
H1750 H 0.25895 0.64768 0.84517 0.0
H1751 H 0.33245 0.58758 0.93749 0.0
H1752 H 0.31146 0.6534 0.89493 0.0
H1753 H 0.28926 0.58233 0.88088 0.0
C1754 C 0.26623 0.59493 0.85647 0.0
C1755 C 0.25722 0.6132 0.84604 0.0
C1756 C 0.31624 0.63897 0.90414 0.0
C1757 C 0.29042 0.61696 0.87949 0.0
C1758 C 0.33104 0.64024 0.923 0.0
C1759 C 0.33684 0.6218 0.93574 0.0
C1760 C 0.30739 0.61911 0.89799 0.0
C1761 C 0.32829 0.60224 0.92833 0.0
C1762 C 0.28273 0.59673 0.87307 0.0
C1763 C 0.2653 0.63318 0.85291 0.0
N1764 N 0.31397 0.60144 0.91009 0.0
N1765 N 0.28146 0.63455 0.86922 0.0
H1766 H 0.10325 0.58921 0.67507 0.0
H1767 H 0.18044 0.51049 0.60203 0.0
H1768 H 0.16929 0.57808 0.69266 0.0
H1769 H 0.11256 0.51316 0.59023 0.0
H1770 H 0.17699 0.53818 0.63258 0.0
H1771 H 0.10679 0.56457 0.64094 0.0
C1772 C 0.11855 0.58183 0.67157 0.0
C1773 C 0.13597 0.5856 0.68682 0.0
C1774 C 0.16282 0.53277 0.62331 0.0
C1775 C 0.14008 0.55739 0.64802 0.0
C1776 C 0.1648 0.51701 0.60577 0.0
C1777 C 0.14676 0.50949 0.59353 0.0
C1778 C 0.14264 0.5412 0.62872 0.0
C1779 C 0.12685 0.51832 0.59942 0.0
C1780 C 0.12052 0.56767 0.6522 0.0
C1781 C 0.15538 0.57553 0.68152 0.0
N1782 N 0.12532 0.53374 0.61659 0.0
N1783 N 0.15687 0.56186 0.66265 0.0
H1784 H 0.17856 0.59035 0.09552 0.0
H1785 H 0.23713 0.64526 0.20755 0.0
H1786 H 0.16808 0.65606 0.11544 0.0
H1787 H 0.25451 0.58419 0.17773 0.0
H1788 H 0.20906 0.64845 0.17704 0.0
H1789 H 0.20317 0.58666 0.12905 0.0
C1790 C 0.18124 0.604 0.10707 0.0
C1791 C 0.17129 0.62362 0.10243 0.0
C1792 C 0.21902 0.63436 0.17721 0.0
C1793 C 0.19979 0.61947 0.141 0.0
C1794 C 0.23499 0.6325 0.19465 0.0
C1795 C 0.24828 0.61447 0.19512 0.0
C1796 C 0.21617 0.61799 0.16026 0.0
C1797 C 0.24488 0.5985 0.17785 0.0
C1798 C 0.19542 0.60187 0.12621 0.0
C1799 C 0.17539 0.64064 0.11824 0.0
N1800 N 0.22918 0.60063 0.1612 0.0
N1801 N 0.18944 0.6382 0.13674 0.0
H1802 H 0.16908 0.4207 0.85846 0.0
H1803 H 0.1082 0.50263 0.94353 0.0
H1804 H 0.10053 0.4222 0.86344 0.0
H1805 H 0.1754 0.48884 0.94891 0.0
H1806 H 0.10439 0.47275 0.91539 0.0
H1807 H 0.17124 0.44496 0.89262 0.0
C1808 C 0.15446 0.42596 0.86697 0.0
C1809 C 0.1346 0.4195 0.85804 0.0
C1810 C 0.11992 0.47619 0.92291 0.0
C1811 C 0.13691 0.44771 0.89704 0.0
C1812 C 0.12211 0.49321 0.93905 0.0
C1813 C 0.14223 0.49852 0.94839 0.0
C1814 C 0.13798 0.46444 0.91599 0.0
C1815 C 0.15968 0.48577 0.94174 0.0
C1816 C 0.15569 0.43984 0.88651 0.0
C1817 C 0.11617 0.42675 0.86984 0.0
N1818 N 0.15717 0.46952 0.92585 0.0
N1819 N 0.11775 0.44074 0.88855 0.0
H1820 H 0.33307 0.41697 0.60421 0.0
H1821 H 0.26461 0.35598 0.70454 0.0
H1822 H 0.3355 0.34868 0.61318 0.0
H1823 H 0.25577 0.42181 0.68448 0.0
H1824 H 0.29348 0.35323 0.6748 0.0
H1825 H 0.3083 0.41927 0.63776 0.0
C1826 C 0.32857 0.40242 0.61339 0.0
C1827 C 0.33625 0.38255 0.60562 0.0
C1828 C 0.28521 0.36826 0.67696 0.0
C1829 C 0.30752 0.38511 0.64418 0.0
C1830 C 0.26879 0.36986 0.69395 0.0
C1831 C 0.25765 0.38913 0.69689 0.0
C1832 C 0.29067 0.38611 0.663 0.0
C1833 C 0.26365 0.40656 0.68259 0.0
C1834 C 0.31431 0.40376 0.63255 0.0
C1835 C 0.32997 0.36432 0.6185 0.0
N1836 N 0.27973 0.40462 0.66634 0.0
N1837 N 0.31579 0.36601 0.63704 0.0
H1838 H 0.32653 0.51737 0.45092 0.0
H1839 H 0.40265 0.58868 0.36752 0.0
H1840 H 0.39507 0.51232 0.45262 0.0
H1841 H 0.33484 0.58194 0.35737 0.0
H1842 H 0.40031 0.56511 0.40281 0.0
H1843 H 0.32953 0.54539 0.42076 0.0
C1844 C 0.34225 0.52233 0.44518 0.0
C1845 C 0.36058 0.51242 0.45438 0.0
C1846 C 0.38595 0.56898 0.39294 0.0
C1847 C 0.36413 0.54447 0.41941 0.0
C1848 C 0.38724 0.58254 0.37292 0.0
C1849 C 0.36892 0.58716 0.3594 0.0
C1850 C 0.36616 0.56024 0.39956 0.0
C1851 C 0.3494 0.57866 0.36712 0.0
C1852 C 0.34395 0.53826 0.42779 0.0
C1853 C 0.38051 0.51933 0.44584 0.0
N1854 N 0.34857 0.56559 0.38659 0.0
N1855 N 0.38177 0.53491 0.4288 0.0
H1856 H 0.09592 0.26429 0.38788 0.0
H1857 H 0.17401 0.17329 0.3391 0.0
H1858 H 0.16007 0.25356 0.41295 0.0
H1859 H 0.1125 0.18446 0.30692 0.0
H1860 H 0.16896 0.20407 0.36471 0.0
H1861 H 0.10131 0.23673 0.35697 0.0
C1862 C 0.11119 0.25631 0.38678 0.0
C1863 C 0.1275 0.26114 0.40329 0.0
C1864 C 0.15649 0.19999 0.35206 0.0
C1865 C 0.13369 0.22954 0.36804 0.0
C1866 C 0.15938 0.18232 0.33733 0.0
C1867 C 0.14353 0.17607 0.321 0.0
C1868 C 0.13746 0.21165 0.35084 0.0
C1869 C 0.12503 0.18859 0.31944 0.0
C1870 C 0.1142 0.24052 0.36918 0.0
C1871 C 0.14686 0.25014 0.40104 0.0
N1872 N 0.12237 0.20571 0.3344 0.0
N1873 N 0.14934 0.2349 0.38391 0.0
H1874 H 0.07309 0.86473 0.55632 0.0
H1875 H 0.00801 0.91284 0.6687 0.0
H1876 H 0.08757 0.9237 0.5927 0.0
H1877 H 0.9932 0.85146 0.63801 0.0
H1878 H 0.03585 0.91748 0.63867 0.0
H1879 H 0.0424 0.85985 0.58367 0.0
C1880 C 0.06977 0.87666 0.56992 0.0
C1881 C 0.083 0.89457 0.57233 0.0
C1882 C 0.02655 0.90296 0.63838 0.0
C1883 C 0.04806 0.88921 0.60344 0.0
C1884 C 0.01066 0.90026 0.65568 0.0
C1885 C 0.99833 0.88163 0.65613 0.0
C1886 C 0.03036 0.88691 0.62122 0.0
C1887 C 1.00225 0.86612 0.63832 0.0
C1888 C 0.0523 0.87388 0.58551 0.0
C1889 C 0.07792 0.90959 0.59018 0.0
N1890 N 0.01801 0.86904 0.62167 0.0
N1891 N 0.06099 0.90654 0.60496 0.0
H1892 H 0.39807 0.82298 0.80525 0.0
H1893 H 0.34646 0.74945 0.90851 0.0
H1894 H 0.33595 0.83229 0.83684 0.0
H1895 H 0.41324 0.74627 0.89029 0.0
H1896 H 0.34159 0.77663 0.87772 0.0
H1897 H 0.40334 0.79198 0.83202 0.0
C1898 C 0.38555 0.81848 0.81766 0.0
C1899 C 0.36667 0.83042 0.81901 0.0
C1900 C 0.35733 0.76996 0.88034 0.0
C1901 C 0.37239 0.79499 0.84929 0.0
C1902 C 0.36009 0.75425 0.89785 0.0
C1903 C 0.38031 0.74548 0.90215 0.0
C1904 C 0.37488 0.77712 0.8668 0.0
C1905 C 0.39741 0.75275 0.88788 0.0
C1906 C 0.38855 0.80082 0.83292 0.0
C1907 C 0.35086 0.82372 0.83524 0.0
N1908 N 0.39433 0.76816 0.87089 0.0
N1909 N 0.35409 0.80658 0.84966 0.0
H1910 H 0.42174 0.07989 0.08055 0.0
H1911 H 0.50446 0.1597 0.14173 0.0
H1912 H 0.43019 0.14411 0.05463 0.0
H1913 H 0.50219 0.09203 0.15535 0.0
H1914 H 0.47809 0.15505 0.10954 0.0
H1915 H 0.45176 0.08462 0.1075 0.0
C1916 C 0.43001 0.09504 0.08043 0.0
C1917 C 0.42321 0.11175 0.06551 0.0
C1918 C 0.4835 0.14123 0.11949 0.0
C1919 C 0.45779 0.11741 0.09685 0.0
C1920 C 0.49863 0.14384 0.13784 0.0
C1921 C 0.50548 0.12625 0.15155 0.0
C1922 C 0.4751 0.1209 0.11483 0.0
C1923 C 0.49712 0.10615 0.14574 0.0
C1924 C 0.44723 0.09773 0.09591 0.0
C1925 C 0.43472 0.13093 0.06609 0.0
N1926 N 0.48236 0.10409 0.12801 0.0
N1927 N 0.45133 0.13335 0.08175 0.0
H1928 H 0.1609 0.81369 0.24556 0.0
H1929 H 0.10025 0.77258 0.12777 0.0
H1930 H 0.10743 0.8463 0.21403 0.0
H1931 H 0.14843 0.73582 0.16453 0.0
H1932 H 0.1015 0.79884 0.16015 0.0
H1933 H 0.15575 0.78434 0.21702 0.0
C1934 C 0.14778 0.81444 0.23292 0.0
C1935 C 0.13421 0.83219 0.23253 0.0
C1936 C 0.11171 0.78496 0.16123 0.0
C1937 C 0.12848 0.79893 0.19939 0.0
C1938 C 0.11091 0.76982 0.14276 0.0
C1939 C 0.12431 0.75185 0.14322 0.0
C1940 C 0.1261 0.78232 0.18035 0.0
C1941 C 0.13806 0.74953 0.16305 0.0
C1942 C 0.14487 0.79772 0.21659 0.0
C1943 C 0.1177 0.83257 0.21555 0.0
N1944 N 0.13868 0.76461 0.18069 0.0
N1945 N 0.11539 0.81628 0.19954 0.0
H1946 H 0.4967 0.91105 0.37923 0.0
H1947 H 0.42931 0.86159 0.48906 0.0
H1948 H 0.50768 0.84741 0.40591 0.0
H1949 H 0.41608 0.92161 0.45428 0.0
H1950 H 0.45985 0.85658 0.46157 0.0
H1951 H 0.46892 0.91576 0.40936 0.0
C1952 C 0.49323 0.89799 0.39136 0.0
C1953 C 0.50449 0.87871 0.38975 0.0
C1954 C 0.45025 0.87086 0.46009 0.0
C1955 C 0.47254 0.8841 0.4248 0.0
C1956 C 0.43285 0.8737 0.47575 0.0
C1957 C 0.41999 0.89194 0.47382 0.0
C1958 C 0.45485 0.88647 0.4426 0.0
C1959 C 0.42542 0.90723 0.45641 0.0
C1960 C 0.47737 0.90073 0.40872 0.0
C1961 C 0.49953 0.86259 0.4065 0.0
N1962 N 0.44231 0.90413 0.44155 0.0
N1963 N 0.48386 0.8656 0.42324 0.0
H1964 H 0.38669 0.27351 0.66268 0.0
H1965 H 0.37113 0.14987 0.68595 0.0
H1966 H 0.39296 0.22538 0.6076 0.0
H1967 H 0.38455 0.19279 0.74459 0.0
H1968 H 0.37973 0.17795 0.65737 0.0
H1969 H 0.38671 0.24526 0.69341 0.0
C1970 C 0.38833 0.25708 0.65704 0.0
C1971 C 0.3894 0.25183 0.63242 0.0
C1972 C 0.38108 0.18131 0.67644 0.0
C1973 C 0.38926 0.21951 0.66744 0.0
C1974 C 0.37615 0.16525 0.69278 0.0
C1975 C 0.37708 0.1691 0.7176 0.0
C1976 C 0.38653 0.20168 0.68488 0.0
C1977 C 0.38374 0.18925 0.72553 0.0
C1978 C 0.38831 0.24097 0.6746 0.0
C1979 C 0.39147 0.23023 0.62624 0.0
N1980 N 0.38789 0.20499 0.70917 0.0
N1981 N 0.39111 0.21495 0.64354 0.0
H1982 H 0.07625 0.1428 0.98872 0.0
H1983 H 0.00435 0.09113 0.88448 0.0
H1984 H 0.08855 0.08218 0.95482 0.0
H1985 H 1.00257 0.15843 0.90023 0.0
H1986 H 0.03131 0.0865 0.9156 0.0
H1987 H 0.04566 0.14787 0.96139 0.0
C1988 C 0.07251 0.13058 0.97564 0.0
C1989 C 0.08518 0.1122 0.97381 0.0
C1990 C 0.02498 0.1023 0.91238 0.0
C1991 C 0.05012 0.11763 0.943 0.0
C1992 C 0.00941 0.10493 0.8947 0.0
C1993 C 1.00111 0.12521 0.88964 0.0
C1994 C 0.03239 0.12003 0.92535 0.0
C1995 C 0.00866 0.14253 0.90332 0.0
C1996 C 0.05508 0.13346 0.96008 0.0
C1997 C 0.07939 0.0967 0.9568 0.0
N1998 N 0.02388 0.13956 0.92054 0.0
N1999 N 0.06237 0.09976 0.94215 0.0
H2000 H 0.89459 0.82359 0.73404 0.0
H2001 H 0.84505 0.74733 0.63223 0.0
H2002 H 0.83332 0.8322 0.7003 0.0
H2003 H 0.91179 0.74564 0.65071 0.0
H2004 H 0.83957 0.77498 0.66235 0.0
H2005 H 0.90043 0.79186 0.70848 0.0
C2006 C 0.88236 0.81875 0.72145 0.0
C2007 C 0.86356 0.8307 0.71911 0.0
C2008 C 0.85544 0.76853 0.65995 0.0
C2009 C 0.86993 0.79451 0.69022 0.0
C2010 C 0.85855 0.75256 0.64282 0.0
C2011 C 0.87893 0.74409 0.63878 0.0
C2012 C 0.8728 0.77626 0.67333 0.0
C2013 C 0.89584 0.75189 0.65294 0.0
C2014 C 0.88569 0.80071 0.70686 0.0
C2015 C 0.84815 0.82364 0.70263 0.0
N2016 N 0.89242 0.76756 0.66954 0.0
N2017 N 0.85168 0.80612 0.6889 0.0
H2018 H 0.01238 0.1617 0.40543 0.0
H2019 H 0.91876 0.08499 0.45039 0.0
H2020 H 1.0011 0.09818 0.37857 0.0
H2021 H 0.93278 0.14427 0.48636 0.0
H2022 H 0.94932 0.09023 0.42439 0.0
H2023 H 0.98384 0.15646 0.43518 0.0
C2024 C 0.00396 0.14665 0.40578 0.0
C2025 C 0.00923 0.13036 0.38936 0.0
C2026 C 0.9459 0.10214 0.43796 0.0
C2027 C 0.97657 0.12427 0.42346 0.0
C2028 C 0.92835 0.09916 0.45292 0.0
C2029 C 0.92304 0.1143 0.47054 0.0
C2030 C 0.95839 0.12054 0.44031 0.0
C2031 C 0.9362 0.13227 0.4729 0.0
C2032 C 0.98775 0.14365 0.42287 0.0
C2033 C 0.9979 0.11112 0.39095 0.0
N2034 N 0.95322 0.135 0.4578 0.0
N2035 N 0.98213 0.1087 0.40752 0.0
H2036 H 0.65994 0.25598 0.14279 0.0
H2037 H 0.60406 0.17982 0.24022 0.0
H2038 H 0.59158 0.25299 0.15022 0.0
H2039 H 0.66756 0.17116 0.21211 0.0
H2040 H 0.59955 0.21066 0.21305 0.0
H2041 H 0.66342 0.22936 0.17446 0.0
C2042 C 0.64563 0.24998 0.15132 0.0
C2043 C 0.62543 0.2568 0.14371 0.0
C2044 C 0.61446 0.20199 0.213 0.0
C2045 C 0.62932 0.22585 0.18002 0.0
C2046 C 0.61703 0.18442 0.22847 0.0
C2047 C 0.63608 0.17268 0.22816 0.0
C2048 C 0.63126 0.20804 0.19762 0.0
C2049 C 0.65251 0.17956 0.21284 0.0
C2050 C 0.64763 0.23459 0.16931 0.0
C2051 C 0.60747 0.24805 0.15529 0.0
N2052 N 0.64972 0.19669 0.19828 0.0
N2053 N 0.60982 0.233 0.17283 0.0
H2054 H 0.50482 0.91221 0.88006 0.0
H2055 H 0.57389 0.86273 0.98836 0.0
H2056 H 0.49708 0.84722 0.90388 0.0
H2057 H 0.58662 0.9228 0.95347 0.0
H2058 H 0.54336 0.85749 0.961 0.0
H2059 H 0.53218 0.9173 0.91057 0.0
C2060 C 0.50867 0.89904 0.89188 0.0
C2061 C 0.49854 0.87924 0.88928 0.0
C2062 C 0.55284 0.87183 0.95947 0.0
C2063 C 0.53036 0.8849 0.92434 0.0
C2064 C 0.57023 0.87481 0.97508 0.0
C2065 C 0.58295 0.89313 0.97306 0.0
C2066 C 0.54807 0.88742 0.94202 0.0
C2067 C 0.57738 0.90837 0.95565 0.0
C2068 C 0.52448 0.90191 0.90925 0.0
C2069 C 0.50461 0.86269 0.90499 0.0
N2070 N 0.56047 0.90516 0.94089 0.0
N2071 N 0.52012 0.86587 0.92181 0.0
H2072 H 0.8516 0.27037 0.88637 0.0
H2073 H 0.90027 0.16481 0.82601 0.0
H2074 H 0.90955 0.24001 0.9103 0.0
H2075 H 0.84026 0.19234 0.80506 0.0
H2076 H 0.90564 0.19417 0.85434 0.0
H2077 H 0.8484 0.24354 0.85462 0.0
C2078 C 0.86364 0.25806 0.88505 0.0
C2079 C 0.88086 0.25754 0.90122 0.0
C2080 C 0.89141 0.19399 0.84333 0.0
C2081 C 0.87741 0.22679 0.86451 0.0
C2082 C 0.88852 0.17735 0.82688 0.0
C2083 C 0.87001 0.17631 0.81283 0.0
C2084 C 0.8756 0.20971 0.84589 0.0
C2085 C 0.85485 0.1926 0.81545 0.0
C2086 C 0.86186 0.2428 0.86676 0.0
C2087 C 0.89614 0.24134 0.89817 0.0
N2088 N 0.85793 0.20857 0.83169 0.0
N2089 N 0.89401 0.22664 0.88029 0.0
H2090 H 0.49978 0.15772 0.64217 0.0
H2091 H 0.59021 0.08106 0.58968 0.0
H2092 H 0.50772 0.09181 0.66238 0.0
H2093 H 0.57664 0.14218 0.55766 0.0
H2094 H 0.55983 0.08542 0.61631 0.0
H2095 H 0.52758 0.15322 0.61142 0.0
C2096 C 0.5073 0.14229 0.64014 0.0
C2097 C 0.50135 0.12512 0.65502 0.0
C2098 C 0.56333 0.09792 0.60345 0.0
C2099 C 0.5332 0.11989 0.61978 0.0
C2100 C 0.58076 0.09544 0.58817 0.0
C2101 C 0.58616 0.11138 0.5715 0.0
C2102 C 0.5511 0.11661 0.60243 0.0
C2103 C 0.57318 0.1296 0.57039 0.0
C2104 C 0.52309 0.13973 0.62247 0.0
C2105 C 0.51151 0.10546 0.65126 0.0
N2106 N 0.55633 0.13183 0.58583 0.0
N2107 N 0.52696 0.10346 0.63422 0.0
H2108 H 0.60916 0.82418 0.30534 0.0
H2109 H 0.66082 0.75246 0.41019 0.0
H2110 H 0.67083 0.83469 0.33738 0.0
H2111 H 0.59477 0.74674 0.38973 0.0
H2112 H 0.66548 0.77988 0.37963 0.0
H2113 H 0.60414 0.79332 0.33239 0.0
C2114 C 0.62165 0.81995 0.3179 0.0
C2115 C 0.64035 0.83218 0.31926 0.0
C2116 C 0.64994 0.77261 0.3817 0.0
C2117 C 0.63487 0.79693 0.34993 0.0
C2118 C 0.64731 0.75676 0.39909 0.0
C2119 C 0.62736 0.74717 0.40267 0.0
C2120 C 0.63253 0.77909 0.36755 0.0
C2121 C 0.61039 0.75384 0.38787 0.0
C2122 C 0.61879 0.80238 0.33334 0.0
C2123 C 0.65609 0.82587 0.33575 0.0
N2124 N 0.61334 0.76939 0.371 0.0
N2125 N 0.65298 0.80882 0.35035 0.0
H2126 H 0.92931 0.86414 0.05177 0.0
H2127 H 1.00274 0.91549 0.15488 0.0
H2128 H 0.91886 0.92559 0.08451 0.0
H2129 H 1.00274 0.84794 0.14035 0.0
H2130 H 0.9762 0.92043 0.12339 0.0
H2131 H 0.96009 0.85879 0.07879 0.0
C2132 C 0.93351 0.87649 0.06451 0.0
C2133 C 0.92126 0.89517 0.06617 0.0
C2134 C 0.98206 0.90451 0.12695 0.0
C2135 C 0.95653 0.88942 0.0966 0.0
C2136 C 0.99739 0.90169 0.14485 0.0
C2137 C 0.00504 0.88125 0.1504 0.0
C2138 C 0.9742 0.88681 0.11426 0.0
C2139 C 0.99713 0.86397 0.13692 0.0
C2140 C 0.95104 0.87345 0.07989 0.0
C2141 C 0.92766 0.91084 0.08271 0.0
N2142 N 0.98213 0.86711 0.11951 0.0
N2143 N 0.94474 0.9076 0.0972 0.0
H2144 H 0.61246 0.68319 0.80416 0.0
H2145 H 0.66187 0.75184 0.91288 0.0
H2146 H 0.67205 0.67011 0.83984 0.0
H2147 H 0.59733 0.76094 0.88824 0.0
H2148 H 0.66676 0.72439 0.88244 0.0
H2149 H 0.60741 0.7142 0.83103 0.0
C2150 C 0.62448 0.68687 0.81749 0.0
C2151 C 0.64256 0.67386 0.81995 0.0
C2152 C 0.65149 0.73237 0.88358 0.0
C2153 C 0.63709 0.70926 0.85039 0.0
C2154 C 0.64866 0.74803 0.90112 0.0
C2155 C 0.62906 0.75861 0.90346 0.0
C2156 C 0.63464 0.72704 0.86804 0.0
C2157 C 0.61274 0.75327 0.88712 0.0
C2158 C 0.62161 0.70453 0.8328 0.0
C2159 C 0.65776 0.67951 0.83735 0.0
N2160 N 0.61584 0.73778 0.87021 0.0
N2161 N 0.65466 0.69664 0.85182 0.0
H2162 H 0.59616 0.35554 0.07644 0.0
H2163 H 0.4861 0.40052 0.12966 0.0
H2164 H 0.56619 0.41308 0.05122 0.0
H2165 H 0.52242 0.35019 0.16322 0.0
H2166 H 0.51306 0.40281 0.09798 0.0
H2167 H 0.56686 0.35046 0.10506 0.0
C2168 C 0.58313 0.3668 0.07652 0.0
C2169 C 0.5834 0.38453 0.06116 0.0
C2170 C 0.51507 0.39121 0.11223 0.0
C2171 C 0.55005 0.37922 0.09431 0.0
C2172 C 0.49972 0.38995 0.13046 0.0
C2173 C 0.50192 0.37522 0.14939 0.0
C2174 C 0.53283 0.37758 0.11274 0.0
C2175 C 0.51978 0.36164 0.14896 0.0
C2176 C 0.56654 0.36408 0.09309 0.0
C2177 C 0.56652 0.39913 0.06267 0.0
N2178 N 0.53451 0.3632 0.13103 0.0
N2179 N 0.55054 0.39616 0.07894 0.0
H2180 H 0.89451 0.32398 0.30303 0.0
H2181 H 0.84507 0.25295 0.40996 0.0
H2182 H 0.83342 0.33471 0.33655 0.0
H2183 H 0.91069 0.24721 0.38761 0.0
H2184 H 0.8397 0.28016 0.37929 0.0
H2185 H 0.90005 0.29331 0.3302 0.0
C2186 C 0.88226 0.31985 0.31596 0.0
C2187 C 0.86359 0.3321 0.3177 0.0
C2188 C 0.85529 0.27293 0.38097 0.0
C2189 C 0.86965 0.29704 0.34852 0.0
C2190 C 0.85833 0.25721 0.39844 0.0
C2191 C 0.87838 0.24768 0.40152 0.0
C2192 C 0.87238 0.27934 0.36625 0.0
C2193 C 0.89501 0.25428 0.38616 0.0
C2194 C 0.88542 0.30238 0.33146 0.0
C2195 C 0.84814 0.32588 0.33462 0.0
N2196 N 0.89166 0.26969 0.36923 0.0
N2197 N 0.85153 0.30892 0.3493 0.0
H2198 H 0.92128 0.57934 0.58401 0.0
H2199 H 0.00883 0.65869 0.63687 0.0
H2200 H 0.93161 0.64159 0.55326 0.0
H2201 H 0.00343 0.59225 0.65593 0.0
H2202 H 0.98159 0.65343 0.60571 0.0
H2203 H 0.95207 0.58431 0.6097 0.0
C2204 C 0.93013 0.5941 0.58255 0.0
C2205 C 0.92362 0.6102 0.56663 0.0
C2206 C 0.98651 0.64001 0.61663 0.0
C2207 C 0.95915 0.61617 0.59655 0.0
C2208 C 1.00212 0.64296 0.63439 0.0
C2209 C 0.00836 0.62593 0.64934 0.0
C2210 C 0.977 0.6199 0.61379 0.0
C2211 C 0.99889 0.60598 0.64532 0.0
C2212 C 0.94779 0.59693 0.59732 0.0
C2213 C 0.9359 0.62889 0.5655 0.0
N2214 N 0.98369 0.60359 0.62812 0.0
N2215 N 0.95297 0.63149 0.5805 0.0
H2216 H 0.60929 0.32572 0.73699 0.0
H2217 H 0.66044 0.25395 0.63187 0.0
H2218 H 0.6696 0.33795 0.70233 0.0
H2219 H 0.59571 0.24552 0.65634 0.0
H2220 H 0.66495 0.28245 0.66118 0.0
H2221 H 0.60465 0.29427 0.71082 0.0
C2222 C 0.62154 0.32177 0.72399 0.0
C2223 C 0.63978 0.33456 0.72172 0.0
C2224 C 0.64975 0.27435 0.66026 0.0
C2225 C 0.63474 0.29869 0.69204 0.0
C2226 C 0.64722 0.2579 0.6436 0.0
C2227 C 0.62766 0.24724 0.64153 0.0
C2228 C 0.63262 0.28035 0.67514 0.0
C2229 C 0.611 0.25344 0.65705 0.0
C2230 C 0.61891 0.30386 0.70908 0.0
C2231 C 0.65523 0.32864 0.70469 0.0
N2232 N 0.61384 0.2696 0.67317 0.0
N2233 N 0.65235 0.31124 0.69058 0.0
H2234 H 0.92036 0.42161 0.95293 0.0
H2235 H 0.01111 0.34405 0.90284 0.0
H2236 H 0.9326 0.36041 0.98546 0.0
H2237 H 0.00313 0.40966 0.8814 0.0
H2238 H 0.98287 0.34883 0.93304 0.0
H2239 H 0.951 0.41677 0.92693 0.0
C2240 C 0.92957 0.4071 0.9547 0.0
C2241 C 0.92371 0.3913 0.97133 0.0
C2242 C 0.98746 0.36219 0.92184 0.0
C2243 C 0.95914 0.38551 0.94108 0.0
C2244 C 0.00349 0.35947 0.90448 0.0
C2245 C 0.00958 0.37648 0.88942 0.0
C2246 C 0.97726 0.38202 0.92406 0.0
C2247 C 0.99928 0.39613 0.89268 0.0
C2248 C 0.94717 0.40435 0.93976 0.0
C2249 C 0.93643 0.37291 0.97276 0.0
N2250 N 0.98362 0.39828 0.90945 0.0
N2251 N 0.95348 0.37041 0.95764 0.0
H2252 H 0.84929 0.74891 0.12336 0.0
H2253 H 0.89811 0.6827 0.23448 0.0
H2254 H 0.91072 0.76386 0.1538 0.0
H2255 H 0.84108 0.66633 0.19533 0.0
H2256 H 0.90267 0.7139 0.20774 0.0
H2257 H 0.84536 0.72026 0.15249 0.0
C2258 C 0.8619 0.74636 0.13635 0.0
C2259 C 0.88034 0.75897 0.13604 0.0
C2260 C 0.88916 0.70344 0.20515 0.0
C2261 C 0.87609 0.7256 0.16957 0.0
C2262 C 0.88656 0.68568 0.2204 0.0
C2263 C 0.86923 0.67182 0.21712 0.0
C2264 C 0.87422 0.70735 0.18672 0.0
C2265 C 0.85472 0.67647 0.1986 0.0
C2266 C 0.85973 0.72979 0.15294 0.0
C2267 C 0.8963 0.75444 0.15315 0.0
N2268 N 0.85754 0.69371 0.18424 0.0
N2269 N 0.89383 0.73814 0.1692 0.0
H2270 H 0.5865 0.58435 0.45002 0.0
H2271 H 0.49305 0.66112 0.40507 0.0
H2272 H 0.5733 0.64421 0.48518 0.0
H2273 H 0.50254 0.59658 0.38045 0.0
H2274 H 0.52181 0.65606 0.43449 0.0
H2275 H 0.55536 0.58921 0.42487 0.0
C2276 C 0.57697 0.59857 0.45255 0.0
C2277 C 0.5827 0.61398 0.46969 0.0
C2278 C 0.51745 0.64299 0.42277 0.0
C2279 C 0.54668 0.61981 0.4404 0.0
C2280 C 0.50111 0.64587 0.40584 0.0
C2281 C 0.49529 0.62926 0.3901 0.0
C2282 C 0.52823 0.62339 0.42388 0.0
C2283 C 0.50618 0.6098 0.39227 0.0
C2284 C 0.55908 0.60133 0.4381 0.0
C2285 C 0.56957 0.63199 0.4721 0.0
N2286 N 0.52211 0.6075 0.40864 0.0
N2287 N 0.55224 0.63453 0.45744 0.0
H2288 H 0.41128 0.26365 0.13389 0.0
H2289 H 0.33844 0.31512 0.23755 0.0
H2290 H 0.35091 0.23719 0.15604 0.0
H2291 H 0.39898 0.34073 0.21547 0.0
H2292 H 0.34338 0.28549 0.20929 0.0
H2293 H 0.40779 0.2909 0.16499 0.0
C2294 C 0.39735 0.2634 0.1454 0.0
C2295 C 0.38139 0.24794 0.14223 0.0
C2296 C 0.35574 0.29744 0.21083 0.0
C2297 C 0.37715 0.27954 0.17792 0.0
C2298 C 0.35296 0.31432 0.22703 0.0
C2299 C 0.36853 0.33025 0.22918 0.0
C2300 C 0.37418 0.29655 0.19645 0.0
C2301 C 0.38689 0.32854 0.21491 0.0
C2302 C 0.39532 0.27911 0.16312 0.0
C2303 C 0.36352 0.24886 0.15752 0.0
N2304 N 0.38917 0.31209 0.1991 0.0
N2305 N 0.36188 0.26436 0.17463 0.0
H2306 H 0.51234 0.66191 0.90515 0.0
H2307 H 0.41997 0.58449 0.95142 0.0
H2308 H 0.50248 0.59763 0.87995 0.0
H2309 H 0.43379 0.64382 0.98737 0.0
H2310 H 0.45052 0.58979 0.92545 0.0
H2311 H 0.48411 0.65654 0.93525 0.0
C2312 C 0.5043 0.64666 0.90594 0.0
C2313 C 0.50986 0.6302 0.88987 0.0
C2314 C 0.44706 0.60171 0.93902 0.0
C2315 C 0.47756 0.62397 0.92437 0.0
C2316 C 0.42951 0.59869 0.95395 0.0
C2317 C 0.42412 0.61384 0.97154 0.0
C2318 C 0.45947 0.62017 0.94132 0.0
C2319 C 0.43725 0.63184 0.97391 0.0
C2320 C 0.48828 0.64359 0.92324 0.0
C2321 C 0.49904 0.61072 0.89204 0.0
N2322 N 0.45426 0.63462 0.9588 0.0
N2323 N 0.48342 0.60824 0.90877 0.0
H2324 H 0.15766 0.74572 0.62326 0.0
H2325 H 0.11067 0.68222 0.73741 0.0
H2326 H 0.09755 0.76231 0.65606 0.0
H2327 H 0.16977 0.66768 0.70125 0.0
H2328 H 0.10545 0.71237 0.70944 0.0
H2329 H 0.1623 0.71777 0.65316 0.0
C2330 C 0.14534 0.74344 0.6367 0.0
C2331 C 0.12709 0.75636 0.63691 0.0
C2332 C 0.11958 0.70258 0.70776 0.0
C2333 C 0.13241 0.7242 0.67171 0.0
C2334 C 0.12255 0.6854 0.72372 0.0
C2335 C 0.14063 0.67234 0.72161 0.0
C2336 C 0.13485 0.70668 0.68972 0.0
C2337 C 0.15555 0.67723 0.70358 0.0
C2338 C 0.14806 0.72749 0.65393 0.0
C2339 C 0.11194 0.75284 0.65523 0.0
N2340 N 0.15231 0.69387 0.68842 0.0
N2341 N 0.11488 0.73704 0.67181 0.0
H2342 H 0.99323 0.34795 0.4072 0.0
H2343 H 0.08871 0.42428 0.44774 0.0
H2344 H 0.0061 0.40991 0.3768 0.0
H2345 H 0.07383 0.36651 0.48634 0.0
H2346 H 0.05799 0.41867 0.42215 0.0
H2347 H 0.02204 0.35367 0.4364 0.0
C2348 C 1.00205 0.36276 0.40664 0.0
C2349 C 0.99714 0.37847 0.3894 0.0
C2350 C 0.06126 0.40717 0.43621 0.0
C2351 C 0.03013 0.38511 0.4229 0.0
C2352 C 0.0789 0.41037 0.45093 0.0
C2353 C 0.08401 0.39577 0.46919 0.0
C2354 C 0.04845 0.38908 0.43945 0.0
C2355 C 0.07056 0.3781 0.47239 0.0
C2356 C 0.01843 0.36604 0.42343 0.0
C2357 C 0.009 0.39743 0.38985 0.0
N2358 N 0.05344 0.37515 0.45752 0.0
N2359 N 0.02491 0.40012 0.40616 0.0
H2360 H 0.40888 0.76133 0.38579 0.0
H2361 H 0.33074 0.67003 0.33885 0.0
H2362 H 0.3436 0.7537 0.40864 0.0
H2363 H 0.39153 0.68173 0.30508 0.0
H2364 H 0.33576 0.70121 0.36395 0.0
H2365 H 0.40361 0.73288 0.356 0.0
C2366 C 0.39343 0.75376 0.38453 0.0
C2367 C 0.37667 0.75997 0.39989 0.0
C2368 C 0.34805 0.69714 0.35103 0.0
C2369 C 0.37056 0.72742 0.36573 0.0
C2370 C 0.3452 0.67924 0.33662 0.0
C2371 C 0.36085 0.67306 0.31995 0.0
C2372 C 0.36685 0.70909 0.34914 0.0
C2373 C 0.37916 0.68579 0.31786 0.0
C2374 C 0.39043 0.7376 0.3674 0.0
C2375 C 0.35695 0.74973 0.39712 0.0
N2376 N 0.38178 0.70313 0.33249 0.0
N2377 N 0.35453 0.73395 0.38058 0.0
H2378 H 0.09369 0.6516 0.07626 0.0
H2379 H 0.98843 0.60087 0.13538 0.0
H2380 H 0.06701 0.59136 0.05465 0.0
H2381 H 0.01894 0.65773 0.16224 0.0
H2382 H 0.01543 0.59862 0.10372 0.0
H2383 H 0.06453 0.65599 0.10528 0.0
C2384 C 0.08145 0.63953 0.07724 0.0
C2385 C 0.08266 0.62123 0.0628 0.0
C2386 C 0.01619 0.61163 0.1165 0.0
C2387 C 0.04944 0.62582 0.09641 0.0
C2388 C 1.00081 0.61286 0.13474 0.0
C2389 C 1.00132 0.62948 0.15173 0.0
C2390 C 0.0323 0.62713 0.11506 0.0
C2391 C 0.01762 0.64476 0.14948 0.0
C2392 C 0.06491 0.64191 0.09402 0.0
C2393 C 0.06666 0.60576 0.06537 0.0
N2394 N 0.03243 0.64318 0.1316 0.0
N2395 N 0.05078 0.60838 0.08184 0.0
H2396 H 0.17131 0.33716 0.84122 0.0
H2397 H 0.0953 0.24314 0.88675 0.0
H2398 H 0.11177 0.32328 0.80584 0.0
H2399 H 0.15895 0.25478 0.9129 0.0
H2400 H 0.10017 0.27169 0.85695 0.0
H2401 H 0.16637 0.30644 0.86697 0.0
C2402 C 0.15713 0.32757 0.83876 0.0
C2403 C 0.14184 0.33302 0.82137 0.0
C2404 C 0.11309 0.26786 0.86911 0.0
C2405 C 0.13593 0.2974 0.8514 0.0
C2406 C 0.11031 0.25163 0.88626 0.0
C2407 C 0.12674 0.24644 0.90252 0.0
C2408 C 0.1324 0.27914 0.86828 0.0
C2409 C 0.14589 0.25788 0.90067 0.0
C2410 C 0.15433 0.30991 0.85359 0.0
C2411 C 0.12389 0.31978 0.8191 0.0
N2412 N 0.1481 0.27365 0.88406 0.0
N2413 N 0.12132 0.30265 0.83412 0.0
H2414 H 0.51886 0.40887 0.63572 0.0
H2415 H 0.41361 0.35939 0.57594 0.0
H2416 H 0.48969 0.35013 0.65916 0.0
H2417 H 0.43898 0.42094 0.55719 0.0
H2418 H 0.4434 0.35403 0.60369 0.0
H2419 H 0.49147 0.41226 0.60467 0.0
C2420 C 0.5067 0.39669 0.63443 0.0
C2421 C 0.50666 0.3792 0.65024 0.0
C2422 C 0.44263 0.36861 0.59331 0.0
C2423 C 0.47528 0.38288 0.61437 0.0
C2424 C 0.42574 0.37153 0.57722 0.0
C2425 C 0.424 0.39047 0.56397 0.0
C2426 C 0.45789 0.38481 0.59624 0.0
C2427 C 0.43979 0.40605 0.567 0.0
C2428 C 0.49111 0.39858 0.61656 0.0
C2429 C 0.49063 0.36376 0.64727 0.0
N2430 N 0.45603 0.40291 0.58283 0.0
N2431 N 0.47562 0.36599 0.62979 0.0
H2432 H 0.12428 0.0574 0.31272 0.0
H2433 H 0.12538 0.95226 0.23571 0.0
H2434 H 0.1044 0.05924 0.23838 0.0
H2435 H 0.09794 0.95221 0.307 0.0
H2436 H 0.12677 0.99133 0.23689 0.0
H2437 H 0.12348 0.0184 0.3114 0.0
C2438 C 0.11991 0.04957 0.29604 0.0
C2439 C 0.11438 0.06149 0.27557 0.0
C2440 C 0.12058 0.9827 0.25228 0.0
C2441 C 0.11387 0.01702 0.27394 0.0
C2442 C 0.11995 0.96047 0.25176 0.0
C2443 C 0.11158 0.94907 0.27137 0.0
C2444 C 0.11337 0.99351 0.27281 0.0
C2445 C 0.10451 0.96048 0.29156 0.0
C2446 C 0.11935 0.02738 0.2954 0.0
C2447 C 0.10869 0.05056 0.25452 0.0
N2448 N 0.10575 0.98213 0.29188 0.0
N2449 N 0.1088 0.02885 0.25413 0.0
H2450 H 0.19758 0.89671 0.52948 0.0
H2451 H 0.30378 0.82724 0.52982 0.0
H2452 H 0.19764 0.82969 0.51233 0.0
H2453 H 0.30418 0.8946 0.51443 0.0
H2454 H 0.26468 0.82791 0.52968 0.0
H2455 H 0.23663 0.8964 0.52913 0.0
C2456 C 0.20584 0.88199 0.52537 0.0
C2457 C 0.19441 0.86323 0.52079 0.0
C2458 C 0.27336 0.84254 0.52644 0.0
C2459 C 0.23899 0.86263 0.52104 0.0
C2460 C 0.29564 0.84222 0.52676 0.0
C2461 C 0.30719 0.86091 0.52215 0.0
C2462 C 0.2626 0.86175 0.5219 0.0
C2463 C 0.29585 0.87984 0.51806 0.0
C2464 C 0.22809 0.88181 0.52525 0.0
C2465 C 0.20586 0.84454 0.51576 0.0
N2466 N 0.27418 0.87981 0.51811 0.0
N2467 N 0.22755 0.84465 0.51628 0.0
H2468 H 0.40548 0.94803 0.73661 0.0
H2469 H 0.40314 0.05605 0.80982 0.0
H2470 H 0.38103 0.94951 0.80925 0.0
H2471 H 0.38251 0.05417 0.73575 0.0
H2472 H 0.40286 0.01674 0.8105 0.0
H2473 H 0.405 0.98734 0.73611 0.0
C2474 C 0.40003 0.95663 0.75238 0.0
C2475 C 0.39312 0.9456 0.77288 0.0
C2476 C 0.39835 0.02505 0.79418 0.0
C2477 C 0.39316 0.99016 0.77272 0.0
C2478 C 0.39852 0.04737 0.79379 0.0
C2479 C 0.39265 0.0583 0.77281 0.0
C2480 C 0.39298 0.01373 0.77319 0.0
C2481 C 0.3869 0.04635 0.7524 0.0
C2482 C 0.39974 0.97894 0.75209 0.0
C2483 C 0.38628 0.95743 0.79297 0.0
N2484 N 0.38746 0.02471 0.753 0.0
N2485 N 0.38669 0.97908 0.79249 0.0
H2486 H 0.19929 0.17806 0.03352 0.0
H2487 H 0.30726 0.11132 0.02949 0.0
H2488 H 0.20089 0.11159 1.01384 0.0
H2489 H 0.30564 0.17923 1.01777 0.0
H2490 H 0.26823 0.11071 0.029 0.0
H2491 H 0.23838 0.17839 0.03407 0.0
C2492 C 0.20787 0.16348 0.02965 0.0
C2493 C 0.19689 0.14476 0.02362 0.0
C2494 C 0.27642 0.12571 0.02637 0.0
C2495 C 0.24146 0.14506 0.02416 0.0
C2496 C 0.29865 0.12607 0.02659 0.0
C2497 C 0.30963 0.14534 0.02356 0.0
C2498 C 0.26508 0.14484 0.02357 0.0
C2499 C 0.29776 0.16402 1.02 0.0
C2500 C 0.23014 0.16373 0.02974 0.0
C2501 C 0.20878 0.12635 1.01857 0.0
N2502 N 0.27609 0.16335 1.02034 0.0
N2503 N 0.23043 0.12694 1.01901 0.0
H2504 H 0.87759 0.05572 0.8071 0.0
H2505 H 0.87618 0.95036 0.73009 0.0
H2506 H 0.90316 0.0555 0.73492 0.0
H2507 H 0.89751 0.94869 0.80392 0.0
H2508 H 0.87693 0.98938 0.73132 0.0
H2509 H 0.87561 0.0167 0.80592 0.0
C2510 C 0.88249 0.04747 0.79086 0.0
C2511 C 0.89051 0.0588 0.771 0.0
C2512 C 0.88134 0.98043 0.74724 0.0
C2513 C 0.88802 0.01436 0.76955 0.0
C2514 C 0.8808 0.95822 0.74666 0.0
C2515 C 0.88679 0.94633 0.767 0.0
C2516 C 0.8873 0.99083 0.76851 0.0
C2517 C 0.89283 0.95732 0.78789 0.0
C2518 C 0.88152 0.02526 0.79033 0.0
C2519 C 0.89688 0.04731 0.75056 0.0
N2520 N 0.89272 0.97904 0.78822 0.0
N2521 N 0.89531 0.02567 0.75025 0.0
H2522 H 0.7006 0.17917 0.51442 0.0
H2523 H 0.80792 0.11138 0.51158 0.0
H2524 H 0.70158 0.11175 0.52939 0.0
H2525 H 0.80717 0.17815 0.52985 0.0
H2526 H 0.76887 0.11114 0.51262 0.0
H2527 H 0.73973 0.17913 0.51361 0.0
C2528 C 0.70904 0.16432 0.5172 0.0
C2529 C 0.69787 0.14541 0.52195 0.0
C2530 C 0.77726 0.1258 0.51656 0.0
C2531 C 0.74249 0.14528 0.52108 0.0
C2532 C 0.79951 0.12593 0.51604 0.0
C2533 C 0.81077 0.14478 0.52078 0.0
C2534 C 0.76615 0.14476 0.52134 0.0
C2535 C 0.79911 0.16325 0.52628 0.0
C2536 C 0.73134 0.16435 0.51697 0.0
C2537 C 0.70961 0.12666 0.52566 0.0
N2538 N 0.77741 0.16283 0.52616 0.0
N2539 N 0.73127 0.12703 0.52505 0.0
H2540 H 0.57296 0.05521 0.28455 0.0
H2541 H 0.64292 0.94922 0.28268 0.0
H2542 H 0.64019 0.05614 0.2685 0.0
H2543 H 0.57584 0.94937 0.266 0.0
H2544 H 0.6425 0.98832 0.28305 0.0
H2545 H 0.57393 0.01613 0.28442 0.0
C2546 C 0.58798 0.04719 0.28135 0.0
C2547 C 0.60653 0.05889 0.27652 0.0
C2548 C 0.62792 0.97977 0.27915 0.0
C2549 C 0.60773 0.01429 0.2763 0.0
C2550 C 0.62816 0.95751 0.27888 0.0
C2551 C 0.60941 0.94608 0.2742 0.0
C2552 C 0.6087 0.99068 0.27522 0.0
C2553 C 0.59068 0.95757 0.26953 0.0
C2554 C 0.58848 0.02492 0.28105 0.0
C2555 C 0.62553 0.04768 0.27229 0.0
N2556 N 0.59074 0.97925 0.2704 0.0
N2557 N 0.62567 0.02601 0.27234 0.0
H2558 H 0.69769 0.8966 1.01517 0.0
H2559 H 0.80511 0.82918 1.01202 0.0
H2560 H 0.69898 0.82924 0.0304 0.0
H2561 H 0.80433 0.89611 0.02962 0.0
H2562 H 0.76601 0.82908 1.01258 0.0
H2563 H 0.73673 0.897 1.01536 0.0
C2564 C 0.70622 0.88195 1.01883 0.0
C2565 C 0.69513 0.86289 0.02292 0.0
C2566 C 0.77443 0.84379 1.01623 0.0
C2567 C 0.73971 0.8631 0.02249 0.0
C2568 C 0.79671 0.8439 1.01568 0.0
C2569 C 0.80793 0.8627 1.02076 0.0
C2570 C 0.76334 0.86268 0.02147 0.0
C2571 C 0.79625 0.88129 0.02561 0.0
C2572 C 0.72846 0.88217 1.01886 0.0
C2573 C 0.70693 0.8443 0.02736 0.0
N2574 N 0.77459 0.88084 0.02576 0.0
N2575 N 0.72861 0.84482 0.02676 0.0
H2576 H 0.5789 0.55765 0.76162 0.0
H2577 H 0.64527 0.44977 0.76629 0.0
H2578 H 0.64498 0.55652 0.78277 0.0
H2579 H 0.57764 0.45158 0.77987 0.0
H2580 H 0.64602 0.48884 0.7671 0.0
H2581 H 0.57862 0.51854 0.76193 0.0
C2582 C 0.59341 0.54917 0.76601 0.0
C2583 C 0.61201 0.56029 0.77216 0.0
C2584 C 0.63107 0.48067 0.77011 0.0
C2585 C 0.61178 0.51569 0.77256 0.0
C2586 C 0.63063 0.45841 0.76973 0.0
C2587 C 0.61139 0.44747 0.77316 0.0
C2588 C 0.61203 0.49206 0.77338 0.0
C2589 C 0.59284 0.45941 0.77734 0.0
C2590 C 0.59318 0.52689 0.76642 0.0
C2591 C 0.63032 0.54852 0.77792 0.0
N2592 N 0.59357 0.48109 0.77705 0.0
N2593 N 0.62979 0.52685 0.77788 0.0
H2594 H 0.8077 0.39528 1.01215 0.0
H2595 H 0.70245 0.3257 1.00257 0.0
H2596 H 0.80672 0.328 0.02788 0.0
H2597 H 0.69975 0.39165 0.0243 0.0
H2598 H 0.74136 0.3272 1.00435 0.0
H2599 H 0.76859 0.39517 1.01063 0.0
C2600 C 0.79922 0.38055 1.01558 0.0
C2601 C 0.81041 0.36164 1.02029 0.0
C2602 C 0.73224 0.34137 1.00857 0.0
C2603 C 0.76589 0.36129 1.0178 0.0
C2604 C 0.71004 0.34061 1.00732 0.0
C2605 C 0.69785 0.35859 1.01333 0.0
C2606 C 0.74237 0.36034 1.01546 0.0
C2607 C 0.70858 0.37744 1.01952 0.0
C2608 C 0.77697 0.3805 1.01463 0.0
C2609 C 0.79871 0.34295 0.02439 0.0
N2610 N 0.73026 0.37786 1.02038 0.0
N2611 N 0.77708 0.34319 0.02275 0.0
H2612 H 0.86025 0.55682 0.26375 0.0
H2613 H 0.92742 0.44949 0.26429 0.0
H2614 H 0.92665 0.55542 0.28345 0.0
H2615 H 0.86035 0.44983 0.28122 0.0
H2616 H 0.92726 0.48858 0.26475 0.0
H2617 H 0.85964 0.51771 0.26467 0.0
C2618 C 0.87462 0.54827 0.26854 0.0
C2619 C 0.89349 0.55935 0.27367 0.0
C2620 C 0.91258 0.48007 0.26829 0.0
C2621 C 0.89308 0.51472 0.27402 0.0
C2622 C 0.91261 0.45779 0.26781 0.0
C2623 C 0.89385 0.44643 0.27271 0.0
C2624 C 0.89358 0.49107 0.27323 0.0
C2625 C 0.87515 0.45801 0.27735 0.0
C2626 C 0.87428 0.526 0.269 0.0
C2627 C 0.91173 0.54751 0.27958 0.0
N2628 N 0.87544 0.4797 0.27737 0.0
N2629 N 0.91114 0.52582 0.2793 0.0
H2630 H 0.70126 0.63255 0.48151 0.0
H2631 H 0.80457 0.63129 0.56089 0.0
H2632 H 0.69828 0.65378 0.55535 0.0
H2633 H 0.80723 0.65494 0.48799 0.0
H2634 H 0.76557 0.63244 0.55921 0.0
H2635 H 0.74022 0.63362 0.48343 0.0
C2636 C 0.70882 0.63731 0.4982 0.0
C2637 C 0.69657 0.64305 0.51838 0.0
C2638 C 0.77472 0.6374 0.54363 0.0
C2639 C 0.74106 0.64397 0.52068 0.0
C2640 C 0.79692 0.63661 0.54447 0.0
C2641 C 0.80908 0.64299 0.52447 0.0
C2642 C 0.76459 0.644 0.52242 0.0
C2643 C 0.79838 0.64993 0.50376 0.0
C2644 C 0.73102 0.63805 0.49917 0.0
C2645 C 0.7072 0.64926 0.53944 0.0
N2646 N 0.77668 0.64998 0.50313 0.0
N2647 N 0.7289 0.6493 0.54017 0.0
H2648 H 0.35757 0.55643 0.28101 0.0
H2649 H 0.42683 0.45093 0.28595 0.0
H2650 H 0.42474 0.55595 0.26469 0.0
H2651 H 0.3616 0.44889 0.26167 0.0
H2652 H 0.4252 0.48987 0.286 0.0
H2653 H 0.35761 0.51726 0.28038 0.0
C2654 C 0.37226 0.54806 0.27707 0.0
C2655 C 0.39117 0.5594 0.27279 0.0
C2656 C 0.41122 0.48088 0.28079 0.0
C2657 C 0.39143 0.51481 0.27279 0.0
C2658 C 0.41205 0.45867 0.28097 0.0
C2659 C 0.39432 0.44667 0.27374 0.0
C2660 C 0.3924 0.49122 0.27381 0.0
C2661 C 0.37562 0.45758 0.26734 0.0
C2662 C 0.37226 0.52578 0.27676 0.0
C2663 C 0.4098 0.54783 0.26792 0.0
N2664 N 0.37511 0.47929 0.2676 0.0
N2665 N 0.40952 0.52616 0.26836 0.0
H2666 H 0.30817 0.67672 0.03091 0.0
H2667 H 0.19952 0.61193 0.02503 0.0
H2668 H 0.30759 0.61008 1.01193 0.0
H2669 H 0.20386 0.67838 1.00578 0.0
H2670 H 0.23866 0.61018 0.02634 0.0
H2671 H 0.26913 0.67699 0.02931 0.0
C2672 C 0.29982 0.66207 0.02679 0.0
C2673 C 0.31109 0.64335 0.02153 0.0
C2674 C 0.23098 0.62505 0.02162 0.0
C2675 C 0.26653 0.64356 1.01964 0.0
C2676 C 0.20871 0.62604 1.02077 0.0
C2677 C 0.19845 0.64529 1.01518 0.0
C2678 C 0.24298 0.64358 1.01746 0.0
C2679 C 0.21109 0.66318 1.01002 0.0
C2680 C 0.27758 0.66229 0.02564 0.0
C2681 C 0.29945 0.62485 1.01609 0.0
N2682 N 0.23267 0.66195 1.01159 0.0
N2683 N 0.27778 0.62538 1.01536 0.0
H2684 H 0.14678 0.45018 0.78168 0.0
H2685 H 0.0773 0.55642 0.7797 0.0
H2686 H 0.08043 0.45034 0.7617 0.0
H2687 H 0.14473 0.55708 0.76481 0.0
H2688 H 0.0782 0.51732 0.78003 0.0
H2689 H 0.14649 0.48931 0.78141 0.0
C2690 C 0.13221 0.45847 0.77703 0.0
C2691 C 0.11364 0.44703 0.77157 0.0
C2692 C 0.0928 0.52605 0.77681 0.0
C2693 C 0.11304 0.49168 0.7719 0.0
C2694 C 0.09234 0.54834 0.77685 0.0
C2695 C 0.11098 0.55998 0.77223 0.0
C2696 C 0.1121 0.51534 0.77259 0.0
C2697 C 0.13001 0.54868 0.76844 0.0
C2698 C 0.13205 0.48076 0.77694 0.0
C2699 C 0.09514 0.45854 0.76583 0.0
N2700 N 0.13011 0.52699 0.76879 0.0
N2701 N 0.09525 0.48023 0.7664 0.0
H2702 H 0.19954 0.33269 0.52873 0.0
H2703 H 0.30744 0.39843 0.52682 0.0
H2704 H 0.19986 0.39928 0.50952 0.0
H2705 H 0.30444 0.33255 0.50492 0.0
H2706 H 0.26827 0.39967 0.52708 0.0
H2707 H 0.23863 0.3328 0.52796 0.0
C2708 C 0.20784 0.3474 0.52473 0.0
C2709 C 0.19651 0.36602 0.51919 0.0
C2710 C 0.27626 0.38504 0.52202 0.0
C2711 C 0.24105 0.36623 0.51832 0.0
C2712 C 0.29853 0.38434 0.52176 0.0
C2713 C 0.30916 0.36541 0.51569 0.0
C2714 C 0.26462 0.36651 0.51681 0.0
C2715 C 0.2969 0.34752 0.50953 0.0
C2716 C 0.2301 0.3474 0.52407 0.0
C2717 C 0.20805 0.3846 0.51391 0.0
N2718 N 0.27527 0.34843 0.51056 0.0
N2719 N 0.22973 0.38429 0.5137 0.0
H2720 H 0.12474 0.10043 0.089 0.0
H2721 H 0.09782 0.16022 0.21133 0.0
H2722 H 0.11286 0.16811 0.08521 0.0
H2723 H 0.14562 0.11125 0.2035 0.0
H2724 H 0.09502 0.16198 0.16677 0.0
H2725 H 0.12282 0.10221 0.13251 0.0
C2726 C 0.12153 0.11575 0.09722 0.0
C2727 C 0.11932 0.13424 0.0831 0.0
C2728 C 0.10615 0.151 0.175 0.0
C2729 C 0.11697 0.13624 0.13379 0.0
C2730 C 0.10771 0.14991 0.20038 0.0
C2731 C 0.12202 0.13559 0.21136 0.0
C2732 C 0.11854 0.13725 0.16066 0.0
C2733 C 0.13443 0.12264 0.19614 0.0
C2734 C 0.12048 0.1167 0.12224 0.0
C2735 C 0.11478 0.15346 0.09525 0.0
N2736 N 0.13223 0.12365 0.17184 0.0
N2737 N 0.11388 0.15402 0.11997 0.0
H2738 H 0.11593 0.90919 0.45814 0.0
H2739 H 0.09331 0.84771 0.33472 0.0
H2740 H 0.10983 0.8407 0.45918 0.0
H2741 H 0.13045 0.90515 0.34194 0.0
H2742 H 0.09111 0.84555 0.37932 0.0
H2743 H 0.11183 0.90885 0.41475 0.0
C2744 C 0.11355 0.89399 0.4493 0.0
C2745 C 0.11361 0.87489 0.46252 0.0
C2746 C 0.09968 0.85858 0.37096 0.0
C2747 C 0.10887 0.87447 0.41209 0.0
C2748 C 0.10084 0.85989 0.34559 0.0
C2749 C 0.11219 0.87658 0.33453 0.0
C2750 C 0.10942 0.87441 0.38516 0.0
C2751 C 0.12171 0.89187 0.34952 0.0
C2752 C 0.11124 0.89384 0.42437 0.0
C2753 C 0.11 0.85581 0.44977 0.0
N2754 N 0.11999 0.89047 0.37383 0.0
N2755 N 0.10797 0.85603 0.42517 0.0
H2756 H 0.35668 0.85213 0.70606 0.0
H2757 H 0.40185 0.89772 0.58604 0.0
H2758 H 0.41903 0.88079 0.70621 0.0
H2759 H 0.37164 0.83611 0.58531 0.0
H2760 H 0.40571 0.895 0.63002 0.0
H2761 H 0.35873 0.84882 0.66197 0.0
C2762 C 0.37094 0.85744 0.69684 0.0
C2763 C 0.38781 0.86654 0.70988 0.0
C2764 C 0.39856 0.88193 0.62019 0.0
C2765 C 0.38988 0.86353 0.65931 0.0
C2766 C 0.39636 0.88345 0.59511 0.0
C2767 C 0.38666 0.86699 0.58195 0.0
C2768 C 0.39025 0.86419 0.6324 0.0
C2769 C 0.37953 0.849 0.5947 0.0
C2770 C 0.37209 0.85553 0.6717 0.0
C2771 C 0.4058 0.8734 0.69692 0.0
N2772 N 0.38106 0.84826 0.61925 0.0
N2773 N 0.40619 0.87215 0.67234 0.0
H2774 H 0.35168 0.13837 0.8363 0.0
H2775 H 0.41586 0.15145 0.96062 0.0
H2776 H 0.4204 0.13993 0.83696 0.0
H2777 H 0.35027 0.13223 0.95352 0.0
H2778 H 0.41833 0.1537 0.91606 0.0
H2779 H 0.3514 0.14312 0.87958 0.0
C2780 C 0.36682 0.13982 0.84551 0.0
C2781 C 0.38612 0.13845 0.83278 0.0
C2782 C 0.4034 0.14919 0.92439 0.0
C2783 C 0.38588 0.14381 0.88318 0.0
C2784 C 0.40195 0.14807 0.94976 0.0
C2785 C 0.38284 0.14157 0.96078 0.0
C2786 C 0.38549 0.14415 0.91017 0.0
C2787 C 0.36536 0.13715 0.94586 0.0
C2788 C 0.36663 0.14252 0.87041 0.0
C2789 C 0.40514 0.14081 0.84598 0.0
N2790 N 0.36712 0.13852 0.92155 0.0
N2791 N 0.40457 0.14317 0.87053 0.0
H2792 H 0.85117 0.88938 0.83681 0.0
H2793 H 0.89702 0.841 0.9575 0.0
H2794 H 0.90921 0.85273 0.83119 0.0
H2795 H 0.87079 0.90436 0.95084 0.0
H2796 H 0.89858 0.83885 0.91288 0.0
H2797 H 0.85372 0.88784 0.88027 0.0
C2798 C 0.86446 0.8808 0.84461 0.0
C2799 C 0.8801 0.87129 0.82999 0.0
C2800 C 0.89272 0.85322 0.92143 0.0
C2801 C 0.88298 0.86944 0.88062 0.0
C2802 C 0.8918 0.85447 0.94685 0.0
C2803 C 0.88354 0.8728 0.9582 0.0
C2804 C 0.88494 0.87024 0.90743 0.0
C2805 C 0.87705 0.88975 0.94329 0.0
C2806 C 0.86591 0.88003 0.86961 0.0
C2807 C 0.89684 0.86041 0.84165 0.0
N2808 N 0.87764 0.88791 0.91895 0.0
N2809 N 0.89786 0.85974 0.86634 0.0
H2810 H 0.91356 0.1575 0.70872 0.0
H2811 H 0.88406 0.1001 0.58578 0.0
H2812 H 0.86543 0.10892 0.70099 0.0
H2813 H 0.89641 0.16775 0.58341 0.0
H2814 H 0.88691 0.10097 0.62924 0.0
H2815 H 0.91573 0.15991 0.66415 0.0
C2816 C 0.9035 0.14739 0.69778 0.0
C2817 C 0.88923 0.13303 0.70876 0.0
C2818 C 0.88914 0.11565 0.61929 0.0
C2819 C 0.89198 0.13542 0.6581 0.0
C2820 C 0.88755 0.11523 0.5943 0.0
C2821 C 0.88961 0.13399 0.58063 0.0
C2822 C 0.89304 0.13492 0.63122 0.0
C2823 C 0.89456 0.15292 0.59312 0.0
C2824 C 0.90469 0.14886 0.67241 0.0
C2825 C 0.87656 0.12035 0.69359 0.0
N2826 N 0.89597 0.15296 0.6178 0.0
N2827 N 0.8784 0.12171 0.66928 0.0
H2828 H 0.60549 0.10424 0.459 0.0
H2829 H 0.63966 0.15795 0.33863 0.0
H2830 H 0.62733 0.1693 0.46026 0.0
H2831 H 0.583 0.11933 0.34027 0.0
H2832 H 0.63827 0.1608 0.3828 0.0
H2833 H 0.5997 0.10723 0.41536 0.0
C2834 C 0.60879 0.11926 0.45013 0.0
C2835 C 0.61675 0.13661 0.46333 0.0
C2836 C 0.6259 0.15207 0.37346 0.0
C2837 C 0.61084 0.13988 0.41322 0.0
C2838 C 0.62665 0.15048 0.34829 0.0
C2839 C 0.61122 0.13868 0.33576 0.0
C2840 C 0.61009 0.14107 0.38635 0.0
C2841 C 0.59497 0.12891 0.3492 0.0
C2842 C 0.60545 0.12095 0.42524 0.0
C2843 C 0.62093 0.15563 0.45083 0.0
N2844 N 0.59507 0.12995 0.37379 0.0
N2845 N 0.61834 0.15664 0.42642 0.0
H2846 H 0.6128 0.83722 0.08499 0.0
H2847 H 0.62857 0.90496 0.20479 0.0
H2848 H 0.61622 0.90582 0.08816 0.0
H2849 H 0.60139 0.84203 0.20956 0.0
H2850 H 0.62566 0.90353 0.16132 0.0
H2851 H 0.60918 0.83649 0.12944 0.0
C2852 C 0.61243 0.85209 0.09487 0.0
C2853 C 0.61511 0.8716 0.08269 0.0
C2854 C 0.62015 0.88998 0.17167 0.0
C2855 C 0.61126 0.87084 0.13338 0.0
C2856 C 0.6219 0.89076 0.19664 0.0
C2857 C 0.61528 0.87357 0.21097 0.0
C2858 C 0.61201 0.8717 0.16038 0.0
C2859 C 0.6066 0.85569 0.19921 0.0
C2860 C 0.61043 0.85165 0.12023 0.0
C2861 C 0.61458 0.89034 0.09656 0.0
N2862 N 0.60544 0.85508 0.17452 0.0
N2863 N 0.61295 0.88944 0.12092 0.0
H2864 H 0.59433 0.65575 0.70911 0.0
H2865 H 0.63175 0.60056 0.58714 0.0
H2866 H 0.6478 0.61287 0.7023 0.0
H2867 H 0.60791 0.66504 0.58333 0.0
H2868 H 0.62972 0.60207 0.63061 0.0
H2869 H 0.59225 0.65736 0.66448 0.0
C2870 C 0.60562 0.64676 0.69841 0.0
C2871 C 0.62127 0.63415 0.70974 0.0
C2872 C 0.62483 0.61593 0.62037 0.0
C2873 C 0.61869 0.63564 0.65889 0.0
C2874 C 0.62593 0.61511 0.59533 0.0
C2875 C 0.62026 0.63283 0.58117 0.0
C2876 C 0.6178 0.63451 0.63194 0.0
C2877 C 0.61258 0.65102 0.59337 0.0
C2878 C 0.60445 0.64776 0.67297 0.0
C2879 C 0.63545 0.62288 0.69476 0.0
N2880 N 0.61163 0.65144 0.61809 0.0
N2881 N 0.63367 0.62376 0.67041 0.0
H2882 H 0.64788 0.35141 0.83307 0.0
H2883 H 0.59929 0.38952 0.95454 0.0
H2884 H 0.58463 0.37807 0.83382 0.0
H2885 H 0.63521 0.33106 0.95229 0.0
H2886 H 0.59497 0.38776 0.9106 0.0
H2887 H 0.64543 0.34559 0.87672 0.0
C2888 C 0.63333 0.35572 0.84239 0.0
C2889 C 0.61636 0.3651 0.82978 0.0
C2890 C 0.60342 0.3751 0.91977 0.0
C2891 C 0.61376 0.35914 0.87987 0.0
C2892 C 0.60589 0.37607 0.94481 0.0
C2893 C 0.61742 0.36027 0.95708 0.0
C2894 C 0.61326 0.35864 0.90673 0.0
C2895 C 0.62593 0.34338 0.94356 0.0
C2896 C 0.63194 0.35237 0.86727 0.0
C2897 C 0.59796 0.37057 0.84281 0.0
N2898 N 0.62408 0.34323 0.91905 0.0
N2899 N 0.5973 0.36792 0.86722 0.0
H2900 H 0.89296 0.33614 0.08385 0.0
H2901 H 0.87297 0.40382 0.20264 0.0
H2902 H 0.8879 0.40468 0.08634 0.0
H2903 H 0.90468 0.34309 0.20859 0.0
H2904 H 0.87604 0.40192 0.1592 0.0
H2905 H 0.89607 0.33583 0.12835 0.0
C2906 C 0.89284 0.35109 0.09359 0.0
C2907 C 0.88986 0.37045 0.08118 0.0
C2908 C 0.8825 0.38897 0.16982 0.0
C2909 C 0.89313 0.37014 0.13193 0.0
C2910 C 0.88066 0.39 0.19478 0.0
C2911 C 0.88854 0.37357 0.20944 0.0
C2912 C 0.89202 0.37119 0.15889 0.0
C2913 C 0.89848 0.35617 0.198 0.0
C2914 C 0.89457 0.35088 0.11898 0.0
C2915 C 0.88979 0.38929 0.09488 0.0
N2916 N 0.89973 0.35528 0.17331 0.0
N2917 N 0.89113 0.38861 0.11927 0.0
H2918 H 0.92075 0.64292 0.33373 0.0
H2919 H 0.85675 0.61247 0.45148 0.0
H2920 H 0.85271 0.63316 0.33637 0.0
H2921 H 0.9097 0.65577 0.45914 0.0
H2922 H 0.85938 0.6156 0.40811 0.0
H2923 H 0.921 0.64487 0.37834 0.0
C2924 C 0.90589 0.6415 0.34352 0.0
C2925 C 0.88673 0.63759 0.33108 0.0
C2926 C 0.87047 0.62449 0.41916 0.0
C2927 C 0.88702 0.63944 0.3819 0.0
C2928 C 0.86908 0.62262 0.44409 0.0
C2929 C 0.88302 0.63387 0.45923 0.0
C2930 C 0.88614 0.63748 0.40875 0.0
C2931 C 0.89854 0.64688 0.44821 0.0
C2932 C 0.90607 0.64259 0.36895 0.0
C2933 C 0.86798 0.63585 0.34487 0.0
N2934 N 0.89982 0.64822 0.42357 0.0
N2935 N 0.86869 0.63651 0.36929 0.0
H2936 H 0.40682 0.34211 0.33252 0.0
H2937 H 0.39014 0.40661 0.45576 0.0
H2938 H 0.37993 0.40507 0.339 0.0
H2939 H 0.39116 0.33785 0.45615 0.0
H2940 H 0.39532 0.40626 0.41248 0.0
H2941 H 0.409 0.34019 0.37712 0.0
C2942 C 0.40165 0.35556 0.34326 0.0
C2943 C 0.39305 0.37373 0.33208 0.0
C2944 C 0.39455 0.39118 0.42194 0.0
C2945 C 0.39575 0.37179 0.38261 0.0
C2946 C 0.3916 0.39134 0.44678 0.0
C2947 C 0.38983 0.3722 0.45973 0.0
C2948 C 0.39572 0.37174 0.40951 0.0
C2949 C 0.39231 0.35299 0.44691 0.0
C2950 C 0.40277 0.35441 0.36862 0.0
C2951 C 0.38646 0.39066 0.3468 0.0
N2952 N 0.3949 0.35321 0.4224 0.0
N2953 N 0.388 0.38929 0.37111 0.0
H2954 H 0.35282 0.61858 0.20349 0.0
H2955 H 0.4011 0.6658 0.08379 0.0
H2956 H 0.41285 0.65164 0.2104 0.0
H2957 H 0.37371 0.60291 0.08993 0.0
H2958 H 0.4025 0.66768 0.12842 0.0
H2959 H 0.35586 0.62066 0.16016 0.0
C2960 C 0.36668 0.62646 0.19603 0.0
C2961 C 0.38274 0.63476 0.21101 0.0
C2962 C 0.39645 0.65347 0.11976 0.0
C2963 C 0.38613 0.63726 0.16043 0.0
C2964 C 0.3956 0.65237 0.09433 0.0
C2965 C 0.3871 0.63425 0.08281 0.0
C2966 C 0.38833 0.63652 0.13362 0.0
C2967 C 0.38023 0.61735 0.0976 0.0
C2968 C 0.36838 0.62756 0.17108 0.0
C2969 C 0.40014 0.64489 0.19969 0.0
N2970 N 0.38075 0.61905 0.12195 0.0
N2971 N 0.40141 0.64587 0.17501 0.0
H2972 H 0.08462 0.62896 0.83369 0.0
H2973 H 0.13568 0.6756 0.95475 0.0
H2974 H 0.14811 0.65501 0.83514 0.0
H2975 H 0.10101 0.61638 0.9543 0.0
H2976 H 0.13225 0.67733 0.91053 0.0
H2977 H 0.08252 0.63342 0.8778 0.0
C2978 C 0.09787 0.63614 0.84319 0.0
C2979 C 0.11655 0.64169 0.83075 0.0
C2980 C 0.12504 0.6642 0.92023 0.0
C2981 C 0.11413 0.64705 0.88097 0.0
C2982 C 0.12683 0.66331 0.94543 0.0
C2983 C 0.11853 0.64587 0.9582 0.0
C2984 C 0.11439 0.64785 0.90781 0.0
C2985 C 0.10758 0.63012 0.94514 0.0
C2986 C 0.09672 0.63852 0.86832 0.0
C2987 C 0.13341 0.65056 0.84403 0.0
N2988 N 0.10577 0.6315 0.92071 0.0
N2989 N 0.13179 0.65304 0.86837 0.0
H2990 H 0.09344 0.35338 0.7082 0.0
H2991 H 0.13415 0.40813 0.58737 0.0
H2992 H 0.14938 0.39306 0.70239 0.0
H2993 H 0.10674 0.34519 0.58227 0.0
H2994 H 0.13212 0.40599 0.63084 0.0
H2995 H 0.09148 0.35248 0.66354 0.0
C2996 C 0.1053 0.36179 0.69771 0.0
C2997 C 0.1216 0.37331 0.70934 0.0
C2998 C 0.12645 0.39262 0.62031 0.0
C2999 C 0.11916 0.37267 0.65844 0.0
C3000 C 0.12754 0.3938 0.59527 0.0
C3001 C 0.12084 0.37669 0.58075 0.0
C3002 C 0.11839 0.37428 0.6315 0.0
C3003 C 0.11222 0.35875 0.59259 0.0
C3004 C 0.10419 0.36122 0.67225 0.0
C3005 C 0.1365 0.3839 0.69461 0.0
N3006 N 0.11127 0.35797 0.6173 0.0
N3007 N 0.13477 0.38347 0.67024 0.0
loop_
_geom_bond_atom_site_label_1
_geom_bond_atom_site_label_2
_geom_bond_distance
_geom_bond_site_symmetry_2
_ccdc_geom_bond_type
Pr0 C2 2.880 . S
Pr0 O20 2.562 . S
Pr0 O21 2.490 . S
Pr0 O22 2.695 . S
Pr0 O23 2.512 . S
Pr0 O25 2.437 . S
Pr0 O28 2.436 . S
Pr0 O30 2.438 . S
Pr1 C11 2.880 . S
Pr1 O22 2.436 . S
Pr1 O24 2.438 . S
Pr1 O26 2.562 . S
Pr1 O27 2.490 . S
Pr1 O28 2.695 . S
Pr1 O29 2.512 . S
Pr1 O31 2.437 . S
C2 Pr0 2.880 . S
C2 C3 1.491 . S
C2 O20 1.254 . S
C2 O21 1.225 . S
C3 C2 1.491 . S
C3 C4 1.392 . S
C3 C8 1.356 . S
C4 C3 1.392 . S
C4 C5 1.368 . S
C4 H32 0.929 . S
C5 C4 1.368 . S
C5 C6 1.386 . S
C5 H33 0.929 . S
C6 C5 1.386 . S
C6 C7 1.373 . S
C7 C6 1.373 . S
C7 C8 1.409 . S
C7 H34 0.931 . S
C8 C3 1.356 . S
C8 C7 1.409 . S
C8 H35 0.930 . S
C9 O22 1.270 . S
C9 O23 1.248 . S
C10 O24 1.267 . S
C10 O25 1.278 . S
C11 Pr1 2.880 . S
C11 C12 1.491 . S
C11 O26 1.254 . S
C11 O27 1.225 . S
C12 C11 1.491 . S
C12 C13 1.392 . S
C12 C17 1.356 . S
C13 C12 1.392 . S
C13 C14 1.368 . S
C13 H36 0.929 . S
C14 C13 1.368 . S
C14 C15 1.386 . S
C14 H37 0.929 . S
C15 C14 1.386 . S
C15 C16 1.373 . S
C16 C15 1.373 . S
C16 C17 1.409 . S
C16 H38 0.931 . S
C17 C12 1.356 . S
C17 C16 1.409 . S
C17 H39 0.930 . S
C18 O28 1.270 . S
C18 O29 1.248 . S
C19 O30 1.267 . S
C19 O31 1.278 . S
O20 Pr0 2.562 . S
O20 C2 1.254 . S
O21 Pr0 2.490 . S
O21 C2 1.225 . S
O22 Pr0 2.695 . S
O22 Pr1 2.436 . S
O22 C9 1.270 . S
O23 Pr0 2.512 . S
O23 C9 1.248 . S
O24 Pr1 2.438 . S
O24 C10 1.267 . S
O25 Pr0 2.437 . S
O25 C10 1.278 . S
O26 Pr1 2.562 . S
O26 C11 1.254 . S
O27 Pr1 2.490 . S
O27 C11 1.225 . S
O28 Pr0 2.436 . S
O28 Pr1 2.695 . S
O28 C18 1.270 . S
O29 Pr1 2.512 . S
O29 C18 1.248 . S
O30 Pr0 2.438 . S
O30 C19 1.267 . S
O31 Pr1 2.437 . S
O31 C19 1.278 . S
H32 C4 0.929 . S
H33 C5 0.929 . S
H34 C7 0.931 . S
H35 C8 0.930 . S
H36 C13 0.929 . S
H37 C14 0.929 . S
H38 C16 0.931 . S
H39 C17 0.930 . S
Pr40 C42 2.880 . S
Pr40 O60 2.562 . S
Pr40 O61 2.490 . S
Pr40 O62 2.695 . S
Pr40 O63 2.512 . S
Pr40 O65 2.437 . S
Pr40 O68 2.436 . S
Pr40 O70 2.438 . S
Pr41 C51 2.880 . S
Pr41 O62 2.436 . S
Pr41 O64 2.438 . S
Pr41 O66 2.562 . S
Pr41 O67 2.490 . S
Pr41 O68 2.695 . S
Pr41 O69 2.512 . S
Pr41 O71 2.437 . S
C42 Pr40 2.880 . S
C42 C43 1.491 . S
C42 O60 1.254 . S
C42 O61 1.225 . S
C43 C42 1.491 . S
C43 C44 1.392 . S
C43 C48 1.356 . S
C44 C43 1.392 . S
C44 C45 1.368 . S
C44 H72 0.929 . S
C45 C44 1.368 . S
C45 C46 1.386 . S
C45 H73 0.929 1_565 S
C46 C45 1.386 . S
C46 C47 1.373 . S
C47 C46 1.373 . S
C47 C48 1.409 . S
C47 H74 0.931 . S
C48 C43 1.356 . S
C48 C47 1.409 . S
C48 H75 0.930 . S
C49 O62 1.270 . S
C49 O63 1.248 . S
C50 O64 1.267 . S
C50 O65 1.278 . S
C51 Pr41 2.880 . S
C51 C52 1.491 . S
C51 O66 1.254 . S
C51 O67 1.225 . S
C52 C51 1.491 . S
C52 C53 1.392 . S
C52 C57 1.356 . S
C53 C52 1.392 . S
C53 C54 1.368 . S
C53 H76 0.929 . S
C54 C53 1.368 . S
C54 C55 1.386 . S
C54 H77 0.929 . S
C55 C54 1.386 . S
C55 C56 1.373 . S
C56 C55 1.373 . S
C56 C57 1.409 . S
C56 H78 0.931 . S
C57 C52 1.356 . S
C57 C56 1.409 . S
C57 H79 0.930 . S
C58 O68 1.270 . S
C58 O69 1.248 . S
C59 O70 1.267 . S
C59 O71 1.278 . S
O60 Pr40 2.562 . S
O60 C42 1.254 . S
O61 Pr40 2.490 . S
O61 C42 1.225 . S
O62 Pr40 2.695 . S
O62 Pr41 2.436 . S
O62 C49 1.270 . S
O63 Pr40 2.512 . S
O63 C49 1.248 . S
O64 Pr41 2.438 . S
O64 C50 1.267 . S
O65 Pr40 2.437 . S
O65 C50 1.278 . S
O66 Pr41 2.562 . S
O66 C51 1.254 . S
O67 Pr41 2.490 . S
O67 C51 1.225 . S
O68 Pr40 2.436 . S
O68 Pr41 2.695 . S
O68 C58 1.270 . S
O69 Pr41 2.512 . S
O69 C58 1.248 . S
O70 Pr40 2.438 . S
O70 C59 1.267 . S
O71 Pr41 2.437 . S
O71 C59 1.278 . S
H72 C44 0.929 . S
H73 C45 0.929 1_545 S
H74 C47 0.931 . S
H75 C48 0.930 . S
H76 C53 0.929 . S
H77 C54 0.929 . S
H78 C56 0.931 . S
H79 C57 0.930 . S
Pr80 C82 2.880 . S
Pr80 O100 2.562 . S
Pr80 O101 2.490 . S
Pr80 O102 2.695 . S
Pr80 O103 2.512 . S
Pr80 O105 2.437 . S
Pr80 O108 2.436 . S
Pr80 O110 2.438 . S
Pr81 C91 2.880 . S
Pr81 O102 2.436 . S
Pr81 O104 2.438 . S
Pr81 O106 2.562 . S
Pr81 O107 2.490 . S
Pr81 O108 2.695 . S
Pr81 O109 2.512 . S
Pr81 O111 2.437 . S
C82 Pr80 2.880 . S
C82 C83 1.491 . S
C82 O100 1.254 . S
C82 O101 1.225 . S
C83 C82 1.491 . S
C83 C84 1.392 . S
C83 C88 1.356 . S
C84 C83 1.392 . S
C84 C85 1.368 . S
C84 H112 0.929 . S
C85 C84 1.368 . S
C85 C86 1.386 . S
C85 H113 0.929 . S
C86 C85 1.386 . S
C86 C87 1.373 . S
C87 C86 1.373 . S
C87 C88 1.409 . S
C87 H114 0.931 . S
C88 C83 1.356 . S
C88 C87 1.409 . S
C88 H115 0.930 . S
C89 O102 1.270 . S
C89 O103 1.248 . S
C90 O104 1.267 . S
C90 O105 1.278 . S
C91 Pr81 2.880 . S
C91 C92 1.491 . S
C91 O106 1.254 . S
C91 O107 1.225 . S
C92 C91 1.491 . S
C92 C93 1.392 . S
C92 C97 1.356 . S
C93 C92 1.392 . S
C93 C94 1.368 . S
C93 H116 0.929 . S
C94 C93 1.368 . S
C94 C95 1.386 . S
C94 H117 0.929 . S
C95 C94 1.386 . S
C95 C96 1.373 . S
C96 C95 1.373 . S
C96 C97 1.409 . S
C96 H118 0.931 . S
C97 C92 1.356 . S
C97 C96 1.409 . S
C97 H119 0.930 . S
C98 O108 1.270 . S
C98 O109 1.248 . S
C99 O110 1.267 . S
C99 O111 1.278 . S
O100 Pr80 2.562 . S
O100 C82 1.254 . S
O101 Pr80 2.490 . S
O101 C82 1.225 . S
O102 Pr80 2.695 . S
O102 Pr81 2.436 . S
O102 C89 1.270 . S
O103 Pr80 2.512 . S
O103 C89 1.248 . S
O104 Pr81 2.438 . S
O104 C90 1.267 . S
O105 Pr80 2.437 . S
O105 C90 1.278 . S
O106 Pr81 2.562 . S
O106 C91 1.254 . S
O107 Pr81 2.490 . S
O107 C91 1.225 . S
O108 Pr80 2.436 . S
O108 Pr81 2.695 . S
O108 C98 1.270 . S
O109 Pr81 2.512 . S
O109 C98 1.248 . S
O110 Pr80 2.438 . S
O110 C99 1.267 . S
O111 Pr81 2.437 . S
O111 C99 1.278 . S
H112 C84 0.929 . S
H113 C85 0.929 . S
H114 C87 0.931 . S
H115 C88 0.930 . S
H116 C93 0.929 . S
H117 C94 0.929 . S
H118 C96 0.931 . S
H119 C97 0.930 . S
Pr120 C122 2.880 1_554 S
Pr120 O140 2.562 1_554 S
Pr120 O141 2.490 . S
Pr120 O142 2.695 . S
Pr120 O143 2.512 . S
Pr120 O145 2.437 1_554 S
Pr120 O148 2.436 . S
Pr120 O150 2.438 . S
Pr121 C131 2.880 . S
Pr121 O142 2.436 . S
Pr121 O144 2.438 1_554 S
Pr121 O146 2.562 . S
Pr121 O147 2.490 . S
Pr121 O148 2.695 . S
Pr121 O149 2.512 . S
Pr121 O151 2.437 . S
C122 Pr120 2.880 1_556 S
C122 C123 1.491 . S
C122 O140 1.254 . S
C122 O141 1.225 1_556 S
C123 C122 1.491 . S
C123 C124 1.392 . S
C123 C128 1.356 . S
C124 C123 1.392 . S
C124 C125 1.368 . S
C124 H152 0.929 . S
C125 C124 1.368 . S
C125 C126 1.386 . S
C125 H153 0.929 1_545 S
C126 C125 1.386 . S
C126 C127 1.373 . S
C127 C126 1.373 . S
C127 C128 1.409 . S
C127 H154 0.931 . S
C128 C123 1.356 . S
C128 C127 1.409 . S
C128 H155 0.930 . S
C129 O142 1.270 . S
C129 O143 1.248 . S
C130 O144 1.267 . S
C130 O145 1.278 . S
C131 Pr121 2.880 . S
C131 C132 1.491 . S
C131 O146 1.254 . S
C131 O147 1.225 . S
C132 C131 1.491 . S
C132 C133 1.392 . S
C132 C137 1.356 . S
C133 C132 1.392 . S
C133 C134 1.368 . S
C133 H156 0.929 . S
C134 C133 1.368 . S
C134 C135 1.386 . S
C134 H157 0.929 . S
C135 C134 1.386 . S
C135 C136 1.373 . S
C136 C135 1.373 . S
C136 C137 1.409 . S
C136 H158 0.931 . S
C137 C132 1.356 . S
C137 C136 1.409 . S
C137 H159 0.930 . S
C138 O148 1.270 . S
C138 O149 1.248 . S
C139 O150 1.267 . S
C139 O151 1.278 . S
O140 Pr120 2.562 1_556 S
O140 C122 1.254 . S
O141 Pr120 2.490 . S
O141 C122 1.225 1_554 S
O142 Pr120 2.695 . S
O142 Pr121 2.436 . S
O142 C129 1.270 . S
O143 Pr120 2.512 . S
O143 C129 1.248 . S
O144 Pr121 2.438 1_556 S
O144 C130 1.267 . S
O145 Pr120 2.437 1_556 S
O145 C130 1.278 . S
O146 Pr121 2.562 . S
O146 C131 1.254 . S
O147 Pr121 2.490 . S
O147 C131 1.225 . S
O148 Pr120 2.436 . S
O148 Pr121 2.695 . S
O148 C138 1.270 . S
O149 Pr121 2.512 . S
O149 C138 1.248 . S
O150 Pr120 2.438 . S
O150 C139 1.267 . S
O151 Pr121 2.437 . S
O151 C139 1.278 . S
H152 C124 0.929 . S
H153 C125 0.929 1_565 S
H154 C127 0.931 . S
H155 C128 0.930 . S
H156 C133 0.929 . S
H157 C134 0.929 . S
H158 C136 0.931 . S
H159 C137 0.930 . S
Pr160 C162 2.880 . S
Pr160 O180 2.562 . S
Pr160 O181 2.490 . S
Pr160 O182 2.695 . S
Pr160 O183 2.512 . S
Pr160 O185 2.437 . S
Pr160 O188 2.436 . S
Pr160 O190 2.438 . S
Pr161 C171 2.880 . S
Pr161 O182 2.436 . S
Pr161 O184 2.438 . S
Pr161 O186 2.562 . S
Pr161 O187 2.490 . S
Pr161 O188 2.695 . S
Pr161 O189 2.512 . S
Pr161 O191 2.437 . S
C162 Pr160 2.880 . S
C162 C163 1.491 . S
C162 O180 1.254 . S
C162 O181 1.225 . S
C163 C162 1.491 . S
C163 C164 1.392 . S
C163 C168 1.356 . S
C164 C163 1.392 . S
C164 C165 1.368 . S
C164 H192 0.929 . S
C165 C164 1.368 . S
C165 C166 1.386 . S
C165 H193 0.929 . S
C166 C165 1.386 . S
C166 C167 1.373 . S
C167 C166 1.373 . S
C167 C168 1.409 . S
C167 H194 0.931 . S
C168 C163 1.356 . S
C168 C167 1.409 . S
C168 H195 0.930 . S
C169 O182 1.270 . S
C169 O183 1.248 . S
C170 O184 1.267 . S
C170 O185 1.278 . S
C171 Pr161 2.880 . S
C171 C172 1.491 . S
C171 O186 1.254 . S
C171 O187 1.225 . S
C172 C171 1.491 . S
C172 C173 1.392 . S
C172 C177 1.356 . S
C173 C172 1.392 . S
C173 C174 1.368 . S
C173 H196 0.929 . S
C174 C173 1.368 . S
C174 C175 1.386 . S
C174 H197 0.929 . S
C175 C174 1.386 . S
C175 C176 1.373 . S
C176 C175 1.373 . S
C176 C177 1.409 . S
C176 H198 0.931 . S
C177 C172 1.356 . S
C177 C176 1.409 . S
C177 H199 0.930 . S
C178 O188 1.270 . S
C178 O189 1.248 . S
C179 O190 1.267 . S
C179 O191 1.278 . S
O180 Pr160 2.562 . S
O180 C162 1.254 . S
O181 Pr160 2.490 . S
O181 C162 1.225 . S
O182 Pr160 2.695 . S
O182 Pr161 2.436 . S
O182 C169 1.270 . S
O183 Pr160 2.512 . S
O183 C169 1.248 . S
O184 Pr161 2.438 . S
O184 C170 1.267 . S
O185 Pr160 2.437 . S
O185 C170 1.278 . S
O186 Pr161 2.562 . S
O186 C171 1.254 . S
O187 Pr161 2.490 . S
O187 C171 1.225 . S
O188 Pr160 2.436 . S
O188 Pr161 2.695 . S
O188 C178 1.270 . S
O189 Pr161 2.512 . S
O189 C178 1.248 . S
O190 Pr160 2.438 . S
O190 C179 1.267 . S
O191 Pr161 2.437 . S
O191 C179 1.278 . S
H192 C164 0.929 . S
H193 C165 0.929 . S
H194 C167 0.931 . S
H195 C168 0.930 . S
H196 C173 0.929 . S
H197 C174 0.929 . S
H198 C176 0.931 . S
H199 C177 0.930 . S
Pr200 C202 2.880 . S
Pr200 O220 2.562 . S
Pr200 O221 2.490 . S
Pr200 O222 2.695 . S
Pr200 O223 2.512 . S
Pr200 O225 2.437 . S
Pr200 O228 2.436 . S
Pr200 O230 2.438 . S
Pr201 C211 2.880 . S
Pr201 O222 2.436 . S
Pr201 O224 2.438 . S
Pr201 O226 2.562 . S
Pr201 O227 2.490 . S
Pr201 O228 2.695 . S
Pr201 O229 2.512 . S
Pr201 O231 2.437 . S
C202 Pr200 2.880 . S
C202 C203 1.491 . S
C202 O220 1.254 . S
C202 O221 1.225 . S
C203 C202 1.491 . S
C203 C204 1.392 . S
C203 C208 1.356 . S
C204 C203 1.392 . S
C204 C205 1.368 . S
C204 H232 0.929 . S
C205 C204 1.368 . S
C205 C206 1.386 . S
C205 H233 0.929 1_565 S
C206 C205 1.386 . S
C206 C207 1.373 . S
C207 C206 1.373 . S
C207 C208 1.409 . S
C207 H234 0.931 . S
C208 C203 1.356 . S
C208 C207 1.409 . S
C208 H235 0.930 . S
C209 O222 1.270 . S
C209 O223 1.248 . S
C210 O224 1.267 . S
C210 O225 1.278 . S
C211 Pr201 2.880 . S
C211 C212 1.491 . S
C211 O226 1.254 . S
C211 O227 1.225 . S
C212 C211 1.491 . S
C212 C213 1.392 . S
C212 C217 1.356 . S
C213 C212 1.392 . S
C213 C214 1.368 . S
C213 H236 0.929 . S
C214 C213 1.368 . S
C214 C215 1.386 . S
C214 H237 0.929 . S
C215 C214 1.386 . S
C215 C216 1.373 . S
C216 C215 1.373 . S
C216 C217 1.409 . S
C216 H238 0.931 . S
C217 C212 1.356 . S
C217 C216 1.409 . S
C217 H239 0.930 . S
C218 O228 1.270 . S
C218 O229 1.248 . S
C219 O230 1.267 . S
C219 O231 1.278 . S
O220 Pr200 2.562 . S
O220 C202 1.254 . S
O221 Pr200 2.490 . S
O221 C202 1.225 . S
O222 Pr200 2.695 . S
O222 Pr201 2.436 . S
O222 C209 1.270 . S
O223 Pr200 2.512 . S
O223 C209 1.248 . S
O224 Pr201 2.438 . S
O224 C210 1.267 . S
O225 Pr200 2.437 . S
O225 C210 1.278 . S
O226 Pr201 2.562 . S
O226 C211 1.254 . S
O227 Pr201 2.490 . S
O227 C211 1.225 . S
O228 Pr200 2.436 . S
O228 Pr201 2.695 . S
O228 C218 1.270 . S
O229 Pr201 2.512 . S
O229 C218 1.248 . S
O230 Pr200 2.438 . S
O230 C219 1.267 . S
O231 Pr201 2.437 . S
O231 C219 1.278 . S
H232 C204 0.929 . S
H233 C205 0.929 1_545 S
H234 C207 0.931 . S
H235 C208 0.930 . S
H236 C213 0.929 . S
H237 C214 0.929 . S
H238 C216 0.931 . S
H239 C217 0.930 . S
Pr240 C242 2.880 . S
Pr240 O260 2.562 . S
Pr240 O261 2.490 . S
Pr240 O262 2.695 . S
Pr240 O263 2.512 . S
Pr240 O265 2.437 . S
Pr240 O268 2.436 . S
Pr240 O270 2.438 . S
Pr241 C251 2.880 . S
Pr241 O262 2.436 . S
Pr241 O264 2.438 . S
Pr241 O266 2.562 . S
Pr241 O267 2.490 . S
Pr241 O268 2.695 . S
Pr241 O269 2.512 . S
Pr241 O271 2.437 . S
C242 Pr240 2.880 . S
C242 C243 1.491 . S
C242 O260 1.254 . S
C242 O261 1.225 . S
C243 C242 1.491 . S
C243 C244 1.392 . S
C243 C248 1.356 . S
C244 C243 1.392 . S
C244 C245 1.368 . S
C244 H272 0.929 . S
C245 C244 1.368 . S
C245 C246 1.386 . S
C245 H273 0.929 . S
C246 C245 1.386 . S
C246 C247 1.373 . S
C247 C246 1.373 . S
C247 C248 1.409 . S
C247 H274 0.931 . S
C248 C243 1.356 . S
C248 C247 1.409 . S
C248 H275 0.930 . S
C249 O262 1.270 . S
C249 O263 1.248 . S
C250 O264 1.267 . S
C250 O265 1.278 . S
C251 Pr241 2.880 . S
C251 C252 1.491 . S
C251 O266 1.254 . S
C251 O267 1.225 . S
C252 C251 1.491 . S
C252 C253 1.392 . S
C252 C257 1.356 . S
C253 C252 1.392 . S
C253 C254 1.368 . S
C253 H276 0.929 . S
C254 C253 1.368 . S
C254 C255 1.386 . S
C254 H277 0.929 . S
C255 C254 1.386 . S
C255 C256 1.373 . S
C256 C255 1.373 . S
C256 C257 1.409 . S
C256 H278 0.931 . S
C257 C252 1.356 . S
C257 C256 1.409 . S
C257 H279 0.930 . S
C258 O268 1.270 . S
C258 O269 1.248 . S
C259 O270 1.267 . S
C259 O271 1.278 . S
O260 Pr240 2.562 . S
O260 C242 1.254 . S
O261 Pr240 2.490 . S
O261 C242 1.225 . S
O262 Pr240 2.695 . S
O262 Pr241 2.436 . S
O262 C249 1.270 . S
O263 Pr240 2.512 . S
O263 C249 1.248 . S
O264 Pr241 2.438 . S
O264 C250 1.267 . S
O265 Pr240 2.437 . S
O265 C250 1.278 . S
O266 Pr241 2.562 . S
O266 C251 1.254 . S
O267 Pr241 2.490 . S
O267 C251 1.225 . S
O268 Pr240 2.436 . S
O268 Pr241 2.695 . S
O268 C258 1.270 . S
O269 Pr241 2.512 . S
O269 C258 1.248 . S
O270 Pr240 2.438 . S
O270 C259 1.267 . S
O271 Pr241 2.437 . S
O271 C259 1.278 . S
H272 C244 0.929 . S
H273 C245 0.929 . S
H274 C247 0.931 . S
H275 C248 0.930 . S
H276 C253 0.929 . S
H277 C254 0.929 . S
H278 C256 0.931 . S
H279 C257 0.930 . S
Pr280 C282 2.880 1_556 S
Pr280 O300 2.562 1_556 S
Pr280 O301 2.490 . S
Pr280 O302 2.695 . S
Pr280 O303 2.512 . S
Pr280 O305 2.437 1_556 S
Pr280 O308 2.436 . S
Pr280 O310 2.438 . S
Pr281 C291 2.880 . S
Pr281 O302 2.436 . S
Pr281 O304 2.438 1_556 S
Pr281 O306 2.562 . S
Pr281 O307 2.490 . S
Pr281 O308 2.695 . S
Pr281 O309 2.512 . S
Pr281 O311 2.437 . S
C282 Pr280 2.880 1_554 S
C282 C283 1.491 . S
C282 O300 1.254 . S
C282 O301 1.225 1_554 S
C283 C282 1.491 . S
C283 C284 1.392 . S
C283 C288 1.356 . S
C284 C283 1.392 . S
C284 C285 1.368 . S
C284 H312 0.929 . S
C285 C284 1.368 . S
C285 C286 1.386 . S
C285 H313 0.929 1_545 S
C286 C285 1.386 . S
C286 C287 1.373 . S
C287 C286 1.373 . S
C287 C288 1.409 . S
C287 H314 0.931 . S
C288 C283 1.356 . S
C288 C287 1.409 . S
C288 H315 0.930 . S
C289 O302 1.270 . S
C289 O303 1.248 . S
C290 O304 1.267 . S
C290 O305 1.278 . S
C291 Pr281 2.880 . S
C291 C292 1.491 . S
C291 O306 1.254 . S
C291 O307 1.225 . S
C292 C291 1.491 . S
C292 C293 1.392 . S
C292 C297 1.356 . S
C293 C292 1.392 . S
C293 C294 1.368 . S
C293 H316 0.929 . S
C294 C293 1.368 . S
C294 C295 1.386 . S
C294 H317 0.929 . S
C295 C294 1.386 . S
C295 C296 1.373 . S
C296 C295 1.373 . S
C296 C297 1.409 . S
C296 H318 0.931 . S
C297 C292 1.356 . S
C297 C296 1.409 . S
C297 H319 0.930 . S
C298 O308 1.270 . S
C298 O309 1.248 . S
C299 O310 1.267 . S
C299 O311 1.278 . S
O300 Pr280 2.562 1_554 S
O300 C282 1.254 . S
O301 Pr280 2.490 . S
O301 C282 1.225 1_556 S
O302 Pr280 2.695 . S
O302 Pr281 2.436 . S
O302 C289 1.270 . S
O303 Pr280 2.512 . S
O303 C289 1.248 . S
O304 Pr281 2.438 1_554 S
O304 C290 1.267 . S
O305 Pr280 2.437 1_554 S
O305 C290 1.278 . S
O306 Pr281 2.562 . S
O306 C291 1.254 . S
O307 Pr281 2.490 . S
O307 C291 1.225 . S
O308 Pr280 2.436 . S
O308 Pr281 2.695 . S
O308 C298 1.270 . S
O309 Pr281 2.512 . S
O309 C298 1.248 . S
O310 Pr280 2.438 . S
O310 C299 1.267 . S
O311 Pr281 2.437 . S
O311 C299 1.278 . S
H312 C284 0.929 . S
H313 C285 0.929 1_565 S
H314 C287 0.931 . S
H315 C288 0.930 . S
H316 C293 0.929 . S
H317 C294 0.929 . S
H318 C296 0.931 . S
H319 C297 0.930 . S
Pr320 C322 2.880 . S
Pr320 O340 2.562 . S
Pr320 O341 2.490 . S
Pr320 O342 2.695 . S
Pr320 O343 2.512 . S
Pr320 O345 2.437 . S
Pr320 O348 2.436 . S
Pr320 O350 2.438 . S
Pr321 C331 2.880 . S
Pr321 O342 2.436 . S
Pr321 O344 2.438 . S
Pr321 O346 2.562 . S
Pr321 O347 2.490 . S
Pr321 O348 2.695 . S
Pr321 O349 2.512 . S
Pr321 O351 2.437 . S
C322 Pr320 2.880 . S
C322 C323 1.491 . S
C322 O340 1.254 . S
C322 O341 1.225 . S
C323 C322 1.491 . S
C323 C324 1.392 . S
C323 C328 1.356 . S
C324 C323 1.392 . S
C324 C325 1.368 . S
C324 H352 0.929 . S
C325 C324 1.368 . S
C325 C326 1.386 . S
C325 H353 0.929 . S
C326 C325 1.386 . S
C326 C327 1.373 . S
C327 C326 1.373 . S
C327 C328 1.409 . S
C327 H354 0.931 . S
C328 C323 1.356 . S
C328 C327 1.409 . S
C328 H355 0.930 . S
C329 O342 1.270 . S
C329 O343 1.248 . S
C330 O344 1.267 . S
C330 O345 1.278 . S
C331 Pr321 2.880 . S
C331 C332 1.491 . S
C331 O346 1.254 . S
C331 O347 1.225 . S
C332 C331 1.491 . S
C332 C333 1.392 . S
C332 C337 1.356 . S
C333 C332 1.392 . S
C333 C334 1.368 . S
C333 H356 0.929 . S
C334 C333 1.368 . S
C334 C335 1.386 . S
C334 H357 0.929 . S
C335 C334 1.386 . S
C335 C336 1.373 . S
C336 C335 1.373 . S
C336 C337 1.409 . S
C336 H358 0.931 . S
C337 C332 1.356 . S
C337 C336 1.409 . S
C337 H359 0.930 . S
C338 O348 1.270 . S
C338 O349 1.248 . S
C339 O350 1.267 . S
C339 O351 1.278 . S
O340 Pr320 2.562 . S
O340 C322 1.254 . S
O341 Pr320 2.490 . S
O341 C322 1.225 . S
O342 Pr320 2.695 . S
O342 Pr321 2.436 . S
O342 C329 1.270 . S
O343 Pr320 2.512 . S
O343 C329 1.248 . S
O344 Pr321 2.438 . S
O344 C330 1.267 . S
O345 Pr320 2.437 . S
O345 C330 1.278 . S
O346 Pr321 2.562 . S
O346 C331 1.254 . S
O347 Pr321 2.490 . S
O347 C331 1.225 . S
O348 Pr320 2.436 . S
O348 Pr321 2.695 . S
O348 C338 1.270 . S
O349 Pr321 2.512 . S
O349 C338 1.248 . S
O350 Pr320 2.438 . S
O350 C339 1.267 . S
O351 Pr321 2.437 . S
O351 C339 1.278 . S
H352 C324 0.929 . S
H353 C325 0.929 . S
H354 C327 0.931 . S
H355 C328 0.930 . S
H356 C333 0.929 . S
H357 C334 0.929 . S
H358 C336 0.931 . S
H359 C337 0.930 . S
Pr360 C362 2.880 . S
Pr360 O380 2.562 . S
Pr360 O381 2.490 . S
Pr360 O382 2.695 . S
Pr360 O383 2.512 . S
Pr360 O385 2.437 . S
Pr360 O388 2.436 . S
Pr360 O390 2.438 . S
Pr361 C371 2.880 . S
Pr361 O382 2.436 . S
Pr361 O384 2.438 . S
Pr361 O386 2.562 . S
Pr361 O387 2.490 . S
Pr361 O388 2.695 . S
Pr361 O389 2.512 . S
Pr361 O391 2.437 . S
C362 Pr360 2.880 . S
C362 C363 1.491 . S
C362 O380 1.254 . S
C362 O381 1.225 . S
C363 C362 1.491 . S
C363 C364 1.392 . S
C363 C368 1.356 . S
C364 C363 1.392 . S
C364 C365 1.368 . S
C364 H392 0.929 . S
C365 C364 1.368 . S
C365 C366 1.386 . S
C365 H393 0.929 . S
C366 C365 1.386 . S
C366 C367 1.373 . S
C367 C366 1.373 . S
C367 C368 1.409 . S
C367 H394 0.931 . S
C368 C363 1.356 . S
C368 C367 1.409 . S
C368 H395 0.930 . S
C369 O382 1.270 . S
C369 O383 1.248 . S
C370 O384 1.267 . S
C370 O385 1.278 . S
C371 Pr361 2.880 . S
C371 C372 1.491 . S
C371 O386 1.254 . S
C371 O387 1.225 . S
C372 C371 1.491 . S
C372 C373 1.392 . S
C372 C377 1.356 . S
C373 C372 1.392 . S
C373 C374 1.368 . S
C373 H396 0.929 . S
C374 C373 1.368 . S
C374 C375 1.386 . S
C374 H397 0.929 1_545 S
C375 C374 1.386 . S
C375 C376 1.373 . S
C376 C375 1.373 . S
C376 C377 1.409 . S
C376 H398 0.931 . S
C377 C372 1.356 . S
C377 C376 1.409 . S
C377 H399 0.930 . S
C378 O388 1.270 . S
C378 O389 1.248 . S
C379 O390 1.267 . S
C379 O391 1.278 . S
O380 Pr360 2.562 . S
O380 C362 1.254 . S
O381 Pr360 2.490 . S
O381 C362 1.225 . S
O382 Pr360 2.695 . S
O382 Pr361 2.436 . S
O382 C369 1.270 . S
O383 Pr360 2.512 . S
O383 C369 1.248 . S
O384 Pr361 2.438 . S
O384 C370 1.267 . S
O385 Pr360 2.437 . S
O385 C370 1.278 . S
O386 Pr361 2.562 . S
O386 C371 1.254 . S
O387 Pr361 2.490 . S
O387 C371 1.225 . S
O388 Pr360 2.436 . S
O388 Pr361 2.695 . S
O388 C378 1.270 . S
O389 Pr361 2.512 . S
O389 C378 1.248 . S
O390 Pr360 2.438 . S
O390 C379 1.267 . S
O391 Pr361 2.437 . S
O391 C379 1.278 . S
H392 C364 0.929 . S
H393 C365 0.929 . S
H394 C367 0.931 . S
H395 C368 0.930 . S
H396 C373 0.929 . S
H397 C374 0.929 1_565 S
H398 C376 0.931 . S
H399 C377 0.930 . S
Pr400 C402 2.880 . S
Pr400 O420 2.562 . S
Pr400 O421 2.490 . S
Pr400 O422 2.695 . S
Pr400 O423 2.512 . S
Pr400 O425 2.437 . S
Pr400 O428 2.436 . S
Pr400 O430 2.438 . S
Pr401 C411 2.880 . S
Pr401 O422 2.436 . S
Pr401 O424 2.438 . S
Pr401 O426 2.562 . S
Pr401 O427 2.490 . S
Pr401 O428 2.695 . S
Pr401 O429 2.512 . S
Pr401 O431 2.437 . S
C402 Pr400 2.880 . S
C402 C403 1.491 . S
C402 O420 1.254 . S
C402 O421 1.225 . S
C403 C402 1.491 . S
C403 C404 1.392 . S
C403 C408 1.356 . S
C404 C403 1.392 . S
C404 C405 1.368 . S
C404 H432 0.929 . S
C405 C404 1.368 . S
C405 C406 1.386 . S
C405 H433 0.929 . S
C406 C405 1.386 . S
C406 C407 1.373 . S
C407 C406 1.373 . S
C407 C408 1.409 . S
C407 H434 0.931 . S
C408 C403 1.356 . S
C408 C407 1.409 . S
C408 H435 0.930 . S
C409 O422 1.270 . S
C409 O423 1.248 . S
C410 O424 1.267 . S
C410 O425 1.278 . S
C411 Pr401 2.880 . S
C411 C412 1.491 . S
C411 O426 1.254 . S
C411 O427 1.225 . S
C412 C411 1.491 . S
C412 C413 1.392 . S
C412 C417 1.356 . S
C413 C412 1.392 . S
C413 C414 1.368 . S
C413 H436 0.929 . S
C414 C413 1.368 . S
C414 C415 1.386 . S
C414 H437 0.929 . S
C415 C414 1.386 . S
C415 C416 1.373 . S
C416 C415 1.373 . S
C416 C417 1.409 . S
C416 H438 0.931 . S
C417 C412 1.356 . S
C417 C416 1.409 . S
C417 H439 0.930 . S
C418 O428 1.270 . S
C418 O429 1.248 . S
C419 O430 1.267 . S
C419 O431 1.278 . S
O420 Pr400 2.562 . S
O420 C402 1.254 . S
O421 Pr400 2.490 . S
O421 C402 1.225 . S
O422 Pr400 2.695 . S
O422 Pr401 2.436 . S
O422 C409 1.270 . S
O423 Pr400 2.512 . S
O423 C409 1.248 . S
O424 Pr401 2.438 . S
O424 C410 1.267 . S
O425 Pr400 2.437 . S
O425 C410 1.278 . S
O426 Pr401 2.562 . S
O426 C411 1.254 . S
O427 Pr401 2.490 . S
O427 C411 1.225 . S
O428 Pr400 2.436 . S
O428 Pr401 2.695 . S
O428 C418 1.270 . S
O429 Pr401 2.512 . S
O429 C418 1.248 . S
O430 Pr400 2.438 . S
O430 C419 1.267 . S
O431 Pr401 2.437 . S
O431 C419 1.278 . S
H432 C404 0.929 . S
H433 C405 0.929 . S
H434 C407 0.931 . S
H435 C408 0.930 . S
H436 C413 0.929 . S
H437 C414 0.929 . S
H438 C416 0.931 . S
H439 C417 0.930 . S
Pr440 C442 2.880 . S
Pr440 O460 2.562 . S
Pr440 O461 2.490 . S
Pr440 O462 2.695 . S
Pr440 O463 2.512 . S
Pr440 O465 2.437 . S
Pr440 O468 2.436 . S
Pr440 O470 2.438 1_556 S
Pr441 C451 2.880 1_556 S
Pr441 O462 2.436 . S
Pr441 O464 2.438 . S
Pr441 O466 2.562 1_556 S
Pr441 O467 2.490 . S
Pr441 O468 2.695 . S
Pr441 O469 2.512 . S
Pr441 O471 2.437 1_556 S
C442 Pr440 2.880 . S
C442 C443 1.491 . S
C442 O460 1.254 . S
C442 O461 1.225 . S
C443 C442 1.491 . S
C443 C444 1.392 . S
C443 C448 1.356 . S
C444 C443 1.392 . S
C444 C445 1.368 . S
C444 H472 0.929 . S
C445 C444 1.368 . S
C445 C446 1.386 . S
C445 H473 0.929 . S
C446 C445 1.386 . S
C446 C447 1.373 . S
C447 C446 1.373 . S
C447 C448 1.409 . S
C447 H474 0.931 . S
C448 C443 1.356 . S
C448 C447 1.409 . S
C448 H475 0.930 . S
C449 O462 1.270 . S
C449 O463 1.248 . S
C450 O464 1.267 . S
C450 O465 1.278 . S
C451 Pr441 2.880 1_554 S
C451 C452 1.491 . S
C451 O466 1.254 . S
C451 O467 1.225 1_554 S
C452 C451 1.491 . S
C452 C453 1.392 . S
C452 C457 1.356 . S
C453 C452 1.392 . S
C453 C454 1.368 . S
C453 H476 0.929 . S
C454 C453 1.368 . S
C454 C455 1.386 . S
C454 H477 0.929 1_565 S
C455 C454 1.386 . S
C455 C456 1.373 . S
C456 C455 1.373 . S
C456 C457 1.409 . S
C456 H478 0.931 . S
C457 C452 1.356 . S
C457 C456 1.409 . S
C457 H479 0.930 . S
C458 O468 1.270 . S
C458 O469 1.248 . S
C459 O470 1.267 . S
C459 O471 1.278 . S
O460 Pr440 2.562 . S
O460 C442 1.254 . S
O461 Pr440 2.490 . S
O461 C442 1.225 . S
O462 Pr440 2.695 . S
O462 Pr441 2.436 . S
O462 C449 1.270 . S
O463 Pr440 2.512 . S
O463 C449 1.248 . S
O464 Pr441 2.438 . S
O464 C450 1.267 . S
O465 Pr440 2.437 . S
O465 C450 1.278 . S
O466 Pr441 2.562 1_554 S
O466 C451 1.254 . S
O467 Pr441 2.490 . S
O467 C451 1.225 1_556 S
O468 Pr440 2.436 . S
O468 Pr441 2.695 . S
O468 C458 1.270 . S
O469 Pr441 2.512 . S
O469 C458 1.248 . S
O470 Pr440 2.438 1_554 S
O470 C459 1.267 . S
O471 Pr441 2.437 1_554 S
O471 C459 1.278 . S
H472 C444 0.929 . S
H473 C445 0.929 . S
H474 C447 0.931 . S
H475 C448 0.930 . S
H476 C453 0.929 . S
H477 C454 0.929 1_545 S
H478 C456 0.931 . S
H479 C457 0.930 . S
Pr480 C482 2.880 . S
Pr480 O500 2.562 . S
Pr480 O501 2.490 . S
Pr480 O502 2.695 . S
Pr480 O503 2.512 . S
Pr480 O505 2.437 . S
Pr480 O508 2.436 . S
Pr480 O510 2.438 . S
Pr481 C491 2.880 . S
Pr481 O502 2.436 . S
Pr481 O504 2.438 . S
Pr481 O506 2.562 . S
Pr481 O507 2.490 . S
Pr481 O508 2.695 . S
Pr481 O509 2.512 . S
Pr481 O511 2.437 . S
C482 Pr480 2.880 . S
C482 C483 1.491 . S
C482 O500 1.254 . S
C482 O501 1.225 . S
C483 C482 1.491 . S
C483 C484 1.392 . S
C483 C488 1.356 . S
C484 C483 1.392 . S
C484 C485 1.368 . S
C484 H512 0.929 . S
C485 C484 1.368 . S
C485 C486 1.386 . S
C485 H513 0.929 . S
C486 C485 1.386 . S
C486 C487 1.373 . S
C487 C486 1.373 . S
C487 C488 1.409 . S
C487 H514 0.931 . S
C488 C483 1.356 . S
C488 C487 1.409 . S
C488 H515 0.930 . S
C489 O502 1.270 . S
C489 O503 1.248 . S
C490 O504 1.267 . S
C490 O505 1.278 . S
C491 Pr481 2.880 . S
C491 C492 1.491 . S
C491 O506 1.254 . S
C491 O507 1.225 . S
C492 C491 1.491 . S
C492 C493 1.392 . S
C492 C497 1.356 . S
C493 C492 1.392 . S
C493 C494 1.368 . S
C493 H516 0.929 . S
C494 C493 1.368 . S
C494 C495 1.386 . S
C494 H517 0.929 . S
C495 C494 1.386 . S
C495 C496 1.373 . S
C496 C495 1.373 . S
C496 C497 1.409 . S
C496 H518 0.931 . S
C497 C492 1.356 . S
C497 C496 1.409 . S
C497 H519 0.930 . S
C498 O508 1.270 . S
C498 O509 1.248 . S
C499 O510 1.267 . S
C499 O511 1.278 . S
O500 Pr480 2.562 . S
O500 C482 1.254 . S
O501 Pr480 2.490 . S
O501 C482 1.225 . S
O502 Pr480 2.695 . S
O502 Pr481 2.436 . S
O502 C489 1.270 . S
O503 Pr480 2.512 . S
O503 C489 1.248 . S
O504 Pr481 2.438 . S
O504 C490 1.267 . S
O505 Pr480 2.437 . S
O505 C490 1.278 . S
O506 Pr481 2.562 . S
O506 C491 1.254 . S
O507 Pr481 2.490 . S
O507 C491 1.225 . S
O508 Pr480 2.436 . S
O508 Pr481 2.695 . S
O508 C498 1.270 . S
O509 Pr481 2.512 . S
O509 C498 1.248 . S
O510 Pr480 2.438 . S
O510 C499 1.267 . S
O511 Pr481 2.437 . S
O511 C499 1.278 . S
H512 C484 0.929 . S
H513 C485 0.929 . S
H514 C487 0.931 . S
H515 C488 0.930 . S
H516 C493 0.929 . S
H517 C494 0.929 . S
H518 C496 0.931 . S
H519 C497 0.930 . S
Pr520 C522 2.880 . S
Pr520 O540 2.562 . S
Pr520 O541 2.490 . S
Pr520 O542 2.695 . S
Pr520 O543 2.512 . S
Pr520 O545 2.437 . S
Pr520 O548 2.436 . S
Pr520 O550 2.438 . S
Pr521 C531 2.880 . S
Pr521 O542 2.436 . S
Pr521 O544 2.438 . S
Pr521 O546 2.562 . S
Pr521 O547 2.490 . S
Pr521 O548 2.695 . S
Pr521 O549 2.512 . S
Pr521 O551 2.437 . S
C522 Pr520 2.880 . S
C522 C523 1.491 . S
C522 O540 1.254 . S
C522 O541 1.225 . S
C523 C522 1.491 . S
C523 C524 1.392 . S
C523 C528 1.356 . S
C524 C523 1.392 . S
C524 C525 1.368 . S
C524 H552 0.929 . S
C525 C524 1.368 . S
C525 C526 1.386 . S
C525 H553 0.929 . S
C526 C525 1.386 . S
C526 C527 1.373 . S
C527 C526 1.373 . S
C527 C528 1.409 . S
C527 H554 0.931 . S
C528 C523 1.356 . S
C528 C527 1.409 . S
C528 H555 0.930 . S
C529 O542 1.270 . S
C529 O543 1.248 . S
C530 O544 1.267 . S
C530 O545 1.278 . S
C531 Pr521 2.880 . S
C531 C532 1.491 . S
C531 O546 1.254 . S
C531 O547 1.225 . S
C532 C531 1.491 . S
C532 C533 1.392 . S
C532 C537 1.356 . S
C533 C532 1.392 . S
C533 C534 1.368 . S
C533 H556 0.929 . S
C534 C533 1.368 . S
C534 C535 1.386 . S
C534 H557 0.929 1_545 S
C535 C534 1.386 . S
C535 C536 1.373 . S
C536 C535 1.373 . S
C536 C537 1.409 . S
C536 H558 0.931 . S
C537 C532 1.356 . S
C537 C536 1.409 . S
C537 H559 0.930 . S
C538 O548 1.270 . S
C538 O549 1.248 . S
C539 O550 1.267 . S
C539 O551 1.278 . S
O540 Pr520 2.562 . S
O540 C522 1.254 . S
O541 Pr520 2.490 . S
O541 C522 1.225 . S
O542 Pr520 2.695 . S
O542 Pr521 2.436 . S
O542 C529 1.270 . S
O543 Pr520 2.512 . S
O543 C529 1.248 . S
O544 Pr521 2.438 . S
O544 C530 1.267 . S
O545 Pr520 2.437 . S
O545 C530 1.278 . S
O546 Pr521 2.562 . S
O546 C531 1.254 . S
O547 Pr521 2.490 . S
O547 C531 1.225 . S
O548 Pr520 2.436 . S
O548 Pr521 2.695 . S
O548 C538 1.270 . S
O549 Pr521 2.512 . S
O549 C538 1.248 . S
O550 Pr520 2.438 . S
O550 C539 1.267 . S
O551 Pr521 2.437 . S
O551 C539 1.278 . S
H552 C524 0.929 . S
H553 C525 0.929 . S
H554 C527 0.931 . S
H555 C528 0.930 . S
H556 C533 0.929 . S
H557 C534 0.929 1_565 S
H558 C536 0.931 . S
H559 C537 0.930 . S
Pr560 C562 2.880 . S
Pr560 O580 2.562 . S
Pr560 O581 2.490 . S
Pr560 O582 2.695 . S
Pr560 O583 2.512 . S
Pr560 O585 2.437 . S
Pr560 O588 2.436 . S
Pr560 O590 2.438 . S
Pr561 C571 2.880 . S
Pr561 O582 2.436 . S
Pr561 O584 2.438 . S
Pr561 O586 2.562 . S
Pr561 O587 2.490 . S
Pr561 O588 2.695 . S
Pr561 O589 2.512 . S
Pr561 O591 2.437 . S
C562 Pr560 2.880 . S
C562 C563 1.491 . S
C562 O580 1.254 . S
C562 O581 1.225 . S
C563 C562 1.491 . S
C563 C564 1.392 . S
C563 C568 1.356 . S
C564 C563 1.392 . S
C564 C565 1.368 . S
C564 H592 0.929 . S
C565 C564 1.368 . S
C565 C566 1.386 . S
C565 H593 0.929 . S
C566 C565 1.386 . S
C566 C567 1.373 . S
C567 C566 1.373 . S
C567 C568 1.409 . S
C567 H594 0.931 . S
C568 C563 1.356 . S
C568 C567 1.409 . S
C568 H595 0.930 . S
C569 O582 1.270 . S
C569 O583 1.248 . S
C570 O584 1.267 . S
C570 O585 1.278 . S
C571 Pr561 2.880 . S
C571 C572 1.491 . S
C571 O586 1.254 . S
C571 O587 1.225 . S
C572 C571 1.491 . S
C572 C573 1.392 . S
C572 C577 1.356 . S
C573 C572 1.392 . S
C573 C574 1.368 . S
C573 H596 0.929 . S
C574 C573 1.368 . S
C574 C575 1.386 . S
C574 H597 0.929 . S
C575 C574 1.386 . S
C575 C576 1.373 . S
C576 C575 1.373 . S
C576 C577 1.409 . S
C576 H598 0.931 . S
C577 C572 1.356 . S
C577 C576 1.409 . S
C577 H599 0.930 . S
C578 O588 1.270 . S
C578 O589 1.248 . S
C579 O590 1.267 . S
C579 O591 1.278 . S
O580 Pr560 2.562 . S
O580 C562 1.254 . S
O581 Pr560 2.490 . S
O581 C562 1.225 . S
O582 Pr560 2.695 . S
O582 Pr561 2.436 . S
O582 C569 1.270 . S
O583 Pr560 2.512 . S
O583 C569 1.248 . S
O584 Pr561 2.438 . S
O584 C570 1.267 . S
O585 Pr560 2.437 . S
O585 C570 1.278 . S
O586 Pr561 2.562 . S
O586 C571 1.254 . S
O587 Pr561 2.490 . S
O587 C571 1.225 . S
O588 Pr560 2.436 . S
O588 Pr561 2.695 . S
O588 C578 1.270 . S
O589 Pr561 2.512 . S
O589 C578 1.248 . S
O590 Pr560 2.438 . S
O590 C579 1.267 . S
O591 Pr561 2.437 . S
O591 C579 1.278 . S
H592 C564 0.929 . S
H593 C565 0.929 . S
H594 C567 0.931 . S
H595 C568 0.930 . S
H596 C573 0.929 . S
H597 C574 0.929 . S
H598 C576 0.931 . S
H599 C577 0.930 . S
Pr600 C602 2.880 . S
Pr600 O620 2.562 . S
Pr600 O621 2.490 . S
Pr600 O622 2.695 . S
Pr600 O623 2.512 . S
Pr600 O625 2.437 . S
Pr600 O628 2.436 . S
Pr600 O630 2.438 1_554 S
Pr601 C611 2.880 1_554 S
Pr601 O622 2.436 . S
Pr601 O624 2.438 . S
Pr601 O626 2.562 1_554 S
Pr601 O627 2.490 . S
Pr601 O628 2.695 . S
Pr601 O629 2.512 . S
Pr601 O631 2.437 1_554 S
C602 Pr600 2.880 . S
C602 C603 1.491 . S
C602 O620 1.254 . S
C602 O621 1.225 . S
C603 C602 1.491 . S
C603 C604 1.392 . S
C603 C608 1.356 . S
C604 C603 1.392 . S
C604 C605 1.368 . S
C604 H632 0.929 . S
C605 C604 1.368 . S
C605 C606 1.386 . S
C605 H633 0.929 . S
C606 C605 1.386 . S
C606 C607 1.373 . S
C607 C606 1.373 . S
C607 C608 1.409 . S
C607 H634 0.931 . S
C608 C603 1.356 . S
C608 C607 1.409 . S
C608 H635 0.930 . S
C609 O622 1.270 . S
C609 O623 1.248 . S
C610 O624 1.267 . S
C610 O625 1.278 . S
C611 Pr601 2.880 1_556 S
C611 C612 1.491 . S
C611 O626 1.254 . S
C611 O627 1.225 1_556 S
C612 C611 1.491 . S
C612 C613 1.392 . S
C612 C617 1.356 . S
C613 C612 1.392 . S
C613 C614 1.368 . S
C613 H636 0.929 . S
C614 C613 1.368 . S
C614 C615 1.386 . S
C614 H637 0.929 1_565 S
C615 C614 1.386 . S
C615 C616 1.373 . S
C616 C615 1.373 . S
C616 C617 1.409 . S
C616 H638 0.931 . S
C617 C612 1.356 . S
C617 C616 1.409 . S
C617 H639 0.930 . S
C618 O628 1.270 . S
C618 O629 1.248 . S
C619 O630 1.267 . S
C619 O631 1.278 . S
O620 Pr600 2.562 . S
O620 C602 1.254 . S
O621 Pr600 2.490 . S
O621 C602 1.225 . S
O622 Pr600 2.695 . S
O622 Pr601 2.436 . S
O622 C609 1.270 . S
O623 Pr600 2.512 . S
O623 C609 1.248 . S
O624 Pr601 2.438 . S
O624 C610 1.267 . S
O625 Pr600 2.437 . S
O625 C610 1.278 . S
O626 Pr601 2.562 1_556 S
O626 C611 1.254 . S
O627 Pr601 2.490 . S
O627 C611 1.225 1_554 S
O628 Pr600 2.436 . S
O628 Pr601 2.695 . S
O628 C618 1.270 . S
O629 Pr601 2.512 . S
O629 C618 1.248 . S
O630 Pr600 2.438 1_556 S
O630 C619 1.267 . S
O631 Pr601 2.437 1_556 S
O631 C619 1.278 . S
H632 C604 0.929 . S
H633 C605 0.929 . S
H634 C607 0.931 . S
H635 C608 0.930 . S
H636 C613 0.929 . S
H637 C614 0.929 1_545 S
H638 C616 0.931 . S
H639 C617 0.930 . S
Pr640 C642 2.880 . S
Pr640 O660 2.562 . S
Pr640 O661 2.490 . S
Pr640 O662 2.695 . S
Pr640 O663 2.512 . S
Pr640 O665 2.437 . S
Pr640 O668 2.436 . S
Pr640 O670 2.438 . S
Pr641 C651 2.880 . S
Pr641 O662 2.436 . S
Pr641 O664 2.438 . S
Pr641 O666 2.562 . S
Pr641 O667 2.490 . S
Pr641 O668 2.695 . S
Pr641 O669 2.512 . S
Pr641 O671 2.437 . S
C642 Pr640 2.880 . S
C642 C643 1.491 . S
C642 O660 1.254 . S
C642 O661 1.225 . S
C643 C642 1.491 . S
C643 C644 1.392 . S
C643 C648 1.356 . S
C644 C643 1.392 . S
C644 C645 1.368 . S
C644 H672 0.929 . S
C645 C644 1.368 . S
C645 C646 1.386 . S
C645 H673 0.929 . S
C646 C645 1.386 . S
C646 C647 1.373 . S
C647 C646 1.373 . S
C647 C648 1.409 . S
C647 H674 0.931 . S
C648 C643 1.356 . S
C648 C647 1.409 . S
C648 H675 0.930 . S
C649 O662 1.270 . S
C649 O663 1.248 . S
C650 O664 1.267 . S
C650 O665 1.278 . S
C651 Pr641 2.880 . S
C651 C652 1.491 . S
C651 O666 1.254 . S
C651 O667 1.225 . S
C652 C651 1.491 . S
C652 C653 1.392 . S
C652 C657 1.356 . S
C653 C652 1.392 . S
C653 C654 1.368 . S
C653 H676 0.929 . S
C654 C653 1.368 . S
C654 C655 1.386 . S
C654 H677 0.929 . S
C655 C654 1.386 . S
C655 C656 1.373 . S
C656 C655 1.373 . S
C656 C657 1.409 . S
C656 H678 0.931 . S
C657 C652 1.356 . S
C657 C656 1.409 . S
C657 H679 0.930 . S
C658 O668 1.270 . S
C658 O669 1.248 . S
C659 O670 1.267 . S
C659 O671 1.278 . S
O660 Pr640 2.562 . S
O660 C642 1.254 . S
O661 Pr640 2.490 . S
O661 C642 1.225 . S
O662 Pr640 2.695 . S
O662 Pr641 2.436 . S
O662 C649 1.270 . S
O663 Pr640 2.512 . S
O663 C649 1.248 . S
O664 Pr641 2.438 . S
O664 C650 1.267 . S
O665 Pr640 2.437 . S
O665 C650 1.278 . S
O666 Pr641 2.562 . S
O666 C651 1.254 . S
O667 Pr641 2.490 . S
O667 C651 1.225 . S
O668 Pr640 2.436 . S
O668 Pr641 2.695 . S
O668 C658 1.270 . S
O669 Pr641 2.512 . S
O669 C658 1.248 . S
O670 Pr640 2.438 . S
O670 C659 1.267 . S
O671 Pr641 2.437 . S
O671 C659 1.278 . S
H672 C644 0.929 . S
H673 C645 0.929 . S
H674 C647 0.931 . S
H675 C648 0.930 . S
H676 C653 0.929 . S
H677 C654 0.929 . S
H678 C656 0.931 . S
H679 C657 0.930 . S
Pr680 C682 2.880 1_554 S
Pr680 O700 2.562 1_554 S
Pr680 O701 2.490 . S
Pr680 O702 2.695 . S
Pr680 O703 2.512 . S
Pr680 O705 2.437 1_554 S
Pr680 O708 2.436 . S
Pr680 O710 2.438 . S
Pr681 C691 2.880 . S
Pr681 O702 2.436 . S
Pr681 O704 2.438 1_554 S
Pr681 O706 2.562 . S
Pr681 O707 2.490 . S
Pr681 O708 2.695 . S
Pr681 O709 2.512 . S
Pr681 O711 2.437 . S
C682 Pr680 2.880 1_556 S
C682 C683 1.491 . S
C682 O700 1.254 . S
C682 O701 1.225 1_556 S
C683 C682 1.491 . S
C683 C684 1.392 . S
C683 C688 1.356 . S
C684 C683 1.392 . S
C684 C685 1.368 . S
C684 H712 0.929 . S
C685 C684 1.368 . S
C685 C686 1.386 . S
C685 H713 0.929 . S
C686 C685 1.386 . S
C686 C687 1.373 . S
C687 C686 1.373 . S
C687 C688 1.409 . S
C687 H714 0.931 . S
C688 C683 1.356 . S
C688 C687 1.409 . S
C688 H715 0.930 . S
C689 O702 1.270 . S
C689 O703 1.248 . S
C690 O704 1.267 . S
C690 O705 1.278 . S
C691 Pr681 2.880 . S
C691 C692 1.491 . S
C691 O706 1.254 . S
C691 O707 1.225 . S
C692 C691 1.491 . S
C692 C693 1.392 . S
C692 C697 1.356 . S
C693 C692 1.392 . S
C693 C694 1.368 . S
C693 H716 0.929 . S
C694 C693 1.368 . S
C694 C695 1.386 . S
C694 H717 0.929 . S
C695 C694 1.386 . S
C695 C696 1.373 . S
C696 C695 1.373 . S
C696 C697 1.409 . S
C696 H718 0.931 . S
C697 C692 1.356 . S
C697 C696 1.409 . S
C697 H719 0.930 . S
C698 O708 1.270 . S
C698 O709 1.248 . S
C699 O710 1.267 . S
C699 O711 1.278 . S
O700 Pr680 2.562 1_556 S
O700 C682 1.254 . S
O701 Pr680 2.490 . S
O701 C682 1.225 1_554 S
O702 Pr680 2.695 . S
O702 Pr681 2.436 . S
O702 C689 1.270 . S
O703 Pr680 2.512 . S
O703 C689 1.248 . S
O704 Pr681 2.438 1_556 S
O704 C690 1.267 . S
O705 Pr680 2.437 1_556 S
O705 C690 1.278 . S
O706 Pr681 2.562 . S
O706 C691 1.254 . S
O707 Pr681 2.490 . S
O707 C691 1.225 . S
O708 Pr680 2.436 . S
O708 Pr681 2.695 . S
O708 C698 1.270 . S
O709 Pr681 2.512 . S
O709 C698 1.248 . S
O710 Pr680 2.438 . S
O710 C699 1.267 . S
O711 Pr681 2.437 . S
O711 C699 1.278 . S
H712 C684 0.929 . S
H713 C685 0.929 . S
H714 C687 0.931 . S
H715 C688 0.930 . S
H716 C693 0.929 . S
H717 C694 0.929 . S
H718 C696 0.931 . S
H719 C697 0.930 . S
Pr720 C722 2.880 . S
Pr720 O740 2.562 . S
Pr720 O741 2.490 . S
Pr720 O742 2.695 . S
Pr720 O743 2.512 . S
Pr720 O745 2.437 . S
Pr720 O748 2.436 . S
Pr720 O750 2.438 . S
Pr721 C731 2.880 . S
Pr721 O742 2.436 . S
Pr721 O744 2.438 . S
Pr721 O746 2.562 . S
Pr721 O747 2.490 . S
Pr721 O748 2.695 . S
Pr721 O749 2.512 . S
Pr721 O751 2.437 . S
C722 Pr720 2.880 . S
C722 C723 1.491 . S
C722 O740 1.254 . S
C722 O741 1.225 . S
C723 C722 1.491 . S
C723 C724 1.392 . S
C723 C728 1.356 . S
C724 C723 1.392 . S
C724 C725 1.368 . S
C724 H752 0.929 . S
C725 C724 1.368 . S
C725 C726 1.386 . S
C725 H753 0.929 . S
C726 C725 1.386 . S
C726 C727 1.373 . S
C727 C726 1.373 . S
C727 C728 1.409 . S
C727 H754 0.931 . S
C728 C723 1.356 . S
C728 C727 1.409 . S
C728 H755 0.930 . S
C729 O742 1.270 . S
C729 O743 1.248 . S
C730 O744 1.267 . S
C730 O745 1.278 . S
C731 Pr721 2.880 . S
C731 C732 1.491 . S
C731 O746 1.254 . S
C731 O747 1.225 . S
C732 C731 1.491 . S
C732 C733 1.392 . S
C732 C737 1.356 . S
C733 C732 1.392 . S
C733 C734 1.368 . S
C733 H756 0.929 . S
C734 C733 1.368 . S
C734 C735 1.386 . S
C734 H757 0.929 . S
C735 C734 1.386 . S
C735 C736 1.373 . S
C736 C735 1.373 . S
C736 C737 1.409 . S
C736 H758 0.931 . S
C737 C732 1.356 . S
C737 C736 1.409 . S
C737 H759 0.930 . S
C738 O748 1.270 . S
C738 O749 1.248 . S
C739 O750 1.267 . S
C739 O751 1.278 . S
O740 Pr720 2.562 . S
O740 C722 1.254 . S
O741 Pr720 2.490 . S
O741 C722 1.225 . S
O742 Pr720 2.695 . S
O742 Pr721 2.436 . S
O742 C729 1.270 . S
O743 Pr720 2.512 . S
O743 C729 1.248 . S
O744 Pr721 2.438 . S
O744 C730 1.267 . S
O745 Pr720 2.437 . S
O745 C730 1.278 . S
O746 Pr721 2.562 . S
O746 C731 1.254 . S
O747 Pr721 2.490 . S
O747 C731 1.225 . S
O748 Pr720 2.436 . S
O748 Pr721 2.695 . S
O748 C738 1.270 . S
O749 Pr721 2.512 . S
O749 C738 1.248 . S
O750 Pr720 2.438 . S
O750 C739 1.267 . S
O751 Pr721 2.437 . S
O751 C739 1.278 . S
H752 C724 0.929 . S
H753 C725 0.929 . S
H754 C727 0.931 . S
H755 C728 0.930 . S
H756 C733 0.929 . S
H757 C734 0.929 . S
H758 C736 0.931 . S
H759 C737 0.930 . S
Pr760 C762 2.880 . S
Pr760 O780 2.562 . S
Pr760 O781 2.490 . S
Pr760 O782 2.695 . S
Pr760 O783 2.512 . S
Pr760 O785 2.437 . S
Pr760 O788 2.436 . S
Pr760 O790 2.438 . S
Pr761 C771 2.880 . S
Pr761 O782 2.436 . S
Pr761 O784 2.438 . S
Pr761 O786 2.562 . S
Pr761 O787 2.490 . S
Pr761 O788 2.695 . S
Pr761 O789 2.512 . S
Pr761 O791 2.437 . S
C762 Pr760 2.880 . S
C762 C763 1.491 . S
C762 O780 1.254 . S
C762 O781 1.225 . S
C763 C762 1.491 . S
C763 C764 1.392 . S
C763 C768 1.356 . S
C764 C763 1.392 . S
C764 C765 1.368 . S
C764 H792 0.929 . S
C765 C764 1.368 . S
C765 C766 1.386 . S
C765 H793 0.929 . S
C766 C765 1.386 . S
C766 C767 1.373 . S
C767 C766 1.373 . S
C767 C768 1.409 . S
C767 H794 0.931 . S
C768 C763 1.356 . S
C768 C767 1.409 . S
C768 H795 0.930 . S
C769 O782 1.270 . S
C769 O783 1.248 . S
C770 O784 1.267 . S
C770 O785 1.278 . S
C771 Pr761 2.880 . S
C771 C772 1.491 . S
C771 O786 1.254 . S
C771 O787 1.225 . S
C772 C771 1.491 . S
C772 C773 1.392 . S
C772 C777 1.356 . S
C773 C772 1.392 . S
C773 C774 1.368 . S
C773 H796 0.929 . S
C774 C773 1.368 . S
C774 C775 1.386 . S
C774 H797 0.929 . S
C775 C774 1.386 . S
C775 C776 1.373 . S
C776 C775 1.373 . S
C776 C777 1.409 . S
C776 H798 0.931 . S
C777 C772 1.356 . S
C777 C776 1.409 . S
C777 H799 0.930 . S
C778 O788 1.270 . S
C778 O789 1.248 . S
C779 O790 1.267 . S
C779 O791 1.278 . S
O780 Pr760 2.562 . S
O780 C762 1.254 . S
O781 Pr760 2.490 . S
O781 C762 1.225 . S
O782 Pr760 2.695 . S
O782 Pr761 2.436 . S
O782 C769 1.270 . S
O783 Pr760 2.512 . S
O783 C769 1.248 . S
O784 Pr761 2.438 . S
O784 C770 1.267 . S
O785 Pr760 2.437 . S
O785 C770 1.278 . S
O786 Pr761 2.562 . S
O786 C771 1.254 . S
O787 Pr761 2.490 . S
O787 C771 1.225 . S
O788 Pr760 2.436 . S
O788 Pr761 2.695 . S
O788 C778 1.270 . S
O789 Pr761 2.512 . S
O789 C778 1.248 . S
O790 Pr760 2.438 . S
O790 C779 1.267 . S
O791 Pr761 2.437 . S
O791 C779 1.278 . S
H792 C764 0.929 . S
H793 C765 0.929 . S
H794 C767 0.931 . S
H795 C768 0.930 . S
H796 C773 0.929 . S
H797 C774 0.929 . S
H798 C776 0.931 . S
H799 C777 0.930 . S
Pr800 C802 2.880 . S
Pr800 O820 2.562 . S
Pr800 O821 2.490 . S
Pr800 O822 2.695 . S
Pr800 O823 2.512 . S
Pr800 O825 2.437 . S
Pr800 O828 2.436 . S
Pr800 O830 2.438 . S
Pr801 C811 2.880 . S
Pr801 O822 2.436 . S
Pr801 O824 2.438 . S
Pr801 O826 2.562 . S
Pr801 O827 2.490 . S
Pr801 O828 2.695 . S
Pr801 O829 2.512 . S
Pr801 O831 2.437 . S
C802 Pr800 2.880 . S
C802 C803 1.491 . S
C802 O820 1.254 . S
C802 O821 1.225 . S
C803 C802 1.491 . S
C803 C804 1.392 . S
C803 C808 1.356 . S
C804 C803 1.392 . S
C804 C805 1.368 . S
C804 H832 0.929 . S
C805 C804 1.368 . S
C805 C806 1.386 . S
C805 H833 0.929 . S
C806 C805 1.386 . S
C806 C807 1.373 . S
C807 C806 1.373 . S
C807 C808 1.409 . S
C807 H834 0.931 . S
C808 C803 1.356 . S
C808 C807 1.409 . S
C808 H835 0.930 . S
C809 O822 1.270 . S
C809 O823 1.248 . S
C810 O824 1.267 . S
C810 O825 1.278 . S
C811 Pr801 2.880 . S
C811 C812 1.491 . S
C811 O826 1.254 . S
C811 O827 1.225 . S
C812 C811 1.491 . S
C812 C813 1.392 . S
C812 C817 1.356 . S
C813 C812 1.392 . S
C813 C814 1.368 . S
C813 H836 0.929 . S
C814 C813 1.368 . S
C814 C815 1.386 . S
C814 H837 0.929 . S
C815 C814 1.386 . S
C815 C816 1.373 . S
C816 C815 1.373 . S
C816 C817 1.409 . S
C816 H838 0.931 . S
C817 C812 1.356 . S
C817 C816 1.409 . S
C817 H839 0.930 . S
C818 O828 1.270 . S
C818 O829 1.248 . S
C819 O830 1.267 . S
C819 O831 1.278 . S
O820 Pr800 2.562 . S
O820 C802 1.254 . S
O821 Pr800 2.490 . S
O821 C802 1.225 . S
O822 Pr800 2.695 . S
O822 Pr801 2.436 . S
O822 C809 1.270 . S
O823 Pr800 2.512 . S
O823 C809 1.248 . S
O824 Pr801 2.438 . S
O824 C810 1.267 . S
O825 Pr800 2.437 . S
O825 C810 1.278 . S
O826 Pr801 2.562 . S
O826 C811 1.254 . S
O827 Pr801 2.490 . S
O827 C811 1.225 . S
O828 Pr800 2.436 . S
O828 Pr801 2.695 . S
O828 C818 1.270 . S
O829 Pr801 2.512 . S
O829 C818 1.248 . S
O830 Pr800 2.438 . S
O830 C819 1.267 . S
O831 Pr801 2.437 . S
O831 C819 1.278 . S
H832 C804 0.929 . S
H833 C805 0.929 . S
H834 C807 0.931 . S
H835 C808 0.930 . S
H836 C813 0.929 . S
H837 C814 0.929 . S
H838 C816 0.931 . S
H839 C817 0.930 . S
Pr840 C842 2.880 1_556 S
Pr840 O860 2.562 1_556 S
Pr840 O861 2.490 . S
Pr840 O862 2.695 . S
Pr840 O863 2.512 . S
Pr840 O865 2.437 1_556 S
Pr840 O868 2.436 . S
Pr840 O870 2.438 . S
Pr841 C851 2.880 . S
Pr841 O862 2.436 . S
Pr841 O864 2.438 1_556 S
Pr841 O866 2.562 . S
Pr841 O867 2.490 . S
Pr841 O868 2.695 . S
Pr841 O869 2.512 . S
Pr841 O871 2.437 . S
C842 Pr840 2.880 1_554 S
C842 C843 1.491 . S
C842 O860 1.254 . S
C842 O861 1.225 1_554 S
C843 C842 1.491 . S
C843 C844 1.392 . S
C843 C848 1.356 . S
C844 C843 1.392 . S
C844 C845 1.368 . S
C844 H872 0.929 . S
C845 C844 1.368 . S
C845 C846 1.386 . S
C845 H873 0.929 . S
C846 C845 1.386 . S
C846 C847 1.373 . S
C847 C846 1.373 . S
C847 C848 1.409 . S
C847 H874 0.931 . S
C848 C843 1.356 . S
C848 C847 1.409 . S
C848 H875 0.930 . S
C849 O862 1.270 . S
C849 O863 1.248 . S
C850 O864 1.267 . S
C850 O865 1.278 . S
C851 Pr841 2.880 . S
C851 C852 1.491 . S
C851 O866 1.254 . S
C851 O867 1.225 . S
C852 C851 1.491 . S
C852 C853 1.392 . S
C852 C857 1.356 . S
C853 C852 1.392 . S
C853 C854 1.368 . S
C853 H876 0.929 . S
C854 C853 1.368 . S
C854 C855 1.386 . S
C854 H877 0.929 . S
C855 C854 1.386 . S
C855 C856 1.373 . S
C856 C855 1.373 . S
C856 C857 1.409 . S
C856 H878 0.931 . S
C857 C852 1.356 . S
C857 C856 1.409 . S
C857 H879 0.930 . S
C858 O868 1.270 . S
C858 O869 1.248 . S
C859 O870 1.267 . S
C859 O871 1.278 . S
O860 Pr840 2.562 1_554 S
O860 C842 1.254 . S
O861 Pr840 2.490 . S
O861 C842 1.225 1_556 S
O862 Pr840 2.695 . S
O862 Pr841 2.436 . S
O862 C849 1.270 . S
O863 Pr840 2.512 . S
O863 C849 1.248 . S
O864 Pr841 2.438 1_554 S
O864 C850 1.267 . S
O865 Pr840 2.437 1_554 S
O865 C850 1.278 . S
O866 Pr841 2.562 . S
O866 C851 1.254 . S
O867 Pr841 2.490 . S
O867 C851 1.225 . S
O868 Pr840 2.436 . S
O868 Pr841 2.695 . S
O868 C858 1.270 . S
O869 Pr841 2.512 . S
O869 C858 1.248 . S
O870 Pr840 2.438 . S
O870 C859 1.267 . S
O871 Pr841 2.437 . S
O871 C859 1.278 . S
H872 C844 0.929 . S
H873 C845 0.929 . S
H874 C847 0.931 . S
H875 C848 0.930 . S
H876 C853 0.929 . S
H877 C854 0.929 . S
H878 C856 0.931 . S
H879 C857 0.930 . S
Pr880 C882 2.880 . S
Pr880 O900 2.562 . S
Pr880 O901 2.490 . S
Pr880 O902 2.695 . S
Pr880 O903 2.512 . S
Pr880 O905 2.437 . S
Pr880 O908 2.436 . S
Pr880 O910 2.438 . S
Pr881 C891 2.880 . S
Pr881 O902 2.436 . S
Pr881 O904 2.438 . S
Pr881 O906 2.562 . S
Pr881 O907 2.490 . S
Pr881 O908 2.695 . S
Pr881 O909 2.512 . S
Pr881 O911 2.437 . S
C882 Pr880 2.880 . S
C882 C883 1.491 . S
C882 O900 1.254 . S
C882 O901 1.225 . S
C883 C882 1.491 . S
C883 C884 1.392 . S
C883 C888 1.356 . S
C884 C883 1.392 . S
C884 C885 1.368 . S
C884 H912 0.929 . S
C885 C884 1.368 . S
C885 C886 1.386 . S
C885 H913 0.929 . S
C886 C885 1.386 . S
C886 C887 1.373 . S
C887 C886 1.373 . S
C887 C888 1.409 . S
C887 H914 0.931 . S
C888 C883 1.356 . S
C888 C887 1.409 . S
C888 H915 0.930 . S
C889 O902 1.270 . S
C889 O903 1.248 . S
C890 O904 1.267 . S
C890 O905 1.278 . S
C891 Pr881 2.880 . S
C891 C892 1.491 . S
C891 O906 1.254 . S
C891 O907 1.225 . S
C892 C891 1.491 . S
C892 C893 1.392 . S
C892 C897 1.356 . S
C893 C892 1.392 . S
C893 C894 1.368 . S
C893 H916 0.929 . S
C894 C893 1.368 . S
C894 C895 1.386 . S
C894 H917 0.929 . S
C895 C894 1.386 . S
C895 C896 1.373 . S
C896 C895 1.373 . S
C896 C897 1.409 . S
C896 H918 0.931 . S
C897 C892 1.356 . S
C897 C896 1.409 . S
C897 H919 0.930 . S
C898 O908 1.270 . S
C898 O909 1.248 . S
C899 O910 1.267 . S
C899 O911 1.278 . S
O900 Pr880 2.562 . S
O900 C882 1.254 . S
O901 Pr880 2.490 . S
O901 C882 1.225 . S
O902 Pr880 2.695 . S
O902 Pr881 2.436 . S
O902 C889 1.270 . S
O903 Pr880 2.512 . S
O903 C889 1.248 . S
O904 Pr881 2.438 . S
O904 C890 1.267 . S
O905 Pr880 2.437 . S
O905 C890 1.278 . S
O906 Pr881 2.562 . S
O906 C891 1.254 . S
O907 Pr881 2.490 . S
O907 C891 1.225 . S
O908 Pr880 2.436 . S
O908 Pr881 2.695 . S
O908 C898 1.270 . S
O909 Pr881 2.512 . S
O909 C898 1.248 . S
O910 Pr880 2.438 . S
O910 C899 1.267 . S
O911 Pr881 2.437 . S
O911 C899 1.278 . S
H912 C884 0.929 . S
H913 C885 0.929 . S
H914 C887 0.931 . S
H915 C888 0.930 . S
H916 C893 0.929 . S
H917 C894 0.929 . S
H918 C896 0.931 . S
H919 C897 0.930 . S
Pr920 C922 2.880 . S
Pr920 O940 2.562 . S
Pr920 O941 2.490 . S
Pr920 O942 2.695 . S
Pr920 O943 2.512 . S
Pr920 O945 2.437 . S
Pr920 O948 2.436 . S
Pr920 O950 2.438 . S
Pr921 C931 2.880 . S
Pr921 O942 2.436 . S
Pr921 O944 2.438 . S
Pr921 O946 2.562 . S
Pr921 O947 2.490 . S
Pr921 O948 2.695 . S
Pr921 O949 2.512 . S
Pr921 O951 2.437 . S
C922 Pr920 2.880 . S
C922 C923 1.491 . S
C922 O940 1.254 . S
C922 O941 1.225 . S
C923 C922 1.491 . S
C923 C924 1.392 . S
C923 C928 1.356 . S
C924 C923 1.392 . S
C924 C925 1.368 . S
C924 H952 0.929 . S
C925 C924 1.368 . S
C925 C926 1.386 . S
C925 H953 0.929 . S
C926 C925 1.386 . S
C926 C927 1.373 . S
C927 C926 1.373 . S
C927 C928 1.409 . S
C927 H954 0.931 . S
C928 C923 1.356 . S
C928 C927 1.409 . S
C928 H955 0.930 . S
C929 O942 1.270 . S
C929 O943 1.248 . S
C930 O944 1.267 . S
C930 O945 1.278 . S
C931 Pr921 2.880 . S
C931 C932 1.491 . S
C931 O946 1.254 . S
C931 O947 1.225 . S
C932 C931 1.491 . S
C932 C933 1.392 . S
C932 C937 1.356 . S
C933 C932 1.392 . S
C933 C934 1.368 . S
C933 H956 0.929 . S
C934 C933 1.368 . S
C934 C935 1.386 . S
C934 H957 0.929 . S
C935 C934 1.386 . S
C935 C936 1.373 . S
C936 C935 1.373 . S
C936 C937 1.409 . S
C936 H958 0.931 . S
C937 C932 1.356 . S
C937 C936 1.409 . S
C937 H959 0.930 . S
C938 O948 1.270 . S
C938 O949 1.248 . S
C939 O950 1.267 . S
C939 O951 1.278 . S
O940 Pr920 2.562 . S
O940 C922 1.254 . S
O941 Pr920 2.490 . S
O941 C922 1.225 . S
O942 Pr920 2.695 . S
O942 Pr921 2.436 . S
O942 C929 1.270 . S
O943 Pr920 2.512 . S
O943 C929 1.248 . S
O944 Pr921 2.438 . S
O944 C930 1.267 . S
O945 Pr920 2.437 . S
O945 C930 1.278 . S
O946 Pr921 2.562 . S
O946 C931 1.254 . S
O947 Pr921 2.490 . S
O947 C931 1.225 . S
O948 Pr920 2.436 . S
O948 Pr921 2.695 . S
O948 C938 1.270 . S
O949 Pr921 2.512 . S
O949 C938 1.248 . S
O950 Pr920 2.438 . S
O950 C939 1.267 . S
O951 Pr921 2.437 . S
O951 C939 1.278 . S
H952 C924 0.929 . S
H953 C925 0.929 . S
H954 C927 0.931 . S
H955 C928 0.930 . S
H956 C933 0.929 . S
H957 C934 0.929 . S
H958 C936 0.931 . S
H959 C937 0.930 . S
Pr960 C962 2.880 . S
Pr960 O980 2.562 . S
Pr960 O981 2.490 . S
Pr960 O982 2.695 . S
Pr960 O983 2.512 . S
Pr960 O985 2.437 . S
Pr960 O988 2.436 . S
Pr960 O990 2.438 . S
Pr961 C971 2.880 . S
Pr961 O982 2.436 . S
Pr961 O984 2.438 . S
Pr961 O986 2.562 . S
Pr961 O987 2.490 . S
Pr961 O988 2.695 . S
Pr961 O989 2.512 . S
Pr961 O991 2.437 . S
C962 Pr960 2.880 . S
C962 C963 1.491 . S
C962 O980 1.254 . S
C962 O981 1.225 . S
C963 C962 1.491 . S
C963 C964 1.392 . S
C963 C968 1.356 . S
C964 C963 1.392 . S
C964 C965 1.368 . S
C964 H992 0.929 . S
C965 C964 1.368 . S
C965 C966 1.386 . S
C965 H993 0.929 . S
C966 C965 1.386 . S
C966 C967 1.373 . S
C967 C966 1.373 . S
C967 C968 1.409 . S
C967 H994 0.931 . S
C968 C963 1.356 . S
C968 C967 1.409 . S
C968 H995 0.930 . S
C969 O982 1.270 . S
C969 O983 1.248 . S
C970 O984 1.267 . S
C970 O985 1.278 . S
C971 Pr961 2.880 . S
C971 C972 1.491 . S
C971 O986 1.254 . S
C971 O987 1.225 . S
C972 C971 1.491 . S
C972 C973 1.392 . S
C972 C977 1.356 . S
C973 C972 1.392 . S
C973 C974 1.368 . S
C973 H996 0.929 . S
C974 C973 1.368 . S
C974 C975 1.386 . S
C974 H997 0.929 . S
C975 C974 1.386 . S
C975 C976 1.373 . S
C976 C975 1.373 . S
C976 C977 1.409 . S
C976 H998 0.931 . S
C977 C972 1.356 . S
C977 C976 1.409 . S
C977 H999 0.930 . S
C978 O988 1.270 . S
C978 O989 1.248 . S
C979 O990 1.267 . S
C979 O991 1.278 . S
O980 Pr960 2.562 . S
O980 C962 1.254 . S
O981 Pr960 2.490 . S
O981 C962 1.225 . S
O982 Pr960 2.695 . S
O982 Pr961 2.436 . S
O982 C969 1.270 . S
O983 Pr960 2.512 . S
O983 C969 1.248 . S
O984 Pr961 2.438 . S
O984 C970 1.267 . S
O985 Pr960 2.437 . S
O985 C970 1.278 . S
O986 Pr961 2.562 . S
O986 C971 1.254 . S
O987 Pr961 2.490 . S
O987 C971 1.225 . S
O988 Pr960 2.436 . S
O988 Pr961 2.695 . S
O988 C978 1.270 . S
O989 Pr961 2.512 . S
O989 C978 1.248 . S
O990 Pr960 2.438 . S
O990 C979 1.267 . S
O991 Pr961 2.437 . S
O991 C979 1.278 . S
H992 C964 0.929 . S
H993 C965 0.929 . S
H994 C967 0.931 . S
H995 C968 0.930 . S
H996 C973 0.929 . S
H997 C974 0.929 . S
H998 C976 0.931 . S
H999 C977 0.930 . S
Pr1000 C1002 2.880 . S
Pr1000 O1020 2.562 . S
Pr1000 O1021 2.490 . S
Pr1000 O1022 2.695 . S
Pr1000 O1023 2.512 . S
Pr1000 O1025 2.437 . S
Pr1000 O1028 2.436 . S
Pr1000 O1030 2.438 1_556 S
Pr1001 C1011 2.880 1_556 S
Pr1001 O1022 2.436 . S
Pr1001 O1024 2.438 . S
Pr1001 O1026 2.562 1_556 S
Pr1001 O1027 2.490 . S
Pr1001 O1028 2.695 . S
Pr1001 O1029 2.512 . S
Pr1001 O1031 2.437 1_556 S
C1002 Pr1000 2.880 . S
C1002 C1003 1.491 . S
C1002 O1020 1.254 . S
C1002 O1021 1.225 . S
C1003 C1002 1.491 . S
C1003 C1004 1.392 . S
C1003 C1008 1.356 . S
C1004 C1003 1.392 . S
C1004 C1005 1.368 . S
C1004 H1032 0.929 . S
C1005 C1004 1.368 . S
C1005 C1006 1.386 . S
C1005 H1033 0.929 . S
C1006 C1005 1.386 . S
C1006 C1007 1.373 . S
C1007 C1006 1.373 . S
C1007 C1008 1.409 . S
C1007 H1034 0.931 . S
C1008 C1003 1.356 . S
C1008 C1007 1.409 . S
C1008 H1035 0.930 . S
C1009 O1022 1.270 . S
C1009 O1023 1.248 . S
C1010 O1024 1.267 . S
C1010 O1025 1.278 . S
C1011 Pr1001 2.880 1_554 S
C1011 C1012 1.491 . S
C1011 O1026 1.254 . S
C1011 O1027 1.225 1_554 S
C1012 C1011 1.491 . S
C1012 C1013 1.392 . S
C1012 C1017 1.356 . S
C1013 C1012 1.392 . S
C1013 C1014 1.368 . S
C1013 H1036 0.929 . S
C1014 C1013 1.368 . S
C1014 C1015 1.386 . S
C1014 H1037 0.929 . S
C1015 C1014 1.386 . S
C1015 C1016 1.373 . S
C1016 C1015 1.373 . S
C1016 C1017 1.409 . S
C1016 H1038 0.931 . S
C1017 C1012 1.356 . S
C1017 C1016 1.409 . S
C1017 H1039 0.930 . S
C1018 O1028 1.270 . S
C1018 O1029 1.248 . S
C1019 O1030 1.267 . S
C1019 O1031 1.278 . S
O1020 Pr1000 2.562 . S
O1020 C1002 1.254 . S
O1021 Pr1000 2.490 . S
O1021 C1002 1.225 . S
O1022 Pr1000 2.695 . S
O1022 Pr1001 2.436 . S
O1022 C1009 1.270 . S
O1023 Pr1000 2.512 . S
O1023 C1009 1.248 . S
O1024 Pr1001 2.438 . S
O1024 C1010 1.267 . S
O1025 Pr1000 2.437 . S
O1025 C1010 1.278 . S
O1026 Pr1001 2.562 1_554 S
O1026 C1011 1.254 . S
O1027 Pr1001 2.490 . S
O1027 C1011 1.225 1_556 S
O1028 Pr1000 2.436 . S
O1028 Pr1001 2.695 . S
O1028 C1018 1.270 . S
O1029 Pr1001 2.512 . S
O1029 C1018 1.248 . S
O1030 Pr1000 2.438 1_554 S
O1030 C1019 1.267 . S
O1031 Pr1001 2.437 1_554 S
O1031 C1019 1.278 . S
H1032 C1004 0.929 . S
H1033 C1005 0.929 . S
H1034 C1007 0.931 . S
H1035 C1008 0.930 . S
H1036 C1013 0.929 . S
H1037 C1014 0.929 . S
H1038 C1016 0.931 . S
H1039 C1017 0.930 . S
Pr1040 C1042 2.880 . S
Pr1040 O1060 2.562 . S
Pr1040 O1061 2.490 . S
Pr1040 O1062 2.695 . S
Pr1040 O1063 2.512 . S
Pr1040 O1065 2.437 . S
Pr1040 O1068 2.436 . S
Pr1040 O1070 2.438 . S
Pr1041 C1051 2.880 . S
Pr1041 O1062 2.436 . S
Pr1041 O1064 2.438 . S
Pr1041 O1066 2.562 . S
Pr1041 O1067 2.490 . S
Pr1041 O1068 2.695 . S
Pr1041 O1069 2.512 . S
Pr1041 O1071 2.437 . S
C1042 Pr1040 2.880 . S
C1042 C1043 1.491 . S
C1042 O1060 1.254 . S
C1042 O1061 1.225 . S
C1043 C1042 1.491 . S
C1043 C1044 1.392 . S
C1043 C1048 1.356 . S
C1044 C1043 1.392 . S
C1044 C1045 1.368 . S
C1044 H1072 0.929 . S
C1045 C1044 1.368 . S
C1045 C1046 1.386 . S
C1045 H1073 0.929 . S
C1046 C1045 1.386 . S
C1046 C1047 1.373 . S
C1047 C1046 1.373 . S
C1047 C1048 1.409 . S
C1047 H1074 0.931 . S
C1048 C1043 1.356 . S
C1048 C1047 1.409 . S
C1048 H1075 0.930 . S
C1049 O1062 1.270 . S
C1049 O1063 1.248 . S
C1050 O1064 1.267 . S
C1050 O1065 1.278 . S
C1051 Pr1041 2.880 . S
C1051 C1052 1.491 . S
C1051 O1066 1.254 . S
C1051 O1067 1.225 . S
C1052 C1051 1.491 . S
C1052 C1053 1.392 . S
C1052 C1057 1.356 . S
C1053 C1052 1.392 . S
C1053 C1054 1.368 . S
C1053 H1076 0.929 . S
C1054 C1053 1.368 . S
C1054 C1055 1.386 . S
C1054 H1077 0.929 . S
C1055 C1054 1.386 . S
C1055 C1056 1.373 . S
C1056 C1055 1.373 . S
C1056 C1057 1.409 . S
C1056 H1078 0.931 . S
C1057 C1052 1.356 . S
C1057 C1056 1.409 . S
C1057 H1079 0.930 . S
C1058 O1068 1.270 . S
C1058 O1069 1.248 . S
C1059 O1070 1.267 . S
C1059 O1071 1.278 . S
O1060 Pr1040 2.562 . S
O1060 C1042 1.254 . S
O1061 Pr1040 2.490 . S
O1061 C1042 1.225 . S
O1062 Pr1040 2.695 . S
O1062 Pr1041 2.436 . S
O1062 C1049 1.270 . S
O1063 Pr1040 2.512 . S
O1063 C1049 1.248 . S
O1064 Pr1041 2.438 . S
O1064 C1050 1.267 . S
O1065 Pr1040 2.437 . S
O1065 C1050 1.278 . S
O1066 Pr1041 2.562 . S
O1066 C1051 1.254 . S
O1067 Pr1041 2.490 . S
O1067 C1051 1.225 . S
O1068 Pr1040 2.436 . S
O1068 Pr1041 2.695 . S
O1068 C1058 1.270 . S
O1069 Pr1041 2.512 . S
O1069 C1058 1.248 . S
O1070 Pr1040 2.438 . S
O1070 C1059 1.267 . S
O1071 Pr1041 2.437 . S
O1071 C1059 1.278 . S
H1072 C1044 0.929 . S
H1073 C1045 0.929 . S
H1074 C1047 0.931 . S
H1075 C1048 0.930 . S
H1076 C1053 0.929 . S
H1077 C1054 0.929 . S
H1078 C1056 0.931 . S
H1079 C1057 0.930 . S
Pr1080 C1082 2.880 . S
Pr1080 O1100 2.562 . S
Pr1080 O1101 2.490 . S
Pr1080 O1102 2.695 . S
Pr1080 O1103 2.512 . S
Pr1080 O1105 2.437 . S
Pr1080 O1108 2.436 . S
Pr1080 O1110 2.438 . S
Pr1081 C1091 2.880 . S
Pr1081 O1102 2.436 . S
Pr1081 O1104 2.438 . S
Pr1081 O1106 2.562 . S
Pr1081 O1107 2.490 . S
Pr1081 O1108 2.695 . S
Pr1081 O1109 2.512 . S
Pr1081 O1111 2.437 . S
C1082 Pr1080 2.880 . S
C1082 C1083 1.491 . S
C1082 O1100 1.254 . S
C1082 O1101 1.225 . S
C1083 C1082 1.491 . S
C1083 C1084 1.392 . S
C1083 C1088 1.356 . S
C1084 C1083 1.392 . S
C1084 C1085 1.368 . S
C1084 H1112 0.929 . S
C1085 C1084 1.368 . S
C1085 C1086 1.386 . S
C1085 H1113 0.929 . S
C1086 C1085 1.386 . S
C1086 C1087 1.373 . S
C1087 C1086 1.373 . S
C1087 C1088 1.409 . S
C1087 H1114 0.931 . S
C1088 C1083 1.356 . S
C1088 C1087 1.409 . S
C1088 H1115 0.930 . S
C1089 O1102 1.270 . S
C1089 O1103 1.248 . S
C1090 O1104 1.267 . S
C1090 O1105 1.278 . S
C1091 Pr1081 2.880 . S
C1091 C1092 1.491 . S
C1091 O1106 1.254 . S
C1091 O1107 1.225 . S
C1092 C1091 1.491 . S
C1092 C1093 1.392 . S
C1092 C1097 1.356 . S
C1093 C1092 1.392 . S
C1093 C1094 1.368 . S
C1093 H1116 0.929 . S
C1094 C1093 1.368 . S
C1094 C1095 1.386 . S
C1094 H1117 0.929 . S
C1095 C1094 1.386 . S
C1095 C1096 1.373 . S
C1096 C1095 1.373 . S
C1096 C1097 1.409 . S
C1096 H1118 0.931 . S
C1097 C1092 1.356 . S
C1097 C1096 1.409 . S
C1097 H1119 0.930 . S
C1098 O1108 1.270 . S
C1098 O1109 1.248 . S
C1099 O1110 1.267 . S
C1099 O1111 1.278 . S
O1100 Pr1080 2.562 . S
O1100 C1082 1.254 . S
O1101 Pr1080 2.490 . S
O1101 C1082 1.225 . S
O1102 Pr1080 2.695 . S
O1102 Pr1081 2.436 . S
O1102 C1089 1.270 . S
O1103 Pr1080 2.512 . S
O1103 C1089 1.248 . S
O1104 Pr1081 2.438 . S
O1104 C1090 1.267 . S
O1105 Pr1080 2.437 . S
O1105 C1090 1.278 . S
O1106 Pr1081 2.562 . S
O1106 C1091 1.254 . S
O1107 Pr1081 2.490 . S
O1107 C1091 1.225 . S
O1108 Pr1080 2.436 . S
O1108 Pr1081 2.695 . S
O1108 C1098 1.270 . S
O1109 Pr1081 2.512 . S
O1109 C1098 1.248 . S
O1110 Pr1080 2.438 . S
O1110 C1099 1.267 . S
O1111 Pr1081 2.437 . S
O1111 C1099 1.278 . S
H1112 C1084 0.929 . S
H1113 C1085 0.929 . S
H1114 C1087 0.931 . S
H1115 C1088 0.930 . S
H1116 C1093 0.929 . S
H1117 C1094 0.929 . S
H1118 C1096 0.931 . S
H1119 C1097 0.930 . S
Pr1120 C1122 2.880 . S
Pr1120 O1140 2.562 . S
Pr1120 O1141 2.490 . S
Pr1120 O1142 2.695 . S
Pr1120 O1143 2.512 . S
Pr1120 O1145 2.437 . S
Pr1120 O1148 2.436 . S
Pr1120 O1150 2.438 . S
Pr1121 C1131 2.880 . S
Pr1121 O1142 2.436 . S
Pr1121 O1144 2.438 . S
Pr1121 O1146 2.562 . S
Pr1121 O1147 2.490 . S
Pr1121 O1148 2.695 . S
Pr1121 O1149 2.512 . S
Pr1121 O1151 2.437 . S
C1122 Pr1120 2.880 . S
C1122 C1123 1.491 . S
C1122 O1140 1.254 . S
C1122 O1141 1.225 . S
C1123 C1122 1.491 . S
C1123 C1124 1.392 . S
C1123 C1128 1.356 . S
C1124 C1123 1.392 . S
C1124 C1125 1.368 . S
C1124 H1152 0.929 . S
C1125 C1124 1.368 . S
C1125 C1126 1.386 . S
C1125 H1153 0.929 . S
C1126 C1125 1.386 . S
C1126 C1127 1.373 . S
C1127 C1126 1.373 . S
C1127 C1128 1.409 . S
C1127 H1154 0.931 . S
C1128 C1123 1.356 . S
C1128 C1127 1.409 . S
C1128 H1155 0.930 . S
C1129 O1142 1.270 . S
C1129 O1143 1.248 . S
C1130 O1144 1.267 . S
C1130 O1145 1.278 . S
C1131 Pr1121 2.880 . S
C1131 C1132 1.491 . S
C1131 O1146 1.254 . S
C1131 O1147 1.225 . S
C1132 C1131 1.491 . S
C1132 C1133 1.392 . S
C1132 C1137 1.356 . S
C1133 C1132 1.392 . S
C1133 C1134 1.368 . S
C1133 H1156 0.929 . S
C1134 C1133 1.368 . S
C1134 C1135 1.386 . S
C1134 H1157 0.929 . S
C1135 C1134 1.386 . S
C1135 C1136 1.373 . S
C1136 C1135 1.373 . S
C1136 C1137 1.409 . S
C1136 H1158 0.931 . S
C1137 C1132 1.356 . S
C1137 C1136 1.409 . S
C1137 H1159 0.930 . S
C1138 O1148 1.270 . S
C1138 O1149 1.248 . S
C1139 O1150 1.267 . S
C1139 O1151 1.278 . S
O1140 Pr1120 2.562 . S
O1140 C1122 1.254 . S
O1141 Pr1120 2.490 . S
O1141 C1122 1.225 . S
O1142 Pr1120 2.695 . S
O1142 Pr1121 2.436 . S
O1142 C1129 1.270 . S
O1143 Pr1120 2.512 . S
O1143 C1129 1.248 . S
O1144 Pr1121 2.438 . S
O1144 C1130 1.267 . S
O1145 Pr1120 2.437 . S
O1145 C1130 1.278 . S
O1146 Pr1121 2.562 . S
O1146 C1131 1.254 . S
O1147 Pr1121 2.490 . S
O1147 C1131 1.225 . S
O1148 Pr1120 2.436 . S
O1148 Pr1121 2.695 . S
O1148 C1138 1.270 . S
O1149 Pr1121 2.512 . S
O1149 C1138 1.248 . S
O1150 Pr1120 2.438 . S
O1150 C1139 1.267 . S
O1151 Pr1121 2.437 . S
O1151 C1139 1.278 . S
H1152 C1124 0.929 . S
H1153 C1125 0.929 . S
H1154 C1127 0.931 . S
H1155 C1128 0.930 . S
H1156 C1133 0.929 . S
H1157 C1134 0.929 . S
H1158 C1136 0.931 . S
H1159 C1137 0.930 . S
Pr1160 C1162 2.880 . S
Pr1160 O1180 2.562 . S
Pr1160 O1181 2.490 . S
Pr1160 O1182 2.695 . S
Pr1160 O1183 2.512 . S
Pr1160 O1185 2.437 . S
Pr1160 O1188 2.436 . S
Pr1160 O1190 2.438 1_554 S
Pr1161 C1171 2.880 1_554 S
Pr1161 O1182 2.436 . S
Pr1161 O1184 2.438 . S
Pr1161 O1186 2.562 1_554 S
Pr1161 O1187 2.490 . S
Pr1161 O1188 2.695 . S
Pr1161 O1189 2.512 . S
Pr1161 O1191 2.437 1_554 S
C1162 Pr1160 2.880 . S
C1162 C1163 1.491 . S
C1162 O1180 1.254 . S
C1162 O1181 1.225 . S
C1163 C1162 1.491 . S
C1163 C1164 1.392 . S
C1163 C1168 1.356 . S
C1164 C1163 1.392 . S
C1164 C1165 1.368 . S
C1164 H1192 0.929 . S
C1165 C1164 1.368 . S
C1165 C1166 1.386 . S
C1165 H1193 0.929 . S
C1166 C1165 1.386 . S
C1166 C1167 1.373 . S
C1167 C1166 1.373 . S
C1167 C1168 1.409 . S
C1167 H1194 0.931 . S
C1168 C1163 1.356 . S
C1168 C1167 1.409 . S
C1168 H1195 0.930 . S
C1169 O1182 1.270 . S
C1169 O1183 1.248 . S
C1170 O1184 1.267 . S
C1170 O1185 1.278 . S
C1171 Pr1161 2.880 1_556 S
C1171 C1172 1.491 . S
C1171 O1186 1.254 . S
C1171 O1187 1.225 1_556 S
C1172 C1171 1.491 . S
C1172 C1173 1.392 . S
C1172 C1177 1.356 . S
C1173 C1172 1.392 . S
C1173 C1174 1.368 . S
C1173 H1196 0.929 . S
C1174 C1173 1.368 . S
C1174 C1175 1.386 . S
C1174 H1197 0.929 . S
C1175 C1174 1.386 . S
C1175 C1176 1.373 . S
C1176 C1175 1.373 . S
C1176 C1177 1.409 . S
C1176 H1198 0.931 . S
C1177 C1172 1.356 . S
C1177 C1176 1.409 . S
C1177 H1199 0.930 . S
C1178 O1188 1.270 . S
C1178 O1189 1.248 . S
C1179 O1190 1.267 . S
C1179 O1191 1.278 . S
O1180 Pr1160 2.562 . S
O1180 C1162 1.254 . S
O1181 Pr1160 2.490 . S
O1181 C1162 1.225 . S
O1182 Pr1160 2.695 . S
O1182 Pr1161 2.436 . S
O1182 C1169 1.270 . S
O1183 Pr1160 2.512 . S
O1183 C1169 1.248 . S
O1184 Pr1161 2.438 . S
O1184 C1170 1.267 . S
O1185 Pr1160 2.437 . S
O1185 C1170 1.278 . S
O1186 Pr1161 2.562 1_556 S
O1186 C1171 1.254 . S
O1187 Pr1161 2.490 . S
O1187 C1171 1.225 1_554 S
O1188 Pr1160 2.436 . S
O1188 Pr1161 2.695 . S
O1188 C1178 1.270 . S
O1189 Pr1161 2.512 . S
O1189 C1178 1.248 . S
O1190 Pr1160 2.438 1_556 S
O1190 C1179 1.267 . S
O1191 Pr1161 2.437 1_556 S
O1191 C1179 1.278 . S
H1192 C1164 0.929 . S
H1193 C1165 0.929 . S
H1194 C1167 0.931 . S
H1195 C1168 0.930 . S
H1196 C1173 0.929 . S
H1197 C1174 0.929 . S
H1198 C1176 0.931 . S
H1199 C1177 0.930 . S
Pr1200 C1202 2.880 . S
Pr1200 O1220 2.562 . S
Pr1200 O1221 2.490 . S
Pr1200 O1222 2.695 . S
Pr1200 O1223 2.512 . S
Pr1200 O1225 2.437 . S
Pr1200 O1228 2.436 . S
Pr1200 O1230 2.438 . S
Pr1201 C1211 2.880 . S
Pr1201 O1222 2.436 . S
Pr1201 O1224 2.438 . S
Pr1201 O1226 2.562 . S
Pr1201 O1227 2.490 . S
Pr1201 O1228 2.695 . S
Pr1201 O1229 2.512 . S
Pr1201 O1231 2.437 . S
C1202 Pr1200 2.880 . S
C1202 C1203 1.491 . S
C1202 O1220 1.254 . S
C1202 O1221 1.225 . S
C1203 C1202 1.491 . S
C1203 C1204 1.392 . S
C1203 C1208 1.356 . S
C1204 C1203 1.392 . S
C1204 C1205 1.368 . S
C1204 H1232 0.929 . S
C1205 C1204 1.368 . S
C1205 C1206 1.386 . S
C1205 H1233 0.929 . S
C1206 C1205 1.386 . S
C1206 C1207 1.373 . S
C1207 C1206 1.373 . S
C1207 C1208 1.409 . S
C1207 H1234 0.931 . S
C1208 C1203 1.356 . S
C1208 C1207 1.409 . S
C1208 H1235 0.930 . S
C1209 O1222 1.270 . S
C1209 O1223 1.248 . S
C1210 O1224 1.267 . S
C1210 O1225 1.278 . S
C1211 Pr1201 2.880 . S
C1211 C1212 1.491 . S
C1211 O1226 1.254 . S
C1211 O1227 1.225 . S
C1212 C1211 1.491 . S
C1212 C1213 1.392 . S
C1212 C1217 1.356 . S
C1213 C1212 1.392 . S
C1213 C1214 1.368 . S
C1213 H1236 0.929 . S
C1214 C1213 1.368 . S
C1214 C1215 1.386 . S
C1214 H1237 0.929 . S
C1215 C1214 1.386 . S
C1215 C1216 1.373 . S
C1216 C1215 1.373 . S
C1216 C1217 1.409 . S
C1216 H1238 0.931 . S
C1217 C1212 1.356 . S
C1217 C1216 1.409 . S
C1217 H1239 0.930 . S
C1218 O1228 1.270 . S
C1218 O1229 1.248 . S
C1219 O1230 1.267 . S
C1219 O1231 1.278 . S
O1220 Pr1200 2.562 . S
O1220 C1202 1.254 . S
O1221 Pr1200 2.490 . S
O1221 C1202 1.225 . S
O1222 Pr1200 2.695 . S
O1222 Pr1201 2.436 . S
O1222 C1209 1.270 . S
O1223 Pr1200 2.512 . S
O1223 C1209 1.248 . S
O1224 Pr1201 2.438 . S
O1224 C1210 1.267 . S
O1225 Pr1200 2.437 . S
O1225 C1210 1.278 . S
O1226 Pr1201 2.562 . S
O1226 C1211 1.254 . S
O1227 Pr1201 2.490 . S
O1227 C1211 1.225 . S
O1228 Pr1200 2.436 . S
O1228 Pr1201 2.695 . S
O1228 C1218 1.270 . S
O1229 Pr1201 2.512 . S
O1229 C1218 1.248 . S
O1230 Pr1200 2.438 . S
O1230 C1219 1.267 . S
O1231 Pr1201 2.437 . S
O1231 C1219 1.278 . S
H1232 C1204 0.929 . S
H1233 C1205 0.929 . S
H1234 C1207 0.931 . S
H1235 C1208 0.930 . S
H1236 C1213 0.929 . S
H1237 C1214 0.929 . S
H1238 C1216 0.931 . S
H1239 C1217 0.930 . S
Pr1240 C1242 2.880 . S
Pr1240 O1260 2.562 . S
Pr1240 O1261 2.490 . S
Pr1240 O1262 2.695 . S
Pr1240 O1263 2.512 . S
Pr1240 O1265 2.437 . S
Pr1240 O1268 2.436 . S
Pr1240 O1270 2.438 . S
Pr1241 C1251 2.880 . S
Pr1241 O1262 2.436 . S
Pr1241 O1264 2.438 . S
Pr1241 O1266 2.562 . S
Pr1241 O1267 2.490 . S
Pr1241 O1268 2.695 . S
Pr1241 O1269 2.512 . S
Pr1241 O1271 2.437 . S
C1242 Pr1240 2.880 . S
C1242 C1243 1.491 . S
C1242 O1260 1.254 . S
C1242 O1261 1.225 . S
C1243 C1242 1.491 . S
C1243 C1244 1.392 . S
C1243 C1248 1.356 . S
C1244 C1243 1.392 . S
C1244 C1245 1.368 . S
C1244 H1272 0.929 . S
C1245 C1244 1.368 . S
C1245 C1246 1.386 . S
C1245 H1273 0.929 . S
C1246 C1245 1.386 . S
C1246 C1247 1.373 . S
C1247 C1246 1.373 . S
C1247 C1248 1.409 . S
C1247 H1274 0.931 . S
C1248 C1243 1.356 . S
C1248 C1247 1.409 . S
C1248 H1275 0.930 . S
C1249 O1262 1.270 . S
C1249 O1263 1.248 . S
C1250 O1264 1.267 . S
C1250 O1265 1.278 . S
C1251 Pr1241 2.880 . S
C1251 C1252 1.491 . S
C1251 O1266 1.254 . S
C1251 O1267 1.225 . S
C1252 C1251 1.491 . S
C1252 C1253 1.392 . S
C1252 C1257 1.356 . S
C1253 C1252 1.392 . S
C1253 C1254 1.368 . S
C1253 H1276 0.929 . S
C1254 C1253 1.368 . S
C1254 C1255 1.386 . S
C1254 H1277 0.929 . S
C1255 C1254 1.386 . S
C1255 C1256 1.373 . S
C1256 C1255 1.373 . S
C1256 C1257 1.409 . S
C1256 H1278 0.931 . S
C1257 C1252 1.356 . S
C1257 C1256 1.409 . S
C1257 H1279 0.930 . S
C1258 O1268 1.270 . S
C1258 O1269 1.248 . S
C1259 O1270 1.267 . S
C1259 O1271 1.278 . S
O1260 Pr1240 2.562 . S
O1260 C1242 1.254 . S
O1261 Pr1240 2.490 . S
O1261 C1242 1.225 . S
O1262 Pr1240 2.695 . S
O1262 Pr1241 2.436 . S
O1262 C1249 1.270 . S
O1263 Pr1240 2.512 . S
O1263 C1249 1.248 . S
O1264 Pr1241 2.438 . S
O1264 C1250 1.267 . S
O1265 Pr1240 2.437 . S
O1265 C1250 1.278 . S
O1266 Pr1241 2.562 . S
O1266 C1251 1.254 . S
O1267 Pr1241 2.490 . S
O1267 C1251 1.225 . S
O1268 Pr1240 2.436 . S
O1268 Pr1241 2.695 . S
O1268 C1258 1.270 . S
O1269 Pr1241 2.512 . S
O1269 C1258 1.248 . S
O1270 Pr1240 2.438 . S
O1270 C1259 1.267 . S
O1271 Pr1241 2.437 . S
O1271 C1259 1.278 . S
H1272 C1244 0.929 . S
H1273 C1245 0.929 . S
H1274 C1247 0.931 . S
H1275 C1248 0.930 . S
H1276 C1253 0.929 . S
H1277 C1254 0.929 . S
H1278 C1256 0.931 . S
H1279 C1257 0.930 . S
H1280 C1286 0.930 . S
H1281 C1290 0.930 . S
H1282 C1295 0.929 . S
H1283 C1293 0.929 . S
H1284 C1288 0.929 . S
H1285 C1294 0.929 . S
C1286 H1280 0.930 . S
C1286 C1287 1.367 . S
C1286 C1294 1.378 . S
C1287 C1286 1.367 . S
C1287 C1295 1.433 . S
C1288 H1284 0.929 . S
C1288 C1290 1.378 . S
C1288 C1292 1.350 . S
C1289 C1292 1.463 . S
C1289 C1294 1.350 . S
C1289 N1297 1.427 . S
C1290 H1281 0.930 . S
C1290 C1288 1.378 . S
C1290 C1291 1.367 . S
C1291 C1290 1.367 . S
C1291 C1293 1.433 . S
C1292 C1288 1.350 . S
C1292 C1289 1.463 . S
C1292 N1296 1.427 . S
C1293 H1283 0.929 . S
C1293 C1291 1.433 . S
C1293 N1296 1.384 . S
C1294 H1285 0.929 . S
C1294 C1286 1.378 . S
C1294 C1289 1.350 . S
C1295 H1282 0.929 . S
C1295 C1287 1.433 . S
C1295 N1297 1.384 . S
N1296 C1292 1.427 . S
N1296 C1293 1.384 . S
N1297 C1289 1.427 . S
N1297 C1295 1.384 . S
H1298 C1304 0.930 . S
H1299 C1308 0.930 . S
H1300 C1313 0.929 . S
H1301 C1311 0.929 . S
H1302 C1306 0.929 . S
H1303 C1312 0.929 . S
C1304 H1298 0.930 . S
C1304 C1305 1.367 . S
C1304 C1312 1.378 . S
C1305 C1304 1.367 . S
C1305 C1313 1.433 . S
C1306 H1302 0.929 . S
C1306 C1308 1.378 . S
C1306 C1310 1.350 . S
C1307 C1310 1.463 . S
C1307 C1312 1.350 . S
C1307 N1315 1.427 . S
C1308 H1299 0.930 . S
C1308 C1306 1.378 . S
C1308 C1309 1.367 . S
C1309 C1308 1.367 . S
C1309 C1311 1.433 1_545 S
C1310 C1306 1.350 . S
C1310 C1307 1.463 . S
C1310 N1314 1.427 . S
C1311 H1301 0.929 . S
C1311 C1309 1.433 1_565 S
C1311 N1314 1.384 1_565 S
C1312 H1303 0.929 . S
C1312 C1304 1.378 . S
C1312 C1307 1.350 . S
C1313 H1300 0.929 . S
C1313 C1305 1.433 . S
C1313 N1315 1.384 . S
N1314 C1310 1.427 . S
N1314 C1311 1.384 1_545 S
N1315 C1307 1.427 . S
N1315 C1313 1.384 . S
H1316 C1322 0.930 . S
H1317 C1326 0.930 . S
H1318 C1331 0.929 . S
H1319 C1329 0.929 . S
H1320 C1324 0.929 . S
H1321 C1330 0.929 . S
C1322 H1316 0.930 . S
C1322 C1323 1.367 . S
C1322 C1330 1.378 . S
C1323 C1322 1.367 . S
C1323 C1331 1.433 . S
C1324 H1320 0.929 . S
C1324 C1326 1.378 . S
C1324 C1328 1.350 . S
C1325 C1328 1.463 . S
C1325 C1330 1.350 . S
C1325 N1333 1.427 . S
C1326 H1317 0.930 . S
C1326 C1324 1.378 . S
C1326 C1327 1.367 . S
C1327 C1326 1.367 . S
C1327 C1329 1.433 . S
C1328 C1324 1.350 . S
C1328 C1325 1.463 . S
C1328 N1332 1.427 . S
C1329 H1319 0.929 . S
C1329 C1327 1.433 . S
C1329 N1332 1.384 . S
C1330 H1321 0.929 . S
C1330 C1322 1.378 . S
C1330 C1325 1.350 . S
C1331 H1318 0.929 . S
C1331 C1323 1.433 . S
C1331 N1333 1.384 . S
N1332 C1328 1.427 . S
N1332 C1329 1.384 . S
N1333 C1325 1.427 . S
N1333 C1331 1.384 . S
H1334 C1340 0.930 . S
H1335 C1344 0.930 . S
H1336 C1349 0.929 . S
H1337 C1347 0.929 . S
H1338 C1342 0.929 . S
H1339 C1348 0.929 . S
C1340 H1334 0.930 . S
C1340 C1341 1.367 . S
C1340 C1348 1.378 . S
C1341 C1340 1.367 . S
C1341 C1349 1.433 . S
C1342 H1338 0.929 . S
C1342 C1344 1.378 1_565 S
C1342 C1346 1.350 . S
C1343 C1346 1.463 . S
C1343 C1348 1.350 . S
C1343 N1351 1.427 . S
C1344 H1335 0.930 . S
C1344 C1342 1.378 1_545 S
C1344 C1345 1.367 1_545 S
C1345 C1344 1.367 1_565 S
C1345 C1347 1.433 . S
C1346 C1342 1.350 . S
C1346 C1343 1.463 . S
C1346 N1350 1.427 . S
C1347 H1337 0.929 . S
C1347 C1345 1.433 . S
C1347 N1350 1.384 . S
C1348 H1339 0.929 . S
C1348 C1340 1.378 . S
C1348 C1343 1.350 . S
C1349 H1336 0.929 . S
C1349 C1341 1.433 . S
C1349 N1351 1.384 . S
N1350 C1346 1.427 . S
N1350 C1347 1.384 . S
N1351 C1343 1.427 . S
N1351 C1349 1.384 . S
H1352 C1358 0.930 . S
H1353 C1362 0.930 . S
H1354 C1367 0.929 . S
H1355 C1365 0.929 . S
H1356 C1360 0.929 . S
H1357 C1366 0.929 . S
C1358 H1352 0.930 . S
C1358 C1359 1.367 . S
C1358 C1366 1.378 . S
C1359 C1358 1.367 . S
C1359 C1367 1.433 . S
C1360 H1356 0.929 . S
C1360 C1362 1.378 . S
C1360 C1364 1.350 . S
C1361 C1364 1.463 . S
C1361 C1366 1.350 . S
C1361 N1369 1.427 . S
C1362 H1353 0.930 . S
C1362 C1360 1.378 . S
C1362 C1363 1.367 . S
C1363 C1362 1.367 . S
C1363 C1365 1.433 . S
C1364 C1360 1.350 . S
C1364 C1361 1.463 . S
C1364 N1368 1.427 . S
C1365 H1355 0.929 . S
C1365 C1363 1.433 . S
C1365 N1368 1.384 . S
C1366 H1357 0.929 . S
C1366 C1358 1.378 . S
C1366 C1361 1.350 . S
C1367 H1354 0.929 . S
C1367 C1359 1.433 . S
C1367 N1369 1.384 . S
N1368 C1364 1.427 . S
N1368 C1365 1.384 . S
N1369 C1361 1.427 . S
N1369 C1367 1.384 . S
H1370 C1376 0.930 . S
H1371 C1380 0.930 . S
H1372 C1385 0.929 . S
H1373 C1383 0.929 . S
H1374 C1378 0.929 . S
H1375 C1384 0.929 . S
C1376 H1370 0.930 . S
C1376 C1377 1.367 1_565 S
C1376 C1384 1.378 1_565 S
C1377 C1376 1.367 1_545 S
C1377 C1385 1.433 . S
C1378 H1374 0.929 . S
C1378 C1380 1.378 . S
C1378 C1382 1.350 . S
C1379 C1382 1.463 . S
C1379 C1384 1.350 . S
C1379 N1387 1.427 . S
C1380 H1371 0.930 . S
C1380 C1378 1.378 . S
C1380 C1381 1.367 . S
C1381 C1380 1.367 . S
C1381 C1383 1.433 . S
C1382 C1378 1.350 . S
C1382 C1379 1.463 . S
C1382 N1386 1.427 . S
C1383 H1373 0.929 . S
C1383 C1381 1.433 . S
C1383 N1386 1.384 . S
C1384 H1375 0.929 . S
C1384 C1376 1.378 1_545 S
C1384 C1379 1.350 . S
C1385 H1372 0.929 . S
C1385 C1377 1.433 . S
C1385 N1387 1.384 . S
N1386 C1382 1.427 . S
N1386 C1383 1.384 . S
N1387 C1379 1.427 . S
N1387 C1385 1.384 . S
H1388 C1394 0.930 . S
H1389 C1398 0.930 . S
H1390 C1403 0.929 . S
H1391 C1401 0.929 . S
H1392 C1396 0.929 . S
H1393 C1402 0.929 . S
C1394 H1388 0.930 . S
C1394 C1395 1.367 . S
C1394 C1402 1.378 . S
C1395 C1394 1.367 . S
C1395 C1403 1.433 . S
C1396 H1392 0.929 . S
C1396 C1398 1.378 . S
C1396 C1400 1.350 . S
C1397 C1400 1.463 . S
C1397 C1402 1.350 . S
C1397 N1405 1.427 . S
C1398 H1389 0.930 . S
C1398 C1396 1.378 . S
C1398 C1399 1.367 . S
C1399 C1398 1.367 . S
C1399 C1401 1.433 . S
C1400 C1396 1.350 . S
C1400 C1397 1.463 . S
C1400 N1404 1.427 . S
C1401 H1391 0.929 . S
C1401 C1399 1.433 . S
C1401 N1404 1.384 . S
C1402 H1393 0.929 . S
C1402 C1394 1.378 . S
C1402 C1397 1.350 . S
C1403 H1390 0.929 . S
C1403 C1395 1.433 . S
C1403 N1405 1.384 . S
N1404 C1400 1.427 . S
N1404 C1401 1.384 . S
N1405 C1397 1.427 . S
N1405 C1403 1.384 . S
H1406 C1412 0.930 . S
H1407 C1416 0.930 . S
H1408 C1421 0.929 . S
H1409 C1419 0.929 . S
H1410 C1414 0.929 . S
H1411 C1420 0.929 . S
C1412 H1406 0.930 . S
C1412 C1413 1.367 . S
C1412 C1420 1.378 . S
C1413 C1412 1.367 . S
C1413 C1421 1.433 . S
C1414 H1410 0.929 . S
C1414 C1416 1.378 1_565 S
C1414 C1418 1.350 . S
C1415 C1418 1.463 . S
C1415 C1420 1.350 . S
C1415 N1423 1.427 . S
C1416 H1407 0.930 . S
C1416 C1414 1.378 1_545 S
C1416 C1417 1.367 1_545 S
C1417 C1416 1.367 1_565 S
C1417 C1419 1.433 . S
C1418 C1414 1.350 . S
C1418 C1415 1.463 . S
C1418 N1422 1.427 . S
C1419 H1409 0.929 . S
C1419 C1417 1.433 . S
C1419 N1422 1.384 . S
C1420 H1411 0.929 . S
C1420 C1412 1.378 . S
C1420 C1415 1.350 . S
C1421 H1408 0.929 . S
C1421 C1413 1.433 . S
C1421 N1423 1.384 . S
N1422 C1418 1.427 . S
N1422 C1419 1.384 . S
N1423 C1415 1.427 . S
N1423 C1421 1.384 . S
H1424 C1430 0.930 . S
H1425 C1434 0.930 . S
H1426 C1439 0.929 . S
H1427 C1437 0.929 . S
H1428 C1432 0.929 . S
H1429 C1438 0.929 . S
C1430 H1424 0.930 . S
C1430 C1431 1.367 . S
C1430 C1438 1.378 . S
C1431 C1430 1.367 . S
C1431 C1439 1.433 . S
C1432 H1428 0.929 . S
C1432 C1434 1.378 . S
C1432 C1436 1.350 . S
C1433 C1436 1.463 . S
C1433 C1438 1.350 . S
C1433 N1441 1.427 . S
C1434 H1425 0.930 . S
C1434 C1432 1.378 . S
C1434 C1435 1.367 . S
C1435 C1434 1.367 . S
C1435 C1437 1.433 . S
C1436 C1432 1.350 . S
C1436 C1433 1.463 . S
C1436 N1440 1.427 . S
C1437 H1427 0.929 . S
C1437 C1435 1.433 . S
C1437 N1440 1.384 . S
C1438 H1429 0.929 . S
C1438 C1430 1.378 . S
C1438 C1433 1.350 . S
C1439 H1426 0.929 . S
C1439 C1431 1.433 . S
C1439 N1441 1.384 . S
N1440 C1436 1.427 . S
N1440 C1437 1.384 . S
N1441 C1433 1.427 . S
N1441 C1439 1.384 . S
H1442 C1448 0.930 . S
H1443 C1452 0.930 . S
H1444 C1457 0.929 . S
H1445 C1455 0.929 . S
H1446 C1450 0.929 . S
H1447 C1456 0.929 . S
C1448 H1442 0.930 . S
C1448 C1449 1.367 . S
C1448 C1456 1.378 . S
C1449 C1448 1.367 . S
C1449 C1457 1.433 1_565 S
C1450 H1446 0.929 . S
C1450 C1452 1.378 . S
C1450 C1454 1.350 . S
C1451 C1454 1.463 . S
C1451 C1456 1.350 . S
C1451 N1459 1.427 . S
C1452 H1443 0.930 . S
C1452 C1450 1.378 . S
C1452 C1453 1.367 . S
C1453 C1452 1.367 . S
C1453 C1455 1.433 . S
C1454 C1450 1.350 . S
C1454 C1451 1.463 . S
C1454 N1458 1.427 . S
C1455 H1445 0.929 . S
C1455 C1453 1.433 . S
C1455 N1458 1.384 . S
C1456 H1447 0.929 . S
C1456 C1448 1.378 . S
C1456 C1451 1.350 . S
C1457 H1444 0.929 . S
C1457 C1449 1.433 1_545 S
C1457 N1459 1.384 1_545 S
N1458 C1454 1.427 . S
N1458 C1455 1.384 . S
N1459 C1451 1.427 . S
N1459 C1457 1.384 1_565 S
H1460 C1466 0.930 . S
H1461 C1470 0.930 . S
H1462 C1475 0.929 . S
H1463 C1473 0.929 . S
H1464 C1468 0.929 . S
H1465 C1474 0.929 . S
C1466 H1460 0.930 . S
C1466 C1467 1.367 . S
C1466 C1474 1.378 . S
C1467 C1466 1.367 . S
C1467 C1475 1.433 . S
C1468 H1464 0.929 . S
C1468 C1470 1.378 . S
C1468 C1472 1.350 . S
C1469 C1472 1.463 . S
C1469 C1474 1.350 . S
C1469 N1477 1.427 . S
C1470 H1461 0.930 . S
C1470 C1468 1.378 . S
C1470 C1471 1.367 . S
C1471 C1470 1.367 . S
C1471 C1473 1.433 . S
C1472 C1468 1.350 . S
C1472 C1469 1.463 . S
C1472 N1476 1.427 . S
C1473 H1463 0.929 . S
C1473 C1471 1.433 . S
C1473 N1476 1.384 . S
C1474 H1465 0.929 . S
C1474 C1466 1.378 . S
C1474 C1469 1.350 . S
C1475 H1462 0.929 . S
C1475 C1467 1.433 . S
C1475 N1477 1.384 . S
N1476 C1472 1.427 . S
N1476 C1473 1.384 . S
N1477 C1469 1.427 . S
N1477 C1475 1.384 . S
H1478 C1484 0.930 . S
H1479 C1488 0.930 . S
H1480 C1493 0.929 . S
H1481 C1491 0.929 . S
H1482 C1486 0.929 . S
H1483 C1492 0.929 . S
C1484 H1478 0.930 . S
C1484 C1485 1.367 1_565 S
C1484 C1492 1.378 1_565 S
C1485 C1484 1.367 1_545 S
C1485 C1493 1.433 . S
C1486 H1482 0.929 . S
C1486 C1488 1.378 . S
C1486 C1490 1.350 . S
C1487 C1490 1.463 . S
C1487 C1492 1.350 . S
C1487 N1495 1.427 . S
C1488 H1479 0.930 . S
C1488 C1486 1.378 . S
C1488 C1489 1.367 . S
C1489 C1488 1.367 . S
C1489 C1491 1.433 . S
C1490 C1486 1.350 . S
C1490 C1487 1.463 . S
C1490 N1494 1.427 . S
C1491 H1481 0.929 . S
C1491 C1489 1.433 . S
C1491 N1494 1.384 . S
C1492 H1483 0.929 . S
C1492 C1484 1.378 1_545 S
C1492 C1487 1.350 . S
C1493 H1480 0.929 . S
C1493 C1485 1.433 . S
C1493 N1495 1.384 . S
N1494 C1490 1.427 . S
N1494 C1491 1.384 . S
N1495 C1487 1.427 . S
N1495 C1493 1.384 . S
H1496 C1502 0.930 . S
H1497 C1506 0.930 . S
H1498 C1511 0.929 . S
H1499 C1509 0.929 . S
H1500 C1504 0.929 . S
H1501 C1510 0.929 . S
C1502 H1496 0.930 . S
C1502 C1503 1.367 . S
C1502 C1510 1.378 . S
C1503 C1502 1.367 . S
C1503 C1511 1.433 . S
C1504 H1500 0.929 . S
C1504 C1506 1.378 . S
C1504 C1508 1.350 . S
C1505 C1508 1.463 . S
C1505 C1510 1.350 . S
C1505 N1513 1.427 . S
C1506 H1497 0.930 . S
C1506 C1504 1.378 . S
C1506 C1507 1.367 . S
C1507 C1506 1.367 . S
C1507 C1509 1.433 . S
C1508 C1504 1.350 . S
C1508 C1505 1.463 . S
C1508 N1512 1.427 . S
C1509 H1499 0.929 . S
C1509 C1507 1.433 . S
C1509 N1512 1.384 . S
C1510 H1501 0.929 . S
C1510 C1502 1.378 . S
C1510 C1505 1.350 . S
C1511 H1498 0.929 . S
C1511 C1503 1.433 . S
C1511 N1513 1.384 . S
N1512 C1508 1.427 . S
N1512 C1509 1.384 . S
N1513 C1505 1.427 . S
N1513 C1511 1.384 . S
H1514 C1520 0.930 . S
H1515 C1524 0.930 . S
H1516 C1529 0.929 . S
H1517 C1527 0.929 . S
H1518 C1522 0.929 . S
H1519 C1528 0.929 . S
C1520 H1514 0.930 . S
C1520 C1521 1.367 1_545 S
C1520 C1528 1.378 1_545 S
C1521 C1520 1.367 1_565 S
C1521 C1529 1.433 . S
C1522 H1518 0.929 . S
C1522 C1524 1.378 . S
C1522 C1526 1.350 . S
C1523 C1526 1.463 . S
C1523 C1528 1.350 . S
C1523 N1531 1.427 . S
C1524 H1515 0.930 . S
C1524 C1522 1.378 . S
C1524 C1525 1.367 . S
C1525 C1524 1.367 . S
C1525 C1527 1.433 . S
C1526 C1522 1.350 . S
C1526 C1523 1.463 . S
C1526 N1530 1.427 . S
C1527 H1517 0.929 . S
C1527 C1525 1.433 . S
C1527 N1530 1.384 . S
C1528 H1519 0.929 . S
C1528 C1520 1.378 1_565 S
C1528 C1523 1.350 . S
C1529 H1516 0.929 . S
C1529 C1521 1.433 . S
C1529 N1531 1.384 . S
N1530 C1526 1.427 . S
N1530 C1527 1.384 . S
N1531 C1523 1.427 . S
N1531 C1529 1.384 . S
H1532 C1538 0.930 . S
H1533 C1542 0.930 . S
H1534 C1547 0.929 . S
H1535 C1545 0.929 . S
H1536 C1540 0.929 . S
H1537 C1546 0.929 . S
C1538 H1532 0.930 . S
C1538 C1539 1.367 . S
C1538 C1546 1.378 . S
C1539 C1538 1.367 . S
C1539 C1547 1.433 . S
C1540 H1536 0.929 . S
C1540 C1542 1.378 . S
C1540 C1544 1.350 . S
C1541 C1544 1.463 . S
C1541 C1546 1.350 . S
C1541 N1549 1.427 . S
C1542 H1533 0.930 . S
C1542 C1540 1.378 . S
C1542 C1543 1.367 . S
C1543 C1542 1.367 . S
C1543 C1545 1.433 . S
C1544 C1540 1.350 . S
C1544 C1541 1.463 . S
C1544 N1548 1.427 . S
C1545 H1535 0.929 . S
C1545 C1543 1.433 . S
C1545 N1548 1.384 . S
C1546 H1537 0.929 . S
C1546 C1538 1.378 . S
C1546 C1541 1.350 . S
C1547 H1534 0.929 . S
C1547 C1539 1.433 . S
C1547 N1549 1.384 . S
N1548 C1544 1.427 . S
N1548 C1545 1.384 . S
N1549 C1541 1.427 . S
N1549 C1547 1.384 . S
H1550 C1556 0.930 . S
H1551 C1560 0.930 . S
H1552 C1565 0.929 . S
H1553 C1563 0.929 . S
H1554 C1558 0.929 . S
H1555 C1564 0.929 . S
C1556 H1550 0.930 . S
C1556 C1557 1.367 . S
C1556 C1564 1.378 . S
C1557 C1556 1.367 . S
C1557 C1565 1.433 . S
C1558 H1554 0.929 . S
C1558 C1560 1.378 1_545 S
C1558 C1562 1.350 . S
C1559 C1562 1.463 . S
C1559 C1564 1.350 . S
C1559 N1567 1.427 . S
C1560 H1551 0.930 . S
C1560 C1558 1.378 1_565 S
C1560 C1561 1.367 1_565 S
C1561 C1560 1.367 1_545 S
C1561 C1563 1.433 . S
C1562 C1558 1.350 . S
C1562 C1559 1.463 . S
C1562 N1566 1.427 . S
C1563 H1553 0.929 . S
C1563 C1561 1.433 . S
C1563 N1566 1.384 . S
C1564 H1555 0.929 . S
C1564 C1556 1.378 . S
C1564 C1559 1.350 . S
C1565 H1552 0.929 . S
C1565 C1557 1.433 . S
C1565 N1567 1.384 . S
N1566 C1562 1.427 . S
N1566 C1563 1.384 . S
N1567 C1559 1.427 . S
N1567 C1565 1.384 . S
H1568 C1574 0.930 . S
H1569 C1578 0.930 . S
H1570 C1583 0.929 . S
H1571 C1581 0.929 . S
H1572 C1576 0.929 . S
H1573 C1582 0.929 . S
C1574 H1568 0.930 . S
C1574 C1575 1.367 . S
C1574 C1582 1.378 . S
C1575 C1574 1.367 . S
C1575 C1583 1.433 . S
C1576 H1572 0.929 . S
C1576 C1578 1.378 . S
C1576 C1580 1.350 . S
C1577 C1580 1.463 . S
C1577 C1582 1.350 . S
C1577 N1585 1.427 . S
C1578 H1569 0.930 . S
C1578 C1576 1.378 . S
C1578 C1579 1.367 . S
C1579 C1578 1.367 . S
C1579 C1581 1.433 . S
C1580 C1576 1.350 . S
C1580 C1577 1.463 . S
C1580 N1584 1.427 . S
C1581 H1571 0.929 . S
C1581 C1579 1.433 . S
C1581 N1584 1.384 . S
C1582 H1573 0.929 . S
C1582 C1574 1.378 . S
C1582 C1577 1.350 . S
C1583 H1570 0.929 . S
C1583 C1575 1.433 . S
C1583 N1585 1.384 . S
N1584 C1580 1.427 . S
N1584 C1581 1.384 . S
N1585 C1577 1.427 . S
N1585 C1583 1.384 . S
H1586 C1592 0.930 . S
H1587 C1596 0.930 . S
H1588 C1601 0.929 . S
H1589 C1599 0.929 . S
H1590 C1594 0.929 . S
H1591 C1600 0.929 . S
C1592 H1586 0.930 . S
C1592 C1593 1.367 . S
C1592 C1600 1.378 . S
C1593 C1592 1.367 . S
C1593 C1601 1.433 . S
C1594 H1590 0.929 . S
C1594 C1596 1.378 . S
C1594 C1598 1.350 . S
C1595 C1598 1.463 . S
C1595 C1600 1.350 . S
C1595 N1603 1.427 . S
C1596 H1587 0.930 . S
C1596 C1594 1.378 . S
C1596 C1597 1.367 . S
C1597 C1596 1.367 . S
C1597 C1599 1.433 . S
C1598 C1594 1.350 . S
C1598 C1595 1.463 . S
C1598 N1602 1.427 . S
C1599 H1589 0.929 . S
C1599 C1597 1.433 . S
C1599 N1602 1.384 . S
C1600 H1591 0.929 . S
C1600 C1592 1.378 . S
C1600 C1595 1.350 . S
C1601 H1588 0.929 . S
C1601 C1593 1.433 . S
C1601 N1603 1.384 . S
N1602 C1598 1.427 . S
N1602 C1599 1.384 . S
N1603 C1595 1.427 . S
N1603 C1601 1.384 . S
H1604 C1610 0.930 . S
H1605 C1614 0.930 . S
H1606 C1619 0.929 . S
H1607 C1617 0.929 . S
H1608 C1612 0.929 . S
H1609 C1618 0.929 . S
C1610 H1604 0.930 . S
C1610 C1611 1.367 . S
C1610 C1618 1.378 . S
C1611 C1610 1.367 . S
C1611 C1619 1.433 . S
C1612 H1608 0.929 . S
C1612 C1614 1.378 . S
C1612 C1616 1.350 . S
C1613 C1616 1.463 . S
C1613 C1618 1.350 . S
C1613 N1621 1.427 . S
C1614 H1605 0.930 . S
C1614 C1612 1.378 . S
C1614 C1615 1.367 . S
C1615 C1614 1.367 . S
C1615 C1617 1.433 . S
C1616 C1612 1.350 . S
C1616 C1613 1.463 . S
C1616 N1620 1.427 . S
C1617 H1607 0.929 . S
C1617 C1615 1.433 . S
C1617 N1620 1.384 . S
C1618 H1609 0.929 . S
C1618 C1610 1.378 . S
C1618 C1613 1.350 . S
C1619 H1606 0.929 . S
C1619 C1611 1.433 . S
C1619 N1621 1.384 . S
N1620 C1616 1.427 . S
N1620 C1617 1.384 . S
N1621 C1613 1.427 . S
N1621 C1619 1.384 . S
H1622 C1628 0.930 . S
H1623 C1632 0.930 . S
H1624 C1637 0.929 . S
H1625 C1635 0.929 . S
H1626 C1630 0.929 . S
H1627 C1636 0.929 . S
C1628 H1622 0.930 . S
C1628 C1629 1.367 . S
C1628 C1636 1.378 . S
C1629 C1628 1.367 . S
C1629 C1637 1.433 . S
C1630 H1626 0.929 . S
C1630 C1632 1.378 . S
C1630 C1634 1.350 . S
C1631 C1634 1.463 . S
C1631 C1636 1.350 . S
C1631 N1639 1.427 . S
C1632 H1623 0.930 . S
C1632 C1630 1.378 . S
C1632 C1633 1.367 . S
C1633 C1632 1.367 . S
C1633 C1635 1.433 . S
C1634 C1630 1.350 . S
C1634 C1631 1.463 . S
C1634 N1638 1.427 . S
C1635 H1625 0.929 . S
C1635 C1633 1.433 . S
C1635 N1638 1.384 . S
C1636 H1627 0.929 . S
C1636 C1628 1.378 . S
C1636 C1631 1.350 . S
C1637 H1624 0.929 . S
C1637 C1629 1.433 . S
C1637 N1639 1.384 . S
N1638 C1634 1.427 . S
N1638 C1635 1.384 . S
N1639 C1631 1.427 . S
N1639 C1637 1.384 . S
H1640 C1646 0.930 . S
H1641 C1650 0.930 . S
H1642 C1655 0.929 . S
H1643 C1653 0.929 . S
H1644 C1648 0.929 . S
H1645 C1654 0.929 . S
C1646 H1640 0.930 . S
C1646 C1647 1.367 . S
C1646 C1654 1.378 . S
C1647 C1646 1.367 . S
C1647 C1655 1.433 . S
C1648 H1644 0.929 . S
C1648 C1650 1.378 . S
C1648 C1652 1.350 . S
C1649 C1652 1.463 . S
C1649 C1654 1.350 . S
C1649 N1657 1.427 . S
C1650 H1641 0.930 . S
C1650 C1648 1.378 . S
C1650 C1651 1.367 . S
C1651 C1650 1.367 . S
C1651 C1653 1.433 . S
C1652 C1648 1.350 . S
C1652 C1649 1.463 . S
C1652 N1656 1.427 . S
C1653 H1643 0.929 . S
C1653 C1651 1.433 . S
C1653 N1656 1.384 . S
C1654 H1645 0.929 . S
C1654 C1646 1.378 . S
C1654 C1649 1.350 . S
C1655 H1642 0.929 . S
C1655 C1647 1.433 . S
C1655 N1657 1.384 . S
N1656 C1652 1.427 . S
N1656 C1653 1.384 . S
N1657 C1649 1.427 . S
N1657 C1655 1.384 . S
H1658 C1664 0.930 . S
H1659 C1668 0.930 . S
H1660 C1673 0.929 . S
H1661 C1671 0.929 . S
H1662 C1666 0.929 . S
H1663 C1672 0.929 . S
C1664 H1658 0.930 . S
C1664 C1665 1.367 . S
C1664 C1672 1.378 . S
C1665 C1664 1.367 . S
C1665 C1673 1.433 . S
C1666 H1662 0.929 . S
C1666 C1668 1.378 . S
C1666 C1670 1.350 . S
C1667 C1670 1.463 . S
C1667 C1672 1.350 . S
C1667 N1675 1.427 . S
C1668 H1659 0.930 . S
C1668 C1666 1.378 . S
C1668 C1669 1.367 . S
C1669 C1668 1.367 . S
C1669 C1671 1.433 . S
C1670 C1666 1.350 . S
C1670 C1667 1.463 . S
C1670 N1674 1.427 . S
C1671 H1661 0.929 . S
C1671 C1669 1.433 . S
C1671 N1674 1.384 . S
C1672 H1663 0.929 . S
C1672 C1664 1.378 . S
C1672 C1667 1.350 . S
C1673 H1660 0.929 . S
C1673 C1665 1.433 . S
C1673 N1675 1.384 . S
N1674 C1670 1.427 . S
N1674 C1671 1.384 . S
N1675 C1667 1.427 . S
N1675 C1673 1.384 . S
H1676 C1682 0.930 . S
H1677 C1686 0.930 . S
H1678 C1691 0.929 . S
H1679 C1689 0.929 . S
H1680 C1684 0.929 . S
H1681 C1690 0.929 . S
C1682 H1676 0.930 . S
C1682 C1683 1.367 . S
C1682 C1690 1.378 . S
C1683 C1682 1.367 . S
C1683 C1691 1.433 . S
C1684 H1680 0.929 . S
C1684 C1686 1.378 . S
C1684 C1688 1.350 . S
C1685 C1688 1.463 . S
C1685 C1690 1.350 . S
C1685 N1693 1.427 . S
C1686 H1677 0.930 . S
C1686 C1684 1.378 . S
C1686 C1687 1.367 . S
C1687 C1686 1.367 . S
C1687 C1689 1.433 . S
C1688 C1684 1.350 . S
C1688 C1685 1.463 . S
C1688 N1692 1.427 . S
C1689 H1679 0.929 . S
C1689 C1687 1.433 . S
C1689 N1692 1.384 . S
C1690 H1681 0.929 . S
C1690 C1682 1.378 . S
C1690 C1685 1.350 . S
C1691 H1678 0.929 . S
C1691 C1683 1.433 . S
C1691 N1693 1.384 . S
N1692 C1688 1.427 . S
N1692 C1689 1.384 . S
N1693 C1685 1.427 . S
N1693 C1691 1.384 . S
H1694 C1700 0.930 . S
H1695 C1704 0.930 . S
H1696 C1709 0.929 . S
H1697 C1707 0.929 . S
H1698 C1702 0.929 . S
H1699 C1708 0.929 . S
C1700 H1694 0.930 . S
C1700 C1701 1.367 . S
C1700 C1708 1.378 . S
C1701 C1700 1.367 . S
C1701 C1709 1.433 . S
C1702 H1698 0.929 . S
C1702 C1704 1.378 . S
C1702 C1706 1.350 . S
C1703 C1706 1.463 . S
C1703 C1708 1.350 . S
C1703 N1711 1.427 . S
C1704 H1695 0.930 . S
C1704 C1702 1.378 . S
C1704 C1705 1.367 . S
C1705 C1704 1.367 . S
C1705 C1707 1.433 . S
C1706 C1702 1.350 . S
C1706 C1703 1.463 . S
C1706 N1710 1.427 . S
C1707 H1697 0.929 . S
C1707 C1705 1.433 . S
C1707 N1710 1.384 . S
C1708 H1699 0.929 . S
C1708 C1700 1.378 . S
C1708 C1703 1.350 . S
C1709 H1696 0.929 . S
C1709 C1701 1.433 . S
C1709 N1711 1.384 . S
N1710 C1706 1.427 . S
N1710 C1707 1.384 . S
N1711 C1703 1.427 . S
N1711 C1709 1.384 . S
H1712 C1718 0.930 . S
H1713 C1722 0.930 . S
H1714 C1727 0.929 . S
H1715 C1725 0.929 . S
H1716 C1720 0.929 . S
H1717 C1726 0.929 . S
C1718 H1712 0.930 . S
C1718 C1719 1.367 . S
C1718 C1726 1.378 . S
C1719 C1718 1.367 . S
C1719 C1727 1.433 . S
C1720 H1716 0.929 . S
C1720 C1722 1.378 . S
C1720 C1724 1.350 . S
C1721 C1724 1.463 . S
C1721 C1726 1.350 . S
C1721 N1729 1.427 . S
C1722 H1713 0.930 . S
C1722 C1720 1.378 . S
C1722 C1723 1.367 . S
C1723 C1722 1.367 . S
C1723 C1725 1.433 . S
C1724 C1720 1.350 . S
C1724 C1721 1.463 . S
C1724 N1728 1.427 . S
C1725 H1715 0.929 . S
C1725 C1723 1.433 . S
C1725 N1728 1.384 . S
C1726 H1717 0.929 . S
C1726 C1718 1.378 . S
C1726 C1721 1.350 . S
C1727 H1714 0.929 . S
C1727 C1719 1.433 . S
C1727 N1729 1.384 . S
N1728 C1724 1.427 . S
N1728 C1725 1.384 . S
N1729 C1721 1.427 . S
N1729 C1727 1.384 . S
H1730 C1736 0.930 . S
H1731 C1740 0.930 . S
H1732 C1745 0.929 . S
H1733 C1743 0.929 . S
H1734 C1738 0.929 . S
H1735 C1744 0.929 . S
C1736 H1730 0.930 . S
C1736 C1737 1.367 . S
C1736 C1744 1.378 . S
C1737 C1736 1.367 . S
C1737 C1745 1.433 . S
C1738 H1734 0.929 . S
C1738 C1740 1.378 . S
C1738 C1742 1.350 . S
C1739 C1742 1.463 . S
C1739 C1744 1.350 . S
C1739 N1747 1.427 . S
C1740 H1731 0.930 . S
C1740 C1738 1.378 . S
C1740 C1741 1.367 . S
C1741 C1740 1.367 . S
C1741 C1743 1.433 . S
C1742 C1738 1.350 . S
C1742 C1739 1.463 . S
C1742 N1746 1.427 . S
C1743 H1733 0.929 . S
C1743 C1741 1.433 . S
C1743 N1746 1.384 . S
C1744 H1735 0.929 . S
C1744 C1736 1.378 . S
C1744 C1739 1.350 . S
C1745 H1732 0.929 . S
C1745 C1737 1.433 . S
C1745 N1747 1.384 . S
N1746 C1742 1.427 . S
N1746 C1743 1.384 . S
N1747 C1739 1.427 . S
N1747 C1745 1.384 . S
H1748 C1754 0.930 . S
H1749 C1758 0.930 . S
H1750 C1763 0.929 . S
H1751 C1761 0.929 . S
H1752 C1756 0.929 . S
H1753 C1762 0.929 . S
C1754 H1748 0.930 . S
C1754 C1755 1.367 . S
C1754 C1762 1.378 . S
C1755 C1754 1.367 . S
C1755 C1763 1.433 . S
C1756 H1752 0.929 . S
C1756 C1758 1.378 . S
C1756 C1760 1.350 . S
C1757 C1760 1.463 . S
C1757 C1762 1.350 . S
C1757 N1765 1.427 . S
C1758 H1749 0.930 . S
C1758 C1756 1.378 . S
C1758 C1759 1.367 . S
C1759 C1758 1.367 . S
C1759 C1761 1.433 . S
C1760 C1756 1.350 . S
C1760 C1757 1.463 . S
C1760 N1764 1.427 . S
C1761 H1751 0.929 . S
C1761 C1759 1.433 . S
C1761 N1764 1.384 . S
C1762 H1753 0.929 . S
C1762 C1754 1.378 . S
C1762 C1757 1.350 . S
C1763 H1750 0.929 . S
C1763 C1755 1.433 . S
C1763 N1765 1.384 . S
N1764 C1760 1.427 . S
N1764 C1761 1.384 . S
N1765 C1757 1.427 . S
N1765 C1763 1.384 . S
H1766 C1772 0.930 . S
H1767 C1776 0.930 . S
H1768 C1781 0.929 . S
H1769 C1779 0.929 . S
H1770 C1774 0.929 . S
H1771 C1780 0.929 . S
C1772 H1766 0.930 . S
C1772 C1773 1.367 . S
C1772 C1780 1.378 . S
C1773 C1772 1.367 . S
C1773 C1781 1.433 . S
C1774 H1770 0.929 . S
C1774 C1776 1.378 . S
C1774 C1778 1.350 . S
C1775 C1778 1.463 . S
C1775 C1780 1.350 . S
C1775 N1783 1.427 . S
C1776 H1767 0.930 . S
C1776 C1774 1.378 . S
C1776 C1777 1.367 . S
C1777 C1776 1.367 . S
C1777 C1779 1.433 . S
C1778 C1774 1.350 . S
C1778 C1775 1.463 . S
C1778 N1782 1.427 . S
C1779 H1769 0.929 . S
C1779 C1777 1.433 . S
C1779 N1782 1.384 . S
C1780 H1771 0.929 . S
C1780 C1772 1.378 . S
C1780 C1775 1.350 . S
C1781 H1768 0.929 . S
C1781 C1773 1.433 . S
C1781 N1783 1.384 . S
N1782 C1778 1.427 . S
N1782 C1779 1.384 . S
N1783 C1775 1.427 . S
N1783 C1781 1.384 . S
H1784 C1790 0.930 . S
H1785 C1794 0.930 . S
H1786 C1799 0.929 . S
H1787 C1797 0.929 . S
H1788 C1792 0.929 . S
H1789 C1798 0.929 . S
C1790 H1784 0.930 . S
C1790 C1791 1.367 . S
C1790 C1798 1.378 . S
C1791 C1790 1.367 . S
C1791 C1799 1.433 . S
C1792 H1788 0.929 . S
C1792 C1794 1.378 . S
C1792 C1796 1.350 . S
C1793 C1796 1.463 . S
C1793 C1798 1.350 . S
C1793 N1801 1.427 . S
C1794 H1785 0.930 . S
C1794 C1792 1.378 . S
C1794 C1795 1.367 . S
C1795 C1794 1.367 . S
C1795 C1797 1.433 . S
C1796 C1792 1.350 . S
C1796 C1793 1.463 . S
C1796 N1800 1.427 . S
C1797 H1787 0.929 . S
C1797 C1795 1.433 . S
C1797 N1800 1.384 . S
C1798 H1789 0.929 . S
C1798 C1790 1.378 . S
C1798 C1793 1.350 . S
C1799 H1786 0.929 . S
C1799 C1791 1.433 . S
C1799 N1801 1.384 . S
N1800 C1796 1.427 . S
N1800 C1797 1.384 . S
N1801 C1793 1.427 . S
N1801 C1799 1.384 . S
H1802 C1808 0.930 . S
H1803 C1812 0.930 . S
H1804 C1817 0.929 . S
H1805 C1815 0.929 . S
H1806 C1810 0.929 . S
H1807 C1816 0.929 . S
C1808 H1802 0.930 . S
C1808 C1809 1.367 . S
C1808 C1816 1.378 . S
C1809 C1808 1.367 . S
C1809 C1817 1.433 . S
C1810 H1806 0.929 . S
C1810 C1812 1.378 . S
C1810 C1814 1.350 . S
C1811 C1814 1.463 . S
C1811 C1816 1.350 . S
C1811 N1819 1.427 . S
C1812 H1803 0.930 . S
C1812 C1810 1.378 . S
C1812 C1813 1.367 . S
C1813 C1812 1.367 . S
C1813 C1815 1.433 . S
C1814 C1810 1.350 . S
C1814 C1811 1.463 . S
C1814 N1818 1.427 . S
C1815 H1805 0.929 . S
C1815 C1813 1.433 . S
C1815 N1818 1.384 . S
C1816 H1807 0.929 . S
C1816 C1808 1.378 . S
C1816 C1811 1.350 . S
C1817 H1804 0.929 . S
C1817 C1809 1.433 . S
C1817 N1819 1.384 . S
N1818 C1814 1.427 . S
N1818 C1815 1.384 . S
N1819 C1811 1.427 . S
N1819 C1817 1.384 . S
H1820 C1826 0.930 . S
H1821 C1830 0.930 . S
H1822 C1835 0.929 . S
H1823 C1833 0.929 . S
H1824 C1828 0.929 . S
H1825 C1834 0.929 . S
C1826 H1820 0.930 . S
C1826 C1827 1.367 . S
C1826 C1834 1.378 . S
C1827 C1826 1.367 . S
C1827 C1835 1.433 . S
C1828 H1824 0.929 . S
C1828 C1830 1.378 . S
C1828 C1832 1.350 . S
C1829 C1832 1.463 . S
C1829 C1834 1.350 . S
C1829 N1837 1.427 . S
C1830 H1821 0.930 . S
C1830 C1828 1.378 . S
C1830 C1831 1.367 . S
C1831 C1830 1.367 . S
C1831 C1833 1.433 . S
C1832 C1828 1.350 . S
C1832 C1829 1.463 . S
C1832 N1836 1.427 . S
C1833 H1823 0.929 . S
C1833 C1831 1.433 . S
C1833 N1836 1.384 . S
C1834 H1825 0.929 . S
C1834 C1826 1.378 . S
C1834 C1829 1.350 . S
C1835 H1822 0.929 . S
C1835 C1827 1.433 . S
C1835 N1837 1.384 . S
N1836 C1832 1.427 . S
N1836 C1833 1.384 . S
N1837 C1829 1.427 . S
N1837 C1835 1.384 . S
H1838 C1844 0.930 . S
H1839 C1848 0.930 . S
H1840 C1853 0.929 . S
H1841 C1851 0.929 . S
H1842 C1846 0.929 . S
H1843 C1852 0.929 . S
C1844 H1838 0.930 . S
C1844 C1845 1.367 . S
C1844 C1852 1.378 . S
C1845 C1844 1.367 . S
C1845 C1853 1.433 . S
C1846 H1842 0.929 . S
C1846 C1848 1.378 . S
C1846 C1850 1.350 . S
C1847 C1850 1.463 . S
C1847 C1852 1.350 . S
C1847 N1855 1.427 . S
C1848 H1839 0.930 . S
C1848 C1846 1.378 . S
C1848 C1849 1.367 . S
C1849 C1848 1.367 . S
C1849 C1851 1.433 . S
C1850 C1846 1.350 . S
C1850 C1847 1.463 . S
C1850 N1854 1.427 . S
C1851 H1841 0.929 . S
C1851 C1849 1.433 . S
C1851 N1854 1.384 . S
C1852 H1843 0.929 . S
C1852 C1844 1.378 . S
C1852 C1847 1.350 . S
C1853 H1840 0.929 . S
C1853 C1845 1.433 . S
C1853 N1855 1.384 . S
N1854 C1850 1.427 . S
N1854 C1851 1.384 . S
N1855 C1847 1.427 . S
N1855 C1853 1.384 . S
H1856 C1862 0.930 . S
H1857 C1866 0.930 . S
H1858 C1871 0.929 . S
H1859 C1869 0.929 . S
H1860 C1864 0.929 . S
H1861 C1870 0.929 . S
C1862 H1856 0.930 . S
C1862 C1863 1.367 . S
C1862 C1870 1.378 . S
C1863 C1862 1.367 . S
C1863 C1871 1.433 . S
C1864 H1860 0.929 . S
C1864 C1866 1.378 . S
C1864 C1868 1.350 . S
C1865 C1868 1.463 . S
C1865 C1870 1.350 . S
C1865 N1873 1.427 . S
C1866 H1857 0.930 . S
C1866 C1864 1.378 . S
C1866 C1867 1.367 . S
C1867 C1866 1.367 . S
C1867 C1869 1.433 . S
C1868 C1864 1.350 . S
C1868 C1865 1.463 . S
C1868 N1872 1.427 . S
C1869 H1859 0.929 . S
C1869 C1867 1.433 . S
C1869 N1872 1.384 . S
C1870 H1861 0.929 . S
C1870 C1862 1.378 . S
C1870 C1865 1.350 . S
C1871 H1858 0.929 . S
C1871 C1863 1.433 . S
C1871 N1873 1.384 . S
N1872 C1868 1.427 . S
N1872 C1869 1.384 . S
N1873 C1865 1.427 . S
N1873 C1871 1.384 . S
H1874 C1880 0.930 . S
H1875 C1884 0.937 . S
H1876 C1889 0.929 . S
H1877 C1887 0.929 . S
H1878 C1882 0.929 . S
H1879 C1888 0.929 . S
C1880 H1874 0.930 . S
C1880 C1881 1.367 . S
C1880 C1888 1.378 . S
C1881 C1880 1.367 . S
C1881 C1889 1.433 . S
C1882 H1878 0.929 . S
C1882 C1884 1.378 . S
C1882 C1886 1.350 . S
C1883 C1886 1.463 . S
C1883 C1888 1.350 . S
C1883 N1891 1.427 . S
C1884 H1875 0.937 . S
C1884 C1882 1.378 . S
C1884 C1885 1.367 . S
C1885 C1884 1.367 . S
C1885 C1887 1.433 . S
C1886 C1882 1.350 . S
C1886 C1883 1.463 . S
C1886 N1890 1.427 . S
C1887 H1877 0.929 . S
C1887 C1885 1.433 . S
C1887 N1890 1.384 . S
C1888 H1879 0.929 . S
C1888 C1880 1.378 . S
C1888 C1883 1.350 . S
C1889 H1876 0.929 . S
C1889 C1881 1.433 . S
C1889 N1891 1.384 . S
N1890 C1886 1.427 . S
N1890 C1887 1.384 . S
N1891 C1883 1.427 . S
N1891 C1889 1.384 . S
H1892 C1898 0.930 . S
H1893 C1902 0.930 . S
H1894 C1907 0.929 . S
H1895 C1905 0.929 . S
H1896 C1900 0.929 . S
H1897 C1906 0.929 . S
C1898 H1892 0.930 . S
C1898 C1899 1.367 . S
C1898 C1906 1.378 . S
C1899 C1898 1.367 . S
C1899 C1907 1.433 . S
C1900 H1896 0.929 . S
C1900 C1902 1.378 . S
C1900 C1904 1.350 . S
C1901 C1904 1.463 . S
C1901 C1906 1.350 . S
C1901 N1909 1.427 . S
C1902 H1893 0.930 . S
C1902 C1900 1.378 . S
C1902 C1903 1.367 . S
C1903 C1902 1.367 . S
C1903 C1905 1.433 . S
C1904 C1900 1.350 . S
C1904 C1901 1.463 . S
C1904 N1908 1.427 . S
C1905 H1895 0.929 . S
C1905 C1903 1.433 . S
C1905 N1908 1.384 . S
C1906 H1897 0.929 . S
C1906 C1898 1.378 . S
C1906 C1901 1.350 . S
C1907 H1894 0.929 . S
C1907 C1899 1.433 . S
C1907 N1909 1.384 . S
N1908 C1904 1.427 . S
N1908 C1905 1.384 . S
N1909 C1901 1.427 . S
N1909 C1907 1.384 . S
H1910 C1916 0.930 . S
H1911 C1920 0.930 . S
H1912 C1925 0.929 . S
H1913 C1923 0.929 . S
H1914 C1918 0.929 . S
H1915 C1924 0.929 . S
C1916 H1910 0.930 . S
C1916 C1917 1.367 . S
C1916 C1924 1.378 . S
C1917 C1916 1.367 . S
C1917 C1925 1.433 . S
C1918 H1914 0.929 . S
C1918 C1920 1.378 . S
C1918 C1922 1.350 . S
C1919 C1922 1.463 . S
C1919 C1924 1.350 . S
C1919 N1927 1.427 . S
C1920 H1911 0.930 . S
C1920 C1918 1.378 . S
C1920 C1921 1.367 . S
C1921 C1920 1.367 . S
C1921 C1923 1.433 . S
C1922 C1918 1.350 . S
C1922 C1919 1.463 . S
C1922 N1926 1.427 . S
C1923 H1913 0.929 . S
C1923 C1921 1.433 . S
C1923 N1926 1.384 . S
C1924 H1915 0.929 . S
C1924 C1916 1.378 . S
C1924 C1919 1.350 . S
C1925 H1912 0.929 . S
C1925 C1917 1.433 . S
C1925 N1927 1.384 . S
N1926 C1922 1.427 . S
N1926 C1923 1.384 . S
N1927 C1919 1.427 . S
N1927 C1925 1.384 . S
H1928 C1934 0.930 . S
H1929 C1938 0.930 . S
H1930 C1943 0.929 . S
H1931 C1941 0.929 . S
H1932 C1936 0.929 . S
H1933 C1942 0.929 . S
C1934 H1928 0.930 . S
C1934 C1935 1.367 . S
C1934 C1942 1.378 . S
C1935 C1934 1.367 . S
C1935 C1943 1.433 . S
C1936 H1932 0.929 . S
C1936 C1938 1.378 . S
C1936 C1940 1.350 . S
C1937 C1940 1.463 . S
C1937 C1942 1.350 . S
C1937 N1945 1.427 . S
C1938 H1929 0.930 . S
C1938 C1936 1.378 . S
C1938 C1939 1.367 . S
C1939 C1938 1.367 . S
C1939 C1941 1.433 . S
C1940 C1936 1.350 . S
C1940 C1937 1.463 . S
C1940 N1944 1.427 . S
C1941 H1931 0.929 . S
C1941 C1939 1.433 . S
C1941 N1944 1.384 . S
C1942 H1933 0.929 . S
C1942 C1934 1.378 . S
C1942 C1937 1.350 . S
C1943 H1930 0.929 . S
C1943 C1935 1.433 . S
C1943 N1945 1.384 . S
N1944 C1940 1.427 . S
N1944 C1941 1.384 . S
N1945 C1937 1.427 . S
N1945 C1943 1.384 . S
H1946 C1952 0.930 . S
H1947 C1956 0.930 . S
H1948 C1961 0.929 . S
H1949 C1959 0.929 . S
H1950 C1954 0.929 . S
H1951 C1960 0.929 . S
C1952 H1946 0.930 . S
C1952 C1953 1.367 . S
C1952 C1960 1.378 . S
C1953 C1952 1.367 . S
C1953 C1961 1.433 . S
C1954 H1950 0.929 . S
C1954 C1956 1.378 . S
C1954 C1958 1.350 . S
C1955 C1958 1.463 . S
C1955 C1960 1.350 . S
C1955 N1963 1.427 . S
C1956 H1947 0.930 . S
C1956 C1954 1.378 . S
C1956 C1957 1.367 . S
C1957 C1956 1.367 . S
C1957 C1959 1.433 . S
C1958 C1954 1.350 . S
C1958 C1955 1.463 . S
C1958 N1962 1.427 . S
C1959 H1949 0.929 . S
C1959 C1957 1.433 . S
C1959 N1962 1.384 . S
C1960 H1951 0.929 . S
C1960 C1952 1.378 . S
C1960 C1955 1.350 . S
C1961 H1948 0.929 . S
C1961 C1953 1.433 . S
C1961 N1963 1.384 . S
N1962 C1958 1.427 . S
N1962 C1959 1.384 . S
N1963 C1955 1.427 . S
N1963 C1961 1.384 . S
H1964 C1970 0.930 . S
H1965 C1974 0.930 . S
H1966 C1979 0.929 . S
H1967 C1977 0.929 . S
H1968 C1972 0.929 . S
H1969 C1978 0.929 . S
C1970 H1964 0.930 . S
C1970 C1971 1.367 . S
C1970 C1978 1.378 . S
C1971 C1970 1.367 . S
C1971 C1979 1.433 . S
C1972 H1968 0.929 . S
C1972 C1974 1.378 . S
C1972 C1976 1.350 . S
C1973 C1976 1.463 . S
C1973 C1978 1.350 . S
C1973 N1981 1.427 . S
C1974 H1965 0.930 . S
C1974 C1972 1.378 . S
C1974 C1975 1.367 . S
C1975 C1974 1.367 . S
C1975 C1977 1.433 . S
C1976 C1972 1.350 . S
C1976 C1973 1.463 . S
C1976 N1980 1.427 . S
C1977 H1967 0.929 . S
C1977 C1975 1.433 . S
C1977 N1980 1.384 . S
C1978 H1969 0.929 . S
C1978 C1970 1.378 . S
C1978 C1973 1.350 . S
C1979 H1966 0.929 . S
C1979 C1971 1.433 . S
C1979 N1981 1.384 . S
N1980 C1976 1.427 . S
N1980 C1977 1.384 . S
N1981 C1973 1.427 . S
N1981 C1979 1.384 . S
H1982 C1988 0.930 . S
H1983 C1992 0.930 . S
H1984 C1997 0.929 . S
H1985 C1995 0.925 . S
H1986 C1990 0.929 . S
H1987 C1996 0.929 . S
C1988 H1982 0.930 . S
C1988 C1989 1.367 . S
C1988 C1996 1.378 . S
C1989 C1988 1.367 . S
C1989 C1997 1.433 . S
C1990 H1986 0.929 . S
C1990 C1992 1.378 . S
C1990 C1994 1.350 . S
C1991 C1994 1.463 . S
C1991 C1996 1.350 . S
C1991 N1999 1.427 . S
C1992 H1983 0.930 . S
C1992 C1990 1.378 . S
C1992 C1993 1.367 . S
C1993 C1992 1.367 . S
C1993 C1995 1.434 1_455 S
C1994 C1990 1.350 . S
C1994 C1991 1.463 . S
C1994 N1998 1.427 . S
C1995 H1985 0.925 . S
C1995 C1993 1.434 1_655 S
C1995 N1998 1.387 1_655 S
C1996 H1987 0.929 . S
C1996 C1988 1.378 . S
C1996 C1991 1.350 . S
C1997 H1984 0.929 . S
C1997 C1989 1.433 . S
C1997 N1999 1.384 . S
N1998 C1994 1.427 . S
N1998 C1995 1.387 1_455 S
N1999 C1991 1.427 . S
N1999 C1997 1.384 . S
H2000 C2006 0.930 . S
H2001 C2010 0.930 . S
H2002 C2015 0.929 . S
H2003 C2013 0.929 . S
H2004 C2008 0.929 . S
H2005 C2014 0.929 . S
C2006 H2000 0.930 . S
C2006 C2007 1.367 . S
C2006 C2014 1.378 . S
C2007 C2006 1.367 . S
C2007 C2015 1.433 . S
C2008 H2004 0.929 . S
C2008 C2010 1.378 . S
C2008 C2012 1.350 . S
C2009 C2012 1.463 . S
C2009 C2014 1.350 . S
C2009 N2017 1.427 . S
C2010 H2001 0.930 . S
C2010 C2008 1.378 . S
C2010 C2011 1.367 . S
C2011 C2010 1.367 . S
C2011 C2013 1.433 . S
C2012 C2008 1.350 . S
C2012 C2009 1.463 . S
C2012 N2016 1.427 . S
C2013 H2003 0.929 . S
C2013 C2011 1.433 . S
C2013 N2016 1.384 . S
C2014 H2005 0.929 . S
C2014 C2006 1.378 . S
C2014 C2009 1.350 . S
C2015 H2002 0.929 . S
C2015 C2007 1.433 . S
C2015 N2017 1.384 . S
N2016 C2012 1.427 . S
N2016 C2013 1.384 . S
N2017 C2009 1.427 . S
N2017 C2015 1.384 . S
H2018 C2024 0.930 1_455 S
H2019 C2028 0.930 . S
H2020 C2033 0.929 . S
H2021 C2031 0.929 . S
H2022 C2026 0.929 . S
H2023 C2032 0.929 . S
C2024 H2018 0.930 1_655 S
C2024 C2025 1.367 . S
C2024 C2032 1.378 . S
C2025 C2024 1.367 . S
C2025 C2033 1.433 . S
C2026 H2022 0.929 . S
C2026 C2028 1.378 . S
C2026 C2030 1.350 . S
C2027 C2030 1.463 . S
C2027 C2032 1.350 . S
C2027 N2035 1.427 . S
C2028 H2019 0.930 . S
C2028 C2026 1.378 . S
C2028 C2029 1.367 . S
C2029 C2028 1.367 . S
C2029 C2031 1.433 . S
C2030 C2026 1.350 . S
C2030 C2027 1.463 . S
C2030 N2034 1.427 . S
C2031 H2021 0.929 . S
C2031 C2029 1.433 . S
C2031 N2034 1.384 . S
C2032 H2023 0.929 . S
C2032 C2024 1.378 . S
C2032 C2027 1.350 . S
C2033 H2020 0.929 . S
C2033 C2025 1.433 . S
C2033 N2035 1.384 . S
N2034 C2030 1.427 . S
N2034 C2031 1.384 . S
N2035 C2027 1.427 . S
N2035 C2033 1.384 . S
H2036 C2042 0.930 . S
H2037 C2046 0.930 . S
H2038 C2051 0.929 . S
H2039 C2049 0.929 . S
H2040 C2044 0.929 . S
H2041 C2050 0.929 . S
C2042 H2036 0.930 . S
C2042 C2043 1.367 . S
C2042 C2050 1.378 . S
C2043 C2042 1.367 . S
C2043 C2051 1.433 . S
C2044 H2040 0.929 . S
C2044 C2046 1.378 . S
C2044 C2048 1.350 . S
C2045 C2048 1.463 . S
C2045 C2050 1.350 . S
C2045 N2053 1.427 . S
C2046 H2037 0.930 . S
C2046 C2044 1.378 . S
C2046 C2047 1.367 . S
C2047 C2046 1.367 . S
C2047 C2049 1.433 . S
C2048 C2044 1.350 . S
C2048 C2045 1.463 . S
C2048 N2052 1.427 . S
C2049 H2039 0.929 . S
C2049 C2047 1.433 . S
C2049 N2052 1.384 . S
C2050 H2041 0.929 . S
C2050 C2042 1.378 . S
C2050 C2045 1.350 . S
C2051 H2038 0.929 . S
C2051 C2043 1.433 . S
C2051 N2053 1.384 . S
N2052 C2048 1.427 . S
N2052 C2049 1.384 . S
N2053 C2045 1.427 . S
N2053 C2051 1.384 . S
H2054 C2060 0.930 . S
H2055 C2064 0.930 . S
H2056 C2069 0.929 . S
H2057 C2067 0.929 . S
H2058 C2062 0.929 . S
H2059 C2068 0.929 . S
C2060 H2054 0.930 . S
C2060 C2061 1.367 . S
C2060 C2068 1.378 . S
C2061 C2060 1.367 . S
C2061 C2069 1.433 . S
C2062 H2058 0.929 . S
C2062 C2064 1.378 . S
C2062 C2066 1.350 . S
C2063 C2066 1.463 . S
C2063 C2068 1.350 . S
C2063 N2071 1.427 . S
C2064 H2055 0.930 . S
C2064 C2062 1.378 . S
C2064 C2065 1.367 . S
C2065 C2064 1.367 . S
C2065 C2067 1.433 . S
C2066 C2062 1.350 . S
C2066 C2063 1.463 . S
C2066 N2070 1.427 . S
C2067 H2057 0.929 . S
C2067 C2065 1.433 . S
C2067 N2070 1.384 . S
C2068 H2059 0.929 . S
C2068 C2060 1.378 . S
C2068 C2063 1.350 . S
C2069 H2056 0.929 . S
C2069 C2061 1.433 . S
C2069 N2071 1.384 . S
N2070 C2066 1.427 . S
N2070 C2067 1.384 . S
N2071 C2063 1.427 . S
N2071 C2069 1.384 . S
H2072 C2078 0.930 . S
H2073 C2082 0.930 . S
H2074 C2087 0.929 . S
H2075 C2085 0.929 . S
H2076 C2080 0.929 . S
H2077 C2086 0.929 . S
C2078 H2072 0.930 . S
C2078 C2079 1.367 . S
C2078 C2086 1.378 . S
C2079 C2078 1.367 . S
C2079 C2087 1.433 . S
C2080 H2076 0.929 . S
C2080 C2082 1.378 . S
C2080 C2084 1.350 . S
C2081 C2084 1.463 . S
C2081 C2086 1.350 . S
C2081 N2089 1.427 . S
C2082 H2073 0.930 . S
C2082 C2080 1.378 . S
C2082 C2083 1.367 . S
C2083 C2082 1.367 . S
C2083 C2085 1.433 . S
C2084 C2080 1.350 . S
C2084 C2081 1.463 . S
C2084 N2088 1.427 . S
C2085 H2075 0.929 . S
C2085 C2083 1.433 . S
C2085 N2088 1.384 . S
C2086 H2077 0.929 . S
C2086 C2078 1.378 . S
C2086 C2081 1.350 . S
C2087 H2074 0.929 . S
C2087 C2079 1.433 . S
C2087 N2089 1.384 . S
N2088 C2084 1.427 . S
N2088 C2085 1.384 . S
N2089 C2081 1.427 . S
N2089 C2087 1.384 . S
H2090 C2096 0.930 . S
H2091 C2100 0.930 . S
H2092 C2105 0.929 . S
H2093 C2103 0.929 . S
H2094 C2098 0.929 . S
H2095 C2104 0.929 . S
C2096 H2090 0.930 . S
C2096 C2097 1.367 . S
C2096 C2104 1.378 . S
C2097 C2096 1.367 . S
C2097 C2105 1.433 . S
C2098 H2094 0.929 . S
C2098 C2100 1.378 . S
C2098 C2102 1.350 . S
C2099 C2102 1.463 . S
C2099 C2104 1.350 . S
C2099 N2107 1.427 . S
C2100 H2091 0.930 . S
C2100 C2098 1.378 . S
C2100 C2101 1.367 . S
C2101 C2100 1.367 . S
C2101 C2103 1.433 . S
C2102 C2098 1.350 . S
C2102 C2099 1.463 . S
C2102 N2106 1.427 . S
C2103 H2093 0.929 . S
C2103 C2101 1.433 . S
C2103 N2106 1.384 . S
C2104 H2095 0.929 . S
C2104 C2096 1.378 . S
C2104 C2099 1.350 . S
C2105 H2092 0.929 . S
C2105 C2097 1.433 . S
C2105 N2107 1.384 . S
N2106 C2102 1.427 . S
N2106 C2103 1.384 . S
N2107 C2099 1.427 . S
N2107 C2105 1.384 . S
H2108 C2114 0.930 . S
H2109 C2118 0.930 . S
H2110 C2123 0.929 . S
H2111 C2121 0.929 . S
H2112 C2116 0.929 . S
H2113 C2122 0.929 . S
C2114 H2108 0.930 . S
C2114 C2115 1.367 . S
C2114 C2122 1.378 . S
C2115 C2114 1.367 . S
C2115 C2123 1.433 . S
C2116 H2112 0.929 . S
C2116 C2118 1.378 . S
C2116 C2120 1.350 . S
C2117 C2120 1.463 . S
C2117 C2122 1.350 . S
C2117 N2125 1.427 . S
C2118 H2109 0.930 . S
C2118 C2116 1.378 . S
C2118 C2119 1.367 . S
C2119 C2118 1.367 . S
C2119 C2121 1.433 . S
C2120 C2116 1.350 . S
C2120 C2117 1.463 . S
C2120 N2124 1.427 . S
C2121 H2111 0.929 . S
C2121 C2119 1.433 . S
C2121 N2124 1.384 . S
C2122 H2113 0.929 . S
C2122 C2114 1.378 . S
C2122 C2117 1.350 . S
C2123 H2110 0.929 . S
C2123 C2115 1.433 . S
C2123 N2125 1.384 . S
N2124 C2120 1.427 . S
N2124 C2121 1.384 . S
N2125 C2117 1.427 . S
N2125 C2123 1.384 . S
H2126 C2132 0.930 . S
H2127 C2136 0.930 . S
H2128 C2141 0.929 . S
H2129 C2139 0.972 . S
H2130 C2134 0.929 . S
H2131 C2140 0.929 . S
C2132 H2126 0.930 . S
C2132 C2133 1.367 . S
C2132 C2140 1.378 . S
C2133 C2132 1.367 . S
C2133 C2141 1.433 . S
C2134 H2130 0.929 . S
C2134 C2136 1.378 . S
C2134 C2138 1.350 . S
C2135 C2138 1.463 . S
C2135 C2140 1.350 . S
C2135 N2143 1.427 . S
C2136 H2127 0.930 . S
C2136 C2134 1.378 . S
C2136 C2137 1.367 . S
C2137 C2136 1.367 . S
C2137 C2139 1.429 1_655 S
C2138 C2134 1.350 . S
C2138 C2135 1.463 . S
C2138 N2142 1.427 . S
C2139 H2129 0.972 . S
C2139 C2137 1.429 1_455 S
C2139 N2142 1.344 1_455 S
C2140 H2131 0.929 . S
C2140 C2132 1.378 . S
C2140 C2135 1.350 . S
C2141 H2128 0.929 . S
C2141 C2133 1.433 . S
C2141 N2143 1.384 . S
N2142 C2138 1.427 . S
N2142 C2139 1.344 1_655 S
N2143 C2135 1.427 . S
N2143 C2141 1.384 . S
H2144 C2150 0.930 . S
H2145 C2154 0.930 . S
H2146 C2159 0.929 . S
H2147 C2157 0.929 . S
H2148 C2152 0.929 . S
H2149 C2158 0.929 . S
C2150 H2144 0.930 . S
C2150 C2151 1.367 . S
C2150 C2158 1.378 . S
C2151 C2150 1.367 . S
C2151 C2159 1.433 . S
C2152 H2148 0.929 . S
C2152 C2154 1.378 . S
C2152 C2156 1.350 . S
C2153 C2156 1.463 . S
C2153 C2158 1.350 . S
C2153 N2161 1.427 . S
C2154 H2145 0.930 . S
C2154 C2152 1.378 . S
C2154 C2155 1.367 . S
C2155 C2154 1.367 . S
C2155 C2157 1.433 . S
C2156 C2152 1.350 . S
C2156 C2153 1.463 . S
C2156 N2160 1.427 . S
C2157 H2147 0.929 . S
C2157 C2155 1.433 . S
C2157 N2160 1.384 . S
C2158 H2149 0.929 . S
C2158 C2150 1.378 . S
C2158 C2153 1.350 . S
C2159 H2146 0.929 . S
C2159 C2151 1.433 . S
C2159 N2161 1.384 . S
N2160 C2156 1.427 . S
N2160 C2157 1.384 . S
N2161 C2153 1.427 . S
N2161 C2159 1.384 . S
H2162 C2168 0.930 . S
H2163 C2172 0.930 . S
H2164 C2177 0.929 . S
H2165 C2175 0.929 . S
H2166 C2170 0.929 . S
H2167 C2176 0.929 . S
C2168 H2162 0.930 . S
C2168 C2169 1.367 . S
C2168 C2176 1.378 . S
C2169 C2168 1.367 . S
C2169 C2177 1.433 . S
C2170 H2166 0.929 . S
C2170 C2172 1.378 . S
C2170 C2174 1.350 . S
C2171 C2174 1.463 . S
C2171 C2176 1.350 . S
C2171 N2179 1.427 . S
C2172 H2163 0.930 . S
C2172 C2170 1.378 . S
C2172 C2173 1.367 . S
C2173 C2172 1.367 . S
C2173 C2175 1.433 . S
C2174 C2170 1.350 . S
C2174 C2171 1.463 . S
C2174 N2178 1.427 . S
C2175 H2165 0.929 . S
C2175 C2173 1.433 . S
C2175 N2178 1.384 . S
C2176 H2167 0.929 . S
C2176 C2168 1.378 . S
C2176 C2171 1.350 . S
C2177 H2164 0.929 . S
C2177 C2169 1.433 . S
C2177 N2179 1.384 . S
N2178 C2174 1.427 . S
N2178 C2175 1.384 . S
N2179 C2171 1.427 . S
N2179 C2177 1.384 . S
H2180 C2186 0.930 . S
H2181 C2190 0.930 . S
H2182 C2195 0.929 . S
H2183 C2193 0.929 . S
H2184 C2188 0.929 . S
H2185 C2194 0.929 . S
C2186 H2180 0.930 . S
C2186 C2187 1.367 . S
C2186 C2194 1.378 . S
C2187 C2186 1.367 . S
C2187 C2195 1.433 . S
C2188 H2184 0.929 . S
C2188 C2190 1.378 . S
C2188 C2192 1.350 . S
C2189 C2192 1.463 . S
C2189 C2194 1.350 . S
C2189 N2197 1.427 . S
C2190 H2181 0.930 . S
C2190 C2188 1.378 . S
C2190 C2191 1.367 . S
C2191 C2190 1.367 . S
C2191 C2193 1.433 . S
C2192 C2188 1.350 . S
C2192 C2189 1.463 . S
C2192 N2196 1.427 . S
C2193 H2183 0.929 . S
C2193 C2191 1.433 . S
C2193 N2196 1.384 . S
C2194 H2185 0.929 . S
C2194 C2186 1.378 . S
C2194 C2189 1.350 . S
C2195 H2182 0.929 . S
C2195 C2187 1.433 . S
C2195 N2197 1.384 . S
N2196 C2192 1.427 . S
N2196 C2193 1.384 . S
N2197 C2189 1.427 . S
N2197 C2195 1.384 . S
H2198 C2204 0.930 . S
H2199 C2208 0.930 . S
H2200 C2213 0.929 . S
H2201 C2211 0.911 1_455 S
H2202 C2206 0.929 . S
H2203 C2212 0.929 . S
C2204 H2198 0.930 . S
C2204 C2205 1.367 . S
C2204 C2212 1.378 . S
C2205 C2204 1.367 . S
C2205 C2213 1.433 . S
C2206 H2202 0.929 . S
C2206 C2208 1.378 . S
C2206 C2210 1.350 . S
C2207 C2210 1.463 . S
C2207 C2212 1.350 . S
C2207 N2215 1.427 . S
C2208 H2199 0.930 . S
C2208 C2206 1.378 . S
C2208 C2209 1.367 . S
C2209 C2208 1.367 . S
C2209 C2211 1.433 . S
C2210 C2206 1.350 . S
C2210 C2207 1.463 . S
C2210 N2214 1.427 . S
C2211 H2201 0.911 1_655 S
C2211 C2209 1.433 . S
C2211 N2214 1.384 . S
C2212 H2203 0.929 . S
C2212 C2204 1.378 . S
C2212 C2207 1.350 . S
C2213 H2200 0.929 . S
C2213 C2205 1.433 . S
C2213 N2215 1.384 . S
N2214 C2210 1.427 . S
N2214 C2211 1.384 . S
N2215 C2207 1.427 . S
N2215 C2213 1.384 . S
H2216 C2222 0.930 . S
H2217 C2226 0.930 . S
H2218 C2231 0.929 . S
H2219 C2229 0.929 . S
H2220 C2224 0.929 . S
H2221 C2230 0.929 . S
C2222 H2216 0.930 . S
C2222 C2223 1.367 . S
C2222 C2230 1.378 . S
C2223 C2222 1.367 . S
C2223 C2231 1.433 . S
C2224 H2220 0.929 . S
C2224 C2226 1.378 . S
C2224 C2228 1.350 . S
C2225 C2228 1.463 . S
C2225 C2230 1.350 . S
C2225 N2233 1.427 . S
C2226 H2217 0.930 . S
C2226 C2224 1.378 . S
C2226 C2227 1.367 . S
C2227 C2226 1.367 . S
C2227 C2229 1.433 . S
C2228 C2224 1.350 . S
C2228 C2225 1.463 . S
C2228 N2232 1.427 . S
C2229 H2219 0.929 . S
C2229 C2227 1.433 . S
C2229 N2232 1.384 . S
C2230 H2221 0.929 . S
C2230 C2222 1.378 . S
C2230 C2225 1.350 . S
C2231 H2218 0.929 . S
C2231 C2223 1.433 . S
C2231 N2233 1.384 . S
N2232 C2228 1.427 . S
N2232 C2229 1.384 . S
N2233 C2225 1.427 . S
N2233 C2231 1.384 . S
H2234 C2240 0.930 . S
H2235 C2244 0.927 . S
H2236 C2249 0.929 . S
H2237 C2247 0.929 . S
H2238 C2242 0.929 . S
H2239 C2248 0.929 . S
C2240 H2234 0.930 . S
C2240 C2241 1.367 . S
C2240 C2248 1.378 . S
C2241 C2240 1.367 . S
C2241 C2249 1.433 . S
C2242 H2238 0.929 . S
C2242 C2244 1.381 1_655 S
C2242 C2246 1.350 . S
C2243 C2246 1.463 . S
C2243 C2248 1.350 . S
C2243 N2251 1.427 . S
C2244 H2235 0.927 . S
C2244 C2242 1.381 1_455 S
C2244 C2245 1.367 1_455 S
C2245 C2244 1.367 1_655 S
C2245 C2247 1.433 . S
C2246 C2242 1.350 . S
C2246 C2243 1.463 . S
C2246 N2250 1.427 . S
C2247 H2237 0.929 . S
C2247 C2245 1.433 . S
C2247 N2250 1.384 . S
C2248 H2239 0.929 . S
C2248 C2240 1.378 . S
C2248 C2243 1.350 . S
C2249 H2236 0.929 . S
C2249 C2241 1.433 . S
C2249 N2251 1.384 . S
N2250 C2246 1.427 . S
N2250 C2247 1.384 . S
N2251 C2243 1.427 . S
N2251 C2249 1.384 . S
H2252 C2258 0.930 . S
H2253 C2262 0.930 . S
H2254 C2267 0.929 . S
H2255 C2265 0.929 . S
H2256 C2260 0.929 . S
H2257 C2266 0.929 . S
C2258 H2252 0.930 . S
C2258 C2259 1.367 . S
C2258 C2266 1.378 . S
C2259 C2258 1.367 . S
C2259 C2267 1.433 . S
C2260 H2256 0.929 . S
C2260 C2262 1.378 . S
C2260 C2264 1.350 . S
C2261 C2264 1.463 . S
C2261 C2266 1.350 . S
C2261 N2269 1.427 . S
C2262 H2253 0.930 . S
C2262 C2260 1.378 . S
C2262 C2263 1.367 . S
C2263 C2262 1.367 . S
C2263 C2265 1.433 . S
C2264 C2260 1.350 . S
C2264 C2261 1.463 . S
C2264 N2268 1.427 . S
C2265 H2255 0.929 . S
C2265 C2263 1.433 . S
C2265 N2268 1.384 . S
C2266 H2257 0.929 . S
C2266 C2258 1.378 . S
C2266 C2261 1.350 . S
C2267 H2254 0.929 . S
C2267 C2259 1.433 . S
C2267 N2269 1.384 . S
N2268 C2264 1.427 . S
N2268 C2265 1.384 . S
N2269 C2261 1.427 . S
N2269 C2267 1.384 . S
H2270 C2276 0.930 . S
H2271 C2280 0.930 . S
H2272 C2285 0.929 . S
H2273 C2283 0.929 . S
H2274 C2278 0.929 . S
H2275 C2284 0.929 . S
C2276 H2270 0.930 . S
C2276 C2277 1.367 . S
C2276 C2284 1.378 . S
C2277 C2276 1.367 . S
C2277 C2285 1.433 . S
C2278 H2274 0.929 . S
C2278 C2280 1.378 . S
C2278 C2282 1.350 . S
C2279 C2282 1.463 . S
C2279 C2284 1.350 . S
C2279 N2287 1.427 . S
C2280 H2271 0.930 . S
C2280 C2278 1.378 . S
C2280 C2281 1.367 . S
C2281 C2280 1.367 . S
C2281 C2283 1.433 . S
C2282 C2278 1.350 . S
C2282 C2279 1.463 . S
C2282 N2286 1.427 . S
C2283 H2273 0.929 . S
C2283 C2281 1.433 . S
C2283 N2286 1.384 . S
C2284 H2275 0.929 . S
C2284 C2276 1.378 . S
C2284 C2279 1.350 . S
C2285 H2272 0.929 . S
C2285 C2277 1.433 . S
C2285 N2287 1.384 . S
N2286 C2282 1.427 . S
N2286 C2283 1.384 . S
N2287 C2279 1.427 . S
N2287 C2285 1.384 . S
H2288 C2294 0.930 . S
H2289 C2298 0.930 . S
H2290 C2303 0.929 . S
H2291 C2301 0.929 . S
H2292 C2296 0.929 . S
H2293 C2302 0.929 . S
C2294 H2288 0.930 . S
C2294 C2295 1.367 . S
C2294 C2302 1.378 . S
C2295 C2294 1.367 . S
C2295 C2303 1.433 . S
C2296 H2292 0.929 . S
C2296 C2298 1.378 . S
C2296 C2300 1.350 . S
C2297 C2300 1.463 . S
C2297 C2302 1.350 . S
C2297 N2305 1.427 . S
C2298 H2289 0.930 . S
C2298 C2296 1.378 . S
C2298 C2299 1.367 . S
C2299 C2298 1.367 . S
C2299 C2301 1.433 . S
C2300 C2296 1.350 . S
C2300 C2297 1.463 . S
C2300 N2304 1.427 . S
C2301 H2291 0.929 . S
C2301 C2299 1.433 . S
C2301 N2304 1.384 . S
C2302 H2293 0.929 . S
C2302 C2294 1.378 . S
C2302 C2297 1.350 . S
C2303 H2290 0.929 . S
C2303 C2295 1.433 . S
C2303 N2305 1.384 . S
N2304 C2300 1.427 . S
N2304 C2301 1.384 . S
N2305 C2297 1.427 . S
N2305 C2303 1.384 . S
H2306 C2312 0.930 . S
H2307 C2316 0.930 . S
H2308 C2321 0.929 . S
H2309 C2319 0.929 . S
H2310 C2314 0.929 . S
H2311 C2320 0.929 . S
C2312 H2306 0.930 . S
C2312 C2313 1.367 . S
C2312 C2320 1.378 . S
C2313 C2312 1.367 . S
C2313 C2321 1.433 . S
C2314 H2310 0.929 . S
C2314 C2316 1.378 . S
C2314 C2318 1.350 . S
C2315 C2318 1.463 . S
C2315 C2320 1.350 . S
C2315 N2323 1.427 . S
C2316 H2307 0.930 . S
C2316 C2314 1.378 . S
C2316 C2317 1.367 . S
C2317 C2316 1.367 . S
C2317 C2319 1.433 . S
C2318 C2314 1.350 . S
C2318 C2315 1.463 . S
C2318 N2322 1.427 . S
C2319 H2309 0.929 . S
C2319 C2317 1.433 . S
C2319 N2322 1.384 . S
C2320 H2311 0.929 . S
C2320 C2312 1.378 . S
C2320 C2315 1.350 . S
C2321 H2308 0.929 . S
C2321 C2313 1.433 . S
C2321 N2323 1.384 . S
N2322 C2318 1.427 . S
N2322 C2319 1.384 . S
N2323 C2315 1.427 . S
N2323 C2321 1.384 . S
H2324 C2330 0.930 . S
H2325 C2334 0.930 . S
H2326 C2339 0.929 . S
H2327 C2337 0.929 . S
H2328 C2332 0.929 . S
H2329 C2338 0.929 . S
C2330 H2324 0.930 . S
C2330 C2331 1.367 . S
C2330 C2338 1.378 . S
C2331 C2330 1.367 . S
C2331 C2339 1.433 . S
C2332 H2328 0.929 . S
C2332 C2334 1.378 . S
C2332 C2336 1.350 . S
C2333 C2336 1.463 . S
C2333 C2338 1.350 . S
C2333 N2341 1.427 . S
C2334 H2325 0.930 . S
C2334 C2332 1.378 . S
C2334 C2335 1.367 . S
C2335 C2334 1.367 . S
C2335 C2337 1.433 . S
C2336 C2332 1.350 . S
C2336 C2333 1.463 . S
C2336 N2340 1.427 . S
C2337 H2327 0.929 . S
C2337 C2335 1.433 . S
C2337 N2340 1.384 . S
C2338 H2329 0.929 . S
C2338 C2330 1.378 . S
C2338 C2333 1.350 . S
C2339 H2326 0.929 . S
C2339 C2331 1.433 . S
C2339 N2341 1.384 . S
N2340 C2336 1.427 . S
N2340 C2337 1.384 . S
N2341 C2333 1.427 . S
N2341 C2339 1.384 . S
H2342 C2348 0.930 1_655 S
H2343 C2352 0.930 . S
H2344 C2357 0.929 . S
H2345 C2355 0.929 . S
H2346 C2350 0.929 . S
H2347 C2356 0.929 . S
C2348 H2342 0.930 1_455 S
C2348 C2349 1.367 . S
C2348 C2356 1.378 . S
C2349 C2348 1.367 . S
C2349 C2357 1.433 . S
C2350 H2346 0.929 . S
C2350 C2352 1.378 . S
C2350 C2354 1.350 . S
C2351 C2354 1.463 . S
C2351 C2356 1.350 . S
C2351 N2359 1.427 . S
C2352 H2343 0.930 . S
C2352 C2350 1.378 . S
C2352 C2353 1.367 . S
C2353 C2352 1.367 . S
C2353 C2355 1.433 . S
C2354 C2350 1.350 . S
C2354 C2351 1.463 . S
C2354 N2358 1.427 . S
C2355 H2345 0.929 . S
C2355 C2353 1.433 . S
C2355 N2358 1.384 . S
C2356 H2347 0.929 . S
C2356 C2348 1.378 . S
C2356 C2351 1.350 . S
C2357 H2344 0.929 . S
C2357 C2349 1.433 . S
C2357 N2359 1.384 . S
N2358 C2354 1.427 . S
N2358 C2355 1.384 . S
N2359 C2351 1.427 . S
N2359 C2357 1.384 . S
H2360 C2366 0.930 . S
H2361 C2370 0.930 . S
H2362 C2375 0.929 . S
H2363 C2373 0.929 . S
H2364 C2368 0.929 . S
H2365 C2374 0.929 . S
C2366 H2360 0.930 . S
C2366 C2367 1.367 . S
C2366 C2374 1.378 . S
C2367 C2366 1.367 . S
C2367 C2375 1.433 . S
C2368 H2364 0.929 . S
C2368 C2370 1.378 . S
C2368 C2372 1.350 . S
C2369 C2372 1.463 . S
C2369 C2374 1.350 . S
C2369 N2377 1.427 . S
C2370 H2361 0.930 . S
C2370 C2368 1.378 . S
C2370 C2371 1.367 . S
C2371 C2370 1.367 . S
C2371 C2373 1.433 . S
C2372 C2368 1.350 . S
C2372 C2369 1.463 . S
C2372 N2376 1.427 . S
C2373 H2363 0.929 . S
C2373 C2371 1.433 . S
C2373 N2376 1.384 . S
C2374 H2365 0.929 . S
C2374 C2366 1.378 . S
C2374 C2369 1.350 . S
C2375 H2362 0.929 . S
C2375 C2367 1.433 . S
C2375 N2377 1.384 . S
N2376 C2372 1.427 . S
N2376 C2373 1.384 . S
N2377 C2369 1.427 . S
N2377 C2375 1.384 . S
H2378 C2384 0.930 . S
H2379 C2388 0.930 . S
H2380 C2393 0.929 . S
H2381 C2391 0.925 1_655 S
H2382 C2386 0.929 . S
H2383 C2392 0.929 . S
C2384 H2378 0.930 . S
C2384 C2385 1.367 . S
C2384 C2392 1.378 . S
C2385 C2384 1.367 . S
C2385 C2393 1.433 . S
C2386 H2382 0.929 . S
C2386 C2388 1.378 . S
C2386 C2390 1.350 . S
C2387 C2390 1.463 . S
C2387 C2392 1.350 . S
C2387 N2395 1.427 . S
C2388 H2379 0.930 . S
C2388 C2386 1.378 . S
C2388 C2389 1.367 . S
C2389 C2388 1.367 . S
C2389 C2391 1.433 . S
C2390 C2386 1.350 . S
C2390 C2387 1.463 . S
C2390 N2394 1.427 . S
C2391 H2381 0.925 1_455 S
C2391 C2389 1.433 . S
C2391 N2394 1.384 . S
C2392 H2383 0.929 . S
C2392 C2384 1.378 . S
C2392 C2387 1.350 . S
C2393 H2380 0.929 . S
C2393 C2385 1.433 . S
C2393 N2395 1.384 . S
N2394 C2390 1.427 . S
N2394 C2391 1.384 . S
N2395 C2387 1.427 . S
N2395 C2393 1.384 . S
H2396 C2402 0.930 . S
H2397 C2406 0.930 . S
H2398 C2411 0.929 . S
H2399 C2409 0.929 . S
H2400 C2404 0.929 . S
H2401 C2410 0.929 . S
C2402 H2396 0.930 . S
C2402 C2403 1.367 . S
C2402 C2410 1.378 . S
C2403 C2402 1.367 . S
C2403 C2411 1.433 . S
C2404 H2400 0.929 . S
C2404 C2406 1.378 . S
C2404 C2408 1.350 . S
C2405 C2408 1.463 . S
C2405 C2410 1.350 . S
C2405 N2413 1.427 . S
C2406 H2397 0.930 . S
C2406 C2404 1.378 . S
C2406 C2407 1.367 . S
C2407 C2406 1.367 . S
C2407 C2409 1.433 . S
C2408 C2404 1.350 . S
C2408 C2405 1.463 . S
C2408 N2412 1.427 . S
C2409 H2399 0.929 . S
C2409 C2407 1.433 . S
C2409 N2412 1.384 . S
C2410 H2401 0.929 . S
C2410 C2402 1.378 . S
C2410 C2405 1.350 . S
C2411 H2398 0.929 . S
C2411 C2403 1.433 . S
C2411 N2413 1.384 . S
N2412 C2408 1.427 . S
N2412 C2409 1.384 . S
N2413 C2405 1.427 . S
N2413 C2411 1.384 . S
H2414 C2420 0.930 . S
H2415 C2424 0.930 . S
H2416 C2429 0.929 . S
H2417 C2427 0.929 . S
H2418 C2422 0.929 . S
H2419 C2428 0.929 . S
C2420 H2414 0.930 . S
C2420 C2421 1.367 . S
C2420 C2428 1.378 . S
C2421 C2420 1.367 . S
C2421 C2429 1.433 . S
C2422 H2418 0.929 . S
C2422 C2424 1.378 . S
C2422 C2426 1.350 . S
C2423 C2426 1.463 . S
C2423 C2428 1.350 . S
C2423 N2431 1.427 . S
C2424 H2415 0.930 . S
C2424 C2422 1.378 . S
C2424 C2425 1.367 . S
C2425 C2424 1.367 . S
C2425 C2427 1.433 . S
C2426 C2422 1.350 . S
C2426 C2423 1.463 . S
C2426 N2430 1.427 . S
C2427 H2417 0.929 . S
C2427 C2425 1.433 . S
C2427 N2430 1.384 . S
C2428 H2419 0.929 . S
C2428 C2420 1.378 . S
C2428 C2423 1.350 . S
C2429 H2416 0.929 . S
C2429 C2421 1.433 . S
C2429 N2431 1.384 . S
N2430 C2426 1.427 . S
N2430 C2427 1.384 . S
N2431 C2423 1.427 . S
N2431 C2429 1.384 . S
H2432 C2438 0.930 . S
H2433 C2442 0.930 . S
H2434 C2447 0.929 . S
H2435 C2445 0.929 . S
H2436 C2440 0.929 . S
H2437 C2446 0.929 . S
C2438 H2432 0.930 . S
C2438 C2439 1.367 . S
C2438 C2446 1.378 . S
C2439 C2438 1.367 . S
C2439 C2447 1.433 . S
C2440 H2436 0.929 . S
C2440 C2442 1.378 . S
C2440 C2444 1.350 . S
C2441 C2444 1.463 1_545 S
C2441 C2446 1.350 . S
C2441 N2449 1.427 . S
C2442 H2433 0.930 . S
C2442 C2440 1.378 . S
C2442 C2443 1.367 . S
C2443 C2442 1.367 . S
C2443 C2445 1.433 . S
C2444 C2440 1.350 . S
C2444 C2441 1.463 1_565 S
C2444 N2448 1.427 . S
C2445 H2435 0.929 . S
C2445 C2443 1.433 . S
C2445 N2448 1.384 . S
C2446 H2437 0.929 . S
C2446 C2438 1.378 . S
C2446 C2441 1.350 . S
C2447 H2434 0.929 . S
C2447 C2439 1.433 . S
C2447 N2449 1.384 . S
N2448 C2444 1.427 . S
N2448 C2445 1.384 . S
N2449 C2441 1.427 . S
N2449 C2447 1.384 . S
H2450 C2456 0.930 . S
H2451 C2460 0.930 . S
H2452 C2465 0.929 . S
H2453 C2463 0.929 . S
H2454 C2458 0.929 . S
H2455 C2464 0.929 . S
C2456 H2450 0.930 . S
C2456 C2457 1.367 . S
C2456 C2464 1.378 . S
C2457 C2456 1.367 . S
C2457 C2465 1.433 . S
C2458 H2454 0.929 . S
C2458 C2460 1.378 . S
C2458 C2462 1.350 . S
C2459 C2462 1.463 . S
C2459 C2464 1.350 . S
C2459 N2467 1.427 . S
C2460 H2451 0.930 . S
C2460 C2458 1.378 . S
C2460 C2461 1.367 . S
C2461 C2460 1.367 . S
C2461 C2463 1.433 . S
C2462 C2458 1.350 . S
C2462 C2459 1.463 . S
C2462 N2466 1.427 . S
C2463 H2453 0.929 . S
C2463 C2461 1.433 . S
C2463 N2466 1.384 . S
C2464 H2455 0.929 . S
C2464 C2456 1.378 . S
C2464 C2459 1.350 . S
C2465 H2452 0.929 . S
C2465 C2457 1.433 . S
C2465 N2467 1.384 . S
N2466 C2462 1.427 . S
N2466 C2463 1.384 . S
N2467 C2459 1.427 . S
N2467 C2465 1.384 . S
H2468 C2474 0.930 . S
H2469 C2478 0.930 . S
H2470 C2483 0.929 . S
H2471 C2481 0.929 . S
H2472 C2476 0.929 . S
H2473 C2482 0.929 . S
C2474 H2468 0.930 . S
C2474 C2475 1.367 . S
C2474 C2482 1.378 . S
C2475 C2474 1.367 . S
C2475 C2483 1.433 . S
C2476 H2472 0.929 . S
C2476 C2478 1.378 . S
C2476 C2480 1.350 . S
C2477 C2480 1.463 1_565 S
C2477 C2482 1.350 . S
C2477 N2485 1.427 . S
C2478 H2469 0.930 . S
C2478 C2476 1.378 . S
C2478 C2479 1.367 . S
C2479 C2478 1.367 . S
C2479 C2481 1.433 . S
C2480 C2476 1.350 . S
C2480 C2477 1.463 1_545 S
C2480 N2484 1.427 . S
C2481 H2471 0.929 . S
C2481 C2479 1.433 . S
C2481 N2484 1.384 . S
C2482 H2473 0.929 . S
C2482 C2474 1.378 . S
C2482 C2477 1.350 . S
C2483 H2470 0.929 . S
C2483 C2475 1.433 . S
C2483 N2485 1.384 . S
N2484 C2480 1.427 . S
N2484 C2481 1.384 . S
N2485 C2477 1.427 . S
N2485 C2483 1.384 . S
H2486 C2492 0.930 . S
H2487 C2496 0.930 . S
H2488 C2501 0.929 . S
H2489 C2499 0.929 . S
H2490 C2494 0.929 . S
H2491 C2500 0.929 . S
C2492 H2486 0.930 . S
C2492 C2493 1.367 . S
C2492 C2500 1.378 . S
C2493 C2492 1.367 . S
C2493 C2501 1.433 1_556 S
C2494 H2490 0.929 . S
C2494 C2496 1.378 . S
C2494 C2498 1.350 . S
C2495 C2498 1.463 1_556 S
C2495 C2500 1.350 . S
C2495 N2503 1.427 1_556 S
C2496 H2487 0.930 . S
C2496 C2494 1.378 . S
C2496 C2497 1.367 . S
C2497 C2496 1.367 . S
C2497 C2499 1.433 1_554 S
C2498 C2494 1.350 . S
C2498 C2495 1.463 1_554 S
C2498 N2502 1.427 1_554 S
C2499 H2489 0.929 . S
C2499 C2497 1.433 1_556 S
C2499 N2502 1.384 . S
C2500 H2491 0.929 . S
C2500 C2492 1.378 . S
C2500 C2495 1.350 . S
C2501 H2488 0.929 . S
C2501 C2493 1.433 1_554 S
C2501 N2503 1.384 . S
N2502 C2498 1.427 1_556 S
N2502 C2499 1.384 . S
N2503 C2495 1.427 1_554 S
N2503 C2501 1.384 . S
H2504 C2510 0.930 . S
H2505 C2514 0.930 . S
H2506 C2519 0.929 . S
H2507 C2517 0.929 . S
H2508 C2512 0.929 . S
H2509 C2518 0.929 . S
C2510 H2504 0.930 . S
C2510 C2511 1.367 . S
C2510 C2518 1.378 . S
C2511 C2510 1.367 . S
C2511 C2519 1.433 . S
C2512 H2508 0.929 . S
C2512 C2514 1.378 . S
C2512 C2516 1.350 . S
C2513 C2516 1.463 1_545 S
C2513 C2518 1.350 . S
C2513 N2521 1.427 . S
C2514 H2505 0.930 . S
C2514 C2512 1.378 . S
C2514 C2515 1.367 . S
C2515 C2514 1.367 . S
C2515 C2517 1.433 . S
C2516 C2512 1.350 . S
C2516 C2513 1.463 1_565 S
C2516 N2520 1.427 . S
C2517 H2507 0.929 . S
C2517 C2515 1.433 . S
C2517 N2520 1.384 . S
C2518 H2509 0.929 . S
C2518 C2510 1.378 . S
C2518 C2513 1.350 . S
C2519 H2506 0.929 . S
C2519 C2511 1.433 . S
C2519 N2521 1.384 . S
N2520 C2516 1.427 . S
N2520 C2517 1.384 . S
N2521 C2513 1.427 . S
N2521 C2519 1.384 . S
H2522 C2528 0.930 . S
H2523 C2532 0.930 . S
H2524 C2537 0.929 . S
H2525 C2535 0.929 . S
H2526 C2530 0.929 . S
H2527 C2536 0.929 . S
C2528 H2522 0.930 . S
C2528 C2529 1.367 . S
C2528 C2536 1.378 . S
C2529 C2528 1.367 . S
C2529 C2537 1.433 . S
C2530 H2526 0.929 . S
C2530 C2532 1.378 . S
C2530 C2534 1.350 . S
C2531 C2534 1.463 . S
C2531 C2536 1.350 . S
C2531 N2539 1.427 . S
C2532 H2523 0.930 . S
C2532 C2530 1.378 . S
C2532 C2533 1.367 . S
C2533 C2532 1.367 . S
C2533 C2535 1.433 . S
C2534 C2530 1.350 . S
C2534 C2531 1.463 . S
C2534 N2538 1.427 . S
C2535 H2525 0.929 . S
C2535 C2533 1.433 . S
C2535 N2538 1.384 . S
C2536 H2527 0.929 . S
C2536 C2528 1.378 . S
C2536 C2531 1.350 . S
C2537 H2524 0.929 . S
C2537 C2529 1.433 . S
C2537 N2539 1.384 . S
N2538 C2534 1.427 . S
N2538 C2535 1.384 . S
N2539 C2531 1.427 . S
N2539 C2537 1.384 . S
H2540 C2546 0.930 . S
H2541 C2550 0.930 . S
H2542 C2555 0.929 . S
H2543 C2553 0.929 . S
H2544 C2548 0.929 . S
H2545 C2554 0.929 . S
C2546 H2540 0.930 . S
C2546 C2547 1.367 . S
C2546 C2554 1.378 . S
C2547 C2546 1.367 . S
C2547 C2555 1.433 . S
C2548 H2544 0.929 . S
C2548 C2550 1.378 . S
C2548 C2552 1.350 . S
C2549 C2552 1.463 1_545 S
C2549 C2554 1.350 . S
C2549 N2557 1.427 . S
C2550 H2541 0.930 . S
C2550 C2548 1.378 . S
C2550 C2551 1.367 . S
C2551 C2550 1.367 . S
C2551 C2553 1.433 . S
C2552 C2548 1.350 . S
C2552 C2549 1.463 1_565 S
C2552 N2556 1.427 . S
C2553 H2543 0.929 . S
C2553 C2551 1.433 . S
C2553 N2556 1.384 . S
C2554 H2545 0.929 . S
C2554 C2546 1.378 . S
C2554 C2549 1.350 . S
C2555 H2542 0.929 . S
C2555 C2547 1.433 . S
C2555 N2557 1.384 . S
N2556 C2552 1.427 . S
N2556 C2553 1.384 . S
N2557 C2549 1.427 . S
N2557 C2555 1.384 . S
H2558 C2564 0.930 . S
H2559 C2568 0.930 . S
H2560 C2573 0.929 . S
H2561 C2571 0.929 . S
H2562 C2566 0.929 . S
H2563 C2572 0.929 . S
C2564 H2558 0.930 . S
C2564 C2565 1.367 . S
C2564 C2572 1.378 . S
C2565 C2564 1.367 . S
C2565 C2573 1.433 1_556 S
C2566 H2562 0.929 . S
C2566 C2568 1.378 . S
C2566 C2570 1.379 . S
C2567 C2570 1.458 1_556 S
C2567 C2572 1.379 . S
C2567 N2575 1.402 1_556 S
C2568 H2559 0.930 . S
C2568 C2566 1.378 . S
C2568 C2569 1.367 . S
C2569 C2568 1.367 . S
C2569 C2571 1.433 1_554 S
C2570 C2566 1.379 . S
C2570 C2567 1.458 1_554 S
C2570 N2574 1.401 1_554 S
C2571 H2561 0.929 . S
C2571 C2569 1.433 1_556 S
C2571 N2574 1.384 . S
C2572 H2563 0.929 . S
C2572 C2564 1.378 . S
C2572 C2567 1.379 . S
C2573 H2560 0.929 . S
C2573 C2565 1.433 1_554 S
C2573 N2575 1.384 . S
N2574 C2570 1.401 1_556 S
N2574 C2571 1.384 . S
N2575 C2567 1.402 1_554 S
N2575 C2573 1.384 . S
H2576 C2582 0.930 . S
H2577 C2586 0.930 . S
H2578 C2591 0.929 . S
H2579 C2589 0.929 . S
H2580 C2584 0.929 . S
H2581 C2590 0.929 . S
C2582 H2576 0.930 . S
C2582 C2583 1.367 . S
C2582 C2590 1.378 . S
C2583 C2582 1.367 . S
C2583 C2591 1.433 . S
C2584 H2580 0.929 . S
C2584 C2586 1.378 . S
C2584 C2588 1.350 . S
C2585 C2588 1.463 . S
C2585 C2590 1.350 . S
C2585 N2593 1.427 . S
C2586 H2577 0.930 . S
C2586 C2584 1.378 . S
C2586 C2587 1.367 . S
C2587 C2586 1.367 . S
C2587 C2589 1.433 . S
C2588 C2584 1.350 . S
C2588 C2585 1.463 . S
C2588 N2592 1.427 . S
C2589 H2579 0.929 . S
C2589 C2587 1.433 . S
C2589 N2592 1.384 . S
C2590 H2581 0.929 . S
C2590 C2582 1.378 . S
C2590 C2585 1.350 . S
C2591 H2578 0.929 . S
C2591 C2583 1.433 . S
C2591 N2593 1.384 . S
N2592 C2588 1.427 . S
N2592 C2589 1.384 . S
N2593 C2585 1.427 . S
N2593 C2591 1.384 . S
H2594 C2600 0.930 . S
H2595 C2604 0.930 . S
H2596 C2609 0.929 . S
H2597 C2607 0.929 . S
H2598 C2602 0.929 . S
H2599 C2608 0.929 . S
C2600 H2594 0.930 . S
C2600 C2601 1.367 . S
C2600 C2608 1.378 . S
C2601 C2600 1.367 . S
C2601 C2609 1.433 1_556 S
C2602 H2598 0.929 . S
C2602 C2604 1.378 . S
C2602 C2606 1.350 . S
C2603 C2606 1.463 1_556 S
C2603 C2608 1.350 . S
C2603 N2611 1.427 1_556 S
C2604 H2595 0.930 . S
C2604 C2602 1.378 . S
C2604 C2605 1.367 . S
C2605 C2604 1.367 . S
C2605 C2607 1.433 1_554 S
C2606 C2602 1.350 . S
C2606 C2603 1.463 1_554 S
C2606 N2610 1.427 1_554 S
C2607 H2597 0.929 . S
C2607 C2605 1.433 1_556 S
C2607 N2610 1.384 . S
C2608 H2599 0.929 . S
C2608 C2600 1.378 . S
C2608 C2603 1.350 . S
C2609 H2596 0.929 . S
C2609 C2601 1.433 1_554 S
C2609 N2611 1.384 . S
N2610 C2606 1.427 1_556 S
N2610 C2607 1.384 . S
N2611 C2603 1.427 1_554 S
N2611 C2609 1.384 . S
H2612 C2618 0.930 . S
H2613 C2622 0.930 . S
H2614 C2627 0.929 . S
H2615 C2625 0.929 . S
H2616 C2620 0.929 . S
H2617 C2626 0.929 . S
C2618 H2612 0.930 . S
C2618 C2619 1.367 . S
C2618 C2626 1.378 . S
C2619 C2618 1.367 . S
C2619 C2627 1.433 . S
C2620 H2616 0.929 . S
C2620 C2622 1.378 . S
C2620 C2624 1.350 . S
C2621 C2624 1.463 . S
C2621 C2626 1.350 . S
C2621 N2629 1.427 . S
C2622 H2613 0.930 . S
C2622 C2620 1.378 . S
C2622 C2623 1.367 . S
C2623 C2622 1.367 . S
C2623 C2625 1.433 . S
C2624 C2620 1.350 . S
C2624 C2621 1.463 . S
C2624 N2628 1.427 . S
C2625 H2615 0.929 . S
C2625 C2623 1.433 . S
C2625 N2628 1.384 . S
C2626 H2617 0.929 . S
C2626 C2618 1.378 . S
C2626 C2621 1.350 . S
C2627 H2614 0.929 . S
C2627 C2619 1.433 . S
C2627 N2629 1.384 . S
N2628 C2624 1.427 . S
N2628 C2625 1.384 . S
N2629 C2621 1.427 . S
N2629 C2627 1.384 . S
H2630 C2636 0.930 . S
H2631 C2640 0.930 . S
H2632 C2645 0.929 . S
H2633 C2643 0.929 . S
H2634 C2638 0.929 . S
H2635 C2644 0.929 . S
C2636 H2630 0.930 . S
C2636 C2637 1.367 . S
C2636 C2644 1.378 . S
C2637 C2636 1.367 . S
C2637 C2645 1.433 . S
C2638 H2634 0.929 . S
C2638 C2640 1.378 . S
C2638 C2642 1.350 . S
C2639 C2642 1.463 . S
C2639 C2644 1.350 . S
C2639 N2647 1.427 . S
C2640 H2631 0.930 . S
C2640 C2638 1.378 . S
C2640 C2641 1.367 . S
C2641 C2640 1.367 . S
C2641 C2643 1.433 . S
C2642 C2638 1.350 . S
C2642 C2639 1.463 . S
C2642 N2646 1.427 . S
C2643 H2633 0.929 . S
C2643 C2641 1.433 . S
C2643 N2646 1.384 . S
C2644 H2635 0.929 . S
C2644 C2636 1.378 . S
C2644 C2639 1.350 . S
C2645 H2632 0.929 . S
C2645 C2637 1.433 . S
C2645 N2647 1.384 . S
N2646 C2642 1.427 . S
N2646 C2643 1.384 . S
N2647 C2639 1.427 . S
N2647 C2645 1.384 . S
H2648 C2654 0.930 . S
H2649 C2658 0.930 . S
H2650 C2663 0.929 . S
H2651 C2661 0.929 . S
H2652 C2656 0.929 . S
H2653 C2662 0.929 . S
C2654 H2648 0.930 . S
C2654 C2655 1.367 . S
C2654 C2662 1.378 . S
C2655 C2654 1.367 . S
C2655 C2663 1.433 . S
C2656 H2652 0.929 . S
C2656 C2658 1.378 . S
C2656 C2660 1.350 . S
C2657 C2660 1.463 . S
C2657 C2662 1.350 . S
C2657 N2665 1.427 . S
C2658 H2649 0.930 . S
C2658 C2656 1.378 . S
C2658 C2659 1.367 . S
C2659 C2658 1.367 . S
C2659 C2661 1.433 . S
C2660 C2656 1.350 . S
C2660 C2657 1.463 . S
C2660 N2664 1.427 . S
C2661 H2651 0.929 . S
C2661 C2659 1.433 . S
C2661 N2664 1.384 . S
C2662 H2653 0.929 . S
C2662 C2654 1.378 . S
C2662 C2657 1.350 . S
C2663 H2650 0.929 . S
C2663 C2655 1.433 . S
C2663 N2665 1.384 . S
N2664 C2660 1.427 . S
N2664 C2661 1.384 . S
N2665 C2657 1.427 . S
N2665 C2663 1.384 . S
H2666 C2672 0.930 . S
H2667 C2676 0.930 . S
H2668 C2681 0.929 . S
H2669 C2679 0.929 . S
H2670 C2674 0.929 . S
H2671 C2680 0.929 . S
C2672 H2666 0.930 . S
C2672 C2673 1.367 . S
C2672 C2680 1.378 . S
C2673 C2672 1.367 . S
C2673 C2681 1.433 1_556 S
C2674 H2670 0.929 . S
C2674 C2676 1.378 . S
C2674 C2678 1.370 . S
C2675 C2678 1.459 1_556 S
C2675 C2680 1.370 . S
C2675 N2683 1.410 1_556 S
C2676 H2667 0.930 . S
C2676 C2674 1.378 . S
C2676 C2677 1.367 . S
C2677 C2676 1.367 . S
C2677 C2679 1.433 1_554 S
C2678 C2674 1.370 . S
C2678 C2675 1.459 1_554 S
C2678 N2682 1.410 1_554 S
C2679 H2669 0.929 . S
C2679 C2677 1.433 1_556 S
C2679 N2682 1.384 . S
C2680 H2671 0.929 . S
C2680 C2672 1.378 . S
C2680 C2675 1.370 . S
C2681 H2668 0.929 . S
C2681 C2673 1.433 1_554 S
C2681 N2683 1.384 . S
N2682 C2678 1.410 1_556 S
N2682 C2679 1.384 . S
N2683 C2675 1.410 1_554 S
N2683 C2681 1.384 . S
H2684 C2690 0.930 . S
H2685 C2694 0.930 . S
H2686 C2699 0.929 . S
H2687 C2697 0.929 . S
H2688 C2692 0.929 . S
H2689 C2698 0.929 . S
C2690 H2684 0.930 . S
C2690 C2691 1.367 . S
C2690 C2698 1.378 . S
C2691 C2690 1.367 . S
C2691 C2699 1.433 . S
C2692 H2688 0.929 . S
C2692 C2694 1.378 . S
C2692 C2696 1.350 . S
C2693 C2696 1.463 . S
C2693 C2698 1.350 . S
C2693 N2701 1.427 . S
C2694 H2685 0.930 . S
C2694 C2692 1.378 . S
C2694 C2695 1.367 . S
C2695 C2694 1.367 . S
C2695 C2697 1.433 . S
C2696 C2692 1.350 . S
C2696 C2693 1.463 . S
C2696 N2700 1.427 . S
C2697 H2687 0.929 . S
C2697 C2695 1.433 . S
C2697 N2700 1.384 . S
C2698 H2689 0.929 . S
C2698 C2690 1.378 . S
C2698 C2693 1.350 . S
C2699 H2686 0.929 . S
C2699 C2691 1.433 . S
C2699 N2701 1.384 . S
N2700 C2696 1.427 . S
N2700 C2697 1.384 . S
N2701 C2693 1.427 . S
N2701 C2699 1.384 . S
H2702 C2708 0.930 . S
H2703 C2712 0.930 . S
H2704 C2717 0.929 . S
H2705 C2715 0.929 . S
H2706 C2710 0.929 . S
H2707 C2716 0.929 . S
C2708 H2702 0.930 . S
C2708 C2709 1.367 . S
C2708 C2716 1.378 . S
C2709 C2708 1.367 . S
C2709 C2717 1.433 . S
C2710 H2706 0.929 . S
C2710 C2712 1.378 . S
C2710 C2714 1.350 . S
C2711 C2714 1.463 . S
C2711 C2716 1.350 . S
C2711 N2719 1.427 . S
C2712 H2703 0.930 . S
C2712 C2710 1.378 . S
C2712 C2713 1.367 . S
C2713 C2712 1.367 . S
C2713 C2715 1.433 . S
C2714 C2710 1.350 . S
C2714 C2711 1.463 . S
C2714 N2718 1.427 . S
C2715 H2705 0.929 . S
C2715 C2713 1.433 . S
C2715 N2718 1.384 . S
C2716 H2707 0.929 . S
C2716 C2708 1.378 . S
C2716 C2711 1.350 . S
C2717 H2704 0.929 . S
C2717 C2709 1.433 . S
C2717 N2719 1.384 . S
N2718 C2714 1.427 . S
N2718 C2715 1.384 . S
N2719 C2711 1.427 . S
N2719 C2717 1.384 . S
H2720 C2726 0.930 . S
H2721 C2730 0.930 . S
H2722 C2735 0.929 . S
H2723 C2733 0.929 . S
H2724 C2728 0.929 . S
H2725 C2734 0.929 . S
C2726 H2720 0.930 . S
C2726 C2727 1.367 . S
C2726 C2734 1.378 . S
C2727 C2726 1.367 . S
C2727 C2735 1.433 . S
C2728 H2724 0.929 . S
C2728 C2730 1.378 . S
C2728 C2732 1.350 . S
C2729 C2732 1.463 . S
C2729 C2734 1.350 . S
C2729 N2737 1.427 . S
C2730 H2721 0.930 . S
C2730 C2728 1.378 . S
C2730 C2731 1.367 . S
C2731 C2730 1.367 . S
C2731 C2733 1.433 . S
C2732 C2728 1.350 . S
C2732 C2729 1.463 . S
C2732 N2736 1.427 . S
C2733 H2723 0.929 . S
C2733 C2731 1.433 . S
C2733 N2736 1.384 . S
C2734 H2725 0.929 . S
C2734 C2726 1.378 . S
C2734 C2729 1.350 . S
C2735 H2722 0.929 . S
C2735 C2727 1.433 . S
C2735 N2737 1.384 . S
N2736 C2732 1.427 . S
N2736 C2733 1.384 . S
N2737 C2729 1.427 . S
N2737 C2735 1.384 . S
H2738 C2744 0.930 . S
H2739 C2748 0.930 . S
H2740 C2753 0.929 . S
H2741 C2751 0.929 . S
H2742 C2746 0.929 . S
H2743 C2752 0.929 . S
C2744 H2738 0.930 . S
C2744 C2745 1.367 . S
C2744 C2752 1.378 . S
C2745 C2744 1.367 . S
C2745 C2753 1.433 . S
C2746 H2742 0.929 . S
C2746 C2748 1.378 . S
C2746 C2750 1.350 . S
C2747 C2750 1.463 . S
C2747 C2752 1.350 . S
C2747 N2755 1.427 . S
C2748 H2739 0.930 . S
C2748 C2746 1.378 . S
C2748 C2749 1.367 . S
C2749 C2748 1.367 . S
C2749 C2751 1.433 . S
C2750 C2746 1.350 . S
C2750 C2747 1.463 . S
C2750 N2754 1.427 . S
C2751 H2741 0.929 . S
C2751 C2749 1.433 . S
C2751 N2754 1.384 . S
C2752 H2743 0.929 . S
C2752 C2744 1.378 . S
C2752 C2747 1.350 . S
C2753 H2740 0.929 . S
C2753 C2745 1.433 . S
C2753 N2755 1.384 . S
N2754 C2750 1.427 . S
N2754 C2751 1.384 . S
N2755 C2747 1.427 . S
N2755 C2753 1.384 . S
H2756 C2762 0.930 . S
H2757 C2766 0.930 . S
H2758 C2771 0.929 . S
H2759 C2769 0.929 . S
H2760 C2764 0.929 . S
H2761 C2770 0.929 . S
C2762 H2756 0.930 . S
C2762 C2763 1.367 . S
C2762 C2770 1.378 . S
C2763 C2762 1.367 . S
C2763 C2771 1.433 . S
C2764 H2760 0.929 . S
C2764 C2766 1.378 . S
C2764 C2768 1.350 . S
C2765 C2768 1.463 . S
C2765 C2770 1.350 . S
C2765 N2773 1.427 . S
C2766 H2757 0.930 . S
C2766 C2764 1.378 . S
C2766 C2767 1.367 . S
C2767 C2766 1.367 . S
C2767 C2769 1.433 . S
C2768 C2764 1.350 . S
C2768 C2765 1.463 . S
C2768 N2772 1.427 . S
C2769 H2759 0.929 . S
C2769 C2767 1.433 . S
C2769 N2772 1.384 . S
C2770 H2761 0.929 . S
C2770 C2762 1.378 . S
C2770 C2765 1.350 . S
C2771 H2758 0.929 . S
C2771 C2763 1.433 . S
C2771 N2773 1.384 . S
N2772 C2768 1.427 . S
N2772 C2769 1.384 . S
N2773 C2765 1.427 . S
N2773 C2771 1.384 . S
H2774 C2780 0.930 . S
H2775 C2784 0.930 . S
H2776 C2789 0.929 . S
H2777 C2787 0.929 . S
H2778 C2782 0.929 . S
H2779 C2788 0.929 . S
C2780 H2774 0.930 . S
C2780 C2781 1.367 . S
C2780 C2788 1.378 . S
C2781 C2780 1.367 . S
C2781 C2789 1.433 . S
C2782 H2778 0.929 . S
C2782 C2784 1.378 . S
C2782 C2786 1.350 . S
C2783 C2786 1.463 . S
C2783 C2788 1.350 . S
C2783 N2791 1.427 . S
C2784 H2775 0.930 . S
C2784 C2782 1.378 . S
C2784 C2785 1.367 . S
C2785 C2784 1.367 . S
C2785 C2787 1.433 . S
C2786 C2782 1.350 . S
C2786 C2783 1.463 . S
C2786 N2790 1.427 . S
C2787 H2777 0.929 . S
C2787 C2785 1.433 . S
C2787 N2790 1.384 . S
C2788 H2779 0.929 . S
C2788 C2780 1.378 . S
C2788 C2783 1.350 . S
C2789 H2776 0.929 . S
C2789 C2781 1.433 . S
C2789 N2791 1.384 . S
N2790 C2786 1.427 . S
N2790 C2787 1.384 . S
N2791 C2783 1.427 . S
N2791 C2789 1.384 . S
H2792 C2798 0.930 . S
H2793 C2802 0.930 . S
H2794 C2807 0.929 . S
H2795 C2805 0.929 . S
H2796 C2800 0.929 . S
H2797 C2806 0.929 . S
C2798 H2792 0.930 . S
C2798 C2799 1.367 . S
C2798 C2806 1.378 . S
C2799 C2798 1.367 . S
C2799 C2807 1.433 . S
C2800 H2796 0.929 . S
C2800 C2802 1.378 . S
C2800 C2804 1.350 . S
C2801 C2804 1.463 . S
C2801 C2806 1.350 . S
C2801 N2809 1.427 . S
C2802 H2793 0.930 . S
C2802 C2800 1.378 . S
C2802 C2803 1.367 . S
C2803 C2802 1.367 . S
C2803 C2805 1.433 . S
C2804 C2800 1.350 . S
C2804 C2801 1.463 . S
C2804 N2808 1.427 . S
C2805 H2795 0.929 . S
C2805 C2803 1.433 . S
C2805 N2808 1.384 . S
C2806 H2797 0.929 . S
C2806 C2798 1.378 . S
C2806 C2801 1.350 . S
C2807 H2794 0.929 . S
C2807 C2799 1.433 . S
C2807 N2809 1.384 . S
N2808 C2804 1.427 . S
N2808 C2805 1.384 . S
N2809 C2801 1.427 . S
N2809 C2807 1.384 . S
H2810 C2816 0.930 . S
H2811 C2820 0.930 . S
H2812 C2825 0.929 . S
H2813 C2823 0.929 . S
H2814 C2818 0.929 . S
H2815 C2824 0.929 . S
C2816 H2810 0.930 . S
C2816 C2817 1.367 . S
C2816 C2824 1.378 . S
C2817 C2816 1.367 . S
C2817 C2825 1.433 . S
C2818 H2814 0.929 . S
C2818 C2820 1.378 . S
C2818 C2822 1.350 . S
C2819 C2822 1.463 . S
C2819 C2824 1.350 . S
C2819 N2827 1.427 . S
C2820 H2811 0.930 . S
C2820 C2818 1.378 . S
C2820 C2821 1.367 . S
C2821 C2820 1.367 . S
C2821 C2823 1.433 . S
C2822 C2818 1.350 . S
C2822 C2819 1.463 . S
C2822 N2826 1.427 . S
C2823 H2813 0.929 . S
C2823 C2821 1.433 . S
C2823 N2826 1.384 . S
C2824 H2815 0.929 . S
C2824 C2816 1.378 . S
C2824 C2819 1.350 . S
C2825 H2812 0.929 . S
C2825 C2817 1.433 . S
C2825 N2827 1.384 . S
N2826 C2822 1.427 . S
N2826 C2823 1.384 . S
N2827 C2819 1.427 . S
N2827 C2825 1.384 . S
H2828 C2834 0.930 . S
H2829 C2838 0.930 . S
H2830 C2843 0.929 . S
H2831 C2841 0.929 . S
H2832 C2836 0.929 . S
H2833 C2842 0.929 . S
C2834 H2828 0.930 . S
C2834 C2835 1.367 . S
C2834 C2842 1.378 . S
C2835 C2834 1.367 . S
C2835 C2843 1.433 . S
C2836 H2832 0.929 . S
C2836 C2838 1.378 . S
C2836 C2840 1.350 . S
C2837 C2840 1.463 . S
C2837 C2842 1.350 . S
C2837 N2845 1.427 . S
C2838 H2829 0.930 . S
C2838 C2836 1.378 . S
C2838 C2839 1.367 . S
C2839 C2838 1.367 . S
C2839 C2841 1.433 . S
C2840 C2836 1.350 . S
C2840 C2837 1.463 . S
C2840 N2844 1.427 . S
C2841 H2831 0.929 . S
C2841 C2839 1.433 . S
C2841 N2844 1.384 . S
C2842 H2833 0.929 . S
C2842 C2834 1.378 . S
C2842 C2837 1.350 . S
C2843 H2830 0.929 . S
C2843 C2835 1.433 . S
C2843 N2845 1.384 . S
N2844 C2840 1.427 . S
N2844 C2841 1.384 . S
N2845 C2837 1.427 . S
N2845 C2843 1.384 . S
H2846 C2852 0.930 . S
H2847 C2856 0.930 . S
H2848 C2861 0.929 . S
H2849 C2859 0.929 . S
H2850 C2854 0.929 . S
H2851 C2860 0.929 . S
C2852 H2846 0.930 . S
C2852 C2853 1.367 . S
C2852 C2860 1.378 . S
C2853 C2852 1.367 . S
C2853 C2861 1.433 . S
C2854 H2850 0.929 . S
C2854 C2856 1.378 . S
C2854 C2858 1.350 . S
C2855 C2858 1.463 . S
C2855 C2860 1.350 . S
C2855 N2863 1.427 . S
C2856 H2847 0.930 . S
C2856 C2854 1.378 . S
C2856 C2857 1.367 . S
C2857 C2856 1.367 . S
C2857 C2859 1.433 . S
C2858 C2854 1.350 . S
C2858 C2855 1.463 . S
C2858 N2862 1.427 . S
C2859 H2849 0.929 . S
C2859 C2857 1.433 . S
C2859 N2862 1.384 . S
C2860 H2851 0.929 . S
C2860 C2852 1.378 . S
C2860 C2855 1.350 . S
C2861 H2848 0.929 . S
C2861 C2853 1.433 . S
C2861 N2863 1.384 . S
N2862 C2858 1.427 . S
N2862 C2859 1.384 . S
N2863 C2855 1.427 . S
N2863 C2861 1.384 . S
H2864 C2870 0.930 . S
H2865 C2874 0.930 . S
H2866 C2879 0.929 . S
H2867 C2877 0.929 . S
H2868 C2872 0.929 . S
H2869 C2878 0.929 . S
C2870 H2864 0.930 . S
C2870 C2871 1.367 . S
C2870 C2878 1.378 . S
C2871 C2870 1.367 . S
C2871 C2879 1.433 . S
C2872 H2868 0.929 . S
C2872 C2874 1.378 . S
C2872 C2876 1.350 . S
C2873 C2876 1.463 . S
C2873 C2878 1.350 . S
C2873 N2881 1.427 . S
C2874 H2865 0.930 . S
C2874 C2872 1.378 . S
C2874 C2875 1.367 . S
C2875 C2874 1.367 . S
C2875 C2877 1.433 . S
C2876 C2872 1.350 . S
C2876 C2873 1.463 . S
C2876 N2880 1.427 . S
C2877 H2867 0.929 . S
C2877 C2875 1.433 . S
C2877 N2880 1.384 . S
C2878 H2869 0.929 . S
C2878 C2870 1.378 . S
C2878 C2873 1.350 . S
C2879 H2866 0.929 . S
C2879 C2871 1.433 . S
C2879 N2881 1.384 . S
N2880 C2876 1.427 . S
N2880 C2877 1.384 . S
N2881 C2873 1.427 . S
N2881 C2879 1.384 . S
H2882 C2888 0.930 . S
H2883 C2892 0.930 . S
H2884 C2897 0.929 . S
H2885 C2895 0.929 . S
H2886 C2890 0.929 . S
H2887 C2896 0.929 . S
C2888 H2882 0.930 . S
C2888 C2889 1.367 . S
C2888 C2896 1.378 . S
C2889 C2888 1.367 . S
C2889 C2897 1.433 . S
C2890 H2886 0.929 . S
C2890 C2892 1.378 . S
C2890 C2894 1.350 . S
C2891 C2894 1.463 . S
C2891 C2896 1.350 . S
C2891 N2899 1.427 . S
C2892 H2883 0.930 . S
C2892 C2890 1.378 . S
C2892 C2893 1.367 . S
C2893 C2892 1.367 . S
C2893 C2895 1.433 . S
C2894 C2890 1.350 . S
C2894 C2891 1.463 . S
C2894 N2898 1.427 . S
C2895 H2885 0.929 . S
C2895 C2893 1.433 . S
C2895 N2898 1.384 . S
C2896 H2887 0.929 . S
C2896 C2888 1.378 . S
C2896 C2891 1.350 . S
C2897 H2884 0.929 . S
C2897 C2889 1.433 . S
C2897 N2899 1.384 . S
N2898 C2894 1.427 . S
N2898 C2895 1.384 . S
N2899 C2891 1.427 . S
N2899 C2897 1.384 . S
H2900 C2906 0.930 . S
H2901 C2910 0.930 . S
H2902 C2915 0.929 . S
H2903 C2913 0.929 . S
H2904 C2908 0.929 . S
H2905 C2914 0.929 . S
C2906 H2900 0.930 . S
C2906 C2907 1.367 . S
C2906 C2914 1.378 . S
C2907 C2906 1.367 . S
C2907 C2915 1.433 . S
C2908 H2904 0.929 . S
C2908 C2910 1.378 . S
C2908 C2912 1.350 . S
C2909 C2912 1.463 . S
C2909 C2914 1.350 . S
C2909 N2917 1.427 . S
C2910 H2901 0.930 . S
C2910 C2908 1.378 . S
C2910 C2911 1.367 . S
C2911 C2910 1.367 . S
C2911 C2913 1.433 . S
C2912 C2908 1.350 . S
C2912 C2909 1.463 . S
C2912 N2916 1.427 . S
C2913 H2903 0.929 . S
C2913 C2911 1.433 . S
C2913 N2916 1.384 . S
C2914 H2905 0.929 . S
C2914 C2906 1.378 . S
C2914 C2909 1.350 . S
C2915 H2902 0.929 . S
C2915 C2907 1.433 . S
C2915 N2917 1.384 . S
N2916 C2912 1.427 . S
N2916 C2913 1.384 . S
N2917 C2909 1.427 . S
N2917 C2915 1.384 . S
H2918 C2924 0.930 . S
H2919 C2928 0.930 . S
H2920 C2933 0.929 . S
H2921 C2931 0.929 . S
H2922 C2926 0.929 . S
H2923 C2932 0.929 . S
C2924 H2918 0.930 . S
C2924 C2925 1.367 . S
C2924 C2932 1.378 . S
C2925 C2924 1.367 . S
C2925 C2933 1.433 . S
C2926 H2922 0.929 . S
C2926 C2928 1.378 . S
C2926 C2930 1.350 . S
C2927 C2930 1.463 . S
C2927 C2932 1.350 . S
C2927 N2935 1.427 . S
C2928 H2919 0.930 . S
C2928 C2926 1.378 . S
C2928 C2929 1.367 . S
C2929 C2928 1.367 . S
C2929 C2931 1.433 . S
C2930 C2926 1.350 . S
C2930 C2927 1.463 . S
C2930 N2934 1.427 . S
C2931 H2921 0.929 . S
C2931 C2929 1.433 . S
C2931 N2934 1.384 . S
C2932 H2923 0.929 . S
C2932 C2924 1.378 . S
C2932 C2927 1.350 . S
C2933 H2920 0.929 . S
C2933 C2925 1.433 . S
C2933 N2935 1.384 . S
N2934 C2930 1.427 . S
N2934 C2931 1.384 . S
N2935 C2927 1.427 . S
N2935 C2933 1.384 . S
H2936 C2942 0.930 . S
H2937 C2946 0.930 . S
H2938 C2951 0.929 . S
H2939 C2949 0.929 . S
H2940 C2944 0.929 . S
H2941 C2950 0.929 . S
C2942 H2936 0.930 . S
C2942 C2943 1.367 . S
C2942 C2950 1.378 . S
C2943 C2942 1.367 . S
C2943 C2951 1.433 . S
C2944 H2940 0.929 . S
C2944 C2946 1.378 . S
C2944 C2948 1.350 . S
C2945 C2948 1.463 . S
C2945 C2950 1.350 . S
C2945 N2953 1.427 . S
C2946 H2937 0.930 . S
C2946 C2944 1.378 . S
C2946 C2947 1.367 . S
C2947 C2946 1.367 . S
C2947 C2949 1.433 . S
C2948 C2944 1.350 . S
C2948 C2945 1.463 . S
C2948 N2952 1.427 . S
C2949 H2939 0.929 . S
C2949 C2947 1.433 . S
C2949 N2952 1.384 . S
C2950 H2941 0.929 . S
C2950 C2942 1.378 . S
C2950 C2945 1.350 . S
C2951 H2938 0.929 . S
C2951 C2943 1.433 . S
C2951 N2953 1.384 . S
N2952 C2948 1.427 . S
N2952 C2949 1.384 . S
N2953 C2945 1.427 . S
N2953 C2951 1.384 . S
H2954 C2960 0.930 . S
H2955 C2964 0.930 . S
H2956 C2969 0.929 . S
H2957 C2967 0.929 . S
H2958 C2962 0.929 . S
H2959 C2968 0.929 . S
C2960 H2954 0.930 . S
C2960 C2961 1.367 . S
C2960 C2968 1.378 . S
C2961 C2960 1.367 . S
C2961 C2969 1.433 . S
C2962 H2958 0.929 . S
C2962 C2964 1.378 . S
C2962 C2966 1.350 . S
C2963 C2966 1.463 . S
C2963 C2968 1.350 . S
C2963 N2971 1.427 . S
C2964 H2955 0.930 . S
C2964 C2962 1.378 . S
C2964 C2965 1.367 . S
C2965 C2964 1.367 . S
C2965 C2967 1.433 . S
C2966 C2962 1.350 . S
C2966 C2963 1.463 . S
C2966 N2970 1.427 . S
C2967 H2957 0.929 . S
C2967 C2965 1.433 . S
C2967 N2970 1.384 . S
C2968 H2959 0.929 . S
C2968 C2960 1.378 . S
C2968 C2963 1.350 . S
C2969 H2956 0.929 . S
C2969 C2961 1.433 . S
C2969 N2971 1.384 . S
N2970 C2966 1.427 . S
N2970 C2967 1.384 . S
N2971 C2963 1.427 . S
N2971 C2969 1.384 . S
H2972 C2978 0.930 . S
H2973 C2982 0.930 . S
H2974 C2987 0.929 . S
H2975 C2985 0.929 . S
H2976 C2980 0.929 . S
H2977 C2986 0.929 . S
C2978 H2972 0.930 . S
C2978 C2979 1.367 . S
C2978 C2986 1.378 . S
C2979 C2978 1.367 . S
C2979 C2987 1.433 . S
C2980 H2976 0.929 . S
C2980 C2982 1.378 . S
C2980 C2984 1.350 . S
C2981 C2984 1.463 . S
C2981 C2986 1.350 . S
C2981 N2989 1.427 . S
C2982 H2973 0.930 . S
C2982 C2980 1.378 . S
C2982 C2983 1.367 . S
C2983 C2982 1.367 . S
C2983 C2985 1.433 . S
C2984 C2980 1.350 . S
C2984 C2981 1.463 . S
C2984 N2988 1.427 . S
C2985 H2975 0.929 . S
C2985 C2983 1.433 . S
C2985 N2988 1.384 . S
C2986 H2977 0.929 . S
C2986 C2978 1.378 . S
C2986 C2981 1.350 . S
C2987 H2974 0.929 . S
C2987 C2979 1.433 . S
C2987 N2989 1.384 . S
N2988 C2984 1.427 . S
N2988 C2985 1.384 . S
N2989 C2981 1.427 . S
N2989 C2987 1.384 . S
H2990 C2996 0.930 . S
H2991 C3000 0.930 . S
H2992 C3005 0.929 . S
H2993 C3003 0.929 . S
H2994 C2998 0.929 . S
H2995 C3004 0.929 . S
C2996 H2990 0.930 . S
C2996 C2997 1.367 . S
C2996 C3004 1.378 . S
C2997 C2996 1.367 . S
C2997 C3005 1.433 . S
C2998 H2994 0.929 . S
C2998 C3000 1.378 . S
C2998 C3002 1.350 . S
C2999 C3002 1.463 . S
C2999 C3004 1.350 . S
C2999 N3007 1.427 . S
C3000 H2991 0.930 . S
C3000 C2998 1.378 . S
C3000 C3001 1.367 . S
C3001 C3000 1.367 . S
C3001 C3003 1.433 . S
C3002 C2998 1.350 . S
C3002 C2999 1.463 . S
C3002 N3006 1.427 . S
C3003 H2993 0.929 . S
C3003 C3001 1.433 . S
C3003 N3006 1.384 . S
C3004 H2995 0.929 . S
C3004 C2996 1.378 . S
C3004 C2999 1.350 . S
C3005 H2992 0.929 . S
C3005 C2997 1.433 . S
C3005 N3007 1.384 . S
N3006 C3002 1.427 . S
N3006 C3003 1.384 . S
N3007 C2999 1.427 . S
N3007 C3005 1.384 . S
C1287 C6 1.076 . S
C1291 C139 1.040 . S
C1305 C19 1.023 . S
C1309 C46 1.079 1_545 S
C1323 C86 1.075 . S
C1327 C59 1.046 . S
C1341 C99 1.042 . S
C1345 C126 1.076 1_565 S
C1359 C219 1.037 . S
C1363 C166 1.077 . S
C1377 C206 1.076 1_545 S
C1381 C259 1.042 . S
C1395 C299 1.026 . S
C1399 C246 1.078 . S
C1413 C179 1.046 . S
C1417 C286 1.075 1_565 S
C1431 C335 1.078 . S
C1435 C450 1.029 . S
C1449 C375 1.079 1_565 S
C1453 C330 1.023 . S
C1467 C415 1.077 . S
C1471 C370 1.036 . S
C1485 C455 1.075 1_545 S
C1489 C410 1.046 . S
C1503 C495 1.075 . S
C1507 C530 1.044 . S
C1521 C535 1.075 1_565 S
C1525 C570 1.046 . S
C1539 C610 1.042 . S
C1543 C575 1.076 . S
C1557 C490 1.044 . S
C1561 C615 1.075 1_545 S
C1575 C646 1.076 . S
C1579 C779 1.041 . S
C1593 C659 1.043 . S
C1597 C686 1.076 . S
C1611 C699 1.036 . S
C1615 C726 1.077 . S
C1629 C766 1.079 . S
C1633 C739 1.025 . S
C1647 C806 1.078 . S
C1651 C859 1.027 . S
C1665 C899 1.045 . S
C1669 C846 1.075 . S
C1683 C886 1.076 . S
C1687 C939 1.044 . S
C1701 C819 1.046 . S
C1705 C926 1.075 . S
C1719 C1090 1.044 . S
C1723 C975 1.075 . S
C1737 C970 1.030 . S
C1741 C1015 1.077 . S
C1755 C1055 1.075 . S
C1759 C1010 1.046 . S
C1773 C1050 1.026 . S
C1777 C1095 1.079 . S
C1791 C1170 1.031 . S
C1795 C1135 1.077 . S
C1809 C1210 1.037 . S
C1813 C1175 1.076 . S
C1827 C1250 1.026 . S
C1831 C1215 1.078 . S
C1845 C1255 1.075 . S
C1849 C1130 1.046 . S
C1863 C1086 1.593 . S
C1867 C9 1.531 . S
C1881 C49 1.544 . S
C1885 C326 1.599 1_455 S
C1899 C89 1.542 . S
C1903 C1006 1.599 . S
C1917 C129 1.530 . S
C1921 C406 1.591 . S
C1935 C169 1.530 . S
C1939 C1166 1.591 . S
C1953 C566 1.599 . S
C1957 C209 1.545 . S
C1971 C1246 1.598 . S
C1975 C249 1.541 . S
C1989 C289 1.539 . S
C1993 C486 1.592 1_455 S
C2007 C338 1.544 . S
C2011 C775 1.595 . S
C2025 C15 1.598 1_655 S
C2029 C378 1.539 . S
C2043 C695 1.594 . S
C2047 C418 1.542 . S
C2061 C95 1.592 . S
C2065 C458 1.538 . S
C2079 C855 1.597 . S
C2083 C498 1.546 . S
C2097 C255 1.596 . S
C2101 C538 1.535 . S
C2115 C578 1.534 . S
C2119 C935 1.591 . S
C2133 C618 1.542 . S
C2137 C175 1.594 1_655 S
C2151 C649 1.545 . S
C2155 C446 1.599 . S
C2169 C689 1.545 . S
C2173 C966 1.599 . S
C2187 C729 1.544 . S
C2191 C366 1.595 . S
C2205 C769 1.532 . S
C2209 C1046 1.590 1_655 S
C2223 C809 1.536 . S
C2227 C526 1.591 . S
C2241 C849 1.532 . S
C2245 C1206 1.594 1_655 S
C2259 C606 1.591 . S
C2263 C889 1.534 . S
C2277 C929 1.532 . S
C2281 C1126 1.594 . S
C2295 C135 1.593 . S
C2299 C978 1.530 . S
C2313 C655 1.597 . S
C2317 C1018 1.538 . S
C2331 C55 1.596 . S
C2335 C1058 1.545 . S
C2349 C735 1.598 1_455 S
C2353 C1098 1.540 . S
C2367 C215 1.596 . S
C2371 C1138 1.535 . S
C2385 C1178 1.546 . S
C2389 C895 1.599 1_455 S
C2403 C1218 1.536 . S
C2407 C295 1.597 . S
C2421 C815 1.599 . S
C2425 C1258 1.546 . S
C2439 C18 0.663 . S
C2443 C178 0.668 . S
C2457 C58 0.687 . S
C2461 C218 0.663 . S
C2475 C98 0.689 . S
C2479 C258 0.685 . S
C2493 C298 0.661 . S
C2497 C138 0.673 . S
C2511 C489 0.671 . S
C2515 C329 0.662 . S
C2529 C529 0.666 . S
C2533 C369 0.691 . S
C2547 C409 0.674 . S
C2551 C569 0.693 . S
C2565 C449 0.680 . S
C2569 C609 0.660 . S
C2583 C658 0.660 . S
C2587 C818 0.676 . S
C2601 C858 0.676 . S
C2605 C698 0.660 . S
C2619 C898 0.693 . S
C2623 C738 0.677 . S
C2637 C938 0.665 . S
C2641 C778 0.666 . S
C2655 C1129 0.673 . S
C2659 C969 0.661 . S
C2673 C1009 0.660 . S
C2677 C1169 0.682 . S
C2691 C1209 0.670 . S
C2695 C1049 0.662 . S
C2709 C1089 0.661 . S
C2713 C1249 0.672 . S
C2727 C290 2.722 . S
C2731 C10 2.723 . S
C2745 C50 2.722 . S
C2749 C170 2.723 . S
C2763 C90 2.723 . S
C2767 C210 2.724 . S
C2781 C250 2.723 . S
C2785 C130 2.724 . S
C2799 C339 2.722 . S
C2803 C619 2.722 . S
C2817 C499 2.723 . S
C2821 C379 2.722 . S
C2835 C539 2.724 . S
C2839 C419 2.724 . S
C2853 C459 2.722 . S
C2857 C579 2.721 . S
C2871 C650 2.722 . S
C2875 C930 2.721 . S
C2889 C810 2.724 . S
C2893 C690 2.723 . S
C2907 C850 2.722 . S
C2911 C730 2.722 . S
C2925 C890 2.722 . S
C2929 C770 2.721 . S
C2943 C979 2.723 . S
C2947 C1259 2.722 . S
C2961 C1139 2.722 . S
C2965 C1019 2.723 . S
C2979 C1059 2.721 . S
C2983 C1179 2.722 . S
C2997 C1219 2.724 . S
C3001 C1099 2.723 . S
