# Generated by pormake.
# Topology wip, (6)-cn, num edge types: 1
# Building blocks:
#     Node 0, Type 0, BuildingBlock: GEDQOX_clean_sbu_0, # of connection points: 6
#     Node 1, Type 0, BuildingBlock: GEDQOX_clean_sbu_0, # of connection points: 6
#     Node 2, Type 0, BuildingBlock: GEDQOX_clean_sbu_0, # of connection points: 6
#     Node 3, Type 0, BuildingBlock: GEDQOX_clean_sbu_0, # of connection points: 6
#     Node 4, Type 0, BuildingBlock: GEDQOX_clean_sbu_0, # of connection points: 6
#     Node 5, Type 0, BuildingBlock: GEDQOX_clean_sbu_0, # of connection points: 6
#     Node 6, Type 0, BuildingBlock: GEDQOX_clean_sbu_0, # of connection points: 6
#     Node 7, Type 0, BuildingBlock: GEDQOX_clean_sbu_0, # of connection points: 6
#     Node 8, Type 0, BuildingBlock: GEDQOX_clean_sbu_0, # of connection points: 6
#     Node 9, Type 0, BuildingBlock: GEDQOX_clean_sbu_0, # of connection points: 6
#     Node 10, Type 0, BuildingBlock: GEDQOX_clean_sbu_0, # of connection points: 6
#     Node 11, Type 0, BuildingBlock: GEDQOX_clean_sbu_0, # of connection points: 6
#     Node 12, Type 0, BuildingBlock: GEDQOX_clean_sbu_0, # of connection points: 6
#     Node 13, Type 0, BuildingBlock: GEDQOX_clean_sbu_0, # of connection points: 6
#     Node 14, Type 0, BuildingBlock: GEDQOX_clean_sbu_0, # of connection points: 6
#     Node 15, Type 0, BuildingBlock: GEDQOX_clean_sbu_0, # of connection points: 6
#     Node 16, Type 0, BuildingBlock: GEDQOX_clean_sbu_0, # of connection points: 6
#     Node 17, Type 0, BuildingBlock: GEDQOX_clean_sbu_0, # of connection points: 6
#     Node 18, Type 0, BuildingBlock: GEDQOX_clean_sbu_0, # of connection points: 6
#     Node 19, Type 0, BuildingBlock: GEDQOX_clean_sbu_0, # of connection points: 6
#     Node 20, Type 0, BuildingBlock: GEDQOX_clean_sbu_0, # of connection points: 6
#     Node 21, Type 0, BuildingBlock: GEDQOX_clean_sbu_0, # of connection points: 6
#     Node 22, Type 0, BuildingBlock: GEDQOX_clean_sbu_0, # of connection points: 6
#     Node 23, Type 0, BuildingBlock: GEDQOX_clean_sbu_0, # of connection points: 6
#     Node 24, Type 0, BuildingBlock: GEDQOX_clean_sbu_0, # of connection points: 6
#     Node 25, Type 0, BuildingBlock: GEDQOX_clean_sbu_0, # of connection points: 6
#     Node 26, Type 0, BuildingBlock: GEDQOX_clean_sbu_0, # of connection points: 6
#     Node 27, Type 0, BuildingBlock: GEDQOX_clean_sbu_0, # of connection points: 6
#     Node 28, Type 0, BuildingBlock: GEDQOX_clean_sbu_0, # of connection points: 6
#     Node 29, Type 0, BuildingBlock: GEDQOX_clean_sbu_0, # of connection points: 6
#     Node 30, Type 0, BuildingBlock: GEDQOX_clean_sbu_0, # of connection points: 6
#     Node 31, Type 0, BuildingBlock: GEDQOX_clean_sbu_0, # of connection points: 6
#     Edge 32, Type (0, 0), BuildingBlock: XUDNAN_clean_linker_2, # of connection points: 2
#     Edge 33, Type (0, 0), BuildingBlock: XUDNAN_clean_linker_2, # of connection points: 2
#     Edge 34, Type (0, 0), BuildingBlock: XUDNAN_clean_linker_2, # of connection points: 2
#     Edge 35, Type (0, 0), BuildingBlock: XUDNAN_clean_linker_2, # of connection points: 2
#     Edge 36, Type (0, 0), BuildingBlock: XUDNAN_clean_linker_2, # of connection points: 2
#     Edge 37, Type (0, 0), BuildingBlock: XUDNAN_clean_linker_2, # of connection points: 2
#     Edge 38, Type (0, 0), BuildingBlock: XUDNAN_clean_linker_2, # of connection points: 2
#     Edge 39, Type (0, 0), BuildingBlock: XUDNAN_clean_linker_2, # of connection points: 2
#     Edge 40, Type (0, 0), BuildingBlock: XUDNAN_clean_linker_2, # of connection points: 2
#     Edge 41, Type (0, 0), BuildingBlock: XUDNAN_clean_linker_2, # of connection points: 2
#     Edge 42, Type (0, 0), BuildingBlock: XUDNAN_clean_linker_2, # of connection points: 2
#     Edge 43, Type (0, 0), BuildingBlock: XUDNAN_clean_linker_2, # of connection points: 2
#     Edge 44, Type (0, 0), BuildingBlock: XUDNAN_clean_linker_2, # of connection points: 2
#     Edge 45, Type (0, 0), BuildingBlock: XUDNAN_clean_linker_2, # of connection points: 2
#     Edge 46, Type (0, 0), BuildingBlock: XUDNAN_clean_linker_2, # of connection points: 2
#     Edge 47, Type (0, 0), BuildingBlock: XUDNAN_clean_linker_2, # of connection points: 2
#     Edge 48, Type (0, 0), BuildingBlock: XUDNAN_clean_linker_2, # of connection points: 2
#     Edge 49, Type (0, 0), BuildingBlock: XUDNAN_clean_linker_2, # of connection points: 2
#     Edge 50, Type (0, 0), BuildingBlock: XUDNAN_clean_linker_2, # of connection points: 2
#     Edge 51, Type (0, 0), BuildingBlock: XUDNAN_clean_linker_2, # of connection points: 2
#     Edge 52, Type (0, 0), BuildingBlock: XUDNAN_clean_linker_2, # of connection points: 2
#     Edge 53, Type (0, 0), BuildingBlock: XUDNAN_clean_linker_2, # of connection points: 2
#     Edge 54, Type (0, 0), BuildingBlock: XUDNAN_clean_linker_2, # of connection points: 2
#     Edge 55, Type (0, 0), BuildingBlock: XUDNAN_clean_linker_2, # of connection points: 2
#     Edge 56, Type (0, 0), BuildingBlock: XUDNAN_clean_linker_2, # of connection points: 2
#     Edge 57, Type (0, 0), BuildingBlock: XUDNAN_clean_linker_2, # of connection points: 2
#     Edge 58, Type (0, 0), BuildingBlock: XUDNAN_clean_linker_2, # of connection points: 2
#     Edge 59, Type (0, 0), BuildingBlock: XUDNAN_clean_linker_2, # of connection points: 2
#     Edge 60, Type (0, 0), BuildingBlock: XUDNAN_clean_linker_2, # of connection points: 2
#     Edge 61, Type (0, 0), BuildingBlock: XUDNAN_clean_linker_2, # of connection points: 2
#     Edge 62, Type (0, 0), BuildingBlock: XUDNAN_clean_linker_2, # of connection points: 2
#     Edge 63, Type (0, 0), BuildingBlock: XUDNAN_clean_linker_2, # of connection points: 2
#     Edge 64, Type (0, 0), BuildingBlock: XUDNAN_clean_linker_2, # of connection points: 2
#     Edge 65, Type (0, 0), BuildingBlock: XUDNAN_clean_linker_2, # of connection points: 2
#     Edge 66, Type (0, 0), BuildingBlock: XUDNAN_clean_linker_2, # of connection points: 2
#     Edge 67, Type (0, 0), BuildingBlock: XUDNAN_clean_linker_2, # of connection points: 2
#     Edge 68, Type (0, 0), BuildingBlock: XUDNAN_clean_linker_2, # of connection points: 2
#     Edge 69, Type (0, 0), BuildingBlock: XUDNAN_clean_linker_2, # of connection points: 2
#     Edge 70, Type (0, 0), BuildingBlock: XUDNAN_clean_linker_2, # of connection points: 2
#     Edge 71, Type (0, 0), BuildingBlock: XUDNAN_clean_linker_2, # of connection points: 2
#     Edge 72, Type (0, 0), BuildingBlock: XUDNAN_clean_linker_2, # of connection points: 2
#     Edge 73, Type (0, 0), BuildingBlock: XUDNAN_clean_linker_2, # of connection points: 2
#     Edge 74, Type (0, 0), BuildingBlock: XUDNAN_clean_linker_2, # of connection points: 2
#     Edge 75, Type (0, 0), BuildingBlock: XUDNAN_clean_linker_2, # of connection points: 2
#     Edge 76, Type (0, 0), BuildingBlock: XUDNAN_clean_linker_2, # of connection points: 2
#     Edge 77, Type (0, 0), BuildingBlock: XUDNAN_clean_linker_2, # of connection points: 2
#     Edge 78, Type (0, 0), BuildingBlock: XUDNAN_clean_linker_2, # of connection points: 2
#     Edge 79, Type (0, 0), BuildingBlock: XUDNAN_clean_linker_2, # of connection points: 2
#     Edge 80, Type (0, 0), BuildingBlock: XUDNAN_clean_linker_2, # of connection points: 2
#     Edge 81, Type (0, 0), BuildingBlock: XUDNAN_clean_linker_2, # of connection points: 2
#     Edge 82, Type (0, 0), BuildingBlock: XUDNAN_clean_linker_2, # of connection points: 2
#     Edge 83, Type (0, 0), BuildingBlock: XUDNAN_clean_linker_2, # of connection points: 2
#     Edge 84, Type (0, 0), BuildingBlock: XUDNAN_clean_linker_2, # of connection points: 2
#     Edge 85, Type (0, 0), BuildingBlock: XUDNAN_clean_linker_2, # of connection points: 2
#     Edge 86, Type (0, 0), BuildingBlock: XUDNAN_clean_linker_2, # of connection points: 2
#     Edge 87, Type (0, 0), BuildingBlock: XUDNAN_clean_linker_2, # of connection points: 2
#     Edge 88, Type (0, 0), BuildingBlock: XUDNAN_clean_linker_2, # of connection points: 2
#     Edge 89, Type (0, 0), BuildingBlock: XUDNAN_clean_linker_2, # of connection points: 2
#     Edge 90, Type (0, 0), BuildingBlock: XUDNAN_clean_linker_2, # of connection points: 2
#     Edge 91, Type (0, 0), BuildingBlock: XUDNAN_clean_linker_2, # of connection points: 2
#     Edge 92, Type (0, 0), BuildingBlock: XUDNAN_clean_linker_2, # of connection points: 2
#     Edge 93, Type (0, 0), BuildingBlock: XUDNAN_clean_linker_2, # of connection points: 2
#     Edge 94, Type (0, 0), BuildingBlock: XUDNAN_clean_linker_2, # of connection points: 2
#     Edge 95, Type (0, 0), BuildingBlock: XUDNAN_clean_linker_2, # of connection points: 2
#     Edge 96, Type (0, 0), BuildingBlock: XUDNAN_clean_linker_2, # of connection points: 2
#     Edge 97, Type (0, 0), BuildingBlock: XUDNAN_clean_linker_2, # of connection points: 2
#     Edge 98, Type (0, 0), BuildingBlock: XUDNAN_clean_linker_2, # of connection points: 2
#     Edge 99, Type (0, 0), BuildingBlock: XUDNAN_clean_linker_2, # of connection points: 2
#     Edge 100, Type (0, 0), BuildingBlock: XUDNAN_clean_linker_2, # of connection points: 2
#     Edge 101, Type (0, 0), BuildingBlock: XUDNAN_clean_linker_2, # of connection points: 2
#     Edge 102, Type (0, 0), BuildingBlock: XUDNAN_clean_linker_2, # of connection points: 2
#     Edge 103, Type (0, 0), BuildingBlock: XUDNAN_clean_linker_2, # of connection points: 2
#     Edge 104, Type (0, 0), BuildingBlock: XUDNAN_clean_linker_2, # of connection points: 2
#     Edge 105, Type (0, 0), BuildingBlock: XUDNAN_clean_linker_2, # of connection points: 2
#     Edge 106, Type (0, 0), BuildingBlock: XUDNAN_clean_linker_2, # of connection points: 2
#     Edge 107, Type (0, 0), BuildingBlock: XUDNAN_clean_linker_2, # of connection points: 2
#     Edge 108, Type (0, 0), BuildingBlock: XUDNAN_clean_linker_2, # of connection points: 2
#     Edge 109, Type (0, 0), BuildingBlock: XUDNAN_clean_linker_2, # of connection points: 2
#     Edge 110, Type (0, 0), BuildingBlock: XUDNAN_clean_linker_2, # of connection points: 2
#     Edge 111, Type (0, 0), BuildingBlock: XUDNAN_clean_linker_2, # of connection points: 2
#     Edge 112, Type (0, 0), BuildingBlock: XUDNAN_clean_linker_2, # of connection points: 2
#     Edge 113, Type (0, 0), BuildingBlock: XUDNAN_clean_linker_2, # of connection points: 2
#     Edge 114, Type (0, 0), BuildingBlock: XUDNAN_clean_linker_2, # of connection points: 2
#     Edge 115, Type (0, 0), BuildingBlock: XUDNAN_clean_linker_2, # of connection points: 2
#     Edge 116, Type (0, 0), BuildingBlock: XUDNAN_clean_linker_2, # of connection points: 2
#     Edge 117, Type (0, 0), BuildingBlock: XUDNAN_clean_linker_2, # of connection points: 2
#     Edge 118, Type (0, 0), BuildingBlock: XUDNAN_clean_linker_2, # of connection points: 2
#     Edge 119, Type (0, 0), BuildingBlock: XUDNAN_clean_linker_2, # of connection points: 2
#     Edge 120, Type (0, 0), BuildingBlock: XUDNAN_clean_linker_2, # of connection points: 2
#     Edge 121, Type (0, 0), BuildingBlock: XUDNAN_clean_linker_2, # of connection points: 2
#     Edge 122, Type (0, 0), BuildingBlock: XUDNAN_clean_linker_2, # of connection points: 2
#     Edge 123, Type (0, 0), BuildingBlock: XUDNAN_clean_linker_2, # of connection points: 2
#     Edge 124, Type (0, 0), BuildingBlock: XUDNAN_clean_linker_2, # of connection points: 2
#     Edge 125, Type (0, 0), BuildingBlock: XUDNAN_clean_linker_2, # of connection points: 2
#     Edge 126, Type (0, 0), BuildingBlock: XUDNAN_clean_linker_2, # of connection points: 2
#     Edge 127, Type (0, 0), BuildingBlock: XUDNAN_clean_linker_2, # of connection points: 2
# Relax obj value: 0.279
# Max RMSD: 0.258
# Mean RMSD: 0.234
data_MOF--net-wip--node1-GEDQOX_clean_sbu_0--edge1-XUDNAN_clean_linker_2
_symmetry_space_group_name_H-M    P1
_symmetry_Int_Tables_number       1
_symmetry_cell_setting            triclinic
loop_
_symmetry_equiv_pos_as_xyz
'x, y, z'
_cell_length_a     64.307815
_cell_length_b     64.422537
_cell_length_c     35.722479
_cell_angle_alpha  89.955586
_cell_angle_beta   90.081686
_cell_angle_gamma 90.013024
loop_
_atom_site_label
_atom_site_type_symbol
_atom_site_fract_x
_atom_site_fract_y
_atom_site_fract_z
_atom_type_partial_charge
Nd0 Nd 0.07857 0.43553 0.07745 0.0
Nd1 Nd 0.05494 0.40741 0.13221 0.0
C2 C 0.09318 0.45914 0.02254 0.0
C3 C 0.09127 0.46539 0.98269 0.0
C4 C 0.09301 0.45094 0.95334 0.0
C5 C 0.094 0.45767 0.91602 0.0
C6 C 0.0932 0.47897 0.9072 0.0
C7 C 0.09069 0.49329 0.93658 0.0
C8 C 0.08981 0.48657 0.97382 0.0
C9 C 0.10279 0.40809 0.11759 0.0
C10 C 0.04769 0.39857 0.0451 0.0
C11 C 0.04239 0.38514 0.1906 0.0
C12 C 0.03977 0.38821 0.23152 0.0
C13 C 0.05595 0.3957 0.25434 0.0
C14 C 0.0527 0.39899 0.29274 0.0
C15 C 0.03316 0.39508 0.30921 0.0
C16 C 0.01708 0.3875 0.28616 0.0
C17 C 0.02038 0.38406 0.24792 0.0
C18 C 0.03086 0.43838 0.10185 0.0
C19 C 0.07853 0.4502 0.16361 0.0
O20 O 0.07894 0.46546 0.04612 0.0
O21 O 0.10012 0.44048 0.03003 0.0
O22 O 0.10871 0.42642 0.10711 0.0
O23 O 0.0853 0.40397 0.10311 0.0
O24 O 0.05657 0.4168 0.03968 0.0
O25 O 0.04803 0.38929 0.07822 0.0
O26 O 0.06129 0.38436 0.17719 0.0
O27 O 0.02978 0.39562 0.16907 0.0
O28 O 0.02503 0.4192 0.10546 0.0
O29 O 0.04957 0.44018 0.11223 0.0
O30 O 0.07017 0.43187 0.17124 0.0
O31 O 0.08155 0.45647 0.1288 0.0
H32 H 0.09414 0.43448 0.95922 0.0
H33 H 0.0956 0.4462 0.89407 0.0
H34 H 0.09022 0.5098 0.93095 0.0
H35 H 0.08867 0.49805 0.99589 0.0
H36 H 0.0711 0.39908 0.24257 0.0
H37 H 0.06559 0.40446 0.30956 0.0
H38 H 0.00173 0.38462 0.29743 0.0
H39 H 0.00761 0.37838 0.23095 0.0
Nd40 Nd 0.80003 0.83691 0.33878 0.0
Nd41 Nd 0.82604 0.8095 0.3893 0.0
C42 C 0.77765 0.85511 0.28535 0.0
C43 C 0.771 0.85385 0.24562 0.0
C44 C 0.76682 0.83487 0.22766 0.0
C45 C 0.75994 0.83454 0.19023 0.0
C46 C 0.75721 0.85316 0.16996 0.0
C47 C 0.76154 0.87204 0.18823 0.0
C48 C 0.76834 0.87235 0.22547 0.0
C49 C 0.83621 0.85403 0.3671 0.0
C50 C 0.82746 0.79899 0.30324 0.0
C51 C 0.84915 0.79428 0.44425 0.0
C52 C 0.84403 0.78793 0.48283 0.0
C53 C 0.85984 0.78365 0.50873 0.0
C54 C 0.85489 0.77728 0.54519 0.0
C55 C 0.834 0.77506 0.55645 0.0
C56 C 0.81823 0.77957 0.53026 0.0
C57 C 0.82318 0.78601 0.49393 0.0
C58 C 0.78749 0.79268 0.37504 0.0
C59 C 0.79184 0.84286 0.42659 0.0
O60 O 0.76999 0.84166 0.30913 0.0
O61 O 0.79717 0.85951 0.29194 0.0
O62 O 0.81868 0.86392 0.36479 0.0
O63 O 0.83427 0.83619 0.3531 0.0
O64 O 0.80962 0.80906 0.3024 0.0
O65 O 0.8399 0.80025 0.33257 0.0
O66 O 0.8477 0.81414 0.43713 0.0
O67 O 0.84107 0.78284 0.41773 0.0
O68 O 0.80476 0.78229 0.37477 0.0
O69 O 0.79144 0.81162 0.37997 0.0
O70 O 0.80864 0.83116 0.43124 0.0
O71 O 0.78379 0.84602 0.39299 0.0
H72 H 0.76882 0.82035 0.24253 0.0
H73 H 0.75697 0.8197 0.17706 0.0
H74 H 0.75932 0.88671 0.17397 0.0
H75 H 0.77135 0.88717 0.23874 0.0
H76 H 0.87601 0.78506 0.50067 0.0
H77 H 0.86748 0.77367 0.56428 0.0
H78 H 0.80198 0.77832 0.53784 0.0
H79 H 0.81072 0.78939 0.4744 0.0
Nd80 Nd 0.41236 0.54497 0.59621 0.0
Nd81 Nd 0.43666 0.57861 0.63682 0.0
C82 C 0.39825 0.51659 0.54828 0.0
C83 C 0.39852 0.51047 0.50814 0.0
C84 C 0.38067 0.50134 0.49269 0.0
C85 C 0.38021 0.4951 0.45515 0.0
C86 C 0.39763 0.49782 0.43177 0.0
C87 C 0.41564 0.50689 0.44737 0.0
C88 C 0.41607 0.51322 0.48513 0.0
C89 C 0.38981 0.57913 0.61944 0.0
C90 C 0.44221 0.57815 0.54944 0.0
C91 C 0.45055 0.60523 0.6878 0.0
C92 C 0.45257 0.60426 0.72926 0.0
C93 C 0.43626 0.59672 0.75154 0.0
C94 C 0.43874 0.5944 0.79028 0.0
C95 C 0.45752 0.59996 0.80815 0.0
C96 C 0.4738 0.60771 0.78571 0.0
C97 C 0.47136 0.60974 0.74676 0.0
C98 C 0.45984 0.54412 0.62065 0.0
C99 C 0.41027 0.5423 0.68457 0.0
O100 O 0.41536 0.5144 0.56778 0.0
O101 O 0.38801 0.53341 0.55705 0.0
O102 O 0.38306 0.56017 0.62178 0.0
O103 O 0.40737 0.57942 0.60379 0.0
O104 O 0.43456 0.55916 0.55237 0.0
O105 O 0.44139 0.59136 0.57767 0.0
O106 O 0.43174 0.60592 0.67381 0.0
O107 O 0.46269 0.5928 0.669 0.0
O108 O 0.46584 0.56305 0.61474 0.0
O109 O 0.44129 0.54395 0.63237 0.0
O110 O 0.418 0.56135 0.68269 0.0
O111 O 0.40876 0.5305 0.65449 0.0
H112 H 0.36699 0.49892 0.50984 0.0
H113 H 0.36619 0.48786 0.44459 0.0
H114 H 0.42931 0.50942 0.43027 0.0
H115 H 0.43006 0.52029 0.49627 0.0
H116 H 0.4216 0.59245 0.73893 0.0
H117 H 0.4259 0.58799 0.80608 0.0
H118 H 0.48838 0.61248 0.79819 0.0
H119 H 0.48423 0.61555 0.73024 0.0
Nd120 Nd 0.68721 0.16248 0.8335 0.0
Nd121 Nd 0.65861 0.18704 0.88398 0.0
C122 C 0.71088 0.14726 0.77895 0.0
C123 C 0.71706 0.14983 0.73894 0.0
C124 C 0.73748 0.15592 0.73009 0.0
C125 C 0.74442 0.15619 0.69287 0.0
C126 C 0.73118 0.1502 0.66337 0.0
C127 C 0.71055 0.14467 0.67214 0.0
C128 C 0.70357 0.14448 0.70939 0.0
C129 C 0.6561 0.14061 0.86952 0.0
C130 C 0.65092 0.19266 0.79738 0.0
C131 C 0.63577 0.19902 0.94166 0.0
C132 C 0.64055 0.20488 0.98102 0.0
C133 C 0.63479 0.19175 1.01072 0.0
C134 C 0.63964 0.19695 0.04785 0.0
C135 C 0.65027 0.2155 0.05622 0.0
C136 C 0.65594 0.22863 0.0264 0.0
C137 C 0.6512 0.22338 0.98936 0.0
C138 C 0.69093 0.21059 0.85716 0.0
C139 C 0.70044 0.16312 0.91968 0.0
O140 O 0.71735 0.16115 0.80303 0.0
O141 O 0.69216 0.14045 0.7865 0.0
O142 O 0.67509 0.13397 0.86665 0.0
O143 O 0.65424 0.15768 0.85279 0.0
O144 O 0.66986 0.18492 0.79423 0.0
O145 O 0.64074 0.19197 0.82945 0.0
O146 O 0.63847 0.17952 0.93273 0.0
O147 O 0.64203 0.21167 0.91532 0.0
O148 O 0.67177 0.2168 0.8593 0.0
O149 O 0.69218 0.19186 0.86752 0.0
O150 O 0.68222 0.17217 0.92538 0.0
O151 O 0.70722 0.15908 0.88564 0.0
H152 H 0.74834 0.15989 0.75215 0.0
H153 H 0.76045 0.16033 0.68739 0.0
H154 H 0.69979 0.14025 0.65019 0.0
H155 H 0.68774 0.13968 0.71504 0.0
H156 H 0.6266 0.17737 1.00518 0.0
H157 H 0.63523 0.18632 0.06994 0.0
H158 H 0.6638 0.24321 0.03163 0.0
H159 H 0.6559 0.23392 0.9673 0.0
Nd160 Nd 0.08331 0.54952 0.57067 0.0
Nd161 Nd 0.049 0.57145 0.61743 0.0
C162 C 0.11075 0.54049 0.51804 0.0
C163 C 0.10915 0.53469 0.47796 0.0
C164 C 0.10148 0.54868 0.45098 0.0
C165 C 0.09894 0.54245 0.4137 0.0
C166 C 0.10387 0.52208 0.40263 0.0
C167 C 0.11178 0.50823 0.42953 0.0
C168 C 0.11449 0.5145 0.4667 0.0
C169 C 0.05467 0.52278 0.59814 0.0
C170 C 0.04076 0.56945 0.5295 0.0
C171 C 0.02265 0.58438 0.66958 0.0
C172 C 0.01745 0.58064 0.70955 0.0
C173 C 0.99679 0.57637 0.71951 0.0
C174 C 0.99132 0.57304 0.75696 0.0
C175 C 0.00631 0.57444 0.78555 0.0
C176 C 0.02696 0.57909 0.77573 0.0
C177 C 0.03254 0.58196 0.73809 0.0
C178 C 0.07965 0.59604 0.58645 0.0
C179 C 0.08651 0.54559 0.65978 0.0
O180 O 0.10582 0.55952 0.52721 0.0
O181 O 0.10373 0.52683 0.54197 0.0
O182 O 0.07376 0.51772 0.59105 0.0
O183 O 0.05042 0.54089 0.58648 0.0
O184 O 0.06025 0.5629 0.52675 0.0
O185 O 0.03139 0.57182 0.56208 0.0
O186 O 0.01818 0.56962 0.64568 0.0
O187 O 0.04033 0.59357 0.66222 0.0
O188 O 0.06009 0.6011 0.58651 0.0
O189 O 0.08218 0.57897 0.60295 0.0
O190 O 0.06691 0.55161 0.65962 0.0
O191 O 0.09821 0.54657 0.62923 0.0
H192 H 0.09714 0.56435 0.45869 0.0
H193 H 0.09269 0.55346 0.3937 0.0
H194 H 0.11602 0.49254 0.42179 0.0
H195 H 0.12051 0.50343 0.48682 0.0
H196 H 0.98479 0.57564 0.69823 0.0
H197 H 0.97523 0.56971 0.76364 0.0
H198 H 0.03883 0.58023 0.79715 0.0
H199 H 0.04861 0.58532 0.73141 0.0
Nd200 Nd 0.68506 0.8282 0.8347 0.0
Nd201 Nd 0.65867 0.79816 0.88567 0.0
C202 C 0.69953 0.85405 0.78322 0.0
C203 C 0.70708 0.85378 0.74417 0.0
C204 C 0.69452 0.84681 0.71449 0.0
C205 C 0.70192 0.84737 0.67767 0.0
C206 C 0.72208 0.85468 0.66988 0.0
C207 C 0.73471 0.86132 0.69968 0.0
C208 C 0.72723 0.86098 0.73639 0.0
C209 C 0.70564 0.79435 0.86182 0.0
C210 C 0.65907 0.78821 0.79684 0.0
C211 C 0.64498 0.7729 0.93899 0.0
C212 C 0.64774 0.76964 0.97982 0.0
C213 C 0.64809 0.7494 0.99444 0.0
C214 C 0.65007 0.74602 0.03311 0.0
C215 C 0.65177 0.76284 0.05806 0.0
C216 C 0.65143 0.7831 0.04323 0.0
C217 C 0.64953 0.78647 1.00461 0.0
C218 C 0.63676 0.8292 0.85 0.0
C219 C 0.68895 0.83383 0.92405 0.0
O220 O 0.67971 0.85085 0.789 0.0
O221 O 0.71132 0.84496 0.80812 0.0
O222 O 0.71475 0.81208 0.85671 0.0
O223 O 0.6872 0.7948 0.85056 0.0
O224 O 0.6682 0.80655 0.79202 0.0
O225 O 0.65583 0.78008 0.83046 0.0
O226 O 0.66081 0.76844 0.91742 0.0
O227 O 0.63526 0.7898 0.92852 0.0
O228 O 0.62913 0.81122 0.85919 0.0
O229 O 0.65468 0.83121 0.8645 0.0
O230 O 0.6801 0.8154 0.9266 0.0
O231 O 0.68953 0.84416 0.89195 0.0
H232 H 0.67894 0.84107 0.7196 0.0
H233 H 0.69191 0.84196 0.6553 0.0
H234 H 0.75021 0.86722 0.69451 0.0
H235 H 0.73717 0.8665 0.75879 0.0
H236 H 0.64676 0.73616 0.9759 0.0
H237 H 0.65048 0.73021 0.04341 0.0
H238 H 0.6522 0.7964 0.06162 0.0
H239 H 0.64924 0.80227 0.9942 0.0
Nd240 Nd 0.41486 0.43595 0.08711 0.0
Nd241 Nd 0.4483 0.41115 0.13056 0.0
C242 C 0.38646 0.44731 0.0375 0.0
C243 C 0.38715 0.45789 1.00077 0.0
C244 C 0.37598 0.4499 0.97015 0.0
C245 C 0.37641 0.46006 0.93539 0.0
C246 C 0.38788 0.47847 0.93088 0.0
C247 C 0.39947 0.48607 0.96133 0.0
C248 C 0.3992 0.47587 0.9958 0.0
C249 C 0.44831 0.4591 0.10795 0.0
C250 C 0.45472 0.41316 0.04185 0.0
C251 C 0.47601 0.39574 0.17819 0.0
C252 C 0.48314 0.39701 0.21751 0.0
C253 C 0.4795 0.41454 0.24001 0.0
C254 C 0.48727 0.41536 0.27683 0.0
C255 C 0.49897 0.39875 0.29154 0.0
C256 C 0.5021 0.38111 0.269 0.0
C257 C 0.49427 0.38026 0.23252 0.0
C258 C 0.41532 0.38902 0.10089 0.0
C259 C 0.41422 0.43937 0.1767 0.0
O260 O 0.39431 0.42861 0.03873 0.0
O261 O 0.39141 0.45846 0.06683 0.0
O262 O 0.42975 0.46682 0.10506 0.0
O263 O 0.44891 0.44063 0.0968 0.0
O264 O 0.43562 0.42104 0.04055 0.0
O265 O 0.46451 0.40998 0.07387 0.0
O266 O 0.47967 0.41172 0.15647 0.0
O267 O 0.45782 0.38727 0.17211 0.0
O268 O 0.43445 0.38254 0.10032 0.0
O269 O 0.41425 0.40605 0.11813 0.0
O270 O 0.4335 0.43242 0.17485 0.0
O271 O 0.40177 0.43868 0.14708 0.0
H272 H 0.36678 0.43591 0.97325 0.0
H273 H 0.36733 0.45387 0.91239 0.0
H274 H 0.40874 0.50003 0.95851 0.0
H275 H 0.40832 0.48218 1.01862 0.0
H276 H 0.47097 0.42767 0.22894 0.0
H277 H 0.48464 0.4292 0.29337 0.0
H278 H 0.51071 0.36789 0.27958 0.0
H279 H 0.49714 0.36654 0.21577 0.0
Nd280 Nd 0.80399 0.16789 0.32906 0.0
Nd281 Nd 0.83274 0.1969 0.37701 0.0
C282 C 0.78802 0.14255 0.2783 0.0
C283 C 0.78288 0.14332 0.23811 0.0
C284 C 0.79694 0.15114 0.2115 0.0
C285 C 0.79103 0.15285 0.17389 0.0
C286 C 0.77092 0.14701 0.16237 0.0
C287 C 0.75702 0.13904 0.18907 0.0
C288 C 0.76298 0.13716 0.22651 0.0
C289 C 0.78326 0.19912 0.36464 0.0
C290 C 0.82733 0.20859 0.28952 0.0
C291 C 0.85174 0.21934 0.42906 0.0
C292 C 0.84726 0.22707 0.46701 0.0
C293 C 0.82826 0.22264 0.48445 0.0
C294 C 0.82443 0.22934 0.52105 0.0
C295 C 0.83963 0.2405 0.54107 0.0
C296 C 0.85867 0.24494 0.52335 0.0
C297 C 0.86243 0.23828 0.48665 0.0
C298 C 0.8529 0.16705 0.33533 0.0
C299 C 0.80195 0.16275 0.4184 0.0
O300 O 0.80768 0.1424 0.2878 0.0
O301 O 0.77679 0.15449 0.29973 0.0
O302 O 0.77487 0.18141 0.35633 0.0
O303 O 0.80125 0.20064 0.35072 0.0
O304 O 0.81832 0.19022 0.2854 0.0
O305 O 0.83219 0.2163 0.32283 0.0
O306 O 0.84109 0.22754 0.40149 0.0
O307 O 0.85378 0.19921 0.42592 0.0
O308 O 0.86052 0.18509 0.34354 0.0
O309 O 0.83599 0.16444 0.35285 0.0
O310 O 0.8112 0.18105 0.41965 0.0
O311 O 0.80081 0.15201 0.38677 0.0
H312 H 0.81235 0.15618 0.2198 0.0
H313 H 0.80204 0.15916 0.15396 0.0
H314 H 0.74155 0.13412 0.18096 0.0
H315 H 0.7519 0.13112 0.2466 0.0
H316 H 0.81648 0.21386 0.46984 0.0
H317 H 0.80971 0.22545 0.53388 0.0
H318 H 0.87062 0.25372 0.53769 0.0
H319 H 0.87724 0.24179 0.47368 0.0
Nd320 Nd 0.93861 0.5743 0.22682 0.0
Nd321 Nd 0.90996 0.55103 0.28159 0.0
C322 C 0.95445 0.59489 0.16908 0.0
C323 C 0.95963 0.58981 0.12976 0.0
C324 C 0.96116 0.60564 0.10293 0.0
C325 C 0.96615 0.60099 0.06563 0.0
C326 C 0.96976 0.58034 0.0543 0.0
C327 C 0.96822 0.56452 0.0815 0.0
C328 C 0.96314 0.56919 0.1187 0.0
C329 C 0.95404 0.53638 0.24919 0.0
C330 C 0.90388 0.54009 0.19438 0.0
C331 C 0.89235 0.52933 0.33648 0.0
C332 C 0.89379 0.52275 0.37625 0.0
C333 C 0.91289 0.52057 0.39513 0.0
C334 C 0.91349 0.51316 0.43225 0.0
C335 C 0.895 0.50787 0.45126 0.0
C336 C 0.876 0.5102 0.43202 0.0
C337 C 0.87543 0.51754 0.39514 0.0
C338 C 0.89425 0.58659 0.24911 0.0
C339 C 0.94852 0.58 0.31314 0.0
O340 O 0.93469 0.59527 0.1777 0.0
O341 O 0.96576 0.58586 0.19482 0.0
O342 O 0.96513 0.55309 0.24553 0.0
O343 O 0.9353 0.54057 0.24234 0.0
O344 O 0.91615 0.55621 0.18763 0.0
O345 O 0.90041 0.53341 0.22882 0.0
O346 O 0.90578 0.52155 0.31284 0.0
O347 O 0.88773 0.54872 0.3293 0.0
O348 O 0.88333 0.56987 0.25448 0.0
O349 O 0.91221 0.58433 0.26258 0.0
O350 O 0.93685 0.56333 0.31792 0.0
O351 O 0.949 0.59007 0.28091 0.0
H352 H 0.9584 0.62164 0.1108 0.0
H353 H 0.96681 0.61357 0.04556 0.0
H354 H 0.9711 0.54847 0.07419 0.0
H355 H 0.96201 0.55667 0.13889 0.0
H356 H 0.92731 0.52447 0.38116 0.0
H357 H 0.92839 0.51179 0.44617 0.0
H358 H 0.86145 0.50598 0.44523 0.0
H359 H 0.86054 0.51889 0.38111 0.0
Nd360 Nd 0.16829 0.18796 0.98213 0.0
Nd361 Nd 0.19486 0.16076 0.03264 0.0
C362 C 0.14452 0.20286 0.92791 0.0
C363 C 0.14917 0.20902 0.88908 0.0
C364 C 0.13312 0.21466 0.86457 0.0
C365 C 0.13764 0.22085 0.82786 0.0
C366 C 0.15834 0.22144 0.81491 0.0
C367 C 0.17435 0.21554 0.83968 0.0
C368 C 0.16981 0.20945 0.87637 0.0
C369 C 0.20722 0.20441 0.99386 0.0
C370 C 0.20166 0.1539 0.94436 0.0
C371 C 0.2179 0.14404 0.08682 0.0
C372 C 0.22478 0.14674 0.12652 0.0
C373 C 0.24399 0.15612 0.13512 0.0
C374 C 0.2515 0.15655 0.17211 0.0
C375 C 0.24011 0.14741 0.20149 0.0
C376 C 0.22067 0.13852 0.19294 0.0
C377 C 0.21315 0.13813 0.15606 0.0
C378 C 0.15818 0.14362 1.00652 0.0
C379 C 0.16743 0.19889 0.06785 0.0
O380 O 0.14609 0.18303 0.93528 0.0
O381 O 0.15291 0.21447 0.95388 0.0
O382 O 0.19012 0.21508 0.9945 0.0
O383 O 0.20295 0.18547 0.99024 0.0
O384 O 0.18525 0.16618 0.94012 0.0
O385 O 0.20992 0.15033 0.97771 0.0
O386 O 0.22541 0.15655 0.06123 0.0
O387 O 0.19841 0.13922 0.0807 0.0
O388 O 0.17559 0.1335 1.00903 0.0
O389 O 0.16049 0.16163 1.01961 0.0
O390 O 0.18544 0.18909 0.06834 0.0
O391 O 0.15478 0.19731 0.03892 0.0
H392 H 0.1171 0.21447 0.87393 0.0
H393 H 0.12492 0.22556 0.80988 0.0
H394 H 0.19041 0.21549 0.83068 0.0
H395 H 0.18244 0.20517 0.89495 0.0
H396 H 0.25353 0.16265 0.11311 0.0
H397 H 0.26661 0.16337 0.17742 0.0
H398 H 0.21125 0.13162 0.21477 0.0
H399 H 0.19839 0.13062 0.15065 0.0
Nd400 Nd 0.55629 0.41441 0.73863 0.0
Nd401 Nd 0.58583 0.43704 0.7951 0.0
C402 C 0.53926 0.39478 0.68085 0.0
C403 C 0.53849 0.3965 0.63952 0.0
C404 C 0.55595 0.40249 0.61852 0.0
C405 C 0.55472 0.40396 0.57939 0.0
C406 C 0.53598 0.39958 0.56035 0.0
C407 C 0.51852 0.39379 0.58169 0.0
C408 C 0.51979 0.39228 0.62075 0.0
C409 C 0.54051 0.45042 0.76915 0.0
C410 C 0.58843 0.45099 0.70758 0.0
C411 C 0.60444 0.45776 0.85008 0.0
C412 C 0.60378 0.46443 0.88978 0.0
C413 C 0.62246 0.47015 0.90724 0.0
C414 C 0.62263 0.47737 0.94418 0.0
C415 C 0.60408 0.47906 0.96485 0.0
C416 C 0.5853 0.47313 0.94732 0.0
C417 C 0.58515 0.46586 0.91014 0.0
C418 C 0.60341 0.40529 0.75438 0.0
C419 C 0.5476 0.40654 0.82534 0.0
O420 O 0.55687 0.38921 0.69624 0.0
O421 O 0.52983 0.40939 0.6996 0.0
O422 O 0.52973 0.4336 0.76382 0.0
O423 O 0.55902 0.44718 0.75948 0.0
O424 O 0.57698 0.4344 0.70007 0.0
O425 O 0.59253 0.45678 0.74249 0.0
O426 O 0.59129 0.46625 0.82659 0.0
O427 O 0.60793 0.43812 0.84308 0.0
O428 O 0.61348 0.42143 0.76643 0.0
O429 O 0.58535 0.4052 0.76841 0.0
O430 O 0.56004 0.42254 0.83171 0.0
O431 O 0.54615 0.39776 0.79199 0.0
H432 H 0.57057 0.40591 0.63231 0.0
H433 H 0.56845 0.40868 0.5641 0.0
H434 H 0.50393 0.38995 0.56819 0.0
H435 H 0.50611 0.38765 0.63637 0.0
H436 H 0.637 0.4693 0.89203 0.0
H437 H 0.63735 0.48209 0.95623 0.0
H438 H 0.57072 0.47398 0.96237 0.0
H439 H 0.57053 0.46147 0.89729 0.0
Nd440 Nd 0.32642 0.80542 0.48497 0.0
Nd441 Nd 0.30062 0.8346 0.53617 0.0
C442 C 0.34889 0.7858 0.4335 0.0
C443 C 0.34824 0.78334 0.39248 0.0
C444 C 0.33715 0.7974 0.37022 0.0
C445 C 0.3353 0.79427 0.33162 0.0
C446 C 0.34416 0.77668 0.3145 0.0
C447 C 0.35556 0.76274 0.33697 0.0
C448 C 0.35758 0.76607 0.37558 0.0
C449 C 0.2891 0.78925 0.5096 0.0
C450 C 0.29131 0.83758 0.44733 0.0
C451 C 0.27728 0.85088 0.58995 0.0
C452 C 0.27055 0.84727 0.62927 0.0
C453 C 0.2493 0.84806 0.63827 0.0
C454 C 0.24265 0.84658 0.67558 0.0
C455 C 0.25714 0.84445 0.70492 0.0
C456 C 0.2784 0.84308 0.69573 0.0
C457 C 0.28502 0.84442 0.6584 0.0
C458 C 0.33404 0.85322 0.50263 0.0
C459 C 0.33145 0.79908 0.57229 0.0
O460 O 0.35364 0.80414 0.44658 0.0
O461 O 0.33353 0.77727 0.45167 0.0
O462 O 0.30638 0.77885 0.50851 0.0
O463 O 0.29257 0.80762 0.49963 0.0
O464 O 0.308 0.82572 0.44245 0.0
O465 O 0.28388 0.84179 0.48107 0.0
O466 O 0.26986 0.83852 0.56404 0.0
O467 O 0.29676 0.85592 0.58426 0.0
O468 O 0.31696 0.86287 0.51086 0.0
O469 O 0.334 0.83487 0.51562 0.0
O470 O 0.31359 0.80903 0.57466 0.0
O471 O 0.34224 0.79856 0.54099 0.0
H472 H 0.32975 0.81067 0.38291 0.0
H473 H 0.32681 0.80557 0.31523 0.0
H474 H 0.36238 0.7489 0.32498 0.0
H475 H 0.36603 0.75488 0.3924 0.0
H476 H 0.23781 0.85033 0.61643 0.0
H477 H 0.22619 0.84785 0.68154 0.0
H478 H 0.28997 0.84111 0.71749 0.0
H479 H 0.30151 0.84361 0.65247 0.0
Nd480 Nd 0.94671 0.40712 0.74072 0.0
Nd481 Nd 0.91804 0.43639 0.78743 0.0
C482 C 0.97049 0.38947 0.68917 0.0
C483 C 0.97703 0.39339 0.65009 0.0
C484 C 0.9775 0.41355 0.63502 0.0
C485 C 0.98413 0.41685 0.59806 0.0
C486 C 0.99035 0.40006 0.57535 0.0
C487 C 0.98955 0.37991 0.59057 0.0
C488 C 0.98297 0.37664 0.62748 0.0
C489 C 0.91283 0.38902 0.77477 0.0
C490 C 0.91476 0.43978 0.69809 0.0
C491 C 0.89168 0.45288 0.83596 0.0
C492 C 0.89068 0.45875 0.87576 0.0
C493 C 0.88089 0.47739 0.88563 0.0
C494 C 0.87998 0.48363 0.92303 0.0
C495 C 0.8888 0.47129 0.95137 0.0
C496 C 0.89849 0.45249 0.94144 0.0
C497 C 0.89949 0.4463 0.90391 0.0
C498 C 0.95289 0.4546 0.75902 0.0
C499 C 0.95571 0.40877 0.82942 0.0
O500 O 0.97762 0.40215 0.7148 0.0
O501 O 0.95095 0.38455 0.69431 0.0
O502 O 0.93087 0.38007 0.77209 0.0
O503 O 0.91297 0.40627 0.75792 0.0
O504 O 0.93295 0.4302 0.69764 0.0
O505 O 0.90353 0.44078 0.7291 0.0
O506 O 0.89226 0.43307 0.82807 0.0
O507 O 0.90405 0.46393 0.81488 0.0
O508 O 0.93546 0.46453 0.76289 0.0
O509 O 0.9517 0.43663 0.77242 0.0
O510 O 0.93784 0.41905 0.83247 0.0
O511 O 0.96405 0.40422 0.79655 0.0
H512 H 0.97284 0.42673 0.65186 0.0
H513 H 0.98428 0.43255 0.58723 0.0
H514 H 0.99446 0.36663 0.57424 0.0
H515 H 0.98272 0.36097 0.63852 0.0
H516 H 0.87397 0.48718 0.86431 0.0
H517 H 0.8722 0.49806 0.92979 0.0
H518 H 0.90563 0.44276 0.96258 0.0
H519 H 0.90726 0.43189 0.89693 0.0
Nd520 Nd 0.33322 0.20242 0.49349 0.0
Nd521 Nd 0.30997 0.1691 0.53994 0.0
C522 C 0.3461 0.22976 0.44309 0.0
C523 C 0.34267 0.23487 0.40321 0.0
C524 C 0.32349 0.23119 0.38554 0.0
C525 C 0.3207 0.23623 0.34765 0.0
C526 C 0.33703 0.24503 0.32666 0.0
C527 C 0.3562 0.24861 0.34464 0.0
C528 C 0.35897 0.24356 0.38243 0.0
C529 C 0.35684 0.17029 0.52171 0.0
C530 C 0.30518 0.16683 0.45066 0.0
C531 C 0.29885 0.14111 0.59052 0.0
C532 C 0.29023 0.14098 0.62909 0.0
C533 C 0.30271 0.13467 0.65934 0.0
C534 C 0.29462 0.13399 0.69571 0.0
C535 C 0.27379 0.13948 0.70273 0.0
C536 C 0.26136 0.14592 0.67241 0.0
C537 C 0.26946 0.14665 0.63608 0.0
C538 C 0.28597 0.20176 0.51838 0.0
C539 C 0.33374 0.20946 0.58187 0.0
O540 O 0.33069 0.23323 0.46619 0.0
O541 O 0.35586 0.21237 0.45012 0.0
O542 O 0.36309 0.18947 0.52085 0.0
O543 O 0.33919 0.16865 0.50655 0.0
O544 O 0.31162 0.18628 0.45122 0.0
O545 O 0.30662 0.15492 0.48087 0.0
O546 O 0.31802 0.14757 0.58649 0.0
O547 O 0.28663 0.1475 0.56357 0.0
O548 O 0.27874 0.18307 0.52133 0.0
O549 O 0.3045 0.20285 0.52927 0.0
O550 O 0.32626 0.19026 0.58452 0.0
O551 O 0.33564 0.21907 0.54941 0.0
H552 H 0.31068 0.22445 0.40101 0.0
H553 H 0.3058 0.23305 0.33475 0.0
H554 H 0.36903 0.25568 0.32971 0.0
H555 H 0.37387 0.24657 0.39554 0.0
H556 H 0.31875 0.13017 0.65485 0.0
H557 H 0.30476 0.12923 0.71837 0.0
H558 H 0.24518 0.14997 0.67657 0.0
H559 H 0.25932 0.15148 0.61347 0.0
Nd560 Nd 0.547 0.58043 0.2413 0.0
Nd561 Nd 0.57665 0.55486 0.29533 0.0
C562 C 0.52262 0.59544 0.18781 0.0
C563 C 0.5146 0.59357 0.14913 0.0
C564 C 0.52083 0.57775 0.12445 0.0
C565 C 0.51261 0.57684 0.08786 0.0
C566 C 0.49788 0.59162 0.07567 0.0
C567 C 0.49199 0.60746 0.10061 0.0
C568 C 0.50024 0.60839 0.13675 0.0
C569 C 0.5746 0.60326 0.28377 0.0
C570 C 0.58486 0.55194 0.206 0.0
C571 C 0.60187 0.54273 0.35 0.0
C572 C 0.60125 0.53626 0.38981 0.0
C573 C 0.59395 0.54949 0.41822 0.0
C574 C 0.59393 0.54291 0.45567 0.0
C575 C 0.60108 0.52296 0.46543 0.0
C576 C 0.60832 0.50981 0.43688 0.0
C577 C 0.60846 0.51642 0.39959 0.0
C578 C 0.54871 0.53159 0.25691 0.0
C579 C 0.53257 0.57592 0.32794 0.0
O580 O 0.51632 0.58189 0.21274 0.0
O581 O 0.54204 0.60111 0.19236 0.0
O582 O 0.55646 0.6098 0.2731 0.0
O583 O 0.57853 0.58607 0.26822 0.0
O584 O 0.56634 0.56043 0.20185 0.0
O585 O 0.59441 0.55141 0.23907 0.0
O586 O 0.59829 0.56223 0.34197 0.0
O587 O 0.59351 0.53 0.32582 0.0
O588 O 0.56653 0.52452 0.26831 0.0
O589 O 0.5452 0.54947 0.26998 0.0
O590 O 0.55018 0.56583 0.3349 0.0
O591 O 0.52701 0.58204 0.29401 0.0
H592 H 0.53188 0.56609 0.13351 0.0
H593 H 0.51742 0.56439 0.06945 0.0
H594 H 0.481 0.61929 0.0921 0.0
H595 H 0.49531 0.6208 0.1552 0.0
H596 H 0.58828 0.5649 0.41159 0.0
H597 H 0.58809 0.55336 0.47693 0.0
H598 H 0.61421 0.49448 0.44342 0.0
H599 H 0.61433 0.50599 0.37829 0.0
Nd600 Nd 0.16025 0.79414 0.99494 0.0
Nd601 Nd 0.18658 0.82348 0.04509 0.0
C602 C 0.14424 0.77053 0.94142 0.0
C603 C 0.14717 0.76722 0.90061 0.0
C604 C 0.14615 0.74712 0.88548 0.0
C605 C 0.14656 0.74407 0.84653 0.0
C606 C 0.14788 0.76111 0.82194 0.0
C607 C 0.14995 0.78111 0.83736 0.0
C608 C 0.14959 0.78413 0.87614 0.0
C609 C 0.13953 0.82634 0.02983 0.0
C610 C 0.19231 0.82747 0.95404 0.0
C611 C 0.20245 0.85294 0.08787 0.0
C612 C 0.20981 0.85454 0.12714 0.0
C613 C 0.19598 0.85245 0.15741 0.0
C614 C 0.20323 0.85359 0.19428 0.0
C615 C 0.22447 0.8568 0.20181 0.0
C616 C 0.23826 0.85899 0.17154 0.0
C617 C 0.23099 0.85796 0.13463 0.0
C618 C 0.20401 0.78524 0.03382 0.0
C619 C 0.16022 0.78546 0.08319 0.0
O620 O 0.15898 0.76406 0.96397 0.0
O621 O 0.13649 0.78848 0.95145 0.0
O622 O 0.13212 0.80763 0.02771 0.0
O623 O 0.15688 0.82728 1.01369 0.0
O624 O 0.1789 0.81204 0.9505 0.0
O625 O 0.19716 0.8354 0.98715 0.0
O626 O 0.18243 0.85041 0.08266 0.0
O627 O 0.21374 0.84168 0.06512 0.0
O628 O 0.2058 0.79557 0.06484 0.0
O629 O 0.19426 0.79575 1.00971 0.0
O630 O 0.1661 0.80511 0.08683 0.0
O631 O 0.16008 0.77606 0.05027 0.0
H632 H 0.14432 0.73381 0.90375 0.0
H633 H 0.14484 0.72847 0.83569 0.0
H634 H 0.15133 0.79455 0.81934 0.0
H635 H 0.15054 0.79982 0.88689 0.0
H636 H 0.17955 0.84976 0.15274 0.0
H637 H 0.19223 0.85159 0.21693 0.0
H638 H 0.25466 0.86172 0.17638 0.0
H639 H 0.24196 0.85976 0.11187 0.0
Nd640 Nd 0.58705 0.94176 0.58449 0.0
Nd641 Nd 0.55976 0.9156 0.63534 0.0
C642 C 0.60546 0.96442 0.53164 0.0
C643 C 0.60617 0.97056 0.49156 0.0
C644 C 0.58839 0.97101 0.4686 0.0
C645 C 0.58972 0.9781 0.43134 0.0
C646 C 0.60886 0.98485 0.41625 0.0
C647 C 0.62656 0.98415 0.43949 0.0
C648 C 0.62522 0.97709 0.47651 0.0
C649 C 0.60591 0.90872 0.6205 0.0
C650 C 0.55322 0.90886 0.54781 0.0
C651 C 0.54411 0.89348 0.69158 0.0
C652 C 0.54083 0.89589 0.73254 0.0
C653 C 0.55629 0.90413 0.7561 0.0
C654 C 0.55256 0.90668 0.79455 0.0
C655 C 0.53326 0.90116 0.81043 0.0
C656 C 0.5179 0.89278 0.78668 0.0
C657 C 0.52166 0.89018 0.74828 0.0
C658 C 0.53951 0.94962 0.60718 0.0
C659 C 0.58838 0.95422 0.67095 0.0
O660 O 0.58994 0.97106 0.55204 0.0
O661 O 0.61142 0.94566 0.54068 0.0
O662 O 0.61437 0.92693 0.61744 0.0
O663 O 0.58862 0.90851 0.604 0.0
O664 O 0.56368 0.9264 0.54424 0.0
O665 O 0.55223 0.89897 0.58026 0.0
O666 O 0.56323 0.89154 0.67959 0.0
O667 O 0.53287 0.90532 0.66983 0.0
O668 O 0.53197 0.93095 0.60792 0.0
O669 O 0.55817 0.94945 0.61858 0.0
O670 O 0.57795 0.93677 0.67681 0.0
O671 O 0.59219 0.96106 0.63685 0.0
H672 H 0.57349 0.96603 0.4795 0.0
H673 H 0.57578 0.97816 0.41431 0.0
H674 H 0.6415 0.98951 0.4294 0.0
H675 H 0.63912 0.97706 0.4937 0.0
H676 H 0.57123 0.90867 0.74481 0.0
H677 H 0.56489 0.91284 0.81192 0.0
H678 H 0.50277 0.88859 0.79757 0.0
H679 H 0.50945 0.88388 0.73073 0.0
Nd680 Nd 0.3055 0.32688 0.83631 0.0
Nd681 Nd 0.33657 0.30188 0.88438 0.0
C682 C 0.28054 0.34272 0.78414 0.0
C683 C 0.27509 0.34331 0.74367 0.0
C684 C 0.26967 0.36244 0.72761 0.0
C685 C 0.26344 0.36376 0.6901 0.0
C686 C 0.26243 0.34593 0.66739 0.0
C687 C 0.26806 0.3267 0.68347 0.0
C688 C 0.27436 0.3254 0.72119 0.0
C689 C 0.33174 0.35022 0.88048 0.0
C690 C 0.34466 0.3008 0.79714 0.0
C691 C 0.35999 0.28804 0.94016 0.0
C692 C 0.35683 0.28626 0.98104 0.0
C693 C 0.34529 0.30114 1.00088 0.0
C694 C 0.34074 0.29818 0.03887 0.0
C695 C 0.34756 0.28024 0.05784 0.0
C696 C 0.35946 0.26559 0.03793 0.0
C697 C 0.36401 0.26858 0.99998 0.0
C698 C 0.3069 0.27791 0.84941 0.0
C699 C 0.29326 0.32019 0.92276 0.0
O700 O 0.27607 0.32603 0.80353 0.0
O701 O 0.29808 0.35135 0.79438 0.0
O702 O 0.31276 0.35532 0.87227 0.0
O703 O 0.33695 0.33422 0.86214 0.0
O704 O 0.32578 0.30881 0.79416 0.0
O705 O 0.35451 0.29993 0.82959 0.0
O706 O 0.36167 0.30674 0.9262 0.0
O707 O 0.34829 0.276 0.91965 0.0
O708 O 0.32641 0.27293 0.85236 0.0
O709 O 0.30389 0.29548 0.86421 0.0
O710 O 0.31242 0.31323 0.92698 0.0
O711 O 0.28541 0.32487 0.88952 0.0
H712 H 0.26996 0.37646 0.74436 0.0
H713 H 0.25893 0.37879 0.67918 0.0
H714 H 0.26772 0.31265 0.66685 0.0
H715 H 0.27853 0.31042 0.73277 0.0
H716 H 0.33952 0.31493 0.98696 0.0
H717 H 0.33183 0.30996 0.05332 0.0
H718 H 0.36474 0.25147 0.05134 0.0
H719 H 0.37274 0.2568 0.98514 0.0
Nd720 Nd 0.91022 0.04869 0.08545 0.0
Nd721 Nd 0.93501 0.07828 0.13327 0.0
C722 C 0.8933 0.02397 0.03413 0.0
C723 C 0.89377 0.01709 0.99459 0.0
C724 C 0.8756 0.00873 0.97899 0.0
C725 C 0.87528 0.0017 0.94195 0.0
C726 C 0.89315 0.00288 0.91933 0.0
C727 C 0.91146 0.01126 0.93511 0.0
C728 C 0.91176 0.01834 0.97238 0.0
C729 C 0.88866 0.08152 0.11657 0.0
C730 C 0.94212 0.08205 0.04615 0.0
C731 C 0.94845 0.10297 0.18759 0.0
C732 C 0.95103 0.10123 0.22881 0.0
C733 C 0.9347 0.0944 0.25187 0.0
C734 C 0.93743 0.09294 0.29071 0.0
C735 C 0.95659 0.09807 0.30753 0.0
C736 C 0.97302 0.10454 0.28426 0.0
C737 C 0.97023 0.10615 0.2454 0.0
C738 C 0.95798 0.04482 0.11027 0.0
C739 C 0.90914 0.0389 0.17275 0.0
O740 O 0.90856 0.0183 0.05616 0.0
O741 O 0.88675 0.0428 0.04091 0.0
O742 O 0.88175 0.0626 0.11622 0.0
O743 O 0.90602 0.0824 0.10046 0.0
O744 O 0.93411 0.0632 0.0454 0.0
O745 O 0.94097 0.09376 0.07642 0.0
O746 O 0.92946 0.10351 0.17438 0.0
O747 O 0.96081 0.09157 0.1672 0.0
O748 O 0.96426 0.06396 0.1091 0.0
O749 O 0.93923 0.04409 0.12097 0.0
O750 O 0.91796 0.05737 0.17677 0.0
O751 O 0.90621 0.03063 0.13943 0.0
H752 H 0.86158 0.0075 0.99564 0.0
H753 H 0.861 0.99503 0.93125 0.0
H754 H 0.92548 0.01259 0.91853 0.0
H755 H 0.92598 0.02478 0.98381 0.0
H756 H 0.91979 0.09022 0.23994 0.0
H757 H 0.9245 0.08773 0.3076 0.0
H758 H 0.9879 0.10885 0.29615 0.0
H759 H 0.9831 0.11138 0.22826 0.0
Nd760 Nd 0.18942 0.66621 0.33268 0.0
Nd761 Nd 0.15898 0.6877 0.38588 0.0
C762 C 0.21445 0.65361 0.27819 0.0
C763 C 0.21991 0.65588 0.23802 0.0
C764 C 0.24062 0.66006 0.2282 0.0
C765 C 0.24689 0.65976 0.19069 0.0
C766 C 0.23262 0.65513 0.16197 0.0
C767 C 0.21171 0.65155 0.17172 0.0
C768 C 0.20541 0.65196 0.20932 0.0
C769 C 0.16177 0.64047 0.36904 0.0
C770 C 0.1512 0.69447 0.29854 0.0
C771 C 0.1338 0.69774 0.44205 0.0
C772 C 0.13502 0.70408 0.48172 0.0
C773 C 0.11666 0.70898 0.50079 0.0
C774 C 0.11736 0.71637 0.53759 0.0
C775 C 0.13649 0.71896 0.55625 0.0
C776 C 0.15489 0.71334 0.5375 0.0
C777 C 0.15417 0.70608 0.50042 0.0
C778 C 0.18983 0.71371 0.36048 0.0
C779 C 0.20267 0.66637 0.4195 0.0
O780 O 0.21919 0.66878 0.30107 0.0
O781 O 0.19683 0.64456 0.28653 0.0
O782 O 0.18073 0.6355 0.36063 0.0
O783 O 0.1574 0.65791 0.35476 0.0
O784 O 0.17028 0.68738 0.29444 0.0
O785 O 0.14126 0.69306 0.33086 0.0
O786 O 0.13912 0.6787 0.4341 0.0
O787 O 0.14066 0.71106 0.41743 0.0
O788 O 0.17036 0.71873 0.36317 0.0
O789 O 0.19206 0.69486 0.36931 0.0
O790 O 0.18393 0.67413 0.42613 0.0
O791 O 0.20957 0.66346 0.38508 0.0
H792 H 0.25216 0.66291 0.24972 0.0
H793 H 0.26315 0.66238 0.18434 0.0
H794 H 0.20025 0.64823 0.1503 0.0
H795 H 0.1893 0.64872 0.21592 0.0
H796 H 0.10173 0.70745 0.48695 0.0
H797 H 0.1029 0.72029 0.55136 0.0
H798 H 0.16983 0.71533 0.55101 0.0
H799 H 0.16855 0.70247 0.48608 0.0
Nd800 Nd 0.59106 0.05157 0.07472 0.0
Nd801 Nd 0.55239 0.06617 0.11948 0.0
C802 C 0.62061 0.04599 0.02426 0.0
C803 C 0.61962 0.03759 0.98607 0.0
C804 C 0.63729 0.03742 0.96322 0.0
C805 C 0.63601 0.02987 0.92655 0.0
C806 C 0.61705 0.02228 0.91226 0.0
C807 C 0.59943 0.02235 0.93552 0.0
C808 C 0.6007 0.02997 0.97205 0.0
C809 C 0.56418 0.02056 0.09215 0.0
C810 C 0.54789 0.06736 0.03041 0.0
C811 C 0.52098 0.06993 0.16728 0.0
C812 C 0.51606 0.07356 0.20751 0.0
C813 C 0.518 0.05777 0.23466 0.0
C814 C 0.51118 0.06101 0.2716 0.0
C815 C 0.50208 0.08002 0.28216 0.0
C816 C 0.50088 0.09594 0.25522 0.0
C817 C 0.50766 0.09273 0.21848 0.0
C818 C 0.57862 0.09741 0.0945 0.0
C819 C 0.5933 0.04814 0.16523 0.0
O820 O 0.611 0.06361 0.02921 0.0
O821 O 0.61676 0.03273 0.05102 0.0
O822 O 0.58409 0.0181 0.09046 0.0
O823 O 0.55879 0.03858 0.08233 0.0
O824 O 0.56835 0.0647 0.02968 0.0
O825 O 0.53713 0.06513 0.06166 0.0
O826 O 0.52902 0.05205 0.15759 0.0
O827 O 0.52864 0.08548 0.14813 0.0
O828 O 0.55882 0.09954 0.10047 0.0
O829 O 0.58432 0.08004 0.10764 0.0
O830 O 0.57323 0.05214 0.16452 0.0
O831 O 0.60499 0.04994 0.13473 0.0
H832 H 0.65201 0.04323 0.97365 0.0
H833 H 0.6499 0.02985 0.90944 0.0
H834 H 0.58455 0.01689 0.92525 0.0
H835 H 0.58687 0.03007 0.98933 0.0
H836 H 0.5243 0.04275 0.2272 0.0
H837 H 0.51232 0.04835 0.29147 0.0
H838 H 0.4944 0.11094 0.26238 0.0
H839 H 0.50586 0.10518 0.19834 0.0
Nd840 Nd 0.19096 0.32996 0.32944 0.0
Nd841 Nd 0.16496 0.2993 0.3783 0.0
C842 C 0.20169 0.35529 0.27464 0.0
C843 C 0.21116 0.35123 0.23768 0.0
C844 C 0.20267 0.36006 0.20511 0.0
C845 C 0.21044 0.35465 0.16975 0.0
C846 C 0.22679 0.34024 0.16642 0.0
C847 C 0.23557 0.33191 0.19925 0.0
C848 C 0.22778 0.33721 0.23437 0.0
C849 C 0.21428 0.29965 0.36085 0.0
C850 C 0.16846 0.2877 0.29103 0.0
C851 C 0.14987 0.2752 0.43172 0.0
C852 C 0.15441 0.27028 0.47132 0.0
C853 C 0.17489 0.26808 0.48446 0.0
C854 C 0.17872 0.26321 0.52209 0.0
C855 C 0.16217 0.26085 0.5476 0.0
C856 C 0.14171 0.26346 0.53425 0.0
C857 C 0.1379 0.268 0.49655 0.0
C858 C 0.14374 0.33103 0.34342 0.0
C859 C 0.19489 0.33441 0.41892 0.0
O860 O 0.18268 0.34845 0.279 0.0
O861 O 0.21345 0.3518 0.30395 0.0
O862 O 0.22182 0.31744 0.35037 0.0
O863 O 0.19587 0.29726 0.34907 0.0
O864 O 0.17933 0.30509 0.28683 0.0
O865 O 0.16185 0.28115 0.32397 0.0
O866 O 0.1632 0.26872 0.40655 0.0
O867 O 0.14284 0.2939 0.42491 0.0
O868 O 0.13654 0.31226 0.3462 0.0
O869 O 0.16095 0.33248 0.36004 0.0
O870 O 0.18628 0.31583 0.42003 0.0
O871 O 0.19529 0.34547 0.38749 0.0
H872 H 0.1897 0.37073 0.20699 0.0
H873 H 0.20323 0.36123 0.14504 0.0
H874 H 0.24843 0.32108 0.19785 0.0
H875 H 0.23455 0.32997 0.25891 0.0
H876 H 0.18794 0.27003 0.46564 0.0
H877 H 0.19466 0.26103 0.531 0.0
H878 H 0.12855 0.26229 0.55299 0.0
H879 H 0.12199 0.26986 0.48712 0.0
Nd880 Nd 0.91564 0.93668 0.58076 0.0
Nd881 Nd 0.94876 0.91229 0.62661 0.0
C882 C 0.88792 0.95034 0.53159 0.0
C883 C 0.88862 0.9586 0.49326 0.0
C884 C 0.87048 0.95896 0.47154 0.0
C885 C 0.87109 0.96609 0.4346 0.0
C886 C 0.88983 0.97327 0.41899 0.0
C887 C 0.90792 0.97327 0.4411 0.0
C888 C 0.90736 0.96583 0.47789 0.0
C889 C 0.94816 0.95989 0.60653 0.0
C890 C 0.95602 0.91448 0.53753 0.0
C891 C 0.97678 0.89827 0.67495 0.0
C892 C 0.98453 0.90027 0.7137 0.0
C893 C 0.97919 0.91708 0.73688 0.0
C894 C 0.98721 0.91838 0.77348 0.0
C895 C 0.00083 0.90301 0.78723 0.0
C896 C 0.00574 0.8861 0.76391 0.0
C897 C -0.00232 0.88477 0.72767 0.0
C898 C 0.91931 0.88814 0.59115 0.0
C899 C 0.91236 0.93877 0.67012 0.0
O900 O 0.8928 0.93079 0.53543 0.0
O901 O 0.8962 0.962 0.55751 0.0
O902 O 0.92937 0.96702 0.60431 0.0
O903 O 0.94937 0.94185 0.59357 0.0
O904 O 0.93698 0.92235 0.53503 0.0
O905 O 0.96543 0.91151 0.57006 0.0
O906 O 0.98031 0.91367 0.65182 0.0
O907 O 0.95842 0.88986 0.67046 0.0
O908 O 0.93825 0.8824 0.59823 0.0
O909 O 0.91568 0.90529 0.60742 0.0
O910 O 0.93181 0.93231 0.66992 0.0
O911 O 0.90077 0.93811 0.63943 0.0
H912 H 0.85587 0.95353 0.48303 0.0
H913 H 0.8569 0.96606 0.41823 0.0
H914 H 0.92259 0.97855 0.42963 0.0
H915 H 0.92155 0.96557 0.49426 0.0
H916 H 0.96904 0.92921 0.72658 0.0
H917 H 0.98315 0.93162 0.79066 0.0
H918 H 0.01582 0.87378 0.77375 0.0
H919 H 0.00184 0.8716 0.71038 0.0
Nd920 Nd 0.307 0.67075 0.83055 0.0
Nd921 Nd 0.33826 0.69573 0.8813 0.0
C922 C 0.28937 0.64789 0.77778 0.0
C923 C 0.28486 0.64908 0.73746 0.0
C924 C 0.29922 0.65729 0.71178 0.0
C925 C 0.29392 0.65905 0.67385 0.0
C926 C 0.27412 0.65288 0.66127 0.0
C927 C 0.25993 0.64455 0.68711 0.0
C928 C 0.26528 0.64263 0.72479 0.0
C929 C 0.2887 0.70141 0.87102 0.0
C930 C 0.33267 0.7114 0.79578 0.0
C931 C 0.35843 0.71573 0.93513 0.0
C932 C 0.35431 0.72299 0.97355 0.0
C933 C 0.33497 0.71952 0.99043 0.0
C934 C 0.3311 0.72645 0.02685 0.0
C935 C 0.34659 0.73694 0.04734 0.0
C936 C 0.36605 0.74029 0.0303 0.0
C937 C 0.36984 0.73339 0.99373 0.0
C938 C 0.35566 0.66629 0.83515 0.0
C939 C 0.3049 0.66262 0.91909 0.0
O940 O 0.30877 0.64576 0.78804 0.0
O941 O 0.2791 0.66087 0.79886 0.0
O942 O 0.27911 0.68469 0.86042 0.0
O943 O 0.30672 0.70259 0.85693 0.0
O944 O 0.32113 0.69467 0.78963 0.0
O945 O 0.33974 0.71648 0.82938 0.0
O946 O 0.34827 0.72515 0.90822 0.0
O947 O 0.35932 0.69558 0.93048 0.0
O948 O 0.36491 0.68322 0.84546 0.0
O949 O 0.3388 0.66431 0.853 0.0
O950 O 0.31606 0.67973 0.92229 0.0
O951 O 0.30233 0.65328 0.88635 0.0
H952 H 0.3144 0.66252 0.72105 0.0
H953 H 0.30511 0.66562 0.65454 0.0
H954 H 0.24468 0.63941 0.67812 0.0
H955 H 0.254 0.63629 0.7442 0.0
H956 H 0.32287 0.71144 0.97538 0.0
H957 H 0.31604 0.72339 0.03912 0.0
H958 H 0.37826 0.74852 0.04498 0.0
H959 H 0.3849 0.73624 0.98117 0.0
Nd960 Nd 0.44533 0.08265 0.72858 0.0
Nd961 Nd 0.41571 0.05981 0.78368 0.0
C962 C 0.46179 0.10248 0.67051 0.0
C963 C 0.46261 0.10014 0.62917 0.0
C964 C 0.44455 0.09738 0.60753 0.0
C965 C 0.44587 0.09529 0.56851 0.0
C966 C 0.46529 0.09563 0.55015 0.0
C967 C 0.48332 0.09821 0.57208 0.0
C968 C 0.48197 0.10048 0.61102 0.0
C969 C 0.46078 0.04554 0.75533 0.0
C970 C 0.41177 0.04727 0.69637 0.0
C971 C 0.39804 0.0403 0.84088 0.0
C972 C 0.40253 0.03196 0.87877 0.0
C973 C 0.42086 0.02088 0.88644 0.0
C974 C 0.42362 0.0111 0.92117 0.0
C975 C 0.4082 0.01227 0.94909 0.0
C976 C 0.39043 0.02438 0.9421 0.0
C977 C 0.38761 0.03405 0.90723 0.0
C978 C 0.39814 0.09244 0.7451 0.0
C979 C 0.45549 0.08756 0.81515 0.0
O980 O 0.44405 0.10769 0.68575 0.0
O981 O 0.47177 0.08852 0.69003 0.0
O982 O 0.47175 0.06233 0.75124 0.0
O983 O 0.44213 0.04939 0.74698 0.0
O984 O 0.42409 0.06337 0.68986 0.0
O985 O 0.40742 0.041 0.73087 0.0
O986 O 0.4063 0.03071 0.81214 0.0
O987 O 0.39782 0.0605 0.83696 0.0
O988 O 0.38791 0.0766 0.75789 0.0
O989 O 0.41641 0.09207 0.75845 0.0
O990 O 0.44309 0.07139 0.81945 0.0
O991 O 0.4566 0.09773 0.78301 0.0
H992 H 0.42939 0.09687 0.62067 0.0
H993 H 0.43165 0.09313 0.55278 0.0
H994 H 0.49851 0.09894 0.55912 0.0
H995 H 0.49613 0.10259 0.62704 0.0
H996 H 0.43277 0.01923 0.86523 0.0
H997 H 0.43762 0.00211 0.92585 0.0
H998 H 0.37822 0.0255 0.96286 0.0
H999 H 0.37337 0.04258 0.90203 0.0
Nd1000 Nd 0.65596 0.69137 0.49454 0.0
Nd1001 Nd 0.68691 0.66631 0.54029 0.0
C1002 C 0.63135 0.70431 0.43957 0.0
C1003 C 0.63565 0.71073 0.40051 0.0
C1004 C 0.61947 0.71256 0.37433 0.0
C1005 C 0.62359 0.71912 0.33755 0.0
C1006 C 0.64401 0.724 0.32622 0.0
C1007 C 0.66021 0.72167 0.3525 0.0
C1008 C 0.65607 0.71516 0.38916 0.0
C1009 C 0.68835 0.7151 0.52063 0.0
C1010 C 0.69663 0.66923 0.45259 0.0
C1011 C 0.71194 0.6499 0.59208 0.0
C1012 C 0.71742 0.64953 0.63284 0.0
C1013 C 0.73027 0.66479 0.64906 0.0
C1014 C 0.73719 0.66289 0.6863 0.0
C1015 C 0.73158 0.64561 0.7084 0.0
C1016 C 0.71832 0.63065 0.69232 0.0
C1017 C 0.71142 0.63254 0.65517 0.0
C1018 C 0.65518 0.64438 0.5063 0.0
C1019 C 0.65098 0.69527 0.58186 0.0
O1020 O 0.63435 0.6847 0.4473 0.0
O1021 O 0.63867 0.71653 0.46566 0.0
O1022 O 0.66902 0.72086 0.51998 0.0
O1023 O 0.69004 0.69673 0.50838 0.0
O1024 O 0.67804 0.67779 0.45009 0.0
O1025 O 0.70524 0.66476 0.48523 0.0
O1026 O 0.71677 0.66626 0.57209 0.0
O1027 O 0.69427 0.6416 0.58178 0.0
O1028 O 0.67439 0.63819 0.5069 0.0
O1029 O 0.65339 0.66115 0.52411 0.0
O1030 O 0.66997 0.68737 0.58294 0.0
O1031 O 0.63978 0.69487 0.55084 0.0
H1032 H 0.6036 0.70915 0.38244 0.0
H1033 H 0.61069 0.72086 0.31829 0.0
H1034 H 0.67617 0.72488 0.34477 0.0
H1035 H 0.66883 0.71375 0.40881 0.0
H1036 H 0.73546 0.67796 0.63271 0.0
H1037 H 0.74754 0.67466 0.6973 0.0
H1038 H 0.71333 0.61729 0.70839 0.0
H1039 H 0.70172 0.62038 0.64362 0.0
Nd1040 Nd 0.05633 0.91679 0.23402 0.0
Nd1041 Nd 0.08469 0.9408 0.29037 0.0
C1042 C 0.04099 0.89593 0.17618 0.0
C1043 C 0.04007 0.89806 0.13495 0.0
C1044 C 0.05709 0.90548 0.11427 0.0
C1045 C 0.0558 0.90725 0.07523 0.0
C1046 C 0.03742 0.90184 0.05594 0.0
C1047 C 0.02039 0.8946 0.07696 0.0
C1048 C 0.02172 0.89273 0.11596 0.0
C1049 C 0.03875 0.9524 0.26276 0.0
C1050 C 0.08707 0.95483 0.20305 0.0
C1051 C 0.10145 0.96215 0.34654 0.0
C1052 C 0.09903 0.96914 0.38617 0.0
C1053 C 0.1037 0.95588 0.4164 0.0
C1054 C 0.10398 0.9634 0.45329 0.0
C1055 C 0.09963 0.9844 0.46106 0.0
C1056 C 0.09439 -0.00251 0.43087 0.0
C1057 C 0.09419 0.98998 0.394 0.0
C1058 C 0.10363 0.90936 0.25083 0.0
C1059 C 0.04774 0.90889 0.32059 0.0
O1060 O 0.05913 0.89202 0.19123 0.0
O1061 O 0.03019 0.90933 0.19549 0.0
O1062 O 0.02875 0.93506 0.25785 0.0
O1063 O 0.05755 0.94976 0.25419 0.0
O1064 O 0.07555 0.93829 0.19543 0.0
O1065 O 0.0917 0.96032 0.23786 0.0
O1066 O 0.0895 0.97054 0.32089 0.0
O1067 O 0.10539 0.94252 0.34008 0.0
O1068 O 0.11305 0.92597 0.26248 0.0
O1069 O 0.08551 0.90876 0.26454 0.0
O1070 O 0.05922 0.92561 0.32657 0.0
O1071 O 0.04677 0.89986 0.28743 0.0
H1072 H 0.0714 0.90985 0.12823 0.0
H1073 H 0.06922 0.91303 0.0602 0.0
H1074 H 0.00611 0.88992 0.06324 0.0
H1075 H 0.0084 0.88698 0.13135 0.0
H1076 H 0.10766 0.93977 0.41156 0.0
H1077 H 0.10778 0.95276 0.47576 0.0
H1078 H 0.09119 0.01378 0.43553 0.0
H1079 H 0.09084 0.00072 0.37143 0.0
Nd1080 Nd 0.82609 0.3068 0.98157 0.0
Nd1081 Nd 0.80003 0.33422 0.03615 0.0
C1082 C 0.84902 0.29241 0.92561 0.0
C1083 C 0.84642 0.28881 0.88501 0.0
C1084 C 0.83526 0.30277 0.8624 0.0
C1085 C 0.83238 0.29869 0.82426 0.0
C1086 C 0.84041 0.28048 0.80796 0.0
C1087 C 0.85184 0.26672 0.83062 0.0
C1088 C 0.8548 0.27085 0.86875 0.0
C1089 C 0.7892 0.28897 1.00435 0.0
C1090 C 0.78883 0.33789 0.94763 0.0
C1091 C 0.77633 0.34866 0.09103 0.0
C1092 C 0.77029 0.34469 0.13064 0.0
C1093 C 0.78472 0.34646 0.16014 0.0
C1094 C 0.77821 0.34496 0.19752 0.0
C1095 C 0.75715 0.34156 0.20638 0.0
C1096 C 0.7429 0.33899 0.17682 0.0
C1097 C 0.74938 0.34065 0.13946 0.0
C1098 C 0.83233 0.35419 1.00075 0.0
C1099 C 0.83223 0.29838 0.06907 0.0
O1100 O 0.84943 0.3117 0.9369 0.0
O1101 O 0.83822 0.28045 0.94783 0.0
O1102 O 0.80657 0.27887 1.00061 0.0
O1103 O 0.7924 0.30784 0.99745 0.0
O1104 O 0.80501 0.32561 0.94131 0.0
O1105 O 0.7826 0.34273 0.98191 0.0
O1106 O 0.76952 0.33576 0.06543 0.0
O1107 O 0.79527 0.35522 0.08445 0.0
O1108 O 0.8155 0.36328 1.01237 0.0
O1109 O 0.83285 0.3358 1.01346 0.0
O1110 O 0.81511 0.30938 0.07375 0.0
O1111 O 0.84195 0.29761 0.03652 0.0
H1112 H 0.82866 0.31679 0.87419 0.0
H1113 H 0.8239 0.30984 0.80747 0.0
H1114 H 0.85808 0.25248 0.81911 0.0
H1115 H 0.86341 0.25986 0.88569 0.0
H1116 H 0.80098 0.34949 0.15447 0.0
H1117 H 0.78967 0.3467 0.21955 0.0
H1118 H 0.72655 0.33652 0.18257 0.0
H1119 H 0.73788 0.33935 0.11739 0.0
Nd1120 Nd 0.4501 0.90947 0.24213 0.0
Nd1121 Nd 0.42807 0.9476 0.28293 0.0
C1122 C 0.47008 0.88761 0.19064 0.0
C1123 C 0.47674 0.89168 0.15159 0.0
C1124 C 0.4759 0.9118 0.13643 0.0
C1125 C 0.4827 0.91564 0.09978 0.0
C1126 C 0.49044 0.89942 0.07726 0.0
C1127 C 0.49095 0.87923 0.09248 0.0
C1128 C 0.48422 0.87543 0.12923 0.0
C1129 C 0.41736 0.89907 0.28786 0.0
C1130 C 0.42015 0.94278 0.19424 0.0
C1131 C 0.4085 0.97234 0.33023 0.0
C1132 C 0.40623 0.97509 0.37129 0.0
C1133 C 0.38767 0.9696 0.38961 0.0
C1134 C 0.385 0.97389 0.42782 0.0
C1135 C 0.40075 0.98396 0.44826 0.0
C1136 C 0.41952 0.9888 0.43014 0.0
C1137 C 0.42221 0.98447 0.39222 0.0
C1138 C 0.46146 0.95682 0.23961 0.0
C1139 C 0.46413 0.91822 0.32684 0.0
O1140 O 0.47951 0.89839 0.21669 0.0
O1141 O 0.45001 0.88608 0.19636 0.0
O1142 O 0.43265 0.8865 0.28041 0.0
O1143 O 0.41854 0.91523 0.26775 0.0
O1144 O 0.43508 0.92874 0.19546 0.0
O1145 O 0.41238 0.95131 0.22498 0.0
O1146 O 0.39937 0.95637 0.31439 0.0
O1147 O 0.42685 0.97632 0.31611 0.0
O1148 O 0.44589 0.96949 0.24363 0.0
O1149 O 0.45959 0.94118 0.26028 0.0
O1150 O 0.44836 0.93151 0.3289 0.0
O1151 O 0.46983 0.90916 0.29529 0.0
H1152 H 0.47005 0.92459 0.15298 0.0
H1153 H 0.48176 0.93134 0.08903 0.0
H1154 H 0.49701 0.86638 0.07629 0.0
H1155 H 0.48502 0.8598 0.14031 0.0
H1156 H 0.37505 0.96242 0.37424 0.0
H1157 H 0.37035 0.97 0.441 0.0
H1158 H 0.43212 0.99619 0.44525 0.0
H1159 H 0.43676 0.9889 0.37922 0.0
Nd1160 Nd 0.82499 0.69697 0.99454 0.0
Nd1161 Nd 0.8033 0.66455 0.04686 0.0
C1162 C 0.83662 0.7222 0.93982 0.0
C1163 C 0.83137 0.72698 0.90041 0.0
C1164 C 0.83386 0.74727 0.88686 0.0
C1165 C 0.83055 0.75179 0.84892 0.0
C1166 C 0.82475 0.73604 0.82367 0.0
C1167 C 0.82197 0.71577 0.83757 0.0
C1168 C 0.82509 0.7113 0.87553 0.0
C1169 C 0.85103 0.66937 0.03057 0.0
C1170 C 0.79712 0.65939 0.95772 0.0
C1171 C 0.79404 0.63894 0.10243 0.0
C1172 C 0.78311 0.64258 0.13806 0.0
C1173 C 0.78595 0.6293 0.16876 0.0
C1174 C 0.77691 0.63399 0.20346 0.0
C1175 C 0.76463 0.65193 0.20788 0.0
C1176 C 0.76118 0.66466 0.17636 0.0
C1177 C 0.77051 0.66018 0.14207 0.0
C1178 C 0.77673 0.69292 1.01757 0.0
C1179 C 0.82323 0.70884 0.08199 0.0
O1180 O 0.82313 0.72755 0.96553 0.0
O1181 O 0.84517 0.70408 0.94623 0.0
O1182 O 0.85584 0.68838 1.02227 0.0
O1183 O 0.83356 0.66478 1.01639 0.0
O1184 O 0.80363 0.67872 0.95569 0.0
O1185 O 0.79935 0.64832 0.98895 0.0
O1186 O 0.81209 0.64812 0.09921 0.0
O1187 O 0.78273 0.64074 0.07216 0.0
O1188 O 0.77103 0.67449 0.02793 0.0
O1189 O 0.79519 0.69667 0.02752 0.0
O1190 O 0.81429 0.69053 0.08779 0.0
O1191 O 0.82781 0.71585 0.04821 0.0
H1192 H 0.83866 0.75961 0.90557 0.0
H1193 H 0.83257 0.76762 0.83936 0.0
H1194 H 0.81795 0.70318 0.81888 0.0
H1195 H 0.82306 0.69549 0.88523 0.0
H1196 H 0.79543 0.6155 0.16616 0.0
H1197 H 0.78006 0.62385 0.22698 0.0
H1198 H 0.75135 0.67827 0.17809 0.0
H1199 H 0.76807 0.67065 0.11871 0.0
Nd1200 Nd 0.0476 0.08422 0.74094 0.0
Nd1201 Nd 0.0768 0.05808 0.79374 0.0
C1202 C 0.02353 0.09844 0.68635 0.0
C1203 C 0.01601 0.09415 0.64764 0.0
C1204 C 0.99536 0.08774 0.64212 0.0
C1205 C 0.98698 0.08622 0.60605 0.0
C1206 C -0.00112 0.09143 0.57433 0.0
C1207 C 0.01988 0.09693 0.57972 0.0
C1208 C 0.02834 0.09831 0.61594 0.0
C1209 C 0.07493 0.10684 0.78426 0.0
C1210 C 0.08541 0.05591 0.70448 0.0
C1211 C 0.10151 0.04418 0.84774 0.0
C1212 C 0.10145 0.04114 0.88861 0.0
C1213 C 0.12023 0.03709 0.90712 0.0
C1214 C 0.12037 0.03198 0.94518 0.0
C1215 C 0.10166 0.03065 0.96544 0.0
C1216 C 0.08287 0.03533 0.94697 0.0
C1217 C 0.08277 0.04059 0.9089 0.0
C1218 C 0.04917 0.03532 0.7535 0.0
C1219 C 0.03343 0.08005 0.82727 0.0
O1220 O 0.01675 0.08641 0.71335 0.0
O1221 O 0.04291 0.10425 0.69104 0.0
O1222 O 0.0568 0.11343 0.77357 0.0
O1223 O 0.07902 0.08977 0.76836 0.0
O1224 O 0.0671 0.06486 0.7007 0.0
O1225 O 0.0947 0.05437 0.73767 0.0
O1226 O 0.10215 0.06325 0.83521 0.0
O1227 O 0.08875 0.03243 0.82872 0.0
O1228 O 0.06739 0.02856 0.76333 0.0
O1229 O 0.04531 0.0528 0.76796 0.0
O1230 O 0.05132 0.07045 0.83405 0.0
O1231 O 0.02743 0.08545 0.79323 0.0
H1232 H 0.98539 0.08454 0.66584 0.0
H1233 H 0.97092 0.08142 0.60315 0.0
H1234 H 0.02955 0.10114 0.55611 0.0
H1235 H 0.04431 0.10335 0.61909 0.0
H1236 H 0.13479 0.03735 0.89188 0.0
H1237 H 0.13509 0.02827 0.95836 0.0
H1238 H 0.06822 0.03467 0.96185 0.0
H1239 H 0.06808 0.04368 0.89509 0.0
Nd1240 Nd 0.65573 0.29276 0.49297 0.0
Nd1241 Nd 0.68282 0.32073 0.5437 0.0
C1242 C 0.63806 0.27114 0.4386 0.0
C1243 C 0.64274 0.26556 0.39938 0.0
C1244 C 0.66328 0.26332 0.38687 0.0
C1245 C 0.6674 0.258 0.34957 0.0
C1246 C 0.65107 0.25549 0.32353 0.0
C1247 C 0.6305 0.25825 0.33625 0.0
C1248 C 0.62642 0.26307 0.37375 0.0
C1249 C 0.63582 0.32511 0.52894 0.0
C1250 C 0.68986 0.32438 0.4533 0.0
C1251 C 0.69875 0.34932 0.58848 0.0
C1252 C 0.70632 0.35049 0.62773 0.0
C1253 C 0.69488 0.36165 0.6545 0.0
C1254 C 0.70167 0.36282 0.69171 0.0
C1255 C 0.72015 0.35294 0.70309 0.0
C1256 C 0.73163 0.34184 0.67618 0.0
C1257 C 0.72481 0.34062 0.639 0.0
C1258 C 0.69943 0.28211 0.53093 0.0
C1259 C 0.65594 0.28273 0.58028 0.0
O1260 O 0.64966 0.26269 0.46478 0.0
O1261 O 0.63406 0.29076 0.44479 0.0
O1262 O 0.62804 0.3066 0.52639 0.0
O1263 O 0.65315 0.3258 0.51277 0.0
O1264 O 0.67715 0.30838 0.44992 0.0
O1265 O 0.69343 0.33329 0.48613 0.0
O1266 O 0.67872 0.34653 0.58401 0.0
O1267 O 0.7099 0.33876 0.56437 0.0
O1268 O 0.70155 0.2922 0.56215 0.0
O1269 O 0.68984 0.29307 0.50735 0.0
O1270 O 0.66199 0.30226 0.58458 0.0
O1271 O 0.65554 0.27372 0.54706 0.0
H1272 H 0.67615 0.26571 0.40597 0.0
H1273 H 0.68341 0.25568 0.34137 0.0
H1274 H 0.61746 0.25704 0.3172 0.0
H1275 H 0.61045 0.26508 0.38267 0.0
H1276 H 0.68058 0.36943 0.64667 0.0
H1277 H 0.69227 0.37129 0.71165 0.0
H1278 H 0.74611 0.33432 0.68367 0.0
H1279 H 0.73408 0.33194 0.61913 0.0
H1280 H 0.07264 0.44351 0.23883 0.0
H1281 H 0.09574 0.48913 0.15954 0.0
H1282 H 0.10383 0.51286 0.21182 0.0
H1283 H 0.04888 0.48068 0.30171 0.0
H1284 H 0.0554 0.46602 0.34308 0.0
H1285 H 0.05116 0.45284 0.2992 0.0
H1286 H 0.0878 0.43584 0.30396 0.0
H1287 H 0.09173 0.4487 0.34813 0.0
H1288 H 0.11023 0.45216 0.31075 0.0
H1289 H 0.10989 0.53148 0.27308 0.0
H1290 H 0.11403 0.54321 0.33856 0.0
H1291 H 0.08684 0.48547 0.37757 0.0
C1292 C 0.07943 0.45847 0.23235 0.0
C1293 C 0.08362 0.4644 0.19498 0.0
C1294 C 0.09243 0.48418 0.18789 0.0
C1295 C 0.09704 0.49781 0.21741 0.0
C1296 C 0.09271 0.49147 0.25388 0.0
C1297 C 0.08409 0.47227 0.26143 0.0
C1298 C 0.08099 0.46917 0.30307 0.0
C1299 C 0.05773 0.46705 0.31232 0.0
C1300 C 0.09343 0.45036 0.31732 0.0
C1301 C 0.08977 0.48938 0.31792 0.0
C1302 C 0.09622 0.50214 0.28907 0.0
C1303 C 0.10484 0.52164 0.29588 0.0
C1304 C 0.10706 0.5282 0.33315 0.0
C1305 C 0.10083 0.51526 0.3632 0.0
C1306 C 0.09198 0.49563 0.35526 0.0
H1307 H 0.76019 0.84252 0.6427 0.0
H1308 H 0.70127 0.86948 0.60869 0.0
H1309 H 0.71388 0.87171 0.54352 0.0
H1310 H 0.79324 0.87293 0.57962 0.0
H1311 H 0.81041 0.8514 0.57059 0.0
H1312 H 0.79707 0.85318 0.61476 0.0
H1313 H 0.78161 0.81628 0.60397 0.0
H1314 H 0.79523 0.81497 0.56011 0.0
H1315 H 0.76748 0.81108 0.56133 0.0
H1316 H 0.73245 0.87049 0.48222 0.0
H1317 H 0.75469 0.86348 0.42766 0.0
H1318 H 0.80162 0.83684 0.50097 0.0
C1319 C 0.75004 0.8491 0.62157 0.0
C1320 C 0.72975 0.85587 0.63073 0.0
C1321 C 0.71679 0.86404 0.60222 0.0
C1322 C 0.72388 0.86553 0.56522 0.0
C1323 C 0.74396 0.85875 0.55714 0.0
C1324 C 0.75683 0.85057 0.58441 0.0
C1325 C 0.77735 0.8435 0.56787 0.0
C1326 C 0.79559 0.85601 0.58419 0.0
C1327 C 0.78057 0.82006 0.57367 0.0
C1328 C 0.77386 0.84871 0.52695 0.0
C1329 C 0.7546 0.85775 0.52152 0.0
C1330 C 0.7476 0.8635 0.48611 0.0
C1331 C 0.76041 0.85949 0.45526 0.0
C1332 C 0.77996 0.84964 0.45991 0.0
C1333 C 0.78685 0.84453 0.49641 0.0
H1334 H 0.40696 0.50181 0.71232 0.0
H1335 H 0.39746 0.56646 0.74098 0.0
H1336 H 0.38823 0.55665 0.80517 0.0
H1337 H 0.36423 0.48127 0.77259 0.0
H1338 H 0.37867 0.45854 0.78639 0.0
H1339 H 0.38307 0.47014 0.74114 0.0
H1340 H 0.42244 0.47375 0.75625 0.0
H1341 H 0.41791 0.46176 0.80101 0.0
H1342 H 0.43016 0.48685 0.79878 0.0
H1343 H 0.38254 0.54103 0.86645 0.0
H1344 H 0.38096 0.51978 0.92366 0.0
H1345 H 0.39347 0.46444 0.85825 0.0
C1346 C 0.40249 0.51378 0.73199 0.0
C1347 C 0.40296 0.53503 0.72167 0.0
C1348 C 0.39743 0.55022 0.74839 0.0
C1349 C 0.39199 0.54478 0.78487 0.0
C1350 C 0.39196 0.5239 0.79445 0.0
C1351 C 0.39698 0.50853 0.76902 0.0
C1352 C 0.39668 0.48735 0.78796 0.0
C1353 C 0.37965 0.4735 0.77101 0.0
C1354 C 0.41808 0.47681 0.78582 0.0
C1355 C 0.39142 0.49347 0.82799 0.0
C1356 C 0.38853 0.51465 0.83072 0.0
C1357 C 0.38459 0.52438 0.86474 0.0
C1358 C 0.38385 0.51221 0.8971 0.0
C1359 C 0.38716 0.49051 0.89543 0.0
C1360 C 0.39064 0.48096 0.86025 0.0
H1361 H 0.73405 0.16241 0.13512 0.0
H1362 H 0.79297 0.13604 0.10001 0.0
H1363 H 0.78152 0.13785 0.03401 0.0
H1364 H 0.70175 0.13594 0.06954 0.0
H1365 H 0.68479 0.15783 0.06185 0.0
H1366 H 0.69809 0.155 0.1059 0.0
H1367 H 0.71362 0.19195 0.09736 0.0
H1368 H 0.70048 0.19441 0.05302 0.0
H1369 H 0.72826 0.19784 0.05566 0.0
H1370 H 0.76315 0.14099 0.97238 0.0
H1371 H 0.73963 0.14651 0.91874 0.0
H1372 H 0.69254 0.17083 0.99401 0.0
C1373 C 0.74454 0.15703 0.11351 0.0
C1374 C 0.7644 0.14903 0.12265 0.0
C1375 C 0.77779 0.14239 0.09359 0.0
C1376 C 0.77138 0.14328 0.05608 0.0
C1377 C 0.75163 0.151 0.04809 0.0
C1378 C 0.73845 0.15794 0.07592 0.0
C1379 C 0.71795 0.16543 0.05976 0.0
C1380 C 0.69957 0.15277 0.07518 0.0
C1381 C 0.71492 0.18879 0.06687 0.0
C1382 C 0.72149 0.16107 1.01861 0.0
C1383 C 0.74105 0.15289 1.01247 0.0
C1384 C 0.74782 0.14746 0.9768 0.0
C1385 C 0.7343 0.15058 0.94651 0.0
C1386 C 0.7142 0.15904 0.95209 0.0
C1387 C 0.70778 0.16428 0.98873 0.0
H1388 H 0.90358 0.55095 0.12011 0.0
H1389 H 0.88864 0.5004 0.19594 0.0
H1390 H 0.88139 0.47768 0.14192 0.0
H1391 H 0.86438 0.53795 0.04856 0.0
H1392 H 0.88114 0.54475 1.01003 0.0
H1393 H 0.88372 0.55799 0.05413 0.0
H1394 H 0.92241 0.54836 0.05814 0.0
H1395 H 0.92046 0.5353 1.01376 0.0
H1396 H 0.93014 0.52155 0.05419 0.0
H1397 H 0.87926 0.45943 0.07961 0.0
H1398 H 0.88004 0.44785 1.01361 0.0
H1399 H 0.89622 0.51034 0.97881 0.0
C1400 C 0.89837 0.53523 0.1254 0.0
C1401 C 0.89661 0.52749 0.1623 0.0
C1402 C 0.88989 0.50677 0.16797 0.0
C1403 C 0.88581 0.49369 0.13744 0.0
C1404 C 0.88824 0.50164 0.10143 0.0
C1405 C 0.89407 0.52202 0.09528 0.0
C1406 C 0.89638 0.52649 0.05389 0.0
C1407 C 0.88043 0.54275 0.0409 0.0
C1408 C 0.91868 0.53332 0.04449 0.0
C1409 C 0.89155 0.50531 0.03775 0.0
C1410 C 0.8868 0.4912 0.06558 0.0
C1411 C 0.88271 0.47042 0.05754 0.0
C1412 C 0.88336 0.46394 1.02003 0.0
C1413 C 0.88807 0.47821 0.99104 0.0
C1414 C 0.89218 0.49915 1.00024 0.0
H1415 H 0.2025 0.17296 0.87612 0.0
H1416 H 0.22694 0.11992 0.93669 0.0
H1417 H 0.24776 0.11014 0.8811 0.0
H1418 H 0.19936 0.15004 0.78432 0.0
H1419 H 0.20796 0.17327 0.76079 0.0
H1420 H 0.19424 0.17514 0.80456 0.0
H1421 H 0.2248 0.1964 0.83288 0.0
H1422 H 0.23844 0.19462 0.78901 0.0
H1423 H 0.2507 0.18584 0.83158 0.0
H1424 H 0.26616 0.10654 0.81897 0.0
H1425 H 0.28112 0.10938 0.75564 0.0
H1426 H 0.2461 0.16613 0.7372 0.0
C1427 C 0.21192 0.15905 0.87749 0.0
C1428 C 0.21286 0.14696 0.91049 0.0
C1429 C 0.22588 0.12926 0.91155 0.0
C1430 C 0.23775 0.12363 0.88015 0.0
C1431 C 0.23666 0.13606 0.84819 0.0
C1432 C 0.22415 0.15348 0.84675 0.0
C1433 C 0.2266 0.16488 0.80989 0.0
C1434 C 0.20581 0.16588 0.78863 0.0
C1435 C 0.23567 0.18672 0.81622 0.0
C1436 C 0.24209 0.15085 0.79033 0.0
C1437 C 0.24774 0.13438 0.81296 0.0
C1438 C 0.26191 0.11942 0.80107 0.0
C1439 C 0.27045 0.12127 0.76508 0.0
C1440 C 0.26489 0.138 0.74125 0.0
C1441 C 0.25053 0.15299 0.75437 0.0
H1442 H 0.58954 0.48478 0.4929 0.0
H1443 H 0.61283 0.54494 0.52789 0.0
H1444 H 0.61367 0.53278 0.59359 0.0
H1445 H 0.55649 0.47666 0.57168 0.0
H1446 H 0.56127 0.44919 0.57476 0.0
H1447 H 0.563 0.46213 0.5302 0.0
H1448 H 0.60048 0.44868 0.52128 0.0
H1449 H 0.59916 0.43542 0.56563 0.0
H1450 H 0.61978 0.45371 0.5568 0.0
H1451 H 0.61184 0.51374 0.65607 0.0
H1452 H 0.60566 0.49017 0.70971 0.0
H1453 H 0.58406 0.44263 0.63285 0.0
C1454 C 0.59501 0.49536 0.5143 0.0
C1455 C 0.6012 0.51582 0.50516 0.0
C1456 C 0.60784 0.52927 0.53421 0.0
C1457 C 0.60852 0.52245 0.57158 0.0
C1458 C 0.60246 0.50213 0.57955 0.0
C1459 C 0.59572 0.48883 0.55169 0.0
C1460 C 0.58941 0.46798 0.56766 0.0
C1461 C 0.56617 0.46375 0.56065 0.0
C1462 C 0.60302 0.45041 0.5519 0.0
C1463 C 0.59378 0.47155 0.60881 0.0
C1464 C 0.60133 0.4913 0.61522 0.0
C1465 C 0.60601 0.4982 0.65131 0.0
C1466 C 0.60255 0.48466 0.68162 0.0
C1467 C 0.59444 0.46449 0.67564 0.0
C1468 C 0.59033 0.45789 0.63858 0.0
H1469 H 0.29876 0.82819 0.37349 0.0
H1470 H 0.25693 0.86284 0.44533 0.0
H1471 H 0.23606 0.87272 0.39005 0.0
H1472 H 0.29711 0.86331 0.29336 0.0
H1473 H 0.2979 0.84225 0.26019 0.0
H1474 H 0.31002 0.83943 0.3054 0.0
H1475 H 0.28764 0.80617 0.31766 0.0
H1476 H 0.27596 0.80931 0.27215 0.0
H1477 H 0.2598 0.80781 0.31326 0.0
H1478 H 0.21872 0.87731 0.32714 0.0
H1479 H 0.20659 0.87672 0.26148 0.0
H1480 H 0.25966 0.8387 0.23115 0.0
C1481 C 0.28543 0.8381 0.37771 0.0
C1482 C 0.27962 0.84479 0.4139 0.0
C1483 C 0.2618 0.85754 0.41796 0.0
C1484 C 0.24982 0.86325 0.38669 0.0
C1485 C 0.25587 0.85612 0.35152 0.0
C1486 C 0.2733 0.84387 0.34687 0.0
C1487 C 0.27601 0.83754 0.30634 0.0
C1488 C 0.29647 0.84614 0.29038 0.0
C1489 C 0.27478 0.8138 0.3021 0.0
C1490 C 0.25731 0.84807 0.28885 0.0
C1491 C 0.24589 0.85871 0.31538 0.0
C1492 C 0.22759 0.8691 0.30611 0.0
C1493 C 0.22076 0.86857 0.26879 0.0
C1494 C 0.23217 0.8577 0.24111 0.0
C1495 C 0.25075 0.84742 0.25146 0.0
H1496 H 0.59643 0.98772 0.8861 0.0
H1497 H 0.63396 0.03996 0.84962 0.0
H1498 H 0.63103 0.02794 0.78422 0.0
H1499 H 0.61746 0.95058 0.82163 0.0
H1500 H 0.59314 0.93762 0.81291 0.0
H1501 H 0.59767 0.95001 0.85735 0.0
H1502 H 0.56449 0.97214 0.84932 0.0
H1503 H 0.55938 0.95978 0.80502 0.0
H1504 H 0.56118 0.98765 0.80769 0.0
H1505 H 0.62341 0.01084 0.72284 0.0
H1506 H 0.61234 0.98929 0.66946 0.0
H1507 H 0.57988 0.94793 0.74567 0.0
C1508 C 0.60394 -0.00331 0.86433 0.0
C1509 C 0.61549 0.01477 0.87301 0.0
C1510 C 0.62529 0.02592 0.84373 0.0
C1511 C 0.6236 0.01929 0.80648 0.0
C1512 C 0.6121 0.00145 0.79893 0.0
C1513 C 0.60247 0.99025 0.82698 0.0
C1514 C 0.59117 0.97152 0.81123 0.0
C1515 C 0.60041 0.95124 0.82672 0.0
C1516 C 0.56766 0.97286 0.81878 0.0
C1517 C 0.59587 0.97402 0.76994 0.0
C1518 C 0.60792 0.99141 0.76348 0.0
C1519 C 0.61403 -0.00286 0.72756 0.0
C1520 C 0.60763 0.98478 0.6974 0.0
C1521 C 0.59528 0.96685 0.70329 0.0
C1522 C 0.58941 0.96144 0.74016 0.0
H1523 H 0.27074 0.35158 0.95668 0.0
H1524 H 0.28798 0.28674 0.96584 0.0
H1525 H 0.26988 0.28429 0.02637 0.0
H1526 H 0.28086 0.36256 0.05166 0.0
H1527 H 0.26005 0.38101 0.05757 0.0
H1528 H 0.27146 0.37721 1.01209 0.0
H1529 H 0.23515 0.3688 0.98447 0.0
H1530 H 0.22359 0.37265 0.02988 0.0
H1531 H 0.21966 0.34853 1.00531 0.0
H1532 H 0.25199 0.28884 0.0865 0.0
H1533 H 0.23724 0.30075 0.14612 0.0
H1534 H 0.23344 0.36357 0.10227 0.0
C1535 C 0.26998 0.33677 0.971 0.0
C1536 C 0.28003 0.31911 0.9562 0.0
C1537 C 0.27988 0.30026 0.97649 0.0
C1538 C 0.26965 0.29871 1.01082 0.0
C1539 C 0.25999 0.31633 0.02499 0.0
C1540 C 0.26019 0.33509 1.00608 0.0
C1541 C 0.25069 0.3521 0.03 0.0
C1542 C 0.26672 0.36923 0.03832 0.0
C1543 C 0.23111 0.36105 1.01129 0.0
C1544 C 0.24526 0.33994 0.06514 0.0
C1545 C 0.25056 0.31929 0.06124 0.0
C1546 C 0.24773 0.30497 0.08996 0.0
C1547 C 0.23947 0.31195 0.12387 0.0
C1548 C 0.23432 0.33314 0.12914 0.0
C1549 C 0.23701 0.34724 0.09906 0.0
H1550 H 0.91718 0.048 0.24677 0.0
H1551 H 0.88867 0.00176 0.17459 0.0
H1552 H 0.88052 0.98032 0.22972 0.0
H1553 H 0.94093 0.01268 0.31015 0.0
H1554 H 0.9361 0.02813 0.3513 0.0
H1555 H 0.93894 0.04053 0.3064 0.0
H1556 H 0.90045 0.04631 0.35901 0.0
H1557 H 0.8804 0.04223 0.32444 0.0
H1558 H 0.90261 0.05805 0.31338 0.0
H1559 H 0.87536 0.96383 0.29212 0.0
H1560 H 0.87431 0.95285 0.35837 0.0
H1561 H 0.90695 0.00906 0.39039 0.0
C1562 C 0.90908 0.03345 0.24255 0.0
C1563 C 0.90352 0.02661 0.20628 0.0
C1564 C 0.89308 0.00738 0.20204 0.0
C1565 C 0.88837 0.99506 0.2332 0.0
C1566 C 0.8942 0.00215 0.26846 0.0
C1567 C 0.90431 0.02088 0.27339 0.0
C1568 C 0.9091 0.02468 0.31438 0.0
C1569 C 0.93267 0.02661 0.32093 0.0
C1570 C 0.89745 0.04396 0.32867 0.0
C1571 C 0.90041 0.00498 0.33159 0.0
C1572 C 0.89166 0.99235 0.30458 0.0
C1573 C 0.88217 0.97356 0.31356 0.0
C1574 C 0.88157 0.9675 0.35121 0.0
C1575 C 0.89056 0.98009 0.37938 0.0
C1576 C 0.90015 -0.00095 0.36933 0.0
H1577 H 0.19575 0.67521 0.49348 0.0
H1578 H 0.24186 0.64947 0.41794 0.0
H1579 H 0.266 0.64482 0.47114 0.0
H1580 H 0.23266 0.70315 0.55302 0.0
H1581 H 0.21738 0.69823 0.59433 0.0
H1582 H 0.2049 0.70015 0.54927 0.0
H1583 H 0.18843 0.66375 0.5609 0.0
H1584 H 0.2017 0.66174 0.60514 0.0
H1585 H 0.20522 0.64191 0.57013 0.0
H1586 H 0.28505 0.64277 0.53312 0.0
H1587 H 0.29655 0.64164 0.59931 0.0
H1588 H 0.23784 0.66877 0.63344 0.0
C1589 C 0.21089 0.66857 0.48799 0.0
C1590 C 0.21688 0.6627 0.45147 0.0
C1591 C 0.23689 0.65408 0.44566 0.0
C1592 C 0.25076 0.65146 0.47568 0.0
C1593 C 0.24441 0.65761 0.51127 0.0
C1594 C 0.22493 0.66596 0.51751 0.0
C1595 C 0.22171 0.67102 0.55843 0.0
C1596 C 0.219 0.69453 0.5641 0.0
C1597 C 0.20317 0.65887 0.57459 0.0
C1598 C 0.24217 0.66358 0.57449 0.0
C1599 C 0.25522 0.65623 0.54681 0.0
C1600 C 0.27498 0.64853 0.55502 0.0
C1601 C 0.28142 0.64804 0.5926 0.0
C1602 C 0.26804 0.65501 0.6214 0.0
C1603 C 0.2483 0.66312 0.61201 0.0
H1604 H 0.41635 0.0579 0.62314 0.0
H1605 H 0.39162 0.0093 0.69454 0.0
H1606 H 0.38349 0.9883 0.63815 0.0
H1607 H 0.38039 0.05194 0.54486 0.0
H1608 H 0.40066 0.05729 0.51138 0.0
H1609 H 0.40179 0.06857 0.55748 0.0
H1610 H 0.43885 0.05199 0.56699 0.0
H1611 H 0.43705 0.04136 0.52057 0.0
H1612 H 0.44191 0.02453 0.55997 0.0
H1613 H 0.38064 0.97168 0.5727 0.0
H1614 H 0.38365 0.96125 0.50606 0.0
H1615 H 0.41088 0.02112 0.47998 0.0
C1616 C 0.40895 0.04297 0.62718 0.0
C1617 C 0.40457 0.03528 0.66338 0.0
C1618 C 0.39497 0.0156 0.66709 0.0
C1619 C 0.39035 0.00356 0.63521 0.0
C1620 C 0.3954 0.01148 0.59994 0.0
C1621 C 0.40445 0.0308 0.59596 0.0
C1622 C 0.40967 0.03549 0.55561 0.0
C1623 C 0.3974 0.05444 0.54149 0.0
C1624 C 0.43326 0.03852 0.55048 0.0
C1625 C 0.40233 0.0157 0.53723 0.0
C1626 C 0.39401 0.00202 0.56303 0.0
C1627 C 0.38697 0.98239 0.55232 0.0
C1628 C 0.38869 0.9766 0.51443 0.0
C1629 C 0.39759 0.99032 0.48787 0.0
C1630 C 0.40419 0.01019 0.49962 0.0
H1631 H 0.75027 0.62643 0.26539 0.0
H1632 H 0.75994 0.69124 0.23586 0.0
H1633 H 0.74419 0.70186 0.29523 0.0
H1634 H 0.70175 0.63263 0.31306 0.0
H1635 H 0.70759 0.61434 0.34977 0.0
H1636 H 0.71932 0.61137 0.30432 0.0
H1637 H 0.75591 0.61166 0.33486 0.0
H1638 H 0.74425 0.61466 0.38039 0.0
H1639 H 0.76335 0.63311 0.36436 0.0
H1640 H 0.72469 0.70587 0.35379 0.0
H1641 H 0.7069 0.70328 0.4147 0.0
H1642 H 0.71269 0.63628 0.41173 0.0
C1643 C 0.74932 0.64285 0.27151 0.0
C1644 C 0.756 0.65796 0.24516 0.0
C1645 C 0.75435 0.67929 0.25461 0.0
C1646 C 0.74557 0.68554 0.28855 0.0
C1647 C 0.73885 0.67033 0.31337 0.0
C1648 C 0.74089 0.64943 0.30579 0.0
C1649 C 0.73268 0.63643 0.33816 0.0
C1650 C 0.71424 0.62289 0.32556 0.0
C1651 C 0.75009 0.62318 0.35547 0.0
C1652 C 0.72566 0.65336 0.36489 0.0
C1653 C 0.72913 0.67275 0.34947 0.0
C1654 C 0.72249 0.69086 0.36681 0.0
C1655 C 0.7124 0.68923 0.40128 0.0
C1656 C 0.70919 0.6697 0.41828 0.0
C1657 C 0.71582 0.65145 0.39991 0.0
H1658 H 0.0678 0.95762 0.13511 0.0
H1659 H 0.11854 0.9837 0.20004 0.0
H1660 H 0.12706 0.00717 0.14717 0.0
H1661 H 0.09184 0.95795 0.04656 0.0
H1662 H 0.06885 0.96564 1.02112 0.0
H1663 H 0.06641 0.95142 0.0642 0.0
H1664 H 0.04299 0.97996 0.0919 0.0
H1665 H 0.04499 0.99448 0.04892 0.0
H1666 H 0.05203 0.00643 0.09275 0.0
H1667 H 0.13065 0.02684 0.08575 0.0
H1668 H 0.12883 0.04134 1.02171 0.0
H1669 H 0.075 0.00282 0.99842 0.0
C1670 C 0.08081 0.96817 0.13822 0.0
C1671 C 0.0927 0.96869 0.17155 0.0
C1672 C 0.1093 0.98301 0.17469 0.0
C1673 C 0.11421 -0.00361 0.14485 0.0
C1674 C 0.10213 0.99549 0.11239 0.0
C1675 C 0.08566 0.98184 0.1091 0.0
C1676 C 0.07489 0.98404 0.07156 0.0
C1677 C 0.07557 0.96354 0.04954 0.0
C1678 C 0.0524 0.99168 0.07659 0.0
C1679 C 0.08833 0.00055 0.05357 0.0
C1680 C 0.10385 0.0071 0.07764 0.0
C1681 C 0.1185 0.02188 0.06678 0.0
C1682 C 0.1174 0.02996 0.03029 0.0
C1683 C 0.10176 0.02327 1.00499 0.0
C1684 C 0.08693 0.00853 1.01718 0.0
H1685 H 0.73885 0.32251 0.74573 0.0
H1686 H 0.7186 0.38674 0.75017 0.0
H1687 H 0.73195 0.38944 0.81484 0.0
H1688 H 0.72797 0.30994 0.84392 0.0
H1689 H 0.75061 0.29366 0.84837 0.0
H1690 H 0.73778 0.29618 0.80373 0.0
H1691 H 0.77241 0.3081 0.77321 0.0
H1692 H 0.78514 0.30521 0.81785 0.0
H1693 H 0.78647 0.32963 0.79326 0.0
H1694 H 0.74879 0.38534 0.87918 0.0
H1695 H 0.76899 0.37504 0.93558 0.0
H1696 H 0.77985 0.31448 0.88662 0.0
C1697 C 0.7372 0.33718 0.7602 0.0
C1698 C 0.72758 0.3544 0.74267 0.0
C1699 C 0.72558 0.3732 0.76302 0.0
C1700 C 0.73319 0.37492 0.7998 0.0
C1701 C 0.74276 0.3577 0.81602 0.0
C1702 C 0.74474 0.33918 0.79683 0.0
C1703 C 0.75641 0.32324 0.81986 0.0
C1704 C 0.74236 0.30466 0.82953 0.0
C1705 C 0.7763 0.31615 0.79982 0.0
C1706 C 0.76139 0.33589 0.85438 0.0
C1707 C 0.753 0.3556 0.85215 0.0
C1708 C 0.75544 0.36995 0.88114 0.0
C1709 C 0.76689 0.36401 0.91302 0.0
C1710 C 0.77611 0.34412 0.9151 0.0
C1711 C 0.7732 0.32993 0.88546 0.0
H1712 H 0.12039 0.32366 0.28029 0.0
H1713 H 0.15227 0.37223 0.34181 0.0
H1714 H 0.14441 0.3971 0.29106 0.0
H1715 H 0.13895 0.33822 0.191 0.0
H1716 H 0.11529 0.33223 0.16613 0.0
H1717 H 0.1216 0.31854 0.20864 0.0
H1718 H 0.08634 0.32939 0.23731 0.0
H1719 H 0.07974 0.34317 0.19501 0.0
H1720 H 0.07946 0.35647 0.23939 0.0
H1721 H 0.13542 0.41591 0.2329 0.0
H1722 H 0.12431 0.4286 0.17125 0.0
H1723 H 0.09826 0.36809 0.14535 0.0
C1724 C 0.12525 0.33966 0.28339 0.0
C1725 C 0.13675 0.34617 0.31508 0.0
C1726 C 0.14332 0.36706 0.31785 0.0
C1727 C 0.13897 0.38125 0.28916 0.0
C1728 C 0.12807 0.37426 0.25787 0.0
C1729 C 0.12117 0.35403 0.25478 0.0
C1730 C 0.11065 0.35042 0.21722 0.0
C1731 C 0.12232 0.33387 0.19441 0.0
C1732 C 0.08768 0.34452 0.22255 0.0
C1733 C 0.11285 0.37177 0.19963 0.0
C1734 C 0.12296 0.3852 0.22374 0.0
C1735 C 0.12738 0.4056 0.21386 0.0
C1736 C 0.12111 0.4126 0.17857 0.0
C1737 C 0.11034 0.39934 0.15347 0.0
C1738 C 0.10633 0.37858 0.16407 0.0
H1739 H 0.8786 0.89505 0.56582 0.0
H1740 H 0.93613 0.86314 0.53864 0.0
H1741 H 0.92132 0.8518 0.47896 0.0
H1742 H 0.84407 0.85594 0.52188 0.0
H1743 H 0.82595 0.87505 0.50474 0.0
H1744 H 0.84057 0.88 0.54687 0.0
H1745 H 0.85405 0.91423 0.51765 0.0
H1746 H 0.84001 0.9091 0.47504 0.0
H1747 H 0.86768 0.91341 0.4735 0.0
H1748 H 0.90141 0.84452 0.4212 0.0
H1749 H 0.87608 0.84032 0.3696 0.0
H1750 H 0.83127 0.87713 0.43131 0.0
C1751 C 0.88797 0.88562 0.5473 0.0
C1752 C 0.90865 0.88025 0.55697 0.0
C1753 C 0.92029 0.86758 0.53215 0.0
C1754 C 0.91205 0.86105 0.49792 0.0
C1755 C 0.89196 0.86705 0.48867 0.0
C1756 C 0.87988 0.87882 0.51264 0.0
C1757 C 0.85866 0.88295 0.49521 0.0
C1758 C 0.84129 0.87289 0.51857 0.0
C1759 C 0.85489 0.90632 0.49007 0.0
C1760 C 0.86108 0.87214 0.45764 0.0
C1761 C 0.88038 0.86294 0.45469 0.0
C1762 C 0.88624 0.85171 0.42306 0.0
C1763 C 0.87184 0.84949 0.39382 0.0
C1764 C 0.85192 0.85865 0.3962 0.0
C1765 C 0.84658 0.87032 0.42839 0.0
H1766 H 0.34448 0.62738 0.80869 0.0
H1767 H 0.37785 0.68352 0.7788 0.0
H1768 H 0.38653 0.66854 0.71757 0.0
H1769 H 0.37789 0.59256 0.77047 0.0
H1770 H 0.35909 0.57466 0.75081 0.0
H1771 H 0.35236 0.59033 0.79056 0.0
H1772 H 0.32093 0.60576 0.75607 0.0
H1773 H 0.3267 0.58967 0.71615 0.0
H1774 H 0.32433 0.61737 0.71057 0.0
H1775 H 0.39339 0.64732 0.66128 0.0
H1776 H 0.4005 0.61977 0.61511 0.0
H1777 H 0.36326 0.57669 0.68008 0.0
C1778 C 0.35325 0.6366 0.78887 0.0
C1779 C 0.36033 0.65666 0.79846 0.0
C1780 C 0.37224 0.6681 0.7722 0.0
C1781 C 0.37708 0.65982 0.73709 0.0
C1782 C 0.3698 0.64009 0.72832 0.0
C1783 C 0.35804 0.62862 0.75325 0.0
C1784 C 0.35333 0.60727 0.73739 0.0
C1785 C 0.36118 0.59017 0.76383 0.0
C1786 C 0.32993 0.60489 0.72959 0.0
C1787 C 0.36557 0.60807 0.70097 0.0
C1788 C 0.37429 0.62746 0.69582 0.0
C1789 C 0.38653 0.63211 0.66478 0.0
C1790 C 0.39047 0.61638 0.63867 0.0
C1791 C 0.38248 0.59614 0.64399 0.0
C1792 C 0.36943 0.59208 0.67512 0.0
H1793 H 0.66535 0.12244 0.9377 0.0
H1794 H 0.61443 0.14586 0.87003 0.0
H1795 H 0.5901 0.1395 0.92221 0.0
H1796 H 0.63809 0.08221 0.98218 0.0
H1797 H 0.64937 0.08519 0.02826 0.0
H1798 H 0.66386 0.09264 0.98732 0.0
H1799 H 0.66885 0.12975 1.0114 0.0
H1800 H 0.65535 0.12283 0.05381 0.0
H1801 H 0.64664 0.14461 0.02631 0.0
H1802 H 0.57154 0.13158 0.9807 0.0
H1803 H 0.5582 0.11863 0.04039 0.0
H1804 H 0.62042 0.09925 0.07262 0.0
C1805 C 0.64901 0.12591 0.93381 0.0
C1806 C 0.64163 0.13437 0.89966 0.0
C1807 C 0.62029 0.13917 0.89581 0.0
C1808 C 0.60642 0.1358 0.9254 0.0
C1809 C 0.61417 0.12784 0.95891 0.0
C1810 C 0.63491 0.12289 0.9634 0.0
C1811 C 0.63893 0.1142 1.00239 0.0
C1812 C 0.64809 0.09223 0.99996 0.0
C1813 C 0.65329 0.12871 0.02479 0.0
C1814 C 0.61697 0.1142 1.01848 0.0
C1815 C 0.60318 0.12272 0.993 0.0
C1816 C 0.58215 0.12483 1.00087 0.0
C1817 C 0.57474 0.11745 0.03513 0.0
C1818 C 0.58817 0.10763 0.06125 0.0
C1819 C 0.60974 0.10651 0.05315 0.0
H1820 H 0.07293 0.61948 0.52275 0.0
H1821 H 0.1213 0.59096 0.59018 0.0
H1822 H 0.14725 0.59966 0.54187 0.0
H1823 H 0.08989 0.60279 0.43547 0.0
H1824 H 0.08488 0.6264 0.40991 0.0
H1825 H 0.06978 0.62038 0.45083 0.0
H1826 H 0.07973 0.65503 0.48164 0.0
H1827 H 0.09451 0.66194 0.44064 0.0
H1828 H 0.10674 0.66205 0.48608 0.0
H1829 H 0.16707 0.60786 0.48473 0.0
H1830 H 0.18122 0.61913 0.42427 0.0
H1831 H 0.12078 0.64361 0.39258 0.0
C1832 C 0.08908 0.61558 0.52768 0.0
C1833 C 0.09519 0.60453 0.56017 0.0
C1834 C 0.11638 0.59945 0.56551 0.0
C1835 C 0.13119 0.60424 0.53818 0.0
C1836 C 0.1246 0.61438 0.50583 0.0
C1837 C 0.10418 0.6204 0.50063 0.0
C1838 C 0.10142 0.631 0.46287 0.0
C1839 C 0.08556 0.61942 0.43834 0.0
C1840 C 0.09523 0.65386 0.46811 0.0
C1841 C 0.12328 0.62913 0.44715 0.0
C1842 C 0.13633 0.61957 0.47265 0.0
C1843 C 0.15709 0.61558 0.46467 0.0
C1844 C 0.16492 0.6219 0.43001 0.0
C1845 C 0.15211 0.63231 0.40368 0.0
C1846 C 0.13092 0.63573 0.41222 0.0
H1847 H 0.62814 0.9153 0.68591 0.0
H1848 H 0.59448 0.86844 0.62308 0.0
H1849 H 0.59815 0.84404 0.6759 0.0
H1850 H 0.66481 0.88007 0.73051 0.0
H1851 H 0.66489 0.89334 0.77494 0.0
H1852 H 0.66004 0.90758 0.73239 0.0
H1853 H 0.62505 0.9211 0.7585 0.0
H1854 H 0.62999 0.90737 0.80157 0.0
H1855 H 0.60625 0.90281 0.77609 0.0
H1856 H 0.60254 0.82592 0.73572 0.0
H1857 H 0.6123 0.81202 0.79697 0.0
H1858 H 0.6449 0.8693 0.82314 0.0
C1859 C 0.62196 0.89974 0.68309 0.0
C1860 C 0.61108 0.89364 0.65033 0.0
C1861 C 0.60291 0.87332 0.64783 0.0
C1862 C 0.6048 0.85943 0.67777 0.0
C1863 C 0.61498 0.86606 0.71006 0.0
C1864 C 0.62373 0.88556 0.71292 0.0
C1865 C 0.63388 0.88847 0.75113 0.0
C1866 C 0.6573 0.8926 0.74701 0.0
C1867 C 0.62316 0.90598 0.7731 0.0
C1868 C 0.62967 0.8674 0.76897 0.0
C1869 C 0.61836 0.85503 0.74477 0.0
C1870 C 0.61165 0.83532 0.75476 0.0
C1871 C 0.61723 0.82761 0.78989 0.0
C1872 C 0.62972 0.83939 0.81481 0.0
C1873 C 0.63567 0.85979 0.80446 0.0
H1874 H 0.42061 0.36563 0.03696 0.0
H1875 H 0.37406 0.39785 0.10272 0.0
H1876 H 0.34773 0.39043 0.05411 0.0
H1877 H 0.40464 0.38369 0.94909 0.0
H1878 H 0.40872 0.35988 0.92368 0.0
H1879 H 0.42395 0.36527 0.96479 0.0
H1880 H 0.41244 0.33114 0.99587 0.0
H1881 H 0.3978 0.32488 0.95437 0.0
H1882 H 0.38515 0.32515 0.9994 0.0
H1883 H 0.32715 0.38179 0.99734 0.0
H1884 H 0.31277 0.37122 0.93655 0.0
H1885 H 0.37243 0.34495 0.90533 0.0
C1886 C 0.40475 0.37068 0.04147 0.0
C1887 C 0.39927 0.38218 0.07379 0.0
C1888 C 0.3785 0.3889 0.07834 0.0
C1889 C 0.36347 0.3848 0.05084 0.0
C1890 C 0.36944 0.37389 1.01893 0.0
C1891 C 0.38951 0.36675 1.01413 0.0
C1892 C 0.39186 0.35601 0.97645 0.0
C1893 C 0.40826 0.36689 0.95207 0.0
C1894 C 0.39711 0.33292 0.98184 0.0
C1895 C 0.37015 0.3588 0.96041 0.0
C1896 C 0.35748 0.36898 0.98569 0.0
C1897 C 0.33688 0.37372 0.97742 0.0
C1898 C 0.32891 0.36775 0.94258 0.0
C1899 C 0.34143 0.35712 0.91614 0.0
C1900 C 0.36242 0.35279 0.92514 0.0
H1901 H 0.84562 0.12625 0.31191 0.0
H1902 H 0.87435 0.18443 0.27867 0.0
H1903 H 0.884 0.16934 0.21833 0.0
H1904 H 0.88465 0.09367 0.26963 0.0
H1905 H 0.86695 0.07384 0.25381 0.0
H1906 H 0.86082 0.08902 0.29467 0.0
H1907 H 0.82581 0.10027 0.26534 0.0
H1908 H 0.83146 0.08493 0.22443 0.0
H1909 H 0.82555 0.11215 0.21965 0.0
H1910 H 0.89067 0.14897 0.16176 0.0
H1911 H 0.89726 0.1225 0.11339 0.0
H1912 H 0.8655 0.07645 0.18114 0.0
C1913 C 0.85381 0.13575 0.29173 0.0
C1914 C 0.85892 0.15665 0.29992 0.0
C1915 C 0.87013 0.16844 0.27319 0.0
C1916 C 0.87562 0.16006 0.23858 0.0
C1917 C 0.87009 0.13967 0.23098 0.0
C1918 C 0.85971 0.12747 0.25678 0.0
C1919 C 0.85674 0.10561 0.24156 0.0
C1920 C 0.86796 0.08959 0.26637 0.0
C1921 C 0.8335 0.10044 0.23751 0.0
C1922 C 0.86712 0.1076 0.20343 0.0
C1923 C 0.87447 0.12751 0.19798 0.0
C1924 C 0.88497 0.1333 0.16555 0.0
C1925 C 0.88857 0.11821 0.13817 0.0
C1926 C 0.88179 0.09755 0.1434 0.0
C1927 C 0.87058 0.09224 0.17618 0.0
H1928 H 0.8677 0.5823 0.18917 0.0
H1929 H 0.91099 0.62504 0.24148 0.0
H1930 H 0.90575 0.64984 0.18944 0.0
H1931 H 0.88414 0.59273 0.09392 0.0
H1932 H 0.85836 0.59045 0.07446 0.0
H1933 H 0.86527 0.57604 0.11592 0.0
H1934 H 0.83439 0.59241 0.15198 0.0
H1935 H 0.82718 0.6064 0.11033 0.0
H1936 H 0.83198 0.62028 0.1534 0.0
H1937 H 0.89593 0.66984 0.13263 0.0
H1938 H 0.88093 0.68509 0.07571 0.0
H1939 H 0.84404 0.62947 0.05809 0.0
C1940 C 0.87583 0.59702 0.18986 0.0
C1941 C 0.88956 0.60195 0.21955 0.0
C1942 C 0.90028 0.62112 0.21915 0.0
C1943 C 0.89749 0.63521 0.18962 0.0
C1944 C 0.88409 0.62979 0.16051 0.0
C1945 C 0.87343 0.61119 0.1603 0.0
C1946 C 0.86003 0.60923 0.12541 0.0
C1947 C 0.86739 0.59104 0.10099 0.0
C1948 C 0.83701 0.60694 0.1359 0.0
C1949 C 0.86432 0.62995 0.10657 0.0
C1950 C 0.87849 0.64137 0.12723 0.0
C1951 C 0.88485 0.66105 0.1162 0.0
C1952 C 0.87623 0.66956 0.08366 0.0
C1953 C 0.86117 0.65855 0.06246 0.0
C1954 C 0.85545 0.63828 0.07375 0.0
H1955 H 0.11508 0.10005 0.81076 0.0
H1956 H 0.05721 0.13158 0.8365 0.0
H1957 H 0.07191 0.14365 0.89622 0.0
H1958 H 0.12565 0.08245 0.90444 0.0
H1959 H 0.15333 0.08659 0.90231 0.0
H1960 H 0.13907 0.08082 0.8602 0.0
H1961 H 0.15275 0.11447 0.82906 0.0
H1962 H 0.16745 0.12019 0.87077 0.0
H1963 H 0.14932 0.13898 0.85258 0.0
H1964 H 0.09249 0.1524 0.95343 0.0
H1965 H 0.11831 0.15765 1.00405 0.0
H1966 H 0.16247 0.11941 0.94374 0.0
C1967 C 0.10554 0.10942 0.8291 0.0
C1968 C 0.08492 0.1147 0.81902 0.0
C1969 C 0.07305 0.12734 0.84345 0.0
C1970 C 0.08123 0.13423 0.87761 0.0
C1971 C 0.1014 0.12846 0.88713 0.0
C1972 C 0.1135 0.11644 0.86362 0.0
C1973 C 0.13474 0.11251 0.88098 0.0
C1974 C 0.1384 0.0892 0.88734 0.0
C1975 C 0.15209 0.12211 0.85691 0.0
C1976 C 0.13247 0.12393 0.91793 0.0
C1977 C 0.11316 0.13316 0.92074 0.0
C1978 C 0.10762 0.14512 0.9517 0.0
C1979 C 0.1223 0.14795 0.98038 0.0
C1980 C 0.14217 0.13866 0.97811 0.0
C1981 C 0.1472 0.12632 0.94662 0.0
H1982 H 0.6096 0.32058 0.58974 0.0
H1983 H 0.64743 0.3654 0.52987 0.0
H1984 H 0.64126 0.39112 0.57962 0.0
H1985 H 0.57167 0.36023 0.62692 0.0
H1986 H 0.56871 0.34694 0.67102 0.0
H1987 H 0.57387 0.3324 0.62894 0.0
H1988 H 0.60517 0.31569 0.66078 0.0
H1989 H 0.60164 0.33052 0.70283 0.0
H1990 H 0.62612 0.33165 0.67839 0.0
H1991 H 0.6355 0.41002 0.63825 0.0
H1992 H 0.62725 0.4231 0.70091 0.0
H1993 H 0.59162 0.36733 0.72422 0.0
C1994 C 0.61605 0.33602 0.58669 0.0
C1995 C 0.62904 0.34106 0.55601 0.0
C1996 C 0.63746 0.36127 0.55315 0.0
C1997 C 0.63405 0.37597 0.58126 0.0
C1998 C 0.62188 0.37034 0.61182 0.0
C1999 C 0.61263 0.35104 0.61455 0.0
C2000 C 0.60088 0.34898 0.65134 0.0
C2001 C 0.57738 0.34703 0.64414 0.0
C2002 C 0.60898 0.33063 0.6747 0.0
C2003 C 0.6061 0.36962 0.66962 0.0
C2004 C 0.61803 0.3817 0.64594 0.0
C2005 C 0.62586 0.40088 0.65682 0.0
C2006 C 0.62121 0.40808 0.69271 0.0
C2007 C 0.60864 0.3963 0.71742 0.0
C2008 C 0.60104 0.37675 0.70572 0.0
H2009 H 0.3445 0.83916 0.43279 0.0
H2010 H 0.35545 0.88909 0.51109 0.0
H2011 H 0.37698 0.90713 0.46359 0.0
H2012 H 0.3966 0.83812 0.39109 0.0
H2013 H 0.38655 0.83242 0.34509 0.0
H2014 H 0.37274 0.8238 0.38599 0.0
H2015 H 0.33927 0.84352 0.362 0.0
H2016 H 0.35381 0.8513 0.32134 0.0
H2017 H 0.34144 0.87054 0.35036 0.0
H2018 H 0.39544 0.9204 0.40621 0.0
H2019 H 0.41312 0.92618 0.3464 0.0
H2020 H 0.39284 0.86604 0.30676 0.0
C2021 C 0.35241 0.85317 0.44077 0.0
C2022 C 0.34932 0.86212 0.47636 0.0
C2023 C 0.35825 0.88169 0.48435 0.0
C2024 C 0.37033 0.89207 0.45748 0.0
C2025 C 0.37318 0.8827 0.42267 0.0
C2026 C 0.36467 0.86357 0.41437 0.0
C2027 C 0.36977 0.85705 0.3746 0.0
C2028 C 0.38215 0.83664 0.37417 0.0
C2029 C 0.34992 0.85549 0.35067 0.0
C2030 C 0.38301 0.87523 0.36217 0.0
C2031 C 0.38424 0.89011 0.38996 0.0
C2032 C 0.39469 0.90875 0.38443 0.0
C2033 C 0.40457 0.91203 0.34999 0.0
C2034 C 0.40431 0.8967 0.32168 0.0
C2035 C 0.39329 0.87806 0.32792 0.0
H2036 H 0.91748 0.36344 0.83623 0.0
H2037 H 0.87278 0.4022 0.77788 0.0
H2038 H 0.84753 0.39674 0.82896 0.0
H2039 H 0.87825 0.32634 0.87401 0.0
H2040 H 0.89209 0.32297 0.91752 0.0
H2041 H 0.90617 0.32863 0.87514 0.0
H2042 H 0.92305 0.36013 0.90764 0.0
H2043 H 0.90867 0.35519 0.94987 0.0
H2044 H 0.90677 0.38016 0.92736 0.0
H2045 H 0.82847 0.38988 0.88775 0.0
H2046 H 0.81488 0.37952 0.94904 0.0
H2047 H 0.87112 0.34421 0.97092 0.0
C2048 C 0.9022 0.37039 0.8339 0.0
C2049 C 0.89704 0.38333 0.80313 0.0
C2050 C 0.87701 0.3923 0.8012 0.0
C2051 C 0.8626 0.3893 0.83011 0.0
C2052 C 0.86836 0.37705 0.86058 0.0
C2053 C 0.88752 0.36744 0.86255 0.0
C2054 C 0.88969 0.35528 0.89892 0.0
C2055 C 0.89166 0.33192 0.89092 0.0
C2056 C 0.90814 0.36319 0.92232 0.0
C2057 C 0.86908 0.36026 0.91765 0.0
C2058 C 0.85705 0.37274 0.89472 0.0
C2059 C 0.83765 0.37994 0.90577 0.0
C2060 C 0.83014 0.37405 0.94092 0.0
C2061 C 0.84186 0.36088 0.96483 0.0
C2062 C 0.86173 0.35409 0.95313 0.0
H2063 H 0.3845 0.176 0.57995 0.0
H2064 H 0.3474 0.12931 0.5233 0.0
H2065 H 0.35666 0.10383 0.57207 0.0
H2066 H 0.42577 0.13893 0.61366 0.0
H2067 H 0.429 0.15211 0.65776 0.0
H2068 H 0.42184 0.16656 0.61643 0.0
H2069 H 0.38947 0.181 0.64989 0.0
H2070 H 0.39635 0.16693 0.69159 0.0
H2071 H 0.37109 0.16323 0.67078 0.0
H2072 H 0.36489 0.08544 0.63028 0.0
H2073 H 0.37456 0.07328 0.6928 0.0
H2074 H 0.40846 0.13051 0.71292 0.0
C2075 C 0.37887 0.16023 0.5773 0.0
C2076 C 0.36526 0.15455 0.5478 0.0
C2077 C 0.35788 0.13392 0.54557 0.0
C2078 C 0.36306 0.11935 0.57315 0.0
C2079 C 0.37587 0.12559 0.60255 0.0
C2080 C 0.38402 0.14539 0.60464 0.0
C2081 C 0.39655 0.14815 0.64051 0.0
C2082 C 0.41966 0.15164 0.63156 0.0
C2083 C 0.38782 0.16589 0.66459 0.0
C2084 C 0.39315 0.1272 0.65908 0.0
C2085 C 0.38131 0.11447 0.6363 0.0
C2086 C 0.37456 0.09506 0.64801 0.0
C2087 C 0.38007 0.08837 0.68384 0.0
C2088 C 0.3926 0.1008 0.70767 0.0
C2089 C 0.39925 0.12052 0.69505 0.0
H2090 H 0.61525 0.5991 0.30941 0.0
H2091 H 0.55467 0.62375 0.33915 0.0
H2092 H 0.56838 0.63501 0.40005 0.0
H2093 H 0.62883 0.5803 0.40261 0.0
H2094 H 0.65582 0.58749 0.39892 0.0
H2095 H 0.64128 0.5809 0.35744 0.0
H2096 H 0.65119 0.61643 0.32807 0.0
H2097 H 0.66566 0.62301 0.3696 0.0
H2098 H 0.64534 0.63999 0.35315 0.0
H2099 H 0.58813 0.64412 0.45726 0.0
H2100 H 0.61372 0.65206 0.50683 0.0
H2101 H 0.6619 0.62162 0.44211 0.0
C2102 C 0.60496 0.60686 0.32884 0.0
C2103 C 0.58386 0.61046 0.31953 0.0
C2104 C 0.57088 0.62084 0.34551 0.0
C2105 C 0.57848 0.62721 0.38037 0.0
C2106 C 0.5992 0.62324 0.38898 0.0
C2107 C 0.61236 0.61344 0.36403 0.0
C2108 C 0.63412 0.6116 0.38043 0.0
C2109 C 0.64037 0.58871 0.38512 0.0
C2110 C 0.65001 0.62347 0.35638 0.0
C2111 C 0.63104 0.62201 0.41821 0.0
C2112 C 0.61071 0.62849 0.42249 0.0
C2113 C 0.60408 0.63902 0.45438 0.0
C2114 C 0.61868 0.64342 0.48242 0.0
C2115 C 0.63968 0.63731 0.47846 0.0
C2116 C 0.64586 0.62618 0.44615 0.0
H2117 H 0.11338 0.82198 0.09094 0.0
H2118 H 0.15019 0.86687 0.02924 0.0
H2119 H 0.1434 0.89309 0.07786 0.0
H2120 H 0.07441 0.86134 0.12611 0.0
H2121 H 0.07163 0.84839 0.17055 0.0
H2122 H 0.07733 0.83357 0.12901 0.0
H2123 H 0.10913 0.81807 0.16219 0.0
H2124 H 0.10468 0.83332 0.20349 0.0
H2125 H 0.12935 0.83494 0.17975 0.0
H2126 H 0.13664 0.9129 0.13535 0.0
H2127 H 0.12725 0.92697 0.19685 0.0
H2128 H 0.09347 0.87042 0.22279 0.0
C2129 C 0.11949 0.83751 0.08727 0.0
C2130 C 0.13237 0.84244 0.05637 0.0
C2131 C 0.14033 0.86281 0.0527 0.0
C2132 C 0.13656 0.8778 0.08018 0.0
C2133 C 0.1245 0.87231 0.11095 0.0
C2134 C 0.11569 0.85283 0.11448 0.0
C2135 C 0.10381 0.85107 0.1512 0.0
C2136 C 0.08041 0.84844 0.14378 0.0
C2137 C 0.11229 0.8333 0.17558 0.0
C2138 C 0.10841 0.87212 0.16852 0.0
C2139 C 0.12016 0.88412 0.14442 0.0
C2140 C 0.12718 0.90379 0.15426 0.0
C2141 C 0.12189 0.91157 0.18949 0.0
C2142 C 0.10952 0.89983 0.21461 0.0
C2143 C 0.10277 0.87978 0.204 0.0
H2144 H 0.9949 0.52722 0.2371 0.0
H2145 H 0.93253 0.5019 0.2275 0.0
H2146 H 0.94528 0.47579 0.18277 0.0
H2147 H 0.00759 0.52419 0.14431 0.0
H2148 H 0.03434 0.51652 0.15043 0.0
H2149 H 0.0215 0.53144 0.18617 0.0
H2150 H 0.02965 0.50336 0.23639 0.0
H2151 H 0.04362 0.48914 0.20117 0.0
H2152 H 0.02309 0.47666 0.22702 0.0
H2153 H 0.96369 0.45574 0.13306 0.0
H2154 H 0.98876 0.43636 0.09419 0.0
H2155 H 0.03871 0.4756 0.13531 0.0
C2156 C 0.98408 0.51566 0.22678 0.0
C2157 C 0.9627 0.51674 0.23529 0.0
C2158 C 0.94899 0.50139 0.22118 0.0
C2159 C 0.95602 0.48666 0.1954 0.0
C2160 C 0.97682 0.48733 0.18481 0.0
C2161 C 0.99083 0.50088 0.20106 0.0
C2162 C 0.01227 0.49868 0.18421 0.0
C2163 C 0.01932 0.51891 0.16516 0.0
C2164 C 0.02807 0.49152 0.21396 0.0
C2165 C 0.00802 0.48191 0.15566 0.0
C2166 C 0.98744 0.47575 0.15615 0.0
C2167 C 0.97991 0.46023 0.13269 0.0
C2168 C 0.99418 0.44954 0.11031 0.0
C2169 C 0.01564 0.45436 0.1121 0.0
C2170 C 0.02238 0.4716 0.13323 0.0
H2171 H 0.78375 0.75326 0.40284 0.0
H2172 H 0.75168 0.81241 0.3948 0.0
H2173 H 0.72622 0.80047 0.44184 0.0
H2174 H 0.74099 0.72254 0.409 0.0
H2175 H 0.75062 0.70409 0.44307 0.0
H2176 H 0.76839 0.71748 0.41266 0.0
H2177 H 0.78897 0.7326 0.46769 0.0
H2178 H 0.7724 0.71878 0.49987 0.0
H2179 H 0.77563 0.74647 0.50424 0.0
H2180 H 0.70503 0.78259 0.49033 0.0
H2181 H 0.68367 0.75702 0.52392 0.0
H2182 H 0.72864 0.70888 0.4981 0.0
C2183 C 0.77122 0.76363 0.41053 0.0
C2184 C 0.76965 0.78376 0.39515 0.0
C2185 C 0.75305 0.79686 0.40609 0.0
C2186 C 0.73881 0.79039 0.43332 0.0
C2187 C 0.7415 0.77086 0.44939 0.0
C2188 C 0.75707 0.75755 0.43797 0.0
C2189 C 0.75561 0.73679 0.45757 0.0
C2190 C 0.75377 0.71912 0.42893 0.0
C2191 C 0.77426 0.73347 0.4839 0.0
C2192 C 0.73578 0.73993 0.47962 0.0
C2193 C 0.72859 0.76008 0.47604 0.0
C2194 C 0.71041 0.76675 0.49324 0.0
C2195 C 0.69844 0.7521 0.5124 0.0
C2196 C 0.70435 0.7309 0.51293 0.0
C2197 C 0.7238 0.72498 0.4981 0.0
H2198 H 0.49912 0.45975 0.7647 0.0
H2199 H 0.56076 0.48603 0.75019 0.0
H2200 H 0.54646 0.51232 0.70751 0.0
H2201 H 0.48236 0.46234 0.67746 0.0
H2202 H 0.45608 0.47101 0.68546 0.0
H2203 H 0.46961 0.45678 0.72129 0.0
H2204 H 0.4643 0.48645 0.76926 0.0
H2205 H 0.44945 0.50027 0.73426 0.0
H2206 H 0.47124 0.51263 0.75675 0.0
H2207 H 0.52734 0.52974 0.65584 0.0
H2208 H 0.50193 0.54632 0.6136 0.0
H2209 H 0.4524 0.50993 0.66388 0.0
C2210 C 0.50941 0.47168 0.75407 0.0
C2211 C 0.53108 0.47052 0.75978 0.0
C2212 C 0.54411 0.48645 0.74565 0.0
C2213 C 0.53618 0.50135 0.72108 0.0
C2214 C 0.51511 0.50055 0.71248 0.0
C2215 C 0.50168 0.48691 0.73001 0.0
C2216 C 0.47977 0.48912 0.71508 0.0
C2217 C 0.4715 0.46858 0.69886 0.0
C2218 C 0.46531 0.49763 0.74565 0.0
C2219 C 0.48335 0.50502 0.68471 0.0
C2220 C 0.50385 0.51137 0.68366 0.0
C2221 C 0.5111 0.52539 0.65708 0.0
C2222 C 0.49663 0.53445 0.63285 0.0
C2223 C 0.47521 0.5296 0.63595 0.0
C2224 C 0.46868 0.51395 0.66093 0.0
H2225 H 0.72777 0.20245 0.89278 0.0
H2226 H 0.68967 0.25253 0.8488 0.0
H2227 H 0.70931 0.27764 0.88709 0.0
H2228 H 0.72996 0.21932 0.98381 0.0
H2229 H 0.75669 0.21253 0.99282 0.0
H2230 H 0.74198 0.19837 0.9584 0.0
H2231 H 0.76905 0.20662 0.90695 0.0
H2232 H 0.78453 0.21987 0.94152 0.0
H2233 H 0.77693 0.23314 0.89922 0.0
H2234 H 0.72845 0.296 0.93746 0.0
H2235 H 0.75408 0.30921 0.98259 0.0
H2236 H 0.78112 0.24762 0.99187 0.0
C2237 C 0.72409 0.21879 0.89004 0.0
C2238 C 0.70705 0.22557 0.86819 0.0
C2239 C 0.70264 0.24705 0.8655 0.0
C2240 C 0.7135 0.26137 0.8875 0.0
C2241 C 0.72889 0.25391 0.91139 0.0
C2242 C 0.7348 0.2333 0.91174 0.0
C2243 C 0.75182 0.22938 0.94021 0.0
C2244 C 0.74467 0.214 0.9706 0.0
C2245 C 0.77177 0.22182 0.92082 0.0
C2246 C 0.7544 0.25103 0.95601 0.0
C2247 C 0.74066 0.26478 0.93952 0.0
C2248 C 0.7396 0.28552 0.95003 0.0
C2249 C 0.75411 0.29281 0.97603 0.0
C2250 C 0.76989 0.27953 0.99009 0.0
C2251 C 0.7693 0.25814 0.98149 0.0
H2252 H 0.9551 0.49001 0.71729 0.0
H2253 H 0.99064 0.43619 0.7528 0.0
H2254 H 0.02004 0.44756 0.71352 0.0
H2255 H 0.97329 0.49058 0.62248 0.0
H2256 H 0.97403 0.51848 0.61917 0.0
H2257 H 0.95575 0.50607 0.65016 0.0
H2258 H 0.9707 0.5273 0.70628 0.0
H2259 H 0.98868 0.53959 0.67465 0.0
H2260 H -0.00174 0.52636 0.7157 0.0
H2261 H 0.04489 0.46408 0.67066 0.0
H2262 H 0.06536 0.48592 0.62817 0.0
H2263 H 0.01419 0.52973 0.62037 0.0
C2264 C 0.96917 0.48077 0.717 0.0
C2265 C 0.97071 0.4622 0.7377 0.0
C2266 C 0.9892 0.45037 0.73669 0.0
C2267 C 0.00594 0.45671 0.71459 0.0
C2268 C 0.00385 0.47495 0.69407 0.0
C2269 C 0.98607 0.48693 0.69523 0.0
C2270 C 0.98796 0.50584 0.67031 0.0
C2271 C 0.97177 0.50522 0.63866 0.0
C2272 C 0.9863 0.52596 0.69317 0.0
C2273 C 0.00971 0.50273 0.6553 0.0
C2274 C 0.01844 0.48469 0.66925 0.0
C2275 C 0.0383 0.47826 0.65957 0.0
C2276 C 0.04974 0.49077 0.63533 0.0
C2277 C 0.0413 0.50953 0.62118 0.0
C2278 C 0.02096 0.51551 0.63097 0.0
H2279 H 0.784 0.7328 0.99355 0.0
H2280 H 0.74176 0.68055 0.98237 0.0
H2281 H 0.72091 0.70013 0.93687 0.0
H2282 H 0.74535 0.77182 0.99009 0.0
H2283 H 0.76066 0.79 0.96343 0.0
H2284 H 0.77333 0.77136 0.99328 0.0
H2285 H 0.79486 0.75838 0.9368 0.0
H2286 H 0.78203 0.77659 0.90625 0.0
H2287 H 0.78173 0.74928 0.89534 0.0
H2288 H 0.70404 0.72489 0.89497 0.0
H2289 H 0.69003 0.75537 0.86186 0.0
H2290 H 0.74254 0.7922 0.89972 0.0
C2291 C 0.77051 0.72549 0.98108 0.0
C2292 C 0.76448 0.70523 0.99118 0.0
C2293 C 0.74657 0.69615 0.97501 0.0
C2294 C 0.73471 0.70704 0.94893 0.0
C2295 C 0.74109 0.72691 0.93924 0.0
C2296 C 0.75842 0.7362 0.95488 0.0
C2297 C 0.7609 0.75829 0.94118 0.0
C2298 C 0.75999 0.77377 0.97394 0.0
C2299 C 0.78107 0.76077 0.91854 0.0
C2300 C 0.74191 0.76004 0.91628 0.0
C2301 C 0.73097 0.74159 0.91515 0.0
C2302 C 0.71245 0.73944 0.89541 0.0
C2303 C 0.7046 0.75681 0.87688 0.0
C2304 C 0.71521 0.77601 0.87859 0.0
C2305 C 0.73427 0.77759 0.89789 0.0
H2306 H 0.44922 0.49581 0.14536 0.0
H2307 H 0.48859 0.44831 0.09676 0.0
H2308 H 0.51964 0.46616 0.12127 0.0
H2309 H 0.48767 0.54059 0.13517 0.0
H2310 H 0.48012 0.55128 0.17971 0.0
H2311 H 0.46126 0.53781 0.15125 0.0
H2312 H 0.45314 0.513 0.20659 0.0
H2313 H 0.47189 0.52626 0.23521 0.0
H2314 H 0.47405 0.49864 0.22807 0.0
H2315 H 0.54504 0.48468 0.15917 0.0
H2316 H 0.56389 0.50295 0.20908 0.0
H2317 H 0.50859 0.53879 0.23471 0.0
C2318 C 0.46447 0.48964 0.13892 0.0
C2319 C 0.46671 0.47088 0.11911 0.0
C2320 C 0.4867 0.46275 0.1119 0.0
C2321 C 0.50439 0.47287 0.12538 0.0
C2322 C 0.5017 0.49105 0.14585 0.0
C2323 C 0.48228 0.49949 0.15249 0.0
C2324 C 0.48352 0.51747 0.1797 0.0
C2325 C 0.4778 0.538 0.16029 0.0
C2326 C 0.46986 0.51359 0.21443 0.0
C2327 C 0.50641 0.51682 0.18927 0.0
C2328 C 0.51666 0.50184 0.16857 0.0
C2329 C 0.53736 0.49678 0.17495 0.0
C2330 C 0.54783 0.50706 0.20363 0.0
C2331 C 0.53753 0.52214 0.22562 0.0
C2332 C 0.51676 0.52747 0.21783 0.0
H2333 H 0.74302 0.20065 0.38679 0.0
H2334 H 0.80322 0.22866 0.40611 0.0
H2335 H 0.78891 0.24829 0.45966 0.0
H2336 H 0.7145 0.24738 0.40171 0.0
H2337 H 0.69274 0.23356 0.4217 0.0
H2338 H 0.7093 0.22088 0.38845 0.0
H2339 H 0.71428 0.19163 0.43812 0.0
H2340 H 0.69888 0.20566 0.4718 0.0
H2341 H 0.72505 0.19797 0.48322 0.0
H2342 H 0.76807 0.26439 0.51096 0.0
H2343 H 0.74077 0.28346 0.54522 0.0
H2344 H 0.69327 0.24846 0.48661 0.0
C2345 C 0.7532 0.21085 0.40248 0.0
C2346 C 0.7744 0.21282 0.39325 0.0
C2347 C 0.78711 0.2267 0.41346 0.0
C2348 C 0.77912 0.23772 0.44403 0.0
C2349 C 0.75826 0.23493 0.45322 0.0
C2350 C 0.74531 0.22239 0.43223 0.0
C2351 C 0.72291 0.22433 0.44447 0.0
C2352 C 0.70908 0.23204 0.41214 0.0
C2353 C 0.71481 0.20367 0.46036 0.0
C2354 C 0.72518 0.24049 0.4749 0.0
C2355 C 0.74583 0.24567 0.48062 0.0
C2356 C 0.75186 0.2605 0.50679 0.0
C2357 C 0.73629 0.27112 0.52627 0.0
C2358 C 0.71508 0.2672 0.51849 0.0
C2359 C 0.70945 0.2514 0.49325 0.0
H2360 H 0.2654 0.28294 0.86087 0.0
H2361 H 0.31318 0.23599 0.8483 0.0
H2362 H 0.29082 0.21059 0.88019 0.0
H2363 H 0.25137 0.27383 0.94691 0.0
H2364 H 0.22377 0.27715 0.94181 0.0
H2365 H 0.24107 0.28957 0.90935 0.0
H2366 H 0.22131 0.27072 0.85472 0.0
H2367 H 0.20459 0.25817 0.88834 0.0
H2368 H 0.21916 0.24282 0.85541 0.0
H2369 H 0.26869 0.19416 0.92874 0.0
H2370 H 0.24338 0.18441 0.97769 0.0
H2371 H 0.2099 0.24194 0.95825 0.0
C2372 C 0.27062 0.26701 0.863 0.0
C2373 C 0.29108 0.2615 0.85289 0.0
C2374 C 0.29757 0.24057 0.85613 0.0
C2375 C 0.285 0.22602 0.87434 0.0
C2376 C 0.26578 0.23253 0.88778 0.0
C2377 C 0.25813 0.25225 0.88076 0.0
C2378 C 0.23784 0.25588 0.9012 0.0
C2379 C 0.23859 0.2753 0.92622 0.0
C2380 C 0.21965 0.25696 0.87326 0.0
C2381 C 0.2368 0.23628 0.92433 0.0
C2382 C 0.2527 0.22276 0.91547 0.0
C2383 C 0.25581 0.20435 0.93517 0.0
C2384 C 0.24167 0.19917 0.96346 0.0
C2385 C 0.2248 0.21248 0.97195 0.0
C2386 C 0.22271 0.23149 0.95266 0.0
H2387 H 0.22833 0.7062 0.39025 0.0
H2388 H 0.18531 0.75576 0.3619 0.0
H2389 H 0.20451 0.77956 0.40348 0.0
H2390 H 0.23276 0.71705 0.48387 0.0
H2391 H 0.26021 0.71201 0.48878 0.0
H2392 H 0.24548 0.69897 0.45302 0.0
H2393 H 0.26944 0.71246 0.40058 0.0
H2394 H 0.28541 0.72443 0.43594 0.0
H2395 H 0.27525 0.73981 0.39791 0.0
H2396 H 0.22501 0.79631 0.45421 0.0
H2397 H 0.25236 0.80866 0.49709 0.0
H2398 H 0.28238 0.74837 0.49172 0.0
C2399 C 0.22338 0.72225 0.39168 0.0
C2400 C 0.20517 0.7291 0.37328 0.0
C2401 C 0.19918 0.7502 0.37592 0.0
C2402 C 0.2098 0.76374 0.39984 0.0
C2403 C 0.22652 0.75596 0.42024 0.0
C2404 C 0.23381 0.73599 0.41535 0.0
C2405 C 0.25218 0.73156 0.44065 0.0
C2406 C 0.24735 0.71386 0.46823 0.0
C2407 C 0.27173 0.7268 0.41739 0.0
C2408 C 0.25396 0.75215 0.46069 0.0
C2409 C 0.23874 0.76584 0.44897 0.0
C2410 C 0.23719 0.78586 0.46326 0.0
C2411 C 0.25264 0.79263 0.48797 0.0
C2412 C 0.26958 0.77954 0.4973 0.0
C2413 C 0.26957 0.75869 0.48521 0.0
H2414 H 0.25207 0.20076 0.47315 0.0
H2415 H 0.29384 0.24241 0.53191 0.0
H2416 H 0.27564 0.27252 0.50445 0.0
H2417 H 0.25295 0.22772 0.39018 0.0
H2418 H 0.22622 0.22301 0.37747 0.0
H2419 H 0.23971 0.20494 0.4072 0.0
H2420 H 0.21082 0.20883 0.45634 0.0
H2421 H 0.19724 0.22793 0.42859 0.0
H2422 H 0.20511 0.23392 0.47585 0.0
H2423 H 0.2576 0.29704 0.4641 0.0
H2424 H 0.24026 0.31546 0.41276 0.0
H2425 H 0.20928 0.25856 0.37919 0.0
C2426 C 0.25689 0.21627 0.48102 0.0
C2427 C 0.27406 0.21949 0.50481 0.0
C2428 C 0.28057 0.23982 0.51378 0.0
C2429 C 0.27026 0.25694 0.49857 0.0
C2430 C 0.25364 0.25331 0.47443 0.0
C2431 C 0.24695 0.23352 0.4656 0.0
C2432 C 0.23056 0.23388 0.43514 0.0
C2433 C 0.2378 0.22167 0.40046 0.0
C2434 C 0.20968 0.22567 0.44984 0.0
C2435 C 0.22964 0.25694 0.42729 0.0
C2436 C 0.24292 0.2678 0.4507 0.0
C2437 C 0.24677 0.28885 0.44621 0.0
C2438 C 0.23701 0.2991 0.41671 0.0
C2439 C 0.22344 0.28832 0.39229 0.0
C2440 C 0.21934 0.2671 0.39803 0.0
H2441 H 0.24814 0.706 0.88769 0.0
H2442 H 0.30953 0.72777 0.91817 0.0
H2443 H 0.29449 0.74715 0.97165 0.0
H2444 H 0.22341 0.75428 0.90342 0.0
H2445 H 0.19948 0.74273 0.91941 0.0
H2446 H 0.21578 0.72893 0.88707 0.0
H2447 H 0.21686 0.69773 0.93313 0.0
H2448 H 0.20099 0.71176 0.96607 0.0
H2449 H 0.22589 0.70163 0.98038 0.0
H2450 H 0.27237 0.76399 1.02135 0.0
H2451 H 0.24483 0.78378 0.05388 0.0
H2452 H 0.19798 0.75336 0.98611 0.0
C2453 C 0.25843 0.7148 0.90575 0.0
C2454 C 0.28005 0.71513 0.89967 0.0
C2455 C 0.29299 0.72718 0.92301 0.0
C2456 C 0.28458 0.73802 0.9535 0.0
C2457 C 0.26317 0.73689 0.95938 0.0
C2458 C 0.25023 0.72608 0.93543 0.0
C2459 C 0.22758 0.72935 0.94476 0.0
C2460 C 0.21589 0.73943 0.91172 0.0
C2461 C 0.21723 0.7089 0.95681 0.0
C2462 C 0.22973 0.74407 0.97734 0.0
C2463 C 0.25037 0.74768 0.98624 0.0
C2464 C 0.25617 0.76128 1.01469 0.0
C2465 C 0.24046 0.7723 0.03318 0.0
C2466 C 0.21943 0.76989 1.0223 0.0
C2467 C 0.21398 0.75521 0.99497 0.0
H2468 H 0.50209 0.03551 0.74949 0.0
H2469 H 0.43985 0.01143 0.7307 0.0
H2470 H 0.45373 0.98637 0.68543 0.0
H2471 H 0.51954 0.03412 0.66056 0.0
H2472 H 0.54551 0.02475 0.66938 0.0
H2473 H 0.53188 0.03899 0.70506 0.0
H2474 H 0.53631 0.00874 0.75238 0.0
H2475 H 0.55104 0.99493 0.71753 0.0
H2476 H 0.52872 0.98287 0.73888 0.0
H2477 H 0.47272 0.96959 0.63345 0.0
H2478 H 0.49808 0.95138 0.59364 0.0
H2479 H 0.54849 0.98428 0.64878 0.0
C2480 C 0.49154 0.02431 0.73717 0.0
C2481 C 0.46985 0.02578 0.74277 0.0
C2482 C 0.4565 0.01081 0.72636 0.0
C2483 C 0.46419 -0.00335 0.70027 0.0
C2484 C 0.48533 -0.00285 0.69228 0.0
C2485 C 0.49904 0.00971 0.71165 0.0
C2486 C 0.52109 0.00696 0.69754 0.0
C2487 C 0.53001 0.02743 0.68224 0.0
C2488 C 0.53511 -0.00218 0.7284 0.0
C2489 C 0.51738 0.99151 0.66635 0.0
C2490 C 0.49658 0.9864 0.66344 0.0
C2491 C 0.48914 0.97299 0.63604 0.0
C2492 C 0.50362 0.96301 0.61315 0.0
C2493 C 0.5252 0.96618 0.61862 0.0
C2494 C 0.53208 0.98155 0.64396 0.0
H2495 H -0.00301 0.95996 0.25399 0.0
H2496 H 0.05794 0.98831 0.24244 0.0
H2497 H 0.04372 0.01311 0.19692 0.0
H2498 H 0.98191 0.96162 0.16391 0.0
H2499 H 0.95519 0.96924 0.17049 0.0
H2500 H 0.96867 0.95539 0.20695 0.0
H2501 H 0.96102 0.98467 0.25485 0.0
H2502 H 0.94644 -0.00201 0.21909 0.0
H2503 H 0.96731 0.01113 0.24302 0.0
H2504 H 0.02521 0.02922 0.1435 0.0
H2505 H -0.0001 0.04615 0.10159 0.0
H2506 H 0.95023 0.00951 0.15081 0.0
C2507 C 0.0071 0.97203 0.2433 0.0
C2508 C 0.02867 0.97183 0.25085 0.0
C2509 C 0.04142 0.98794 0.23653 0.0
C2510 C 0.03356 0.00198 0.21032 0.0
C2511 C 0.01275 0.00026 0.20027 0.0
C2512 C -0.00064 0.98657 0.21778 0.0
C2513 C 0.97761 0.98812 0.20165 0.0
C2514 C 0.97044 0.96735 0.18476 0.0
C2515 C 0.96219 0.99595 0.2314 0.0
C2516 C 0.98118 0.0042 0.17143 0.0
C2517 C 0.00166 0.01066 0.17075 0.0
C2518 C 0.00898 0.0248 0.14444 0.0
C2519 C 0.99456 0.03406 0.12038 0.0
C2520 C 0.97311 0.02942 0.12356 0.0
C2521 C 0.96653 0.01342 0.14785 0.0
H2522 H 0.46068 0.98299 0.18038 0.0
H2523 H 0.49774 0.93548 0.23455 0.0
H2524 H 0.52588 0.94132 0.18892 0.0
H2525 H 0.48478 0.97453 0.07962 0.0
H2526 H 0.48141 0.00201 0.07218 0.0
H2527 H 0.46305 0.98765 0.10035 0.0
H2528 H 0.47016 0.01552 0.15286 0.0
H2529 H 0.48986 0.02783 0.12525 0.0
H2530 H 0.49622 0.01803 0.17114 0.0
H2531 H 0.55206 0.95729 0.14909 0.0
H2532 H 0.57508 0.98301 0.11971 0.0
H2533 H 0.52177 0.02135 0.0922 0.0
C2534 C 0.47454 0.97347 0.18182 0.0
C2535 C 0.47726 0.95884 0.21063 0.0
C2536 C 0.49547 0.94665 0.21225 0.0
C2537 C 0.51139 0.94973 0.18629 0.0
C2538 C 0.50863 0.96486 0.15883 0.0
C2539 C 0.49054 0.9764 0.15613 0.0
C2540 C 0.49271 0.99388 0.12817 0.0
C2541 C 0.47972 0.98928 0.09298 0.0
C2542 C 0.48692 0.01504 0.14543 0.0
C2543 C 0.51565 0.99221 0.11977 0.0
C2544 C 0.52421 0.97463 0.13594 0.0
C2545 C 0.54549 0.97078 0.13542 0.0
C2546 C 0.55843 0.98556 0.11896 0.0
C2547 C 0.55004 0.00409 0.10402 0.0
C2548 C 0.5284 0.00717 0.1033 0.0
H2549 H 0.94783 0.994 0.65151 0.0
H2550 H 0.98871 0.95183 0.59207 0.0
H2551 H 0.01925 0.97037 0.61715 0.0
H2552 H 0.98133 0.04131 0.64469 0.0
H2553 H 0.97482 0.04937 0.69157 0.0
H2554 H 0.95619 0.03511 0.66396 0.0
H2555 H 0.95341 0.0076 0.71688 0.0
H2556 H 0.97209 0.02174 0.74435 0.0
H2557 H 0.97665 0.99484 0.73323 0.0
H2558 H 0.04471 0.99004 0.65347 0.0
H2559 H 0.06431 0.00929 0.7012 0.0
H2560 H 0.00748 0.03913 0.73843 0.0
C2561 C 0.96324 0.98908 0.64313 0.0
C2562 C 0.9661 0.97173 0.6197 0.0
C2563 C 0.98635 0.9652 0.60997 0.0
C2564 C 0.00373 0.9757 0.62381 0.0
C2565 C 0.00047 0.99259 0.64736 0.0
C2566 C 0.98078 -0.00074 0.65709 0.0
C2567 C 0.98169 0.01627 0.68629 0.0
C2568 C 0.97299 0.03673 0.67067 0.0
C2569 C 0.9703 0.00971 0.7223 0.0
C2570 C 0.00495 0.0176 0.69232 0.0
C2571 C 0.01542 0.00401 0.66905 0.0
C2572 C 0.03677 0.001 0.67139 0.0
C2573 C 0.04772 0.01189 0.69876 0.0
C2574 C 0.03728 0.0256 0.7233 0.0
C2575 C 0.01574 0.02891 0.71954 0.0
H2576 H 0.05213 0.40327 0.96946 0.0
H2577 H 0.00996 0.37962 0.05387 0.0
H2578 H 0.98204 0.37729 1.00634 0.0
H2579 H 0.01802 0.435 0.92417 0.0
H2580 H 0.02693 0.43012 0.87718 0.0
H2581 H 0.04449 0.42697 0.916 0.0
H2582 H 0.05195 0.38905 0.8963 0.0
H2583 H 0.03474 0.39216 0.85682 0.0
H2584 H 0.0306 0.37129 0.88961 0.0
H2585 H 0.95711 0.38461 0.95277 0.0
H2586 H 0.93878 0.39472 0.89443 0.0
H2587 H -0.0023 0.4102 0.84302 0.0
C2588 C 0.03726 0.39678 0.97757 0.0
C2589 C 0.0333 0.39137 1.01531 0.0
C2590 C 0.01351 0.3834 0.02503 0.0
C2591 C -0.00252 0.38224 0.99824 0.0
C2592 C 0.00163 0.38864 0.96164 0.0
C2593 C 0.02125 0.39512 0.951 0.0
C2594 C 0.02146 0.40199 0.91034 0.0
C2595 C 0.02812 0.42487 0.90675 0.0
C2596 C 0.03552 0.38777 0.88688 0.0
C2597 C -0.00125 0.39911 0.90009 0.0
C2598 C 0.98751 0.39157 0.93017 0.0
C2599 C 0.96588 0.38984 0.92871 0.0
C2600 C 0.95557 0.39567 0.89559 0.0
C2601 C 0.96686 0.40266 0.86405 0.0
C2602 C 0.98874 0.40429 0.86637 0.0
H2603 H 0.79773 0.71981 0.13998 0.0
H2604 H 0.86015 0.72767 0.09682 0.0
H2605 H 0.86911 0.74974 0.15137 0.0
H2606 H 0.79228 0.77257 0.16979 0.0
H2607 H 0.77694 0.76629 0.21042 0.0
H2608 H 0.77618 0.74965 0.16998 0.0
H2609 H 0.78677 0.71822 0.21116 0.0
H2610 H 0.78749 0.73479 0.25175 0.0
H2611 H 0.81003 0.71968 0.23925 0.0
H2612 H 0.87123 0.77067 0.21188 0.0
H2613 H 0.86493 0.79238 0.26824 0.0
H2614 H 0.80022 0.77359 0.2676 0.0
C2615 C 0.81332 0.72605 0.14233 0.0
C2616 C 0.82836 0.72196 0.11459 0.0
C2617 C 0.84847 0.73069 0.11796 0.0
C2618 C 0.8537 0.74311 0.14889 0.0
C2619 C 0.8385 0.74699 0.17582 0.0
C2620 C 0.8186 0.739 0.17245 0.0
C2621 C 0.80464 0.74686 0.20348 0.0
C2622 C 0.78644 0.7596 0.18745 0.0
C2623 C 0.79678 0.72882 0.22786 0.0
C2624 C 0.81977 0.76051 0.22481 0.0
C2625 C 0.83934 0.76007 0.20896 0.0
C2626 C 0.85592 0.77123 0.22437 0.0
C2627 C 0.85227 0.78344 0.2564 0.0
C2628 C 0.83211 0.78475 0.27192 0.0
C2629 C 0.81577 0.77299 0.25601 0.0
H2630 H 0.52135 0.55022 0.3855 0.0
H2631 H 0.51188 0.61207 0.34096 0.0
H2632 H 0.48846 0.62028 0.394 0.0
H2633 H 0.46808 0.54285 0.41353 0.0
H2634 H 0.47463 0.52802 0.45468 0.0
H2635 H 0.49159 0.52761 0.41461 0.0
H2636 H 0.52242 0.53952 0.45627 0.0
H2637 H 0.50556 0.53997 0.49647 0.0
H2638 H 0.51997 0.56288 0.48364 0.0
H2639 H 0.46688 0.6219 0.45418 0.0
H2640 H 0.44606 0.61535 0.51165 0.0
H2641 H 0.46724 0.55147 0.5122 0.0
C2642 C 0.51442 0.56551 0.38713 0.0
C2643 C 0.51849 0.5806 0.35947 0.0
C2644 C 0.50889 0.60033 0.36199 0.0
C2645 C 0.49566 0.60514 0.39206 0.0
C2646 C 0.49186 0.58989 0.41893 0.0
C2647 C 0.50071 0.57035 0.41634 0.0
C2648 C 0.49317 0.5563 0.44747 0.0
C2649 C 0.48116 0.5376 0.43162 0.0
C2650 C 0.51136 0.54926 0.47244 0.0
C2651 C 0.47884 0.57099 0.46814 0.0
C2652 C 0.47849 0.59041 0.45173 0.0
C2653 C 0.46686 0.60668 0.46699 0.0
C2654 C 0.45514 0.60288 0.4996 0.0
C2655 C 0.45481 0.58288 0.5159 0.0
C2656 C 0.46688 0.56685 0.49989 0.0
H2657 H 0.6598 0.18845 0.72313 0.0
H2658 H 0.62603 0.227 0.80174 0.0
H2659 H 0.62068 0.25329 0.75218 0.0
H2660 H 0.68702 0.22679 0.68004 0.0
H2661 H 0.68568 0.21657 0.63314 0.0
H2662 H 0.68396 0.19928 0.67254 0.0
H2663 H 0.64875 0.18514 0.64842 0.0
H2664 H 0.65047 0.20212 0.60841 0.0
H2665 H 0.62788 0.20295 0.63818 0.0
H2666 H 0.62552 0.27812 0.69836 0.0
H2667 H 0.63532 0.29736 0.64097 0.0
H2668 H 0.66315 0.2417 0.59541 0.0
C2669 C 0.65061 0.20209 0.72951 0.0
C2670 C 0.64319 0.20565 0.76618 0.0
C2671 C 0.63154 0.2238 0.7737 0.0
C2672 C 0.62856 0.23889 0.74576 0.0
C2673 C 0.6369 0.23532 0.7103 0.0
C2674 C 0.64719 0.21708 0.7018 0.0
C2675 C 0.65568 0.21751 0.66222 0.0
C2676 C 0.67949 0.21489 0.66201 0.0
C2677 C 0.64505 0.20095 0.63787 0.0
C2678 C 0.64937 0.23919 0.6503 0.0
C2679 C 0.63861 0.24924 0.67849 0.0
C2680 C 0.63329 0.27017 0.67566 0.0
C2681 C 0.63895 0.28101 0.64313 0.0
C2682 C 0.64944 0.27086 0.61361 0.0
C2683 C 0.65454 0.24963 0.61715 0.0
H2684 H 0.99352 0.60263 1.00322 0.0
H2685 H 0.95686 0.54637 1.01402 0.0
H2686 H 0.96314 0.53833 0.94774 0.0
H2687 H 0.9765 0.61635 0.91122 0.0
H2688 H 0.00154 0.62562 0.89597 0.0
H2689 H 0.99468 0.62676 0.94478 0.0
H2690 H 0.0277 0.60571 0.96168 0.0
H2691 H 0.03466 0.60449 0.91288 0.0
H2692 H 0.03211 0.58092 0.9397 0.0
H2693 H 0.97178 0.53718 0.87918 0.0
H2694 H 0.98335 0.54243 0.81388 0.0
H2695 H 0.01533 0.5988 0.847 0.0
C2696 C 0.98672 0.58865 0.99169 0.0
C2697 C 0.97445 0.57525 1.0142 0.0
C2698 C 0.96627 0.55693 0.99779 0.0
C2699 C 0.96975 0.55221 0.95997 0.0
C2700 C 0.9817 0.56582 0.93865 0.0
C2701 C 0.99022 0.58358 0.95393 0.0
C2702 C 0.00247 0.59558 0.9247 0.0
C2703 C 0.99324 0.61737 0.91882 0.0
C2704 C 0.02561 0.59674 0.93539 0.0
C2705 C -0.00082 0.58197 0.89049 0.0
C2706 C 0.98713 0.56488 0.89922 0.0
C2707 C 0.98134 0.55043 0.87209 0.0
C2708 C 0.98791 0.55358 0.83505 0.0
C2709 C 0.00027 0.57097 0.82534 0.0
C2710 C 0.00612 0.58522 0.85365 0.0
H2711 H 0.62672 0.71172 0.25854 0.0
H2712 H 0.67108 0.75505 0.30647 0.0
H2713 H 0.67842 0.76891 0.24352 0.0
H2714 H 0.6554 0.70125 0.1735 0.0
H2715 H 0.63252 0.69994 0.14441 0.0
H2716 H 0.63095 0.69304 0.19322 0.0
H2717 H 0.60156 0.72001 0.20269 0.0
H2718 H 0.603 0.72695 0.15391 0.0
H2719 H 0.60589 0.74666 0.18934 0.0
H2720 H 0.68045 0.7788 0.17534 0.0
H2721 H 0.67724 0.78362 0.10704 0.0
H2722 H 0.63131 0.73429 0.1028 0.0
C2723 C 0.63791 0.72419 0.25587 0.0
C2724 C 0.64839 0.73216 0.28773 0.0
C2725 C 0.66308 0.74836 0.28267 0.0
C2726 C 0.66728 0.75646 0.24696 0.0
C2727 C 0.65672 0.74824 0.21627 0.0
C2728 C 0.64236 0.73244 0.2203 0.0
C2729 C 0.6331 0.72648 0.18266 0.0
C2730 C 0.63831 0.70383 0.17288 0.0
C2731 C 0.60949 0.73026 0.18213 0.0
C2732 C 0.64437 0.74151 0.15692 0.0
C2733 C 0.65793 0.75391 0.17692 0.0
C2734 C 0.66987 0.76916 0.15943 0.0
C2735 C 0.66785 0.77187 0.12057 0.0
C2736 C 0.65399 0.7594 0.09933 0.0
C2737 C 0.64222 0.74394 0.118 0.0
H2738 H 0.50329 0.41263 0.51515 0.0
H2739 H 0.56588 0.38743 0.51018 0.0
H2740 H 0.56378 0.38679 0.44137 0.0
H2741 H 0.48234 0.38178 0.44168 0.0
H2742 H 0.46583 0.4019 0.42302 0.0
H2743 H 0.47267 0.40198 0.47191 0.0
H2744 H 0.48718 0.4393 0.46523 0.0
H2745 H 0.48038 0.4393 0.41626 0.0
H2746 H 0.50676 0.44464 0.43046 0.0
H2747 H 0.55443 0.38679 0.3735 0.0
H2748 H 0.53848 0.38756 0.31077 0.0
H2749 H 0.48152 0.41215 0.35836 0.0
C2750 C 0.5166 0.407 0.49965 0.0
C2751 C 0.53485 0.40019 0.51845 0.0
C2752 C 0.55189 0.39312 0.49678 0.0
C2753 C 0.5508 0.39258 0.45755 0.0
C2754 C 0.53258 0.39919 0.44007 0.0
C2755 C 0.51578 0.40635 0.46033 0.0
C2756 C 0.49778 0.41187 0.43449 0.0
C2757 C 0.47852 0.39859 0.4433 0.0
C2758 C 0.49273 0.43517 0.43675 0.0
C2759 C 0.50696 0.40629 0.39663 0.0
C2760 C 0.52711 0.39914 0.40062 0.0
C2761 C 0.53869 0.39243 0.37004 0.0
C2762 C 0.52943 0.39281 0.33449 0.0
C2763 C 0.50869 0.39979 0.32952 0.0
C2764 C 0.49745 0.4069 0.36112 0.0
H2765 H 0.86749 0.26411 0.75573 0.0
H2766 H 0.80397 0.28533 0.76936 0.0
H2767 H 0.79689 0.27775 0.70291 0.0
H2768 H 0.87535 0.28378 0.66297 0.0
H2769 H 0.89031 0.26175 0.64746 0.0
H2770 H 0.89044 0.26898 0.69615 0.0
H2771 H 0.87841 0.23195 0.71442 0.0
H2772 H 0.8783 0.22459 0.66578 0.0
H2773 H 0.85515 0.22139 0.69359 0.0
H2774 H 0.79668 0.26777 0.63481 0.0
H2775 H 0.80341 0.25632 0.57003 0.0
H2776 H 0.86678 0.24046 0.60092 0.0
C2777 C 0.85206 0.26706 0.74481 0.0
C2778 C 0.83633 0.27562 0.76779 0.0
C2779 C 0.81639 0.27932 0.75219 0.0
C2780 C 0.81217 0.27487 0.71451 0.0
C2781 C 0.82803 0.26657 0.69264 0.0
C2782 C 0.84756 0.26264 0.7072 0.0
C2783 C 0.86183 0.2536 0.67764 0.0
C2784 C 0.88059 0.26789 0.67065 0.0
C2785 C 0.86883 0.23157 0.68851 0.0
C2786 C 0.84731 0.25321 0.64416 0.0
C2787 C 0.82786 0.26068 0.65346 0.0
C2788 C 0.81183 0.26181 0.62723 0.0
C2789 C 0.81578 0.25516 0.59052 0.0
C2790 C 0.83563 0.24746 0.58022 0.0
C2791 C 0.85153 0.2465 0.60764 0.0
H2792 H -0.001 0.5654 0.51487 0.0
H2793 H 0.05735 0.58478 0.46533 0.0
H2794 H 0.03899 0.59411 0.40683 0.0
H2795 H 0.98053 0.54036 0.43286 0.0
H2796 H 0.95365 0.54706 0.44037 0.0
H2797 H 0.97096 0.54446 0.47969 0.0
H2798 H 0.96148 0.58173 0.501 0.0
H2799 H 0.94427 0.58446 0.46144 0.0
H2800 H 0.96476 0.6031 0.46894 0.0
H2801 H 0.01432 0.60062 0.35323 0.0
H2802 H 0.98654 0.59858 0.30543 0.0
H2803 H 0.94487 0.57206 0.38803 0.0
C2804 C 0.0078 0.57192 0.49185 0.0
C2805 C 0.02951 0.57481 0.49473 0.0
C2806 C 0.04066 0.58273 0.46371 0.0
C2807 C 0.03035 0.58815 0.43049 0.0
C2808 C 0.00891 0.58516 0.42848 0.0
C2809 C -0.00218 0.57685 0.45808 0.0
C2810 C 0.97533 0.57306 0.44727 0.0
C2811 C 0.96981 0.54986 0.45021 0.0
C2812 C 0.96059 0.58639 0.47108 0.0
C2813 C 0.97558 0.58033 0.4069 0.0
C2814 C 0.99496 0.58773 0.39688 0.0
C2815 C -0.00094 0.59492 0.36078 0.0
C2816 C 0.98315 0.59384 0.33387 0.0
C2817 C 0.96355 0.58524 0.34306 0.0
C2818 C 0.95967 0.57883 0.38027 0.0
H2819 H 0.19378 0.27942 0.23111 0.0
H2820 H 0.13251 0.26693 0.27622 0.0
H2821 H 0.12443 0.24494 0.22128 0.0
H2822 H 0.17968 0.27933 0.13136 0.0
H2823 H 0.20337 0.26635 0.11805 0.0
H2824 H 0.20295 0.28286 0.15875 0.0
H2825 H 0.217 0.25221 0.19871 0.0
H2826 H 0.21694 0.23564 0.15817 0.0
H2827 H 0.20283 0.22805 0.19956 0.0
H2828 H 0.1231 0.22419 0.16091 0.0
H2829 H 0.13023 0.20296 0.10437 0.0
H2830 H 0.19349 0.22614 0.10243 0.0
C2831 C 0.17858 0.27226 0.22908 0.0
C2832 C 0.16367 0.27498 0.25764 0.0
C2833 C 0.14412 0.26501 0.25455 0.0
C2834 C 0.13936 0.25261 0.22337 0.0
C2835 C 0.15446 0.25004 0.19578 0.0
C2836 C 0.17379 0.25936 0.19861 0.0
C2837 C 0.18786 0.25271 0.16679 0.0
C2838 C 0.19382 0.27142 0.14227 0.0
C2839 C 0.2073 0.24148 0.18171 0.0
C2840 C 0.17356 0.23795 0.14598 0.0
C2841 C 0.15418 0.23703 0.16255 0.0
C2842 C 0.13826 0.22472 0.14782 0.0
C2843 C 0.14238 0.21277 0.11571 0.0
C2844 C 0.1624 0.21283 0.09941 0.0
C2845 C 0.17808 0.2257 0.11465 0.0
H2846 H 0.49639 0.41696 0.02758 0.0
H2847 H 0.43776 0.40035 0.97584 0.0
H2848 H 0.45609 0.39249 0.91654 0.0
H2849 H 0.51543 0.4442 0.94787 0.0
H2850 H 0.54218 0.4369 0.95526 0.0
H2851 H 0.52474 0.43871 0.99447 0.0
H2852 H 0.53356 0.40079 1.01282 0.0
H2853 H 0.55089 0.39882 0.97336 0.0
H2854 H 0.53007 0.38034 0.97896 0.0
H2855 H 0.48103 0.38678 0.86272 0.0
H2856 H 0.50913 0.38915 0.81582 0.0
H2857 H 0.55096 0.41281 0.90113 0.0
C2858 C 0.48749 0.41134 1.00389 0.0
C2859 C 0.46572 0.40868 1.00641 0.0
C2860 C 0.45448 0.40207 0.97452 0.0
C2861 C 0.46478 0.39754 0.94084 0.0
C2862 C 0.48631 0.40021 0.93927 0.0
C2863 C 0.49747 0.40739 0.96975 0.0
C2864 C 0.52007 0.41108 0.95962 0.0
C2865 C 0.52594 0.43409 0.96459 0.0
C2866 C 0.53449 0.3969 0.98256 0.0
C2867 C 0.51989 0.40491 0.91867 0.0
C2868 C 0.50038 0.39824 0.90769 0.0
C2869 C 0.49637 0.39196 0.87103 0.0
C2870 C 0.51249 0.39321 0.84462 0.0
C2871 C 0.53229 0.40106 0.85479 0.0
C2872 C 0.53605 0.40659 0.89253 0.0
H2873 H 0.30829 0.76882 0.60349 0.0
H2874 H 0.36774 0.79999 0.61272 0.0
H2875 H 0.37539 0.78006 0.67082 0.0
H2876 H 0.29561 0.76725 0.69828 0.0
H2877 H 0.28422 0.74169 0.69727 0.0
H2878 H 0.28415 0.75748 0.65571 0.0
H2879 H 0.30287 0.72826 0.619 0.0
H2880 H 0.30281 0.71227 0.66041 0.0
H2881 H 0.32693 0.7178 0.6368 0.0
H2882 H 0.3743 0.75927 0.73176 0.0
H2883 H 0.36665 0.73655 0.78607 0.0
H2884 H 0.30907 0.71727 0.73318 0.0
C2885 C 0.32305 0.77118 0.61754 0.0
C2886 C 0.33748 0.78585 0.60404 0.0
C2887 C 0.35663 0.78865 0.62277 0.0
C2888 C 0.36101 0.77747 0.65573 0.0
C2889 C 0.34624 0.76331 0.6688 0.0
C2890 C 0.32784 0.75982 0.64973 0.0
C2891 C 0.31448 0.74384 0.66938 0.0
C2892 C 0.29337 0.75313 0.68084 0.0
C2893 C 0.31161 0.72439 0.64494 0.0
C2894 C 0.3279 0.73929 0.70317 0.0
C2895 C 0.34611 0.75071 0.70256 0.0
C2896 C 0.36026 0.75 0.73217 0.0
C2897 C 0.35574 0.73718 0.76297 0.0
C2898 C 0.33736 0.72508 0.76364 0.0
C2899 C 0.32339 0.72612 0.73319 0.0
H2900 H 0.00879 0.37276 0.35886 0.0
H2901 H 0.04886 0.42689 0.35237 0.0
H2902 H 0.04186 0.43442 0.41883 0.0
H2903 H 0.97013 0.39562 0.4195 0.0
H2904 H 0.96572 0.37197 0.4453 0.0
H2905 H 0.97393 0.37083 0.39715 0.0
H2906 H 0.00542 0.34806 0.41626 0.0
H2907 H -0.0027 0.34913 0.46445 0.0
H2908 H 0.02315 0.35729 0.45168 0.0
H2909 H 0.03006 0.43629 0.48655 0.0
H2910 H 0.01581 0.43139 0.55012 0.0
H2911 H 0.98297 0.37639 0.51219 0.0
C2912 C 0.01598 0.38633 0.37118 0.0
C2913 C 0.02934 0.39928 0.34992 0.0
C2914 C 0.0387 0.4166 0.36778 0.0
C2915 C 0.03471 0.4211 0.4056 0.0
C2916 C 0.02134 0.40812 0.42551 0.0
C2917 C 0.01218 0.39104 0.40893 0.0
C2918 C -0.0014 0.37941 0.43662 0.0
C2919 C 0.97574 0.37947 0.42388 0.0
C2920 C 0.0066 0.35716 0.4426 0.0
C2921 C 0.00162 0.39255 0.47143 0.0
C2922 C 0.01469 0.40911 0.4644 0.0
C2923 C 0.01978 0.42338 0.49229 0.0
C2924 C 0.01147 0.42054 0.52833 0.0
C2925 C -0.00177 0.4035 0.53641 0.0
C2926 C 0.99321 0.38945 0.50725 0.0
H2927 H 0.37171 0.26303 0.1138 0.0
H2928 H 0.31038 0.28875 0.09273 0.0
H2929 H 0.30081 0.28224 0.1586 0.0
H2930 H 0.3546 0.22189 0.17547 0.0
H2931 H 0.37707 0.22378 0.2055 0.0
H2932 H 0.3791 0.23064 0.15674 0.0
H2933 H 0.39309 0.26697 0.17511 0.0
H2934 H 0.39109 0.26022 0.2239 0.0
H2935 H 0.37813 0.28306 0.20636 0.0
H2936 H 0.29795 0.27281 0.22742 0.0
H2937 H 0.30236 0.2621 0.29334 0.0
H2938 H 0.36508 0.24134 0.26861 0.0
C2939 C 0.35619 0.26716 0.12285 0.0
C2940 C 0.34186 0.27651 0.09786 0.0
C2941 C 0.32182 0.28191 0.11129 0.0
C2942 C 0.31615 0.27811 0.14866 0.0
C2943 C 0.33066 0.26882 0.17242 0.0
C2944 C 0.35026 0.26343 0.16001 0.0
C2945 C 0.363 0.25372 0.19119 0.0
C2946 C 0.36878 0.23117 0.18165 0.0
C2947 C 0.38248 0.26678 0.19963 0.0
C2948 C 0.34757 0.25463 0.22317 0.0
C2949 C 0.32897 0.26332 0.21178 0.0
C2950 C 0.31244 0.26591 0.23656 0.0
C2951 C 0.31505 0.25963 0.27397 0.0
C2952 C 0.33407 0.25084 0.28644 0.0
C2953 C 0.35043 0.24823 0.26034 0.0
H2954 H 0.51649 0.58489 1.00639 0.0
H2955 H 0.4568 0.5964 0.05899 0.0
H2956 H 0.44026 0.59874 0.99694 0.0
H2957 H 0.51 0.61966 0.93043 0.0
H2958 H 0.52231 0.60344 0.89584 0.0
H2959 H 0.5296 0.60118 0.94437 0.0
H2960 H 0.52101 0.56193 0.94311 0.0
H2961 H 0.51388 0.56403 0.89444 0.0
H2962 H 0.49566 0.55351 0.92774 0.0
H2963 H 0.43045 0.60267 0.92993 0.0
H2964 H 0.42743 0.60596 0.86168 0.0
H2965 H 0.49287 0.59027 0.85025 0.0
C2966 C 0.49988 0.58751 1.00479 0.0
C2967 C 0.488 0.59065 0.03775 0.0
C2968 C 0.46632 0.59427 0.0343 0.0
C2969 C 0.45674 0.59554 0.99912 0.0
C2970 C 0.46892 0.593 0.96727 0.0
C2971 C 0.48997 0.58883 0.96961 0.0
C2972 C 0.49942 0.5873 0.93065 0.0
C2973 C 0.51633 0.60389 0.92501 0.0
C2974 C 0.508 0.56539 0.92357 0.0
C2975 C 0.48046 0.59166 0.90627 0.0
C2976 C 0.46307 0.59483 0.92813 0.0
C2977 C 0.44388 0.59985 0.91246 0.0
C2978 C 0.44231 0.60155 0.87341 0.0
C2979 C 0.45978 0.5981 0.84994 0.0
C2980 C 0.47915 0.59311 0.86699 0.0
H2981 H 0.16472 0.73088 0.77523 0.0
H2982 H 0.12447 0.785 0.77503 0.0
H2983 H 0.11857 0.78066 0.70746 0.0
H2984 H 0.18783 0.74045 0.68295 0.0
H2985 H 0.18863 0.71337 0.67043 0.0
H2986 H 0.19055 0.72096 0.71886 0.0
H2987 H 0.1592 0.69739 0.73503 0.0
H2988 H 0.15721 0.68972 0.68668 0.0
H2989 H 0.13502 0.70076 0.71017 0.0
H2990 H 0.11532 0.76984 0.64106 0.0
H2991 H 0.11581 0.75363 0.57862 0.0
H2992 H 0.15842 0.70651 0.61947 0.0
C2993 C 0.15472 0.74184 0.7609 0.0
C2994 C 0.14522 0.75843 0.78061 0.0
C2995 C 0.13228 0.77243 0.76066 0.0
C2996 C 0.12871 0.77003 0.72221 0.0
C2997 C 0.13824 0.75358 0.70371 0.0
C2998 C 0.15109 0.73976 0.72218 0.0
C2999 C 0.15917 0.72332 0.69529 0.0
C3000 C 0.18296 0.72461 0.69167 0.0
C3001 C 0.15223 0.70151 0.70753 0.0
C3002 C 0.14851 0.72988 0.65912 0.0
C3003 C 0.13654 0.7474 0.66481 0.0
C3004 C 0.1247 0.75616 0.63621 0.0
C3005 C 0.12499 0.74676 0.60086 0.0
C3006 C 0.13705 0.72875 0.5941 0.0
C3007 C 0.14916 0.72035 0.62367 0.0
H3008 H 0.50511 0.9248 0.34417 0.0
H3009 H 0.44761 0.89977 0.38818 0.0
H3010 H 0.4656 0.89037 0.44724 0.0
H3011 H 0.54128 0.88848 0.38889 0.0
H3012 H 0.56024 0.90828 0.39923 0.0
H3013 H 0.54351 0.91093 0.35899 0.0
H3014 H 0.531 0.94675 0.38305 0.0
H3015 H 0.54785 0.94426 0.42304 0.0
H3016 H 0.52045 0.94881 0.42964 0.0
H3017 H 0.48985 0.88438 0.50208 0.0
H3018 H 0.51661 0.88714 0.55161 0.0
H3019 H 0.55765 0.91846 0.47356 0.0
C3020 C 0.49647 0.91707 0.36615 0.0
C3021 C 0.47511 0.91267 0.3617 0.0
C3022 C 0.46404 0.90309 0.39121 0.0
C3023 C 0.47416 0.89761 0.42467 0.0
C3024 C 0.49529 0.90213 0.42836 0.0
C3025 C 0.50623 0.91199 0.40014 0.0
C3026 C 0.52822 0.91702 0.41262 0.0
C3027 C 0.54426 0.90548 0.38849 0.0
C3028 C 0.5321 0.94061 0.41207 0.0
C3029 C 0.52789 0.90861 0.4523 0.0
C3030 C 0.50891 0.89967 0.46058 0.0
C3031 C 0.50479 0.89128 0.49584 0.0
C3032 C 0.52017 0.89275 0.52375 0.0
C3033 C 0.53928 0.90288 0.51646 0.0
C3034 C 0.54327 0.91045 0.47993 0.0
H3035 H 0.32732 0.25046 0.59742 0.0
H3036 H 0.35271 0.19382 0.64398 0.0
H3037 H 0.36372 0.21302 0.70084 0.0
H3038 H 0.36448 0.28744 0.63676 0.0
H3039 H 0.34481 0.30652 0.64709 0.0
H3040 H 0.34137 0.28899 0.60826 0.0
H3041 H 0.30606 0.2768 0.63553 0.0
H3042 H 0.30927 0.29455 0.67393 0.0
H3043 H 0.305 0.26736 0.68301 0.0
H3044 H 0.37127 0.23853 0.75299 0.0
H3045 H 0.36856 0.2658 0.80122 0.0
H3046 H 0.33525 0.30504 0.72274 0.0
C3047 C 0.33547 0.24222 0.61942 0.0
C3048 C 0.33967 0.22077 0.6162 0.0
C3049 C 0.34969 0.2103 0.64595 0.0
C3050 C 0.35607 0.22112 0.67812 0.0
C3051 C 0.35187 0.24235 0.68037 0.0
C3052 C 0.34134 0.25267 0.65216 0.0
C3053 C 0.33645 0.27484 0.66331 0.0
C3054 C 0.34744 0.29036 0.6373 0.0
C3055 C 0.3128 0.27859 0.664 0.0
C3056 C 0.34569 0.27536 0.70235 0.0
C3057 C 0.35503 0.25666 0.71127 0.0
C3058 C 0.36408 0.25326 0.74624 0.0
C3059 C 0.36266 0.26896 0.77338 0.0
C3060 C 0.35184 0.28765 0.76569 0.0
C3061 C 0.34387 0.29105 0.72928 0.0
H3062 H 0.97353 0.05904 1.01862 0.0
H3063 H 0.94155 0.1176 1.0033 0.0
H3064 H 0.96264 0.12435 0.94619 0.0
H3065 H 0.02501 0.07758 0.98737 0.0
H3066 H 0.03125 0.05311 0.96572 0.0
H3067 H 0.01448 0.05381 1.00607 0.0
H3068 H 0.98612 0.03402 0.96884 0.0
H3069 H 0.00269 0.03342 0.92832 0.0
H3070 H 0.977 0.04445 0.92494 0.0
H3071 H 0.98452 0.12224 0.88679 0.0
H3072 H 0.008 0.11371 0.83415 0.0
H3073 H 0.02749 0.05773 0.89175 0.0
C3074 C 0.97121 0.07344 1.00347 0.0
C3075 C 0.95596 0.08783 1.01499 0.0
C3076 C 0.95329 0.10651 0.99484 0.0
C3077 C 0.96513 0.11038 0.96241 0.0
C3078 C 0.97981 0.09559 0.9513 0.0
C3079 C 0.98318 0.0777 0.97177 0.0
C3080 C -0.0003 0.06416 0.954 0.0
C3081 C 0.01873 0.06205 0.97983 0.0
C3082 C 0.99084 0.04275 0.9434 0.0
C3083 C 0.00476 0.07689 0.91959 0.0
C3084 C 0.99306 0.09491 0.91837 0.0
C3085 C 0.994 0.10837 0.88785 0.0
C3086 C 0.00727 0.10334 0.858 0.0
C3087 C 0.01964 0.08515 0.85907 0.0
C3088 C 0.01846 0.0719 0.89047 0.0
H3089 H 0.1648 0.7439 0.09775 0.0
H3090 H 0.14143 0.8011 0.14532 0.0
H3091 H 0.13069 0.78216 0.20246 0.0
H3092 H 0.12696 0.70766 0.13983 0.0
H3093 H 0.14646 0.6882 0.14896 0.0
H3094 H 0.1493 0.70553 0.10965 0.0
H3095 H 0.18552 0.71695 0.1341 0.0
H3096 H 0.18285 0.69945 0.17302 0.0
H3097 H 0.18794 0.72659 0.18128 0.0
H3098 H 0.1243 0.75713 0.256 0.0
H3099 H 0.12815 0.73003 0.30468 0.0
H3100 H 0.15809 0.68985 0.22382 0.0
C3101 C 0.157 0.75231 0.1199 0.0
C3102 C 0.15345 0.77388 0.11688 0.0
C3103 C 0.14394 0.78452 0.14697 0.0
C3104 C 0.13772 0.77385 0.1794 0.0
C3105 C 0.14145 0.75255 0.18161 0.0
C3106 C 0.15122 0.74197 0.15288 0.0
C3107 C 0.15588 0.71974 0.16405 0.0
C3108 C 0.14393 0.70438 0.13913 0.0
C3109 C 0.17944 0.71545 0.16308 0.0
C3110 C 0.14757 0.71957 0.20376 0.0
C3111 C 0.13879 0.73845 0.21307 0.0
C3112 C 0.13096 0.74223 0.24888 0.0
C3113 C 0.133 0.72666 0.27631 0.0
C3114 C 0.14318 0.70776 0.26792 0.0
C3115 C 0.14992 0.70402 0.23085 0.0
H3116 H 0.51724 0.06711 0.35144 0.0
H3117 H 0.46565 0.09973 0.29938 0.0
H3118 H 0.45049 0.10629 0.36145 0.0
H3119 H 0.48632 0.04274 0.42581 0.0
H3120 H 0.50654 0.04532 0.4605 0.0
H3121 H 0.51324 0.04257 0.41178 0.0
H3122 H 0.53461 0.07659 0.41501 0.0
H3123 H 0.52793 0.07948 0.46367 0.0
H3124 H 0.52228 0.10009 0.43104 0.0
H3125 H 0.44126 0.11048 0.42903 0.0
H3126 H 0.43866 0.11206 0.49772 0.0
H3127 H 0.49536 0.07577 0.50729 0.0
C3128 C 0.50264 0.07544 0.35306 0.0
C3129 C 0.49282 0.0831 0.32025 0.0
C3130 C 0.47379 0.09407 0.32389 0.0
C3131 C 0.46492 0.09774 0.35911 0.0
C3132 C 0.4751 0.09026 0.39078 0.0
C3133 C 0.49349 0.07926 0.3882 0.0
C3134 C 0.50135 0.0733 0.42692 0.0
C3135 C 0.50189 0.04957 0.43151 0.0
C3136 C 0.52281 0.08295 0.4346 0.0
C3137 C 0.48468 0.08297 0.45153 0.0
C3138 C 0.46963 0.09254 0.43001 0.0
C3139 C 0.45286 0.10287 0.44619 0.0
C3140 C 0.45144 0.10355 0.48539 0.0
C3141 C 0.4667 0.09397 0.50834 0.0
C3142 C 0.48348 0.08344 0.49084 0.0
H3143 H 0.13864 0.23652 0.59528 0.0
H3144 H 0.19475 0.274 0.59195 0.0
H3145 H 0.20046 0.26722 0.65906 0.0
H3146 H 0.12129 0.25369 0.6849 0.0
H3147 H 0.11126 0.22869 0.69865 0.0
H3148 H 0.11211 0.23573 0.64988 0.0
H3149 H 0.13365 0.2027 0.63546 0.0
H3150 H 0.13283 0.19554 0.68419 0.0
H3151 H 0.15749 0.19804 0.66069 0.0
H3152 H 0.19924 0.25746 0.7277 0.0
H3153 H 0.19142 0.24527 0.79163 0.0
H3154 H 0.13625 0.21393 0.74995 0.0
C3155 C 0.15208 0.24347 0.60855 0.0
C3156 C 0.16613 0.25601 0.58799 0.0
C3157 C 0.18376 0.2643 0.60669 0.0
C3158 C 0.18712 0.26058 0.64498 0.0
C3159 C 0.17279 0.24842 0.66436 0.0
C3160 C 0.15566 0.23993 0.64672 0.0
C3161 C 0.14242 0.22766 0.67399 0.0
C3162 C 0.12047 0.23701 0.67703 0.0
C3163 C 0.14156 0.20462 0.66292 0.0
C3164 C 0.15465 0.23076 0.70984 0.0
C3165 C 0.17215 0.24272 0.70369 0.0
C3166 C 0.18566 0.24794 0.73274 0.0
C3167 C 0.18113 0.24081 0.769 0.0
C3168 C 0.16323 0.22853 0.77607 0.0
C3169 C 0.14994 0.22344 0.7458 0.0
H3170 H 0.00385 0.91309 1.01135 0.0
H3171 H 0.0682 0.89286 1.00527 0.0
H3172 H 0.06629 0.89364 0.93648 0.0
H3173 H 0.98556 0.8822 0.9357 0.0
H3174 H 0.96749 0.90131 0.91829 0.0
H3175 H 0.97426 0.9009 0.96721 0.0
H3176 H 0.9857 0.93938 0.96319 0.0
H3177 H 0.97901 0.93988 0.91418 0.0
H3178 H 0.00484 0.94701 0.92902 0.0
H3179 H 0.05719 0.89472 0.86861 0.0
H3180 H 0.04129 0.89539 0.80586 0.0
H3181 H 0.98233 0.91382 0.8546 0.0
C3182 C 0.01757 0.90883 0.99563 0.0
C3183 C 0.03626 0.90306 1.01411 0.0
C3184 C 0.05384 0.89777 0.99215 0.0
C3185 C 0.05288 0.89805 0.95291 0.0
C3186 C 0.03424 0.90366 0.93574 0.0
C3187 C 0.01688 0.90897 0.9563 0.0
C3188 C -0.00148 0.91357 0.93071 0.0
C3189 C 0.98039 0.89859 0.93844 0.0
C3190 C 0.99161 0.93631 0.93451 0.0
C3191 C 0.00819 0.90955 0.8926 0.0
C3192 C 0.02887 0.90405 0.89629 0.0
C3193 C 0.04103 0.89904 0.86539 0.0
C3194 C 0.0318 0.89935 0.82983 0.0
C3195 C 0.0105 0.9045 0.82518 0.0
C3196 C -0.00133 0.91 0.85711 0.0
H3197 H 0.37183 0.76023 0.2632 0.0
H3198 H 0.30866 0.78331 0.27347 0.0
H3199 H 0.3027 0.77635 0.20653 0.0
H3200 H 0.38185 0.78 0.17076 0.0
H3201 H 0.39643 0.75755 0.15606 0.0
H3202 H 0.39598 0.76481 0.20473 0.0
H3203 H 0.38263 0.72813 0.22238 0.0
H3204 H 0.38309 0.72074 0.17377 0.0
H3205 H 0.35943 0.71822 0.20037 0.0
H3206 H 0.30334 0.76641 0.13844 0.0
H3207 H 0.31063 0.75441 0.07424 0.0
H3208 H 0.37293 0.7365 0.10847 0.0
C3209 C 0.3567 0.76373 0.25149 0.0
C3210 C 0.34079 0.77253 0.2738 0.0
C3211 C 0.32128 0.77702 0.25702 0.0
C3212 C 0.31767 0.77295 0.21898 0.0
C3213 C 0.33366 0.76428 0.19791 0.0
C3214 C 0.35278 0.75969 0.21354 0.0
C3215 C 0.36726 0.75021 0.18474 0.0
C3216 C 0.38652 0.76397 0.17872 0.0
C3217 C 0.37346 0.72801 0.19599 0.0
C3218 C 0.35329 0.75022 0.1505 0.0
C3219 C 0.33397 0.75838 0.15873 0.0
C3220 C 0.3184 0.75993 0.1317 0.0
C3221 C 0.32266 0.75293 0.09531 0.0
C3222 C 0.34236 0.74444 0.08612 0.0
C3223 C 0.35782 0.74314 0.11431 0.0
H3224 H 0.45214 0.07672 0.88882 0.0
H3225 H 0.49402 0.10584 0.80948 0.0
H3226 H 0.52205 0.10515 0.85707 0.0
H3227 H 0.47282 0.10293 0.97378 0.0
H3228 H 0.46912 0.08005 1.0021 0.0
H3229 H 0.452 0.08512 0.96317 0.0
H3230 H 0.46061 0.04889 0.936 0.0
H3231 H 0.47804 0.04383 0.97437 0.0
H3232 H 0.48733 0.04211 0.92689 0.0
H3233 H 0.54672 0.09666 0.91055 0.0
H3234 H 0.56483 0.08527 0.96803 0.0
H3235 H 0.50634 0.06306 1.01337 0.0
C3236 C 0.46704 0.08349 0.88172 0.0
C3237 C 0.47085 0.09146 0.84542 0.0
C3238 C 0.49063 0.09996 0.83721 0.0
C3239 C 0.5067 0.09946 0.86401 0.0
C3240 C 0.50262 0.09071 0.89903 0.0
C3241 C 0.48312 0.0833 0.90818 0.0
C3242 C 0.4829 0.07396 0.94718 0.0
C3243 C 0.46835 0.08625 0.97309 0.0
C3244 C 0.47687 0.05083 0.946 0.0
C3245 C 0.50547 0.07679 0.9583 0.0
C3246 C 0.51662 0.0864 0.9301 0.0
C3247 C 0.53803 0.08948 0.93303 0.0
C3248 C 0.54821 0.08285 0.96575 0.0
C3249 C 0.53699 0.07346 0.99542 0.0
C3250 C 0.51532 0.07045 0.99146 0.0
H3251 H 0.66221 0.69226 0.65592 0.0
H3252 H 0.62662 0.72986 0.57805 0.0
H3253 H 0.62298 0.75703 0.62626 0.0
H3254 H 0.63188 0.70804 0.74148 0.0
H3255 H 0.65483 0.70752 0.7705 0.0
H3256 H 0.65263 0.69012 0.73121 0.0
H3257 H 0.68753 0.70402 0.70532 0.0
H3258 H 0.6897 0.72171 0.74408 0.0
H3259 H 0.69048 0.73146 0.6968 0.0
H3260 H 0.62941 0.78272 0.67802 0.0
H3261 H 0.63936 0.8025 0.73457 0.0
H3262 H 0.66677 0.74712 0.78249 0.0
C3263 C 0.65304 0.70591 0.64948 0.0
C3264 C 0.64456 0.70887 0.61327 0.0
C3265 C 0.63295 0.72707 0.60572 0.0
C3266 C 0.63095 0.74269 0.63287 0.0
C3267 C 0.64018 0.73966 0.66779 0.0
C3268 C 0.65043 0.72144 0.67662 0.0
C3269 C 0.65938 0.72234 0.71596 0.0
C3270 C 0.64906 0.70604 0.74129 0.0
C3271 C 0.68318 0.71973 0.71548 0.0
C3272 C 0.65322 0.74418 0.72733 0.0
C3273 C 0.64237 0.75399 0.69891 0.0
C3274 C 0.63718 0.77497 0.70101 0.0
C3275 C 0.64289 0.78611 0.73318 0.0
C3276 C 0.65312 0.77615 0.7633 0.0
C3277 C 0.65829 0.75489 0.76033 0.0
H3278 H 0.05143 0.91586 0.3959 0.0
H3279 H 0.01039 0.88895 0.31254 0.0
H3280 H 0.98291 0.88529 0.36039 0.0
H3281 H 0.03284 0.88331 0.47599 0.0
H3282 H 0.03559 0.90452 0.50851 0.0
H3283 H 0.05268 0.90267 0.46871 0.0
H3284 H 0.04212 0.93983 0.44867 0.0
H3285 H 0.02475 0.94171 0.48794 0.0
H3286 H 0.01503 0.94577 0.44116 0.0
H3287 H 0.95817 0.89015 0.41454 0.0
H3288 H 0.93964 0.89843 0.47336 0.0
H3289 H -0.00256 0.91967 0.5228 0.0
C3290 C 0.03687 0.90863 0.38796 0.0
C3291 C 0.03309 0.9026 0.35049 0.0
C3292 C 0.01376 0.89341 0.34113 0.0
C3293 C -0.002 0.8914 0.3681 0.0
C3294 C 0.00197 0.89825 0.40445 0.0
C3295 C 0.02112 0.9062 0.41465 0.0
C3296 C 0.02117 0.91317 0.45518 0.0
C3297 C 0.03648 0.90013 0.47848 0.0
C3298 C 0.02605 0.9365 0.45839 0.0
C3299 C -0.00115 0.90857 0.46588 0.0
C3300 C 0.98798 0.90007 0.43616 0.0
C3301 C 0.96665 0.89629 0.43826 0.0
C3302 C 0.95623 0.90114 0.47165 0.0
C3303 C 0.96721 0.90934 0.50267 0.0
C3304 C 0.9888 0.91294 0.49975 0.0
H3305 H 0.82458 0.30292 0.14424 0.0
H3306 H 0.85293 0.26145 0.06342 0.0
H3307 H 0.85699 0.23483 0.1127 0.0
H3308 H 0.8577 0.28625 0.22553 0.0
H3309 H 0.83646 0.28893 0.25803 0.0
H3310 H 0.83784 0.30549 0.2174 0.0
H3311 H 0.80088 0.29383 0.198 0.0
H3312 H 0.79943 0.27702 0.23816 0.0
H3313 H 0.79551 0.26656 0.1919 0.0
H3314 H 0.85191 0.21078 0.16706 0.0
H3315 H 0.84346 0.19259 0.22586 0.0
H3316 H 0.82207 0.25035 0.27451 0.0
C3317 C 0.8322 0.28845 0.13718 0.0
C3318 C 0.83853 0.28429 0.09995 0.0
C3319 C 0.84822 0.2651 0.09176 0.0
C3320 C 0.85047 0.24983 0.11956 0.0
C3321 C 0.8434 0.25415 0.15563 0.0
C3322 C 0.83497 0.2732 0.16481 0.0
C3323 C 0.82805 0.27362 0.20548 0.0
C3324 C 0.84078 0.28952 0.22794 0.0
C3325 C 0.80458 0.27801 0.20854 0.0
C3326 C 0.83318 0.25157 0.21736 0.0
C3327 C 0.84187 0.2406 0.18799 0.0
C3328 C 0.84581 0.21938 0.19062 0.0
C3329 C 0.84095 0.20917 0.22414 0.0
C3330 C 0.83278 0.22018 0.25508 0.0
C3331 C 0.82897 0.24171 0.25169 0.0
H3332 H 0.51106 0.8761 0.85928 0.0
H3333 H 0.54564 0.93392 0.85461 0.0
H3334 H 0.53841 0.93982 0.92156 0.0
H3335 H 0.4708 0.89429 0.92179 0.0
H3336 H 0.46884 0.87001 0.94663 0.0
H3337 H 0.47683 0.87028 0.89831 0.0
H3338 H 0.51045 0.8504 0.91595 0.0
H3339 H 0.50258 0.85008 0.96431 0.0
H3340 H 0.52744 0.86083 0.95144 0.0
H3341 H 0.52698 0.93966 0.98954 0.0
H3342 H 0.51333 0.93289 0.05294 0.0
H3343 H 0.48571 0.87541 1.01346 0.0
C3344 C 0.517 0.8901 0.87217 0.0
C3345 C 0.52899 0.90452 0.8513 0.0
C3346 C 0.53668 0.92246 0.86977 0.0
C3347 C 0.53252 0.92603 0.90787 0.0
C3348 C 0.52064 0.91154 0.92746 0.0
C3349 C 0.51303 0.8939 0.91025 0.0
C3350 C 0.50079 0.88068 0.93773 0.0
C3351 C 0.47796 0.87871 0.92537 0.0
C3352 C 0.51093 0.85923 0.94264 0.0
C3353 C 0.50275 0.89359 0.97311 0.0
C3354 C 0.51417 0.91139 0.96654 0.0
C3355 C 0.51798 0.92577 0.99491 0.0
C3356 C 0.51002 0.92184 0.03088 0.0
C3357 C 0.49837 0.90361 0.0385 0.0
C3358 C 0.49473 0.88938 1.00892 0.0
H3359 H 0.85379 0.7842 0.62331 0.0
H3360 H 0.80222 0.7489 0.57717 0.0
H3361 H 0.79345 0.73643 0.64044 0.0
H3362 H 0.86951 0.74572 0.6902 0.0
H3363 H 0.8765 0.76434 0.72569 0.0
H3364 H 0.87814 0.77132 0.67696 0.0
H3365 H 0.85409 0.80289 0.68887 0.0
H3366 H 0.8523 0.79596 0.73763 0.0
H3367 H 0.82898 0.79887 0.71006 0.0
H3368 H 0.79074 0.72694 0.7087 0.0
H3369 H 0.79458 0.72097 0.77657 0.0
H3370 H 0.84862 0.7613 0.77827 0.0
C3371 C 0.8407 0.77377 0.62637 0.0
C3372 C 0.82866 0.76769 0.59498 0.0
C3373 C 0.81151 0.75417 0.60062 0.0
C3374 C 0.80645 0.74687 0.63651 0.0
C3375 C 0.81868 0.75314 0.66669 0.0
C3376 C 0.83547 0.76626 0.66202 0.0
C3377 C 0.84637 0.77024 0.69903 0.0
C3378 C 0.86897 0.76244 0.69789 0.0
C3379 C 0.84537 0.79336 0.70951 0.0
C3380 C 0.83318 0.75718 0.7252 0.0
C3381 C 0.81724 0.74751 0.70598 0.0
C3382 C 0.80319 0.73443 0.724 0.0
C3383 C 0.80558 0.73102 0.76258 0.0
C3384 C 0.82193 0.74056 0.78294 0.0
C3385 C 0.83579 0.75395 0.76378 0.0
H3386 H 0.01528 0.08082 0.50473 0.0
H3387 H 0.95982 0.10562 0.55767 0.0
H3388 H 0.94298 0.10865 0.49613 0.0
H3389 H 0.01382 0.11419 0.42428 0.0
H3390 H 0.02263 0.09465 0.39188 0.0
H3391 H 0.03024 0.09331 0.44036 0.0
H3392 H 0.0152 0.05611 0.44491 0.0
H3393 H 0.00757 0.05733 0.39639 0.0
H3394 H 0.98851 0.05151 0.43183 0.0
H3395 H 0.93217 0.11008 0.42906 0.0
H3396 H 0.92833 0.11022 0.36046 0.0
H3397 H 0.99061 0.08492 0.34932 0.0
C3398 C -0.0004 0.08689 0.50341 0.0
C3399 C 0.98885 0.0927 0.53647 0.0
C3400 C 0.9683 0.10053 0.53319 0.0
C3401 C 0.95859 0.10247 0.49819 0.0
C3402 C 0.96956 0.09661 0.46635 0.0
C3403 C 0.9896 0.08897 0.4685 0.0
C3404 C -0.00205 0.0842 0.42963 0.0
C3405 C 0.01731 0.09738 0.42104 0.0
C3406 C 0.00258 0.0609 0.42546 0.0
C3407 C 0.97958 0.09066 0.40542 0.0
C3408 C 0.96333 0.09762 0.42731 0.0
C3409 C 0.94474 0.10454 0.41162 0.0
C3410 C 0.94266 0.10444 0.37252 0.0
C3411 C 0.95908 0.09749 0.34921 0.0
C3412 C 0.97779 0.09048 0.36616 0.0
H3413 H 0.62608 0.20993 0.11937 0.0
H3414 H 0.68555 0.23464 0.08295 0.0
H3415 H 0.69247 0.24702 0.14709 0.0
H3416 H 0.61313 0.25008 0.18233 0.0
H3417 H 0.60173 0.23327 0.21705 0.0
H3418 H 0.60162 0.22573 0.16853 0.0
H3419 H 0.62028 0.19133 0.1854 0.0
H3420 H 0.62027 0.19867 0.23406 0.0
H3421 H 0.64438 0.19213 0.21124 0.0
H3422 H 0.69183 0.2589 0.21455 0.0
H3423 H 0.68477 0.26725 0.28051 0.0
H3424 H 0.62709 0.23221 0.27438 0.0
C3425 C 0.64074 0.21761 0.12491 0.0
C3426 C 0.65514 0.22147 0.09574 0.0
C3427 C 0.67401 0.23186 0.10442 0.0
C3428 C 0.67818 0.23884 0.14091 0.0
C3429 C 0.66346 0.23515 0.16872 0.0
C3430 C 0.64524 0.22454 0.16127 0.0
C3431 C 0.63194 0.22272 0.19616 0.0
C3432 C 0.61086 0.2336 0.19067 0.0
C3433 C 0.62906 0.19985 0.20738 0.0
C3434 C 0.64539 0.2342 0.22426 0.0
C3435 C 0.66347 0.24131 0.20785 0.0
C3436 C 0.67788 0.25309 0.22783 0.0
C3437 C 0.67376 0.25764 0.26556 0.0
C3438 C 0.65542 0.25031 0.28333 0.0
C3439 C 0.64117 0.23833 0.26203 0.0
H3440 H 0.0703 0.55041 0.72939 0.0
H3441 H 0.11869 0.51751 0.66931 0.0
H3442 H 0.12626 0.49695 0.72662 0.0
H3443 H 0.09617 0.55183 0.82111 0.0
H3444 H 0.07174 0.5486 0.84512 0.0
H3445 H 0.07254 0.56148 0.80036 0.0
H3446 H 0.04492 0.53514 0.77581 0.0
H3447 H 0.04491 0.52201 0.82027 0.0
H3448 H 0.05049 0.50776 0.77804 0.0
H3449 H 0.12624 0.47813 0.79009 0.0
H3450 H 0.12078 0.4648 0.85429 0.0
H3451 H 0.07178 0.51012 0.87103 0.0
C3452 C 0.08278 0.53916 0.72829 0.0
C3453 C 0.094 0.53565 0.69482 0.0
C3454 C 0.11011 0.52068 0.69473 0.0
C3455 C 0.11437 0.50883 0.72708 0.0
C3456 C 0.10245 0.51227 0.75923 0.0
C3457 C 0.08717 0.5273 0.76007 0.0
C3458 C 0.07601 0.52771 0.79738 0.0
C3459 C 0.07932 0.54864 0.81717 0.0
C3460 C 0.05271 0.52286 0.79257 0.0
C3461 C 0.08722 0.51034 0.81758 0.0
C3462 C 0.10241 0.50158 0.79521 0.0
C3463 C 0.11447 0.48499 0.8078 0.0
C3464 C 0.11112 0.4774 0.84425 0.0
C3465 C 0.09585 0.48639 0.86786 0.0
C3466 C 0.08374 0.50303 0.85399 0.0
H3467 H 0.68641 0.81877 0.99575 0.0
H3468 H 0.71707 0.86617 0.92934 0.0
H3469 H 0.73807 0.87612 0.98473 0.0
H3470 H 0.68501 0.84865 0.08389 0.0
H3471 H 0.68867 0.82533 0.11106 0.0
H3472 H 0.67572 0.82419 0.06635 0.0
H3473 H 0.70262 0.7959 0.04666 0.0
H3474 H 0.71624 0.79845 0.09049 0.0
H3475 H 0.72993 0.80224 0.04702 0.0
H3476 H 0.75687 0.8797 0.04744 0.0
H3477 H 0.77041 0.87805 0.11204 0.0
H3478 H 0.72701 0.82838 0.1373 0.0
C3479 C 0.69734 0.83143 0.99276 0.0
C3480 C 0.69999 0.84172 0.95796 0.0
C3481 C 0.71457 0.85816 0.95561 0.0
C3482 C 0.72666 0.86383 0.98693 0.0
C3483 C 0.72392 0.85302 1.02053 0.0
C3484 C 0.70942 0.83733 0.02367 0.0
C3485 C 0.70946 0.82803 0.06274 0.0
C3486 C 0.68847 0.83176 0.08219 0.0
C3487 C 0.71489 0.80478 0.06164 0.0
C3488 C 0.72658 0.84063 0.08106 0.0
C3489 C 0.73466 0.85505 0.05632 0.0
C3490 C 0.75051 0.86857 0.06702 0.0
C3491 C 0.75804 0.86757 0.10395 0.0
C3492 C 0.74976 0.85317 0.13013 0.0
C3493 C 0.73391 0.83942 0.11811 0.0
H3494 H 0.4281 0.47871 0.38869 0.0
H3495 H 0.36488 0.50211 0.38291 0.0
H3496 H 0.36204 0.48971 0.31784 0.0
H3497 H 0.44216 0.49204 0.29218 0.0
H3498 H 0.45776 0.46907 0.28596 0.0
H3499 H 0.455 0.48034 0.33183 0.0
H3500 H 0.44193 0.44499 0.35707 0.0
H3501 H 0.44428 0.43373 0.31116 0.0
H3502 H 0.41974 0.43277 0.3354 0.0
H3503 H 0.3657 0.47395 0.25291 0.0
H3504 H 0.37615 0.45695 0.19365 0.0
H3505 H 0.43689 0.44411 0.24151 0.0
C3506 C 0.41374 0.48148 0.37364 0.0
C3507 C 0.39665 0.4913 0.3914 0.0
C3508 C 0.3781 0.49433 0.37048 0.0
C3509 C 0.37635 0.48743 0.33328 0.0
C3510 C 0.39331 0.47753 0.31691 0.0
C3511 C 0.41172 0.47466 0.33633 0.0
C3512 C 0.42754 0.46334 0.31226 0.0
C3513 C 0.44675 0.47702 0.30514 0.0
C3514 C 0.43373 0.44247 0.33004 0.0
C3515 C 0.41507 0.46015 0.27654 0.0
C3516 C 0.39539 0.46849 0.27967 0.0
C3517 C 0.38111 0.46739 0.25017 0.0
C3518 C 0.38716 0.45764 0.21658 0.0
C3519 C 0.40731 0.44905 0.21264 0.0
C3520 C 0.42132 0.45038 0.24332 0.0
H3521 H 0.79957 0.18297 0.48574 0.0
H3522 H 0.77775 0.12758 0.42892 0.0
H3523 H 0.75679 0.11855 0.48488 0.0
H3524 H 0.8038 0.16156 0.57789 0.0
H3525 H 0.79493 0.18495 0.60046 0.0
H3526 H 0.80821 0.18645 0.55621 0.0
H3527 H 0.77665 0.20648 0.52712 0.0
H3528 H 0.76419 0.20535 0.57222 0.0
H3529 H 0.75105 0.19549 0.53142 0.0
H3530 H 0.73758 0.11619 0.54765 0.0
H3531 H 0.72325 0.1197 0.61146 0.0
H3532 H 0.75759 0.17713 0.62604 0.0
C3533 C 0.79057 0.16883 0.48486 0.0
C3534 C 0.79052 0.15593 0.45268 0.0
C3535 C 0.77826 0.13765 0.45315 0.0
C3536 C 0.76621 0.13247 0.48481 0.0
C3537 C 0.76649 0.14575 0.51577 0.0
C3538 C 0.77843 0.16355 0.51594 0.0
C3539 C 0.77603 0.17542 0.55237 0.0
C3540 C 0.79699 0.17719 0.57294 0.0
C3541 C 0.76642 0.19696 0.54536 0.0
C3542 C 0.76106 0.16136 0.57317 0.0
C3543 C 0.75558 0.14442 0.55149 0.0
C3544 C 0.74179 0.12941 0.56473 0.0
C3545 C 0.7336 0.13163 0.60103 0.0
C3546 C 0.7392 0.14871 0.62403 0.0
C3547 C 0.75309 0.16378 0.60953 0.0
H3548 H 0.93371 0.44066 0.62864 0.0
H3549 H 0.88046 0.46481 0.68927 0.0
H3550 H 0.87019 0.48499 0.63342 0.0
H3551 H 0.94554 0.4877 0.57648 0.0
H3552 H 0.95307 0.47349 0.53532 0.0
H3553 H 0.95595 0.46178 0.58086 0.0
H3554 H 0.93374 0.43063 0.55702 0.0
H3555 H 0.9303 0.44313 0.51231 0.0
H3556 H 0.90791 0.43541 0.53923 0.0
H3557 H 0.86622 0.5035 0.57162 0.0
H3558 H 0.86762 0.51748 0.50749 0.0
H3559 H 0.9228 0.48064 0.48545 0.0
C3560 C 0.9198 0.45009 0.63022 0.0
C3561 C 0.90786 0.45103 0.66362 0.0
C3562 C 0.88984 0.46367 0.6642 0.0
C3563 C 0.88391 0.47528 0.63257 0.0
C3564 C 0.89609 0.47411 0.60033 0.0
C3565 C 0.9136 0.46175 0.5988 0.0
C3566 C 0.92383 0.46311 0.56047 0.0
C3567 C 0.94592 0.47204 0.56351 0.0
C3568 C 0.92394 0.4418 0.54112 0.0
C3569 C 0.90935 0.47824 0.5407 0.0
C3570 C 0.89353 0.48445 0.56434 0.0
C3571 C 0.87843 0.49858 0.5528 0.0
C3572 C 0.87933 0.50638 0.51611 0.0
C3573 C 0.89516 0.50007 0.49091 0.0
C3574 C 0.91051 0.48592 0.50381 0.0
H3575 H 0.26215 0.17741 0.2407 0.0
H3576 H 0.23794 0.11477 0.25091 0.0
H3577 H 0.25208 0.11254 0.31503 0.0
H3578 H 0.30998 0.16853 0.29105 0.0
H3579 H 0.30997 0.19348 0.31377 0.0
H3580 H 0.29783 0.19049 0.26864 0.0
H3581 H 0.2634 0.20495 0.29485 0.0
H3582 H 0.27512 0.20805 0.34031 0.0
H3583 H 0.25172 0.19292 0.33525 0.0
H3584 H 0.26923 0.1171 0.379 0.0
H3585 H 0.2871 0.12858 0.43694 0.0
H3586 H 0.30023 0.18793 0.38442 0.0
C3587 C 0.25993 0.16315 0.25626 0.0
C3588 C 0.24877 0.1463 0.2405 0.0
C3589 C 0.24608 0.12805 0.2623 0.0
C3590 C 0.25421 0.12656 0.29878 0.0
C3591 C 0.26508 0.14344 0.31342 0.0
C3592 C 0.26791 0.16141 0.29283 0.0
C3593 C 0.27995 0.17742 0.31525 0.0
C3594 C 0.30066 0.18279 0.29602 0.0
C3595 C 0.26676 0.19699 0.3218 0.0
C3596 C 0.28351 0.16562 0.3515 0.0
C3597 C 0.27485 0.14604 0.34999 0.0
C3598 C 0.27609 0.13242 0.38042 0.0
C3599 C 0.28632 0.13905 0.41325 0.0
C3600 C 0.29519 0.15914 0.41551 0.0
C3601 C 0.29374 0.17244 0.38391 0.0
H3602 H 0.57598 0.50535 0.99939 0.0
H3603 H 0.63333 0.47165 1.01972 0.0
H3604 H 0.63557 0.48706 0.08284 0.0
H3605 H 0.58992 0.55193 0.0462 0.0
H3606 H 0.56446 0.55633 0.06572 0.0
H3607 H 0.56713 0.54225 0.02248 0.0
H3608 H 0.54673 0.51148 0.05099 0.0
H3609 H 0.54409 0.5253 0.09453 0.0
H3610 H 0.55565 0.49981 0.09396 0.0
H3611 H 0.63162 0.50693 0.14491 0.0
H3612 H 0.62094 0.52835 0.19944 0.0
H3613 H 0.56666 0.54876 0.13707 0.0
C3614 C 0.58888 0.50094 1.01721 0.0
C3615 C 0.60455 0.48732 1.00415 0.0
C3616 C 0.62127 0.48228 0.02856 0.0
C3617 C 0.62264 0.49089 0.06467 0.0
C3618 C 0.60714 0.50454 0.07636 0.0
C3619 C 0.59049 0.5094 0.05338 0.0
C3620 C 0.5759 0.52451 0.07247 0.0
C3621 C 0.57428 0.54497 0.0504 0.0
C3622 C 0.55432 0.51469 0.07835 0.0
C3623 C 0.5871 0.52763 0.10943 0.0
C3624 C 0.60502 0.51593 0.11147 0.0
C3625 C 0.61761 0.5162 0.14349 0.0
C3626 C 0.61152 0.52851 0.17431 0.0
C3627 C 0.59308 0.54051 0.17278 0.0
C3628 C 0.58098 0.54005 0.1395 0.0
H3629 H 0.18515 0.81592 0.88093 0.0
H3630 H 0.22543 0.85449 0.9493 0.0
H3631 H 0.24615 0.8632 0.89316 0.0
H3632 H 0.22405 0.79496 0.8225 0.0
H3633 H 0.20837 0.79527 0.78063 0.0
H3634 H 0.19615 0.79297 0.82575 0.0
H3635 H 0.17347 0.82555 0.81185 0.0
H3636 H 0.18538 0.82728 0.76632 0.0
H3637 H 0.18596 0.84927 0.79749 0.0
H3638 H 0.26365 0.86616 0.82971 0.0
H3639 H 0.2752 0.86495 0.76386 0.0
H3640 H 0.22327 0.82461 0.73675 0.0
C3641 C 0.19813 0.82643 0.88419 0.0
C3642 C 0.20354 0.83456 0.91978 0.0
C3643 C 0.22081 0.84815 0.92248 0.0
C3644 C 0.23275 0.85313 0.8907 0.0
C3645 C 0.22717 0.84452 0.85626 0.0
C3646 C 0.21011 0.83164 0.85276 0.0
C3647 C 0.2075 0.82424 0.81267 0.0
C3648 C 0.20912 0.80045 0.81027 0.0
C3649 C 0.18686 0.83205 0.7961 0.0
C3650 C 0.22595 0.83474 0.79415 0.0
C3651 C 0.2371 0.84635 0.81979 0.0
C3652 C 0.25497 0.85717 0.80942 0.0
C3653 C 0.2615 0.85626 0.77193 0.0
C3654 C 0.25022 0.84466 0.74494 0.0
C3655 C 0.23217 0.83378 0.75648 0.0
H3656 H 0.58086 0.00915 0.37648 0.0
H3657 H 0.64078 0.9787 0.36601 0.0
H3658 H 0.64464 0.99316 0.30242 0.0
H3659 H 0.56447 0.00039 0.28086 0.0
H3660 H 0.55138 0.02504 0.27714 0.0
H3661 H 0.55364 0.01246 0.32196 0.0
H3662 H 0.57105 0.04548 0.34901 0.0
H3663 H 0.569 0.05801 0.30408 0.0
H3664 H 0.59397 0.05582 0.32675 0.0
H3665 H 0.64176 0.01104 0.23824 0.0
H3666 H 0.63121 0.02896 0.1796 0.0
H3667 H 0.5735 0.04746 0.23295 0.0
C3668 C 0.59473 0.00532 0.36079 0.0
C3669 C 0.61057 0.99283 0.37678 0.0
C3670 C 0.62853 0.9885 0.355 0.0
C3671 C 0.63086 -0.00341 0.31863 0.0
C3672 C 0.61511 0.00906 0.304 0.0
C3673 C 0.59732 0.01328 0.32439 0.0
C3674 C 0.5825 0.02682 0.30208 0.0
C3675 C 0.56178 0.0155 0.29509 0.0
C3676 C 0.57894 0.04777 0.32165 0.0
C3677 C 0.5947 0.02951 0.26604 0.0
C3678 C 0.6135 0.01923 0.26753 0.0
C3679 C 0.62707 0.01921 0.2369 0.0
C3680 C 0.62104 0.02955 0.20371 0.0
C3681 C 0.60159 0.03977 0.20136 0.0
C3682 C 0.58855 0.03993 0.23345 0.0
H3683 H 0.19709 0.31369 0.48568 0.0
H3684 H 0.2186 0.36992 0.43096 0.0
H3685 H 0.23889 0.37877 0.488 0.0
H3686 H 0.19136 0.33462 0.577 0.0
H3687 H 0.20039 0.3117 0.60085 0.0
H3688 H 0.18773 0.30943 0.556 0.0
H3689 H 0.21959 0.29019 0.52754 0.0
H3690 H 0.2316 0.29111 0.57311 0.0
H3691 H 0.24509 0.30131 0.53294 0.0
H3692 H 0.25735 0.38083 0.552 0.0
H3693 H 0.2711 0.37677 0.61618 0.0
H3694 H 0.23705 0.31896 0.62784 0.0
C3695 C 0.20589 0.32801 0.48544 0.0
C3696 C 0.20603 0.34121 0.45358 0.0
C3697 C 0.21802 0.35965 0.45493 0.0
C3698 C 0.22969 0.36471 0.4872 0.0
C3699 C 0.22932 0.35114 0.51784 0.0
C3700 C 0.21766 0.33318 0.51706 0.0
C3701 C 0.21973 0.32106 0.55332 0.0
C3702 C 0.19854 0.31908 0.57293 0.0
C3703 C 0.22958 0.29965 0.54631 0.0
C3704 C 0.23434 0.33504 0.57506 0.0
C3705 C 0.23978 0.35229 0.55413 0.0
C3706 C 0.25307 0.36741 0.56854 0.0
C3707 C 0.26074 0.365 0.60522 0.0
C3708 C 0.25514 0.34759 0.6275 0.0
C3709 C 0.24189 0.33235 0.61172 0.0
H3710 H 0.92327 0.98127 0.87986 0.0
H3711 H 0.86135 0.00737 0.86844 0.0
H3712 H 0.85896 0.99327 0.80443 0.0
H3713 H 0.93937 0.99172 0.78389 0.0
H3714 H 0.95417 0.96806 0.78001 0.0
H3715 H 0.95112 0.98038 0.82492 0.0
H3716 H 0.9361 0.94627 0.85209 0.0
H3717 H 0.93901 0.93388 0.80724 0.0
H3718 H 0.91396 0.93432 0.8298 0.0
H3719 H 0.8631 0.97569 0.74099 0.0
H3720 H 0.87424 0.95732 0.68342 0.0
H3721 H 0.93332 0.94312 0.73653 0.0
C3722 C 0.90929 0.98426 0.86381 0.0
C3723 C 0.89242 0.99534 0.87963 0.0
C3724 C 0.87436 -0.00136 0.85747 0.0
C3725 C 0.87288 0.99077 0.82089 0.0
C3726 C 0.88961 0.97964 0.80644 0.0
C3727 C 0.90755 0.97652 0.82713 0.0
C3728 C 0.92332 0.96405 0.80501 0.0
C3729 C 0.94317 0.97682 0.79804 0.0
C3730 C 0.92838 0.94341 0.82471 0.0
C3731 C 0.91136 0.96049 0.76892 0.0
C3732 C 0.89197 0.96962 0.77014 0.0
C3733 C 0.87828 0.96847 0.73976 0.0
C3734 C 0.88469 0.95793 0.70719 0.0
C3735 C 0.90461 0.94862 0.70523 0.0
C3736 C 0.91793 0.94991 0.73685 0.0
H3737 H 0.26015 0.68023 0.12426 0.0
H3738 H 0.22175 0.62544 0.11011 0.0
H3739 H 0.23572 0.62081 0.04613 0.0
H3740 H 0.25541 0.69871 0.02837 0.0
H3741 H 0.28177 0.70793 0.02614 0.0
H3742 H 0.26823 0.7077 0.07023 0.0
H3743 H 0.29733 0.68567 0.10001 0.0
H3744 H 0.31143 0.68541 0.05652 0.0
H3745 H 0.30461 0.66131 0.07894 0.0
H3746 H 0.25546 0.62178 0.98299 0.0
H3747 H 0.27779 0.62925 0.92781 0.0
H3748 H 0.30347 0.68233 0.98648 0.0
C3749 C 0.25462 0.66727 0.10774 0.0
C3750 C 0.23984 0.65319 0.12237 0.0
C3751 C 0.23287 0.63659 0.09946 0.0
C3752 C 0.24082 0.63375 0.06311 0.0
C3753 C 0.25568 0.64772 0.04985 0.0
C3754 C 0.26232 0.66427 0.07148 0.0
C3755 C 0.27853 0.67701 0.05119 0.0
C3756 C 0.27051 0.69914 0.04355 0.0
C3757 C 0.29919 0.67736 0.07297 0.0
C3758 C 0.28044 0.66475 1.01526 0.0
C3759 C 0.26704 0.64803 1.01452 0.0
C3760 C 0.26604 0.63485 0.98343 0.0
C3761 C 0.27886 0.63911 0.95226 0.0
C3762 C 0.29264 0.65627 0.95263 0.0
C3763 C 0.29339 0.66897 0.98495 0.0
H3764 H 0.40646 0.98177 0.16908 0.0
H3765 H 0.42121 0.91926 0.1321 0.0
H3766 H 0.41913 0.93049 0.06675 0.0
H3767 H 0.36921 0.99209 0.08927 0.0
H3768 H 0.37663 0.01899 0.08547 0.0
H3769 H 0.37766 0.00608 0.13025 0.0
H3770 H 0.41665 0.01607 0.13717 0.0
H3771 H 0.41509 0.0293 0.09281 0.0
H3772 H 0.43443 0.00958 0.10006 0.0
H3773 H 0.41967 0.94827 1.00633 0.0
H3774 H 0.41815 0.97141 0.95162 0.0
H3775 H 0.40106 0.02286 0.02373 0.0
C3776 C 0.40857 0.97037 0.14716 0.0
C3777 C 0.41399 0.94957 0.15594 0.0
C3778 C 0.41706 0.93525 0.12631 0.0
C3779 C 0.41599 0.94148 0.08893 0.0
C3780 C 0.41146 0.9621 0.08113 0.0
C3781 C 0.4073 0.97634 0.10909 0.0
C3782 C 0.40283 -0.0024 0.092 0.0
C3783 C 0.38024 0.00407 0.0997 0.0
C3784 C 0.41817 0.01408 0.1064 0.0
C3785 C 0.40614 0.9931 0.05049 0.0
C3786 C 0.41105 0.97246 0.04519 0.0
C3787 C 0.41561 0.96444 1.00996 0.0
C3788 C 0.4149 0.97777 0.97905 0.0
C3789 C 0.4096 -0.00103 0.98325 0.0
C3790 C 0.40506 0.00671 1.01959 0.0
H3791 H 0.7766 0.68278 0.90625 0.0
H3792 H 0.79166 0.61876 0.93245 0.0
H3793 H 0.77504 0.60779 0.87261 0.0
H3794 H 0.72649 0.67273 0.8631 0.0
H3795 H 0.72947 0.69256 0.82785 0.0
H3796 H 0.7417 0.69563 0.87279 0.0
H3797 H 0.77758 0.70025 0.84278 0.0
H3798 H 0.76575 0.69805 0.79728 0.0
H3799 H 0.78691 0.68109 0.80998 0.0
H3800 H 0.75885 0.6047 0.80625 0.0
H3801 H 0.74395 0.60928 0.74303 0.0
H3802 H 0.73897 0.67557 0.7625 0.0
C3803 C 0.77636 0.66636 0.89973 0.0
C3804 C 0.78566 0.6516 0.9241 0.0
C3805 C 0.78465 0.63033 0.91442 0.0
C3806 C 0.77528 0.62402 0.88039 0.0
C3807 C 0.7667 0.63913 0.85668 0.0
C3808 C 0.76697 0.65986 0.86637 0.0
C3809 C 0.75714 0.67327 0.83617 0.0
C3810 C 0.73752 0.68416 0.85087 0.0
C3811 C 0.7728 0.6891 0.82066 0.0
C3812 C 0.75176 0.65699 0.80718 0.0
C3813 C 0.75723 0.63736 0.8195 0.0
C3814 C 0.75432 0.62 0.79675 0.0
C3815 C 0.7457 0.62278 0.76077 0.0
C3816 C 0.74007 0.64281 0.74741 0.0
C3817 C 0.74315 0.66005 0.77138 0.0
H3818 H 0.07419 0.013 0.49606 0.0
H3819 H 0.12901 0.97512 0.51481 0.0
H3820 H 0.13244 0.98973 0.57849 0.0
H3821 H 0.09207 0.05849 0.54403 0.0
H3822 H 0.06693 0.06456 0.56344 0.0
H3823 H 0.06872 0.05079 0.51972 0.0
H3824 H 0.04595 0.0213 0.54692 0.0
H3825 H 0.04419 0.03482 0.5909 0.0
H3826 H 0.05381 0.00856 0.58956 0.0
H3827 H 0.12967 0.00911 0.64169 0.0
H3828 H 0.12002 0.03021 0.69727 0.0
H3829 H 0.06806 0.05579 0.63466 0.0
C3830 C 0.08702 0.00783 0.51338 0.0
C3831 C 0.10132 0.99283 0.50012 0.0
C3832 C 0.11765 0.98635 0.52425 0.0
C3833 C 0.11984 0.9947 0.56048 0.0
C3834 C 0.10556 0.00957 0.5725 0.0
C3835 C 0.08941 0.01597 0.5496 0.0
C3836 C 0.07593 0.03191 0.56912 0.0
C3837 C 0.07593 0.05266 0.54781 0.0
C3838 C 0.05366 0.02365 0.57445 0.0
C3839 C 0.0872 0.03374 0.60627 0.0
C3840 C 0.10418 0.02071 0.60804 0.0
C3841 C 0.11644 0.01947 0.64042 0.0
C3842 C 0.11095 0.03161 0.67184 0.0
C3843 C 0.09343 0.04492 0.67059 0.0
C3844 C 0.08172 0.04604 0.63692 0.0
H3845 H 0.68959 0.30621 0.38373 0.0
H3846 H 0.71709 0.35727 0.44579 0.0
H3847 H 0.73762 0.3669 0.38979 0.0
H3848 H 0.73626 0.29233 0.33319 0.0
H3849 H 0.72209 0.28532 0.2915 0.0
H3850 H 0.70999 0.28289 0.33675 0.0
H3851 H 0.67957 0.30603 0.3133 0.0
H3852 H 0.69199 0.30885 0.26845 0.0
H3853 H 0.68512 0.33156 0.29515 0.0
H3854 H 0.75565 0.37049 0.32676 0.0
H3855 H 0.76853 0.36875 0.26172 0.0
H3856 H 0.72913 0.31527 0.24109 0.0
C3857 C 0.69978 0.31955 0.38567 0.0
C3858 C 0.70157 0.33108 0.41935 0.0
C3859 C 0.71533 0.34825 0.42042 0.0
C3860 C 0.7271 0.35379 0.38873 0.0
C3861 C 0.72503 0.34198 0.35615 0.0
C3862 C 0.71168 0.32522 0.35445 0.0
C3863 C 0.71244 0.31487 0.31631 0.0
C3864 C 0.72069 0.29253 0.31963 0.0
C3865 C 0.691 0.31537 0.29718 0.0
C3866 C 0.72795 0.32873 0.29637 0.0
C3867 C 0.73525 0.3441 0.31999 0.0
C3868 C 0.75001 0.35851 0.30809 0.0
C3869 C 0.75735 0.35731 0.2711 0.0
C3870 C 0.74989 0.34188 0.24615 0.0
C3871 C 0.73501 0.32739 0.25925 0.0
loop_
_geom_bond_atom_site_label_1
_geom_bond_atom_site_label_2
_geom_bond_distance
_geom_bond_site_symmetry_2
_ccdc_geom_bond_type
Nd0 C2 2.836 . S
Nd0 O20 2.500 . S
Nd0 O21 2.492 . S
Nd0 O22 2.487 . S
Nd0 O23 2.682 . S
Nd0 O24 2.410 . S
Nd0 O29 2.414 . S
Nd0 O31 2.424 . S
Nd1 C11 2.836 . S
Nd1 O23 2.414 . S
Nd1 O25 2.424 . S
Nd1 O26 2.500 . S
Nd1 O27 2.492 . S
Nd1 O28 2.487 . S
Nd1 O29 2.682 . S
Nd1 O30 2.410 . S
C2 Nd0 2.836 . S
C2 C3 1.498 1_554 S
C2 O20 1.258 . S
C2 O21 1.239 . S
C3 C2 1.498 1_556 S
C3 C4 1.366 . S
C3 C8 1.407 . S
C4 C3 1.366 . S
C4 C5 1.392 . S
C4 H32 0.930 . S
C5 C4 1.392 . S
C5 C6 1.398 . S
C5 H33 0.929 . S
C6 C5 1.398 . S
C6 C7 1.352 . S
C7 C6 1.352 . S
C7 C8 1.384 . S
C7 H34 0.930 . S
C8 C3 1.407 . S
C8 C7 1.384 . S
C8 H35 0.929 . S
C9 O22 1.241 . S
C9 O23 1.273 . S
C10 O24 1.251 . S
C10 O25 1.268 . S
C11 Nd1 2.836 . S
C11 C12 1.498 . S
C11 O26 1.258 . S
C11 O27 1.239 . S
C12 C11 1.498 . S
C12 C13 1.366 . S
C12 C17 1.367 1_455 S
C13 C12 1.366 . S
C13 C14 1.392 . S
C13 H36 0.930 . S
C14 C13 1.392 . S
C14 C15 1.398 . S
C14 H37 0.929 . S
C15 C14 1.398 . S
C15 C16 1.352 1_455 S
C16 C15 1.352 1_655 S
C16 C17 1.394 . S
C16 H38 0.930 . S
C17 C12 1.367 1_655 S
C17 C16 1.394 . S
C17 H39 0.961 . S
C18 O28 1.241 . S
C18 O29 1.273 . S
C19 O30 1.251 . S
C19 O31 1.268 . S
O20 Nd0 2.500 . S
O20 C2 1.258 . S
O21 Nd0 2.492 . S
O21 C2 1.239 . S
O22 Nd0 2.487 . S
O22 C9 1.241 . S
O23 Nd0 2.682 . S
O23 Nd1 2.414 . S
O23 C9 1.273 . S
O24 Nd0 2.410 . S
O24 C10 1.251 . S
O25 Nd1 2.424 . S
O25 C10 1.268 . S
O26 Nd1 2.500 . S
O26 C11 1.258 . S
O27 Nd1 2.492 . S
O27 C11 1.239 . S
O28 Nd1 2.487 . S
O28 C18 1.241 . S
O29 Nd0 2.414 . S
O29 Nd1 2.682 . S
O29 C18 1.273 . S
O30 Nd1 2.410 . S
O30 C19 1.251 . S
O31 Nd0 2.424 . S
O31 C19 1.268 . S
H32 C4 0.930 . S
H33 C5 0.929 . S
H34 C7 0.930 . S
H35 C8 0.929 . S
H36 C13 0.930 . S
H37 C14 0.929 . S
H38 C16 0.930 . S
H39 C17 0.961 . S
Nd40 C42 2.836 . S
Nd40 O60 2.500 . S
Nd40 O61 2.492 . S
Nd40 O62 2.487 . S
Nd40 O63 2.682 . S
Nd40 O64 2.410 . S
Nd40 O69 2.414 . S
Nd40 O71 2.424 . S
Nd41 C51 2.836 . S
Nd41 O63 2.414 . S
Nd41 O65 2.424 . S
Nd41 O66 2.500 . S
Nd41 O67 2.492 . S
Nd41 O68 2.487 . S
Nd41 O69 2.682 . S
Nd41 O70 2.410 . S
C42 Nd40 2.836 . S
C42 C43 1.498 . S
C42 O60 1.258 . S
C42 O61 1.239 . S
C43 C42 1.498 . S
C43 C44 1.366 . S
C43 C48 1.407 . S
C44 C43 1.366 . S
C44 C45 1.392 . S
C44 H72 0.930 . S
C45 C44 1.392 . S
C45 C46 1.398 . S
C45 H73 0.929 . S
C46 C45 1.398 . S
C46 C47 1.352 . S
C47 C46 1.352 . S
C47 C48 1.384 . S
C47 H74 0.930 . S
C48 C43 1.407 . S
C48 C47 1.384 . S
C48 H75 0.929 . S
C49 O62 1.241 . S
C49 O63 1.273 . S
C50 O64 1.251 . S
C50 O65 1.268 . S
C51 Nd41 2.836 . S
C51 C52 1.498 . S
C51 O66 1.258 . S
C51 O67 1.239 . S
C52 C51 1.498 . S
C52 C53 1.366 . S
C52 C57 1.407 . S
C53 C52 1.366 . S
C53 C54 1.392 . S
C53 H76 0.930 . S
C54 C53 1.392 . S
C54 C55 1.398 . S
C54 H77 0.929 . S
C55 C54 1.398 . S
C55 C56 1.352 . S
C56 C55 1.352 . S
C56 C57 1.384 . S
C56 H78 0.930 . S
C57 C52 1.407 . S
C57 C56 1.384 . S
C57 H79 0.929 . S
C58 O68 1.241 . S
C58 O69 1.273 . S
C59 O70 1.251 . S
C59 O71 1.268 . S
O60 Nd40 2.500 . S
O60 C42 1.258 . S
O61 Nd40 2.492 . S
O61 C42 1.239 . S
O62 Nd40 2.487 . S
O62 C49 1.241 . S
O63 Nd40 2.682 . S
O63 Nd41 2.414 . S
O63 C49 1.273 . S
O64 Nd40 2.410 . S
O64 C50 1.251 . S
O65 Nd41 2.424 . S
O65 C50 1.268 . S
O66 Nd41 2.500 . S
O66 C51 1.258 . S
O67 Nd41 2.492 . S
O67 C51 1.239 . S
O68 Nd41 2.487 . S
O68 C58 1.241 . S
O69 Nd40 2.414 . S
O69 Nd41 2.682 . S
O69 C58 1.273 . S
O70 Nd41 2.410 . S
O70 C59 1.251 . S
O71 Nd40 2.424 . S
O71 C59 1.268 . S
H72 C44 0.930 . S
H73 C45 0.929 . S
H74 C47 0.930 . S
H75 C48 0.929 . S
H76 C53 0.930 . S
H77 C54 0.929 . S
H78 C56 0.930 . S
H79 C57 0.929 . S
Nd80 C82 2.836 . S
Nd80 O100 2.500 . S
Nd80 O101 2.492 . S
Nd80 O102 2.487 . S
Nd80 O103 2.682 . S
Nd80 O104 2.410 . S
Nd80 O109 2.414 . S
Nd80 O111 2.424 . S
Nd81 C91 2.836 . S
Nd81 O103 2.414 . S
Nd81 O105 2.424 . S
Nd81 O106 2.500 . S
Nd81 O107 2.492 . S
Nd81 O108 2.487 . S
Nd81 O109 2.682 . S
Nd81 O110 2.410 . S
C82 Nd80 2.836 . S
C82 C83 1.498 . S
C82 O100 1.258 . S
C82 O101 1.239 . S
C83 C82 1.498 . S
C83 C84 1.366 . S
C83 C88 1.407 . S
C84 C83 1.366 . S
C84 C85 1.392 . S
C84 H112 0.930 . S
C85 C84 1.392 . S
C85 C86 1.398 . S
C85 H113 0.929 . S
C86 C85 1.398 . S
C86 C87 1.352 . S
C87 C86 1.352 . S
C87 C88 1.384 . S
C87 H114 0.930 . S
C88 C83 1.407 . S
C88 C87 1.384 . S
C88 H115 0.929 . S
C89 O102 1.241 . S
C89 O103 1.273 . S
C90 O104 1.251 . S
C90 O105 1.268 . S
C91 Nd81 2.836 . S
C91 C92 1.498 . S
C91 O106 1.258 . S
C91 O107 1.239 . S
C92 C91 1.498 . S
C92 C93 1.366 . S
C92 C97 1.407 . S
C93 C92 1.366 . S
C93 C94 1.392 . S
C93 H116 0.930 . S
C94 C93 1.392 . S
C94 C95 1.398 . S
C94 H117 0.929 . S
C95 C94 1.398 . S
C95 C96 1.352 . S
C96 C95 1.352 . S
C96 C97 1.384 . S
C96 H118 0.930 . S
C97 C92 1.407 . S
C97 C96 1.384 . S
C97 H119 0.929 . S
C98 O108 1.241 . S
C98 O109 1.273 . S
C99 O110 1.251 . S
C99 O111 1.268 . S
O100 Nd80 2.500 . S
O100 C82 1.258 . S
O101 Nd80 2.492 . S
O101 C82 1.239 . S
O102 Nd80 2.487 . S
O102 C89 1.241 . S
O103 Nd80 2.682 . S
O103 Nd81 2.414 . S
O103 C89 1.273 . S
O104 Nd80 2.410 . S
O104 C90 1.251 . S
O105 Nd81 2.424 . S
O105 C90 1.268 . S
O106 Nd81 2.500 . S
O106 C91 1.258 . S
O107 Nd81 2.492 . S
O107 C91 1.239 . S
O108 Nd81 2.487 . S
O108 C98 1.241 . S
O109 Nd80 2.414 . S
O109 Nd81 2.682 . S
O109 C98 1.273 . S
O110 Nd81 2.410 . S
O110 C99 1.251 . S
O111 Nd80 2.424 . S
O111 C99 1.268 . S
H112 C84 0.930 . S
H113 C85 0.929 . S
H114 C87 0.930 . S
H115 C88 0.929 . S
H116 C93 0.930 . S
H117 C94 0.929 . S
H118 C96 0.930 . S
H119 C97 0.929 . S
Nd120 C122 2.836 . S
Nd120 O140 2.500 . S
Nd120 O141 2.492 . S
Nd120 O142 2.487 . S
Nd120 O143 2.682 . S
Nd120 O144 2.410 . S
Nd120 O149 2.414 . S
Nd120 O151 2.424 . S
Nd121 C131 2.836 . S
Nd121 O143 2.414 . S
Nd121 O145 2.424 . S
Nd121 O146 2.500 . S
Nd121 O147 2.492 . S
Nd121 O148 2.487 . S
Nd121 O149 2.682 . S
Nd121 O150 2.410 . S
C122 Nd120 2.836 . S
C122 C123 1.498 . S
C122 O140 1.258 . S
C122 O141 1.239 . S
C123 C122 1.498 . S
C123 C124 1.366 . S
C123 C128 1.407 . S
C124 C123 1.366 . S
C124 C125 1.392 . S
C124 H152 0.930 . S
C125 C124 1.392 . S
C125 C126 1.398 . S
C125 H153 0.929 . S
C126 C125 1.398 . S
C126 C127 1.352 . S
C127 C126 1.352 . S
C127 C128 1.384 . S
C127 H154 0.930 . S
C128 C123 1.407 . S
C128 C127 1.384 . S
C128 H155 0.929 . S
C129 O142 1.241 . S
C129 O143 1.273 . S
C130 O144 1.251 . S
C130 O145 1.268 . S
C131 Nd121 2.836 . S
C131 C132 1.498 1_556 S
C131 O146 1.258 . S
C131 O147 1.239 . S
C132 C131 1.498 1_554 S
C132 C133 1.366 . S
C132 C137 1.407 . S
C133 C132 1.366 . S
C133 C134 1.392 . S
C133 H156 0.930 . S
C134 C133 1.392 . S
C134 C135 1.398 . S
C134 H157 0.929 . S
C135 C134 1.398 . S
C135 C136 1.352 . S
C136 C135 1.352 . S
C136 C137 1.384 . S
C136 H158 0.930 . S
C137 C132 1.407 . S
C137 C136 1.384 . S
C137 H159 0.929 . S
C138 O148 1.241 . S
C138 O149 1.273 . S
C139 O150 1.251 . S
C139 O151 1.268 . S
O140 Nd120 2.500 . S
O140 C122 1.258 . S
O141 Nd120 2.492 . S
O141 C122 1.239 . S
O142 Nd120 2.487 . S
O142 C129 1.241 . S
O143 Nd120 2.682 . S
O143 Nd121 2.414 . S
O143 C129 1.273 . S
O144 Nd120 2.410 . S
O144 C130 1.251 . S
O145 Nd121 2.424 . S
O145 C130 1.268 . S
O146 Nd121 2.500 . S
O146 C131 1.258 . S
O147 Nd121 2.492 . S
O147 C131 1.239 . S
O148 Nd121 2.487 . S
O148 C138 1.241 . S
O149 Nd120 2.414 . S
O149 Nd121 2.682 . S
O149 C138 1.273 . S
O150 Nd121 2.410 . S
O150 C139 1.251 . S
O151 Nd120 2.424 . S
O151 C139 1.268 . S
H152 C124 0.930 . S
H153 C125 0.929 . S
H154 C127 0.930 . S
H155 C128 0.929 . S
H156 C133 0.930 . S
H157 C134 0.929 . S
H158 C136 0.930 . S
H159 C137 0.929 . S
Nd160 C162 2.836 . S
Nd160 O180 2.500 . S
Nd160 O181 2.492 . S
Nd160 O182 2.487 . S
Nd160 O183 2.682 . S
Nd160 O184 2.410 . S
Nd160 O189 2.414 . S
Nd160 O191 2.424 . S
Nd161 C171 2.836 . S
Nd161 O183 2.414 . S
Nd161 O185 2.424 . S
Nd161 O186 2.500 . S
Nd161 O187 2.492 . S
Nd161 O188 2.487 . S
Nd161 O189 2.682 . S
Nd161 O190 2.410 . S
C162 Nd160 2.836 . S
C162 C163 1.498 . S
C162 O180 1.258 . S
C162 O181 1.239 . S
C163 C162 1.498 . S
C163 C164 1.366 . S
C163 C168 1.407 . S
C164 C163 1.366 . S
C164 C165 1.392 . S
C164 H192 0.930 . S
C165 C164 1.392 . S
C165 C166 1.398 . S
C165 H193 0.929 . S
C166 C165 1.398 . S
C166 C167 1.352 . S
C167 C166 1.352 . S
C167 C168 1.384 . S
C167 H194 0.930 . S
C168 C163 1.407 . S
C168 C167 1.384 . S
C168 H195 0.929 . S
C169 O182 1.241 . S
C169 O183 1.273 . S
C170 O184 1.251 . S
C170 O185 1.268 . S
C171 Nd161 2.836 . S
C171 C172 1.498 . S
C171 O186 1.258 . S
C171 O187 1.239 . S
C172 C171 1.498 . S
C172 C173 1.366 . S
C172 C177 1.407 . S
C173 C172 1.366 . S
C173 C174 1.392 . S
C173 H196 0.930 . S
C174 C173 1.392 . S
C174 C175 1.398 . S
C174 H197 0.929 . S
C175 C174 1.398 . S
C175 C176 1.352 . S
C176 C175 1.352 . S
C176 C177 1.384 . S
C176 H198 0.930 . S
C177 C172 1.407 . S
C177 C176 1.384 . S
C177 H199 0.929 . S
C178 O188 1.241 . S
C178 O189 1.273 . S
C179 O190 1.251 . S
C179 O191 1.268 . S
O180 Nd160 2.500 . S
O180 C162 1.258 . S
O181 Nd160 2.492 . S
O181 C162 1.239 . S
O182 Nd160 2.487 . S
O182 C169 1.241 . S
O183 Nd160 2.682 . S
O183 Nd161 2.414 . S
O183 C169 1.273 . S
O184 Nd160 2.410 . S
O184 C170 1.251 . S
O185 Nd161 2.424 . S
O185 C170 1.268 . S
O186 Nd161 2.500 . S
O186 C171 1.258 . S
O187 Nd161 2.492 . S
O187 C171 1.239 . S
O188 Nd161 2.487 . S
O188 C178 1.241 . S
O189 Nd160 2.414 . S
O189 Nd161 2.682 . S
O189 C178 1.273 . S
O190 Nd161 2.410 . S
O190 C179 1.251 . S
O191 Nd160 2.424 . S
O191 C179 1.268 . S
H192 C164 0.930 . S
H193 C165 0.929 . S
H194 C167 0.930 . S
H195 C168 0.929 . S
H196 C173 0.930 . S
H197 C174 0.929 . S
H198 C176 0.930 . S
H199 C177 0.929 . S
Nd200 C202 2.836 . S
Nd200 O220 2.500 . S
Nd200 O221 2.492 . S
Nd200 O222 2.487 . S
Nd200 O223 2.682 . S
Nd200 O224 2.410 . S
Nd200 O229 2.414 . S
Nd200 O231 2.424 . S
Nd201 C211 2.836 . S
Nd201 O223 2.414 . S
Nd201 O225 2.424 . S
Nd201 O226 2.500 . S
Nd201 O227 2.492 . S
Nd201 O228 2.487 . S
Nd201 O229 2.682 . S
Nd201 O230 2.410 . S
C202 Nd200 2.836 . S
C202 C203 1.498 . S
C202 O220 1.258 . S
C202 O221 1.239 . S
C203 C202 1.498 . S
C203 C204 1.366 . S
C203 C208 1.407 . S
C204 C203 1.366 . S
C204 C205 1.392 . S
C204 H232 0.930 . S
C205 C204 1.392 . S
C205 C206 1.398 . S
C205 H233 0.929 . S
C206 C205 1.398 . S
C206 C207 1.352 . S
C207 C206 1.352 . S
C207 C208 1.384 . S
C207 H234 0.930 . S
C208 C203 1.407 . S
C208 C207 1.384 . S
C208 H235 0.929 . S
C209 O222 1.241 . S
C209 O223 1.273 . S
C210 O224 1.251 . S
C210 O225 1.268 . S
C211 Nd201 2.836 . S
C211 C212 1.498 . S
C211 O226 1.258 . S
C211 O227 1.239 . S
C212 C211 1.498 . S
C212 C213 1.366 . S
C212 C217 1.407 . S
C213 C212 1.366 . S
C213 C214 1.392 1_556 S
C213 H236 0.930 . S
C214 C213 1.392 1_554 S
C214 C215 1.398 . S
C214 H237 0.929 . S
C215 C214 1.398 . S
C215 C216 1.352 . S
C216 C215 1.352 . S
C216 C217 1.384 1_554 S
C216 H238 0.930 . S
C217 C212 1.407 . S
C217 C216 1.384 1_556 S
C217 H239 0.929 . S
C218 O228 1.241 . S
C218 O229 1.273 . S
C219 O230 1.251 . S
C219 O231 1.268 . S
O220 Nd200 2.500 . S
O220 C202 1.258 . S
O221 Nd200 2.492 . S
O221 C202 1.239 . S
O222 Nd200 2.487 . S
O222 C209 1.241 . S
O223 Nd200 2.682 . S
O223 Nd201 2.414 . S
O223 C209 1.273 . S
O224 Nd200 2.410 . S
O224 C210 1.251 . S
O225 Nd201 2.424 . S
O225 C210 1.268 . S
O226 Nd201 2.500 . S
O226 C211 1.258 . S
O227 Nd201 2.492 . S
O227 C211 1.239 . S
O228 Nd201 2.487 . S
O228 C218 1.241 . S
O229 Nd200 2.414 . S
O229 Nd201 2.682 . S
O229 C218 1.273 . S
O230 Nd201 2.410 . S
O230 C219 1.251 . S
O231 Nd200 2.424 . S
O231 C219 1.268 . S
H232 C204 0.930 . S
H233 C205 0.929 . S
H234 C207 0.930 . S
H235 C208 0.929 . S
H236 C213 0.930 . S
H237 C214 0.929 . S
H238 C216 0.930 . S
H239 C217 0.929 . S
Nd240 C242 2.836 1_554 S
Nd240 O260 2.500 1_554 S
Nd240 O261 2.471 1_554 S
Nd240 O262 2.487 . S
Nd240 O263 2.682 . S
Nd240 O264 2.410 . S
Nd240 O269 2.414 . S
Nd240 O271 2.424 . S
Nd241 C251 2.836 . S
Nd241 O263 2.414 . S
Nd241 O265 2.424 . S
Nd241 O266 2.500 . S
Nd241 O267 2.492 . S
Nd241 O268 2.487 . S
Nd241 O269 2.682 . S
Nd241 O270 2.410 . S
C242 Nd240 2.836 1_556 S
C242 C243 1.498 . S
C242 O260 1.258 . S
C242 O261 1.256 . S
C243 C242 1.498 . S
C243 C244 1.366 . S
C243 C248 1.407 . S
C244 C243 1.366 . S
C244 C245 1.392 . S
C244 H272 0.930 . S
C245 C244 1.392 . S
C245 C246 1.398 . S
C245 H273 0.929 . S
C246 C245 1.398 . S
C246 C247 1.352 . S
C247 C246 1.352 . S
C247 C248 1.384 . S
C247 H274 0.930 . S
C248 C243 1.407 . S
C248 C247 1.384 . S
C248 H275 0.929 . S
C249 O262 1.241 . S
C249 O263 1.273 . S
C250 O264 1.251 . S
C250 O265 1.268 . S
C251 Nd241 2.836 . S
C251 C252 1.498 . S
C251 O266 1.258 . S
C251 O267 1.239 . S
C252 C251 1.498 . S
C252 C253 1.366 . S
C252 C257 1.407 . S
C253 C252 1.366 . S
C253 C254 1.392 . S
C253 H276 0.930 . S
C254 C253 1.392 . S
C254 C255 1.398 . S
C254 H277 0.929 . S
C255 C254 1.398 . S
C255 C256 1.352 . S
C256 C255 1.352 . S
C256 C257 1.384 . S
C256 H278 0.930 . S
C257 C252 1.407 . S
C257 C256 1.384 . S
C257 H279 0.929 . S
C258 O268 1.241 . S
C258 O269 1.273 . S
C259 O270 1.251 . S
C259 O271 1.268 . S
O260 Nd240 2.500 1_556 S
O260 C242 1.258 . S
O261 Nd240 2.471 1_556 S
O261 C242 1.256 . S
O262 Nd240 2.487 . S
O262 C249 1.241 . S
O263 Nd240 2.682 . S
O263 Nd241 2.414 . S
O263 C249 1.273 . S
O264 Nd240 2.410 . S
O264 C250 1.251 . S
O265 Nd241 2.424 . S
O265 C250 1.268 . S
O266 Nd241 2.500 . S
O266 C251 1.258 . S
O267 Nd241 2.492 . S
O267 C251 1.239 . S
O268 Nd241 2.487 . S
O268 C258 1.241 . S
O269 Nd240 2.414 . S
O269 Nd241 2.682 . S
O269 C258 1.273 . S
O270 Nd241 2.410 . S
O270 C259 1.251 . S
O271 Nd240 2.424 . S
O271 C259 1.268 . S
H272 C244 0.930 . S
H273 C245 0.929 . S
H274 C247 0.930 . S
H275 C248 0.929 . S
H276 C253 0.930 . S
H277 C254 0.929 . S
H278 C256 0.930 . S
H279 C257 0.929 . S
Nd280 C282 2.836 . S
Nd280 O300 2.500 . S
Nd280 O301 2.492 . S
Nd280 O302 2.487 . S
Nd280 O303 2.682 . S
Nd280 O304 2.410 . S
Nd280 O309 2.414 . S
Nd280 O311 2.424 . S
Nd281 C291 2.836 . S
Nd281 O303 2.414 . S
Nd281 O305 2.424 . S
Nd281 O306 2.500 . S
Nd281 O307 2.492 . S
Nd281 O308 2.487 . S
Nd281 O309 2.682 . S
Nd281 O310 2.410 . S
C282 Nd280 2.836 . S
C282 C283 1.498 . S
C282 O300 1.258 . S
C282 O301 1.239 . S
C283 C282 1.498 . S
C283 C284 1.366 . S
C283 C288 1.407 . S
C284 C283 1.366 . S
C284 C285 1.392 . S
C284 H312 0.930 . S
C285 C284 1.392 . S
C285 C286 1.398 . S
C285 H313 0.929 . S
C286 C285 1.398 . S
C286 C287 1.352 . S
C287 C286 1.352 . S
C287 C288 1.384 . S
C287 H314 0.930 . S
C288 C283 1.407 . S
C288 C287 1.384 . S
C288 H315 0.929 . S
C289 O302 1.241 . S
C289 O303 1.273 . S
C290 O304 1.251 . S
C290 O305 1.268 . S
C291 Nd281 2.836 . S
C291 C292 1.498 . S
C291 O306 1.258 . S
C291 O307 1.239 . S
C292 C291 1.498 . S
C292 C293 1.366 . S
C292 C297 1.407 . S
C293 C292 1.366 . S
C293 C294 1.392 . S
C293 H316 0.930 . S
C294 C293 1.392 . S
C294 C295 1.398 . S
C294 H317 0.929 . S
C295 C294 1.398 . S
C295 C296 1.352 . S
C296 C295 1.352 . S
C296 C297 1.384 . S
C296 H318 0.930 . S
C297 C292 1.407 . S
C297 C296 1.384 . S
C297 H319 0.929 . S
C298 O308 1.241 . S
C298 O309 1.273 . S
C299 O310 1.251 . S
C299 O311 1.268 . S
O300 Nd280 2.500 . S
O300 C282 1.258 . S
O301 Nd280 2.492 . S
O301 C282 1.239 . S
O302 Nd280 2.487 . S
O302 C289 1.241 . S
O303 Nd280 2.682 . S
O303 Nd281 2.414 . S
O303 C289 1.273 . S
O304 Nd280 2.410 . S
O304 C290 1.251 . S
O305 Nd281 2.424 . S
O305 C290 1.268 . S
O306 Nd281 2.500 . S
O306 C291 1.258 . S
O307 Nd281 2.492 . S
O307 C291 1.239 . S
O308 Nd281 2.487 . S
O308 C298 1.241 . S
O309 Nd280 2.414 . S
O309 Nd281 2.682 . S
O309 C298 1.273 . S
O310 Nd281 2.410 . S
O310 C299 1.251 . S
O311 Nd280 2.424 . S
O311 C299 1.268 . S
H312 C284 0.930 . S
H313 C285 0.929 . S
H314 C287 0.930 . S
H315 C288 0.929 . S
H316 C293 0.930 . S
H317 C294 0.929 . S
H318 C296 0.930 . S
H319 C297 0.929 . S
Nd320 C322 2.836 . S
Nd320 O340 2.500 . S
Nd320 O341 2.492 . S
Nd320 O342 2.487 . S
Nd320 O343 2.682 . S
Nd320 O344 2.410 . S
Nd320 O349 2.414 . S
Nd320 O351 2.424 . S
Nd321 C331 2.836 . S
Nd321 O343 2.414 . S
Nd321 O345 2.424 . S
Nd321 O346 2.500 . S
Nd321 O347 2.492 . S
Nd321 O348 2.487 . S
Nd321 O349 2.682 . S
Nd321 O350 2.410 . S
C322 Nd320 2.836 . S
C322 C323 1.498 . S
C322 O340 1.258 . S
C322 O341 1.239 . S
C323 C322 1.498 . S
C323 C324 1.366 . S
C323 C328 1.367 1_655 S
C324 C323 1.366 . S
C324 C325 1.392 . S
C324 H352 0.930 . S
C325 C324 1.392 . S
C325 C326 1.398 1_554 S
C325 H353 0.929 1_554 S
C326 C325 1.398 1_556 S
C326 C327 1.352 1_656 S
C327 C326 1.352 1_454 S
C327 C328 1.394 . S
C327 H354 0.939 . S
C328 C323 1.367 1_455 S
C328 C327 1.394 . S
C328 H355 0.961 . S
C329 O342 1.241 . S
C329 O343 1.273 . S
C330 O344 1.251 . S
C330 O345 1.268 . S
C331 Nd321 2.836 . S
C331 C332 1.498 . S
C331 O346 1.258 . S
C331 O347 1.239 . S
C332 C331 1.498 . S
C332 C333 1.366 . S
C332 C337 1.407 . S
C333 C332 1.366 . S
C333 C334 1.392 . S
C333 H356 0.930 . S
C334 C333 1.392 . S
C334 C335 1.398 . S
C334 H357 0.929 . S
C335 C334 1.398 . S
C335 C336 1.352 . S
C336 C335 1.352 . S
C336 C337 1.384 . S
C336 H358 0.930 . S
C337 C332 1.407 . S
C337 C336 1.384 . S
C337 H359 0.929 . S
C338 O348 1.241 . S
C338 O349 1.273 . S
C339 O350 1.251 . S
C339 O351 1.268 . S
O340 Nd320 2.500 . S
O340 C322 1.258 . S
O341 Nd320 2.492 . S
O341 C322 1.239 . S
O342 Nd320 2.487 . S
O342 C329 1.241 . S
O343 Nd320 2.682 . S
O343 Nd321 2.414 . S
O343 C329 1.273 . S
O344 Nd320 2.410 . S
O344 C330 1.251 . S
O345 Nd321 2.424 . S
O345 C330 1.268 . S
O346 Nd321 2.500 . S
O346 C331 1.258 . S
O347 Nd321 2.492 . S
O347 C331 1.239 . S
O348 Nd321 2.487 . S
O348 C338 1.241 . S
O349 Nd320 2.414 . S
O349 Nd321 2.682 . S
O349 C338 1.273 . S
O350 Nd321 2.410 . S
O350 C339 1.251 . S
O351 Nd320 2.424 . S
O351 C339 1.268 . S
H352 C324 0.930 . S
H353 C325 0.929 1_556 S
H354 C327 0.939 . S
H355 C328 0.961 . S
H356 C333 0.930 . S
H357 C334 0.929 . S
H358 C336 0.930 . S
H359 C337 0.929 . S
Nd360 C362 2.836 . S
Nd360 O380 2.500 . S
Nd360 O381 2.492 . S
Nd360 O382 2.487 . S
Nd360 O383 2.682 . S
Nd360 O384 2.410 . S
Nd360 O389 2.414 . S
Nd360 O391 2.424 . S
Nd361 C371 2.836 1_556 S
Nd361 O383 2.414 . S
Nd361 O385 2.424 . S
Nd361 O386 2.500 1_556 S
Nd361 O387 2.492 1_556 S
Nd361 O388 2.487 . S
Nd361 O389 2.682 . S
Nd361 O390 2.410 1_556 S
C362 Nd360 2.836 . S
C362 C363 1.498 . S
C362 O380 1.258 . S
C362 O381 1.239 . S
C363 C362 1.498 . S
C363 C364 1.366 . S
C363 C368 1.407 . S
C364 C363 1.366 . S
C364 C365 1.392 . S
C364 H392 0.930 . S
C365 C364 1.392 . S
C365 C366 1.398 . S
C365 H393 0.929 . S
C366 C365 1.398 . S
C366 C367 1.352 . S
C367 C366 1.352 . S
C367 C368 1.384 . S
C367 H394 0.930 . S
C368 C363 1.407 . S
C368 C367 1.384 . S
C368 H395 0.929 . S
C369 O382 1.241 . S
C369 O383 1.273 . S
C370 O384 1.251 . S
C370 O385 1.268 . S
C371 Nd361 2.836 1_554 S
C371 C372 1.498 . S
C371 O386 1.258 . S
C371 O387 1.239 . S
C372 C371 1.498 . S
C372 C373 1.366 . S
C372 C377 1.407 . S
C373 C372 1.366 . S
C373 C374 1.392 . S
C373 H396 0.930 . S
C374 C373 1.392 . S
C374 C375 1.398 . S
C374 H397 0.929 . S
C375 C374 1.398 . S
C375 C376 1.352 . S
C376 C375 1.352 . S
C376 C377 1.384 . S
C376 H398 0.930 . S
C377 C372 1.407 . S
C377 C376 1.384 . S
C377 H399 0.929 . S
C378 O388 1.241 . S
C378 O389 1.273 . S
C379 O390 1.251 . S
C379 O391 1.268 1_554 S
O380 Nd360 2.500 . S
O380 C362 1.258 . S
O381 Nd360 2.492 . S
O381 C362 1.239 . S
O382 Nd360 2.487 . S
O382 C369 1.241 . S
O383 Nd360 2.682 . S
O383 Nd361 2.414 . S
O383 C369 1.273 . S
O384 Nd360 2.410 . S
O384 C370 1.251 . S
O385 Nd361 2.424 . S
O385 C370 1.268 . S
O386 Nd361 2.500 1_554 S
O386 C371 1.258 . S
O387 Nd361 2.492 1_554 S
O387 C371 1.239 . S
O388 Nd361 2.487 . S
O388 C378 1.241 . S
O389 Nd360 2.414 . S
O389 Nd361 2.682 . S
O389 C378 1.273 . S
O390 Nd361 2.410 1_554 S
O390 C379 1.251 . S
O391 Nd360 2.424 . S
O391 C379 1.268 1_556 S
H392 C364 0.930 . S
H393 C365 0.929 . S
H394 C367 0.930 . S
H395 C368 0.929 . S
H396 C373 0.930 . S
H397 C374 0.929 . S
H398 C376 0.930 . S
H399 C377 0.929 . S
Nd400 C402 2.836 . S
Nd400 O420 2.500 . S
Nd400 O421 2.492 . S
Nd400 O422 2.487 . S
Nd400 O423 2.682 . S
Nd400 O424 2.410 . S
Nd400 O429 2.414 . S
Nd400 O431 2.424 . S
Nd401 C411 2.836 . S
Nd401 O423 2.414 . S
Nd401 O425 2.424 . S
Nd401 O426 2.500 . S
Nd401 O427 2.492 . S
Nd401 O428 2.487 . S
Nd401 O429 2.682 . S
Nd401 O430 2.410 . S
C402 Nd400 2.836 . S
C402 C403 1.498 . S
C402 O420 1.258 . S
C402 O421 1.239 . S
C403 C402 1.498 . S
C403 C404 1.366 . S
C403 C408 1.407 . S
C404 C403 1.366 . S
C404 C405 1.392 . S
C404 H432 0.930 . S
C405 C404 1.392 . S
C405 C406 1.398 . S
C405 H433 0.929 . S
C406 C405 1.398 . S
C406 C407 1.352 . S
C407 C406 1.352 . S
C407 C408 1.384 . S
C407 H434 0.930 . S
C408 C403 1.407 . S
C408 C407 1.384 . S
C408 H435 0.929 . S
C409 O422 1.241 . S
C409 O423 1.273 . S
C410 O424 1.251 . S
C410 O425 1.268 . S
C411 Nd401 2.836 . S
C411 C412 1.498 . S
C411 O426 1.258 . S
C411 O427 1.239 . S
C412 C411 1.498 . S
C412 C413 1.366 . S
C412 C417 1.407 . S
C413 C412 1.366 . S
C413 C414 1.392 . S
C413 H436 0.930 . S
C414 C413 1.392 . S
C414 C415 1.398 . S
C414 H437 0.929 . S
C415 C414 1.398 . S
C415 C416 1.352 . S
C416 C415 1.352 . S
C416 C417 1.384 . S
C416 H438 0.930 . S
C417 C412 1.407 . S
C417 C416 1.384 . S
C417 H439 0.929 . S
C418 O428 1.241 . S
C418 O429 1.273 . S
C419 O430 1.251 . S
C419 O431 1.268 . S
O420 Nd400 2.500 . S
O420 C402 1.258 . S
O421 Nd400 2.492 . S
O421 C402 1.239 . S
O422 Nd400 2.487 . S
O422 C409 1.241 . S
O423 Nd400 2.682 . S
O423 Nd401 2.414 . S
O423 C409 1.273 . S
O424 Nd400 2.410 . S
O424 C410 1.251 . S
O425 Nd401 2.424 . S
O425 C410 1.268 . S
O426 Nd401 2.500 . S
O426 C411 1.258 . S
O427 Nd401 2.492 . S
O427 C411 1.239 . S
O428 Nd401 2.487 . S
O428 C418 1.241 . S
O429 Nd400 2.414 . S
O429 Nd401 2.682 . S
O429 C418 1.273 . S
O430 Nd401 2.410 . S
O430 C419 1.251 . S
O431 Nd400 2.424 . S
O431 C419 1.268 . S
H432 C404 0.930 . S
H433 C405 0.929 . S
H434 C407 0.930 . S
H435 C408 0.929 . S
H436 C413 0.930 . S
H437 C414 0.929 . S
H438 C416 0.930 . S
H439 C417 0.929 . S
Nd440 C442 2.836 . S
Nd440 O460 2.500 . S
Nd440 O461 2.492 . S
Nd440 O462 2.487 . S
Nd440 O463 2.682 . S
Nd440 O464 2.410 . S
Nd440 O469 2.414 . S
Nd440 O471 2.424 . S
Nd441 C451 2.836 . S
Nd441 O463 2.414 . S
Nd441 O465 2.424 . S
Nd441 O466 2.500 . S
Nd441 O467 2.492 . S
Nd441 O468 2.487 . S
Nd441 O469 2.682 . S
Nd441 O470 2.410 . S
C442 Nd440 2.836 . S
C442 C443 1.498 . S
C442 O460 1.258 . S
C442 O461 1.239 . S
C443 C442 1.498 . S
C443 C444 1.366 . S
C443 C448 1.407 . S
C444 C443 1.366 . S
C444 C445 1.392 . S
C444 H472 0.930 . S
C445 C444 1.392 . S
C445 C446 1.398 . S
C445 H473 0.929 . S
C446 C445 1.398 . S
C446 C447 1.352 . S
C447 C446 1.352 . S
C447 C448 1.384 . S
C447 H474 0.930 . S
C448 C443 1.407 . S
C448 C447 1.384 . S
C448 H475 0.929 . S
C449 O462 1.241 . S
C449 O463 1.273 . S
C450 O464 1.251 . S
C450 O465 1.268 . S
C451 Nd441 2.836 . S
C451 C452 1.498 . S
C451 O466 1.258 . S
C451 O467 1.239 . S
C452 C451 1.498 . S
C452 C453 1.366 . S
C452 C457 1.407 . S
C453 C452 1.366 . S
C453 C454 1.392 . S
C453 H476 0.930 . S
C454 C453 1.392 . S
C454 C455 1.398 . S
C454 H477 0.929 . S
C455 C454 1.398 . S
C455 C456 1.352 . S
C456 C455 1.352 . S
C456 C457 1.384 . S
C456 H478 0.930 . S
C457 C452 1.407 . S
C457 C456 1.384 . S
C457 H479 0.929 . S
C458 O468 1.241 . S
C458 O469 1.273 . S
C459 O470 1.251 . S
C459 O471 1.268 . S
O460 Nd440 2.500 . S
O460 C442 1.258 . S
O461 Nd440 2.492 . S
O461 C442 1.239 . S
O462 Nd440 2.487 . S
O462 C449 1.241 . S
O463 Nd440 2.682 . S
O463 Nd441 2.414 . S
O463 C449 1.273 . S
O464 Nd440 2.410 . S
O464 C450 1.251 . S
O465 Nd441 2.424 . S
O465 C450 1.268 . S
O466 Nd441 2.500 . S
O466 C451 1.258 . S
O467 Nd441 2.492 . S
O467 C451 1.239 . S
O468 Nd441 2.487 . S
O468 C458 1.241 . S
O469 Nd440 2.414 . S
O469 Nd441 2.682 . S
O469 C458 1.273 . S
O470 Nd441 2.410 . S
O470 C459 1.251 . S
O471 Nd440 2.424 . S
O471 C459 1.268 . S
H472 C444 0.930 . S
H473 C445 0.929 . S
H474 C447 0.930 . S
H475 C448 0.929 . S
H476 C453 0.930 . S
H477 C454 0.929 . S
H478 C456 0.930 . S
H479 C457 0.929 . S
Nd480 C482 2.836 . S
Nd480 O500 2.500 . S
Nd480 O501 2.492 . S
Nd480 O502 2.487 . S
Nd480 O503 2.682 . S
Nd480 O504 2.410 . S
Nd480 O509 2.414 . S
Nd480 O511 2.424 . S
Nd481 C491 2.836 . S
Nd481 O503 2.414 . S
Nd481 O505 2.424 . S
Nd481 O506 2.500 . S
Nd481 O507 2.492 . S
Nd481 O508 2.487 . S
Nd481 O509 2.682 . S
Nd481 O510 2.410 . S
C482 Nd480 2.836 . S
C482 C483 1.498 . S
C482 O500 1.258 . S
C482 O501 1.239 . S
C483 C482 1.498 . S
C483 C484 1.366 . S
C483 C488 1.407 . S
C484 C483 1.366 . S
C484 C485 1.392 . S
C484 H512 0.930 . S
C485 C484 1.392 . S
C485 C486 1.398 . S
C485 H513 0.929 . S
C486 C485 1.398 . S
C486 C487 1.352 . S
C487 C486 1.352 . S
C487 C488 1.384 . S
C487 H514 0.930 . S
C488 C483 1.407 . S
C488 C487 1.384 . S
C488 H515 0.929 . S
C489 O502 1.241 . S
C489 O503 1.273 . S
C490 O504 1.251 . S
C490 O505 1.268 . S
C491 Nd481 2.836 . S
C491 C492 1.498 . S
C491 O506 1.258 . S
C491 O507 1.239 . S
C492 C491 1.498 . S
C492 C493 1.366 . S
C492 C497 1.407 . S
C493 C492 1.366 . S
C493 C494 1.392 . S
C493 H516 0.930 . S
C494 C493 1.392 . S
C494 C495 1.398 . S
C494 H517 0.929 . S
C495 C494 1.398 . S
C495 C496 1.352 . S
C496 C495 1.352 . S
C496 C497 1.384 . S
C496 H518 0.930 . S
C497 C492 1.407 . S
C497 C496 1.384 . S
C497 H519 0.929 . S
C498 O508 1.241 . S
C498 O509 1.273 . S
C499 O510 1.251 . S
C499 O511 1.268 . S
O500 Nd480 2.500 . S
O500 C482 1.258 . S
O501 Nd480 2.492 . S
O501 C482 1.239 . S
O502 Nd480 2.487 . S
O502 C489 1.241 . S
O503 Nd480 2.682 . S
O503 Nd481 2.414 . S
O503 C489 1.273 . S
O504 Nd480 2.410 . S
O504 C490 1.251 . S
O505 Nd481 2.424 . S
O505 C490 1.268 . S
O506 Nd481 2.500 . S
O506 C491 1.258 . S
O507 Nd481 2.492 . S
O507 C491 1.239 . S
O508 Nd481 2.487 . S
O508 C498 1.241 . S
O509 Nd480 2.414 . S
O509 Nd481 2.682 . S
O509 C498 1.273 . S
O510 Nd481 2.410 . S
O510 C499 1.251 . S
O511 Nd480 2.424 . S
O511 C499 1.268 . S
H512 C484 0.930 . S
H513 C485 0.929 . S
H514 C487 0.930 . S
H515 C488 0.929 . S
H516 C493 0.930 . S
H517 C494 0.929 . S
H518 C496 0.930 . S
H519 C497 0.929 . S
Nd520 C522 2.836 . S
Nd520 O540 2.500 . S
Nd520 O541 2.492 . S
Nd520 O542 2.487 . S
Nd520 O543 2.682 . S
Nd520 O544 2.410 . S
Nd520 O549 2.414 . S
Nd520 O551 2.424 . S
Nd521 C531 2.836 . S
Nd521 O543 2.414 . S
Nd521 O545 2.424 . S
Nd521 O546 2.500 . S
Nd521 O547 2.492 . S
Nd521 O548 2.487 . S
Nd521 O549 2.682 . S
Nd521 O550 2.410 . S
C522 Nd520 2.836 . S
C522 C523 1.498 . S
C522 O540 1.258 . S
C522 O541 1.239 . S
C523 C522 1.498 . S
C523 C524 1.366 . S
C523 C528 1.407 . S
C524 C523 1.366 . S
C524 C525 1.392 . S
C524 H552 0.930 . S
C525 C524 1.392 . S
C525 C526 1.398 . S
C525 H553 0.929 . S
C526 C525 1.398 . S
C526 C527 1.352 . S
C527 C526 1.352 . S
C527 C528 1.384 . S
C527 H554 0.930 . S
C528 C523 1.407 . S
C528 C527 1.384 . S
C528 H555 0.929 . S
C529 O542 1.241 . S
C529 O543 1.273 . S
C530 O544 1.251 . S
C530 O545 1.268 . S
C531 Nd521 2.836 . S
C531 C532 1.498 . S
C531 O546 1.258 . S
C531 O547 1.239 . S
C532 C531 1.498 . S
C532 C533 1.366 . S
C532 C537 1.407 . S
C533 C532 1.366 . S
C533 C534 1.392 . S
C533 H556 0.930 . S
C534 C533 1.392 . S
C534 C535 1.398 . S
C534 H557 0.929 . S
C535 C534 1.398 . S
C535 C536 1.352 . S
C536 C535 1.352 . S
C536 C537 1.384 . S
C536 H558 0.930 . S
C537 C532 1.407 . S
C537 C536 1.384 . S
C537 H559 0.929 . S
C538 O548 1.241 . S
C538 O549 1.273 . S
C539 O550 1.251 . S
C539 O551 1.268 . S
O540 Nd520 2.500 . S
O540 C522 1.258 . S
O541 Nd520 2.492 . S
O541 C522 1.239 . S
O542 Nd520 2.487 . S
O542 C529 1.241 . S
O543 Nd520 2.682 . S
O543 Nd521 2.414 . S
O543 C529 1.273 . S
O544 Nd520 2.410 . S
O544 C530 1.251 . S
O545 Nd521 2.424 . S
O545 C530 1.268 . S
O546 Nd521 2.500 . S
O546 C531 1.258 . S
O547 Nd521 2.492 . S
O547 C531 1.239 . S
O548 Nd521 2.487 . S
O548 C538 1.241 . S
O549 Nd520 2.414 . S
O549 Nd521 2.682 . S
O549 C538 1.273 . S
O550 Nd521 2.410 . S
O550 C539 1.251 . S
O551 Nd520 2.424 . S
O551 C539 1.268 . S
H552 C524 0.930 . S
H553 C525 0.929 . S
H554 C527 0.930 . S
H555 C528 0.929 . S
H556 C533 0.930 . S
H557 C534 0.929 . S
H558 C536 0.930 . S
H559 C537 0.929 . S
Nd560 C562 2.836 . S
Nd560 O580 2.500 . S
Nd560 O581 2.492 . S
Nd560 O582 2.487 . S
Nd560 O583 2.682 . S
Nd560 O584 2.410 . S
Nd560 O589 2.414 . S
Nd560 O591 2.424 . S
Nd561 C571 2.836 . S
Nd561 O583 2.414 . S
Nd561 O585 2.424 . S
Nd561 O586 2.500 . S
Nd561 O587 2.492 . S
Nd561 O588 2.487 . S
Nd561 O589 2.682 . S
Nd561 O590 2.410 . S
C562 Nd560 2.836 . S
C562 C563 1.498 . S
C562 O580 1.258 . S
C562 O581 1.239 . S
C563 C562 1.498 . S
C563 C564 1.366 . S
C563 C568 1.407 . S
C564 C563 1.366 . S
C564 C565 1.392 . S
C564 H592 0.930 . S
C565 C564 1.392 . S
C565 C566 1.398 . S
C565 H593 0.929 . S
C566 C565 1.398 . S
C566 C567 1.352 . S
C567 C566 1.352 . S
C567 C568 1.384 . S
C567 H594 0.930 . S
C568 C563 1.407 . S
C568 C567 1.384 . S
C568 H595 0.929 . S
C569 O582 1.241 . S
C569 O583 1.273 . S
C570 O584 1.251 . S
C570 O585 1.268 . S
C571 Nd561 2.836 . S
C571 C572 1.498 . S
C571 O586 1.258 . S
C571 O587 1.239 . S
C572 C571 1.498 . S
C572 C573 1.366 . S
C572 C577 1.407 . S
C573 C572 1.366 . S
C573 C574 1.392 . S
C573 H596 0.930 . S
C574 C573 1.392 . S
C574 C575 1.398 . S
C574 H597 0.929 . S
C575 C574 1.398 . S
C575 C576 1.352 . S
C576 C575 1.352 . S
C576 C577 1.384 . S
C576 H598 0.930 . S
C577 C572 1.407 . S
C577 C576 1.384 . S
C577 H599 0.929 . S
C578 O588 1.241 . S
C578 O589 1.273 . S
C579 O590 1.251 . S
C579 O591 1.268 . S
O580 Nd560 2.500 . S
O580 C562 1.258 . S
O581 Nd560 2.492 . S
O581 C562 1.239 . S
O582 Nd560 2.487 . S
O582 C569 1.241 . S
O583 Nd560 2.682 . S
O583 Nd561 2.414 . S
O583 C569 1.273 . S
O584 Nd560 2.410 . S
O584 C570 1.251 . S
O585 Nd561 2.424 . S
O585 C570 1.268 . S
O586 Nd561 2.500 . S
O586 C571 1.258 . S
O587 Nd561 2.492 . S
O587 C571 1.239 . S
O588 Nd561 2.487 . S
O588 C578 1.241 . S
O589 Nd560 2.414 . S
O589 Nd561 2.682 . S
O589 C578 1.273 . S
O590 Nd561 2.410 . S
O590 C579 1.251 . S
O591 Nd560 2.424 . S
O591 C579 1.268 . S
H592 C564 0.930 . S
H593 C565 0.929 . S
H594 C567 0.930 . S
H595 C568 0.929 . S
H596 C573 0.930 . S
H597 C574 0.929 . S
H598 C576 0.930 . S
H599 C577 0.929 . S
Nd600 C602 2.836 . S
Nd600 O620 2.500 . S
Nd600 O621 2.492 . S
Nd600 O622 2.487 . S
Nd600 O623 2.682 1_556 S
Nd600 O624 2.410 . S
Nd600 O629 2.414 . S
Nd600 O631 2.424 1_556 S
Nd601 C611 2.836 . S
Nd601 O623 2.414 . S
Nd601 O625 2.424 1_554 S
Nd601 O626 2.500 . S
Nd601 O627 2.492 . S
Nd601 O628 2.487 . S
Nd601 O629 2.682 1_554 S
Nd601 O630 2.410 . S
C602 Nd600 2.836 . S
C602 C603 1.498 . S
C602 O620 1.258 . S
C602 O621 1.239 . S
C603 C602 1.498 . S
C603 C604 1.366 . S
C603 C608 1.407 . S
C604 C603 1.366 . S
C604 C605 1.392 . S
C604 H632 0.930 . S
C605 C604 1.392 . S
C605 C606 1.398 . S
C605 H633 0.929 . S
C606 C605 1.398 . S
C606 C607 1.352 . S
C607 C606 1.352 . S
C607 C608 1.384 . S
C607 H634 0.930 . S
C608 C603 1.407 . S
C608 C607 1.384 . S
C608 H635 0.929 . S
C609 O622 1.241 1_554 S
C609 O623 1.273 . S
C610 O624 1.251 . S
C610 O625 1.268 . S
C611 Nd601 2.836 . S
C611 C612 1.498 . S
C611 O626 1.258 . S
C611 O627 1.239 . S
C612 C611 1.498 . S
C612 C613 1.366 . S
C612 C617 1.407 . S
C613 C612 1.366 . S
C613 C614 1.392 . S
C613 H636 0.930 . S
C614 C613 1.392 . S
C614 C615 1.398 . S
C614 H637 0.929 . S
C615 C614 1.398 . S
C615 C616 1.352 . S
C616 C615 1.352 . S
C616 C617 1.384 . S
C616 H638 0.930 . S
C617 C612 1.407 . S
C617 C616 1.384 . S
C617 H639 0.929 . S
C618 O628 1.241 1_556 S
C618 O629 1.273 . S
C619 O630 1.251 . S
C619 O631 1.268 . S
O620 Nd600 2.500 . S
O620 C602 1.258 . S
O621 Nd600 2.492 . S
O621 C602 1.239 . S
O622 Nd600 2.487 . S
O622 C609 1.241 1_556 S
O623 Nd600 2.682 1_554 S
O623 Nd601 2.414 . S
O623 C609 1.273 . S
O624 Nd600 2.410 . S
O624 C610 1.251 . S
O625 Nd601 2.424 1_556 S
O625 C610 1.268 . S
O626 Nd601 2.500 . S
O626 C611 1.258 . S
O627 Nd601 2.492 . S
O627 C611 1.239 . S
O628 Nd601 2.487 . S
O628 C618 1.241 1_554 S
O629 Nd600 2.414 . S
O629 Nd601 2.682 1_556 S
O629 C618 1.273 . S
O630 Nd601 2.410 . S
O630 C619 1.251 . S
O631 Nd600 2.424 1_554 S
O631 C619 1.268 . S
H632 C604 0.930 . S
H633 C605 0.929 . S
H634 C607 0.930 . S
H635 C608 0.929 . S
H636 C613 0.930 . S
H637 C614 0.929 . S
H638 C616 0.930 . S
H639 C617 0.929 . S
Nd640 C642 2.836 . S
Nd640 O660 2.500 . S
Nd640 O661 2.492 . S
Nd640 O662 2.487 . S
Nd640 O663 2.682 . S
Nd640 O664 2.410 . S
Nd640 O669 2.414 . S
Nd640 O671 2.424 . S
Nd641 C651 2.836 . S
Nd641 O663 2.414 . S
Nd641 O665 2.424 . S
Nd641 O666 2.500 . S
Nd641 O667 2.492 . S
Nd641 O668 2.487 . S
Nd641 O669 2.682 . S
Nd641 O670 2.410 . S
C642 Nd640 2.836 . S
C642 C643 1.498 . S
C642 O660 1.258 . S
C642 O661 1.239 . S
C643 C642 1.498 . S
C643 C644 1.366 . S
C643 C648 1.407 . S
C644 C643 1.366 . S
C644 C645 1.392 . S
C644 H672 0.930 . S
C645 C644 1.392 . S
C645 C646 1.398 . S
C645 H673 0.929 . S
C646 C645 1.398 . S
C646 C647 1.352 . S
C647 C646 1.352 . S
C647 C648 1.384 . S
C647 H674 0.930 . S
C648 C643 1.407 . S
C648 C647 1.384 . S
C648 H675 0.929 . S
C649 O662 1.241 . S
C649 O663 1.273 . S
C650 O664 1.251 . S
C650 O665 1.268 . S
C651 Nd641 2.836 . S
C651 C652 1.498 . S
C651 O666 1.258 . S
C651 O667 1.239 . S
C652 C651 1.498 . S
C652 C653 1.366 . S
C652 C657 1.407 . S
C653 C652 1.366 . S
C653 C654 1.392 . S
C653 H676 0.930 . S
C654 C653 1.392 . S
C654 C655 1.398 . S
C654 H677 0.929 . S
C655 C654 1.398 . S
C655 C656 1.352 . S
C656 C655 1.352 . S
C656 C657 1.384 . S
C656 H678 0.930 . S
C657 C652 1.407 . S
C657 C656 1.384 . S
C657 H679 0.929 . S
C658 O668 1.241 . S
C658 O669 1.273 . S
C659 O670 1.251 . S
C659 O671 1.268 . S
O660 Nd640 2.500 . S
O660 C642 1.258 . S
O661 Nd640 2.492 . S
O661 C642 1.239 . S
O662 Nd640 2.487 . S
O662 C649 1.241 . S
O663 Nd640 2.682 . S
O663 Nd641 2.414 . S
O663 C649 1.273 . S
O664 Nd640 2.410 . S
O664 C650 1.251 . S
O665 Nd641 2.424 . S
O665 C650 1.268 . S
O666 Nd641 2.500 . S
O666 C651 1.258 . S
O667 Nd641 2.492 . S
O667 C651 1.239 . S
O668 Nd641 2.487 . S
O668 C658 1.241 . S
O669 Nd640 2.414 . S
O669 Nd641 2.682 . S
O669 C658 1.273 . S
O670 Nd641 2.410 . S
O670 C659 1.251 . S
O671 Nd640 2.424 . S
O671 C659 1.268 . S
H672 C644 0.930 . S
H673 C645 0.929 . S
H674 C647 0.930 . S
H675 C648 0.929 . S
H676 C653 0.930 . S
H677 C654 0.929 . S
H678 C656 0.930 . S
H679 C657 0.929 . S
Nd680 C682 2.836 . S
Nd680 O700 2.500 . S
Nd680 O701 2.492 . S
Nd680 O702 2.487 . S
Nd680 O703 2.682 . S
Nd680 O704 2.410 . S
Nd680 O709 2.414 . S
Nd680 O711 2.424 . S
Nd681 C691 2.836 . S
Nd681 O703 2.414 . S
Nd681 O705 2.424 . S
Nd681 O706 2.500 . S
Nd681 O707 2.492 . S
Nd681 O708 2.487 . S
Nd681 O709 2.682 . S
Nd681 O710 2.410 . S
C682 Nd680 2.836 . S
C682 C683 1.498 . S
C682 O700 1.258 . S
C682 O701 1.239 . S
C683 C682 1.498 . S
C683 C684 1.366 . S
C683 C688 1.407 . S
C684 C683 1.366 . S
C684 C685 1.392 . S
C684 H712 0.930 . S
C685 C684 1.392 . S
C685 C686 1.398 . S
C685 H713 0.929 . S
C686 C685 1.398 . S
C686 C687 1.352 . S
C687 C686 1.352 . S
C687 C688 1.384 . S
C687 H714 0.930 . S
C688 C683 1.407 . S
C688 C687 1.384 . S
C688 H715 0.929 . S
C689 O702 1.241 . S
C689 O703 1.273 . S
C690 O704 1.251 . S
C690 O705 1.268 . S
C691 Nd681 2.836 . S
C691 C692 1.498 1_556 S
C691 O706 1.258 . S
C691 O707 1.239 . S
C692 C691 1.498 1_554 S
C692 C693 1.366 . S
C692 C697 1.407 . S
C693 C692 1.366 . S
C693 C694 1.392 . S
C693 H716 0.930 . S
C694 C693 1.392 . S
C694 C695 1.398 . S
C694 H717 0.929 . S
C695 C694 1.398 . S
C695 C696 1.352 . S
C696 C695 1.352 . S
C696 C697 1.384 . S
C696 H718 0.930 . S
C697 C692 1.407 . S
C697 C696 1.384 . S
C697 H719 0.929 . S
C698 O708 1.241 . S
C698 O709 1.273 . S
C699 O710 1.251 . S
C699 O711 1.268 . S
O700 Nd680 2.500 . S
O700 C682 1.258 . S
O701 Nd680 2.492 . S
O701 C682 1.239 . S
O702 Nd680 2.487 . S
O702 C689 1.241 . S
O703 Nd680 2.682 . S
O703 Nd681 2.414 . S
O703 C689 1.273 . S
O704 Nd680 2.410 . S
O704 C690 1.251 . S
O705 Nd681 2.424 . S
O705 C690 1.268 . S
O706 Nd681 2.500 . S
O706 C691 1.258 . S
O707 Nd681 2.492 . S
O707 C691 1.239 . S
O708 Nd681 2.487 . S
O708 C698 1.241 . S
O709 Nd680 2.414 . S
O709 Nd681 2.682 . S
O709 C698 1.273 . S
O710 Nd681 2.410 . S
O710 C699 1.251 . S
O711 Nd680 2.424 . S
O711 C699 1.268 . S
H712 C684 0.930 . S
H713 C685 0.929 . S
H714 C687 0.930 . S
H715 C688 0.929 . S
H716 C693 0.930 . S
H717 C694 0.929 . S
H718 C696 0.930 . S
H719 C697 0.929 . S
Nd720 C722 2.836 . S
Nd720 O740 2.500 . S
Nd720 O741 2.492 . S
Nd720 O742 2.487 . S
Nd720 O743 2.682 . S
Nd720 O744 2.410 . S
Nd720 O749 2.414 . S
Nd720 O751 2.424 . S
Nd721 C731 2.836 . S
Nd721 O743 2.414 . S
Nd721 O745 2.424 . S
Nd721 O746 2.500 . S
Nd721 O747 2.492 . S
Nd721 O748 2.487 . S
Nd721 O749 2.682 . S
Nd721 O750 2.410 . S
C722 Nd720 2.836 . S
C722 C723 1.498 1_554 S
C722 O740 1.258 . S
C722 O741 1.239 . S
C723 C722 1.498 1_556 S
C723 C724 1.366 . S
C723 C728 1.407 . S
C724 C723 1.366 . S
C724 C725 1.392 . S
C724 H752 0.930 . S
C725 C724 1.392 . S
C725 C726 1.398 . S
C725 H753 0.929 . S
C726 C725 1.398 . S
C726 C727 1.352 . S
C727 C726 1.352 . S
C727 C728 1.384 . S
C727 H754 0.930 . S
C728 C723 1.407 . S
C728 C727 1.384 . S
C728 H755 0.929 . S
C729 O742 1.241 . S
C729 O743 1.273 . S
C730 O744 1.251 . S
C730 O745 1.268 . S
C731 Nd721 2.836 . S
C731 C732 1.498 . S
C731 O746 1.258 . S
C731 O747 1.239 . S
C732 C731 1.498 . S
C732 C733 1.366 . S
C732 C737 1.367 1_655 S
C733 C732 1.366 . S
C733 C734 1.392 . S
C733 H756 0.930 . S
C734 C733 1.392 . S
C734 C735 1.398 . S
C734 H757 0.929 . S
C735 C734 1.398 . S
C735 C736 1.352 1_655 S
C736 C735 1.352 1_455 S
C736 C737 1.394 . S
C736 H758 0.930 . S
C737 C732 1.367 1_455 S
C737 C736 1.394 . S
C737 H759 0.961 . S
C738 O748 1.241 . S
C738 O749 1.273 . S
C739 O750 1.251 . S
C739 O751 1.268 . S
O740 Nd720 2.500 . S
O740 C722 1.258 . S
O741 Nd720 2.492 . S
O741 C722 1.239 . S
O742 Nd720 2.487 . S
O742 C729 1.241 . S
O743 Nd720 2.682 . S
O743 Nd721 2.414 . S
O743 C729 1.273 . S
O744 Nd720 2.410 . S
O744 C730 1.251 . S
O745 Nd721 2.424 . S
O745 C730 1.268 . S
O746 Nd721 2.500 . S
O746 C731 1.258 . S
O747 Nd721 2.492 . S
O747 C731 1.239 . S
O748 Nd721 2.487 . S
O748 C738 1.241 . S
O749 Nd720 2.414 . S
O749 Nd721 2.682 . S
O749 C738 1.273 . S
O750 Nd721 2.410 . S
O750 C739 1.251 . S
O751 Nd720 2.424 . S
O751 C739 1.268 . S
H752 C724 0.930 . S
H753 C725 0.929 . S
H754 C727 0.930 . S
H755 C728 0.929 . S
H756 C733 0.930 . S
H757 C734 0.929 . S
H758 C736 0.930 . S
H759 C737 0.961 . S
Nd760 C762 2.836 . S
Nd760 O780 2.500 . S
Nd760 O781 2.492 . S
Nd760 O782 2.487 . S
Nd760 O783 2.682 . S
Nd760 O784 2.410 . S
Nd760 O789 2.414 . S
Nd760 O791 2.424 . S
Nd761 C771 2.836 . S
Nd761 O783 2.414 . S
Nd761 O785 2.424 . S
Nd761 O786 2.500 . S
Nd761 O787 2.492 . S
Nd761 O788 2.487 . S
Nd761 O789 2.682 . S
Nd761 O790 2.410 . S
C762 Nd760 2.836 . S
C762 C763 1.498 . S
C762 O780 1.258 . S
C762 O781 1.239 . S
C763 C762 1.498 . S
C763 C764 1.366 . S
C763 C768 1.407 . S
C764 C763 1.366 . S
C764 C765 1.392 . S
C764 H792 0.930 . S
C765 C764 1.392 . S
C765 C766 1.398 . S
C765 H793 0.929 . S
C766 C765 1.398 . S
C766 C767 1.352 . S
C767 C766 1.352 . S
C767 C768 1.384 . S
C767 H794 0.930 . S
C768 C763 1.407 . S
C768 C767 1.384 . S
C768 H795 0.929 . S
C769 O782 1.241 . S
C769 O783 1.273 . S
C770 O784 1.251 . S
C770 O785 1.268 . S
C771 Nd761 2.836 . S
C771 C772 1.498 . S
C771 O786 1.258 . S
C771 O787 1.239 . S
C772 C771 1.498 . S
C772 C773 1.366 . S
C772 C777 1.407 . S
C773 C772 1.366 . S
C773 C774 1.392 . S
C773 H796 0.930 . S
C774 C773 1.392 . S
C774 C775 1.398 . S
C774 H797 0.929 . S
C775 C774 1.398 . S
C775 C776 1.352 . S
C776 C775 1.352 . S
C776 C777 1.384 . S
C776 H798 0.930 . S
C777 C772 1.407 . S
C777 C776 1.384 . S
C777 H799 0.929 . S
C778 O788 1.241 . S
C778 O789 1.273 . S
C779 O790 1.251 . S
C779 O791 1.268 . S
O780 Nd760 2.500 . S
O780 C762 1.258 . S
O781 Nd760 2.492 . S
O781 C762 1.239 . S
O782 Nd760 2.487 . S
O782 C769 1.241 . S
O783 Nd760 2.682 . S
O783 Nd761 2.414 . S
O783 C769 1.273 . S
O784 Nd760 2.410 . S
O784 C770 1.251 . S
O785 Nd761 2.424 . S
O785 C770 1.268 . S
O786 Nd761 2.500 . S
O786 C771 1.258 . S
O787 Nd761 2.492 . S
O787 C771 1.239 . S
O788 Nd761 2.487 . S
O788 C778 1.241 . S
O789 Nd760 2.414 . S
O789 Nd761 2.682 . S
O789 C778 1.273 . S
O790 Nd761 2.410 . S
O790 C779 1.251 . S
O791 Nd760 2.424 . S
O791 C779 1.268 . S
H792 C764 0.930 . S
H793 C765 0.929 . S
H794 C767 0.930 . S
H795 C768 0.929 . S
H796 C773 0.930 . S
H797 C774 0.929 . S
H798 C776 0.930 . S
H799 C777 0.929 . S
Nd800 C802 2.836 1_554 S
Nd800 O820 2.500 1_554 S
Nd800 O821 2.471 1_544 S
Nd800 O822 2.487 1_545 S
Nd800 O823 2.682 . S
Nd800 O824 2.410 . S
Nd800 O829 2.414 . S
Nd800 O831 2.424 . S
Nd801 C811 2.836 . S
Nd801 O823 2.414 . S
Nd801 O825 2.424 . S
Nd801 O826 2.500 . S
Nd801 O827 2.492 . S
Nd801 O828 2.487 . S
Nd801 O829 2.682 . S
Nd801 O830 2.410 . S
C802 Nd800 2.836 1_556 S
C802 C803 1.498 1_545 S
C802 O820 1.258 . S
C802 O821 1.256 1_545 S
C803 C802 1.498 1_565 S
C803 C804 1.366 1_565 S
C803 C808 1.407 . S
C804 C803 1.366 1_545 S
C804 C805 1.392 . S
C804 H832 0.930 . S
C805 C804 1.392 . S
C805 C806 1.398 1_545 S
C805 H833 0.929 . S
C806 C805 1.398 1_565 S
C806 C807 1.352 . S
C807 C806 1.352 . S
C807 C808 1.384 . S
C807 H834 0.930 . S
C808 C803 1.407 . S
C808 C807 1.384 . S
C808 H835 0.929 . S
C809 O822 1.241 1_545 S
C809 O823 1.273 . S
C810 O824 1.251 . S
C810 O825 1.268 . S
C811 Nd801 2.836 . S
C811 C812 1.498 . S
C811 O826 1.258 . S
C811 O827 1.239 . S
C812 C811 1.498 . S
C812 C813 1.366 . S
C812 C817 1.407 . S
C813 C812 1.366 . S
C813 C814 1.392 . S
C813 H836 0.930 . S
C814 C813 1.392 . S
C814 C815 1.398 . S
C814 H837 0.929 . S
C815 C814 1.398 . S
C815 C816 1.352 . S
C816 C815 1.352 . S
C816 C817 1.384 . S
C816 H838 0.930 . S
C817 C812 1.407 . S
C817 C816 1.384 . S
C817 H839 0.929 . S
C818 O828 1.241 . S
C818 O829 1.273 . S
C819 O830 1.251 . S
C819 O831 1.268 . S
O820 Nd800 2.500 1_556 S
O820 C802 1.258 . S
O821 Nd800 2.471 1_566 S
O821 C802 1.256 1_565 S
O822 Nd800 2.487 1_565 S
O822 C809 1.241 1_565 S
O823 Nd800 2.682 . S
O823 Nd801 2.414 . S
O823 C809 1.273 . S
O824 Nd800 2.410 . S
O824 C810 1.251 . S
O825 Nd801 2.424 . S
O825 C810 1.268 . S
O826 Nd801 2.500 . S
O826 C811 1.258 . S
O827 Nd801 2.492 . S
O827 C811 1.239 . S
O828 Nd801 2.487 . S
O828 C818 1.241 . S
O829 Nd800 2.414 . S
O829 Nd801 2.682 . S
O829 C818 1.273 . S
O830 Nd801 2.410 . S
O830 C819 1.251 . S
O831 Nd800 2.424 . S
O831 C819 1.268 . S
H832 C804 0.930 . S
H833 C805 0.929 . S
H834 C807 0.930 . S
H835 C808 0.929 . S
H836 C813 0.930 . S
H837 C814 0.929 . S
H838 C816 0.930 . S
H839 C817 0.929 . S
Nd840 C842 2.836 . S
Nd840 O860 2.500 . S
Nd840 O861 2.492 . S
Nd840 O862 2.487 . S
Nd840 O863 2.682 . S
Nd840 O864 2.410 . S
Nd840 O869 2.414 . S
Nd840 O871 2.424 . S
Nd841 C851 2.836 . S
Nd841 O863 2.414 . S
Nd841 O865 2.424 . S
Nd841 O866 2.500 . S
Nd841 O867 2.492 . S
Nd841 O868 2.487 . S
Nd841 O869 2.682 . S
Nd841 O870 2.410 . S
C842 Nd840 2.836 . S
C842 C843 1.498 . S
C842 O860 1.258 . S
C842 O861 1.239 . S
C843 C842 1.498 . S
C843 C844 1.366 . S
C843 C848 1.407 . S
C844 C843 1.366 . S
C844 C845 1.392 . S
C844 H872 0.930 . S
C845 C844 1.392 . S
C845 C846 1.398 . S
C845 H873 0.929 . S
C846 C845 1.398 . S
C846 C847 1.352 . S
C847 C846 1.352 . S
C847 C848 1.384 . S
C847 H874 0.930 . S
C848 C843 1.407 . S
C848 C847 1.384 . S
C848 H875 0.929 . S
C849 O862 1.241 . S
C849 O863 1.273 . S
C850 O864 1.251 . S
C850 O865 1.268 . S
C851 Nd841 2.836 . S
C851 C852 1.498 . S
C851 O866 1.258 . S
C851 O867 1.239 . S
C852 C851 1.498 . S
C852 C853 1.366 . S
C852 C857 1.407 . S
C853 C852 1.366 . S
C853 C854 1.392 . S
C853 H876 0.930 . S
C854 C853 1.392 . S
C854 C855 1.398 . S
C854 H877 0.929 . S
C855 C854 1.398 . S
C855 C856 1.352 . S
C856 C855 1.352 . S
C856 C857 1.384 . S
C856 H878 0.930 . S
C857 C852 1.407 . S
C857 C856 1.384 . S
C857 H879 0.929 . S
C858 O868 1.241 . S
C858 O869 1.273 . S
C859 O870 1.251 . S
C859 O871 1.268 . S
O860 Nd840 2.500 . S
O860 C842 1.258 . S
O861 Nd840 2.492 . S
O861 C842 1.239 . S
O862 Nd840 2.487 . S
O862 C849 1.241 . S
O863 Nd840 2.682 . S
O863 Nd841 2.414 . S
O863 C849 1.273 . S
O864 Nd840 2.410 . S
O864 C850 1.251 . S
O865 Nd841 2.424 . S
O865 C850 1.268 . S
O866 Nd841 2.500 . S
O866 C851 1.258 . S
O867 Nd841 2.492 . S
O867 C851 1.239 . S
O868 Nd841 2.487 . S
O868 C858 1.241 . S
O869 Nd840 2.414 . S
O869 Nd841 2.682 . S
O869 C858 1.273 . S
O870 Nd841 2.410 . S
O870 C859 1.251 . S
O871 Nd840 2.424 . S
O871 C859 1.268 . S
H872 C844 0.930 . S
H873 C845 0.929 . S
H874 C847 0.930 . S
H875 C848 0.929 . S
H876 C853 0.930 . S
H877 C854 0.929 . S
H878 C856 0.930 . S
H879 C857 0.929 . S
Nd880 C882 2.836 . S
Nd880 O900 2.500 . S
Nd880 O901 2.492 1_565 S
Nd880 O902 2.487 1_565 S
Nd880 O903 2.682 . S
Nd880 O904 2.410 . S
Nd880 O909 2.414 . S
Nd880 O911 2.424 . S
Nd881 C891 2.836 . S
Nd881 O903 2.414 . S
Nd881 O905 2.424 . S
Nd881 O906 2.500 . S
Nd881 O907 2.492 . S
Nd881 O908 2.487 . S
Nd881 O909 2.682 . S
Nd881 O910 2.410 . S
C882 Nd880 2.836 . S
C882 C883 1.498 1_565 S
C882 O900 1.258 . S
C882 O901 1.239 1_565 S
C883 C882 1.498 1_545 S
C883 C884 1.366 1_545 S
C883 C888 1.407 . S
C884 C883 1.366 1_565 S
C884 C885 1.392 . S
C884 H912 0.930 . S
C885 C884 1.392 . S
C885 C886 1.398 1_565 S
C885 H913 0.929 . S
C886 C885 1.398 1_545 S
C886 C887 1.352 . S
C887 C886 1.352 . S
C887 C888 1.384 . S
C887 H914 0.930 . S
C888 C883 1.407 . S
C888 C887 1.384 . S
C888 H915 0.929 . S
C889 O902 1.241 1_565 S
C889 O903 1.273 . S
C890 O904 1.251 . S
C890 O905 1.268 . S
C891 Nd881 2.836 . S
C891 C892 1.498 . S
C891 O906 1.258 . S
C891 O907 1.239 . S
C892 C891 1.498 . S
C892 C893 1.366 . S
C892 C897 1.407 . S
C893 C892 1.366 . S
C893 C894 1.392 . S
C893 H916 0.930 . S
C894 C893 1.392 . S
C894 C895 1.398 . S
C894 H917 0.929 . S
C895 C894 1.398 . S
C895 C896 1.352 . S
C896 C895 1.352 . S
C896 C897 1.384 . S
C896 H918 0.930 . S
C897 C892 1.407 . S
C897 C896 1.384 . S
C897 H919 0.929 . S
C898 O908 1.241 . S
C898 O909 1.273 . S
C899 O910 1.251 . S
C899 O911 1.268 . S
O900 Nd880 2.500 . S
O900 C882 1.258 . S
O901 Nd880 2.492 1_545 S
O901 C882 1.239 1_545 S
O902 Nd880 2.487 1_545 S
O902 C889 1.241 1_545 S
O903 Nd880 2.682 . S
O903 Nd881 2.414 . S
O903 C889 1.273 . S
O904 Nd880 2.410 . S
O904 C890 1.251 . S
O905 Nd881 2.424 . S
O905 C890 1.268 . S
O906 Nd881 2.500 . S
O906 C891 1.258 . S
O907 Nd881 2.492 . S
O907 C891 1.239 . S
O908 Nd881 2.487 . S
O908 C898 1.241 . S
O909 Nd880 2.414 . S
O909 Nd881 2.682 . S
O909 C898 1.273 . S
O910 Nd881 2.410 . S
O910 C899 1.251 . S
O911 Nd880 2.424 . S
O911 C899 1.268 . S
H912 C884 0.930 . S
H913 C885 0.929 . S
H914 C887 0.930 . S
H915 C888 0.929 . S
H916 C893 0.930 . S
H917 C894 0.929 . S
H918 C896 0.930 . S
H919 C897 0.929 . S
Nd920 C922 2.836 . S
Nd920 O940 2.500 . S
Nd920 O941 2.492 . S
Nd920 O942 2.487 . S
Nd920 O943 2.682 . S
Nd920 O944 2.410 . S
Nd920 O949 2.414 . S
Nd920 O951 2.424 . S
Nd921 C931 2.836 . S
Nd921 O943 2.414 . S
Nd921 O945 2.424 . S
Nd921 O946 2.500 . S
Nd921 O947 2.492 . S
Nd921 O948 2.487 . S
Nd921 O949 2.682 . S
Nd921 O950 2.410 . S
C922 Nd920 2.836 . S
C922 C923 1.498 . S
C922 O940 1.258 . S
C922 O941 1.239 . S
C923 C922 1.498 . S
C923 C924 1.366 . S
C923 C928 1.407 . S
C924 C923 1.366 . S
C924 C925 1.392 . S
C924 H952 0.930 . S
C925 C924 1.392 . S
C925 C926 1.398 . S
C925 H953 0.929 . S
C926 C925 1.398 . S
C926 C927 1.352 . S
C927 C926 1.352 . S
C927 C928 1.384 . S
C927 H954 0.930 . S
C928 C923 1.407 . S
C928 C927 1.384 . S
C928 H955 0.929 . S
C929 O942 1.241 . S
C929 O943 1.273 . S
C930 O944 1.251 . S
C930 O945 1.268 . S
C931 Nd921 2.836 . S
C931 C932 1.498 . S
C931 O946 1.258 . S
C931 O947 1.239 . S
C932 C931 1.498 . S
C932 C933 1.366 . S
C932 C937 1.407 . S
C933 C932 1.366 . S
C933 C934 1.392 1_556 S
C933 H956 0.930 . S
C934 C933 1.392 1_554 S
C934 C935 1.398 . S
C934 H957 0.929 . S
C935 C934 1.398 . S
C935 C936 1.352 . S
C936 C935 1.352 . S
C936 C937 1.384 1_554 S
C936 H958 0.930 . S
C937 C932 1.407 . S
C937 C936 1.384 1_556 S
C937 H959 0.929 . S
C938 O948 1.241 . S
C938 O949 1.273 . S
C939 O950 1.251 . S
C939 O951 1.268 . S
O940 Nd920 2.500 . S
O940 C922 1.258 . S
O941 Nd920 2.492 . S
O941 C922 1.239 . S
O942 Nd920 2.487 . S
O942 C929 1.241 . S
O943 Nd920 2.682 . S
O943 Nd921 2.414 . S
O943 C929 1.273 . S
O944 Nd920 2.410 . S
O944 C930 1.251 . S
O945 Nd921 2.424 . S
O945 C930 1.268 . S
O946 Nd921 2.500 . S
O946 C931 1.258 . S
O947 Nd921 2.492 . S
O947 C931 1.239 . S
O948 Nd921 2.487 . S
O948 C938 1.241 . S
O949 Nd920 2.414 . S
O949 Nd921 2.682 . S
O949 C938 1.273 . S
O950 Nd921 2.410 . S
O950 C939 1.251 . S
O951 Nd920 2.424 . S
O951 C939 1.268 . S
H952 C924 0.930 . S
H953 C925 0.929 . S
H954 C927 0.930 . S
H955 C928 0.929 . S
H956 C933 0.930 . S
H957 C934 0.929 . S
H958 C936 0.930 . S
H959 C937 0.929 . S
Nd960 C962 2.836 . S
Nd960 O980 2.500 . S
Nd960 O981 2.492 . S
Nd960 O982 2.487 . S
Nd960 O983 2.682 . S
Nd960 O984 2.410 . S
Nd960 O989 2.414 . S
Nd960 O991 2.424 . S
Nd961 C971 2.836 . S
Nd961 O983 2.414 . S
Nd961 O985 2.424 . S
Nd961 O986 2.500 . S
Nd961 O987 2.492 . S
Nd961 O988 2.487 . S
Nd961 O989 2.682 . S
Nd961 O990 2.410 . S
C962 Nd960 2.836 . S
C962 C963 1.498 . S
C962 O980 1.258 . S
C962 O981 1.239 . S
C963 C962 1.498 . S
C963 C964 1.366 . S
C963 C968 1.407 . S
C964 C963 1.366 . S
C964 C965 1.392 . S
C964 H992 0.930 . S
C965 C964 1.392 . S
C965 C966 1.398 . S
C965 H993 0.929 . S
C966 C965 1.398 . S
C966 C967 1.352 . S
C967 C966 1.352 . S
C967 C968 1.384 . S
C967 H994 0.930 . S
C968 C963 1.407 . S
C968 C967 1.384 . S
C968 H995 0.929 . S
C969 O982 1.241 . S
C969 O983 1.273 . S
C970 O984 1.251 . S
C970 O985 1.268 . S
C971 Nd961 2.836 . S
C971 C972 1.498 . S
C971 O986 1.258 . S
C971 O987 1.239 . S
C972 C971 1.498 . S
C972 C973 1.366 . S
C972 C977 1.407 . S
C973 C972 1.366 . S
C973 C974 1.392 . S
C973 H996 0.930 . S
C974 C973 1.392 . S
C974 C975 1.398 . S
C974 H997 0.929 . S
C975 C974 1.398 . S
C975 C976 1.352 . S
C976 C975 1.352 . S
C976 C977 1.384 . S
C976 H998 0.930 . S
C977 C972 1.407 . S
C977 C976 1.384 . S
C977 H999 0.929 . S
C978 O988 1.241 . S
C978 O989 1.273 . S
C979 O990 1.251 . S
C979 O991 1.268 . S
O980 Nd960 2.500 . S
O980 C962 1.258 . S
O981 Nd960 2.492 . S
O981 C962 1.239 . S
O982 Nd960 2.487 . S
O982 C969 1.241 . S
O983 Nd960 2.682 . S
O983 Nd961 2.414 . S
O983 C969 1.273 . S
O984 Nd960 2.410 . S
O984 C970 1.251 . S
O985 Nd961 2.424 . S
O985 C970 1.268 . S
O986 Nd961 2.500 . S
O986 C971 1.258 . S
O987 Nd961 2.492 . S
O987 C971 1.239 . S
O988 Nd961 2.487 . S
O988 C978 1.241 . S
O989 Nd960 2.414 . S
O989 Nd961 2.682 . S
O989 C978 1.273 . S
O990 Nd961 2.410 . S
O990 C979 1.251 . S
O991 Nd960 2.424 . S
O991 C979 1.268 . S
H992 C964 0.930 . S
H993 C965 0.929 . S
H994 C967 0.930 . S
H995 C968 0.929 . S
H996 C973 0.930 . S
H997 C974 0.929 . S
H998 C976 0.930 . S
H999 C977 0.929 . S
Nd1000 C1002 2.836 . S
Nd1000 O1020 2.500 . S
Nd1000 O1021 2.492 . S
Nd1000 O1022 2.487 . S
Nd1000 O1023 2.682 . S
Nd1000 O1024 2.410 . S
Nd1000 O1029 2.414 . S
Nd1000 O1031 2.424 . S
Nd1001 C1011 2.836 . S
Nd1001 O1023 2.414 . S
Nd1001 O1025 2.424 . S
Nd1001 O1026 2.500 . S
Nd1001 O1027 2.492 . S
Nd1001 O1028 2.487 . S
Nd1001 O1029 2.682 . S
Nd1001 O1030 2.410 . S
C1002 Nd1000 2.836 . S
C1002 C1003 1.498 . S
C1002 O1020 1.258 . S
C1002 O1021 1.239 . S
C1003 C1002 1.498 . S
C1003 C1004 1.366 . S
C1003 C1008 1.407 . S
C1004 C1003 1.366 . S
C1004 C1005 1.392 . S
C1004 H1032 0.930 . S
C1005 C1004 1.392 . S
C1005 C1006 1.398 . S
C1005 H1033 0.929 . S
C1006 C1005 1.398 . S
C1006 C1007 1.352 . S
C1007 C1006 1.352 . S
C1007 C1008 1.384 . S
C1007 H1034 0.930 . S
C1008 C1003 1.407 . S
C1008 C1007 1.384 . S
C1008 H1035 0.929 . S
C1009 O1022 1.241 . S
C1009 O1023 1.273 . S
C1010 O1024 1.251 . S
C1010 O1025 1.268 . S
C1011 Nd1001 2.836 . S
C1011 C1012 1.498 . S
C1011 O1026 1.258 . S
C1011 O1027 1.239 . S
C1012 C1011 1.498 . S
C1012 C1013 1.366 . S
C1012 C1017 1.407 . S
C1013 C1012 1.366 . S
C1013 C1014 1.392 . S
C1013 H1036 0.930 . S
C1014 C1013 1.392 . S
C1014 C1015 1.398 . S
C1014 H1037 0.929 . S
C1015 C1014 1.398 . S
C1015 C1016 1.352 . S
C1016 C1015 1.352 . S
C1016 C1017 1.384 . S
C1016 H1038 0.930 . S
C1017 C1012 1.407 . S
C1017 C1016 1.384 . S
C1017 H1039 0.929 . S
C1018 O1028 1.241 . S
C1018 O1029 1.273 . S
C1019 O1030 1.251 . S
C1019 O1031 1.268 . S
O1020 Nd1000 2.500 . S
O1020 C1002 1.258 . S
O1021 Nd1000 2.492 . S
O1021 C1002 1.239 . S
O1022 Nd1000 2.487 . S
O1022 C1009 1.241 . S
O1023 Nd1000 2.682 . S
O1023 Nd1001 2.414 . S
O1023 C1009 1.273 . S
O1024 Nd1000 2.410 . S
O1024 C1010 1.251 . S
O1025 Nd1001 2.424 . S
O1025 C1010 1.268 . S
O1026 Nd1001 2.500 . S
O1026 C1011 1.258 . S
O1027 Nd1001 2.492 . S
O1027 C1011 1.239 . S
O1028 Nd1001 2.487 . S
O1028 C1018 1.241 . S
O1029 Nd1000 2.414 . S
O1029 Nd1001 2.682 . S
O1029 C1018 1.273 . S
O1030 Nd1001 2.410 . S
O1030 C1019 1.251 . S
O1031 Nd1000 2.424 . S
O1031 C1019 1.268 . S
H1032 C1004 0.930 . S
H1033 C1005 0.929 . S
H1034 C1007 0.930 . S
H1035 C1008 0.929 . S
H1036 C1013 0.930 . S
H1037 C1014 0.929 . S
H1038 C1016 0.930 . S
H1039 C1017 0.929 . S
Nd1040 C1042 2.836 . S
Nd1040 O1060 2.500 . S
Nd1040 O1061 2.492 . S
Nd1040 O1062 2.487 . S
Nd1040 O1063 2.682 . S
Nd1040 O1064 2.410 . S
Nd1040 O1069 2.414 . S
Nd1040 O1071 2.424 . S
Nd1041 C1051 2.836 . S
Nd1041 O1063 2.414 . S
Nd1041 O1065 2.424 . S
Nd1041 O1066 2.500 . S
Nd1041 O1067 2.492 . S
Nd1041 O1068 2.487 . S
Nd1041 O1069 2.682 . S
Nd1041 O1070 2.410 . S
C1042 Nd1040 2.836 . S
C1042 C1043 1.498 . S
C1042 O1060 1.258 . S
C1042 O1061 1.239 . S
C1043 C1042 1.498 . S
C1043 C1044 1.366 . S
C1043 C1048 1.367 1_455 S
C1044 C1043 1.366 . S
C1044 C1045 1.392 . S
C1044 H1072 0.930 . S
C1045 C1044 1.392 . S
C1045 C1046 1.398 1_554 S
C1045 H1073 0.929 1_554 S
C1046 C1045 1.398 1_556 S
C1046 C1047 1.352 1_456 S
C1047 C1046 1.352 1_654 S
C1047 C1048 1.394 . S
C1047 H1074 0.939 . S
C1048 C1043 1.367 1_655 S
C1048 C1047 1.394 . S
C1048 H1075 0.961 . S
C1049 O1062 1.241 . S
C1049 O1063 1.273 . S
C1050 O1064 1.251 . S
C1050 O1065 1.268 . S
C1051 Nd1041 2.836 . S
C1051 C1052 1.498 . S
C1051 O1066 1.258 . S
C1051 O1067 1.239 . S
C1052 C1051 1.498 . S
C1052 C1053 1.366 . S
C1052 C1057 1.407 . S
C1053 C1052 1.366 . S
C1053 C1054 1.392 . S
C1053 H1076 0.930 . S
C1054 C1053 1.392 . S
C1054 C1055 1.398 . S
C1054 H1077 0.929 . S
C1055 C1054 1.398 . S
C1055 C1056 1.352 . S
C1056 C1055 1.352 . S
C1056 C1057 1.384 . S
C1056 H1078 0.930 . S
C1057 C1052 1.407 . S
C1057 C1056 1.384 . S
C1057 H1079 0.929 . S
C1058 O1068 1.241 . S
C1058 O1069 1.273 . S
C1059 O1070 1.251 . S
C1059 O1071 1.268 . S
O1060 Nd1040 2.500 . S
O1060 C1042 1.258 . S
O1061 Nd1040 2.492 . S
O1061 C1042 1.239 . S
O1062 Nd1040 2.487 . S
O1062 C1049 1.241 . S
O1063 Nd1040 2.682 . S
O1063 Nd1041 2.414 . S
O1063 C1049 1.273 . S
O1064 Nd1040 2.410 . S
O1064 C1050 1.251 . S
O1065 Nd1041 2.424 . S
O1065 C1050 1.268 . S
O1066 Nd1041 2.500 . S
O1066 C1051 1.258 . S
O1067 Nd1041 2.492 . S
O1067 C1051 1.239 . S
O1068 Nd1041 2.487 . S
O1068 C1058 1.241 . S
O1069 Nd1040 2.414 . S
O1069 Nd1041 2.682 . S
O1069 C1058 1.273 . S
O1070 Nd1041 2.410 . S
O1070 C1059 1.251 . S
O1071 Nd1040 2.424 . S
O1071 C1059 1.268 . S
H1072 C1044 0.930 . S
H1073 C1045 0.929 1_556 S
H1074 C1047 0.939 . S
H1075 C1048 0.961 . S
H1076 C1053 0.930 . S
H1077 C1054 0.929 . S
H1078 C1056 0.930 . S
H1079 C1057 0.929 . S
Nd1080 C1082 2.836 . S
Nd1080 O1100 2.500 . S
Nd1080 O1101 2.492 . S
Nd1080 O1102 2.487 . S
Nd1080 O1103 2.682 . S
Nd1080 O1104 2.410 . S
Nd1080 O1109 2.414 . S
Nd1080 O1111 2.424 . S
Nd1081 C1091 2.836 1_556 S
Nd1081 O1103 2.414 . S
Nd1081 O1105 2.424 . S
Nd1081 O1106 2.500 1_556 S
Nd1081 O1107 2.492 1_556 S
Nd1081 O1108 2.487 . S
Nd1081 O1109 2.682 . S
Nd1081 O1110 2.410 1_556 S
C1082 Nd1080 2.836 . S
C1082 C1083 1.498 . S
C1082 O1100 1.258 . S
C1082 O1101 1.239 . S
C1083 C1082 1.498 . S
C1083 C1084 1.366 . S
C1083 C1088 1.407 . S
C1084 C1083 1.366 . S
C1084 C1085 1.392 . S
C1084 H1112 0.930 . S
C1085 C1084 1.392 . S
C1085 C1086 1.398 . S
C1085 H1113 0.929 . S
C1086 C1085 1.398 . S
C1086 C1087 1.352 . S
C1087 C1086 1.352 . S
C1087 C1088 1.384 . S
C1087 H1114 0.930 . S
C1088 C1083 1.407 . S
C1088 C1087 1.384 . S
C1088 H1115 0.929 . S
C1089 O1102 1.241 . S
C1089 O1103 1.273 . S
C1090 O1104 1.251 . S
C1090 O1105 1.268 . S
C1091 Nd1081 2.836 1_554 S
C1091 C1092 1.498 . S
C1091 O1106 1.258 . S
C1091 O1107 1.239 . S
C1092 C1091 1.498 . S
C1092 C1093 1.366 . S
C1092 C1097 1.407 . S
C1093 C1092 1.366 . S
C1093 C1094 1.392 . S
C1093 H1116 0.930 . S
C1094 C1093 1.392 . S
C1094 C1095 1.398 . S
C1094 H1117 0.929 . S
C1095 C1094 1.398 . S
C1095 C1096 1.352 . S
C1096 C1095 1.352 . S
C1096 C1097 1.384 . S
C1096 H1118 0.930 . S
C1097 C1092 1.407 . S
C1097 C1096 1.384 . S
C1097 H1119 0.929 . S
C1098 O1108 1.241 . S
C1098 O1109 1.273 . S
C1099 O1110 1.251 . S
C1099 O1111 1.268 1_554 S
O1100 Nd1080 2.500 . S
O1100 C1082 1.258 . S
O1101 Nd1080 2.492 . S
O1101 C1082 1.239 . S
O1102 Nd1080 2.487 . S
O1102 C1089 1.241 . S
O1103 Nd1080 2.682 . S
O1103 Nd1081 2.414 . S
O1103 C1089 1.273 . S
O1104 Nd1080 2.410 . S
O1104 C1090 1.251 . S
O1105 Nd1081 2.424 . S
O1105 C1090 1.268 . S
O1106 Nd1081 2.500 1_554 S
O1106 C1091 1.258 . S
O1107 Nd1081 2.492 1_554 S
O1107 C1091 1.239 . S
O1108 Nd1081 2.487 . S
O1108 C1098 1.241 . S
O1109 Nd1080 2.414 . S
O1109 Nd1081 2.682 . S
O1109 C1098 1.273 . S
O1110 Nd1081 2.410 1_554 S
O1110 C1099 1.251 . S
O1111 Nd1080 2.424 . S
O1111 C1099 1.268 1_556 S
H1112 C1084 0.930 . S
H1113 C1085 0.929 . S
H1114 C1087 0.930 . S
H1115 C1088 0.929 . S
H1116 C1093 0.930 . S
H1117 C1094 0.929 . S
H1118 C1096 0.930 . S
H1119 C1097 0.929 . S
Nd1120 C1122 2.836 . S
Nd1120 O1140 2.500 . S
Nd1120 O1141 2.492 . S
Nd1120 O1142 2.487 . S
Nd1120 O1143 2.682 . S
Nd1120 O1144 2.410 . S
Nd1120 O1149 2.414 . S
Nd1120 O1151 2.424 . S
Nd1121 C1131 2.836 . S
Nd1121 O1143 2.414 . S
Nd1121 O1145 2.424 . S
Nd1121 O1146 2.500 . S
Nd1121 O1147 2.492 1_565 S
Nd1121 O1148 2.487 1_565 S
Nd1121 O1149 2.682 . S
Nd1121 O1150 2.410 . S
C1122 Nd1120 2.836 . S
C1122 C1123 1.498 . S
C1122 O1140 1.258 . S
C1122 O1141 1.239 . S
C1123 C1122 1.498 . S
C1123 C1124 1.366 . S
C1123 C1128 1.407 . S
C1124 C1123 1.366 . S
C1124 C1125 1.392 . S
C1124 H1152 0.930 . S
C1125 C1124 1.392 . S
C1125 C1126 1.398 . S
C1125 H1153 0.929 . S
C1126 C1125 1.398 . S
C1126 C1127 1.352 . S
C1127 C1126 1.352 . S
C1127 C1128 1.384 . S
C1127 H1154 0.930 . S
C1128 C1123 1.407 . S
C1128 C1127 1.384 . S
C1128 H1155 0.929 . S
C1129 O1142 1.241 . S
C1129 O1143 1.273 . S
C1130 O1144 1.251 . S
C1130 O1145 1.268 . S
C1131 Nd1121 2.836 . S
C1131 C1132 1.498 1_565 S
C1131 O1146 1.258 . S
C1131 O1147 1.239 1_565 S
C1132 C1131 1.498 1_545 S
C1132 C1133 1.366 1_545 S
C1132 C1137 1.407 . S
C1133 C1132 1.366 1_565 S
C1133 C1134 1.392 . S
C1133 H1156 0.930 . S
C1134 C1133 1.392 . S
C1134 C1135 1.398 1_565 S
C1134 H1157 0.929 . S
C1135 C1134 1.398 1_545 S
C1135 C1136 1.352 . S
C1136 C1135 1.352 . S
C1136 C1137 1.384 . S
C1136 H1158 0.930 . S
C1137 C1132 1.407 . S
C1137 C1136 1.384 . S
C1137 H1159 0.929 . S
C1138 O1148 1.241 1_565 S
C1138 O1149 1.273 . S
C1139 O1150 1.251 . S
C1139 O1151 1.268 . S
O1140 Nd1120 2.500 . S
O1140 C1122 1.258 . S
O1141 Nd1120 2.492 . S
O1141 C1122 1.239 . S
O1142 Nd1120 2.487 . S
O1142 C1129 1.241 . S
O1143 Nd1120 2.682 . S
O1143 Nd1121 2.414 . S
O1143 C1129 1.273 . S
O1144 Nd1120 2.410 . S
O1144 C1130 1.251 . S
O1145 Nd1121 2.424 . S
O1145 C1130 1.268 . S
O1146 Nd1121 2.500 . S
O1146 C1131 1.258 . S
O1147 Nd1121 2.492 1_545 S
O1147 C1131 1.239 1_545 S
O1148 Nd1121 2.487 1_545 S
O1148 C1138 1.241 1_545 S
O1149 Nd1120 2.414 . S
O1149 Nd1121 2.682 . S
O1149 C1138 1.273 . S
O1150 Nd1121 2.410 . S
O1150 C1139 1.251 . S
O1151 Nd1120 2.424 . S
O1151 C1139 1.268 . S
H1152 C1124 0.930 . S
H1153 C1125 0.929 . S
H1154 C1127 0.930 . S
H1155 C1128 0.929 . S
H1156 C1133 0.930 . S
H1157 C1134 0.929 . S
H1158 C1136 0.930 . S
H1159 C1137 0.929 . S
Nd1160 C1162 2.836 . S
Nd1160 O1180 2.500 . S
Nd1160 O1181 2.492 . S
Nd1160 O1182 2.487 . S
Nd1160 O1183 2.682 1_556 S
Nd1160 O1184 2.410 . S
Nd1160 O1189 2.414 . S
Nd1160 O1191 2.424 1_556 S
Nd1161 C1171 2.836 . S
Nd1161 O1183 2.414 . S
Nd1161 O1185 2.424 1_554 S
Nd1161 O1186 2.500 . S
Nd1161 O1187 2.492 . S
Nd1161 O1188 2.487 . S
Nd1161 O1189 2.682 1_554 S
Nd1161 O1190 2.410 . S
C1162 Nd1160 2.836 . S
C1162 C1163 1.498 . S
C1162 O1180 1.258 . S
C1162 O1181 1.239 . S
C1163 C1162 1.498 . S
C1163 C1164 1.366 . S
C1163 C1168 1.407 . S
C1164 C1163 1.366 . S
C1164 C1165 1.392 . S
C1164 H1192 0.930 . S
C1165 C1164 1.392 . S
C1165 C1166 1.398 . S
C1165 H1193 0.929 . S
C1166 C1165 1.398 . S
C1166 C1167 1.352 . S
C1167 C1166 1.352 . S
C1167 C1168 1.384 . S
C1167 H1194 0.930 . S
C1168 C1163 1.407 . S
C1168 C1167 1.384 . S
C1168 H1195 0.929 . S
C1169 O1182 1.241 1_554 S
C1169 O1183 1.273 . S
C1170 O1184 1.251 . S
C1170 O1185 1.268 . S
C1171 Nd1161 2.836 . S
C1171 C1172 1.498 . S
C1171 O1186 1.258 . S
C1171 O1187 1.239 . S
C1172 C1171 1.498 . S
C1172 C1173 1.366 . S
C1172 C1177 1.407 . S
C1173 C1172 1.366 . S
C1173 C1174 1.392 . S
C1173 H1196 0.930 . S
C1174 C1173 1.392 . S
C1174 C1175 1.398 . S
C1174 H1197 0.929 . S
C1175 C1174 1.398 . S
C1175 C1176 1.352 . S
C1176 C1175 1.352 . S
C1176 C1177 1.384 . S
C1176 H1198 0.930 . S
C1177 C1172 1.407 . S
C1177 C1176 1.384 . S
C1177 H1199 0.929 . S
C1178 O1188 1.241 1_556 S
C1178 O1189 1.273 . S
C1179 O1190 1.251 . S
C1179 O1191 1.268 . S
O1180 Nd1160 2.500 . S
O1180 C1162 1.258 . S
O1181 Nd1160 2.492 . S
O1181 C1162 1.239 . S
O1182 Nd1160 2.487 . S
O1182 C1169 1.241 1_556 S
O1183 Nd1160 2.682 1_554 S
O1183 Nd1161 2.414 . S
O1183 C1169 1.273 . S
O1184 Nd1160 2.410 . S
O1184 C1170 1.251 . S
O1185 Nd1161 2.424 1_556 S
O1185 C1170 1.268 . S
O1186 Nd1161 2.500 . S
O1186 C1171 1.258 . S
O1187 Nd1161 2.492 . S
O1187 C1171 1.239 . S
O1188 Nd1161 2.487 . S
O1188 C1178 1.241 1_554 S
O1189 Nd1160 2.414 . S
O1189 Nd1161 2.682 1_556 S
O1189 C1178 1.273 . S
O1190 Nd1161 2.410 . S
O1190 C1179 1.251 . S
O1191 Nd1160 2.424 1_554 S
O1191 C1179 1.268 . S
H1192 C1164 0.930 . S
H1193 C1165 0.929 . S
H1194 C1167 0.930 . S
H1195 C1168 0.929 . S
H1196 C1173 0.930 . S
H1197 C1174 0.929 . S
H1198 C1176 0.930 . S
H1199 C1177 0.929 . S
Nd1200 C1202 2.836 . S
Nd1200 O1220 2.500 . S
Nd1200 O1221 2.492 . S
Nd1200 O1222 2.487 . S
Nd1200 O1223 2.682 . S
Nd1200 O1224 2.410 . S
Nd1200 O1229 2.414 . S
Nd1200 O1231 2.424 . S
Nd1201 C1211 2.836 . S
Nd1201 O1223 2.414 . S
Nd1201 O1225 2.424 . S
Nd1201 O1226 2.500 . S
Nd1201 O1227 2.492 1_545 S
Nd1201 O1228 2.487 1_545 S
Nd1201 O1229 2.682 . S
Nd1201 O1230 2.410 . S
C1202 Nd1200 2.836 . S
C1202 C1203 1.498 . S
C1202 O1220 1.258 . S
C1202 O1221 1.239 . S
C1203 C1202 1.498 . S
C1203 C1204 1.366 . S
C1203 C1208 1.407 . S
C1204 C1203 1.366 . S
C1204 C1205 1.392 . S
C1204 H1232 0.930 . S
C1205 C1204 1.392 . S
C1205 C1206 1.398 . S
C1205 H1233 0.929 . S
C1206 C1205 1.398 . S
C1206 C1207 1.352 . S
C1207 C1206 1.352 . S
C1207 C1208 1.384 . S
C1207 H1234 0.930 . S
C1208 C1203 1.407 . S
C1208 C1207 1.384 . S
C1208 H1235 0.929 . S
C1209 O1222 1.241 . S
C1209 O1223 1.273 . S
C1210 O1224 1.251 . S
C1210 O1225 1.268 . S
C1211 Nd1201 2.836 . S
C1211 C1212 1.498 1_545 S
C1211 O1226 1.258 . S
C1211 O1227 1.239 1_545 S
C1212 C1211 1.498 1_565 S
C1212 C1213 1.366 1_565 S
C1212 C1217 1.407 . S
C1213 C1212 1.366 1_545 S
C1213 C1214 1.392 . S
C1213 H1236 0.930 . S
C1214 C1213 1.392 . S
C1214 C1215 1.398 1_545 S
C1214 H1237 0.929 . S
C1215 C1214 1.398 1_565 S
C1215 C1216 1.352 . S
C1216 C1215 1.352 . S
C1216 C1217 1.384 . S
C1216 H1238 0.930 . S
C1217 C1212 1.407 . S
C1217 C1216 1.384 . S
C1217 H1239 0.929 . S
C1218 O1228 1.241 1_545 S
C1218 O1229 1.273 . S
C1219 O1230 1.251 . S
C1219 O1231 1.268 . S
O1220 Nd1200 2.500 . S
O1220 C1202 1.258 . S
O1221 Nd1200 2.492 . S
O1221 C1202 1.239 . S
O1222 Nd1200 2.487 . S
O1222 C1209 1.241 . S
O1223 Nd1200 2.682 . S
O1223 Nd1201 2.414 . S
O1223 C1209 1.273 . S
O1224 Nd1200 2.410 . S
O1224 C1210 1.251 . S
O1225 Nd1201 2.424 . S
O1225 C1210 1.268 . S
O1226 Nd1201 2.500 . S
O1226 C1211 1.258 . S
O1227 Nd1201 2.492 1_565 S
O1227 C1211 1.239 1_565 S
O1228 Nd1201 2.487 1_565 S
O1228 C1218 1.241 1_565 S
O1229 Nd1200 2.414 . S
O1229 Nd1201 2.682 . S
O1229 C1218 1.273 . S
O1230 Nd1201 2.410 . S
O1230 C1219 1.251 . S
O1231 Nd1200 2.424 . S
O1231 C1219 1.268 . S
H1232 C1204 0.930 . S
H1233 C1205 0.929 . S
H1234 C1207 0.930 . S
H1235 C1208 0.929 . S
H1236 C1213 0.930 . S
H1237 C1214 0.929 . S
H1238 C1216 0.930 . S
H1239 C1217 0.929 . S
Nd1240 C1242 2.836 . S
Nd1240 O1260 2.500 . S
Nd1240 O1261 2.492 . S
Nd1240 O1262 2.487 . S
Nd1240 O1263 2.682 . S
Nd1240 O1264 2.410 . S
Nd1240 O1269 2.414 . S
Nd1240 O1271 2.424 . S
Nd1241 C1251 2.836 . S
Nd1241 O1263 2.414 . S
Nd1241 O1265 2.424 . S
Nd1241 O1266 2.500 . S
Nd1241 O1267 2.492 . S
Nd1241 O1268 2.487 . S
Nd1241 O1269 2.682 . S
Nd1241 O1270 2.410 . S
C1242 Nd1240 2.836 . S
C1242 C1243 1.498 . S
C1242 O1260 1.258 . S
C1242 O1261 1.239 . S
C1243 C1242 1.498 . S
C1243 C1244 1.366 . S
C1243 C1248 1.407 . S
C1244 C1243 1.366 . S
C1244 C1245 1.392 . S
C1244 H1272 0.930 . S
C1245 C1244 1.392 . S
C1245 C1246 1.398 . S
C1245 H1273 0.929 . S
C1246 C1245 1.398 . S
C1246 C1247 1.352 . S
C1247 C1246 1.352 . S
C1247 C1248 1.384 . S
C1247 H1274 0.930 . S
C1248 C1243 1.407 . S
C1248 C1247 1.384 . S
C1248 H1275 0.929 . S
C1249 O1262 1.241 . S
C1249 O1263 1.273 . S
C1250 O1264 1.251 . S
C1250 O1265 1.268 . S
C1251 Nd1241 2.836 . S
C1251 C1252 1.498 . S
C1251 O1266 1.258 . S
C1251 O1267 1.239 . S
C1252 C1251 1.498 . S
C1252 C1253 1.366 . S
C1252 C1257 1.407 . S
C1253 C1252 1.366 . S
C1253 C1254 1.392 . S
C1253 H1276 0.930 . S
C1254 C1253 1.392 . S
C1254 C1255 1.398 . S
C1254 H1277 0.929 . S
C1255 C1254 1.398 . S
C1255 C1256 1.352 . S
C1256 C1255 1.352 . S
C1256 C1257 1.384 . S
C1256 H1278 0.930 . S
C1257 C1252 1.407 . S
C1257 C1256 1.384 . S
C1257 H1279 0.929 . S
C1258 O1268 1.241 . S
C1258 O1269 1.273 . S
C1259 O1270 1.251 . S
C1259 O1271 1.268 . S
O1260 Nd1240 2.500 . S
O1260 C1242 1.258 . S
O1261 Nd1240 2.492 . S
O1261 C1242 1.239 . S
O1262 Nd1240 2.487 . S
O1262 C1249 1.241 . S
O1263 Nd1240 2.682 . S
O1263 Nd1241 2.414 . S
O1263 C1249 1.273 . S
O1264 Nd1240 2.410 . S
O1264 C1250 1.251 . S
O1265 Nd1241 2.424 . S
O1265 C1250 1.268 . S
O1266 Nd1241 2.500 . S
O1266 C1251 1.258 . S
O1267 Nd1241 2.492 . S
O1267 C1251 1.239 . S
O1268 Nd1241 2.487 . S
O1268 C1258 1.241 . S
O1269 Nd1240 2.414 . S
O1269 Nd1241 2.682 . S
O1269 C1258 1.273 . S
O1270 Nd1241 2.410 . S
O1270 C1259 1.251 . S
O1271 Nd1240 2.424 . S
O1271 C1259 1.268 . S
H1272 C1244 0.930 . S
H1273 C1245 0.929 . S
H1274 C1247 0.930 . S
H1275 C1248 0.929 . S
H1276 C1253 0.930 . S
H1277 C1254 0.929 . S
H1278 C1256 0.930 . S
H1279 C1257 0.929 . S
H1280 C1292 0.930 . S
H1281 C1294 0.930 . S
H1282 C1295 0.930 . S
H1283 C1299 0.959 . S
H1284 C1299 0.959 . S
H1285 C1299 0.961 . S
H1286 C1300 0.960 . S
H1287 C1300 0.961 . S
H1288 C1300 0.959 . S
H1289 C1303 0.929 . S
H1290 C1304 0.931 . S
H1291 C1306 0.930 . S
C1292 H1280 0.930 . S
C1292 C1293 1.399 . S
C1292 C1297 1.399 . S
C1293 C1292 1.399 . S
C1293 C1294 1.376 . S
C1294 H1281 0.930 . S
C1294 C1293 1.376 . S
C1294 C1295 1.388 . S
C1295 H1282 0.930 . S
C1295 C1294 1.388 . S
C1295 C1296 1.390 . S
C1296 C1295 1.390 . S
C1296 C1297 1.394 . S
C1296 C1302 1.465 . S
C1297 C1292 1.399 . S
C1297 C1296 1.394 . S
C1297 C1298 1.516 . S
C1298 C1297 1.516 . S
C1298 C1299 1.502 . S
C1298 C1300 1.561 . S
C1298 C1301 1.526 . S
C1299 H1283 0.959 . S
C1299 H1284 0.959 . S
C1299 H1285 0.961 . S
C1299 C1298 1.502 . S
C1300 H1286 0.960 . S
C1300 H1287 0.961 . S
C1300 H1288 0.959 . S
C1300 C1298 1.561 . S
C1301 C1298 1.526 . S
C1301 C1302 1.396 . S
C1301 C1306 1.390 . S
C1302 C1296 1.465 . S
C1302 C1301 1.396 . S
C1302 C1303 1.399 . S
C1303 H1289 0.929 . S
C1303 C1302 1.399 . S
C1303 C1304 1.385 . S
C1304 H1290 0.931 . S
C1304 C1303 1.385 . S
C1304 C1305 1.389 . S
C1305 C1304 1.389 . S
C1305 C1306 1.387 . S
C1306 H1291 0.930 . S
C1306 C1301 1.390 . S
C1306 C1305 1.387 . S
H1307 C1319 0.930 . S
H1308 C1321 0.930 . S
H1309 C1322 0.930 . S
H1310 C1326 0.959 . S
H1311 C1326 0.959 . S
H1312 C1326 0.961 . S
H1313 C1327 0.960 . S
H1314 C1327 0.961 . S
H1315 C1327 0.959 . S
H1316 C1330 0.929 . S
H1317 C1331 0.931 . S
H1318 C1333 0.930 . S
C1319 H1307 0.930 . S
C1319 C1320 1.399 . S
C1319 C1324 1.399 . S
C1320 C1319 1.399 . S
C1320 C1321 1.376 . S
C1321 H1308 0.930 . S
C1321 C1320 1.376 . S
C1321 C1322 1.388 . S
C1322 H1309 0.930 . S
C1322 C1321 1.388 . S
C1322 C1323 1.390 . S
C1323 C1322 1.390 . S
C1323 C1324 1.394 . S
C1323 C1329 1.465 . S
C1324 C1319 1.399 . S
C1324 C1323 1.394 . S
C1324 C1325 1.516 . S
C1325 C1324 1.516 . S
C1325 C1326 1.502 . S
C1325 C1327 1.561 . S
C1325 C1328 1.526 . S
C1326 H1310 0.959 . S
C1326 H1311 0.959 . S
C1326 H1312 0.961 . S
C1326 C1325 1.502 . S
C1327 H1313 0.960 . S
C1327 H1314 0.961 . S
C1327 H1315 0.959 . S
C1327 C1325 1.561 . S
C1328 C1325 1.526 . S
C1328 C1329 1.396 . S
C1328 C1333 1.390 . S
C1329 C1323 1.465 . S
C1329 C1328 1.396 . S
C1329 C1330 1.399 . S
C1330 H1316 0.929 . S
C1330 C1329 1.399 . S
C1330 C1331 1.385 . S
C1331 H1317 0.931 . S
C1331 C1330 1.385 . S
C1331 C1332 1.389 . S
C1332 C1331 1.389 . S
C1332 C1333 1.387 . S
C1333 H1318 0.930 . S
C1333 C1328 1.390 . S
C1333 C1332 1.387 . S
H1334 C1346 0.930 . S
H1335 C1348 0.930 . S
H1336 C1349 0.930 . S
H1337 C1353 0.959 . S
H1338 C1353 0.959 . S
H1339 C1353 0.961 . S
H1340 C1354 0.960 . S
H1341 C1354 0.961 . S
H1342 C1354 0.959 . S
H1343 C1357 0.929 . S
H1344 C1358 0.931 . S
H1345 C1360 0.930 . S
C1346 H1334 0.930 . S
C1346 C1347 1.399 . S
C1346 C1351 1.399 . S
C1347 C1346 1.399 . S
C1347 C1348 1.376 . S
C1348 H1335 0.930 . S
C1348 C1347 1.376 . S
C1348 C1349 1.388 . S
C1349 H1336 0.930 . S
C1349 C1348 1.388 . S
C1349 C1350 1.390 . S
C1350 C1349 1.390 . S
C1350 C1351 1.394 . S
C1350 C1356 1.465 . S
C1351 C1346 1.399 . S
C1351 C1350 1.394 . S
C1351 C1352 1.516 . S
C1352 C1351 1.516 . S
C1352 C1353 1.502 . S
C1352 C1354 1.561 . S
C1352 C1355 1.526 . S
C1353 H1337 0.959 . S
C1353 H1338 0.959 . S
C1353 H1339 0.961 . S
C1353 C1352 1.502 . S
C1354 H1340 0.960 . S
C1354 H1341 0.961 . S
C1354 H1342 0.959 . S
C1354 C1352 1.561 . S
C1355 C1352 1.526 . S
C1355 C1356 1.396 . S
C1355 C1360 1.390 . S
C1356 C1350 1.465 . S
C1356 C1355 1.396 . S
C1356 C1357 1.399 . S
C1357 H1343 0.929 . S
C1357 C1356 1.399 . S
C1357 C1358 1.385 . S
C1358 H1344 0.931 . S
C1358 C1357 1.385 . S
C1358 C1359 1.389 . S
C1359 C1358 1.389 . S
C1359 C1360 1.387 . S
C1360 H1345 0.930 . S
C1360 C1355 1.390 . S
C1360 C1359 1.387 . S
H1361 C1373 0.930 . S
H1362 C1375 0.930 . S
H1363 C1376 0.930 . S
H1364 C1380 0.959 . S
H1365 C1380 0.959 . S
H1366 C1380 0.961 . S
H1367 C1381 0.960 . S
H1368 C1381 0.961 . S
H1369 C1381 0.959 . S
H1370 C1384 0.929 . S
H1371 C1385 0.931 . S
H1372 C1387 0.930 . S
C1373 H1361 0.930 . S
C1373 C1374 1.399 . S
C1373 C1378 1.399 . S
C1374 C1373 1.399 . S
C1374 C1375 1.376 . S
C1375 H1362 0.930 . S
C1375 C1374 1.376 . S
C1375 C1376 1.388 . S
C1376 H1363 0.930 . S
C1376 C1375 1.388 . S
C1376 C1377 1.390 . S
C1377 C1376 1.390 . S
C1377 C1378 1.394 . S
C1377 C1383 1.465 . S
C1378 C1373 1.399 . S
C1378 C1377 1.394 . S
C1378 C1379 1.516 . S
C1379 C1378 1.516 . S
C1379 C1380 1.502 . S
C1379 C1381 1.561 . S
C1379 C1382 1.526 . S
C1380 H1364 0.959 . S
C1380 H1365 0.959 . S
C1380 H1366 0.961 . S
C1380 C1379 1.502 . S
C1381 H1367 0.960 . S
C1381 H1368 0.961 . S
C1381 H1369 0.959 . S
C1381 C1379 1.561 . S
C1382 C1379 1.526 . S
C1382 C1383 1.396 . S
C1382 C1387 1.390 1_554 S
C1383 C1377 1.465 . S
C1383 C1382 1.396 . S
C1383 C1384 1.399 1_554 S
C1384 H1370 0.929 . S
C1384 C1383 1.399 1_556 S
C1384 C1385 1.385 . S
C1385 H1371 0.931 . S
C1385 C1384 1.385 . S
C1385 C1386 1.389 . S
C1386 C1385 1.389 . S
C1386 C1387 1.387 . S
C1387 H1372 0.930 . S
C1387 C1382 1.390 1_556 S
C1387 C1386 1.387 . S
H1388 C1400 0.930 . S
H1389 C1402 0.930 . S
H1390 C1403 0.930 . S
H1391 C1407 0.959 . S
H1392 C1407 0.959 . S
H1393 C1407 0.961 . S
H1394 C1408 0.960 . S
H1395 C1408 0.961 . S
H1396 C1408 0.959 . S
H1397 C1411 0.929 . S
H1398 C1412 0.931 . S
H1399 C1414 0.930 . S
C1400 H1388 0.930 . S
C1400 C1401 1.399 . S
C1400 C1405 1.399 . S
C1401 C1400 1.399 . S
C1401 C1402 1.376 . S
C1402 H1389 0.930 . S
C1402 C1401 1.376 . S
C1402 C1403 1.388 . S
C1403 H1390 0.930 . S
C1403 C1402 1.388 . S
C1403 C1404 1.390 . S
C1404 C1403 1.390 . S
C1404 C1405 1.394 . S
C1404 C1410 1.465 . S
C1405 C1400 1.399 . S
C1405 C1404 1.394 . S
C1405 C1406 1.516 . S
C1406 C1405 1.516 . S
C1406 C1407 1.502 . S
C1406 C1408 1.561 . S
C1406 C1409 1.526 . S
C1407 H1391 0.959 . S
C1407 H1392 0.959 . S
C1407 H1393 0.961 . S
C1407 C1406 1.502 . S
C1408 H1394 0.960 . S
C1408 H1395 0.961 . S
C1408 H1396 0.959 . S
C1408 C1406 1.561 . S
C1409 C1406 1.526 . S
C1409 C1410 1.396 . S
C1409 C1414 1.390 1_554 S
C1410 C1404 1.465 . S
C1410 C1409 1.396 . S
C1410 C1411 1.399 1_554 S
C1411 H1397 0.929 . S
C1411 C1410 1.399 1_556 S
C1411 C1412 1.385 . S
C1412 H1398 0.931 . S
C1412 C1411 1.385 . S
C1412 C1413 1.389 . S
C1413 C1412 1.389 . S
C1413 C1414 1.387 . S
C1414 H1399 0.930 . S
C1414 C1409 1.390 1_556 S
C1414 C1413 1.387 . S
H1415 C1427 0.930 . S
H1416 C1429 0.930 . S
H1417 C1430 0.930 . S
H1418 C1434 0.959 . S
H1419 C1434 0.959 . S
H1420 C1434 0.961 . S
H1421 C1435 0.960 . S
H1422 C1435 0.961 . S
H1423 C1435 0.959 . S
H1424 C1438 0.929 . S
H1425 C1439 0.931 . S
H1426 C1441 0.930 . S
C1427 H1415 0.930 . S
C1427 C1428 1.399 . S
C1427 C1432 1.399 . S
C1428 C1427 1.399 . S
C1428 C1429 1.376 . S
C1429 H1416 0.930 . S
C1429 C1428 1.376 . S
C1429 C1430 1.388 . S
C1430 H1417 0.930 . S
C1430 C1429 1.388 . S
C1430 C1431 1.390 . S
C1431 C1430 1.390 . S
C1431 C1432 1.394 . S
C1431 C1437 1.465 . S
C1432 C1427 1.399 . S
C1432 C1431 1.394 . S
C1432 C1433 1.516 . S
C1433 C1432 1.516 . S
C1433 C1434 1.502 . S
C1433 C1435 1.561 . S
C1433 C1436 1.526 . S
C1434 H1418 0.959 . S
C1434 H1419 0.959 . S
C1434 H1420 0.961 . S
C1434 C1433 1.502 . S
C1435 H1421 0.960 . S
C1435 H1422 0.961 . S
C1435 H1423 0.959 . S
C1435 C1433 1.561 . S
C1436 C1433 1.526 . S
C1436 C1437 1.396 . S
C1436 C1441 1.390 . S
C1437 C1431 1.465 . S
C1437 C1436 1.396 . S
C1437 C1438 1.399 . S
C1438 H1424 0.929 . S
C1438 C1437 1.399 . S
C1438 C1439 1.385 . S
C1439 H1425 0.931 . S
C1439 C1438 1.385 . S
C1439 C1440 1.389 . S
C1440 C1439 1.389 . S
C1440 C1441 1.387 . S
C1441 H1426 0.930 . S
C1441 C1436 1.390 . S
C1441 C1440 1.387 . S
H1442 C1454 0.930 . S
H1443 C1456 0.930 . S
H1444 C1457 0.930 . S
H1445 C1461 0.959 . S
H1446 C1461 0.959 . S
H1447 C1461 0.961 . S
H1448 C1462 0.960 . S
H1449 C1462 0.961 . S
H1450 C1462 0.959 . S
H1451 C1465 0.929 . S
H1452 C1466 0.931 . S
H1453 C1468 0.930 . S
C1454 H1442 0.930 . S
C1454 C1455 1.399 . S
C1454 C1459 1.399 . S
C1455 C1454 1.399 . S
C1455 C1456 1.376 . S
C1456 H1443 0.930 . S
C1456 C1455 1.376 . S
C1456 C1457 1.388 . S
C1457 H1444 0.930 . S
C1457 C1456 1.388 . S
C1457 C1458 1.390 . S
C1458 C1457 1.390 . S
C1458 C1459 1.394 . S
C1458 C1464 1.465 . S
C1459 C1454 1.399 . S
C1459 C1458 1.394 . S
C1459 C1460 1.516 . S
C1460 C1459 1.516 . S
C1460 C1461 1.502 . S
C1460 C1462 1.561 . S
C1460 C1463 1.526 . S
C1461 H1445 0.959 . S
C1461 H1446 0.959 . S
C1461 H1447 0.961 . S
C1461 C1460 1.502 . S
C1462 H1448 0.960 . S
C1462 H1449 0.961 . S
C1462 H1450 0.959 . S
C1462 C1460 1.561 . S
C1463 C1460 1.526 . S
C1463 C1464 1.396 . S
C1463 C1468 1.390 . S
C1464 C1458 1.465 . S
C1464 C1463 1.396 . S
C1464 C1465 1.399 . S
C1465 H1451 0.929 . S
C1465 C1464 1.399 . S
C1465 C1466 1.385 . S
C1466 H1452 0.931 . S
C1466 C1465 1.385 . S
C1466 C1467 1.389 . S
C1467 C1466 1.389 . S
C1467 C1468 1.387 . S
C1468 H1453 0.930 . S
C1468 C1463 1.390 . S
C1468 C1467 1.387 . S
H1469 C1481 0.930 . S
H1470 C1483 0.930 . S
H1471 C1484 0.930 . S
H1472 C1488 0.959 . S
H1473 C1488 0.959 . S
H1474 C1488 0.961 . S
H1475 C1489 0.960 . S
H1476 C1489 0.961 . S
H1477 C1489 0.959 . S
H1478 C1492 0.929 . S
H1479 C1493 0.931 . S
H1480 C1495 0.930 . S
C1481 H1469 0.930 . S
C1481 C1482 1.399 . S
C1481 C1486 1.399 . S
C1482 C1481 1.399 . S
C1482 C1483 1.376 . S
C1483 H1470 0.930 . S
C1483 C1482 1.376 . S
C1483 C1484 1.388 . S
C1484 H1471 0.930 . S
C1484 C1483 1.388 . S
C1484 C1485 1.390 . S
C1485 C1484 1.390 . S
C1485 C1486 1.394 . S
C1485 C1491 1.465 . S
C1486 C1481 1.399 . S
C1486 C1485 1.394 . S
C1486 C1487 1.516 . S
C1487 C1486 1.516 . S
C1487 C1488 1.502 . S
C1487 C1489 1.561 . S
C1487 C1490 1.526 . S
C1488 H1472 0.959 . S
C1488 H1473 0.959 . S
C1488 H1474 0.961 . S
C1488 C1487 1.502 . S
C1489 H1475 0.960 . S
C1489 H1476 0.961 . S
C1489 H1477 0.959 . S
C1489 C1487 1.561 . S
C1490 C1487 1.526 . S
C1490 C1491 1.396 . S
C1490 C1495 1.390 . S
C1491 C1485 1.465 . S
C1491 C1490 1.396 . S
C1491 C1492 1.399 . S
C1492 H1478 0.929 . S
C1492 C1491 1.399 . S
C1492 C1493 1.385 . S
C1493 H1479 0.931 . S
C1493 C1492 1.385 . S
C1493 C1494 1.389 . S
C1494 C1493 1.389 . S
C1494 C1495 1.387 . S
C1495 H1480 0.930 . S
C1495 C1490 1.390 . S
C1495 C1494 1.387 . S
H1496 C1508 0.930 . S
H1497 C1510 0.930 1_545 S
H1498 C1511 0.895 1_545 S
H1499 C1515 0.959 . S
H1500 C1515 0.959 . S
H1501 C1515 0.961 . S
H1502 C1516 0.960 . S
H1503 C1516 0.961 . S
H1504 C1516 0.959 . S
H1505 C1519 0.929 . S
H1506 C1520 0.931 . S
H1507 C1522 0.930 . S
C1508 H1496 0.930 . S
C1508 C1509 1.399 . S
C1508 C1513 1.399 . S
C1509 C1508 1.399 . S
C1509 C1510 1.376 . S
C1510 H1497 0.930 1_565 S
C1510 C1509 1.376 . S
C1510 C1511 1.388 . S
C1511 H1498 0.895 1_565 S
C1511 C1510 1.388 . S
C1511 C1512 1.390 . S
C1512 C1511 1.390 . S
C1512 C1513 1.394 . S
C1512 C1518 1.465 . S
C1513 C1508 1.399 . S
C1513 C1512 1.394 . S
C1513 C1514 1.516 . S
C1514 C1513 1.516 . S
C1514 C1515 1.502 . S
C1514 C1516 1.561 . S
C1514 C1517 1.526 . S
C1515 H1499 0.959 . S
C1515 H1500 0.959 . S
C1515 H1501 0.961 . S
C1515 C1514 1.502 . S
C1516 H1502 0.960 . S
C1516 H1503 0.961 . S
C1516 H1504 0.959 . S
C1516 C1514 1.561 . S
C1517 C1514 1.526 . S
C1517 C1518 1.396 . S
C1517 C1522 1.390 . S
C1518 C1512 1.465 . S
C1518 C1517 1.396 . S
C1518 C1519 1.399 . S
C1519 H1505 0.929 . S
C1519 C1518 1.399 . S
C1519 C1520 1.385 . S
C1520 H1506 0.931 . S
C1520 C1519 1.385 . S
C1520 C1521 1.389 . S
C1521 C1520 1.389 . S
C1521 C1522 1.387 . S
C1522 H1507 0.930 . S
C1522 C1517 1.390 . S
C1522 C1521 1.387 . S
H1523 C1535 0.930 . S
H1524 C1537 0.930 . S
H1525 C1538 0.930 1_554 S
H1526 C1542 0.959 . S
H1527 C1542 0.959 . S
H1528 C1542 0.961 1_556 S
H1529 C1543 0.960 . S
H1530 C1543 0.961 1_554 S
H1531 C1543 0.959 . S
H1532 C1546 0.929 . S
H1533 C1547 0.931 . S
H1534 C1549 0.930 . S
C1535 H1523 0.930 . S
C1535 C1536 1.399 . S
C1535 C1540 1.399 . S
C1536 C1535 1.399 . S
C1536 C1537 1.376 . S
C1537 H1524 0.930 . S
C1537 C1536 1.376 . S
C1537 C1538 1.388 . S
C1538 H1525 0.930 1_556 S
C1538 C1537 1.388 . S
C1538 C1539 1.390 1_556 S
C1539 C1538 1.390 1_554 S
C1539 C1540 1.394 1_554 S
C1539 C1545 1.465 . S
C1540 C1535 1.399 . S
C1540 C1539 1.394 1_556 S
C1540 C1541 1.516 1_556 S
C1541 C1540 1.516 1_554 S
C1541 C1542 1.502 . S
C1541 C1543 1.561 1_554 S
C1541 C1544 1.526 . S
C1542 H1526 0.959 . S
C1542 H1527 0.959 . S
C1542 H1528 0.961 1_554 S
C1542 C1541 1.502 . S
C1543 H1529 0.960 . S
C1543 H1530 0.961 1_556 S
C1543 H1531 0.959 . S
C1543 C1541 1.561 1_556 S
C1544 C1541 1.526 . S
C1544 C1545 1.396 . S
C1544 C1549 1.390 . S
C1545 C1539 1.465 . S
C1545 C1544 1.396 . S
C1545 C1546 1.399 . S
C1546 H1532 0.929 . S
C1546 C1545 1.399 . S
C1546 C1547 1.385 . S
C1547 H1533 0.931 . S
C1547 C1546 1.385 . S
C1547 C1548 1.389 . S
C1548 C1547 1.389 . S
C1548 C1549 1.387 . S
C1549 H1534 0.930 . S
C1549 C1544 1.390 . S
C1549 C1548 1.387 . S
H1550 C1562 0.930 . S
H1551 C1564 0.930 . S
H1552 C1565 0.930 . S
H1553 C1569 0.959 . S
H1554 C1569 0.959 . S
H1555 C1569 0.961 . S
H1556 C1570 0.960 . S
H1557 C1570 0.961 . S
H1558 C1570 0.959 . S
H1559 C1573 0.929 1_565 S
H1560 C1574 0.886 1_565 S
H1561 C1576 0.930 . S
C1562 H1550 0.930 . S
C1562 C1563 1.399 . S
C1562 C1567 1.399 . S
C1563 C1562 1.399 . S
C1563 C1564 1.376 . S
C1564 H1551 0.930 . S
C1564 C1563 1.376 . S
C1564 C1565 1.388 . S
C1565 H1552 0.930 . S
C1565 C1564 1.388 . S
C1565 C1566 1.390 . S
C1566 C1565 1.390 . S
C1566 C1567 1.394 . S
C1566 C1572 1.465 . S
C1567 C1562 1.399 . S
C1567 C1566 1.394 . S
C1567 C1568 1.516 . S
C1568 C1567 1.516 . S
C1568 C1569 1.502 . S
C1568 C1570 1.561 . S
C1568 C1571 1.526 . S
C1569 H1553 0.959 . S
C1569 H1554 0.959 . S
C1569 H1555 0.961 . S
C1569 C1568 1.502 . S
C1570 H1556 0.960 . S
C1570 H1557 0.961 . S
C1570 H1558 0.959 . S
C1570 C1568 1.561 . S
C1571 C1568 1.526 . S
C1571 C1572 1.396 . S
C1571 C1576 1.390 . S
C1572 C1566 1.465 . S
C1572 C1571 1.396 . S
C1572 C1573 1.399 . S
C1573 H1559 0.929 1_545 S
C1573 C1572 1.399 . S
C1573 C1574 1.396 . S
C1574 H1560 0.886 1_545 S
C1574 C1573 1.396 . S
C1574 C1575 1.424 . S
C1575 C1574 1.424 . S
C1575 C1576 1.387 . S
C1576 H1561 0.930 . S
C1576 C1571 1.390 . S
C1576 C1575 1.387 . S
H1577 C1589 0.930 . S
H1578 C1591 0.930 . S
H1579 C1592 0.930 . S
H1580 C1596 0.959 . S
H1581 C1596 0.959 . S
H1582 C1596 0.961 . S
H1583 C1597 0.960 . S
H1584 C1597 0.961 . S
H1585 C1597 0.959 . S
H1586 C1600 0.929 . S
H1587 C1601 0.931 . S
H1588 C1603 0.930 . S
C1589 H1577 0.930 . S
C1589 C1590 1.399 . S
C1589 C1594 1.399 . S
C1590 C1589 1.399 . S
C1590 C1591 1.376 . S
C1591 H1578 0.930 . S
C1591 C1590 1.376 . S
C1591 C1592 1.388 . S
C1592 H1579 0.930 . S
C1592 C1591 1.388 . S
C1592 C1593 1.390 . S
C1593 C1592 1.390 . S
C1593 C1594 1.394 . S
C1593 C1599 1.465 . S
C1594 C1589 1.399 . S
C1594 C1593 1.394 . S
C1594 C1595 1.516 . S
C1595 C1594 1.516 . S
C1595 C1596 1.502 . S
C1595 C1597 1.561 . S
C1595 C1598 1.526 . S
C1596 H1580 0.959 . S
C1596 H1581 0.959 . S
C1596 H1582 0.961 . S
C1596 C1595 1.502 . S
C1597 H1583 0.960 . S
C1597 H1584 0.961 . S
C1597 H1585 0.959 . S
C1597 C1595 1.561 . S
C1598 C1595 1.526 . S
C1598 C1599 1.396 . S
C1598 C1603 1.390 . S
C1599 C1593 1.465 . S
C1599 C1598 1.396 . S
C1599 C1600 1.399 . S
C1600 H1586 0.929 . S
C1600 C1599 1.399 . S
C1600 C1601 1.385 . S
C1601 H1587 0.931 . S
C1601 C1600 1.385 . S
C1601 C1602 1.389 . S
C1602 C1601 1.389 . S
C1602 C1603 1.387 . S
C1603 H1588 0.930 . S
C1603 C1598 1.390 . S
C1603 C1602 1.387 . S
H1604 C1616 0.930 . S
H1605 C1618 0.930 . S
H1606 C1619 0.930 . S
H1607 C1623 0.959 . S
H1608 C1623 0.959 . S
H1609 C1623 0.961 . S
H1610 C1624 0.960 . S
H1611 C1624 0.961 . S
H1612 C1624 0.959 . S
H1613 C1627 0.929 . S
H1614 C1628 0.931 1_565 S
H1615 C1630 0.930 . S
C1616 H1604 0.930 . S
C1616 C1617 1.399 . S
C1616 C1621 1.399 . S
C1617 C1616 1.399 . S
C1617 C1618 1.376 . S
C1618 H1605 0.930 . S
C1618 C1617 1.376 . S
C1618 C1619 1.388 . S
C1619 H1606 0.930 . S
C1619 C1618 1.388 . S
C1619 C1620 1.390 . S
C1620 C1619 1.390 . S
C1620 C1621 1.394 . S
C1620 C1626 1.465 . S
C1621 C1616 1.399 . S
C1621 C1620 1.394 . S
C1621 C1622 1.516 . S
C1622 C1621 1.516 . S
C1622 C1623 1.502 . S
C1622 C1624 1.561 . S
C1622 C1625 1.526 . S
C1623 H1607 0.959 . S
C1623 H1608 0.959 . S
C1623 H1609 0.961 . S
C1623 C1622 1.502 . S
C1624 H1610 0.960 . S
C1624 H1611 0.961 . S
C1624 H1612 0.959 . S
C1624 C1622 1.561 . S
C1625 C1622 1.526 . S
C1625 C1626 1.396 . S
C1625 C1630 1.390 . S
C1626 C1620 1.465 . S
C1626 C1625 1.396 . S
C1626 C1627 1.399 . S
C1627 H1613 0.929 . S
C1627 C1626 1.399 . S
C1627 C1628 1.385 . S
C1628 H1614 0.931 1_545 S
C1628 C1627 1.385 . S
C1628 C1629 1.389 . S
C1629 C1628 1.389 . S
C1629 C1630 1.387 . S
C1630 H1615 0.930 . S
C1630 C1625 1.390 . S
C1630 C1629 1.387 . S
H1631 C1643 0.930 . S
H1632 C1645 0.930 . S
H1633 C1646 0.930 . S
H1634 C1650 0.959 . S
H1635 C1650 0.959 . S
H1636 C1650 0.961 . S
H1637 C1651 0.960 . S
H1638 C1651 0.961 . S
H1639 C1651 0.959 . S
H1640 C1654 0.929 . S
H1641 C1655 0.931 . S
H1642 C1657 0.930 . S
C1643 H1631 0.930 . S
C1643 C1644 1.399 . S
C1643 C1648 1.399 . S
C1644 C1643 1.399 . S
C1644 C1645 1.376 . S
C1645 H1632 0.930 . S
C1645 C1644 1.376 . S
C1645 C1646 1.388 . S
C1646 H1633 0.930 . S
C1646 C1645 1.388 . S
C1646 C1647 1.390 . S
C1647 C1646 1.390 . S
C1647 C1648 1.394 . S
C1647 C1653 1.465 . S
C1648 C1643 1.399 . S
C1648 C1647 1.394 . S
C1648 C1649 1.516 . S
C1649 C1648 1.516 . S
C1649 C1650 1.502 . S
C1649 C1651 1.561 . S
C1649 C1652 1.526 . S
C1650 H1634 0.959 . S
C1650 H1635 0.959 . S
C1650 H1636 0.961 . S
C1650 C1649 1.502 . S
C1651 H1637 0.960 . S
C1651 H1638 0.961 . S
C1651 H1639 0.959 . S
C1651 C1649 1.561 . S
C1652 C1649 1.526 . S
C1652 C1653 1.396 . S
C1652 C1657 1.390 . S
C1653 C1647 1.465 . S
C1653 C1652 1.396 . S
C1653 C1654 1.399 . S
C1654 H1640 0.929 . S
C1654 C1653 1.399 . S
C1654 C1655 1.385 . S
C1655 H1641 0.931 . S
C1655 C1654 1.385 . S
C1655 C1656 1.389 . S
C1656 C1655 1.389 . S
C1656 C1657 1.387 . S
C1657 H1642 0.930 . S
C1657 C1652 1.390 . S
C1657 C1656 1.387 . S
H1658 C1670 0.930 . S
H1659 C1672 0.930 . S
H1660 C1673 0.930 . S
H1661 C1677 0.959 . S
H1662 C1677 0.946 1_556 S
H1663 C1677 0.961 . S
H1664 C1678 0.960 . S
H1665 C1678 0.961 1_556 S
H1666 C1678 0.959 . S
H1667 C1681 0.929 1_545 S
H1668 C1682 0.881 1_545 S
H1669 C1684 0.930 . S
C1670 H1658 0.930 . S
C1670 C1671 1.399 . S
C1670 C1675 1.399 . S
C1671 C1670 1.399 . S
C1671 C1672 1.376 . S
C1672 H1659 0.930 . S
C1672 C1671 1.376 . S
C1672 C1673 1.388 . S
C1673 H1660 0.930 . S
C1673 C1672 1.388 . S
C1673 C1674 1.390 . S
C1674 C1673 1.390 . S
C1674 C1675 1.394 . S
C1674 C1680 1.465 . S
C1675 C1670 1.399 . S
C1675 C1674 1.394 . S
C1675 C1676 1.516 . S
C1676 C1675 1.516 . S
C1676 C1677 1.502 . S
C1676 C1678 1.561 . S
C1676 C1679 1.526 . S
C1677 H1661 0.959 . S
C1677 H1662 0.946 1_554 S
C1677 H1663 0.961 . S
C1677 C1676 1.502 . S
C1678 H1664 0.960 . S
C1678 H1665 0.961 1_554 S
C1678 H1666 0.959 . S
C1678 C1676 1.561 . S
C1679 C1676 1.526 . S
C1679 C1680 1.396 . S
C1679 C1684 1.390 1_554 S
C1680 C1674 1.465 . S
C1680 C1679 1.396 . S
C1680 C1681 1.399 . S
C1681 H1667 0.929 1_565 S
C1681 C1680 1.399 . S
C1681 C1682 1.397 1_554 S
C1682 H1668 0.881 1_565 S
C1682 C1681 1.397 1_556 S
C1682 C1683 1.427 . S
C1683 C1682 1.427 . S
C1683 C1684 1.387 . S
C1684 H1669 0.930 . S
C1684 C1679 1.390 1_556 S
C1684 C1683 1.387 . S
H1685 C1697 0.930 . S
H1686 C1699 0.930 . S
H1687 C1700 0.930 . S
H1688 C1704 0.959 . S
H1689 C1704 0.959 . S
H1690 C1704 0.961 . S
H1691 C1705 0.960 . S
H1692 C1705 0.961 . S
H1693 C1705 0.959 . S
H1694 C1708 0.929 . S
H1695 C1709 0.931 . S
H1696 C1711 0.930 . S
C1697 H1685 0.930 . S
C1697 C1698 1.399 . S
C1697 C1702 1.399 . S
C1698 C1697 1.399 . S
C1698 C1699 1.376 . S
C1699 H1686 0.930 . S
C1699 C1698 1.376 . S
C1699 C1700 1.388 . S
C1700 H1687 0.930 . S
C1700 C1699 1.388 . S
C1700 C1701 1.390 . S
C1701 C1700 1.390 . S
C1701 C1702 1.394 . S
C1701 C1707 1.465 . S
C1702 C1697 1.399 . S
C1702 C1701 1.394 . S
C1702 C1703 1.516 . S
C1703 C1702 1.516 . S
C1703 C1704 1.502 . S
C1703 C1705 1.561 . S
C1703 C1706 1.526 . S
C1704 H1688 0.959 . S
C1704 H1689 0.959 . S
C1704 H1690 0.961 . S
C1704 C1703 1.502 . S
C1705 H1691 0.960 . S
C1705 H1692 0.961 . S
C1705 H1693 0.959 . S
C1705 C1703 1.561 . S
C1706 C1703 1.526 . S
C1706 C1707 1.396 . S
C1706 C1711 1.390 . S
C1707 C1701 1.465 . S
C1707 C1706 1.396 . S
C1707 C1708 1.399 . S
C1708 H1694 0.929 . S
C1708 C1707 1.399 . S
C1708 C1709 1.385 . S
C1709 H1695 0.931 . S
C1709 C1708 1.385 . S
C1709 C1710 1.389 . S
C1710 C1709 1.389 . S
C1710 C1711 1.387 . S
C1711 H1696 0.930 . S
C1711 C1706 1.390 . S
C1711 C1710 1.387 . S
H1712 C1724 0.930 . S
H1713 C1726 0.930 . S
H1714 C1727 0.930 . S
H1715 C1731 0.959 . S
H1716 C1731 0.959 . S
H1717 C1731 0.961 . S
H1718 C1732 0.960 . S
H1719 C1732 0.961 . S
H1720 C1732 0.959 . S
H1721 C1735 0.929 . S
H1722 C1736 0.931 . S
H1723 C1738 0.930 . S
C1724 H1712 0.930 . S
C1724 C1725 1.399 . S
C1724 C1729 1.399 . S
C1725 C1724 1.399 . S
C1725 C1726 1.376 . S
C1726 H1713 0.930 . S
C1726 C1725 1.376 . S
C1726 C1727 1.388 . S
C1727 H1714 0.930 . S
C1727 C1726 1.388 . S
C1727 C1728 1.390 . S
C1728 C1727 1.390 . S
C1728 C1729 1.394 . S
C1728 C1734 1.465 . S
C1729 C1724 1.399 . S
C1729 C1728 1.394 . S
C1729 C1730 1.516 . S
C1730 C1729 1.516 . S
C1730 C1731 1.502 . S
C1730 C1732 1.561 . S
C1730 C1733 1.526 . S
C1731 H1715 0.959 . S
C1731 H1716 0.959 . S
C1731 H1717 0.961 . S
C1731 C1730 1.502 . S
C1732 H1718 0.960 . S
C1732 H1719 0.961 . S
C1732 H1720 0.959 . S
C1732 C1730 1.561 . S
C1733 C1730 1.526 . S
C1733 C1734 1.396 . S
C1733 C1738 1.390 . S
C1734 C1728 1.465 . S
C1734 C1733 1.396 . S
C1734 C1735 1.399 . S
C1735 H1721 0.929 . S
C1735 C1734 1.399 . S
C1735 C1736 1.385 . S
C1736 H1722 0.931 . S
C1736 C1735 1.385 . S
C1736 C1737 1.389 . S
C1737 C1736 1.389 . S
C1737 C1738 1.387 . S
C1738 H1723 0.930 . S
C1738 C1733 1.390 . S
C1738 C1737 1.387 . S
H1739 C1751 0.930 . S
H1740 C1753 0.930 . S
H1741 C1754 0.930 . S
H1742 C1758 0.959 . S
H1743 C1758 0.959 . S
H1744 C1758 0.961 . S
H1745 C1759 0.960 . S
H1746 C1759 0.961 . S
H1747 C1759 0.959 . S
H1748 C1762 0.929 . S
H1749 C1763 0.931 . S
H1750 C1765 0.930 . S
C1751 H1739 0.930 . S
C1751 C1752 1.399 . S
C1751 C1756 1.399 . S
C1752 C1751 1.399 . S
C1752 C1753 1.376 . S
C1753 H1740 0.930 . S
C1753 C1752 1.376 . S
C1753 C1754 1.388 . S
C1754 H1741 0.930 . S
C1754 C1753 1.388 . S
C1754 C1755 1.390 . S
C1755 C1754 1.390 . S
C1755 C1756 1.394 . S
C1755 C1761 1.465 . S
C1756 C1751 1.399 . S
C1756 C1755 1.394 . S
C1756 C1757 1.516 . S
C1757 C1756 1.516 . S
C1757 C1758 1.502 . S
C1757 C1759 1.561 . S
C1757 C1760 1.526 . S
C1758 H1742 0.959 . S
C1758 H1743 0.959 . S
C1758 H1744 0.961 . S
C1758 C1757 1.502 . S
C1759 H1745 0.960 . S
C1759 H1746 0.961 . S
C1759 H1747 0.959 . S
C1759 C1757 1.561 . S
C1760 C1757 1.526 . S
C1760 C1761 1.396 . S
C1760 C1765 1.390 . S
C1761 C1755 1.465 . S
C1761 C1760 1.396 . S
C1761 C1762 1.399 . S
C1762 H1748 0.929 . S
C1762 C1761 1.399 . S
C1762 C1763 1.385 . S
C1763 H1749 0.931 . S
C1763 C1762 1.385 . S
C1763 C1764 1.389 . S
C1764 C1763 1.389 . S
C1764 C1765 1.387 . S
C1765 H1750 0.930 . S
C1765 C1760 1.390 . S
C1765 C1764 1.387 . S
H1766 C1778 0.930 . S
H1767 C1780 0.930 . S
H1768 C1781 0.930 . S
H1769 C1785 0.959 . S
H1770 C1785 0.959 . S
H1771 C1785 0.961 . S
H1772 C1786 0.960 . S
H1773 C1786 0.961 . S
H1774 C1786 0.959 . S
H1775 C1789 0.929 . S
H1776 C1790 0.931 . S
H1777 C1792 0.930 . S
C1778 H1766 0.930 . S
C1778 C1779 1.399 . S
C1778 C1783 1.399 . S
C1779 C1778 1.399 . S
C1779 C1780 1.376 . S
C1780 H1767 0.930 . S
C1780 C1779 1.376 . S
C1780 C1781 1.388 . S
C1781 H1768 0.930 . S
C1781 C1780 1.388 . S
C1781 C1782 1.390 . S
C1782 C1781 1.390 . S
C1782 C1783 1.394 . S
C1782 C1788 1.465 . S
C1783 C1778 1.399 . S
C1783 C1782 1.394 . S
C1783 C1784 1.516 . S
C1784 C1783 1.516 . S
C1784 C1785 1.502 . S
C1784 C1786 1.561 . S
C1784 C1787 1.526 . S
C1785 H1769 0.959 . S
C1785 H1770 0.959 . S
C1785 H1771 0.961 . S
C1785 C1784 1.502 . S
C1786 H1772 0.960 . S
C1786 H1773 0.961 . S
C1786 H1774 0.959 . S
C1786 C1784 1.561 . S
C1787 C1784 1.526 . S
C1787 C1788 1.396 . S
C1787 C1792 1.390 . S
C1788 C1782 1.465 . S
C1788 C1787 1.396 . S
C1788 C1789 1.399 . S
C1789 H1775 0.929 . S
C1789 C1788 1.399 . S
C1789 C1790 1.385 . S
C1790 H1776 0.931 . S
C1790 C1789 1.385 . S
C1790 C1791 1.389 . S
C1791 C1790 1.389 . S
C1791 C1792 1.387 . S
C1792 H1777 0.930 . S
C1792 C1787 1.390 . S
C1792 C1791 1.387 . S
H1793 C1805 0.930 . S
H1794 C1807 0.930 . S
H1795 C1808 0.930 . S
H1796 C1812 0.959 1_556 S
H1797 C1812 0.959 . S
H1798 C1812 0.964 . S
H1799 C1813 0.960 . S
H1800 C1813 0.961 . S
H1801 C1813 0.959 . S
H1802 C1816 0.929 . S
H1803 C1817 0.931 . S
H1804 C1819 0.930 . S
C1805 H1793 0.930 . S
C1805 C1806 1.399 . S
C1805 C1810 1.399 . S
C1806 C1805 1.399 . S
C1806 C1807 1.376 . S
C1807 H1794 0.930 . S
C1807 C1806 1.376 . S
C1807 C1808 1.388 . S
C1808 H1795 0.930 . S
C1808 C1807 1.388 . S
C1808 C1809 1.390 . S
C1809 C1808 1.390 . S
C1809 C1810 1.394 . S
C1809 C1815 1.465 . S
C1810 C1805 1.399 . S
C1810 C1809 1.394 . S
C1810 C1811 1.516 . S
C1811 C1810 1.516 . S
C1811 C1812 1.502 1_556 S
C1811 C1813 1.561 1_556 S
C1811 C1814 1.526 1_556 S
C1812 H1796 0.959 1_554 S
C1812 H1797 0.959 . S
C1812 H1798 0.964 . S
C1812 C1811 1.502 1_554 S
C1813 H1799 0.960 . S
C1813 H1800 0.961 . S
C1813 H1801 0.959 . S
C1813 C1811 1.561 1_554 S
C1814 C1811 1.526 1_554 S
C1814 C1815 1.396 1_554 S
C1814 C1819 1.390 . S
C1815 C1809 1.465 . S
C1815 C1814 1.396 1_556 S
C1815 C1816 1.399 . S
C1816 H1802 0.929 . S
C1816 C1815 1.399 . S
C1816 C1817 1.390 . S
C1817 H1803 0.931 . S
C1817 C1816 1.390 . S
C1817 C1818 1.384 1_556 S
C1818 C1817 1.384 1_554 S
C1818 C1819 1.387 . S
C1819 H1804 0.930 . S
C1819 C1814 1.390 . S
C1819 C1818 1.387 . S
H1820 C1832 0.930 . S
H1821 C1834 0.930 . S
H1822 C1835 0.930 . S
H1823 C1839 0.959 . S
H1824 C1839 0.959 . S
H1825 C1839 0.961 . S
H1826 C1840 0.960 . S
H1827 C1840 0.961 . S
H1828 C1840 0.959 . S
H1829 C1843 0.929 . S
H1830 C1844 0.931 . S
H1831 C1846 0.930 . S
C1832 H1820 0.930 . S
C1832 C1833 1.399 . S
C1832 C1837 1.399 . S
C1833 C1832 1.399 . S
C1833 C1834 1.376 . S
C1834 H1821 0.930 . S
C1834 C1833 1.376 . S
C1834 C1835 1.388 . S
C1835 H1822 0.930 . S
C1835 C1834 1.388 . S
C1835 C1836 1.390 . S
C1836 C1835 1.390 . S
C1836 C1837 1.394 . S
C1836 C1842 1.465 . S
C1837 C1832 1.399 . S
C1837 C1836 1.394 . S
C1837 C1838 1.516 . S
C1838 C1837 1.516 . S
C1838 C1839 1.502 . S
C1838 C1840 1.561 . S
C1838 C1841 1.526 . S
C1839 H1823 0.959 . S
C1839 H1824 0.959 . S
C1839 H1825 0.961 . S
C1839 C1838 1.502 . S
C1840 H1826 0.960 . S
C1840 H1827 0.961 . S
C1840 H1828 0.959 . S
C1840 C1838 1.561 . S
C1841 C1838 1.526 . S
C1841 C1842 1.396 . S
C1841 C1846 1.390 . S
C1842 C1836 1.465 . S
C1842 C1841 1.396 . S
C1842 C1843 1.399 . S
C1843 H1829 0.929 . S
C1843 C1842 1.399 . S
C1843 C1844 1.385 . S
C1844 H1830 0.931 . S
C1844 C1843 1.385 . S
C1844 C1845 1.389 . S
C1845 C1844 1.389 . S
C1845 C1846 1.387 . S
C1846 H1831 0.930 . S
C1846 C1841 1.390 . S
C1846 C1845 1.387 . S
H1847 C1859 0.930 . S
H1848 C1861 0.930 . S
H1849 C1862 0.930 . S
H1850 C1866 0.959 . S
H1851 C1866 0.959 . S
H1852 C1866 0.961 . S
H1853 C1867 0.960 . S
H1854 C1867 0.961 . S
H1855 C1867 0.959 . S
H1856 C1870 0.929 . S
H1857 C1871 0.931 . S
H1858 C1873 0.930 . S
C1859 H1847 0.930 . S
C1859 C1860 1.399 . S
C1859 C1864 1.399 . S
C1860 C1859 1.399 . S
C1860 C1861 1.376 . S
C1861 H1848 0.930 . S
C1861 C1860 1.376 . S
C1861 C1862 1.388 . S
C1862 H1849 0.930 . S
C1862 C1861 1.388 . S
C1862 C1863 1.390 . S
C1863 C1862 1.390 . S
C1863 C1864 1.394 . S
C1863 C1869 1.465 . S
C1864 C1859 1.399 . S
C1864 C1863 1.394 . S
C1864 C1865 1.516 . S
C1865 C1864 1.516 . S
C1865 C1866 1.502 . S
C1865 C1867 1.561 . S
C1865 C1868 1.526 . S
C1866 H1850 0.959 . S
C1866 H1851 0.959 . S
C1866 H1852 0.961 . S
C1866 C1865 1.502 . S
C1867 H1853 0.960 . S
C1867 H1854 0.961 . S
C1867 H1855 0.959 . S
C1867 C1865 1.561 . S
C1868 C1865 1.526 . S
C1868 C1869 1.396 . S
C1868 C1873 1.390 . S
C1869 C1863 1.465 . S
C1869 C1868 1.396 . S
C1869 C1870 1.399 . S
C1870 H1856 0.929 . S
C1870 C1869 1.399 . S
C1870 C1871 1.385 . S
C1871 H1857 0.931 . S
C1871 C1870 1.385 . S
C1871 C1872 1.389 . S
C1872 C1871 1.389 . S
C1872 C1873 1.387 . S
C1873 H1858 0.930 . S
C1873 C1868 1.390 . S
C1873 C1872 1.387 . S
H1874 C1886 0.930 . S
H1875 C1888 0.930 . S
H1876 C1889 0.930 . S
H1877 C1893 0.959 . S
H1878 C1893 0.959 . S
H1879 C1893 0.961 . S
H1880 C1894 0.960 . S
H1881 C1894 0.961 . S
H1882 C1894 0.959 . S
H1883 C1897 0.929 . S
H1884 C1898 0.931 . S
H1885 C1900 0.930 . S
C1886 H1874 0.930 . S
C1886 C1887 1.399 . S
C1886 C1891 1.399 1_554 S
C1887 C1886 1.399 . S
C1887 C1888 1.376 . S
C1888 H1875 0.930 . S
C1888 C1887 1.376 . S
C1888 C1889 1.388 1_554 S
C1889 H1876 0.930 . S
C1889 C1888 1.388 1_556 S
C1889 C1890 1.390 . S
C1890 C1889 1.390 . S
C1890 C1891 1.394 . S
C1890 C1896 1.465 . S
C1891 C1886 1.399 1_556 S
C1891 C1890 1.394 . S
C1891 C1892 1.516 . S
C1892 C1891 1.516 . S
C1892 C1893 1.502 . S
C1892 C1894 1.561 1_556 S
C1892 C1895 1.526 . S
C1893 H1877 0.959 . S
C1893 H1878 0.959 . S
C1893 H1879 0.961 . S
C1893 C1892 1.502 . S
C1894 H1880 0.960 . S
C1894 H1881 0.961 . S
C1894 H1882 0.959 . S
C1894 C1892 1.561 1_554 S
C1895 C1892 1.526 . S
C1895 C1896 1.396 . S
C1895 C1900 1.390 . S
C1896 C1890 1.465 . S
C1896 C1895 1.396 . S
C1896 C1897 1.399 . S
C1897 H1883 0.929 . S
C1897 C1896 1.399 . S
C1897 C1898 1.385 . S
C1898 H1884 0.931 . S
C1898 C1897 1.385 . S
C1898 C1899 1.389 . S
C1899 C1898 1.389 . S
C1899 C1900 1.387 . S
C1900 H1885 0.930 . S
C1900 C1895 1.390 . S
C1900 C1899 1.387 . S
H1901 C1913 0.930 . S
H1902 C1915 0.930 . S
H1903 C1916 0.930 . S
H1904 C1920 0.959 . S
H1905 C1920 0.959 . S
H1906 C1920 0.961 . S
H1907 C1921 0.960 . S
H1908 C1921 0.961 . S
H1909 C1921 0.959 . S
H1910 C1924 0.929 . S
H1911 C1925 0.931 . S
H1912 C1927 0.930 . S
C1913 H1901 0.930 . S
C1913 C1914 1.399 . S
C1913 C1918 1.399 . S
C1914 C1913 1.399 . S
C1914 C1915 1.376 . S
C1915 H1902 0.930 . S
C1915 C1914 1.376 . S
C1915 C1916 1.388 . S
C1916 H1903 0.930 . S
C1916 C1915 1.388 . S
C1916 C1917 1.390 . S
C1917 C1916 1.390 . S
C1917 C1918 1.394 . S
C1917 C1923 1.465 . S
C1918 C1913 1.399 . S
C1918 C1917 1.394 . S
C1918 C1919 1.516 . S
C1919 C1918 1.516 . S
C1919 C1920 1.502 . S
C1919 C1921 1.561 . S
C1919 C1922 1.526 . S
C1920 H1904 0.959 . S
C1920 H1905 0.959 . S
C1920 H1906 0.961 . S
C1920 C1919 1.502 . S
C1921 H1907 0.960 . S
C1921 H1908 0.961 . S
C1921 H1909 0.959 . S
C1921 C1919 1.561 . S
C1922 C1919 1.526 . S
C1922 C1923 1.396 . S
C1922 C1927 1.390 . S
C1923 C1917 1.465 . S
C1923 C1922 1.396 . S
C1923 C1924 1.399 . S
C1924 H1910 0.929 . S
C1924 C1923 1.399 . S
C1924 C1925 1.385 . S
C1925 H1911 0.931 . S
C1925 C1924 1.385 . S
C1925 C1926 1.389 . S
C1926 C1925 1.389 . S
C1926 C1927 1.387 . S
C1927 H1912 0.930 . S
C1927 C1922 1.390 . S
C1927 C1926 1.387 . S
H1928 C1940 0.930 . S
H1929 C1942 0.930 . S
H1930 C1943 0.930 . S
H1931 C1947 0.959 . S
H1932 C1947 0.959 . S
H1933 C1947 0.961 . S
H1934 C1948 0.960 . S
H1935 C1948 0.961 . S
H1936 C1948 0.959 . S
H1937 C1951 0.929 . S
H1938 C1952 0.931 . S
H1939 C1954 0.930 . S
C1940 H1928 0.930 . S
C1940 C1941 1.399 . S
C1940 C1945 1.399 . S
C1941 C1940 1.399 . S
C1941 C1942 1.376 . S
C1942 H1929 0.930 . S
C1942 C1941 1.376 . S
C1942 C1943 1.388 . S
C1943 H1930 0.930 . S
C1943 C1942 1.388 . S
C1943 C1944 1.390 . S
C1944 C1943 1.390 . S
C1944 C1945 1.394 . S
C1944 C1950 1.465 . S
C1945 C1940 1.399 . S
C1945 C1944 1.394 . S
C1945 C1946 1.516 . S
C1946 C1945 1.516 . S
C1946 C1947 1.502 . S
C1946 C1948 1.561 . S
C1946 C1949 1.526 . S
C1947 H1931 0.959 . S
C1947 H1932 0.959 . S
C1947 H1933 0.961 . S
C1947 C1946 1.502 . S
C1948 H1934 0.960 . S
C1948 H1935 0.961 . S
C1948 H1936 0.959 . S
C1948 C1946 1.561 . S
C1949 C1946 1.526 . S
C1949 C1950 1.396 . S
C1949 C1954 1.390 . S
C1950 C1944 1.465 . S
C1950 C1949 1.396 . S
C1950 C1951 1.399 . S
C1951 H1937 0.929 . S
C1951 C1950 1.399 . S
C1951 C1952 1.385 . S
C1952 H1938 0.931 . S
C1952 C1951 1.385 . S
C1952 C1953 1.389 . S
C1953 C1952 1.389 . S
C1953 C1954 1.387 . S
C1954 H1939 0.930 . S
C1954 C1949 1.390 . S
C1954 C1953 1.387 . S
H1955 C1967 0.930 . S
H1956 C1969 0.930 . S
H1957 C1970 0.930 . S
H1958 C1974 0.959 . S
H1959 C1974 0.959 . S
H1960 C1974 0.961 . S
H1961 C1975 0.960 . S
H1962 C1975 0.961 . S
H1963 C1975 0.959 . S
H1964 C1978 0.929 . S
H1965 C1979 0.931 . S
H1966 C1981 0.930 . S
C1967 H1955 0.930 . S
C1967 C1968 1.399 . S
C1967 C1972 1.399 . S
C1968 C1967 1.399 . S
C1968 C1969 1.376 . S
C1969 H1956 0.930 . S
C1969 C1968 1.376 . S
C1969 C1970 1.388 . S
C1970 H1957 0.930 . S
C1970 C1969 1.388 . S
C1970 C1971 1.390 . S
C1971 C1970 1.390 . S
C1971 C1972 1.394 . S
C1971 C1977 1.465 . S
C1972 C1967 1.399 . S
C1972 C1971 1.394 . S
C1972 C1973 1.516 . S
C1973 C1972 1.516 . S
C1973 C1974 1.502 . S
C1973 C1975 1.561 . S
C1973 C1976 1.526 . S
C1974 H1958 0.959 . S
C1974 H1959 0.959 . S
C1974 H1960 0.961 . S
C1974 C1973 1.502 . S
C1975 H1961 0.960 . S
C1975 H1962 0.961 . S
C1975 H1963 0.959 . S
C1975 C1973 1.561 . S
C1976 C1973 1.526 . S
C1976 C1977 1.396 . S
C1976 C1981 1.390 . S
C1977 C1971 1.465 . S
C1977 C1976 1.396 . S
C1977 C1978 1.399 . S
C1978 H1964 0.929 . S
C1978 C1977 1.399 . S
C1978 C1979 1.385 . S
C1979 H1965 0.931 . S
C1979 C1978 1.385 . S
C1979 C1980 1.389 . S
C1980 C1979 1.389 . S
C1980 C1981 1.387 . S
C1981 H1966 0.930 . S
C1981 C1976 1.390 . S
C1981 C1980 1.387 . S
H1982 C1994 0.930 . S
H1983 C1996 0.930 . S
H1984 C1997 0.930 . S
H1985 C2001 0.959 . S
H1986 C2001 0.959 . S
H1987 C2001 0.961 . S
H1988 C2002 0.960 . S
H1989 C2002 0.961 . S
H1990 C2002 0.959 . S
H1991 C2005 0.929 . S
H1992 C2006 0.931 . S
H1993 C2008 0.930 . S
C1994 H1982 0.930 . S
C1994 C1995 1.399 . S
C1994 C1999 1.399 . S
C1995 C1994 1.399 . S
C1995 C1996 1.376 . S
C1996 H1983 0.930 . S
C1996 C1995 1.376 . S
C1996 C1997 1.388 . S
C1997 H1984 0.930 . S
C1997 C1996 1.388 . S
C1997 C1998 1.390 . S
C1998 C1997 1.390 . S
C1998 C1999 1.394 . S
C1998 C2004 1.465 . S
C1999 C1994 1.399 . S
C1999 C1998 1.394 . S
C1999 C2000 1.516 . S
C2000 C1999 1.516 . S
C2000 C2001 1.502 . S
C2000 C2002 1.561 . S
C2000 C2003 1.526 . S
C2001 H1985 0.959 . S
C2001 H1986 0.959 . S
C2001 H1987 0.961 . S
C2001 C2000 1.502 . S
C2002 H1988 0.960 . S
C2002 H1989 0.961 . S
C2002 H1990 0.959 . S
C2002 C2000 1.561 . S
C2003 C2000 1.526 . S
C2003 C2004 1.396 . S
C2003 C2008 1.390 . S
C2004 C1998 1.465 . S
C2004 C2003 1.396 . S
C2004 C2005 1.399 . S
C2005 H1991 0.929 . S
C2005 C2004 1.399 . S
C2005 C2006 1.385 . S
C2006 H1992 0.931 . S
C2006 C2005 1.385 . S
C2006 C2007 1.389 . S
C2007 C2006 1.389 . S
C2007 C2008 1.387 . S
C2008 H1993 0.930 . S
C2008 C2003 1.390 . S
C2008 C2007 1.387 . S
H2009 C2021 0.930 . S
H2010 C2023 0.930 . S
H2011 C2024 0.930 . S
H2012 C2028 0.959 . S
H2013 C2028 0.959 . S
H2014 C2028 0.961 . S
H2015 C2029 0.960 . S
H2016 C2029 0.961 . S
H2017 C2029 0.959 . S
H2018 C2032 0.929 . S
H2019 C2033 0.931 . S
H2020 C2035 0.930 . S
C2021 H2009 0.930 . S
C2021 C2022 1.399 . S
C2021 C2026 1.399 . S
C2022 C2021 1.399 . S
C2022 C2023 1.376 . S
C2023 H2010 0.930 . S
C2023 C2022 1.376 . S
C2023 C2024 1.388 . S
C2024 H2011 0.930 . S
C2024 C2023 1.388 . S
C2024 C2025 1.390 . S
C2025 C2024 1.390 . S
C2025 C2026 1.394 . S
C2025 C2031 1.465 . S
C2026 C2021 1.399 . S
C2026 C2025 1.394 . S
C2026 C2027 1.516 . S
C2027 C2026 1.516 . S
C2027 C2028 1.502 . S
C2027 C2029 1.561 . S
C2027 C2030 1.526 . S
C2028 H2012 0.959 . S
C2028 H2013 0.959 . S
C2028 H2014 0.961 . S
C2028 C2027 1.502 . S
C2029 H2015 0.960 . S
C2029 H2016 0.961 . S
C2029 H2017 0.959 . S
C2029 C2027 1.561 . S
C2030 C2027 1.526 . S
C2030 C2031 1.396 . S
C2030 C2035 1.390 . S
C2031 C2025 1.465 . S
C2031 C2030 1.396 . S
C2031 C2032 1.399 . S
C2032 H2018 0.929 . S
C2032 C2031 1.399 . S
C2032 C2033 1.385 . S
C2033 H2019 0.931 . S
C2033 C2032 1.385 . S
C2033 C2034 1.389 . S
C2034 C2033 1.389 . S
C2034 C2035 1.387 . S
C2035 H2020 0.930 . S
C2035 C2030 1.390 . S
C2035 C2034 1.387 . S
H2036 C2048 0.930 . S
H2037 C2050 0.930 . S
H2038 C2051 0.930 . S
H2039 C2055 0.959 . S
H2040 C2055 0.959 . S
H2041 C2055 0.961 . S
H2042 C2056 0.960 . S
H2043 C2056 0.961 . S
H2044 C2056 0.959 . S
H2045 C2059 0.929 . S
H2046 C2060 0.931 . S
H2047 C2062 0.930 . S
C2048 H2036 0.930 . S
C2048 C2049 1.399 . S
C2048 C2053 1.399 . S
C2049 C2048 1.399 . S
C2049 C2050 1.376 . S
C2050 H2037 0.930 . S
C2050 C2049 1.376 . S
C2050 C2051 1.388 . S
C2051 H2038 0.930 . S
C2051 C2050 1.388 . S
C2051 C2052 1.390 . S
C2052 C2051 1.390 . S
C2052 C2053 1.394 . S
C2052 C2058 1.465 . S
C2053 C2048 1.399 . S
C2053 C2052 1.394 . S
C2053 C2054 1.516 . S
C2054 C2053 1.516 . S
C2054 C2055 1.502 . S
C2054 C2056 1.561 . S
C2054 C2057 1.526 . S
C2055 H2039 0.959 . S
C2055 H2040 0.959 . S
C2055 H2041 0.961 . S
C2055 C2054 1.502 . S
C2056 H2042 0.960 . S
C2056 H2043 0.961 . S
C2056 H2044 0.959 . S
C2056 C2054 1.561 . S
C2057 C2054 1.526 . S
C2057 C2058 1.396 . S
C2057 C2062 1.390 . S
C2058 C2052 1.465 . S
C2058 C2057 1.396 . S
C2058 C2059 1.399 . S
C2059 H2045 0.929 . S
C2059 C2058 1.399 . S
C2059 C2060 1.385 . S
C2060 H2046 0.931 . S
C2060 C2059 1.385 . S
C2060 C2061 1.389 . S
C2061 C2060 1.389 . S
C2061 C2062 1.387 . S
C2062 H2047 0.930 . S
C2062 C2057 1.390 . S
C2062 C2061 1.387 . S
H2063 C2075 0.930 . S
H2064 C2077 0.930 . S
H2065 C2078 0.930 . S
H2066 C2082 0.959 . S
H2067 C2082 0.959 . S
H2068 C2082 0.961 . S
H2069 C2083 0.960 . S
H2070 C2083 0.961 . S
H2071 C2083 0.959 . S
H2072 C2086 0.929 . S
H2073 C2087 0.931 . S
H2074 C2089 0.930 . S
C2075 H2063 0.930 . S
C2075 C2076 1.399 . S
C2075 C2080 1.399 . S
C2076 C2075 1.399 . S
C2076 C2077 1.376 . S
C2077 H2064 0.930 . S
C2077 C2076 1.376 . S
C2077 C2078 1.388 . S
C2078 H2065 0.930 . S
C2078 C2077 1.388 . S
C2078 C2079 1.390 . S
C2079 C2078 1.390 . S
C2079 C2080 1.394 . S
C2079 C2085 1.465 . S
C2080 C2075 1.399 . S
C2080 C2079 1.394 . S
C2080 C2081 1.516 . S
C2081 C2080 1.516 . S
C2081 C2082 1.502 . S
C2081 C2083 1.561 . S
C2081 C2084 1.526 . S
C2082 H2066 0.959 . S
C2082 H2067 0.959 . S
C2082 H2068 0.961 . S
C2082 C2081 1.502 . S
C2083 H2069 0.960 . S
C2083 H2070 0.961 . S
C2083 H2071 0.959 . S
C2083 C2081 1.561 . S
C2084 C2081 1.526 . S
C2084 C2085 1.396 . S
C2084 C2089 1.390 . S
C2085 C2079 1.465 . S
C2085 C2084 1.396 . S
C2085 C2086 1.399 . S
C2086 H2072 0.929 . S
C2086 C2085 1.399 . S
C2086 C2087 1.385 . S
C2087 H2073 0.931 . S
C2087 C2086 1.385 . S
C2087 C2088 1.389 . S
C2088 C2087 1.389 . S
C2088 C2089 1.387 . S
C2089 H2074 0.930 . S
C2089 C2084 1.390 . S
C2089 C2088 1.387 . S
H2090 C2102 0.930 . S
H2091 C2104 0.930 . S
H2092 C2105 0.930 . S
H2093 C2109 0.959 . S
H2094 C2109 0.959 . S
H2095 C2109 0.961 . S
H2096 C2110 0.960 . S
H2097 C2110 0.961 . S
H2098 C2110 0.959 . S
H2099 C2113 0.929 . S
H2100 C2114 0.931 . S
H2101 C2116 0.930 . S
C2102 H2090 0.930 . S
C2102 C2103 1.399 . S
C2102 C2107 1.399 . S
C2103 C2102 1.399 . S
C2103 C2104 1.376 . S
C2104 H2091 0.930 . S
C2104 C2103 1.376 . S
C2104 C2105 1.388 . S
C2105 H2092 0.930 . S
C2105 C2104 1.388 . S
C2105 C2106 1.390 . S
C2106 C2105 1.390 . S
C2106 C2107 1.394 . S
C2106 C2112 1.465 . S
C2107 C2102 1.399 . S
C2107 C2106 1.394 . S
C2107 C2108 1.516 . S
C2108 C2107 1.516 . S
C2108 C2109 1.502 . S
C2108 C2110 1.561 . S
C2108 C2111 1.526 . S
C2109 H2093 0.959 . S
C2109 H2094 0.959 . S
C2109 H2095 0.961 . S
C2109 C2108 1.502 . S
C2110 H2096 0.960 . S
C2110 H2097 0.961 . S
C2110 H2098 0.959 . S
C2110 C2108 1.561 . S
C2111 C2108 1.526 . S
C2111 C2112 1.396 . S
C2111 C2116 1.390 . S
C2112 C2106 1.465 . S
C2112 C2111 1.396 . S
C2112 C2113 1.399 . S
C2113 H2099 0.929 . S
C2113 C2112 1.399 . S
C2113 C2114 1.385 . S
C2114 H2100 0.931 . S
C2114 C2113 1.385 . S
C2114 C2115 1.389 . S
C2115 C2114 1.389 . S
C2115 C2116 1.387 . S
C2116 H2101 0.930 . S
C2116 C2111 1.390 . S
C2116 C2115 1.387 . S
H2117 C2129 0.930 . S
H2118 C2131 0.930 . S
H2119 C2132 0.930 . S
H2120 C2136 0.959 . S
H2121 C2136 0.959 . S
H2122 C2136 0.961 . S
H2123 C2137 0.960 . S
H2124 C2137 0.961 . S
H2125 C2137 0.959 . S
H2126 C2140 0.929 . S
H2127 C2141 0.931 . S
H2128 C2143 0.930 . S
C2129 H2117 0.930 . S
C2129 C2130 1.399 . S
C2129 C2134 1.399 . S
C2130 C2129 1.399 . S
C2130 C2131 1.376 . S
C2131 H2118 0.930 . S
C2131 C2130 1.376 . S
C2131 C2132 1.388 . S
C2132 H2119 0.930 . S
C2132 C2131 1.388 . S
C2132 C2133 1.390 . S
C2133 C2132 1.390 . S
C2133 C2134 1.394 . S
C2133 C2139 1.465 . S
C2134 C2129 1.399 . S
C2134 C2133 1.394 . S
C2134 C2135 1.516 . S
C2135 C2134 1.516 . S
C2135 C2136 1.502 . S
C2135 C2137 1.561 . S
C2135 C2138 1.526 . S
C2136 H2120 0.959 . S
C2136 H2121 0.959 . S
C2136 H2122 0.961 . S
C2136 C2135 1.502 . S
C2137 H2123 0.960 . S
C2137 H2124 0.961 . S
C2137 H2125 0.959 . S
C2137 C2135 1.561 . S
C2138 C2135 1.526 . S
C2138 C2139 1.396 . S
C2138 C2143 1.390 . S
C2139 C2133 1.465 . S
C2139 C2138 1.396 . S
C2139 C2140 1.399 . S
C2140 H2126 0.929 . S
C2140 C2139 1.399 . S
C2140 C2141 1.385 . S
C2141 H2127 0.931 . S
C2141 C2140 1.385 . S
C2141 C2142 1.389 . S
C2142 C2141 1.389 . S
C2142 C2143 1.387 . S
C2143 H2128 0.930 . S
C2143 C2138 1.390 . S
C2143 C2142 1.387 . S
H2144 C2156 0.930 . S
H2145 C2158 0.930 . S
H2146 C2159 0.930 1_455 S
H2147 C2163 0.959 . S
H2148 C2163 0.959 . S
H2149 C2163 0.961 . S
H2150 C2164 0.960 . S
H2151 C2164 0.961 . S
H2152 C2164 0.959 . S
H2153 C2167 0.929 . S
H2154 C2168 0.931 . S
H2155 C2170 0.930 . S
C2156 H2144 0.930 . S
C2156 C2157 1.399 . S
C2156 C2161 1.399 . S
C2157 C2156 1.399 . S
C2157 C2158 1.376 . S
C2158 H2145 0.930 . S
C2158 C2157 1.376 . S
C2158 C2159 1.388 . S
C2159 H2146 0.930 1_655 S
C2159 C2158 1.388 . S
C2159 C2160 1.389 . S
C2160 C2159 1.389 . S
C2160 C2161 1.392 . S
C2160 C2166 1.467 1_655 S
C2161 C2156 1.399 . S
C2161 C2160 1.392 . S
C2161 C2162 1.516 . S
C2162 C2161 1.516 . S
C2162 C2163 1.502 . S
C2162 C2164 1.561 1_655 S
C2162 C2165 1.526 1_655 S
C2163 H2147 0.959 . S
C2163 H2148 0.959 . S
C2163 H2149 0.961 . S
C2163 C2162 1.502 . S
C2164 H2150 0.960 . S
C2164 H2151 0.961 . S
C2164 H2152 0.959 . S
C2164 C2162 1.561 1_455 S
C2165 C2162 1.526 1_455 S
C2165 C2166 1.396 . S
C2165 C2170 1.390 . S
C2166 C2160 1.467 1_455 S
C2166 C2165 1.396 . S
C2166 C2167 1.399 . S
C2167 H2153 0.929 . S
C2167 C2166 1.399 . S
C2167 C2168 1.385 . S
C2168 H2154 0.931 . S
C2168 C2167 1.385 . S
C2168 C2169 1.389 . S
C2169 C2168 1.389 . S
C2169 C2170 1.387 . S
C2170 H2155 0.930 . S
C2170 C2165 1.390 . S
C2170 C2169 1.387 . S
H2171 C2183 0.930 . S
H2172 C2185 0.930 . S
H2173 C2186 0.930 . S
H2174 C2190 0.959 . S
H2175 C2190 0.959 . S
H2176 C2190 0.961 . S
H2177 C2191 0.960 . S
H2178 C2191 0.961 . S
H2179 C2191 0.959 . S
H2180 C2194 0.929 . S
H2181 C2195 0.931 . S
H2182 C2197 0.930 . S
C2183 H2171 0.930 . S
C2183 C2184 1.399 . S
C2183 C2188 1.399 . S
C2184 C2183 1.399 . S
C2184 C2185 1.376 . S
C2185 H2172 0.930 . S
C2185 C2184 1.376 . S
C2185 C2186 1.388 . S
C2186 H2173 0.930 . S
C2186 C2185 1.388 . S
C2186 C2187 1.390 . S
C2187 C2186 1.390 . S
C2187 C2188 1.394 . S
C2187 C2193 1.465 . S
C2188 C2183 1.399 . S
C2188 C2187 1.394 . S
C2188 C2189 1.516 . S
C2189 C2188 1.516 . S
C2189 C2190 1.502 . S
C2189 C2191 1.561 . S
C2189 C2192 1.526 . S
C2190 H2174 0.959 . S
C2190 H2175 0.959 . S
C2190 H2176 0.961 . S
C2190 C2189 1.502 . S
C2191 H2177 0.960 . S
C2191 H2178 0.961 . S
C2191 H2179 0.959 . S
C2191 C2189 1.561 . S
C2192 C2189 1.526 . S
C2192 C2193 1.396 . S
C2192 C2197 1.390 . S
C2193 C2187 1.465 . S
C2193 C2192 1.396 . S
C2193 C2194 1.399 . S
C2194 H2180 0.929 . S
C2194 C2193 1.399 . S
C2194 C2195 1.385 . S
C2195 H2181 0.931 . S
C2195 C2194 1.385 . S
C2195 C2196 1.389 . S
C2196 C2195 1.389 . S
C2196 C2197 1.387 . S
C2197 H2182 0.930 . S
C2197 C2192 1.390 . S
C2197 C2196 1.387 . S
H2198 C2210 0.930 . S
H2199 C2212 0.930 . S
H2200 C2213 0.930 . S
H2201 C2217 0.959 . S
H2202 C2217 0.959 . S
H2203 C2217 0.961 . S
H2204 C2218 0.960 . S
H2205 C2218 0.961 . S
H2206 C2218 0.959 . S
H2207 C2221 0.929 . S
H2208 C2222 0.931 . S
H2209 C2224 0.930 . S
C2210 H2198 0.930 . S
C2210 C2211 1.399 . S
C2210 C2215 1.399 . S
C2211 C2210 1.399 . S
C2211 C2212 1.376 . S
C2212 H2199 0.930 . S
C2212 C2211 1.376 . S
C2212 C2213 1.388 . S
C2213 H2200 0.930 . S
C2213 C2212 1.388 . S
C2213 C2214 1.390 . S
C2214 C2213 1.390 . S
C2214 C2215 1.394 . S
C2214 C2220 1.465 . S
C2215 C2210 1.399 . S
C2215 C2214 1.394 . S
C2215 C2216 1.516 . S
C2216 C2215 1.516 . S
C2216 C2217 1.502 . S
C2216 C2218 1.561 . S
C2216 C2219 1.526 . S
C2217 H2201 0.959 . S
C2217 H2202 0.959 . S
C2217 H2203 0.961 . S
C2217 C2216 1.502 . S
C2218 H2204 0.960 . S
C2218 H2205 0.961 . S
C2218 H2206 0.959 . S
C2218 C2216 1.561 . S
C2219 C2216 1.526 . S
C2219 C2220 1.396 . S
C2219 C2224 1.390 . S
C2220 C2214 1.465 . S
C2220 C2219 1.396 . S
C2220 C2221 1.399 . S
C2221 H2207 0.929 . S
C2221 C2220 1.399 . S
C2221 C2222 1.385 . S
C2222 H2208 0.931 . S
C2222 C2221 1.385 . S
C2222 C2223 1.389 . S
C2223 C2222 1.389 . S
C2223 C2224 1.387 . S
C2224 H2209 0.930 . S
C2224 C2219 1.390 . S
C2224 C2223 1.387 . S
H2225 C2237 0.930 . S
H2226 C2239 0.930 . S
H2227 C2240 0.930 . S
H2228 C2244 0.959 . S
H2229 C2244 0.959 . S
H2230 C2244 0.961 . S
H2231 C2245 0.960 . S
H2232 C2245 0.961 . S
H2233 C2245 0.959 . S
H2234 C2248 0.929 . S
H2235 C2249 0.931 . S
H2236 C2251 0.930 . S
C2237 H2225 0.930 . S
C2237 C2238 1.399 . S
C2237 C2242 1.399 . S
C2238 C2237 1.399 . S
C2238 C2239 1.376 . S
C2239 H2226 0.930 . S
C2239 C2238 1.376 . S
C2239 C2240 1.388 . S
C2240 H2227 0.930 . S
C2240 C2239 1.388 . S
C2240 C2241 1.390 . S
C2241 C2240 1.390 . S
C2241 C2242 1.394 . S
C2241 C2247 1.465 . S
C2242 C2237 1.399 . S
C2242 C2241 1.394 . S
C2242 C2243 1.516 . S
C2243 C2242 1.516 . S
C2243 C2244 1.502 . S
C2243 C2245 1.561 . S
C2243 C2246 1.526 . S
C2244 H2228 0.959 . S
C2244 H2229 0.959 . S
C2244 H2230 0.961 . S
C2244 C2243 1.502 . S
C2245 H2231 0.960 . S
C2245 H2232 0.961 . S
C2245 H2233 0.959 . S
C2245 C2243 1.561 . S
C2246 C2243 1.526 . S
C2246 C2247 1.396 . S
C2246 C2251 1.390 . S
C2247 C2241 1.465 . S
C2247 C2246 1.396 . S
C2247 C2248 1.399 . S
C2248 H2234 0.929 . S
C2248 C2247 1.399 . S
C2248 C2249 1.385 . S
C2249 H2235 0.931 . S
C2249 C2248 1.385 . S
C2249 C2250 1.389 . S
C2250 C2249 1.389 . S
C2250 C2251 1.387 . S
C2251 H2236 0.930 . S
C2251 C2246 1.390 . S
C2251 C2250 1.387 . S
H2252 C2264 0.930 . S
H2253 C2266 0.930 . S
H2254 C2267 0.930 . S
H2255 C2271 0.959 . S
H2256 C2271 0.959 . S
H2257 C2271 0.961 . S
H2258 C2272 0.960 . S
H2259 C2272 0.961 . S
H2260 C2272 0.959 . S
H2261 C2275 0.929 . S
H2262 C2276 0.931 . S
H2263 C2278 0.930 . S
C2264 H2252 0.930 . S
C2264 C2265 1.399 . S
C2264 C2269 1.399 . S
C2265 C2264 1.399 . S
C2265 C2266 1.376 . S
C2266 H2253 0.930 . S
C2266 C2265 1.376 . S
C2266 C2267 1.388 . S
C2267 H2254 0.930 . S
C2267 C2266 1.388 . S
C2267 C2268 1.390 . S
C2268 C2267 1.390 . S
C2268 C2269 1.394 . S
C2268 C2274 1.465 1_655 S
C2269 C2264 1.399 . S
C2269 C2268 1.394 . S
C2269 C2270 1.516 1_655 S
C2270 C2269 1.516 1_455 S
C2270 C2271 1.502 1_455 S
C2270 C2272 1.561 . S
C2270 C2273 1.526 . S
C2271 H2255 0.959 . S
C2271 H2256 0.959 . S
C2271 H2257 0.961 . S
C2271 C2270 1.502 1_655 S
C2272 H2258 0.960 . S
C2272 H2259 0.961 . S
C2272 H2260 0.959 . S
C2272 C2270 1.561 . S
C2273 C2270 1.526 . S
C2273 C2274 1.396 . S
C2273 C2278 1.390 . S
C2274 C2268 1.465 1_455 S
C2274 C2273 1.396 . S
C2274 C2275 1.399 . S
C2275 H2261 0.929 . S
C2275 C2274 1.399 . S
C2275 C2276 1.385 . S
C2276 H2262 0.931 . S
C2276 C2275 1.385 . S
C2276 C2277 1.389 . S
C2277 C2276 1.389 . S
C2277 C2278 1.387 . S
C2278 H2263 0.930 . S
C2278 C2273 1.390 . S
C2278 C2277 1.387 . S
H2279 C2291 0.930 1_554 S
H2280 C2293 0.930 . S
H2281 C2294 0.930 . S
H2282 C2298 0.959 . S
H2283 C2298 0.959 . S
H2284 C2298 0.961 . S
H2285 C2299 0.960 . S
H2286 C2299 0.961 . S
H2287 C2299 0.959 . S
H2288 C2302 0.929 . S
H2289 C2303 0.931 . S
H2290 C2305 0.930 . S
C2291 H2279 0.930 1_556 S
C2291 C2292 1.399 . S
C2291 C2296 1.399 . S
C2292 C2291 1.399 . S
C2292 C2293 1.376 . S
C2293 H2280 0.930 . S
C2293 C2292 1.376 . S
C2293 C2294 1.388 . S
C2294 H2281 0.930 . S
C2294 C2293 1.388 . S
C2294 C2295 1.390 . S
C2295 C2294 1.390 . S
C2295 C2296 1.394 . S
C2295 C2301 1.465 . S
C2296 C2291 1.399 . S
C2296 C2295 1.394 . S
C2296 C2297 1.516 . S
C2297 C2296 1.516 . S
C2297 C2298 1.502 . S
C2297 C2299 1.561 . S
C2297 C2300 1.526 . S
C2298 H2282 0.959 . S
C2298 H2283 0.959 . S
C2298 H2284 0.961 . S
C2298 C2297 1.502 . S
C2299 H2285 0.960 . S
C2299 H2286 0.961 . S
C2299 H2287 0.959 . S
C2299 C2297 1.561 . S
C2300 C2297 1.526 . S
C2300 C2301 1.396 . S
C2300 C2305 1.390 . S
C2301 C2295 1.465 . S
C2301 C2300 1.396 . S
C2301 C2302 1.399 . S
C2302 H2288 0.929 . S
C2302 C2301 1.399 . S
C2302 C2303 1.385 . S
C2303 H2289 0.931 . S
C2303 C2302 1.385 . S
C2303 C2304 1.389 . S
C2304 C2303 1.389 . S
C2304 C2305 1.387 . S
C2305 H2290 0.930 . S
C2305 C2300 1.390 . S
C2305 C2304 1.387 . S
H2306 C2318 0.930 . S
H2307 C2320 0.930 . S
H2308 C2321 0.930 . S
H2309 C2325 0.959 . S
H2310 C2325 0.959 . S
H2311 C2325 0.961 . S
H2312 C2326 0.960 . S
H2313 C2326 0.961 . S
H2314 C2326 0.959 . S
H2315 C2329 0.929 . S
H2316 C2330 0.931 . S
H2317 C2332 0.930 . S
C2318 H2306 0.930 . S
C2318 C2319 1.399 . S
C2318 C2323 1.399 . S
C2319 C2318 1.399 . S
C2319 C2320 1.376 . S
C2320 H2307 0.930 . S
C2320 C2319 1.376 . S
C2320 C2321 1.388 . S
C2321 H2308 0.930 . S
C2321 C2320 1.388 . S
C2321 C2322 1.390 . S
C2322 C2321 1.390 . S
C2322 C2323 1.394 . S
C2322 C2328 1.465 . S
C2323 C2318 1.399 . S
C2323 C2322 1.394 . S
C2323 C2324 1.516 . S
C2324 C2323 1.516 . S
C2324 C2325 1.502 . S
C2324 C2326 1.561 . S
C2324 C2327 1.526 . S
C2325 H2309 0.959 . S
C2325 H2310 0.959 . S
C2325 H2311 0.961 . S
C2325 C2324 1.502 . S
C2326 H2312 0.960 . S
C2326 H2313 0.961 . S
C2326 H2314 0.959 . S
C2326 C2324 1.561 . S
C2327 C2324 1.526 . S
C2327 C2328 1.396 . S
C2327 C2332 1.390 . S
C2328 C2322 1.465 . S
C2328 C2327 1.396 . S
C2328 C2329 1.399 . S
C2329 H2315 0.929 . S
C2329 C2328 1.399 . S
C2329 C2330 1.385 . S
C2330 H2316 0.931 . S
C2330 C2329 1.385 . S
C2330 C2331 1.389 . S
C2331 C2330 1.389 . S
C2331 C2332 1.387 . S
C2332 H2317 0.930 . S
C2332 C2327 1.390 . S
C2332 C2331 1.387 . S
H2333 C2345 0.930 . S
H2334 C2347 0.930 . S
H2335 C2348 0.930 . S
H2336 C2352 0.959 . S
H2337 C2352 0.959 . S
H2338 C2352 0.961 . S
H2339 C2353 0.960 . S
H2340 C2353 0.961 . S
H2341 C2353 0.959 . S
H2342 C2356 0.929 . S
H2343 C2357 0.931 . S
H2344 C2359 0.930 . S
C2345 H2333 0.930 . S
C2345 C2346 1.399 . S
C2345 C2350 1.399 . S
C2346 C2345 1.399 . S
C2346 C2347 1.376 . S
C2347 H2334 0.930 . S
C2347 C2346 1.376 . S
C2347 C2348 1.388 . S
C2348 H2335 0.930 . S
C2348 C2347 1.388 . S
C2348 C2349 1.390 . S
C2349 C2348 1.390 . S
C2349 C2350 1.394 . S
C2349 C2355 1.465 . S
C2350 C2345 1.399 . S
C2350 C2349 1.394 . S
C2350 C2351 1.516 . S
C2351 C2350 1.516 . S
C2351 C2352 1.502 . S
C2351 C2353 1.561 . S
C2351 C2354 1.526 . S
C2352 H2336 0.959 . S
C2352 H2337 0.959 . S
C2352 H2338 0.961 . S
C2352 C2351 1.502 . S
C2353 H2339 0.960 . S
C2353 H2340 0.961 . S
C2353 H2341 0.959 . S
C2353 C2351 1.561 . S
C2354 C2351 1.526 . S
C2354 C2355 1.396 . S
C2354 C2359 1.390 . S
C2355 C2349 1.465 . S
C2355 C2354 1.396 . S
C2355 C2356 1.399 . S
C2356 H2342 0.929 . S
C2356 C2355 1.399 . S
C2356 C2357 1.385 . S
C2357 H2343 0.931 . S
C2357 C2356 1.385 . S
C2357 C2358 1.389 . S
C2358 C2357 1.389 . S
C2358 C2359 1.387 . S
C2359 H2344 0.930 . S
C2359 C2354 1.390 . S
C2359 C2358 1.387 . S
H2360 C2372 0.930 . S
H2361 C2374 0.930 . S
H2362 C2375 0.930 . S
H2363 C2379 0.959 . S
H2364 C2379 0.959 . S
H2365 C2379 0.961 . S
H2366 C2380 0.960 . S
H2367 C2380 0.961 . S
H2368 C2380 0.959 . S
H2369 C2383 0.929 . S
H2370 C2384 0.931 . S
H2371 C2386 0.930 . S
C2372 H2360 0.930 . S
C2372 C2373 1.399 . S
C2372 C2377 1.399 . S
C2373 C2372 1.399 . S
C2373 C2374 1.376 . S
C2374 H2361 0.930 . S
C2374 C2373 1.376 . S
C2374 C2375 1.388 . S
C2375 H2362 0.930 . S
C2375 C2374 1.388 . S
C2375 C2376 1.390 . S
C2376 C2375 1.390 . S
C2376 C2377 1.394 . S
C2376 C2382 1.465 . S
C2377 C2372 1.399 . S
C2377 C2376 1.394 . S
C2377 C2378 1.516 . S
C2378 C2377 1.516 . S
C2378 C2379 1.502 . S
C2378 C2380 1.561 . S
C2378 C2381 1.526 . S
C2379 H2363 0.959 . S
C2379 H2364 0.959 . S
C2379 H2365 0.961 . S
C2379 C2378 1.502 . S
C2380 H2366 0.960 . S
C2380 H2367 0.961 . S
C2380 H2368 0.959 . S
C2380 C2378 1.561 . S
C2381 C2378 1.526 . S
C2381 C2382 1.396 . S
C2381 C2386 1.390 . S
C2382 C2376 1.465 . S
C2382 C2381 1.396 . S
C2382 C2383 1.399 . S
C2383 H2369 0.929 . S
C2383 C2382 1.399 . S
C2383 C2384 1.385 . S
C2384 H2370 0.931 . S
C2384 C2383 1.385 . S
C2384 C2385 1.389 . S
C2385 C2384 1.389 . S
C2385 C2386 1.387 . S
C2386 H2371 0.930 . S
C2386 C2381 1.390 . S
C2386 C2385 1.387 . S
H2387 C2399 0.930 . S
H2388 C2401 0.930 . S
H2389 C2402 0.930 . S
H2390 C2406 0.959 . S
H2391 C2406 0.959 . S
H2392 C2406 0.961 . S
H2393 C2407 0.960 . S
H2394 C2407 0.961 . S
H2395 C2407 0.959 . S
H2396 C2410 0.929 . S
H2397 C2411 0.931 . S
H2398 C2413 0.930 . S
C2399 H2387 0.930 . S
C2399 C2400 1.399 . S
C2399 C2404 1.399 . S
C2400 C2399 1.399 . S
C2400 C2401 1.376 . S
C2401 H2388 0.930 . S
C2401 C2400 1.376 . S
C2401 C2402 1.388 . S
C2402 H2389 0.930 . S
C2402 C2401 1.388 . S
C2402 C2403 1.390 . S
C2403 C2402 1.390 . S
C2403 C2404 1.394 . S
C2403 C2409 1.465 . S
C2404 C2399 1.399 . S
C2404 C2403 1.394 . S
C2404 C2405 1.516 . S
C2405 C2404 1.516 . S
C2405 C2406 1.502 . S
C2405 C2407 1.561 . S
C2405 C2408 1.526 . S
C2406 H2390 0.959 . S
C2406 H2391 0.959 . S
C2406 H2392 0.961 . S
C2406 C2405 1.502 . S
C2407 H2393 0.960 . S
C2407 H2394 0.961 . S
C2407 H2395 0.959 . S
C2407 C2405 1.561 . S
C2408 C2405 1.526 . S
C2408 C2409 1.396 . S
C2408 C2413 1.390 . S
C2409 C2403 1.465 . S
C2409 C2408 1.396 . S
C2409 C2410 1.399 . S
C2410 H2396 0.929 . S
C2410 C2409 1.399 . S
C2410 C2411 1.385 . S
C2411 H2397 0.931 . S
C2411 C2410 1.385 . S
C2411 C2412 1.389 . S
C2412 C2411 1.389 . S
C2412 C2413 1.387 . S
C2413 H2398 0.930 . S
C2413 C2408 1.390 . S
C2413 C2412 1.387 . S
H2414 C2426 0.930 . S
H2415 C2428 0.930 . S
H2416 C2429 0.930 . S
H2417 C2433 0.959 . S
H2418 C2433 0.959 . S
H2419 C2433 0.961 . S
H2420 C2434 0.960 . S
H2421 C2434 0.961 . S
H2422 C2434 0.959 . S
H2423 C2437 0.929 . S
H2424 C2438 0.931 . S
H2425 C2440 0.930 . S
C2426 H2414 0.930 . S
C2426 C2427 1.399 . S
C2426 C2431 1.399 . S
C2427 C2426 1.399 . S
C2427 C2428 1.376 . S
C2428 H2415 0.930 . S
C2428 C2427 1.376 . S
C2428 C2429 1.388 . S
C2429 H2416 0.930 . S
C2429 C2428 1.388 . S
C2429 C2430 1.390 . S
C2430 C2429 1.390 . S
C2430 C2431 1.394 . S
C2430 C2436 1.465 . S
C2431 C2426 1.399 . S
C2431 C2430 1.394 . S
C2431 C2432 1.516 . S
C2432 C2431 1.516 . S
C2432 C2433 1.502 . S
C2432 C2434 1.561 . S
C2432 C2435 1.526 . S
C2433 H2417 0.959 . S
C2433 H2418 0.959 . S
C2433 H2419 0.961 . S
C2433 C2432 1.502 . S
C2434 H2420 0.960 . S
C2434 H2421 0.961 . S
C2434 H2422 0.959 . S
C2434 C2432 1.561 . S
C2435 C2432 1.526 . S
C2435 C2436 1.396 . S
C2435 C2440 1.390 . S
C2436 C2430 1.465 . S
C2436 C2435 1.396 . S
C2436 C2437 1.399 . S
C2437 H2423 0.929 . S
C2437 C2436 1.399 . S
C2437 C2438 1.385 . S
C2438 H2424 0.931 . S
C2438 C2437 1.385 . S
C2438 C2439 1.389 . S
C2439 C2438 1.389 . S
C2439 C2440 1.387 . S
C2440 H2425 0.930 . S
C2440 C2435 1.390 . S
C2440 C2439 1.387 . S
H2441 C2453 0.930 . S
H2442 C2455 0.930 . S
H2443 C2456 0.930 . S
H2444 C2460 0.959 . S
H2445 C2460 0.959 . S
H2446 C2460 0.961 . S
H2447 C2461 0.960 . S
H2448 C2461 0.961 . S
H2449 C2461 0.959 . S
H2450 C2464 0.929 . S
H2451 C2465 0.931 . S
H2452 C2467 0.930 . S
C2453 H2441 0.930 . S
C2453 C2454 1.399 . S
C2453 C2458 1.399 . S
C2454 C2453 1.399 . S
C2454 C2455 1.376 . S
C2455 H2442 0.930 . S
C2455 C2454 1.376 . S
C2455 C2456 1.388 . S
C2456 H2443 0.930 . S
C2456 C2455 1.388 . S
C2456 C2457 1.390 . S
C2457 C2456 1.390 . S
C2457 C2458 1.394 . S
C2457 C2463 1.465 . S
C2458 C2453 1.399 . S
C2458 C2457 1.394 . S
C2458 C2459 1.516 . S
C2459 C2458 1.516 . S
C2459 C2460 1.502 . S
C2459 C2461 1.561 . S
C2459 C2462 1.526 . S
C2460 H2444 0.959 . S
C2460 H2445 0.959 . S
C2460 H2446 0.961 . S
C2460 C2459 1.502 . S
C2461 H2447 0.960 . S
C2461 H2448 0.961 . S
C2461 H2449 0.959 . S
C2461 C2459 1.561 . S
C2462 C2459 1.526 . S
C2462 C2463 1.396 . S
C2462 C2467 1.390 . S
C2463 C2457 1.465 . S
C2463 C2462 1.396 . S
C2463 C2464 1.399 . S
C2464 H2450 0.929 . S
C2464 C2463 1.399 . S
C2464 C2465 1.385 . S
C2465 H2451 0.931 . S
C2465 C2464 1.385 . S
C2465 C2466 1.389 . S
C2466 C2465 1.389 . S
C2466 C2467 1.387 . S
C2467 H2452 0.930 . S
C2467 C2462 1.390 . S
C2467 C2466 1.387 . S
H2468 C2480 0.930 . S
H2469 C2482 0.930 . S
H2470 C2483 0.930 . S
H2471 C2487 0.959 . S
H2472 C2487 0.959 . S
H2473 C2487 0.961 . S
H2474 C2488 0.960 1_545 S
H2475 C2488 0.961 . S
H2476 C2488 0.959 . S
H2477 C2491 0.929 . S
H2478 C2492 0.931 . S
H2479 C2494 0.930 . S
C2480 H2468 0.930 . S
C2480 C2481 1.399 . S
C2480 C2485 1.399 . S
C2481 C2480 1.399 . S
C2481 C2482 1.376 . S
C2482 H2469 0.930 . S
C2482 C2481 1.376 . S
C2482 C2483 1.388 . S
C2483 H2470 0.930 . S
C2483 C2482 1.388 . S
C2483 C2484 1.390 . S
C2484 C2483 1.390 . S
C2484 C2485 1.394 . S
C2484 C2490 1.465 1_545 S
C2485 C2480 1.399 . S
C2485 C2484 1.394 . S
C2485 C2486 1.516 . S
C2486 C2485 1.516 . S
C2486 C2487 1.502 . S
C2486 C2488 1.561 1_545 S
C2486 C2489 1.526 1_545 S
C2487 H2471 0.959 . S
C2487 H2472 0.959 . S
C2487 H2473 0.961 . S
C2487 C2486 1.502 . S
C2488 H2474 0.960 1_565 S
C2488 H2475 0.961 . S
C2488 H2476 0.959 . S
C2488 C2486 1.561 1_565 S
C2489 C2486 1.526 1_565 S
C2489 C2490 1.396 . S
C2489 C2494 1.390 . S
C2490 C2484 1.465 1_565 S
C2490 C2489 1.396 . S
C2490 C2491 1.399 . S
C2491 H2477 0.929 . S
C2491 C2490 1.399 . S
C2491 C2492 1.385 . S
C2492 H2478 0.931 . S
C2492 C2491 1.385 . S
C2492 C2493 1.389 . S
C2493 C2492 1.389 . S
C2493 C2494 1.387 . S
C2494 H2479 0.930 . S
C2494 C2489 1.390 . S
C2494 C2493 1.387 . S
H2495 C2507 0.930 . S
H2496 C2509 0.930 . S
H2497 C2510 0.958 . S
H2498 C2514 0.959 1_545 S
H2499 C2514 0.959 . S
H2500 C2514 0.961 . S
H2501 C2515 0.957 1_455 S
H2502 C2515 0.961 . S
H2503 C2515 0.959 . S
H2504 C2518 0.929 . S
H2505 C2519 0.931 . S
H2506 C2521 0.930 . S
C2507 H2495 0.930 . S
C2507 C2508 1.399 . S
C2507 C2512 1.399 . S
C2508 C2507 1.399 . S
C2508 C2509 1.376 . S
C2509 H2496 0.930 . S
C2509 C2508 1.376 . S
C2509 C2510 1.388 1_455 S
C2510 H2497 0.958 . S
C2510 C2509 1.388 1_655 S
C2510 C2511 1.390 . S
C2511 C2510 1.390 . S
C2511 C2512 1.394 1_655 S
C2511 C2517 1.465 1_565 S
C2512 C2507 1.399 . S
C2512 C2511 1.394 1_455 S
C2512 C2513 1.516 . S
C2513 C2512 1.516 . S
C2513 C2514 1.502 . S
C2513 C2515 1.561 1_455 S
C2513 C2516 1.526 1_465 S
C2514 H2498 0.959 1_565 S
C2514 H2499 0.959 . S
C2514 H2500 0.961 . S
C2514 C2513 1.502 . S
C2515 H2501 0.957 1_655 S
C2515 H2502 0.961 . S
C2515 H2503 0.959 . S
C2515 C2513 1.561 1_655 S
C2516 C2513 1.526 1_645 S
C2516 C2517 1.396 . S
C2516 C2521 1.390 . S
C2517 C2511 1.465 1_545 S
C2517 C2516 1.396 . S
C2517 C2518 1.399 . S
C2518 H2504 0.929 . S
C2518 C2517 1.399 . S
C2518 C2519 1.385 . S
C2519 H2505 0.931 . S
C2519 C2518 1.385 . S
C2519 C2520 1.389 . S
C2520 C2519 1.389 . S
C2520 C2521 1.387 . S
C2521 H2506 0.930 . S
C2521 C2516 1.390 . S
C2521 C2520 1.387 . S
H2522 C2534 0.930 . S
H2523 C2536 0.930 . S
H2524 C2537 0.930 . S
H2525 C2541 0.959 . S
H2526 C2541 0.959 . S
H2527 C2541 0.961 . S
H2528 C2542 0.960 . S
H2529 C2542 0.961 . S
H2530 C2542 0.959 . S
H2531 C2545 0.929 . S
H2532 C2546 0.931 . S
H2533 C2548 0.930 . S
C2534 H2522 0.930 . S
C2534 C2535 1.399 1_545 S
C2534 C2539 1.399 . S
C2535 C2534 1.399 1_565 S
C2535 C2536 1.376 . S
C2536 H2523 0.930 . S
C2536 C2535 1.376 . S
C2536 C2537 1.388 . S
C2537 H2524 0.930 . S
C2537 C2536 1.388 . S
C2537 C2538 1.390 . S
C2538 C2537 1.390 . S
C2538 C2539 1.394 1_565 S
C2538 C2544 1.465 . S
C2539 C2534 1.399 . S
C2539 C2538 1.394 1_545 S
C2539 C2540 1.516 . S
C2540 C2539 1.516 . S
C2540 C2541 1.502 . S
C2540 C2542 1.561 . S
C2540 C2543 1.526 . S
C2541 H2525 0.959 . S
C2541 H2526 0.959 . S
C2541 H2527 0.961 . S
C2541 C2540 1.502 . S
C2542 H2528 0.960 . S
C2542 H2529 0.961 . S
C2542 H2530 0.959 . S
C2542 C2540 1.561 . S
C2543 C2540 1.526 . S
C2543 C2544 1.396 1_545 S
C2543 C2548 1.390 . S
C2544 C2538 1.465 . S
C2544 C2543 1.396 1_565 S
C2544 C2545 1.399 . S
C2545 H2531 0.929 . S
C2545 C2544 1.399 . S
C2545 C2546 1.385 . S
C2546 H2532 0.931 . S
C2546 C2545 1.385 . S
C2546 C2547 1.389 1_565 S
C2547 C2546 1.389 1_545 S
C2547 C2548 1.387 . S
C2548 H2533 0.930 . S
C2548 C2543 1.390 . S
C2548 C2547 1.387 . S
H2549 C2561 0.930 . S
H2550 C2563 0.930 . S
H2551 C2564 0.930 . S
H2552 C2568 0.959 . S
H2553 C2568 0.959 . S
H2554 C2568 0.961 . S
H2555 C2569 0.960 . S
H2556 C2569 0.967 . S
H2557 C2569 0.959 . S
H2558 C2572 0.929 . S
H2559 C2573 0.931 . S
H2560 C2575 0.930 . S
C2561 H2549 0.930 . S
C2561 C2562 1.399 1_545 S
C2561 C2566 1.399 . S
C2562 C2561 1.399 1_565 S
C2562 C2563 1.376 . S
C2563 H2550 0.930 . S
C2563 C2562 1.376 . S
C2563 C2564 1.388 . S
C2564 H2551 0.930 . S
C2564 C2563 1.388 . S
C2564 C2565 1.390 . S
C2565 C2564 1.390 . S
C2565 C2566 1.394 1_565 S
C2565 C2571 1.465 1_655 S
C2566 C2561 1.399 . S
C2566 C2565 1.394 1_545 S
C2566 C2567 1.516 1_655 S
C2567 C2566 1.516 1_455 S
C2567 C2568 1.502 . S
C2567 C2569 1.561 1_455 S
C2567 C2570 1.526 . S
C2568 H2552 0.959 . S
C2568 H2553 0.959 . S
C2568 H2554 0.961 . S
C2568 C2567 1.502 . S
C2569 H2555 0.960 . S
C2569 H2556 0.967 . S
C2569 H2557 0.959 . S
C2569 C2567 1.561 1_655 S
C2570 C2567 1.526 . S
C2570 C2571 1.396 1_545 S
C2570 C2575 1.390 . S
C2571 C2565 1.465 1_455 S
C2571 C2570 1.396 1_565 S
C2571 C2572 1.399 . S
C2572 H2558 0.929 . S
C2572 C2571 1.399 . S
C2572 C2573 1.385 . S
C2573 H2559 0.931 . S
C2573 C2572 1.385 . S
C2573 C2574 1.389 1_565 S
C2574 C2573 1.389 1_545 S
C2574 C2575 1.387 . S
C2575 H2560 0.930 . S
C2575 C2570 1.390 . S
C2575 C2574 1.387 . S
H2576 C2588 0.930 . S
H2577 C2590 0.930 . S
H2578 C2591 0.933 . S
H2579 C2595 0.959 . S
H2580 C2595 0.959 . S
H2581 C2595 0.961 . S
H2582 C2596 0.960 . S
H2583 C2596 0.961 . S
H2584 C2596 0.959 . S
H2585 C2599 0.929 . S
H2586 C2600 0.931 . S
H2587 C2602 0.930 . S
C2588 H2576 0.930 . S
C2588 C2589 1.399 1_556 S
C2588 C2593 1.399 . S
C2589 C2588 1.399 1_554 S
C2589 C2590 1.376 . S
C2590 H2577 0.930 . S
C2590 C2589 1.376 . S
C2590 C2591 1.388 1_454 S
C2591 H2578 0.933 . S
C2591 C2590 1.388 1_656 S
C2591 C2592 1.390 . S
C2592 C2591 1.390 . S
C2592 C2593 1.394 1_655 S
C2592 C2598 1.465 . S
C2593 C2588 1.399 . S
C2593 C2592 1.394 1_455 S
C2593 C2594 1.516 1_455 S
C2594 C2593 1.516 1_655 S
C2594 C2595 1.502 1_655 S
C2594 C2596 1.561 . S
C2594 C2597 1.526 . S
C2595 H2579 0.959 . S
C2595 H2580 0.959 . S
C2595 H2581 0.961 . S
C2595 C2594 1.502 1_455 S
C2596 H2582 0.960 . S
C2596 H2583 0.961 . S
C2596 H2584 0.959 . S
C2596 C2594 1.561 . S
C2597 C2594 1.526 . S
C2597 C2598 1.396 . S
C2597 C2602 1.390 . S
C2598 C2592 1.465 . S
C2598 C2597 1.396 . S
C2598 C2599 1.399 . S
C2599 H2585 0.929 . S
C2599 C2598 1.399 . S
C2599 C2600 1.385 . S
C2600 H2586 0.931 . S
C2600 C2599 1.385 . S
C2600 C2601 1.389 . S
C2601 C2600 1.389 . S
C2601 C2602 1.387 . S
C2602 H2587 0.930 . S
C2602 C2597 1.390 . S
C2602 C2601 1.387 . S
H2603 C2615 0.930 . S
H2604 C2617 0.930 . S
H2605 C2618 0.930 . S
H2606 C2622 0.959 . S
H2607 C2622 0.959 . S
H2608 C2622 0.961 . S
H2609 C2623 0.960 . S
H2610 C2623 0.961 . S
H2611 C2623 0.959 . S
H2612 C2626 0.929 . S
H2613 C2627 0.931 . S
H2614 C2629 0.930 . S
C2615 H2603 0.930 . S
C2615 C2616 1.399 . S
C2615 C2620 1.399 . S
C2616 C2615 1.399 . S
C2616 C2617 1.376 . S
C2617 H2604 0.930 . S
C2617 C2616 1.376 . S
C2617 C2618 1.388 . S
C2618 H2605 0.930 . S
C2618 C2617 1.388 . S
C2618 C2619 1.390 . S
C2619 C2618 1.390 . S
C2619 C2620 1.394 . S
C2619 C2625 1.465 . S
C2620 C2615 1.399 . S
C2620 C2619 1.394 . S
C2620 C2621 1.516 . S
C2621 C2620 1.516 . S
C2621 C2622 1.502 . S
C2621 C2623 1.561 . S
C2621 C2624 1.526 . S
C2622 H2606 0.959 . S
C2622 H2607 0.959 . S
C2622 H2608 0.961 . S
C2622 C2621 1.502 . S
C2623 H2609 0.960 . S
C2623 H2610 0.961 . S
C2623 H2611 0.959 . S
C2623 C2621 1.561 . S
C2624 C2621 1.526 . S
C2624 C2625 1.396 . S
C2624 C2629 1.390 . S
C2625 C2619 1.465 . S
C2625 C2624 1.396 . S
C2625 C2626 1.399 . S
C2626 H2612 0.929 . S
C2626 C2625 1.399 . S
C2626 C2627 1.385 . S
C2627 H2613 0.931 . S
C2627 C2626 1.385 . S
C2627 C2628 1.389 . S
C2628 C2627 1.389 . S
C2628 C2629 1.387 . S
C2629 H2614 0.930 . S
C2629 C2624 1.390 . S
C2629 C2628 1.387 . S
H2630 C2642 0.930 . S
H2631 C2644 0.930 . S
H2632 C2645 0.930 . S
H2633 C2649 0.959 . S
H2634 C2649 0.959 . S
H2635 C2649 0.961 . S
H2636 C2650 0.960 . S
H2637 C2650 0.961 . S
H2638 C2650 0.959 . S
H2639 C2653 0.929 . S
H2640 C2654 0.931 . S
H2641 C2656 0.930 . S
C2642 H2630 0.930 . S
C2642 C2643 1.399 . S
C2642 C2647 1.399 . S
C2643 C2642 1.399 . S
C2643 C2644 1.376 . S
C2644 H2631 0.930 . S
C2644 C2643 1.376 . S
C2644 C2645 1.388 . S
C2645 H2632 0.930 . S
C2645 C2644 1.388 . S
C2645 C2646 1.390 . S
C2646 C2645 1.390 . S
C2646 C2647 1.394 . S
C2646 C2652 1.465 . S
C2647 C2642 1.399 . S
C2647 C2646 1.394 . S
C2647 C2648 1.516 . S
C2648 C2647 1.516 . S
C2648 C2649 1.502 . S
C2648 C2650 1.561 . S
C2648 C2651 1.526 . S
C2649 H2633 0.959 . S
C2649 H2634 0.959 . S
C2649 H2635 0.961 . S
C2649 C2648 1.502 . S
C2650 H2636 0.960 . S
C2650 H2637 0.961 . S
C2650 H2638 0.959 . S
C2650 C2648 1.561 . S
C2651 C2648 1.526 . S
C2651 C2652 1.396 . S
C2651 C2656 1.390 . S
C2652 C2646 1.465 . S
C2652 C2651 1.396 . S
C2652 C2653 1.399 . S
C2653 H2639 0.929 . S
C2653 C2652 1.399 . S
C2653 C2654 1.385 . S
C2654 H2640 0.931 . S
C2654 C2653 1.385 . S
C2654 C2655 1.389 . S
C2655 C2654 1.389 . S
C2655 C2656 1.387 . S
C2656 H2641 0.930 . S
C2656 C2651 1.390 . S
C2656 C2655 1.387 . S
H2657 C2669 0.930 . S
H2658 C2671 0.930 . S
H2659 C2672 0.930 . S
H2660 C2676 0.959 . S
H2661 C2676 0.959 . S
H2662 C2676 0.961 . S
H2663 C2677 0.960 . S
H2664 C2677 0.961 . S
H2665 C2677 0.959 . S
H2666 C2680 0.929 . S
H2667 C2681 0.931 . S
H2668 C2683 0.930 . S
C2669 H2657 0.930 . S
C2669 C2670 1.399 . S
C2669 C2674 1.399 . S
C2670 C2669 1.399 . S
C2670 C2671 1.376 . S
C2671 H2658 0.930 . S
C2671 C2670 1.376 . S
C2671 C2672 1.388 . S
C2672 H2659 0.930 . S
C2672 C2671 1.388 . S
C2672 C2673 1.390 . S
C2673 C2672 1.390 . S
C2673 C2674 1.394 . S
C2673 C2679 1.465 . S
C2674 C2669 1.399 . S
C2674 C2673 1.394 . S
C2674 C2675 1.516 . S
C2675 C2674 1.516 . S
C2675 C2676 1.502 . S
C2675 C2677 1.561 . S
C2675 C2678 1.526 . S
C2676 H2660 0.959 . S
C2676 H2661 0.959 . S
C2676 H2662 0.961 . S
C2676 C2675 1.502 . S
C2677 H2663 0.960 . S
C2677 H2664 0.961 . S
C2677 H2665 0.959 . S
C2677 C2675 1.561 . S
C2678 C2675 1.526 . S
C2678 C2679 1.396 . S
C2678 C2683 1.390 . S
C2679 C2673 1.465 . S
C2679 C2678 1.396 . S
C2679 C2680 1.399 . S
C2680 H2666 0.929 . S
C2680 C2679 1.399 . S
C2680 C2681 1.385 . S
C2681 H2667 0.931 . S
C2681 C2680 1.385 . S
C2681 C2682 1.389 . S
C2682 C2681 1.389 . S
C2682 C2683 1.387 . S
C2683 H2668 0.930 . S
C2683 C2678 1.390 . S
C2683 C2682 1.387 . S
H2684 C2696 0.930 . S
H2685 C2698 0.930 . S
H2686 C2699 0.930 . S
H2687 C2703 0.959 . S
H2688 C2703 0.959 1_455 S
H2689 C2703 0.961 . S
H2690 C2704 0.960 . S
H2691 C2704 0.961 . S
H2692 C2704 0.959 . S
H2693 C2707 0.929 . S
H2694 C2708 0.931 . S
H2695 C2710 0.930 . S
C2696 H2684 0.930 . S
C2696 C2697 1.399 . S
C2696 C2701 1.399 1_655 S
C2697 C2696 1.399 . S
C2697 C2698 1.376 1_655 S
C2698 H2685 0.930 . S
C2698 C2697 1.376 1_455 S
C2698 C2699 1.388 . S
C2699 H2686 0.930 . S
C2699 C2698 1.388 . S
C2699 C2700 1.390 . S
C2700 C2699 1.390 . S
C2700 C2701 1.394 . S
C2700 C2706 1.465 . S
C2701 C2696 1.399 1_455 S
C2701 C2700 1.394 . S
C2701 C2702 1.516 . S
C2702 C2701 1.516 . S
C2702 C2703 1.502 1_455 S
C2702 C2704 1.561 . S
C2702 C2705 1.526 . S
C2703 H2687 0.959 . S
C2703 H2688 0.959 1_655 S
C2703 H2689 0.961 . S
C2703 C2702 1.502 1_655 S
C2704 H2690 0.960 . S
C2704 H2691 0.961 . S
C2704 H2692 0.959 . S
C2704 C2702 1.561 . S
C2705 C2702 1.526 . S
C2705 C2706 1.396 . S
C2705 C2710 1.390 . S
C2706 C2700 1.465 . S
C2706 C2705 1.396 . S
C2706 C2707 1.399 . S
C2707 H2693 0.929 . S
C2707 C2706 1.399 . S
C2707 C2708 1.385 . S
C2708 H2694 0.931 . S
C2708 C2707 1.385 . S
C2708 C2709 1.389 . S
C2709 C2708 1.389 . S
C2709 C2710 1.387 . S
C2710 H2695 0.930 . S
C2710 C2705 1.390 . S
C2710 C2709 1.387 . S
H2711 C2723 0.930 . S
H2712 C2725 0.930 . S
H2713 C2726 0.930 . S
H2714 C2730 0.959 . S
H2715 C2730 0.959 . S
H2716 C2730 0.961 . S
H2717 C2731 0.960 . S
H2718 C2731 0.961 . S
H2719 C2731 0.959 . S
H2720 C2734 0.929 . S
H2721 C2735 0.931 . S
H2722 C2737 0.930 . S
C2723 H2711 0.930 . S
C2723 C2724 1.399 . S
C2723 C2728 1.399 . S
C2724 C2723 1.399 . S
C2724 C2725 1.376 . S
C2725 H2712 0.930 . S
C2725 C2724 1.376 . S
C2725 C2726 1.388 . S
C2726 H2713 0.930 . S
C2726 C2725 1.388 . S
C2726 C2727 1.390 . S
C2727 C2726 1.390 . S
C2727 C2728 1.394 . S
C2727 C2733 1.465 . S
C2728 C2723 1.399 . S
C2728 C2727 1.394 . S
C2728 C2729 1.516 . S
C2729 C2728 1.516 . S
C2729 C2730 1.502 . S
C2729 C2731 1.561 . S
C2729 C2732 1.526 . S
C2730 H2714 0.959 . S
C2730 H2715 0.959 . S
C2730 H2716 0.961 . S
C2730 C2729 1.502 . S
C2731 H2717 0.960 . S
C2731 H2718 0.961 . S
C2731 H2719 0.959 . S
C2731 C2729 1.561 . S
C2732 C2729 1.526 . S
C2732 C2733 1.396 . S
C2732 C2737 1.390 . S
C2733 C2727 1.465 . S
C2733 C2732 1.396 . S
C2733 C2734 1.399 . S
C2734 H2720 0.929 . S
C2734 C2733 1.399 . S
C2734 C2735 1.385 . S
C2735 H2721 0.931 . S
C2735 C2734 1.385 . S
C2735 C2736 1.389 . S
C2736 C2735 1.389 . S
C2736 C2737 1.387 . S
C2737 H2722 0.930 . S
C2737 C2732 1.390 . S
C2737 C2736 1.387 . S
H2738 C2750 0.930 . S
H2739 C2752 0.930 . S
H2740 C2753 0.930 . S
H2741 C2757 0.959 . S
H2742 C2757 0.959 . S
H2743 C2757 0.961 . S
H2744 C2758 0.960 . S
H2745 C2758 0.961 . S
H2746 C2758 0.959 . S
H2747 C2761 0.929 . S
H2748 C2762 0.931 . S
H2749 C2764 0.930 . S
C2750 H2738 0.930 . S
C2750 C2751 1.399 . S
C2750 C2755 1.399 . S
C2751 C2750 1.399 . S
C2751 C2752 1.376 . S
C2752 H2739 0.930 . S
C2752 C2751 1.376 . S
C2752 C2753 1.388 . S
C2753 H2740 0.930 . S
C2753 C2752 1.388 . S
C2753 C2754 1.390 . S
C2754 C2753 1.390 . S
C2754 C2755 1.394 . S
C2754 C2760 1.465 . S
C2755 C2750 1.399 . S
C2755 C2754 1.394 . S
C2755 C2756 1.516 . S
C2756 C2755 1.516 . S
C2756 C2757 1.502 . S
C2756 C2758 1.561 . S
C2756 C2759 1.526 . S
C2757 H2741 0.959 . S
C2757 H2742 0.959 . S
C2757 H2743 0.961 . S
C2757 C2756 1.502 . S
C2758 H2744 0.960 . S
C2758 H2745 0.961 . S
C2758 H2746 0.959 . S
C2758 C2756 1.561 . S
C2759 C2756 1.526 . S
C2759 C2760 1.396 . S
C2759 C2764 1.390 . S
C2760 C2754 1.465 . S
C2760 C2759 1.396 . S
C2760 C2761 1.399 . S
C2761 H2747 0.929 . S
C2761 C2760 1.399 . S
C2761 C2762 1.385 . S
C2762 H2748 0.931 . S
C2762 C2761 1.385 . S
C2762 C2763 1.389 . S
C2763 C2762 1.389 . S
C2763 C2764 1.387 . S
C2764 H2749 0.930 . S
C2764 C2759 1.390 . S
C2764 C2763 1.387 . S
H2765 C2777 0.930 . S
H2766 C2779 0.930 . S
H2767 C2780 0.930 . S
H2768 C2784 0.959 . S
H2769 C2784 0.959 . S
H2770 C2784 0.961 . S
H2771 C2785 0.960 . S
H2772 C2785 0.961 . S
H2773 C2785 0.959 . S
H2774 C2788 0.929 . S
H2775 C2789 0.931 . S
H2776 C2791 0.930 . S
C2777 H2765 0.930 . S
C2777 C2778 1.399 . S
C2777 C2782 1.399 . S
C2778 C2777 1.399 . S
C2778 C2779 1.376 . S
C2779 H2766 0.930 . S
C2779 C2778 1.376 . S
C2779 C2780 1.388 . S
C2780 H2767 0.930 . S
C2780 C2779 1.388 . S
C2780 C2781 1.390 . S
C2781 C2780 1.390 . S
C2781 C2782 1.394 . S
C2781 C2787 1.465 . S
C2782 C2777 1.399 . S
C2782 C2781 1.394 . S
C2782 C2783 1.516 . S
C2783 C2782 1.516 . S
C2783 C2784 1.502 . S
C2783 C2785 1.561 . S
C2783 C2786 1.526 . S
C2784 H2768 0.959 . S
C2784 H2769 0.959 . S
C2784 H2770 0.961 . S
C2784 C2783 1.502 . S
C2785 H2771 0.960 . S
C2785 H2772 0.961 . S
C2785 H2773 0.959 . S
C2785 C2783 1.561 . S
C2786 C2783 1.526 . S
C2786 C2787 1.396 . S
C2786 C2791 1.390 . S
C2787 C2781 1.465 . S
C2787 C2786 1.396 . S
C2787 C2788 1.399 . S
C2788 H2774 0.929 . S
C2788 C2787 1.399 . S
C2788 C2789 1.385 . S
C2789 H2775 0.931 . S
C2789 C2788 1.385 . S
C2789 C2790 1.389 . S
C2790 C2789 1.389 . S
C2790 C2791 1.387 . S
C2791 H2776 0.930 . S
C2791 C2786 1.390 . S
C2791 C2790 1.387 . S
H2792 C2804 0.930 . S
H2793 C2806 0.930 . S
H2794 C2807 0.930 . S
H2795 C2811 0.959 . S
H2796 C2811 0.959 . S
H2797 C2811 0.961 . S
H2798 C2812 0.960 . S
H2799 C2812 0.961 1_655 S
H2800 C2812 0.959 . S
H2801 C2815 0.929 . S
H2802 C2816 0.931 . S
H2803 C2818 0.930 . S
C2804 H2792 0.930 . S
C2804 C2805 1.399 . S
C2804 C2809 1.399 . S
C2805 C2804 1.399 . S
C2805 C2806 1.376 . S
C2806 H2793 0.930 . S
C2806 C2805 1.376 . S
C2806 C2807 1.388 . S
C2807 H2794 0.930 . S
C2807 C2806 1.388 . S
C2807 C2808 1.390 . S
C2808 C2807 1.390 . S
C2808 C2809 1.394 . S
C2808 C2814 1.465 . S
C2809 C2804 1.399 . S
C2809 C2808 1.394 . S
C2809 C2810 1.516 1_455 S
C2810 C2809 1.516 1_655 S
C2810 C2811 1.502 . S
C2810 C2812 1.561 1_655 S
C2810 C2813 1.526 . S
C2811 H2795 0.959 . S
C2811 H2796 0.959 . S
C2811 H2797 0.961 . S
C2811 C2810 1.502 . S
C2812 H2798 0.960 . S
C2812 H2799 0.961 1_455 S
C2812 H2800 0.959 . S
C2812 C2810 1.561 1_455 S
C2813 C2810 1.526 . S
C2813 C2814 1.396 1_655 S
C2813 C2818 1.390 . S
C2814 C2808 1.465 . S
C2814 C2813 1.396 1_455 S
C2814 C2815 1.399 . S
C2815 H2801 0.929 . S
C2815 C2814 1.399 . S
C2815 C2816 1.385 1_455 S
C2816 H2802 0.931 . S
C2816 C2815 1.385 1_655 S
C2816 C2817 1.389 . S
C2817 C2816 1.389 . S
C2817 C2818 1.387 . S
C2818 H2803 0.930 . S
C2818 C2813 1.390 . S
C2818 C2817 1.387 . S
H2819 C2831 0.930 . S
H2820 C2833 0.930 . S
H2821 C2834 0.930 . S
H2822 C2838 0.959 . S
H2823 C2838 0.959 . S
H2824 C2838 0.961 . S
H2825 C2839 0.960 . S
H2826 C2839 0.961 . S
H2827 C2839 0.959 . S
H2828 C2842 0.929 . S
H2829 C2843 0.931 . S
H2830 C2845 0.930 . S
C2831 H2819 0.930 . S
C2831 C2832 1.399 . S
C2831 C2836 1.399 . S
C2832 C2831 1.399 . S
C2832 C2833 1.376 . S
C2833 H2820 0.930 . S
C2833 C2832 1.376 . S
C2833 C2834 1.388 . S
C2834 H2821 0.930 . S
C2834 C2833 1.388 . S
C2834 C2835 1.390 . S
C2835 C2834 1.390 . S
C2835 C2836 1.394 . S
C2835 C2841 1.465 . S
C2836 C2831 1.399 . S
C2836 C2835 1.394 . S
C2836 C2837 1.516 . S
C2837 C2836 1.516 . S
C2837 C2838 1.502 . S
C2837 C2839 1.561 . S
C2837 C2840 1.526 . S
C2838 H2822 0.959 . S
C2838 H2823 0.959 . S
C2838 H2824 0.961 . S
C2838 C2837 1.502 . S
C2839 H2825 0.960 . S
C2839 H2826 0.961 . S
C2839 H2827 0.959 . S
C2839 C2837 1.561 . S
C2840 C2837 1.526 . S
C2840 C2841 1.396 . S
C2840 C2845 1.390 . S
C2841 C2835 1.465 . S
C2841 C2840 1.396 . S
C2841 C2842 1.399 . S
C2842 H2828 0.929 . S
C2842 C2841 1.399 . S
C2842 C2843 1.385 . S
C2843 H2829 0.931 . S
C2843 C2842 1.385 . S
C2843 C2844 1.389 . S
C2844 C2843 1.389 . S
C2844 C2845 1.387 . S
C2845 H2830 0.930 . S
C2845 C2840 1.390 . S
C2845 C2844 1.387 . S
H2846 C2858 0.930 . S
H2847 C2860 0.930 . S
H2848 C2861 0.930 . S
H2849 C2865 0.959 . S
H2850 C2865 0.959 . S
H2851 C2865 0.961 . S
H2852 C2866 0.960 . S
H2853 C2866 0.961 . S
H2854 C2866 0.959 . S
H2855 C2869 0.929 . S
H2856 C2870 0.931 . S
H2857 C2872 0.930 . S
C2858 H2846 0.930 . S
C2858 C2859 1.399 . S
C2858 C2863 1.399 . S
C2859 C2858 1.399 . S
C2859 C2860 1.376 . S
C2860 H2847 0.930 . S
C2860 C2859 1.376 . S
C2860 C2861 1.388 . S
C2861 H2848 0.930 . S
C2861 C2860 1.388 . S
C2861 C2862 1.390 . S
C2862 C2861 1.390 . S
C2862 C2863 1.394 . S
C2862 C2868 1.465 . S
C2863 C2858 1.399 . S
C2863 C2862 1.394 . S
C2863 C2864 1.516 . S
C2864 C2863 1.516 . S
C2864 C2865 1.502 . S
C2864 C2866 1.561 . S
C2864 C2867 1.526 . S
C2865 H2849 0.959 . S
C2865 H2850 0.959 . S
C2865 H2851 0.961 . S
C2865 C2864 1.502 . S
C2866 H2852 0.960 . S
C2866 H2853 0.961 . S
C2866 H2854 0.959 . S
C2866 C2864 1.561 . S
C2867 C2864 1.526 . S
C2867 C2868 1.396 . S
C2867 C2872 1.390 . S
C2868 C2862 1.465 . S
C2868 C2867 1.396 . S
C2868 C2869 1.399 . S
C2869 H2855 0.929 . S
C2869 C2868 1.399 . S
C2869 C2870 1.385 . S
C2870 H2856 0.931 . S
C2870 C2869 1.385 . S
C2870 C2871 1.389 . S
C2871 C2870 1.389 . S
C2871 C2872 1.387 . S
C2872 H2857 0.930 . S
C2872 C2867 1.390 . S
C2872 C2871 1.387 . S
H2873 C2885 0.930 . S
H2874 C2887 0.930 . S
H2875 C2888 0.930 . S
H2876 C2892 0.959 . S
H2877 C2892 0.959 . S
H2878 C2892 0.961 . S
H2879 C2893 0.960 . S
H2880 C2893 0.961 . S
H2881 C2893 0.959 . S
H2882 C2896 0.929 . S
H2883 C2897 0.931 . S
H2884 C2899 0.930 . S
C2885 H2873 0.930 . S
C2885 C2886 1.399 . S
C2885 C2890 1.399 . S
C2886 C2885 1.399 . S
C2886 C2887 1.376 . S
C2887 H2874 0.930 . S
C2887 C2886 1.376 . S
C2887 C2888 1.388 . S
C2888 H2875 0.930 . S
C2888 C2887 1.388 . S
C2888 C2889 1.390 . S
C2889 C2888 1.390 . S
C2889 C2890 1.394 . S
C2889 C2895 1.465 . S
C2890 C2885 1.399 . S
C2890 C2889 1.394 . S
C2890 C2891 1.516 . S
C2891 C2890 1.516 . S
C2891 C2892 1.502 . S
C2891 C2893 1.561 . S
C2891 C2894 1.526 . S
C2892 H2876 0.959 . S
C2892 H2877 0.959 . S
C2892 H2878 0.961 . S
C2892 C2891 1.502 . S
C2893 H2879 0.960 . S
C2893 H2880 0.961 . S
C2893 H2881 0.959 . S
C2893 C2891 1.561 . S
C2894 C2891 1.526 . S
C2894 C2895 1.396 . S
C2894 C2899 1.390 . S
C2895 C2889 1.465 . S
C2895 C2894 1.396 . S
C2895 C2896 1.399 . S
C2896 H2882 0.929 . S
C2896 C2895 1.399 . S
C2896 C2897 1.385 . S
C2897 H2883 0.931 . S
C2897 C2896 1.385 . S
C2897 C2898 1.389 . S
C2898 C2897 1.389 . S
C2898 C2899 1.387 . S
C2899 H2884 0.930 . S
C2899 C2894 1.390 . S
C2899 C2898 1.387 . S
H2900 C2912 0.930 . S
H2901 C2914 0.930 . S
H2902 C2915 0.930 . S
H2903 C2919 0.959 . S
H2904 C2919 0.959 . S
H2905 C2919 0.961 . S
H2906 C2920 0.960 . S
H2907 C2920 0.961 . S
H2908 C2920 0.989 . S
H2909 C2923 0.929 . S
H2910 C2924 0.931 . S
H2911 C2926 0.930 . S
C2912 H2900 0.930 . S
C2912 C2913 1.399 1_655 S
C2912 C2917 1.399 . S
C2913 C2912 1.399 1_455 S
C2913 C2914 1.376 . S
C2914 H2901 0.930 . S
C2914 C2913 1.376 . S
C2914 C2915 1.388 . S
C2915 H2902 0.930 . S
C2915 C2914 1.388 . S
C2915 C2916 1.390 1_455 S
C2916 C2915 1.390 1_655 S
C2916 C2917 1.394 . S
C2916 C2922 1.465 . S
C2917 C2912 1.399 . S
C2917 C2916 1.394 . S
C2917 C2918 1.516 . S
C2918 C2917 1.516 . S
C2918 C2919 1.502 . S
C2918 C2920 1.561 . S
C2918 C2921 1.526 . S
C2919 H2903 0.959 . S
C2919 H2904 0.959 . S
C2919 H2905 0.961 . S
C2919 C2918 1.502 . S
C2920 H2906 0.960 . S
C2920 H2907 0.961 . S
C2920 H2908 0.989 . S
C2920 C2918 1.561 . S
C2921 C2918 1.526 . S
C2921 C2922 1.396 . S
C2921 C2926 1.390 . S
C2922 C2916 1.465 . S
C2922 C2921 1.396 . S
C2922 C2923 1.399 . S
C2923 H2909 0.929 . S
C2923 C2922 1.399 . S
C2923 C2924 1.385 . S
C2924 H2910 0.931 . S
C2924 C2923 1.385 . S
C2924 C2925 1.389 . S
C2925 C2924 1.389 . S
C2925 C2926 1.387 . S
C2926 H2911 0.930 . S
C2926 C2921 1.390 . S
C2926 C2925 1.387 . S
H2927 C2939 0.930 . S
H2928 C2941 0.930 . S
H2929 C2942 0.930 . S
H2930 C2946 0.959 . S
H2931 C2946 0.959 . S
H2932 C2946 0.961 . S
H2933 C2947 0.960 . S
H2934 C2947 0.961 . S
H2935 C2947 0.959 . S
H2936 C2950 0.929 . S
H2937 C2951 0.931 . S
H2938 C2953 0.930 . S
C2939 H2927 0.930 . S
C2939 C2940 1.399 . S
C2939 C2944 1.399 . S
C2940 C2939 1.399 . S
C2940 C2941 1.376 . S
C2941 H2928 0.930 . S
C2941 C2940 1.376 . S
C2941 C2942 1.388 . S
C2942 H2929 0.930 . S
C2942 C2941 1.388 . S
C2942 C2943 1.390 . S
C2943 C2942 1.390 . S
C2943 C2944 1.394 . S
C2943 C2949 1.465 . S
C2944 C2939 1.399 . S
C2944 C2943 1.394 . S
C2944 C2945 1.516 . S
C2945 C2944 1.516 . S
C2945 C2946 1.502 . S
C2945 C2947 1.561 . S
C2945 C2948 1.526 . S
C2946 H2930 0.959 . S
C2946 H2931 0.959 . S
C2946 H2932 0.961 . S
C2946 C2945 1.502 . S
C2947 H2933 0.960 . S
C2947 H2934 0.961 . S
C2947 H2935 0.959 . S
C2947 C2945 1.561 . S
C2948 C2945 1.526 . S
C2948 C2949 1.396 . S
C2948 C2953 1.390 . S
C2949 C2943 1.465 . S
C2949 C2948 1.396 . S
C2949 C2950 1.399 . S
C2950 H2936 0.929 . S
C2950 C2949 1.399 . S
C2950 C2951 1.385 . S
C2951 H2937 0.931 . S
C2951 C2950 1.385 . S
C2951 C2952 1.389 . S
C2952 C2951 1.389 . S
C2952 C2953 1.387 . S
C2953 H2938 0.930 . S
C2953 C2948 1.390 . S
C2953 C2952 1.387 . S
H2954 C2966 0.930 . S
H2955 C2968 0.930 . S
H2956 C2969 0.930 1_554 S
H2957 C2973 0.959 . S
H2958 C2973 0.959 . S
H2959 C2973 0.961 . S
H2960 C2974 0.960 . S
H2961 C2974 0.961 . S
H2962 C2974 0.959 . S
H2963 C2977 0.929 . S
H2964 C2978 0.931 . S
H2965 C2980 0.930 . S
C2966 H2954 0.930 . S
C2966 C2967 1.399 1_556 S
C2966 C2971 1.399 . S
C2967 C2966 1.399 1_554 S
C2967 C2968 1.376 . S
C2968 H2955 0.930 . S
C2968 C2967 1.376 . S
C2968 C2969 1.388 1_554 S
C2969 H2956 0.930 1_556 S
C2969 C2968 1.388 1_556 S
C2969 C2970 1.390 . S
C2970 C2969 1.390 . S
C2970 C2971 1.394 . S
C2970 C2976 1.465 . S
C2971 C2966 1.399 . S
C2971 C2970 1.394 . S
C2971 C2972 1.516 . S
C2972 C2971 1.516 . S
C2972 C2973 1.502 . S
C2972 C2974 1.561 . S
C2972 C2975 1.526 . S
C2973 H2957 0.959 . S
C2973 H2958 0.959 . S
C2973 H2959 0.961 . S
C2973 C2972 1.502 . S
C2974 H2960 0.960 . S
C2974 H2961 0.961 . S
C2974 H2962 0.959 . S
C2974 C2972 1.561 . S
C2975 C2972 1.526 . S
C2975 C2976 1.396 . S
C2975 C2980 1.390 . S
C2976 C2970 1.465 . S
C2976 C2975 1.396 . S
C2976 C2977 1.399 . S
C2977 H2963 0.929 . S
C2977 C2976 1.399 . S
C2977 C2978 1.385 . S
C2978 H2964 0.931 . S
C2978 C2977 1.385 . S
C2978 C2979 1.389 . S
C2979 C2978 1.389 . S
C2979 C2980 1.387 . S
C2980 H2965 0.930 . S
C2980 C2975 1.390 . S
C2980 C2979 1.387 . S
H2981 C2993 0.930 . S
H2982 C2995 0.930 . S
H2983 C2996 0.930 . S
H2984 C3000 0.959 . S
H2985 C3000 0.959 . S
H2986 C3000 0.961 . S
H2987 C3001 0.960 . S
H2988 C3001 0.961 . S
H2989 C3001 0.959 . S
H2990 C3004 0.929 . S
H2991 C3005 0.931 . S
H2992 C3007 0.930 . S
C2993 H2981 0.930 . S
C2993 C2994 1.399 . S
C2993 C2998 1.399 . S
C2994 C2993 1.399 . S
C2994 C2995 1.376 . S
C2995 H2982 0.930 . S
C2995 C2994 1.376 . S
C2995 C2996 1.388 . S
C2996 H2983 0.930 . S
C2996 C2995 1.388 . S
C2996 C2997 1.390 . S
C2997 C2996 1.390 . S
C2997 C2998 1.394 . S
C2997 C3003 1.465 . S
C2998 C2993 1.399 . S
C2998 C2997 1.394 . S
C2998 C2999 1.516 . S
C2999 C2998 1.516 . S
C2999 C3000 1.502 . S
C2999 C3001 1.561 . S
C2999 C3002 1.526 . S
C3000 H2984 0.959 . S
C3000 H2985 0.959 . S
C3000 H2986 0.961 . S
C3000 C2999 1.502 . S
C3001 H2987 0.960 . S
C3001 H2988 0.961 . S
C3001 H2989 0.959 . S
C3001 C2999 1.561 . S
C3002 C2999 1.526 . S
C3002 C3003 1.396 . S
C3002 C3007 1.390 . S
C3003 C2997 1.465 . S
C3003 C3002 1.396 . S
C3003 C3004 1.399 . S
C3004 H2990 0.929 . S
C3004 C3003 1.399 . S
C3004 C3005 1.385 . S
C3005 H2991 0.931 . S
C3005 C3004 1.385 . S
C3005 C3006 1.389 . S
C3006 C3005 1.389 . S
C3006 C3007 1.387 . S
C3007 H2992 0.930 . S
C3007 C3002 1.390 . S
C3007 C3006 1.387 . S
H3008 C3020 0.930 . S
H3009 C3022 0.930 . S
H3010 C3023 0.930 . S
H3011 C3027 0.959 . S
H3012 C3027 0.959 . S
H3013 C3027 0.961 . S
H3014 C3028 0.960 . S
H3015 C3028 0.961 . S
H3016 C3028 0.959 . S
H3017 C3031 0.929 . S
H3018 C3032 0.931 . S
H3019 C3034 0.930 . S
C3020 H3008 0.930 . S
C3020 C3021 1.399 . S
C3020 C3025 1.399 . S
C3021 C3020 1.399 . S
C3021 C3022 1.376 . S
C3022 H3009 0.930 . S
C3022 C3021 1.376 . S
C3022 C3023 1.388 . S
C3023 H3010 0.930 . S
C3023 C3022 1.388 . S
C3023 C3024 1.390 . S
C3024 C3023 1.390 . S
C3024 C3025 1.394 . S
C3024 C3030 1.465 . S
C3025 C3020 1.399 . S
C3025 C3024 1.394 . S
C3025 C3026 1.516 . S
C3026 C3025 1.516 . S
C3026 C3027 1.502 . S
C3026 C3028 1.561 . S
C3026 C3029 1.526 . S
C3027 H3011 0.959 . S
C3027 H3012 0.959 . S
C3027 H3013 0.961 . S
C3027 C3026 1.502 . S
C3028 H3014 0.960 . S
C3028 H3015 0.961 . S
C3028 H3016 0.959 . S
C3028 C3026 1.561 . S
C3029 C3026 1.526 . S
C3029 C3030 1.396 . S
C3029 C3034 1.390 . S
C3030 C3024 1.465 . S
C3030 C3029 1.396 . S
C3030 C3031 1.399 . S
C3031 H3017 0.929 . S
C3031 C3030 1.399 . S
C3031 C3032 1.385 . S
C3032 H3018 0.931 . S
C3032 C3031 1.385 . S
C3032 C3033 1.389 . S
C3033 C3032 1.389 . S
C3033 C3034 1.387 . S
C3034 H3019 0.930 . S
C3034 C3029 1.390 . S
C3034 C3033 1.387 . S
H3035 C3047 0.930 . S
H3036 C3049 0.930 . S
H3037 C3050 0.930 . S
H3038 C3054 0.959 . S
H3039 C3054 0.959 . S
H3040 C3054 0.961 . S
H3041 C3055 0.960 . S
H3042 C3055 0.961 . S
H3043 C3055 0.959 . S
H3044 C3058 0.929 . S
H3045 C3059 0.931 . S
H3046 C3061 0.930 . S
C3047 H3035 0.930 . S
C3047 C3048 1.399 . S
C3047 C3052 1.399 . S
C3048 C3047 1.399 . S
C3048 C3049 1.376 . S
C3049 H3036 0.930 . S
C3049 C3048 1.376 . S
C3049 C3050 1.388 . S
C3050 H3037 0.930 . S
C3050 C3049 1.388 . S
C3050 C3051 1.390 . S
C3051 C3050 1.390 . S
C3051 C3052 1.394 . S
C3051 C3057 1.465 . S
C3052 C3047 1.399 . S
C3052 C3051 1.394 . S
C3052 C3053 1.516 . S
C3053 C3052 1.516 . S
C3053 C3054 1.502 . S
C3053 C3055 1.561 . S
C3053 C3056 1.526 . S
C3054 H3038 0.959 . S
C3054 H3039 0.959 . S
C3054 H3040 0.961 . S
C3054 C3053 1.502 . S
C3055 H3041 0.960 . S
C3055 H3042 0.961 . S
C3055 H3043 0.959 . S
C3055 C3053 1.561 . S
C3056 C3053 1.526 . S
C3056 C3057 1.396 . S
C3056 C3061 1.390 . S
C3057 C3051 1.465 . S
C3057 C3056 1.396 . S
C3057 C3058 1.399 . S
C3058 H3044 0.929 . S
C3058 C3057 1.399 . S
C3058 C3059 1.385 . S
C3059 H3045 0.931 . S
C3059 C3058 1.385 . S
C3059 C3060 1.389 . S
C3060 C3059 1.389 . S
C3060 C3061 1.387 . S
C3061 H3046 0.930 . S
C3061 C3056 1.390 . S
C3061 C3060 1.387 . S
H3062 C3074 0.930 . S
H3063 C3076 0.930 . S
H3064 C3077 0.930 . S
H3065 C3081 0.959 . S
H3066 C3081 0.959 . S
H3067 C3081 0.958 1_554 S
H3068 C3082 0.960 . S
H3069 C3082 0.961 1_455 S
H3070 C3082 0.959 . S
H3071 C3085 0.929 . S
H3072 C3086 0.931 . S
H3073 C3088 0.930 . S
C3074 H3062 0.930 . S
C3074 C3075 1.399 . S
C3074 C3079 1.399 1_554 S
C3075 C3074 1.399 . S
C3075 C3076 1.376 1_554 S
C3076 H3063 0.930 . S
C3076 C3075 1.376 1_556 S
C3076 C3077 1.388 . S
C3077 H3064 0.930 . S
C3077 C3076 1.388 . S
C3077 C3078 1.390 . S
C3078 C3077 1.390 . S
C3078 C3079 1.394 . S
C3078 C3084 1.465 1_655 S
C3079 C3074 1.399 1_556 S
C3079 C3078 1.394 . S
C3079 C3080 1.516 1_655 S
C3080 C3079 1.516 1_455 S
C3080 C3081 1.502 . S
C3080 C3082 1.561 1_455 S
C3080 C3083 1.526 . S
C3081 H3065 0.959 . S
C3081 H3066 0.959 . S
C3081 H3067 0.958 1_556 S
C3081 C3080 1.502 . S
C3082 H3068 0.960 . S
C3082 H3069 0.961 1_655 S
C3082 H3070 0.959 . S
C3082 C3080 1.561 1_655 S
C3083 C3080 1.526 . S
C3083 C3084 1.396 . S
C3083 C3088 1.390 . S
C3084 C3078 1.465 1_455 S
C3084 C3083 1.396 . S
C3084 C3085 1.399 . S
C3085 H3071 0.929 . S
C3085 C3084 1.399 . S
C3085 C3086 1.385 . S
C3086 H3072 0.931 . S
C3086 C3085 1.385 . S
C3086 C3087 1.389 . S
C3087 C3086 1.389 . S
C3087 C3088 1.387 . S
C3088 H3073 0.930 . S
C3088 C3083 1.390 . S
C3088 C3087 1.387 . S
H3089 C3101 0.930 . S
H3090 C3103 0.930 . S
H3091 C3104 0.930 . S
H3092 C3108 0.959 . S
H3093 C3108 0.959 . S
H3094 C3108 0.961 . S
H3095 C3109 0.960 . S
H3096 C3109 0.961 . S
H3097 C3109 0.959 . S
H3098 C3112 0.929 . S
H3099 C3113 0.931 . S
H3100 C3115 0.930 . S
C3101 H3089 0.930 . S
C3101 C3102 1.399 . S
C3101 C3106 1.399 . S
C3102 C3101 1.399 . S
C3102 C3103 1.376 . S
C3103 H3090 0.930 . S
C3103 C3102 1.376 . S
C3103 C3104 1.388 . S
C3104 H3091 0.930 . S
C3104 C3103 1.388 . S
C3104 C3105 1.390 . S
C3105 C3104 1.390 . S
C3105 C3106 1.394 . S
C3105 C3111 1.465 . S
C3106 C3101 1.399 . S
C3106 C3105 1.394 . S
C3106 C3107 1.516 . S
C3107 C3106 1.516 . S
C3107 C3108 1.502 . S
C3107 C3109 1.561 . S
C3107 C3110 1.526 . S
C3108 H3092 0.959 . S
C3108 H3093 0.959 . S
C3108 H3094 0.961 . S
C3108 C3107 1.502 . S
C3109 H3095 0.960 . S
C3109 H3096 0.961 . S
C3109 H3097 0.959 . S
C3109 C3107 1.561 . S
C3110 C3107 1.526 . S
C3110 C3111 1.396 . S
C3110 C3115 1.390 . S
C3111 C3105 1.465 . S
C3111 C3110 1.396 . S
C3111 C3112 1.399 . S
C3112 H3098 0.929 . S
C3112 C3111 1.399 . S
C3112 C3113 1.385 . S
C3113 H3099 0.931 . S
C3113 C3112 1.385 . S
C3113 C3114 1.389 . S
C3114 C3113 1.389 . S
C3114 C3115 1.387 . S
C3115 H3100 0.930 . S
C3115 C3110 1.390 . S
C3115 C3114 1.387 . S
H3116 C3128 0.930 . S
H3117 C3130 0.930 . S
H3118 C3131 0.930 . S
H3119 C3135 0.959 . S
H3120 C3135 0.959 . S
H3121 C3135 0.961 . S
H3122 C3136 0.960 . S
H3123 C3136 0.961 . S
H3124 C3136 0.959 . S
H3125 C3139 0.929 . S
H3126 C3140 0.931 . S
H3127 C3142 0.930 . S
C3128 H3116 0.930 . S
C3128 C3129 1.399 . S
C3128 C3133 1.399 . S
C3129 C3128 1.399 . S
C3129 C3130 1.376 . S
C3130 H3117 0.930 . S
C3130 C3129 1.376 . S
C3130 C3131 1.388 . S
C3131 H3118 0.930 . S
C3131 C3130 1.388 . S
C3131 C3132 1.390 . S
C3132 C3131 1.390 . S
C3132 C3133 1.394 . S
C3132 C3138 1.465 . S
C3133 C3128 1.399 . S
C3133 C3132 1.394 . S
C3133 C3134 1.516 . S
C3134 C3133 1.516 . S
C3134 C3135 1.502 . S
C3134 C3136 1.561 . S
C3134 C3137 1.526 . S
C3135 H3119 0.959 . S
C3135 H3120 0.959 . S
C3135 H3121 0.961 . S
C3135 C3134 1.502 . S
C3136 H3122 0.960 . S
C3136 H3123 0.961 . S
C3136 H3124 0.959 . S
C3136 C3134 1.561 . S
C3137 C3134 1.526 . S
C3137 C3138 1.396 . S
C3137 C3142 1.390 . S
C3138 C3132 1.465 . S
C3138 C3137 1.396 . S
C3138 C3139 1.399 . S
C3139 H3125 0.929 . S
C3139 C3138 1.399 . S
C3139 C3140 1.385 . S
C3140 H3126 0.931 . S
C3140 C3139 1.385 . S
C3140 C3141 1.389 . S
C3141 C3140 1.389 . S
C3141 C3142 1.387 . S
C3142 H3127 0.930 . S
C3142 C3137 1.390 . S
C3142 C3141 1.387 . S
H3143 C3155 0.930 . S
H3144 C3157 0.930 . S
H3145 C3158 0.930 . S
H3146 C3162 0.959 . S
H3147 C3162 0.959 . S
H3148 C3162 0.961 . S
H3149 C3163 0.960 . S
H3150 C3163 0.961 . S
H3151 C3163 0.959 . S
H3152 C3166 0.929 . S
H3153 C3167 0.931 . S
H3154 C3169 0.930 . S
C3155 H3143 0.930 . S
C3155 C3156 1.399 . S
C3155 C3160 1.399 . S
C3156 C3155 1.399 . S
C3156 C3157 1.376 . S
C3157 H3144 0.930 . S
C3157 C3156 1.376 . S
C3157 C3158 1.388 . S
C3158 H3145 0.930 . S
C3158 C3157 1.388 . S
C3158 C3159 1.390 . S
C3159 C3158 1.390 . S
C3159 C3160 1.394 . S
C3159 C3165 1.465 . S
C3160 C3155 1.399 . S
C3160 C3159 1.394 . S
C3160 C3161 1.516 . S
C3161 C3160 1.516 . S
C3161 C3162 1.502 . S
C3161 C3163 1.561 . S
C3161 C3164 1.526 . S
C3162 H3146 0.959 . S
C3162 H3147 0.959 . S
C3162 H3148 0.961 . S
C3162 C3161 1.502 . S
C3163 H3149 0.960 . S
C3163 H3150 0.961 . S
C3163 H3151 0.959 . S
C3163 C3161 1.561 . S
C3164 C3161 1.526 . S
C3164 C3165 1.396 . S
C3164 C3169 1.390 . S
C3165 C3159 1.465 . S
C3165 C3164 1.396 . S
C3165 C3166 1.399 . S
C3166 H3152 0.929 . S
C3166 C3165 1.399 . S
C3166 C3167 1.385 . S
C3167 H3153 0.931 . S
C3167 C3166 1.385 . S
C3167 C3168 1.389 . S
C3168 C3167 1.389 . S
C3168 C3169 1.387 . S
C3169 H3154 0.930 . S
C3169 C3164 1.390 . S
C3169 C3168 1.387 . S
H3170 C3182 0.930 . S
H3171 C3184 0.930 . S
H3172 C3185 0.936 . S
H3173 C3189 0.959 . S
H3174 C3189 0.959 . S
H3175 C3189 0.961 . S
H3176 C3190 0.960 . S
H3177 C3190 0.961 . S
H3178 C3190 0.959 1_455 S
H3179 C3193 0.929 . S
H3180 C3194 0.931 . S
H3181 C3196 0.930 . S
C3182 H3170 0.930 . S
C3182 C3183 1.399 1_655 S
C3182 C3187 1.399 . S
C3183 C3182 1.399 1_455 S
C3183 C3184 1.376 . S
C3184 H3171 0.930 . S
C3184 C3183 1.376 . S
C3184 C3185 1.407 . S
C3185 H3172 0.936 . S
C3185 C3184 1.407 . S
C3185 C3186 1.368 1_455 S
C3186 C3185 1.368 1_655 S
C3186 C3187 1.394 . S
C3186 C3192 1.465 . S
C3187 C3182 1.399 . S
C3187 C3186 1.394 . S
C3187 C3188 1.516 . S
C3188 C3187 1.516 . S
C3188 C3189 1.502 . S
C3188 C3190 1.561 . S
C3188 C3191 1.526 . S
C3189 H3173 0.959 . S
C3189 H3174 0.959 . S
C3189 H3175 0.961 . S
C3189 C3188 1.502 . S
C3190 H3176 0.960 . S
C3190 H3177 0.961 . S
C3190 H3178 0.959 1_655 S
C3190 C3188 1.561 . S
C3191 C3188 1.526 . S
C3191 C3192 1.396 . S
C3191 C3196 1.390 . S
C3192 C3186 1.465 . S
C3192 C3191 1.396 . S
C3192 C3193 1.399 . S
C3193 H3179 0.929 . S
C3193 C3192 1.399 . S
C3193 C3194 1.385 . S
C3194 H3180 0.931 . S
C3194 C3193 1.385 . S
C3194 C3195 1.389 . S
C3195 C3194 1.389 . S
C3195 C3196 1.387 . S
C3196 H3181 0.930 . S
C3196 C3191 1.390 . S
C3196 C3195 1.387 . S
H3197 C3209 0.930 . S
H3198 C3211 0.930 . S
H3199 C3212 0.930 . S
H3200 C3216 0.959 . S
H3201 C3216 0.959 . S
H3202 C3216 0.961 . S
H3203 C3217 0.960 . S
H3204 C3217 0.961 . S
H3205 C3217 0.959 . S
H3206 C3220 0.929 . S
H3207 C3221 0.931 . S
H3208 C3223 0.930 . S
C3209 H3197 0.930 . S
C3209 C3210 1.399 . S
C3209 C3214 1.399 . S
C3210 C3209 1.399 . S
C3210 C3211 1.376 . S
C3211 H3198 0.930 . S
C3211 C3210 1.376 . S
C3211 C3212 1.388 . S
C3212 H3199 0.930 . S
C3212 C3211 1.388 . S
C3212 C3213 1.390 . S
C3213 C3212 1.390 . S
C3213 C3214 1.394 . S
C3213 C3219 1.465 . S
C3214 C3209 1.399 . S
C3214 C3213 1.394 . S
C3214 C3215 1.516 . S
C3215 C3214 1.516 . S
C3215 C3216 1.502 . S
C3215 C3217 1.561 . S
C3215 C3218 1.526 . S
C3216 H3200 0.959 . S
C3216 H3201 0.959 . S
C3216 H3202 0.961 . S
C3216 C3215 1.502 . S
C3217 H3203 0.960 . S
C3217 H3204 0.961 . S
C3217 H3205 0.959 . S
C3217 C3215 1.561 . S
C3218 C3215 1.526 . S
C3218 C3219 1.396 . S
C3218 C3223 1.390 . S
C3219 C3213 1.465 . S
C3219 C3218 1.396 . S
C3219 C3220 1.399 . S
C3220 H3206 0.929 . S
C3220 C3219 1.399 . S
C3220 C3221 1.385 . S
C3221 H3207 0.931 . S
C3221 C3220 1.385 . S
C3221 C3222 1.389 . S
C3222 C3221 1.389 . S
C3222 C3223 1.387 . S
C3223 H3208 0.930 . S
C3223 C3218 1.390 . S
C3223 C3222 1.387 . S
H3224 C3236 0.930 . S
H3225 C3238 0.930 . S
H3226 C3239 0.930 . S
H3227 C3243 0.959 . S
H3228 C3243 0.959 . S
H3229 C3243 0.961 . S
H3230 C3244 0.960 . S
H3231 C3244 0.961 . S
H3232 C3244 0.959 . S
H3233 C3247 0.929 . S
H3234 C3248 0.931 . S
H3235 C3250 0.930 . S
C3236 H3224 0.930 . S
C3236 C3237 1.399 . S
C3236 C3241 1.399 . S
C3237 C3236 1.399 . S
C3237 C3238 1.376 . S
C3238 H3225 0.930 . S
C3238 C3237 1.376 . S
C3238 C3239 1.388 . S
C3239 H3226 0.930 . S
C3239 C3238 1.388 . S
C3239 C3240 1.390 . S
C3240 C3239 1.390 . S
C3240 C3241 1.394 . S
C3240 C3246 1.465 . S
C3241 C3236 1.399 . S
C3241 C3240 1.394 . S
C3241 C3242 1.516 . S
C3242 C3241 1.516 . S
C3242 C3243 1.502 . S
C3242 C3244 1.561 . S
C3242 C3245 1.526 . S
C3243 H3227 0.959 . S
C3243 H3228 0.959 . S
C3243 H3229 0.961 . S
C3243 C3242 1.502 . S
C3244 H3230 0.960 . S
C3244 H3231 0.961 . S
C3244 H3232 0.959 . S
C3244 C3242 1.561 . S
C3245 C3242 1.526 . S
C3245 C3246 1.396 . S
C3245 C3250 1.390 . S
C3246 C3240 1.465 . S
C3246 C3245 1.396 . S
C3246 C3247 1.399 . S
C3247 H3233 0.929 . S
C3247 C3246 1.399 . S
C3247 C3248 1.385 . S
C3248 H3234 0.931 . S
C3248 C3247 1.385 . S
C3248 C3249 1.389 . S
C3249 C3248 1.389 . S
C3249 C3250 1.387 . S
C3250 H3235 0.930 . S
C3250 C3245 1.390 . S
C3250 C3249 1.387 . S
H3251 C3263 0.930 . S
H3252 C3265 0.930 . S
H3253 C3266 0.930 . S
H3254 C3270 0.959 . S
H3255 C3270 0.959 . S
H3256 C3270 0.961 . S
H3257 C3271 0.960 . S
H3258 C3271 0.961 . S
H3259 C3271 0.959 . S
H3260 C3274 0.929 . S
H3261 C3275 0.931 . S
H3262 C3277 0.930 . S
C3263 H3251 0.930 . S
C3263 C3264 1.399 . S
C3263 C3268 1.399 . S
C3264 C3263 1.399 . S
C3264 C3265 1.376 . S
C3265 H3252 0.930 . S
C3265 C3264 1.376 . S
C3265 C3266 1.388 . S
C3266 H3253 0.930 . S
C3266 C3265 1.388 . S
C3266 C3267 1.390 . S
C3267 C3266 1.390 . S
C3267 C3268 1.394 . S
C3267 C3273 1.465 . S
C3268 C3263 1.399 . S
C3268 C3267 1.394 . S
C3268 C3269 1.516 . S
C3269 C3268 1.516 . S
C3269 C3270 1.502 . S
C3269 C3271 1.561 . S
C3269 C3272 1.526 . S
C3270 H3254 0.959 . S
C3270 H3255 0.959 . S
C3270 H3256 0.961 . S
C3270 C3269 1.502 . S
C3271 H3257 0.960 . S
C3271 H3258 0.961 . S
C3271 H3259 0.959 . S
C3271 C3269 1.561 . S
C3272 C3269 1.526 . S
C3272 C3273 1.396 . S
C3272 C3277 1.390 . S
C3273 C3267 1.465 . S
C3273 C3272 1.396 . S
C3273 C3274 1.399 . S
C3274 H3260 0.929 . S
C3274 C3273 1.399 . S
C3274 C3275 1.385 . S
C3275 H3261 0.931 . S
C3275 C3274 1.385 . S
C3275 C3276 1.389 . S
C3276 C3275 1.389 . S
C3276 C3277 1.387 . S
C3277 H3262 0.930 . S
C3277 C3272 1.390 . S
C3277 C3276 1.387 . S
H3278 C3290 0.930 . S
H3279 C3292 0.930 . S
H3280 C3293 0.930 . S
H3281 C3297 0.959 . S
H3282 C3297 0.959 . S
H3283 C3297 0.961 . S
H3284 C3298 0.960 . S
H3285 C3298 0.961 . S
H3286 C3298 0.959 . S
H3287 C3301 0.929 . S
H3288 C3302 0.931 . S
H3289 C3304 0.930 . S
C3290 H3278 0.930 . S
C3290 C3291 1.399 . S
C3290 C3295 1.399 . S
C3291 C3290 1.399 . S
C3291 C3292 1.376 1_455 S
C3292 H3279 0.930 . S
C3292 C3291 1.376 1_655 S
C3292 C3293 1.388 . S
C3293 H3280 0.930 . S
C3293 C3292 1.388 . S
C3293 C3294 1.390 . S
C3294 C3293 1.390 . S
C3294 C3295 1.394 1_655 S
C3294 C3300 1.465 . S
C3295 C3290 1.399 . S
C3295 C3294 1.394 1_455 S
C3295 C3296 1.516 . S
C3296 C3295 1.516 . S
C3296 C3297 1.502 . S
C3296 C3298 1.561 . S
C3296 C3299 1.526 1_455 S
C3297 H3281 0.959 . S
C3297 H3282 0.959 . S
C3297 H3283 0.961 . S
C3297 C3296 1.502 . S
C3298 H3284 0.960 . S
C3298 H3285 0.961 . S
C3298 H3286 0.959 . S
C3298 C3296 1.561 . S
C3299 C3296 1.526 1_655 S
C3299 C3300 1.396 . S
C3299 C3304 1.390 . S
C3300 C3294 1.465 . S
C3300 C3299 1.396 . S
C3300 C3301 1.399 . S
C3301 H3287 0.929 . S
C3301 C3300 1.399 . S
C3301 C3302 1.385 . S
C3302 H3288 0.931 . S
C3302 C3301 1.385 . S
C3302 C3303 1.389 . S
C3303 C3302 1.389 . S
C3303 C3304 1.387 . S
C3304 H3289 0.930 . S
C3304 C3299 1.390 . S
C3304 C3303 1.387 . S
H3305 C3317 0.930 . S
H3306 C3319 0.930 . S
H3307 C3320 0.930 . S
H3308 C3324 0.959 . S
H3309 C3324 0.959 . S
H3310 C3324 0.961 . S
H3311 C3325 0.960 . S
H3312 C3325 0.961 . S
H3313 C3325 0.959 . S
H3314 C3328 0.929 . S
H3315 C3329 0.931 . S
H3316 C3331 0.930 . S
C3317 H3305 0.930 . S
C3317 C3318 1.399 . S
C3317 C3322 1.399 . S
C3318 C3317 1.399 . S
C3318 C3319 1.376 . S
C3319 H3306 0.930 . S
C3319 C3318 1.376 . S
C3319 C3320 1.388 . S
C3320 H3307 0.930 . S
C3320 C3319 1.388 . S
C3320 C3321 1.390 . S
C3321 C3320 1.390 . S
C3321 C3322 1.394 . S
C3321 C3327 1.465 . S
C3322 C3317 1.399 . S
C3322 C3321 1.394 . S
C3322 C3323 1.516 . S
C3323 C3322 1.516 . S
C3323 C3324 1.502 . S
C3323 C3325 1.561 . S
C3323 C3326 1.526 . S
C3324 H3308 0.959 . S
C3324 H3309 0.959 . S
C3324 H3310 0.961 . S
C3324 C3323 1.502 . S
C3325 H3311 0.960 . S
C3325 H3312 0.961 . S
C3325 H3313 0.959 . S
C3325 C3323 1.561 . S
C3326 C3323 1.526 . S
C3326 C3327 1.396 . S
C3326 C3331 1.390 . S
C3327 C3321 1.465 . S
C3327 C3326 1.396 . S
C3327 C3328 1.399 . S
C3328 H3314 0.929 . S
C3328 C3327 1.399 . S
C3328 C3329 1.385 . S
C3329 H3315 0.931 . S
C3329 C3328 1.385 . S
C3329 C3330 1.389 . S
C3330 C3329 1.389 . S
C3330 C3331 1.387 . S
C3331 H3316 0.930 . S
C3331 C3326 1.390 . S
C3331 C3330 1.387 . S
H3332 C3344 0.930 . S
H3333 C3346 0.930 . S
H3334 C3347 0.930 . S
H3335 C3351 0.959 . S
H3336 C3351 0.959 . S
H3337 C3351 0.961 . S
H3338 C3352 0.960 . S
H3339 C3352 0.961 . S
H3340 C3352 0.959 . S
H3341 C3355 0.929 . S
H3342 C3356 0.931 . S
H3343 C3358 0.928 1_554 S
C3344 H3332 0.930 . S
C3344 C3345 1.399 . S
C3344 C3349 1.399 . S
C3345 C3344 1.399 . S
C3345 C3346 1.376 . S
C3346 H3333 0.930 . S
C3346 C3345 1.376 . S
C3346 C3347 1.388 . S
C3347 H3334 0.930 . S
C3347 C3346 1.388 . S
C3347 C3348 1.390 . S
C3348 C3347 1.390 . S
C3348 C3349 1.394 . S
C3348 C3354 1.465 . S
C3349 C3344 1.399 . S
C3349 C3348 1.394 . S
C3349 C3350 1.516 . S
C3350 C3349 1.516 . S
C3350 C3351 1.502 . S
C3350 C3352 1.561 . S
C3350 C3353 1.526 . S
C3351 H3335 0.959 . S
C3351 H3336 0.959 . S
C3351 H3337 0.961 . S
C3351 C3350 1.502 . S
C3352 H3338 0.960 . S
C3352 H3339 0.961 . S
C3352 H3340 0.959 . S
C3352 C3350 1.561 . S
C3353 C3350 1.526 . S
C3353 C3354 1.396 . S
C3353 C3358 1.390 . S
C3354 C3348 1.465 . S
C3354 C3353 1.396 . S
C3354 C3355 1.399 . S
C3355 H3341 0.929 . S
C3355 C3354 1.399 . S
C3355 C3356 1.385 1_556 S
C3356 H3342 0.931 . S
C3356 C3355 1.385 1_554 S
C3356 C3357 1.389 . S
C3357 C3356 1.389 . S
C3357 C3358 1.387 1_554 S
C3358 H3343 0.928 1_556 S
C3358 C3353 1.390 . S
C3358 C3357 1.387 1_556 S
H3359 C3371 0.930 . S
H3360 C3373 0.930 . S
H3361 C3374 0.930 . S
H3362 C3378 0.959 . S
H3363 C3378 0.959 . S
H3364 C3378 0.961 . S
H3365 C3379 0.960 . S
H3366 C3379 0.961 . S
H3367 C3379 0.959 . S
H3368 C3382 0.929 . S
H3369 C3383 0.931 . S
H3370 C3385 0.930 . S
C3371 H3359 0.930 . S
C3371 C3372 1.399 . S
C3371 C3376 1.399 . S
C3372 C3371 1.399 . S
C3372 C3373 1.376 . S
C3373 H3360 0.930 . S
C3373 C3372 1.376 . S
C3373 C3374 1.388 . S
C3374 H3361 0.930 . S
C3374 C3373 1.388 . S
C3374 C3375 1.390 . S
C3375 C3374 1.390 . S
C3375 C3376 1.394 . S
C3375 C3381 1.465 . S
C3376 C3371 1.399 . S
C3376 C3375 1.394 . S
C3376 C3377 1.516 . S
C3377 C3376 1.516 . S
C3377 C3378 1.502 . S
C3377 C3379 1.561 . S
C3377 C3380 1.526 . S
C3378 H3362 0.959 . S
C3378 H3363 0.959 . S
C3378 H3364 0.961 . S
C3378 C3377 1.502 . S
C3379 H3365 0.960 . S
C3379 H3366 0.961 . S
C3379 H3367 0.959 . S
C3379 C3377 1.561 . S
C3380 C3377 1.526 . S
C3380 C3381 1.396 . S
C3380 C3385 1.390 . S
C3381 C3375 1.465 . S
C3381 C3380 1.396 . S
C3381 C3382 1.399 . S
C3382 H3368 0.929 . S
C3382 C3381 1.399 . S
C3382 C3383 1.385 . S
C3383 H3369 0.931 . S
C3383 C3382 1.385 . S
C3383 C3384 1.389 . S
C3384 C3383 1.389 . S
C3384 C3385 1.387 . S
C3385 H3370 0.930 . S
C3385 C3380 1.390 . S
C3385 C3384 1.387 . S
H3386 C3398 0.930 . S
H3387 C3400 0.930 . S
H3388 C3401 0.930 . S
H3389 C3405 0.959 . S
H3390 C3405 0.959 . S
H3391 C3405 0.961 . S
H3392 C3406 0.960 . S
H3393 C3406 0.961 1_655 S
H3394 C3406 0.959 1_655 S
H3395 C3409 0.929 . S
H3396 C3410 0.931 . S
H3397 C3412 0.930 . S
C3398 H3386 0.930 . S
C3398 C3399 1.399 . S
C3398 C3403 1.399 . S
C3399 C3398 1.399 . S
C3399 C3400 1.376 . S
C3400 H3387 0.930 . S
C3400 C3399 1.376 . S
C3400 C3401 1.388 . S
C3401 H3388 0.930 . S
C3401 C3400 1.388 . S
C3401 C3402 1.390 . S
C3402 C3401 1.390 . S
C3402 C3403 1.394 . S
C3402 C3408 1.465 . S
C3403 C3398 1.399 . S
C3403 C3402 1.394 . S
C3403 C3404 1.516 . S
C3404 C3403 1.516 . S
C3404 C3405 1.502 . S
C3404 C3406 1.561 . S
C3404 C3407 1.526 . S
C3405 H3389 0.959 . S
C3405 H3390 0.959 . S
C3405 H3391 0.961 . S
C3405 C3404 1.502 . S
C3406 H3392 0.960 . S
C3406 H3393 0.961 1_455 S
C3406 H3394 0.959 1_455 S
C3406 C3404 1.561 . S
C3407 C3404 1.526 . S
C3407 C3408 1.396 . S
C3407 C3412 1.390 . S
C3408 C3402 1.465 . S
C3408 C3407 1.396 . S
C3408 C3409 1.399 . S
C3409 H3395 0.929 . S
C3409 C3408 1.399 . S
C3409 C3410 1.385 1_455 S
C3410 H3396 0.931 . S
C3410 C3409 1.385 1_655 S
C3410 C3411 1.389 . S
C3411 C3410 1.389 . S
C3411 C3412 1.387 1_655 S
C3412 H3397 0.930 . S
C3412 C3407 1.390 . S
C3412 C3411 1.387 1_455 S
H3413 C3425 0.930 . S
H3414 C3427 0.930 . S
H3415 C3428 0.930 . S
H3416 C3432 0.959 . S
H3417 C3432 0.959 . S
H3418 C3432 0.961 . S
H3419 C3433 0.960 . S
H3420 C3433 0.961 . S
H3421 C3433 0.959 . S
H3422 C3436 0.929 . S
H3423 C3437 0.931 . S
H3424 C3439 0.930 . S
C3425 H3413 0.930 . S
C3425 C3426 1.399 . S
C3425 C3430 1.399 . S
C3426 C3425 1.399 . S
C3426 C3427 1.376 . S
C3427 H3414 0.930 . S
C3427 C3426 1.376 . S
C3427 C3428 1.388 . S
C3428 H3415 0.930 . S
C3428 C3427 1.388 . S
C3428 C3429 1.390 . S
C3429 C3428 1.390 . S
C3429 C3430 1.394 . S
C3429 C3435 1.465 . S
C3430 C3425 1.399 . S
C3430 C3429 1.394 . S
C3430 C3431 1.516 . S
C3431 C3430 1.516 . S
C3431 C3432 1.502 . S
C3431 C3433 1.561 . S
C3431 C3434 1.526 . S
C3432 H3416 0.959 . S
C3432 H3417 0.959 . S
C3432 H3418 0.961 . S
C3432 C3431 1.502 . S
C3433 H3419 0.960 . S
C3433 H3420 0.961 . S
C3433 H3421 0.959 . S
C3433 C3431 1.561 . S
C3434 C3431 1.526 . S
C3434 C3435 1.396 . S
C3434 C3439 1.390 . S
C3435 C3429 1.465 . S
C3435 C3434 1.396 . S
C3435 C3436 1.399 . S
C3436 H3422 0.929 . S
C3436 C3435 1.399 . S
C3436 C3437 1.385 . S
C3437 H3423 0.931 . S
C3437 C3436 1.385 . S
C3437 C3438 1.389 . S
C3438 C3437 1.389 . S
C3438 C3439 1.387 . S
C3439 H3424 0.930 . S
C3439 C3434 1.390 . S
C3439 C3438 1.387 . S
H3440 C3452 0.930 . S
H3441 C3454 0.930 . S
H3442 C3455 0.930 . S
H3443 C3459 0.959 . S
H3444 C3459 0.959 . S
H3445 C3459 0.961 . S
H3446 C3460 0.960 . S
H3447 C3460 0.961 . S
H3448 C3460 0.959 . S
H3449 C3463 0.929 . S
H3450 C3464 0.931 . S
H3451 C3466 0.930 . S
C3452 H3440 0.930 . S
C3452 C3453 1.399 . S
C3452 C3457 1.399 . S
C3453 C3452 1.399 . S
C3453 C3454 1.376 . S
C3454 H3441 0.930 . S
C3454 C3453 1.376 . S
C3454 C3455 1.388 . S
C3455 H3442 0.930 . S
C3455 C3454 1.388 . S
C3455 C3456 1.390 . S
C3456 C3455 1.390 . S
C3456 C3457 1.394 . S
C3456 C3462 1.465 . S
C3457 C3452 1.399 . S
C3457 C3456 1.394 . S
C3457 C3458 1.516 . S
C3458 C3457 1.516 . S
C3458 C3459 1.502 . S
C3458 C3460 1.561 . S
C3458 C3461 1.526 . S
C3459 H3443 0.959 . S
C3459 H3444 0.959 . S
C3459 H3445 0.961 . S
C3459 C3458 1.502 . S
C3460 H3446 0.960 . S
C3460 H3447 0.961 . S
C3460 H3448 0.959 . S
C3460 C3458 1.561 . S
C3461 C3458 1.526 . S
C3461 C3462 1.396 . S
C3461 C3466 1.390 . S
C3462 C3456 1.465 . S
C3462 C3461 1.396 . S
C3462 C3463 1.399 . S
C3463 H3449 0.929 . S
C3463 C3462 1.399 . S
C3463 C3464 1.385 . S
C3464 H3450 0.931 . S
C3464 C3463 1.385 . S
C3464 C3465 1.389 . S
C3465 C3464 1.389 . S
C3465 C3466 1.387 . S
C3466 H3451 0.930 . S
C3466 C3461 1.390 . S
C3466 C3465 1.387 . S
H3467 C3479 0.930 . S
H3468 C3481 0.930 . S
H3469 C3482 0.930 . S
H3470 C3486 0.959 . S
H3471 C3486 0.959 . S
H3472 C3486 0.961 . S
H3473 C3487 0.960 . S
H3474 C3487 0.961 . S
H3475 C3487 0.959 . S
H3476 C3490 0.929 . S
H3477 C3491 0.931 . S
H3478 C3493 0.930 . S
C3479 H3467 0.930 . S
C3479 C3480 1.399 . S
C3479 C3484 1.405 . S
C3480 C3479 1.399 . S
C3480 C3481 1.376 . S
C3481 H3468 0.930 . S
C3481 C3480 1.376 . S
C3481 C3482 1.388 . S
C3482 H3469 0.930 . S
C3482 C3481 1.388 . S
C3482 C3483 1.390 1_556 S
C3483 C3482 1.390 1_554 S
C3483 C3484 1.393 1_554 S
C3483 C3489 1.465 . S
C3484 C3479 1.405 . S
C3484 C3483 1.393 1_556 S
C3484 C3485 1.510 1_556 S
C3485 C3484 1.510 1_554 S
C3485 C3486 1.502 . S
C3485 C3487 1.561 . S
C3485 C3488 1.526 . S
C3486 H3470 0.959 . S
C3486 H3471 0.959 . S
C3486 H3472 0.961 . S
C3486 C3485 1.502 . S
C3487 H3473 0.960 . S
C3487 H3474 0.961 . S
C3487 H3475 0.959 . S
C3487 C3485 1.561 . S
C3488 C3485 1.526 . S
C3488 C3489 1.396 . S
C3488 C3493 1.390 . S
C3489 C3483 1.465 . S
C3489 C3488 1.396 . S
C3489 C3490 1.399 . S
C3490 H3476 0.929 . S
C3490 C3489 1.399 . S
C3490 C3491 1.385 . S
C3491 H3477 0.931 . S
C3491 C3490 1.385 . S
C3491 C3492 1.389 . S
C3492 C3491 1.389 . S
C3492 C3493 1.387 . S
C3493 H3478 0.930 . S
C3493 C3488 1.390 . S
C3493 C3492 1.387 . S
H3494 C3506 0.930 . S
H3495 C3508 0.930 . S
H3496 C3509 0.930 . S
H3497 C3513 0.959 . S
H3498 C3513 0.959 . S
H3499 C3513 0.961 . S
H3500 C3514 0.960 . S
H3501 C3514 0.961 . S
H3502 C3514 0.959 . S
H3503 C3517 0.929 . S
H3504 C3518 0.931 . S
H3505 C3520 0.930 . S
C3506 H3494 0.930 . S
C3506 C3507 1.399 . S
C3506 C3511 1.399 . S
C3507 C3506 1.399 . S
C3507 C3508 1.376 . S
C3508 H3495 0.930 . S
C3508 C3507 1.376 . S
C3508 C3509 1.388 . S
C3509 H3496 0.930 . S
C3509 C3508 1.388 . S
C3509 C3510 1.390 . S
C3510 C3509 1.390 . S
C3510 C3511 1.394 . S
C3510 C3516 1.465 . S
C3511 C3506 1.399 . S
C3511 C3510 1.394 . S
C3511 C3512 1.516 . S
C3512 C3511 1.516 . S
C3512 C3513 1.502 . S
C3512 C3514 1.561 . S
C3512 C3515 1.526 . S
C3513 H3497 0.959 . S
C3513 H3498 0.959 . S
C3513 H3499 0.961 . S
C3513 C3512 1.502 . S
C3514 H3500 0.960 . S
C3514 H3501 0.961 . S
C3514 H3502 0.959 . S
C3514 C3512 1.561 . S
C3515 C3512 1.526 . S
C3515 C3516 1.396 . S
C3515 C3520 1.390 . S
C3516 C3510 1.465 . S
C3516 C3515 1.396 . S
C3516 C3517 1.399 . S
C3517 H3503 0.929 . S
C3517 C3516 1.399 . S
C3517 C3518 1.385 . S
C3518 H3504 0.931 . S
C3518 C3517 1.385 . S
C3518 C3519 1.389 . S
C3519 C3518 1.389 . S
C3519 C3520 1.387 . S
C3520 H3505 0.930 . S
C3520 C3515 1.390 . S
C3520 C3519 1.387 . S
H3521 C3533 0.930 . S
H3522 C3535 0.930 . S
H3523 C3536 0.930 . S
H3524 C3540 0.959 . S
H3525 C3540 0.959 . S
H3526 C3540 0.961 . S
H3527 C3541 0.960 . S
H3528 C3541 0.961 . S
H3529 C3541 0.959 . S
H3530 C3544 0.929 . S
H3531 C3545 0.931 . S
H3532 C3547 0.930 . S
C3533 H3521 0.930 . S
C3533 C3534 1.399 . S
C3533 C3538 1.399 . S
C3534 C3533 1.399 . S
C3534 C3535 1.376 . S
C3535 H3522 0.930 . S
C3535 C3534 1.376 . S
C3535 C3536 1.388 . S
C3536 H3523 0.930 . S
C3536 C3535 1.388 . S
C3536 C3537 1.390 . S
C3537 C3536 1.390 . S
C3537 C3538 1.394 . S
C3537 C3543 1.465 . S
C3538 C3533 1.399 . S
C3538 C3537 1.394 . S
C3538 C3539 1.516 . S
C3539 C3538 1.516 . S
C3539 C3540 1.502 . S
C3539 C3541 1.561 . S
C3539 C3542 1.526 . S
C3540 H3524 0.959 . S
C3540 H3525 0.959 . S
C3540 H3526 0.961 . S
C3540 C3539 1.502 . S
C3541 H3527 0.960 . S
C3541 H3528 0.961 . S
C3541 H3529 0.959 . S
C3541 C3539 1.561 . S
C3542 C3539 1.526 . S
C3542 C3543 1.396 . S
C3542 C3547 1.390 . S
C3543 C3537 1.465 . S
C3543 C3542 1.396 . S
C3543 C3544 1.399 . S
C3544 H3530 0.929 . S
C3544 C3543 1.399 . S
C3544 C3545 1.385 . S
C3545 H3531 0.931 . S
C3545 C3544 1.385 . S
C3545 C3546 1.389 . S
C3546 C3545 1.389 . S
C3546 C3547 1.387 . S
C3547 H3532 0.930 . S
C3547 C3542 1.390 . S
C3547 C3546 1.387 . S
H3548 C3560 0.930 . S
H3549 C3562 0.930 . S
H3550 C3563 0.930 . S
H3551 C3567 0.959 . S
H3552 C3567 0.959 . S
H3553 C3567 0.961 . S
H3554 C3568 0.960 . S
H3555 C3568 0.961 . S
H3556 C3568 0.959 . S
H3557 C3571 0.929 . S
H3558 C3572 0.931 . S
H3559 C3574 0.930 . S
C3560 H3548 0.930 . S
C3560 C3561 1.399 . S
C3560 C3565 1.399 . S
C3561 C3560 1.399 . S
C3561 C3562 1.376 . S
C3562 H3549 0.930 . S
C3562 C3561 1.376 . S
C3562 C3563 1.388 . S
C3563 H3550 0.930 . S
C3563 C3562 1.388 . S
C3563 C3564 1.390 . S
C3564 C3563 1.390 . S
C3564 C3565 1.394 . S
C3564 C3570 1.465 . S
C3565 C3560 1.399 . S
C3565 C3564 1.394 . S
C3565 C3566 1.516 . S
C3566 C3565 1.516 . S
C3566 C3567 1.502 . S
C3566 C3568 1.561 . S
C3566 C3569 1.526 . S
C3567 H3551 0.959 . S
C3567 H3552 0.959 . S
C3567 H3553 0.961 . S
C3567 C3566 1.502 . S
C3568 H3554 0.960 . S
C3568 H3555 0.961 . S
C3568 H3556 0.959 . S
C3568 C3566 1.561 . S
C3569 C3566 1.526 . S
C3569 C3570 1.396 . S
C3569 C3574 1.390 . S
C3570 C3564 1.465 . S
C3570 C3569 1.396 . S
C3570 C3571 1.399 . S
C3571 H3557 0.929 . S
C3571 C3570 1.399 . S
C3571 C3572 1.385 . S
C3572 H3558 0.931 . S
C3572 C3571 1.385 . S
C3572 C3573 1.389 . S
C3573 C3572 1.389 . S
C3573 C3574 1.387 . S
C3574 H3559 0.930 . S
C3574 C3569 1.390 . S
C3574 C3573 1.387 . S
H3575 C3587 0.930 . S
H3576 C3589 0.930 . S
H3577 C3590 0.930 . S
H3578 C3594 0.959 . S
H3579 C3594 0.959 . S
H3580 C3594 0.961 . S
H3581 C3595 0.960 . S
H3582 C3595 0.961 . S
H3583 C3595 0.959 . S
H3584 C3598 0.929 . S
H3585 C3599 0.931 . S
H3586 C3601 0.930 . S
C3587 H3575 0.930 . S
C3587 C3588 1.399 . S
C3587 C3592 1.399 . S
C3588 C3587 1.399 . S
C3588 C3589 1.376 . S
C3589 H3576 0.930 . S
C3589 C3588 1.376 . S
C3589 C3590 1.388 . S
C3590 H3577 0.930 . S
C3590 C3589 1.388 . S
C3590 C3591 1.390 . S
C3591 C3590 1.390 . S
C3591 C3592 1.394 . S
C3591 C3597 1.465 . S
C3592 C3587 1.399 . S
C3592 C3591 1.394 . S
C3592 C3593 1.516 . S
C3593 C3592 1.516 . S
C3593 C3594 1.502 . S
C3593 C3595 1.561 . S
C3593 C3596 1.526 . S
C3594 H3578 0.959 . S
C3594 H3579 0.959 . S
C3594 H3580 0.961 . S
C3594 C3593 1.502 . S
C3595 H3581 0.960 . S
C3595 H3582 0.961 . S
C3595 H3583 0.959 . S
C3595 C3593 1.561 . S
C3596 C3593 1.526 . S
C3596 C3597 1.396 . S
C3596 C3601 1.390 . S
C3597 C3591 1.465 . S
C3597 C3596 1.396 . S
C3597 C3598 1.399 . S
C3598 H3584 0.929 . S
C3598 C3597 1.399 . S
C3598 C3599 1.385 . S
C3599 H3585 0.931 . S
C3599 C3598 1.385 . S
C3599 C3600 1.389 . S
C3600 C3599 1.389 . S
C3600 C3601 1.387 . S
C3601 H3586 0.930 . S
C3601 C3596 1.390 . S
C3601 C3600 1.387 . S
H3602 C3614 0.928 1_554 S
H3603 C3616 0.930 . S
H3604 C3617 0.930 . S
H3605 C3621 0.959 . S
H3606 C3621 0.959 . S
H3607 C3621 0.961 . S
H3608 C3622 0.960 . S
H3609 C3622 0.961 . S
H3610 C3622 0.959 . S
H3611 C3625 0.929 . S
H3612 C3626 0.931 . S
H3613 C3628 0.930 . S
C3614 H3602 0.928 1_556 S
C3614 C3615 1.418 . S
C3614 C3619 1.382 1_556 S
C3615 C3614 1.418 . S
C3615 C3616 1.376 . S
C3616 H3603 0.930 . S
C3616 C3615 1.376 . S
C3616 C3617 1.388 . S
C3617 H3604 0.930 . S
C3617 C3616 1.388 . S
C3617 C3618 1.390 1_556 S
C3618 C3617 1.390 1_554 S
C3618 C3619 1.394 . S
C3618 C3624 1.465 . S
C3619 C3614 1.382 1_554 S
C3619 C3618 1.394 . S
C3619 C3620 1.516 . S
C3620 C3619 1.516 . S
C3620 C3621 1.502 . S
C3620 C3622 1.561 . S
C3620 C3623 1.526 . S
C3621 H3605 0.959 . S
C3621 H3606 0.959 . S
C3621 H3607 0.961 . S
C3621 C3620 1.502 . S
C3622 H3608 0.960 . S
C3622 H3609 0.961 . S
C3622 H3610 0.959 . S
C3622 C3620 1.561 . S
C3623 C3620 1.526 . S
C3623 C3624 1.396 . S
C3623 C3628 1.390 . S
C3624 C3618 1.465 . S
C3624 C3623 1.396 . S
C3624 C3625 1.399 . S
C3625 H3611 0.929 . S
C3625 C3624 1.399 . S
C3625 C3626 1.385 . S
C3626 H3612 0.931 . S
C3626 C3625 1.385 . S
C3626 C3627 1.389 . S
C3627 C3626 1.389 . S
C3627 C3628 1.387 . S
C3628 H3613 0.930 . S
C3628 C3623 1.390 . S
C3628 C3627 1.387 . S
H3629 C3641 0.930 . S
H3630 C3643 0.930 . S
H3631 C3644 0.930 . S
H3632 C3648 0.959 . S
H3633 C3648 0.959 . S
H3634 C3648 0.961 . S
H3635 C3649 0.960 . S
H3636 C3649 0.961 . S
H3637 C3649 0.959 . S
H3638 C3652 0.929 . S
H3639 C3653 0.931 . S
H3640 C3655 0.930 . S
C3641 H3629 0.930 . S
C3641 C3642 1.399 . S
C3641 C3646 1.399 . S
C3642 C3641 1.399 . S
C3642 C3643 1.376 . S
C3643 H3630 0.930 . S
C3643 C3642 1.376 . S
C3643 C3644 1.388 . S
C3644 H3631 0.930 . S
C3644 C3643 1.388 . S
C3644 C3645 1.390 . S
C3645 C3644 1.390 . S
C3645 C3646 1.394 . S
C3645 C3651 1.465 . S
C3646 C3641 1.399 . S
C3646 C3645 1.394 . S
C3646 C3647 1.516 . S
C3647 C3646 1.516 . S
C3647 C3648 1.502 . S
C3647 C3649 1.561 . S
C3647 C3650 1.526 . S
C3648 H3632 0.959 . S
C3648 H3633 0.959 . S
C3648 H3634 0.961 . S
C3648 C3647 1.502 . S
C3649 H3635 0.960 . S
C3649 H3636 0.961 . S
C3649 H3637 0.959 . S
C3649 C3647 1.561 . S
C3650 C3647 1.526 . S
C3650 C3651 1.396 . S
C3650 C3655 1.390 . S
C3651 C3645 1.465 . S
C3651 C3650 1.396 . S
C3651 C3652 1.399 . S
C3652 H3638 0.929 . S
C3652 C3651 1.399 . S
C3652 C3653 1.385 . S
C3653 H3639 0.931 . S
C3653 C3652 1.385 . S
C3653 C3654 1.389 . S
C3654 C3653 1.389 . S
C3654 C3655 1.387 . S
C3655 H3640 0.930 . S
C3655 C3650 1.390 . S
C3655 C3654 1.387 . S
H3656 C3668 0.965 . S
H3657 C3670 0.930 . S
H3658 C3671 0.930 . S
H3659 C3675 0.959 . S
H3660 C3675 0.959 . S
H3661 C3675 0.961 . S
H3662 C3676 0.960 . S
H3663 C3676 0.961 . S
H3664 C3676 0.959 . S
H3665 C3679 0.929 . S
H3666 C3680 0.931 . S
H3667 C3682 0.930 . S
C3668 H3656 0.965 . S
C3668 C3669 1.399 . S
C3668 C3673 1.399 . S
C3669 C3668 1.399 . S
C3669 C3670 1.376 . S
C3670 H3657 0.930 . S
C3670 C3669 1.376 . S
C3670 C3671 1.388 . S
C3671 H3658 0.930 . S
C3671 C3670 1.388 . S
C3671 C3672 1.390 . S
C3672 C3671 1.390 . S
C3672 C3673 1.394 . S
C3672 C3678 1.465 . S
C3673 C3668 1.399 . S
C3673 C3672 1.394 . S
C3673 C3674 1.516 1_565 S
C3674 C3673 1.516 1_545 S
C3674 C3675 1.502 . S
C3674 C3676 1.561 . S
C3674 C3677 1.526 . S
C3675 H3659 0.959 . S
C3675 H3660 0.959 . S
C3675 H3661 0.961 . S
C3675 C3674 1.502 . S
C3676 H3662 0.960 . S
C3676 H3663 0.961 . S
C3676 H3664 0.959 . S
C3676 C3674 1.561 . S
C3677 C3674 1.526 . S
C3677 C3678 1.396 1_545 S
C3677 C3682 1.390 . S
C3678 C3672 1.465 . S
C3678 C3677 1.396 1_565 S
C3678 C3679 1.399 . S
C3679 H3665 0.929 . S
C3679 C3678 1.399 . S
C3679 C3680 1.385 . S
C3680 H3666 0.931 . S
C3680 C3679 1.385 . S
C3680 C3681 1.389 1_565 S
C3681 C3680 1.389 1_545 S
C3681 C3682 1.387 . S
C3682 H3667 0.930 . S
C3682 C3677 1.390 . S
C3682 C3681 1.387 . S
H3683 C3695 0.930 . S
H3684 C3697 0.930 . S
H3685 C3698 0.930 . S
H3686 C3702 0.959 . S
H3687 C3702 0.959 . S
H3688 C3702 0.961 . S
H3689 C3703 0.960 . S
H3690 C3703 0.961 . S
H3691 C3703 0.959 . S
H3692 C3706 0.929 . S
H3693 C3707 0.931 . S
H3694 C3709 0.930 . S
C3695 H3683 0.930 . S
C3695 C3696 1.399 . S
C3695 C3700 1.399 . S
C3696 C3695 1.399 . S
C3696 C3697 1.376 . S
C3697 H3684 0.930 . S
C3697 C3696 1.376 . S
C3697 C3698 1.388 . S
C3698 H3685 0.930 . S
C3698 C3697 1.388 . S
C3698 C3699 1.390 . S
C3699 C3698 1.390 . S
C3699 C3700 1.394 . S
C3699 C3705 1.465 . S
C3700 C3695 1.399 . S
C3700 C3699 1.394 . S
C3700 C3701 1.516 . S
C3701 C3700 1.516 . S
C3701 C3702 1.502 . S
C3701 C3703 1.561 . S
C3701 C3704 1.526 . S
C3702 H3686 0.959 . S
C3702 H3687 0.959 . S
C3702 H3688 0.961 . S
C3702 C3701 1.502 . S
C3703 H3689 0.960 . S
C3703 H3690 0.961 . S
C3703 H3691 0.959 . S
C3703 C3701 1.561 . S
C3704 C3701 1.526 . S
C3704 C3705 1.396 . S
C3704 C3709 1.390 . S
C3705 C3699 1.465 . S
C3705 C3704 1.396 . S
C3705 C3706 1.399 . S
C3706 H3692 0.929 . S
C3706 C3705 1.399 . S
C3706 C3707 1.385 . S
C3707 H3693 0.931 . S
C3707 C3706 1.385 . S
C3707 C3708 1.389 . S
C3708 C3707 1.389 . S
C3708 C3709 1.387 . S
C3709 H3694 0.930 . S
C3709 C3704 1.390 . S
C3709 C3708 1.387 . S
H3710 C3722 0.930 . S
H3711 C3724 0.930 . S
H3712 C3725 0.930 . S
H3713 C3729 0.959 . S
H3714 C3729 0.959 . S
H3715 C3729 0.961 . S
H3716 C3730 0.960 . S
H3717 C3730 0.961 . S
H3718 C3730 0.959 . S
H3719 C3733 0.929 . S
H3720 C3734 0.931 . S
H3721 C3736 0.927 . S
C3722 H3710 0.930 . S
C3722 C3723 1.399 . S
C3722 C3727 1.399 . S
C3723 C3722 1.399 . S
C3723 C3724 1.376 . S
C3724 H3711 0.930 . S
C3724 C3723 1.376 . S
C3724 C3725 1.388 1_545 S
C3725 H3712 0.930 . S
C3725 C3724 1.388 1_565 S
C3725 C3726 1.390 1_565 S
C3726 C3725 1.390 1_545 S
C3726 C3727 1.394 . S
C3726 C3732 1.465 1_545 S
C3727 C3722 1.399 . S
C3727 C3726 1.394 . S
C3727 C3728 1.516 . S
C3728 C3727 1.516 . S
C3728 C3729 1.502 . S
C3728 C3730 1.561 . S
C3728 C3731 1.526 . S
C3729 H3713 0.959 . S
C3729 H3714 0.959 . S
C3729 H3715 0.961 . S
C3729 C3728 1.502 . S
C3730 H3716 0.960 . S
C3730 H3717 0.961 . S
C3730 H3718 0.959 . S
C3730 C3728 1.561 . S
C3731 C3728 1.526 . S
C3731 C3732 1.396 1_545 S
C3731 C3736 1.388 . S
C3732 C3726 1.465 1_565 S
C3732 C3731 1.396 1_565 S
C3732 C3733 1.399 . S
C3733 H3719 0.929 . S
C3733 C3732 1.399 . S
C3733 C3734 1.385 . S
C3734 H3720 0.931 . S
C3734 C3733 1.385 . S
C3734 C3735 1.389 . S
C3735 C3734 1.389 . S
C3735 C3736 1.391 1_565 S
C3736 H3721 0.927 . S
C3736 C3731 1.388 . S
C3736 C3735 1.391 1_545 S
H3737 C3749 0.930 . S
H3738 C3751 0.930 . S
H3739 C3752 0.930 . S
H3740 C3756 0.959 1_556 S
H3741 C3756 0.959 1_556 S
H3742 C3756 0.961 . S
H3743 C3757 0.960 . S
H3744 C3757 0.961 . S
H3745 C3757 0.959 . S
H3746 C3760 0.929 . S
H3747 C3761 0.931 . S
H3748 C3763 0.930 . S
C3749 H3737 0.930 . S
C3749 C3750 1.399 . S
C3749 C3754 1.399 . S
C3750 C3749 1.399 . S
C3750 C3751 1.376 . S
C3751 H3738 0.930 . S
C3751 C3750 1.376 . S
C3751 C3752 1.388 . S
C3752 H3739 0.930 . S
C3752 C3751 1.388 . S
C3752 C3753 1.390 . S
C3753 C3752 1.390 . S
C3753 C3754 1.394 . S
C3753 C3759 1.465 . S
C3754 C3749 1.399 . S
C3754 C3753 1.394 . S
C3754 C3755 1.516 . S
C3755 C3754 1.516 . S
C3755 C3756 1.502 . S
C3755 C3757 1.561 . S
C3755 C3758 1.526 1_554 S
C3756 H3740 0.959 1_554 S
C3756 H3741 0.959 1_554 S
C3756 H3742 0.961 . S
C3756 C3755 1.502 . S
C3757 H3743 0.960 . S
C3757 H3744 0.961 . S
C3757 H3745 0.959 . S
C3757 C3755 1.561 . S
C3758 C3755 1.526 1_556 S
C3758 C3759 1.396 1_556 S
C3758 C3763 1.390 . S
C3759 C3753 1.465 . S
C3759 C3758 1.396 1_554 S
C3759 C3760 1.399 1_554 S
C3760 H3746 0.929 . S
C3760 C3759 1.399 1_556 S
C3760 C3761 1.385 . S
C3761 H3747 0.931 . S
C3761 C3760 1.385 . S
C3761 C3762 1.389 . S
C3762 C3761 1.389 . S
C3762 C3763 1.387 . S
C3763 H3748 0.930 . S
C3763 C3758 1.390 . S
C3763 C3762 1.387 . S
H3764 C3776 0.930 . S
H3765 C3778 0.930 . S
H3766 C3779 0.930 . S
H3767 C3783 0.959 . S
H3768 C3783 0.959 . S
H3769 C3783 0.961 . S
H3770 C3784 0.960 . S
H3771 C3784 0.961 . S
H3772 C3784 0.959 . S
H3773 C3787 0.929 . S
H3774 C3788 0.931 . S
H3775 C3790 0.930 1_554 S
C3776 H3764 0.930 . S
C3776 C3777 1.399 1_545 S
C3776 C3781 1.399 . S
C3777 C3776 1.399 1_565 S
C3777 C3778 1.376 . S
C3778 H3765 0.930 . S
C3778 C3777 1.376 . S
C3778 C3779 1.388 . S
C3779 H3766 0.930 . S
C3779 C3778 1.388 . S
C3779 C3780 1.390 . S
C3780 C3779 1.390 . S
C3780 C3781 1.394 1_565 S
C3780 C3786 1.465 1_565 S
C3781 C3776 1.399 . S
C3781 C3780 1.394 1_545 S
C3781 C3782 1.516 . S
C3782 C3781 1.516 . S
C3782 C3783 1.502 . S
C3782 C3784 1.561 . S
C3782 C3785 1.526 . S
C3783 H3767 0.959 . S
C3783 H3768 0.959 . S
C3783 H3769 0.961 . S
C3783 C3782 1.502 . S
C3784 H3770 0.960 . S
C3784 H3771 0.961 . S
C3784 H3772 0.959 . S
C3784 C3782 1.561 . S
C3785 C3782 1.526 . S
C3785 C3786 1.396 . S
C3785 C3790 1.390 1_554 S
C3786 C3780 1.465 1_545 S
C3786 C3785 1.396 . S
C3786 C3787 1.399 1_544 S
C3787 H3773 0.929 . S
C3787 C3786 1.399 1_566 S
C3787 C3788 1.385 1_565 S
C3788 H3774 0.931 . S
C3788 C3787 1.385 1_545 S
C3788 C3789 1.389 . S
C3789 C3788 1.389 . S
C3789 C3790 1.387 . S
C3790 H3775 0.930 1_556 S
C3790 C3785 1.390 1_556 S
C3790 C3789 1.387 . S
H3791 C3803 0.930 . S
H3792 C3805 0.930 . S
H3793 C3806 0.930 . S
H3794 C3810 0.959 . S
H3795 C3810 0.959 . S
H3796 C3810 0.961 . S
H3797 C3811 0.960 . S
H3798 C3811 0.961 . S
H3799 C3811 0.959 . S
H3800 C3814 0.929 . S
H3801 C3815 0.931 . S
H3802 C3817 0.930 . S
C3803 H3791 0.930 . S
C3803 C3804 1.399 . S
C3803 C3808 1.399 . S
C3804 C3803 1.399 . S
C3804 C3805 1.376 . S
C3805 H3792 0.930 . S
C3805 C3804 1.376 . S
C3805 C3806 1.388 . S
C3806 H3793 0.930 . S
C3806 C3805 1.388 . S
C3806 C3807 1.390 . S
C3807 C3806 1.390 . S
C3807 C3808 1.394 . S
C3807 C3813 1.465 . S
C3808 C3803 1.399 . S
C3808 C3807 1.394 . S
C3808 C3809 1.516 . S
C3809 C3808 1.516 . S
C3809 C3810 1.502 . S
C3809 C3811 1.561 . S
C3809 C3812 1.526 . S
C3810 H3794 0.959 . S
C3810 H3795 0.959 . S
C3810 H3796 0.961 . S
C3810 C3809 1.502 . S
C3811 H3797 0.960 . S
C3811 H3798 0.961 . S
C3811 H3799 0.959 . S
C3811 C3809 1.561 . S
C3812 C3809 1.526 . S
C3812 C3813 1.396 . S
C3812 C3817 1.390 . S
C3813 C3807 1.465 . S
C3813 C3812 1.396 . S
C3813 C3814 1.399 . S
C3814 H3800 0.929 . S
C3814 C3813 1.399 . S
C3814 C3815 1.385 . S
C3815 H3801 0.931 . S
C3815 C3814 1.385 . S
C3815 C3816 1.389 . S
C3816 C3815 1.389 . S
C3816 C3817 1.387 . S
C3817 H3802 0.930 . S
C3817 C3812 1.390 . S
C3817 C3816 1.387 . S
H3818 C3830 0.930 . S
H3819 C3832 0.930 . S
H3820 C3833 0.930 . S
H3821 C3837 0.959 . S
H3822 C3837 0.959 . S
H3823 C3837 0.961 . S
H3824 C3838 0.960 . S
H3825 C3838 0.961 . S
H3826 C3838 0.959 . S
H3827 C3841 0.929 . S
H3828 C3842 0.931 . S
H3829 C3844 0.930 . S
C3830 H3818 0.930 . S
C3830 C3831 1.399 . S
C3830 C3835 1.399 . S
C3831 C3830 1.399 . S
C3831 C3832 1.376 . S
C3832 H3819 0.930 . S
C3832 C3831 1.376 . S
C3832 C3833 1.388 . S
C3833 H3820 0.930 . S
C3833 C3832 1.388 . S
C3833 C3834 1.390 . S
C3834 C3833 1.390 . S
C3834 C3835 1.394 . S
C3834 C3840 1.465 . S
C3835 C3830 1.399 . S
C3835 C3834 1.394 . S
C3835 C3836 1.516 1_565 S
C3836 C3835 1.516 1_545 S
C3836 C3837 1.502 . S
C3836 C3838 1.561 . S
C3836 C3839 1.526 . S
C3837 H3821 0.959 . S
C3837 H3822 0.959 . S
C3837 H3823 0.961 . S
C3837 C3836 1.502 . S
C3838 H3824 0.960 . S
C3838 H3825 0.961 . S
C3838 H3826 0.959 . S
C3838 C3836 1.561 . S
C3839 C3836 1.526 . S
C3839 C3840 1.396 1_545 S
C3839 C3844 1.390 . S
C3840 C3834 1.465 . S
C3840 C3839 1.396 1_565 S
C3840 C3841 1.399 . S
C3841 H3827 0.929 . S
C3841 C3840 1.399 . S
C3841 C3842 1.385 . S
C3842 H3828 0.931 . S
C3842 C3841 1.385 . S
C3842 C3843 1.389 1_565 S
C3843 C3842 1.389 1_545 S
C3843 C3844 1.387 . S
C3844 H3829 0.930 . S
C3844 C3839 1.390 . S
C3844 C3843 1.387 . S
H3845 C3857 0.930 . S
H3846 C3859 0.930 . S
H3847 C3860 0.930 . S
H3848 C3864 0.959 . S
H3849 C3864 0.959 . S
H3850 C3864 0.961 . S
H3851 C3865 0.960 . S
H3852 C3865 0.961 . S
H3853 C3865 0.959 . S
H3854 C3868 0.929 . S
H3855 C3869 0.931 . S
H3856 C3871 0.930 . S
C3857 H3845 0.930 . S
C3857 C3858 1.399 . S
C3857 C3862 1.399 . S
C3858 C3857 1.399 . S
C3858 C3859 1.376 . S
C3859 H3846 0.930 . S
C3859 C3858 1.376 . S
C3859 C3860 1.388 . S
C3860 H3847 0.930 . S
C3860 C3859 1.388 . S
C3860 C3861 1.390 . S
C3861 C3860 1.390 . S
C3861 C3862 1.394 . S
C3861 C3867 1.465 . S
C3862 C3857 1.399 . S
C3862 C3861 1.394 . S
C3862 C3863 1.516 . S
C3863 C3862 1.516 . S
C3863 C3864 1.502 . S
C3863 C3865 1.561 . S
C3863 C3866 1.526 . S
C3864 H3848 0.959 . S
C3864 H3849 0.959 . S
C3864 H3850 0.961 . S
C3864 C3863 1.502 . S
C3865 H3851 0.960 . S
C3865 H3852 0.961 . S
C3865 H3853 0.959 . S
C3865 C3863 1.561 . S
C3866 C3863 1.526 . S
C3866 C3867 1.396 . S
C3866 C3871 1.390 . S
C3867 C3861 1.465 . S
C3867 C3866 1.396 . S
C3867 C3868 1.399 . S
C3868 H3854 0.929 . S
C3868 C3867 1.399 . S
C3868 C3869 1.385 . S
C3869 H3855 0.931 . S
C3869 C3868 1.385 . S
C3869 C3870 1.389 . S
C3870 C3869 1.389 . S
C3870 C3871 1.387 . S
C3871 H3856 0.930 . S
C3871 C3866 1.390 . S
C3871 C3870 1.387 . S
C1293 C19 0.443 . S
C1305 C166 0.362 . S
C1320 C206 0.480 . S
C1332 C59 0.467 . S
C1347 C99 0.416 . S
C1359 C246 0.340 . S
C1374 C286 0.469 . S
C1386 C139 0.435 . S
C1401 C330 0.444 . S
C1413 C495 0.323 . S
C1428 C370 0.421 . S
C1440 C535 0.479 . S
C1455 C575 0.368 . S
C1467 C410 0.489 . S
C1482 C450 0.351 . S
C1494 C615 0.456 . S
C1509 C806 0.348 . S
C1521 C659 0.314 . S
C1536 C699 0.333 . S
C1548 C846 0.314 . S
C1563 C739 0.375 . S
C1575 C886 0.430 . S
C1590 C779 0.506 . S
C1602 C926 0.457 . S
C1617 C970 0.334 . S
C1629 C1135 0.343 . S
C1644 C1175 0.366 . S
C1656 C1010 0.322 . S
C1671 C1050 0.313 . S
C1683 C1215 0.402 . S
C1698 C1255 0.448 . S
C1710 C1090 0.498 . S
C1725 C858 1.526 . S
C1737 C9 1.412 . S
C1752 C898 1.425 . S
C1764 C49 1.514 . S
C1779 C938 1.462 . S
C1791 C89 1.497 . S
C1806 C129 1.505 . S
C1818 C818 1.450 . S
C1833 C178 1.516 . S
C1845 C769 1.437 . S
C1860 C649 1.512 . S
C1872 C218 1.440 . S
C1887 C258 1.527 . S
C1899 C689 1.409 . S
C1914 C298 1.454 . S
C1926 C729 1.500 . S
C1941 C338 1.471 . S
C1953 C1169 1.459 . S
C1968 C1209 1.496 . S
C1980 C378 1.444 . S
C1995 C1249 1.525 . S
C2007 C418 1.404 . S
C2022 C458 1.429 . S
C2034 C1129 1.495 . S
C2049 C489 1.527 . S
C2061 C1098 1.403 . S
C2076 C529 1.526 . S
C2088 C978 1.403 . S
C2103 C569 1.455 . S
C2115 C1018 1.472 . S
C2130 C609 1.525 . S
C2142 C1058 1.405 . S
C2157 C329 0.829 . S
C2169 C18 0.593 . S
C2184 C58 0.587 . S
C2196 C1009 0.841 . S
C2211 C409 0.710 . S
C2223 C98 0.779 . S
C2238 C138 0.833 . S
C2250 C1089 0.634 . S
C2265 C498 0.479 . S
C2277 C169 0.464 . S
C2292 C1178 0.396 . S
C2304 C209 0.523 . S
C2319 C249 0.422 . S
C2331 C578 0.477 . S
C2346 C289 0.470 . S
C2358 C1258 0.429 . S
C2373 C698 0.845 . S
C2385 C369 0.598 . S
C2400 C778 0.587 . S
C2412 C449 0.835 . S
C2427 C538 0.523 . S
C2439 C849 0.400 . S
C2454 C929 0.453 . S
C2466 C618 0.446 . S
C2481 C969 0.769 . S
C2493 C658 0.723 . S
C2508 C1049 0.812 . S
C2520 C738 0.606 . S
C2535 C1138 0.490 . S
C2547 C809 0.451 . S
C2562 C889 0.400 . S
C2574 C1218 0.501 . S
C2589 C10 2.061 . S
C2601 C499 2.100 . S
C2616 C1179 2.103 . S
C2628 C50 2.067 . S
C2643 C579 2.106 . S
C2655 C90 2.091 . S
C2670 C130 2.087 . S
C2682 C1259 2.108 . S
C2697 C326 0.884 . S
C2709 C175 0.917 . S
C2724 C1006 0.949 . S
C2736 C215 0.976 . S
C2751 C406 0.973 . S
C2763 C255 0.932 . S
C2778 C1086 0.925 . S
C2790 C295 0.881 . S
C2805 C170 2.107 . S
C2817 C339 2.062 . S
C2832 C850 2.090 . S
C2844 C379 2.097 . S
C2859 C250 2.108 1_556 S
C2871 C419 2.064 . S
C2886 C459 2.089 . S
C2898 C930 2.076 . S
C2913 C15 0.925 . S
C2925 C486 0.883 . S
C2940 C695 0.968 . S
C2952 C526 0.892 . S
C2967 C566 0.901 . S
C2979 C95 0.972 . S
C2994 C606 0.920 . S
C3006 C775 0.971 . S
C3021 C1139 2.081 . S
C3033 C650 2.063 . S
C3048 C539 2.105 . S
C3060 C690 2.068 . S
C3075 C730 2.096 . S
C3087 C1219 2.085 . S
C3102 C619 2.106 . S
C3114 C770 2.072 . S
C3129 C815 0.972 . S
C3141 C966 0.961 . S
C3156 C855 0.938 . S
C3168 C366 0.892 . S
C3183 C1046 0.975 . S
C3195 C895 0.940 . S
C3210 C446 0.918 . S
C3222 C935 0.880 . S
C3237 C979 2.071 . S
C3249 C810 2.082 1_556 S
C3264 C1019 2.061 . S
C3276 C210 2.107 . S
C3291 C1059 2.066 . S
C3303 C890 2.109 . S
C3318 C1099 2.067 . S
C3330 C290 2.109 . S
C3345 C655 0.932 . S
C3357 C1126 0.881 . S
C3372 C55 0.885 . S
C3384 C1166 0.949 . S
C3399 C1206 0.930 . S
C3411 C735 0.972 . S
C3426 C135 0.889 . S
C3438 C1246 0.918 . S
C3453 C179 2.212 . S
C3465 C6 2.200 . S
C3480 C219 2.222 . S
C3492 C46 2.219 . S
C3507 C86 2.184 . S
C3519 C259 2.225 . S
C3534 C299 2.224 . S
C3546 C126 2.219 . S
C3561 C490 2.225 . S
C3573 C335 2.219 . S
C3588 C375 2.219 . S
C3600 C530 2.227 . S
C3615 C415 2.200 . S
C3627 C570 2.231 . S
C3642 C610 2.233 . S
C3654 C455 2.209 . S
C3669 C646 2.219 . S
C3681 C819 2.219 . S
C3696 C859 2.223 . S
C3708 C686 2.185 . S
C3723 C726 2.184 . S
C3735 C899 2.223 . S
C3750 C766 2.206 . S
C3762 C939 2.233 . S
C3777 C1130 2.222 . S
C3789 C975 2.187 . S
C3804 C1170 2.232 . S
C3816 C1015 2.202 . S
C3831 C1055 2.194 . S
C3843 C1210 2.212 . S
C3858 C1250 2.212 . S
C3870 C1095 2.195 . S
