# Generated by pormake.
# Topology dia, (4)-cn, num edge types: 1
# Building blocks:
#     Node 0, Type 0, BuildingBlock: ICAMEG_clean_sbu_1, # of connection points: 4
#     Node 1, Type 0, BuildingBlock: ICAMEG_clean_sbu_1, # of connection points: 4
#     Node 2, Type 0, BuildingBlock: ICAMEG_clean_sbu_1, # of connection points: 4
#     Node 3, Type 0, BuildingBlock: ICAMEG_clean_sbu_1, # of connection points: 4
#     Node 4, Type 0, BuildingBlock: ICAMEG_clean_sbu_1, # of connection points: 4
#     Node 5, Type 0, BuildingBlock: ICAMEG_clean_sbu_1, # of connection points: 4
#     Node 6, Type 0, BuildingBlock: ICAMEG_clean_sbu_1, # of connection points: 4
#     Node 7, Type 0, BuildingBlock: ICAMEG_clean_sbu_1, # of connection points: 4
#     Edge 8, Type (0, 0), BuildingBlock: OJICUG_clean_linker_0, # of connection points: 2
#     Edge 9, Type (0, 0), BuildingBlock: OJICUG_clean_linker_0, # of connection points: 2
#     Edge 10, Type (0, 0), BuildingBlock: OJICUG_clean_linker_0, # of connection points: 2
#     Edge 11, Type (0, 0), BuildingBlock: OJICUG_clean_linker_0, # of connection points: 2
#     Edge 12, Type (0, 0), BuildingBlock: OJICUG_clean_linker_0, # of connection points: 2
#     Edge 13, Type (0, 0), BuildingBlock: OJICUG_clean_linker_0, # of connection points: 2
#     Edge 14, Type (0, 0), BuildingBlock: OJICUG_clean_linker_0, # of connection points: 2
#     Edge 15, Type (0, 0), BuildingBlock: OJICUG_clean_linker_0, # of connection points: 2
#     Edge 16, Type (0, 0), BuildingBlock: OJICUG_clean_linker_0, # of connection points: 2
#     Edge 17, Type (0, 0), BuildingBlock: OJICUG_clean_linker_0, # of connection points: 2
#     Edge 18, Type (0, 0), BuildingBlock: OJICUG_clean_linker_0, # of connection points: 2
#     Edge 19, Type (0, 0), BuildingBlock: OJICUG_clean_linker_0, # of connection points: 2
#     Edge 20, Type (0, 0), BuildingBlock: OJICUG_clean_linker_0, # of connection points: 2
#     Edge 21, Type (0, 0), BuildingBlock: OJICUG_clean_linker_0, # of connection points: 2
#     Edge 22, Type (0, 0), BuildingBlock: OJICUG_clean_linker_0, # of connection points: 2
#     Edge 23, Type (0, 0), BuildingBlock: OJICUG_clean_linker_0, # of connection points: 2
# Relax obj value: 0.179
# Max RMSD: 0.228
# Mean RMSD: 0.228
data_MOF--net-dia--node1-ICAMEG_clean_sbu_1--edge1-OJICUG_clean_linker_0
_symmetry_space_group_name_H-M    P1
_symmetry_Int_Tables_number       1
_symmetry_cell_setting            triclinic
loop_
_symmetry_equiv_pos_as_xyz
'x, y, z'
_cell_length_a     24.617616
_cell_length_b     24.563143
_cell_length_c     31.558921
_cell_angle_alpha  90.065774
_cell_angle_beta   89.912182
_cell_angle_gamma 103.37805
loop_
_atom_site_label
_atom_site_type_symbol
_atom_site_fract_x
_atom_site_fract_y
_atom_site_fract_z
_atom_type_partial_charge
Co0 Co 0.19171 0.08861 0.63164 0.0
Co1 Co 0.08621 0.1604 0.63071 0.0
O2 O 0.1374 0.12314 0.66186 0.0
C3 C 0.15458 0.00971 0.70645 0.0
O4 O 0.11648 0.03595 0.71865 0.0
C5 C 0.11591 0.23298 0.71009 0.0
O6 O 0.15264 0.20557 0.72305 0.0
O7 O 0.1503 0.20997 0.60035 0.0
O8 O 0.2039 0.1493 0.58841 0.0
H9 H 0.01256 0.23453 0.49968 0.0
H10 H 0.20615 0.11701 0.72356 0.0
O11 O 0.18375 0.02538 0.67343 0.0
H12 H 0.38084 0.21721 0.65549 0.0
H13 H 0.35247 0.99418 0.61911 0.0
H14 H 0.21205 0.06844 0.54094 0.0
H15 H 0.30555 0.15873 0.61316 0.0
H16 H 0.28545 0.03683 0.65743 0.0
O17 O 0.08973 0.21983 0.67541 0.0
H18 H 0.07534 0.18928 0.54036 0.0
H19 H 0.9896 0.20929 0.6542 0.0
H20 H 0.27874 0.02668 0.50139 0.0
H21 H 0.28068 0.17397 0.76725 0.0
H22 H 0.34961 0.98917 0.54051 0.0
H23 H 0.36889 0.22487 0.73327 0.0
O24 O 0.1309 0.04199 0.59623 0.0
H25 H 0.98311 0.06349 0.75776 0.0
H26 H 0.97566 0.09093 0.60344 0.0
H27 H 0.89637 0.02853 0.63939 0.0
H28 H 0.89955 0.01469 0.71722 0.0
H29 H 0.0618 0.12459 0.72041 0.0
H30 H 0.9263 0.25524 0.61477 0.0
H31 H 0.93735 0.26785 0.5369 0.0
O32 O 0.0788 0.10393 0.58444 0.0
C33 C 0.1906 0.19561 0.58138 0.0
C34 C 1.00724 0.22917 0.53359 0.0
C35 C 0.95888 0.24085 0.59819 0.0
N36 N 0.03606 0.19633 0.5996 0.0
C37 C 0.04262 0.20348 0.5568 0.0
C38 C 0.99501 0.21495 0.62037 0.0
C39 C 0.96508 0.24789 0.5545 0.0
C40 C 0.24444 0.13825 0.70845 0.0
N41 N 0.25128 0.13401 0.66569 0.0
C42 C 0.28652 0.17083 0.7334 0.0
C43 C 0.33593 0.19946 0.71433 0.0
C44 C 0.34263 0.19524 0.6707 0.0
C45 C 0.29962 0.16225 0.6468 0.0
C46 C 0.32181 0.01041 0.60171 0.0
C47 C 0.24289 0.05243 0.55823 0.0
C48 C 0.28357 0.03445 0.62324 0.0
N49 N 0.24492 0.05539 0.60146 0.0
C50 C 0.28049 0.02872 0.53564 0.0
C51 C 0.32021 0.00764 0.55761 0.0
C52 C 0.09269 0.05824 0.57603 0.0
C53 C 0.98108 0.06937 0.72386 0.0
C54 C 0.97771 0.08488 0.6372 0.0
C55 C 0.93249 0.04962 0.65744 0.0
C56 C 0.93427 0.04192 0.7011 0.0
N57 N 0.02344 0.11198 0.65973 0.0
C58 C 0.02551 0.10431 0.70252 0.0
Co59 Co 0.91676 0.32075 0.89388 0.0
Co60 Co 0.85593 0.43565 0.89202 0.0
O61 O 0.88783 0.37845 0.86271 0.0
C62 C 0.99999 0.35404 0.82124 0.0
O63 O 0.97608 0.3934 0.80797 0.0
C64 C 0.77859 0.40397 0.81557 0.0
O65 O 0.80132 0.36304 0.8038 0.0
O66 O 0.80355 0.37678 0.92506 0.0
O67 O 0.8523 0.31066 0.93406 0.0
H68 H 0.7927 0.52602 0.02019 0.0
H69 H 0.89094 0.31102 0.8012 0.0
O70 O 0.98241 0.32613 0.8545 0.0
H71 H 0.78742 0.1336 0.86377 0.0
H72 H 1.00295 0.15438 0.91019 0.0
H73 H 0.9268 0.29668 0.98507 0.0
H74 H 0.84544 0.20648 0.90856 0.0
H75 H 0.96694 0.22455 0.87012 0.0
O76 O 0.79616 0.43312 0.84823 0.0
H77 H 0.8312 0.45583 0.98192 0.0
H78 H 0.81484 0.53575 0.86485 0.0
H79 H 0.96155 0.22662 0.02633 0.0
H80 H 0.83456 0.23896 0.75514 0.0
H81 H 1.00004 0.15484 0.98886 0.0
H82 H 0.78195 0.14941 0.78633 0.0
O83 O 0.964 0.37882 0.93145 0.0
H84 H 0.95258 0.5242 0.76002 0.0
H85 H 0.93427 0.54388 0.91448 0.0
H86 H 0.99978 0.61706 0.87472 0.0
H87 H 1.00907 0.60769 0.79683 0.0
H88 H 0.88838 0.4516 0.80112 0.0
H89 H 0.7757 0.60646 0.90184 0.0
H90 H 0.76465 0.60205 0.9801 0.0
O91 O 0.9126 0.44245 0.93736 0.0
C92 C 0.8103 0.33146 0.94157 0.0
C93 C 0.79739 0.52845 0.98609 0.0
C94 C 0.7878 0.57355 0.91967 0.0
N95 N 0.8255 0.4917 0.92121 0.0
C96 C 0.81922 0.48884 0.96424 0.0
C97 C 0.80984 0.53325 0.89889 0.0
C98 C 0.78163 0.57107 0.96358 0.0
C99 C 0.86883 0.27221 0.81515 0.0
N100 N 0.87166 0.26335 0.85775 0.0
C101 C 0.83663 0.2315 0.78883 0.0
C102 C 0.80706 0.18133 0.80634 0.0
C103 C 0.81004 0.17248 0.84977 0.0
C104 C 0.84268 0.21415 0.87506 0.0
C105 C 0.98625 0.18543 0.92688 0.0
C106 C 0.94311 0.26535 0.9685 0.0
C107 C 0.96604 0.22551 0.90436 0.0
N108 N 0.94446 0.26463 0.92521 0.0
C109 C 0.96292 0.2259 0.99205 0.0
C110 C 0.98457 0.18568 0.97102 0.0
C111 C 0.95354 0.42238 0.94846 0.0
C112 C 0.94874 0.52891 0.79392 0.0
C113 C 0.93828 0.53917 0.88068 0.0
C114 C 0.97535 0.58093 0.85829 0.0
C115 C 0.98049 0.57568 0.81459 0.0
N116 N 0.90699 0.4935 0.86018 0.0
C117 C 0.91209 0.48801 0.81737 0.0
Co118 Co 0.69162 0.09864 0.12206 0.0
Co119 Co 0.58286 0.1645 0.12953 0.0
O120 O 0.64077 0.1325 0.15673 0.0
C121 C 0.66643 0.02246 0.199 0.0
O122 O 0.62271 0.04172 0.20919 0.0
C123 C 0.6201 0.24199 0.20507 0.0
O124 O 0.6599 0.21716 0.2157 0.0
O125 O 0.64087 0.21482 0.09436 0.0
O126 O 0.69129 0.1537 0.07553 0.0
H127 H 0.48697 0.22603 1.00393 0.0
H128 H 0.72386 0.13351 0.21035 0.0
O129 O 0.69568 0.04113 0.1666 0.0
H130 H 0.8745 0.2424 0.12072 0.0
H131 H 0.85786 0.01568 0.09627 0.0
H132 H 0.69515 0.06793 0.03126 0.0
H133 H 0.79484 0.1757 0.08861 0.0
H134 H 0.79461 0.05754 0.13952 0.0
O135 O 0.5897 0.22582 0.1728 0.0
H136 H 0.55782 0.18663 0.04018 0.0
H137 H 0.48683 0.21015 0.15969 0.0
H138 H 0.75768 0.02672 0.98679 0.0
H139 H 0.80313 0.19922 0.24383 0.0
H140 H 0.83978 1.00032 0.01927 0.0
H141 H 0.87916 0.25435 0.19891 0.0
O142 O 0.62684 0.04588 0.09537 0.0
H143 H 0.50134 0.07215 0.26516 0.0
H144 H 0.47107 0.08966 0.11202 0.0
H145 H 0.39921 0.02699 0.15475 0.0
H146 H 0.41387 0.01817 0.23206 0.0
H147 H 0.57254 0.13325 0.22102 0.0
H148 H 0.41566 0.25039 0.12472 0.0
H149 H 0.41522 0.25826 0.04627 0.0
O150 O 0.57169 0.10534 0.08472 0.0
C151 C 0.67658 0.19972 0.07058 0.0
C152 C 0.48665 0.22271 0.03813 0.0
C153 C 0.44668 0.23644 0.10592 0.0
N154 N 0.52638 0.19576 0.102 0.0
C155 C 0.52661 0.20032 0.05884 0.0
C156 C 0.48725 0.21379 0.12555 0.0
C157 C 0.44644 0.24083 0.0619 0.0
C158 C 0.75697 0.1569 0.19061 0.0
N159 N 0.75477 0.15042 0.14761 0.0
C160 C 0.80168 0.19426 0.20974 0.0
C161 C 0.84428 0.22523 0.18451 0.0
C162 C 0.84167 0.21859 0.14065 0.0
C163 C 0.79632 0.18085 0.12264 0.0
C164 C 0.8223 0.02712 0.08173 0.0
C165 C 0.73093 0.05686 0.04562 0.0
C166 C 0.78622 0.05073 0.10608 0.0
N167 N 0.7414 0.06564 0.08789 0.0
C168 C 0.76612 0.03338 0.02028 0.0
C169 C 0.81214 0.01853 0.03853 0.0
C170 C 0.58546 0.05924 0.07736 0.0
C171 C 0.49432 0.07578 0.23153 0.0
C172 C 0.4782 0.08565 0.14545 0.0
C173 C 0.43712 0.05028 0.16958 0.0
C174 C 0.44533 0.04542 0.21294 0.0
N175 N 0.52614 0.11554 0.16387 0.0
C176 C 0.53447 0.11073 0.20635 0.0
Co177 Co 0.92348 0.82796 0.39048 0.0
Co178 Co 0.85661 0.93654 0.38974 0.0
O179 O 0.88935 0.88138 0.35926 0.0
C180 C 1.00394 0.86244 0.31677 0.0
O181 O 0.9934 0.91234 0.31444 0.0
C182 C 0.78058 0.90427 0.3131 0.0
O183 O 0.80632 0.86571 0.30094 0.0
O184 O 0.80724 0.87563 0.42353 0.0
O185 O 0.86852 0.82365 0.43742 0.0
H186 H 0.79526 0.02275 0.5206 0.0
H187 H 0.88978 0.80427 0.30102 0.0
O188 O 0.9801 0.82766 0.34468 0.0
H189 H 0.78155 0.64372 0.38188 0.0
H190 H 1.00671 0.65982 0.4061 0.0
H191 H 0.95407 0.81671 0.48042 0.0
H192 H 0.84746 0.72026 0.41814 0.0
H193 H 0.96431 0.72627 0.367 0.0
O194 O 0.79511 0.93205 0.34695 0.0
H195 H 0.83526 0.95516 0.48049 0.0
H196 H 0.80912 0.03363 0.3648 0.0
H197 H 0.99589 0.7509 0.52079 0.0
H198 H 0.825 0.72816 0.2633 0.0
H199 H 0.02252 0.67173 0.48362 0.0
H200 H 0.77013 0.64721 0.30381 0.0
O201 O 0.97572 0.89084 0.42036 0.0
H202 H 0.94975 0.02703 0.2569 0.0
H203 H 0.92887 0.04862 0.41083 0.0
H204 H 0.99087 0.12382 0.37054 0.0
H205 H 1.00138 0.11354 0.29285 0.0
H206 H 0.8893 0.95247 0.29857 0.0
H207 H 0.76824 0.1016 0.40367 0.0
H208 H 0.76139 0.09665 0.48217 0.0
O209 O 0.91605 0.94512 0.43385 0.0
C210 C 0.82259 0.8375 0.44454 0.0
C211 C 0.79813 0.02542 0.48641 0.0
C212 C 0.78289 0.06962 0.42078 0.0
N213 N 0.82485 0.99052 0.42034 0.0
C214 C 0.82085 0.98732 0.46351 0.0
C215 C 0.8059 0.03084 0.39893 0.0
C216 C 0.77909 0.06684 0.46482 0.0
C217 C 0.86633 0.76907 0.31886 0.0
N218 N 0.87229 0.76697 0.36182 0.0
C219 C 0.82957 0.72614 0.29733 0.0
C220 C 0.79876 0.68078 0.32008 0.0
C221 C 0.80508 0.67884 0.36388 0.0
C222 C 0.84223 0.72254 0.38431 0.0
C223 C 0.99532 0.69416 0.42266 0.0
C224 C 0.96549 0.78238 0.46398 0.0
C225 C 0.97149 0.7321 0.40065 0.0
N226 N 0.95667 0.77542 0.42137 0.0
C227 C 0.98919 0.74524 0.48702 0.0
C228 C 1.00414 0.70085 0.46615 0.0
C229 C 0.96201 0.9309 0.44035 0.0
C230 C 0.94528 0.03218 0.2907 0.0
C231 C 0.93348 0.04345 0.3772 0.0
C232 C 0.96852 0.08639 0.35446 0.0
C233 C 0.97434 0.08063 0.31089 0.0
N234 N 0.90474 0.9961 0.35721 0.0
C235 C 0.91062 0.99013 0.3145 0.0
Co236 Co 0.19465 0.58081 0.13055 0.0
Co237 Co 0.08933 0.6518 0.13798 0.0
O238 O 0.14431 0.61543 0.16439 0.0
C239 C 0.16212 0.50168 0.20524 0.0
O240 O 0.12219 0.52577 0.21693 0.0
C241 C 0.10534 0.76173 0.1816 0.0
O242 O 0.1118 0.78511 0.14394 0.0
O243 O 0.14911 0.70129 0.1032 0.0
O244 O 0.20193 0.64107 0.08734 0.0
H245 H 0.99878 0.72762 0.01581 0.0
H246 H 0.21798 0.61025 0.22122 0.0
O247 O 0.19124 0.51837 0.17239 0.0
H248 H 0.38575 0.7096 0.14393 0.0
H249 H 0.35336 0.48617 0.10664 0.0
H250 H 0.20482 0.55967 0.0387 0.0
H251 H 0.30648 0.65059 0.10566 0.0
H252 H 0.29076 0.52917 0.14963 0.0
O253 O 0.10089 0.709 0.1851 0.0
H254 H 0.06775 0.6837 0.05016 0.0
H255 H 0.99251 0.6951 0.17009 0.0
H256 H 0.26695 0.51755 0.9945 0.0
H257 H 0.29664 0.66795 0.26087 0.0
H258 H 0.34189 0.48044 0.02846 0.0
H259 H 0.38134 0.7183 0.22222 0.0
O260 O 0.12998 0.53413 0.09903 0.0
H261 H 1.00331 0.56176 0.27269 0.0
H262 H 0.97792 0.57663 0.1186 0.0
H263 H 0.90484 0.51442 0.16072 0.0
H264 H 0.91709 0.50691 0.23844 0.0
H265 H 0.07596 0.62258 0.22919 0.0
H266 H 0.9228 0.7392 0.13701 0.0
H267 H 0.92563 0.75571 0.05932 0.0
O268 O 0.07598 0.5955 0.09118 0.0
C269 C 0.18749 0.68711 0.08159 0.0
C270 C 0.99715 0.7207 0.0497 0.0
C271 C 0.95448 0.72717 0.11771 0.0
N272 N 0.03436 0.68694 0.11211 0.0
C273 C 0.03614 0.69589 0.06935 0.0
C274 C 0.99409 0.70218 0.13626 0.0
C275 C 0.9561 0.73643 0.07413 0.0
C276 C 0.25477 0.63143 0.20412 0.0
N277 N 0.25759 0.62649 0.16107 0.0
C278 C 0.29916 0.66434 0.22677 0.0
C279 C 0.34664 0.69264 0.20507 0.0
C280 C 0.34911 0.68781 0.16116 0.0
C281 C 0.30392 0.65449 0.13959 0.0
C282 C 0.3209 0.50224 0.09147 0.0
C283 C 0.23746 0.54383 0.05373 0.0
C284 C 0.28515 0.52646 0.11566 0.0
N285 N 0.24426 0.5472 0.09669 0.0
C286 C 0.27245 0.51992 0.02853 0.0
C287 C 0.31446 0.49906 0.04761 0.0
C288 C 0.08931 0.54975 0.08167 0.0
C289 C 0.99744 0.56472 0.23886 0.0
C290 C 0.98405 0.57303 0.15224 0.0
C291 C 0.94227 0.538 0.17601 0.0
C292 C 0.94913 0.53388 0.21962 0.0
N293 N 0.03137 0.60319 0.17133 0.0
C294 C 0.03834 0.59931 0.21407 0.0
Co295 Co 0.42866 0.32241 0.39737 0.0
Co296 Co 0.35691 0.42803 0.39486 0.0
O297 O 0.3923 0.37376 0.36552 0.0
C298 C 0.5049 0.35611 0.32096 0.0
O299 O 0.48024 0.39593 0.31002 0.0
C300 C 0.27964 0.38897 0.31978 0.0
O301 O 0.30639 0.35086 0.30847 0.0
O302 O 0.30988 0.36718 0.4299 0.0
O303 O 0.37091 0.31439 0.44264 0.0
H304 H 0.29189 0.51555 0.52368 0.0
H305 H 0.39758 0.29867 0.30701 0.0
O306 O 0.48905 0.32649 0.3537 0.0
H307 H 0.2972 0.13235 0.38557 0.0
H308 H 0.52304 0.16223 0.41485 0.0
H309 H 0.4549 0.31096 0.48815 0.0
H310 H 0.35791 0.21138 0.4231 0.0
H311 H 0.47826 0.22588 0.37467 0.0
O312 O 0.29467 0.41921 0.35238 0.0
H313 H 0.33482 0.44882 0.48513 0.0
H314 H 0.30504 0.52127 0.36774 0.0
H315 H 0.49897 0.24783 0.52956 0.0
H316 H 0.33822 0.22019 0.26807 0.0
H317 H 0.53339 0.17278 0.4929 0.0
H318 H 0.28726 0.13625 0.30739 0.0
O319 O 0.47706 0.38649 0.42847 0.0
H320 H 0.44304 0.51749 0.25959 0.0
H321 H 0.42648 0.54219 0.41359 0.0
H322 H 0.48494 0.61784 0.37145 0.0
H323 H 0.49324 0.60599 0.29372 0.0
H324 H 0.38617 0.44254 0.3031 0.0
H325 H 0.26125 0.58833 0.40504 0.0
H326 H 0.25473 0.58596 0.48359 0.0
O327 O 0.41663 0.44081 0.43874 0.0
C328 C 0.3252 0.32848 0.45022 0.0
C329 C 0.2946 0.51709 0.48945 0.0
C330 C 0.27734 0.55788 0.42287 0.0
N331 N 0.32278 0.48126 0.42423 0.0
C332 C 0.31898 0.47947 0.46744 0.0
C333 C 0.30203 0.51963 0.40191 0.0
C334 C 0.27372 0.55655 0.46694 0.0
C335 C 0.37619 0.26218 0.32437 0.0
N336 N 0.38156 0.25976 0.36736 0.0
C337 C 0.34232 0.2179 0.30213 0.0
C338 C 0.31366 0.17087 0.32421 0.0
C339 C 0.31917 0.16869 0.36806 0.0
C340 C 0.35341 0.21377 0.38921 0.0
C341 C 0.50816 0.19473 0.4312 0.0
C342 C 0.46957 0.2783 0.47195 0.0
C343 C 0.4829 0.23105 0.4086 0.0
N344 N 0.46368 0.27201 0.42905 0.0
C345 C 0.49459 0.24273 0.49558 0.0
C346 C 0.51393 0.20066 0.47499 0.0
C347 C 0.46256 0.42733 0.44663 0.0
C348 C 0.43961 0.52328 0.29341 0.0
C349 C 0.43034 0.53628 0.37997 0.0
C350 C 0.46329 0.57949 0.35617 0.0
C351 C 0.46786 0.57286 0.31257 0.0
N352 N 0.40251 0.48776 0.361 0.0
C353 C 0.40706 0.48098 0.31826 0.0
Co354 Co 0.41851 0.82147 0.89514 0.0
Co355 Co 0.34559 0.92609 0.89646 0.0
O356 O 0.38186 0.87404 0.86505 0.0
C357 C 0.49411 0.8567 0.81817 0.0
O358 O 0.46714 0.89418 0.80592 0.0
C359 C 0.26969 0.89218 0.8197 0.0
O360 O 0.29623 0.85437 0.80732 0.0
O361 O 0.29816 0.86276 0.92916 0.0
O362 O 0.3603 0.81067 0.94019 0.0
H363 H 0.27721 1.00447 0.02815 0.0
H364 H 0.38642 0.80247 0.80433 0.0
O365 O 0.47957 0.82823 0.85167 0.0
H366 H 0.29004 0.63054 0.87814 0.0
H367 H 0.51503 0.66212 0.90796 0.0
H368 H 0.44389 0.80568 0.98551 0.0
H369 H 0.34998 0.7081 0.91758 0.0
H370 H 0.46967 0.72693 0.86965 0.0
O371 O 0.28423 0.92027 0.8534 0.0
H372 H 0.32106 0.94044 0.98732 0.0
H373 H 0.29456 0.02122 0.87276 0.0
H374 H 0.48846 0.74128 0.02506 0.0
H375 H 0.32788 0.72559 0.76346 0.0
H376 H 0.5244 0.66884 0.98626 0.0
H377 H 0.2789 0.63879 0.80037 0.0
O378 O 0.46618 0.88427 0.928 0.0
H379 H 0.43494 0.02463 0.76525 0.0
H380 H 0.41506 0.03857 0.91999 0.0
H381 H 0.47466 0.11692 0.88106 0.0
H382 H 0.48465 0.11048 0.803 0.0
H383 H 0.37674 0.94695 0.80554 0.0
H384 H 0.24992 0.08569 0.91235 0.0
H385 H 0.24128 0.07777 0.99065 0.0
O386 O 0.40423 0.93603 0.94107 0.0
C387 C 0.31414 0.82355 0.94837 0.0
C388 C 0.28083 0.00842 0.99405 0.0
C389 C 0.26546 0.05395 0.92906 0.0
N390 N 0.31068 0.97716 0.9277 0.0
C391 C 0.30572 0.97233 0.97075 0.0
C392 C 0.29062 0.01716 0.9068 0.0
C393 C 0.26065 0.0495 0.97299 0.0
C394 C 0.36599 0.76479 0.82066 0.0
N395 N 0.37208 0.75999 0.86342 0.0
C396 C 0.33253 0.72138 0.79732 0.0
C397 C 0.30498 0.67275 0.81804 0.0
C398 C 0.31115 0.66813 0.86166 0.0
C399 C 0.34496 0.71241 0.88392 0.0
C400 C 0.49948 0.69347 0.92523 0.0
C401 C 0.4592 0.77415 0.96837 0.0
C402 C 0.4739 0.73045 0.9037 0.0
N403 N 0.45384 0.76997 0.92532 0.0
C404 C 0.48451 0.73785 0.99096 0.0
C405 C 0.50471 0.69725 0.96916 0.0
C406 C 0.45063 0.92312 0.94808 0.0
C407 C 0.43074 0.02808 0.79923 0.0
C408 C 0.41949 0.03509 0.88615 0.0
C409 C 0.45316 0.07979 0.86421 0.0
C410 C 0.4587 0.07618 0.82043 0.0
N411 N 0.39187 0.9881 0.86516 0.0
C412 C 0.39745 0.98423 0.82225 0.0
Co413 Co 0.69565 0.6012 0.62958 0.0
Co414 Co 0.58723 0.66923 0.62805 0.0
O415 O 0.64047 0.63479 0.65954 0.0
C416 C 0.66131 0.52295 0.70519 0.0
O417 O 0.62264 0.54828 0.71772 0.0
C418 C 0.61671 0.74488 0.70563 0.0
O419 O 0.65553 0.7199 0.71826 0.0
O420 O 0.64963 0.7194 0.59633 0.0
O421 O 0.70554 0.66065 0.58551 0.0
H422 H 0.50845 0.73622 0.49632 0.0
H423 H 0.71062 0.63181 0.72098 0.0
O424 O 0.69 0.53917 0.67207 0.0
H425 H 0.88259 0.73493 0.65085 0.0
H426 H 0.85986 0.51161 0.61731 0.0
H427 H 0.7152 0.57929 0.53908 0.0
H428 H 0.808 0.67364 0.60962 0.0
H429 H 0.79186 0.55311 0.65548 0.0
O430 O 0.58972 0.72965 0.67162 0.0
H431 H 0.57372 0.69451 0.53732 0.0
H432 H 0.4889 0.71557 0.65138 0.0
H433 H 0.78285 0.53865 0.49966 0.0
H434 H 0.78451 0.69163 0.76362 0.0
H435 H 0.85585 0.50445 0.53881 0.0
H436 H 0.87132 0.74401 0.72858 0.0
O437 O 0.63527 0.55216 0.59541 0.0
H438 H 0.48932 0.57419 0.75764 0.0
H439 H 0.47725 0.59626 0.60305 0.0
H440 H 0.40018 0.53316 0.6408 0.0
H441 H 0.40569 0.52201 0.71878 0.0
H442 H 0.56581 0.63594 0.71849 0.0
H443 H 0.42312 0.75802 0.61162 0.0
H444 H 0.43246 0.76831 0.53348 0.0
O445 O 0.58048 0.61141 0.58292 0.0
C446 C 0.69054 0.70588 0.57759 0.0
C447 C 0.50387 0.73185 0.53035 0.0
C448 C 0.45603 0.74415 0.59505 0.0
N449 N 0.53506 0.7023 0.59669 0.0
C450 C 0.54066 0.70817 0.55374 0.0
C451 C 0.49356 0.72024 0.61742 0.0
C452 C 0.46128 0.74989 0.55122 0.0
C453 C 0.74833 0.65373 0.70544 0.0
N454 N 0.75478 0.64879 0.6627 0.0
C455 C 0.79003 0.68791 0.72979 0.0
C456 C 0.83866 0.71736 0.71012 0.0
C457 C 0.84497 0.71235 0.66652 0.0
C458 C 0.80236 0.67778 0.64323 0.0
C459 C 0.82828 0.52642 0.59989 0.0
C460 C 0.74698 0.56475 0.55637 0.0
C461 C 0.7895 0.5498 0.62134 0.0
N462 N 0.74967 0.56893 0.59954 0.0
C463 C 0.78511 0.54166 0.53386 0.0
C464 C 0.82603 0.52244 0.55585 0.0
C465 C 0.59561 0.56614 0.57546 0.0
C466 C 0.48629 0.57886 0.72368 0.0
C467 C 0.48033 0.59136 0.63685 0.0
C468 C 0.43635 0.55571 0.65813 0.0
C469 C 0.43944 0.54952 0.70186 0.0
N470 N 0.52611 0.6203 0.65845 0.0
C471 C 0.52945 0.61415 0.70132 0.0
C472 C 0.24043 0.31104 0.4991 0.0
C473 C 0.28948 0.29692 0.4843 0.0
H474 H 0.17044 0.29059 0.54208 0.0
C475 C 0.30548 0.25099 0.50269 0.0
H476 H 0.22704 0.34641 0.48582 0.0
C477 C 0.27325 0.21916 0.53381 0.0
C478 C 0.22426 0.2326 0.5489 0.0
H479 H 0.34309 0.23872 0.49294 0.0
H480 H 0.28711 0.18339 0.54568 0.0
C481 C 0.20819 0.27927 0.5314 0.0
C482 C 0.6755 0.48624 0.77752 0.0
C483 C 0.68098 0.48311 0.73337 0.0
H484 H 0.70231 0.46349 0.83819 0.0
C485 C 0.71271 0.44716 0.71659 0.0
H486 H 0.65173 0.51372 0.79147 0.0
C487 C 0.74114 0.4177 0.74336 0.0
C488 C 0.73926 0.42441 0.78747 0.0
H489 H 0.71768 0.44379 0.68264 0.0
H490 H 0.76749 0.39273 0.72941 0.0
C491 C 0.70474 0.4576 0.80427 0.0
C492 C 0.5683 0.97514 0.02788 0.0
C493 C 0.55185 0.02178 0.04519 0.0
H494 H 0.54965 0.90716 0.98298 0.0
C495 C 0.50254 0.03455 0.03028 0.0
H496 H 0.60631 0.96433 0.03845 0.0
C497 C 0.47032 1.00198 0.99951 0.0
C498 C 0.48661 0.95592 0.98143 0.0
H499 H 0.4884 0.07025 0.0421 0.0
H500 H 0.43242 0.01365 0.98986 0.0
C501 C 0.53605 0.94259 0.99602 0.0
C502 C 0.05145 0.87005 0.24525 0.0
C503 C 0.03856 0.84236 0.28421 0.0
H504 H 0.08333 0.86665 0.18223 0.0
C505 C 0.05477 0.79162 0.29062 0.0
H506 H 0.03971 0.90919 0.23925 0.0
C507 C 0.07968 0.76727 0.25812 0.0
C508 C 0.08929 0.79298 0.21821 0.0
H509 H 0.04642 0.76945 0.32042 0.0
H510 H 0.08923 0.72701 0.26382 0.0
C511 C 0.07656 0.8456 0.21257 0.0
C512 C 0.2342 0.90538 0.74672 0.0
C513 C 0.23062 0.91183 0.79078 0.0
H514 H 0.21263 0.93127 0.68542 0.0
C515 C 0.19485 0.9443 0.80669 0.0
H516 H 0.26147 0.88094 0.7334 0.0
C517 C 0.16625 0.97266 0.7792 0.0
C518 C 0.1735 0.96989 0.73517 0.0
H519 H 0.19101 0.94998 0.84053 0.0
H520 H 0.14156 0.9997 0.79255 0.0
C521 C 0.2063 0.93445 0.71923 0.0
C522 C 0.03598 0.4353 0.99921 0.0
C523 C 0.9896 0.45284 0.98285 0.0
H524 H 0.10431 0.45194 0.0436 0.0
C525 C 0.97672 0.50128 0.9999 0.0
H526 H 0.04702 0.39809 0.98695 0.0
C527 C 1.00906 0.5317 0.03166 0.0
C528 C 0.05548 0.51482 0.0482 0.0
H529 H 0.94138 0.51644 0.98872 0.0
H530 H 0.99728 0.56895 0.04306 0.0
C531 C 0.06866 0.46604 0.03171 0.0
C532 C 0.54077 0.34519 0.2477 0.0
C533 C 0.54388 0.33708 0.29157 0.0
H534 H 0.56276 0.32132 0.18583 0.0
C535 C 0.57925 0.30382 0.30673 0.0
H536 H 0.51376 0.37028 0.23498 0.0
C537 C 0.60806 0.27641 0.27859 0.0
C538 C 0.60127 0.28087 0.23468 0.0
H539 H 0.58266 0.29689 0.34043 0.0
H540 H 0.63245 0.24872 0.29126 0.0
C541 C 0.56875 0.31697 0.21955 0.0
C542 C 0.73765 0.81982 0.49353 0.0
C543 C 0.78726 0.80651 0.47909 0.0
H544 H 0.66782 0.79895 0.53671 0.0
C545 C 0.80435 0.76166 0.49827 0.0
H546 H 0.72341 0.85433 0.47964 0.0
C547 C 0.77272 0.73006 0.52972 0.0
C548 C 0.72322 0.74266 0.54452 0.0
H549 H 0.84238 0.74996 0.48887 0.0
H550 H 0.78751 0.6951 0.54209 0.0
C551 C 0.70599 0.78828 0.52627 0.0
C552 C 0.17359 0.46507 0.27806 0.0
C553 C 0.18205 0.46284 0.23415 0.0
H554 H 0.19797 0.44312 0.3397 0.0
C555 C 0.2165 0.42879 0.2186 0.0
H556 H 0.14756 0.49102 0.29108 0.0
C557 C 0.24479 0.40061 0.24645 0.0
C558 C 0.23997 0.40671 0.29044 0.0
H559 H 0.22372 0.42606 0.18487 0.0
H560 H 0.2734 0.37736 0.23351 0.0
C561 C 0.20264 0.43771 0.30591 0.0
C562 C 0.74497 0.32625 1.00397 0.0
C563 C 0.76772 0.29989 0.97099 0.0
H564 H 0.69765 0.31496 0.06213 0.0
C565 C 0.75392 0.24137 0.96859 0.0
H566 H 0.75484 0.37144 1.00646 0.0
C567 C 0.72188 0.2095 0.99996 0.0
C568 C 0.70242 0.23524 0.03472 0.0
H569 H 0.76901 0.21989 0.94289 0.0
H570 H 0.71374 0.16435 0.99751 0.0
C571 C 0.71239 0.29402 0.03576 0.0
C572 C 0.74956 0.92132 0.23964 0.0
C573 C 0.74303 0.92516 0.28368 0.0
H574 H 0.73066 0.94955 0.17836 0.0
C575 C 0.7058 0.95617 0.29932 0.0
H576 H 0.77822 0.89823 0.22658 0.0
C577 C 0.67782 0.98493 0.27164 0.0
C578 C 0.68747 0.98428 0.2278 0.0
H579 H 0.69998 0.96001 0.33314 0.0
H580 H 0.65128 0.01028 0.28477 0.0
C581 C 0.72254 0.95104 0.21205 0.0
C582 C 0.04453 0.94509 0.49134 0.0
C583 C 0.99876 0.96269 0.47385 0.0
H584 H 0.11036 0.96096 0.53801 0.0
C585 C 0.9856 0.0113 0.49017 0.0
H586 H 0.05562 0.90757 0.47975 0.0
C587 C 0.01666 0.04159 0.5225 0.0
C588 C 0.06171 0.0241 0.54087 0.0
H589 H 0.95055 0.02634 0.47836 0.0
H590 H 1.0045 0.07893 0.53317 0.0
C591 C 0.07564 0.97546 0.52481 0.0
C592 C 0.0382 0.33995 0.74921 0.0
C593 C 0.03908 0.3325 0.79332 0.0
H594 H 0.06184 0.31424 0.68834 0.0
C595 C 0.07185 0.29753 0.80992 0.0
H596 H 0.0132 0.36623 0.73531 0.0
C597 C 0.10038 0.26817 0.78298 0.0
C598 C 0.09599 0.27238 0.73878 0.0
H599 H 0.07348 0.2909 0.84378 0.0
H600 H 0.12293 0.23956 0.79676 0.0
C601 C 0.06593 0.30988 0.72227 0.0
C602 C 0.60121 0.77985 0.77847 0.0
C603 C 0.59507 0.78296 0.73438 0.0
H604 H 0.57407 0.80098 0.83958 0.0
C605 C 0.56136 0.81731 0.71821 0.0
H606 H 0.62658 0.75366 0.79199 0.0
C607 C 0.5317 0.84503 0.74549 0.0
C608 C 0.5344 0.83829 0.78954 0.0
H609 H 0.55588 0.82076 0.68434 0.0
H610 H 0.50392 0.8687 0.73196 0.0
C611 C 0.57088 0.80685 0.80573 0.0
C612 C 0.26515 0.71037 0.02958 0.0
C613 C 0.2181 0.72428 0.04786 0.0
H614 H 0.33197 0.73051 0.98616 0.0
C615 C 0.20159 0.772 0.03273 0.0
H616 H 0.27929 0.67387 0.03952 0.0
C617 C 0.23181 0.80461 0.99985 0.0
C618 C 0.2793 0.79028 0.98218 0.0
H619 H 0.1653 0.78375 0.04592 0.0
H620 H 0.21842 0.84106 0.98865 0.0
C621 C 0.29544 0.74299 0.99801 0.0
C622 C 0.54653 0.44677 0.49607 0.0
C623 C 0.49922 0.46176 0.47885 0.0
H624 H 0.61441 0.46763 0.54076 0.0
C625 C 0.48525 0.51073 0.49359 0.0
H626 H 0.55831 0.40909 0.48561 0.0
C627 C 0.5173 0.5441 0.52399 0.0
C628 C 0.56396 0.52927 0.54205 0.0
H629 H 0.449 0.52379 0.48191 0.0
H630 H 0.50465 0.5817 0.53341 0.0
C631 C 0.57852 0.48015 0.52769 0.0
loop_
_geom_bond_atom_site_label_1
_geom_bond_atom_site_label_2
_geom_bond_distance
_geom_bond_site_symmetry_2
_ccdc_geom_bond_type
Co0 O2 2.143 . S
Co0 O8 2.074 . S
Co0 O11 2.093 . S
Co0 O24 2.097 . S
Co0 N41 2.151 . S
Co0 N49 2.214 . S
Co1 O2 2.160 . S
Co1 O7 2.058 . S
Co1 O17 2.057 . S
Co1 O32 2.037 . S
Co1 N36 2.145 1_455 S
Co1 N57 2.268 . S
O2 Co0 2.143 . S
O2 Co1 2.160 . S
C3 O4 1.278 . S
C3 O11 1.224 . S
O4 C3 1.278 . S
C5 O6 1.245 . S
C5 O17 1.232 . S
O6 C5 1.245 . S
O7 Co1 2.058 . S
O7 C33 1.269 . S
O8 Co0 2.074 . S
O8 C33 1.257 . S
H9 C34 0.930 . S
H10 C40 0.930 . S
O11 Co0 2.093 . S
O11 C3 1.224 . S
H12 C44 0.929 . S
H13 C46 0.930 . S
H14 C47 0.930 . S
H15 C45 0.929 . S
H16 C48 0.928 . S
O17 Co1 2.057 . S
O17 C5 1.232 . S
H18 C37 0.929 1_455 S
H19 C38 0.929 . S
H20 C50 0.931 . S
H21 C42 0.929 . S
H22 C51 0.930 . S
H23 C43 0.931 . S
O24 Co0 2.097 . S
O24 C52 1.214 . S
H25 C53 0.929 . S
H26 C54 0.929 . S
H27 C55 0.941 . S
H28 C56 0.929 . S
H29 C58 0.930 . S
H30 C35 0.930 . S
H31 C39 0.930 . S
O32 Co1 2.037 . S
O32 C52 1.234 . S
C33 O7 1.269 . S
C33 O8 1.257 . S
C34 H9 0.930 . S
C34 C37 1.388 . S
C34 C39 1.418 . S
C35 H30 0.930 . S
C35 C38 1.404 . S
C35 C39 1.353 . S
N36 Co1 2.145 1_655 S
N36 C37 1.397 . S
N36 C38 1.334 . S
C37 H18 0.929 1_655 S
C37 C34 1.388 . S
C37 N36 1.397 . S
C38 H19 0.929 . S
C38 C35 1.404 . S
C38 N36 1.334 . S
C39 H31 0.930 . S
C39 C34 1.418 . S
C39 C35 1.353 . S
C40 H10 0.930 . S
C40 N41 1.330 . S
C40 C42 1.446 . S
N41 Co0 2.151 . S
N41 C40 1.330 . S
N41 C45 1.418 . S
C42 H21 0.929 . S
C42 C40 1.446 . S
C42 C43 1.332 . S
C43 H23 0.931 . S
C43 C42 1.332 . S
C43 C44 1.267 . S
C44 H12 0.929 . S
C44 C43 1.267 . S
C44 C45 1.251 . S
C45 H15 0.929 . S
C45 N41 1.418 . S
C45 C44 1.251 . S
C46 H13 0.930 . S
C46 C48 1.406 . S
C46 C51 1.261 . S
C47 H14 0.930 . S
C47 N49 1.325 . S
C47 C50 1.357 . S
C48 H16 0.928 . S
C48 C46 1.406 . S
C48 N49 1.261 . S
N49 Co0 2.214 . S
N49 C47 1.325 . S
N49 C48 1.261 . S
C50 H20 0.931 . S
C50 C47 1.357 . S
C50 C51 1.312 . S
C51 H22 0.930 . S
C51 C46 1.261 . S
C51 C50 1.312 . S
C52 O24 1.214 . S
C52 O32 1.234 . S
C53 H25 0.929 . S
C53 C56 1.391 1_545 S
C53 C58 1.391 1_655 S
C54 H26 0.929 . S
C54 C55 1.377 1_545 S
C54 N57 1.380 1_655 S
C55 H27 0.941 . S
C55 C54 1.377 1_565 S
C55 C56 1.394 . S
C56 H28 0.929 . S
C56 C53 1.391 1_565 S
C56 C55 1.394 . S
N57 Co1 2.268 . S
N57 C54 1.380 1_455 S
N57 C58 1.391 . S
C58 H29 0.930 . S
C58 C53 1.391 1_455 S
C58 N57 1.391 . S
Co59 O61 2.143 . S
Co59 O67 2.074 . S
Co59 O70 2.093 . S
Co59 O83 2.097 . S
Co59 N100 2.151 . S
Co59 N108 2.214 . S
Co60 O61 2.160 . S
Co60 O66 2.058 . S
Co60 O76 2.057 . S
Co60 O91 2.037 . S
Co60 N95 2.145 . S
Co60 N116 2.257 . S
O61 Co59 2.143 . S
O61 Co60 2.160 . S
C62 O63 1.278 . S
C62 O70 1.224 . S
O63 C62 1.278 . S
C64 O65 1.245 . S
C64 O76 1.232 . S
O65 C64 1.245 . S
O66 Co60 2.058 . S
O66 C92 1.269 . S
O67 Co59 2.074 . S
O67 C92 1.257 . S
H68 C93 0.930 1_554 S
H69 C99 0.930 . S
O70 Co59 2.093 . S
O70 C62 1.224 . S
H71 C103 0.929 . S
H72 C105 0.930 . S
H73 C106 0.930 . S
H74 C104 0.929 . S
H75 C107 0.928 . S
O76 Co60 2.057 . S
O76 C64 1.232 . S
H77 C96 0.929 . S
H78 C97 0.929 . S
H79 C109 0.931 1_554 S
H80 C101 0.929 . S
H81 C110 0.930 1_554 S
H82 C102 0.931 . S
O83 Co59 2.097 . S
O83 C111 1.214 . S
H84 C112 0.929 . S
H85 C113 0.929 . S
H86 C114 0.941 . S
H87 C115 0.929 . S
H88 C117 0.930 . S
H89 C94 0.930 . S
H90 C98 0.930 . S
O91 Co60 2.037 . S
O91 C111 1.234 . S
C92 O66 1.269 . S
C92 O67 1.257 . S
C93 H68 0.930 1_556 S
C93 C96 1.388 . S
C93 C98 1.418 . S
C94 H89 0.930 . S
C94 C97 1.404 . S
C94 C98 1.353 . S
N95 Co60 2.145 . S
N95 C96 1.397 . S
N95 C97 1.334 . S
C96 H77 0.929 . S
C96 C93 1.388 . S
C96 N95 1.397 . S
C97 H78 0.929 . S
C97 C94 1.404 . S
C97 N95 1.334 . S
C98 H90 0.930 . S
C98 C93 1.418 . S
C98 C94 1.353 . S
C99 H69 0.930 . S
C99 N100 1.330 . S
C99 C101 1.446 . S
N100 Co59 2.151 . S
N100 C99 1.330 . S
N100 C104 1.418 . S
C101 H80 0.929 . S
C101 C99 1.446 . S
C101 C102 1.332 . S
C102 H82 0.931 . S
C102 C101 1.332 . S
C102 C103 1.267 . S
C103 H71 0.929 . S
C103 C102 1.267 . S
C103 C104 1.251 . S
C104 H74 0.929 . S
C104 N100 1.418 . S
C104 C103 1.251 . S
C105 H72 0.930 . S
C105 C107 1.406 . S
C105 C110 1.261 . S
C106 H73 0.930 . S
C106 N108 1.325 . S
C106 C109 1.357 . S
C107 H75 0.928 . S
C107 C105 1.406 . S
C107 N108 1.261 . S
N108 Co59 2.214 . S
N108 C106 1.325 . S
N108 C107 1.261 . S
C109 H79 0.931 1_556 S
C109 C106 1.357 . S
C109 C110 1.312 . S
C110 H81 0.930 1_556 S
C110 C105 1.261 . S
C110 C109 1.312 . S
C111 O83 1.214 . S
C111 O91 1.234 . S
C112 H84 0.929 . S
C112 C115 1.391 1_655 S
C112 C117 1.391 . S
C113 H85 0.929 . S
C113 C114 1.377 1_655 S
C113 N116 1.391 . S
C114 H86 0.941 . S
C114 C113 1.377 1_455 S
C114 C115 1.394 . S
C115 H87 0.929 . S
C115 C112 1.391 1_455 S
C115 C114 1.394 . S
N116 Co60 2.257 . S
N116 C113 1.391 . S
N116 C117 1.388 . S
C117 H88 0.930 . S
C117 C112 1.391 . S
C117 N116 1.388 . S
Co118 O120 2.143 . S
Co118 O126 2.074 . S
Co118 O129 2.093 . S
Co118 O142 2.097 . S
Co118 N159 2.151 . S
Co118 N167 2.214 . S
Co119 O120 2.160 . S
Co119 O125 2.058 . S
Co119 O135 2.057 . S
Co119 O150 2.037 . S
Co119 N154 2.145 . S
Co119 N175 2.257 . S
O120 Co118 2.143 . S
O120 Co119 2.160 . S
C121 O122 1.278 . S
C121 O129 1.224 . S
O122 C121 1.278 . S
C123 O124 1.245 . S
C123 O135 1.232 . S
O124 C123 1.245 . S
O125 Co119 2.058 . S
O125 C151 1.269 . S
O126 Co118 2.074 . S
O126 C151 1.257 . S
H127 C152 0.930 1_556 S
H128 C158 0.930 . S
O129 Co118 2.093 . S
O129 C121 1.224 . S
H130 C162 0.929 . S
H131 C164 0.930 . S
H132 C165 0.930 . S
H133 C163 0.929 . S
H134 C166 0.928 . S
O135 Co119 2.057 . S
O135 C123 1.232 . S
H136 C155 0.929 . S
H137 C156 0.929 . S
H138 C168 0.931 1_556 S
H139 C160 0.929 . S
H140 C169 0.930 1_556 S
H141 C161 0.931 . S
O142 Co118 2.097 . S
O142 C170 1.214 . S
H143 C171 0.929 . S
H144 C172 0.929 . S
H145 C173 0.941 . S
H146 C174 0.929 . S
H147 C176 0.930 . S
H148 C153 0.930 . S
H149 C157 0.930 . S
O150 Co119 2.037 . S
O150 C170 1.234 . S
C151 O125 1.269 . S
C151 O126 1.257 . S
C152 H127 0.930 1_554 S
C152 C155 1.388 . S
C152 C157 1.418 . S
C153 H148 0.930 . S
C153 C156 1.404 . S
C153 C157 1.353 . S
N154 Co119 2.145 . S
N154 C155 1.397 . S
N154 C156 1.334 . S
C155 H136 0.929 . S
C155 C152 1.388 . S
C155 N154 1.397 . S
C156 H137 0.929 . S
C156 C153 1.404 . S
C156 N154 1.334 . S
C157 H149 0.930 . S
C157 C152 1.418 . S
C157 C153 1.353 . S
C158 H128 0.930 . S
C158 N159 1.330 . S
C158 C160 1.446 . S
N159 Co118 2.151 . S
N159 C158 1.330 . S
N159 C163 1.418 . S
C160 H139 0.929 . S
C160 C158 1.446 . S
C160 C161 1.332 . S
C161 H141 0.931 . S
C161 C160 1.332 . S
C161 C162 1.267 . S
C162 H130 0.929 . S
C162 C161 1.267 . S
C162 C163 1.251 . S
C163 H133 0.929 . S
C163 N159 1.418 . S
C163 C162 1.251 . S
C164 H131 0.930 . S
C164 C166 1.406 . S
C164 C169 1.261 . S
C165 H132 0.930 . S
C165 N167 1.325 . S
C165 C168 1.357 . S
C166 H134 0.928 . S
C166 C164 1.406 . S
C166 N167 1.261 . S
N167 Co118 2.214 . S
N167 C165 1.325 . S
N167 C166 1.261 . S
C168 H138 0.931 1_554 S
C168 C165 1.357 . S
C168 C169 1.312 . S
C169 H140 0.930 1_554 S
C169 C164 1.261 . S
C169 C168 1.312 . S
C170 O142 1.214 . S
C170 O150 1.234 . S
C171 H143 0.929 . S
C171 C174 1.391 1_545 S
C171 C176 1.391 . S
C172 H144 0.929 . S
C172 C173 1.377 1_545 S
C172 N175 1.391 . S
C173 H145 0.941 . S
C173 C172 1.377 1_565 S
C173 C174 1.394 . S
C174 H146 0.929 . S
C174 C171 1.391 1_565 S
C174 C173 1.394 . S
N175 Co119 2.257 . S
N175 C172 1.391 . S
N175 C176 1.388 . S
C176 H147 0.930 . S
C176 C171 1.391 . S
C176 N175 1.388 . S
Co177 O179 2.143 . S
Co177 O185 2.074 . S
Co177 O188 2.093 . S
Co177 O201 2.097 . S
Co177 N218 2.151 . S
Co177 N226 2.214 . S
Co178 O179 2.160 . S
Co178 O184 2.058 . S
Co178 O194 2.057 . S
Co178 O209 2.037 . S
Co178 N213 2.145 1_565 S
Co178 N234 2.268 . S
O179 Co177 2.143 . S
O179 Co178 2.160 . S
C180 O181 1.278 . S
C180 O188 1.224 . S
O181 C180 1.278 . S
C182 O183 1.245 . S
C182 O194 1.232 . S
O183 C182 1.245 . S
O184 Co178 2.058 . S
O184 C210 1.269 . S
O185 Co177 2.074 . S
O185 C210 1.257 . S
H186 C211 0.930 . S
H187 C217 0.930 . S
O188 Co177 2.093 . S
O188 C180 1.224 . S
H189 C221 0.929 . S
H190 C223 0.930 . S
H191 C224 0.930 . S
H192 C222 0.929 . S
H193 C225 0.928 . S
O194 Co178 2.057 . S
O194 C182 1.232 . S
H195 C214 0.929 1_565 S
H196 C215 0.929 . S
H197 C227 0.931 . S
H198 C219 0.929 . S
H199 C228 0.930 . S
H200 C220 0.931 . S
O201 Co177 2.097 . S
O201 C229 1.214 . S
H202 C230 0.929 . S
H203 C231 0.929 . S
H204 C232 0.941 . S
H205 C233 0.929 . S
H206 C235 0.930 . S
H207 C212 0.930 . S
H208 C216 0.930 . S
O209 Co178 2.037 . S
O209 C229 1.234 . S
C210 O184 1.269 . S
C210 O185 1.257 . S
C211 H186 0.930 . S
C211 C214 1.388 . S
C211 C216 1.418 . S
C212 H207 0.930 . S
C212 C215 1.404 . S
C212 C216 1.353 . S
N213 Co178 2.145 1_545 S
N213 C214 1.397 . S
N213 C215 1.334 . S
C214 H195 0.929 1_545 S
C214 C211 1.388 . S
C214 N213 1.397 . S
C215 H196 0.929 . S
C215 C212 1.404 . S
C215 N213 1.334 . S
C216 H208 0.930 . S
C216 C211 1.418 . S
C216 C212 1.353 . S
C217 H187 0.930 . S
C217 N218 1.330 . S
C217 C219 1.446 . S
N218 Co177 2.151 . S
N218 C217 1.330 . S
N218 C222 1.418 . S
C219 H198 0.929 . S
C219 C217 1.446 . S
C219 C220 1.332 . S
C220 H200 0.931 . S
C220 C219 1.332 . S
C220 C221 1.267 . S
C221 H189 0.929 . S
C221 C220 1.267 . S
C221 C222 1.251 . S
C222 H192 0.929 . S
C222 N218 1.418 . S
C222 C221 1.251 . S
C223 H190 0.930 . S
C223 C225 1.406 . S
C223 C228 1.261 . S
C224 H191 0.930 . S
C224 N226 1.325 . S
C224 C227 1.357 . S
C225 H193 0.928 . S
C225 C223 1.406 . S
C225 N226 1.261 . S
N226 Co177 2.214 . S
N226 C224 1.325 . S
N226 C225 1.261 . S
C227 H197 0.931 . S
C227 C224 1.357 . S
C227 C228 1.312 . S
C228 H199 0.930 . S
C228 C223 1.261 . S
C228 C227 1.312 . S
C229 O201 1.214 . S
C229 O209 1.234 . S
C230 H202 0.929 . S
C230 C233 1.391 1_655 S
C230 C235 1.391 1_545 S
C231 H203 0.929 . S
C231 C232 1.377 1_655 S
C231 N234 1.380 1_545 S
C232 H204 0.941 . S
C232 C231 1.377 1_455 S
C232 C233 1.394 . S
C233 H205 0.929 . S
C233 C230 1.391 1_455 S
C233 C232 1.394 . S
N234 Co178 2.268 . S
N234 C231 1.380 1_565 S
N234 C235 1.391 . S
C235 H206 0.930 . S
C235 C230 1.391 1_565 S
C235 N234 1.391 . S
Co236 O238 2.143 . S
Co236 O244 2.074 . S
Co236 O247 2.093 . S
Co236 O260 2.097 . S
Co236 N277 2.151 . S
Co236 N285 2.214 . S
Co237 O238 2.160 . S
Co237 O243 2.058 . S
Co237 O253 2.057 . S
Co237 O268 2.037 . S
Co237 N272 2.145 1_455 S
Co237 N293 2.268 . S
O238 Co236 2.143 . S
O238 Co237 2.160 . S
C239 O240 1.278 . S
C239 O247 1.224 . S
O240 C239 1.278 . S
C241 O242 1.245 . S
C241 O253 1.232 . S
O242 C241 1.245 . S
O243 Co237 2.058 . S
O243 C269 1.269 . S
O244 Co236 2.074 . S
O244 C269 1.257 . S
H245 C270 0.930 1_556 S
H246 C276 0.930 . S
O247 Co236 2.093 . S
O247 C239 1.224 . S
H248 C280 0.929 . S
H249 C282 0.930 . S
H250 C283 0.930 . S
H251 C281 0.929 . S
H252 C284 0.928 . S
O253 Co237 2.057 . S
O253 C241 1.232 . S
H254 C273 0.929 1_455 S
H255 C274 0.929 . S
H256 C286 0.931 1_556 S
H257 C278 0.929 . S
H258 C287 0.930 1_556 S
H259 C279 0.931 . S
O260 Co236 2.097 . S
O260 C288 1.214 . S
H261 C289 0.929 . S
H262 C290 0.929 . S
H263 C291 0.930 . S
H264 C292 0.929 . S
H265 C294 0.930 . S
H266 C271 0.930 . S
H267 C275 0.930 . S
O268 Co237 2.037 . S
O268 C288 1.234 . S
C269 O243 1.269 . S
C269 O244 1.257 . S
C270 H245 0.930 1_554 S
C270 C273 1.388 . S
C270 C275 1.418 . S
C271 H266 0.930 . S
C271 C274 1.404 . S
C271 C275 1.353 . S
N272 Co237 2.145 1_655 S
N272 C273 1.397 . S
N272 C274 1.334 . S
C273 H254 0.929 1_655 S
C273 C270 1.388 . S
C273 N272 1.397 . S
C274 H255 0.929 . S
C274 C271 1.404 . S
C274 N272 1.334 . S
C275 H267 0.930 . S
C275 C270 1.418 . S
C275 C271 1.353 . S
C276 H246 0.930 . S
C276 N277 1.330 . S
C276 C278 1.446 . S
N277 Co236 2.151 . S
N277 C276 1.330 . S
N277 C281 1.418 . S
C278 H257 0.929 . S
C278 C276 1.446 . S
C278 C279 1.332 . S
C279 H259 0.931 . S
C279 C278 1.332 . S
C279 C280 1.267 . S
C280 H248 0.929 . S
C280 C279 1.267 . S
C280 C281 1.251 . S
C281 H251 0.929 . S
C281 N277 1.418 . S
C281 C280 1.251 . S
C282 H249 0.930 . S
C282 C284 1.406 . S
C282 C287 1.261 . S
C283 H250 0.930 . S
C283 N285 1.325 . S
C283 C286 1.357 . S
C284 H252 0.928 . S
C284 C282 1.406 . S
C284 N285 1.261 . S
N285 Co236 2.214 . S
N285 C283 1.325 . S
N285 C284 1.261 . S
C286 H256 0.931 1_554 S
C286 C283 1.357 . S
C286 C287 1.312 . S
C287 H258 0.930 1_554 S
C287 C282 1.261 . S
C287 C286 1.312 . S
C288 O260 1.214 . S
C288 O268 1.234 . S
C289 H261 0.929 . S
C289 C292 1.391 . S
C289 C294 1.391 1_655 S
C290 H262 0.929 . S
C290 C291 1.390 . S
C290 N293 1.380 1_655 S
C291 H263 0.930 . S
C291 C290 1.390 . S
C291 C292 1.392 . S
C292 H264 0.929 . S
C292 C289 1.391 . S
C292 C291 1.392 . S
N293 Co237 2.268 . S
N293 C290 1.380 1_455 S
N293 C294 1.391 . S
C294 H265 0.930 . S
C294 C289 1.391 1_455 S
C294 N293 1.391 . S
Co295 O297 2.143 . S
Co295 O303 2.074 . S
Co295 O306 2.093 . S
Co295 O319 2.097 . S
Co295 N336 2.151 . S
Co295 N344 2.214 . S
Co296 O297 2.160 . S
Co296 O302 2.058 . S
Co296 O312 2.057 . S
Co296 O327 2.037 . S
Co296 N331 2.145 . S
Co296 N352 2.257 . S
O297 Co295 2.143 . S
O297 Co296 2.160 . S
C298 O299 1.278 . S
C298 O306 1.224 . S
O299 C298 1.278 . S
C300 O301 1.245 . S
C300 O312 1.232 . S
O301 C300 1.245 . S
O302 Co296 2.058 . S
O302 C328 1.269 . S
O303 Co295 2.074 . S
O303 C328 1.257 . S
H304 C329 0.930 . S
H305 C335 0.930 . S
O306 Co295 2.093 . S
O306 C298 1.224 . S
H307 C339 0.929 . S
H308 C341 0.930 . S
H309 C342 0.930 . S
H310 C340 0.929 . S
H311 C343 0.928 . S
O312 Co296 2.057 . S
O312 C300 1.232 . S
H313 C332 0.929 . S
H314 C333 0.929 . S
H315 C345 0.931 . S
H316 C337 0.929 . S
H317 C346 0.930 . S
H318 C338 0.931 . S
O319 Co295 2.097 . S
O319 C347 1.214 . S
H320 C348 0.929 . S
H321 C349 0.929 . S
H322 C350 0.930 . S
H323 C351 0.929 . S
H324 C353 0.930 . S
H325 C330 0.930 . S
H326 C334 0.930 . S
O327 Co296 2.037 . S
O327 C347 1.234 . S
C328 O302 1.269 . S
C328 O303 1.257 . S
C329 H304 0.930 . S
C329 C332 1.388 . S
C329 C334 1.418 . S
C330 H325 0.930 . S
C330 C333 1.404 . S
C330 C334 1.353 . S
N331 Co296 2.145 . S
N331 C332 1.397 . S
N331 C333 1.334 . S
C332 H313 0.929 . S
C332 C329 1.388 . S
C332 N331 1.397 . S
C333 H314 0.929 . S
C333 C330 1.404 . S
C333 N331 1.334 . S
C334 H326 0.930 . S
C334 C329 1.418 . S
C334 C330 1.353 . S
C335 H305 0.930 . S
C335 N336 1.330 . S
C335 C337 1.446 . S
N336 Co295 2.151 . S
N336 C335 1.330 . S
N336 C340 1.418 . S
C337 H316 0.929 . S
C337 C335 1.446 . S
C337 C338 1.332 . S
C338 H318 0.931 . S
C338 C337 1.332 . S
C338 C339 1.267 . S
C339 H307 0.929 . S
C339 C338 1.267 . S
C339 C340 1.251 . S
C340 H310 0.929 . S
C340 N336 1.418 . S
C340 C339 1.251 . S
C341 H308 0.930 . S
C341 C343 1.406 . S
C341 C346 1.261 . S
C342 H309 0.930 . S
C342 N344 1.325 . S
C342 C345 1.357 . S
C343 H311 0.928 . S
C343 C341 1.406 . S
C343 N344 1.261 . S
N344 Co295 2.214 . S
N344 C342 1.325 . S
N344 C343 1.261 . S
C345 H315 0.931 . S
C345 C342 1.357 . S
C345 C346 1.312 . S
C346 H317 0.930 . S
C346 C341 1.261 . S
C346 C345 1.312 . S
C347 O319 1.214 . S
C347 O327 1.234 . S
C348 H320 0.929 . S
C348 C351 1.391 . S
C348 C353 1.391 . S
C349 H321 0.929 . S
C349 C350 1.390 . S
C349 N352 1.391 . S
C350 H322 0.930 . S
C350 C349 1.390 . S
C350 C351 1.392 . S
C351 H323 0.929 . S
C351 C348 1.391 . S
C351 C350 1.392 . S
N352 Co296 2.257 . S
N352 C349 1.391 . S
N352 C353 1.388 . S
C353 H324 0.930 . S
C353 C348 1.391 . S
C353 N352 1.388 . S
Co354 O356 2.143 . S
Co354 O362 2.074 . S
Co354 O365 2.093 . S
Co354 O378 2.097 . S
Co354 N395 2.151 . S
Co354 N403 2.214 . S
Co355 O356 2.160 . S
Co355 O361 2.058 . S
Co355 O371 2.057 . S
Co355 O386 2.037 . S
Co355 N390 2.145 1_565 S
Co355 N411 2.268 . S
O356 Co354 2.143 . S
O356 Co355 2.160 . S
C357 O358 1.278 . S
C357 O365 1.224 . S
O358 C357 1.278 . S
C359 O360 1.245 . S
C359 O371 1.232 . S
O360 C359 1.245 . S
O361 Co355 2.058 . S
O361 C387 1.269 . S
O362 Co354 2.074 . S
O362 C387 1.257 . S
H363 C388 0.930 1_554 S
H364 C394 0.930 . S
O365 Co354 2.093 . S
O365 C357 1.224 . S
H366 C398 0.929 . S
H367 C400 0.930 . S
H368 C401 0.930 . S
H369 C399 0.929 . S
H370 C402 0.928 . S
O371 Co355 2.057 . S
O371 C359 1.232 . S
H372 C391 0.929 1_565 S
H373 C392 0.929 . S
H374 C404 0.931 1_554 S
H375 C396 0.929 . S
H376 C405 0.930 1_554 S
H377 C397 0.931 . S
O378 Co354 2.097 . S
O378 C406 1.214 . S
H379 C407 0.929 . S
H380 C408 0.929 . S
H381 C409 0.930 . S
H382 C410 0.929 . S
H383 C412 0.930 . S
H384 C389 0.930 . S
H385 C393 0.930 . S
O386 Co355 2.037 . S
O386 C406 1.234 . S
C387 O361 1.269 . S
C387 O362 1.257 . S
C388 H363 0.930 1_556 S
C388 C391 1.388 . S
C388 C393 1.418 . S
C389 H384 0.930 . S
C389 C392 1.404 . S
C389 C393 1.353 . S
N390 Co355 2.145 1_545 S
N390 C391 1.397 . S
N390 C392 1.334 . S
C391 H372 0.929 1_545 S
C391 C388 1.388 . S
C391 N390 1.397 . S
C392 H373 0.929 . S
C392 C389 1.404 . S
C392 N390 1.334 . S
C393 H385 0.930 . S
C393 C388 1.418 . S
C393 C389 1.353 . S
C394 H364 0.930 . S
C394 N395 1.330 . S
C394 C396 1.446 . S
N395 Co354 2.151 . S
N395 C394 1.330 . S
N395 C399 1.418 . S
C396 H375 0.929 . S
C396 C394 1.446 . S
C396 C397 1.332 . S
C397 H377 0.931 . S
C397 C396 1.332 . S
C397 C398 1.267 . S
C398 H366 0.929 . S
C398 C397 1.267 . S
C398 C399 1.251 . S
C399 H369 0.929 . S
C399 N395 1.418 . S
C399 C398 1.251 . S
C400 H367 0.930 . S
C400 C402 1.406 . S
C400 C405 1.261 . S
C401 H368 0.930 . S
C401 N403 1.325 . S
C401 C404 1.357 . S
C402 H370 0.928 . S
C402 C400 1.406 . S
C402 N403 1.261 . S
N403 Co354 2.214 . S
N403 C401 1.325 . S
N403 C402 1.261 . S
C404 H374 0.931 1_556 S
C404 C401 1.357 . S
C404 C405 1.312 . S
C405 H376 0.930 1_556 S
C405 C400 1.261 . S
C405 C404 1.312 . S
C406 O378 1.214 . S
C406 O386 1.234 . S
C407 H379 0.929 . S
C407 C410 1.391 . S
C407 C412 1.391 1_545 S
C408 H380 0.929 . S
C408 C409 1.390 . S
C408 N411 1.380 1_545 S
C409 H381 0.930 . S
C409 C408 1.390 . S
C409 C410 1.392 . S
C410 H382 0.929 . S
C410 C407 1.391 . S
C410 C409 1.392 . S
N411 Co355 2.268 . S
N411 C408 1.380 1_565 S
N411 C412 1.391 . S
C412 H383 0.930 . S
C412 C407 1.391 1_565 S
C412 N411 1.391 . S
Co413 O415 2.143 . S
Co413 O421 2.074 . S
Co413 O424 2.093 . S
Co413 O437 2.097 . S
Co413 N454 2.151 . S
Co413 N462 2.214 . S
Co414 O415 2.160 . S
Co414 O420 2.058 . S
Co414 O430 2.057 . S
Co414 O445 2.037 . S
Co414 N449 2.145 . S
Co414 N470 2.257 . S
O415 Co413 2.143 . S
O415 Co414 2.160 . S
C416 O417 1.278 . S
C416 O424 1.224 . S
O417 C416 1.278 . S
C418 O419 1.245 . S
C418 O430 1.232 . S
O419 C418 1.245 . S
O420 Co414 2.058 . S
O420 C446 1.269 . S
O421 Co413 2.074 . S
O421 C446 1.257 . S
H422 C447 0.930 . S
H423 C453 0.930 . S
O424 Co413 2.093 . S
O424 C416 1.224 . S
H425 C457 0.929 . S
H426 C459 0.930 . S
H427 C460 0.930 . S
H428 C458 0.929 . S
H429 C461 0.928 . S
O430 Co414 2.057 . S
O430 C418 1.232 . S
H431 C450 0.929 . S
H432 C451 0.929 . S
H433 C463 0.931 . S
H434 C455 0.929 . S
H435 C464 0.930 . S
H436 C456 0.931 . S
O437 Co413 2.097 . S
O437 C465 1.214 . S
H438 C466 0.929 . S
H439 C467 0.929 . S
H440 C468 0.930 . S
H441 C469 0.929 . S
H442 C471 0.930 . S
H443 C448 0.930 . S
H444 C452 0.930 . S
O445 Co414 2.037 . S
O445 C465 1.234 . S
C446 O420 1.269 . S
C446 O421 1.257 . S
C447 H422 0.930 . S
C447 C450 1.388 . S
C447 C452 1.418 . S
C448 H443 0.930 . S
C448 C451 1.404 . S
C448 C452 1.353 . S
N449 Co414 2.145 . S
N449 C450 1.397 . S
N449 C451 1.334 . S
C450 H431 0.929 . S
C450 C447 1.388 . S
C450 N449 1.397 . S
C451 H432 0.929 . S
C451 C448 1.404 . S
C451 N449 1.334 . S
C452 H444 0.930 . S
C452 C447 1.418 . S
C452 C448 1.353 . S
C453 H423 0.930 . S
C453 N454 1.330 . S
C453 C455 1.446 . S
N454 Co413 2.151 . S
N454 C453 1.330 . S
N454 C458 1.418 . S
C455 H434 0.929 . S
C455 C453 1.446 . S
C455 C456 1.332 . S
C456 H436 0.931 . S
C456 C455 1.332 . S
C456 C457 1.267 . S
C457 H425 0.929 . S
C457 C456 1.267 . S
C457 C458 1.251 . S
C458 H428 0.929 . S
C458 N454 1.418 . S
C458 C457 1.251 . S
C459 H426 0.930 . S
C459 C461 1.406 . S
C459 C464 1.261 . S
C460 H427 0.930 . S
C460 N462 1.325 . S
C460 C463 1.357 . S
C461 H429 0.928 . S
C461 C459 1.406 . S
C461 N462 1.261 . S
N462 Co413 2.214 . S
N462 C460 1.325 . S
N462 C461 1.261 . S
C463 H433 0.931 . S
C463 C460 1.357 . S
C463 C464 1.312 . S
C464 H435 0.930 . S
C464 C459 1.261 . S
C464 C463 1.312 . S
C465 O437 1.214 . S
C465 O445 1.234 . S
C466 H438 0.929 . S
C466 C469 1.391 . S
C466 C471 1.391 . S
C467 H439 0.929 . S
C467 C468 1.390 . S
C467 N470 1.391 . S
C468 H440 0.930 . S
C468 C467 1.390 . S
C468 C469 1.392 . S
C469 H441 0.929 . S
C469 C466 1.391 . S
C469 C468 1.392 . S
N470 Co414 2.257 . S
N470 C467 1.391 . S
N470 C471 1.388 . S
C471 H442 0.930 . S
C471 C466 1.391 . S
C471 N470 1.388 . S
C472 C473 1.387 . S
C472 H476 0.950 . S
C472 C481 1.390 . S
C473 C472 1.387 . S
C473 C475 1.387 . S
H474 C481 0.950 . S
C475 C473 1.387 . S
C475 C477 1.390 . S
C475 H479 0.950 . S
H476 C472 0.950 . S
C477 C475 1.390 . S
C477 C478 1.387 . S
C477 H480 0.950 . S
C478 C477 1.387 . S
C478 C481 1.387 . S
H479 C475 0.950 . S
H480 C477 0.950 . S
C481 C472 1.390 . S
C481 H474 0.950 . S
C481 C478 1.387 . S
C482 C483 1.387 . S
C482 H486 0.950 . S
C482 C491 1.390 . S
C483 C482 1.387 . S
C483 C485 1.387 . S
H484 C491 0.950 . S
C485 C483 1.387 . S
C485 C487 1.390 . S
C485 H489 0.950 . S
H486 C482 0.950 . S
C487 C485 1.390 . S
C487 C488 1.387 . S
C487 H490 0.950 . S
C488 C487 1.387 . S
C488 C491 1.387 . S
H489 C485 0.950 . S
H490 C487 0.950 . S
C491 C482 1.390 . S
C491 H484 0.950 . S
C491 C488 1.387 . S
C492 C493 1.387 1_565 S
C492 H496 0.950 . S
C492 C501 1.390 1_554 S
C493 C492 1.387 1_545 S
C493 C495 1.387 . S
H494 C501 0.950 . S
C495 C493 1.387 . S
C495 C497 1.390 1_554 S
C495 H499 0.950 . S
H496 C492 0.950 . S
C497 C495 1.390 1_556 S
C497 C498 1.387 1_545 S
C497 H500 0.950 . S
C498 C497 1.387 1_565 S
C498 C501 1.387 . S
H499 C495 0.950 . S
H500 C497 0.950 . S
C501 C492 1.390 1_556 S
C501 H494 0.950 . S
C501 C498 1.387 . S
C502 C503 1.393 . S
C502 H506 0.950 . S
C502 C511 1.390 . S
C503 C502 1.393 . S
C503 C505 1.386 1_455 S
H504 C511 0.950 . S
C505 C503 1.386 1_655 S
C505 C507 1.390 1_655 S
C505 H509 0.950 . S
H506 C502 0.950 . S
C507 C505 1.390 1_455 S
C507 C508 1.387 . S
C507 H510 0.950 1_455 S
C508 C507 1.387 . S
C508 C511 1.387 . S
H509 C505 0.950 . S
H510 C507 0.950 1_655 S
C511 C502 1.390 . S
C511 H504 0.950 . S
C511 C508 1.387 . S
C512 C513 1.387 . S
C512 H516 0.950 . S
C512 C521 1.390 . S
C513 C512 1.387 . S
C513 C515 1.387 . S
H514 C521 0.950 . S
C515 C513 1.387 . S
C515 C517 1.390 1_565 S
C515 H519 0.950 . S
H516 C512 0.950 . S
C517 C515 1.390 1_545 S
C517 C518 1.385 1_545 S
C517 H520 0.950 . S
C518 C517 1.385 1_565 S
C518 C521 1.398 . S
H519 C515 0.950 . S
H520 C517 0.950 . S
C521 C512 1.390 . S
C521 H514 0.950 . S
C521 C518 1.398 . S
C522 C523 1.387 1_554 S
C522 H526 0.950 . S
C522 C531 1.390 1_655 S
C523 C522 1.387 1_556 S
C523 C525 1.387 1_655 S
H524 C531 0.950 . S
C525 C523 1.387 1_455 S
C525 C527 1.390 . S
C525 H529 0.950 . S
H526 C522 0.950 . S
C527 C525 1.390 . S
C527 C528 1.387 1_556 S
C527 H530 0.950 . S
C528 C527 1.387 1_554 S
C528 C531 1.387 . S
H529 C525 0.950 . S
H530 C527 0.950 . S
C531 C522 1.390 1_455 S
C531 H524 0.950 . S
C531 C528 1.387 . S
C532 C533 1.387 . S
C532 H536 0.950 . S
C532 C541 1.390 . S
C533 C532 1.387 . S
C533 C535 1.387 . S
H534 C541 0.950 . S
C535 C533 1.387 . S
C535 C537 1.390 . S
C535 H539 0.950 . S
H536 C532 0.950 . S
C537 C535 1.390 . S
C537 C538 1.387 . S
C537 H540 0.950 . S
C538 C537 1.387 . S
C538 C541 1.387 . S
H539 C535 0.950 . S
H540 C537 0.950 . S
C541 C532 1.390 . S
C541 H534 0.950 . S
C541 C538 1.387 . S
C542 C543 1.387 . S
C542 H546 0.950 . S
C542 C551 1.390 . S
C543 C542 1.387 . S
C543 C545 1.387 . S
H544 C551 0.950 . S
C545 C543 1.387 . S
C545 C547 1.390 . S
C545 H549 0.950 . S
H546 C542 0.950 . S
C547 C545 1.390 . S
C547 C548 1.387 . S
C547 H550 0.950 . S
C548 C547 1.387 . S
C548 C551 1.387 . S
H549 C545 0.950 . S
H550 C547 0.950 . S
C551 C542 1.390 . S
C551 H544 0.950 . S
C551 C548 1.387 . S
C552 C553 1.387 . S
C552 H556 0.950 . S
C552 C561 1.390 . S
C553 C552 1.387 . S
C553 C555 1.387 . S
H554 C561 0.950 . S
C555 C553 1.387 . S
C555 C557 1.390 . S
C555 H559 0.950 . S
H556 C552 0.950 . S
C557 C555 1.390 . S
C557 C558 1.387 . S
C557 H560 0.950 . S
C558 C557 1.387 . S
C558 C561 1.387 . S
H559 C555 0.950 . S
H560 C557 0.950 . S
C561 C552 1.390 . S
C561 H554 0.950 . S
C561 C558 1.387 . S
C562 C563 1.387 1_554 S
C562 H566 0.950 . S
C562 C571 1.390 . S
C563 C562 1.387 1_556 S
C563 C565 1.387 . S
H564 C571 0.950 . S
C565 C563 1.387 . S
C565 C567 1.390 . S
C565 H569 0.950 . S
H566 C562 0.950 . S
C567 C565 1.390 . S
C567 C568 1.387 1_556 S
C567 H570 0.950 . S
C568 C567 1.387 1_554 S
C568 C571 1.387 . S
H569 C565 0.950 . S
H570 C567 0.950 . S
C571 C562 1.390 . S
C571 H564 0.950 . S
C571 C568 1.387 . S
C572 C573 1.387 . S
C572 H576 0.950 . S
C572 C581 1.390 . S
C573 C572 1.387 . S
C573 C575 1.387 . S
H574 C581 0.950 . S
C575 C573 1.387 . S
C575 C577 1.390 1_565 S
C575 H579 0.950 . S
H576 C572 0.950 . S
C577 C575 1.390 1_545 S
C577 C578 1.385 1_545 S
C577 H580 0.950 . S
C578 C577 1.385 1_565 S
C578 C581 1.398 . S
H579 C575 0.950 . S
H580 C577 0.950 . S
C581 C572 1.390 . S
C581 H574 0.950 . S
C581 C578 1.398 . S
C582 C583 1.387 1_455 S
C582 H586 0.950 . S
C582 C591 1.390 . S
C583 C582 1.387 1_655 S
C583 C585 1.387 1_565 S
H584 C591 0.950 . S
C585 C583 1.387 1_545 S
C585 C587 1.390 1_655 S
C585 H589 0.950 . S
H586 C582 0.950 . S
C587 C585 1.390 1_455 S
C587 C588 1.387 . S
C587 H590 0.950 . S
C588 C587 1.387 . S
C588 C591 1.387 1_545 S
H589 C585 0.950 . S
H590 C587 0.950 . S
C591 C582 1.390 . S
C591 H584 0.950 . S
C591 C588 1.387 1_565 S
C592 C593 1.388 . S
C592 H596 0.950 . S
C592 C601 1.390 . S
C593 C592 1.388 . S
C593 C595 1.389 . S
H594 C601 0.950 . S
C595 C593 1.389 . S
C595 C597 1.390 . S
C595 H599 0.950 1_455 S
H596 C592 0.950 . S
C597 C595 1.390 . S
C597 C598 1.387 . S
C597 H600 0.950 . S
C598 C597 1.387 . S
C598 C601 1.387 . S
H599 C595 0.950 1_655 S
H600 C597 0.950 . S
C601 C592 1.390 . S
C601 H594 0.950 . S
C601 C598 1.387 . S
C602 C603 1.387 . S
C602 H606 0.950 . S
C602 C611 1.390 . S
C603 C602 1.387 . S
C603 C605 1.387 . S
H604 C611 0.950 . S
C605 C603 1.387 . S
C605 C607 1.390 . S
C605 H609 0.950 . S
H606 C602 0.950 . S
C607 C605 1.390 . S
C607 C608 1.387 . S
C607 H610 0.950 . S
C608 C607 1.387 . S
C608 C611 1.387 . S
H609 C605 0.950 . S
H610 C607 0.950 . S
C611 C602 1.390 . S
C611 H604 0.950 . S
C611 C608 1.387 . S
C612 C613 1.387 . S
C612 H616 0.950 . S
C612 C621 1.390 1_554 S
C613 C612 1.387 . S
C613 C615 1.387 . S
H614 C621 0.950 . S
C615 C613 1.387 . S
C615 C617 1.390 1_554 S
C615 H619 0.950 . S
H616 C612 0.950 . S
C617 C615 1.390 1_556 S
C617 C618 1.387 . S
C617 H620 0.950 . S
C618 C617 1.387 . S
C618 C621 1.387 . S
H619 C615 0.950 . S
H620 C617 0.950 . S
C621 C612 1.390 1_556 S
C621 H614 0.950 . S
C621 C618 1.387 . S
C622 C623 1.387 . S
C622 H626 0.950 . S
C622 C631 1.390 . S
C623 C622 1.387 . S
C623 C625 1.387 . S
H624 C631 0.950 . S
C625 C623 1.387 . S
C625 C627 1.390 . S
C625 H629 0.950 . S
H626 C622 0.950 . S
C627 C625 1.390 . S
C627 C628 1.387 . S
C627 H630 0.950 . S
C628 C627 1.387 . S
C628 C631 1.387 . S
H629 C625 0.950 . S
H630 C627 0.950 . S
C631 C622 1.390 . S
C631 H624 0.950 . S
C631 C628 1.387 . S
C473 C328 1.595 . S
C478 C33 1.595 . S
C483 C416 1.582 . S
C488 C64 1.590 . S
C493 C170 1.595 . S
C498 C406 1.595 . S
C503 C180 1.579 1_455 S
C508 C241 1.589 . S
C513 C359 1.589 . S
C518 C3 1.574 1_565 S
C523 C111 1.594 . S
C528 C288 1.595 . S
C533 C298 1.581 . S
C538 C123 1.589 . S
C543 C210 1.595 . S
C548 C446 1.595 . S
C553 C239 1.582 . S
C558 C300 1.590 . S
C563 C92 1.594 . S
C568 C151 1.595 . S
C573 C182 1.589 . S
C578 C121 1.574 1_565 S
C583 C229 1.595 . S
C588 C52 1.595 . S
C593 C62 1.580 1_455 S
C598 C5 1.590 . S
C603 C418 1.589 . S
C608 C357 1.582 . S
C613 C269 1.595 . S
C618 C387 1.595 . S
C623 C347 1.594 . S
C628 C465 1.595 . S
