# Generated by pormake.
# Topology umn, (4)-cn, num edge types: 1
# Building blocks:
#     Node 0, Type 0, BuildingBlock: QUQFOY_clean_sbu_3, # of connection points: 4
#     Node 1, Type 0, BuildingBlock: QUQFOY_clean_sbu_3, # of connection points: 4
#     Node 2, Type 0, BuildingBlock: QUQFOY_clean_sbu_3, # of connection points: 4
#     Node 3, Type 0, BuildingBlock: QUQFOY_clean_sbu_3, # of connection points: 4
#     Node 4, Type 0, BuildingBlock: QUQFOY_clean_sbu_3, # of connection points: 4
#     Node 5, Type 0, BuildingBlock: QUQFOY_clean_sbu_3, # of connection points: 4
#     Node 6, Type 0, BuildingBlock: QUQFOY_clean_sbu_3, # of connection points: 4
#     Node 7, Type 0, BuildingBlock: QUQFOY_clean_sbu_3, # of connection points: 4
#     Node 8, Type 0, BuildingBlock: QUQFOY_clean_sbu_3, # of connection points: 4
#     Node 9, Type 0, BuildingBlock: QUQFOY_clean_sbu_3, # of connection points: 4
#     Node 10, Type 0, BuildingBlock: QUQFOY_clean_sbu_3, # of connection points: 4
#     Node 11, Type 0, BuildingBlock: QUQFOY_clean_sbu_3, # of connection points: 4
#     Node 12, Type 0, BuildingBlock: QUQFOY_clean_sbu_3, # of connection points: 4
#     Node 13, Type 0, BuildingBlock: QUQFOY_clean_sbu_3, # of connection points: 4
#     Node 14, Type 0, BuildingBlock: QUQFOY_clean_sbu_3, # of connection points: 4
#     Node 15, Type 0, BuildingBlock: QUQFOY_clean_sbu_3, # of connection points: 4
#     Node 16, Type 0, BuildingBlock: QUQFOY_clean_sbu_3, # of connection points: 4
#     Node 17, Type 0, BuildingBlock: QUQFOY_clean_sbu_3, # of connection points: 4
#     Node 18, Type 0, BuildingBlock: QUQFOY_clean_sbu_3, # of connection points: 4
#     Node 19, Type 0, BuildingBlock: QUQFOY_clean_sbu_3, # of connection points: 4
#     Node 20, Type 0, BuildingBlock: QUQFOY_clean_sbu_3, # of connection points: 4
#     Node 21, Type 0, BuildingBlock: QUQFOY_clean_sbu_3, # of connection points: 4
#     Node 22, Type 0, BuildingBlock: QUQFOY_clean_sbu_3, # of connection points: 4
#     Node 23, Type 0, BuildingBlock: QUQFOY_clean_sbu_3, # of connection points: 4
#     Node 24, Type 0, BuildingBlock: QUQFOY_clean_sbu_3, # of connection points: 4
#     Node 25, Type 0, BuildingBlock: QUQFOY_clean_sbu_3, # of connection points: 4
#     Node 26, Type 0, BuildingBlock: QUQFOY_clean_sbu_3, # of connection points: 4
#     Node 27, Type 0, BuildingBlock: QUQFOY_clean_sbu_3, # of connection points: 4
#     Node 28, Type 0, BuildingBlock: QUQFOY_clean_sbu_3, # of connection points: 4
#     Node 29, Type 0, BuildingBlock: QUQFOY_clean_sbu_3, # of connection points: 4
#     Node 30, Type 0, BuildingBlock: QUQFOY_clean_sbu_3, # of connection points: 4
#     Node 31, Type 0, BuildingBlock: QUQFOY_clean_sbu_3, # of connection points: 4
#     Node 32, Type 0, BuildingBlock: QUQFOY_clean_sbu_3, # of connection points: 4
#     Node 33, Type 0, BuildingBlock: QUQFOY_clean_sbu_3, # of connection points: 4
#     Node 34, Type 0, BuildingBlock: QUQFOY_clean_sbu_3, # of connection points: 4
#     Node 35, Type 0, BuildingBlock: QUQFOY_clean_sbu_3, # of connection points: 4
#     Edge 36, Type (0, 0), BuildingBlock: KIFKEQ_clean_linker_1, # of connection points: 2
#     Edge 37, Type (0, 0), BuildingBlock: KIFKEQ_clean_linker_1, # of connection points: 2
#     Edge 38, Type (0, 0), BuildingBlock: KIFKEQ_clean_linker_1, # of connection points: 2
#     Edge 39, Type (0, 0), BuildingBlock: KIFKEQ_clean_linker_1, # of connection points: 2
#     Edge 40, Type (0, 0), BuildingBlock: KIFKEQ_clean_linker_1, # of connection points: 2
#     Edge 41, Type (0, 0), BuildingBlock: KIFKEQ_clean_linker_1, # of connection points: 2
#     Edge 42, Type (0, 0), BuildingBlock: KIFKEQ_clean_linker_1, # of connection points: 2
#     Edge 43, Type (0, 0), BuildingBlock: KIFKEQ_clean_linker_1, # of connection points: 2
#     Edge 44, Type (0, 0), BuildingBlock: KIFKEQ_clean_linker_1, # of connection points: 2
#     Edge 45, Type (0, 0), BuildingBlock: KIFKEQ_clean_linker_1, # of connection points: 2
#     Edge 46, Type (0, 0), BuildingBlock: KIFKEQ_clean_linker_1, # of connection points: 2
#     Edge 47, Type (0, 0), BuildingBlock: KIFKEQ_clean_linker_1, # of connection points: 2
#     Edge 48, Type (0, 0), BuildingBlock: KIFKEQ_clean_linker_1, # of connection points: 2
#     Edge 49, Type (0, 0), BuildingBlock: KIFKEQ_clean_linker_1, # of connection points: 2
#     Edge 50, Type (0, 0), BuildingBlock: KIFKEQ_clean_linker_1, # of connection points: 2
#     Edge 51, Type (0, 0), BuildingBlock: KIFKEQ_clean_linker_1, # of connection points: 2
#     Edge 52, Type (0, 0), BuildingBlock: KIFKEQ_clean_linker_1, # of connection points: 2
#     Edge 53, Type (0, 0), BuildingBlock: KIFKEQ_clean_linker_1, # of connection points: 2
#     Edge 54, Type (0, 0), BuildingBlock: KIFKEQ_clean_linker_1, # of connection points: 2
#     Edge 55, Type (0, 0), BuildingBlock: KIFKEQ_clean_linker_1, # of connection points: 2
#     Edge 56, Type (0, 0), BuildingBlock: KIFKEQ_clean_linker_1, # of connection points: 2
#     Edge 57, Type (0, 0), BuildingBlock: KIFKEQ_clean_linker_1, # of connection points: 2
#     Edge 58, Type (0, 0), BuildingBlock: KIFKEQ_clean_linker_1, # of connection points: 2
#     Edge 59, Type (0, 0), BuildingBlock: KIFKEQ_clean_linker_1, # of connection points: 2
#     Edge 60, Type (0, 0), BuildingBlock: KIFKEQ_clean_linker_1, # of connection points: 2
#     Edge 61, Type (0, 0), BuildingBlock: KIFKEQ_clean_linker_1, # of connection points: 2
#     Edge 62, Type (0, 0), BuildingBlock: KIFKEQ_clean_linker_1, # of connection points: 2
#     Edge 63, Type (0, 0), BuildingBlock: KIFKEQ_clean_linker_1, # of connection points: 2
#     Edge 64, Type (0, 0), BuildingBlock: KIFKEQ_clean_linker_1, # of connection points: 2
#     Edge 65, Type (0, 0), BuildingBlock: KIFKEQ_clean_linker_1, # of connection points: 2
#     Edge 66, Type (0, 0), BuildingBlock: KIFKEQ_clean_linker_1, # of connection points: 2
#     Edge 67, Type (0, 0), BuildingBlock: KIFKEQ_clean_linker_1, # of connection points: 2
#     Edge 68, Type (0, 0), BuildingBlock: KIFKEQ_clean_linker_1, # of connection points: 2
#     Edge 69, Type (0, 0), BuildingBlock: KIFKEQ_clean_linker_1, # of connection points: 2
#     Edge 70, Type (0, 0), BuildingBlock: KIFKEQ_clean_linker_1, # of connection points: 2
#     Edge 71, Type (0, 0), BuildingBlock: KIFKEQ_clean_linker_1, # of connection points: 2
#     Edge 72, Type (0, 0), BuildingBlock: KIFKEQ_clean_linker_1, # of connection points: 2
#     Edge 73, Type (0, 0), BuildingBlock: KIFKEQ_clean_linker_1, # of connection points: 2
#     Edge 74, Type (0, 0), BuildingBlock: KIFKEQ_clean_linker_1, # of connection points: 2
#     Edge 75, Type (0, 0), BuildingBlock: KIFKEQ_clean_linker_1, # of connection points: 2
#     Edge 76, Type (0, 0), BuildingBlock: KIFKEQ_clean_linker_1, # of connection points: 2
#     Edge 77, Type (0, 0), BuildingBlock: KIFKEQ_clean_linker_1, # of connection points: 2
#     Edge 78, Type (0, 0), BuildingBlock: KIFKEQ_clean_linker_1, # of connection points: 2
#     Edge 79, Type (0, 0), BuildingBlock: KIFKEQ_clean_linker_1, # of connection points: 2
#     Edge 80, Type (0, 0), BuildingBlock: KIFKEQ_clean_linker_1, # of connection points: 2
#     Edge 81, Type (0, 0), BuildingBlock: KIFKEQ_clean_linker_1, # of connection points: 2
#     Edge 82, Type (0, 0), BuildingBlock: KIFKEQ_clean_linker_1, # of connection points: 2
#     Edge 83, Type (0, 0), BuildingBlock: KIFKEQ_clean_linker_1, # of connection points: 2
#     Edge 84, Type (0, 0), BuildingBlock: KIFKEQ_clean_linker_1, # of connection points: 2
#     Edge 85, Type (0, 0), BuildingBlock: KIFKEQ_clean_linker_1, # of connection points: 2
#     Edge 86, Type (0, 0), BuildingBlock: KIFKEQ_clean_linker_1, # of connection points: 2
#     Edge 87, Type (0, 0), BuildingBlock: KIFKEQ_clean_linker_1, # of connection points: 2
#     Edge 88, Type (0, 0), BuildingBlock: KIFKEQ_clean_linker_1, # of connection points: 2
#     Edge 89, Type (0, 0), BuildingBlock: KIFKEQ_clean_linker_1, # of connection points: 2
#     Edge 90, Type (0, 0), BuildingBlock: KIFKEQ_clean_linker_1, # of connection points: 2
#     Edge 91, Type (0, 0), BuildingBlock: KIFKEQ_clean_linker_1, # of connection points: 2
#     Edge 92, Type (0, 0), BuildingBlock: KIFKEQ_clean_linker_1, # of connection points: 2
#     Edge 93, Type (0, 0), BuildingBlock: KIFKEQ_clean_linker_1, # of connection points: 2
#     Edge 94, Type (0, 0), BuildingBlock: KIFKEQ_clean_linker_1, # of connection points: 2
#     Edge 95, Type (0, 0), BuildingBlock: KIFKEQ_clean_linker_1, # of connection points: 2
#     Edge 96, Type (0, 0), BuildingBlock: KIFKEQ_clean_linker_1, # of connection points: 2
#     Edge 97, Type (0, 0), BuildingBlock: KIFKEQ_clean_linker_1, # of connection points: 2
#     Edge 98, Type (0, 0), BuildingBlock: KIFKEQ_clean_linker_1, # of connection points: 2
#     Edge 99, Type (0, 0), BuildingBlock: KIFKEQ_clean_linker_1, # of connection points: 2
#     Edge 100, Type (0, 0), BuildingBlock: KIFKEQ_clean_linker_1, # of connection points: 2
#     Edge 101, Type (0, 0), BuildingBlock: KIFKEQ_clean_linker_1, # of connection points: 2
#     Edge 102, Type (0, 0), BuildingBlock: KIFKEQ_clean_linker_1, # of connection points: 2
#     Edge 103, Type (0, 0), BuildingBlock: KIFKEQ_clean_linker_1, # of connection points: 2
#     Edge 104, Type (0, 0), BuildingBlock: KIFKEQ_clean_linker_1, # of connection points: 2
#     Edge 105, Type (0, 0), BuildingBlock: KIFKEQ_clean_linker_1, # of connection points: 2
#     Edge 106, Type (0, 0), BuildingBlock: KIFKEQ_clean_linker_1, # of connection points: 2
#     Edge 107, Type (0, 0), BuildingBlock: KIFKEQ_clean_linker_1, # of connection points: 2
# Relax obj value: 0.163
# Max RMSD: 0.212
# Mean RMSD: 0.212
data_MOF--net-umn--node1-QUQFOY_clean_sbu_3--edge1-KIFKEQ_clean_linker_1
_symmetry_space_group_name_H-M    P1
_symmetry_Int_Tables_number       1
_symmetry_cell_setting            triclinic
loop_
_symmetry_equiv_pos_as_xyz
'x, y, z'
_cell_length_a     85.002151
_cell_length_b     84.997824
_cell_length_c     37.940097
_cell_angle_alpha  90.014483
_cell_angle_beta   90.002976
_cell_angle_gamma 119.96888
loop_
_atom_site_label
_atom_site_type_symbol
_atom_site_fract_x
_atom_site_fract_y
_atom_site_fract_z
_atom_type_partial_charge
C0 C 0.41038 0.11434 0.20505 0.0
O1 O 0.41715 0.11596 0.23553 0.0
Cd2 Cd 0.39573 0.10565 0.28489 0.0
O3 O 0.3938 0.10986 0.20214 0.0
Cd4 Cd 0.36874 0.10457 0.24141 0.0
C5 C 0.36329 0.06399 0.25837 0.0
O6 O 0.37632 0.1179 0.30232 0.0
O7 O 0.34949 0.0949 0.29027 0.0
O8 O 0.36938 0.13084 0.21654 0.0
C9 C 0.35971 0.10746 0.3113 0.0
O10 O 0.37669 0.07316 0.27879 0.0
C11 C 0.35326 0.12243 0.2047 0.0
O12 O 0.3575 0.07196 0.23809 0.0
O13 O 0.34448 0.10524 0.20822 0.0
C14 C 0.87515 0.29436 0.2033 0.0
O15 O 0.87465 0.30001 0.234 0.0
Cd16 Cd 0.88457 0.28822 0.28317 0.0
O17 O 0.87863 0.28158 0.1998 0.0
Cd18 Cd 0.88416 0.26177 0.23831 0.0
C19 C 0.92523 0.2965 0.25313 0.0
O20 O 0.87228 0.25655 0.30039 0.0
O21 O 0.89488 0.25244 0.28622 0.0
O22 O 0.85762 0.236 0.21431 0.0
C23 C 0.88291 0.25045 0.30847 0.0
O24 O 0.91681 0.30053 0.27585 0.0
C25 C 0.86604 0.22847 0.2016 0.0
O26 O 0.91654 0.28334 0.23184 0.0
O27 O 0.88326 0.23697 0.20445 0.0
C28 C 0.69311 0.57567 0.20455 0.0
O29 O 0.68705 0.56969 0.23513 0.0
Cd30 Cd 0.69852 0.5913 0.28443 0.0
O31 O 0.7062 0.59177 0.20116 0.0
Cd32 Cd 0.72609 0.61693 0.23994 0.0
C33 C 0.69218 0.62489 0.25341 0.0
O34 O 0.72989 0.61056 0.30295 0.0
O35 O 0.73517 0.63747 0.28678 0.0
O36 O 0.75225 0.615 0.22318 0.0
C37 C 0.73622 0.62741 0.31023 0.0
O38 O 0.68743 0.61207 0.27556 0.0
C39 C 0.76023 0.63011 0.20713 0.0
O40 O 0.70554 0.62918 0.23267 0.0
O41 O 0.75177 0.6389 0.20452 0.0
C42 C 0.11172 0.41262 0.30722 0.0
O43 O 0.11206 0.41857 0.27641 0.0
Cd44 Cd 0.10227 0.39684 0.22736 0.0
O45 O 0.10836 0.39641 0.31108 0.0
Cd46 Cd 0.10265 0.37089 0.2728 0.0
C47 C 0.06161 0.36461 0.25767 0.0
O48 O 0.11465 0.37745 0.21084 0.0
O49 O 0.09174 0.35093 0.22478 0.0
O50 O 0.12897 0.37113 0.29681 0.0
C51 C 0.10391 0.36077 0.20274 0.0
O52 O 0.07003 0.37692 0.23472 0.0
C53 C 0.12035 0.3551 0.30904 0.0
O54 O 0.0703 0.36025 0.2792 0.0
O55 O 0.10314 0.34666 0.3062 0.0
C56 C 0.57764 0.69748 0.3119 0.0
O57 O 0.57119 0.69143 0.28155 0.0
Cd58 Cd 0.59171 0.70142 0.2308 0.0
O59 O 0.59401 0.71015 0.31475 0.0
Cd60 Cd 0.61919 0.72923 0.2749 0.0
C61 C 0.62493 0.69408 0.26244 0.0
O62 O 0.61165 0.73262 0.21269 0.0
O63 O 0.63726 0.73379 0.22483 0.0
O64 O 0.61977 0.75638 0.29473 0.0
C65 C 0.62742 0.73601 0.20262 0.0
O66 O 0.61219 0.68977 0.24023 0.0
C67 C 0.63592 0.76403 0.30637 0.0
O68 O 0.62971 0.70751 0.28323 0.0
O69 O 0.64422 0.75507 0.30478 0.0
C70 C 0.29359 0.87571 0.30935 0.0
O71 O 0.29949 0.8757 0.27868 0.0
Cd72 Cd 0.28987 0.88941 0.23304 0.0
O73 O 0.28121 0.87976 0.31315 0.0
Cd74 Cd 0.26178 0.88629 0.27531 0.0
C75 C 0.29663 0.928 0.27249 0.0
O76 O 0.25925 0.87896 0.21088 0.0
O77 O 0.2544 0.90036 0.23043 0.0
O78 O 0.23532 0.85751 0.28746 0.0
C79 C 0.25337 0.89002 0.20537 0.0
O80 O 0.30229 0.92071 0.25037 0.0
C81 C 0.22698 0.86392 0.30466 0.0
O82 O 0.28171 0.91844 0.28884 0.0
O83 O 0.23531 0.88101 0.30986 0.0
C84 C 0.57605 0.876 0.8096 0.0
O85 O 0.5697 0.87507 0.77895 0.0
Cd86 Cd 0.59207 0.88678 0.73124 0.0
O87 O 0.59247 0.87997 0.81298 0.0
Cd88 Cd 0.6177 0.88504 0.77429 0.0
C89 C 0.62462 0.92662 0.76524 0.0
O90 O 0.61201 0.87574 0.71076 0.0
O91 O 0.63863 0.89739 0.7282 0.0
O92 O 0.61531 0.85658 0.78959 0.0
C93 C 0.6289 0.88649 0.70418 0.0
O94 O 0.61137 0.91854 0.74399 0.0
C95 C 0.63021 0.86334 0.80637 0.0
O96 O 0.63014 0.91766 0.78328 0.0
O97 O 0.6391 0.88054 0.80993 0.0
C98 C 0.11288 0.69749 0.80882 0.0
O99 O 0.11306 0.69163 0.77816 0.0
Cd100 Cd 0.10331 0.70338 0.72872 0.0
O101 O 0.10954 0.71037 0.81237 0.0
Cd102 Cd 0.10363 0.73004 0.77414 0.0
C103 C 0.06255 0.69533 0.75801 0.0
O104 O 0.11627 0.73524 0.71267 0.0
O105 O 0.09375 0.7397 0.72536 0.0
O106 O 0.12972 0.75592 0.7992 0.0
C107 C 0.10592 0.74154 0.70379 0.0
O108 O 0.07104 0.69132 0.73541 0.0
C109 C 0.12103 0.76328 0.81137 0.0
O110 O 0.07119 0.70839 0.77956 0.0
O111 O 0.10385 0.75462 0.80777 0.0
C112 C 0.29188 0.41186 0.81067 0.0
O113 O 0.29766 0.41829 0.78021 0.0
Cd114 Cd 0.28639 0.39673 0.73066 0.0
O115 O 0.27922 0.39553 0.81358 0.0
Cd116 Cd 0.25973 0.37077 0.77382 0.0
C117 C 0.29392 0.36359 0.75912 0.0
O118 O 0.2552 0.37707 0.71118 0.0
O119 O 0.25091 0.35043 0.7268 0.0
O120 O 0.23367 0.37266 0.79079 0.0
C121 C 0.24913 0.36026 0.70384 0.0
O122 O 0.29837 0.37657 0.73751 0.0
C123 C 0.22559 0.35744 0.80645 0.0
O124 O 0.2806 0.35889 0.78016 0.0
O125 O 0.23398 0.34857 0.80886 0.0
C126 C 0.87486 0.5803 0.70343 0.0
O127 O 0.87449 0.5744 0.73429 0.0
Cd128 Cd 0.88522 0.59659 0.7826 0.0
O129 O 0.87875 0.59666 0.69937 0.0
Cd130 Cd 0.88531 0.62268 0.73689 0.0
C131 C 0.92612 0.62826 0.75178 0.0
O132 O 0.87319 0.61632 0.79878 0.0
O133 O 0.89616 0.64278 0.78477 0.0
O134 O 0.85902 0.62229 0.71256 0.0
C135 C 0.88396 0.633 0.80682 0.0
O136 O 0.91754 0.616 0.77474 0.0
C137 C 0.86759 0.63821 0.69983 0.0
O138 O 0.91759 0.63286 0.73032 0.0
O139 O 0.88481 0.64674 0.70272 0.0
C140 C 0.41159 0.29422 0.69794 0.0
O141 O 0.4181 0.30003 0.72834 0.0
Cd142 Cd 0.39633 0.2894 0.77748 0.0
O143 O 0.39518 0.2817 0.69519 0.0
Cd144 Cd 0.37054 0.26252 0.73538 0.0
C145 C 0.36353 0.2969 0.74595 0.0
O146 O 0.37589 0.25873 0.79896 0.0
O147 O 0.35034 0.25647 0.78187 0.0
O148 O 0.3722 0.23593 0.72172 0.0
C149 C 0.35936 0.25418 0.8059 0.0
O150 O 0.37643 0.30155 0.7679 0.0
C151 C 0.35707 0.22766 0.70578 0.0
O152 O 0.35877 0.28323 0.7258 0.0
O153 O 0.34832 0.2361 0.70187 0.0
C154 C 0.69374 0.11272 0.69878 0.0
O155 O 0.68771 0.11398 0.72858 0.0
Cd156 Cd 0.69749 0.10303 0.77906 0.0
O157 O 0.7063 0.10881 0.69748 0.0
Cd158 Cd 0.7257 0.10444 0.73966 0.0
C159 C 0.69133 0.06279 0.75004 0.0
O160 O 0.72804 0.11467 0.80247 0.0
O161 O 0.73378 0.0931 0.78817 0.0
O162 O 0.75211 0.13264 0.72438 0.0
C163 C 0.73426 0.1042 0.81103 0.0
O164 O 0.68559 0.07106 0.76946 0.0
C165 C 0.76045 0.12559 0.70934 0.0
O166 O 0.70601 0.07164 0.73255 0.0
O167 O 0.75214 0.10835 0.70673 0.0
C168 C 0.07513 0.44676 0.52847 0.0
O169 O 0.082 0.4485 0.55889 0.0
Cd170 Cd 0.05998 0.4359 0.60702 0.0
O171 O 0.0584 0.44171 0.52578 0.0
Cd172 Cd 0.03329 0.43578 0.56587 0.0
C173 C 0.02857 0.39523 0.57365 0.0
O174 O 0.0395 0.44609 0.62893 0.0
O175 O 0.01402 0.42212 0.61429 0.0
O176 O 0.03373 0.46285 0.54608 0.0
C177 C 0.02324 0.43404 0.63725 0.0
O178 O 0.04176 0.40372 0.5949 0.0
C179 C 0.01775 0.45477 0.53353 0.0
O180 O 0.02248 0.40372 0.55579 0.0
O181 O 0.00907 0.43749 0.53467 0.0
C182 C 0.54306 0.62796 0.53444 0.0
O183 O 0.54109 0.63282 0.56495 0.0
Cd184 Cd 0.55245 0.62233 0.61364 0.0
O185 O 0.54802 0.61622 0.53148 0.0
Cd186 Cd 0.55364 0.59675 0.57108 0.0
C187 C 0.59396 0.63236 0.5841 0.0
O188 O 0.54184 0.59119 0.63314 0.0
O189 O 0.56612 0.58998 0.61964 0.0
O190 O 0.52703 0.57053 0.54884 0.0
C191 C 0.55363 0.58664 0.64166 0.0
O192 O 0.5849 0.63647 0.6051 0.0
C193 C 0.53534 0.56276 0.53673 0.0
O194 O 0.58594 0.61835 0.56449 0.0
O195 O 0.55258 0.57133 0.53901 0.0
C196 C 0.36114 0.91002 0.53192 0.0
O197 O 0.35517 0.90378 0.56239 0.0
Cd198 Cd 0.36352 0.92678 0.60828 0.0
O199 O 0.3731 0.92664 0.52865 0.0
Cd200 Cd 0.3916 0.9525 0.56753 0.0
C201 C 0.35616 0.95819 0.5681 0.0
O202 O 0.39357 0.94765 0.63203 0.0
O203 O 0.39607 0.97301 0.6131 0.0
O204 O 0.4189 0.95141 0.5577 0.0
C205 C 0.39777 0.96413 0.63823 0.0
O206 O 0.35058 0.94515 0.59002 0.0
C207 C 0.42713 0.96624 0.54076 0.0
O208 O 0.37132 0.964 0.55237 0.0
O209 O 0.41843 0.97457 0.53477 0.0
C210 C 0.78192 0.75088 0.64101 0.0
O211 O 0.78239 0.7571 0.61042 0.0
Cd212 Cd 0.76931 0.73419 0.56379 0.0
O213 O 0.7777 0.73438 0.64435 0.0
Cd214 Cd 0.77149 0.70888 0.60543 0.0
C215 C 0.72994 0.70229 0.60004 0.0
O216 O 0.7798 0.71405 0.54138 0.0
O217 O 0.75808 0.68774 0.55993 0.0
O218 O 0.79995 0.7108 0.61885 0.0
C219 C 0.76884 0.69713 0.53546 0.0
O220 O 0.73764 0.71544 0.57847 0.0
C221 C 0.79322 0.69592 0.63565 0.0
O222 O 0.73919 0.69675 0.61698 0.0
O223 O 0.77607 0.68728 0.64012 0.0
C224 C 0.2427 0.03074 0.64255 0.0
O225 O 0.23572 0.02561 0.61222 0.0
Cd226 Cd 0.2568 0.03662 0.56228 0.0
O227 O 0.25933 0.04275 0.6451 0.0
Cd228 Cd 0.2842 0.06234 0.60543 0.0
C229 C 0.28918 0.02701 0.58722 0.0
O230 O 0.27633 0.06827 0.54492 0.0
O231 O 0.3032 0.07199 0.55626 0.0
O232 O 0.28385 0.08798 0.63104 0.0
C233 C 0.29288 0.07437 0.53557 0.0
O234 O 0.27567 0.02293 0.56719 0.0
C235 C 0.3 0.09554 0.64264 0.0
O236 O 0.29517 0.04071 0.60767 0.0
O237 O 0.3087 0.08707 0.63857 0.0
C238 C 0.95759 0.20915 0.64592 0.0
O239 O 0.9629 0.20734 0.61574 0.0
Cd240 Cd 0.95255 0.21807 0.56578 0.0
O241 O 0.94548 0.21368 0.64804 0.0
Cd242 Cd 0.92592 0.21864 0.60729 0.0
C243 C 0.96133 0.25936 0.59352 0.0
O244 O 0.92136 0.20632 0.54554 0.0
O245 O 0.91712 0.22902 0.55819 0.0
O246 O 0.89995 0.1921 0.63084 0.0
C247 C 0.91539 0.21693 0.53648 0.0
O248 O 0.96602 0.25046 0.57336 0.0
C249 C 0.89218 0.20047 0.6426 0.0
O250 O 0.94709 0.25115 0.61245 0.0
O251 O 0.9006 0.21768 0.63941 0.0
C252 C 0.24357 0.21303 0.14282 0.0
O253 O 0.23902 0.21528 0.11223 0.0
Cd254 Cd 0.2607 0.22404 0.06336 0.0
O255 O 0.25893 0.2143 0.14745 0.0
Cd256 Cd 0.28485 0.22041 0.11004 0.0
C257 C 0.2948 0.26293 0.09669 0.0
O258 O 0.27955 0.21116 0.04653 0.0
O259 O 0.30586 0.23305 0.06412 0.0
O260 O 0.28253 0.19192 0.12431 0.0
C261 C 0.2964 0.22208 0.03996 0.0
O262 O 0.28255 0.25539 0.07327 0.0
C263 C 0.29729 0.19851 0.1415 0.0
O264 O 0.29787 0.25336 0.11855 0.0
O265 O 0.30609 0.21566 0.14587 0.0
C266 C 0.78126 0.0309 0.14811 0.0
O267 O 0.78214 0.02505 0.11785 0.0
Cd268 Cd 0.76806 0.03364 0.071 0.0
O269 O 0.77642 0.04275 0.15059 0.0
Cd270 Cd 0.76977 0.06119 0.11022 0.0
C271 C 0.72862 0.02578 0.10752 0.0
O272 O 0.77747 0.06356 0.04591 0.0
O273 O 0.75544 0.06767 0.06452 0.0
O274 O 0.79814 0.08812 0.12195 0.0
C275 C 0.76612 0.06903 0.03986 0.0
O276 O 0.7364 0.02017 0.08644 0.0
C277 C 0.79138 0.09635 0.13838 0.0
O278 O 0.73774 0.04094 0.12333 0.0
O279 O 0.77427 0.08776 0.14338 0.0
C280 C 0.95842 0.74582 0.14509 0.0
O281 O 0.96368 0.75305 0.11498 0.0
Cd282 Cd 0.95252 0.73299 0.0636 0.0
O283 O 0.94598 0.72932 0.14714 0.0
Cd284 Cd 0.92594 0.70518 0.10602 0.0
C285 C 0.96084 0.69955 0.08728 0.0
O286 O 0.92094 0.71411 0.04567 0.0
O287 O 0.91661 0.6869 0.05562 0.0
O288 O 0.89998 0.70518 0.13135 0.0
C289 C 0.91484 0.69771 0.03524 0.0
O290 O 0.9653 0.71332 0.06781 0.0
C291 C 0.89232 0.68884 0.14195 0.0
O292 O 0.94708 0.6936 0.10756 0.0
O293 O 0.90088 0.68025 0.13758 0.0
C294 C 0.54261 0.91326 0.0308 0.0
O295 O 0.54048 0.9064 0.06131 0.0
Cd296 Cd 0.55096 0.92774 0.11083 0.0
O297 O 0.54755 0.92997 0.02784 0.0
Cd298 Cd 0.55303 0.95521 0.06693 0.0
C299 C 0.59303 0.95953 0.08506 0.0
O300 O 0.53943 0.94783 0.1277 0.0
O301 O 0.56262 0.97454 0.11583 0.0
O302 O 0.52724 0.95494 0.04073 0.0
C303 C 0.55007 0.96437 0.1369 0.0
O304 O 0.58351 0.94616 0.1053 0.0
C305 C 0.53591 0.971 0.02867 0.0
O306 O 0.58547 0.96567 0.06457 0.0
O307 O 0.55306 0.97967 0.03294 0.0
C308 C 0.07805 0.62876 0.03178 0.0
O309 O 0.08453 0.6346 0.06219 0.0
Cd310 Cd 0.06163 0.62576 0.10851 0.0
O311 O 0.06147 0.61666 0.02891 0.0
Cd312 Cd 0.03621 0.5977 0.06874 0.0
C313 C 0.02971 0.63256 0.06929 0.0
O314 O 0.04112 0.59584 0.13335 0.0
O315 O 0.01557 0.59282 0.11426 0.0
O316 O 0.03804 0.5708 0.05866 0.0
C317 C 0.02455 0.59134 0.13945 0.0
O318 O 0.0429 0.63838 0.0909 0.0
C319 C 0.02317 0.5623 0.04192 0.0
O320 O 0.024 0.61738 0.05371 0.0
O321 O 0.01448 0.57066 0.03618 0.0
C322 C 0.36019 0.4477 0.03542 0.0
O323 O 0.35383 0.44746 0.06578 0.0
Cd324 Cd 0.36592 0.43843 0.11587 0.0
O325 O 0.37377 0.4454 0.03267 0.0
Cd326 Cd 0.39416 0.44158 0.07268 0.0
C327 C 0.36202 0.39908 0.08742 0.0
O328 O 0.39731 0.45212 0.13539 0.0
O329 O 0.40389 0.43123 0.1202 0.0
O330 O 0.41971 0.47018 0.05613 0.0
C331 C 0.40438 0.44228 0.14319 0.0
O332 O 0.35647 0.4068 0.10877 0.0
C333 C 0.42828 0.46353 0.04054 0.0
O334 O 0.37523 0.4085 0.06661 0.0
O335 O 0.4204 0.44629 0.03804 0.0
C336 C 0.74687 0.78352 0.86396 0.0
O337 O 0.75339 0.78495 0.89462 0.0
Cd338 Cd 0.73122 0.77194 0.9428 0.0
O339 O 0.73008 0.77804 0.86058 0.0
Cd340 Cd 0.70444 0.77035 0.89978 0.0
C341 C 0.70169 0.73069 0.90917 0.0
O342 O 0.70849 0.77935 0.96369 0.0
O343 O 0.68479 0.75439 0.94585 0.0
O344 O 0.70378 0.79705 0.88173 0.0
C345 C 0.69262 0.7659 0.97025 0.0
O346 O 0.71395 0.73965 0.93195 0.0
C347 C 0.688 0.78867 0.86833 0.0
O348 O 0.696 0.73874 0.88886 0.0
O349 O 0.67991 0.77138 0.86813 0.0
C350 C 0.20876 0.96311 0.86737 0.0
O351 O 0.20892 0.96963 0.89749 0.0
Cd352 Cd 0.22104 0.95974 0.94545 0.0
O353 O 0.2119 0.95003 0.86495 0.0
Cd354 Cd 0.21664 0.93018 0.9055 0.0
C355 C 0.25932 0.96302 0.91162 0.0
O356 O 0.20807 0.92907 0.96914 0.0
O357 O 0.22839 0.92189 0.95308 0.0
O358 O 0.18796 0.90355 0.89257 0.0
C359 C 0.21807 0.92219 0.97683 0.0
O360 O 0.2524 0.97014 0.93112 0.0
C361 C 0.19468 0.89526 0.87618 0.0
O362 O 0.24937 0.9479 0.89622 0.0
O363 O 0.21182 0.90367 0.87184 0.0
C364 C 0.027 0.24343 0.86975 0.0
O365 O 0.02118 0.23715 0.90029 0.0
Cd366 Cd 0.03311 0.25818 0.95048 0.0
O367 O 0.04001 0.2596 0.86663 0.0
Cd368 Cd 0.05986 0.28445 0.90619 0.0
C369 C 0.02564 0.29147 0.92274 0.0
O370 O 0.0648 0.27693 0.96779 0.0
O371 O 0.06923 0.30389 0.95495 0.0
O372 O 0.08572 0.28377 0.88216 0.0
C373 C 0.07106 0.29358 0.9766 0.0
O374 O 0.02144 0.27873 0.94486 0.0
C375 C 0.09346 0.29991 0.87044 0.0
O376 O 0.03865 0.29587 0.90109 0.0
O377 O 0.08499 0.30865 0.8736 0.0
C378 C 0.44478 0.08021 0.98165 0.0
O379 O 0.44451 0.08637 0.95138 0.0
Cd380 Cd 0.4307 0.06327 0.90564 0.0
O381 O 0.44134 0.06392 0.98448 0.0
Cd382 Cd 0.43609 0.03906 0.94413 0.0
C383 C 0.39363 0.0292 0.94535 0.0
O384 O 0.44198 0.04459 0.8793 0.0
O385 O 0.42072 0.01838 0.89858 0.0
O386 O 0.46536 0.04155 0.95246 0.0
C387 C 0.43058 0.02782 0.87315 0.0
O388 O 0.3999 0.04282 0.92478 0.0
C389 C 0.45939 0.02675 0.96931 0.0
O390 O 0.40403 0.02417 0.95926 0.0
O391 O 0.44245 0.01792 0.97585 0.0
C392 C 0.91155 0.3646 0.98144 0.0
O393 O 0.90509 0.35922 0.95083 0.0
Cd394 Cd 0.92687 0.36997 0.90181 0.0
O395 O 0.92806 0.37683 0.98465 0.0
Cd396 Cd 0.9533 0.39623 0.94549 0.0
C397 C 0.95874 0.36094 0.93298 0.0
O398 O 0.94724 0.40111 0.88277 0.0
O399 O 0.97298 0.40318 0.89744 0.0
O400 O 0.95248 0.42236 0.96705 0.0
C401 C 0.96365 0.40578 0.87458 0.0
O402 O 0.94618 0.357 0.91053 0.0
C403 C 0.9684 0.43019 0.97988 0.0
O404 O 0.96368 0.37439 0.95379 0.0
O405 O 0.97724 0.42176 0.9781 0.0
C406 C 0.62427 0.5433 0.98164 0.0
O407 O 0.62906 0.5413 0.95108 0.0
Cd408 Cd 0.61858 0.55232 0.90147 0.0
O409 O 0.61286 0.54868 0.98467 0.0
Cd410 Cd 0.59434 0.55551 0.94528 0.0
C411 C 0.63088 0.59474 0.92822 0.0
O412 O 0.58746 0.54285 0.88383 0.0
O413 O 0.58753 0.56788 0.8967 0.0
O414 O 0.568 0.5298 0.96926 0.0
C415 C 0.58345 0.55502 0.87513 0.0
O416 O 0.63357 0.58498 0.90635 0.0
C417 C 0.56073 0.53864 0.98105 0.0
O418 O 0.61785 0.58746 0.9503 0.0
O419 O 0.56966 0.55586 0.97783 0.0
C420 C 0.90679 0.54299 0.48133 0.0
O421 O 0.9003 0.54243 0.45096 0.0
Cd422 Cd 0.923 0.55591 0.40411 0.0
O423 O 0.92329 0.54716 0.4841 0.0
Cd424 Cd 0.9484 0.5531 0.44423 0.0
C425 C 0.95524 0.59462 0.44255 0.0
O426 O 0.94339 0.54621 0.37962 0.0
O427 O 0.96907 0.56854 0.39872 0.0
O428 O 0.94675 0.52447 0.45482 0.0
C429 C 0.96001 0.55815 0.37352 0.0
O430 O 0.94204 0.58729 0.42098 0.0
C431 C 0.96159 0.53098 0.47172 0.0
O432 O 0.96078 0.58509 0.45846 0.0
O433 O 0.97016 0.54804 0.47725 0.0
C434 C 0.44427 0.36327 0.47497 0.0
O435 O 0.44392 0.35726 0.44421 0.0
Cd436 Cd 0.43375 0.36941 0.39607 0.0
O437 O 0.44154 0.37653 0.47882 0.0
Cd438 Cd 0.43678 0.39695 0.44066 0.0
C439 C 0.39441 0.36438 0.42758 0.0
O440 O 0.4467 0.4009 0.37745 0.0
O441 O 0.42554 0.40668 0.39454 0.0
O442 O 0.46539 0.42247 0.4569 0.0
C443 C 0.43653 0.40772 0.37084 0.0
O444 O 0.40207 0.35921 0.40529 0.0
C445 C 0.45882 0.43081 0.4736 0.0
O446 O 0.4039 0.37758 0.44838 0.0
O447 O 0.44161 0.42282 0.47678 0.0
C448 C 0.62575 0.07681 0.4731 0.0
O449 O 0.63184 0.08277 0.44252 0.0
Cd450 Cd 0.61946 0.06168 0.39249 0.0
O451 O 0.61237 0.06085 0.47645 0.0
Cd452 Cd 0.59201 0.03577 0.43782 0.0
C453 C 0.62541 0.02741 0.42059 0.0
O454 O 0.58751 0.04398 0.37649 0.0
O455 O 0.58154 0.01645 0.38879 0.0
O456 O 0.56673 0.03731 0.4625 0.0
C457 C 0.58053 0.0273 0.36728 0.0
O458 O 0.62996 0.04018 0.39838 0.0
C459 C 0.55879 0.02129 0.47486 0.0
O460 O 0.61255 0.02347 0.44238 0.0
O461 O 0.56685 0.01215 0.47151 0.0
C462 C 0.20998 0.24341 0.37239 0.0
O463 O 0.21286 0.23916 0.40277 0.0
Cd464 Cd 0.22003 0.2599 0.45286 0.0
O465 O 0.21009 0.25826 0.36811 0.0
Cd466 Cd 0.21524 0.28381 0.40585 0.0
C467 C 0.25828 0.29552 0.42185 0.0
O468 O 0.20487 0.27673 0.46861 0.0
O469 O 0.22504 0.30429 0.45294 0.0
O470 O 0.18691 0.28136 0.38904 0.0
C471 C 0.21425 0.29367 0.47615 0.0
O472 O 0.25106 0.28308 0.44498 0.0
C473 C 0.19383 0.29631 0.37247 0.0
O474 O 0.24846 0.29805 0.39968 0.0
O475 O 0.21106 0.30519 0.3695 0.0
C476 C 0.74832 0.96367 0.37225 0.0
O477 O 0.7537 0.97013 0.40287 0.0
Cd478 Cd 0.73147 0.95824 0.45107 0.0
O479 O 0.73249 0.95016 0.36839 0.0
Cd480 Cd 0.70684 0.92994 0.40577 0.0
C481 C 0.69726 0.96289 0.41734 0.0
O482 O 0.71318 0.92666 0.46909 0.0
O483 O 0.68604 0.92032 0.45237 0.0
O484 O 0.70916 0.90389 0.3894 0.0
C485 C 0.69625 0.91979 0.47612 0.0
O486 O 0.70986 0.96815 0.44016 0.0
C487 C 0.69431 0.896 0.37241 0.0
O488 O 0.6937 0.94958 0.39697 0.0
O489 O 0.68551 0.90441 0.36934 0.0
C490 C 0.02958 0.77974 0.3675 0.0
O491 O 0.02479 0.78198 0.39789 0.0
Cd492 Cd 0.03599 0.7723 0.4481 0.0
O493 O 0.04162 0.77514 0.36482 0.0
Cd494 Cd 0.06171 0.77049 0.40473 0.0
C495 C 0.02636 0.73031 0.42302 0.0
O496 O 0.06755 0.78408 0.4655 0.0
O497 O 0.07128 0.76096 0.45395 0.0
O498 O 0.0873 0.79655 0.37922 0.0
C499 C 0.0735 0.7735 0.47493 0.0
O500 O 0.02234 0.73981 0.44298 0.0
C501 C 0.09494 0.78803 0.36755 0.0
O502 O 0.04008 0.7379 0.4026 0.0
O503 O 0.08653 0.77086 0.37154 0.0
H504 H 0.33231 0.95052 0.25832 0.0
H505 H 0.28398 0.95037 0.29415 0.0
H506 H 0.34843 0.98353 0.25583 0.0
H507 H 0.30025 0.98364 0.29164 0.0
H508 H 0.3295 0.0396 0.23326 0.0
H509 H 0.31329 0.00659 0.24071 0.0
H510 H 0.35943 0.0104 0.29618 0.0
H511 H 0.37564 0.04322 0.28873 0.0
C512 C 0.32522 0.95758 0.26616 0.0
C513 C 0.30689 0.9479 0.27635 0.0
C514 C 0.33446 0.97647 0.26478 0.0
C515 C 0.32552 0.98607 0.27325 0.0
C516 C 0.30736 0.97648 0.28459 0.0
C517 C 0.29814 0.95751 0.2864 0.0
C518 C 0.33622 0.03336 0.24677 0.0
C519 C 0.35386 0.04399 0.26029 0.0
C520 C 0.32687 0.01453 0.25139 0.0
C521 C 0.3351 0.00602 0.26924 0.0
C522 C 0.35281 0.01662 0.28225 0.0
C523 C 0.36207 0.03541 0.27795 0.0
H524 H 0.03939 0.36438 0.20587 0.0
H525 H 0.03863 0.34248 0.30916 0.0
H526 H 0.00634 0.34752 0.20448 0.0
H527 H 0.00539 0.32568 0.30768 0.0
H528 H 0.94745 0.31866 0.30473 0.0
H529 H 0.9805 0.33482 0.30613 0.0
H530 H 0.98145 0.31351 0.20335 0.0
H531 H 0.94821 0.29711 0.20186 0.0
C532 C 0.03217 0.35604 0.22837 0.0
C533 C 0.0416 0.35478 0.25772 0.0
C534 C 0.01327 0.3463 0.22738 0.0
C535 C 0.00342 0.33531 0.25588 0.0
C536 C 0.01276 0.33416 0.28543 0.0
C537 C 0.03172 0.34372 0.28624 0.0
C538 C 0.95467 0.31744 0.28232 0.0
C539 C 0.94524 0.30666 0.25309 0.0
C540 C 0.97357 0.32658 0.28333 0.0
C541 C 0.98341 0.32531 0.25494 0.0
C542 C 0.97408 0.31471 0.2255 0.0
C543 C 0.95511 0.30533 0.22469 0.0
H544 H 0.67076 0.62567 0.30562 0.0
H545 H 0.69231 0.64805 0.20283 0.0
H546 H 0.65537 0.64327 0.30802 0.0
H547 H 0.67658 0.66562 0.20529 0.0
H548 H 0.6252 0.67247 0.20994 0.0
H549 H 0.64245 0.65668 0.20722 0.0
H550 H 0.66489 0.67742 0.31015 0.0
H551 H 0.6477 0.69349 0.31294 0.0
C552 C 0.67216 0.63429 0.28343 0.0
C553 C 0.68267 0.63541 0.25389 0.0
C554 C 0.66347 0.64448 0.28503 0.0
C555 C 0.66489 0.6558 0.25695 0.0
C556 C 0.67529 0.65691 0.22725 0.0
C557 C 0.68426 0.6469 0.22586 0.0
C558 C 0.63375 0.67364 0.23211 0.0
C559 C 0.63501 0.68412 0.26182 0.0
C560 C 0.64375 0.66475 0.23031 0.0
C561 C 0.65501 0.66595 0.25837 0.0
C562 C 0.65623 0.6763 0.28821 0.0
C563 C 0.64643 0.68546 0.28981 0.0
H564 H 0.65917 0.94994 0.78865 0.0
H565 H 0.61168 0.94843 0.74381 0.0
H566 H 0.67567 0.98317 0.78424 0.0
H567 H 0.62811 0.98132 0.73921 0.0
H568 H 0.65698 0.04064 0.7734 0.0
H569 H 0.64121 0.00783 0.77954 0.0
H570 H 0.68719 0.00658 0.73423 0.0
H571 H 0.70323 0.03972 0.7283 0.0
C572 C 0.65222 0.9567 0.7783 0.0
C573 C 0.63416 0.94662 0.76659 0.0
C574 C 0.6617 0.97564 0.7754 0.0
C575 C 0.65317 0.98474 0.76119 0.0
C576 C 0.63498 0.97466 0.75044 0.0
C577 C 0.6256 0.95582 0.75303 0.0
C578 C 0.66373 0.03341 0.7645 0.0
C579 C 0.68134 0.04276 0.75028 0.0
C580 C 0.65467 0.01461 0.76801 0.0
C581 C 0.66303 0.00472 0.75752 0.0
C582 C 0.68056 0.01397 0.7429 0.0
C583 C 0.68962 0.03286 0.73912 0.0
H584 H 0.03939 0.6946 0.80899 0.0
H585 H 0.04049 0.67353 0.70582 0.0
H586 H 0.00616 0.67837 0.80693 0.0
H587 H 0.00743 0.65754 0.70383 0.0
H588 H 0.94937 0.65034 0.70049 0.0
H589 H 0.98261 0.6668 0.70223 0.0
H590 H 0.98115 0.64446 0.80514 0.0
H591 H 0.94811 0.62793 0.80348 0.0
C592 C 0.03256 0.68652 0.78597 0.0
C593 C 0.04253 0.68528 0.75766 0.0
C594 C 0.0136 0.67724 0.78483 0.0
C595 C 0.00435 0.66681 0.75515 0.0
C596 C 0.01429 0.66564 0.72683 0.0
C597 C 0.03319 0.67468 0.72816 0.0
C598 C 0.95616 0.64891 0.72339 0.0
C599 C 0.94614 0.63781 0.75177 0.0
C600 C 0.97513 0.65828 0.72434 0.0
C601 C 0.98433 0.65691 0.75391 0.0
C602 C 0.97433 0.64585 0.78223 0.0
C603 C 0.95543 0.6363 0.78109 0.0
H604 H 0.36374 0.3191 0.79759 0.0
H605 H 0.33968 0.29629 0.69642 0.0
H606 H 0.34584 0.33415 0.80097 0.0
H607 H 0.32185 0.31171 0.69983 0.0
H608 H 0.31466 0.36303 0.70529 0.0
H609 H 0.33058 0.34595 0.70141 0.0
H610 H 0.31127 0.32379 0.80509 0.0
H611 H 0.295 0.34078 0.80902 0.0
C612 C 0.35472 0.31739 0.77592 0.0
C613 C 0.35318 0.30658 0.74658 0.0
C614 C 0.34435 0.32587 0.77811 0.0
C615 C 0.33244 0.32395 0.75081 0.0
C616 C 0.33099 0.31336 0.72122 0.0
C617 C 0.34117 0.30458 0.71926 0.0
C618 C 0.31379 0.35454 0.72736 0.0
C619 C 0.30368 0.35333 0.75763 0.0
C620 C 0.32277 0.34466 0.72491 0.0
C621 C 0.32205 0.33357 0.75287 0.0
C622 C 0.31201 0.33232 0.78322 0.0
C623 C 0.30273 0.34201 0.78546 0.0
H624 H -0.00581 0.37147 0.55072 0.0
H625 H 0.04223 0.37392 0.59502 0.0
H626 H 0.97802 0.33835 0.55617 0.0
H627 H 0.02607 0.34096 0.60042 0.0
H628 H -0.00448 0.28054 0.56808 0.0
H629 H 0.01196 0.31341 0.56089 0.0
H630 H 0.96739 0.31633 0.60871 0.0
H631 H 0.9508 0.28331 0.61594 0.0
C632 C 0.00136 0.36493 0.56109 0.0
C633 C 0.01945 0.37525 0.5725 0.0
C634 C 0.99206 0.34604 0.56456 0.0
C635 C 0.00079 0.3372 0.57901 0.0
C636 C 0.01906 0.34747 0.58912 0.0
C637 C 0.02828 0.36631 0.58606 0.0
C638 C 0.98927 0.28818 0.57733 0.0
C639 C 0.97187 0.27936 0.59259 0.0
C640 C -0.00131 0.30698 0.57322 0.0
C641 C 0.99085 0.31732 0.58398 0.0
C642 C 0.9736 0.30858 0.59978 0.0
C643 C 0.96422 0.28975 0.60427 0.0
H644 H 0.61842 0.62299 0.55932 0.0
H645 H 0.61463 0.66614 0.6118 0.0
H646 H 0.65145 0.64008 0.56628 0.0
H647 H 0.64749 0.68305 0.61877 0.0
H648 H 0.70759 0.71534 0.58288 0.0
H649 H 0.67461 0.69845 0.57889 0.0
H650 H 0.67406 0.65043 0.61782 0.0
H651 H 0.70726 0.66738 0.62181 0.0
C652 C 0.62464 0.63617 0.57197 0.0
C653 C 0.61395 0.64324 0.58495 0.0
C654 C 0.64348 0.64582 0.57633 0.0
C655 C 0.65193 0.66278 0.59332 0.0
C656 C 0.64129 0.67003 0.6055 0.0
C657 C 0.62249 0.66033 0.60149 0.0
C658 C 0.70044 0.70124 0.59102 0.0
C659 C 0.70998 0.69265 0.6026 0.0
C660 C 0.68157 0.69159 0.58878 0.0
C661 C 0.67186 0.67313 0.59775 0.0
C662 C 0.6813 0.66463 0.61034 0.0
C663 C 0.70024 0.67436 0.613 0.0
H664 H 0.27659 0.99406 0.55591 0.0
H665 H 0.32304 0.03612 0.61145 0.0
H666 H 0.29275 0.97748 0.54686 0.0
H667 H 0.33918 0.01935 0.60242 0.0
H668 H 0.36847 0.99321 0.54708 0.0
H669 H 0.35201 0.00997 0.55062 0.0
H670 H 0.30402 0.96126 0.58536 0.0
H671 H 0.32033 0.94455 0.5818 0.0
C672 C 0.29022 -0.00028 0.56638 0.0
C673 C 0.29854 0.01638 0.58449 0.0
C674 C 0.29944 0.99021 0.56116 0.0
C675 C 0.31723 -0.00278 0.5737 0.0
C676 C 0.32554 0.0138 0.59206 0.0
C677 C 0.31624 0.02326 0.59759 0.0
C678 C 0.35431 0.98603 0.55475 0.0
C679 C 0.34568 0.96761 0.56426 0.0
C680 C 0.34498 0.99565 0.55717 0.0
C681 C 0.32683 0.98692 0.56862 0.0
C682 C 0.31798 0.9683 0.57637 0.0
C683 C 0.32733 0.95876 0.57437 0.0
H684 H 0.34068 0.37668 0.13953 0.0
H685 H 0.36454 0.37644 0.03901 0.0
H686 H 0.32646 0.34381 0.14267 0.0
H687 H 0.35009 0.34328 0.04226 0.0
H688 H 0.29851 0.28542 0.04276 0.0
H689 H 0.31669 0.3183 0.04083 0.0
H690 H 0.3351 0.31883 0.14712 0.0
H691 H 0.31683 0.28555 0.14915 0.0
C692 C 0.3429 0.36961 0.11806 0.0
C693 C 0.35358 0.37913 0.08879 0.0
C694 C 0.33491 0.3508 0.12014 0.0
C695 C 0.33726 0.34108 0.09282 0.0
C696 C 0.34807 0.35054 0.06365 0.0
C697 C 0.3563 0.36945 0.06177 0.0
C698 C 0.30642 0.29248 0.06581 0.0
C699 C 0.30611 0.28291 0.09631 0.0
C700 C 0.31699 0.3113 0.06448 0.0
C701 C 0.32732 0.32103 0.09372 0.0
C702 C 0.32718 0.31156 0.12423 0.0
C703 C 0.31677 0.29258 0.1254 0.0
H704 H 0.61308 0.94648 0.11599 0.0
H705 H 0.61801 0.99331 0.06104 0.0
H706 H 0.64578 0.96239 0.12545 0.0
H707 H 0.65087 0.00919 0.07048 0.0
H708 H 0.70573 0.03801 0.12783 0.0
H709 H 0.67258 0.02163 0.12307 0.0
H710 H 0.67357 0.97384 0.08762 0.0
H711 H 0.70654 0.99007 0.0924 0.0
C712 C 0.62116 0.96013 0.10571 0.0
C713 C 0.61299 0.96865 0.08771 0.0
C714 C 0.63987 0.96921 0.11115 0.0
C715 C 0.65077 0.98704 0.09896 0.0
C716 C 0.64268 0.99552 0.08058 0.0
C717 C 0.62394 0.98636 0.07482 0.0
C718 C 0.69882 0.0239 0.1197 0.0
C719 C 0.70868 0.01532 0.11035 0.0
C720 C 0.67991 0.01462 0.1166 0.0
C721 C 0.6706 -0.00343 0.10461 0.0
C722 C 0.68042 0.98774 0.097 0.0
C723 C 0.69928 -0.00295 0.09969 0.0
H724 H 0.99362 0.71177 0.0556 0.0
H725 H 0.95144 0.66558 0.11146 0.0
H726 H 0.01004 0.69546 0.0468 0.0
H727 H 0.96809 0.64928 0.10273 0.0
H728 H -0.00543 0.61989 0.04854 0.0
H729 H 0.97763 0.63619 0.05163 0.0
H730 H 0.02621 0.6845 0.08587 0.0
H731 H 0.04308 0.66836 0.08271 0.0
C732 C 0.98789 0.69816 0.06616 0.0
C733 C 0.97125 0.68997 0.08434 0.0
C734 C -0.00269 0.68885 0.0611 0.0
C735 C 0.99026 0.67111 0.0739 0.0
C736 C 0.97367 0.66288 0.0922 0.0
C737 C 0.96428 0.67228 0.09754 0.0
C738 C 0.00167 0.63408 0.05602 0.0
C739 C 0.02011 0.64286 0.06547 0.0
C740 C 0.99195 0.64333 0.05818 0.0
C741 C 0.00061 0.66152 0.0693 0.0
C742 C 0.01923 0.6705 0.07709 0.0
C743 C 0.02886 0.66124 0.07533 0.0
H744 H 0.63511 0.62018 0.9774 0.0
H745 H 0.65197 0.61429 0.87303 0.0
H746 H 0.6531 0.65327 0.9714 0.0
H747 H 0.66962 0.64722 0.86707 0.0
H748 H 0.67813 0.70653 0.8604 0.0
H749 H 0.66138 0.67332 0.86493 0.0
H750 H 0.68793 0.67665 0.96388 0.0
H751 H 0.70481 0.70959 0.95937 0.0
C752 C 0.64267 0.62593 0.95331 0.0
C753 C 0.6422 0.61466 0.92579 0.0
C754 C 0.65295 0.6448 0.94991 0.0
C755 C 0.66263 0.65266 0.91872 0.0
C756 C 0.66215 0.64143 0.89123 0.0
C757 C 0.65216 0.62261 0.89484 0.0
C758 C 0.68054 0.70015 0.88287 0.0
C759 C 0.69279 0.71068 0.90948 0.0
C760 C 0.67097 0.6812 0.88545 0.0
C761 C 0.67331 0.67257 0.91493 0.0
C762 C 0.68577 0.68305 0.94112 0.0
C763 C 0.69552 0.7019 0.93831 0.0
H764 H 0.37358 0.99342 0.93065 0.0
H765 H 0.36959 0.03986 0.96343 0.0
H766 H 0.34102 0.97652 0.91943 0.0
H767 H 0.33681 0.02267 0.95535 0.0
H768 H 0.28385 -0.00165 0.89998 0.0
H769 H 0.31645 0.01335 0.91001 0.0
H770 H 0.31137 0.96157 0.93779 0.0
H771 H 0.27899 0.9466 0.92467 0.0
C772 C 0.36551 -0.00031 0.93687 0.0
C773 C 0.37389 0.01781 0.94802 0.0
C774 C 0.34684 0.99006 0.93035 0.0
C775 C 0.33619 -0.00171 0.93569 0.0
C776 C 0.34458 0.01605 0.94955 0.0
C777 C 0.3633 0.02583 0.95495 0.0
C778 C 0.28991 0.99022 0.90728 0.0
C779 C 0.27912 0.9714 0.91122 0.0
C780 C 0.30852 -0.0012 0.91377 0.0
C781 C 0.31662 0.9888 0.92572 0.0
C782 C 0.30577 0.96978 0.9284 0.0
C783 C 0.28721 0.96114 0.92079 0.0
H784 H 0.00467 0.29215 0.97612 0.0
H785 H 0.02474 0.3141 0.87239 0.0
H786 H 0.98893 0.30945 0.97929 0.0
H787 H 0.00873 0.33132 0.87563 0.0
H788 H 0.95782 0.33826 0.88154 0.0
H789 H 0.97458 0.32199 0.87902 0.0
H790 H -0.00173 0.34372 0.98072 0.0
H791 H 0.98157 0.3603 0.9833 0.0
C792 C 0.00566 0.3006 0.95391 0.0
C793 C 0.01587 0.30171 0.92388 0.0
C794 C -0.00323 0.3106 0.95593 0.0
C795 C -0.0023 0.32169 0.92777 0.0
C796 C 0.0078 0.32277 0.89762 0.0
C797 C 0.01695 0.31296 0.8958 0.0
C798 C 0.96652 0.33954 0.90351 0.0
C799 C 0.96834 0.35052 0.93273 0.0
C800 C 0.97622 0.33035 0.90184 0.0
C801 C 0.98774 0.33173 0.92955 0.0
C802 C 0.98941 0.34246 0.95906 0.0
C803 C 0.97989 0.35192 0.96051 0.0
H804 H 0.03507 0.70522 0.39894 0.0
H805 H 0.9933 0.71036 0.45394 0.0
H806 H 0.01779 0.6723 0.4077 0.0
H807 H 0.97625 0.67765 0.46276 0.0
H808 H 0.94244 0.61743 0.42796 0.0
H809 H 0.95978 0.6504 0.42399 0.0
H810 H 0.00784 0.64994 0.45937 0.0
H811 H 0.99043 0.61674 0.46329 0.0
C812 C 0.02218 0.69933 0.41263 0.0
C813 C 0.01552 0.71035 0.42566 0.0
C814 C 0.01242 0.68055 0.418 0.0
C815 C -0.00422 0.67252 0.43613 0.0
C816 C 0.98901 0.68351 0.44861 0.0
C817 C -0.0012 0.70223 0.44354 0.0
C818 C 0.95664 0.62437 0.43542 0.0
C819 C 0.96511 0.61455 0.44586 0.0
C820 C 0.96655 0.64323 0.43318 0.0
C821 C 0.98516 0.65264 0.44105 0.0
C822 C 0.99354 0.64292 0.45273 0.0
C823 C 0.98354 0.62399 0.45537 0.0
H824 H 0.28048 0.31766 0.36921 0.0
H825 H 0.28099 0.30035 0.47616 0.0
H826 H 0.3137 0.33634 0.37078 0.0
H827 H 0.31387 0.31892 0.47761 0.0
H828 H 0.37215 0.36686 0.477 0.0
H829 H 0.33895 0.35215 0.47506 0.0
H830 H 0.33861 0.32784 0.37492 0.0
H831 H 0.37151 0.34231 0.37674 0.0
C832 C 0.28764 0.31794 0.39302 0.0
C833 C 0.27818 0.3074 0.42237 0.0
C834 C 0.30659 0.32858 0.39392 0.0
C835 C 0.31626 0.32905 0.42437 0.0
C836 C 0.30673 0.31895 0.45398 0.0
C837 C 0.28791 0.30817 0.45293 0.0
C838 C 0.36496 0.35839 0.45461 0.0
C839 C 0.37442 0.35561 0.42723 0.0
C840 C 0.34602 0.35002 0.45348 0.0
C841 C 0.33631 0.33899 0.42471 0.0
C842 C 0.3458 0.33648 0.39713 0.0
C843 C 0.36463 0.34462 0.39846 0.0
H844 H 0.67364 0.96091 0.3658 0.0
H845 H 0.69543 0.98461 0.46771 0.0
H846 H 0.65485 0.97535 0.36634 0.0
H847 H 0.67666 -0.00125 0.46819 0.0
H848 H 0.62608 0.00503 0.47177 0.0
H849 H 0.64245 0.98813 0.47008 0.0
H850 H 0.66205 0.00882 0.36567 0.0
H851 H 0.64591 0.02576 0.36728 0.0
C852 C 0.67441 0.96916 0.38823 0.0
C853 C 0.68608 0.97171 0.41658 0.0
C854 C 0.66369 0.97739 0.38852 0.0
C855 C 0.66427 0.98801 0.41744 0.0
C856 C 0.67581 0.99043 0.44582 0.0
C857 C 0.68668 0.98247 0.44531 0.0
C858 C 0.63383 0.0059 0.44846 0.0
C859 C 0.63485 0.01683 0.41983 0.0
C860 C 0.64319 -0.00373 0.44751 0.0
C861 C 0.65344 -0.0028 0.4177 0.0
C862 C 0.65409 0.00777 0.38879 0.0
C863 C 0.64499 0.01758 0.38992 0.0
H864 H 0.32519 0.10493 0.52838 0.0
H865 H 0.27885 0.06586 0.46878 0.0
H866 H 0.34198 0.11788 0.47407 0.0
H867 H 0.29585 0.0782 0.4141 0.0
H868 H 0.32713 0.1052 0.31811 0.0
H869 H 0.31028 0.10153 0.37224 0.0
H870 H 0.35661 0.10888 0.43278 0.0
H871 H 0.37368 0.11338 0.37824 0.0
C872 C 0.31849 0.09936 0.50343 0.0
C873 C 0.30075 0.08442 0.50261 0.0
C874 C 0.32819 0.10664 0.47232 0.0
C875 C 0.32049 0.09892 0.43959 0.0
C876 C 0.30223 0.08466 0.43873 0.0
C877 C 0.29241 0.07755 0.47001 0.0
C878 C 0.33385 0.10653 0.34312 0.0
C879 C 0.35167 0.10953 0.34414 0.0
C880 C 0.32412 0.10422 0.37414 0.0
C881 C 0.33187 0.10452 0.407 0.0
C882 C 0.35018 0.10871 0.40804 0.0
C883 C 0.36004 0.11131 0.37684 0.0
H884 H 0.9253 0.21247 0.47005 0.0
H885 H 0.88529 0.2194 0.52703 0.0
H886 H 0.91402 0.21776 0.4146 0.0
H887 H 0.87333 0.22376 0.47194 0.0
H888 H 0.8768 0.25864 0.37529 0.0
H889 H 0.88189 0.24691 0.43038 0.0
H890 H 0.89164 0.20906 0.37132 0.0
H891 H 0.88744 0.22147 0.31669 0.0
C892 C 0.91366 0.21446 0.47052 0.0
C893 C 0.9062 0.21559 0.50268 0.0
C894 C 0.90715 0.21753 0.43878 0.0
C895 C 0.89286 0.22151 0.43863 0.0
C896 C 0.88463 0.22128 0.47089 0.0
C897 C 0.89134 0.21854 0.50248 0.0
C898 C 0.87961 0.24754 0.37432 0.0
C899 C 0.88183 0.24103 0.34186 0.0
C900 C 0.88255 0.24076 0.40586 0.0
C901 C 0.88748 0.22714 0.40548 0.0
C902 C 0.8884 0.21985 0.37282 0.0
C903 C 0.88578 0.22683 0.34147 0.0
H904 H 0.76248 0.66284 0.5291 0.0
H905 H 0.77437 0.71019 0.46761 0.0
H906 H 0.75778 0.64536 0.47556 0.0
H907 H 0.76875 0.69248 0.41354 0.0
H908 H 0.76618 0.66009 0.31938 0.0
H909 H 0.77744 0.67716 0.37393 0.0
H910 H 0.73578 0.63145 0.43181 0.0
H911 H 0.7252 0.61412 0.377 0.0
C912 C 0.76418 0.66953 0.50394 0.0
C913 C 0.7687 0.68785 0.50243 0.0
C914 C 0.76131 0.65945 0.47319 0.0
C915 C 0.76255 0.66731 0.44002 0.0
C916 C 0.76785 0.68593 0.43852 0.0
C917 C 0.77105 0.69615 0.46946 0.0
C918 C 0.75974 0.65357 0.34397 0.0
C919 C 0.74484 0.6358 0.3441 0.0
C920 C 0.76605 0.66344 0.37522 0.0
C921 C 0.75737 0.65592 0.4074 0.0
C922 C 0.74299 0.63772 0.40768 0.0
C923 C 0.73688 0.6277 0.37631 0.0
H924 H 0.09955 0.3273 0.19554 0.0
H925 H 0.11008 0.37468 0.13562 0.0
H926 H 0.09538 0.31035 0.14136 0.0
H927 H 0.10504 0.35752 0.08097 0.0
H928 H 0.10144 0.32594 0.98528 0.0
H929 H 0.11362 0.34258 0.04001 0.0
H930 H 0.07281 0.29648 0.09835 0.0
H931 H 0.06128 0.27959 0.04328 0.0
C932 C 0.10121 0.33415 0.17057 0.0
C933 C 0.10511 0.35228 0.16966 0.0
C934 C 0.09861 0.32436 0.13949 0.0
C935 C 0.0995 0.33235 0.1066 0.0
C936 C 0.1044 0.35088 0.1057 0.0
C937 C 0.10732 0.36079 0.13698 0.0
C938 C 0.09542 0.31922 0.00998 0.0
C939 C 0.08044 0.30149 0.01018 0.0
C940 C 0.10225 0.32885 0.04135 0.0
C941 C 0.09404 0.32111 0.07376 0.0
C942 C 0.07966 0.3029 0.07404 0.0
C943 C 0.07301 0.29314 0.04252 0.0
H944 H 0.63074 0.76359 0.15951 0.0
H945 H 0.63982 0.71804 0.16462 0.0
H946 H 0.64712 0.7727 0.10266 0.0
H947 H 0.65582 0.72689 0.10858 0.0
H948 H 0.66334 0.7348 0.99151 0.0
H949 H 0.64616 0.72862 0.04544 0.0
H950 H 0.68206 0.78338 0.08112 0.0
H951 H 0.69966 0.78986 0.02589 0.0
C952 C 0.63581 0.75532 0.14801 0.0
C953 C 0.63378 0.73994 0.1659 0.0
C954 C 0.64542 0.76068 0.11597 0.0
C955 C 0.65279 0.75053 0.1014 0.0
C956 C 0.65023 0.73492 0.11907 0.0
C957 C 0.64096 0.72977 0.15099 0.0
C958 C 0.6677 0.74568 0.01059 0.0
C959 C 0.68301 0.76285 1.00438 0.0
C960 C 0.65776 0.74207 0.04156 0.0
C961 C 0.66274 0.7555 0.06741 0.0
C962 C 0.67786 0.77284 0.06135 0.0
C963 C 0.68803 0.77648 0.03006 0.0
H964 H 0.22706 0.89873 0.19776 0.0
H965 H 0.26054 0.88348 0.13793 0.0
H966 H 0.21501 0.90379 0.14363 0.0
H967 H 0.24916 0.88941 0.08324 0.0
H968 H 0.21938 0.89163 0.98856 0.0
H969 H 0.225 0.88097 0.04403 0.0
H970 H 0.22393 0.92519 0.09833 0.0
H971 H 0.21734 0.93521 0.04261 0.0
C972 C 0.23182 0.89642 0.17285 0.0
C973 C 0.24483 0.89081 0.17199 0.0
C974 C 0.225 0.89948 0.14176 0.0
C975 C 0.23124 0.89731 0.10886 0.0
C976 C 0.24382 0.89104 0.10801 0.0
C977 C 0.25043 0.88767 0.13931 0.0
C978 C 0.21993 0.8988 0.01258 0.0
C979 C 0.21793 0.91423 0.01143 0.0
C980 C 0.2234 0.89283 0.04434 0.0
C981 C 0.2253 0.90236 0.07576 0.0
C982 C 0.22239 0.91734 0.0748 0.0
C983 C 0.21859 0.92313 0.04293 0.0
H984 H 0.66292 0.89235 0.69582 0.0
H985 H 0.61502 0.8813 0.63709 0.0
H986 H 0.67975 0.89729 0.6413 0.0
H987 H 0.63208 0.88716 0.58211 0.0
H988 H 0.66335 0.89015 0.48581 0.0
H989 H 0.64681 0.87866 0.54078 0.0
H990 H 0.6933 0.91965 0.59805 0.0
H991 H 0.7101 0.93048 0.54274 0.0
C992 C 0.65596 0.89085 0.67105 0.0
C993 C 0.63768 0.88651 0.6706 0.0
C994 C 0.66568 0.89387 0.63976 0.0
C995 C 0.65748 0.89297 0.60711 0.0
C996 C 0.63888 0.8878 0.60664 0.0
C997 C 0.62904 0.88445 0.63811 0.0
C998 C 0.67014 0.89644 0.51031 0.0
C999 C 0.68799 0.91122 0.51012 0.0
C1000 C 0.66058 0.88998 0.54183 0.0
C1001 C 0.6685 0.89837 0.57402 0.0
C1002 C 0.68674 0.91266 0.57392 0.0
C1003 C 0.69645 0.91892 0.54226 0.0
H1004 H 0.06467 0.77952 0.54113 0.0
H1005 H 0.10329 0.77046 0.48406 0.0
H1006 H 0.07628 0.7748 0.5967 0.0
H1007 H 0.11561 0.76666 0.53922 0.0
H1008 H 0.11153 0.7324 0.6375 0.0
H1009 H 0.10676 0.74397 0.58192 0.0
H1010 H 0.09901 0.78357 0.63929 0.0
H1011 H 0.10286 0.77132 0.69448 0.0
C1012 C 0.07609 0.7772 0.54062 0.0
C1013 C 0.08304 0.77528 0.50845 0.0
C1014 C 0.0828 0.77446 0.57243 0.0
C1015 C 0.09678 0.77004 0.57261 0.0
C1016 C 0.10455 0.76952 0.54027 0.0
C1017 C 0.09764 0.77192 0.50862 0.0
C1018 C 0.10926 0.74386 0.63799 0.0
C1019 C 0.10747 0.75091 0.67014 0.0
C1020 C 0.10651 0.75055 0.60616 0.0
C1021 C 0.10219 0.7646 0.60595 0.0
C1022 C 0.10178 0.77245 0.63828 0.0
C1023 C 0.1042 0.76557 0.66993 0.0
H1024 H 0.21164 0.27969 0.54244 0.0
H1025 H 0.21579 0.32577 0.48649 0.0
H1026 H 0.21739 0.29631 0.59796 0.0
H1027 H 0.22068 0.34213 0.54171 0.0
H1028 H 0.25661 0.37433 0.63678 0.0
H1029 H 0.24467 0.35728 0.58195 0.0
H1030 H 0.20825 0.30948 0.64195 0.0
H1031 H 0.2208 0.32633 0.69626 0.0
C1032 C 0.21315 0.29312 0.54224 0.0
C1033 C 0.21337 0.30149 0.51031 0.0
C1034 C 0.21647 0.30272 0.57401 0.0
C1035 C 0.21981 0.32077 0.57439 0.0
C1036 C 0.2187 0.32852 0.54248 0.0
C1037 C 0.21568 0.31905 0.51085 0.0
C1038 C 0.2458 0.36031 0.63803 0.0
C1039 C 0.23973 0.35161 0.67063 0.0
C1040 C 0.2389 0.35046 0.60666 0.0
C1041 C 0.22561 0.33182 0.6074 0.0
C1042 C 0.21878 0.3236 0.64022 0.0
C1043 C 0.22586 0.33332 0.67137 0.0
H1044 H 0.88368 0.66632 0.02445 0.0
H1045 H 0.92602 0.71248 0.9696 0.0
H1046 H 0.87203 0.65048 0.96873 0.0
H1047 H 0.91504 0.69639 0.91364 0.0
H1048 H 0.88973 0.66702 0.81443 0.0
H1049 H 0.89336 0.6836 0.86886 0.0
H1050 H 0.88068 0.63531 0.9285 0.0
H1051 H 0.87618 0.61854 0.87354 0.0
C1052 C 0.89026 0.6732 1.0002 0.0
C1053 C 0.90568 0.69063 1.00117 0.0
C1054 C 0.88374 0.66403 0.96829 0.0
C1055 C 0.89275 0.67191 0.93654 0.0
C1056 C 0.90758 0.68987 0.9374 0.0
C1057 C 0.91391 0.69919 0.96944 0.0
C1058 C 0.88734 0.65986 0.83925 0.0
C1059 C 0.88275 0.64152 0.83987 0.0
C1060 C 0.8896 0.66943 0.8705 0.0
C1061 C 0.88767 0.661 0.9033 0.0
C1062 C 0.88212 0.6423 0.90383 0.0
C1063 C 0.87953 0.63261 0.87237 0.0
H1064 H 0.33231 0.24186 0.02519 0.0
H1065 H 0.28082 0.20415 0.97759 0.0
H1066 H 0.34733 0.2464 0.96904 0.0
H1067 H 0.29617 0.20829 0.92075 0.0
H1068 H 0.3245 0.24342 0.82306 0.0
H1069 H 0.30923 0.23226 0.87871 0.0
H1070 H 0.35762 0.23515 0.92214 0.0
H1071 H 0.37333 0.24701 0.86582 0.0
C1072 C 0.32417 0.23429 1.00274 0.0
C1073 C 0.30525 0.22284 1.00581 0.0
C1074 C 0.33291 0.23675 0.97047 0.0
C1075 C 0.32302 0.22781 0.94019 0.0
C1076 C 0.30418 0.21563 0.94349 0.0
C1077 C 0.29537 0.21317 0.97602 0.0
C1078 C 0.33198 0.24162 0.8443 0.0
C1079 C 0.35029 0.24635 0.84002 0.0
C1080 C 0.32305 0.23495 0.87626 0.0
C1081 C 0.33209 0.23272 0.90505 0.0
C1082 C 0.35027 0.23689 0.90059 0.0
C1083 C 0.3593 0.24366 0.86836 0.0
H1084 H 0.72134 0.10521 0.87665 0.0
H1085 H 0.765 0.10324 0.82287 0.0
H1086 H 0.73134 0.09871 0.93245 0.0
H1087 H 0.77569 0.09775 0.87848 0.0
H1088 H 0.77316 0.06222 0.97248 0.0
H1089 H 0.76745 0.07373 0.91773 0.0
H1090 H 0.75241 0.10741 0.97804 0.0
H1091 H 0.75723 0.0952 0.03217 0.0
C1092 C 0.73346 0.10404 0.87707 0.0
C1093 C 0.74239 0.1047 0.84562 0.0
C1094 C 0.73924 0.10028 0.909 0.0
C1095 C 0.75424 0.0974 0.91009 0.0
C1096 C 0.76382 0.09933 0.87871 0.0
C1097 C 0.75785 0.10274 0.84687 0.0
C1098 C 0.76888 0.07225 0.97383 0.0
C1099 C 0.76548 0.07767 0.00648 0.0
C1100 C 0.76563 0.07894 0.94249 0.0
C1101 C 0.75923 0.09143 0.94327 0.0
C1102 C 0.75682 0.09749 0.97618 0.0
C1103 C 0.75975 0.09059 0.00729 0.0
H1104 H 0.98831 0.41106 0.65601 0.0
H1105 H 0.03843 0.45545 0.69644 0.0
H1106 H 0.97393 0.4077 0.71254 0.0
H1107 H 0.02367 0.45235 0.75364 0.0
H1108 H -0.00076 0.42084 0.85769 0.0
H1109 H 0.0135 0.43082 0.80074 0.0
H1110 H 0.96216 0.41951 0.75584 0.0
H1111 H 0.94757 0.40886 0.8135 0.0
C1112 C -0.00373 0.42031 0.67693 0.0
C1113 C 0.01467 0.43341 0.67174 0.0
C1114 C 0.98786 0.41849 0.70939 0.0
C1115 C -0.00245 0.42973 0.73781 0.0
C1116 C 0.01583 0.44331 0.7324 0.0
C1117 C 0.0243 0.44514 0.69965 0.0
C1118 C 0.99091 0.42057 0.83583 0.0
C1119 C 0.97214 0.41374 0.84009 0.0
C1120 C -0.00078 0.42655 0.80309 0.0
C1121 C 0.98904 0.42594 0.7735 0.0
C1122 C 0.97039 0.41993 0.77801 0.0
C1123 C 0.96201 0.4139 0.81103 0.0
H1124 H 0.5776 0.53406 0.81541 0.0
H1125 H 0.56867 0.57588 0.8592 0.0
H1126 H 0.56555 0.53723 0.75872 0.0
H1127 H 0.55736 0.57943 0.80319 0.0
H1128 H 0.53252 0.58098 0.70108 0.0
H1129 H 0.53509 0.56848 0.75772 0.0
H1130 H 0.57726 0.55999 0.71418 0.0
H1131 H 0.57433 0.57175 0.65825 0.0
C1132 C 0.57291 0.54374 0.81308 0.0
C1133 C 0.57441 0.55491 0.84163 0.0
C1134 C 0.56607 0.54564 0.78063 0.0
C1135 C 0.5606 0.55872 0.77621 0.0
C1136 C 0.56119 0.56908 0.80548 0.0
C1137 C 0.56796 0.56718 0.83765 0.0
C1138 C 0.5421 0.57616 0.70362 0.0
C1139 C 0.5534 0.57766 0.67533 0.0
C1140 C 0.54364 0.56905 0.73604 0.0
C1141 C 0.55649 0.5633 0.74068 0.0
C1142 C 0.56706 0.56399 0.71169 0.0
C1143 C 0.56552 0.57103 0.67957 0.0
H1144 H 0.44765 0.04303 0.80993 0.0
H1145 H 0.40851 0.99222 0.85788 0.0
H1146 H 0.44238 0.02753 0.75292 0.0
H1147 H 0.40302 0.97706 0.80161 0.0
H1148 H 0.40392 0.95045 0.6995 0.0
H1149 H 0.4149 0.96635 0.7559 0.0
H1150 H 0.41807 0.01446 0.71044 0.0
H1151 H 0.40764 -0.00107 0.6546 0.0
C1152 C 0.43802 0.02862 0.80837 0.0
C1153 C 0.42843 0.01895 0.83841 0.0
C1154 C 0.43494 0.01972 0.77576 0.0
C1155 C 0.42225 0.001 0.77265 0.0
C1156 C 0.41309 0.99136 0.80298 0.0
C1157 C 0.41613 0.00019 0.83531 0.0
C1158 C 0.40708 0.96444 0.70162 0.0
C1159 C 0.40475 0.97332 0.67261 0.0
C1160 C 0.41335 0.97357 0.73388 0.0
C1161 C 0.41741 0.99174 0.73773 0.0
C1162 C 0.41542 0.00063 0.7084 0.0
C1163 C 0.40921 0.99158 0.67637 0.0
H1164 H 0.5426 0.94919 0.20292 0.0
H1165 H 0.5546 -0.00217 0.14599 0.0
H1166 H 0.54701 0.96536 0.25861 0.0
H1167 H 0.55814 0.01382 0.20121 0.0
H1168 H 0.59126 0.04241 0.30164 0.0
H1169 H 0.58019 0.02662 0.24541 0.0
H1170 H 0.53823 0.9798 0.30027 0.0
H1171 H 0.54996 0.99533 0.35618 0.0
C1172 C 0.54554 0.96314 0.20242 0.0
C1173 C 0.54837 0.97229 0.1703 0.0
C1174 C 0.54809 0.97249 0.2343 0.0
C1175 C 0.55324 0.99109 0.23458 0.0
C1176 C 0.5547 -0.00028 0.2022 0.0
C1177 C 0.55247 0.99049 0.17051 0.0
C1178 C 0.5794 0.02895 0.30141 0.0
C1179 C 0.57151 0.02005 0.33311 0.0
C1180 C 0.573 0.01981 0.26921 0.0
C1181 C 0.55841 0.00172 0.26816 0.0
C1182 C 0.54976 0.99347 0.29995 0.0
C1183 C 0.55634 0.00245 0.332 0.0
H1184 H -0.00444 0.58087 0.35868 0.0
H1185 H 0.94547 0.54035 0.31052 0.0
H1186 H 0.01103 0.58643 0.30274 0.0
H1187 H 0.96129 0.54569 0.25388 0.0
H1188 H 0.9894 0.58024 0.15517 0.0
H1189 H 0.97381 0.56971 0.21089 0.0
H1190 H 0.02259 0.57503 0.25768 0.0
H1191 H 0.03853 0.58611 0.20134 0.0
C1192 C 0.98783 0.57296 0.33615 0.0
C1193 C 0.96915 0.56026 0.33908 0.0
C1194 C -0.00316 0.57605 0.30401 0.0
C1195 C 0.98748 0.56653 0.2737 0.0
C1196 C 0.96888 0.55342 0.27669 0.0
C1197 C 0.9598 0.5503 0.30909 0.0
C1198 C -0.00311 0.57913 0.1772 0.0
C1199 C 0.01534 0.58422 0.1738 0.0
C1200 C 0.98781 0.57285 0.20919 0.0
C1201 C -0.00314 0.57144 0.23886 0.0
C1202 C 0.01523 0.57612 0.23539 0.0
C1203 C 0.02439 0.58245 0.20315 0.0
H1204 H 0.39341 0.44539 0.20957 0.0
H1205 H 0.43468 0.44027 0.15322 0.0
H1206 H 0.40432 0.43963 0.26504 0.0
H1207 H 0.44617 0.43533 0.20835 0.0
H1208 H 0.44231 0.39956 0.3037 0.0
H1209 H 0.43707 0.41137 0.24885 0.0
H1210 H 0.42689 0.44872 0.30863 0.0
H1211 H 0.43133 0.43633 0.363 0.0
C1212 C 0.4052 0.44367 0.20926 0.0
C1213 C 0.41315 0.44318 0.17725 0.0
C1214 C 0.4115 0.44033 0.24099 0.0
C1215 C 0.42602 0.4367 0.24123 0.0
C1216 C 0.43469 0.43754 0.20922 0.0
C1217 C 0.42823 0.44059 0.17764 0.0
C1218 C 0.43932 0.41053 0.3049 0.0
C1219 C 0.43708 0.41692 0.33748 0.0
C1220 C 0.43631 0.41736 0.27352 0.0
C1221 C 0.43128 0.43089 0.27421 0.0
C1222 C 0.43024 0.43801 0.30696 0.0
C1223 C 0.43296 0.43101 0.33815 0.0
H1224 H 0.28384 0.16289 0.12553 0.0
H1225 H 0.32713 0.20759 0.18251 0.0
H1226 H 0.29725 0.14416 0.13835 0.0
H1227 H 0.34022 0.18853 0.19672 0.0
H1228 H 0.37011 0.15759 0.18294 0.0
H1229 H 0.35605 0.1756 0.16804 0.0
H1230 H 0.30296 0.12844 0.18348 0.0
H1231 H 0.31709 0.11029 0.19698 0.0
C1232 C 0.29607 0.16862 0.14137 0.0
C1233 C 0.30448 0.18674 0.15296 0.0
C1234 C 0.30373 0.15784 0.14881 0.0
C1235 C 0.31988 0.16485 0.16834 0.0
C1236 C 0.32798 0.18282 0.18093 0.0
C1237 C 0.3204 0.19369 0.17315 0.0
C1238 C 0.35543 0.15103 0.18261 0.0
C1239 C 0.34468 0.13256 0.19109 0.0
C1240 C 0.34737 0.1614 0.1745 0.0
C1241 C 0.32838 0.15356 0.17512 0.0
C1242 C 0.31762 0.1349 0.18248 0.0
C1243 C 0.3257 0.12447 0.19019 0.0
H1244 H 0.7822 0.11682 0.17996 0.0
H1245 H 0.82638 0.11925 0.11929 0.0
H1246 H 0.80081 0.14908 0.19349 0.0
H1247 H 0.84466 0.15152 0.13145 0.0
H1248 H 0.87861 0.20496 0.19105 0.0
H1249 H 0.86076 0.17281 0.17655 0.0
H1250 H 0.81285 0.1779 0.16559 0.0
H1251 H 0.83059 0.20986 0.18152 0.0
C1252 C 0.79588 0.12425 0.16955 0.0
C1253 C 0.80285 0.11552 0.14868 0.0
C1254 C 0.80649 0.14276 0.17697 0.0
C1255 C 0.8242 0.15294 0.16329 0.0
C1256 C 0.83119 0.14408 0.14278 0.0
C1257 C 0.82067 0.12557 0.13573 0.0
C1258 C 0.86432 0.19924 0.18505 0.0
C1259 C 0.85596 0.20986 0.18754 0.0
C1260 C 0.85407 0.18081 0.17673 0.0
C1261 C 0.8353 0.17271 0.17033 0.0
C1262 C 0.82716 0.18359 0.17126 0.0
C1263 C 0.83736 0.20195 0.17999 0.0
H1264 H 0.78291 0.61693 0.22047 0.0
H1265 H 0.78041 0.66061 0.16741 0.0
H1266 H 0.81502 0.631 0.20688 0.0
H1267 H 0.81251 0.67437 0.15234 0.0
H1268 H 0.87345 0.70492 0.16509 0.0
H1269 H 0.84137 0.69021 0.18024 0.0
H1270 H 0.83638 0.63772 0.16137 0.0
H1271 H 0.86866 0.65248 0.14769 0.0
C1272 C 0.78916 0.62939 0.2053 0.0
C1273 C 0.77915 0.63771 0.19507 0.0
C1274 C 0.80759 0.63743 0.1974 0.0
C1275 C 0.81642 0.65389 0.17873 0.0
C1276 C 0.80624 0.66189 0.16746 0.0
C1277 C 0.7878 0.65393 0.17573 0.0
C1278 C 0.86553 0.69023 0.16469 0.0
C1279 C 0.87353 0.67983 0.15528 0.0
C1280 C 0.8471 0.68179 0.17294 0.0
C1281 C 0.83621 0.66278 0.17152 0.0
C1282 C 0.84438 0.65238 0.16305 0.0
C1283 C 0.86288 0.66082 0.15522 0.0
H1284 H 0.10738 0.3188 0.31685 0.0
H1285 H 0.15564 0.3712 0.32999 0.0
H1286 H 0.12484 0.30392 0.33001 0.0
H1287 H 0.17298 0.35639 0.34471 0.0
H1288 H 0.20362 0.32617 0.33113 0.0
H1289 H 0.18521 0.33993 0.31658 0.0
H1290 H 0.14015 0.29756 0.37459 0.0
H1291 H 0.15823 0.28345 0.38763 0.0
C1292 C 0.12164 0.32712 0.32338 0.0
C1293 C 0.13018 0.34614 0.32234 0.0
C1294 C 0.13167 0.31861 0.33091 0.0
C1295 C 0.15039 0.32896 0.33801 0.0
C1296 C 0.15871 0.348 0.33844 0.0
C1297 C 0.14873 0.3565 0.33045 0.0
C1298 C 0.1897 0.3197 0.3403 0.0
C1299 C 0.18237 0.30376 0.36047 0.0
C1300 C 0.1792 0.32767 0.33233 0.0
C1301 C 0.16125 0.31997 0.34478 0.0
C1302 C 0.15383 0.30376 0.36422 0.0
C1303 C 0.16424 0.29569 0.37178 0.0
H1304 H 0.70691 0.87299 0.38743 0.0
H1305 H 0.66503 0.87652 0.3294 0.0
H1306 H 0.69303 0.84102 0.37262 0.0
H1307 H 0.65153 0.84459 0.31312 0.0
H1308 H 0.61988 0.78356 0.32522 0.0
H1309 H 0.63466 0.81567 0.33998 0.0
H1310 H 0.68716 0.81979 0.32721 0.0
H1311 H 0.67227 0.78743 0.31395 0.0
C1312 C 0.69491 0.867 0.3709 0.0
C1313 C 0.687 0.87723 0.35968 0.0
C1314 C 0.68698 0.84865 0.36229 0.0
C1315 C 0.67107 0.84016 0.3419 0.0
C1316 C 0.66355 0.8506 0.32956 0.0
C1317 C 0.67137 0.86893 0.33856 0.0
C1318 C 0.63458 0.79131 0.32596 0.0
C1319 C 0.64494 0.78302 0.31851 0.0
C1320 C 0.64307 0.80976 0.33401 0.0
C1321 C 0.66211 0.8204 0.33432 0.0
C1322 C 0.67247 0.81198 0.32755 0.0
C1323 C 0.66395 0.79344 0.31994 0.0
H1324 H 0.11324 0.82313 0.34546 0.0
H1325 H 0.11881 0.77569 0.35909 0.0
H1326 H 0.14524 0.84101 0.33009 0.0
H1327 H 0.15104 0.79372 0.34498 0.0
H1328 H 0.20478 0.82845 0.28729 0.0
H1329 H 0.17256 0.80965 0.29967 0.0
H1330 H 0.17388 0.85365 0.35933 0.0
H1331 H 0.20606 0.87272 0.34572 0.0
C1332 C 0.12131 0.8165 0.34493 0.0
C1333 C 0.11357 0.79804 0.35352 0.0
C1334 C 0.13969 0.82679 0.33652 0.0
C1335 C 0.15079 0.81888 0.33691 0.0
C1336 C 0.14286 0.80022 0.34422 0.0
C1337 C 0.1244 0.78987 0.35228 0.0
C1338 C 0.19823 0.83407 0.30329 0.0
C1339 C 0.20793 0.85209 0.31547 0.0
C1340 C 0.17975 0.82326 0.31047 0.0
C1341 C 0.17058 0.83017 0.33024 0.0
C1342 C 0.18044 0.84803 0.34334 0.0
C1343 C 0.19891 0.85891 0.33588 0.0
H1344 H 0.61759 0.82795 0.78952 0.0
H1345 H 0.65938 0.8725 0.84937 0.0
H1346 H 0.63132 0.80958 0.80303 0.0
H1347 H 0.67273 0.85378 0.86441 0.0
H1348 H 0.70422 0.82439 0.85101 0.0
H1349 H 0.6896 0.84197 0.83701 0.0
H1350 H 0.63697 0.79353 0.84712 0.0
H1351 H 0.65173 0.77583 0.85954 0.0
C1352 C 0.62954 0.83371 0.80618 0.0
C1353 C 0.63747 0.8517 0.81829 0.0
C1354 C 0.63738 0.82312 0.81404 0.0
C1355 C 0.65323 0.83021 0.83459 0.0
C1356 C 0.66076 0.84802 0.84781 0.0
C1357 C 0.65303 0.85871 0.83953 0.0
C1358 C 0.68952 0.81748 0.84981 0.0
C1359 C 0.67909 0.79876 0.85629 0.0
C1360 C 0.68113 0.82759 0.84221 0.0
C1361 C 0.66209 0.81925 0.84145 0.0
C1362 C 0.65166 0.80039 0.84716 0.0
C1363 C 0.66009 0.79022 0.85427 0.0
H1364 H 0.10802 0.78652 0.8208 0.0
H1365 H 0.1562 0.78211 0.83306 0.0
H1366 H 0.12549 0.8187 0.83555 0.0
H1367 H 0.17353 0.81405 0.84918 0.0
H1368 H 0.20408 0.87495 0.8348 0.0
H1369 H 0.18558 0.84276 0.8208 0.0
H1370 H 0.14113 0.84016 0.88094 0.0
H1371 H 0.15935 0.87243 0.89364 0.0
C1372 C 0.12225 0.79235 0.82745 0.0
C1373 C 0.13079 0.78187 0.82563 0.0
C1374 C 0.13228 0.81079 0.8359 0.0
C1375 C 0.15099 0.81903 0.84307 0.0
C1376 C 0.15927 0.80826 0.84287 0.0
C1377 C 0.1493 0.78991 0.83403 0.0
C1378 C 0.19029 0.86751 0.84468 0.0
C1379 C 0.18316 0.87619 0.86527 0.0
C1380 C 0.17974 0.84903 0.837 0.0
C1381 C 0.16193 0.83881 0.8501 0.0
C1382 C 0.15471 0.84763 0.87012 0.0
C1383 C 0.16519 0.86613 0.87747 0.0
H1384 H 0.11207 0.28328 0.84876 0.0
H1385 H 0.11739 0.33611 0.86373 0.0
H1386 H 0.14416 0.2976 0.83381 0.0
H1387 H 0.14965 0.35047 0.85041 0.0
H1388 H 0.20522 0.32701 0.84632 0.0
H1389 H 0.17309 0.31343 0.86112 0.0
H1390 H 0.17092 0.3567 0.8054 0.0
H1391 H 0.20302 0.3706 0.79221 0.0
C1392 C 0.12011 0.29797 0.84867 0.0
C1393 C 0.11225 0.3086 0.85729 0.0
C1394 C 0.13855 0.30618 0.84055 0.0
C1395 C 0.14957 0.32519 0.84136 0.0
C1396 C 0.14155 0.33581 0.84914 0.0
C1397 C 0.12305 0.32759 0.85677 0.0
C1398 C 0.19789 0.3337 0.8377 0.0
C1399 C 0.20663 0.34987 0.81821 0.0
C1400 C 0.17944 0.32584 0.8458 0.0
C1401 C 0.16935 0.33389 0.83417 0.0
C1402 C 0.17827 0.35025 0.81522 0.0
C1403 C 0.1967 0.3582 0.80755 0.0
H1404 H 0.83229 0.62168 0.67895 0.0
H1405 H 0.88036 0.67439 0.69018 0.0
H1406 H 0.81472 0.63611 0.66327 0.0
H1407 H 0.86265 0.68891 0.67594 0.0
H1408 H 0.82852 0.70844 0.61817 0.0
H1409 H 0.84683 0.69452 0.63087 0.0
H1410 H 0.80256 0.65272 0.69139 0.0
H1411 H 0.78393 0.66629 0.67731 0.0
C1412 C 0.83911 0.63637 0.67785 0.0
C1413 C 0.85767 0.64693 0.68579 0.0
C1414 C 0.829 0.64465 0.66928 0.0
C1415 C 0.83719 0.66367 0.66891 0.0
C1416 C 0.85593 0.67422 0.6757 0.0
C1417 C 0.8661 0.66592 0.68385 0.0
C1418 C 0.82273 0.69635 0.63443 0.0
C1419 C 0.80476 0.68841 0.64671 0.0
C1420 C 0.83327 0.6884 0.6418 0.0
C1421 C 0.82615 0.67243 0.66194 0.0
C1422 C 0.80833 0.6648 0.67512 0.0
C1423 C 0.79771 0.67266 0.6674 0.0
H1424 H 0.32664 0.2068 0.66631 0.0
H1425 H 0.37031 0.20529 0.72166 0.0
H1426 H 0.31323 0.17458 0.65253 0.0
H1427 H 0.35659 0.17307 0.70927 0.0
H1428 H 0.33623 0.11943 0.64987 0.0
H1429 H 0.35051 0.15165 0.66391 0.0
H1430 H 0.29757 0.14585 0.68121 0.0
H1431 H 0.28335 0.11383 0.66578 0.0
C1432 C 0.33337 0.19959 0.67546 0.0
C1433 C 0.34952 0.20856 0.69498 0.0
C1434 C 0.32561 0.1811 0.66791 0.0
C1435 C 0.33375 0.17119 0.6801 0.0
C1436 C 0.35007 0.1803 0.69911 0.0
C1437 C 0.35791 0.19879 0.70631 0.0
C1438 C 0.32769 0.12501 0.6572 0.0
C1439 C 0.3087 0.11418 0.65663 0.0
C1440 C 0.33586 0.14348 0.66522 0.0
C1441 C 0.32517 0.1514 0.67324 0.0
C1442 C 0.30619 0.1403 0.67425 0.0
C1443 C 0.29804 0.12191 0.66583 0.0
H1444 H 0.8739 0.16532 0.66453 0.0
H1445 H 0.86818 0.21264 0.65046 0.0
H1446 H 0.84201 0.14751 0.68081 0.0
H1447 H 0.83607 0.19469 0.6652 0.0
H1448 H 0.78306 0.1612 0.7246 0.0
H1449 H 0.81515 0.17954 0.71099 0.0
H1450 H 0.81292 0.13435 0.65415 0.0
H1451 H 0.78086 0.11571 0.66927 0.0
C1452 C 0.86581 0.17192 0.66507 0.0
C1453 C 0.87349 0.19035 0.65628 0.0
C1454 C 0.84748 0.16167 0.67399 0.0
C1455 C 0.83638 0.16958 0.67385 0.0
C1456 C 0.84424 0.18818 0.66595 0.0
C1457 C 0.86264 0.19849 0.65748 0.0
C1458 C 0.78938 0.15521 0.70897 0.0
C1459 C 0.77946 0.13701 0.698 0.0
C1460 C 0.8078 0.16576 0.70106 0.0
C1461 C 0.81668 0.15843 0.68161 0.0
C1462 C 0.80661 0.14033 0.66984 0.0
C1463 C 0.7882 0.12968 0.67816 0.0
H1464 H 0.03474 0.49059 0.51636 0.0
H1465 H 0.9817 0.44259 0.5232 0.0
H1466 H 0.02076 0.50867 0.50136 0.0
H1467 H 0.96761 0.46078 0.50962 0.0
H1468 H 0.94943 0.49603 0.45192 0.0
H1469 H 0.96297 0.47737 0.46472 0.0
H1470 H 0.00381 0.52059 0.52877 0.0
H1471 H 0.99064 0.53957 0.51462 0.0
C1472 C 0.02007 0.48391 0.51455 0.0
C1473 C 0.00929 0.4652 0.52093 0.0
C1474 C 0.01205 0.49429 0.50633 0.0
C1475 C 0.99305 0.48624 0.50476 0.0
C1476 C 0.98229 0.4674 0.51029 0.0
C1477 C 0.99034 0.45697 0.51809 0.0
C1478 C 0.96123 0.50151 0.46893 0.0
C1479 C 0.96901 0.51928 0.48223 0.0
C1480 C 0.96896 0.49078 0.47638 0.0
C1481 C 0.98454 0.4975 0.49762 0.0
C1482 C 0.99204 0.51513 0.51169 0.0
C1483 C 0.98441 0.52596 0.50389 0.0
H1484 H 0.50004 0.54432 0.51595 0.0
H1485 H 0.54738 0.53861 0.52965 0.0
H1486 H 0.48197 0.51222 0.50154 0.0
H1487 H 0.52917 0.50627 0.51673 0.0
H1488 H 0.49458 0.45271 0.4586 0.0
H1489 H 0.51344 0.48477 0.47196 0.0
H1490 H 0.469 0.48352 0.52984 0.0
H1491 H 0.44982 0.45149 0.515 0.0
C1492 C 0.50658 0.53618 0.51572 0.0
C1493 C 0.5251 0.54393 0.52387 0.0
C1494 C 0.49619 0.51774 0.50789 0.0
C1495 C 0.50403 0.50658 0.50852 0.0
C1496 C 0.52271 0.51448 0.51571 0.0
C1497 C 0.53317 0.53301 0.52309 0.0
C1498 C 0.48887 0.45923 0.47448 0.0
C1499 C 0.47069 0.44962 0.48567 0.0
C1500 C 0.49973 0.47763 0.48223 0.0
C1501 C 0.49272 0.48679 0.50172 0.0
C1502 C 0.47471 0.47698 0.51406 0.0
C1503 C 0.46376 0.45859 0.50591 0.0
H1504 H 0.54086 0.03891 0.49459 0.0
H1505 H 0.53475 0.98544 0.48642 0.0
H1506 H 0.50907 0.02543 0.51136 0.0
H1507 H 0.50277 0.97187 0.50185 0.0
H1508 H 0.44995 0.95414 0.56062 0.0
H1509 H 0.48211 0.96763 0.54778 0.0
H1510 H 0.47987 0.00877 0.48451 0.0
H1511 H 0.44771 0.99562 0.49864 0.0
C1512 C 0.53272 0.02426 0.49659 0.0
C1513 C 0.54025 0.01321 0.4892 0.0
C1514 C 0.51446 0.01653 0.50582 0.0
C1515 C 0.50329 -0.00244 0.50748 0.0
C1516 C 0.51101 0.98654 0.50114 0.0
C1517 C 0.52934 0.99429 0.49228 0.0
C1518 C 0.45629 0.96602 0.54381 0.0
C1519 C 0.44632 0.97384 0.53061 0.0
C1520 C 0.47474 0.97372 0.53635 0.0
C1521 C 0.48361 0.98932 0.51521 0.0
C1522 C 0.47353 -0.00305 0.50146 0.0
C1523 C 0.45508 0.98934 0.50925 0.0
H1524 H 0.45136 -0.00299 0.00938 0.0
H1525 H 0.49465 0.04023 0.94962 0.0
H1526 H 0.47073 0.98405 0.02103 0.0
H1527 H 0.51382 0.02694 0.96023 0.0
H1528 H 0.54834 0.00722 0.01981 0.0
H1529 H 0.53026 0.02138 1.00537 0.0
H1530 H 0.48317 0.96828 0.9897 0.0
H1531 H 0.50107 0.95421 1.00527 0.0
C1532 C 0.46502 0.00374 0.99878 0.0
C1533 C 0.47148 0.0196 0.97859 0.0
C1534 C 0.47607 -0.00377 1.00513 0.0
C1535 C 0.49375 0.00434 0.99116 0.0
C1536 C 0.50033 0.02043 0.97158 0.0
C1537 C 0.48932 0.02802 0.96545 0.0
C1538 C 0.5342 -0.00138 0.01268 0.0
C1539 C 0.52606 0.97963 0.01392 0.0
C1540 C 0.52384 0.00672 1.00444 0.0
C1541 C 0.50519 -0.00406 0.997 0.0
C1542 C 0.49737 0.97696 0.99627 0.0
C1543 C 0.50767 0.96889 1.00482 0.0
H1544 H 0.03583 0.53992 0.06178 0.0
H1545 H -0.00608 0.54137 0.9998 0.0
H1546 H 0.0226 0.50772 0.04946 0.0
H1547 H 0.98105 0.50921 0.98616 0.0
H1548 H 0.951 0.44843 0.9986 0.0
H1549 H 0.9646 0.48038 0.01406 0.0
H1550 H 0.01808 0.48649 1.00448 0.0
H1551 H 0.00436 0.4543 0.99041 0.0
C1552 C 0.02393 0.5334 0.04505 0.0
C1553 C 0.01588 0.54315 0.03178 0.0
C1554 C 0.01638 0.51493 0.03789 0.0
C1555 C 0.0007 0.50583 0.01698 0.0
C1556 C 0.99291 0.51572 1.00299 0.0
C1557 C 0.00037 0.53418 0.01049 0.0
C1558 C 0.96566 0.45656 1.00027 0.0
C1559 C 0.97664 0.44892 0.99328 0.0
C1560 C 0.97346 0.47492 0.00874 0.0
C1561 C 0.99244 0.48608 0.00998 0.0
C1562 C 0.00341 0.47826 1.00404 0.0
C1563 C -0.00443 0.45982 0.99597 0.0
H1564 H 0.44948 0.4542 1.00168 0.0
H1565 H 0.44996 0.49951 0.05441 0.0
H1566 H 0.48168 0.47322 0.9883 0.0
H1567 H 0.48221 0.51825 0.04247 0.0
H1568 H 0.53694 0.55128 0.98594 0.0
H1569 H 0.50449 0.5335 0.99835 0.0
H1570 H 0.50986 0.48633 0.0187 0.0
H1571 H 0.54205 0.50393 1.00487 0.0
C1572 C 0.45645 0.46823 0.01026 0.0
C1573 C 0.44721 0.47535 0.0291 0.0
C1574 C 0.47494 0.47909 1.00297 0.0
C1575 C 0.48461 0.49721 0.01476 0.0
C1576 C 0.47519 0.50443 0.03271 0.0
C1577 C 0.45668 0.49365 0.03964 0.0
C1578 C 0.53119 0.53719 0.9936 0.0
C1579 C 0.54195 0.52894 0.99431 0.0
C1580 C 0.5126 0.52697 1.00066 0.0
C1581 C 0.5045 0.50839 0.00897 0.0
C1582 C 0.51553 0.50046 0.01138 0.0
C1583 C 0.53403 0.51059 1.0039 0.0
H1584 H 0.44368 0.11188 0.98805 0.0
H1585 H 0.44938 0.07212 0.0491 0.0
H1586 H 0.44026 0.12527 0.0425 0.0
H1587 H 0.44564 0.08522 0.10315 0.0
H1588 H 0.40183 0.11775 0.13741 0.0
H1589 H 0.41515 0.11411 0.08366 0.0
H1590 H 0.4559 0.11016 0.14488 0.0
H1591 H 0.44226 0.11355 0.19914 0.0
C1592 C 0.44462 0.10625 0.01304 0.0
C1593 C 0.44656 0.09076 0.01414 0.0
C1594 C 0.44253 0.11384 0.04427 0.0
C1595 C 0.44242 0.10619 0.07727 0.0
C1596 C 0.44577 0.09158 0.07835 0.0
C1597 C 0.44779 0.08397 0.04721 0.0
C1598 C 0.41385 0.11646 0.13949 0.0
C1599 C 0.42083 0.11571 0.17267 0.0
C1600 C 0.4216 0.11451 0.10853 0.0
C1601 C 0.43654 0.11169 0.10984 0.0
C1602 C 0.44425 0.11208 0.14294 0.0
C1603 C 0.43652 0.11415 0.17404 0.0
H1604 H 0.87752 0.3278 0.19812 0.0
H1605 H 0.87065 0.28237 0.13543 0.0
H1606 H 0.8816 0.34525 0.14423 0.0
H1607 H 0.87506 0.29979 0.082 0.0
H1608 H 0.87937 0.33219 0.98691 0.0
H1609 H 0.86548 0.31505 0.04087 0.0
H1610 H 0.90645 0.35917 0.10282 0.0
H1611 H 0.92 0.37629 0.04935 0.0
C1612 C 0.87647 0.32139 0.17289 0.0
C1613 C 0.87397 0.30376 0.17117 0.0
C1614 C 0.87895 0.33144 0.14197 0.0
C1615 C 0.87889 0.32404 0.10867 0.0
C1616 C 0.87507 0.30594 0.10701 0.0
C1617 C 0.87266 0.29596 0.1378 0.0
C1618 C 0.88511 0.33839 0.01211 0.0
C1619 C 0.90093 0.35553 0.01372 0.0
C1620 C 0.87723 0.32852 0.04306 0.0
C1621 C 0.88494 0.33561 0.0763 0.0
C1622 C 0.9 0.35328 0.07787 0.0
C1623 C 0.90788 0.36308 0.04705 0.0
H1624 H 0.61237 0.54024 0.04922 0.0
H1625 H 0.65615 0.54248 0.98758 0.0
H1626 H 0.62909 0.54327 0.10299 0.0
H1627 H 0.67291 0.54521 0.04188 0.0
H1628 H 0.70559 0.5829 0.13695 0.0
H1629 H 0.68842 0.57003 0.08319 0.0
H1630 H 0.64232 0.53168 0.14465 0.0
H1631 H 0.65951 0.5449 0.19885 0.0
C1632 C 0.62542 0.54095 0.04717 0.0
C1633 C 0.63301 0.54136 0.014 0.0
C1634 C 0.63499 0.54254 0.07816 0.0
C1635 C 0.65247 0.54466 0.0769 0.0
C1636 C 0.65958 0.54386 0.04381 0.0
C1637 C 0.64992 0.54216 0.01267 0.0
C1638 C 0.69191 0.57147 0.13909 0.0
C1639 C 0.68385 0.56512 0.17232 0.0
C1640 C 0.68208 0.56397 0.10811 0.0
C1641 C 0.66388 0.54993 0.10946 0.0
C1642 C 0.65622 0.54269 0.14264 0.0
C1643 C 0.66612 0.55017 0.17374 0.0
H1644 H 0.10863 0.44329 0.31163 0.0
H1645 H 0.11677 0.40583 0.37527 0.0
H1646 H 0.10435 0.45676 0.36518 0.0
H1647 H 0.11223 0.419 0.42839 0.0
H1648 H 0.10787 0.44771 0.52259 0.0
H1649 H 0.12171 0.44441 0.46859 0.0
H1650 H 0.07942 0.44532 0.40704 0.0
H1651 H 0.06586 0.44889 0.46059 0.0
C1652 C 0.10993 0.4382 0.33699 0.0
C1653 C 0.11284 0.42333 0.33909 0.0
C1654 C 0.10733 0.44583 0.36771 0.0
C1655 C 0.10772 0.43885 0.40118 0.0
C1656 C 0.11196 0.42486 0.40322 0.0
C1657 C 0.11445 0.4172 0.37261 0.0
C1658 C 0.10182 0.44767 0.49745 0.0
C1659 C 0.08564 0.44836 0.496 0.0
C1660 C 0.10967 0.44565 0.46649 0.0
C1661 C 0.10159 0.44439 0.4334 0.0
C1662 C 0.08614 0.44638 0.4319 0.0
C1663 C 0.07827 0.4483 0.46275 0.0
H1664 H 0.53973 0.61617 0.46667 0.0
H1665 H 0.54385 0.66063 0.5289 0.0
H1666 H 0.54362 0.63337 0.4131 0.0
H1667 H 0.54754 0.6779 0.47485 0.0
H1668 H 0.54595 0.66475 0.31794 0.0
H1669 H 0.53253 0.64766 0.37211 0.0
H1670 H 0.57284 0.69256 0.43346 0.0
H1671 H 0.58602 0.70965 0.37967 0.0
C1672 C 0.54104 0.62949 0.46888 0.0
C1673 C 0.54168 0.6371 0.50215 0.0
C1674 C 0.54315 0.63933 0.43804 0.0
C1675 C 0.54605 0.65711 0.43957 0.0
C1676 C 0.54555 0.66431 0.47274 0.0
C1677 C 0.5433 0.65437 0.50371 0.0
C1678 C 0.55165 0.67114 0.34303 0.0
C1679 C 0.56721 0.68849 0.34438 0.0
C1680 C 0.54403 0.6613 0.37409 0.0
C1681 C 0.55172 0.66863 0.40719 0.0
C1682 C 0.56645 0.6865 0.40856 0.0
C1683 C 0.57411 0.69628 0.37759 0.0
H1684 H 0.32921 0.87747 0.52589 0.0
H1685 H 0.37384 0.91813 0.46458 0.0
H1686 H 0.31266 0.86343 0.4715 0.0
H1687 H 0.35728 0.90446 0.41065 0.0
H1688 H 0.32647 0.87693 0.31459 0.0
H1689 H 0.3434 0.87991 0.36872 0.0
H1690 H 0.29779 0.87338 0.43042 0.0
H1691 H 0.28089 0.87004 0.37675 0.0
C1692 C 0.33568 0.88316 0.50086 0.0
C1693 C 0.35275 0.89908 0.49965 0.0
C1694 C 0.32614 0.8752 0.46965 0.0
C1695 C 0.33349 0.88295 0.4366 0.0
C1696 C 0.35118 0.898 0.43546 0.0
C1697 C 0.36066 0.90595 0.46655 0.0
C1698 C 0.3199 0.8756 0.33974 0.0
C1699 C 0.30242 0.8735 0.3413 0.0
C1700 C 0.32965 0.87745 0.37079 0.0
C1701 C 0.32209 0.87715 0.40403 0.0
C1702 C 0.30407 0.87357 0.40546 0.0
C1703 C 0.29438 0.87178 0.37454 0.0
H1704 H 0.58356 0.87155 0.87748 0.0
H1705 H 0.54507 0.87845 0.81464 0.0
H1706 H 0.57064 0.87622 0.93087 0.0
H1707 H 0.53188 0.8829 0.86845 0.0
H1708 H 0.54036 0.9222 0.96277 0.0
H1709 H 0.54377 0.90837 0.90945 0.0
H1710 H 0.54533 0.86665 0.97176 0.0
H1711 H 0.54214 0.88073 0.02556 0.0
C1712 C 0.57202 0.87362 0.87509 0.0
C1713 C 0.56551 0.87485 0.8417 0.0
C1714 C 0.56451 0.87618 0.90583 0.0
C1715 C 0.55033 0.88014 0.90404 0.0
C1716 C 0.54297 0.88013 0.87075 0.0
C1717 C 0.55043 0.87744 0.8399 0.0
C1718 C 0.54108 0.90987 0.96517 0.0
C1719 C 0.5412 0.90271 0.99853 0.0
C1720 C 0.5429 0.90183 0.93445 0.0
C1721 C 0.54497 0.88645 0.93623 0.0
C1722 C 0.54398 0.87862 0.96948 0.0
C1723 C 0.54203 0.88662 1.0003 0.0
H1724 H 0.06942 0.61637 0.9643 0.0
H1725 H 0.11038 0.66092 0.02537 0.0
H1726 H 0.08269 0.63311 0.91033 0.0
H1727 H 0.12399 0.67765 0.97094 0.0
H1728 H 0.1107 0.66414 0.81412 0.0
H1729 H 0.10717 0.64696 0.86815 0.0
H1730 H 0.11396 0.6926 0.93011 0.0
H1731 H 0.11782 0.70975 0.87655 0.0
C1732 C 0.08157 0.62958 0.96619 0.0
C1733 C 0.08867 0.63739 0.99928 0.0
C1734 C 0.08928 0.63916 0.93508 0.0
C1735 C 0.10432 0.65686 0.93615 0.0
C1736 C 0.11224 0.66416 0.96914 0.0
C1737 C 0.10452 0.65451 1.00037 0.0
C1738 C 0.11191 0.67065 0.83931 0.0
C1739 C 0.11432 0.68825 0.84094 0.0
C1740 C 0.10975 0.66076 0.87031 0.0
C1741 C 0.11006 0.66828 0.90359 0.0
C1742 C 0.11378 0.68635 0.90512 0.0
C1743 C 0.11586 0.69618 0.87425 0.0
H1744 H 0.32455 0.44372 0.81723 0.0
H1745 H 0.27953 0.40332 0.87812 0.0
H1746 H 0.34119 0.45733 0.87182 0.0
H1747 H 0.29616 0.41651 0.93217 0.0
H1748 H 0.32661 0.44489 0.02864 0.0
H1749 H 0.30974 0.44094 0.974 0.0
H1750 H 0.35589 0.44776 0.91384 0.0
H1751 H 0.37276 0.45212 0.96797 0.0
C1752 C 0.31806 0.43796 0.84221 0.0
C1753 C 0.30079 0.42229 0.84322 0.0
C1754 C 0.32764 0.44566 0.87353 0.0
C1755 C 0.32014 0.43791 0.90652 0.0
C1756 C 0.30237 0.423 0.90745 0.0
C1757 C 0.29285 0.41531 0.87627 0.0
C1758 C 0.33328 0.44598 1.0037 0.0
C1759 C 0.35097 0.44859 1.00279 0.0
C1760 C 0.32357 0.44358 0.97235 0.0
C1761 C 0.33134 0.44379 0.93939 0.0
C1762 C 0.34946 0.44765 0.93854 0.0
C1763 C 0.35912 0.45001 0.96976 0.0
H1764 H 0.87587 0.54847 0.69908 0.0
H1765 H 0.86995 0.58735 0.63552 0.0
H1766 H 0.87852 0.53396 0.64545 0.0
H1767 H 0.87294 0.5732 0.58236 0.0
H1768 H 0.87496 0.54382 0.48791 0.0
H1769 H 0.86193 0.5478 0.54236 0.0
H1770 H 0.90268 0.54345 0.60278 0.0
H1771 H 0.91535 0.53911 0.54879 0.0
C1772 C 0.87474 0.55368 0.67373 0.0
C1773 C 0.87292 0.56922 0.67166 0.0
C1774 C 0.87639 0.54545 0.64296 0.0
C1775 C 0.87616 0.5525 0.60947 0.0
C1776 C 0.87303 0.56724 0.60753 0.0
C1777 C 0.87146 0.57548 0.63817 0.0
C1778 C 0.8808 0.54319 0.51289 0.0
C1779 C 0.89635 0.54138 0.5139 0.0
C1780 C 0.87343 0.54563 0.54412 0.0
C1781 C 0.88139 0.54622 0.57704 0.0
C1782 C 0.89606 0.54296 0.57808 0.0
C1783 C 0.90344 0.54059 0.54696 0.0
H1784 H 0.44338 0.32692 0.69116 0.0
H1785 H 0.40282 0.28185 0.63053 0.0
H1786 H 0.45644 0.34378 0.63657 0.0
H1787 H 0.41547 0.29871 0.57648 0.0
H1788 H 0.44223 0.32995 0.47982 0.0
H1789 H 0.43931 0.31287 0.53369 0.0
H1790 H 0.44608 0.35837 0.59614 0.0
H1791 H 0.44943 0.37544 0.54276 0.0
C1792 C 0.43749 0.32045 0.66622 0.0
C1793 C 0.4219 0.30312 0.66531 0.0
C1794 C 0.44488 0.33016 0.6349 0.0
C1795 C 0.43688 0.32274 0.60201 0.0
C1796 C 0.42213 0.30488 0.60112 0.0
C1797 C 0.41475 0.29522 0.63229 0.0
C1798 C 0.44354 0.33645 0.50508 0.0
C1799 C 0.44582 0.35399 0.5069 0.0
C1800 C 0.44174 0.32661 0.53599 0.0
C1801 C 0.44223 0.33412 0.5694 0.0
C1802 C 0.44578 0.35213 0.57107 0.0
C1803 C 0.44755 0.36191 0.54029 0.0
H1804 H 0.65956 0.10731 0.47888 0.0
H1805 H 0.61322 0.06972 0.54068 0.0
H1806 H 0.67654 0.12088 0.53317 0.0
H1807 H 0.63016 0.08295 0.59452 0.0
H1808 H 0.66145 0.11244 0.68988 0.0
H1809 H 0.64502 0.10838 0.6346 0.0
H1810 H 0.68975 0.11023 0.57699 0.0
H1811 H 0.70619 0.11461 0.63178 0.0
C1812 C 0.65287 0.10217 0.50397 0.0
C1813 C 0.63509 0.08729 0.50535 0.0
C1814 C 0.66264 0.10986 0.53512 0.0
C1815 C 0.65481 0.10291 0.56833 0.0
C1816 C 0.63663 0.08881 0.56957 0.0
C1817 C 0.62693 0.0811 0.53855 0.0
C1818 C 0.66794 0.11242 0.66533 0.0
C1819 C 0.68507 0.11365 0.66538 0.0
C1820 C 0.65847 0.10996 0.63363 0.0
C1821 C 0.66595 0.10876 0.60126 0.0
C1822 C 0.68358 0.11122 0.60123 0.0
C1823 C 0.69299 0.11361 0.63282 0.0
H1824 H 0.78067 0.7825 0.64686 0.0
H1825 H 0.78704 0.74331 0.70839 0.0
H1826 H 0.77738 0.79611 0.70121 0.0
H1827 H 0.78346 0.75658 0.76229 0.0
H1828 H 0.7794 0.78404 0.85817 0.0
H1829 H 0.79348 0.78145 0.80382 0.0
H1830 H 0.75247 0.785 0.74272 0.0
H1831 H 0.73873 0.78789 0.79659 0.0
C1832 C 0.78182 0.77707 0.67193 0.0
C1833 C 0.78388 0.76166 0.67322 0.0
C1834 C 0.7798 0.78477 0.7031 0.0
C1835 C 0.77991 0.77731 0.73621 0.0
C1836 C 0.78342 0.76282 0.73742 0.0
C1837 C 0.78535 0.75509 0.70637 0.0
C1838 C 0.77373 0.78479 0.83309 0.0
C1839 C 0.75781 0.78594 0.83177 0.0
C1840 C 0.78171 0.78316 0.80192 0.0
C1841 C 0.774 0.78279 0.76881 0.0
C1842 C 0.75891 0.78538 0.76758 0.0
C1843 C 0.75092 0.7869 0.79861 0.0
H1844 H 0.2516 0.043 0.70993 0.0
H1845 H 0.21091 -0.00193 0.64919 0.0
H1846 H 0.23856 0.02629 0.76403 0.0
H1847 H 0.19758 0.9813 0.70382 0.0
H1848 H 0.21011 -0.00404 0.86027 0.0
H1849 H 0.21353 0.01255 0.80553 0.0
H1850 H 0.20816 0.96687 0.7457 0.0
H1851 H 0.20444 0.95026 0.80005 0.0
C1852 C 0.23959 0.02968 0.70816 0.0
C1853 C 0.23244 0.02179 0.67515 0.0
C1854 C 0.232 0.02012 0.73932 0.0
C1855 C 0.21708 0.00236 0.73838 0.0
C1856 C 0.20921 0.99487 0.70546 0.0
C1857 C 0.21677 0.00453 0.67416 0.0
C1858 C 0.2092 0.98929 0.8354 0.0
C1859 C 0.20724 0.97186 0.83462 0.0
C1860 C 0.21128 -0.00115 0.80401 0.0
C1861 C 0.21135 0.99115 0.77116 0.0
C1862 C 0.20805 0.97322 0.77039 0.0
C1863 C 0.20605 0.96371 0.80169 0.0
H1864 H 0.94579 0.20705 0.71348 0.0
H1865 H 0.98986 0.20923 0.65294 0.0
H1866 H 0.96266 0.21097 0.76755 0.0
H1867 H 0.00675 0.2129 0.70748 0.0
H1868 H 0.03922 0.25107 0.80201 0.0
H1869 H 0.02198 0.23821 0.74827 0.0
H1870 H 0.97609 0.19958 0.8098 0.0
H1871 H 0.99336 0.21273 0.86397 0.0
C1872 C 0.95894 0.20797 0.71174 0.0
C1873 C 0.96655 0.20804 0.67876 0.0
C1874 C 0.96859 0.21008 0.7429 0.0
C1875 C 0.98617 0.21241 0.74198 0.0
C1876 C 0.99334 0.21138 0.70913 0.0
C1877 C 0.98361 0.20915 0.67787 0.0
C1878 C 0.02557 0.2396 0.80416 0.0
C1879 C 0.01762 0.23309 0.83741 0.0
C1880 C 0.01569 0.23211 0.7732 0.0
C1881 C -0.00245 0.21795 0.77459 0.0
C1882 C 0.98995 0.21066 0.80777 0.0
C1883 C -0.0001 0.2181 0.83884 0.0
H1884 H 0.2389 0.19335 0.20254 0.0
H1885 H 0.22416 0.23009 0.15439 0.0
H1886 H 0.2258 0.19548 0.25816 0.0
H1887 H 0.21245 0.2336 0.21036 0.0
H1888 H 0.19028 0.23815 0.31239 0.0
H1889 H 0.19328 0.22572 0.25662 0.0
H1890 H 0.23285 0.21444 0.30453 0.0
H1891 H 0.22852 0.22547 0.36059 0.0
C1892 C 0.23264 0.20175 0.20386 0.0
C1893 C 0.23253 0.21154 0.17416 0.0
C1894 C 0.22535 0.20323 0.23596 0.0
C1895 C 0.21833 0.21508 0.23959 0.0
C1896 C 0.21741 0.22412 0.20909 0.0
C1897 C 0.22421 0.22218 0.17674 0.0
C1898 C 0.1992 0.23249 0.31105 0.0
C1899 C 0.20915 0.23277 0.34081 0.0
C1900 C 0.20117 0.22558 0.27887 0.0
C1901 C 0.21366 0.21934 0.27525 0.0
C1902 C 0.22289 0.2188 0.30578 0.0
C1903 C 0.22048 0.22521 0.3382 0.0
H1904 H 0.78259 -0.00065 0.15555 0.0
H1905 H 0.78456 0.04359 0.2152 0.0
H1906 H 0.78003 0.98318 0.2105 0.0
H1907 H 0.78156 0.02738 0.26962 0.0
H1908 H 0.77881 -0.00248 0.36691 0.0
H1909 H 0.79249 0.01449 0.31273 0.0
H1910 H 0.75532 0.96775 0.25118 0.0
H1911 H 0.74209 0.95081 0.3049 0.0
C1912 C 0.78289 0.00581 0.18035 0.0
C1913 C 0.78353 0.02266 0.18089 0.0
C1914 C 0.78127 -0.00352 0.21188 0.0
C1915 C 0.78032 0.00382 0.24461 0.0
C1916 C 0.78238 0.02129 0.24511 0.0
C1917 C 0.78396 0.03057 0.21373 0.0
C1918 C 0.77391 0.99074 0.3418 0.0
C1919 C 0.75918 0.97288 0.34031 0.0
C1920 C 0.78166 0.00051 0.3107 0.0
C1921 C 0.77487 0.99261 0.27744 0.0
C1922 C 0.76105 0.97431 0.27613 0.0
C1923 C 0.75333 0.96459 0.3071 0.0
H1924 H 0.04086 0.78223 0.29944 0.0
H1925 H -0.00328 0.77853 0.36212 0.0
H1926 H 0.02338 0.77807 0.24604 0.0
H1927 H 0.97917 0.77447 0.30831 0.0
H1928 H 0.99147 0.77712 0.15155 0.0
H1929 H 0.009 0.78979 0.20567 0.0
H1930 H 0.96442 0.7489 0.26669 0.0
H1931 H 0.94694 0.73639 0.21295 0.0
C1932 C 0.02755 0.78091 0.30179 0.0
C1933 C 0.02014 0.78055 0.33515 0.0
C1934 C 0.01755 0.77863 0.27106 0.0
C1935 C -0.0002 0.7758 0.27282 0.0
C1936 C 0.99274 0.77643 0.30605 0.0
C1937 C 0.00284 0.77888 0.33688 0.0
C1938 C 0.98526 0.77111 0.17659 0.0
C1939 C 0.96786 0.75562 0.17783 0.0
C1940 C -0.00465 0.7783 0.2076 0.0
C1941 C 0.98819 0.77027 0.24055 0.0
C1942 C 0.97034 0.75553 0.24189 0.0
C1943 C 0.96034 0.74827 0.21096 0.0
loop_
_geom_bond_atom_site_label_1
_geom_bond_atom_site_label_2
_geom_bond_distance
_geom_bond_site_symmetry_2
_ccdc_geom_bond_type
C0 O1 1.306 . S
C0 O3 1.160 . S
O1 C0 1.306 . S
O1 Cd2 2.228 . S
Cd2 O1 2.228 . S
Cd2 O6 2.273 . S
Cd2 O10 2.277 . S
O3 C0 1.160 . S
O3 Cd4 2.203 . S
Cd4 O3 2.203 . S
Cd4 O6 2.411 . S
Cd4 O7 2.333 . S
Cd4 O8 2.352 . S
Cd4 O12 2.277 . S
Cd4 O13 2.356 . S
C5 O10 1.209 . S
C5 O12 1.226 . S
O6 Cd2 2.273 . S
O6 Cd4 2.411 . S
O6 C9 1.320 . S
O7 Cd4 2.333 . S
O7 C9 1.214 . S
O8 Cd4 2.352 . S
O8 C11 1.258 . S
C9 O6 1.320 . S
C9 O7 1.214 . S
O10 Cd2 2.277 . S
O10 C5 1.209 . S
C11 O8 1.258 . S
C11 O13 1.282 . S
O12 Cd4 2.277 . S
O12 C5 1.226 . S
O13 Cd4 2.356 . S
O13 C11 1.282 . S
C14 O15 1.306 . S
C14 O17 1.160 . S
O15 C14 1.306 . S
O15 Cd16 2.228 . S
Cd16 O15 2.228 . S
Cd16 O20 2.273 . S
Cd16 O24 2.277 . S
O17 C14 1.160 . S
O17 Cd18 2.203 . S
Cd18 O17 2.203 . S
Cd18 O20 2.411 . S
Cd18 O21 2.333 . S
Cd18 O22 2.352 . S
Cd18 O26 2.277 . S
Cd18 O27 2.356 . S
C19 O24 1.209 . S
C19 O26 1.226 . S
O20 Cd16 2.273 . S
O20 Cd18 2.411 . S
O20 C23 1.320 . S
O21 Cd18 2.333 . S
O21 C23 1.214 . S
O22 Cd18 2.352 . S
O22 C25 1.258 . S
C23 O20 1.320 . S
C23 O21 1.214 . S
O24 Cd16 2.277 . S
O24 C19 1.209 . S
C25 O22 1.258 . S
C25 O27 1.282 . S
O26 Cd18 2.277 . S
O26 C19 1.226 . S
O27 Cd18 2.356 . S
O27 C25 1.282 . S
C28 O29 1.306 . S
C28 O31 1.160 . S
O29 C28 1.306 . S
O29 Cd30 2.228 . S
Cd30 O29 2.228 . S
Cd30 O34 2.273 . S
Cd30 O38 2.277 . S
O31 C28 1.160 . S
O31 Cd32 2.203 . S
Cd32 O31 2.203 . S
Cd32 O34 2.411 . S
Cd32 O35 2.333 . S
Cd32 O36 2.352 . S
Cd32 O40 2.277 . S
Cd32 O41 2.356 . S
C33 O38 1.209 . S
C33 O40 1.226 . S
O34 Cd30 2.273 . S
O34 Cd32 2.411 . S
O34 C37 1.320 . S
O35 Cd32 2.333 . S
O35 C37 1.214 . S
O36 Cd32 2.352 . S
O36 C39 1.258 . S
C37 O34 1.320 . S
C37 O35 1.214 . S
O38 Cd30 2.277 . S
O38 C33 1.209 . S
C39 O36 1.258 . S
C39 O41 1.282 . S
O40 Cd32 2.277 . S
O40 C33 1.226 . S
O41 Cd32 2.356 . S
O41 C39 1.282 . S
C42 O43 1.306 . S
C42 O45 1.160 . S
O43 C42 1.306 . S
O43 Cd44 2.228 . S
Cd44 O43 2.228 . S
Cd44 O48 2.273 . S
Cd44 O52 2.277 . S
O45 C42 1.160 . S
O45 Cd46 2.203 . S
Cd46 O45 2.203 . S
Cd46 O48 2.411 . S
Cd46 O49 2.333 . S
Cd46 O50 2.352 . S
Cd46 O54 2.277 . S
Cd46 O55 2.356 . S
C47 O52 1.209 . S
C47 O54 1.226 . S
O48 Cd44 2.273 . S
O48 Cd46 2.411 . S
O48 C51 1.320 . S
O49 Cd46 2.333 . S
O49 C51 1.214 . S
O50 Cd46 2.352 . S
O50 C53 1.258 . S
C51 O48 1.320 . S
C51 O49 1.214 . S
O52 Cd44 2.277 . S
O52 C47 1.209 . S
C53 O50 1.258 . S
C53 O55 1.282 . S
O54 Cd46 2.277 . S
O54 C47 1.226 . S
O55 Cd46 2.356 . S
O55 C53 1.282 . S
C56 O57 1.306 . S
C56 O59 1.160 . S
O57 C56 1.306 . S
O57 Cd58 2.228 . S
Cd58 O57 2.228 . S
Cd58 O62 2.273 . S
Cd58 O66 2.277 . S
O59 C56 1.160 . S
O59 Cd60 2.203 . S
Cd60 O59 2.203 . S
Cd60 O62 2.411 . S
Cd60 O63 2.333 . S
Cd60 O64 2.352 . S
Cd60 O68 2.277 . S
Cd60 O69 2.356 . S
C61 O66 1.209 . S
C61 O68 1.226 . S
O62 Cd58 2.273 . S
O62 Cd60 2.411 . S
O62 C65 1.320 . S
O63 Cd60 2.333 . S
O63 C65 1.214 . S
O64 Cd60 2.352 . S
O64 C67 1.258 . S
C65 O62 1.320 . S
C65 O63 1.214 . S
O66 Cd58 2.277 . S
O66 C61 1.209 . S
C67 O64 1.258 . S
C67 O69 1.282 . S
O68 Cd60 2.277 . S
O68 C61 1.226 . S
O69 Cd60 2.356 . S
O69 C67 1.282 . S
C70 O71 1.306 . S
C70 O73 1.160 . S
O71 C70 1.306 . S
O71 Cd72 2.228 . S
Cd72 O71 2.228 . S
Cd72 O76 2.273 . S
Cd72 O80 2.277 . S
O73 C70 1.160 . S
O73 Cd74 2.203 . S
Cd74 O73 2.203 . S
Cd74 O76 2.411 . S
Cd74 O77 2.333 . S
Cd74 O78 2.352 . S
Cd74 O82 2.277 . S
Cd74 O83 2.356 . S
C75 O80 1.209 . S
C75 O82 1.226 . S
O76 Cd72 2.273 . S
O76 Cd74 2.411 . S
O76 C79 1.320 . S
O77 Cd74 2.333 . S
O77 C79 1.214 . S
O78 Cd74 2.352 . S
O78 C81 1.258 . S
C79 O76 1.320 . S
C79 O77 1.214 . S
O80 Cd72 2.277 . S
O80 C75 1.209 . S
C81 O78 1.258 . S
C81 O83 1.282 . S
O82 Cd74 2.277 . S
O82 C75 1.226 . S
O83 Cd74 2.356 . S
O83 C81 1.282 . S
C84 O85 1.306 . S
C84 O87 1.160 . S
O85 C84 1.306 . S
O85 Cd86 2.228 . S
Cd86 O85 2.228 . S
Cd86 O90 2.273 . S
Cd86 O94 2.277 . S
O87 C84 1.160 . S
O87 Cd88 2.203 . S
Cd88 O87 2.203 . S
Cd88 O90 2.411 . S
Cd88 O91 2.333 . S
Cd88 O92 2.352 . S
Cd88 O96 2.277 . S
Cd88 O97 2.356 . S
C89 O94 1.209 . S
C89 O96 1.226 . S
O90 Cd86 2.273 . S
O90 Cd88 2.411 . S
O90 C93 1.320 . S
O91 Cd88 2.333 . S
O91 C93 1.214 . S
O92 Cd88 2.352 . S
O92 C95 1.258 . S
C93 O90 1.320 . S
C93 O91 1.214 . S
O94 Cd86 2.277 . S
O94 C89 1.209 . S
C95 O92 1.258 . S
C95 O97 1.282 . S
O96 Cd88 2.277 . S
O96 C89 1.226 . S
O97 Cd88 2.356 . S
O97 C95 1.282 . S
C98 O99 1.306 . S
C98 O101 1.160 . S
O99 C98 1.306 . S
O99 Cd100 2.228 . S
Cd100 O99 2.228 . S
Cd100 O104 2.273 . S
Cd100 O108 2.277 . S
O101 C98 1.160 . S
O101 Cd102 2.203 . S
Cd102 O101 2.203 . S
Cd102 O104 2.411 . S
Cd102 O105 2.333 . S
Cd102 O106 2.352 . S
Cd102 O110 2.277 . S
Cd102 O111 2.356 . S
C103 O108 1.209 . S
C103 O110 1.226 . S
O104 Cd100 2.273 . S
O104 Cd102 2.411 . S
O104 C107 1.320 . S
O105 Cd102 2.333 . S
O105 C107 1.214 . S
O106 Cd102 2.352 . S
O106 C109 1.258 . S
C107 O104 1.320 . S
C107 O105 1.214 . S
O108 Cd100 2.277 . S
O108 C103 1.209 . S
C109 O106 1.258 . S
C109 O111 1.282 . S
O110 Cd102 2.277 . S
O110 C103 1.226 . S
O111 Cd102 2.356 . S
O111 C109 1.282 . S
C112 O113 1.306 . S
C112 O115 1.160 . S
O113 C112 1.306 . S
O113 Cd114 2.228 . S
Cd114 O113 2.228 . S
Cd114 O118 2.273 . S
Cd114 O122 2.277 . S
O115 C112 1.160 . S
O115 Cd116 2.203 . S
Cd116 O115 2.203 . S
Cd116 O118 2.411 . S
Cd116 O119 2.333 . S
Cd116 O120 2.352 . S
Cd116 O124 2.277 . S
Cd116 O125 2.356 . S
C117 O122 1.209 . S
C117 O124 1.226 . S
O118 Cd114 2.273 . S
O118 Cd116 2.411 . S
O118 C121 1.320 . S
O119 Cd116 2.333 . S
O119 C121 1.214 . S
O120 Cd116 2.352 . S
O120 C123 1.258 . S
C121 O118 1.320 . S
C121 O119 1.214 . S
O122 Cd114 2.277 . S
O122 C117 1.209 . S
C123 O120 1.258 . S
C123 O125 1.282 . S
O124 Cd116 2.277 . S
O124 C117 1.226 . S
O125 Cd116 2.356 . S
O125 C123 1.282 . S
C126 O127 1.306 . S
C126 O129 1.160 . S
O127 C126 1.306 . S
O127 Cd128 2.228 . S
Cd128 O127 2.228 . S
Cd128 O132 2.273 . S
Cd128 O136 2.277 . S
O129 C126 1.160 . S
O129 Cd130 2.203 . S
Cd130 O129 2.203 . S
Cd130 O132 2.411 . S
Cd130 O133 2.333 . S
Cd130 O134 2.352 . S
Cd130 O138 2.277 . S
Cd130 O139 2.356 . S
C131 O136 1.209 . S
C131 O138 1.226 . S
O132 Cd128 2.273 . S
O132 Cd130 2.411 . S
O132 C135 1.320 . S
O133 Cd130 2.333 . S
O133 C135 1.214 . S
O134 Cd130 2.352 . S
O134 C137 1.258 . S
C135 O132 1.320 . S
C135 O133 1.214 . S
O136 Cd128 2.277 . S
O136 C131 1.209 . S
C137 O134 1.258 . S
C137 O139 1.282 . S
O138 Cd130 2.277 . S
O138 C131 1.226 . S
O139 Cd130 2.356 . S
O139 C137 1.282 . S
C140 O141 1.306 . S
C140 O143 1.160 . S
O141 C140 1.306 . S
O141 Cd142 2.228 . S
Cd142 O141 2.228 . S
Cd142 O146 2.273 . S
Cd142 O150 2.277 . S
O143 C140 1.160 . S
O143 Cd144 2.203 . S
Cd144 O143 2.203 . S
Cd144 O146 2.411 . S
Cd144 O147 2.333 . S
Cd144 O148 2.352 . S
Cd144 O152 2.277 . S
Cd144 O153 2.356 . S
C145 O150 1.209 . S
C145 O152 1.226 . S
O146 Cd142 2.273 . S
O146 Cd144 2.411 . S
O146 C149 1.320 . S
O147 Cd144 2.333 . S
O147 C149 1.214 . S
O148 Cd144 2.352 . S
O148 C151 1.258 . S
C149 O146 1.320 . S
C149 O147 1.214 . S
O150 Cd142 2.277 . S
O150 C145 1.209 . S
C151 O148 1.258 . S
C151 O153 1.282 . S
O152 Cd144 2.277 . S
O152 C145 1.226 . S
O153 Cd144 2.356 . S
O153 C151 1.282 . S
C154 O155 1.306 . S
C154 O157 1.160 . S
O155 C154 1.306 . S
O155 Cd156 2.228 . S
Cd156 O155 2.228 . S
Cd156 O160 2.273 . S
Cd156 O164 2.277 . S
O157 C154 1.160 . S
O157 Cd158 2.203 . S
Cd158 O157 2.203 . S
Cd158 O160 2.411 . S
Cd158 O161 2.333 . S
Cd158 O162 2.352 . S
Cd158 O166 2.277 . S
Cd158 O167 2.356 . S
C159 O164 1.209 . S
C159 O166 1.226 . S
O160 Cd156 2.273 . S
O160 Cd158 2.411 . S
O160 C163 1.320 . S
O161 Cd158 2.333 . S
O161 C163 1.214 . S
O162 Cd158 2.352 . S
O162 C165 1.258 . S
C163 O160 1.320 . S
C163 O161 1.214 . S
O164 Cd156 2.277 . S
O164 C159 1.209 . S
C165 O162 1.258 . S
C165 O167 1.282 . S
O166 Cd158 2.277 . S
O166 C159 1.226 . S
O167 Cd158 2.356 . S
O167 C165 1.282 . S
C168 O169 1.306 . S
C168 O171 1.160 . S
O169 C168 1.306 . S
O169 Cd170 2.228 . S
Cd170 O169 2.228 . S
Cd170 O174 2.273 . S
Cd170 O178 2.277 . S
O171 C168 1.160 . S
O171 Cd172 2.203 . S
Cd172 O171 2.203 . S
Cd172 O174 2.411 . S
Cd172 O175 2.333 . S
Cd172 O176 2.352 . S
Cd172 O180 2.277 . S
Cd172 O181 2.356 . S
C173 O178 1.209 . S
C173 O180 1.226 . S
O174 Cd170 2.273 . S
O174 Cd172 2.411 . S
O174 C177 1.320 . S
O175 Cd172 2.333 . S
O175 C177 1.214 . S
O176 Cd172 2.352 . S
O176 C179 1.258 . S
C177 O174 1.320 . S
C177 O175 1.214 . S
O178 Cd170 2.277 . S
O178 C173 1.209 . S
C179 O176 1.258 . S
C179 O181 1.282 . S
O180 Cd172 2.277 . S
O180 C173 1.226 . S
O181 Cd172 2.356 . S
O181 C179 1.282 . S
C182 O183 1.306 . S
C182 O185 1.160 . S
O183 C182 1.306 . S
O183 Cd184 2.228 . S
Cd184 O183 2.228 . S
Cd184 O188 2.273 . S
Cd184 O192 2.277 . S
O185 C182 1.160 . S
O185 Cd186 2.203 . S
Cd186 O185 2.203 . S
Cd186 O188 2.411 . S
Cd186 O189 2.333 . S
Cd186 O190 2.352 . S
Cd186 O194 2.277 . S
Cd186 O195 2.356 . S
C187 O192 1.209 . S
C187 O194 1.226 . S
O188 Cd184 2.273 . S
O188 Cd186 2.411 . S
O188 C191 1.320 . S
O189 Cd186 2.333 . S
O189 C191 1.214 . S
O190 Cd186 2.352 . S
O190 C193 1.258 . S
C191 O188 1.320 . S
C191 O189 1.214 . S
O192 Cd184 2.277 . S
O192 C187 1.209 . S
C193 O190 1.258 . S
C193 O195 1.282 . S
O194 Cd186 2.277 . S
O194 C187 1.226 . S
O195 Cd186 2.356 . S
O195 C193 1.282 . S
C196 O197 1.306 . S
C196 O199 1.160 . S
O197 C196 1.306 . S
O197 Cd198 2.228 . S
Cd198 O197 2.228 . S
Cd198 O202 2.273 . S
Cd198 O206 2.277 . S
O199 C196 1.160 . S
O199 Cd200 2.203 . S
Cd200 O199 2.203 . S
Cd200 O202 2.411 . S
Cd200 O203 2.333 . S
Cd200 O204 2.352 . S
Cd200 O208 2.277 . S
Cd200 O209 2.356 . S
C201 O206 1.209 . S
C201 O208 1.226 . S
O202 Cd198 2.273 . S
O202 Cd200 2.411 . S
O202 C205 1.320 . S
O203 Cd200 2.333 . S
O203 C205 1.214 . S
O204 Cd200 2.352 . S
O204 C207 1.258 . S
C205 O202 1.320 . S
C205 O203 1.214 . S
O206 Cd198 2.277 . S
O206 C201 1.209 . S
C207 O204 1.258 . S
C207 O209 1.282 . S
O208 Cd200 2.277 . S
O208 C201 1.226 . S
O209 Cd200 2.356 . S
O209 C207 1.282 . S
C210 O211 1.306 . S
C210 O213 1.160 . S
O211 C210 1.306 . S
O211 Cd212 2.228 . S
Cd212 O211 2.228 . S
Cd212 O216 2.273 . S
Cd212 O220 2.277 . S
O213 C210 1.160 . S
O213 Cd214 2.203 . S
Cd214 O213 2.203 . S
Cd214 O216 2.411 . S
Cd214 O217 2.333 . S
Cd214 O218 2.352 . S
Cd214 O222 2.277 . S
Cd214 O223 2.356 . S
C215 O220 1.209 . S
C215 O222 1.226 . S
O216 Cd212 2.273 . S
O216 Cd214 2.411 . S
O216 C219 1.320 . S
O217 Cd214 2.333 . S
O217 C219 1.214 . S
O218 Cd214 2.352 . S
O218 C221 1.258 . S
C219 O216 1.320 . S
C219 O217 1.214 . S
O220 Cd212 2.277 . S
O220 C215 1.209 . S
C221 O218 1.258 . S
C221 O223 1.282 . S
O222 Cd214 2.277 . S
O222 C215 1.226 . S
O223 Cd214 2.356 . S
O223 C221 1.282 . S
C224 O225 1.306 . S
C224 O227 1.160 . S
O225 C224 1.306 . S
O225 Cd226 2.228 . S
Cd226 O225 2.228 . S
Cd226 O230 2.273 . S
Cd226 O234 2.277 . S
O227 C224 1.160 . S
O227 Cd228 2.203 . S
Cd228 O227 2.203 . S
Cd228 O230 2.411 . S
Cd228 O231 2.333 . S
Cd228 O232 2.352 . S
Cd228 O236 2.277 . S
Cd228 O237 2.356 . S
C229 O234 1.209 . S
C229 O236 1.226 . S
O230 Cd226 2.273 . S
O230 Cd228 2.411 . S
O230 C233 1.320 . S
O231 Cd228 2.333 . S
O231 C233 1.214 . S
O232 Cd228 2.352 . S
O232 C235 1.258 . S
C233 O230 1.320 . S
C233 O231 1.214 . S
O234 Cd226 2.277 . S
O234 C229 1.209 . S
C235 O232 1.258 . S
C235 O237 1.282 . S
O236 Cd228 2.277 . S
O236 C229 1.226 . S
O237 Cd228 2.356 . S
O237 C235 1.282 . S
C238 O239 1.306 . S
C238 O241 1.160 . S
O239 C238 1.306 . S
O239 Cd240 2.228 . S
Cd240 O239 2.228 . S
Cd240 O244 2.273 . S
Cd240 O248 2.277 . S
O241 C238 1.160 . S
O241 Cd242 2.203 . S
Cd242 O241 2.203 . S
Cd242 O244 2.411 . S
Cd242 O245 2.333 . S
Cd242 O246 2.352 . S
Cd242 O250 2.277 . S
Cd242 O251 2.356 . S
C243 O248 1.209 . S
C243 O250 1.226 . S
O244 Cd240 2.273 . S
O244 Cd242 2.411 . S
O244 C247 1.320 . S
O245 Cd242 2.333 . S
O245 C247 1.214 . S
O246 Cd242 2.352 . S
O246 C249 1.258 . S
C247 O244 1.320 . S
C247 O245 1.214 . S
O248 Cd240 2.277 . S
O248 C243 1.209 . S
C249 O246 1.258 . S
C249 O251 1.282 . S
O250 Cd242 2.277 . S
O250 C243 1.226 . S
O251 Cd242 2.356 . S
O251 C249 1.282 . S
C252 O253 1.306 . S
C252 O255 1.160 . S
O253 C252 1.306 . S
O253 Cd254 2.228 . S
Cd254 O253 2.228 . S
Cd254 O258 2.273 . S
Cd254 O262 2.277 . S
O255 C252 1.160 . S
O255 Cd256 2.203 . S
Cd256 O255 2.203 . S
Cd256 O258 2.411 . S
Cd256 O259 2.333 . S
Cd256 O260 2.352 . S
Cd256 O264 2.277 . S
Cd256 O265 2.356 . S
C257 O262 1.209 . S
C257 O264 1.226 . S
O258 Cd254 2.273 . S
O258 Cd256 2.411 . S
O258 C261 1.320 . S
O259 Cd256 2.333 . S
O259 C261 1.214 . S
O260 Cd256 2.352 . S
O260 C263 1.258 . S
C261 O258 1.320 . S
C261 O259 1.214 . S
O262 Cd254 2.277 . S
O262 C257 1.209 . S
C263 O260 1.258 . S
C263 O265 1.282 . S
O264 Cd256 2.277 . S
O264 C257 1.226 . S
O265 Cd256 2.356 . S
O265 C263 1.282 . S
C266 O267 1.306 . S
C266 O269 1.160 . S
O267 C266 1.306 . S
O267 Cd268 2.228 . S
Cd268 O267 2.228 . S
Cd268 O272 2.273 . S
Cd268 O276 2.277 . S
O269 C266 1.160 . S
O269 Cd270 2.203 . S
Cd270 O269 2.203 . S
Cd270 O272 2.411 . S
Cd270 O273 2.333 . S
Cd270 O274 2.352 . S
Cd270 O278 2.277 . S
Cd270 O279 2.356 . S
C271 O276 1.209 . S
C271 O278 1.226 . S
O272 Cd268 2.273 . S
O272 Cd270 2.411 . S
O272 C275 1.320 . S
O273 Cd270 2.333 . S
O273 C275 1.214 . S
O274 Cd270 2.352 . S
O274 C277 1.258 . S
C275 O272 1.320 . S
C275 O273 1.214 . S
O276 Cd268 2.277 . S
O276 C271 1.209 . S
C277 O274 1.258 . S
C277 O279 1.282 . S
O278 Cd270 2.277 . S
O278 C271 1.226 . S
O279 Cd270 2.356 . S
O279 C277 1.282 . S
C280 O281 1.306 . S
C280 O283 1.160 . S
O281 C280 1.306 . S
O281 Cd282 2.228 . S
Cd282 O281 2.228 . S
Cd282 O286 2.273 . S
Cd282 O290 2.277 . S
O283 C280 1.160 . S
O283 Cd284 2.203 . S
Cd284 O283 2.203 . S
Cd284 O286 2.411 . S
Cd284 O287 2.333 . S
Cd284 O288 2.352 . S
Cd284 O292 2.277 . S
Cd284 O293 2.356 . S
C285 O290 1.209 . S
C285 O292 1.226 . S
O286 Cd282 2.273 . S
O286 Cd284 2.411 . S
O286 C289 1.320 . S
O287 Cd284 2.333 . S
O287 C289 1.214 . S
O288 Cd284 2.352 . S
O288 C291 1.258 . S
C289 O286 1.320 . S
C289 O287 1.214 . S
O290 Cd282 2.277 . S
O290 C285 1.209 . S
C291 O288 1.258 . S
C291 O293 1.282 . S
O292 Cd284 2.277 . S
O292 C285 1.226 . S
O293 Cd284 2.356 . S
O293 C291 1.282 . S
C294 O295 1.306 . S
C294 O297 1.160 . S
O295 C294 1.306 . S
O295 Cd296 2.228 . S
Cd296 O295 2.228 . S
Cd296 O300 2.273 . S
Cd296 O304 2.277 . S
O297 C294 1.160 . S
O297 Cd298 2.203 . S
Cd298 O297 2.203 . S
Cd298 O300 2.411 . S
Cd298 O301 2.333 . S
Cd298 O302 2.352 . S
Cd298 O306 2.277 . S
Cd298 O307 2.356 . S
C299 O304 1.209 . S
C299 O306 1.226 . S
O300 Cd296 2.273 . S
O300 Cd298 2.411 . S
O300 C303 1.320 . S
O301 Cd298 2.333 . S
O301 C303 1.214 . S
O302 Cd298 2.352 . S
O302 C305 1.258 . S
C303 O300 1.320 . S
C303 O301 1.214 . S
O304 Cd296 2.277 . S
O304 C299 1.209 . S
C305 O302 1.258 . S
C305 O307 1.282 . S
O306 Cd298 2.277 . S
O306 C299 1.226 . S
O307 Cd298 2.356 . S
O307 C305 1.282 . S
C308 O309 1.306 . S
C308 O311 1.160 . S
O309 C308 1.306 . S
O309 Cd310 2.228 . S
Cd310 O309 2.228 . S
Cd310 O314 2.273 . S
Cd310 O318 2.277 . S
O311 C308 1.160 . S
O311 Cd312 2.203 . S
Cd312 O311 2.203 . S
Cd312 O314 2.411 . S
Cd312 O315 2.333 . S
Cd312 O316 2.352 . S
Cd312 O320 2.277 . S
Cd312 O321 2.356 . S
C313 O318 1.209 . S
C313 O320 1.226 . S
O314 Cd310 2.273 . S
O314 Cd312 2.411 . S
O314 C317 1.320 . S
O315 Cd312 2.333 . S
O315 C317 1.214 . S
O316 Cd312 2.352 . S
O316 C319 1.258 . S
C317 O314 1.320 . S
C317 O315 1.214 . S
O318 Cd310 2.277 . S
O318 C313 1.209 . S
C319 O316 1.258 . S
C319 O321 1.282 . S
O320 Cd312 2.277 . S
O320 C313 1.226 . S
O321 Cd312 2.356 . S
O321 C319 1.282 . S
C322 O323 1.306 . S
C322 O325 1.160 . S
O323 C322 1.306 . S
O323 Cd324 2.228 . S
Cd324 O323 2.228 . S
Cd324 O328 2.273 . S
Cd324 O332 2.277 . S
O325 C322 1.160 . S
O325 Cd326 2.203 . S
Cd326 O325 2.203 . S
Cd326 O328 2.411 . S
Cd326 O329 2.333 . S
Cd326 O330 2.352 . S
Cd326 O334 2.277 . S
Cd326 O335 2.356 . S
C327 O332 1.209 . S
C327 O334 1.226 . S
O328 Cd324 2.273 . S
O328 Cd326 2.411 . S
O328 C331 1.320 . S
O329 Cd326 2.333 . S
O329 C331 1.214 . S
O330 Cd326 2.352 . S
O330 C333 1.258 . S
C331 O328 1.320 . S
C331 O329 1.214 . S
O332 Cd324 2.277 . S
O332 C327 1.209 . S
C333 O330 1.258 . S
C333 O335 1.282 . S
O334 Cd326 2.277 . S
O334 C327 1.226 . S
O335 Cd326 2.356 . S
O335 C333 1.282 . S
C336 O337 1.306 . S
C336 O339 1.160 . S
O337 C336 1.306 . S
O337 Cd338 2.228 . S
Cd338 O337 2.228 . S
Cd338 O342 2.273 . S
Cd338 O346 2.277 . S
O339 C336 1.160 . S
O339 Cd340 2.203 . S
Cd340 O339 2.203 . S
Cd340 O342 2.411 . S
Cd340 O343 2.333 . S
Cd340 O344 2.352 . S
Cd340 O348 2.277 . S
Cd340 O349 2.356 . S
C341 O346 1.209 . S
C341 O348 1.226 . S
O342 Cd338 2.273 . S
O342 Cd340 2.411 . S
O342 C345 1.320 . S
O343 Cd340 2.333 . S
O343 C345 1.214 . S
O344 Cd340 2.352 . S
O344 C347 1.258 . S
C345 O342 1.320 . S
C345 O343 1.214 . S
O346 Cd338 2.277 . S
O346 C341 1.209 . S
C347 O344 1.258 . S
C347 O349 1.282 . S
O348 Cd340 2.277 . S
O348 C341 1.226 . S
O349 Cd340 2.356 . S
O349 C347 1.282 . S
C350 O351 1.306 . S
C350 O353 1.160 . S
O351 C350 1.306 . S
O351 Cd352 2.228 . S
Cd352 O351 2.228 . S
Cd352 O356 2.273 . S
Cd352 O360 2.277 . S
O353 C350 1.160 . S
O353 Cd354 2.203 . S
Cd354 O353 2.203 . S
Cd354 O356 2.411 . S
Cd354 O357 2.333 . S
Cd354 O358 2.352 . S
Cd354 O362 2.277 . S
Cd354 O363 2.356 . S
C355 O360 1.209 . S
C355 O362 1.226 . S
O356 Cd352 2.273 . S
O356 Cd354 2.411 . S
O356 C359 1.320 . S
O357 Cd354 2.333 . S
O357 C359 1.214 . S
O358 Cd354 2.352 . S
O358 C361 1.258 . S
C359 O356 1.320 . S
C359 O357 1.214 . S
O360 Cd352 2.277 . S
O360 C355 1.209 . S
C361 O358 1.258 . S
C361 O363 1.282 . S
O362 Cd354 2.277 . S
O362 C355 1.226 . S
O363 Cd354 2.356 . S
O363 C361 1.282 . S
C364 O365 1.306 . S
C364 O367 1.160 . S
O365 C364 1.306 . S
O365 Cd366 2.228 . S
Cd366 O365 2.228 . S
Cd366 O370 2.273 . S
Cd366 O374 2.277 . S
O367 C364 1.160 . S
O367 Cd368 2.203 . S
Cd368 O367 2.203 . S
Cd368 O370 2.411 . S
Cd368 O371 2.333 . S
Cd368 O372 2.352 . S
Cd368 O376 2.277 . S
Cd368 O377 2.356 . S
C369 O374 1.209 . S
C369 O376 1.226 . S
O370 Cd366 2.273 . S
O370 Cd368 2.411 . S
O370 C373 1.320 . S
O371 Cd368 2.333 . S
O371 C373 1.214 . S
O372 Cd368 2.352 . S
O372 C375 1.258 . S
C373 O370 1.320 . S
C373 O371 1.214 . S
O374 Cd366 2.277 . S
O374 C369 1.209 . S
C375 O372 1.258 . S
C375 O377 1.282 . S
O376 Cd368 2.277 . S
O376 C369 1.226 . S
O377 Cd368 2.356 . S
O377 C375 1.282 . S
C378 O379 1.306 . S
C378 O381 1.160 . S
O379 C378 1.306 . S
O379 Cd380 2.228 . S
Cd380 O379 2.228 . S
Cd380 O384 2.273 . S
Cd380 O388 2.277 . S
O381 C378 1.160 . S
O381 Cd382 2.203 . S
Cd382 O381 2.203 . S
Cd382 O384 2.411 . S
Cd382 O385 2.333 . S
Cd382 O386 2.352 . S
Cd382 O390 2.277 . S
Cd382 O391 2.356 . S
C383 O388 1.209 . S
C383 O390 1.226 . S
O384 Cd380 2.273 . S
O384 Cd382 2.411 . S
O384 C387 1.320 . S
O385 Cd382 2.333 . S
O385 C387 1.214 . S
O386 Cd382 2.352 . S
O386 C389 1.258 . S
C387 O384 1.320 . S
C387 O385 1.214 . S
O388 Cd380 2.277 . S
O388 C383 1.209 . S
C389 O386 1.258 . S
C389 O391 1.282 . S
O390 Cd382 2.277 . S
O390 C383 1.226 . S
O391 Cd382 2.356 . S
O391 C389 1.282 . S
C392 O393 1.306 . S
C392 O395 1.160 . S
O393 C392 1.306 . S
O393 Cd394 2.228 . S
Cd394 O393 2.228 . S
Cd394 O398 2.273 . S
Cd394 O402 2.277 . S
O395 C392 1.160 . S
O395 Cd396 2.203 . S
Cd396 O395 2.203 . S
Cd396 O398 2.411 . S
Cd396 O399 2.333 . S
Cd396 O400 2.352 . S
Cd396 O404 2.277 . S
Cd396 O405 2.356 . S
C397 O402 1.209 . S
C397 O404 1.226 . S
O398 Cd394 2.273 . S
O398 Cd396 2.411 . S
O398 C401 1.320 . S
O399 Cd396 2.333 . S
O399 C401 1.214 . S
O400 Cd396 2.352 . S
O400 C403 1.258 . S
C401 O398 1.320 . S
C401 O399 1.214 . S
O402 Cd394 2.277 . S
O402 C397 1.209 . S
C403 O400 1.258 . S
C403 O405 1.282 . S
O404 Cd396 2.277 . S
O404 C397 1.226 . S
O405 Cd396 2.356 . S
O405 C403 1.282 . S
C406 O407 1.306 . S
C406 O409 1.160 . S
O407 C406 1.306 . S
O407 Cd408 2.228 . S
Cd408 O407 2.228 . S
Cd408 O412 2.273 . S
Cd408 O416 2.277 . S
O409 C406 1.160 . S
O409 Cd410 2.203 . S
Cd410 O409 2.203 . S
Cd410 O412 2.411 . S
Cd410 O413 2.333 . S
Cd410 O414 2.352 . S
Cd410 O418 2.277 . S
Cd410 O419 2.356 . S
C411 O416 1.209 . S
C411 O418 1.226 . S
O412 Cd408 2.273 . S
O412 Cd410 2.411 . S
O412 C415 1.320 . S
O413 Cd410 2.333 . S
O413 C415 1.214 . S
O414 Cd410 2.352 . S
O414 C417 1.258 . S
C415 O412 1.320 . S
C415 O413 1.214 . S
O416 Cd408 2.277 . S
O416 C411 1.209 . S
C417 O414 1.258 . S
C417 O419 1.282 . S
O418 Cd410 2.277 . S
O418 C411 1.226 . S
O419 Cd410 2.356 . S
O419 C417 1.282 . S
C420 O421 1.306 . S
C420 O423 1.160 . S
O421 C420 1.306 . S
O421 Cd422 2.228 . S
Cd422 O421 2.228 . S
Cd422 O426 2.273 . S
Cd422 O430 2.277 . S
O423 C420 1.160 . S
O423 Cd424 2.203 . S
Cd424 O423 2.203 . S
Cd424 O426 2.411 . S
Cd424 O427 2.333 . S
Cd424 O428 2.352 . S
Cd424 O432 2.277 . S
Cd424 O433 2.356 . S
C425 O430 1.209 . S
C425 O432 1.226 . S
O426 Cd422 2.273 . S
O426 Cd424 2.411 . S
O426 C429 1.320 . S
O427 Cd424 2.333 . S
O427 C429 1.214 . S
O428 Cd424 2.352 . S
O428 C431 1.258 . S
C429 O426 1.320 . S
C429 O427 1.214 . S
O430 Cd422 2.277 . S
O430 C425 1.209 . S
C431 O428 1.258 . S
C431 O433 1.282 . S
O432 Cd424 2.277 . S
O432 C425 1.226 . S
O433 Cd424 2.356 . S
O433 C431 1.282 . S
C434 O435 1.306 . S
C434 O437 1.160 . S
O435 C434 1.306 . S
O435 Cd436 2.228 . S
Cd436 O435 2.228 . S
Cd436 O440 2.273 . S
Cd436 O444 2.277 . S
O437 C434 1.160 . S
O437 Cd438 2.203 . S
Cd438 O437 2.203 . S
Cd438 O440 2.411 . S
Cd438 O441 2.333 . S
Cd438 O442 2.352 . S
Cd438 O446 2.277 . S
Cd438 O447 2.356 . S
C439 O444 1.209 . S
C439 O446 1.226 . S
O440 Cd436 2.273 . S
O440 Cd438 2.411 . S
O440 C443 1.320 . S
O441 Cd438 2.333 . S
O441 C443 1.214 . S
O442 Cd438 2.352 . S
O442 C445 1.258 . S
C443 O440 1.320 . S
C443 O441 1.214 . S
O444 Cd436 2.277 . S
O444 C439 1.209 . S
C445 O442 1.258 . S
C445 O447 1.282 . S
O446 Cd438 2.277 . S
O446 C439 1.226 . S
O447 Cd438 2.356 . S
O447 C445 1.282 . S
C448 O449 1.306 . S
C448 O451 1.160 . S
O449 C448 1.306 . S
O449 Cd450 2.228 . S
Cd450 O449 2.228 . S
Cd450 O454 2.273 . S
Cd450 O458 2.277 . S
O451 C448 1.160 . S
O451 Cd452 2.203 . S
Cd452 O451 2.203 . S
Cd452 O454 2.411 . S
Cd452 O455 2.333 . S
Cd452 O456 2.352 . S
Cd452 O460 2.277 . S
Cd452 O461 2.356 . S
C453 O458 1.209 . S
C453 O460 1.226 . S
O454 Cd450 2.273 . S
O454 Cd452 2.411 . S
O454 C457 1.320 . S
O455 Cd452 2.333 . S
O455 C457 1.214 . S
O456 Cd452 2.352 . S
O456 C459 1.258 . S
C457 O454 1.320 . S
C457 O455 1.214 . S
O458 Cd450 2.277 . S
O458 C453 1.209 . S
C459 O456 1.258 . S
C459 O461 1.282 . S
O460 Cd452 2.277 . S
O460 C453 1.226 . S
O461 Cd452 2.356 . S
O461 C459 1.282 . S
C462 O463 1.306 . S
C462 O465 1.160 . S
O463 C462 1.306 . S
O463 Cd464 2.228 . S
Cd464 O463 2.228 . S
Cd464 O468 2.273 . S
Cd464 O472 2.277 . S
O465 C462 1.160 . S
O465 Cd466 2.203 . S
Cd466 O465 2.203 . S
Cd466 O468 2.411 . S
Cd466 O469 2.333 . S
Cd466 O470 2.352 . S
Cd466 O474 2.277 . S
Cd466 O475 2.356 . S
C467 O472 1.209 . S
C467 O474 1.226 . S
O468 Cd464 2.273 . S
O468 Cd466 2.411 . S
O468 C471 1.320 . S
O469 Cd466 2.333 . S
O469 C471 1.214 . S
O470 Cd466 2.352 . S
O470 C473 1.258 . S
C471 O468 1.320 . S
C471 O469 1.214 . S
O472 Cd464 2.277 . S
O472 C467 1.209 . S
C473 O470 1.258 . S
C473 O475 1.282 . S
O474 Cd466 2.277 . S
O474 C467 1.226 . S
O475 Cd466 2.356 . S
O475 C473 1.282 . S
C476 O477 1.306 . S
C476 O479 1.160 . S
O477 C476 1.306 . S
O477 Cd478 2.228 . S
Cd478 O477 2.228 . S
Cd478 O482 2.273 . S
Cd478 O486 2.277 . S
O479 C476 1.160 . S
O479 Cd480 2.203 . S
Cd480 O479 2.203 . S
Cd480 O482 2.411 . S
Cd480 O483 2.333 . S
Cd480 O484 2.352 . S
Cd480 O488 2.277 . S
Cd480 O489 2.356 . S
C481 O486 1.209 . S
C481 O488 1.226 . S
O482 Cd478 2.273 . S
O482 Cd480 2.411 . S
O482 C485 1.320 . S
O483 Cd480 2.333 . S
O483 C485 1.214 . S
O484 Cd480 2.352 . S
O484 C487 1.258 . S
C485 O482 1.320 . S
C485 O483 1.214 . S
O486 Cd478 2.277 . S
O486 C481 1.209 . S
C487 O484 1.258 . S
C487 O489 1.282 . S
O488 Cd480 2.277 . S
O488 C481 1.226 . S
O489 Cd480 2.356 . S
O489 C487 1.282 . S
C490 O491 1.306 . S
C490 O493 1.160 . S
O491 C490 1.306 . S
O491 Cd492 2.228 . S
Cd492 O491 2.228 . S
Cd492 O496 2.273 . S
Cd492 O500 2.277 . S
O493 C490 1.160 . S
O493 Cd494 2.203 . S
Cd494 O493 2.203 . S
Cd494 O496 2.411 . S
Cd494 O497 2.333 . S
Cd494 O498 2.352 . S
Cd494 O502 2.277 . S
Cd494 O503 2.356 . S
C495 O500 1.209 . S
C495 O502 1.226 . S
O496 Cd492 2.273 . S
O496 Cd494 2.411 . S
O496 C499 1.320 . S
O497 Cd494 2.333 . S
O497 C499 1.214 . S
O498 Cd494 2.352 . S
O498 C501 1.258 . S
C499 O496 1.320 . S
C499 O497 1.214 . S
O500 Cd492 2.277 . S
O500 C495 1.209 . S
C501 O498 1.258 . S
C501 O503 1.282 . S
O502 Cd494 2.277 . S
O502 C495 1.226 . S
O503 Cd494 2.356 . S
O503 C501 1.282 . S
H504 C512 0.950 . S
H505 C517 0.950 . S
H506 C514 0.950 . S
H507 C516 0.950 . S
H508 C518 0.950 . S
H509 C520 0.950 . S
H510 C522 0.950 . S
H511 C523 0.950 . S
C512 H504 0.950 . S
C512 C513 1.386 . S
C512 C514 1.391 . S
C513 C512 1.386 . S
C513 C517 1.393 . S
C514 H506 0.950 . S
C514 C512 1.391 . S
C514 C515 1.400 . S
C515 C514 1.400 . S
C515 C516 1.398 . S
C515 C521 1.491 1_565 S
C516 H507 0.950 . S
C516 C515 1.398 . S
C516 C517 1.391 . S
C517 H505 0.950 . S
C517 C513 1.393 . S
C517 C516 1.391 . S
C518 H508 0.950 . S
C518 C519 1.386 . S
C518 C520 1.391 . S
C519 C518 1.386 . S
C519 C523 1.393 . S
C520 H509 0.950 . S
C520 C518 1.391 . S
C520 C521 1.400 . S
C521 C515 1.491 1_545 S
C521 C520 1.400 . S
C521 C522 1.398 . S
C522 H510 0.950 . S
C522 C521 1.398 . S
C522 C523 1.391 . S
C523 H511 0.950 . S
C523 C519 1.393 . S
C523 C522 1.391 . S
H524 C532 0.950 . S
H525 C537 0.950 . S
H526 C534 0.950 . S
H527 C536 0.950 . S
H528 C538 0.950 . S
H529 C540 0.950 . S
H530 C542 0.950 . S
H531 C543 0.950 . S
C532 H524 0.950 . S
C532 C533 1.386 . S
C532 C534 1.391 . S
C533 C532 1.386 . S
C533 C537 1.393 . S
C534 H526 0.950 . S
C534 C532 1.391 . S
C534 C535 1.400 . S
C535 C534 1.400 . S
C535 C536 1.398 . S
C535 C541 1.491 1_455 S
C536 H527 0.950 . S
C536 C535 1.398 . S
C536 C537 1.391 . S
C537 H525 0.950 . S
C537 C533 1.393 . S
C537 C536 1.391 . S
C538 H528 0.950 . S
C538 C539 1.386 . S
C538 C540 1.391 . S
C539 C538 1.386 . S
C539 C543 1.393 . S
C540 H529 0.950 . S
C540 C538 1.391 . S
C540 C541 1.400 . S
C541 C535 1.491 1_655 S
C541 C540 1.400 . S
C541 C542 1.398 . S
C542 H530 0.950 . S
C542 C541 1.398 . S
C542 C543 1.391 . S
C543 H531 0.950 . S
C543 C539 1.393 . S
C543 C542 1.391 . S
H544 C552 0.950 . S
H545 C557 0.950 . S
H546 C554 0.950 . S
H547 C556 0.950 . S
H548 C558 0.950 . S
H549 C560 0.950 . S
H550 C562 0.950 . S
H551 C563 0.950 . S
C552 H544 0.950 . S
C552 C553 1.386 . S
C552 C554 1.391 . S
C553 C552 1.386 . S
C553 C557 1.393 . S
C554 H546 0.950 . S
C554 C552 1.391 . S
C554 C555 1.400 . S
C555 C554 1.400 . S
C555 C556 1.398 . S
C555 C561 1.491 . S
C556 H547 0.950 . S
C556 C555 1.398 . S
C556 C557 1.391 . S
C557 H545 0.950 . S
C557 C553 1.393 . S
C557 C556 1.391 . S
C558 H548 0.950 . S
C558 C559 1.386 . S
C558 C560 1.391 . S
C559 C558 1.386 . S
C559 C563 1.393 . S
C560 H549 0.950 . S
C560 C558 1.391 . S
C560 C561 1.400 . S
C561 C555 1.491 . S
C561 C560 1.400 . S
C561 C562 1.398 . S
C562 H550 0.950 . S
C562 C561 1.398 . S
C562 C563 1.391 . S
C563 H551 0.950 . S
C563 C559 1.393 . S
C563 C562 1.391 . S
H564 C572 0.950 . S
H565 C577 0.950 . S
H566 C574 0.950 . S
H567 C576 0.950 . S
H568 C578 0.950 . S
H569 C580 0.950 . S
H570 C582 0.950 . S
H571 C583 0.950 . S
C572 H564 0.950 . S
C572 C573 1.386 . S
C572 C574 1.391 . S
C573 C572 1.386 . S
C573 C577 1.393 . S
C574 H566 0.950 . S
C574 C572 1.391 . S
C574 C575 1.400 . S
C575 C574 1.400 . S
C575 C576 1.398 . S
C575 C581 1.491 1_565 S
C576 H567 0.950 . S
C576 C575 1.398 . S
C576 C577 1.391 . S
C577 H565 0.950 . S
C577 C573 1.393 . S
C577 C576 1.391 . S
C578 H568 0.950 . S
C578 C579 1.386 . S
C578 C580 1.391 . S
C579 C578 1.386 . S
C579 C583 1.393 . S
C580 H569 0.950 . S
C580 C578 1.391 . S
C580 C581 1.400 . S
C581 C575 1.491 1_545 S
C581 C580 1.400 . S
C581 C582 1.398 . S
C582 H570 0.950 . S
C582 C581 1.398 . S
C582 C583 1.391 . S
C583 H571 0.950 . S
C583 C579 1.393 . S
C583 C582 1.391 . S
H584 C592 0.950 . S
H585 C597 0.950 . S
H586 C594 0.950 . S
H587 C596 0.950 . S
H588 C598 0.950 . S
H589 C600 0.950 . S
H590 C602 0.950 . S
H591 C603 0.950 . S
C592 H584 0.950 . S
C592 C593 1.386 . S
C592 C594 1.391 . S
C593 C592 1.386 . S
C593 C597 1.393 . S
C594 H586 0.950 . S
C594 C592 1.391 . S
C594 C595 1.400 . S
C595 C594 1.400 . S
C595 C596 1.398 . S
C595 C601 1.491 1_455 S
C596 H587 0.950 . S
C596 C595 1.398 . S
C596 C597 1.391 . S
C597 H585 0.950 . S
C597 C593 1.393 . S
C597 C596 1.391 . S
C598 H588 0.950 . S
C598 C599 1.386 . S
C598 C600 1.391 . S
C599 C598 1.386 . S
C599 C603 1.393 . S
C600 H589 0.950 . S
C600 C598 1.391 . S
C600 C601 1.400 . S
C601 C595 1.491 1_655 S
C601 C600 1.400 . S
C601 C602 1.398 . S
C602 H590 0.950 . S
C602 C601 1.398 . S
C602 C603 1.391 . S
C603 H591 0.950 . S
C603 C599 1.393 . S
C603 C602 1.391 . S
H604 C612 0.950 . S
H605 C617 0.950 . S
H606 C614 0.950 . S
H607 C616 0.950 . S
H608 C618 0.950 . S
H609 C620 0.950 . S
H610 C622 0.950 . S
H611 C623 0.950 . S
C612 H604 0.950 . S
C612 C613 1.386 . S
C612 C614 1.391 . S
C613 C612 1.386 . S
C613 C617 1.393 . S
C614 H606 0.950 . S
C614 C612 1.391 . S
C614 C615 1.400 . S
C615 C614 1.400 . S
C615 C616 1.398 . S
C615 C621 1.491 . S
C616 H607 0.950 . S
C616 C615 1.398 . S
C616 C617 1.391 . S
C617 H605 0.950 . S
C617 C613 1.393 . S
C617 C616 1.391 . S
C618 H608 0.950 . S
C618 C619 1.386 . S
C618 C620 1.391 . S
C619 C618 1.386 . S
C619 C623 1.393 . S
C620 H609 0.950 . S
C620 C618 1.391 . S
C620 C621 1.400 . S
C621 C615 1.491 . S
C621 C620 1.400 . S
C621 C622 1.398 . S
C622 H610 0.950 . S
C622 C621 1.398 . S
C622 C623 1.391 . S
C623 H611 0.950 . S
C623 C619 1.393 . S
C623 C622 1.391 . S
H624 C632 0.950 . S
H625 C637 0.950 . S
H626 C634 0.950 . S
H627 C636 0.950 . S
H628 C638 0.950 . S
H629 C640 0.950 . S
H630 C642 0.950 . S
H631 C643 0.950 . S
C632 H624 0.950 . S
C632 C633 1.386 1_655 S
C632 C634 1.391 . S
C633 C632 1.386 1_455 S
C633 C637 1.393 . S
C634 H626 0.950 . S
C634 C632 1.391 . S
C634 C635 1.400 . S
C635 C634 1.400 . S
C635 C636 1.398 . S
C635 C641 1.491 . S
C636 H627 0.950 . S
C636 C635 1.398 . S
C636 C637 1.391 1_655 S
C637 H625 0.950 . S
C637 C633 1.393 . S
C637 C636 1.391 1_455 S
C638 H628 0.950 . S
C638 C639 1.386 . S
C638 C640 1.391 . S
C639 C638 1.386 . S
C639 C643 1.393 . S
C640 H629 0.950 . S
C640 C638 1.391 . S
C640 C641 1.400 . S
C641 C635 1.491 . S
C641 C640 1.400 . S
C641 C642 1.398 . S
C642 H630 0.950 . S
C642 C641 1.398 . S
C642 C643 1.391 . S
C643 H631 0.950 . S
C643 C639 1.393 . S
C643 C642 1.391 . S
H644 C652 0.950 . S
H645 C657 0.950 . S
H646 C654 0.950 . S
H647 C656 0.950 . S
H648 C658 0.950 . S
H649 C660 0.950 . S
H650 C662 0.950 . S
H651 C663 0.950 . S
C652 H644 0.950 . S
C652 C653 1.386 . S
C652 C654 1.391 . S
C653 C652 1.386 . S
C653 C657 1.393 . S
C654 H646 0.950 . S
C654 C652 1.391 . S
C654 C655 1.400 . S
C655 C654 1.400 . S
C655 C656 1.398 . S
C655 C661 1.491 . S
C656 H647 0.950 . S
C656 C655 1.398 . S
C656 C657 1.391 . S
C657 H645 0.950 . S
C657 C653 1.393 . S
C657 C656 1.391 . S
C658 H648 0.950 . S
C658 C659 1.386 . S
C658 C660 1.391 . S
C659 C658 1.386 . S
C659 C663 1.393 . S
C660 H649 0.950 . S
C660 C658 1.391 . S
C660 C661 1.400 . S
C661 C655 1.491 . S
C661 C660 1.400 . S
C661 C662 1.398 . S
C662 H650 0.950 . S
C662 C661 1.398 . S
C662 C663 1.391 . S
C663 H651 0.950 . S
C663 C659 1.393 . S
C663 C662 1.391 . S
H664 C672 0.950 . S
H665 C677 0.950 . S
H666 C674 0.950 . S
H667 C676 0.950 . S
H668 C678 0.950 . S
H669 C680 0.950 . S
H670 C682 0.950 . S
H671 C683 0.950 . S
C672 H664 0.950 . S
C672 C673 1.386 . S
C672 C674 1.391 . S
C673 C672 1.386 . S
C673 C677 1.393 . S
C674 H666 0.950 . S
C674 C672 1.391 . S
C674 C675 1.400 . S
C675 C674 1.400 . S
C675 C676 1.398 . S
C675 C681 1.491 . S
C676 H667 0.950 . S
C676 C675 1.398 . S
C676 C677 1.391 . S
C677 H665 0.950 . S
C677 C673 1.393 . S
C677 C676 1.391 . S
C678 H668 0.950 . S
C678 C679 1.386 1_545 S
C678 C680 1.391 . S
C679 C678 1.386 1_565 S
C679 C683 1.393 . S
C680 H669 0.950 . S
C680 C678 1.391 . S
C680 C681 1.400 . S
C681 C675 1.491 . S
C681 C680 1.400 . S
C681 C682 1.398 1_545 S
C682 H670 0.950 . S
C682 C681 1.398 1_565 S
C682 C683 1.391 . S
C683 H671 0.950 . S
C683 C679 1.393 . S
C683 C682 1.391 . S
H684 C692 0.950 . S
H685 C697 0.950 . S
H686 C694 0.950 . S
H687 C696 0.950 . S
H688 C698 0.950 . S
H689 C700 0.950 . S
H690 C702 0.950 . S
H691 C703 0.950 . S
C692 H684 0.950 . S
C692 C693 1.386 . S
C692 C694 1.391 . S
C693 C692 1.386 . S
C693 C697 1.393 . S
C694 H686 0.950 . S
C694 C692 1.391 . S
C694 C695 1.400 . S
C695 C694 1.400 . S
C695 C696 1.398 . S
C695 C701 1.491 . S
C696 H687 0.950 . S
C696 C695 1.398 . S
C696 C697 1.391 . S
C697 H685 0.950 . S
C697 C693 1.393 . S
C697 C696 1.391 . S
C698 H688 0.950 . S
C698 C699 1.386 . S
C698 C700 1.391 . S
C699 C698 1.386 . S
C699 C703 1.393 . S
C700 H689 0.950 . S
C700 C698 1.391 . S
C700 C701 1.400 . S
C701 C695 1.491 . S
C701 C700 1.400 . S
C701 C702 1.398 . S
C702 H690 0.950 . S
C702 C701 1.398 . S
C702 C703 1.391 . S
C703 H691 0.950 . S
C703 C699 1.393 . S
C703 C702 1.391 . S
H704 C712 0.950 . S
H705 C717 0.950 . S
H706 C714 0.950 . S
H707 C716 0.950 . S
H708 C718 0.950 . S
H709 C720 0.950 . S
H710 C722 0.950 . S
H711 C723 0.950 . S
C712 H704 0.950 . S
C712 C713 1.386 . S
C712 C714 1.391 1_565 S
C713 C712 1.386 . S
C713 C717 1.393 . S
C714 H706 0.950 . S
C714 C712 1.391 1_545 S
C714 C715 1.400 . S
C715 C714 1.400 . S
C715 C716 1.398 . S
C715 C721 1.491 . S
C716 H707 0.950 . S
C716 C715 1.398 . S
C716 C717 1.391 1_545 S
C717 H705 0.950 . S
C717 C713 1.393 . S
C717 C716 1.391 1_565 S
C718 H708 0.950 . S
C718 C719 1.386 . S
C718 C720 1.391 . S
C719 C718 1.386 . S
C719 C723 1.393 . S
C720 H709 0.950 . S
C720 C718 1.391 . S
C720 C721 1.400 . S
C721 C715 1.491 . S
C721 C720 1.400 . S
C721 C722 1.398 . S
C722 H710 0.950 . S
C722 C721 1.398 . S
C722 C723 1.391 . S
C723 H711 0.950 . S
C723 C719 1.393 . S
C723 C722 1.391 . S
H724 C732 0.950 . S
H725 C737 0.950 . S
H726 C734 0.950 . S
H727 C736 0.950 . S
H728 C738 0.950 . S
H729 C740 0.950 . S
H730 C742 0.950 . S
H731 C743 0.950 . S
C732 H724 0.950 . S
C732 C733 1.386 . S
C732 C734 1.391 . S
C733 C732 1.386 . S
C733 C737 1.393 . S
C734 H726 0.950 . S
C734 C732 1.391 . S
C734 C735 1.400 . S
C735 C734 1.400 . S
C735 C736 1.398 . S
C735 C741 1.491 . S
C736 H727 0.950 . S
C736 C735 1.398 . S
C736 C737 1.391 . S
C737 H725 0.950 . S
C737 C733 1.393 . S
C737 C736 1.391 . S
C738 H728 0.950 . S
C738 C739 1.386 1_655 S
C738 C740 1.391 . S
C739 C738 1.386 1_455 S
C739 C743 1.393 . S
C740 H729 0.950 . S
C740 C738 1.391 . S
C740 C741 1.400 . S
C741 C735 1.491 . S
C741 C740 1.400 . S
C741 C742 1.398 . S
C742 H730 0.950 . S
C742 C741 1.398 . S
C742 C743 1.391 1_655 S
C743 H731 0.950 . S
C743 C739 1.393 . S
C743 C742 1.391 1_455 S
H744 C752 0.950 . S
H745 C757 0.950 . S
H746 C754 0.950 . S
H747 C756 0.950 . S
H748 C758 0.950 . S
H749 C760 0.950 . S
H750 C762 0.950 . S
H751 C763 0.950 . S
C752 H744 0.950 . S
C752 C753 1.386 . S
C752 C754 1.391 . S
C753 C752 1.386 . S
C753 C757 1.393 . S
C754 H746 0.950 . S
C754 C752 1.391 . S
C754 C755 1.400 . S
C755 C754 1.400 . S
C755 C756 1.398 . S
C755 C761 1.491 . S
C756 H747 0.950 . S
C756 C755 1.398 . S
C756 C757 1.391 . S
C757 H745 0.950 . S
C757 C753 1.393 . S
C757 C756 1.391 . S
C758 H748 0.950 . S
C758 C759 1.386 . S
C758 C760 1.391 . S
C759 C758 1.386 . S
C759 C763 1.393 . S
C760 H749 0.950 . S
C760 C758 1.391 . S
C760 C761 1.400 . S
C761 C755 1.491 . S
C761 C760 1.400 . S
C761 C762 1.398 . S
C762 H750 0.950 . S
C762 C761 1.398 . S
C762 C763 1.391 . S
C763 H751 0.950 . S
C763 C759 1.393 . S
C763 C762 1.391 . S
H764 C772 0.950 . S
H765 C777 0.950 . S
H766 C774 0.950 . S
H767 C776 0.950 . S
H768 C778 0.950 . S
H769 C780 1.013 . S
H770 C782 0.950 . S
H771 C783 0.950 . S
C772 H764 0.950 . S
C772 C773 1.386 1_565 S
C772 C774 1.391 . S
C773 C772 1.386 1_545 S
C773 C777 1.393 . S
C774 H766 0.950 . S
C774 C772 1.391 . S
C774 C775 1.400 . S
C775 C774 1.400 . S
C775 C776 1.398 1_565 S
C775 C781 1.491 . S
C776 H767 0.950 . S
C776 C775 1.398 1_545 S
C776 C777 1.391 . S
C777 H765 0.950 . S
C777 C773 1.393 . S
C777 C776 1.391 . S
C778 H768 0.950 . S
C778 C779 1.386 . S
C778 C780 1.391 . S
C779 C778 1.386 . S
C779 C783 1.393 . S
C780 H769 1.013 . S
C780 C778 1.391 . S
C780 C781 1.400 . S
C781 C775 1.491 . S
C781 C780 1.400 . S
C781 C782 1.398 . S
C782 H770 0.950 . S
C782 C781 1.398 . S
C782 C783 1.391 . S
C783 H771 0.950 . S
C783 C779 1.393 . S
C783 C782 1.391 . S
H784 C792 0.950 . S
H785 C797 0.950 . S
H786 C794 0.950 . S
H787 C796 0.950 . S
H788 C798 0.950 . S
H789 C800 0.950 . S
H790 C802 0.950 . S
H791 C803 0.950 . S
C792 H784 0.950 . S
C792 C793 1.386 . S
C792 C794 1.391 . S
C793 C792 1.386 . S
C793 C797 1.393 . S
C794 H786 0.950 . S
C794 C792 1.391 . S
C794 C795 1.400 . S
C795 C794 1.400 . S
C795 C796 1.398 . S
C795 C801 1.491 . S
C796 H787 0.950 . S
C796 C795 1.398 . S
C796 C797 1.391 . S
C797 H785 0.950 . S
C797 C793 1.393 . S
C797 C796 1.391 . S
C798 H788 0.950 . S
C798 C799 1.386 1_455 S
C798 C800 1.391 . S
C799 C798 1.386 1_655 S
C799 C803 1.393 . S
C800 H789 0.950 . S
C800 C798 1.391 . S
C800 C801 1.400 . S
C801 C795 1.491 . S
C801 C800 1.400 . S
C801 C802 1.398 1_455 S
C802 H790 0.950 . S
C802 C801 1.398 1_655 S
C802 C803 1.391 . S
C803 H791 0.950 . S
C803 C799 1.393 . S
C803 C802 1.391 . S
H804 C812 0.950 . S
H805 C817 0.950 . S
H806 C814 0.950 . S
H807 C816 0.950 . S
H808 C818 0.950 . S
H809 C820 0.950 . S
H810 C822 0.950 . S
H811 C823 0.950 . S
C812 H804 0.950 . S
C812 C813 1.386 . S
C812 C814 1.391 . S
C813 C812 1.386 . S
C813 C817 1.393 . S
C814 H806 0.950 . S
C814 C812 1.391 . S
C814 C815 1.400 . S
C815 C814 1.400 . S
C815 C816 1.398 . S
C815 C821 1.491 . S
C816 H807 0.950 . S
C816 C815 1.398 . S
C816 C817 1.391 . S
C817 H805 0.950 . S
C817 C813 1.393 . S
C817 C816 1.391 . S
C818 H808 0.950 . S
C818 C819 1.386 . S
C818 C820 1.391 1_655 S
C819 C818 1.386 . S
C819 C823 1.393 . S
C820 H809 0.950 . S
C820 C818 1.391 1_455 S
C820 C821 1.400 . S
C821 C815 1.491 . S
C821 C820 1.400 . S
C821 C822 1.398 . S
C822 H810 0.950 . S
C822 C821 1.398 . S
C822 C823 1.391 1_455 S
C823 H811 0.950 . S
C823 C819 1.393 . S
C823 C822 1.391 1_655 S
H824 C832 0.950 . S
H825 C837 0.950 . S
H826 C834 0.950 . S
H827 C836 0.950 . S
H828 C838 0.950 . S
H829 C840 0.950 . S
H830 C842 0.950 . S
H831 C843 0.950 . S
C832 H824 0.950 . S
C832 C833 1.386 . S
C832 C834 1.391 . S
C833 C832 1.386 . S
C833 C837 1.393 . S
C834 H826 0.950 . S
C834 C832 1.391 . S
C834 C835 1.400 . S
C835 C834 1.400 . S
C835 C836 1.398 . S
C835 C841 1.491 . S
C836 H827 0.950 . S
C836 C835 1.398 . S
C836 C837 1.391 . S
C837 H825 0.950 . S
C837 C833 1.393 . S
C837 C836 1.391 . S
C838 H828 0.950 . S
C838 C839 1.386 . S
C838 C840 1.391 . S
C839 C838 1.386 . S
C839 C843 1.393 . S
C840 H829 0.950 . S
C840 C838 1.391 . S
C840 C841 1.400 . S
C841 C835 1.491 . S
C841 C840 1.400 . S
C841 C842 1.398 . S
C842 H830 0.950 . S
C842 C841 1.398 . S
C842 C843 1.391 . S
C843 H831 0.950 . S
C843 C839 1.393 . S
C843 C842 1.391 . S
H844 C852 0.950 . S
H845 C857 0.950 . S
H846 C854 0.950 . S
H847 C856 0.950 . S
H848 C858 0.950 . S
H849 C860 0.950 . S
H850 C862 0.950 . S
H851 C863 0.950 . S
C852 H844 0.950 . S
C852 C853 1.386 . S
C852 C854 1.391 . S
C853 C852 1.386 . S
C853 C857 1.393 . S
C854 H846 0.950 . S
C854 C852 1.391 . S
C854 C855 1.400 . S
C855 C854 1.400 . S
C855 C856 1.398 . S
C855 C861 1.491 . S
C856 H847 0.950 . S
C856 C855 1.398 . S
C856 C857 1.391 . S
C857 H845 0.950 . S
C857 C853 1.393 . S
C857 C856 1.391 . S
C858 H848 0.950 . S
C858 C859 1.386 1_565 S
C858 C860 1.391 . S
C859 C858 1.386 1_545 S
C859 C863 1.393 . S
C860 H849 0.950 . S
C860 C858 1.391 . S
C860 C861 1.400 . S
C861 C855 1.491 . S
C861 C860 1.400 . S
C861 C862 1.398 1_565 S
C862 H850 0.950 . S
C862 C861 1.398 1_545 S
C862 C863 1.391 . S
C863 H851 0.950 . S
C863 C859 1.393 . S
C863 C862 1.391 . S
H864 C872 0.950 . S
H865 C877 0.950 . S
H866 C874 0.950 . S
H867 C876 0.950 . S
H868 C878 0.950 . S
H869 C880 0.950 . S
H870 C882 0.950 . S
H871 C883 0.950 . S
C872 H864 0.950 . S
C872 C873 1.386 . S
C872 C874 1.391 . S
C873 C872 1.386 . S
C873 C877 1.393 . S
C874 H866 0.950 . S
C874 C872 1.391 . S
C874 C875 1.400 . S
C875 C874 1.400 . S
C875 C876 1.398 . S
C875 C881 1.491 . S
C876 H867 0.950 . S
C876 C875 1.398 . S
C876 C877 1.391 . S
C877 H865 0.950 . S
C877 C873 1.393 . S
C877 C876 1.391 . S
C878 H868 0.950 . S
C878 C879 1.386 . S
C878 C880 1.391 . S
C879 C878 1.386 . S
C879 C883 1.393 . S
C880 H869 0.950 . S
C880 C878 1.391 . S
C880 C881 1.400 . S
C881 C875 1.491 . S
C881 C880 1.400 . S
C881 C882 1.398 . S
C882 H870 0.950 . S
C882 C881 1.398 . S
C882 C883 1.391 . S
C883 H871 0.950 . S
C883 C879 1.393 . S
C883 C882 1.391 . S
H884 C892 0.950 . S
H885 C897 0.950 . S
H886 C894 0.950 . S
H887 C896 0.950 . S
H888 C898 0.950 . S
H889 C900 0.950 . S
H890 C902 0.950 . S
H891 C903 0.950 . S
C892 H884 0.950 . S
C892 C893 1.386 . S
C892 C894 1.391 . S
C893 C892 1.386 . S
C893 C897 1.393 . S
C894 H886 0.950 . S
C894 C892 1.391 . S
C894 C895 1.400 . S
C895 C894 1.400 . S
C895 C896 1.398 . S
C895 C901 1.491 . S
C896 H887 0.950 . S
C896 C895 1.398 . S
C896 C897 1.391 . S
C897 H885 0.950 . S
C897 C893 1.393 . S
C897 C896 1.391 . S
C898 H888 0.950 . S
C898 C899 1.386 . S
C898 C900 1.391 . S
C899 C898 1.386 . S
C899 C903 1.393 . S
C900 H889 0.950 . S
C900 C898 1.391 . S
C900 C901 1.400 . S
C901 C895 1.491 . S
C901 C900 1.400 . S
C901 C902 1.398 . S
C902 H890 0.950 . S
C902 C901 1.398 . S
C902 C903 1.391 . S
C903 H891 0.950 . S
C903 C899 1.393 . S
C903 C902 1.391 . S
H904 C912 0.950 . S
H905 C917 0.950 . S
H906 C914 0.950 . S
H907 C916 0.950 . S
H908 C918 0.950 . S
H909 C920 0.950 . S
H910 C922 0.950 . S
H911 C923 0.950 . S
C912 H904 0.950 . S
C912 C913 1.386 . S
C912 C914 1.391 . S
C913 C912 1.386 . S
C913 C917 1.393 . S
C914 H906 0.950 . S
C914 C912 1.391 . S
C914 C915 1.400 . S
C915 C914 1.400 . S
C915 C916 1.398 . S
C915 C921 1.491 . S
C916 H907 0.950 . S
C916 C915 1.398 . S
C916 C917 1.391 . S
C917 H905 0.950 . S
C917 C913 1.393 . S
C917 C916 1.391 . S
C918 H908 0.950 . S
C918 C919 1.386 . S
C918 C920 1.391 . S
C919 C918 1.386 . S
C919 C923 1.393 . S
C920 H909 0.950 . S
C920 C918 1.391 . S
C920 C921 1.400 . S
C921 C915 1.491 . S
C921 C920 1.400 . S
C921 C922 1.398 . S
C922 H910 0.950 . S
C922 C921 1.398 . S
C922 C923 1.391 . S
C923 H911 0.950 . S
C923 C919 1.393 . S
C923 C922 1.391 . S
H924 C932 0.950 . S
H925 C937 0.950 . S
H926 C934 0.950 . S
H927 C936 0.950 . S
H928 C938 0.950 1_556 S
H929 C940 0.950 . S
H930 C942 0.950 . S
H931 C943 0.950 . S
C932 H924 0.950 . S
C932 C933 1.386 . S
C932 C934 1.391 . S
C933 C932 1.386 . S
C933 C937 1.393 . S
C934 H926 0.950 . S
C934 C932 1.391 . S
C934 C935 1.400 . S
C935 C934 1.400 . S
C935 C936 1.398 . S
C935 C941 1.491 . S
C936 H927 0.950 . S
C936 C935 1.398 . S
C936 C937 1.391 . S
C937 H925 0.950 . S
C937 C933 1.393 . S
C937 C936 1.391 . S
C938 H928 0.950 1_554 S
C938 C939 1.386 . S
C938 C940 1.391 . S
C939 C938 1.386 . S
C939 C943 1.393 . S
C940 H929 0.950 . S
C940 C938 1.391 . S
C940 C941 1.400 . S
C941 C935 1.491 . S
C941 C940 1.400 . S
C941 C942 1.398 . S
C942 H930 0.950 . S
C942 C941 1.398 . S
C942 C943 1.391 . S
C943 H931 0.950 . S
C943 C939 1.393 . S
C943 C942 1.391 . S
H944 C952 0.950 . S
H945 C957 0.950 . S
H946 C954 0.950 . S
H947 C956 0.950 . S
H948 C958 0.950 1_556 S
H949 C960 0.950 . S
H950 C962 0.950 . S
H951 C963 0.950 . S
C952 H944 0.950 . S
C952 C953 1.386 . S
C952 C954 1.391 . S
C953 C952 1.386 . S
C953 C957 1.393 . S
C954 H946 0.950 . S
C954 C952 1.391 . S
C954 C955 1.400 . S
C955 C954 1.400 . S
C955 C956 1.398 . S
C955 C961 1.491 . S
C956 H947 0.950 . S
C956 C955 1.398 . S
C956 C957 1.391 . S
C957 H945 0.950 . S
C957 C953 1.393 . S
C957 C956 1.391 . S
C958 H948 0.950 1_554 S
C958 C959 1.386 . S
C958 C960 1.391 . S
C959 C958 1.386 . S
C959 C963 1.393 . S
C960 H949 0.950 . S
C960 C958 1.391 . S
C960 C961 1.400 . S
C961 C955 1.491 . S
C961 C960 1.400 . S
C961 C962 1.398 . S
C962 H950 0.950 . S
C962 C961 1.398 . S
C962 C963 1.391 . S
C963 H951 0.950 . S
C963 C959 1.393 . S
C963 C962 1.391 . S
H964 C972 0.950 . S
H965 C977 0.950 . S
H966 C974 0.950 . S
H967 C976 0.950 . S
H968 C978 0.950 1_556 S
H969 C980 0.950 . S
H970 C982 0.950 . S
H971 C983 0.950 . S
C972 H964 0.950 . S
C972 C973 1.386 . S
C972 C974 1.391 . S
C973 C972 1.386 . S
C973 C977 1.393 . S
C974 H966 0.950 . S
C974 C972 1.391 . S
C974 C975 1.400 . S
C975 C974 1.400 . S
C975 C976 1.398 . S
C975 C981 1.491 . S
C976 H967 0.950 . S
C976 C975 1.398 . S
C976 C977 1.391 . S
C977 H965 0.950 . S
C977 C973 1.393 . S
C977 C976 1.391 . S
C978 H968 0.950 1_554 S
C978 C979 1.386 . S
C978 C980 1.391 . S
C979 C978 1.386 . S
C979 C983 1.393 . S
C980 H969 0.950 . S
C980 C978 1.391 . S
C980 C981 1.400 . S
C981 C975 1.491 . S
C981 C980 1.400 . S
C981 C982 1.398 . S
C982 H970 0.950 . S
C982 C981 1.398 . S
C982 C983 1.391 . S
C983 H971 0.950 . S
C983 C979 1.393 . S
C983 C982 1.391 . S
H984 C992 0.950 . S
H985 C997 0.950 . S
H986 C994 0.950 . S
H987 C996 0.950 . S
H988 C998 0.950 . S
H989 C1000 0.950 . S
H990 C1002 0.950 . S
H991 C1003 0.950 . S
C992 H984 0.950 . S
C992 C993 1.386 . S
C992 C994 1.391 . S
C993 C992 1.386 . S
C993 C997 1.393 . S
C994 H986 0.950 . S
C994 C992 1.391 . S
C994 C995 1.400 . S
C995 C994 1.400 . S
C995 C996 1.398 . S
C995 C1001 1.491 . S
C996 H987 0.950 . S
C996 C995 1.398 . S
C996 C997 1.391 . S
C997 H985 0.950 . S
C997 C993 1.393 . S
C997 C996 1.391 . S
C998 H988 0.950 . S
C998 C999 1.386 . S
C998 C1000 1.391 . S
C999 C998 1.386 . S
C999 C1003 1.393 . S
C1000 H989 0.950 . S
C1000 C998 1.391 . S
C1000 C1001 1.400 . S
C1001 C995 1.491 . S
C1001 C1000 1.400 . S
C1001 C1002 1.398 . S
C1002 H990 0.950 . S
C1002 C1001 1.398 . S
C1002 C1003 1.391 . S
C1003 H991 0.950 . S
C1003 C999 1.393 . S
C1003 C1002 1.391 . S
H1004 C1012 0.950 . S
H1005 C1017 0.950 . S
H1006 C1014 0.950 . S
H1007 C1016 0.950 . S
H1008 C1018 0.950 . S
H1009 C1020 0.950 . S
H1010 C1022 0.950 . S
H1011 C1023 0.950 . S
C1012 H1004 0.950 . S
C1012 C1013 1.386 . S
C1012 C1014 1.391 . S
C1013 C1012 1.386 . S
C1013 C1017 1.393 . S
C1014 H1006 0.950 . S
C1014 C1012 1.391 . S
C1014 C1015 1.400 . S
C1015 C1014 1.400 . S
C1015 C1016 1.398 . S
C1015 C1021 1.491 . S
C1016 H1007 0.950 . S
C1016 C1015 1.398 . S
C1016 C1017 1.391 . S
C1017 H1005 0.950 . S
C1017 C1013 1.393 . S
C1017 C1016 1.391 . S
C1018 H1008 0.950 . S
C1018 C1019 1.386 . S
C1018 C1020 1.391 . S
C1019 C1018 1.386 . S
C1019 C1023 1.393 . S
C1020 H1009 0.950 . S
C1020 C1018 1.391 . S
C1020 C1021 1.400 . S
C1021 C1015 1.491 . S
C1021 C1020 1.400 . S
C1021 C1022 1.398 . S
C1022 H1010 0.950 . S
C1022 C1021 1.398 . S
C1022 C1023 1.391 . S
C1023 H1011 0.950 . S
C1023 C1019 1.393 . S
C1023 C1022 1.391 . S
H1024 C1032 0.950 . S
H1025 C1037 0.950 . S
H1026 C1034 0.950 . S
H1027 C1036 0.950 . S
H1028 C1038 0.950 . S
H1029 C1040 0.950 . S
H1030 C1042 0.950 . S
H1031 C1043 0.950 . S
C1032 H1024 0.950 . S
C1032 C1033 1.386 . S
C1032 C1034 1.391 . S
C1033 C1032 1.386 . S
C1033 C1037 1.393 . S
C1034 H1026 0.950 . S
C1034 C1032 1.391 . S
C1034 C1035 1.400 . S
C1035 C1034 1.400 . S
C1035 C1036 1.398 . S
C1035 C1041 1.491 . S
C1036 H1027 0.950 . S
C1036 C1035 1.398 . S
C1036 C1037 1.391 . S
C1037 H1025 0.950 . S
C1037 C1033 1.393 . S
C1037 C1036 1.391 . S
C1038 H1028 0.950 . S
C1038 C1039 1.386 . S
C1038 C1040 1.391 . S
C1039 C1038 1.386 . S
C1039 C1043 1.393 . S
C1040 H1029 0.950 . S
C1040 C1038 1.391 . S
C1040 C1041 1.400 . S
C1041 C1035 1.491 . S
C1041 C1040 1.400 . S
C1041 C1042 1.398 . S
C1042 H1030 0.950 . S
C1042 C1041 1.398 . S
C1042 C1043 1.391 . S
C1043 H1031 0.950 . S
C1043 C1039 1.393 . S
C1043 C1042 1.391 . S
H1044 C1052 0.946 1_554 S
H1045 C1057 0.950 . S
H1046 C1054 0.950 . S
H1047 C1056 0.950 . S
H1048 C1058 0.950 . S
H1049 C1060 0.950 . S
H1050 C1062 0.950 . S
H1051 C1063 0.950 . S
C1052 H1044 0.946 1_556 S
C1052 C1053 1.386 . S
C1052 C1054 1.391 . S
C1053 C1052 1.386 . S
C1053 C1057 1.393 . S
C1054 H1046 0.950 . S
C1054 C1052 1.391 . S
C1054 C1055 1.400 . S
C1055 C1054 1.400 . S
C1055 C1056 1.398 . S
C1055 C1061 1.491 . S
C1056 H1047 0.950 . S
C1056 C1055 1.398 . S
C1056 C1057 1.391 . S
C1057 H1045 0.950 . S
C1057 C1053 1.393 . S
C1057 C1056 1.391 . S
C1058 H1048 0.950 . S
C1058 C1059 1.386 . S
C1058 C1060 1.391 . S
C1059 C1058 1.386 . S
C1059 C1063 1.393 . S
C1060 H1049 0.950 . S
C1060 C1058 1.391 . S
C1060 C1061 1.400 . S
C1061 C1055 1.491 . S
C1061 C1060 1.400 . S
C1061 C1062 1.398 . S
C1062 H1050 0.950 . S
C1062 C1061 1.398 . S
C1062 C1063 1.391 . S
C1063 H1051 0.950 . S
C1063 C1059 1.393 . S
C1063 C1062 1.391 . S
H1064 C1072 0.950 1_554 S
H1065 C1077 0.950 . S
H1066 C1074 0.950 . S
H1067 C1076 0.950 . S
H1068 C1078 0.950 . S
H1069 C1080 0.950 . S
H1070 C1082 0.950 . S
H1071 C1083 0.950 . S
C1072 H1064 0.950 1_556 S
C1072 C1073 1.386 . S
C1072 C1074 1.391 . S
C1073 C1072 1.386 . S
C1073 C1077 1.393 . S
C1074 H1066 0.950 . S
C1074 C1072 1.391 . S
C1074 C1075 1.400 . S
C1075 C1074 1.400 . S
C1075 C1076 1.398 . S
C1075 C1081 1.491 . S
C1076 H1067 0.950 . S
C1076 C1075 1.398 . S
C1076 C1077 1.391 . S
C1077 H1065 0.950 . S
C1077 C1073 1.393 . S
C1077 C1076 1.391 . S
C1078 H1068 0.950 . S
C1078 C1079 1.386 . S
C1078 C1080 1.391 . S
C1079 C1078 1.386 . S
C1079 C1083 1.393 . S
C1080 H1069 0.950 . S
C1080 C1078 1.391 . S
C1080 C1081 1.400 . S
C1081 C1075 1.491 . S
C1081 C1080 1.400 . S
C1081 C1082 1.398 . S
C1082 H1070 0.950 . S
C1082 C1081 1.398 . S
C1082 C1083 1.391 . S
C1083 H1071 0.950 . S
C1083 C1079 1.393 . S
C1083 C1082 1.391 . S
H1084 C1092 0.950 . S
H1085 C1097 0.950 . S
H1086 C1094 0.950 . S
H1087 C1096 0.950 . S
H1088 C1098 0.950 . S
H1089 C1100 0.950 . S
H1090 C1102 0.950 . S
H1091 C1103 0.950 . S
C1092 H1084 0.950 . S
C1092 C1093 1.386 . S
C1092 C1094 1.391 . S
C1093 C1092 1.386 . S
C1093 C1097 1.393 . S
C1094 H1086 0.950 . S
C1094 C1092 1.391 . S
C1094 C1095 1.400 . S
C1095 C1094 1.400 . S
C1095 C1096 1.398 . S
C1095 C1101 1.491 . S
C1096 H1087 0.950 . S
C1096 C1095 1.398 . S
C1096 C1097 1.391 . S
C1097 H1085 0.950 . S
C1097 C1093 1.393 . S
C1097 C1096 1.391 . S
C1098 H1088 0.950 . S
C1098 C1099 1.386 . S
C1098 C1100 1.391 . S
C1099 C1098 1.386 . S
C1099 C1103 1.393 . S
C1100 H1089 0.950 . S
C1100 C1098 1.391 . S
C1100 C1101 1.400 . S
C1101 C1095 1.491 . S
C1101 C1100 1.400 . S
C1101 C1102 1.398 . S
C1102 H1090 0.950 . S
C1102 C1101 1.398 . S
C1102 C1103 1.391 . S
C1103 H1091 0.950 . S
C1103 C1099 1.393 . S
C1103 C1102 1.391 . S
H1104 C1112 0.950 . S
H1105 C1117 0.950 . S
H1106 C1114 1.004 . S
H1107 C1116 0.950 . S
H1108 C1118 0.950 . S
H1109 C1120 1.002 . S
H1110 C1122 0.950 . S
H1111 C1123 0.950 . S
C1112 H1104 0.950 . S
C1112 C1113 1.386 . S
C1112 C1114 1.362 1_455 S
C1113 C1112 1.386 . S
C1113 C1117 1.393 . S
C1114 H1106 1.004 . S
C1114 C1112 1.362 1_655 S
C1114 C1115 1.379 1_655 S
C1115 C1114 1.379 1_455 S
C1115 C1116 1.398 . S
C1115 C1121 1.491 1_455 S
C1116 H1107 0.950 . S
C1116 C1115 1.398 . S
C1116 C1117 1.391 . S
C1117 H1105 0.950 . S
C1117 C1113 1.393 . S
C1117 C1116 1.391 . S
C1118 H1108 0.950 . S
C1118 C1119 1.386 . S
C1118 C1120 1.363 1_655 S
C1119 C1118 1.386 . S
C1119 C1123 1.393 . S
C1120 H1109 1.002 . S
C1120 C1118 1.363 1_455 S
C1120 C1121 1.379 1_455 S
C1121 C1115 1.491 1_655 S
C1121 C1120 1.379 1_655 S
C1121 C1122 1.398 . S
C1122 H1110 0.950 . S
C1122 C1121 1.398 . S
C1122 C1123 1.391 . S
C1123 H1111 0.950 . S
C1123 C1119 1.393 . S
C1123 C1122 1.391 . S
H1124 C1132 0.950 . S
H1125 C1137 0.950 . S
H1126 C1134 0.950 . S
H1127 C1136 0.950 . S
H1128 C1138 0.950 . S
H1129 C1140 0.950 . S
H1130 C1142 0.950 . S
H1131 C1143 0.950 . S
C1132 H1124 0.950 . S
C1132 C1133 1.386 . S
C1132 C1134 1.391 . S
C1133 C1132 1.386 . S
C1133 C1137 1.393 . S
C1134 H1126 0.950 . S
C1134 C1132 1.391 . S
C1134 C1135 1.400 . S
C1135 C1134 1.400 . S
C1135 C1136 1.398 . S
C1135 C1141 1.491 . S
C1136 H1127 0.950 . S
C1136 C1135 1.398 . S
C1136 C1137 1.391 . S
C1137 H1125 0.950 . S
C1137 C1133 1.393 . S
C1137 C1136 1.391 . S
C1138 H1128 0.950 . S
C1138 C1139 1.386 . S
C1138 C1140 1.391 . S
C1139 C1138 1.386 . S
C1139 C1143 1.393 . S
C1140 H1129 0.950 . S
C1140 C1138 1.391 . S
C1140 C1141 1.400 . S
C1141 C1135 1.491 . S
C1141 C1140 1.400 . S
C1141 C1142 1.398 . S
C1142 H1130 0.950 . S
C1142 C1141 1.398 . S
C1142 C1143 1.391 . S
C1143 H1131 0.950 . S
C1143 C1139 1.393 . S
C1143 C1142 1.391 . S
H1144 C1152 0.950 . S
H1145 C1157 0.950 . S
H1146 C1154 0.950 . S
H1147 C1156 1.000 . S
H1148 C1158 0.950 . S
H1149 C1160 0.950 . S
H1150 C1162 0.999 . S
H1151 C1163 0.950 . S
C1152 H1144 0.950 . S
C1152 C1153 1.386 . S
C1152 C1154 1.391 . S
C1153 C1152 1.386 . S
C1153 C1157 1.393 . S
C1154 H1146 0.950 . S
C1154 C1152 1.391 . S
C1154 C1155 1.400 . S
C1155 C1154 1.400 . S
C1155 C1156 1.385 1_545 S
C1155 C1161 1.491 1_545 S
C1156 H1147 1.000 . S
C1156 C1155 1.385 1_565 S
C1156 C1157 1.358 1_565 S
C1157 H1145 0.950 . S
C1157 C1153 1.393 . S
C1157 C1156 1.358 1_545 S
C1158 H1148 0.950 . S
C1158 C1159 1.386 . S
C1158 C1160 1.391 . S
C1159 C1158 1.386 . S
C1159 C1163 1.393 . S
C1160 H1149 0.950 . S
C1160 C1158 1.391 . S
C1160 C1161 1.400 . S
C1161 C1155 1.491 1_565 S
C1161 C1160 1.400 . S
C1161 C1162 1.385 1_565 S
C1162 H1150 0.999 . S
C1162 C1161 1.385 1_545 S
C1162 C1163 1.359 1_545 S
C1163 H1151 0.950 . S
C1163 C1159 1.393 . S
C1163 C1162 1.359 1_565 S
H1164 C1172 0.950 . S
H1165 C1177 0.950 . S
H1166 C1174 0.950 . S
H1167 C1176 0.950 . S
H1168 C1178 0.950 . S
H1169 C1180 0.950 . S
H1170 C1182 0.950 . S
H1171 C1183 0.950 . S
C1172 H1164 0.950 . S
C1172 C1173 1.386 . S
C1172 C1174 1.391 . S
C1173 C1172 1.386 . S
C1173 C1177 1.393 . S
C1174 H1166 0.950 . S
C1174 C1172 1.391 . S
C1174 C1175 1.400 . S
C1175 C1174 1.400 . S
C1175 C1176 1.398 . S
C1175 C1181 1.491 1_565 S
C1176 H1167 0.950 . S
C1176 C1175 1.398 . S
C1176 C1177 1.391 . S
C1177 H1165 0.950 . S
C1177 C1173 1.393 . S
C1177 C1176 1.391 . S
C1178 H1168 0.950 . S
C1178 C1179 1.386 . S
C1178 C1180 1.391 . S
C1179 C1178 1.386 . S
C1179 C1183 1.393 . S
C1180 H1169 0.950 . S
C1180 C1178 1.391 . S
C1180 C1181 1.400 . S
C1181 C1175 1.491 1_545 S
C1181 C1180 1.400 . S
C1181 C1182 1.398 . S
C1182 H1170 0.950 . S
C1182 C1181 1.398 . S
C1182 C1183 1.391 . S
C1183 H1171 0.950 . S
C1183 C1179 1.393 . S
C1183 C1182 1.391 . S
H1184 C1192 0.950 . S
H1185 C1197 0.950 . S
H1186 C1194 1.010 . S
H1187 C1196 0.950 . S
H1188 C1198 0.950 . S
H1189 C1200 1.008 . S
H1190 C1202 0.950 . S
H1191 C1203 0.950 . S
C1192 H1184 0.950 . S
C1192 C1193 1.386 . S
C1192 C1194 1.358 1_655 S
C1193 C1192 1.386 . S
C1193 C1197 1.393 . S
C1194 H1186 1.010 . S
C1194 C1192 1.358 1_455 S
C1194 C1195 1.378 1_455 S
C1195 C1194 1.378 1_655 S
C1195 C1196 1.398 . S
C1195 C1201 1.491 1_655 S
C1196 H1187 0.950 . S
C1196 C1195 1.398 . S
C1196 C1197 1.391 . S
C1197 H1185 0.950 . S
C1197 C1193 1.393 . S
C1197 C1196 1.391 . S
C1198 H1188 0.950 . S
C1198 C1199 1.386 . S
C1198 C1200 1.359 1_455 S
C1199 C1198 1.386 . S
C1199 C1203 1.393 . S
C1200 H1189 1.008 . S
C1200 C1198 1.359 1_655 S
C1200 C1201 1.379 1_655 S
C1201 C1195 1.491 1_455 S
C1201 C1200 1.379 1_455 S
C1201 C1202 1.398 . S
C1202 H1190 0.950 . S
C1202 C1201 1.398 . S
C1202 C1203 1.391 . S
C1203 H1191 0.950 . S
C1203 C1199 1.393 . S
C1203 C1202 1.391 . S
H1204 C1212 0.950 . S
H1205 C1217 0.950 . S
H1206 C1214 0.950 . S
H1207 C1216 0.950 . S
H1208 C1218 0.950 . S
H1209 C1220 0.950 . S
H1210 C1222 0.950 . S
H1211 C1223 0.950 . S
C1212 H1204 0.950 . S
C1212 C1213 1.386 . S
C1212 C1214 1.391 . S
C1213 C1212 1.386 . S
C1213 C1217 1.393 . S
C1214 H1206 0.950 . S
C1214 C1212 1.391 . S
C1214 C1215 1.400 . S
C1215 C1214 1.400 . S
C1215 C1216 1.398 . S
C1215 C1221 1.491 . S
C1216 H1207 0.950 . S
C1216 C1215 1.398 . S
C1216 C1217 1.391 . S
C1217 H1205 0.950 . S
C1217 C1213 1.393 . S
C1217 C1216 1.391 . S
C1218 H1208 0.950 . S
C1218 C1219 1.386 . S
C1218 C1220 1.391 . S
C1219 C1218 1.386 . S
C1219 C1223 1.393 . S
C1220 H1209 0.950 . S
C1220 C1218 1.391 . S
C1220 C1221 1.400 . S
C1221 C1215 1.491 . S
C1221 C1220 1.400 . S
C1221 C1222 1.398 . S
C1222 H1210 0.950 . S
C1222 C1221 1.398 . S
C1222 C1223 1.391 . S
C1223 H1211 0.950 . S
C1223 C1219 1.393 . S
C1223 C1222 1.391 . S
H1224 C1232 0.950 . S
H1225 C1237 0.950 . S
H1226 C1234 0.950 . S
H1227 C1236 0.950 . S
H1228 C1238 0.950 . S
H1229 C1240 0.950 . S
H1230 C1242 0.950 . S
H1231 C1243 0.950 . S
C1232 H1224 0.950 . S
C1232 C1233 1.386 . S
C1232 C1234 1.391 . S
C1233 C1232 1.386 . S
C1233 C1237 1.393 . S
C1234 H1226 0.950 . S
C1234 C1232 1.391 . S
C1234 C1235 1.400 . S
C1235 C1234 1.400 . S
C1235 C1236 1.398 . S
C1235 C1241 1.491 . S
C1236 H1227 0.950 . S
C1236 C1235 1.398 . S
C1236 C1237 1.391 . S
C1237 H1225 0.950 . S
C1237 C1233 1.393 . S
C1237 C1236 1.391 . S
C1238 H1228 0.950 . S
C1238 C1239 1.386 . S
C1238 C1240 1.391 . S
C1239 C1238 1.386 . S
C1239 C1243 1.393 . S
C1240 H1229 0.950 . S
C1240 C1238 1.391 . S
C1240 C1241 1.400 . S
C1241 C1235 1.491 . S
C1241 C1240 1.400 . S
C1241 C1242 1.398 . S
C1242 H1230 0.950 . S
C1242 C1241 1.398 . S
C1242 C1243 1.391 . S
C1243 H1231 0.950 . S
C1243 C1239 1.393 . S
C1243 C1242 1.391 . S
H1244 C1252 0.950 . S
H1245 C1257 0.950 . S
H1246 C1254 0.950 . S
H1247 C1256 0.950 . S
H1248 C1258 0.950 . S
H1249 C1260 0.950 . S
H1250 C1262 0.950 . S
H1251 C1263 0.950 . S
C1252 H1244 0.950 . S
C1252 C1253 1.386 . S
C1252 C1254 1.391 . S
C1253 C1252 1.386 . S
C1253 C1257 1.393 . S
C1254 H1246 0.950 . S
C1254 C1252 1.391 . S
C1254 C1255 1.400 . S
C1255 C1254 1.400 . S
C1255 C1256 1.398 . S
C1255 C1261 1.491 . S
C1256 H1247 0.950 . S
C1256 C1255 1.398 . S
C1256 C1257 1.391 . S
C1257 H1245 0.950 . S
C1257 C1253 1.393 . S
C1257 C1256 1.391 . S
C1258 H1248 0.950 . S
C1258 C1259 1.386 . S
C1258 C1260 1.391 . S
C1259 C1258 1.386 . S
C1259 C1263 1.393 . S
C1260 H1249 0.950 . S
C1260 C1258 1.391 . S
C1260 C1261 1.400 . S
C1261 C1255 1.491 . S
C1261 C1260 1.400 . S
C1261 C1262 1.398 . S
C1262 H1250 0.950 . S
C1262 C1261 1.398 . S
C1262 C1263 1.391 . S
C1263 H1251 0.950 . S
C1263 C1259 1.393 . S
C1263 C1262 1.391 . S
H1264 C1272 0.950 . S
H1265 C1277 0.950 . S
H1266 C1274 0.950 . S
H1267 C1276 0.950 . S
H1268 C1278 0.950 . S
H1269 C1280 0.950 . S
H1270 C1282 0.950 . S
H1271 C1283 0.950 . S
C1272 H1264 0.950 . S
C1272 C1273 1.386 . S
C1272 C1274 1.391 . S
C1273 C1272 1.386 . S
C1273 C1277 1.393 . S
C1274 H1266 0.950 . S
C1274 C1272 1.391 . S
C1274 C1275 1.400 . S
C1275 C1274 1.400 . S
C1275 C1276 1.398 . S
C1275 C1281 1.491 . S
C1276 H1267 0.950 . S
C1276 C1275 1.398 . S
C1276 C1277 1.391 . S
C1277 H1265 0.950 . S
C1277 C1273 1.393 . S
C1277 C1276 1.391 . S
C1278 H1268 0.950 . S
C1278 C1279 1.386 . S
C1278 C1280 1.391 . S
C1279 C1278 1.386 . S
C1279 C1283 1.393 . S
C1280 H1269 0.950 . S
C1280 C1278 1.391 . S
C1280 C1281 1.400 . S
C1281 C1275 1.491 . S
C1281 C1280 1.400 . S
C1281 C1282 1.398 . S
C1282 H1270 0.950 . S
C1282 C1281 1.398 . S
C1282 C1283 1.391 . S
C1283 H1271 0.950 . S
C1283 C1279 1.393 . S
C1283 C1282 1.391 . S
H1284 C1292 0.950 . S
H1285 C1297 0.950 . S
H1286 C1294 0.950 . S
H1287 C1296 0.950 . S
H1288 C1298 0.950 . S
H1289 C1300 0.950 . S
H1290 C1302 0.950 . S
H1291 C1303 0.950 . S
C1292 H1284 0.950 . S
C1292 C1293 1.386 . S
C1292 C1294 1.391 . S
C1293 C1292 1.386 . S
C1293 C1297 1.393 . S
C1294 H1286 0.950 . S
C1294 C1292 1.391 . S
C1294 C1295 1.400 . S
C1295 C1294 1.400 . S
C1295 C1296 1.398 . S
C1295 C1301 1.491 . S
C1296 H1287 0.950 . S
C1296 C1295 1.398 . S
C1296 C1297 1.391 . S
C1297 H1285 0.950 . S
C1297 C1293 1.393 . S
C1297 C1296 1.391 . S
C1298 H1288 0.950 . S
C1298 C1299 1.386 . S
C1298 C1300 1.391 . S
C1299 C1298 1.386 . S
C1299 C1303 1.393 . S
C1300 H1289 0.950 . S
C1300 C1298 1.391 . S
C1300 C1301 1.400 . S
C1301 C1295 1.491 . S
C1301 C1300 1.400 . S
C1301 C1302 1.398 . S
C1302 H1290 0.950 . S
C1302 C1301 1.398 . S
C1302 C1303 1.391 . S
C1303 H1291 0.950 . S
C1303 C1299 1.393 . S
C1303 C1302 1.391 . S
H1304 C1312 0.950 . S
H1305 C1317 0.950 . S
H1306 C1314 0.950 . S
H1307 C1316 0.950 . S
H1308 C1318 0.950 . S
H1309 C1320 0.950 . S
H1310 C1322 0.950 . S
H1311 C1323 0.950 . S
C1312 H1304 0.950 . S
C1312 C1313 1.386 . S
C1312 C1314 1.391 . S
C1313 C1312 1.386 . S
C1313 C1317 1.393 . S
C1314 H1306 0.950 . S
C1314 C1312 1.391 . S
C1314 C1315 1.400 . S
C1315 C1314 1.400 . S
C1315 C1316 1.398 . S
C1315 C1321 1.491 . S
C1316 H1307 0.950 . S
C1316 C1315 1.398 . S
C1316 C1317 1.391 . S
C1317 H1305 0.950 . S
C1317 C1313 1.393 . S
C1317 C1316 1.391 . S
C1318 H1308 0.950 . S
C1318 C1319 1.386 . S
C1318 C1320 1.391 . S
C1319 C1318 1.386 . S
C1319 C1323 1.393 . S
C1320 H1309 0.950 . S
C1320 C1318 1.391 . S
C1320 C1321 1.400 . S
C1321 C1315 1.491 . S
C1321 C1320 1.400 . S
C1321 C1322 1.398 . S
C1322 H1310 0.950 . S
C1322 C1321 1.398 . S
C1322 C1323 1.391 . S
C1323 H1311 0.950 . S
C1323 C1319 1.393 . S
C1323 C1322 1.391 . S
H1324 C1332 0.950 . S
H1325 C1337 0.950 . S
H1326 C1334 0.950 . S
H1327 C1336 0.950 . S
H1328 C1338 0.950 . S
H1329 C1340 0.950 . S
H1330 C1342 0.950 . S
H1331 C1343 0.950 . S
C1332 H1324 0.950 . S
C1332 C1333 1.386 . S
C1332 C1334 1.391 . S
C1333 C1332 1.386 . S
C1333 C1337 1.393 . S
C1334 H1326 0.950 . S
C1334 C1332 1.391 . S
C1334 C1335 1.400 . S
C1335 C1334 1.400 . S
C1335 C1336 1.398 . S
C1335 C1341 1.491 . S
C1336 H1327 0.950 . S
C1336 C1335 1.398 . S
C1336 C1337 1.391 . S
C1337 H1325 0.950 . S
C1337 C1333 1.393 . S
C1337 C1336 1.391 . S
C1338 H1328 0.950 . S
C1338 C1339 1.386 . S
C1338 C1340 1.391 . S
C1339 C1338 1.386 . S
C1339 C1343 1.393 . S
C1340 H1329 0.950 . S
C1340 C1338 1.391 . S
C1340 C1341 1.400 . S
C1341 C1335 1.491 . S
C1341 C1340 1.400 . S
C1341 C1342 1.398 . S
C1342 H1330 0.950 . S
C1342 C1341 1.398 . S
C1342 C1343 1.391 . S
C1343 H1331 0.950 . S
C1343 C1339 1.393 . S
C1343 C1342 1.391 . S
H1344 C1352 0.950 . S
H1345 C1357 0.950 . S
H1346 C1354 0.950 . S
H1347 C1356 0.950 . S
H1348 C1358 0.950 . S
H1349 C1360 0.950 . S
H1350 C1362 0.950 . S
H1351 C1363 0.950 . S
C1352 H1344 0.950 . S
C1352 C1353 1.386 . S
C1352 C1354 1.391 . S
C1353 C1352 1.386 . S
C1353 C1357 1.393 . S
C1354 H1346 0.950 . S
C1354 C1352 1.391 . S
C1354 C1355 1.400 . S
C1355 C1354 1.400 . S
C1355 C1356 1.398 . S
C1355 C1361 1.491 . S
C1356 H1347 0.950 . S
C1356 C1355 1.398 . S
C1356 C1357 1.391 . S
C1357 H1345 0.950 . S
C1357 C1353 1.393 . S
C1357 C1356 1.391 . S
C1358 H1348 0.950 . S
C1358 C1359 1.386 . S
C1358 C1360 1.391 . S
C1359 C1358 1.386 . S
C1359 C1363 1.393 . S
C1360 H1349 0.950 . S
C1360 C1358 1.391 . S
C1360 C1361 1.400 . S
C1361 C1355 1.491 . S
C1361 C1360 1.400 . S
C1361 C1362 1.398 . S
C1362 H1350 0.950 . S
C1362 C1361 1.398 . S
C1362 C1363 1.391 . S
C1363 H1351 0.950 . S
C1363 C1359 1.393 . S
C1363 C1362 1.391 . S
H1364 C1372 0.950 . S
H1365 C1377 0.950 . S
H1366 C1374 0.950 . S
H1367 C1376 0.950 . S
H1368 C1378 0.950 . S
H1369 C1380 0.950 . S
H1370 C1382 0.950 . S
H1371 C1383 0.950 . S
C1372 H1364 0.950 . S
C1372 C1373 1.386 . S
C1372 C1374 1.391 . S
C1373 C1372 1.386 . S
C1373 C1377 1.393 . S
C1374 H1366 0.950 . S
C1374 C1372 1.391 . S
C1374 C1375 1.400 . S
C1375 C1374 1.400 . S
C1375 C1376 1.398 . S
C1375 C1381 1.491 . S
C1376 H1367 0.950 . S
C1376 C1375 1.398 . S
C1376 C1377 1.391 . S
C1377 H1365 0.950 . S
C1377 C1373 1.393 . S
C1377 C1376 1.391 . S
C1378 H1368 0.950 . S
C1378 C1379 1.386 . S
C1378 C1380 1.391 . S
C1379 C1378 1.386 . S
C1379 C1383 1.393 . S
C1380 H1369 0.950 . S
C1380 C1378 1.391 . S
C1380 C1381 1.400 . S
C1381 C1375 1.491 . S
C1381 C1380 1.400 . S
C1381 C1382 1.398 . S
C1382 H1370 0.950 . S
C1382 C1381 1.398 . S
C1382 C1383 1.391 . S
C1383 H1371 0.950 . S
C1383 C1379 1.393 . S
C1383 C1382 1.391 . S
H1384 C1392 0.950 . S
H1385 C1397 0.950 . S
H1386 C1394 0.950 . S
H1387 C1396 0.950 . S
H1388 C1398 0.950 . S
H1389 C1400 0.950 . S
H1390 C1402 0.950 . S
H1391 C1403 0.950 . S
C1392 H1384 0.950 . S
C1392 C1393 1.386 . S
C1392 C1394 1.391 . S
C1393 C1392 1.386 . S
C1393 C1397 1.393 . S
C1394 H1386 0.950 . S
C1394 C1392 1.391 . S
C1394 C1395 1.400 . S
C1395 C1394 1.400 . S
C1395 C1396 1.398 . S
C1395 C1401 1.491 . S
C1396 H1387 0.950 . S
C1396 C1395 1.398 . S
C1396 C1397 1.391 . S
C1397 H1385 0.950 . S
C1397 C1393 1.393 . S
C1397 C1396 1.391 . S
C1398 H1388 0.950 . S
C1398 C1399 1.386 . S
C1398 C1400 1.391 . S
C1399 C1398 1.386 . S
C1399 C1403 1.393 . S
C1400 H1389 0.950 . S
C1400 C1398 1.391 . S
C1400 C1401 1.400 . S
C1401 C1395 1.491 . S
C1401 C1400 1.400 . S
C1401 C1402 1.398 . S
C1402 H1390 0.950 . S
C1402 C1401 1.398 . S
C1402 C1403 1.391 . S
C1403 H1391 0.950 . S
C1403 C1399 1.393 . S
C1403 C1402 1.391 . S
H1404 C1412 0.950 . S
H1405 C1417 0.950 . S
H1406 C1414 0.950 . S
H1407 C1416 0.950 . S
H1408 C1418 0.950 . S
H1409 C1420 0.950 . S
H1410 C1422 0.950 . S
H1411 C1423 0.950 . S
C1412 H1404 0.950 . S
C1412 C1413 1.386 . S
C1412 C1414 1.391 . S
C1413 C1412 1.386 . S
C1413 C1417 1.393 . S
C1414 H1406 0.950 . S
C1414 C1412 1.391 . S
C1414 C1415 1.400 . S
C1415 C1414 1.400 . S
C1415 C1416 1.398 . S
C1415 C1421 1.491 . S
C1416 H1407 0.950 . S
C1416 C1415 1.398 . S
C1416 C1417 1.391 . S
C1417 H1405 0.950 . S
C1417 C1413 1.393 . S
C1417 C1416 1.391 . S
C1418 H1408 0.950 . S
C1418 C1419 1.386 . S
C1418 C1420 1.391 . S
C1419 C1418 1.386 . S
C1419 C1423 1.393 . S
C1420 H1409 0.950 . S
C1420 C1418 1.391 . S
C1420 C1421 1.400 . S
C1421 C1415 1.491 . S
C1421 C1420 1.400 . S
C1421 C1422 1.398 . S
C1422 H1410 0.950 . S
C1422 C1421 1.398 . S
C1422 C1423 1.391 . S
C1423 H1411 0.950 . S
C1423 C1419 1.393 . S
C1423 C1422 1.391 . S
H1424 C1432 0.950 . S
H1425 C1437 0.950 . S
H1426 C1434 0.950 . S
H1427 C1436 0.950 . S
H1428 C1438 0.950 . S
H1429 C1440 0.950 . S
H1430 C1442 0.950 . S
H1431 C1443 0.950 . S
C1432 H1424 0.950 . S
C1432 C1433 1.386 . S
C1432 C1434 1.391 . S
C1433 C1432 1.386 . S
C1433 C1437 1.393 . S
C1434 H1426 0.950 . S
C1434 C1432 1.391 . S
C1434 C1435 1.400 . S
C1435 C1434 1.400 . S
C1435 C1436 1.398 . S
C1435 C1441 1.491 . S
C1436 H1427 0.950 . S
C1436 C1435 1.398 . S
C1436 C1437 1.391 . S
C1437 H1425 0.950 . S
C1437 C1433 1.393 . S
C1437 C1436 1.391 . S
C1438 H1428 0.950 . S
C1438 C1439 1.386 . S
C1438 C1440 1.391 . S
C1439 C1438 1.386 . S
C1439 C1443 1.393 . S
C1440 H1429 0.950 . S
C1440 C1438 1.391 . S
C1440 C1441 1.400 . S
C1441 C1435 1.491 . S
C1441 C1440 1.400 . S
C1441 C1442 1.398 . S
C1442 H1430 0.950 . S
C1442 C1441 1.398 . S
C1442 C1443 1.391 . S
C1443 H1431 0.950 . S
C1443 C1439 1.393 . S
C1443 C1442 1.391 . S
H1444 C1452 0.950 . S
H1445 C1457 0.950 . S
H1446 C1454 0.950 . S
H1447 C1456 0.950 . S
H1448 C1458 0.950 . S
H1449 C1460 0.950 . S
H1450 C1462 0.950 . S
H1451 C1463 0.950 . S
C1452 H1444 0.950 . S
C1452 C1453 1.386 . S
C1452 C1454 1.391 . S
C1453 C1452 1.386 . S
C1453 C1457 1.393 . S
C1454 H1446 0.950 . S
C1454 C1452 1.391 . S
C1454 C1455 1.400 . S
C1455 C1454 1.400 . S
C1455 C1456 1.398 . S
C1455 C1461 1.491 . S
C1456 H1447 0.950 . S
C1456 C1455 1.398 . S
C1456 C1457 1.391 . S
C1457 H1445 0.950 . S
C1457 C1453 1.393 . S
C1457 C1456 1.391 . S
C1458 H1448 0.950 . S
C1458 C1459 1.386 . S
C1458 C1460 1.391 . S
C1459 C1458 1.386 . S
C1459 C1463 1.393 . S
C1460 H1449 0.950 . S
C1460 C1458 1.391 . S
C1460 C1461 1.400 . S
C1461 C1455 1.491 . S
C1461 C1460 1.400 . S
C1461 C1462 1.398 . S
C1462 H1450 0.950 . S
C1462 C1461 1.398 . S
C1462 C1463 1.391 . S
C1463 H1451 0.950 . S
C1463 C1459 1.393 . S
C1463 C1462 1.391 . S
H1464 C1472 0.950 . S
H1465 C1477 0.958 . S
H1466 C1474 0.950 . S
H1467 C1476 0.950 . S
H1468 C1478 0.950 . S
H1469 C1480 0.950 . S
H1470 C1482 0.950 . S
H1471 C1483 0.958 . S
C1472 H1464 0.950 . S
C1472 C1473 1.386 . S
C1472 C1474 1.391 . S
C1473 C1472 1.386 . S
C1473 C1477 1.350 1_455 S
C1474 H1466 0.950 . S
C1474 C1472 1.391 . S
C1474 C1475 1.400 . S
C1475 C1474 1.400 . S
C1475 C1476 1.398 1_455 S
C1475 C1481 1.491 1_455 S
C1476 H1467 0.950 . S
C1476 C1475 1.398 1_655 S
C1476 C1477 1.427 . S
C1477 H1465 0.958 . S
C1477 C1473 1.350 1_655 S
C1477 C1476 1.427 . S
C1478 H1468 0.950 . S
C1478 C1479 1.386 . S
C1478 C1480 1.391 . S
C1479 C1478 1.386 . S
C1479 C1483 1.349 1_655 S
C1480 H1469 0.950 . S
C1480 C1478 1.391 . S
C1480 C1481 1.400 . S
C1481 C1475 1.491 1_655 S
C1481 C1480 1.400 . S
C1481 C1482 1.398 1_655 S
C1482 H1470 0.950 . S
C1482 C1481 1.398 1_455 S
C1482 C1483 1.427 . S
C1483 H1471 0.958 . S
C1483 C1479 1.349 1_455 S
C1483 C1482 1.427 . S
H1484 C1492 0.950 . S
H1485 C1497 0.950 . S
H1486 C1494 0.950 . S
H1487 C1496 0.950 . S
H1488 C1498 0.950 . S
H1489 C1500 0.950 . S
H1490 C1502 0.950 . S
H1491 C1503 0.950 . S
C1492 H1484 0.950 . S
C1492 C1493 1.386 . S
C1492 C1494 1.391 . S
C1493 C1492 1.386 . S
C1493 C1497 1.393 . S
C1494 H1486 0.950 . S
C1494 C1492 1.391 . S
C1494 C1495 1.400 . S
C1495 C1494 1.400 . S
C1495 C1496 1.398 . S
C1495 C1501 1.491 . S
C1496 H1487 0.950 . S
C1496 C1495 1.398 . S
C1496 C1497 1.391 . S
C1497 H1485 0.950 . S
C1497 C1493 1.393 . S
C1497 C1496 1.391 . S
C1498 H1488 0.950 . S
C1498 C1499 1.386 . S
C1498 C1500 1.391 . S
C1499 C1498 1.386 . S
C1499 C1503 1.393 . S
C1500 H1489 0.950 . S
C1500 C1498 1.391 . S
C1500 C1501 1.400 . S
C1501 C1495 1.491 . S
C1501 C1500 1.400 . S
C1501 C1502 1.398 . S
C1502 H1490 0.950 . S
C1502 C1501 1.398 . S
C1502 C1503 1.391 . S
C1503 H1491 0.950 . S
C1503 C1499 1.393 . S
C1503 C1502 1.391 . S
H1504 C1512 0.950 . S
H1505 C1517 0.950 . S
H1506 C1514 0.950 . S
H1507 C1516 0.929 1_565 S
H1508 C1518 0.950 . S
H1509 C1520 0.950 . S
H1510 C1522 0.929 1_545 S
H1511 C1523 0.950 . S
C1512 H1504 0.950 . S
C1512 C1513 1.386 . S
C1512 C1514 1.391 . S
C1513 C1512 1.386 . S
C1513 C1517 1.393 . S
C1514 H1506 0.950 . S
C1514 C1512 1.391 . S
C1514 C1515 1.400 . S
C1515 C1514 1.400 . S
C1515 C1516 1.426 . S
C1515 C1521 1.491 1_545 S
C1516 H1507 0.929 1_545 S
C1516 C1515 1.426 . S
C1516 C1517 1.386 . S
C1517 H1505 0.950 . S
C1517 C1513 1.393 . S
C1517 C1516 1.386 . S
C1518 H1508 0.950 . S
C1518 C1519 1.386 . S
C1518 C1520 1.391 . S
C1519 C1518 1.386 . S
C1519 C1523 1.393 . S
C1520 H1509 0.950 . S
C1520 C1518 1.391 . S
C1520 C1521 1.400 . S
C1521 C1515 1.491 1_565 S
C1521 C1520 1.400 . S
C1521 C1522 1.426 . S
C1522 H1510 0.929 1_565 S
C1522 C1521 1.426 . S
C1522 C1523 1.386 . S
C1523 H1511 0.950 . S
C1523 C1519 1.393 . S
C1523 C1522 1.386 . S
H1524 C1532 0.960 . S
H1525 C1537 0.950 . S
H1526 C1534 0.950 . S
H1527 C1536 0.950 1_554 S
H1528 C1538 0.960 . S
H1529 C1540 0.950 . S
H1530 C1542 0.950 1_556 S
H1531 C1543 0.950 . S
C1532 H1524 0.960 . S
C1532 C1533 1.341 1_565 S
C1532 C1534 1.427 . S
C1533 C1532 1.341 1_545 S
C1533 C1537 1.393 . S
C1534 H1526 0.950 . S
C1534 C1532 1.427 . S
C1534 C1535 1.400 1_565 S
C1535 C1534 1.400 1_545 S
C1535 C1536 1.398 . S
C1535 C1541 1.491 1_546 S
C1536 H1527 0.950 1_556 S
C1536 C1535 1.398 . S
C1536 C1537 1.391 . S
C1537 H1525 0.950 . S
C1537 C1533 1.393 . S
C1537 C1536 1.391 . S
C1538 H1528 0.960 . S
C1538 C1539 1.341 1_545 S
C1538 C1540 1.427 . S
C1539 C1538 1.341 1_565 S
C1539 C1543 1.393 . S
C1540 H1529 0.950 . S
C1540 C1538 1.427 . S
C1540 C1541 1.400 1_545 S
C1541 C1535 1.491 1_564 S
C1541 C1540 1.400 1_565 S
C1541 C1542 1.398 . S
C1542 H1530 0.950 1_554 S
C1542 C1541 1.398 . S
C1542 C1543 1.391 . S
C1543 H1531 0.950 . S
C1543 C1539 1.393 . S
C1543 C1542 1.391 . S
H1544 C1552 0.950 . S
H1545 C1557 0.907 1_655 S
H1546 C1554 0.950 . S
H1547 C1556 0.950 1_556 S
H1548 C1558 0.950 . S
H1549 C1560 0.950 . S
H1550 C1562 0.950 1_554 S
H1551 C1563 0.907 1_455 S
C1552 H1544 0.950 . S
C1552 C1553 1.386 . S
C1552 C1554 1.391 . S
C1553 C1552 1.386 . S
C1553 C1557 1.430 . S
C1554 H1546 0.950 . S
C1554 C1552 1.391 . S
C1554 C1555 1.400 . S
C1555 C1554 1.400 . S
C1555 C1556 1.398 1_455 S
C1555 C1561 1.491 1_454 S
C1556 H1547 0.950 1_554 S
C1556 C1555 1.398 1_655 S
C1556 C1557 1.397 1_655 S
C1557 H1545 0.907 1_455 S
C1557 C1553 1.430 . S
C1557 C1556 1.397 1_455 S
C1558 H1548 0.950 . S
C1558 C1559 1.386 . S
C1558 C1560 1.391 . S
C1559 C1558 1.386 . S
C1559 C1563 1.430 . S
C1560 H1549 0.950 . S
C1560 C1558 1.391 . S
C1560 C1561 1.400 . S
C1561 C1555 1.491 1_656 S
C1561 C1560 1.400 . S
C1561 C1562 1.398 1_655 S
C1562 H1550 0.950 1_556 S
C1562 C1561 1.398 1_455 S
C1562 C1563 1.397 1_455 S
C1563 H1551 0.907 1_655 S
C1563 C1559 1.430 . S
C1563 C1562 1.397 1_655 S
H1564 C1572 0.950 . S
H1565 C1577 0.950 . S
H1566 C1574 0.953 . S
H1567 C1576 0.950 . S
H1568 C1578 0.950 . S
H1569 C1580 0.953 . S
H1570 C1582 0.950 . S
H1571 C1583 0.950 . S
C1572 H1564 0.950 . S
C1572 C1573 1.386 . S
C1572 C1574 1.391 . S
C1573 C1572 1.386 . S
C1573 C1577 1.393 . S
C1574 H1566 0.953 . S
C1574 C1572 1.391 . S
C1574 C1575 1.400 . S
C1575 C1574 1.400 . S
C1575 C1576 1.398 . S
C1575 C1581 1.491 1_554 S
C1576 H1567 0.950 . S
C1576 C1575 1.398 . S
C1576 C1577 1.391 . S
C1577 H1565 0.950 . S
C1577 C1573 1.393 . S
C1577 C1576 1.391 . S
C1578 H1568 0.950 . S
C1578 C1579 1.386 . S
C1578 C1580 1.391 . S
C1579 C1578 1.386 . S
C1579 C1583 1.393 . S
C1580 H1569 0.953 . S
C1580 C1578 1.391 . S
C1580 C1581 1.400 . S
C1581 C1575 1.491 1_556 S
C1581 C1580 1.400 . S
C1581 C1582 1.398 . S
C1582 H1570 0.950 . S
C1582 C1581 1.398 . S
C1582 C1583 1.391 . S
C1583 H1571 0.950 . S
C1583 C1579 1.393 . S
C1583 C1582 1.391 . S
H1584 C1592 0.950 . S
H1585 C1597 0.950 . S
H1586 C1594 0.950 . S
H1587 C1596 0.950 . S
H1588 C1598 0.950 . S
H1589 C1600 0.950 . S
H1590 C1602 0.950 . S
H1591 C1603 0.950 . S
C1592 H1584 0.950 . S
C1592 C1593 1.386 . S
C1592 C1594 1.391 . S
C1593 C1592 1.386 . S
C1593 C1597 1.393 . S
C1594 H1586 0.950 . S
C1594 C1592 1.391 . S
C1594 C1595 1.400 . S
C1595 C1594 1.400 . S
C1595 C1596 1.398 . S
C1595 C1601 1.491 . S
C1596 H1587 0.950 . S
C1596 C1595 1.398 . S
C1596 C1597 1.391 . S
C1597 H1585 0.950 . S
C1597 C1593 1.393 . S
C1597 C1596 1.391 . S
C1598 H1588 0.950 . S
C1598 C1599 1.386 . S
C1598 C1600 1.391 . S
C1599 C1598 1.386 . S
C1599 C1603 1.393 . S
C1600 H1589 0.950 . S
C1600 C1598 1.391 . S
C1600 C1601 1.400 . S
C1601 C1595 1.491 . S
C1601 C1600 1.400 . S
C1601 C1602 1.398 . S
C1602 H1590 0.950 . S
C1602 C1601 1.398 . S
C1602 C1603 1.391 . S
C1603 H1591 0.950 . S
C1603 C1599 1.393 . S
C1603 C1602 1.391 . S
H1604 C1612 0.950 . S
H1605 C1617 0.950 . S
H1606 C1614 0.950 . S
H1607 C1616 0.950 . S
H1608 C1618 0.950 1_556 S
H1609 C1620 0.950 . S
H1610 C1622 0.950 . S
H1611 C1623 0.950 . S
C1612 H1604 0.950 . S
C1612 C1613 1.386 . S
C1612 C1614 1.391 . S
C1613 C1612 1.386 . S
C1613 C1617 1.393 . S
C1614 H1606 0.950 . S
C1614 C1612 1.391 . S
C1614 C1615 1.400 . S
C1615 C1614 1.400 . S
C1615 C1616 1.398 . S
C1615 C1621 1.491 . S
C1616 H1607 0.950 . S
C1616 C1615 1.398 . S
C1616 C1617 1.391 . S
C1617 H1605 0.950 . S
C1617 C1613 1.393 . S
C1617 C1616 1.391 . S
C1618 H1608 0.950 1_554 S
C1618 C1619 1.386 . S
C1618 C1620 1.391 . S
C1619 C1618 1.386 . S
C1619 C1623 1.393 . S
C1620 H1609 0.950 . S
C1620 C1618 1.391 . S
C1620 C1621 1.400 . S
C1621 C1615 1.491 . S
C1621 C1620 1.400 . S
C1621 C1622 1.398 . S
C1622 H1610 0.950 . S
C1622 C1621 1.398 . S
C1622 C1623 1.391 . S
C1623 H1611 0.950 . S
C1623 C1619 1.393 . S
C1623 C1622 1.391 . S
H1624 C1632 0.950 . S
H1625 C1637 0.950 1_556 S
H1626 C1634 0.950 . S
H1627 C1636 0.950 . S
H1628 C1638 0.950 . S
H1629 C1640 0.950 . S
H1630 C1642 0.950 . S
H1631 C1643 0.950 . S
C1632 H1624 0.950 . S
C1632 C1633 1.386 . S
C1632 C1634 1.391 . S
C1633 C1632 1.386 . S
C1633 C1637 1.393 . S
C1634 H1626 0.950 . S
C1634 C1632 1.391 . S
C1634 C1635 1.400 . S
C1635 C1634 1.400 . S
C1635 C1636 1.398 . S
C1635 C1641 1.491 . S
C1636 H1627 0.950 . S
C1636 C1635 1.398 . S
C1636 C1637 1.391 . S
C1637 H1625 0.950 1_554 S
C1637 C1633 1.393 . S
C1637 C1636 1.391 . S
C1638 H1628 0.950 . S
C1638 C1639 1.386 . S
C1638 C1640 1.391 . S
C1639 C1638 1.386 . S
C1639 C1643 1.393 . S
C1640 H1629 0.950 . S
C1640 C1638 1.391 . S
C1640 C1641 1.400 . S
C1641 C1635 1.491 . S
C1641 C1640 1.400 . S
C1641 C1642 1.398 . S
C1642 H1630 0.950 . S
C1642 C1641 1.398 . S
C1642 C1643 1.391 . S
C1643 H1631 0.950 . S
C1643 C1639 1.393 . S
C1643 C1642 1.391 . S
H1644 C1652 0.950 . S
H1645 C1657 0.950 . S
H1646 C1654 0.950 . S
H1647 C1656 0.950 . S
H1648 C1658 0.950 . S
H1649 C1660 0.950 . S
H1650 C1662 0.950 . S
H1651 C1663 0.950 . S
C1652 H1644 0.950 . S
C1652 C1653 1.386 . S
C1652 C1654 1.391 . S
C1653 C1652 1.386 . S
C1653 C1657 1.393 . S
C1654 H1646 0.950 . S
C1654 C1652 1.391 . S
C1654 C1655 1.400 . S
C1655 C1654 1.400 . S
C1655 C1656 1.398 . S
C1655 C1661 1.491 . S
C1656 H1647 0.950 . S
C1656 C1655 1.398 . S
C1656 C1657 1.391 . S
C1657 H1645 0.950 . S
C1657 C1653 1.393 . S
C1657 C1656 1.391 . S
C1658 H1648 0.950 . S
C1658 C1659 1.386 . S
C1658 C1660 1.391 . S
C1659 C1658 1.386 . S
C1659 C1663 1.393 . S
C1660 H1649 0.950 . S
C1660 C1658 1.391 . S
C1660 C1661 1.400 . S
C1661 C1655 1.491 . S
C1661 C1660 1.400 . S
C1661 C1662 1.398 . S
C1662 H1650 0.950 . S
C1662 C1661 1.398 . S
C1662 C1663 1.391 . S
C1663 H1651 0.950 . S
C1663 C1659 1.393 . S
C1663 C1662 1.391 . S
H1664 C1672 0.950 . S
H1665 C1677 0.950 . S
H1666 C1674 0.950 . S
H1667 C1676 0.950 . S
H1668 C1678 0.950 . S
H1669 C1680 0.950 . S
H1670 C1682 0.950 . S
H1671 C1683 0.950 . S
C1672 H1664 0.950 . S
C1672 C1673 1.386 . S
C1672 C1674 1.391 . S
C1673 C1672 1.386 . S
C1673 C1677 1.393 . S
C1674 H1666 0.950 . S
C1674 C1672 1.391 . S
C1674 C1675 1.400 . S
C1675 C1674 1.400 . S
C1675 C1676 1.398 . S
C1675 C1681 1.491 . S
C1676 H1667 0.950 . S
C1676 C1675 1.398 . S
C1676 C1677 1.391 . S
C1677 H1665 0.950 . S
C1677 C1673 1.393 . S
C1677 C1676 1.391 . S
C1678 H1668 0.950 . S
C1678 C1679 1.386 . S
C1678 C1680 1.391 . S
C1679 C1678 1.386 . S
C1679 C1683 1.393 . S
C1680 H1669 0.950 . S
C1680 C1678 1.391 . S
C1680 C1681 1.400 . S
C1681 C1675 1.491 . S
C1681 C1680 1.400 . S
C1681 C1682 1.398 . S
C1682 H1670 0.950 . S
C1682 C1681 1.398 . S
C1682 C1683 1.391 . S
C1683 H1671 0.950 . S
C1683 C1679 1.393 . S
C1683 C1682 1.391 . S
H1684 C1692 0.950 . S
H1685 C1697 0.950 . S
H1686 C1694 0.950 . S
H1687 C1696 0.950 . S
H1688 C1698 0.950 . S
H1689 C1700 0.950 . S
H1690 C1702 0.950 . S
H1691 C1703 0.950 . S
C1692 H1684 0.950 . S
C1692 C1693 1.386 . S
C1692 C1694 1.391 . S
C1693 C1692 1.386 . S
C1693 C1697 1.393 . S
C1694 H1686 0.950 . S
C1694 C1692 1.391 . S
C1694 C1695 1.400 . S
C1695 C1694 1.400 . S
C1695 C1696 1.398 . S
C1695 C1701 1.491 . S
C1696 H1687 0.950 . S
C1696 C1695 1.398 . S
C1696 C1697 1.391 . S
C1697 H1685 0.950 . S
C1697 C1693 1.393 . S
C1697 C1696 1.391 . S
C1698 H1688 0.950 . S
C1698 C1699 1.386 . S
C1698 C1700 1.391 . S
C1699 C1698 1.386 . S
C1699 C1703 1.393 . S
C1700 H1689 0.950 . S
C1700 C1698 1.391 . S
C1700 C1701 1.400 . S
C1701 C1695 1.491 . S
C1701 C1700 1.400 . S
C1701 C1702 1.398 . S
C1702 H1690 0.950 . S
C1702 C1701 1.398 . S
C1702 C1703 1.391 . S
C1703 H1691 0.950 . S
C1703 C1699 1.393 . S
C1703 C1702 1.391 . S
H1704 C1712 0.950 . S
H1705 C1717 0.950 . S
H1706 C1714 0.950 . S
H1707 C1716 0.950 . S
H1708 C1718 0.950 . S
H1709 C1720 0.950 . S
H1710 C1722 0.950 . S
H1711 C1723 0.950 1_554 S
C1712 H1704 0.950 . S
C1712 C1713 1.386 . S
C1712 C1714 1.391 . S
C1713 C1712 1.386 . S
C1713 C1717 1.393 . S
C1714 H1706 0.950 . S
C1714 C1712 1.391 . S
C1714 C1715 1.400 . S
C1715 C1714 1.400 . S
C1715 C1716 1.398 . S
C1715 C1721 1.491 . S
C1716 H1707 0.950 . S
C1716 C1715 1.398 . S
C1716 C1717 1.391 . S
C1717 H1705 0.950 . S
C1717 C1713 1.393 . S
C1717 C1716 1.391 . S
C1718 H1708 0.950 . S
C1718 C1719 1.386 . S
C1718 C1720 1.391 . S
C1719 C1718 1.386 . S
C1719 C1723 1.393 . S
C1720 H1709 0.950 . S
C1720 C1718 1.391 . S
C1720 C1721 1.400 . S
C1721 C1715 1.491 . S
C1721 C1720 1.400 . S
C1721 C1722 1.398 . S
C1722 H1710 0.950 . S
C1722 C1721 1.398 . S
C1722 C1723 1.391 . S
C1723 H1711 0.950 1_556 S
C1723 C1719 1.393 . S
C1723 C1722 1.391 . S
H1724 C1732 0.950 . S
H1725 C1737 0.950 . S
H1726 C1734 0.950 . S
H1727 C1736 0.950 . S
H1728 C1738 0.950 . S
H1729 C1740 0.950 . S
H1730 C1742 0.950 . S
H1731 C1743 0.950 . S
C1732 H1724 0.950 . S
C1732 C1733 1.386 . S
C1732 C1734 1.391 . S
C1733 C1732 1.386 . S
C1733 C1737 1.393 . S
C1734 H1726 0.950 . S
C1734 C1732 1.391 . S
C1734 C1735 1.400 . S
C1735 C1734 1.400 . S
C1735 C1736 1.398 . S
C1735 C1741 1.491 . S
C1736 H1727 0.950 . S
C1736 C1735 1.398 . S
C1736 C1737 1.391 . S
C1737 H1725 0.950 . S
C1737 C1733 1.393 . S
C1737 C1736 1.391 . S
C1738 H1728 0.950 . S
C1738 C1739 1.386 . S
C1738 C1740 1.391 . S
C1739 C1738 1.386 . S
C1739 C1743 1.393 . S
C1740 H1729 0.950 . S
C1740 C1738 1.391 . S
C1740 C1741 1.400 . S
C1741 C1735 1.491 . S
C1741 C1740 1.400 . S
C1741 C1742 1.398 . S
C1742 H1730 0.950 . S
C1742 C1741 1.398 . S
C1742 C1743 1.391 . S
C1743 H1731 0.950 . S
C1743 C1739 1.393 . S
C1743 C1742 1.391 . S
H1744 C1752 0.950 . S
H1745 C1757 0.950 . S
H1746 C1754 0.950 . S
H1747 C1756 0.950 . S
H1748 C1758 0.950 1_554 S
H1749 C1760 0.950 . S
H1750 C1762 0.950 . S
H1751 C1763 0.950 . S
C1752 H1744 0.950 . S
C1752 C1753 1.386 . S
C1752 C1754 1.391 . S
C1753 C1752 1.386 . S
C1753 C1757 1.393 . S
C1754 H1746 0.950 . S
C1754 C1752 1.391 . S
C1754 C1755 1.400 . S
C1755 C1754 1.400 . S
C1755 C1756 1.398 . S
C1755 C1761 1.491 . S
C1756 H1747 0.950 . S
C1756 C1755 1.398 . S
C1756 C1757 1.391 . S
C1757 H1745 0.950 . S
C1757 C1753 1.393 . S
C1757 C1756 1.391 . S
C1758 H1748 0.950 1_556 S
C1758 C1759 1.386 . S
C1758 C1760 1.391 . S
C1759 C1758 1.386 . S
C1759 C1763 1.393 . S
C1760 H1749 0.950 . S
C1760 C1758 1.391 . S
C1760 C1761 1.400 . S
C1761 C1755 1.491 . S
C1761 C1760 1.400 . S
C1761 C1762 1.398 . S
C1762 H1750 0.950 . S
C1762 C1761 1.398 . S
C1762 C1763 1.391 . S
C1763 H1751 0.950 . S
C1763 C1759 1.393 . S
C1763 C1762 1.391 . S
H1764 C1772 0.950 . S
H1765 C1777 0.950 . S
H1766 C1774 0.950 . S
H1767 C1776 0.950 . S
H1768 C1778 0.950 . S
H1769 C1780 0.950 . S
H1770 C1782 0.950 . S
H1771 C1783 0.950 . S
C1772 H1764 0.950 . S
C1772 C1773 1.386 . S
C1772 C1774 1.391 . S
C1773 C1772 1.386 . S
C1773 C1777 1.393 . S
C1774 H1766 0.950 . S
C1774 C1772 1.391 . S
C1774 C1775 1.400 . S
C1775 C1774 1.400 . S
C1775 C1776 1.398 . S
C1775 C1781 1.491 . S
C1776 H1767 0.950 . S
C1776 C1775 1.398 . S
C1776 C1777 1.391 . S
C1777 H1765 0.950 . S
C1777 C1773 1.393 . S
C1777 C1776 1.391 . S
C1778 H1768 0.950 . S
C1778 C1779 1.386 . S
C1778 C1780 1.391 . S
C1779 C1778 1.386 . S
C1779 C1783 1.393 . S
C1780 H1769 0.950 . S
C1780 C1778 1.391 . S
C1780 C1781 1.400 . S
C1781 C1775 1.491 . S
C1781 C1780 1.400 . S
C1781 C1782 1.398 . S
C1782 H1770 0.950 . S
C1782 C1781 1.398 . S
C1782 C1783 1.391 . S
C1783 H1771 0.950 . S
C1783 C1779 1.393 . S
C1783 C1782 1.391 . S
H1784 C1792 0.950 . S
H1785 C1797 0.950 . S
H1786 C1794 0.950 . S
H1787 C1796 0.950 . S
H1788 C1798 0.950 . S
H1789 C1800 0.950 . S
H1790 C1802 0.950 . S
H1791 C1803 0.950 . S
C1792 H1784 0.950 . S
C1792 C1793 1.386 . S
C1792 C1794 1.391 . S
C1793 C1792 1.386 . S
C1793 C1797 1.393 . S
C1794 H1786 0.950 . S
C1794 C1792 1.391 . S
C1794 C1795 1.400 . S
C1795 C1794 1.400 . S
C1795 C1796 1.398 . S
C1795 C1801 1.491 . S
C1796 H1787 0.950 . S
C1796 C1795 1.398 . S
C1796 C1797 1.391 . S
C1797 H1785 0.950 . S
C1797 C1793 1.393 . S
C1797 C1796 1.391 . S
C1798 H1788 0.950 . S
C1798 C1799 1.386 . S
C1798 C1800 1.391 . S
C1799 C1798 1.386 . S
C1799 C1803 1.393 . S
C1800 H1789 0.950 . S
C1800 C1798 1.391 . S
C1800 C1801 1.400 . S
C1801 C1795 1.491 . S
C1801 C1800 1.400 . S
C1801 C1802 1.398 . S
C1802 H1790 0.950 . S
C1802 C1801 1.398 . S
C1802 C1803 1.391 . S
C1803 H1791 0.950 . S
C1803 C1799 1.393 . S
C1803 C1802 1.391 . S
H1804 C1812 0.950 . S
H1805 C1817 0.950 . S
H1806 C1814 0.950 . S
H1807 C1816 0.950 . S
H1808 C1818 0.950 . S
H1809 C1820 0.950 . S
H1810 C1822 0.950 . S
H1811 C1823 0.950 . S
C1812 H1804 0.950 . S
C1812 C1813 1.386 . S
C1812 C1814 1.391 . S
C1813 C1812 1.386 . S
C1813 C1817 1.393 . S
C1814 H1806 0.950 . S
C1814 C1812 1.391 . S
C1814 C1815 1.400 . S
C1815 C1814 1.400 . S
C1815 C1816 1.398 . S
C1815 C1821 1.491 . S
C1816 H1807 0.950 . S
C1816 C1815 1.398 . S
C1816 C1817 1.391 . S
C1817 H1805 0.950 . S
C1817 C1813 1.393 . S
C1817 C1816 1.391 . S
C1818 H1808 0.950 . S
C1818 C1819 1.386 . S
C1818 C1820 1.391 . S
C1819 C1818 1.386 . S
C1819 C1823 1.393 . S
C1820 H1809 0.950 . S
C1820 C1818 1.391 . S
C1820 C1821 1.400 . S
C1821 C1815 1.491 . S
C1821 C1820 1.400 . S
C1821 C1822 1.398 . S
C1822 H1810 0.950 . S
C1822 C1821 1.398 . S
C1822 C1823 1.391 . S
C1823 H1811 0.950 . S
C1823 C1819 1.393 . S
C1823 C1822 1.391 . S
H1824 C1832 0.950 . S
H1825 C1837 0.950 . S
H1826 C1834 0.950 . S
H1827 C1836 0.950 . S
H1828 C1838 0.950 . S
H1829 C1840 0.950 . S
H1830 C1842 0.950 . S
H1831 C1843 0.950 . S
C1832 H1824 0.950 . S
C1832 C1833 1.386 . S
C1832 C1834 1.391 . S
C1833 C1832 1.386 . S
C1833 C1837 1.393 . S
C1834 H1826 0.950 . S
C1834 C1832 1.391 . S
C1834 C1835 1.400 . S
C1835 C1834 1.400 . S
C1835 C1836 1.398 . S
C1835 C1841 1.491 . S
C1836 H1827 0.950 . S
C1836 C1835 1.398 . S
C1836 C1837 1.391 . S
C1837 H1825 0.950 . S
C1837 C1833 1.393 . S
C1837 C1836 1.391 . S
C1838 H1828 0.950 . S
C1838 C1839 1.386 . S
C1838 C1840 1.391 . S
C1839 C1838 1.386 . S
C1839 C1843 1.393 . S
C1840 H1829 0.950 . S
C1840 C1838 1.391 . S
C1840 C1841 1.400 . S
C1841 C1835 1.491 . S
C1841 C1840 1.400 . S
C1841 C1842 1.398 . S
C1842 H1830 0.950 . S
C1842 C1841 1.398 . S
C1842 C1843 1.391 . S
C1843 H1831 0.950 . S
C1843 C1839 1.393 . S
C1843 C1842 1.391 . S
H1844 C1852 0.950 . S
H1845 C1857 0.950 . S
H1846 C1854 0.950 . S
H1847 C1856 0.950 . S
H1848 C1858 0.950 . S
H1849 C1860 0.950 . S
H1850 C1862 0.950 . S
H1851 C1863 0.950 . S
C1852 H1844 0.950 . S
C1852 C1853 1.386 . S
C1852 C1854 1.391 . S
C1853 C1852 1.386 . S
C1853 C1857 1.393 . S
C1854 H1846 0.950 . S
C1854 C1852 1.391 . S
C1854 C1855 1.400 . S
C1855 C1854 1.400 . S
C1855 C1856 1.398 . S
C1855 C1861 1.491 1_545 S
C1856 H1847 0.950 . S
C1856 C1855 1.398 . S
C1856 C1857 1.391 . S
C1857 H1845 0.950 . S
C1857 C1853 1.393 . S
C1857 C1856 1.391 . S
C1858 H1848 0.950 . S
C1858 C1859 1.386 . S
C1858 C1860 1.391 . S
C1859 C1858 1.386 . S
C1859 C1863 1.393 . S
C1860 H1849 0.950 . S
C1860 C1858 1.391 . S
C1860 C1861 1.400 . S
C1861 C1855 1.491 1_565 S
C1861 C1860 1.400 . S
C1861 C1862 1.398 . S
C1862 H1850 0.950 . S
C1862 C1861 1.398 . S
C1862 C1863 1.391 . S
C1863 H1851 0.950 . S
C1863 C1859 1.393 . S
C1863 C1862 1.391 . S
H1864 C1872 0.950 . S
H1865 C1877 0.950 . S
H1866 C1874 0.950 . S
H1867 C1876 0.950 1_455 S
H1868 C1878 0.950 . S
H1869 C1880 0.950 . S
H1870 C1882 0.950 1_655 S
H1871 C1883 0.950 . S
C1872 H1864 0.950 . S
C1872 C1873 1.386 . S
C1872 C1874 1.391 . S
C1873 C1872 1.386 . S
C1873 C1877 1.393 . S
C1874 H1866 0.950 . S
C1874 C1872 1.391 . S
C1874 C1875 1.400 . S
C1875 C1874 1.400 . S
C1875 C1876 1.398 . S
C1875 C1881 1.491 1_655 S
C1876 H1867 0.950 1_655 S
C1876 C1875 1.398 . S
C1876 C1877 1.391 . S
C1877 H1865 0.950 . S
C1877 C1873 1.393 . S
C1877 C1876 1.391 . S
C1878 H1868 0.950 . S
C1878 C1879 1.386 . S
C1878 C1880 1.391 . S
C1879 C1878 1.386 . S
C1879 C1883 1.393 . S
C1880 H1869 0.950 . S
C1880 C1878 1.391 . S
C1880 C1881 1.400 . S
C1881 C1875 1.491 1_455 S
C1881 C1880 1.400 . S
C1881 C1882 1.398 . S
C1882 H1870 0.950 1_455 S
C1882 C1881 1.398 . S
C1882 C1883 1.391 . S
C1883 H1871 0.950 . S
C1883 C1879 1.393 . S
C1883 C1882 1.391 . S
H1884 C1892 0.950 . S
H1885 C1897 0.950 . S
H1886 C1894 0.950 . S
H1887 C1896 0.950 . S
H1888 C1898 0.950 . S
H1889 C1900 0.950 . S
H1890 C1902 0.950 . S
H1891 C1903 0.950 . S
C1892 H1884 0.950 . S
C1892 C1893 1.386 . S
C1892 C1894 1.391 . S
C1893 C1892 1.386 . S
C1893 C1897 1.393 . S
C1894 H1886 0.950 . S
C1894 C1892 1.391 . S
C1894 C1895 1.400 . S
C1895 C1894 1.400 . S
C1895 C1896 1.398 . S
C1895 C1901 1.491 . S
C1896 H1887 0.950 . S
C1896 C1895 1.398 . S
C1896 C1897 1.391 . S
C1897 H1885 0.950 . S
C1897 C1893 1.393 . S
C1897 C1896 1.391 . S
C1898 H1888 0.950 . S
C1898 C1899 1.386 . S
C1898 C1900 1.391 . S
C1899 C1898 1.386 . S
C1899 C1903 1.393 . S
C1900 H1889 0.950 . S
C1900 C1898 1.391 . S
C1900 C1901 1.400 . S
C1901 C1895 1.491 . S
C1901 C1900 1.400 . S
C1901 C1902 1.398 . S
C1902 H1890 0.950 . S
C1902 C1901 1.398 . S
C1902 C1903 1.391 . S
C1903 H1891 0.950 . S
C1903 C1899 1.393 . S
C1903 C1902 1.391 . S
H1904 C1912 0.950 . S
H1905 C1917 0.950 . S
H1906 C1914 0.950 1_565 S
H1907 C1916 0.950 . S
H1908 C1918 0.950 . S
H1909 C1920 0.950 1_545 S
H1910 C1922 0.950 . S
H1911 C1923 0.950 . S
C1912 H1904 0.950 . S
C1912 C1913 1.386 . S
C1912 C1914 1.391 . S
C1913 C1912 1.386 . S
C1913 C1917 1.393 . S
C1914 H1906 0.950 1_545 S
C1914 C1912 1.391 . S
C1914 C1915 1.400 . S
C1915 C1914 1.400 . S
C1915 C1916 1.398 . S
C1915 C1921 1.491 1_545 S
C1916 H1907 0.950 . S
C1916 C1915 1.398 . S
C1916 C1917 1.391 . S
C1917 H1905 0.950 . S
C1917 C1913 1.393 . S
C1917 C1916 1.391 . S
C1918 H1908 0.950 . S
C1918 C1919 1.386 . S
C1918 C1920 1.391 . S
C1919 C1918 1.386 . S
C1919 C1923 1.393 . S
C1920 H1909 0.950 1_565 S
C1920 C1918 1.391 . S
C1920 C1921 1.400 . S
C1921 C1915 1.491 1_565 S
C1921 C1920 1.400 . S
C1921 C1922 1.398 . S
C1922 H1910 0.950 . S
C1922 C1921 1.398 . S
C1922 C1923 1.391 . S
C1923 H1911 0.950 . S
C1923 C1919 1.393 . S
C1923 C1922 1.391 . S
H1924 C1932 0.950 . S
H1925 C1937 0.950 . S
H1926 C1934 0.950 . S
H1927 C1936 0.950 . S
H1928 C1938 0.950 . S
H1929 C1940 0.950 . S
H1930 C1942 0.950 . S
H1931 C1943 0.950 . S
C1932 H1924 0.950 . S
C1932 C1933 1.386 . S
C1932 C1934 1.391 . S
C1933 C1932 1.386 . S
C1933 C1937 1.393 . S
C1934 H1926 0.950 . S
C1934 C1932 1.391 . S
C1934 C1935 1.400 . S
C1935 C1934 1.400 . S
C1935 C1936 1.398 . S
C1935 C1941 1.491 1_455 S
C1936 H1927 0.950 . S
C1936 C1935 1.398 . S
C1936 C1937 1.391 . S
C1937 H1925 0.950 . S
C1937 C1933 1.393 . S
C1937 C1936 1.391 . S
C1938 H1928 0.950 . S
C1938 C1939 1.386 . S
C1938 C1940 1.391 . S
C1939 C1938 1.386 . S
C1939 C1943 1.393 . S
C1940 H1929 0.950 . S
C1940 C1938 1.391 . S
C1940 C1941 1.400 . S
C1941 C1935 1.491 1_655 S
C1941 C1940 1.400 . S
C1941 C1942 1.398 . S
C1942 H1930 0.950 . S
C1942 C1941 1.398 . S
C1942 C1943 1.391 . S
C1943 H1931 0.950 . S
C1943 C1939 1.393 . S
C1943 C1942 1.391 . S
C513 C75 0.801 . S
C519 C5 0.805 . S
C533 C47 0.805 . S
C539 C19 0.801 . S
C553 C33 0.806 . S
C559 C61 0.801 . S
C573 C89 0.802 . S
C579 C159 0.811 . S
C593 C103 0.812 . S
C599 C131 0.806 . S
C613 C145 0.801 . S
C619 C117 0.806 . S
C633 C173 0.811 . S
C639 C243 0.804 . S
C653 C187 0.803 . S
C659 C215 0.811 . S
C673 C229 0.808 . S
C679 C201 0.801 . S
C693 C327 0.808 . S
C699 C257 0.811 . S
C713 C299 0.802 . S
C719 C271 0.811 . S
C733 C285 0.805 . S
C739 C313 0.811 . S
C753 C411 0.801 . S
C759 C341 0.805 . S
C773 C383 0.809 . S
C779 C355 0.810 . S
C793 C369 0.806 . S
C799 C397 0.801 . S
C813 C495 0.810 . S
C819 C425 0.801 . S
C833 C467 0.812 . S
C839 C439 0.805 . S
C853 C481 0.812 . S
C859 C453 0.805 . S
C873 C233 1.562 . S
C879 C9 1.564 . S
C893 C247 1.580 . S
C899 C23 1.577 . S
C913 C219 1.584 . S
C919 C37 1.585 . S
C933 C51 1.584 . S
C939 C373 1.585 1_554 S
C953 C65 1.556 . S
C959 C345 1.558 1_554 S
C973 C79 1.581 . S
C979 C359 1.583 1_554 S
C993 C93 1.566 . S
C999 C485 1.564 . S
C1013 C499 1.581 . S
C1019 C107 1.583 . S
C1033 C471 1.555 . S
C1039 C121 1.556 . S
C1053 C289 1.587 1_556 S
C1059 C135 1.586 . S
C1073 C261 1.576 1_556 S
C1079 C149 1.573 . S
C1093 C163 1.553 . S
C1099 C275 1.553 1_556 S
C1113 C177 1.568 . S
C1119 C401 1.571 . S
C1133 C415 1.569 . S
C1139 C191 1.566 . S
C1153 C387 1.565 . S
C1159 C205 1.563 . S
C1173 C303 1.586 . S
C1179 C457 1.587 . S
C1193 C429 1.575 . S
C1199 C317 1.572 . S
C1213 C331 1.557 . S
C1219 C443 1.558 . S
C1233 C263 1.555 . S
C1239 C11 1.555 . S
C1253 C277 1.553 . S
C1259 C25 1.553 . S
C1273 C39 1.557 . S
C1279 C291 1.557 . S
C1293 C53 1.560 . S
C1299 C473 1.560 . S
C1313 C487 1.551 . S
C1319 C67 1.551 . S
C1333 C501 1.549 . S
C1339 C81 1.549 . S
C1353 C95 1.556 . S
C1359 C347 1.556 . S
C1373 C109 1.558 . S
C1379 C361 1.558 . S
C1393 C375 1.550 . S
C1399 C123 1.550 . S
C1413 C137 1.549 . S
C1419 C221 1.549 . S
C1433 C151 1.562 . S
C1439 C235 1.562 . S
C1453 C249 1.561 . S
C1459 C165 1.561 . S
C1473 C179 1.555 . S
C1479 C431 1.555 . S
C1493 C193 1.552 . S
C1499 C445 1.552 . S
C1513 C459 1.550 . S
C1519 C207 1.550 . S
C1533 C389 1.557 . S
C1539 C305 1.557 . S
C1553 C319 1.552 . S
C1559 C403 1.552 . S
C1573 C333 1.558 . S
C1579 C417 1.558 . S
C1593 C378 1.617 1_554 S
C1599 C0 1.622 . S
C1613 C14 1.614 . S
C1619 C392 1.627 1_554 S
C1633 C406 1.627 1_554 S
C1639 C28 1.612 . S
C1653 C42 1.615 . S
C1659 C168 1.627 . S
C1673 C182 1.623 . S
C1679 C56 1.618 . S
C1693 C196 1.610 . S
C1699 C70 1.630 . S
C1713 C84 1.610 . S
C1719 C294 1.631 1_556 S
C1733 C308 1.619 1_556 S
C1739 C98 1.620 . S
C1753 C112 1.631 . S
C1759 C322 1.610 1_556 S
C1773 C126 1.630 . S
C1779 C420 1.611 . S
C1793 C140 1.629 . S
C1799 C434 1.612 . S
C1813 C448 1.627 . S
C1819 C154 1.612 . S
C1833 C210 1.613 . S
C1839 C336 1.629 . S
C1853 C224 1.619 . S
C1859 C350 1.623 . S
C1873 C238 1.625 . S
C1879 C364 1.615 . S
C1893 C252 1.617 . S
C1899 C462 1.622 . S
C1913 C266 1.627 . S
C1919 C476 1.615 . S
C1933 C490 1.618 . S
C1939 C280 1.621 . S
