# Generated by pormake.
# Topology snz, (6)-cn, num edge types: 1
# Building blocks:
#     Node 0, Type 0, BuildingBlock: BETDIP_clean_sbu_0, # of connection points: 6
#     Node 1, Type 0, BuildingBlock: BETDIP_clean_sbu_0, # of connection points: 6
#     Node 2, Type 0, BuildingBlock: BETDIP_clean_sbu_0, # of connection points: 6
#     Node 3, Type 0, BuildingBlock: BETDIP_clean_sbu_0, # of connection points: 6
#     Node 4, Type 0, BuildingBlock: BETDIP_clean_sbu_0, # of connection points: 6
#     Node 5, Type 0, BuildingBlock: BETDIP_clean_sbu_0, # of connection points: 6
#     Node 6, Type 0, BuildingBlock: BETDIP_clean_sbu_0, # of connection points: 6
#     Node 7, Type 0, BuildingBlock: BETDIP_clean_sbu_0, # of connection points: 6
#     Node 8, Type 0, BuildingBlock: BETDIP_clean_sbu_0, # of connection points: 6
#     Edge 9, Type (0, 0), BuildingBlock: MIFKUJ_clean_linker_0, # of connection points: 2
#     Edge 10, Type (0, 0), BuildingBlock: MIFKUJ_clean_linker_0, # of connection points: 2
#     Edge 11, Type (0, 0), BuildingBlock: MIFKUJ_clean_linker_0, # of connection points: 2
#     Edge 12, Type (0, 0), BuildingBlock: MIFKUJ_clean_linker_0, # of connection points: 2
#     Edge 13, Type (0, 0), BuildingBlock: MIFKUJ_clean_linker_0, # of connection points: 2
#     Edge 14, Type (0, 0), BuildingBlock: MIFKUJ_clean_linker_0, # of connection points: 2
#     Edge 15, Type (0, 0), BuildingBlock: MIFKUJ_clean_linker_0, # of connection points: 2
#     Edge 16, Type (0, 0), BuildingBlock: MIFKUJ_clean_linker_0, # of connection points: 2
#     Edge 17, Type (0, 0), BuildingBlock: MIFKUJ_clean_linker_0, # of connection points: 2
#     Edge 18, Type (0, 0), BuildingBlock: MIFKUJ_clean_linker_0, # of connection points: 2
#     Edge 19, Type (0, 0), BuildingBlock: MIFKUJ_clean_linker_0, # of connection points: 2
#     Edge 20, Type (0, 0), BuildingBlock: MIFKUJ_clean_linker_0, # of connection points: 2
#     Edge 21, Type (0, 0), BuildingBlock: MIFKUJ_clean_linker_0, # of connection points: 2
#     Edge 22, Type (0, 0), BuildingBlock: MIFKUJ_clean_linker_0, # of connection points: 2
#     Edge 23, Type (0, 0), BuildingBlock: MIFKUJ_clean_linker_0, # of connection points: 2
#     Edge 24, Type (0, 0), BuildingBlock: MIFKUJ_clean_linker_0, # of connection points: 2
#     Edge 25, Type (0, 0), BuildingBlock: MIFKUJ_clean_linker_0, # of connection points: 2
#     Edge 26, Type (0, 0), BuildingBlock: MIFKUJ_clean_linker_0, # of connection points: 2
#     Edge 27, Type (0, 0), BuildingBlock: MIFKUJ_clean_linker_0, # of connection points: 2
#     Edge 28, Type (0, 0), BuildingBlock: MIFKUJ_clean_linker_0, # of connection points: 2
#     Edge 29, Type (0, 0), BuildingBlock: MIFKUJ_clean_linker_0, # of connection points: 2
#     Edge 30, Type (0, 0), BuildingBlock: MIFKUJ_clean_linker_0, # of connection points: 2
#     Edge 31, Type (0, 0), BuildingBlock: MIFKUJ_clean_linker_0, # of connection points: 2
#     Edge 32, Type (0, 0), BuildingBlock: MIFKUJ_clean_linker_0, # of connection points: 2
#     Edge 33, Type (0, 0), BuildingBlock: MIFKUJ_clean_linker_0, # of connection points: 2
#     Edge 34, Type (0, 0), BuildingBlock: MIFKUJ_clean_linker_0, # of connection points: 2
#     Edge 35, Type (0, 0), BuildingBlock: MIFKUJ_clean_linker_0, # of connection points: 2
# Relax obj value: 0.147
# Max RMSD: 0.224
# Mean RMSD: 0.193
data_MOF--net-snz--node1-BETDIP_clean_sbu_0--edge1-MIFKUJ_clean_linker_0
_symmetry_space_group_name_H-M    P1
_symmetry_Int_Tables_number       1
_symmetry_cell_setting            triclinic
loop_
_symmetry_equiv_pos_as_xyz
'x, y, z'
_cell_length_a     81.550335
_cell_length_b     81.670422
_cell_length_c     18.822413
_cell_angle_alpha  90.19122
_cell_angle_beta   89.666293
_cell_angle_gamma 119.78612
loop_
_atom_site_label
_atom_site_type_symbol
_atom_site_fract_x
_atom_site_fract_y
_atom_site_fract_z
_atom_type_partial_charge
Tb0 Tb 0.19404 0.42971 0.02851 0.0
Tb1 Tb 0.15833 0.43093 -0.00304 0.0
C2 C 0.21944 0.42503 0.08545 0.0
C3 C 0.23113 0.41562 0.08652 0.0
C4 C 0.22571 0.39932 0.12748 0.0
C5 C 0.23837 0.39264 0.13945 0.0
C6 C 0.25689 0.40219 0.11142 0.0
C7 C 0.26202 0.41813 0.06853 0.0
C8 C 0.24937 0.42474 0.0564 0.0
C9 C 0.18973 0.43582 0.89322 0.0
C10 C 0.15592 0.39154 0.98281 0.0
C11 C 0.13348 0.43728 0.94638 0.0
C12 C 0.12802 0.45207 0.94363 0.0
C13 C 0.12858 0.46053 0.87817 0.0
C14 C 0.12178 0.47315 0.8722 0.0
C15 C 0.11414 0.47756 0.93153 0.0
C16 C 0.11392 0.4694 -0.00252 0.0
C17 C 0.12078 0.45677 0.00351 0.0
C18 C 0.16303 0.42454 0.13173 0.0
C19 C 0.19542 0.46903 0.03452 0.0
O20 O 0.20155 0.41557 0.10412 0.0
O21 O 0.22258 0.43725 0.03491 0.0
O22 O 0.17711 0.42533 0.93646 0.0
O23 O 0.20595 0.44186 0.92368 0.0
O24 O 0.17286 0.39904 0.01378 0.0
O25 O 0.14863 0.40217 0.96412 0.0
O26 O 0.14888 0.44068 0.91217 0.0
O27 O 0.1317 0.42875 0.00707 0.0
O28 O 0.17549 0.4355 0.08894 0.0
O29 O 0.14678 0.41773 0.10082 0.0
O30 O 0.17937 0.46104 -0.00091 0.0
O31 O 0.20218 0.45869 0.06256 0.0
H32 H 0.21191 0.39207 0.15251 0.0
H33 H 0.23372 0.38016 0.17184 0.0
H34 H 0.27616 0.42612 0.0468 0.0
H35 H 0.25425 0.43758 0.02595 0.0
H36 H 0.13396 0.45708 0.83105 0.0
H37 H 0.12244 0.47942 0.82088 0.0
H38 H 0.10805 0.47243 0.04411 0.0
H39 H 0.12001 0.4504 0.05469 0.0
Tb40 Tb 0.75625 0.60244 0.05308 0.0
Tb41 Tb 0.7575 0.56674 0.02176 0.0
C42 C 0.75869 0.63126 0.11277 0.0
C43 C 0.76688 0.65178 0.12482 0.0
C44 C 0.76112 0.65752 0.18583 0.0
C45 C 0.76672 0.67652 0.19705 0.0
C46 C 0.77838 0.69038 0.14771 0.0
C47 C 0.78471 0.68472 0.08745 0.0
C48 C 0.77886 0.66553 0.07575 0.0
C49 C 0.75079 0.59173 0.91833 0.0
C50 C 0.79598 0.60444 0.01197 0.0
C51 C 0.75158 0.53567 0.97159 0.0
C52 C 0.73578 0.51591 0.96976 0.0
C53 C 0.72727 0.5078 0.9046 0.0
C54 C 0.71294 0.48892 0.90101 0.0
C55 C 0.70691 0.47765 0.96248 0.0
C56 C 0.71528 0.48583 0.02786 0.0
C57 C 0.72953 0.50476 0.03154 0.0
C58 C 0.76291 0.57782 0.15627 0.0
C59 C 0.71802 0.56359 0.05863 0.0
O60 O 0.76765 0.62268 0.13527 0.0
O61 O 0.74918 0.62388 0.05435 0.0
O62 O 0.76194 0.59057 0.96114 0.0
O63 O 0.74341 0.6008 0.94914 0.0
O64 O 0.78724 0.61344 0.03732 0.0
O65 O 0.78658 0.58634 -0.00501 0.0
O66 O 0.74932 0.54805 0.9352 0.0
O67 O 0.75962 0.54235 0.03302 0.0
O68 O 0.75161 0.5786 0.11325 0.0
O69 O 0.77068 0.56912 0.12566 0.0
O70 O 0.72702 0.55626 0.02433 0.0
O71 O 0.72737 0.58094 0.08509 0.0
H72 H 0.75184 0.64717 0.22434 0.0
H73 H 0.76181 0.68036 0.24445 0.0
H74 H 0.79367 0.69505 0.04835 0.0
H75 H 0.78339 0.66142 0.02803 0.0
H76 H 0.73189 0.51601 0.8561 0.0
H77 H 0.70696 0.48299 0.84969 0.0
H78 H 0.71082 0.47758 0.07627 0.0
H79 H 0.73575 0.51055 0.0827 0.0
Tb80 Tb 0.58417 0.9967 0.05258 0.0
Tb81 Tb 0.61957 0.03399 0.02779 0.0
C82 C 0.55469 0.97001 0.10744 0.0
C83 C 0.53396 0.95841 0.11778 0.0
C84 C 0.5273 0.95021 0.18476 0.0
C85 C 0.50821 0.93698 0.19551 0.0
C86 C 0.49519 0.93167 0.13957 0.0
C87 C 0.50171 0.94047 0.07296 0.0
C88 C 0.52097 0.95362 0.06195 0.0
C89 C 0.597 1.00215 0.9204 0.0
C90 C 0.58169 0.034 0.00843 0.0
C91 C 0.65153 0.05975 0.98781 0.0
C92 C 0.67014 0.06123 0.97559 0.0
C93 C 0.67197 0.04769 0.93529 0.0
C94 C 0.6898 0.04967 0.92286 0.0
C95 C 0.70611 0.06507 0.95119 0.0
C96 C 0.70416 0.07836 0.99274 0.0
C97 C 0.68636 0.07648 0.00456 0.0
C98 C 0.60624 0.02755 0.15956 0.0
C99 C 0.62338 0.99809 0.0614 0.0
O100 O 0.5638 0.98697 0.13498 0.0
O101 O 0.56214 0.96862 0.04752 0.0
O102 O 0.59717 1.01431 0.96215 0.0
O103 O 0.58767 0.98574 0.95048 0.0
O104 O 0.57285 1.01645 0.03481 0.0
O105 O 0.60006 0.04313 -0.00442 0.0
O106 O 0.63797 0.04896 0.94418 0.0
O107 O 0.64573 0.05755 0.0538 0.0
O108 O 0.60683 1.0159 0.11729 0.0
O109 O 0.61413 0.04395 0.12899 0.0
O110 O 0.6303 1.01427 0.02718 0.0
O111 O 0.60569 0.98937 0.08525 0.0
H112 H 0.53703 0.95357 0.22855 0.0
H113 H 0.50367 0.93071 0.24765 0.0
H114 H 0.49205 0.93666 0.02873 0.0
H115 H 0.52577 0.95962 0.00959 0.0
H116 H 0.65967 0.03564 0.91289 0.0
H117 H 0.6908 0.03914 0.89103 0.0
H118 H 0.71647 0.0905 0.01463 0.0
H119 H 0.68528 0.08706 0.03589 0.0
Tb120 Tb 0.86718 0.92385 0.34556 0.0
Tb121 Tb 0.83012 0.92248 0.31541 0.0
C122 C 0.89224 0.91804 0.39709 0.0
C123 C 0.89628 0.90226 0.40183 0.0
C124 C 0.88473 0.88586 0.44144 0.0
C125 C 0.8896 0.87174 0.44877 0.0
C126 C 0.90614 0.8737 0.41684 0.0
C127 C 0.91736 0.8899 0.37575 0.0
C128 C 0.91253 0.90401 0.36864 0.0
C129 C 0.86159 0.92915 0.2114 0.0
C130 C 0.83114 0.88419 0.31047 0.0
C131 C 0.80369 0.92486 0.25625 0.0
C132 C 0.79167 0.93346 0.24395 0.0
C133 C 0.77953 0.92714 0.18529 0.0
C134 C 0.76628 0.93303 0.17487 0.0
C135 C 0.76491 0.94556 0.22265 0.0
C136 C 0.77757 0.95247 0.28029 0.0
C137 C 0.79075 0.94634 0.29125 0.0
C138 C 0.83558 0.91744 0.45015 0.0
C139 C 0.86776 0.96232 0.35416 0.0
O140 O 0.87781 0.91653 0.43361 0.0
O141 O 0.89347 0.92524 0.33391 0.0
O142 O 0.84944 0.91783 0.2546 0.0
O143 O 0.878 0.93711 0.24176 0.0
O144 O 0.84787 0.89348 0.34089 0.0
O145 O 0.82223 0.89311 0.28825 0.0
O146 O 0.82103 0.93313 0.23145 0.0
O147 O 0.80183 0.91607 0.31635 0.0
O148 O 0.84771 0.92841 0.40625 0.0
O149 O 0.81912 0.90996 0.42028 0.0
O150 O 0.85 0.95354 0.32982 0.0
O151 O 0.87651 0.95291 0.3707 0.0
H152 H 0.87211 0.88406 0.46791 0.0
H153 H 0.88073 0.85957 0.4814 0.0
H154 H 0.93002 0.89177 0.3494 0.0
H155 H 0.92169 0.91648 0.33785 0.0
H156 H 0.77995 0.91717 0.14817 0.0
H157 H 0.75699 0.92765 0.12941 0.0
H158 H 0.77685 0.96212 0.31814 0.0
H159 H 0.7999 0.95131 0.33718 0.0
Tb160 Tb 0.26068 0.7828 0.3337 0.0
Tb161 Tb 0.26488 0.7486 0.30416 0.0
C162 C 0.26418 0.8125 0.38852 0.0
C163 C 0.27905 0.83241 0.39595 0.0
C164 C 0.27972 0.84214 0.45826 0.0
C165 C 0.29331 0.86116 0.46629 0.0
C166 C 0.3065 0.87091 0.41185 0.0
C167 C 0.30603 0.86097 0.34987 0.0
C168 C 0.29243 0.84189 0.34201 0.0
C169 C 0.25557 0.77143 0.20023 0.0
C170 C 0.30157 0.7889 0.29542 0.0
C171 C 0.26334 0.7198 0.24704 0.0
C172 C 0.25419 0.69885 0.24197 0.0
C173 C 0.24227 0.68925 0.18452 0.0
C174 C 0.23649 0.67023 0.17113 0.0
C175 C 0.2426 0.66026 0.21448 0.0
C176 C 0.25398 0.66972 0.27349 0.0
C177 C 0.25973 0.68873 0.2869 0.0
C178 C 0.26938 0.75947 0.43854 0.0
C179 C 0.22371 0.74373 0.34267 0.0
O180 O 0.26684 0.80018 0.4235 0.0
O181 O 0.25758 0.80668 0.32452 0.0
O182 O 0.26752 0.77156 0.24267 0.0
O183 O 0.24693 0.77931 0.2308 0.0
O184 O 0.29141 0.79583 0.3237 0.0
O185 O 0.29371 0.77092 0.27616 0.0
O186 O 0.25445 0.72826 0.22235 0.0
O187 O 0.27332 0.72818 0.30361 0.0
O188 O 0.25789 0.75966 0.39476 0.0
O189 O 0.27776 0.75124 0.40875 0.0
O190 O 0.23369 0.73566 0.32112 0.0
O191 O 0.23173 0.76196 0.35652 0.0
H192 H 0.26961 0.83502 0.50063 0.0
H193 H 0.29348 0.86821 0.51533 0.0
H194 H 0.31588 0.86804 0.30671 0.0
H195 H 0.29221 0.83463 0.29347 0.0
H196 H 0.23797 0.69664 0.14813 0.0
H197 H 0.22749 0.66344 0.12585 0.0
H198 H 0.25921 0.66271 0.30768 0.0
H199 H 0.26922 0.69569 0.33084 0.0
Tb200 Tb 0.40158 0.31714 0.3419 0.0
Tb201 Tb 0.43785 0.35305 0.31146 0.0
C202 C 0.37025 0.29212 0.39033 0.0
C203 C 0.35037 0.28778 0.39276 0.0
C204 C 0.34511 0.30035 0.4224 0.0
C205 C 0.326 0.29515 0.42852 0.0
C206 C 0.31179 0.27732 0.40506 0.0
C207 C 0.31721 0.2651 0.37326 0.0
C208 C 0.33625 0.27025 0.36753 0.0
C209 C 0.4128 0.3224 0.20726 0.0
C210 C 0.39956 0.35387 0.30665 0.0
C211 C 0.46794 0.37902 0.25658 0.0
C212 C 0.48899 0.39064 0.25669 0.0
C213 C 0.49988 0.38681 0.20831 0.0
C214 C 0.51917 0.39974 0.19809 0.0
C215 C 0.52811 0.41699 0.23544 0.0
C216 C 0.51733 0.42044 0.28576 0.0
C217 C 0.49809 0.40751 0.2961 0.0
C218 C 0.42718 0.34798 0.44661 0.0
C219 C 0.43834 0.31449 0.34977 0.0
O220 O 0.3826 0.30653 0.42757 0.0
O221 O 0.37685 0.29107 0.328 0.0
O222 O 0.41392 0.3347 0.25023 0.0
O223 O 0.4039 0.30609 0.23799 0.0
O224 O 0.392 0.33784 0.34219 0.0
O225 O 0.41674 0.361 0.27844 0.0
O226 O 0.45977 0.36137 0.23564 0.0
O227 O 0.45856 0.38162 0.30788 0.0
O228 O 0.42567 0.33565 0.40297 0.0
O229 O 0.43673 0.36432 0.4165 0.0
O230 O 0.44772 0.33195 0.32286 0.0
O231 O 0.42047 0.30688 0.36958 0.0
H232 H 0.3557 0.31402 0.44216 0.0
H233 H 0.32236 0.30486 0.45375 0.0
H234 H 0.30671 0.25143 0.35326 0.0
H235 H 0.33996 0.26036 0.34424 0.0
H236 H 0.49333 0.37413 0.17618 0.0
H237 H 0.52698 0.39635 0.15971 0.0
H238 H 0.52349 0.4336 0.31496 0.0
H239 H 0.49015 0.41119 0.33277 0.0
Tb240 Tb 0.52717 0.19449 0.69264 0.0
Tb241 Tb 0.49513 0.15405 0.66115 0.0
C242 C 0.54895 0.22969 0.69385 0.0
C243 C 0.55932 0.24636 0.74074 0.0
C244 C 0.55051 0.25643 0.76493 0.0
C245 C 0.56097 0.27392 0.79841 0.0
C246 C 0.58053 0.28185 0.80837 0.0
C247 C 0.58921 0.2714 0.78704 0.0
C248 C 0.57873 0.2539 0.75328 0.0
C249 C 0.53143 0.16747 0.75143 0.0
C250 C 0.49835 0.17332 0.81204 0.0
C251 C 0.47252 0.11902 0.65933 0.0
C252 C 0.46069 0.10246 0.61398 0.0
C253 C 0.46599 0.08862 0.6055 0.0
C254 C 0.45395 0.07146 0.57244 0.0
C255 C 0.4362 0.06761 0.54717 0.0
C256 C 0.43117 0.08177 0.55316 0.0
C257 C 0.44328 0.09902 0.58639 0.0
C258 C 0.4913 0.1814 0.6026 0.0
C259 C 0.52537 0.17444 0.54481 0.0
O260 O 0.53049 0.22151 0.69435 0.0
O261 O 0.55495 0.21751 0.68838 0.0
O262 O 0.52402 0.16683 0.69191 0.0
O263 O 0.53895 0.18455 0.77588 0.0
O264 O 0.50977 0.19017 0.78511 0.0
O265 O 0.49258 0.1576 0.77501 0.0
O266 O 0.49083 0.1267 0.65155 0.0
O267 O 0.46721 0.13157 0.67112 0.0
O268 O 0.49828 0.18169 0.66257 0.0
O269 O 0.48384 0.1644 0.57749 0.0
O270 O 0.51319 0.15782 0.57149 0.0
O271 O 0.53089 0.19041 0.57994 0.0
H272 H 0.53562 0.25116 0.75563 0.0
H273 H 0.5538 0.28145 0.81504 0.0
H274 H 0.60428 0.27717 0.79321 0.0
H275 H 0.58601 0.24667 0.73435 0.0
H276 H 0.47918 0.09073 0.62722 0.0
H277 H 0.45822 0.06086 0.56998 0.0
H278 H 0.41769 0.07937 0.53354 0.0
H279 H 0.43874 0.10936 0.59235 0.0
Tb280 Tb 0.98997 0.17696 0.68864 0.0
Tb281 Tb 1.02836 0.17659 0.68085 0.0
C282 C 0.9568 0.1709 0.70452 0.0
C283 C 0.9382 0.15719 0.73489 0.0
C284 C 0.9272 0.13901 0.70614 0.0
C285 C 0.9086 0.12735 0.72959 0.0
C286 C 0.90064 0.13361 0.78215 0.0
C287 C 0.91195 0.15151 0.81262 0.0
C288 C 0.93048 0.16316 0.78911 0.0
C289 C 1.02137 0.20877 0.71927 0.0
C290 C 1.0018 0.15874 0.81236 0.0
C291 C 0.06353 0.19071 0.68926 0.0
C292 C 0.08105 0.19703 0.64748 0.0
C293 C 0.0955 0.21584 0.65475 0.0
C294 C 0.1129 0.22225 0.62099 0.0
C295 C 0.11634 0.20998 0.57905 0.0
C296 C 0.10167 0.1912 0.57039 0.0
C297 C 0.08416 0.18476 0.60434 0.0
C298 C 0.99991 0.14469 0.62871 0.0
C299 C 1.0125 0.18727 0.54525 0.0
O300 O 0.96265 0.16584 0.64787 0.0
O301 O 0.97046 0.18074 0.74946 0.0
O302 O 1.01745 0.19225 0.73448 0.0
O303 O 1.00692 0.208 0.68771 0.0
O304 O 0.98777 0.15859 0.77651 0.0
O305 O 1.01937 0.16685 0.78807 0.0
O306 O 0.05506 0.20064 0.68093 0.0
O307 O 0.05163 0.17253 0.69614 0.0
O308 O 0.99982 0.15896 0.65354 0.0
O309 O 1.01736 0.14829 0.63204 0.0
O310 O 1.02737 0.18844 0.57832 0.0
O311 O 0.99594 0.18149 0.57648 0.0
H312 H 0.9327 0.13398 0.66414 0.0
H313 H 0.90034 0.11355 0.7056 0.0
H314 H 0.90622 0.15691 0.85242 0.0
H315 H 0.93856 0.17718 0.81158 0.0
H316 H 0.09348 0.22554 0.68819 0.0
H317 H 0.12389 0.23669 0.62999 0.0
H318 H 0.10376 0.18143 0.53783 0.0
H319 H 0.07324 0.17019 0.5977 0.0
Tb320 Tb 1.01244 0.66046 0.69346 0.0
Tb321 Tb 1.01309 0.69713 0.68088 0.0
C322 C 1.01689 0.63228 0.67555 0.0
C323 C 1.02417 0.62132 0.71294 0.0
C324 C 0.04221 0.62999 0.74392 0.0
C325 C 0.04938 0.619 0.77256 0.0
C326 C 0.03867 0.59916 0.77064 0.0
C327 C 1.02037 0.59063 0.74183 0.0
C328 C 1.01325 0.60158 0.71317 0.0
C329 C 0.98208 0.66023 0.74598 0.0
C330 C 1.02757 0.68682 0.82232 0.0
C331 C 1.00905 0.72559 0.69791 0.0
C332 C 0.99897 0.73458 0.66689 0.0
C333 C 0.98462 0.72542 0.61635 0.0
C334 C 0.97557 0.73466 0.58737 0.0
C335 C 0.98084 0.75322 0.60822 0.0
C336 C 0.99512 0.76215 0.65939 0.0
C337 C 1.00407 0.75293 0.68826 0.0
C338 C 0.04299 0.6969 0.62645 0.0
C339 C 0.99908 0.67159 0.55203 0.0
O340 O 1.02919 0.64943 0.65579 0.0
O341 O 1.0013 0.63108 0.70001 0.0
O342 O 0.99088 0.66852 0.68999 0.0
O343 O 0.9897 0.6509 0.77184 0.0
O344 O 1.0276 0.67243 0.79056 0.0
O345 O 1.02129 0.69707 0.79082 0.0
O346 O 0.99883 0.70953 0.73066 0.0
O347 O 1.02233 0.72559 0.65879 0.0
O348 O 1.03448 0.68902 0.68331 0.0
O349 O 0.03546 0.70629 0.60062 0.0
O350 O 0.99644 0.68393 0.58809 0.0
O351 O 1.00674 0.66234 0.58161 0.0
H352 H 0.05096 0.64521 0.7445 0.0
H353 H 0.06356 0.62604 0.79394 0.0
H354 H 1.01158 0.57542 0.74072 0.0
H355 H 0.9993 0.59459 0.68967 0.0
H356 H 0.98051 0.71122 0.59914 0.0
H357 H 0.96469 0.72742 0.54787 0.0
H358 H 0.99929 0.77626 0.67776 0.0
H359 H 1.01506 0.76018 0.72744 0.0
H360 H 0.21662 0.45291 0.78972 0.0
H361 H 0.21205 0.4508 0.66078 0.0
H362 H 0.15188 0.41604 0.69164 0.0
H363 H 0.15646 0.41774 0.82043 0.0
H364 H 0.16314 0.40151 0.59027 0.0
H365 H 0.17291 0.46329 0.64057 0.0
H366 H 0.18959 0.49557 0.68945 0.0
H367 H 0.2378 0.50876 0.55795 0.0
H368 H 0.2215 0.47646 0.509 0.0
H369 H 0.13607 0.40709 0.23476 0.0
H370 H 0.14057 0.40876 0.3637 0.0
H371 H 0.20079 0.44336 0.33353 0.0
H372 H 0.19628 0.44203 0.20466 0.0
H373 H 0.18942 0.45791 0.43469 0.0
H374 H 0.17918 0.39592 0.38331 0.0
H375 H 0.16229 0.36355 0.33535 0.0
H376 H 0.11461 0.35062 0.46953 0.0
H377 H 0.13108 0.38302 0.51744 0.0
C378 C 0.20241 0.44493 0.76897 0.0
C379 C 0.1869 0.43558 0.81529 0.0
C380 C 0.19979 0.44378 0.69517 0.0
C381 C 0.18157 0.43341 0.66604 0.0
C382 C 0.16607 0.42414 0.71248 0.0
C383 C 0.16869 0.42522 0.78622 0.0
C384 C 0.17871 0.43188 0.58734 0.0
C385 C 0.16867 0.41387 0.5564 0.0
C386 C 0.18626 0.44794 0.54255 0.0
C387 C 0.19605 0.4674 0.57163 0.0
C388 C 0.18712 0.47303 0.62246 0.0
C389 C 0.1965 0.49134 0.65012 0.0
C390 C 0.21476 0.50419 0.62695 0.0
C391 C 0.22367 0.49878 0.57591 0.0
C392 C 0.21436 0.48048 0.54815 0.0
C393 C 0.15028 0.41492 0.25565 0.0
C394 C 0.16582 0.42441 0.20955 0.0
C395 C 0.15285 0.41582 0.32946 0.0
C396 C 0.17105 0.42606 0.35879 0.0
C397 C 0.1866 0.43539 0.31253 0.0
C398 C 0.18402 0.43455 0.23878 0.0
C399 C 0.17387 0.42753 0.43753 0.0
C400 C 0.18389 0.44554 0.4685 0.0
C401 C 0.16625 0.41146 0.48234 0.0
C402 C 0.1563 0.39197 0.45342 0.0
C403 C 0.16502 0.38623 0.40213 0.0
C404 C 0.15553 0.36787 0.37501 0.0
C405 C 0.13736 0.35506 0.39922 0.0
C406 C 0.12866 0.36057 0.45071 0.0
C407 C 0.13808 0.37893 0.47788 0.0
H408 H 0.13005 0.34084 0.3782 0.0
H409 H 0.222 0.51836 0.64843 0.0
H410 H 0.77197 0.58007 0.84327 0.0
H411 H 0.77382 0.5776 0.71412 0.0
H412 H 0.73243 0.59533 0.68788 0.0
H413 H 0.73033 0.59752 0.8172 0.0
H414 H 0.72558 0.56764 0.59702 0.0
H415 H 0.77965 0.62563 0.66457 0.0
H416 H 0.80891 0.64671 0.72915 0.0
H417 H 0.8358 0.61747 0.64042 0.0
H418 H 0.80652 0.59586 0.5768 0.0
H419 H 0.74244 0.59052 0.23002 0.0
H420 H 0.74052 0.59322 0.35907 0.0
H421 H 0.78057 0.57386 0.38738 0.0
H422 H 0.78276 0.57144 0.25821 0.0
H423 H 0.78793 0.60255 0.47668 0.0
H424 H 0.7329 0.54412 0.4104 0.0
H425 H 0.70399 0.52466 0.34111 0.0
H426 H 0.67921 0.55646 0.42429 0.0
H427 H 0.7081 0.5763 0.49332 0.0
C428 C 0.76313 0.58327 0.80999 0.0
C429 C 0.75103 0.58905 0.84039 0.0
C430 C 0.76429 0.58197 0.73606 0.0
C431 C 0.75347 0.58654 0.69087 0.0
C432 C 0.74096 0.59177 0.72138 0.0
C433 C 0.7398 0.59307 0.79534 0.0
C434 C 0.75544 0.58622 0.61195 0.0
C435 C 0.7392 0.57545 0.57077 0.0
C436 C 0.77323 0.59619 0.5773 0.0
C437 C 0.79079 0.60897 0.61648 0.0
C438 C 0.79172 0.62353 0.65948 0.0
C439 C 0.80832 0.6356 0.69587 0.0
C440 C 0.82419 0.63342 0.68895 0.0
C441 C 0.82349 0.61914 0.64572 0.0
C442 C 0.80687 0.60694 0.60965 0.0
C443 C 0.75094 0.58698 0.26375 0.0
C444 C 0.76268 0.58067 0.23403 0.0
C445 C 0.74976 0.58843 0.33758 0.0
C446 C 0.76017 0.58345 0.38326 0.0
C447 C 0.77235 0.57772 0.35342 0.0
C448 C 0.77356 0.5763 0.27958 0.0
C449 C 0.75813 0.58389 0.46203 0.0
C450 C 0.77434 0.59469 0.50311 0.0
C451 C 0.74032 0.57405 0.49652 0.0
C452 C 0.72274 0.5618 0.45657 0.0
C453 C 0.72132 0.54702 0.41367 0.0
C454 C 0.70494 0.53592 0.37443 0.0
C455 C 0.6898 0.53935 0.37813 0.0
C456 C 0.69097 0.55383 0.42139 0.0
C457 C 0.70733 0.565 0.46066 0.0
H458 H 0.67714 0.53077 0.34758 0.0
H459 H 0.83706 0.64282 0.71699 0.0
H460 H 0.61228 0.0353 0.84644 0.0
H461 H 0.61614 0.03974 0.71797 0.0
H462 H 0.59212 0.97972 0.6893 0.0
H463 H 0.58946 0.97539 0.81852 0.0
H464 H 0.61926 0.99829 0.59197 0.0
H465 H 0.56474 1.00174 0.67514 0.0
H466 H 0.55112 1.01465 0.76103 0.0
H467 H 0.5879 0.07056 0.68245 0.0
H468 H 0.60198 0.05804 0.59675 0.0
H469 H 0.59291 0.99444 0.2323 0.0
H470 H 0.59139 0.98993 0.36107 0.0
H471 H 0.61348 0.04962 0.39199 0.0
H472 H 0.61431 0.05405 0.26306 0.0
H473 H 0.5876 0.03115 0.4884 0.0
H474 H 0.64161 0.02812 0.40263 0.0
H475 H 0.65817 1.01634 0.32615 0.0
H476 H 0.62415 0.96065 0.41172 0.0
H477 H 0.60716 0.97204 0.48793 0.0
C478 C 0.60828 0.0231 0.813 0.0
C479 C 0.60059 1.005 0.84278 0.0
C480 C 0.61029 0.02562 0.73928 0.0
C481 C 0.60399 1.01002 0.69341 0.0
C482 C 0.59701 0.992 0.72325 0.0
C483 C 0.59539 0.98952 0.79719 0.0
C484 C 0.60343 1.01235 0.61479 0.0
C485 C 0.61214 1.00526 0.56926 0.0
C486 C 0.59443 1.02173 0.5848 0.0
C487 C 0.58449 0.02898 0.63 0.0
C488 C 0.56982 1.01678 0.67586 0.0
C489 C 0.56212 0.02402 0.72476 0.0
C490 C 0.56882 0.04341 0.72763 0.0
C491 C 0.58286 0.05556 0.68038 0.0
C492 C 0.59067 0.04839 0.63151 0.0
C493 C 0.5972 1.00657 0.26657 0.0
C494 C 0.60379 0.02462 0.23751 0.0
C495 C 0.5965 1.004 0.3403 0.0
C496 C 0.60273 1.01949 0.38668 0.0
C497 C 0.60868 0.03744 0.35762 0.0
C498 C 0.60917 0.03997 0.28384 0.0
C499 C 0.60345 1.01708 0.46515 0.0
C500 C 0.5947 0.02413 0.51078 0.0
C501 C 0.61249 1.0077 0.49509 0.0
C502 C 0.62299 1.00091 0.45054 0.0
C503 C 0.63759 1.01334 0.40489 0.0
C504 C 0.64706 1.00673 0.36158 0.0
C505 C 0.64219 0.98775 0.36393 0.0
C506 C 0.62789 0.97535 0.40987 0.0
C507 C 0.61835 0.98188 0.45318 0.0
H508 H 0.64951 0.98265 0.33024 0.0
H509 H 0.56309 0.04901 0.76635 0.0
H510 H 0.86763 0.94102 0.52357 0.0
H511 H 0.87192 0.94365 0.65246 0.0
H512 H 0.81456 0.89857 0.68179 0.0
H513 H 0.81007 0.89623 0.55267 0.0
H514 H 0.82232 0.92631 0.77407 0.0
H515 H 0.85293 0.89152 0.70122 0.0
H516 H 0.87507 0.88628 0.62782 0.0
H517 H 0.92168 0.93741 0.70833 0.0
H518 H 0.89977 0.94312 0.78135 0.0
H519 H 0.82934 0.90679 0.13694 0.0
H520 H 0.82511 0.90511 0.00802 0.0
H521 H 0.88292 0.94943 0.98106 0.0
H522 H 0.88733 0.95079 0.11011 0.0
H523 H 0.87513 0.92251 0.88721 0.0
H524 H 0.84474 0.9571 0.96186 0.0
H525 H 0.82264 0.96293 0.03287 0.0
H526 H 0.77571 0.91276 0.94807 0.0
H527 H 0.79756 0.90645 0.87732 0.0
C528 C 0.85597 0.93158 0.55747 0.0
C529 C 0.83854 0.91832 0.52801 0.0
C530 C 0.85844 0.93308 0.63125 0.0
C531 C 0.84363 0.92117 0.67719 0.0
C532 C 0.8262 0.90793 0.64767 0.0
C533 C 0.82368 0.90652 0.57386 0.0
C534 C 0.8463 0.92248 0.75588 0.0
C535 C 0.83372 0.92522 0.79886 0.0
C536 C 0.86144 0.92153 0.78841 0.0
C537 C 0.8747 0.9178 0.74644 0.0
C538 C 0.8679 0.90167 0.70312 0.0
C539 C 0.8804 0.89862 0.66153 0.0
C540 C 0.89976 0.91151 0.66334 0.0
C541 C 0.90667 0.92744 0.70698 0.0
C542 C 0.89423 0.93058 0.74854 0.0
C543 C 0.84111 0.91626 0.10354 0.0
C544 C 0.85866 0.92896 0.13365 0.0
C545 C 0.83867 0.91533 0.02974 0.0
C546 C 0.85363 0.92728 0.98441 0.0
C547 C 0.87115 0.94005 0.01463 0.0
C548 C 0.87364 0.94089 0.08845 0.0
C549 C 0.8511 0.92629 0.90561 0.0
C550 C 0.86372 0.9236 0.86254 0.0
C551 C 0.83601 0.92732 0.87301 0.0
C552 C 0.82281 0.93122 0.9147 0.0
C553 C 0.82972 0.94724 0.95866 0.0
C554 C 0.81723 0.95064 -0.00116 0.0
C555 C 0.79779 0.93821 -0.00497 0.0
C556 C 0.79078 0.92237 0.95096 0.0
C557 C 0.80321 0.91889 0.91076 0.0
H558 H 0.78815 0.94088 0.02608 0.0
H559 H 0.90941 0.90915 0.63098 0.0
H560 H 0.24463 0.76668 0.5122 0.0
H561 H 0.24157 0.76808 0.64121 0.0
H562 H 0.28826 0.75798 0.66998 0.0
H563 H 0.29116 0.75628 0.54086 0.0
H564 H 0.26034 0.73677 0.75971 0.0
H565 H 0.29297 0.80222 0.69245 0.0
H566 H 0.29785 0.83026 0.62572 0.0
H567 H 0.24588 0.82374 0.70973 0.0
H568 H 0.24051 0.79547 0.77601 0.0
H569 H 0.27885 0.76266 0.12432 0.0
H570 H 0.28052 0.76016 -0.00487 0.0
H571 H 0.23422 0.77108 0.97136 0.0
H572 H 0.23282 0.77402 0.10056 0.0
H573 H 0.26118 0.79144 0.87886 0.0
H574 H 0.22873 0.72637 0.94789 0.0
H575 H 0.22406 0.69869 0.01657 0.0
H576 H 0.2755 0.70445 0.9301 0.0
H577 H 0.28063 0.73234 0.86165 0.0
C578 C 0.25435 0.76493 0.54603 0.0
C579 C 0.26823 0.76149 0.51642 0.0
C580 C 0.25259 0.76573 0.61986 0.0
C581 C 0.26478 0.76328 0.66566 0.0
C582 C 0.27866 0.75988 0.63597 0.0
C583 C 0.28039 0.75902 0.56214 0.0
C584 C 0.26299 0.76412 0.7444 0.0
C585 C 0.26076 0.74883 0.7858 0.0
C586 C 0.26305 0.77963 0.77862 0.0
C587 C 0.26627 0.79664 0.73878 0.0
C588 C 0.28251 0.80668 0.69627 0.0
C589 C 0.28537 0.82262 0.65857 0.0
C590 C 0.27218 0.82877 0.6635 0.0
C591 C 0.25608 0.81896 0.70599 0.0
C592 C 0.25312 0.80298 0.74365 0.0
C593 C 0.26894 0.76437 0.09154 0.0
C594 C 0.25569 0.76852 0.12253 0.0
C595 C 0.26985 0.76289 0.01763 0.0
C596 C 0.25738 0.76526 0.97316 0.0
C597 C 0.24402 0.76921 0.0043 0.0
C598 C 0.24316 0.7708 0.07819 0.0
C599 C 0.25858 0.76412 0.89425 0.0
C600 C 0.2607 0.77934 0.8528 0.0
C601 C 0.25838 0.74854 0.86001 0.0
C602 C 0.25515 0.73155 0.90008 0.0
C603 C 0.23911 0.7218 0.94382 0.0
C604 C 0.23637 0.70607 0.98269 0.0
C605 C 0.2495 0.69985 0.97785 0.0
C606 C 0.26535 0.7093 0.93387 0.0
C607 C 0.26817 0.72506 0.89495 0.0
H608 H 0.24737 0.68768 0.00805 0.0
H609 H 0.27447 0.84117 0.63459 0.0
H610 H 0.41467 0.31502 0.51988 0.0
H611 H 0.41184 0.31049 0.64895 0.0
H612 H 0.43126 0.36975 0.67801 0.0
H613 H 0.43388 0.37428 0.54899 0.0
H614 H 0.43843 0.32518 0.75037 0.0
H615 H 0.41076 0.37591 0.82727 0.0
H616 H 0.39105 0.38807 0.77666 0.0
H617 H 0.36209 0.33846 0.64709 0.0
H618 H 0.38141 0.32587 0.69768 0.0
H619 H 0.42555 0.3553 0.13357 0.0
H620 H 0.42831 0.3597 0.00446 0.0
H621 H 0.40871 0.30037 0.97621 0.0
H622 H 0.4061 0.29597 0.10531 0.0
H623 H 0.40156 0.34489 0.90343 0.0
H624 H 0.42904 0.29406 0.82677 0.0
H625 H 0.44864 0.28178 0.87754 0.0
H626 H 0.47784 0.33146 0.00662 0.0
H627 H 0.45862 0.34415 0.95589 0.0
C628 C 0.41815 0.32704 0.5538 0.0
C629 C 0.42445 0.345 0.52436 0.0
C630 C 0.41663 0.32445 0.62759 0.0
C631 C 0.42123 0.33974 0.67342 0.0
C632 C 0.42738 0.35767 0.64391 0.0
C633 C 0.42893 0.36026 0.57014 0.0
C634 C 0.42 0.33703 0.75201 0.0
C635 C 0.43014 0.32924 0.7837 0.0
C636 C 0.40957 0.34273 0.79591 0.0
C637 C 0.3977 0.35006 0.76575 0.0
C638 C 0.40014 0.36757 0.78818 0.0
C639 C 0.38904 0.37454 0.75947 0.0
C640 C 0.37538 0.36408 0.70851 0.0
C641 C 0.37273 0.34658 0.68635 0.0
C642 C 0.38377 0.33954 0.71497 0.0
C643 C 0.42198 0.34323 0.09981 0.0
C644 C 0.41562 0.32528 0.1295 0.0
C645 C 0.42349 0.34575 0.02601 0.0
C646 C 0.41882 0.3304 0.9804 0.0
C647 C 0.41264 0.31249 0.01015 0.0
C648 C 0.41111 0.30997 0.08396 0.0
C649 C 0.41999 0.33305 0.90178 0.0
C650 C 0.40985 0.34082 0.87009 0.0
C651 C 0.4304 0.32732 0.85788 0.0
C652 C 0.44223 0.31994 0.88805 0.0
C653 C 0.4397 0.30239 0.86579 0.0
C654 C 0.45073 0.29536 0.89458 0.0
C655 C 0.46443 0.3058 0.94546 0.0
C656 C 0.46717 0.32335 0.96743 0.0
C657 C 0.45619 0.33045 0.93873 0.0
H658 H 0.47294 0.30032 0.96774 0.0
H659 H 0.36681 0.3695 0.68631 0.0
H660 H 0.53939 0.20506 0.45731 0.0
H661 H 0.53768 0.20407 0.32797 0.0
H662 H 0.52034 0.14485 0.33108 0.0
H663 H 0.52173 0.14559 0.46062 0.0
H664 H 0.54948 0.19235 0.20704 0.0
H665 H 0.48026 0.12268 0.23939 0.0
H666 H 0.45711 0.10461 0.33374 0.0
H667 H 0.46924 0.15625 0.4381 0.0
H668 H 0.49235 0.17457 0.34431 0.0
H669 H 0.48579 0.1417 0.89334 0.0
H670 H 0.49132 0.14109 0.02008 0.0
H671 H 0.51114 0.20077 0.03373 0.0
H672 H 0.50597 0.20166 0.90653 0.0
H673 H 0.48169 0.15133 0.14715 0.0
H674 H 0.55311 0.22078 0.12652 0.0
H675 H 0.57626 0.24017 0.03446 0.0
H676 H 0.55961 0.19086 0.90641 0.0
H677 H 0.5365 0.17115 -0.00239 0.0
C678 C 0.53589 0.19198 0.43048 0.0
C679 C 0.53019 0.17527 0.46899 0.0
C680 C 0.53497 0.19146 0.35651 0.0
C681 C 0.52842 0.17428 0.32059 0.0
C682 C 0.52511 0.15815 0.35835 0.0
C683 C 0.52588 0.15861 0.43227 0.0
C684 C 0.52181 0.17256 0.24685 0.0
C685 C 0.53468 0.18346 0.19375 0.0
C686 C 0.50249 0.16082 0.23001 0.0
C687 C 0.48812 0.14995 0.28521 0.0
C688 C 0.47789 0.13015 0.28233 0.0
C689 C 0.46483 0.11987 0.3358 0.0
C690 C 0.46178 0.12927 0.39209 0.0
C691 C 0.47169 0.14897 0.39476 0.0
C692 C 0.48478 0.15931 0.3415 0.0
C693 C 0.49073 0.1546 0.92355 0.0
C694 C 0.49582 0.17183 0.88969 0.0
C695 C 0.49392 0.15421 -0.00399 0.0
C696 C 0.50213 0.17098 0.03534 0.0
C697 C 0.50518 0.18777 0.00349 0.0
C698 C 0.50212 0.18822 0.93097 0.0
C699 C 0.50932 0.1713 0.1072 0.0
C700 C 0.49653 0.1601 0.16002 0.0
C701 C 0.52871 0.18289 0.12371 0.0
C702 C 0.54297 0.19449 0.06899 0.0
C703 C 0.55447 0.21404 0.07893 0.0
C704 C 0.56756 0.2251 0.02675 0.0
C705 C 0.56936 0.21675 0.9645 0.0
C706 C 0.55815 0.1973 0.9545 0.0
C707 C 0.54505 0.18618 0.00646 0.0
H708 H 0.57945 0.22534 0.92405 0.0
H709 H 0.45171 0.12128 0.43352 0.0
H710 H 0.04021 0.1902 0.45531 0.0
H711 H 0.03779 0.18618 0.32703 0.0
H712 H 0.98475 0.18595 0.3308 0.0
H713 H 0.98684 0.18959 0.45961 0.0
H714 H 0.98071 0.15521 0.2715 0.0
H715 H 1.02362 0.22065 0.24326 0.0
H716 H 0.0524 0.25127 0.26338 0.0
H717 H 0.08661 0.22868 0.18463 0.0
H718 H 0.05806 0.19783 0.16489 0.0
H719 H 0.97179 0.15263 0.89566 0.0
H720 H 0.97234 0.1551 0.02444 0.0
H721 H 1.02529 0.1552 0.02916 0.0
H722 H 1.02506 0.1531 0.89989 0.0
H723 H 1.02871 0.18702 0.0825 0.0
H724 H 0.98628 0.12086 0.11971 0.0
H725 H 0.95761 0.08989 0.10351 0.0
H726 H 0.92302 0.11349 0.16681 0.0
H727 H 0.95148 0.14467 0.18229 0.0
C728 C 1.0283 0.18988 0.42878 0.0
C729 C 1.01354 0.18986 0.46769 0.0
C730 C 1.02698 0.18764 0.35526 0.0
C731 C 1.01104 0.18568 0.31957 0.0
C732 C 0.9971 0.18733 0.3576 0.0
C733 C 0.99834 0.18942 0.43115 0.0
C734 C 1.00769 0.1792 0.24511 0.0
C735 C 0.9911 0.16224 0.22993 0.0
C736 C 1.02144 0.18829 0.19146 0.0
C737 C 0.03868 0.20685 0.2032 0.0
C738 C 0.03729 0.22215 0.23078 0.0
C739 C 0.05356 0.23957 0.24198 0.0
C740 C 0.07132 0.2419 0.22551 0.0
C741 C 0.07284 0.22685 0.19746 0.0
C742 C 0.05661 0.2094 0.18615 0.0
C743 C 0.98319 0.15241 0.92409 0.0
C744 C 0.99867 0.15322 0.88766 0.0
C745 C 0.98345 0.15379 -0.00208 0.0
C746 C 0.99902 0.15565 0.03603 0.0
C747 C 1.01328 0.15403 0.00036 0.0
C748 C 1.0131 0.15278 0.92655 0.0
C749 C 1.00202 0.16261 0.10982 0.0
C750 C 1.01844 0.17981 0.12448 0.0
C751 C 0.98817 0.15369 0.16317 0.0
C752 C 0.971 0.13511 0.15181 0.0
C753 C 0.97255 0.11948 0.12947 0.0
C754 C 0.95634 0.10189 0.12056 0.0
C755 C 0.9385 0.09973 0.13403 0.0
C756 C 0.93683 0.11518 0.15627 0.0
C757 C 0.953 0.13281 0.16514 0.0
H758 H 0.92597 0.08608 0.12731 0.0
H759 H 0.0839 0.25536 0.2345 0.0
H760 H 1.01525 0.65846 0.45915 0.0
H761 H 1.02057 0.66586 0.33342 0.0
H762 H 0.98559 0.6917 0.34281 0.0
H763 H 0.98064 0.685 0.47068 0.0
H764 H 0.98342 0.66188 0.21907 0.0
H765 H 1.01942 0.7215 0.3356 0.0
H766 H 0.04079 0.7433 0.4265 0.0
H767 H 0.08506 0.73329 0.35402 0.0
H768 H 0.06375 0.71105 0.26394 0.0
H769 H 0.03479 0.71808 0.89807 0.0
H770 H 1.03189 0.71932 0.02664 0.0
H771 H 1.028 0.66488 0.04574 0.0
H772 H 1.03066 0.66335 0.91699 0.0
H773 H 0.04712 0.71441 0.15436 0.0
H774 H 0.98642 0.63732 0.13435 0.0
H775 H 0.96375 0.61523 0.04691 0.0
H776 H 0.968 0.66187 0.92705 0.0
H777 H 0.9905 0.68414 0.01395 0.0
C778 C 1.00827 0.66532 0.43453 0.0
C779 C 0.99768 0.67136 0.47468 0.0
C780 C 1.01151 0.66969 0.36296 0.0
C781 C 1.00388 0.67974 0.33054 0.0
C782 C 0.99183 0.68424 0.36834 0.0
C783 C 0.98891 0.68027 0.44074 0.0
C784 C 1.00903 0.68561 0.25703 0.0
C785 C 0.99721 0.6735 0.20451 0.0
C786 C 1.02702 0.70088 0.23938 0.0
C787 C 0.03983 0.71422 0.294 0.0
C788 C 1.03357 0.72362 0.33996 0.0
C789 C 0.04572 0.73617 0.39113 0.0
C790 C 0.06426 0.73964 0.39625 0.0
C791 C 0.07068 0.73054 0.35027 0.0
C792 C 0.05855 0.71793 0.29929 0.0
C793 C 1.03393 0.70664 0.92981 0.0
C794 C 1.03232 0.69033 0.89775 0.0
C795 C 1.03239 0.70744 0.00314 0.0
C796 C 1.0292 0.69196 0.04457 0.0
C797 C 1.03014 0.67679 0.01372 0.0
C798 C 1.03172 0.67598 0.94034 0.0
C799 C 1.02177 0.69019 0.11679 0.0
C800 C 1.03319 0.70302 0.16875 0.0
C801 C 1.00333 0.67565 0.13416 0.0
C802 C 0.99022 0.66239 0.08038 0.0
C803 C 0.9825 0.64283 0.08925 0.0
C804 C 0.96968 0.63027 0.03979 0.0
C805 C 0.96442 0.6371 0.98143 0.0
C806 C 0.97209 0.65653 0.97205 0.0
C807 C 0.98491 0.66915 0.02135 0.0
H808 H 0.95432 0.62729 0.94391 0.0
H809 H 0.07366 0.74938 0.4358 0.0
H810 H 0.40063 0.37465 0.19004 0.0
H811 H 0.37698 0.3833 0.15556 0.0
H812 H 0.34661 0.35966 0.35134 0.0
H813 H 0.36966 0.35028 0.38404 0.0
H814 H 0.32247 0.34843 0.25428 0.0
H815 H 0.3738 0.40984 0.31083 0.0
H816 H 0.40627 0.43682 0.30454 0.0
H817 H 0.39961 0.44283 0.08167 0.0
H818 H 0.36717 0.41572 0.08644 0.0
H819 H 0.26134 0.38792 0.23801 0.0
H820 H 0.28552 0.37989 0.26934 0.0
H821 H 0.30957 0.39558 0.05926 0.0
H822 H 0.28518 0.40323 0.02675 0.0
H823 H 0.33677 0.4108 0.16043 0.0
H824 H 0.28381 0.34951 0.11044 0.0
H825 H 0.25133 0.32283 0.12255 0.0
H826 H 0.2611 0.31718 0.3427 0.0
H827 H 0.29353 0.34407 0.33232 0.0
C828 C 0.38909 0.37163 0.22624 0.0
C829 C 0.3871 0.36185 0.28994 0.0
C830 C 0.37552 0.3766 0.20654 0.0
C831 C 0.3599 0.37232 0.25091 0.0
C832 C 0.35834 0.36308 0.31563 0.0
C833 C 0.37166 0.35782 0.33462 0.0
C834 C 0.34468 0.37655 0.22909 0.0
C835 C 0.32567 0.3622 0.23489 0.0
C836 C 0.34863 0.39434 0.2019 0.0
C837 C 0.36812 0.41063 0.19886 0.0
C838 C 0.37931 0.41683 0.26037 0.0
C839 C 0.3977 0.43216 0.2571 0.0
C840 C 0.40502 0.4415 0.1927 0.0
C841 C 0.39394 0.43556 0.13148 0.0
C842 C 0.37554 0.42023 0.13445 0.0
C843 C 0.2715 0.38934 0.19777 0.0
C844 C 0.27113 0.39625 0.12958 0.0
C845 C 0.28545 0.38481 0.21603 0.0
C846 C 0.29941 0.38703 0.16667 0.0
C847 C 0.29904 0.3938 0.09852 0.0
C848 C 0.28506 0.39825 0.08007 0.0
C849 C 0.31466 0.38276 0.18656 0.0
C850 C 0.33364 0.39708 0.18012 0.0
C851 C 0.31068 0.36503 0.21429 0.0
C852 C 0.29106 0.34899 0.22076 0.0
C853 C 0.27898 0.34273 0.16165 0.0
C854 C 0.26057 0.32754 0.16818 0.0
C855 C 0.25413 0.31836 0.23341 0.0
C856 C 0.26609 0.32434 0.29225 0.0
C857 C 0.28448 0.33956 0.28607 0.0
H858 H 0.23989 0.30657 0.23832 0.0
H859 H 0.41926 0.45336 0.19028 0.0
H860 H 0.81321 0.72253 0.13668 0.0
H861 H 0.8212 0.75519 0.16288 0.0
H862 H 0.7627 0.73623 0.21052 0.0
H863 H 0.75469 0.70369 0.18485 0.0
H864 H 0.77921 0.76879 0.12796 0.0
H865 H 0.79323 0.74498 0.33828 0.0
H866 H 0.80872 0.73184 0.41232 0.0
H867 H 0.86283 0.78018 0.36798 0.0
H868 H 0.84782 0.79317 0.29066 0.0
H869 H 0.79443 0.85546 0.2875 0.0
H870 H 0.78395 0.82224 0.25993 0.0
H871 H 0.84201 0.8348 0.25988 0.0
H872 H 0.85223 0.86726 0.29152 0.0
H873 H 0.82398 0.80436 0.32126 0.0
H874 H 0.81214 0.82684 0.10148 0.0
H875 H 0.79807 0.84116 0.02562 0.0
H876 H 0.74244 0.7974 0.0845 0.0
H877 H 0.75619 0.78296 0.1614 0.0
C878 C 0.80204 0.72537 0.15216 0.0
C879 C 0.78333 0.71046 0.15912 0.0
C880 C 0.80663 0.74402 0.16751 0.0
C881 C 0.79257 0.74821 0.18932 0.0
C882 C 0.77381 0.73341 0.19404 0.0
C883 C 0.76927 0.71478 0.17971 0.0
C884 C 0.79736 0.76788 0.20854 0.0
C885 C 0.78893 0.77655 0.17056 0.0
C886 C 0.81027 0.77818 0.26336 0.0
C887 C 0.81938 0.76991 0.30754 0.0
C888 C 0.80847 0.75262 0.34291 0.0
C889 C 0.81719 0.74519 0.3855 0.0
C890 C 0.83678 0.75506 0.3942 0.0
C891 C 0.8477 0.77239 0.3603 0.0
C892 C 0.8391 0.77976 0.31687 0.0
C893 C 0.80489 0.85104 0.28169 0.0
C894 C 0.82414 0.86402 0.29222 0.0
C895 C 0.79892 0.83205 0.26531 0.0
C896 C 0.81216 0.82581 0.25673 0.0
C897 C 0.83138 0.83896 0.26655 0.0
C898 C 0.83725 0.85766 0.28462 0.0
C899 C 0.80637 0.80568 0.23916 0.0
C900 C 0.81444 0.79678 0.27802 0.0
C901 C 0.79348 0.79533 0.18419 0.0
C902 C 0.7852 0.80394 0.13774 0.0
C903 C 0.79691 0.82035 0.09857 0.0
C904 C 0.78899 0.82847 0.05535 0.0
C905 C 0.76937 0.82022 0.05039 0.0
C906 C 0.75763 0.80379 0.08848 0.0
C907 C 0.76548 0.79563 0.13185 0.0
H908 H 0.76326 0.82654 0.01692 0.0
H909 H 0.84349 0.74936 0.42762 0.0
H910 H 0.46252 0.93136 0.10068 0.0
H911 H 0.42973 0.90671 0.12454 0.0
H912 H 0.44981 0.87294 0.22722 0.0
H913 H 0.48247 0.89749 0.20401 0.0
H914 H 0.41948 0.85203 0.1337 0.0
H915 H 0.43576 0.89714 0.32485 0.0
H916 H 0.44621 0.9285 0.37719 0.0
H917 H 0.3997 0.93023 0.27908 0.0
H918 H 0.38918 0.89904 0.22493 0.0
H919 H 0.33242 0.78353 0.2945 0.0
H920 H 0.36539 0.80705 0.26763 0.0
H921 H 0.34824 0.84813 0.22172 0.0
H922 H 0.31585 0.82518 0.25322 0.0
H923 H 0.37789 0.8655 0.28658 0.0
H924 H 0.36169 0.82285 0.08963 0.0
H925 H 0.35038 0.79217 0.03001 0.0
H926 H 0.39501 0.78661 0.126 0.0
H927 H 0.40645 0.81716 0.1869 0.0
C928 C 0.45992 0.91863 0.12793 0.0
C929 C 0.47514 0.91648 0.15087 0.0
C930 C 0.44118 0.90458 0.14186 0.0
C931 C 0.43726 0.88797 0.17818 0.0
C932 C 0.45242 0.8856 0.19931 0.0
C933 C 0.47112 0.89972 0.18636 0.0
C934 C 0.41741 0.87317 0.19531 0.0
C935 C 0.4104 0.85491 0.16759 0.0
C936 C 0.40536 0.87699 0.23803 0.0
C937 C 0.41183 0.89585 0.27006 0.0
C938 C 0.42789 0.9043 0.31371 0.0
C939 C 0.43381 0.92203 0.34383 0.0
C940 C 0.42367 0.93138 0.33124 0.0
C941 C 0.40757 0.923 0.28859 0.0
C942 C 0.40164 0.9053 0.25815 0.0
C943 C 0.33578 0.7976 0.2786 0.0
C944 C 0.32154 0.80251 0.27641 0.0
C945 C 0.35464 0.81106 0.2626 0.0
C946 C 0.35955 0.82951 0.24136 0.0
C947 C 0.34513 0.83419 0.23831 0.0
C948 C 0.32649 0.82098 0.25626 0.0
C949 C 0.37959 0.84421 0.22395 0.0
C950 C 0.38677 0.86251 0.25206 0.0
C951 C 0.39162 0.84053 0.18006 0.0
C952 C 0.3848 0.82219 0.14338 0.0
C953 C 0.36902 0.81502 0.09838 0.0
C954 C 0.36259 0.79767 0.06431 0.0
C955 C 0.37194 0.78743 0.07437 0.0
C956 C 0.38777 0.79455 0.11835 0.0
C957 C 0.39424 0.81188 0.15261 0.0
H958 H 0.36695 0.77399 0.04796 0.0
H959 H 0.42825 0.94509 0.35472 0.0
H960 H 0.55065 0.03369 0.07129 0.0
H961 H 0.53628 0.05294 0.03668 0.0
H962 H 0.57474 0.07518 0.85911 0.0
H963 H 0.58912 0.05641 0.89343 0.0
H964 H 0.55539 0.09366 0.02284 0.0
H965 H 0.546 0.07796 0.71446 0.0
H966 H 0.53551 0.05101 0.63278 0.0
H967 H 0.50914 1.01252 0.80613 0.0
H968 H 0.51872 0.03918 0.8885 0.0
H969 H 0.56217 0.16972 0.81699 0.0
H970 H 0.56522 0.14418 0.87214 0.0
H971 H 0.50719 0.10478 0.82043 0.0
H972 H 0.50404 0.13051 0.76853 0.0
H973 H 0.529 0.09056 0.78323 0.0
H974 H 0.51879 0.11604 0.99173 0.0
H975 H 0.52265 0.14051 0.07786 0.0
H976 H 0.58046 0.1553 0.11036 0.0
H977 H 0.57695 0.13088 0.02439 0.0
C978 C 0.55581 0.04249 0.02437 0.0
C979 C 0.57107 0.04355 0.98532 0.0
C980 C 0.54769 0.05358 0.00487 0.0
C981 C 0.55437 0.06548 0.94493 0.0
C982 C 0.56921 0.06604 0.90506 0.0
C983 C 0.57747 0.05531 0.92505 0.0
C984 C 0.5467 0.07809 0.92463 0.0
C985 C 0.54956 0.09291 0.9705 0.0
C986 C 0.53856 0.0769 0.857 0.0
C987 C 0.53337 0.06069 0.80817 0.0
C988 C 0.53787 0.06377 0.7353 0.0
C989 C 0.53196 0.04851 0.68867 0.0
C990 C 0.52166 0.03006 0.71424 0.0
C991 C 0.51718 0.02683 0.78644 0.0
C992 C 0.52286 0.04202 0.83317 0.0
C993 C 0.55005 0.15561 0.81778 0.0
C994 C 0.53306 0.15194 0.78554 0.0
C995 C 0.55178 0.14101 0.84952 0.0
C996 C 0.53647 0.12242 0.85025 0.0
C997 C 0.51933 0.11888 0.81964 0.0
C998 C 0.51761 0.13352 0.78841 0.0
C999 C 0.53867 0.10661 0.87972 0.0
C1000 C 0.53481 0.09123 0.83553 0.0
C1001 C 0.54539 0.10701 0.94929 0.0
C1002 C 0.54765 0.12171 0.00122 0.0
C1003 C 0.53237 0.12457 0.01696 0.0
C1004 C 0.53446 0.13839 0.06592 0.0
C1005 C 0.5518 0.14949 0.09937 0.0
C1006 C 0.56704 0.14669 0.08433 0.0
C1007 C 0.56498 0.13281 0.03571 0.0
H1008 H 0.55342 0.16024 0.13702 0.0
H1009 H 0.51721 1.01827 0.67815 0.0
H1010 H 1.03251 0.24511 0.68264 0.0
H1011 H 0.059 0.2741 0.73013 0.0
H1012 H 0.07406 0.24114 0.86535 0.0
H1013 H 0.04747 0.21204 0.81791 0.0
H1014 H 0.07505 0.27053 0.93849 0.0
H1015 H 0.10106 0.26291 0.7242 0.0
H1016 H 0.1027 0.25712 0.59646 0.0
H1017 H 0.10054 0.30724 0.54577 0.0
H1018 H 0.09856 0.31318 0.67324 0.0
H1019 H 0.15801 0.36045 0.03206 0.0
H1020 H 0.13896 0.32742 0.9914 0.0
H1021 H 0.1115 0.34468 0.83792 0.0
H1022 H 0.13008 0.37706 0.87739 0.0
H1023 H 0.12139 0.32055 0.77898 0.0
H1024 H 0.09021 0.32429 -0.00396 0.0
H1025 H 0.08895 0.32956 0.12462 0.0
H1026 H 0.10252 0.28617 0.16998 0.0
H1027 H 0.10395 0.28071 0.0416 0.0
C1028 C 0.04153 0.24403 0.72215 0.0
C1029 C 0.03796 0.22628 0.74612 0.0
C1030 C 0.05673 0.26063 0.74919 0.0
C1031 C 0.06871 0.25989 0.80106 0.0
C1032 C 0.0651 0.24214 0.82537 0.0
C1033 C 0.04995 0.22551 0.79791 0.0
C1034 C 0.08471 0.27774 0.83029 0.0
C1035 C 0.08541 0.28131 0.90369 0.0
C1036 C 0.09833 0.29189 0.7853 0.0
C1037 C 0.09952 0.28841 0.70841 0.0
C1038 C 0.10077 0.27262 0.68585 0.0
C1039 C 0.10178 0.26932 0.61346 0.0
C1040 C 0.10168 0.28178 0.56303 0.0
C1041 C 0.10059 0.29759 0.5849 0.0
C1042 C 0.09955 0.30094 0.65725 0.0
C1043 C 0.14797 0.35714 0.98946 0.0
C1044 C 0.14551 0.37146 0.95867 0.0
C1045 C 0.13703 0.33826 0.96639 0.0
C1046 C 0.12367 0.33347 0.91159 0.0
C1047 C 0.12166 0.34789 0.88005 0.0
C1048 C 0.1323 0.3665 0.90331 0.0
C1049 C 0.11128 0.31361 0.88669 0.0
C1050 C 0.11125 0.30963 0.81391 0.0
C1051 C 0.09842 0.29906 0.93232 0.0
C1052 C 0.09743 0.30227 0.00933 0.0
C1053 C 0.09305 0.31596 0.03347 0.0
C1054 C 0.09225 0.31895 0.1063 0.0
C1055 C 0.09568 0.30822 0.15545 0.0
C1056 C 0.09984 0.29444 0.13187 0.0
C1057 C 0.10064 0.29139 0.0591 0.0
H1058 H 0.09508 0.31056 0.21181 0.0
H1059 H 0.10247 0.27921 0.507 0.0
H1060 H 0.96507 0.68161 0.71936 0.0
H1061 H 0.93391 0.67556 0.76124 0.0
H1062 H 0.92402 0.62347 0.85658 0.0
H1063 H 0.95506 0.6296 0.81564 0.0
H1064 H 0.89302 0.61906 0.78414 0.0
H1065 H 0.93643 0.66199 0.96088 0.0
H1066 H 0.96407 0.69182 -0.00066 0.0
H1067 H 0.93975 0.72315 0.90983 0.0
H1068 H 0.91201 0.69349 0.87047 0.0
H1069 H 0.81999 0.59092 0.02607 0.0
H1070 H 0.85187 0.60393 0.97822 0.0
H1071 H 0.8504 0.65331 0.90709 0.0
H1072 H 0.81824 0.64035 0.95696 0.0
H1073 H 0.8864 0.6621 0.95379 0.0
H1074 H 0.84035 0.61856 0.79558 0.0
H1075 H 0.81253 0.58875 0.7587 0.0
H1076 H 0.84166 0.55857 0.80787 0.0
H1077 H 0.86949 0.58814 0.84677 0.0
C1078 C 0.95631 0.66898 0.74975 0.0
C1079 C 0.96281 0.65639 0.7662 0.0
C1080 C 0.93847 0.6655 0.77363 0.0
C1081 C 0.92663 0.64916 0.81317 0.0
C1082 C 0.93285 0.63624 0.82674 0.0
C1083 C 0.95069 0.63982 0.8037 0.0
C1084 C 0.90779 0.64533 0.84089 0.0
C1085 C 0.89161 0.62843 0.82152 0.0
C1086 C 0.90574 0.6578 0.88791 0.0
C1087 C 0.92228 0.67558 0.91208 0.0
C1088 C 0.93706 0.67526 0.94898 0.0
C1089 C 0.95273 0.69212 0.971 0.0
C1090 C 0.95372 0.70936 0.95673 0.0
C1091 C 0.93899 0.70978 0.92071 0.0
C1092 C 0.92328 0.69296 0.89865 0.0
C1093 C 0.82656 0.60475 0.00157 0.0
C1094 C 0.81654 0.61456 -0.00492 0.0
C1095 C 0.8448 0.61214 0.97384 0.0
C1096 C 0.85347 0.62942 0.93741 0.0
C1097 C 0.84401 0.63991 0.93462 0.0
C1098 C 0.82567 0.63253 0.96336 0.0
C1099 C 0.8717 0.63554 0.89862 0.0
C1100 C 0.88774 0.65284 0.9157 0.0
C1101 C 0.87362 0.62346 0.84896 0.0
C1102 C 0.85701 0.60562 0.82442 0.0
C1103 C 0.8408 0.60557 0.79885 0.0
C1104 C 0.82502 0.5887 0.77764 0.0
C1105 C 0.82534 0.57178 0.78086 0.0
C1106 C 0.84144 0.5717 0.80535 0.0
C1107 C 0.85723 0.58852 0.82703 0.0
H1108 H 0.81312 0.55874 0.76436 0.0
H1109 H 0.96586 0.7224 0.97377 0.0
H1110 H 0.03536 0.56742 0.70822 0.0
H1111 H 0.04804 0.54764 0.74868 0.0
H1112 H 0.07339 0.58432 0.92879 0.0
H1113 H 0.06056 0.60425 0.88867 0.0
H1114 H 0.09762 0.57451 0.86846 0.0
H1115 H 1.03416 0.54198 0.95215 0.0
H1116 H 0.99953 0.5276 0.94564 0.0
H1117 H 0.99737 0.4882 0.78919 0.0
H1118 H 1.03204 0.50253 0.79396 0.0
H1119 H 0.11838 0.50615 0.02059 0.0
H1120 H 0.10557 0.52745 0.00537 0.0
H1121 H 0.07901 0.49913 0.81018 0.0
H1122 H 0.09157 0.47774 0.82532 0.0
H1123 H 0.05516 0.50548 0.89565 0.0
H1124 H 0.11903 0.5411 0.80251 0.0
H1125 H 0.15361 0.55526 0.81032 0.0
H1126 H 0.15456 0.58823 0.99012 0.0
H1127 H 0.11992 0.57424 0.9832 0.0
C1128 C 0.04342 0.5712 0.75698 0.0
C1129 C 0.04672 0.58732 0.79565 0.0
C1130 C 0.05072 0.55988 0.77997 0.0
C1131 C 0.06142 0.5643 0.84244 0.0
C1132 C 0.06512 0.58059 0.88055 0.0
C1133 C 0.0578 0.59198 0.85747 0.0
C1134 C 0.06873 0.55183 0.86704 0.0
C1135 C 0.08829 0.55947 0.87577 0.0
C1136 C 0.05661 0.53217 0.87598 0.0
C1137 C 0.03573 0.52344 0.87304 0.0
C1138 C 1.02633 0.53034 0.91595 0.0
C1139 C 1.00668 0.52219 0.91264 0.0
C1140 C 0.99626 0.50702 0.86693 0.0
C1141 C 1.00547 0.49996 0.82455 0.0
C1142 C 1.02511 0.50808 0.82759 0.0
C1143 C 0.10971 0.50439 0.97468 0.0
C1144 C 0.10612 0.49033 0.92386 0.0
C1145 C 0.1025 0.51664 0.96585 0.0
C1146 C 0.09144 0.51496 0.90635 0.0
C1147 C 0.08753 0.50071 0.85641 0.0
C1148 C 0.09485 0.48859 0.86485 0.0
C1149 C 0.08402 0.52809 0.89523 0.0
C1150 C 0.06443 0.52056 0.88921 0.0
C1151 C 0.09608 0.54783 0.88923 0.0
C1152 C 0.1169 0.5565 0.89276 0.0
C1153 C 0.12661 0.5513 0.8439 0.0
C1154 C 0.14622 0.55931 0.84813 0.0
C1155 C 0.15628 0.57255 0.90097 0.0
C1156 C 0.14675 0.57793 0.94932 0.0
C1157 C 0.12713 0.57002 0.94513 0.0
H1158 H 0.17146 0.57868 0.90433 0.0
H1159 H 0.98106 0.50072 0.86445 0.0
H1160 H 0.6739 0.46128 0.88684 0.0
H1161 H 0.65123 0.4276 0.87351 0.0
H1162 H 0.68453 0.41426 0.01407 0.0
H1163 H 0.70739 0.44789 0.02674 0.0
H1164 H 0.6753 0.39344 0.89315 0.0
H1165 H 0.64281 0.40899 0.06987 0.0
H1166 H 0.62877 0.42692 0.12264 0.0
H1167 H 0.59041 0.41156 0.94739 0.0
H1168 H 0.60438 0.39374 0.89306 0.0
H1169 H 0.6098 0.29538 0.90371 0.0
H1170 H 0.62996 0.32808 0.94209 0.0
H1171 H 0.59766 0.34538 0.81327 0.0
H1172 H 0.57745 0.31278 0.77506 0.0
H1173 H 0.60633 0.36387 0.93682 0.0
H1174 H 0.64014 0.35075 0.75576 0.0
H1175 H 0.65429 0.3333 0.69986 0.0
H1176 H 0.6904 0.34481 0.88034 0.0
H1177 H 0.67626 0.36213 0.93777 0.0
C1178 C 0.67636 0.45117 0.91503 0.0
C1179 C 0.69246 0.45727 0.9578 0.0
C1180 C 0.66332 0.43193 0.90786 0.0
C1181 C 0.6661 0.4184 0.94323 0.0
C1182 C 0.68205 0.42445 0.98651 0.0
C1183 C 0.69504 0.44369 0.99406 0.0
C1184 C 0.65294 0.39791 0.93196 0.0
C1185 C 0.66027 0.3869 0.90395 0.0
C1186 C 0.63325 0.38948 0.94436 0.0
C1187 C 0.62477 0.40016 0.97704 0.0
C1188 C 0.63148 0.40956 0.04226 0.0
C1189 C 0.62352 0.41968 0.07254 0.0
C1190 C 0.60874 0.42042 0.03829 0.0
C1191 C 0.60187 0.41099 0.97382 0.0
C1192 C 0.60979 0.40086 0.94331 0.0
C1193 C 0.60698 0.30615 0.88369 0.0
C1194 C 0.59204 0.30144 0.83609 0.0
C1195 C 0.6185 0.32484 0.90572 0.0
C1196 C 0.6155 0.33928 0.87987 0.0
C1197 C 0.60025 0.33452 0.83413 0.0
C1198 C 0.58867 0.31584 0.81242 0.0
C1199 C 0.6287 0.35942 0.8978 0.0
C1200 C 0.62139 0.37038 0.92674 0.0
C1201 C 0.64843 0.36788 0.88593 0.0
C1202 C 0.657 0.35755 0.85138 0.0
C1203 C 0.65099 0.34944 0.78375 0.0
C1204 C 0.65903 0.33959 0.75176 0.0
C1205 C 0.67319 0.3379 0.78662 0.0
C1206 C 0.6794 0.3461 0.85346 0.0
C1207 C 0.67139 0.35594 0.88574 0.0
H1208 H 0.6794 0.33027 0.76176 0.0
H1209 H 0.60259 0.42827 0.06174 0.0
H1210 H 0.87068 0.11378 0.69331 0.0
H1211 H 0.83707 0.0981 0.723 0.0
H1212 H 0.8507 0.11277 0.94353 0.0
H1213 H 0.88442 0.12804 0.91456 0.0
H1214 H 0.82025 0.07715 0.92841 0.0
H1215 H 0.8401 0.13947 0.84023 0.0
H1216 H 0.85472 0.16571 0.7545 0.0
H1217 H 0.81483 0.13116 0.59549 0.0
H1218 H 0.80013 0.10461 0.68005 0.0
H1219 H 0.73555 0.07523 0.04304 0.0
H1220 H 0.76772 0.08226 0.01438 0.0
H1221 H 0.75191 0.06791 0.79507 0.0
H1222 H 0.71981 0.06115 0.82319 0.0
H1223 H 0.7831 0.10187 0.80753 0.0
H1224 H 0.76476 0.03904 0.89093 0.0
H1225 H 0.75102 1.01201 0.9736 0.0
H1226 H 0.78715 0.04737 0.14008 0.0
H1227 H 0.80142 0.0745 0.05778 0.0
C1228 C 0.86656 0.11331 0.7484 0.0
C1229 C 0.88027 0.12229 0.80151 0.0
C1230 C 0.84732 0.10449 0.76518 0.0
C1231 C 0.84137 0.10453 0.83531 0.0
C1232 C 0.85497 0.11265 0.88901 0.0
C1233 C 0.87423 0.1215 0.87227 0.0
C1234 C 0.82105 0.09709 0.85185 0.0
C1235 C 0.81216 0.08267 0.90247 0.0
C1236 C 0.81039 0.10402 0.81707 0.0
C1237 C 0.81915 0.11999 0.76623 0.0
C1238 C 0.83454 0.13742 0.78681 0.0
C1239 C 0.84283 0.15236 0.73846 0.0
C1240 C 0.83574 0.15009 0.66953 0.0
C1241 C 0.82032 0.13289 0.64887 0.0
C1242 C 0.812 0.11789 0.69699 0.0
C1243 C 0.73892 0.07348 0.98879 0.0
C1244 C 0.72517 0.06775 0.93529 0.0
C1245 C 0.75725 0.07728 0.97263 0.0
C1246 C 0.76221 0.07547 0.90264 0.0
C1247 C 0.74838 0.06932 0.84948 0.0
C1248 C 0.73003 0.06541 0.86567 0.0
C1249 C 0.7822 0.08181 0.88373 0.0
C1250 C 0.79111 0.09619 0.83299 0.0
C1251 C 0.79284 0.07484 0.91836 0.0
C1252 C 0.78399 0.05879 0.96852 0.0
C1253 C 0.7697 0.04105 0.94529 0.0
C1254 C 0.7619 0.0257 0.99192 0.0
C1255 C 0.7681 0.028 0.06219 0.0
C1256 C 0.7823 0.04561 0.08571 0.0
C1257 C 0.79034 0.06095 0.03899 0.0
H1258 H 0.76195 1.01612 0.09831 0.0
H1259 H 0.84217 0.16167 0.63218 0.0
H1260 H 0.66138 1.01964 0.0748 0.0
H1261 H 0.68416 1.01015 0.10722 0.0
H1262 H 0.63945 0.95221 0.12266 0.0
H1263 H 0.61614 0.96201 0.09412 0.0
H1264 H 0.66292 0.95779 0.22176 0.0
H1265 H 0.67301 0.97092 0.97273 0.0
H1266 H 0.67869 0.98904 0.86181 0.0
H1267 H 0.73013 0.03397 0.94765 0.0
H1268 H 0.72455 1.01633 0.0595 0.0
H1269 H 0.72744 0.92212 0.19471 0.0
H1270 H 0.703 0.93054 0.17253 0.0
H1271 H 0.74381 0.98926 0.20446 0.0
H1272 H 0.76839 0.98086 0.22724 0.0
H1273 H 0.72206 0.98238 0.08058 0.0
H1274 H 0.7114 0.96636 0.32894 0.0
H1275 H 0.70539 0.94596 0.43337 0.0
H1276 H 0.65365 0.90334 0.34032 0.0
H1277 H 0.6595 0.92339 0.23482 0.0
C1278 C 0.65629 1.00482 0.08466 0.0
C1279 C 0.63688 0.99153 0.08064 0.0
C1280 C 0.66946 0.99936 0.10287 0.0
C1281 C 0.6638 0.98031 0.11522 0.0
C1282 C 0.64433 0.96699 0.11276 0.0
C1283 C 0.63098 0.97256 0.09616 0.0
C1284 C 0.6783 0.9746 0.13119 0.0
C1285 C 0.67567 0.96293 0.18996 0.0
C1286 C 0.69524 0.98145 0.09091 0.0
C1287 C 0.69839 0.9923 0.02436 0.0
C1288 C 0.68547 0.98473 0.96805 0.0
C1289 C 0.68867 0.99493 0.90503 0.0
C1290 C 0.7048 1.01265 0.8976 0.0
C1291 C 0.71766 1.02027 0.9534 0.0
C1292 C 0.7145 1.01018 0.01658 0.0
C1293 C 0.73122 0.93684 0.19723 0.0
C1294 C 0.74991 0.95082 0.21265 0.0
C1295 C 0.71718 0.94162 0.18493 0.0
C1296 C 0.72147 0.96053 0.18714 0.0
C1297 C 0.74011 0.97456 0.20264 0.0
C1298 C 0.75413 0.96974 0.21602 0.0
C1299 C 0.70664 0.96565 0.17092 0.0
C1300 C 0.70925 0.97721 0.11206 0.0
C1301 C 0.68954 0.95835 0.21018 0.0
C1302 C 0.68599 0.94631 0.27367 0.0
C1303 C 0.69883 0.95257 0.33046 0.0
C1304 C 0.69543 0.94109 0.38991 0.0
C1305 C 0.67917 0.92334 0.3934 0.0
C1306 C 0.66625 0.91708 0.33751 0.0
C1307 C 0.66959 0.9285 0.27791 0.0
H1308 H 0.67657 0.91447 0.43947 0.0
H1309 H 0.70733 1.02048 0.84864 0.0
H1310 H 0.23447 0.63066 0.3053 0.0
H1311 H 0.2282 0.59891 0.27504 0.0
H1312 H 0.23382 0.61305 0.05245 0.0
H1313 H 0.24037 0.64486 0.08213 0.0
H1314 H 0.20385 0.579 0.07429 0.0
H1315 H 0.269 0.61045 0.14426 0.0
H1316 H 0.29592 0.62873 0.22422 0.0
H1317 H 0.2705 0.58524 0.38221 0.0
H1318 H 0.24329 0.56681 0.30352 0.0
H1319 H 0.20253 0.49759 0.94348 0.0
H1320 H 0.21285 0.5305 0.97244 0.0
H1321 H 0.21566 0.51884 0.19425 0.0
H1322 H 0.20688 0.48625 0.16393 0.0
H1323 H 0.24156 0.55206 0.17357 0.0
H1324 H 0.17568 0.52108 0.10545 0.0
H1325 H 0.14887 0.50289 0.02519 0.0
H1326 H 0.17539 0.5455 0.86465 0.0
H1327 H 0.20238 0.56395 0.944 0.0
C1328 C 0.23454 0.62712 0.24986 0.0
C1329 C 0.23797 0.64049 0.19631 0.0
C1330 C 0.23093 0.60888 0.2326 0.0
C1331 C 0.23073 0.60354 0.16136 0.0
C1332 C 0.23386 0.61674 0.10781 0.0
C1333 C 0.2375 0.63497 0.12497 0.0
C1334 C 0.22703 0.58416 0.14238 0.0
C1335 C 0.21225 0.5732 0.09545 0.0
C1336 C 0.23765 0.57631 0.17099 0.0
C1337 C 0.25402 0.58734 0.21827 0.0
C1338 C 0.26908 0.60485 0.19627 0.0
C1339 C 0.2844 0.61523 0.24133 0.0
C1340 C 0.2849 0.60818 0.30833 0.0
C1341 C 0.27009 0.5907 0.33033 0.0
C1342 C 0.25472 0.58028 0.28551 0.0
C1343 C 0.20573 0.5022 -0.00179 0.0
C1344 C 0.20397 0.4894 0.0514 0.0
C1345 C 0.21135 0.52099 0.01507 0.0
C1346 C 0.21439 0.52724 0.08615 0.0
C1347 C 0.21331 0.51454 0.13904 0.0
C1348 C 0.20833 0.49588 0.12175 0.0
C1349 C 0.21825 0.54674 0.10547 0.0
C1350 C 0.23307 0.55776 0.15253 0.0
C1351 C 0.20759 0.55465 0.0773 0.0
C1352 C 0.1911 0.54381 0.03044 0.0
C1353 C 0.17577 0.52656 0.05302 0.0
C1354 C 0.16052 0.51622 0.00767 0.0
C1355 C 0.16037 0.52305 0.93983 0.0
C1356 C 0.17545 0.54027 0.91731 0.0
C1357 C 0.19072 0.5507 0.96248 0.0
H1358 H 0.14861 0.51503 0.9046 0.0
H1359 H 0.29677 0.61623 0.34313 0.0
H1360 H 0.692 0.53459 0.97868 0.0
H1361 H 0.65959 0.5111 0.01148 0.0
H1362 H 0.66604 0.53916 0.21227 0.0
H1363 H 0.69845 0.56312 0.17877 0.0
H1364 H 0.65148 0.49782 0.21768 0.0
H1365 H 0.63918 0.54332 0.1044 0.0
H1366 H 0.64134 0.56457 0.00756 0.0
H1367 H 0.61467 0.51743 0.86493 0.0
H1368 H 0.61261 0.49592 0.96072 0.0
H1369 H 0.55547 0.44174 0.32786 0.0
H1370 H 0.58725 0.46723 0.2997 0.0
H1371 H 0.57857 0.45113 0.0788 0.0
H1372 H 0.54645 0.42619 0.10593 0.0
H1373 H 0.59457 0.48761 0.08646 0.0
H1374 H 0.60775 0.44227 0.18919 0.0
H1375 H 0.60681 0.41974 0.27817 0.0
H1376 H 0.63278 0.4644 0.43151 0.0
H1377 H 0.6337 0.48718 0.34351 0.0
C1378 C 0.68641 0.53597 0.02933 0.0
C1379 C 0.69773 0.55084 0.07578 0.0
C1380 C 0.66789 0.5225 0.04807 0.0
C1381 C 0.66034 0.52335 0.1143 0.0
C1382 C 0.67154 0.53825 0.16079 0.0
C1383 C 0.68999 0.55202 0.14134 0.0
C1384 C 0.64098 0.50827 0.13519 0.0
C1385 C 0.63897 0.49578 0.18998 0.0
C1386 C 0.62474 0.50515 0.09722 0.0
C1387 C 0.62591 0.51804 0.03959 0.0
C1388 C 0.63393 0.53751 0.05223 0.0
C1389 C 0.63511 0.54959 -0.00245 0.0
C1390 C 0.62819 0.54236 0.93008 0.0
C1391 C 0.62004 0.52301 0.9172 0.0
C1392 C 0.61885 0.51087 0.97169 0.0
C1393 C 0.56022 0.44362 0.27315 0.0
C1394 C 0.54819 0.43175 0.21933 0.0
C1395 C 0.57857 0.45815 0.25718 0.0
C1396 C 0.58553 0.46114 0.18705 0.0
C1397 C 0.57365 0.44921 0.13335 0.0
C1398 C 0.55527 0.43473 0.14921 0.0
C1399 C 0.60492 0.477 0.16933 0.0
C1400 C 0.60699 0.48964 0.1148 0.0
C1401 C 0.62127 0.48004 0.20668 0.0
C1402 C 0.62057 0.46638 0.26002 0.0
C1403 C 0.6131 0.44725 0.24208 0.0
C1404 C 0.61261 0.43445 0.29229 0.0
C1405 C 0.61966 0.44062 0.36056 0.0
C1406 C 0.62728 0.45963 0.37866 0.0
C1407 C 0.6278 0.4725 0.32861 0.0
H1408 H 0.61928 0.43069 0.39937 0.0
H1409 H 0.62911 0.55174 0.88783 0.0
H1410 H 0.9978 0.79002 0.56568 0.0
H1411 H 0.98271 0.80783 0.52713 0.0
H1412 H 0.92807 0.75761 0.54134 0.0
H1413 H 0.94312 0.73961 0.58086 0.0
H1414 H 0.93193 0.78011 0.42147 0.0
H1415 H 0.94107 0.78756 0.67331 0.0
H1416 H 0.95926 0.79444 0.78429 0.0
H1417 H 0.99729 0.85067 0.71125 0.0
H1418 H 0.97949 0.84403 0.59931 0.0
H1419 H 0.88428 0.8349 0.42223 0.0
H1420 H 0.89466 0.81206 0.44838 0.0
H1421 H 0.95223 0.85754 0.46421 0.0
H1422 H 0.94195 0.88034 0.44083 0.0
H1423 H 0.94379 0.83469 0.57306 0.0
H1424 H 0.93507 0.82738 0.32035 0.0
H1425 H 0.91769 0.82039 0.20746 0.0
H1426 H 0.87953 0.76404 0.27877 0.0
H1427 H 0.89636 0.77083 0.39297 0.0
C1428 C 0.98256 0.78271 0.56067 0.0
C1429 C 0.97165 0.76344 0.57754 0.0
C1430 C 0.97397 0.79291 0.53829 0.0
C1431 C 0.95424 0.78413 0.53246 0.0
C1432 C 0.94331 0.76468 0.54567 0.0
C1433 C 0.95194 0.75441 0.56815 0.0
C1434 C 0.94518 0.79564 0.51662 0.0
C1435 C 0.93422 0.79187 0.45508 0.0
C1436 C 0.94842 0.81113 0.56003 0.0
C1437 C 0.95902 0.81525 0.6277 0.0
C1438 C 0.95338 0.80136 0.68072 0.0
C1439 C 0.96361 0.80521 0.74381 0.0
C1440 C 0.97944 0.82297 0.75476 0.0
C1441 C 0.98503 0.83692 0.70268 0.0
C1442 C 0.97486 0.83312 0.63943 0.0
C1443 C 0.89914 0.84003 0.43151 0.0
C1444 C 0.91227 0.8595 0.42925 0.0
C1445 C 0.90508 0.82693 0.44576 0.0
C1446 C 0.92427 0.83305 0.45786 0.0
C1447 C 0.93736 0.85244 0.455 0.0
C1448 C 0.93146 0.86548 0.44091 0.0
C1449 C 0.93085 0.81955 0.47671 0.0
C1450 C 0.94131 0.82288 0.53938 0.0
C1451 C 0.92714 0.80372 0.43409 0.0
C1452 C 0.91683 0.79972 0.36577 0.0
C1453 C 0.92282 0.81357 0.31244 0.0
C1454 C 0.91307 0.80964 0.24812 0.0
C1455 C 0.89746 0.79181 0.23607 0.0
C1456 C 0.89161 0.77786 0.28821 0.0
C1457 C 0.90121 0.78176 0.35285 0.0
H1458 H 0.88995 0.78878 0.18622 0.0
H1459 H 0.98735 0.82593 0.80364 0.0
H1460 H 0.44345 0.04437 0.46272 0.0
H1461 H 0.42185 1.01138 0.43261 0.0
H1462 H 0.3764 1.01424 0.53948 0.0
H1463 H 0.39808 0.04698 0.57233 0.0
H1464 H 0.37771 0.98404 0.58086 0.0
H1465 H 0.37914 1.01209 0.3549 0.0
H1466 H 0.39414 0.03156 0.24872 0.0
H1467 H 0.41862 0.99712 0.19558 0.0
H1468 H 0.40397 0.97758 0.30203 0.0
H1469 H 0.30036 0.89828 0.46873 0.0
H1470 H 0.32302 0.9317 0.48466 0.0
H1471 H 0.36657 0.92387 0.38664 0.0
H1472 H 0.34395 0.8902 0.37122 0.0
H1473 H 0.36743 0.95614 0.33947 0.0
H1474 H 0.36602 0.92798 0.56292 0.0
H1475 H 0.35129 0.90828 0.66882 0.0
H1476 H 0.32739 0.94294 0.72691 0.0
H1477 H 0.34176 0.9627 0.62071 0.0
C1478 C 0.42883 0.03802 0.47961 0.0
C1479 C 0.42256 0.04838 0.52026 0.0
C1480 C 0.41644 1.01917 0.46174 0.0
C1481 C 0.39743 1.01029 0.48344 0.0
C1482 C 0.39099 1.02076 0.52209 0.0
C1483 C 0.40339 0.03958 0.54019 0.0
C1484 C 0.38452 0.98983 0.4697 0.0
C1485 C 0.37526 0.97803 0.52787 0.0
C1486 C 0.38182 0.98178 0.40094 0.0
C1487 C 0.39061 0.99349 0.33685 0.0
C1488 C 0.38785 1.00876 0.3209 0.0
C1489 C 0.39626 1.01979 0.2606 0.0
C1490 C 0.40737 1.01561 0.21554 0.0
C1491 C 0.41004 1.00036 0.23059 0.0
C1492 C 0.40167 0.98929 0.29087 0.0
C1493 C 0.31479 0.90357 0.45116 0.0
C1494 C 0.32035 0.89144 0.41944 0.0
C1495 C 0.32773 0.92273 0.46004 0.0
C1496 C 0.34657 0.93027 0.43771 0.0
C1497 C 0.35211 0.91836 0.40435 0.0
C1498 C 0.33914 0.89912 0.39547 0.0
C1499 C 0.36041 0.95052 0.45047 0.0
C1500 C 0.3699 0.96222 0.39234 0.0
C1501 C 0.36342 0.95851 0.51931 0.0
C1502 C 0.35483 0.94672 0.58348 0.0
C1503 C 0.3575 0.93132 0.59797 0.0
C1504 C 0.34924 0.92016 0.6581 0.0
C1505 C 0.33837 0.92433 0.70447 0.0
C1506 C 0.3358 0.93971 0.69089 0.0
C1507 C 0.34401 0.95091 0.63077 0.0
H1508 H 0.33199 0.91567 0.751 0.0
H1509 H 0.41387 0.02417 0.16888 0.0
H1510 H 0.14058 0.24445 0.51943 0.0
H1511 H 0.1734 0.25647 0.48296 0.0
H1512 H 0.16835 0.20255 0.53118 0.0
H1513 H 0.13581 0.19069 0.57068 0.0
H1514 H 0.19911 0.23009 0.58932 0.0
H1515 H 0.17054 0.21878 0.35802 0.0
H1516 H 0.15169 0.2218 0.26236 0.0
H1517 H 0.18908 0.28174 0.25729 0.0
H1518 H 0.20799 0.27912 0.35371 0.0
H1519 H 0.28368 0.2423 0.44493 0.0
H1520 H 0.25046 0.23185 0.46601 0.0
H1521 H 0.2603 0.28756 0.41661 0.0
H1522 H 0.29362 0.298 0.39208 0.0
H1523 H 0.22762 0.261 0.35953 0.0
H1524 H 0.25604 0.27287 0.5888 0.0
H1525 H 0.27525 0.27065 0.68497 0.0
H1526 H 0.23832 0.21068 0.69508 0.0
H1527 H 0.21904 0.2125 0.59824 0.0
C1528 C 0.14643 0.23512 0.52217 0.0
C1529 C 0.13553 0.2166 0.54843 0.0
C1530 C 0.16516 0.24197 0.50054 0.0
C1531 C 0.17336 0.2304 0.5039 0.0
C1532 C 0.16235 0.21175 0.52803 0.0
C1533 C 0.14365 0.20492 0.54996 0.0
C1534 C 0.19371 0.23801 0.48672 0.0
C1535 C 0.20525 0.23658 0.53859 0.0
C1536 C 0.20195 0.24718 0.42165 0.0
C1537 C 0.19055 0.24877 0.36373 0.0
C1538 C 0.17464 0.23263 0.33701 0.0
C1539 C 0.16396 0.23427 0.28254 0.0
C1540 C 0.16914 0.25196 0.25394 0.0
C1541 C 0.18505 0.26805 0.27961 0.0
C1542 C 0.19576 0.26649 0.33415 0.0
C1543 C 0.2788 0.25232 0.43735 0.0
C1544 C 0.2914 0.27103 0.41672 0.0
C1545 C 0.25979 0.24635 0.45031 0.0
C1546 C 0.25291 0.25899 0.44411 0.0
C1547 C 0.26531 0.27759 0.42217 0.0
C1548 C 0.28439 0.28358 0.4088 0.0
C1549 C 0.23283 0.25269 0.46159 0.0
C1550 C 0.22142 0.25448 0.41015 0.0
C1551 C 0.22468 0.24395 0.52727 0.0
C1552 C 0.23618 0.24281 0.58584 0.0
C1553 C 0.25209 0.25919 0.61119 0.0
C1554 C 0.26298 0.258 0.66587 0.0
C1555 C 0.25803 0.24053 0.69601 0.0
C1556 C 0.24215 0.2242 0.67164 0.0
C1557 C 0.23122 0.22531 0.61691 0.0
H1558 H 0.26648 0.23964 0.73834 0.0
H1559 H 0.16086 0.2532 0.21175 0.0
H1560 H 0.51793 0.21806 0.57406 0.0
H1561 H 0.51297 0.24306 0.52535 0.0
H1562 H 0.45344 0.20328 0.50562 0.0
H1563 H 0.45847 0.17844 0.55586 0.0
H1564 H 0.46631 0.22411 0.38886 0.0
H1565 H 0.47192 0.23754 0.64125 0.0
H1566 H 0.48799 0.24463 0.75718 0.0
H1567 H 0.53495 0.29455 0.67007 0.0
H1568 H 0.51923 0.28764 0.55331 0.0
H1569 H 0.42085 0.27667 0.3685 0.0
H1570 H 0.43422 0.25721 0.40232 0.0
H1571 H 0.49015 0.30585 0.39741 0.0
H1572 H 0.47658 0.32589 0.36405 0.0
H1573 H 0.48444 0.28386 0.51709 0.0
H1574 H 0.47705 0.27262 0.26871 0.0
H1575 H 0.46091 0.26568 0.15302 0.0
H1576 H 0.41797 0.21181 0.23075 0.0
H1577 H 0.43368 0.21853 0.34729 0.0
C1578 C 0.50372 0.21488 0.56205 0.0
C1579 C 0.48846 0.19656 0.57218 0.0
C1580 C 0.5009 0.2291 0.53301 0.0
C1581 C 0.48273 0.22527 0.51303 0.0
C1582 C 0.46758 0.20674 0.52104 0.0
C1583 C 0.47043 0.19254 0.54997 0.0
C1584 C 0.47942 0.24035 0.48286 0.0
C1585 C 0.47016 0.23709 0.41727 0.0
C1586 C 0.4851 0.25773 0.51817 0.0
C1587 C 0.49448 0.26197 0.58841 0.0
C1588 C 0.48572 0.24996 0.64671 0.0
C1589 C 0.49475 0.25397 0.71257 0.0
C1590 C 0.51248 0.27003 0.72095 0.0
C1591 C 0.52121 0.28212 0.66348 0.0
C1592 C 0.51224 0.27818 0.59747 0.0
C1593 C 0.43605 0.2834 0.37406 0.0
C1594 C 0.44761 0.30297 0.36347 0.0
C1595 C 0.44371 0.27212 0.39317 0.0
C1596 C 0.46325 0.2799 0.40184 0.0
C1597 C 0.47502 0.29945 0.39083 0.0
C1598 C 0.46727 0.31088 0.37123 0.0
C1599 C 0.47083 0.26732 0.4241 0.0
C1600 C 0.48086 0.27101 0.48813 0.0
C1601 C 0.46595 0.25034 0.38723 0.0
C1602 C 0.45651 0.24613 0.31694 0.0
C1603 C 0.4641 0.25933 0.2613 0.0
C1604 C 0.45504 0.25544 0.19554 0.0
C1605 C 0.43842 0.23833 0.18457 0.0
C1606 C 0.43085 0.22506 0.23931 0.0
C1607 C 0.43985 0.22889 0.30522 0.0
H1608 H 0.43142 0.23534 0.13363 0.0
H1609 H 0.51943 0.27312 0.77201 0.0
H1610 H 0.90566 0.98477 0.36175 0.0
H1611 H 0.92353 1.01647 0.40971 0.0
H1612 H 0.87223 1.01891 0.4346 0.0
H1613 H 0.85387 0.98652 0.38662 0.0
H1614 H 0.90741 0.05469 0.38206 0.0
H1615 H 0.88572 1.01044 0.57404 0.0
H1616 H 0.8794 0.98106 0.63404 0.0
H1617 H 0.93872 0.9995 0.63312 0.0
H1618 H 0.94537 0.02883 0.57177 0.0
H1619 H 0.96289 0.13582 0.60732 0.0
H1620 H 0.93665 0.10589 0.56312 0.0
H1621 H 0.97417 0.08303 0.54733 0.0
H1622 H 1.00021 0.11276 0.59119 0.0
H1623 H 0.94066 0.05745 0.60575 0.0
H1624 H 0.96171 0.09763 0.39884 0.0
H1625 H 0.96977 0.12691 0.33495 0.0
H1626 H 0.91291 0.11614 0.362 0.0
H1627 H 0.90457 0.08675 0.4269 0.0
C1628 C 0.89805 0.99201 0.37646 0.0
C1629 C 0.87822 0.98291 0.37099 0.0
C1630 C 0.90838 1.01024 0.40392 0.0
C1631 C 0.89926 1.02003 0.42681 0.0
C1632 C 0.87958 1.01159 0.41743 0.0
C1633 C 0.8691 0.99311 0.38981 0.0
C1634 C 0.91055 0.03837 0.46495 0.0
C1635 C 0.91427 0.05529 0.43198 0.0
C1636 C 0.9199 0.03925 0.52932 0.0
C1637 C 0.91603 1.02181 0.56785 0.0
C1638 C 0.89741 1.00819 0.58619 0.0
C1639 C 0.89377 0.99154 0.62047 0.0
C1640 C 0.90865 0.98841 0.6373 0.0
C1641 C 0.92721 1.00195 0.62004 0.0
C1642 C 0.93093 1.0186 0.58556 0.0
C1643 C 0.96548 0.12439 0.59458 0.0
C1644 C 0.98364 0.12671 0.60276 0.0
C1645 C 0.95048 0.10727 0.56907 0.0
C1646 C 0.95335 0.09208 0.55151 0.0
C1647 C 0.97147 0.0944 0.56063 0.0
C1648 C 0.98641 0.11148 0.58549 0.0
C1649 C 0.93778 0.07385 0.52247 0.0
C1650 C 0.93339 0.0569 0.55694 0.0
C1651 C 0.92789 0.07296 0.45949 0.0
C1652 C 0.9326 0.09017 0.41844 0.0
C1653 C 0.95095 0.10155 0.39139 0.0
C1654 C 0.95556 0.11817 0.35499 0.0
C1655 C 0.9419 0.12351 0.3449 0.0
C1656 C 0.9235 0.11205 0.37024 0.0
C1657 C 0.91881 0.09539 0.40674 0.0
H1658 H 0.94553 0.1365 0.31741 0.0
H1659 H 0.9058 0.9755 0.66381 0.0
H1660 H 0.06193 0.71456 0.50663 0.0
H1661 H 0.09112 0.71743 0.45886 0.0
H1662 H 0.09294 0.68404 0.63242 0.0
H1663 H 0.06387 0.68175 0.68205 0.0
H1664 H 0.12735 0.71242 0.60789 0.0
H1665 H 0.07916 0.66668 0.46272 0.0
H1666 H 0.05116 0.65266 0.3855 0.0
H1667 H 0.08162 0.69488 0.22714 0.0
H1668 H 0.10948 0.70982 0.30486 0.0
H1669 H 0.20534 0.71209 0.42639 0.0
H1670 H 0.17297 0.69849 0.47442 0.0
H1671 H 0.16408 0.73711 0.34677 0.0
H1672 H 0.19632 0.75088 0.30038 0.0
H1673 H 0.13214 0.70019 0.35237 0.0
H1674 H 0.17771 0.74842 0.51029 0.0
H1675 H 0.20592 0.76196 0.5867 0.0
H1676 H 0.18006 0.71256 0.71852 0.0
H1677 H 0.15182 0.69856 0.642 0.0
C1678 C 0.06853 0.70782 0.53468 0.0
C1679 C 0.06051 0.69786 0.5979 0.0
C1680 C 0.08519 0.70936 0.507 0.0
C1681 C 0.0942 0.70068 0.541 0.0
C1682 C 0.08629 0.6908 0.60474 0.0
C1683 C 0.0696 0.68939 0.63289 0.0
C1684 C 0.11194 0.70228 0.50993 0.0
C1685 C 0.12822 0.70935 0.55233 0.0
C1686 C 0.1133 0.69841 0.43712 0.0
C1687 C 0.09644 0.68951 0.39018 0.0
C1688 C 0.07984 0.67317 0.41191 0.0
C1689 C 0.06394 0.66508 0.36807 0.0
C1690 C 0.06457 0.67294 0.30163 0.0
C1691 C 0.08111 0.68888 0.27884 0.0
C1692 C 0.09693 0.69724 0.32296 0.0
C1693 C 0.19622 0.71722 0.40708 0.0
C1694 C 0.20324 0.73239 0.35907 0.0
C1695 C 0.17781 0.70958 0.43501 0.0
C1696 C 0.16607 0.71685 0.41457 0.0
C1697 C 0.17277 0.73121 0.3633 0.0
C1698 C 0.1912 0.73904 0.33664 0.0
C1699 C 0.14744 0.71076 0.44982 0.0
C1700 C 0.13104 0.7029 0.40816 0.0
C1701 C 0.14592 0.71376 0.52318 0.0
C1702 C 0.16275 0.72234 0.56991 0.0
C1703 C 0.17809 0.74038 0.55523 0.0
C1704 C 0.19409 0.74814 0.59858 0.0
C1705 C 0.1948 0.7381 0.65731 0.0
C1706 C 0.1795 0.7203 0.67292 0.0
C1707 C 0.1635 0.71244 0.62956 0.0
H1708 H 0.20719 0.74413 0.69084 0.0
H1709 H 0.05227 0.66664 0.26768 0.0
loop_
_geom_bond_atom_site_label_1
_geom_bond_atom_site_label_2
_geom_bond_distance
_geom_bond_site_symmetry_2
_ccdc_geom_bond_type
Tb0 C2 2.809 . S
Tb0 O20 2.484 . S
Tb0 O21 2.440 . S
Tb0 O22 2.658 . S
Tb0 O23 2.409 . S
Tb0 O24 2.378 . S
Tb0 O28 2.325 . S
Tb0 O31 2.341 . S
Tb1 C11 2.809 . S
Tb1 O22 2.325 . S
Tb1 O25 2.341 . S
Tb1 O26 2.484 . S
Tb1 O27 2.440 . S
Tb1 O28 2.658 . S
Tb1 O29 2.409 . S
Tb1 O30 2.378 . S
C2 Tb0 2.809 . S
C2 C3 1.514 . S
C2 O20 1.248 . S
C2 O21 1.266 . S
C3 C2 1.514 . S
C3 C4 1.359 . S
C3 C8 1.348 . S
C4 C3 1.359 . S
C4 C5 1.380 . S
C4 H32 0.929 . S
C5 C4 1.380 . S
C5 C6 1.347 . S
C5 H33 0.931 . S
C6 C5 1.347 . S
C6 C7 1.369 . S
C7 C6 1.369 . S
C7 C8 1.408 . S
C7 H34 0.930 . S
C8 C3 1.348 . S
C8 C7 1.408 . S
C8 H35 0.930 . S
C9 O22 1.281 1_556 S
C9 O23 1.254 1_556 S
C10 O24 1.236 . S
C10 O25 1.266 . S
C11 Tb1 2.809 . S
C11 C12 1.514 . S
C11 O26 1.248 . S
C11 O27 1.266 . S
C12 C11 1.514 . S
C12 C13 1.359 . S
C12 C17 1.348 . S
C13 C12 1.359 . S
C13 C14 1.380 . S
C13 H36 0.929 . S
C14 C13 1.380 . S
C14 C15 1.347 . S
C14 H37 0.931 1_554 S
C15 C14 1.347 . S
C15 C16 1.369 . S
C16 C15 1.369 . S
C16 C17 1.408 . S
C16 H38 0.930 . S
C17 C12 1.348 . S
C17 C16 1.408 . S
C17 H39 0.930 . S
C18 O28 1.281 . S
C18 O29 1.254 . S
C19 O30 1.236 . S
C19 O31 1.266 . S
O20 Tb0 2.484 . S
O20 C2 1.248 . S
O21 Tb0 2.440 . S
O21 C2 1.266 . S
O22 Tb0 2.658 . S
O22 Tb1 2.325 . S
O22 C9 1.281 1_554 S
O23 Tb0 2.409 . S
O23 C9 1.254 1_554 S
O24 Tb0 2.378 . S
O24 C10 1.236 . S
O25 Tb1 2.341 . S
O25 C10 1.266 . S
O26 Tb1 2.484 . S
O26 C11 1.248 . S
O27 Tb1 2.440 . S
O27 C11 1.266 . S
O28 Tb0 2.325 . S
O28 Tb1 2.658 . S
O28 C18 1.281 . S
O29 Tb1 2.409 . S
O29 C18 1.254 . S
O30 Tb1 2.378 . S
O30 C19 1.236 . S
O31 Tb0 2.341 . S
O31 C19 1.266 . S
H32 C4 0.929 . S
H33 C5 0.931 . S
H34 C7 0.930 . S
H35 C8 0.930 . S
H36 C13 0.929 . S
H37 C14 0.931 1_556 S
H38 C16 0.930 . S
H39 C17 0.930 . S
Tb40 C42 2.809 . S
Tb40 O60 2.484 . S
Tb40 O61 2.440 . S
Tb40 O62 2.658 . S
Tb40 O63 2.425 . S
Tb40 O64 2.378 . S
Tb40 O68 2.325 . S
Tb40 O71 2.341 . S
Tb41 C51 2.809 . S
Tb41 O62 2.325 . S
Tb41 O65 2.341 . S
Tb41 O66 2.484 . S
Tb41 O67 2.440 . S
Tb41 O68 2.658 . S
Tb41 O69 2.409 . S
Tb41 O70 2.378 . S
C42 Tb40 2.809 . S
C42 C43 1.514 . S
C42 O60 1.248 . S
C42 O61 1.266 . S
C43 C42 1.514 . S
C43 C44 1.359 . S
C43 C48 1.348 . S
C44 C43 1.359 . S
C44 C45 1.380 . S
C44 H72 0.929 . S
C45 C44 1.380 . S
C45 C46 1.347 . S
C45 H73 0.931 . S
C46 C45 1.347 . S
C46 C47 1.369 . S
C47 C46 1.369 . S
C47 C48 1.408 . S
C47 H74 0.930 . S
C48 C43 1.348 . S
C48 C47 1.408 . S
C48 H75 0.930 . S
C49 O62 1.281 1_556 S
C49 O63 1.252 1_556 S
C50 O64 1.236 . S
C50 O65 1.266 . S
C51 Tb41 2.809 . S
C51 C52 1.514 . S
C51 O66 1.248 . S
C51 O67 1.266 . S
C52 C51 1.514 . S
C52 C53 1.359 . S
C52 C57 1.348 . S
C53 C52 1.359 . S
C53 C54 1.380 . S
C53 H76 0.929 . S
C54 C53 1.380 . S
C54 C55 1.347 . S
C54 H77 0.931 1_554 S
C55 C54 1.347 . S
C55 C56 1.369 . S
C56 C55 1.369 . S
C56 C57 1.408 . S
C56 H78 0.930 . S
C57 C52 1.348 . S
C57 C56 1.408 . S
C57 H79 0.930 . S
C58 O68 1.281 . S
C58 O69 1.254 . S
C59 O70 1.236 . S
C59 O71 1.266 . S
O60 Tb40 2.484 . S
O60 C42 1.248 . S
O61 Tb40 2.440 . S
O61 C42 1.266 . S
O62 Tb40 2.658 . S
O62 Tb41 2.325 . S
O62 C49 1.281 1_554 S
O63 Tb40 2.425 . S
O63 C49 1.252 1_554 S
O64 Tb40 2.378 . S
O64 C50 1.236 . S
O65 Tb41 2.341 . S
O65 C50 1.266 . S
O66 Tb41 2.484 . S
O66 C51 1.248 . S
O67 Tb41 2.440 . S
O67 C51 1.266 . S
O68 Tb40 2.325 . S
O68 Tb41 2.658 . S
O68 C58 1.281 . S
O69 Tb41 2.409 . S
O69 C58 1.254 . S
O70 Tb41 2.378 . S
O70 C59 1.236 . S
O71 Tb40 2.341 . S
O71 C59 1.266 . S
H72 C44 0.929 . S
H73 C45 0.931 . S
H74 C47 0.930 . S
H75 C48 0.930 . S
H76 C53 0.929 . S
H77 C54 0.931 1_556 S
H78 C56 0.930 . S
H79 C57 0.930 . S
Tb80 C82 2.809 . S
Tb80 O100 2.484 . S
Tb80 O101 2.440 . S
Tb80 O102 2.658 1_565 S
Tb80 O103 2.409 . S
Tb80 O104 2.378 1_565 S
Tb80 O108 2.325 1_565 S
Tb80 O111 2.341 . S
Tb81 C91 2.809 . S
Tb81 O102 2.325 . S
Tb81 O105 2.341 . S
Tb81 O106 2.484 . S
Tb81 O107 2.440 . S
Tb81 O108 2.658 . S
Tb81 O109 2.409 . S
Tb81 O110 2.378 . S
C82 Tb80 2.809 . S
C82 C83 1.514 . S
C82 O100 1.248 . S
C82 O101 1.266 . S
C83 C82 1.514 . S
C83 C84 1.359 . S
C83 C88 1.348 . S
C84 C83 1.359 . S
C84 C85 1.380 . S
C84 H112 0.929 . S
C85 C84 1.380 . S
C85 C86 1.347 . S
C85 H113 0.931 . S
C86 C85 1.347 . S
C86 C87 1.369 . S
C87 C86 1.369 . S
C87 C88 1.408 . S
C87 H114 0.930 . S
C88 C83 1.348 . S
C88 C87 1.408 . S
C88 H115 0.930 . S
C89 O102 1.281 1_556 S
C89 O103 1.254 1_546 S
C90 O104 1.236 . S
C90 O105 1.266 . S
C91 Tb81 2.809 . S
C91 C92 1.514 . S
C91 O106 1.248 . S
C91 O107 1.266 . S
C92 C91 1.514 . S
C92 C93 1.359 . S
C92 C97 1.348 . S
C93 C92 1.359 . S
C93 C94 1.380 . S
C93 H116 0.929 . S
C94 C93 1.380 . S
C94 C95 1.347 . S
C94 H117 0.931 1_554 S
C95 C94 1.347 . S
C95 C96 1.369 . S
C96 C95 1.369 . S
C96 C97 1.408 . S
C96 H118 0.930 . S
C97 C92 1.348 . S
C97 C96 1.408 . S
C97 H119 0.930 . S
C98 O108 1.281 . S
C98 O109 1.254 . S
C99 O110 1.235 . S
C99 O111 1.266 1_545 S
O100 Tb80 2.484 . S
O100 C82 1.248 . S
O101 Tb80 2.440 . S
O101 C82 1.266 . S
O102 Tb80 2.658 1_545 S
O102 Tb81 2.325 . S
O102 C89 1.281 1_554 S
O103 Tb80 2.409 . S
O103 C89 1.254 1_564 S
O104 Tb80 2.378 1_545 S
O104 C90 1.236 . S
O105 Tb81 2.341 . S
O105 C90 1.266 . S
O106 Tb81 2.484 . S
O106 C91 1.248 . S
O107 Tb81 2.440 . S
O107 C91 1.266 . S
O108 Tb80 2.325 1_545 S
O108 Tb81 2.658 . S
O108 C98 1.281 . S
O109 Tb81 2.409 . S
O109 C98 1.254 . S
O110 Tb81 2.378 . S
O110 C99 1.235 . S
O111 Tb80 2.341 . S
O111 C99 1.266 1_565 S
H112 C84 0.929 . S
H113 C85 0.931 . S
H114 C87 0.930 . S
H115 C88 0.930 . S
H116 C93 0.929 . S
H117 C94 0.931 1_556 S
H118 C96 0.930 . S
H119 C97 0.930 . S
Tb120 C122 2.809 . S
Tb120 O140 2.484 . S
Tb120 O141 2.440 . S
Tb120 O142 2.658 . S
Tb120 O143 2.409 . S
Tb120 O144 2.378 . S
Tb120 O148 2.325 . S
Tb120 O151 2.341 . S
Tb121 C131 2.809 . S
Tb121 O142 2.325 . S
Tb121 O145 2.341 . S
Tb121 O146 2.484 . S
Tb121 O147 2.440 . S
Tb121 O148 2.658 . S
Tb121 O149 2.409 . S
Tb121 O150 2.378 . S
C122 Tb120 2.809 . S
C122 C123 1.514 . S
C122 O140 1.248 . S
C122 O141 1.266 . S
C123 C122 1.514 . S
C123 C124 1.359 . S
C123 C128 1.348 . S
C124 C123 1.359 . S
C124 C125 1.380 . S
C124 H152 0.929 . S
C125 C124 1.380 . S
C125 C126 1.347 . S
C125 H153 0.931 . S
C126 C125 1.347 . S
C126 C127 1.369 . S
C127 C126 1.369 . S
C127 C128 1.408 . S
C127 H154 0.930 . S
C128 C123 1.348 . S
C128 C127 1.408 . S
C128 H155 0.930 . S
C129 O142 1.281 . S
C129 O143 1.254 . S
C130 O144 1.236 . S
C130 O145 1.266 . S
C131 Tb121 2.809 . S
C131 C132 1.514 . S
C131 O146 1.248 . S
C131 O147 1.266 . S
C132 C131 1.514 . S
C132 C133 1.359 . S
C132 C137 1.348 . S
C133 C132 1.359 . S
C133 C134 1.380 . S
C133 H156 0.929 . S
C134 C133 1.380 . S
C134 C135 1.347 . S
C134 H157 0.931 . S
C135 C134 1.347 . S
C135 C136 1.369 . S
C136 C135 1.369 . S
C136 C137 1.408 . S
C136 H158 0.930 . S
C137 C132 1.348 . S
C137 C136 1.408 . S
C137 H159 0.930 . S
C138 O148 1.281 . S
C138 O149 1.254 . S
C139 O150 1.236 . S
C139 O151 1.266 . S
O140 Tb120 2.484 . S
O140 C122 1.248 . S
O141 Tb120 2.440 . S
O141 C122 1.266 . S
O142 Tb120 2.658 . S
O142 Tb121 2.325 . S
O142 C129 1.281 . S
O143 Tb120 2.409 . S
O143 C129 1.254 . S
O144 Tb120 2.378 . S
O144 C130 1.236 . S
O145 Tb121 2.341 . S
O145 C130 1.266 . S
O146 Tb121 2.484 . S
O146 C131 1.248 . S
O147 Tb121 2.440 . S
O147 C131 1.266 . S
O148 Tb120 2.325 . S
O148 Tb121 2.658 . S
O148 C138 1.281 . S
O149 Tb121 2.409 . S
O149 C138 1.254 . S
O150 Tb121 2.378 . S
O150 C139 1.236 . S
O151 Tb120 2.341 . S
O151 C139 1.266 . S
H152 C124 0.929 . S
H153 C125 0.931 . S
H154 C127 0.930 . S
H155 C128 0.930 . S
H156 C133 0.929 . S
H157 C134 0.931 . S
H158 C136 0.930 . S
H159 C137 0.930 . S
Tb160 C162 2.809 . S
Tb160 O180 2.484 . S
Tb160 O181 2.440 . S
Tb160 O182 2.658 . S
Tb160 O183 2.409 . S
Tb160 O184 2.378 . S
Tb160 O188 2.325 . S
Tb160 O191 2.341 . S
Tb161 C171 2.809 . S
Tb161 O182 2.325 . S
Tb161 O185 2.341 . S
Tb161 O186 2.484 . S
Tb161 O187 2.440 . S
Tb161 O188 2.658 . S
Tb161 O189 2.409 . S
Tb161 O190 2.378 . S
C162 Tb160 2.809 . S
C162 C163 1.514 . S
C162 O180 1.248 . S
C162 O181 1.266 . S
C163 C162 1.514 . S
C163 C164 1.359 . S
C163 C168 1.348 . S
C164 C163 1.359 . S
C164 C165 1.380 . S
C164 H192 0.929 . S
C165 C164 1.380 . S
C165 C166 1.347 . S
C165 H193 0.931 . S
C166 C165 1.347 . S
C166 C167 1.369 . S
C167 C166 1.369 . S
C167 C168 1.408 . S
C167 H194 0.930 . S
C168 C163 1.348 . S
C168 C167 1.408 . S
C168 H195 0.930 . S
C169 O182 1.281 . S
C169 O183 1.254 . S
C170 O184 1.236 . S
C170 O185 1.266 . S
C171 Tb161 2.809 . S
C171 C172 1.514 . S
C171 O186 1.248 . S
C171 O187 1.266 . S
C172 C171 1.514 . S
C172 C173 1.359 . S
C172 C177 1.348 . S
C173 C172 1.359 . S
C173 C174 1.380 . S
C173 H196 0.929 . S
C174 C173 1.380 . S
C174 C175 1.347 . S
C174 H197 0.931 . S
C175 C174 1.347 . S
C175 C176 1.369 . S
C176 C175 1.369 . S
C176 C177 1.408 . S
C176 H198 0.930 . S
C177 C172 1.348 . S
C177 C176 1.408 . S
C177 H199 0.930 . S
C178 O188 1.281 . S
C178 O189 1.254 . S
C179 O190 1.236 . S
C179 O191 1.266 . S
O180 Tb160 2.484 . S
O180 C162 1.248 . S
O181 Tb160 2.440 . S
O181 C162 1.266 . S
O182 Tb160 2.658 . S
O182 Tb161 2.325 . S
O182 C169 1.281 . S
O183 Tb160 2.409 . S
O183 C169 1.254 . S
O184 Tb160 2.378 . S
O184 C170 1.236 . S
O185 Tb161 2.341 . S
O185 C170 1.266 . S
O186 Tb161 2.484 . S
O186 C171 1.248 . S
O187 Tb161 2.440 . S
O187 C171 1.266 . S
O188 Tb160 2.325 . S
O188 Tb161 2.658 . S
O188 C178 1.281 . S
O189 Tb161 2.409 . S
O189 C178 1.254 . S
O190 Tb161 2.378 . S
O190 C179 1.236 . S
O191 Tb160 2.341 . S
O191 C179 1.266 . S
H192 C164 0.929 . S
H193 C165 0.931 . S
H194 C167 0.930 . S
H195 C168 0.930 . S
H196 C173 0.929 . S
H197 C174 0.931 . S
H198 C176 0.930 . S
H199 C177 0.930 . S
Tb200 C202 2.809 . S
Tb200 O220 2.484 . S
Tb200 O221 2.440 . S
Tb200 O222 2.658 . S
Tb200 O223 2.409 . S
Tb200 O224 2.378 . S
Tb200 O228 2.325 . S
Tb200 O231 2.341 . S
Tb201 C211 2.809 . S
Tb201 O222 2.325 . S
Tb201 O225 2.341 . S
Tb201 O226 2.484 . S
Tb201 O227 2.440 . S
Tb201 O228 2.658 . S
Tb201 O229 2.409 . S
Tb201 O230 2.378 . S
C202 Tb200 2.809 . S
C202 C203 1.514 . S
C202 O220 1.248 . S
C202 O221 1.266 . S
C203 C202 1.514 . S
C203 C204 1.359 . S
C203 C208 1.348 . S
C204 C203 1.359 . S
C204 C205 1.380 . S
C204 H232 0.929 . S
C205 C204 1.380 . S
C205 C206 1.347 . S
C205 H233 0.931 . S
C206 C205 1.347 . S
C206 C207 1.369 . S
C207 C206 1.369 . S
C207 C208 1.408 . S
C207 H234 0.930 . S
C208 C203 1.348 . S
C208 C207 1.408 . S
C208 H235 0.930 . S
C209 O222 1.281 . S
C209 O223 1.254 . S
C210 O224 1.236 . S
C210 O225 1.266 . S
C211 Tb201 2.809 . S
C211 C212 1.514 . S
C211 O226 1.248 . S
C211 O227 1.266 . S
C212 C211 1.514 . S
C212 C213 1.359 . S
C212 C217 1.348 . S
C213 C212 1.359 . S
C213 C214 1.380 . S
C213 H236 0.929 . S
C214 C213 1.380 . S
C214 C215 1.347 . S
C214 H237 0.931 . S
C215 C214 1.347 . S
C215 C216 1.369 . S
C216 C215 1.369 . S
C216 C217 1.408 . S
C216 H238 0.930 . S
C217 C212 1.348 . S
C217 C216 1.408 . S
C217 H239 0.930 . S
C218 O228 1.281 . S
C218 O229 1.254 . S
C219 O230 1.236 . S
C219 O231 1.266 . S
O220 Tb200 2.484 . S
O220 C202 1.248 . S
O221 Tb200 2.440 . S
O221 C202 1.266 . S
O222 Tb200 2.658 . S
O222 Tb201 2.325 . S
O222 C209 1.281 . S
O223 Tb200 2.409 . S
O223 C209 1.254 . S
O224 Tb200 2.378 . S
O224 C210 1.236 . S
O225 Tb201 2.341 . S
O225 C210 1.266 . S
O226 Tb201 2.484 . S
O226 C211 1.248 . S
O227 Tb201 2.440 . S
O227 C211 1.266 . S
O228 Tb200 2.325 . S
O228 Tb201 2.658 . S
O228 C218 1.281 . S
O229 Tb201 2.409 . S
O229 C218 1.254 . S
O230 Tb201 2.378 . S
O230 C219 1.236 . S
O231 Tb200 2.341 . S
O231 C219 1.266 . S
H232 C204 0.929 . S
H233 C205 0.931 . S
H234 C207 0.930 . S
H235 C208 0.930 . S
H236 C213 0.929 . S
H237 C214 0.931 . S
H238 C216 0.930 . S
H239 C217 0.930 . S
Tb240 C242 2.809 . S
Tb240 O260 2.484 . S
Tb240 O261 2.440 . S
Tb240 O262 2.658 . S
Tb240 O263 2.409 . S
Tb240 O264 2.378 . S
Tb240 O268 2.325 . S
Tb240 O271 2.341 . S
Tb241 C251 2.809 . S
Tb241 O262 2.325 . S
Tb241 O265 2.341 . S
Tb241 O266 2.484 . S
Tb241 O267 2.440 . S
Tb241 O268 2.658 . S
Tb241 O269 2.409 . S
Tb241 O270 2.378 . S
C242 Tb240 2.809 . S
C242 C243 1.514 . S
C242 O260 1.248 . S
C242 O261 1.266 . S
C243 C242 1.514 . S
C243 C244 1.359 . S
C243 C248 1.348 . S
C244 C243 1.359 . S
C244 C245 1.380 . S
C244 H272 0.929 . S
C245 C244 1.380 . S
C245 C246 1.347 . S
C245 H273 0.931 . S
C246 C245 1.347 . S
C246 C247 1.369 . S
C247 C246 1.369 . S
C247 C248 1.408 . S
C247 H274 0.930 . S
C248 C243 1.348 . S
C248 C247 1.408 . S
C248 H275 0.930 . S
C249 O262 1.281 . S
C249 O263 1.254 . S
C250 O264 1.236 . S
C250 O265 1.266 . S
C251 Tb241 2.809 . S
C251 C252 1.514 . S
C251 O266 1.248 . S
C251 O267 1.266 . S
C252 C251 1.514 . S
C252 C253 1.359 . S
C252 C257 1.348 . S
C253 C252 1.359 . S
C253 C254 1.380 . S
C253 H276 0.929 . S
C254 C253 1.380 . S
C254 C255 1.347 . S
C254 H277 0.931 . S
C255 C254 1.347 . S
C255 C256 1.369 . S
C256 C255 1.369 . S
C256 C257 1.408 . S
C256 H278 0.930 . S
C257 C252 1.348 . S
C257 C256 1.408 . S
C257 H279 0.930 . S
C258 O268 1.281 . S
C258 O269 1.254 . S
C259 O270 1.236 . S
C259 O271 1.266 . S
O260 Tb240 2.484 . S
O260 C242 1.248 . S
O261 Tb240 2.440 . S
O261 C242 1.266 . S
O262 Tb240 2.658 . S
O262 Tb241 2.325 . S
O262 C249 1.281 . S
O263 Tb240 2.409 . S
O263 C249 1.254 . S
O264 Tb240 2.378 . S
O264 C250 1.236 . S
O265 Tb241 2.341 . S
O265 C250 1.266 . S
O266 Tb241 2.484 . S
O266 C251 1.248 . S
O267 Tb241 2.440 . S
O267 C251 1.266 . S
O268 Tb240 2.325 . S
O268 Tb241 2.658 . S
O268 C258 1.281 . S
O269 Tb241 2.409 . S
O269 C258 1.254 . S
O270 Tb241 2.378 . S
O270 C259 1.236 . S
O271 Tb240 2.341 . S
O271 C259 1.266 . S
H272 C244 0.929 . S
H273 C245 0.931 . S
H274 C247 0.930 . S
H275 C248 0.930 . S
H276 C253 0.929 . S
H277 C254 0.931 . S
H278 C256 0.930 . S
H279 C257 0.930 . S
Tb280 C282 2.809 . S
Tb280 O300 2.484 . S
Tb280 O301 2.440 . S
Tb280 O302 2.658 . S
Tb280 O303 2.409 . S
Tb280 O304 2.378 . S
Tb280 O308 2.325 . S
Tb280 O311 2.341 . S
Tb281 C291 2.809 1_655 S
Tb281 O302 2.325 . S
Tb281 O305 2.341 . S
Tb281 O306 2.484 1_655 S
Tb281 O307 2.440 1_655 S
Tb281 O308 2.658 . S
Tb281 O309 2.409 . S
Tb281 O310 2.378 . S
C282 Tb280 2.809 . S
C282 C283 1.514 . S
C282 O300 1.248 . S
C282 O301 1.266 . S
C283 C282 1.514 . S
C283 C284 1.359 . S
C283 C288 1.348 . S
C284 C283 1.359 . S
C284 C285 1.380 . S
C284 H312 0.929 . S
C285 C284 1.380 . S
C285 C286 1.347 . S
C285 H313 0.931 . S
C286 C285 1.347 . S
C286 C287 1.369 . S
C287 C286 1.369 . S
C287 C288 1.408 . S
C287 H314 0.930 . S
C288 C283 1.348 . S
C288 C287 1.408 . S
C288 H315 0.930 . S
C289 O302 1.281 . S
C289 O303 1.254 . S
C290 O304 1.236 . S
C290 O305 1.266 . S
C291 Tb281 2.809 1_455 S
C291 C292 1.514 . S
C291 O306 1.248 . S
C291 O307 1.266 . S
C292 C291 1.514 . S
C292 C293 1.359 . S
C292 C297 1.348 . S
C293 C292 1.359 . S
C293 C294 1.380 . S
C293 H316 0.929 . S
C294 C293 1.380 . S
C294 C295 1.347 . S
C294 H317 0.931 . S
C295 C294 1.347 . S
C295 C296 1.369 . S
C296 C295 1.369 . S
C296 C297 1.408 . S
C296 H318 0.930 . S
C297 C292 1.348 . S
C297 C296 1.408 . S
C297 H319 0.930 . S
C298 O308 1.281 . S
C298 O309 1.254 . S
C299 O310 1.236 . S
C299 O311 1.266 . S
O300 Tb280 2.484 . S
O300 C282 1.248 . S
O301 Tb280 2.440 . S
O301 C282 1.266 . S
O302 Tb280 2.658 . S
O302 Tb281 2.325 . S
O302 C289 1.281 . S
O303 Tb280 2.409 . S
O303 C289 1.254 . S
O304 Tb280 2.378 . S
O304 C290 1.236 . S
O305 Tb281 2.341 . S
O305 C290 1.266 . S
O306 Tb281 2.484 1_455 S
O306 C291 1.248 . S
O307 Tb281 2.440 1_455 S
O307 C291 1.266 . S
O308 Tb280 2.325 . S
O308 Tb281 2.658 . S
O308 C298 1.281 . S
O309 Tb281 2.409 . S
O309 C298 1.254 . S
O310 Tb281 2.378 . S
O310 C299 1.236 . S
O311 Tb280 2.341 . S
O311 C299 1.266 . S
H312 C284 0.929 . S
H313 C285 0.931 . S
H314 C287 0.930 . S
H315 C288 0.930 . S
H316 C293 0.929 . S
H317 C294 0.931 . S
H318 C296 0.930 . S
H319 C297 0.930 . S
Tb320 C322 2.809 . S
Tb320 O340 2.484 . S
Tb320 O341 2.440 . S
Tb320 O342 2.658 . S
Tb320 O343 2.409 . S
Tb320 O344 2.378 . S
Tb320 O348 2.325 . S
Tb320 O351 2.341 . S
Tb321 C331 2.809 . S
Tb321 O342 2.325 . S
Tb321 O345 2.341 . S
Tb321 O346 2.484 . S
Tb321 O347 2.440 . S
Tb321 O348 2.658 . S
Tb321 O349 2.409 1_655 S
Tb321 O350 2.378 . S
C322 Tb320 2.809 . S
C322 C323 1.514 . S
C322 O340 1.248 . S
C322 O341 1.266 . S
C323 C322 1.514 . S
C323 C324 1.359 1_655 S
C323 C328 1.348 . S
C324 C323 1.359 1_455 S
C324 C325 1.380 . S
C324 H352 0.929 . S
C325 C324 1.380 . S
C325 C326 1.347 . S
C325 H353 0.931 . S
C326 C325 1.347 . S
C326 C327 1.369 1_455 S
C327 C326 1.369 1_655 S
C327 C328 1.408 . S
C327 H354 0.930 . S
C328 C323 1.348 . S
C328 C327 1.408 . S
C328 H355 0.930 . S
C329 O342 1.281 . S
C329 O343 1.254 . S
C330 O344 1.236 . S
C330 O345 1.266 . S
C331 Tb321 2.809 . S
C331 C332 1.514 . S
C331 O346 1.248 . S
C331 O347 1.266 . S
C332 C331 1.514 . S
C332 C333 1.359 . S
C332 C337 1.348 . S
C333 C332 1.359 . S
C333 C334 1.380 . S
C333 H356 0.929 . S
C334 C333 1.380 . S
C334 C335 1.347 . S
C334 H357 0.931 . S
C335 C334 1.347 . S
C335 C336 1.369 . S
C336 C335 1.369 . S
C336 C337 1.408 . S
C336 H358 0.930 . S
C337 C332 1.348 . S
C337 C336 1.408 . S
C337 H359 0.930 . S
C338 O348 1.281 1_455 S
C338 O349 1.254 . S
C339 O350 1.236 . S
C339 O351 1.266 . S
O340 Tb320 2.484 . S
O340 C322 1.248 . S
O341 Tb320 2.440 . S
O341 C322 1.266 . S
O342 Tb320 2.658 . S
O342 Tb321 2.325 . S
O342 C329 1.281 . S
O343 Tb320 2.409 . S
O343 C329 1.254 . S
O344 Tb320 2.378 . S
O344 C330 1.236 . S
O345 Tb321 2.341 . S
O345 C330 1.266 . S
O346 Tb321 2.484 . S
O346 C331 1.248 . S
O347 Tb321 2.440 . S
O347 C331 1.266 . S
O348 Tb320 2.325 . S
O348 Tb321 2.658 . S
O348 C338 1.281 1_655 S
O349 Tb321 2.409 1_455 S
O349 C338 1.254 . S
O350 Tb321 2.378 . S
O350 C339 1.236 . S
O351 Tb320 2.341 . S
O351 C339 1.266 . S
H352 C324 0.929 . S
H353 C325 0.931 . S
H354 C327 0.930 . S
H355 C328 0.930 . S
H356 C333 0.929 . S
H357 C334 0.931 . S
H358 C336 0.930 . S
H359 C337 0.930 . S
H360 C378 0.951 . S
H361 C380 0.951 . S
H362 C382 0.950 . S
H363 C383 0.950 . S
H364 C385 0.950 . S
H365 C388 0.950 . S
H366 C389 0.950 . S
H367 C391 0.950 . S
H368 C392 0.950 . S
H369 C393 0.951 . S
H370 C395 0.951 . S
H371 C397 0.950 . S
H372 C398 0.950 . S
H373 C400 0.950 . S
H374 C403 0.950 . S
H375 C404 0.950 . S
H376 C406 0.950 . S
H377 C407 0.950 . S
C378 H360 0.951 . S
C378 C379 1.366 . S
C378 C380 1.388 . S
C379 C378 1.366 . S
C379 C383 1.385 . S
C380 H361 0.951 . S
C380 C378 1.388 . S
C380 C381 1.366 . S
C381 C380 1.366 . S
C381 C382 1.414 . S
C381 C384 1.499 . S
C382 H362 0.950 . S
C382 C381 1.414 . S
C382 C383 1.374 . S
C383 H363 0.950 . S
C383 C379 1.385 . S
C383 C382 1.374 . S
C384 C381 1.499 . S
C384 C385 1.373 . S
C384 C386 1.389 . S
C385 H364 0.950 . S
C385 C384 1.373 . S
C385 C401 1.377 . S
C386 C384 1.389 . S
C386 C387 1.524 . S
C386 C400 1.377 . S
C387 C386 1.524 . S
C387 C388 1.397 . S
C387 C392 1.363 . S
C388 H365 0.950 . S
C388 C387 1.397 . S
C388 C389 1.334 . S
C389 H366 0.950 . S
C389 C388 1.334 . S
C389 C390 1.287 . S
C390 C389 1.287 . S
C390 C391 1.524 . S
C390 H409 0.913 . S
C391 H367 0.950 . S
C391 C390 1.524 . S
C391 C392 1.415 . S
C392 H368 0.950 . S
C392 C387 1.363 . S
C392 C391 1.415 . S
C393 H369 0.951 . S
C393 C394 1.366 . S
C393 C395 1.388 . S
C394 C393 1.366 . S
C394 C398 1.385 . S
C395 H370 0.951 . S
C395 C393 1.388 . S
C395 C396 1.366 . S
C396 C395 1.366 . S
C396 C397 1.414 . S
C396 C399 1.499 . S
C397 H371 0.950 . S
C397 C396 1.414 . S
C397 C398 1.374 . S
C398 H372 0.950 . S
C398 C394 1.385 . S
C398 C397 1.374 . S
C399 C396 1.499 . S
C399 C400 1.373 . S
C399 C401 1.389 . S
C400 H373 0.950 . S
C400 C386 1.377 . S
C400 C399 1.373 . S
C401 C385 1.377 . S
C401 C399 1.389 . S
C401 C402 1.524 . S
C402 C401 1.524 . S
C402 C403 1.397 . S
C402 C407 1.363 . S
C403 H374 0.950 . S
C403 C402 1.397 . S
C403 C404 1.334 . S
C404 H375 0.950 . S
C404 C403 1.334 . S
C404 C405 1.287 . S
C405 C404 1.287 . S
C405 C406 1.524 . S
C405 H408 0.999 . S
C406 H376 0.950 . S
C406 C405 1.524 . S
C406 C407 1.415 . S
C407 H377 0.950 . S
C407 C402 1.363 . S
C407 C406 1.415 . S
H408 C405 0.999 . S
H409 C390 0.913 . S
H410 C428 0.951 . S
H411 C430 0.951 . S
H412 C432 0.950 . S
H413 C433 0.950 . S
H414 C435 0.950 . S
H415 C438 0.950 . S
H416 C439 0.950 . S
H417 C441 0.950 . S
H418 C442 0.950 . S
H419 C443 0.951 . S
H420 C445 0.951 . S
H421 C447 0.950 . S
H422 C448 0.950 . S
H423 C450 0.950 . S
H424 C453 0.950 . S
H425 C454 0.950 . S
H426 C456 0.950 . S
H427 C457 0.950 . S
C428 H410 0.951 . S
C428 C429 1.366 . S
C428 C430 1.388 . S
C429 C428 1.366 . S
C429 C433 1.385 . S
C430 H411 0.951 . S
C430 C428 1.388 . S
C430 C431 1.366 . S
C431 C430 1.366 . S
C431 C432 1.414 . S
C431 C434 1.499 . S
C432 H412 0.950 . S
C432 C431 1.414 . S
C432 C433 1.374 . S
C433 H413 0.950 . S
C433 C429 1.385 . S
C433 C432 1.374 . S
C434 C431 1.499 . S
C434 C435 1.373 . S
C434 C436 1.389 . S
C435 H414 0.950 . S
C435 C434 1.373 . S
C435 C451 1.377 . S
C436 C434 1.389 . S
C436 C437 1.524 . S
C436 C450 1.377 . S
C437 C436 1.524 . S
C437 C438 1.397 . S
C437 C442 1.363 . S
C438 H415 0.950 . S
C438 C437 1.397 . S
C438 C439 1.334 . S
C439 H416 0.950 . S
C439 C438 1.334 . S
C439 C440 1.287 . S
C440 C439 1.287 . S
C440 C441 1.524 . S
C440 H459 0.913 . S
C441 H417 0.950 . S
C441 C440 1.524 . S
C441 C442 1.415 . S
C442 H418 0.950 . S
C442 C437 1.363 . S
C442 C441 1.415 . S
C443 H419 0.951 . S
C443 C444 1.366 . S
C443 C445 1.388 . S
C444 C443 1.366 . S
C444 C448 1.385 . S
C445 H420 0.951 . S
C445 C443 1.388 . S
C445 C446 1.366 . S
C446 C445 1.366 . S
C446 C447 1.414 . S
C446 C449 1.499 . S
C447 H421 0.950 . S
C447 C446 1.414 . S
C447 C448 1.374 . S
C448 H422 0.950 . S
C448 C444 1.385 . S
C448 C447 1.374 . S
C449 C446 1.499 . S
C449 C450 1.373 . S
C449 C451 1.389 . S
C450 H423 0.950 . S
C450 C436 1.377 . S
C450 C449 1.373 . S
C451 C435 1.377 . S
C451 C449 1.389 . S
C451 C452 1.524 . S
C452 C451 1.524 . S
C452 C453 1.397 . S
C452 C457 1.363 . S
C453 H424 0.950 . S
C453 C452 1.397 . S
C453 C454 1.334 . S
C454 H425 0.950 . S
C454 C453 1.334 . S
C454 C455 1.287 . S
C455 C454 1.287 . S
C455 C456 1.524 . S
C455 H458 0.999 . S
C456 H426 0.950 . S
C456 C455 1.524 . S
C456 C457 1.415 . S
C457 H427 0.950 . S
C457 C452 1.363 . S
C457 C456 1.415 . S
H458 C455 0.999 . S
H459 C440 0.913 . S
H460 C478 0.951 . S
H461 C480 0.951 . S
H462 C482 0.950 1_565 S
H463 C483 0.950 1_565 S
H464 C485 0.950 . S
H465 C488 0.950 . S
H466 C489 0.950 . S
H467 C491 0.950 . S
H468 C492 0.950 . S
H469 C493 0.951 . S
H470 C495 0.955 . S
H471 C497 0.950 . S
H472 C498 0.950 . S
H473 C500 0.950 . S
H474 C503 0.950 . S
H475 C504 0.950 . S
H476 C506 0.950 . S
H477 C507 0.950 . S
C478 H460 0.951 . S
C478 C479 1.366 . S
C478 C480 1.388 . S
C479 C478 1.366 . S
C479 C483 1.385 . S
C480 H461 0.951 . S
C480 C478 1.388 . S
C480 C481 1.366 . S
C481 C480 1.366 . S
C481 C482 1.414 . S
C481 C484 1.499 . S
C482 H462 0.950 1_545 S
C482 C481 1.414 . S
C482 C483 1.374 . S
C483 H463 0.950 1_545 S
C483 C479 1.385 . S
C483 C482 1.374 . S
C484 C481 1.499 . S
C484 C485 1.373 1_545 S
C484 C486 1.389 . S
C485 H464 0.950 . S
C485 C484 1.373 1_565 S
C485 C501 1.377 . S
C486 C484 1.389 . S
C486 C487 1.524 . S
C486 C500 1.377 . S
C487 C486 1.524 . S
C487 C488 1.397 . S
C487 C492 1.363 . S
C488 H465 0.950 . S
C488 C487 1.397 . S
C488 C489 1.334 . S
C489 H466 0.950 . S
C489 C488 1.334 . S
C489 C490 1.287 . S
C490 C489 1.287 . S
C490 C491 1.524 . S
C490 H509 0.913 . S
C491 H467 0.950 . S
C491 C490 1.524 . S
C491 C492 1.415 . S
C492 H468 0.950 . S
C492 C487 1.363 . S
C492 C491 1.415 . S
C493 H469 0.951 . S
C493 C494 1.366 . S
C493 C495 1.388 . S
C494 C493 1.366 . S
C494 C498 1.385 . S
C495 H470 0.955 . S
C495 C493 1.388 . S
C495 C496 1.366 . S
C496 C495 1.366 . S
C496 C497 1.414 . S
C496 C499 1.499 . S
C497 H471 0.950 . S
C497 C496 1.414 . S
C497 C498 1.374 . S
C498 H472 0.950 . S
C498 C494 1.385 . S
C498 C497 1.374 . S
C499 C496 1.499 . S
C499 C500 1.373 . S
C499 C501 1.389 1_545 S
C500 H473 0.950 . S
C500 C486 1.377 . S
C500 C499 1.373 . S
C501 C485 1.377 . S
C501 C499 1.389 1_565 S
C501 C502 1.524 . S
C502 C501 1.524 . S
C502 C503 1.397 . S
C502 C507 1.363 . S
C503 H474 0.950 . S
C503 C502 1.397 . S
C503 C504 1.334 . S
C504 H475 0.950 . S
C504 C503 1.334 . S
C504 C505 1.287 . S
C505 C504 1.287 . S
C505 C506 1.524 . S
C505 H508 0.999 . S
C506 H476 0.950 . S
C506 C505 1.524 . S
C506 C507 1.415 . S
C507 H477 0.950 . S
C507 C502 1.363 . S
C507 C506 1.415 . S
H508 C505 0.999 . S
H509 C490 0.913 . S
H510 C528 0.951 . S
H511 C530 0.951 . S
H512 C532 0.950 . S
H513 C533 0.950 . S
H514 C535 0.950 . S
H515 C538 0.950 . S
H516 C539 0.950 . S
H517 C541 0.950 . S
H518 C542 0.950 . S
H519 C543 0.951 . S
H520 C545 0.951 . S
H521 C547 0.950 . S
H522 C548 0.950 . S
H523 C550 0.950 . S
H524 C553 0.950 . S
H525 C554 0.950 . S
H526 C556 0.950 . S
H527 C557 0.950 . S
C528 H510 0.951 . S
C528 C529 1.366 . S
C528 C530 1.388 . S
C529 C528 1.366 . S
C529 C533 1.385 . S
C530 H511 0.951 . S
C530 C528 1.388 . S
C530 C531 1.366 . S
C531 C530 1.366 . S
C531 C532 1.414 . S
C531 C534 1.499 . S
C532 H512 0.950 . S
C532 C531 1.414 . S
C532 C533 1.374 . S
C533 H513 0.950 . S
C533 C529 1.385 . S
C533 C532 1.374 . S
C534 C531 1.499 . S
C534 C535 1.373 . S
C534 C536 1.389 . S
C535 H514 0.950 . S
C535 C534 1.373 . S
C535 C551 1.377 . S
C536 C534 1.389 . S
C536 C537 1.524 . S
C536 C550 1.377 . S
C537 C536 1.524 . S
C537 C538 1.397 . S
C537 C542 1.363 . S
C538 H515 0.950 . S
C538 C537 1.397 . S
C538 C539 1.334 . S
C539 H516 0.950 . S
C539 C538 1.334 . S
C539 C540 1.287 . S
C540 C539 1.287 . S
C540 C541 1.524 . S
C540 H559 0.913 . S
C541 H517 0.950 . S
C541 C540 1.524 . S
C541 C542 1.415 . S
C542 H518 0.950 . S
C542 C537 1.363 . S
C542 C541 1.415 . S
C543 H519 0.951 . S
C543 C544 1.366 . S
C543 C545 1.388 1_554 S
C544 C543 1.366 . S
C544 C548 1.385 . S
C545 H520 0.951 . S
C545 C543 1.388 1_556 S
C545 C546 1.366 . S
C546 C545 1.366 . S
C546 C547 1.414 . S
C546 C549 1.499 . S
C547 H521 0.950 . S
C547 C546 1.414 . S
C547 C548 1.374 1_556 S
C548 H522 0.950 . S
C548 C544 1.385 . S
C548 C547 1.374 1_554 S
C549 C546 1.499 . S
C549 C550 1.373 . S
C549 C551 1.389 . S
C550 H523 0.950 . S
C550 C536 1.377 . S
C550 C549 1.373 . S
C551 C535 1.377 . S
C551 C549 1.389 . S
C551 C552 1.524 . S
C552 C551 1.524 . S
C552 C553 1.397 . S
C552 C557 1.363 . S
C553 H524 0.950 . S
C553 C552 1.397 . S
C553 C554 1.334 . S
C554 H525 0.950 . S
C554 C553 1.334 . S
C554 C555 1.287 . S
C555 C554 1.287 . S
C555 C556 1.524 . S
C555 H558 0.999 . S
C556 H526 0.950 . S
C556 C555 1.524 . S
C556 C557 1.415 . S
C557 H527 0.950 . S
C557 C552 1.363 . S
C557 C556 1.415 . S
H558 C555 0.999 . S
H559 C540 0.913 . S
H560 C578 0.951 . S
H561 C580 0.951 . S
H562 C582 0.950 . S
H563 C583 0.950 . S
H564 C585 0.950 . S
H565 C588 0.950 . S
H566 C589 0.950 . S
H567 C591 0.950 . S
H568 C592 0.950 . S
H569 C593 0.951 . S
H570 C595 0.951 . S
H571 C597 0.950 . S
H572 C598 0.950 . S
H573 C600 0.950 . S
H574 C603 0.950 . S
H575 C604 0.950 . S
H576 C606 0.950 . S
H577 C607 0.950 . S
C578 H560 0.951 . S
C578 C579 1.366 . S
C578 C580 1.388 . S
C579 C578 1.366 . S
C579 C583 1.385 . S
C580 H561 0.951 . S
C580 C578 1.388 . S
C580 C581 1.366 . S
C581 C580 1.366 . S
C581 C582 1.414 . S
C581 C584 1.499 . S
C582 H562 0.950 . S
C582 C581 1.414 . S
C582 C583 1.374 . S
C583 H563 0.950 . S
C583 C579 1.385 . S
C583 C582 1.374 . S
C584 C581 1.499 . S
C584 C585 1.373 . S
C584 C586 1.389 . S
C585 H564 0.950 . S
C585 C584 1.373 . S
C585 C601 1.377 . S
C586 C584 1.389 . S
C586 C587 1.524 . S
C586 C600 1.377 . S
C587 C586 1.524 . S
C587 C588 1.397 . S
C587 C592 1.363 . S
C588 H565 0.950 . S
C588 C587 1.397 . S
C588 C589 1.334 . S
C589 H566 0.950 . S
C589 C588 1.334 . S
C589 C590 1.287 . S
C590 C589 1.287 . S
C590 C591 1.524 . S
C590 H609 0.913 . S
C591 H567 0.950 . S
C591 C590 1.524 . S
C591 C592 1.415 . S
C592 H568 0.950 . S
C592 C587 1.363 . S
C592 C591 1.415 . S
C593 H569 0.951 . S
C593 C594 1.366 . S
C593 C595 1.388 1_554 S
C594 C593 1.366 . S
C594 C598 1.385 . S
C595 H570 0.951 . S
C595 C593 1.388 1_556 S
C595 C596 1.366 . S
C596 C595 1.366 . S
C596 C597 1.414 . S
C596 C599 1.499 . S
C597 H571 0.950 . S
C597 C596 1.414 . S
C597 C598 1.374 1_556 S
C598 H572 0.950 . S
C598 C594 1.385 . S
C598 C597 1.374 1_554 S
C599 C596 1.499 . S
C599 C600 1.373 . S
C599 C601 1.389 . S
C600 H573 0.950 . S
C600 C586 1.377 . S
C600 C599 1.373 . S
C601 C585 1.377 . S
C601 C599 1.389 . S
C601 C602 1.524 . S
C602 C601 1.524 . S
C602 C603 1.397 . S
C602 C607 1.363 . S
C603 H574 0.950 . S
C603 C602 1.397 . S
C603 C604 1.334 . S
C604 H575 0.950 . S
C604 C603 1.334 . S
C604 C605 1.287 . S
C605 C604 1.287 . S
C605 C606 1.524 . S
C605 H608 0.999 . S
C606 H576 0.950 . S
C606 C605 1.524 . S
C606 C607 1.415 . S
C607 H577 0.950 . S
C607 C602 1.363 . S
C607 C606 1.415 . S
H608 C605 0.999 . S
H609 C590 0.913 . S
H610 C628 0.951 . S
H611 C630 0.951 . S
H612 C632 0.950 . S
H613 C633 0.950 . S
H614 C635 0.950 . S
H615 C638 0.950 . S
H616 C639 0.950 . S
H617 C641 0.950 . S
H618 C642 0.950 . S
H619 C643 0.951 . S
H620 C645 0.951 . S
H621 C647 0.950 . S
H622 C648 0.950 . S
H623 C650 0.950 . S
H624 C653 0.950 . S
H625 C654 0.950 . S
H626 C656 0.950 . S
H627 C657 0.950 . S
C628 H610 0.951 . S
C628 C629 1.366 . S
C628 C630 1.388 . S
C629 C628 1.366 . S
C629 C633 1.385 . S
C630 H611 0.951 . S
C630 C628 1.388 . S
C630 C631 1.366 . S
C631 C630 1.366 . S
C631 C632 1.414 . S
C631 C634 1.499 . S
C632 H612 0.950 . S
C632 C631 1.414 . S
C632 C633 1.374 . S
C633 H613 0.950 . S
C633 C629 1.385 . S
C633 C632 1.374 . S
C634 C631 1.499 . S
C634 C635 1.373 . S
C634 C636 1.389 . S
C635 H614 0.950 . S
C635 C634 1.373 . S
C635 C651 1.377 . S
C636 C634 1.389 . S
C636 C637 1.524 . S
C636 C650 1.377 . S
C637 C636 1.524 . S
C637 C638 1.397 . S
C637 C642 1.363 . S
C638 H615 0.950 . S
C638 C637 1.397 . S
C638 C639 1.334 . S
C639 H616 0.950 . S
C639 C638 1.334 . S
C639 C640 1.287 . S
C640 C639 1.287 . S
C640 C641 1.524 . S
C640 H659 0.913 . S
C641 H617 0.950 . S
C641 C640 1.524 . S
C641 C642 1.415 . S
C642 H618 0.950 . S
C642 C637 1.363 . S
C642 C641 1.415 . S
C643 H619 0.951 . S
C643 C644 1.366 . S
C643 C645 1.388 1_554 S
C644 C643 1.366 . S
C644 C648 1.385 . S
C645 H620 0.951 . S
C645 C643 1.388 1_556 S
C645 C646 1.366 . S
C646 C645 1.366 . S
C646 C647 1.414 . S
C646 C649 1.499 . S
C647 H621 0.950 . S
C647 C646 1.414 . S
C647 C648 1.374 1_556 S
C648 H622 0.950 . S
C648 C644 1.385 . S
C648 C647 1.374 1_554 S
C649 C646 1.499 . S
C649 C650 1.373 . S
C649 C651 1.389 . S
C650 H623 0.950 . S
C650 C636 1.377 . S
C650 C649 1.373 . S
C651 C635 1.377 . S
C651 C649 1.389 . S
C651 C652 1.524 . S
C652 C651 1.524 . S
C652 C653 1.397 . S
C652 C657 1.363 . S
C653 H624 0.950 . S
C653 C652 1.397 . S
C653 C654 1.334 . S
C654 H625 0.950 . S
C654 C653 1.334 . S
C654 C655 1.287 . S
C655 C654 1.287 . S
C655 C656 1.524 . S
C655 H658 0.999 . S
C656 H626 0.950 . S
C656 C655 1.524 . S
C656 C657 1.415 . S
C657 H627 0.950 . S
C657 C652 1.363 . S
C657 C656 1.415 . S
H658 C655 0.999 . S
H659 C640 0.913 . S
H660 C678 0.951 . S
H661 C680 0.951 . S
H662 C682 0.950 . S
H663 C683 0.950 . S
H664 C685 0.950 . S
H665 C688 0.950 . S
H666 C689 0.950 . S
H667 C691 0.950 . S
H668 C692 0.950 . S
H669 C693 0.951 . S
H670 C695 0.951 1_554 S
H671 C697 0.950 1_554 S
H672 C698 0.950 . S
H673 C700 0.950 . S
H674 C703 0.950 . S
H675 C704 0.950 . S
H676 C706 0.950 . S
H677 C707 0.950 . S
C678 H660 0.951 . S
C678 C679 1.366 . S
C678 C680 1.388 . S
C679 C678 1.366 . S
C679 C683 1.385 . S
C680 H661 0.951 . S
C680 C678 1.388 . S
C680 C681 1.366 . S
C681 C680 1.366 . S
C681 C682 1.414 . S
C681 C684 1.499 . S
C682 H662 0.950 . S
C682 C681 1.414 . S
C682 C683 1.374 . S
C683 H663 0.950 . S
C683 C679 1.385 . S
C683 C682 1.374 . S
C684 C681 1.499 . S
C684 C685 1.373 . S
C684 C686 1.389 . S
C685 H664 0.950 . S
C685 C684 1.373 . S
C685 C701 1.377 . S
C686 C684 1.389 . S
C686 C687 1.524 . S
C686 C700 1.377 . S
C687 C686 1.524 . S
C687 C688 1.397 . S
C687 C692 1.363 . S
C688 H665 0.950 . S
C688 C687 1.397 . S
C688 C689 1.334 . S
C689 H666 0.950 . S
C689 C688 1.334 . S
C689 C690 1.287 . S
C690 C689 1.287 . S
C690 C691 1.524 . S
C690 H709 0.913 . S
C691 H667 0.950 . S
C691 C690 1.524 . S
C691 C692 1.415 . S
C692 H668 0.950 . S
C692 C687 1.363 . S
C692 C691 1.415 . S
C693 H669 0.951 . S
C693 C694 1.366 . S
C693 C695 1.388 . S
C694 C693 1.366 . S
C694 C698 1.385 . S
C695 H670 0.951 1_556 S
C695 C693 1.388 . S
C695 C696 1.366 1_556 S
C696 C695 1.366 1_554 S
C696 C697 1.414 1_554 S
C696 C699 1.499 . S
C697 H671 0.950 1_556 S
C697 C696 1.414 1_556 S
C697 C698 1.374 . S
C698 H672 0.950 . S
C698 C694 1.385 . S
C698 C697 1.374 . S
C699 C696 1.499 . S
C699 C700 1.373 . S
C699 C701 1.389 . S
C700 H673 0.950 . S
C700 C686 1.377 . S
C700 C699 1.373 . S
C701 C685 1.377 . S
C701 C699 1.389 . S
C701 C702 1.524 . S
C702 C701 1.524 . S
C702 C703 1.397 . S
C702 C707 1.363 . S
C703 H674 0.950 . S
C703 C702 1.397 . S
C703 C704 1.334 . S
C704 H675 0.950 . S
C704 C703 1.334 . S
C704 C705 1.287 . S
C705 C704 1.287 . S
C705 C706 1.524 . S
C705 H708 0.999 . S
C706 H676 0.950 . S
C706 C705 1.524 . S
C706 C707 1.415 . S
C707 H677 0.950 . S
C707 C702 1.363 . S
C707 C706 1.415 . S
H708 C705 0.999 . S
H709 C690 0.913 . S
H710 C728 0.951 1_455 S
H711 C730 0.951 1_455 S
H712 C732 0.950 . S
H713 C733 0.950 . S
H714 C735 0.950 . S
H715 C738 0.950 1_655 S
H716 C739 0.950 . S
H717 C741 0.950 . S
H718 C742 0.950 . S
H719 C743 0.951 . S
H720 C745 0.943 1_554 S
H721 C747 0.950 1_554 S
H722 C748 0.950 . S
H723 C750 0.950 . S
H724 C753 0.950 . S
H725 C754 0.950 . S
H726 C756 0.950 . S
H727 C757 0.950 . S
C728 H710 0.951 1_655 S
C728 C729 1.366 . S
C728 C730 1.388 . S
C729 C728 1.366 . S
C729 C733 1.385 . S
C730 H711 0.951 1_655 S
C730 C728 1.388 . S
C730 C731 1.366 . S
C731 C730 1.366 . S
C731 C732 1.414 . S
C731 C734 1.499 . S
C732 H712 0.950 . S
C732 C731 1.414 . S
C732 C733 1.374 . S
C733 H713 0.950 . S
C733 C729 1.385 . S
C733 C732 1.374 . S
C734 C731 1.499 . S
C734 C735 1.373 . S
C734 C736 1.389 . S
C735 H714 0.950 . S
C735 C734 1.373 . S
C735 C751 1.377 . S
C736 C734 1.389 . S
C736 C737 1.524 1_655 S
C736 C750 1.377 . S
C737 C736 1.524 1_455 S
C737 C738 1.397 . S
C737 C742 1.363 . S
C738 H715 0.950 1_455 S
C738 C737 1.397 . S
C738 C739 1.334 . S
C739 H716 0.950 . S
C739 C738 1.334 . S
C739 C740 1.287 . S
C740 C739 1.287 . S
C740 C741 1.524 . S
C740 H759 0.913 . S
C741 H717 0.950 . S
C741 C740 1.524 . S
C741 C742 1.415 . S
C742 H718 0.950 . S
C742 C737 1.363 . S
C742 C741 1.415 . S
C743 H719 0.951 . S
C743 C744 1.366 . S
C743 C745 1.401 . S
C744 C743 1.366 . S
C744 C748 1.385 . S
C745 H720 0.943 1_556 S
C745 C743 1.401 . S
C745 C746 1.360 1_556 S
C746 C745 1.360 1_554 S
C746 C747 1.414 1_554 S
C746 C749 1.499 . S
C747 H721 0.950 1_556 S
C747 C746 1.414 1_556 S
C747 C748 1.374 . S
C748 H722 0.950 . S
C748 C744 1.385 . S
C748 C747 1.374 . S
C749 C746 1.499 . S
C749 C750 1.373 . S
C749 C751 1.389 . S
C750 H723 0.950 . S
C750 C736 1.377 . S
C750 C749 1.373 . S
C751 C735 1.377 . S
C751 C749 1.389 . S
C751 C752 1.524 . S
C752 C751 1.524 . S
C752 C753 1.397 . S
C752 C757 1.363 . S
C753 H724 0.950 . S
C753 C752 1.397 . S
C753 C754 1.334 . S
C754 H725 0.950 . S
C754 C753 1.334 . S
C754 C755 1.287 . S
C755 C754 1.287 . S
C755 C756 1.524 . S
C755 H758 0.999 . S
C756 H726 0.950 . S
C756 C755 1.524 . S
C756 C757 1.415 . S
C757 H727 0.950 . S
C757 C752 1.363 . S
C757 C756 1.415 . S
H758 C755 0.999 . S
H759 C740 0.913 . S
H760 C778 0.951 . S
H761 C780 0.951 . S
H762 C782 0.950 . S
H763 C783 0.950 . S
H764 C785 0.950 . S
H765 C788 0.950 . S
H766 C789 0.950 . S
H767 C791 0.950 . S
H768 C792 0.950 . S
H769 C793 0.951 . S
H770 C795 0.951 1_554 S
H771 C797 0.950 1_455 S
H772 C798 0.950 . S
H773 C800 0.950 . S
H774 C803 0.950 . S
H775 C804 0.950 . S
H776 C806 0.950 . S
H777 C807 0.950 . S
C778 H760 0.951 . S
C778 C779 1.366 . S
C778 C780 1.388 . S
C779 C778 1.366 . S
C779 C783 1.385 . S
C780 H761 0.951 . S
C780 C778 1.388 . S
C780 C781 1.366 . S
C781 C780 1.366 . S
C781 C782 1.414 . S
C781 C784 1.499 . S
C782 H762 0.950 . S
C782 C781 1.414 . S
C782 C783 1.374 . S
C783 H763 0.950 . S
C783 C779 1.385 . S
C783 C782 1.374 . S
C784 C781 1.499 . S
C784 C785 1.373 . S
C784 C786 1.389 . S
C785 H764 0.950 . S
C785 C784 1.373 . S
C785 C801 1.377 . S
C786 C784 1.389 . S
C786 C787 1.524 . S
C786 C800 1.377 . S
C787 C786 1.524 . S
C787 C788 1.397 . S
C787 C792 1.363 1_655 S
C788 H765 0.950 . S
C788 C787 1.397 . S
C788 C789 1.334 . S
C789 H766 0.950 . S
C789 C788 1.334 . S
C789 C790 1.287 1_655 S
C790 C789 1.287 1_455 S
C790 C791 1.524 . S
C790 H809 0.913 . S
C791 H767 0.950 . S
C791 C790 1.524 . S
C791 C792 1.415 . S
C792 H768 0.950 . S
C792 C787 1.363 1_455 S
C792 C791 1.415 . S
C793 H769 0.951 . S
C793 C794 1.366 . S
C793 C795 1.388 . S
C794 C793 1.366 . S
C794 C798 1.385 1_655 S
C795 H770 0.951 1_556 S
C795 C793 1.388 . S
C795 C796 1.366 1_556 S
C796 C795 1.366 1_554 S
C796 C797 1.414 . S
C796 C799 1.499 . S
C797 H771 0.950 1_655 S
C797 C796 1.414 . S
C797 C798 1.374 1_654 S
C798 H772 0.950 . S
C798 C794 1.385 1_455 S
C798 C797 1.374 1_456 S
C799 C796 1.499 . S
C799 C800 1.373 . S
C799 C801 1.389 . S
C800 H773 0.950 . S
C800 C786 1.377 . S
C800 C799 1.373 . S
C801 C785 1.377 . S
C801 C799 1.389 . S
C801 C802 1.524 . S
C802 C801 1.524 . S
C802 C803 1.397 . S
C802 C807 1.363 . S
C803 H774 0.950 . S
C803 C802 1.397 . S
C803 C804 1.334 . S
C804 H775 0.950 . S
C804 C803 1.334 . S
C804 C805 1.287 . S
C805 C804 1.287 . S
C805 C806 1.524 . S
C805 H808 0.999 . S
C806 H776 0.950 . S
C806 C805 1.524 . S
C806 C807 1.415 . S
C807 H777 0.950 . S
C807 C802 1.363 . S
C807 C806 1.415 . S
H808 C805 0.999 . S
H809 C790 0.913 . S
H810 C828 0.951 . S
H811 C830 0.951 . S
H812 C832 0.950 . S
H813 C833 0.950 . S
H814 C835 0.950 . S
H815 C838 0.950 . S
H816 C839 0.950 . S
H817 C841 0.941 1_556 S
H818 C842 0.950 . S
H819 C843 0.951 . S
H820 C845 0.951 . S
H821 C847 0.950 . S
H822 C848 0.950 . S
H823 C850 0.950 . S
H824 C853 0.950 . S
H825 C854 0.950 . S
H826 C856 0.950 . S
H827 C857 0.950 . S
C828 H810 0.951 . S
C828 C829 1.366 . S
C828 C830 1.388 . S
C829 C828 1.366 . S
C829 C833 1.385 . S
C830 H811 0.951 . S
C830 C828 1.388 . S
C830 C831 1.366 . S
C831 C830 1.366 . S
C831 C832 1.414 . S
C831 C834 1.499 . S
C832 H812 0.950 . S
C832 C831 1.414 . S
C832 C833 1.374 . S
C833 H813 0.950 . S
C833 C829 1.385 . S
C833 C832 1.374 . S
C834 C831 1.499 . S
C834 C835 1.373 . S
C834 C836 1.389 . S
C835 H814 0.950 . S
C835 C834 1.373 . S
C835 C851 1.377 . S
C836 C834 1.389 . S
C836 C837 1.524 . S
C836 C850 1.377 . S
C837 C836 1.524 . S
C837 C838 1.397 . S
C837 C842 1.363 . S
C838 H815 0.950 . S
C838 C837 1.397 . S
C838 C839 1.334 . S
C839 H816 0.950 . S
C839 C838 1.334 . S
C839 C840 1.287 . S
C840 C839 1.287 . S
C840 C841 1.529 . S
C840 H859 0.913 . S
C841 H817 0.941 1_554 S
C841 C840 1.529 . S
C841 C842 1.420 . S
C842 H818 0.950 . S
C842 C837 1.363 . S
C842 C841 1.420 . S
C843 H819 0.951 . S
C843 C844 1.366 . S
C843 C845 1.388 . S
C844 C843 1.366 . S
C844 C848 1.385 . S
C845 H820 0.951 . S
C845 C843 1.388 . S
C845 C846 1.366 . S
C846 C845 1.366 . S
C846 C847 1.414 . S
C846 C849 1.499 . S
C847 H821 0.950 . S
C847 C846 1.414 . S
C847 C848 1.374 . S
C848 H822 0.950 . S
C848 C844 1.385 . S
C848 C847 1.374 . S
C849 C846 1.499 . S
C849 C850 1.373 . S
C849 C851 1.389 . S
C850 H823 0.950 . S
C850 C836 1.377 . S
C850 C849 1.373 . S
C851 C835 1.377 . S
C851 C849 1.389 . S
C851 C852 1.524 . S
C852 C851 1.524 . S
C852 C853 1.397 . S
C852 C857 1.363 . S
C853 H824 0.950 . S
C853 C852 1.397 . S
C853 C854 1.334 . S
C854 H825 0.950 . S
C854 C853 1.334 . S
C854 C855 1.287 . S
C855 C854 1.287 . S
C855 C856 1.524 . S
C855 H858 0.999 . S
C856 H826 0.950 . S
C856 C855 1.524 . S
C856 C857 1.415 . S
C857 H827 0.950 . S
C857 C852 1.363 . S
C857 C856 1.415 . S
H858 C855 0.999 . S
H859 C840 0.913 . S
H860 C878 0.951 . S
H861 C880 0.951 . S
H862 C882 0.950 . S
H863 C883 0.950 . S
H864 C885 0.950 . S
H865 C888 0.950 . S
H866 C889 0.950 . S
H867 C891 0.950 . S
H868 C892 0.950 . S
H869 C893 0.951 . S
H870 C895 0.951 . S
H871 C897 0.950 . S
H872 C898 0.950 . S
H873 C900 0.950 . S
H874 C903 0.950 . S
H875 C904 0.950 . S
H876 C906 0.950 . S
H877 C907 0.950 . S
C878 H860 0.951 . S
C878 C879 1.366 . S
C878 C880 1.388 . S
C879 C878 1.366 . S
C879 C883 1.385 . S
C880 H861 0.951 . S
C880 C878 1.388 . S
C880 C881 1.366 . S
C881 C880 1.366 . S
C881 C882 1.414 . S
C881 C884 1.499 . S
C882 H862 0.950 . S
C882 C881 1.414 . S
C882 C883 1.374 . S
C883 H863 0.950 . S
C883 C879 1.385 . S
C883 C882 1.374 . S
C884 C881 1.499 . S
C884 C885 1.373 . S
C884 C886 1.389 . S
C885 H864 0.950 . S
C885 C884 1.373 . S
C885 C901 1.377 . S
C886 C884 1.389 . S
C886 C887 1.524 . S
C886 C900 1.377 . S
C887 C886 1.524 . S
C887 C888 1.397 . S
C887 C892 1.363 . S
C888 H865 0.950 . S
C888 C887 1.397 . S
C888 C889 1.334 . S
C889 H866 0.950 . S
C889 C888 1.334 . S
C889 C890 1.287 . S
C890 C889 1.287 . S
C890 C891 1.524 . S
C890 H909 0.913 . S
C891 H867 0.950 . S
C891 C890 1.524 . S
C891 C892 1.415 . S
C892 H868 0.950 . S
C892 C887 1.363 . S
C892 C891 1.415 . S
C893 H869 0.951 . S
C893 C894 1.366 . S
C893 C895 1.388 . S
C894 C893 1.366 . S
C894 C898 1.385 . S
C895 H870 0.951 . S
C895 C893 1.388 . S
C895 C896 1.366 . S
C896 C895 1.366 . S
C896 C897 1.414 . S
C896 C899 1.499 . S
C897 H871 0.950 . S
C897 C896 1.414 . S
C897 C898 1.374 . S
C898 H872 0.950 . S
C898 C894 1.385 . S
C898 C897 1.374 . S
C899 C896 1.499 . S
C899 C900 1.373 . S
C899 C901 1.389 . S
C900 H873 0.950 . S
C900 C886 1.377 . S
C900 C899 1.373 . S
C901 C885 1.377 . S
C901 C899 1.389 . S
C901 C902 1.524 . S
C902 C901 1.524 . S
C902 C903 1.397 . S
C902 C907 1.363 . S
C903 H874 0.950 . S
C903 C902 1.397 . S
C903 C904 1.334 . S
C904 H875 0.950 . S
C904 C903 1.334 . S
C904 C905 1.287 . S
C905 C904 1.287 . S
C905 C906 1.524 . S
C905 H908 0.999 . S
C906 H876 0.950 . S
C906 C905 1.524 . S
C906 C907 1.415 . S
C907 H877 0.950 . S
C907 C902 1.363 . S
C907 C906 1.415 . S
H908 C905 0.999 . S
H909 C890 0.913 . S
H910 C928 0.951 . S
H911 C930 0.951 . S
H912 C932 0.950 . S
H913 C933 0.950 . S
H914 C935 0.950 . S
H915 C938 0.950 . S
H916 C939 0.950 . S
H917 C941 0.950 . S
H918 C942 0.950 . S
H919 C943 0.951 . S
H920 C945 0.951 . S
H921 C947 0.950 . S
H922 C948 0.950 . S
H923 C950 0.950 . S
H924 C953 0.950 . S
H925 C954 0.950 . S
H926 C956 0.950 . S
H927 C957 0.950 . S
C928 H910 0.951 . S
C928 C929 1.366 . S
C928 C930 1.388 . S
C929 C928 1.366 . S
C929 C933 1.385 . S
C930 H911 0.951 . S
C930 C928 1.388 . S
C930 C931 1.366 . S
C931 C930 1.366 . S
C931 C932 1.414 . S
C931 C934 1.499 . S
C932 H912 0.950 . S
C932 C931 1.414 . S
C932 C933 1.374 . S
C933 H913 0.950 . S
C933 C929 1.385 . S
C933 C932 1.374 . S
C934 C931 1.499 . S
C934 C935 1.373 . S
C934 C936 1.389 . S
C935 H914 0.950 . S
C935 C934 1.373 . S
C935 C951 1.377 . S
C936 C934 1.389 . S
C936 C937 1.524 . S
C936 C950 1.377 . S
C937 C936 1.524 . S
C937 C938 1.397 . S
C937 C942 1.363 . S
C938 H915 0.950 . S
C938 C937 1.397 . S
C938 C939 1.334 . S
C939 H916 0.950 . S
C939 C938 1.334 . S
C939 C940 1.287 . S
C940 C939 1.287 . S
C940 C941 1.524 . S
C940 H959 0.913 . S
C941 H917 0.950 . S
C941 C940 1.524 . S
C941 C942 1.415 . S
C942 H918 0.950 . S
C942 C937 1.363 . S
C942 C941 1.415 . S
C943 H919 0.951 . S
C943 C944 1.366 . S
C943 C945 1.388 . S
C944 C943 1.366 . S
C944 C948 1.385 . S
C945 H920 0.951 . S
C945 C943 1.388 . S
C945 C946 1.366 . S
C946 C945 1.366 . S
C946 C947 1.414 . S
C946 C949 1.499 . S
C947 H921 0.950 . S
C947 C946 1.414 . S
C947 C948 1.374 . S
C948 H922 0.950 . S
C948 C944 1.385 . S
C948 C947 1.374 . S
C949 C946 1.499 . S
C949 C950 1.373 . S
C949 C951 1.389 . S
C950 H923 0.950 . S
C950 C936 1.377 . S
C950 C949 1.373 . S
C951 C935 1.377 . S
C951 C949 1.389 . S
C951 C952 1.524 . S
C952 C951 1.524 . S
C952 C953 1.397 . S
C952 C957 1.363 . S
C953 H924 0.950 . S
C953 C952 1.397 . S
C953 C954 1.334 . S
C954 H925 0.950 . S
C954 C953 1.334 . S
C954 C955 1.287 . S
C955 C954 1.287 . S
C955 C956 1.524 . S
C955 H958 0.999 . S
C956 H926 0.950 . S
C956 C955 1.524 . S
C956 C957 1.415 . S
C957 H927 0.950 . S
C957 C952 1.363 . S
C957 C956 1.415 . S
H958 C955 0.999 . S
H959 C940 0.913 . S
H960 C978 0.951 . S
H961 C980 0.951 . S
H962 C982 0.950 1_556 S
H963 C983 0.950 . S
H964 C985 0.950 1_554 S
H965 C988 0.950 . S
H966 C989 0.950 . S
H967 C991 0.950 . S
H968 C992 0.950 . S
H969 C993 0.951 . S
H970 C995 0.951 . S
H971 C997 0.950 . S
H972 C998 0.950 . S
H973 C1000 0.950 . S
H974 C1003 0.950 . S
H975 C1004 0.950 . S
H976 C1006 0.950 . S
H977 C1007 0.950 . S
C978 H960 0.951 . S
C978 C979 1.366 . S
C978 C980 1.388 . S
C979 C978 1.366 . S
C979 C983 1.385 . S
C980 H961 0.951 . S
C980 C978 1.388 . S
C980 C981 1.366 1_554 S
C981 C980 1.366 1_556 S
C981 C982 1.414 1_556 S
C981 C984 1.499 . S
C982 H962 0.950 1_554 S
C982 C981 1.414 1_554 S
C982 C983 1.374 . S
C983 H963 0.950 . S
C983 C979 1.385 . S
C983 C982 1.374 . S
C984 C981 1.499 . S
C984 C985 1.373 . S
C984 C986 1.389 . S
C985 H964 0.950 1_556 S
C985 C984 1.373 . S
C985 C1001 1.377 . S
C986 C984 1.389 . S
C986 C987 1.524 . S
C986 C1000 1.377 . S
C987 C986 1.524 . S
C987 C988 1.397 . S
C987 C992 1.363 . S
C988 H965 0.950 . S
C988 C987 1.397 . S
C988 C989 1.334 . S
C989 H966 0.950 . S
C989 C988 1.334 . S
C989 C990 1.287 . S
C990 C989 1.287 . S
C990 C991 1.524 . S
C990 H1009 0.913 . S
C991 H967 0.950 . S
C991 C990 1.524 . S
C991 C992 1.415 . S
C992 H968 0.950 . S
C992 C987 1.363 . S
C992 C991 1.415 . S
C993 H969 0.951 . S
C993 C994 1.366 . S
C993 C995 1.388 . S
C994 C993 1.366 . S
C994 C998 1.385 . S
C995 H970 0.951 . S
C995 C993 1.388 . S
C995 C996 1.366 . S
C996 C995 1.366 . S
C996 C997 1.414 . S
C996 C999 1.499 . S
C997 H971 0.950 . S
C997 C996 1.414 . S
C997 C998 1.374 . S
C998 H972 0.950 . S
C998 C994 1.385 . S
C998 C997 1.374 . S
C999 C996 1.499 . S
C999 C1000 1.373 . S
C999 C1001 1.389 . S
C1000 H973 0.950 . S
C1000 C986 1.377 . S
C1000 C999 1.373 . S
C1001 C985 1.377 . S
C1001 C999 1.389 . S
C1001 C1002 1.524 . S
C1002 C1001 1.524 . S
C1002 C1003 1.397 . S
C1002 C1007 1.363 . S
C1003 H974 0.950 . S
C1003 C1002 1.397 . S
C1003 C1004 1.334 1_556 S
C1004 H975 0.950 . S
C1004 C1003 1.334 1_554 S
C1004 C1005 1.287 . S
C1005 C1004 1.287 . S
C1005 C1006 1.524 . S
C1005 H1008 0.999 . S
C1006 H976 0.950 . S
C1006 C1005 1.524 . S
C1006 C1007 1.415 1_554 S
C1007 H977 0.950 . S
C1007 C1002 1.363 . S
C1007 C1006 1.415 1_556 S
H1008 C1005 0.999 . S
H1009 C990 0.913 . S
H1010 C1028 0.951 . S
H1011 C1030 0.951 . S
H1012 C1032 0.950 . S
H1013 C1033 0.950 . S
H1014 C1035 0.950 . S
H1015 C1038 0.950 . S
H1016 C1039 0.950 . S
H1017 C1041 0.950 . S
H1018 C1042 0.950 . S
H1019 C1043 0.951 . S
H1020 C1045 0.951 . S
H1021 C1047 0.950 . S
H1022 C1048 0.950 1_556 S
H1023 C1050 0.950 . S
H1024 C1053 0.950 . S
H1025 C1054 0.950 . S
H1026 C1056 0.950 . S
H1027 C1057 0.950 . S
C1028 H1010 0.951 . S
C1028 C1029 1.366 . S
C1028 C1030 1.388 . S
C1029 C1028 1.366 . S
C1029 C1033 1.385 . S
C1030 H1011 0.951 . S
C1030 C1028 1.388 . S
C1030 C1031 1.366 . S
C1031 C1030 1.366 . S
C1031 C1032 1.414 . S
C1031 C1034 1.499 . S
C1032 H1012 0.950 . S
C1032 C1031 1.414 . S
C1032 C1033 1.374 . S
C1033 H1013 0.950 . S
C1033 C1029 1.385 . S
C1033 C1032 1.374 . S
C1034 C1031 1.499 . S
C1034 C1035 1.373 . S
C1034 C1036 1.389 . S
C1035 H1014 0.950 . S
C1035 C1034 1.373 . S
C1035 C1051 1.377 . S
C1036 C1034 1.389 . S
C1036 C1037 1.524 . S
C1036 C1050 1.377 . S
C1037 C1036 1.524 . S
C1037 C1038 1.397 . S
C1037 C1042 1.363 . S
C1038 H1015 0.950 . S
C1038 C1037 1.397 . S
C1038 C1039 1.334 . S
C1039 H1016 0.950 . S
C1039 C1038 1.334 . S
C1039 C1040 1.287 . S
C1040 C1039 1.287 . S
C1040 C1041 1.524 . S
C1040 H1059 0.913 . S
C1041 H1017 0.950 . S
C1041 C1040 1.524 . S
C1041 C1042 1.415 . S
C1042 H1018 0.950 . S
C1042 C1037 1.363 . S
C1042 C1041 1.415 . S
C1043 H1019 0.951 . S
C1043 C1044 1.366 . S
C1043 C1045 1.388 . S
C1044 C1043 1.366 . S
C1044 C1048 1.385 . S
C1045 H1020 0.951 . S
C1045 C1043 1.388 . S
C1045 C1046 1.369 . S
C1046 C1045 1.369 . S
C1046 C1047 1.412 1_554 S
C1046 C1049 1.497 1_554 S
C1047 H1021 0.950 . S
C1047 C1046 1.412 1_556 S
C1047 C1048 1.374 1_556 S
C1048 H1022 0.950 1_554 S
C1048 C1044 1.385 . S
C1048 C1047 1.374 1_554 S
C1049 C1046 1.497 1_556 S
C1049 C1050 1.373 . S
C1049 C1051 1.389 . S
C1050 H1023 0.950 . S
C1050 C1036 1.377 . S
C1050 C1049 1.373 . S
C1051 C1035 1.377 . S
C1051 C1049 1.389 . S
C1051 C1052 1.524 1_556 S
C1052 C1051 1.524 1_554 S
C1052 C1053 1.397 . S
C1052 C1057 1.363 . S
C1053 H1024 0.950 . S
C1053 C1052 1.397 . S
C1053 C1054 1.334 . S
C1054 H1025 0.950 . S
C1054 C1053 1.334 . S
C1054 C1055 1.287 . S
C1055 C1054 1.287 . S
C1055 C1056 1.524 . S
C1055 H1058 0.999 . S
C1056 H1026 0.950 . S
C1056 C1055 1.524 . S
C1056 C1057 1.415 . S
C1057 H1027 0.950 . S
C1057 C1052 1.363 . S
C1057 C1056 1.415 . S
H1058 C1055 0.999 . S
H1059 C1040 0.913 . S
H1060 C1078 0.951 . S
H1061 C1080 0.951 . S
H1062 C1082 0.950 . S
H1063 C1083 0.950 . S
H1064 C1085 0.950 . S
H1065 C1088 0.950 . S
H1066 C1089 0.950 . S
H1067 C1091 0.950 . S
H1068 C1092 0.950 . S
H1069 C1093 0.951 . S
H1070 C1095 0.951 . S
H1071 C1097 0.950 . S
H1072 C1098 0.950 . S
H1073 C1100 0.950 . S
H1074 C1103 0.950 . S
H1075 C1104 0.950 . S
H1076 C1106 0.950 . S
H1077 C1107 0.950 . S
C1078 H1060 0.951 . S
C1078 C1079 1.366 . S
C1078 C1080 1.388 . S
C1079 C1078 1.366 . S
C1079 C1083 1.385 . S
C1080 H1061 0.951 . S
C1080 C1078 1.388 . S
C1080 C1081 1.366 . S
C1081 C1080 1.366 . S
C1081 C1082 1.414 . S
C1081 C1084 1.499 . S
C1082 H1062 0.950 . S
C1082 C1081 1.414 . S
C1082 C1083 1.374 . S
C1083 H1063 0.950 . S
C1083 C1079 1.385 . S
C1083 C1082 1.374 . S
C1084 C1081 1.499 . S
C1084 C1085 1.373 . S
C1084 C1086 1.389 . S
C1085 H1064 0.950 . S
C1085 C1084 1.373 . S
C1085 C1101 1.377 . S
C1086 C1084 1.389 . S
C1086 C1087 1.524 . S
C1086 C1100 1.377 . S
C1087 C1086 1.524 . S
C1087 C1088 1.397 . S
C1087 C1092 1.363 . S
C1088 H1065 0.950 . S
C1088 C1087 1.397 . S
C1088 C1089 1.334 . S
C1089 H1066 0.950 . S
C1089 C1088 1.334 . S
C1089 C1090 1.287 . S
C1090 C1089 1.287 . S
C1090 C1091 1.524 . S
C1090 H1109 0.913 . S
C1091 H1067 0.950 . S
C1091 C1090 1.524 . S
C1091 C1092 1.415 . S
C1092 H1068 0.950 . S
C1092 C1087 1.363 . S
C1092 C1091 1.415 . S
C1093 H1069 0.951 . S
C1093 C1094 1.366 . S
C1093 C1095 1.388 . S
C1094 C1093 1.366 . S
C1094 C1098 1.385 . S
C1095 H1070 0.951 . S
C1095 C1093 1.388 . S
C1095 C1096 1.366 1_554 S
C1096 C1095 1.366 1_556 S
C1096 C1097 1.414 . S
C1096 C1099 1.499 . S
C1097 H1071 0.950 . S
C1097 C1096 1.414 . S
C1097 C1098 1.374 1_556 S
C1098 H1072 0.950 . S
C1098 C1094 1.385 . S
C1098 C1097 1.374 1_554 S
C1099 C1096 1.499 . S
C1099 C1100 1.373 . S
C1099 C1101 1.389 . S
C1100 H1073 0.950 . S
C1100 C1086 1.377 . S
C1100 C1099 1.373 . S
C1101 C1085 1.377 . S
C1101 C1099 1.389 . S
C1101 C1102 1.524 . S
C1102 C1101 1.524 . S
C1102 C1103 1.397 . S
C1102 C1107 1.363 . S
C1103 H1074 0.950 . S
C1103 C1102 1.397 . S
C1103 C1104 1.334 . S
C1104 H1075 0.950 . S
C1104 C1103 1.334 . S
C1104 C1105 1.287 . S
C1105 C1104 1.287 . S
C1105 C1106 1.524 . S
C1105 H1108 0.999 . S
C1106 H1076 0.950 . S
C1106 C1105 1.524 . S
C1106 C1107 1.415 . S
C1107 H1077 0.950 . S
C1107 C1102 1.363 . S
C1107 C1106 1.415 . S
H1108 C1105 0.999 . S
H1109 C1090 0.913 . S
H1110 C1128 0.982 . S
H1111 C1130 0.951 1_655 S
H1112 C1132 0.950 1_554 S
H1113 C1133 0.950 . S
H1114 C1135 0.950 . S
H1115 C1138 0.950 . S
H1116 C1139 0.950 . S
H1117 C1141 0.950 . S
H1118 C1142 0.950 . S
H1119 C1143 0.951 . S
H1120 C1145 0.951 . S
H1121 C1147 0.944 1_556 S
H1122 C1148 0.950 . S
H1123 C1150 0.950 . S
H1124 C1153 0.950 . S
H1125 C1154 0.950 . S
H1126 C1156 0.950 1_554 S
H1127 C1157 0.950 . S
C1128 H1110 0.982 . S
C1128 C1129 1.367 1_655 S
C1128 C1130 1.357 1_655 S
C1129 C1128 1.367 1_455 S
C1129 C1133 1.385 . S
C1130 H1111 0.951 1_455 S
C1130 C1128 1.357 1_455 S
C1130 C1131 1.366 . S
C1131 C1130 1.366 . S
C1131 C1132 1.414 . S
C1131 C1134 1.499 . S
C1132 H1112 0.950 1_556 S
C1132 C1131 1.414 . S
C1132 C1133 1.374 . S
C1133 H1113 0.950 . S
C1133 C1129 1.385 . S
C1133 C1132 1.374 . S
C1134 C1131 1.499 . S
C1134 C1135 1.373 . S
C1134 C1136 1.389 . S
C1135 H1114 0.950 . S
C1135 C1134 1.373 . S
C1135 C1151 1.377 . S
C1136 C1134 1.389 . S
C1136 C1137 1.524 1_456 S
C1136 C1150 1.377 1_556 S
C1137 C1136 1.524 1_654 S
C1137 C1138 1.397 . S
C1137 C1142 1.363 1_554 S
C1138 H1115 0.950 . S
C1138 C1137 1.397 . S
C1138 C1139 1.334 . S
C1139 H1116 0.950 . S
C1139 C1138 1.334 . S
C1139 C1140 1.287 . S
C1140 C1139 1.287 . S
C1140 C1141 1.524 1_554 S
C1140 H1159 0.913 . S
C1141 H1117 0.950 . S
C1141 C1140 1.524 1_556 S
C1141 C1142 1.415 . S
C1142 H1118 0.950 . S
C1142 C1137 1.363 1_556 S
C1142 C1141 1.415 . S
C1143 H1119 0.951 . S
C1143 C1144 1.366 . S
C1143 C1145 1.388 . S
C1144 C1143 1.366 . S
C1144 C1148 1.385 . S
C1145 H1120 0.951 . S
C1145 C1143 1.388 . S
C1145 C1146 1.366 . S
C1146 C1145 1.366 . S
C1146 C1147 1.417 . S
C1146 C1149 1.499 . S
C1147 H1121 0.944 1_554 S
C1147 C1146 1.417 . S
C1147 C1148 1.376 . S
C1148 H1122 0.950 . S
C1148 C1144 1.385 . S
C1148 C1147 1.376 . S
C1149 C1146 1.499 . S
C1149 C1150 1.373 . S
C1149 C1151 1.389 1_554 S
C1150 H1123 0.950 . S
C1150 C1136 1.377 1_554 S
C1150 C1149 1.373 . S
C1151 C1135 1.377 . S
C1151 C1149 1.389 1_556 S
C1151 C1152 1.524 . S
C1152 C1151 1.524 . S
C1152 C1153 1.397 . S
C1152 C1157 1.363 1_556 S
C1153 H1124 0.950 . S
C1153 C1152 1.397 . S
C1153 C1154 1.334 . S
C1154 H1125 0.950 . S
C1154 C1153 1.334 . S
C1154 C1155 1.287 . S
C1155 C1154 1.287 . S
C1155 C1156 1.524 . S
C1155 H1158 0.999 . S
C1156 H1126 0.950 1_556 S
C1156 C1155 1.524 . S
C1156 C1157 1.415 1_556 S
C1157 H1127 0.950 . S
C1157 C1152 1.363 1_554 S
C1157 C1156 1.415 1_554 S
H1158 C1155 0.999 . S
H1159 C1140 0.913 . S
H1160 C1178 0.951 1_556 S
H1161 C1180 0.951 . S
H1162 C1182 0.950 . S
H1163 C1183 0.950 . S
H1164 C1185 0.950 . S
H1165 C1188 0.950 . S
H1166 C1189 0.950 . S
H1167 C1191 0.950 . S
H1168 C1192 0.950 . S
H1169 C1193 0.951 . S
H1170 C1195 0.951 1_554 S
H1171 C1197 0.950 . S
H1172 C1198 0.950 . S
H1173 C1200 0.950 . S
H1174 C1203 0.950 . S
H1175 C1204 0.950 . S
H1176 C1206 0.950 1_554 S
H1177 C1207 0.950 . S
C1178 H1160 0.951 1_554 S
C1178 C1179 1.366 . S
C1178 C1180 1.388 1_554 S
C1179 C1178 1.366 . S
C1179 C1183 1.385 . S
C1180 H1161 0.951 . S
C1180 C1178 1.388 1_556 S
C1180 C1181 1.366 1_556 S
C1181 C1180 1.366 1_554 S
C1181 C1182 1.414 . S
C1181 C1184 1.499 . S
C1182 H1162 0.950 . S
C1182 C1181 1.414 . S
C1182 C1183 1.374 . S
C1183 H1163 0.950 . S
C1183 C1179 1.385 . S
C1183 C1182 1.374 . S
C1184 C1181 1.499 . S
C1184 C1185 1.373 . S
C1184 C1186 1.391 . S
C1185 H1164 0.950 . S
C1185 C1184 1.373 . S
C1185 C1201 1.377 1_554 S
C1186 C1184 1.391 . S
C1186 C1187 1.526 . S
C1186 C1200 1.374 1_554 S
C1187 C1186 1.526 . S
C1187 C1188 1.397 . S
C1187 C1192 1.363 1_554 S
C1188 H1165 0.950 . S
C1188 C1187 1.397 . S
C1188 C1189 1.334 . S
C1189 H1166 0.950 . S
C1189 C1188 1.334 . S
C1189 C1190 1.287 . S
C1190 C1189 1.287 . S
C1190 C1191 1.524 1_554 S
C1190 H1209 0.913 . S
C1191 H1167 0.950 . S
C1191 C1190 1.524 1_556 S
C1191 C1192 1.415 . S
C1192 H1168 0.950 . S
C1192 C1187 1.363 1_556 S
C1192 C1191 1.415 . S
C1193 H1169 0.951 . S
C1193 C1194 1.366 . S
C1193 C1195 1.388 . S
C1194 C1193 1.366 . S
C1194 C1198 1.385 . S
C1195 H1170 0.951 1_556 S
C1195 C1193 1.388 . S
C1195 C1196 1.366 . S
C1196 C1195 1.366 . S
C1196 C1197 1.414 . S
C1196 C1199 1.499 . S
C1197 H1171 0.950 . S
C1197 C1196 1.414 . S
C1197 C1198 1.374 . S
C1198 H1172 0.950 . S
C1198 C1194 1.385 . S
C1198 C1197 1.374 . S
C1199 C1196 1.499 . S
C1199 C1200 1.373 . S
C1199 C1201 1.389 . S
C1200 H1173 0.950 . S
C1200 C1186 1.374 1_556 S
C1200 C1199 1.373 . S
C1201 C1185 1.377 1_556 S
C1201 C1199 1.389 . S
C1201 C1202 1.524 . S
C1202 C1201 1.524 . S
C1202 C1203 1.397 . S
C1202 C1207 1.363 1_556 S
C1203 H1174 0.950 . S
C1203 C1202 1.397 . S
C1203 C1204 1.334 . S
C1204 H1175 0.950 . S
C1204 C1203 1.334 . S
C1204 C1205 1.287 . S
C1205 C1204 1.287 . S
C1205 C1206 1.524 . S
C1205 H1208 0.999 . S
C1206 H1176 0.950 1_556 S
C1206 C1205 1.524 . S
C1206 C1207 1.415 1_556 S
C1207 H1177 0.950 . S
C1207 C1202 1.363 1_554 S
C1207 C1206 1.415 1_554 S
H1208 C1205 0.999 . S
H1209 C1190 0.913 . S
H1210 C1228 0.951 . S
H1211 C1230 0.951 . S
H1212 C1232 0.950 1_554 S
H1213 C1233 0.950 1_554 S
H1214 C1235 0.950 . S
H1215 C1238 0.950 . S
H1216 C1239 0.950 . S
H1217 C1241 0.950 . S
H1218 C1242 0.950 . S
H1219 C1243 0.951 . S
H1220 C1245 0.951 . S
H1221 C1247 0.950 . S
H1222 C1248 0.950 1_556 S
H1223 C1250 0.950 . S
H1224 C1253 0.950 . S
H1225 C1254 0.950 . S
H1226 C1256 0.950 . S
H1227 C1257 0.950 . S
C1228 H1210 0.951 . S
C1228 C1229 1.366 . S
C1228 C1230 1.388 . S
C1229 C1228 1.366 . S
C1229 C1233 1.385 . S
C1230 H1211 0.951 . S
C1230 C1228 1.388 . S
C1230 C1231 1.366 . S
C1231 C1230 1.366 . S
C1231 C1232 1.414 . S
C1231 C1234 1.499 . S
C1232 H1212 0.950 1_556 S
C1232 C1231 1.414 . S
C1232 C1233 1.374 . S
C1233 H1213 0.950 1_556 S
C1233 C1229 1.385 . S
C1233 C1232 1.374 . S
C1234 C1231 1.499 . S
C1234 C1235 1.373 1_556 S
C1234 C1236 1.389 . S
C1235 H1214 0.950 . S
C1235 C1234 1.373 1_554 S
C1235 C1251 1.377 . S
C1236 C1234 1.389 . S
C1236 C1237 1.524 . S
C1236 C1250 1.377 . S
C1237 C1236 1.524 . S
C1237 C1238 1.397 . S
C1237 C1242 1.363 . S
C1238 H1215 0.950 . S
C1238 C1237 1.397 . S
C1238 C1239 1.334 . S
C1239 H1216 0.950 . S
C1239 C1238 1.334 . S
C1239 C1240 1.287 . S
C1240 C1239 1.287 . S
C1240 C1241 1.524 . S
C1240 H1259 0.913 . S
C1241 H1217 0.950 . S
C1241 C1240 1.524 . S
C1241 C1242 1.415 . S
C1242 H1218 0.950 . S
C1242 C1237 1.363 . S
C1242 C1241 1.415 . S
C1243 H1219 0.951 . S
C1243 C1244 1.366 . S
C1243 C1245 1.388 . S
C1244 C1243 1.366 . S
C1244 C1248 1.385 . S
C1245 H1220 0.951 . S
C1245 C1243 1.388 . S
C1245 C1246 1.366 . S
C1246 C1245 1.366 . S
C1246 C1247 1.414 1_554 S
C1246 C1249 1.499 . S
C1247 H1221 0.950 . S
C1247 C1246 1.414 1_556 S
C1247 C1248 1.374 1_556 S
C1248 H1222 0.950 1_554 S
C1248 C1244 1.385 . S
C1248 C1247 1.374 1_554 S
C1249 C1246 1.499 . S
C1249 C1250 1.373 1_554 S
C1249 C1251 1.389 . S
C1250 H1223 0.950 . S
C1250 C1236 1.377 . S
C1250 C1249 1.373 1_556 S
C1251 C1235 1.377 . S
C1251 C1249 1.389 . S
C1251 C1252 1.524 . S
C1252 C1251 1.524 . S
C1252 C1253 1.397 . S
C1252 C1257 1.363 . S
C1253 H1224 0.950 . S
C1253 C1252 1.397 . S
C1253 C1254 1.334 . S
C1254 H1225 0.950 . S
C1254 C1253 1.334 . S
C1254 C1255 1.287 . S
C1255 C1254 1.287 . S
C1255 C1256 1.524 . S
C1255 H1258 0.999 . S
C1256 H1226 0.950 . S
C1256 C1255 1.524 . S
C1256 C1257 1.415 . S
C1257 H1227 0.950 . S
C1257 C1252 1.363 . S
C1257 C1256 1.415 . S
H1258 C1255 0.999 . S
H1259 C1240 0.913 . S
H1260 C1278 0.951 . S
H1261 C1280 0.951 . S
H1262 C1282 0.950 . S
H1263 C1283 0.950 . S
H1264 C1285 0.950 . S
H1265 C1288 0.955 . S
H1266 C1289 0.950 . S
H1267 C1291 0.950 . S
H1268 C1292 0.950 . S
H1269 C1293 0.951 . S
H1270 C1295 0.951 . S
H1271 C1297 0.950 . S
H1272 C1298 0.950 . S
H1273 C1300 0.950 1_545 S
H1274 C1303 0.950 . S
H1275 C1304 0.950 . S
H1276 C1306 0.950 . S
H1277 C1307 0.950 . S
C1278 H1260 0.951 . S
C1278 C1279 1.366 1_545 S
C1278 C1280 1.388 . S
C1279 C1278 1.366 1_565 S
C1279 C1283 1.385 . S
C1280 H1261 0.951 . S
C1280 C1278 1.388 . S
C1280 C1281 1.366 1_545 S
C1281 C1280 1.366 1_565 S
C1281 C1282 1.414 . S
C1281 C1284 1.499 . S
C1282 H1262 0.950 . S
C1282 C1281 1.414 . S
C1282 C1283 1.374 . S
C1283 H1263 0.950 . S
C1283 C1279 1.385 . S
C1283 C1282 1.374 . S
C1284 C1281 1.499 . S
C1284 C1285 1.373 . S
C1284 C1286 1.389 . S
C1285 H1264 0.950 . S
C1285 C1284 1.373 . S
C1285 C1301 1.377 . S
C1286 C1284 1.389 . S
C1286 C1287 1.524 1_565 S
C1286 C1300 1.377 . S
C1287 C1286 1.524 1_545 S
C1287 C1288 1.397 . S
C1287 C1292 1.363 . S
C1288 H1265 0.955 . S
C1288 C1287 1.397 . S
C1288 C1289 1.334 1_554 S
C1289 H1266 0.950 . S
C1289 C1288 1.334 1_556 S
C1289 C1290 1.287 1_556 S
C1290 C1289 1.287 1_554 S
C1290 C1291 1.524 . S
C1290 H1309 0.913 1_554 S
C1291 H1267 0.950 . S
C1291 C1290 1.524 . S
C1291 C1292 1.415 . S
C1292 H1268 0.950 . S
C1292 C1287 1.363 . S
C1292 C1291 1.415 . S
C1293 H1269 0.951 . S
C1293 C1294 1.366 . S
C1293 C1295 1.388 . S
C1294 C1293 1.366 . S
C1294 C1298 1.385 . S
C1295 H1270 0.951 . S
C1295 C1293 1.388 . S
C1295 C1296 1.366 . S
C1296 C1295 1.366 . S
C1296 C1297 1.414 . S
C1296 C1299 1.499 . S
C1297 H1271 0.950 . S
C1297 C1296 1.414 . S
C1297 C1298 1.374 . S
C1298 H1272 0.950 . S
C1298 C1294 1.385 . S
C1298 C1297 1.374 . S
C1299 C1296 1.499 . S
C1299 C1300 1.373 . S
C1299 C1301 1.389 . S
C1300 H1273 0.950 1_565 S
C1300 C1286 1.377 . S
C1300 C1299 1.373 . S
C1301 C1285 1.377 . S
C1301 C1299 1.389 . S
C1301 C1302 1.524 . S
C1302 C1301 1.524 . S
C1302 C1303 1.397 . S
C1302 C1307 1.363 . S
C1303 H1274 0.950 . S
C1303 C1302 1.397 . S
C1303 C1304 1.334 . S
C1304 H1275 0.950 . S
C1304 C1303 1.334 . S
C1304 C1305 1.287 . S
C1305 C1304 1.287 . S
C1305 C1306 1.524 . S
C1305 H1308 0.999 . S
C1306 H1276 0.950 . S
C1306 C1305 1.524 . S
C1306 C1307 1.415 . S
C1307 H1277 0.950 . S
C1307 C1302 1.363 . S
C1307 C1306 1.415 . S
H1308 C1305 0.999 . S
H1309 C1290 0.913 1_556 S
H1310 C1328 0.951 . S
H1311 C1330 0.951 . S
H1312 C1332 0.950 . S
H1313 C1333 0.950 . S
H1314 C1335 0.950 . S
H1315 C1338 0.950 . S
H1316 C1339 0.950 . S
H1317 C1341 0.950 . S
H1318 C1342 0.950 . S
H1319 C1343 0.951 . S
H1320 C1345 0.951 . S
H1321 C1347 0.950 . S
H1322 C1348 0.950 . S
H1323 C1350 0.950 . S
H1324 C1353 0.950 . S
H1325 C1354 0.950 . S
H1326 C1356 0.950 . S
H1327 C1357 0.950 . S
C1328 H1310 0.951 . S
C1328 C1329 1.366 . S
C1328 C1330 1.388 . S
C1329 C1328 1.366 . S
C1329 C1333 1.385 . S
C1330 H1311 0.951 . S
C1330 C1328 1.388 . S
C1330 C1331 1.366 . S
C1331 C1330 1.366 . S
C1331 C1332 1.414 . S
C1331 C1334 1.499 . S
C1332 H1312 0.950 . S
C1332 C1331 1.414 . S
C1332 C1333 1.374 . S
C1333 H1313 0.950 . S
C1333 C1329 1.385 . S
C1333 C1332 1.374 . S
C1334 C1331 1.499 . S
C1334 C1335 1.373 . S
C1334 C1336 1.389 . S
C1335 H1314 0.950 . S
C1335 C1334 1.373 . S
C1335 C1351 1.377 . S
C1336 C1334 1.389 . S
C1336 C1337 1.524 . S
C1336 C1350 1.377 . S
C1337 C1336 1.524 . S
C1337 C1338 1.397 . S
C1337 C1342 1.363 . S
C1338 H1315 0.950 . S
C1338 C1337 1.397 . S
C1338 C1339 1.334 . S
C1339 H1316 0.950 . S
C1339 C1338 1.334 . S
C1339 C1340 1.287 . S
C1340 C1339 1.287 . S
C1340 C1341 1.524 . S
C1340 H1359 0.913 . S
C1341 H1317 0.950 . S
C1341 C1340 1.524 . S
C1341 C1342 1.415 . S
C1342 H1318 0.950 . S
C1342 C1337 1.363 . S
C1342 C1341 1.415 . S
C1343 H1319 0.951 . S
C1343 C1344 1.366 . S
C1343 C1345 1.388 . S
C1344 C1343 1.366 . S
C1344 C1348 1.385 . S
C1345 H1320 0.951 . S
C1345 C1343 1.388 . S
C1345 C1346 1.366 . S
C1346 C1345 1.366 . S
C1346 C1347 1.414 . S
C1346 C1349 1.499 . S
C1347 H1321 0.950 . S
C1347 C1346 1.414 . S
C1347 C1348 1.374 . S
C1348 H1322 0.950 . S
C1348 C1344 1.385 . S
C1348 C1347 1.374 . S
C1349 C1346 1.499 . S
C1349 C1350 1.373 . S
C1349 C1351 1.389 . S
C1350 H1323 0.950 . S
C1350 C1336 1.377 . S
C1350 C1349 1.373 . S
C1351 C1335 1.377 . S
C1351 C1349 1.389 . S
C1351 C1352 1.524 . S
C1352 C1351 1.524 . S
C1352 C1353 1.397 . S
C1352 C1357 1.363 1_554 S
C1353 H1324 0.950 . S
C1353 C1352 1.397 . S
C1353 C1354 1.334 . S
C1354 H1325 0.950 . S
C1354 C1353 1.334 . S
C1354 C1355 1.287 1_554 S
C1355 C1354 1.287 1_556 S
C1355 C1356 1.524 . S
C1355 H1358 0.999 . S
C1356 H1326 0.950 . S
C1356 C1355 1.524 . S
C1356 C1357 1.415 . S
C1357 H1327 0.950 . S
C1357 C1352 1.363 1_556 S
C1357 C1356 1.415 . S
H1358 C1355 0.999 . S
H1359 C1340 0.913 . S
H1360 C1378 0.951 . S
H1361 C1380 0.951 . S
H1362 C1382 0.950 . S
H1363 C1383 0.950 . S
H1364 C1385 0.950 . S
H1365 C1388 0.950 . S
H1366 C1389 0.950 . S
H1367 C1391 0.950 . S
H1368 C1392 0.950 . S
H1369 C1393 0.951 . S
H1370 C1395 0.951 . S
H1371 C1397 0.950 . S
H1372 C1398 0.950 . S
H1373 C1400 0.950 . S
H1374 C1403 0.950 . S
H1375 C1404 0.950 . S
H1376 C1406 0.950 . S
H1377 C1407 0.950 . S
C1378 H1360 0.951 . S
C1378 C1379 1.366 . S
C1378 C1380 1.388 . S
C1379 C1378 1.366 . S
C1379 C1383 1.385 . S
C1380 H1361 0.951 . S
C1380 C1378 1.388 . S
C1380 C1381 1.366 . S
C1381 C1380 1.366 . S
C1381 C1382 1.414 . S
C1381 C1384 1.499 . S
C1382 H1362 0.950 . S
C1382 C1381 1.414 . S
C1382 C1383 1.374 . S
C1383 H1363 0.950 . S
C1383 C1379 1.385 . S
C1383 C1382 1.374 . S
C1384 C1381 1.499 . S
C1384 C1385 1.373 . S
C1384 C1386 1.389 . S
C1385 H1364 0.950 . S
C1385 C1384 1.373 . S
C1385 C1401 1.377 . S
C1386 C1384 1.389 . S
C1386 C1387 1.524 . S
C1386 C1400 1.377 . S
C1387 C1386 1.524 . S
C1387 C1388 1.397 . S
C1387 C1392 1.363 . S
C1388 H1365 0.950 . S
C1388 C1387 1.397 . S
C1388 C1389 1.334 . S
C1389 H1366 0.950 . S
C1389 C1388 1.334 . S
C1389 C1390 1.287 . S
C1390 C1389 1.287 . S
C1390 C1391 1.524 1_554 S
C1390 H1409 0.913 . S
C1391 H1367 0.950 . S
C1391 C1390 1.524 1_556 S
C1391 C1392 1.415 1_556 S
C1392 H1368 0.950 . S
C1392 C1387 1.363 . S
C1392 C1391 1.415 1_554 S
C1393 H1369 0.951 . S
C1393 C1394 1.366 . S
C1393 C1395 1.388 . S
C1394 C1393 1.366 . S
C1394 C1398 1.385 . S
C1395 H1370 0.951 . S
C1395 C1393 1.388 . S
C1395 C1396 1.366 . S
C1396 C1395 1.366 . S
C1396 C1397 1.414 . S
C1396 C1399 1.499 . S
C1397 H1371 0.950 . S
C1397 C1396 1.414 . S
C1397 C1398 1.374 . S
C1398 H1372 0.950 . S
C1398 C1394 1.385 . S
C1398 C1397 1.374 . S
C1399 C1396 1.499 . S
C1399 C1400 1.373 . S
C1399 C1401 1.389 . S
C1400 H1373 0.950 . S
C1400 C1386 1.377 . S
C1400 C1399 1.373 . S
C1401 C1385 1.377 . S
C1401 C1399 1.389 . S
C1401 C1402 1.524 . S
C1402 C1401 1.524 . S
C1402 C1403 1.397 . S
C1402 C1407 1.363 . S
C1403 H1374 0.950 . S
C1403 C1402 1.397 . S
C1403 C1404 1.334 . S
C1404 H1375 0.950 . S
C1404 C1403 1.334 . S
C1404 C1405 1.287 . S
C1405 C1404 1.287 . S
C1405 C1406 1.524 . S
C1405 H1408 0.999 . S
C1406 H1376 0.950 . S
C1406 C1405 1.524 . S
C1406 C1407 1.415 . S
C1407 H1377 0.950 . S
C1407 C1402 1.363 . S
C1407 C1406 1.415 . S
H1408 C1405 0.999 . S
H1409 C1390 0.913 . S
H1410 C1428 0.951 . S
H1411 C1430 0.951 . S
H1412 C1432 0.950 . S
H1413 C1433 0.950 . S
H1414 C1435 0.950 . S
H1415 C1438 0.950 . S
H1416 C1439 0.950 . S
H1417 C1441 0.950 . S
H1418 C1442 0.950 . S
H1419 C1443 0.951 . S
H1420 C1445 0.951 . S
H1421 C1447 0.950 . S
H1422 C1448 0.950 . S
H1423 C1450 0.950 . S
H1424 C1453 0.950 . S
H1425 C1454 0.950 . S
H1426 C1456 0.950 . S
H1427 C1457 0.950 . S
C1428 H1410 0.951 . S
C1428 C1429 1.366 . S
C1428 C1430 1.388 . S
C1429 C1428 1.366 . S
C1429 C1433 1.385 . S
C1430 H1411 0.951 . S
C1430 C1428 1.388 . S
C1430 C1431 1.366 . S
C1431 C1430 1.366 . S
C1431 C1432 1.414 . S
C1431 C1434 1.499 . S
C1432 H1412 0.950 . S
C1432 C1431 1.414 . S
C1432 C1433 1.374 . S
C1433 H1413 0.950 . S
C1433 C1429 1.385 . S
C1433 C1432 1.374 . S
C1434 C1431 1.499 . S
C1434 C1435 1.373 . S
C1434 C1436 1.389 . S
C1435 H1414 0.950 . S
C1435 C1434 1.373 . S
C1435 C1451 1.377 . S
C1436 C1434 1.389 . S
C1436 C1437 1.524 . S
C1436 C1450 1.377 . S
C1437 C1436 1.524 . S
C1437 C1438 1.397 . S
C1437 C1442 1.363 . S
C1438 H1415 0.950 . S
C1438 C1437 1.397 . S
C1438 C1439 1.334 . S
C1439 H1416 0.950 . S
C1439 C1438 1.334 . S
C1439 C1440 1.287 . S
C1440 C1439 1.287 . S
C1440 C1441 1.524 . S
C1440 H1459 0.913 . S
C1441 H1417 0.950 . S
C1441 C1440 1.524 . S
C1441 C1442 1.415 . S
C1442 H1418 0.950 . S
C1442 C1437 1.363 . S
C1442 C1441 1.415 . S
C1443 H1419 0.951 . S
C1443 C1444 1.366 . S
C1443 C1445 1.388 . S
C1444 C1443 1.366 . S
C1444 C1448 1.385 . S
C1445 H1420 0.951 . S
C1445 C1443 1.388 . S
C1445 C1446 1.366 . S
C1446 C1445 1.366 . S
C1446 C1447 1.414 . S
C1446 C1449 1.499 . S
C1447 H1421 0.950 . S
C1447 C1446 1.414 . S
C1447 C1448 1.374 . S
C1448 H1422 0.950 . S
C1448 C1444 1.385 . S
C1448 C1447 1.374 . S
C1449 C1446 1.499 . S
C1449 C1450 1.373 . S
C1449 C1451 1.389 . S
C1450 H1423 0.950 . S
C1450 C1436 1.377 . S
C1450 C1449 1.373 . S
C1451 C1435 1.377 . S
C1451 C1449 1.389 . S
C1451 C1452 1.524 . S
C1452 C1451 1.524 . S
C1452 C1453 1.397 . S
C1452 C1457 1.363 . S
C1453 H1424 0.950 . S
C1453 C1452 1.397 . S
C1453 C1454 1.334 . S
C1454 H1425 0.950 . S
C1454 C1453 1.334 . S
C1454 C1455 1.287 . S
C1455 C1454 1.287 . S
C1455 C1456 1.524 . S
C1455 H1458 0.999 . S
C1456 H1426 0.950 . S
C1456 C1455 1.524 . S
C1456 C1457 1.415 . S
C1457 H1427 0.950 . S
C1457 C1452 1.363 . S
C1457 C1456 1.415 . S
H1458 C1455 0.999 . S
H1459 C1440 0.913 . S
H1460 C1478 0.951 . S
H1461 C1480 0.951 . S
H1462 C1482 0.950 . S
H1463 C1483 0.950 . S
H1464 C1485 0.950 . S
H1465 C1488 0.950 . S
H1466 C1489 0.950 . S
H1467 C1491 0.950 . S
H1468 C1492 0.950 . S
H1469 C1493 0.951 . S
H1470 C1495 0.951 . S
H1471 C1497 0.950 . S
H1472 C1498 0.950 . S
H1473 C1500 0.950 . S
H1474 C1503 0.950 . S
H1475 C1504 0.950 . S
H1476 C1506 0.950 . S
H1477 C1507 0.950 . S
C1478 H1460 0.951 . S
C1478 C1479 1.366 . S
C1478 C1480 1.388 . S
C1479 C1478 1.366 . S
C1479 C1483 1.385 . S
C1480 H1461 0.951 . S
C1480 C1478 1.388 . S
C1480 C1481 1.366 . S
C1481 C1480 1.366 . S
C1481 C1482 1.414 . S
C1481 C1484 1.499 1_545 S
C1482 H1462 0.950 . S
C1482 C1481 1.414 . S
C1482 C1483 1.374 . S
C1483 H1463 0.950 . S
C1483 C1479 1.385 . S
C1483 C1482 1.374 . S
C1484 C1481 1.499 1_565 S
C1484 C1485 1.373 . S
C1484 C1486 1.389 . S
C1485 H1464 0.950 . S
C1485 C1484 1.373 . S
C1485 C1501 1.377 . S
C1486 C1484 1.389 . S
C1486 C1487 1.524 . S
C1486 C1500 1.377 . S
C1487 C1486 1.524 . S
C1487 C1488 1.397 1_565 S
C1487 C1492 1.363 . S
C1488 H1465 0.950 . S
C1488 C1487 1.397 1_545 S
C1488 C1489 1.334 . S
C1489 H1466 0.950 . S
C1489 C1488 1.334 . S
C1489 C1490 1.287 . S
C1490 C1489 1.287 . S
C1490 C1491 1.524 . S
C1490 H1509 0.913 . S
C1491 H1467 0.950 . S
C1491 C1490 1.524 . S
C1491 C1492 1.415 1_545 S
C1492 H1468 0.950 . S
C1492 C1487 1.363 . S
C1492 C1491 1.415 1_565 S
C1493 H1469 0.951 . S
C1493 C1494 1.366 . S
C1493 C1495 1.388 . S
C1494 C1493 1.366 . S
C1494 C1498 1.385 . S
C1495 H1470 0.951 . S
C1495 C1493 1.388 . S
C1495 C1496 1.366 . S
C1496 C1495 1.366 . S
C1496 C1497 1.414 . S
C1496 C1499 1.499 . S
C1497 H1471 0.950 . S
C1497 C1496 1.414 . S
C1497 C1498 1.374 . S
C1498 H1472 0.950 . S
C1498 C1494 1.385 . S
C1498 C1497 1.374 . S
C1499 C1496 1.499 . S
C1499 C1500 1.373 . S
C1499 C1501 1.389 . S
C1500 H1473 0.950 . S
C1500 C1486 1.377 . S
C1500 C1499 1.373 . S
C1501 C1485 1.377 . S
C1501 C1499 1.389 . S
C1501 C1502 1.524 . S
C1502 C1501 1.524 . S
C1502 C1503 1.397 . S
C1502 C1507 1.363 . S
C1503 H1474 0.950 . S
C1503 C1502 1.397 . S
C1503 C1504 1.334 . S
C1504 H1475 0.950 . S
C1504 C1503 1.334 . S
C1504 C1505 1.287 . S
C1505 C1504 1.287 . S
C1505 C1506 1.524 . S
C1505 H1508 0.999 . S
C1506 H1476 0.950 . S
C1506 C1505 1.524 . S
C1506 C1507 1.415 . S
C1507 H1477 0.950 . S
C1507 C1502 1.363 . S
C1507 C1506 1.415 . S
H1508 C1505 0.999 . S
H1509 C1490 0.913 . S
H1510 C1528 0.951 . S
H1511 C1530 0.951 . S
H1512 C1532 0.950 . S
H1513 C1533 0.950 . S
H1514 C1535 0.950 . S
H1515 C1538 0.950 . S
H1516 C1539 0.950 . S
H1517 C1541 0.950 . S
H1518 C1542 0.950 . S
H1519 C1543 0.951 . S
H1520 C1545 0.951 . S
H1521 C1547 0.950 . S
H1522 C1548 0.950 . S
H1523 C1550 0.950 . S
H1524 C1553 0.950 . S
H1525 C1554 0.950 . S
H1526 C1556 0.950 . S
H1527 C1557 0.950 . S
C1528 H1510 0.951 . S
C1528 C1529 1.366 . S
C1528 C1530 1.388 . S
C1529 C1528 1.366 . S
C1529 C1533 1.385 . S
C1530 H1511 0.951 . S
C1530 C1528 1.388 . S
C1530 C1531 1.366 . S
C1531 C1530 1.366 . S
C1531 C1532 1.414 . S
C1531 C1534 1.499 . S
C1532 H1512 0.950 . S
C1532 C1531 1.414 . S
C1532 C1533 1.374 . S
C1533 H1513 0.950 . S
C1533 C1529 1.385 . S
C1533 C1532 1.374 . S
C1534 C1531 1.499 . S
C1534 C1535 1.373 . S
C1534 C1536 1.389 . S
C1535 H1514 0.950 . S
C1535 C1534 1.373 . S
C1535 C1551 1.377 . S
C1536 C1534 1.389 . S
C1536 C1537 1.524 . S
C1536 C1550 1.377 . S
C1537 C1536 1.524 . S
C1537 C1538 1.397 . S
C1537 C1542 1.363 . S
C1538 H1515 0.950 . S
C1538 C1537 1.397 . S
C1538 C1539 1.334 . S
C1539 H1516 0.950 . S
C1539 C1538 1.334 . S
C1539 C1540 1.287 . S
C1540 C1539 1.287 . S
C1540 C1541 1.524 . S
C1540 H1559 0.913 . S
C1541 H1517 0.950 . S
C1541 C1540 1.524 . S
C1541 C1542 1.415 . S
C1542 H1518 0.950 . S
C1542 C1537 1.363 . S
C1542 C1541 1.415 . S
C1543 H1519 0.951 . S
C1543 C1544 1.366 . S
C1543 C1545 1.388 . S
C1544 C1543 1.366 . S
C1544 C1548 1.385 . S
C1545 H1520 0.951 . S
C1545 C1543 1.388 . S
C1545 C1546 1.366 . S
C1546 C1545 1.366 . S
C1546 C1547 1.414 . S
C1546 C1549 1.499 . S
C1547 H1521 0.950 . S
C1547 C1546 1.414 . S
C1547 C1548 1.374 . S
C1548 H1522 0.950 . S
C1548 C1544 1.385 . S
C1548 C1547 1.374 . S
C1549 C1546 1.499 . S
C1549 C1550 1.373 . S
C1549 C1551 1.389 . S
C1550 H1523 0.950 . S
C1550 C1536 1.377 . S
C1550 C1549 1.373 . S
C1551 C1535 1.377 . S
C1551 C1549 1.389 . S
C1551 C1552 1.524 . S
C1552 C1551 1.524 . S
C1552 C1553 1.397 . S
C1552 C1557 1.363 . S
C1553 H1524 0.950 . S
C1553 C1552 1.397 . S
C1553 C1554 1.334 . S
C1554 H1525 0.950 . S
C1554 C1553 1.334 . S
C1554 C1555 1.287 . S
C1555 C1554 1.287 . S
C1555 C1556 1.524 . S
C1555 H1558 0.999 . S
C1556 H1526 0.950 . S
C1556 C1555 1.524 . S
C1556 C1557 1.415 . S
C1557 H1527 0.950 . S
C1557 C1552 1.363 . S
C1557 C1556 1.415 . S
H1558 C1555 0.999 . S
H1559 C1540 0.913 . S
H1560 C1578 0.951 . S
H1561 C1580 0.951 . S
H1562 C1582 0.950 . S
H1563 C1583 0.950 . S
H1564 C1585 0.950 . S
H1565 C1588 0.950 . S
H1566 C1589 0.950 . S
H1567 C1591 0.950 . S
H1568 C1592 0.950 . S
H1569 C1593 0.951 . S
H1570 C1595 0.951 . S
H1571 C1597 0.950 . S
H1572 C1598 0.950 . S
H1573 C1600 0.950 . S
H1574 C1603 0.950 . S
H1575 C1604 0.950 . S
H1576 C1606 0.950 . S
H1577 C1607 0.950 . S
C1578 H1560 0.951 . S
C1578 C1579 1.366 . S
C1578 C1580 1.388 . S
C1579 C1578 1.366 . S
C1579 C1583 1.385 . S
C1580 H1561 0.951 . S
C1580 C1578 1.388 . S
C1580 C1581 1.366 . S
C1581 C1580 1.366 . S
C1581 C1582 1.414 . S
C1581 C1584 1.499 . S
C1582 H1562 0.950 . S
C1582 C1581 1.414 . S
C1582 C1583 1.374 . S
C1583 H1563 0.950 . S
C1583 C1579 1.385 . S
C1583 C1582 1.374 . S
C1584 C1581 1.499 . S
C1584 C1585 1.373 . S
C1584 C1586 1.389 . S
C1585 H1564 0.950 . S
C1585 C1584 1.373 . S
C1585 C1601 1.377 . S
C1586 C1584 1.389 . S
C1586 C1587 1.524 . S
C1586 C1600 1.377 . S
C1587 C1586 1.524 . S
C1587 C1588 1.397 . S
C1587 C1592 1.363 . S
C1588 H1565 0.950 . S
C1588 C1587 1.397 . S
C1588 C1589 1.334 . S
C1589 H1566 0.950 . S
C1589 C1588 1.334 . S
C1589 C1590 1.287 . S
C1590 C1589 1.287 . S
C1590 C1591 1.524 . S
C1590 H1609 0.913 . S
C1591 H1567 0.950 . S
C1591 C1590 1.524 . S
C1591 C1592 1.415 . S
C1592 H1568 0.950 . S
C1592 C1587 1.363 . S
C1592 C1591 1.415 . S
C1593 H1569 0.951 . S
C1593 C1594 1.366 . S
C1593 C1595 1.388 . S
C1594 C1593 1.366 . S
C1594 C1598 1.385 . S
C1595 H1570 0.951 . S
C1595 C1593 1.388 . S
C1595 C1596 1.366 . S
C1596 C1595 1.366 . S
C1596 C1597 1.414 . S
C1596 C1599 1.499 . S
C1597 H1571 0.950 . S
C1597 C1596 1.414 . S
C1597 C1598 1.374 . S
C1598 H1572 0.950 . S
C1598 C1594 1.385 . S
C1598 C1597 1.374 . S
C1599 C1596 1.499 . S
C1599 C1600 1.373 . S
C1599 C1601 1.389 . S
C1600 H1573 0.950 . S
C1600 C1586 1.377 . S
C1600 C1599 1.373 . S
C1601 C1585 1.377 . S
C1601 C1599 1.389 . S
C1601 C1602 1.524 . S
C1602 C1601 1.524 . S
C1602 C1603 1.397 . S
C1602 C1607 1.363 . S
C1603 H1574 0.950 . S
C1603 C1602 1.397 . S
C1603 C1604 1.334 . S
C1604 H1575 0.950 . S
C1604 C1603 1.334 . S
C1604 C1605 1.287 . S
C1605 C1604 1.287 . S
C1605 C1606 1.524 . S
C1605 H1608 0.999 . S
C1606 H1576 0.950 . S
C1606 C1605 1.524 . S
C1606 C1607 1.415 . S
C1607 H1577 0.950 . S
C1607 C1602 1.363 . S
C1607 C1606 1.415 . S
H1608 C1605 0.999 . S
H1609 C1590 0.913 . S
H1610 C1628 0.951 . S
H1611 C1630 0.951 . S
H1612 C1632 0.950 1_545 S
H1613 C1633 0.950 . S
H1614 C1635 0.950 . S
H1615 C1638 0.950 . S
H1616 C1639 0.950 . S
H1617 C1641 0.950 . S
H1618 C1642 0.951 . S
H1619 C1643 0.951 . S
H1620 C1645 0.951 . S
H1621 C1647 0.950 . S
H1622 C1648 0.950 . S
H1623 C1650 0.950 . S
H1624 C1653 0.950 . S
H1625 C1654 0.950 . S
H1626 C1656 0.950 . S
H1627 C1657 0.950 . S
C1628 H1610 0.951 . S
C1628 C1629 1.366 . S
C1628 C1630 1.388 . S
C1629 C1628 1.366 . S
C1629 C1633 1.385 . S
C1630 H1611 0.951 . S
C1630 C1628 1.388 . S
C1630 C1631 1.366 . S
C1631 C1630 1.366 . S
C1631 C1632 1.414 . S
C1631 C1634 1.499 1_565 S
C1632 H1612 0.950 1_565 S
C1632 C1631 1.414 . S
C1632 C1633 1.374 . S
C1633 H1613 0.950 . S
C1633 C1629 1.385 . S
C1633 C1632 1.374 . S
C1634 C1631 1.499 1_545 S
C1634 C1635 1.373 . S
C1634 C1636 1.389 . S
C1635 H1614 0.950 . S
C1635 C1634 1.373 . S
C1635 C1651 1.377 . S
C1636 C1634 1.389 . S
C1636 C1637 1.524 1_545 S
C1636 C1650 1.377 . S
C1637 C1636 1.524 1_565 S
C1637 C1638 1.397 . S
C1637 C1642 1.363 . S
C1638 H1615 0.950 . S
C1638 C1637 1.397 . S
C1638 C1639 1.334 . S
C1639 H1616 0.950 . S
C1639 C1638 1.334 . S
C1639 C1640 1.287 . S
C1640 C1639 1.287 . S
C1640 C1641 1.524 . S
C1640 H1659 0.913 . S
C1641 H1617 0.950 . S
C1641 C1640 1.524 . S
C1641 C1642 1.415 . S
C1642 H1618 0.951 . S
C1642 C1637 1.363 . S
C1642 C1641 1.415 . S
C1643 H1619 0.951 . S
C1643 C1644 1.366 . S
C1643 C1645 1.388 . S
C1644 C1643 1.366 . S
C1644 C1648 1.385 . S
C1645 H1620 0.951 . S
C1645 C1643 1.388 . S
C1645 C1646 1.366 . S
C1646 C1645 1.366 . S
C1646 C1647 1.414 . S
C1646 C1649 1.499 . S
C1647 H1621 0.950 . S
C1647 C1646 1.414 . S
C1647 C1648 1.374 . S
C1648 H1622 0.950 . S
C1648 C1644 1.385 . S
C1648 C1647 1.374 . S
C1649 C1646 1.499 . S
C1649 C1650 1.373 . S
C1649 C1651 1.389 . S
C1650 H1623 0.950 . S
C1650 C1636 1.377 . S
C1650 C1649 1.373 . S
C1651 C1635 1.377 . S
C1651 C1649 1.389 . S
C1651 C1652 1.524 . S
C1652 C1651 1.524 . S
C1652 C1653 1.397 . S
C1652 C1657 1.363 . S
C1653 H1624 0.950 . S
C1653 C1652 1.397 . S
C1653 C1654 1.334 . S
C1654 H1625 0.950 . S
C1654 C1653 1.334 . S
C1654 C1655 1.287 . S
C1655 C1654 1.287 . S
C1655 C1656 1.524 . S
C1655 H1658 0.999 . S
C1656 H1626 0.950 . S
C1656 C1655 1.524 . S
C1656 C1657 1.415 . S
C1657 H1627 0.950 . S
C1657 C1652 1.363 . S
C1657 C1656 1.415 . S
H1658 C1655 0.999 . S
H1659 C1640 0.913 . S
H1660 C1678 0.951 . S
H1661 C1680 0.951 . S
H1662 C1682 0.950 . S
H1663 C1683 0.950 . S
H1664 C1685 0.950 . S
H1665 C1688 0.950 . S
H1666 C1689 0.950 . S
H1667 C1691 0.950 . S
H1668 C1692 0.950 . S
H1669 C1693 0.951 . S
H1670 C1695 0.951 . S
H1671 C1697 0.950 . S
H1672 C1698 0.950 . S
H1673 C1700 0.950 . S
H1674 C1703 0.950 . S
H1675 C1704 0.950 . S
H1676 C1706 0.950 . S
H1677 C1707 0.950 . S
C1678 H1660 0.951 . S
C1678 C1679 1.366 . S
C1678 C1680 1.388 . S
C1679 C1678 1.366 . S
C1679 C1683 1.385 . S
C1680 H1661 0.951 . S
C1680 C1678 1.388 . S
C1680 C1681 1.366 . S
C1681 C1680 1.366 . S
C1681 C1682 1.414 . S
C1681 C1684 1.499 . S
C1682 H1662 0.950 . S
C1682 C1681 1.414 . S
C1682 C1683 1.374 . S
C1683 H1663 0.950 . S
C1683 C1679 1.385 . S
C1683 C1682 1.374 . S
C1684 C1681 1.499 . S
C1684 C1685 1.373 . S
C1684 C1686 1.389 . S
C1685 H1664 0.950 . S
C1685 C1684 1.373 . S
C1685 C1701 1.377 . S
C1686 C1684 1.389 . S
C1686 C1687 1.524 . S
C1686 C1700 1.377 . S
C1687 C1686 1.524 . S
C1687 C1688 1.397 . S
C1687 C1692 1.363 . S
C1688 H1665 0.950 . S
C1688 C1687 1.397 . S
C1688 C1689 1.334 . S
C1689 H1666 0.950 . S
C1689 C1688 1.334 . S
C1689 C1690 1.287 . S
C1690 C1689 1.287 . S
C1690 C1691 1.524 . S
C1690 H1709 0.913 . S
C1691 H1667 0.950 . S
C1691 C1690 1.524 . S
C1691 C1692 1.415 . S
C1692 H1668 0.950 . S
C1692 C1687 1.363 . S
C1692 C1691 1.415 . S
C1693 H1669 0.951 . S
C1693 C1694 1.366 . S
C1693 C1695 1.388 . S
C1694 C1693 1.366 . S
C1694 C1698 1.385 . S
C1695 H1670 0.951 . S
C1695 C1693 1.388 . S
C1695 C1696 1.366 . S
C1696 C1695 1.366 . S
C1696 C1697 1.414 . S
C1696 C1699 1.499 . S
C1697 H1671 0.950 . S
C1697 C1696 1.414 . S
C1697 C1698 1.374 . S
C1698 H1672 0.950 . S
C1698 C1694 1.385 . S
C1698 C1697 1.374 . S
C1699 C1696 1.499 . S
C1699 C1700 1.373 . S
C1699 C1701 1.389 . S
C1700 H1673 0.950 . S
C1700 C1686 1.377 . S
C1700 C1699 1.373 . S
C1701 C1685 1.377 . S
C1701 C1699 1.389 . S
C1701 C1702 1.524 . S
C1702 C1701 1.524 . S
C1702 C1703 1.397 . S
C1702 C1707 1.363 . S
C1703 H1674 0.950 . S
C1703 C1702 1.397 . S
C1703 C1704 1.334 . S
C1704 H1675 0.950 . S
C1704 C1703 1.334 . S
C1704 C1705 1.287 . S
C1705 C1704 1.287 . S
C1705 C1706 1.524 . S
C1705 H1708 0.999 . S
C1706 H1676 0.950 . S
C1706 C1705 1.524 . S
C1706 C1707 1.415 . S
C1707 H1677 0.950 . S
C1707 C1702 1.363 . S
C1707 C1706 1.415 . S
H1708 C1705 0.999 . S
H1709 C1690 0.913 . S
C379 C9 1.191 . S
C394 C18 1.191 . S
C429 C49 1.191 . S
C444 C58 1.191 . S
C479 C89 1.190 . S
C494 C98 1.190 . S
C529 C138 1.190 . S
C544 C129 1.190 . S
C579 C178 1.190 . S
C594 C169 1.190 . S
C629 C218 1.190 . S
C644 C209 1.190 . S
C679 C259 1.096 . S
C694 C250 1.096 . S
C729 C299 1.095 . S
C744 C290 1.095 . S
C779 C339 1.096 . S
C794 C330 1.096 . S
C829 C210 2.598 . S
C844 C6 2.567 . S
C879 C46 2.567 . S
C894 C130 2.598 . S
C929 C86 2.567 . S
C944 C170 2.597 . S
C979 C90 2.090 . S
C994 C249 2.184 . S
C1029 C289 2.182 1_455 S
C1044 C10 2.089 . S
C1079 C329 2.182 . S
C1094 C50 2.090 . S
C1129 C326 0.973 . S
C1144 C15 0.974 . S
C1179 C55 0.974 . S
C1194 C246 0.973 . S
C1229 C286 0.973 . S
C1244 C95 0.973 . S
C1279 C99 2.599 1_565 S
C1294 C135 2.567 . S
C1329 C175 2.567 . S
C1344 C19 2.598 . S
C1379 C59 2.597 . S
C1394 C215 2.567 . S
C1429 C335 0.973 . S
C1444 C126 0.973 . S
C1479 C255 0.972 . S
C1494 C166 0.974 . S
C1529 C295 0.972 . S
C1544 C206 0.974 . S
C1579 C258 2.182 . S
C1594 C219 2.089 . S
C1629 C139 2.090 . S
C1644 C298 2.183 . S
C1679 C338 2.182 . S
C1694 C179 2.090 . S
