# Generated by pormake.
# Topology gie, (4)-cn, num edge types: 1
# Building blocks:
#     Node 0, Type 0, BuildingBlock: GALJAG_clean_sbu_0, # of connection points: 4
#     Node 1, Type 0, BuildingBlock: GALJAG_clean_sbu_0, # of connection points: 4
#     Node 2, Type 0, BuildingBlock: GALJAG_clean_sbu_0, # of connection points: 4
#     Node 3, Type 0, BuildingBlock: GALJAG_clean_sbu_0, # of connection points: 4
#     Node 4, Type 0, BuildingBlock: GALJAG_clean_sbu_0, # of connection points: 4
#     Node 5, Type 0, BuildingBlock: GALJAG_clean_sbu_0, # of connection points: 4
#     Node 6, Type 0, BuildingBlock: GALJAG_clean_sbu_0, # of connection points: 4
#     Node 7, Type 0, BuildingBlock: GALJAG_clean_sbu_0, # of connection points: 4
#     Node 8, Type 0, BuildingBlock: GALJAG_clean_sbu_0, # of connection points: 4
#     Node 9, Type 0, BuildingBlock: GALJAG_clean_sbu_0, # of connection points: 4
#     Node 10, Type 0, BuildingBlock: GALJAG_clean_sbu_0, # of connection points: 4
#     Node 11, Type 0, BuildingBlock: GALJAG_clean_sbu_0, # of connection points: 4
#     Node 12, Type 0, BuildingBlock: GALJAG_clean_sbu_0, # of connection points: 4
#     Node 13, Type 0, BuildingBlock: GALJAG_clean_sbu_0, # of connection points: 4
#     Node 14, Type 0, BuildingBlock: GALJAG_clean_sbu_0, # of connection points: 4
#     Node 15, Type 0, BuildingBlock: GALJAG_clean_sbu_0, # of connection points: 4
#     Node 16, Type 0, BuildingBlock: GALJAG_clean_sbu_0, # of connection points: 4
#     Node 17, Type 0, BuildingBlock: GALJAG_clean_sbu_0, # of connection points: 4
#     Node 18, Type 0, BuildingBlock: GALJAG_clean_sbu_0, # of connection points: 4
#     Node 19, Type 0, BuildingBlock: GALJAG_clean_sbu_0, # of connection points: 4
#     Node 20, Type 0, BuildingBlock: GALJAG_clean_sbu_0, # of connection points: 4
#     Node 21, Type 0, BuildingBlock: GALJAG_clean_sbu_0, # of connection points: 4
#     Node 22, Type 0, BuildingBlock: GALJAG_clean_sbu_0, # of connection points: 4
#     Node 23, Type 0, BuildingBlock: GALJAG_clean_sbu_0, # of connection points: 4
#     Node 24, Type 0, BuildingBlock: GALJAG_clean_sbu_0, # of connection points: 4
#     Node 25, Type 0, BuildingBlock: GALJAG_clean_sbu_0, # of connection points: 4
#     Node 26, Type 0, BuildingBlock: GALJAG_clean_sbu_0, # of connection points: 4
#     Node 27, Type 0, BuildingBlock: GALJAG_clean_sbu_0, # of connection points: 4
#     Node 28, Type 0, BuildingBlock: GALJAG_clean_sbu_0, # of connection points: 4
#     Node 29, Type 0, BuildingBlock: GALJAG_clean_sbu_0, # of connection points: 4
#     Node 30, Type 0, BuildingBlock: GALJAG_clean_sbu_0, # of connection points: 4
#     Node 31, Type 0, BuildingBlock: GALJAG_clean_sbu_0, # of connection points: 4
#     Node 32, Type 0, BuildingBlock: GALJAG_clean_sbu_0, # of connection points: 4
#     Node 33, Type 0, BuildingBlock: GALJAG_clean_sbu_0, # of connection points: 4
#     Node 34, Type 0, BuildingBlock: GALJAG_clean_sbu_0, # of connection points: 4
#     Node 35, Type 0, BuildingBlock: GALJAG_clean_sbu_0, # of connection points: 4
#     Node 36, Type 0, BuildingBlock: GALJAG_clean_sbu_0, # of connection points: 4
#     Node 37, Type 0, BuildingBlock: GALJAG_clean_sbu_0, # of connection points: 4
#     Node 38, Type 0, BuildingBlock: GALJAG_clean_sbu_0, # of connection points: 4
#     Node 39, Type 0, BuildingBlock: GALJAG_clean_sbu_0, # of connection points: 4
#     Node 40, Type 0, BuildingBlock: GALJAG_clean_sbu_0, # of connection points: 4
#     Node 41, Type 0, BuildingBlock: GALJAG_clean_sbu_0, # of connection points: 4
#     Node 42, Type 0, BuildingBlock: GALJAG_clean_sbu_0, # of connection points: 4
#     Node 43, Type 0, BuildingBlock: GALJAG_clean_sbu_0, # of connection points: 4
#     Node 44, Type 0, BuildingBlock: GALJAG_clean_sbu_0, # of connection points: 4
#     Node 45, Type 0, BuildingBlock: GALJAG_clean_sbu_0, # of connection points: 4
#     Node 46, Type 0, BuildingBlock: GALJAG_clean_sbu_0, # of connection points: 4
#     Node 47, Type 0, BuildingBlock: GALJAG_clean_sbu_0, # of connection points: 4
#     Node 48, Type 0, BuildingBlock: GALJAG_clean_sbu_0, # of connection points: 4
#     Node 49, Type 0, BuildingBlock: GALJAG_clean_sbu_0, # of connection points: 4
#     Node 50, Type 0, BuildingBlock: GALJAG_clean_sbu_0, # of connection points: 4
#     Node 51, Type 0, BuildingBlock: GALJAG_clean_sbu_0, # of connection points: 4
#     Node 52, Type 0, BuildingBlock: GALJAG_clean_sbu_0, # of connection points: 4
#     Node 53, Type 0, BuildingBlock: GALJAG_clean_sbu_0, # of connection points: 4
#     Node 54, Type 0, BuildingBlock: GALJAG_clean_sbu_0, # of connection points: 4
#     Node 55, Type 0, BuildingBlock: GALJAG_clean_sbu_0, # of connection points: 4
#     Node 56, Type 0, BuildingBlock: GALJAG_clean_sbu_0, # of connection points: 4
#     Node 57, Type 0, BuildingBlock: GALJAG_clean_sbu_0, # of connection points: 4
#     Node 58, Type 0, BuildingBlock: GALJAG_clean_sbu_0, # of connection points: 4
#     Node 59, Type 0, BuildingBlock: GALJAG_clean_sbu_0, # of connection points: 4
#     Node 60, Type 0, BuildingBlock: GALJAG_clean_sbu_0, # of connection points: 4
#     Node 61, Type 0, BuildingBlock: GALJAG_clean_sbu_0, # of connection points: 4
#     Node 62, Type 0, BuildingBlock: GALJAG_clean_sbu_0, # of connection points: 4
#     Node 63, Type 0, BuildingBlock: GALJAG_clean_sbu_0, # of connection points: 4
#     Node 64, Type 0, BuildingBlock: GALJAG_clean_sbu_0, # of connection points: 4
#     Node 65, Type 0, BuildingBlock: GALJAG_clean_sbu_0, # of connection points: 4
#     Node 66, Type 0, BuildingBlock: GALJAG_clean_sbu_0, # of connection points: 4
#     Node 67, Type 0, BuildingBlock: GALJAG_clean_sbu_0, # of connection points: 4
#     Node 68, Type 0, BuildingBlock: GALJAG_clean_sbu_0, # of connection points: 4
#     Node 69, Type 0, BuildingBlock: GALJAG_clean_sbu_0, # of connection points: 4
#     Node 70, Type 0, BuildingBlock: GALJAG_clean_sbu_0, # of connection points: 4
#     Node 71, Type 0, BuildingBlock: GALJAG_clean_sbu_0, # of connection points: 4
#     Node 72, Type 0, BuildingBlock: GALJAG_clean_sbu_0, # of connection points: 4
#     Node 73, Type 0, BuildingBlock: GALJAG_clean_sbu_0, # of connection points: 4
#     Node 74, Type 0, BuildingBlock: GALJAG_clean_sbu_0, # of connection points: 4
#     Node 75, Type 0, BuildingBlock: GALJAG_clean_sbu_0, # of connection points: 4
#     Node 76, Type 0, BuildingBlock: GALJAG_clean_sbu_0, # of connection points: 4
#     Node 77, Type 0, BuildingBlock: GALJAG_clean_sbu_0, # of connection points: 4
#     Node 78, Type 0, BuildingBlock: GALJAG_clean_sbu_0, # of connection points: 4
#     Node 79, Type 0, BuildingBlock: GALJAG_clean_sbu_0, # of connection points: 4
#     Node 80, Type 0, BuildingBlock: GALJAG_clean_sbu_0, # of connection points: 4
#     Node 81, Type 0, BuildingBlock: GALJAG_clean_sbu_0, # of connection points: 4
#     Node 82, Type 0, BuildingBlock: GALJAG_clean_sbu_0, # of connection points: 4
#     Node 83, Type 0, BuildingBlock: GALJAG_clean_sbu_0, # of connection points: 4
#     Node 84, Type 0, BuildingBlock: GALJAG_clean_sbu_0, # of connection points: 4
#     Node 85, Type 0, BuildingBlock: GALJAG_clean_sbu_0, # of connection points: 4
#     Node 86, Type 0, BuildingBlock: GALJAG_clean_sbu_0, # of connection points: 4
#     Node 87, Type 0, BuildingBlock: GALJAG_clean_sbu_0, # of connection points: 4
#     Node 88, Type 0, BuildingBlock: GALJAG_clean_sbu_0, # of connection points: 4
#     Node 89, Type 0, BuildingBlock: GALJAG_clean_sbu_0, # of connection points: 4
#     Node 90, Type 0, BuildingBlock: GALJAG_clean_sbu_0, # of connection points: 4
#     Node 91, Type 0, BuildingBlock: GALJAG_clean_sbu_0, # of connection points: 4
#     Node 92, Type 0, BuildingBlock: GALJAG_clean_sbu_0, # of connection points: 4
#     Node 93, Type 0, BuildingBlock: GALJAG_clean_sbu_0, # of connection points: 4
#     Node 94, Type 0, BuildingBlock: GALJAG_clean_sbu_0, # of connection points: 4
#     Node 95, Type 0, BuildingBlock: GALJAG_clean_sbu_0, # of connection points: 4
#     Edge 96, Type (0, 0), BuildingBlock: AJUNOK_clean_linker_0, # of connection points: 2
#     Edge 97, Type (0, 0), BuildingBlock: AJUNOK_clean_linker_0, # of connection points: 2
#     Edge 98, Type (0, 0), BuildingBlock: AJUNOK_clean_linker_0, # of connection points: 2
#     Edge 99, Type (0, 0), BuildingBlock: AJUNOK_clean_linker_0, # of connection points: 2
#     Edge 100, Type (0, 0), BuildingBlock: AJUNOK_clean_linker_0, # of connection points: 2
#     Edge 101, Type (0, 0), BuildingBlock: AJUNOK_clean_linker_0, # of connection points: 2
#     Edge 102, Type (0, 0), BuildingBlock: AJUNOK_clean_linker_0, # of connection points: 2
#     Edge 103, Type (0, 0), BuildingBlock: AJUNOK_clean_linker_0, # of connection points: 2
#     Edge 104, Type (0, 0), BuildingBlock: AJUNOK_clean_linker_0, # of connection points: 2
#     Edge 105, Type (0, 0), BuildingBlock: AJUNOK_clean_linker_0, # of connection points: 2
#     Edge 106, Type (0, 0), BuildingBlock: AJUNOK_clean_linker_0, # of connection points: 2
#     Edge 107, Type (0, 0), BuildingBlock: AJUNOK_clean_linker_0, # of connection points: 2
#     Edge 108, Type (0, 0), BuildingBlock: AJUNOK_clean_linker_0, # of connection points: 2
#     Edge 109, Type (0, 0), BuildingBlock: AJUNOK_clean_linker_0, # of connection points: 2
#     Edge 110, Type (0, 0), BuildingBlock: AJUNOK_clean_linker_0, # of connection points: 2
#     Edge 111, Type (0, 0), BuildingBlock: AJUNOK_clean_linker_0, # of connection points: 2
#     Edge 112, Type (0, 0), BuildingBlock: AJUNOK_clean_linker_0, # of connection points: 2
#     Edge 113, Type (0, 0), BuildingBlock: AJUNOK_clean_linker_0, # of connection points: 2
#     Edge 114, Type (0, 0), BuildingBlock: AJUNOK_clean_linker_0, # of connection points: 2
#     Edge 115, Type (0, 0), BuildingBlock: AJUNOK_clean_linker_0, # of connection points: 2
#     Edge 116, Type (0, 0), BuildingBlock: AJUNOK_clean_linker_0, # of connection points: 2
#     Edge 117, Type (0, 0), BuildingBlock: AJUNOK_clean_linker_0, # of connection points: 2
#     Edge 118, Type (0, 0), BuildingBlock: AJUNOK_clean_linker_0, # of connection points: 2
#     Edge 119, Type (0, 0), BuildingBlock: AJUNOK_clean_linker_0, # of connection points: 2
#     Edge 120, Type (0, 0), BuildingBlock: AJUNOK_clean_linker_0, # of connection points: 2
#     Edge 121, Type (0, 0), BuildingBlock: AJUNOK_clean_linker_0, # of connection points: 2
#     Edge 122, Type (0, 0), BuildingBlock: AJUNOK_clean_linker_0, # of connection points: 2
#     Edge 123, Type (0, 0), BuildingBlock: AJUNOK_clean_linker_0, # of connection points: 2
#     Edge 124, Type (0, 0), BuildingBlock: AJUNOK_clean_linker_0, # of connection points: 2
#     Edge 125, Type (0, 0), BuildingBlock: AJUNOK_clean_linker_0, # of connection points: 2
#     Edge 126, Type (0, 0), BuildingBlock: AJUNOK_clean_linker_0, # of connection points: 2
#     Edge 127, Type (0, 0), BuildingBlock: AJUNOK_clean_linker_0, # of connection points: 2
#     Edge 128, Type (0, 0), BuildingBlock: AJUNOK_clean_linker_0, # of connection points: 2
#     Edge 129, Type (0, 0), BuildingBlock: AJUNOK_clean_linker_0, # of connection points: 2
#     Edge 130, Type (0, 0), BuildingBlock: AJUNOK_clean_linker_0, # of connection points: 2
#     Edge 131, Type (0, 0), BuildingBlock: AJUNOK_clean_linker_0, # of connection points: 2
#     Edge 132, Type (0, 0), BuildingBlock: AJUNOK_clean_linker_0, # of connection points: 2
#     Edge 133, Type (0, 0), BuildingBlock: AJUNOK_clean_linker_0, # of connection points: 2
#     Edge 134, Type (0, 0), BuildingBlock: AJUNOK_clean_linker_0, # of connection points: 2
#     Edge 135, Type (0, 0), BuildingBlock: AJUNOK_clean_linker_0, # of connection points: 2
#     Edge 136, Type (0, 0), BuildingBlock: AJUNOK_clean_linker_0, # of connection points: 2
#     Edge 137, Type (0, 0), BuildingBlock: AJUNOK_clean_linker_0, # of connection points: 2
#     Edge 138, Type (0, 0), BuildingBlock: AJUNOK_clean_linker_0, # of connection points: 2
#     Edge 139, Type (0, 0), BuildingBlock: AJUNOK_clean_linker_0, # of connection points: 2
#     Edge 140, Type (0, 0), BuildingBlock: AJUNOK_clean_linker_0, # of connection points: 2
#     Edge 141, Type (0, 0), BuildingBlock: AJUNOK_clean_linker_0, # of connection points: 2
#     Edge 142, Type (0, 0), BuildingBlock: AJUNOK_clean_linker_0, # of connection points: 2
#     Edge 143, Type (0, 0), BuildingBlock: AJUNOK_clean_linker_0, # of connection points: 2
#     Edge 144, Type (0, 0), BuildingBlock: AJUNOK_clean_linker_0, # of connection points: 2
#     Edge 145, Type (0, 0), BuildingBlock: AJUNOK_clean_linker_0, # of connection points: 2
#     Edge 146, Type (0, 0), BuildingBlock: AJUNOK_clean_linker_0, # of connection points: 2
#     Edge 147, Type (0, 0), BuildingBlock: AJUNOK_clean_linker_0, # of connection points: 2
#     Edge 148, Type (0, 0), BuildingBlock: AJUNOK_clean_linker_0, # of connection points: 2
#     Edge 149, Type (0, 0), BuildingBlock: AJUNOK_clean_linker_0, # of connection points: 2
#     Edge 150, Type (0, 0), BuildingBlock: AJUNOK_clean_linker_0, # of connection points: 2
#     Edge 151, Type (0, 0), BuildingBlock: AJUNOK_clean_linker_0, # of connection points: 2
#     Edge 152, Type (0, 0), BuildingBlock: AJUNOK_clean_linker_0, # of connection points: 2
#     Edge 153, Type (0, 0), BuildingBlock: AJUNOK_clean_linker_0, # of connection points: 2
#     Edge 154, Type (0, 0), BuildingBlock: AJUNOK_clean_linker_0, # of connection points: 2
#     Edge 155, Type (0, 0), BuildingBlock: AJUNOK_clean_linker_0, # of connection points: 2
#     Edge 156, Type (0, 0), BuildingBlock: AJUNOK_clean_linker_0, # of connection points: 2
#     Edge 157, Type (0, 0), BuildingBlock: AJUNOK_clean_linker_0, # of connection points: 2
#     Edge 158, Type (0, 0), BuildingBlock: AJUNOK_clean_linker_0, # of connection points: 2
#     Edge 159, Type (0, 0), BuildingBlock: AJUNOK_clean_linker_0, # of connection points: 2
#     Edge 160, Type (0, 0), BuildingBlock: AJUNOK_clean_linker_0, # of connection points: 2
#     Edge 161, Type (0, 0), BuildingBlock: AJUNOK_clean_linker_0, # of connection points: 2
#     Edge 162, Type (0, 0), BuildingBlock: AJUNOK_clean_linker_0, # of connection points: 2
#     Edge 163, Type (0, 0), BuildingBlock: AJUNOK_clean_linker_0, # of connection points: 2
#     Edge 164, Type (0, 0), BuildingBlock: AJUNOK_clean_linker_0, # of connection points: 2
#     Edge 165, Type (0, 0), BuildingBlock: AJUNOK_clean_linker_0, # of connection points: 2
#     Edge 166, Type (0, 0), BuildingBlock: AJUNOK_clean_linker_0, # of connection points: 2
#     Edge 167, Type (0, 0), BuildingBlock: AJUNOK_clean_linker_0, # of connection points: 2
#     Edge 168, Type (0, 0), BuildingBlock: AJUNOK_clean_linker_0, # of connection points: 2
#     Edge 169, Type (0, 0), BuildingBlock: AJUNOK_clean_linker_0, # of connection points: 2
#     Edge 170, Type (0, 0), BuildingBlock: AJUNOK_clean_linker_0, # of connection points: 2
#     Edge 171, Type (0, 0), BuildingBlock: AJUNOK_clean_linker_0, # of connection points: 2
#     Edge 172, Type (0, 0), BuildingBlock: AJUNOK_clean_linker_0, # of connection points: 2
#     Edge 173, Type (0, 0), BuildingBlock: AJUNOK_clean_linker_0, # of connection points: 2
#     Edge 174, Type (0, 0), BuildingBlock: AJUNOK_clean_linker_0, # of connection points: 2
#     Edge 175, Type (0, 0), BuildingBlock: AJUNOK_clean_linker_0, # of connection points: 2
#     Edge 176, Type (0, 0), BuildingBlock: AJUNOK_clean_linker_0, # of connection points: 2
#     Edge 177, Type (0, 0), BuildingBlock: AJUNOK_clean_linker_0, # of connection points: 2
#     Edge 178, Type (0, 0), BuildingBlock: AJUNOK_clean_linker_0, # of connection points: 2
#     Edge 179, Type (0, 0), BuildingBlock: AJUNOK_clean_linker_0, # of connection points: 2
#     Edge 180, Type (0, 0), BuildingBlock: AJUNOK_clean_linker_0, # of connection points: 2
#     Edge 181, Type (0, 0), BuildingBlock: AJUNOK_clean_linker_0, # of connection points: 2
#     Edge 182, Type (0, 0), BuildingBlock: AJUNOK_clean_linker_0, # of connection points: 2
#     Edge 183, Type (0, 0), BuildingBlock: AJUNOK_clean_linker_0, # of connection points: 2
#     Edge 184, Type (0, 0), BuildingBlock: AJUNOK_clean_linker_0, # of connection points: 2
#     Edge 185, Type (0, 0), BuildingBlock: AJUNOK_clean_linker_0, # of connection points: 2
#     Edge 186, Type (0, 0), BuildingBlock: AJUNOK_clean_linker_0, # of connection points: 2
#     Edge 187, Type (0, 0), BuildingBlock: AJUNOK_clean_linker_0, # of connection points: 2
#     Edge 188, Type (0, 0), BuildingBlock: AJUNOK_clean_linker_0, # of connection points: 2
#     Edge 189, Type (0, 0), BuildingBlock: AJUNOK_clean_linker_0, # of connection points: 2
#     Edge 190, Type (0, 0), BuildingBlock: AJUNOK_clean_linker_0, # of connection points: 2
#     Edge 191, Type (0, 0), BuildingBlock: AJUNOK_clean_linker_0, # of connection points: 2
#     Edge 192, Type (0, 0), BuildingBlock: AJUNOK_clean_linker_0, # of connection points: 2
#     Edge 193, Type (0, 0), BuildingBlock: AJUNOK_clean_linker_0, # of connection points: 2
#     Edge 194, Type (0, 0), BuildingBlock: AJUNOK_clean_linker_0, # of connection points: 2
#     Edge 195, Type (0, 0), BuildingBlock: AJUNOK_clean_linker_0, # of connection points: 2
#     Edge 196, Type (0, 0), BuildingBlock: AJUNOK_clean_linker_0, # of connection points: 2
#     Edge 197, Type (0, 0), BuildingBlock: AJUNOK_clean_linker_0, # of connection points: 2
#     Edge 198, Type (0, 0), BuildingBlock: AJUNOK_clean_linker_0, # of connection points: 2
#     Edge 199, Type (0, 0), BuildingBlock: AJUNOK_clean_linker_0, # of connection points: 2
#     Edge 200, Type (0, 0), BuildingBlock: AJUNOK_clean_linker_0, # of connection points: 2
#     Edge 201, Type (0, 0), BuildingBlock: AJUNOK_clean_linker_0, # of connection points: 2
#     Edge 202, Type (0, 0), BuildingBlock: AJUNOK_clean_linker_0, # of connection points: 2
#     Edge 203, Type (0, 0), BuildingBlock: AJUNOK_clean_linker_0, # of connection points: 2
#     Edge 204, Type (0, 0), BuildingBlock: AJUNOK_clean_linker_0, # of connection points: 2
#     Edge 205, Type (0, 0), BuildingBlock: AJUNOK_clean_linker_0, # of connection points: 2
#     Edge 206, Type (0, 0), BuildingBlock: AJUNOK_clean_linker_0, # of connection points: 2
#     Edge 207, Type (0, 0), BuildingBlock: AJUNOK_clean_linker_0, # of connection points: 2
#     Edge 208, Type (0, 0), BuildingBlock: AJUNOK_clean_linker_0, # of connection points: 2
#     Edge 209, Type (0, 0), BuildingBlock: AJUNOK_clean_linker_0, # of connection points: 2
#     Edge 210, Type (0, 0), BuildingBlock: AJUNOK_clean_linker_0, # of connection points: 2
#     Edge 211, Type (0, 0), BuildingBlock: AJUNOK_clean_linker_0, # of connection points: 2
#     Edge 212, Type (0, 0), BuildingBlock: AJUNOK_clean_linker_0, # of connection points: 2
#     Edge 213, Type (0, 0), BuildingBlock: AJUNOK_clean_linker_0, # of connection points: 2
#     Edge 214, Type (0, 0), BuildingBlock: AJUNOK_clean_linker_0, # of connection points: 2
#     Edge 215, Type (0, 0), BuildingBlock: AJUNOK_clean_linker_0, # of connection points: 2
#     Edge 216, Type (0, 0), BuildingBlock: AJUNOK_clean_linker_0, # of connection points: 2
#     Edge 217, Type (0, 0), BuildingBlock: AJUNOK_clean_linker_0, # of connection points: 2
#     Edge 218, Type (0, 0), BuildingBlock: AJUNOK_clean_linker_0, # of connection points: 2
#     Edge 219, Type (0, 0), BuildingBlock: AJUNOK_clean_linker_0, # of connection points: 2
#     Edge 220, Type (0, 0), BuildingBlock: AJUNOK_clean_linker_0, # of connection points: 2
#     Edge 221, Type (0, 0), BuildingBlock: AJUNOK_clean_linker_0, # of connection points: 2
#     Edge 222, Type (0, 0), BuildingBlock: AJUNOK_clean_linker_0, # of connection points: 2
#     Edge 223, Type (0, 0), BuildingBlock: AJUNOK_clean_linker_0, # of connection points: 2
#     Edge 224, Type (0, 0), BuildingBlock: AJUNOK_clean_linker_0, # of connection points: 2
#     Edge 225, Type (0, 0), BuildingBlock: AJUNOK_clean_linker_0, # of connection points: 2
#     Edge 226, Type (0, 0), BuildingBlock: AJUNOK_clean_linker_0, # of connection points: 2
#     Edge 227, Type (0, 0), BuildingBlock: AJUNOK_clean_linker_0, # of connection points: 2
#     Edge 228, Type (0, 0), BuildingBlock: AJUNOK_clean_linker_0, # of connection points: 2
#     Edge 229, Type (0, 0), BuildingBlock: AJUNOK_clean_linker_0, # of connection points: 2
#     Edge 230, Type (0, 0), BuildingBlock: AJUNOK_clean_linker_0, # of connection points: 2
#     Edge 231, Type (0, 0), BuildingBlock: AJUNOK_clean_linker_0, # of connection points: 2
#     Edge 232, Type (0, 0), BuildingBlock: AJUNOK_clean_linker_0, # of connection points: 2
#     Edge 233, Type (0, 0), BuildingBlock: AJUNOK_clean_linker_0, # of connection points: 2
#     Edge 234, Type (0, 0), BuildingBlock: AJUNOK_clean_linker_0, # of connection points: 2
#     Edge 235, Type (0, 0), BuildingBlock: AJUNOK_clean_linker_0, # of connection points: 2
#     Edge 236, Type (0, 0), BuildingBlock: AJUNOK_clean_linker_0, # of connection points: 2
#     Edge 237, Type (0, 0), BuildingBlock: AJUNOK_clean_linker_0, # of connection points: 2
#     Edge 238, Type (0, 0), BuildingBlock: AJUNOK_clean_linker_0, # of connection points: 2
#     Edge 239, Type (0, 0), BuildingBlock: AJUNOK_clean_linker_0, # of connection points: 2
#     Edge 240, Type (0, 0), BuildingBlock: AJUNOK_clean_linker_0, # of connection points: 2
#     Edge 241, Type (0, 0), BuildingBlock: AJUNOK_clean_linker_0, # of connection points: 2
#     Edge 242, Type (0, 0), BuildingBlock: AJUNOK_clean_linker_0, # of connection points: 2
#     Edge 243, Type (0, 0), BuildingBlock: AJUNOK_clean_linker_0, # of connection points: 2
#     Edge 244, Type (0, 0), BuildingBlock: AJUNOK_clean_linker_0, # of connection points: 2
#     Edge 245, Type (0, 0), BuildingBlock: AJUNOK_clean_linker_0, # of connection points: 2
#     Edge 246, Type (0, 0), BuildingBlock: AJUNOK_clean_linker_0, # of connection points: 2
#     Edge 247, Type (0, 0), BuildingBlock: AJUNOK_clean_linker_0, # of connection points: 2
#     Edge 248, Type (0, 0), BuildingBlock: AJUNOK_clean_linker_0, # of connection points: 2
#     Edge 249, Type (0, 0), BuildingBlock: AJUNOK_clean_linker_0, # of connection points: 2
#     Edge 250, Type (0, 0), BuildingBlock: AJUNOK_clean_linker_0, # of connection points: 2
#     Edge 251, Type (0, 0), BuildingBlock: AJUNOK_clean_linker_0, # of connection points: 2
#     Edge 252, Type (0, 0), BuildingBlock: AJUNOK_clean_linker_0, # of connection points: 2
#     Edge 253, Type (0, 0), BuildingBlock: AJUNOK_clean_linker_0, # of connection points: 2
#     Edge 254, Type (0, 0), BuildingBlock: AJUNOK_clean_linker_0, # of connection points: 2
#     Edge 255, Type (0, 0), BuildingBlock: AJUNOK_clean_linker_0, # of connection points: 2
#     Edge 256, Type (0, 0), BuildingBlock: AJUNOK_clean_linker_0, # of connection points: 2
#     Edge 257, Type (0, 0), BuildingBlock: AJUNOK_clean_linker_0, # of connection points: 2
#     Edge 258, Type (0, 0), BuildingBlock: AJUNOK_clean_linker_0, # of connection points: 2
#     Edge 259, Type (0, 0), BuildingBlock: AJUNOK_clean_linker_0, # of connection points: 2
#     Edge 260, Type (0, 0), BuildingBlock: AJUNOK_clean_linker_0, # of connection points: 2
#     Edge 261, Type (0, 0), BuildingBlock: AJUNOK_clean_linker_0, # of connection points: 2
#     Edge 262, Type (0, 0), BuildingBlock: AJUNOK_clean_linker_0, # of connection points: 2
#     Edge 263, Type (0, 0), BuildingBlock: AJUNOK_clean_linker_0, # of connection points: 2
#     Edge 264, Type (0, 0), BuildingBlock: AJUNOK_clean_linker_0, # of connection points: 2
#     Edge 265, Type (0, 0), BuildingBlock: AJUNOK_clean_linker_0, # of connection points: 2
#     Edge 266, Type (0, 0), BuildingBlock: AJUNOK_clean_linker_0, # of connection points: 2
#     Edge 267, Type (0, 0), BuildingBlock: AJUNOK_clean_linker_0, # of connection points: 2
#     Edge 268, Type (0, 0), BuildingBlock: AJUNOK_clean_linker_0, # of connection points: 2
#     Edge 269, Type (0, 0), BuildingBlock: AJUNOK_clean_linker_0, # of connection points: 2
#     Edge 270, Type (0, 0), BuildingBlock: AJUNOK_clean_linker_0, # of connection points: 2
#     Edge 271, Type (0, 0), BuildingBlock: AJUNOK_clean_linker_0, # of connection points: 2
#     Edge 272, Type (0, 0), BuildingBlock: AJUNOK_clean_linker_0, # of connection points: 2
#     Edge 273, Type (0, 0), BuildingBlock: AJUNOK_clean_linker_0, # of connection points: 2
#     Edge 274, Type (0, 0), BuildingBlock: AJUNOK_clean_linker_0, # of connection points: 2
#     Edge 275, Type (0, 0), BuildingBlock: AJUNOK_clean_linker_0, # of connection points: 2
#     Edge 276, Type (0, 0), BuildingBlock: AJUNOK_clean_linker_0, # of connection points: 2
#     Edge 277, Type (0, 0), BuildingBlock: AJUNOK_clean_linker_0, # of connection points: 2
#     Edge 278, Type (0, 0), BuildingBlock: AJUNOK_clean_linker_0, # of connection points: 2
#     Edge 279, Type (0, 0), BuildingBlock: AJUNOK_clean_linker_0, # of connection points: 2
#     Edge 280, Type (0, 0), BuildingBlock: AJUNOK_clean_linker_0, # of connection points: 2
#     Edge 281, Type (0, 0), BuildingBlock: AJUNOK_clean_linker_0, # of connection points: 2
#     Edge 282, Type (0, 0), BuildingBlock: AJUNOK_clean_linker_0, # of connection points: 2
#     Edge 283, Type (0, 0), BuildingBlock: AJUNOK_clean_linker_0, # of connection points: 2
#     Edge 284, Type (0, 0), BuildingBlock: AJUNOK_clean_linker_0, # of connection points: 2
#     Edge 285, Type (0, 0), BuildingBlock: AJUNOK_clean_linker_0, # of connection points: 2
#     Edge 286, Type (0, 0), BuildingBlock: AJUNOK_clean_linker_0, # of connection points: 2
#     Edge 287, Type (0, 0), BuildingBlock: AJUNOK_clean_linker_0, # of connection points: 2
# Relax obj value: 0.095
# Max RMSD: 0.169
# Mean RMSD: 0.169
data_MOF--net-gie--node1-GALJAG_clean_sbu_0--edge1-AJUNOK_clean_linker_0
_symmetry_space_group_name_H-M    P1
_symmetry_Int_Tables_number       1
_symmetry_cell_setting            triclinic
loop_
_symmetry_equiv_pos_as_xyz
'x, y, z'
_cell_length_a     63.805116
_cell_length_b     63.803353
_cell_length_c     63.788229
_cell_angle_alpha  89.967325
_cell_angle_beta   90.019457
_cell_angle_gamma 90.021355
loop_
_atom_site_label
_atom_site_type_symbol
_atom_site_fract_x
_atom_site_fract_y
_atom_site_fract_z
_atom_type_partial_charge
In0 In 0.00195 0.13347 0.40074 0.0
O1 O 0.02405 0.13837 0.37259 0.0
O2 O 0.0278 0.15709 0.40015 0.0
C3 C 0.9809 0.0975 0.39533 0.0
C4 C 0.02547 0.12207 0.43351 0.0
C5 C 0.97204 0.16201 0.39253 0.0
O6 O 0.99504 0.10336 0.38265 0.0
O7 O 0.9774 0.10999 0.41028 0.0
O8 O 0.97686 0.1573 0.41123 0.0
O9 O 0.98203 0.15213 0.37865 0.0
C10 C 0.03418 0.15264 0.38201 0.0
O11 O 0.01314 0.13764 0.43454 0.0
O12 O 0.02497 0.11203 0.41645 0.0
In13 In 0.11969 0.74645 0.65296 0.0
O14 O 0.11963 0.75893 0.68646 0.0
O15 O 0.13633 0.77569 0.66259 0.0
C16 C 0.09808 0.71098 0.64798 0.0
C17 C 0.09064 0.77169 0.63645 0.0
C18 C 0.15752 0.7299 0.64655 0.0
O19 O 0.10001 0.71937 0.66592 0.0
O20 O 0.10729 0.72041 0.63318 0.0
O21 O 0.14867 0.74121 0.63274 0.0
O22 O 0.14726 0.72743 0.66334 0.0
C23 C 0.13049 0.77487 0.68151 0.0
O24 O 0.10763 0.76808 0.62669 0.0
O25 O 0.08862 0.76207 0.65361 0.0
In26 In 0.49286 0.86636 0.89325 0.0
O27 O 0.47121 0.86003 0.86506 0.0
O28 O 0.46749 0.84205 0.89304 0.0
C29 C 0.51198 0.90309 0.88638 0.0
C30 C 0.47138 0.87709 0.92756 0.0
C31 C 0.52434 0.83954 0.88556 0.0
O32 O 0.49795 0.8963 0.87409 0.0
O33 O 0.51626 0.89124 0.90164 0.0
O34 O 0.5191 0.84412 0.90414 0.0
O35 O 0.51384 0.84857 0.87149 0.0
C36 C 0.46149 0.84556 0.87456 0.0
O37 O 0.48394 0.8617 0.92762 0.0
O38 O 0.47005 0.88689 0.9104 0.0
In39 In 0.38854 0.25219 0.15638 0.0
O40 O 0.38816 0.2385 0.18955 0.0
O41 O 0.37096 0.2231 0.16528 0.0
C42 C 0.41106 0.2877 0.15634 0.0
C43 C 0.41537 0.22635 0.13707 0.0
C44 C 0.35055 0.26863 0.14964 0.0
O45 O 0.40956 0.27641 0.1726 0.0
O46 O 0.40113 0.28111 0.14054 0.0
O47 O 0.36035 0.25884 0.13538 0.0
O48 O 0.36009 0.26999 0.16696 0.0
C49 C 0.37672 0.22314 0.18422 0.0
O50 O 0.39898 0.23267 0.12777 0.0
O51 O 0.4183 0.23396 0.15504 0.0
In52 In 0.00116 0.85931 0.09694 0.0
O53 O 0.01164 0.85524 0.06294 0.0
O54 O 0.01932 0.8836 0.07883 0.0
C55 C 0.97488 0.82667 0.10135 0.0
C56 C 0.03557 0.84363 0.11543 0.0
C57 C 0.97693 0.8923 0.10706 0.0
O58 O 0.97625 0.83654 0.08422 0.0
O59 O 0.98647 0.83338 0.11586 0.0
O60 O 0.99411 0.88887 0.1164 0.0
O61 O 0.97234 0.87913 0.09307 0.0
C62 C 0.02094 0.87275 0.06237 0.0
O63 O 0.02227 0.85402 0.1259 0.0
O64 O 0.03131 0.84144 0.09628 0.0
In65 In 0.38587 0.75283 0.34284 0.0
O66 O 0.39396 0.77106 0.37321 0.0
O67 O 0.40948 0.77885 0.34483 0.0
C68 C 0.34901 0.73428 0.35063 0.0
C69 C 0.37343 0.77561 0.3098 0.0
C70 C 0.41204 0.71981 0.34466 0.0
O71 O 0.35656 0.74805 0.36278 0.0
O72 O 0.36002 0.73027 0.33466 0.0
O73 O 0.41161 0.7319 0.329 0.0
O74 O 0.39946 0.7244 0.35914 0.0
C75 C 0.40716 0.78262 0.36402 0.0
O76 O 0.38798 0.76223 0.30829 0.0
O77 O 0.36495 0.77682 0.32764 0.0
In78 In 0.4921 0.13258 0.60083 0.0
O79 O 0.47137 0.14588 0.62717 0.0
O80 O 0.47883 0.16506 0.60089 0.0
C81 C 0.50366 0.09364 0.61093 0.0
C82 C 0.46443 0.12195 0.57132 0.0
C83 C 0.5305 0.14961 0.60227 0.0
O84 O 0.49523 0.10571 0.62428 0.0
O85 O 0.50617 0.10142 0.59287 0.0
O86 O 0.5204 0.14846 0.5852 0.0
O87 O 0.52112 0.14228 0.61807 0.0
C88 C 0.46917 0.16338 0.61803 0.0
O89 O 0.48037 0.13295 0.56691 0.0
O90 O 0.46272 0.11658 0.59028 0.0
In91 In 0.11698 0.24295 0.85144 0.0
O92 O 0.11297 0.23374 0.81705 0.0
O93 O 0.13472 0.2168 0.83617 0.0
C94 C 0.09463 0.27796 0.85824 0.0
C95 C 0.09188 0.21446 0.86951 0.0
C96 C 0.15573 0.25791 0.85751 0.0
O97 O 0.09681 0.27051 0.83998 0.0
O98 O 0.10376 0.26778 0.87251 0.0
O99 O 0.1471 0.24582 0.87072 0.0
O100 O 0.14466 0.26237 0.84171 0.0
C101 C 0.12621 0.21899 0.81842 0.0
O102 O 0.10783 0.22144 0.87907 0.0
O103 O 0.08883 0.22202 0.85153 0.0
In104 In 0.40003 0.00202 0.13422 0.0
O105 O 0.37119 0.0214 0.14425 0.0
O106 O 0.39605 0.01626 0.16596 0.0
C107 C 0.39392 0.98591 0.09601 0.0
C108 C 0.42831 0.03109 0.12313 0.0
C109 C 0.39987 0.96567 0.15543 0.0
O110 O 0.37941 0.99545 0.1057 0.0
O111 O 0.41114 0.98474 0.10574 0.0
O112 O 0.41571 0.97767 0.15543 0.0
O113 O 0.38464 0.97185 0.1444 0.0
C114 C 0.37838 0.02436 0.16255 0.0
O115 O 0.43347 0.01534 0.13408 0.0
O116 O 0.40916 0.03201 0.11824 0.0
In117 In 0.24611 0.15652 0.38622 0.0
O118 O 0.23626 0.12656 0.40344 0.0
O119 O 0.21305 0.14291 0.38641 0.0
C120 C 0.26302 0.14841 0.34851 0.0
C121 C 0.22548 0.19335 0.38253 0.0
C122 C 0.27789 0.15734 0.41435 0.0
O123 O 0.24991 0.13617 0.35698 0.0
O124 O 0.26744 0.16451 0.35916 0.0
O125 O 0.26084 0.16685 0.41735 0.0
O126 O 0.27911 0.14815 0.39694 0.0
C127 C 0.21717 0.12794 0.39859 0.0
O128 O 0.22848 0.18464 0.40003 0.0
O129 O 0.23373 0.18395 0.36728 0.0
In130 In 0.10177 0.99479 0.62953 0.0
O131 O 0.06831 0.98207 0.63075 0.0
O132 O 0.09173 0.96414 0.61508 0.0
C133 C 0.10071 0.03231 0.64845 0.0
C134 C 0.12299 0.97384 0.65945 0.0
C135 C 0.10972 0.00998 0.59109 0.0
O136 O 0.08468 0.02059 0.6478 0.0
O137 O 0.11679 0.02498 0.63958 0.0
O138 O 0.12375 0.00072 0.60171 0.0
O139 O 0.09196 0.01083 0.59978 0.0
C140 C 0.07284 0.96554 0.62078 0.0
O141 O 0.12992 0.97497 0.64087 0.0
O142 O 0.10583 0.98313 0.66241 0.0
In143 In 0.2527 0.84173 0.88587 0.0
O144 O 0.27615 0.86792 0.89366 0.0
O145 O 0.27562 0.84027 0.91247 0.0
C146 C 0.23484 0.85182 0.84919 0.0
C147 C 0.27427 0.808 0.87335 0.0
C148 C 0.22114 0.85035 0.91238 0.0
O149 O 0.24945 0.86273 0.85706 0.0
O150 O 0.22933 0.83614 0.86001 0.0
O151 O 0.22525 0.83161 0.9072 0.0
O152 O 0.23253 0.86403 0.90381 0.0
C153 C 0.28358 0.85807 0.90922 0.0
O154 O 0.2611 0.80682 0.88819 0.0
O155 O 0.2759 0.82581 0.86489 0.0
In156 In 0.39519 0.99293 0.36734 0.0
O157 O 0.36723 0.97134 0.3601 0.0
O158 O 0.39498 0.96915 0.34151 0.0
C159 C 0.38714 0.01169 0.40395 0.0
C160 C 0.42858 0.97042 0.3792 0.0
C161 C 0.38842 0.02599 0.3421 0.0
O162 O 0.37506 0.99776 0.39657 0.0
O163 O 0.40303 0.01577 0.39286 0.0
O164 O 0.4068 0.01935 0.34557 0.0
O165 O 0.3741 0.0158 0.35112 0.0
C166 C 0.37673 0.96254 0.34509 0.0
O167 O 0.42959 0.98327 0.36407 0.0
O168 O 0.41101 0.96941 0.38827 0.0
In169 In 0.25079 0.14514 0.61295 0.0
O170 O 0.26466 0.17743 0.60466 0.0
O171 O 0.27333 0.16302 0.63339 0.0
C172 C 0.22308 0.15001 0.58141 0.0
C173 C 0.27599 0.11408 0.59887 0.0
C174 C 0.2292 0.13861 0.64853 0.0
O175 O 0.24254 0.15256 0.57899 0.0
O176 O 0.21752 0.14639 0.60003 0.0
O177 O 0.23991 0.12423 0.64008 0.0
O178 O 0.22939 0.15584 0.63885 0.0
C179 C 0.27538 0.17847 0.62129 0.0
O180 O 0.28242 0.12901 0.61004 0.0
O181 O 0.25642 0.1138 0.59633 0.0
In182 In 0.08958 0.99777 0.86219 0.0
O183 O 0.05483 0.00644 0.86021 0.0
O184 O 0.07496 0.02325 0.88117 0.0
C185 C 0.09833 0.96276 0.84102 0.0
C186 C 0.10573 0.0257 0.8353 0.0
C187 C 0.09798 0.98128 0.89971 0.0
O188 O 0.07967 0.96951 0.84224 0.0
O189 O 0.11196 0.97388 0.85006 0.0
O190 O 0.10981 0.99504 0.89154 0.0
O191 O 0.08199 0.97644 0.88902 0.0
C192 C 0.05682 0.02104 0.87355 0.0
O193 O 0.11508 0.02122 0.85226 0.0
O194 O 0.08877 0.01601 0.83225 0.0
In195 In 0.244 0.85746 0.11625 0.0
O196 O 0.22861 0.82857 0.10123 0.0
O197 O 0.2307 0.83005 0.13439 0.0
C198 C 0.28084 0.85923 0.09538 0.0
C199 C 0.21379 0.8806 0.09761 0.0
C200 C 0.25609 0.86872 0.15499 0.0
O201 O 0.26963 0.8429 0.09521 0.0
O202 O 0.27351 0.87402 0.10616 0.0
O203 O 0.24695 0.88151 0.14291 0.0
O204 O 0.25889 0.85066 0.14749 0.0
C205 C 0.22417 0.82015 0.1186 0.0
O206 O 0.211 0.87151 0.11493 0.0
O207 O 0.23205 0.87895 0.09036 0.0
In208 In 0.13519 0.3984 0.001 0.0
O209 O 0.13675 0.43309 0.01004 0.0
O210 O 0.11751 0.41219 0.02791 0.0
C211 C 0.15586 0.39214 0.96499 0.0
C212 C 0.16308 0.38178 0.02781 0.0
C213 C 0.0967 0.39006 0.9866 0.0
O214 O 0.15419 0.41028 0.97288 0.0
O215 O 0.147 0.3777 0.97523 0.0
O216 O 0.10636 0.37726 0.99837 0.0
O217 O 0.10659 0.4067 0.98235 0.0
C218 C 0.12432 0.4306 0.02534 0.0
O219 O 0.1459 0.37259 0.02391 0.0
O220 O 0.16585 0.39873 0.01805 0.0
In221 In 0.63429 0.10322 0.99268 0.0
O222 O 0.63983 0.06956 0.98093 0.0
O223 O 0.61775 0.08905 0.9651 0.0
C224 C 0.65308 0.10643 0.03017 0.0
C225 C 0.66085 0.1256 0.96869 0.0
C226 C 0.59555 0.11037 0.00731 0.0
O227 O 0.65282 0.08925 0.02019 0.0
O228 O 0.64378 0.12142 0.0212 0.0
O229 O 0.60571 0.12424 0.99737 0.0
O230 O 0.60495 0.09308 0.0095 0.0
C231 C 0.62664 0.07146 0.96623 0.0
O232 O 0.6414 0.12941 0.96896 0.0
O233 O 0.66661 0.11092 0.98058 0.0
In234 In 0.13877 0.3789 0.2454 0.0
O235 O 0.17352 0.38189 0.23748 0.0
O236 O 0.15481 0.36012 0.22023 0.0
C237 C 0.13215 0.40471 0.27807 0.0
C238 C 0.12351 0.40235 0.21416 0.0
C239 C 0.12871 0.34181 0.26247 0.0
O240 O 0.1504 0.39865 0.27327 0.0
O241 O 0.11775 0.39747 0.26665 0.0
O242 O 0.11605 0.35157 0.25072 0.0
O243 O 0.14615 0.35074 0.2653 0.0
C244 C 0.1725 0.36871 0.22266 0.0
O245 O 0.11337 0.38664 0.22089 0.0
O246 O 0.14046 0.40616 0.22352 0.0
In247 In 0.86771 0.88893 0.49395 0.0
O248 O 0.86207 0.86593 0.46674 0.0
O249 O 0.8361 0.87507 0.48529 0.0
C250 C 0.90611 0.87979 0.50861 0.0
C251 C 0.87363 0.92171 0.46805 0.0
C252 C 0.8497 0.8901 0.53197 0.0
O253 O 0.89453 0.86595 0.50034 0.0
O254 O 0.89837 0.89799 0.50892 0.0
O255 O 0.84898 0.9057 0.51969 0.0
O256 O 0.85928 0.87433 0.52487 0.0
C257 C 0.84259 0.8647 0.46986 0.0
O258 O 0.85949 0.92197 0.48192 0.0
O259 O 0.88458 0.9053 0.46771 0.0
In260 In 0.8533 0.11601 0.24313 0.0
O261 O 0.88151 0.10918 0.22162 0.0
O262 O 0.8554 0.0882 0.2218 0.0
C263 C 0.85911 0.15359 0.261 0.0
C264 C 0.82138 0.12587 0.21773 0.0
C265 C 0.8589 0.09267 0.27774 0.0
O266 O 0.87224 0.146 0.24818 0.0
O267 O 0.84321 0.14226 0.26438 0.0
O268 O 0.84093 0.09487 0.26959 0.0
O269 O 0.87357 0.10176 0.2681 0.0
C270 C 0.87303 0.09283 0.21422 0.0
O271 O 0.81936 0.11226 0.23208 0.0
O272 O 0.83907 0.13473 0.217 0.0
In273 In 0.36897 0.60149 0.50577 0.0
O274 O 0.36333 0.56739 0.51517 0.0
O275 O 0.39103 0.58281 0.52595 0.0
C276 C 0.33948 0.60919 0.4766 0.0
C277 C 0.35165 0.61859 0.53996 0.0
C278 C 0.40461 0.60957 0.48502 0.0
O279 O 0.34665 0.59093 0.47941 0.0
O280 O 0.34741 0.62308 0.48817 0.0
O281 O 0.39808 0.62164 0.49935 0.0
O282 O 0.39297 0.59404 0.48121 0.0
C283 C 0.37992 0.56642 0.52604 0.0
O284 O 0.36491 0.62873 0.5292 0.0
O285 O 0.34726 0.60057 0.53324 0.0
In286 In 0.15131 0.61566 0.25168 0.0
O287 O 0.12479 0.6098 0.2755 0.0
O288 O 0.15109 0.58912 0.27458 0.0
C289 C 0.14544 0.65229 0.23199 0.0
C290 C 0.18548 0.62572 0.27369 0.0
C291 C 0.14042 0.59003 0.2202 0.0
O292 O 0.13355 0.64637 0.24678 0.0
O293 O 0.16009 0.63973 0.22749 0.0
O294 O 0.15951 0.59284 0.22499 0.0
O295 O 0.12753 0.60024 0.23115 0.0
C296 C 0.13379 0.5937 0.28294 0.0
O297 O 0.18579 0.61095 0.26039 0.0
O298 O 0.16833 0.63552 0.27507 0.0
In299 In 0.34296 0.38878 0.74682 0.0
O300 O 0.37144 0.39867 0.76665 0.0
O301 O 0.34363 0.41737 0.76687 0.0
C302 C 0.34895 0.35151 0.72886 0.0
C303 C 0.31574 0.37479 0.77536 0.0
C304 C 0.34451 0.41182 0.71175 0.0
O305 O 0.36329 0.36046 0.73937 0.0
O306 O 0.33188 0.36151 0.72761 0.0
O307 O 0.32792 0.41084 0.72264 0.0
O308 O 0.35989 0.40155 0.71876 0.0
C309 C 0.36178 0.41434 0.7741 0.0
O310 O 0.30999 0.38735 0.76101 0.0
O311 O 0.33474 0.36933 0.77472 0.0
In312 In 0.99677 0.85856 0.60046 0.0
O313 O 0.96978 0.8604 0.62443 0.0
O314 O 0.97875 0.83062 0.61229 0.0
C315 C 0.01808 0.89438 0.60617 0.0
C316 C 0.97472 0.86441 0.56494 0.0
C317 C 0.02837 0.83263 0.60985 0.0
O318 O 0.00336 0.88885 0.61826 0.0
O319 O 0.0218 0.88187 0.59129 0.0
O320 O 0.02262 0.83535 0.59101 0.0
O321 O 0.01871 0.84351 0.62324 0.0
C322 C 0.96699 0.84079 0.62439 0.0
O323 O 0.98554 0.84808 0.56781 0.0
O324 O 0.9756 0.8776 0.57959 0.0
In325 In 0.88603 0.25168 0.34505 0.0
O326 O 0.88677 0.24069 0.3109 0.0
O327 O 0.86841 0.22359 0.33303 0.0
C328 C 0.9085 0.28725 0.34687 0.0
C329 C 0.91285 0.22535 0.36432 0.0
C330 C 0.8481 0.26802 0.35298 0.0
O331 O 0.90724 0.2766 0.33019 0.0
O332 O 0.89835 0.28003 0.36224 0.0
O333 O 0.85761 0.25674 0.3663 0.0
O334 O 0.85776 0.27072 0.33589 0.0
C335 C 0.87492 0.22516 0.31441 0.0
O336 O 0.89587 0.23078 0.37304 0.0
O337 O 0.91605 0.23358 0.34665 0.0
In338 In 0.50418 0.13655 0.09566 0.0
O339 O 0.51235 0.14148 0.06114 0.0
O340 O 0.52576 0.11549 0.07754 0.0
C341 C 0.47431 0.16397 0.10686 0.0
C342 C 0.5372 0.15614 0.11261 0.0
C343 C 0.48281 0.101 0.10247 0.0
O344 O 0.47852 0.16072 0.08772 0.0
O345 O 0.48519 0.15353 0.11962 0.0
O346 O 0.49848 0.10603 0.11363 0.0
O347 O 0.4784 0.11381 0.08802 0.0
C348 C 0.52473 0.12594 0.06074 0.0
O349 O 0.5283 0.14117 0.12217 0.0
O350 O 0.52932 0.16097 0.09516 0.0
In351 In 0.61366 0.7513 0.84291 0.0
O352 O 0.60373 0.77405 0.86903 0.0
O353 O 0.58413 0.76999 0.84222 0.0
C354 C 0.65046 0.73382 0.85234 0.0
C355 C 0.62579 0.77582 0.81117 0.0
C356 C 0.59057 0.71686 0.8495 0.0
O357 O 0.64216 0.74753 0.8641 0.0
O358 O 0.64026 0.72948 0.8359 0.0
O359 O 0.59319 0.72404 0.83114 0.0
O360 O 0.59944 0.72713 0.86388 0.0
C361 C 0.58701 0.77908 0.85954 0.0
O362 O 0.61269 0.76112 0.80846 0.0
O363 O 0.63305 0.77741 0.82952 0.0
In364 In 0.99241 0.13238 0.89747 0.0
O365 O 0.95996 0.13148 0.88216 0.0
O366 O 0.98139 0.15479 0.87206 0.0
C367 C 0.00605 0.09314 0.89061 0.0
C368 C 0.97152 0.13201 0.93428 0.0
C369 C 0.02768 0.15546 0.89374 0.0
O370 O 0.99334 0.10197 0.87822 0.0
O371 O 0.01155 0.10413 0.90608 0.0
O372 O 0.01616 0.15679 0.90982 0.0
O373 O 0.02142 0.1425 0.88025 0.0
C374 C 0.96317 0.14733 0.87077 0.0
O375 O 0.98217 0.11683 0.92763 0.0
O376 O 0.97248 0.14822 0.92295 0.0
In377 In 0.61419 0.23956 0.64194 0.0
O378 O 0.60987 0.22944 0.67601 0.0
O379 O 0.63601 0.21758 0.65877 0.0
C380 C 0.58597 0.27025 0.63551 0.0
C381 C 0.59498 0.20694 0.62386 0.0
C382 C 0.65017 0.25989 0.63452 0.0
O383 O 0.59228 0.26564 0.65374 0.0
O384 O 0.59388 0.25941 0.62102 0.0
O385 O 0.64346 0.24589 0.62215 0.0
O386 O 0.63861 0.26348 0.65016 0.0
C387 C 0.62589 0.21771 0.67578 0.0
O388 O 0.60852 0.2175 0.61389 0.0
O389 O 0.59125 0.21308 0.64224 0.0
In390 In 0.50245 0.86414 0.40142 0.0
O391 O 0.52363 0.85445 0.37384 0.0
O392 O 0.51784 0.83286 0.39876 0.0
C393 C 0.48495 0.90186 0.3962 0.0
C394 C 0.52996 0.87449 0.43132 0.0
C395 C 0.46702 0.84259 0.39514 0.0
O396 O 0.49678 0.89389 0.38233 0.0
O397 O 0.4824 0.8908 0.41246 0.0
O398 O 0.47547 0.84332 0.41316 0.0
O399 O 0.47631 0.853 0.38108 0.0
C400 C 0.52669 0.8363 0.3814 0.0
O401 O 0.51484 0.86213 0.43513 0.0
O402 O 0.53079 0.88147 0.41281 0.0
In403 In 0.88264 0.74753 0.15095 0.0
O404 O 0.89393 0.767 0.12251 0.0
O405 O 0.91605 0.7574 0.14532 0.0
C406 C 0.84645 0.73152 0.13662 0.0
C407 C 0.87106 0.77793 0.17766 0.0
C408 C 0.90291 0.71181 0.16064 0.0
O409 O 0.86147 0.7363 0.12459 0.0
O410 O 0.84951 0.73535 0.15581 0.0
O411 O 0.9039 0.72788 0.17217 0.0
O412 O 0.89108 0.71361 0.14492 0.0
C413 C 0.9128 0.76719 0.12854 0.0
O414 O 0.87871 0.76081 0.18403 0.0
O415 O 0.86887 0.77932 0.15806 0.0
In416 In 0.60166 0.99559 0.86075 0.0
O417 O 0.61679 0.96339 0.85708 0.0
O418 O 0.63031 0.98833 0.84013 0.0
C419 C 0.60978 0.01569 0.89693 0.0
C420 C 0.56783 0.97216 0.87004 0.0
C421 C 0.5952 0.02618 0.83227 0.0
O422 O 0.62383 0.00531 0.88752 0.0
O423 O 0.5922 0.01582 0.88791 0.0
O424 O 0.58857 0.00771 0.82962 0.0
O425 O 0.60434 0.02925 0.84951 0.0
C426 C 0.63015 0.96892 0.84369 0.0
O427 O 0.56915 0.98211 0.85295 0.0
O428 O 0.58328 0.97437 0.88211 0.0
In429 In 0.75743 0.85252 0.61232 0.0
O430 O 0.76667 0.8182 0.60763 0.0
O431 O 0.77537 0.83346 0.63609 0.0
C432 C 0.73116 0.85993 0.58016 0.0
C433 C 0.79202 0.87062 0.59661 0.0
C434 C 0.73373 0.86251 0.64567 0.0
O435 O 0.7329 0.84177 0.58798 0.0
O436 O 0.74237 0.87374 0.58871 0.0
O437 O 0.75105 0.87152 0.64213 0.0
O438 O 0.72871 0.84867 0.63246 0.0
C439 C 0.77619 0.81707 0.62503 0.0
O440 O 0.77904 0.88108 0.60734 0.0
O441 O 0.78755 0.85155 0.59424 0.0
In442 In 0.89586 0.00241 0.36539 0.0
O443 O 0.86949 0.02563 0.35724 0.0
O444 O 0.89836 0.0263 0.34006 0.0
C445 C 0.88767 0.98044 0.40018 0.0
C446 C 0.92734 0.02609 0.37954 0.0
C447 C 0.88881 0.97298 0.33647 0.0
O448 O 0.8753 0.99465 0.3938 0.0
O449 O 0.90374 0.97765 0.38895 0.0
O450 O 0.90726 0.97664 0.34289 0.0
O451 O 0.87453 0.98361 0.34506 0.0
C452 C 0.88037 0.03402 0.34283 0.0
O453 O 0.93011 0.01274 0.36505 0.0
O454 O 0.90904 0.02667 0.38712 0.0
In455 In 0.74376 0.14944 0.11259 0.0
O456 O 0.73506 0.18388 0.10828 0.0
O457 O 0.72349 0.16747 0.13508 0.0
C458 C 0.77198 0.14237 0.08213 0.0
C459 C 0.7103 0.13139 0.09455 0.0
C460 C 0.76573 0.14102 0.14751 0.0
O461 O 0.76862 0.16066 0.08899 0.0
O462 O 0.76137 0.12814 0.09079 0.0
O463 O 0.74981 0.13032 0.14242 0.0
O464 O 0.7704 0.15551 0.13486 0.0
C465 C 0.72399 0.18436 0.12475 0.0
O466 O 0.72191 0.12121 0.10703 0.0
O467 O 0.71548 0.15024 0.09176 0.0
In468 In 0.58909 0.00011 0.63689 0.0
O469 O 0.6193 0.00965 0.6536 0.0
O470 O 0.6016 0.03354 0.63897 0.0
C471 C 0.60347 0.98243 0.60153 0.0
C472 C 0.55341 0.0215 0.62959 0.0
C473 C 0.58364 0.96939 0.6657 0.0
O474 O 0.61562 0.98955 0.61546 0.0
O475 O 0.58419 0.9842 0.60549 0.0
O476 O 0.58413 0.98857 0.67027 0.0
O477 O 0.58451 0.96572 0.64631 0.0
C478 C 0.61724 0.02897 0.65012 0.0
O479 O 0.55822 0.01509 0.64769 0.0
O480 O 0.56625 0.01656 0.61544 0.0
In481 In 0.74404 0.85455 0.38563 0.0
O482 O 0.73064 0.82091 0.38669 0.0
O483 O 0.71132 0.84576 0.37615 0.0
C484 C 0.77792 0.84827 0.40992 0.0
C485 C 0.72372 0.88502 0.40683 0.0
C486 C 0.76034 0.86004 0.34717 0.0
O487 O 0.76103 0.8382 0.41255 0.0
O488 O 0.77776 0.86106 0.3948 0.0
O489 O 0.75382 0.87515 0.35817 0.0
O490 O 0.7588 0.84226 0.35571 0.0
C491 C 0.71292 0.82649 0.3798 0.0
O492 O 0.72234 0.8831 0.38721 0.0
O493 O 0.73587 0.87214 0.41554 0.0
In494 In 0.8972 0.99651 0.12999 0.0
O495 O 0.93005 0.98155 0.13129 0.0
O496 O 0.90517 0.9655 0.11585 0.0
C497 C 0.89516 0.03256 0.15144 0.0
C498 C 0.87437 0.97487 0.15774 0.0
C499 C 0.89166 0.0133 0.09191 0.0
O500 O 0.91204 0.02205 0.15067 0.0
O501 O 0.88003 0.02487 0.14126 0.0
O502 O 0.87764 0.00229 0.10069 0.0
O503 O 0.90848 0.0153 0.10222 0.0
C504 C 0.92407 0.96524 0.1216 0.0
O505 O 0.86796 0.97758 0.13912 0.0
O506 O 0.8919 0.98302 0.16187 0.0
In507 In 0.75395 0.14308 0.8791 0.0
O508 O 0.78685 0.12949 0.88092 0.0
O509 O 0.76299 0.11332 0.89726 0.0
C510 C 0.73359 0.13277 0.84366 0.0
C511 C 0.77619 0.17822 0.87138 0.0
C512 C 0.72343 0.14836 0.90812 0.0
O513 O 0.74427 0.11938 0.85369 0.0
O514 O 0.73355 0.1509 0.85152 0.0
O515 O 0.74265 0.14982 0.91252 0.0
O516 O 0.71968 0.14492 0.88907 0.0
C517 C 0.78231 0.11484 0.89334 0.0
O518 O 0.76754 0.17501 0.88889 0.0
O519 O 0.77294 0.16416 0.85794 0.0
In520 In 0.86357 0.60371 0.99564 0.0
O521 O 0.85714 0.57051 0.98404 0.0
O522 O 0.88693 0.58396 0.97759 0.0
C523 C 0.82887 0.6032 0.01982 0.0
C524 C 0.85017 0.62749 0.96337 0.0
C525 C 0.89552 0.61506 0.02103 0.0
O526 O 0.84214 0.58853 0.02041 0.0
O527 O 0.83314 0.61768 0.00713 0.0
O528 O 0.89294 0.62343 0.00327 0.0
O529 O 0.88211 0.60136 0.02561 0.0
C530 C 0.87476 0.5685 0.97526 0.0
O531 O 0.85468 0.63541 0.98098 0.0
O532 O 0.85354 0.60809 0.96199 0.0
In533 In 0.36709 0.89732 0.00448 0.0
O534 O 0.36275 0.9317 0.01344 0.0
O535 O 0.3874 0.91394 0.02777 0.0
C536 C 0.34217 0.88764 0.97204 0.0
C537 C 0.3449 0.88036 0.03577 0.0
C538 C 0.40403 0.89209 0.98547 0.0
O539 O 0.34503 0.9065 0.97757 0.0
O540 O 0.35178 0.87422 0.98293 0.0
O541 O 0.39756 0.87918 0.99916 0.0
O542 O 0.39176 0.90713 0.98159 0.0
C543 C 0.37787 0.93124 0.02636 0.0
O544 O 0.36044 0.8707 0.02803 0.0
O545 O 0.34085 0.89789 0.02762 0.0
In546 In 0.84389 0.61113 0.75222 0.0
O547 O 0.86952 0.60148 0.77585 0.0
O548 O 0.84268 0.58198 0.77154 0.0
C549 C 0.85261 0.64773 0.73381 0.0
C550 C 0.812 0.62414 0.77594 0.0
C551 C 0.85101 0.58833 0.71779 0.0
O552 O 0.86456 0.64003 0.74775 0.0
O553 O 0.8364 0.63705 0.72973 0.0
O554 O 0.83252 0.59111 0.72454 0.0
O555 O 0.8653 0.59674 0.72861 0.0
C556 C 0.85964 0.58508 0.78121 0.0
O557 O 0.80951 0.60976 0.76244 0.0
O558 O 0.83018 0.63189 0.77692 0.0
In559 In 0.13858 0.09699 0.49613 0.0
O560 O 0.14255 0.06287 0.50739 0.0
O561 O 0.12211 0.08326 0.52413 0.0
C562 C 0.15815 0.09835 0.45885 0.0
C563 C 0.16487 0.12068 0.51932 0.0
C564 C 0.09985 0.10492 0.48179 0.0
O565 O 0.15971 0.08262 0.47086 0.0
O566 O 0.14659 0.11289 0.46559 0.0
O567 O 0.11045 0.11855 0.49159 0.0
O568 O 0.10892 0.08748 0.47932 0.0
C569 C 0.12985 0.06519 0.52242 0.0
O570 O 0.14544 0.12442 0.51856 0.0
O571 O 0.17068 0.10519 0.50862 0.0
In572 In 0.15304 0.88501 0.75206 0.0
O573 O 0.12284 0.89063 0.77083 0.0
O574 O 0.15112 0.90599 0.7801 0.0
C575 C 0.14473 0.84959 0.73103 0.0
C576 C 0.18513 0.87248 0.77623 0.0
C577 C 0.14939 0.91546 0.72307 0.0
O578 O 0.13327 0.85584 0.74593 0.0
O579 O 0.15986 0.86153 0.72657 0.0
O580 O 0.16678 0.9065 0.7263 0.0
O581 O 0.13439 0.9088 0.73403 0.0
C582 C 0.13192 0.90287 0.78355 0.0
O583 O 0.1864 0.88879 0.76496 0.0
O584 O 0.16822 0.86241 0.7744 0.0
In585 In 0.63666 0.4054 0.5011 0.0
O586 O 0.63452 0.43961 0.4904 0.0
O587 O 0.62899 0.41512 0.46816 0.0
C588 C 0.65608 0.40499 0.53838 0.0
C589 C 0.66625 0.38582 0.47869 0.0
C590 C 0.59716 0.39801 0.51355 0.0
O591 O 0.65678 0.42086 0.52648 0.0
O592 O 0.64553 0.38974 0.53149 0.0
O593 O 0.60831 0.38374 0.50537 0.0
O594 O 0.6059 0.41572 0.51469 0.0
C595 C 0.63053 0.43451 0.47163 0.0
O596 O 0.64796 0.37813 0.48024 0.0
O597 O 0.66941 0.40204 0.48952 0.0
In598 In 0.84869 0.38332 0.74766 0.0
O599 O 0.87624 0.39304 0.72667 0.0
O600 O 0.85388 0.41602 0.73622 0.0
C601 C 0.85491 0.34355 0.75989 0.0
C602 C 0.81812 0.37971 0.71922 0.0
C603 C 0.85294 0.40252 0.78484 0.0
O604 O 0.8688 0.3537 0.74997 0.0
O605 O 0.83796 0.35332 0.76277 0.0
O606 O 0.83568 0.40272 0.77501 0.0
O607 O 0.86741 0.39233 0.77601 0.0
C608 C 0.87015 0.41195 0.72572 0.0
O609 O 0.81403 0.38397 0.73817 0.0
O610 O 0.83718 0.37659 0.71509 0.0
In611 In 0.65795 0.61196 0.24926 0.0
O612 O 0.64058 0.61084 0.21787 0.0
O613 O 0.63106 0.58963 0.2415 0.0
C614 C 0.64877 0.65077 0.26308 0.0
C615 C 0.69378 0.61494 0.22663 0.0
C616 C 0.66018 0.58786 0.2841 0.0
O617 O 0.63633 0.64058 0.25146 0.0
O618 O 0.66561 0.64134 0.26743 0.0
O619 O 0.67175 0.58463 0.26839 0.0
O620 O 0.64821 0.60343 0.28232 0.0
C621 C 0.62889 0.5957 0.22284 0.0
O622 O 0.6837 0.59802 0.2283 0.0
O623 O 0.68625 0.62986 0.23709 0.0
In624 In 0.5009 0.63349 0.89709 0.0
O625 O 0.52097 0.64109 0.86797 0.0
O626 O 0.52183 0.66149 0.89446 0.0
C627 C 0.48429 0.5954 0.89132 0.0
C628 C 0.52757 0.62334 0.92799 0.0
C629 C 0.46593 0.65694 0.89412 0.0
O630 O 0.49542 0.60418 0.87742 0.0
O631 O 0.48181 0.60589 0.90794 0.0
O632 O 0.47653 0.65607 0.91086 0.0
O633 O 0.47298 0.64606 0.87921 0.0
C634 C 0.52876 0.65722 0.87648 0.0
O635 O 0.51226 0.6356 0.9311 0.0
O636 O 0.52871 0.6159 0.90969 0.0
In637 In 0.61609 0.2553 0.14457 0.0
O638 O 0.60725 0.266 0.17787 0.0
O639 O 0.63225 0.2813 0.16182 0.0
C640 C 0.59653 0.21859 0.13828 0.0
C641 C 0.59257 0.28108 0.12087 0.0
C642 C 0.65476 0.2396 0.14013 0.0
O643 O 0.59603 0.2277 0.15594 0.0
O644 O 0.60689 0.22806 0.12432 0.0
O645 O 0.6461 0.25024 0.12575 0.0
O646 O 0.64385 0.23718 0.15647 0.0
C647 C 0.62122 0.28009 0.17815 0.0
O648 O 0.61236 0.28143 0.11992 0.0
O649 O 0.58503 0.26789 0.13346 0.0
In650 In 0.99519 0.3654 0.40068 0.0
O651 O 0.98113 0.38246 0.42846 0.0
O652 O 0.97715 0.34948 0.42745 0.0
C653 C 0.03047 0.34197 0.40163 0.0
C654 C 0.9675 0.34981 0.3725 0.0
C655 C 0.00959 0.40442 0.39377 0.0
O656 O 0.01552 0.33895 0.41425 0.0
O657 O 0.02757 0.35674 0.38887 0.0
O658 O 0.99803 0.39512 0.38059 0.0
O659 O 0.01347 0.39402 0.41016 0.0
C660 C 0.97328 0.36643 0.43689 0.0
O661 O 0.96285 0.36409 0.3853 0.0
O662 O 0.98646 0.34436 0.37302 0.0
In663 In 0.88391 0.74727 0.65187 0.0
O664 O 0.88356 0.73478 0.68555 0.0
O665 O 0.8685 0.71706 0.66151 0.0
C666 C 0.90498 0.78362 0.65244 0.0
C667 C 0.91335 0.72499 0.63137 0.0
C668 C 0.84564 0.76282 0.64408 0.0
O669 O 0.90445 0.77159 0.66823 0.0
O670 O 0.89439 0.77756 0.63686 0.0
O671 O 0.85611 0.75339 0.63005 0.0
O672 O 0.85458 0.76412 0.66171 0.0
C673 C 0.87337 0.71847 0.68064 0.0
O674 O 0.89521 0.72747 0.62364 0.0
O675 O 0.91606 0.73358 0.64893 0.0
In676 In 0.5012 0.365 0.59642 0.0
O677 O 0.52409 0.35275 0.62153 0.0
O678 O 0.51664 0.33337 0.59546 0.0
C679 C 0.4878 0.40239 0.60992 0.0
C680 C 0.52598 0.37761 0.56495 0.0
C681 C 0.4638 0.34585 0.5993 0.0
O682 O 0.4978 0.39001 0.6218 0.0
O683 O 0.48505 0.39596 0.59137 0.0
O684 O 0.47255 0.34859 0.58169 0.0
O685 O 0.47395 0.35272 0.6148 0.0
C686 C 0.52687 0.33547 0.61222 0.0
O687 O 0.51106 0.36489 0.56184 0.0
O688 O 0.52805 0.38386 0.5836 0.0
In689 In 0.88451 0.24641 0.84346 0.0
O690 O 0.89522 0.26823 0.87034 0.0
O691 O 0.91627 0.26129 0.84552 0.0
C692 C 0.84637 0.23189 0.85315 0.0
C693 C 0.87363 0.27245 0.81232 0.0
C694 C 0.9041 0.20921 0.84512 0.0
O695 O 0.85734 0.24196 0.86633 0.0
O696 O 0.85468 0.22961 0.83531 0.0
O697 O 0.90378 0.22005 0.8285 0.0
O698 O 0.89463 0.21717 0.86052 0.0
C699 C 0.9132 0.27102 0.8624 0.0
O700 O 0.88554 0.25692 0.8091 0.0
O701 O 0.86725 0.27447 0.83093 0.0
In702 In 0.99145 0.63524 0.11112 0.0
O703 O 0.9684 0.63521 0.13867 0.0
O704 O 0.97784 0.6645 0.12571 0.0
C705 C 0.00923 0.59709 0.11214 0.0
C706 C 0.96253 0.63107 0.08067 0.0
C707 C 0.0266 0.65828 0.1142 0.0
O708 O 7e-05 0.60485 0.12791 0.0
O709 O 0.00917 0.60858 0.09604 0.0
O710 O 0.01528 0.65871 0.09786 0.0
O711 O 0.0201 0.6462 0.12847 0.0
C712 C 0.96676 0.65494 0.13898 0.0
O713 O 0.97843 0.64269 0.07819 0.0
O714 O 0.96171 0.62183 0.09809 0.0
In715 In 0.61426 0.74409 0.34647 0.0
O716 O 0.60892 0.72314 0.37534 0.0
O717 O 0.5943 0.71525 0.34627 0.0
C718 C 0.6464 0.76846 0.35801 0.0
C719 C 0.62799 0.72341 0.31251 0.0
C720 C 0.58299 0.77184 0.35166 0.0
O721 O 0.64306 0.75102 0.36688 0.0
O722 O 0.63408 0.77289 0.3432 0.0
O723 O 0.59227 0.77004 0.33422 0.0
O724 O 0.58919 0.75945 0.36573 0.0
C725 C 0.59716 0.7107 0.36528 0.0
O726 O 0.61088 0.73346 0.31242 0.0
O727 O 0.6385 0.72501 0.32921 0.0
In728 In 0.89932 0.50115 0.63297 0.0
O729 O 0.87039 0.52162 0.63981 0.0
O730 O 0.899 0.52716 0.65633 0.0
C731 C 0.89024 0.47767 0.59925 0.0
C732 C 0.93119 0.52536 0.62022 0.0
C733 C 0.89519 0.47271 0.66359 0.0
O734 O 0.87913 0.49332 0.60429 0.0
O735 O 0.90579 0.47435 0.61102 0.0
O736 O 0.91289 0.47635 0.65539 0.0
O737 O 0.88013 0.48308 0.65612 0.0
C738 C 0.88011 0.53225 0.65352 0.0
O739 O 0.93323 0.51228 0.63501 0.0
O740 O 0.91355 0.52509 0.61121 0.0
In741 In 0.74851 0.65225 0.88724 0.0
O742 O 0.72873 0.62424 0.89872 0.0
O743 O 0.73372 0.65017 0.91907 0.0
C744 C 0.76273 0.64422 0.84857 0.0
C745 C 0.72039 0.68123 0.87604 0.0
C746 C 0.78572 0.6521 0.90677 0.0
O747 O 0.75315 0.6304 0.8592 0.0
O748 O 0.76496 0.66169 0.85763 0.0
O749 O 0.77435 0.66836 0.90632 0.0
O750 O 0.7783 0.63639 0.8973 0.0
C751 C 0.72524 0.63254 0.91642 0.0
O752 O 0.73623 0.68598 0.88703 0.0
O753 O 0.71903 0.66218 0.87095 0.0
In754 In 0.59956 0.49999 0.13977 0.0
O755 O 0.62481 0.48916 0.16281 0.0
O756 O 0.61548 0.46786 0.13925 0.0
C757 C 0.60742 0.5151 0.10121 0.0
C758 C 0.56352 0.47785 0.13694 0.0
C759 C 0.59956 0.53521 0.16335 0.0
O760 O 0.62069 0.50401 0.11097 0.0
O761 O 0.59052 0.51832 0.11098 0.0
O762 O 0.58644 0.52066 0.16631 0.0
O763 O 0.61222 0.53197 0.14858 0.0
C764 C 0.62624 0.47089 0.15552 0.0
O765 O 0.57213 0.48165 0.15434 0.0
O766 O 0.57235 0.48635 0.12149 0.0
In767 In 0.75349 0.35329 0.38369 0.0
O768 O 0.76376 0.31901 0.38635 0.0
O769 O 0.77672 0.33802 0.36203 0.0
C770 C 0.72485 0.36111 0.41347 0.0
C771 C 0.78493 0.37243 0.40379 0.0
C772 C 0.73054 0.36108 0.34923 0.0
O773 O 0.72938 0.34243 0.40842 0.0
O774 O 0.7342 0.37504 0.40304 0.0
O775 O 0.74615 0.3723 0.35419 0.0
O776 O 0.7269 0.34596 0.36153 0.0
C777 C 0.77653 0.32047 0.3712 0.0
O778 O 0.77527 0.38154 0.38902 0.0
O779 O 0.77889 0.35411 0.40798 0.0
In780 In 0.89628 0.4925 0.86964 0.0
O781 O 0.93062 0.48273 0.86611 0.0
O782 O 0.91155 0.46787 0.88936 0.0
C783 C 0.8864 0.52394 0.84338 0.0
C784 C 0.87838 0.46145 0.84793 0.0
C785 C 0.89039 0.51188 0.90637 0.0
O786 O 0.90536 0.5188 0.84649 0.0
O787 O 0.87321 0.51343 0.85367 0.0
O788 O 0.8779 0.49789 0.89977 0.0
O789 O 0.90566 0.51584 0.89439 0.0
C790 C 0.92914 0.46886 0.88031 0.0
O791 O 0.86907 0.46966 0.86344 0.0
O792 O 0.89611 0.46906 0.84363 0.0
In793 In 0.74904 0.6458 0.11355 0.0
O794 O 0.76966 0.61901 0.10144 0.0
O795 O 0.75638 0.64033 0.07946 0.0
C796 C 0.74221 0.634 0.15348 0.0
C797 C 0.77735 0.67671 0.11745 0.0
C798 C 0.70972 0.6463 0.09812 0.0
O799 O 0.74706 0.62096 0.13938 0.0
O800 O 0.74144 0.65282 0.14744 0.0
O801 O 0.72193 0.66177 0.09583 0.0
O802 O 0.71732 0.63132 0.1085 0.0
C803 C 0.76792 0.62455 0.08245 0.0
O804 O 0.75788 0.68047 0.11784 0.0
O805 O 0.78222 0.65768 0.11551 0.0
In806 In 0.60272 0.5032 0.36271 0.0
O807 O 0.61819 0.53515 0.35833 0.0
O808 O 0.63188 0.50951 0.34258 0.0
C809 C 0.6148 0.48547 0.39899 0.0
C810 C 0.56909 0.52727 0.3707 0.0
C811 C 0.59287 0.47257 0.33516 0.0
O812 O 0.62763 0.48914 0.38435 0.0
O813 O 0.59607 0.49038 0.39514 0.0
O814 O 0.59252 0.49177 0.33055 0.0
O815 O 0.59714 0.46883 0.3541 0.0
C816 C 0.63203 0.52899 0.34572 0.0
O817 O 0.56997 0.51568 0.35469 0.0
O818 O 0.5849 0.52634 0.38251 0.0
In819 In 0.74298 0.35079 0.61526 0.0
O820 O 0.73022 0.31868 0.60529 0.0
O821 O 0.72227 0.33044 0.6354 0.0
C822 C 0.77339 0.34197 0.58706 0.0
C823 C 0.71422 0.37867 0.601 0.0
C824 C 0.76227 0.36489 0.65006 0.0
O825 O 0.75466 0.34565 0.582 0.0
O826 O 0.77665 0.34174 0.60656 0.0
O827 O 0.75876 0.37662 0.6345 0.0
O828 O 0.75588 0.34632 0.64811 0.0
C829 C 0.72008 0.31602 0.62208 0.0
O830 O 0.70988 0.36392 0.61334 0.0
O831 O 0.73346 0.38027 0.59687 0.0
In832 In 0.63855 0.90765 0.49884 0.0
O833 O 0.63132 0.94071 0.51069 0.0
O834 O 0.62845 0.91483 0.53182 0.0
C835 C 0.66146 0.91206 0.46391 0.0
C836 C 0.66919 0.88813 0.5201 0.0
C837 C 0.60103 0.89678 0.48313 0.0
O838 O 0.66022 0.92651 0.47742 0.0
O839 O 0.65062 0.89596 0.46771 0.0
O840 O 0.61235 0.88372 0.49293 0.0
O841 O 0.60861 0.91502 0.48179 0.0
C842 C 0.62736 0.93435 0.52906 0.0
O843 O 0.6518 0.87907 0.51667 0.0
O844 O 0.67064 0.90635 0.51262 0.0
In845 In 0.13725 0.59795 0.49708 0.0
O846 O 0.14065 0.56358 0.48734 0.0
O847 O 0.1159 0.582 0.47424 0.0
C848 C 0.16522 0.60599 0.52758 0.0
C849 C 0.15771 0.61484 0.46456 0.0
C850 C 0.10063 0.60524 0.51629 0.0
O851 O 0.15979 0.58738 0.5233 0.0
O852 O 0.15612 0.61994 0.51695 0.0
O853 O 0.1078 0.61762 0.5025 0.0
O854 O 0.11227 0.58981 0.52057 0.0
C855 C 0.1253 0.56459 0.47475 0.0
O856 O 0.14332 0.62491 0.47382 0.0
O857 O 0.1617 0.59698 0.47201 0.0
In858 In 0.64715 0.8872 0.74398 0.0
O859 O 0.61768 0.89059 0.72348 0.0
O860 O 0.63294 0.91819 0.73402 0.0
C861 C 0.64138 0.84859 0.75993 0.0
C862 C 0.67638 0.88084 0.71403 0.0
C863 C 0.65109 0.90991 0.77936 0.0
O864 O 0.62662 0.85903 0.75185 0.0
O865 O 0.65895 0.8577 0.75996 0.0
O866 O 0.66332 0.91228 0.76393 0.0
O867 O 0.6374 0.89581 0.77702 0.0
C868 C 0.6182 0.91036 0.72351 0.0
O869 O 0.68079 0.88981 0.73112 0.0
O870 O 0.65753 0.87532 0.71231 0.0
In871 In 0.36565 0.39634 0.00228 0.0
O872 O 0.36528 0.4301 0.99001 0.0
O873 O 0.38142 0.40648 0.9726 0.0
C874 C 0.34647 0.39451 0.03966 0.0
C875 C 0.33626 0.3772 0.97886 0.0
C876 C 0.40432 0.38858 0.01659 0.0
O877 O 0.34717 0.41144 0.02927 0.0
O878 O 0.35537 0.37907 0.0311 0.0
O879 O 0.39347 0.37442 0.00779 0.0
O880 O 0.39556 0.40629 0.01795 0.0
C881 C 0.37613 0.42549 0.97402 0.0
O882 O 0.35428 0.36919 0.9813 0.0
O883 O 0.3335 0.39431 0.98834 0.0
In884 In 0.35736 0.61286 0.74906 0.0
O885 O 0.32627 0.62783 0.73988 0.0
O886 O 0.33342 0.59821 0.72673 0.0
C887 C 0.35545 0.59421 0.78724 0.0
C888 C 0.38337 0.59265 0.72249 0.0
C889 C 0.36949 0.65275 0.75613 0.0
O890 O 0.34194 0.59079 0.77322 0.0
O891 O 0.36929 0.60722 0.78204 0.0
O892 O 0.38254 0.63848 0.75192 0.0
O893 O 0.35064 0.64686 0.75633 0.0
C894 C 0.32086 0.61344 0.72746 0.0
O895 O 0.37484 0.60991 0.7179 0.0
O896 O 0.37945 0.58617 0.74074 0.0
In897 In 0.86095 0.09749 0.99472 0.0
O898 O 0.86313 0.06315 0.00505 0.0
O899 O 0.87708 0.08663 0.02429 0.0
C900 C 0.84112 0.09427 0.95746 0.0
C901 C 0.83192 0.11634 0.01903 0.0
C902 C 0.89868 0.11126 0.98232 0.0
O903 O 0.84173 0.07921 0.97031 0.0
O904 O 0.85086 0.11045 0.96324 0.0
O905 O 0.88457 0.1237 0.98858 0.0
O906 O 0.89356 0.09212 0.98214 0.0
C907 C 0.87309 0.06745 0.02165 0.0
O908 O 0.84956 0.12466 0.01562 0.0
O909 O 0.82908 0.09913 0.00984 0.0
In910 In 0.64573 0.10914 0.74709 0.0
O911 O 0.6786 0.10223 0.76034 0.0
O912 O 0.65939 0.12488 0.77549 0.0
C913 C 0.64568 0.08828 0.71063 0.0
C914 C 0.61906 0.08541 0.76979 0.0
C915 C 0.64105 0.1475 0.73046 0.0
O916 O 0.66082 0.08689 0.72341 0.0
O917 O 0.63111 0.10047 0.71617 0.0
O918 O 0.6261 0.13805 0.73949 0.0
O919 O 0.65816 0.13757 0.73012 0.0
C920 C 0.67661 0.11525 0.77514 0.0
O921 O 0.61851 0.10519 0.77046 0.0
O922 O 0.63271 0.07796 0.7577 0.0
In923 In 0.84168 0.88629 0.24829 0.0
O924 O 0.86886 0.89569 0.27023 0.0
O925 O 0.8417 0.91507 0.26802 0.0
C926 C 0.85125 0.85071 0.22829 0.0
C927 C 0.81038 0.87414 0.27338 0.0
C928 C 0.84616 0.91344 0.21685 0.0
O929 O 0.86242 0.85758 0.24322 0.0
O930 O 0.83555 0.86185 0.22368 0.0
O931 O 0.82816 0.90675 0.22197 0.0
O932 O 0.86138 0.90573 0.22687 0.0
C933 C 0.8597 0.91247 0.27572 0.0
O934 O 0.8076 0.8875 0.25897 0.0
O935 O 0.82859 0.86649 0.27438 0.0
In936 In 0.49762 0.3682 0.10574 0.0
O937 O 0.48151 0.38892 0.08165 0.0
O938 O 0.48126 0.3562 0.07604 0.0
C939 C 0.53101 0.3426 0.09961 0.0
C940 C 0.46987 0.35136 0.13317 0.0
C941 C 0.51291 0.40545 0.11819 0.0
O942 O 0.51308 0.3388 0.09229 0.0
O943 O 0.53232 0.35972 0.1093 0.0
O944 O 0.50421 0.39294 0.13091 0.0
O945 O 0.51377 0.39906 0.09947 0.0
C946 C 0.4755 0.37413 0.07004 0.0
O947 O 0.465 0.36529 0.12006 0.0
O948 O 0.48909 0.34689 0.1334 0.0
In949 In 0.38419 0.74439 0.84381 0.0
O950 O 0.36817 0.73215 0.81465 0.0
O951 O 0.40113 0.7284 0.81631 0.0
C952 C 0.40464 0.78123 0.84758 0.0
C953 C 0.40231 0.71573 0.86938 0.0
C954 C 0.34455 0.75626 0.85207 0.0
O955 O 0.40672 0.76988 0.83146 0.0
O956 O 0.39227 0.77399 0.86113 0.0
O957 O 0.3544 0.74395 0.86412 0.0
O958 O 0.35463 0.76195 0.83604 0.0
C959 C 0.38447 0.72496 0.80619 0.0
O960 O 0.38681 0.71136 0.85789 0.0
O961 O 0.40787 0.73463 0.86868 0.0
In962 In 0.00415 0.63445 0.59944 0.0
O963 O 0.01627 0.63831 0.56582 0.0
O964 O 0.02623 0.61197 0.58387 0.0
C965 C 0.97549 0.66497 0.60457 0.0
C966 C 0.03648 0.65227 0.61946 0.0
C967 C 0.98285 0.59889 0.60687 0.0
O968 O 0.97873 0.65692 0.58674 0.0
O969 O 0.98619 0.65731 0.61929 0.0
O970 O 0.99746 0.60505 0.61879 0.0
O971 O 0.97879 0.61101 0.59175 0.0
C972 C 0.02753 0.62197 0.56685 0.0
O973 O 0.02435 0.63969 0.62889 0.0
O974 O 0.03213 0.6556 0.60047 0.0
In975 In 0.1129 0.2525 0.3558 0.0
O976 O 0.13035 0.26633 0.32828 0.0
O977 O 0.09721 0.26817 0.32729 0.0
C978 C 0.09404 0.21464 0.3581 0.0
C979 C 0.09316 0.28114 0.38001 0.0
C980 C 0.15245 0.24229 0.36584 0.0
O981 O 0.09226 0.22616 0.34207 0.0
O982 O 0.10538 0.22221 0.37234 0.0
O983 O 0.1405 0.2513 0.37885 0.0
O984 O 0.14434 0.23853 0.3482 0.0
C985 C 0.1144 0.27285 0.31867 0.0
O986 O 0.11073 0.28466 0.37166 0.0
O987 O 0.0862 0.26294 0.37699 0.0
In988 In 0.4967 0.63397 0.39417 0.0
O989 O 0.47043 0.63817 0.36992 0.0
O990 O 0.48523 0.66536 0.38229 0.0
C991 C 0.51284 0.59595 0.38693 0.0
C992 C 0.47202 0.62653 0.42744 0.0
C993 C 0.53392 0.65309 0.39078 0.0
O994 O 0.50238 0.60565 0.37312 0.0
O995 O 0.51464 0.60539 0.40424 0.0
O996 O 0.52345 0.65392 0.40765 0.0
O997 O 0.5254 0.6429 0.37612 0.0
C998 C 0.4716 0.65792 0.37015 0.0
O999 O 0.48533 0.64124 0.42772 0.0
O1000 O 0.47128 0.61624 0.41063 0.0
In1001 In 0.11861 0.74775 0.1453 0.0
O1002 O 0.10751 0.72445 0.11998 0.0
O1003 O 0.08902 0.72906 0.14751 0.0
C1004 C 0.15612 0.7633 0.13462 0.0
C1005 C 0.1305 0.72284 0.17686 0.0
C1006 C 0.09678 0.78343 0.14069 0.0
O1007 O 0.14527 0.75267 0.12182 0.0
O1008 O 0.14815 0.76553 0.15262 0.0
O1009 O 0.09968 0.77543 0.15863 0.0
O1010 O 0.10456 0.77326 0.12565 0.0
C1011 C 0.09144 0.71937 0.13048 0.0
O1012 O 0.11857 0.73845 0.17989 0.0
O1013 O 0.13691 0.7206 0.15825 0.0
In1014 In 0.00271 0.36096 0.90181 0.0
O1015 O 0.026 0.35496 0.87494 0.0
O1016 O 0.02778 0.33654 0.90288 0.0
C1017 C 0.9827 0.39714 0.89448 0.0
C1018 C 0.02454 0.37239 0.93569 0.0
C1019 C 0.97327 0.33247 0.89234 0.0
O1020 O 0.99754 0.39094 0.88284 0.0
O1021 O 0.978 0.38489 0.90933 0.0
O1022 O 0.97644 0.33795 0.91118 0.0
O1023 O 0.98427 0.34189 0.87889 0.0
C1024 C 0.03503 0.3403 0.88488 0.0
O1025 O 0.01185 0.35709 0.93631 0.0
O1026 O 0.02534 0.38204 0.91841 0.0
In1027 In 0.37934 0.25754 0.6432 0.0
O1028 O 0.38577 0.27826 0.61425 0.0
O1029 O 0.40173 0.28446 0.64301 0.0
C1030 C 0.34416 0.23566 0.636 0.0
C1031 C 0.3663 0.28061 0.67563 0.0
C1032 C 0.40893 0.22789 0.63908 0.0
O1033 O 0.35055 0.24943 0.62318 0.0
O1034 O 0.35574 0.23294 0.65179 0.0
O1035 O 0.40165 0.23273 0.65688 0.0
O1036 O 0.40116 0.23783 0.62388 0.0
C1037 C 0.39889 0.28946 0.62412 0.0
O1038 O 0.38226 0.26887 0.67698 0.0
O1039 O 0.35691 0.28017 0.6582 0.0
In1040 In 0.09588 0.49777 0.36555 0.0
O1041 O 0.12028 0.47286 0.35627 0.0
O1042 O 0.09409 0.47859 0.33629 0.0
C1043 C 0.10536 0.51335 0.4033 0.0
C1044 C 0.06237 0.47535 0.37686 0.0
C1045 C 0.10473 0.53202 0.3427 0.0
O1046 O 0.11729 0.50037 0.39414 0.0
O1047 O 0.08894 0.5182 0.3933 0.0
O1048 O 0.08595 0.52646 0.34607 0.0
O1049 O 0.11844 0.52039 0.35097 0.0
C1050 C 0.11053 0.46815 0.3396 0.0
O1051 O 0.06092 0.48983 0.3633 0.0
O1052 O 0.08033 0.47291 0.3848 0.0
In1053 In 0.25429 0.35165 0.1198 0.0
O1054 O 0.26622 0.31808 0.11603 0.0
O1055 O 0.27655 0.33618 0.14226 0.0
C1056 C 0.22488 0.35794 0.09031 0.0
C1057 C 0.28667 0.37109 0.10148 0.0
C1058 C 0.23158 0.35738 0.15472 0.0
O1059 O 0.2298 0.33963 0.09618 0.0
O1060 O 0.23471 0.37251 0.09934 0.0
O1061 O 0.24589 0.3701 0.14939 0.0
O1062 O 0.22893 0.34215 0.14236 0.0
C1063 C 0.27763 0.31913 0.13227 0.0
O1064 O 0.27566 0.38046 0.11509 0.0
O1065 O 0.28109 0.35262 0.09727 0.0
In1066 In 0.39672 0.50166 0.86736 0.0
O1067 O 0.36834 0.52373 0.86371 0.0
O1068 O 0.39479 0.52729 0.84347 0.0
C1069 C 0.39199 0.48017 0.90318 0.0
C1070 C 0.43062 0.52408 0.87751 0.0
C1071 C 0.3881 0.47114 0.83967 0.0
O1072 O 0.37964 0.49487 0.89813 0.0
O1073 O 0.40649 0.47664 0.89018 0.0
O1074 O 0.40667 0.47758 0.84243 0.0
O1075 O 0.37447 0.4802 0.85072 0.0
C1076 C 0.3769 0.53366 0.84881 0.0
O1077 O 0.43074 0.51144 0.86219 0.0
O1078 O 0.41379 0.52454 0.88792 0.0
In1079 In 0.25329 0.64414 0.62002 0.0
O1080 O 0.2441 0.67877 0.61925 0.0
O1081 O 0.22565 0.65737 0.6373 0.0
C1082 C 0.29057 0.64083 0.60089 0.0
C1083 C 0.22735 0.62902 0.59035 0.0
C1084 C 0.26675 0.63192 0.65787 0.0
O1085 O 0.28195 0.6585 0.60358 0.0
O1086 O 0.2803 0.62538 0.60773 0.0
O1087 O 0.25728 0.61942 0.64566 0.0
O1088 O 0.26884 0.6504 0.65107 0.0
C1089 C 0.22826 0.67591 0.63088 0.0
O1090 O 0.22936 0.61981 0.60784 0.0
O1091 O 0.2388 0.64493 0.58806 0.0
In1092 In 0.09578 0.50126 0.13198 0.0
O1093 O 0.12173 0.52446 0.14166 0.0
O1094 O 0.09534 0.51972 0.16167 0.0
C1095 C 0.10412 0.48511 0.09427 0.0
C1096 C 0.06333 0.52544 0.12132 0.0
C1097 C 0.10208 0.46598 0.15396 0.0
O1098 O 0.11673 0.49765 0.10316 0.0
O1099 O 0.08754 0.48123 0.10441 0.0
O1100 O 0.0838 0.4732 0.15106 0.0
O1101 O 0.11664 0.4767 0.14594 0.0
C1102 C 0.11224 0.52942 0.1584 0.0
O1103 O 0.06137 0.51071 0.13451 0.0
O1104 O 0.08136 0.52741 0.1134 0.0
In1105 In 0.24773 0.34462 0.88558 0.0
O1106 O 0.23793 0.31042 0.89055 0.0
O1107 O 0.22771 0.32638 0.86301 0.0
C1108 C 0.27593 0.35105 0.91632 0.0
C1109 C 0.21451 0.36341 0.90324 0.0
C1110 C 0.26828 0.35404 0.85002 0.0
O1111 O 0.27371 0.33316 0.90807 0.0
O1112 O 0.26455 0.36522 0.90865 0.0
O1113 O 0.25239 0.36432 0.85593 0.0
O1114 O 0.27386 0.33961 0.86235 0.0
C1115 C 0.22733 0.30979 0.87378 0.0
O1116 O 0.22662 0.37333 0.89106 0.0
O1117 O 0.21907 0.34439 0.90596 0.0
In1118 In 0.40185 0.49717 0.63537 0.0
O1119 O 0.42851 0.48318 0.61663 0.0
O1120 O 0.42794 0.47641 0.64913 0.0
C1121 C 0.40504 0.53088 0.66084 0.0
C1122 C 0.37237 0.4703 0.65007 0.0
C1123 C 0.39515 0.51333 0.59705 0.0
O1124 O 0.41646 0.51488 0.66313 0.0
O1125 O 0.39258 0.52993 0.64557 0.0
O1126 O 0.38132 0.50251 0.6063 0.0
O1127 O 0.41185 0.51599 0.6073 0.0
C1128 C 0.43677 0.47345 0.63168 0.0
O1129 O 0.38464 0.46575 0.63529 0.0
O1130 O 0.374 0.4889 0.65642 0.0
In1131 In 0.25406 0.64878 0.38287 0.0
O1132 O 0.27691 0.62385 0.39541 0.0
O1133 O 0.26918 0.65036 0.4143 0.0
C1134 C 0.2388 0.6413 0.34465 0.0
C1135 C 0.27988 0.67954 0.3714 0.0
C1136 C 0.21828 0.6413 0.40336 0.0
O1137 O 0.25061 0.62813 0.35381 0.0
O1138 O 0.23506 0.65785 0.35489 0.0
O1139 O 0.22549 0.65978 0.40166 0.0
O1140 O 0.22909 0.62722 0.3946 0.0
C1141 C 0.27941 0.63353 0.41264 0.0
O1142 O 0.26397 0.6832 0.38278 0.0
O1143 O 0.28229 0.66065 0.36592 0.0
In1144 In 0.35605 0.09764 0.49964 0.0
O1145 O 0.35011 0.06531 0.4845 0.0
O1146 O 0.37569 0.08379 0.47396 0.0
C1147 C 0.33313 0.0921 0.53447 0.0
C1148 C 0.33481 0.12635 0.47651 0.0
C1149 C 0.39285 0.10435 0.51887 0.0
O1150 O 0.33108 0.08021 0.5187 0.0
O1151 O 0.34673 0.10635 0.53254 0.0
O1152 O 0.38291 0.11902 0.50993 0.0
O1153 O 0.38412 0.08662 0.51797 0.0
C1154 C 0.36571 0.06688 0.4724 0.0
O1155 O 0.35418 0.12329 0.47431 0.0
O1156 O 0.3264 0.11535 0.49052 0.0
In1157 In 0.86355 0.38724 0.5053 0.0
O1158 O 0.85692 0.36055 0.52872 0.0
O1159 O 0.83119 0.37637 0.51484 0.0
C1160 C 0.90212 0.37844 0.49077 0.0
C1161 C 0.87101 0.41776 0.53347 0.0
C1162 C 0.84326 0.39115 0.46852 0.0
O1163 O 0.8895 0.36417 0.49629 0.0
O1164 O 0.89519 0.39686 0.49269 0.0
O1165 O 0.84197 0.40495 0.48271 0.0
O1166 O 0.85511 0.3759 0.47282 0.0
C1167 C 0.83727 0.36254 0.52752 0.0
O1168 O 0.86144 0.4214 0.5165 0.0
O1169 O 0.87663 0.39899 0.53595 0.0
In1170 In 0.34584 0.11384 0.2532 0.0
O1171 O 0.37316 0.10447 0.27476 0.0
O1172 O 0.34368 0.08885 0.27767 0.0
C1173 C 0.35673 0.14918 0.23321 0.0
C1174 C 0.31413 0.12816 0.27664 0.0
C1175 C 0.35055 0.08482 0.22326 0.0
O1176 O 0.36745 0.14199 0.2483 0.0
O1177 O 0.34095 0.13829 0.22824 0.0
O1178 O 0.33273 0.09282 0.22687 0.0
O1179 O 0.36544 0.09202 0.23407 0.0
C1180 C 0.36237 0.0905 0.28392 0.0
O1181 O 0.31142 0.11367 0.26331 0.0
O1182 O 0.33243 0.13566 0.2773 0.0
In1183 In 0.63289 0.60032 0.00611 0.0
O1184 O 0.63705 0.63032 0.02595 0.0
O1185 O 0.65136 0.60184 0.03598 0.0
C1186 C 0.59794 0.60803 0.98371 0.0
C1187 C 0.62273 0.56571 0.02788 0.0
C1188 C 0.66413 0.60615 0.97822 0.0
O1189 O 0.60279 0.61884 -0.0004 0.0
O1190 O 0.61076 0.59364 0.9793 0.0
O1191 O 0.65584 0.58833 0.98086 0.0
O1192 O 0.65663 0.62049 0.98951 0.0
C1193 C 0.64814 0.62098 0.03949 0.0
O1194 O 0.63955 0.56694 0.01742 0.0
O1195 O 0.61079 0.58142 0.02628 0.0
In1196 In 0.64185 0.3863 0.25284 0.0
O1197 O 0.61475 0.39103 0.27628 0.0
O1198 O 0.62867 0.41778 0.2623 0.0
C1199 C 0.63463 0.34856 0.23557 0.0
C1200 C 0.67217 0.37869 0.28142 0.0
C1201 C 0.64529 0.40831 0.21699 0.0
O1202 O 0.6201 0.35928 0.24374 0.0
O1203 O 0.65258 0.35685 0.23652 0.0
O1204 O 0.65877 0.40974 0.2315 0.0
O1205 O 0.6305 0.39565 0.22057 0.0
C1206 C 0.61519 0.41075 0.27483 0.0
O1207 O 0.67547 0.38995 0.26545 0.0
O1208 O 0.65386 0.37143 0.28269 0.0
In1209 In 0.13195 0.89948 0.99777 0.0
O1210 O 0.14264 0.87109 0.978 0.0
O1211 O 0.1625 0.89773 0.98063 0.0
C1212 C 0.09348 0.8917 0.01255 0.0
C1213 C 0.12032 0.929 0.97031 0.0
C1214 C 0.153 0.89941 0.03425 0.0
O1215 O 0.1039 0.87784 0.00285 0.0
O1216 O 0.10269 0.90908 0.0148 0.0
O1217 O 0.15226 0.91548 0.02264 0.0
O1218 O 0.14311 0.88369 0.02744 0.0
C1219 C 0.15971 0.87981 0.97285 0.0
O1220 O 0.13184 0.93337 0.98587 0.0
O1221 O 0.1148 0.91005 0.96895 0.0
In1222 In 0.3482 0.88561 0.24327 0.0
O1223 O 0.36389 0.88731 0.21082 0.0
O1224 O 0.37227 0.91004 0.23345 0.0
C1225 C 0.35526 0.84651 0.25722 0.0
C1226 C 0.31071 0.88437 0.22374 0.0
C1227 C 0.35193 0.90586 0.2801 0.0
O1228 O 0.36778 0.85542 0.24464 0.0
O1229 O 0.33948 0.85729 0.26221 0.0
O1230 O 0.33603 0.9084 0.2685 0.0
O1231 O 0.36542 0.89338 0.27293 0.0
C1232 C 0.37444 0.9035 0.21499 0.0
O1233 O 0.32088 0.86838 0.22915 0.0
O1234 O 0.31924 0.90158 0.22857 0.0
In1235 In 0.13933 0.11309 0.74092 0.0
O1236 O 0.17295 0.10779 0.72979 0.0
O1237 O 0.15542 0.13351 0.7173 0.0
C1238 C 0.13129 0.08613 0.77222 0.0
C1239 C 0.11963 0.09387 0.70942 0.0
C1240 C 0.13611 0.14937 0.76171 0.0
O1241 O 0.14987 0.08985 0.7663 0.0
O1242 O 0.11726 0.096 0.76237 0.0
O1243 O 0.12234 0.14376 0.74851 0.0
O1244 O 0.15092 0.13653 0.76435 0.0
C1245 C 0.17236 0.12327 0.71733 0.0
O1246 O 0.11128 0.10944 0.71848 0.0
O1247 O 0.13717 0.08819 0.7165 0.0
C1248 C 0.05002 0.17488 0.35398 0.0
C1249 C 0.05205 0.16401 0.37301 0.0
C1250 C 0.06464 0.19038 0.3483 0.0
C1251 C 0.08168 0.19528 0.3615 0.0
H1252 H 0.03627 0.17258 0.34428 0.0
H1253 H 0.0618 0.19946 0.33424 0.0
S1254 S 0.09561 0.16815 0.41115 0.0
N1255 N 0.07347 0.15707 0.40364 0.0
N1256 N 0.10122 0.18565 0.39291 0.0
C1257 C 0.0848 0.18298 0.37957 0.0
C1258 C 0.06986 0.16748 0.38537 0.0
C1259 C 0.05979 0.80999 0.60249 0.0
C1260 C 0.04408 0.8169 0.61632 0.0
C1261 C 0.07494 0.79532 0.60897 0.0
C1262 C 0.07455 0.78685 0.62936 0.0
H1263 H 0.06058 0.81619 0.58669 0.0
H1264 H 0.08696 0.79058 0.59797 0.0
S1265 S 0.03581 0.79914 0.67114 0.0
N1266 N 0.02864 0.81371 0.65103 0.0
N1267 N 0.05668 0.7862 0.66313 0.0
C1268 C 0.05861 0.79342 0.64315 0.0
C1269 C 0.04348 0.80844 0.63665 0.0
C1270 C 0.41457 0.81036 0.87133 0.0
C1271 C 0.41714 0.80031 0.85186 0.0
C1272 C 0.42831 0.82605 0.87789 0.0
C1273 C 0.44491 0.83265 0.86509 0.0
H1274 H 0.40249 0.80536 0.88217 0.0
H1275 H 0.42644 0.83248 0.8935 0.0
S1276 S 0.45719 0.81333 0.81175 0.0
N1277 N 0.43661 0.79939 0.81906 0.0
N1278 N 0.46232 0.8294 0.8314 0.0
C1279 C 0.44683 0.82397 0.84496 0.0
C1280 C 0.43295 0.80765 0.83833 0.0
C1281 C 0.44772 0.19242 0.10017 0.0
C1282 C 0.45828 0.17907 0.11426 0.0
C1283 C 0.43332 0.2075 0.10741 0.0
C1284 C 0.42931 0.20979 0.12896 0.0
H1285 H 0.45082 0.19146 0.0835 0.0
H1286 H 0.42576 0.21776 0.09619 0.0
S1287 S 0.45097 0.17725 0.17207 0.0
N1288 N 0.46224 0.16814 0.15067 0.0
N1289 N 0.43558 0.1964 0.16408 0.0
C1290 C 0.43921 0.19608 0.14306 0.0
C1291 C 0.45361 0.18074 0.13577 0.0
C1292 C 0.05218 0.82251 0.14406 0.0
C1293 C 0.05375 0.83271 0.12457 0.0
C1294 C 0.06714 0.80748 0.15014 0.0
C1295 C 0.08397 0.80232 0.13684 0.0
H1296 H 0.03854 0.82493 0.15388 0.0
H1297 H 0.06469 0.79885 0.16456 0.0
S1298 S 0.09714 0.82786 0.08625 0.0
N1299 N 0.07498 0.83898 0.09359 0.0
N1300 N 0.10302 0.81095 0.10495 0.0
C1301 C 0.08667 0.81391 0.1183 0.0
C1302 C 0.07155 0.82908 0.11217 0.0
C1303 C 0.42611 0.81626 0.36178 0.0
C1304 C 0.41935 0.7994 0.37421 0.0
C1305 C 0.44046 0.83088 0.36937 0.0
C1306 C 0.44892 0.82914 0.38966 0.0
H1307 H 0.42078 0.81781 0.34571 0.0
H1308 H 0.44564 0.84313 0.3588 0.0
S1309 S 0.43466 0.78899 0.42927 0.0
N1310 N 0.42063 0.78269 0.40842 0.0
N1311 N 0.44809 0.81017 0.42277 0.0
C1312 C 0.44132 0.81311 0.4028 0.0
C1313 C 0.4264 0.79822 0.39504 0.0
C1314 C 0.43734 0.21317 0.61725 0.0
C1315 C 0.4254 0.21203 0.6357 0.0
C1316 C 0.45195 0.19772 0.61228 0.0
C1317 C 0.45511 0.18027 0.6254 0.0
H1318 H 0.43521 0.22602 0.60634 0.0
H1319 H 0.46042 0.19927 0.59763 0.0
S1320 S 0.42853 0.17043 0.67618 0.0
N1321 N 0.41829 0.19269 0.66777 0.0
N1322 N 0.44571 0.16322 0.65821 0.0
C1323 C 0.44375 0.1792 0.64427 0.0
C1324 C 0.42892 0.1952 0.64949 0.0
C1325 C 0.0704 0.18295 0.86352 0.0
C1326 C 0.07795 0.19799 0.87767 0.0
C1327 C 0.0549 0.1687 0.86937 0.0
C1328 C 0.04595 0.16915 0.88953 0.0
H1329 H 0.0762 0.18251 0.84755 0.0
H1330 H 0.04934 0.15778 0.85762 0.0
S1331 S 0.06127 0.20483 0.93284 0.0
N1332 N 0.07646 0.21188 0.91306 0.0
N1333 N 0.0467 0.18525 0.92412 0.0
C1334 C 0.05394 0.18362 0.90417 0.0
C1335 C 0.07012 0.198 0.89823 0.0
C1336 C 0.35353 0.05311 0.17309 0.0
C1337 C 0.36805 0.03743 0.17866 0.0
C1338 C 0.34663 0.06791 0.18794 0.0
C1339 C 0.35419 0.06739 0.20863 0.0
H1340 H 0.34837 0.05465 0.15698 0.0
H1341 H 0.33636 0.08047 0.18293 0.0
S1342 S 0.38922 0.02737 0.23197 0.0
N1343 N 0.3873 0.02067 0.20706 0.0
N1344 N 0.37466 0.04857 0.23461 0.0
C1345 C 0.36744 0.05094 0.21467 0.0
C1346 C 0.37429 0.0359 0.19976 0.0
C1347 C 0.19185 0.0936 0.43968 0.0
C1348 C 0.17124 0.10135 0.44003 0.0
C1349 C 0.20637 0.10096 0.42489 0.0
C1350 C 0.20066 0.1161 0.40985 0.0
H1351 H 0.19727 0.08313 0.45191 0.0
H1352 H 0.22249 0.09581 0.42618 0.0
S1353 S 0.14731 0.13787 0.40168 0.0
N1354 N 0.14497 0.12249 0.42237 0.0
N1355 N 0.17203 0.13599 0.39428 0.0
C1356 C 0.17948 0.12219 0.40871 0.0
C1357 C 0.16482 0.11492 0.42393 0.0
C1358 C 0.14754 0.94549 0.67177 0.0
C1359 C 0.13287 0.96134 0.67637 0.0
C1360 C 0.15415 0.93129 0.68735 0.0
C1361 C 0.14613 0.93252 0.70784 0.0
H1362 H 0.15311 0.94336 0.65588 0.0
H1363 H 0.16455 0.91859 0.68304 0.0
S1364 S 0.1104 0.97321 0.72877 0.0
N1365 N 0.1129 0.97902 0.70368 0.0
N1366 N 0.12497 0.95218 0.73255 0.0
C1367 C 0.13268 0.94913 0.71291 0.0
C1368 C 0.12615 0.96361 0.69727 0.0
C1369 C 0.3108 0.85245 0.93629 0.0
C1370 C 0.29979 0.86651 0.92342 0.0
C1371 C 0.32476 0.85958 0.95152 0.0
C1372 C 0.32821 0.88112 0.9547 0.0
H1373 H 0.3084 0.8357 0.93483 0.0
H1374 H 0.33257 0.848 0.96119 0.0
S1375 S 0.30396 0.92447 0.92443 0.0
N1376 N 0.2938 0.90299 0.91415 0.0
N1377 N 0.32009 0.91654 0.94309 0.0
C1378 C 0.31776 0.89543 0.94156 0.0
C1379 C 0.30356 0.88809 0.92581 0.0
C1380 C 0.34914 0.94912 0.32085 0.0
C1381 C 0.36772 0.94581 0.33219 0.0
C1382 C 0.3433 0.93537 0.30465 0.0
C1383 C 0.35583 0.91794 0.29951 0.0
H1384 H 0.33991 0.96311 0.32352 0.0
H1385 H 0.32955 0.93907 0.29539 0.0
S1386 S 0.40406 0.90087 0.32741 0.0
N1387 N 0.39723 0.92292 0.33907 0.0
N1388 N 0.38614 0.89675 0.30919 0.0
C1389 C 0.3735 0.91366 0.31207 0.0
C1390 C 0.37949 0.92773 0.32827 0.0
C1391 C 0.31227 0.10529 0.5879 0.0
C1392 C 0.2906 0.10199 0.58552 0.0
C1393 C 0.32628 0.1003 0.57182 0.0
C1394 C 0.3192 0.09152 0.55291 0.0
H1395 H 0.3183 0.11341 0.60155 0.0
H1396 H 0.3426 0.10461 0.57369 0.0
S1397 S 0.26462 0.07608 0.54034 0.0
N1398 N 0.26311 0.08661 0.56394 0.0
N1399 N 0.28964 0.07697 0.53378 0.0
C1400 C 0.29797 0.08591 0.55123 0.0
C1401 C 0.2836 0.09118 0.56758 0.0
C1402 C 0.09873 0.04978 0.80566 0.0
C1403 C 0.1132 0.04146 0.82005 0.0
C1404 C 0.10486 0.06429 0.7905 0.0
C1405 C 0.12579 0.07095 0.78885 0.0
H1406 H 0.0824 0.04511 0.8061 0.0
H1407 H 0.09303 0.07013 0.7798 0.0
S1408 S 0.16987 0.05404 0.82283 0.0
N1409 N 0.14939 0.04107 0.83197 0.0
N1410 N 0.16109 0.0683 0.80306 0.0
C1411 C 0.14051 0.06284 0.80315 0.0
C1412 C 0.13416 0.04814 0.81888 0.0
C1413 C 0.20069 0.90373 0.06896 0.0
C1414 C 0.19646 0.88891 0.08474 0.0
C1415 C 0.18576 0.90842 0.05351 0.0
C1416 C 0.16636 0.89798 0.05305 0.0
H1417 H 0.216 0.91102 0.06797 0.0
H1418 H 0.19002 0.91914 0.04104 0.0
S1419 S 0.14688 0.85942 0.09195 0.0
N1420 N 0.17074 0.86531 0.10008 0.0
N1421 N 0.14295 0.87363 0.07066 0.0
C1422 C 0.16147 0.88409 0.06943 0.0
C1423 C 0.17647 0.87969 0.08542 0.0
C1424 C 0.20958 0.38248 0.0644 0.0
C1425 C 0.20919 0.36261 0.07389 0.0
C1426 C 0.19476 0.38818 0.04938 0.0
C1427 C 0.17869 0.37436 0.04331 0.0
H1428 H 0.22147 0.39385 0.06861 0.0
H1429 H 0.19581 0.40377 0.04272 0.0
S1430 S 0.17078 0.32029 0.0632 0.0
N1431 N 0.19166 0.32882 0.07595 0.0
N1432 N 0.16339 0.33971 0.04773 0.0
C1433 C 0.17812 0.35432 0.05251 0.0
C1434 C 0.19349 0.34839 0.06777 0.0
C1435 C 0.69722 0.13621 0.95969 0.0
C1436 C 0.67584 0.13581 0.95434 0.0
C1437 C 0.71248 0.14198 0.94502 0.0
C1438 C 0.70692 0.14715 0.92433 0.0
H1439 H 0.70229 0.13116 0.9751 0.0
H1440 H 0.72881 0.14104 0.94959 0.0
S1441 S 0.65288 0.15079 0.9031 0.0
N1442 N 0.64968 0.14305 0.92761 0.0
N1443 N 0.67842 0.15349 0.89979 0.0
C1444 C 0.68549 0.14813 0.91916 0.0
C1445 C 0.66991 0.14257 0.93424 0.0
C1446 C 0.09628 0.42307 0.19491 0.0
C1447 C 0.11688 0.41546 0.19642 0.0
C1448 C 0.0912 0.43884 0.18035 0.0
C1449 C 0.10656 0.44727 0.1669 0.0
H1450 H 0.0844 0.41773 0.2058 0.0
H1451 H 0.07543 0.44512 0.18034 0.0
S1452 S 0.16187 0.42958 0.16252 0.0
N1453 N 0.15198 0.41544 0.18179 0.0
N1454 N 0.14252 0.44466 0.1543 0.0
C1455 C 0.1268 0.4385 0.16731 0.0
C1456 C 0.13193 0.42269 0.18214 0.0
C1457 C 0.8156 0.85406 0.41849 0.0
C1458 C 0.79554 0.84756 0.42494 0.0
C1459 C 0.83161 0.85765 0.43313 0.0
C1460 C 0.82787 0.85535 0.45471 0.0
H1461 H 0.81869 0.85735 0.40212 0.0
H1462 H 0.84644 0.86382 0.42762 0.0
S1463 S 0.77889 0.83635 0.47951 0.0
N1464 N 0.77355 0.83681 0.45418 0.0
N1465 N 0.80344 0.84427 0.48172 0.0
C1466 C 0.80835 0.84754 0.46125 0.0
C1467 C 0.79221 0.84344 0.44633 0.0
C1468 C 0.90012 0.06973 0.19769 0.0
C1469 C 0.88132 0.08108 0.19627 0.0
C1470 C 0.90545 0.05488 0.18225 0.0
C1471 C 0.89209 0.0511 0.16505 0.0
H1472 H 0.91003 0.07135 0.21139 0.0
H1473 H 0.91939 0.04547 0.18448 0.0
S1474 S 0.84278 0.0796 0.15289 0.0
N1475 N 0.85063 0.08945 0.17549 0.0
N1476 N 0.86065 0.06207 0.14633 0.0
C1477 C 0.87412 0.0637 0.16279 0.0
C1478 C 0.8687 0.07855 0.17848 0.0
C1479 C 0.31568 0.65194 0.57279 0.0
C1480 C 0.30997 0.63772 0.58869 0.0
C1481 C 0.33096 0.64658 0.55783 0.0
C1482 C 0.34082 0.6269 0.55848 0.0
H1483 H 0.30724 0.66655 0.57094 0.0
H1484 H 0.33378 0.65712 0.54481 0.0
S1485 S 0.33468 0.58617 0.59943 0.0
N1486 N 0.3179 0.6047 0.60609 0.0
N1487 N 0.34627 0.59464 0.5779 0.0
C1488 C 0.3367 0.61352 0.57543 0.0
C1489 C 0.32134 0.61894 0.5906 0.0
C1490 C 0.13937 0.56915 0.31237 0.0
C1491 C 0.12523 0.58056 0.29994 0.0
C1492 C 0.13236 0.55424 0.32674 0.0
C1493 C 0.11089 0.54988 0.32917 0.0
H1494 H 0.15612 0.57139 0.31062 0.0
H1495 H 0.14405 0.54559 0.33552 0.0
S1496 S 0.0673 0.57653 0.30134 0.0
N1497 N 0.0887 0.58756 0.29177 0.0
N1498 N 0.07536 0.55915 0.31879 0.0
C1499 C 0.09644 0.56184 0.31753 0.0
C1500 C 0.10365 0.57729 0.30291 0.0
C1501 C 0.39644 0.44831 0.8086 0.0
C1502 C 0.38223 0.45489 0.82419 0.0
C1503 C 0.39016 0.43441 0.79266 0.0
C1504 C 0.36946 0.42695 0.7918 0.0
H1505 H 0.41228 0.4544 0.80835 0.0
H1506 H 0.40125 0.43016 0.78053 0.0
S1507 S 0.3272 0.43682 0.83044 0.0
N1508 N 0.34721 0.45086 0.83889 0.0
N1509 N 0.33551 0.42518 0.80891 0.0
C1510 C 0.3555 0.43256 0.80783 0.0
C1511 C 0.36186 0.44643 0.82405 0.0
C1512 C 0.91428 0.81869 0.63809 0.0
C1513 C 0.91972 0.80126 0.65049 0.0
C1514 C 0.92955 0.83306 0.63142 0.0
C1515 C 0.95072 0.83003 0.63654 0.0
H1516 H 0.89834 0.82055 0.63252 0.0
H1517 H 0.92504 0.84551 0.62078 0.0
S1518 S 0.97289 0.78779 0.66963 0.0
N1519 N 0.94749 0.78279 0.66892 0.0
N1520 N 0.97626 0.80933 0.65564 0.0
C1521 C 0.95617 0.81342 0.64988 0.0
C1522 C 0.9406 0.79913 0.6571 0.0
C1523 C 0.95659 0.18559 0.36583 0.0
C1524 C 0.95665 0.17836 0.38664 0.0
C1525 C 0.9425 0.20087 0.35911 0.0
C1526 C 0.92759 0.20954 0.37281 0.0
H1527 H 0.96765 0.17948 0.35448 0.0
H1528 H 0.94323 0.20572 0.34284 0.0
S1529 S 0.92109 0.1962 0.42904 0.0
N1530 N 0.94066 0.18119 0.42114 0.0
N1531 N 0.91372 0.20991 0.40831 0.0
C1532 C 0.92734 0.20254 0.39373 0.0
C1533 C 0.942 0.18699 0.4007 0.0
C1534 C 0.55444 0.17656 0.14126 0.0
C1535 C 0.55504 0.16809 0.12095 0.0
C1536 C 0.56879 0.19214 0.14736 0.0
C1537 C 0.58418 0.19955 0.13333 0.0
H1538 H 0.54197 0.1722 0.15194 0.0
H1539 H 0.56707 0.19921 0.16269 0.0
S1540 S 0.59426 0.17933 0.07964 0.0
N1541 N 0.57354 0.16615 0.0878 0.0
N1542 N 0.60077 0.19494 0.09922 0.0
C1543 C 0.58591 0.18978 0.11361 0.0
C1544 C 0.57124 0.17418 0.10742 0.0
C1545 C 0.55692 0.80261 0.85303 0.0
C1546 C 0.57182 0.79474 0.86723 0.0
C1547 C 0.54187 0.81711 0.85927 0.0
C1548 C 0.54087 0.8243 0.88006 0.0
H1549 H 0.55685 0.79759 0.8368 0.0
H1550 H 0.53077 0.82255 0.84762 0.0
S1551 S 0.57631 0.80874 0.92347 0.0
N1552 N 0.58488 0.79531 0.90305 0.0
N1553 N 0.55617 0.82264 0.91496 0.0
C1554 C 0.55565 0.81665 0.89454 0.0
C1555 C 0.57125 0.8019 0.88807 0.0
C1556 C 0.95122 0.17374 0.84458 0.0
C1557 C 0.94619 0.15903 0.86024 0.0
C1558 C 0.93667 0.18892 0.83817 0.0
C1559 C 0.91682 0.19011 0.8476 0.0
H1560 H 0.96691 0.17433 0.83812 0.0
H1561 H 0.9416 0.20077 0.82705 0.0
S1562 S 0.89493 0.15355 0.88713 0.0
N1563 N 0.91904 0.14506 0.88311 0.0
N1564 N 0.89194 0.17397 0.87149 0.0
C1565 C 0.91103 0.17453 0.86205 0.0
C1566 C 0.92567 0.15882 0.86825 0.0
C1567 C 0.55586 0.17742 0.59103 0.0
C1568 C 0.55062 0.16079 0.60458 0.0
C1569 C 0.572 0.19152 0.59622 0.0
C1570 C 0.58321 0.18926 0.61505 0.0
H1571 H 0.54644 0.18053 0.57725 0.0
H1572 H 0.57449 0.20515 0.5864 0.0
S1573 S 0.5786 0.14588 0.65337 0.0
N1574 N 0.56032 0.14096 0.63571 0.0
N1575 N 0.5903 0.16758 0.6455 0.0
C1576 C 0.5795 0.17157 0.62755 0.0
C1577 C 0.56327 0.15726 0.62228 0.0
C1578 C 0.53987 0.79978 0.38046 0.0
C1579 C 0.53972 0.8199 0.37143 0.0
C1580 C 0.55322 0.78413 0.37313 0.0
C1581 C 0.56694 0.78781 0.35634 0.0
H1582 H 0.52995 0.79612 0.39375 0.0
H1583 H 0.55317 0.76912 0.38111 0.0
S1584 S 0.57185 0.83726 0.32617 0.0
N1585 N 0.55374 0.84237 0.34397 0.0
N1586 N 0.57897 0.81266 0.33005 0.0
C1587 C 0.56635 0.80749 0.3464 0.0
C1588 C 0.55271 0.82361 0.35399 0.0
C1589 C 0.92454 0.79533 0.10362 0.0
C1590 C 0.92951 0.77974 0.11845 0.0
C1591 C 0.93973 0.80982 0.0969 0.0
C1592 C 0.96022 0.80921 0.10497 0.0
H1593 H 0.90861 0.79704 0.09802 0.0
H1594 H 0.93508 0.8223 0.08635 0.0
S1595 S 0.98215 0.76937 0.14113 0.0
N1596 N 0.95723 0.76289 0.13864 0.0
N1597 N 0.98543 0.79036 0.12636 0.0
C1598 C 0.96573 0.79285 0.11858 0.0
C1599 C 0.95045 0.77801 0.12522 0.0
C1600 C 0.63548 0.93212 0.83188 0.0
C1601 C 0.64072 0.95347 0.82993 0.0
C1602 C 0.64023 0.91778 0.81598 0.0
C1603 C 0.6507 0.92414 0.79766 0.0
H1604 H 0.62631 0.92665 0.84508 0.0
H1605 H 0.63469 0.90181 0.81758 0.0
S1606 S 0.67091 0.97749 0.78636 0.0
N1607 N 0.65919 0.97974 0.80933 0.0
N1608 N 0.66842 0.95264 0.77957 0.0
C1609 C 0.65781 0.94497 0.79638 0.0
C1610 C 0.65276 0.95968 0.8125 0.0
C1611 C 0.82034 0.9016 0.55536 0.0
C1612 C 0.83814 0.88899 0.55201 0.0
C1613 C 0.80623 0.89705 0.57166 0.0
C1614 C 0.80962 0.87981 0.58497 0.0
H1615 H 0.81639 0.91394 0.54437 0.0
H1616 H 0.79174 0.90585 0.57263 0.0
S1617 S 0.85604 0.84501 0.58564 0.0
N1618 N 0.86011 0.86092 0.56562 0.0
N1619 N 0.83342 0.85226 0.5959 0.0
C1620 C 0.82837 0.86854 0.5831 0.0
C1621 C 0.84272 0.87318 0.56669 0.0
C1622 C 0.8533 0.05083 0.3199 0.0
C1623 C 0.87313 0.05134 0.32946 0.0
C1624 C 0.84829 0.06491 0.30367 0.0
C1625 C 0.86298 0.07985 0.29665 0.0
H1626 H 0.84214 0.03873 0.32407 0.0
H1627 H 0.83324 0.06343 0.29593 0.0
S1628 S 0.91571 0.08954 0.31939 0.0
N1629 N 0.90648 0.06934 0.33267 0.0
N1630 N 0.89714 0.09589 0.30253 0.0
C1631 C 0.88226 0.08137 0.30727 0.0
C1632 C 0.88732 0.06707 0.32359 0.0
C1633 C 0.6628 0.12927 0.06007 0.0
C1634 C 0.66503 0.10992 0.04974 0.0
C1635 C 0.67664 0.13531 0.07589 0.0
C1636 C 0.69311 0.12217 0.08221 0.0
H1637 H 0.65097 0.14041 0.05514 0.0
H1638 H 0.6751 0.1509 0.08246 0.0
S1639 S 0.70411 0.06875 0.06232 0.0
N1640 N 0.68367 0.07667 0.04852 0.0
N1641 N 0.7097 0.0881 0.0786 0.0
C1642 C 0.69448 0.10205 0.0734 0.0
C1643 C 0.68041 0.09589 0.05705 0.0
C1644 C 0.62202 0.06594 0.66147 0.0
C1645 C 0.62915 0.04509 0.66178 0.0
C1646 C 0.62884 0.08042 0.67645 0.0
C1647 C 0.64326 0.07466 0.69209 0.0
H1648 H 0.60989 0.07077 0.6506 0.0
H1649 H 0.6218 0.09587 0.67653 0.0
S1650 S 0.66966 0.02318 0.69735 0.0
N1651 N 0.65363 0.02023 0.67723 0.0
N1652 N 0.66663 0.04762 0.70529 0.0
C1653 C 0.65218 0.05455 0.69126 0.0
C1654 C 0.64507 0.0397 0.67609 0.0
C1655 C 0.68783 0.89859 0.41308 0.0
C1656 C 0.70901 0.89778 0.41918 0.0
C1657 C 0.67231 0.90501 0.42724 0.0
C1658 C 0.67762 0.91156 0.44756 0.0
H1659 H 0.683 0.89241 0.39801 0.0
H1660 H 0.656 0.90364 0.42271 0.0
S1661 S 0.73101 0.91484 0.47015 0.0
N1662 N 0.73464 0.90563 0.44622 0.0
N1663 N 0.70552 0.91869 0.47248 0.0
C1664 C 0.69887 0.91267 0.45315 0.0
C1665 C 0.7146 0.90552 0.439 0.0
C1666 C 0.85015 0.94527 0.16696 0.0
C1667 C 0.86352 0.96165 0.17332 0.0
C1668 C 0.84321 0.93011 0.18141 0.0
C1669 C 0.84957 0.93103 0.20247 0.0
H1670 H 0.84606 0.94343 0.15058 0.0
H1671 H 0.83394 0.917 0.17588 0.0
S1672 S 0.8811 0.97273 0.2277 0.0
N1673 N 0.88025 0.97939 0.2027 0.0
N1674 N 0.86752 0.95078 0.22954 0.0
C1675 C 0.86155 0.94813 0.20924 0.0
C1676 C 0.86844 0.96353 0.19473 0.0
C1677 C 0.83347 0.10775 0.92177 0.0
C1678 C 0.82795 0.09445 0.93843 0.0
C1679 C 0.81916 0.11244 0.90581 0.0
C1680 C 0.79861 0.1044 0.9062 0.0
H1681 H 0.84856 0.11555 0.92168 0.0
H1682 H 0.82378 0.12381 0.89406 0.0
S1683 S 0.77753 0.06628 0.94476 0.0
N1684 N 0.80161 0.07109 0.95297 0.0
N1685 N 0.77441 0.08032 0.92322 0.0
C1686 C 0.79353 0.0896 0.92177 0.0
C1687 C 0.80829 0.08454 0.93786 0.0
C1688 C 0.81972 0.63466 0.91361 0.0
C1689 C 0.80526 0.65034 0.91903 0.0
C1690 C 0.83576 0.62886 0.92734 0.0
C1691 C 0.83786 0.63843 0.94708 0.0
H1692 H 0.81789 0.62591 0.89917 0.0
H1693 H 0.84567 0.61576 0.92304 0.0
S1694 S 0.80571 0.68233 0.96751 0.0
N1695 N 0.79543 0.67705 0.94434 0.0
N1696 N 0.82559 0.666 0.97038 0.0
C1697 C 0.82472 0.65547 0.95189 0.0
C1698 C 0.80836 0.66146 0.93778 0.0
C1699 C 0.30987 0.88186 0.08286 0.0
C1700 C 0.29985 0.86221 0.08239 0.0
C1701 C 0.32548 0.88697 0.06843 0.0
C1702 C 0.33202 0.87254 0.05321 0.0
H1703 H 0.30493 0.89388 0.09378 0.0
H1704 H 0.3319 0.9027 0.06865 0.0
S1705 S 0.31277 0.81819 0.04665 0.0
N1706 N 0.29891 0.82756 0.06643 0.0
N1707 N 0.32877 0.83724 0.03941 0.0
C1708 C 0.32338 0.85232 0.05343 0.0
C1709 C 0.30714 0.84713 0.06802 0.0
C1710 C 0.89436 0.553 0.81775 0.0
C1711 C 0.87965 0.54035 0.82833 0.0
C1712 C 0.8879 0.56799 0.80288 0.0
C1713 C 0.86656 0.57057 0.79792 0.0
H1714 H 0.91095 0.55118 0.82083 0.0
H1715 H 0.89968 0.5772 0.79483 0.0
S1716 S 0.82172 0.54239 0.82206 0.0
N1717 N 0.84264 0.53229 0.83338 0.0
N1718 N 0.83072 0.56013 0.80555 0.0
C1719 C 0.85174 0.55837 0.80873 0.0
C1720 C 0.85822 0.54335 0.8239 0.0
C1721 C 0.17249 0.14118 0.55181 0.0
C1722 C 0.1796 0.13207 0.53307 0.0
C1723 C 0.18673 0.14834 0.56697 0.0
C1724 C 0.20851 0.14706 0.56365 0.0
H1725 H 0.1559 0.14154 0.5554 0.0
H1726 H 0.18067 0.15403 0.58178 0.0
S1727 S 0.23492 0.1268 0.51597 0.0
N1728 N 0.20967 0.12382 0.51118 0.0
N1729 N 0.23639 0.13766 0.53941 0.0
C1730 C 0.21572 0.13947 0.54427 0.0
C1731 C 0.20126 0.13185 0.52903 0.0
C1732 C 0.10111 0.92285 0.79719 0.0
C1733 C 0.12111 0.91418 0.80044 0.0
C1734 C 0.09292 0.9377 0.81126 0.0
C1735 C 0.10455 0.94414 0.82887 0.0
H1736 H 0.09244 0.91929 0.78303 0.0
H1737 H 0.0781 0.94513 0.8076 0.0
S1738 S 0.15573 0.92265 0.8463 0.0
N1739 N 0.15087 0.91066 0.8239 0.0
N1740 N 0.13551 0.93826 0.85039 0.0
C1741 C 0.12367 0.93407 0.83315 0.0
C1742 C 0.13197 0.91914 0.81889 0.0
C1743 C 0.6811 0.35863 0.45414 0.0
C1744 C 0.68191 0.37879 0.46308 0.0
C1745 C 0.69534 0.35264 0.43837 0.0
C1746 C 0.71046 0.36681 0.43074 0.0
H1747 H 0.66937 0.34749 0.45929 0.0
H1748 H 0.69419 0.33703 0.43179 0.0
S1749 S 0.7189 0.42152 0.44882 0.0
N1750 N 0.69921 0.41283 0.4631 0.0
N1751 N 0.72547 0.40177 0.43355 0.0
C1752 C 0.71141 0.38694 0.43967 0.0
C1753 C 0.69726 0.39288 0.45581 0.0
C1754 C 0.87537 0.46212 0.69504 0.0
C1755 C 0.8917 0.4579 0.68094 0.0
C1756 C 0.86947 0.44753 0.71019 0.0
C1757 C 0.8794 0.4279 0.71166 0.0
H1758 H 0.8667 0.4767 0.69407 0.0
H1759 H 0.85637 0.45144 0.72026 0.0
S1760 S 0.9242 0.40983 0.67929 0.0
N1761 N 0.91879 0.43345 0.67013 0.0
N1762 N 0.90737 0.40554 0.69852 0.0
C1763 C 0.89645 0.4238 0.69826 0.0
C1764 C 0.90269 0.43893 0.68292 0.0
C1765 C 0.60554 0.56554 0.21377 0.0
C1766 C 0.61682 0.58339 0.20725 0.0
C1767 C 0.59825 0.55073 0.19922 0.0
C1768 C 0.60224 0.55317 0.1777 0.0
H1769 H 0.60341 0.5623 0.23031 0.0
H1770 H 0.59089 0.53657 0.20502 0.0
S1771 S 0.62738 0.59894 0.15218 0.0
N1772 N 0.62871 0.60412 0.1775 0.0
N1773 N 0.6154 0.57608 0.15028 0.0
C1774 C 0.61181 0.57178 0.17084 0.0
C1775 C 0.61898 0.58698 0.18559 0.0
C1776 C 0.56056 0.69273 0.84104 0.0
C1777 C 0.57701 0.69875 0.85451 0.0
C1778 C 0.54539 0.67808 0.84756 0.0
C1779 C 0.54633 0.66923 0.86771 0.0
H1780 H 0.55875 0.7002 0.82589 0.0
H1781 H 0.53228 0.67462 0.83734 0.0
S1782 S 0.58816 0.67681 0.90728 0.0
N1783 N 0.59477 0.69239 0.8877 0.0
N1784 N 0.5662 0.6653 0.89991 0.0
C1785 C 0.56347 0.67396 0.88061 0.0
C1786 C 0.57887 0.68862 0.87401 0.0
C1787 C 0.56838 0.33288 0.10631 0.0
C1788 C 0.54808 0.3269 0.09999 0.0
C1789 C 0.58366 0.31781 0.11118 0.0
C1790 C 0.57892 0.29634 0.11026 0.0
H1791 H 0.57217 0.34927 0.10856 0.0
H1792 H 0.59865 0.323 0.11724 0.0
S1793 S 0.52927 0.27242 0.09199 0.0
N1794 N 0.52503 0.29792 0.0907 0.0
N1795 N 0.55355 0.26973 0.10054 0.0
C1796 C 0.55928 0.29016 0.10257 0.0
C1797 C 0.54388 0.30543 0.09721 0.0
C1798 C 0.93085 0.3369 0.36975 0.0
C1799 C 0.95136 0.33717 0.36168 0.0
C1800 C 0.91659 0.32131 0.36385 0.0
C1801 C 0.92212 0.30577 0.34927 0.0
H1802 H 0.92623 0.34781 0.3819 0.0
H1803 H 0.90142 0.32087 0.37147 0.0
S1804 S 0.97276 0.30139 0.32117 0.0
N1805 N 0.97578 0.32184 0.33676 0.0
N1806 N 0.94864 0.29287 0.32519 0.0
C1807 C 0.94189 0.30695 0.33966 0.0
C1808 C 0.95661 0.32259 0.346 0.0
C1809 C 0.94053 0.68242 0.59958 0.0
C1810 C 0.96069 0.68226 0.60852 0.0
C1811 C 0.92536 0.69701 0.60622 0.0
C1812 C 0.93002 0.71192 0.62184 0.0
H1813 H 0.93614 0.67054 0.58828 0.0
H1814 H 0.90967 0.69598 0.59981 0.0
S1815 S 0.98185 0.72013 0.64717 0.0
N1816 N 0.98529 0.69966 0.63176 0.0
N1817 N 0.9572 0.72724 0.64388 0.0
C1818 C 0.95066 0.71279 0.62963 0.0
C1819 C 0.96589 0.69789 0.62307 0.0
C1820 C 0.5464 0.3025 0.60562 0.0
C1821 C 0.54155 0.319 0.6194 0.0
C1822 C 0.56061 0.28685 0.6112 0.0
C1823 C 0.57045 0.28683 0.6309 0.0
H1824 H 0.53939 0.30176 0.59016 0.0
H1825 H 0.56389 0.27465 0.59986 0.0
S1826 S 0.56285 0.32612 0.67305 0.0
N1827 N 0.5475 0.33426 0.65384 0.0
N1828 N 0.57417 0.30447 0.66449 0.0
C1829 C 0.56554 0.30298 0.64508 0.0
C1830 C 0.55113 0.31917 0.63927 0.0
C1831 C 0.93979 0.31209 0.89676 0.0
C1832 C 0.9587 0.31564 0.88602 0.0
C1833 C 0.92519 0.29728 0.88936 0.0
C1834 C 0.92923 0.2854 0.87119 0.0
H1835 H 0.93595 0.3213 0.9105 0.0
H1836 H 0.91051 0.29545 0.89768 0.0
S1837 S 0.97783 0.28723 0.83904 0.0
N1838 N 0.98147 0.30502 0.85742 0.0
N1839 N 0.95448 0.27716 0.84372 0.0
C1840 C 0.94861 0.28822 0.86097 0.0
C1841 C 0.96323 0.30335 0.86834 0.0
C1842 C 0.95526 0.68552 0.15999 0.0
C1843 C 0.95049 0.66609 0.15082 0.0
C1844 C 0.93931 0.69944 0.16581 0.0
C1845 C 0.91817 0.69459 0.16189 0.0
H1846 H 0.97143 0.69056 0.16137 0.0
H1847 H 0.94369 0.71488 0.17135 0.0
S1848 S 0.89751 0.6448 0.14032 0.0
N1849 N 0.92322 0.64171 0.14027 0.0
N1850 N 0.8932 0.6683 0.15029 0.0
C1851 C 0.91318 0.67457 0.15426 0.0
C1852 C 0.92939 0.66016 0.14891 0.0
C1853 C 0.55863 0.68229 0.39979 0.0
C1854 C 0.55354 0.66488 0.38722 0.0
C1855 C 0.57448 0.69634 0.3937 0.0
C1856 C 0.58552 0.69332 0.37489 0.0
H1857 H 0.5494 0.6859 0.41357 0.0
H1858 H 0.57689 0.71045 0.40283 0.0
S1859 S 0.58119 0.64802 0.33887 0.0
N1860 N 0.56323 0.64368 0.35699 0.0
N1861 N 0.59258 0.67029 0.34548 0.0
C1862 C 0.58192 0.67501 0.36332 0.0
C1863 C 0.56602 0.66069 0.36953 0.0
C1864 C 0.87675 0.57742 0.69092 0.0
C1865 C 0.85631 0.57588 0.69899 0.0
C1866 C 0.88372 0.56405 0.67514 0.0
C1867 C 0.87053 0.54862 0.66666 0.0
H1868 H 0.88782 0.58858 0.69736 0.0
H1869 H 0.8999 0.56528 0.67012 0.0
S1870 S 0.81494 0.53934 0.6807 0.0
N1871 N 0.82233 0.55879 0.69615 0.0
N1872 N 0.83558 0.53347 0.6662 0.0
C1873 C 0.84961 0.54772 0.67349 0.0
C1874 C 0.84246 0.5614 0.68976 0.0
C1875 C 0.70823 0.63481 0.95133 0.0
C1876 C 0.71117 0.62356 0.93259 0.0
C1877 C 0.69346 0.62852 0.96617 0.0
C1878 C 0.68108 0.61058 0.96308 0.0
H1879 H 0.71699 0.64903 0.95439 0.0
H1880 H 0.69146 0.6381 0.98005 0.0
S1881 S 0.68361 0.57461 0.91751 0.0
N1882 N 0.70122 0.59287 0.91225 0.0
N1883 N 0.67345 0.58086 0.9405 0.0
C1884 C 0.68446 0.59853 0.94494 0.0
C1885 C 0.6995 0.60508 0.9296 0.0
C1886 C 0.65301 0.44289 0.20037 0.0
C1887 C 0.64483 0.4225 0.19867 0.0
C1888 C 0.64835 0.45822 0.18528 0.0
C1889 C 0.63565 0.45357 0.16783 0.0
H1890 H 0.66174 0.44749 0.21419 0.0
H1891 H 0.65369 0.47411 0.18798 0.0
S1892 S 0.61347 0.40145 0.15448 0.0
N1893 N 0.62565 0.39774 0.17702 0.0
N1894 N 0.61724 0.42633 0.14845 0.0
C1895 C 0.62909 0.4327 0.16498 0.0
C1896 C 0.63356 0.41721 0.1805 0.0
C1897 C 0.82136 0.37339 0.41662 0.0
C1898 C 0.80128 0.3823 0.41655 0.0
C1899 C 0.83557 0.37779 0.43274 0.0
C1900 C 0.83003 0.39103 0.4495 0.0
H1901 H 0.82562 0.36192 0.40485 0.0
H1902 H 0.85052 0.36976 0.43273 0.0
S1903 S 0.77936 0.41877 0.45595 0.0
N1904 N 0.77672 0.40557 0.43382 0.0
N1905 N 0.80336 0.41386 0.46437 0.0
C1906 C 0.8104 0.40105 0.44889 0.0
C1907 C 0.79597 0.39662 0.43235 0.0
C1908 C 0.87757 0.41473 0.81232 0.0
C1909 C 0.85723 0.41518 0.8038 0.0
C1910 C 0.88377 0.4291 0.82758 0.0
C1911 C 0.86981 0.44423 0.83525 0.0
H1912 H 0.88923 0.4039 0.80642 0.0
H1913 H 0.89993 0.42886 0.83285 0.0
S1914 S 0.81414 0.45066 0.82016 0.0
N1915 N 0.82254 0.43101 0.80553 0.0
N1916 N 0.83431 0.45788 0.83474 0.0
C1917 C 0.849 0.44396 0.82816 0.0
C1918 C 0.84267 0.42944 0.81228 0.0
C1919 C 0.79746 0.60191 0.07002 0.0
C1920 C 0.78072 0.6155 0.06535 0.0
C1921 C 0.81233 0.59659 0.0547 0.0
C1922 C 0.81096 0.60485 0.03431 0.0
H1923 H 0.7998 0.59629 0.08588 0.0
H1924 H 0.82567 0.58712 0.05922 0.0
S1925 S 0.76814 0.6379 0.01307 0.0
N1926 N 0.76208 0.63459 0.03801 0.0
N1927 N 0.79019 0.62487 0.00945 0.0
C1928 C 0.79343 0.61705 0.02902 0.0
C1929 C 0.77824 0.62229 0.04449 0.0
C1930 C 0.64759 0.57986 0.32008 0.0
C1931 C 0.65816 0.57318 0.30194 0.0
C1932 C 0.64085 0.5655 0.33522 0.0
C1933 C 0.64423 0.54387 0.33271 0.0
H1934 H 0.64343 0.59621 0.32206 0.0
H1935 H 0.63169 0.57134 0.34827 0.0
S1936 S 0.67405 0.51866 0.28959 0.0
N1937 N 0.67405 0.54384 0.28356 0.0
N1938 N 0.6612 0.51672 0.31198 0.0
C1939 C 0.65643 0.53716 0.31559 0.0
C1940 C 0.66344 0.55187 0.30019 0.0
C1941 C 0.68942 0.41089 0.55788 0.0
C1942 C 0.66891 0.40288 0.55747 0.0
C1943 C 0.70374 0.40435 0.57327 0.0
C1944 C 0.69787 0.38984 0.58885 0.0
H1945 H 0.69495 0.42089 0.54531 0.0
H1946 H 0.71983 0.40963 0.57208 0.0
S1947 S 0.64456 0.36783 0.59688 0.0
N1948 N 0.64251 0.38223 0.57547 0.0
N1949 N 0.6691 0.37035 0.60472 0.0
C1950 C 0.67673 0.38356 0.58982 0.0
C1951 C 0.66232 0.38994 0.57399 0.0
C1952 C 0.69824 0.85379 0.55938 0.0
C1953 C 0.71671 0.86533 0.56288 0.0
C1954 C 0.68314 0.86071 0.54485 0.0
C1955 C 0.68616 0.87928 0.53329 0.0
H1956 H 0.69501 0.83988 0.56856 0.0
H1957 H 0.66873 0.85188 0.54324 0.0
S1958 S 0.73334 0.9135 0.53477 0.0
N1959 N 0.73809 0.89502 0.55223 0.0
N1960 N 0.71009 0.90789 0.52497 0.0
C1961 C 0.70519 0.89021 0.53584 0.0
C1962 C 0.72037 0.88327 0.55063 0.0
C1963 C 0.19187 0.65008 0.43121 0.0
C1964 C 0.19982 0.63584 0.41631 0.0
C1965 C 0.17692 0.6437 0.44612 0.0
C1966 C 0.16968 0.62291 0.44658 0.0
H1967 H 0.19803 0.66587 0.43208 0.0
H1968 H 0.17205 0.65469 0.4581 0.0
S1969 S 0.18265 0.58068 0.40888 0.0
N1970 N 0.19701 0.60084 0.40131 0.0
N1971 N 0.16936 0.58894 0.42946 0.0
C1972 C 0.17631 0.60905 0.43087 0.0
C1973 C 0.19128 0.6155 0.41567 0.0
C1974 C 0.60144 0.94467 0.71619 0.0
C1975 C 0.60444 0.92362 0.71049 0.0
C1976 C 0.59262 0.95903 0.70217 0.0
C1977 C 0.58688 0.95295 0.68176 0.0
H1978 H 0.60697 0.95035 0.73122 0.0
H1979 H 0.59181 0.97532 0.7069 0.0
S1980 S 0.58868 0.89894 0.6603 0.0
N1981 N 0.5986 0.89675 0.68412 0.0
N1982 N 0.58238 0.92389 0.65748 0.0
C1983 C 0.58814 0.93157 0.67649 0.0
C1984 C 0.59686 0.91685 0.69095 0.0
C1985 C 0.32463 0.35218 0.95063 0.0
C1986 C 0.31994 0.36846 0.9648 0.0
C1987 C 0.30997 0.34574 0.93545 0.0
C1988 C 0.2903 0.35556 0.93388 0.0
H1989 H 0.33997 0.34491 0.95076 0.0
H1990 H 0.31439 0.33373 0.9243 0.0
S1991 S 0.26916 0.39669 0.96905 0.0
N1992 N 0.29318 0.39249 0.97765 0.0
N1993 N 0.26604 0.38065 0.94902 0.0
C1994 C 0.28504 0.37099 0.94863 0.0
C1995 C 0.29975 0.37737 0.96413 0.0
C1996 C 0.39406 0.56709 0.67032 0.0
C1997 C 0.40409 0.54831 0.67608 0.0
C1998 C 0.38902 0.58232 0.68529 0.0
C1999 C 0.39352 0.57915 0.70663 0.0
H2000 H 0.38915 0.56964 0.65425 0.0
H2001 H 0.38024 0.59596 0.68026 0.0
S2002 S 0.42227 0.53403 0.72944 0.0
N2003 N 0.42053 0.52851 0.7042 0.0
N2004 N 0.41071 0.55698 0.73246 0.0
C2005 C 0.40494 0.56118 0.71238 0.0
C2006 C 0.41033 0.54579 0.69706 0.0
C2007 C 0.78468 0.11824 0.05454 0.0
C2008 C 0.78686 0.13742 0.06511 0.0
C2009 C 0.79898 0.11207 0.03921 0.0
C2010 C 0.81627 0.12469 0.03395 0.0
H2011 H 0.77187 0.10772 0.05824 0.0
H2012 H 0.79668 0.09695 0.03183 0.0
S2013 S 0.82863 0.17689 0.05639 0.0
N2014 N 0.80708 0.16952 0.06873 0.0
N2015 N 0.83437 0.15772 0.03997 0.0
C2016 C 0.81843 0.1442 0.04401 0.0
C2017 C 0.80361 0.15063 0.05956 0.0
C2018 C 0.59905 0.06327 0.82061 0.0
C2019 C 0.59563 0.04209 0.81545 0.0
C2020 C 0.60462 0.07795 0.80522 0.0
C2021 C 0.60737 0.07177 0.78428 0.0
H2022 H 0.5986 0.0683 0.83683 0.0
H2023 H 0.60848 0.09376 0.81006 0.0
S2024 S 0.59741 0.01899 0.76212 0.0
N2025 N 0.59284 0.01633 0.78747 0.0
N2026 N 0.6039 0.04382 0.75867 0.0
C2027 C 0.60238 0.05108 0.77865 0.0
C2028 C 0.59632 0.03623 0.79422 0.0
C2029 C 0.89283 0.93833 0.31817 0.0
C2030 C 0.88372 0.95836 0.31938 0.0
C2031 C 0.88552 0.92352 0.30352 0.0
C2032 C 0.869 0.92845 0.28971 0.0
H2033 H 0.90494 0.9338 0.32918 0.0
H2034 H 0.89229 0.90795 0.30352 0.0
S2035 S 0.84272 0.98017 0.28446 0.0
N2036 N 0.85929 0.98319 0.30408 0.0
N2037 N 0.84573 0.95574 0.27656 0.0
C2038 C 0.86083 0.94894 0.29001 0.0
C2039 C 0.86815 0.96381 0.30486 0.0
C2040 C 0.43325 0.33834 0.13573 0.0
C2041 C 0.45387 0.33816 0.14356 0.0
C2042 C 0.419 0.32255 0.14107 0.0
C2043 C 0.42466 0.30631 0.15483 0.0
H2044 H 0.42848 0.34985 0.12419 0.0
H2045 H 0.40374 0.32251 0.1336 0.0
S2046 S 0.47558 0.30041 0.18212 0.0
N2047 N 0.47852 0.32158 0.16749 0.0
N2048 N 0.45139 0.29217 0.17797 0.0
C2049 C 0.44453 0.30696 0.16427 0.0
C2050 C 0.45924 0.32285 0.15851 0.0
C2051 C 0.41645 0.6794 0.8705 0.0
C2052 C 0.41555 0.69954 0.87936 0.0
C2053 C 0.43229 0.66528 0.87618 0.0
C2054 C 0.44747 0.67063 0.89126 0.0
H2055 H 0.40576 0.67498 0.85806 0.0
H2056 H 0.43311 0.65036 0.86812 0.0
S2057 S 0.45029 0.7204 0.92107 0.0
N2058 N 0.43002 0.72347 0.90525 0.0
N2059 N 0.45944 0.69664 0.91637 0.0
C2060 C 0.44576 0.69007 0.90142 0.0
C2061 C 0.42988 0.70462 0.89534 0.0
C2062 C 0.07148 0.66848 0.61705 0.0
C2063 C 0.05404 0.6634 0.62945 0.0
C2064 C 0.08649 0.68276 0.62402 0.0
C2065 C 0.08455 0.69271 0.64359 0.0
H2066 H 0.07304 0.6621 0.60139 0.0
H2067 H 0.09916 0.68683 0.61346 0.0
S2068 S 0.04271 0.6832 0.68283 0.0
N2069 N 0.03643 0.66789 0.6629 0.0
N2070 N 0.06471 0.69511 0.67608 0.0
C2071 C 0.06797 0.68664 0.65682 0.0
C2072 C 0.05266 0.67188 0.64971 0.0
C2073 C 0.06227 0.29205 0.40129 0.0
C2074 C 0.07999 0.2977 0.38942 0.0
C2075 C 0.04697 0.30688 0.40662 0.0
C2076 C 0.04869 0.32779 0.39992 0.0
H2077 H 0.05968 0.27584 0.40565 0.0
H2078 H 0.03308 0.3016 0.41484 0.0
S2079 S 0.0933 0.35119 0.37083 0.0
N2080 N 0.09944 0.32615 0.37309 0.0
N2081 N 0.0705 0.35394 0.38277 0.0
C2082 C 0.067 0.33396 0.38931 0.0
C2083 C 0.08273 0.31893 0.38416 0.0
C2084 C 0.42046 0.68362 0.35628 0.0
C2085 C 0.42704 0.7025 0.34697 0.0
C2086 C 0.43501 0.66823 0.36209 0.0
C2087 C 0.45657 0.67161 0.35938 0.0
H2088 H 0.40404 0.68109 0.35978 0.0
H2089 H 0.42946 0.6543 0.37009 0.0
S2090 S 0.48165 0.71777 0.33461 0.0
N2091 N 0.45631 0.72303 0.33388 0.0
N2092 N 0.48379 0.69449 0.34578 0.0
C2093 C 0.46327 0.68999 0.3493 0.0
C2094 C 0.44842 0.70536 0.34281 0.0
C2095 C 0.05116 0.68651 0.10169 0.0
C2096 C 0.0451 0.67203 0.11728 0.0
C2097 C 0.06716 0.70124 0.10543 0.0
C2098 C 0.07733 0.70201 0.12493 0.0
H2099 H 0.04305 0.68694 0.08678 0.0
H2100 H 0.07085 0.71268 0.09343 0.0
S2101 S 0.06933 0.66623 0.16998 0.0
N2102 N 0.05225 0.65829 0.15224 0.0
N2103 N 0.08178 0.68618 0.15922 0.0
C2104 C 0.07219 0.68705 0.14019 0.0
C2105 C 0.05621 0.67197 0.13637 0.0
C2106 C 0.08078 0.30333 0.8842 0.0
C2107 C 0.08135 0.29628 0.86332 0.0
C2108 C 0.06645 0.31851 0.89063 0.0
C2109 C 0.05223 0.32748 0.87642 0.0
H2110 H 0.09094 0.2965 0.89597 0.0
H2111 H 0.06603 0.32276 0.90708 0.0
S2112 S 0.04839 0.31601 0.81962 0.0
N2113 N 0.06735 0.30051 0.82806 0.0
N2114 N 0.04037 0.3294 0.84028 0.0
C2115 C 0.05339 0.32163 0.85523 0.0
C2116 C 0.06797 0.30592 0.84864 0.0
C2117 C 0.43353 0.33674 0.6217 0.0
C2118 C 0.44401 0.33426 0.60249 0.0
C2119 C 0.41757 0.32306 0.62772 0.0
C2120 C 0.41136 0.30644 0.61471 0.0
H2121 H 0.43844 0.34866 0.63276 0.0
H2122 H 0.41084 0.32482 0.64322 0.0
S2123 S 0.43183 0.29475 0.56165 0.0
N2124 N 0.44559 0.31526 0.56947 0.0
N2125 N 0.41529 0.28943 0.58087 0.0
C2126 C 0.42035 0.30482 0.59468 0.0
C2127 C 0.43679 0.3188 0.58852 0.0
C2128 C 0.10206 0.44386 0.31057 0.0
C2129 C 0.11693 0.45134 0.325 0.0
C2130 C 0.1072 0.42854 0.29588 0.0
C2131 C 0.12751 0.4201 0.29479 0.0
H2132 H 0.0862 0.44992 0.31051 0.0
H2133 H 0.09511 0.42356 0.28504 0.0
S2134 S 0.17216 0.43384 0.32945 0.0
N2135 N 0.15274 0.44878 0.3378 0.0
N2136 N 0.16258 0.41994 0.3098 0.0
C2137 C 0.14256 0.42716 0.3093 0.0
C2138 C 0.13722 0.44276 0.32453 0.0
C2139 C 0.31674 0.40466 0.06332 0.0
C2140 C 0.3342 0.39181 0.05913 0.0
C2141 C 0.30205 0.39905 0.07879 0.0
C2142 C 0.30452 0.38049 0.0904 0.0
H2143 H 0.31356 0.4182 0.05357 0.0
H2144 H 0.28791 0.40831 0.08045 0.0
S2145 S 0.34954 0.34394 0.08845 0.0
N2146 N 0.3547 0.36161 0.07025 0.0
N2147 N 0.32697 0.35103 0.09892 0.0
C2148 C 0.32284 0.36869 0.08771 0.0
C2149 C 0.33776 0.37438 0.07217 0.0
C2150 C 0.35016 0.54838 0.82459 0.0
C2151 C 0.36737 0.5515 0.83793 0.0
C2152 C 0.34513 0.56325 0.80913 0.0
C2153 C 0.35721 0.58159 0.80665 0.0
H2154 H 0.34167 0.53367 0.82494 0.0
H2155 H 0.33271 0.55962 0.79813 0.0
S2156 S 0.40158 0.59828 0.84048 0.0
N2157 N 0.39482 0.57502 0.8496 0.0
N2158 N 0.38521 0.60325 0.82104 0.0
C2159 C 0.37317 0.58566 0.82136 0.0
C2160 C 0.37833 0.57048 0.83686 0.0
C2161 C 0.20169 0.60326 0.57486 0.0
C2162 C 0.21201 0.62276 0.57403 0.0
C2163 C 0.18679 0.59762 0.55958 0.0
C2164 C 0.18147 0.61145 0.54323 0.0
H2165 H 0.20515 0.5923 0.58736 0.0
H2166 H 0.17912 0.58251 0.56081 0.0
S2167 S 0.20425 0.6642 0.53375 0.0
N2168 N 0.21603 0.65572 0.55514 0.0
N2169 N 0.18811 0.64524 0.52683 0.0
C2170 C 0.1918 0.6309 0.54218 0.0
C2171 C 0.20704 0.63652 0.55748 0.0
C2172 C 0.14772 0.56482 0.19073 0.0
C2173 C 0.13326 0.57542 0.20362 0.0
C2174 C 0.14093 0.55032 0.17556 0.0
C2175 C 0.11951 0.54578 0.17306 0.0
H2176 H 0.16438 0.56758 0.1925 0.0
H2177 H 0.15251 0.54221 0.16618 0.0
S2178 S 0.07523 0.57028 0.20173 0.0
N2179 N 0.0964 0.58107 0.21191 0.0
N2180 N 0.08385 0.55387 0.18374 0.0
C2181 C 0.10492 0.55664 0.18546 0.0
C2182 C 0.11175 0.57145 0.20066 0.0
C2183 C 0.16673 0.36719 0.9373 0.0
C2184 C 0.16852 0.38726 0.94622 0.0
C2185 C 0.1809 0.36023 0.92219 0.0
C2186 C 0.19736 0.3731 0.91526 0.0
H2187 H 0.15485 0.35632 0.94272 0.0
H2188 H 0.17953 0.34425 0.91659 0.0
S2189 S 0.20768 0.42779 0.93187 0.0
N2190 N 0.18698 0.42064 0.9457 0.0
N2191 N 0.21371 0.40746 0.91702 0.0
C2192 C 0.19847 0.39376 0.92281 0.0
C2193 C 0.18401 0.40087 0.93838 0.0
C2194 C 0.34695 0.46043 0.67825 0.0
C2195 C 0.36069 0.45423 0.6621 0.0
C2196 C 0.33999 0.44606 0.69342 0.0
C2197 C 0.34687 0.42517 0.69306 0.0
H2198 H 0.34259 0.47675 0.67996 0.0
H2199 H 0.33059 0.45172 0.70637 0.0
S2200 S 0.37995 0.40018 0.65242 0.0
N2201 N 0.37846 0.42499 0.6452 0.0
N2202 N 0.36586 0.39828 0.67404 0.0
C2203 C 0.35912 0.41839 0.67611 0.0
C2204 C 0.36588 0.43285 0.66048 0.0
C2205 C 0.32048 0.60231 0.44279 0.0
C2206 C 0.3231 0.61435 0.46108 0.0
C2207 C 0.30606 0.60833 0.42722 0.0
C2208 C 0.29368 0.62644 0.42958 0.0
H2209 H 0.33005 0.58853 0.44021 0.0
H2210 H 0.30488 0.59894 0.41312 0.0
S2211 S 0.29318 0.66197 0.4758 0.0
N2212 N 0.31116 0.64426 0.48137 0.0
N2213 N 0.28406 0.65546 0.4525 0.0
C2214 C 0.29564 0.63808 0.44826 0.0
C2215 C 0.31036 0.63206 0.46391 0.0
C2216 C 0.32801 0.13976 0.44051 0.0
C2217 C 0.32221 0.1389 0.46174 0.0
C2218 C 0.31397 0.14711 0.42529 0.0
C2219 C 0.29386 0.15426 0.43085 0.0
H2220 H 0.34286 0.1333 0.43541 0.0
H2221 H 0.31853 0.14622 0.40895 0.0
S2222 S 0.27266 0.1585 0.48483 0.0
N2223 N 0.2961 0.14797 0.4879 0.0
N2224 N 0.2699 0.16239 0.45938 0.0
C2225 C 0.28865 0.15525 0.45224 0.0
C2226 C 0.30279 0.14737 0.46769 0.0
C2227 C 0.8011 0.35083 0.53566 0.0
C2228 C 0.82227 0.35197 0.54163 0.0
C2229 C 0.78551 0.34572 0.55019 0.0
C2230 C 0.79046 0.34183 0.57133 0.0
H2231 H 0.79639 0.35505 0.51989 0.0
H2232 H 0.76933 0.34621 0.54504 0.0
S2233 S 0.84393 0.33988 0.5942 0.0
N2234 N 0.84773 0.34637 0.56942 0.0
N2235 N 0.81835 0.33698 0.59692 0.0
C2236 C 0.81176 0.34117 0.5771 0.0
C2237 C 0.8277 0.34618 0.56218 0.0
C2238 C 0.36238 0.05083 0.32752 0.0
C2239 C 0.38332 0.044 0.3284 0.0
C2240 C 0.35613 0.06653 0.31368 0.0
C2241 C 0.37054 0.07622 0.30016 0.0
H2242 H 0.35047 0.04368 0.3373 0.0
H2243 H 0.33969 0.07079 0.31327 0.0
S2244 S 0.42746 0.06506 0.29694 0.0
N2245 N 0.41876 0.04883 0.31517 0.0
N2246 N 0.40688 0.07864 0.28899 0.0
C2247 C 0.39172 0.07028 0.30138 0.0
C2248 C 0.39814 0.05408 0.31553 0.0
C2249 C 0.67043 0.6497 0.0539 0.0
C2250 C 0.65867 0.63137 0.05716 0.0
C2251 C 0.68585 0.65586 0.06841 0.0
C2252 C 0.68978 0.64384 0.08653 0.0
H2253 H 0.66909 0.6582 0.03924 0.0
H2254 H 0.69586 0.66901 0.06452 0.0
S2255 S 0.65982 0.59712 0.10402 0.0
N2256 N 0.64958 0.60322 0.08106 0.0
N2257 N 0.67808 0.6149 0.10851 0.0
C2258 C 0.67638 0.6269 0.09096 0.0
C2259 C 0.66093 0.6206 0.07618 0.0
C2260 C 0.59547 0.43484 0.3249 0.0
C2261 C 0.59257 0.45592 0.31899 0.0
C2262 C 0.60078 0.41953 0.31003 0.0
C2263 C 0.60358 0.42491 0.28886 0.0
H2264 H 0.59506 0.43037 0.34128 0.0
H2265 H 0.60444 0.40385 0.31544 0.0
S2266 S 0.59372 0.47678 0.26464 0.0
N2267 N 0.58955 0.4805 0.28991 0.0
N2268 N 0.60001 0.45181 0.26217 0.0
C2269 C 0.59874 0.44539 0.28246 0.0
C2270 C 0.59307 0.4609 0.29749 0.0
C2271 C 0.1915 0.88386 0.95095 0.0
C2272 C 0.17509 0.8709 0.95792 0.0
C2273 C 0.2061 0.87686 0.93632 0.0
C2274 C 0.20517 0.85648 0.92803 0.0
H2275 H 0.19304 0.89979 0.95663 0.0
H2276 H 0.21831 0.88766 0.93152 0.0
S2277 S 0.16564 0.81597 0.94134 0.0
N2278 N 0.15882 0.83648 0.95561 0.0
N2279 N 0.18671 0.82312 0.92807 0.0
C2280 C 0.18908 0.8431 0.93501 0.0
C2281 C 0.17392 0.85037 0.94992 0.0
C2282 C 0.37797 0.91557 0.17802 0.0
C2283 C 0.38518 0.91618 0.19883 0.0
C2284 C 0.38397 0.93098 0.16354 0.0
C2285 C 0.39777 0.94721 0.16924 0.0
H2286 H 0.3664 0.90407 0.17327 0.0
H2287 H 0.37696 0.93076 0.14807 0.0
S2288 S 0.42338 0.95404 0.22095 0.0
N2289 N 0.40844 0.9331 0.22385 0.0
N2290 N 0.42014 0.96174 0.19643 0.0
C2291 C 0.40652 0.94693 0.18944 0.0
C2292 C 0.40009 0.93148 0.20431 0.0
C2293 C 0.09316 0.07003 0.69351 0.0
C2294 C 0.1107 0.08314 0.6912 0.0
C2295 C 0.08871 0.05456 0.67846 0.0
C2296 C 0.1018 0.05178 0.66091 0.0
H2297 H 0.08396 0.07057 0.70775 0.0
H2298 H 0.07601 0.04367 0.6815 0.0
S2299 S 0.14735 0.08488 0.64629 0.0
N2300 N 0.13945 0.09433 0.66904 0.0
N2301 N 0.13107 0.06555 0.64067 0.0
C2302 C 0.11815 0.0662 0.65758 0.0
C2303 C 0.12261 0.08181 0.67284 0.0
C2304 C 0.05055 0.0973 0.44985 0.0
C2305 C 0.04168 0.11744 0.44934 0.0
C2306 C 0.06879 0.09324 0.46128 0.0
C2307 C 0.07904 0.10923 0.47248 0.0
H2308 H 0.04381 0.08471 0.44064 0.0
H2309 H 0.07536 0.0776 0.46058 0.0
S2310 S 0.06123 0.16438 0.47745 0.0
N2311 N 0.04361 0.15328 0.46207 0.0
N2312 N 0.0781 0.14572 0.48355 0.0
C2313 C 0.0697 0.12921 0.47305 0.0
C2314 C 0.05094 0.1333 0.46149 0.0
C2315 C 0.1537 0.82512 0.70213 0.0
C2316 C 0.14115 0.82975 0.71962 0.0
C2317 C 0.15057 0.80689 0.69047 0.0
C2318 C 0.13486 0.79243 0.6959 0.0
H2319 H 0.16588 0.83584 0.6971 0.0
H2320 H 0.16036 0.80431 0.67684 0.0
S2321 S 0.09831 0.7966 0.74089 0.0
N2322 N 0.11281 0.818 0.74232 0.0
N2323 N 0.10698 0.78352 0.7203 0.0
C2324 C 0.12257 0.79645 0.71372 0.0
C2325 C 0.12567 0.8152 0.72558 0.0
C2326 C 0.43347 0.86958 0.9725 0.0
C2327 C 0.4237 0.88932 0.97358 0.0
C2328 C 0.45007 0.86598 0.95851 0.0
C2329 C 0.45731 0.882 0.94519 0.0
H2330 H 0.42756 0.85657 0.98166 0.0
H2331 H 0.45638 0.85027 0.95722 0.0
S2332 S 0.4397 0.93736 0.94484 0.0
N2333 N 0.42451 0.92578 0.96229 0.0
N2334 N 0.45547 0.91889 0.93596 0.0
C2335 C 0.44876 0.90214 0.94732 0.0
C2336 C 0.432 0.90584 0.96155 0.0
C2337 C 0.35456 0.19235 0.19267 0.0
C2338 C 0.37122 0.20561 0.1983 0.0
C2339 C 0.34995 0.17437 0.20427 0.0
C2340 C 0.36191 0.16877 0.22192 0.0
H2341 H 0.34509 0.19571 0.17897 0.0
H2342 H 0.33704 0.16463 0.19909 0.0
S2343 S 0.40701 0.1985 0.24357 0.0
N2344 N 0.39951 0.21228 0.22295 0.0
N2345 N 0.39091 0.17826 0.24484 0.0
C2346 C 0.37843 0.18209 0.22801 0.0
C2347 C 0.38304 0.20059 0.21621 0.0
C2348 C 0.0469 0.86246 0.03506 0.0
C2349 C 0.03614 0.87835 0.0459 0.0
C2350 C 0.06493 0.86702 0.02333 0.0
C2351 C 0.0727 0.88762 0.02201 0.0
H2352 H 0.04223 0.84622 0.03679 0.0
H2353 H 0.0734 0.85417 0.01618 0.0
S2354 S 0.04789 0.93523 0.04448 0.0
N2355 N 0.03288 0.9157 0.05242 0.0
N2356 N 0.06655 0.92439 0.03023 0.0
C2357 C 0.06104 0.90383 0.03138 0.0
C2358 C 0.0428 0.89916 0.04336 0.0
C2359 C 0.34846 0.80061 0.2938 0.0
C2360 C 0.36803 0.79062 0.29307 0.0
C2361 C 0.34411 0.81787 0.28107 0.0
C2362 C 0.35927 0.82599 0.26725 0.0
H2363 H 0.33665 0.79561 0.30495 0.0
H2364 H 0.32904 0.82548 0.28286 0.0
S2365 S 0.41225 0.80402 0.2578 0.0
N2366 N 0.4021 0.78876 0.2761 0.0
N2367 N 0.39401 0.82152 0.25219 0.0
C2368 C 0.37844 0.8153 0.26532 0.0
C2369 C 0.38281 0.7975 0.27824 0.0
C2370 C 0.4235 0.12682 0.52875 0.0
C2371 C 0.41249 0.10777 0.53066 0.0
C2372 C 0.44124 0.13093 0.5411 0.0
C2373 C 0.44822 0.11627 0.55598 0.0
H2374 H 0.41814 0.13879 0.51796 0.0
H2375 H 0.4489 0.14603 0.53973 0.0
S2376 S 0.42616 0.06347 0.56591 0.0
N2377 N 0.41095 0.07355 0.54757 0.0
N2378 N 0.44391 0.08158 0.571 0.0
C2379 C 0.43789 0.09693 0.55748 0.0
C2380 C 0.42011 0.09259 0.54474 0.0
C2381 C 0.11619 0.18088 0.77414 0.0
C2382 C 0.13477 0.16898 0.77398 0.0
C2383 C 0.1139 0.19809 0.78767 0.0
C2384 C 0.13009 0.20381 0.80148 0.0
H2385 H 0.10302 0.17637 0.76441 0.0
H2386 H 0.099 0.2062 0.78812 0.0
S2387 S 0.18296 0.17998 0.8048 0.0
N2388 N 0.17052 0.16585 0.78705 0.0
N2389 N 0.16603 0.19793 0.81253 0.0
C2390 C 0.14916 0.19292 0.8005 0.0
C2391 C 0.15155 0.17556 0.78672 0.0
C2392 C 0.47443 0.06877 0.1235 0.0
C2393 C 0.46986 0.08213 0.10651 0.0
C2394 C 0.46135 0.05174 0.12843 0.0
C2395 C 0.44317 0.04765 0.11667 0.0
H2396 H 0.48795 0.07172 0.13334 0.0
H2397 H 0.46512 0.04216 0.14195 0.0
S2398 S 0.42528 0.07654 0.06943 0.0
N2399 N 0.44664 0.089 0.07698 0.0
N2400 N 0.42211 0.05728 0.08639 0.0
C2401 C 0.43886 0.0604 0.09921 0.0
C2402 C 0.4522 0.07756 0.09409 0.0
C2403 C 0.19602 0.21558 0.39563 0.0
C2404 C 0.21013 0.21043 0.37946 0.0
C2405 C 0.17801 0.22753 0.39154 0.0
C2406 C 0.17355 0.23454 0.37114 0.0
H2407 H 0.19808 0.20914 0.41121 0.0
H2408 H 0.16679 0.22991 0.40406 0.0
S2409 S 0.20768 0.22917 0.32442 0.0
N2410 N 0.22012 0.21628 0.3431 0.0
N2411 N 0.18618 0.23844 0.33542 0.0
C2412 C 0.18851 0.23123 0.35535 0.0
C2413 C 0.20687 0.21926 0.35952 0.0
C2414 C 0.04959 0.91594 0.59822 0.0
C2415 C 0.03083 0.91345 0.60952 0.0
C2416 C 0.06278 0.93307 0.60174 0.0
C2417 C 0.05765 0.94856 0.61654 0.0
H2418 H 0.05442 0.90431 0.58683 0.0
H2419 H 0.07724 0.93404 0.5929 0.0
S2420 S 0.0098 0.95002 0.64954 0.0
N2421 N 0.0074 0.9283 0.63567 0.0
N2422 N 0.03217 0.96075 0.64212 0.0
C2423 C 0.03865 0.94665 0.62755 0.0
C2424 C 0.02527 0.92902 0.62411 0.0
C2425 C 0.31426 0.77845 0.84194 0.0
C2426 C 0.32385 0.7655 0.85699 0.0
C2427 C 0.29709 0.79099 0.84707 0.0
C2428 C 0.28864 0.79092 0.86739 0.0
H2429 H 0.32073 0.77983 0.82629 0.0
H2430 H 0.29103 0.80162 0.83527 0.0
S2431 S 0.30608 0.75779 0.91184 0.0
N2432 N 0.32227 0.75176 0.89256 0.0
N2433 N 0.28968 0.77534 0.90214 0.0
C2434 C 0.29687 0.77679 0.88215 0.0
C2435 C 0.31458 0.76405 0.87696 0.0
C2436 C 0.47272 0.93129 0.37313 0.0
C2437 C 0.47325 0.92167 0.39301 0.0
C2438 C 0.45917 0.94816 0.36904 0.0
C2439 C 0.44565 0.95582 0.38466 0.0
H2440 H 0.48209 0.92516 0.36038 0.0
H2441 H 0.45842 0.9544 0.35326 0.0
S2442 S 0.44337 0.93845 0.44008 0.0
N2443 N 0.46089 0.9229 0.42911 0.0
N2444 N 0.43533 0.95429 0.42126 0.0
C2445 C 0.44705 0.9473 0.4049 0.0
C2446 C 0.46089 0.9303 0.40912 0.0
C2447 C 0.29896 0.20753 0.60928 0.0
C2448 C 0.29073 0.19526 0.62566 0.0
C2449 C 0.31583 0.22127 0.61281 0.0
C2450 C 0.32495 0.2231 0.63281 0.0
H2451 H 0.29298 0.20586 0.59348 0.0
H2452 H 0.32226 0.22985 0.59964 0.0
S2453 S 0.30692 0.1968 0.68153 0.0
N2454 N 0.29139 0.18759 0.66301 0.0
N2455 N 0.32293 0.21326 0.66963 0.0
C2456 C 0.31598 0.21184 0.64952 0.0
C2457 C 0.29889 0.19795 0.64595 0.0
C2458 C 0.04099 0.04622 0.89825 0.0
C2459 C 0.04017 0.03611 0.87874 0.0
C2460 C 0.02879 0.06389 0.9023 0.0
C2461 C 0.01544 0.0723 0.8869 0.0
H2462 H 0.05191 0.04102 0.9102 0.0
H2463 H 0.03066 0.07158 0.91733 0.0
S2464 S 0.00587 0.05014 0.83399 0.0
N2465 N 0.02357 0.03442 0.84449 0.0
N2466 N 0.00058 0.06795 0.85202 0.0
C2467 C 0.01331 0.06146 0.86781 0.0
C2468 C 0.02571 0.04325 0.86374 0.0
C2469 C 0.20631 0.79377 0.14102 0.0
C2470 C 0.2097 0.80215 0.1209 0.0
C2471 C 0.18964 0.78011 0.14497 0.0
C2472 C 0.17579 0.77412 0.12893 0.0
H2473 H 0.21594 0.79865 0.15414 0.0
H2474 H 0.18705 0.77493 0.16094 0.0
S2475 S 0.17905 0.78976 0.07303 0.0
N2476 N 0.19884 0.80206 0.08433 0.0
N2477 N 0.16752 0.77611 0.09177 0.0
C2478 C 0.17987 0.78107 0.10841 0.0
C2479 C 0.19684 0.79516 0.10438 0.0
C2480 C 0.09914 0.44599 0.05033 0.0
C2481 C 0.11856 0.44732 0.04012 0.0
C2482 C 0.09428 0.45918 0.06705 0.0
C2483 C 0.10878 0.47405 0.07446 0.0
H2484 H 0.08782 0.43415 0.04582 0.0
H2485 H 0.07931 0.45701 0.07478 0.0
S2486 S 0.16123 0.48495 0.0518 0.0
N2487 N 0.15185 0.46562 0.03735 0.0
N2488 N 0.14285 0.49043 0.0692 0.0
C2489 C 0.12787 0.47635 0.06364 0.0
C2490 C 0.13273 0.46298 0.04633 0.0
C2491 C 0.63385 0.02937 0.925 0.0
C2492 C 0.61357 0.02784 0.91636 0.0
C2493 C 0.63793 0.04263 0.94213 0.0
C2494 C 0.62189 0.05488 0.95092 0.0
H2495 H 0.64677 0.02082 0.91808 0.0
H2496 H 0.65387 0.0441 0.9478 0.0
S2497 S 0.56573 0.05458 0.93609 0.0
N2498 N 0.57693 0.03815 0.91955 0.0
N2499 N 0.5848 0.06323 0.95128 0.0
C2500 C 0.60144 0.05267 0.94318 0.0
C2501 C 0.59722 0.03909 0.92601 0.0
C2502 C 0.18889 0.34735 0.1946 0.0
C2503 C 0.18967 0.36512 0.20756 0.0
C2504 C 0.20296 0.3448 0.17802 0.0
C2505 C 0.21831 0.36001 0.17358 0.0
H2506 H 0.17694 0.3355 0.19694 0.0
H2507 H 0.20137 0.33099 0.16828 0.0
S2508 S 0.22755 0.40906 0.20342 0.0
N2509 N 0.20756 0.39785 0.21545 0.0
N2510 N 0.23406 0.39311 0.1841 0.0
C2511 C 0.21978 0.37755 0.18686 0.0
C2512 C 0.20546 0.38008 0.20391 0.0
C2513 C 0.89615 0.93905 0.44161 0.0
C2514 C 0.87707 0.93861 0.45258 0.0
C2515 C 0.89948 0.95311 0.4252 0.0
C2516 C 0.88384 0.96731 0.41893 0.0
H2517 H 0.90858 0.92812 0.44545 0.0
H2518 H 0.91438 0.95246 0.41708 0.0
S2519 S 0.83136 0.97326 0.44326 0.0
N2520 N 0.84254 0.95417 0.45673 0.0
N2521 N 0.84877 0.98074 0.42561 0.0
C2522 C 0.86489 0.96762 0.43023 0.0
C2523 C 0.86152 0.95324 0.44713 0.0
C2524 C 0.80789 0.14771 0.18854 0.0
C2525 C 0.80529 0.13018 0.20163 0.0
C2526 C 0.7947 0.15117 0.17144 0.0
C2527 C 0.77833 0.13723 0.16662 0.0
H2528 H 0.82056 0.15871 0.19123 0.0
H2529 H 0.79767 0.16477 0.16171 0.0
S2530 S 0.76419 0.08936 0.19651 0.0
N2531 N 0.78462 0.09903 0.20914 0.0
N2532 N 0.75965 0.10557 0.17683 0.0
C2533 C 0.77505 0.11995 0.17994 0.0
C2534 C 0.78856 0.11643 0.1975 0.0
C2535 C 0.36776 0.53871 0.55081 0.0
C2536 C 0.38435 0.54921 0.54078 0.0
C2537 C 0.37144 0.52606 0.56844 0.0
C2538 C 0.39181 0.52352 0.5765 0.0
H2539 H 0.35172 0.5414 0.54592 0.0
H2540 H 0.35813 0.51921 0.57647 0.0
S2541 S 0.44087 0.54458 0.55329 0.0
N2542 N 0.42201 0.55407 0.53833 0.0
N2543 N 0.42903 0.53016 0.57123 0.0
C2544 C 0.40865 0.53256 0.56547 0.0
C2545 C 0.40489 0.54545 0.54765 0.0
C2546 C 0.21634 0.65359 0.31535 0.0
C2547 C 0.22855 0.63749 0.32419 0.0
C2548 C 0.20357 0.6499 0.29797 0.0
C2549 C 0.20262 0.63004 0.28857 0.0
H2550 H 0.21585 0.669 0.32245 0.0
H2551 H 0.19364 0.66252 0.29243 0.0
S2552 S 0.2333 0.58317 0.30402 0.0
N2553 N 0.24034 0.60135 0.32105 0.0
N2554 N 0.21629 0.59448 0.2881 0.0
C2555 C 0.21587 0.61417 0.29619 0.0
C2556 C 0.22885 0.61788 0.3141 0.0
C2557 C 0.27416 0.3759 0.81782 0.0
C2558 C 0.27947 0.35835 0.83014 0.0
C2559 C 0.28529 0.38067 0.79943 0.0
C2560 C 0.30211 0.36809 0.79282 0.0
H2561 H 0.26164 0.38629 0.82265 0.0
H2562 H 0.28122 0.39473 0.79081 0.0
S2563 S 0.3208 0.31916 0.81815 0.0
N2564 N 0.30164 0.32746 0.8334 0.0
N2565 N 0.32246 0.33647 0.79901 0.0
C2566 C 0.30698 0.35005 0.80451 0.0
C2567 C 0.29569 0.34518 0.82313 0.0
C2568 C 0.93751 0.89171 0.52829 0.0
C2569 C 0.92609 0.87507 0.51943 0.0
C2570 C 0.95421 0.88799 0.54194 0.0
C2571 C 0.96031 0.86749 0.54713 0.0
H2572 H 0.93291 0.90782 0.52551 0.0
H2573 H 0.96181 0.90133 0.54922 0.0
S2574 S 0.93725 0.8184 0.52631 0.0
N2575 N 0.92328 0.83724 0.51533 0.0
N2576 N 0.95497 0.83028 0.54098 0.0
C2577 C 0.95013 0.85067 0.5372 0.0
C2578 C 0.93292 0.85446 0.52334 0.0
C2579 C 0.85266 0.19577 0.30204 0.0
C2580 C 0.86999 0.20893 0.29867 0.0
C2581 C 0.8489 0.17845 0.28919 0.0
C2582 C 0.86248 0.1734 0.27258 0.0
H2583 H 0.84213 0.19856 0.31507 0.0
H2584 H 0.83559 0.16855 0.29283 0.0
S2585 S 0.90939 0.20368 0.25626 0.0
N2586 N 0.90025 0.21654 0.27678 0.0
N2587 N 0.89333 0.18369 0.25265 0.0
C2588 C 0.87945 0.18688 0.26848 0.0
C2589 C 0.88316 0.20474 0.2815 0.0
C2590 C 0.54796 0.10161 0.04137 0.0
C2591 C 0.53949 0.12181 0.04345 0.0
C2592 C 0.56532 0.0979 0.02855 0.0
C2593 C 0.57509 0.11432 0.01751 0.0
H2594 H 0.5417 0.08869 0.05046 0.0
H2595 H 0.57173 0.08218 0.02814 0.0
S2596 S 0.55776 0.16983 0.01626 0.0
N2597 N 0.54104 0.15819 0.03223 0.0
N2598 N 0.57392 0.1513 0.00818 0.0
C2599 C 0.56597 0.13438 0.01841 0.0
C2600 C 0.54809 0.13811 0.03138 0.0
C2601 C 0.64963 0.80293 0.79674 0.0
C2602 C 0.63073 0.79173 0.79515 0.0
C2603 C 0.65334 0.82069 0.78443 0.0
C2604 C 0.63811 0.82815 0.77035 0.0
H2605 H 0.66139 0.79837 0.80812 0.0
H2606 H 0.66787 0.82918 0.78673 0.0
S2607 S 0.58671 0.80336 0.75905 0.0
N2608 N 0.59724 0.78833 0.77732 0.0
N2609 N 0.60403 0.82203 0.75434 0.0
C2610 C 0.61954 0.81649 0.76785 0.0
C2611 C 0.61591 0.79817 0.78019 0.0
C2612 C 0.9207 0.13796 0.964 0.0
C2613 C 0.91905 0.11844 0.9741 0.0
C2614 C 0.93872 0.14322 0.95251 0.0
C2615 C 0.95566 0.12917 0.95095 0.0
H2616 H 0.90749 0.14862 0.96375 0.0
H2617 H 0.93872 0.1577 0.94364 0.0
S2618 S 0.96062 0.0781 0.97841 0.0
N2619 N 0.93692 0.08648 0.98452 0.0
N2620 N 0.97088 0.09643 0.96329 0.0
C2621 C 0.95493 0.11055 0.96276 0.0
C2622 C 0.93656 0.10513 0.97422 0.0
C2623 C 0.6183 0.17698 0.71807 0.0
C2624 C 0.63827 0.16767 0.71931 0.0
C2625 C 0.61467 0.19432 0.70504 0.0
C2626 C 0.63084 0.20278 0.69271 0.0
H2627 H 0.60516 0.17029 0.72649 0.0
H2628 H 0.59883 0.20029 0.70367 0.0
S2629 S 0.68654 0.18627 0.69259 0.0
N2630 N 0.67494 0.16987 0.7089 0.0
N2631 N 0.66795 0.2022 0.68425 0.0
C2632 C 0.65112 0.19454 0.69485 0.0
C2633 C 0.65489 0.17704 0.70822 0.0
C2634 C 0.55597 0.89991 0.44483 0.0
C2635 C 0.54609 0.88035 0.44682 0.0
C2636 C 0.5731 0.90529 0.45734 0.0
C2637 C 0.58136 0.89115 0.47213 0.0
H2638 H 0.55067 0.91107 0.43315 0.0
H2639 H 0.58039 0.92041 0.45479 0.0
S2640 S 0.5604 0.83826 0.48425 0.0
N2641 N 0.54494 0.84714 0.46545 0.0
N2642 N 0.57763 0.85705 0.48883 0.0
C2643 C 0.5712 0.87174 0.47482 0.0
C2644 C 0.55342 0.8664 0.46222 0.0
C2645 C 0.84701 0.82855 0.19659 0.0
C2646 C 0.85626 0.83152 0.21637 0.0
C2647 C 0.85171 0.81098 0.18441 0.0
C2648 C 0.86557 0.79549 0.19167 0.0
H2649 H 0.83632 0.8401 0.1902 0.0
H2650 H 0.84445 0.80959 0.16911 0.0
S2651 S 0.89339 0.79537 0.24274 0.0
N2652 N 0.87964 0.8173 0.24293 0.0
N2653 N 0.88821 0.78393 0.2201 0.0
C2654 C 0.87459 0.79795 0.21163 0.0
C2655 C 0.87003 0.81608 0.22396 0.0
C2656 C 0.53876 0.94836 0.85869 0.0
C2657 C 0.55085 0.95721 0.87488 0.0
C2658 C 0.52525 0.93142 0.86264 0.0
C2659 C 0.52351 0.92284 0.88289 0.0
H2660 H 0.54054 0.9538 0.84269 0.0
H2661 H 0.51698 0.92436 0.8496 0.0
S2662 S 0.54893 0.94285 0.93123 0.0
N2663 N 0.55808 0.95795 0.91231 0.0
N2664 N 0.53285 0.9262 0.91971 0.0
C2665 C 0.53436 0.93256 0.89941 0.0
C2666 C 0.548 0.94975 0.89541 0.0
C2667 C 0.81809 0.77567 0.61915 0.0
C2668 C 0.8254 0.7734 0.63985 0.0
C2669 C 0.80088 0.78859 0.61454 0.0
C2670 C 0.79051 0.79974 0.63048 0.0
H2671 H 0.82636 0.76831 0.60628 0.0
H2672 H 0.79659 0.79093 0.59827 0.0
S2673 S 0.80114 0.79641 0.68752 0.0
N2674 N 0.81907 0.78124 0.67669 0.0
N2675 N 0.78702 0.80568 0.66791 0.0
C2676 C 0.79664 0.79636 0.65134 0.0
C2677 C 0.81402 0.78315 0.65606 0.0
C2678 C 0.95858 0.04805 0.37076 0.0
C2679 C 0.94313 0.04201 0.38528 0.0
C2680 C 0.97122 0.0657 0.37438 0.0
C2681 C 0.96886 0.07783 0.39266 0.0
H2682 H 0.96023 0.03974 0.35605 0.0
H2683 H 0.9824 0.07025 0.36244 0.0
S2684 S 0.93252 0.06677 0.43679 0.0
N2685 N 0.92753 0.04824 0.41946 0.0
N2686 N 0.95125 0.08123 0.42636 0.0
C2687 C 0.95427 0.07118 0.40781 0.0
C2688 C 0.94141 0.0533 0.4041 0.0
C2689 C 0.68439 0.22764 0.11741 0.0
C2690 C 0.67509 0.22883 0.13738 0.0
C2691 C 0.70153 0.21438 0.11371 0.0
C2692 C 0.7098 0.20184 0.12985 0.0
H2693 H 0.67769 0.23608 0.10428 0.0
H2694 H 0.70736 0.2129 0.09783 0.0
S2695 S 0.69372 0.20217 0.18568 0.0
N2696 N 0.67745 0.21862 0.1741 0.0
N2697 N 0.70942 0.19356 0.16701 0.0
C2698 C 0.70178 0.2042 0.15019 0.0
C2699 C 0.68447 0.21775 0.154 0.0
C2700 C 0.52966 0.05013 0.64164 0.0
C2701 C 0.53642 0.03663 0.62558 0.0
C2702 C 0.51763 0.06797 0.63704 0.0
C2703 C 0.51205 0.07276 0.61625 0.0
H2704 H 0.53492 0.04778 0.65762 0.0
H2705 H 0.51393 0.07874 0.64962 0.0
S2706 S 0.52203 0.03988 0.56935 0.0
N2707 N 0.53388 0.02743 0.5887 0.0
N2708 N 0.51126 0.06082 0.58004 0.0
C2709 C 0.51702 0.05829 0.60041 0.0
C2710 C 0.52922 0.04021 0.60509 0.0
C2711 C 0.68161 0.77606 0.37379 0.0
C2712 C 0.66286 0.78323 0.36469 0.0
C2713 C 0.69776 0.79014 0.37895 0.0
C2714 C 0.69549 0.81181 0.37543 0.0
H2715 H 0.68403 0.75946 0.37641 0.0
H2716 H 0.71217 0.78397 0.38547 0.0
S2717 S 0.6483 0.8385 0.35403 0.0
N2718 N 0.64231 0.81336 0.35373 0.0
N2719 N 0.67228 0.83978 0.36362 0.0
C2720 C 0.67641 0.81915 0.36707 0.0
C2721 C 0.66019 0.80485 0.36165 0.0
C2722 C 0.97109 0.92835 0.12188 0.0
C2723 C 0.96328 0.91053 0.11147 0.0
C2724 C 0.95845 0.94614 0.125 0.0
C2725 C 0.93755 0.94665 0.1179 0.0
H2726 H 0.98716 0.92869 0.12735 0.0
H2727 H 0.9651 0.95956 0.13299 0.0
S2728 S 0.90932 0.9034 0.09087 0.0
N2729 N 0.93312 0.89417 0.09487 0.0
N2730 N 0.90948 0.92731 0.10065 0.0
C2731 C 0.92952 0.92873 0.10778 0.0
C2732 C 0.94235 0.91076 0.1046 0.0
C2733 C 0.81477 0.21199 0.84219 0.0
C2734 C 0.82623 0.22166 0.85835 0.0
C2735 C 0.79765 0.19909 0.84659 0.0
C2736 C 0.79123 0.19535 0.86733 0.0
H2737 H 0.81959 0.21364 0.82598 0.0
H2738 H 0.78998 0.19123 0.83363 0.0
S2739 S 0.81429 0.21894 0.91521 0.0
N2740 N 0.82874 0.22824 0.89584 0.0
N2741 N 0.79637 0.20389 0.90413 0.0
C2742 C 0.80154 0.20611 0.88358 0.0
C2743 C 0.8191 0.21928 0.87909 0.0
C2744 C 0.89864 0.55181 0.94936 0.0
C2745 C 0.87959 0.55135 0.96041 0.0
C2746 C 0.90225 0.53833 0.93247 0.0
C2747 C 0.887 0.52379 0.92598 0.0
H2748 H 0.91054 0.56328 0.95314 0.0
H2749 H 0.91691 0.53987 0.924 0.0
S2750 S 0.83549 0.51448 0.95132 0.0
N2751 N 0.846 0.53382 0.96493 0.0
N2752 N 0.85287 0.50837 0.93315 0.0
C2753 C 0.86841 0.52221 0.93771 0.0
C2754 C 0.86468 0.53601 0.95496 0.0
C2755 C 0.36652 0.96034 0.04984 0.0
C2756 C 0.38275 0.94852 0.04081 0.0
C2757 C 0.3704 0.9734 0.06713 0.0
C2758 C 0.39066 0.97512 0.07575 0.0
H2759 H 0.35053 0.95844 0.04445 0.0
H2760 H 0.35728 0.98134 0.07439 0.0
S2761 S 0.43902 0.95014 0.05507 0.0
N2762 N 0.42006 0.94125 0.03987 0.0
N2763 N 0.42756 0.966 0.07199 0.0
C2764 C 0.40726 0.96467 0.06564 0.0
C2765 C 0.40324 0.95129 0.04825 0.0
C2766 C 0.77221 0.61957 0.81944 0.0
C2767 C 0.77222 0.64 0.82781 0.0
C2768 C 0.78384 0.61473 0.80138 0.0
C2769 C 0.79592 0.63015 0.79131 0.0
H2770 H 0.764 0.60702 0.82741 0.0
H2771 H 0.78448 0.59859 0.79613 0.0
S2772 S 0.79871 0.68652 0.80483 0.0
N2773 N 0.78332 0.67623 0.8229 0.0
N2774 N 0.80541 0.66691 0.78937 0.0
C2775 C 0.79492 0.65083 0.79863 0.0
C2776 C 0.78298 0.65582 0.81679 0.0
C2777 C 0.13957 0.03558 0.54628 0.0
C2778 C 0.12416 0.04844 0.53723 0.0
C2779 C 0.13464 0.02227 0.56316 0.0
C2780 C 0.1141 0.02125 0.57123 0.0
H2781 H 0.15571 0.0367 0.54112 0.0
H2782 H 0.14716 0.01342 0.57046 0.0
S2783 S 0.06763 0.04955 0.55039 0.0
N2784 N 0.08736 0.05783 0.53586 0.0
N2785 N 0.07785 0.03257 0.56703 0.0
C2786 C 0.09833 0.03296 0.56114 0.0
C2787 C 0.10344 0.04665 0.54428 0.0
C2788 C 0.21024 0.84243 0.82049 0.0
C2789 C 0.22444 0.85691 0.82909 0.0
C2790 C 0.19856 0.84725 0.80261 0.0
C2791 C 0.20057 0.86676 0.79255 0.0
H2792 H 0.20765 0.82738 0.82792 0.0
H2793 H 0.18732 0.83579 0.79706 0.0
S2794 S 0.23679 0.90963 0.80779 0.0
N2795 N 0.24091 0.89113 0.82543 0.0
N2796 N 0.21878 0.90025 0.79172 0.0
C2797 C 0.21547 0.88104 0.80031 0.0
C2798 C 0.22744 0.87611 0.81862 0.0
C2799 C 0.63537 0.45832 0.41784 0.0
C2800 C 0.62071 0.47469 0.41849 0.0
C2801 C 0.63894 0.44577 0.43548 0.0
C2802 C 0.62845 0.44966 0.45447 0.0
H2803 H 0.64333 0.45449 0.40332 0.0
H2804 H 0.64964 0.43265 0.43416 0.0
S2805 S 0.59006 0.49184 0.4648 0.0
N2806 N 0.59645 0.49486 0.43987 0.0
N2807 N 0.60392 0.4717 0.47336 0.0
C2808 C 0.6147 0.46669 0.45569 0.0
C2809 C 0.61059 0.47912 0.43757 0.0
C2810 C 0.77098 0.36221 0.68807 0.0
C2811 C 0.77467 0.3715 0.66838 0.0
C2812 C 0.78439 0.36602 0.70509 0.0
C2813 C 0.80217 0.3787 0.70267 0.0
H2814 H 0.75796 0.35151 0.69017 0.0
H2815 H 0.78148 0.35809 0.71983 0.0
S2816 S 0.8182 0.40752 0.65482 0.0
N2817 N 0.79663 0.39497 0.6479 0.0
N2818 N 0.82227 0.40144 0.67967 0.0
C2819 C 0.80564 0.38862 0.68333 0.0
C2820 C 0.79173 0.38522 0.66621 0.0
C2821 C 0.72589 0.60762 0.17737 0.0
C2822 C 0.73455 0.62768 0.17441 0.0
C2823 C 0.714 0.60296 0.19528 0.0
C2824 C 0.71047 0.61819 0.21084 0.0
H2825 H 0.72701 0.59591 0.16512 0.0
H2826 H 0.7064 0.58781 0.19621 0.0
S2827 S 0.7335 0.67161 0.21244 0.0
N2828 N 0.7415 0.66178 0.18989 0.0
N2829 N 0.71937 0.65302 0.22361 0.0
C2830 C 0.7208 0.6376 0.20899 0.0
C2831 C 0.73278 0.64235 0.19073 0.0
C2832 C 0.55853 0.60283 0.9397 0.0
C2833 C 0.54403 0.61892 0.94373 0.0
C2834 C 0.57559 0.59932 0.95296 0.0
C2835 C 0.579 0.61179 0.97081 0.0
H2836 H 0.55692 0.59301 0.92594 0.0
H2837 H 0.58641 0.58687 0.94891 0.0
S2838 S 0.5452 0.65554 0.98887 0.0
N2839 N 0.53376 0.64711 0.96723 0.0
N2840 N 0.56601 0.64052 0.99225 0.0
C2841 C 0.56436 0.62765 0.97537 0.0
C2842 C 0.54682 0.63119 0.96183 0.0
C2843 C 0.64439 0.30368 0.19836 0.0
C2844 C 0.62438 0.29494 0.19554 0.0
C2845 C 0.64764 0.32025 0.21227 0.0
C2846 C 0.63095 0.32899 0.22369 0.0
H2847 H 0.65758 0.29809 0.18925 0.0
H2848 H 0.66327 0.32682 0.21333 0.0
S2849 S 0.57576 0.31055 0.22315 0.0
N2850 N 0.58787 0.29507 0.20631 0.0
N2851 N 0.59386 0.32662 0.23237 0.0
C2852 C 0.611 0.3197 0.22182 0.0
C2853 C 0.60775 0.30255 0.20777 0.0
C2854 C 0.94354 0.35174 0.45776 0.0
C2855 C 0.95797 0.36804 0.45421 0.0
C2856 C 0.92607 0.35472 0.47079 0.0
C2857 C 0.92248 0.37412 0.48063 0.0
H2858 H 0.94499 0.33701 0.44944 0.0
H2859 H 0.91469 0.34218 0.47213 0.0
S2860 S 0.95776 0.42034 0.47963 0.0
N2861 N 0.96912 0.40317 0.46398 0.0
N2862 N 0.93632 0.40878 0.48835 0.0
C2863 C 0.93772 0.38989 0.47859 0.0
C2864 C 0.95548 0.38685 0.46541 0.0
C2865 C 0.84612 0.67119 0.70343 0.0
C2866 C 0.85757 0.66694 0.72179 0.0
C2867 C 0.85115 0.68818 0.69059 0.0
C2868 C 0.86764 0.70184 0.69569 0.0
H2869 H 0.83345 0.66099 0.69855 0.0
H2870 H 0.84212 0.69048 0.67637 0.0
S2871 S 0.90178 0.69846 0.74264 0.0
N2872 N 0.88573 0.67825 0.74489 0.0
N2873 N 0.89498 0.71058 0.72078 0.0
C2874 C 0.87881 0.6983 0.71437 0.0
C2875 C 0.87384 0.68073 0.72739 0.0
C2876 C 0.55017 0.36874 0.53551 0.0
C2877 C 0.54107 0.38384 0.54868 0.0
C2878 C 0.56778 0.37367 0.52322 0.0
C2879 C 0.57657 0.39393 0.52352 0.0
H2880 H 0.54453 0.35272 0.53574 0.0
H2881 H 0.57507 0.3613 0.51418 0.0
S2882 S 0.55605 0.43975 0.55306 0.0
N2883 N 0.5405 0.42018 0.55976 0.0
N2884 N 0.57305 0.42977 0.53632 0.0
C2885 C 0.56643 0.40952 0.53543 0.0
C2886 C 0.54882 0.40438 0.54814 0.0
C2887 C 0.84436 0.3158 0.78508 0.0
C2888 C 0.85887 0.32314 0.77017 0.0
C2889 C 0.84896 0.2987 0.79794 0.0
C2890 C 0.86806 0.28796 0.79613 0.0
H2891 H 0.8297 0.32397 0.78765 0.0
H2892 H 0.83771 0.29426 0.80986 0.0
S2893 S 0.91045 0.2992 0.75804 0.0
N2894 N 0.89252 0.31725 0.75322 0.0
N2895 N 0.90095 0.28462 0.77723 0.0
C2896 C 0.88215 0.29411 0.78037 0.0
C2897 C 0.87761 0.31184 0.76742 0.0
C2898 C 0.91267 0.61126 0.05569 0.0
C2899 C 0.91278 0.62033 0.03562 0.0
C2900 C 0.92878 0.61506 0.06997 0.0
C2901 C 0.94581 0.62808 0.06485 0.0
H2902 H 0.90003 0.60099 0.06053 0.0
H2903 H 0.92781 0.60756 0.08517 0.0
S2904 S 0.95352 0.65605 0.01442 0.0
N2905 N 0.93121 0.64325 0.01132 0.0
N2906 N 0.96173 0.65041 0.03834 0.0
C2907 C 0.94612 0.63751 0.0449 0.0
C2908 C 0.92954 0.63364 0.03026 0.0
C2909 C 0.65899 0.6816 0.28468 0.0
C2910 C 0.64375 0.67142 0.2724 0.0
C2911 C 0.65407 0.69943 0.29641 0.0
C2912 C 0.63374 0.7079 0.29628 0.0
H2913 H 0.67468 0.67525 0.286 0.0
H2914 H 0.66608 0.70604 0.30643 0.0
S2915 S 0.58871 0.68863 0.26489 0.0
N2916 N 0.60793 0.67222 0.25934 0.0
N2917 N 0.59867 0.70587 0.28142 0.0
C2918 C 0.6187 0.6988 0.28294 0.0
C2919 C 0.62371 0.68051 0.271 0.0
C2920 C 0.94317 0.55557 0.5987 0.0
C2921 C 0.94664 0.54209 0.61579 0.0
C2922 C 0.95525 0.57362 0.59583 0.0
C2923 C 0.97129 0.57901 0.60997 0.0
H2924 H 0.93057 0.55254 0.58773 0.0
H2925 H 0.9516 0.58367 0.58262 0.0
S2926 S 0.98783 0.54816 0.65646 0.0
N2927 N 0.96811 0.53469 0.64645 0.0
N2928 N 0.99091 0.56872 0.64102 0.0
C2929 C 0.97555 0.56524 0.62667 0.0
C2930 C 0.96323 0.54674 0.62957 0.0
C2931 C 0.67506 0.70438 0.84614 0.0
C2932 C 0.66972 0.72224 0.85789 0.0
C2933 C 0.69186 0.69165 0.85192 0.0
C2934 C 0.70422 0.69638 0.86951 0.0
H2935 H 0.6658 0.69975 0.83268 0.0
H2936 H 0.69497 0.67776 0.84266 0.0
S2937 S 0.69788 0.7421 0.90476 0.0
N2938 N 0.67878 0.7446 0.88744 0.0
N2939 N 0.71078 0.72066 0.89812 0.0
C2940 C 0.69972 0.71464 0.88094 0.0
C2941 C 0.68234 0.72756 0.87519 0.0
C2942 C 0.53925 0.45822 0.11363 0.0
C2943 C 0.54701 0.46179 0.13397 0.0
C2944 C 0.52736 0.44042 0.10899 0.0
C2945 C 0.52256 0.42555 0.12452 0.0
H2946 H 0.54329 0.46869 0.10088 0.0
H2947 H 0.52254 0.43794 0.09289 0.0
S2948 S 0.53696 0.42871 0.18077 0.0
N2949 N 0.54748 0.44988 0.17022 0.0
N2950 N 0.52482 0.41644 0.16148 0.0
C2951 C 0.52887 0.42963 0.14525 0.0
C2952 C 0.54117 0.44777 0.14998 0.0
C2953 C 0.80246 0.30526 0.34651 0.0
C2954 C 0.79216 0.30419 0.36595 0.0
C2955 C 0.8199 0.29274 0.34221 0.0
C2956 C 0.82795 0.27877 0.35727 0.0
H2957 H 0.79745 0.31641 0.33471 0.0
H2958 H 0.82761 0.2947 0.32721 0.0
S2959 S 0.8056 0.2687 0.41003 0.0
N2960 N 0.79029 0.28696 0.39991 0.0
N2961 N 0.82331 0.26345 0.3919 0.0
C2962 C 0.81717 0.27672 0.37641 0.0
C2963 C 0.7992 0.28941 0.38073 0.0
C2964 C 0.94361 0.44077 0.90292 0.0
C2965 C 0.94545 0.453 0.88468 0.0
C2966 C 0.95622 0.42319 0.90611 0.0
C2967 C 0.97121 0.41702 0.89119 0.0
H2968 H 0.93181 0.44438 0.91458 0.0
H2969 H 0.95374 0.41404 0.92021 0.0
S2970 S 0.98345 0.4447 0.84149 0.0
N2971 N 0.96431 0.45858 0.85203 0.0
N2972 N 0.9882 0.42537 0.85807 0.0
C2973 C 0.974 0.42969 0.87333 0.0
C2974 C 0.96109 0.44774 0.87008 0.0
C2975 C 0.79181 0.70821 0.13557 0.0
C2976 C 0.79358 0.69291 0.11986 0.0
C2977 C 0.80882 0.72131 0.14045 0.0
C2978 C 0.82783 0.71988 0.12934 0.0
H2979 H 0.77768 0.70925 0.14493 0.0
H2980 H 0.80727 0.73223 0.15336 0.0
S2981 S 0.83945 0.68355 0.08549 0.0
N2982 N 0.81521 0.67776 0.09246 0.0
N2983 N 0.84687 0.70284 0.10106 0.0
C2984 C 0.82926 0.70547 0.11276 0.0
C2985 C 0.81219 0.69183 0.10818 0.0
C2986 C 0.53655 0.56754 0.39891 0.0
C2987 C 0.5242 0.57621 0.38283 0.0
C2988 C 0.55021 0.55094 0.39497 0.0
C2989 C 0.55196 0.5422 0.37485 0.0
H2990 H 0.53637 0.57419 0.41453 0.0
H2991 H 0.56002 0.5454 0.40769 0.0
S2992 S 0.52134 0.55746 0.32784 0.0
N2993 N 0.51323 0.57361 0.34637 0.0
N2994 N 0.53894 0.54211 0.33901 0.0
C2995 C 0.53872 0.5497 0.35891 0.0
C2996 C 0.52483 0.5668 0.36289 0.0
C2997 C 0.67757 0.28407 0.64772 0.0
C2998 C 0.66975 0.27177 0.6312 0.0
C2999 C 0.69468 0.29738 0.64483 0.0
C3000 C 0.70465 0.29904 0.62526 0.0
H3001 H 0.67009 0.28387 0.66296 0.0
H3002 H 0.6996 0.30703 0.65791 0.0
S3003 S 0.69149 0.26878 0.57736 0.0
N3004 N 0.67421 0.26086 0.59494 0.0
N3005 N 0.70647 0.28613 0.58941 0.0
C3006 C 0.69776 0.28601 0.60885 0.0
C3007 C 0.68027 0.27232 0.61184 0.0
C3008 C 0.60513 0.96147 0.54607 0.0
C3009 C 0.62284 0.94848 0.54655 0.0
C3010 C 0.59913 0.9728 0.56392 0.0
C3011 C 0.61104 0.97187 0.58249 0.0
H3012 H 0.59538 0.96215 0.53216 0.0
H3013 H 0.58497 0.98212 0.56329 0.0
S3014 S 0.65952 0.941 0.59092 0.0
N3015 N 0.65256 0.93568 0.56656 0.0
N3016 N 0.64184 0.95764 0.59988 0.0
C3017 C 0.6293 0.95963 0.58275 0.0
C3018 C 0.63507 0.9477 0.56481 0.0
C3019 C 0.09966 0.54781 0.45098 0.0
C3020 C 0.11993 0.54804 0.45956 0.0
C3021 C 0.09494 0.53563 0.43344 0.0
C3022 C 0.11033 0.52327 0.42365 0.0
H3023 H 0.08753 0.55785 0.45734 0.0
H3024 H 0.07924 0.5366 0.42702 0.0
S3025 S 0.16548 0.51709 0.44108 0.0
N3026 N 0.15523 0.53381 0.45797 0.0
N3027 N 0.14636 0.5108 0.42477 0.0
C3028 C 0.13038 0.52234 0.43281 0.0
C3029 C 0.13518 0.53475 0.45085 0.0
C3030 C 0.68593 0.8633 0.68064 0.0
C3031 C 0.69176 0.87661 0.6972 0.0
C3032 C 0.69971 0.85887 0.66424 0.0
C3033 C 0.7199 0.86767 0.66356 0.0
H3034 H 0.67054 0.85612 0.6803 0.0
H3035 H 0.69435 0.84851 0.6519 0.0
S3036 S 0.74294 0.90359 0.70309 0.0
N3037 N 0.71917 0.89856 0.71205 0.0
N3038 N 0.74516 0.89034 0.68096 0.0
C3039 C 0.72603 0.88104 0.68 0.0
C3040 C 0.71195 0.88546 0.69689 0.0
C3041 C 0.3725 0.47121 0.93616 0.0
C3042 C 0.38927 0.46733 0.92234 0.0
C3043 C 0.3688 0.45816 0.95351 0.0
C3044 C 0.38163 0.4407 0.95746 0.0
H3045 H 0.36185 0.48412 0.9333 0.0
H3046 H 0.35535 0.46129 0.96338 0.0
S3047 S 0.42884 0.42491 0.92744 0.0
N3048 N 0.4198 0.44565 0.91491 0.0
N3049 N 0.41268 0.42115 0.94727 0.0
C3050 C 0.39892 0.43716 0.9443 0.0
C3051 C 0.40279 0.45047 0.9268 0.0
C3052 C 0.29427 0.63603 0.71002 0.0
C3053 C 0.30348 0.61613 0.71232 0.0
C3054 C 0.28128 0.64059 0.69294 0.0
C3055 C 0.27672 0.62535 0.67771 0.0
H3056 H 0.29812 0.64862 0.72074 0.0
H3057 H 0.27552 0.65647 0.69117 0.0
S3058 S 0.29446 0.57002 0.67803 0.0
N3059 N 0.3054 0.58043 0.69906 0.0
N3060 N 0.28064 0.58898 0.66709 0.0
C3061 C 0.28438 0.60492 0.6807 0.0
C3062 C 0.29786 0.60032 0.69799 0.0
C3063 C 0.89592 0.05584 0.05095 0.0
C3064 C 0.87893 0.05171 0.03756 0.0
C3065 C 0.9005 0.04266 0.06785 0.0
C3066 C 0.88798 0.02505 0.07228 0.0
H3067 H 0.90553 0.06966 0.04862 0.0
H3068 H 0.91342 0.04685 0.07803 0.0
S3069 S 0.84246 0.0066 0.04116 0.0
N3070 N 0.85029 0.02808 0.02899 0.0
N3071 N 0.85858 0.00346 0.06119 0.0
C3072 C 0.87137 0.02029 0.05858 0.0
C3073 C 0.86694 0.03357 0.04108 0.0
C3074 C 0.70652 0.14309 0.81774 0.0
C3075 C 0.72069 0.12785 0.82501 0.0
C3076 C 0.69278 0.13887 0.80126 0.0
C3077 C 0.69281 0.11936 0.79111 0.0
H3078 H 0.70556 0.15832 0.82516 0.0
H3079 H 0.68184 0.15101 0.79659 0.0
S3080 S 0.72753 0.07438 0.80323 0.0
N3081 N 0.73445 0.0926 0.82029 0.0
N3082 N 0.70868 0.08481 0.78884 0.0
C3083 C 0.70737 0.10416 0.79761 0.0
C3084 C 0.72128 0.10836 0.81471 0.0
C3085 C 0.79613 0.85073 0.30099 0.0
C3086 C 0.79473 0.8696 0.28972 0.0
C3087 C 0.78411 0.84739 0.31901 0.0
C3088 C 0.77058 0.86299 0.32665 0.0
H3089 H 0.80713 0.83869 0.29624 0.0
H3090 H 0.78621 0.83285 0.32754 0.0
S3091 S 0.75995 0.91453 0.30189 0.0
N3092 N 0.77762 0.9035 0.28653 0.0
N3093 N 0.75527 0.8974 0.32074 0.0
C3094 C 0.7683 0.88157 0.315 0.0
C3095 C 0.78029 0.88482 0.29641 0.0
C3096 C 0.4477 0.36062 0.04592 0.0
C3097 C 0.46024 0.37739 0.0529 0.0
C3098 C 0.43027 0.36413 0.03295 0.0
C3099 C 0.42483 0.38452 0.02658 0.0
H3100 H 0.45059 0.34485 0.0515 0.0
H3101 H 0.42032 0.35096 0.02895 0.0
S3102 S 0.45495 0.43314 0.03722 0.0
N3103 N 0.46773 0.41465 0.05004 0.0
N3104 N 0.43506 0.42124 0.02571 0.0
C3105 C 0.43825 0.40114 0.03203 0.0
C3106 C 0.45595 0.39757 0.04518 0.0
C3107 C 0.39496 0.67667 0.77382 0.0
C3108 C 0.37559 0.67376 0.7637 0.0
C3109 C 0.39871 0.69456 0.78608 0.0
C3110 C 0.3832 0.71004 0.78852 0.0
H3111 H 0.40662 0.66433 0.7737 0.0
H3112 H 0.41312 0.69536 0.79503 0.0
S3113 S 0.33195 0.71205 0.76113 0.0
N3114 N 0.3423 0.68947 0.75388 0.0
N3115 N 0.34935 0.72307 0.7768 0.0
C3116 C 0.36477 0.70837 0.77656 0.0
C3117 C 0.36095 0.6902 0.76417 0.0
C3118 C 0.07035 0.6282 0.52627 0.0
C3119 C 0.08034 0.60855 0.527 0.0
C3120 C 0.05224 0.63214 0.53815 0.0
C3121 C 0.04357 0.61653 0.5511 0.0
H3122 H 0.07702 0.64089 0.51716 0.0
H3123 H 0.0457 0.6478 0.53805 0.0
S3124 S 0.06176 0.56151 0.55584 0.0
N3125 N 0.07872 0.57263 0.53978 0.0
N3126 N 0.04483 0.58005 0.56202 0.0
C3127 C 0.0526 0.59645 0.55083 0.0
C3128 C 0.07097 0.59246 0.53881 0.0
C3129 C 0.13654 0.2919 0.29297 0.0
C3130 C 0.1164 0.28758 0.30085 0.0
C3131 C 0.14008 0.30885 0.27958 0.0
C3132 C 0.1236 0.32201 0.27329 0.0
H3133 H 0.14995 0.28281 0.29806 0.0
H3134 H 0.15603 0.31216 0.27478 0.0
S3135 S 0.06754 0.3161 0.28736 0.0
N3136 N 0.07939 0.29677 0.29988 0.0
N3137 N 0.0861 0.32858 0.2743 0.0
C3138 C 0.10312 0.31699 0.27967 0.0
C3139 C 0.09951 0.29975 0.29356 0.0
C3140 C 0.44907 0.63782 0.45724 0.0
C3141 C 0.45755 0.62176 0.44478 0.0
C3142 C 0.43245 0.63368 0.47113 0.0
C3143 C 0.42395 0.61338 0.47289 0.0
H3144 H 0.45449 0.65381 0.45543 0.0
H3145 H 0.42559 0.6466 0.47973 0.0
S3146 S 0.44351 0.56538 0.44652 0.0
N3147 N 0.45823 0.58447 0.43712 0.0
N3148 N 0.42725 0.57666 0.46316 0.0
C3149 C 0.43343 0.597 0.46163 0.0
C3150 C 0.45019 0.60121 0.44757 0.0
C3151 C 0.15251 0.69363 0.19008 0.0
C3152 C 0.13528 0.70699 0.19306 0.0
C3153 C 0.15597 0.67649 0.20327 0.0
C3154 C 0.14223 0.67185 0.21989 0.0
H3155 H 0.16317 0.69611 0.1771 0.0
H3156 H 0.16926 0.66645 0.19996 0.0
S3157 S 0.09523 0.7026 0.23497 0.0
N3158 N 0.10475 0.71508 0.21437 0.0
N3159 N 0.11117 0.68264 0.2392 0.0
C3160 C 0.12532 0.68553 0.22355 0.0
C3161 C 0.12188 0.70317 0.21014 0.0
C3162 C 0.06634 0.40155 0.96512 0.0
C3163 C 0.076 0.38573 0.97706 0.0
C3164 C 0.0486 0.39738 0.953 0.0
C3165 C 0.03969 0.37726 0.95245 0.0
H3166 H 0.07304 0.41713 0.96433 0.0
H3167 H 0.04241 0.4098 0.9432 0.0
S3168 S 0.05742 0.3309 0.98269 0.0
N3169 N 0.0742 0.34956 0.98908 0.0
N3170 N 0.04062 0.34175 0.96623 0.0
C3171 C 0.04817 0.36165 0.96548 0.0
C3172 C 0.06642 0.36587 0.9778 0.0
C3173 C 0.37619 0.30434 0.70509 0.0
C3174 C 0.36065 0.29602 0.69187 0.0
C3175 C 0.37207 0.32185 0.71772 0.0
C3176 C 0.35223 0.33149 0.71764 0.0
H3177 H 0.39195 0.29803 0.70483 0.0
H3178 H 0.38475 0.32833 0.72696 0.0
S3179 S 0.30537 0.3135 0.68808 0.0
N3180 N 0.32416 0.29718 0.68107 0.0
N3181 N 0.31625 0.32986 0.70492 0.0
C3182 C 0.33618 0.32235 0.70554 0.0
C3183 C 0.34044 0.30467 0.69261 0.0
C3184 C 0.0455 0.4507 0.40153 0.0
C3185 C 0.04535 0.46058 0.38187 0.0
C3186 C 0.03281 0.43334 0.40555 0.0
C3187 C 0.01965 0.42497 0.38995 0.0
H3188 H 0.05623 0.45585 0.41365 0.0
H3189 H 0.03416 0.42582 0.42072 0.0
S3190 S 0.01194 0.44653 0.33646 0.0
N3191 N 0.02968 0.46206 0.34717 0.0
N3192 N 0.00582 0.42909 0.35462 0.0
C3193 C 0.01829 0.43555 0.37063 0.0
C3194 C 0.03115 0.45347 0.36661 0.0
C3195 C 0.30314 0.2914 0.12175 0.0
C3196 C 0.29352 0.30324 0.13765 0.0
C3197 C 0.32117 0.2795 0.1259 0.0
C3198 C 0.33007 0.27896 0.1461 0.0
H3199 H 0.29745 0.29228 0.10577 0.0
H3200 H 0.32864 0.27137 0.11301 0.0
S3201 S 0.30876 0.30483 0.19371 0.0
N3202 N 0.29277 0.31201 0.17468 0.0
N3203 N 0.32639 0.28952 0.18262 0.0
C3204 C 0.31968 0.28962 0.16239 0.0
C3205 C 0.30146 0.3018 0.15812 0.0
C3206 C 0.44785 0.54979 0.901 0.0
C3207 C 0.44743 0.53943 0.88157 0.0
C3208 C 0.46067 0.56723 0.90424 0.0
C3209 C 0.47348 0.57513 0.88814 0.0
H3210 H 0.43755 0.5449 0.91359 0.0
H3211 H 0.45983 0.57506 0.91928 0.0
S3212 S 0.47966 0.55241 0.83495 0.0
N3213 N 0.46214 0.53722 0.84648 0.0
N3214 N 0.48628 0.57021 0.85254 0.0
C3215 C 0.47418 0.56419 0.869 0.0
C3216 C 0.46115 0.54626 0.86573 0.0
C3217 C 0.20134 0.69093 0.65437 0.0
C3218 C 0.21276 0.69232 0.63563 0.0
C3219 C 0.18418 0.70398 0.65809 0.0
C3220 C 0.17751 0.71868 0.64305 0.0
H3221 H 0.20531 0.67923 0.66602 0.0
H3222 H 0.17557 0.70184 0.67257 0.0
S3223 S 0.20306 0.72932 0.59188 0.0
N3224 N 0.21719 0.7103 0.60233 0.0
N3225 N 0.18454 0.73473 0.60914 0.0
C3226 C 0.18938 0.72088 0.62458 0.0
C3227 C 0.20713 0.70772 0.62093 0.0
C3228 C 0.03307 0.54696 0.13341 0.0
C3229 C 0.04685 0.54107 0.11728 0.0
C3230 C 0.02025 0.56469 0.13132 0.0
C3231 C 0.02064 0.57693 0.11294 0.0
H3232 H 0.03309 0.53859 0.14819 0.0
H3233 H 0.01057 0.56926 0.14449 0.0
S3234 S 0.05194 0.56609 0.06507 0.0
N3235 N 0.05872 0.54743 0.08167 0.0
N3236 N 0.03442 0.58049 0.0775 0.0
C3237 C 0.03332 0.57026 0.09617 0.0
C3238 C 0.0465 0.55239 0.09842 0.0
C3239 C 0.20306 0.28115 0.88492 0.0
C3240 C 0.21254 0.29275 0.86873 0.0
C3241 C 0.18529 0.26875 0.881 0.0
C3242 C 0.17653 0.26759 0.86078 0.0
H3243 H 0.20846 0.28279 0.90094 0.0
H3244 H 0.17768 0.26107 0.8941 0.0
S3245 S 0.19822 0.29163 0.81241 0.0
N3246 N 0.21382 0.29987 0.83134 0.0
N3247 N 0.18062 0.27654 0.82391 0.0
C3248 C 0.18705 0.27763 0.8442 0.0
C3249 C 0.20503 0.29023 0.8482 0.0
C3250 C 0.4614 0.45516 0.60771 0.0
C3251 C 0.45325 0.45754 0.62807 0.0
C3252 C 0.4736 0.43779 0.60235 0.0
C3253 C 0.47836 0.42222 0.61717 0.0
H3254 H 0.45747 0.46625 0.59546 0.0
H3255 H 0.47866 0.43614 0.58622 0.0
S3256 S 0.46283 0.42206 0.67319 0.0
N3257 N 0.45226 0.44366 0.66361 0.0
N3258 N 0.47552 0.41104 0.6535 0.0
C3259 C 0.47165 0.42509 0.63796 0.0
C3260 C 0.45901 0.44277 0.64343 0.0
C3261 C 0.30772 0.69204 0.34744 0.0
C3262 C 0.29535 0.69558 0.3653 0.0
C3263 C 0.32443 0.70524 0.34244 0.0
C3264 C 0.32965 0.72239 0.35525 0.0
H3265 H 0.30478 0.67862 0.33745 0.0
H3266 H 0.33376 0.70146 0.32876 0.0
S3267 S 0.30125 0.73926 0.40313 0.0
N3268 N 0.28856 0.71811 0.39524 0.0
N3269 N 0.32031 0.74296 0.38599 0.0
C3270 C 0.31689 0.72665 0.37274 0.0
C3271 C 0.29963 0.71325 0.37772 0.0
C3272 C 0.35697 0.03685 0.44863 0.0
C3273 C 0.37185 0.05077 0.45702 0.0
C3274 C 0.36222 0.02346 0.43196 0.0
C3275 C 0.38251 0.02356 0.42329 0.0
H3276 H 0.34097 0.03697 0.45432 0.0
H3277 H 0.35009 0.01363 0.4253 0.0
S3278 S 0.42794 0.05468 0.44212 0.0
N3279 N 0.40825 0.06211 0.45713 0.0
N3280 N 0.41812 0.03699 0.42603 0.0
C3281 C 0.39782 0.03645 0.43251 0.0
C3282 C 0.39248 0.05006 0.44933 0.0
C3283 C 0.89072 0.42945 0.56491 0.0
C3284 C 0.87576 0.43394 0.54937 0.0
C3285 C 0.89542 0.4439 0.58065 0.0
C3286 C 0.88519 0.46338 0.58171 0.0
H3287 H 0.89894 0.41459 0.56498 0.0
H3288 H 0.90699 0.43954 0.5923 0.0
S3289 S 0.84492 0.48299 0.5446 0.0
N3290 N 0.85094 0.45944 0.53569 0.0
N3291 N 0.85959 0.48662 0.56563 0.0
C3292 C 0.87027 0.46822 0.5662 0.0
C3293 C 0.86562 0.4535 0.54993 0.0
C3294 C 0.30123 0.1531 0.30351 0.0
C3295 C 0.29829 0.13434 0.29234 0.0
C3296 C 0.28907 0.15784 0.32108 0.0
C3297 C 0.27357 0.14395 0.32833 0.0
H3298 H 0.31357 0.16391 0.2991 0.0
H3299 H 0.29245 0.17221 0.32948 0.0
S3300 S 0.25831 0.09362 0.30346 0.0
N3301 N 0.27768 0.10248 0.28875 0.0
N3302 N 0.25478 0.11136 0.32198 0.0
C3303 C 0.26965 0.12565 0.31665 0.0
C3304 C 0.282 0.12087 0.29858 0.0
C3305 C 0.5986 0.54774 0.05256 0.0
C3306 C 0.61872 0.54929 0.04374 0.0
C3307 C 0.595 0.53576 0.07055 0.0
C3308 C 0.61139 0.52488 0.08053 0.0
H3309 H 0.58565 0.5566 0.04606 0.0
H3310 H 0.57935 0.53572 0.07712 0.0
S3311 S 0.66661 0.52217 0.06255 0.0
N3312 N 0.65498 0.53763 0.04534 0.0
N3313 N 0.6482 0.51505 0.07929 0.0
C3314 C 0.63134 0.52521 0.07116 0.0
C3315 C 0.63501 0.53742 0.05271 0.0
C3316 C 0.68427 0.35804 0.3122 0.0
C3317 C 0.68811 0.37419 0.29768 0.0
C3318 C 0.69833 0.35375 0.32845 0.0
C3319 C 0.71678 0.36554 0.33103 0.0
H3320 H 0.67018 0.34863 0.31111 0.0
H3321 H 0.69446 0.34126 0.33928 0.0
S3322 S 0.73444 0.40933 0.29699 0.0
N3323 N 0.71196 0.40179 0.2866 0.0
N3324 N 0.7384 0.39386 0.31739 0.0
C3325 C 0.72103 0.38158 0.31647 0.0
C3326 C 0.70671 0.38585 0.29973 0.0
C3327 C 0.09066 0.95275 0.92513 0.0
C3328 C 0.10304 0.97006 0.91937 0.0
C3329 C 0.09608 0.94009 0.94212 0.0
C3330 C 0.11395 0.94435 0.95425 0.0
H3331 H 0.07699 0.94842 0.91602 0.0
H3332 H 0.08638 0.92656 0.9455 0.0
S3333 S 0.15073 0.98874 0.94694 0.0
N3334 N 0.13338 0.99156 0.92792 0.0
N3335 N 0.14342 0.96775 0.96024 0.0
C3336 C 0.12595 0.96218 0.94941 0.0
C3337 C 0.12054 0.97503 0.93185 0.0
C3338 C 0.28767 0.89841 0.19526 0.0
C3339 C 0.29228 0.88252 0.20987 0.0
C3340 C 0.27423 0.89451 0.17824 0.0
C3341 C 0.26517 0.87461 0.17539 0.0
H3342 H 0.29573 0.91333 0.19601 0.0
H3343 H 0.27231 0.90655 0.16641 0.0
S3344 S 0.26854 0.82947 0.21181 0.0
N3345 N 0.28385 0.84748 0.22233 0.0
N3346 N 0.25889 0.84014 0.1903 0.0
C3347 C 0.26798 0.85941 0.19104 0.0
C3348 C 0.28147 0.86338 0.20833 0.0
C3349 C 0.20169 0.11185 0.69406 0.0
C3350 C 0.18909 0.128 0.70214 0.0
C3351 C 0.21516 0.1155 0.67705 0.0
C3352 C 0.21655 0.13545 0.66771 0.0
H3353 H 0.20039 0.09607 0.70023 0.0
H3354 H 0.22403 0.10245 0.67079 0.0
S3355 S 0.18872 0.18356 0.68507 0.0
N3356 N 0.18018 0.16499 0.70092 0.0
N3357 N 0.20556 0.17199 0.66922 0.0
C3358 C 0.20487 0.15197 0.67651 0.0
C3359 C 0.19112 0.1482 0.69367 0.0
loop_
_geom_bond_atom_site_label_1
_geom_bond_atom_site_label_2
_geom_bond_distance
_geom_bond_site_symmetry_2
_ccdc_geom_bond_type
In0 O1 2.294 . S
In0 O2 2.326 . S
In0 O6 2.266 . S
In0 O7 2.326 1_455 S
In0 O8 2.266 1_455 S
In0 O9 2.326 1_455 S
In0 O11 2.294 . S
In0 O12 2.326 . S
O1 In0 2.294 . S
O1 C10 1.240 . S
O2 In0 2.326 . S
O2 C10 1.252 . S
C3 O6 1.252 1_655 S
C3 O7 1.260 . S
C4 O11 1.240 . S
C4 O12 1.252 . S
C5 O8 1.252 . S
C5 O9 1.260 . S
O6 In0 2.266 . S
O6 C3 1.252 1_455 S
O7 In0 2.326 1_655 S
O7 C3 1.260 . S
O8 In0 2.266 1_655 S
O8 C5 1.252 . S
O9 In0 2.326 1_655 S
O9 C5 1.260 . S
C10 O1 1.240 . S
C10 O2 1.252 . S
O11 In0 2.294 . S
O11 C4 1.240 . S
O12 In0 2.326 . S
O12 C4 1.252 . S
In13 O14 2.294 . S
In13 O15 2.326 . S
In13 O19 2.266 . S
In13 O20 2.326 . S
In13 O21 2.266 . S
In13 O22 2.326 . S
In13 O24 2.294 . S
In13 O25 2.326 . S
O14 In13 2.294 . S
O14 C23 1.240 . S
O15 In13 2.326 . S
O15 C23 1.252 . S
C16 O19 1.252 . S
C16 O20 1.260 . S
C17 O24 1.240 . S
C17 O25 1.252 . S
C18 O21 1.252 . S
C18 O22 1.260 . S
O19 In13 2.266 . S
O19 C16 1.252 . S
O20 In13 2.326 . S
O20 C16 1.260 . S
O21 In13 2.266 . S
O21 C18 1.252 . S
O22 In13 2.326 . S
O22 C18 1.260 . S
C23 O14 1.240 . S
C23 O15 1.252 . S
O24 In13 2.294 . S
O24 C17 1.240 . S
O25 In13 2.326 . S
O25 C17 1.252 . S
In26 O27 2.294 . S
In26 O28 2.326 . S
In26 O32 2.266 . S
In26 O33 2.326 . S
In26 O34 2.266 . S
In26 O35 2.326 . S
In26 O37 2.294 . S
In26 O38 2.326 . S
O27 In26 2.294 . S
O27 C36 1.240 . S
O28 In26 2.326 . S
O28 C36 1.252 . S
C29 O32 1.252 . S
C29 O33 1.260 . S
C30 O37 1.240 . S
C30 O38 1.252 . S
C31 O34 1.252 . S
C31 O35 1.260 . S
O32 In26 2.266 . S
O32 C29 1.252 . S
O33 In26 2.326 . S
O33 C29 1.260 . S
O34 In26 2.266 . S
O34 C31 1.252 . S
O35 In26 2.326 . S
O35 C31 1.260 . S
C36 O27 1.240 . S
C36 O28 1.252 . S
O37 In26 2.294 . S
O37 C30 1.240 . S
O38 In26 2.326 . S
O38 C30 1.252 . S
In39 O40 2.294 . S
In39 O41 2.326 . S
In39 O45 2.266 . S
In39 O46 2.326 . S
In39 O47 2.266 . S
In39 O48 2.326 . S
In39 O50 2.294 . S
In39 O51 2.326 . S
O40 In39 2.294 . S
O40 C49 1.240 . S
O41 In39 2.326 . S
O41 C49 1.252 . S
C42 O45 1.252 . S
C42 O46 1.260 . S
C43 O50 1.240 . S
C43 O51 1.252 . S
C44 O47 1.252 . S
C44 O48 1.260 . S
O45 In39 2.266 . S
O45 C42 1.252 . S
O46 In39 2.326 . S
O46 C42 1.260 . S
O47 In39 2.266 . S
O47 C44 1.252 . S
O48 In39 2.326 . S
O48 C44 1.260 . S
C49 O40 1.240 . S
C49 O41 1.252 . S
O50 In39 2.294 . S
O50 C43 1.240 . S
O51 In39 2.326 . S
O51 C43 1.252 . S
In52 O53 2.294 . S
In52 O54 2.326 . S
In52 O58 2.266 1_455 S
In52 O59 2.326 1_455 S
In52 O60 2.266 . S
In52 O61 2.326 1_455 S
In52 O63 2.294 . S
In52 O64 2.326 . S
O53 In52 2.294 . S
O53 C62 1.240 . S
O54 In52 2.326 . S
O54 C62 1.252 . S
C55 O58 1.252 . S
C55 O59 1.260 . S
C56 O63 1.240 . S
C56 O64 1.252 . S
C57 O60 1.252 1_655 S
C57 O61 1.260 . S
O58 In52 2.266 1_655 S
O58 C55 1.252 . S
O59 In52 2.326 1_655 S
O59 C55 1.260 . S
O60 In52 2.266 . S
O60 C57 1.252 1_455 S
O61 In52 2.326 1_655 S
O61 C57 1.260 . S
C62 O53 1.240 . S
C62 O54 1.252 . S
O63 In52 2.294 . S
O63 C56 1.240 . S
O64 In52 2.326 . S
O64 C56 1.252 . S
In65 O66 2.294 . S
In65 O67 2.326 . S
In65 O71 2.266 . S
In65 O72 2.326 . S
In65 O73 2.266 . S
In65 O74 2.326 . S
In65 O76 2.294 . S
In65 O77 2.326 . S
O66 In65 2.294 . S
O66 C75 1.240 . S
O67 In65 2.326 . S
O67 C75 1.252 . S
C68 O71 1.252 . S
C68 O72 1.260 . S
C69 O76 1.240 . S
C69 O77 1.252 . S
C70 O73 1.252 . S
C70 O74 1.260 . S
O71 In65 2.266 . S
O71 C68 1.252 . S
O72 In65 2.326 . S
O72 C68 1.260 . S
O73 In65 2.266 . S
O73 C70 1.252 . S
O74 In65 2.326 . S
O74 C70 1.260 . S
C75 O66 1.240 . S
C75 O67 1.252 . S
O76 In65 2.294 . S
O76 C69 1.240 . S
O77 In65 2.326 . S
O77 C69 1.252 . S
In78 O79 2.294 . S
In78 O80 2.326 . S
In78 O84 2.266 . S
In78 O85 2.326 . S
In78 O86 2.266 . S
In78 O87 2.326 . S
In78 O89 2.294 . S
In78 O90 2.326 . S
O79 In78 2.294 . S
O79 C88 1.240 . S
O80 In78 2.326 . S
O80 C88 1.252 . S
C81 O84 1.252 . S
C81 O85 1.260 . S
C82 O89 1.240 . S
C82 O90 1.252 . S
C83 O86 1.252 . S
C83 O87 1.260 . S
O84 In78 2.266 . S
O84 C81 1.252 . S
O85 In78 2.326 . S
O85 C81 1.260 . S
O86 In78 2.266 . S
O86 C83 1.252 . S
O87 In78 2.326 . S
O87 C83 1.260 . S
C88 O79 1.240 . S
C88 O80 1.252 . S
O89 In78 2.294 . S
O89 C82 1.240 . S
O90 In78 2.326 . S
O90 C82 1.252 . S
In91 O92 2.294 . S
In91 O93 2.326 . S
In91 O97 2.266 . S
In91 O98 2.326 . S
In91 O99 2.266 . S
In91 O100 2.326 . S
In91 O102 2.294 . S
In91 O103 2.326 . S
O92 In91 2.294 . S
O92 C101 1.240 . S
O93 In91 2.326 . S
O93 C101 1.252 . S
C94 O97 1.252 . S
C94 O98 1.260 . S
C95 O102 1.240 . S
C95 O103 1.252 . S
C96 O99 1.252 . S
C96 O100 1.260 . S
O97 In91 2.266 . S
O97 C94 1.252 . S
O98 In91 2.326 . S
O98 C94 1.260 . S
O99 In91 2.266 . S
O99 C96 1.252 . S
O100 In91 2.326 . S
O100 C96 1.260 . S
C101 O92 1.240 . S
C101 O93 1.252 . S
O102 In91 2.294 . S
O102 C95 1.240 . S
O103 In91 2.326 . S
O103 C95 1.252 . S
In104 O105 2.294 . S
In104 O106 2.326 . S
In104 O110 2.266 . S
In104 O111 2.326 1_545 S
In104 O112 2.266 1_545 S
In104 O113 2.326 1_545 S
In104 O115 2.294 . S
In104 O116 2.326 . S
O105 In104 2.294 . S
O105 C114 1.240 . S
O106 In104 2.326 . S
O106 C114 1.252 . S
C107 O110 1.252 1_565 S
C107 O111 1.260 . S
C108 O115 1.240 . S
C108 O116 1.252 . S
C109 O112 1.252 . S
C109 O113 1.260 . S
O110 In104 2.266 . S
O110 C107 1.252 1_545 S
O111 In104 2.326 1_565 S
O111 C107 1.260 . S
O112 In104 2.266 1_565 S
O112 C109 1.252 . S
O113 In104 2.326 1_565 S
O113 C109 1.260 . S
C114 O105 1.240 . S
C114 O106 1.252 . S
O115 In104 2.294 . S
O115 C108 1.240 . S
O116 In104 2.326 . S
O116 C108 1.252 . S
In117 O118 2.294 . S
In117 O119 2.326 . S
In117 O123 2.266 . S
In117 O124 2.326 . S
In117 O125 2.266 . S
In117 O126 2.326 . S
In117 O128 2.294 . S
In117 O129 2.326 . S
O118 In117 2.294 . S
O118 C127 1.240 . S
O119 In117 2.326 . S
O119 C127 1.252 . S
C120 O123 1.252 . S
C120 O124 1.260 . S
C121 O128 1.240 . S
C121 O129 1.252 . S
C122 O125 1.252 . S
C122 O126 1.260 . S
O123 In117 2.266 . S
O123 C120 1.252 . S
O124 In117 2.326 . S
O124 C120 1.260 . S
O125 In117 2.266 . S
O125 C122 1.252 . S
O126 In117 2.326 . S
O126 C122 1.260 . S
C127 O118 1.240 . S
C127 O119 1.252 . S
O128 In117 2.294 . S
O128 C121 1.240 . S
O129 In117 2.326 . S
O129 C121 1.252 . S
In130 O131 2.294 . S
In130 O132 2.326 . S
In130 O136 2.266 1_565 S
In130 O137 2.326 1_565 S
In130 O138 2.266 . S
In130 O139 2.326 1_565 S
In130 O141 2.294 . S
In130 O142 2.326 . S
O131 In130 2.294 . S
O131 C140 1.240 . S
O132 In130 2.326 . S
O132 C140 1.252 . S
C133 O136 1.252 . S
C133 O137 1.260 . S
C134 O141 1.240 . S
C134 O142 1.252 . S
C135 O138 1.252 1_545 S
C135 O139 1.260 . S
O136 In130 2.266 1_545 S
O136 C133 1.252 . S
O137 In130 2.326 1_545 S
O137 C133 1.260 . S
O138 In130 2.266 . S
O138 C135 1.252 1_565 S
O139 In130 2.326 1_545 S
O139 C135 1.260 . S
C140 O131 1.240 . S
C140 O132 1.252 . S
O141 In130 2.294 . S
O141 C134 1.240 . S
O142 In130 2.326 . S
O142 C134 1.252 . S
In143 O144 2.294 . S
In143 O145 2.326 . S
In143 O149 2.266 . S
In143 O150 2.326 . S
In143 O151 2.266 . S
In143 O152 2.326 . S
In143 O154 2.294 . S
In143 O155 2.326 . S
O144 In143 2.294 . S
O144 C153 1.240 . S
O145 In143 2.326 . S
O145 C153 1.252 . S
C146 O149 1.252 . S
C146 O150 1.260 . S
C147 O154 1.240 . S
C147 O155 1.252 . S
C148 O151 1.252 . S
C148 O152 1.260 . S
O149 In143 2.266 . S
O149 C146 1.252 . S
O150 In143 2.326 . S
O150 C146 1.260 . S
O151 In143 2.266 . S
O151 C148 1.252 . S
O152 In143 2.326 . S
O152 C148 1.260 . S
C153 O144 1.240 . S
C153 O145 1.252 . S
O154 In143 2.294 . S
O154 C147 1.240 . S
O155 In143 2.326 . S
O155 C147 1.252 . S
In156 O157 2.294 . S
In156 O158 2.326 . S
In156 O162 2.266 . S
In156 O163 2.326 1_565 S
In156 O164 2.266 1_565 S
In156 O165 2.326 1_565 S
In156 O167 2.294 . S
In156 O168 2.326 . S
O157 In156 2.294 . S
O157 C166 1.240 . S
O158 In156 2.326 . S
O158 C166 1.252 . S
C159 O162 1.252 1_545 S
C159 O163 1.260 . S
C160 O167 1.240 . S
C160 O168 1.252 . S
C161 O164 1.252 . S
C161 O165 1.260 . S
O162 In156 2.266 . S
O162 C159 1.252 1_565 S
O163 In156 2.326 1_545 S
O163 C159 1.260 . S
O164 In156 2.266 1_545 S
O164 C161 1.252 . S
O165 In156 2.326 1_545 S
O165 C161 1.260 . S
C166 O157 1.240 . S
C166 O158 1.252 . S
O167 In156 2.294 . S
O167 C160 1.240 . S
O168 In156 2.326 . S
O168 C160 1.252 . S
In169 O170 2.294 . S
In169 O171 2.326 . S
In169 O175 2.266 . S
In169 O176 2.326 . S
In169 O177 2.266 . S
In169 O178 2.326 . S
In169 O180 2.294 . S
In169 O181 2.326 . S
O170 In169 2.294 . S
O170 C179 1.240 . S
O171 In169 2.326 . S
O171 C179 1.252 . S
C172 O175 1.252 . S
C172 O176 1.260 . S
C173 O180 1.240 . S
C173 O181 1.252 . S
C174 O177 1.252 . S
C174 O178 1.260 . S
O175 In169 2.266 . S
O175 C172 1.252 . S
O176 In169 2.326 . S
O176 C172 1.260 . S
O177 In169 2.266 . S
O177 C174 1.252 . S
O178 In169 2.326 . S
O178 C174 1.260 . S
C179 O170 1.240 . S
C179 O171 1.252 . S
O180 In169 2.294 . S
O180 C173 1.240 . S
O181 In169 2.326 . S
O181 C173 1.252 . S
In182 O183 2.294 . S
In182 O184 2.326 . S
In182 O188 2.266 1_545 S
In182 O189 2.326 1_545 S
In182 O190 2.266 . S
In182 O191 2.326 1_545 S
In182 O193 2.294 . S
In182 O194 2.326 . S
O183 In182 2.294 . S
O183 C192 1.240 . S
O184 In182 2.326 . S
O184 C192 1.252 . S
C185 O188 1.252 . S
C185 O189 1.260 . S
C186 O193 1.240 . S
C186 O194 1.252 . S
C187 O190 1.252 1_565 S
C187 O191 1.260 . S
O188 In182 2.266 1_565 S
O188 C185 1.252 . S
O189 In182 2.326 1_565 S
O189 C185 1.260 . S
O190 In182 2.266 . S
O190 C187 1.252 1_545 S
O191 In182 2.326 1_565 S
O191 C187 1.260 . S
C192 O183 1.240 . S
C192 O184 1.252 . S
O193 In182 2.294 . S
O193 C186 1.240 . S
O194 In182 2.326 . S
O194 C186 1.252 . S
In195 O196 2.294 . S
In195 O197 2.326 . S
In195 O201 2.266 . S
In195 O202 2.326 . S
In195 O203 2.266 . S
In195 O204 2.326 . S
In195 O206 2.294 . S
In195 O207 2.326 . S
O196 In195 2.294 . S
O196 C205 1.240 . S
O197 In195 2.326 . S
O197 C205 1.252 . S
C198 O201 1.252 . S
C198 O202 1.260 . S
C199 O206 1.240 . S
C199 O207 1.252 . S
C200 O203 1.252 . S
C200 O204 1.260 . S
O201 In195 2.266 . S
O201 C198 1.252 . S
O202 In195 2.326 . S
O202 C198 1.260 . S
O203 In195 2.266 . S
O203 C200 1.252 . S
O204 In195 2.326 . S
O204 C200 1.260 . S
C205 O196 1.240 . S
C205 O197 1.252 . S
O206 In195 2.294 . S
O206 C199 1.240 . S
O207 In195 2.326 . S
O207 C199 1.252 . S
In208 O209 2.294 . S
In208 O210 2.326 . S
In208 O214 2.266 1_554 S
In208 O215 2.326 1_554 S
In208 O216 2.266 . S
In208 O217 2.326 1_554 S
In208 O219 2.294 . S
In208 O220 2.326 . S
O209 In208 2.294 . S
O209 C218 1.240 . S
O210 In208 2.326 . S
O210 C218 1.252 . S
C211 O214 1.252 . S
C211 O215 1.260 . S
C212 O219 1.240 . S
C212 O220 1.252 . S
C213 O216 1.252 1_556 S
C213 O217 1.260 . S
O214 In208 2.266 1_556 S
O214 C211 1.252 . S
O215 In208 2.326 1_556 S
O215 C211 1.260 . S
O216 In208 2.266 . S
O216 C213 1.252 1_554 S
O217 In208 2.326 1_556 S
O217 C213 1.260 . S
C218 O209 1.240 . S
C218 O210 1.252 . S
O219 In208 2.294 . S
O219 C212 1.240 . S
O220 In208 2.326 . S
O220 C212 1.252 . S
In221 O222 2.294 . S
In221 O223 2.326 . S
In221 O227 2.266 1_556 S
In221 O228 2.326 1_556 S
In221 O229 2.266 . S
In221 O230 2.326 1_556 S
In221 O232 2.294 . S
In221 O233 2.326 . S
O222 In221 2.294 . S
O222 C231 1.240 . S
O223 In221 2.326 . S
O223 C231 1.252 . S
C224 O227 1.252 . S
C224 O228 1.260 . S
C225 O232 1.240 . S
C225 O233 1.252 . S
C226 O229 1.252 1_554 S
C226 O230 1.260 . S
O227 In221 2.266 1_554 S
O227 C224 1.252 . S
O228 In221 2.326 1_554 S
O228 C224 1.260 . S
O229 In221 2.266 . S
O229 C226 1.252 1_556 S
O230 In221 2.326 1_554 S
O230 C226 1.260 . S
C231 O222 1.240 . S
C231 O223 1.252 . S
O232 In221 2.294 . S
O232 C225 1.240 . S
O233 In221 2.326 . S
O233 C225 1.252 . S
In234 O235 2.294 . S
In234 O236 2.326 . S
In234 O240 2.266 . S
In234 O241 2.326 . S
In234 O242 2.266 . S
In234 O243 2.326 . S
In234 O245 2.294 . S
In234 O246 2.326 . S
O235 In234 2.294 . S
O235 C244 1.240 . S
O236 In234 2.326 . S
O236 C244 1.252 . S
C237 O240 1.252 . S
C237 O241 1.260 . S
C238 O245 1.240 . S
C238 O246 1.252 . S
C239 O242 1.252 . S
C239 O243 1.260 . S
O240 In234 2.266 . S
O240 C237 1.252 . S
O241 In234 2.326 . S
O241 C237 1.260 . S
O242 In234 2.266 . S
O242 C239 1.252 . S
O243 In234 2.326 . S
O243 C239 1.260 . S
C244 O235 1.240 . S
C244 O236 1.252 . S
O245 In234 2.294 . S
O245 C238 1.240 . S
O246 In234 2.326 . S
O246 C238 1.252 . S
In247 O248 2.294 . S
In247 O249 2.326 . S
In247 O253 2.266 . S
In247 O254 2.326 . S
In247 O255 2.266 . S
In247 O256 2.326 . S
In247 O258 2.294 . S
In247 O259 2.326 . S
O248 In247 2.294 . S
O248 C257 1.240 . S
O249 In247 2.326 . S
O249 C257 1.252 . S
C250 O253 1.252 . S
C250 O254 1.260 . S
C251 O258 1.240 . S
C251 O259 1.252 . S
C252 O255 1.252 . S
C252 O256 1.260 . S
O253 In247 2.266 . S
O253 C250 1.252 . S
O254 In247 2.326 . S
O254 C250 1.260 . S
O255 In247 2.266 . S
O255 C252 1.252 . S
O256 In247 2.326 . S
O256 C252 1.260 . S
C257 O248 1.240 . S
C257 O249 1.252 . S
O258 In247 2.294 . S
O258 C251 1.240 . S
O259 In247 2.326 . S
O259 C251 1.252 . S
In260 O261 2.294 . S
In260 O262 2.326 . S
In260 O266 2.266 . S
In260 O267 2.326 . S
In260 O268 2.266 . S
In260 O269 2.326 . S
In260 O271 2.294 . S
In260 O272 2.326 . S
O261 In260 2.294 . S
O261 C270 1.240 . S
O262 In260 2.326 . S
O262 C270 1.252 . S
C263 O266 1.252 . S
C263 O267 1.260 . S
C264 O271 1.240 . S
C264 O272 1.252 . S
C265 O268 1.252 . S
C265 O269 1.260 . S
O266 In260 2.266 . S
O266 C263 1.252 . S
O267 In260 2.326 . S
O267 C263 1.260 . S
O268 In260 2.266 . S
O268 C265 1.252 . S
O269 In260 2.326 . S
O269 C265 1.260 . S
C270 O261 1.240 . S
C270 O262 1.252 . S
O271 In260 2.294 . S
O271 C264 1.240 . S
O272 In260 2.326 . S
O272 C264 1.252 . S
In273 O274 2.294 . S
In273 O275 2.326 . S
In273 O279 2.266 . S
In273 O280 2.326 . S
In273 O281 2.266 . S
In273 O282 2.326 . S
In273 O284 2.294 . S
In273 O285 2.326 . S
O274 In273 2.294 . S
O274 C283 1.240 . S
O275 In273 2.326 . S
O275 C283 1.252 . S
C276 O279 1.252 . S
C276 O280 1.260 . S
C277 O284 1.240 . S
C277 O285 1.252 . S
C278 O281 1.252 . S
C278 O282 1.260 . S
O279 In273 2.266 . S
O279 C276 1.252 . S
O280 In273 2.326 . S
O280 C276 1.260 . S
O281 In273 2.266 . S
O281 C278 1.252 . S
O282 In273 2.326 . S
O282 C278 1.260 . S
C283 O274 1.240 . S
C283 O275 1.252 . S
O284 In273 2.294 . S
O284 C277 1.240 . S
O285 In273 2.326 . S
O285 C277 1.252 . S
In286 O287 2.294 . S
In286 O288 2.326 . S
In286 O292 2.266 . S
In286 O293 2.326 . S
In286 O294 2.266 . S
In286 O295 2.326 . S
In286 O297 2.294 . S
In286 O298 2.326 . S
O287 In286 2.294 . S
O287 C296 1.240 . S
O288 In286 2.326 . S
O288 C296 1.252 . S
C289 O292 1.252 . S
C289 O293 1.260 . S
C290 O297 1.240 . S
C290 O298 1.252 . S
C291 O294 1.252 . S
C291 O295 1.260 . S
O292 In286 2.266 . S
O292 C289 1.252 . S
O293 In286 2.326 . S
O293 C289 1.260 . S
O294 In286 2.266 . S
O294 C291 1.252 . S
O295 In286 2.326 . S
O295 C291 1.260 . S
C296 O287 1.240 . S
C296 O288 1.252 . S
O297 In286 2.294 . S
O297 C290 1.240 . S
O298 In286 2.326 . S
O298 C290 1.252 . S
In299 O300 2.294 . S
In299 O301 2.326 . S
In299 O305 2.266 . S
In299 O306 2.326 . S
In299 O307 2.266 . S
In299 O308 2.326 . S
In299 O310 2.294 . S
In299 O311 2.326 . S
O300 In299 2.294 . S
O300 C309 1.240 . S
O301 In299 2.326 . S
O301 C309 1.252 . S
C302 O305 1.252 . S
C302 O306 1.260 . S
C303 O310 1.240 . S
C303 O311 1.252 . S
C304 O307 1.252 . S
C304 O308 1.260 . S
O305 In299 2.266 . S
O305 C302 1.252 . S
O306 In299 2.326 . S
O306 C302 1.260 . S
O307 In299 2.266 . S
O307 C304 1.252 . S
O308 In299 2.326 . S
O308 C304 1.260 . S
C309 O300 1.240 . S
C309 O301 1.252 . S
O310 In299 2.294 . S
O310 C303 1.240 . S
O311 In299 2.326 . S
O311 C303 1.252 . S
In312 O313 2.294 . S
In312 O314 2.326 . S
In312 O318 2.266 . S
In312 O319 2.326 1_655 S
In312 O320 2.266 1_655 S
In312 O321 2.326 1_655 S
In312 O323 2.294 . S
In312 O324 2.326 . S
O313 In312 2.294 . S
O313 C322 1.240 . S
O314 In312 2.326 . S
O314 C322 1.252 . S
C315 O318 1.252 1_455 S
C315 O319 1.260 . S
C316 O323 1.240 . S
C316 O324 1.252 . S
C317 O320 1.252 . S
C317 O321 1.260 . S
O318 In312 2.266 . S
O318 C315 1.252 1_655 S
O319 In312 2.326 1_455 S
O319 C315 1.260 . S
O320 In312 2.266 1_455 S
O320 C317 1.252 . S
O321 In312 2.326 1_455 S
O321 C317 1.260 . S
C322 O313 1.240 . S
C322 O314 1.252 . S
O323 In312 2.294 . S
O323 C316 1.240 . S
O324 In312 2.326 . S
O324 C316 1.252 . S
In325 O326 2.294 . S
In325 O327 2.326 . S
In325 O331 2.266 . S
In325 O332 2.326 . S
In325 O333 2.266 . S
In325 O334 2.326 . S
In325 O336 2.294 . S
In325 O337 2.326 . S
O326 In325 2.294 . S
O326 C335 1.240 . S
O327 In325 2.326 . S
O327 C335 1.252 . S
C328 O331 1.252 . S
C328 O332 1.260 . S
C329 O336 1.240 . S
C329 O337 1.252 . S
C330 O333 1.252 . S
C330 O334 1.260 . S
O331 In325 2.266 . S
O331 C328 1.252 . S
O332 In325 2.326 . S
O332 C328 1.260 . S
O333 In325 2.266 . S
O333 C330 1.252 . S
O334 In325 2.326 . S
O334 C330 1.260 . S
C335 O326 1.240 . S
C335 O327 1.252 . S
O336 In325 2.294 . S
O336 C329 1.240 . S
O337 In325 2.326 . S
O337 C329 1.252 . S
In338 O339 2.294 . S
In338 O340 2.326 . S
In338 O344 2.266 . S
In338 O345 2.326 . S
In338 O346 2.266 . S
In338 O347 2.326 . S
In338 O349 2.294 . S
In338 O350 2.326 . S
O339 In338 2.294 . S
O339 C348 1.240 . S
O340 In338 2.326 . S
O340 C348 1.252 . S
C341 O344 1.252 . S
C341 O345 1.260 . S
C342 O349 1.240 . S
C342 O350 1.252 . S
C343 O346 1.252 . S
C343 O347 1.260 . S
O344 In338 2.266 . S
O344 C341 1.252 . S
O345 In338 2.326 . S
O345 C341 1.260 . S
O346 In338 2.266 . S
O346 C343 1.252 . S
O347 In338 2.326 . S
O347 C343 1.260 . S
C348 O339 1.240 . S
C348 O340 1.252 . S
O349 In338 2.294 . S
O349 C342 1.240 . S
O350 In338 2.326 . S
O350 C342 1.252 . S
In351 O352 2.294 . S
In351 O353 2.326 . S
In351 O357 2.266 . S
In351 O358 2.326 . S
In351 O359 2.266 . S
In351 O360 2.326 . S
In351 O362 2.294 . S
In351 O363 2.326 . S
O352 In351 2.294 . S
O352 C361 1.240 . S
O353 In351 2.326 . S
O353 C361 1.252 . S
C354 O357 1.252 . S
C354 O358 1.260 . S
C355 O362 1.240 . S
C355 O363 1.252 . S
C356 O359 1.252 . S
C356 O360 1.260 . S
O357 In351 2.266 . S
O357 C354 1.252 . S
O358 In351 2.326 . S
O358 C354 1.260 . S
O359 In351 2.266 . S
O359 C356 1.252 . S
O360 In351 2.326 . S
O360 C356 1.260 . S
C361 O352 1.240 . S
C361 O353 1.252 . S
O362 In351 2.294 . S
O362 C355 1.240 . S
O363 In351 2.326 . S
O363 C355 1.252 . S
In364 O365 2.294 . S
In364 O366 2.326 . S
In364 O370 2.266 . S
In364 O371 2.326 1_655 S
In364 O372 2.266 1_655 S
In364 O373 2.326 1_655 S
In364 O375 2.294 . S
In364 O376 2.326 . S
O365 In364 2.294 . S
O365 C374 1.240 . S
O366 In364 2.326 . S
O366 C374 1.252 . S
C367 O370 1.252 1_455 S
C367 O371 1.260 . S
C368 O375 1.240 . S
C368 O376 1.252 . S
C369 O372 1.252 . S
C369 O373 1.260 . S
O370 In364 2.266 . S
O370 C367 1.252 1_655 S
O371 In364 2.326 1_455 S
O371 C367 1.260 . S
O372 In364 2.266 1_455 S
O372 C369 1.252 . S
O373 In364 2.326 1_455 S
O373 C369 1.260 . S
C374 O365 1.240 . S
C374 O366 1.252 . S
O375 In364 2.294 . S
O375 C368 1.240 . S
O376 In364 2.326 . S
O376 C368 1.252 . S
In377 O378 2.294 . S
In377 O379 2.326 . S
In377 O383 2.266 . S
In377 O384 2.326 . S
In377 O385 2.266 . S
In377 O386 2.326 . S
In377 O388 2.294 . S
In377 O389 2.326 . S
O378 In377 2.294 . S
O378 C387 1.240 . S
O379 In377 2.326 . S
O379 C387 1.252 . S
C380 O383 1.252 . S
C380 O384 1.260 . S
C381 O388 1.240 . S
C381 O389 1.252 . S
C382 O385 1.252 . S
C382 O386 1.260 . S
O383 In377 2.266 . S
O383 C380 1.252 . S
O384 In377 2.326 . S
O384 C380 1.260 . S
O385 In377 2.266 . S
O385 C382 1.252 . S
O386 In377 2.326 . S
O386 C382 1.260 . S
C387 O378 1.240 . S
C387 O379 1.252 . S
O388 In377 2.294 . S
O388 C381 1.240 . S
O389 In377 2.326 . S
O389 C381 1.252 . S
In390 O391 2.294 . S
In390 O392 2.326 . S
In390 O396 2.266 . S
In390 O397 2.326 . S
In390 O398 2.266 . S
In390 O399 2.326 . S
In390 O401 2.294 . S
In390 O402 2.326 . S
O391 In390 2.294 . S
O391 C400 1.240 . S
O392 In390 2.326 . S
O392 C400 1.252 . S
C393 O396 1.252 . S
C393 O397 1.260 . S
C394 O401 1.240 . S
C394 O402 1.252 . S
C395 O398 1.252 . S
C395 O399 1.260 . S
O396 In390 2.266 . S
O396 C393 1.252 . S
O397 In390 2.326 . S
O397 C393 1.260 . S
O398 In390 2.266 . S
O398 C395 1.252 . S
O399 In390 2.326 . S
O399 C395 1.260 . S
C400 O391 1.240 . S
C400 O392 1.252 . S
O401 In390 2.294 . S
O401 C394 1.240 . S
O402 In390 2.326 . S
O402 C394 1.252 . S
In403 O404 2.294 . S
In403 O405 2.326 . S
In403 O409 2.266 . S
In403 O410 2.326 . S
In403 O411 2.266 . S
In403 O412 2.326 . S
In403 O414 2.294 . S
In403 O415 2.326 . S
O404 In403 2.294 . S
O404 C413 1.240 . S
O405 In403 2.326 . S
O405 C413 1.252 . S
C406 O409 1.252 . S
C406 O410 1.260 . S
C407 O414 1.240 . S
C407 O415 1.252 . S
C408 O411 1.252 . S
C408 O412 1.260 . S
O409 In403 2.266 . S
O409 C406 1.252 . S
O410 In403 2.326 . S
O410 C406 1.260 . S
O411 In403 2.266 . S
O411 C408 1.252 . S
O412 In403 2.326 . S
O412 C408 1.260 . S
C413 O404 1.240 . S
C413 O405 1.252 . S
O414 In403 2.294 . S
O414 C407 1.240 . S
O415 In403 2.326 . S
O415 C407 1.252 . S
In416 O417 2.294 . S
In416 O418 2.326 . S
In416 O422 2.266 . S
In416 O423 2.326 1_565 S
In416 O424 2.266 1_565 S
In416 O425 2.326 1_565 S
In416 O427 2.294 . S
In416 O428 2.326 . S
O417 In416 2.294 . S
O417 C426 1.240 . S
O418 In416 2.326 . S
O418 C426 1.252 . S
C419 O422 1.252 1_545 S
C419 O423 1.260 . S
C420 O427 1.240 . S
C420 O428 1.252 . S
C421 O424 1.252 . S
C421 O425 1.260 . S
O422 In416 2.266 . S
O422 C419 1.252 1_565 S
O423 In416 2.326 1_545 S
O423 C419 1.260 . S
O424 In416 2.266 1_545 S
O424 C421 1.252 . S
O425 In416 2.326 1_545 S
O425 C421 1.260 . S
C426 O417 1.240 . S
C426 O418 1.252 . S
O427 In416 2.294 . S
O427 C420 1.240 . S
O428 In416 2.326 . S
O428 C420 1.252 . S
In429 O430 2.294 . S
In429 O431 2.326 . S
In429 O435 2.266 . S
In429 O436 2.326 . S
In429 O437 2.266 . S
In429 O438 2.326 . S
In429 O440 2.294 . S
In429 O441 2.326 . S
O430 In429 2.294 . S
O430 C439 1.240 . S
O431 In429 2.326 . S
O431 C439 1.252 . S
C432 O435 1.252 . S
C432 O436 1.260 . S
C433 O440 1.240 . S
C433 O441 1.252 . S
C434 O437 1.252 . S
C434 O438 1.260 . S
O435 In429 2.266 . S
O435 C432 1.252 . S
O436 In429 2.326 . S
O436 C432 1.260 . S
O437 In429 2.266 . S
O437 C434 1.252 . S
O438 In429 2.326 . S
O438 C434 1.260 . S
C439 O430 1.240 . S
C439 O431 1.252 . S
O440 In429 2.294 . S
O440 C433 1.240 . S
O441 In429 2.326 . S
O441 C433 1.252 . S
In442 O443 2.294 . S
In442 O444 2.326 . S
In442 O448 2.266 . S
In442 O449 2.326 1_545 S
In442 O450 2.266 1_545 S
In442 O451 2.326 1_545 S
In442 O453 2.294 . S
In442 O454 2.326 . S
O443 In442 2.294 . S
O443 C452 1.240 . S
O444 In442 2.326 . S
O444 C452 1.252 . S
C445 O448 1.252 1_565 S
C445 O449 1.260 . S
C446 O453 1.240 . S
C446 O454 1.252 . S
C447 O450 1.252 . S
C447 O451 1.260 . S
O448 In442 2.266 . S
O448 C445 1.252 1_545 S
O449 In442 2.326 1_565 S
O449 C445 1.260 . S
O450 In442 2.266 1_565 S
O450 C447 1.252 . S
O451 In442 2.326 1_565 S
O451 C447 1.260 . S
C452 O443 1.240 . S
C452 O444 1.252 . S
O453 In442 2.294 . S
O453 C446 1.240 . S
O454 In442 2.326 . S
O454 C446 1.252 . S
In455 O456 2.294 . S
In455 O457 2.326 . S
In455 O461 2.266 . S
In455 O462 2.326 . S
In455 O463 2.266 . S
In455 O464 2.326 . S
In455 O466 2.294 . S
In455 O467 2.326 . S
O456 In455 2.294 . S
O456 C465 1.240 . S
O457 In455 2.326 . S
O457 C465 1.252 . S
C458 O461 1.252 . S
C458 O462 1.260 . S
C459 O466 1.240 . S
C459 O467 1.252 . S
C460 O463 1.252 . S
C460 O464 1.260 . S
O461 In455 2.266 . S
O461 C458 1.252 . S
O462 In455 2.326 . S
O462 C458 1.260 . S
O463 In455 2.266 . S
O463 C460 1.252 . S
O464 In455 2.326 . S
O464 C460 1.260 . S
C465 O456 1.240 . S
C465 O457 1.252 . S
O466 In455 2.294 . S
O466 C459 1.240 . S
O467 In455 2.326 . S
O467 C459 1.252 . S
In468 O469 2.294 . S
In468 O470 2.326 . S
In468 O474 2.266 . S
In468 O475 2.326 1_545 S
In468 O476 2.266 1_545 S
In468 O477 2.326 1_545 S
In468 O479 2.294 . S
In468 O480 2.326 . S
O469 In468 2.294 . S
O469 C478 1.240 . S
O470 In468 2.326 . S
O470 C478 1.252 . S
C471 O474 1.252 1_565 S
C471 O475 1.260 . S
C472 O479 1.240 . S
C472 O480 1.252 . S
C473 O476 1.252 . S
C473 O477 1.260 . S
O474 In468 2.266 . S
O474 C471 1.252 1_545 S
O475 In468 2.326 1_565 S
O475 C471 1.260 . S
O476 In468 2.266 1_565 S
O476 C473 1.252 . S
O477 In468 2.326 1_565 S
O477 C473 1.260 . S
C478 O469 1.240 . S
C478 O470 1.252 . S
O479 In468 2.294 . S
O479 C472 1.240 . S
O480 In468 2.326 . S
O480 C472 1.252 . S
In481 O482 2.294 . S
In481 O483 2.326 . S
In481 O487 2.266 . S
In481 O488 2.326 . S
In481 O489 2.266 . S
In481 O490 2.326 . S
In481 O492 2.294 . S
In481 O493 2.326 . S
O482 In481 2.294 . S
O482 C491 1.240 . S
O483 In481 2.326 . S
O483 C491 1.252 . S
C484 O487 1.252 . S
C484 O488 1.260 . S
C485 O492 1.240 . S
C485 O493 1.252 . S
C486 O489 1.252 . S
C486 O490 1.260 . S
O487 In481 2.266 . S
O487 C484 1.252 . S
O488 In481 2.326 . S
O488 C484 1.260 . S
O489 In481 2.266 . S
O489 C486 1.252 . S
O490 In481 2.326 . S
O490 C486 1.260 . S
C491 O482 1.240 . S
C491 O483 1.252 . S
O492 In481 2.294 . S
O492 C485 1.240 . S
O493 In481 2.326 . S
O493 C485 1.252 . S
In494 O495 2.294 . S
In494 O496 2.326 . S
In494 O500 2.266 1_565 S
In494 O501 2.326 1_565 S
In494 O502 2.266 . S
In494 O503 2.326 1_565 S
In494 O505 2.294 . S
In494 O506 2.326 . S
O495 In494 2.294 . S
O495 C504 1.240 . S
O496 In494 2.326 . S
O496 C504 1.252 . S
C497 O500 1.252 . S
C497 O501 1.260 . S
C498 O505 1.240 . S
C498 O506 1.252 . S
C499 O502 1.252 1_545 S
C499 O503 1.260 . S
O500 In494 2.266 1_545 S
O500 C497 1.252 . S
O501 In494 2.326 1_545 S
O501 C497 1.260 . S
O502 In494 2.266 . S
O502 C499 1.252 1_565 S
O503 In494 2.326 1_545 S
O503 C499 1.260 . S
C504 O495 1.240 . S
C504 O496 1.252 . S
O505 In494 2.294 . S
O505 C498 1.240 . S
O506 In494 2.326 . S
O506 C498 1.252 . S
In507 O508 2.294 . S
In507 O509 2.326 . S
In507 O513 2.266 . S
In507 O514 2.326 . S
In507 O515 2.266 . S
In507 O516 2.326 . S
In507 O518 2.294 . S
In507 O519 2.326 . S
O508 In507 2.294 . S
O508 C517 1.240 . S
O509 In507 2.326 . S
O509 C517 1.252 . S
C510 O513 1.252 . S
C510 O514 1.260 . S
C511 O518 1.240 . S
C511 O519 1.252 . S
C512 O515 1.252 . S
C512 O516 1.260 . S
O513 In507 2.266 . S
O513 C510 1.252 . S
O514 In507 2.326 . S
O514 C510 1.260 . S
O515 In507 2.266 . S
O515 C512 1.252 . S
O516 In507 2.326 . S
O516 C512 1.260 . S
C517 O508 1.240 . S
C517 O509 1.252 . S
O518 In507 2.294 . S
O518 C511 1.240 . S
O519 In507 2.326 . S
O519 C511 1.252 . S
In520 O521 2.294 . S
In520 O522 2.326 . S
In520 O526 2.266 1_556 S
In520 O527 2.326 1_556 S
In520 O528 2.266 . S
In520 O529 2.326 1_556 S
In520 O531 2.294 . S
In520 O532 2.326 . S
O521 In520 2.294 . S
O521 C530 1.240 . S
O522 In520 2.326 . S
O522 C530 1.252 . S
C523 O526 1.252 . S
C523 O527 1.260 . S
C524 O531 1.240 . S
C524 O532 1.252 . S
C525 O528 1.252 1_554 S
C525 O529 1.260 . S
O526 In520 2.266 1_554 S
O526 C523 1.252 . S
O527 In520 2.326 1_554 S
O527 C523 1.260 . S
O528 In520 2.266 . S
O528 C525 1.252 1_556 S
O529 In520 2.326 1_554 S
O529 C525 1.260 . S
C530 O521 1.240 . S
C530 O522 1.252 . S
O531 In520 2.294 . S
O531 C524 1.240 . S
O532 In520 2.326 . S
O532 C524 1.252 . S
In533 O534 2.294 . S
In533 O535 2.326 . S
In533 O539 2.266 1_554 S
In533 O540 2.326 1_554 S
In533 O541 2.266 . S
In533 O542 2.326 1_554 S
In533 O544 2.294 . S
In533 O545 2.326 . S
O534 In533 2.294 . S
O534 C543 1.240 . S
O535 In533 2.326 . S
O535 C543 1.252 . S
C536 O539 1.252 . S
C536 O540 1.260 . S
C537 O544 1.240 . S
C537 O545 1.252 . S
C538 O541 1.252 1_556 S
C538 O542 1.260 . S
O539 In533 2.266 1_556 S
O539 C536 1.252 . S
O540 In533 2.326 1_556 S
O540 C536 1.260 . S
O541 In533 2.266 . S
O541 C538 1.252 1_554 S
O542 In533 2.326 1_556 S
O542 C538 1.260 . S
C543 O534 1.240 . S
C543 O535 1.252 . S
O544 In533 2.294 . S
O544 C537 1.240 . S
O545 In533 2.326 . S
O545 C537 1.252 . S
In546 O547 2.294 . S
In546 O548 2.326 . S
In546 O552 2.266 . S
In546 O553 2.326 . S
In546 O554 2.266 . S
In546 O555 2.326 . S
In546 O557 2.294 . S
In546 O558 2.326 . S
O547 In546 2.294 . S
O547 C556 1.240 . S
O548 In546 2.326 . S
O548 C556 1.252 . S
C549 O552 1.252 . S
C549 O553 1.260 . S
C550 O557 1.240 . S
C550 O558 1.252 . S
C551 O554 1.252 . S
C551 O555 1.260 . S
O552 In546 2.266 . S
O552 C549 1.252 . S
O553 In546 2.326 . S
O553 C549 1.260 . S
O554 In546 2.266 . S
O554 C551 1.252 . S
O555 In546 2.326 . S
O555 C551 1.260 . S
C556 O547 1.240 . S
C556 O548 1.252 . S
O557 In546 2.294 . S
O557 C550 1.240 . S
O558 In546 2.326 . S
O558 C550 1.252 . S
In559 O560 2.294 . S
In559 O561 2.326 . S
In559 O565 2.266 . S
In559 O566 2.326 . S
In559 O567 2.266 . S
In559 O568 2.326 . S
In559 O570 2.294 . S
In559 O571 2.326 . S
O560 In559 2.294 . S
O560 C569 1.240 . S
O561 In559 2.326 . S
O561 C569 1.252 . S
C562 O565 1.252 . S
C562 O566 1.260 . S
C563 O570 1.240 . S
C563 O571 1.252 . S
C564 O567 1.252 . S
C564 O568 1.260 . S
O565 In559 2.266 . S
O565 C562 1.252 . S
O566 In559 2.326 . S
O566 C562 1.260 . S
O567 In559 2.266 . S
O567 C564 1.252 . S
O568 In559 2.326 . S
O568 C564 1.260 . S
C569 O560 1.240 . S
C569 O561 1.252 . S
O570 In559 2.294 . S
O570 C563 1.240 . S
O571 In559 2.326 . S
O571 C563 1.252 . S
In572 O573 2.294 . S
In572 O574 2.326 . S
In572 O578 2.266 . S
In572 O579 2.326 . S
In572 O580 2.266 . S
In572 O581 2.326 . S
In572 O583 2.294 . S
In572 O584 2.326 . S
O573 In572 2.294 . S
O573 C582 1.240 . S
O574 In572 2.326 . S
O574 C582 1.252 . S
C575 O578 1.252 . S
C575 O579 1.260 . S
C576 O583 1.240 . S
C576 O584 1.252 . S
C577 O580 1.252 . S
C577 O581 1.260 . S
O578 In572 2.266 . S
O578 C575 1.252 . S
O579 In572 2.326 . S
O579 C575 1.260 . S
O580 In572 2.266 . S
O580 C577 1.252 . S
O581 In572 2.326 . S
O581 C577 1.260 . S
C582 O573 1.240 . S
C582 O574 1.252 . S
O583 In572 2.294 . S
O583 C576 1.240 . S
O584 In572 2.326 . S
O584 C576 1.252 . S
In585 O586 2.294 . S
In585 O587 2.326 . S
In585 O591 2.266 . S
In585 O592 2.326 . S
In585 O593 2.266 . S
In585 O594 2.326 . S
In585 O596 2.294 . S
In585 O597 2.326 . S
O586 In585 2.294 . S
O586 C595 1.240 . S
O587 In585 2.326 . S
O587 C595 1.252 . S
C588 O591 1.252 . S
C588 O592 1.260 . S
C589 O596 1.240 . S
C589 O597 1.252 . S
C590 O593 1.252 . S
C590 O594 1.260 . S
O591 In585 2.266 . S
O591 C588 1.252 . S
O592 In585 2.326 . S
O592 C588 1.260 . S
O593 In585 2.266 . S
O593 C590 1.252 . S
O594 In585 2.326 . S
O594 C590 1.260 . S
C595 O586 1.240 . S
C595 O587 1.252 . S
O596 In585 2.294 . S
O596 C589 1.240 . S
O597 In585 2.326 . S
O597 C589 1.252 . S
In598 O599 2.294 . S
In598 O600 2.326 . S
In598 O604 2.266 . S
In598 O605 2.326 . S
In598 O606 2.266 . S
In598 O607 2.326 . S
In598 O609 2.294 . S
In598 O610 2.326 . S
O599 In598 2.294 . S
O599 C608 1.240 . S
O600 In598 2.326 . S
O600 C608 1.252 . S
C601 O604 1.252 . S
C601 O605 1.260 . S
C602 O609 1.240 . S
C602 O610 1.252 . S
C603 O606 1.252 . S
C603 O607 1.260 . S
O604 In598 2.266 . S
O604 C601 1.252 . S
O605 In598 2.326 . S
O605 C601 1.260 . S
O606 In598 2.266 . S
O606 C603 1.252 . S
O607 In598 2.326 . S
O607 C603 1.260 . S
C608 O599 1.240 . S
C608 O600 1.252 . S
O609 In598 2.294 . S
O609 C602 1.240 . S
O610 In598 2.326 . S
O610 C602 1.252 . S
In611 O612 2.294 . S
In611 O613 2.326 . S
In611 O617 2.266 . S
In611 O618 2.326 . S
In611 O619 2.266 . S
In611 O620 2.326 . S
In611 O622 2.294 . S
In611 O623 2.326 . S
O612 In611 2.294 . S
O612 C621 1.240 . S
O613 In611 2.326 . S
O613 C621 1.252 . S
C614 O617 1.252 . S
C614 O618 1.260 . S
C615 O622 1.240 . S
C615 O623 1.252 . S
C616 O619 1.252 . S
C616 O620 1.260 . S
O617 In611 2.266 . S
O617 C614 1.252 . S
O618 In611 2.326 . S
O618 C614 1.260 . S
O619 In611 2.266 . S
O619 C616 1.252 . S
O620 In611 2.326 . S
O620 C616 1.260 . S
C621 O612 1.240 . S
C621 O613 1.252 . S
O622 In611 2.294 . S
O622 C615 1.240 . S
O623 In611 2.326 . S
O623 C615 1.252 . S
In624 O625 2.294 . S
In624 O626 2.326 . S
In624 O630 2.266 . S
In624 O631 2.326 . S
In624 O632 2.266 . S
In624 O633 2.326 . S
In624 O635 2.294 . S
In624 O636 2.326 . S
O625 In624 2.294 . S
O625 C634 1.240 . S
O626 In624 2.326 . S
O626 C634 1.252 . S
C627 O630 1.252 . S
C627 O631 1.260 . S
C628 O635 1.240 . S
C628 O636 1.252 . S
C629 O632 1.252 . S
C629 O633 1.260 . S
O630 In624 2.266 . S
O630 C627 1.252 . S
O631 In624 2.326 . S
O631 C627 1.260 . S
O632 In624 2.266 . S
O632 C629 1.252 . S
O633 In624 2.326 . S
O633 C629 1.260 . S
C634 O625 1.240 . S
C634 O626 1.252 . S
O635 In624 2.294 . S
O635 C628 1.240 . S
O636 In624 2.326 . S
O636 C628 1.252 . S
In637 O638 2.294 . S
In637 O639 2.326 . S
In637 O643 2.266 . S
In637 O644 2.326 . S
In637 O645 2.266 . S
In637 O646 2.326 . S
In637 O648 2.294 . S
In637 O649 2.326 . S
O638 In637 2.294 . S
O638 C647 1.240 . S
O639 In637 2.326 . S
O639 C647 1.252 . S
C640 O643 1.252 . S
C640 O644 1.260 . S
C641 O648 1.240 . S
C641 O649 1.252 . S
C642 O645 1.252 . S
C642 O646 1.260 . S
O643 In637 2.266 . S
O643 C640 1.252 . S
O644 In637 2.326 . S
O644 C640 1.260 . S
O645 In637 2.266 . S
O645 C642 1.252 . S
O646 In637 2.326 . S
O646 C642 1.260 . S
C647 O638 1.240 . S
C647 O639 1.252 . S
O648 In637 2.294 . S
O648 C641 1.240 . S
O649 In637 2.326 . S
O649 C641 1.252 . S
In650 O651 2.294 . S
In650 O652 2.326 . S
In650 O656 2.266 1_655 S
In650 O657 2.326 1_655 S
In650 O658 2.266 . S
In650 O659 2.326 1_655 S
In650 O661 2.294 . S
In650 O662 2.326 . S
O651 In650 2.294 . S
O651 C660 1.240 . S
O652 In650 2.326 . S
O652 C660 1.252 . S
C653 O656 1.252 . S
C653 O657 1.260 . S
C654 O661 1.240 . S
C654 O662 1.252 . S
C655 O658 1.252 1_455 S
C655 O659 1.260 . S
O656 In650 2.266 1_455 S
O656 C653 1.252 . S
O657 In650 2.326 1_455 S
O657 C653 1.260 . S
O658 In650 2.266 . S
O658 C655 1.252 1_655 S
O659 In650 2.326 1_455 S
O659 C655 1.260 . S
C660 O651 1.240 . S
C660 O652 1.252 . S
O661 In650 2.294 . S
O661 C654 1.240 . S
O662 In650 2.326 . S
O662 C654 1.252 . S
In663 O664 2.294 . S
In663 O665 2.326 . S
In663 O669 2.266 . S
In663 O670 2.326 . S
In663 O671 2.266 . S
In663 O672 2.326 . S
In663 O674 2.294 . S
In663 O675 2.326 . S
O664 In663 2.294 . S
O664 C673 1.240 . S
O665 In663 2.326 . S
O665 C673 1.252 . S
C666 O669 1.252 . S
C666 O670 1.260 . S
C667 O674 1.240 . S
C667 O675 1.252 . S
C668 O671 1.252 . S
C668 O672 1.260 . S
O669 In663 2.266 . S
O669 C666 1.252 . S
O670 In663 2.326 . S
O670 C666 1.260 . S
O671 In663 2.266 . S
O671 C668 1.252 . S
O672 In663 2.326 . S
O672 C668 1.260 . S
C673 O664 1.240 . S
C673 O665 1.252 . S
O674 In663 2.294 . S
O674 C667 1.240 . S
O675 In663 2.326 . S
O675 C667 1.252 . S
In676 O677 2.294 . S
In676 O678 2.326 . S
In676 O682 2.266 . S
In676 O683 2.326 . S
In676 O684 2.266 . S
In676 O685 2.326 . S
In676 O687 2.294 . S
In676 O688 2.326 . S
O677 In676 2.294 . S
O677 C686 1.240 . S
O678 In676 2.326 . S
O678 C686 1.252 . S
C679 O682 1.252 . S
C679 O683 1.260 . S
C680 O687 1.240 . S
C680 O688 1.252 . S
C681 O684 1.252 . S
C681 O685 1.260 . S
O682 In676 2.266 . S
O682 C679 1.252 . S
O683 In676 2.326 . S
O683 C679 1.260 . S
O684 In676 2.266 . S
O684 C681 1.252 . S
O685 In676 2.326 . S
O685 C681 1.260 . S
C686 O677 1.240 . S
C686 O678 1.252 . S
O687 In676 2.294 . S
O687 C680 1.240 . S
O688 In676 2.326 . S
O688 C680 1.252 . S
In689 O690 2.294 . S
In689 O691 2.326 . S
In689 O695 2.266 . S
In689 O696 2.326 . S
In689 O697 2.266 . S
In689 O698 2.326 . S
In689 O700 2.294 . S
In689 O701 2.326 . S
O690 In689 2.294 . S
O690 C699 1.240 . S
O691 In689 2.326 . S
O691 C699 1.252 . S
C692 O695 1.252 . S
C692 O696 1.260 . S
C693 O700 1.240 . S
C693 O701 1.252 . S
C694 O697 1.252 . S
C694 O698 1.260 . S
O695 In689 2.266 . S
O695 C692 1.252 . S
O696 In689 2.326 . S
O696 C692 1.260 . S
O697 In689 2.266 . S
O697 C694 1.252 . S
O698 In689 2.326 . S
O698 C694 1.260 . S
C699 O690 1.240 . S
C699 O691 1.252 . S
O700 In689 2.294 . S
O700 C693 1.240 . S
O701 In689 2.326 . S
O701 C693 1.252 . S
In702 O703 2.294 . S
In702 O704 2.326 . S
In702 O708 2.266 . S
In702 O709 2.326 1_655 S
In702 O710 2.266 1_655 S
In702 O711 2.326 1_655 S
In702 O713 2.294 . S
In702 O714 2.326 . S
O703 In702 2.294 . S
O703 C712 1.240 . S
O704 In702 2.326 . S
O704 C712 1.252 . S
C705 O708 1.252 1_455 S
C705 O709 1.260 . S
C706 O713 1.240 . S
C706 O714 1.252 . S
C707 O710 1.252 . S
C707 O711 1.260 . S
O708 In702 2.266 . S
O708 C705 1.252 1_655 S
O709 In702 2.326 1_455 S
O709 C705 1.260 . S
O710 In702 2.266 1_455 S
O710 C707 1.252 . S
O711 In702 2.326 1_455 S
O711 C707 1.260 . S
C712 O703 1.240 . S
C712 O704 1.252 . S
O713 In702 2.294 . S
O713 C706 1.240 . S
O714 In702 2.326 . S
O714 C706 1.252 . S
In715 O716 2.294 . S
In715 O717 2.326 . S
In715 O721 2.266 . S
In715 O722 2.326 . S
In715 O723 2.266 . S
In715 O724 2.326 . S
In715 O726 2.294 . S
In715 O727 2.326 . S
O716 In715 2.294 . S
O716 C725 1.240 . S
O717 In715 2.326 . S
O717 C725 1.252 . S
C718 O721 1.252 . S
C718 O722 1.260 . S
C719 O726 1.240 . S
C719 O727 1.252 . S
C720 O723 1.252 . S
C720 O724 1.260 . S
O721 In715 2.266 . S
O721 C718 1.252 . S
O722 In715 2.326 . S
O722 C718 1.260 . S
O723 In715 2.266 . S
O723 C720 1.252 . S
O724 In715 2.326 . S
O724 C720 1.260 . S
C725 O716 1.240 . S
C725 O717 1.252 . S
O726 In715 2.294 . S
O726 C719 1.240 . S
O727 In715 2.326 . S
O727 C719 1.252 . S
In728 O729 2.294 . S
In728 O730 2.326 . S
In728 O734 2.266 . S
In728 O735 2.326 . S
In728 O736 2.266 . S
In728 O737 2.326 . S
In728 O739 2.294 . S
In728 O740 2.326 . S
O729 In728 2.294 . S
O729 C738 1.240 . S
O730 In728 2.326 . S
O730 C738 1.252 . S
C731 O734 1.252 . S
C731 O735 1.260 . S
C732 O739 1.240 . S
C732 O740 1.252 . S
C733 O736 1.252 . S
C733 O737 1.260 . S
O734 In728 2.266 . S
O734 C731 1.252 . S
O735 In728 2.326 . S
O735 C731 1.260 . S
O736 In728 2.266 . S
O736 C733 1.252 . S
O737 In728 2.326 . S
O737 C733 1.260 . S
C738 O729 1.240 . S
C738 O730 1.252 . S
O739 In728 2.294 . S
O739 C732 1.240 . S
O740 In728 2.326 . S
O740 C732 1.252 . S
In741 O742 2.294 . S
In741 O743 2.326 . S
In741 O747 2.266 . S
In741 O748 2.326 . S
In741 O749 2.266 . S
In741 O750 2.326 . S
In741 O752 2.294 . S
In741 O753 2.326 . S
O742 In741 2.294 . S
O742 C751 1.240 . S
O743 In741 2.326 . S
O743 C751 1.252 . S
C744 O747 1.252 . S
C744 O748 1.260 . S
C745 O752 1.240 . S
C745 O753 1.252 . S
C746 O749 1.252 . S
C746 O750 1.260 . S
O747 In741 2.266 . S
O747 C744 1.252 . S
O748 In741 2.326 . S
O748 C744 1.260 . S
O749 In741 2.266 . S
O749 C746 1.252 . S
O750 In741 2.326 . S
O750 C746 1.260 . S
C751 O742 1.240 . S
C751 O743 1.252 . S
O752 In741 2.294 . S
O752 C745 1.240 . S
O753 In741 2.326 . S
O753 C745 1.252 . S
In754 O755 2.294 . S
In754 O756 2.326 . S
In754 O760 2.266 . S
In754 O761 2.326 . S
In754 O762 2.266 . S
In754 O763 2.326 . S
In754 O765 2.294 . S
In754 O766 2.326 . S
O755 In754 2.294 . S
O755 C764 1.240 . S
O756 In754 2.326 . S
O756 C764 1.252 . S
C757 O760 1.252 . S
C757 O761 1.260 . S
C758 O765 1.240 . S
C758 O766 1.252 . S
C759 O762 1.252 . S
C759 O763 1.260 . S
O760 In754 2.266 . S
O760 C757 1.252 . S
O761 In754 2.326 . S
O761 C757 1.260 . S
O762 In754 2.266 . S
O762 C759 1.252 . S
O763 In754 2.326 . S
O763 C759 1.260 . S
C764 O755 1.240 . S
C764 O756 1.252 . S
O765 In754 2.294 . S
O765 C758 1.240 . S
O766 In754 2.326 . S
O766 C758 1.252 . S
In767 O768 2.294 . S
In767 O769 2.326 . S
In767 O773 2.266 . S
In767 O774 2.326 . S
In767 O775 2.266 . S
In767 O776 2.326 . S
In767 O778 2.294 . S
In767 O779 2.326 . S
O768 In767 2.294 . S
O768 C777 1.240 . S
O769 In767 2.326 . S
O769 C777 1.252 . S
C770 O773 1.252 . S
C770 O774 1.260 . S
C771 O778 1.240 . S
C771 O779 1.252 . S
C772 O775 1.252 . S
C772 O776 1.260 . S
O773 In767 2.266 . S
O773 C770 1.252 . S
O774 In767 2.326 . S
O774 C770 1.260 . S
O775 In767 2.266 . S
O775 C772 1.252 . S
O776 In767 2.326 . S
O776 C772 1.260 . S
C777 O768 1.240 . S
C777 O769 1.252 . S
O778 In767 2.294 . S
O778 C771 1.240 . S
O779 In767 2.326 . S
O779 C771 1.252 . S
In780 O781 2.294 . S
In780 O782 2.326 . S
In780 O786 2.266 . S
In780 O787 2.326 . S
In780 O788 2.266 . S
In780 O789 2.326 . S
In780 O791 2.294 . S
In780 O792 2.326 . S
O781 In780 2.294 . S
O781 C790 1.240 . S
O782 In780 2.326 . S
O782 C790 1.252 . S
C783 O786 1.252 . S
C783 O787 1.260 . S
C784 O791 1.240 . S
C784 O792 1.252 . S
C785 O788 1.252 . S
C785 O789 1.260 . S
O786 In780 2.266 . S
O786 C783 1.252 . S
O787 In780 2.326 . S
O787 C783 1.260 . S
O788 In780 2.266 . S
O788 C785 1.252 . S
O789 In780 2.326 . S
O789 C785 1.260 . S
C790 O781 1.240 . S
C790 O782 1.252 . S
O791 In780 2.294 . S
O791 C784 1.240 . S
O792 In780 2.326 . S
O792 C784 1.252 . S
In793 O794 2.294 . S
In793 O795 2.326 . S
In793 O799 2.266 . S
In793 O800 2.326 . S
In793 O801 2.266 . S
In793 O802 2.326 . S
In793 O804 2.294 . S
In793 O805 2.326 . S
O794 In793 2.294 . S
O794 C803 1.240 . S
O795 In793 2.326 . S
O795 C803 1.252 . S
C796 O799 1.252 . S
C796 O800 1.260 . S
C797 O804 1.240 . S
C797 O805 1.252 . S
C798 O801 1.252 . S
C798 O802 1.260 . S
O799 In793 2.266 . S
O799 C796 1.252 . S
O800 In793 2.326 . S
O800 C796 1.260 . S
O801 In793 2.266 . S
O801 C798 1.252 . S
O802 In793 2.326 . S
O802 C798 1.260 . S
C803 O794 1.240 . S
C803 O795 1.252 . S
O804 In793 2.294 . S
O804 C797 1.240 . S
O805 In793 2.326 . S
O805 C797 1.252 . S
In806 O807 2.294 . S
In806 O808 2.326 . S
In806 O812 2.266 . S
In806 O813 2.326 . S
In806 O814 2.266 . S
In806 O815 2.326 . S
In806 O817 2.294 . S
In806 O818 2.326 . S
O807 In806 2.294 . S
O807 C816 1.240 . S
O808 In806 2.326 . S
O808 C816 1.252 . S
C809 O812 1.252 . S
C809 O813 1.260 . S
C810 O817 1.240 . S
C810 O818 1.252 . S
C811 O814 1.252 . S
C811 O815 1.260 . S
O812 In806 2.266 . S
O812 C809 1.252 . S
O813 In806 2.326 . S
O813 C809 1.260 . S
O814 In806 2.266 . S
O814 C811 1.252 . S
O815 In806 2.326 . S
O815 C811 1.260 . S
C816 O807 1.240 . S
C816 O808 1.252 . S
O817 In806 2.294 . S
O817 C810 1.240 . S
O818 In806 2.326 . S
O818 C810 1.252 . S
In819 O820 2.294 . S
In819 O821 2.326 . S
In819 O825 2.266 . S
In819 O826 2.326 . S
In819 O827 2.266 . S
In819 O828 2.326 . S
In819 O830 2.294 . S
In819 O831 2.326 . S
O820 In819 2.294 . S
O820 C829 1.240 . S
O821 In819 2.326 . S
O821 C829 1.252 . S
C822 O825 1.252 . S
C822 O826 1.260 . S
C823 O830 1.240 . S
C823 O831 1.252 . S
C824 O827 1.252 . S
C824 O828 1.260 . S
O825 In819 2.266 . S
O825 C822 1.252 . S
O826 In819 2.326 . S
O826 C822 1.260 . S
O827 In819 2.266 . S
O827 C824 1.252 . S
O828 In819 2.326 . S
O828 C824 1.260 . S
C829 O820 1.240 . S
C829 O821 1.252 . S
O830 In819 2.294 . S
O830 C823 1.240 . S
O831 In819 2.326 . S
O831 C823 1.252 . S
In832 O833 2.294 . S
In832 O834 2.326 . S
In832 O838 2.266 . S
In832 O839 2.326 . S
In832 O840 2.266 . S
In832 O841 2.326 . S
In832 O843 2.294 . S
In832 O844 2.326 . S
O833 In832 2.294 . S
O833 C842 1.240 . S
O834 In832 2.326 . S
O834 C842 1.252 . S
C835 O838 1.252 . S
C835 O839 1.260 . S
C836 O843 1.240 . S
C836 O844 1.252 . S
C837 O840 1.252 . S
C837 O841 1.260 . S
O838 In832 2.266 . S
O838 C835 1.252 . S
O839 In832 2.326 . S
O839 C835 1.260 . S
O840 In832 2.266 . S
O840 C837 1.252 . S
O841 In832 2.326 . S
O841 C837 1.260 . S
C842 O833 1.240 . S
C842 O834 1.252 . S
O843 In832 2.294 . S
O843 C836 1.240 . S
O844 In832 2.326 . S
O844 C836 1.252 . S
In845 O846 2.294 . S
In845 O847 2.326 . S
In845 O851 2.266 . S
In845 O852 2.326 . S
In845 O853 2.266 . S
In845 O854 2.326 . S
In845 O856 2.294 . S
In845 O857 2.326 . S
O846 In845 2.294 . S
O846 C855 1.240 . S
O847 In845 2.326 . S
O847 C855 1.252 . S
C848 O851 1.252 . S
C848 O852 1.260 . S
C849 O856 1.240 . S
C849 O857 1.252 . S
C850 O853 1.252 . S
C850 O854 1.260 . S
O851 In845 2.266 . S
O851 C848 1.252 . S
O852 In845 2.326 . S
O852 C848 1.260 . S
O853 In845 2.266 . S
O853 C850 1.252 . S
O854 In845 2.326 . S
O854 C850 1.260 . S
C855 O846 1.240 . S
C855 O847 1.252 . S
O856 In845 2.294 . S
O856 C849 1.240 . S
O857 In845 2.326 . S
O857 C849 1.252 . S
In858 O859 2.294 . S
In858 O860 2.326 . S
In858 O864 2.266 . S
In858 O865 2.326 . S
In858 O866 2.266 . S
In858 O867 2.326 . S
In858 O869 2.294 . S
In858 O870 2.326 . S
O859 In858 2.294 . S
O859 C868 1.240 . S
O860 In858 2.326 . S
O860 C868 1.252 . S
C861 O864 1.252 . S
C861 O865 1.260 . S
C862 O869 1.240 . S
C862 O870 1.252 . S
C863 O866 1.252 . S
C863 O867 1.260 . S
O864 In858 2.266 . S
O864 C861 1.252 . S
O865 In858 2.326 . S
O865 C861 1.260 . S
O866 In858 2.266 . S
O866 C863 1.252 . S
O867 In858 2.326 . S
O867 C863 1.260 . S
C868 O859 1.240 . S
C868 O860 1.252 . S
O869 In858 2.294 . S
O869 C862 1.240 . S
O870 In858 2.326 . S
O870 C862 1.252 . S
In871 O872 2.294 . S
In871 O873 2.326 . S
In871 O877 2.266 1_556 S
In871 O878 2.326 1_556 S
In871 O879 2.266 . S
In871 O880 2.326 1_556 S
In871 O882 2.294 . S
In871 O883 2.326 . S
O872 In871 2.294 . S
O872 C881 1.240 . S
O873 In871 2.326 . S
O873 C881 1.252 . S
C874 O877 1.252 . S
C874 O878 1.260 . S
C875 O882 1.240 . S
C875 O883 1.252 . S
C876 O879 1.252 1_554 S
C876 O880 1.260 . S
O877 In871 2.266 1_554 S
O877 C874 1.252 . S
O878 In871 2.326 1_554 S
O878 C874 1.260 . S
O879 In871 2.266 . S
O879 C876 1.252 1_556 S
O880 In871 2.326 1_554 S
O880 C876 1.260 . S
C881 O872 1.240 . S
C881 O873 1.252 . S
O882 In871 2.294 . S
O882 C875 1.240 . S
O883 In871 2.326 . S
O883 C875 1.252 . S
In884 O885 2.294 . S
In884 O886 2.326 . S
In884 O890 2.266 . S
In884 O891 2.326 . S
In884 O892 2.266 . S
In884 O893 2.326 . S
In884 O895 2.294 . S
In884 O896 2.326 . S
O885 In884 2.294 . S
O885 C894 1.240 . S
O886 In884 2.326 . S
O886 C894 1.252 . S
C887 O890 1.252 . S
C887 O891 1.260 . S
C888 O895 1.240 . S
C888 O896 1.252 . S
C889 O892 1.252 . S
C889 O893 1.260 . S
O890 In884 2.266 . S
O890 C887 1.252 . S
O891 In884 2.326 . S
O891 C887 1.260 . S
O892 In884 2.266 . S
O892 C889 1.252 . S
O893 In884 2.326 . S
O893 C889 1.260 . S
C894 O885 1.240 . S
C894 O886 1.252 . S
O895 In884 2.294 . S
O895 C888 1.240 . S
O896 In884 2.326 . S
O896 C888 1.252 . S
In897 O898 2.294 . S
In897 O899 2.326 . S
In897 O903 2.266 1_554 S
In897 O904 2.326 1_554 S
In897 O905 2.266 . S
In897 O906 2.326 1_554 S
In897 O908 2.294 . S
In897 O909 2.326 . S
O898 In897 2.294 . S
O898 C907 1.240 . S
O899 In897 2.326 . S
O899 C907 1.252 . S
C900 O903 1.252 . S
C900 O904 1.260 . S
C901 O908 1.240 . S
C901 O909 1.252 . S
C902 O905 1.252 1_556 S
C902 O906 1.260 . S
O903 In897 2.266 1_556 S
O903 C900 1.252 . S
O904 In897 2.326 1_556 S
O904 C900 1.260 . S
O905 In897 2.266 . S
O905 C902 1.252 1_554 S
O906 In897 2.326 1_556 S
O906 C902 1.260 . S
C907 O898 1.240 . S
C907 O899 1.252 . S
O908 In897 2.294 . S
O908 C901 1.240 . S
O909 In897 2.326 . S
O909 C901 1.252 . S
In910 O911 2.294 . S
In910 O912 2.326 . S
In910 O916 2.266 . S
In910 O917 2.326 . S
In910 O918 2.266 . S
In910 O919 2.326 . S
In910 O921 2.294 . S
In910 O922 2.326 . S
O911 In910 2.294 . S
O911 C920 1.240 . S
O912 In910 2.326 . S
O912 C920 1.252 . S
C913 O916 1.252 . S
C913 O917 1.260 . S
C914 O921 1.240 . S
C914 O922 1.252 . S
C915 O918 1.252 . S
C915 O919 1.260 . S
O916 In910 2.266 . S
O916 C913 1.252 . S
O917 In910 2.326 . S
O917 C913 1.260 . S
O918 In910 2.266 . S
O918 C915 1.252 . S
O919 In910 2.326 . S
O919 C915 1.260 . S
C920 O911 1.240 . S
C920 O912 1.252 . S
O921 In910 2.294 . S
O921 C914 1.240 . S
O922 In910 2.326 . S
O922 C914 1.252 . S
In923 O924 2.294 . S
In923 O925 2.326 . S
In923 O929 2.266 . S
In923 O930 2.326 . S
In923 O931 2.266 . S
In923 O932 2.326 . S
In923 O934 2.294 . S
In923 O935 2.326 . S
O924 In923 2.294 . S
O924 C933 1.240 . S
O925 In923 2.326 . S
O925 C933 1.252 . S
C926 O929 1.252 . S
C926 O930 1.260 . S
C927 O934 1.240 . S
C927 O935 1.252 . S
C928 O931 1.252 . S
C928 O932 1.260 . S
O929 In923 2.266 . S
O929 C926 1.252 . S
O930 In923 2.326 . S
O930 C926 1.260 . S
O931 In923 2.266 . S
O931 C928 1.252 . S
O932 In923 2.326 . S
O932 C928 1.260 . S
C933 O924 1.240 . S
C933 O925 1.252 . S
O934 In923 2.294 . S
O934 C927 1.240 . S
O935 In923 2.326 . S
O935 C927 1.252 . S
In936 O937 2.294 . S
In936 O938 2.326 . S
In936 O942 2.266 . S
In936 O943 2.326 . S
In936 O944 2.266 . S
In936 O945 2.326 . S
In936 O947 2.294 . S
In936 O948 2.326 . S
O937 In936 2.294 . S
O937 C946 1.240 . S
O938 In936 2.326 . S
O938 C946 1.252 . S
C939 O942 1.252 . S
C939 O943 1.260 . S
C940 O947 1.240 . S
C940 O948 1.252 . S
C941 O944 1.252 . S
C941 O945 1.260 . S
O942 In936 2.266 . S
O942 C939 1.252 . S
O943 In936 2.326 . S
O943 C939 1.260 . S
O944 In936 2.266 . S
O944 C941 1.252 . S
O945 In936 2.326 . S
O945 C941 1.260 . S
C946 O937 1.240 . S
C946 O938 1.252 . S
O947 In936 2.294 . S
O947 C940 1.240 . S
O948 In936 2.326 . S
O948 C940 1.252 . S
In949 O950 2.294 . S
In949 O951 2.326 . S
In949 O955 2.266 . S
In949 O956 2.326 . S
In949 O957 2.266 . S
In949 O958 2.326 . S
In949 O960 2.294 . S
In949 O961 2.326 . S
O950 In949 2.294 . S
O950 C959 1.240 . S
O951 In949 2.326 . S
O951 C959 1.252 . S
C952 O955 1.252 . S
C952 O956 1.260 . S
C953 O960 1.240 . S
C953 O961 1.252 . S
C954 O957 1.252 . S
C954 O958 1.260 . S
O955 In949 2.266 . S
O955 C952 1.252 . S
O956 In949 2.326 . S
O956 C952 1.260 . S
O957 In949 2.266 . S
O957 C954 1.252 . S
O958 In949 2.326 . S
O958 C954 1.260 . S
C959 O950 1.240 . S
C959 O951 1.252 . S
O960 In949 2.294 . S
O960 C953 1.240 . S
O961 In949 2.326 . S
O961 C953 1.252 . S
In962 O963 2.294 . S
In962 O964 2.326 . S
In962 O968 2.266 1_455 S
In962 O969 2.326 1_455 S
In962 O970 2.266 . S
In962 O971 2.326 1_455 S
In962 O973 2.294 . S
In962 O974 2.326 . S
O963 In962 2.294 . S
O963 C972 1.240 . S
O964 In962 2.326 . S
O964 C972 1.252 . S
C965 O968 1.252 . S
C965 O969 1.260 . S
C966 O973 1.240 . S
C966 O974 1.252 . S
C967 O970 1.252 1_655 S
C967 O971 1.260 . S
O968 In962 2.266 1_655 S
O968 C965 1.252 . S
O969 In962 2.326 1_655 S
O969 C965 1.260 . S
O970 In962 2.266 . S
O970 C967 1.252 1_455 S
O971 In962 2.326 1_655 S
O971 C967 1.260 . S
C972 O963 1.240 . S
C972 O964 1.252 . S
O973 In962 2.294 . S
O973 C966 1.240 . S
O974 In962 2.326 . S
O974 C966 1.252 . S
In975 O976 2.294 . S
In975 O977 2.326 . S
In975 O981 2.266 . S
In975 O982 2.326 . S
In975 O983 2.266 . S
In975 O984 2.326 . S
In975 O986 2.294 . S
In975 O987 2.326 . S
O976 In975 2.294 . S
O976 C985 1.240 . S
O977 In975 2.326 . S
O977 C985 1.252 . S
C978 O981 1.252 . S
C978 O982 1.260 . S
C979 O986 1.240 . S
C979 O987 1.252 . S
C980 O983 1.252 . S
C980 O984 1.260 . S
O981 In975 2.266 . S
O981 C978 1.252 . S
O982 In975 2.326 . S
O982 C978 1.260 . S
O983 In975 2.266 . S
O983 C980 1.252 . S
O984 In975 2.326 . S
O984 C980 1.260 . S
C985 O976 1.240 . S
C985 O977 1.252 . S
O986 In975 2.294 . S
O986 C979 1.240 . S
O987 In975 2.326 . S
O987 C979 1.252 . S
In988 O989 2.294 . S
In988 O990 2.326 . S
In988 O994 2.266 . S
In988 O995 2.326 . S
In988 O996 2.266 . S
In988 O997 2.326 . S
In988 O999 2.294 . S
In988 O1000 2.326 . S
O989 In988 2.294 . S
O989 C998 1.240 . S
O990 In988 2.326 . S
O990 C998 1.252 . S
C991 O994 1.252 . S
C991 O995 1.260 . S
C992 O999 1.240 . S
C992 O1000 1.252 . S
C993 O996 1.252 . S
C993 O997 1.260 . S
O994 In988 2.266 . S
O994 C991 1.252 . S
O995 In988 2.326 . S
O995 C991 1.260 . S
O996 In988 2.266 . S
O996 C993 1.252 . S
O997 In988 2.326 . S
O997 C993 1.260 . S
C998 O989 1.240 . S
C998 O990 1.252 . S
O999 In988 2.294 . S
O999 C992 1.240 . S
O1000 In988 2.326 . S
O1000 C992 1.252 . S
In1001 O1002 2.294 . S
In1001 O1003 2.326 . S
In1001 O1007 2.266 . S
In1001 O1008 2.326 . S
In1001 O1009 2.266 . S
In1001 O1010 2.326 . S
In1001 O1012 2.294 . S
In1001 O1013 2.326 . S
O1002 In1001 2.294 . S
O1002 C1011 1.240 . S
O1003 In1001 2.326 . S
O1003 C1011 1.252 . S
C1004 O1007 1.252 . S
C1004 O1008 1.260 . S
C1005 O1012 1.240 . S
C1005 O1013 1.252 . S
C1006 O1009 1.252 . S
C1006 O1010 1.260 . S
O1007 In1001 2.266 . S
O1007 C1004 1.252 . S
O1008 In1001 2.326 . S
O1008 C1004 1.260 . S
O1009 In1001 2.266 . S
O1009 C1006 1.252 . S
O1010 In1001 2.326 . S
O1010 C1006 1.260 . S
C1011 O1002 1.240 . S
C1011 O1003 1.252 . S
O1012 In1001 2.294 . S
O1012 C1005 1.240 . S
O1013 In1001 2.326 . S
O1013 C1005 1.252 . S
In1014 O1015 2.294 . S
In1014 O1016 2.326 . S
In1014 O1020 2.266 . S
In1014 O1021 2.326 1_455 S
In1014 O1022 2.266 1_455 S
In1014 O1023 2.326 1_455 S
In1014 O1025 2.294 . S
In1014 O1026 2.326 . S
O1015 In1014 2.294 . S
O1015 C1024 1.240 . S
O1016 In1014 2.326 . S
O1016 C1024 1.252 . S
C1017 O1020 1.252 1_655 S
C1017 O1021 1.260 . S
C1018 O1025 1.240 . S
C1018 O1026 1.252 . S
C1019 O1022 1.252 . S
C1019 O1023 1.260 . S
O1020 In1014 2.266 . S
O1020 C1017 1.252 1_455 S
O1021 In1014 2.326 1_655 S
O1021 C1017 1.260 . S
O1022 In1014 2.266 1_655 S
O1022 C1019 1.252 . S
O1023 In1014 2.326 1_655 S
O1023 C1019 1.260 . S
C1024 O1015 1.240 . S
C1024 O1016 1.252 . S
O1025 In1014 2.294 . S
O1025 C1018 1.240 . S
O1026 In1014 2.326 . S
O1026 C1018 1.252 . S
In1027 O1028 2.294 . S
In1027 O1029 2.326 . S
In1027 O1033 2.266 . S
In1027 O1034 2.326 . S
In1027 O1035 2.266 . S
In1027 O1036 2.326 . S
In1027 O1038 2.294 . S
In1027 O1039 2.326 . S
O1028 In1027 2.294 . S
O1028 C1037 1.240 . S
O1029 In1027 2.326 . S
O1029 C1037 1.252 . S
C1030 O1033 1.252 . S
C1030 O1034 1.260 . S
C1031 O1038 1.240 . S
C1031 O1039 1.252 . S
C1032 O1035 1.252 . S
C1032 O1036 1.260 . S
O1033 In1027 2.266 . S
O1033 C1030 1.252 . S
O1034 In1027 2.326 . S
O1034 C1030 1.260 . S
O1035 In1027 2.266 . S
O1035 C1032 1.252 . S
O1036 In1027 2.326 . S
O1036 C1032 1.260 . S
C1037 O1028 1.240 . S
C1037 O1029 1.252 . S
O1038 In1027 2.294 . S
O1038 C1031 1.240 . S
O1039 In1027 2.326 . S
O1039 C1031 1.252 . S
In1040 O1041 2.294 . S
In1040 O1042 2.326 . S
In1040 O1046 2.266 . S
In1040 O1047 2.326 . S
In1040 O1048 2.266 . S
In1040 O1049 2.326 . S
In1040 O1051 2.294 . S
In1040 O1052 2.326 . S
O1041 In1040 2.294 . S
O1041 C1050 1.240 . S
O1042 In1040 2.326 . S
O1042 C1050 1.252 . S
C1043 O1046 1.252 . S
C1043 O1047 1.260 . S
C1044 O1051 1.240 . S
C1044 O1052 1.252 . S
C1045 O1048 1.252 . S
C1045 O1049 1.260 . S
O1046 In1040 2.266 . S
O1046 C1043 1.252 . S
O1047 In1040 2.326 . S
O1047 C1043 1.260 . S
O1048 In1040 2.266 . S
O1048 C1045 1.252 . S
O1049 In1040 2.326 . S
O1049 C1045 1.260 . S
C1050 O1041 1.240 . S
C1050 O1042 1.252 . S
O1051 In1040 2.294 . S
O1051 C1044 1.240 . S
O1052 In1040 2.326 . S
O1052 C1044 1.252 . S
In1053 O1054 2.294 . S
In1053 O1055 2.326 . S
In1053 O1059 2.266 . S
In1053 O1060 2.326 . S
In1053 O1061 2.266 . S
In1053 O1062 2.326 . S
In1053 O1064 2.294 . S
In1053 O1065 2.326 . S
O1054 In1053 2.294 . S
O1054 C1063 1.240 . S
O1055 In1053 2.326 . S
O1055 C1063 1.252 . S
C1056 O1059 1.252 . S
C1056 O1060 1.260 . S
C1057 O1064 1.240 . S
C1057 O1065 1.252 . S
C1058 O1061 1.252 . S
C1058 O1062 1.260 . S
O1059 In1053 2.266 . S
O1059 C1056 1.252 . S
O1060 In1053 2.326 . S
O1060 C1056 1.260 . S
O1061 In1053 2.266 . S
O1061 C1058 1.252 . S
O1062 In1053 2.326 . S
O1062 C1058 1.260 . S
C1063 O1054 1.240 . S
C1063 O1055 1.252 . S
O1064 In1053 2.294 . S
O1064 C1057 1.240 . S
O1065 In1053 2.326 . S
O1065 C1057 1.252 . S
In1066 O1067 2.294 . S
In1066 O1068 2.326 . S
In1066 O1072 2.266 . S
In1066 O1073 2.326 . S
In1066 O1074 2.266 . S
In1066 O1075 2.326 . S
In1066 O1077 2.294 . S
In1066 O1078 2.326 . S
O1067 In1066 2.294 . S
O1067 C1076 1.240 . S
O1068 In1066 2.326 . S
O1068 C1076 1.252 . S
C1069 O1072 1.252 . S
C1069 O1073 1.260 . S
C1070 O1077 1.240 . S
C1070 O1078 1.252 . S
C1071 O1074 1.252 . S
C1071 O1075 1.260 . S
O1072 In1066 2.266 . S
O1072 C1069 1.252 . S
O1073 In1066 2.326 . S
O1073 C1069 1.260 . S
O1074 In1066 2.266 . S
O1074 C1071 1.252 . S
O1075 In1066 2.326 . S
O1075 C1071 1.260 . S
C1076 O1067 1.240 . S
C1076 O1068 1.252 . S
O1077 In1066 2.294 . S
O1077 C1070 1.240 . S
O1078 In1066 2.326 . S
O1078 C1070 1.252 . S
In1079 O1080 2.294 . S
In1079 O1081 2.326 . S
In1079 O1085 2.266 . S
In1079 O1086 2.326 . S
In1079 O1087 2.266 . S
In1079 O1088 2.326 . S
In1079 O1090 2.294 . S
In1079 O1091 2.326 . S
O1080 In1079 2.294 . S
O1080 C1089 1.240 . S
O1081 In1079 2.326 . S
O1081 C1089 1.252 . S
C1082 O1085 1.252 . S
C1082 O1086 1.260 . S
C1083 O1090 1.240 . S
C1083 O1091 1.252 . S
C1084 O1087 1.252 . S
C1084 O1088 1.260 . S
O1085 In1079 2.266 . S
O1085 C1082 1.252 . S
O1086 In1079 2.326 . S
O1086 C1082 1.260 . S
O1087 In1079 2.266 . S
O1087 C1084 1.252 . S
O1088 In1079 2.326 . S
O1088 C1084 1.260 . S
C1089 O1080 1.240 . S
C1089 O1081 1.252 . S
O1090 In1079 2.294 . S
O1090 C1083 1.240 . S
O1091 In1079 2.326 . S
O1091 C1083 1.252 . S
In1092 O1093 2.294 . S
In1092 O1094 2.326 . S
In1092 O1098 2.266 . S
In1092 O1099 2.326 . S
In1092 O1100 2.266 . S
In1092 O1101 2.326 . S
In1092 O1103 2.294 . S
In1092 O1104 2.326 . S
O1093 In1092 2.294 . S
O1093 C1102 1.240 . S
O1094 In1092 2.326 . S
O1094 C1102 1.252 . S
C1095 O1098 1.252 . S
C1095 O1099 1.260 . S
C1096 O1103 1.240 . S
C1096 O1104 1.252 . S
C1097 O1100 1.252 . S
C1097 O1101 1.260 . S
O1098 In1092 2.266 . S
O1098 C1095 1.252 . S
O1099 In1092 2.326 . S
O1099 C1095 1.260 . S
O1100 In1092 2.266 . S
O1100 C1097 1.252 . S
O1101 In1092 2.326 . S
O1101 C1097 1.260 . S
C1102 O1093 1.240 . S
C1102 O1094 1.252 . S
O1103 In1092 2.294 . S
O1103 C1096 1.240 . S
O1104 In1092 2.326 . S
O1104 C1096 1.252 . S
In1105 O1106 2.294 . S
In1105 O1107 2.326 . S
In1105 O1111 2.266 . S
In1105 O1112 2.326 . S
In1105 O1113 2.266 . S
In1105 O1114 2.326 . S
In1105 O1116 2.294 . S
In1105 O1117 2.326 . S
O1106 In1105 2.294 . S
O1106 C1115 1.240 . S
O1107 In1105 2.326 . S
O1107 C1115 1.252 . S
C1108 O1111 1.252 . S
C1108 O1112 1.260 . S
C1109 O1116 1.240 . S
C1109 O1117 1.252 . S
C1110 O1113 1.252 . S
C1110 O1114 1.260 . S
O1111 In1105 2.266 . S
O1111 C1108 1.252 . S
O1112 In1105 2.326 . S
O1112 C1108 1.260 . S
O1113 In1105 2.266 . S
O1113 C1110 1.252 . S
O1114 In1105 2.326 . S
O1114 C1110 1.260 . S
C1115 O1106 1.240 . S
C1115 O1107 1.252 . S
O1116 In1105 2.294 . S
O1116 C1109 1.240 . S
O1117 In1105 2.326 . S
O1117 C1109 1.252 . S
In1118 O1119 2.294 . S
In1118 O1120 2.326 . S
In1118 O1124 2.266 . S
In1118 O1125 2.326 . S
In1118 O1126 2.266 . S
In1118 O1127 2.326 . S
In1118 O1129 2.294 . S
In1118 O1130 2.326 . S
O1119 In1118 2.294 . S
O1119 C1128 1.240 . S
O1120 In1118 2.326 . S
O1120 C1128 1.252 . S
C1121 O1124 1.252 . S
C1121 O1125 1.260 . S
C1122 O1129 1.240 . S
C1122 O1130 1.252 . S
C1123 O1126 1.252 . S
C1123 O1127 1.260 . S
O1124 In1118 2.266 . S
O1124 C1121 1.252 . S
O1125 In1118 2.326 . S
O1125 C1121 1.260 . S
O1126 In1118 2.266 . S
O1126 C1123 1.252 . S
O1127 In1118 2.326 . S
O1127 C1123 1.260 . S
C1128 O1119 1.240 . S
C1128 O1120 1.252 . S
O1129 In1118 2.294 . S
O1129 C1122 1.240 . S
O1130 In1118 2.326 . S
O1130 C1122 1.252 . S
In1131 O1132 2.294 . S
In1131 O1133 2.326 . S
In1131 O1137 2.266 . S
In1131 O1138 2.326 . S
In1131 O1139 2.266 . S
In1131 O1140 2.326 . S
In1131 O1142 2.294 . S
In1131 O1143 2.326 . S
O1132 In1131 2.294 . S
O1132 C1141 1.240 . S
O1133 In1131 2.326 . S
O1133 C1141 1.252 . S
C1134 O1137 1.252 . S
C1134 O1138 1.260 . S
C1135 O1142 1.240 . S
C1135 O1143 1.252 . S
C1136 O1139 1.252 . S
C1136 O1140 1.260 . S
O1137 In1131 2.266 . S
O1137 C1134 1.252 . S
O1138 In1131 2.326 . S
O1138 C1134 1.260 . S
O1139 In1131 2.266 . S
O1139 C1136 1.252 . S
O1140 In1131 2.326 . S
O1140 C1136 1.260 . S
C1141 O1132 1.240 . S
C1141 O1133 1.252 . S
O1142 In1131 2.294 . S
O1142 C1135 1.240 . S
O1143 In1131 2.326 . S
O1143 C1135 1.252 . S
In1144 O1145 2.294 . S
In1144 O1146 2.326 . S
In1144 O1150 2.266 . S
In1144 O1151 2.326 . S
In1144 O1152 2.266 . S
In1144 O1153 2.326 . S
In1144 O1155 2.294 . S
In1144 O1156 2.326 . S
O1145 In1144 2.294 . S
O1145 C1154 1.240 . S
O1146 In1144 2.326 . S
O1146 C1154 1.252 . S
C1147 O1150 1.252 . S
C1147 O1151 1.260 . S
C1148 O1155 1.240 . S
C1148 O1156 1.252 . S
C1149 O1152 1.252 . S
C1149 O1153 1.260 . S
O1150 In1144 2.266 . S
O1150 C1147 1.252 . S
O1151 In1144 2.326 . S
O1151 C1147 1.260 . S
O1152 In1144 2.266 . S
O1152 C1149 1.252 . S
O1153 In1144 2.326 . S
O1153 C1149 1.260 . S
C1154 O1145 1.240 . S
C1154 O1146 1.252 . S
O1155 In1144 2.294 . S
O1155 C1148 1.240 . S
O1156 In1144 2.326 . S
O1156 C1148 1.252 . S
In1157 O1158 2.294 . S
In1157 O1159 2.326 . S
In1157 O1163 2.266 . S
In1157 O1164 2.326 . S
In1157 O1165 2.266 . S
In1157 O1166 2.326 . S
In1157 O1168 2.294 . S
In1157 O1169 2.326 . S
O1158 In1157 2.294 . S
O1158 C1167 1.240 . S
O1159 In1157 2.326 . S
O1159 C1167 1.252 . S
C1160 O1163 1.252 . S
C1160 O1164 1.260 . S
C1161 O1168 1.240 . S
C1161 O1169 1.252 . S
C1162 O1165 1.252 . S
C1162 O1166 1.260 . S
O1163 In1157 2.266 . S
O1163 C1160 1.252 . S
O1164 In1157 2.326 . S
O1164 C1160 1.260 . S
O1165 In1157 2.266 . S
O1165 C1162 1.252 . S
O1166 In1157 2.326 . S
O1166 C1162 1.260 . S
C1167 O1158 1.240 . S
C1167 O1159 1.252 . S
O1168 In1157 2.294 . S
O1168 C1161 1.240 . S
O1169 In1157 2.326 . S
O1169 C1161 1.252 . S
In1170 O1171 2.294 . S
In1170 O1172 2.326 . S
In1170 O1176 2.266 . S
In1170 O1177 2.326 . S
In1170 O1178 2.266 . S
In1170 O1179 2.326 . S
In1170 O1181 2.294 . S
In1170 O1182 2.326 . S
O1171 In1170 2.294 . S
O1171 C1180 1.240 . S
O1172 In1170 2.326 . S
O1172 C1180 1.252 . S
C1173 O1176 1.252 . S
C1173 O1177 1.260 . S
C1174 O1181 1.240 . S
C1174 O1182 1.252 . S
C1175 O1178 1.252 . S
C1175 O1179 1.260 . S
O1176 In1170 2.266 . S
O1176 C1173 1.252 . S
O1177 In1170 2.326 . S
O1177 C1173 1.260 . S
O1178 In1170 2.266 . S
O1178 C1175 1.252 . S
O1179 In1170 2.326 . S
O1179 C1175 1.260 . S
C1180 O1171 1.240 . S
C1180 O1172 1.252 . S
O1181 In1170 2.294 . S
O1181 C1174 1.240 . S
O1182 In1170 2.326 . S
O1182 C1174 1.252 . S
In1183 O1184 2.294 . S
In1183 O1185 2.326 . S
In1183 O1189 2.266 . S
In1183 O1190 2.326 1_554 S
In1183 O1191 2.266 1_554 S
In1183 O1192 2.326 1_554 S
In1183 O1194 2.294 . S
In1183 O1195 2.326 . S
O1184 In1183 2.294 . S
O1184 C1193 1.240 . S
O1185 In1183 2.326 . S
O1185 C1193 1.252 . S
C1186 O1189 1.252 1_556 S
C1186 O1190 1.260 . S
C1187 O1194 1.240 . S
C1187 O1195 1.252 . S
C1188 O1191 1.252 . S
C1188 O1192 1.260 . S
O1189 In1183 2.266 . S
O1189 C1186 1.252 1_554 S
O1190 In1183 2.326 1_556 S
O1190 C1186 1.260 . S
O1191 In1183 2.266 1_556 S
O1191 C1188 1.252 . S
O1192 In1183 2.326 1_556 S
O1192 C1188 1.260 . S
C1193 O1184 1.240 . S
C1193 O1185 1.252 . S
O1194 In1183 2.294 . S
O1194 C1187 1.240 . S
O1195 In1183 2.326 . S
O1195 C1187 1.252 . S
In1196 O1197 2.294 . S
In1196 O1198 2.326 . S
In1196 O1202 2.266 . S
In1196 O1203 2.326 . S
In1196 O1204 2.266 . S
In1196 O1205 2.326 . S
In1196 O1207 2.294 . S
In1196 O1208 2.326 . S
O1197 In1196 2.294 . S
O1197 C1206 1.240 . S
O1198 In1196 2.326 . S
O1198 C1206 1.252 . S
C1199 O1202 1.252 . S
C1199 O1203 1.260 . S
C1200 O1207 1.240 . S
C1200 O1208 1.252 . S
C1201 O1204 1.252 . S
C1201 O1205 1.260 . S
O1202 In1196 2.266 . S
O1202 C1199 1.252 . S
O1203 In1196 2.326 . S
O1203 C1199 1.260 . S
O1204 In1196 2.266 . S
O1204 C1201 1.252 . S
O1205 In1196 2.326 . S
O1205 C1201 1.260 . S
C1206 O1197 1.240 . S
C1206 O1198 1.252 . S
O1207 In1196 2.294 . S
O1207 C1200 1.240 . S
O1208 In1196 2.326 . S
O1208 C1200 1.252 . S
In1209 O1210 2.294 . S
In1209 O1211 2.326 . S
In1209 O1215 2.266 . S
In1209 O1216 2.326 1_556 S
In1209 O1217 2.266 1_556 S
In1209 O1218 2.326 1_556 S
In1209 O1220 2.294 . S
In1209 O1221 2.326 . S
O1210 In1209 2.294 . S
O1210 C1219 1.240 . S
O1211 In1209 2.326 . S
O1211 C1219 1.252 . S
C1212 O1215 1.252 1_554 S
C1212 O1216 1.260 . S
C1213 O1220 1.240 . S
C1213 O1221 1.252 . S
C1214 O1217 1.252 . S
C1214 O1218 1.260 . S
O1215 In1209 2.266 . S
O1215 C1212 1.252 1_556 S
O1216 In1209 2.326 1_554 S
O1216 C1212 1.260 . S
O1217 In1209 2.266 1_554 S
O1217 C1214 1.252 . S
O1218 In1209 2.326 1_554 S
O1218 C1214 1.260 . S
C1219 O1210 1.240 . S
C1219 O1211 1.252 . S
O1220 In1209 2.294 . S
O1220 C1213 1.240 . S
O1221 In1209 2.326 . S
O1221 C1213 1.252 . S
In1222 O1223 2.294 . S
In1222 O1224 2.326 . S
In1222 O1228 2.266 . S
In1222 O1229 2.326 . S
In1222 O1230 2.266 . S
In1222 O1231 2.326 . S
In1222 O1233 2.294 . S
In1222 O1234 2.326 . S
O1223 In1222 2.294 . S
O1223 C1232 1.240 . S
O1224 In1222 2.326 . S
O1224 C1232 1.252 . S
C1225 O1228 1.252 . S
C1225 O1229 1.260 . S
C1226 O1233 1.240 . S
C1226 O1234 1.252 . S
C1227 O1230 1.252 . S
C1227 O1231 1.260 . S
O1228 In1222 2.266 . S
O1228 C1225 1.252 . S
O1229 In1222 2.326 . S
O1229 C1225 1.260 . S
O1230 In1222 2.266 . S
O1230 C1227 1.252 . S
O1231 In1222 2.326 . S
O1231 C1227 1.260 . S
C1232 O1223 1.240 . S
C1232 O1224 1.252 . S
O1233 In1222 2.294 . S
O1233 C1226 1.240 . S
O1234 In1222 2.326 . S
O1234 C1226 1.252 . S
In1235 O1236 2.294 . S
In1235 O1237 2.326 . S
In1235 O1241 2.266 . S
In1235 O1242 2.326 . S
In1235 O1243 2.266 . S
In1235 O1244 2.326 . S
In1235 O1246 2.294 . S
In1235 O1247 2.326 . S
O1236 In1235 2.294 . S
O1236 C1245 1.240 . S
O1237 In1235 2.326 . S
O1237 C1245 1.252 . S
C1238 O1241 1.252 . S
C1238 O1242 1.260 . S
C1239 O1246 1.240 . S
C1239 O1247 1.252 . S
C1240 O1243 1.252 . S
C1240 O1244 1.260 . S
O1241 In1235 2.266 . S
O1241 C1238 1.252 . S
O1242 In1235 2.326 . S
O1242 C1238 1.260 . S
O1243 In1235 2.266 . S
O1243 C1240 1.252 . S
O1244 In1235 2.326 . S
O1244 C1240 1.260 . S
C1245 O1236 1.240 . S
C1245 O1237 1.252 . S
O1246 In1235 2.294 . S
O1246 C1239 1.240 . S
O1247 In1235 2.326 . S
O1247 C1239 1.252 . S
C1248 C1249 1.369 . S
C1248 C1250 1.419 . S
C1248 H1252 0.930 . S
C1249 C1248 1.369 . S
C1249 C1258 1.429 . S
C1250 C1248 1.419 . S
C1250 C1251 1.363 . S
C1250 H1253 0.929 . S
C1251 C1250 1.363 . S
C1251 C1257 1.428 . S
H1252 C1248 0.930 . S
H1253 C1250 0.929 . S
S1254 N1255 1.613 . S
S1254 N1256 1.610 . S
N1255 S1254 1.613 . S
N1255 C1258 1.350 . S
N1256 S1254 1.610 . S
N1256 C1257 1.351 . S
C1257 C1251 1.428 . S
C1257 N1256 1.351 . S
C1257 C1258 1.434 . S
C1258 C1249 1.429 . S
C1258 N1255 1.350 . S
C1258 C1257 1.434 . S
C1259 C1260 1.369 . S
C1259 C1261 1.419 . S
C1259 H1263 0.930 . S
C1260 C1259 1.369 . S
C1260 C1269 1.429 . S
C1261 C1259 1.419 . S
C1261 C1262 1.363 . S
C1261 H1264 0.929 . S
C1262 C1261 1.363 . S
C1262 C1268 1.428 . S
H1263 C1259 0.930 . S
H1264 C1261 0.929 . S
S1265 N1266 1.613 . S
S1265 N1267 1.610 . S
N1266 S1265 1.613 . S
N1266 C1269 1.350 . S
N1267 S1265 1.610 . S
N1267 C1268 1.351 . S
C1268 C1262 1.428 . S
C1268 N1267 1.351 . S
C1268 C1269 1.434 . S
C1269 C1260 1.429 . S
C1269 N1266 1.350 . S
C1269 C1268 1.434 . S
C1270 C1271 1.369 . S
C1270 C1272 1.419 . S
C1270 H1274 0.930 . S
C1271 C1270 1.369 . S
C1271 C1280 1.429 . S
C1272 C1270 1.419 . S
C1272 C1273 1.363 . S
C1272 H1275 0.929 . S
C1273 C1272 1.363 . S
C1273 C1279 1.428 . S
H1274 C1270 0.930 . S
H1275 C1272 0.929 . S
S1276 N1277 1.613 . S
S1276 N1278 1.610 . S
N1277 S1276 1.613 . S
N1277 C1280 1.350 . S
N1278 S1276 1.610 . S
N1278 C1279 1.351 . S
C1279 C1273 1.428 . S
C1279 N1278 1.351 . S
C1279 C1280 1.434 . S
C1280 C1271 1.429 . S
C1280 N1277 1.350 . S
C1280 C1279 1.434 . S
C1281 C1282 1.369 . S
C1281 C1283 1.419 . S
C1281 H1285 0.930 . S
C1282 C1281 1.369 . S
C1282 C1291 1.429 . S
C1283 C1281 1.419 . S
C1283 C1284 1.363 . S
C1283 H1286 0.929 . S
C1284 C1283 1.363 . S
C1284 C1290 1.428 . S
H1285 C1281 0.930 . S
H1286 C1283 0.929 . S
S1287 N1288 1.613 . S
S1287 N1289 1.610 . S
N1288 S1287 1.613 . S
N1288 C1291 1.350 . S
N1289 S1287 1.610 . S
N1289 C1290 1.351 . S
C1290 C1284 1.428 . S
C1290 N1289 1.351 . S
C1290 C1291 1.434 . S
C1291 C1282 1.429 . S
C1291 N1288 1.350 . S
C1291 C1290 1.434 . S
C1292 C1293 1.369 . S
C1292 C1294 1.419 . S
C1292 H1296 0.930 . S
C1293 C1292 1.369 . S
C1293 C1302 1.429 . S
C1294 C1292 1.419 . S
C1294 C1295 1.363 . S
C1294 H1297 0.929 . S
C1295 C1294 1.363 . S
C1295 C1301 1.428 . S
H1296 C1292 0.930 . S
H1297 C1294 0.929 . S
S1298 N1299 1.613 . S
S1298 N1300 1.610 . S
N1299 S1298 1.613 . S
N1299 C1302 1.350 . S
N1300 S1298 1.610 . S
N1300 C1301 1.351 . S
C1301 C1295 1.428 . S
C1301 N1300 1.351 . S
C1301 C1302 1.434 . S
C1302 C1293 1.429 . S
C1302 N1299 1.350 . S
C1302 C1301 1.434 . S
C1303 C1304 1.369 . S
C1303 C1305 1.419 . S
C1303 H1307 0.930 . S
C1304 C1303 1.369 . S
C1304 C1313 1.429 . S
C1305 C1303 1.419 . S
C1305 C1306 1.363 . S
C1305 H1308 0.929 . S
C1306 C1305 1.363 . S
C1306 C1312 1.428 . S
H1307 C1303 0.930 . S
H1308 C1305 0.929 . S
S1309 N1310 1.613 . S
S1309 N1311 1.610 . S
N1310 S1309 1.613 . S
N1310 C1313 1.350 . S
N1311 S1309 1.610 . S
N1311 C1312 1.351 . S
C1312 C1306 1.428 . S
C1312 N1311 1.351 . S
C1312 C1313 1.434 . S
C1313 C1304 1.429 . S
C1313 N1310 1.350 . S
C1313 C1312 1.434 . S
C1314 C1315 1.369 . S
C1314 C1316 1.419 . S
C1314 H1318 0.930 . S
C1315 C1314 1.369 . S
C1315 C1324 1.429 . S
C1316 C1314 1.419 . S
C1316 C1317 1.363 . S
C1316 H1319 0.929 . S
C1317 C1316 1.363 . S
C1317 C1323 1.428 . S
H1318 C1314 0.930 . S
H1319 C1316 0.929 . S
S1320 N1321 1.613 . S
S1320 N1322 1.610 . S
N1321 S1320 1.613 . S
N1321 C1324 1.350 . S
N1322 S1320 1.610 . S
N1322 C1323 1.351 . S
C1323 C1317 1.428 . S
C1323 N1322 1.351 . S
C1323 C1324 1.434 . S
C1324 C1315 1.429 . S
C1324 N1321 1.350 . S
C1324 C1323 1.434 . S
C1325 C1326 1.369 . S
C1325 C1327 1.419 . S
C1325 H1329 0.930 . S
C1326 C1325 1.369 . S
C1326 C1335 1.429 . S
C1327 C1325 1.419 . S
C1327 C1328 1.363 . S
C1327 H1330 0.929 . S
C1328 C1327 1.363 . S
C1328 C1334 1.428 . S
H1329 C1325 0.930 . S
H1330 C1327 0.929 . S
S1331 N1332 1.613 . S
S1331 N1333 1.610 . S
N1332 S1331 1.613 . S
N1332 C1335 1.350 . S
N1333 S1331 1.610 . S
N1333 C1334 1.351 . S
C1334 C1328 1.428 . S
C1334 N1333 1.351 . S
C1334 C1335 1.434 . S
C1335 C1326 1.429 . S
C1335 N1332 1.350 . S
C1335 C1334 1.434 . S
C1336 C1337 1.369 . S
C1336 C1338 1.419 . S
C1336 H1340 0.930 . S
C1337 C1336 1.369 . S
C1337 C1346 1.429 . S
C1338 C1336 1.419 . S
C1338 C1339 1.363 . S
C1338 H1341 0.929 . S
C1339 C1338 1.363 . S
C1339 C1345 1.428 . S
H1340 C1336 0.930 . S
H1341 C1338 0.929 . S
S1342 N1343 1.613 . S
S1342 N1344 1.610 . S
N1343 S1342 1.613 . S
N1343 C1346 1.350 . S
N1344 S1342 1.610 . S
N1344 C1345 1.351 . S
C1345 C1339 1.428 . S
C1345 N1344 1.351 . S
C1345 C1346 1.434 . S
C1346 C1337 1.429 . S
C1346 N1343 1.350 . S
C1346 C1345 1.434 . S
C1347 C1348 1.369 . S
C1347 C1349 1.419 . S
C1347 H1351 0.930 . S
C1348 C1347 1.369 . S
C1348 C1357 1.429 . S
C1349 C1347 1.419 . S
C1349 C1350 1.363 . S
C1349 H1352 0.929 . S
C1350 C1349 1.363 . S
C1350 C1356 1.428 . S
H1351 C1347 0.930 . S
H1352 C1349 0.929 . S
S1353 N1354 1.613 . S
S1353 N1355 1.610 . S
N1354 S1353 1.613 . S
N1354 C1357 1.350 . S
N1355 S1353 1.610 . S
N1355 C1356 1.351 . S
C1356 C1350 1.428 . S
C1356 N1355 1.351 . S
C1356 C1357 1.434 . S
C1357 C1348 1.429 . S
C1357 N1354 1.350 . S
C1357 C1356 1.434 . S
C1358 C1359 1.369 . S
C1358 C1360 1.419 . S
C1358 H1362 0.930 . S
C1359 C1358 1.369 . S
C1359 C1368 1.429 . S
C1360 C1358 1.419 . S
C1360 C1361 1.363 . S
C1360 H1363 0.929 . S
C1361 C1360 1.363 . S
C1361 C1367 1.428 . S
H1362 C1358 0.930 . S
H1363 C1360 0.929 . S
S1364 N1365 1.613 . S
S1364 N1366 1.610 . S
N1365 S1364 1.613 . S
N1365 C1368 1.350 . S
N1366 S1364 1.610 . S
N1366 C1367 1.351 . S
C1367 C1361 1.428 . S
C1367 N1366 1.351 . S
C1367 C1368 1.434 . S
C1368 C1359 1.429 . S
C1368 N1365 1.350 . S
C1368 C1367 1.434 . S
C1369 C1370 1.369 . S
C1369 C1371 1.419 . S
C1369 H1373 0.930 . S
C1370 C1369 1.369 . S
C1370 C1379 1.429 . S
C1371 C1369 1.419 . S
C1371 C1372 1.363 . S
C1371 H1374 0.929 . S
C1372 C1371 1.363 . S
C1372 C1378 1.428 . S
H1373 C1369 0.930 . S
H1374 C1371 0.929 . S
S1375 N1376 1.613 . S
S1375 N1377 1.610 . S
N1376 S1375 1.613 . S
N1376 C1379 1.350 . S
N1377 S1375 1.610 . S
N1377 C1378 1.351 . S
C1378 C1372 1.428 . S
C1378 N1377 1.351 . S
C1378 C1379 1.434 . S
C1379 C1370 1.429 . S
C1379 N1376 1.350 . S
C1379 C1378 1.434 . S
C1380 C1381 1.369 . S
C1380 C1382 1.419 . S
C1380 H1384 0.930 . S
C1381 C1380 1.369 . S
C1381 C1390 1.429 . S
C1382 C1380 1.419 . S
C1382 C1383 1.363 . S
C1382 H1385 0.929 . S
C1383 C1382 1.363 . S
C1383 C1389 1.428 . S
H1384 C1380 0.930 . S
H1385 C1382 0.929 . S
S1386 N1387 1.613 . S
S1386 N1388 1.610 . S
N1387 S1386 1.613 . S
N1387 C1390 1.350 . S
N1388 S1386 1.610 . S
N1388 C1389 1.351 . S
C1389 C1383 1.428 . S
C1389 N1388 1.351 . S
C1389 C1390 1.434 . S
C1390 C1381 1.429 . S
C1390 N1387 1.350 . S
C1390 C1389 1.434 . S
C1391 C1392 1.369 . S
C1391 C1393 1.419 . S
C1391 H1395 0.930 . S
C1392 C1391 1.369 . S
C1392 C1401 1.429 . S
C1393 C1391 1.419 . S
C1393 C1394 1.363 . S
C1393 H1396 0.929 . S
C1394 C1393 1.363 . S
C1394 C1400 1.428 . S
H1395 C1391 0.930 . S
H1396 C1393 0.929 . S
S1397 N1398 1.613 . S
S1397 N1399 1.610 . S
N1398 S1397 1.613 . S
N1398 C1401 1.350 . S
N1399 S1397 1.610 . S
N1399 C1400 1.351 . S
C1400 C1394 1.428 . S
C1400 N1399 1.351 . S
C1400 C1401 1.434 . S
C1401 C1392 1.429 . S
C1401 N1398 1.350 . S
C1401 C1400 1.434 . S
C1402 C1403 1.369 . S
C1402 C1404 1.419 . S
C1402 H1406 0.930 . S
C1403 C1402 1.369 . S
C1403 C1412 1.429 . S
C1404 C1402 1.419 . S
C1404 C1405 1.363 . S
C1404 H1407 0.929 . S
C1405 C1404 1.363 . S
C1405 C1411 1.428 . S
H1406 C1402 0.930 . S
H1407 C1404 0.929 . S
S1408 N1409 1.613 . S
S1408 N1410 1.610 . S
N1409 S1408 1.613 . S
N1409 C1412 1.350 . S
N1410 S1408 1.610 . S
N1410 C1411 1.351 . S
C1411 C1405 1.428 . S
C1411 N1410 1.351 . S
C1411 C1412 1.434 . S
C1412 C1403 1.429 . S
C1412 N1409 1.350 . S
C1412 C1411 1.434 . S
C1413 C1414 1.369 . S
C1413 C1415 1.419 . S
C1413 H1417 0.930 . S
C1414 C1413 1.369 . S
C1414 C1423 1.429 . S
C1415 C1413 1.419 . S
C1415 C1416 1.363 . S
C1415 H1418 0.929 . S
C1416 C1415 1.363 . S
C1416 C1422 1.428 . S
H1417 C1413 0.930 . S
H1418 C1415 0.929 . S
S1419 N1420 1.613 . S
S1419 N1421 1.610 . S
N1420 S1419 1.613 . S
N1420 C1423 1.350 . S
N1421 S1419 1.610 . S
N1421 C1422 1.351 . S
C1422 C1416 1.428 . S
C1422 N1421 1.351 . S
C1422 C1423 1.434 . S
C1423 C1414 1.429 . S
C1423 N1420 1.350 . S
C1423 C1422 1.434 . S
C1424 C1425 1.369 . S
C1424 C1426 1.419 . S
C1424 H1428 0.930 . S
C1425 C1424 1.369 . S
C1425 C1434 1.429 . S
C1426 C1424 1.419 . S
C1426 C1427 1.363 . S
C1426 H1429 0.929 . S
C1427 C1426 1.363 . S
C1427 C1433 1.428 . S
H1428 C1424 0.930 . S
H1429 C1426 0.929 . S
S1430 N1431 1.613 . S
S1430 N1432 1.610 . S
N1431 S1430 1.613 . S
N1431 C1434 1.350 . S
N1432 S1430 1.610 . S
N1432 C1433 1.351 . S
C1433 C1427 1.428 . S
C1433 N1432 1.351 . S
C1433 C1434 1.434 . S
C1434 C1425 1.429 . S
C1434 N1431 1.350 . S
C1434 C1433 1.434 . S
C1435 C1436 1.369 . S
C1435 C1437 1.419 . S
C1435 H1439 0.930 . S
C1436 C1435 1.369 . S
C1436 C1445 1.429 . S
C1437 C1435 1.419 . S
C1437 C1438 1.363 . S
C1437 H1440 0.929 . S
C1438 C1437 1.363 . S
C1438 C1444 1.428 . S
H1439 C1435 0.930 . S
H1440 C1437 0.929 . S
S1441 N1442 1.613 . S
S1441 N1443 1.610 . S
N1442 S1441 1.613 . S
N1442 C1445 1.350 . S
N1443 S1441 1.610 . S
N1443 C1444 1.351 . S
C1444 C1438 1.428 . S
C1444 N1443 1.351 . S
C1444 C1445 1.434 . S
C1445 C1436 1.429 . S
C1445 N1442 1.350 . S
C1445 C1444 1.434 . S
C1446 C1447 1.369 . S
C1446 C1448 1.419 . S
C1446 H1450 0.930 . S
C1447 C1446 1.369 . S
C1447 C1456 1.429 . S
C1448 C1446 1.419 . S
C1448 C1449 1.363 . S
C1448 H1451 0.929 . S
C1449 C1448 1.363 . S
C1449 C1455 1.428 . S
H1450 C1446 0.930 . S
H1451 C1448 0.929 . S
S1452 N1453 1.613 . S
S1452 N1454 1.610 . S
N1453 S1452 1.613 . S
N1453 C1456 1.350 . S
N1454 S1452 1.610 . S
N1454 C1455 1.351 . S
C1455 C1449 1.428 . S
C1455 N1454 1.351 . S
C1455 C1456 1.434 . S
C1456 C1447 1.429 . S
C1456 N1453 1.350 . S
C1456 C1455 1.434 . S
C1457 C1458 1.369 . S
C1457 C1459 1.419 . S
C1457 H1461 0.930 . S
C1458 C1457 1.369 . S
C1458 C1467 1.429 . S
C1459 C1457 1.419 . S
C1459 C1460 1.363 . S
C1459 H1462 0.929 . S
C1460 C1459 1.363 . S
C1460 C1466 1.428 . S
H1461 C1457 0.930 . S
H1462 C1459 0.929 . S
S1463 N1464 1.613 . S
S1463 N1465 1.610 . S
N1464 S1463 1.613 . S
N1464 C1467 1.350 . S
N1465 S1463 1.610 . S
N1465 C1466 1.351 . S
C1466 C1460 1.428 . S
C1466 N1465 1.351 . S
C1466 C1467 1.434 . S
C1467 C1458 1.429 . S
C1467 N1464 1.350 . S
C1467 C1466 1.434 . S
C1468 C1469 1.369 . S
C1468 C1470 1.419 . S
C1468 H1472 0.930 . S
C1469 C1468 1.369 . S
C1469 C1478 1.429 . S
C1470 C1468 1.419 . S
C1470 C1471 1.363 . S
C1470 H1473 0.929 . S
C1471 C1470 1.363 . S
C1471 C1477 1.428 . S
H1472 C1468 0.930 . S
H1473 C1470 0.929 . S
S1474 N1475 1.613 . S
S1474 N1476 1.610 . S
N1475 S1474 1.613 . S
N1475 C1478 1.350 . S
N1476 S1474 1.610 . S
N1476 C1477 1.351 . S
C1477 C1471 1.428 . S
C1477 N1476 1.351 . S
C1477 C1478 1.434 . S
C1478 C1469 1.429 . S
C1478 N1475 1.350 . S
C1478 C1477 1.434 . S
C1479 C1480 1.369 . S
C1479 C1481 1.419 . S
C1479 H1483 0.930 . S
C1480 C1479 1.369 . S
C1480 C1489 1.429 . S
C1481 C1479 1.419 . S
C1481 C1482 1.363 . S
C1481 H1484 0.929 . S
C1482 C1481 1.363 . S
C1482 C1488 1.428 . S
H1483 C1479 0.930 . S
H1484 C1481 0.929 . S
S1485 N1486 1.613 . S
S1485 N1487 1.610 . S
N1486 S1485 1.613 . S
N1486 C1489 1.350 . S
N1487 S1485 1.610 . S
N1487 C1488 1.351 . S
C1488 C1482 1.428 . S
C1488 N1487 1.351 . S
C1488 C1489 1.434 . S
C1489 C1480 1.429 . S
C1489 N1486 1.350 . S
C1489 C1488 1.434 . S
C1490 C1491 1.369 . S
C1490 C1492 1.419 . S
C1490 H1494 0.930 . S
C1491 C1490 1.369 . S
C1491 C1500 1.429 . S
C1492 C1490 1.419 . S
C1492 C1493 1.363 . S
C1492 H1495 0.929 . S
C1493 C1492 1.363 . S
C1493 C1499 1.428 . S
H1494 C1490 0.930 . S
H1495 C1492 0.929 . S
S1496 N1497 1.613 . S
S1496 N1498 1.610 . S
N1497 S1496 1.613 . S
N1497 C1500 1.350 . S
N1498 S1496 1.610 . S
N1498 C1499 1.351 . S
C1499 C1493 1.428 . S
C1499 N1498 1.351 . S
C1499 C1500 1.434 . S
C1500 C1491 1.429 . S
C1500 N1497 1.350 . S
C1500 C1499 1.434 . S
C1501 C1502 1.369 . S
C1501 C1503 1.419 . S
C1501 H1505 0.930 . S
C1502 C1501 1.369 . S
C1502 C1511 1.429 . S
C1503 C1501 1.419 . S
C1503 C1504 1.363 . S
C1503 H1506 0.929 . S
C1504 C1503 1.363 . S
C1504 C1510 1.428 . S
H1505 C1501 0.930 . S
H1506 C1503 0.929 . S
S1507 N1508 1.613 . S
S1507 N1509 1.610 . S
N1508 S1507 1.613 . S
N1508 C1511 1.350 . S
N1509 S1507 1.610 . S
N1509 C1510 1.351 . S
C1510 C1504 1.428 . S
C1510 N1509 1.351 . S
C1510 C1511 1.434 . S
C1511 C1502 1.429 . S
C1511 N1508 1.350 . S
C1511 C1510 1.434 . S
C1512 C1513 1.369 . S
C1512 C1514 1.419 . S
C1512 H1516 0.930 . S
C1513 C1512 1.369 . S
C1513 C1522 1.429 . S
C1514 C1512 1.419 . S
C1514 C1515 1.363 . S
C1514 H1517 0.929 . S
C1515 C1514 1.363 . S
C1515 C1521 1.428 . S
H1516 C1512 0.930 . S
H1517 C1514 0.929 . S
S1518 N1519 1.613 . S
S1518 N1520 1.610 . S
N1519 S1518 1.613 . S
N1519 C1522 1.350 . S
N1520 S1518 1.610 . S
N1520 C1521 1.351 . S
C1521 C1515 1.428 . S
C1521 N1520 1.351 . S
C1521 C1522 1.434 . S
C1522 C1513 1.429 . S
C1522 N1519 1.350 . S
C1522 C1521 1.434 . S
C1523 C1524 1.369 . S
C1523 C1525 1.419 . S
C1523 H1527 0.930 . S
C1524 C1523 1.369 . S
C1524 C1533 1.429 . S
C1525 C1523 1.419 . S
C1525 C1526 1.363 . S
C1525 H1528 0.929 . S
C1526 C1525 1.363 . S
C1526 C1532 1.428 . S
H1527 C1523 0.930 . S
H1528 C1525 0.929 . S
S1529 N1530 1.613 . S
S1529 N1531 1.610 . S
N1530 S1529 1.613 . S
N1530 C1533 1.350 . S
N1531 S1529 1.610 . S
N1531 C1532 1.351 . S
C1532 C1526 1.428 . S
C1532 N1531 1.351 . S
C1532 C1533 1.434 . S
C1533 C1524 1.429 . S
C1533 N1530 1.350 . S
C1533 C1532 1.434 . S
C1534 C1535 1.369 . S
C1534 C1536 1.419 . S
C1534 H1538 0.930 . S
C1535 C1534 1.369 . S
C1535 C1544 1.429 . S
C1536 C1534 1.419 . S
C1536 C1537 1.363 . S
C1536 H1539 0.929 . S
C1537 C1536 1.363 . S
C1537 C1543 1.428 . S
H1538 C1534 0.930 . S
H1539 C1536 0.929 . S
S1540 N1541 1.613 . S
S1540 N1542 1.610 . S
N1541 S1540 1.613 . S
N1541 C1544 1.350 . S
N1542 S1540 1.610 . S
N1542 C1543 1.351 . S
C1543 C1537 1.428 . S
C1543 N1542 1.351 . S
C1543 C1544 1.434 . S
C1544 C1535 1.429 . S
C1544 N1541 1.350 . S
C1544 C1543 1.434 . S
C1545 C1546 1.369 . S
C1545 C1547 1.419 . S
C1545 H1549 0.930 . S
C1546 C1545 1.369 . S
C1546 C1555 1.429 . S
C1547 C1545 1.419 . S
C1547 C1548 1.363 . S
C1547 H1550 0.929 . S
C1548 C1547 1.363 . S
C1548 C1554 1.428 . S
H1549 C1545 0.930 . S
H1550 C1547 0.929 . S
S1551 N1552 1.613 . S
S1551 N1553 1.610 . S
N1552 S1551 1.613 . S
N1552 C1555 1.350 . S
N1553 S1551 1.610 . S
N1553 C1554 1.351 . S
C1554 C1548 1.428 . S
C1554 N1553 1.351 . S
C1554 C1555 1.434 . S
C1555 C1546 1.429 . S
C1555 N1552 1.350 . S
C1555 C1554 1.434 . S
C1556 C1557 1.369 . S
C1556 C1558 1.419 . S
C1556 H1560 0.930 . S
C1557 C1556 1.369 . S
C1557 C1566 1.429 . S
C1558 C1556 1.419 . S
C1558 C1559 1.363 . S
C1558 H1561 0.929 . S
C1559 C1558 1.363 . S
C1559 C1565 1.428 . S
H1560 C1556 0.930 . S
H1561 C1558 0.929 . S
S1562 N1563 1.613 . S
S1562 N1564 1.610 . S
N1563 S1562 1.613 . S
N1563 C1566 1.350 . S
N1564 S1562 1.610 . S
N1564 C1565 1.351 . S
C1565 C1559 1.428 . S
C1565 N1564 1.351 . S
C1565 C1566 1.434 . S
C1566 C1557 1.429 . S
C1566 N1563 1.350 . S
C1566 C1565 1.434 . S
C1567 C1568 1.369 . S
C1567 C1569 1.419 . S
C1567 H1571 0.930 . S
C1568 C1567 1.369 . S
C1568 C1577 1.429 . S
C1569 C1567 1.419 . S
C1569 C1570 1.363 . S
C1569 H1572 0.929 . S
C1570 C1569 1.363 . S
C1570 C1576 1.428 . S
H1571 C1567 0.930 . S
H1572 C1569 0.929 . S
S1573 N1574 1.613 . S
S1573 N1575 1.610 . S
N1574 S1573 1.613 . S
N1574 C1577 1.350 . S
N1575 S1573 1.610 . S
N1575 C1576 1.351 . S
C1576 C1570 1.428 . S
C1576 N1575 1.351 . S
C1576 C1577 1.434 . S
C1577 C1568 1.429 . S
C1577 N1574 1.350 . S
C1577 C1576 1.434 . S
C1578 C1579 1.369 . S
C1578 C1580 1.419 . S
C1578 H1582 0.930 . S
C1579 C1578 1.369 . S
C1579 C1588 1.429 . S
C1580 C1578 1.419 . S
C1580 C1581 1.363 . S
C1580 H1583 0.929 . S
C1581 C1580 1.363 . S
C1581 C1587 1.428 . S
H1582 C1578 0.930 . S
H1583 C1580 0.929 . S
S1584 N1585 1.613 . S
S1584 N1586 1.610 . S
N1585 S1584 1.613 . S
N1585 C1588 1.350 . S
N1586 S1584 1.610 . S
N1586 C1587 1.351 . S
C1587 C1581 1.428 . S
C1587 N1586 1.351 . S
C1587 C1588 1.434 . S
C1588 C1579 1.429 . S
C1588 N1585 1.350 . S
C1588 C1587 1.434 . S
C1589 C1590 1.369 . S
C1589 C1591 1.419 . S
C1589 H1593 0.930 . S
C1590 C1589 1.369 . S
C1590 C1599 1.429 . S
C1591 C1589 1.419 . S
C1591 C1592 1.363 . S
C1591 H1594 0.929 . S
C1592 C1591 1.363 . S
C1592 C1598 1.428 . S
H1593 C1589 0.930 . S
H1594 C1591 0.929 . S
S1595 N1596 1.613 . S
S1595 N1597 1.610 . S
N1596 S1595 1.613 . S
N1596 C1599 1.350 . S
N1597 S1595 1.610 . S
N1597 C1598 1.351 . S
C1598 C1592 1.428 . S
C1598 N1597 1.351 . S
C1598 C1599 1.434 . S
C1599 C1590 1.429 . S
C1599 N1596 1.350 . S
C1599 C1598 1.434 . S
C1600 C1601 1.369 . S
C1600 C1602 1.419 . S
C1600 H1604 0.930 . S
C1601 C1600 1.369 . S
C1601 C1610 1.429 . S
C1602 C1600 1.419 . S
C1602 C1603 1.363 . S
C1602 H1605 0.929 . S
C1603 C1602 1.363 . S
C1603 C1609 1.428 . S
H1604 C1600 0.930 . S
H1605 C1602 0.929 . S
S1606 N1607 1.613 . S
S1606 N1608 1.610 . S
N1607 S1606 1.613 . S
N1607 C1610 1.350 . S
N1608 S1606 1.610 . S
N1608 C1609 1.351 . S
C1609 C1603 1.428 . S
C1609 N1608 1.351 . S
C1609 C1610 1.434 . S
C1610 C1601 1.429 . S
C1610 N1607 1.350 . S
C1610 C1609 1.434 . S
C1611 C1612 1.369 . S
C1611 C1613 1.419 . S
C1611 H1615 0.930 . S
C1612 C1611 1.369 . S
C1612 C1621 1.429 . S
C1613 C1611 1.419 . S
C1613 C1614 1.363 . S
C1613 H1616 0.929 . S
C1614 C1613 1.363 . S
C1614 C1620 1.428 . S
H1615 C1611 0.930 . S
H1616 C1613 0.929 . S
S1617 N1618 1.613 . S
S1617 N1619 1.610 . S
N1618 S1617 1.613 . S
N1618 C1621 1.350 . S
N1619 S1617 1.610 . S
N1619 C1620 1.351 . S
C1620 C1614 1.428 . S
C1620 N1619 1.351 . S
C1620 C1621 1.434 . S
C1621 C1612 1.429 . S
C1621 N1618 1.350 . S
C1621 C1620 1.434 . S
C1622 C1623 1.369 . S
C1622 C1624 1.419 . S
C1622 H1626 0.930 . S
C1623 C1622 1.369 . S
C1623 C1632 1.429 . S
C1624 C1622 1.419 . S
C1624 C1625 1.363 . S
C1624 H1627 0.929 . S
C1625 C1624 1.363 . S
C1625 C1631 1.428 . S
H1626 C1622 0.930 . S
H1627 C1624 0.929 . S
S1628 N1629 1.613 . S
S1628 N1630 1.610 . S
N1629 S1628 1.613 . S
N1629 C1632 1.350 . S
N1630 S1628 1.610 . S
N1630 C1631 1.351 . S
C1631 C1625 1.428 . S
C1631 N1630 1.351 . S
C1631 C1632 1.434 . S
C1632 C1623 1.429 . S
C1632 N1629 1.350 . S
C1632 C1631 1.434 . S
C1633 C1634 1.369 . S
C1633 C1635 1.419 . S
C1633 H1637 0.930 . S
C1634 C1633 1.369 . S
C1634 C1643 1.429 . S
C1635 C1633 1.419 . S
C1635 C1636 1.363 . S
C1635 H1638 0.929 . S
C1636 C1635 1.363 . S
C1636 C1642 1.428 . S
H1637 C1633 0.930 . S
H1638 C1635 0.929 . S
S1639 N1640 1.613 . S
S1639 N1641 1.610 . S
N1640 S1639 1.613 . S
N1640 C1643 1.350 . S
N1641 S1639 1.610 . S
N1641 C1642 1.351 . S
C1642 C1636 1.428 . S
C1642 N1641 1.351 . S
C1642 C1643 1.434 . S
C1643 C1634 1.429 . S
C1643 N1640 1.350 . S
C1643 C1642 1.434 . S
C1644 C1645 1.369 . S
C1644 C1646 1.419 . S
C1644 H1648 0.930 . S
C1645 C1644 1.369 . S
C1645 C1654 1.429 . S
C1646 C1644 1.419 . S
C1646 C1647 1.363 . S
C1646 H1649 0.929 . S
C1647 C1646 1.363 . S
C1647 C1653 1.428 . S
H1648 C1644 0.930 . S
H1649 C1646 0.929 . S
S1650 N1651 1.613 . S
S1650 N1652 1.610 . S
N1651 S1650 1.613 . S
N1651 C1654 1.350 . S
N1652 S1650 1.610 . S
N1652 C1653 1.351 . S
C1653 C1647 1.428 . S
C1653 N1652 1.351 . S
C1653 C1654 1.434 . S
C1654 C1645 1.429 . S
C1654 N1651 1.350 . S
C1654 C1653 1.434 . S
C1655 C1656 1.369 . S
C1655 C1657 1.419 . S
C1655 H1659 0.930 . S
C1656 C1655 1.369 . S
C1656 C1665 1.429 . S
C1657 C1655 1.419 . S
C1657 C1658 1.363 . S
C1657 H1660 0.929 . S
C1658 C1657 1.363 . S
C1658 C1664 1.428 . S
H1659 C1655 0.930 . S
H1660 C1657 0.929 . S
S1661 N1662 1.613 . S
S1661 N1663 1.610 . S
N1662 S1661 1.613 . S
N1662 C1665 1.350 . S
N1663 S1661 1.610 . S
N1663 C1664 1.351 . S
C1664 C1658 1.428 . S
C1664 N1663 1.351 . S
C1664 C1665 1.434 . S
C1665 C1656 1.429 . S
C1665 N1662 1.350 . S
C1665 C1664 1.434 . S
C1666 C1667 1.369 . S
C1666 C1668 1.419 . S
C1666 H1670 0.930 . S
C1667 C1666 1.369 . S
C1667 C1676 1.429 . S
C1668 C1666 1.419 . S
C1668 C1669 1.363 . S
C1668 H1671 0.929 . S
C1669 C1668 1.363 . S
C1669 C1675 1.428 . S
H1670 C1666 0.930 . S
H1671 C1668 0.929 . S
S1672 N1673 1.613 . S
S1672 N1674 1.610 . S
N1673 S1672 1.613 . S
N1673 C1676 1.350 . S
N1674 S1672 1.610 . S
N1674 C1675 1.351 . S
C1675 C1669 1.428 . S
C1675 N1674 1.351 . S
C1675 C1676 1.434 . S
C1676 C1667 1.429 . S
C1676 N1673 1.350 . S
C1676 C1675 1.434 . S
C1677 C1678 1.369 . S
C1677 C1679 1.419 . S
C1677 H1681 0.930 . S
C1678 C1677 1.369 . S
C1678 C1687 1.429 . S
C1679 C1677 1.419 . S
C1679 C1680 1.363 . S
C1679 H1682 0.929 . S
C1680 C1679 1.363 . S
C1680 C1686 1.428 . S
H1681 C1677 0.930 . S
H1682 C1679 0.929 . S
S1683 N1684 1.613 . S
S1683 N1685 1.610 . S
N1684 S1683 1.613 . S
N1684 C1687 1.350 . S
N1685 S1683 1.610 . S
N1685 C1686 1.351 . S
C1686 C1680 1.428 . S
C1686 N1685 1.351 . S
C1686 C1687 1.434 . S
C1687 C1678 1.429 . S
C1687 N1684 1.350 . S
C1687 C1686 1.434 . S
C1688 C1689 1.369 . S
C1688 C1690 1.419 . S
C1688 H1692 0.930 . S
C1689 C1688 1.369 . S
C1689 C1698 1.429 . S
C1690 C1688 1.419 . S
C1690 C1691 1.363 . S
C1690 H1693 0.929 . S
C1691 C1690 1.363 . S
C1691 C1697 1.428 . S
H1692 C1688 0.930 . S
H1693 C1690 0.929 . S
S1694 N1695 1.613 . S
S1694 N1696 1.610 . S
N1695 S1694 1.613 . S
N1695 C1698 1.350 . S
N1696 S1694 1.610 . S
N1696 C1697 1.351 . S
C1697 C1691 1.428 . S
C1697 N1696 1.351 . S
C1697 C1698 1.434 . S
C1698 C1689 1.429 . S
C1698 N1695 1.350 . S
C1698 C1697 1.434 . S
C1699 C1700 1.369 . S
C1699 C1701 1.419 . S
C1699 H1703 0.930 . S
C1700 C1699 1.369 . S
C1700 C1709 1.429 . S
C1701 C1699 1.419 . S
C1701 C1702 1.363 . S
C1701 H1704 0.929 . S
C1702 C1701 1.363 . S
C1702 C1708 1.428 . S
H1703 C1699 0.930 . S
H1704 C1701 0.929 . S
S1705 N1706 1.613 . S
S1705 N1707 1.610 . S
N1706 S1705 1.613 . S
N1706 C1709 1.350 . S
N1707 S1705 1.610 . S
N1707 C1708 1.351 . S
C1708 C1702 1.428 . S
C1708 N1707 1.351 . S
C1708 C1709 1.434 . S
C1709 C1700 1.429 . S
C1709 N1706 1.350 . S
C1709 C1708 1.434 . S
C1710 C1711 1.369 . S
C1710 C1712 1.419 . S
C1710 H1714 0.930 . S
C1711 C1710 1.369 . S
C1711 C1720 1.429 . S
C1712 C1710 1.419 . S
C1712 C1713 1.363 . S
C1712 H1715 0.929 . S
C1713 C1712 1.363 . S
C1713 C1719 1.428 . S
H1714 C1710 0.930 . S
H1715 C1712 0.929 . S
S1716 N1717 1.613 . S
S1716 N1718 1.610 . S
N1717 S1716 1.613 . S
N1717 C1720 1.350 . S
N1718 S1716 1.610 . S
N1718 C1719 1.351 . S
C1719 C1713 1.428 . S
C1719 N1718 1.351 . S
C1719 C1720 1.434 . S
C1720 C1711 1.429 . S
C1720 N1717 1.350 . S
C1720 C1719 1.434 . S
C1721 C1722 1.369 . S
C1721 C1723 1.419 . S
C1721 H1725 0.930 . S
C1722 C1721 1.369 . S
C1722 C1731 1.429 . S
C1723 C1721 1.419 . S
C1723 C1724 1.363 . S
C1723 H1726 0.929 . S
C1724 C1723 1.363 . S
C1724 C1730 1.428 . S
H1725 C1721 0.930 . S
H1726 C1723 0.929 . S
S1727 N1728 1.613 . S
S1727 N1729 1.610 . S
N1728 S1727 1.613 . S
N1728 C1731 1.350 . S
N1729 S1727 1.610 . S
N1729 C1730 1.351 . S
C1730 C1724 1.428 . S
C1730 N1729 1.351 . S
C1730 C1731 1.434 . S
C1731 C1722 1.429 . S
C1731 N1728 1.350 . S
C1731 C1730 1.434 . S
C1732 C1733 1.369 . S
C1732 C1734 1.419 . S
C1732 H1736 0.930 . S
C1733 C1732 1.369 . S
C1733 C1742 1.429 . S
C1734 C1732 1.419 . S
C1734 C1735 1.363 . S
C1734 H1737 0.929 . S
C1735 C1734 1.363 . S
C1735 C1741 1.428 . S
H1736 C1732 0.930 . S
H1737 C1734 0.929 . S
S1738 N1739 1.613 . S
S1738 N1740 1.610 . S
N1739 S1738 1.613 . S
N1739 C1742 1.350 . S
N1740 S1738 1.610 . S
N1740 C1741 1.351 . S
C1741 C1735 1.428 . S
C1741 N1740 1.351 . S
C1741 C1742 1.434 . S
C1742 C1733 1.429 . S
C1742 N1739 1.350 . S
C1742 C1741 1.434 . S
C1743 C1744 1.369 . S
C1743 C1745 1.419 . S
C1743 H1747 0.930 . S
C1744 C1743 1.369 . S
C1744 C1753 1.429 . S
C1745 C1743 1.419 . S
C1745 C1746 1.363 . S
C1745 H1748 0.929 . S
C1746 C1745 1.363 . S
C1746 C1752 1.428 . S
H1747 C1743 0.930 . S
H1748 C1745 0.929 . S
S1749 N1750 1.613 . S
S1749 N1751 1.610 . S
N1750 S1749 1.613 . S
N1750 C1753 1.350 . S
N1751 S1749 1.610 . S
N1751 C1752 1.351 . S
C1752 C1746 1.428 . S
C1752 N1751 1.351 . S
C1752 C1753 1.434 . S
C1753 C1744 1.429 . S
C1753 N1750 1.350 . S
C1753 C1752 1.434 . S
C1754 C1755 1.369 . S
C1754 C1756 1.419 . S
C1754 H1758 0.930 . S
C1755 C1754 1.369 . S
C1755 C1764 1.429 . S
C1756 C1754 1.419 . S
C1756 C1757 1.363 . S
C1756 H1759 0.929 . S
C1757 C1756 1.363 . S
C1757 C1763 1.428 . S
H1758 C1754 0.930 . S
H1759 C1756 0.929 . S
S1760 N1761 1.613 . S
S1760 N1762 1.610 . S
N1761 S1760 1.613 . S
N1761 C1764 1.350 . S
N1762 S1760 1.610 . S
N1762 C1763 1.351 . S
C1763 C1757 1.428 . S
C1763 N1762 1.351 . S
C1763 C1764 1.434 . S
C1764 C1755 1.429 . S
C1764 N1761 1.350 . S
C1764 C1763 1.434 . S
C1765 C1766 1.369 . S
C1765 C1767 1.419 . S
C1765 H1769 0.930 . S
C1766 C1765 1.369 . S
C1766 C1775 1.429 . S
C1767 C1765 1.419 . S
C1767 C1768 1.363 . S
C1767 H1770 0.929 . S
C1768 C1767 1.363 . S
C1768 C1774 1.428 . S
H1769 C1765 0.930 . S
H1770 C1767 0.929 . S
S1771 N1772 1.613 . S
S1771 N1773 1.610 . S
N1772 S1771 1.613 . S
N1772 C1775 1.350 . S
N1773 S1771 1.610 . S
N1773 C1774 1.351 . S
C1774 C1768 1.428 . S
C1774 N1773 1.351 . S
C1774 C1775 1.434 . S
C1775 C1766 1.429 . S
C1775 N1772 1.350 . S
C1775 C1774 1.434 . S
C1776 C1777 1.369 . S
C1776 C1778 1.419 . S
C1776 H1780 0.930 . S
C1777 C1776 1.369 . S
C1777 C1786 1.429 . S
C1778 C1776 1.419 . S
C1778 C1779 1.363 . S
C1778 H1781 0.929 . S
C1779 C1778 1.363 . S
C1779 C1785 1.428 . S
H1780 C1776 0.930 . S
H1781 C1778 0.929 . S
S1782 N1783 1.613 . S
S1782 N1784 1.610 . S
N1783 S1782 1.613 . S
N1783 C1786 1.350 . S
N1784 S1782 1.610 . S
N1784 C1785 1.351 . S
C1785 C1779 1.428 . S
C1785 N1784 1.351 . S
C1785 C1786 1.434 . S
C1786 C1777 1.429 . S
C1786 N1783 1.350 . S
C1786 C1785 1.434 . S
C1787 C1788 1.369 . S
C1787 C1789 1.419 . S
C1787 H1791 0.930 . S
C1788 C1787 1.369 . S
C1788 C1797 1.429 . S
C1789 C1787 1.419 . S
C1789 C1790 1.363 . S
C1789 H1792 0.929 . S
C1790 C1789 1.363 . S
C1790 C1796 1.428 . S
H1791 C1787 0.930 . S
H1792 C1789 0.929 . S
S1793 N1794 1.613 . S
S1793 N1795 1.610 . S
N1794 S1793 1.613 . S
N1794 C1797 1.350 . S
N1795 S1793 1.610 . S
N1795 C1796 1.351 . S
C1796 C1790 1.428 . S
C1796 N1795 1.351 . S
C1796 C1797 1.434 . S
C1797 C1788 1.429 . S
C1797 N1794 1.350 . S
C1797 C1796 1.434 . S
C1798 C1799 1.369 . S
C1798 C1800 1.419 . S
C1798 H1802 0.930 . S
C1799 C1798 1.369 . S
C1799 C1808 1.429 . S
C1800 C1798 1.419 . S
C1800 C1801 1.363 . S
C1800 H1803 0.929 . S
C1801 C1800 1.363 . S
C1801 C1807 1.428 . S
H1802 C1798 0.930 . S
H1803 C1800 0.929 . S
S1804 N1805 1.613 . S
S1804 N1806 1.610 . S
N1805 S1804 1.613 . S
N1805 C1808 1.350 . S
N1806 S1804 1.610 . S
N1806 C1807 1.351 . S
C1807 C1801 1.428 . S
C1807 N1806 1.351 . S
C1807 C1808 1.434 . S
C1808 C1799 1.429 . S
C1808 N1805 1.350 . S
C1808 C1807 1.434 . S
C1809 C1810 1.369 . S
C1809 C1811 1.419 . S
C1809 H1813 0.930 . S
C1810 C1809 1.369 . S
C1810 C1819 1.429 . S
C1811 C1809 1.419 . S
C1811 C1812 1.363 . S
C1811 H1814 0.929 . S
C1812 C1811 1.363 . S
C1812 C1818 1.428 . S
H1813 C1809 0.930 . S
H1814 C1811 0.929 . S
S1815 N1816 1.613 . S
S1815 N1817 1.610 . S
N1816 S1815 1.613 . S
N1816 C1819 1.350 . S
N1817 S1815 1.610 . S
N1817 C1818 1.351 . S
C1818 C1812 1.428 . S
C1818 N1817 1.351 . S
C1818 C1819 1.434 . S
C1819 C1810 1.429 . S
C1819 N1816 1.350 . S
C1819 C1818 1.434 . S
C1820 C1821 1.369 . S
C1820 C1822 1.419 . S
C1820 H1824 0.930 . S
C1821 C1820 1.369 . S
C1821 C1830 1.429 . S
C1822 C1820 1.419 . S
C1822 C1823 1.363 . S
C1822 H1825 0.929 . S
C1823 C1822 1.363 . S
C1823 C1829 1.428 . S
H1824 C1820 0.930 . S
H1825 C1822 0.929 . S
S1826 N1827 1.613 . S
S1826 N1828 1.610 . S
N1827 S1826 1.613 . S
N1827 C1830 1.350 . S
N1828 S1826 1.610 . S
N1828 C1829 1.351 . S
C1829 C1823 1.428 . S
C1829 N1828 1.351 . S
C1829 C1830 1.434 . S
C1830 C1821 1.429 . S
C1830 N1827 1.350 . S
C1830 C1829 1.434 . S
C1831 C1832 1.369 . S
C1831 C1833 1.419 . S
C1831 H1835 0.930 . S
C1832 C1831 1.369 . S
C1832 C1841 1.429 . S
C1833 C1831 1.419 . S
C1833 C1834 1.363 . S
C1833 H1836 0.929 . S
C1834 C1833 1.363 . S
C1834 C1840 1.428 . S
H1835 C1831 0.930 . S
H1836 C1833 0.929 . S
S1837 N1838 1.613 . S
S1837 N1839 1.610 . S
N1838 S1837 1.613 . S
N1838 C1841 1.350 . S
N1839 S1837 1.610 . S
N1839 C1840 1.351 . S
C1840 C1834 1.428 . S
C1840 N1839 1.351 . S
C1840 C1841 1.434 . S
C1841 C1832 1.429 . S
C1841 N1838 1.350 . S
C1841 C1840 1.434 . S
C1842 C1843 1.369 . S
C1842 C1844 1.419 . S
C1842 H1846 0.930 . S
C1843 C1842 1.369 . S
C1843 C1852 1.429 . S
C1844 C1842 1.419 . S
C1844 C1845 1.363 . S
C1844 H1847 0.929 . S
C1845 C1844 1.363 . S
C1845 C1851 1.428 . S
H1846 C1842 0.930 . S
H1847 C1844 0.929 . S
S1848 N1849 1.613 . S
S1848 N1850 1.610 . S
N1849 S1848 1.613 . S
N1849 C1852 1.350 . S
N1850 S1848 1.610 . S
N1850 C1851 1.351 . S
C1851 C1845 1.428 . S
C1851 N1850 1.351 . S
C1851 C1852 1.434 . S
C1852 C1843 1.429 . S
C1852 N1849 1.350 . S
C1852 C1851 1.434 . S
C1853 C1854 1.369 . S
C1853 C1855 1.419 . S
C1853 H1857 0.930 . S
C1854 C1853 1.369 . S
C1854 C1863 1.429 . S
C1855 C1853 1.419 . S
C1855 C1856 1.363 . S
C1855 H1858 0.929 . S
C1856 C1855 1.363 . S
C1856 C1862 1.428 . S
H1857 C1853 0.930 . S
H1858 C1855 0.929 . S
S1859 N1860 1.613 . S
S1859 N1861 1.610 . S
N1860 S1859 1.613 . S
N1860 C1863 1.350 . S
N1861 S1859 1.610 . S
N1861 C1862 1.351 . S
C1862 C1856 1.428 . S
C1862 N1861 1.351 . S
C1862 C1863 1.434 . S
C1863 C1854 1.429 . S
C1863 N1860 1.350 . S
C1863 C1862 1.434 . S
C1864 C1865 1.369 . S
C1864 C1866 1.419 . S
C1864 H1868 0.930 . S
C1865 C1864 1.369 . S
C1865 C1874 1.429 . S
C1866 C1864 1.419 . S
C1866 C1867 1.363 . S
C1866 H1869 0.929 . S
C1867 C1866 1.363 . S
C1867 C1873 1.428 . S
H1868 C1864 0.930 . S
H1869 C1866 0.929 . S
S1870 N1871 1.613 . S
S1870 N1872 1.610 . S
N1871 S1870 1.613 . S
N1871 C1874 1.350 . S
N1872 S1870 1.610 . S
N1872 C1873 1.351 . S
C1873 C1867 1.428 . S
C1873 N1872 1.351 . S
C1873 C1874 1.434 . S
C1874 C1865 1.429 . S
C1874 N1871 1.350 . S
C1874 C1873 1.434 . S
C1875 C1876 1.369 . S
C1875 C1877 1.419 . S
C1875 H1879 0.930 . S
C1876 C1875 1.369 . S
C1876 C1885 1.429 . S
C1877 C1875 1.419 . S
C1877 C1878 1.363 . S
C1877 H1880 0.929 . S
C1878 C1877 1.363 . S
C1878 C1884 1.428 . S
H1879 C1875 0.930 . S
H1880 C1877 0.929 . S
S1881 N1882 1.613 . S
S1881 N1883 1.610 . S
N1882 S1881 1.613 . S
N1882 C1885 1.350 . S
N1883 S1881 1.610 . S
N1883 C1884 1.351 . S
C1884 C1878 1.428 . S
C1884 N1883 1.351 . S
C1884 C1885 1.434 . S
C1885 C1876 1.429 . S
C1885 N1882 1.350 . S
C1885 C1884 1.434 . S
C1886 C1887 1.369 . S
C1886 C1888 1.419 . S
C1886 H1890 0.930 . S
C1887 C1886 1.369 . S
C1887 C1896 1.429 . S
C1888 C1886 1.419 . S
C1888 C1889 1.363 . S
C1888 H1891 0.929 . S
C1889 C1888 1.363 . S
C1889 C1895 1.428 . S
H1890 C1886 0.930 . S
H1891 C1888 0.929 . S
S1892 N1893 1.613 . S
S1892 N1894 1.610 . S
N1893 S1892 1.613 . S
N1893 C1896 1.350 . S
N1894 S1892 1.610 . S
N1894 C1895 1.351 . S
C1895 C1889 1.428 . S
C1895 N1894 1.351 . S
C1895 C1896 1.434 . S
C1896 C1887 1.429 . S
C1896 N1893 1.350 . S
C1896 C1895 1.434 . S
C1897 C1898 1.369 . S
C1897 C1899 1.419 . S
C1897 H1901 0.930 . S
C1898 C1897 1.369 . S
C1898 C1907 1.429 . S
C1899 C1897 1.419 . S
C1899 C1900 1.363 . S
C1899 H1902 0.929 . S
C1900 C1899 1.363 . S
C1900 C1906 1.428 . S
H1901 C1897 0.930 . S
H1902 C1899 0.929 . S
S1903 N1904 1.613 . S
S1903 N1905 1.610 . S
N1904 S1903 1.613 . S
N1904 C1907 1.350 . S
N1905 S1903 1.610 . S
N1905 C1906 1.351 . S
C1906 C1900 1.428 . S
C1906 N1905 1.351 . S
C1906 C1907 1.434 . S
C1907 C1898 1.429 . S
C1907 N1904 1.350 . S
C1907 C1906 1.434 . S
C1908 C1909 1.369 . S
C1908 C1910 1.419 . S
C1908 H1912 0.930 . S
C1909 C1908 1.369 . S
C1909 C1918 1.429 . S
C1910 C1908 1.419 . S
C1910 C1911 1.363 . S
C1910 H1913 0.929 . S
C1911 C1910 1.363 . S
C1911 C1917 1.428 . S
H1912 C1908 0.930 . S
H1913 C1910 0.929 . S
S1914 N1915 1.613 . S
S1914 N1916 1.610 . S
N1915 S1914 1.613 . S
N1915 C1918 1.350 . S
N1916 S1914 1.610 . S
N1916 C1917 1.351 . S
C1917 C1911 1.428 . S
C1917 N1916 1.351 . S
C1917 C1918 1.434 . S
C1918 C1909 1.429 . S
C1918 N1915 1.350 . S
C1918 C1917 1.434 . S
C1919 C1920 1.369 . S
C1919 C1921 1.419 . S
C1919 H1923 0.930 . S
C1920 C1919 1.369 . S
C1920 C1929 1.429 . S
C1921 C1919 1.419 . S
C1921 C1922 1.363 . S
C1921 H1924 0.929 . S
C1922 C1921 1.363 . S
C1922 C1928 1.428 . S
H1923 C1919 0.930 . S
H1924 C1921 0.929 . S
S1925 N1926 1.613 . S
S1925 N1927 1.610 . S
N1926 S1925 1.613 . S
N1926 C1929 1.350 . S
N1927 S1925 1.610 . S
N1927 C1928 1.351 . S
C1928 C1922 1.428 . S
C1928 N1927 1.351 . S
C1928 C1929 1.434 . S
C1929 C1920 1.429 . S
C1929 N1926 1.350 . S
C1929 C1928 1.434 . S
C1930 C1931 1.369 . S
C1930 C1932 1.419 . S
C1930 H1934 0.930 . S
C1931 C1930 1.369 . S
C1931 C1940 1.429 . S
C1932 C1930 1.419 . S
C1932 C1933 1.363 . S
C1932 H1935 0.929 . S
C1933 C1932 1.363 . S
C1933 C1939 1.428 . S
H1934 C1930 0.930 . S
H1935 C1932 0.929 . S
S1936 N1937 1.613 . S
S1936 N1938 1.610 . S
N1937 S1936 1.613 . S
N1937 C1940 1.350 . S
N1938 S1936 1.610 . S
N1938 C1939 1.351 . S
C1939 C1933 1.428 . S
C1939 N1938 1.351 . S
C1939 C1940 1.434 . S
C1940 C1931 1.429 . S
C1940 N1937 1.350 . S
C1940 C1939 1.434 . S
C1941 C1942 1.369 . S
C1941 C1943 1.419 . S
C1941 H1945 0.930 . S
C1942 C1941 1.369 . S
C1942 C1951 1.429 . S
C1943 C1941 1.419 . S
C1943 C1944 1.363 . S
C1943 H1946 0.929 . S
C1944 C1943 1.363 . S
C1944 C1950 1.428 . S
H1945 C1941 0.930 . S
H1946 C1943 0.929 . S
S1947 N1948 1.613 . S
S1947 N1949 1.610 . S
N1948 S1947 1.613 . S
N1948 C1951 1.350 . S
N1949 S1947 1.610 . S
N1949 C1950 1.351 . S
C1950 C1944 1.428 . S
C1950 N1949 1.351 . S
C1950 C1951 1.434 . S
C1951 C1942 1.429 . S
C1951 N1948 1.350 . S
C1951 C1950 1.434 . S
C1952 C1953 1.369 . S
C1952 C1954 1.419 . S
C1952 H1956 0.930 . S
C1953 C1952 1.369 . S
C1953 C1962 1.429 . S
C1954 C1952 1.419 . S
C1954 C1955 1.363 . S
C1954 H1957 0.929 . S
C1955 C1954 1.363 . S
C1955 C1961 1.428 . S
H1956 C1952 0.930 . S
H1957 C1954 0.929 . S
S1958 N1959 1.613 . S
S1958 N1960 1.610 . S
N1959 S1958 1.613 . S
N1959 C1962 1.350 . S
N1960 S1958 1.610 . S
N1960 C1961 1.351 . S
C1961 C1955 1.428 . S
C1961 N1960 1.351 . S
C1961 C1962 1.434 . S
C1962 C1953 1.429 . S
C1962 N1959 1.350 . S
C1962 C1961 1.434 . S
C1963 C1964 1.369 . S
C1963 C1965 1.419 . S
C1963 H1967 0.930 . S
C1964 C1963 1.369 . S
C1964 C1973 1.429 . S
C1965 C1963 1.419 . S
C1965 C1966 1.363 . S
C1965 H1968 0.929 . S
C1966 C1965 1.363 . S
C1966 C1972 1.428 . S
H1967 C1963 0.930 . S
H1968 C1965 0.929 . S
S1969 N1970 1.613 . S
S1969 N1971 1.610 . S
N1970 S1969 1.613 . S
N1970 C1973 1.350 . S
N1971 S1969 1.610 . S
N1971 C1972 1.351 . S
C1972 C1966 1.428 . S
C1972 N1971 1.351 . S
C1972 C1973 1.434 . S
C1973 C1964 1.429 . S
C1973 N1970 1.350 . S
C1973 C1972 1.434 . S
C1974 C1975 1.369 . S
C1974 C1976 1.419 . S
C1974 H1978 0.930 . S
C1975 C1974 1.369 . S
C1975 C1984 1.429 . S
C1976 C1974 1.419 . S
C1976 C1977 1.363 . S
C1976 H1979 0.929 . S
C1977 C1976 1.363 . S
C1977 C1983 1.428 . S
H1978 C1974 0.930 . S
H1979 C1976 0.929 . S
S1980 N1981 1.613 . S
S1980 N1982 1.610 . S
N1981 S1980 1.613 . S
N1981 C1984 1.350 . S
N1982 S1980 1.610 . S
N1982 C1983 1.351 . S
C1983 C1977 1.428 . S
C1983 N1982 1.351 . S
C1983 C1984 1.434 . S
C1984 C1975 1.429 . S
C1984 N1981 1.350 . S
C1984 C1983 1.434 . S
C1985 C1986 1.369 . S
C1985 C1987 1.419 . S
C1985 H1989 0.930 . S
C1986 C1985 1.369 . S
C1986 C1995 1.429 . S
C1987 C1985 1.419 . S
C1987 C1988 1.363 . S
C1987 H1990 0.929 . S
C1988 C1987 1.363 . S
C1988 C1994 1.428 . S
H1989 C1985 0.930 . S
H1990 C1987 0.929 . S
S1991 N1992 1.613 . S
S1991 N1993 1.610 . S
N1992 S1991 1.613 . S
N1992 C1995 1.350 . S
N1993 S1991 1.610 . S
N1993 C1994 1.351 . S
C1994 C1988 1.428 . S
C1994 N1993 1.351 . S
C1994 C1995 1.434 . S
C1995 C1986 1.429 . S
C1995 N1992 1.350 . S
C1995 C1994 1.434 . S
C1996 C1997 1.369 . S
C1996 C1998 1.419 . S
C1996 H2000 0.930 . S
C1997 C1996 1.369 . S
C1997 C2006 1.429 . S
C1998 C1996 1.419 . S
C1998 C1999 1.363 . S
C1998 H2001 0.929 . S
C1999 C1998 1.363 . S
C1999 C2005 1.428 . S
H2000 C1996 0.930 . S
H2001 C1998 0.929 . S
S2002 N2003 1.613 . S
S2002 N2004 1.610 . S
N2003 S2002 1.613 . S
N2003 C2006 1.350 . S
N2004 S2002 1.610 . S
N2004 C2005 1.351 . S
C2005 C1999 1.428 . S
C2005 N2004 1.351 . S
C2005 C2006 1.434 . S
C2006 C1997 1.429 . S
C2006 N2003 1.350 . S
C2006 C2005 1.434 . S
C2007 C2008 1.369 . S
C2007 C2009 1.419 . S
C2007 H2011 0.930 . S
C2008 C2007 1.369 . S
C2008 C2017 1.429 . S
C2009 C2007 1.419 . S
C2009 C2010 1.363 . S
C2009 H2012 0.929 . S
C2010 C2009 1.363 . S
C2010 C2016 1.428 . S
H2011 C2007 0.930 . S
H2012 C2009 0.929 . S
S2013 N2014 1.613 . S
S2013 N2015 1.610 . S
N2014 S2013 1.613 . S
N2014 C2017 1.350 . S
N2015 S2013 1.610 . S
N2015 C2016 1.351 . S
C2016 C2010 1.428 . S
C2016 N2015 1.351 . S
C2016 C2017 1.434 . S
C2017 C2008 1.429 . S
C2017 N2014 1.350 . S
C2017 C2016 1.434 . S
C2018 C2019 1.369 . S
C2018 C2020 1.419 . S
C2018 H2022 0.930 . S
C2019 C2018 1.369 . S
C2019 C2028 1.429 . S
C2020 C2018 1.419 . S
C2020 C2021 1.363 . S
C2020 H2023 0.929 . S
C2021 C2020 1.363 . S
C2021 C2027 1.428 . S
H2022 C2018 0.930 . S
H2023 C2020 0.929 . S
S2024 N2025 1.613 . S
S2024 N2026 1.610 . S
N2025 S2024 1.613 . S
N2025 C2028 1.350 . S
N2026 S2024 1.610 . S
N2026 C2027 1.351 . S
C2027 C2021 1.428 . S
C2027 N2026 1.351 . S
C2027 C2028 1.434 . S
C2028 C2019 1.429 . S
C2028 N2025 1.350 . S
C2028 C2027 1.434 . S
C2029 C2030 1.369 . S
C2029 C2031 1.419 . S
C2029 H2033 0.930 . S
C2030 C2029 1.369 . S
C2030 C2039 1.429 . S
C2031 C2029 1.419 . S
C2031 C2032 1.363 . S
C2031 H2034 0.929 . S
C2032 C2031 1.363 . S
C2032 C2038 1.428 . S
H2033 C2029 0.930 . S
H2034 C2031 0.929 . S
S2035 N2036 1.613 . S
S2035 N2037 1.610 . S
N2036 S2035 1.613 . S
N2036 C2039 1.350 . S
N2037 S2035 1.610 . S
N2037 C2038 1.351 . S
C2038 C2032 1.428 . S
C2038 N2037 1.351 . S
C2038 C2039 1.434 . S
C2039 C2030 1.429 . S
C2039 N2036 1.350 . S
C2039 C2038 1.434 . S
C2040 C2041 1.369 . S
C2040 C2042 1.419 . S
C2040 H2044 0.930 . S
C2041 C2040 1.369 . S
C2041 C2050 1.429 . S
C2042 C2040 1.419 . S
C2042 C2043 1.363 . S
C2042 H2045 0.929 . S
C2043 C2042 1.363 . S
C2043 C2049 1.428 . S
H2044 C2040 0.930 . S
H2045 C2042 0.929 . S
S2046 N2047 1.613 . S
S2046 N2048 1.610 . S
N2047 S2046 1.613 . S
N2047 C2050 1.350 . S
N2048 S2046 1.610 . S
N2048 C2049 1.351 . S
C2049 C2043 1.428 . S
C2049 N2048 1.351 . S
C2049 C2050 1.434 . S
C2050 C2041 1.429 . S
C2050 N2047 1.350 . S
C2050 C2049 1.434 . S
C2051 C2052 1.369 . S
C2051 C2053 1.419 . S
C2051 H2055 0.930 . S
C2052 C2051 1.369 . S
C2052 C2061 1.429 . S
C2053 C2051 1.419 . S
C2053 C2054 1.363 . S
C2053 H2056 0.929 . S
C2054 C2053 1.363 . S
C2054 C2060 1.428 . S
H2055 C2051 0.930 . S
H2056 C2053 0.929 . S
S2057 N2058 1.613 . S
S2057 N2059 1.610 . S
N2058 S2057 1.613 . S
N2058 C2061 1.350 . S
N2059 S2057 1.610 . S
N2059 C2060 1.351 . S
C2060 C2054 1.428 . S
C2060 N2059 1.351 . S
C2060 C2061 1.434 . S
C2061 C2052 1.429 . S
C2061 N2058 1.350 . S
C2061 C2060 1.434 . S
C2062 C2063 1.369 . S
C2062 C2064 1.419 . S
C2062 H2066 0.930 . S
C2063 C2062 1.369 . S
C2063 C2072 1.429 . S
C2064 C2062 1.419 . S
C2064 C2065 1.363 . S
C2064 H2067 0.929 . S
C2065 C2064 1.363 . S
C2065 C2071 1.428 . S
H2066 C2062 0.930 . S
H2067 C2064 0.929 . S
S2068 N2069 1.613 . S
S2068 N2070 1.610 . S
N2069 S2068 1.613 . S
N2069 C2072 1.350 . S
N2070 S2068 1.610 . S
N2070 C2071 1.351 . S
C2071 C2065 1.428 . S
C2071 N2070 1.351 . S
C2071 C2072 1.434 . S
C2072 C2063 1.429 . S
C2072 N2069 1.350 . S
C2072 C2071 1.434 . S
C2073 C2074 1.369 . S
C2073 C2075 1.419 . S
C2073 H2077 0.930 . S
C2074 C2073 1.369 . S
C2074 C2083 1.429 . S
C2075 C2073 1.419 . S
C2075 C2076 1.363 . S
C2075 H2078 0.929 . S
C2076 C2075 1.363 . S
C2076 C2082 1.428 . S
H2077 C2073 0.930 . S
H2078 C2075 0.929 . S
S2079 N2080 1.613 . S
S2079 N2081 1.610 . S
N2080 S2079 1.613 . S
N2080 C2083 1.350 . S
N2081 S2079 1.610 . S
N2081 C2082 1.351 . S
C2082 C2076 1.428 . S
C2082 N2081 1.351 . S
C2082 C2083 1.434 . S
C2083 C2074 1.429 . S
C2083 N2080 1.350 . S
C2083 C2082 1.434 . S
C2084 C2085 1.369 . S
C2084 C2086 1.419 . S
C2084 H2088 0.930 . S
C2085 C2084 1.369 . S
C2085 C2094 1.429 . S
C2086 C2084 1.419 . S
C2086 C2087 1.363 . S
C2086 H2089 0.929 . S
C2087 C2086 1.363 . S
C2087 C2093 1.428 . S
H2088 C2084 0.930 . S
H2089 C2086 0.929 . S
S2090 N2091 1.613 . S
S2090 N2092 1.610 . S
N2091 S2090 1.613 . S
N2091 C2094 1.350 . S
N2092 S2090 1.610 . S
N2092 C2093 1.351 . S
C2093 C2087 1.428 . S
C2093 N2092 1.351 . S
C2093 C2094 1.434 . S
C2094 C2085 1.429 . S
C2094 N2091 1.350 . S
C2094 C2093 1.434 . S
C2095 C2096 1.369 . S
C2095 C2097 1.419 . S
C2095 H2099 0.930 . S
C2096 C2095 1.369 . S
C2096 C2105 1.429 . S
C2097 C2095 1.419 . S
C2097 C2098 1.363 . S
C2097 H2100 0.929 . S
C2098 C2097 1.363 . S
C2098 C2104 1.428 . S
H2099 C2095 0.930 . S
H2100 C2097 0.929 . S
S2101 N2102 1.613 . S
S2101 N2103 1.610 . S
N2102 S2101 1.613 . S
N2102 C2105 1.350 . S
N2103 S2101 1.610 . S
N2103 C2104 1.351 . S
C2104 C2098 1.428 . S
C2104 N2103 1.351 . S
C2104 C2105 1.434 . S
C2105 C2096 1.429 . S
C2105 N2102 1.350 . S
C2105 C2104 1.434 . S
C2106 C2107 1.369 . S
C2106 C2108 1.419 . S
C2106 H2110 0.930 . S
C2107 C2106 1.369 . S
C2107 C2116 1.429 . S
C2108 C2106 1.419 . S
C2108 C2109 1.363 . S
C2108 H2111 0.929 . S
C2109 C2108 1.363 . S
C2109 C2115 1.428 . S
H2110 C2106 0.930 . S
H2111 C2108 0.929 . S
S2112 N2113 1.613 . S
S2112 N2114 1.610 . S
N2113 S2112 1.613 . S
N2113 C2116 1.350 . S
N2114 S2112 1.610 . S
N2114 C2115 1.351 . S
C2115 C2109 1.428 . S
C2115 N2114 1.351 . S
C2115 C2116 1.434 . S
C2116 C2107 1.429 . S
C2116 N2113 1.350 . S
C2116 C2115 1.434 . S
C2117 C2118 1.369 . S
C2117 C2119 1.419 . S
C2117 H2121 0.930 . S
C2118 C2117 1.369 . S
C2118 C2127 1.429 . S
C2119 C2117 1.419 . S
C2119 C2120 1.363 . S
C2119 H2122 0.929 . S
C2120 C2119 1.363 . S
C2120 C2126 1.428 . S
H2121 C2117 0.930 . S
H2122 C2119 0.929 . S
S2123 N2124 1.613 . S
S2123 N2125 1.610 . S
N2124 S2123 1.613 . S
N2124 C2127 1.350 . S
N2125 S2123 1.610 . S
N2125 C2126 1.351 . S
C2126 C2120 1.428 . S
C2126 N2125 1.351 . S
C2126 C2127 1.434 . S
C2127 C2118 1.429 . S
C2127 N2124 1.350 . S
C2127 C2126 1.434 . S
C2128 C2129 1.369 . S
C2128 C2130 1.419 . S
C2128 H2132 0.930 . S
C2129 C2128 1.369 . S
C2129 C2138 1.429 . S
C2130 C2128 1.419 . S
C2130 C2131 1.363 . S
C2130 H2133 0.929 . S
C2131 C2130 1.363 . S
C2131 C2137 1.428 . S
H2132 C2128 0.930 . S
H2133 C2130 0.929 . S
S2134 N2135 1.613 . S
S2134 N2136 1.610 . S
N2135 S2134 1.613 . S
N2135 C2138 1.350 . S
N2136 S2134 1.610 . S
N2136 C2137 1.351 . S
C2137 C2131 1.428 . S
C2137 N2136 1.351 . S
C2137 C2138 1.434 . S
C2138 C2129 1.429 . S
C2138 N2135 1.350 . S
C2138 C2137 1.434 . S
C2139 C2140 1.369 . S
C2139 C2141 1.419 . S
C2139 H2143 0.930 . S
C2140 C2139 1.369 . S
C2140 C2149 1.429 . S
C2141 C2139 1.419 . S
C2141 C2142 1.363 . S
C2141 H2144 0.929 . S
C2142 C2141 1.363 . S
C2142 C2148 1.428 . S
H2143 C2139 0.930 . S
H2144 C2141 0.929 . S
S2145 N2146 1.613 . S
S2145 N2147 1.610 . S
N2146 S2145 1.613 . S
N2146 C2149 1.350 . S
N2147 S2145 1.610 . S
N2147 C2148 1.351 . S
C2148 C2142 1.428 . S
C2148 N2147 1.351 . S
C2148 C2149 1.434 . S
C2149 C2140 1.429 . S
C2149 N2146 1.350 . S
C2149 C2148 1.434 . S
C2150 C2151 1.369 . S
C2150 C2152 1.419 . S
C2150 H2154 0.930 . S
C2151 C2150 1.369 . S
C2151 C2160 1.429 . S
C2152 C2150 1.419 . S
C2152 C2153 1.363 . S
C2152 H2155 0.929 . S
C2153 C2152 1.363 . S
C2153 C2159 1.428 . S
H2154 C2150 0.930 . S
H2155 C2152 0.929 . S
S2156 N2157 1.613 . S
S2156 N2158 1.610 . S
N2157 S2156 1.613 . S
N2157 C2160 1.350 . S
N2158 S2156 1.610 . S
N2158 C2159 1.351 . S
C2159 C2153 1.428 . S
C2159 N2158 1.351 . S
C2159 C2160 1.434 . S
C2160 C2151 1.429 . S
C2160 N2157 1.350 . S
C2160 C2159 1.434 . S
C2161 C2162 1.369 . S
C2161 C2163 1.419 . S
C2161 H2165 0.930 . S
C2162 C2161 1.369 . S
C2162 C2171 1.429 . S
C2163 C2161 1.419 . S
C2163 C2164 1.363 . S
C2163 H2166 0.929 . S
C2164 C2163 1.363 . S
C2164 C2170 1.428 . S
H2165 C2161 0.930 . S
H2166 C2163 0.929 . S
S2167 N2168 1.613 . S
S2167 N2169 1.610 . S
N2168 S2167 1.613 . S
N2168 C2171 1.350 . S
N2169 S2167 1.610 . S
N2169 C2170 1.351 . S
C2170 C2164 1.428 . S
C2170 N2169 1.351 . S
C2170 C2171 1.434 . S
C2171 C2162 1.429 . S
C2171 N2168 1.350 . S
C2171 C2170 1.434 . S
C2172 C2173 1.369 . S
C2172 C2174 1.419 . S
C2172 H2176 0.930 . S
C2173 C2172 1.369 . S
C2173 C2182 1.429 . S
C2174 C2172 1.419 . S
C2174 C2175 1.363 . S
C2174 H2177 0.929 . S
C2175 C2174 1.363 . S
C2175 C2181 1.428 . S
H2176 C2172 0.930 . S
H2177 C2174 0.929 . S
S2178 N2179 1.613 . S
S2178 N2180 1.610 . S
N2179 S2178 1.613 . S
N2179 C2182 1.350 . S
N2180 S2178 1.610 . S
N2180 C2181 1.351 . S
C2181 C2175 1.428 . S
C2181 N2180 1.351 . S
C2181 C2182 1.434 . S
C2182 C2173 1.429 . S
C2182 N2179 1.350 . S
C2182 C2181 1.434 . S
C2183 C2184 1.369 . S
C2183 C2185 1.419 . S
C2183 H2187 0.930 . S
C2184 C2183 1.369 . S
C2184 C2193 1.429 . S
C2185 C2183 1.419 . S
C2185 C2186 1.363 . S
C2185 H2188 0.929 . S
C2186 C2185 1.363 . S
C2186 C2192 1.428 . S
H2187 C2183 0.930 . S
H2188 C2185 0.929 . S
S2189 N2190 1.613 . S
S2189 N2191 1.610 . S
N2190 S2189 1.613 . S
N2190 C2193 1.350 . S
N2191 S2189 1.610 . S
N2191 C2192 1.351 . S
C2192 C2186 1.428 . S
C2192 N2191 1.351 . S
C2192 C2193 1.434 . S
C2193 C2184 1.429 . S
C2193 N2190 1.350 . S
C2193 C2192 1.434 . S
C2194 C2195 1.369 . S
C2194 C2196 1.419 . S
C2194 H2198 0.930 . S
C2195 C2194 1.369 . S
C2195 C2204 1.429 . S
C2196 C2194 1.419 . S
C2196 C2197 1.363 . S
C2196 H2199 0.929 . S
C2197 C2196 1.363 . S
C2197 C2203 1.428 . S
H2198 C2194 0.930 . S
H2199 C2196 0.929 . S
S2200 N2201 1.613 . S
S2200 N2202 1.610 . S
N2201 S2200 1.613 . S
N2201 C2204 1.350 . S
N2202 S2200 1.610 . S
N2202 C2203 1.351 . S
C2203 C2197 1.428 . S
C2203 N2202 1.351 . S
C2203 C2204 1.434 . S
C2204 C2195 1.429 . S
C2204 N2201 1.350 . S
C2204 C2203 1.434 . S
C2205 C2206 1.369 . S
C2205 C2207 1.419 . S
C2205 H2209 0.930 . S
C2206 C2205 1.369 . S
C2206 C2215 1.429 . S
C2207 C2205 1.419 . S
C2207 C2208 1.363 . S
C2207 H2210 0.929 . S
C2208 C2207 1.363 . S
C2208 C2214 1.428 . S
H2209 C2205 0.930 . S
H2210 C2207 0.929 . S
S2211 N2212 1.613 . S
S2211 N2213 1.610 . S
N2212 S2211 1.613 . S
N2212 C2215 1.350 . S
N2213 S2211 1.610 . S
N2213 C2214 1.351 . S
C2214 C2208 1.428 . S
C2214 N2213 1.351 . S
C2214 C2215 1.434 . S
C2215 C2206 1.429 . S
C2215 N2212 1.350 . S
C2215 C2214 1.434 . S
C2216 C2217 1.369 . S
C2216 C2218 1.419 . S
C2216 H2220 0.930 . S
C2217 C2216 1.369 . S
C2217 C2226 1.429 . S
C2218 C2216 1.419 . S
C2218 C2219 1.363 . S
C2218 H2221 0.929 . S
C2219 C2218 1.363 . S
C2219 C2225 1.428 . S
H2220 C2216 0.930 . S
H2221 C2218 0.929 . S
S2222 N2223 1.613 . S
S2222 N2224 1.610 . S
N2223 S2222 1.613 . S
N2223 C2226 1.350 . S
N2224 S2222 1.610 . S
N2224 C2225 1.351 . S
C2225 C2219 1.428 . S
C2225 N2224 1.351 . S
C2225 C2226 1.434 . S
C2226 C2217 1.429 . S
C2226 N2223 1.350 . S
C2226 C2225 1.434 . S
C2227 C2228 1.369 . S
C2227 C2229 1.419 . S
C2227 H2231 0.930 . S
C2228 C2227 1.369 . S
C2228 C2237 1.429 . S
C2229 C2227 1.419 . S
C2229 C2230 1.363 . S
C2229 H2232 0.929 . S
C2230 C2229 1.363 . S
C2230 C2236 1.428 . S
H2231 C2227 0.930 . S
H2232 C2229 0.929 . S
S2233 N2234 1.613 . S
S2233 N2235 1.610 . S
N2234 S2233 1.613 . S
N2234 C2237 1.350 . S
N2235 S2233 1.610 . S
N2235 C2236 1.351 . S
C2236 C2230 1.428 . S
C2236 N2235 1.351 . S
C2236 C2237 1.434 . S
C2237 C2228 1.429 . S
C2237 N2234 1.350 . S
C2237 C2236 1.434 . S
C2238 C2239 1.369 . S
C2238 C2240 1.419 . S
C2238 H2242 0.930 . S
C2239 C2238 1.369 . S
C2239 C2248 1.429 . S
C2240 C2238 1.419 . S
C2240 C2241 1.363 . S
C2240 H2243 0.929 . S
C2241 C2240 1.363 . S
C2241 C2247 1.428 . S
H2242 C2238 0.930 . S
H2243 C2240 0.929 . S
S2244 N2245 1.613 . S
S2244 N2246 1.610 . S
N2245 S2244 1.613 . S
N2245 C2248 1.350 . S
N2246 S2244 1.610 . S
N2246 C2247 1.351 . S
C2247 C2241 1.428 . S
C2247 N2246 1.351 . S
C2247 C2248 1.434 . S
C2248 C2239 1.429 . S
C2248 N2245 1.350 . S
C2248 C2247 1.434 . S
C2249 C2250 1.369 . S
C2249 C2251 1.419 . S
C2249 H2253 0.930 . S
C2250 C2249 1.369 . S
C2250 C2259 1.429 . S
C2251 C2249 1.419 . S
C2251 C2252 1.363 . S
C2251 H2254 0.929 . S
C2252 C2251 1.363 . S
C2252 C2258 1.428 . S
H2253 C2249 0.930 . S
H2254 C2251 0.929 . S
S2255 N2256 1.613 . S
S2255 N2257 1.610 . S
N2256 S2255 1.613 . S
N2256 C2259 1.350 . S
N2257 S2255 1.610 . S
N2257 C2258 1.351 . S
C2258 C2252 1.428 . S
C2258 N2257 1.351 . S
C2258 C2259 1.434 . S
C2259 C2250 1.429 . S
C2259 N2256 1.350 . S
C2259 C2258 1.434 . S
C2260 C2261 1.369 . S
C2260 C2262 1.419 . S
C2260 H2264 0.930 . S
C2261 C2260 1.369 . S
C2261 C2270 1.429 . S
C2262 C2260 1.419 . S
C2262 C2263 1.363 . S
C2262 H2265 0.929 . S
C2263 C2262 1.363 . S
C2263 C2269 1.428 . S
H2264 C2260 0.930 . S
H2265 C2262 0.929 . S
S2266 N2267 1.613 . S
S2266 N2268 1.610 . S
N2267 S2266 1.613 . S
N2267 C2270 1.350 . S
N2268 S2266 1.610 . S
N2268 C2269 1.351 . S
C2269 C2263 1.428 . S
C2269 N2268 1.351 . S
C2269 C2270 1.434 . S
C2270 C2261 1.429 . S
C2270 N2267 1.350 . S
C2270 C2269 1.434 . S
C2271 C2272 1.369 . S
C2271 C2273 1.419 . S
C2271 H2275 0.930 . S
C2272 C2271 1.369 . S
C2272 C2281 1.429 . S
C2273 C2271 1.419 . S
C2273 C2274 1.363 . S
C2273 H2276 0.929 . S
C2274 C2273 1.363 . S
C2274 C2280 1.428 . S
H2275 C2271 0.930 . S
H2276 C2273 0.929 . S
S2277 N2278 1.613 . S
S2277 N2279 1.610 . S
N2278 S2277 1.613 . S
N2278 C2281 1.350 . S
N2279 S2277 1.610 . S
N2279 C2280 1.351 . S
C2280 C2274 1.428 . S
C2280 N2279 1.351 . S
C2280 C2281 1.434 . S
C2281 C2272 1.429 . S
C2281 N2278 1.350 . S
C2281 C2280 1.434 . S
C2282 C2283 1.369 . S
C2282 C2284 1.419 . S
C2282 H2286 0.930 . S
C2283 C2282 1.369 . S
C2283 C2292 1.429 . S
C2284 C2282 1.419 . S
C2284 C2285 1.363 . S
C2284 H2287 0.929 . S
C2285 C2284 1.363 . S
C2285 C2291 1.428 . S
H2286 C2282 0.930 . S
H2287 C2284 0.929 . S
S2288 N2289 1.613 . S
S2288 N2290 1.610 . S
N2289 S2288 1.613 . S
N2289 C2292 1.350 . S
N2290 S2288 1.610 . S
N2290 C2291 1.351 . S
C2291 C2285 1.428 . S
C2291 N2290 1.351 . S
C2291 C2292 1.434 . S
C2292 C2283 1.429 . S
C2292 N2289 1.350 . S
C2292 C2291 1.434 . S
C2293 C2294 1.369 . S
C2293 C2295 1.419 . S
C2293 H2297 0.930 . S
C2294 C2293 1.369 . S
C2294 C2303 1.429 . S
C2295 C2293 1.419 . S
C2295 C2296 1.363 . S
C2295 H2298 0.929 . S
C2296 C2295 1.363 . S
C2296 C2302 1.428 . S
H2297 C2293 0.930 . S
H2298 C2295 0.929 . S
S2299 N2300 1.613 . S
S2299 N2301 1.610 . S
N2300 S2299 1.613 . S
N2300 C2303 1.350 . S
N2301 S2299 1.610 . S
N2301 C2302 1.351 . S
C2302 C2296 1.428 . S
C2302 N2301 1.351 . S
C2302 C2303 1.434 . S
C2303 C2294 1.429 . S
C2303 N2300 1.350 . S
C2303 C2302 1.434 . S
C2304 C2305 1.369 . S
C2304 C2306 1.419 . S
C2304 H2308 0.930 . S
C2305 C2304 1.369 . S
C2305 C2314 1.429 . S
C2306 C2304 1.419 . S
C2306 C2307 1.363 . S
C2306 H2309 0.929 . S
C2307 C2306 1.363 . S
C2307 C2313 1.428 . S
H2308 C2304 0.930 . S
H2309 C2306 0.929 . S
S2310 N2311 1.613 . S
S2310 N2312 1.610 . S
N2311 S2310 1.613 . S
N2311 C2314 1.350 . S
N2312 S2310 1.610 . S
N2312 C2313 1.351 . S
C2313 C2307 1.428 . S
C2313 N2312 1.351 . S
C2313 C2314 1.434 . S
C2314 C2305 1.429 . S
C2314 N2311 1.350 . S
C2314 C2313 1.434 . S
C2315 C2316 1.369 . S
C2315 C2317 1.419 . S
C2315 H2319 0.930 . S
C2316 C2315 1.369 . S
C2316 C2325 1.429 . S
C2317 C2315 1.419 . S
C2317 C2318 1.363 . S
C2317 H2320 0.929 . S
C2318 C2317 1.363 . S
C2318 C2324 1.428 . S
H2319 C2315 0.930 . S
H2320 C2317 0.929 . S
S2321 N2322 1.613 . S
S2321 N2323 1.610 . S
N2322 S2321 1.613 . S
N2322 C2325 1.350 . S
N2323 S2321 1.610 . S
N2323 C2324 1.351 . S
C2324 C2318 1.428 . S
C2324 N2323 1.351 . S
C2324 C2325 1.434 . S
C2325 C2316 1.429 . S
C2325 N2322 1.350 . S
C2325 C2324 1.434 . S
C2326 C2327 1.369 . S
C2326 C2328 1.419 . S
C2326 H2330 0.930 . S
C2327 C2326 1.369 . S
C2327 C2336 1.429 . S
C2328 C2326 1.419 . S
C2328 C2329 1.363 . S
C2328 H2331 0.929 . S
C2329 C2328 1.363 . S
C2329 C2335 1.428 . S
H2330 C2326 0.930 . S
H2331 C2328 0.929 . S
S2332 N2333 1.613 . S
S2332 N2334 1.610 . S
N2333 S2332 1.613 . S
N2333 C2336 1.350 . S
N2334 S2332 1.610 . S
N2334 C2335 1.351 . S
C2335 C2329 1.428 . S
C2335 N2334 1.351 . S
C2335 C2336 1.434 . S
C2336 C2327 1.429 . S
C2336 N2333 1.350 . S
C2336 C2335 1.434 . S
C2337 C2338 1.369 . S
C2337 C2339 1.419 . S
C2337 H2341 0.930 . S
C2338 C2337 1.369 . S
C2338 C2347 1.429 . S
C2339 C2337 1.419 . S
C2339 C2340 1.363 . S
C2339 H2342 0.929 . S
C2340 C2339 1.363 . S
C2340 C2346 1.428 . S
H2341 C2337 0.930 . S
H2342 C2339 0.929 . S
S2343 N2344 1.613 . S
S2343 N2345 1.610 . S
N2344 S2343 1.613 . S
N2344 C2347 1.350 . S
N2345 S2343 1.610 . S
N2345 C2346 1.351 . S
C2346 C2340 1.428 . S
C2346 N2345 1.351 . S
C2346 C2347 1.434 . S
C2347 C2338 1.429 . S
C2347 N2344 1.350 . S
C2347 C2346 1.434 . S
C2348 C2349 1.369 . S
C2348 C2350 1.419 . S
C2348 H2352 0.930 . S
C2349 C2348 1.369 . S
C2349 C2358 1.429 . S
C2350 C2348 1.419 . S
C2350 C2351 1.363 . S
C2350 H2353 0.929 . S
C2351 C2350 1.363 . S
C2351 C2357 1.428 . S
H2352 C2348 0.930 . S
H2353 C2350 0.929 . S
S2354 N2355 1.613 . S
S2354 N2356 1.610 . S
N2355 S2354 1.613 . S
N2355 C2358 1.350 . S
N2356 S2354 1.610 . S
N2356 C2357 1.351 . S
C2357 C2351 1.428 . S
C2357 N2356 1.351 . S
C2357 C2358 1.434 . S
C2358 C2349 1.429 . S
C2358 N2355 1.350 . S
C2358 C2357 1.434 . S
C2359 C2360 1.369 . S
C2359 C2361 1.419 . S
C2359 H2363 0.930 . S
C2360 C2359 1.369 . S
C2360 C2369 1.429 . S
C2361 C2359 1.419 . S
C2361 C2362 1.363 . S
C2361 H2364 0.929 . S
C2362 C2361 1.363 . S
C2362 C2368 1.428 . S
H2363 C2359 0.930 . S
H2364 C2361 0.929 . S
S2365 N2366 1.613 . S
S2365 N2367 1.610 . S
N2366 S2365 1.613 . S
N2366 C2369 1.350 . S
N2367 S2365 1.610 . S
N2367 C2368 1.351 . S
C2368 C2362 1.428 . S
C2368 N2367 1.351 . S
C2368 C2369 1.434 . S
C2369 C2360 1.429 . S
C2369 N2366 1.350 . S
C2369 C2368 1.434 . S
C2370 C2371 1.369 . S
C2370 C2372 1.419 . S
C2370 H2374 0.930 . S
C2371 C2370 1.369 . S
C2371 C2380 1.429 . S
C2372 C2370 1.419 . S
C2372 C2373 1.363 . S
C2372 H2375 0.929 . S
C2373 C2372 1.363 . S
C2373 C2379 1.428 . S
H2374 C2370 0.930 . S
H2375 C2372 0.929 . S
S2376 N2377 1.613 . S
S2376 N2378 1.610 . S
N2377 S2376 1.613 . S
N2377 C2380 1.350 . S
N2378 S2376 1.610 . S
N2378 C2379 1.351 . S
C2379 C2373 1.428 . S
C2379 N2378 1.351 . S
C2379 C2380 1.434 . S
C2380 C2371 1.429 . S
C2380 N2377 1.350 . S
C2380 C2379 1.434 . S
C2381 C2382 1.369 . S
C2381 C2383 1.419 . S
C2381 H2385 0.930 . S
C2382 C2381 1.369 . S
C2382 C2391 1.429 . S
C2383 C2381 1.419 . S
C2383 C2384 1.363 . S
C2383 H2386 0.929 . S
C2384 C2383 1.363 . S
C2384 C2390 1.428 . S
H2385 C2381 0.930 . S
H2386 C2383 0.929 . S
S2387 N2388 1.613 . S
S2387 N2389 1.610 . S
N2388 S2387 1.613 . S
N2388 C2391 1.350 . S
N2389 S2387 1.610 . S
N2389 C2390 1.351 . S
C2390 C2384 1.428 . S
C2390 N2389 1.351 . S
C2390 C2391 1.434 . S
C2391 C2382 1.429 . S
C2391 N2388 1.350 . S
C2391 C2390 1.434 . S
C2392 C2393 1.369 . S
C2392 C2394 1.419 . S
C2392 H2396 0.930 . S
C2393 C2392 1.369 . S
C2393 C2402 1.429 . S
C2394 C2392 1.419 . S
C2394 C2395 1.363 . S
C2394 H2397 0.929 . S
C2395 C2394 1.363 . S
C2395 C2401 1.428 . S
H2396 C2392 0.930 . S
H2397 C2394 0.929 . S
S2398 N2399 1.613 . S
S2398 N2400 1.610 . S
N2399 S2398 1.613 . S
N2399 C2402 1.350 . S
N2400 S2398 1.610 . S
N2400 C2401 1.351 . S
C2401 C2395 1.428 . S
C2401 N2400 1.351 . S
C2401 C2402 1.434 . S
C2402 C2393 1.429 . S
C2402 N2399 1.350 . S
C2402 C2401 1.434 . S
C2403 C2404 1.369 . S
C2403 C2405 1.419 . S
C2403 H2407 0.930 . S
C2404 C2403 1.369 . S
C2404 C2413 1.429 . S
C2405 C2403 1.419 . S
C2405 C2406 1.363 . S
C2405 H2408 0.929 . S
C2406 C2405 1.363 . S
C2406 C2412 1.428 . S
H2407 C2403 0.930 . S
H2408 C2405 0.929 . S
S2409 N2410 1.613 . S
S2409 N2411 1.610 . S
N2410 S2409 1.613 . S
N2410 C2413 1.350 . S
N2411 S2409 1.610 . S
N2411 C2412 1.351 . S
C2412 C2406 1.428 . S
C2412 N2411 1.351 . S
C2412 C2413 1.434 . S
C2413 C2404 1.429 . S
C2413 N2410 1.350 . S
C2413 C2412 1.434 . S
C2414 C2415 1.369 . S
C2414 C2416 1.419 . S
C2414 H2418 0.930 . S
C2415 C2414 1.369 . S
C2415 C2424 1.429 . S
C2416 C2414 1.419 . S
C2416 C2417 1.363 . S
C2416 H2419 0.929 . S
C2417 C2416 1.363 . S
C2417 C2423 1.428 . S
H2418 C2414 0.930 . S
H2419 C2416 0.929 . S
S2420 N2421 1.613 . S
S2420 N2422 1.610 . S
N2421 S2420 1.613 . S
N2421 C2424 1.350 . S
N2422 S2420 1.610 . S
N2422 C2423 1.351 . S
C2423 C2417 1.428 . S
C2423 N2422 1.351 . S
C2423 C2424 1.434 . S
C2424 C2415 1.429 . S
C2424 N2421 1.350 . S
C2424 C2423 1.434 . S
C2425 C2426 1.369 . S
C2425 C2427 1.419 . S
C2425 H2429 0.930 . S
C2426 C2425 1.369 . S
C2426 C2435 1.429 . S
C2427 C2425 1.419 . S
C2427 C2428 1.363 . S
C2427 H2430 0.929 . S
C2428 C2427 1.363 . S
C2428 C2434 1.428 . S
H2429 C2425 0.930 . S
H2430 C2427 0.929 . S
S2431 N2432 1.613 . S
S2431 N2433 1.610 . S
N2432 S2431 1.613 . S
N2432 C2435 1.350 . S
N2433 S2431 1.610 . S
N2433 C2434 1.351 . S
C2434 C2428 1.428 . S
C2434 N2433 1.351 . S
C2434 C2435 1.434 . S
C2435 C2426 1.429 . S
C2435 N2432 1.350 . S
C2435 C2434 1.434 . S
C2436 C2437 1.369 . S
C2436 C2438 1.419 . S
C2436 H2440 0.930 . S
C2437 C2436 1.369 . S
C2437 C2446 1.429 . S
C2438 C2436 1.419 . S
C2438 C2439 1.363 . S
C2438 H2441 0.929 . S
C2439 C2438 1.363 . S
C2439 C2445 1.428 . S
H2440 C2436 0.930 . S
H2441 C2438 0.929 . S
S2442 N2443 1.613 . S
S2442 N2444 1.610 . S
N2443 S2442 1.613 . S
N2443 C2446 1.350 . S
N2444 S2442 1.610 . S
N2444 C2445 1.351 . S
C2445 C2439 1.428 . S
C2445 N2444 1.351 . S
C2445 C2446 1.434 . S
C2446 C2437 1.429 . S
C2446 N2443 1.350 . S
C2446 C2445 1.434 . S
C2447 C2448 1.369 . S
C2447 C2449 1.419 . S
C2447 H2451 0.930 . S
C2448 C2447 1.369 . S
C2448 C2457 1.429 . S
C2449 C2447 1.419 . S
C2449 C2450 1.363 . S
C2449 H2452 0.929 . S
C2450 C2449 1.363 . S
C2450 C2456 1.428 . S
H2451 C2447 0.930 . S
H2452 C2449 0.929 . S
S2453 N2454 1.613 . S
S2453 N2455 1.610 . S
N2454 S2453 1.613 . S
N2454 C2457 1.350 . S
N2455 S2453 1.610 . S
N2455 C2456 1.351 . S
C2456 C2450 1.428 . S
C2456 N2455 1.351 . S
C2456 C2457 1.434 . S
C2457 C2448 1.429 . S
C2457 N2454 1.350 . S
C2457 C2456 1.434 . S
C2458 C2459 1.369 . S
C2458 C2460 1.419 . S
C2458 H2462 0.930 . S
C2459 C2458 1.369 . S
C2459 C2468 1.429 . S
C2460 C2458 1.419 . S
C2460 C2461 1.363 . S
C2460 H2463 0.929 . S
C2461 C2460 1.363 . S
C2461 C2467 1.428 . S
H2462 C2458 0.930 . S
H2463 C2460 0.929 . S
S2464 N2465 1.613 . S
S2464 N2466 1.610 . S
N2465 S2464 1.613 . S
N2465 C2468 1.350 . S
N2466 S2464 1.610 . S
N2466 C2467 1.351 . S
C2467 C2461 1.428 . S
C2467 N2466 1.351 . S
C2467 C2468 1.434 . S
C2468 C2459 1.429 . S
C2468 N2465 1.350 . S
C2468 C2467 1.434 . S
C2469 C2470 1.369 . S
C2469 C2471 1.419 . S
C2469 H2473 0.930 . S
C2470 C2469 1.369 . S
C2470 C2479 1.429 . S
C2471 C2469 1.419 . S
C2471 C2472 1.363 . S
C2471 H2474 0.929 . S
C2472 C2471 1.363 . S
C2472 C2478 1.428 . S
H2473 C2469 0.930 . S
H2474 C2471 0.929 . S
S2475 N2476 1.613 . S
S2475 N2477 1.610 . S
N2476 S2475 1.613 . S
N2476 C2479 1.350 . S
N2477 S2475 1.610 . S
N2477 C2478 1.351 . S
C2478 C2472 1.428 . S
C2478 N2477 1.351 . S
C2478 C2479 1.434 . S
C2479 C2470 1.429 . S
C2479 N2476 1.350 . S
C2479 C2478 1.434 . S
C2480 C2481 1.369 . S
C2480 C2482 1.419 . S
C2480 H2484 0.930 . S
C2481 C2480 1.369 . S
C2481 C2490 1.429 . S
C2482 C2480 1.419 . S
C2482 C2483 1.363 . S
C2482 H2485 0.929 . S
C2483 C2482 1.363 . S
C2483 C2489 1.428 . S
H2484 C2480 0.930 . S
H2485 C2482 0.929 . S
S2486 N2487 1.613 . S
S2486 N2488 1.610 . S
N2487 S2486 1.613 . S
N2487 C2490 1.350 . S
N2488 S2486 1.610 . S
N2488 C2489 1.351 . S
C2489 C2483 1.428 . S
C2489 N2488 1.351 . S
C2489 C2490 1.434 . S
C2490 C2481 1.429 . S
C2490 N2487 1.350 . S
C2490 C2489 1.434 . S
C2491 C2492 1.369 . S
C2491 C2493 1.419 . S
C2491 H2495 0.930 . S
C2492 C2491 1.369 . S
C2492 C2501 1.429 . S
C2493 C2491 1.419 . S
C2493 C2494 1.363 . S
C2493 H2496 0.929 . S
C2494 C2493 1.363 . S
C2494 C2500 1.428 . S
H2495 C2491 0.930 . S
H2496 C2493 0.929 . S
S2497 N2498 1.613 . S
S2497 N2499 1.610 . S
N2498 S2497 1.613 . S
N2498 C2501 1.350 . S
N2499 S2497 1.610 . S
N2499 C2500 1.351 . S
C2500 C2494 1.428 . S
C2500 N2499 1.351 . S
C2500 C2501 1.434 . S
C2501 C2492 1.429 . S
C2501 N2498 1.350 . S
C2501 C2500 1.434 . S
C2502 C2503 1.369 . S
C2502 C2504 1.419 . S
C2502 H2506 0.930 . S
C2503 C2502 1.369 . S
C2503 C2512 1.429 . S
C2504 C2502 1.419 . S
C2504 C2505 1.363 . S
C2504 H2507 0.929 . S
C2505 C2504 1.363 . S
C2505 C2511 1.428 . S
H2506 C2502 0.930 . S
H2507 C2504 0.929 . S
S2508 N2509 1.613 . S
S2508 N2510 1.610 . S
N2509 S2508 1.613 . S
N2509 C2512 1.350 . S
N2510 S2508 1.610 . S
N2510 C2511 1.351 . S
C2511 C2505 1.428 . S
C2511 N2510 1.351 . S
C2511 C2512 1.434 . S
C2512 C2503 1.429 . S
C2512 N2509 1.350 . S
C2512 C2511 1.434 . S
C2513 C2514 1.369 . S
C2513 C2515 1.419 . S
C2513 H2517 0.930 . S
C2514 C2513 1.369 . S
C2514 C2523 1.429 . S
C2515 C2513 1.419 . S
C2515 C2516 1.363 . S
C2515 H2518 0.929 . S
C2516 C2515 1.363 . S
C2516 C2522 1.428 . S
H2517 C2513 0.930 . S
H2518 C2515 0.929 . S
S2519 N2520 1.613 . S
S2519 N2521 1.610 . S
N2520 S2519 1.613 . S
N2520 C2523 1.350 . S
N2521 S2519 1.610 . S
N2521 C2522 1.351 . S
C2522 C2516 1.428 . S
C2522 N2521 1.351 . S
C2522 C2523 1.434 . S
C2523 C2514 1.429 . S
C2523 N2520 1.350 . S
C2523 C2522 1.434 . S
C2524 C2525 1.369 . S
C2524 C2526 1.419 . S
C2524 H2528 0.930 . S
C2525 C2524 1.369 . S
C2525 C2534 1.429 . S
C2526 C2524 1.419 . S
C2526 C2527 1.363 . S
C2526 H2529 0.929 . S
C2527 C2526 1.363 . S
C2527 C2533 1.428 . S
H2528 C2524 0.930 . S
H2529 C2526 0.929 . S
S2530 N2531 1.613 . S
S2530 N2532 1.610 . S
N2531 S2530 1.613 . S
N2531 C2534 1.350 . S
N2532 S2530 1.610 . S
N2532 C2533 1.351 . S
C2533 C2527 1.428 . S
C2533 N2532 1.351 . S
C2533 C2534 1.434 . S
C2534 C2525 1.429 . S
C2534 N2531 1.350 . S
C2534 C2533 1.434 . S
C2535 C2536 1.369 . S
C2535 C2537 1.419 . S
C2535 H2539 0.930 . S
C2536 C2535 1.369 . S
C2536 C2545 1.429 . S
C2537 C2535 1.419 . S
C2537 C2538 1.363 . S
C2537 H2540 0.929 . S
C2538 C2537 1.363 . S
C2538 C2544 1.428 . S
H2539 C2535 0.930 . S
H2540 C2537 0.929 . S
S2541 N2542 1.613 . S
S2541 N2543 1.610 . S
N2542 S2541 1.613 . S
N2542 C2545 1.350 . S
N2543 S2541 1.610 . S
N2543 C2544 1.351 . S
C2544 C2538 1.428 . S
C2544 N2543 1.351 . S
C2544 C2545 1.434 . S
C2545 C2536 1.429 . S
C2545 N2542 1.350 . S
C2545 C2544 1.434 . S
C2546 C2547 1.369 . S
C2546 C2548 1.419 . S
C2546 H2550 0.930 . S
C2547 C2546 1.369 . S
C2547 C2556 1.429 . S
C2548 C2546 1.419 . S
C2548 C2549 1.363 . S
C2548 H2551 0.929 . S
C2549 C2548 1.363 . S
C2549 C2555 1.428 . S
H2550 C2546 0.930 . S
H2551 C2548 0.929 . S
S2552 N2553 1.613 . S
S2552 N2554 1.610 . S
N2553 S2552 1.613 . S
N2553 C2556 1.350 . S
N2554 S2552 1.610 . S
N2554 C2555 1.351 . S
C2555 C2549 1.428 . S
C2555 N2554 1.351 . S
C2555 C2556 1.434 . S
C2556 C2547 1.429 . S
C2556 N2553 1.350 . S
C2556 C2555 1.434 . S
C2557 C2558 1.369 . S
C2557 C2559 1.419 . S
C2557 H2561 0.930 . S
C2558 C2557 1.369 . S
C2558 C2567 1.429 . S
C2559 C2557 1.419 . S
C2559 C2560 1.363 . S
C2559 H2562 0.929 . S
C2560 C2559 1.363 . S
C2560 C2566 1.428 . S
H2561 C2557 0.930 . S
H2562 C2559 0.929 . S
S2563 N2564 1.613 . S
S2563 N2565 1.610 . S
N2564 S2563 1.613 . S
N2564 C2567 1.350 . S
N2565 S2563 1.610 . S
N2565 C2566 1.351 . S
C2566 C2560 1.428 . S
C2566 N2565 1.351 . S
C2566 C2567 1.434 . S
C2567 C2558 1.429 . S
C2567 N2564 1.350 . S
C2567 C2566 1.434 . S
C2568 C2569 1.369 . S
C2568 C2570 1.419 . S
C2568 H2572 0.930 . S
C2569 C2568 1.369 . S
C2569 C2578 1.429 . S
C2570 C2568 1.419 . S
C2570 C2571 1.363 . S
C2570 H2573 0.929 . S
C2571 C2570 1.363 . S
C2571 C2577 1.428 . S
H2572 C2568 0.930 . S
H2573 C2570 0.929 . S
S2574 N2575 1.613 . S
S2574 N2576 1.610 . S
N2575 S2574 1.613 . S
N2575 C2578 1.350 . S
N2576 S2574 1.610 . S
N2576 C2577 1.351 . S
C2577 C2571 1.428 . S
C2577 N2576 1.351 . S
C2577 C2578 1.434 . S
C2578 C2569 1.429 . S
C2578 N2575 1.350 . S
C2578 C2577 1.434 . S
C2579 C2580 1.369 . S
C2579 C2581 1.419 . S
C2579 H2583 0.930 . S
C2580 C2579 1.369 . S
C2580 C2589 1.429 . S
C2581 C2579 1.419 . S
C2581 C2582 1.363 . S
C2581 H2584 0.929 . S
C2582 C2581 1.363 . S
C2582 C2588 1.428 . S
H2583 C2579 0.930 . S
H2584 C2581 0.929 . S
S2585 N2586 1.613 . S
S2585 N2587 1.610 . S
N2586 S2585 1.613 . S
N2586 C2589 1.350 . S
N2587 S2585 1.610 . S
N2587 C2588 1.351 . S
C2588 C2582 1.428 . S
C2588 N2587 1.351 . S
C2588 C2589 1.434 . S
C2589 C2580 1.429 . S
C2589 N2586 1.350 . S
C2589 C2588 1.434 . S
C2590 C2591 1.369 . S
C2590 C2592 1.419 . S
C2590 H2594 0.930 . S
C2591 C2590 1.369 . S
C2591 C2600 1.429 . S
C2592 C2590 1.419 . S
C2592 C2593 1.363 . S
C2592 H2595 0.929 . S
C2593 C2592 1.363 . S
C2593 C2599 1.428 . S
H2594 C2590 0.930 . S
H2595 C2592 0.929 . S
S2596 N2597 1.613 . S
S2596 N2598 1.610 . S
N2597 S2596 1.613 . S
N2597 C2600 1.350 . S
N2598 S2596 1.610 . S
N2598 C2599 1.351 . S
C2599 C2593 1.428 . S
C2599 N2598 1.351 . S
C2599 C2600 1.434 . S
C2600 C2591 1.429 . S
C2600 N2597 1.350 . S
C2600 C2599 1.434 . S
C2601 C2602 1.369 . S
C2601 C2603 1.419 . S
C2601 H2605 0.930 . S
C2602 C2601 1.369 . S
C2602 C2611 1.429 . S
C2603 C2601 1.419 . S
C2603 C2604 1.363 . S
C2603 H2606 0.929 . S
C2604 C2603 1.363 . S
C2604 C2610 1.428 . S
H2605 C2601 0.930 . S
H2606 C2603 0.929 . S
S2607 N2608 1.613 . S
S2607 N2609 1.610 . S
N2608 S2607 1.613 . S
N2608 C2611 1.350 . S
N2609 S2607 1.610 . S
N2609 C2610 1.351 . S
C2610 C2604 1.428 . S
C2610 N2609 1.351 . S
C2610 C2611 1.434 . S
C2611 C2602 1.429 . S
C2611 N2608 1.350 . S
C2611 C2610 1.434 . S
C2612 C2613 1.369 . S
C2612 C2614 1.419 . S
C2612 H2616 0.930 . S
C2613 C2612 1.369 . S
C2613 C2622 1.429 . S
C2614 C2612 1.419 . S
C2614 C2615 1.363 . S
C2614 H2617 0.929 . S
C2615 C2614 1.363 . S
C2615 C2621 1.428 . S
H2616 C2612 0.930 . S
H2617 C2614 0.929 . S
S2618 N2619 1.609 1_556 S
S2618 N2620 1.610 . S
N2619 S2618 1.609 1_554 S
N2619 C2622 1.304 1_554 S
N2620 S2618 1.610 . S
N2620 C2621 1.351 . S
C2621 C2615 1.428 . S
C2621 N2620 1.351 . S
C2621 C2622 1.434 . S
C2622 C2613 1.429 . S
C2622 N2619 1.304 1_556 S
C2622 C2621 1.434 . S
C2623 C2624 1.369 . S
C2623 C2625 1.419 . S
C2623 H2627 0.930 . S
C2624 C2623 1.369 . S
C2624 C2633 1.429 . S
C2625 C2623 1.419 . S
C2625 C2626 1.363 . S
C2625 H2628 0.929 . S
C2626 C2625 1.363 . S
C2626 C2632 1.428 . S
H2627 C2623 0.930 . S
H2628 C2625 0.929 . S
S2629 N2630 1.613 . S
S2629 N2631 1.610 . S
N2630 S2629 1.613 . S
N2630 C2633 1.350 . S
N2631 S2629 1.610 . S
N2631 C2632 1.351 . S
C2632 C2626 1.428 . S
C2632 N2631 1.351 . S
C2632 C2633 1.434 . S
C2633 C2624 1.429 . S
C2633 N2630 1.350 . S
C2633 C2632 1.434 . S
C2634 C2635 1.369 . S
C2634 C2636 1.419 . S
C2634 H2638 0.930 . S
C2635 C2634 1.369 . S
C2635 C2644 1.429 . S
C2636 C2634 1.419 . S
C2636 C2637 1.363 . S
C2636 H2639 0.929 . S
C2637 C2636 1.363 . S
C2637 C2643 1.428 . S
H2638 C2634 0.930 . S
H2639 C2636 0.929 . S
S2640 N2641 1.613 . S
S2640 N2642 1.610 . S
N2641 S2640 1.613 . S
N2641 C2644 1.350 . S
N2642 S2640 1.610 . S
N2642 C2643 1.351 . S
C2643 C2637 1.428 . S
C2643 N2642 1.351 . S
C2643 C2644 1.434 . S
C2644 C2635 1.429 . S
C2644 N2641 1.350 . S
C2644 C2643 1.434 . S
C2645 C2646 1.369 . S
C2645 C2647 1.419 . S
C2645 H2649 0.930 . S
C2646 C2645 1.369 . S
C2646 C2655 1.429 . S
C2647 C2645 1.419 . S
C2647 C2648 1.363 . S
C2647 H2650 0.929 . S
C2648 C2647 1.363 . S
C2648 C2654 1.428 . S
H2649 C2645 0.930 . S
H2650 C2647 0.929 . S
S2651 N2652 1.613 . S
S2651 N2653 1.610 . S
N2652 S2651 1.613 . S
N2652 C2655 1.350 . S
N2653 S2651 1.610 . S
N2653 C2654 1.351 . S
C2654 C2648 1.428 . S
C2654 N2653 1.351 . S
C2654 C2655 1.434 . S
C2655 C2646 1.429 . S
C2655 N2652 1.350 . S
C2655 C2654 1.434 . S
C2656 C2657 1.369 . S
C2656 C2658 1.419 . S
C2656 H2660 0.930 . S
C2657 C2656 1.369 . S
C2657 C2666 1.429 . S
C2658 C2656 1.419 . S
C2658 C2659 1.363 . S
C2658 H2661 0.929 . S
C2659 C2658 1.363 . S
C2659 C2665 1.428 . S
H2660 C2656 0.930 . S
H2661 C2658 0.929 . S
S2662 N2663 1.613 . S
S2662 N2664 1.610 . S
N2663 S2662 1.613 . S
N2663 C2666 1.350 . S
N2664 S2662 1.610 . S
N2664 C2665 1.351 . S
C2665 C2659 1.428 . S
C2665 N2664 1.351 . S
C2665 C2666 1.434 . S
C2666 C2657 1.429 . S
C2666 N2663 1.350 . S
C2666 C2665 1.434 . S
C2667 C2668 1.369 . S
C2667 C2669 1.419 . S
C2667 H2671 0.930 . S
C2668 C2667 1.369 . S
C2668 C2677 1.429 . S
C2669 C2667 1.419 . S
C2669 C2670 1.363 . S
C2669 H2672 0.929 . S
C2670 C2669 1.363 . S
C2670 C2676 1.428 . S
H2671 C2667 0.930 . S
H2672 C2669 0.929 . S
S2673 N2674 1.613 . S
S2673 N2675 1.610 . S
N2674 S2673 1.613 . S
N2674 C2677 1.350 . S
N2675 S2673 1.610 . S
N2675 C2676 1.351 . S
C2676 C2670 1.428 . S
C2676 N2675 1.351 . S
C2676 C2677 1.434 . S
C2677 C2668 1.429 . S
C2677 N2674 1.350 . S
C2677 C2676 1.434 . S
C2678 C2679 1.369 . S
C2678 C2680 1.419 . S
C2678 H2682 0.930 . S
C2679 C2678 1.369 . S
C2679 C2688 1.429 . S
C2680 C2678 1.419 . S
C2680 C2681 1.363 . S
C2680 H2683 0.929 . S
C2681 C2680 1.363 . S
C2681 C2687 1.428 . S
H2682 C2678 0.930 . S
H2683 C2680 0.929 . S
S2684 N2685 1.613 . S
S2684 N2686 1.610 . S
N2685 S2684 1.613 . S
N2685 C2688 1.350 . S
N2686 S2684 1.610 . S
N2686 C2687 1.351 . S
C2687 C2681 1.428 . S
C2687 N2686 1.351 . S
C2687 C2688 1.434 . S
C2688 C2679 1.429 . S
C2688 N2685 1.350 . S
C2688 C2687 1.434 . S
C2689 C2690 1.369 . S
C2689 C2691 1.419 . S
C2689 H2693 0.930 . S
C2690 C2689 1.369 . S
C2690 C2699 1.429 . S
C2691 C2689 1.419 . S
C2691 C2692 1.363 . S
C2691 H2694 0.929 . S
C2692 C2691 1.363 . S
C2692 C2698 1.428 . S
H2693 C2689 0.930 . S
H2694 C2691 0.929 . S
S2695 N2696 1.613 . S
S2695 N2697 1.610 . S
N2696 S2695 1.613 . S
N2696 C2699 1.350 . S
N2697 S2695 1.610 . S
N2697 C2698 1.351 . S
C2698 C2692 1.428 . S
C2698 N2697 1.351 . S
C2698 C2699 1.434 . S
C2699 C2690 1.429 . S
C2699 N2696 1.350 . S
C2699 C2698 1.434 . S
C2700 C2701 1.369 . S
C2700 C2702 1.419 . S
C2700 H2704 0.930 . S
C2701 C2700 1.369 . S
C2701 C2710 1.429 . S
C2702 C2700 1.419 . S
C2702 C2703 1.363 . S
C2702 H2705 0.929 . S
C2703 C2702 1.363 . S
C2703 C2709 1.428 . S
H2704 C2700 0.930 . S
H2705 C2702 0.929 . S
S2706 N2707 1.613 . S
S2706 N2708 1.610 . S
N2707 S2706 1.613 . S
N2707 C2710 1.350 . S
N2708 S2706 1.610 . S
N2708 C2709 1.351 . S
C2709 C2703 1.428 . S
C2709 N2708 1.351 . S
C2709 C2710 1.434 . S
C2710 C2701 1.429 . S
C2710 N2707 1.350 . S
C2710 C2709 1.434 . S
C2711 C2712 1.369 . S
C2711 C2713 1.419 . S
C2711 H2715 0.930 . S
C2712 C2711 1.369 . S
C2712 C2721 1.429 . S
C2713 C2711 1.419 . S
C2713 C2714 1.363 . S
C2713 H2716 0.929 . S
C2714 C2713 1.363 . S
C2714 C2720 1.428 . S
H2715 C2711 0.930 . S
H2716 C2713 0.929 . S
S2717 N2718 1.613 . S
S2717 N2719 1.610 . S
N2718 S2717 1.613 . S
N2718 C2721 1.350 . S
N2719 S2717 1.610 . S
N2719 C2720 1.351 . S
C2720 C2714 1.428 . S
C2720 N2719 1.351 . S
C2720 C2721 1.434 . S
C2721 C2712 1.429 . S
C2721 N2718 1.350 . S
C2721 C2720 1.434 . S
C2722 C2723 1.369 . S
C2722 C2724 1.419 . S
C2722 H2726 0.930 . S
C2723 C2722 1.369 . S
C2723 C2732 1.429 . S
C2724 C2722 1.419 . S
C2724 C2725 1.363 . S
C2724 H2727 0.929 . S
C2725 C2724 1.363 . S
C2725 C2731 1.428 . S
H2726 C2722 0.930 . S
H2727 C2724 0.929 . S
S2728 N2729 1.613 . S
S2728 N2730 1.610 . S
N2729 S2728 1.613 . S
N2729 C2732 1.350 . S
N2730 S2728 1.610 . S
N2730 C2731 1.351 . S
C2731 C2725 1.428 . S
C2731 N2730 1.351 . S
C2731 C2732 1.434 . S
C2732 C2723 1.429 . S
C2732 N2729 1.350 . S
C2732 C2731 1.434 . S
C2733 C2734 1.369 . S
C2733 C2735 1.419 . S
C2733 H2737 0.930 . S
C2734 C2733 1.369 . S
C2734 C2743 1.429 . S
C2735 C2733 1.419 . S
C2735 C2736 1.363 . S
C2735 H2738 0.929 . S
C2736 C2735 1.363 . S
C2736 C2742 1.428 . S
H2737 C2733 0.930 . S
H2738 C2735 0.929 . S
S2739 N2740 1.613 . S
S2739 N2741 1.610 . S
N2740 S2739 1.613 . S
N2740 C2743 1.350 . S
N2741 S2739 1.610 . S
N2741 C2742 1.351 . S
C2742 C2736 1.428 . S
C2742 N2741 1.351 . S
C2742 C2743 1.434 . S
C2743 C2734 1.429 . S
C2743 N2740 1.350 . S
C2743 C2742 1.434 . S
C2744 C2745 1.369 . S
C2744 C2746 1.419 . S
C2744 H2748 0.930 . S
C2745 C2744 1.369 . S
C2745 C2754 1.429 . S
C2746 C2744 1.419 . S
C2746 C2747 1.363 . S
C2746 H2749 0.929 . S
C2747 C2746 1.363 . S
C2747 C2753 1.428 . S
H2748 C2744 0.930 . S
H2749 C2746 0.929 . S
S2750 N2751 1.613 . S
S2750 N2752 1.610 . S
N2751 S2750 1.613 . S
N2751 C2754 1.350 . S
N2752 S2750 1.610 . S
N2752 C2753 1.351 . S
C2753 C2747 1.428 . S
C2753 N2752 1.351 . S
C2753 C2754 1.434 . S
C2754 C2745 1.429 . S
C2754 N2751 1.350 . S
C2754 C2753 1.434 . S
C2755 C2756 1.369 . S
C2755 C2757 1.419 . S
C2755 H2759 0.930 . S
C2756 C2755 1.369 . S
C2756 C2765 1.429 . S
C2757 C2755 1.419 . S
C2757 C2758 1.363 . S
C2757 H2760 0.929 . S
C2758 C2757 1.363 . S
C2758 C2764 1.428 . S
H2759 C2755 0.930 . S
H2760 C2757 0.929 . S
S2761 N2762 1.613 . S
S2761 N2763 1.610 . S
N2762 S2761 1.613 . S
N2762 C2765 1.350 . S
N2763 S2761 1.610 . S
N2763 C2764 1.351 . S
C2764 C2758 1.428 . S
C2764 N2763 1.351 . S
C2764 C2765 1.434 . S
C2765 C2756 1.429 . S
C2765 N2762 1.350 . S
C2765 C2764 1.434 . S
C2766 C2767 1.369 . S
C2766 C2768 1.419 . S
C2766 H2770 0.930 . S
C2767 C2766 1.369 . S
C2767 C2776 1.429 . S
C2768 C2766 1.419 . S
C2768 C2769 1.363 . S
C2768 H2771 0.929 . S
C2769 C2768 1.363 . S
C2769 C2775 1.428 . S
H2770 C2766 0.930 . S
H2771 C2768 0.929 . S
S2772 N2773 1.613 . S
S2772 N2774 1.610 . S
N2773 S2772 1.613 . S
N2773 C2776 1.350 . S
N2774 S2772 1.610 . S
N2774 C2775 1.351 . S
C2775 C2769 1.428 . S
C2775 N2774 1.351 . S
C2775 C2776 1.434 . S
C2776 C2767 1.429 . S
C2776 N2773 1.350 . S
C2776 C2775 1.434 . S
C2777 C2778 1.369 . S
C2777 C2779 1.419 . S
C2777 H2781 0.930 . S
C2778 C2777 1.369 . S
C2778 C2787 1.429 . S
C2779 C2777 1.419 . S
C2779 C2780 1.363 . S
C2779 H2782 0.929 . S
C2780 C2779 1.363 . S
C2780 C2786 1.428 . S
H2781 C2777 0.930 . S
H2782 C2779 0.929 . S
S2783 N2784 1.613 . S
S2783 N2785 1.610 . S
N2784 S2783 1.613 . S
N2784 C2787 1.350 . S
N2785 S2783 1.610 . S
N2785 C2786 1.351 . S
C2786 C2780 1.428 . S
C2786 N2785 1.351 . S
C2786 C2787 1.434 . S
C2787 C2778 1.429 . S
C2787 N2784 1.350 . S
C2787 C2786 1.434 . S
C2788 C2789 1.369 . S
C2788 C2790 1.419 . S
C2788 H2792 0.930 . S
C2789 C2788 1.369 . S
C2789 C2798 1.429 . S
C2790 C2788 1.419 . S
C2790 C2791 1.363 . S
C2790 H2793 0.929 . S
C2791 C2790 1.363 . S
C2791 C2797 1.428 . S
H2792 C2788 0.930 . S
H2793 C2790 0.929 . S
S2794 N2795 1.613 . S
S2794 N2796 1.610 . S
N2795 S2794 1.613 . S
N2795 C2798 1.350 . S
N2796 S2794 1.610 . S
N2796 C2797 1.351 . S
C2797 C2791 1.428 . S
C2797 N2796 1.351 . S
C2797 C2798 1.434 . S
C2798 C2789 1.429 . S
C2798 N2795 1.350 . S
C2798 C2797 1.434 . S
C2799 C2800 1.369 . S
C2799 C2801 1.419 . S
C2799 H2803 0.930 . S
C2800 C2799 1.369 . S
C2800 C2809 1.429 . S
C2801 C2799 1.419 . S
C2801 C2802 1.363 . S
C2801 H2804 0.929 . S
C2802 C2801 1.363 . S
C2802 C2808 1.428 . S
H2803 C2799 0.930 . S
H2804 C2801 0.929 . S
S2805 N2806 1.613 . S
S2805 N2807 1.610 . S
N2806 S2805 1.613 . S
N2806 C2809 1.350 . S
N2807 S2805 1.610 . S
N2807 C2808 1.351 . S
C2808 C2802 1.428 . S
C2808 N2807 1.351 . S
C2808 C2809 1.434 . S
C2809 C2800 1.429 . S
C2809 N2806 1.350 . S
C2809 C2808 1.434 . S
C2810 C2811 1.369 . S
C2810 C2812 1.419 . S
C2810 H2814 0.930 . S
C2811 C2810 1.369 . S
C2811 C2820 1.429 . S
C2812 C2810 1.419 . S
C2812 C2813 1.363 . S
C2812 H2815 0.929 . S
C2813 C2812 1.363 . S
C2813 C2819 1.428 . S
H2814 C2810 0.930 . S
H2815 C2812 0.929 . S
S2816 N2817 1.613 . S
S2816 N2818 1.610 . S
N2817 S2816 1.613 . S
N2817 C2820 1.350 . S
N2818 S2816 1.610 . S
N2818 C2819 1.351 . S
C2819 C2813 1.428 . S
C2819 N2818 1.351 . S
C2819 C2820 1.434 . S
C2820 C2811 1.429 . S
C2820 N2817 1.350 . S
C2820 C2819 1.434 . S
C2821 C2822 1.369 . S
C2821 C2823 1.419 . S
C2821 H2825 0.930 . S
C2822 C2821 1.369 . S
C2822 C2831 1.429 . S
C2823 C2821 1.419 . S
C2823 C2824 1.363 . S
C2823 H2826 0.929 . S
C2824 C2823 1.363 . S
C2824 C2830 1.428 . S
H2825 C2821 0.930 . S
H2826 C2823 0.929 . S
S2827 N2828 1.613 . S
S2827 N2829 1.610 . S
N2828 S2827 1.613 . S
N2828 C2831 1.350 . S
N2829 S2827 1.610 . S
N2829 C2830 1.351 . S
C2830 C2824 1.428 . S
C2830 N2829 1.351 . S
C2830 C2831 1.434 . S
C2831 C2822 1.429 . S
C2831 N2828 1.350 . S
C2831 C2830 1.434 . S
C2832 C2833 1.369 . S
C2832 C2834 1.419 . S
C2832 H2836 0.930 . S
C2833 C2832 1.369 . S
C2833 C2842 1.429 . S
C2834 C2832 1.419 . S
C2834 C2835 1.363 . S
C2834 H2837 0.929 . S
C2835 C2834 1.363 . S
C2835 C2841 1.428 . S
H2836 C2832 0.930 . S
H2837 C2834 0.929 . S
S2838 N2839 1.648 . S
S2838 N2840 1.607 1_556 S
N2839 S2838 1.648 . S
N2839 C2842 1.350 . S
N2840 S2838 1.607 1_554 S
N2840 C2841 1.351 1_554 S
C2841 C2835 1.428 . S
C2841 N2840 1.351 1_556 S
C2841 C2842 1.434 . S
C2842 C2833 1.429 . S
C2842 N2839 1.350 . S
C2842 C2841 1.434 . S
C2843 C2844 1.369 . S
C2843 C2845 1.419 . S
C2843 H2847 0.930 . S
C2844 C2843 1.369 . S
C2844 C2853 1.429 . S
C2845 C2843 1.419 . S
C2845 C2846 1.363 . S
C2845 H2848 0.929 . S
C2846 C2845 1.363 . S
C2846 C2852 1.428 . S
H2847 C2843 0.930 . S
H2848 C2845 0.929 . S
S2849 N2850 1.613 . S
S2849 N2851 1.610 . S
N2850 S2849 1.613 . S
N2850 C2853 1.350 . S
N2851 S2849 1.610 . S
N2851 C2852 1.351 . S
C2852 C2846 1.428 . S
C2852 N2851 1.351 . S
C2852 C2853 1.434 . S
C2853 C2844 1.429 . S
C2853 N2850 1.350 . S
C2853 C2852 1.434 . S
C2854 C2855 1.369 . S
C2854 C2856 1.419 . S
C2854 H2858 0.930 . S
C2855 C2854 1.369 . S
C2855 C2864 1.429 . S
C2856 C2854 1.419 . S
C2856 C2857 1.363 . S
C2856 H2859 0.929 . S
C2857 C2856 1.363 . S
C2857 C2863 1.428 . S
H2858 C2854 0.930 . S
H2859 C2856 0.929 . S
S2860 N2861 1.613 . S
S2860 N2862 1.610 . S
N2861 S2860 1.613 . S
N2861 C2864 1.350 . S
N2862 S2860 1.610 . S
N2862 C2863 1.351 . S
C2863 C2857 1.428 . S
C2863 N2862 1.351 . S
C2863 C2864 1.434 . S
C2864 C2855 1.429 . S
C2864 N2861 1.350 . S
C2864 C2863 1.434 . S
C2865 C2866 1.369 . S
C2865 C2867 1.419 . S
C2865 H2869 0.930 . S
C2866 C2865 1.369 . S
C2866 C2875 1.429 . S
C2867 C2865 1.419 . S
C2867 C2868 1.363 . S
C2867 H2870 0.929 . S
C2868 C2867 1.363 . S
C2868 C2874 1.428 . S
H2869 C2865 0.930 . S
H2870 C2867 0.929 . S
S2871 N2872 1.613 . S
S2871 N2873 1.610 . S
N2872 S2871 1.613 . S
N2872 C2875 1.350 . S
N2873 S2871 1.610 . S
N2873 C2874 1.351 . S
C2874 C2868 1.428 . S
C2874 N2873 1.351 . S
C2874 C2875 1.434 . S
C2875 C2866 1.429 . S
C2875 N2872 1.350 . S
C2875 C2874 1.434 . S
C2876 C2877 1.369 . S
C2876 C2878 1.419 . S
C2876 H2880 0.930 . S
C2877 C2876 1.369 . S
C2877 C2886 1.429 . S
C2878 C2876 1.419 . S
C2878 C2879 1.363 . S
C2878 H2881 0.929 . S
C2879 C2878 1.363 . S
C2879 C2885 1.428 . S
H2880 C2876 0.930 . S
H2881 C2878 0.929 . S
S2882 N2883 1.613 . S
S2882 N2884 1.610 . S
N2883 S2882 1.613 . S
N2883 C2886 1.350 . S
N2884 S2882 1.610 . S
N2884 C2885 1.351 . S
C2885 C2879 1.428 . S
C2885 N2884 1.351 . S
C2885 C2886 1.434 . S
C2886 C2877 1.429 . S
C2886 N2883 1.350 . S
C2886 C2885 1.434 . S
C2887 C2888 1.369 . S
C2887 C2889 1.419 . S
C2887 H2891 0.930 . S
C2888 C2887 1.369 . S
C2888 C2897 1.429 . S
C2889 C2887 1.419 . S
C2889 C2890 1.363 . S
C2889 H2892 0.929 . S
C2890 C2889 1.363 . S
C2890 C2896 1.428 . S
H2891 C2887 0.930 . S
H2892 C2889 0.929 . S
S2893 N2894 1.613 . S
S2893 N2895 1.610 . S
N2894 S2893 1.613 . S
N2894 C2897 1.350 . S
N2895 S2893 1.610 . S
N2895 C2896 1.351 . S
C2896 C2890 1.428 . S
C2896 N2895 1.351 . S
C2896 C2897 1.434 . S
C2897 C2888 1.429 . S
C2897 N2894 1.350 . S
C2897 C2896 1.434 . S
C2898 C2899 1.369 . S
C2898 C2900 1.419 . S
C2898 H2902 0.930 . S
C2899 C2898 1.369 . S
C2899 C2908 1.429 . S
C2900 C2898 1.419 . S
C2900 C2901 1.363 . S
C2900 H2903 0.929 . S
C2901 C2900 1.363 . S
C2901 C2907 1.428 . S
H2902 C2898 0.930 . S
H2903 C2900 0.929 . S
S2904 N2905 1.613 1_554 S
S2904 N2906 1.610 . S
N2905 S2904 1.613 1_556 S
N2905 C2908 1.350 1_556 S
N2906 S2904 1.610 . S
N2906 C2907 1.351 . S
C2907 C2901 1.428 . S
C2907 N2906 1.351 . S
C2907 C2908 1.434 . S
C2908 C2899 1.429 . S
C2908 N2905 1.350 1_554 S
C2908 C2907 1.434 . S
C2909 C2910 1.369 . S
C2909 C2911 1.419 . S
C2909 H2913 0.930 . S
C2910 C2909 1.369 . S
C2910 C2919 1.429 . S
C2911 C2909 1.419 . S
C2911 C2912 1.363 . S
C2911 H2914 0.929 . S
C2912 C2911 1.363 . S
C2912 C2918 1.428 . S
H2913 C2909 0.930 . S
H2914 C2911 0.929 . S
S2915 N2916 1.613 . S
S2915 N2917 1.610 . S
N2916 S2915 1.613 . S
N2916 C2919 1.350 . S
N2917 S2915 1.610 . S
N2917 C2918 1.351 . S
C2918 C2912 1.428 . S
C2918 N2917 1.351 . S
C2918 C2919 1.434 . S
C2919 C2910 1.429 . S
C2919 N2916 1.350 . S
C2919 C2918 1.434 . S
C2920 C2921 1.369 . S
C2920 C2922 1.419 . S
C2920 H2924 0.930 . S
C2921 C2920 1.369 . S
C2921 C2930 1.429 . S
C2922 C2920 1.419 . S
C2922 C2923 1.363 . S
C2922 H2925 0.929 . S
C2923 C2922 1.363 . S
C2923 C2929 1.428 . S
H2924 C2920 0.930 . S
H2925 C2922 0.929 . S
S2926 N2927 1.613 . S
S2926 N2928 1.610 . S
N2927 S2926 1.613 . S
N2927 C2930 1.350 . S
N2928 S2926 1.610 . S
N2928 C2929 1.351 . S
C2929 C2923 1.428 . S
C2929 N2928 1.351 . S
C2929 C2930 1.434 . S
C2930 C2921 1.429 . S
C2930 N2927 1.350 . S
C2930 C2929 1.434 . S
C2931 C2932 1.369 . S
C2931 C2933 1.419 . S
C2931 H2935 0.930 . S
C2932 C2931 1.369 . S
C2932 C2941 1.429 . S
C2933 C2931 1.419 . S
C2933 C2934 1.363 . S
C2933 H2936 0.929 . S
C2934 C2933 1.363 . S
C2934 C2940 1.428 . S
H2935 C2931 0.930 . S
H2936 C2933 0.929 . S
S2937 N2938 1.613 . S
S2937 N2939 1.610 . S
N2938 S2937 1.613 . S
N2938 C2941 1.350 . S
N2939 S2937 1.610 . S
N2939 C2940 1.351 . S
C2940 C2934 1.428 . S
C2940 N2939 1.351 . S
C2940 C2941 1.434 . S
C2941 C2932 1.429 . S
C2941 N2938 1.350 . S
C2941 C2940 1.434 . S
C2942 C2943 1.369 . S
C2942 C2944 1.419 . S
C2942 H2946 0.930 . S
C2943 C2942 1.369 . S
C2943 C2952 1.429 . S
C2944 C2942 1.419 . S
C2944 C2945 1.363 . S
C2944 H2947 0.929 . S
C2945 C2944 1.363 . S
C2945 C2951 1.428 . S
H2946 C2942 0.930 . S
H2947 C2944 0.929 . S
S2948 N2949 1.613 . S
S2948 N2950 1.610 . S
N2949 S2948 1.613 . S
N2949 C2952 1.350 . S
N2950 S2948 1.610 . S
N2950 C2951 1.351 . S
C2951 C2945 1.428 . S
C2951 N2950 1.351 . S
C2951 C2952 1.434 . S
C2952 C2943 1.429 . S
C2952 N2949 1.350 . S
C2952 C2951 1.434 . S
C2953 C2954 1.369 . S
C2953 C2955 1.419 . S
C2953 H2957 0.930 . S
C2954 C2953 1.369 . S
C2954 C2963 1.429 . S
C2955 C2953 1.419 . S
C2955 C2956 1.363 . S
C2955 H2958 0.929 . S
C2956 C2955 1.363 . S
C2956 C2962 1.428 . S
H2957 C2953 0.930 . S
H2958 C2955 0.929 . S
S2959 N2960 1.613 . S
S2959 N2961 1.610 . S
N2960 S2959 1.613 . S
N2960 C2963 1.350 . S
N2961 S2959 1.610 . S
N2961 C2962 1.351 . S
C2962 C2956 1.428 . S
C2962 N2961 1.351 . S
C2962 C2963 1.434 . S
C2963 C2954 1.429 . S
C2963 N2960 1.350 . S
C2963 C2962 1.434 . S
C2964 C2965 1.369 . S
C2964 C2966 1.419 . S
C2964 H2968 0.930 . S
C2965 C2964 1.369 . S
C2965 C2974 1.429 . S
C2966 C2964 1.419 . S
C2966 C2967 1.363 . S
C2966 H2969 0.929 . S
C2967 C2966 1.363 . S
C2967 C2973 1.428 . S
H2968 C2964 0.930 . S
H2969 C2966 0.929 . S
S2970 N2971 1.613 . S
S2970 N2972 1.610 . S
N2971 S2970 1.613 . S
N2971 C2974 1.350 . S
N2972 S2970 1.610 . S
N2972 C2973 1.351 . S
C2973 C2967 1.428 . S
C2973 N2972 1.351 . S
C2973 C2974 1.434 . S
C2974 C2965 1.429 . S
C2974 N2971 1.350 . S
C2974 C2973 1.434 . S
C2975 C2976 1.369 . S
C2975 C2977 1.419 . S
C2975 H2979 0.930 . S
C2976 C2975 1.369 . S
C2976 C2985 1.429 . S
C2977 C2975 1.419 . S
C2977 C2978 1.363 . S
C2977 H2980 0.929 . S
C2978 C2977 1.363 . S
C2978 C2984 1.428 . S
H2979 C2975 0.930 . S
H2980 C2977 0.929 . S
S2981 N2982 1.613 . S
S2981 N2983 1.610 . S
N2982 S2981 1.613 . S
N2982 C2985 1.350 . S
N2983 S2981 1.610 . S
N2983 C2984 1.351 . S
C2984 C2978 1.428 . S
C2984 N2983 1.351 . S
C2984 C2985 1.434 . S
C2985 C2976 1.429 . S
C2985 N2982 1.350 . S
C2985 C2984 1.434 . S
C2986 C2987 1.369 . S
C2986 C2988 1.419 . S
C2986 H2990 0.930 . S
C2987 C2986 1.369 . S
C2987 C2996 1.429 . S
C2988 C2986 1.419 . S
C2988 C2989 1.363 . S
C2988 H2991 0.929 . S
C2989 C2988 1.363 . S
C2989 C2995 1.428 . S
H2990 C2986 0.930 . S
H2991 C2988 0.929 . S
S2992 N2993 1.613 . S
S2992 N2994 1.610 . S
N2993 S2992 1.613 . S
N2993 C2996 1.350 . S
N2994 S2992 1.610 . S
N2994 C2995 1.351 . S
C2995 C2989 1.428 . S
C2995 N2994 1.351 . S
C2995 C2996 1.434 . S
C2996 C2987 1.429 . S
C2996 N2993 1.350 . S
C2996 C2995 1.434 . S
C2997 C2998 1.369 . S
C2997 C2999 1.419 . S
C2997 H3001 0.930 . S
C2998 C2997 1.369 . S
C2998 C3007 1.429 . S
C2999 C2997 1.419 . S
C2999 C3000 1.363 . S
C2999 H3002 0.929 . S
C3000 C2999 1.363 . S
C3000 C3006 1.428 . S
H3001 C2997 0.930 . S
H3002 C2999 0.929 . S
S3003 N3004 1.613 . S
S3003 N3005 1.610 . S
N3004 S3003 1.613 . S
N3004 C3007 1.350 . S
N3005 S3003 1.610 . S
N3005 C3006 1.351 . S
C3006 C3000 1.428 . S
C3006 N3005 1.351 . S
C3006 C3007 1.434 . S
C3007 C2998 1.429 . S
C3007 N3004 1.350 . S
C3007 C3006 1.434 . S
C3008 C3009 1.369 . S
C3008 C3010 1.419 . S
C3008 H3012 0.930 . S
C3009 C3008 1.369 . S
C3009 C3018 1.429 . S
C3010 C3008 1.419 . S
C3010 C3011 1.363 . S
C3010 H3013 0.929 . S
C3011 C3010 1.363 . S
C3011 C3017 1.428 . S
H3012 C3008 0.930 . S
H3013 C3010 0.929 . S
S3014 N3015 1.613 . S
S3014 N3016 1.610 . S
N3015 S3014 1.613 . S
N3015 C3018 1.350 . S
N3016 S3014 1.610 . S
N3016 C3017 1.351 . S
C3017 C3011 1.428 . S
C3017 N3016 1.351 . S
C3017 C3018 1.434 . S
C3018 C3009 1.429 . S
C3018 N3015 1.350 . S
C3018 C3017 1.434 . S
C3019 C3020 1.369 . S
C3019 C3021 1.419 . S
C3019 H3023 0.930 . S
C3020 C3019 1.369 . S
C3020 C3029 1.429 . S
C3021 C3019 1.419 . S
C3021 C3022 1.363 . S
C3021 H3024 0.929 . S
C3022 C3021 1.363 . S
C3022 C3028 1.428 . S
H3023 C3019 0.930 . S
H3024 C3021 0.929 . S
S3025 N3026 1.613 . S
S3025 N3027 1.610 . S
N3026 S3025 1.613 . S
N3026 C3029 1.350 . S
N3027 S3025 1.610 . S
N3027 C3028 1.351 . S
C3028 C3022 1.428 . S
C3028 N3027 1.351 . S
C3028 C3029 1.434 . S
C3029 C3020 1.429 . S
C3029 N3026 1.350 . S
C3029 C3028 1.434 . S
C3030 C3031 1.369 . S
C3030 C3032 1.419 . S
C3030 H3034 0.930 . S
C3031 C3030 1.369 . S
C3031 C3040 1.429 . S
C3032 C3030 1.419 . S
C3032 C3033 1.363 . S
C3032 H3035 0.929 . S
C3033 C3032 1.363 . S
C3033 C3039 1.428 . S
H3034 C3030 0.930 . S
H3035 C3032 0.929 . S
S3036 N3037 1.613 . S
S3036 N3038 1.610 . S
N3037 S3036 1.613 . S
N3037 C3040 1.350 . S
N3038 S3036 1.610 . S
N3038 C3039 1.351 . S
C3039 C3033 1.428 . S
C3039 N3038 1.351 . S
C3039 C3040 1.434 . S
C3040 C3031 1.429 . S
C3040 N3037 1.350 . S
C3040 C3039 1.434 . S
C3041 C3042 1.369 . S
C3041 C3043 1.419 . S
C3041 H3045 0.930 . S
C3042 C3041 1.369 . S
C3042 C3051 1.429 . S
C3043 C3041 1.419 . S
C3043 C3044 1.363 . S
C3043 H3046 0.929 . S
C3044 C3043 1.363 . S
C3044 C3050 1.428 . S
H3045 C3041 0.930 . S
H3046 C3043 0.929 . S
S3047 N3048 1.613 . S
S3047 N3049 1.610 . S
N3048 S3047 1.613 . S
N3048 C3051 1.350 . S
N3049 S3047 1.610 . S
N3049 C3050 1.351 . S
C3050 C3044 1.428 . S
C3050 N3049 1.351 . S
C3050 C3051 1.434 . S
C3051 C3042 1.429 . S
C3051 N3048 1.350 . S
C3051 C3050 1.434 . S
C3052 C3053 1.369 . S
C3052 C3054 1.419 . S
C3052 H3056 0.930 . S
C3053 C3052 1.369 . S
C3053 C3062 1.429 . S
C3054 C3052 1.419 . S
C3054 C3055 1.363 . S
C3054 H3057 0.929 . S
C3055 C3054 1.363 . S
C3055 C3061 1.428 . S
H3056 C3052 0.930 . S
H3057 C3054 0.929 . S
S3058 N3059 1.613 . S
S3058 N3060 1.610 . S
N3059 S3058 1.613 . S
N3059 C3062 1.350 . S
N3060 S3058 1.610 . S
N3060 C3061 1.351 . S
C3061 C3055 1.428 . S
C3061 N3060 1.351 . S
C3061 C3062 1.434 . S
C3062 C3053 1.429 . S
C3062 N3059 1.350 . S
C3062 C3061 1.434 . S
C3063 C3064 1.369 . S
C3063 C3065 1.419 . S
C3063 H3067 0.930 . S
C3064 C3063 1.369 . S
C3064 C3073 1.429 . S
C3065 C3063 1.419 . S
C3065 C3066 1.363 . S
C3065 H3068 0.929 . S
C3066 C3065 1.363 . S
C3066 C3072 1.428 . S
H3067 C3063 0.930 . S
H3068 C3065 0.929 . S
S3069 N3070 1.613 . S
S3069 N3071 1.611 . S
N3070 S3069 1.613 . S
N3070 C3073 1.350 . S
N3071 S3069 1.611 . S
N3071 C3072 1.358 . S
C3072 C3066 1.428 . S
C3072 N3071 1.358 . S
C3072 C3073 1.434 . S
C3073 C3064 1.429 . S
C3073 N3070 1.350 . S
C3073 C3072 1.434 . S
C3074 C3075 1.369 . S
C3074 C3076 1.419 . S
C3074 H3078 0.930 . S
C3075 C3074 1.369 . S
C3075 C3084 1.429 . S
C3076 C3074 1.419 . S
C3076 C3077 1.363 . S
C3076 H3079 0.929 . S
C3077 C3076 1.363 . S
C3077 C3083 1.428 . S
H3078 C3074 0.930 . S
H3079 C3076 0.929 . S
S3080 N3081 1.613 . S
S3080 N3082 1.610 . S
N3081 S3080 1.613 . S
N3081 C3084 1.350 . S
N3082 S3080 1.610 . S
N3082 C3083 1.351 . S
C3083 C3077 1.428 . S
C3083 N3082 1.351 . S
C3083 C3084 1.434 . S
C3084 C3075 1.429 . S
C3084 N3081 1.350 . S
C3084 C3083 1.434 . S
C3085 C3086 1.369 . S
C3085 C3087 1.419 . S
C3085 H3089 0.930 . S
C3086 C3085 1.369 . S
C3086 C3095 1.429 . S
C3087 C3085 1.419 . S
C3087 C3088 1.363 . S
C3087 H3090 0.929 . S
C3088 C3087 1.363 . S
C3088 C3094 1.428 . S
H3089 C3085 0.930 . S
H3090 C3087 0.929 . S
S3091 N3092 1.613 . S
S3091 N3093 1.610 . S
N3092 S3091 1.613 . S
N3092 C3095 1.350 . S
N3093 S3091 1.610 . S
N3093 C3094 1.351 . S
C3094 C3088 1.428 . S
C3094 N3093 1.351 . S
C3094 C3095 1.434 . S
C3095 C3086 1.429 . S
C3095 N3092 1.350 . S
C3095 C3094 1.434 . S
C3096 C3097 1.369 . S
C3096 C3098 1.419 . S
C3096 H3100 0.930 . S
C3097 C3096 1.369 . S
C3097 C3106 1.429 . S
C3098 C3096 1.419 . S
C3098 C3099 1.363 . S
C3098 H3101 0.929 . S
C3099 C3098 1.363 . S
C3099 C3105 1.428 . S
H3100 C3096 0.930 . S
H3101 C3098 0.929 . S
S3102 N3103 1.613 . S
S3102 N3104 1.610 . S
N3103 S3102 1.613 . S
N3103 C3106 1.350 . S
N3104 S3102 1.610 . S
N3104 C3105 1.351 . S
C3105 C3099 1.428 . S
C3105 N3104 1.351 . S
C3105 C3106 1.434 . S
C3106 C3097 1.429 . S
C3106 N3103 1.350 . S
C3106 C3105 1.434 . S
C3107 C3108 1.369 . S
C3107 C3109 1.419 . S
C3107 H3111 0.930 . S
C3108 C3107 1.369 . S
C3108 C3117 1.429 . S
C3109 C3107 1.419 . S
C3109 C3110 1.363 . S
C3109 H3112 0.929 . S
C3110 C3109 1.363 . S
C3110 C3116 1.428 . S
H3111 C3107 0.930 . S
H3112 C3109 0.929 . S
S3113 N3114 1.613 . S
S3113 N3115 1.610 . S
N3114 S3113 1.613 . S
N3114 C3117 1.350 . S
N3115 S3113 1.610 . S
N3115 C3116 1.351 . S
C3116 C3110 1.428 . S
C3116 N3115 1.351 . S
C3116 C3117 1.434 . S
C3117 C3108 1.429 . S
C3117 N3114 1.350 . S
C3117 C3116 1.434 . S
C3118 C3119 1.369 . S
C3118 C3120 1.419 . S
C3118 H3122 0.930 . S
C3119 C3118 1.369 . S
C3119 C3128 1.429 . S
C3120 C3118 1.419 . S
C3120 C3121 1.363 . S
C3120 H3123 0.929 . S
C3121 C3120 1.363 . S
C3121 C3127 1.428 . S
H3122 C3118 0.930 . S
H3123 C3120 0.929 . S
S3124 N3125 1.613 . S
S3124 N3126 1.610 . S
N3125 S3124 1.613 . S
N3125 C3128 1.350 . S
N3126 S3124 1.610 . S
N3126 C3127 1.351 . S
C3127 C3121 1.428 . S
C3127 N3126 1.351 . S
C3127 C3128 1.434 . S
C3128 C3119 1.429 . S
C3128 N3125 1.350 . S
C3128 C3127 1.434 . S
C3129 C3130 1.369 . S
C3129 C3131 1.419 . S
C3129 H3133 0.930 . S
C3130 C3129 1.369 . S
C3130 C3139 1.429 . S
C3131 C3129 1.419 . S
C3131 C3132 1.363 . S
C3131 H3134 0.929 . S
C3132 C3131 1.363 . S
C3132 C3138 1.428 . S
H3133 C3129 0.930 . S
H3134 C3131 0.929 . S
S3135 N3136 1.613 . S
S3135 N3137 1.610 . S
N3136 S3135 1.613 . S
N3136 C3139 1.350 . S
N3137 S3135 1.610 . S
N3137 C3138 1.351 . S
C3138 C3132 1.428 . S
C3138 N3137 1.351 . S
C3138 C3139 1.434 . S
C3139 C3130 1.429 . S
C3139 N3136 1.350 . S
C3139 C3138 1.434 . S
C3140 C3141 1.369 . S
C3140 C3142 1.419 . S
C3140 H3144 0.930 . S
C3141 C3140 1.369 . S
C3141 C3150 1.429 . S
C3142 C3140 1.419 . S
C3142 C3143 1.363 . S
C3142 H3145 0.929 . S
C3143 C3142 1.363 . S
C3143 C3149 1.428 . S
H3144 C3140 0.930 . S
H3145 C3142 0.929 . S
S3146 N3147 1.613 . S
S3146 N3148 1.610 . S
N3147 S3146 1.613 . S
N3147 C3150 1.350 . S
N3148 S3146 1.610 . S
N3148 C3149 1.351 . S
C3149 C3143 1.428 . S
C3149 N3148 1.351 . S
C3149 C3150 1.434 . S
C3150 C3141 1.429 . S
C3150 N3147 1.350 . S
C3150 C3149 1.434 . S
C3151 C3152 1.369 . S
C3151 C3153 1.419 . S
C3151 H3155 0.930 . S
C3152 C3151 1.369 . S
C3152 C3161 1.429 . S
C3153 C3151 1.419 . S
C3153 C3154 1.363 . S
C3153 H3156 0.929 . S
C3154 C3153 1.363 . S
C3154 C3160 1.428 . S
H3155 C3151 0.930 . S
H3156 C3153 0.929 . S
S3157 N3158 1.613 . S
S3157 N3159 1.610 . S
N3158 S3157 1.613 . S
N3158 C3161 1.350 . S
N3159 S3157 1.610 . S
N3159 C3160 1.351 . S
C3160 C3154 1.428 . S
C3160 N3159 1.351 . S
C3160 C3161 1.434 . S
C3161 C3152 1.429 . S
C3161 N3158 1.350 . S
C3161 C3160 1.434 . S
C3162 C3163 1.369 . S
C3162 C3164 1.419 . S
C3162 H3166 0.930 . S
C3163 C3162 1.369 . S
C3163 C3172 1.429 . S
C3164 C3162 1.419 . S
C3164 C3165 1.363 . S
C3164 H3167 0.929 . S
C3165 C3164 1.363 . S
C3165 C3171 1.428 . S
H3166 C3162 0.930 . S
H3167 C3164 0.929 . S
S3168 N3169 1.613 . S
S3168 N3170 1.610 . S
N3169 S3168 1.613 . S
N3169 C3172 1.350 . S
N3170 S3168 1.610 . S
N3170 C3171 1.351 . S
C3171 C3165 1.428 . S
C3171 N3170 1.351 . S
C3171 C3172 1.434 . S
C3172 C3163 1.429 . S
C3172 N3169 1.350 . S
C3172 C3171 1.434 . S
C3173 C3174 1.369 . S
C3173 C3175 1.419 . S
C3173 H3177 0.930 . S
C3174 C3173 1.369 . S
C3174 C3183 1.429 . S
C3175 C3173 1.419 . S
C3175 C3176 1.363 . S
C3175 H3178 0.929 . S
C3176 C3175 1.363 . S
C3176 C3182 1.428 . S
H3177 C3173 0.930 . S
H3178 C3175 0.929 . S
S3179 N3180 1.613 . S
S3179 N3181 1.610 . S
N3180 S3179 1.613 . S
N3180 C3183 1.350 . S
N3181 S3179 1.610 . S
N3181 C3182 1.351 . S
C3182 C3176 1.428 . S
C3182 N3181 1.351 . S
C3182 C3183 1.434 . S
C3183 C3174 1.429 . S
C3183 N3180 1.350 . S
C3183 C3182 1.434 . S
C3184 C3185 1.369 . S
C3184 C3186 1.419 . S
C3184 H3188 0.930 . S
C3185 C3184 1.369 . S
C3185 C3194 1.429 . S
C3186 C3184 1.419 . S
C3186 C3187 1.363 . S
C3186 H3189 0.929 . S
C3187 C3186 1.363 . S
C3187 C3193 1.428 . S
H3188 C3184 0.930 . S
H3189 C3186 0.929 . S
S3190 N3191 1.613 . S
S3190 N3192 1.610 . S
N3191 S3190 1.613 . S
N3191 C3194 1.350 . S
N3192 S3190 1.610 . S
N3192 C3193 1.351 . S
C3193 C3187 1.428 . S
C3193 N3192 1.351 . S
C3193 C3194 1.434 . S
C3194 C3185 1.429 . S
C3194 N3191 1.350 . S
C3194 C3193 1.434 . S
C3195 C3196 1.369 . S
C3195 C3197 1.419 . S
C3195 H3199 0.930 . S
C3196 C3195 1.369 . S
C3196 C3205 1.429 . S
C3197 C3195 1.419 . S
C3197 C3198 1.363 . S
C3197 H3200 0.929 . S
C3198 C3197 1.363 . S
C3198 C3204 1.428 . S
H3199 C3195 0.930 . S
H3200 C3197 0.929 . S
S3201 N3202 1.613 . S
S3201 N3203 1.610 . S
N3202 S3201 1.613 . S
N3202 C3205 1.350 . S
N3203 S3201 1.610 . S
N3203 C3204 1.351 . S
C3204 C3198 1.428 . S
C3204 N3203 1.351 . S
C3204 C3205 1.434 . S
C3205 C3196 1.429 . S
C3205 N3202 1.350 . S
C3205 C3204 1.434 . S
C3206 C3207 1.369 . S
C3206 C3208 1.419 . S
C3206 H3210 0.930 . S
C3207 C3206 1.369 . S
C3207 C3216 1.429 . S
C3208 C3206 1.419 . S
C3208 C3209 1.363 . S
C3208 H3211 0.929 . S
C3209 C3208 1.363 . S
C3209 C3215 1.428 . S
H3210 C3206 0.930 . S
H3211 C3208 0.929 . S
S3212 N3213 1.613 . S
S3212 N3214 1.610 . S
N3213 S3212 1.613 . S
N3213 C3216 1.350 . S
N3214 S3212 1.610 . S
N3214 C3215 1.351 . S
C3215 C3209 1.428 . S
C3215 N3214 1.351 . S
C3215 C3216 1.434 . S
C3216 C3207 1.429 . S
C3216 N3213 1.350 . S
C3216 C3215 1.434 . S
C3217 C3218 1.369 . S
C3217 C3219 1.419 . S
C3217 H3221 0.930 . S
C3218 C3217 1.369 . S
C3218 C3227 1.429 . S
C3219 C3217 1.419 . S
C3219 C3220 1.363 . S
C3219 H3222 0.929 . S
C3220 C3219 1.363 . S
C3220 C3226 1.428 . S
H3221 C3217 0.930 . S
H3222 C3219 0.929 . S
S3223 N3224 1.613 . S
S3223 N3225 1.610 . S
N3224 S3223 1.613 . S
N3224 C3227 1.350 . S
N3225 S3223 1.610 . S
N3225 C3226 1.351 . S
C3226 C3220 1.428 . S
C3226 N3225 1.351 . S
C3226 C3227 1.434 . S
C3227 C3218 1.429 . S
C3227 N3224 1.350 . S
C3227 C3226 1.434 . S
C3228 C3229 1.369 . S
C3228 C3230 1.419 . S
C3228 H3232 0.930 . S
C3229 C3228 1.369 . S
C3229 C3238 1.429 . S
C3230 C3228 1.419 . S
C3230 C3231 1.363 . S
C3230 H3233 0.929 . S
C3231 C3230 1.363 . S
C3231 C3237 1.428 . S
H3232 C3228 0.930 . S
H3233 C3230 0.929 . S
S3234 N3235 1.613 . S
S3234 N3236 1.610 . S
N3235 S3234 1.613 . S
N3235 C3238 1.350 . S
N3236 S3234 1.610 . S
N3236 C3237 1.351 . S
C3237 C3231 1.428 . S
C3237 N3236 1.351 . S
C3237 C3238 1.434 . S
C3238 C3229 1.429 . S
C3238 N3235 1.350 . S
C3238 C3237 1.434 . S
C3239 C3240 1.369 . S
C3239 C3241 1.419 . S
C3239 H3243 0.930 . S
C3240 C3239 1.369 . S
C3240 C3249 1.429 . S
C3241 C3239 1.419 . S
C3241 C3242 1.363 . S
C3241 H3244 0.929 . S
C3242 C3241 1.363 . S
C3242 C3248 1.428 . S
H3243 C3239 0.930 . S
H3244 C3241 0.929 . S
S3245 N3246 1.613 . S
S3245 N3247 1.610 . S
N3246 S3245 1.613 . S
N3246 C3249 1.350 . S
N3247 S3245 1.610 . S
N3247 C3248 1.351 . S
C3248 C3242 1.428 . S
C3248 N3247 1.351 . S
C3248 C3249 1.434 . S
C3249 C3240 1.429 . S
C3249 N3246 1.350 . S
C3249 C3248 1.434 . S
C3250 C3251 1.369 . S
C3250 C3252 1.419 . S
C3250 H3254 0.930 . S
C3251 C3250 1.369 . S
C3251 C3260 1.429 . S
C3252 C3250 1.419 . S
C3252 C3253 1.363 . S
C3252 H3255 0.929 . S
C3253 C3252 1.363 . S
C3253 C3259 1.428 . S
H3254 C3250 0.930 . S
H3255 C3252 0.929 . S
S3256 N3257 1.613 . S
S3256 N3258 1.610 . S
N3257 S3256 1.613 . S
N3257 C3260 1.350 . S
N3258 S3256 1.610 . S
N3258 C3259 1.351 . S
C3259 C3253 1.428 . S
C3259 N3258 1.351 . S
C3259 C3260 1.434 . S
C3260 C3251 1.429 . S
C3260 N3257 1.350 . S
C3260 C3259 1.434 . S
C3261 C3262 1.369 . S
C3261 C3263 1.419 . S
C3261 H3265 0.930 . S
C3262 C3261 1.369 . S
C3262 C3271 1.429 . S
C3263 C3261 1.419 . S
C3263 C3264 1.363 . S
C3263 H3266 0.929 . S
C3264 C3263 1.363 . S
C3264 C3270 1.428 . S
H3265 C3261 0.930 . S
H3266 C3263 0.929 . S
S3267 N3268 1.613 . S
S3267 N3269 1.610 . S
N3268 S3267 1.613 . S
N3268 C3271 1.350 . S
N3269 S3267 1.610 . S
N3269 C3270 1.351 . S
C3270 C3264 1.428 . S
C3270 N3269 1.351 . S
C3270 C3271 1.434 . S
C3271 C3262 1.429 . S
C3271 N3268 1.350 . S
C3271 C3270 1.434 . S
C3272 C3273 1.369 . S
C3272 C3274 1.419 . S
C3272 H3276 0.930 . S
C3273 C3272 1.369 . S
C3273 C3282 1.429 . S
C3274 C3272 1.419 . S
C3274 C3275 1.363 . S
C3274 H3277 0.929 . S
C3275 C3274 1.363 . S
C3275 C3281 1.428 . S
H3276 C3272 0.930 . S
H3277 C3274 0.929 . S
S3278 N3279 1.613 . S
S3278 N3280 1.610 . S
N3279 S3278 1.613 . S
N3279 C3282 1.350 . S
N3280 S3278 1.610 . S
N3280 C3281 1.351 . S
C3281 C3275 1.428 . S
C3281 N3280 1.351 . S
C3281 C3282 1.434 . S
C3282 C3273 1.429 . S
C3282 N3279 1.350 . S
C3282 C3281 1.434 . S
C3283 C3284 1.369 . S
C3283 C3285 1.419 . S
C3283 H3287 0.930 . S
C3284 C3283 1.369 . S
C3284 C3293 1.429 . S
C3285 C3283 1.419 . S
C3285 C3286 1.363 . S
C3285 H3288 0.929 . S
C3286 C3285 1.363 . S
C3286 C3292 1.428 . S
H3287 C3283 0.930 . S
H3288 C3285 0.929 . S
S3289 N3290 1.613 . S
S3289 N3291 1.610 . S
N3290 S3289 1.613 . S
N3290 C3293 1.350 . S
N3291 S3289 1.610 . S
N3291 C3292 1.351 . S
C3292 C3286 1.428 . S
C3292 N3291 1.351 . S
C3292 C3293 1.434 . S
C3293 C3284 1.429 . S
C3293 N3290 1.350 . S
C3293 C3292 1.434 . S
C3294 C3295 1.369 . S
C3294 C3296 1.419 . S
C3294 H3298 0.930 . S
C3295 C3294 1.369 . S
C3295 C3304 1.429 . S
C3296 C3294 1.419 . S
C3296 C3297 1.363 . S
C3296 H3299 0.929 . S
C3297 C3296 1.363 . S
C3297 C3303 1.428 . S
H3298 C3294 0.930 . S
H3299 C3296 0.929 . S
S3300 N3301 1.613 . S
S3300 N3302 1.610 . S
N3301 S3300 1.613 . S
N3301 C3304 1.350 . S
N3302 S3300 1.610 . S
N3302 C3303 1.351 . S
C3303 C3297 1.428 . S
C3303 N3302 1.351 . S
C3303 C3304 1.434 . S
C3304 C3295 1.429 . S
C3304 N3301 1.350 . S
C3304 C3303 1.434 . S
C3305 C3306 1.369 . S
C3305 C3307 1.419 . S
C3305 H3309 0.930 . S
C3306 C3305 1.369 . S
C3306 C3315 1.429 . S
C3307 C3305 1.419 . S
C3307 C3308 1.363 . S
C3307 H3310 0.929 . S
C3308 C3307 1.363 . S
C3308 C3314 1.428 . S
H3309 C3305 0.930 . S
H3310 C3307 0.929 . S
S3311 N3312 1.613 . S
S3311 N3313 1.610 . S
N3312 S3311 1.613 . S
N3312 C3315 1.350 . S
N3313 S3311 1.610 . S
N3313 C3314 1.351 . S
C3314 C3308 1.428 . S
C3314 N3313 1.351 . S
C3314 C3315 1.434 . S
C3315 C3306 1.429 . S
C3315 N3312 1.350 . S
C3315 C3314 1.434 . S
C3316 C3317 1.369 . S
C3316 C3318 1.419 . S
C3316 H3320 0.930 . S
C3317 C3316 1.369 . S
C3317 C3326 1.429 . S
C3318 C3316 1.419 . S
C3318 C3319 1.363 . S
C3318 H3321 0.929 . S
C3319 C3318 1.363 . S
C3319 C3325 1.428 . S
H3320 C3316 0.930 . S
H3321 C3318 0.929 . S
S3322 N3323 1.613 . S
S3322 N3324 1.610 . S
N3323 S3322 1.613 . S
N3323 C3326 1.350 . S
N3324 S3322 1.610 . S
N3324 C3325 1.351 . S
C3325 C3319 1.428 . S
C3325 N3324 1.351 . S
C3325 C3326 1.434 . S
C3326 C3317 1.429 . S
C3326 N3323 1.350 . S
C3326 C3325 1.434 . S
C3327 C3328 1.369 . S
C3327 C3329 1.419 . S
C3327 H3331 0.930 . S
C3328 C3327 1.369 . S
C3328 C3337 1.429 . S
C3329 C3327 1.419 . S
C3329 C3330 1.363 . S
C3329 H3332 0.929 . S
C3330 C3329 1.363 . S
C3330 C3336 1.428 . S
H3331 C3327 0.930 . S
H3332 C3329 0.929 . S
S3333 N3334 1.613 . S
S3333 N3335 1.610 . S
N3334 S3333 1.613 . S
N3334 C3337 1.350 . S
N3335 S3333 1.610 . S
N3335 C3336 1.351 . S
C3336 C3330 1.428 . S
C3336 N3335 1.351 . S
C3336 C3337 1.434 . S
C3337 C3328 1.429 . S
C3337 N3334 1.350 . S
C3337 C3336 1.434 . S
C3338 C3339 1.369 . S
C3338 C3340 1.419 . S
C3338 H3342 0.930 . S
C3339 C3338 1.369 . S
C3339 C3348 1.429 . S
C3340 C3338 1.419 . S
C3340 C3341 1.363 . S
C3340 H3343 0.929 . S
C3341 C3340 1.363 . S
C3341 C3347 1.428 . S
H3342 C3338 0.930 . S
H3343 C3340 0.929 . S
S3344 N3345 1.613 . S
S3344 N3346 1.610 . S
N3345 S3344 1.613 . S
N3345 C3348 1.350 . S
N3346 S3344 1.610 . S
N3346 C3347 1.351 . S
C3347 C3341 1.428 . S
C3347 N3346 1.351 . S
C3347 C3348 1.434 . S
C3348 C3339 1.429 . S
C3348 N3345 1.350 . S
C3348 C3347 1.434 . S
C3349 C3350 1.369 . S
C3349 C3351 1.419 . S
C3349 H3353 0.930 . S
C3350 C3349 1.369 . S
C3350 C3359 1.429 . S
C3351 C3349 1.419 . S
C3351 C3352 1.363 . S
C3351 H3354 0.929 . S
C3352 C3351 1.363 . S
C3352 C3358 1.428 . S
H3353 C3349 0.930 . S
H3354 C3351 0.929 . S
S3355 N3356 1.613 . S
S3355 N3357 1.610 . S
N3356 S3355 1.613 . S
N3356 C3359 1.350 . S
N3357 S3355 1.610 . S
N3357 C3358 1.351 . S
C3358 C3352 1.428 . S
C3358 N3357 1.351 . S
C3358 C3359 1.434 . S
C3359 C3350 1.429 . S
C3359 N3356 1.350 . S
C3359 C3358 1.434 . S
C1249 C10 1.407 . S
C1251 C978 1.419 . S
C1260 C317 1.418 . S
C1262 C17 1.408 . S
C1271 C952 1.421 . S
C1273 C36 1.409 . S
C1282 C341 1.418 . S
C1284 C43 1.408 . S
C1293 C56 1.407 . S
C1295 C1006 1.419 . S
C1304 C75 1.412 . S
C1306 C395 1.421 . S
C1315 C1032 1.422 . S
C1317 C88 1.411 . S
C1326 C95 1.411 . S
C1328 C369 1.421 . S
C1337 C114 1.407 . S
C1339 C1175 1.419 . S
C1348 C562 1.419 . S
C1350 C127 1.409 . S
C1359 C134 1.407 . S
C1361 C577 1.419 . S
C1370 C153 1.411 . S
C1372 C536 1.421 . S
C1381 C166 1.407 . S
C1383 C1227 1.419 . S
C1392 C173 1.409 . S
C1394 C1147 1.421 . S
C1403 C186 1.412 . S
C1405 C1238 1.421 . S
C1414 C199 1.410 . S
C1416 C1214 1.419 . S
C1425 C1056 1.422 . S
C1427 C212 1.412 . S
C1436 C225 1.410 . S
C1438 C512 1.419 . S
C1447 C238 1.407 . S
C1449 C1097 1.419 . S
C1458 C484 1.420 . S
C1460 C257 1.408 . S
C1469 C270 1.407 . S
C1471 C497 1.419 . S
C1480 C1082 1.420 . S
C1482 C277 1.411 . S
C1491 C296 1.410 . S
C1493 C1045 1.421 . S
C1502 C1071 1.419 . S
C1504 C309 1.409 . S
C1513 C666 1.421 . S
C1515 C322 1.409 . S
C1524 C5 1.422 . S
C1526 C329 1.410 . S
C1535 C342 1.407 . S
C1537 C640 1.419 . S
C1546 C361 1.412 . S
C1548 C31 1.422 . S
C1557 C374 1.412 . S
C1559 C694 1.420 . S
C1568 C83 1.420 . S
C1570 C381 1.411 . S
C1579 C400 1.412 . S
C1581 C720 1.421 . S
C1590 C413 1.407 . S
C1592 C55 1.419 . S
C1601 C426 1.407 . S
C1603 C863 1.419 . S
C1612 C252 1.419 . S
C1614 C433 1.410 . S
C1623 C452 1.410 . S
C1625 C265 1.419 . S
C1634 C224 1.422 . S
C1636 C459 1.410 . S
C1645 C478 1.409 . S
C1647 C913 1.421 . S
C1656 C485 1.407 . S
C1658 C835 1.420 . S
C1667 C498 1.407 . S
C1669 C928 1.419 . S
C1678 C900 1.420 . S
C1680 C517 1.408 . S
C1689 C746 1.422 . S
C1691 C524 1.410 . S
C1700 C198 1.422 . S
C1702 C537 1.412 . S
C1711 C783 1.419 . S
C1713 C556 1.407 . S
C1722 C563 1.406 . S
C1724 C172 1.419 . S
C1733 C582 1.412 . S
C1735 C185 1.420 . S
C1744 C589 1.407 . S
C1746 C770 1.419 . S
C1755 C733 1.421 . S
C1757 C608 1.412 . S
C1766 C621 1.412 . S
C1768 C759 1.421 . S
C1777 C356 1.419 . S
C1779 C634 1.410 . S
C1788 C939 1.419 . S
C1790 C641 1.407 . S
C1799 C654 1.409 . S
C1801 C328 1.421 . S
C1810 C965 1.418 . S
C1812 C667 1.407 . S
C1821 C686 1.412 . S
C1823 C380 1.421 . S
C1832 C1019 1.418 . S
C1834 C699 1.407 . S
C1843 C712 1.412 . S
C1845 C408 1.420 . S
C1854 C993 1.418 . S
C1856 C725 1.409 . S
C1865 C551 1.422 . S
C1867 C738 1.411 . S
C1876 C751 1.412 . S
C1878 C1188 1.421 . S
C1887 C1201 1.419 . S
C1889 C764 1.410 . S
C1898 C771 1.407 . S
C1900 C1162 1.419 . S
C1909 C603 1.422 . S
C1911 C784 1.411 . S
C1920 C803 1.407 . S
C1922 C523 1.420 . S
C1931 C616 1.418 . S
C1933 C816 1.407 . S
C1942 C588 1.421 . S
C1944 C823 1.412 . S
C1953 C432 1.419 . S
C1955 C836 1.409 . S
C1964 C1136 1.418 . S
C1966 C849 1.407 . S
C1975 C868 1.411 . S
C1977 C473 1.420 . S
C1986 C875 1.407 . S
C1988 C1108 1.420 . S
C1997 C1121 1.420 . S
C1999 C888 1.408 . S
C2008 C458 1.421 . S
C2010 C901 1.409 . S
C2019 C421 1.419 . S
C2021 C914 1.407 . S
C2030 C447 1.418 . S
C2032 C933 1.407 . S
C2041 C940 1.407 . S
C2043 C42 1.420 . S
C2052 C953 1.407 . S
C2054 C629 1.420 . S
C2063 C966 1.408 . S
C2065 C16 1.421 . S
C2074 C979 1.412 . S
C2076 C653 1.420 . S
C2085 C70 1.421 . S
C2087 C998 1.408 . S
C2096 C707 1.418 . S
C2098 C1011 1.408 . S
C2107 C94 1.422 . S
C2109 C1024 1.410 . S
C2118 C681 1.422 . S
C2120 C1037 1.410 . S
C2129 C1050 1.412 . S
C2131 C237 1.421 . S
C2140 C874 1.418 . S
C2142 C1057 1.409 . S
C2151 C1076 1.411 . S
C2153 C887 1.420 . S
C2162 C1083 1.409 . S
C2164 C848 1.419 . S
C2173 C291 1.418 . S
C2175 C1102 1.409 . S
C2184 C211 1.420 . S
C2186 C1109 1.411 . S
C2195 C1122 1.412 . S
C2197 C304 1.421 . S
C2206 C276 1.420 . S
C2208 C1141 1.408 . S
C2217 C1148 1.407 . S
C2219 C122 1.420 . S
C2228 C1167 1.412 . S
C2230 C822 1.421 . S
C2239 C161 1.422 . S
C2241 C1180 1.410 . S
C2250 C1193 1.412 . S
C2252 C798 1.421 . S
C2261 C811 1.421 . S
C2263 C1206 1.408 . S
C2272 C1219 1.412 . S
C2274 C148 1.422 . S
C2283 C1232 1.407 . S
C2285 C109 1.420 . S
C2294 C1239 1.412 . S
C2296 C133 1.421 . S
C2305 C4 1.379 . S
C2307 C564 1.374 . S
C2316 C575 1.374 . S
C2318 C23 1.379 . S
C2327 C538 1.368 . S
C2329 C30 1.378 . S
C2338 C49 1.380 . S
C2340 C1173 1.373 . S
C2349 C62 1.380 . S
C2351 C1212 1.369 . S
C2360 C69 1.377 . S
C2362 C1225 1.370 . S
C2371 C1149 1.369 . S
C2373 C82 1.381 . S
C2382 C1240 1.368 . S
C2384 C101 1.380 . S
C2393 C343 1.369 . S
C2395 C108 1.381 . S
C2404 C121 1.381 . S
C2406 C980 1.372 . S
C2415 C315 1.374 . S
C2417 C140 1.377 . S
C2426 C954 1.372 . S
C2428 C147 1.380 . S
C2437 C393 1.368 . S
C2439 C160 1.380 . S
C2448 C179 1.381 . S
C2450 C1030 1.369 . S
C2459 C192 1.376 . S
C2461 C367 1.373 . S
C2470 C205 1.376 . S
C2472 C1004 1.373 . S
C2481 C218 1.377 . S
C2483 C1095 1.370 . S
C2492 C419 1.368 . S
C2494 C231 1.379 . S
C2503 C244 1.376 . S
C2505 C1058 1.372 . S
C2514 C251 1.376 . S
C2516 C445 1.372 . S
C2525 C264 1.377 . S
C2527 C460 1.374 . S
C2536 C283 1.381 . S
C2538 C1123 1.371 . S
C2547 C1134 1.374 . S
C2549 C290 1.377 . S
C2558 C1110 1.369 . S
C2560 C303 1.380 . S
C2569 C250 1.372 . S
C2571 C316 1.377 . S
C2580 C335 1.377 . S
C2582 C263 1.373 . S
C2591 C348 1.377 . S
C2593 C226 1.374 . S
C2602 C355 1.377 . S
C2604 C861 1.374 . S
C2613 C902 1.374 . S
C2615 C368 1.380 . S
C2624 C915 1.368 . S
C2626 C387 1.378 . S
C2635 C394 1.379 . S
C2637 C837 1.374 . S
C2646 C926 1.372 . S
C2648 C407 1.377 . S
C2657 C420 1.380 . S
C2659 C29 1.369 . S
C2668 C668 1.369 . S
C2670 C439 1.380 . S
C2679 C446 1.376 . S
C2681 C3 1.371 . S
C2690 C642 1.368 . S
C2692 C465 1.379 . S
C2701 C472 1.381 . S
C2703 C81 1.370 . S
C2712 C718 1.368 . S
C2714 C491 1.379 . S
C2723 C57 1.369 . S
C2725 C504 1.378 . S
C2734 C692 1.374 . S
C2736 C511 1.379 . S
C2745 C530 1.381 . S
C2747 C785 1.373 . S
C2756 C543 1.378 . S
C2758 C107 1.369 . S
C2767 C744 1.373 . S
C2769 C550 1.380 . S
C2778 C569 1.381 . S
C2780 C135 1.370 . S
C2789 C146 1.374 . S
C2791 C576 1.378 . S
C2800 C809 1.372 . S
C2802 C595 1.380 . S
C2811 C824 1.369 . S
C2813 C602 1.378 . S
C2822 C796 1.368 . S
C2824 C615 1.380 . S
C2833 C628 1.379 . S
C2835 C1186 1.373 . S
C2844 C647 1.376 . S
C2846 C1199 1.371 . S
C2855 C660 1.381 . S
C2857 C1160 1.372 . S
C2866 C549 1.374 . S
C2868 C673 1.379 . S
C2877 C680 1.381 . S
C2879 C590 1.371 . S
C2888 C601 1.374 . S
C2890 C693 1.379 . S
C2899 C525 1.372 . S
C2901 C706 1.380 . S
C2910 C614 1.375 . S
C2912 C719 1.378 . S
C2921 C732 1.377 . S
C2923 C967 1.374 . S
C2932 C354 1.374 . S
C2934 C745 1.378 . S
C2943 C758 1.376 . S
C2945 C941 1.372 . S
C2954 C777 1.379 . S
C2956 C330 1.373 . S
C2965 C790 1.376 . S
C2967 C1017 1.372 . S
C2976 C797 1.376 . S
C2978 C406 1.371 . S
C2987 C991 1.374 . S
C2989 C810 1.379 . S
C2998 C382 1.373 . S
C3000 C829 1.380 . S
C3009 C842 1.377 . S
C3011 C471 1.370 . S
C3020 C855 1.376 . S
C3022 C1043 1.372 . S
C3031 C862 1.380 . S
C3033 C434 1.373 . S
C3042 C1069 1.369 . S
C3044 C881 1.378 . S
C3053 C894 1.376 . S
C3055 C1084 1.371 . S
C3064 C907 1.380 . S
C3066 C499 1.373 . S
C3075 C510 1.374 . S
C3077 C920 1.379 . S
C3086 C927 1.376 . S
C3088 C486 1.373 . S
C3097 C946 1.381 . S
C3099 C876 1.371 . S
C3108 C889 1.373 . S
C3110 C959 1.380 . S
C3119 C850 1.368 . S
C3121 C972 1.378 . S
C3130 C985 1.376 . S
C3132 C239 1.371 . S
C3141 C992 1.381 . S
C3143 C278 1.369 . S
C3152 C1005 1.381 . S
C3154 C289 1.371 . S
C3163 C213 1.368 . S
C3165 C1018 1.378 . S
C3174 C1031 1.378 . S
C3176 C302 1.369 . S
C3185 C1044 1.379 . S
C3187 C655 1.374 . S
C3196 C1063 1.376 . S
C3198 C44 1.370 . S
C3207 C1070 1.380 . S
C3209 C627 1.373 . S
C3218 C1089 1.376 . S
C3220 C18 1.372 . S
C3229 C1096 1.377 . S
C3231 C705 1.369 . S
C3240 C1115 1.380 . S
C3242 C96 1.369 . S
C3251 C1128 1.376 . S
C3253 C679 1.370 . S
C3262 C1135 1.376 . S
C3264 C68 1.373 . S
C3273 C1154 1.379 . S
C3275 C159 1.369 . S
C3284 C1161 1.381 . S
C3286 C731 1.372 . S
C3295 C1174 1.381 . S
C3297 C120 1.373 . S
C3306 C1187 1.381 . S
C3308 C757 1.373 . S
C3317 C1200 1.379 . S
C3319 C772 1.374 . S
C3328 C187 1.372 . S
C3330 C1213 1.377 . S
C3339 C1226 1.381 . S
C3341 C200 1.371 . S
C3350 C1245 1.376 . S
C3352 C174 1.370 . S
