# Generated by pormake.
# Topology unh, (4)-cn, num edge types: 1
# Building blocks:
#     Node 0, Type 0, BuildingBlock: KUFVIS_clean_sbu_0, # of connection points: 4
#     Node 1, Type 0, BuildingBlock: KUFVIS_clean_sbu_0, # of connection points: 4
#     Node 2, Type 0, BuildingBlock: KUFVIS_clean_sbu_0, # of connection points: 4
#     Node 3, Type 0, BuildingBlock: KUFVIS_clean_sbu_0, # of connection points: 4
#     Node 4, Type 0, BuildingBlock: KUFVIS_clean_sbu_0, # of connection points: 4
#     Node 5, Type 0, BuildingBlock: KUFVIS_clean_sbu_0, # of connection points: 4
#     Edge 6, Type (0, 0), BuildingBlock: EZIPEK_clean_linker_0, # of connection points: 2
#     Edge 7, Type (0, 0), BuildingBlock: EZIPEK_clean_linker_0, # of connection points: 2
#     Edge 8, Type (0, 0), BuildingBlock: EZIPEK_clean_linker_0, # of connection points: 2
#     Edge 9, Type (0, 0), BuildingBlock: EZIPEK_clean_linker_0, # of connection points: 2
#     Edge 10, Type (0, 0), BuildingBlock: EZIPEK_clean_linker_0, # of connection points: 2
#     Edge 11, Type (0, 0), BuildingBlock: EZIPEK_clean_linker_0, # of connection points: 2
#     Edge 12, Type (0, 0), BuildingBlock: EZIPEK_clean_linker_0, # of connection points: 2
#     Edge 13, Type (0, 0), BuildingBlock: EZIPEK_clean_linker_0, # of connection points: 2
#     Edge 14, Type (0, 0), BuildingBlock: EZIPEK_clean_linker_0, # of connection points: 2
#     Edge 15, Type (0, 0), BuildingBlock: EZIPEK_clean_linker_0, # of connection points: 2
#     Edge 16, Type (0, 0), BuildingBlock: EZIPEK_clean_linker_0, # of connection points: 2
#     Edge 17, Type (0, 0), BuildingBlock: EZIPEK_clean_linker_0, # of connection points: 2
# Relax obj value: 0.109
# Max RMSD: 0.223
# Mean RMSD: 0.223
data_MOF--net-unh--node1-KUFVIS_clean_sbu_0--edge1-EZIPEK_clean_linker_0
_symmetry_space_group_name_H-M    P1
_symmetry_Int_Tables_number       1
_symmetry_cell_setting            triclinic
loop_
_symmetry_equiv_pos_as_xyz
'x, y, z'
_cell_length_a     30.586138
_cell_length_b     30.570612
_cell_length_c     16.240997
_cell_angle_alpha  90.045238
_cell_angle_beta   89.818888
_cell_angle_gamma 119.99405
loop_
_atom_site_label
_atom_site_type_symbol
_atom_site_fract_x
_atom_site_fract_y
_atom_site_fract_z
_atom_type_partial_charge
Mn0 Mn 0.15077 0.56363 0.06967 0.0
Mn1 Mn 0.08746 0.62775 0.05563 0.0
C2 C 0.18409 0.63593 0.991 0.0
C3 C 0.20712 0.54764 0.13833 0.0
C4 C 0.05897 0.53164 0.95958 0.0
O5 O 0.10098 0.53508 0.1631 0.0
O6 O 0.06379 0.58284 0.1567 0.0
C7 C 0.12376 0.69343 0.20326 0.0
N8 N 0.12163 0.6882 0.11999 0.0
C9 C 0.17242 0.77826 0.10156 0.0
C10 C 0.17735 0.78418 0.18721 0.0
C11 C 0.15235 0.74159 0.23832 0.0
C12 C 0.14372 0.72919 0.07032 0.0
H13 H 0.1027 0.66128 0.2423 0.0
C14 C 0.07021 0.54822 0.19008 0.0
O15 O 0.17326 0.51382 0.09023 0.0
O16 O 0.20772 0.59004 0.14768 0.0
N17 N 0.10699 0.6723 0.96262 0.0
C18 C 0.09252 0.66082 0.88254 0.0
C19 C 0.11077 0.69959 0.82349 0.0
C20 C 0.14281 0.74986 0.84762 0.0
C21 C 0.15506 0.76104 0.93099 0.0
C22 C 0.13547 0.72082 0.98708 0.0
H23 H 0.0678 0.62227 0.86352 0.0
O24 O 0.19832 0.60289 0.9799 0.0
O25 O 0.15065 0.62579 0.04898 0.0
O26 O 0.09393 0.52462 0.98729 0.0
O27 O 0.05186 0.56753 0.98366 0.0
C28 C 0.18536 0.81057 0.96079 0.0
C29 C 0.19412 0.81917 0.04604 0.0
H30 H 0.19915 0.82133 0.21441 0.0
H31 H 0.15459 0.74594 0.30458 0.0
H32 H 0.10038 0.69069 0.75948 0.0
H33 H 0.15708 0.77963 0.80185 0.0
H34 H 0.20153 0.84237 0.91879 0.0
H35 H 0.21687 0.85747 0.06838 0.0
Mn36 Mn 0.57901 0.14594 0.235 0.0
Mn37 Mn 0.45769 0.10608 0.18637 0.0
C38 C 0.56039 0.1945 0.14905 0.0
C39 C 0.64679 0.19038 0.32169 0.0
C40 C 0.51974 0.06442 0.1073 0.0
O41 O 0.54013 0.09151 0.3197 0.0
O42 O 0.46049 0.07167 0.28929 0.0
C43 C 0.43384 0.15091 0.32913 0.0
N44 N 0.43671 0.14641 0.2461 0.0
C45 C 0.4109 0.2078 0.22115 0.0
C46 C 0.40727 0.21275 0.30635 0.0
C47 C 0.41888 0.18424 0.36055 0.0
C48 C 0.42604 0.174 0.19343 0.0
H49 H 0.44323 0.1295 0.37112 0.0
C50 C 0.49273 0.067 0.33306 0.0
O51 O 0.64452 0.1549 0.27466 0.0
O52 O 0.60881 0.19805 0.32154 0.0
N53 N 0.44871 0.13652 0.0897 0.0
C54 C 0.45217 0.12589 0.00924 0.0
C55 C 0.44178 0.15128 0.94705 0.0
C56 C 0.42692 0.1865 0.96822 0.0
C57 C 0.42141 0.19511 0.0514 0.0
C58 C 0.43192 0.16839 0.11063 0.0
H59 H 0.46337 0.0987 0.9925 0.0
O60 O 0.60539 0.2004 0.15029 0.0
O61 O 0.5276 0.16033 0.19867 0.0
O62 O 0.56049 0.09201 0.14663 0.0
O63 O 0.47855 0.06487 0.11983 0.0
C64 C 0.40583 0.2291 0.07786 0.0
C65 C 0.40072 0.23555 0.16269 0.0
H66 H 0.39593 0.23856 0.33084 0.0
H67 H 0.4165 0.1881 0.42641 0.0
H68 H 0.44544 0.14386 0.88298 0.0
H69 H 0.41934 0.20631 0.92011 0.0
H70 H 0.39783 0.2506 0.0335 0.0
H71 H 0.38909 0.26208 0.1823 0.0
Mn72 Mn 0.44234 0.58768 0.39979 0.0
Mn73 Mn 0.37203 0.46406 0.35142 0.0
C74 C 0.37579 0.56134 0.30972 0.0
C75 C 0.45572 0.65431 0.48458 0.0
C76 C 0.47521 0.53428 0.27606 0.0
O77 O 0.46187 0.55378 0.48761 0.0
O78 O 0.40943 0.47201 0.4559 0.0
C79 C 0.30053 0.43436 0.49154 0.0
N80 N 0.30909 0.43731 0.40881 0.0
C81 C 0.22058 0.40202 0.38039 0.0
C82 C 0.2108 0.39824 0.46525 0.0
C83 C 0.25098 0.41457 0.52104 0.0
C84 C 0.27074 0.4221 0.35461 0.0
H85 H 0.33131 0.44737 0.53473 0.0
C86 C 0.44352 0.5067 0.50083 0.0
O87 O 0.49236 0.65656 0.44055 0.0
O88 O 0.41271 0.61281 0.48275 0.0
N89 N 0.33287 0.45017 0.25311 0.0
C90 C 0.34843 0.45479 0.17327 0.0
C91 C 0.31282 0.44025 0.10969 0.0
C92 C 0.26149 0.42013 0.12885 0.0
C93 C 0.2461 0.41364 0.21149 0.0
C94 C 0.28328 0.42847 0.27219 0.0
H95 H 0.38781 0.47002 0.15809 0.0
O96 O 0.41132 0.60819 0.31135 0.0
O97 O 0.38018 0.5313 0.36137 0.0
O98 O 0.48385 0.57414 0.31497 0.0
O99 O 0.43585 0.49089 0.28744 0.0
C100 C 0.19533 0.39301 0.236 0.0
C101 C 0.18259 0.38733 0.32039 0.0
H102 H 0.17265 0.38318 0.48826 0.0
H103 H 0.24378 0.41211 0.58664 0.0
H104 H 0.32495 0.44474 0.04606 0.0
H105 H 0.23418 0.40935 0.07966 0.0
H106 H 0.1658 0.38159 0.19045 0.0
H107 H 0.14348 0.37184 0.33849 0.0
Mn108 Mn 0.85453 0.42774 0.5684 0.0
Mn109 Mn 0.88561 0.33632 0.5645 0.0
C110 C 0.8051 0.35504 0.49552 0.0
C111 C 0.81204 0.46215 0.63657 0.0
C112 C 0.93952 0.43234 0.46062 0.0
O113 O 0.90592 0.44839 0.65952 0.0
O114 O 0.91945 0.38241 0.65945 0.0
C115 C 0.83273 0.28516 0.71839 0.0
N116 N 0.84019 0.28313 0.63604 0.0
C117 C 0.77686 0.19509 0.63101 0.0
C118 C 0.76889 0.19613 0.71588 0.0
C119 C 0.79686 0.24142 0.75968 0.0
C120 C 0.81322 0.23985 0.59321 0.0
H121 H 0.85377 0.31997 0.75226 0.0
C122 C 0.92628 0.4243 0.68872 0.0
O123 O 0.84892 0.48967 0.58631 0.0
O124 O 0.80127 0.41605 0.64864 0.0
N125 N 0.85493 0.28779 0.47769 0.0
C126 C 0.86458 0.29364 0.39536 0.0
C127 C 0.83946 0.25198 0.34257 0.0
C128 C 0.80415 0.20467 0.37486 0.0
C129 C 0.79448 0.19945 0.45974 0.0
C130 C 0.82149 0.24215 0.50951 0.0
H131 H 0.88925 0.33025 0.3697 0.0
O132 O 0.80217 0.39527 0.48199 0.0
O133 O 0.83606 0.35833 0.55324 0.0
O134 O 0.91158 0.45069 0.48241 0.0
O135 O 0.93319 0.39021 0.48806 0.0
C136 C 0.75839 0.15377 0.49667 0.0
C137 C 0.74946 0.15163 0.58222 0.0
H138 H 0.74105 0.16254 0.74786 0.0
H139 H 0.79064 0.24264 0.82507 0.0
H140 H 0.84642 0.25663 0.27691 0.0
H141 H 0.7841 0.17283 0.33379 0.0
H142 H 0.73675 0.12024 0.45967 0.0
H143 H 0.72106 0.11649 0.60972 0.0
Mn144 Mn 0.40429 0.85138 0.73169 0.0
Mn145 Mn 0.52798 0.89931 0.68681 0.0
C146 C 0.42957 0.80601 0.64912 0.0
C147 C 0.33529 0.80463 0.81703 0.0
C148 C 0.46142 0.93458 0.60491 0.0
O149 O 0.43958 0.90737 0.81587 0.0
O150 O 0.52084 0.9307 0.78977 0.0
C151 C 0.55413 0.85652 0.8293 0.0
N152 N 0.55239 0.86192 0.74632 0.0
C153 C 0.58632 0.8071 0.72086 0.0
C154 C 0.58888 0.80131 0.80603 0.0
C155 C 0.5726 0.82604 0.86046 0.0
C156 C 0.56746 0.83786 0.69342 0.0
H157 H 0.54119 0.87502 0.87141 0.0
C158 C 0.48667 0.93338 0.83158 0.0
O159 O 0.33655 0.83864 0.76774 0.0
O160 O 0.37482 0.79943 0.81966 0.0
N161 N 0.54113 0.872 0.58986 0.0
C162 C 0.53715 0.88232 0.50948 0.0
C163 C 0.55223 0.86075 0.44712 0.0
C164 C 0.57195 0.82946 0.46801 0.0
C165 C 0.57722 0.82072 0.55114 0.0
C166 C 0.56213 0.84375 0.61059 0.0
H167 H 0.52224 0.9065 0.49291 0.0
O168 O 0.38309 0.79614 0.64831 0.0
O169 O 0.45961 0.84186 0.69855 0.0
O170 O 0.42057 0.90397 0.6418 0.0
O171 O 0.50413 0.93801 0.62028 0.0
C172 C 0.59676 0.78998 0.57734 0.0
C173 C 0.60109 0.78298 0.66215 0.0
H174 H 0.60295 0.7777 0.83031 0.0
H175 H 0.57411 0.82146 0.92627 0.0
H176 H 0.54842 0.86803 0.3831 0.0
H177 H 0.58303 0.81246 0.41974 0.0
H178 H 0.60829 0.7713 0.53278 0.0
H179 H 0.61569 0.75886 0.68154 0.0
Mn180 Mn 0.58039 0.42909 0.89617 0.0
Mn181 Mn 0.65143 0.5535 0.85191 0.0
C182 C 0.64921 0.45717 0.8084 0.0
C183 C 0.56236 0.36009 0.97858 0.0
C184 C 0.54942 0.48405 0.77339 0.0
O185 O 0.5595 0.46209 0.9846 0.0
O186 O 0.61286 0.5442 0.95587 0.0
C187 C 0.72127 0.58152 0.99332 0.0
N188 N 0.71369 0.57966 0.91046 0.0
C189 C 0.80247 0.6149 0.88363 0.0
C190 C 0.81124 0.61759 0.96865 0.0
C191 C 0.77044 0.60076 0.0237 0.0
C192 C 0.75264 0.59541 0.85696 0.0
H193 H 0.69 0.56806 0.03594 0.0
C194 C 0.5781 0.50908 0.99956 0.0
O195 O 0.52801 0.36016 0.93204 0.0
O196 O 0.60647 0.40054 0.97975 0.0
N197 N 0.69173 0.56879 0.75426 0.0
C198 C 0.67712 0.56549 0.67423 0.0
C199 C 0.7135 0.58109 0.61131 0.0
C200 C 0.76459 0.6008 0.63136 0.0
C201 C 0.77897 0.60584 0.71426 0.0
C202 C 0.74109 0.59019 0.77429 0.0
H203 H 0.63794 0.55051 0.65836 0.0
O204 O 0.61364 0.41027 0.80793 0.0
O205 O 0.6436 0.48619 0.86074 0.0
O206 O 0.54079 0.44397 0.81102 0.0
O207 O 0.58829 0.52749 0.7865 0.0
C208 C 0.8294 0.6258 0.73969 0.0
C209 C 0.84112 0.63013 0.82431 0.0
H210 H 0.8491 0.63219 0.99234 0.0
H211 H 0.77686 0.60238 0.08941 0.0
H212 H 0.70214 0.57766 0.54751 0.0
H213 H 0.79248 0.61232 0.58266 0.0
H214 H 0.85946 0.6378 0.69466 0.0
H215 H 0.87999 0.64518 0.8431 0.0
C216 C 0.97183 0.4748 0.90486 0.0
C217 C 0.02489 0.49711 0.89449 0.0
C218 C 0.01191 0.46293 0.75358 0.0
C219 C 0.95967 0.44623 0.76107 0.0
N220 N 0.88889 0.43593 0.84214 0.0
N221 N 0.09621 0.51311 0.80793 0.0
C222 C 0.93934 0.45198 0.83636 0.0
C223 C 0.04512 0.49053 0.81917 0.0
N224 N 0.95242 0.47358 0.9814 0.0
N225 N 0.03004 0.45288 0.68318 0.0
H226 H 0.12252 0.53025 0.85454 0.0
H227 H 0.11335 0.51719 0.75082 0.0
H228 H 0.00847 0.43753 0.63033 0.0
H229 H 0.06587 0.45707 0.67812 0.0
H230 H 0.91409 0.45347 0.99548 0.0
H231 H 0.97494 0.48897 0.03333 0.0
H232 H 0.87277 0.44524 0.89069 0.0
H233 H 0.86303 0.41501 0.79625 0.0
C234 C 0.47939 0.94468 0.98275 0.0
C235 C 0.50224 0.96611 0.90585 0.0
C236 C 0.54988 0.0495 0.97103 0.0
C237 C 0.51962 0.02971 0.0429 0.0
N238 N 0.46015 0.95802 0.12225 0.0
N239 N 0.56003 0.03934 0.82591 0.0
C240 C 0.4857 0.97704 0.05011 0.0
C241 C 0.53834 0.01847 0.90001 0.0
N242 N 0.45383 0.89331 0.99227 0.0
N243 N 0.59026 0.09756 0.97058 0.0
H244 H 0.55604 0.01825 0.77341 0.0
H245 H 0.57997 0.0781 0.81498 0.0
H246 H 0.60063 0.1219 0.02061 0.0
H247 H 0.61692 0.11189 0.92337 0.0
H248 H 0.43968 0.87507 0.04826 0.0
H249 H 0.45073 0.8686 0.94535 0.0
H250 H 0.42963 0.92159 0.12893 0.0
H251 H 0.46961 0.97966 0.17569 0.0
C252 C 0.51975 0.56698 0.14006 0.0
C253 C 0.51197 0.53783 0.21235 0.0
C254 C 0.56098 0.50212 0.15148 0.0
C255 C 0.56014 0.52361 0.07441 0.0
N256 N 0.53931 0.57755 0.9947 0.0
N257 N 0.53076 0.48335 0.29251 0.0
C258 C 0.54057 0.55708 0.06883 0.0
C259 C 0.53442 0.50711 0.21959 0.0
N260 N 0.50804 0.60469 0.13928 0.0
N261 N 0.58917 0.479 0.16021 0.0
H262 H 0.51833 0.49256 0.34605 0.0
H263 H 0.53952 0.45479 0.29999 0.0
H264 H 0.61114 0.47703 0.11267 0.0
H265 H 0.59465 0.46569 0.2159 0.0
H266 H 0.51834 0.63094 0.09183 0.0
H267 H 0.49244 0.61343 0.18914 0.0
H268 H 0.51801 0.59492 0.98386 0.0
H269 H 0.55734 0.57512 0.94208 0.0
C270 C 0.01091 0.51535 0.40524 0.0
C271 C 0.98102 0.46179 0.39936 0.0
C272 C 0.00887 0.46611 0.25687 0.0
C273 C 0.03899 0.51937 0.26226 0.0
N274 N 0.08538 0.58965 0.35361 0.0
N275 N 0.98003 0.38978 0.33437 0.0
C276 C 0.0447 0.543 0.3398 0.0
C277 C 0.98798 0.43773 0.32969 0.0
N278 N 0.00936 0.53961 0.47484 0.0
N279 N 0.00047 0.44215 0.18273 0.0
H280 H 0.97459 0.37086 0.38995 0.0
H281 H 0.98766 0.37244 0.28548 0.0
H282 H 0.01538 0.46128 0.12749 0.0
H283 H 0.97499 0.40364 0.17593 0.0
H284 H 0.02556 0.57874 0.47809 0.0
H285 H 0.99126 0.52051 0.52873 0.0
H286 H 0.09362 0.60742 0.4108 0.0
H287 H 0.11467 0.60698 0.31089 0.0
C288 C 0.44056 0.98114 0.39929 0.0
C289 C 0.47504 0.03376 0.40693 0.0
C290 C 0.49075 0.02196 0.55109 0.0
C291 C 0.45994 0.96894 0.54127 0.0
N292 N 0.39334 0.89949 0.46552 0.0
N293 N 0.52113 0.106 0.49477 0.0
C294 C 0.43084 0.94895 0.46849 0.0
C295 C 0.49668 0.05471 0.48447 0.0
N296 N 0.4188 0.96139 0.32496 0.0
N297 N 0.51359 0.04075 0.62505 0.0
H298 H 0.52392 0.1307 0.44805 0.0
H299 H 0.53517 0.12424 0.55064 0.0
H300 H 0.50357 0.0183 0.67767 0.0
H301 H 0.54198 0.07789 0.63463 0.0
H302 H 0.40055 0.92301 0.31124 0.0
H303 H 0.42041 0.98344 0.27511 0.0
H304 H 0.36719 0.88422 0.41802 0.0
H305 H 0.38471 0.87419 0.5138 0.0
C306 C 0.50471 0.45092 0.63795 0.0
C307 C 0.51265 0.48032 0.71006 0.0
C308 C 0.4605 0.513 0.65218 0.0
C309 C 0.4614 0.49178 0.57485 0.0
N310 N 0.48349 0.43924 0.49347 0.0
N311 N 0.49199 0.53296 0.79204 0.0
C312 C 0.48237 0.45959 0.56787 0.0
C313 C 0.48858 0.50947 0.71891 0.0
N314 N 0.51758 0.41403 0.63626 0.0
N315 N 0.43092 0.53452 0.66237 0.0
H316 H 0.50554 0.52456 0.84489 0.0
H317 H 0.48181 0.56045 0.80042 0.0
H318 H 0.4079 0.53529 0.61576 0.0
H319 H 0.42542 0.54761 0.71838 0.0
H320 H 0.50715 0.3876 0.58912 0.0
H321 H 0.53423 0.40599 0.68516 0.0
H322 H 0.50571 0.42297 0.48145 0.0
H323 H 0.46435 0.44064 0.44176 0.0
C324 C 0.29181 0.55493 0.13439 0.0
C325 C 0.24618 0.54023 0.1774 0.0
C326 C 0.28372 0.5343 0.30627 0.0
C327 C 0.3293 0.5477 0.26319 0.0
N328 N 0.37534 0.56427 0.1356 0.0
N329 N 0.19407 0.50496 0.29755 0.0
C330 C 0.33283 0.55598 0.17683 0.0
C331 C 0.24063 0.52611 0.26121 0.0
N332 N 0.2964 0.56973 0.05384 0.0
N333 N 0.28244 0.53279 0.39046 0.0
H334 H 0.16188 0.49881 0.26574 0.0
H335 H 0.18645 0.4892 0.35632 0.0
H336 H 0.31312 0.53916 0.4266 0.0
H337 H 0.25201 0.52887 0.42516 0.0
H338 H 0.33034 0.58683 0.02144 0.0
H339 H 0.26628 0.56702 0.01983 0.0
H340 H 0.37901 0.56616 0.07181 0.0
H341 H 0.40551 0.56428 0.16515 0.0
C342 C 0.73313 0.26552 0.32109 0.0
C343 C 0.69312 0.22583 0.3658 0.0
C344 C 0.73069 0.26715 0.49649 0.0
C345 C 0.77008 0.30797 0.45197 0.0
N346 N 0.80821 0.34861 0.32314 0.0
N347 N 0.65883 0.1818 0.49299 0.0
C348 C 0.77125 0.30769 0.36447 0.0
C349 C 0.69354 0.2245 0.45274 0.0
N350 N 0.73488 0.26237 0.23719 0.0
N351 N 0.72664 0.27081 0.57982 0.0
H352 H 0.63158 0.14995 0.4618 0.0
H353 H 0.65977 0.17594 0.55592 0.0
H354 H 0.75268 0.30148 0.61445 0.0
H355 H 0.69582 0.24503 0.61455 0.0
H356 H 0.76524 0.28723 0.20082 0.0
H357 H 0.70714 0.23248 0.20327 0.0
H358 H 0.80825 0.35427 0.26003 0.0
H359 H 0.83907 0.37829 0.35254 0.0
C360 C 0.45504 0.73949 0.65318 0.0
C361 C 0.4436 0.77187 0.60628 0.0
C362 C 0.44967 0.73242 0.47827 0.0
C363 C 0.45928 0.69914 0.52533 0.0
N364 N 0.48113 0.67614 0.6535 0.0
N365 N 0.42534 0.79667 0.47589 0.0
C366 C 0.46499 0.70428 0.61175 0.0
C367 C 0.43973 0.76764 0.5192 0.0
N368 N 0.4531 0.74016 0.73734 0.0
N369 N 0.45166 0.73128 0.39416 0.0
H370 H 0.42223 0.82589 0.50281 0.0
H371 H 0.41504 0.79118 0.41415 0.0
H372 H 0.45906 0.7061 0.36219 0.0
H373 H 0.45031 0.75775 0.35568 0.0
H374 H 0.45591 0.71427 0.77524 0.0
H375 H 0.44549 0.76485 0.7703 0.0
H376 H 0.49119 0.68119 0.71535 0.0
H377 H 0.4887 0.65025 0.62411 0.0
C378 C 0.74144 0.48386 0.80448 0.0
C379 C 0.6964 0.47234 0.76148 0.0
C380 C 0.73646 0.47208 0.63022 0.0
C381 C 0.7794 0.47944 0.67422 0.0
N382 N 0.8298 0.50653 0.79619 0.0
N383 N 0.6501 0.45529 0.6346 0.0
C384 C 0.78412 0.49016 0.75928 0.0
C385 C 0.69395 0.46705 0.67435 0.0
N386 N 0.74211 0.48463 0.8887 0.0
N387 N 0.7369 0.47026 0.54611 0.0
H388 H 0.62001 0.45549 0.66438 0.0
H389 H 0.64294 0.445 0.57298 0.0
H390 H 0.76802 0.47437 0.51297 0.0
H391 H 0.70864 0.46863 0.50861 0.0
H392 H 0.77169 0.48719 0.92379 0.0
H393 H 0.71173 0.47971 0.92465 0.0
H394 H 0.83786 0.51972 0.85645 0.0
H395 H 0.86133 0.51143 0.76325 0.0
C396 C 0.25002 0.72742 0.81629 0.0
C397 C 0.2886 0.76833 0.86069 0.0
C398 C 0.24865 0.72846 0.99169 0.0
C399 C 0.21256 0.6851 0.94761 0.0
N400 N 0.17795 0.64256 0.81935 0.0
N401 N 0.31782 0.81544 0.98625 0.0
C402 C 0.21253 0.68489 0.86013 0.0
C403 C 0.28561 0.77126 0.94723 0.0
N404 N 0.24924 0.72945 0.73218 0.0
N405 N 0.25015 0.72716 0.07577 0.0
H406 H 0.34489 0.84719 0.95439 0.0
H407 H 0.31499 0.82237 0.04822 0.0
H408 H 0.2235 0.69706 0.11086 0.0
H409 H 0.279 0.75483 0.11122 0.0
H410 H 0.21961 0.70348 0.69594 0.0
H411 H 0.27682 0.7594 0.69791 0.0
H412 H 0.17932 0.63613 0.75677 0.0
H413 H 0.14748 0.61297 0.84956 0.0
C414 C 0.54043 0.30572 0.10417 0.0
C415 C 0.55409 0.31357 0.01994 0.0
C416 C 0.56078 0.23695 0.01762 0.0
C417 C 0.55205 0.2318 0.10386 0.0
N418 N 0.54141 0.26567 0.23217 0.0
N419 N 0.5794 0.28902 0.89557 0.0
C420 C 0.54349 0.26708 0.14802 0.0
C421 C 0.5645 0.27959 0.97621 0.0
N422 N 0.52426 0.3351 0.14195 0.0
N423 N 0.56443 0.20025 0.97521 0.0
H424 H 0.57968 0.31811 0.86176 0.0
H425 H 0.59389 0.26983 0.86282 0.0
H426 H 0.56049 0.168 0.00378 0.0
H427 H 0.56607 0.19873 0.91137 0.0
H428 H 0.50871 0.32802 0.20089 0.0
H429 H 0.52228 0.3641 0.11145 0.0
H430 H 0.54091 0.29364 0.26805 0.0
H431 H 0.54371 0.23834 0.2671 0.0
loop_
_geom_bond_atom_site_label_1
_geom_bond_atom_site_label_2
_geom_bond_distance
_geom_bond_site_symmetry_2
_ccdc_geom_bond_type
Mn0 O5 2.095 . S
Mn0 O15 2.162 . S
Mn0 O16 2.297 . S
Mn0 O24 2.385 1_554 S
Mn0 O25 2.209 . S
Mn0 O26 2.094 1_554 S
Mn1 O6 2.121 . S
Mn1 N8 2.257 . S
Mn1 N17 2.282 1_554 S
Mn1 O25 2.215 . S
Mn1 O27 2.117 1_554 S
C2 O24 1.234 1_554 S
C2 O25 1.283 . S
C3 O15 1.281 . S
C3 O16 1.236 . S
C4 O26 1.240 . S
C4 O27 1.264 . S
O5 Mn0 2.095 . S
O5 C14 1.250 . S
O6 Mn1 2.121 . S
O6 C14 1.258 . S
C7 N8 1.326 . S
C7 C11 1.460 . S
C7 H13 0.929 . S
N8 Mn1 2.257 . S
N8 C7 1.326 . S
N8 C12 1.362 . S
C9 C10 1.258 . S
C9 C12 1.431 . S
C9 C29 1.449 1_554 S
C10 C9 1.258 . S
C10 C11 1.477 . S
C10 H30 0.931 . S
C11 C7 1.460 . S
C11 C10 1.477 . S
C11 H31 0.930 . S
C12 N8 1.362 . S
C12 C9 1.431 . S
C12 C22 1.476 1_554 S
H13 C7 0.929 . S
C14 O5 1.250 . S
C14 O6 1.258 . S
O15 Mn0 2.162 . S
O15 C3 1.281 . S
O16 Mn0 2.297 . S
O16 C3 1.236 . S
N17 Mn1 2.282 1_556 S
N17 C18 1.328 . S
N17 C22 1.318 . S
C18 N17 1.328 . S
C18 C19 1.457 . S
C18 H23 0.929 . S
C19 C18 1.457 . S
C19 C20 1.291 . S
C19 H32 0.931 . S
C20 C19 1.291 . S
C20 C21 1.373 . S
C20 H33 0.929 . S
C21 C20 1.373 . S
C21 C22 1.396 . S
C21 C28 1.403 . S
C22 C12 1.476 1_556 S
C22 N17 1.318 . S
C22 C21 1.396 . S
H23 C18 0.929 . S
O24 Mn0 2.385 1_556 S
O24 C2 1.234 1_556 S
O25 Mn0 2.209 . S
O25 Mn1 2.215 . S
O25 C2 1.283 . S
O26 Mn0 2.094 1_556 S
O26 C4 1.240 . S
O27 Mn1 2.117 1_556 S
O27 C4 1.264 . S
C28 C21 1.403 . S
C28 C29 1.399 . S
C28 H34 0.929 . S
C29 C9 1.449 1_556 S
C29 C28 1.399 . S
C29 H35 0.930 . S
H30 C10 0.931 . S
H31 C11 0.930 . S
H32 C19 0.931 . S
H33 C20 0.929 . S
H34 C28 0.929 . S
H35 C29 0.930 . S
Mn36 O41 2.095 . S
Mn36 O51 2.162 . S
Mn36 O52 2.297 . S
Mn36 O60 2.385 . S
Mn36 O61 2.209 . S
Mn36 O62 2.094 . S
Mn37 O42 2.121 . S
Mn37 N44 2.257 . S
Mn37 N53 2.282 . S
Mn37 O61 2.215 . S
Mn37 O63 2.117 . S
C38 O60 1.234 . S
C38 O61 1.283 . S
C39 O51 1.281 . S
C39 O52 1.236 . S
C40 O62 1.240 . S
C40 O63 1.264 . S
O41 Mn36 2.095 . S
O41 C50 1.250 . S
O42 Mn37 2.121 . S
O42 C50 1.258 . S
C43 N44 1.326 . S
C43 C47 1.460 . S
C43 H49 0.929 . S
N44 Mn37 2.257 . S
N44 C43 1.326 . S
N44 C48 1.362 . S
C45 C46 1.258 . S
C45 C48 1.431 . S
C45 C65 1.449 . S
C46 C45 1.258 . S
C46 C47 1.477 . S
C46 H66 0.931 . S
C47 C43 1.460 . S
C47 C46 1.477 . S
C47 H67 0.930 . S
C48 N44 1.362 . S
C48 C45 1.431 . S
C48 C58 1.476 . S
H49 C43 0.929 . S
C50 O41 1.250 . S
C50 O42 1.258 . S
O51 Mn36 2.162 . S
O51 C39 1.281 . S
O52 Mn36 2.297 . S
O52 C39 1.236 . S
N53 Mn37 2.282 . S
N53 C54 1.328 . S
N53 C58 1.318 . S
C54 N53 1.328 . S
C54 C55 1.457 1_554 S
C54 H59 0.929 . S
C55 C54 1.457 1_556 S
C55 C56 1.291 . S
C55 H68 0.931 . S
C56 C55 1.291 . S
C56 C57 1.373 1_556 S
C56 H69 0.929 . S
C57 C56 1.373 1_554 S
C57 C58 1.396 . S
C57 C64 1.403 . S
C58 C48 1.476 . S
C58 N53 1.318 . S
C58 C57 1.396 . S
H59 C54 0.929 . S
O60 Mn36 2.385 . S
O60 C38 1.234 . S
O61 Mn36 2.209 . S
O61 Mn37 2.215 . S
O61 C38 1.283 . S
O62 Mn36 2.094 . S
O62 C40 1.240 . S
O63 Mn37 2.117 . S
O63 C40 1.264 . S
C64 C57 1.403 . S
C64 C65 1.399 . S
C64 H70 0.929 . S
C65 C45 1.449 . S
C65 C64 1.399 . S
C65 H71 0.930 . S
H66 C46 0.931 . S
H67 C47 0.930 . S
H68 C55 0.931 . S
H69 C56 0.929 . S
H70 C64 0.929 . S
H71 C65 0.930 . S
Mn72 O77 2.095 . S
Mn72 O87 2.162 . S
Mn72 O88 2.297 . S
Mn72 O96 2.385 . S
Mn72 O97 2.209 . S
Mn72 O98 2.094 . S
Mn73 O78 2.121 . S
Mn73 N80 2.257 . S
Mn73 N89 2.282 . S
Mn73 O97 2.215 . S
Mn73 O99 2.117 . S
C74 O96 1.234 . S
C74 O97 1.283 . S
C75 O87 1.281 . S
C75 O88 1.236 . S
C76 O98 1.240 . S
C76 O99 1.264 . S
O77 Mn72 2.095 . S
O77 C86 1.250 . S
O78 Mn73 2.121 . S
O78 C86 1.258 . S
C79 N80 1.326 . S
C79 C83 1.460 . S
C79 H85 0.929 . S
N80 Mn73 2.257 . S
N80 C79 1.326 . S
N80 C84 1.362 . S
C81 C82 1.258 . S
C81 C84 1.431 . S
C81 C101 1.449 . S
C82 C81 1.258 . S
C82 C83 1.477 . S
C82 H102 0.931 . S
C83 C79 1.460 . S
C83 C82 1.477 . S
C83 H103 0.930 . S
C84 N80 1.362 . S
C84 C81 1.431 . S
C84 C94 1.476 . S
H85 C79 0.929 . S
C86 O77 1.250 . S
C86 O78 1.258 . S
O87 Mn72 2.162 . S
O87 C75 1.281 . S
O88 Mn72 2.297 . S
O88 C75 1.236 . S
N89 Mn73 2.282 . S
N89 C90 1.328 . S
N89 C94 1.318 . S
C90 N89 1.328 . S
C90 C91 1.457 . S
C90 H95 0.929 . S
C91 C90 1.457 . S
C91 C92 1.291 . S
C91 H104 0.931 . S
C92 C91 1.291 . S
C92 C93 1.373 . S
C92 H105 0.929 . S
C93 C92 1.373 . S
C93 C94 1.396 . S
C93 C100 1.403 . S
C94 C84 1.476 . S
C94 N89 1.318 . S
C94 C93 1.396 . S
H95 C90 0.929 . S
O96 Mn72 2.385 . S
O96 C74 1.234 . S
O97 Mn72 2.209 . S
O97 Mn73 2.215 . S
O97 C74 1.283 . S
O98 Mn72 2.094 . S
O98 C76 1.240 . S
O99 Mn73 2.117 . S
O99 C76 1.264 . S
C100 C93 1.403 . S
C100 C101 1.399 . S
C100 H106 0.929 . S
C101 C81 1.449 . S
C101 C100 1.399 . S
C101 H107 0.930 . S
H102 C82 0.931 . S
H103 C83 0.930 . S
H104 C91 0.931 . S
H105 C92 0.929 . S
H106 C100 0.929 . S
H107 C101 0.930 . S
Mn108 O113 2.095 . S
Mn108 O123 2.162 . S
Mn108 O124 2.297 . S
Mn108 O132 2.385 . S
Mn108 O133 2.209 . S
Mn108 O134 2.094 . S
Mn109 O114 2.121 . S
Mn109 N116 2.257 . S
Mn109 N125 2.282 . S
Mn109 O133 2.215 . S
Mn109 O135 2.117 . S
C110 O132 1.234 . S
C110 O133 1.283 . S
C111 O123 1.281 . S
C111 O124 1.236 . S
C112 O134 1.240 . S
C112 O135 1.264 . S
O113 Mn108 2.095 . S
O113 C122 1.250 . S
O114 Mn109 2.121 . S
O114 C122 1.258 . S
C115 N116 1.326 . S
C115 C119 1.460 . S
C115 H121 0.929 . S
N116 Mn109 2.257 . S
N116 C115 1.326 . S
N116 C120 1.362 . S
C117 C118 1.258 . S
C117 C120 1.431 . S
C117 C137 1.449 . S
C118 C117 1.258 . S
C118 C119 1.477 . S
C118 H138 0.931 . S
C119 C115 1.460 . S
C119 C118 1.477 . S
C119 H139 0.930 . S
C120 N116 1.362 . S
C120 C117 1.431 . S
C120 C130 1.476 . S
H121 C115 0.929 . S
C122 O113 1.250 . S
C122 O114 1.258 . S
O123 Mn108 2.162 . S
O123 C111 1.281 . S
O124 Mn108 2.297 . S
O124 C111 1.236 . S
N125 Mn109 2.282 . S
N125 C126 1.328 . S
N125 C130 1.318 . S
C126 N125 1.328 . S
C126 C127 1.457 . S
C126 H131 0.929 . S
C127 C126 1.457 . S
C127 C128 1.291 . S
C127 H140 0.931 . S
C128 C127 1.291 . S
C128 C129 1.373 . S
C128 H141 0.929 . S
C129 C128 1.373 . S
C129 C130 1.396 . S
C129 C136 1.403 . S
C130 C120 1.476 . S
C130 N125 1.318 . S
C130 C129 1.396 . S
H131 C126 0.929 . S
O132 Mn108 2.385 . S
O132 C110 1.234 . S
O133 Mn108 2.209 . S
O133 Mn109 2.215 . S
O133 C110 1.283 . S
O134 Mn108 2.094 . S
O134 C112 1.240 . S
O135 Mn109 2.117 . S
O135 C112 1.264 . S
C136 C129 1.403 . S
C136 C137 1.399 . S
C136 H142 0.929 . S
C137 C117 1.449 . S
C137 C136 1.399 . S
C137 H143 0.930 . S
H138 C118 0.931 . S
H139 C119 0.930 . S
H140 C127 0.931 . S
H141 C128 0.929 . S
H142 C136 0.929 . S
H143 C137 0.930 . S
Mn144 O149 2.095 . S
Mn144 O159 2.162 . S
Mn144 O160 2.297 . S
Mn144 O168 2.385 . S
Mn144 O169 2.209 . S
Mn144 O170 2.094 . S
Mn145 O150 2.121 . S
Mn145 N152 2.257 . S
Mn145 N161 2.282 . S
Mn145 O169 2.215 . S
Mn145 O171 2.117 . S
C146 O168 1.234 . S
C146 O169 1.283 . S
C147 O159 1.281 . S
C147 O160 1.236 . S
C148 O170 1.240 . S
C148 O171 1.264 . S
O149 Mn144 2.095 . S
O149 C158 1.250 . S
O150 Mn145 2.121 . S
O150 C158 1.258 . S
C151 N152 1.326 . S
C151 C155 1.460 . S
C151 H157 0.929 . S
N152 Mn145 2.257 . S
N152 C151 1.326 . S
N152 C156 1.362 . S
C153 C154 1.258 . S
C153 C156 1.431 . S
C153 C173 1.449 . S
C154 C153 1.258 . S
C154 C155 1.477 . S
C154 H174 0.931 . S
C155 C151 1.460 . S
C155 C154 1.477 . S
C155 H175 0.930 . S
C156 N152 1.362 . S
C156 C153 1.431 . S
C156 C166 1.476 . S
H157 C151 0.929 . S
C158 O149 1.250 . S
C158 O150 1.258 . S
O159 Mn144 2.162 . S
O159 C147 1.281 . S
O160 Mn144 2.297 . S
O160 C147 1.236 . S
N161 Mn145 2.282 . S
N161 C162 1.328 . S
N161 C166 1.318 . S
C162 N161 1.328 . S
C162 C163 1.457 . S
C162 H167 0.929 . S
C163 C162 1.457 . S
C163 C164 1.291 . S
C163 H176 0.931 . S
C164 C163 1.291 . S
C164 C165 1.373 . S
C164 H177 0.929 . S
C165 C164 1.373 . S
C165 C166 1.396 . S
C165 C172 1.403 . S
C166 C156 1.476 . S
C166 N161 1.318 . S
C166 C165 1.396 . S
H167 C162 0.929 . S
O168 Mn144 2.385 . S
O168 C146 1.234 . S
O169 Mn144 2.209 . S
O169 Mn145 2.215 . S
O169 C146 1.283 . S
O170 Mn144 2.094 . S
O170 C148 1.240 . S
O171 Mn145 2.117 . S
O171 C148 1.264 . S
C172 C165 1.403 . S
C172 C173 1.399 . S
C172 H178 0.929 . S
C173 C153 1.449 . S
C173 C172 1.399 . S
C173 H179 0.930 . S
H174 C154 0.931 . S
H175 C155 0.930 . S
H176 C163 0.931 . S
H177 C164 0.929 . S
H178 C172 0.929 . S
H179 C173 0.930 . S
Mn180 O185 2.095 . S
Mn180 O195 2.162 . S
Mn180 O196 2.297 1_556 S
Mn180 O204 2.385 . S
Mn180 O205 2.209 . S
Mn180 O206 2.094 . S
Mn181 O186 2.121 . S
Mn181 N188 2.257 . S
Mn181 N197 2.282 . S
Mn181 O205 2.215 . S
Mn181 O207 2.117 . S
C182 O204 1.234 . S
C182 O205 1.283 . S
C183 O195 1.281 . S
C183 O196 1.236 1_556 S
C184 O206 1.240 . S
C184 O207 1.264 . S
O185 Mn180 2.095 . S
O185 C194 1.250 1_556 S
O186 Mn181 2.121 . S
O186 C194 1.258 1_556 S
C187 N188 1.326 . S
C187 C191 1.460 . S
C187 H193 0.929 1_556 S
N188 Mn181 2.257 . S
N188 C187 1.326 . S
N188 C192 1.362 . S
C189 C190 1.258 . S
C189 C192 1.431 . S
C189 C209 1.449 . S
C190 C189 1.258 . S
C190 C191 1.481 . S
C190 H210 0.931 . S
C191 C187 1.460 . S
C191 C190 1.481 . S
C191 H211 0.926 1_556 S
C192 N188 1.362 . S
C192 C189 1.431 . S
C192 C202 1.476 . S
H193 C187 0.929 1_554 S
C194 O185 1.250 1_554 S
C194 O186 1.258 1_554 S
O195 Mn180 2.162 . S
O195 C183 1.281 . S
O196 Mn180 2.297 1_554 S
O196 C183 1.236 1_554 S
N197 Mn181 2.282 . S
N197 C198 1.328 . S
N197 C202 1.318 . S
C198 N197 1.328 . S
C198 C199 1.457 . S
C198 H203 0.929 . S
C199 C198 1.457 . S
C199 C200 1.291 . S
C199 H212 0.931 . S
C200 C199 1.291 . S
C200 C201 1.373 . S
C200 H213 0.929 . S
C201 C200 1.373 . S
C201 C202 1.396 . S
C201 C208 1.403 . S
C202 C192 1.476 . S
C202 N197 1.318 . S
C202 C201 1.396 . S
H203 C198 0.929 . S
O204 Mn180 2.385 . S
O204 C182 1.234 . S
O205 Mn180 2.209 . S
O205 Mn181 2.215 . S
O205 C182 1.283 . S
O206 Mn180 2.094 . S
O206 C184 1.240 . S
O207 Mn181 2.117 . S
O207 C184 1.264 . S
C208 C201 1.403 . S
C208 C209 1.399 . S
C208 H214 0.929 . S
C209 C189 1.449 . S
C209 C208 1.399 . S
C209 H215 0.930 . S
H210 C190 0.931 . S
H211 C191 0.926 1_554 S
H212 C199 0.931 . S
H213 C200 0.929 . S
H214 C208 0.929 . S
H215 C209 0.930 . S
C216 C217 1.363 . S
C216 C222 1.379 1_455 S
C216 N224 1.356 . S
C217 C216 1.363 . S
C217 C223 1.363 . S
C218 C219 1.363 . S
C218 C223 1.379 1_655 S
C218 N225 1.356 . S
C219 C218 1.363 . S
C219 C222 1.363 . S
N220 C222 1.356 . S
N220 H232 0.984 . S
N220 H233 0.985 . S
N221 C223 1.356 . S
N221 H226 0.984 . S
N221 H227 0.985 . S
C222 C216 1.379 1_655 S
C222 C219 1.363 . S
C222 N220 1.356 . S
C223 C217 1.363 . S
C223 C218 1.379 1_455 S
C223 N221 1.356 . S
N224 C216 1.356 . S
N224 H230 0.984 . S
N224 H231 0.984 . S
N225 C218 1.356 . S
N225 H228 0.984 . S
N225 H229 0.985 . S
H226 N221 0.984 . S
H227 N221 0.985 . S
H228 N225 0.984 . S
H229 N225 0.985 . S
H230 N224 0.984 . S
H231 N224 0.984 . S
H232 N220 0.984 . S
H233 N220 0.985 . S
C234 C235 1.363 1_554 S
C234 C240 1.379 . S
C234 N242 1.356 1_554 S
C235 C234 1.363 1_556 S
C235 C241 1.363 1_565 S
C236 C237 1.363 1_556 S
C236 C241 1.379 . S
C236 N243 1.356 . S
C237 C236 1.363 1_554 S
C237 C240 1.363 1_545 S
N238 C240 1.356 . S
N238 H250 0.984 . S
N238 H251 0.985 1_565 S
N239 C241 1.356 1_565 S
N239 H244 0.984 . S
N239 H245 0.985 1_565 S
C240 C234 1.379 . S
C240 C237 1.363 1_565 S
C240 N238 1.356 . S
C241 C235 1.363 1_545 S
C241 C236 1.379 . S
C241 N239 1.356 1_545 S
N242 C234 1.356 1_556 S
N242 H248 0.984 1_556 S
N242 H249 0.984 . S
N243 C236 1.356 . S
N243 H246 0.984 1_556 S
N243 H247 0.985 . S
H244 N239 0.984 . S
H245 N239 0.985 1_545 S
H246 N243 0.984 1_554 S
H247 N243 0.985 . S
H248 N242 0.984 1_554 S
H249 N242 0.984 . S
H250 N238 0.984 . S
H251 N238 0.985 1_545 S
C252 C253 1.363 . S
C252 C258 1.379 . S
C252 N260 1.356 . S
C253 C252 1.363 . S
C253 C259 1.363 . S
C254 C255 1.363 . S
C254 C259 1.379 . S
C254 N261 1.356 . S
C255 C254 1.363 . S
C255 C258 1.363 . S
N256 C258 1.356 1_556 S
N256 H268 0.984 . S
N256 H269 0.985 . S
N257 C259 1.356 . S
N257 H262 0.984 . S
N257 H263 0.985 . S
C258 C252 1.379 . S
C258 C255 1.363 . S
C258 N256 1.356 1_554 S
C259 C253 1.363 . S
C259 C254 1.379 . S
C259 N257 1.356 . S
N260 C252 1.356 . S
N260 H266 0.984 . S
N260 H267 0.984 . S
N261 C254 1.356 . S
N261 H264 0.984 . S
N261 H265 0.985 . S
H262 N257 0.984 . S
H263 N257 0.985 . S
H264 N261 0.984 . S
H265 N261 0.985 . S
H266 N260 0.984 . S
H267 N260 0.984 . S
H268 N256 0.984 . S
H269 N256 0.985 . S
C270 C271 1.363 1_455 S
C270 C276 1.379 . S
C270 N278 1.356 1_455 S
C271 C270 1.363 1_655 S
C271 C277 1.363 . S
C272 C273 1.363 . S
C272 C277 1.379 1_455 S
C272 N279 1.356 . S
C273 C272 1.363 . S
C273 C276 1.363 . S
N274 C276 1.356 . S
N274 H286 0.984 . S
N274 H287 0.985 . S
N275 C277 1.356 . S
N275 H280 0.984 . S
N275 H281 0.985 . S
C276 C270 1.379 . S
C276 C273 1.363 . S
C276 N274 1.356 . S
C277 C271 1.363 . S
C277 C272 1.379 1_655 S
C277 N275 1.356 . S
N278 C270 1.356 1_655 S
N278 H284 0.984 1_655 S
N278 H285 0.984 . S
N279 C272 1.356 . S
N279 H282 0.984 . S
N279 H283 0.985 . S
H280 N275 0.984 . S
H281 N275 0.985 . S
H282 N279 0.984 . S
H283 N279 0.985 . S
H284 N278 0.984 1_455 S
H285 N278 0.984 . S
H286 N274 0.984 . S
H287 N274 0.985 . S
C288 C289 1.361 1_565 S
C288 C294 1.382 . S
C288 N296 1.355 1_565 S
C289 C288 1.361 1_545 S
C289 C295 1.363 . S
C290 C291 1.363 1_545 S
C290 C295 1.379 . S
C290 N297 1.356 . S
C291 C290 1.363 1_565 S
C291 C294 1.363 . S
N292 C294 1.356 . S
N292 H304 0.984 . S
N292 H305 0.985 . S
N293 C295 1.356 . S
N293 H298 0.984 . S
N293 H299 0.985 . S
C294 C288 1.382 . S
C294 C291 1.363 . S
C294 N292 1.356 . S
C295 C289 1.363 . S
C295 C290 1.379 . S
C295 N293 1.356 . S
N296 C288 1.355 1_545 S
N296 H302 0.984 1_545 S
N296 H303 0.984 . S
N297 C290 1.356 . S
N297 H300 0.984 1_545 S
N297 H301 0.985 . S
H298 N293 0.984 . S
H299 N293 0.985 . S
H300 N297 0.984 1_565 S
H301 N297 0.985 . S
H302 N296 0.984 1_565 S
H303 N296 0.984 . S
H304 N292 0.984 . S
H305 N292 0.985 . S
C306 C307 1.363 . S
C306 C312 1.379 . S
C306 N314 1.356 . S
C307 C306 1.363 . S
C307 C313 1.363 . S
C308 C309 1.363 . S
C308 C313 1.379 . S
C308 N315 1.356 . S
C309 C308 1.363 . S
C309 C312 1.363 . S
N310 C312 1.356 . S
N310 H322 0.984 . S
N310 H323 0.985 . S
N311 C313 1.356 . S
N311 H316 0.984 . S
N311 H317 0.985 . S
C312 C306 1.379 . S
C312 C309 1.363 . S
C312 N310 1.356 . S
C313 C307 1.363 . S
C313 C308 1.379 . S
C313 N311 1.356 . S
N314 C306 1.356 . S
N314 H320 0.984 . S
N314 H321 0.984 . S
N315 C308 1.356 . S
N315 H318 0.984 . S
N315 H319 0.985 . S
H316 N311 0.984 . S
H317 N311 0.985 . S
H318 N315 0.984 . S
H319 N315 0.985 . S
H320 N314 0.984 . S
H321 N314 0.984 . S
H322 N310 0.984 . S
H323 N310 0.985 . S
C324 C325 1.363 . S
C324 C330 1.379 . S
C324 N332 1.356 . S
C325 C324 1.363 . S
C325 C331 1.363 . S
C326 C327 1.363 . S
C326 C331 1.379 . S
C326 N333 1.356 . S
C327 C326 1.363 . S
C327 C330 1.363 . S
N328 C330 1.356 . S
N328 H340 0.984 . S
N328 H341 0.985 . S
N329 C331 1.356 . S
N329 H334 0.984 . S
N329 H335 0.985 . S
C330 C324 1.379 . S
C330 C327 1.363 . S
C330 N328 1.356 . S
C331 C325 1.363 . S
C331 C326 1.379 . S
C331 N329 1.356 . S
N332 C324 1.356 . S
N332 H338 0.984 . S
N332 H339 0.984 . S
N333 C326 1.356 . S
N333 H336 0.984 . S
N333 H337 0.985 . S
H334 N329 0.984 . S
H335 N329 0.985 . S
H336 N333 0.984 . S
H337 N333 0.985 . S
H338 N332 0.984 . S
H339 N332 0.984 . S
H340 N328 0.984 . S
H341 N328 0.985 . S
C342 C343 1.363 . S
C342 C348 1.379 . S
C342 N350 1.356 . S
C343 C342 1.363 . S
C343 C349 1.363 . S
C344 C345 1.363 . S
C344 C349 1.379 . S
C344 N351 1.356 . S
C345 C344 1.363 . S
C345 C348 1.363 . S
N346 C348 1.356 . S
N346 H358 0.984 . S
N346 H359 0.985 . S
N347 C349 1.356 . S
N347 H352 0.984 . S
N347 H353 0.985 . S
C348 C342 1.379 . S
C348 C345 1.363 . S
C348 N346 1.356 . S
C349 C343 1.363 . S
C349 C344 1.379 . S
C349 N347 1.356 . S
N350 C342 1.356 . S
N350 H356 0.984 . S
N350 H357 0.984 . S
N351 C344 1.356 . S
N351 H354 0.984 . S
N351 H355 0.985 . S
H352 N347 0.984 . S
H353 N347 0.985 . S
H354 N351 0.984 . S
H355 N351 0.985 . S
H356 N350 0.984 . S
H357 N350 0.984 . S
H358 N346 0.984 . S
H359 N346 0.985 . S
C360 C361 1.363 . S
C360 C366 1.379 . S
C360 N368 1.356 . S
C361 C360 1.363 . S
C361 C367 1.363 . S
C362 C363 1.363 . S
C362 C367 1.379 . S
C362 N369 1.356 . S
C363 C362 1.363 . S
C363 C366 1.363 . S
N364 C366 1.356 . S
N364 H376 0.984 . S
N364 H377 0.985 . S
N365 C367 1.356 . S
N365 H370 0.984 . S
N365 H371 0.985 . S
C366 C360 1.379 . S
C366 C363 1.363 . S
C366 N364 1.356 . S
C367 C361 1.363 . S
C367 C362 1.379 . S
C367 N365 1.356 . S
N368 C360 1.356 . S
N368 H374 0.984 . S
N368 H375 0.984 . S
N369 C362 1.356 . S
N369 H372 0.984 . S
N369 H373 0.985 . S
H370 N365 0.984 . S
H371 N365 0.985 . S
H372 N369 0.984 . S
H373 N369 0.985 . S
H374 N368 0.984 . S
H375 N368 0.984 . S
H376 N364 0.984 . S
H377 N364 0.985 . S
C378 C379 1.363 . S
C378 C384 1.379 . S
C378 N386 1.356 . S
C379 C378 1.363 . S
C379 C385 1.363 . S
C380 C381 1.363 . S
C380 C385 1.379 . S
C380 N387 1.356 . S
C381 C380 1.363 . S
C381 C384 1.363 . S
N382 C384 1.356 . S
N382 H394 0.984 . S
N382 H395 0.985 . S
N383 C385 1.356 . S
N383 H388 0.984 . S
N383 H389 0.985 . S
C384 C378 1.379 . S
C384 C381 1.363 . S
C384 N382 1.356 . S
C385 C379 1.363 . S
C385 C380 1.379 . S
C385 N383 1.356 . S
N386 C378 1.356 . S
N386 H392 0.984 . S
N386 H393 0.984 . S
N387 C380 1.356 . S
N387 H390 0.984 . S
N387 H391 0.985 . S
H388 N383 0.984 . S
H389 N383 0.985 . S
H390 N387 0.984 . S
H391 N387 0.985 . S
H392 N386 0.984 . S
H393 N386 0.984 . S
H394 N382 0.984 . S
H395 N382 0.985 . S
C396 C397 1.363 . S
C396 C402 1.379 . S
C396 N404 1.356 . S
C397 C396 1.363 . S
C397 C403 1.363 . S
C398 C399 1.363 . S
C398 C403 1.379 . S
C398 N405 1.356 1_556 S
C399 C398 1.363 . S
C399 C402 1.363 . S
N400 C402 1.356 . S
N400 H412 0.984 . S
N400 H413 0.985 . S
N401 C403 1.356 . S
N401 H406 0.984 . S
N401 H407 0.985 . S
C402 C396 1.379 . S
C402 C399 1.363 . S
C402 N400 1.356 . S
C403 C397 1.363 . S
C403 C398 1.379 . S
C403 N401 1.356 . S
N404 C396 1.356 . S
N404 H410 0.984 . S
N404 H411 0.984 . S
N405 C398 1.356 1_554 S
N405 H408 0.984 . S
N405 H409 0.985 . S
H406 N401 0.984 . S
H407 N401 0.985 . S
H408 N405 0.984 . S
H409 N405 0.985 . S
H410 N404 0.984 . S
H411 N404 0.984 . S
H412 N400 0.984 . S
H413 N400 0.985 . S
C414 C415 1.363 . S
C414 C420 1.379 . S
C414 N422 1.356 . S
C415 C414 1.363 . S
C415 C421 1.363 . S
C416 C417 1.363 . S
C416 C421 1.379 . S
C416 N423 1.356 . S
C417 C416 1.363 . S
C417 C420 1.363 . S
N418 C420 1.356 . S
N418 H430 0.984 . S
N418 H431 0.985 . S
N419 C421 1.356 1_556 S
N419 H424 0.984 . S
N419 H425 0.985 . S
C420 C414 1.379 . S
C420 C417 1.363 . S
C420 N418 1.356 . S
C421 C415 1.363 . S
C421 C416 1.379 . S
C421 N419 1.356 1_554 S
N422 C414 1.356 . S
N422 H428 0.984 . S
N422 H429 0.984 . S
N423 C416 1.356 . S
N423 H426 0.984 . S
N423 H427 0.985 . S
H424 N419 0.984 . S
H425 N419 0.985 . S
H426 N423 0.984 . S
H427 N423 0.985 . S
H428 N422 0.984 . S
H429 N422 0.984 . S
H430 N418 0.984 . S
H431 N418 0.985 . S
C217 C4 1.309 . S
C219 C122 1.310 . S
C235 C158 1.310 . S
C237 C40 1.309 . S
C253 C76 1.309 . S
C255 C194 1.310 . S
C271 C112 1.309 . S
C273 C14 1.310 . S
C289 C50 1.310 . S
C291 C148 1.309 . S
C307 C184 1.309 . S
C309 C86 1.310 . S
C325 C3 1.350 . S
C327 C74 1.331 . S
C343 C39 1.351 . S
C345 C110 1.331 . S
C361 C146 1.331 . S
C363 C75 1.351 . S
C379 C182 1.331 . S
C381 C111 1.350 . S
C397 C147 1.351 . S
C399 C2 1.331 1_556 S
C415 C183 1.351 1_554 S
C417 C38 1.331 . S
