# Generated by pormake.
# Topology lcy-a, (4)-cn, num edge types: 1
# Building blocks:
#     Node 0, Type 0, BuildingBlock: GALJAG_clean_sbu_0, # of connection points: 4
#     Node 1, Type 0, BuildingBlock: GALJAG_clean_sbu_0, # of connection points: 4
#     Node 2, Type 0, BuildingBlock: GALJAG_clean_sbu_0, # of connection points: 4
#     Node 3, Type 0, BuildingBlock: GALJAG_clean_sbu_0, # of connection points: 4
#     Node 4, Type 0, BuildingBlock: GALJAG_clean_sbu_0, # of connection points: 4
#     Node 5, Type 0, BuildingBlock: GALJAG_clean_sbu_0, # of connection points: 4
#     Node 6, Type 0, BuildingBlock: GALJAG_clean_sbu_0, # of connection points: 4
#     Node 7, Type 0, BuildingBlock: GALJAG_clean_sbu_0, # of connection points: 4
#     Node 8, Type 0, BuildingBlock: GALJAG_clean_sbu_0, # of connection points: 4
#     Node 9, Type 0, BuildingBlock: GALJAG_clean_sbu_0, # of connection points: 4
#     Node 10, Type 0, BuildingBlock: GALJAG_clean_sbu_0, # of connection points: 4
#     Node 11, Type 0, BuildingBlock: GALJAG_clean_sbu_0, # of connection points: 4
#     Node 12, Type 0, BuildingBlock: GALJAG_clean_sbu_0, # of connection points: 4
#     Node 13, Type 0, BuildingBlock: GALJAG_clean_sbu_0, # of connection points: 4
#     Node 14, Type 0, BuildingBlock: GALJAG_clean_sbu_0, # of connection points: 4
#     Node 15, Type 0, BuildingBlock: GALJAG_clean_sbu_0, # of connection points: 4
#     Node 16, Type 0, BuildingBlock: GALJAG_clean_sbu_0, # of connection points: 4
#     Node 17, Type 0, BuildingBlock: GALJAG_clean_sbu_0, # of connection points: 4
#     Node 18, Type 0, BuildingBlock: GALJAG_clean_sbu_0, # of connection points: 4
#     Node 19, Type 0, BuildingBlock: GALJAG_clean_sbu_0, # of connection points: 4
#     Node 20, Type 0, BuildingBlock: GALJAG_clean_sbu_0, # of connection points: 4
#     Node 21, Type 0, BuildingBlock: GALJAG_clean_sbu_0, # of connection points: 4
#     Node 22, Type 0, BuildingBlock: GALJAG_clean_sbu_0, # of connection points: 4
#     Node 23, Type 0, BuildingBlock: GALJAG_clean_sbu_0, # of connection points: 4
#     Edge 24, Type (0, 0), BuildingBlock: TEMPAE_clean_linker_10, # of connection points: 2
#     Edge 25, Type (0, 0), BuildingBlock: TEMPAE_clean_linker_10, # of connection points: 2
#     Edge 26, Type (0, 0), BuildingBlock: TEMPAE_clean_linker_10, # of connection points: 2
#     Edge 27, Type (0, 0), BuildingBlock: TEMPAE_clean_linker_10, # of connection points: 2
#     Edge 28, Type (0, 0), BuildingBlock: TEMPAE_clean_linker_10, # of connection points: 2
#     Edge 29, Type (0, 0), BuildingBlock: TEMPAE_clean_linker_10, # of connection points: 2
#     Edge 30, Type (0, 0), BuildingBlock: TEMPAE_clean_linker_10, # of connection points: 2
#     Edge 31, Type (0, 0), BuildingBlock: TEMPAE_clean_linker_10, # of connection points: 2
#     Edge 32, Type (0, 0), BuildingBlock: TEMPAE_clean_linker_10, # of connection points: 2
#     Edge 33, Type (0, 0), BuildingBlock: TEMPAE_clean_linker_10, # of connection points: 2
#     Edge 34, Type (0, 0), BuildingBlock: TEMPAE_clean_linker_10, # of connection points: 2
#     Edge 35, Type (0, 0), BuildingBlock: TEMPAE_clean_linker_10, # of connection points: 2
#     Edge 36, Type (0, 0), BuildingBlock: TEMPAE_clean_linker_10, # of connection points: 2
#     Edge 37, Type (0, 0), BuildingBlock: TEMPAE_clean_linker_10, # of connection points: 2
#     Edge 38, Type (0, 0), BuildingBlock: TEMPAE_clean_linker_10, # of connection points: 2
#     Edge 39, Type (0, 0), BuildingBlock: TEMPAE_clean_linker_10, # of connection points: 2
#     Edge 40, Type (0, 0), BuildingBlock: TEMPAE_clean_linker_10, # of connection points: 2
#     Edge 41, Type (0, 0), BuildingBlock: TEMPAE_clean_linker_10, # of connection points: 2
#     Edge 42, Type (0, 0), BuildingBlock: TEMPAE_clean_linker_10, # of connection points: 2
#     Edge 43, Type (0, 0), BuildingBlock: TEMPAE_clean_linker_10, # of connection points: 2
#     Edge 44, Type (0, 0), BuildingBlock: TEMPAE_clean_linker_10, # of connection points: 2
#     Edge 45, Type (0, 0), BuildingBlock: TEMPAE_clean_linker_10, # of connection points: 2
#     Edge 46, Type (0, 0), BuildingBlock: TEMPAE_clean_linker_10, # of connection points: 2
#     Edge 47, Type (0, 0), BuildingBlock: TEMPAE_clean_linker_10, # of connection points: 2
#     Edge 48, Type (0, 0), BuildingBlock: TEMPAE_clean_linker_10, # of connection points: 2
#     Edge 49, Type (0, 0), BuildingBlock: TEMPAE_clean_linker_10, # of connection points: 2
#     Edge 50, Type (0, 0), BuildingBlock: TEMPAE_clean_linker_10, # of connection points: 2
#     Edge 51, Type (0, 0), BuildingBlock: TEMPAE_clean_linker_10, # of connection points: 2
#     Edge 52, Type (0, 0), BuildingBlock: TEMPAE_clean_linker_10, # of connection points: 2
#     Edge 53, Type (0, 0), BuildingBlock: TEMPAE_clean_linker_10, # of connection points: 2
#     Edge 54, Type (0, 0), BuildingBlock: TEMPAE_clean_linker_10, # of connection points: 2
#     Edge 55, Type (0, 0), BuildingBlock: TEMPAE_clean_linker_10, # of connection points: 2
#     Edge 56, Type (0, 0), BuildingBlock: TEMPAE_clean_linker_10, # of connection points: 2
#     Edge 57, Type (0, 0), BuildingBlock: TEMPAE_clean_linker_10, # of connection points: 2
#     Edge 58, Type (0, 0), BuildingBlock: TEMPAE_clean_linker_10, # of connection points: 2
#     Edge 59, Type (0, 0), BuildingBlock: TEMPAE_clean_linker_10, # of connection points: 2
#     Edge 60, Type (0, 0), BuildingBlock: TEMPAE_clean_linker_10, # of connection points: 2
#     Edge 61, Type (0, 0), BuildingBlock: TEMPAE_clean_linker_10, # of connection points: 2
#     Edge 62, Type (0, 0), BuildingBlock: TEMPAE_clean_linker_10, # of connection points: 2
#     Edge 63, Type (0, 0), BuildingBlock: TEMPAE_clean_linker_10, # of connection points: 2
#     Edge 64, Type (0, 0), BuildingBlock: TEMPAE_clean_linker_10, # of connection points: 2
#     Edge 65, Type (0, 0), BuildingBlock: TEMPAE_clean_linker_10, # of connection points: 2
#     Edge 66, Type (0, 0), BuildingBlock: TEMPAE_clean_linker_10, # of connection points: 2
#     Edge 67, Type (0, 0), BuildingBlock: TEMPAE_clean_linker_10, # of connection points: 2
#     Edge 68, Type (0, 0), BuildingBlock: TEMPAE_clean_linker_10, # of connection points: 2
#     Edge 69, Type (0, 0), BuildingBlock: TEMPAE_clean_linker_10, # of connection points: 2
#     Edge 70, Type (0, 0), BuildingBlock: TEMPAE_clean_linker_10, # of connection points: 2
#     Edge 71, Type (0, 0), BuildingBlock: TEMPAE_clean_linker_10, # of connection points: 2
# Relax obj value: 0.436
# Max RMSD: 0.150
# Mean RMSD: 0.150
data_MOF--net-lcy-a--node1-GALJAG_clean_sbu_0--edge1-TEMPAE_clean_linker_10
_symmetry_space_group_name_H-M    P1
_symmetry_Int_Tables_number       1
_symmetry_cell_setting            triclinic
loop_
_symmetry_equiv_pos_as_xyz
'x, y, z'
_cell_length_a     56.537211
_cell_length_b     56.510235
_cell_length_c     56.588135
_cell_angle_alpha  90.016163
_cell_angle_beta   90.018846
_cell_angle_gamma 89.975633
loop_
_atom_site_label
_atom_site_type_symbol
_atom_site_fract_x
_atom_site_fract_y
_atom_site_fract_z
_atom_type_partial_charge
In0 In 0.184 0.29073 0.39312 0.0
O1 O 0.21971 0.30855 0.39892 0.0
O2 O 0.18879 0.32769 0.40834 0.0
C3 C 0.20887 0.25397 0.37632 0.0
C4 C 0.16451 0.27261 0.43238 0.0
C5 C 0.15989 0.30937 0.35622 0.0
O6 O 0.21633 0.27504 0.37581 0.0
O7 O 0.18843 0.25137 0.38499 0.0
O8 O 0.17251 0.29109 0.35459 0.0
O9 O 0.15783 0.3171 0.37699 0.0
C10 C 0.21105 0.32741 0.40711 0.0
O11 O 0.15266 0.27581 0.41371 0.0
O12 O 0.1858 0.27895 0.4312 0.0
In13 In 0.95894 0.93332 0.66133 0.0
O14 O 0.97605 0.9022 0.68064 0.0
O15 O 0.97262 0.93502 0.6987 0.0
C16 C 0.94215 0.90543 0.62634 0.0
C17 C 0.9236 0.96057 0.67788 0.0
C18 C 0.99115 0.96259 0.64207 0.0
O19 O 0.96336 0.91217 0.62733 0.0
O20 O 0.92995 0.91123 0.64406 0.0
O21 O 0.96948 0.96311 0.63675 0.0
O22 O -0.00321 0.94683 0.65683 0.0
C23 C 0.97991 0.91399 0.69923 0.0
O24 O 0.93952 0.96824 0.66433 0.0
O25 O 0.92521 0.93884 0.68289 0.0
In26 In 0.31025 0.68294 0.89605 0.0
O27 O 0.34661 0.69275 0.91057 0.0
O28 O 0.31748 0.69119 0.93434 0.0
C29 C 0.32714 0.66164 0.8566 0.0
C30 C 0.27797 0.65323 0.91445 0.0
C31 C 0.28907 0.72413 0.88479 0.0
O32 O 0.32314 0.6835 0.85787 0.0
O33 O 0.32425 0.6508 0.87581 0.0
O34 O 0.27978 0.7042 0.88089 0.0
O35 O 0.30923 0.72335 0.89428 0.0
C36 C 0.33914 0.6955 0.93145 0.0
O37 O 0.27232 0.67075 0.90182 0.0
O38 O 0.29991 0.65064 0.91767 0.0
In39 In 0.54118 0.05811 0.14116 0.0
O40 O 0.52495 0.09305 0.15325 0.0
O41 O 0.52767 0.06489 0.17804 0.0
C42 C 0.55658 0.0795 0.10142 0.0
C43 C 0.57651 0.03521 0.16333 0.0
C44 C 0.50959 0.02536 0.12669 0.0
O45 O 0.53497 0.07665 0.10604 0.0
O46 O 0.57037 0.07304 0.11771 0.0
O47 O 0.53077 0.02583 0.11979 0.0
O48 O 0.50411 0.04161 0.14095 0.0
C49 C 0.52109 0.08578 0.17399 0.0
O50 O 0.56103 0.02482 0.15111 0.0
O51 O 0.57454 0.05747 0.16408 0.0
In52 In 0.67638 0.18014 0.60537 0.0
O53 O 0.71314 0.16496 0.60013 0.0
O54 O 0.68413 0.14589 0.5856 0.0
C55 C 0.70129 0.21806 0.61978 0.0
C56 C 0.65233 0.1961 0.56775 0.0
C57 C 0.65494 0.1618 0.64398 0.0
O58 O 0.70775 0.19704 0.6238 0.0
O59 O 0.68191 0.22 0.60889 0.0
O60 O 0.65924 0.18353 0.64169 0.0
O61 O 0.65973 0.14967 0.62593 0.0
C62 C 0.70624 0.1472 0.58851 0.0
O63 O 0.642 0.19081 0.58685 0.0
O64 O 0.67428 0.19245 0.56766 0.0
In65 In 0.03842 0.42969 0.83804 0.0
O66 O 0.07123 0.45235 0.83571 0.0
O67 O 0.06417 0.42906 0.80696 0.0
C68 C 0.01961 0.46625 0.86227 0.0
C69 C 0.00772 0.41968 0.80319 0.0
C70 C 0.05109 0.39789 0.87159 0.0
O71 O 0.03936 0.46729 0.85201 0.0
O72 O 0.00918 0.4466 0.86044 0.0
O73 O 0.03065 0.40663 0.87021 0.0
O74 O 0.06451 0.40376 0.85483 0.0
C75 C 0.07733 0.44498 0.81555 0.0
O76 O 0.01823 0.40363 0.81468 0.0
O77 O 0.01272 0.44046 0.8094 0.0
In78 In 0.79991 0.81766 0.06709 0.0
O79 O 0.81121 0.80878 0.0297 0.0
O80 O 0.83811 0.81249 0.05562 0.0
C81 C 0.81542 0.84278 0.10457 0.0
C82 C 0.76337 0.84055 0.04697 0.0
C83 C 0.78248 0.77646 0.08353 0.0
O84 O 0.81856 0.82079 0.10262 0.0
O85 O 0.80559 0.85227 0.08697 0.0
O86 O 0.79734 0.77725 0.06693 0.0
O87 O 0.77666 0.79636 0.0918 0.0
C88 C 0.83292 0.80757 0.0345 0.0
O89 O 0.76106 0.82109 0.05758 0.0
O90 O 0.78423 0.84856 0.04646 0.0
In91 In 0.47597 0.56248 0.3458 0.0
O92 O 0.49735 0.59008 0.32544 0.0
O93 O 0.49212 0.55614 0.31002 0.0
C94 C 0.45969 0.59161 0.38013 0.0
C95 C 0.43702 0.54179 0.32786 0.0
C96 C 0.50435 0.5308 0.36688 0.0
O97 O 0.47825 0.57951 0.38227 0.0
O98 O 0.45066 0.5907 0.35982 0.0
O99 O 0.48206 0.52914 0.36706 0.0
O100 O 0.51241 0.54877 0.35636 0.0
C101 C 0.50125 0.57636 0.30822 0.0
O102 O 0.45126 0.53105 0.34127 0.0
O103 O 0.44242 0.56301 0.32354 0.0
In104 In 0.37684 0.19069 0.3092 0.0
O105 O 0.38632 0.22378 0.32956 0.0
O106 O 0.40178 0.19142 0.34104 0.0
C107 C 0.3577 0.22421 0.28115 0.0
C108 C 0.40974 0.16625 0.28528 0.0
C109 C 0.33991 0.16594 0.32643 0.0
O110 O 0.37362 0.21035 0.27391 0.0
O111 O 0.35145 0.22092 0.30226 0.0
O112 O 0.34281 0.16979 0.30468 0.0
O113 O 0.35679 0.17289 0.33926 0.0
C114 C 0.4001 0.21356 0.3438 0.0
O115 O 0.41335 0.18658 0.2936 0.0
O116 O 0.38941 0.1579 0.28923 0.0
In117 In 0.04744 0.14505 0.56198 0.0
O118 O 0.02625 0.16005 0.59271 0.0
O119 O 0.02835 0.18053 0.56121 0.0
C120 C 0.01484 0.12737 0.53191 0.0
C121 C 0.08665 0.16719 0.54705 0.0
C122 C 0.0634 0.1071 0.58606 0.0
O123 O 0.03168 0.14019 0.52492 0.0
O124 O 0.01442 0.12381 0.55387 0.0
O125 O 0.06424 0.10857 0.56387 0.0
O126 O 0.05577 0.12544 0.59623 0.0
C127 C 0.02041 0.17875 0.58198 0.0
O128 O 0.07701 0.17207 0.56654 0.0
O129 O 0.07705 0.15056 0.53573 0.0
In130 In 0.13327 0.8174 0.82122 0.0
O131 O 0.0972 0.83455 0.82235 0.0
O132 O 0.12316 0.85072 0.80065 0.0
C133 C 0.17289 0.83478 0.84154 0.0
C134 C 0.11433 0.7853 0.85084 0.0
C135 C 0.14139 0.7893 0.78353 0.0
O136 O 0.1697 0.83468 0.81951 0.0
O137 O 0.15522 0.828 0.85325 0.0
O138 O 0.12238 0.80077 0.78594 0.0
O139 O 0.15627 0.79244 0.79985 0.0
C140 C 0.10202 0.85065 0.8078 0.0
O141 O 0.12708 0.77958 0.8335 0.0
O142 O 0.11159 0.8073 0.85363 0.0
In143 In 0.45365 0.84133 0.04907 0.0
O144 O 0.4914 0.82977 0.05624 0.0
O145 O 0.46478 0.81923 0.08073 0.0
C146 C 0.47478 0.85861 0.01001 0.0
C147 C 0.42355 0.80672 0.03666 0.0
C148 C 0.43748 0.87922 0.07349 0.0
O149 O 0.48231 0.86237 0.03065 0.0
O150 O 0.45647 0.84592 0.00891 0.0
O151 O 0.43497 0.87712 0.05149 0.0
O152 O 0.44674 0.8615 0.08332 0.0
C153 C 0.48633 0.81847 0.07481 0.0
O154 O 0.4165 0.82762 0.04026 0.0
O155 O 0.44537 0.80356 0.03953 0.0
In156 In 0.87225 0.31613 0.68006 0.0
O157 O 0.89458 0.3492 0.67377 0.0
O158 O 0.87441 0.34706 0.70529 0.0
C159 C 0.82943 0.32405 0.66069 0.0
C160 C 0.90622 0.29334 0.65568 0.0
C161 C 0.86515 0.28188 0.71252 0.0
O162 O 0.83302 0.32411 0.68266 0.0
O163 O 0.84787 0.32163 0.64835 0.0
O164 O 0.85824 0.28029 0.69142 0.0
O165 O 0.87586 0.30082 0.7174 0.0
C166 C 0.88928 0.35851 0.69333 0.0
O167 O 0.90952 0.30139 0.67622 0.0
O168 O 0.88592 0.29726 0.64721 0.0
In169 In 0.97357 0.6571 0.96607 0.0
O170 O 0.95931 0.69405 0.96074 0.0
O171 O 0.93468 0.66755 0.97066 0.0
C172 C 0.97196 0.61298 0.94797 0.0
C173 C 0.00871 0.67475 0.9395 0.0
C174 C 0.98338 0.65187 0.01235 0.0
O175 O 0.95841 0.62919 0.94067 0.0
O176 O 0.98584 0.6191 0.96422 0.0
O177 O 0.99463 0.66576 -0.001 0.0
O178 O 0.96598 0.64183 0.00259 0.0
C179 C 0.93823 0.689 0.96561 0.0
O180 O 0.01085 0.67116 0.96141 0.0
O181 O 0.98894 0.66892 0.93087 0.0
In182 In 0.63295 0.67609 0.17021 0.0
O183 O 0.61399 0.71149 0.16835 0.0
O184 O 0.60698 0.68665 0.14104 0.0
C185 C 0.64756 0.70347 0.2064 0.0
C186 C 0.60933 0.63774 0.1857 0.0
C187 C 0.66983 0.66606 0.14152 0.0
O188 O 0.65751 0.70336 0.18642 0.0
O189 O 0.63032 0.68939 0.20829 0.0
O190 O 0.67017 0.66172 0.16334 0.0
O191 O 0.65039 0.67396 0.1341 0.0
C192 C 0.60287 0.70688 0.14962 0.0
O193 O 0.60079 0.65222 0.17116 0.0
O194 O 0.63043 0.64188 0.19155 0.0
In195 In 0.54367 0.34872 0.45097 0.0
O196 O 0.51363 0.32207 0.45312 0.0
O197 O 0.52848 0.3292 0.4193 0.0
C198 C 0.5123 0.37399 0.47626 0.0
C199 C 0.57627 0.31902 0.46848 0.0
C200 C 0.56555 0.38408 0.42769 0.0
O201 O 0.51339 0.37462 0.45401 0.0
O202 O 0.5271 0.36038 0.48601 0.0
O203 O 0.56782 0.38103 0.44964 0.0
O204 O 0.55358 0.36834 0.41739 0.0
C205 C 0.51345 0.31778 0.43123 0.0
O206 O 0.56909 0.31789 0.44746 0.0
O207 O 0.56785 0.33589 0.4804 0.0
In208 In 0.28005 0.41973 0.22428 0.0
O209 O 0.28943 0.44582 0.25348 0.0
O210 O 0.31379 0.44143 0.22514 0.0
C211 C 0.24288 0.40721 0.25143 0.0
C212 C 0.26636 0.44056 0.18398 0.0
C213 C 0.30216 0.37771 0.21918 0.0
O214 O 0.26402 0.40614 0.25844 0.0
O215 O 0.24034 0.41527 0.23083 0.0
O216 O 0.28135 0.38123 0.212 0.0
O217 O 0.31198 0.39556 0.2282 0.0
C218 C 0.30908 0.45148 0.2445 0.0
O219 O 0.27643 0.42065 0.18431 0.0
O220 O 0.26367 0.45011 0.20393 0.0
In221 In 0.79201 0.10156 0.79352 0.0
O222 O 0.79886 0.08029 0.76015 0.0
O223 O 0.8255 0.08039 0.78681 0.0
C224 C 0.75325 0.11142 0.76763 0.0
C225 C 0.77865 0.07629 0.83149 0.0
C226 C 0.81495 0.14278 0.80159 0.0
O227 O 0.77389 0.117 0.76125 0.0
O228 O 0.7521 0.10067 0.78711 0.0
O229 O 0.79281 0.14082 0.80285 0.0
O230 O 0.82562 0.12364 0.79758 0.0
C231 C 0.81891 0.073 0.76678 0.0
O232 O 0.7863 0.06707 0.81278 0.0
O233 O 0.77881 0.09861 0.83163 0.0
In234 In 0.1346 0.51486 0.01938 0.0
O235 O 0.15849 0.52442 0.98851 0.0
O236 O 0.15081 0.55135 0.01361 0.0
C237 C 0.11823 0.47735 0.99484 0.0
C238 C 0.16484 0.4981 0.05173 0.0
C239 C 0.09643 0.53953 0.03407 0.0
O240 O 0.12458 0.47555 0.01612 0.0
O241 O 0.12027 0.4978 0.98624 0.0
O242 O 0.11365 0.53533 0.04759 0.0
O243 O 0.09846 0.531 0.01363 0.0
C244 C 0.16143 0.54562 0.99484 0.0
O245 O 0.17161 0.5071 0.03252 0.0
O246 O 0.14269 0.49728 0.05455 0.0
In247 In 0.70405 0.89404 0.28125 0.0
O248 O 0.70146 0.92467 0.25548 0.0
O249 O 0.67128 0.91713 0.27664 0.0
C250 C 0.73796 0.88447 0.24924 0.0
C251 C 0.7197 0.91001 0.32313 0.0
C252 C 0.68033 0.85286 0.28639 0.0
O253 O 0.71773 0.87512 0.24875 0.0
O254 O 0.74123 0.89882 0.26601 0.0
O255 O 0.69952 0.85702 0.29692 0.0
O256 O 0.67258 0.86992 0.27432 0.0
C257 C 0.68041 0.92987 0.26071 0.0
O258 O 0.70144 0.91823 0.31334 0.0
O259 O 0.72946 0.89324 0.31221 0.0
In260 In 0.33474 0.48372 0.51103 0.0
O261 O 0.31995 0.49252 0.54743 0.0
O262 O 0.30118 0.50453 0.51713 0.0
C263 C 0.37203 0.45943 0.52886 0.0
C264 C 0.30852 0.45305 0.48595 0.0
C265 C 0.35571 0.51795 0.48555 0.0
O266 O 0.37103 0.48169 0.52924 0.0
O267 O 0.35387 0.44963 0.52057 0.0
O268 O 0.35368 0.49693 0.4782 0.0
O269 O 0.34682 0.52177 0.50563 0.0
C270 C 0.30229 0.50356 0.53933 0.0
O271 O 0.31953 0.46991 0.47623 0.0
O272 O 0.31066 0.45197 0.50812 0.0
In273 In 0.19285 0.59701 0.70266 0.0
O274 O 0.18615 0.57647 0.6687 0.0
O275 O 0.21423 0.60144 0.66917 0.0
C276 C 0.16802 0.63784 0.70385 0.0
C277 C 0.172 0.55817 0.72048 0.0
C278 C 0.23016 0.60502 0.73135 0.0
O279 O 0.18426 0.63418 0.68904 0.0
O280 O 0.16376 0.62058 0.71727 0.0
O281 O 0.20942 0.61166 0.73611 0.0
O282 O 0.23219 0.59402 0.71208 0.0
C283 C 0.20314 0.58584 0.65774 0.0
O284 O 0.19403 0.56153 0.72166 0.0
O285 O 0.16056 0.57427 0.71002 0.0
In286 In 0.61655 0.96325 0.93387 0.0
O287 O 0.62571 0.94628 0.96918 0.0
O288 O 0.63806 0.92956 0.93783 0.0
C289 C 0.5989 -0.00246 0.96147 0.0
C290 C 0.65347 0.98359 0.91211 0.0
C291 C 0.57957 0.94199 0.91203 0.0
O292 O 0.59827 0.97589 0.96702 0.0
O293 O 0.60802 0.00193 0.94157 0.0
O294 O 0.57877 0.96294 0.91956 0.0
O295 O 0.59969 0.9326 0.91365 0.0
C296 C 0.63752 0.92962 0.96013 0.0
O297 O 0.65354 0.9775 0.93345 0.0
O298 O 0.63443 0.97934 0.90114 0.0
In299 In 0.84783 0.01557 0.47331 0.0
O300 O 0.83639 0.00658 0.4356 0.0
O301 O 0.81532 0.99443 0.46423 0.0
C302 C 0.88437 0.04263 0.45842 0.0
C303 C 0.81885 0.04247 0.49972 0.0
C304 C 0.86862 0.98177 0.49946 0.0
O305 O 0.88529 0.02035 0.45865 0.0
O306 O 0.86465 0.05104 0.4644 0.0
O307 O 0.86713 0.00308 0.50603 0.0
O308 O 0.85968 0.97744 0.47948 0.0
C309 C 0.81825 0.99535 0.44222 0.0
O310 O 0.82224 0.04617 0.478 0.0
O311 O 0.83017 0.02518 0.50819 0.0
C312 C 0.10713 0.20592 0.54344 0.0
C313 C 0.10467 0.18236 0.53612 0.0
C314 C 0.11946 0.22226 0.52946 0.0
C315 C 0.12972 0.21461 0.50798 0.0
C316 C 0.12925 0.19035 0.50178 0.0
C317 C 0.11655 0.1745 0.51589 0.0
C318 C 0.11969 0.24798 0.53666 0.0
C319 C 0.14046 0.18144 0.47925 0.0
C320 C 0.13102 0.25444 0.45441 0.0
C321 C 0.15501 0.26036 0.45326 0.0
C322 C 0.12235 0.24048 0.47292 0.0
C323 C 0.13816 0.23211 0.49046 0.0
C324 C 0.1622 0.2389 0.48995 0.0
C325 C 0.17034 0.25307 0.47135 0.0
C326 C 0.09647 0.23383 0.4731 0.0
C327 C 0.17955 0.2302 0.5083 0.0
H328 H 0.09792 0.21202 0.5591 0.0
H329 H 0.11484 0.1562 0.51038 0.0
H330 H 0.13744 0.25586 0.53393 0.0
H331 H 0.10703 0.25796 0.52545 0.0
H332 H 0.11451 0.25039 0.55544 0.0
H333 H 0.14122 0.1618 0.47861 0.0
H334 H 0.13005 0.18774 0.46386 0.0
H335 H 0.15867 0.18849 0.47735 0.0
H336 H 0.11913 0.2602 0.44052 0.0
H337 H 0.18894 0.25765 0.47051 0.0
H338 H 0.08858 0.23774 0.49062 0.0
H339 H 0.09461 0.21454 0.46997 0.0
H340 H 0.08622 0.2434 0.45934 0.0
H341 H 0.17232 0.23268 0.52635 0.0
H342 H 0.19685 0.23944 0.50709 0.0
H343 H 0.18259 0.21097 0.50581 0.0
C344 C -0.00022 0.92015 0.73793 0.0
C345 C 0.99432 0.9051 0.71898 0.0
C346 C 0.01615 0.91336 0.75522 0.0
C347 C 0.02717 0.89099 0.75345 0.0
C348 C 0.02081 0.87524 0.73503 0.0
C349 C 0.00443 0.88253 0.71795 0.0
C350 C 0.02243 0.93052 0.77469 0.0
C351 C 0.03206 0.8511 0.7328 0.0
C352 C 0.08845 0.87944 0.7774 0.0
C353 C 0.08334 0.86518 0.79695 0.0
C354 C 0.07019 0.88917 0.76377 0.0
C355 C 0.04639 0.88443 0.76995 0.0
C356 C 0.04117 0.87156 0.79071 0.0
C357 C 0.05976 0.8621 0.80403 0.0
C358 C 0.07637 0.90313 0.74187 0.0
C359 C 0.01599 0.86635 0.79793 0.0
H360 H 0.99192 0.93763 0.73882 0.0
H361 H 0.00017 0.87085 0.70334 0.0
H362 H 0.02154 0.92169 0.79217 0.0
H363 H 0.04088 0.93674 0.77225 0.0
H364 H 0.01056 0.94619 0.77491 0.0
H365 H 0.02409 0.84046 0.71833 0.0
H366 H 0.05126 0.85307 0.72924 0.0
H367 H 0.03022 0.84116 0.7496 0.0
H368 H 0.10666 0.88193 0.77196 0.0
H369 H 0.05575 0.85118 0.81926 0.0
H370 H 0.06626 0.91995 0.74137 0.0
H371 H 0.07141 0.89281 0.72594 0.0
H372 H 0.09555 0.90727 0.74089 0.0
H373 H 0.00503 0.88261 0.79713 0.0
H374 H 0.01492 0.8589 0.81607 0.0
H375 H 0.00817 0.85338 0.78545 0.0
C376 C 0.37391 0.71896 0.94454 0.0
C377 C 0.35331 0.70651 0.95024 0.0
C378 C 0.38494 0.73346 0.96131 0.0
C379 C 0.37525 0.73516 0.98433 0.0
C380 C 0.35542 0.72132 0.99064 0.0
C381 C 0.34455 0.70724 0.97341 0.0
C382 C 0.40611 0.74801 0.95398 0.0
C383 C 0.34497 0.72232 0.01517 0.0
C384 C 0.4162 0.76433 0.02817 0.0
C385 C 0.40847 0.78788 0.02708 0.0
C386 C 0.40456 0.74655 0.0155 0.0
C387 C 0.38504 0.75265 0.00115 0.0
C388 C 0.37626 0.77614 0.00116 0.0
C389 C 0.38803 0.79352 0.01435 0.0
C390 C 0.41404 0.72158 0.01635 0.0
C391 C 0.35547 0.78327 0.98598 0.0
H392 H 0.38064 0.71846 0.92661 0.0
H393 H 0.32867 0.69748 0.97787 0.0
H394 H 0.40154 0.7671 0.95469 0.0
H395 H 0.42102 0.74509 0.96638 0.0
H396 H 0.41216 0.74371 0.9358 0.0
H397 H 0.33154 0.70826 0.01804 0.0
H398 H 0.35904 0.72049 0.02871 0.0
H399 H 0.33639 0.73976 0.01794 0.0
H400 H 0.43192 0.75995 0.03825 0.0
H401 H 0.3821 0.81175 0.0135 0.0
H402 H 0.42288 0.71734 -0.00063 0.0
H403 H 0.39942 0.70871 0.01871 0.0
H404 H 0.42705 0.71912 0.03087 0.0
H405 H 0.36037 0.78171 0.96705 0.0
H406 H 0.34971 0.80175 0.98944 0.0
H407 H 0.34028 0.77126 0.98909 0.0
C408 C 0.5067 0.09153 0.21503 0.0
C409 C 0.508 0.09962 0.19166 0.0
C410 C 0.49213 0.10281 0.23154 0.0
C411 C 0.4784 0.12244 0.22434 0.0
C412 C 0.48032 0.13124 0.201 0.0
C413 C 0.49526 0.11976 0.18491 0.0
C414 C 0.49078 0.0932 0.25641 0.0
C415 C 0.46585 0.15214 0.19275 0.0
C416 C 0.42129 0.13448 0.25707 0.0
C417 C 0.42761 0.154 0.27091 0.0
C418 C 0.43777 0.12392 0.24188 0.0
C419 C 0.46109 0.13299 0.24086 0.0
C420 C 0.46773 0.15227 0.25532 0.0
C421 C 0.45082 0.16266 0.27011 0.0
C422 C 0.43009 0.10343 0.22655 0.0
C423 C 0.49256 0.16212 0.25491 0.0
H424 H 0.51669 0.07602 0.22031 0.0
H425 H 0.49624 0.12599 0.16682 0.0
H426 H 0.49363 0.1076 0.26942 0.0
H427 H 0.47289 0.08583 0.25967 0.0
H428 H 0.50403 0.07904 0.25965 0.0
H429 H 0.47035 0.15754 0.17442 0.0
H430 H 0.44677 0.14761 0.19342 0.0
H431 H 0.46863 0.16748 0.20466 0.0
H432 H 0.40331 0.12784 0.25763 0.0
H433 H 0.45575 0.17772 0.28092 0.0
H434 H 0.44145 0.08779 0.23001 0.0
H435 H 0.43225 0.10813 0.20764 0.0
H436 H 0.41136 0.09838 0.22965 0.0
H437 H 0.50553 0.14786 0.25864 0.0
H438 H 0.4951 0.17653 0.26803 0.0
H439 H 0.49663 0.16915 0.23707 0.0
C440 C 0.65468 0.21919 0.53057 0.0
C441 C 0.64076 0.20918 0.54849 0.0
C442 C 0.64512 0.23565 0.51479 0.0
C443 C 0.621 0.24186 0.51678 0.0
C444 C 0.60642 0.23038 0.53358 0.0
C445 C 0.61655 0.21423 0.54943 0.0
C446 C 0.66125 0.24766 0.49721 0.0
C447 C 0.58045 0.23622 0.53579 0.0
C448 C 0.60125 0.3038 0.50122 0.0
C449 C 0.59053 0.30017 0.47925 0.0
C450 C 0.61205 0.28503 0.51323 0.0
C451 C 0.61162 0.2621 0.50313 0.0
C452 C 0.60153 0.25851 0.48056 0.0
C453 C 0.59126 0.27771 0.46874 0.0
C454 C 0.62322 0.2896 0.53705 0.0
C455 C 0.60055 0.23424 0.46943 0.0
H456 H 0.67344 0.21525 0.52973 0.0
H457 H 0.60574 0.20638 0.56316 0.0
H458 H 0.65309 0.24796 0.47939 0.0
H459 H 0.66407 0.26631 0.50266 0.0
H460 H 0.67876 0.23881 0.49599 0.0
H461 H 0.57104 0.22368 0.54762 0.0
H462 H 0.57841 0.25435 0.54304 0.0
H463 H 0.57183 0.23594 0.51817 0.0
H464 H 0.60072 0.3212 0.50928 0.0
H465 H 0.58278 0.27487 0.45179 0.0
H466 H 0.64163 0.28281 0.53732 0.0
H467 H 0.61324 0.28002 0.55096 0.0
H468 H 0.62349 0.30872 0.54162 0.0
H469 H 0.61836 0.22599 0.46931 0.0
H470 H 0.59372 0.23478 0.45103 0.0
H471 H 0.58885 0.22262 0.48007 0.0
C472 C 0.89722 0.386 0.72651 0.0
C473 C 0.90349 0.37746 0.70413 0.0
C474 C 0.91388 0.39749 0.74075 0.0
C475 C 0.93721 0.40048 0.73225 0.0
C476 C 0.94273 0.39458 0.70858 0.0
C477 C 0.92568 0.38313 0.69469 0.0
C478 C 0.90719 0.40391 0.76578 0.0
C479 C 0.96732 0.39791 0.69877 0.0
C480 C 0.98012 0.43351 0.77174 0.0
C481 C 0.99062 0.41477 0.78419 0.0
C482 C 0.96311 0.4292 0.75423 0.0
C483 C 0.95646 0.40563 0.74925 0.0
C484 C 0.96741 0.38663 0.76142 0.0
C485 C 0.98441 0.39145 0.77874 0.0
C486 C 0.95191 0.44984 0.7415 0.0
C487 C 0.96076 0.36119 0.75653 0.0
H488 H 0.87992 0.38193 0.73371 0.0
H489 H 0.93053 0.37673 0.67729 0.0
H490 H 0.91484 0.39068 0.77809 0.0
H491 H 0.91443 0.42147 0.77068 0.0
H492 H 0.8877 0.40419 0.76831 0.0
H493 H 0.96749 0.39703 0.67915 0.0
H494 H 0.97488 0.41512 0.70441 0.0
H495 H 0.97902 0.38373 0.70566 0.0
H496 H 0.98498 0.45159 0.77586 0.0
H497 H 0.99258 0.37695 0.78829 0.0
H498 H 0.93295 0.45111 0.7464 0.0
H499 H 0.95271 0.44712 0.7221 0.0
H500 H 0.96063 0.4669 0.74586 0.0
H501 H 0.94181 0.35835 0.76079 0.0
H502 H 0.97148 0.3485 0.76703 0.0
H503 H 0.96317 0.35713 0.73751 0.0
C504 C 0.8426 0.78935 0.99564 0.0
C505 C 0.84996 0.79664 0.01816 0.0
C506 C 0.85651 0.77387 0.98218 0.0
C507 C 0.87804 0.76545 0.99169 0.0
C508 C 0.88647 0.77441 0.0135 0.0
C509 C 0.87234 0.79007 0.02643 0.0
C510 C 0.84729 0.76518 0.9587 0.0
C511 C 0.90947 0.76594 0.02415 0.0
C512 C 0.8997 0.70322 0.98128 0.0
C513 C 0.92011 0.70749 0.96801 0.0
C514 C 0.88482 0.72191 0.98783 0.0
C515 C 0.89046 0.74525 0.9806 0.0
C516 C 0.90983 0.74929 0.96538 0.0
C517 C 0.9246 0.73032 0.9594 0.0
C518 C 0.8642 0.71693 0.00405 0.0
C519 C 0.91598 0.77382 0.95681 0.0
H520 H 0.82536 0.79462 0.98909 0.0
H521 H 0.87814 0.79582 0.04377 0.0
H522 H 0.86172 0.76415 0.94546 0.0
H523 H 0.83996 0.74711 0.96086 0.0
H524 H 0.83305 0.7768 0.95172 0.0
H525 H 0.91442 0.77612 0.0402 0.0
H526 H 0.90784 0.74699 0.02905 0.0
H527 H 0.92403 0.7674 0.01111 0.0
H528 H 0.89617 0.68554 0.98784 0.0
H529 H 0.94025 0.73358 0.94882 0.0
H530 H 0.84785 0.7253 -0.00285 0.0
H531 H 0.86777 0.7247 0.02171 0.0
H532 H 0.86096 0.69767 0.00625 0.0
H533 H 0.89984 0.78357 0.95135 0.0
H534 H 0.92852 0.77333 0.94171 0.0
H535 H 0.92433 0.78393 0.9714 0.0
C536 C 0.56992 0.62028 0.19387 0.0
C537 C 0.59424 0.62095 0.19862 0.0
C538 C 0.55419 0.60989 0.20988 0.0
C539 C 0.56314 0.59983 0.23093 0.0
C540 C 0.58786 0.59828 0.2346 0.0
C541 C 0.60319 0.60893 0.21833 0.0
C542 C 0.52793 0.61168 0.20528 0.0
C543 C 0.59803 0.58726 0.25668 0.0
C544 C 0.52564 0.60553 0.28599 0.0
C545 C 0.51631 0.58271 0.28801 0.0
C546 C 0.54076 0.61135 0.26728 0.0
C547 C 0.54673 0.59383 0.25038 0.0
C548 C 0.53719 0.57082 0.25221 0.0
C549 C 0.52199 0.56554 0.27101 0.0
C550 C 0.5505 0.63619 0.26572 0.0
C551 C 0.54328 0.55173 0.23453 0.0
H552 H 0.56295 0.62939 0.1785 0.0
H553 H 0.62202 0.60925 0.22195 0.0
H554 H 0.51899 0.59466 0.2092 0.0
H555 H 0.52018 0.62529 0.21711 0.0
H556 H 0.52404 0.61672 0.1867 0.0
H557 H 0.61739 0.58427 0.25518 0.0
H558 H 0.59476 0.59914 0.27195 0.0
H559 H 0.58928 0.57012 0.26054 0.0
H560 H 0.52123 0.61881 0.2991 0.0
H561 H 0.51483 0.54781 0.27257 0.0
H562 H 0.54572 0.64419 0.24846 0.0
H563 H 0.5701 0.63573 0.26675 0.0
H564 H 0.54376 0.6478 0.28006 0.0
H565 H 0.53875 0.55766 0.2164 0.0
H566 H 0.53385 0.53488 0.23817 0.0
H567 H 0.56259 0.54829 0.23486 0.0
C568 C 0.24635 0.47349 0.16281 0.0
C569 C 0.25609 0.4507 0.16237 0.0
C570 C 0.23347 0.48212 0.14352 0.0
C571 C 0.23014 0.46746 0.12353 0.0
C572 C 0.241 0.44492 0.1225 0.0
C573 C 0.254 0.43684 0.14195 0.0
C574 C 0.22241 0.50641 0.14506 0.0
C575 C 0.23773 0.42881 0.10145 0.0
C576 C 0.17349 0.47708 0.08935 0.0
C577 C 0.18163 0.48972 0.06972 0.0
C578 C 0.18923 0.46944 0.10686 0.0
C579 C 0.21358 0.47484 0.1047 0.0
C580 C 0.22192 0.48754 0.08486 0.0
C581 C 0.20581 0.49474 0.06749 0.0
C582 C 0.17977 0.45574 0.12774 0.0
C583 C 0.24775 0.49378 0.08218 0.0
H584 H 0.24812 0.4843 0.17854 0.0
H585 H 0.26156 0.41921 0.14159 0.0
H586 H 0.22633 0.51676 0.12887 0.0
H587 H 0.20291 0.50467 0.14632 0.0
H588 H 0.22879 0.51649 0.16066 0.0
H589 H 0.24912 0.41282 0.10248 0.0
H590 H 0.21899 0.42306 0.10046 0.0
H591 H 0.24178 0.43837 0.08482 0.0
H592 H 0.1548 0.47313 0.09105 0.0
H593 H 0.21211 0.50461 0.05232 0.0
H594 H 0.18327 0.46562 0.14431 0.0
H595 H 0.18899 0.43845 0.12916 0.0
H596 H 0.16045 0.45244 0.12639 0.0
H597 H 0.25349 0.50495 0.09726 0.0
H598 H 0.25138 0.50346 0.06549 0.0
H599 H 0.2587 0.47749 0.08252 0.0
C600 C 0.69472 -0.00167 0.91493 0.0
C601 C 0.67397 0.99565 0.90158 0.0
C602 C 0.7141 0.01084 0.90602 0.0
C603 C 0.7126 0.02093 0.88325 0.0
C604 C 0.69185 0.01797 0.8695 0.0
C605 C 0.67272 0.00527 0.87885 0.0
C606 C 0.73602 0.01352 0.92106 0.0
C607 C 0.68974 0.0285 0.84506 0.0
C608 C 0.75008 0.07304 0.86471 0.0
C609 C 0.76591 0.0621 0.84913 0.0
C610 C 0.7333 0.05963 0.87705 0.0
C611 C 0.73262 0.03481 0.87374 0.0
C612 C 0.74992 0.02352 0.85967 0.0
C613 C 0.76641 0.03736 0.84749 0.0
C614 C 0.71523 0.07219 0.89217 0.0
C615 C 0.74995 -0.00296 0.85604 0.0
H616 H 0.69578 0.99082 0.93253 0.0
H617 H 0.65668 0.00322 0.86855 0.0
H618 H 0.75171 0.0068 0.9114 0.0
H619 H 0.73921 0.03252 0.92483 0.0
H620 H 0.73458 0.00391 0.93812 0.0
H621 H 0.6725 0.02435 0.8366 0.0
H622 H 0.69171 0.04801 0.84602 0.0
H623 H 0.70414 0.02171 0.8336 0.0
H624 H 0.74968 0.09218 0.866 0.0
H625 H 0.77879 0.02886 0.83556 0.0
H626 H 0.71358 0.06342 0.90962 0.0
H627 H 0.69766 0.07128 0.88346 0.0
H628 H 0.71979 0.09111 0.895 0.0
H629 H 0.74829 0.9877 0.8732 0.0
H630 H 0.76627 0.99082 0.84704 0.0
H631 H 0.73449 0.99195 0.84508 0.0
C632 C 0.72294 0.94337 0.35165 0.0
C633 C 0.73063 0.9211 0.34393 0.0
C634 C 0.73564 0.95586 0.36887 0.0
C635 C 0.7563 0.94564 0.37861 0.0
C636 C 0.76335 0.92259 0.37185 0.0
C637 C 0.75044 0.9106 0.35448 0.0
C638 C 0.72765 0.98042 0.37574 0.0
C639 C 0.78512 0.91102 0.38216 0.0
C640 C 0.80528 0.98518 0.40135 0.0
C641 C 0.80188 0.98359 0.42579 0.0
C642 C 0.79016 0.97329 0.38572 0.0
C643 C 0.77138 0.95949 0.39487 0.0
C644 C 0.76762 0.95819 0.41952 0.0
C645 C 0.78293 0.97031 0.4347 0.0
C646 C 0.79455 0.97515 0.35946 0.0
C647 C 0.74779 0.94357 0.42984 0.0
H648 H 0.70763 0.95153 0.34347 0.0
H649 H 0.75632 0.89331 0.3486 0.0
H650 H 0.72652 0.98204 0.39524 0.0
H651 H 0.74082 0.99358 0.36955 0.0
H652 H 0.71017 0.98498 0.36801 0.0
H653 H 0.78712 0.89235 0.37634 0.0
H654 H 0.8011 0.921 0.37667 0.0
H655 H 0.78442 0.91145 0.40174 0.0
H656 H 0.81986 0.99551 0.39445 0.0
H657 H 0.78022 0.96909 0.45364 0.0
H658 H 0.77833 0.98141 0.35035 0.0
H659 H 0.79887 0.95743 0.35219 0.0
H660 H 0.80928 0.98743 0.35521 0.0
H661 H 0.73061 0.94899 0.42206 0.0
H662 H 0.74666 0.94529 0.44937 0.0
H663 H 0.75049 0.92464 0.42538 0.0
C664 C 0.2312 0.58759 0.62408 0.0
C665 C 0.21202 0.57653 0.63516 0.0
C666 C 0.24347 0.57626 0.60584 0.0
C667 C 0.23635 0.55336 0.59868 0.0
C668 C 0.21577 0.54299 0.60842 0.0
C669 C 0.20375 0.55479 0.62658 0.0
C670 C 0.26516 0.588 0.59559 0.0
C671 C 0.20759 0.51865 0.60107 0.0
C672 C 0.26599 0.52801 0.54433 0.0
C673 C 0.28459 0.51511 0.55449 0.0
C674 C 0.24967 0.54012 0.55849 0.0
C675 C 0.25211 0.53922 0.58332 0.0
C676 C 0.27048 0.52569 0.59368 0.0
C677 C 0.28656 0.51379 0.5791 0.0
C678 C 0.23026 0.55435 0.54691 0.0
C679 C 0.27353 0.52426 0.62018 0.0
H680 H 0.23747 0.60452 0.63055 0.0
H681 H 0.18884 0.54625 0.63508 0.0
H682 H 0.28123 0.57863 0.60187 0.0
H683 H 0.26499 0.58691 0.57602 0.0
H684 H 0.26653 0.6069 0.60085 0.0
H685 H 0.18946 0.51472 0.60756 0.0
H686 H 0.20784 0.51681 0.58156 0.0
H687 H 0.21984 0.50518 0.6084 0.0
H688 H 0.2644 0.52899 0.52525 0.0
H689 H 0.30085 0.50374 0.58697 0.0
H690 H 0.23293 0.57344 0.55064 0.0
H691 H 0.2128 0.54938 0.55434 0.0
H692 H 0.22978 0.5518 0.52745 0.0
H693 H 0.27739 0.54212 0.62737 0.0
H694 H 0.2881 0.51214 0.62538 0.0
H695 H 0.25691 0.51804 0.62854 0.0
C696 C 0.29128 0.43781 0.44816 0.0
C697 C 0.29452 0.43554 0.47261 0.0
C698 C 0.27801 0.42105 0.43549 0.0
C699 C 0.26794 0.40161 0.44763 0.0
C700 C 0.27128 0.39921 0.47229 0.0
C701 C 0.28448 0.41624 0.48449 0.0
C702 C 0.27469 0.42416 0.40921 0.0
C703 C 0.26091 0.37864 0.48584 0.0
C704 C 0.21514 0.36805 0.42375 0.0
C705 C 0.22579 0.34724 0.41549 0.0
C706 C 0.22879 0.38639 0.43334 0.0
C707 C 0.25364 0.38375 0.43478 0.0
C708 C 0.26456 0.36312 0.42568 0.0
C709 C 0.25048 0.3451 0.41608 0.0
C710 C 0.21654 0.40819 0.44275 0.0
C711 C 0.29102 0.35968 0.42696 0.0
H712 H 0.29904 0.45271 0.43893 0.0
H713 H 0.287 0.41436 0.50339 0.0
H714 H 0.28162 0.40846 0.39968 0.0
H715 H 0.25557 0.42553 0.40501 0.0
H716 H 0.28379 0.4402 0.4024 0.0
H717 H 0.26542 0.37924 0.50494 0.0
H718 H 0.24136 0.37864 0.48404 0.0
H719 H 0.26747 0.3617 0.4784 0.0
H720 H 0.19606 0.36984 0.42316 0.0
H721 H 0.25878 0.32906 0.40961 0.0
H722 H 0.2248 0.42439 0.43538 0.0
H723 H 0.21857 0.40898 0.46224 0.0
H724 H 0.19736 0.40839 0.43847 0.0
H725 H 0.3003 0.37523 0.41942 0.0
H726 H 0.2969 0.34355 0.41739 0.0
H727 H 0.29655 0.35814 0.44572 0.0
C728 C 0.90581 0.00053 0.68301 0.0
C729 C 0.90565 0.97632 0.68838 0.0
C730 C 0.89051 0.01626 0.69453 0.0
C731 C 0.87467 0.0075 0.71177 0.0
C732 C 0.87373 0.98293 0.71657 0.0
C733 C 0.8893 0.96759 0.70481 0.0
C734 C 0.89198 0.04235 0.68892 0.0
C735 C 0.85691 0.97297 0.73473 0.0
C736 C 0.85577 0.04974 0.76021 0.0
C737 C 0.83323 0.05652 0.75251 0.0
C738 C 0.86941 0.03374 0.74709 0.0
C739 C 0.8602 0.02425 0.72584 0.0
C740 C 0.83743 0.03103 0.71797 0.0
C741 C 0.82421 0.04717 0.73139 0.0
C742 C 0.89371 0.02701 0.75596 0.0
C743 C 0.82705 0.02121 0.69541 0.0
H744 H 0.91837 0.00735 0.67024 0.0
H745 H 0.88908 0.94886 0.70893 0.0
H746 H 0.8742 0.04938 0.68449 0.0
H747 H 0.89835 0.05214 0.70468 0.0
H748 H 0.90413 0.04607 0.67395 0.0
H749 H 0.85711 0.95331 0.73508 0.0
H750 H 0.86181 0.97958 0.75254 0.0
H751 H 0.8386 0.97903 0.7311 0.0
H752 H 0.86279 0.05694 0.77652 0.0
H753 H 0.80673 0.05234 0.72542 0.0
H754 H 0.90725 0.03172 0.74258 0.0
H755 H 0.89471 0.00759 0.75868 0.0
H756 H 0.89824 0.03596 0.77284 0.0
H757 H 0.8386 0.02575 0.68023 0.0
H758 H 0.80901 0.02814 0.69187 0.0
H759 H 0.8262 0.00163 0.6964 0.0
C760 C 0.26728 0.62009 0.94146 0.0
C761 C 0.26025 0.63736 0.92515 0.0
C762 C 0.2506 0.60533 0.95233 0.0
C763 C 0.22636 0.60783 0.94658 0.0
C764 C 0.21918 0.62505 0.9299 0.0
C765 C 0.23623 0.63971 0.91944 0.0
C766 C 0.2589 0.58724 0.97014 0.0
C767 C 0.19349 0.62806 0.92321 0.0
C768 C 0.18714 0.55521 0.96034 0.0
C769 C 0.17695 0.56208 0.98185 0.0
C770 C 0.20283 0.57019 0.94834 0.0
C771 C 0.20856 0.59247 0.95823 0.0
C772 C 0.19798 0.59969 0.97973 0.0
C773 C 0.18221 0.58441 0.99125 0.0
C774 C 0.21362 0.562 0.92534 0.0
C775 C 0.20376 0.62329 0.99083 0.0
H776 H 0.28583 0.61826 0.94595 0.0
H777 H 0.23075 0.65303 0.90679 0.0
H778 H 0.25036 0.59058 0.98748 0.0
H779 H 0.2536 0.56923 0.9644 0.0
H780 H 0.27839 0.58754 0.9726 0.0
H781 H 0.19091 0.64195 0.90956 0.0
H782 H 0.18633 0.61111 0.91638 0.0
H783 H 0.18298 0.63284 0.93905 0.0
H784 H 0.18303 0.53799 0.95296 0.0
H785 H 0.17435 0.58979 0.00789 0.0
H786 H 0.23306 0.56026 0.92737 0.0
H787 H 0.21039 0.57531 0.91128 0.0
H788 H 0.20638 0.54471 0.91943 0.0
H789 H 0.22286 0.62401 0.99527 0.0
H790 H 0.1934 0.62658 0.00719 0.0
H791 H 0.20017 0.63781 0.97814 0.0
C792 C 0.59708 -0.00241 0.17312 0.0
C793 C 0.59446 0.02196 0.17684 0.0
C794 C 0.6125 0.98414 0.18707 0.0
C795 C 0.62547 0.99534 0.2053 0.0
C796 C 0.6234 0.02007 0.20875 0.0
C797 C 0.60794 0.03315 0.19437 0.0
C798 C 0.61443 0.95784 0.18266 0.0
C799 C 0.63696 0.03254 0.22807 0.0
C800 C 0.64384 0.95385 0.25456 0.0
C801 C 0.66714 0.94847 0.2481 0.0
C802 C 0.63039 0.96997 0.24136 0.0
C803 C 0.64049 0.98081 0.22118 0.0
C804 C 0.66431 0.97613 0.21513 0.0
C805 C 0.67739 0.96004 0.22872 0.0
C806 C 0.60506 0.97467 0.24844 0.0
C807 C 0.67564 0.98729 0.19369 0.0
H808 H 0.58677 0.9889 0.15949 0.0
H809 H 0.60589 0.05199 0.19732 0.0
H810 H 0.63318 0.95281 0.17984 0.0
H811 H 0.60805 0.94799 0.19838 0.0
H812 H 0.60397 0.95209 0.16706 0.0
H813 H 0.63441 0.05203 0.22757 0.0
H814 H 0.63107 0.02591 0.24556 0.0
H815 H 0.65612 0.02864 0.22654 0.0
H816 H 0.63591 0.94503 0.26961 0.0
H817 H 0.69544 0.95597 0.2237 0.0
H818 H 0.59296 0.96749 0.23477 0.0
H819 H 0.60178 0.99399 0.24961 0.0
H820 H 0.60053 0.96645 0.26569 0.0
H821 H 0.66703 0.98046 0.17744 0.0
H822 H 0.69489 0.98346 0.19263 0.0
H823 H 0.67307 0.00674 0.19393 0.0
C824 C 0.74733 0.1339 0.57979 0.0
C825 C 0.72289 0.1301 0.57801 0.0
C826 C 0.76339 0.11891 0.56831 0.0
C827 C 0.75476 0.09964 0.55488 0.0
C828 C 0.73014 0.09524 0.55371 0.0
C829 C 0.71446 0.11059 0.56527 0.0
C830 C 0.78953 0.12418 0.56989 0.0
C831 C 0.72033 0.07473 0.53968 0.0
C832 C 0.79232 0.07736 0.50415 0.0
C833 C 0.80271 0.05713 0.514 0.0
C834 C 0.77677 0.09141 0.51735 0.0
C835 C 0.77138 0.08494 0.5409 0.0
C836 C 0.78182 0.06454 0.55097 0.0
C837 C 0.79747 0.05089 0.5374 0.0
C838 C 0.7661 0.11318 0.50608 0.0
C839 C 0.77637 0.0571 0.57601 0.0
H840 H 0.75392 0.14895 0.58967 0.0
H841 H 0.69557 0.10756 0.56395 0.0
H842 H 0.79933 0.10827 0.5759 0.0
H843 H 0.79639 0.12886 0.55213 0.0
H844 H 0.79342 0.13901 0.58218 0.0
H845 H 0.7009 0.07281 0.54188 0.0
H846 H 0.72421 0.07733 0.52063 0.0
H847 H 0.72898 0.05798 0.54515 0.0
H848 H 0.79639 0.08227 0.48608 0.0
H849 H 0.80546 0.03522 0.54505 0.0
H850 H 0.77065 0.1291 0.51661 0.0
H851 H 0.74653 0.1117 0.5059 0.0
H852 H 0.77234 0.11587 0.48767 0.0
H853 H 0.7812 0.07146 0.58847 0.0
H854 H 0.78598 0.04076 0.5812 0.0
H855 H 0.7571 0.05394 0.57797 0.0
C856 C 0.17376 0.51972 0.74221 0.0
C857 C 0.16031 0.53777 0.73178 0.0
C858 C 0.16281 0.5014 0.75487 0.0
C859 C 0.13791 0.5014 0.75733 0.0
C860 C 0.12423 0.5191 0.74606 0.0
C861 C 0.13561 0.53701 0.7333 0.0
C862 C 0.17791 0.4826 0.76635 0.0
C863 C 0.09761 0.51979 0.74839 0.0
C864 C 0.10117 0.4496 0.77864 0.0
C865 C 0.0963 0.45656 0.80192 0.0
C866 C 0.11611 0.46321 0.76423 0.0
C867 C 0.12609 0.4843 0.77333 0.0
C868 C 0.12247 0.49049 0.79729 0.0
C869 C 0.10771 0.47645 0.81133 0.0
C870 C 0.12 0.45581 0.7389 0.0
C871 C 0.13276 0.51287 0.80766 0.0
H872 H 0.19289 0.52018 0.74092 0.0
H873 H 0.12515 0.5509 0.72521 0.0
H874 H 0.17759 0.48491 0.78581 0.0
H875 H 0.17077 0.46473 0.76246 0.0
H876 H 0.19659 0.4834 0.76031 0.0
H877 H 0.08951 0.53401 0.73752 0.0
H878 H 0.08988 0.50259 0.74298 0.0
H879 H 0.09272 0.52278 0.76715 0.0
H880 H 0.0925 0.43413 0.77135 0.0
H881 H 0.10411 0.48182 0.82938 0.0
H882 H 0.13894 0.45747 0.73405 0.0
H883 H 0.10981 0.46765 0.72703 0.0
H884 H 0.11422 0.4373 0.73567 0.0
H885 H 0.15199 0.51395 0.80396 0.0
H886 H 0.13004 0.51401 0.82707 0.0
H887 H 0.12428 0.52848 0.79929 0.0
C888 C 0.66539 0.89564 0.96329 0.0
C889 C 0.65203 0.91331 0.9744 0.0
C890 C 0.68199 0.88234 0.97601 0.0
C891 C 0.68529 0.88693 0.00038 0.0
C892 C 0.67094 0.90387 0.01196 0.0
C893 C 0.6544 0.91686 -0.0012 0.0
C894 C 0.69682 0.86424 0.96312 0.0
C895 C 0.67392 0.90917 0.03794 0.0
C896 C 0.72068 0.84245 0.036 0.0
C897 C 0.74324 0.85275 0.03574 0.0
C898 C 0.70149 0.85352 0.02484 0.0
C899 C 0.70503 0.87539 0.01321 0.0
C900 C 0.7277 0.88603 0.01322 0.0
C901 C 0.74657 0.87455 0.02447 0.0
C902 C 0.67756 0.84168 0.02517 0.0
C903 C 0.73211 0.90942 0.00106 0.0
H904 H 0.66351 0.89277 0.94444 0.0
H905 H 0.64406 0.93049 0.00746 0.0
H906 H 0.71548 0.87027 0.96252 0.0
H907 H 0.69653 0.84709 0.97265 0.0
H908 H 0.69062 0.86131 0.94472 0.0
H909 H 0.65987 0.92111 0.04474 0.0
H910 H 0.67371 0.89256 0.04838 0.0
H911 H 0.69133 0.91772 0.04093 0.0
H912 H 0.71803 0.82559 0.04475 0.0
H913 H 0.76398 0.88259 0.02431 0.0
H914 H 0.67201 0.8374 0.00685 0.0
H915 H 0.66409 0.85387 0.0326 0.0
H916 H 0.67758 0.82511 0.03572 0.0
H917 H 0.72835 0.90773 0.98189 0.0
H918 H 0.75062 0.91563 0.00328 0.0
H919 H 0.72 0.92312 0.0082 0.0
C920 C 0.3483 0.47143 0.2465 0.0
C921 C 0.32598 0.46735 0.25646 0.0
C922 C 0.36533 0.48483 0.2585 0.0
C923 C 0.35985 0.49443 0.28095 0.0
C924 C 0.33709 0.49101 0.29077 0.0
C925 C 0.3204 0.47744 0.2784 0.0
C926 C 0.38945 0.48808 0.24748 0.0
C927 C 0.33061 0.50113 0.3146 0.0
C928 C 0.4124 0.5059 0.32086 0.0
C929 C 0.41625 0.53012 0.31724 0.0
C930 C 0.39367 0.49419 0.30962 0.0
C931 C 0.37841 0.50707 0.29452 0.0
C932 C 0.38174 0.53169 0.29142 0.0
C933 C 0.4007 0.54293 0.30279 0.0
C934 C 0.39068 0.46789 0.31332 0.0
C935 C 0.36567 0.546 0.2756 0.0
H936 H 0.35267 0.46367 0.22953 0.0
H937 H 0.30314 0.47435 0.28613 0.0
H938 H 0.39383 0.50718 0.24633 0.0
H939 H 0.4031 0.47962 0.25877 0.0
H940 H 0.39054 0.48029 0.22949 0.0
H941 H 0.3117 0.49819 0.31904 0.0
H942 H 0.34167 0.49281 0.32852 0.0
H943 H 0.33425 0.52041 0.31502 0.0
H944 H 0.42435 0.49595 0.33208 0.0
H945 H 0.40357 0.5617 0.30005 0.0
H946 H 0.39339 0.45846 0.29634 0.0
H947 H 0.37243 0.46394 0.31934 0.0
H948 H 0.40334 0.46072 0.32652 0.0
H949 H 0.36765 0.53998 0.25704 0.0
H950 H 0.36963 0.56524 0.2764 0.0
H951 H 0.34692 0.54322 0.28065 0.0
C952 C 0.49865 0.29531 0.39635 0.0
C953 C 0.49684 0.30084 0.4204 0.0
C954 C 0.48264 0.27971 0.38564 0.0
C955 C 0.46431 0.26956 0.39933 0.0
C956 C 0.4626 0.27478 0.42372 0.0
C957 C 0.47896 0.29035 0.43401 0.0
C958 C 0.48507 0.27446 0.35958 0.0
C959 C 0.4432 0.26436 0.43881 0.0
C960 C 0.41069 0.25127 0.36378 0.0
C961 C 0.41475 0.227 0.36066 0.0
C962 C 0.42618 0.26514 0.37723 0.0
C963 C 0.44626 0.25448 0.38769 0.0
C964 C 0.44987 0.22978 0.38551 0.0
C965 C 0.43398 0.21627 0.37204 0.0
C966 C 0.42162 0.2914 0.37933 0.0
C967 C 0.47111 0.21783 0.39643 0.0
H968 H 0.51253 0.30329 0.38581 0.0
H969 H 0.47753 0.29458 0.45264 0.0
H970 H 0.48618 0.25508 0.35666 0.0
H971 H 0.4692 0.28092 0.35001 0.0
H972 H 0.50097 0.28291 0.35173 0.0
H973 H 0.44505 0.26926 0.45773 0.0
H974 H 0.42574 0.27064 0.4324 0.0
H975 H 0.44325 0.24478 0.43733 0.0
H976 H 0.39575 0.25961 0.35512 0.0
H977 H 0.43716 0.19751 0.36963 0.0
H978 H 0.43567 0.3013 0.36988 0.0
H979 H 0.42221 0.29695 0.39813 0.0
H980 H 0.40422 0.29658 0.3718 0.0
H981 H 0.48744 0.22401 0.38748 0.0
H982 H 0.47021 0.19825 0.39494 0.0
H983 H 0.47268 0.22265 0.41537 0.0
C984 C 0.99139 0.19136 0.61262 0.0
C985 C 0.00495 0.19685 0.59265 0.0
C986 C 0.97583 0.20803 0.6224 0.0
C987 C 0.97418 0.23085 0.61221 0.0
C988 C 0.98825 0.23666 0.59235 0.0
C989 C 0.00332 0.21948 0.58265 0.0
C990 C 0.96084 0.20106 0.64336 0.0
C991 C 0.98728 0.26097 0.58131 0.0
C992 C 0.91762 0.26502 0.62388 0.0
C993 C 0.92414 0.279 0.64326 0.0
C994 C 0.93389 0.24956 0.6133 0.0
C995 C 0.95731 0.2484 0.62209 0.0
C996 C 0.96423 0.26319 0.64107 0.0
C997 C 0.94747 0.27818 0.65158 0.0
C998 C 0.92577 0.23384 0.59329 0.0
C999 C 0.98916 0.26274 0.65064 0.0
H1000 H 0.99254 0.17383 0.62031 0.0
H1001 H 0.01391 0.2238 0.56728 0.0
H1002 H 0.96437 0.2131 0.65843 0.0
H1003 H 0.94182 0.20282 0.63883 0.0
H1004 H 0.96423 0.18258 0.64915 0.0
H1005 H 0.00012 0.26296 0.56658 0.0
H1006 H 0.96925 0.26446 0.57442 0.0
H1007 H 0.99108 0.27467 0.59484 0.0
H1008 H 0.89955 0.26555 0.61747 0.0
H1009 H 0.95259 0.28908 0.6665 0.0
H1010 H 0.92715 0.21501 0.59869 0.0
H1011 H 0.93735 0.23626 0.57766 0.0
H1012 H 0.90721 0.23749 0.58799 0.0
H1013 H 0.99286 0.24523 0.65868 0.0
H1014 H 0.99216 0.27663 0.66421 0.0
H1015 H 0.00205 0.2653 0.63608 0.0
C1016 C 0.04884 0.69268 0.93594 0.0
C1017 C 0.02698 0.68712 0.92564 0.0
C1018 C 0.06522 0.70698 0.92405 0.0
C1019 C 0.05944 0.71605 0.90148 0.0
C1020 C 0.03784 0.70963 0.89057 0.0
C1021 C 0.02188 0.69512 0.90277 0.0
C1022 C 0.08825 0.7132 0.93606 0.0
C1023 C 0.03106 0.71901 0.86651 0.0
C1024 C 0.08521 0.77477 0.88213 0.0
C1025 C 0.10202 0.76757 0.86545 0.0
C1026 C 0.07161 0.75809 0.89441 0.0
C1027 C 0.07509 0.73367 0.88997 0.0
C1028 C 0.09266 0.72628 0.87379 0.0
C1029 C 0.1059 0.74336 0.86163 0.0
C1030 C 0.05296 0.76663 0.91152 0.0
C1031 C 0.09698 0.70038 0.8688 0.0
H1032 H 0.05288 0.68639 0.95358 0.0
H1033 H 0.005 0.69084 0.89475 0.0
H1034 H 0.10335 0.71005 0.92396 0.0
H1035 H 0.08831 0.73229 0.94066 0.0
H1036 H 0.09108 0.70282 0.95249 0.0
H1037 H 0.01437 0.71107 0.85985 0.0
H1038 H 0.02875 0.73849 0.86745 0.0
H1039 H 0.04533 0.71543 0.85355 0.0
H1040 H 0.08216 0.79347 0.8851 0.0
H1041 H 0.11895 0.73774 0.84877 0.0
H1042 H 0.05565 0.75839 0.9291 0.0
H1043 H 0.03519 0.76121 0.90518 0.0
H1044 H 0.05314 0.78618 0.91364 0.0
H1045 H 0.09988 0.69061 0.88556 0.0
H1046 H 0.11251 0.69755 0.8571 0.0
H1047 H 0.08117 0.69259 0.86019 0.0
C1048 C 0.57312 0.71768 0.11883 0.0
C1049 C 0.58614 0.72383 0.13897 0.0
C1050 C 0.55691 0.73362 0.10886 0.0
C1051 C 0.55378 0.75619 0.11929 0.0
C1052 C 0.56696 0.7625 0.13958 0.0
C1053 C 0.58297 0.74621 0.1492 0.0
C1054 C 0.54309 0.72628 0.08722 0.0
C1055 C 0.56412 0.78644 0.15112 0.0
C1056 C 0.52766 0.80418 0.08045 0.0
C1057 C 0.50389 0.80395 0.08749 0.0
C1058 C 0.54421 0.78902 0.091 0.0
C1059 C 0.53674 0.77322 0.10889 0.0
C1060 C 0.51288 0.7733 0.11646 0.0
C1061 C 0.49673 0.78875 0.10569 0.0
C1062 C 0.56957 0.78956 0.08264 0.0
C1063 C 0.5043 0.75667 0.1355 0.0
H1064 H 0.5755 0.70039 0.11091 0.0
H1065 H 0.59303 0.75104 0.1648 0.0
H1066 H 0.52384 0.72715 0.09097 0.0
H1067 H 0.54669 0.7387 0.07248 0.0
H1068 H 0.54753 0.70806 0.08134 0.0
H1069 H 0.57579 0.7886 0.16678 0.0
H1070 H 0.56826 0.80063 0.13823 0.0
H1071 H 0.54551 0.78898 0.15677 0.0
H1072 H 0.53327 0.81595 0.06641 0.0
H1073 H 0.47835 0.78849 0.11115 0.0
H1074 H 0.57434 0.77221 0.07479 0.0
H1075 H 0.58163 0.79259 0.09781 0.0
H1076 H 0.5727 0.80359 0.06925 0.0
H1077 H 0.50664 0.73808 0.12963 0.0
H1078 H 0.48536 0.75952 0.1399 0.0
H1079 H 0.51496 0.759 0.15179 0.0
C1080 C 0.16297 0.31658 0.31318 0.0
C1081 C 0.15545 0.32447 0.33541 0.0
C1082 C 0.17026 0.33279 0.29594 0.0
C1083 C 0.16956 0.3573 0.30116 0.0
C1084 C 0.15755 0.36522 0.32162 0.0
C1085 C 0.15059 0.34859 0.33867 0.0
C1086 C 0.18242 0.32348 0.27409 0.0
C1087 C 0.15545 0.39119 0.32736 0.0
C1088 C 0.22787 0.38657 0.28707 0.0
C1089 C 0.22312 0.39744 0.26537 0.0
C1090 C 0.21023 0.3743 0.29926 0.0
C1091 C 0.1871 0.37306 0.28962 0.0
C1092 C 0.18181 0.38512 0.26836 0.0
C1093 C 0.19998 0.39716 0.25639 0.0
C1094 C 0.21674 0.36173 0.32196 0.0
C1095 C 0.1572 0.38481 0.25802 0.0
H1096 H 0.1661 0.29786 0.31032 0.0
H1097 H 0.14414 0.3548 0.35562 0.0
H1098 H 0.17863 0.33476 0.25852 0.0
H1099 H 0.20184 0.32359 0.27701 0.0
H1100 H 0.17694 0.30504 0.27007 0.0
H1101 H 0.14034 0.39459 0.33945 0.0
H1102 H 0.17186 0.39717 0.33632 0.0
H1103 H 0.15318 0.40194 0.31113 0.0
H1104 H 0.24569 0.38688 0.29415 0.0
H1105 H 0.19622 0.40575 0.23968 0.0
H1106 H 0.21414 0.34238 0.31987 0.0
H1107 H 0.20513 0.36774 0.33657 0.0
H1108 H 0.23541 0.36491 0.32721 0.0
H1109 H 0.15142 0.36634 0.25478 0.0
H1110 H 0.1561 0.39481 0.24116 0.0
H1111 H 0.14454 0.39265 0.27078 0.0
C1112 C 0.89078 0.96999 0.53539 0.0
C1113 C 0.87959 0.9634 0.51436 0.0
C1114 C 0.90059 0.95301 0.55042 0.0
C1115 C 0.89915 0.9287 0.54429 0.0
C1116 C 0.8883 0.9219 0.5228 0.0
C1117 C 0.87856 0.9394 0.50806 0.0
C1118 C 0.91224 0.9612 0.57307 0.0
C1119 C 0.88627 0.89627 0.5156 0.0
C1120 C 0.9443 0.90064 0.58281 0.0
C1121 C 0.93096 0.89909 0.60364 0.0
C1122 C 0.93337 0.90664 0.56139 0.0
C1123 C 0.90873 0.911 0.56114 0.0
C1124 C 0.89486 0.90451 0.5809 0.0
C1125 C 0.90622 0.89856 0.60211 0.0
C1126 C 0.94864 0.91214 0.54025 0.0
C1127 C 0.86838 0.90767 0.58089 0.0
H1128 H 0.89173 0.98853 0.54025 0.0
H1129 H 0.86984 0.93424 0.49179 0.0
H1130 H 0.90291 0.95354 0.58853 0.0
H1131 H 0.93086 0.95503 0.5737 0.0
H1132 H 0.91216 0.98078 0.57491 0.0
H1133 H 0.88443 0.89444 0.49614 0.0
H1134 H 0.90177 0.88578 0.52151 0.0
H1135 H 0.87026 0.88855 0.52389 0.0
H1136 H 0.96346 0.90025 0.58372 0.0
H1137 H 0.89576 0.89656 0.61804 0.0
H1138 H 0.95235 0.93142 0.53983 0.0
H1139 H 0.93951 0.90738 0.52356 0.0
H1140 H 0.9658 0.9026 0.54113 0.0
H1141 H 0.86413 0.92663 0.58379 0.0
H1142 H 0.85987 0.89719 0.59515 0.0
H1143 H 0.86073 0.90234 0.56364 0.0
C1144 C 0.24623 0.62152 0.76866 0.0
C1145 C 0.25032 0.61014 0.74709 0.0
C1146 C 0.26494 0.62733 0.78373 0.0
C1147 C 0.28844 0.62162 0.77707 0.0
C1148 C 0.29273 0.60978 0.75545 0.0
C1149 C 0.27354 0.60422 0.74062 0.0
C1150 C 0.25946 0.63984 0.80672 0.0
C1151 C 0.31746 0.60353 0.74763 0.0
C1152 C 0.32607 0.66237 0.81273 0.0
C1153 C 0.3276 0.6492 0.83367 0.0
C1154 C 0.31633 0.65233 0.79228 0.0
C1155 C 0.30804 0.62872 0.79303 0.0
C1156 C 0.3135 0.61432 0.81274 0.0
C1157 C 0.32334 0.62477 0.83295 0.0
C1158 C 0.31172 0.66802 0.77121 0.0
C1159 C 0.30576 0.5888 0.81387 0.0
H1160 H 0.22832 0.62608 0.77375 0.0
H1161 H 0.27677 0.59547 0.72387 0.0
H1162 H 0.26633 0.62941 0.82184 0.0
H1163 H 0.26829 0.65737 0.80709 0.0
H1164 H 0.24018 0.64261 0.80936 0.0
H1165 H 0.31739 0.5896 0.73377 0.0
H1166 H 0.32607 0.61951 0.74018 0.0
H1167 H 0.32841 0.59739 0.7627 0.0
H1168 H 0.32996 0.68115 0.81302 0.0
H1169 H 0.32505 0.61435 0.84894 0.0
H1170 H 0.2931 0.67425 0.77173 0.0
H1171 H 0.31428 0.65815 0.75447 0.0
H1172 H 0.32347 0.68378 0.77121 0.0
H1173 H 0.28671 0.58806 0.81857 0.0
H1174 H 0.31585 0.57881 0.82745 0.0
H1175 H 0.308 0.57997 0.79651 0.0
C1176 C 0.54827 0.08455 0.05859 0.0
C1177 C 0.56487 0.08287 0.07693 0.0
C1178 C 0.55422 0.07749 0.03559 0.0
C1179 C 0.57716 0.06855 0.03117 0.0
C1180 C 0.59495 0.07094 0.04861 0.0
C1181 C 0.58858 0.0782 0.07142 0.0
C1182 C 0.53507 0.07636 0.01707 0.0
C1183 C 0.61988 0.06245 0.0443 0.0
C1184 C 0.58082 0.00989 -0.00056 0.0
C1185 C 0.59113 0.01625 0.97789 0.0
C1186 C 0.57554 0.02697 0.01651 0.0
C1187 C 0.58063 0.0511 0.01188 0.0
C1188 C 0.59003 0.05781 0.9897 0.0
C1189 C 0.5953 0.04022 0.97294 0.0
C1190 C 0.56526 0.01897 0.03986 0.0
C1191 C 0.59551 0.08329 0.98393 0.0
H1192 H 0.53001 0.08882 0.06262 0.0
H1193 H 0.60164 0.0775 0.08543 0.0
H1194 H 0.54226 0.0804 -0.00072 0.0
H1195 H 0.52763 0.05818 0.01656 0.0
H1196 H 0.52044 0.08887 0.02106 0.0
H1197 H 0.63241 0.06961 0.05763 0.0
H1198 H 0.62031 0.04283 0.04534 0.0
H1199 H 0.626 0.06763 0.02643 0.0
H1200 H 0.57742 0.9914 0.00326 0.0
H1201 H 0.60327 0.0452 0.95625 0.0
H1202 H 0.54834 0.02829 0.04334 0.0
H1203 H 0.5776 0.02344 0.05444 0.0
H1204 H 0.56187 -0.00039 0.04033 0.0
H1205 H 0.5826 0.09555 0.99221 0.0
H1206 H 0.5956 0.08635 0.96454 0.0
H1207 H 0.61333 0.08775 0.99081 0.0
C1208 C 0.65381 0.16527 0.68768 0.0
C1209 C 0.65277 0.15084 0.66755 0.0
C1210 C 0.66346 0.15659 0.70879 0.0
C1211 C 0.67215 0.13312 0.70943 0.0
C1212 C 0.66662 0.11739 0.69078 0.0
C1213 C 0.65681 0.12648 0.66992 0.0
C1214 C 0.66783 0.17357 0.72888 0.0
C1215 C 0.67457 0.09192 0.69127 0.0
C1216 C 0.7351 0.12797 0.7313 0.0
C1217 C 0.73222 0.11696 0.75323 0.0
C1218 C 0.7156 0.13329 0.71708 0.0
C1219 C 0.6925 0.12758 0.72506 0.0
C1220 C 0.68939 0.11671 0.74737 0.0
C1221 C 0.70937 0.11135 0.76116 0.0
C1222 C 0.71984 0.14497 0.6934 0.0
C1223 C 0.66518 0.11029 0.75656 0.0
H1224 H 0.64994 0.18401 0.68618 0.0
H1225 H 0.65531 0.11504 0.6546 0.0
H1226 H 0.66606 0.16453 0.7462 0.0
H1227 H 0.68613 0.18056 0.72757 0.0
H1228 H 0.65539 0.18878 0.72827 0.0
H1229 H 0.66471 0.08102 0.67824 0.0
H1230 H 0.69368 0.09104 0.68683 0.0
H1231 H 0.6722 0.0842 0.70912 0.0
H1232 H 0.75271 0.13234 0.72512 0.0
H1233 H 0.70709 0.10279 0.77815 0.0
H1234 H 0.71056 0.16225 0.69266 0.0
H1235 H 0.71265 0.13374 0.679 0.0
H1236 H 0.73892 0.14806 0.68987 0.0
H1237 H 0.65165 0.12347 0.7512 0.0
H1238 H 0.66512 0.10876 0.77613 0.0
H1239 H 0.6599 0.0929 0.74915 0.0
C1240 C 0.09893 0.46205 0.9587 0.0
C1241 C 0.10878 0.45745 0.98089 0.0
C1242 C 0.08993 0.4438 0.94472 0.0
C1243 C 0.09092 0.42013 0.95306 0.0
C1244 C 0.10066 0.41531 0.97561 0.0
C1245 C 0.10953 0.43411 0.98931 0.0
C1246 C 0.07944 0.45004 0.92089 0.0
C1247 C 0.10237 0.39044 0.98514 0.0
C1248 C 0.04665 0.39163 0.9147 0.0
C1249 C 0.06072 0.38959 0.89439 0.0
C1250 C 0.057 0.39748 0.93645 0.0
C1251 C 0.08173 0.40108 0.93749 0.0
C1252 C 0.09606 0.39324 0.91857 0.0
C1253 C 0.0853 0.38753 0.89698 0.0
C1254 C 0.04117 0.40413 0.95683 0.0
C1255 C 0.12263 0.39516 0.91965 0.0
H1256 H 0.09819 0.48008 0.95219 0.0
H1257 H 0.11725 0.43049 0.00648 0.0
H1258 H 0.0894 0.44101 0.9066 0.0
H1259 H 0.06079 0.44404 0.91992 0.0
H1260 H 0.07981 0.46937 0.91733 0.0
H1261 H 0.10232 0.39036 0.00478 0.0
H1262 H 0.08773 0.37905 0.97872 0.0
H1263 H 0.11929 0.38247 0.97918 0.0
H1264 H 0.02755 0.39221 0.91302 0.0
H1265 H 0.0963 0.38491 0.8815 0.0
H1266 H 0.03772 0.42347 0.95627 0.0
H1267 H 0.04969 0.39997 0.974 0.0
H1268 H 0.02391 0.3948 0.95578 0.0
H1269 H 0.12792 0.41367 0.91575 0.0
H1270 H 0.13119 0.38339 0.90644 0.0
H1271 H 0.12924 0.3906 0.93753 0.0
C1272 C 0.75 0.86494 0.21191 0.0
C1273 C 0.75578 0.87982 0.23081 0.0
C1274 C 0.76578 0.86141 0.19325 0.0
C1275 C 0.78807 0.87288 0.19358 0.0
C1276 C 0.79444 0.88723 0.21307 0.0
C1277 C 0.77807 0.8907 0.23144 0.0
C1278 C 0.75823 0.84583 0.17285 0.0
C1279 C 0.8181 0.8995 0.21427 0.0
C1280 C 0.82426 0.84217 0.14765 0.0
C1281 C 0.81716 0.85489 0.1276 0.0
C1282 C 0.81776 0.84978 0.17031 0.0
C1283 C 0.80371 0.87037 0.17269 0.0
C1284 C 0.79985 0.88513 0.15287 0.0
C1285 C 0.80675 0.87722 0.13043 0.0
C1286 C 0.82317 0.83415 0.19123 0.0
C1287 C 0.7855 0.90757 0.15478 0.0
H1288 H 0.73284 0.85641 0.21141 0.0
H1289 H 0.78262 0.90217 0.24611 0.0
H1290 H 0.758 0.85626 0.15624 0.0
H1291 H 0.77105 0.83115 0.17047 0.0
H1292 H 0.74038 0.83807 0.17552 0.0
H1293 H 0.82282 0.90428 0.23273 0.0
H1294 H 0.83238 0.88829 0.20679 0.0
H1295 H 0.81733 0.91605 0.20376 0.0
H1296 H 0.83287 0.82514 0.14557 0.0
H1297 H 0.80169 0.8874 0.115 0.0
H1298 H 0.80756 0.82291 0.19511 0.0
H1299 H 0.82697 0.8449 0.2072 0.0
H1300 H 0.83849 0.82235 0.18766 0.0
H1301 H 0.76648 0.90296 0.1563 0.0
H1302 H 0.78782 0.91907 0.13903 0.0
H1303 H 0.7905 0.9177 0.17079 0.0
C1304 C 0.38052 0.53009 0.45146 0.0
C1305 C 0.36876 0.53623 0.47231 0.0
C1306 C 0.39447 0.54659 0.43944 0.0
C1307 C 0.39661 0.56994 0.44843 0.0
C1308 C 0.38427 0.57647 0.46917 0.0
C1309 C 0.37043 0.55948 0.4809 0.0
C1310 C 0.40739 0.53874 0.41737 0.0
C1311 C 0.38557 0.60129 0.47896 0.0
C1312 C 0.45344 0.5915 0.42345 0.0
C1313 C 0.44543 0.59819 0.40098 0.0
C1314 C 0.43725 0.5855 0.4412 0.0
C1315 C 0.41274 0.58666 0.43621 0.0
C1316 C 0.40491 0.59818 0.41545 0.0
C1317 C 0.42148 0.60388 0.39791 0.0
C1318 C 0.44638 0.5742 0.46357 0.0
C1319 C 0.37894 0.60094 0.41006 0.0
H1320 H 0.37925 0.51217 0.44476 0.0
H1321 H 0.36115 0.56434 0.49695 0.0
H1322 H 0.40211 0.54995 0.40216 0.0
H1323 H 0.42676 0.54082 0.41984 0.0
H1324 H 0.40374 0.51998 0.41279 0.0
H1325 H 0.37908 0.6022 0.49747 0.0
H1326 H 0.40392 0.60822 0.47836 0.0
H1327 H 0.37444 0.61314 0.46799 0.0
H1328 H 0.47207 0.58781 0.42619 0.0
H1329 H 0.41523 0.60983 0.38079 0.0
H1330 H 0.44567 0.55465 0.46167 0.0
H1331 H 0.43533 0.57915 0.47899 0.0
H1332 H 0.46501 0.57934 0.46717 0.0
H1333 H 0.372 0.58401 0.40292 0.0
H1334 H 0.37584 0.61498 0.39668 0.0
H1335 H 0.36881 0.60524 0.42629 0.0
C1336 C 0.21695 0.21046 0.37275 0.0
C1337 C 0.22362 0.23397 0.36834 0.0
C1338 C 0.23204 0.19158 0.3668 0.0
C1339 C 0.25425 0.19649 0.35637 0.0
C1340 C 0.2606 0.22021 0.35114 0.0
C1341 C 0.24521 0.23859 0.3572 0.0
C1342 C 0.22446 0.16664 0.37254 0.0
C1343 C 0.28401 0.22636 0.33971 0.0
C1344 C 0.31222 0.16578 0.3604 0.0
C1345 C 0.31611 0.16176 0.33627 0.0
C1346 C 0.29014 0.17377 0.36836 0.0
C1347 C 0.27184 0.17754 0.35172 0.0
C1348 C 0.27436 0.16877 0.32845 0.0
C1349 C 0.29664 0.1609 0.32092 0.0
C1350 C 0.28775 0.18183 0.39365 0.0
C1351 C 0.25478 0.17123 0.31052 0.0
H1352 H 0.20024 0.20682 0.38139 0.0
H1353 H 0.25034 0.25671 0.35358 0.0
H1354 H 0.23148 0.1537 0.35957 0.0
H1355 H 0.23135 0.16177 0.39024 0.0
H1356 H 0.20487 0.16511 0.37307 0.0
H1357 H 0.28593 0.24565 0.33645 0.0
H1358 H 0.29882 0.22055 0.3512 0.0
H1359 H 0.2858 0.21701 0.32256 0.0
H1360 H 0.32706 0.16571 0.37255 0.0
H1361 H 0.29937 0.15702 0.30235 0.0
H1362 H 0.26987 0.17775 0.4006 0.0
H1363 H 0.29024 0.2013 0.3945 0.0
H1364 H 0.30119 0.17338 0.40522 0.0
H1365 H 0.23723 0.16824 0.31878 0.0
H1366 H 0.25709 0.15861 0.29564 0.0
H1367 H 0.25497 0.18946 0.30322 0.0
C1368 C -6e-05 -0.00174 0.61809 0.0
C1369 C 0.00798 0.98046 0.63329 0.0
C1370 C 0.01465 0.01706 0.61163 0.0
C1371 C 0.0381 0.01798 0.62047 0.0
C1372 C 0.04674 -0.00057 0.63487 0.0
C1373 C 0.03148 0.98088 0.64125 0.0
C1374 C 0.00472 0.03643 0.59609 0.0
C1375 C 0.0717 -0.0004 0.64432 0.0
C1376 C 0.0708 0.0637 0.58527 0.0
C1377 C 0.06517 0.08409 0.59823 0.0
C1378 C 0.0647 0.04121 0.59375 0.0
C1379 C 0.05258 0.0393 0.61553 0.0
C1380 C 0.04988 0.05952 0.63006 0.0
C1381 C 0.05636 0.08177 0.62124 0.0
C1382 C 0.06865 0.01994 0.57812 0.0
C1383 C 0.03739 0.05817 0.65359 0.0
H1384 H 0.98183 -0.00206 0.61179 0.0
H1385 H 0.03777 0.96708 0.65298 0.0
H1386 H 0.00474 0.05348 0.60584 0.0
H1387 H 0.01595 0.03874 0.58018 0.0
H1388 H 0.98635 0.03267 0.59023 0.0
H1389 H 0.07718 0.98184 0.65073 0.0
H1390 H 0.08439 0.00557 0.63061 0.0
H1391 H 0.07286 0.01217 0.65932 0.0
H1392 H 0.07806 0.06538 0.56762 0.0
H1393 H 0.05231 0.09747 0.63149 0.0
H1394 H 0.05201 0.01574 0.56859 0.0
H1395 H 0.07358 0.00419 0.58875 0.0
H1396 H 0.08269 0.02328 0.56481 0.0
H1397 H 0.01809 0.05622 0.65057 0.0
H1398 H 0.04035 0.07434 0.66437 0.0
H1399 H 0.04343 0.04255 0.66379 0.0
C1400 C 0.28677 0.76843 0.88546 0.0
C1401 C 0.27687 0.74653 0.87922 0.0
C1402 C 0.2746 0.78968 0.88103 0.0
C1403 C 0.25199 0.78882 0.87034 0.0
C1404 C 0.24221 0.76671 0.86358 0.0
C1405 C 0.25479 0.7459 0.8681 0.0
C1406 C 0.28571 0.81278 0.88849 0.0
C1407 C 0.2182 0.7649 0.85191 0.0
C1408 C 0.19955 0.82817 0.87569 0.0
C1409 C 0.19687 0.83434 0.85185 0.0
C1410 C 0.21985 0.81616 0.88333 0.0
C1411 C 0.23763 0.81051 0.86667 0.0
C1412 C 0.23702 0.82099 0.84398 0.0
C1413 C 0.2165 0.83292 0.83677 0.0
C1414 C 0.22038 0.80625 0.90807 0.0
C1415 C 0.25625 0.81641 0.8261 0.0
H1416 H 0.30388 0.76898 0.8941 0.0
H1417 H 0.24713 0.72902 0.86315 0.0
H1418 H 0.2812 0.82733 0.87612 0.0
H1419 H 0.27898 0.81771 0.90623 0.0
H1420 H 0.30527 0.81127 0.88965 0.0
H1421 H 0.21338 0.74636 0.84749 0.0
H1422 H 0.2044 0.77219 0.86381 0.0
H1423 H 0.21792 0.77545 0.83538 0.0
H1424 H 0.18467 0.82993 0.88766 0.0
H1425 H 0.21481 0.83835 0.81847 0.0
H1426 H 0.23855 0.80683 0.91543 0.0
H1427 H 0.21467 0.78746 0.90762 0.0
H1428 H 0.20831 0.81609 0.92004 0.0
H1429 H 0.27391 0.81609 0.83466 0.0
H1430 H 0.25624 0.83003 0.81194 0.0
H1431 H 0.25328 0.79888 0.81777 0.0
C1432 C 0.46967 0.00606 0.12761 0.0
C1433 C 0.4931 0.00649 0.11944 0.0
C1434 C 0.45448 0.98726 0.12172 0.0
C1435 C 0.46313 0.96844 0.10766 0.0
C1436 C 0.4866 0.96918 0.09891 0.0
C1437 C 0.50122 0.98822 0.10483 0.0
C1438 C 0.4295 0.98726 0.1311 0.0
C1439 C 0.49657 0.94949 0.08378 0.0
C1440 C 0.44443 0.90478 0.10856 0.0
C1441 C 0.43577 0.90236 0.08548 0.0
C1442 C 0.45095 0.92703 0.11735 0.0
C1443 C 0.4485 0.94719 0.10271 0.0
C1444 C 0.43657 0.94522 0.08082 0.0
C1445 C 0.43036 0.92271 0.07238 0.0
C1446 C 0.46325 0.92841 0.14099 0.0
C1447 C 0.43293 0.96642 0.06502 0.0
H1448 H 0.46331 0.02022 0.13886 0.0
H1449 H 0.51928 0.98852 0.09838 0.0
H1450 H 0.41681 0.98168 0.11721 0.0
H1451 H 0.42809 0.97441 0.14584 0.0
H1452 H 0.42419 0.00496 0.13781 0.0
H1453 H 0.51505 0.95302 0.07812 0.0
H1454 H 0.49627 0.93258 0.09374 0.0
H1455 H 0.48553 0.94708 0.06775 0.0
H1456 H 0.44828 0.88912 0.11894 0.0
H1457 H 0.42326 0.92098 0.05467 0.0
H1458 H 0.45742 0.94424 0.15099 0.0
H1459 H 0.48261 0.92998 0.13812 0.0
H1460 H 0.45992 0.9124 0.15189 0.0
H1461 H 0.42801 0.98227 0.0755 0.0
H1462 H 0.419 0.9631 0.05157 0.0
H1463 H 0.44969 0.97043 0.05565 0.0
C1464 C 0.7097 0.26155 0.61896 0.0
C1465 C 0.71612 0.23861 0.62598 0.0
C1466 C 0.72475 0.28087 0.62321 0.0
C1467 C 0.7467 0.277 0.63458 0.0
C1468 C 0.7529 0.25395 0.64228 0.0
C1469 C 0.73752 0.23507 0.6379 0.0
C1470 C 0.71748 0.30519 0.6149 0.0
C1471 C 0.77611 0.24906 0.65466 0.0
C1472 C 0.80295 0.3116 0.62789 0.0
C1473 C 0.80552 0.32031 0.65094 0.0
C1474 C 0.78232 0.2996 0.62118 0.0
C1475 C 0.76395 0.29652 0.6379 0.0
C1476 C 0.76512 0.30833 0.65991 0.0
C1477 C 0.786 0.32012 0.66621 0.0
C1478 C 0.78157 0.28764 0.59734 0.0
C1479 C 0.74562 0.30606 0.67797 0.0
H1480 H 0.69314 0.26434 0.6097 0.0
H1481 H 0.74251 0.2174 0.64343 0.0
H1482 H 0.7209 0.31862 0.62879 0.0
H1483 H 0.72813 0.31015 0.59922 0.0
H1484 H 0.69847 0.30589 0.60995 0.0
H1485 H 0.77797 0.23022 0.65992 0.0
H1486 H 0.79107 0.2537 0.64285 0.0
H1487 H 0.77763 0.26019 0.67074 0.0
H1488 H 0.81788 0.312 0.61588 0.0
H1489 H 0.78775 0.32723 0.68392 0.0
H1490 H 0.76373 0.28912 0.58932 0.0
H1491 H 0.78555 0.26853 0.59955 0.0
H1492 H 0.79475 0.29529 0.58495 0.0
H1493 H 0.72797 0.30682 0.66944 0.0
H1494 H 0.74671 0.32017 0.6916 0.0
H1495 H 0.74716 0.28868 0.68696 0.0
C1496 C 0.98828 0.48459 0.88763 0.0
C1497 C 0.00964 0.48661 0.87521 0.0
C1498 C 0.97898 0.50395 0.90015 0.0
C1499 C 0.99133 0.52573 0.90008 0.0
C1500 C 0.01277 0.52787 0.88734 0.0
C1501 C 0.02168 0.50827 0.87512 0.0
C1502 C 0.95616 0.50104 0.91367 0.0
C1503 C 0.02647 0.55082 0.88682 0.0
C1504 C 0.96348 0.5849 0.9149 0.0
C1505 C 0.97327 0.58926 0.93721 0.0
C1506 C 0.96803 0.56354 0.90304 0.0
C1507 C 0.98255 0.54625 0.91392 0.0
C1508 C 0.99108 0.54996 0.93713 0.0
C1509 C 0.98638 0.57148 0.94847 0.0
C1510 C 0.95865 0.56019 0.87829 0.0
C1511 C 0.00644 0.53189 0.94944 0.0
H1512 H 0.97894 0.46785 0.88773 0.0
H1513 H 0.03817 0.50993 0.8655 0.0
H1514 H 0.95937 0.504 0.93279 0.0
H1515 H 0.94309 0.51447 0.90784 0.0
H1516 H 0.94833 0.48316 0.9113 0.0
H1517 H 0.04246 0.54973 0.87546 0.0
H1518 H 0.01505 0.56534 0.88018 0.0
H1519 H 0.03209 0.55565 0.90498 0.0
H1520 H 0.95329 0.59862 0.9062 0.0
H1521 H 0.99372 0.5747 0.96587 0.0
H1522 H 0.95058 0.54241 0.87632 0.0
H1523 H 0.97349 0.56134 0.86551 0.0
H1524 H 0.94528 0.5738 0.87356 0.0
H1525 H -0.00162 0.51404 0.94824 0.0
H1526 H 0.0093 0.53627 0.96837 0.0
H1527 H 0.02394 0.53102 0.9406 0.0
C1528 C 0.71375 0.66744 0.13885 0.0
C1529 C 0.6917 0.66868 0.12756 0.0
C1530 C 0.73342 0.67918 0.12932 0.0
C1531 C 0.73066 0.69244 0.1083 0.0
C1532 C 0.7096 0.69025 0.09497 0.0
C1533 C 0.69031 0.67821 0.10475 0.0
C1534 C 0.75607 0.68004 0.14338 0.0
C1535 C 0.70616 0.70354 0.07209 0.0
C1536 C 0.75334 0.75524 0.10848 0.0
C1537 C 0.77136 0.75429 0.09157 0.0
C1538 C 0.74065 0.73494 0.11466 0.0
C1539 C 0.74633 0.71302 0.10384 0.0
C1540 C 0.76542 0.71165 0.08774 0.0
C1541 C 0.77762 0.73243 0.0816 0.0
C1542 C 0.72047 0.73725 0.13205 0.0
C1543 C 0.77241 0.68862 0.0762 0.0
H1544 H 0.7151 0.65955 0.15626 0.0
H1545 H 0.67342 0.67865 0.09566 0.0
H1546 H 0.7717 0.68033 0.13153 0.0
H1547 H 0.75638 0.69645 0.15415 0.0
H1548 H 0.75755 0.66468 0.15554 0.0
H1549 H 0.69069 0.69682 0.062 0.0
H1550 H 0.70319 0.72256 0.07602 0.0
H1551 H 0.72214 0.70219 0.06082 0.0
H1552 H 0.74855 0.77207 0.11635 0.0
H1553 H 0.79169 0.7316 0.06862 0.0
H1554 H 0.72308 0.72494 0.14709 0.0
H1555 H 0.70355 0.73243 0.12333 0.0
H1556 H 0.71876 0.75549 0.13919 0.0
H1557 H 0.76955 0.67334 0.08817 0.0
H1558 H 0.79125 0.68887 0.07063 0.0
H1559 H 0.76144 0.68586 0.06018 0.0
C1560 C 0.50953 0.49389 0.39008 0.0
C1561 C 0.51966 0.51227 0.377 0.0
C1562 C 0.52321 0.47486 0.39798 0.0
C1563 C 0.54769 0.47415 0.39258 0.0
C1564 C 0.55828 0.49317 0.38025 0.0
C1565 C 0.54408 0.51207 0.37255 0.0
C1566 C 0.51122 0.45506 0.41139 0.0
C1567 C 0.58428 0.49314 0.37427 0.0
C1568 C 0.57494 0.42699 0.4304 0.0
C1569 C 0.57034 0.40708 0.41634 0.0
C1570 C 0.57046 0.44983 0.4218 0.0
C1571 C 0.56131 0.45256 0.39869 0.0
C1572 C 0.56023 0.43279 0.38337 0.0
C1573 C 0.56477 0.41018 0.39242 0.0
C1574 C 0.57255 0.47058 0.43845 0.0
C1575 C 0.55121 0.43505 0.35836 0.0
H1576 H 0.4907 0.4941 0.39372 0.0
H1577 H 0.55198 0.5263 0.36243 0.0
H1578 H 0.5123 0.43841 0.40105 0.0
H1579 H 0.52033 0.45198 0.42848 0.0
H1580 H 0.49229 0.45889 0.41503 0.0
H1581 H 0.59069 0.51114 0.36966 0.0
H1582 H 0.595 0.48622 0.38917 0.0
H1583 H 0.58735 0.48141 0.35885 0.0
H1584 H 0.57966 0.42472 0.44884 0.0
H1585 H 0.56168 0.39482 0.38134 0.0
H1586 H 0.55486 0.47468 0.44591 0.0
H1587 H 0.57891 0.48658 0.42905 0.0
H1588 H 0.58475 0.46666 0.45335 0.0
H1589 H 0.53168 0.43709 0.35868 0.0
H1590 H 0.55559 0.41921 0.34759 0.0
H1591 H 0.55872 0.45093 0.34965 0.0
C1592 C 0.35711 0.24856 0.24421 0.0
C1593 C 0.34836 0.24398 0.26694 0.0
C1594 C 0.35002 0.26886 0.23175 0.0
C1595 C 0.33405 0.2849 0.24245 0.0
C1596 C 0.32439 0.27973 0.26495 0.0
C1597 C 0.3316 0.25928 0.27686 0.0
C1598 C 0.36036 0.27362 0.20763 0.0
C1599 C 0.30726 0.29636 0.27699 0.0
C1600 C 0.33454 0.35072 0.23178 0.0
C1601 C 0.31284 0.35392 0.22025 0.0
C1602 C 0.34264 0.32802 0.23752 0.0
C1603 C 0.32875 0.3081 0.23139 0.0
C1604 C 0.30796 0.31112 0.2178 0.0
C1605 C 0.30015 0.33408 0.21247 0.0
C1606 C 0.36497 0.32555 0.25197 0.0
C1607 C 0.29297 0.29026 0.21051 0.0
H1608 H 0.36999 0.23666 0.23643 0.0
H1609 H 0.32465 0.25571 0.29435 0.0
H1610 H 0.3463 0.27903 0.19506 0.0
H1611 H 0.37317 0.28843 0.2088 0.0
H1612 H 0.36967 0.2579 0.20038 0.0
H1613 H 0.3005 0.28913 0.29395 0.0
H1614 H 0.31613 0.3135 0.28063 0.0
H1615 H 0.29197 0.30005 0.26527 0.0
H1616 H 0.34453 0.36601 0.23763 0.0
H1617 H 0.28347 0.33647 0.20332 0.0
H1618 H 0.37653 0.31155 0.24451 0.0
H1619 H 0.36032 0.32021 0.27026 0.0
H1620 H 0.37514 0.34234 0.2528 0.0
H1621 H 0.3042 0.27551 0.20406 0.0
H1622 H 0.28009 0.29508 0.19647 0.0
H1623 H 0.28296 0.2837 0.22604 0.0
C1624 C 0.85022 0.16723 0.79175 0.0
C1625 C 0.82663 0.16601 0.79927 0.0
C1626 C 0.85937 0.1882 0.78218 0.0
C1627 C 0.84453 0.20828 0.78023 0.0
C1628 C 0.82176 0.20796 0.79062 0.0
C1629 C 0.81305 0.18675 0.80005 0.0
C1630 C 0.88389 0.18791 0.77165 0.0
C1631 C 0.80551 0.22911 0.78927 0.0
C1632 C 0.86773 0.2656 0.75365 0.0
C1633 C 0.8606 0.26309 0.73003 0.0
C1634 C 0.86285 0.24784 0.77035 0.0
C1635 C 0.85059 0.22725 0.76314 0.0
C1636 C 0.84357 0.22461 0.73924 0.0
C1637 C 0.84866 0.24256 0.72302 0.0
C1638 C 0.87055 0.25121 0.79567 0.0
C1639 C 0.83047 0.20288 0.73077 0.0
H1640 H 0.86092 0.1513 0.79141 0.0
H1641 H 0.7949 0.18599 0.80618 0.0
H1642 H 0.88252 0.18562 0.75222 0.0
H1643 H 0.8932 0.20485 0.77501 0.0
H1644 H 0.89472 0.17316 0.77882 0.0
H1645 H 0.79067 0.22772 0.80207 0.0
H1646 H 0.81531 0.24575 0.79272 0.0
H1647 H 0.79794 0.23031 0.77121 0.0
H1648 H 0.87696 0.2815 0.75912 0.0
H1649 H 0.84313 0.24053 0.70478 0.0
H1650 H 0.88126 0.23587 0.8016 0.0
H1651 H 0.85478 0.25211 0.80729 0.0
H1652 H 0.88108 0.26762 0.79812 0.0
H1653 H 0.84109 0.18678 0.73441 0.0
H1654 H 0.82654 0.20352 0.71154 0.0
H1655 H 0.81352 0.20109 0.74048 0.0
C1656 C 0.01776 0.64872 0.03915 0.0
C1657 C 0.99446 0.64211 0.03386 0.0
C1658 C 0.03339 0.63229 0.04912 0.0
C1659 C 0.02506 0.60925 0.05431 0.0
C1660 C 0.00044 0.60491 0.05458 0.0
C1661 C 0.98524 0.62143 0.04399 0.0
C1662 C 0.05942 0.63814 0.04968 0.0
C1663 C 0.9907 0.58128 0.06212 0.0
C1664 C 0.06129 0.56298 0.02272 0.0
C1665 C 0.07655 0.55513 0.04052 0.0
C1666 C 0.04398 0.57998 0.02733 0.0
C1667 C 0.04146 0.58907 0.0506 0.0
C1668 C 0.05591 0.5802 0.06902 0.0
C1669 C 0.07349 0.56338 0.06371 0.0
C1670 C 0.0291 0.58885 0.00691 0.0
C1671 C 0.05281 0.58825 0.09426 0.0
H1672 H 0.02475 0.66521 0.03227 0.0
H1673 H 0.96692 0.61665 0.04088 0.0
H1674 H 0.06815 0.63006 0.06525 0.0
H1675 H 0.06798 0.63091 0.03357 0.0
H1676 H 0.06243 0.65757 0.05006 0.0
H1677 H 0.97189 0.5828 0.0676 0.0
H1678 H 0.99167 0.56872 0.04707 0.0
H1679 H 0.00118 0.57381 0.07694 0.0
H1680 H 0.06348 0.55652 0.00481 0.0
H1681 H 0.08502 0.55695 0.0776 0.0
H1682 H 0.03123 0.60826 0.00488 0.0
H1683 H 0.01013 0.58525 0.01033 0.0
H1684 H 0.03391 0.58034 0.98988 0.0
H1685 H 0.04874 0.60742 0.09537 0.0
H1686 H 0.06879 0.58452 0.10508 0.0
H1687 H 0.03769 0.57856 0.10216 0.0
C1688 C 0.68264 0.80936 0.29378 0.0
C1689 C 0.67058 0.82874 0.28405 0.0
C1690 C 0.67757 0.78621 0.28634 0.0
C1691 C 0.66023 0.78257 0.26868 0.0
C1692 C 0.64629 0.80183 0.26078 0.0
C1693 C 0.65158 0.82472 0.26867 0.0
C1694 C 0.69231 0.76602 0.29572 0.0
C1695 C 0.62745 0.79868 0.24211 0.0
C1696 C 0.67087 0.73814 0.21999 0.0
C1697 C 0.65341 0.72121 0.22462 0.0
C1698 C 0.67406 0.75757 0.23498 0.0
C1699 C 0.65958 0.75999 0.25527 0.0
C1700 C 0.64308 0.74205 0.26099 0.0
C1701 C 0.64007 0.72288 0.24546 0.0
C1702 C 0.69194 0.77628 0.22825 0.0
C1703 C 0.6277 0.74375 0.2827 0.0
H1704 H 0.69717 0.81235 0.30593 0.0
H1705 H 0.64199 0.83962 0.26133 0.0
H1706 H 0.6813 0.75001 0.29851 0.0
H1707 H 0.70619 0.76147 0.28263 0.0
H1708 H 0.70113 0.77074 0.31262 0.0
H1709 H 0.6162 0.8147 0.24019 0.0
H1710 H 0.636 0.79501 0.22483 0.0
H1711 H 0.61595 0.78339 0.24637 0.0
H1712 H 0.68134 0.73684 0.20399 0.0
H1713 H 0.62663 0.70972 0.24919 0.0
H1714 H 0.70402 0.77989 0.24326 0.0
H1715 H 0.68265 0.79305 0.22399 0.0
H1716 H 0.70273 0.77102 0.2127 0.0
H1717 H 0.638 0.75021 0.2981 0.0
H1718 H 0.61962 0.72642 0.28726 0.0
H1719 H 0.61323 0.75661 0.27945 0.0
C1720 C 0.41569 0.45815 0.53526 0.0
C1721 C 0.39416 0.44613 0.53274 0.0
C1722 C 0.43725 0.44632 0.53179 0.0
C1723 C 0.43706 0.42206 0.52554 0.0
C1724 C 0.41552 0.40932 0.52589 0.0
C1725 C 0.39428 0.42153 0.52957 0.0
C1726 C 0.45994 0.46036 0.53227 0.0
C1727 C 0.41453 0.38337 0.51959 0.0
C1728 C 0.47836 0.40183 0.47714 0.0
C1729 C 0.49439 0.38757 0.48952 0.0
C1730 C 0.46014 0.4137 0.48889 0.0
C1731 C 0.45794 0.41141 0.51372 0.0
C1732 C 0.47465 0.39783 0.5265 0.0
C1733 C 0.49267 0.38591 0.51419 0.0
C1734 C 0.44274 0.42807 0.47453 0.0
C1735 C 0.47307 0.39526 0.553 0.0
H1736 H 0.41571 0.47714 0.53803 0.0
H1737 H 0.37766 0.41208 0.528 0.0
H1738 H 0.47451 0.44988 0.54021 0.0
H1739 H 0.46516 0.46485 0.51391 0.0
H1740 H 0.45788 0.47712 0.54233 0.0
H1741 H 0.3973 0.37529 0.52445 0.0
H1742 H 0.41706 0.38132 0.50024 0.0
H1743 H 0.4289 0.37345 0.52852 0.0
H1744 H 0.47973 0.40333 0.45809 0.0
H1745 H 0.50514 0.37499 0.52383 0.0
H1746 H 0.44197 0.44649 0.48126 0.0
H1747 H 0.42475 0.4204 0.47626 0.0
H1748 H 0.44742 0.42863 0.45547 0.0
H1749 H 0.46933 0.41257 0.56146 0.0
H1750 H 0.4896 0.38786 0.56064 0.0
H1751 H 0.45827 0.38319 0.5575 0.0
C1752 C 0.14327 0.66514 0.72779 0.0
C1753 C 0.15793 0.66154 0.70816 0.0
C1754 C 0.1382 0.68802 0.73582 0.0
C1755 C 0.14779 0.70772 0.72371 0.0
C1756 C 0.16047 0.70424 0.70243 0.0
C1757 C 0.16556 0.6811 0.69496 0.0
C1758 C 0.12451 0.69094 0.75856 0.0
C1759 C 0.17034 0.72484 0.68865 0.0
C1760 C 0.12703 0.76658 0.74836 0.0
C1761 C 0.14474 0.77111 0.76513 0.0
C1762 C 0.1285 0.7468 0.73337 0.0
C1763 C 0.14792 0.73115 0.73558 0.0
C1764 C 0.16653 0.73654 0.75146 0.0
C1765 C 0.16477 0.75654 0.76592 0.0
C1766 C 0.10863 0.74197 0.71623 0.0
C1767 C 0.18758 0.7203 0.75439 0.0
H1768 H 0.13711 0.65007 0.73791 0.0
H1769 H 0.17667 0.67839 0.67958 0.0
H1770 H 0.13667 0.69697 0.77275 0.0
H1771 H 0.11058 0.7046 0.75654 0.0
H1772 H 0.11608 0.67416 0.76434 0.0
H1773 H 0.17519 0.71964 0.67034 0.0
H1774 H 0.15742 0.7396 0.68787 0.0
H1775 H 0.18647 0.73154 0.6976 0.0
H1776 H 0.11158 0.77792 0.74757 0.0
H1777 H 0.17858 0.76007 0.77874 0.0
H1778 H 0.09709 0.72784 0.72344 0.0
H1779 H 0.11563 0.73566 0.69903 0.0
H1780 H 0.09761 0.75795 0.71316 0.0
H1781 H 0.18165 0.7031 0.76177 0.0
H1782 H 0.20121 0.72784 0.76638 0.0
H1783 H 0.19589 0.71668 0.73702 0.0
C1784 C 0.47738 0.86507 0.96619 0.0
C1785 C 0.48659 0.86853 0.98897 0.0
C1786 C 0.48861 0.87489 0.9463 0.0
C1787 C 0.50934 0.88858 0.94943 0.0
C1788 C 0.51873 0.8919 0.97245 0.0
C1789 C 0.50723 0.88185 0.99186 0.0
C1790 C 0.4779 0.87104 0.92217 0.0
C1791 C 0.54091 0.90626 0.97672 0.0
C1792 C 0.55991 0.90278 0.90994 0.0
C1793 C 0.55792 0.92752 0.90993 0.0
C1794 C 0.54189 0.88876 0.9196 0.0
C1795 C 0.52165 0.89992 0.9292 0.0
C1796 C 0.51765 0.92422 0.9247 0.0
C1797 C 0.53596 0.93785 0.91502 0.0
C1798 C 0.5463 0.86266 0.92301 0.0
C1799 C 0.49574 0.93656 0.93359 0.0
H1800 H 0.46133 0.85483 0.96391 0.0
H1801 H 0.51444 0.88453 0.00941 0.0
H1802 H 0.46688 0.88659 0.9175 0.0
H1803 H 0.49171 0.86913 0.90838 0.0
H1804 H 0.46639 0.85512 0.92185 0.0
H1805 H 0.54592 0.90689 0.9957 0.0
H1806 H 0.55592 0.8986 0.96666 0.0
H1807 H 0.5383 0.92467 0.97044 0.0
H1808 H 0.57662 0.89457 0.9053 0.0
H1809 H 0.53404 0.95693 0.91433 0.0
H1810 H 0.52964 0.85242 0.92131 0.0
H1811 H 0.55342 0.85963 0.94104 0.0
H1812 H 0.55937 0.85581 0.91003 0.0
H1813 H 0.47991 0.92521 0.93127 0.0
H1814 H 0.49279 0.95363 0.92431 0.0
H1815 H 0.49775 0.94026 0.95275 0.0
C1816 C 0.9282 0.04701 0.45746 0.0
C1817 C 0.90576 0.05754 0.4571 0.0
C1818 C 0.94818 0.0601 0.46416 0.0
C1819 C 0.94549 0.08418 0.47056 0.0
C1820 C 0.92346 0.09556 0.46707 0.0
C1821 C 0.90379 0.08206 0.46034 0.0
C1822 C 0.97147 0.0474 0.46719 0.0
C1823 C 0.91989 0.12128 0.47332 0.0
C1824 C 0.97889 0.10308 0.52528 0.0
C1825 C -0.00282 0.11683 0.51585 0.0
C1826 C 0.96207 0.09244 0.51062 0.0
C1827 C 0.96356 0.09558 0.48582 0.0
C1828 C 0.98195 0.1095 0.47612 0.0
C1829 C -0.00139 0.12001 0.4913 0.0
C1830 C 0.94268 0.07777 0.52176 0.0
C1831 C 0.98409 0.11313 0.44979 0.0
H1832 H 0.92988 0.02811 0.45463 0.0
H1833 H 0.88652 0.09038 0.45968 0.0
H1834 H 0.98647 0.05879 0.46175 0.0
H1835 H 0.97396 0.04292 0.48612 0.0
H1836 H 0.97204 0.03071 0.45682 0.0
H1837 H 0.90364 0.12859 0.46503 0.0
H1838 H 0.91814 0.12301 0.49278 0.0
H1839 H 0.93526 0.13211 0.46775 0.0
H1840 H 0.97771 0.10056 0.54423 0.0
H1841 H 0.0128 0.1306 0.48396 0.0
H1842 H 0.9434 0.05938 0.51492 0.0
H1843 H 0.92512 0.08515 0.51702 0.0
H1844 H 0.94407 0.07715 0.54133 0.0
H1845 H 0.98702 0.09586 0.44093 0.0
H1846 H -0.00111 0.12518 0.44513 0.0
H1847 H 0.96741 0.12056 0.4426 0.0
loop_
_geom_bond_atom_site_label_1
_geom_bond_atom_site_label_2
_geom_bond_distance
_geom_bond_site_symmetry_2
_ccdc_geom_bond_type
In0 O1 2.294 . S
In0 O2 2.326 . S
In0 O6 2.266 . S
In0 O7 2.326 . S
In0 O8 2.266 . S
In0 O9 2.326 . S
In0 O11 2.294 . S
In0 O12 2.326 . S
O1 In0 2.294 . S
O1 C10 1.240 . S
O2 In0 2.326 . S
O2 C10 1.252 . S
C3 O6 1.252 . S
C3 O7 1.260 . S
C4 O11 1.240 . S
C4 O12 1.252 . S
C5 O8 1.252 . S
C5 O9 1.260 . S
O6 In0 2.266 . S
O6 C3 1.252 . S
O7 In0 2.326 . S
O7 C3 1.260 . S
O8 In0 2.266 . S
O8 C5 1.252 . S
O9 In0 2.326 . S
O9 C5 1.260 . S
C10 O1 1.240 . S
C10 O2 1.252 . S
O11 In0 2.294 . S
O11 C4 1.240 . S
O12 In0 2.326 . S
O12 C4 1.252 . S
In13 O14 2.294 . S
In13 O15 2.326 . S
In13 O19 2.266 . S
In13 O20 2.326 . S
In13 O21 2.266 . S
In13 O22 2.326 . S
In13 O24 2.294 . S
In13 O25 2.326 . S
O14 In13 2.294 . S
O14 C23 1.240 . S
O15 In13 2.326 . S
O15 C23 1.252 . S
C16 O19 1.252 . S
C16 O20 1.260 . S
C17 O24 1.240 . S
C17 O25 1.252 . S
C18 O21 1.252 . S
C18 O22 1.260 . S
O19 In13 2.266 . S
O19 C16 1.252 . S
O20 In13 2.326 . S
O20 C16 1.260 . S
O21 In13 2.266 . S
O21 C18 1.252 . S
O22 In13 2.326 . S
O22 C18 1.260 . S
C23 O14 1.240 . S
C23 O15 1.252 . S
O24 In13 2.294 . S
O24 C17 1.240 . S
O25 In13 2.326 . S
O25 C17 1.252 . S
In26 O27 2.294 . S
In26 O28 2.326 . S
In26 O32 2.266 . S
In26 O33 2.326 . S
In26 O34 2.266 . S
In26 O35 2.326 . S
In26 O37 2.294 . S
In26 O38 2.326 . S
O27 In26 2.294 . S
O27 C36 1.240 . S
O28 In26 2.326 . S
O28 C36 1.252 . S
C29 O32 1.252 . S
C29 O33 1.260 . S
C30 O37 1.240 . S
C30 O38 1.252 . S
C31 O34 1.252 . S
C31 O35 1.260 . S
O32 In26 2.266 . S
O32 C29 1.252 . S
O33 In26 2.326 . S
O33 C29 1.260 . S
O34 In26 2.266 . S
O34 C31 1.252 . S
O35 In26 2.326 . S
O35 C31 1.260 . S
C36 O27 1.240 . S
C36 O28 1.252 . S
O37 In26 2.294 . S
O37 C30 1.240 . S
O38 In26 2.326 . S
O38 C30 1.252 . S
In39 O40 2.294 . S
In39 O41 2.326 . S
In39 O45 2.266 . S
In39 O46 2.326 . S
In39 O47 2.266 . S
In39 O48 2.326 . S
In39 O50 2.294 . S
In39 O51 2.326 . S
O40 In39 2.294 . S
O40 C49 1.240 . S
O41 In39 2.326 . S
O41 C49 1.252 . S
C42 O45 1.252 . S
C42 O46 1.260 . S
C43 O50 1.240 . S
C43 O51 1.252 . S
C44 O47 1.252 . S
C44 O48 1.260 . S
O45 In39 2.266 . S
O45 C42 1.252 . S
O46 In39 2.326 . S
O46 C42 1.260 . S
O47 In39 2.266 . S
O47 C44 1.252 . S
O48 In39 2.326 . S
O48 C44 1.260 . S
C49 O40 1.240 . S
C49 O41 1.252 . S
O50 In39 2.294 . S
O50 C43 1.240 . S
O51 In39 2.326 . S
O51 C43 1.252 . S
In52 O53 2.294 . S
In52 O54 2.326 . S
In52 O58 2.266 . S
In52 O59 2.326 . S
In52 O60 2.266 . S
In52 O61 2.326 . S
In52 O63 2.294 . S
In52 O64 2.326 . S
O53 In52 2.294 . S
O53 C62 1.240 . S
O54 In52 2.326 . S
O54 C62 1.252 . S
C55 O58 1.252 . S
C55 O59 1.260 . S
C56 O63 1.240 . S
C56 O64 1.252 . S
C57 O60 1.252 . S
C57 O61 1.260 . S
O58 In52 2.266 . S
O58 C55 1.252 . S
O59 In52 2.326 . S
O59 C55 1.260 . S
O60 In52 2.266 . S
O60 C57 1.252 . S
O61 In52 2.326 . S
O61 C57 1.260 . S
C62 O53 1.240 . S
C62 O54 1.252 . S
O63 In52 2.294 . S
O63 C56 1.240 . S
O64 In52 2.326 . S
O64 C56 1.252 . S
In65 O66 2.294 . S
In65 O67 2.326 . S
In65 O71 2.266 . S
In65 O72 2.326 . S
In65 O73 2.266 . S
In65 O74 2.326 . S
In65 O76 2.294 . S
In65 O77 2.326 . S
O66 In65 2.294 . S
O66 C75 1.240 . S
O67 In65 2.326 . S
O67 C75 1.252 . S
C68 O71 1.252 . S
C68 O72 1.260 . S
C69 O76 1.240 . S
C69 O77 1.252 . S
C70 O73 1.252 . S
C70 O74 1.260 . S
O71 In65 2.266 . S
O71 C68 1.252 . S
O72 In65 2.326 . S
O72 C68 1.260 . S
O73 In65 2.266 . S
O73 C70 1.252 . S
O74 In65 2.326 . S
O74 C70 1.260 . S
C75 O66 1.240 . S
C75 O67 1.252 . S
O76 In65 2.294 . S
O76 C69 1.240 . S
O77 In65 2.326 . S
O77 C69 1.252 . S
In78 O79 2.294 . S
In78 O80 2.326 . S
In78 O84 2.266 . S
In78 O85 2.326 . S
In78 O86 2.266 . S
In78 O87 2.326 . S
In78 O89 2.294 . S
In78 O90 2.326 . S
O79 In78 2.294 . S
O79 C88 1.240 . S
O80 In78 2.326 . S
O80 C88 1.252 . S
C81 O84 1.252 . S
C81 O85 1.260 . S
C82 O89 1.240 . S
C82 O90 1.252 . S
C83 O86 1.252 . S
C83 O87 1.260 . S
O84 In78 2.266 . S
O84 C81 1.252 . S
O85 In78 2.326 . S
O85 C81 1.260 . S
O86 In78 2.266 . S
O86 C83 1.252 . S
O87 In78 2.326 . S
O87 C83 1.260 . S
C88 O79 1.240 . S
C88 O80 1.252 . S
O89 In78 2.294 . S
O89 C82 1.240 . S
O90 In78 2.326 . S
O90 C82 1.252 . S
In91 O92 2.294 . S
In91 O93 2.326 . S
In91 O97 2.266 . S
In91 O98 2.326 . S
In91 O99 2.266 . S
In91 O100 2.326 . S
In91 O102 2.294 . S
In91 O103 2.326 . S
O92 In91 2.294 . S
O92 C101 1.240 . S
O93 In91 2.326 . S
O93 C101 1.252 . S
C94 O97 1.252 . S
C94 O98 1.260 . S
C95 O102 1.240 . S
C95 O103 1.252 . S
C96 O99 1.252 . S
C96 O100 1.260 . S
O97 In91 2.266 . S
O97 C94 1.252 . S
O98 In91 2.326 . S
O98 C94 1.260 . S
O99 In91 2.266 . S
O99 C96 1.252 . S
O100 In91 2.326 . S
O100 C96 1.260 . S
C101 O92 1.240 . S
C101 O93 1.252 . S
O102 In91 2.294 . S
O102 C95 1.240 . S
O103 In91 2.326 . S
O103 C95 1.252 . S
In104 O105 2.294 . S
In104 O106 2.326 . S
In104 O110 2.266 . S
In104 O111 2.326 . S
In104 O112 2.266 . S
In104 O113 2.326 . S
In104 O115 2.294 . S
In104 O116 2.326 . S
O105 In104 2.294 . S
O105 C114 1.240 . S
O106 In104 2.326 . S
O106 C114 1.252 . S
C107 O110 1.252 . S
C107 O111 1.260 . S
C108 O115 1.240 . S
C108 O116 1.252 . S
C109 O112 1.252 . S
C109 O113 1.260 . S
O110 In104 2.266 . S
O110 C107 1.252 . S
O111 In104 2.326 . S
O111 C107 1.260 . S
O112 In104 2.266 . S
O112 C109 1.252 . S
O113 In104 2.326 . S
O113 C109 1.260 . S
C114 O105 1.240 . S
C114 O106 1.252 . S
O115 In104 2.294 . S
O115 C108 1.240 . S
O116 In104 2.326 . S
O116 C108 1.252 . S
In117 O118 2.294 . S
In117 O119 2.326 . S
In117 O123 2.266 . S
In117 O124 2.326 . S
In117 O125 2.266 . S
In117 O126 2.326 . S
In117 O128 2.294 . S
In117 O129 2.326 . S
O118 In117 2.294 . S
O118 C127 1.240 . S
O119 In117 2.326 . S
O119 C127 1.252 . S
C120 O123 1.252 . S
C120 O124 1.260 . S
C121 O128 1.240 . S
C121 O129 1.252 . S
C122 O125 1.252 . S
C122 O126 1.260 . S
O123 In117 2.266 . S
O123 C120 1.252 . S
O124 In117 2.326 . S
O124 C120 1.260 . S
O125 In117 2.266 . S
O125 C122 1.252 . S
O126 In117 2.326 . S
O126 C122 1.260 . S
C127 O118 1.240 . S
C127 O119 1.252 . S
O128 In117 2.294 . S
O128 C121 1.240 . S
O129 In117 2.326 . S
O129 C121 1.252 . S
In130 O131 2.294 . S
In130 O132 2.326 . S
In130 O136 2.266 . S
In130 O137 2.326 . S
In130 O138 2.266 . S
In130 O139 2.326 . S
In130 O141 2.294 . S
In130 O142 2.326 . S
O131 In130 2.294 . S
O131 C140 1.240 . S
O132 In130 2.326 . S
O132 C140 1.252 . S
C133 O136 1.252 . S
C133 O137 1.260 . S
C134 O141 1.240 . S
C134 O142 1.252 . S
C135 O138 1.252 . S
C135 O139 1.260 . S
O136 In130 2.266 . S
O136 C133 1.252 . S
O137 In130 2.326 . S
O137 C133 1.260 . S
O138 In130 2.266 . S
O138 C135 1.252 . S
O139 In130 2.326 . S
O139 C135 1.260 . S
C140 O131 1.240 . S
C140 O132 1.252 . S
O141 In130 2.294 . S
O141 C134 1.240 . S
O142 In130 2.326 . S
O142 C134 1.252 . S
In143 O144 2.294 . S
In143 O145 2.326 . S
In143 O149 2.266 . S
In143 O150 2.326 . S
In143 O151 2.266 . S
In143 O152 2.326 . S
In143 O154 2.294 . S
In143 O155 2.326 . S
O144 In143 2.294 . S
O144 C153 1.240 . S
O145 In143 2.326 . S
O145 C153 1.252 . S
C146 O149 1.252 . S
C146 O150 1.260 . S
C147 O154 1.240 . S
C147 O155 1.252 . S
C148 O151 1.252 . S
C148 O152 1.260 . S
O149 In143 2.266 . S
O149 C146 1.252 . S
O150 In143 2.326 . S
O150 C146 1.260 . S
O151 In143 2.266 . S
O151 C148 1.252 . S
O152 In143 2.326 . S
O152 C148 1.260 . S
C153 O144 1.240 . S
C153 O145 1.252 . S
O154 In143 2.294 . S
O154 C147 1.240 . S
O155 In143 2.326 . S
O155 C147 1.252 . S
In156 O157 2.294 . S
In156 O158 2.326 . S
In156 O162 2.266 . S
In156 O163 2.326 . S
In156 O164 2.266 . S
In156 O165 2.326 . S
In156 O167 2.294 . S
In156 O168 2.326 . S
O157 In156 2.294 . S
O157 C166 1.240 . S
O158 In156 2.326 . S
O158 C166 1.252 . S
C159 O162 1.252 . S
C159 O163 1.260 . S
C160 O167 1.240 . S
C160 O168 1.252 . S
C161 O164 1.252 . S
C161 O165 1.260 . S
O162 In156 2.266 . S
O162 C159 1.252 . S
O163 In156 2.326 . S
O163 C159 1.260 . S
O164 In156 2.266 . S
O164 C161 1.252 . S
O165 In156 2.326 . S
O165 C161 1.260 . S
C166 O157 1.240 . S
C166 O158 1.252 . S
O167 In156 2.294 . S
O167 C160 1.240 . S
O168 In156 2.326 . S
O168 C160 1.252 . S
In169 O170 2.294 . S
In169 O171 2.326 . S
In169 O175 2.266 . S
In169 O176 2.326 . S
In169 O177 2.266 . S
In169 O178 2.326 . S
In169 O180 2.294 . S
In169 O181 2.326 . S
O170 In169 2.294 . S
O170 C179 1.240 . S
O171 In169 2.326 . S
O171 C179 1.252 . S
C172 O175 1.252 . S
C172 O176 1.260 . S
C173 O180 1.240 . S
C173 O181 1.252 . S
C174 O177 1.252 . S
C174 O178 1.260 . S
O175 In169 2.266 . S
O175 C172 1.252 . S
O176 In169 2.326 . S
O176 C172 1.260 . S
O177 In169 2.266 . S
O177 C174 1.252 . S
O178 In169 2.326 . S
O178 C174 1.260 . S
C179 O170 1.240 . S
C179 O171 1.252 . S
O180 In169 2.294 . S
O180 C173 1.240 . S
O181 In169 2.326 . S
O181 C173 1.252 . S
In182 O183 2.294 . S
In182 O184 2.326 . S
In182 O188 2.266 . S
In182 O189 2.326 . S
In182 O190 2.266 . S
In182 O191 2.326 . S
In182 O193 2.294 . S
In182 O194 2.326 . S
O183 In182 2.294 . S
O183 C192 1.240 . S
O184 In182 2.326 . S
O184 C192 1.252 . S
C185 O188 1.252 . S
C185 O189 1.260 . S
C186 O193 1.240 . S
C186 O194 1.252 . S
C187 O190 1.252 . S
C187 O191 1.260 . S
O188 In182 2.266 . S
O188 C185 1.252 . S
O189 In182 2.326 . S
O189 C185 1.260 . S
O190 In182 2.266 . S
O190 C187 1.252 . S
O191 In182 2.326 . S
O191 C187 1.260 . S
C192 O183 1.240 . S
C192 O184 1.252 . S
O193 In182 2.294 . S
O193 C186 1.240 . S
O194 In182 2.326 . S
O194 C186 1.252 . S
In195 O196 2.294 . S
In195 O197 2.326 . S
In195 O201 2.266 . S
In195 O202 2.326 . S
In195 O203 2.266 . S
In195 O204 2.326 . S
In195 O206 2.294 . S
In195 O207 2.326 . S
O196 In195 2.294 . S
O196 C205 1.240 . S
O197 In195 2.326 . S
O197 C205 1.252 . S
C198 O201 1.252 . S
C198 O202 1.260 . S
C199 O206 1.240 . S
C199 O207 1.252 . S
C200 O203 1.252 . S
C200 O204 1.260 . S
O201 In195 2.266 . S
O201 C198 1.252 . S
O202 In195 2.326 . S
O202 C198 1.260 . S
O203 In195 2.266 . S
O203 C200 1.252 . S
O204 In195 2.326 . S
O204 C200 1.260 . S
C205 O196 1.240 . S
C205 O197 1.252 . S
O206 In195 2.294 . S
O206 C199 1.240 . S
O207 In195 2.326 . S
O207 C199 1.252 . S
In208 O209 2.294 . S
In208 O210 2.326 . S
In208 O214 2.266 . S
In208 O215 2.326 . S
In208 O216 2.266 . S
In208 O217 2.326 . S
In208 O219 2.294 . S
In208 O220 2.326 . S
O209 In208 2.294 . S
O209 C218 1.240 . S
O210 In208 2.326 . S
O210 C218 1.252 . S
C211 O214 1.252 . S
C211 O215 1.260 . S
C212 O219 1.240 . S
C212 O220 1.252 . S
C213 O216 1.252 . S
C213 O217 1.260 . S
O214 In208 2.266 . S
O214 C211 1.252 . S
O215 In208 2.326 . S
O215 C211 1.260 . S
O216 In208 2.266 . S
O216 C213 1.252 . S
O217 In208 2.326 . S
O217 C213 1.260 . S
C218 O209 1.240 . S
C218 O210 1.252 . S
O219 In208 2.294 . S
O219 C212 1.240 . S
O220 In208 2.326 . S
O220 C212 1.252 . S
In221 O222 2.294 . S
In221 O223 2.326 . S
In221 O227 2.266 . S
In221 O228 2.326 . S
In221 O229 2.266 . S
In221 O230 2.326 . S
In221 O232 2.294 . S
In221 O233 2.326 . S
O222 In221 2.294 . S
O222 C231 1.240 . S
O223 In221 2.326 . S
O223 C231 1.252 . S
C224 O227 1.252 . S
C224 O228 1.260 . S
C225 O232 1.240 . S
C225 O233 1.252 . S
C226 O229 1.252 . S
C226 O230 1.260 . S
O227 In221 2.266 . S
O227 C224 1.252 . S
O228 In221 2.326 . S
O228 C224 1.260 . S
O229 In221 2.266 . S
O229 C226 1.252 . S
O230 In221 2.326 . S
O230 C226 1.260 . S
C231 O222 1.240 . S
C231 O223 1.252 . S
O232 In221 2.294 . S
O232 C225 1.240 . S
O233 In221 2.326 . S
O233 C225 1.252 . S
In234 O235 2.294 . S
In234 O236 2.326 . S
In234 O240 2.266 . S
In234 O241 2.326 . S
In234 O242 2.266 . S
In234 O243 2.326 . S
In234 O245 2.294 . S
In234 O246 2.326 . S
O235 In234 2.294 . S
O235 C244 1.240 . S
O236 In234 2.326 . S
O236 C244 1.252 . S
C237 O240 1.252 . S
C237 O241 1.260 . S
C238 O245 1.240 . S
C238 O246 1.252 . S
C239 O242 1.252 . S
C239 O243 1.260 . S
O240 In234 2.266 . S
O240 C237 1.252 . S
O241 In234 2.326 . S
O241 C237 1.260 . S
O242 In234 2.266 . S
O242 C239 1.252 . S
O243 In234 2.326 . S
O243 C239 1.260 . S
C244 O235 1.240 . S
C244 O236 1.252 . S
O245 In234 2.294 . S
O245 C238 1.240 . S
O246 In234 2.326 . S
O246 C238 1.252 . S
In247 O248 2.294 . S
In247 O249 2.326 . S
In247 O253 2.266 . S
In247 O254 2.326 . S
In247 O255 2.266 . S
In247 O256 2.326 . S
In247 O258 2.294 . S
In247 O259 2.326 . S
O248 In247 2.294 . S
O248 C257 1.240 . S
O249 In247 2.326 . S
O249 C257 1.252 . S
C250 O253 1.252 . S
C250 O254 1.260 . S
C251 O258 1.240 . S
C251 O259 1.252 . S
C252 O255 1.252 . S
C252 O256 1.260 . S
O253 In247 2.266 . S
O253 C250 1.252 . S
O254 In247 2.326 . S
O254 C250 1.260 . S
O255 In247 2.266 . S
O255 C252 1.252 . S
O256 In247 2.326 . S
O256 C252 1.260 . S
C257 O248 1.240 . S
C257 O249 1.252 . S
O258 In247 2.294 . S
O258 C251 1.240 . S
O259 In247 2.326 . S
O259 C251 1.252 . S
In260 O261 2.294 . S
In260 O262 2.326 . S
In260 O266 2.266 . S
In260 O267 2.326 . S
In260 O268 2.266 . S
In260 O269 2.326 . S
In260 O271 2.294 . S
In260 O272 2.326 . S
O261 In260 2.294 . S
O261 C270 1.240 . S
O262 In260 2.326 . S
O262 C270 1.252 . S
C263 O266 1.252 . S
C263 O267 1.260 . S
C264 O271 1.240 . S
C264 O272 1.252 . S
C265 O268 1.252 . S
C265 O269 1.260 . S
O266 In260 2.266 . S
O266 C263 1.252 . S
O267 In260 2.326 . S
O267 C263 1.260 . S
O268 In260 2.266 . S
O268 C265 1.252 . S
O269 In260 2.326 . S
O269 C265 1.260 . S
C270 O261 1.240 . S
C270 O262 1.252 . S
O271 In260 2.294 . S
O271 C264 1.240 . S
O272 In260 2.326 . S
O272 C264 1.252 . S
In273 O274 2.294 . S
In273 O275 2.326 . S
In273 O279 2.266 . S
In273 O280 2.326 . S
In273 O281 2.266 . S
In273 O282 2.326 . S
In273 O284 2.294 . S
In273 O285 2.326 . S
O274 In273 2.294 . S
O274 C283 1.240 . S
O275 In273 2.326 . S
O275 C283 1.252 . S
C276 O279 1.252 . S
C276 O280 1.260 . S
C277 O284 1.240 . S
C277 O285 1.252 . S
C278 O281 1.252 . S
C278 O282 1.260 . S
O279 In273 2.266 . S
O279 C276 1.252 . S
O280 In273 2.326 . S
O280 C276 1.260 . S
O281 In273 2.266 . S
O281 C278 1.252 . S
O282 In273 2.326 . S
O282 C278 1.260 . S
C283 O274 1.240 . S
C283 O275 1.252 . S
O284 In273 2.294 . S
O284 C277 1.240 . S
O285 In273 2.326 . S
O285 C277 1.252 . S
In286 O287 2.294 . S
In286 O288 2.326 . S
In286 O292 2.266 . S
In286 O293 2.326 . S
In286 O294 2.266 . S
In286 O295 2.326 . S
In286 O297 2.294 . S
In286 O298 2.326 . S
O287 In286 2.294 . S
O287 C296 1.240 . S
O288 In286 2.326 . S
O288 C296 1.252 . S
C289 O292 1.252 . S
C289 O293 1.260 . S
C290 O297 1.240 . S
C290 O298 1.252 . S
C291 O294 1.252 . S
C291 O295 1.260 . S
O292 In286 2.266 . S
O292 C289 1.252 . S
O293 In286 2.326 . S
O293 C289 1.260 . S
O294 In286 2.266 . S
O294 C291 1.252 . S
O295 In286 2.326 . S
O295 C291 1.260 . S
C296 O287 1.240 . S
C296 O288 1.252 . S
O297 In286 2.294 . S
O297 C290 1.240 . S
O298 In286 2.326 . S
O298 C290 1.252 . S
In299 O300 2.294 . S
In299 O301 2.326 . S
In299 O305 2.266 . S
In299 O306 2.326 . S
In299 O307 2.266 . S
In299 O308 2.326 . S
In299 O310 2.294 . S
In299 O311 2.326 . S
O300 In299 2.294 . S
O300 C309 1.240 . S
O301 In299 2.326 . S
O301 C309 1.252 . S
C302 O305 1.252 . S
C302 O306 1.260 . S
C303 O310 1.240 . S
C303 O311 1.252 . S
C304 O307 1.252 . S
C304 O308 1.260 . S
O305 In299 2.266 . S
O305 C302 1.252 . S
O306 In299 2.326 . S
O306 C302 1.260 . S
O307 In299 2.266 . S
O307 C304 1.252 . S
O308 In299 2.326 . S
O308 C304 1.260 . S
C309 O300 1.240 . S
C309 O301 1.252 . S
O310 In299 2.294 . S
O310 C303 1.240 . S
O311 In299 2.326 . S
O311 C303 1.252 . S
C312 C313 1.391 . S
C312 C314 1.394 . S
C312 H328 0.931 . S
C313 C312 1.391 . S
C313 C317 1.376 . S
C314 C312 1.394 . S
C314 C315 1.369 . S
C314 C318 1.531 . S
C315 C314 1.369 . S
C315 C316 1.410 . S
C315 C323 1.503 . S
C316 C315 1.410 . S
C316 C317 1.392 . S
C316 C319 1.511 . S
C317 C313 1.376 . S
C317 C316 1.392 . S
C317 H329 0.929 . S
C318 C314 1.531 . S
C318 H330 0.960 . S
C318 H331 0.962 . S
C318 H332 0.960 . S
C319 C316 1.511 . S
C319 H333 0.961 . S
C319 H334 0.961 . S
C319 H335 0.961 . S
C320 C321 1.370 . S
C320 C322 1.363 . S
C320 H336 0.931 . S
C321 C320 1.370 . S
C321 C325 1.408 . S
C322 C320 1.363 . S
C322 C323 1.370 . S
C322 C326 1.524 . S
C323 C315 1.503 . S
C323 C322 1.370 . S
C323 C324 1.403 . S
C324 C323 1.403 . S
C324 C325 1.404 . S
C324 C327 1.539 . S
C325 C321 1.408 . S
C325 C324 1.404 . S
C325 H337 0.930 . S
C326 C322 1.524 . S
C326 H338 0.956 . S
C326 H339 0.961 . S
C326 H340 0.961 . S
C327 C324 1.539 . S
C327 H341 0.958 . S
C327 H342 0.961 . S
C327 H343 0.960 . S
H328 C312 0.931 . S
H329 C317 0.929 . S
H330 C318 0.960 . S
H331 C318 0.962 . S
H332 C318 0.960 . S
H333 C319 0.961 . S
H334 C319 0.961 . S
H335 C319 0.961 . S
H336 C320 0.931 . S
H337 C325 0.930 . S
H338 C326 0.956 . S
H339 C326 0.961 . S
H340 C326 0.961 . S
H341 C327 0.958 . S
H342 C327 0.961 . S
H343 C327 0.960 . S
C344 C345 1.426 . S
C344 C346 1.367 1_655 S
C344 H360 0.924 1_655 S
C345 C344 1.426 . S
C345 C349 1.376 . S
C346 C344 1.367 1_455 S
C346 C347 1.369 . S
C346 C350 1.531 . S
C347 C346 1.369 . S
C347 C348 1.410 1_455 S
C347 C355 1.503 . S
C348 C347 1.410 1_655 S
C348 C349 1.392 . S
C348 C351 1.511 . S
C349 C345 1.376 . S
C349 C348 1.392 . S
C349 H361 0.929 . S
C350 C346 1.531 . S
C350 H362 0.960 . S
C350 H363 0.962 . S
C350 H364 0.960 . S
C351 C348 1.511 . S
C351 H365 0.961 . S
C351 H366 0.961 . S
C351 H367 0.961 . S
C352 C353 1.370 . S
C352 C354 1.363 . S
C352 H368 0.931 . S
C353 C352 1.370 . S
C353 C357 1.408 . S
C354 C352 1.363 . S
C354 C355 1.370 . S
C354 C358 1.524 . S
C355 C347 1.503 . S
C355 C354 1.370 . S
C355 C356 1.403 . S
C356 C355 1.403 . S
C356 C357 1.404 . S
C356 C359 1.539 . S
C357 C353 1.408 . S
C357 C356 1.404 . S
C357 H369 0.930 . S
C358 C354 1.524 . S
C358 H370 0.956 . S
C358 H371 0.961 . S
C358 H372 0.961 . S
C359 C356 1.539 . S
C359 H373 0.958 . S
C359 H374 0.961 . S
C359 H375 0.960 1_455 S
H360 C344 0.924 1_455 S
H361 C349 0.929 . S
H362 C350 0.960 . S
H363 C350 0.962 . S
H364 C350 0.960 . S
H365 C351 0.961 . S
H366 C351 0.961 . S
H367 C351 0.961 . S
H368 C352 0.931 . S
H369 C357 0.930 . S
H370 C358 0.956 . S
H371 C358 0.961 . S
H372 C358 0.961 . S
H373 C359 0.958 . S
H374 C359 0.961 . S
H375 C359 0.960 1_655 S
C376 C377 1.391 . S
C376 C378 1.394 . S
C376 H392 0.931 . S
C377 C376 1.391 . S
C377 C381 1.376 . S
C378 C376 1.394 . S
C378 C379 1.369 . S
C378 C382 1.531 . S
C379 C378 1.369 . S
C379 C380 1.410 . S
C379 C387 1.503 . S
C380 C379 1.410 . S
C380 C381 1.392 . S
C380 C383 1.511 . S
C381 C377 1.376 . S
C381 C380 1.392 . S
C381 H393 0.929 . S
C382 C378 1.531 . S
C382 H394 0.960 . S
C382 H395 0.962 . S
C382 H396 0.960 . S
C383 C380 1.511 . S
C383 H397 0.964 . S
C383 H398 0.961 1_556 S
C383 H399 0.961 . S
C384 C385 1.370 . S
C384 C386 1.363 . S
C384 H400 0.931 . S
C385 C384 1.370 . S
C385 C389 1.408 . S
C386 C384 1.363 . S
C386 C387 1.370 1_554 S
C386 C390 1.524 . S
C387 C379 1.503 . S
C387 C386 1.370 1_556 S
C387 C388 1.403 . S
C388 C387 1.403 . S
C388 C389 1.404 1_556 S
C388 C391 1.539 . S
C389 C385 1.408 . S
C389 C388 1.404 1_554 S
C389 H401 0.930 . S
C390 C386 1.524 . S
C390 H402 0.956 1_554 S
C390 H403 0.961 . S
C390 H404 0.961 . S
C391 C388 1.539 . S
C391 H405 0.958 . S
C391 H406 0.961 . S
C391 H407 0.960 . S
H392 C376 0.931 . S
H393 C381 0.929 . S
H394 C382 0.960 . S
H395 C382 0.962 . S
H396 C382 0.960 . S
H397 C383 0.964 . S
H398 C383 0.961 1_554 S
H399 C383 0.961 . S
H400 C384 0.931 . S
H401 C389 0.930 . S
H402 C390 0.956 1_556 S
H403 C390 0.961 . S
H404 C390 0.961 . S
H405 C391 0.958 . S
H406 C391 0.961 . S
H407 C391 0.960 . S
C408 C409 1.391 . S
C408 C410 1.394 . S
C408 H424 0.931 . S
C409 C408 1.391 . S
C409 C413 1.376 . S
C410 C408 1.394 . S
C410 C411 1.369 . S
C410 C414 1.531 . S
C411 C410 1.369 . S
C411 C412 1.410 . S
C411 C419 1.503 . S
C412 C411 1.410 . S
C412 C413 1.392 . S
C412 C415 1.511 . S
C413 C409 1.376 . S
C413 C412 1.392 . S
C413 H425 0.929 . S
C414 C410 1.531 . S
C414 H426 0.960 . S
C414 H427 0.962 . S
C414 H428 0.960 . S
C415 C412 1.511 . S
C415 H429 0.961 . S
C415 H430 0.961 . S
C415 H431 0.961 . S
C416 C417 1.370 . S
C416 C418 1.363 . S
C416 H432 0.931 . S
C417 C416 1.370 . S
C417 C421 1.408 . S
C418 C416 1.363 . S
C418 C419 1.370 . S
C418 C422 1.524 . S
C419 C411 1.503 . S
C419 C418 1.370 . S
C419 C420 1.403 . S
C420 C419 1.403 . S
C420 C421 1.404 . S
C420 C423 1.539 . S
C421 C417 1.408 . S
C421 C420 1.404 . S
C421 H433 0.930 . S
C422 C418 1.524 . S
C422 H434 0.956 . S
C422 H435 0.961 . S
C422 H436 0.961 . S
C423 C420 1.539 . S
C423 H437 0.958 . S
C423 H438 0.961 . S
C423 H439 0.960 . S
H424 C408 0.931 . S
H425 C413 0.929 . S
H426 C414 0.960 . S
H427 C414 0.962 . S
H428 C414 0.960 . S
H429 C415 0.961 . S
H430 C415 0.961 . S
H431 C415 0.961 . S
H432 C416 0.931 . S
H433 C421 0.930 . S
H434 C422 0.956 . S
H435 C422 0.961 . S
H436 C422 0.961 . S
H437 C423 0.958 . S
H438 C423 0.961 . S
H439 C423 0.960 . S
C440 C441 1.391 . S
C440 C442 1.394 . S
C440 H456 0.931 . S
C441 C440 1.391 . S
C441 C445 1.376 . S
C442 C440 1.394 . S
C442 C443 1.369 . S
C442 C446 1.531 . S
C443 C442 1.369 . S
C443 C444 1.410 . S
C443 C451 1.503 . S
C444 C443 1.410 . S
C444 C445 1.392 . S
C444 C447 1.511 . S
C445 C441 1.376 . S
C445 C444 1.392 . S
C445 H457 0.929 . S
C446 C442 1.531 . S
C446 H458 0.960 . S
C446 H459 0.962 . S
C446 H460 0.960 . S
C447 C444 1.511 . S
C447 H461 0.961 . S
C447 H462 0.961 . S
C447 H463 0.961 . S
C448 C449 1.370 . S
C448 C450 1.363 . S
C448 H464 0.931 . S
C449 C448 1.370 . S
C449 C453 1.408 . S
C450 C448 1.363 . S
C450 C451 1.370 . S
C450 C454 1.524 . S
C451 C443 1.503 . S
C451 C450 1.370 . S
C451 C452 1.403 . S
C452 C451 1.403 . S
C452 C453 1.404 . S
C452 C455 1.539 . S
C453 C449 1.408 . S
C453 C452 1.404 . S
C453 H465 0.930 . S
C454 C450 1.524 . S
C454 H466 0.956 . S
C454 H467 0.961 . S
C454 H468 0.961 . S
C455 C452 1.539 . S
C455 H469 0.958 . S
C455 H470 0.961 . S
C455 H471 0.960 . S
H456 C440 0.931 . S
H457 C445 0.929 . S
H458 C446 0.960 . S
H459 C446 0.962 . S
H460 C446 0.960 . S
H461 C447 0.961 . S
H462 C447 0.961 . S
H463 C447 0.961 . S
H464 C448 0.931 . S
H465 C453 0.930 . S
H466 C454 0.956 . S
H467 C454 0.961 . S
H468 C454 0.961 . S
H469 C455 0.958 . S
H470 C455 0.961 . S
H471 C455 0.960 . S
C472 C473 1.391 . S
C472 C474 1.394 . S
C472 H488 0.931 . S
C473 C472 1.391 . S
C473 C477 1.376 . S
C474 C472 1.394 . S
C474 C475 1.369 . S
C474 C478 1.531 . S
C475 C474 1.369 . S
C475 C476 1.410 . S
C475 C483 1.503 . S
C476 C475 1.410 . S
C476 C477 1.392 . S
C476 C479 1.511 1_655 S
C477 C473 1.376 . S
C477 C476 1.392 . S
C477 H489 0.929 . S
C478 C474 1.531 . S
C478 H490 0.960 . S
C478 H491 0.962 . S
C478 H492 0.960 . S
C479 C476 1.511 1_455 S
C479 H493 0.961 . S
C479 H494 0.961 . S
C479 H495 0.961 . S
C480 C481 1.370 . S
C480 C482 1.363 1_455 S
C480 H496 0.931 . S
C481 C480 1.370 . S
C481 C485 1.408 . S
C482 C480 1.363 1_655 S
C482 C483 1.370 . S
C482 C486 1.524 . S
C483 C475 1.503 . S
C483 C482 1.370 . S
C483 C484 1.419 . S
C484 C483 1.419 . S
C484 C485 1.381 1_655 S
C484 C487 1.544 . S
C485 C481 1.408 . S
C485 C484 1.381 1_455 S
C485 H497 0.930 . S
C486 C482 1.524 . S
C486 H498 0.956 . S
C486 H499 0.961 . S
C486 H500 0.961 . S
C487 C484 1.544 . S
C487 H501 0.958 . S
C487 H502 0.961 1_655 S
C487 H503 0.960 . S
H488 C472 0.931 . S
H489 C477 0.929 . S
H490 C478 0.960 . S
H491 C478 0.962 . S
H492 C478 0.960 . S
H493 C479 0.961 . S
H494 C479 0.961 . S
H495 C479 0.961 . S
H496 C480 0.931 . S
H497 C485 0.930 . S
H498 C486 0.956 . S
H499 C486 0.961 . S
H500 C486 0.961 . S
H501 C487 0.958 . S
H502 C487 0.961 1_455 S
H503 C487 0.960 . S
C504 C505 1.391 . S
C504 C506 1.394 . S
C504 H520 0.931 . S
C505 C504 1.391 . S
C505 C509 1.376 . S
C506 C504 1.394 . S
C506 C507 1.369 . S
C506 C510 1.531 1_554 S
C507 C506 1.369 . S
C507 C508 1.410 . S
C507 C515 1.503 . S
C508 C507 1.410 . S
C508 C509 1.392 . S
C508 C511 1.511 . S
C509 C505 1.376 . S
C509 C508 1.392 . S
C509 H521 0.929 . S
C510 C506 1.531 1_556 S
C510 H522 0.960 . S
C510 H523 0.962 . S
C510 H524 0.960 . S
C511 C508 1.511 . S
C511 H525 0.961 . S
C511 H526 0.961 . S
C511 H527 0.961 . S
C512 C513 1.370 . S
C512 C514 1.363 1_556 S
C512 H528 0.931 . S
C513 C512 1.370 . S
C513 C517 1.408 . S
C514 C512 1.363 1_554 S
C514 C515 1.370 . S
C514 C518 1.524 . S
C515 C507 1.503 . S
C515 C514 1.370 . S
C515 C516 1.403 1_554 S
C516 C515 1.403 1_556 S
C516 C517 1.404 . S
C516 C519 1.539 . S
C517 C513 1.408 . S
C517 C516 1.404 . S
C517 H529 0.930 . S
C518 C514 1.524 . S
C518 H530 0.956 . S
C518 H531 0.961 . S
C518 H532 0.961 . S
C519 C516 1.539 . S
C519 H533 0.958 . S
C519 H534 0.961 . S
C519 H535 0.960 1_556 S
H520 C504 0.931 . S
H521 C509 0.929 . S
H522 C510 0.960 . S
H523 C510 0.962 . S
H524 C510 0.960 . S
H525 C511 0.961 . S
H526 C511 0.961 . S
H527 C511 0.961 . S
H528 C512 0.931 . S
H529 C517 0.930 . S
H530 C518 0.956 . S
H531 C518 0.961 . S
H532 C518 0.961 . S
H533 C519 0.958 . S
H534 C519 0.961 . S
H535 C519 0.960 1_554 S
C536 C537 1.391 . S
C536 C538 1.394 . S
C536 H552 0.931 . S
C537 C536 1.391 . S
C537 C541 1.376 . S
C538 C536 1.394 . S
C538 C539 1.369 . S
C538 C542 1.531 . S
C539 C538 1.369 . S
C539 C540 1.410 . S
C539 C547 1.503 . S
C540 C539 1.410 . S
C540 C541 1.392 . S
C540 C543 1.511 . S
C541 C537 1.376 . S
C541 C540 1.392 . S
C541 H553 0.929 . S
C542 C538 1.531 . S
C542 H554 0.960 . S
C542 H555 0.962 . S
C542 H556 0.960 . S
C543 C540 1.511 . S
C543 H557 0.961 . S
C543 H558 0.961 . S
C543 H559 0.961 . S
C544 C545 1.370 . S
C544 C546 1.363 . S
C544 H560 0.931 . S
C545 C544 1.370 . S
C545 C549 1.408 . S
C546 C544 1.363 . S
C546 C547 1.370 . S
C546 C550 1.524 . S
C547 C539 1.503 . S
C547 C546 1.370 . S
C547 C548 1.403 . S
C548 C547 1.403 . S
C548 C549 1.404 . S
C548 C551 1.539 . S
C549 C545 1.408 . S
C549 C548 1.404 . S
C549 H561 0.930 . S
C550 C546 1.524 . S
C550 H562 0.956 . S
C550 H563 0.961 . S
C550 H564 0.961 . S
C551 C548 1.539 . S
C551 H565 0.958 . S
C551 H566 0.961 . S
C551 H567 0.960 . S
H552 C536 0.931 . S
H553 C541 0.929 . S
H554 C542 0.960 . S
H555 C542 0.962 . S
H556 C542 0.960 . S
H557 C543 0.961 . S
H558 C543 0.961 . S
H559 C543 0.961 . S
H560 C544 0.931 . S
H561 C549 0.930 . S
H562 C550 0.956 . S
H563 C550 0.961 . S
H564 C550 0.961 . S
H565 C551 0.958 . S
H566 C551 0.961 . S
H567 C551 0.960 . S
C568 C569 1.391 . S
C568 C570 1.394 . S
C568 H584 0.931 . S
C569 C568 1.391 . S
C569 C573 1.376 . S
C570 C568 1.394 . S
C570 C571 1.369 . S
C570 C574 1.531 . S
C571 C570 1.369 . S
C571 C572 1.410 . S
C571 C579 1.503 . S
C572 C571 1.410 . S
C572 C573 1.392 . S
C572 C575 1.511 . S
C573 C569 1.376 . S
C573 C572 1.392 . S
C573 H585 0.929 . S
C574 C570 1.531 . S
C574 H586 0.960 . S
C574 H587 0.962 . S
C574 H588 0.960 . S
C575 C572 1.511 . S
C575 H589 0.961 . S
C575 H590 0.961 . S
C575 H591 0.961 . S
C576 C577 1.370 . S
C576 C578 1.363 . S
C576 H592 0.931 . S
C577 C576 1.370 . S
C577 C581 1.408 . S
C578 C576 1.363 . S
C578 C579 1.370 . S
C578 C582 1.524 . S
C579 C571 1.503 . S
C579 C578 1.370 . S
C579 C580 1.403 . S
C580 C579 1.403 . S
C580 C581 1.404 . S
C580 C583 1.539 . S
C581 C577 1.408 . S
C581 C580 1.404 . S
C581 H593 0.930 . S
C582 C578 1.524 . S
C582 H594 0.956 . S
C582 H595 0.961 . S
C582 H596 0.961 . S
C583 C580 1.539 . S
C583 H597 0.958 . S
C583 H598 0.961 . S
C583 H599 0.960 . S
H584 C568 0.931 . S
H585 C573 0.929 . S
H586 C574 0.960 . S
H587 C574 0.962 . S
H588 C574 0.960 . S
H589 C575 0.961 . S
H590 C575 0.961 . S
H591 C575 0.961 . S
H592 C576 0.931 . S
H593 C581 0.930 . S
H594 C582 0.956 . S
H595 C582 0.961 . S
H596 C582 0.961 . S
H597 C583 0.958 . S
H598 C583 0.961 . S
H599 C583 0.960 . S
C600 C601 1.391 . S
C600 C602 1.394 . S
C600 H616 0.931 . S
C601 C600 1.391 . S
C601 C605 1.376 . S
C602 C600 1.394 . S
C602 C603 1.369 1_565 S
C602 C606 1.531 . S
C603 C602 1.369 1_545 S
C603 C604 1.410 . S
C603 C611 1.503 . S
C604 C603 1.410 . S
C604 C605 1.392 1_545 S
C604 C607 1.511 . S
C605 C601 1.376 . S
C605 C604 1.392 1_565 S
C605 H617 0.922 1_565 S
C606 C602 1.531 . S
C606 H618 0.960 . S
C606 H619 0.962 . S
C606 H620 0.960 . S
C607 C604 1.511 . S
C607 H621 0.961 . S
C607 H622 0.961 . S
C607 H623 0.961 . S
C608 C609 1.370 . S
C608 C610 1.363 . S
C608 H624 0.931 . S
C609 C608 1.370 . S
C609 C613 1.408 . S
C610 C608 1.363 . S
C610 C611 1.370 . S
C610 C614 1.524 . S
C611 C603 1.503 . S
C611 C610 1.370 . S
C611 C612 1.403 . S
C612 C611 1.403 . S
C612 C613 1.404 . S
C612 C615 1.539 . S
C613 C609 1.408 . S
C613 C612 1.404 . S
C613 H625 0.930 . S
C614 C610 1.524 . S
C614 H626 0.956 . S
C614 H627 0.961 . S
C614 H628 0.961 . S
C615 C612 1.539 . S
C615 H629 0.958 1_545 S
C615 H630 0.961 . S
C615 H631 0.960 . S
H616 C600 0.931 . S
H617 C605 0.922 1_545 S
H618 C606 0.960 . S
H619 C606 0.962 . S
H620 C606 0.960 . S
H621 C607 0.961 . S
H622 C607 0.961 . S
H623 C607 0.961 . S
H624 C608 0.931 . S
H625 C613 0.930 . S
H626 C614 0.956 . S
H627 C614 0.961 . S
H628 C614 0.961 . S
H629 C615 0.958 1_565 S
H630 C615 0.961 . S
H631 C615 0.960 . S
C632 C633 1.391 . S
C632 C634 1.394 . S
C632 H648 0.931 . S
C633 C632 1.391 . S
C633 C637 1.376 . S
C634 C632 1.394 . S
C634 C635 1.369 . S
C634 C638 1.531 . S
C635 C634 1.369 . S
C635 C636 1.410 . S
C635 C643 1.503 . S
C636 C635 1.410 . S
C636 C637 1.392 . S
C636 C639 1.511 . S
C637 C633 1.376 . S
C637 C636 1.392 . S
C637 H649 0.929 . S
C638 C634 1.531 . S
C638 H650 0.960 . S
C638 H651 0.962 . S
C638 H652 0.960 . S
C639 C636 1.511 . S
C639 H653 0.961 . S
C639 H654 0.961 . S
C639 H655 0.961 . S
C640 C641 1.370 . S
C640 C642 1.363 . S
C640 H656 0.931 . S
C641 C640 1.370 . S
C641 C645 1.408 1_545 S
C642 C640 1.363 . S
C642 C643 1.370 1_545 S
C642 C646 1.524 . S
C643 C635 1.503 . S
C643 C642 1.370 1_565 S
C643 C644 1.403 . S
C644 C643 1.403 . S
C644 C645 1.404 . S
C644 C647 1.539 . S
C645 C641 1.408 1_565 S
C645 C644 1.404 . S
C645 H657 0.930 . S
C646 C642 1.524 . S
C646 H658 0.956 . S
C646 H659 0.957 1_545 S
C646 H660 0.961 . S
C647 C644 1.539 . S
C647 H661 0.958 . S
C647 H662 0.961 . S
C647 H663 0.960 . S
H648 C632 0.931 . S
H649 C637 0.929 . S
H650 C638 0.960 . S
H651 C638 0.962 . S
H652 C638 0.960 . S
H653 C639 0.961 . S
H654 C639 0.961 . S
H655 C639 0.961 . S
H656 C640 0.931 . S
H657 C645 0.930 . S
H658 C646 0.956 . S
H659 C646 0.957 1_565 S
H660 C646 0.961 . S
H661 C647 0.958 . S
H662 C647 0.961 . S
H663 C647 0.960 . S
C664 C665 1.391 . S
C664 C666 1.394 . S
C664 H680 0.931 . S
C665 C664 1.391 . S
C665 C669 1.376 . S
C666 C664 1.394 . S
C666 C667 1.369 . S
C666 C670 1.531 . S
C667 C666 1.369 . S
C667 C668 1.410 . S
C667 C675 1.503 . S
C668 C667 1.410 . S
C668 C669 1.392 . S
C668 C671 1.511 . S
C669 C665 1.376 . S
C669 C668 1.392 . S
C669 H681 0.929 . S
C670 C666 1.531 . S
C670 H682 0.960 . S
C670 H683 0.962 . S
C670 H684 0.960 . S
C671 C668 1.511 . S
C671 H685 0.961 . S
C671 H686 0.961 . S
C671 H687 0.961 . S
C672 C673 1.370 . S
C672 C674 1.363 . S
C672 H688 0.931 . S
C673 C672 1.370 . S
C673 C677 1.408 . S
C674 C672 1.363 . S
C674 C675 1.370 . S
C674 C678 1.524 . S
C675 C667 1.503 . S
C675 C674 1.370 . S
C675 C676 1.403 . S
C676 C675 1.403 . S
C676 C677 1.404 . S
C676 C679 1.539 . S
C677 C673 1.408 . S
C677 C676 1.404 . S
C677 H689 0.930 . S
C678 C674 1.524 . S
C678 H690 0.956 . S
C678 H691 0.961 . S
C678 H692 0.961 . S
C679 C676 1.539 . S
C679 H693 0.958 . S
C679 H694 0.961 . S
C679 H695 0.960 . S
H680 C664 0.931 . S
H681 C669 0.929 . S
H682 C670 0.960 . S
H683 C670 0.962 . S
H684 C670 0.960 . S
H685 C671 0.961 . S
H686 C671 0.961 . S
H687 C671 0.961 . S
H688 C672 0.931 . S
H689 C677 0.930 . S
H690 C678 0.956 . S
H691 C678 0.961 . S
H692 C678 0.961 . S
H693 C679 0.958 . S
H694 C679 0.961 . S
H695 C679 0.960 . S
C696 C697 1.391 . S
C696 C698 1.394 . S
C696 H712 0.931 . S
C697 C696 1.391 . S
C697 C701 1.376 . S
C698 C696 1.394 . S
C698 C699 1.369 . S
C698 C702 1.531 . S
C699 C698 1.369 . S
C699 C700 1.410 . S
C699 C707 1.503 . S
C700 C699 1.410 . S
C700 C701 1.392 . S
C700 C703 1.511 . S
C701 C697 1.376 . S
C701 C700 1.392 . S
C701 H713 0.929 . S
C702 C698 1.531 . S
C702 H714 0.960 . S
C702 H715 0.962 . S
C702 H716 0.960 . S
C703 C700 1.511 . S
C703 H717 0.961 . S
C703 H718 0.961 . S
C703 H719 0.961 . S
C704 C705 1.370 . S
C704 C706 1.363 . S
C704 H720 0.931 . S
C705 C704 1.370 . S
C705 C709 1.408 . S
C706 C704 1.363 . S
C706 C707 1.370 . S
C706 C710 1.524 . S
C707 C699 1.503 . S
C707 C706 1.370 . S
C707 C708 1.403 . S
C708 C707 1.403 . S
C708 C709 1.404 . S
C708 C711 1.539 . S
C709 C705 1.408 . S
C709 C708 1.404 . S
C709 H721 0.930 . S
C710 C706 1.524 . S
C710 H722 0.956 . S
C710 H723 0.961 . S
C710 H724 0.961 . S
C711 C708 1.539 . S
C711 H725 0.958 . S
C711 H726 0.961 . S
C711 H727 0.960 . S
H712 C696 0.931 . S
H713 C701 0.929 . S
H714 C702 0.960 . S
H715 C702 0.962 . S
H716 C702 0.960 . S
H717 C703 0.961 . S
H718 C703 0.961 . S
H719 C703 0.961 . S
H720 C704 0.931 . S
H721 C709 0.930 . S
H722 C710 0.956 . S
H723 C710 0.961 . S
H724 C710 0.961 . S
H725 C711 0.958 . S
H726 C711 0.961 . S
H727 C711 0.960 . S
C728 C729 1.391 . S
C728 C730 1.394 1_565 S
C728 H744 0.931 . S
C729 C728 1.391 . S
C729 C733 1.376 . S
C730 C728 1.394 1_545 S
C730 C731 1.369 1_545 S
C730 C734 1.531 . S
C731 C730 1.369 1_565 S
C731 C732 1.410 . S
C731 C739 1.503 1_565 S
C732 C731 1.410 . S
C732 C733 1.392 . S
C732 C735 1.511 . S
C733 C729 1.376 . S
C733 C732 1.392 . S
C733 H745 0.929 . S
C734 C730 1.531 . S
C734 H746 0.960 . S
C734 H747 0.962 . S
C734 H748 0.960 . S
C735 C732 1.511 . S
C735 H749 0.961 . S
C735 H750 0.961 . S
C735 H751 0.961 . S
C736 C737 1.370 . S
C736 C738 1.363 . S
C736 H752 0.931 . S
C737 C736 1.370 . S
C737 C741 1.408 . S
C738 C736 1.363 . S
C738 C739 1.370 . S
C738 C742 1.524 1_545 S
C739 C731 1.503 1_545 S
C739 C738 1.370 . S
C739 C740 1.403 . S
C740 C739 1.403 . S
C740 C741 1.404 . S
C740 C743 1.539 . S
C741 C737 1.408 . S
C741 C740 1.404 . S
C741 H753 0.930 . S
C742 C738 1.524 1_565 S
C742 H754 0.956 1_565 S
C742 H755 0.961 . S
C742 H756 0.961 . S
C743 C740 1.539 . S
C743 H757 0.958 . S
C743 H758 0.961 . S
C743 H759 0.960 . S
H744 C728 0.931 . S
H745 C733 0.929 . S
H746 C734 0.960 . S
H747 C734 0.962 . S
H748 C734 0.960 . S
H749 C735 0.961 . S
H750 C735 0.961 . S
H751 C735 0.961 . S
H752 C736 0.931 . S
H753 C741 0.930 . S
H754 C742 0.956 1_545 S
H755 C742 0.961 . S
H756 C742 0.961 . S
H757 C743 0.958 . S
H758 C743 0.961 . S
H759 C743 0.960 . S
C760 C761 1.391 . S
C760 C762 1.394 . S
C760 H776 0.931 . S
C761 C760 1.391 . S
C761 C765 1.376 . S
C762 C760 1.394 . S
C762 C763 1.369 . S
C762 C766 1.531 1_556 S
C763 C762 1.369 . S
C763 C764 1.410 . S
C763 C771 1.503 1_556 S
C764 C763 1.410 . S
C764 C765 1.392 . S
C764 C767 1.511 . S
C765 C761 1.376 . S
C765 C764 1.392 . S
C765 H777 0.929 . S
C766 C762 1.531 1_554 S
C766 H778 0.960 . S
C766 H779 0.962 . S
C766 H780 0.960 . S
C767 C764 1.511 . S
C767 H781 0.961 . S
C767 H782 0.961 . S
C767 H783 0.961 . S
C768 C769 1.370 . S
C768 C770 1.363 . S
C768 H784 0.931 . S
C769 C768 1.370 . S
C769 C773 1.408 . S
C770 C768 1.363 . S
C770 C771 1.370 . S
C770 C774 1.516 1_554 S
C771 C763 1.503 1_554 S
C771 C770 1.370 . S
C771 C772 1.403 . S
C772 C771 1.403 . S
C772 C773 1.404 . S
C772 C775 1.539 . S
C773 C769 1.408 . S
C773 C772 1.404 . S
C773 H785 0.930 . S
C774 C770 1.516 1_556 S
C774 H786 0.950 1_556 S
C774 H787 0.980 . S
C774 H788 0.956 1_556 S
C775 C772 1.539 . S
C775 H789 0.958 . S
C775 H790 0.961 . S
C775 H791 0.960 1_554 S
H776 C760 0.931 . S
H777 C765 0.929 . S
H778 C766 0.960 . S
H779 C766 0.962 . S
H780 C766 0.960 . S
H781 C767 0.961 . S
H782 C767 0.961 . S
H783 C767 0.961 . S
H784 C768 0.931 . S
H785 C773 0.930 . S
H786 C774 0.950 1_554 S
H787 C774 0.980 . S
H788 C774 0.956 1_554 S
H789 C775 0.958 . S
H790 C775 0.961 . S
H791 C775 0.960 1_556 S
C792 C793 1.391 . S
C792 C794 1.394 . S
C792 H808 0.931 . S
C793 C792 1.391 . S
C793 C797 1.376 . S
C794 C792 1.394 . S
C794 C795 1.369 . S
C794 C798 1.531 1_545 S
C795 C794 1.369 . S
C795 C796 1.410 . S
C795 C803 1.503 1_545 S
C796 C795 1.410 . S
C796 C797 1.392 . S
C796 C799 1.511 . S
C797 C793 1.376 . S
C797 C796 1.392 . S
C797 H809 0.929 . S
C798 C794 1.531 1_565 S
C798 H810 0.960 . S
C798 H811 0.962 . S
C798 H812 0.960 . S
C799 C796 1.511 . S
C799 H813 0.961 . S
C799 H814 0.961 . S
C799 H815 0.961 . S
C800 C801 1.370 . S
C800 C802 1.363 . S
C800 H816 0.931 . S
C801 C800 1.370 . S
C801 C805 1.408 . S
C802 C800 1.363 . S
C802 C803 1.370 . S
C802 C806 1.524 . S
C803 C795 1.503 1_565 S
C803 C802 1.370 . S
C803 C804 1.403 . S
C804 C803 1.403 . S
C804 C805 1.404 . S
C804 C807 1.539 1_565 S
C805 C801 1.408 . S
C805 C804 1.404 . S
C805 H817 0.930 . S
C806 C802 1.524 . S
C806 H818 0.956 . S
C806 H819 0.961 . S
C806 H820 0.961 . S
C807 C804 1.539 1_545 S
C807 H821 0.958 . S
C807 H822 0.961 . S
C807 H823 0.960 . S
H808 C792 0.931 . S
H809 C797 0.929 . S
H810 C798 0.960 . S
H811 C798 0.962 . S
H812 C798 0.960 . S
H813 C799 0.961 . S
H814 C799 0.961 . S
H815 C799 0.961 . S
H816 C800 0.931 . S
H817 C805 0.930 . S
H818 C806 0.956 . S
H819 C806 0.961 . S
H820 C806 0.961 . S
H821 C807 0.958 . S
H822 C807 0.961 . S
H823 C807 0.960 . S
C824 C825 1.391 . S
C824 C826 1.394 . S
C824 H840 0.931 . S
C825 C824 1.391 . S
C825 C829 1.376 . S
C826 C824 1.394 . S
C826 C827 1.369 . S
C826 C830 1.531 . S
C827 C826 1.369 . S
C827 C828 1.410 . S
C827 C835 1.503 . S
C828 C827 1.410 . S
C828 C829 1.392 . S
C828 C831 1.511 . S
C829 C825 1.376 . S
C829 C828 1.392 . S
C829 H841 0.929 . S
C830 C826 1.531 . S
C830 H842 0.960 . S
C830 H843 0.962 . S
C830 H844 0.960 . S
C831 C828 1.511 . S
C831 H845 0.961 . S
C831 H846 0.961 . S
C831 H847 0.961 . S
C832 C833 1.370 . S
C832 C834 1.363 . S
C832 H848 0.931 . S
C833 C832 1.370 . S
C833 C837 1.408 . S
C834 C832 1.363 . S
C834 C835 1.370 . S
C834 C838 1.524 . S
C835 C827 1.503 . S
C835 C834 1.370 . S
C835 C836 1.403 . S
C836 C835 1.403 . S
C836 C837 1.404 . S
C836 C839 1.539 . S
C837 C833 1.408 . S
C837 C836 1.404 . S
C837 H849 0.930 . S
C838 C834 1.524 . S
C838 H850 0.956 . S
C838 H851 0.961 . S
C838 H852 0.961 . S
C839 C836 1.539 . S
C839 H853 0.958 . S
C839 H854 0.961 . S
C839 H855 0.960 . S
H840 C824 0.931 . S
H841 C829 0.929 . S
H842 C830 0.960 . S
H843 C830 0.962 . S
H844 C830 0.960 . S
H845 C831 0.961 . S
H846 C831 0.961 . S
H847 C831 0.961 . S
H848 C832 0.931 . S
H849 C837 0.930 . S
H850 C838 0.956 . S
H851 C838 0.961 . S
H852 C838 0.961 . S
H853 C839 0.958 . S
H854 C839 0.961 . S
H855 C839 0.960 . S
C856 C857 1.391 . S
C856 C858 1.394 . S
C856 H872 0.931 . S
C857 C856 1.391 . S
C857 C861 1.376 . S
C858 C856 1.394 . S
C858 C859 1.369 . S
C858 C862 1.531 . S
C859 C858 1.369 . S
C859 C860 1.410 . S
C859 C867 1.503 . S
C860 C859 1.410 . S
C860 C861 1.392 . S
C860 C863 1.511 . S
C861 C857 1.376 . S
C861 C860 1.392 . S
C861 H873 0.929 . S
C862 C858 1.531 . S
C862 H874 0.960 . S
C862 H875 0.962 . S
C862 H876 0.960 . S
C863 C860 1.511 . S
C863 H877 0.961 . S
C863 H878 0.961 . S
C863 H879 0.961 . S
C864 C865 1.370 . S
C864 C866 1.363 . S
C864 H880 0.931 . S
C865 C864 1.370 . S
C865 C869 1.408 . S
C866 C864 1.363 . S
C866 C867 1.370 . S
C866 C870 1.524 . S
C867 C859 1.503 . S
C867 C866 1.370 . S
C867 C868 1.403 . S
C868 C867 1.403 . S
C868 C869 1.404 . S
C868 C871 1.539 . S
C869 C865 1.408 . S
C869 C868 1.404 . S
C869 H881 0.930 . S
C870 C866 1.524 . S
C870 H882 0.956 . S
C870 H883 0.961 . S
C870 H884 0.961 . S
C871 C868 1.539 . S
C871 H885 0.958 . S
C871 H886 0.961 . S
C871 H887 0.960 . S
H872 C856 0.931 . S
H873 C861 0.929 . S
H874 C862 0.960 . S
H875 C862 0.962 . S
H876 C862 0.960 . S
H877 C863 0.961 . S
H878 C863 0.961 . S
H879 C863 0.961 . S
H880 C864 0.931 . S
H881 C869 0.930 . S
H882 C870 0.956 . S
H883 C870 0.961 . S
H884 C870 0.961 . S
H885 C871 0.958 . S
H886 C871 0.961 . S
H887 C871 0.960 . S
C888 C889 1.391 . S
C888 C890 1.394 . S
C888 H904 0.931 . S
C889 C888 1.391 . S
C889 C893 1.376 . S
C890 C888 1.394 . S
C890 C891 1.369 . S
C890 C894 1.531 . S
C891 C890 1.369 . S
C891 C892 1.410 1_556 S
C891 C899 1.503 1_556 S
C892 C891 1.410 1_554 S
C892 C893 1.392 1_554 S
C892 C895 1.511 . S
C893 C889 1.376 . S
C893 C892 1.392 1_556 S
C893 H905 0.929 . S
C894 C890 1.531 . S
C894 H906 0.960 . S
C894 H907 0.962 . S
C894 H908 0.960 . S
C895 C892 1.511 . S
C895 H909 0.961 . S
C895 H910 0.961 . S
C895 H911 0.961 . S
C896 C897 1.370 . S
C896 C898 1.363 . S
C896 H912 0.931 . S
C897 C896 1.370 . S
C897 C901 1.408 . S
C898 C896 1.363 . S
C898 C899 1.370 . S
C898 C902 1.524 1_554 S
C899 C891 1.503 1_554 S
C899 C898 1.370 . S
C899 C900 1.403 . S
C900 C899 1.403 . S
C900 C901 1.404 . S
C900 C903 1.539 . S
C901 C897 1.408 . S
C901 C900 1.404 . S
C901 H913 0.930 . S
C902 C898 1.524 1_556 S
C902 H914 0.956 . S
C902 H915 0.960 1_556 S
C902 H916 0.961 1_556 S
C903 C900 1.539 . S
C903 H917 0.958 . S
C903 H918 0.961 . S
C903 H919 0.960 . S
H904 C888 0.931 . S
H905 C893 0.929 . S
H906 C894 0.960 . S
H907 C894 0.962 . S
H908 C894 0.960 . S
H909 C895 0.961 . S
H910 C895 0.961 . S
H911 C895 0.961 . S
H912 C896 0.931 . S
H913 C901 0.930 . S
H914 C902 0.956 . S
H915 C902 0.960 1_554 S
H916 C902 0.961 1_554 S
H917 C903 0.958 . S
H918 C903 0.961 . S
H919 C903 0.960 . S
C920 C921 1.391 . S
C920 C922 1.394 . S
C920 H936 0.931 . S
C921 C920 1.391 . S
C921 C925 1.376 . S
C922 C920 1.394 . S
C922 C923 1.369 . S
C922 C926 1.531 . S
C923 C922 1.369 . S
C923 C924 1.410 . S
C923 C931 1.503 . S
C924 C923 1.410 . S
C924 C925 1.392 . S
C924 C927 1.511 . S
C925 C921 1.376 . S
C925 C924 1.392 . S
C925 H937 0.929 . S
C926 C922 1.531 . S
C926 H938 0.960 . S
C926 H939 0.962 . S
C926 H940 0.960 . S
C927 C924 1.511 . S
C927 H941 0.961 . S
C927 H942 0.961 . S
C927 H943 0.961 . S
C928 C929 1.370 . S
C928 C930 1.363 . S
C928 H944 0.931 . S
C929 C928 1.370 . S
C929 C933 1.408 . S
C930 C928 1.363 . S
C930 C931 1.370 . S
C930 C934 1.524 . S
C931 C923 1.503 . S
C931 C930 1.370 . S
C931 C932 1.403 . S
C932 C931 1.403 . S
C932 C933 1.404 . S
C932 C935 1.539 . S
C933 C929 1.408 . S
C933 C932 1.404 . S
C933 H945 0.930 . S
C934 C930 1.524 . S
C934 H946 0.956 . S
C934 H947 0.961 . S
C934 H948 0.961 . S
C935 C932 1.539 . S
C935 H949 0.958 . S
C935 H950 0.961 . S
C935 H951 0.960 . S
H936 C920 0.931 . S
H937 C925 0.929 . S
H938 C926 0.960 . S
H939 C926 0.962 . S
H940 C926 0.960 . S
H941 C927 0.961 . S
H942 C927 0.961 . S
H943 C927 0.961 . S
H944 C928 0.931 . S
H945 C933 0.930 . S
H946 C934 0.956 . S
H947 C934 0.961 . S
H948 C934 0.961 . S
H949 C935 0.958 . S
H950 C935 0.961 . S
H951 C935 0.960 . S
C952 C953 1.391 . S
C952 C954 1.394 . S
C952 H968 0.931 . S
C953 C952 1.391 . S
C953 C957 1.376 . S
C954 C952 1.394 . S
C954 C955 1.369 . S
C954 C958 1.531 . S
C955 C954 1.369 . S
C955 C956 1.410 . S
C955 C963 1.503 . S
C956 C955 1.410 . S
C956 C957 1.392 . S
C956 C959 1.511 . S
C957 C953 1.376 . S
C957 C956 1.392 . S
C957 H969 0.929 . S
C958 C954 1.531 . S
C958 H970 0.960 . S
C958 H971 0.962 . S
C958 H972 0.960 . S
C959 C956 1.511 . S
C959 H973 0.961 . S
C959 H974 0.961 . S
C959 H975 0.961 . S
C960 C961 1.370 . S
C960 C962 1.363 . S
C960 H976 0.931 . S
C961 C960 1.370 . S
C961 C965 1.408 . S
C962 C960 1.363 . S
C962 C963 1.370 . S
C962 C966 1.524 . S
C963 C955 1.503 . S
C963 C962 1.370 . S
C963 C964 1.403 . S
C964 C963 1.403 . S
C964 C965 1.404 . S
C964 C967 1.539 . S
C965 C961 1.408 . S
C965 C964 1.404 . S
C965 H977 0.930 . S
C966 C962 1.524 . S
C966 H978 0.956 . S
C966 H979 0.961 . S
C966 H980 0.961 . S
C967 C964 1.539 . S
C967 H981 0.958 . S
C967 H982 0.961 . S
C967 H983 0.960 . S
H968 C952 0.931 . S
H969 C957 0.929 . S
H970 C958 0.960 . S
H971 C958 0.962 . S
H972 C958 0.960 . S
H973 C959 0.961 . S
H974 C959 0.961 . S
H975 C959 0.961 . S
H976 C960 0.931 . S
H977 C965 0.930 . S
H978 C966 0.956 . S
H979 C966 0.961 . S
H980 C966 0.961 . S
H981 C967 0.958 . S
H982 C967 0.961 . S
H983 C967 0.960 . S
C984 C985 1.391 . S
C984 C986 1.419 . S
C984 H1000 0.931 . S
C985 C984 1.391 . S
C985 C989 1.376 . S
C986 C984 1.419 . S
C986 C987 1.380 . S
C986 C990 1.494 1_455 S
C987 C986 1.380 . S
C987 C988 1.410 . S
C987 C995 1.503 1_455 S
C988 C987 1.410 . S
C988 C989 1.392 . S
C988 C991 1.511 . S
C989 C985 1.376 . S
C989 C988 1.392 . S
C989 H1001 0.929 . S
C990 C986 1.494 1_655 S
C990 H1002 0.960 . S
C990 H1003 0.962 . S
C990 H1004 0.960 . S
C991 C988 1.511 . S
C991 H1005 0.961 . S
C991 H1006 0.961 . S
C991 H1007 0.961 . S
C992 C993 1.370 . S
C992 C994 1.363 . S
C992 H1008 0.931 . S
C993 C992 1.370 . S
C993 C997 1.408 . S
C994 C992 1.363 . S
C994 C995 1.370 . S
C994 C998 1.524 . S
C995 C987 1.503 1_655 S
C995 C994 1.370 . S
C995 C996 1.403 . S
C996 C995 1.403 . S
C996 C997 1.404 . S
C996 C999 1.539 1_655 S
C997 C993 1.408 . S
C997 C996 1.404 . S
C997 H1009 0.930 . S
C998 C994 1.524 . S
C998 H1010 0.956 . S
C998 H1011 0.961 . S
C998 H1012 0.961 . S
C999 C996 1.539 1_455 S
C999 H1013 0.958 1_455 S
C999 H1014 0.961 . S
C999 H1015 0.960 . S
H1000 C984 0.931 . S
H1001 C989 0.929 . S
H1002 C990 0.960 . S
H1003 C990 0.962 . S
H1004 C990 0.960 . S
H1005 C991 0.961 . S
H1006 C991 0.961 . S
H1007 C991 0.961 . S
H1008 C992 0.931 . S
H1009 C997 0.930 . S
H1010 C998 0.956 . S
H1011 C998 0.961 . S
H1012 C998 0.961 . S
H1013 C999 0.958 1_655 S
H1014 C999 0.961 . S
H1015 C999 0.960 . S
C1016 C1017 1.391 . S
C1016 C1018 1.394 1_655 S
C1016 H1032 0.931 . S
C1017 C1016 1.391 . S
C1017 C1021 1.376 . S
C1018 C1016 1.394 1_455 S
C1018 C1019 1.369 1_455 S
C1018 C1022 1.531 . S
C1019 C1018 1.369 1_655 S
C1019 C1020 1.410 . S
C1019 C1027 1.503 1_655 S
C1020 C1019 1.410 . S
C1020 C1021 1.392 . S
C1020 C1023 1.511 . S
C1021 C1017 1.376 . S
C1021 C1020 1.392 . S
C1021 H1033 0.929 . S
C1022 C1018 1.531 . S
C1022 H1034 0.960 . S
C1022 H1035 0.962 . S
C1022 H1036 0.960 . S
C1023 C1020 1.511 . S
C1023 H1037 0.961 . S
C1023 H1038 0.961 . S
C1023 H1039 0.961 . S
C1024 C1025 1.370 . S
C1024 C1026 1.363 . S
C1024 H1040 0.931 . S
C1025 C1024 1.370 . S
C1025 C1029 1.408 . S
C1026 C1024 1.363 . S
C1026 C1027 1.370 . S
C1026 C1030 1.524 1_455 S
C1027 C1019 1.503 1_455 S
C1027 C1026 1.370 . S
C1027 C1028 1.403 . S
C1028 C1027 1.403 . S
C1028 C1029 1.404 . S
C1028 C1031 1.539 . S
C1029 C1025 1.408 . S
C1029 C1028 1.404 . S
C1029 H1041 0.930 . S
C1030 C1026 1.524 1_655 S
C1030 H1042 0.953 1_655 S
C1030 H1043 0.961 . S
C1030 H1044 0.961 . S
C1031 C1028 1.539 . S
C1031 H1045 0.958 . S
C1031 H1046 0.961 . S
C1031 H1047 0.960 . S
H1032 C1016 0.931 . S
H1033 C1021 0.929 . S
H1034 C1022 0.960 . S
H1035 C1022 0.962 . S
H1036 C1022 0.960 . S
H1037 C1023 0.961 . S
H1038 C1023 0.961 . S
H1039 C1023 0.961 . S
H1040 C1024 0.931 . S
H1041 C1029 0.930 . S
H1042 C1030 0.953 1_455 S
H1043 C1030 0.961 . S
H1044 C1030 0.961 . S
H1045 C1031 0.958 . S
H1046 C1031 0.961 . S
H1047 C1031 0.960 . S
C1048 C1049 1.391 . S
C1048 C1050 1.394 . S
C1048 H1064 0.931 . S
C1049 C1048 1.391 . S
C1049 C1053 1.376 . S
C1050 C1048 1.394 . S
C1050 C1051 1.369 . S
C1050 C1054 1.531 . S
C1051 C1050 1.369 . S
C1051 C1052 1.410 . S
C1051 C1059 1.503 . S
C1052 C1051 1.410 . S
C1052 C1053 1.392 . S
C1052 C1055 1.511 . S
C1053 C1049 1.376 . S
C1053 C1052 1.392 . S
C1053 H1065 0.929 . S
C1054 C1050 1.531 . S
C1054 H1066 0.960 . S
C1054 H1067 0.962 . S
C1054 H1068 0.960 . S
C1055 C1052 1.511 . S
C1055 H1069 0.961 . S
C1055 H1070 0.961 . S
C1055 H1071 0.961 . S
C1056 C1057 1.370 . S
C1056 C1058 1.363 . S
C1056 H1072 0.931 . S
C1057 C1056 1.370 . S
C1057 C1061 1.408 . S
C1058 C1056 1.363 . S
C1058 C1059 1.370 . S
C1058 C1062 1.524 . S
C1059 C1051 1.503 . S
C1059 C1058 1.370 . S
C1059 C1060 1.403 . S
C1060 C1059 1.403 . S
C1060 C1061 1.404 . S
C1060 C1063 1.539 . S
C1061 C1057 1.408 . S
C1061 C1060 1.404 . S
C1061 H1073 0.930 . S
C1062 C1058 1.524 . S
C1062 H1074 0.956 . S
C1062 H1075 0.961 . S
C1062 H1076 0.961 . S
C1063 C1060 1.539 . S
C1063 H1077 0.958 . S
C1063 H1078 0.961 . S
C1063 H1079 0.960 . S
H1064 C1048 0.931 . S
H1065 C1053 0.929 . S
H1066 C1054 0.960 . S
H1067 C1054 0.962 . S
H1068 C1054 0.960 . S
H1069 C1055 0.961 . S
H1070 C1055 0.961 . S
H1071 C1055 0.961 . S
H1072 C1056 0.931 . S
H1073 C1061 0.930 . S
H1074 C1062 0.956 . S
H1075 C1062 0.961 . S
H1076 C1062 0.961 . S
H1077 C1063 0.958 . S
H1078 C1063 0.961 . S
H1079 C1063 0.960 . S
C1080 C1081 1.391 . S
C1080 C1082 1.394 . S
C1080 H1096 0.931 . S
C1081 C1080 1.391 . S
C1081 C1085 1.376 . S
C1082 C1080 1.394 . S
C1082 C1083 1.369 . S
C1082 C1086 1.531 . S
C1083 C1082 1.369 . S
C1083 C1084 1.410 . S
C1083 C1091 1.503 . S
C1084 C1083 1.410 . S
C1084 C1085 1.392 . S
C1084 C1087 1.511 . S
C1085 C1081 1.376 . S
C1085 C1084 1.392 . S
C1085 H1097 0.929 . S
C1086 C1082 1.531 . S
C1086 H1098 0.960 . S
C1086 H1099 0.962 . S
C1086 H1100 0.960 . S
C1087 C1084 1.511 . S
C1087 H1101 0.961 . S
C1087 H1102 0.961 . S
C1087 H1103 0.961 . S
C1088 C1089 1.370 . S
C1088 C1090 1.363 . S
C1088 H1104 0.931 . S
C1089 C1088 1.370 . S
C1089 C1093 1.408 . S
C1090 C1088 1.363 . S
C1090 C1091 1.370 . S
C1090 C1094 1.524 . S
C1091 C1083 1.503 . S
C1091 C1090 1.370 . S
C1091 C1092 1.403 . S
C1092 C1091 1.403 . S
C1092 C1093 1.404 . S
C1092 C1095 1.539 . S
C1093 C1089 1.408 . S
C1093 C1092 1.404 . S
C1093 H1105 0.930 . S
C1094 C1090 1.524 . S
C1094 H1106 0.956 . S
C1094 H1107 0.961 . S
C1094 H1108 0.961 . S
C1095 C1092 1.539 . S
C1095 H1109 0.958 . S
C1095 H1110 0.961 . S
C1095 H1111 0.960 . S
H1096 C1080 0.931 . S
H1097 C1085 0.929 . S
H1098 C1086 0.960 . S
H1099 C1086 0.962 . S
H1100 C1086 0.960 . S
H1101 C1087 0.961 . S
H1102 C1087 0.961 . S
H1103 C1087 0.961 . S
H1104 C1088 0.931 . S
H1105 C1093 0.930 . S
H1106 C1094 0.956 . S
H1107 C1094 0.961 . S
H1108 C1094 0.961 . S
H1109 C1095 0.958 . S
H1110 C1095 0.961 . S
H1111 C1095 0.960 . S
C1112 C1113 1.391 . S
C1112 C1114 1.394 1_545 S
C1112 H1128 0.931 . S
C1113 C1112 1.391 . S
C1113 C1117 1.376 1_545 S
C1114 C1112 1.394 1_565 S
C1114 C1115 1.369 . S
C1114 C1118 1.531 . S
C1115 C1114 1.369 . S
C1115 C1116 1.410 . S
C1115 C1123 1.503 . S
C1116 C1115 1.410 . S
C1116 C1117 1.392 . S
C1116 C1119 1.511 . S
C1117 C1113 1.376 1_565 S
C1117 C1116 1.392 . S
C1117 H1129 0.929 . S
C1118 C1114 1.531 . S
C1118 H1130 0.960 . S
C1118 H1131 0.962 1_565 S
C1118 H1132 0.960 . S
C1119 C1116 1.511 . S
C1119 H1133 0.961 . S
C1119 H1134 0.961 . S
C1119 H1135 0.961 . S
C1120 C1121 1.370 . S
C1120 C1122 1.363 . S
C1120 H1136 0.931 . S
C1121 C1120 1.370 . S
C1121 C1125 1.408 . S
C1122 C1120 1.363 . S
C1122 C1123 1.370 . S
C1122 C1126 1.524 1_565 S
C1123 C1115 1.503 . S
C1123 C1122 1.370 . S
C1123 C1124 1.403 . S
C1124 C1123 1.403 . S
C1124 C1125 1.404 . S
C1124 C1127 1.539 . S
C1125 C1121 1.408 . S
C1125 C1124 1.404 . S
C1125 H1137 0.930 . S
C1126 C1122 1.524 1_545 S
C1126 H1138 0.956 . S
C1126 H1139 0.961 . S
C1126 H1140 0.961 . S
C1127 C1124 1.539 . S
C1127 H1141 0.958 . S
C1127 H1142 0.961 . S
C1127 H1143 0.960 . S
H1128 C1112 0.931 . S
H1129 C1117 0.929 . S
H1130 C1118 0.960 . S
H1131 C1118 0.962 1_545 S
H1132 C1118 0.960 . S
H1133 C1119 0.961 . S
H1134 C1119 0.961 . S
H1135 C1119 0.961 . S
H1136 C1120 0.931 . S
H1137 C1125 0.930 . S
H1138 C1126 0.956 . S
H1139 C1126 0.961 . S
H1140 C1126 0.961 . S
H1141 C1127 0.958 . S
H1142 C1127 0.961 . S
H1143 C1127 0.960 . S
C1144 C1145 1.391 . S
C1144 C1146 1.394 . S
C1144 H1160 0.931 . S
C1145 C1144 1.391 . S
C1145 C1149 1.376 . S
C1146 C1144 1.394 . S
C1146 C1147 1.369 . S
C1146 C1150 1.531 . S
C1147 C1146 1.369 . S
C1147 C1148 1.410 . S
C1147 C1155 1.503 . S
C1148 C1147 1.410 . S
C1148 C1149 1.392 . S
C1148 C1151 1.511 . S
C1149 C1145 1.376 . S
C1149 C1148 1.392 . S
C1149 H1161 0.929 . S
C1150 C1146 1.531 . S
C1150 H1162 0.960 . S
C1150 H1163 0.962 . S
C1150 H1164 0.960 . S
C1151 C1148 1.511 . S
C1151 H1165 0.961 . S
C1151 H1166 0.961 . S
C1151 H1167 0.961 . S
C1152 C1153 1.370 . S
C1152 C1154 1.363 . S
C1152 H1168 0.931 . S
C1153 C1152 1.370 . S
C1153 C1157 1.408 . S
C1154 C1152 1.363 . S
C1154 C1155 1.370 . S
C1154 C1158 1.524 . S
C1155 C1147 1.503 . S
C1155 C1154 1.370 . S
C1155 C1156 1.403 . S
C1156 C1155 1.403 . S
C1156 C1157 1.404 . S
C1156 C1159 1.539 . S
C1157 C1153 1.408 . S
C1157 C1156 1.404 . S
C1157 H1169 0.930 . S
C1158 C1154 1.524 . S
C1158 H1170 0.956 . S
C1158 H1171 0.961 . S
C1158 H1172 0.961 . S
C1159 C1156 1.539 . S
C1159 H1173 0.958 . S
C1159 H1174 0.961 . S
C1159 H1175 0.960 . S
H1160 C1144 0.931 . S
H1161 C1149 0.929 . S
H1162 C1150 0.960 . S
H1163 C1150 0.962 . S
H1164 C1150 0.960 . S
H1165 C1151 0.961 . S
H1166 C1151 0.961 . S
H1167 C1151 0.961 . S
H1168 C1152 0.931 . S
H1169 C1157 0.930 . S
H1170 C1158 0.956 . S
H1171 C1158 0.961 . S
H1172 C1158 0.961 . S
H1173 C1159 0.958 . S
H1174 C1159 0.961 . S
H1175 C1159 0.960 . S
C1176 C1177 1.391 . S
C1176 C1178 1.394 . S
C1176 H1192 0.931 . S
C1177 C1176 1.391 . S
C1177 C1181 1.376 . S
C1178 C1176 1.394 . S
C1178 C1179 1.369 . S
C1178 C1182 1.531 . S
C1179 C1178 1.369 . S
C1179 C1180 1.410 . S
C1179 C1187 1.503 . S
C1180 C1179 1.410 . S
C1180 C1181 1.392 . S
C1180 C1183 1.511 . S
C1181 C1177 1.376 . S
C1181 C1180 1.392 . S
C1181 H1193 0.929 . S
C1182 C1178 1.531 . S
C1182 H1194 0.960 . S
C1182 H1195 0.962 . S
C1182 H1196 0.960 . S
C1183 C1180 1.511 . S
C1183 H1197 0.961 . S
C1183 H1198 0.961 . S
C1183 H1199 0.961 . S
C1184 C1185 1.370 . S
C1184 C1186 1.363 1_556 S
C1184 H1200 0.931 . S
C1185 C1184 1.370 . S
C1185 C1189 1.408 1_565 S
C1186 C1184 1.363 1_554 S
C1186 C1187 1.370 1_565 S
C1186 C1190 1.524 . S
C1187 C1179 1.503 . S
C1187 C1186 1.370 1_545 S
C1187 C1188 1.403 . S
C1188 C1187 1.403 . S
C1188 C1189 1.404 1_554 S
C1188 C1191 1.539 . S
C1189 C1185 1.408 1_545 S
C1189 C1188 1.404 1_556 S
C1189 H1201 0.930 . S
C1190 C1186 1.524 . S
C1190 H1202 0.956 . S
C1190 H1203 0.961 . S
C1190 H1204 0.961 . S
C1191 C1188 1.539 . S
C1191 H1205 0.958 1_554 S
C1191 H1206 0.961 1_554 S
C1191 H1207 0.960 . S
H1192 C1176 0.931 . S
H1193 C1181 0.929 . S
H1194 C1182 0.960 . S
H1195 C1182 0.962 . S
H1196 C1182 0.960 . S
H1197 C1183 0.961 . S
H1198 C1183 0.961 . S
H1199 C1183 0.961 . S
H1200 C1184 0.931 . S
H1201 C1189 0.930 . S
H1202 C1190 0.956 . S
H1203 C1190 0.961 . S
H1204 C1190 0.961 . S
H1205 C1191 0.958 1_556 S
H1206 C1191 0.961 1_556 S
H1207 C1191 0.960 . S
C1208 C1209 1.391 . S
C1208 C1210 1.394 . S
C1208 H1224 0.931 . S
C1209 C1208 1.391 . S
C1209 C1213 1.376 . S
C1210 C1208 1.394 . S
C1210 C1211 1.369 . S
C1210 C1214 1.531 . S
C1211 C1210 1.369 . S
C1211 C1212 1.410 . S
C1211 C1219 1.503 . S
C1212 C1211 1.410 . S
C1212 C1213 1.392 . S
C1212 C1215 1.511 . S
C1213 C1209 1.376 . S
C1213 C1212 1.392 . S
C1213 H1225 0.929 . S
C1214 C1210 1.531 . S
C1214 H1226 0.960 . S
C1214 H1227 0.962 . S
C1214 H1228 0.960 . S
C1215 C1212 1.511 . S
C1215 H1229 0.961 . S
C1215 H1230 0.961 . S
C1215 H1231 0.961 . S
C1216 C1217 1.370 . S
C1216 C1218 1.363 . S
C1216 H1232 0.931 . S
C1217 C1216 1.370 . S
C1217 C1221 1.408 . S
C1218 C1216 1.363 . S
C1218 C1219 1.370 . S
C1218 C1222 1.524 . S
C1219 C1211 1.503 . S
C1219 C1218 1.370 . S
C1219 C1220 1.403 . S
C1220 C1219 1.403 . S
C1220 C1221 1.404 . S
C1220 C1223 1.539 . S
C1221 C1217 1.408 . S
C1221 C1220 1.404 . S
C1221 H1233 0.930 . S
C1222 C1218 1.524 . S
C1222 H1234 0.956 . S
C1222 H1235 0.961 . S
C1222 H1236 0.961 . S
C1223 C1220 1.539 . S
C1223 H1237 0.958 . S
C1223 H1238 0.961 . S
C1223 H1239 0.960 . S
H1224 C1208 0.931 . S
H1225 C1213 0.929 . S
H1226 C1214 0.960 . S
H1227 C1214 0.962 . S
H1228 C1214 0.960 . S
H1229 C1215 0.961 . S
H1230 C1215 0.961 . S
H1231 C1215 0.961 . S
H1232 C1216 0.931 . S
H1233 C1221 0.930 . S
H1234 C1222 0.956 . S
H1235 C1222 0.961 . S
H1236 C1222 0.961 . S
H1237 C1223 0.958 . S
H1238 C1223 0.961 . S
H1239 C1223 0.960 . S
C1240 C1241 1.391 . S
C1240 C1242 1.394 1_554 S
C1240 H1256 0.931 . S
C1241 C1240 1.391 . S
C1241 C1245 1.376 . S
C1242 C1240 1.394 1_556 S
C1242 C1243 1.369 . S
C1242 C1246 1.531 . S
C1243 C1242 1.369 . S
C1243 C1244 1.410 . S
C1243 C1251 1.503 . S
C1244 C1243 1.410 . S
C1244 C1245 1.392 1_556 S
C1244 C1247 1.511 . S
C1245 C1241 1.376 . S
C1245 C1244 1.392 1_554 S
C1245 H1257 0.929 . S
C1246 C1242 1.531 . S
C1246 H1258 0.960 . S
C1246 H1259 0.962 . S
C1246 H1260 0.960 . S
C1247 C1244 1.511 . S
C1247 H1261 0.961 . S
C1247 H1262 0.961 . S
C1247 H1263 0.961 . S
C1248 C1249 1.370 . S
C1248 C1250 1.363 . S
C1248 H1264 0.931 . S
C1249 C1248 1.370 . S
C1249 C1253 1.408 . S
C1250 C1248 1.363 . S
C1250 C1251 1.370 . S
C1250 C1254 1.524 . S
C1251 C1243 1.503 . S
C1251 C1250 1.370 . S
C1251 C1252 1.403 . S
C1252 C1251 1.403 . S
C1252 C1253 1.404 . S
C1252 C1255 1.539 . S
C1253 C1249 1.408 . S
C1253 C1252 1.404 . S
C1253 H1265 0.930 . S
C1254 C1250 1.524 . S
C1254 H1266 0.956 . S
C1254 H1267 0.961 . S
C1254 H1268 0.961 . S
C1255 C1252 1.539 . S
C1255 H1269 0.958 . S
C1255 H1270 0.961 . S
C1255 H1271 0.960 . S
H1256 C1240 0.931 . S
H1257 C1245 0.929 . S
H1258 C1246 0.960 . S
H1259 C1246 0.962 . S
H1260 C1246 0.960 . S
H1261 C1247 0.961 . S
H1262 C1247 0.961 . S
H1263 C1247 0.961 . S
H1264 C1248 0.931 . S
H1265 C1253 0.930 . S
H1266 C1254 0.956 . S
H1267 C1254 0.961 . S
H1268 C1254 0.961 . S
H1269 C1255 0.958 . S
H1270 C1255 0.961 . S
H1271 C1255 0.960 . S
C1272 C1273 1.391 . S
C1272 C1274 1.394 . S
C1272 H1288 0.931 . S
C1273 C1272 1.391 . S
C1273 C1277 1.376 . S
C1274 C1272 1.394 . S
C1274 C1275 1.369 . S
C1274 C1278 1.531 . S
C1275 C1274 1.369 . S
C1275 C1276 1.410 . S
C1275 C1283 1.503 . S
C1276 C1275 1.410 . S
C1276 C1277 1.392 . S
C1276 C1279 1.511 . S
C1277 C1273 1.376 . S
C1277 C1276 1.392 . S
C1277 H1289 0.929 . S
C1278 C1274 1.531 . S
C1278 H1290 0.960 . S
C1278 H1291 0.962 . S
C1278 H1292 0.960 . S
C1279 C1276 1.511 . S
C1279 H1293 0.961 . S
C1279 H1294 0.961 . S
C1279 H1295 0.961 . S
C1280 C1281 1.370 . S
C1280 C1282 1.363 . S
C1280 H1296 0.931 . S
C1281 C1280 1.370 . S
C1281 C1285 1.408 . S
C1282 C1280 1.363 . S
C1282 C1283 1.370 . S
C1282 C1286 1.524 . S
C1283 C1275 1.503 . S
C1283 C1282 1.370 . S
C1283 C1284 1.403 . S
C1284 C1283 1.403 . S
C1284 C1285 1.404 . S
C1284 C1287 1.539 . S
C1285 C1281 1.408 . S
C1285 C1284 1.404 . S
C1285 H1297 0.930 . S
C1286 C1282 1.524 . S
C1286 H1298 0.956 . S
C1286 H1299 0.961 . S
C1286 H1300 0.961 . S
C1287 C1284 1.539 . S
C1287 H1301 0.958 . S
C1287 H1302 0.961 . S
C1287 H1303 0.960 . S
H1288 C1272 0.931 . S
H1289 C1277 0.929 . S
H1290 C1278 0.960 . S
H1291 C1278 0.962 . S
H1292 C1278 0.960 . S
H1293 C1279 0.961 . S
H1294 C1279 0.961 . S
H1295 C1279 0.961 . S
H1296 C1280 0.931 . S
H1297 C1285 0.930 . S
H1298 C1286 0.956 . S
H1299 C1286 0.961 . S
H1300 C1286 0.961 . S
H1301 C1287 0.958 . S
H1302 C1287 0.961 . S
H1303 C1287 0.960 . S
C1304 C1305 1.391 . S
C1304 C1306 1.394 . S
C1304 H1320 0.931 . S
C1305 C1304 1.391 . S
C1305 C1309 1.376 . S
C1306 C1304 1.394 . S
C1306 C1307 1.369 . S
C1306 C1310 1.531 . S
C1307 C1306 1.369 . S
C1307 C1308 1.410 . S
C1307 C1315 1.503 . S
C1308 C1307 1.410 . S
C1308 C1309 1.392 . S
C1308 C1311 1.511 . S
C1309 C1305 1.376 . S
C1309 C1308 1.392 . S
C1309 H1321 0.929 . S
C1310 C1306 1.531 . S
C1310 H1322 0.960 . S
C1310 H1323 0.962 . S
C1310 H1324 0.960 . S
C1311 C1308 1.511 . S
C1311 H1325 0.961 . S
C1311 H1326 0.961 . S
C1311 H1327 0.961 . S
C1312 C1313 1.370 . S
C1312 C1314 1.363 . S
C1312 H1328 0.931 . S
C1313 C1312 1.370 . S
C1313 C1317 1.408 . S
C1314 C1312 1.363 . S
C1314 C1315 1.370 . S
C1314 C1318 1.524 . S
C1315 C1307 1.503 . S
C1315 C1314 1.370 . S
C1315 C1316 1.403 . S
C1316 C1315 1.403 . S
C1316 C1317 1.404 . S
C1316 C1319 1.539 . S
C1317 C1313 1.408 . S
C1317 C1316 1.404 . S
C1317 H1329 0.930 . S
C1318 C1314 1.524 . S
C1318 H1330 0.956 . S
C1318 H1331 0.961 . S
C1318 H1332 0.961 . S
C1319 C1316 1.539 . S
C1319 H1333 0.958 . S
C1319 H1334 0.961 . S
C1319 H1335 0.960 . S
H1320 C1304 0.931 . S
H1321 C1309 0.929 . S
H1322 C1310 0.960 . S
H1323 C1310 0.962 . S
H1324 C1310 0.960 . S
H1325 C1311 0.961 . S
H1326 C1311 0.961 . S
H1327 C1311 0.961 . S
H1328 C1312 0.931 . S
H1329 C1317 0.930 . S
H1330 C1318 0.956 . S
H1331 C1318 0.961 . S
H1332 C1318 0.961 . S
H1333 C1319 0.958 . S
H1334 C1319 0.961 . S
H1335 C1319 0.960 . S
C1336 C1337 1.391 . S
C1336 C1338 1.394 . S
C1336 H1352 0.931 . S
C1337 C1336 1.391 . S
C1337 C1341 1.376 . S
C1338 C1336 1.394 . S
C1338 C1339 1.369 . S
C1338 C1342 1.531 . S
C1339 C1338 1.369 . S
C1339 C1340 1.410 . S
C1339 C1347 1.503 . S
C1340 C1339 1.410 . S
C1340 C1341 1.392 . S
C1340 C1343 1.511 . S
C1341 C1337 1.376 . S
C1341 C1340 1.392 . S
C1341 H1353 0.929 . S
C1342 C1338 1.531 . S
C1342 H1354 0.960 . S
C1342 H1355 0.962 . S
C1342 H1356 0.960 . S
C1343 C1340 1.511 . S
C1343 H1357 0.961 . S
C1343 H1358 0.961 . S
C1343 H1359 0.961 . S
C1344 C1345 1.370 . S
C1344 C1346 1.363 . S
C1344 H1360 0.931 . S
C1345 C1344 1.370 . S
C1345 C1349 1.408 . S
C1346 C1344 1.363 . S
C1346 C1347 1.370 . S
C1346 C1350 1.524 . S
C1347 C1339 1.503 . S
C1347 C1346 1.370 . S
C1347 C1348 1.403 . S
C1348 C1347 1.403 . S
C1348 C1349 1.404 . S
C1348 C1351 1.539 . S
C1349 C1345 1.408 . S
C1349 C1348 1.404 . S
C1349 H1361 0.930 . S
C1350 C1346 1.524 . S
C1350 H1362 0.956 . S
C1350 H1363 0.961 . S
C1350 H1364 0.961 . S
C1351 C1348 1.539 . S
C1351 H1365 0.958 . S
C1351 H1366 0.961 . S
C1351 H1367 0.960 . S
H1352 C1336 0.931 . S
H1353 C1341 0.929 . S
H1354 C1342 0.960 . S
H1355 C1342 0.962 . S
H1356 C1342 0.960 . S
H1357 C1343 0.961 . S
H1358 C1343 0.961 . S
H1359 C1343 0.961 . S
H1360 C1344 0.931 . S
H1361 C1349 0.930 . S
H1362 C1350 0.956 . S
H1363 C1350 0.961 . S
H1364 C1350 0.961 . S
H1365 C1351 0.958 . S
H1366 C1351 0.961 . S
H1367 C1351 0.960 . S
C1368 C1369 1.389 . S
C1368 C1370 1.396 1_665 S
C1368 H1384 0.930 . S
C1369 C1368 1.389 . S
C1369 C1373 1.376 1_655 S
C1370 C1368 1.396 1_445 S
C1370 C1371 1.369 . S
C1370 C1374 1.531 . S
C1371 C1370 1.369 . S
C1371 C1372 1.446 . S
C1371 C1379 1.503 . S
C1372 C1371 1.446 . S
C1372 C1373 1.356 1_545 S
C1372 C1375 1.511 . S
C1373 C1369 1.376 1_455 S
C1373 C1372 1.356 1_565 S
C1373 H1385 0.929 . S
C1374 C1370 1.531 . S
C1374 H1386 0.960 . S
C1374 H1387 0.962 1_455 S
C1374 H1388 0.960 . S
C1375 C1372 1.511 . S
C1375 H1389 0.939 1_545 S
C1375 H1390 0.992 . S
C1375 H1391 0.952 1_545 S
C1376 C1377 1.370 . S
C1376 C1378 1.363 . S
C1376 H1392 0.931 . S
C1377 C1376 1.370 . S
C1377 C1381 1.408 . S
C1378 C1376 1.363 . S
C1378 C1379 1.370 . S
C1378 C1382 1.524 1_455 S
C1379 C1371 1.503 . S
C1379 C1378 1.370 . S
C1379 C1380 1.403 . S
C1380 C1379 1.403 . S
C1380 C1381 1.404 . S
C1380 C1383 1.539 . S
C1381 C1377 1.408 . S
C1381 C1380 1.404 . S
C1381 H1393 0.930 . S
C1382 C1378 1.524 1_655 S
C1382 H1394 0.956 . S
C1382 H1395 0.961 . S
C1382 H1396 0.961 . S
C1383 C1380 1.539 . S
C1383 H1397 0.958 . S
C1383 H1398 0.961 . S
C1383 H1399 0.960 . S
H1384 C1368 0.930 . S
H1385 C1373 0.929 . S
H1386 C1374 0.960 . S
H1387 C1374 0.962 1_655 S
H1388 C1374 0.960 . S
H1389 C1375 0.939 1_565 S
H1390 C1375 0.992 . S
H1391 C1375 0.952 1_565 S
H1392 C1376 0.931 . S
H1393 C1381 0.930 . S
H1394 C1382 0.956 . S
H1395 C1382 0.961 . S
H1396 C1382 0.961 . S
H1397 C1383 0.958 . S
H1398 C1383 0.961 . S
H1399 C1383 0.960 . S
C1400 C1401 1.391 . S
C1400 C1402 1.394 . S
C1400 H1416 0.931 . S
C1401 C1400 1.391 . S
C1401 C1405 1.376 . S
C1402 C1400 1.394 . S
C1402 C1403 1.369 . S
C1402 C1406 1.531 . S
C1403 C1402 1.369 . S
C1403 C1404 1.410 . S
C1403 C1411 1.503 . S
C1404 C1403 1.410 . S
C1404 C1405 1.392 . S
C1404 C1407 1.511 . S
C1405 C1401 1.376 . S
C1405 C1404 1.392 . S
C1405 H1417 0.929 . S
C1406 C1402 1.531 . S
C1406 H1418 0.960 . S
C1406 H1419 0.962 . S
C1406 H1420 0.960 . S
C1407 C1404 1.511 . S
C1407 H1421 0.961 . S
C1407 H1422 0.961 . S
C1407 H1423 0.961 . S
C1408 C1409 1.370 . S
C1408 C1410 1.363 . S
C1408 H1424 0.931 . S
C1409 C1408 1.370 . S
C1409 C1413 1.408 . S
C1410 C1408 1.363 . S
C1410 C1411 1.370 . S
C1410 C1414 1.524 . S
C1411 C1403 1.503 . S
C1411 C1410 1.370 . S
C1411 C1412 1.403 . S
C1412 C1411 1.403 . S
C1412 C1413 1.404 . S
C1412 C1415 1.539 . S
C1413 C1409 1.408 . S
C1413 C1412 1.404 . S
C1413 H1425 0.930 . S
C1414 C1410 1.524 . S
C1414 H1426 0.956 . S
C1414 H1427 0.961 . S
C1414 H1428 0.961 . S
C1415 C1412 1.539 . S
C1415 H1429 0.958 . S
C1415 H1430 0.961 . S
C1415 H1431 0.960 . S
H1416 C1400 0.931 . S
H1417 C1405 0.929 . S
H1418 C1406 0.960 . S
H1419 C1406 0.962 . S
H1420 C1406 0.960 . S
H1421 C1407 0.961 . S
H1422 C1407 0.961 . S
H1423 C1407 0.961 . S
H1424 C1408 0.931 . S
H1425 C1413 0.930 . S
H1426 C1414 0.956 . S
H1427 C1414 0.961 . S
H1428 C1414 0.961 . S
H1429 C1415 0.958 . S
H1430 C1415 0.961 . S
H1431 C1415 0.960 . S
C1432 C1433 1.391 . S
C1432 C1434 1.358 1_545 S
C1432 H1448 0.931 . S
C1433 C1432 1.391 . S
C1433 C1437 1.376 1_545 S
C1434 C1432 1.358 1_565 S
C1434 C1435 1.406 . S
C1434 C1438 1.529 1_565 S
C1435 C1434 1.406 . S
C1435 C1436 1.410 . S
C1435 C1443 1.503 . S
C1436 C1435 1.410 . S
C1436 C1437 1.392 . S
C1436 C1439 1.511 . S
C1437 C1433 1.376 1_565 S
C1437 C1436 1.392 . S
C1437 H1449 0.929 . S
C1438 C1434 1.529 1_545 S
C1438 H1450 0.944 1_545 S
C1438 H1451 0.962 . S
C1438 H1452 0.978 . S
C1439 C1436 1.511 . S
C1439 H1453 0.961 . S
C1439 H1454 0.961 . S
C1439 H1455 0.961 . S
C1440 C1441 1.370 . S
C1440 C1442 1.363 . S
C1440 H1456 0.931 . S
C1441 C1440 1.370 . S
C1441 C1445 1.408 . S
C1442 C1440 1.363 . S
C1442 C1443 1.370 . S
C1442 C1446 1.524 . S
C1443 C1435 1.503 . S
C1443 C1442 1.370 . S
C1443 C1444 1.403 . S
C1444 C1443 1.403 . S
C1444 C1445 1.404 . S
C1444 C1447 1.539 . S
C1445 C1441 1.408 . S
C1445 C1444 1.404 . S
C1445 H1457 0.930 . S
C1446 C1442 1.524 . S
C1446 H1458 0.956 . S
C1446 H1459 0.961 . S
C1446 H1460 0.961 . S
C1447 C1444 1.539 . S
C1447 H1461 0.958 . S
C1447 H1462 0.961 . S
C1447 H1463 0.960 . S
H1448 C1432 0.931 . S
H1449 C1437 0.929 . S
H1450 C1438 0.944 1_565 S
H1451 C1438 0.962 . S
H1452 C1438 0.978 . S
H1453 C1439 0.961 . S
H1454 C1439 0.961 . S
H1455 C1439 0.961 . S
H1456 C1440 0.931 . S
H1457 C1445 0.930 . S
H1458 C1446 0.956 . S
H1459 C1446 0.961 . S
H1460 C1446 0.961 . S
H1461 C1447 0.958 . S
H1462 C1447 0.961 . S
H1463 C1447 0.960 . S
C1464 C1465 1.391 . S
C1464 C1466 1.394 . S
C1464 H1480 0.931 . S
C1465 C1464 1.391 . S
C1465 C1469 1.376 . S
C1466 C1464 1.394 . S
C1466 C1467 1.369 . S
C1466 C1470 1.531 . S
C1467 C1466 1.369 . S
C1467 C1468 1.410 . S
C1467 C1475 1.503 . S
C1468 C1467 1.410 . S
C1468 C1469 1.392 . S
C1468 C1471 1.511 . S
C1469 C1465 1.376 . S
C1469 C1468 1.392 . S
C1469 H1481 0.929 . S
C1470 C1466 1.531 . S
C1470 H1482 0.960 . S
C1470 H1483 0.962 . S
C1470 H1484 0.960 . S
C1471 C1468 1.511 . S
C1471 H1485 0.961 . S
C1471 H1486 0.961 . S
C1471 H1487 0.961 . S
C1472 C1473 1.370 . S
C1472 C1474 1.363 . S
C1472 H1488 0.931 . S
C1473 C1472 1.370 . S
C1473 C1477 1.408 . S
C1474 C1472 1.363 . S
C1474 C1475 1.370 . S
C1474 C1478 1.524 . S
C1475 C1467 1.503 . S
C1475 C1474 1.370 . S
C1475 C1476 1.403 . S
C1476 C1475 1.403 . S
C1476 C1477 1.404 . S
C1476 C1479 1.539 . S
C1477 C1473 1.408 . S
C1477 C1476 1.404 . S
C1477 H1489 0.930 . S
C1478 C1474 1.524 . S
C1478 H1490 0.956 . S
C1478 H1491 0.961 . S
C1478 H1492 0.961 . S
C1479 C1476 1.539 . S
C1479 H1493 0.958 . S
C1479 H1494 0.961 . S
C1479 H1495 0.960 . S
H1480 C1464 0.931 . S
H1481 C1469 0.929 . S
H1482 C1470 0.960 . S
H1483 C1470 0.962 . S
H1484 C1470 0.960 . S
H1485 C1471 0.961 . S
H1486 C1471 0.961 . S
H1487 C1471 0.961 . S
H1488 C1472 0.931 . S
H1489 C1477 0.930 . S
H1490 C1478 0.956 . S
H1491 C1478 0.961 . S
H1492 C1478 0.961 . S
H1493 C1479 0.958 . S
H1494 C1479 0.961 . S
H1495 C1479 0.960 . S
C1496 C1497 1.391 1_655 S
C1496 C1498 1.394 . S
C1496 H1512 0.931 . S
C1497 C1496 1.391 1_455 S
C1497 C1501 1.376 . S
C1498 C1496 1.394 . S
C1498 C1499 1.369 . S
C1498 C1502 1.531 . S
C1499 C1498 1.369 . S
C1499 C1500 1.410 1_655 S
C1499 C1507 1.503 . S
C1500 C1499 1.410 1_455 S
C1500 C1501 1.392 . S
C1500 C1503 1.511 . S
C1501 C1497 1.376 . S
C1501 C1500 1.392 . S
C1501 H1513 0.929 . S
C1502 C1498 1.531 . S
C1502 H1514 0.960 . S
C1502 H1515 0.962 . S
C1502 H1516 0.960 . S
C1503 C1500 1.511 . S
C1503 H1517 0.961 . S
C1503 H1518 0.961 1_455 S
C1503 H1519 0.961 . S
C1504 C1505 1.370 . S
C1504 C1506 1.363 . S
C1504 H1520 0.931 . S
C1505 C1504 1.370 . S
C1505 C1509 1.408 . S
C1506 C1504 1.363 . S
C1506 C1507 1.370 . S
C1506 C1510 1.524 . S
C1507 C1499 1.503 . S
C1507 C1506 1.370 . S
C1507 C1508 1.403 . S
C1508 C1507 1.403 . S
C1508 C1509 1.404 . S
C1508 C1511 1.539 1_655 S
C1509 C1505 1.408 . S
C1509 C1508 1.404 . S
C1509 H1521 0.930 . S
C1510 C1506 1.524 . S
C1510 H1522 0.956 . S
C1510 H1523 0.961 . S
C1510 H1524 0.961 . S
C1511 C1508 1.539 1_455 S
C1511 H1525 0.958 1_455 S
C1511 H1526 0.961 . S
C1511 H1527 0.960 . S
H1512 C1496 0.931 . S
H1513 C1501 0.929 . S
H1514 C1502 0.960 . S
H1515 C1502 0.962 . S
H1516 C1502 0.960 . S
H1517 C1503 0.961 . S
H1518 C1503 0.961 1_655 S
H1519 C1503 0.961 . S
H1520 C1504 0.931 . S
H1521 C1509 0.930 . S
H1522 C1510 0.956 . S
H1523 C1510 0.961 . S
H1524 C1510 0.961 . S
H1525 C1511 0.958 1_655 S
H1526 C1511 0.961 . S
H1527 C1511 0.960 . S
C1528 C1529 1.391 . S
C1528 C1530 1.394 . S
C1528 H1544 0.931 . S
C1529 C1528 1.391 . S
C1529 C1533 1.376 . S
C1530 C1528 1.394 . S
C1530 C1531 1.369 . S
C1530 C1534 1.531 . S
C1531 C1530 1.369 . S
C1531 C1532 1.410 . S
C1531 C1539 1.503 . S
C1532 C1531 1.410 . S
C1532 C1533 1.392 . S
C1532 C1535 1.511 . S
C1533 C1529 1.376 . S
C1533 C1532 1.392 . S
C1533 H1545 0.929 . S
C1534 C1530 1.531 . S
C1534 H1546 0.960 . S
C1534 H1547 0.962 . S
C1534 H1548 0.960 . S
C1535 C1532 1.511 . S
C1535 H1549 0.961 . S
C1535 H1550 0.961 . S
C1535 H1551 0.961 . S
C1536 C1537 1.370 . S
C1536 C1538 1.363 . S
C1536 H1552 0.931 . S
C1537 C1536 1.370 . S
C1537 C1541 1.408 . S
C1538 C1536 1.363 . S
C1538 C1539 1.370 . S
C1538 C1542 1.524 . S
C1539 C1531 1.503 . S
C1539 C1538 1.370 . S
C1539 C1540 1.403 . S
C1540 C1539 1.403 . S
C1540 C1541 1.404 . S
C1540 C1543 1.539 . S
C1541 C1537 1.408 . S
C1541 C1540 1.404 . S
C1541 H1553 0.930 . S
C1542 C1538 1.524 . S
C1542 H1554 0.956 . S
C1542 H1555 0.961 . S
C1542 H1556 0.961 . S
C1543 C1540 1.539 . S
C1543 H1557 0.958 . S
C1543 H1558 0.961 . S
C1543 H1559 0.960 . S
H1544 C1528 0.931 . S
H1545 C1533 0.929 . S
H1546 C1534 0.960 . S
H1547 C1534 0.962 . S
H1548 C1534 0.960 . S
H1549 C1535 0.961 . S
H1550 C1535 0.961 . S
H1551 C1535 0.961 . S
H1552 C1536 0.931 . S
H1553 C1541 0.930 . S
H1554 C1542 0.956 . S
H1555 C1542 0.961 . S
H1556 C1542 0.961 . S
H1557 C1543 0.958 . S
H1558 C1543 0.961 . S
H1559 C1543 0.960 . S
C1560 C1561 1.391 . S
C1560 C1562 1.394 . S
C1560 H1576 0.931 . S
C1561 C1560 1.391 . S
C1561 C1565 1.376 . S
C1562 C1560 1.394 . S
C1562 C1563 1.369 . S
C1562 C1566 1.531 . S
C1563 C1562 1.369 . S
C1563 C1564 1.410 . S
C1563 C1571 1.503 . S
C1564 C1563 1.410 . S
C1564 C1565 1.392 . S
C1564 C1567 1.511 . S
C1565 C1561 1.376 . S
C1565 C1564 1.392 . S
C1565 H1577 0.929 . S
C1566 C1562 1.531 . S
C1566 H1578 0.960 . S
C1566 H1579 0.962 . S
C1566 H1580 0.960 . S
C1567 C1564 1.511 . S
C1567 H1581 0.961 . S
C1567 H1582 0.961 . S
C1567 H1583 0.961 . S
C1568 C1569 1.370 . S
C1568 C1570 1.363 . S
C1568 H1584 0.931 . S
C1569 C1568 1.370 . S
C1569 C1573 1.408 . S
C1570 C1568 1.363 . S
C1570 C1571 1.370 . S
C1570 C1574 1.524 . S
C1571 C1563 1.503 . S
C1571 C1570 1.370 . S
C1571 C1572 1.403 . S
C1572 C1571 1.403 . S
C1572 C1573 1.404 . S
C1572 C1575 1.539 . S
C1573 C1569 1.408 . S
C1573 C1572 1.404 . S
C1573 H1585 0.930 . S
C1574 C1570 1.524 . S
C1574 H1586 0.956 . S
C1574 H1587 0.961 . S
C1574 H1588 0.961 . S
C1575 C1572 1.539 . S
C1575 H1589 0.958 . S
C1575 H1590 0.961 . S
C1575 H1591 0.960 . S
H1576 C1560 0.931 . S
H1577 C1565 0.929 . S
H1578 C1566 0.960 . S
H1579 C1566 0.962 . S
H1580 C1566 0.960 . S
H1581 C1567 0.961 . S
H1582 C1567 0.961 . S
H1583 C1567 0.961 . S
H1584 C1568 0.931 . S
H1585 C1573 0.930 . S
H1586 C1574 0.956 . S
H1587 C1574 0.961 . S
H1588 C1574 0.961 . S
H1589 C1575 0.958 . S
H1590 C1575 0.961 . S
H1591 C1575 0.960 . S
C1592 C1593 1.391 . S
C1592 C1594 1.394 . S
C1592 H1608 0.931 . S
C1593 C1592 1.391 . S
C1593 C1597 1.376 . S
C1594 C1592 1.394 . S
C1594 C1595 1.369 . S
C1594 C1598 1.531 . S
C1595 C1594 1.369 . S
C1595 C1596 1.410 . S
C1595 C1603 1.503 . S
C1596 C1595 1.410 . S
C1596 C1597 1.392 . S
C1596 C1599 1.511 . S
C1597 C1593 1.376 . S
C1597 C1596 1.392 . S
C1597 H1609 0.929 . S
C1598 C1594 1.531 . S
C1598 H1610 0.960 . S
C1598 H1611 0.962 . S
C1598 H1612 0.960 . S
C1599 C1596 1.511 . S
C1599 H1613 0.961 . S
C1599 H1614 0.961 . S
C1599 H1615 0.961 . S
C1600 C1601 1.370 . S
C1600 C1602 1.363 . S
C1600 H1616 0.931 . S
C1601 C1600 1.370 . S
C1601 C1605 1.408 . S
C1602 C1600 1.363 . S
C1602 C1603 1.370 . S
C1602 C1606 1.524 . S
C1603 C1595 1.503 . S
C1603 C1602 1.370 . S
C1603 C1604 1.403 . S
C1604 C1603 1.403 . S
C1604 C1605 1.404 . S
C1604 C1607 1.539 . S
C1605 C1601 1.408 . S
C1605 C1604 1.404 . S
C1605 H1617 0.930 . S
C1606 C1602 1.524 . S
C1606 H1618 0.956 . S
C1606 H1619 0.961 . S
C1606 H1620 0.961 . S
C1607 C1604 1.539 . S
C1607 H1621 0.958 . S
C1607 H1622 0.961 . S
C1607 H1623 0.960 . S
H1608 C1592 0.931 . S
H1609 C1597 0.929 . S
H1610 C1598 0.960 . S
H1611 C1598 0.962 . S
H1612 C1598 0.960 . S
H1613 C1599 0.961 . S
H1614 C1599 0.961 . S
H1615 C1599 0.961 . S
H1616 C1600 0.931 . S
H1617 C1605 0.930 . S
H1618 C1606 0.956 . S
H1619 C1606 0.961 . S
H1620 C1606 0.961 . S
H1621 C1607 0.958 . S
H1622 C1607 0.961 . S
H1623 C1607 0.960 . S
C1624 C1625 1.391 . S
C1624 C1626 1.394 . S
C1624 H1640 0.931 . S
C1625 C1624 1.391 . S
C1625 C1629 1.376 . S
C1626 C1624 1.394 . S
C1626 C1627 1.369 . S
C1626 C1630 1.531 . S
C1627 C1626 1.369 . S
C1627 C1628 1.410 . S
C1627 C1635 1.503 . S
C1628 C1627 1.410 . S
C1628 C1629 1.392 . S
C1628 C1631 1.511 . S
C1629 C1625 1.376 . S
C1629 C1628 1.392 . S
C1629 H1641 0.929 . S
C1630 C1626 1.531 . S
C1630 H1642 0.960 . S
C1630 H1643 0.962 . S
C1630 H1644 0.960 . S
C1631 C1628 1.511 . S
C1631 H1645 0.961 . S
C1631 H1646 0.961 . S
C1631 H1647 0.961 . S
C1632 C1633 1.370 . S
C1632 C1634 1.363 . S
C1632 H1648 0.931 . S
C1633 C1632 1.370 . S
C1633 C1637 1.408 . S
C1634 C1632 1.363 . S
C1634 C1635 1.370 . S
C1634 C1638 1.524 . S
C1635 C1627 1.503 . S
C1635 C1634 1.370 . S
C1635 C1636 1.403 . S
C1636 C1635 1.403 . S
C1636 C1637 1.404 . S
C1636 C1639 1.539 . S
C1637 C1633 1.408 . S
C1637 C1636 1.404 . S
C1637 H1649 0.930 . S
C1638 C1634 1.524 . S
C1638 H1650 0.956 . S
C1638 H1651 0.961 . S
C1638 H1652 0.961 . S
C1639 C1636 1.539 . S
C1639 H1653 0.958 . S
C1639 H1654 0.961 . S
C1639 H1655 0.960 . S
H1640 C1624 0.931 . S
H1641 C1629 0.929 . S
H1642 C1630 0.960 . S
H1643 C1630 0.962 . S
H1644 C1630 0.960 . S
H1645 C1631 0.961 . S
H1646 C1631 0.961 . S
H1647 C1631 0.961 . S
H1648 C1632 0.931 . S
H1649 C1637 0.930 . S
H1650 C1638 0.956 . S
H1651 C1638 0.961 . S
H1652 C1638 0.961 . S
H1653 C1639 0.958 . S
H1654 C1639 0.961 . S
H1655 C1639 0.960 . S
C1656 C1657 1.426 . S
C1656 C1658 1.357 1_656 S
C1656 H1672 0.934 . S
C1657 C1656 1.426 . S
C1657 C1661 1.376 1_556 S
C1658 C1656 1.357 1_454 S
C1658 C1659 1.369 . S
C1658 C1662 1.531 . S
C1659 C1658 1.369 . S
C1659 C1660 1.410 . S
C1659 C1667 1.503 . S
C1660 C1659 1.410 . S
C1660 C1661 1.392 1_455 S
C1660 C1663 1.511 . S
C1661 C1657 1.376 1_554 S
C1661 C1660 1.392 1_655 S
C1661 H1673 0.929 . S
C1662 C1658 1.531 . S
C1662 H1674 0.960 . S
C1662 H1675 0.962 1_554 S
C1662 H1676 0.960 . S
C1663 C1660 1.511 . S
C1663 H1677 0.961 1_455 S
C1663 H1678 0.961 . S
C1663 H1679 0.961 1_455 S
C1664 C1665 1.370 . S
C1664 C1666 1.363 . S
C1664 H1680 0.931 . S
C1665 C1664 1.370 . S
C1665 C1669 1.408 . S
C1666 C1664 1.363 . S
C1666 C1667 1.370 . S
C1666 C1670 1.524 1_554 S
C1667 C1659 1.503 . S
C1667 C1666 1.370 . S
C1667 C1668 1.403 . S
C1668 C1667 1.403 . S
C1668 C1669 1.404 . S
C1668 C1671 1.539 . S
C1669 C1665 1.408 . S
C1669 C1668 1.404 . S
C1669 H1681 0.930 . S
C1670 C1666 1.524 1_556 S
C1670 H1682 0.956 . S
C1670 H1683 0.961 . S
C1670 H1684 0.961 . S
C1671 C1668 1.539 . S
C1671 H1685 0.958 . S
C1671 H1686 0.961 . S
C1671 H1687 0.960 . S
H1672 C1656 0.934 . S
H1673 C1661 0.929 . S
H1674 C1662 0.960 . S
H1675 C1662 0.962 1_556 S
H1676 C1662 0.960 . S
H1677 C1663 0.961 1_655 S
H1678 C1663 0.961 . S
H1679 C1663 0.961 1_655 S
H1680 C1664 0.931 . S
H1681 C1669 0.930 . S
H1682 C1670 0.956 . S
H1683 C1670 0.961 . S
H1684 C1670 0.961 . S
H1685 C1671 0.958 . S
H1686 C1671 0.961 . S
H1687 C1671 0.960 . S
C1688 C1689 1.391 . S
C1688 C1690 1.394 . S
C1688 H1704 0.931 . S
C1689 C1688 1.391 . S
C1689 C1693 1.376 . S
C1690 C1688 1.394 . S
C1690 C1691 1.369 . S
C1690 C1694 1.531 . S
C1691 C1690 1.369 . S
C1691 C1692 1.410 . S
C1691 C1699 1.503 . S
C1692 C1691 1.410 . S
C1692 C1693 1.392 . S
C1692 C1695 1.511 . S
C1693 C1689 1.376 . S
C1693 C1692 1.392 . S
C1693 H1705 0.929 . S
C1694 C1690 1.531 . S
C1694 H1706 0.960 . S
C1694 H1707 0.962 . S
C1694 H1708 0.960 . S
C1695 C1692 1.511 . S
C1695 H1709 0.961 . S
C1695 H1710 0.961 . S
C1695 H1711 0.961 . S
C1696 C1697 1.370 . S
C1696 C1698 1.363 . S
C1696 H1712 0.931 . S
C1697 C1696 1.370 . S
C1697 C1701 1.408 . S
C1698 C1696 1.363 . S
C1698 C1699 1.370 . S
C1698 C1702 1.524 . S
C1699 C1691 1.503 . S
C1699 C1698 1.370 . S
C1699 C1700 1.403 . S
C1700 C1699 1.403 . S
C1700 C1701 1.404 . S
C1700 C1703 1.539 . S
C1701 C1697 1.408 . S
C1701 C1700 1.404 . S
C1701 H1713 0.930 . S
C1702 C1698 1.524 . S
C1702 H1714 0.956 . S
C1702 H1715 0.961 . S
C1702 H1716 0.961 . S
C1703 C1700 1.539 . S
C1703 H1717 0.958 . S
C1703 H1718 0.961 . S
C1703 H1719 0.960 . S
H1704 C1688 0.931 . S
H1705 C1693 0.929 . S
H1706 C1694 0.960 . S
H1707 C1694 0.962 . S
H1708 C1694 0.960 . S
H1709 C1695 0.961 . S
H1710 C1695 0.961 . S
H1711 C1695 0.961 . S
H1712 C1696 0.931 . S
H1713 C1701 0.930 . S
H1714 C1702 0.956 . S
H1715 C1702 0.961 . S
H1716 C1702 0.961 . S
H1717 C1703 0.958 . S
H1718 C1703 0.961 . S
H1719 C1703 0.960 . S
C1720 C1721 1.391 . S
C1720 C1722 1.394 . S
C1720 H1736 0.931 . S
C1721 C1720 1.391 . S
C1721 C1725 1.376 . S
C1722 C1720 1.394 . S
C1722 C1723 1.369 . S
C1722 C1726 1.531 . S
C1723 C1722 1.369 . S
C1723 C1724 1.410 . S
C1723 C1731 1.503 . S
C1724 C1723 1.410 . S
C1724 C1725 1.392 . S
C1724 C1727 1.511 . S
C1725 C1721 1.376 . S
C1725 C1724 1.392 . S
C1725 H1737 0.929 . S
C1726 C1722 1.531 . S
C1726 H1738 0.960 . S
C1726 H1739 0.962 . S
C1726 H1740 0.960 . S
C1727 C1724 1.511 . S
C1727 H1741 0.961 . S
C1727 H1742 0.961 . S
C1727 H1743 0.961 . S
C1728 C1729 1.370 . S
C1728 C1730 1.363 . S
C1728 H1744 0.931 . S
C1729 C1728 1.370 . S
C1729 C1733 1.408 . S
C1730 C1728 1.363 . S
C1730 C1731 1.370 . S
C1730 C1734 1.524 . S
C1731 C1723 1.503 . S
C1731 C1730 1.370 . S
C1731 C1732 1.403 . S
C1732 C1731 1.403 . S
C1732 C1733 1.404 . S
C1732 C1735 1.539 . S
C1733 C1729 1.408 . S
C1733 C1732 1.404 . S
C1733 H1745 0.930 . S
C1734 C1730 1.524 . S
C1734 H1746 0.956 . S
C1734 H1747 0.961 . S
C1734 H1748 0.961 . S
C1735 C1732 1.539 . S
C1735 H1749 0.958 . S
C1735 H1750 0.961 . S
C1735 H1751 0.960 . S
H1736 C1720 0.931 . S
H1737 C1725 0.929 . S
H1738 C1726 0.960 . S
H1739 C1726 0.962 . S
H1740 C1726 0.960 . S
H1741 C1727 0.961 . S
H1742 C1727 0.961 . S
H1743 C1727 0.961 . S
H1744 C1728 0.931 . S
H1745 C1733 0.930 . S
H1746 C1734 0.956 . S
H1747 C1734 0.961 . S
H1748 C1734 0.961 . S
H1749 C1735 0.958 . S
H1750 C1735 0.961 . S
H1751 C1735 0.960 . S
C1752 C1753 1.391 . S
C1752 C1754 1.394 . S
C1752 H1768 0.931 . S
C1753 C1752 1.391 . S
C1753 C1757 1.376 . S
C1754 C1752 1.394 . S
C1754 C1755 1.369 . S
C1754 C1758 1.531 . S
C1755 C1754 1.369 . S
C1755 C1756 1.410 . S
C1755 C1763 1.503 . S
C1756 C1755 1.410 . S
C1756 C1757 1.392 . S
C1756 C1759 1.511 . S
C1757 C1753 1.376 . S
C1757 C1756 1.392 . S
C1757 H1769 0.929 . S
C1758 C1754 1.531 . S
C1758 H1770 0.960 . S
C1758 H1771 0.962 . S
C1758 H1772 0.960 . S
C1759 C1756 1.511 . S
C1759 H1773 0.961 . S
C1759 H1774 0.961 . S
C1759 H1775 0.961 . S
C1760 C1761 1.370 . S
C1760 C1762 1.363 . S
C1760 H1776 0.931 . S
C1761 C1760 1.370 . S
C1761 C1765 1.408 . S
C1762 C1760 1.363 . S
C1762 C1763 1.370 . S
C1762 C1766 1.524 . S
C1763 C1755 1.503 . S
C1763 C1762 1.370 . S
C1763 C1764 1.403 . S
C1764 C1763 1.403 . S
C1764 C1765 1.404 . S
C1764 C1767 1.539 . S
C1765 C1761 1.408 . S
C1765 C1764 1.404 . S
C1765 H1777 0.930 . S
C1766 C1762 1.524 . S
C1766 H1778 0.956 . S
C1766 H1779 0.961 . S
C1766 H1780 0.961 . S
C1767 C1764 1.539 . S
C1767 H1781 0.958 . S
C1767 H1782 0.961 . S
C1767 H1783 0.960 . S
H1768 C1752 0.931 . S
H1769 C1757 0.929 . S
H1770 C1758 0.960 . S
H1771 C1758 0.962 . S
H1772 C1758 0.960 . S
H1773 C1759 0.961 . S
H1774 C1759 0.961 . S
H1775 C1759 0.961 . S
H1776 C1760 0.931 . S
H1777 C1765 0.930 . S
H1778 C1766 0.956 . S
H1779 C1766 0.961 . S
H1780 C1766 0.961 . S
H1781 C1767 0.958 . S
H1782 C1767 0.961 . S
H1783 C1767 0.960 . S
C1784 C1785 1.391 1_556 S
C1784 C1786 1.394 . S
C1784 H1800 0.931 . S
C1785 C1784 1.391 1_554 S
C1785 C1789 1.376 . S
C1786 C1784 1.394 . S
C1786 C1787 1.369 . S
C1786 C1790 1.531 . S
C1787 C1786 1.369 . S
C1787 C1788 1.410 1_556 S
C1787 C1795 1.503 . S
C1788 C1787 1.410 1_554 S
C1788 C1789 1.392 . S
C1788 C1791 1.511 . S
C1789 C1785 1.376 . S
C1789 C1788 1.392 . S
C1789 H1801 0.929 . S
C1790 C1786 1.531 . S
C1790 H1802 0.960 . S
C1790 H1803 0.962 . S
C1790 H1804 0.960 . S
C1791 C1788 1.511 . S
C1791 H1805 0.961 . S
C1791 H1806 0.961 . S
C1791 H1807 0.961 . S
C1792 C1793 1.370 . S
C1792 C1794 1.363 . S
C1792 H1808 0.931 . S
C1793 C1792 1.370 . S
C1793 C1797 1.408 . S
C1794 C1792 1.363 . S
C1794 C1795 1.370 . S
C1794 C1798 1.524 . S
C1795 C1787 1.503 . S
C1795 C1794 1.370 . S
C1795 C1796 1.403 . S
C1796 C1795 1.403 . S
C1796 C1797 1.404 . S
C1796 C1799 1.539 . S
C1797 C1793 1.408 . S
C1797 C1796 1.404 . S
C1797 H1809 0.930 . S
C1798 C1794 1.524 . S
C1798 H1810 0.956 . S
C1798 H1811 0.961 . S
C1798 H1812 0.961 . S
C1799 C1796 1.539 . S
C1799 H1813 0.958 . S
C1799 H1814 0.961 . S
C1799 H1815 0.960 . S
H1800 C1784 0.931 . S
H1801 C1789 0.929 . S
H1802 C1790 0.960 . S
H1803 C1790 0.962 . S
H1804 C1790 0.960 . S
H1805 C1791 0.961 . S
H1806 C1791 0.961 . S
H1807 C1791 0.961 . S
H1808 C1792 0.931 . S
H1809 C1797 0.930 . S
H1810 C1798 0.956 . S
H1811 C1798 0.961 . S
H1812 C1798 0.961 . S
H1813 C1799 0.958 . S
H1814 C1799 0.961 . S
H1815 C1799 0.960 . S
C1816 C1817 1.391 . S
C1816 C1818 1.394 . S
C1816 H1832 0.931 . S
C1817 C1816 1.391 . S
C1817 C1821 1.376 . S
C1818 C1816 1.394 . S
C1818 C1819 1.369 . S
C1818 C1822 1.531 . S
C1819 C1818 1.369 . S
C1819 C1820 1.410 . S
C1819 C1827 1.503 . S
C1820 C1819 1.410 . S
C1820 C1821 1.392 . S
C1820 C1823 1.511 . S
C1821 C1817 1.376 . S
C1821 C1820 1.392 . S
C1821 H1833 0.929 . S
C1822 C1818 1.531 . S
C1822 H1834 0.960 . S
C1822 H1835 0.962 . S
C1822 H1836 0.960 . S
C1823 C1820 1.511 . S
C1823 H1837 0.961 . S
C1823 H1838 0.961 . S
C1823 H1839 0.961 . S
C1824 C1825 1.370 . S
C1824 C1826 1.363 1_455 S
C1824 H1840 0.931 . S
C1825 C1824 1.370 . S
C1825 C1829 1.408 . S
C1826 C1824 1.363 1_655 S
C1826 C1827 1.370 . S
C1826 C1830 1.524 . S
C1827 C1819 1.503 . S
C1827 C1826 1.370 . S
C1827 C1828 1.403 . S
C1828 C1827 1.403 . S
C1828 C1829 1.404 1_655 S
C1828 C1831 1.539 . S
C1829 C1825 1.408 . S
C1829 C1828 1.404 1_455 S
C1829 H1841 0.930 . S
C1830 C1826 1.524 . S
C1830 H1842 0.956 . S
C1830 H1843 0.961 . S
C1830 H1844 0.961 . S
C1831 C1828 1.539 . S
C1831 H1845 0.958 . S
C1831 H1846 0.961 . S
C1831 H1847 0.960 . S
H1832 C1816 0.931 . S
H1833 C1821 0.929 . S
H1834 C1822 0.960 . S
H1835 C1822 0.962 . S
H1836 C1822 0.960 . S
H1837 C1823 0.961 . S
H1838 C1823 0.961 . S
H1839 C1823 0.961 . S
H1840 C1824 0.931 . S
H1841 C1829 0.930 . S
H1842 C1830 0.956 . S
H1843 C1830 0.961 . S
H1844 C1830 0.961 . S
H1845 C1831 0.958 . S
H1846 C1831 0.961 . S
H1847 C1831 0.960 . S
C313 C121 1.203 . S
C321 C4 1.158 . S
C345 C23 1.151 . S
C353 C140 1.179 . S
C377 C36 1.147 . S
C385 C147 1.183 . S
C409 C49 1.173 . S
C417 C108 1.170 . S
C441 C56 1.188 . S
C449 C199 1.163 . S
C473 C166 1.136 . S
C481 C69 1.186 . S
C505 C88 1.194 . S
C513 C179 1.161 . S
C537 C186 1.187 . S
C545 C101 1.166 . S
C569 C212 1.154 . S
C577 C238 1.178 . S
C601 C290 1.201 . S
C609 C225 1.159 . S
C633 C251 1.192 . S
C641 C309 1.164 . S
C665 C283 1.136 . S
C673 C270 1.186 . S
C697 C264 1.829 . S
C705 C10 1.848 . S
C729 C17 1.851 . S
C737 C231 1.845 . S
C761 C30 1.829 . S
C769 C244 1.858 . S
C793 C43 1.872 . S
C801 C257 1.851 . S
C825 C62 1.875 . S
C833 C303 1.856 . S
C857 C277 1.868 . S
C865 C75 1.849 . S
C889 C296 1.833 . S
C897 C82 1.861 . S
C921 C218 1.854 . S
C929 C95 1.865 . S
C953 C205 1.873 . S
C961 C114 1.861 . S
C985 C127 1.868 . S
C993 C160 1.849 . S
C1017 C173 1.849 . S
C1025 C134 1.844 . S
C1049 C192 1.875 . S
C1057 C153 1.857 . S
C1081 C5 1.315 . S
C1089 C211 1.310 . S
C1113 C304 1.321 . S
C1121 C16 1.297 . S
C1145 C278 1.317 . S
C1153 C29 1.297 . S
C1177 C42 1.317 . S
C1185 C289 1.314 . S
C1209 C57 1.313 . S
C1217 C224 1.318 . S
C1241 C237 1.282 . S
C1249 C70 1.275 . S
C1273 C250 1.304 . S
C1281 C81 1.297 . S
C1305 C265 1.300 . S
C1313 C94 1.296 . S
C1337 C3 1.313 . S
C1345 C109 1.266 . S
C1369 C18 1.319 . S
C1377 C122 1.297 . S
C1401 C31 1.322 . S
C1409 C133 1.269 . S
C1433 C44 1.311 . S
C1441 C148 1.266 . S
C1465 C55 1.334 . S
C1473 C159 1.289 . S
C1497 C68 1.304 . S
C1505 C172 1.265 . S
C1529 C187 1.295 . S
C1537 C83 1.302 . S
C1561 C96 1.284 . S
C1569 C200 1.286 . S
C1593 C107 1.325 . S
C1601 C213 1.296 . S
C1625 C226 1.249 . S
C1633 C161 1.303 . S
C1657 C174 1.321 . S
C1665 C239 1.297 . S
C1689 C252 1.316 . S
C1697 C185 1.311 . S
C1721 C263 1.288 . S
C1729 C198 1.323 . S
C1753 C276 1.269 . S
C1761 C135 1.322 . S
C1785 C146 1.329 . S
C1793 C291 1.274 . S
C1817 C302 1.310 . S
C1825 C120 1.307 . S
