# Generated by pormake.
# Topology uoy, (4)-cn, num edge types: 1
# Building blocks:
#     Node 0, Type 0, BuildingBlock: KUFVIS_clean_sbu_0, # of connection points: 4
#     Node 1, Type 0, BuildingBlock: KUFVIS_clean_sbu_0, # of connection points: 4
#     Node 2, Type 0, BuildingBlock: KUFVIS_clean_sbu_0, # of connection points: 4
#     Node 3, Type 0, BuildingBlock: KUFVIS_clean_sbu_0, # of connection points: 4
#     Node 4, Type 0, BuildingBlock: KUFVIS_clean_sbu_0, # of connection points: 4
#     Node 5, Type 0, BuildingBlock: KUFVIS_clean_sbu_0, # of connection points: 4
#     Node 6, Type 0, BuildingBlock: KUFVIS_clean_sbu_0, # of connection points: 4
#     Node 7, Type 0, BuildingBlock: KUFVIS_clean_sbu_0, # of connection points: 4
#     Node 8, Type 0, BuildingBlock: KUFVIS_clean_sbu_0, # of connection points: 4
#     Node 9, Type 0, BuildingBlock: KUFVIS_clean_sbu_0, # of connection points: 4
#     Node 10, Type 0, BuildingBlock: KUFVIS_clean_sbu_0, # of connection points: 4
#     Node 11, Type 0, BuildingBlock: KUFVIS_clean_sbu_0, # of connection points: 4
#     Node 12, Type 0, BuildingBlock: KUFVIS_clean_sbu_0, # of connection points: 4
#     Node 13, Type 0, BuildingBlock: KUFVIS_clean_sbu_0, # of connection points: 4
#     Node 14, Type 0, BuildingBlock: KUFVIS_clean_sbu_0, # of connection points: 4
#     Node 15, Type 0, BuildingBlock: KUFVIS_clean_sbu_0, # of connection points: 4
#     Edge 16, Type (0, 0), BuildingBlock: UVAHIK_clean_linker_0, # of connection points: 2
#     Edge 17, Type (0, 0), BuildingBlock: UVAHIK_clean_linker_0, # of connection points: 2
#     Edge 18, Type (0, 0), BuildingBlock: UVAHIK_clean_linker_0, # of connection points: 2
#     Edge 19, Type (0, 0), BuildingBlock: UVAHIK_clean_linker_0, # of connection points: 2
#     Edge 20, Type (0, 0), BuildingBlock: UVAHIK_clean_linker_0, # of connection points: 2
#     Edge 21, Type (0, 0), BuildingBlock: UVAHIK_clean_linker_0, # of connection points: 2
#     Edge 22, Type (0, 0), BuildingBlock: UVAHIK_clean_linker_0, # of connection points: 2
#     Edge 23, Type (0, 0), BuildingBlock: UVAHIK_clean_linker_0, # of connection points: 2
#     Edge 24, Type (0, 0), BuildingBlock: UVAHIK_clean_linker_0, # of connection points: 2
#     Edge 25, Type (0, 0), BuildingBlock: UVAHIK_clean_linker_0, # of connection points: 2
#     Edge 26, Type (0, 0), BuildingBlock: UVAHIK_clean_linker_0, # of connection points: 2
#     Edge 27, Type (0, 0), BuildingBlock: UVAHIK_clean_linker_0, # of connection points: 2
#     Edge 28, Type (0, 0), BuildingBlock: UVAHIK_clean_linker_0, # of connection points: 2
#     Edge 29, Type (0, 0), BuildingBlock: UVAHIK_clean_linker_0, # of connection points: 2
#     Edge 30, Type (0, 0), BuildingBlock: UVAHIK_clean_linker_0, # of connection points: 2
#     Edge 31, Type (0, 0), BuildingBlock: UVAHIK_clean_linker_0, # of connection points: 2
#     Edge 32, Type (0, 0), BuildingBlock: UVAHIK_clean_linker_0, # of connection points: 2
#     Edge 33, Type (0, 0), BuildingBlock: UVAHIK_clean_linker_0, # of connection points: 2
#     Edge 34, Type (0, 0), BuildingBlock: UVAHIK_clean_linker_0, # of connection points: 2
#     Edge 35, Type (0, 0), BuildingBlock: UVAHIK_clean_linker_0, # of connection points: 2
#     Edge 36, Type (0, 0), BuildingBlock: UVAHIK_clean_linker_0, # of connection points: 2
#     Edge 37, Type (0, 0), BuildingBlock: UVAHIK_clean_linker_0, # of connection points: 2
#     Edge 38, Type (0, 0), BuildingBlock: UVAHIK_clean_linker_0, # of connection points: 2
#     Edge 39, Type (0, 0), BuildingBlock: UVAHIK_clean_linker_0, # of connection points: 2
#     Edge 40, Type (0, 0), BuildingBlock: UVAHIK_clean_linker_0, # of connection points: 2
#     Edge 41, Type (0, 0), BuildingBlock: UVAHIK_clean_linker_0, # of connection points: 2
#     Edge 42, Type (0, 0), BuildingBlock: UVAHIK_clean_linker_0, # of connection points: 2
#     Edge 43, Type (0, 0), BuildingBlock: UVAHIK_clean_linker_0, # of connection points: 2
#     Edge 44, Type (0, 0), BuildingBlock: UVAHIK_clean_linker_0, # of connection points: 2
#     Edge 45, Type (0, 0), BuildingBlock: UVAHIK_clean_linker_0, # of connection points: 2
#     Edge 46, Type (0, 0), BuildingBlock: UVAHIK_clean_linker_0, # of connection points: 2
#     Edge 47, Type (0, 0), BuildingBlock: UVAHIK_clean_linker_0, # of connection points: 2
# Relax obj value: 0.051
# Max RMSD: 0.081
# Mean RMSD: 0.081
data_MOF--net-uoy--node1-KUFVIS_clean_sbu_0--edge1-UVAHIK_clean_linker_0
_symmetry_space_group_name_H-M    P1
_symmetry_Int_Tables_number       1
_symmetry_cell_setting            triclinic
loop_
_symmetry_equiv_pos_as_xyz
'x, y, z'
_cell_length_a     35.742232
_cell_length_b     35.734451
_cell_length_c     136.1245
_cell_angle_alpha  89.997418
_cell_angle_beta   89.998806
_cell_angle_gamma 90.011974
loop_
_atom_site_label
_atom_site_type_symbol
_atom_site_fract_x
_atom_site_fract_y
_atom_site_fract_z
_atom_type_partial_charge
Mn0 Mn 0.26204 0.10334 0.18375 0.0
Mn1 Mn 0.21129 0.17702 0.19156 0.0
C2 C 0.26196 0.11935 0.20019 0.0
C3 C 0.31838 0.08067 0.17742 0.0
C4 C 0.17715 0.102 0.18586 0.0
O5 O 0.2503 0.13172 0.17114 0.0
O6 O 0.22324 0.18358 0.1774 0.0
C7 C 0.26801 0.23696 0.18963 0.0
N8 N 0.24356 0.21723 0.1953 0.0
C9 C 0.25938 0.25357 0.20959 0.0
C10 C 0.28449 0.27449 0.20389 0.0
C11 C 0.28888 0.26608 0.19387 0.0
C12 C 0.23921 0.225 0.20495 0.0
H13 H 0.27164 0.23043 0.18195 0.0
C14 C 0.23654 0.16454 0.17022 0.0
O15 O 0.28741 0.06199 0.17639 0.0
O16 O 0.31631 0.11258 0.1819 0.0
N17 N 0.19855 0.17413 0.2052 0.0
C18 C 0.1749 0.14988 0.2098 0.0
C19 C 0.16837 0.15367 0.21992 0.0
C20 C 0.18607 0.18243 0.2252 0.0
C21 C 0.21006 0.20723 0.2203 0.0
C22 C 0.21527 0.20226 0.21019 0.0
H23 H 0.16123 0.1277 0.20578 0.0
O24 O 0.27182 0.08595 0.1975 0.0
O25 O 0.2528 0.14213 0.19318 0.0
O26 O 0.20785 0.08452 0.18444 0.0
O27 O 0.17562 0.13672 0.18811 0.0
C28 C 0.22952 0.23627 0.22509 0.0
C29 C 0.25418 0.25941 0.21974 0.0
H30 H 0.30081 0.29682 0.20715 0.0
H31 H 0.30839 0.28194 0.18944 0.0
H32 H 0.14985 0.13438 0.22365 0.0
H33 H 0.18123 0.18505 0.23303 0.0
H34 H 0.22617 0.2407 0.23291 0.0
H35 H 0.26942 0.28127 0.22353 0.0
Mn36 Mn 0.902 0.76213 0.43328 0.0
Mn37 Mn 0.82706 0.71424 0.44155 0.0
C38 C 0.88627 0.76425 0.44973 0.0
C39 C 0.92648 0.81716 0.42658 0.0
C40 C 0.9009 0.67737 0.43603 0.0
O41 O 0.87299 0.75006 0.4208 0.0
O42 O 0.8207 0.72466 0.4273 0.0
C43 C 0.76875 0.77237 0.4392 0.0
N44 N 0.78784 0.74807 0.44505 0.0
C45 C 0.75226 0.76676 0.45924 0.0
C46 C 0.73202 0.79177 0.45334 0.0
C47 C 0.74036 0.79463 0.44328 0.0
C48 C 0.78009 0.74514 0.45474 0.0
H49 H 0.77524 0.77485 0.43148 0.0
C50 C 0.8399 0.73684 0.42001 0.0
O51 O 0.94395 0.78543 0.4257 0.0
O52 O 0.89459 0.81656 0.4311 0.0
N53 N 0.82973 0.70306 0.4553 0.0
C54 C 0.85332 0.67925 0.46007 0.0
C55 C 0.84947 0.67406 0.47025 0.0
C56 C 0.82134 0.69324 0.4754 0.0
C57 C 0.79723 0.71739 0.47032 0.0
C58 C 0.80218 0.72119 0.46016 0.0
H59 H 0.87502 0.66445 0.45616 0.0
O60 O 0.91993 0.77273 0.44695 0.0
O61 O 0.86313 0.75498 0.44281 0.0
O62 O 0.91911 0.70744 0.43431 0.0
O63 O 0.86626 0.677 0.43838 0.0
C64 C 0.76894 0.73837 0.47497 0.0
C65 C 0.74651 0.76307 0.46944 0.0
H66 H 0.71028 0.80917 0.45648 0.0
H67 H 0.72502 0.81404 0.4387 0.0
H68 H 0.86824 0.65543 0.47412 0.0
H69 H 0.81871 0.68946 0.48327 0.0
H70 H 0.76458 0.73614 0.48283 0.0
H71 H 0.72524 0.77948 0.47312 0.0
Mn72 Mn 0.24215 0.40143 0.68393 0.0
Mn73 Mn 0.29109 0.32688 0.69199 0.0
C74 C 0.24121 0.38571 0.7004 0.0
C75 C 0.18666 0.42552 0.67744 0.0
C76 C 0.327 0.40109 0.68633 0.0
O77 O 0.25378 0.37261 0.6714 0.0
O78 O 0.27988 0.32047 0.67778 0.0
C79 C 0.23329 0.26809 0.68986 0.0
N80 N 0.25782 0.28734 0.69561 0.0
C81 C 0.24055 0.25133 0.70985 0.0
C82 C 0.21534 0.2309 0.70406 0.0
C83 C 0.21163 0.23939 0.69403 0.0
C84 C 0.2615 0.2795 0.70528 0.0
H85 H 0.2302 0.27468 0.68216 0.0
C86 C 0.26721 0.33962 0.67054 0.0
O87 O 0.21821 0.44322 0.67644 0.0
O88 O 0.18767 0.39363 0.68195 0.0
N89 N 0.30312 0.32958 0.70568 0.0
C90 C 0.32701 0.35336 0.71036 0.0
C91 C 0.33294 0.34945 0.7205 0.0
C92 C 0.31442 0.32103 0.72572 0.0
C93 C 0.2902 0.2967 0.72073 0.0
C94 C 0.2856 0.30178 0.71061 0.0
H95 H 0.34131 0.37527 0.70639 0.0
O96 O 0.23224 0.41928 0.69764 0.0
O97 O 0.25015 0.36259 0.69344 0.0
O98 O 0.29669 0.41904 0.68475 0.0
O99 O 0.32779 0.36643 0.68867 0.0
C100 C 0.26996 0.26802 0.72545 0.0
C101 C 0.24513 0.24537 0.72001 0.0
H102 H 0.19842 0.20889 0.70725 0.0
H103 H 0.19205 0.22391 0.68952 0.0
H104 H 0.35164 0.36837 0.7243 0.0
H105 H 0.31881 0.31831 0.73356 0.0
H106 H 0.27285 0.26351 0.73328 0.0
H107 H 0.22929 0.2238 0.72375 0.0
Mn108 Mn 0.6007 0.73767 0.9332 0.0
Mn109 Mn 0.67412 0.78879 0.94104 0.0
C110 C 0.61756 0.73664 0.94958 0.0
C111 C 0.57853 0.68144 0.92666 0.0
C112 C 0.59842 0.8224 0.93576 0.0
O113 O 0.62828 0.75077 0.92057 0.0
O114 O 0.68009 0.77804 0.9268 0.0
C115 C 0.73455 0.73292 0.9386 0.0
N116 N 0.71486 0.75669 0.94447 0.0
C117 C 0.75188 0.73992 0.95856 0.0
C118 C 0.77277 0.71551 0.95265 0.0
C119 C 0.76401 0.71194 0.94264 0.0
C120 C 0.72299 0.76027 0.95412 0.0
H121 H 0.72773 0.72989 0.93092 0.0
C122 C 0.66087 0.76505 0.91961 0.0
O123 O 0.55936 0.71221 0.92584 0.0
O124 O 0.61061 0.68368 0.93104 0.0
N125 N 0.67178 0.80041 0.95476 0.0
C126 C 0.64757 0.8235 0.95956 0.0
C127 C 0.65179 0.82925 0.96971 0.0
C128 C 0.6809 0.81135 0.9748 0.0
C129 C 0.70564 0.78794 0.96969 0.0
C130 C 0.70027 0.78355 0.95957 0.0
H131 H 0.62512 0.83732 0.95569 0.0
O132 O 0.58416 0.72656 0.94696 0.0
O133 O 0.63981 0.74672 0.94254 0.0
O134 O 0.58125 0.79157 0.93424 0.0
O135 O 0.63321 0.82421 0.93792 0.0
C136 C 0.73497 0.76825 0.97429 0.0
C137 C 0.75804 0.74422 0.96873 0.0
H138 H 0.79534 0.69908 0.95575 0.0
H139 H 0.77984 0.69296 0.93804 0.0
H140 H 0.63254 0.84732 0.9736 0.0
H141 H 0.68382 0.81555 0.98265 0.0
H142 H 0.73967 0.77095 0.98212 0.0
H143 H 0.78013 0.72879 0.97237 0.0
Mn144 Mn 0.26252 0.40056 0.06126 0.0
Mn145 Mn 0.21164 0.32667 0.05364 0.0
C146 C 0.26235 0.38402 0.04486 0.0
C147 C 0.31891 0.42337 0.06752 0.0
C148 C 0.17763 0.40192 0.05917 0.0
O149 O 0.25079 0.37262 0.07393 0.0
O150 O 0.22362 0.32058 0.06781 0.0
C151 C 0.26828 0.26674 0.05569 0.0
N152 N 0.24385 0.2863 0.04999 0.0
C153 C 0.25963 0.2495 0.03577 0.0
C154 C 0.28472 0.22875 0.04152 0.0
C155 C 0.28913 0.23748 0.05152 0.0
C156 C 0.23948 0.27822 0.04035 0.0
H157 H 0.27193 0.27352 0.06337 0.0
C158 C 0.23698 0.33986 0.07494 0.0
O159 O 0.28798 0.44212 0.06852 0.0
O160 O 0.31677 0.39132 0.06312 0.0
N161 N 0.19888 0.3291 0.03999 0.0
C162 C 0.17525 0.35323 0.03534 0.0
C163 C 0.16872 0.34912 0.02522 0.0
C164 C 0.18639 0.32018 0.02001 0.0
C165 C 0.21036 0.29552 0.02496 0.0
C166 C 0.21556 0.3008 0.03506 0.0
H167 H 0.16161 0.37555 0.0393 0.0
O168 O 0.27226 0.41749 0.04747 0.0
O169 O 0.2532 0.36146 0.05192 0.0
O170 O 0.20836 0.41941 0.06055 0.0
O171 O 0.17604 0.36713 0.05699 0.0
C172 C 0.22979 0.26632 0.02024 0.0
C173 C 0.25443 0.24334 0.02564 0.0
H174 H 0.30103 0.20632 0.03831 0.0
H175 H 0.30863 0.22176 0.05598 0.0
H176 H 0.15022 0.3683 0.02145 0.0
H177 H 0.18155 0.31732 0.01219 0.0
H178 H 0.22644 0.26165 0.01243 0.0
H179 H 0.26966 0.22136 0.0219 0.0
Mn180 Mn 0.60169 0.76374 0.31158 0.0
Mn181 Mn 0.6754 0.71371 0.30348 0.0
C182 C 0.61792 0.76534 0.29516 0.0
C183 C 0.57924 0.81962 0.31825 0.0
C184 C 0.6003 0.67906 0.30891 0.0
O185 O 0.6299 0.7507 0.32412 0.0
O186 O 0.68184 0.72427 0.31772 0.0
C187 C 0.73532 0.77022 0.30582 0.0
N188 N 0.71562 0.74635 0.29998 0.0
C189 C 0.75182 0.76386 0.28579 0.0
C190 C 0.77269 0.78839 0.29167 0.0
C191 C 0.76435 0.79163 0.30172 0.0
C192 C 0.72337 0.74306 0.29029 0.0
H193 H 0.72882 0.77299 0.31353 0.0
C194 C 0.6627 0.73685 0.32498 0.0
O195 O 0.56037 0.78866 0.31908 0.0
O196 O 0.61117 0.81776 0.31379 0.0
N197 N 0.6726 0.70232 0.28975 0.0
C198 C 0.64843 0.67906 0.28499 0.0
C199 C 0.65224 0.6736 0.27482 0.0
C200 C 0.68092 0.69195 0.26966 0.0
C201 C 0.70562 0.71554 0.27473 0.0
C202 C 0.70068 0.71963 0.28488 0.0
H203 H 0.62631 0.6649 0.2889 0.0
O204 O 0.5845 0.77497 0.29788 0.0
O205 O 0.64054 0.75536 0.30213 0.0
O206 O 0.58279 0.70963 0.31051 0.0
O207 O 0.63504 0.67775 0.30667 0.0
C208 C 0.73451 0.73568 0.27008 0.0
C209 C 0.75756 0.75986 0.2756 0.0
H210 H 0.79493 0.80516 0.28853 0.0
H211 H 0.78017 0.81069 0.3063 0.0
H212 H 0.63303 0.6554 0.27096 0.0
H213 H 0.68352 0.68798 0.2618 0.0
H214 H 0.73889 0.73322 0.26223 0.0
H215 H 0.7793 0.77564 0.27191 0.0
Mn216 Mn 0.23985 0.10174 0.56231 0.0
Mn217 Mn 0.29382 0.17258 0.55408 0.0
C218 C 0.23892 0.11743 0.54585 0.0
C219 C 0.18303 0.08142 0.56891 0.0
C220 C 0.32438 0.09602 0.55975 0.0
O221 O 0.25385 0.12987 0.57478 0.0
O222 O 0.28349 0.17999 0.56832 0.0
C223 C 0.24203 0.23665 0.55631 0.0
N224 N 0.26443 0.21512 0.55052 0.0
C225 C 0.25154 0.25348 0.53638 0.0
C226 C 0.22857 0.27625 0.54222 0.0
C227 C 0.22374 0.26774 0.55221 0.0
C228 C 0.26942 0.22314 0.5409 0.0
H229 H 0.23808 0.23008 0.56398 0.0
C230 C 0.26956 0.16186 0.57559 0.0
O231 O 0.21334 0.06164 0.56985 0.0
O232 O 0.1861 0.11325 0.56443 0.0
N233 N 0.30504 0.16867 0.54037 0.0
C234 C 0.32504 0.14183 0.53558 0.0
C235 C 0.33058 0.14486 0.5254 0.0
C236 C 0.31564 0.17549 0.52026 0.0
C237 C 0.29524 0.20282 0.52535 0.0
C238 C 0.29082 0.19843 0.53551 0.0
H239 H 0.33645 0.11814 0.53948 0.0
O240 O 0.22821 0.08448 0.5487 0.0
O241 O 0.24994 0.14011 0.55274 0.0
O242 O 0.29301 0.08012 0.5614 0.0
O243 O 0.32731 0.13044 0.55734 0.0
C244 C 0.27823 0.23366 0.5207 0.0
C245 C 0.25646 0.25902 0.52621 0.0
H246 H 0.21409 0.30002 0.53906 0.0
H247 H 0.20585 0.28503 0.55674 0.0
H248 H 0.34621 0.12356 0.52151 0.0
H249 H 0.31965 0.17753 0.51239 0.0
H250 H 0.28112 0.23775 0.51285 0.0
H251 H 0.24295 0.28222 0.52252 0.0
Mn252 Mn 0.90062 0.74287 0.81152 0.0
Mn253 Mn 0.8268 0.79203 0.80311 0.0
C254 C 0.88541 0.74114 0.79504 0.0
C255 C 0.92389 0.68745 0.81827 0.0
C256 C 0.90107 0.82761 0.80885 0.0
O257 O 0.8714 0.75532 0.82392 0.0
O258 O 0.81965 0.78146 0.81733 0.0
C259 C 0.76747 0.73477 0.80523 0.0
N260 N 0.7872 0.75886 0.79946 0.0
C261 C 0.75207 0.7408 0.78514 0.0
C262 C 0.73116 0.71604 0.79094 0.0
C263 C 0.73896 0.71296 0.80103 0.0
C264 C 0.77999 0.76198 0.78974 0.0
H265 H 0.77354 0.73212 0.81297 0.0
C266 C 0.83844 0.76892 0.82466 0.0
O267 O 0.94188 0.71888 0.8192 0.0
O268 O 0.8922 0.68857 0.81366 0.0
N269 N 0.83026 0.80336 0.78939 0.0
C270 C 0.85443 0.82687 0.78471 0.0
C271 C 0.85115 0.83223 0.77452 0.0
C272 C 0.82301 0.81349 0.76926 0.0
C273 C 0.7983 0.78964 0.77424 0.0
C274 C 0.8027 0.78566 0.78441 0.0
H275 H 0.87615 0.84132 0.78871 0.0
O276 O 0.91883 0.73206 0.79789 0.0
O277 O 0.86222 0.75074 0.80191 0.0
O278 O 0.91871 0.79722 0.81056 0.0
O279 O 0.86649 0.82859 0.80644 0.0
C280 C 0.76993 0.76911 0.76948 0.0
C281 C 0.74687 0.74467 0.77492 0.0
H282 H 0.70933 0.69897 0.78772 0.0
H283 H 0.72311 0.69373 0.80554 0.0
H284 H 0.87037 0.85063 0.77073 0.0
H285 H 0.82082 0.81739 0.76139 0.0
H286 H 0.76598 0.77149 0.76162 0.0
H287 H 0.72555 0.7286 0.77116 0.0
Mn288 Mn 0.76383 0.60215 0.68356 0.0
Mn289 Mn 0.71217 0.67512 0.69143 0.0
C290 C 0.76371 0.61811 0.70001 0.0
C291 C 0.8204 0.58021 0.67719 0.0
C292 C 0.67897 0.59968 0.68574 0.0
O293 O 0.75164 0.63045 0.67098 0.0
O294 O 0.72387 0.68188 0.67726 0.0
C295 C 0.76804 0.73583 0.68947 0.0
N296 N 0.74395 0.71574 0.69515 0.0
C297 C 0.75949 0.75223 0.70944 0.0
C298 C 0.78422 0.77351 0.70372 0.0
C299 C 0.78858 0.76521 0.6937 0.0
C300 C 0.73964 0.72341 0.70481 0.0
H301 H 0.77164 0.7294 0.68177 0.0
C302 C 0.73741 0.66307 0.67007 0.0
O303 O 0.78965 0.56117 0.67617 0.0
O304 O 0.81797 0.61207 0.68168 0.0
N305 N 0.69965 0.67201 0.70508 0.0
C306 C 0.67638 0.64743 0.70969 0.0
C307 C 0.66995 0.65109 0.71983 0.0
C308 C 0.68734 0.68006 0.7251 0.0
C309 C 0.71094 0.70519 0.72018 0.0
C310 C 0.71607 0.70033 0.71006 0.0
H311 H 0.66295 0.62509 0.70569 0.0
O312 O 0.77395 0.58484 0.6973 0.0
O313 O 0.75417 0.64079 0.693 0.0
O314 O 0.7099 0.58264 0.68428 0.0
O315 O 0.67699 0.63436 0.68801 0.0
C316 C 0.73008 0.73447 0.72496 0.0
C317 C 0.75435 0.75796 0.71959 0.0
H318 H 0.80029 0.79604 0.70697 0.0
H319 H 0.8078 0.78135 0.68925 0.0
H320 H 0.65173 0.63155 0.72357 0.0
H321 H 0.68258 0.68258 0.73293 0.0
H322 H 0.72678 0.73882 0.73279 0.0
H323 H 0.76934 0.78001 0.72338 0.0
Mn324 Mn 0.40076 0.25972 0.93342 0.0
Mn325 Mn 0.32629 0.21107 0.94166 0.0
C326 C 0.38504 0.26149 0.94987 0.0
C327 C 0.42467 0.31503 0.92675 0.0
C328 C 0.40048 0.17495 0.93609 0.0
O329 O 0.37184 0.24753 0.92093 0.0
O330 O 0.31977 0.22163 0.92742 0.0
C331 C 0.26748 0.26873 0.93937 0.0
N332 N 0.2868 0.24452 0.9452 0.0
C333 C 0.25121 0.26281 0.95942 0.0
C334 C 0.23072 0.28771 0.95355 0.0
C335 C 0.23895 0.29073 0.94349 0.0
C336 C 0.27917 0.24145 0.95489 0.0
H337 H 0.27389 0.27133 0.93165 0.0
C338 C 0.33884 0.23408 0.92013 0.0
O339 O 0.44246 0.28349 0.92584 0.0
O340 O 0.39281 0.31408 0.93128 0.0
N341 N 0.32913 0.19974 0.95539 0.0
C342 C 0.35293 0.17605 0.96013 0.0
C343 C 0.34919 0.17072 0.97031 0.0
C344 C 0.32096 0.18964 0.97549 0.0
C345 C 0.29664 0.21366 0.97044 0.0
C346 C 0.30149 0.21761 0.96029 0.0
H347 H 0.37471 0.16145 0.9562 0.0
O348 O 0.41862 0.27033 0.94709 0.0
O349 O 0.36199 0.2521 0.94294 0.0
O350 O 0.41841 0.20521 0.93439 0.0
O351 O 0.36584 0.17425 0.93844 0.0
C352 C 0.26823 0.23438 0.97512 0.0
C353 C 0.24557 0.25898 0.96962 0.0
H354 H 0.20887 0.30492 0.95671 0.0
H355 H 0.22343 0.31007 0.93893 0.0
H356 H 0.36812 0.15218 0.97416 0.0
H357 H 0.31842 0.18575 0.98336 0.0
H358 H 0.26393 0.23203 0.98298 0.0
H359 H 0.2242 0.27519 0.97332 0.0
Mn360 Mn 0.7408 0.90142 0.18355 0.0
Mn361 Mn 0.79124 0.82749 0.19137 0.0
C362 C 0.74108 0.88556 0.20001 0.0
C363 C 0.6847 0.92502 0.17729 0.0
C364 C 0.82579 0.90221 0.18562 0.0
O365 O 0.75193 0.87277 0.17096 0.0
O366 O 0.77925 0.82103 0.17721 0.0
C367 C 0.73415 0.7679 0.18944 0.0
N368 N 0.75873 0.78746 0.1951 0.0
C369 C 0.7428 0.75111 0.20939 0.0
C370 C 0.71755 0.73036 0.20368 0.0
C371 C 0.71315 0.73887 0.19367 0.0
C372 C 0.76309 0.77961 0.20475 0.0
H373 H 0.73052 0.7745 0.18176 0.0
C374 C 0.76575 0.83997 0.17004 0.0
O375 O 0.71604 0.943 0.17618 0.0
O376 O 0.68626 0.8931 0.1818 0.0
N377 N 0.80402 0.83025 0.20501 0.0
C378 C 0.82784 0.85434 0.20961 0.0
C379 C 0.83441 0.85043 0.21973 0.0
C380 C 0.81659 0.82172 0.225 0.0
C381 C 0.79243 0.7971 0.2201 0.0
C382 C 0.78717 0.80218 0.20999 0.0
H383 H 0.84161 0.87647 0.2056 0.0
O384 O 0.73154 0.91905 0.19731 0.0
O385 O 0.74987 0.86261 0.193 0.0
O386 O 0.79514 0.91968 0.18415 0.0
O387 O 0.82723 0.86756 0.18794 0.0
C388 C 0.77286 0.7681 0.22488 0.0
C389 C 0.74805 0.74514 0.21953 0.0
H390 H 0.70114 0.70809 0.20694 0.0
H391 H 0.69354 0.72314 0.18924 0.0
H392 H 0.85306 0.86958 0.22346 0.0
H393 H 0.82147 0.81901 0.23283 0.0
H394 H 0.77626 0.76358 0.2327 0.0
H395 H 0.73273 0.72332 0.22331 0.0
Mn396 Mn 0.10176 0.23936 0.43308 0.0
Mn397 Mn 0.17336 0.29176 0.44154 0.0
C398 C 0.11754 0.23703 0.44953 0.0
C399 C 0.08092 0.18318 0.4262 0.0
C400 C 0.09721 0.32378 0.43604 0.0
O401 O 0.13001 0.25394 0.42067 0.0
O402 O 0.18063 0.28225 0.42727 0.0
C403 C 0.23665 0.23916 0.43909 0.0
N404 N 0.21547 0.26154 0.44498 0.0
C405 C 0.25371 0.24728 0.45904 0.0
C406 C 0.27611 0.22432 0.45311 0.0
C407 C 0.26748 0.22019 0.4431 0.0
C408 C 0.2236 0.26584 0.45461 0.0
H409 H 0.22999 0.23576 0.4314 0.0
C410 C 0.16226 0.26916 0.41993 0.0
O411 O 0.06138 0.21372 0.42542 0.0
O412 O 0.11276 0.18567 0.43069 0.0
N413 N 0.16963 0.30217 0.45531 0.0
C414 C 0.1431 0.32227 0.46018 0.0
C415 C 0.14626 0.32717 0.47039 0.0
C416 C 0.1767 0.31151 0.47545 0.0
C417 C 0.20372 0.29104 0.47027 0.0
C418 C 0.19922 0.28726 0.4601 0.0
H419 H 0.11956 0.33424 0.45634 0.0
O420 O 0.08445 0.22689 0.44665 0.0
O421 O 0.14028 0.24829 0.44269 0.0
O422 O 0.08079 0.29276 0.43427 0.0
O423 O 0.13169 0.32601 0.43843 0.0
C424 C 0.23435 0.27335 0.47484 0.0
C425 C 0.25937 0.25155 0.46923 0.0
H426 H 0.29968 0.20933 0.45619 0.0
H427 H 0.28449 0.20231 0.43849 0.0
H428 H 0.1252 0.34286 0.47434 0.0
H429 H 0.17883 0.31503 0.48334 0.0
H430 H 0.23851 0.27572 0.4827 0.0
H431 H 0.28239 0.23749 0.47285 0.0
Mn432 Mn 0.76166 0.90083 0.56127 0.0
Mn433 Mn 0.71388 0.82497 0.55356 0.0
C434 C 0.76226 0.88446 0.54485 0.0
C435 C 0.81691 0.92621 0.56759 0.0
C436 C 0.67671 0.89864 0.55912 0.0
O437 O 0.75114 0.87225 0.57392 0.0
O438 O 0.72581 0.81935 0.56775 0.0
C439 C 0.77285 0.76739 0.55569 0.0
N440 N 0.74775 0.78594 0.54995 0.0
C441 C 0.76501 0.7496 0.53578 0.0
C442 C 0.79083 0.72989 0.54155 0.0
C443 C 0.79483 0.7389 0.55154 0.0
C444 C 0.74377 0.7776 0.54032 0.0
H445 H 0.77616 0.77437 0.56336 0.0
C446 C 0.73844 0.83903 0.5749 0.0
O447 O 0.78507 0.94336 0.5686 0.0
O448 O 0.81635 0.89418 0.56313 0.0
N449 N 0.70125 0.82689 0.5399 0.0
C450 C 0.67678 0.85006 0.53522 0.0
C451 C 0.67051 0.84562 0.5251 0.0
C452 C 0.68928 0.8173 0.51992 0.0
C453 C 0.71411 0.7936 0.5249 0.0
C454 C 0.71905 0.7992 0.535 0.0
H455 H 0.66227 0.87189 0.53916 0.0
O456 O 0.77066 0.91832 0.54749 0.0
O457 O 0.75405 0.86145 0.5519 0.0
O458 O 0.70672 0.91727 0.56057 0.0
O459 O 0.67654 0.86389 0.55687 0.0
C460 C 0.73463 0.76507 0.52022 0.0
C461 C 0.76008 0.7431 0.52565 0.0
H462 H 0.80799 0.70804 0.53837 0.0
H463 H 0.81487 0.72398 0.55603 0.0
H464 H 0.65134 0.86405 0.5213 0.0
H465 H 0.68462 0.81417 0.5121 0.0
H466 H 0.73148 0.76016 0.51241 0.0
H467 H 0.77613 0.72164 0.52193 0.0
Mn468 Mn 0.09934 0.26549 0.81194 0.0
Mn469 Mn 0.17298 0.21568 0.80371 0.0
C470 C 0.11532 0.26742 0.79551 0.0
C471 C 0.07695 0.32121 0.81872 0.0
C472 C 0.09799 0.18087 0.80917 0.0
O473 O 0.12772 0.2522 0.82444 0.0
O474 O 0.17962 0.22601 0.81795 0.0
C475 C 0.23285 0.27224 0.80604 0.0
N476 N 0.21312 0.24842 0.8002 0.0
C477 C 0.24914 0.26614 0.786 0.0
C478 C 0.27005 0.29062 0.79189 0.0
C479 C 0.26181 0.29374 0.80195 0.0
C480 C 0.22075 0.24527 0.79051 0.0
H481 H 0.22643 0.27492 0.81376 0.0
C482 C 0.16056 0.23839 0.82525 0.0
O483 O 0.0581 0.29022 0.81951 0.0
O484 O 0.10883 0.31946 0.81422 0.0
N485 N 0.17 0.2045 0.78997 0.0
C486 C 0.1458 0.18128 0.78521 0.0
C487 C 0.14951 0.17594 0.77503 0.0
C488 C 0.17812 0.19436 0.76987 0.0
C489 C 0.20286 0.21791 0.77494 0.0
C490 C 0.19801 0.22189 0.78509 0.0
H491 H 0.12373 0.16706 0.78913 0.0
O492 O 0.08194 0.27699 0.79828 0.0
O493 O 0.13806 0.25732 0.80244 0.0
O494 O 0.08045 0.2114 0.81082 0.0
O495 O 0.1327 0.17963 0.8069 0.0
C496 C 0.23169 0.23812 0.77028 0.0
C497 C 0.25478 0.26226 0.77581 0.0
H498 H 0.29224 0.30745 0.78874 0.0
H499 H 0.27766 0.31277 0.80652 0.0
H500 H 0.13026 0.15777 0.77117 0.0
H501 H 0.18065 0.19047 0.76201 0.0
H502 H 0.236 0.23574 0.76243 0.0
H503 H 0.27647 0.27809 0.77212 0.0
Mn504 Mn 0.74159 0.60282 0.0612 0.0
Mn505 Mn 0.79211 0.67707 0.05361 0.0
C506 C 0.74226 0.61909 0.04478 0.0
C507 C 0.68541 0.57901 0.06735 0.0
C508 C 0.82663 0.60222 0.05925 0.0
O509 O 0.75243 0.6311 0.07386 0.0
O510 O 0.77983 0.68308 0.06777 0.0
C511 C 0.73486 0.73645 0.05559 0.0
N512 N 0.75959 0.71713 0.04992 0.0
C513 C 0.74372 0.75378 0.03568 0.0
C514 C 0.71832 0.77428 0.04139 0.0
C515 C 0.71381 0.76551 0.05139 0.0
C516 C 0.76406 0.72525 0.04029 0.0
H517 H 0.73113 0.72964 0.06326 0.0
C518 C 0.7662 0.66387 0.07488 0.0
O519 O 0.71673 0.56103 0.06846 0.0
O520 O 0.68702 0.61103 0.06289 0.0
N521 N 0.80517 0.67477 0.03998 0.0
C522 C 0.82918 0.65092 0.03537 0.0
C523 C 0.8359 0.65513 0.02526 0.0
C524 C 0.81805 0.68389 0.02002 0.0
C525 C 0.7937 0.70828 0.02494 0.0
C526 C 0.78831 0.70291 0.03503 0.0
H527 H 0.84297 0.62874 0.03935 0.0
O528 O 0.73267 0.58553 0.0474 0.0
O529 O 0.75084 0.64191 0.05184 0.0
O530 O 0.79596 0.58467 0.06065 0.0
O531 O 0.82809 0.63695 0.057 0.0
C532 C 0.77407 0.73729 0.02019 0.0
C533 C 0.74907 0.76 0.02556 0.0
H534 H 0.70186 0.79656 0.03816 0.0
H535 H 0.69408 0.78104 0.05583 0.0
H536 H 0.8547 0.63616 0.02152 0.0
H537 H 0.82303 0.68683 0.01221 0.0
H538 H 0.77755 0.74201 0.01238 0.0
H539 H 0.7337 0.78183 0.02179 0.0
Mn540 Mn 0.40194 0.24148 0.3117 0.0
Mn541 Mn 0.32781 0.29085 0.30355 0.0
C542 C 0.38581 0.23974 0.29527 0.0
C543 C 0.42548 0.186 0.31835 0.0
C544 C 0.40252 0.32622 0.30897 0.0
O545 O 0.37348 0.25411 0.32423 0.0
O546 O 0.32154 0.28049 0.31781 0.0
C547 C 0.26846 0.23379 0.30598 0.0
N548 N 0.28787 0.25778 0.30011 0.0
C549 C 0.2517 0.23975 0.28596 0.0
C550 C 0.23112 0.21509 0.29188 0.0
C551 C 0.2396 0.21205 0.30193 0.0
C552 C 0.28001 0.26086 0.29042 0.0
H553 H 0.27507 0.23116 0.31369 0.0
C554 C 0.34067 0.26795 0.32507 0.0
O555 O 0.44358 0.21739 0.31922 0.0
O556 O 0.3935 0.1872 0.31389 0.0
N557 N 0.3304 0.30205 0.28981 0.0
C558 C 0.3543 0.32548 0.28501 0.0
C559 C 0.35032 0.3308 0.27484 0.0
C560 C 0.32176 0.31213 0.26972 0.0
C561 C 0.29733 0.28837 0.27483 0.0
C562 C 0.30243 0.28442 0.28498 0.0
H563 H 0.37633 0.33989 0.2889 0.0
O564 O 0.41935 0.23057 0.298 0.0
O565 O 0.36302 0.24943 0.30224 0.0
O566 O 0.42014 0.29579 0.31065 0.0
O567 O 0.36783 0.3273 0.30668 0.0
C568 C 0.26857 0.26791 0.27021 0.0
C569 C 0.24581 0.24358 0.27577 0.0
H570 H 0.209 0.19808 0.28877 0.0
H571 H 0.22401 0.19289 0.30652 0.0
H572 H 0.36933 0.34914 0.27095 0.0
H573 H 0.31902 0.316 0.26186 0.0
H574 H 0.26408 0.27026 0.26237 0.0
H575 H 0.22418 0.22756 0.27212 0.0
C576 C 0.23333 0.28347 0.08579 0.0
C577 C 0.23719 0.32248 0.08481 0.0
C578 C 0.23409 0.26671 0.09504 0.0
C579 C 0.21548 0.28429 0.12088 0.0
H580 H 0.2795 0.19848 0.12553 0.0
C581 C 0.23282 0.22128 0.15951 0.0
C582 C 0.23671 0.18228 0.16039 0.0
C583 C 0.23347 0.23841 0.15031 0.0
C584 C 0.26101 0.22203 0.12433 0.0
H585 H 0.24456 0.37447 0.09281 0.0
H586 H 0.24513 0.34503 0.10905 0.0
H587 H 0.27939 0.2285 0.10944 0.0
H588 H 0.24397 0.13062 0.15226 0.0
H589 H 0.24377 0.16036 0.13614 0.0
H590 H 0.19612 0.27738 0.13561 0.0
C591 C 0.24175 0.32759 0.1026 0.0
C592 C 0.26115 0.23932 0.11513 0.0
C593 C 0.24157 0.34437 0.09332 0.0
C594 C 0.2411 0.16075 0.15183 0.0
C595 C 0.24123 0.17788 0.14259 0.0
C596 C 0.21493 0.2667 0.13004 0.0
C597 C 0.23819 0.28859 0.10353 0.0
C598 C 0.23844 0.27064 0.11333 0.0
C599 C 0.23749 0.21696 0.14171 0.0
C600 C 0.23777 0.23539 0.1319 0.0
H601 H 0.23006 0.26574 0.0794 0.0
H602 H 0.23099 0.23662 0.09558 0.0
H603 H 0.19735 0.30811 0.11963 0.0
H604 H 0.22981 0.23879 0.16596 0.0
H605 H 0.23132 0.26861 0.14996 0.0
C606 C 0.84352 0.73982 0.4016 0.0
C607 C 0.82205 0.73632 0.4102 0.0
C608 C 0.82632 0.73944 0.39238 0.0
C609 C 0.73712 0.71341 0.37998 0.0
H610 H 0.77552 0.77689 0.35919 0.0
C611 C 0.65875 0.74045 0.34338 0.0
C612 C 0.68034 0.73622 0.33481 0.0
C613 C 0.67581 0.74018 0.35263 0.0
C614 C 0.76465 0.75889 0.36493 0.0
H615 H 0.76554 0.73035 0.41584 0.0
H616 H 0.73559 0.73094 0.39985 0.0
H617 H 0.80587 0.7772 0.37523 0.0
H618 H 0.73684 0.72872 0.32927 0.0
H619 H 0.76644 0.72881 0.34538 0.0
H620 H 0.69533 0.6959 0.36966 0.0
C621 C 0.7658 0.73282 0.40017 0.0
C622 C 0.78213 0.75888 0.3741 0.0
C623 C 0.78301 0.73271 0.40937 0.0
C624 C 0.71932 0.7319 0.3357 0.0
C625 C 0.73636 0.73218 0.34492 0.0
C626 C 0.71937 0.71382 0.37084 0.0
C627 C 0.78719 0.73605 0.39154 0.0
C628 C 0.76867 0.73604 0.38175 0.0
C629 C 0.71479 0.73627 0.35347 0.0
C630 C 0.73307 0.73644 0.36322 0.0
H631 H 0.87368 0.74244 0.40199 0.0
H632 H 0.84378 0.74138 0.3859 0.0
H633 H 0.72635 0.69493 0.38561 0.0
H634 H 0.62868 0.74378 0.34295 0.0
H635 H 0.6586 0.74358 0.35911 0.0
C636 C 0.27658 0.2186 0.58621 0.0
C637 C 0.27064 0.17981 0.58538 0.0
C638 C 0.27629 0.23597 0.59539 0.0
C639 C 0.29174 0.21927 0.62144 0.0
H640 H 0.22984 0.30712 0.6254 0.0
C641 C 0.27063 0.28284 0.65985 0.0
C642 C 0.26764 0.32192 0.66072 0.0
C643 C 0.27088 0.26579 0.65064 0.0
C644 C 0.24777 0.283 0.6244 0.0
H645 H 0.26036 0.12877 0.59359 0.0
H646 H 0.26064 0.1592 0.60969 0.0
H647 H 0.23118 0.27678 0.60935 0.0
H648 H 0.26287 0.3738 0.65255 0.0
H649 H 0.26465 0.34416 0.63642 0.0
H650 H 0.30928 0.22584 0.63633 0.0
C651 C 0.26525 0.17604 0.60318 0.0
C652 C 0.24834 0.26554 0.61521 0.0
C653 C 0.26495 0.1587 0.59397 0.0
C654 C 0.26499 0.3436 0.65213 0.0
C655 C 0.26579 0.32654 0.64289 0.0
C656 C 0.29162 0.23701 0.63058 0.0
C657 C 0.27063 0.21487 0.60396 0.0
C658 C 0.27019 0.23343 0.61367 0.0
C659 C 0.26871 0.28738 0.64202 0.0
C660 C 0.26945 0.269 0.6322 0.0
H661 H 0.28093 0.23575 0.57975 0.0
H662 H 0.28079 0.26591 0.59581 0.0
H663 H 0.30919 0.1948 0.62039 0.0
H664 H 0.2723 0.26524 0.66632 0.0
H665 H 0.2723 0.23555 0.6503 0.0
C666 C 0.84137 0.76517 0.84305 0.0
C667 C 0.82023 0.76925 0.83442 0.0
C668 C 0.82384 0.765 0.85223 0.0
C669 C 0.73426 0.7901 0.86457 0.0
H670 H 0.77244 0.72536 0.88512 0.0
C671 C 0.65633 0.76151 0.90121 0.0
C672 C 0.67817 0.76574 0.90973 0.0
C673 C 0.67311 0.76196 0.89193 0.0
C674 C 0.76161 0.74367 0.87945 0.0
H675 H 0.76397 0.77585 0.82866 0.0
H676 H 0.73341 0.77431 0.84458 0.0
H677 H 0.80288 0.72595 0.86909 0.0
H678 H 0.73481 0.77339 0.91517 0.0
H679 H 0.76392 0.77357 0.899 0.0
H680 H 0.69242 0.80703 0.87494 0.0
C681 C 0.76363 0.77235 0.84432 0.0
C682 C 0.77915 0.74422 0.87028 0.0
C683 C 0.78118 0.77303 0.83517 0.0
C684 C 0.71711 0.77021 0.90877 0.0
C685 C 0.73387 0.77008 0.89951 0.0
C686 C 0.71643 0.78914 0.8737 0.0
C687 C 0.78469 0.7684 0.85298 0.0
C688 C 0.76585 0.76761 0.86273 0.0
C689 C 0.71206 0.76601 0.89101 0.0
C690 C 0.7301 0.7661 0.88123 0.0
H691 H 0.87153 0.76243 0.84273 0.0
H692 H 0.84107 0.76258 0.85874 0.0
H693 H 0.72359 0.80895 0.85901 0.0
H694 H 0.62628 0.75807 0.90171 0.0
H695 H 0.65573 0.75861 0.88547 0.0
C696 C 0.73635 0.78254 0.58573 0.0
C697 C 0.73897 0.82165 0.58476 0.0
C698 C 0.73715 0.76581 0.59499 0.0
C699 C 0.71635 0.78288 0.62072 0.0
H700 H 0.78216 0.69866 0.62565 0.0
C701 C 0.73268 0.71984 0.6594 0.0
C702 C 0.73745 0.68092 0.66026 0.0
C703 C 0.73345 0.73711 0.65021 0.0
C704 C 0.76318 0.72175 0.62437 0.0
H705 H 0.74429 0.87385 0.59278 0.0
H706 H 0.74496 0.84444 0.60902 0.0
H707 H 0.78246 0.72883 0.60958 0.0
H708 H 0.74632 0.62956 0.6521 0.0
H709 H 0.74635 0.65951 0.63601 0.0
H710 H 0.69612 0.77534 0.63536 0.0
C711 C 0.74249 0.8269 0.60256 0.0
C712 C 0.76355 0.73914 0.61518 0.0
C713 C 0.74226 0.84367 0.59328 0.0
C714 C 0.74276 0.65962 0.6517 0.0
C715 C 0.74302 0.67687 0.64247 0.0
C716 C 0.71558 0.7652 0.62987 0.0
C717 C 0.74007 0.78781 0.60349 0.0
C718 C 0.74018 0.76988 0.61328 0.0
C719 C 0.73848 0.71587 0.64162 0.0
C720 C 0.73905 0.73444 0.63183 0.0
H721 H 0.73395 0.76471 0.57933 0.0
H722 H 0.73494 0.73564 0.59551 0.0
H723 H 0.6977 0.80623 0.6194 0.0
H724 H 0.72894 0.73719 0.66585 0.0
H725 H 0.73063 0.76725 0.64988 0.0
C726 C 0.28189 0.22982 0.90952 0.0
C727 C 0.3209 0.23373 0.91033 0.0
C728 C 0.26456 0.23032 0.90033 0.0
C729 C 0.2804 0.25823 0.87438 0.0
H730 H 0.19387 0.19512 0.86972 0.0
C731 C 0.21732 0.23332 0.83592 0.0
C732 C 0.17831 0.23747 0.83507 0.0
C733 C 0.23445 0.23319 0.84512 0.0
C734 C 0.21783 0.21308 0.87096 0.0
H735 H 0.37239 0.2407 0.9021 0.0
H736 H 0.34231 0.2403 0.88603 0.0
H737 H 0.22512 0.1932 0.88563 0.0
H738 H 0.12668 0.24432 0.84326 0.0
H739 H 0.15677 0.24337 0.85941 0.0
H740 H 0.2735 0.27723 0.85956 0.0
C741 C 0.32493 0.23785 0.89252 0.0
C742 C 0.23571 0.21212 0.88008 0.0
C743 C 0.34225 0.23784 0.90173 0.0
C744 C 0.15678 0.24114 0.84366 0.0
C745 C 0.17393 0.24044 0.8529 0.0
C746 C 0.2628 0.25879 0.86522 0.0
C747 C 0.28583 0.23424 0.8917 0.0
C748 C 0.26717 0.23479 0.88193 0.0
C749 C 0.21294 0.23667 0.8537 0.0
C750 C 0.23131 0.2363 0.86344 0.0
H751 H 0.26451 0.22698 0.91599 0.0
H752 H 0.23436 0.22823 0.90003 0.0
H753 H 0.30406 0.2766 0.87558 0.0
H754 H 0.23479 0.23058 0.82945 0.0
H755 H 0.26455 0.22994 0.84555 0.0
C756 C 0.76937 0.72035 0.0857 0.0
C757 C 0.76563 0.68133 0.08474 0.0
C758 C 0.76834 0.73717 0.09495 0.0
C759 C 0.78663 0.71976 0.12079 0.0
H760 H 0.72247 0.80552 0.12537 0.0
C761 C 0.76925 0.78311 0.15938 0.0
C762 C 0.7654 0.82212 0.16023 0.0
C763 C 0.76852 0.76588 0.15019 0.0
C764 C 0.74099 0.78198 0.12419 0.0
H765 H 0.75816 0.62937 0.09275 0.0
H766 H 0.75714 0.65891 0.10897 0.0
H767 H 0.72273 0.77538 0.1093 0.0
H768 H 0.75809 0.87369 0.15206 0.0
H769 H 0.75814 0.84378 0.13596 0.0
H770 H 0.80589 0.7268 0.13553 0.0
C771 C 0.76063 0.67632 0.10252 0.0
C772 C 0.74094 0.76462 0.115 0.0
C773 C 0.76107 0.65949 0.09324 0.0
C774 C 0.76093 0.84355 0.15165 0.0
C775 C 0.76072 0.82633 0.14243 0.0
C776 C 0.7871 0.73741 0.12994 0.0
C777 C 0.76411 0.71533 0.10344 0.0
C778 C 0.7637 0.73332 0.11323 0.0
C779 C 0.76446 0.78723 0.14158 0.0
C780 C 0.7642 0.7687 0.13178 0.0
H781 H 0.77276 0.73805 0.0793 0.0
H782 H 0.77138 0.76728 0.09547 0.0
H783 H 0.80481 0.69596 0.11956 0.0
H784 H 0.77232 0.76567 0.16584 0.0
H785 H 0.77066 0.73568 0.14986 0.0
C786 C 0.15914 0.26569 0.40153 0.0
C787 C 0.18024 0.27063 0.41014 0.0
C788 C 0.17653 0.26623 0.39233 0.0
C789 C 0.26514 0.29419 0.37988 0.0
H790 H 0.22919 0.22733 0.35952 0.0
C791 C 0.34468 0.2655 0.34349 0.0
C792 C 0.32302 0.26872 0.33491 0.0
C793 C 0.32761 0.26613 0.35273 0.0
C794 C 0.23938 0.24625 0.36513 0.0
H795 H 0.23626 0.27968 0.41584 0.0
H796 H 0.26661 0.27931 0.3999 0.0
H797 H 0.19861 0.22768 0.37552 0.0
H798 H 0.2664 0.27475 0.32932 0.0
H799 H 0.23678 0.27517 0.34544 0.0
H800 H 0.30658 0.31189 0.36948 0.0
C801 C 0.2365 0.27614 0.40018 0.0
C802 C 0.22174 0.24667 0.37429 0.0
C803 C 0.21907 0.27613 0.40935 0.0
C804 C 0.28396 0.27235 0.33577 0.0
C805 C 0.26692 0.27237 0.34499 0.0
C806 C 0.28309 0.29335 0.37076 0.0
C807 C 0.2155 0.27118 0.39154 0.0
C808 C 0.23427 0.27077 0.38177 0.0
C809 C 0.28856 0.26933 0.35355 0.0
C810 C 0.27024 0.26952 0.3633 0.0
H811 H 0.12914 0.26164 0.40189 0.0
H812 H 0.15932 0.26302 0.38584 0.0
H813 H 0.27519 0.3136 0.38538 0.0
H814 H 0.37482 0.26275 0.34307 0.0
H815 H 0.34486 0.26356 0.35924 0.0
C816 C 0.2971 0.16215 0.21109 0.0
C817 C 0.27154 0.13269 0.21006 0.0
C818 C 0.30807 0.17419 0.22039 0.0
C819 C 0.3129 0.14317 0.24626 0.0
H820 H 0.33007 0.24872 0.25119 0.0
C821 C 0.34315 0.20259 0.28482 0.0
C822 C 0.37231 0.22868 0.28554 0.0
C823 C 0.33037 0.19088 0.27565 0.0
C824 C 0.32566 0.21915 0.24988 0.0
H825 H 0.2386 0.0913 0.21775 0.0
H826 H 0.25673 0.11303 0.23415 0.0
H827 H 0.30704 0.2286 0.23517 0.0
H828 H 0.41274 0.26142 0.27743 0.0
H829 H 0.3899 0.24142 0.26122 0.0
H830 H 0.33131 0.13389 0.26103 0.0
C831 C 0.26852 0.12685 0.22779 0.0
C832 C 0.31245 0.20757 0.24071 0.0
C833 C 0.25788 0.11455 0.21844 0.0
C834 C 0.38962 0.24189 0.27698 0.0
C835 C 0.37651 0.23054 0.26777 0.0
C836 C 0.32584 0.15479 0.25544 0.0
C837 C 0.2938 0.15684 0.22887 0.0
C838 C 0.30616 0.16939 0.23877 0.0
C839 C 0.34667 0.205 0.26703 0.0
C840 C 0.3326 0.19285 0.25732 0.0
H841 H 0.30889 0.17567 0.20467 0.0
H842 H 0.32825 0.19671 0.22092 0.0
H843 H 0.30904 0.11351 0.24498 0.0
H844 H 0.33013 0.19135 0.29138 0.0
H845 H 0.30728 0.17129 0.2753 0.0
C846 C 0.89061 0.76223 0.46802 0.0
C847 C 0.87323 0.77558 0.45949 0.0
C848 C 0.87789 0.77377 0.47725 0.0
C849 C 0.82717 0.84973 0.48963 0.0
H850 H 0.81 0.77598 0.51001 0.0
C851 C 0.75818 0.88889 0.5266 0.0
C852 C 0.77236 0.87132 0.535 0.0
C853 C 0.76922 0.87677 0.51726 0.0
C854 C 0.81491 0.79699 0.50444 0.0
H855 H 0.83139 0.81342 0.45371 0.0
H856 H 0.8091 0.8337 0.46982 0.0
H857 H 0.83285 0.75593 0.49398 0.0
H858 H 0.81105 0.82965 0.54045 0.0
H859 H 0.83101 0.80888 0.52422 0.0
H860 H 0.8098 0.89089 0.50007 0.0
C861 C 0.832 0.8139 0.46944 0.0
C862 C 0.82807 0.78547 0.49526 0.0
C863 C 0.84444 0.80205 0.46025 0.0
C864 C 0.79886 0.84268 0.53401 0.0
C865 C 0.81019 0.8308 0.52472 0.0
C866 C 0.81418 0.86129 0.49882 0.0
C867 C 0.84833 0.79962 0.47804 0.0
C868 C 0.83444 0.81175 0.48778 0.0
C869 C 0.79538 0.84754 0.51622 0.0
C870 C 0.80798 0.83508 0.50634 0.0
H871 H 0.91347 0.74242 0.46753 0.0
H872 H 0.89134 0.76276 0.48377 0.0
H873 H 0.83222 0.87065 0.48403 0.0
H874 H 0.73818 0.91152 0.52725 0.0
H875 H 0.75705 0.8901 0.51088 0.0
C876 C 0.20485 0.3438 0.71126 0.0
C877 C 0.23099 0.37277 0.71026 0.0
C878 C 0.19338 0.3321 0.72056 0.0
C879 C 0.18874 0.36327 0.74643 0.0
H880 H 0.17002 0.25797 0.75137 0.0
C881 C 0.15817 0.3042 0.78502 0.0
C882 C 0.12879 0.27836 0.78576 0.0
C883 C 0.17089 0.31583 0.77583 0.0
C884 C 0.17485 0.28749 0.75005 0.0
H885 H 0.26441 0.41369 0.71798 0.0
H886 H 0.24543 0.39251 0.73436 0.0
H887 H 0.1932 0.27777 0.73534 0.0
H888 H 0.08792 0.24603 0.7777 0.0
H889 H 0.11065 0.26588 0.76147 0.0
H890 H 0.17058 0.3728 0.76121 0.0
C891 C 0.23356 0.37883 0.72799 0.0
C892 C 0.18816 0.29888 0.74088 0.0
C893 C 0.24468 0.39081 0.71865 0.0
C894 C 0.11121 0.26536 0.77722 0.0
C895 C 0.12426 0.27662 0.768 0.0
C896 C 0.17568 0.35183 0.75562 0.0
C897 C 0.20775 0.34929 0.72905 0.0
C898 C 0.19505 0.33695 0.73893 0.0
C899 C 0.15432 0.30189 0.76723 0.0
C900 C 0.16839 0.31387 0.7575 0.0
H901 H 0.19303 0.33039 0.70483 0.0
H902 H 0.17281 0.30994 0.72106 0.0
H903 H 0.19306 0.39286 0.74515 0.0
H904 H 0.17139 0.3153 0.79156 0.0
H905 H 0.19416 0.3352 0.77546 0.0
C906 C 0.74722 0.61442 0.02655 0.0
C907 C 0.73306 0.63243 0.03489 0.0
C908 C 0.73691 0.62666 0.01717 0.0
C909 C 0.6927 0.70689 0.0041 0.0
H910 H 0.67469 0.63277 0.98384 0.0
C911 C 0.61444 0.73937 0.96787 0.0
C912 C 0.6317 0.72624 0.9593 0.0
C913 C 0.62806 0.72855 0.97708 0.0
C914 C 0.67994 0.6538 0.9894 0.0
H915 H 0.6952 0.67514 0.04017 0.0
H916 H 0.6764 0.69606 0.02386 0.0
H917 H 0.69703 0.61282 -9e-05 0.0
H918 H 0.67441 0.6896 0.95344 0.0
H919 H 0.69814 0.67041 0.9695 0.0
H920 H 0.67471 0.74773 0.99357 0.0
C921 C 0.69672 0.67371 0.02445 0.0
C922 C 0.69292 0.64242 -0.0014 0.0
C923 C 0.70736 0.66172 0.03379 0.0
C924 C 0.6614 0.70078 0.96 0.0
C925 C 0.6747 0.68957 0.96917 0.0
C926 C 0.67945 0.71822 0.99491 0.0
C927 C 0.71146 0.65645 0.01601 0.0
C928 C 0.69929 0.66879 0.00608 0.0
C929 C 0.65838 0.70358 0.9778 0.0
C930 C 0.67278 0.69175 0.9875 0.0
H931 H 0.76662 0.5913 0.02729 0.0
H932 H 0.74905 0.61292 0.01084 0.0
H933 H 0.69785 0.72804 0.00963 0.0
H934 H 0.59092 0.75842 0.96744 0.0
H935 H 0.61465 0.73931 0.98363 0.0
C936 C 0.25825 0.38834 0.02661 0.0
C937 C 0.27186 0.37037 0.03502 0.0
C938 C 0.26887 0.37581 0.01728 0.0
C939 C 0.31257 0.29479 0.00446 0.0
H940 H 0.33189 0.36812 0.98409 0.0
C941 C 0.34296 0.29917 0.96034 0.0
C942 C 0.37183 0.27277 0.95962 0.0
C943 C 0.33042 0.31107 0.96952 0.0
C944 C 0.3263 0.34731 0.98969 0.0
H945 H 0.30911 0.32745 0.04048 0.0
H946 H 0.32843 0.30599 0.02426 0.0
H947 H 0.3097 0.38881 0.00012 0.0
H948 H 0.412 0.23967 0.9677 0.0
H949 H 0.38959 0.26002 0.98392 0.0
H950 H 0.32994 0.2534 0.99402 0.0
C951 C 0.30831 0.32856 0.02475 0.0
C952 C 0.31341 0.35912 -0.00114 0.0
C953 C 0.29736 0.34084 0.03404 0.0
C954 C 0.38911 0.25945 0.96816 0.0
C955 C 0.37623 0.27099 0.97738 0.0
C956 C 0.32572 0.28302 0.99531 0.0
C957 C 0.2941 0.34577 0.01625 0.0
C958 C 0.30648 0.33302 0.00637 0.0
C959 C 0.34668 0.29685 0.97813 0.0
C960 C 0.33281 0.3092 0.98785 0.0
H961 H 0.23902 0.41164 0.02725 0.0
H962 H 0.25714 0.38952 0.01089 0.0
H963 H 0.30703 0.27386 0.01002 0.0
H964 H 0.32998 0.3105 0.95379 0.0
H965 H 0.30753 0.33089 0.96987 0.0
C966 C 0.66096 0.80206 0.28471 0.0
C967 C 0.63158 0.77621 0.28543 0.0
C968 C 0.67378 0.81373 0.27554 0.0
C969 C 0.67793 0.7858 0.24974 0.0
H970 H 0.69494 0.89142 0.2449 0.0
C971 C 0.7058 0.84303 0.21094 0.0
C972 C 0.73149 0.87236 0.20989 0.0
C973 C 0.69495 0.83101 0.22026 0.0
C974 C 0.69097 0.86177 0.24617 0.0
H975 H 0.59087 0.74383 0.27732 0.0
H976 H 0.61377 0.76375 0.26112 0.0
H977 H 0.67298 0.87092 0.26097 0.0
H978 H 0.76477 0.91357 0.21754 0.0
H979 H 0.74687 0.89186 0.23396 0.0
H980 H 0.69608 0.77646 0.23499 0.0
C981 C 0.6273 0.77447 0.26766 0.0
C982 C 0.67821 0.85007 0.25536 0.0
C983 C 0.61415 0.76317 0.27687 0.0
C984 C 0.74538 0.89043 0.21825 0.0
C985 C 0.73488 0.87814 0.22761 0.0
C986 C 0.69095 0.79744 0.24056 0.0
C987 C 0.6573 0.79982 0.26692 0.0
C988 C 0.6713 0.81203 0.25721 0.0
C989 C 0.7095 0.84824 0.22872 0.0
C990 C 0.69736 0.83562 0.23863 0.0
H991 H 0.67407 0.81318 0.29127 0.0
H992 H 0.697 0.83317 0.27519 0.0
H993 H 0.67339 0.75622 0.25103 0.0
H994 H 0.69384 0.82957 0.20454 0.0
H995 H 0.67468 0.80858 0.22081 0.0
C996 C 0.16411 0.20678 0.46044 0.0
C997 C 0.13052 0.22641 0.45938 0.0
C998 C 0.1767 0.19604 0.46971 0.0
C999 C 0.15359 0.20687 0.49674 0.0
H1000 H 0.23049 0.13121 0.4988 0.0
C1001 C 0.20997 0.16437 0.5348 0.0
C1002 C 0.22897 0.13046 0.53595 0.0
C1003 C 0.19939 0.17674 0.52549 0.0
C1004 C 0.20828 0.15169 0.49851 0.0
H1005 H 0.08103 0.24596 0.46689 0.0
H1006 H 0.10072 0.22436 0.48297 0.0
H1007 H 0.20729 0.14802 0.48298 0.0
H1008 H 0.24771 0.08036 0.52858 0.0
H1009 H 0.22625 0.09965 0.51246 0.0
H1010 H 0.1511 0.20712 0.51229 0.0
C1011 C 0.11968 0.22016 0.47689 0.0
C1012 C 0.19553 0.16242 0.48924 0.0
C1013 C 0.10791 0.23223 0.46762 0.0
C1014 C 0.23446 0.10745 0.52777 0.0
C1015 C 0.22246 0.11899 0.51847 0.0
C1016 C 0.1649 0.19472 0.50603 0.0
C1017 C 0.15476 0.20248 0.47816 0.0
C1018 C 0.16811 0.19048 0.48814 0.0
C1019 C 0.20521 0.15424 0.51711 0.0
C1020 C 0.19274 0.16707 0.50712 0.0
H1021 H 0.18095 0.19998 0.45407 0.0
H1022 H 0.20398 0.18316 0.47012 0.0
H1023 H 0.13336 0.2293 0.49644 0.0
H1024 H 0.20337 0.18153 0.54112 0.0
H1025 H 0.18696 0.20421 0.52501 0.0
C1026 C 0.7986 0.66134 0.71083 0.0
C1027 C 0.77334 0.6316 0.70985 0.0
C1028 C 0.8096 0.67359 0.72011 0.0
C1029 C 0.81493 0.64299 0.74602 0.0
H1030 H 0.83099 0.7488 0.75083 0.0
C1031 C 0.84342 0.70352 0.78453 0.0
C1032 C 0.87238 0.72981 0.78528 0.0
C1033 C 0.83108 0.69152 0.77534 0.0
C1034 C 0.8269 0.71916 0.74955 0.0
H1035 H 0.74099 0.58992 0.71761 0.0
H1036 H 0.75912 0.61203 0.73397 0.0
H1037 H 0.80829 0.72817 0.73483 0.0
H1038 H 0.9129 0.76266 0.77723 0.0
H1039 H 0.8908 0.74214 0.76099 0.0
H1040 H 0.83326 0.63417 0.76081 0.0
C1041 C 0.77067 0.6259 0.72758 0.0
C1042 C 0.81388 0.70728 0.74039 0.0
C1043 C 0.76003 0.61338 0.71826 0.0
C1044 C 0.88993 0.74296 0.77675 0.0
C1045 C 0.87725 0.73132 0.76752 0.0
C1046 C 0.82767 0.65491 0.75519 0.0
C1047 C 0.79565 0.65617 0.72862 0.0
C1048 C 0.80796 0.66901 0.73849 0.0
C1049 C 0.84763 0.70554 0.76675 0.0
C1050 C 0.83399 0.69306 0.75702 0.0
H1051 H 0.81011 0.67494 0.70439 0.0
H1052 H 0.82954 0.69633 0.7206 0.0
H1053 H 0.81138 0.61328 0.74477 0.0
H1054 H 0.83022 0.69234 0.79107 0.0
H1055 H 0.80814 0.67176 0.77496 0.0
C1056 C 0.14051 0.04197 0.18441 0.0
C1057 C 0.14123 0.08125 0.18505 0.0
C1058 C 0.10641 0.02268 0.184 0.0
C1059 C 0.0053 0.03467 0.18964 0.0
H1060 H 0.99404 0.94557 0.17367 0.0
C1061 C 0.86213 0.96225 0.18389 0.0
C1062 C 0.86168 0.92304 0.18483 0.0
C1063 C 0.89608 0.98175 0.1835 0.0
C1064 C 0.99684 0.97029 0.17821 0.0
H1065 H 0.10639 0.131 0.1855 0.0
H1066 H 0.04736 0.0976 0.18457 0.0
H1067 H 0.05359 0.97902 0.17372 0.0
H1068 H 0.89688 0.87367 0.18593 0.0
H1069 H 0.95583 0.90769 0.18522 0.0
H1070 H 0.94845 0.02603 0.19407 0.0
C1071 C 0.07304 0.08152 0.18463 0.0
C1072 C 0.03102 0.98942 0.17827 0.0
C1073 C 0.10703 0.10073 0.1851 0.0
C1074 C 0.89604 0.90384 0.18521 0.0
C1075 C 0.92992 0.92331 0.18475 0.0
C1076 C 0.97109 0.01569 0.18953 0.0
C1077 C 0.0722 0.04222 0.18417 0.0
C1078 C 0.03575 0.02184 0.18401 0.0
C1079 C 0.93036 0.96251 0.18396 0.0
C1080 C 0.96648 0.98321 0.18384 0.0
H1081 H 0.16627 0.02601 0.18439 0.0
H1082 H 0.1069 0.9924 0.18377 0.0
H1083 H 0.00803 0.05908 0.1943 0.0
H1084 H 0.83628 0.97799 0.18357 0.0
H1085 H 0.8955 0.01194 0.18279 0.0
C1086 C 0.03647 0.35967 0.43491 0.0
C1087 C 0.07577 0.35936 0.43544 0.0
C1088 C 0.01682 0.39365 0.43472 0.0
C1089 C 0.02873 0.4947 0.44068 0.0
H1090 H 0.93968 0.50722 0.42476 0.0
C1091 C 0.95991 0.63924 0.43452 0.0
C1092 C 0.92074 0.64085 0.43543 0.0
C1093 C 0.97843 0.60472 0.43428 0.0
C1094 C 0.96438 0.50405 0.4293 0.0
H1095 H 0.12515 0.39479 0.43584 0.0
H1096 H 0.09121 0.4534 0.43526 0.0
H1097 H 0.97228 0.44714 0.4248 0.0
H1098 H 0.87039 0.6071 0.43666 0.0
H1099 H 0.90272 0.54715 0.43619 0.0
H1100 H 0.02105 0.55171 0.44508 0.0
C1101 C 0.07534 0.42758 0.43529 0.0
C1102 C 0.98301 0.46957 0.42935 0.0
C1103 C 0.09488 0.39379 0.43556 0.0
C1104 C 0.90058 0.60704 0.43596 0.0
C1105 C 0.91907 0.57259 0.43563 0.0
C1106 C 0.01029 0.52918 0.44057 0.0
C1107 C 0.03604 0.42807 0.43498 0.0
C1108 C 0.01553 0.46446 0.43502 0.0
C1109 C 0.95822 0.571 0.43486 0.0
C1110 C 0.97794 0.53431 0.43487 0.0
H1111 H 0.02084 0.3337 0.43484 0.0
H1112 H 0.98654 0.3929 0.43457 0.0
H1113 H 0.05317 0.49167 0.44531 0.0
H1114 H 0.97638 0.66463 0.43409 0.0
H1115 H 0.00862 0.60442 0.43358 0.0
C1116 C 0.36457 0.4604 0.68464 0.0
C1117 C 0.36328 0.42122 0.68557 0.0
C1118 C 0.39893 0.47917 0.68419 0.0
C1119 C 0.49978 0.46677 0.69009 0.0
H1120 H 0.51198 0.554 0.67346 0.0
C1121 C 0.64325 0.53911 0.68428 0.0
C1122 C 0.64335 0.5784 0.68497 0.0
C1123 C 0.60945 0.5193 0.68391 0.0
C1124 C 0.50893 0.5298 0.67819 0.0
H1125 H 0.39742 0.37109 0.68655 0.0
H1126 H 0.45696 0.40362 0.68554 0.0
H1127 H 0.45232 0.52082 0.67363 0.0
H1128 H 0.60771 0.62757 0.68565 0.0
H1129 H 0.5491 0.59306 0.68497 0.0
H1130 H 0.55653 0.4757 0.69459 0.0
C1131 C 0.43149 0.42002 0.68539 0.0
C1132 C 0.47467 0.51083 0.67831 0.0
C1133 C 0.39722 0.4013 0.68591 0.0
C1134 C 0.60882 0.59734 0.68513 0.0
C1135 C 0.57513 0.57759 0.68467 0.0
C1136 C 0.53409 0.48559 0.68991 0.0
C1137 C 0.43287 0.45923 0.68459 0.0
C1138 C 0.46956 0.47916 0.68431 0.0
C1139 C 0.57501 0.53834 0.68413 0.0
C1140 C 0.539 0.51745 0.684 0.0
H1141 H 0.33904 0.4767 0.6844 0.0
H1142 H 0.39883 0.50942 0.68371 0.0
H1143 H 0.49676 0.44292 0.69493 0.0
H1144 H 0.66925 0.52357 0.68414 0.0
H1145 H 0.61027 0.48907 0.6834 0.0
C1146 C 0.40073 0.10469 0.93591 0.0
C1147 C 0.42063 0.13863 0.93544 0.0
C1148 C 0.41944 0.07039 0.9355 0.0
C1149 C 0.51016 0.02695 0.92848 0.0
H1150 H 0.47502 0.94556 0.94493 0.0
C1151 C 0.5963 0.89259 0.93531 0.0
C1152 C 0.57723 0.85812 0.93515 0.0
C1153 C 0.57667 0.92637 0.93492 0.0
C1154 C 0.48492 0.96787 0.9402 0.0
H1155 H 0.47609 0.16284 0.93417 0.0
H1156 H 0.5088 0.10302 0.93366 0.0
H1157 H 0.44239 0.00542 0.94519 0.0
H1158 H 0.52229 0.83241 0.9344 0.0
H1159 H 0.488 0.89155 0.93377 0.0
H1160 H 0.55318 0.98943 0.92366 0.0
C1161 C 0.47857 0.10293 0.93416 0.0
C1162 C 0.46618 0.00223 0.94034 0.0
C1163 C 0.4598 0.13731 0.9345 0.0
C1164 C 0.53793 0.85837 0.93454 0.0
C1165 C 0.51825 0.89226 0.93423 0.0
C1166 C 0.52905 0.99265 0.9284 0.0
C1167 C 0.45864 0.06899 0.93468 0.0
C1168 C 0.47856 0.03228 0.93448 0.0
C1169 C 0.53742 0.92663 0.93442 0.0
C1170 C 0.51669 0.96274 0.93428 0.0
H1171 H 0.37053 0.1045 0.93657 0.0
H1172 H 0.40304 0.04493 0.93574 0.0
H1173 H 0.52014 0.04915 0.92374 0.0
H1174 H 0.62654 0.8936 0.93577 0.0
H1175 H 0.59225 0.95235 0.93519 0.0
C1176 C 0.10749 0.40334 0.05985 0.0
C1177 C 0.14175 0.42275 0.05994 0.0
C1178 C 0.07355 0.42264 0.06029 0.0
C1179 C 0.03171 0.5148 0.06663 0.0
H1180 H 0.94923 0.47844 0.05076 0.0
C1181 C 0.89688 0.60058 0.05969 0.0
C1182 C 0.8625 0.58139 0.06004 0.0
C1183 C 0.93075 0.58109 0.06015 0.0
C1184 C 0.97184 0.48871 0.05532 0.0
H1185 H 0.16693 0.47794 0.0606 0.0
H1186 H 0.10764 0.51168 0.06117 0.0
H1187 H 0.00874 0.44528 0.05055 0.0
H1188 H 0.83705 0.52642 0.06123 0.0
H1189 H 0.89624 0.49245 0.062 0.0
H1190 H 0.99478 0.55867 0.07123 0.0
C1191 C 0.10707 0.4814 0.06094 0.0
C1192 C 0.00601 0.46967 0.05522 0.0
C1193 C 0.14113 0.46204 0.06057 0.0
C1194 C 0.86293 0.54216 0.06094 0.0
C1195 C 0.89685 0.52264 0.06133 0.0
C1196 C 0.99757 0.53399 0.06668 0.0
C1197 C 0.07281 0.46195 0.06075 0.0
C1198 C 0.03642 0.48241 0.06088 0.0
C1199 C 0.93115 0.54188 0.0609 0.0
C1200 C 0.96724 0.52115 0.06102 0.0
H1201 H 0.10677 0.37308 0.05946 0.0
H1202 H 0.04783 0.40663 0.06033 0.0
H1203 H 0.05426 0.52512 0.0712 0.0
H1204 H 0.89775 0.63076 0.059 0.0
H1205 H 0.95667 0.59671 0.05971 0.0
C1206 C 0.5992 0.60888 0.30932 0.0
C1207 C 0.57961 0.64303 0.30952 0.0
C1208 C 0.58009 0.57479 0.30965 0.0
C1209 C 0.48818 0.53222 0.31593 0.0
H1210 H 0.52532 0.45006 0.30007 0.0
C1211 C 0.40367 0.39651 0.30909 0.0
C1212 C 0.42314 0.3623 0.30956 0.0
C1213 C 0.42286 0.43057 0.30945 0.0
C1214 C 0.51483 0.47259 0.30462 0.0
H1215 H 0.52431 0.66786 0.31026 0.0
H1216 H 0.49089 0.60834 0.31063 0.0
H1217 H 0.55794 0.5099 0.29987 0.0
H1218 H 0.4783 0.33738 0.31082 0.0
H1219 H 0.51177 0.39694 0.3114 0.0
H1220 H 0.44462 0.49487 0.32052 0.0
C1221 C 0.52117 0.60795 0.3104 0.0
C1222 C 0.53356 0.50695 0.30453 0.0
C1223 C 0.54034 0.64215 0.31013 0.0
C1224 C 0.46235 0.36311 0.31044 0.0
C1225 C 0.48158 0.39725 0.31072 0.0
C1226 C 0.46929 0.4979 0.31596 0.0
C1227 C 0.5408 0.5738 0.31011 0.0
C1228 C 0.52056 0.53725 0.31019 0.0
C1229 C 0.46205 0.43136 0.31022 0.0
C1230 C 0.48242 0.46768 0.31032 0.0
H1231 H 0.62946 0.60835 0.30893 0.0
H1232 H 0.59626 0.54917 0.30963 0.0
H1233 H 0.47766 0.55464 0.32051 0.0
H1234 H 0.37348 0.39708 0.30841 0.0
H1235 H 0.40702 0.45634 0.30894 0.0
C1236 C 0.60647 0.89747 0.5596 0.0
C1237 C 0.64004 0.91803 0.55995 0.0
C1238 C 0.57184 0.91549 0.5602 0.0
C1239 C 0.52726 0.00524 0.56758 0.0
H1240 H 0.44579 0.97005 0.55117 0.0
C1241 C 0.39434 0.09234 0.56046 0.0
C1242 C 0.3595 0.07395 0.56054 0.0
C1243 C 0.42767 0.07211 0.561 0.0
C1244 C 0.4681 0.97991 0.5559 0.0
H1245 H 0.66322 0.97394 0.56121 0.0
H1246 H 0.60284 0.00544 0.56205 0.0
H1247 H 0.50581 0.93766 0.55081 0.0
H1248 H 0.33266 0.01957 0.5613 0.0
H1249 H 0.39119 0.98411 0.56218 0.0
H1250 H 0.48967 0.04802 0.57248 0.0
C1251 C 0.6033 0.97522 0.5615 0.0
C1252 C 0.50257 0.96133 0.5557 0.0
C1253 C 0.63801 0.95715 0.56096 0.0
C1254 C 0.35894 0.03466 0.56123 0.0
C1255 C 0.39246 0.01433 0.56168 0.0
C1256 C 0.49289 0.02394 0.56772 0.0
C1257 C 0.56973 0.95463 0.5611 0.0
C1258 C 0.53271 0.97389 0.56149 0.0
C1259 C 0.4272 0.03288 0.56157 0.0
C1260 C 0.463 0.01166 0.56183 0.0
H1261 H 0.60683 0.86728 0.55888 0.0
H1262 H 0.54668 0.89862 0.56003 0.0
H1263 H 0.54951 0.01529 0.57229 0.0
H1264 H 0.39599 0.12255 0.55995 0.0
H1265 H 0.45394 0.08722 0.56077 0.0
C1266 C 0.09701 0.11069 0.80958 0.0
C1267 C 0.07736 0.1448 0.80976 0.0
C1268 C 0.07797 0.07658 0.8099 0.0
C1269 C 0.98604 0.03379 0.81607 0.0
H1270 H 0.02362 0.95178 0.80023 0.0
C1271 C 0.90198 0.8979 0.80904 0.0
C1272 C 0.92154 0.86375 0.80952 0.0
C1273 C 0.92107 0.93201 0.80946 0.0
C1274 C 0.01301 0.97427 0.80477 0.0
H1275 H 0.02201 0.16954 0.81047 0.0
H1276 H 0.98869 0.10995 0.81081 0.0
H1277 H 0.0561 0.01169 0.80008 0.0
H1278 H 0.97673 0.83897 0.81087 0.0
H1279 H 0.01002 0.89861 0.81155 0.0
H1280 H 0.94248 0.99633 0.82059 0.0
C1281 C 0.01897 0.10962 0.8106 0.0
C1282 C 0.03166 0.00867 0.80471 0.0
C1283 C 0.03809 0.14385 0.81036 0.0
C1284 C 0.96072 0.86466 0.81048 0.0
C1285 C 0.97985 0.89884 0.81082 0.0
C1286 C 0.96722 0.99943 0.81607 0.0
C1287 C 0.03867 0.0755 0.81032 0.0
C1288 C 0.01851 0.03891 0.81037 0.0
C1289 C 0.96023 0.9329 0.8103 0.0
C1290 C 0.98052 0.96927 0.81043 0.0
H1291 H 0.12728 0.11022 0.80921 0.0
H1292 H 0.09419 0.05099 0.80988 0.0
H1293 H 0.9754 0.05617 0.82064 0.0
H1294 H 0.87181 0.89839 0.8083 0.0
H1295 H 0.90518 0.95774 0.80894 0.0
C1296 C 0.64509 0.97916 0.17185 0.0
C1297 C 0.6483 0.94108 0.17427 0.0
C1298 C 0.60988 0.99513 0.17019 0.0
C1299 C 0.51057 0.97371 0.16481 0.0
H1300 H 0.49084 0.06328 0.18 0.0
C1301 C 0.3605 0.02705 0.173 0.0
C1302 C 0.35507 0.06564 0.1743 0.0
C1303 C 0.39649 0.01272 0.17139 0.0
C1304 C 0.49587 0.03875 0.17552 0.0
H1305 H 0.61734 0.88946 0.17635 0.0
H1306 H 0.55608 0.91724 0.17337 0.0
H1307 H 0.55351 0.03711 0.17974 0.0
H1308 H 0.3825 0.11973 0.17429 0.0
H1309 H 0.44474 0.0951 0.1711 0.0
H1310 H 0.45283 0.97526 0.16061 0.0
C1311 C 0.58068 0.93479 0.17276 0.0
C1312 C 0.53192 0.02369 0.1754 0.0
C1313 C 0.6158 0.91893 0.17453 0.0
C1314 C 0.38589 0.08978 0.17343 0.0
C1315 C 0.42167 0.07558 0.17168 0.0
C1316 C 0.47449 0.98901 0.16484 0.0
C1317 C 0.57724 0.97323 0.17081 0.0
C1318 C 0.53961 0.99076 0.17015 0.0
C1319 C 0.4277 0.03678 0.17093 0.0
C1320 C 0.46653 0.02153 0.1703 0.0
H1321 H 0.66962 0.99695 0.1716 0.0
H1322 H 0.60811 0.02478 0.16861 0.0
H1323 H 0.51574 0.94844 0.16063 0.0
H1324 H 0.33726 0.00777 0.17368 0.0
H1325 H 0.39995 0.98268 0.17094 0.0
C1326 C 0.98124 0.85578 0.42102 0.0
C1327 C 0.94301 0.85306 0.4233 0.0
C1328 C 0.99756 0.89074 0.41918 0.0
C1329 C 0.9768 0.98985 0.41316 0.0
H1330 H 0.06559 0.01057 0.42856 0.0
C1331 C 0.02823 0.14042 0.42144 0.0
C1332 C 0.06666 0.14638 0.4229 0.0
C1333 C 0.01447 0.10427 0.41974 0.0
C1334 C 0.04129 0.00525 0.42402 0.0
H1335 H 0.89151 0.88456 0.42494 0.0
H1336 H 0.91985 0.9453 0.42165 0.0
H1337 H 0.0396 0.94778 0.42842 0.0
H1338 H 0.12109 0.11966 0.42307 0.0
H1339 H 0.09743 0.05709 0.41974 0.0
H1340 H 0.97833 0.04744 0.40881 0.0
C1341 C 0.93728 0.92055 0.42129 0.0
C1342 C 0.02634 0.96912 0.42397 0.0
C1343 C 0.92109 0.88572 0.42323 0.0
C1344 C 0.09125 0.11588 0.42208 0.0
C1345 C 0.07761 0.07991 0.42025 0.0
C1346 C 0.99198 0.026 0.41313 0.0
C1347 C 0.97585 0.92358 0.41947 0.0
C1348 C 0.99362 0.9611 0.41866 0.0
C1349 C 0.03893 0.07337 0.41935 0.0
C1350 C 0.02416 0.03434 0.41869 0.0
H1351 H 0.99886 0.83112 0.42103 0.0
H1352 H 0.02731 0.89217 0.41771 0.0
H1353 H 0.95173 0.98444 0.40892 0.0
H1354 H 0.00859 0.16337 0.42208 0.0
H1355 H 0.98451 0.10042 0.41917 0.0
C1356 C 0.11798 0.41976 0.67431 0.0
C1357 C 0.15055 0.44183 0.67427 0.0
C1358 C 0.08303 0.43579 0.67245 0.0
C1359 C 0.0343 0.52463 0.67521 0.0
H1360 H 0.95577 0.47668 0.66011 0.0
C1361 C 0.88789 0.59002 0.67328 0.0
C1362 C 0.85724 0.56562 0.67406 0.0
C1363 C 0.9238 0.57617 0.67151 0.0
C1364 C 0.97727 0.4903 0.66443 0.0
H1365 H 0.17218 0.49775 0.67186 0.0
H1366 H 0.11092 0.52589 0.6687 0.0
H1367 H 0.01875 0.45005 0.66017 0.0
H1368 H 0.83988 0.50764 0.67324 0.0
H1369 H 0.90276 0.48315 0.67045 0.0
H1370 H 0.99296 0.56388 0.67986 0.0
C1371 C 0.11252 0.49617 0.6702 0.0
C1372 C 0.01339 0.47511 0.66441 0.0
C1373 C 0.1476 0.48003 0.67195 0.0
C1374 C 0.86297 0.52713 0.67263 0.0
C1375 C 0.89907 0.51315 0.671 0.0
C1376 C 0.9982 0.53958 0.67531 0.0
C1377 C 0.0798 0.47433 0.6706 0.0
C1378 C 0.04222 0.49196 0.66988 0.0
C1379 C 0.93011 0.53745 0.67063 0.0
C1380 C 0.96905 0.52249 0.66998 0.0
H1381 H 0.11933 0.39021 0.67605 0.0
H1382 H 0.05835 0.41827 0.6729 0.0
H1383 H 0.05572 0.53789 0.67964 0.0
H1384 H 0.88428 0.6199 0.67424 0.0
H1385 H 0.94673 0.59588 0.67101 0.0
C1386 C 0.41872 0.38363 0.92354 0.0
C1387 C 0.44085 0.35111 0.92351 0.0
C1388 C 0.43463 0.41862 0.92165 0.0
C1389 C 0.52351 0.46751 0.92431 0.0
H1390 H 0.47474 0.54628 0.90947 0.0
C1391 C 0.58834 0.6142 0.92247 0.0
C1392 C 0.56388 0.64472 0.92343 0.0
C1393 C 0.57452 0.57831 0.92064 0.0
C1394 C 0.4886 0.52471 0.91371 0.0
H1395 H 0.49677 0.3296 0.92107 0.0
H1396 H 0.52473 0.39093 0.91783 0.0
H1397 H 0.44835 0.48317 0.90947 0.0
H1398 H 0.50582 0.6619 0.92288 0.0
H1399 H 0.48141 0.59902 0.91998 0.0
H1400 H 0.56279 0.5089 0.92892 0.0
C1401 C 0.49503 0.38926 0.91936 0.0
C1402 C 0.47355 0.48851 0.91367 0.0
C1403 C 0.479 0.35414 0.92115 0.0
C1404 C 0.52535 0.6389 0.92212 0.0
C1405 C 0.51141 0.60281 0.92043 0.0
C1406 C 0.53835 0.50367 0.92442 0.0
C1407 C 0.47313 0.42195 0.91977 0.0
C1408 C 0.49067 0.45959 0.91904 0.0
C1409 C 0.53579 0.57188 0.91988 0.0
C1410 C 0.52096 0.5329 0.9192 0.0
H1411 H 0.3892 0.38223 0.92531 0.0
H1412 H 0.41706 0.44325 0.92211 0.0
H1413 H 0.53699 0.44604 0.92867 0.0
H1414 H 0.61825 0.61788 0.92332 0.0
H1415 H 0.59427 0.55547 0.92 0.0
C1416 C 0.6165 0.58509 0.07008 0.0
C1417 C 0.64898 0.56293 0.07034 0.0
C1418 C 0.58138 0.56925 0.07185 0.0
C1419 C 0.53248 0.48035 0.06929 0.0
H1420 H 0.45361 0.529 0.08411 0.0
C1421 C 0.38645 0.41432 0.07148 0.0
C1422 C 0.35563 0.43845 0.07059 0.0
C1423 C 0.42225 0.42855 0.07318 0.0
C1424 C 0.4752 0.51519 0.07987 0.0
H1425 H 0.67026 0.50705 0.07301 0.0
H1426 H 0.60873 0.47925 0.07601 0.0
H1427 H 0.51655 0.55577 0.08401 0.0
H1428 H 0.33788 0.49635 0.07114 0.0
H1429 H 0.40061 0.52148 0.0738 0.0
H1430 H 0.4913 0.44072 0.06477 0.0
C1431 C 0.61053 0.50889 0.07442 0.0
C1432 C 0.5113 0.53046 0.07986 0.0
C1433 C 0.64575 0.52484 0.07275 0.0
C1434 C 0.36111 0.47707 0.07183 0.0
C1435 C 0.39712 0.49142 0.07339 0.0
C1436 C 0.49641 0.46531 0.06921 0.0
C1437 C 0.57791 0.53082 0.07382 0.0
C1438 C 0.54026 0.51332 0.07451 0.0
C1439 C 0.42831 0.46736 0.07387 0.0
C1440 C 0.46716 0.4826 0.07445 0.0
H1441 H 0.61806 0.61456 0.06827 0.0
H1442 H 0.55678 0.58682 0.07126 0.0
H1443 H 0.554 0.46686 0.06495 0.0
H1444 H 0.38302 0.38435 0.07067 0.0
H1445 H 0.44532 0.40903 0.07377 0.0
C1446 C 0.47958 0.14661 0.32396 0.0
C1447 C 0.44147 0.1498 0.32157 0.0
C1448 C 0.49545 0.11142 0.32573 0.0
C1449 C 0.47359 0.01212 0.33129 0.0
H1450 H 0.56319 0.9919 0.31617 0.0
C1451 C 0.52584 0.86183 0.32281 0.0
C1452 C 0.56441 0.85616 0.32155 0.0
C1453 C 0.51177 0.89786 0.32453 0.0
C1454 C 0.53864 0.99708 0.32063 0.0
H1455 H 0.38972 0.11888 0.3197 0.0
H1456 H 0.41732 0.05771 0.32286 0.0
H1457 H 0.53741 0.05474 0.31642 0.0
H1458 H 0.61871 0.88315 0.32179 0.0
H1459 H 0.5945 0.94543 0.32515 0.0
H1460 H 0.47468 0.9543 0.33544 0.0
C1461 C 0.43498 0.08228 0.32336 0.0
C1462 C 0.52381 0.03323 0.32074 0.0
C1463 C 0.41921 0.11736 0.32149 0.0
C1464 C 0.58877 0.88673 0.3226 0.0
C1465 C 0.57483 0.92254 0.32445 0.0
C1466 C 0.48863 0.97592 0.33125 0.0
C1467 C 0.47345 0.0788 0.32526 0.0
C1468 C 0.49087 0.0411 0.32597 0.0
C1469 C 0.53606 0.92885 0.32514 0.0
C1470 C 0.52114 0.9678 0.32581 0.0
H1471 H 0.49744 0.17108 0.32408 0.0
H1472 H 0.52512 0.10964 0.32728 0.0
H1473 H 0.44831 0.01741 0.33545 0.0
H1474 H 0.50639 0.83879 0.32199 0.0
H1475 H 0.48175 0.90157 0.32493 0.0
C1476 C 0.88555 0.92134 0.57086 0.0
C1477 C 0.85279 0.9431 0.57074 0.0
C1478 C 0.92026 0.93774 0.57281 0.0
C1479 C 0.96874 0.02679 0.57015 0.0
H1480 H 0.04609 0.97961 0.58582 0.0
C1481 C 0.11536 0.09198 0.57256 0.0
C1482 C 0.14591 0.06736 0.57201 0.0
C1483 C 0.07924 0.07842 0.57422 0.0
C1484 C 0.02494 0.99302 0.58135 0.0
H1485 H 0.83056 0.99891 0.57291 0.0
H1486 H 0.89144 0.02774 0.57622 0.0
H1487 H 0.9832 0.95282 0.58547 0.0
H1488 H 0.1628 0.0093 0.57312 0.0
H1489 H 0.09966 0.98535 0.57572 0.0
H1490 H 0.01041 0.06597 0.56564 0.0
C1491 C 0.89015 0.99795 0.57479 0.0
C1492 C 0.98886 0.97774 0.58119 0.0
C1493 C 0.8553 0.98142 0.57295 0.0
C1494 C 0.13981 0.02899 0.57355 0.0
C1495 C 0.10354 0.0153 0.57508 0.0
C1496 C 0.00483 0.04184 0.57022 0.0
C1497 C 0.92307 0.97636 0.57459 0.0
C1498 C 0.96047 0.99426 0.57551 0.0
C1499 C 0.07263 0.03977 0.57522 0.0
C1500 C 0.03358 0.02499 0.57574 0.0
H1501 H 0.88454 0.89171 0.5692 0.0
H1502 H 0.9451 0.92042 0.57251 0.0
H1503 H 0.94767 0.03982 0.56557 0.0
H1504 H 0.11922 0.12178 0.57149 0.0
H1505 H 0.05638 0.09826 0.57453 0.0
C1506 C 0.91745 0.61885 0.82144 0.0
C1507 C 0.93969 0.6513 0.82158 0.0
C1508 C 0.9331 0.58382 0.82342 0.0
C1509 C 0.02205 0.53477 0.82121 0.0
H1510 H 0.97202 0.45597 0.83576 0.0
C1511 C 0.08654 0.38815 0.82322 0.0
C1512 C 0.06213 0.35768 0.82206 0.0
C1513 C 0.07262 0.42396 0.82508 0.0
C1514 C 0.98623 0.47756 0.8316 0.0
H1515 H 0.99549 0.67265 0.82432 0.0
H1516 H 0.02297 0.61126 0.82771 0.0
H1517 H 0.94573 0.51912 0.83564 0.0
H1518 H 0.00404 0.34046 0.82233 0.0
H1519 H 0.97947 0.40326 0.82527 0.0
H1520 H 0.0616 0.49338 0.8168 0.0
C1521 C 0.9934 0.61301 0.82603 0.0
C1522 C 0.97123 0.51378 0.83158 0.0
C1523 C 0.97764 0.64816 0.82414 0.0
C1524 C 0.02353 0.36343 0.82324 0.0
C1525 C 0.00949 0.39947 0.82495 0.0
C1526 C 0.03683 0.4986 0.82116 0.0
C1527 C 0.97144 0.58038 0.8255 0.0
C1528 C 0.98882 0.5427 0.82631 0.0
C1529 C 0.03385 0.43038 0.82565 0.0
C1530 C 0.01901 0.46937 0.82629 0.0
H1531 H 0.88807 0.62034 0.81952 0.0
H1532 H 0.91549 0.55923 0.82287 0.0
H1533 H 0.03589 0.55624 0.81693 0.0
H1534 H 0.11649 0.38449 0.82247 0.0
H1535 H 0.09234 0.44679 0.82585 0.0
loop_
_geom_bond_atom_site_label_1
_geom_bond_atom_site_label_2
_geom_bond_distance
_geom_bond_site_symmetry_2
_ccdc_geom_bond_type
Mn0 O5 2.095 . S
Mn0 O15 2.162 . S
Mn0 O16 2.297 . S
Mn0 O24 2.385 . S
Mn0 O25 2.209 . S
Mn0 O26 2.094 . S
Mn1 O6 2.121 . S
Mn1 N8 2.257 . S
Mn1 N17 2.282 . S
Mn1 O25 2.215 . S
Mn1 O27 2.117 . S
C2 O24 1.234 . S
C2 O25 1.283 . S
C3 O15 1.281 . S
C3 O16 1.236 . S
C4 O26 1.240 . S
C4 O27 1.264 . S
O5 Mn0 2.095 . S
O5 C14 1.250 . S
O6 Mn1 2.121 . S
O6 C14 1.258 . S
C7 N8 1.326 . S
C7 C11 1.460 . S
C7 H13 0.929 . S
N8 Mn1 2.257 . S
N8 C7 1.326 . S
N8 C12 1.362 . S
C9 C10 1.258 . S
C9 C12 1.431 . S
C9 C29 1.449 . S
C10 C9 1.258 . S
C10 C11 1.477 . S
C10 H30 0.931 . S
C11 C7 1.460 . S
C11 C10 1.477 . S
C11 H31 0.930 . S
C12 N8 1.362 . S
C12 C9 1.431 . S
C12 C22 1.476 . S
H13 C7 0.929 . S
C14 O5 1.250 . S
C14 O6 1.258 . S
O15 Mn0 2.162 . S
O15 C3 1.281 . S
O16 Mn0 2.297 . S
O16 C3 1.236 . S
N17 Mn1 2.282 . S
N17 C18 1.328 . S
N17 C22 1.318 . S
C18 N17 1.328 . S
C18 C19 1.457 . S
C18 H23 0.929 . S
C19 C18 1.457 . S
C19 C20 1.291 . S
C19 H32 0.931 . S
C20 C19 1.291 . S
C20 C21 1.373 . S
C20 H33 0.929 . S
C21 C20 1.373 . S
C21 C22 1.396 . S
C21 C28 1.403 . S
C22 C12 1.476 . S
C22 N17 1.318 . S
C22 C21 1.396 . S
H23 C18 0.929 . S
O24 Mn0 2.385 . S
O24 C2 1.234 . S
O25 Mn0 2.209 . S
O25 Mn1 2.215 . S
O25 C2 1.283 . S
O26 Mn0 2.094 . S
O26 C4 1.240 . S
O27 Mn1 2.117 . S
O27 C4 1.264 . S
C28 C21 1.403 . S
C28 C29 1.399 . S
C28 H34 0.929 . S
C29 C9 1.449 . S
C29 C28 1.399 . S
C29 H35 0.930 . S
H30 C10 0.931 . S
H31 C11 0.930 . S
H32 C19 0.931 . S
H33 C20 0.929 . S
H34 C28 0.929 . S
H35 C29 0.930 . S
Mn36 O41 2.095 . S
Mn36 O51 2.162 . S
Mn36 O52 2.297 . S
Mn36 O60 2.385 . S
Mn36 O61 2.209 . S
Mn36 O62 2.094 . S
Mn37 O42 2.121 . S
Mn37 N44 2.257 . S
Mn37 N53 2.282 . S
Mn37 O61 2.215 . S
Mn37 O63 2.117 . S
C38 O60 1.234 . S
C38 O61 1.283 . S
C39 O51 1.281 . S
C39 O52 1.236 . S
C40 O62 1.240 . S
C40 O63 1.264 . S
O41 Mn36 2.095 . S
O41 C50 1.250 . S
O42 Mn37 2.121 . S
O42 C50 1.258 . S
C43 N44 1.326 . S
C43 C47 1.460 . S
C43 H49 0.929 . S
N44 Mn37 2.257 . S
N44 C43 1.326 . S
N44 C48 1.362 . S
C45 C46 1.258 . S
C45 C48 1.431 . S
C45 C65 1.449 . S
C46 C45 1.258 . S
C46 C47 1.477 . S
C46 H66 0.931 . S
C47 C43 1.460 . S
C47 C46 1.477 . S
C47 H67 0.930 . S
C48 N44 1.362 . S
C48 C45 1.431 . S
C48 C58 1.476 . S
H49 C43 0.929 . S
C50 O41 1.250 . S
C50 O42 1.258 . S
O51 Mn36 2.162 . S
O51 C39 1.281 . S
O52 Mn36 2.297 . S
O52 C39 1.236 . S
N53 Mn37 2.282 . S
N53 C54 1.328 . S
N53 C58 1.318 . S
C54 N53 1.328 . S
C54 C55 1.457 . S
C54 H59 0.929 . S
C55 C54 1.457 . S
C55 C56 1.291 . S
C55 H68 0.931 . S
C56 C55 1.291 . S
C56 C57 1.373 . S
C56 H69 0.929 . S
C57 C56 1.373 . S
C57 C58 1.396 . S
C57 C64 1.403 . S
C58 C48 1.476 . S
C58 N53 1.318 . S
C58 C57 1.396 . S
H59 C54 0.929 . S
O60 Mn36 2.385 . S
O60 C38 1.234 . S
O61 Mn36 2.209 . S
O61 Mn37 2.215 . S
O61 C38 1.283 . S
O62 Mn36 2.094 . S
O62 C40 1.240 . S
O63 Mn37 2.117 . S
O63 C40 1.264 . S
C64 C57 1.403 . S
C64 C65 1.399 . S
C64 H70 0.929 . S
C65 C45 1.449 . S
C65 C64 1.399 . S
C65 H71 0.930 . S
H66 C46 0.931 . S
H67 C47 0.930 . S
H68 C55 0.931 . S
H69 C56 0.929 . S
H70 C64 0.929 . S
H71 C65 0.930 . S
Mn72 O77 2.095 . S
Mn72 O87 2.162 . S
Mn72 O88 2.297 . S
Mn72 O96 2.385 . S
Mn72 O97 2.209 . S
Mn72 O98 2.094 . S
Mn73 O78 2.121 . S
Mn73 N80 2.257 . S
Mn73 N89 2.282 . S
Mn73 O97 2.215 . S
Mn73 O99 2.117 . S
C74 O96 1.234 . S
C74 O97 1.283 . S
C75 O87 1.281 . S
C75 O88 1.236 . S
C76 O98 1.240 . S
C76 O99 1.264 . S
O77 Mn72 2.095 . S
O77 C86 1.250 . S
O78 Mn73 2.121 . S
O78 C86 1.258 . S
C79 N80 1.326 . S
C79 C83 1.460 . S
C79 H85 0.929 . S
N80 Mn73 2.257 . S
N80 C79 1.326 . S
N80 C84 1.362 . S
C81 C82 1.258 . S
C81 C84 1.431 . S
C81 C101 1.449 . S
C82 C81 1.258 . S
C82 C83 1.477 . S
C82 H102 0.931 . S
C83 C79 1.460 . S
C83 C82 1.477 . S
C83 H103 0.930 . S
C84 N80 1.362 . S
C84 C81 1.431 . S
C84 C94 1.476 . S
H85 C79 0.929 . S
C86 O77 1.250 . S
C86 O78 1.258 . S
O87 Mn72 2.162 . S
O87 C75 1.281 . S
O88 Mn72 2.297 . S
O88 C75 1.236 . S
N89 Mn73 2.282 . S
N89 C90 1.328 . S
N89 C94 1.318 . S
C90 N89 1.328 . S
C90 C91 1.457 . S
C90 H95 0.929 . S
C91 C90 1.457 . S
C91 C92 1.291 . S
C91 H104 0.931 . S
C92 C91 1.291 . S
C92 C93 1.373 . S
C92 H105 0.929 . S
C93 C92 1.373 . S
C93 C94 1.396 . S
C93 C100 1.403 . S
C94 C84 1.476 . S
C94 N89 1.318 . S
C94 C93 1.396 . S
H95 C90 0.929 . S
O96 Mn72 2.385 . S
O96 C74 1.234 . S
O97 Mn72 2.209 . S
O97 Mn73 2.215 . S
O97 C74 1.283 . S
O98 Mn72 2.094 . S
O98 C76 1.240 . S
O99 Mn73 2.117 . S
O99 C76 1.264 . S
C100 C93 1.403 . S
C100 C101 1.399 . S
C100 H106 0.929 . S
C101 C81 1.449 . S
C101 C100 1.399 . S
C101 H107 0.930 . S
H102 C82 0.931 . S
H103 C83 0.930 . S
H104 C91 0.931 . S
H105 C92 0.929 . S
H106 C100 0.929 . S
H107 C101 0.930 . S
Mn108 O113 2.095 . S
Mn108 O123 2.162 . S
Mn108 O124 2.297 . S
Mn108 O132 2.385 . S
Mn108 O133 2.209 . S
Mn108 O134 2.094 . S
Mn109 O114 2.121 . S
Mn109 N116 2.257 . S
Mn109 N125 2.282 . S
Mn109 O133 2.215 . S
Mn109 O135 2.117 . S
C110 O132 1.234 . S
C110 O133 1.283 . S
C111 O123 1.281 . S
C111 O124 1.236 . S
C112 O134 1.240 . S
C112 O135 1.264 . S
O113 Mn108 2.095 . S
O113 C122 1.250 . S
O114 Mn109 2.121 . S
O114 C122 1.258 . S
C115 N116 1.326 . S
C115 C119 1.460 . S
C115 H121 0.929 . S
N116 Mn109 2.257 . S
N116 C115 1.326 . S
N116 C120 1.362 . S
C117 C118 1.258 . S
C117 C120 1.431 . S
C117 C137 1.449 . S
C118 C117 1.258 . S
C118 C119 1.477 . S
C118 H138 0.931 . S
C119 C115 1.460 . S
C119 C118 1.477 . S
C119 H139 0.930 . S
C120 N116 1.362 . S
C120 C117 1.431 . S
C120 C130 1.476 . S
H121 C115 0.929 . S
C122 O113 1.250 . S
C122 O114 1.258 . S
O123 Mn108 2.162 . S
O123 C111 1.281 . S
O124 Mn108 2.297 . S
O124 C111 1.236 . S
N125 Mn109 2.282 . S
N125 C126 1.328 . S
N125 C130 1.318 . S
C126 N125 1.328 . S
C126 C127 1.457 . S
C126 H131 0.929 . S
C127 C126 1.457 . S
C127 C128 1.291 . S
C127 H140 0.931 . S
C128 C127 1.291 . S
C128 C129 1.373 . S
C128 H141 0.929 . S
C129 C128 1.373 . S
C129 C130 1.396 . S
C129 C136 1.403 . S
C130 C120 1.476 . S
C130 N125 1.318 . S
C130 C129 1.396 . S
H131 C126 0.929 . S
O132 Mn108 2.385 . S
O132 C110 1.234 . S
O133 Mn108 2.209 . S
O133 Mn109 2.215 . S
O133 C110 1.283 . S
O134 Mn108 2.094 . S
O134 C112 1.240 . S
O135 Mn109 2.117 . S
O135 C112 1.264 . S
C136 C129 1.403 . S
C136 C137 1.399 . S
C136 H142 0.929 . S
C137 C117 1.449 . S
C137 C136 1.399 . S
C137 H143 0.930 . S
H138 C118 0.931 . S
H139 C119 0.930 . S
H140 C127 0.931 . S
H141 C128 0.929 . S
H142 C136 0.929 . S
H143 C137 0.930 . S
Mn144 O149 2.095 . S
Mn144 O159 2.162 . S
Mn144 O160 2.297 . S
Mn144 O168 2.385 . S
Mn144 O169 2.209 . S
Mn144 O170 2.094 . S
Mn145 O150 2.121 . S
Mn145 N152 2.257 . S
Mn145 N161 2.282 . S
Mn145 O169 2.215 . S
Mn145 O171 2.117 . S
C146 O168 1.234 . S
C146 O169 1.283 . S
C147 O159 1.281 . S
C147 O160 1.236 . S
C148 O170 1.240 . S
C148 O171 1.264 . S
O149 Mn144 2.095 . S
O149 C158 1.250 . S
O150 Mn145 2.121 . S
O150 C158 1.258 . S
C151 N152 1.326 . S
C151 C155 1.460 . S
C151 H157 0.929 . S
N152 Mn145 2.257 . S
N152 C151 1.326 . S
N152 C156 1.362 . S
C153 C154 1.258 . S
C153 C156 1.431 . S
C153 C173 1.449 . S
C154 C153 1.258 . S
C154 C155 1.477 . S
C154 H174 0.931 . S
C155 C151 1.460 . S
C155 C154 1.477 . S
C155 H175 0.930 . S
C156 N152 1.362 . S
C156 C153 1.431 . S
C156 C166 1.476 . S
H157 C151 0.929 . S
C158 O149 1.250 . S
C158 O150 1.258 . S
O159 Mn144 2.162 . S
O159 C147 1.281 . S
O160 Mn144 2.297 . S
O160 C147 1.236 . S
N161 Mn145 2.282 . S
N161 C162 1.328 . S
N161 C166 1.318 . S
C162 N161 1.328 . S
C162 C163 1.457 . S
C162 H167 0.929 . S
C163 C162 1.457 . S
C163 C164 1.291 . S
C163 H176 0.931 . S
C164 C163 1.291 . S
C164 C165 1.373 . S
C164 H177 0.929 . S
C165 C164 1.373 . S
C165 C166 1.396 . S
C165 C172 1.403 . S
C166 C156 1.476 . S
C166 N161 1.318 . S
C166 C165 1.396 . S
H167 C162 0.929 . S
O168 Mn144 2.385 . S
O168 C146 1.234 . S
O169 Mn144 2.209 . S
O169 Mn145 2.215 . S
O169 C146 1.283 . S
O170 Mn144 2.094 . S
O170 C148 1.240 . S
O171 Mn145 2.117 . S
O171 C148 1.264 . S
C172 C165 1.403 . S
C172 C173 1.399 . S
C172 H178 0.929 . S
C173 C153 1.449 . S
C173 C172 1.399 . S
C173 H179 0.930 . S
H174 C154 0.931 . S
H175 C155 0.930 . S
H176 C163 0.931 . S
H177 C164 0.929 . S
H178 C172 0.929 . S
H179 C173 0.930 . S
Mn180 O185 2.095 . S
Mn180 O195 2.162 . S
Mn180 O196 2.297 . S
Mn180 O204 2.385 . S
Mn180 O205 2.209 . S
Mn180 O206 2.094 . S
Mn181 O186 2.121 . S
Mn181 N188 2.257 . S
Mn181 N197 2.282 . S
Mn181 O205 2.215 . S
Mn181 O207 2.117 . S
C182 O204 1.234 . S
C182 O205 1.283 . S
C183 O195 1.281 . S
C183 O196 1.236 . S
C184 O206 1.240 . S
C184 O207 1.264 . S
O185 Mn180 2.095 . S
O185 C194 1.250 . S
O186 Mn181 2.121 . S
O186 C194 1.258 . S
C187 N188 1.326 . S
C187 C191 1.460 . S
C187 H193 0.929 . S
N188 Mn181 2.257 . S
N188 C187 1.326 . S
N188 C192 1.362 . S
C189 C190 1.258 . S
C189 C192 1.431 . S
C189 C209 1.449 . S
C190 C189 1.258 . S
C190 C191 1.477 . S
C190 H210 0.931 . S
C191 C187 1.460 . S
C191 C190 1.477 . S
C191 H211 0.930 . S
C192 N188 1.362 . S
C192 C189 1.431 . S
C192 C202 1.476 . S
H193 C187 0.929 . S
C194 O185 1.250 . S
C194 O186 1.258 . S
O195 Mn180 2.162 . S
O195 C183 1.281 . S
O196 Mn180 2.297 . S
O196 C183 1.236 . S
N197 Mn181 2.282 . S
N197 C198 1.328 . S
N197 C202 1.318 . S
C198 N197 1.328 . S
C198 C199 1.457 . S
C198 H203 0.929 . S
C199 C198 1.457 . S
C199 C200 1.291 . S
C199 H212 0.931 . S
C200 C199 1.291 . S
C200 C201 1.373 . S
C200 H213 0.929 . S
C201 C200 1.373 . S
C201 C202 1.396 . S
C201 C208 1.403 . S
C202 C192 1.476 . S
C202 N197 1.318 . S
C202 C201 1.396 . S
H203 C198 0.929 . S
O204 Mn180 2.385 . S
O204 C182 1.234 . S
O205 Mn180 2.209 . S
O205 Mn181 2.215 . S
O205 C182 1.283 . S
O206 Mn180 2.094 . S
O206 C184 1.240 . S
O207 Mn181 2.117 . S
O207 C184 1.264 . S
C208 C201 1.403 . S
C208 C209 1.399 . S
C208 H214 0.929 . S
C209 C189 1.449 . S
C209 C208 1.399 . S
C209 H215 0.930 . S
H210 C190 0.931 . S
H211 C191 0.930 . S
H212 C199 0.931 . S
H213 C200 0.929 . S
H214 C208 0.929 . S
H215 C209 0.930 . S
Mn216 O221 2.095 . S
Mn216 O231 2.162 . S
Mn216 O232 2.297 . S
Mn216 O240 2.385 . S
Mn216 O241 2.209 . S
Mn216 O242 2.094 . S
Mn217 O222 2.121 . S
Mn217 N224 2.257 . S
Mn217 N233 2.282 . S
Mn217 O241 2.215 . S
Mn217 O243 2.117 . S
C218 O240 1.234 . S
C218 O241 1.283 . S
C219 O231 1.281 . S
C219 O232 1.236 . S
C220 O242 1.240 . S
C220 O243 1.264 . S
O221 Mn216 2.095 . S
O221 C230 1.250 . S
O222 Mn217 2.121 . S
O222 C230 1.258 . S
C223 N224 1.326 . S
C223 C227 1.460 . S
C223 H229 0.929 . S
N224 Mn217 2.257 . S
N224 C223 1.326 . S
N224 C228 1.362 . S
C225 C226 1.258 . S
C225 C228 1.431 . S
C225 C245 1.449 . S
C226 C225 1.258 . S
C226 C227 1.477 . S
C226 H246 0.931 . S
C227 C223 1.460 . S
C227 C226 1.477 . S
C227 H247 0.930 . S
C228 N224 1.362 . S
C228 C225 1.431 . S
C228 C238 1.476 . S
H229 C223 0.929 . S
C230 O221 1.250 . S
C230 O222 1.258 . S
O231 Mn216 2.162 . S
O231 C219 1.281 . S
O232 Mn216 2.297 . S
O232 C219 1.236 . S
N233 Mn217 2.282 . S
N233 C234 1.328 . S
N233 C238 1.318 . S
C234 N233 1.328 . S
C234 C235 1.457 . S
C234 H239 0.929 . S
C235 C234 1.457 . S
C235 C236 1.291 . S
C235 H248 0.931 . S
C236 C235 1.291 . S
C236 C237 1.373 . S
C236 H249 0.929 . S
C237 C236 1.373 . S
C237 C238 1.396 . S
C237 C244 1.403 . S
C238 C228 1.476 . S
C238 N233 1.318 . S
C238 C237 1.396 . S
H239 C234 0.929 . S
O240 Mn216 2.385 . S
O240 C218 1.234 . S
O241 Mn216 2.209 . S
O241 Mn217 2.215 . S
O241 C218 1.283 . S
O242 Mn216 2.094 . S
O242 C220 1.240 . S
O243 Mn217 2.117 . S
O243 C220 1.264 . S
C244 C237 1.403 . S
C244 C245 1.399 . S
C244 H250 0.929 . S
C245 C225 1.449 . S
C245 C244 1.399 . S
C245 H251 0.930 . S
H246 C226 0.931 . S
H247 C227 0.930 . S
H248 C235 0.931 . S
H249 C236 0.929 . S
H250 C244 0.929 . S
H251 C245 0.930 . S
Mn252 O257 2.095 . S
Mn252 O267 2.162 . S
Mn252 O268 2.297 . S
Mn252 O276 2.385 . S
Mn252 O277 2.209 . S
Mn252 O278 2.094 . S
Mn253 O258 2.121 . S
Mn253 N260 2.257 . S
Mn253 N269 2.282 . S
Mn253 O277 2.215 . S
Mn253 O279 2.117 . S
C254 O276 1.234 . S
C254 O277 1.283 . S
C255 O267 1.281 . S
C255 O268 1.236 . S
C256 O278 1.240 . S
C256 O279 1.264 . S
O257 Mn252 2.095 . S
O257 C266 1.250 . S
O258 Mn253 2.121 . S
O258 C266 1.258 . S
C259 N260 1.326 . S
C259 C263 1.460 . S
C259 H265 0.929 . S
N260 Mn253 2.257 . S
N260 C259 1.326 . S
N260 C264 1.362 . S
C261 C262 1.258 . S
C261 C264 1.431 . S
C261 C281 1.449 . S
C262 C261 1.258 . S
C262 C263 1.477 . S
C262 H282 0.931 . S
C263 C259 1.460 . S
C263 C262 1.477 . S
C263 H283 0.930 . S
C264 N260 1.362 . S
C264 C261 1.431 . S
C264 C274 1.476 . S
H265 C259 0.929 . S
C266 O257 1.250 . S
C266 O258 1.258 . S
O267 Mn252 2.162 . S
O267 C255 1.281 . S
O268 Mn252 2.297 . S
O268 C255 1.236 . S
N269 Mn253 2.282 . S
N269 C270 1.328 . S
N269 C274 1.318 . S
C270 N269 1.328 . S
C270 C271 1.457 . S
C270 H275 0.929 . S
C271 C270 1.457 . S
C271 C272 1.291 . S
C271 H284 0.931 . S
C272 C271 1.291 . S
C272 C273 1.373 . S
C272 H285 0.929 . S
C273 C272 1.373 . S
C273 C274 1.396 . S
C273 C280 1.403 . S
C274 C264 1.476 . S
C274 N269 1.318 . S
C274 C273 1.396 . S
H275 C270 0.929 . S
O276 Mn252 2.385 . S
O276 C254 1.234 . S
O277 Mn252 2.209 . S
O277 Mn253 2.215 . S
O277 C254 1.283 . S
O278 Mn252 2.094 . S
O278 C256 1.240 . S
O279 Mn253 2.117 . S
O279 C256 1.264 . S
C280 C273 1.403 . S
C280 C281 1.399 . S
C280 H286 0.929 . S
C281 C261 1.449 . S
C281 C280 1.399 . S
C281 H287 0.930 . S
H282 C262 0.931 . S
H283 C263 0.930 . S
H284 C271 0.931 . S
H285 C272 0.929 . S
H286 C280 0.929 . S
H287 C281 0.930 . S
Mn288 O293 2.095 . S
Mn288 O303 2.162 . S
Mn288 O304 2.297 . S
Mn288 O312 2.385 . S
Mn288 O313 2.209 . S
Mn288 O314 2.094 . S
Mn289 O294 2.121 . S
Mn289 N296 2.257 . S
Mn289 N305 2.282 . S
Mn289 O313 2.215 . S
Mn289 O315 2.117 . S
C290 O312 1.234 . S
C290 O313 1.283 . S
C291 O303 1.281 . S
C291 O304 1.236 . S
C292 O314 1.240 . S
C292 O315 1.264 . S
O293 Mn288 2.095 . S
O293 C302 1.250 . S
O294 Mn289 2.121 . S
O294 C302 1.258 . S
C295 N296 1.326 . S
C295 C299 1.460 . S
C295 H301 0.929 . S
N296 Mn289 2.257 . S
N296 C295 1.326 . S
N296 C300 1.362 . S
C297 C298 1.258 . S
C297 C300 1.431 . S
C297 C317 1.449 . S
C298 C297 1.258 . S
C298 C299 1.477 . S
C298 H318 0.931 . S
C299 C295 1.460 . S
C299 C298 1.477 . S
C299 H319 0.930 . S
C300 N296 1.362 . S
C300 C297 1.431 . S
C300 C310 1.476 . S
H301 C295 0.929 . S
C302 O293 1.250 . S
C302 O294 1.258 . S
O303 Mn288 2.162 . S
O303 C291 1.281 . S
O304 Mn288 2.297 . S
O304 C291 1.236 . S
N305 Mn289 2.282 . S
N305 C306 1.328 . S
N305 C310 1.318 . S
C306 N305 1.328 . S
C306 C307 1.457 . S
C306 H311 0.929 . S
C307 C306 1.457 . S
C307 C308 1.291 . S
C307 H320 0.931 . S
C308 C307 1.291 . S
C308 C309 1.373 . S
C308 H321 0.929 . S
C309 C308 1.373 . S
C309 C310 1.396 . S
C309 C316 1.403 . S
C310 C300 1.476 . S
C310 N305 1.318 . S
C310 C309 1.396 . S
H311 C306 0.929 . S
O312 Mn288 2.385 . S
O312 C290 1.234 . S
O313 Mn288 2.209 . S
O313 Mn289 2.215 . S
O313 C290 1.283 . S
O314 Mn288 2.094 . S
O314 C292 1.240 . S
O315 Mn289 2.117 . S
O315 C292 1.264 . S
C316 C309 1.403 . S
C316 C317 1.399 . S
C316 H322 0.929 . S
C317 C297 1.449 . S
C317 C316 1.399 . S
C317 H323 0.930 . S
H318 C298 0.931 . S
H319 C299 0.930 . S
H320 C307 0.931 . S
H321 C308 0.929 . S
H322 C316 0.929 . S
H323 C317 0.930 . S
Mn324 O329 2.095 . S
Mn324 O339 2.162 . S
Mn324 O340 2.297 . S
Mn324 O348 2.385 . S
Mn324 O349 2.209 . S
Mn324 O350 2.094 . S
Mn325 O330 2.121 . S
Mn325 N332 2.257 . S
Mn325 N341 2.282 . S
Mn325 O349 2.215 . S
Mn325 O351 2.117 . S
C326 O348 1.234 . S
C326 O349 1.283 . S
C327 O339 1.281 . S
C327 O340 1.236 . S
C328 O350 1.240 . S
C328 O351 1.264 . S
O329 Mn324 2.095 . S
O329 C338 1.250 . S
O330 Mn325 2.121 . S
O330 C338 1.258 . S
C331 N332 1.326 . S
C331 C335 1.460 . S
C331 H337 0.929 . S
N332 Mn325 2.257 . S
N332 C331 1.326 . S
N332 C336 1.362 . S
C333 C334 1.258 . S
C333 C336 1.431 . S
C333 C353 1.449 . S
C334 C333 1.258 . S
C334 C335 1.477 . S
C334 H354 0.931 . S
C335 C331 1.460 . S
C335 C334 1.477 . S
C335 H355 0.930 . S
C336 N332 1.362 . S
C336 C333 1.431 . S
C336 C346 1.476 . S
H337 C331 0.929 . S
C338 O329 1.250 . S
C338 O330 1.258 . S
O339 Mn324 2.162 . S
O339 C327 1.281 . S
O340 Mn324 2.297 . S
O340 C327 1.236 . S
N341 Mn325 2.282 . S
N341 C342 1.328 . S
N341 C346 1.318 . S
C342 N341 1.328 . S
C342 C343 1.457 . S
C342 H347 0.929 . S
C343 C342 1.457 . S
C343 C344 1.291 . S
C343 H356 0.931 . S
C344 C343 1.291 . S
C344 C345 1.373 . S
C344 H357 0.929 . S
C345 C344 1.373 . S
C345 C346 1.396 . S
C345 C352 1.403 . S
C346 C336 1.476 . S
C346 N341 1.318 . S
C346 C345 1.396 . S
H347 C342 0.929 . S
O348 Mn324 2.385 . S
O348 C326 1.234 . S
O349 Mn324 2.209 . S
O349 Mn325 2.215 . S
O349 C326 1.283 . S
O350 Mn324 2.094 . S
O350 C328 1.240 . S
O351 Mn325 2.117 . S
O351 C328 1.264 . S
C352 C345 1.403 . S
C352 C353 1.399 . S
C352 H358 0.929 . S
C353 C333 1.449 . S
C353 C352 1.399 . S
C353 H359 0.930 . S
H354 C334 0.931 . S
H355 C335 0.930 . S
H356 C343 0.931 . S
H357 C344 0.929 . S
H358 C352 0.929 . S
H359 C353 0.930 . S
Mn360 O365 2.095 . S
Mn360 O375 2.162 . S
Mn360 O376 2.297 . S
Mn360 O384 2.385 . S
Mn360 O385 2.209 . S
Mn360 O386 2.094 . S
Mn361 O366 2.121 . S
Mn361 N368 2.257 . S
Mn361 N377 2.282 . S
Mn361 O385 2.215 . S
Mn361 O387 2.117 . S
C362 O384 1.234 . S
C362 O385 1.283 . S
C363 O375 1.281 . S
C363 O376 1.236 . S
C364 O386 1.240 . S
C364 O387 1.264 . S
O365 Mn360 2.095 . S
O365 C374 1.250 . S
O366 Mn361 2.121 . S
O366 C374 1.258 . S
C367 N368 1.326 . S
C367 C371 1.460 . S
C367 H373 0.929 . S
N368 Mn361 2.257 . S
N368 C367 1.326 . S
N368 C372 1.362 . S
C369 C370 1.258 . S
C369 C372 1.431 . S
C369 C389 1.449 . S
C370 C369 1.258 . S
C370 C371 1.477 . S
C370 H390 0.931 . S
C371 C367 1.460 . S
C371 C370 1.477 . S
C371 H391 0.930 . S
C372 N368 1.362 . S
C372 C369 1.431 . S
C372 C382 1.476 . S
H373 C367 0.929 . S
C374 O365 1.250 . S
C374 O366 1.258 . S
O375 Mn360 2.162 . S
O375 C363 1.281 . S
O376 Mn360 2.297 . S
O376 C363 1.236 . S
N377 Mn361 2.282 . S
N377 C378 1.328 . S
N377 C382 1.318 . S
C378 N377 1.328 . S
C378 C379 1.457 . S
C378 H383 0.929 . S
C379 C378 1.457 . S
C379 C380 1.291 . S
C379 H392 0.931 . S
C380 C379 1.291 . S
C380 C381 1.373 . S
C380 H393 0.929 . S
C381 C380 1.373 . S
C381 C382 1.396 . S
C381 C388 1.403 . S
C382 C372 1.476 . S
C382 N377 1.318 . S
C382 C381 1.396 . S
H383 C378 0.929 . S
O384 Mn360 2.385 . S
O384 C362 1.234 . S
O385 Mn360 2.209 . S
O385 Mn361 2.215 . S
O385 C362 1.283 . S
O386 Mn360 2.094 . S
O386 C364 1.240 . S
O387 Mn361 2.117 . S
O387 C364 1.264 . S
C388 C381 1.403 . S
C388 C389 1.399 . S
C388 H394 0.929 . S
C389 C369 1.449 . S
C389 C388 1.399 . S
C389 H395 0.930 . S
H390 C370 0.931 . S
H391 C371 0.930 . S
H392 C379 0.931 . S
H393 C380 0.929 . S
H394 C388 0.929 . S
H395 C389 0.930 . S
Mn396 O401 2.095 . S
Mn396 O411 2.162 . S
Mn396 O412 2.297 . S
Mn396 O420 2.385 . S
Mn396 O421 2.209 . S
Mn396 O422 2.094 . S
Mn397 O402 2.121 . S
Mn397 N404 2.257 . S
Mn397 N413 2.282 . S
Mn397 O421 2.215 . S
Mn397 O423 2.117 . S
C398 O420 1.234 . S
C398 O421 1.283 . S
C399 O411 1.281 . S
C399 O412 1.236 . S
C400 O422 1.240 . S
C400 O423 1.264 . S
O401 Mn396 2.095 . S
O401 C410 1.250 . S
O402 Mn397 2.121 . S
O402 C410 1.258 . S
C403 N404 1.326 . S
C403 C407 1.460 . S
C403 H409 0.929 . S
N404 Mn397 2.257 . S
N404 C403 1.326 . S
N404 C408 1.362 . S
C405 C406 1.258 . S
C405 C408 1.431 . S
C405 C425 1.449 . S
C406 C405 1.258 . S
C406 C407 1.477 . S
C406 H426 0.931 . S
C407 C403 1.460 . S
C407 C406 1.477 . S
C407 H427 0.930 . S
C408 N404 1.362 . S
C408 C405 1.431 . S
C408 C418 1.476 . S
H409 C403 0.929 . S
C410 O401 1.250 . S
C410 O402 1.258 . S
O411 Mn396 2.162 . S
O411 C399 1.281 . S
O412 Mn396 2.297 . S
O412 C399 1.236 . S
N413 Mn397 2.282 . S
N413 C414 1.328 . S
N413 C418 1.318 . S
C414 N413 1.328 . S
C414 C415 1.457 . S
C414 H419 0.929 . S
C415 C414 1.457 . S
C415 C416 1.291 . S
C415 H428 0.931 . S
C416 C415 1.291 . S
C416 C417 1.373 . S
C416 H429 0.929 . S
C417 C416 1.373 . S
C417 C418 1.396 . S
C417 C424 1.403 . S
C418 C408 1.476 . S
C418 N413 1.318 . S
C418 C417 1.396 . S
H419 C414 0.929 . S
O420 Mn396 2.385 . S
O420 C398 1.234 . S
O421 Mn396 2.209 . S
O421 Mn397 2.215 . S
O421 C398 1.283 . S
O422 Mn396 2.094 . S
O422 C400 1.240 . S
O423 Mn397 2.117 . S
O423 C400 1.264 . S
C424 C417 1.403 . S
C424 C425 1.399 . S
C424 H430 0.929 . S
C425 C405 1.449 . S
C425 C424 1.399 . S
C425 H431 0.930 . S
H426 C406 0.931 . S
H427 C407 0.930 . S
H428 C415 0.931 . S
H429 C416 0.929 . S
H430 C424 0.929 . S
H431 C425 0.930 . S
Mn432 O437 2.095 . S
Mn432 O447 2.162 . S
Mn432 O448 2.297 . S
Mn432 O456 2.385 . S
Mn432 O457 2.209 . S
Mn432 O458 2.094 . S
Mn433 O438 2.121 . S
Mn433 N440 2.257 . S
Mn433 N449 2.282 . S
Mn433 O457 2.215 . S
Mn433 O459 2.117 . S
C434 O456 1.234 . S
C434 O457 1.283 . S
C435 O447 1.281 . S
C435 O448 1.236 . S
C436 O458 1.240 . S
C436 O459 1.264 . S
O437 Mn432 2.095 . S
O437 C446 1.250 . S
O438 Mn433 2.121 . S
O438 C446 1.258 . S
C439 N440 1.326 . S
C439 C443 1.460 . S
C439 H445 0.929 . S
N440 Mn433 2.257 . S
N440 C439 1.326 . S
N440 C444 1.362 . S
C441 C442 1.258 . S
C441 C444 1.431 . S
C441 C461 1.449 . S
C442 C441 1.258 . S
C442 C443 1.477 . S
C442 H462 0.931 . S
C443 C439 1.460 . S
C443 C442 1.477 . S
C443 H463 0.930 . S
C444 N440 1.362 . S
C444 C441 1.431 . S
C444 C454 1.476 . S
H445 C439 0.929 . S
C446 O437 1.250 . S
C446 O438 1.258 . S
O447 Mn432 2.162 . S
O447 C435 1.281 . S
O448 Mn432 2.297 . S
O448 C435 1.236 . S
N449 Mn433 2.282 . S
N449 C450 1.328 . S
N449 C454 1.318 . S
C450 N449 1.328 . S
C450 C451 1.457 . S
C450 H455 0.929 . S
C451 C450 1.457 . S
C451 C452 1.291 . S
C451 H464 0.931 . S
C452 C451 1.291 . S
C452 C453 1.373 . S
C452 H465 0.929 . S
C453 C452 1.373 . S
C453 C454 1.396 . S
C453 C460 1.403 . S
C454 C444 1.476 . S
C454 N449 1.318 . S
C454 C453 1.396 . S
H455 C450 0.929 . S
O456 Mn432 2.385 . S
O456 C434 1.234 . S
O457 Mn432 2.209 . S
O457 Mn433 2.215 . S
O457 C434 1.283 . S
O458 Mn432 2.094 . S
O458 C436 1.240 . S
O459 Mn433 2.117 . S
O459 C436 1.264 . S
C460 C453 1.403 . S
C460 C461 1.399 . S
C460 H466 0.929 . S
C461 C441 1.449 . S
C461 C460 1.399 . S
C461 H467 0.930 . S
H462 C442 0.931 . S
H463 C443 0.930 . S
H464 C451 0.931 . S
H465 C452 0.929 . S
H466 C460 0.929 . S
H467 C461 0.930 . S
Mn468 O473 2.095 . S
Mn468 O483 2.162 . S
Mn468 O484 2.297 . S
Mn468 O492 2.385 . S
Mn468 O493 2.209 . S
Mn468 O494 2.094 . S
Mn469 O474 2.121 . S
Mn469 N476 2.257 . S
Mn469 N485 2.282 . S
Mn469 O493 2.215 . S
Mn469 O495 2.117 . S
C470 O492 1.234 . S
C470 O493 1.283 . S
C471 O483 1.281 . S
C471 O484 1.236 . S
C472 O494 1.240 . S
C472 O495 1.264 . S
O473 Mn468 2.095 . S
O473 C482 1.250 . S
O474 Mn469 2.121 . S
O474 C482 1.258 . S
C475 N476 1.326 . S
C475 C479 1.460 . S
C475 H481 0.929 . S
N476 Mn469 2.257 . S
N476 C475 1.326 . S
N476 C480 1.362 . S
C477 C478 1.258 . S
C477 C480 1.431 . S
C477 C497 1.449 . S
C478 C477 1.258 . S
C478 C479 1.477 . S
C478 H498 0.931 . S
C479 C475 1.460 . S
C479 C478 1.477 . S
C479 H499 0.930 . S
C480 N476 1.362 . S
C480 C477 1.431 . S
C480 C490 1.476 . S
H481 C475 0.929 . S
C482 O473 1.250 . S
C482 O474 1.258 . S
O483 Mn468 2.162 . S
O483 C471 1.281 . S
O484 Mn468 2.297 . S
O484 C471 1.236 . S
N485 Mn469 2.282 . S
N485 C486 1.328 . S
N485 C490 1.318 . S
C486 N485 1.328 . S
C486 C487 1.457 . S
C486 H491 0.929 . S
C487 C486 1.457 . S
C487 C488 1.291 . S
C487 H500 0.931 . S
C488 C487 1.291 . S
C488 C489 1.373 . S
C488 H501 0.929 . S
C489 C488 1.373 . S
C489 C490 1.396 . S
C489 C496 1.403 . S
C490 C480 1.476 . S
C490 N485 1.318 . S
C490 C489 1.396 . S
H491 C486 0.929 . S
O492 Mn468 2.385 . S
O492 C470 1.234 . S
O493 Mn468 2.209 . S
O493 Mn469 2.215 . S
O493 C470 1.283 . S
O494 Mn468 2.094 . S
O494 C472 1.240 . S
O495 Mn469 2.117 . S
O495 C472 1.264 . S
C496 C489 1.403 . S
C496 C497 1.399 . S
C496 H502 0.929 . S
C497 C477 1.449 . S
C497 C496 1.399 . S
C497 H503 0.930 . S
H498 C478 0.931 . S
H499 C479 0.930 . S
H500 C487 0.931 . S
H501 C488 0.929 . S
H502 C496 0.929 . S
H503 C497 0.930 . S
Mn504 O509 2.095 . S
Mn504 O519 2.162 . S
Mn504 O520 2.297 . S
Mn504 O528 2.385 . S
Mn504 O529 2.209 . S
Mn504 O530 2.094 . S
Mn505 O510 2.121 . S
Mn505 N512 2.257 . S
Mn505 N521 2.282 . S
Mn505 O529 2.215 . S
Mn505 O531 2.117 . S
C506 O528 1.234 . S
C506 O529 1.283 . S
C507 O519 1.281 . S
C507 O520 1.236 . S
C508 O530 1.240 . S
C508 O531 1.264 . S
O509 Mn504 2.095 . S
O509 C518 1.250 . S
O510 Mn505 2.121 . S
O510 C518 1.258 . S
C511 N512 1.326 . S
C511 C515 1.460 . S
C511 H517 0.929 . S
N512 Mn505 2.257 . S
N512 C511 1.326 . S
N512 C516 1.362 . S
C513 C514 1.258 . S
C513 C516 1.431 . S
C513 C533 1.449 . S
C514 C513 1.258 . S
C514 C515 1.477 . S
C514 H534 0.931 . S
C515 C511 1.460 . S
C515 C514 1.477 . S
C515 H535 0.930 . S
C516 N512 1.362 . S
C516 C513 1.431 . S
C516 C526 1.476 . S
H517 C511 0.929 . S
C518 O509 1.250 . S
C518 O510 1.258 . S
O519 Mn504 2.162 . S
O519 C507 1.281 . S
O520 Mn504 2.297 . S
O520 C507 1.236 . S
N521 Mn505 2.282 . S
N521 C522 1.328 . S
N521 C526 1.318 . S
C522 N521 1.328 . S
C522 C523 1.457 . S
C522 H527 0.929 . S
C523 C522 1.457 . S
C523 C524 1.291 . S
C523 H536 0.931 . S
C524 C523 1.291 . S
C524 C525 1.373 . S
C524 H537 0.929 . S
C525 C524 1.373 . S
C525 C526 1.396 . S
C525 C532 1.403 . S
C526 C516 1.476 . S
C526 N521 1.318 . S
C526 C525 1.396 . S
H527 C522 0.929 . S
O528 Mn504 2.385 . S
O528 C506 1.234 . S
O529 Mn504 2.209 . S
O529 Mn505 2.215 . S
O529 C506 1.283 . S
O530 Mn504 2.094 . S
O530 C508 1.240 . S
O531 Mn505 2.117 . S
O531 C508 1.264 . S
C532 C525 1.403 . S
C532 C533 1.399 . S
C532 H538 0.929 . S
C533 C513 1.449 . S
C533 C532 1.399 . S
C533 H539 0.930 . S
H534 C514 0.931 . S
H535 C515 0.930 . S
H536 C523 0.931 . S
H537 C524 0.929 . S
H538 C532 0.929 . S
H539 C533 0.930 . S
Mn540 O545 2.095 . S
Mn540 O555 2.162 . S
Mn540 O556 2.297 . S
Mn540 O564 2.385 . S
Mn540 O565 2.209 . S
Mn540 O566 2.094 . S
Mn541 O546 2.121 . S
Mn541 N548 2.257 . S
Mn541 N557 2.282 . S
Mn541 O565 2.215 . S
Mn541 O567 2.117 . S
C542 O564 1.234 . S
C542 O565 1.283 . S
C543 O555 1.281 . S
C543 O556 1.236 . S
C544 O566 1.240 . S
C544 O567 1.264 . S
O545 Mn540 2.095 . S
O545 C554 1.250 . S
O546 Mn541 2.121 . S
O546 C554 1.258 . S
C547 N548 1.326 . S
C547 C551 1.460 . S
C547 H553 0.929 . S
N548 Mn541 2.257 . S
N548 C547 1.326 . S
N548 C552 1.362 . S
C549 C550 1.258 . S
C549 C552 1.431 . S
C549 C569 1.449 . S
C550 C549 1.258 . S
C550 C551 1.477 . S
C550 H570 0.931 . S
C551 C547 1.460 . S
C551 C550 1.477 . S
C551 H571 0.930 . S
C552 N548 1.362 . S
C552 C549 1.431 . S
C552 C562 1.476 . S
H553 C547 0.929 . S
C554 O545 1.250 . S
C554 O546 1.258 . S
O555 Mn540 2.162 . S
O555 C543 1.281 . S
O556 Mn540 2.297 . S
O556 C543 1.236 . S
N557 Mn541 2.282 . S
N557 C558 1.328 . S
N557 C562 1.318 . S
C558 N557 1.328 . S
C558 C559 1.457 . S
C558 H563 0.929 . S
C559 C558 1.457 . S
C559 C560 1.291 . S
C559 H572 0.931 . S
C560 C559 1.291 . S
C560 C561 1.373 . S
C560 H573 0.929 . S
C561 C560 1.373 . S
C561 C562 1.396 . S
C561 C568 1.403 . S
C562 C552 1.476 . S
C562 N557 1.318 . S
C562 C561 1.396 . S
H563 C558 0.929 . S
O564 Mn540 2.385 . S
O564 C542 1.234 . S
O565 Mn540 2.209 . S
O565 Mn541 2.215 . S
O565 C542 1.283 . S
O566 Mn540 2.094 . S
O566 C544 1.240 . S
O567 Mn541 2.117 . S
O567 C544 1.264 . S
C568 C561 1.403 . S
C568 C569 1.399 . S
C568 H574 0.929 . S
C569 C549 1.449 . S
C569 C568 1.399 . S
C569 H575 0.930 . S
H570 C550 0.931 . S
H571 C551 0.930 . S
H572 C559 0.931 . S
H573 C560 0.929 . S
H574 C568 0.929 . S
H575 C569 0.930 . S
C576 C577 1.349 . S
C576 C578 1.327 . S
C576 H601 0.950 . S
C577 C576 1.349 . S
C577 C593 1.349 . S
C578 C576 1.327 . S
C578 C597 1.429 . S
C578 H602 0.950 . S
C579 C596 1.574 . S
C579 C598 1.368 . S
C579 H603 0.949 . S
H580 C584 0.949 . S
C581 C582 1.349 . S
C581 C583 1.327 . S
C581 H604 0.950 . S
C582 C581 1.349 . S
C582 C594 1.349 . S
C583 C581 1.327 . S
C583 C599 1.429 . S
C583 H605 0.950 . S
C584 H580 0.949 . S
C584 C592 1.574 . S
C584 C600 1.368 . S
H585 C593 0.950 . S
H586 C591 0.950 . S
H587 C592 0.949 . S
H588 C594 0.950 . S
H589 C595 0.950 . S
H590 C596 0.949 . S
C591 H586 0.950 . S
C591 C593 1.327 . S
C591 C597 1.429 . S
C592 C584 1.574 . S
C592 H587 0.949 . S
C592 C598 1.368 . S
C593 C577 1.349 . S
C593 H585 0.950 . S
C593 C591 1.327 . S
C594 C582 1.349 . S
C594 H588 0.950 . S
C594 C595 1.327 . S
C595 H589 0.950 . S
C595 C594 1.327 . S
C595 C599 1.429 . S
C596 C579 1.574 . S
C596 H590 0.949 . S
C596 C600 1.368 . S
C597 C578 1.429 . S
C597 C591 1.429 . S
C597 C598 1.523 . S
C598 C579 1.368 . S
C598 C592 1.368 . S
C598 C597 1.523 . S
C599 C583 1.429 . S
C599 C595 1.429 . S
C599 C600 1.523 . S
C600 C584 1.368 . S
C600 C596 1.368 . S
C600 C599 1.523 . S
H601 C576 0.950 . S
H602 C578 0.950 . S
H603 C579 0.949 . S
H604 C581 0.950 . S
H605 C583 0.950 . S
C606 C607 1.349 . S
C606 C608 1.327 . S
C606 H631 0.950 . S
C607 C606 1.349 . S
C607 C623 1.349 . S
C608 C606 1.327 . S
C608 C627 1.429 . S
C608 H632 0.950 . S
C609 C626 1.574 . S
C609 C628 1.368 . S
C609 H633 0.949 . S
H610 C614 0.949 . S
C611 C612 1.349 . S
C611 C613 1.327 . S
C611 H634 0.950 . S
C612 C611 1.349 . S
C612 C624 1.349 . S
C613 C611 1.327 . S
C613 C629 1.429 . S
C613 H635 0.950 . S
C614 H610 0.949 . S
C614 C622 1.574 . S
C614 C630 1.368 . S
H615 C623 0.950 . S
H616 C621 0.950 . S
H617 C622 0.949 . S
H618 C624 0.950 . S
H619 C625 0.950 . S
H620 C626 0.949 . S
C621 H616 0.950 . S
C621 C623 1.327 . S
C621 C627 1.429 . S
C622 C614 1.574 . S
C622 H617 0.949 . S
C622 C628 1.368 . S
C623 C607 1.349 . S
C623 H615 0.950 . S
C623 C621 1.327 . S
C624 C612 1.349 . S
C624 H618 0.950 . S
C624 C625 1.327 . S
C625 H619 0.950 . S
C625 C624 1.327 . S
C625 C629 1.429 . S
C626 C609 1.574 . S
C626 H620 0.949 . S
C626 C630 1.368 . S
C627 C608 1.429 . S
C627 C621 1.429 . S
C627 C628 1.523 . S
C628 C609 1.368 . S
C628 C622 1.368 . S
C628 C627 1.523 . S
C629 C613 1.429 . S
C629 C625 1.429 . S
C629 C630 1.523 . S
C630 C614 1.368 . S
C630 C626 1.368 . S
C630 C629 1.523 . S
H631 C606 0.950 . S
H632 C608 0.950 . S
H633 C609 0.949 . S
H634 C611 0.950 . S
H635 C613 0.950 . S
C636 C637 1.349 . S
C636 C638 1.327 . S
C636 H661 0.950 . S
C637 C636 1.349 . S
C637 C653 1.349 . S
C638 C636 1.327 . S
C638 C657 1.429 . S
C638 H662 0.950 . S
C639 C656 1.574 . S
C639 C658 1.368 . S
C639 H663 0.949 . S
H640 C644 0.949 . S
C641 C642 1.349 . S
C641 C643 1.327 . S
C641 H664 0.950 . S
C642 C641 1.349 . S
C642 C654 1.349 . S
C643 C641 1.327 . S
C643 C659 1.429 . S
C643 H665 0.950 . S
C644 H640 0.949 . S
C644 C652 1.574 . S
C644 C660 1.368 . S
H645 C653 0.950 . S
H646 C651 0.950 . S
H647 C652 0.949 . S
H648 C654 0.950 . S
H649 C655 0.950 . S
H650 C656 0.949 . S
C651 H646 0.950 . S
C651 C653 1.327 . S
C651 C657 1.429 . S
C652 C644 1.574 . S
C652 H647 0.949 . S
C652 C658 1.368 . S
C653 C637 1.349 . S
C653 H645 0.950 . S
C653 C651 1.327 . S
C654 C642 1.349 . S
C654 H648 0.950 . S
C654 C655 1.327 . S
C655 H649 0.950 . S
C655 C654 1.327 . S
C655 C659 1.429 . S
C656 C639 1.574 . S
C656 H650 0.949 . S
C656 C660 1.368 . S
C657 C638 1.429 . S
C657 C651 1.429 . S
C657 C658 1.523 . S
C658 C639 1.368 . S
C658 C652 1.368 . S
C658 C657 1.523 . S
C659 C643 1.429 . S
C659 C655 1.429 . S
C659 C660 1.523 . S
C660 C644 1.368 . S
C660 C656 1.368 . S
C660 C659 1.523 . S
H661 C636 0.950 . S
H662 C638 0.950 . S
H663 C639 0.949 . S
H664 C641 0.950 . S
H665 C643 0.950 . S
C666 C667 1.349 . S
C666 C668 1.327 . S
C666 H691 0.950 . S
C667 C666 1.349 . S
C667 C683 1.349 . S
C668 C666 1.327 . S
C668 C687 1.429 . S
C668 H692 0.950 . S
C669 C686 1.574 . S
C669 C688 1.368 . S
C669 H693 0.949 . S
H670 C674 0.949 . S
C671 C672 1.349 . S
C671 C673 1.327 . S
C671 H694 0.950 . S
C672 C671 1.349 . S
C672 C684 1.349 . S
C673 C671 1.327 . S
C673 C689 1.429 . S
C673 H695 0.950 . S
C674 H670 0.949 . S
C674 C682 1.574 . S
C674 C690 1.368 . S
H675 C683 0.950 . S
H676 C681 0.950 . S
H677 C682 0.949 . S
H678 C684 0.950 . S
H679 C685 0.950 . S
H680 C686 0.949 . S
C681 H676 0.950 . S
C681 C683 1.327 . S
C681 C687 1.429 . S
C682 C674 1.574 . S
C682 H677 0.949 . S
C682 C688 1.368 . S
C683 C667 1.349 . S
C683 H675 0.950 . S
C683 C681 1.327 . S
C684 C672 1.349 . S
C684 H678 0.950 . S
C684 C685 1.327 . S
C685 H679 0.950 . S
C685 C684 1.327 . S
C685 C689 1.429 . S
C686 C669 1.574 . S
C686 H680 0.949 . S
C686 C690 1.368 . S
C687 C668 1.429 . S
C687 C681 1.429 . S
C687 C688 1.523 . S
C688 C669 1.368 . S
C688 C682 1.368 . S
C688 C687 1.523 . S
C689 C673 1.429 . S
C689 C685 1.429 . S
C689 C690 1.523 . S
C690 C674 1.368 . S
C690 C686 1.368 . S
C690 C689 1.523 . S
H691 C666 0.950 . S
H692 C668 0.950 . S
H693 C669 0.949 . S
H694 C671 0.950 . S
H695 C673 0.950 . S
C696 C697 1.349 . S
C696 C698 1.327 . S
C696 H721 0.950 . S
C697 C696 1.349 . S
C697 C713 1.349 . S
C698 C696 1.327 . S
C698 C717 1.429 . S
C698 H722 0.950 . S
C699 C716 1.574 . S
C699 C718 1.368 . S
C699 H723 0.949 . S
H700 C704 0.949 . S
C701 C702 1.349 . S
C701 C703 1.327 . S
C701 H724 0.950 . S
C702 C701 1.349 . S
C702 C714 1.349 . S
C703 C701 1.327 . S
C703 C719 1.429 . S
C703 H725 0.950 . S
C704 H700 0.949 . S
C704 C712 1.574 . S
C704 C720 1.368 . S
H705 C713 0.950 . S
H706 C711 0.950 . S
H707 C712 0.949 . S
H708 C714 0.950 . S
H709 C715 0.950 . S
H710 C716 0.949 . S
C711 H706 0.950 . S
C711 C713 1.327 . S
C711 C717 1.429 . S
C712 C704 1.574 . S
C712 H707 0.949 . S
C712 C718 1.368 . S
C713 C697 1.349 . S
C713 H705 0.950 . S
C713 C711 1.327 . S
C714 C702 1.349 . S
C714 H708 0.950 . S
C714 C715 1.327 . S
C715 H709 0.950 . S
C715 C714 1.327 . S
C715 C719 1.429 . S
C716 C699 1.574 . S
C716 H710 0.949 . S
C716 C720 1.368 . S
C717 C698 1.429 . S
C717 C711 1.429 . S
C717 C718 1.523 . S
C718 C699 1.368 . S
C718 C712 1.368 . S
C718 C717 1.523 . S
C719 C703 1.429 . S
C719 C715 1.429 . S
C719 C720 1.523 . S
C720 C704 1.368 . S
C720 C716 1.368 . S
C720 C719 1.523 . S
H721 C696 0.950 . S
H722 C698 0.950 . S
H723 C699 0.949 . S
H724 C701 0.950 . S
H725 C703 0.950 . S
C726 C727 1.349 . S
C726 C728 1.327 . S
C726 H751 0.950 . S
C727 C726 1.349 . S
C727 C743 1.349 . S
C728 C726 1.327 . S
C728 C747 1.429 . S
C728 H752 0.950 . S
C729 C746 1.574 . S
C729 C748 1.368 . S
C729 H753 0.949 . S
H730 C734 0.949 . S
C731 C732 1.349 . S
C731 C733 1.327 . S
C731 H754 0.950 . S
C732 C731 1.349 . S
C732 C744 1.349 . S
C733 C731 1.327 . S
C733 C749 1.429 . S
C733 H755 0.950 . S
C734 H730 0.949 . S
C734 C742 1.574 . S
C734 C750 1.368 . S
H735 C743 0.950 . S
H736 C741 0.950 . S
H737 C742 0.949 . S
H738 C744 0.950 . S
H739 C745 0.950 . S
H740 C746 0.949 . S
C741 H736 0.950 . S
C741 C743 1.327 . S
C741 C747 1.429 . S
C742 C734 1.574 . S
C742 H737 0.949 . S
C742 C748 1.368 . S
C743 C727 1.349 . S
C743 H735 0.950 . S
C743 C741 1.327 . S
C744 C732 1.349 . S
C744 H738 0.950 . S
C744 C745 1.327 . S
C745 H739 0.950 . S
C745 C744 1.327 . S
C745 C749 1.429 . S
C746 C729 1.574 . S
C746 H740 0.949 . S
C746 C750 1.368 . S
C747 C728 1.429 . S
C747 C741 1.429 . S
C747 C748 1.523 . S
C748 C729 1.368 . S
C748 C742 1.368 . S
C748 C747 1.523 . S
C749 C733 1.429 . S
C749 C745 1.429 . S
C749 C750 1.523 . S
C750 C734 1.368 . S
C750 C746 1.368 . S
C750 C749 1.523 . S
H751 C726 0.950 . S
H752 C728 0.950 . S
H753 C729 0.949 . S
H754 C731 0.950 . S
H755 C733 0.950 . S
C756 C757 1.349 . S
C756 C758 1.327 . S
C756 H781 0.950 . S
C757 C756 1.349 . S
C757 C773 1.349 . S
C758 C756 1.327 . S
C758 C777 1.429 . S
C758 H782 0.950 . S
C759 C776 1.574 . S
C759 C778 1.368 . S
C759 H783 0.949 . S
H760 C764 0.949 . S
C761 C762 1.349 . S
C761 C763 1.327 . S
C761 H784 0.950 . S
C762 C761 1.349 . S
C762 C774 1.349 . S
C763 C761 1.327 . S
C763 C779 1.429 . S
C763 H785 0.950 . S
C764 H760 0.949 . S
C764 C772 1.574 . S
C764 C780 1.368 . S
H765 C773 0.950 . S
H766 C771 0.950 . S
H767 C772 0.949 . S
H768 C774 0.950 . S
H769 C775 0.950 . S
H770 C776 0.949 . S
C771 H766 0.950 . S
C771 C773 1.327 . S
C771 C777 1.429 . S
C772 C764 1.574 . S
C772 H767 0.949 . S
C772 C778 1.368 . S
C773 C757 1.349 . S
C773 H765 0.950 . S
C773 C771 1.327 . S
C774 C762 1.349 . S
C774 H768 0.950 . S
C774 C775 1.327 . S
C775 H769 0.950 . S
C775 C774 1.327 . S
C775 C779 1.429 . S
C776 C759 1.574 . S
C776 H770 0.949 . S
C776 C780 1.368 . S
C777 C758 1.429 . S
C777 C771 1.429 . S
C777 C778 1.523 . S
C778 C759 1.368 . S
C778 C772 1.368 . S
C778 C777 1.523 . S
C779 C763 1.429 . S
C779 C775 1.429 . S
C779 C780 1.523 . S
C780 C764 1.368 . S
C780 C776 1.368 . S
C780 C779 1.523 . S
H781 C756 0.950 . S
H782 C758 0.950 . S
H783 C759 0.949 . S
H784 C761 0.950 . S
H785 C763 0.950 . S
C786 C787 1.349 . S
C786 C788 1.327 . S
C786 H811 0.950 . S
C787 C786 1.349 . S
C787 C803 1.349 . S
C788 C786 1.327 . S
C788 C807 1.429 . S
C788 H812 0.950 . S
C789 C806 1.574 . S
C789 C808 1.368 . S
C789 H813 0.949 . S
H790 C794 0.949 . S
C791 C792 1.349 . S
C791 C793 1.327 . S
C791 H814 0.950 . S
C792 C791 1.349 . S
C792 C804 1.349 . S
C793 C791 1.327 . S
C793 C809 1.429 . S
C793 H815 0.950 . S
C794 H790 0.949 . S
C794 C802 1.574 . S
C794 C810 1.368 . S
H795 C803 0.950 . S
H796 C801 0.950 . S
H797 C802 0.949 . S
H798 C804 0.950 . S
H799 C805 0.950 . S
H800 C806 0.949 . S
C801 H796 0.950 . S
C801 C803 1.327 . S
C801 C807 1.429 . S
C802 C794 1.574 . S
C802 H797 0.949 . S
C802 C808 1.368 . S
C803 C787 1.349 . S
C803 H795 0.950 . S
C803 C801 1.327 . S
C804 C792 1.349 . S
C804 H798 0.950 . S
C804 C805 1.327 . S
C805 H799 0.950 . S
C805 C804 1.327 . S
C805 C809 1.429 . S
C806 C789 1.574 . S
C806 H800 0.949 . S
C806 C810 1.368 . S
C807 C788 1.429 . S
C807 C801 1.429 . S
C807 C808 1.523 . S
C808 C789 1.368 . S
C808 C802 1.368 . S
C808 C807 1.523 . S
C809 C793 1.429 . S
C809 C805 1.429 . S
C809 C810 1.523 . S
C810 C794 1.368 . S
C810 C806 1.368 . S
C810 C809 1.523 . S
H811 C786 0.950 . S
H812 C788 0.950 . S
H813 C789 0.949 . S
H814 C791 0.950 . S
H815 C793 0.950 . S
C816 C817 1.349 . S
C816 C818 1.327 . S
C816 H841 0.950 . S
C817 C816 1.349 . S
C817 C833 1.349 . S
C818 C816 1.327 . S
C818 C837 1.429 . S
C818 H842 0.950 . S
C819 C836 1.574 . S
C819 C838 1.368 . S
C819 H843 0.949 . S
H820 C824 0.949 . S
C821 C822 1.349 . S
C821 C823 1.327 . S
C821 H844 0.950 . S
C822 C821 1.349 . S
C822 C834 1.349 . S
C823 C821 1.327 . S
C823 C839 1.429 . S
C823 H845 0.950 . S
C824 H820 0.949 . S
C824 C832 1.574 . S
C824 C840 1.368 . S
H825 C833 0.950 . S
H826 C831 0.950 . S
H827 C832 0.949 . S
H828 C834 0.950 . S
H829 C835 0.950 . S
H830 C836 0.949 . S
C831 H826 0.950 . S
C831 C833 1.327 . S
C831 C837 1.429 . S
C832 C824 1.574 . S
C832 H827 0.949 . S
C832 C838 1.368 . S
C833 C817 1.349 . S
C833 H825 0.950 . S
C833 C831 1.327 . S
C834 C822 1.349 . S
C834 H828 0.950 . S
C834 C835 1.327 . S
C835 H829 0.950 . S
C835 C834 1.327 . S
C835 C839 1.429 . S
C836 C819 1.574 . S
C836 H830 0.949 . S
C836 C840 1.368 . S
C837 C818 1.429 . S
C837 C831 1.429 . S
C837 C838 1.523 . S
C838 C819 1.368 . S
C838 C832 1.368 . S
C838 C837 1.523 . S
C839 C823 1.429 . S
C839 C835 1.429 . S
C839 C840 1.523 . S
C840 C824 1.368 . S
C840 C836 1.368 . S
C840 C839 1.523 . S
H841 C816 0.950 . S
H842 C818 0.950 . S
H843 C819 0.949 . S
H844 C821 0.950 . S
H845 C823 0.950 . S
C846 C847 1.349 . S
C846 C848 1.327 . S
C846 H871 0.950 . S
C847 C846 1.349 . S
C847 C863 1.349 . S
C848 C846 1.327 . S
C848 C867 1.429 . S
C848 H872 0.950 . S
C849 C866 1.574 . S
C849 C868 1.368 . S
C849 H873 0.949 . S
H850 C854 0.949 . S
C851 C852 1.349 . S
C851 C853 1.327 . S
C851 H874 0.950 . S
C852 C851 1.349 . S
C852 C864 1.349 . S
C853 C851 1.327 . S
C853 C869 1.429 . S
C853 H875 0.950 . S
C854 H850 0.949 . S
C854 C862 1.574 . S
C854 C870 1.368 . S
H855 C863 0.950 . S
H856 C861 0.950 . S
H857 C862 0.949 . S
H858 C864 0.950 . S
H859 C865 0.950 . S
H860 C866 0.949 . S
C861 H856 0.950 . S
C861 C863 1.327 . S
C861 C867 1.429 . S
C862 C854 1.574 . S
C862 H857 0.949 . S
C862 C868 1.368 . S
C863 C847 1.349 . S
C863 H855 0.950 . S
C863 C861 1.327 . S
C864 C852 1.349 . S
C864 H858 0.950 . S
C864 C865 1.327 . S
C865 H859 0.950 . S
C865 C864 1.327 . S
C865 C869 1.429 . S
C866 C849 1.574 . S
C866 H860 0.949 . S
C866 C870 1.368 . S
C867 C848 1.429 . S
C867 C861 1.429 . S
C867 C868 1.523 . S
C868 C849 1.368 . S
C868 C862 1.368 . S
C868 C867 1.523 . S
C869 C853 1.429 . S
C869 C865 1.429 . S
C869 C870 1.523 . S
C870 C854 1.368 . S
C870 C866 1.368 . S
C870 C869 1.523 . S
H871 C846 0.950 . S
H872 C848 0.950 . S
H873 C849 0.949 . S
H874 C851 0.950 . S
H875 C853 0.950 . S
C876 C877 1.349 . S
C876 C878 1.327 . S
C876 H901 0.950 . S
C877 C876 1.349 . S
C877 C893 1.349 . S
C878 C876 1.327 . S
C878 C897 1.429 . S
C878 H902 0.950 . S
C879 C896 1.574 . S
C879 C898 1.368 . S
C879 H903 0.949 . S
H880 C884 0.949 . S
C881 C882 1.349 . S
C881 C883 1.327 . S
C881 H904 0.950 . S
C882 C881 1.349 . S
C882 C894 1.349 . S
C883 C881 1.327 . S
C883 C899 1.429 . S
C883 H905 0.950 . S
C884 H880 0.949 . S
C884 C892 1.574 . S
C884 C900 1.368 . S
H885 C893 0.950 . S
H886 C891 0.950 . S
H887 C892 0.949 . S
H888 C894 0.950 . S
H889 C895 0.950 . S
H890 C896 0.949 . S
C891 H886 0.950 . S
C891 C893 1.327 . S
C891 C897 1.429 . S
C892 C884 1.574 . S
C892 H887 0.949 . S
C892 C898 1.368 . S
C893 C877 1.349 . S
C893 H885 0.950 . S
C893 C891 1.327 . S
C894 C882 1.349 . S
C894 H888 0.950 . S
C894 C895 1.327 . S
C895 H889 0.950 . S
C895 C894 1.327 . S
C895 C899 1.429 . S
C896 C879 1.574 . S
C896 H890 0.949 . S
C896 C900 1.368 . S
C897 C878 1.429 . S
C897 C891 1.429 . S
C897 C898 1.523 . S
C898 C879 1.368 . S
C898 C892 1.368 . S
C898 C897 1.523 . S
C899 C883 1.429 . S
C899 C895 1.429 . S
C899 C900 1.523 . S
C900 C884 1.368 . S
C900 C896 1.368 . S
C900 C899 1.523 . S
H901 C876 0.950 . S
H902 C878 0.950 . S
H903 C879 0.949 . S
H904 C881 0.950 . S
H905 C883 0.950 . S
C906 C907 1.349 . S
C906 C908 1.327 . S
C906 H931 0.950 . S
C907 C906 1.349 . S
C907 C923 1.349 . S
C908 C906 1.327 . S
C908 C927 1.429 . S
C908 H932 0.950 . S
C909 C926 1.574 1_554 S
C909 C928 1.368 . S
C909 H933 0.949 . S
H910 C914 0.949 . S
C911 C912 1.349 . S
C911 C913 1.327 . S
C911 H934 0.950 . S
C912 C911 1.349 . S
C912 C924 1.349 . S
C913 C911 1.327 . S
C913 C929 1.429 . S
C913 H935 0.950 . S
C914 H910 0.949 . S
C914 C922 1.574 1_556 S
C914 C930 1.368 . S
H915 C923 0.950 . S
H916 C921 0.950 . S
H917 C922 0.949 . S
H918 C924 0.950 . S
H919 C925 0.950 . S
H920 C926 0.949 . S
C921 H916 0.950 . S
C921 C923 1.327 . S
C921 C927 1.429 . S
C922 C914 1.574 1_554 S
C922 H917 0.949 . S
C922 C928 1.368 . S
C923 C907 1.349 . S
C923 H915 0.950 . S
C923 C921 1.327 . S
C924 C912 1.349 . S
C924 H918 0.950 . S
C924 C925 1.327 . S
C925 H919 0.950 . S
C925 C924 1.327 . S
C925 C929 1.429 . S
C926 C909 1.574 1_556 S
C926 H920 0.949 . S
C926 C930 1.368 . S
C927 C908 1.429 . S
C927 C921 1.429 . S
C927 C928 1.523 . S
C928 C909 1.368 . S
C928 C922 1.368 . S
C928 C927 1.523 . S
C929 C913 1.429 . S
C929 C925 1.429 . S
C929 C930 1.523 . S
C930 C914 1.368 . S
C930 C926 1.368 . S
C930 C929 1.523 . S
H931 C906 0.950 . S
H932 C908 0.950 . S
H933 C909 0.949 . S
H934 C911 0.950 . S
H935 C913 0.950 . S
C936 C937 1.349 . S
C936 C938 1.327 . S
C936 H961 0.950 . S
C937 C936 1.349 . S
C937 C953 1.349 . S
C938 C936 1.327 . S
C938 C957 1.429 . S
C938 H962 0.950 . S
C939 C956 1.574 1_554 S
C939 C958 1.368 . S
C939 H963 0.949 . S
H940 C944 0.949 . S
C941 C942 1.349 . S
C941 C943 1.327 . S
C941 H964 0.950 . S
C942 C941 1.349 . S
C942 C954 1.349 . S
C943 C941 1.327 . S
C943 C959 1.429 . S
C943 H965 0.950 . S
C944 H940 0.949 . S
C944 C952 1.574 1_556 S
C944 C960 1.368 . S
H945 C953 0.950 . S
H946 C951 0.950 . S
H947 C952 0.949 . S
H948 C954 0.950 . S
H949 C955 0.950 . S
H950 C956 0.949 . S
C951 H946 0.950 . S
C951 C953 1.327 . S
C951 C957 1.429 . S
C952 C944 1.574 1_554 S
C952 H947 0.949 . S
C952 C958 1.368 . S
C953 C937 1.349 . S
C953 H945 0.950 . S
C953 C951 1.327 . S
C954 C942 1.349 . S
C954 H948 0.950 . S
C954 C955 1.327 . S
C955 H949 0.950 . S
C955 C954 1.327 . S
C955 C959 1.429 . S
C956 C939 1.574 1_556 S
C956 H950 0.949 . S
C956 C960 1.368 . S
C957 C938 1.429 . S
C957 C951 1.429 . S
C957 C958 1.523 . S
C958 C939 1.368 . S
C958 C952 1.368 . S
C958 C957 1.523 . S
C959 C943 1.429 . S
C959 C955 1.429 . S
C959 C960 1.523 . S
C960 C944 1.368 . S
C960 C956 1.368 . S
C960 C959 1.523 . S
H961 C936 0.950 . S
H962 C938 0.950 . S
H963 C939 0.949 . S
H964 C941 0.950 . S
H965 C943 0.950 . S
C966 C967 1.349 . S
C966 C968 1.327 . S
C966 H991 0.950 . S
C967 C966 1.349 . S
C967 C983 1.349 . S
C968 C966 1.327 . S
C968 C987 1.429 . S
C968 H992 0.950 . S
C969 C986 1.574 . S
C969 C988 1.368 . S
C969 H993 0.949 . S
H970 C974 0.949 . S
C971 C972 1.349 . S
C971 C973 1.327 . S
C971 H994 0.950 . S
C972 C971 1.349 . S
C972 C984 1.349 . S
C973 C971 1.327 . S
C973 C989 1.429 . S
C973 H995 0.950 . S
C974 H970 0.949 . S
C974 C982 1.574 . S
C974 C990 1.368 . S
H975 C983 0.950 . S
H976 C981 0.950 . S
H977 C982 0.949 . S
H978 C984 0.950 . S
H979 C985 0.950 . S
H980 C986 0.949 . S
C981 H976 0.950 . S
C981 C983 1.327 . S
C981 C987 1.429 . S
C982 C974 1.574 . S
C982 H977 0.949 . S
C982 C988 1.368 . S
C983 C967 1.349 . S
C983 H975 0.950 . S
C983 C981 1.327 . S
C984 C972 1.349 . S
C984 H978 0.950 . S
C984 C985 1.327 . S
C985 H979 0.950 . S
C985 C984 1.327 . S
C985 C989 1.429 . S
C986 C969 1.574 . S
C986 H980 0.949 . S
C986 C990 1.368 . S
C987 C968 1.429 . S
C987 C981 1.429 . S
C987 C988 1.523 . S
C988 C969 1.368 . S
C988 C982 1.368 . S
C988 C987 1.523 . S
C989 C973 1.429 . S
C989 C985 1.429 . S
C989 C990 1.523 . S
C990 C974 1.368 . S
C990 C986 1.368 . S
C990 C989 1.523 . S
H991 C966 0.950 . S
H992 C968 0.950 . S
H993 C969 0.949 . S
H994 C971 0.950 . S
H995 C973 0.950 . S
C996 C997 1.349 . S
C996 C998 1.327 . S
C996 H1021 0.950 . S
C997 C996 1.349 . S
C997 C1013 1.349 . S
C998 C996 1.327 . S
C998 C1017 1.429 . S
C998 H1022 0.950 . S
C999 C1016 1.574 . S
C999 C1018 1.368 . S
C999 H1023 0.949 . S
H1000 C1004 0.949 . S
C1001 C1002 1.349 . S
C1001 C1003 1.327 . S
C1001 H1024 0.950 . S
C1002 C1001 1.349 . S
C1002 C1014 1.349 . S
C1003 C1001 1.327 . S
C1003 C1019 1.429 . S
C1003 H1025 0.950 . S
C1004 H1000 0.949 . S
C1004 C1012 1.574 . S
C1004 C1020 1.368 . S
H1005 C1013 0.950 . S
H1006 C1011 0.950 . S
H1007 C1012 0.949 . S
H1008 C1014 0.950 . S
H1009 C1015 0.950 . S
H1010 C1016 0.949 . S
C1011 H1006 0.950 . S
C1011 C1013 1.327 . S
C1011 C1017 1.429 . S
C1012 C1004 1.574 . S
C1012 H1007 0.949 . S
C1012 C1018 1.368 . S
C1013 C997 1.349 . S
C1013 H1005 0.950 . S
C1013 C1011 1.327 . S
C1014 C1002 1.349 . S
C1014 H1008 0.950 . S
C1014 C1015 1.327 . S
C1015 H1009 0.950 . S
C1015 C1014 1.327 . S
C1015 C1019 1.429 . S
C1016 C999 1.574 . S
C1016 H1010 0.949 . S
C1016 C1020 1.368 . S
C1017 C998 1.429 . S
C1017 C1011 1.429 . S
C1017 C1018 1.523 . S
C1018 C999 1.368 . S
C1018 C1012 1.368 . S
C1018 C1017 1.523 . S
C1019 C1003 1.429 . S
C1019 C1015 1.429 . S
C1019 C1020 1.523 . S
C1020 C1004 1.368 . S
C1020 C1016 1.368 . S
C1020 C1019 1.523 . S
H1021 C996 0.950 . S
H1022 C998 0.950 . S
H1023 C999 0.949 . S
H1024 C1001 0.950 . S
H1025 C1003 0.950 . S
C1026 C1027 1.349 . S
C1026 C1028 1.327 . S
C1026 H1051 0.950 . S
C1027 C1026 1.349 . S
C1027 C1043 1.349 . S
C1028 C1026 1.327 . S
C1028 C1047 1.429 . S
C1028 H1052 0.950 . S
C1029 C1046 1.574 . S
C1029 C1048 1.368 . S
C1029 H1053 0.949 . S
H1030 C1034 0.949 . S
C1031 C1032 1.349 . S
C1031 C1033 1.327 . S
C1031 H1054 0.950 . S
C1032 C1031 1.349 . S
C1032 C1044 1.349 . S
C1033 C1031 1.327 . S
C1033 C1049 1.429 . S
C1033 H1055 0.950 . S
C1034 H1030 0.949 . S
C1034 C1042 1.574 . S
C1034 C1050 1.368 . S
H1035 C1043 0.950 . S
H1036 C1041 0.950 . S
H1037 C1042 0.949 . S
H1038 C1044 0.950 . S
H1039 C1045 0.950 . S
H1040 C1046 0.949 . S
C1041 H1036 0.950 . S
C1041 C1043 1.327 . S
C1041 C1047 1.429 . S
C1042 C1034 1.574 . S
C1042 H1037 0.949 . S
C1042 C1048 1.368 . S
C1043 C1027 1.349 . S
C1043 H1035 0.950 . S
C1043 C1041 1.327 . S
C1044 C1032 1.349 . S
C1044 H1038 0.950 . S
C1044 C1045 1.327 . S
C1045 H1039 0.950 . S
C1045 C1044 1.327 . S
C1045 C1049 1.429 . S
C1046 C1029 1.574 . S
C1046 H1040 0.949 . S
C1046 C1050 1.368 . S
C1047 C1028 1.429 . S
C1047 C1041 1.429 . S
C1047 C1048 1.523 . S
C1048 C1029 1.368 . S
C1048 C1042 1.368 . S
C1048 C1047 1.523 . S
C1049 C1033 1.429 . S
C1049 C1045 1.429 . S
C1049 C1050 1.523 . S
C1050 C1034 1.368 . S
C1050 C1046 1.368 . S
C1050 C1049 1.523 . S
H1051 C1026 0.950 . S
H1052 C1028 0.950 . S
H1053 C1029 0.949 . S
H1054 C1031 0.950 . S
H1055 C1033 0.950 . S
C1056 C1057 1.349 . S
C1056 C1058 1.327 . S
C1056 H1081 0.950 . S
C1057 C1056 1.349 . S
C1057 C1073 1.349 . S
C1058 C1056 1.327 . S
C1058 C1077 1.429 . S
C1058 H1082 0.950 . S
C1059 C1076 1.574 1_455 S
C1059 C1078 1.368 . S
C1059 H1083 0.949 . S
H1060 C1064 0.949 . S
C1061 C1062 1.349 . S
C1061 C1063 1.327 . S
C1061 H1084 0.950 . S
C1062 C1061 1.349 . S
C1062 C1074 1.349 . S
C1063 C1061 1.327 . S
C1063 C1079 1.429 . S
C1063 H1085 0.950 . S
C1064 H1060 0.949 . S
C1064 C1072 1.574 1_655 S
C1064 C1080 1.368 . S
H1065 C1073 0.950 . S
H1066 C1071 0.950 . S
H1067 C1072 0.949 . S
H1068 C1074 0.950 . S
H1069 C1075 0.950 . S
H1070 C1076 0.949 . S
C1071 H1066 0.950 . S
C1071 C1073 1.327 . S
C1071 C1077 1.429 . S
C1072 C1064 1.574 1_455 S
C1072 H1067 0.949 . S
C1072 C1078 1.368 1_565 S
C1073 C1057 1.349 . S
C1073 H1065 0.950 . S
C1073 C1071 1.327 . S
C1074 C1062 1.349 . S
C1074 H1068 0.950 . S
C1074 C1075 1.327 . S
C1075 H1069 0.950 . S
C1075 C1074 1.327 . S
C1075 C1079 1.429 . S
C1076 C1059 1.574 1_655 S
C1076 H1070 0.949 . S
C1076 C1080 1.368 1_545 S
C1077 C1058 1.429 . S
C1077 C1071 1.429 . S
C1077 C1078 1.523 . S
C1078 C1059 1.368 . S
C1078 C1072 1.368 1_545 S
C1078 C1077 1.523 . S
C1079 C1063 1.429 . S
C1079 C1075 1.429 . S
C1079 C1080 1.523 . S
C1080 C1064 1.368 . S
C1080 C1076 1.368 1_565 S
C1080 C1079 1.523 . S
H1081 C1056 0.950 . S
H1082 C1058 0.950 . S
H1083 C1059 0.949 . S
H1084 C1061 0.950 . S
H1085 C1063 0.950 . S
C1086 C1087 1.349 . S
C1086 C1088 1.327 . S
C1086 H1111 0.950 . S
C1087 C1086 1.349 . S
C1087 C1103 1.349 . S
C1088 C1086 1.327 . S
C1088 C1107 1.429 . S
C1088 H1112 0.950 . S
C1089 C1106 1.574 . S
C1089 C1108 1.368 . S
C1089 H1113 0.949 . S
H1090 C1094 0.949 . S
C1091 C1092 1.349 . S
C1091 C1093 1.327 . S
C1091 H1114 0.950 . S
C1092 C1091 1.349 . S
C1092 C1104 1.349 . S
C1093 C1091 1.327 . S
C1093 C1109 1.429 . S
C1093 H1115 0.950 . S
C1094 H1090 0.949 . S
C1094 C1102 1.574 . S
C1094 C1110 1.368 . S
H1095 C1103 0.950 . S
H1096 C1101 0.950 . S
H1097 C1102 0.949 . S
H1098 C1104 0.950 . S
H1099 C1105 0.950 . S
H1100 C1106 0.949 . S
C1101 H1096 0.950 . S
C1101 C1103 1.327 . S
C1101 C1107 1.429 . S
C1102 C1094 1.574 . S
C1102 H1097 0.949 . S
C1102 C1108 1.368 1_655 S
C1103 C1087 1.349 . S
C1103 H1095 0.950 . S
C1103 C1101 1.327 . S
C1104 C1092 1.349 . S
C1104 H1098 0.950 . S
C1104 C1105 1.327 . S
C1105 H1099 0.950 . S
C1105 C1104 1.327 . S
C1105 C1109 1.429 . S
C1106 C1089 1.574 . S
C1106 H1100 0.949 . S
C1106 C1110 1.368 1_455 S
C1107 C1088 1.429 . S
C1107 C1101 1.429 . S
C1107 C1108 1.523 . S
C1108 C1089 1.368 . S
C1108 C1102 1.368 1_455 S
C1108 C1107 1.523 . S
C1109 C1093 1.429 . S
C1109 C1105 1.429 . S
C1109 C1110 1.523 . S
C1110 C1094 1.368 . S
C1110 C1106 1.368 1_655 S
C1110 C1109 1.523 . S
H1111 C1086 0.950 . S
H1112 C1088 0.950 . S
H1113 C1089 0.949 . S
H1114 C1091 0.950 . S
H1115 C1093 0.950 . S
C1116 C1117 1.349 . S
C1116 C1118 1.327 . S
C1116 H1141 0.950 . S
C1117 C1116 1.349 . S
C1117 C1133 1.349 . S
C1118 C1116 1.327 . S
C1118 C1137 1.429 . S
C1118 H1142 0.950 . S
C1119 C1136 1.574 . S
C1119 C1138 1.368 . S
C1119 H1143 0.949 . S
H1120 C1124 0.949 . S
C1121 C1122 1.349 . S
C1121 C1123 1.327 . S
C1121 H1144 0.950 . S
C1122 C1121 1.349 . S
C1122 C1134 1.349 . S
C1123 C1121 1.327 . S
C1123 C1139 1.429 . S
C1123 H1145 0.950 . S
C1124 H1120 0.949 . S
C1124 C1132 1.574 . S
C1124 C1140 1.368 . S
H1125 C1133 0.950 . S
H1126 C1131 0.950 . S
H1127 C1132 0.949 . S
H1128 C1134 0.950 . S
H1129 C1135 0.950 . S
H1130 C1136 0.949 . S
C1131 H1126 0.950 . S
C1131 C1133 1.327 . S
C1131 C1137 1.429 . S
C1132 C1124 1.574 . S
C1132 H1127 0.949 . S
C1132 C1138 1.368 . S
C1133 C1117 1.349 . S
C1133 H1125 0.950 . S
C1133 C1131 1.327 . S
C1134 C1122 1.349 . S
C1134 H1128 0.950 . S
C1134 C1135 1.327 . S
C1135 H1129 0.950 . S
C1135 C1134 1.327 . S
C1135 C1139 1.429 . S
C1136 C1119 1.574 . S
C1136 H1130 0.949 . S
C1136 C1140 1.368 . S
C1137 C1118 1.429 . S
C1137 C1131 1.429 . S
C1137 C1138 1.523 . S
C1138 C1119 1.368 . S
C1138 C1132 1.368 . S
C1138 C1137 1.523 . S
C1139 C1123 1.429 . S
C1139 C1135 1.429 . S
C1139 C1140 1.523 . S
C1140 C1124 1.368 . S
C1140 C1136 1.368 . S
C1140 C1139 1.523 . S
H1141 C1116 0.950 . S
H1142 C1118 0.950 . S
H1143 C1119 0.949 . S
H1144 C1121 0.950 . S
H1145 C1123 0.950 . S
C1146 C1147 1.349 . S
C1146 C1148 1.327 . S
C1146 H1171 0.950 . S
C1147 C1146 1.349 . S
C1147 C1163 1.349 . S
C1148 C1146 1.327 . S
C1148 C1167 1.429 . S
C1148 H1172 0.950 . S
C1149 C1166 1.574 1_545 S
C1149 C1168 1.368 . S
C1149 H1173 0.949 . S
H1150 C1154 0.949 . S
C1151 C1152 1.349 . S
C1151 C1153 1.327 . S
C1151 H1174 0.950 . S
C1152 C1151 1.349 . S
C1152 C1164 1.349 . S
C1153 C1151 1.327 . S
C1153 C1169 1.429 . S
C1153 H1175 0.950 . S
C1154 H1150 0.949 . S
C1154 C1162 1.574 1_565 S
C1154 C1170 1.368 . S
H1155 C1163 0.950 . S
H1156 C1161 0.950 . S
H1157 C1162 0.949 . S
H1158 C1164 0.950 . S
H1159 C1165 0.950 . S
H1160 C1166 0.949 . S
C1161 H1156 0.950 . S
C1161 C1163 1.327 . S
C1161 C1167 1.429 . S
C1162 C1154 1.574 1_545 S
C1162 H1157 0.949 . S
C1162 C1168 1.368 . S
C1163 C1147 1.349 . S
C1163 H1155 0.950 . S
C1163 C1161 1.327 . S
C1164 C1152 1.349 . S
C1164 H1158 0.950 . S
C1164 C1165 1.327 . S
C1165 H1159 0.950 . S
C1165 C1164 1.327 . S
C1165 C1169 1.429 . S
C1166 C1149 1.574 1_565 S
C1166 H1160 0.949 . S
C1166 C1170 1.368 . S
C1167 C1148 1.429 . S
C1167 C1161 1.429 . S
C1167 C1168 1.523 . S
C1168 C1149 1.368 . S
C1168 C1162 1.368 . S
C1168 C1167 1.523 . S
C1169 C1153 1.429 . S
C1169 C1165 1.429 . S
C1169 C1170 1.523 . S
C1170 C1154 1.368 . S
C1170 C1166 1.368 . S
C1170 C1169 1.523 . S
H1171 C1146 0.950 . S
H1172 C1148 0.950 . S
H1173 C1149 0.949 . S
H1174 C1151 0.950 . S
H1175 C1153 0.950 . S
C1176 C1177 1.349 . S
C1176 C1178 1.327 . S
C1176 H1201 0.950 . S
C1177 C1176 1.349 . S
C1177 C1193 1.349 . S
C1178 C1176 1.327 . S
C1178 C1197 1.429 . S
C1178 H1202 0.950 . S
C1179 C1196 1.574 1_455 S
C1179 C1198 1.368 . S
C1179 H1203 0.949 . S
H1180 C1184 0.949 . S
C1181 C1182 1.349 . S
C1181 C1183 1.327 . S
C1181 H1204 0.950 . S
C1182 C1181 1.349 . S
C1182 C1194 1.349 . S
C1183 C1181 1.327 . S
C1183 C1199 1.429 . S
C1183 H1205 0.950 . S
C1184 H1180 0.949 . S
C1184 C1192 1.574 1_655 S
C1184 C1200 1.368 . S
H1185 C1193 0.950 . S
H1186 C1191 0.950 . S
H1187 C1192 0.949 . S
H1188 C1194 0.950 . S
H1189 C1195 0.950 . S
H1190 C1196 0.949 . S
C1191 H1186 0.950 . S
C1191 C1193 1.327 . S
C1191 C1197 1.429 . S
C1192 C1184 1.574 1_455 S
C1192 H1187 0.949 . S
C1192 C1198 1.368 . S
C1193 C1177 1.349 . S
C1193 H1185 0.950 . S
C1193 C1191 1.327 . S
C1194 C1182 1.349 . S
C1194 H1188 0.950 . S
C1194 C1195 1.327 . S
C1195 H1189 0.950 . S
C1195 C1194 1.327 . S
C1195 C1199 1.429 . S
C1196 C1179 1.574 1_655 S
C1196 H1190 0.949 . S
C1196 C1200 1.368 . S
C1197 C1178 1.429 . S
C1197 C1191 1.429 . S
C1197 C1198 1.523 . S
C1198 C1179 1.368 . S
C1198 C1192 1.368 . S
C1198 C1197 1.523 . S
C1199 C1183 1.429 . S
C1199 C1195 1.429 . S
C1199 C1200 1.523 . S
C1200 C1184 1.368 . S
C1200 C1196 1.368 . S
C1200 C1199 1.523 . S
H1201 C1176 0.950 . S
H1202 C1178 0.950 . S
H1203 C1179 0.949 . S
H1204 C1181 0.950 . S
H1205 C1183 0.950 . S
C1206 C1207 1.349 . S
C1206 C1208 1.327 . S
C1206 H1231 0.950 . S
C1207 C1206 1.349 . S
C1207 C1223 1.349 . S
C1208 C1206 1.327 . S
C1208 C1227 1.429 . S
C1208 H1232 0.950 . S
C1209 C1226 1.574 . S
C1209 C1228 1.368 . S
C1209 H1233 0.949 . S
H1210 C1214 0.949 . S
C1211 C1212 1.349 . S
C1211 C1213 1.327 . S
C1211 H1234 0.950 . S
C1212 C1211 1.349 . S
C1212 C1224 1.349 . S
C1213 C1211 1.327 . S
C1213 C1229 1.429 . S
C1213 H1235 0.950 . S
C1214 H1210 0.949 . S
C1214 C1222 1.574 . S
C1214 C1230 1.368 . S
H1215 C1223 0.950 . S
H1216 C1221 0.950 . S
H1217 C1222 0.949 . S
H1218 C1224 0.950 . S
H1219 C1225 0.950 . S
H1220 C1226 0.949 . S
C1221 H1216 0.950 . S
C1221 C1223 1.327 . S
C1221 C1227 1.429 . S
C1222 C1214 1.574 . S
C1222 H1217 0.949 . S
C1222 C1228 1.368 . S
C1223 C1207 1.349 . S
C1223 H1215 0.950 . S
C1223 C1221 1.327 . S
C1224 C1212 1.349 . S
C1224 H1218 0.950 . S
C1224 C1225 1.327 . S
C1225 H1219 0.950 . S
C1225 C1224 1.327 . S
C1225 C1229 1.429 . S
C1226 C1209 1.574 . S
C1226 H1220 0.949 . S
C1226 C1230 1.368 . S
C1227 C1208 1.429 . S
C1227 C1221 1.429 . S
C1227 C1228 1.523 . S
C1228 C1209 1.368 . S
C1228 C1222 1.368 . S
C1228 C1227 1.523 . S
C1229 C1213 1.429 . S
C1229 C1225 1.429 . S
C1229 C1230 1.523 . S
C1230 C1214 1.368 . S
C1230 C1226 1.368 . S
C1230 C1229 1.523 . S
H1231 C1206 0.950 . S
H1232 C1208 0.950 . S
H1233 C1209 0.949 . S
H1234 C1211 0.950 . S
H1235 C1213 0.950 . S
C1236 C1237 1.349 . S
C1236 C1238 1.327 . S
C1236 H1261 0.950 . S
C1237 C1236 1.349 . S
C1237 C1253 1.349 . S
C1238 C1236 1.327 . S
C1238 C1257 1.429 . S
C1238 H1262 0.950 . S
C1239 C1256 1.574 . S
C1239 C1258 1.368 1_545 S
C1239 H1263 0.949 . S
H1240 C1244 0.949 . S
C1241 C1242 1.349 . S
C1241 C1243 1.327 . S
C1241 H1264 0.950 . S
C1242 C1241 1.349 . S
C1242 C1254 1.349 . S
C1243 C1241 1.327 . S
C1243 C1259 1.429 . S
C1243 H1265 0.950 . S
C1244 H1240 0.949 . S
C1244 C1252 1.574 . S
C1244 C1260 1.368 1_565 S
H1245 C1253 0.950 . S
H1246 C1251 0.950 . S
H1247 C1252 0.949 . S
H1248 C1254 0.950 . S
H1249 C1255 0.950 . S
H1250 C1256 0.949 . S
C1251 H1246 0.950 . S
C1251 C1253 1.327 . S
C1251 C1257 1.429 . S
C1252 C1244 1.574 . S
C1252 H1247 0.949 . S
C1252 C1258 1.368 . S
C1253 C1237 1.349 . S
C1253 H1245 0.950 . S
C1253 C1251 1.327 . S
C1254 C1242 1.349 . S
C1254 H1248 0.950 . S
C1254 C1255 1.327 . S
C1255 H1249 0.950 . S
C1255 C1254 1.327 . S
C1255 C1259 1.429 . S
C1256 C1239 1.574 . S
C1256 H1250 0.949 . S
C1256 C1260 1.368 . S
C1257 C1238 1.429 . S
C1257 C1251 1.429 . S
C1257 C1258 1.523 . S
C1258 C1239 1.368 1_565 S
C1258 C1252 1.368 . S
C1258 C1257 1.523 . S
C1259 C1243 1.429 . S
C1259 C1255 1.429 . S
C1259 C1260 1.523 . S
C1260 C1244 1.368 1_545 S
C1260 C1256 1.368 . S
C1260 C1259 1.523 . S
H1261 C1236 0.950 . S
H1262 C1238 0.950 . S
H1263 C1239 0.949 . S
H1264 C1241 0.950 . S
H1265 C1243 0.950 . S
C1266 C1267 1.349 . S
C1266 C1268 1.327 . S
C1266 H1291 0.950 . S
C1267 C1266 1.349 . S
C1267 C1283 1.349 . S
C1268 C1266 1.327 . S
C1268 C1287 1.429 . S
C1268 H1292 0.950 . S
C1269 C1286 1.574 1_545 S
C1269 C1288 1.368 1_655 S
C1269 H1293 0.949 . S
H1270 C1274 0.949 . S
C1271 C1272 1.349 . S
C1271 C1273 1.327 . S
C1271 H1294 0.950 . S
C1272 C1271 1.349 . S
C1272 C1284 1.349 . S
C1273 C1271 1.327 . S
C1273 C1289 1.429 . S
C1273 H1295 0.950 . S
C1274 H1270 0.949 . S
C1274 C1282 1.574 1_565 S
C1274 C1290 1.368 1_455 S
H1275 C1283 0.950 . S
H1276 C1281 0.950 . S
H1277 C1282 0.949 . S
H1278 C1284 0.950 . S
H1279 C1285 0.950 . S
H1280 C1286 0.949 . S
C1281 H1276 0.950 . S
C1281 C1283 1.327 . S
C1281 C1287 1.429 . S
C1282 C1274 1.574 1_545 S
C1282 H1277 0.949 . S
C1282 C1288 1.368 . S
C1283 C1267 1.349 . S
C1283 H1275 0.950 . S
C1283 C1281 1.327 . S
C1284 C1272 1.349 . S
C1284 H1278 0.950 . S
C1284 C1285 1.327 . S
C1285 H1279 0.950 . S
C1285 C1284 1.327 . S
C1285 C1289 1.429 . S
C1286 C1269 1.574 1_565 S
C1286 H1280 0.949 . S
C1286 C1290 1.368 . S
C1287 C1268 1.429 . S
C1287 C1281 1.429 . S
C1287 C1288 1.523 . S
C1288 C1269 1.368 1_455 S
C1288 C1282 1.368 . S
C1288 C1287 1.523 . S
C1289 C1273 1.429 . S
C1289 C1285 1.429 . S
C1289 C1290 1.523 . S
C1290 C1274 1.368 1_655 S
C1290 C1286 1.368 . S
C1290 C1289 1.523 . S
H1291 C1266 0.950 . S
H1292 C1268 0.950 . S
H1293 C1269 0.949 . S
H1294 C1271 0.950 . S
H1295 C1273 0.950 . S
C1296 C1297 1.349 . S
C1296 C1298 1.327 . S
C1296 H1321 0.950 . S
C1297 C1296 1.349 . S
C1297 C1313 1.349 . S
C1298 C1296 1.327 . S
C1298 C1317 1.429 . S
C1298 H1322 0.950 . S
C1299 C1316 1.574 . S
C1299 C1318 1.368 . S
C1299 H1323 0.949 . S
H1300 C1304 0.949 . S
C1301 C1302 1.349 . S
C1301 C1303 1.327 . S
C1301 H1324 0.950 . S
C1302 C1301 1.349 . S
C1302 C1314 1.349 . S
C1303 C1301 1.327 . S
C1303 C1319 1.429 . S
C1303 H1325 0.950 . S
C1304 H1300 0.949 . S
C1304 C1312 1.574 . S
C1304 C1320 1.368 . S
H1305 C1313 0.950 . S
H1306 C1311 0.950 . S
H1307 C1312 0.949 . S
H1308 C1314 0.950 . S
H1309 C1315 0.950 . S
H1310 C1316 0.949 . S
C1311 H1306 0.950 . S
C1311 C1313 1.327 . S
C1311 C1317 1.429 . S
C1312 C1304 1.574 . S
C1312 H1307 0.949 . S
C1312 C1318 1.368 1_545 S
C1313 C1297 1.349 . S
C1313 H1305 0.950 . S
C1313 C1311 1.327 . S
C1314 C1302 1.349 . S
C1314 H1308 0.950 . S
C1314 C1315 1.327 . S
C1315 H1309 0.950 . S
C1315 C1314 1.327 . S
C1315 C1319 1.429 . S
C1316 C1299 1.574 . S
C1316 H1310 0.949 . S
C1316 C1320 1.368 1_565 S
C1317 C1298 1.429 . S
C1317 C1311 1.429 . S
C1317 C1318 1.523 . S
C1318 C1299 1.368 . S
C1318 C1312 1.368 1_565 S
C1318 C1317 1.523 . S
C1319 C1303 1.429 . S
C1319 C1315 1.429 . S
C1319 C1320 1.523 . S
C1320 C1304 1.368 . S
C1320 C1316 1.368 1_545 S
C1320 C1319 1.523 . S
H1321 C1296 0.950 . S
H1322 C1298 0.950 . S
H1323 C1299 0.949 . S
H1324 C1301 0.950 . S
H1325 C1303 0.950 . S
C1326 C1327 1.349 . S
C1326 C1328 1.327 . S
C1326 H1351 0.950 . S
C1327 C1326 1.349 . S
C1327 C1343 1.349 . S
C1328 C1326 1.327 . S
C1328 C1347 1.429 . S
C1328 H1352 0.950 . S
C1329 C1346 1.574 1_565 S
C1329 C1348 1.368 . S
C1329 H1353 0.949 . S
H1330 C1334 0.949 . S
C1331 C1332 1.349 . S
C1331 C1333 1.327 . S
C1331 H1354 0.950 . S
C1332 C1331 1.349 . S
C1332 C1344 1.349 . S
C1333 C1331 1.327 . S
C1333 C1349 1.429 . S
C1333 H1355 0.950 . S
C1334 H1330 0.949 . S
C1334 C1342 1.574 1_545 S
C1334 C1350 1.368 . S
H1335 C1343 0.950 . S
H1336 C1341 0.950 . S
H1337 C1342 0.949 . S
H1338 C1344 0.950 . S
H1339 C1345 0.950 . S
H1340 C1346 0.949 . S
C1341 H1336 0.950 . S
C1341 C1343 1.327 . S
C1341 C1347 1.429 . S
C1342 C1334 1.574 1_565 S
C1342 H1337 0.949 . S
C1342 C1348 1.368 1_455 S
C1343 C1327 1.349 . S
C1343 H1335 0.950 . S
C1343 C1341 1.327 . S
C1344 C1332 1.349 . S
C1344 H1338 0.950 . S
C1344 C1345 1.327 . S
C1345 H1339 0.950 . S
C1345 C1344 1.327 . S
C1345 C1349 1.429 . S
C1346 C1329 1.574 1_545 S
C1346 H1340 0.949 . S
C1346 C1350 1.368 1_655 S
C1347 C1328 1.429 . S
C1347 C1341 1.429 . S
C1347 C1348 1.523 . S
C1348 C1329 1.368 . S
C1348 C1342 1.368 1_655 S
C1348 C1347 1.523 . S
C1349 C1333 1.429 . S
C1349 C1345 1.429 . S
C1349 C1350 1.523 . S
C1350 C1334 1.368 . S
C1350 C1346 1.368 1_455 S
C1350 C1349 1.523 . S
H1351 C1326 0.950 . S
H1352 C1328 0.950 . S
H1353 C1329 0.949 . S
H1354 C1331 0.950 . S
H1355 C1333 0.950 . S
C1356 C1357 1.349 . S
C1356 C1358 1.327 . S
C1356 H1381 0.950 . S
C1357 C1356 1.349 . S
C1357 C1373 1.349 . S
C1358 C1356 1.327 . S
C1358 C1377 1.429 . S
C1358 H1382 0.950 . S
C1359 C1376 1.574 1_455 S
C1359 C1378 1.368 . S
C1359 H1383 0.949 . S
H1360 C1364 0.949 . S
C1361 C1362 1.349 . S
C1361 C1363 1.327 . S
C1361 H1384 0.950 . S
C1362 C1361 1.349 . S
C1362 C1374 1.349 . S
C1363 C1361 1.327 . S
C1363 C1379 1.429 . S
C1363 H1385 0.950 . S
C1364 H1360 0.949 . S
C1364 C1372 1.574 1_655 S
C1364 C1380 1.368 . S
H1365 C1373 0.950 . S
H1366 C1371 0.950 . S
H1367 C1372 0.949 . S
H1368 C1374 0.950 . S
H1369 C1375 0.950 . S
H1370 C1376 0.949 . S
C1371 H1366 0.950 . S
C1371 C1373 1.327 . S
C1371 C1377 1.429 . S
C1372 C1364 1.574 1_455 S
C1372 H1367 0.949 . S
C1372 C1378 1.368 . S
C1373 C1357 1.349 . S
C1373 H1365 0.950 . S
C1373 C1371 1.327 . S
C1374 C1362 1.349 . S
C1374 H1368 0.950 . S
C1374 C1375 1.327 . S
C1375 H1369 0.950 . S
C1375 C1374 1.327 . S
C1375 C1379 1.429 . S
C1376 C1359 1.574 1_655 S
C1376 H1370 0.949 . S
C1376 C1380 1.368 . S
C1377 C1358 1.429 . S
C1377 C1371 1.429 . S
C1377 C1378 1.523 . S
C1378 C1359 1.368 . S
C1378 C1372 1.368 . S
C1378 C1377 1.523 . S
C1379 C1363 1.429 . S
C1379 C1375 1.429 . S
C1379 C1380 1.523 . S
C1380 C1364 1.368 . S
C1380 C1376 1.368 . S
C1380 C1379 1.523 . S
H1381 C1356 0.950 . S
H1382 C1358 0.950 . S
H1383 C1359 0.949 . S
H1384 C1361 0.950 . S
H1385 C1363 0.950 . S
C1386 C1387 1.349 . S
C1386 C1388 1.327 . S
C1386 H1411 0.950 . S
C1387 C1386 1.349 . S
C1387 C1403 1.349 . S
C1388 C1386 1.327 . S
C1388 C1407 1.429 . S
C1388 H1412 0.950 . S
C1389 C1406 1.574 . S
C1389 C1408 1.368 . S
C1389 H1413 0.949 . S
H1390 C1394 0.949 . S
C1391 C1392 1.349 . S
C1391 C1393 1.327 . S
C1391 H1414 0.950 . S
C1392 C1391 1.349 . S
C1392 C1404 1.349 . S
C1393 C1391 1.327 . S
C1393 C1409 1.429 . S
C1393 H1415 0.950 . S
C1394 H1390 0.949 . S
C1394 C1402 1.574 . S
C1394 C1410 1.368 . S
H1395 C1403 0.950 . S
H1396 C1401 0.950 . S
H1397 C1402 0.949 . S
H1398 C1404 0.950 . S
H1399 C1405 0.950 . S
H1400 C1406 0.949 . S
C1401 H1396 0.950 . S
C1401 C1403 1.327 . S
C1401 C1407 1.429 . S
C1402 C1394 1.574 . S
C1402 H1397 0.949 . S
C1402 C1408 1.368 . S
C1403 C1387 1.349 . S
C1403 H1395 0.950 . S
C1403 C1401 1.327 . S
C1404 C1392 1.349 . S
C1404 H1398 0.950 . S
C1404 C1405 1.327 . S
C1405 H1399 0.950 . S
C1405 C1404 1.327 . S
C1405 C1409 1.429 . S
C1406 C1389 1.574 . S
C1406 H1400 0.949 . S
C1406 C1410 1.368 . S
C1407 C1388 1.429 . S
C1407 C1401 1.429 . S
C1407 C1408 1.523 . S
C1408 C1389 1.368 . S
C1408 C1402 1.368 . S
C1408 C1407 1.523 . S
C1409 C1393 1.429 . S
C1409 C1405 1.429 . S
C1409 C1410 1.523 . S
C1410 C1394 1.368 . S
C1410 C1406 1.368 . S
C1410 C1409 1.523 . S
H1411 C1386 0.950 . S
H1412 C1388 0.950 . S
H1413 C1389 0.949 . S
H1414 C1391 0.950 . S
H1415 C1393 0.950 . S
C1416 C1417 1.349 . S
C1416 C1418 1.327 . S
C1416 H1441 0.950 . S
C1417 C1416 1.349 . S
C1417 C1433 1.349 . S
C1418 C1416 1.327 . S
C1418 C1437 1.429 . S
C1418 H1442 0.950 . S
C1419 C1436 1.574 . S
C1419 C1438 1.368 . S
C1419 H1443 0.949 . S
H1420 C1424 0.949 . S
C1421 C1422 1.349 . S
C1421 C1423 1.327 . S
C1421 H1444 0.950 . S
C1422 C1421 1.349 . S
C1422 C1434 1.349 . S
C1423 C1421 1.327 . S
C1423 C1439 1.429 . S
C1423 H1445 0.950 . S
C1424 H1420 0.949 . S
C1424 C1432 1.574 . S
C1424 C1440 1.368 . S
H1425 C1433 0.950 . S
H1426 C1431 0.950 . S
H1427 C1432 0.949 . S
H1428 C1434 0.950 . S
H1429 C1435 0.950 . S
H1430 C1436 0.949 . S
C1431 H1426 0.950 . S
C1431 C1433 1.327 . S
C1431 C1437 1.429 . S
C1432 C1424 1.574 . S
C1432 H1427 0.949 . S
C1432 C1438 1.368 . S
C1433 C1417 1.349 . S
C1433 H1425 0.950 . S
C1433 C1431 1.327 . S
C1434 C1422 1.349 . S
C1434 H1428 0.950 . S
C1434 C1435 1.327 . S
C1435 H1429 0.950 . S
C1435 C1434 1.327 . S
C1435 C1439 1.429 . S
C1436 C1419 1.574 . S
C1436 H1430 0.949 . S
C1436 C1440 1.368 . S
C1437 C1418 1.429 . S
C1437 C1431 1.429 . S
C1437 C1438 1.523 . S
C1438 C1419 1.368 . S
C1438 C1432 1.368 . S
C1438 C1437 1.523 . S
C1439 C1423 1.429 . S
C1439 C1435 1.429 . S
C1439 C1440 1.523 . S
C1440 C1424 1.368 . S
C1440 C1436 1.368 . S
C1440 C1439 1.523 . S
H1441 C1416 0.950 . S
H1442 C1418 0.950 . S
H1443 C1419 0.949 . S
H1444 C1421 0.950 . S
H1445 C1423 0.950 . S
C1446 C1447 1.349 . S
C1446 C1448 1.327 . S
C1446 H1471 0.950 . S
C1447 C1446 1.349 . S
C1447 C1463 1.349 . S
C1448 C1446 1.327 . S
C1448 C1467 1.429 . S
C1448 H1472 0.950 . S
C1449 C1466 1.574 1_545 S
C1449 C1468 1.368 . S
C1449 H1473 0.949 . S
H1450 C1454 0.949 . S
C1451 C1452 1.349 . S
C1451 C1453 1.327 . S
C1451 H1474 0.950 . S
C1452 C1451 1.349 . S
C1452 C1464 1.349 . S
C1453 C1451 1.327 . S
C1453 C1469 1.429 . S
C1453 H1475 0.950 . S
C1454 H1450 0.949 . S
C1454 C1462 1.574 1_565 S
C1454 C1470 1.368 . S
H1455 C1463 0.950 . S
H1456 C1461 0.950 . S
H1457 C1462 0.949 . S
H1458 C1464 0.950 . S
H1459 C1465 0.950 . S
H1460 C1466 0.949 . S
C1461 H1456 0.950 . S
C1461 C1463 1.327 . S
C1461 C1467 1.429 . S
C1462 C1454 1.574 1_545 S
C1462 H1457 0.949 . S
C1462 C1468 1.368 . S
C1463 C1447 1.349 . S
C1463 H1455 0.950 . S
C1463 C1461 1.327 . S
C1464 C1452 1.349 . S
C1464 H1458 0.950 . S
C1464 C1465 1.327 . S
C1465 H1459 0.950 . S
C1465 C1464 1.327 . S
C1465 C1469 1.429 . S
C1466 C1449 1.574 1_565 S
C1466 H1460 0.949 . S
C1466 C1470 1.368 . S
C1467 C1448 1.429 . S
C1467 C1461 1.429 . S
C1467 C1468 1.523 . S
C1468 C1449 1.368 . S
C1468 C1462 1.368 . S
C1468 C1467 1.523 . S
C1469 C1453 1.429 . S
C1469 C1465 1.429 . S
C1469 C1470 1.523 . S
C1470 C1454 1.368 . S
C1470 C1466 1.368 . S
C1470 C1469 1.523 . S
H1471 C1446 0.950 . S
H1472 C1448 0.950 . S
H1473 C1449 0.949 . S
H1474 C1451 0.950 . S
H1475 C1453 0.950 . S
C1476 C1477 1.349 . S
C1476 C1478 1.327 . S
C1476 H1501 0.950 . S
C1477 C1476 1.349 . S
C1477 C1493 1.349 . S
C1478 C1476 1.327 . S
C1478 C1497 1.429 . S
C1478 H1502 0.950 . S
C1479 C1496 1.574 1_655 S
C1479 C1498 1.368 1_545 S
C1479 H1503 0.949 . S
H1480 C1484 0.949 . S
C1481 C1482 1.349 . S
C1481 C1483 1.327 . S
C1481 H1504 0.950 . S
C1482 C1481 1.349 . S
C1482 C1494 1.349 . S
C1483 C1481 1.327 . S
C1483 C1499 1.429 . S
C1483 H1505 0.950 . S
C1484 H1480 0.949 . S
C1484 C1492 1.574 1_455 S
C1484 C1500 1.368 1_565 S
H1485 C1493 0.950 . S
H1486 C1491 0.950 . S
H1487 C1492 0.949 . S
H1488 C1494 0.950 . S
H1489 C1495 0.950 . S
H1490 C1496 0.949 . S
C1491 H1486 0.950 . S
C1491 C1493 1.327 . S
C1491 C1497 1.429 . S
C1492 C1484 1.574 1_655 S
C1492 H1487 0.949 . S
C1492 C1498 1.368 . S
C1493 C1477 1.349 . S
C1493 H1485 0.950 . S
C1493 C1491 1.327 . S
C1494 C1482 1.349 . S
C1494 H1488 0.950 . S
C1494 C1495 1.327 . S
C1495 H1489 0.950 . S
C1495 C1494 1.327 . S
C1495 C1499 1.429 . S
C1496 C1479 1.574 1_455 S
C1496 H1490 0.949 . S
C1496 C1500 1.368 . S
C1497 C1478 1.429 . S
C1497 C1491 1.429 . S
C1497 C1498 1.523 . S
C1498 C1479 1.368 1_565 S
C1498 C1492 1.368 . S
C1498 C1497 1.523 . S
C1499 C1483 1.429 . S
C1499 C1495 1.429 . S
C1499 C1500 1.523 . S
C1500 C1484 1.368 1_545 S
C1500 C1496 1.368 . S
C1500 C1499 1.523 . S
H1501 C1476 0.950 . S
H1502 C1478 0.950 . S
H1503 C1479 0.949 . S
H1504 C1481 0.950 . S
H1505 C1483 0.950 . S
C1506 C1507 1.349 . S
C1506 C1508 1.327 . S
C1506 H1531 0.950 . S
C1507 C1506 1.349 . S
C1507 C1523 1.349 . S
C1508 C1506 1.327 . S
C1508 C1527 1.429 . S
C1508 H1532 0.950 . S
C1509 C1526 1.574 . S
C1509 C1528 1.368 1_455 S
C1509 H1533 0.949 . S
H1510 C1514 0.949 . S
C1511 C1512 1.349 . S
C1511 C1513 1.327 . S
C1511 H1534 0.950 . S
C1512 C1511 1.349 . S
C1512 C1524 1.349 . S
C1513 C1511 1.327 . S
C1513 C1529 1.429 . S
C1513 H1535 0.950 . S
C1514 H1510 0.949 . S
C1514 C1522 1.574 . S
C1514 C1530 1.368 1_655 S
H1515 C1523 0.950 . S
H1516 C1521 0.950 . S
H1517 C1522 0.949 . S
H1518 C1524 0.950 . S
H1519 C1525 0.950 . S
H1520 C1526 0.949 . S
C1521 H1516 0.950 . S
C1521 C1523 1.327 . S
C1521 C1527 1.429 . S
C1522 C1514 1.574 . S
C1522 H1517 0.949 . S
C1522 C1528 1.368 . S
C1523 C1507 1.349 . S
C1523 H1515 0.950 . S
C1523 C1521 1.327 . S
C1524 C1512 1.349 . S
C1524 H1518 0.950 . S
C1524 C1525 1.327 . S
C1525 H1519 0.950 . S
C1525 C1524 1.327 . S
C1525 C1529 1.429 . S
C1526 C1509 1.574 . S
C1526 H1520 0.949 . S
C1526 C1530 1.368 . S
C1527 C1508 1.429 . S
C1527 C1521 1.429 . S
C1527 C1528 1.523 . S
C1528 C1509 1.368 1_655 S
C1528 C1522 1.368 . S
C1528 C1527 1.523 . S
C1529 C1513 1.429 . S
C1529 C1525 1.429 . S
C1529 C1530 1.523 . S
C1530 C1514 1.368 1_455 S
C1530 C1526 1.368 . S
C1530 C1529 1.523 . S
H1531 C1506 0.950 . S
H1532 C1508 0.950 . S
H1533 C1509 0.949 . S
H1534 C1511 0.950 . S
H1535 C1513 0.950 . S
C577 C158 1.197 . S
C582 C14 1.197 . S
C607 C50 1.197 . S
C612 C194 1.197 . S
C637 C230 1.197 . S
C642 C86 1.197 . S
C667 C266 1.197 . S
C672 C122 1.197 . S
C697 C446 1.197 . S
C702 C302 1.197 . S
C727 C338 1.197 . S
C732 C482 1.197 . S
C757 C518 1.197 . S
C762 C374 1.197 . S
C787 C410 1.197 . S
C792 C554 1.197 . S
C817 C2 1.262 . S
C822 C542 1.262 . S
C847 C38 1.262 . S
C852 C434 1.262 . S
C877 C74 1.262 . S
C882 C470 1.262 . S
C907 C506 1.262 . S
C912 C110 1.262 . S
C937 C146 1.262 . S
C942 C326 1.262 . S
C967 C182 1.262 . S
C972 C362 1.262 . S
C997 C398 1.262 . S
C1002 C218 1.262 . S
C1027 C290 1.262 . S
C1032 C254 1.262 . S
C1057 C4 1.650 . S
C1062 C364 1.650 . S
C1087 C400 1.650 . S
C1092 C40 1.650 . S
C1117 C76 1.650 . S
C1122 C292 1.650 . S
C1147 C328 1.650 . S
C1152 C112 1.650 . S
C1177 C148 1.650 . S
C1182 C508 1.650 . S
C1207 C184 1.650 . S
C1212 C544 1.650 . S
C1237 C436 1.650 . S
C1242 C220 1.650 . S
C1267 C472 1.650 . S
C1272 C256 1.650 . S
C1297 C363 1.360 . S
C1302 C3 1.360 . S
C1327 C39 1.359 . S
C1332 C399 1.359 . S
C1357 C75 1.360 . S
C1362 C291 1.360 . S
C1387 C327 1.359 . S
C1392 C111 1.359 . S
C1417 C507 1.359 . S
C1422 C147 1.359 . S
C1447 C543 1.360 . S
C1452 C183 1.360 . S
C1477 C435 1.359 . S
C1482 C219 1.359 . S
C1507 C255 1.360 . S
C1512 C471 1.360 . S
