# Generated by pormake.
# Topology can, (4)-cn, num edge types: 1
# Building blocks:
#     Node 0, Type 0, BuildingBlock: GALJAG_clean_sbu_0, # of connection points: 4
#     Node 1, Type 0, BuildingBlock: GALJAG_clean_sbu_0, # of connection points: 4
#     Node 2, Type 0, BuildingBlock: GALJAG_clean_sbu_0, # of connection points: 4
#     Node 3, Type 0, BuildingBlock: GALJAG_clean_sbu_0, # of connection points: 4
#     Node 4, Type 0, BuildingBlock: GALJAG_clean_sbu_0, # of connection points: 4
#     Node 5, Type 0, BuildingBlock: GALJAG_clean_sbu_0, # of connection points: 4
#     Node 6, Type 0, BuildingBlock: GALJAG_clean_sbu_0, # of connection points: 4
#     Node 7, Type 0, BuildingBlock: GALJAG_clean_sbu_0, # of connection points: 4
#     Node 8, Type 0, BuildingBlock: GALJAG_clean_sbu_0, # of connection points: 4
#     Node 9, Type 0, BuildingBlock: GALJAG_clean_sbu_0, # of connection points: 4
#     Node 10, Type 0, BuildingBlock: GALJAG_clean_sbu_0, # of connection points: 4
#     Node 11, Type 0, BuildingBlock: GALJAG_clean_sbu_0, # of connection points: 4
#     Edge 12, Type (0, 0), BuildingBlock: XUDNAN_clean_linker_2, # of connection points: 2
#     Edge 13, Type (0, 0), BuildingBlock: XUDNAN_clean_linker_2, # of connection points: 2
#     Edge 14, Type (0, 0), BuildingBlock: XUDNAN_clean_linker_2, # of connection points: 2
#     Edge 15, Type (0, 0), BuildingBlock: XUDNAN_clean_linker_2, # of connection points: 2
#     Edge 16, Type (0, 0), BuildingBlock: XUDNAN_clean_linker_2, # of connection points: 2
#     Edge 17, Type (0, 0), BuildingBlock: XUDNAN_clean_linker_2, # of connection points: 2
#     Edge 18, Type (0, 0), BuildingBlock: XUDNAN_clean_linker_2, # of connection points: 2
#     Edge 19, Type (0, 0), BuildingBlock: XUDNAN_clean_linker_2, # of connection points: 2
#     Edge 20, Type (0, 0), BuildingBlock: XUDNAN_clean_linker_2, # of connection points: 2
#     Edge 21, Type (0, 0), BuildingBlock: XUDNAN_clean_linker_2, # of connection points: 2
#     Edge 22, Type (0, 0), BuildingBlock: XUDNAN_clean_linker_2, # of connection points: 2
#     Edge 23, Type (0, 0), BuildingBlock: XUDNAN_clean_linker_2, # of connection points: 2
#     Edge 24, Type (0, 0), BuildingBlock: XUDNAN_clean_linker_2, # of connection points: 2
#     Edge 25, Type (0, 0), BuildingBlock: XUDNAN_clean_linker_2, # of connection points: 2
#     Edge 26, Type (0, 0), BuildingBlock: XUDNAN_clean_linker_2, # of connection points: 2
#     Edge 27, Type (0, 0), BuildingBlock: XUDNAN_clean_linker_2, # of connection points: 2
#     Edge 28, Type (0, 0), BuildingBlock: XUDNAN_clean_linker_2, # of connection points: 2
#     Edge 29, Type (0, 0), BuildingBlock: XUDNAN_clean_linker_2, # of connection points: 2
#     Edge 30, Type (0, 0), BuildingBlock: XUDNAN_clean_linker_2, # of connection points: 2
#     Edge 31, Type (0, 0), BuildingBlock: XUDNAN_clean_linker_2, # of connection points: 2
#     Edge 32, Type (0, 0), BuildingBlock: XUDNAN_clean_linker_2, # of connection points: 2
#     Edge 33, Type (0, 0), BuildingBlock: XUDNAN_clean_linker_2, # of connection points: 2
#     Edge 34, Type (0, 0), BuildingBlock: XUDNAN_clean_linker_2, # of connection points: 2
#     Edge 35, Type (0, 0), BuildingBlock: XUDNAN_clean_linker_2, # of connection points: 2
# Relax obj value: 0.108
# Max RMSD: 0.101
# Mean RMSD: 0.101
data_MOF--net-can--node1-GALJAG_clean_sbu_0--edge1-XUDNAN_clean_linker_2
_symmetry_space_group_name_H-M    P1
_symmetry_Int_Tables_number       1
_symmetry_cell_setting            triclinic
loop_
_symmetry_equiv_pos_as_xyz
'x, y, z'
_cell_length_a     52.848756
_cell_length_b     52.798841
_cell_length_c     28.44561
_cell_angle_alpha  89.863911
_cell_angle_beta   90.156883
_cell_angle_gamma 120.10254
loop_
_atom_site_label
_atom_site_type_symbol
_atom_site_fract_x
_atom_site_fract_y
_atom_site_fract_z
_atom_type_partial_charge
In0 In 0.04574 0.38097 0.24717 0.0
O1 O 0.0939 0.415 0.24152 0.0
O2 O 0.08117 0.36997 0.23252 0.0
C3 C 0.03167 0.42332 0.25615 0.0
C4 C 0.02433 0.35432 0.16372 0.0
C5 C 0.03418 0.3556 0.33341 0.0
O6 O 0.0577 0.42858 0.25517 0.0
O7 O 0.01258 0.3966 0.25299 0.0
O8 O 0.01413 0.35181 0.30518 0.0
O9 O 0.05963 0.37159 0.31794 0.0
C10 C 0.1017 0.39634 0.23357 0.0
O11 O 0.01714 0.34023 0.20196 0.0
O12 O 0.0415 0.38141 0.16804 0.0
In13 In 0.66215 0.05437 0.7481 0.0
O14 O 0.68546 0.10289 0.73428 0.0
O15 O 0.71146 0.08239 0.73658 0.0
C16 C 0.61486 0.06072 0.75647 0.0
C17 C 0.65807 0.02631 0.66612 0.0
C18 C 0.66764 0.03728 0.83612 0.0
O19 O 0.64067 0.08139 0.76215 0.0
O20 O 0.61256 0.03621 0.74782 0.0
O21 O 0.64599 0.02165 0.81003 0.0
O22 O 0.68678 0.06061 0.81715 0.0
C23 C 0.71057 0.10574 0.73108 0.0
O24 O 0.66201 0.01715 0.70499 0.0
O25 O 0.6561 0.04899 0.66909 0.0
In26 In 0.62924 0.6698 0.23972 0.0
O27 O 0.61018 0.69993 0.2467 0.0
O28 O 0.65647 0.71857 0.25126 0.0
C29 C 0.58109 0.61651 0.23677 0.0
C30 C 0.64743 0.67501 0.15019 0.0
C31 C 0.65089 0.66559 0.32302 0.0
O32 O 0.57972 0.63952 0.24303 0.0
O33 O 0.60656 0.62065 0.23079 0.0
O34 O 0.66691 0.67464 0.2868 0.0
O35 O 0.62465 0.65889 0.31674 0.0
C36 C 0.63496 0.72276 0.25148 0.0
O37 O 0.65724 0.66546 0.18207 0.0
O38 O 0.62876 0.68156 0.16367 0.0
In39 In 0.94585 0.60494 0.76849 0.0
O40 O 0.89704 0.57276 0.76785 0.0
O41 O 0.91171 0.6185 0.76168 0.0
C42 C 0.95997 0.56235 0.77343 0.0
C43 C 0.96045 0.6283 0.68137 0.0
C44 C 0.96154 0.63226 0.85312 0.0
O45 O 0.93426 0.55743 0.77918 0.0
O46 O 0.9786 0.58875 0.76557 0.0
O47 O 0.98012 0.6376 0.82123 0.0
O48 O 0.93573 0.61368 0.84218 0.0
C49 C 0.89033 0.59254 0.76322 0.0
O50 O 0.97485 0.64238 0.71711 0.0
O51 O 0.9397 0.60291 0.68963 0.0
In52 In 0.32465 0.94636 0.26097 0.0
O53 O 0.34246 0.98008 0.20087 0.0
O54 O 0.29837 0.94585 0.19678 0.0
C55 C 0.3281 0.97262 0.34469 0.0
C56 C 0.27829 0.89278 0.27555 0.0
C57 C 0.37163 0.94074 0.24325 0.0
O58 O 0.32137 0.98062 0.30709 0.0
O59 O 0.33356 0.95221 0.33956 0.0
O60 O 0.34601 0.92199 0.23098 0.0
O61 O 0.37384 0.96295 0.26387 0.0
C62 C 0.31913 0.96781 0.17713 0.0
O63 O 0.30429 0.89789 0.27568 0.0
O64 O 0.27551 0.91489 0.26847 0.0
In65 In 0.36657 0.33316 0.75624 0.0
O66 O 0.33073 0.33342 0.71094 0.0
O67 O 0.3616 0.325 0.67749 0.0
C68 C 0.34515 0.33298 0.84266 0.0
C69 C 0.3773 0.28876 0.76664 0.0
C70 C 0.41297 0.3871 0.74525 0.0
O71 O 0.33037 0.31346 0.81272 0.0
O72 O 0.36981 0.35252 0.82841 0.0
O73 O 0.41528 0.36443 0.74743 0.0
O74 O 0.38712 0.38248 0.74793 0.0
C75 C 0.33973 0.32832 0.67302 0.0
O76 O 0.39706 0.31525 0.76959 0.0
O77 O 0.35206 0.2846 0.75805 0.0
In78 In 0.6094 0.94431 0.24767 0.0
O79 O 0.59741 0.89671 0.24242 0.0
O80 O 0.64267 0.92917 0.24331 0.0
C81 C 0.55487 0.93613 0.24448 0.0
C82 C 0.62396 0.95852 0.33896 0.0
C83 C 0.632 0.97248 0.1654 0.0
O84 O 0.56046 0.91599 0.23608 0.0
O85 O 0.57681 0.96045 0.2553 0.0
O86 O 0.64412 0.98336 0.20443 0.0
O87 O 0.6089 0.94801 0.16842 0.0
C88 C 0.62362 0.90228 0.24189 0.0
O89 O 0.63173 0.978 0.30745 0.0
O90 O 0.60893 0.93263 0.32429 0.0
In91 In 0.66278 0.60612 0.74193 0.0
O92 O 0.67895 0.57337 0.74579 0.0
O93 O 0.71048 0.61866 0.74024 0.0
C94 C 0.60591 0.56487 0.74536 0.0
C95 C 0.66803 0.63421 0.82368 0.0
C96 C 0.66969 0.62814 0.65409 0.0
O97 O 0.62614 0.55871 0.74464 0.0
O98 O 0.61442 0.5919 0.7448 0.0
O99 O 0.68461 0.64366 0.68829 0.0
O100 O 0.65134 0.60205 0.6644 0.0
C101 C 0.70562 0.59277 0.74348 0.0
O102 O 0.66447 0.6436 0.7848 0.0
O103 O 0.66904 0.61093 0.82109 0.0
In104 In 0.03745 0.66171 0.26793 0.0
O105 O 0.08627 0.68159 0.27601 0.0
O106 O 0.07001 0.71095 0.26757 0.0
C107 C 0.0257 0.60571 0.26603 0.0
C108 C 0.01674 0.66513 0.35314 0.0
C109 C 0.01982 0.66793 0.18139 0.0
O110 O 0.05117 0.6274 0.26284 0.0
O111 O 0.00582 0.61214 0.27003 0.0
O112 O 0.00767 0.66958 0.21852 0.0
O113 O 0.04086 0.66351 0.18807 0.0
C114 C 0.09198 0.70777 0.2734 0.0
O115 O 0.00375 0.66435 0.31536 0.0
O116 O 0.03998 0.66435 0.34772 0.0
In117 In 0.37522 0.05247 0.76147 0.0
O118 O 0.4028 0.10112 0.7745 0.0
O119 O 0.35672 0.08317 0.76968 0.0
C120 C 0.42838 0.05872 0.7481 0.0
C121 C 0.35236 0.02643 0.84543 0.0
C122 C 0.35041 0.03212 0.67582 0.0
O123 O 0.42264 0.0788 0.74013 0.0
O124 O 0.4069 0.03475 0.76166 0.0
O125 O 0.35979 0.01891 0.70109 0.0
O126 O 0.35224 0.0545 0.69468 0.0
C127 C 0.38157 0.10567 0.77549 0.0
O128 O 0.33708 0.01935 0.80841 0.0
O129 O 0.37865 0.04572 0.8395 0.0
In130 In 0.33388 0.39465 0.25939 0.0
O131 O 0.31629 0.42591 0.2507 0.0
O132 O 0.2868 0.38017 0.24208 0.0
C133 C 0.39021 0.43734 0.2664 0.0
C134 C 0.3216 0.371 0.34658 0.0
C135 C 0.33145 0.3692 0.17611 0.0
O136 O 0.36947 0.44264 0.26341 0.0
O137 O 0.38244 0.4105 0.26716 0.0
O138 O 0.31896 0.35413 0.21225 0.0
O139 O 0.34535 0.39645 0.18268 0.0
C140 C 0.29049 0.40572 0.24202 0.0
O141 O 0.33324 0.36291 0.31579 0.0
O142 O 0.31643 0.39071 0.33333 0.0
In143 In 0.9576 0.32595 0.74746 0.0
O144 O 0.99123 0.33391 0.80529 0.0
O145 O 0.94726 0.30096 0.81682 0.0
C146 C 0.9796 0.32324 0.66323 0.0
C147 C 0.90242 0.28343 0.73299 0.0
C148 C 0.96737 0.38086 0.75928 0.0
O149 O 0.98863 0.31787 0.70105 0.0
O150 O 0.96016 0.33008 0.66839 0.0
O151 O 0.94261 0.35848 0.76569 0.0
O152 O 0.98714 0.37553 0.74716 0.0
C153 C 0.97284 0.31496 0.83294 0.0
O154 O 0.90952 0.31007 0.73656 0.0
O155 O 0.92324 0.27824 0.73705 0.0
H156 H 0.04718 0.37861 0.07885 0.0
H157 H 0.9787 0.29933 0.14359 0.0
H158 H 0.96079 0.27804 0.06454 0.0
H159 H 0.006 0.3823 0.9862 0.0
H160 H 0.03508 0.39553 0.94358 0.0
H161 H 0.04361 0.40311 0.00498 0.0
H162 H 0.07627 0.37942 1.00108 0.0
H163 H 0.06773 0.37165 0.93955 0.0
H164 H 0.06102 0.34248 0.97972 0.0
H165 H 0.9475 0.26799 0.97842 0.0
H166 H 0.94038 0.26952 0.8927 0.0
H167 H 0.0193 0.35449 0.88505 0.0
C168 C 0.02858 0.35663 0.07645 0.0
C169 C 0.01419 0.34059 0.11718 0.0
C170 C 0.99002 0.31191 0.11269 0.0
C171 C 0.97978 0.29966 0.06801 0.0
C172 C 0.99434 0.31624 0.02845 0.0
C173 C 0.0184 0.34401 0.03235 0.0
C174 C 0.0295 0.35787 0.98466 0.0
C175 C 0.02846 0.38637 0.97958 0.0
C176 C 0.06047 0.36316 0.97574 0.0
C177 C 0.00731 0.33399 0.95315 0.0
C178 C 0.9873 0.31006 0.97899 0.0
C179 C 0.96336 0.28634 0.95779 0.0
C180 C 0.9595 0.2874 0.90914 0.0
C181 C 0.97954 0.31193 0.8823 0.0
C182 C 0.00406 0.33515 0.90453 0.0
H183 H 0.64007 0.0096 0.38725 0.0
H184 H 0.6242 0.92115 0.40446 0.0
H185 H 0.63417 0.92972 0.48945 0.0
H186 H 0.69802 0.0445 0.47593 0.0
H187 H 0.68523 0.06843 0.49622 0.0
H188 H 0.67937 0.05624 0.436 0.0
H189 H 0.6237 0.03588 0.44569 0.0
H190 H 0.62939 0.04796 0.50589 0.0
H191 H 0.60428 0.0101 0.49217 0.0
H192 H 0.64428 0.94728 0.57331 0.0
H193 H 0.65142 0.972 0.65017 0.0
H194 H 0.65854 0.04805 0.57885 0.0
C195 C 0.63916 0.99226 0.40887 0.0
C196 C 0.63158 0.9648 0.38929 0.0
C197 C 0.63002 0.94238 0.41878 0.0
C198 C 0.63574 0.94706 0.46708 0.0
C199 C 0.6428 0.97422 0.48552 0.0
C200 C 0.64441 0.99642 0.45741 0.0
C201 C 0.65059 0.02289 0.48658 0.0
C202 C 0.68006 0.04959 0.47286 0.0
C203 C 0.62549 0.02958 0.48233 0.0
C204 C 0.65188 0.01196 0.53536 0.0
C205 C 0.64771 0.98399 0.53399 0.0
C206 C 0.64766 0.96924 0.57483 0.0
C207 C 0.65174 0.98341 0.61829 0.0
C208 C 0.65544 0.01184 0.62046 0.0
C209 C 0.6557 0.02626 0.57833 0.0
H210 H 0.66709 0.6431 0.10267 0.0
H211 H 0.64527 0.71155 0.08529 0.0
H212 H 0.65364 0.71231 0.99987 0.0
H213 H 0.72277 0.66724 0.00715 0.0
H214 H 0.71068 0.63012 0.98948 0.0
H215 H 0.70756 0.63816 0.05004 0.0
H216 H 0.65211 0.6002 0.04802 0.0
H217 H 0.655 0.59217 0.98752 0.0
H218 H 0.62933 0.60357 0.00406 0.0
H219 H 0.65952 0.70245 0.9161 0.0
H220 H 0.6612 0.68155 0.8393 0.0
H221 H 0.67746 0.6183 0.91056 0.0
C222 C 0.66495 0.6588 0.08094 0.0
C223 C 0.65589 0.6775 0.10039 0.0
C224 C 0.65237 0.69716 0.0709 0.0
C225 C 0.65717 0.69783 0.02243 0.0
C226 C 0.66535 0.6786 0.004 0.0
C227 C 0.66923 0.65944 0.03227 0.0
C228 C 0.67512 0.63902 1.00303 0.0
C229 C 0.70587 0.64394 0.01302 0.0
C230 C 0.65148 0.60685 0.01114 0.0
C231 C 0.67314 0.64918 0.95402 0.0
C232 C 0.66798 0.67235 0.95537 0.0
C233 C 0.66391 0.68454 0.91453 0.0
C234 C 0.66485 0.67252 0.87111 0.0
C235 C 0.6695 0.64838 0.86904 0.0
C236 C 0.67405 0.63688 0.91106 0.0
H237 H 0.04386 0.67176 0.4379 0.0
H238 H 0.96308 0.65791 0.37469 0.0
H239 H 0.94186 0.65293 0.45385 0.0
H240 H 0.01258 0.62012 0.52619 0.0
H241 H 0.03931 0.64092 0.57075 0.0
H242 H 0.04937 0.64705 0.50969 0.0
H243 H 0.06658 0.70215 0.51931 0.0
H244 H 0.05662 0.6962 0.58058 0.0
H245 H 0.04172 0.71293 0.5427 0.0
H246 H 0.92716 0.6421 0.53804 0.0
H247 H 0.92074 0.62874 0.62229 0.0
H248 H 0.01183 0.65254 0.63213 0.0
C249 C 0.0219 0.66828 0.44075 0.0
C250 C 0.00506 0.66523 0.40022 0.0
C251 C 0.97637 0.66045 0.40531 0.0
C252 C 0.96418 0.65764 0.45011 0.0
C253 C 0.98116 0.66014 0.48936 0.0
C254 C 0.00954 0.66573 0.48518 0.0
C255 C 0.02247 0.6656 0.53277 0.0
C256 C 0.03144 0.64202 0.53495 0.0
C257 C 0.04839 0.69604 0.54453 0.0
C258 C 0.99655 0.65795 0.5643 0.0
C259 C 0.97298 0.65504 0.53848 0.0
C260 C 0.94565 0.64508 0.55882 0.0
C261 C 0.94218 0.63751 0.60654 0.0
C262 C 0.96598 0.64034 0.63348 0.0
C263 C 0.99363 0.6512 0.61241 0.0
H264 H 0.38294 0.03952 0.92762 0.0
H265 H 0.29571 0.98635 0.86994 0.0
H266 H 0.27689 0.96769 0.94989 0.0
H267 H 0.3788 0.98752 0.01191 0.0
H268 H 0.39971 0.01473 0.05575 0.0
H269 H 0.40569 0.02414 0.99435 0.0
H270 H 0.39557 0.0667 0.00878 0.0
H271 H 0.38929 0.05726 0.07021 0.0
H272 H 0.36163 0.05915 0.0357 0.0
H273 H 0.26817 0.95421 0.03643 0.0
H274 H 0.27045 0.94525 0.12125 0.0
H275 H 0.36355 0.0079 0.12149 0.0
C276 C 0.35984 0.02396 0.9317 0.0
C277 C 0.34074 0.01435 0.89257 0.0
C278 C 0.31071 0.99395 0.89945 0.0
C279 C 0.29984 0.98335 0.94471 0.0
C280 C 0.31931 0.99347 0.98259 0.0
C281 C 0.3487 0.01325 0.97643 0.0
C282 C 0.36528 0.02019 0.0225 0.0
C283 C 0.38875 0.01109 0.02102 0.0
C284 C 0.37873 0.05276 0.03503 0.0
C285 C 0.3407 0.00101 0.05571 0.0
C286 C 0.31431 0.98588 0.03211 0.0
C287 C 0.28868 0.96608 0.05524 0.0
C288 C 0.29018 0.9612 0.10345 0.0
C289 C 0.31713 0.97604 0.12804 0.0
C290 C 0.34256 0.99653 0.10384 0.0
H291 H 0.347 0.34458 0.39527 0.0
H292 H 0.28312 0.37283 0.40761 0.0
H293 H 0.27606 0.35867 0.49134 0.0
H294 H 0.31279 0.28273 0.48122 0.0
H295 H 0.34783 0.29055 0.50408 0.0
H296 H 0.3444 0.29839 0.44343 0.0
H297 H 0.38521 0.35231 0.45557 0.0
H298 H 0.3887 0.34467 0.51611 0.0
H299 H 0.38134 0.3736 0.5015 0.0
H300 H 0.27974 0.34663 0.57509 0.0
H301 H 0.29536 0.33927 0.65346 0.0
H302 H 0.3577 0.31997 0.58743 0.0
C303 C 0.33094 0.34697 0.41536 0.0
C304 C 0.31538 0.3595 0.39503 0.0
C305 C 0.29516 0.36314 0.4226 0.0
C306 C 0.2909 0.35503 0.4701 0.0
C307 C 0.30707 0.34338 0.48953 0.0
C308 C 0.3267 0.33932 0.46308 0.0
C309 C 0.34357 0.32933 0.49363 0.0
C310 C 0.33673 0.29841 0.47976 0.0
C311 C 0.37665 0.35129 0.49158 0.0
C312 C 0.33103 0.32932 0.54146 0.0
C313 C 0.30963 0.33697 0.53824 0.0
C314 C 0.29616 0.34019 0.57804 0.0
C315 C 0.30517 0.336 0.62239 0.0
C316 C 0.32761 0.32894 0.62647 0.0
C317 C 0.34024 0.32503 0.58538 0.0
H318 H 0.01189 0.64921 0.90337 0.0
H319 H 0.92672 0.64227 0.91065 0.0
H320 H 0.93529 0.65695 0.99411 0.0
H321 H 0.00676 0.61631 0.01057 0.0
H322 H 0.04467 0.63859 0.02702 0.0
H323 H 0.03453 0.63307 0.96592 0.0
H324 H 0.06024 0.68918 0.95316 0.0
H325 H 0.07066 0.69491 0.01431 0.0
H326 H 0.05041 0.71085 0.98947 0.0
H327 H 0.95049 0.66699 0.07828 0.0
H328 H 0.97058 0.66988 0.15792 0.0
H329 H 0.04491 0.66808 0.09728 0.0
C330 C 0.99556 0.65181 0.92224 0.0
C331 C 0.96886 0.64511 0.90061 0.0
C332 C 0.94744 0.64761 0.92666 0.0
C333 C 0.95214 0.65601 0.97399 0.0
C334 C 0.97833 0.66166 0.99486 0.0
C335 C -0.00028 0.65968 0.96989 0.0
C336 C 0.02433 0.66354 1.00202 0.0
C337 C 0.02775 0.63625 1.00133 0.0
C338 C 0.05312 0.69127 0.98896 0.0
C339 C 0.01296 0.66702 0.04902 0.0
C340 C 0.98669 0.66647 0.04398 0.0
C341 C 0.97125 0.66783 0.08265 0.0
C342 C 0.98279 0.66943 0.12774 0.0
C343 C 0.00929 0.66925 0.13375 0.0
C344 C 0.02469 0.66845 0.09375 0.0
H345 H 0.34289 0.95817 0.42845 0.0
H346 H 0.31431 0.01491 0.36683 0.0
H347 H 0.31409 0.03434 0.44595 0.0
H348 H 0.30036 0.94089 0.53489 0.0
H349 H 0.32851 0.94115 0.57115 0.0
H350 H 0.32583 0.93141 0.50994 0.0
H351 H 0.37975 0.97193 0.4971 0.0
H352 H 0.38267 0.98163 0.5583 0.0
H353 H 0.39121 0.00908 0.51375 0.0
H354 H 0.31799 0.04808 0.53196 0.0
H355 H 0.32777 0.05678 0.6171 0.0
H356 H 0.35351 0.99064 0.62204 0.0
C357 C 0.33655 0.97468 0.43152 0.0
C358 C 0.3286 0.98506 0.39149 0.0
C359 C 0.32051 0.0067 0.39703 0.0
C360 C 0.32022 0.01775 0.44183 0.0
C361 C 0.32802 0.00688 0.48061 0.0
C362 C 0.33614 0.9859 0.47582 0.0
C363 C 0.34428 0.97833 0.52278 0.0
C364 C 0.3235 0.94603 0.53542 0.0
C365 C 0.37638 0.9857 0.52298 0.0
C366 C 0.33973 -0.00147 0.55487 0.0
C367 C 0.33019 0.01469 0.52993 0.0
C368 C 0.32531 0.03543 0.55182 0.0
C369 C 0.33086 0.04016 0.60023 0.0
C370 C 0.34121 0.02426 0.62626 0.0
C371 C 0.34525 0.00287 0.60324 0.0
H372 H 0.36974 0.37743 0.9055 0.0
H373 H 0.30027 0.28721 0.89066 0.0
H374 H 0.28898 0.28576 0.97564 0.0
H375 H 0.39544 0.37029 0.01625 0.0
H376 H 0.40312 0.40566 0.03712 0.0
H377 H 0.40459 0.39969 0.97516 0.0
H378 H 0.36704 0.41658 0.95851 0.0
H379 H 0.36575 0.423 0.02036 0.0
H380 H 0.33249 0.39915 0.98897 0.0
H381 H 0.28767 0.29419 0.0644 0.0
H382 H 0.2936 0.31295 0.14604 0.0
H383 H 0.36354 0.39754 0.09936 0.0
C384 C 0.35192 0.35741 0.91994 0.0
C385 C 0.33585 0.33242 0.89168 0.0
C386 C 0.31271 0.30666 0.91181 0.0
C387 C 0.30628 0.30562 0.96001 0.0
C388 C 0.32308 0.33058 0.98716 0.0
C389 C 0.34517 0.35609 0.96752 0.0
C390 C 0.36017 0.37999 0.0037 0.0
C391 C 0.39275 0.38944 0.00832 0.0
C392 C 0.3561 0.40622 0.9922 0.0
C393 C 0.3433 0.36398 0.04707 0.0
C394 C 0.32206 0.33547 0.03718 0.0
C395 C 0.30413 0.31654 0.07239 0.0
C396 C 0.30774 0.32729 0.11862 0.0
C397 C 0.32897 0.35667 0.12887 0.0
C398 C 0.34704 0.37499 0.09258 0.0
H399 H 0.95416 0.32124 0.57928 0.0
H400 H 0.03051 0.32387 0.64123 0.0
H401 H 0.05091 0.32729 0.56152 0.0
H402 H 0.95007 0.27823 0.47389 0.0
H403 H 0.93835 0.29825 0.43703 0.0
H404 H 0.92873 0.29295 0.49845 0.0
H405 H 0.95229 0.34905 0.50909 0.0
H406 H 0.96203 0.35454 0.4479 0.0
H407 H 0.98988 0.37269 0.49215 0.0
H408 H 0.06538 0.33685 0.47594 0.0
H409 H 0.07197 0.34957 0.39145 0.0
H410 H 0.98488 0.33822 0.38574 0.0
C411 C 0.97497 0.32205 0.57607 0.0
C412 C 0.99086 0.32236 0.61625 0.0
C413 C 0.01799 0.32346 0.61075 0.0
C414 C 0.02968 0.32539 0.56569 0.0
C415 C 0.01365 0.32562 0.52674 0.0
C416 C 0.98668 0.32359 0.53156 0.0
C417 C 0.97443 0.32578 0.48456 0.0
C418 C 0.94623 0.29709 0.47279 0.0
C419 C 0.96938 0.35208 0.48338 0.0
C420 C -0.00081 0.3305 0.45251 0.0
C421 C 0.02155 0.33016 0.47742 0.0
C422 C 0.04777 0.33653 0.45596 0.0
C423 C 0.05133 0.34379 0.40803 0.0
C424 C 0.02876 0.34447 0.3821 0.0
C425 C 0.00219 0.33718 0.4045 0.0
H426 H 0.62732 0.99003 0.88737 0.0
H427 H 0.71152 0.06975 0.89839 0.0
H428 H 0.71248 0.06144 0.98368 0.0
H429 H 0.59799 0.99825 0.99352 0.0
H430 H 0.57903 0.9599 0.00854 0.0
H431 H 0.58585 0.97098 0.94785 0.0
H432 H 0.61229 0.94127 0.93656 0.0
H433 H 0.60532 0.92989 0.99717 0.0
H434 H 0.6422 0.94792 0.97493 0.0
H435 H 0.70265 0.04602 0.06921 0.0
H436 H 0.68368 0.02323 0.14707 0.0
H437 H 0.60639 0.95357 0.07947 0.0
C438 C 0.64617 0.00548 0.90759 0.0
C439 C 0.66939 0.03048 0.88618 0.0
C440 C 0.69353 0.05035 0.91399 0.0
C441 C 0.69427 0.04586 0.96251 0.0
C442 C 0.67076 0.02129 0.98274 0.0
C443 C 0.6473 0.00128 0.95607 0.0
C444 C 0.62447 0.97709 0.98653 0.0
C445 C 0.59511 0.97654 0.98395 0.0
C446 C 0.62087 0.94728 0.97299 0.0
C447 C 0.63852 0.98686 0.03451 0.0
C448 C 0.66524 0.01237 0.0317 0.0
C449 C 0.68185 0.0259 0.07178 0.0
C450 C 0.6709 0.01288 0.11584 0.0
C451 C 0.64364 0.98663 0.11933 0.0
C452 C 0.62738 0.97358 0.07799 0.0
H453 H 0.61893 0.62747 0.39147 0.0
H454 H 0.70612 0.6986 0.3601 0.0
H455 H 0.72116 0.69732 0.44255 0.0
H456 H 0.61279 0.64908 0.50546 0.0
H457 H 0.59358 0.61245 0.52905 0.0
H458 H 0.59036 0.61853 0.46759 0.0
H459 H 0.60786 0.58221 0.44529 0.0
H460 H 0.61078 0.57572 0.50672 0.0
H461 H 0.64195 0.58759 0.46868 0.0
H462 H 0.72462 0.69045 0.5312 0.0
H463 H 0.7182 0.67457 0.61468 0.0
H464 H 0.62951 0.60609 0.58406 0.0
C465 C 0.64129 0.64259 0.40185 0.0
C466 C 0.66141 0.66322 0.36984 0.0
C467 C 0.69051 0.68254 0.38432 0.0
C468 C 0.69913 0.68205 0.43101 0.0
C469 C 0.67845 0.66175 0.46211 0.0
C470 C 0.6503 0.642 0.4477 0.0
C471 C 0.63218 0.62209 0.48728 0.0
C472 C 0.60567 0.62578 0.49796 0.0
C473 C 0.62265 0.59001 0.47633 0.0
C474 C 0.65432 0.63395 0.52665 0.0
C475 C 0.68083 0.65701 0.51181 0.0
C476 C 0.70409 0.67217 0.54297 0.0
C477 C 0.70022 0.66316 0.59026 0.0
C478 C 0.67346 0.63903 0.60545 0.0
C479 C 0.65032 0.62441 0.57319 0.0
H480 H 0.06591 0.58804 0.25955 0.0
H481 H 0.97264 0.55495 0.27136 0.0
H482 H 0.96366 0.50418 0.2708 0.0
H483 H 0.06112 0.53267 0.18141 0.0
H484 H 0.09132 0.53126 0.20826 0.0
H485 H 0.09007 0.5647 0.20964 0.0
H486 H 0.09452 0.56595 0.30051 0.0
H487 H 0.09573 0.53248 0.29944 0.0
H488 H 0.06857 0.53481 0.33438 0.0
H489 H 0.96525 0.45696 0.26829 0.0
H490 H 0.97725 0.41731 0.26428 0.0
H491 H 0.06952 0.48221 0.25512 0.0
C492 C 0.04357 0.57014 0.262 0.0
C493 C 0.01994 0.57535 0.26547 0.0
C494 C 0.99104 0.55136 0.26865 0.0
C495 C 0.98575 0.5225 0.26838 0.0
C496 C 0.00962 0.51815 0.26498 0.0
C497 C 0.03794 0.54135 0.26186 0.0
C498 C 0.05982 0.53096 0.25851 0.0
C499 C 0.07656 0.54046 0.21167 0.0
C500 C 0.08089 0.54168 0.30073 0.0
C501 C 0.03943 0.49823 0.26028 0.0
C502 C 0.01054 0.4912 0.26392 0.0
C503 C 0.98779 0.46222 0.26555 0.0
C504 C 0.9948 0.43988 0.26326 0.0
C505 C 0.02429 0.44674 0.25953 0.0
C506 C 0.04678 0.4763 0.25819 0.0
H507 H 0.44673 0.01834 0.75362 0.0
H508 H 0.478 0.11123 0.73741 0.0
H509 H 0.52886 0.12147 0.73899 0.0
H510 H 0.50255 0.02503 0.83204 0.0
H511 H 0.50587 0.99567 0.80627 0.0
H512 H 0.47158 0.99516 0.80316 0.0
H513 H 0.47146 0.99088 0.71241 0.0
H514 H 0.50563 0.99111 0.71528 0.0
H515 H 0.50254 0.01758 0.67931 0.0
H516 H 0.57586 0.12227 0.74685 0.0
H517 H 0.61714 0.11316 0.75235 0.0
H518 H 0.55624 0.01958 0.75949 0.0
C519 C 0.46432 0.04078 0.75005 0.0
C520 C 0.45849 0.06402 0.74549 0.0
C521 C 0.482 0.0931 0.7408 0.0
C522 C 0.51096 0.09916 0.74185 0.0
C523 C 0.51601 0.07588 0.74707 0.0
C524 C 0.49346 0.04722 0.75041 0.0
C525 C 0.50515 0.02633 0.75504 0.0
C526 C 0.49572 0.00956 0.80192 0.0
C527 C 0.49563 0.00523 0.713 0.0
C528 C 0.53776 0.04781 0.75421 0.0
C529 C 0.54344 0.07627 0.75002 0.0
C530 C 0.57177 0.10009 0.74974 0.0
C531 C 0.59504 0.09468 0.75311 0.0
C532 C 0.58982 0.06568 0.7562 0.0
C533 C 0.5608 0.04196 0.75695 0.0
H534 H 0.52346 0.60133 0.24627 0.0
H535 H 0.58057 0.56467 0.23395 0.0
H536 H 0.53808 0.51496 0.24287 0.0
H537 H 0.47517 0.55089 0.33302 0.0
H538 H 0.44266 0.54856 0.30819 0.0
H539 H 0.47752 0.58144 0.30077 0.0
H540 H 0.47053 0.57769 0.21032 0.0
H541 H 0.43554 0.54495 0.21749 0.0
H542 H 0.46304 0.54444 0.18083 0.0
H543 H 0.48978 0.4694 0.25461 0.0
H544 H 0.43812 0.4306 0.26298 0.0
H545 H 0.41219 0.49667 0.26626 0.0
C546 C 0.52697 0.58282 0.24524 0.0
C547 C 0.55528 0.58683 0.23944 0.0
C548 C 0.55904 0.56209 0.23825 0.0
C549 C 0.53508 0.53378 0.24346 0.0
C550 C 0.5075 0.53058 0.24964 0.0
C551 C 0.50325 0.55436 0.25014 0.0
C552 C 0.47124 0.54478 0.25655 0.0
C553 C 0.46638 0.55716 0.30236 0.0
C554 C 0.4594 0.55348 0.21374 0.0
C555 C 0.4582 0.51192 0.25953 0.0
C556 C 0.47953 0.50421 0.2558 0.0
C557 C 0.47285 0.47513 0.2575 0.0
C558 C 0.44348 0.45328 0.26241 0.0
C559 C 0.42121 0.46065 0.26529 0.0
C560 C 0.42878 0.49039 0.26425 0.0
H561 H 0.92258 0.50352 0.78363 0.0
H562 H 0.01418 0.56835 0.76433 0.0
H563 H 0.02643 0.52892 0.76218 0.0
H564 H 0.93386 0.45369 0.85776 0.0
H565 H 0.90407 0.42142 0.83148 0.0
H566 H 0.90281 0.45487 0.83397 0.0
H567 H 0.89534 0.45302 0.74368 0.0
H568 H 0.89661 0.41962 0.74089 0.0
H569 H 0.92137 0.45069 0.70574 0.0
H570 H 0.02829 0.48236 0.75831 0.0
H571 H 0.01968 0.43191 0.75335 0.0
H572 H 0.92687 0.39765 0.7755 0.0
C573 C 0.94526 0.50944 0.77945 0.0
C574 C 0.96747 0.53895 0.77429 0.0
C575 C -0.00315 0.54584 0.76845 0.0
C576 C 0.00401 0.52363 0.76724 0.0
C577 C 0.98154 0.4947 0.772 0.0
C578 C 0.95277 0.48757 0.7781 0.0
C579 C 0.93262 0.45475 0.78072 0.0
C580 C 0.91745 0.44565 0.82885 0.0
C581 C 0.91017 0.44389 0.74035 0.0
C582 C 0.95451 0.44451 0.77468 0.0
C583 C 0.98262 0.46789 0.76985 0.0
C584 C 0.00641 0.46388 0.76238 0.0
C585 C 0.0013 0.43517 0.75956 0.0
C586 C 0.97264 0.41094 0.7642 0.0
C587 C 0.94904 0.41576 0.77218 0.0
H588 H 0.42923 0.97747 0.26692 0.0
H589 H 0.37013 0.89286 0.20474 0.0
H590 H 0.41077 0.88283 0.19769 0.0
H591 H 0.49251 0.99335 0.19472 0.0
H592 H 0.5182 0.01075 0.2421 0.0
H593 H 0.48462 0.01174 0.24081 0.0
H594 H 0.47188 0.98883 0.32417 0.0
H595 H 0.5053 0.98758 0.32559 0.0
H596 H 0.47074 0.9546 0.33492 0.0
H597 H 0.45682 0.88078 0.20095 0.0
H598 H 0.50646 0.88801 0.2103 0.0
H599 H 0.53618 0.97432 0.26886 0.0
C600 C 0.42494 0.95698 0.25141 0.0
C601 C 0.39656 0.93594 0.23635 0.0
C602 C 0.39174 0.90931 0.21641 0.0
C603 C 0.41465 0.90339 0.21232 0.0
C604 C 0.44228 0.92438 0.22808 0.0
C605 C 0.44763 0.95074 0.24686 0.0
C606 C 0.47935 0.96937 0.26154 0.0
C607 C 0.49457 0.99799 0.23308 0.0
C608 C 0.48195 0.97544 0.31471 0.0
C609 C 0.49085 0.9492 0.2485 0.0
C610 C 0.46907 0.92335 0.22936 0.0
C611 C 0.47415 0.901 0.21559 0.0
C612 C 0.50236 0.90527 0.22119 0.0
C613 C 0.52512 0.93172 0.24019 0.0
C614 C 0.51921 0.95392 0.25404 0.0
H615 H 0.5828 0.50554 0.74592 0.0
H616 H 0.55864 0.5729 0.74435 0.0
H617 H 0.50636 0.53468 0.74232 0.0
H618 H 0.52666 0.45583 0.66722 0.0
H619 H 0.52074 0.42353 0.69836 0.0
H620 H 0.55618 0.4562 0.69974 0.0
H621 H 0.55492 0.45587 0.79086 0.0
H622 H 0.51955 0.42313 0.78975 0.0
H623 H 0.52444 0.45507 0.82059 0.0
H624 H 0.45673 0.48895 0.74058 0.0
H625 H 0.41345 0.43913 0.74122 0.0
H626 H 0.47051 0.40208 0.74366 0.0
C627 C 0.56652 0.51226 0.74522 0.0
C628 C 0.5747 0.54214 0.7453 0.0
C629 C 0.55278 0.55009 0.74436 0.0
C630 C 0.52308 0.52856 0.74312 0.0
C631 C 0.51575 0.49927 0.74282 0.0
C632 C 0.53684 0.49111 0.74398 0.0
C633 C 0.52323 0.45816 0.74376 0.0
C634 C 0.53224 0.44784 0.69964 0.0
C635 C 0.531 0.44744 0.78893 0.0
C636 C 0.49116 0.44903 0.74239 0.0
C637 C 0.48727 0.47303 0.74176 0.0
C638 C 0.45951 0.46999 0.74099 0.0
C639 C 0.43509 0.44165 0.74129 0.0
C640 C 0.43867 0.41681 0.74238 0.0
C641 C 0.4671 0.42066 0.74261 0.0
H642 H 0.12328 0.3595 0.22251 0.0
H643 H 0.1497 0.45144 0.23419 0.0
H644 H 0.20164 0.4645 0.23133 0.0
H645 H 0.17701 0.36184 0.2969 0.0
H646 H 0.18256 0.33597 0.26377 0.0
H647 H 0.14771 0.33425 0.26183 0.0
H648 H 0.15082 0.33845 0.17093 0.0
H649 H 0.1857 0.34009 0.17257 0.0
H650 H 0.18231 0.36873 0.14388 0.0
H651 H 0.25056 0.46698 0.2336 0.0
H652 H 0.29249 0.45861 0.24076 0.0
H653 H 0.23331 0.36504 0.22757 0.0
C654 C 0.13997 0.38242 0.22368 0.0
C655 C 0.13258 0.40449 0.2284 0.0
C656 C 0.15499 0.43422 0.23041 0.0
C657 C 0.1845 0.44183 0.22872 0.0
C658 C 0.19107 0.41945 0.22481 0.0
C659 C 0.16941 0.39036 0.22212 0.0
C660 C 0.18211 0.37033 0.22094 0.0
C661 C 0.17173 0.34938 0.26339 0.0
C662 C 0.1748 0.35341 0.1743 0.0
C663 C 0.2143 0.39263 0.22438 0.0
C664 C 0.21912 0.42087 0.22619 0.0
C665 C 0.24709 0.44499 0.23167 0.0
C666 C 0.27073 0.44004 0.23578 0.0
C667 C 0.26608 0.41121 0.23456 0.0
C668 C 0.23754 0.38734 0.22824 0.0
H669 H 0.88038 0.22427 0.73834 0.0
H670 H 0.8557 0.29003 0.71189 0.0
H671 H 0.80418 0.25106 0.70271 0.0
H672 H 0.82797 0.16865 0.65736 0.0
H673 H 0.82072 0.13879 0.69634 0.0
H674 H 0.85602 0.17169 0.69705 0.0
H675 H 0.85076 0.17727 0.78643 0.0
H676 H 0.81548 0.14444 0.786 0.0
H677 H 0.81912 0.17813 0.80782 0.0
H678 H 0.75548 0.20572 0.70125 0.0
H679 H 0.71204 0.15658 0.70892 0.0
H680 H 0.76808 0.12 0.73678 0.0
C681 C 0.86417 0.23042 0.72997 0.0
C682 C 0.87193 0.26009 0.72561 0.0
C683 C 0.85014 0.26738 0.71532 0.0
C684 C 0.82088 0.24542 0.70988 0.0
C685 C 0.81388 0.21638 0.71487 0.0
C686 C 0.83485 0.20879 0.72469 0.0
C687 C 0.82123 0.17602 0.73099 0.0
C688 C 0.83213 0.16303 0.69317 0.0
C689 C 0.82699 0.16854 0.78077 0.0
C690 C 0.78928 0.16644 0.7239 0.0
C691 C 0.7856 0.19007 0.71427 0.0
C692 C 0.75805 0.18699 0.70834 0.0
C693 C 0.73354 0.15902 0.71287 0.0
C694 C 0.73677 0.13455 0.72331 0.0
C695 C 0.76502 0.13829 0.72831 0.0
H696 H 0.59258 0.73818 0.24763 0.0
H697 H 0.68639 0.77427 0.2599 0.0
H698 H 0.69372 0.82423 0.25836 0.0
H699 H 0.59535 0.79152 0.16795 0.0
H700 H 0.565 0.79295 0.19386 0.0
H701 H 0.56687 0.75988 0.1977 0.0
H702 H 0.56307 0.76038 0.28849 0.0
H703 H 0.56092 0.79331 0.2849 0.0
H704 H 0.58869 0.79252 0.32074 0.0
H705 H 0.69108 0.87014 0.25262 0.0
H706 H 0.67832 0.90911 0.2471 0.0
H707 H 0.58628 0.84311 0.23894 0.0
C708 C 0.61462 0.7566 0.25046 0.0
C709 C 0.63892 0.75241 0.25393 0.0
C710 C 0.66746 0.77702 0.2573 0.0
C711 C 0.67186 0.80547 0.25636 0.0
C712 C 0.64749 0.80888 0.25217 0.0
C713 C 0.61942 0.78515 0.24963 0.0
C714 C 0.59704 0.79489 0.24489 0.0
C715 C 0.58008 0.78417 0.19833 0.0
C716 C 0.57621 0.78467 0.28729 0.0
C717 C 0.61695 0.82777 0.24489 0.0
C718 C 0.64597 0.83539 0.24904 0.0
C719 C 0.66843 0.86448 0.24952 0.0
C720 C 0.66098 0.88643 0.24621 0.0
C721 C 0.63135 0.87908 0.24257 0.0
C722 C 0.60914 0.84937 0.24164 0.0
H723 H 0.87138 0.63165 0.75337 0.0
H724 H 0.84053 0.5387 0.76577 0.0
H725 H 0.78938 0.52817 0.76064 0.0
H726 H 0.81555 0.63198 0.82307 0.0
H727 H 0.81313 0.65887 0.78717 0.0
H728 H 0.84709 0.65876 0.79095 0.0
H729 H 0.84807 0.65494 0.70017 0.0
H730 H 0.8141 0.65502 0.6961 0.0
H731 H 0.81721 0.62555 0.67028 0.0
H732 H 0.74156 0.52818 0.75525 0.0
H733 H 0.70099 0.5388 0.7503 0.0
H734 H 0.76407 0.6317 0.74129 0.0
C735 C 0.85389 0.60906 0.75492 0.0
C736 C 0.85981 0.58597 0.75997 0.0
C737 C 0.83637 0.55671 0.76191 0.0
C738 C 0.80731 0.55053 0.75899 0.0
C739 C 0.80222 0.57387 0.75409 0.0
C740 C 0.82489 0.60254 0.75206 0.0
C741 C 0.81372 0.62373 0.74721 0.0
C742 C 0.82292 0.64455 0.78963 0.0
C743 C 0.82387 0.64081 0.70066 0.0
C744 C 0.78117 0.60254 0.74701 0.0
C745 C 0.7749 0.57387 0.75093 0.0
C746 C 0.74621 0.55054 0.75205 0.0
C747 C 0.72336 0.55676 0.74922 0.0
C748 C 0.72947 0.58604 0.74536 0.0
C749 C 0.75874 0.60909 0.74409 0.0
H750 H 0.21994 0.87485 0.26731 0.0
H751 H 0.28024 0.84335 0.29543 0.0
H752 H 0.23879 0.7928 0.30023 0.0
H753 H 0.16133 0.82326 0.3443 0.0
H754 H 0.13276 0.81887 0.30461 0.0
H755 H 0.16707 0.85288 0.30586 0.0
H756 H 0.17315 0.84851 0.21638 0.0
H757 H 0.13897 0.81445 0.21488 0.0
H758 H 0.17184 0.81601 0.19371 0.0
H759 H 0.19167 0.74586 0.2983 0.0
H760 H 0.14103 0.70487 0.29142 0.0
H761 H 0.11088 0.76642 0.26459 0.0
C762 C 0.22435 0.85733 0.27503 0.0
C763 C 0.25324 0.86295 0.28113 0.0
C764 C 0.25823 0.83949 0.29072 0.0
C765 C 0.23487 0.81072 0.29354 0.0
C766 C 0.20668 0.80585 0.28675 0.0
C767 C 0.20125 0.82844 0.27788 0.0
C768 C 0.16889 0.81701 0.27054 0.0
C769 C 0.15681 0.8287 0.30861 0.0
C770 C 0.16287 0.82444 0.22093 0.0
C771 C 0.15709 0.78445 0.27618 0.0
C772 C 0.17929 0.77857 0.28563 0.0
C773 C 0.17403 0.75015 0.29121 0.0
C774 C 0.14522 0.72704 0.28712 0.0
C775 C 0.12209 0.73252 0.27755 0.0
C776 C 0.12814 0.76162 0.27211 0.0
H777 H 0.33846 0.22999 0.7597 0.0
H778 H 0.42975 0.29303 0.78716 0.0
H779 H 0.44015 0.25262 0.79641 0.0
H780 H 0.33243 0.17435 0.84189 0.0
H781 H 0.30887 0.14439 0.80384 0.0
H782 H 0.3083 0.1782 0.80131 0.0
H783 H 0.31933 0.18219 0.712 0.0
H784 H 0.31987 0.14839 0.71424 0.0
H785 H 0.351 0.18103 0.69155 0.0
H786 H 0.44105 0.20589 0.79957 0.0
H787 H 0.43259 0.15557 0.79552 0.0
H788 H 0.34062 0.12276 0.76647 0.0
C789 C 0.36059 0.23526 0.76794 0.0
C790 C 0.38332 0.26458 0.77279 0.0
C791 C 0.41203 0.27067 0.78335 0.0
C792 C 0.41813 0.2479 0.78877 0.0
C793 C 0.39525 0.21923 0.78363 0.0
C794 C 0.36706 0.21281 0.77347 0.0
C795 C 0.34666 0.18015 0.76832 0.0
C796 C 0.32265 0.1686 0.8061 0.0
C797 C 0.33345 0.1725 0.71857 0.0
C798 C 0.36788 0.16926 0.7766 0.0
C799 C 0.39575 0.19217 0.7856 0.0
C800 C 0.41929 0.18773 0.79289 0.0
C801 C 0.41427 0.1591 0.79048 0.0
C802 C 0.38594 0.13533 0.78085 0.0
C803 C 0.36243 0.1405 0.77431 0.0
loop_
_geom_bond_atom_site_label_1
_geom_bond_atom_site_label_2
_geom_bond_distance
_geom_bond_site_symmetry_2
_ccdc_geom_bond_type
In0 O1 2.294 . S
In0 O2 2.326 . S
In0 O6 2.266 . S
In0 O7 2.326 . S
In0 O8 2.266 . S
In0 O9 2.326 . S
In0 O11 2.294 . S
In0 O12 2.326 . S
O1 In0 2.294 . S
O1 C10 1.240 . S
O2 In0 2.326 . S
O2 C10 1.252 . S
C3 O6 1.252 . S
C3 O7 1.260 . S
C4 O11 1.240 . S
C4 O12 1.252 . S
C5 O8 1.252 . S
C5 O9 1.260 . S
O6 In0 2.266 . S
O6 C3 1.252 . S
O7 In0 2.326 . S
O7 C3 1.260 . S
O8 In0 2.266 . S
O8 C5 1.252 . S
O9 In0 2.326 . S
O9 C5 1.260 . S
C10 O1 1.240 . S
C10 O2 1.252 . S
O11 In0 2.294 . S
O11 C4 1.240 . S
O12 In0 2.326 . S
O12 C4 1.252 . S
In13 O14 2.294 . S
In13 O15 2.326 . S
In13 O19 2.266 . S
In13 O20 2.326 . S
In13 O21 2.266 . S
In13 O22 2.326 . S
In13 O24 2.294 . S
In13 O25 2.326 . S
O14 In13 2.294 . S
O14 C23 1.240 . S
O15 In13 2.326 . S
O15 C23 1.252 . S
C16 O19 1.252 . S
C16 O20 1.260 . S
C17 O24 1.240 . S
C17 O25 1.252 . S
C18 O21 1.252 . S
C18 O22 1.260 . S
O19 In13 2.266 . S
O19 C16 1.252 . S
O20 In13 2.326 . S
O20 C16 1.260 . S
O21 In13 2.266 . S
O21 C18 1.252 . S
O22 In13 2.326 . S
O22 C18 1.260 . S
C23 O14 1.240 . S
C23 O15 1.252 . S
O24 In13 2.294 . S
O24 C17 1.240 . S
O25 In13 2.326 . S
O25 C17 1.252 . S
In26 O27 2.294 . S
In26 O28 2.326 . S
In26 O32 2.266 . S
In26 O33 2.326 . S
In26 O34 2.266 . S
In26 O35 2.326 . S
In26 O37 2.294 . S
In26 O38 2.326 . S
O27 In26 2.294 . S
O27 C36 1.240 . S
O28 In26 2.326 . S
O28 C36 1.252 . S
C29 O32 1.252 . S
C29 O33 1.260 . S
C30 O37 1.240 . S
C30 O38 1.252 . S
C31 O34 1.252 . S
C31 O35 1.260 . S
O32 In26 2.266 . S
O32 C29 1.252 . S
O33 In26 2.326 . S
O33 C29 1.260 . S
O34 In26 2.266 . S
O34 C31 1.252 . S
O35 In26 2.326 . S
O35 C31 1.260 . S
C36 O27 1.240 . S
C36 O28 1.252 . S
O37 In26 2.294 . S
O37 C30 1.240 . S
O38 In26 2.326 . S
O38 C30 1.252 . S
In39 O40 2.294 . S
In39 O41 2.326 . S
In39 O45 2.266 . S
In39 O46 2.326 . S
In39 O47 2.266 . S
In39 O48 2.326 . S
In39 O50 2.294 . S
In39 O51 2.326 . S
O40 In39 2.294 . S
O40 C49 1.240 . S
O41 In39 2.326 . S
O41 C49 1.252 . S
C42 O45 1.252 . S
C42 O46 1.260 . S
C43 O50 1.240 . S
C43 O51 1.252 . S
C44 O47 1.252 . S
C44 O48 1.260 . S
O45 In39 2.266 . S
O45 C42 1.252 . S
O46 In39 2.326 . S
O46 C42 1.260 . S
O47 In39 2.266 . S
O47 C44 1.252 . S
O48 In39 2.326 . S
O48 C44 1.260 . S
C49 O40 1.240 . S
C49 O41 1.252 . S
O50 In39 2.294 . S
O50 C43 1.240 . S
O51 In39 2.326 . S
O51 C43 1.252 . S
In52 O53 2.294 . S
In52 O54 2.326 . S
In52 O58 2.266 . S
In52 O59 2.326 . S
In52 O60 2.266 . S
In52 O61 2.326 . S
In52 O63 2.294 . S
In52 O64 2.326 . S
O53 In52 2.294 . S
O53 C62 1.240 . S
O54 In52 2.326 . S
O54 C62 1.252 . S
C55 O58 1.252 . S
C55 O59 1.260 . S
C56 O63 1.240 . S
C56 O64 1.252 . S
C57 O60 1.252 . S
C57 O61 1.260 . S
O58 In52 2.266 . S
O58 C55 1.252 . S
O59 In52 2.326 . S
O59 C55 1.260 . S
O60 In52 2.266 . S
O60 C57 1.252 . S
O61 In52 2.326 . S
O61 C57 1.260 . S
C62 O53 1.240 . S
C62 O54 1.252 . S
O63 In52 2.294 . S
O63 C56 1.240 . S
O64 In52 2.326 . S
O64 C56 1.252 . S
In65 O66 2.294 . S
In65 O67 2.326 . S
In65 O71 2.266 . S
In65 O72 2.326 . S
In65 O73 2.266 . S
In65 O74 2.326 . S
In65 O76 2.294 . S
In65 O77 2.326 . S
O66 In65 2.294 . S
O66 C75 1.240 . S
O67 In65 2.326 . S
O67 C75 1.252 . S
C68 O71 1.252 . S
C68 O72 1.260 . S
C69 O76 1.240 . S
C69 O77 1.252 . S
C70 O73 1.252 . S
C70 O74 1.260 . S
O71 In65 2.266 . S
O71 C68 1.252 . S
O72 In65 2.326 . S
O72 C68 1.260 . S
O73 In65 2.266 . S
O73 C70 1.252 . S
O74 In65 2.326 . S
O74 C70 1.260 . S
C75 O66 1.240 . S
C75 O67 1.252 . S
O76 In65 2.294 . S
O76 C69 1.240 . S
O77 In65 2.326 . S
O77 C69 1.252 . S
In78 O79 2.294 . S
In78 O80 2.326 . S
In78 O84 2.266 . S
In78 O85 2.326 . S
In78 O86 2.266 . S
In78 O87 2.326 . S
In78 O89 2.294 . S
In78 O90 2.326 . S
O79 In78 2.294 . S
O79 C88 1.240 . S
O80 In78 2.326 . S
O80 C88 1.252 . S
C81 O84 1.252 . S
C81 O85 1.260 . S
C82 O89 1.240 . S
C82 O90 1.252 . S
C83 O86 1.252 . S
C83 O87 1.260 . S
O84 In78 2.266 . S
O84 C81 1.252 . S
O85 In78 2.326 . S
O85 C81 1.260 . S
O86 In78 2.266 . S
O86 C83 1.252 . S
O87 In78 2.326 . S
O87 C83 1.260 . S
C88 O79 1.240 . S
C88 O80 1.252 . S
O89 In78 2.294 . S
O89 C82 1.240 . S
O90 In78 2.326 . S
O90 C82 1.252 . S
In91 O92 2.294 . S
In91 O93 2.326 . S
In91 O97 2.266 . S
In91 O98 2.326 . S
In91 O99 2.266 . S
In91 O100 2.326 . S
In91 O102 2.294 . S
In91 O103 2.326 . S
O92 In91 2.294 . S
O92 C101 1.240 . S
O93 In91 2.326 . S
O93 C101 1.252 . S
C94 O97 1.252 . S
C94 O98 1.260 . S
C95 O102 1.240 . S
C95 O103 1.252 . S
C96 O99 1.252 . S
C96 O100 1.260 . S
O97 In91 2.266 . S
O97 C94 1.252 . S
O98 In91 2.326 . S
O98 C94 1.260 . S
O99 In91 2.266 . S
O99 C96 1.252 . S
O100 In91 2.326 . S
O100 C96 1.260 . S
C101 O92 1.240 . S
C101 O93 1.252 . S
O102 In91 2.294 . S
O102 C95 1.240 . S
O103 In91 2.326 . S
O103 C95 1.252 . S
In104 O105 2.294 . S
In104 O106 2.326 . S
In104 O110 2.266 . S
In104 O111 2.326 . S
In104 O112 2.266 . S
In104 O113 2.326 . S
In104 O115 2.294 . S
In104 O116 2.326 . S
O105 In104 2.294 . S
O105 C114 1.240 . S
O106 In104 2.326 . S
O106 C114 1.252 . S
C107 O110 1.252 . S
C107 O111 1.260 . S
C108 O115 1.240 . S
C108 O116 1.252 . S
C109 O112 1.252 . S
C109 O113 1.260 . S
O110 In104 2.266 . S
O110 C107 1.252 . S
O111 In104 2.326 . S
O111 C107 1.260 . S
O112 In104 2.266 . S
O112 C109 1.252 . S
O113 In104 2.326 . S
O113 C109 1.260 . S
C114 O105 1.240 . S
C114 O106 1.252 . S
O115 In104 2.294 . S
O115 C108 1.240 . S
O116 In104 2.326 . S
O116 C108 1.252 . S
In117 O118 2.294 . S
In117 O119 2.326 . S
In117 O123 2.266 . S
In117 O124 2.326 . S
In117 O125 2.266 . S
In117 O126 2.326 . S
In117 O128 2.294 . S
In117 O129 2.326 . S
O118 In117 2.294 . S
O118 C127 1.240 . S
O119 In117 2.326 . S
O119 C127 1.252 . S
C120 O123 1.252 . S
C120 O124 1.260 . S
C121 O128 1.240 . S
C121 O129 1.252 . S
C122 O125 1.252 . S
C122 O126 1.260 . S
O123 In117 2.266 . S
O123 C120 1.252 . S
O124 In117 2.326 . S
O124 C120 1.260 . S
O125 In117 2.266 . S
O125 C122 1.252 . S
O126 In117 2.326 . S
O126 C122 1.260 . S
C127 O118 1.240 . S
C127 O119 1.252 . S
O128 In117 2.294 . S
O128 C121 1.240 . S
O129 In117 2.326 . S
O129 C121 1.252 . S
In130 O131 2.294 . S
In130 O132 2.326 . S
In130 O136 2.266 . S
In130 O137 2.326 . S
In130 O138 2.266 . S
In130 O139 2.326 . S
In130 O141 2.294 . S
In130 O142 2.326 . S
O131 In130 2.294 . S
O131 C140 1.240 . S
O132 In130 2.326 . S
O132 C140 1.252 . S
C133 O136 1.252 . S
C133 O137 1.260 . S
C134 O141 1.240 . S
C134 O142 1.252 . S
C135 O138 1.252 . S
C135 O139 1.260 . S
O136 In130 2.266 . S
O136 C133 1.252 . S
O137 In130 2.326 . S
O137 C133 1.260 . S
O138 In130 2.266 . S
O138 C135 1.252 . S
O139 In130 2.326 . S
O139 C135 1.260 . S
C140 O131 1.240 . S
C140 O132 1.252 . S
O141 In130 2.294 . S
O141 C134 1.240 . S
O142 In130 2.326 . S
O142 C134 1.252 . S
In143 O144 2.294 . S
In143 O145 2.326 . S
In143 O149 2.266 . S
In143 O150 2.326 . S
In143 O151 2.266 . S
In143 O152 2.326 . S
In143 O154 2.294 . S
In143 O155 2.326 . S
O144 In143 2.294 . S
O144 C153 1.240 . S
O145 In143 2.326 . S
O145 C153 1.252 . S
C146 O149 1.252 . S
C146 O150 1.260 . S
C147 O154 1.240 . S
C147 O155 1.252 . S
C148 O151 1.252 . S
C148 O152 1.260 . S
O149 In143 2.266 . S
O149 C146 1.252 . S
O150 In143 2.326 . S
O150 C146 1.260 . S
O151 In143 2.266 . S
O151 C148 1.252 . S
O152 In143 2.326 . S
O152 C148 1.260 . S
C153 O144 1.240 . S
C153 O145 1.252 . S
O154 In143 2.294 . S
O154 C147 1.240 . S
O155 In143 2.326 . S
O155 C147 1.252 . S
H156 C168 0.930 . S
H157 C170 0.930 . S
H158 C171 0.930 . S
H159 C175 0.959 . S
H160 C175 0.959 . S
H161 C175 0.961 1_554 S
H162 C176 0.960 . S
H163 C176 0.961 1_556 S
H164 C176 0.959 . S
H165 C179 0.929 . S
H166 C180 0.931 . S
H167 C182 0.930 . S
C168 H156 0.930 . S
C168 C169 1.399 . S
C168 C173 1.399 . S
C169 C168 1.399 . S
C169 C170 1.376 . S
C170 H157 0.930 . S
C170 C169 1.376 . S
C170 C171 1.388 1_455 S
C171 H158 0.930 . S
C171 C170 1.388 1_655 S
C171 C172 1.390 . S
C172 C171 1.390 . S
C172 C173 1.394 1_655 S
C172 C178 1.465 1_554 S
C173 C168 1.399 . S
C173 C172 1.394 1_455 S
C173 C174 1.508 1_554 S
C174 C173 1.508 1_556 S
C174 C175 1.519 . S
C174 C176 1.553 1_456 S
C174 C177 1.522 1_455 S
C175 H159 0.959 . S
C175 H160 0.959 . S
C175 H161 0.961 1_556 S
C175 C174 1.519 . S
C176 H162 0.960 . S
C176 H163 0.961 1_554 S
C176 H164 0.959 . S
C176 C174 1.553 1_654 S
C177 C174 1.522 1_655 S
C177 C178 1.396 . S
C177 C182 1.390 . S
C178 C172 1.465 1_556 S
C178 C177 1.396 . S
C178 C179 1.399 . S
C179 H165 0.929 . S
C179 C178 1.399 . S
C179 C180 1.385 . S
C180 H166 0.931 . S
C180 C179 1.385 . S
C180 C181 1.389 . S
C181 C180 1.389 . S
C181 C182 1.387 . S
C182 H167 0.930 . S
C182 C177 1.390 . S
C182 C181 1.387 . S
H183 C195 0.930 . S
H184 C197 0.930 . S
H185 C198 0.930 . S
H186 C202 0.959 . S
H187 C202 0.959 . S
H188 C202 0.961 . S
H189 C203 0.960 . S
H190 C203 0.961 . S
H191 C203 0.959 . S
H192 C206 0.929 . S
H193 C207 0.931 . S
H194 C209 0.930 . S
C195 H183 0.930 . S
C195 C196 1.399 1_545 S
C195 C200 1.399 . S
C196 C195 1.399 1_565 S
C196 C197 1.376 . S
C197 H184 0.930 . S
C197 C196 1.376 . S
C197 C198 1.388 . S
C198 H185 0.930 . S
C198 C197 1.388 . S
C198 C199 1.390 . S
C199 C198 1.390 . S
C199 C200 1.394 1_565 S
C199 C205 1.465 . S
C200 C195 1.399 . S
C200 C199 1.394 1_545 S
C200 C201 1.516 . S
C201 C200 1.516 . S
C201 C202 1.502 . S
C201 C203 1.561 . S
C201 C204 1.526 . S
C202 H186 0.959 . S
C202 H187 0.959 . S
C202 H188 0.961 . S
C202 C201 1.502 . S
C203 H189 0.960 . S
C203 H190 0.961 . S
C203 H191 0.959 . S
C203 C201 1.561 . S
C204 C201 1.526 . S
C204 C205 1.396 1_545 S
C204 C209 1.390 . S
C205 C199 1.465 . S
C205 C204 1.396 1_565 S
C205 C206 1.399 . S
C206 H192 0.929 . S
C206 C205 1.399 . S
C206 C207 1.385 . S
C207 H193 0.931 . S
C207 C206 1.385 . S
C207 C208 1.389 1_565 S
C208 C207 1.389 1_545 S
C208 C209 1.387 . S
C209 H194 0.930 . S
C209 C204 1.390 . S
C209 C208 1.387 . S
H210 C222 0.930 . S
H211 C224 0.930 . S
H212 C225 0.930 . S
H213 C229 0.959 . S
H214 C229 0.959 1_556 S
H215 C229 0.961 . S
H216 C230 0.960 . S
H217 C230 0.961 1_556 S
H218 C230 0.959 1_556 S
H219 C233 0.929 . S
H220 C234 0.931 . S
H221 C236 0.930 . S
C222 H210 0.930 . S
C222 C223 1.399 . S
C222 C227 1.399 . S
C223 C222 1.399 . S
C223 C224 1.376 . S
C224 H211 0.930 . S
C224 C223 1.376 . S
C224 C225 1.388 . S
C225 H212 0.930 . S
C225 C224 1.388 . S
C225 C226 1.390 . S
C226 C225 1.390 . S
C226 C227 1.394 . S
C226 C232 1.465 1_554 S
C227 C222 1.399 . S
C227 C226 1.394 . S
C227 C228 1.516 . S
C228 C227 1.516 . S
C228 C229 1.502 . S
C228 C230 1.561 . S
C228 C231 1.526 1_554 S
C229 H213 0.959 . S
C229 H214 0.959 1_554 S
C229 H215 0.961 . S
C229 C228 1.502 . S
C230 H216 0.960 . S
C230 H217 0.961 1_554 S
C230 H218 0.959 1_554 S
C230 C228 1.561 . S
C231 C228 1.526 1_556 S
C231 C232 1.396 . S
C231 C236 1.390 . S
C232 C226 1.465 1_556 S
C232 C231 1.396 . S
C232 C233 1.399 . S
C233 H219 0.929 . S
C233 C232 1.399 . S
C233 C234 1.385 . S
C234 H220 0.931 . S
C234 C233 1.385 . S
C234 C235 1.389 . S
C235 C234 1.389 . S
C235 C236 1.387 . S
C236 H221 0.930 . S
C236 C231 1.390 . S
C236 C235 1.387 . S
H237 C249 0.930 . S
H238 C251 0.930 . S
H239 C252 0.930 . S
H240 C256 0.959 . S
H241 C256 0.959 . S
H242 C256 0.961 . S
H243 C257 0.960 . S
H244 C257 0.961 . S
H245 C257 0.959 1_655 S
H246 C260 0.929 . S
H247 C261 0.931 . S
H248 C263 0.930 . S
C249 H237 0.930 . S
C249 C250 1.399 . S
C249 C254 1.399 . S
C250 C249 1.399 . S
C250 C251 1.376 1_455 S
C251 H238 0.930 . S
C251 C250 1.376 1_655 S
C251 C252 1.388 . S
C252 H239 0.930 . S
C252 C251 1.388 . S
C252 C253 1.390 . S
C253 C252 1.390 . S
C253 C254 1.394 1_655 S
C253 C259 1.465 . S
C254 C249 1.399 . S
C254 C253 1.394 1_455 S
C254 C255 1.516 . S
C255 C254 1.516 . S
C255 C256 1.502 . S
C255 C257 1.561 . S
C255 C258 1.526 . S
C256 H240 0.959 . S
C256 H241 0.959 . S
C256 H242 0.961 . S
C256 C255 1.502 . S
C257 H243 0.960 . S
C257 H244 0.961 . S
C257 H245 0.959 1_455 S
C257 C255 1.561 . S
C258 C255 1.526 . S
C258 C259 1.396 1_455 S
C258 C263 1.390 . S
C259 C253 1.465 . S
C259 C258 1.396 1_655 S
C259 C260 1.399 . S
C260 H246 0.929 . S
C260 C259 1.399 . S
C260 C261 1.385 . S
C261 H247 0.931 . S
C261 C260 1.385 . S
C261 C262 1.389 . S
C262 C261 1.389 . S
C262 C263 1.387 1_655 S
C263 H248 0.930 . S
C263 C258 1.390 . S
C263 C262 1.387 1_455 S
H264 C276 0.930 . S
H265 C278 0.930 . S
H266 C279 0.930 . S
H267 C283 0.959 . S
H268 C283 0.959 . S
H269 C283 0.961 1_556 S
H270 C284 0.960 1_556 S
H271 C284 0.961 . S
H272 C284 0.959 . S
H273 C287 0.929 . S
H274 C288 0.931 . S
H275 C290 0.930 . S
C276 H264 0.930 . S
C276 C277 1.399 . S
C276 C281 1.399 . S
C277 C276 1.399 . S
C277 C278 1.376 1_545 S
C278 H265 0.930 . S
C278 C277 1.376 1_565 S
C278 C279 1.388 . S
C279 H266 0.930 . S
C279 C278 1.388 . S
C279 C280 1.390 . S
C280 C279 1.390 . S
C280 C281 1.394 1_565 S
C280 C286 1.465 1_556 S
C281 C276 1.399 . S
C281 C280 1.394 1_545 S
C281 C282 1.516 1_556 S
C282 C281 1.516 1_554 S
C282 C283 1.502 . S
C282 C284 1.561 . S
C282 C285 1.526 . S
C283 H267 0.959 . S
C283 H268 0.959 . S
C283 H269 0.961 1_554 S
C283 C282 1.502 . S
C284 H270 0.960 1_554 S
C284 H271 0.961 . S
C284 H272 0.959 . S
C284 C282 1.561 . S
C285 C282 1.526 . S
C285 C286 1.396 1_545 S
C285 C290 1.390 . S
C286 C280 1.465 1_554 S
C286 C285 1.396 1_565 S
C286 C287 1.399 . S
C287 H273 0.929 . S
C287 C286 1.399 . S
C287 C288 1.385 . S
C288 H274 0.931 . S
C288 C287 1.385 . S
C288 C289 1.389 . S
C289 C288 1.389 . S
C289 C290 1.387 1_565 S
C290 H275 0.930 . S
C290 C285 1.390 . S
C290 C289 1.387 1_545 S
H291 C303 0.930 . S
H292 C305 0.930 . S
H293 C306 0.930 . S
H294 C310 0.959 . S
H295 C310 0.959 . S
H296 C310 0.961 . S
H297 C311 0.960 . S
H298 C311 0.961 . S
H299 C311 0.959 . S
H300 C314 0.929 . S
H301 C315 0.931 . S
H302 C317 0.930 . S
C303 H291 0.930 . S
C303 C304 1.399 . S
C303 C308 1.399 . S
C304 C303 1.399 . S
C304 C305 1.376 . S
C305 H292 0.930 . S
C305 C304 1.376 . S
C305 C306 1.388 . S
C306 H293 0.930 . S
C306 C305 1.388 . S
C306 C307 1.390 . S
C307 C306 1.390 . S
C307 C308 1.394 . S
C307 C313 1.465 . S
C308 C303 1.399 . S
C308 C307 1.394 . S
C308 C309 1.516 . S
C309 C308 1.516 . S
C309 C310 1.502 . S
C309 C311 1.561 . S
C309 C312 1.526 . S
C310 H294 0.959 . S
C310 H295 0.959 . S
C310 H296 0.961 . S
C310 C309 1.502 . S
C311 H297 0.960 . S
C311 H298 0.961 . S
C311 H299 0.959 . S
C311 C309 1.561 . S
C312 C309 1.526 . S
C312 C313 1.396 . S
C312 C317 1.390 . S
C313 C307 1.465 . S
C313 C312 1.396 . S
C313 C314 1.399 . S
C314 H300 0.929 . S
C314 C313 1.399 . S
C314 C315 1.385 . S
C315 H301 0.931 . S
C315 C314 1.385 . S
C315 C316 1.389 . S
C316 C315 1.389 . S
C316 C317 1.387 . S
C317 H302 0.930 . S
C317 C312 1.390 . S
C317 C316 1.387 . S
H318 C330 0.930 . S
H319 C332 0.930 . S
H320 C333 0.930 . S
H321 C337 0.959 . S
H322 C337 0.959 1_554 S
H323 C337 0.961 . S
H324 C338 0.973 . S
H325 C338 0.950 1_554 S
H326 C338 0.956 1_654 S
H327 C341 0.929 . S
H328 C342 0.931 . S
H329 C344 0.930 . S
C330 H318 0.930 . S
C330 C331 1.399 1_455 S
C330 C335 1.399 . S
C331 C330 1.399 1_655 S
C331 C332 1.376 . S
C332 H319 0.930 . S
C332 C331 1.376 . S
C332 C333 1.388 . S
C333 H320 0.930 . S
C333 C332 1.388 . S
C333 C334 1.390 . S
C334 C333 1.390 . S
C334 C335 1.394 1_655 S
C334 C340 1.465 1_556 S
C335 C330 1.399 . S
C335 C334 1.394 1_455 S
C335 C336 1.516 . S
C336 C335 1.516 . S
C336 C337 1.502 . S
C336 C338 1.562 . S
C336 C339 1.526 1_556 S
C337 H321 0.959 . S
C337 H322 0.959 1_556 S
C337 H323 0.961 . S
C337 C336 1.502 . S
C338 H324 0.973 . S
C338 H325 0.950 1_556 S
C338 H326 0.956 1_456 S
C338 C336 1.562 . S
C339 C336 1.526 1_554 S
C339 C340 1.396 1_455 S
C339 C344 1.390 . S
C340 C334 1.465 1_554 S
C340 C339 1.396 1_655 S
C340 C341 1.399 . S
C341 H327 0.929 . S
C341 C340 1.399 . S
C341 C342 1.385 . S
C342 H328 0.931 . S
C342 C341 1.385 . S
C342 C343 1.389 1_655 S
C343 C342 1.389 1_455 S
C343 C344 1.387 . S
C344 H329 0.930 . S
C344 C339 1.390 . S
C344 C343 1.387 . S
H345 C357 0.930 . S
H346 C359 0.930 . S
H347 C360 0.930 . S
H348 C364 0.959 . S
H349 C364 0.959 . S
H350 C364 0.961 . S
H351 C365 0.960 . S
H352 C365 0.961 . S
H353 C365 0.959 . S
H354 C368 0.929 . S
H355 C369 0.931 . S
H356 C371 0.930 . S
C357 H345 0.930 . S
C357 C358 1.399 . S
C357 C362 1.399 . S
C358 C357 1.399 . S
C358 C359 1.376 1_565 S
C359 H346 0.930 . S
C359 C358 1.376 1_545 S
C359 C360 1.388 . S
C360 H347 0.930 . S
C360 C359 1.388 . S
C360 C361 1.390 . S
C361 C360 1.390 . S
C361 C362 1.394 1_545 S
C361 C367 1.465 . S
C362 C357 1.399 . S
C362 C361 1.394 1_565 S
C362 C363 1.516 . S
C363 C362 1.516 . S
C363 C364 1.502 . S
C363 C365 1.561 . S
C363 C366 1.526 . S
C364 H348 0.959 . S
C364 H349 0.959 . S
C364 H350 0.961 . S
C364 C363 1.502 . S
C365 H351 0.960 . S
C365 H352 0.961 . S
C365 H353 0.959 . S
C365 C363 1.561 . S
C366 C363 1.526 . S
C366 C367 1.396 1_565 S
C366 C371 1.390 . S
C367 C361 1.465 . S
C367 C366 1.396 1_545 S
C367 C368 1.399 . S
C368 H354 0.929 . S
C368 C367 1.399 . S
C368 C369 1.385 . S
C369 H355 0.931 . S
C369 C368 1.385 . S
C369 C370 1.389 . S
C370 C369 1.389 . S
C370 C371 1.387 1_545 S
C371 H356 0.930 . S
C371 C366 1.390 . S
C371 C370 1.387 1_565 S
H372 C384 0.930 . S
H373 C386 0.930 . S
H374 C387 0.930 . S
H375 C391 0.959 . S
H376 C391 0.959 . S
H377 C391 0.961 1_556 S
H378 C392 0.960 . S
H379 C392 0.961 1_554 S
H380 C392 0.959 . S
H381 C395 0.929 . S
H382 C396 0.931 . S
H383 C398 0.930 . S
C384 H372 0.930 . S
C384 C385 1.399 . S
C384 C389 1.399 . S
C385 C384 1.399 . S
C385 C386 1.376 . S
C386 H373 0.930 . S
C386 C385 1.376 . S
C386 C387 1.388 . S
C387 H374 0.930 . S
C387 C386 1.388 . S
C387 C388 1.390 . S
C388 C387 1.390 . S
C388 C389 1.394 . S
C388 C394 1.465 1_556 S
C389 C384 1.399 . S
C389 C388 1.394 . S
C389 C390 1.516 . S
C390 C389 1.516 . S
C390 C391 1.502 1_556 S
C390 C392 1.561 . S
C390 C393 1.526 1_556 S
C391 H375 0.959 . S
C391 H376 0.959 . S
C391 H377 0.961 1_554 S
C391 C390 1.502 1_554 S
C392 H378 0.960 . S
C392 H379 0.961 1_556 S
C392 H380 0.959 . S
C392 C390 1.561 . S
C393 C390 1.526 1_554 S
C393 C394 1.396 . S
C393 C398 1.390 . S
C394 C388 1.465 1_554 S
C394 C393 1.396 . S
C394 C395 1.399 . S
C395 H381 0.929 . S
C395 C394 1.399 . S
C395 C396 1.385 . S
C396 H382 0.931 . S
C396 C395 1.385 . S
C396 C397 1.389 . S
C397 C396 1.389 . S
C397 C398 1.387 . S
C398 H383 0.930 . S
C398 C393 1.390 . S
C398 C397 1.387 . S
H399 C411 0.930 . S
H400 C413 0.930 . S
H401 C414 0.927 . S
H402 C418 0.959 . S
H403 C418 0.959 . S
H404 C418 0.961 . S
H405 C419 0.960 . S
H406 C419 0.961 . S
H407 C419 0.959 . S
H408 C422 0.929 . S
H409 C423 0.931 . S
H410 C425 0.930 . S
C411 H399 0.930 . S
C411 C412 1.399 . S
C411 C416 1.399 . S
C412 C411 1.399 . S
C412 C413 1.376 . S
C413 H400 0.930 . S
C413 C412 1.376 . S
C413 C414 1.388 . S
C414 H401 0.927 . S
C414 C413 1.388 . S
C414 C415 1.390 . S
C415 C414 1.390 . S
C415 C416 1.394 . S
C415 C421 1.465 1_655 S
C416 C411 1.399 . S
C416 C415 1.394 . S
C416 C417 1.516 . S
C417 C416 1.516 . S
C417 C418 1.502 1_655 S
C417 C419 1.561 . S
C417 C420 1.526 . S
C418 H402 0.959 . S
C418 H403 0.959 . S
C418 H404 0.961 . S
C418 C417 1.502 1_455 S
C419 H405 0.960 . S
C419 H406 0.961 . S
C419 H407 0.959 . S
C419 C417 1.561 . S
C420 C417 1.526 . S
C420 C421 1.396 1_655 S
C420 C425 1.390 1_655 S
C421 C415 1.465 1_455 S
C421 C420 1.396 1_455 S
C421 C422 1.399 . S
C422 H408 0.929 . S
C422 C421 1.399 . S
C422 C423 1.385 . S
C423 H409 0.931 . S
C423 C422 1.385 . S
C423 C424 1.389 . S
C424 C423 1.389 . S
C424 C425 1.387 . S
C425 H410 0.930 . S
C425 C420 1.390 1_455 S
C425 C424 1.387 . S
H426 C438 0.930 . S
H427 C440 0.930 . S
H428 C441 0.930 . S
H429 C445 0.962 . S
H430 C445 0.959 1_554 S
H431 C445 0.961 . S
H432 C446 0.960 . S
H433 C446 0.961 1_554 S
H434 C446 0.959 . S
H435 C449 0.929 . S
H436 C450 0.931 . S
H437 C452 0.930 . S
C438 H426 0.930 . S
C438 C439 1.399 1_565 S
C438 C443 1.399 . S
C439 C438 1.399 1_545 S
C439 C440 1.376 . S
C440 H427 0.930 . S
C440 C439 1.376 . S
C440 C441 1.388 . S
C441 H428 0.930 . S
C441 C440 1.388 . S
C441 C442 1.390 . S
C442 C441 1.390 . S
C442 C443 1.394 1_545 S
C442 C448 1.465 1_556 S
C443 C438 1.399 . S
C443 C442 1.394 1_565 S
C443 C444 1.516 . S
C444 C443 1.516 . S
C444 C445 1.502 . S
C444 C446 1.561 . S
C444 C447 1.526 1_556 S
C445 H429 0.962 . S
C445 H430 0.959 1_556 S
C445 H431 0.961 . S
C445 C444 1.502 . S
C446 H432 0.960 . S
C446 H433 0.961 1_556 S
C446 H434 0.959 . S
C446 C444 1.561 . S
C447 C444 1.526 1_554 S
C447 C448 1.396 1_565 S
C447 C452 1.390 . S
C448 C442 1.465 1_554 S
C448 C447 1.396 1_545 S
C448 C449 1.399 . S
C449 H435 0.929 . S
C449 C448 1.399 . S
C449 C450 1.385 . S
C450 H436 0.931 . S
C450 C449 1.385 . S
C450 C451 1.389 1_545 S
C451 C450 1.389 1_565 S
C451 C452 1.387 . S
C452 H437 0.930 . S
C452 C447 1.390 . S
C452 C451 1.387 . S
H453 C465 0.930 . S
H454 C467 0.930 . S
H455 C468 0.930 . S
H456 C472 0.959 . S
H457 C472 0.959 . S
H458 C472 0.961 . S
H459 C473 0.960 . S
H460 C473 0.961 . S
H461 C473 0.959 . S
H462 C476 0.929 . S
H463 C477 0.931 . S
H464 C479 0.930 . S
C465 H453 0.930 . S
C465 C466 1.399 . S
C465 C470 1.399 . S
C466 C465 1.399 . S
C466 C467 1.376 . S
C467 H454 0.930 . S
C467 C466 1.376 . S
C467 C468 1.388 . S
C468 H455 0.930 . S
C468 C467 1.388 . S
C468 C469 1.390 . S
C469 C468 1.390 . S
C469 C470 1.394 . S
C469 C475 1.465 . S
C470 C465 1.399 . S
C470 C469 1.394 . S
C470 C471 1.516 . S
C471 C470 1.516 . S
C471 C472 1.502 . S
C471 C473 1.561 . S
C471 C474 1.526 . S
C472 H456 0.959 . S
C472 H457 0.959 . S
C472 H458 0.961 . S
C472 C471 1.502 . S
C473 H459 0.960 . S
C473 H460 0.961 . S
C473 H461 0.959 . S
C473 C471 1.561 . S
C474 C471 1.526 . S
C474 C475 1.396 . S
C474 C479 1.390 . S
C475 C469 1.465 . S
C475 C474 1.396 . S
C475 C476 1.399 . S
C476 H462 0.929 . S
C476 C475 1.399 . S
C476 C477 1.385 . S
C477 H463 0.931 . S
C477 C476 1.385 . S
C477 C478 1.389 . S
C478 C477 1.389 . S
C478 C479 1.387 . S
C479 H464 0.930 . S
C479 C474 1.390 . S
C479 C478 1.387 . S
H480 C492 0.930 . S
H481 C494 0.930 1_655 S
H482 C495 0.930 1_655 S
H483 C499 0.959 . S
H484 C499 0.959 . S
H485 C499 0.961 . S
H486 C500 0.960 . S
H487 C500 0.961 . S
H488 C500 0.959 . S
H489 C503 0.929 1_655 S
H490 C504 0.931 1_655 S
H491 C506 0.930 . S
C492 H480 0.930 . S
C492 C493 1.399 . S
C492 C497 1.399 . S
C493 C492 1.399 . S
C493 C494 1.376 . S
C494 H481 0.930 1_455 S
C494 C493 1.376 . S
C494 C495 1.388 . S
C495 H482 0.930 1_455 S
C495 C494 1.388 . S
C495 C496 1.390 . S
C496 C495 1.390 . S
C496 C497 1.394 . S
C496 C502 1.465 . S
C497 C492 1.399 . S
C497 C496 1.394 . S
C497 C498 1.516 . S
C498 C497 1.516 . S
C498 C499 1.502 . S
C498 C500 1.561 . S
C498 C501 1.526 . S
C499 H483 0.959 . S
C499 H484 0.959 . S
C499 H485 0.961 . S
C499 C498 1.502 . S
C500 H486 0.960 . S
C500 H487 0.961 . S
C500 H488 0.959 . S
C500 C498 1.561 . S
C501 C498 1.526 . S
C501 C502 1.396 . S
C501 C506 1.390 . S
C502 C496 1.465 . S
C502 C501 1.396 . S
C502 C503 1.399 . S
C503 H489 0.929 1_455 S
C503 C502 1.399 . S
C503 C504 1.385 . S
C504 H490 0.931 1_455 S
C504 C503 1.385 . S
C504 C505 1.389 . S
C505 C504 1.389 . S
C505 C506 1.387 . S
C506 H491 0.930 . S
C506 C501 1.390 . S
C506 C505 1.387 . S
H507 C519 0.930 1_565 S
H508 C521 0.930 . S
H509 C522 0.930 . S
H510 C526 0.959 1_545 S
H511 C526 0.959 . S
H512 C526 0.961 . S
H513 C527 0.960 . S
H514 C527 0.961 . S
H515 C527 0.959 . S
H516 C530 0.929 . S
H517 C531 0.931 . S
H518 C533 0.930 1_565 S
C519 H507 0.930 1_545 S
C519 C520 1.399 . S
C519 C524 1.399 . S
C520 C519 1.399 . S
C520 C521 1.376 . S
C521 H508 0.930 . S
C521 C520 1.376 . S
C521 C522 1.388 . S
C522 H509 0.930 . S
C522 C521 1.388 . S
C522 C523 1.390 . S
C523 C522 1.390 . S
C523 C524 1.394 . S
C523 C529 1.465 . S
C524 C519 1.399 . S
C524 C523 1.394 . S
C524 C525 1.516 1_545 S
C525 C524 1.516 1_565 S
C525 C526 1.502 . S
C525 C527 1.561 . S
C525 C528 1.526 1_565 S
C526 H510 0.959 1_565 S
C526 H511 0.959 . S
C526 H512 0.961 . S
C526 C525 1.502 . S
C527 H513 0.960 . S
C527 H514 0.961 . S
C527 H515 0.959 . S
C527 C525 1.561 . S
C528 C525 1.526 1_545 S
C528 C529 1.396 . S
C528 C533 1.390 . S
C529 C523 1.465 . S
C529 C528 1.396 . S
C529 C530 1.399 . S
C530 H516 0.929 . S
C530 C529 1.399 . S
C530 C531 1.385 . S
C531 H517 0.931 . S
C531 C530 1.385 . S
C531 C532 1.389 . S
C532 C531 1.389 . S
C532 C533 1.387 . S
C533 H518 0.930 1_545 S
C533 C528 1.390 . S
C533 C532 1.387 . S
H534 C546 0.930 . S
H535 C548 0.930 . S
H536 C549 0.930 . S
H537 C553 0.959 . S
H538 C553 0.959 . S
H539 C553 0.961 . S
H540 C554 0.960 . S
H541 C554 0.961 . S
H542 C554 0.959 . S
H543 C557 0.929 . S
H544 C558 0.931 . S
H545 C560 0.930 . S
C546 H534 0.930 . S
C546 C547 1.399 . S
C546 C551 1.399 . S
C547 C546 1.399 . S
C547 C548 1.376 . S
C548 H535 0.930 . S
C548 C547 1.376 . S
C548 C549 1.388 . S
C549 H536 0.930 . S
C549 C548 1.388 . S
C549 C550 1.390 . S
C550 C549 1.390 . S
C550 C551 1.394 . S
C550 C556 1.465 . S
C551 C546 1.399 . S
C551 C550 1.394 . S
C551 C552 1.516 . S
C552 C551 1.516 . S
C552 C553 1.502 . S
C552 C554 1.561 . S
C552 C555 1.526 . S
C553 H537 0.959 . S
C553 H538 0.959 . S
C553 H539 0.961 . S
C553 C552 1.502 . S
C554 H540 0.960 . S
C554 H541 0.961 . S
C554 H542 0.959 . S
C554 C552 1.561 . S
C555 C552 1.526 . S
C555 C556 1.396 . S
C555 C560 1.390 . S
C556 C550 1.465 . S
C556 C555 1.396 . S
C556 C557 1.399 . S
C557 H543 0.929 . S
C557 C556 1.399 . S
C557 C558 1.385 . S
C558 H544 0.931 . S
C558 C557 1.385 . S
C558 C559 1.389 . S
C559 C558 1.389 . S
C559 C560 1.387 . S
C560 H545 0.930 . S
C560 C555 1.390 . S
C560 C559 1.387 . S
H561 C573 0.930 . S
H562 C575 0.930 . S
H563 C576 0.930 . S
H564 C580 0.959 1_455 S
H565 C580 0.959 . S
H566 C580 0.961 . S
H567 C581 0.960 . S
H568 C581 0.961 . S
H569 C581 0.959 . S
H570 C584 0.929 . S
H571 C585 0.931 . S
H572 C587 0.930 . S
C573 H561 0.930 . S
C573 C574 1.399 . S
C573 C578 1.399 . S
C574 C573 1.399 . S
C574 C575 1.376 . S
C575 H562 0.930 . S
C575 C574 1.376 . S
C575 C576 1.388 . S
C576 H563 0.930 . S
C576 C575 1.388 . S
C576 C577 1.390 . S
C577 C576 1.390 . S
C577 C578 1.394 . S
C577 C583 1.465 . S
C578 C573 1.399 . S
C578 C577 1.394 . S
C578 C579 1.516 . S
C579 C578 1.516 . S
C579 C580 1.502 . S
C579 C581 1.561 . S
C579 C582 1.526 . S
C580 H564 0.959 1_655 S
C580 H565 0.959 . S
C580 H566 0.961 . S
C580 C579 1.502 . S
C581 H567 0.960 . S
C581 H568 0.961 . S
C581 H569 0.959 . S
C581 C579 1.561 . S
C582 C579 1.526 . S
C582 C583 1.396 . S
C582 C587 1.390 . S
C583 C577 1.465 . S
C583 C582 1.396 . S
C583 C584 1.399 . S
C584 H570 0.929 . S
C584 C583 1.399 . S
C584 C585 1.385 . S
C585 H571 0.931 . S
C585 C584 1.385 . S
C585 C586 1.389 . S
C586 C585 1.389 . S
C586 C587 1.387 . S
C587 H572 0.930 . S
C587 C582 1.390 . S
C587 C586 1.387 . S
H588 C600 0.930 1_545 S
H589 C602 0.930 . S
H590 C603 0.930 . S
H591 C607 0.959 . S
H592 C607 0.959 . S
H593 C607 0.961 . S
H594 C608 0.960 . S
H595 C608 0.961 . S
H596 C608 0.959 . S
H597 C611 0.929 . S
H598 C612 0.931 . S
H599 C614 0.930 1_545 S
C600 H588 0.930 1_565 S
C600 C601 1.399 . S
C600 C605 1.399 . S
C601 C600 1.399 . S
C601 C602 1.376 . S
C602 H589 0.930 . S
C602 C601 1.376 . S
C602 C603 1.388 . S
C603 H590 0.930 . S
C603 C602 1.388 . S
C603 C604 1.390 . S
C604 C603 1.390 . S
C604 C605 1.394 . S
C604 C610 1.465 . S
C605 C600 1.399 . S
C605 C604 1.394 . S
C605 C606 1.516 1_565 S
C606 C605 1.516 1_545 S
C606 C607 1.502 . S
C606 C608 1.561 . S
C606 C609 1.526 1_545 S
C607 H591 0.959 . S
C607 H592 0.959 . S
C607 H593 0.961 . S
C607 C606 1.502 . S
C608 H594 0.960 . S
C608 H595 0.961 . S
C608 H596 0.959 . S
C608 C606 1.561 . S
C609 C606 1.526 1_565 S
C609 C610 1.396 . S
C609 C614 1.390 . S
C610 C604 1.465 . S
C610 C609 1.396 . S
C610 C611 1.399 . S
C611 H597 0.929 . S
C611 C610 1.399 . S
C611 C612 1.385 . S
C612 H598 0.931 . S
C612 C611 1.385 . S
C612 C613 1.389 . S
C613 C612 1.389 . S
C613 C614 1.387 . S
C614 H599 0.930 1_565 S
C614 C609 1.390 . S
C614 C613 1.387 . S
H615 C627 0.930 . S
H616 C629 0.930 . S
H617 C630 0.930 . S
H618 C634 0.959 . S
H619 C634 0.959 . S
H620 C634 0.961 . S
H621 C635 0.960 . S
H622 C635 0.961 . S
H623 C635 0.959 . S
H624 C638 0.929 . S
H625 C639 0.931 . S
H626 C641 0.930 . S
C627 H615 0.930 . S
C627 C628 1.399 . S
C627 C632 1.399 . S
C628 C627 1.399 . S
C628 C629 1.376 . S
C629 H616 0.930 . S
C629 C628 1.376 . S
C629 C630 1.388 . S
C630 H617 0.930 . S
C630 C629 1.388 . S
C630 C631 1.390 . S
C631 C630 1.390 . S
C631 C632 1.394 . S
C631 C637 1.465 . S
C632 C627 1.399 . S
C632 C631 1.394 . S
C632 C633 1.516 . S
C633 C632 1.516 . S
C633 C634 1.502 . S
C633 C635 1.561 . S
C633 C636 1.526 . S
C634 H618 0.959 . S
C634 H619 0.959 . S
C634 H620 0.961 . S
C634 C633 1.502 . S
C635 H621 0.960 . S
C635 H622 0.961 . S
C635 H623 0.959 . S
C635 C633 1.561 . S
C636 C633 1.526 . S
C636 C637 1.396 . S
C636 C641 1.390 . S
C637 C631 1.465 . S
C637 C636 1.396 . S
C637 C638 1.399 . S
C638 H624 0.929 . S
C638 C637 1.399 . S
C638 C639 1.385 . S
C639 H625 0.931 . S
C639 C638 1.385 . S
C639 C640 1.389 . S
C640 C639 1.389 . S
C640 C641 1.387 . S
C641 H626 0.930 . S
C641 C636 1.390 . S
C641 C640 1.387 . S
H642 C654 0.930 . S
H643 C656 0.930 . S
H644 C657 0.930 . S
H645 C661 0.959 . S
H646 C661 0.959 . S
H647 C661 0.961 . S
H648 C662 0.960 . S
H649 C662 0.961 . S
H650 C662 0.959 . S
H651 C665 0.929 . S
H652 C666 0.931 . S
H653 C668 0.930 . S
C654 H642 0.930 . S
C654 C655 1.399 . S
C654 C659 1.399 . S
C655 C654 1.399 . S
C655 C656 1.376 . S
C656 H643 0.930 . S
C656 C655 1.376 . S
C656 C657 1.388 . S
C657 H644 0.930 . S
C657 C656 1.388 . S
C657 C658 1.390 . S
C658 C657 1.390 . S
C658 C659 1.394 . S
C658 C664 1.465 . S
C659 C654 1.399 . S
C659 C658 1.394 . S
C659 C660 1.516 . S
C660 C659 1.516 . S
C660 C661 1.502 . S
C660 C662 1.561 . S
C660 C663 1.526 . S
C661 H645 0.959 . S
C661 H646 0.959 . S
C661 H647 0.961 . S
C661 C660 1.502 . S
C662 H648 0.960 . S
C662 H649 0.961 . S
C662 H650 0.959 . S
C662 C660 1.561 . S
C663 C660 1.526 . S
C663 C664 1.396 . S
C663 C668 1.390 . S
C664 C658 1.465 . S
C664 C663 1.396 . S
C664 C665 1.399 . S
C665 H651 0.929 . S
C665 C664 1.399 . S
C665 C666 1.385 . S
C666 H652 0.931 . S
C666 C665 1.385 . S
C666 C667 1.389 . S
C667 C666 1.389 . S
C667 C668 1.387 . S
C668 H653 0.930 . S
C668 C663 1.390 . S
C668 C667 1.387 . S
H669 C681 0.930 . S
H670 C683 0.930 . S
H671 C684 0.930 . S
H672 C688 0.959 . S
H673 C688 0.959 . S
H674 C688 0.961 . S
H675 C689 0.960 . S
H676 C689 0.961 . S
H677 C689 0.959 . S
H678 C692 0.929 . S
H679 C693 0.931 . S
H680 C695 0.930 . S
C681 H669 0.930 . S
C681 C682 1.399 . S
C681 C686 1.399 . S
C682 C681 1.399 . S
C682 C683 1.376 . S
C683 H670 0.930 . S
C683 C682 1.376 . S
C683 C684 1.388 . S
C684 H671 0.930 . S
C684 C683 1.388 . S
C684 C685 1.390 . S
C685 C684 1.390 . S
C685 C686 1.394 . S
C685 C691 1.465 . S
C686 C681 1.399 . S
C686 C685 1.394 . S
C686 C687 1.516 . S
C687 C686 1.516 . S
C687 C688 1.502 . S
C687 C689 1.561 . S
C687 C690 1.526 . S
C688 H672 0.959 . S
C688 H673 0.959 . S
C688 H674 0.961 . S
C688 C687 1.502 . S
C689 H675 0.960 . S
C689 H676 0.961 . S
C689 H677 0.959 . S
C689 C687 1.561 . S
C690 C687 1.526 . S
C690 C691 1.396 . S
C690 C695 1.390 . S
C691 C685 1.465 . S
C691 C690 1.396 . S
C691 C692 1.399 . S
C692 H678 0.929 . S
C692 C691 1.399 . S
C692 C693 1.385 . S
C693 H679 0.931 . S
C693 C692 1.385 . S
C693 C694 1.389 . S
C694 C693 1.389 . S
C694 C695 1.387 . S
C695 H680 0.930 . S
C695 C690 1.390 . S
C695 C694 1.387 . S
H696 C708 0.930 . S
H697 C710 0.930 . S
H698 C711 0.930 . S
H699 C715 0.959 . S
H700 C715 0.959 . S
H701 C715 0.961 . S
H702 C716 0.960 . S
H703 C716 0.961 . S
H704 C716 0.959 . S
H705 C719 0.929 . S
H706 C720 0.931 . S
H707 C722 0.930 . S
C708 H696 0.930 . S
C708 C709 1.399 . S
C708 C713 1.399 . S
C709 C708 1.399 . S
C709 C710 1.376 . S
C710 H697 0.930 . S
C710 C709 1.376 . S
C710 C711 1.388 . S
C711 H698 0.930 . S
C711 C710 1.388 . S
C711 C712 1.390 . S
C712 C711 1.390 . S
C712 C713 1.394 . S
C712 C718 1.465 . S
C713 C708 1.399 . S
C713 C712 1.394 . S
C713 C714 1.516 . S
C714 C713 1.516 . S
C714 C715 1.502 . S
C714 C716 1.561 . S
C714 C717 1.526 . S
C715 H699 0.959 . S
C715 H700 0.959 . S
C715 H701 0.961 . S
C715 C714 1.502 . S
C716 H702 0.960 . S
C716 H703 0.961 . S
C716 H704 0.959 . S
C716 C714 1.561 . S
C717 C714 1.526 . S
C717 C718 1.396 . S
C717 C722 1.390 . S
C718 C712 1.465 . S
C718 C717 1.396 . S
C718 C719 1.399 . S
C719 H705 0.929 . S
C719 C718 1.399 . S
C719 C720 1.385 . S
C720 H706 0.931 . S
C720 C719 1.385 . S
C720 C721 1.389 . S
C721 C720 1.389 . S
C721 C722 1.387 . S
C722 H707 0.930 . S
C722 C717 1.390 . S
C722 C721 1.387 . S
H723 C735 0.930 . S
H724 C737 0.930 . S
H725 C738 0.930 . S
H726 C742 0.959 . S
H727 C742 0.959 . S
H728 C742 0.961 . S
H729 C743 0.960 . S
H730 C743 0.961 . S
H731 C743 0.959 . S
H732 C746 0.929 . S
H733 C747 0.931 . S
H734 C749 0.930 . S
C735 H723 0.930 . S
C735 C736 1.399 . S
C735 C740 1.399 . S
C736 C735 1.399 . S
C736 C737 1.376 . S
C737 H724 0.930 . S
C737 C736 1.376 . S
C737 C738 1.388 . S
C738 H725 0.930 . S
C738 C737 1.388 . S
C738 C739 1.390 . S
C739 C738 1.390 . S
C739 C740 1.394 . S
C739 C745 1.465 . S
C740 C735 1.399 . S
C740 C739 1.394 . S
C740 C741 1.516 . S
C741 C740 1.516 . S
C741 C742 1.502 . S
C741 C743 1.561 . S
C741 C744 1.526 . S
C742 H726 0.959 . S
C742 H727 0.959 . S
C742 H728 0.961 . S
C742 C741 1.502 . S
C743 H729 0.960 . S
C743 H730 0.961 . S
C743 H731 0.959 . S
C743 C741 1.561 . S
C744 C741 1.526 . S
C744 C745 1.396 . S
C744 C749 1.390 . S
C745 C739 1.465 . S
C745 C744 1.396 . S
C745 C746 1.399 . S
C746 H732 0.929 . S
C746 C745 1.399 . S
C746 C747 1.385 . S
C747 H733 0.931 . S
C747 C746 1.385 . S
C747 C748 1.389 . S
C748 C747 1.389 . S
C748 C749 1.387 . S
C749 H734 0.930 . S
C749 C744 1.390 . S
C749 C748 1.387 . S
H750 C762 0.930 . S
H751 C764 0.930 . S
H752 C765 0.930 . S
H753 C769 0.959 . S
H754 C769 0.959 . S
H755 C769 0.961 . S
H756 C770 0.960 . S
H757 C770 0.961 . S
H758 C770 0.959 . S
H759 C773 0.929 . S
H760 C774 0.931 . S
H761 C776 0.930 . S
C762 H750 0.930 . S
C762 C763 1.399 . S
C762 C767 1.399 . S
C763 C762 1.399 . S
C763 C764 1.376 . S
C764 H751 0.930 . S
C764 C763 1.376 . S
C764 C765 1.388 . S
C765 H752 0.930 . S
C765 C764 1.388 . S
C765 C766 1.390 . S
C766 C765 1.390 . S
C766 C767 1.394 . S
C766 C772 1.465 . S
C767 C762 1.399 . S
C767 C766 1.394 . S
C767 C768 1.516 . S
C768 C767 1.516 . S
C768 C769 1.502 . S
C768 C770 1.561 . S
C768 C771 1.526 . S
C769 H753 0.959 . S
C769 H754 0.959 . S
C769 H755 0.961 . S
C769 C768 1.502 . S
C770 H756 0.960 . S
C770 H757 0.961 . S
C770 H758 0.959 . S
C770 C768 1.561 . S
C771 C768 1.526 . S
C771 C772 1.396 . S
C771 C776 1.390 . S
C772 C766 1.465 . S
C772 C771 1.396 . S
C772 C773 1.399 . S
C773 H759 0.929 . S
C773 C772 1.399 . S
C773 C774 1.385 . S
C774 H760 0.931 . S
C774 C773 1.385 . S
C774 C775 1.389 . S
C775 C774 1.389 . S
C775 C776 1.387 . S
C776 H761 0.930 . S
C776 C771 1.390 . S
C776 C775 1.387 . S
H777 C789 0.930 . S
H778 C791 0.930 . S
H779 C792 0.930 . S
H780 C796 0.959 . S
H781 C796 0.959 . S
H782 C796 0.961 . S
H783 C797 0.960 . S
H784 C797 0.961 . S
H785 C797 0.959 . S
H786 C800 0.929 . S
H787 C801 0.931 . S
H788 C803 0.930 . S
C789 H777 0.930 . S
C789 C790 1.399 . S
C789 C794 1.399 . S
C790 C789 1.399 . S
C790 C791 1.376 . S
C791 H778 0.930 . S
C791 C790 1.376 . S
C791 C792 1.388 . S
C792 H779 0.930 . S
C792 C791 1.388 . S
C792 C793 1.390 . S
C793 C792 1.390 . S
C793 C794 1.394 . S
C793 C799 1.465 . S
C794 C789 1.399 . S
C794 C793 1.394 . S
C794 C795 1.516 . S
C795 C794 1.516 . S
C795 C796 1.502 . S
C795 C797 1.561 . S
C795 C798 1.526 . S
C796 H780 0.959 . S
C796 H781 0.959 . S
C796 H782 0.961 . S
C796 C795 1.502 . S
C797 H783 0.960 . S
C797 H784 0.961 . S
C797 H785 0.959 . S
C797 C795 1.561 . S
C798 C795 1.526 . S
C798 C799 1.396 . S
C798 C803 1.390 . S
C799 C793 1.465 . S
C799 C798 1.396 . S
C799 C800 1.399 . S
C800 H786 0.929 . S
C800 C799 1.399 . S
C800 C801 1.385 . S
C801 H787 0.931 . S
C801 C800 1.385 . S
C801 C802 1.389 . S
C802 C801 1.389 . S
C802 C803 1.387 . S
C803 H788 0.930 . S
C803 C798 1.390 . S
C803 C802 1.387 . S
C169 C4 1.365 . S
C181 C153 1.353 . S
C196 C82 1.353 . S
C208 C17 1.379 . S
C223 C30 1.365 . S
C235 C95 1.392 . S
C250 C108 1.379 . S
C262 C43 1.353 . S
C277 C121 1.393 . S
C289 C62 1.369 . S
C304 C134 1.356 . S
C316 C75 1.385 . S
C331 C44 1.319 . S
C343 C109 1.356 . S
C358 C55 1.354 . S
C370 C122 1.320 . S
C385 C68 1.361 . S
C397 C135 1.356 . S
C412 C146 1.328 . S
C424 C5 1.336 . S
C439 C18 1.339 . S
C451 C83 1.370 . S
C466 C31 1.363 . S
C478 C96 1.354 . S
C493 C107 1.711 . S
C505 C3 1.729 . S
C520 C120 1.724 . S
C532 C16 1.710 . S
C547 C29 1.729 . S
C559 C133 1.712 . S
C574 C42 1.708 . S
C586 C148 1.728 . S
C601 C57 1.719 . S
C613 C81 1.714 . S
C628 C94 1.728 . S
C640 C70 1.713 . S
C655 C10 1.702 . S
C667 C140 1.695 . S
C682 C147 1.694 . S
C694 C23 1.707 . S
C709 C36 1.696 . S
C721 C88 1.713 . S
C736 C49 1.705 . S
C748 C101 1.695 . S
C763 C56 1.694 . S
C775 C114 1.708 . S
C790 C69 1.694 . S
C802 C127 1.709 . S
