# Generated by pormake.
# Topology uoy, (4)-cn, num edge types: 1
# Building blocks:
#     Node 0, Type 0, BuildingBlock: KUFVIS_clean_sbu_0, # of connection points: 4
#     Node 1, Type 0, BuildingBlock: KUFVIS_clean_sbu_0, # of connection points: 4
#     Node 2, Type 0, BuildingBlock: KUFVIS_clean_sbu_0, # of connection points: 4
#     Node 3, Type 0, BuildingBlock: KUFVIS_clean_sbu_0, # of connection points: 4
#     Node 4, Type 0, BuildingBlock: KUFVIS_clean_sbu_0, # of connection points: 4
#     Node 5, Type 0, BuildingBlock: KUFVIS_clean_sbu_0, # of connection points: 4
#     Node 6, Type 0, BuildingBlock: KUFVIS_clean_sbu_0, # of connection points: 4
#     Node 7, Type 0, BuildingBlock: KUFVIS_clean_sbu_0, # of connection points: 4
#     Node 8, Type 0, BuildingBlock: KUFVIS_clean_sbu_0, # of connection points: 4
#     Node 9, Type 0, BuildingBlock: KUFVIS_clean_sbu_0, # of connection points: 4
#     Node 10, Type 0, BuildingBlock: KUFVIS_clean_sbu_0, # of connection points: 4
#     Node 11, Type 0, BuildingBlock: KUFVIS_clean_sbu_0, # of connection points: 4
#     Node 12, Type 0, BuildingBlock: KUFVIS_clean_sbu_0, # of connection points: 4
#     Node 13, Type 0, BuildingBlock: KUFVIS_clean_sbu_0, # of connection points: 4
#     Node 14, Type 0, BuildingBlock: KUFVIS_clean_sbu_0, # of connection points: 4
#     Node 15, Type 0, BuildingBlock: KUFVIS_clean_sbu_0, # of connection points: 4
#     Edge 16, Type (0, 0), None
#     Edge 17, Type (0, 0), None
#     Edge 18, Type (0, 0), None
#     Edge 19, Type (0, 0), None
#     Edge 20, Type (0, 0), None
#     Edge 21, Type (0, 0), None
#     Edge 22, Type (0, 0), None
#     Edge 23, Type (0, 0), None
#     Edge 24, Type (0, 0), None
#     Edge 25, Type (0, 0), None
#     Edge 26, Type (0, 0), None
#     Edge 27, Type (0, 0), None
#     Edge 28, Type (0, 0), None
#     Edge 29, Type (0, 0), None
#     Edge 30, Type (0, 0), None
#     Edge 31, Type (0, 0), None
#     Edge 32, Type (0, 0), None
#     Edge 33, Type (0, 0), None
#     Edge 34, Type (0, 0), None
#     Edge 35, Type (0, 0), None
#     Edge 36, Type (0, 0), None
#     Edge 37, Type (0, 0), None
#     Edge 38, Type (0, 0), None
#     Edge 39, Type (0, 0), None
#     Edge 40, Type (0, 0), None
#     Edge 41, Type (0, 0), None
#     Edge 42, Type (0, 0), None
#     Edge 43, Type (0, 0), None
#     Edge 44, Type (0, 0), None
#     Edge 45, Type (0, 0), None
#     Edge 46, Type (0, 0), None
#     Edge 47, Type (0, 0), None
# Relax obj value: 0.050
# Max RMSD: 0.074
# Mean RMSD: 0.074
data_MOF--net-uoy--node1-KUFVIS_clean_sbu_0--edge1-none
_symmetry_space_group_name_H-M    P1
_symmetry_Int_Tables_number       1
_symmetry_cell_setting            triclinic
loop_
_symmetry_equiv_pos_as_xyz
'x, y, z'
_cell_length_a     13.076905
_cell_length_b     13.076903
_cell_length_c     42.66758
_cell_angle_alpha  90.000709
_cell_angle_beta   90.0007
_cell_angle_gamma 89.999937
loop_
_atom_site_label
_atom_site_type_symbol
_atom_site_fract_x
_atom_site_fract_y
_atom_site_fract_z
_atom_type_partial_charge
Mn0 Mn 0.27212 0.04628 0.21951 0.0
Mn1 Mn 0.24458 0.18305 0.24207 0.0
C2 C 0.38733 0.07024 0.26868 0.0
C3 C 0.4426 0.01052 0.19883 0.0
C4 C 0.05604 0.02026 0.22771 0.0
O5 O 0.23632 0.11049 0.1736 0.0
O6 O 0.26007 0.24056 0.19995 0.0
C7 C 0.30175 0.44837 0.20717 0.0
N8 N 0.26961 0.36559 0.23473 0.0
C9 C 0.23603 0.54673 0.28899 0.0
C10 C 0.27301 0.62734 0.25558 0.0
C11 C 0.30355 0.57984 0.21756 0.0
C12 C 0.2337 0.41714 0.28279 0.0
H13 H 0.28427 0.38339 0.22083 0.0
C14 C 0.242 0.20784 0.17386 0.0
O15 O 0.37178 0.94325 0.20026 0.0
O16 O 0.41642 0.09832 0.20929 0.0
N17 N 0.21926 0.18196 0.29797 0.0
C18 C 0.13714 0.09412 0.30065 0.0
C19 C 0.01922 0.12681 0.31253 0.0
C20 C 0.00417 0.32477 0.32882 0.0
C21 C 0.1135 0.39275 0.32454 0.0
C22 C 0.21192 0.33704 0.30898 0.0
H23 H 0.15175 0.01953 0.2909 0.0
O24 O 0.31993 2e-05 0.26486 0.0
O25 O 0.38565 0.13093 0.2447 0.0
O26 O 0.13229 0.96326 0.22093 0.0
O27 O 0.08518 0.11752 0.23325 0.0
C28 C 0.13711 0.48896 0.33731 0.0
C29 C 0.19831 0.56693 0.32183 0.0
H30 H 0.27706 0.70912 0.25915 0.0
H31 H 0.32444 0.63457 0.19968 0.0
H32 H 0.96243 0.0672 0.31361 0.0
H33 H 0.95349 0.35724 0.34531 0.0
H34 H 0.10771 0.50295 0.3606 0.0
H35 H 0.22332 0.57156 0.30083 0.0
Mn36 Mn 0.94639 0.77212 0.46951 0.0
Mn37 Mn 0.80962 0.74459 0.49207 0.0
C38 C 0.92243 0.88734 0.51868 0.0
C39 C 0.98215 0.9426 0.44883 0.0
C40 C 0.97241 0.55604 0.47771 0.0
O41 O 0.88218 0.73631 0.4236 0.0
O42 O 0.75211 0.76009 0.44995 0.0
C43 C 0.5443 0.80177 0.45717 0.0
N44 N 0.62708 0.76962 0.48473 0.0
C45 C 0.44594 0.73603 0.53898 0.0
C46 C 0.36533 0.77302 0.50557 0.0
C47 C 0.41283 0.80356 0.46756 0.0
C48 C 0.57553 0.7337 0.53279 0.0
H49 H 0.60928 0.78428 0.47082 0.0
C50 C 0.78483 0.742 0.42386 0.0
O51 O 0.04942 0.87178 0.45026 0.0
O52 O 0.89435 0.91642 0.45929 0.0
N53 N 0.81071 0.71926 0.54797 0.0
C54 C 0.89855 0.63714 0.55065 0.0
C55 C 0.86587 0.51922 0.56253 0.0
C56 C 0.66791 0.50417 0.57881 0.0
C57 C 0.59993 0.61349 0.57454 0.0
C58 C 0.65563 0.71192 0.55897 0.0
H59 H 0.97315 0.65175 0.5409 0.0
O60 O 0.99265 0.81994 0.51487 0.0
O61 O 0.86174 0.88566 0.4947 0.0
O62 O 0.02942 0.63229 0.47093 0.0
O63 O 0.87515 0.58518 0.48324 0.0
C64 C 0.50371 0.6371 0.5873 0.0
C65 C 0.42574 0.69831 0.57183 0.0
H66 H 0.28355 0.77707 0.50914 0.0
H67 H 0.3581 0.82445 0.44967 0.0
H68 H 0.92548 0.46243 0.5636 0.0
H69 H 0.63543 0.45349 0.5953 0.0
H70 H 0.48974 0.6077 0.6106 0.0
H71 H 0.42112 0.72332 0.55083 0.0
Mn72 Mn 0.22055 0.44638 0.71951 0.0
Mn73 Mn 0.24808 0.30961 0.74207 0.0
C74 C 0.10533 0.42243 0.76868 0.0
C75 C 0.05007 0.48214 0.69883 0.0
C76 C 0.43662 0.4724 0.72771 0.0
O77 O 0.25637 0.38216 0.6736 0.0
O78 O 0.23256 0.2521 0.69995 0.0
C79 C 0.1909 0.04428 0.70717 0.0
N80 N 0.22305 0.12707 0.73474 0.0
C81 C 0.25664 0.94594 0.78899 0.0
C82 C 0.21965 0.86533 0.75558 0.0
C83 C 0.18911 0.91282 0.71757 0.0
C84 C 0.25897 0.07553 0.78279 0.0
H85 H 0.20839 0.10927 0.72083 0.0
C86 C 0.25067 0.28482 0.67387 0.0
O87 O 0.12089 0.54941 0.70026 0.0
O88 O 0.07625 0.39434 0.70929 0.0
N89 N 0.27341 0.31071 0.79797 0.0
C90 C 0.35553 0.39856 0.80065 0.0
C91 C 0.47345 0.36587 0.81253 0.0
C92 C 0.4885 0.16791 0.82882 0.0
C93 C 0.37917 0.09993 0.82454 0.0
C94 C 0.28075 0.15563 0.80898 0.0
H95 H 0.34092 0.47315 0.7909 0.0
O96 O 0.17273 0.49265 0.76487 0.0
O97 O 0.10701 0.36173 0.7447 0.0
O98 O 0.36037 0.52941 0.72093 0.0
O99 O 0.40748 0.37514 0.73324 0.0
C100 C 0.35557 0.00372 0.83731 0.0
C101 C 0.29436 0.92574 0.82183 0.0
H102 H 0.2156 0.78355 0.75915 0.0
H103 H 0.16822 0.85809 0.69968 0.0
H104 H 0.53024 0.42548 0.8136 0.0
H105 H 0.53919 0.13544 0.84531 0.0
H106 H 0.38497 0.98974 0.8606 0.0
H107 H 0.26935 0.92112 0.80084 0.0
Mn108 Mn 0.54628 0.72055 0.96951 0.0
Mn109 Mn 0.68306 0.74809 0.99207 0.0
C110 C 0.57024 0.60534 1.01868 0.0
C111 C 0.51053 0.55007 0.94883 0.0
C112 C 0.52026 0.93663 0.97771 0.0
O113 O 0.6105 0.75636 0.9236 0.0
O114 O 0.74057 0.73258 0.94995 0.0
C115 C 0.94839 0.69091 0.95717 0.0
N116 N 0.8656 0.72306 0.98474 0.0
C117 C 0.04673 0.75664 0.039 0.0
C118 C 0.12734 0.71965 1.00558 0.0
C119 C 0.07985 0.68912 0.96757 0.0
C120 C 0.91714 0.75896 1.0328 0.0
H121 H 0.8834 0.7084 0.97083 0.0
C122 C 0.70785 0.75067 0.92387 0.0
O123 O 0.44326 0.62089 0.95026 0.0
O124 O 0.59833 0.57625 0.95929 0.0
N125 N 0.68196 0.77341 0.04797 0.0
C126 C 0.59412 0.85553 0.05065 0.0
C127 C 0.6268 0.97345 0.06254 0.0
C128 C 0.82476 0.98849 0.07883 0.0
C129 C 0.89274 0.87917 0.07455 0.0
C130 C 0.83704 0.78074 0.05898 0.0
H131 H 0.51953 0.84092 0.0409 0.0
O132 O 0.50002 0.67273 1.01486 0.0
O133 O 0.63094 0.60702 0.9947 0.0
O134 O 0.46326 0.86038 0.97093 0.0
O135 O 0.61753 0.90749 0.98325 0.0
C136 C 0.98895 0.85556 0.08731 0.0
C137 C 0.06693 0.79435 0.07184 0.0
H138 H 0.20912 0.7156 1.00916 0.0
H139 H 0.13458 0.66823 0.94969 0.0
H140 H 0.56719 0.03024 0.06361 0.0
H141 H 0.85723 0.03918 0.09532 0.0
H142 H 0.00294 0.88496 0.11061 0.0
H143 H 0.07155 0.76934 0.05084 0.0
Mn144 Mn 0.27212 0.44638 0.10035 0.0
Mn145 Mn 0.24457 0.3096 0.07778 0.0
C146 C 0.38733 0.42243 0.05118 0.0
C147 C 0.4426 0.48214 0.12102 0.0
C148 C 0.05604 0.4724 0.09214 0.0
O149 O 0.23634 0.38217 0.14626 0.0
O150 O 0.26001 0.25207 0.1199 0.0
C151 C 0.30176 0.04428 0.11268 0.0
N152 N 0.26961 0.12707 0.08511 0.0
C153 C 0.23604 0.94594 1.03085 0.0
C154 C 0.27302 0.86532 0.06427 0.0
C155 C 0.30356 0.91281 0.10228 0.0
C156 C 0.23371 0.07552 0.03705 0.0
H157 H 0.28427 0.10926 0.09902 0.0
C158 C 0.24205 0.28482 0.14599 0.0
O159 O 0.37178 0.54942 0.1196 0.0
O160 O 0.41642 0.39433 0.11057 0.0
N161 N 0.21926 0.31071 1.02188 0.0
C162 C 0.13714 0.39855 1.0192 0.0
C163 C 0.01922 0.36586 1.00731 0.0
C164 C 0.00418 0.16791 0.99102 0.0
C165 C 0.11351 0.09993 0.9953 0.0
C166 C 0.21193 0.15563 1.01087 0.0
H167 H 0.15174 0.47314 1.02895 0.0
O168 O 0.31993 0.49265 0.05499 0.0
O169 O 0.38565 0.36173 0.07515 0.0
O170 O 0.13229 0.5294 0.09893 0.0
O171 O 0.08517 0.37514 0.0866 0.0
C172 C 0.13712 0.00372 0.98254 0.0
C173 C 0.19833 0.92574 0.99801 0.0
H174 H 0.27707 0.78354 0.06069 0.0
H175 H 0.32444 0.85808 0.12016 0.0
H176 H 0.96243 0.42548 1.00624 0.0
H177 H 0.95349 0.13543 0.97453 0.0
H178 H 0.10771 0.98972 0.95924 0.0
H179 H 0.22334 0.92112 1.01901 0.0
Mn180 Mn 0.54628 0.77212 0.35035 0.0
Mn181 Mn 0.68306 0.74458 0.32778 0.0
C182 C 0.57024 0.88733 0.30118 0.0
C183 C 0.51053 0.9426 0.37102 0.0
C184 C 0.52027 0.55604 0.34214 0.0
O185 O 0.6105 0.73634 0.39626 0.0
O186 O 0.74059 0.76004 0.3699 0.0
C187 C 0.94839 0.80177 0.36268 0.0
N188 N 0.8656 0.76962 0.33512 0.0
C189 C 0.04673 0.73604 0.28086 0.0
C190 C 0.12734 0.77302 0.31427 0.0
C191 C 0.07986 0.80357 0.35228 0.0
C192 C 0.91714 0.73371 0.28706 0.0
H193 H 0.8834 0.78428 0.34902 0.0
C194 C 0.70785 0.74206 0.39599 0.0
O195 O 0.44325 0.87178 0.36959 0.0
O196 O 0.59833 0.91642 0.36057 0.0
N197 N 0.68196 0.71926 0.27188 0.0
C198 C 0.59411 0.63714 0.2692 0.0
C199 C 0.6268 0.51922 0.25732 0.0
C200 C 0.82476 0.50417 0.24103 0.0
C201 C 0.89274 0.6135 0.24531 0.0
C202 C 0.83703 0.71193 0.26087 0.0
H203 H 0.51952 0.65174 0.27895 0.0
O204 O 0.50002 0.81994 0.30499 0.0
O205 O 0.63094 0.88565 0.32515 0.0
O206 O 0.46327 0.63229 0.34892 0.0
O207 O 0.61753 0.58518 0.3366 0.0
C208 C 0.98895 0.63711 0.23254 0.0
C209 C 0.06693 0.69832 0.24801 0.0
H210 H 0.20912 0.77708 0.3107 0.0
H211 H 0.13458 0.82446 0.37017 0.0
H212 H 0.56719 0.46243 0.25625 0.0
H213 H 0.85724 0.45349 0.22454 0.0
H214 H 0.00293 0.60771 0.20925 0.0
H215 H 0.07155 0.72333 0.26901 0.0
Mn216 Mn 0.22055 0.04628 0.60035 0.0
Mn217 Mn 0.24809 0.18305 0.57779 0.0
C218 C 0.10534 0.07024 0.55118 0.0
C219 C 0.05007 0.01052 0.62102 0.0
C220 C 0.43663 0.02026 0.59214 0.0
O221 O 0.25633 0.11049 0.64626 0.0
O222 O 0.23265 0.24058 0.6199 0.0
C223 C 0.1909 0.44838 0.61269 0.0
N224 N 0.22305 0.36559 0.58512 0.0
C225 C 0.25663 0.54673 0.53087 0.0
C226 C 0.21965 0.62734 0.56428 0.0
C227 C 0.1891 0.57985 0.60229 0.0
C228 C 0.25896 0.41714 0.53706 0.0
H229 H 0.20839 0.3834 0.59903 0.0
C230 C 0.25061 0.20783 0.646 0.0
O231 O 0.12088 0.94324 0.61959 0.0
O232 O 0.07625 0.09832 0.61057 0.0
N233 N 0.27341 0.18196 0.52188 0.0
C234 C 0.35553 0.09412 0.51921 0.0
C235 C 0.47345 0.12681 0.50732 0.0
C236 C 0.4885 0.32477 0.49104 0.0
C237 C 0.37917 0.39274 0.49531 0.0
C238 C 0.28074 0.33704 0.51088 0.0
H239 H 0.34093 0.01953 0.52895 0.0
O240 O 0.17274 2e-05 0.55499 0.0
O241 O 0.10702 0.13094 0.57515 0.0
O242 O 0.36038 0.96326 0.59893 0.0
O243 O 0.40749 0.11752 0.5866 0.0
C244 C 0.35557 0.48896 0.48255 0.0
C245 C 0.29436 0.56693 0.49802 0.0
H246 H 0.2156 0.70912 0.56071 0.0
H247 H 0.16822 0.63457 0.62018 0.0
H248 H 0.53024 0.06719 0.50625 0.0
H249 H 0.53918 0.35724 0.47455 0.0
H250 H 0.38496 0.50294 0.45925 0.0
H251 H 0.26934 0.57155 0.51902 0.0
Mn252 Mn 0.94639 0.72055 0.85035 0.0
Mn253 Mn 0.80961 0.7481 0.82778 0.0
C254 C 0.92243 0.60534 0.80118 0.0
C255 C 0.98215 0.55007 0.87102 0.0
C256 C 0.97241 0.93663 0.84214 0.0
O257 O 0.88218 0.75632 0.89626 0.0
O258 O 0.75209 0.73267 0.8699 0.0
C259 C 0.54429 0.69091 0.86268 0.0
N260 N 0.62707 0.72306 0.83512 0.0
C261 C 0.44594 0.75663 0.78086 0.0
C262 C 0.36533 0.71965 0.81427 0.0
C263 C 0.41282 0.68912 0.85229 0.0
C264 C 0.57552 0.75896 0.78706 0.0
H265 H 0.60927 0.7084 0.84902 0.0
C266 C 0.78484 0.75061 0.896 0.0
O267 O 0.04943 0.62088 0.86959 0.0
O268 O 0.89434 0.57625 0.86057 0.0
N269 N 0.81071 0.77341 0.77188 0.0
C270 C 0.89855 0.85553 0.7692 0.0
C271 C 0.86586 0.97345 0.75732 0.0
C272 C 0.6679 0.98849 0.74103 0.0
C273 C 0.59992 0.87916 0.74531 0.0
C274 C 0.65563 0.78074 0.76087 0.0
H275 H 0.97314 0.84092 0.77895 0.0
O276 O 0.99264 0.67274 0.80499 0.0
O277 O 0.86173 0.60702 0.82515 0.0
O278 O 0.02941 0.86038 0.84893 0.0
O279 O 0.87515 0.9075 0.8366 0.0
C280 C 0.50371 0.85555 0.73254 0.0
C281 C 0.42573 0.79435 0.74802 0.0
H282 H 0.28355 0.7156 0.8107 0.0
H283 H 0.3581 0.66823 0.87017 0.0
H284 H 0.92547 0.03024 0.75625 0.0
H285 H 0.63542 0.03917 0.72454 0.0
H286 H 0.48972 0.88495 0.70925 0.0
H287 H 0.42111 0.76934 0.76902 0.0
Mn288 Mn 0.77213 0.54616 0.71948 0.0
Mn289 Mn 0.74451 0.68311 0.74209 0.0
C290 C 0.88708 0.57016 0.76867 0.0
C291 C 0.94261 0.51042 0.69885 0.0
C292 C 0.55604 0.52016 0.72771 0.0
O293 O 0.73649 0.61047 0.67358 0.0
O294 O 0.75982 0.74059 0.69996 0.0
C295 C 0.80174 0.9484 0.7072 0.0
N296 N 0.76961 0.86561 0.73476 0.0
C297 C 0.7361 0.04674 0.78903 0.0
C298 C 0.77307 0.12735 0.75561 0.0
C299 C 0.80357 0.07986 0.7176 0.0
C300 C 0.73375 0.91715 0.78283 0.0
H301 H 0.78426 0.8834 0.72085 0.0
C302 C 0.74203 0.70783 0.67386 0.0
O303 O 0.87181 0.44313 0.70024 0.0
O304 O 0.91645 0.59824 0.7093 0.0
N305 N 0.71926 0.68197 0.79799 0.0
C306 C 0.63713 0.59414 0.80067 0.0
C307 C 0.51922 0.62684 0.81256 0.0
C308 C 0.50421 0.82479 0.82886 0.0
C309 C 0.61356 0.89275 0.82459 0.0
C310 C 0.71197 0.83703 0.80901 0.0
H311 H 0.65172 0.51956 0.79091 0.0
O312 O 0.81982 0.49982 0.76484 0.0
O313 O 0.88553 0.63086 0.7447 0.0
O314 O 0.63227 0.46319 0.72088 0.0
O315 O 0.58517 0.6174 0.73329 0.0
C316 C 0.63718 0.98898 0.83735 0.0
C317 C 0.69839 0.06695 0.82187 0.0
H318 H 0.77712 0.20913 0.75918 0.0
H319 H 0.82445 0.13459 0.69971 0.0
H320 H 0.46242 0.56723 0.81363 0.0
H321 H 0.45353 0.85727 0.84536 0.0
H322 H 0.60773 0.00302 0.86063 0.0
H323 H 0.7234 0.07156 0.80087 0.0
Mn324 Mn 0.4465 0.27213 0.96948 0.0
Mn325 Mn 0.30957 0.24452 0.99209 0.0
C326 C 0.42251 0.38709 1.01867 0.0
C327 C 0.48225 0.44261 0.94885 0.0
C328 C 0.47251 0.05604 0.97771 0.0
O329 O 0.3822 0.23648 0.92358 0.0
O330 O 0.25208 0.25985 0.94996 0.0
C331 C 0.04427 0.30176 0.95719 0.0
N332 N 0.12706 0.26962 0.98476 0.0
C333 C 0.94593 0.2361 0.03902 0.0
C334 C 0.86532 0.27307 1.00561 0.0
C335 C 0.91281 0.30358 0.9676 0.0
C336 C 0.07552 0.23375 1.03282 0.0
H337 H 0.10927 0.28427 0.97085 0.0
C338 C 0.28484 0.24204 0.92386 0.0
O339 O 0.54954 0.37181 0.95024 0.0
O340 O 0.39443 0.41645 0.9593 0.0
N341 N 0.3107 0.21926 0.04799 0.0
C342 C 0.39853 0.13712 0.05067 0.0
C343 C 0.36583 0.01921 0.06256 0.0
C344 C 0.16788 0.0042 0.07886 0.0
C345 C 0.09992 0.11355 0.07458 0.0
C346 C 0.15564 0.21197 0.05901 0.0
H347 H 0.47311 0.15171 0.04091 0.0
O348 O 0.49285 0.31983 1.01484 0.0
O349 O 0.36181 0.38554 0.9947 0.0
O350 O 0.52948 0.13228 0.97088 0.0
O351 O 0.37526 0.08518 0.98328 0.0
C352 C 0.00369 0.13717 0.08734 0.0
C353 C 0.92572 0.19838 0.07187 0.0
H354 H 0.78354 0.27712 1.00918 0.0
H355 H 0.85808 0.32446 0.94971 0.0
H356 H 0.42544 0.96241 0.06362 0.0
H357 H 0.1354 0.95352 0.09535 0.0
H358 H 0.98967 0.10772 0.11063 0.0
H359 H 0.92111 0.2234 0.05087 0.0
Mn360 Mn 0.72054 0.9465 0.21948 0.0
Mn361 Mn 0.74815 0.80956 0.24209 0.0
C362 C 0.60558 0.92251 0.26867 0.0
C363 C 0.55006 0.98224 0.19885 0.0
C364 C 0.93662 0.9725 0.22771 0.0
O365 O 0.75619 0.88218 0.17358 0.0
O366 O 0.73281 0.75207 0.19996 0.0
C367 C 0.69091 0.54426 0.2072 0.0
N368 N 0.72305 0.62705 0.23477 0.0
C369 C 0.75656 0.44593 0.28903 0.0
C370 C 0.71959 0.36531 0.25562 0.0
C371 C 0.68908 0.4128 0.2176 0.0
C372 C 0.75891 0.57552 0.28283 0.0
H373 H 0.70839 0.60926 0.22086 0.0
C374 C 0.75063 0.78483 0.17386 0.0
O375 O 0.62086 0.04953 0.20024 0.0
O376 O 0.57622 0.89442 0.2093 0.0
N377 N 0.77341 0.81071 0.29799 0.0
C378 C 0.85554 0.89853 0.30067 0.0
C379 C 0.97345 0.86584 0.31256 0.0
C380 C 0.98846 0.66789 0.32886 0.0
C381 C 0.87911 0.59993 0.32459 0.0
C382 C 0.7807 0.65565 0.30901 0.0
H383 H 0.84095 0.97311 0.29091 0.0
O384 O 0.67284 0.99285 0.26484 0.0
O385 O 0.60713 0.8618 0.2447 0.0
O386 O 0.86039 0.02947 0.22088 0.0
O387 O 0.90749 0.87525 0.23328 0.0
C388 C 0.8555 0.5037 0.33735 0.0
C389 C 0.79428 0.42573 0.32187 0.0
H390 H 0.71554 0.28354 0.25919 0.0
H391 H 0.6682 0.35807 0.19972 0.0
H392 H 0.03026 0.92544 0.31362 0.0
H393 H 0.03915 0.63541 0.34536 0.0
H394 H 0.88495 0.48967 0.36063 0.0
H395 H 0.76927 0.42111 0.30088 0.0
Mn396 Mn 0.04617 0.22054 0.46948 0.0
Mn397 Mn 0.18311 0.24816 0.49209 0.0
C398 C 0.07016 0.10558 0.51867 0.0
C399 C 0.01043 0.05006 0.44885 0.0
C400 C 0.02017 0.43663 0.47771 0.0
O401 O 0.11048 0.25619 0.42358 0.0
O402 O 0.2406 0.23283 0.44997 0.0
C403 C 0.44841 0.19092 0.4572 0.0
N404 N 0.36562 0.22306 0.48477 0.0
C405 C 0.54674 0.25656 0.53903 0.0
C406 C 0.62736 0.2196 0.50562 0.0
C407 C 0.57988 0.1891 0.46761 0.0
C408 C 0.41715 0.25891 0.53283 0.0
H409 H 0.38341 0.20841 0.47086 0.0
C410 C 0.20784 0.25064 0.42386 0.0
O411 O 0.94314 0.12086 0.45024 0.0
O412 O 0.09825 0.07622 0.4593 0.0
N413 N 0.18197 0.27341 0.548 0.0
C414 C 0.09414 0.35554 0.55067 0.0
C415 C 0.12684 0.47345 0.56256 0.0
C416 C 0.32479 0.48846 0.57887 0.0
C417 C 0.39275 0.3791 0.57459 0.0
C418 C 0.33703 0.28069 0.55902 0.0
H419 H 0.01956 0.34095 0.54091 0.0
O420 O -0.00017 0.17285 0.51484 0.0
O421 O 0.13087 0.10714 0.4947 0.0
O422 O 0.9632 0.36039 0.47088 0.0
O423 O 0.11742 0.4075 0.48329 0.0
C424 C 0.48897 0.35549 0.58735 0.0
C425 C 0.56695 0.29427 0.57188 0.0
H426 H 0.70914 0.21554 0.50919 0.0
H427 H 0.6346 0.16822 0.44972 0.0
H428 H 0.06723 0.53025 0.56363 0.0
H429 H 0.35726 0.53915 0.59536 0.0
H430 H 0.50301 0.38494 0.61064 0.0
H431 H 0.57156 0.26926 0.55088 0.0
Mn432 Mn 0.77213 0.94649 0.60038 0.0
Mn433 Mn 0.7445 0.80955 0.57776 0.0
C434 C 0.88708 0.92251 0.55119 0.0
C435 C 0.94261 0.98224 0.621 0.0
C436 C 0.55604 0.9725 0.59215 0.0
O437 O 0.73651 0.88219 0.64628 0.0
O438 O 0.75977 0.75204 0.61989 0.0
C439 C 0.80175 0.54425 0.61265 0.0
N440 N 0.76961 0.62704 0.58508 0.0
C441 C 0.73611 0.44593 0.53082 0.0
C442 C 0.77308 0.36531 0.56423 0.0
C443 C 0.80358 0.41279 0.60224 0.0
C444 C 0.73376 0.57551 0.53702 0.0
H445 H 0.78427 0.60926 0.59899 0.0
C446 C 0.74209 0.78483 0.646 0.0
O447 O 0.87181 0.04953 0.61961 0.0
O448 O 0.91645 0.89441 0.61056 0.0
N449 N 0.71926 0.8107 0.52186 0.0
C450 C 0.63713 0.89853 0.51918 0.0
C451 C 0.51922 0.86583 0.50729 0.0
C452 C 0.50422 0.66788 0.49098 0.0
C453 C 0.61357 0.59992 0.49526 0.0
C454 C 0.71198 0.65565 0.51083 0.0
H455 H 0.65171 0.97311 0.52894 0.0
O456 O 0.81982 0.99284 0.55502 0.0
O457 O 0.88552 0.86179 0.57516 0.0
O458 O 0.63227 0.02946 0.59898 0.0
O459 O 0.58517 0.87526 0.58656 0.0
C460 C 0.63719 0.5037 0.4825 0.0
C461 C 0.6984 0.42572 0.49797 0.0
H462 H 0.77713 0.28353 0.56066 0.0
H463 H 0.82445 0.35806 0.62013 0.0
H464 H 0.46242 0.92544 0.50622 0.0
H465 H 0.45353 0.6354 0.47449 0.0
H466 H 0.60773 0.48966 0.45921 0.0
H467 H 0.72342 0.42111 0.51897 0.0
Mn468 Mn 0.04617 0.27213 0.85038 0.0
Mn469 Mn 0.18312 0.2445 0.82777 0.0
C470 C 0.07016 0.38709 0.80119 0.0
C471 C 0.01043 0.44261 0.871 0.0
C472 C 0.02017 0.05604 0.84215 0.0
O473 O 0.11048 0.23651 0.89628 0.0
O474 O 0.24062 0.25978 0.86989 0.0
C475 C 0.44841 0.30176 0.86265 0.0
N476 N 0.36562 0.26962 0.83509 0.0
C477 C 0.54674 0.23611 0.78082 0.0
C478 C 0.62736 0.27308 0.81423 0.0
C479 C 0.57988 0.30359 0.85225 0.0
C480 C 0.41715 0.23376 0.78702 0.0
H481 H 0.38341 0.28427 0.849 0.0
C482 C 0.20784 0.24209 0.896 0.0
O483 O 0.94314 0.37181 0.86961 0.0
O484 O 0.09825 0.41645 0.86056 0.0
N485 N 0.18196 0.21926 0.77186 0.0
C486 C 0.09414 0.13712 0.76919 0.0
C487 C 0.12684 0.01922 0.75729 0.0
C488 C 0.32479 0.00421 0.74099 0.0
C489 C 0.39275 0.11357 0.74526 0.0
C490 C 0.33702 0.21198 0.76084 0.0
H491 H 0.01956 0.15171 0.77894 0.0
O492 O -0.00018 0.31982 0.80501 0.0
O493 O 0.13087 0.38553 0.82516 0.0
O494 O 0.96321 0.13228 0.84898 0.0
O495 O 0.11741 0.08517 0.83656 0.0
C496 C 0.48897 0.13718 0.7325 0.0
C497 C 0.56694 0.19839 0.74798 0.0
H498 H 0.70914 0.27713 0.81066 0.0
H499 H 0.63461 0.32447 0.87013 0.0
H500 H 0.06723 0.96241 0.75623 0.0
H501 H 0.35726 0.95352 0.72449 0.0
H502 H 0.503 0.10773 0.70921 0.0
H503 H 0.57156 0.22341 0.76897 0.0
Mn504 Mn 0.72054 0.54617 0.10038 0.0
Mn505 Mn 0.74817 0.68311 0.07777 0.0
C506 C 0.60558 0.57016 0.05119 0.0
C507 C 0.55006 0.51042 0.121 0.0
C508 C 0.93663 0.52016 0.09215 0.0
O509 O 0.75615 0.61047 0.14628 0.0
O510 O 0.73289 0.74061 0.11989 0.0
C511 C 0.69091 0.9484 0.11266 0.0
N512 N 0.72305 0.86562 0.08509 0.0
C513 C 0.75656 0.04674 1.03083 0.0
C514 C 0.71959 0.12735 0.06424 0.0
C515 C 0.68908 0.07987 0.10225 0.0
C516 C 0.75891 0.91715 0.03703 0.0
H517 H 0.7084 0.8834 0.099 0.0
C518 C 0.75058 0.70782 0.146 0.0
O519 O 0.62086 0.44313 0.11961 0.0
O520 O 0.57621 0.59824 0.11056 0.0
N521 N 0.77341 0.68196 1.02186 0.0
C522 C 0.85555 0.59414 1.01919 0.0
C523 C 0.97346 0.62684 1.0073 0.0
C524 C 0.98846 0.82479 0.99099 0.0
C525 C 0.87911 0.89275 0.99527 0.0
C526 C 0.78069 0.83703 1.01084 0.0
H527 H 0.84096 0.51956 1.02894 0.0
O528 O 0.67285 0.49982 0.05501 0.0
O529 O 0.60714 0.63087 0.07516 0.0
O530 O 0.86039 0.4632 0.09898 0.0
O531 O 0.9075 0.6174 0.08656 0.0
C532 C 0.85549 0.98898 0.98251 0.0
C533 C 0.79428 0.06695 0.99798 0.0
H534 H 0.71554 0.20913 0.06067 0.0
H535 H 0.6682 0.13459 0.12014 0.0
H536 H 0.03026 0.56723 1.00623 0.0
H537 H 0.03914 0.85727 0.9745 0.0
H538 H 0.88494 0.003 0.95922 0.0
H539 H 0.76926 0.07156 1.01898 0.0
Mn540 Mn 0.4465 0.22054 0.35038 0.0
Mn541 Mn 0.30956 0.24818 0.32777 0.0
C542 C 0.42251 0.10559 0.30119 0.0
C543 C 0.48225 0.05006 0.371 0.0
C544 C 0.47251 0.43663 0.34215 0.0
O545 O 0.3822 0.25615 0.39628 0.0
O546 O 0.25205 0.23292 0.36989 0.0
C547 C 0.04427 0.19093 0.36265 0.0
N548 N 0.12705 0.22306 0.33509 0.0
C549 C 0.94593 0.25656 0.28082 0.0
C550 C 0.86531 0.2196 0.31424 0.0
C551 C 0.9128 0.1891 0.35225 0.0
C552 C 0.07551 0.25891 0.28702 0.0
H553 H 0.10927 0.20841 0.349 0.0
C554 C 0.28485 0.25058 0.396 0.0
O555 O 0.54954 0.12086 0.36961 0.0
O556 O 0.39442 0.07622 0.36056 0.0
N557 N 0.3107 0.27341 0.27186 0.0
C558 C 0.39853 0.35555 0.26918 0.0
C559 C 0.36583 0.47345 0.25729 0.0
C560 C 0.16787 0.48845 0.24098 0.0
C561 C 0.09991 0.3791 0.24526 0.0
C562 C 0.15564 0.28069 0.26084 0.0
H563 H 0.47311 0.34096 0.27894 0.0
O564 O 0.49284 0.17285 0.30501 0.0
O565 O 0.3618 0.10715 0.32516 0.0
O566 O 0.52947 0.3604 0.34898 0.0
O567 O 0.37527 0.40751 0.33656 0.0
C568 C 0.00369 0.35548 0.2325 0.0
C569 C 0.92571 0.29427 0.24798 0.0
H570 H 0.78353 0.21554 0.31066 0.0
H571 H 0.85808 0.16822 0.37014 0.0
H572 H 0.42543 0.53025 0.25622 0.0
H573 H 0.13539 0.53914 0.22449 0.0
H574 H 0.98965 0.38493 0.20922 0.0
H575 H 0.92111 0.26926 0.26898 0.0
loop_
_geom_bond_atom_site_label_1
_geom_bond_atom_site_label_2
_geom_bond_distance
_geom_bond_site_symmetry_2
_ccdc_geom_bond_type
Mn0 O5 2.095 . S
Mn0 O15 2.162 1_545 S
Mn0 O16 2.297 . S
Mn0 O24 2.385 . S
Mn0 O25 2.209 . S
Mn0 O26 2.094 . S
Mn1 O6 2.121 . S
Mn1 N8 2.257 . S
Mn1 N17 2.282 . S
Mn1 O25 2.215 . S
Mn1 O27 2.117 . S
C2 O24 1.234 . S
C2 O25 1.283 . S
C3 O15 1.281 1_545 S
C3 O16 1.236 . S
C4 O26 1.240 . S
C4 O27 1.264 . S
O5 Mn0 2.095 . S
O5 C14 1.250 . S
O6 Mn1 2.121 . S
O6 C14 1.258 . S
C7 N8 1.326 . S
C7 C11 1.460 . S
C7 H13 0.929 . S
N8 Mn1 2.257 . S
N8 C7 1.326 . S
N8 C12 1.362 . S
C9 C10 1.258 . S
C9 C12 1.431 . S
C9 C29 1.449 . S
C10 C9 1.258 . S
C10 C11 1.477 . S
C10 H30 0.931 . S
C11 C7 1.460 . S
C11 C10 1.477 . S
C11 H31 0.930 . S
C12 N8 1.362 . S
C12 C9 1.431 . S
C12 C22 1.476 . S
H13 C7 0.929 . S
C14 O5 1.250 . S
C14 O6 1.258 . S
O15 Mn0 2.162 1_565 S
O15 C3 1.281 1_565 S
O16 Mn0 2.297 . S
O16 C3 1.236 . S
N17 Mn1 2.282 . S
N17 C18 1.329 . S
N17 C22 1.318 . S
C18 N17 1.329 . S
C18 C19 1.456 1_455 S
C18 H23 0.928 1_455 S
C19 C18 1.456 1_655 S
C19 C20 1.291 . S
C19 H32 0.931 . S
C20 C19 1.291 . S
C20 C21 1.373 1_655 S
C20 H33 0.929 . S
C21 C20 1.373 1_455 S
C21 C22 1.396 . S
C21 C28 1.403 . S
C22 C12 1.476 . S
C22 N17 1.318 . S
C22 C21 1.396 . S
H23 C18 0.928 1_655 S
O24 Mn0 2.385 . S
O24 C2 1.234 . S
O25 Mn0 2.209 . S
O25 Mn1 2.215 . S
O25 C2 1.283 . S
O26 Mn0 2.094 . S
O26 C4 1.240 . S
O27 Mn1 2.117 . S
O27 C4 1.264 . S
C28 C21 1.403 . S
C28 C29 1.399 . S
C28 H34 0.929 . S
C29 C9 1.449 . S
C29 C28 1.399 . S
C29 H35 0.930 . S
H30 C10 0.931 . S
H31 C11 0.930 . S
H32 C19 0.931 . S
H33 C20 0.929 . S
H34 C28 0.929 . S
H35 C29 0.930 . S
Mn36 O41 2.095 . S
Mn36 O51 2.162 1_655 S
Mn36 O52 2.297 . S
Mn36 O60 2.385 . S
Mn36 O61 2.209 . S
Mn36 O62 2.094 . S
Mn37 O42 2.121 . S
Mn37 N44 2.257 . S
Mn37 N53 2.282 . S
Mn37 O61 2.215 . S
Mn37 O63 2.117 . S
C38 O60 1.234 . S
C38 O61 1.283 . S
C39 O51 1.281 1_655 S
C39 O52 1.236 . S
C40 O62 1.240 . S
C40 O63 1.264 . S
O41 Mn36 2.095 . S
O41 C50 1.250 . S
O42 Mn37 2.121 . S
O42 C50 1.258 . S
C43 N44 1.326 . S
C43 C47 1.460 . S
C43 H49 0.929 . S
N44 Mn37 2.257 . S
N44 C43 1.326 . S
N44 C48 1.362 . S
C45 C46 1.258 . S
C45 C48 1.431 . S
C45 C65 1.449 . S
C46 C45 1.258 . S
C46 C47 1.477 . S
C46 H66 0.931 . S
C47 C43 1.460 . S
C47 C46 1.477 . S
C47 H67 0.930 . S
C48 N44 1.362 . S
C48 C45 1.431 . S
C48 C58 1.476 . S
H49 C43 0.929 . S
C50 O41 1.250 . S
C50 O42 1.258 . S
O51 Mn36 2.162 1_455 S
O51 C39 1.281 1_455 S
O52 Mn36 2.297 . S
O52 C39 1.236 . S
N53 Mn37 2.282 . S
N53 C54 1.328 . S
N53 C58 1.318 . S
C54 N53 1.328 . S
C54 C55 1.457 . S
C54 H59 0.929 . S
C55 C54 1.457 . S
C55 C56 1.291 . S
C55 H68 0.931 . S
C56 C55 1.291 . S
C56 C57 1.373 . S
C56 H69 0.929 . S
C57 C56 1.373 . S
C57 C58 1.396 . S
C57 C64 1.403 . S
C58 C48 1.476 . S
C58 N53 1.318 . S
C58 C57 1.396 . S
H59 C54 0.929 . S
O60 Mn36 2.385 . S
O60 C38 1.234 . S
O61 Mn36 2.209 . S
O61 Mn37 2.215 . S
O61 C38 1.283 . S
O62 Mn36 2.094 . S
O62 C40 1.240 . S
O63 Mn37 2.117 . S
O63 C40 1.264 . S
C64 C57 1.403 . S
C64 C65 1.399 . S
C64 H70 0.929 . S
C65 C45 1.449 . S
C65 C64 1.399 . S
C65 H71 0.930 . S
H66 C46 0.931 . S
H67 C47 0.930 . S
H68 C55 0.931 . S
H69 C56 0.929 . S
H70 C64 0.929 . S
H71 C65 0.930 . S
Mn72 O77 2.095 . S
Mn72 O87 2.162 . S
Mn72 O88 2.297 . S
Mn72 O96 2.385 . S
Mn72 O97 2.209 . S
Mn72 O98 2.094 . S
Mn73 O78 2.121 . S
Mn73 N80 2.257 . S
Mn73 N89 2.282 . S
Mn73 O97 2.215 . S
Mn73 O99 2.117 . S
C74 O96 1.234 . S
C74 O97 1.283 . S
C75 O87 1.281 . S
C75 O88 1.236 . S
C76 O98 1.240 . S
C76 O99 1.264 . S
O77 Mn72 2.095 . S
O77 C86 1.250 . S
O78 Mn73 2.121 . S
O78 C86 1.258 . S
C79 N80 1.326 1_565 S
C79 C83 1.460 . S
C79 H85 0.929 . S
N80 Mn73 2.257 . S
N80 C79 1.326 1_545 S
N80 C84 1.362 . S
C81 C82 1.258 . S
C81 C84 1.431 1_565 S
C81 C101 1.449 . S
C82 C81 1.258 . S
C82 C83 1.477 . S
C82 H102 0.931 . S
C83 C79 1.460 . S
C83 C82 1.477 . S
C83 H103 0.930 . S
C84 N80 1.362 . S
C84 C81 1.431 1_545 S
C84 C94 1.476 . S
H85 C79 0.929 . S
C86 O77 1.250 . S
C86 O78 1.258 . S
O87 Mn72 2.162 . S
O87 C75 1.281 . S
O88 Mn72 2.297 . S
O88 C75 1.236 . S
N89 Mn73 2.282 . S
N89 C90 1.328 . S
N89 C94 1.318 . S
C90 N89 1.328 . S
C90 C91 1.457 . S
C90 H95 0.929 . S
C91 C90 1.457 . S
C91 C92 1.291 . S
C91 H104 0.931 . S
C92 C91 1.291 . S
C92 C93 1.373 . S
C92 H105 0.929 . S
C93 C92 1.373 . S
C93 C94 1.396 . S
C93 C100 1.403 1_545 S
C94 C84 1.476 . S
C94 N89 1.318 . S
C94 C93 1.396 . S
H95 C90 0.929 . S
O96 Mn72 2.385 . S
O96 C74 1.234 . S
O97 Mn72 2.209 . S
O97 Mn73 2.215 . S
O97 C74 1.283 . S
O98 Mn72 2.094 . S
O98 C76 1.240 . S
O99 Mn73 2.117 . S
O99 C76 1.264 . S
C100 C93 1.403 1_565 S
C100 C101 1.399 . S
C100 H106 0.929 . S
C101 C81 1.449 . S
C101 C100 1.399 . S
C101 H107 0.930 . S
H102 C82 0.931 . S
H103 C83 0.930 . S
H104 C91 0.931 . S
H105 C92 0.929 . S
H106 C100 0.929 . S
H107 C101 0.930 . S
Mn108 O113 2.095 . S
Mn108 O123 2.162 . S
Mn108 O124 2.297 . S
Mn108 O132 2.385 . S
Mn108 O133 2.209 . S
Mn108 O134 2.094 . S
Mn109 O114 2.121 . S
Mn109 N116 2.257 . S
Mn109 N125 2.282 . S
Mn109 O133 2.215 . S
Mn109 O135 2.117 . S
C110 O132 1.234 . S
C110 O133 1.283 . S
C111 O123 1.281 . S
C111 O124 1.236 . S
C112 O134 1.240 . S
C112 O135 1.264 . S
O113 Mn108 2.095 . S
O113 C122 1.250 . S
O114 Mn109 2.121 . S
O114 C122 1.258 . S
C115 N116 1.326 1_455 S
C115 C119 1.460 . S
C115 H121 0.929 . S
N116 Mn109 2.257 . S
N116 C115 1.326 1_655 S
N116 C120 1.362 . S
C117 C118 1.258 1_554 S
C117 C120 1.431 1_454 S
C117 C137 1.449 . S
C118 C117 1.258 1_556 S
C118 C119 1.477 . S
C118 H138 0.931 . S
C119 C115 1.460 . S
C119 C118 1.477 . S
C119 H139 0.930 . S
C120 N116 1.362 . S
C120 C117 1.431 1_656 S
C120 C130 1.476 1_556 S
H121 C115 0.929 . S
C122 O113 1.250 . S
C122 O114 1.258 . S
O123 Mn108 2.162 . S
O123 C111 1.281 . S
O124 Mn108 2.297 . S
O124 C111 1.236 . S
N125 Mn109 2.282 . S
N125 C126 1.329 1_556 S
N125 C130 1.318 1_556 S
C126 N125 1.329 1_554 S
C126 C127 1.456 1_565 S
C126 H131 0.930 1_565 S
C127 C126 1.456 1_545 S
C127 C128 1.291 . S
C127 H140 0.931 . S
C128 C127 1.291 . S
C128 C129 1.373 1_545 S
C128 H141 0.929 . S
C129 C128 1.373 1_565 S
C129 C130 1.396 . S
C129 C136 1.403 1_655 S
C130 C120 1.476 1_554 S
C130 N125 1.318 1_554 S
C130 C129 1.396 . S
H131 C126 0.930 1_545 S
O132 Mn108 2.385 . S
O132 C110 1.234 . S
O133 Mn108 2.209 . S
O133 Mn109 2.215 . S
O133 C110 1.283 . S
O134 Mn108 2.094 . S
O134 C112 1.240 . S
O135 Mn109 2.117 . S
O135 C112 1.264 . S
C136 C129 1.403 1_455 S
C136 C137 1.399 . S
C136 H142 0.929 . S
C137 C117 1.449 . S
C137 C136 1.399 . S
C137 H143 0.930 . S
H138 C118 0.931 . S
H139 C119 0.930 . S
H140 C127 0.931 . S
H141 C128 0.929 . S
H142 C136 0.929 . S
H143 C137 0.930 . S
Mn144 O149 2.095 . S
Mn144 O159 2.162 . S
Mn144 O160 2.297 . S
Mn144 O168 2.385 . S
Mn144 O169 2.209 . S
Mn144 O170 2.094 . S
Mn145 O150 2.121 . S
Mn145 N152 2.257 . S
Mn145 N161 2.282 . S
Mn145 O169 2.215 . S
Mn145 O171 2.117 . S
C146 O168 1.234 . S
C146 O169 1.283 . S
C147 O159 1.281 . S
C147 O160 1.236 . S
C148 O170 1.240 . S
C148 O171 1.264 . S
O149 Mn144 2.095 . S
O149 C158 1.250 . S
O150 Mn145 2.121 . S
O150 C158 1.258 . S
C151 N152 1.326 1_565 S
C151 C155 1.460 . S
C151 H157 0.929 . S
N152 Mn145 2.257 . S
N152 C151 1.326 1_545 S
N152 C156 1.362 . S
C153 C154 1.258 1_556 S
C153 C156 1.431 1_566 S
C153 C173 1.449 . S
C154 C153 1.258 1_554 S
C154 C155 1.477 . S
C154 H174 0.931 . S
C155 C151 1.460 . S
C155 C154 1.477 . S
C155 H175 0.930 . S
C156 N152 1.362 . S
C156 C153 1.431 1_544 S
C156 C166 1.476 1_554 S
H157 C151 0.929 . S
C158 O149 1.250 . S
C158 O150 1.258 . S
O159 Mn144 2.162 . S
O159 C147 1.281 . S
O160 Mn144 2.297 . S
O160 C147 1.236 . S
N161 Mn145 2.282 . S
N161 C162 1.329 1_554 S
N161 C166 1.318 1_554 S
C162 N161 1.329 1_556 S
C162 C163 1.456 1_455 S
C162 H167 0.930 1_455 S
C163 C162 1.456 1_655 S
C163 C164 1.291 . S
C163 H176 0.931 . S
C164 C163 1.291 . S
C164 C165 1.373 1_655 S
C164 H177 0.929 . S
C165 C164 1.373 1_455 S
C165 C166 1.396 . S
C165 C172 1.403 1_545 S
C166 C156 1.476 1_556 S
C166 N161 1.318 1_556 S
C166 C165 1.396 . S
H167 C162 0.930 1_655 S
O168 Mn144 2.385 . S
O168 C146 1.234 . S
O169 Mn144 2.209 . S
O169 Mn145 2.215 . S
O169 C146 1.283 . S
O170 Mn144 2.094 . S
O170 C148 1.240 . S
O171 Mn145 2.117 . S
O171 C148 1.264 . S
C172 C165 1.403 1_565 S
C172 C173 1.399 . S
C172 H178 0.929 . S
C173 C153 1.449 . S
C173 C172 1.399 . S
C173 H179 0.930 . S
H174 C154 0.931 . S
H175 C155 0.930 . S
H176 C163 0.931 . S
H177 C164 0.929 . S
H178 C172 0.929 . S
H179 C173 0.930 . S
Mn180 O185 2.095 . S
Mn180 O195 2.162 . S
Mn180 O196 2.297 . S
Mn180 O204 2.385 . S
Mn180 O205 2.209 . S
Mn180 O206 2.094 . S
Mn181 O186 2.121 . S
Mn181 N188 2.257 . S
Mn181 N197 2.282 . S
Mn181 O205 2.215 . S
Mn181 O207 2.117 . S
C182 O204 1.234 . S
C182 O205 1.283 . S
C183 O195 1.281 . S
C183 O196 1.236 . S
C184 O206 1.240 . S
C184 O207 1.264 . S
O185 Mn180 2.095 . S
O185 C194 1.250 . S
O186 Mn181 2.121 . S
O186 C194 1.258 . S
C187 N188 1.326 1_455 S
C187 C191 1.460 . S
C187 H193 0.929 . S
N188 Mn181 2.257 . S
N188 C187 1.326 1_655 S
N188 C192 1.362 . S
C189 C190 1.258 . S
C189 C192 1.431 1_455 S
C189 C209 1.449 . S
C190 C189 1.258 . S
C190 C191 1.477 . S
C190 H210 0.931 . S
C191 C187 1.460 . S
C191 C190 1.477 . S
C191 H211 0.930 . S
C192 N188 1.362 . S
C192 C189 1.431 1_655 S
C192 C202 1.476 . S
H193 C187 0.929 . S
C194 O185 1.250 . S
C194 O186 1.258 . S
O195 Mn180 2.162 . S
O195 C183 1.281 . S
O196 Mn180 2.297 . S
O196 C183 1.236 . S
N197 Mn181 2.282 . S
N197 C198 1.328 . S
N197 C202 1.318 . S
C198 N197 1.328 . S
C198 C199 1.457 . S
C198 H203 0.929 . S
C199 C198 1.457 . S
C199 C200 1.291 . S
C199 H212 0.931 . S
C200 C199 1.291 . S
C200 C201 1.373 . S
C200 H213 0.929 . S
C201 C200 1.373 . S
C201 C202 1.396 . S
C201 C208 1.403 1_655 S
C202 C192 1.476 . S
C202 N197 1.318 . S
C202 C201 1.396 . S
H203 C198 0.929 . S
O204 Mn180 2.385 . S
O204 C182 1.234 . S
O205 Mn180 2.209 . S
O205 Mn181 2.215 . S
O205 C182 1.283 . S
O206 Mn180 2.094 . S
O206 C184 1.240 . S
O207 Mn181 2.117 . S
O207 C184 1.264 . S
C208 C201 1.403 1_455 S
C208 C209 1.399 . S
C208 H214 0.929 . S
C209 C189 1.449 . S
C209 C208 1.399 . S
C209 H215 0.930 . S
H210 C190 0.931 . S
H211 C191 0.930 . S
H212 C199 0.931 . S
H213 C200 0.929 . S
H214 C208 0.929 . S
H215 C209 0.930 . S
Mn216 O221 2.095 . S
Mn216 O231 2.162 1_545 S
Mn216 O232 2.297 . S
Mn216 O240 2.385 . S
Mn216 O241 2.209 . S
Mn216 O242 2.094 . S
Mn217 O222 2.121 . S
Mn217 N224 2.257 . S
Mn217 N233 2.282 . S
Mn217 O241 2.215 . S
Mn217 O243 2.117 . S
C218 O240 1.234 . S
C218 O241 1.283 . S
C219 O231 1.281 1_545 S
C219 O232 1.236 . S
C220 O242 1.240 . S
C220 O243 1.264 . S
O221 Mn216 2.095 . S
O221 C230 1.250 . S
O222 Mn217 2.121 . S
O222 C230 1.258 . S
C223 N224 1.326 . S
C223 C227 1.460 . S
C223 H229 0.929 . S
N224 Mn217 2.257 . S
N224 C223 1.326 . S
N224 C228 1.362 . S
C225 C226 1.258 . S
C225 C228 1.431 . S
C225 C245 1.449 . S
C226 C225 1.258 . S
C226 C227 1.477 . S
C226 H246 0.931 . S
C227 C223 1.460 . S
C227 C226 1.477 . S
C227 H247 0.930 . S
C228 N224 1.362 . S
C228 C225 1.431 . S
C228 C238 1.476 . S
H229 C223 0.929 . S
C230 O221 1.250 . S
C230 O222 1.258 . S
O231 Mn216 2.162 1_565 S
O231 C219 1.281 1_565 S
O232 Mn216 2.297 . S
O232 C219 1.236 . S
N233 Mn217 2.282 . S
N233 C234 1.328 . S
N233 C238 1.318 . S
C234 N233 1.328 . S
C234 C235 1.457 . S
C234 H239 0.929 . S
C235 C234 1.457 . S
C235 C236 1.291 . S
C235 H248 0.931 . S
C236 C235 1.291 . S
C236 C237 1.373 . S
C236 H249 0.929 . S
C237 C236 1.373 . S
C237 C238 1.396 . S
C237 C244 1.403 . S
C238 C228 1.476 . S
C238 N233 1.318 . S
C238 C237 1.396 . S
H239 C234 0.929 . S
O240 Mn216 2.385 . S
O240 C218 1.234 . S
O241 Mn216 2.209 . S
O241 Mn217 2.215 . S
O241 C218 1.283 . S
O242 Mn216 2.094 . S
O242 C220 1.240 . S
O243 Mn217 2.117 . S
O243 C220 1.264 . S
C244 C237 1.403 . S
C244 C245 1.399 . S
C244 H250 0.929 . S
C245 C225 1.449 . S
C245 C244 1.399 . S
C245 H251 0.930 . S
H246 C226 0.931 . S
H247 C227 0.930 . S
H248 C235 0.931 . S
H249 C236 0.929 . S
H250 C244 0.929 . S
H251 C245 0.930 . S
Mn252 O257 2.095 . S
Mn252 O267 2.162 1_655 S
Mn252 O268 2.297 . S
Mn252 O276 2.385 . S
Mn252 O277 2.209 . S
Mn252 O278 2.094 . S
Mn253 O258 2.121 . S
Mn253 N260 2.257 . S
Mn253 N269 2.282 . S
Mn253 O277 2.215 . S
Mn253 O279 2.117 . S
C254 O276 1.234 . S
C254 O277 1.283 . S
C255 O267 1.281 1_655 S
C255 O268 1.236 . S
C256 O278 1.240 . S
C256 O279 1.264 . S
O257 Mn252 2.095 . S
O257 C266 1.250 . S
O258 Mn253 2.121 . S
O258 C266 1.258 . S
C259 N260 1.326 . S
C259 C263 1.460 . S
C259 H265 0.929 . S
N260 Mn253 2.257 . S
N260 C259 1.326 . S
N260 C264 1.362 . S
C261 C262 1.258 . S
C261 C264 1.431 . S
C261 C281 1.449 . S
C262 C261 1.258 . S
C262 C263 1.477 . S
C262 H282 0.931 . S
C263 C259 1.460 . S
C263 C262 1.477 . S
C263 H283 0.930 . S
C264 N260 1.362 . S
C264 C261 1.431 . S
C264 C274 1.476 . S
H265 C259 0.929 . S
C266 O257 1.250 . S
C266 O258 1.258 . S
O267 Mn252 2.162 1_455 S
O267 C255 1.281 1_455 S
O268 Mn252 2.297 . S
O268 C255 1.236 . S
N269 Mn253 2.282 . S
N269 C270 1.329 . S
N269 C274 1.318 . S
C270 N269 1.329 . S
C270 C271 1.456 1_565 S
C270 H275 0.928 1_565 S
C271 C270 1.456 1_545 S
C271 C272 1.291 . S
C271 H284 0.931 . S
C272 C271 1.291 . S
C272 C273 1.373 1_545 S
C272 H285 0.929 . S
C273 C272 1.373 1_565 S
C273 C274 1.396 . S
C273 C280 1.403 . S
C274 C264 1.476 . S
C274 N269 1.318 . S
C274 C273 1.396 . S
H275 C270 0.928 1_545 S
O276 Mn252 2.385 . S
O276 C254 1.234 . S
O277 Mn252 2.209 . S
O277 Mn253 2.215 . S
O277 C254 1.283 . S
O278 Mn252 2.094 . S
O278 C256 1.240 . S
O279 Mn253 2.117 . S
O279 C256 1.264 . S
C280 C273 1.403 . S
C280 C281 1.399 . S
C280 H286 0.929 . S
C281 C261 1.449 . S
C281 C280 1.399 . S
C281 H287 0.930 . S
H282 C262 0.931 . S
H283 C263 0.930 . S
H284 C271 0.931 . S
H285 C272 0.929 . S
H286 C280 0.929 . S
H287 C281 0.930 . S
Mn288 O293 2.095 . S
Mn288 O303 2.162 . S
Mn288 O304 2.297 . S
Mn288 O312 2.385 . S
Mn288 O313 2.209 . S
Mn288 O314 2.094 . S
Mn289 O294 2.121 . S
Mn289 N296 2.257 . S
Mn289 N305 2.282 . S
Mn289 O313 2.215 . S
Mn289 O315 2.117 . S
C290 O312 1.234 . S
C290 O313 1.283 . S
C291 O303 1.281 . S
C291 O304 1.236 . S
C292 O314 1.240 . S
C292 O315 1.264 . S
O293 Mn288 2.095 . S
O293 C302 1.250 . S
O294 Mn289 2.121 . S
O294 C302 1.258 . S
C295 N296 1.326 1_545 S
C295 C299 1.460 . S
C295 H301 0.929 . S
N296 Mn289 2.257 . S
N296 C295 1.326 1_565 S
N296 C300 1.362 . S
C297 C298 1.258 . S
C297 C300 1.431 1_545 S
C297 C317 1.449 . S
C298 C297 1.258 . S
C298 C299 1.477 . S
C298 H318 0.931 . S
C299 C295 1.460 . S
C299 C298 1.477 . S
C299 H319 0.930 . S
C300 N296 1.362 . S
C300 C297 1.431 1_565 S
C300 C310 1.476 . S
H301 C295 0.929 . S
C302 O293 1.250 . S
C302 O294 1.258 . S
O303 Mn288 2.162 . S
O303 C291 1.281 . S
O304 Mn288 2.297 . S
O304 C291 1.236 . S
N305 Mn289 2.282 . S
N305 C306 1.328 . S
N305 C310 1.318 . S
C306 N305 1.328 . S
C306 C307 1.457 . S
C306 H311 0.929 . S
C307 C306 1.457 . S
C307 C308 1.291 . S
C307 H320 0.931 . S
C308 C307 1.291 . S
C308 C309 1.373 . S
C308 H321 0.929 . S
C309 C308 1.373 . S
C309 C310 1.396 . S
C309 C316 1.403 1_565 S
C310 C300 1.476 . S
C310 N305 1.318 . S
C310 C309 1.396 . S
H311 C306 0.929 . S
O312 Mn288 2.385 . S
O312 C290 1.234 . S
O313 Mn288 2.209 . S
O313 Mn289 2.215 . S
O313 C290 1.283 . S
O314 Mn288 2.094 . S
O314 C292 1.240 . S
O315 Mn289 2.117 . S
O315 C292 1.264 . S
C316 C309 1.403 1_545 S
C316 C317 1.399 . S
C316 H322 0.929 . S
C317 C297 1.449 . S
C317 C316 1.399 . S
C317 H323 0.930 . S
H318 C298 0.931 . S
H319 C299 0.930 . S
H320 C307 0.931 . S
H321 C308 0.929 . S
H322 C316 0.929 . S
H323 C317 0.930 . S
Mn324 O329 2.095 . S
Mn324 O339 2.162 . S
Mn324 O340 2.297 . S
Mn324 O348 2.385 . S
Mn324 O349 2.209 . S
Mn324 O350 2.094 . S
Mn325 O330 2.121 . S
Mn325 N332 2.257 . S
Mn325 N341 2.282 . S
Mn325 O349 2.215 . S
Mn325 O351 2.117 . S
C326 O348 1.234 . S
C326 O349 1.283 . S
C327 O339 1.281 . S
C327 O340 1.236 . S
C328 O350 1.240 . S
C328 O351 1.264 . S
O329 Mn324 2.095 . S
O329 C338 1.250 . S
O330 Mn325 2.121 . S
O330 C338 1.258 . S
C331 N332 1.326 1_655 S
C331 C335 1.460 . S
C331 H337 0.929 . S
N332 Mn325 2.257 . S
N332 C331 1.326 1_455 S
N332 C336 1.362 . S
C333 C334 1.258 1_554 S
C333 C336 1.431 1_654 S
C333 C353 1.449 . S
C334 C333 1.258 1_556 S
C334 C335 1.477 . S
C334 H354 0.931 . S
C335 C331 1.460 . S
C335 C334 1.477 . S
C335 H355 0.930 . S
C336 N332 1.362 . S
C336 C333 1.431 1_456 S
C336 C346 1.476 1_556 S
H337 C331 0.929 . S
C338 O329 1.250 . S
C338 O330 1.258 . S
O339 Mn324 2.162 . S
O339 C327 1.281 . S
O340 Mn324 2.297 . S
O340 C327 1.236 . S
N341 Mn325 2.282 . S
N341 C342 1.329 1_556 S
N341 C346 1.318 1_556 S
C342 N341 1.329 1_554 S
C342 C343 1.456 1_545 S
C342 H347 0.930 1_545 S
C343 C342 1.456 1_565 S
C343 C344 1.291 . S
C343 H356 0.931 . S
C344 C343 1.291 . S
C344 C345 1.373 1_565 S
C344 H357 0.929 . S
C345 C344 1.373 1_545 S
C345 C346 1.396 . S
C345 C352 1.403 1_455 S
C346 C336 1.476 1_554 S
C346 N341 1.318 1_554 S
C346 C345 1.396 . S
H347 C342 0.930 1_565 S
O348 Mn324 2.385 . S
O348 C326 1.234 . S
O349 Mn324 2.209 . S
O349 Mn325 2.215 . S
O349 C326 1.283 . S
O350 Mn324 2.094 . S
O350 C328 1.240 . S
O351 Mn325 2.117 . S
O351 C328 1.264 . S
C352 C345 1.403 1_655 S
C352 C353 1.399 . S
C352 H358 0.929 . S
C353 C333 1.449 . S
C353 C352 1.399 . S
C353 H359 0.930 . S
H354 C334 0.931 . S
H355 C335 0.930 . S
H356 C343 0.931 . S
H357 C344 0.929 . S
H358 C352 0.929 . S
H359 C353 0.930 . S
Mn360 O365 2.095 . S
Mn360 O375 2.162 1_565 S
Mn360 O376 2.297 . S
Mn360 O384 2.385 . S
Mn360 O385 2.209 . S
Mn360 O386 2.094 . S
Mn361 O366 2.121 . S
Mn361 N368 2.257 . S
Mn361 N377 2.282 . S
Mn361 O385 2.215 . S
Mn361 O387 2.117 . S
C362 O384 1.234 . S
C362 O385 1.283 . S
C363 O375 1.281 1_565 S
C363 O376 1.236 . S
C364 O386 1.240 . S
C364 O387 1.264 . S
O365 Mn360 2.095 . S
O365 C374 1.250 . S
O366 Mn361 2.121 . S
O366 C374 1.258 . S
C367 N368 1.326 . S
C367 C371 1.460 . S
C367 H373 0.929 . S
N368 Mn361 2.257 . S
N368 C367 1.326 . S
N368 C372 1.362 . S
C369 C370 1.258 . S
C369 C372 1.431 . S
C369 C389 1.449 . S
C370 C369 1.258 . S
C370 C371 1.477 . S
C370 H390 0.931 . S
C371 C367 1.460 . S
C371 C370 1.477 . S
C371 H391 0.930 . S
C372 N368 1.362 . S
C372 C369 1.431 . S
C372 C382 1.476 . S
H373 C367 0.929 . S
C374 O365 1.250 . S
C374 O366 1.258 . S
O375 Mn360 2.162 1_545 S
O375 C363 1.281 1_545 S
O376 Mn360 2.297 . S
O376 C363 1.236 . S
N377 Mn361 2.282 . S
N377 C378 1.329 . S
N377 C382 1.318 . S
C378 N377 1.329 . S
C378 C379 1.456 1_655 S
C378 H383 0.928 1_655 S
C379 C378 1.456 1_455 S
C379 C380 1.291 . S
C379 H392 0.931 . S
C380 C379 1.291 . S
C380 C381 1.373 1_455 S
C380 H393 0.929 . S
C381 C380 1.373 1_655 S
C381 C382 1.396 . S
C381 C388 1.403 . S
C382 C372 1.476 . S
C382 N377 1.318 . S
C382 C381 1.396 . S
H383 C378 0.928 1_455 S
O384 Mn360 2.385 . S
O384 C362 1.234 . S
O385 Mn360 2.209 . S
O385 Mn361 2.215 . S
O385 C362 1.283 . S
O386 Mn360 2.094 . S
O386 C364 1.240 . S
O387 Mn361 2.117 . S
O387 C364 1.264 . S
C388 C381 1.403 . S
C388 C389 1.399 . S
C388 H394 0.929 . S
C389 C369 1.449 . S
C389 C388 1.399 . S
C389 H395 0.930 . S
H390 C370 0.931 . S
H391 C371 0.930 . S
H392 C379 0.931 . S
H393 C380 0.929 . S
H394 C388 0.929 . S
H395 C389 0.930 . S
Mn396 O401 2.095 . S
Mn396 O411 2.162 1_455 S
Mn396 O412 2.297 . S
Mn396 O420 2.385 . S
Mn396 O421 2.209 . S
Mn396 O422 2.094 . S
Mn397 O402 2.121 . S
Mn397 N404 2.257 . S
Mn397 N413 2.282 . S
Mn397 O421 2.215 . S
Mn397 O423 2.117 . S
C398 O420 1.234 . S
C398 O421 1.283 . S
C399 O411 1.281 1_455 S
C399 O412 1.236 . S
C400 O422 1.240 . S
C400 O423 1.264 . S
O401 Mn396 2.095 . S
O401 C410 1.250 . S
O402 Mn397 2.121 . S
O402 C410 1.258 . S
C403 N404 1.326 . S
C403 C407 1.460 . S
C403 H409 0.929 . S
N404 Mn397 2.257 . S
N404 C403 1.326 . S
N404 C408 1.362 . S
C405 C406 1.258 . S
C405 C408 1.431 . S
C405 C425 1.449 . S
C406 C405 1.258 . S
C406 C407 1.477 . S
C406 H426 0.931 . S
C407 C403 1.460 . S
C407 C406 1.477 . S
C407 H427 0.930 . S
C408 N404 1.362 . S
C408 C405 1.431 . S
C408 C418 1.476 . S
H409 C403 0.929 . S
C410 O401 1.250 . S
C410 O402 1.258 . S
O411 Mn396 2.162 1_655 S
O411 C399 1.281 1_655 S
O412 Mn396 2.297 . S
O412 C399 1.236 . S
N413 Mn397 2.282 . S
N413 C414 1.328 . S
N413 C418 1.318 . S
C414 N413 1.328 . S
C414 C415 1.457 . S
C414 H419 0.929 . S
C415 C414 1.457 . S
C415 C416 1.291 . S
C415 H428 0.931 . S
C416 C415 1.291 . S
C416 C417 1.373 . S
C416 H429 0.929 . S
C417 C416 1.373 . S
C417 C418 1.396 . S
C417 C424 1.403 . S
C418 C408 1.476 . S
C418 N413 1.318 . S
C418 C417 1.396 . S
H419 C414 0.929 . S
O420 Mn396 2.385 . S
O420 C398 1.234 . S
O421 Mn396 2.209 . S
O421 Mn397 2.215 . S
O421 C398 1.283 . S
O422 Mn396 2.094 . S
O422 C400 1.240 . S
O423 Mn397 2.117 . S
O423 C400 1.264 . S
C424 C417 1.403 . S
C424 C425 1.399 . S
C424 H430 0.929 . S
C425 C405 1.449 . S
C425 C424 1.399 . S
C425 H431 0.930 . S
H426 C406 0.931 . S
H427 C407 0.930 . S
H428 C415 0.931 . S
H429 C416 0.929 . S
H430 C424 0.929 . S
H431 C425 0.930 . S
Mn432 O437 2.095 . S
Mn432 O447 2.162 1_565 S
Mn432 O448 2.297 . S
Mn432 O456 2.385 . S
Mn432 O457 2.209 . S
Mn432 O458 2.094 . S
Mn433 O438 2.121 . S
Mn433 N440 2.257 . S
Mn433 N449 2.282 . S
Mn433 O457 2.215 . S
Mn433 O459 2.117 . S
C434 O456 1.234 . S
C434 O457 1.283 . S
C435 O447 1.281 1_565 S
C435 O448 1.236 . S
C436 O458 1.240 . S
C436 O459 1.264 . S
O437 Mn432 2.095 . S
O437 C446 1.250 . S
O438 Mn433 2.121 . S
O438 C446 1.258 . S
C439 N440 1.326 . S
C439 C443 1.460 . S
C439 H445 0.929 . S
N440 Mn433 2.257 . S
N440 C439 1.326 . S
N440 C444 1.362 . S
C441 C442 1.258 . S
C441 C444 1.431 . S
C441 C461 1.449 . S
C442 C441 1.258 . S
C442 C443 1.477 . S
C442 H462 0.931 . S
C443 C439 1.460 . S
C443 C442 1.477 . S
C443 H463 0.930 . S
C444 N440 1.362 . S
C444 C441 1.431 . S
C444 C454 1.476 . S
H445 C439 0.929 . S
C446 O437 1.250 . S
C446 O438 1.258 . S
O447 Mn432 2.162 1_545 S
O447 C435 1.281 1_545 S
O448 Mn432 2.297 . S
O448 C435 1.236 . S
N449 Mn433 2.282 . S
N449 C450 1.328 . S
N449 C454 1.318 . S
C450 N449 1.328 . S
C450 C451 1.457 . S
C450 H455 0.929 . S
C451 C450 1.457 . S
C451 C452 1.291 . S
C451 H464 0.931 . S
C452 C451 1.291 . S
C452 C453 1.373 . S
C452 H465 0.929 . S
C453 C452 1.373 . S
C453 C454 1.396 . S
C453 C460 1.403 . S
C454 C444 1.476 . S
C454 N449 1.318 . S
C454 C453 1.396 . S
H455 C450 0.929 . S
O456 Mn432 2.385 . S
O456 C434 1.234 . S
O457 Mn432 2.209 . S
O457 Mn433 2.215 . S
O457 C434 1.283 . S
O458 Mn432 2.094 . S
O458 C436 1.240 . S
O459 Mn433 2.117 . S
O459 C436 1.264 . S
C460 C453 1.403 . S
C460 C461 1.399 . S
C460 H466 0.929 . S
C461 C441 1.449 . S
C461 C460 1.399 . S
C461 H467 0.930 . S
H462 C442 0.931 . S
H463 C443 0.930 . S
H464 C451 0.931 . S
H465 C452 0.929 . S
H466 C460 0.929 . S
H467 C461 0.930 . S
Mn468 O473 2.095 . S
Mn468 O483 2.162 1_455 S
Mn468 O484 2.297 . S
Mn468 O492 2.385 . S
Mn468 O493 2.209 . S
Mn468 O494 2.094 . S
Mn469 O474 2.121 . S
Mn469 N476 2.257 . S
Mn469 N485 2.282 . S
Mn469 O493 2.215 . S
Mn469 O495 2.117 . S
C470 O492 1.234 . S
C470 O493 1.283 . S
C471 O483 1.281 1_455 S
C471 O484 1.236 . S
C472 O494 1.240 . S
C472 O495 1.264 . S
O473 Mn468 2.095 . S
O473 C482 1.250 . S
O474 Mn469 2.121 . S
O474 C482 1.258 . S
C475 N476 1.326 . S
C475 C479 1.460 . S
C475 H481 0.929 . S
N476 Mn469 2.257 . S
N476 C475 1.326 . S
N476 C480 1.362 . S
C477 C478 1.258 . S
C477 C480 1.431 . S
C477 C497 1.449 . S
C478 C477 1.258 . S
C478 C479 1.477 . S
C478 H498 0.931 . S
C479 C475 1.460 . S
C479 C478 1.477 . S
C479 H499 0.930 . S
C480 N476 1.362 . S
C480 C477 1.431 . S
C480 C490 1.476 . S
H481 C475 0.929 . S
C482 O473 1.250 . S
C482 O474 1.258 . S
O483 Mn468 2.162 1_655 S
O483 C471 1.281 1_655 S
O484 Mn468 2.297 . S
O484 C471 1.236 . S
N485 Mn469 2.282 . S
N485 C486 1.329 . S
N485 C490 1.318 . S
C486 N485 1.329 . S
C486 C487 1.456 1_545 S
C486 H491 0.928 1_545 S
C487 C486 1.456 1_565 S
C487 C488 1.291 . S
C487 H500 0.931 . S
C488 C487 1.291 . S
C488 C489 1.373 1_565 S
C488 H501 0.929 . S
C489 C488 1.373 1_545 S
C489 C490 1.396 . S
C489 C496 1.403 . S
C490 C480 1.476 . S
C490 N485 1.318 . S
C490 C489 1.396 . S
H491 C486 0.928 1_565 S
O492 Mn468 2.385 . S
O492 C470 1.234 . S
O493 Mn468 2.209 . S
O493 Mn469 2.215 . S
O493 C470 1.283 . S
O494 Mn468 2.094 . S
O494 C472 1.240 . S
O495 Mn469 2.117 . S
O495 C472 1.264 . S
C496 C489 1.403 . S
C496 C497 1.399 . S
C496 H502 0.929 . S
C497 C477 1.449 . S
C497 C496 1.399 . S
C497 H503 0.930 . S
H498 C478 0.931 . S
H499 C479 0.930 . S
H500 C487 0.931 . S
H501 C488 0.929 . S
H502 C496 0.929 . S
H503 C497 0.930 . S
Mn504 O509 2.095 . S
Mn504 O519 2.162 . S
Mn504 O520 2.297 . S
Mn504 O528 2.385 . S
Mn504 O529 2.209 . S
Mn504 O530 2.094 . S
Mn505 O510 2.121 . S
Mn505 N512 2.257 . S
Mn505 N521 2.282 . S
Mn505 O529 2.215 . S
Mn505 O531 2.117 . S
C506 O528 1.234 . S
C506 O529 1.283 . S
C507 O519 1.281 . S
C507 O520 1.236 . S
C508 O530 1.240 . S
C508 O531 1.264 . S
O509 Mn504 2.095 . S
O509 C518 1.250 . S
O510 Mn505 2.121 . S
O510 C518 1.258 . S
C511 N512 1.326 1_545 S
C511 C515 1.460 . S
C511 H517 0.929 . S
N512 Mn505 2.257 . S
N512 C511 1.326 1_565 S
N512 C516 1.362 . S
C513 C514 1.258 1_556 S
C513 C516 1.431 1_546 S
C513 C533 1.449 . S
C514 C513 1.258 1_554 S
C514 C515 1.477 . S
C514 H534 0.931 . S
C515 C511 1.460 . S
C515 C514 1.477 . S
C515 H535 0.930 . S
C516 N512 1.362 . S
C516 C513 1.431 1_564 S
C516 C526 1.476 1_554 S
H517 C511 0.929 . S
C518 O509 1.250 . S
C518 O510 1.258 . S
O519 Mn504 2.162 . S
O519 C507 1.281 . S
O520 Mn504 2.297 . S
O520 C507 1.236 . S
N521 Mn505 2.282 . S
N521 C522 1.329 1_554 S
N521 C526 1.318 1_554 S
C522 N521 1.329 1_556 S
C522 C523 1.456 1_655 S
C522 H527 0.930 1_655 S
C523 C522 1.456 1_455 S
C523 C524 1.291 . S
C523 H536 0.931 . S
C524 C523 1.291 . S
C524 C525 1.373 1_455 S
C524 H537 0.929 . S
C525 C524 1.373 1_655 S
C525 C526 1.396 . S
C525 C532 1.403 1_565 S
C526 C516 1.476 1_556 S
C526 N521 1.318 1_556 S
C526 C525 1.396 . S
H527 C522 0.930 1_455 S
O528 Mn504 2.385 . S
O528 C506 1.234 . S
O529 Mn504 2.209 . S
O529 Mn505 2.215 . S
O529 C506 1.283 . S
O530 Mn504 2.094 . S
O530 C508 1.240 . S
O531 Mn505 2.117 . S
O531 C508 1.264 . S
C532 C525 1.403 1_545 S
C532 C533 1.399 . S
C532 H538 0.929 . S
C533 C513 1.449 . S
C533 C532 1.399 . S
C533 H539 0.930 . S
H534 C514 0.931 . S
H535 C515 0.930 . S
H536 C523 0.931 . S
H537 C524 0.929 . S
H538 C532 0.929 . S
H539 C533 0.930 . S
Mn540 O545 2.095 . S
Mn540 O555 2.162 . S
Mn540 O556 2.297 . S
Mn540 O564 2.385 . S
Mn540 O565 2.209 . S
Mn540 O566 2.094 . S
Mn541 O546 2.121 . S
Mn541 N548 2.257 . S
Mn541 N557 2.282 . S
Mn541 O565 2.215 . S
Mn541 O567 2.117 . S
C542 O564 1.234 . S
C542 O565 1.283 . S
C543 O555 1.281 . S
C543 O556 1.236 . S
C544 O566 1.240 . S
C544 O567 1.264 . S
O545 Mn540 2.095 . S
O545 C554 1.250 . S
O546 Mn541 2.121 . S
O546 C554 1.258 . S
C547 N548 1.326 1_655 S
C547 C551 1.460 . S
C547 H553 0.929 . S
N548 Mn541 2.257 . S
N548 C547 1.326 1_455 S
N548 C552 1.362 . S
C549 C550 1.258 . S
C549 C552 1.431 1_655 S
C549 C569 1.449 . S
C550 C549 1.258 . S
C550 C551 1.477 . S
C550 H570 0.931 . S
C551 C547 1.460 . S
C551 C550 1.477 . S
C551 H571 0.930 . S
C552 N548 1.362 . S
C552 C549 1.431 1_455 S
C552 C562 1.476 . S
H553 C547 0.929 . S
C554 O545 1.250 . S
C554 O546 1.258 . S
O555 Mn540 2.162 . S
O555 C543 1.281 . S
O556 Mn540 2.297 . S
O556 C543 1.236 . S
N557 Mn541 2.282 . S
N557 C558 1.328 . S
N557 C562 1.318 . S
C558 N557 1.328 . S
C558 C559 1.457 . S
C558 H563 0.929 . S
C559 C558 1.457 . S
C559 C560 1.291 . S
C559 H572 0.931 . S
C560 C559 1.291 . S
C560 C561 1.373 . S
C560 H573 0.929 . S
C561 C560 1.373 . S
C561 C562 1.396 . S
C561 C568 1.403 1_455 S
C562 C552 1.476 . S
C562 N557 1.318 . S
C562 C561 1.396 . S
H563 C558 0.929 . S
O564 Mn540 2.385 . S
O564 C542 1.234 . S
O565 Mn540 2.209 . S
O565 Mn541 2.215 . S
O565 C542 1.283 . S
O566 Mn540 2.094 . S
O566 C544 1.240 . S
O567 Mn541 2.117 . S
O567 C544 1.264 . S
C568 C561 1.403 1_655 S
C568 C569 1.399 . S
C568 H574 0.929 . S
C569 C549 1.449 . S
C569 C568 1.399 . S
C569 H575 0.930 . S
H570 C550 0.931 . S
H571 C551 0.930 . S
H572 C559 0.931 . S
H573 C560 0.929 . S
H574 C568 0.929 . S
H575 C569 0.930 . S
C158 C14 1.488 . S
C50 C194 1.488 . S
C230 C86 1.488 . S
C266 C122 1.488 . S
C446 C302 1.488 . S
C338 C482 1.488 . S
C518 C374 1.488 . S
C410 C554 1.488 . S
C2 C542 1.378 . S
C38 C434 1.378 . S
C74 C470 1.378 . S
C506 C110 1.378 1_554 S
C146 C326 1.378 1_554 S
C182 C362 1.378 . S
C398 C218 1.378 . S
C290 C254 1.378 . S
C4 C364 1.761 1_445 S
C400 C40 1.761 1_455 S
C76 C292 1.761 . S
C328 C112 1.761 1_545 S
C148 C508 1.761 1_455 S
C184 C544 1.761 . S
C436 C220 1.761 1_565 S
C472 C256 1.761 1_445 S
C363 C3 1.415 1_565 S
C39 C399 1.415 1_665 S
C75 C291 1.415 1_455 S
C327 C111 1.415 . S
C507 C147 1.415 . S
C543 C183 1.415 1_545 S
C435 C219 1.415 1_665 S
C255 C471 1.415 1_655 S
