# Generated by pormake.
# Topology umf, (4)-cn, num edge types: 1
# Building blocks:
#     Node 0, Type 0, BuildingBlock: CEKHIL_clean_sbu_0, # of connection points: 4
#     Node 1, Type 0, BuildingBlock: CEKHIL_clean_sbu_0, # of connection points: 4
#     Node 2, Type 0, BuildingBlock: CEKHIL_clean_sbu_0, # of connection points: 4
#     Node 3, Type 0, BuildingBlock: CEKHIL_clean_sbu_0, # of connection points: 4
#     Node 4, Type 0, BuildingBlock: CEKHIL_clean_sbu_0, # of connection points: 4
#     Node 5, Type 0, BuildingBlock: CEKHIL_clean_sbu_0, # of connection points: 4
#     Node 6, Type 0, BuildingBlock: CEKHIL_clean_sbu_0, # of connection points: 4
#     Node 7, Type 0, BuildingBlock: CEKHIL_clean_sbu_0, # of connection points: 4
#     Edge 8, Type (0, 0), BuildingBlock: TEMPAE_clean_linker_10, # of connection points: 2
#     Edge 9, Type (0, 0), BuildingBlock: TEMPAE_clean_linker_10, # of connection points: 2
#     Edge 10, Type (0, 0), BuildingBlock: TEMPAE_clean_linker_10, # of connection points: 2
#     Edge 11, Type (0, 0), BuildingBlock: TEMPAE_clean_linker_10, # of connection points: 2
#     Edge 12, Type (0, 0), BuildingBlock: TEMPAE_clean_linker_10, # of connection points: 2
#     Edge 13, Type (0, 0), BuildingBlock: TEMPAE_clean_linker_10, # of connection points: 2
#     Edge 14, Type (0, 0), BuildingBlock: TEMPAE_clean_linker_10, # of connection points: 2
#     Edge 15, Type (0, 0), BuildingBlock: TEMPAE_clean_linker_10, # of connection points: 2
#     Edge 16, Type (0, 0), BuildingBlock: TEMPAE_clean_linker_10, # of connection points: 2
#     Edge 17, Type (0, 0), BuildingBlock: TEMPAE_clean_linker_10, # of connection points: 2
#     Edge 18, Type (0, 0), BuildingBlock: TEMPAE_clean_linker_10, # of connection points: 2
#     Edge 19, Type (0, 0), BuildingBlock: TEMPAE_clean_linker_10, # of connection points: 2
#     Edge 20, Type (0, 0), BuildingBlock: TEMPAE_clean_linker_10, # of connection points: 2
#     Edge 21, Type (0, 0), BuildingBlock: TEMPAE_clean_linker_10, # of connection points: 2
#     Edge 22, Type (0, 0), BuildingBlock: TEMPAE_clean_linker_10, # of connection points: 2
#     Edge 23, Type (0, 0), BuildingBlock: TEMPAE_clean_linker_10, # of connection points: 2
# Relax obj value: 0.165
# Max RMSD: 0.289
# Mean RMSD: 0.281
data_MOF--net-umf--node1-CEKHIL_clean_sbu_0--edge1-TEMPAE_clean_linker_10
_symmetry_space_group_name_H-M    P1
_symmetry_Int_Tables_number       1
_symmetry_cell_setting            triclinic
loop_
_symmetry_equiv_pos_as_xyz
'x, y, z'
_cell_length_a     28.257921
_cell_length_b     26.861827
_cell_length_c     53.089026
_cell_angle_alpha  90.005103
_cell_angle_beta   89.975608
_cell_angle_gamma 89.965557
loop_
_atom_site_label
_atom_site_type_symbol
_atom_site_fract_x
_atom_site_fract_y
_atom_site_fract_z
_atom_type_partial_charge
Co0 Co 0.04935 0.24574 0.15016 0.0
O1 O 0.0712 0.26632 0.18258 0.0
O2 O 0.1068 0.20955 0.15894 0.0
C3 C 0.03418 0.32187 0.13559 0.0
O4 O 0.03572 0.21855 0.1147 0.0
Co5 Co 0.94387 0.26454 0.13855 0.0
O6 O 0.96426 0.2494 0.10371 0.0
C7 C 0.96865 0.18074 0.17058 0.0
C8 C 0.10501 0.23429 0.18009 0.0
C9 C 0.00264 0.22687 0.09841 0.0
O10 O 0.01209 0.19128 0.16639 0.0
O11 O 0.93421 0.20632 0.16183 0.0
O12 O 0.07689 0.30398 0.13456 0.0
O13 O 0.00356 0.29568 0.14802 0.0
Co14 Co 0.73116 0.08398 0.64066 0.0
O15 O 0.66601 0.10151 0.63912 0.0
O16 O 0.69265 0.02404 0.64208 0.0
C17 C 0.75009 0.13974 0.67034 0.0
O18 O 0.79773 0.05459 0.64387 0.0
Co19 Co 0.80047 0.16199 0.62162 0.0
O20 O 0.84794 0.11852 0.63756 0.0
C21 C 0.7563 0.09687 0.58445 0.0
C22 C 0.6568 0.05462 0.64121 0.0
C23 C 0.83969 0.07353 0.64363 0.0
O24 O 0.73382 0.07713 0.60291 0.0
O25 O 0.7845 0.13363 0.58746 0.0
O26 O 0.73195 0.09711 0.67616 0.0
O27 O 0.75073 0.15087 0.64647 0.0
Co28 Co 0.94362 0.74954 0.14466 0.0
O29 O 0.9231 0.7257 0.17676 0.0
O30 O 0.87997 0.77367 0.15175 0.0
C31 C 0.97334 0.67759 0.1311 0.0
O32 O 0.95486 0.77782 0.10921 0.0
Co33 Co 0.05119 0.75182 0.13487 0.0
O34 O 0.0294 0.7547 0.09945 0.0
C35 C 0.00961 0.83017 0.16568 0.0
C36 C 0.88424 0.75003 0.17312 0.0
C37 C 0.9887 0.77088 0.09321 0.0
O38 O 0.96907 0.81098 0.1611 0.0
O39 O 0.04845 0.81162 0.15761 0.0
O40 O 0.92831 0.68664 0.12912 0.0
O41 O -0.00217 0.70951 0.14393 0.0
Co42 Co 0.25339 0.90269 0.64774 0.0
O43 O 0.32064 0.89985 0.64767 0.0
O44 O 0.27861 0.96946 0.65154 0.0
C45 C 0.24291 0.84045 0.67497 0.0
O46 O 0.18243 0.91702 0.64984 0.0
Co47 Co 0.20125 0.81537 0.62428 0.0
O48 O 0.1457 0.84475 0.64129 0.0
C49 C 0.23863 0.891 0.59039 0.0
C50 C 0.31976 0.94759 0.65058 0.0
C51 C 0.1449 0.88976 0.64878 0.0
O52 O 0.25305 0.91332 0.61027 0.0
O53 O 0.21791 0.8487 0.5913 0.0
O54 O 0.25216 0.88507 0.6827 0.0
O55 O 0.24631 0.83259 0.65083 0.0
Co56 Co 0.06643 0.74324 0.86052 0.0
O57 O 0.09619 0.71703 0.83123 0.0
O58 O 0.13176 0.76658 0.85867 0.0
C59 C 0.03226 0.67256 0.87261 0.0
O60 O 0.04352 0.77387 0.89376 0.0
Co61 Co 0.95759 0.7464 0.85777 0.0
O62 O 0.96489 0.75973 0.89434 0.0
C63 C 0.01028 0.82173 0.83068 0.0
C64 C 0.13366 0.74132 0.83766 0.0
C65 C 0.00304 0.7735 0.90516 0.0
O66 O 0.04734 0.80418 0.84133 0.0
O67 O 0.96958 0.80139 0.83279 0.0
O68 O 0.07614 0.68146 0.87835 0.0
O69 O 0.01287 0.70325 0.85686 0.0
Co70 Co 0.27785 0.0822 0.37358 0.0
O71 O 0.33924 0.11097 0.37738 0.0
O72 O 0.32503 0.03001 0.37421 0.0
C73 C 0.25309 0.13313 0.34278 0.0
O74 O 0.21818 0.04072 0.36848 0.0
Co75 Co 0.19275 0.14673 0.389 0.0
O76 O 0.15664 0.09385 0.37183 0.0
C77 C 0.2423 0.09058 0.42834 0.0
C78 C 0.35567 0.06604 0.3762 0.0
C79 C 0.17386 0.0513 0.36667 0.0
O80 O 0.27081 0.07548 0.41114 0.0
O81 O 0.20881 0.12145 0.42382 0.0
O82 O 0.27974 0.09514 0.33791 0.0
O83 O 0.24714 0.14347 0.36652 0.0
Co84 Co 0.91601 0.24695 0.86479 0.0
O85 O 0.89077 0.27016 0.8337 0.0
O86 O 0.85381 0.21731 0.85893 0.0
C87 C 0.94094 0.32118 0.87818 0.0
O88 O 0.93432 0.21854 0.89934 0.0
Co89 Co 0.02456 0.25448 0.86824 0.0
O90 O 0.01243 0.23445 0.90363 0.0
C91 C 0.98454 0.17566 0.83793 0.0
C92 C 0.85451 0.24216 0.83777 0.0
C93 C 0.97306 0.21879 0.91234 0.0
O94 O 0.94441 0.18839 0.84709 0.0
O95 O 0.02241 0.20041 0.84195 0.0
O96 O 0.89721 0.30776 0.88153 0.0
O97 O 0.96612 0.29197 0.86411 0.0
Co98 Co 0.75411 0.91728 0.36421 0.0
O99 O 0.68683 0.92073 0.36295 0.0
O100 O 0.73488 0.98628 0.36142 0.0
C101 C 0.76271 0.85599 0.33617 0.0
O102 O 0.82585 0.92563 0.36377 0.0
Co103 Co 0.79842 0.82425 0.38725 0.0
O104 O 0.85639 0.84964 0.37084 0.0
C105 C 0.76306 0.9002 0.42162 0.0
C106 C 0.69202 0.96849 0.3614 0.0
C107 C 0.86095 0.89491 0.36416 0.0
O108 O 0.75227 0.92511 0.40187 0.0
O109 O 0.78102 0.85652 0.42041 0.0
O110 O 0.75669 0.90158 0.32891 0.0
O111 O 0.75694 0.84723 0.3601 0.0
C112 C 0.98803 0.4 0.13843 0.0
C113 C 0.02399 0.37254 0.12688 0.0
C114 C 0.98343 0.45101 0.13382 0.0
C115 C 0.01476 0.47451 0.11669 0.0
C116 C 0.0486 0.44601 0.10339 0.0
C117 C 0.05334 0.39525 0.10896 0.0
C118 C 0.94695 0.48025 0.14851 0.0
C119 C 0.08133 0.46934 0.08427 0.0
C120 C 0.96955 0.60321 0.10362 0.0
C121 C 0.99293 0.63002 0.12251 0.0
C122 C 0.98033 0.55308 0.09931 0.0
C123 C 0.01423 0.52942 0.11479 0.0
C124 C 0.04135 0.55781 0.13203 0.0
C125 C 0.03062 0.60823 0.13551 0.0
C126 C 0.95237 0.52451 0.07989 0.0
C127 C 0.07809 0.53388 0.14876 0.0
H128 H 0.96536 0.38233 0.15227 0.0
H129 H 0.08082 0.37365 0.09979 0.0
H130 H 0.96491 0.50814 0.16061 0.0
H131 H 0.92339 0.50083 0.13545 0.0
H132 H 0.92475 0.45605 0.16069 0.0
H133 H 0.09668 0.44098 0.0714 0.0
H134 H 0.0626 0.49782 0.07287 0.0
H135 H 0.11089 0.48814 0.09418 0.0
H136 H 0.94107 0.62065 0.09314 0.0
H137 H 0.04895 0.62926 0.14995 0.0
H138 H 0.92384 0.50324 0.0894 0.0
H139 H 0.97525 0.49741 0.06985 0.0
H140 H 0.93577 0.54977 0.06587 0.0
H141 H 0.06017 0.51006 0.16294 0.0
H142 H 0.09983 0.56195 0.15887 0.0
H143 H 0.10194 0.50965 0.1376 0.0
C144 C 0.37938 0.00577 0.63331 0.0
C145 C 0.36465 0.97403 0.65262 0.0
C146 C 0.42699 0.02032 0.63156 0.0
C147 C 0.45981 0.00307 0.64979 0.0
C148 C 0.44416 0.97328 0.6701 0.0
C149 C 0.39676 0.95854 0.67106 0.0
C150 C 0.44263 0.05178 0.60953 0.0
C151 C 0.47782 0.95523 0.69024 0.0
C152 C 0.59066 0.99447 0.63379 0.0
C153 C 0.60737 0.03893 0.64413 0.0
C154 C 0.54227 0.98263 0.63506 0.0
C155 C 0.51069 0.01552 0.64755 0.0
C156 C 0.52791 0.05974 0.65859 0.0
C157 C 0.57596 0.07116 0.65649 0.0
C158 C 0.52479 0.93542 0.62278 0.0
C159 C 0.49565 0.09492 0.67271 0.0
H160 H 0.35447 0.01641 0.61873 0.0
H161 H 0.38506 0.93321 0.68571 0.0
H162 H 0.4614 0.08548 0.61628 0.0
H163 H 0.46794 0.03038 0.59776 0.0
H164 H 0.41242 0.06356 0.59753 0.0
H165 H 0.45917 0.9356 0.70576 0.0
H166 H 0.50404 0.92934 0.68185 0.0
H167 H 0.49776 0.98701 0.69831 0.0
H168 H 0.61505 0.96991 0.62406 0.0
H169 H 0.58912 0.10543 0.6647 0.0
H170 H 0.49684 0.94438 0.60881 0.0
H171 H 0.50867 0.91069 0.63714 0.0
H172 H 0.55361 0.91475 0.61311 0.0
H173 H 0.46738 0.10876 0.66003 0.0
H174 H 0.51497 0.12744 0.68055 0.0
H175 H 0.47807 0.07496 0.68844 0.0
C176 C 0.99726 0.39167 0.87426 0.0
C177 C 0.95666 0.37135 0.88524 0.0
C178 C 0.00725 0.44243 0.87673 0.0
C179 C 0.97613 0.47308 0.8908 0.0
C180 C 0.93733 0.45188 0.9037 0.0
C181 C 0.92787 0.4011 0.90064 0.0
C182 C 0.04929 0.46381 0.86287 0.0
C183 C 0.90418 0.48323 0.9194 0.0
C184 C 0.02757 0.60047 0.90151 0.0
C185 C 0.00966 0.6261 0.88059 0.0
C186 C 0.01372 0.55148 0.90649 0.0
C187 C 0.98205 0.52769 0.88981 0.0
C188 C 0.96085 0.55487 0.86991 0.0
C189 C 0.97469 0.6042 0.86566 0.0
C190 C 0.03577 0.52415 0.92839 0.0
C191 C 0.92669 0.53064 0.8518 0.0
H192 H 0.01971 0.3686 0.86249 0.0
H193 H 0.89673 0.38519 0.90945 0.0
H194 H 0.03679 0.48939 0.84786 0.0
H195 H 0.07167 0.48583 0.87591 0.0
H196 H 0.07153 0.43446 0.85406 0.0
H197 H 0.88138 0.46001 0.93176 0.0
H198 H 0.92424 0.50984 0.93128 0.0
H199 H 0.88096 0.50534 0.9068 0.0
H200 H 0.05408 0.61794 0.91333 0.0
H201 H 0.96073 0.62425 0.84956 0.0
H202 H 0.0638 0.49881 0.92132 0.0
H203 H 0.00909 0.50101 0.93828 0.0
H204 H 0.05202 0.55019 0.94216 0.0
H205 H 0.94582 0.50267 0.84025 0.0
H206 H 0.90995 0.5581 0.83893 0.0
H207 H 0.89844 0.51076 0.86223 0.0
C208 C 0.42622 0.01071 0.38081 0.0
C209 C 0.40709 0.05752 0.37541 0.0
C210 C 0.47516 0.00253 0.37906 0.0
C211 C 0.50516 0.04182 0.37111 0.0
C212 C 0.48597 0.08925 0.36588 0.0
C213 C 0.43717 0.09667 0.36836 0.0
C214 C 0.49465 0.95164 0.38527 0.0
C215 C 0.51672 0.13163 0.35685 0.0
C216 C 0.63596 0.02339 0.38357 0.0
C217 C 0.64988 -0.00019 0.3613 0.0
C218 C 0.58911 0.03948 0.38674 0.0
C219 C 0.5562 0.03228 0.36695 0.0
C220 C 0.57142 0.01209 0.34368 0.0
C221 C 0.61808 0.99528 0.3413 0.0
C222 C 0.57402 0.0602 0.41193 0.0
C223 C 0.53767 0.005 0.32193 0.0
H224 H 0.40299 0.98057 0.3864 0.0
H225 H 0.42239 0.1329 0.36399 0.0
H226 H 0.5098 0.93442 0.36807 0.0
H227 H 0.52368 0.95491 0.39925 0.0
H228 H 0.46712 0.92633 0.39296 0.0
H229 H 0.4965 0.16682 0.35458 0.0
H230 H 0.54612 0.13818 0.37028 0.0
H231 H 0.53287 0.12177 0.33846 0.0
H232 H 0.6606 0.0256 0.39917 0.0
H233 H 0.62905 0.97609 0.32429 0.0
H234 H 0.552 0.0322 0.42187 0.0
H235 H 0.55208 0.09408 0.40947 0.0
H236 H 0.60481 0.06948 0.42405 0.0
H237 H 0.51209 0.97503 0.32653 0.0
H238 H 0.5564 0.9947 0.30427 0.0
H239 H 0.51705 0.03952 0.31854 0.0
C240 C 0.01363 0.18085 0.94925 0.0
C241 C 0.97313 0.20373 0.93919 0.0
C242 C 0.02005 0.17623 0.97536 0.0
C243 C 0.98548 0.19572 0.99193 0.0
C244 C 0.94307 0.21599 0.98187 0.0
C245 C 0.93723 0.21942 0.95556 0.0
C246 C 0.06529 0.15345 0.98517 0.0
C247 C 0.90536 0.23732 0.99887 0.0
C248 C 0.98766 0.16946 0.06256 0.0
C249 C 0.0088 0.2129 0.07182 0.0
C250 C 0.98153 0.1622 0.0365 0.0
C251 C 0.99592 0.19989 0.01945 0.0
C252 C 0.01901 0.24296 0.02881 0.0
C253 C 0.02514 0.2489 0.0549 0.0
C254 C 0.95747 0.11547 0.02733 0.0
C255 C 0.03491 0.28414 0.01139 0.0
H256 H 0.04143 0.16845 0.93663 0.0
H257 H 0.90615 0.2376 0.94789 0.0
H258 H 0.08809 0.18311 0.99317 0.0
H259 H 0.05763 0.12659 1.00051 0.0
H260 H 0.08542 0.134 0.97011 0.0
H261 H 0.87267 0.24717 0.98837 0.0
H262 H 0.89614 0.21041 0.01393 0.0
H263 H 0.91906 0.27139 0.00817 0.0
H264 H 0.97385 0.14231 0.07577 0.0
H265 H 0.04022 0.28312 0.06219 0.0
H266 H 0.97775 0.0986 0.01159 0.0
H267 H 0.92179 0.12484 0.02002 0.0
H268 H 0.95352 0.08739 0.04255 0.0
H269 H 0.0585 0.26901 0.99654 0.0
H270 H 0.05399 0.3142 0.02155 0.0
H271 H 0.0037 0.30064 1.00183 0.0
C272 C 0.71823 0.03473 0.55554 0.0
C273 C 0.75245 0.07197 0.55941 0.0
C274 C 0.7177 0.00584 0.53347 0.0
C275 C 0.75226 0.0141 0.51464 0.0
C276 C 0.78606 0.05254 0.51801 0.0
C277 C 0.78571 0.08107 0.5403 0.0
C278 C 0.68071 0.96569 0.53057 0.0
C279 C 0.82336 0.06277 0.49832 0.0
C280 C 0.78124 0.90998 0.46795 0.0
C281 C 0.75685 0.92572 0.44635 0.0
C282 C 0.77965 0.93803 0.4904 0.0
C283 C 0.75286 0.98272 0.49134 0.0
C284 C 0.72694 -0.00222 0.46986 0.0
C285 C 0.72924 0.96922 0.44775 0.0
C286 C 0.80764 0.92056 0.51294 0.0
C287 C 0.69748 0.04472 0.47003 0.0
H288 H 0.69221 0.02729 0.57008 0.0
H289 H 0.8125 0.10936 0.54308 0.0
H290 H 0.66046 0.97143 0.51291 0.0
H291 H 0.69813 0.92876 0.52917 0.0
H292 H 0.65546 0.96488 0.54662 0.0
H293 H 0.84656 0.09451 0.50352 0.0
H294 H 0.84571 0.0292 0.49564 0.0
H295 H 0.80636 0.07106 0.47996 0.0
H296 H 0.80283 0.87667 0.4671 0.0
H297 H 0.70988 0.98163 0.43129 0.0
H298 H 0.78403 0.91665 0.52952 0.0
H299 H 0.83488 0.94868 0.51782 0.0
H300 H 0.8255 0.88434 0.50948 0.0
H301 H 0.67081 0.04298 0.48534 0.0
H302 H 0.67881 0.05086 0.45188 0.0
H303 H 0.72039 0.07739 0.47383 0.0
C304 C 0.98425 0.73588 0.05044 0.0
C305 C 0.98064 0.77764 0.06607 0.0
C306 C 0.98654 0.74087 0.0242 0.0
C307 C 0.98603 0.78901 0.01331 0.0
C308 C 0.98101 0.83141 0.02904 0.0
C309 C 0.97828 0.82518 0.05537 0.0
C310 C 0.99098 0.69458 0.0082 0.0
C311 C 0.98053 0.88328 0.01816 0.0
C312 C 0.04005 0.79072 0.94758 0.0
C313 C -0.00038 0.78597 0.93245 0.0
C314 C 0.03611 0.79501 0.97395 0.0
C315 C 0.99075 0.79418 0.98544 0.0
C316 C 0.94988 0.79236 0.97015 0.0
C317 C 0.95479 0.78859 0.94395 0.0
C318 C 0.08056 0.79766 0.98963 0.0
C319 C 0.90088 0.79104 0.98153 0.0
H320 H 0.98678 0.69919 0.05889 0.0
H321 H 0.97664 0.85746 0.0676 0.0
H322 H 0.96254 0.69376 0.9938 0.0
H323 H 0.0253 0.6949 0.99804 0.0
H324 H 0.98888 0.65991 0.01956 0.0
H325 H 0.9733 0.91204 0.0327 0.0
H326 H 0.0153 0.89134 0.00934 0.0
H327 H 0.95337 0.88628 1.00315 0.0
H328 H 0.0748 0.789 0.93897 0.0
H329 H 0.92312 0.78564 0.93254 0.0
H330 H 0.08532 0.76212 0.99998 0.0
H331 H 0.07766 0.82778 1.00385 0.0
H332 H 0.11253 0.80429 0.97792 0.0
H333 H 0.89565 0.75511 0.99146 0.0
H334 H 0.8727 0.79499 0.96707 0.0
H335 H 0.89662 0.82114 0.99565 0.0
C336 C 0.21072 0.07316 0.47196 0.0
C337 C 0.24585 0.06629 0.45356 0.0
C338 C 0.21061 0.04485 0.49432 0.0
C339 C 0.24634 0.00863 0.49839 0.0
C340 C 0.28265 0.00264 0.48029 0.0
C341 C 0.28208 0.03154 0.45825 0.0
C342 C 0.17161 0.05288 0.51332 0.0
C343 C 0.32154 0.96468 0.48388 0.0
C344 C 0.26885 0.96335 0.56526 0.0
C345 C 0.2436 0.91822 0.56602 0.0
C346 C 0.27018 0.99284 0.54344 0.0
C347 C 0.24588 0.97699 0.52158 0.0
C348 C 0.22141 0.93088 0.5219 0.0
C349 C 0.22051 0.90205 0.54409 0.0
C350 C 0.29687 0.04155 0.54399 0.0
C351 C 0.1955 0.91238 0.49887 0.0
H352 H 0.18246 0.09961 0.4686 0.0
H353 H 0.30957 0.02575 0.4443 0.0
H354 H 0.15061 0.01824 0.51542 0.0
H355 H 0.18698 0.06158 0.53204 0.0
H356 H 0.14738 0.08359 0.50782 0.0
H357 H 0.34782 0.96536 0.46831 0.0
H358 H 0.3403 0.97152 0.5019 0.0
H359 H 0.30602 0.9268 0.48497 0.0
H360 H 0.2871 0.97636 0.58198 0.0
H361 H 0.20081 0.86749 0.54441 0.0
H362 H 0.27212 0.07285 0.54045 0.0
H363 H 0.32384 0.04227 0.5288 0.0
H364 H 0.31488 0.04801 0.5623 0.0
H365 H 0.1673 0.9392 0.49362 0.0
H366 H 0.17913 0.87528 0.50192 0.0
H367 H 0.22022 0.90987 0.48268 0.0
C368 C 0.14655 0.17455 0.20853 0.0
C369 C 0.13546 0.22364 0.20197 0.0
C370 C 0.16625 0.16355 0.23223 0.0
C371 C 0.17579 0.20275 0.24944 0.0
C372 C 0.16659 0.25254 0.24232 0.0
C373 C 0.14609 0.2623 0.21879 0.0
C374 C 0.17505 0.10989 0.23925 0.0
C375 C 0.17703 0.29542 0.25987 0.0
C376 C 0.18458 0.16861 0.31901 0.0
C377 C 0.23341 0.16183 0.32162 0.0
C378 C 0.16519 0.18304 0.29568 0.0
C379 C 0.1956 0.19167 0.27484 0.0
C380 C 0.24515 0.18804 0.27804 0.0
C381 C 0.26335 0.17262 0.3013 0.0
C382 C 0.11211 0.18618 0.29295 0.0
C383 C 0.27888 0.19788 0.25653 0.0
H384 H 0.13726 0.14457 0.19578 0.0
H385 H 0.13711 0.30028 0.21377 0.0
H386 H 0.21262 0.10458 0.24467 0.0
H387 H 0.15311 0.09982 0.25583 0.0
H388 H 0.16654 0.08391 0.22361 0.0
H389 H 0.17019 0.33212 0.25093 0.0
H390 H 0.15476 0.29234 0.27701 0.0
H391 H 0.21452 0.2941 0.26604 0.0
H392 H 0.16141 0.15942 0.33458 0.0
H393 H 0.30116 0.16689 0.30333 0.0
H394 H 0.09976 0.15693 0.27973 0.0
H395 H 0.10183 0.22266 0.28482 0.0
H396 H 0.09355 0.18123 0.31123 0.0
H397 H 0.27435 0.16891 0.24184 0.0
H398 H 0.31643 0.19774 0.26274 0.0
H399 H 0.27099 0.23436 0.24769 0.0
C400 C 0.81262 0.27431 0.80039 0.0
C401 C 0.82123 0.23437 0.8168 0.0
C402 C 0.79592 0.26632 0.77587 0.0
C403 C 0.78789 0.2171 0.76752 0.0
C404 C 0.7927 0.17692 0.78472 0.0
C405 C 0.80924 0.18609 0.80929 0.0
C406 C 0.79068 0.31023 0.75833 0.0
C407 C 0.78403 0.12387 0.77658 0.0
C408 C 0.72276 0.18781 0.70685 0.0
C409 C 0.76019 0.1747 0.69084 0.0
C410 C 0.73121 0.20426 0.73151 0.0
C411 C 0.77831 0.20719 0.74038 0.0
C412 C 0.81638 0.19743 0.72362 0.0
C413 C 0.8068 0.18106 0.69898 0.0
C414 C 0.68966 0.21454 0.74862 0.0
C415 C 0.86716 0.20062 0.73228 0.0
H416 H 0.82223 0.3117 0.80618 0.0
H417 H 0.81676 0.15512 0.82177 0.0
H418 H 0.81967 0.30958 0.74423 0.0
H419 H 0.75676 0.30812 0.74787 0.0
H420 H 0.79212 0.34627 0.76857 0.0
H421 H 0.78471 0.09757 0.79273 0.0
H422 H 0.74934 0.12069 0.76694 0.0
H423 H 0.81171 0.11246 0.7629 0.0
H424 H 0.68666 0.18153 0.70067 0.0
H425 H 0.83562 0.16941 0.68683 0.0
H426 H 0.69501 0.24969 0.7592 0.0
H427 H 0.68648 0.18408 0.76264 0.0
H428 H 0.65586 0.21709 0.73801 0.0
H429 H 0.87383 0.23692 0.74159 0.0
H430 H 0.89255 0.19617 0.71645 0.0
H431 H 0.87418 0.171 0.74636 0.0
C432 C 0.82274 0.81533 0.30968 0.0
C433 C 0.77542 0.81858 0.31721 0.0
C434 C 0.8349 0.79706 0.28579 0.0
C435 C 0.79866 0.78189 0.26901 0.0
C436 C 0.75104 0.7814 0.27732 0.0
C437 C 0.73994 0.80023 0.30132 0.0
C438 C 0.88619 0.7982 0.27777 0.0
C439 C 0.71147 0.76499 0.26017 0.0
C440 C 0.8325 0.80202 0.20051 0.0
C441 C 0.85079 0.75524 0.19425 0.0
C442 C 0.81276 0.81059 0.22445 0.0
C443 C 0.81065 0.77113 0.24222 0.0
C444 C 0.82534 0.72284 0.23506 0.0
C445 C 0.84571 0.71561 0.21124 0.0
C446 C 0.79791 0.8628 0.23141 0.0
C447 C 0.82307 0.67966 0.25321 0.0
H448 H 0.85004 0.83105 0.32155 0.0
H449 H 0.70318 0.80426 0.30686 0.0
H450 H 0.89669 0.7619 0.26952 0.0
H451 H 0.89114 0.82698 0.263 0.0
H452 H 0.9103 0.80679 0.29372 0.0
H453 H 0.67788 0.75917 0.27064 0.0
H454 H 0.7054 0.79389 0.24559 0.0
H455 H 0.72097 0.72999 0.25028 0.0
H456 H 0.83723 0.83285 0.18757 0.0
H457 H 0.86009 0.6794 0.20639 0.0
H458 H 0.82321 0.87828 0.24534 0.0
H459 H 0.76241 0.86257 0.24033 0.0
H460 H 0.79704 0.88795 0.2148 0.0
H461 H 0.85082 0.68415 0.26781 0.0
H462 H 0.82875 0.64341 0.24359 0.0
H463 H 0.78838 0.67875 0.26299 0.0
C464 C 0.18911 0.79369 0.70251 0.0
C465 C 0.23521 0.80181 0.69395 0.0
C466 C 0.18081 0.77612 0.72702 0.0
C467 C 0.21971 0.76677 0.74325 0.0
C468 C 0.26637 0.77047 0.73379 0.0
C469 C 0.27355 0.78832 0.70923 0.0
C470 C 0.1304 0.77219 0.73626 0.0
C471 C 0.30877 0.76027 0.75027 0.0
C472 C 0.18628 0.79308 0.81109 0.0
C473 C 0.17172 0.74581 0.8189 0.0
C474 C 0.20576 0.80001 0.78696 0.0
C475 C 0.21107 0.75852 0.77061 0.0
C476 C 0.2016 0.7101 0.7797 0.0
C477 C 0.18177 0.70437 0.80373 0.0
C478 C 0.21591 0.85229 0.77807 0.0
C479 C 0.20764 0.66483 0.76317 0.0
H480 H 0.15956 0.80558 0.69095 0.0
H481 H 0.30925 0.79602 0.70279 0.0
H482 H 0.12457 0.73593 0.74576 0.0
H483 H 0.12347 0.80195 0.7503 0.0
H484 H 0.10436 0.77601 0.7207 0.0
H485 H 0.34153 0.75531 0.73897 0.0
H486 H 0.31415 0.79212 0.76327 0.0
H487 H 0.30314 0.72655 0.76195 0.0
H488 H 0.1778 0.82519 0.82262 0.0
H489 H 0.17023 0.66776 0.80979 0.0
H490 H 0.18858 0.86368 0.7642 0.0
H491 H 0.25074 0.85402 0.76848 0.0
H492 H 0.21571 0.87948 0.79384 0.0
H493 H 0.17806 0.66311 0.74946 0.0
H494 H 0.20758 0.62986 0.77434 0.0
H495 H 0.24109 0.66695 0.75227 0.0
C496 C 0.98977 0.11661 0.20213 0.0
C497 C 0.95994 0.13234 0.18256 0.0
C498 C 0.99535 0.06587 0.20751 0.0
C499 C 0.97188 0.03047 0.19229 0.0
C500 C 0.93757 0.04654 0.17454 0.0
C501 C 0.93152 0.09761 0.17014 0.0
C502 C 0.03007 0.05039 0.22764 0.0
C503 C 0.91161 0.00999 0.15792 0.0
C504 C 0.03715 0.91758 0.16812 0.0
C505 C 0.00941 0.87922 0.178 0.0
C506 C 0.02726 0.96734 0.17408 0.0
C507 C 0.98967 0.97853 0.19091 0.0
C508 C 0.96536 0.93946 0.2032 0.0
C509 C 0.97491 0.89014 0.1962 0.0
C510 C 0.05403 0.0079 0.16043 0.0
C511 C 0.92687 0.94946 0.22226 0.0
H512 H 0.01157 0.14372 0.21185 0.0
H513 H 0.90871 0.10987 0.15493 0.0
H514 H 0.01848 0.01562 0.23711 0.0
H515 H 0.06515 0.04336 0.21895 0.0
H516 H 0.03452 0.08006 0.24203 0.0
H517 H 0.88321 0.02817 0.14675 0.0
H518 H 0.93703 0.99238 0.14468 0.0
H519 H 0.8956 0.97993 0.16939 0.0
H520 H 0.06361 0.90907 0.15396 0.0
H521 H 0.95366 0.86026 0.20402 0.0
H522 H 0.06901 0.03483 0.17408 0.0
H523 H 0.02946 0.0287 0.14796 0.0
H524 H 0.08339 0.9929 0.14875 0.0
H525 H 0.9341 0.98382 0.23321 0.0
H526 H 0.92295 0.91773 0.23553 0.0
H527 H 0.89261 0.95432 0.21236 0.0
C528 C 0.05738 0.89011 0.64371 0.0
C529 C 0.098 0.91172 0.6543 0.0
C530 C 0.01301 0.91273 0.64604 0.0
C531 C 0.00885 0.95762 0.65976 0.0
C532 C 0.04894 0.97752 0.67224 0.0
C533 C 0.09334 0.95472 0.66904 0.0
C534 C 0.97151 0.89079 0.63194 0.0
C535 C 0.04549 0.02451 0.68772 0.0
C536 C 0.92123 0.04914 0.63273 0.0
C537 C 0.88149 0.04204 0.64809 0.0
C538 C 0.96286 0.02229 0.63666 0.0
C539 C 0.96529 0.988 0.65684 0.0
C540 C 0.92546 0.98098 0.67272 0.0
C541 C 0.8835 0.00771 0.66791 0.0
C542 C 0.00403 0.0302 0.61889 0.0
C543 C 0.92736 0.9456 0.69477 0.0
H544 H 0.06056 0.85676 0.63233 0.0
H545 H 0.12445 0.97105 0.67766 0.0
H546 H 0.93976 0.88906 0.64418 0.0
H547 H 0.96271 0.91501 0.61566 0.0
H548 H 0.97916 0.85278 0.62476 0.0
H549 H 0.07685 0.02952 0.70007 0.0
H550 H 0.04302 0.05713 0.67497 0.0
H551 H 0.01314 0.02412 0.69958 0.0
H552 H 0.91953 0.07557 0.61731 0.0
H553 H 0.85288 0.00283 0.67996 0.0
H554 H 0.01348 0.99456 0.60959 0.0
H555 H 0.03555 0.04291 0.62954 0.0
H556 H 0.99609 0.05815 0.60406 0.0
H557 H 0.93219 0.90692 0.68792 0.0
H558 H 0.8947 0.94717 0.7064 0.0
H559 H 0.95821 0.95448 0.70689 0.0
C560 C 0.95458 0.08977 0.83311 0.0
C561 C 0.98697 0.1264 0.82561 0.0
C562 C 0.95983 0.04032 0.82558 0.0
C563 C 0.99733 0.02729 0.80913 0.0
C564 C 0.0267 0.06519 0.79904 0.0
C565 C 0.02208 0.1143 0.80799 0.0
C566 C 0.92758 0.00159 0.83715 0.0
C567 C 0.06439 0.05416 0.77971 0.0
C568 C 0.0467 0.90529 0.83049 0.0
C569 C 0.01426 0.87207 0.81971 0.0
C570 C 0.04489 0.95614 0.82514 0.0
C571 C 0.01113 0.97399 0.80763 0.0
C572 C 0.98326 0.93958 0.79384 0.0
C573 C 0.98389 0.88896 0.80068 0.0
C574 C 0.07583 0.99101 0.84027 0.0
C575 C 0.95072 0.9562 0.77297 0.0
H576 H 0.92689 0.09897 0.84647 0.0
H577 H 0.04632 0.14283 0.80152 0.0
H578 H 0.90691 0.98282 0.8222 0.0
H579 H 0.94873 0.97276 0.84705 0.0
H580 H 0.9022 0.0179 0.85085 0.0
H581 H 0.06317 0.08252 0.7645 0.0
H582 H 0.09982 0.05694 0.7886 0.0
H583 H 0.06038 0.01672 0.77112 0.0
H584 H 0.07093 0.89231 0.8449 0.0
H585 H 0.95988 0.86307 0.79163 0.0
H586 H 0.05359 0.01772 0.85099 0.0
H587 H 0.0988 0.01276 0.82744 0.0
H588 H 0.0989 0.97093 0.85383 0.0
H589 H 0.91373 0.95715 0.77994 0.0
H590 H 0.95187 0.92908 0.75718 0.0
H591 H 0.96026 0.99359 0.76565 0.0
C592 C 0.94639 0.87797 0.35557 0.0
C593 C 0.90914 0.91243 0.35778 0.0
C594 C 0.99329 0.89383 0.35274 0.0
C595 C 0.00319 0.94533 0.35216 0.0
C596 C 0.96552 0.98021 0.35243 0.0
C597 C 0.91885 0.96331 0.35522 0.0
C598 C 0.03241 0.85554 0.35206 0.0
C599 C 0.97473 0.03555 0.35157 0.0
C600 C 0.11352 0.99503 0.3831 0.0
C601 C 0.1392 0.01199 0.36232 0.0
C602 C 0.0702 0.97079 0.37991 0.0
C603 C 0.05256 0.96302 0.35526 0.0
C604 C 0.08036 0.97651 0.33411 0.0
C605 C 0.12336 0.00168 0.33792 0.0
C606 C 0.04157 0.95737 0.40299 0.0
C607 C 0.06321 0.9678 0.30757 0.0
H608 H 0.9392 0.83843 0.35692 0.0
H609 H 0.89027 0.99013 0.35655 0.0
H610 H 0.05875 0.86492 0.33731 0.0
H611 H 0.05119 0.85535 0.37042 0.0
H612 H 0.01864 0.81747 0.34847 0.0
H613 H 0.94164 0.05736 0.34911 0.0
H614 H 0.99191 0.04741 0.36938 0.0
H615 H -0.00075 0.04474 0.33593 0.0
H616 H 0.12565 0.00423 0.40193 0.0
H617 H 0.14296 0.01603 0.32193 0.0
H618 H 0.03007 0.91795 0.40206 0.0
H619 H 0.0092 0.98076 0.40374 0.0
H620 H 0.06175 0.963 0.42072 0.0
H621 H 0.04633 0.93068 0.30577 0.0
H622 H 0.09254 0.97056 0.29369 0.0
H623 H 0.03622 -0.00378 0.3027 0.0
loop_
_geom_bond_atom_site_label_1
_geom_bond_atom_site_label_2
_geom_bond_distance
_geom_bond_site_symmetry_2
_ccdc_geom_bond_type
Co0 O1 2.216 . S
Co0 O2 2.091 . S
Co0 O4 2.004 . S
Co0 O10 2.021 . S
Co0 O12 2.137 . S
Co0 O13 2.244 . S
O1 Co0 2.216 . S
O1 C8 1.247 . S
O2 Co0 2.091 . S
O2 C8 1.261 . S
C3 O12 1.247 . S
C3 O13 1.272 . S
O4 Co0 2.004 . S
O4 C9 1.259 . S
Co5 O6 2.061 1_655 S
Co5 O11 2.052 1_655 S
Co5 O13 2.135 1_655 S
O6 Co5 2.061 1_455 S
O6 C9 1.235 . S
C7 O10 1.238 . S
C7 O11 1.241 . S
C8 O1 1.247 . S
C8 O2 1.261 . S
C9 O4 1.259 . S
C9 O6 1.235 . S
O10 Co0 2.021 . S
O10 C7 1.238 . S
O11 Co5 2.052 1_455 S
O11 C7 1.241 . S
O12 Co0 2.137 . S
O12 C3 1.247 . S
O13 Co0 2.244 . S
O13 C3 1.272 . S
O13 Co5 2.135 1_455 S
Co14 O15 2.216 . S
Co14 O16 2.091 . S
Co14 O18 2.004 . S
Co14 O24 2.021 . S
Co14 O26 2.137 . S
Co14 O27 2.244 . S
O15 Co14 2.216 . S
O15 C22 1.247 . S
O16 Co14 2.091 . S
O16 C22 1.261 . S
C17 O26 1.247 . S
C17 O27 1.272 . S
O18 Co14 2.004 . S
O18 C23 1.259 . S
Co19 O20 2.061 . S
Co19 O25 2.052 . S
Co19 O27 2.135 . S
O20 Co19 2.061 . S
O20 C23 1.235 . S
C21 O24 1.238 . S
C21 O25 1.241 . S
C22 O15 1.247 . S
C22 O16 1.261 . S
C23 O18 1.259 . S
C23 O20 1.235 . S
O24 Co14 2.021 . S
O24 C21 1.238 . S
O25 Co19 2.052 . S
O25 C21 1.241 . S
O26 Co14 2.137 . S
O26 C17 1.247 . S
O27 Co14 2.244 . S
O27 C17 1.272 . S
O27 Co19 2.135 . S
Co28 O29 2.216 . S
Co28 O30 2.091 . S
Co28 O32 2.004 . S
Co28 O38 2.021 . S
Co28 O40 2.137 . S
Co28 O41 2.244 . S
O29 Co28 2.216 . S
O29 C36 1.247 . S
O30 Co28 2.091 . S
O30 C36 1.261 . S
C31 O40 1.247 . S
C31 O41 1.272 . S
O32 Co28 2.004 . S
O32 C37 1.259 . S
Co33 O34 2.061 1_455 S
Co33 O39 2.052 1_455 S
Co33 O41 2.135 1_455 S
O34 Co33 2.061 1_655 S
O34 C37 1.235 . S
C35 O38 1.238 . S
C35 O39 1.241 . S
C36 O29 1.247 . S
C36 O30 1.261 . S
C37 O32 1.259 . S
C37 O34 1.235 . S
O38 Co28 2.021 . S
O38 C35 1.238 . S
O39 Co33 2.052 1_655 S
O39 C35 1.241 . S
O40 Co28 2.137 . S
O40 C31 1.247 . S
O41 Co28 2.244 . S
O41 C31 1.272 . S
O41 Co33 2.135 1_655 S
Co42 O43 2.216 . S
Co42 O44 2.091 . S
Co42 O46 2.004 . S
Co42 O52 2.021 . S
Co42 O54 2.137 . S
Co42 O55 2.244 . S
O43 Co42 2.216 . S
O43 C50 1.247 . S
O44 Co42 2.091 . S
O44 C50 1.261 . S
C45 O54 1.247 . S
C45 O55 1.272 . S
O46 Co42 2.004 . S
O46 C51 1.259 . S
Co47 O48 2.061 . S
Co47 O53 2.052 . S
Co47 O55 2.135 . S
O48 Co47 2.061 . S
O48 C51 1.235 . S
C49 O52 1.238 . S
C49 O53 1.241 . S
C50 O43 1.247 . S
C50 O44 1.261 . S
C51 O46 1.259 . S
C51 O48 1.235 . S
O52 Co42 2.021 . S
O52 C49 1.238 . S
O53 Co47 2.052 . S
O53 C49 1.241 . S
O54 Co42 2.137 . S
O54 C45 1.247 . S
O55 Co42 2.244 . S
O55 C45 1.272 . S
O55 Co47 2.135 . S
Co56 O57 2.216 . S
Co56 O58 2.091 . S
Co56 O60 2.004 . S
Co56 O66 2.021 . S
Co56 O68 2.137 . S
Co56 O69 2.244 . S
O57 Co56 2.216 . S
O57 C64 1.247 . S
O58 Co56 2.091 . S
O58 C64 1.261 . S
C59 O68 1.247 . S
C59 O69 1.272 . S
O60 Co56 2.004 . S
O60 C65 1.259 . S
Co61 O62 2.061 1_655 S
Co61 O67 2.052 1_655 S
Co61 O69 2.135 1_655 S
O62 Co61 2.061 1_455 S
O62 C65 1.235 . S
C63 O66 1.238 . S
C63 O67 1.241 . S
C64 O57 1.247 . S
C64 O58 1.261 . S
C65 O60 1.259 . S
C65 O62 1.235 . S
O66 Co56 2.021 . S
O66 C63 1.238 . S
O67 Co61 2.052 1_455 S
O67 C63 1.241 . S
O68 Co56 2.137 . S
O68 C59 1.247 . S
O69 Co56 2.244 . S
O69 C59 1.272 . S
O69 Co61 2.135 1_455 S
Co70 O71 2.216 . S
Co70 O72 2.091 . S
Co70 O74 2.004 . S
Co70 O80 2.021 . S
Co70 O82 2.137 . S
Co70 O83 2.244 . S
O71 Co70 2.216 . S
O71 C78 1.247 . S
O72 Co70 2.091 . S
O72 C78 1.261 . S
C73 O82 1.247 . S
C73 O83 1.272 . S
O74 Co70 2.004 . S
O74 C79 1.259 . S
Co75 O76 2.061 . S
Co75 O81 2.052 . S
Co75 O83 2.135 . S
O76 Co75 2.061 . S
O76 C79 1.235 . S
C77 O80 1.238 . S
C77 O81 1.241 . S
C78 O71 1.247 . S
C78 O72 1.261 . S
C79 O74 1.259 . S
C79 O76 1.235 . S
O80 Co70 2.021 . S
O80 C77 1.238 . S
O81 Co75 2.052 . S
O81 C77 1.241 . S
O82 Co70 2.137 . S
O82 C73 1.247 . S
O83 Co70 2.244 . S
O83 C73 1.272 . S
O83 Co75 2.135 . S
Co84 O85 2.216 . S
Co84 O86 2.091 . S
Co84 O88 2.004 . S
Co84 O94 2.021 . S
Co84 O96 2.137 . S
Co84 O97 2.244 . S
O85 Co84 2.216 . S
O85 C92 1.247 . S
O86 Co84 2.091 . S
O86 C92 1.261 . S
C87 O96 1.247 . S
C87 O97 1.272 . S
O88 Co84 2.004 . S
O88 C93 1.259 . S
Co89 O90 2.061 1_455 S
Co89 O95 2.052 1_455 S
Co89 O97 2.135 1_455 S
O90 Co89 2.061 1_655 S
O90 C93 1.235 . S
C91 O94 1.238 . S
C91 O95 1.241 . S
C92 O85 1.247 . S
C92 O86 1.261 . S
C93 O88 1.259 . S
C93 O90 1.235 . S
O94 Co84 2.021 . S
O94 C91 1.238 . S
O95 Co89 2.052 1_655 S
O95 C91 1.241 . S
O96 Co84 2.137 . S
O96 C87 1.247 . S
O97 Co84 2.244 . S
O97 C87 1.272 . S
O97 Co89 2.135 1_655 S
Co98 O99 2.216 . S
Co98 O100 2.091 . S
Co98 O102 2.004 . S
Co98 O108 2.021 . S
Co98 O110 2.137 . S
Co98 O111 2.244 . S
O99 Co98 2.216 . S
O99 C106 1.247 . S
O100 Co98 2.091 . S
O100 C106 1.261 . S
C101 O110 1.247 . S
C101 O111 1.272 . S
O102 Co98 2.004 . S
O102 C107 1.259 . S
Co103 O104 2.061 . S
Co103 O109 2.052 . S
Co103 O111 2.135 . S
O104 Co103 2.061 . S
O104 C107 1.235 . S
C105 O108 1.238 . S
C105 O109 1.241 . S
C106 O99 1.247 . S
C106 O100 1.261 . S
C107 O102 1.259 . S
C107 O104 1.235 . S
O108 Co98 2.021 . S
O108 C105 1.238 . S
O109 Co103 2.052 . S
O109 C105 1.241 . S
O110 Co98 2.137 . S
O110 C101 1.247 . S
O111 Co98 2.244 . S
O111 C101 1.272 . S
O111 Co103 2.135 . S
C112 C113 1.391 . S
C112 C114 1.394 . S
C112 H128 0.931 . S
C113 C112 1.391 . S
C113 C117 1.376 . S
C114 C112 1.394 . S
C114 C115 1.369 . S
C114 C118 1.531 . S
C115 C114 1.369 . S
C115 C116 1.410 . S
C115 C123 1.503 1_455 S
C116 C115 1.410 . S
C116 C117 1.392 . S
C116 C119 1.511 1_455 S
C117 C113 1.376 . S
C117 C116 1.392 . S
C117 H129 0.929 . S
C118 C114 1.531 . S
C118 H130 0.960 . S
C118 H131 0.962 . S
C118 H132 0.960 . S
C119 C116 1.511 1_655 S
C119 H133 0.961 . S
C119 H134 0.961 . S
C119 H135 0.961 1_655 S
C120 C121 1.370 . S
C120 C122 1.363 . S
C120 H136 0.931 . S
C121 C120 1.370 . S
C121 C125 1.408 1_655 S
C122 C120 1.363 . S
C122 C123 1.370 . S
C122 C126 1.524 . S
C123 C115 1.503 1_655 S
C123 C122 1.370 . S
C123 C124 1.403 1_655 S
C124 C123 1.403 1_455 S
C124 C125 1.404 . S
C124 C127 1.539 . S
C125 C121 1.408 1_455 S
C125 C124 1.404 . S
C125 H137 0.930 . S
C126 C122 1.524 . S
C126 H138 0.956 . S
C126 H139 0.961 . S
C126 H140 0.961 . S
C127 C124 1.539 . S
C127 H141 0.958 . S
C127 H142 0.961 . S
C127 H143 0.960 . S
H128 C112 0.931 . S
H129 C117 0.929 . S
H130 C118 0.960 . S
H131 C118 0.962 . S
H132 C118 0.960 . S
H133 C119 0.961 . S
H134 C119 0.961 . S
H135 C119 0.961 1_455 S
H136 C120 0.931 . S
H137 C125 0.930 . S
H138 C126 0.956 . S
H139 C126 0.961 . S
H140 C126 0.961 . S
H141 C127 0.958 . S
H142 C127 0.961 . S
H143 C127 0.960 . S
C144 C145 1.391 1_545 S
C144 C146 1.394 . S
C144 H160 0.931 . S
C145 C144 1.391 1_565 S
C145 C149 1.376 . S
C146 C144 1.394 . S
C146 C147 1.369 1_545 S
C146 C150 1.531 . S
C147 C146 1.369 1_565 S
C147 C148 1.410 . S
C147 C155 1.503 1_565 S
C148 C147 1.410 . S
C148 C149 1.392 . S
C148 C151 1.511 . S
C149 C145 1.376 . S
C149 C148 1.392 . S
C149 H161 0.929 . S
C150 C146 1.531 . S
C150 H162 0.960 . S
C150 H163 0.962 . S
C150 H164 0.960 . S
C151 C148 1.511 . S
C151 H165 0.961 . S
C151 H166 0.961 . S
C151 H167 0.961 . S
C152 C153 1.370 . S
C152 C154 1.363 1_545 S
C152 H168 0.931 1_545 S
C153 C152 1.370 . S
C153 C157 1.408 . S
C154 C152 1.363 1_565 S
C154 C155 1.370 1_565 S
C154 C158 1.524 . S
C155 C147 1.503 1_545 S
C155 C154 1.370 1_545 S
C155 C156 1.403 . S
C156 C155 1.403 . S
C156 C157 1.404 . S
C156 C159 1.539 . S
C157 C153 1.408 . S
C157 C156 1.404 . S
C157 H169 0.930 . S
C158 C154 1.524 . S
C158 H170 0.956 . S
C158 H171 0.961 . S
C158 H172 0.961 . S
C159 C156 1.539 . S
C159 H173 0.958 . S
C159 H174 0.961 . S
C159 H175 0.960 . S
H160 C144 0.931 . S
H161 C149 0.929 . S
H162 C150 0.960 . S
H163 C150 0.962 . S
H164 C150 0.960 . S
H165 C151 0.961 . S
H166 C151 0.961 . S
H167 C151 0.961 . S
H168 C152 0.931 1_565 S
H169 C157 0.930 . S
H170 C158 0.956 . S
H171 C158 0.961 . S
H172 C158 0.961 . S
H173 C159 0.958 . S
H174 C159 0.961 . S
H175 C159 0.960 . S
C176 C177 1.391 1_455 S
C176 C178 1.394 . S
C176 H192 0.931 . S
C177 C176 1.391 1_655 S
C177 C181 1.376 . S
C178 C176 1.394 . S
C178 C179 1.369 1_455 S
C178 C182 1.531 . S
C179 C178 1.369 1_655 S
C179 C180 1.410 . S
C179 C187 1.503 1_655 S
C180 C179 1.410 . S
C180 C181 1.392 . S
C180 C183 1.511 . S
C181 C177 1.376 . S
C181 C180 1.392 . S
C181 H193 0.929 . S
C182 C178 1.531 . S
C182 H194 0.960 . S
C182 H195 0.962 . S
C182 H196 0.960 . S
C183 C180 1.511 . S
C183 H197 0.961 . S
C183 H198 0.961 . S
C183 H199 0.961 . S
C184 C185 1.370 . S
C184 C186 1.361 1_455 S
C184 H200 0.931 . S
C185 C184 1.370 . S
C185 C189 1.408 . S
C186 C184 1.361 1_655 S
C186 C187 1.369 1_655 S
C186 C190 1.527 . S
C187 C179 1.503 1_455 S
C187 C186 1.369 1_455 S
C187 C188 1.403 . S
C188 C187 1.403 . S
C188 C189 1.404 . S
C188 C191 1.539 . S
C189 C185 1.408 . S
C189 C188 1.404 . S
C189 H201 0.930 . S
C190 C186 1.527 . S
C190 H202 0.956 . S
C190 H203 0.961 . S
C190 H204 0.961 . S
C191 C188 1.539 . S
C191 H205 0.958 . S
C191 H206 0.961 . S
C191 H207 0.960 . S
H192 C176 0.931 . S
H193 C181 0.929 . S
H194 C182 0.960 . S
H195 C182 0.962 . S
H196 C182 0.960 . S
H197 C183 0.961 . S
H198 C183 0.961 . S
H199 C183 0.961 . S
H200 C184 0.931 . S
H201 C189 0.930 . S
H202 C190 0.956 . S
H203 C190 0.961 . S
H204 C190 0.961 . S
H205 C191 0.958 . S
H206 C191 0.961 . S
H207 C191 0.960 . S
C208 C209 1.391 1_565 S
C208 C210 1.394 . S
C208 H224 0.931 . S
C209 C208 1.391 1_545 S
C209 C213 1.376 . S
C210 C208 1.394 . S
C210 C211 1.369 1_565 S
C210 C214 1.531 . S
C211 C210 1.369 1_545 S
C211 C212 1.410 . S
C211 C219 1.503 1_545 S
C212 C211 1.410 . S
C212 C213 1.392 . S
C212 C215 1.511 . S
C213 C209 1.376 . S
C213 C212 1.392 . S
C213 H225 0.929 . S
C214 C210 1.531 . S
C214 H226 0.960 . S
C214 H227 0.962 . S
C214 H228 0.960 . S
C215 C212 1.511 . S
C215 H229 0.961 . S
C215 H230 0.961 . S
C215 H231 0.961 . S
C216 C217 1.370 . S
C216 C218 1.363 . S
C216 H232 0.931 . S
C217 C216 1.370 . S
C217 C221 1.408 . S
C218 C216 1.363 . S
C218 C219 1.370 . S
C218 C222 1.524 1_565 S
C219 C211 1.503 1_565 S
C219 C218 1.370 . S
C219 C220 1.403 . S
C220 C219 1.403 . S
C220 C221 1.404 . S
C220 C223 1.539 . S
C221 C217 1.408 . S
C221 C220 1.404 . S
C221 H233 0.930 . S
C222 C218 1.524 1_545 S
C222 H234 0.956 1_545 S
C222 H235 0.961 . S
C222 H236 0.961 . S
C223 C220 1.539 . S
C223 H237 0.958 . S
C223 H238 0.961 . S
C223 H239 0.960 . S
H224 C208 0.931 . S
H225 C213 0.929 . S
H226 C214 0.960 . S
H227 C214 0.962 . S
H228 C214 0.960 . S
H229 C215 0.961 . S
H230 C215 0.961 . S
H231 C215 0.961 . S
H232 C216 0.931 . S
H233 C221 0.930 . S
H234 C222 0.956 1_565 S
H235 C222 0.961 . S
H236 C222 0.961 . S
H237 C223 0.958 . S
H238 C223 0.961 . S
H239 C223 0.960 . S
C240 C241 1.391 . S
C240 C242 1.394 1_655 S
C240 H256 0.931 . S
C241 C240 1.391 . S
C241 C245 1.376 . S
C242 C240 1.394 1_455 S
C242 C243 1.369 1_455 S
C242 C246 1.531 . S
C243 C242 1.369 1_655 S
C243 C244 1.410 . S
C243 C251 1.503 1_656 S
C244 C243 1.410 . S
C244 C245 1.392 . S
C244 C247 1.511 1_556 S
C245 C241 1.376 . S
C245 C244 1.392 . S
C245 H257 0.929 . S
C246 C242 1.531 . S
C246 H258 0.960 . S
C246 H259 0.962 . S
C246 H260 0.960 . S
C247 C244 1.511 1_554 S
C247 H261 0.961 . S
C247 H262 0.961 . S
C247 H263 0.961 . S
C248 C249 1.370 . S
C248 C250 1.363 . S
C248 H264 0.931 . S
C249 C248 1.370 . S
C249 C253 1.408 . S
C250 C248 1.363 . S
C250 C251 1.370 . S
C250 C254 1.524 1_455 S
C251 C243 1.503 1_454 S
C251 C250 1.370 . S
C251 C252 1.403 . S
C252 C251 1.403 . S
C252 C253 1.404 . S
C252 C255 1.539 . S
C253 C249 1.408 . S
C253 C252 1.404 . S
C253 H265 0.930 . S
C254 C250 1.524 1_655 S
C254 H266 0.953 1_654 S
C254 H267 0.961 . S
C254 H268 0.961 . S
C255 C252 1.539 . S
C255 H269 0.958 1_554 S
C255 H270 0.961 . S
C255 H271 0.960 1_554 S
H256 C240 0.931 . S
H257 C245 0.929 . S
H258 C246 0.960 . S
H259 C246 0.962 . S
H260 C246 0.960 . S
H261 C247 0.961 . S
H262 C247 0.961 . S
H263 C247 0.961 . S
H264 C248 0.931 . S
H265 C253 0.930 . S
H266 C254 0.953 1_456 S
H267 C254 0.961 . S
H268 C254 0.961 . S
H269 C255 0.958 1_556 S
H270 C255 0.961 . S
H271 C255 0.960 1_556 S
C272 C273 1.391 . S
C272 C274 1.394 . S
C272 H288 0.931 . S
C273 C272 1.391 . S
C273 C277 1.376 . S
C274 C272 1.394 . S
C274 C275 1.369 . S
C274 C278 1.531 . S
C275 C274 1.369 . S
C275 C276 1.410 . S
C275 C283 1.503 1_545 S
C276 C275 1.410 . S
C276 C277 1.392 . S
C276 C279 1.511 . S
C277 C273 1.376 . S
C277 C276 1.392 . S
C277 H289 0.929 . S
C278 C274 1.531 . S
C278 H290 0.960 . S
C278 H291 0.959 1_545 S
C278 H292 0.960 . S
C279 C276 1.511 . S
C279 H293 0.961 . S
C279 H294 0.961 1_545 S
C279 H295 0.961 . S
C280 C281 1.370 . S
C280 C282 1.363 . S
C280 H296 0.931 . S
C281 C280 1.370 . S
C281 C285 1.408 . S
C282 C280 1.363 . S
C282 C283 1.370 . S
C282 C286 1.524 . S
C283 C275 1.503 1_565 S
C283 C282 1.370 . S
C283 C284 1.403 1_565 S
C284 C283 1.403 1_545 S
C284 C285 1.404 1_545 S
C284 C287 1.539 . S
C285 C281 1.408 . S
C285 C284 1.404 1_565 S
C285 H297 0.930 . S
C286 C282 1.524 . S
C286 H298 0.956 . S
C286 H299 0.961 . S
C286 H300 0.961 . S
C287 C284 1.539 . S
C287 H301 0.958 . S
C287 H302 0.961 . S
C287 H303 0.960 . S
H288 C272 0.931 . S
H289 C277 0.929 . S
H290 C278 0.960 . S
H291 C278 0.959 1_565 S
H292 C278 0.960 . S
H293 C279 0.961 . S
H294 C279 0.961 1_565 S
H295 C279 0.961 . S
H296 C280 0.931 . S
H297 C285 0.930 . S
H298 C286 0.956 . S
H299 C286 0.961 . S
H300 C286 0.961 . S
H301 C287 0.958 . S
H302 C287 0.961 . S
H303 C287 0.960 . S
C304 C305 1.391 . S
C304 C306 1.394 . S
C304 H320 0.931 . S
C305 C304 1.391 . S
C305 C309 1.376 . S
C306 C304 1.394 . S
C306 C307 1.369 . S
C306 C310 1.542 . S
C307 C306 1.369 . S
C307 C308 1.410 . S
C307 C315 1.503 1_654 S
C308 C307 1.410 . S
C308 C309 1.392 . S
C308 C311 1.511 1_554 S
C309 C305 1.376 . S
C309 C308 1.392 . S
C309 H321 0.929 . S
C310 C306 1.542 . S
C310 H322 0.957 1_654 S
C310 H323 0.941 1_655 S
C310 H324 0.972 . S
C311 C308 1.511 1_556 S
C311 H325 0.961 1_556 S
C311 H326 0.961 . S
C311 H327 0.961 . S
C312 C313 1.370 . S
C312 C314 1.363 . S
C312 H328 0.931 . S
C313 C312 1.370 . S
C313 C317 1.408 . S
C314 C312 1.363 . S
C314 C315 1.370 . S
C314 C318 1.524 1_556 S
C315 C307 1.503 1_456 S
C315 C314 1.370 . S
C315 C316 1.403 1_455 S
C316 C315 1.403 1_655 S
C316 C317 1.404 1_655 S
C316 C319 1.539 . S
C317 C313 1.408 . S
C317 C316 1.404 1_455 S
C317 H329 0.930 . S
C318 C314 1.524 1_554 S
C318 H330 0.956 . S
C318 H331 0.961 . S
C318 H332 0.961 . S
C319 C316 1.539 . S
C319 H333 0.958 . S
C319 H334 0.961 . S
C319 H335 0.960 . S
H320 C304 0.931 . S
H321 C309 0.929 . S
H322 C310 0.957 1_456 S
H323 C310 0.941 1_455 S
H324 C310 0.972 . S
H325 C311 0.961 1_554 S
H326 C311 0.961 . S
H327 C311 0.961 . S
H328 C312 0.931 . S
H329 C317 0.930 . S
H330 C318 0.956 . S
H331 C318 0.961 . S
H332 C318 0.961 . S
H333 C319 0.958 . S
H334 C319 0.961 . S
H335 C319 0.960 . S
C336 C337 1.391 . S
C336 C338 1.394 . S
C336 H352 0.931 . S
C337 C336 1.391 . S
C337 C341 1.376 . S
C338 C336 1.394 . S
C338 C339 1.369 . S
C338 C342 1.531 1_545 S
C339 C338 1.369 . S
C339 C340 1.410 . S
C339 C347 1.503 1_545 S
C340 C339 1.410 . S
C340 C341 1.392 . S
C340 C343 1.511 . S
C341 C337 1.376 . S
C341 C340 1.392 . S
C341 H353 0.929 . S
C342 C338 1.531 1_565 S
C342 H354 0.960 . S
C342 H355 0.962 . S
C342 H356 0.960 . S
C343 C340 1.511 . S
C343 H357 0.961 . S
C343 H358 0.961 . S
C343 H359 0.961 . S
C344 C345 1.370 . S
C344 C346 1.363 . S
C344 H360 0.931 . S
C345 C344 1.370 . S
C345 C349 1.408 . S
C346 C344 1.363 . S
C346 C347 1.370 . S
C346 C350 1.524 1_565 S
C347 C339 1.503 1_565 S
C347 C346 1.370 . S
C347 C348 1.403 . S
C348 C347 1.403 . S
C348 C349 1.404 . S
C348 C351 1.539 . S
C349 C345 1.408 . S
C349 C348 1.404 . S
C349 H361 0.930 . S
C350 C346 1.524 1_545 S
C350 H362 0.956 . S
C350 H363 0.961 . S
C350 H364 0.961 . S
C351 C348 1.539 . S
C351 H365 0.958 . S
C351 H366 0.961 . S
C351 H367 0.960 . S
H352 C336 0.931 . S
H353 C341 0.929 . S
H354 C342 0.960 . S
H355 C342 0.962 . S
H356 C342 0.960 . S
H357 C343 0.961 . S
H358 C343 0.961 . S
H359 C343 0.961 . S
H360 C344 0.931 . S
H361 C349 0.930 . S
H362 C350 0.956 . S
H363 C350 0.961 . S
H364 C350 0.961 . S
H365 C351 0.958 . S
H366 C351 0.961 . S
H367 C351 0.960 . S
C368 C369 1.391 . S
C368 C370 1.394 . S
C368 H384 0.931 . S
C369 C368 1.391 . S
C369 C373 1.376 . S
C370 C368 1.394 . S
C370 C371 1.369 . S
C370 C374 1.531 . S
C371 C370 1.369 . S
C371 C372 1.410 . S
C371 C379 1.503 . S
C372 C371 1.410 . S
C372 C373 1.392 . S
C372 C375 1.511 . S
C373 C369 1.376 . S
C373 C372 1.392 . S
C373 H385 0.929 . S
C374 C370 1.531 . S
C374 H386 0.960 . S
C374 H387 0.962 . S
C374 H388 0.960 . S
C375 C372 1.511 . S
C375 H389 0.961 . S
C375 H390 0.961 . S
C375 H391 0.961 . S
C376 C377 1.370 . S
C376 C378 1.363 . S
C376 H392 0.931 . S
C377 C376 1.370 . S
C377 C381 1.408 . S
C378 C376 1.363 . S
C378 C379 1.370 . S
C378 C382 1.524 . S
C379 C371 1.503 . S
C379 C378 1.370 . S
C379 C380 1.403 . S
C380 C379 1.403 . S
C380 C381 1.404 . S
C380 C383 1.539 . S
C381 C377 1.408 . S
C381 C380 1.404 . S
C381 H393 0.930 . S
C382 C378 1.524 . S
C382 H394 0.956 . S
C382 H395 0.961 . S
C382 H396 0.961 . S
C383 C380 1.539 . S
C383 H397 0.958 . S
C383 H398 0.961 . S
C383 H399 0.960 . S
H384 C368 0.931 . S
H385 C373 0.929 . S
H386 C374 0.960 . S
H387 C374 0.962 . S
H388 C374 0.960 . S
H389 C375 0.961 . S
H390 C375 0.961 . S
H391 C375 0.961 . S
H392 C376 0.931 . S
H393 C381 0.930 . S
H394 C382 0.956 . S
H395 C382 0.961 . S
H396 C382 0.961 . S
H397 C383 0.958 . S
H398 C383 0.961 . S
H399 C383 0.960 . S
C400 C401 1.391 . S
C400 C402 1.394 . S
C400 H416 0.931 . S
C401 C400 1.391 . S
C401 C405 1.376 . S
C402 C400 1.394 . S
C402 C403 1.369 . S
C402 C406 1.531 . S
C403 C402 1.369 . S
C403 C404 1.410 . S
C403 C411 1.503 . S
C404 C403 1.410 . S
C404 C405 1.392 . S
C404 C407 1.511 . S
C405 C401 1.376 . S
C405 C404 1.392 . S
C405 H417 0.929 . S
C406 C402 1.531 . S
C406 H418 0.960 . S
C406 H419 0.962 . S
C406 H420 0.960 . S
C407 C404 1.511 . S
C407 H421 0.961 . S
C407 H422 0.961 . S
C407 H423 0.961 . S
C408 C409 1.370 . S
C408 C410 1.363 . S
C408 H424 0.931 . S
C409 C408 1.370 . S
C409 C413 1.408 . S
C410 C408 1.363 . S
C410 C411 1.370 . S
C410 C414 1.524 . S
C411 C403 1.503 . S
C411 C410 1.370 . S
C411 C412 1.403 . S
C412 C411 1.403 . S
C412 C413 1.404 . S
C412 C415 1.539 . S
C413 C409 1.408 . S
C413 C412 1.404 . S
C413 H425 0.930 . S
C414 C410 1.524 . S
C414 H426 0.956 . S
C414 H427 0.961 . S
C414 H428 0.961 . S
C415 C412 1.539 . S
C415 H429 0.958 . S
C415 H430 0.961 . S
C415 H431 0.960 . S
H416 C400 0.931 . S
H417 C405 0.929 . S
H418 C406 0.960 . S
H419 C406 0.962 . S
H420 C406 0.960 . S
H421 C407 0.961 . S
H422 C407 0.961 . S
H423 C407 0.961 . S
H424 C408 0.931 . S
H425 C413 0.930 . S
H426 C414 0.956 . S
H427 C414 0.961 . S
H428 C414 0.961 . S
H429 C415 0.958 . S
H430 C415 0.961 . S
H431 C415 0.960 . S
C432 C433 1.391 . S
C432 C434 1.394 . S
C432 H448 0.931 . S
C433 C432 1.391 . S
C433 C437 1.376 . S
C434 C432 1.394 . S
C434 C435 1.369 . S
C434 C438 1.531 . S
C435 C434 1.369 . S
C435 C436 1.410 . S
C435 C443 1.503 . S
C436 C435 1.410 . S
C436 C437 1.392 . S
C436 C439 1.511 . S
C437 C433 1.376 . S
C437 C436 1.392 . S
C437 H449 0.929 . S
C438 C434 1.531 . S
C438 H450 0.960 . S
C438 H451 0.962 . S
C438 H452 0.960 . S
C439 C436 1.511 . S
C439 H453 0.961 . S
C439 H454 0.961 . S
C439 H455 0.961 . S
C440 C441 1.370 . S
C440 C442 1.363 . S
C440 H456 0.931 . S
C441 C440 1.370 . S
C441 C445 1.408 . S
C442 C440 1.363 . S
C442 C443 1.370 . S
C442 C446 1.524 . S
C443 C435 1.503 . S
C443 C442 1.370 . S
C443 C444 1.403 . S
C444 C443 1.403 . S
C444 C445 1.404 . S
C444 C447 1.539 . S
C445 C441 1.408 . S
C445 C444 1.404 . S
C445 H457 0.930 . S
C446 C442 1.524 . S
C446 H458 0.956 . S
C446 H459 0.961 . S
C446 H460 0.961 . S
C447 C444 1.539 . S
C447 H461 0.958 . S
C447 H462 0.961 . S
C447 H463 0.960 . S
H448 C432 0.931 . S
H449 C437 0.929 . S
H450 C438 0.960 . S
H451 C438 0.962 . S
H452 C438 0.960 . S
H453 C439 0.961 . S
H454 C439 0.961 . S
H455 C439 0.961 . S
H456 C440 0.931 . S
H457 C445 0.930 . S
H458 C446 0.956 . S
H459 C446 0.961 . S
H460 C446 0.961 . S
H461 C447 0.958 . S
H462 C447 0.961 . S
H463 C447 0.960 . S
C464 C465 1.391 . S
C464 C466 1.394 . S
C464 H480 0.931 . S
C465 C464 1.391 . S
C465 C469 1.376 . S
C466 C464 1.394 . S
C466 C467 1.369 . S
C466 C470 1.531 . S
C467 C466 1.369 . S
C467 C468 1.410 . S
C467 C475 1.503 . S
C468 C467 1.410 . S
C468 C469 1.392 . S
C468 C471 1.511 . S
C469 C465 1.376 . S
C469 C468 1.392 . S
C469 H481 0.929 . S
C470 C466 1.531 . S
C470 H482 0.960 . S
C470 H483 0.962 . S
C470 H484 0.960 . S
C471 C468 1.511 . S
C471 H485 0.961 . S
C471 H486 0.961 . S
C471 H487 0.961 . S
C472 C473 1.370 . S
C472 C474 1.363 . S
C472 H488 0.931 . S
C473 C472 1.370 . S
C473 C477 1.408 . S
C474 C472 1.363 . S
C474 C475 1.370 . S
C474 C478 1.524 . S
C475 C467 1.503 . S
C475 C474 1.370 . S
C475 C476 1.403 . S
C476 C475 1.403 . S
C476 C477 1.404 . S
C476 C479 1.539 . S
C477 C473 1.408 . S
C477 C476 1.404 . S
C477 H489 0.930 . S
C478 C474 1.524 . S
C478 H490 0.956 . S
C478 H491 0.961 . S
C478 H492 0.961 . S
C479 C476 1.539 . S
C479 H493 0.958 . S
C479 H494 0.961 . S
C479 H495 0.960 . S
H480 C464 0.931 . S
H481 C469 0.929 . S
H482 C470 0.960 . S
H483 C470 0.962 . S
H484 C470 0.960 . S
H485 C471 0.961 . S
H486 C471 0.961 . S
H487 C471 0.961 . S
H488 C472 0.931 . S
H489 C477 0.930 . S
H490 C478 0.956 . S
H491 C478 0.961 . S
H492 C478 0.961 . S
H493 C479 0.958 . S
H494 C479 0.961 . S
H495 C479 0.960 . S
C496 C497 1.391 . S
C496 C498 1.394 . S
C496 H512 0.931 . S
C497 C496 1.391 . S
C497 C501 1.376 1_455 S
C498 C496 1.394 . S
C498 C499 1.369 . S
C498 C502 1.522 1_545 S
C499 C498 1.369 . S
C499 C500 1.410 1_455 S
C499 C507 1.503 1_445 S
C500 C499 1.410 1_655 S
C500 C501 1.392 . S
C500 C503 1.511 . S
C501 C497 1.376 1_655 S
C501 C500 1.392 . S
C501 H513 0.929 . S
C502 C498 1.522 1_565 S
C502 H514 0.969 . S
C502 H515 0.965 . S
C502 H516 0.956 1_565 S
C503 C500 1.511 . S
C503 H517 0.961 . S
C503 H518 0.961 . S
C503 H519 0.961 . S
C504 C505 1.370 . S
C504 C506 1.363 . S
C504 H520 0.931 . S
C505 C504 1.370 . S
C505 C509 1.408 . S
C506 C504 1.363 . S
C506 C507 1.370 . S
C506 C510 1.524 . S
C507 C499 1.503 1_665 S
C507 C506 1.370 . S
C507 C508 1.403 . S
C508 C507 1.403 . S
C508 C509 1.404 . S
C508 C511 1.539 . S
C509 C505 1.408 . S
C509 C508 1.404 . S
C509 H521 0.930 . S
C510 C506 1.524 . S
C510 H522 0.956 1_655 S
C510 H523 0.961 1_565 S
C510 H524 0.961 . S
C511 C508 1.539 . S
C511 H525 0.958 1_655 S
C511 H526 0.961 . S
C511 H527 0.960 1_565 S
H512 C496 0.931 . S
H513 C501 0.929 . S
H514 C502 0.969 . S
H515 C502 0.965 . S
H516 C502 0.956 1_545 S
H517 C503 0.961 . S
H518 C503 0.961 . S
H519 C503 0.961 . S
H520 C504 0.931 . S
H521 C509 0.930 . S
H522 C510 0.956 1_455 S
H523 C510 0.961 1_545 S
H524 C510 0.961 . S
H525 C511 0.958 1_455 S
H526 C511 0.961 . S
H527 C511 0.960 1_545 S
C528 C529 1.391 . S
C528 C530 1.394 . S
C528 H544 0.931 . S
C529 C528 1.391 . S
C529 C533 1.376 . S
C530 C528 1.394 . S
C530 C531 1.369 . S
C530 C534 1.531 . S
C531 C530 1.369 . S
C531 C532 1.410 1_565 S
C531 C539 1.508 1_455 S
C532 C531 1.410 1_545 S
C532 C533 1.392 1_545 S
C532 C535 1.511 . S
C533 C529 1.376 . S
C533 C532 1.392 1_565 S
C533 H545 0.929 1_565 S
C534 C530 1.531 . S
C534 H546 0.960 1_455 S
C534 H547 0.962 . S
C534 H548 0.960 . S
C535 C532 1.511 . S
C535 H549 0.961 . S
C535 H550 0.961 . S
C535 H551 0.961 . S
C536 C537 1.370 . S
C536 C538 1.363 . S
C536 H552 0.931 . S
C537 C536 1.370 . S
C537 C541 1.408 1_545 S
C538 C536 1.363 . S
C538 C539 1.358 1_545 S
C538 C542 1.524 . S
C539 C531 1.508 1_655 S
C539 C538 1.358 1_565 S
C539 C540 1.411 . S
C540 C539 1.411 . S
C540 C541 1.404 . S
C540 C543 1.539 . S
C541 C537 1.408 1_565 S
C541 C540 1.404 . S
C541 H553 0.930 . S
C542 C538 1.524 . S
C542 H554 0.956 1_655 S
C542 H555 0.961 1_655 S
C542 H556 0.961 . S
C543 C540 1.539 . S
C543 H557 0.958 . S
C543 H558 0.961 . S
C543 H559 0.960 . S
H544 C528 0.931 . S
H545 C533 0.929 1_545 S
H546 C534 0.960 1_655 S
H547 C534 0.962 . S
H548 C534 0.960 . S
H549 C535 0.961 . S
H550 C535 0.961 . S
H551 C535 0.961 . S
H552 C536 0.931 . S
H553 C541 0.930 . S
H554 C542 0.956 1_455 S
H555 C542 0.961 1_455 S
H556 C542 0.961 . S
H557 C543 0.958 . S
H558 C543 0.961 . S
H559 C543 0.960 . S
C560 C561 1.391 . S
C560 C562 1.394 . S
C560 H576 0.931 . S
C561 C560 1.391 . S
C561 C565 1.376 1_655 S
C562 C560 1.394 . S
C562 C563 1.369 . S
C562 C566 1.531 . S
C563 C562 1.369 . S
C563 C564 1.410 1_655 S
C563 C571 1.503 1_645 S
C564 C563 1.410 1_455 S
C564 C565 1.392 . S
C564 C567 1.511 . S
C565 C561 1.376 1_455 S
C565 C564 1.392 . S
C565 H577 0.929 . S
C566 C562 1.531 . S
C566 H578 0.960 1_545 S
C566 H579 0.962 1_545 S
C566 H580 0.960 . S
C567 C564 1.511 . S
C567 H581 0.961 . S
C567 H582 0.961 . S
C567 H583 0.961 . S
C568 C569 1.370 . S
C568 C570 1.363 . S
C568 H584 0.931 . S
C569 C568 1.370 . S
C569 C573 1.408 . S
C570 C568 1.363 . S
C570 C571 1.370 . S
C570 C574 1.524 . S
C571 C563 1.503 1_465 S
C571 C570 1.370 . S
C571 C572 1.403 1_455 S
C572 C571 1.403 1_655 S
C572 C573 1.404 1_655 S
C572 C575 1.539 . S
C573 C569 1.408 . S
C573 C572 1.404 1_455 S
C573 H585 0.930 1_455 S
C574 C570 1.524 . S
C574 H586 0.956 1_565 S
C574 H587 0.961 1_565 S
C574 H588 0.961 . S
C575 C572 1.539 . S
C575 H589 0.958 . S
C575 H590 0.961 . S
C575 H591 0.960 . S
H576 C560 0.931 . S
H577 C565 0.929 . S
H578 C566 0.960 1_565 S
H579 C566 0.962 1_565 S
H580 C566 0.960 . S
H581 C567 0.961 . S
H582 C567 0.961 . S
H583 C567 0.961 . S
H584 C568 0.931 . S
H585 C573 0.930 1_655 S
H586 C574 0.956 1_545 S
H587 C574 0.961 1_545 S
H588 C574 0.961 . S
H589 C575 0.958 . S
H590 C575 0.961 . S
H591 C575 0.960 . S
C592 C593 1.391 . S
C592 C594 1.394 . S
C592 H608 0.931 . S
C593 C592 1.391 . S
C593 C597 1.376 1_565 S
C594 C592 1.394 . S
C594 C595 1.369 . S
C594 C598 1.531 . S
C595 C594 1.369 . S
C595 C596 1.410 1_565 S
C595 C603 1.497 1_665 S
C596 C595 1.410 1_545 S
C596 C597 1.392 . S
C596 C599 1.511 . S
C597 C593 1.376 1_545 S
C597 C596 1.392 . S
C597 H609 0.929 . S
C598 C594 1.531 . S
C598 H610 0.960 1_655 S
C598 H611 0.962 . S
C598 H612 0.960 . S
C599 C596 1.511 . S
C599 H613 0.961 . S
C599 H614 0.961 . S
C599 H615 0.961 . S
C600 C601 1.370 . S
C600 C602 1.363 . S
C600 H616 0.931 . S
C601 C600 1.370 . S
C601 C605 1.408 1_545 S
C602 C600 1.363 . S
C602 C603 1.385 . S
C602 C606 1.524 . S
C603 C595 1.497 1_445 S
C603 C602 1.385 . S
C603 C604 1.394 1_545 S
C604 C603 1.394 1_565 S
C604 C605 1.404 . S
C604 C607 1.539 . S
C605 C601 1.408 1_565 S
C605 C604 1.404 . S
C605 H617 0.930 . S
C606 C602 1.524 . S
C606 H618 0.956 1_455 S
C606 H619 0.961 1_455 S
C606 H620 0.961 . S
C607 C604 1.539 . S
C607 H621 0.958 . S
C607 H622 0.961 . S
C607 H623 0.960 . S
H608 C592 0.931 . S
H609 C597 0.929 . S
H610 C598 0.960 1_455 S
H611 C598 0.962 . S
H612 C598 0.960 . S
H613 C599 0.961 . S
H614 C599 0.961 . S
H615 C599 0.961 . S
H616 C600 0.931 . S
H617 C605 0.930 . S
H618 C606 0.956 1_655 S
H619 C606 0.961 1_655 S
H620 C606 0.961 . S
H621 C607 0.958 . S
H622 C607 0.961 . S
H623 C607 0.960 . S
C113 C3 1.359 . S
C121 C31 1.378 . S
C145 C50 1.403 . S
C153 C22 1.404 . S
C177 C87 1.386 . S
C185 C59 1.378 . S
C209 C78 1.403 . S
C217 C106 1.404 . S
C241 C93 1.502 . S
C249 C9 1.523 . S
C273 C21 1.625 . S
C281 C105 1.585 . S
C305 C37 1.565 . S
C313 C65 1.499 . S
C337 C77 1.582 . S
C345 C49 1.614 . S
C369 C8 1.481 . S
C377 C73 1.416 . S
C401 C92 1.435 . S
C409 C17 1.428 . S
C433 C101 1.453 . S
C441 C36 1.460 . S
C465 C45 1.452 . S
C473 C64 1.456 . S
C497 C7 0.967 . S
C505 C35 0.954 . S
C529 C51 0.914 . S
C537 C23 0.963 . S
C561 C91 0.968 . S
C569 C63 0.950 . S
C593 C107 0.926 . S
C601 C79 0.959 . S
