# Generated by pormake.
# Topology fni, (5)-cn, num edge types: 1
# Building blocks:
#     Node 0, Type 0, BuildingBlock: BEQFEK_clean_sbu_0, # of connection points: 5
#     Node 1, Type 0, BuildingBlock: BEQFEK_clean_sbu_0, # of connection points: 5
#     Node 2, Type 0, BuildingBlock: BEQFEK_clean_sbu_0, # of connection points: 5
#     Node 3, Type 0, BuildingBlock: BEQFEK_clean_sbu_0, # of connection points: 5
#     Node 4, Type 0, BuildingBlock: BEQFEK_clean_sbu_0, # of connection points: 5
#     Node 5, Type 0, BuildingBlock: BEQFEK_clean_sbu_0, # of connection points: 5
#     Node 6, Type 0, BuildingBlock: BEQFEK_clean_sbu_0, # of connection points: 5
#     Node 7, Type 0, BuildingBlock: BEQFEK_clean_sbu_0, # of connection points: 5
#     Edge 8, Type (0, 0), BuildingBlock: KIFKEQ_clean_linker_1, # of connection points: 2
#     Edge 9, Type (0, 0), BuildingBlock: KIFKEQ_clean_linker_1, # of connection points: 2
#     Edge 10, Type (0, 0), BuildingBlock: KIFKEQ_clean_linker_1, # of connection points: 2
#     Edge 11, Type (0, 0), BuildingBlock: KIFKEQ_clean_linker_1, # of connection points: 2
#     Edge 12, Type (0, 0), BuildingBlock: KIFKEQ_clean_linker_1, # of connection points: 2
#     Edge 13, Type (0, 0), BuildingBlock: KIFKEQ_clean_linker_1, # of connection points: 2
#     Edge 14, Type (0, 0), BuildingBlock: KIFKEQ_clean_linker_1, # of connection points: 2
#     Edge 15, Type (0, 0), BuildingBlock: KIFKEQ_clean_linker_1, # of connection points: 2
#     Edge 16, Type (0, 0), BuildingBlock: KIFKEQ_clean_linker_1, # of connection points: 2
#     Edge 17, Type (0, 0), BuildingBlock: KIFKEQ_clean_linker_1, # of connection points: 2
#     Edge 18, Type (0, 0), BuildingBlock: KIFKEQ_clean_linker_1, # of connection points: 2
#     Edge 19, Type (0, 0), BuildingBlock: KIFKEQ_clean_linker_1, # of connection points: 2
#     Edge 20, Type (0, 0), BuildingBlock: KIFKEQ_clean_linker_1, # of connection points: 2
#     Edge 21, Type (0, 0), BuildingBlock: KIFKEQ_clean_linker_1, # of connection points: 2
#     Edge 22, Type (0, 0), BuildingBlock: KIFKEQ_clean_linker_1, # of connection points: 2
#     Edge 23, Type (0, 0), BuildingBlock: KIFKEQ_clean_linker_1, # of connection points: 2
#     Edge 24, Type (0, 0), BuildingBlock: KIFKEQ_clean_linker_1, # of connection points: 2
#     Edge 25, Type (0, 0), BuildingBlock: KIFKEQ_clean_linker_1, # of connection points: 2
#     Edge 26, Type (0, 0), BuildingBlock: KIFKEQ_clean_linker_1, # of connection points: 2
#     Edge 27, Type (0, 0), BuildingBlock: KIFKEQ_clean_linker_1, # of connection points: 2
# Relax obj value: 0.156
# Max RMSD: 0.214
# Mean RMSD: 0.182
data_MOF--net-fni--node1-BEQFEK_clean_sbu_0--edge1-KIFKEQ_clean_linker_1
_symmetry_space_group_name_H-M    P1
_symmetry_Int_Tables_number       1
_symmetry_cell_setting            triclinic
loop_
_symmetry_equiv_pos_as_xyz
'x, y, z'
_cell_length_a     52.039042
_cell_length_b     54.966901
_cell_length_c     19.252372
_cell_angle_alpha  91.230576
_cell_angle_beta   90.425289
_cell_angle_gamma 89.981136
loop_
_atom_site_label
_atom_site_type_symbol
_atom_site_fract_x
_atom_site_fract_y
_atom_site_fract_z
_atom_type_partial_charge
Co0 Co 0.37693 0.39565 0.09477 0.0
Co1 Co 0.39257 0.38083 0.944 0.0
C2 C 0.33726 0.39255 0.98667 0.0
O3 O 0.3426 0.39851 0.04957 0.0
O4 O 0.35471 0.38528 0.94506 0.0
C5 C 0.36197 0.41473 0.23629 0.0
O6 O 0.33989 0.4232 0.21378 0.0
C7 C 0.39155 0.39184 0.79808 0.0
C8 C 0.42108 0.36752 0.75283 0.0
C9 C 0.40319 0.3852 0.73623 0.0
N10 N 0.40188 0.37863 0.849 0.0
N11 N 0.41953 0.36407 0.82179 0.0
C12 C 0.37225 0.41167 0.80979 0.0
H13 H 0.37426 0.41949 0.86318 0.0
H14 H 0.37462 0.42624 0.77131 0.0
H15 H 0.35264 0.40399 0.80377 0.0
C16 C 0.41521 0.43437 0.07075 0.0
N17 N 0.40183 0.41456 0.04973 0.0
N18 N 0.40914 0.40796 0.98691 0.0
C19 C 0.4276 0.42331 0.96596 0.0
C20 C 0.43203 0.4406 0.01838 0.0
C21 C 0.41114 0.44751 0.13866 0.0
H22 H 0.39026 0.44897 0.14912 0.0
H23 H 0.41968 0.466 0.13886 0.0
H24 H 0.42006 0.43689 0.18088 0.0
O25 O 0.38749 0.36101 0.09556 0.0
O26 O 0.40143 0.35014 0.99102 0.0
H27 H 0.44622 0.40116 0.88847 0.0
H28 H 0.45984 0.43119 0.8996 0.0
C29 C 0.4417 0.4206 0.89878 0.0
H30 H 0.42928 0.42711 0.85594 0.0
H31 H 0.43056 0.35189 0.85028 0.0
O32 O 0.37733 0.40433 0.19427 0.0
C33 C 0.39715 0.34519 0.05421 0.0
Co34 Co 0.61288 0.88117 0.33747 0.0
Co35 Co 0.62888 0.89385 0.18713 0.0
C36 C 0.60868 0.84378 0.22712 0.0
O37 O 0.60502 0.8494 0.29092 0.0
O38 O 0.61769 0.85916 0.18506 0.0
C39 C 0.58974 0.87126 0.47694 0.0
O40 O 0.57456 0.85403 0.45208 0.0
C41 C 0.61559 0.89709 0.04163 0.0
C42 C 0.64781 0.91778 -0.002 0.0
C43 C 0.62499 0.90612 0.9804 0.0
N44 N 0.63212 0.90289 0.09313 0.0
N45 N 0.65135 0.91535 0.06694 0.0
C46 C 0.59036 0.8847 0.05212 0.0
H47 H 0.5847 0.8858 0.10755 0.0
H48 H 0.57527 0.89311 0.01935 0.0
H49 H 0.592 0.86532 0.03599 0.0
C50 C 0.5778 0.9229 0.31549 0.0
N51 N 0.59627 0.90743 0.29364 0.0
N52 N 0.60385 0.91365 0.23152 0.0
C53 C 0.59065 0.93352 0.21208 0.0
C54 C 0.57362 0.94001 0.26457 0.0
C55 C 0.5637 0.92049 0.38243 0.0
H56 H 0.57637 0.92657 0.42604 0.0
H57 H 0.55876 0.90112 0.3901 0.0
H58 H 0.54581 0.93146 0.3832 0.0
O59 O 0.65049 0.88615 0.33928 0.0
O60 O 0.66288 0.8968 0.23447 0.0
H61 H 0.61612 0.94692 0.13456 0.0
H62 H 0.58838 0.96593 0.15054 0.0
C63 C 0.59531 0.94686 0.1464 0.0
H64 H 0.58496 0.9375 0.10294 0.0
H65 H 0.66693 0.92202 0.09597 0.0
O66 O 0.60468 0.88243 0.43677 0.0
C67 C 0.66805 0.89245 0.29776 0.0
Co68 Co 0.1139 0.11838 0.44294 0.0
Co69 Co 0.13376 0.10622 0.59206 0.0
C70 C 0.11175 0.15568 0.5551 0.0
O71 O 0.10689 0.14986 0.49192 0.0
O72 O 0.12207 0.14063 0.59625 0.0
C73 C 0.11139 0.13477 0.30663 0.0
O74 O 0.12621 0.15168 0.33489 0.0
C75 C 0.12573 0.10223 0.74129 0.0
C76 C 0.16325 0.08845 0.77757 0.0
C77 C 0.13958 0.09673 0.80082 0.0
N78 N 0.14057 0.0975 0.68571 0.0
N79 N 0.16284 0.08892 0.70768 0.0
C80 C 0.09986 0.11406 0.73727 0.0
H81 H 0.0995 0.13068 0.77106 0.0
H82 H 0.09488 0.11866 0.68308 0.0
H83 H 0.08501 0.1014 0.75609 0.0
C84 C 0.08048 0.07598 0.47044 0.0
N85 N 0.09904 0.09185 0.48966 0.0
N86 N 0.10791 0.08613 0.55138 0.0
C87 C 0.09548 0.06619 0.57305 0.0
C88 C 0.07758 0.05914 0.52264 0.0
C89 C 0.06523 0.07766 0.40452 0.0
H90 H 0.07679 0.07012 0.36089 0.0
H91 H 0.06098 0.09699 0.39372 0.0
H92 H 0.04693 0.06739 0.40744 0.0
O93 O 0.15149 0.11378 0.43431 0.0
O94 O 0.16618 0.10378 0.5382 0.0
H95 H 0.12272 0.05406 0.64917 0.0
H96 H 0.09563 0.03392 0.63529 0.0
C97 C 0.10176 0.05325 0.63865 0.0
H98 H 0.09161 0.06228 0.68257 0.0
H99 H 0.17817 0.08446 0.67518 0.0
O100 O 0.10178 0.1188 0.34545 0.0
C101 C 0.16996 0.10786 0.47418 0.0
Co102 Co 0.87929 0.60804 0.68659 0.0
Co103 Co 0.89541 0.62437 0.83674 0.0
C104 C 0.83991 0.61298 0.7941 0.0
O105 O 0.84514 0.60602 0.73215 0.0
O106 O 0.85744 0.6207 0.83548 0.0
C107 C 0.8607 0.60006 0.54468 0.0
O108 O 0.8383 0.60832 0.56558 0.0
C109 C 0.89354 0.61854 0.98609 0.0
C110 C 0.92732 0.63917 0.02479 0.0
C111 C 0.90676 0.62522 0.04585 0.0
N112 N 0.90551 0.62817 0.93161 0.0
N113 N 0.92571 0.64054 0.95499 0.0
C114 C 0.87108 0.6016 0.98058 0.0
H115 H 0.87166 0.59107 0.9308 0.0
H116 H 0.87097 0.58886 0.02456 0.0
H117 H 0.85309 0.61237 0.98243 0.0
C118 C 0.91728 0.56935 0.71482 0.0
N119 N 0.90419 0.5895 0.73403 0.0
N120 N 0.91126 0.59628 0.7972 0.0
C121 C 0.92907 0.58054 0.82055 0.0
C122 C 0.93349 0.56292 0.76906 0.0
C123 C 0.91525 0.55756 0.64416 0.0
H124 H 0.92007 0.5711 0.60441 0.0
H125 H 0.89513 0.55159 0.63464 0.0
H126 H 0.92839 0.54181 0.63798 0.0
O127 O 0.89009 0.64248 0.68156 0.0
O128 O 0.90461 0.65414 0.78551 0.0
H129 H 0.95108 0.59911 0.89948 0.0
H130 H 0.95377 0.56629 0.90163 0.0
C131 C 0.94055 0.58169 0.89207 0.0
H132 H 0.92496 0.58121 0.93088 0.0
H133 H 0.93846 0.64976 0.92332 0.0
O134 O 0.8787 0.59729 0.58857 0.0
C135 C 0.90015 0.65854 0.72182 0.0
Co136 Co 0.40389 0.13697 0.33675 0.0
Co137 Co 0.39031 0.12186 0.18267 0.0
C138 C 0.4041 0.1737 0.22738 0.0
O139 O 0.4094 0.16863 0.29018 0.0
O140 O 0.39619 0.15736 0.18463 0.0
C141 C 0.4302 0.1462 0.47411 0.0
O142 O 0.45209 0.15077 0.44353 0.0
C143 C 0.40205 0.1228 0.03511 0.0
C144 C 0.37774 0.09362 0.98947 0.0
C145 C 0.39537 0.11142 0.97275 0.0
N146 N 0.3889 0.11241 0.08647 0.0
N147 N 0.37438 0.09493 0.05889 0.0
C148 C 0.42225 0.14188 0.04643 0.0
H149 H 0.43101 0.14031 0.09887 0.0
H150 H 0.43743 0.1402 0.00641 0.0
H151 H 0.41333 0.16011 0.04237 0.0
C152 C 0.44082 0.09534 0.31759 0.0
N153 N 0.42287 0.11097 0.29411 0.0
N154 N 0.41746 0.10525 0.22879 0.0
C155 C 0.43219 0.08627 0.20831 0.0
C156 C 0.44744 0.07932 0.2639 0.0
C157 C 0.44941 0.09389 0.3917 0.0
H158 H 0.43323 0.09825 0.42684 0.0
H159 H 0.46517 0.10713 0.40136 0.0
H160 H 0.45672 0.07545 0.40351 0.0
O161 O 0.367 0.12871 0.33331 0.0
O162 O 0.35662 0.11518 0.22747 0.0
H163 H 0.41295 0.06705 0.12537 0.0
H164 H 0.44723 0.06153 0.12893 0.0
C165 C 0.43199 0.07541 0.13631 0.0
H166 H 0.43514 0.08996 0.09841 0.0
H167 H 0.36215 0.08396 0.08737 0.0
O168 O 0.41044 0.14057 0.43815 0.0
C169 C 0.35056 0.11999 0.29035 0.0
Co170 Co 0.88868 0.88046 0.59219 0.0
Co171 Co 0.90441 0.86719 0.43911 0.0
C172 C 0.85005 0.8819 0.47932 0.0
O173 O 0.85564 0.88665 0.54275 0.0
O174 O 0.86695 0.87384 0.43727 0.0
C175 C 0.87878 0.90515 0.73037 0.0
O176 O 0.87368 0.92603 0.70145 0.0
C177 C 0.9056 0.87755 0.29081 0.0
C178 C 0.93595 0.85285 0.25158 0.0
C179 C 0.91837 0.87026 0.23073 0.0
N180 N 0.91542 0.86522 0.34449 0.0
N181 N 0.93364 0.85058 0.32079 0.0
C182 C 0.88281 0.89408 0.29739 0.0
H183 H 0.8842 0.90493 0.34655 0.0
H184 H 0.88064 0.90645 0.25333 0.0
H185 H 0.86522 0.88278 0.29922 0.0
C186 C 0.93238 0.91547 0.57725 0.0
N187 N 0.91647 0.89786 0.5527 0.0
N188 N 0.92248 0.89267 0.48767 0.0
C189 C 0.94191 0.90724 0.46841 0.0
C190 C 0.94883 0.92218 0.52456 0.0
C191 C 0.93324 0.92455 0.65102 0.0
H192 H 0.92911 0.90949 0.68656 0.0
H193 H 0.91865 0.93905 0.65826 0.0
H194 H 0.95238 0.93231 0.66443 0.0
O195 O 0.89639 0.84539 0.58858 0.0
O196 O 0.91034 0.83511 0.48358 0.0
H197 H 0.96115 0.89001 0.38278 0.0
H198 H 0.96688 0.92241 0.39024 0.0
C199 C 0.95239 0.90787 0.39626 0.0
H200 H 0.93647 0.91122 0.35922 0.0
H201 H 0.94422 0.83878 0.35169 0.0
O202 O 0.88492 0.88671 0.69326 0.0
C203 C 0.90512 0.82955 0.54585 0.0
Co204 Co 0.10103 0.36672 0.84734 0.0
Co205 Co 0.11567 0.37868 0.69564 0.0
C206 C 0.10008 0.32785 0.74022 0.0
O207 O 0.09638 0.33397 0.8036 0.0
O208 O 0.10743 0.34324 0.69592 0.0
C209 C 0.07853 0.35498 0.98511 0.0
O210 O 0.06639 0.33581 0.95956 0.0
C211 C 0.10338 0.37939 0.54909 0.0
C212 C 0.1318 0.40496 0.50732 0.0
C213 C 0.11134 0.39003 0.48859 0.0
N214 N 0.11848 0.38747 0.6014 0.0
N215 N 0.13549 0.40275 0.57627 0.0
C216 C 0.08067 0.36314 0.55809 0.0
H217 H 0.07361 0.36439 0.61229 0.0
H218 H 0.065 0.36802 0.52152 0.0
H219 H 0.0865 0.34411 0.54638 0.0
C220 C 0.06305 0.40589 0.82254 0.0
N221 N 0.08217 0.39107 0.80119 0.0
N222 N 0.0889 0.39686 0.73799 0.0
C223 C 0.07434 0.41568 0.71711 0.0
C224 C 0.05743 0.42201 0.77001 0.0
C225 C 0.05016 0.40422 0.89149 0.0
H226 H 0.04562 0.38493 0.90178 0.0
H227 H 0.03217 0.41504 0.89337 0.0
H228 H 0.06349 0.41095 0.93285 0.0
O229 O 0.13794 0.37489 0.84974 0.0
O230 O 0.14917 0.38492 0.74344 0.0
H231 H 0.06832 0.44655 0.65067 0.0
H232 H 0.06968 0.41721 0.60698 0.0
C233 C 0.0779 0.42851 0.65007 0.0
H234 H 0.09867 0.43108 0.64029 0.0
H235 H 0.14949 0.41175 0.6062 0.0
O236 O 0.09211 0.36793 0.9459 0.0
C237 C 0.15478 0.38202 0.80724 0.0
Co238 Co 0.6042 0.63191 0.9371 0.0
Co239 Co 0.62013 0.62102 0.08936 0.0
C240 C 0.60281 0.67114 0.04356 0.0
O241 O 0.59891 0.66468 0.98037 0.0
O242 O 0.61097 0.65619 0.0883 0.0
C243 C 0.58291 0.6448 0.79858 0.0
O244 O 0.5744 0.66584 0.82256 0.0
C245 C 0.61171 0.62206 0.23808 0.0
C246 C 0.63688 0.5927 0.27561 0.0
C247 C 0.61929 0.61015 0.2972 0.0
N248 N 0.62429 0.61229 0.18368 0.0
N249 N 0.63943 0.59481 0.20636 0.0
C250 C 0.59103 0.64083 0.23235 0.0
H251 H 0.58113 0.63907 0.18126 0.0
H252 H 0.57674 0.63904 0.27444 0.0
H253 H 0.59994 0.65912 0.23706 0.0
C254 C 0.56734 0.59214 0.96342 0.0
N255 N 0.5864 0.60727 0.98411 0.0
N256 N 0.59329 0.60221 0.04801 0.0
C257 C 0.57868 0.58372 0.07037 0.0
C258 C 0.56177 0.57669 0.01743 0.0
C259 C 0.55616 0.59151 0.89151 0.0
H260 H 0.57179 0.58836 0.85349 0.0
H261 H 0.54733 0.60942 0.88054 0.0
H262 H 0.54161 0.57695 0.88424 0.0
O263 O 0.64119 0.62463 0.93395 0.0
O264 O 0.65346 0.61551 0.04059 0.0
H265 H 0.59957 0.56608 0.15104 0.0
H266 H 0.56549 0.55955 0.15058 0.0
C267 C 0.58016 0.57377 0.14207 0.0
H268 H 0.57704 0.58871 0.18057 0.0
H269 H 0.65117 0.58406 0.17443 0.0
O270 O 0.59433 0.63035 0.83892 0.0
C271 C 0.65853 0.61819 0.97656 0.0
H272 H 0.56984 0.52925 0.04854 0.0
H273 H 0.51072 0.57958 0.9871 0.0
H274 H 0.53817 0.49635 0.04959 0.0
H275 H 0.47898 0.54669 0.98732 0.0
H276 H 0.43779 0.47522 0.92089 0.0
H277 H 0.46926 0.50833 0.92054 0.0
H278 H 0.49964 0.48447 0.11715 0.0
H279 H 0.46836 0.4512 0.11666 0.0
C280 C 0.55 0.53322 0.03564 0.0
C281 C 0.54261 0.55685 0.01786 0.0
C282 C 0.5319 0.51446 0.03628 0.0
C283 C 0.50609 0.51895 0.01857 0.0
C284 C 0.49877 0.54263 0.00045 0.0
C285 C 0.51686 0.56142 0.00037 0.0
C286 C 0.45128 0.47711 0.96379 0.0
C287 C 0.45077 0.46078 0.01877 0.0
C288 C 0.46913 0.4961 0.96391 0.0
C289 C 0.48691 0.49899 0.01883 0.0
C290 C 0.48633 0.48258 0.07383 0.0
C291 C 0.46836 0.46369 0.07389 0.0
H292 H 0.49707 0.0803 0.30932 0.0
H293 H 0.43873 0.03205 0.22558 0.0
H294 H 0.52775 0.04654 0.31081 0.0
H295 H 0.46924 0.99824 0.22688 0.0
H296 H 0.53876 0.95153 0.16463 0.0
H297 H 0.50828 0.98538 0.16572 0.0
H298 H 0.53606 0.00796 0.36915 0.0
H299 H 0.567 0.97442 0.36685 0.0
C300 C 0.49084 0.0624 0.29162 0.0
C301 C 0.46572 0.05875 0.26655 0.0
C302 C 0.50832 0.04308 0.29259 0.0
C303 C 0.50097 0.01974 0.26851 0.0
C304 C 0.47564 0.01609 0.24454 0.0
C305 C 0.45818 0.03539 0.24381 0.0
C306 C 0.53839 0.96386 0.20928 0.0
C307 C 0.55513 0.96044 0.26567 0.0
C308 C 0.52081 0.98308 0.21026 0.0
C309 C 0.51969 0.99931 0.26764 0.0
C310 C 0.53659 0.9959 0.32395 0.0
C311 C 0.55412 0.97661 0.32298 0.0
H312 H 0.99916 0.91919 0.48639 0.0
H313 H 0.94249 0.969 0.56911 0.0
H314 H 0.03102 0.95198 0.48731 0.0
H315 H 0.97426 1.00176 0.57075 0.0
H316 H 0.04501 0.04789 0.62695 0.0
H317 H 0.01461 0.014 0.63028 0.0
H318 H 0.03859 0.99042 0.42526 0.0
H319 H 0.06935 0.02406 0.42288 0.0
C320 C 0.99356 0.93721 0.50448 0.0
C321 C 0.9684 0.9417 0.52712 0.0
C322 C 0.01173 0.95594 0.50504 0.0
C323 C 0.00512 0.97947 0.52891 0.0
C324 C 0.98002 0.98378 0.55276 0.0
C325 C 0.96184 0.96508 0.55178 0.0
C326 C 0.04385 0.03531 0.58295 0.0
C327 C 0.05939 0.03852 0.52461 0.0
C328 C 0.02635 0.01606 0.58456 0.0
C329 C 0.02417 0.99957 0.52797 0.0
C330 C 0.03998 0.00269 0.46991 0.0
C331 C 0.05738 0.02203 0.4682 0.0
H332 H 0.05335 0.4583 0.86755 0.0
H333 H 0.01984 0.43129 0.67539 0.0
H334 H 0.02291 0.49227 0.86918 0.0
H335 H 0.98956 0.46542 0.67615 0.0
H336 H 0.92251 0.51516 0.7439 0.0
H337 H 0.95227 0.48066 0.74497 0.0
H338 H 0.01451 0.52945 0.80076 0.0
H339 H 0.98468 0.5639 0.79889 0.0
C340 C 0.03934 0.45965 0.82588 0.0
C341 C 0.03878 0.44227 0.77145 0.0
C342 C 0.0221 0.47914 0.82645 0.0
C343 C 0.00386 0.48152 0.77277 0.0
C344 C 0.00323 0.46395 0.71857 0.0
C345 C 0.0206 0.44455 0.71782 0.0
C346 C 0.94259 0.51842 0.75603 0.0
C347 C 0.9514 0.54207 0.77122 0.0
C348 C 0.9596 0.49875 0.75659 0.0
C349 C 0.98572 0.50236 0.77291 0.0
C350 C 0.99444 0.52606 0.78879 0.0
C351 C 0.97744 0.54575 0.7877 0.0
H352 H 0.40454 0.3954 0.29585 0.0
H353 H 0.33488 0.43468 0.34608 0.0
H354 H 0.41444 0.39187 0.41762 0.0
H355 H 0.34554 0.4321 0.46978 0.0
H356 H 0.35608 0.39098 0.67645 0.0
H357 H 0.34654 0.40235 0.55741 0.0
H358 H 0.42784 0.41136 0.52005 0.0
H359 H 0.4372 0.39882 0.63839 0.0
C360 C 0.39148 0.4037 0.33297 0.0
C361 C 0.36874 0.41514 0.31108 0.0
C362 C 0.39736 0.40188 0.40324 0.0
C363 C 0.38086 0.41174 0.45393 0.0
C364 C 0.35851 0.42399 0.43215 0.0
C365 C 0.35246 0.42562 0.36132 0.0
C366 C 0.37182 0.39577 0.64292 0.0
C367 C 0.39736 0.39406 0.66621 0.0
C368 C 0.36638 0.4024 0.57474 0.0
C369 C 0.3864 0.40767 0.52873 0.0
C370 C 0.41194 0.40691 0.55344 0.0
C371 C 0.41736 0.39984 0.62119 0.0
H372 H 0.61987 0.93991 0.88063 0.0
H373 H 0.60761 0.86387 0.92047 0.0
H374 H 0.60597 0.93325 0.76027 0.0
H375 H 0.59452 0.8569 0.80014 0.0
H376 H 0.62076 0.90471 0.54044 0.0
H377 H 0.62498 0.91422 0.66274 0.0
H378 H 0.5644 0.86314 0.70704 0.0
H379 H 0.56075 0.85282 0.58292 0.0
C380 C 0.61397 0.92183 0.86359 0.0
C381 C 0.61455 0.90247 0.90967 0.0
C382 C 0.60611 0.91795 0.79476 0.0
C383 C 0.59929 0.89447 0.7703 0.0
C384 C 0.59916 0.87527 0.81734 0.0
C385 C 0.60668 0.87925 0.88639 0.0
C386 C 0.60814 0.89552 0.57588 0.0
C387 C 0.59052 0.87781 0.55181 0.0
C388 C 0.6104 0.90123 0.64634 0.0
C389 C 0.59494 0.88958 0.69494 0.0
C390 C 0.57678 0.87228 0.67094 0.0
C391 C 0.57461 0.86642 0.59993 0.0
H392 H 0.17108 0.11628 0.89959 0.0
H393 H 0.09373 0.08971 0.86787 0.0
H394 H 0.16094 0.12707 0.01963 0.0
H395 H 0.08324 0.10131 0.98761 0.0
H396 H 0.13079 0.16496 0.20937 0.0
H397 H 0.13503 0.15669 0.08521 0.0
H398 H 0.09417 0.08891 0.10658 0.0
H399 H 0.08949 0.09734 0.23079 0.0
C400 C 0.15185 0.11287 0.91823 0.0
C401 C 0.13307 0.10258 0.87394 0.0
C402 C 0.14594 0.11931 0.98675 0.0
C403 C 0.12115 0.11542 0.01282 0.0
C404 C 0.10246 0.10466 0.96891 0.0
C405 C 0.10837 0.09831 0.90006 0.0
C406 C 0.12232 0.14848 0.18749 0.0
C407 C 0.11008 0.13168 0.23013 0.0
C408 C 0.12492 0.14366 0.11639 0.0
C409 C 0.11534 0.12194 0.08632 0.0
C410 C 0.10171 0.10583 0.12815 0.0
C411 C 0.09909 0.11065 0.19939 0.0
H412 H 0.86237 0.63607 0.11157 0.0
H413 H 0.93561 0.60092 0.13965 0.0
H414 H 0.85077 0.62705 0.23057 0.0
H415 H 0.92355 0.58998 0.25718 0.0
H416 H 0.90814 0.60145 0.48724 0.0
H417 H 0.91883 0.60582 0.36646 0.0
H418 H 0.83835 0.5991 0.31069 0.0
H419 H 0.82756 0.59653 0.43346 0.0
C420 C 0.87581 0.6261 0.14344 0.0
C421 C 0.89991 0.61936 0.11744 0.0
C422 C 0.8691 0.62061 0.21139 0.0
C423 C 0.88614 0.60769 0.25422 0.0
C424 C 0.9101 0.60045 0.22681 0.0
C425 C 0.91705 0.60657 0.15943 0.0
C426 C 0.89269 0.60062 0.44921 0.0
C427 C 0.86694 0.59883 0.46996 0.0
C428 C 0.89887 0.60298 0.3794 0.0
C429 C 0.87951 0.603 0.32803 0.0
C430 C 0.85379 0.59984 0.34864 0.0
C431 C 0.84755 0.59809 0.41897 0.0
H432 H 0.3974 0.15651 0.91758 0.0
H433 H 0.41125 0.08066 0.86885 0.0
H434 H 0.40902 0.16706 0.79898 0.0
H435 H 0.42336 0.09132 0.75016 0.0
H436 H 0.4661 0.12839 0.56417 0.0
H437 H 0.4602 0.12068 0.68849 0.0
H438 H 0.38461 0.15277 0.67881 0.0
H439 H 0.39012 0.15974 0.5548 0.0
C440 C 0.40343 0.14218 0.88185 0.0
C441 C 0.40367 0.1178 0.90227 0.0
C442 C 0.40996 0.1482 0.8141 0.0
C443 C 0.41727 0.13 0.76598 0.0
C444 C 0.41809 0.10567 0.78678 0.0
C445 C 0.41101 0.09958 0.85422 0.0
C446 C 0.44846 0.13415 0.58911 0.0
C447 C 0.42858 0.14472 0.55029 0.0
C448 C 0.44502 0.12959 0.65979 0.0
C449 C 0.42196 0.13615 0.69278 0.0
C450 C 0.4026 0.14768 0.65452 0.0
C451 C 0.40575 0.15164 0.58375 0.0
H452 H 0.9115 0.91588 0.17782 0.0
H453 H 0.91502 0.83985 0.11859 0.0
H454 H 0.89855 0.92594 0.05998 0.0
H455 H 0.9047 0.84991 -0.0007 0.0
H456 H 0.86213 0.86793 0.80724 0.0
H457 H 0.87062 0.86101 0.92955 0.0
H458 H 0.91101 0.92976 0.94509 0.0
H459 H 0.90077 0.93721 0.82325 0.0
C460 C 0.90913 0.90128 0.1397 0.0
C461 C 0.91293 0.87695 0.15808 0.0
C462 C 0.9023 0.90709 0.0716 0.0
C463 C 0.89992 0.88872 0.01987 0.0
C464 C 0.9053 0.86451 0.03791 0.0
C465 C 0.91161 0.85872 0.10617 0.0
C466 C 0.87235 0.88175 0.83745 0.0
C467 C 0.88074 0.90311 0.80628 0.0
C468 C 0.87758 0.87767 0.90735 0.0
C469 C 0.89208 0.89453 0.94735 0.0
C470 C 0.89964 0.91641 0.91646 0.0
C471 C 0.89379 0.92075 0.84664 0.0
H472 H 0.10099 0.34641 0.42525 0.0
H473 H 0.09969 0.4238 0.39272 0.0
H474 H 0.08791 0.33894 0.30505 0.0
H475 H 0.08551 0.41657 0.27288 0.0
H476 H 0.10231 0.39325 0.04931 0.0
H477 H 0.10577 0.40227 0.17195 0.0
H478 H 0.05632 0.34126 0.21491 0.0
H479 H 0.05372 0.33147 0.09036 0.0
C480 C 0.09718 0.36183 0.39269 0.0
C481 C 0.10128 0.38567 0.41784 0.0
C482 C 0.08958 0.35758 0.32385 0.0
C483 C 0.08575 0.37713 0.27902 0.0
C484 C 0.08878 0.40105 0.30552 0.0
C485 C 0.09682 0.40526 0.37404 0.0
C486 C 0.09196 0.38175 0.08455 0.0
C487 C 0.07798 0.3614 0.05999 0.0
C488 C 0.09372 0.38715 0.15525 0.0
C489 C 0.0813 0.37254 0.20359 0.0
C490 C 0.06641 0.3527 0.17904 0.0
C491 C 0.0648 0.34715 0.10777 0.0
H492 H 0.60042 0.60325 0.73671 0.0
H493 H 0.56442 0.67202 0.69068 0.0
H494 H 0.6058 0.5947 0.61445 0.0
H495 H 0.56868 0.66279 0.56645 0.0
H496 H 0.61609 0.65372 0.3655 0.0
H497 H 0.60244 0.66146 0.48468 0.0
H498 H 0.58756 0.58457 0.50707 0.0
H499 H 0.60251 0.57694 0.38866 0.0
C500 C 0.59315 0.6164 0.70034 0.0
C501 C 0.58234 0.63854 0.72357 0.0
C502 C 0.59602 0.61133 0.62978 0.0
C503 C 0.58783 0.62809 0.58026 0.0
C504 C 0.57568 0.64968 0.60328 0.0
C505 C 0.57303 0.65491 0.67438 0.0
C506 C 0.6097 0.63857 0.39602 0.0
C507 C 0.61035 0.61476 0.36852 0.0
C508 C 0.60166 0.64299 0.46408 0.0
C509 C 0.59384 0.62366 0.50571 0.0
C510 C 0.59388 0.59986 0.47704 0.0
C511 C 0.60239 0.59543 0.40935 0.0
H512 H 0.17285 0.37658 0.93945 0.0
H513 H 0.19687 0.39745 0.73465 0.0
H514 H 0.21655 0.38149 0.9822 0.0
H515 H 0.24073 0.40298 0.77825 0.0
H516 H 0.31935 0.37735 0.85953 0.0
H517 H 0.27549 0.37745 0.81637 0.0
H518 H 0.25013 0.41042 0.00975 0.0
H519 H 0.29429 0.40992 0.0539 0.0
C520 C 0.1874 0.38246 0.90355 0.0
C521 C 0.18132 0.38643 0.83332 0.0
C522 C 0.21249 0.38548 0.92838 0.0
C523 C 0.2322 0.39261 0.88376 0.0
C524 C 0.22605 0.39715 0.81384 0.0
C525 C 0.20089 0.39408 0.78888 0.0
C526 C 0.30453 0.38483 0.89291 0.0
C527 C 0.31041 0.3936 0.9604 0.0
C528 C 0.27932 0.38502 0.86781 0.0
C529 C 0.25924 0.39399 0.90941 0.0
C530 C 0.26511 0.40312 0.97659 0.0
C531 C 0.29043 0.40291 0.00186 0.0
H532 H 0.59845 0.82927 0.09378 0.0
H533 H 0.60747 0.80164 0.30056 0.0
H534 H 0.59281 0.78822 0.04767 0.0
H535 H 0.60351 0.7602 0.25419 0.0
H536 H 0.58009 0.68784 0.16183 0.0
H537 H 0.57787 0.72967 0.20569 0.0
H538 H 0.61619 0.75371 0.02054 0.0
H539 H 0.61707 0.71189 0.97592 0.0
C540 C 0.59924 0.81437 0.12944 0.0
C541 C 0.60343 0.81874 0.20079 0.0
C542 C 0.59627 0.79071 0.10288 0.0
C543 C 0.59801 0.77064 0.14676 0.0
C544 C 0.60164 0.77508 0.21861 0.0
C545 C 0.60407 0.79888 0.24537 0.0
C546 C 0.58787 0.70217 0.1306 0.0
C547 C 0.59897 0.6967 0.06593 0.0
C548 C 0.58674 0.72617 0.15578 0.0
C549 C 0.59714 0.74526 0.11736 0.0
C550 C 0.60759 0.7397 0.05146 0.0
C551 C 0.60823 0.71571 0.02574 0.0
H552 H 0.33207 0.12929 0.42022 0.0
H553 H 0.30893 0.10113 0.21788 0.0
H554 H 0.2888 0.12393 0.46233 0.0
H555 H 0.26532 0.09515 0.26111 0.0
H556 H 0.18519 0.1187 0.34276 0.0
H557 H 0.22861 0.11924 0.29712 0.0
H558 H 0.25789 0.09388 0.49331 0.0
H559 H 0.21443 0.09397 0.53982 0.0
C560 C 0.3178 0.12173 0.38468 0.0
C561 C 0.32405 0.11572 0.31539 0.0
C562 C 0.29293 0.11845 0.40921 0.0
C563 C 0.27354 0.10898 0.36535 0.0
C564 C 0.27976 0.1027 0.29614 0.0
C565 C 0.30477 0.10603 0.27141 0.0
C566 C 0.20084 0.11309 0.3762 0.0
C567 C 0.1963 0.10651 0.44532 0.0
C568 C 0.22577 0.11323 0.34971 0.0
C569 C 0.2468 0.10673 0.39155 0.0
C570 C 0.24217 0.0994 0.45998 0.0
C571 C 0.21723 0.09935 0.48661 0.0
H572 H 0.89046 0.67443 0.59068 0.0
H573 H 0.92201 0.69803 0.78926 0.0
H574 H 0.89539 0.71528 0.54717 0.0
H575 H 0.92765 0.73891 0.74476 0.0
H576 H 0.92097 0.78886 0.47147 0.0
H577 H 0.92422 0.74715 0.5128 0.0
H578 H 0.8995 0.77166 0.71634 0.0
H579 H 0.89692 0.81297 0.67611 0.0
C580 C 0.89881 0.68825 0.62488 0.0
C581 C 0.90555 0.68296 0.6939 0.0
C582 C 0.90183 0.7117 0.59957 0.0
C583 C 0.91177 0.73048 0.64248 0.0
C584 C 0.91951 0.72497 0.71063 0.0
C585 C 0.91639 0.7015 0.7361 0.0
C586 C 0.91649 0.78532 0.52516 0.0
C587 C 0.90855 0.80429 0.57021 0.0
C588 C 0.91824 0.76142 0.54882 0.0
C589 C 0.91213 0.75601 0.61799 0.0
C590 C 0.90479 0.77512 0.66315 0.0
C591 C 0.90307 0.79889 0.63969 0.0
H592 H 0.82953 0.86516 0.35661 0.0
H593 H 0.81018 0.90627 0.5428 0.0
H594 H 0.78618 0.87058 0.31237 0.0
H595 H 0.76649 0.91173 0.49811 0.0
H596 H 0.68468 0.88717 0.43137 0.0
H597 H 0.72859 0.88673 0.47477 0.0
H598 H 0.75636 0.90107 0.26876 0.0
H599 H 0.7122 0.90109 0.22463 0.0
C600 C 0.81615 0.8757 0.38775 0.0
C601 C 0.82347 0.88547 0.45308 0.0
C602 C 0.79124 0.87884 0.36218 0.0
C603 C 0.77289 0.89173 0.40139 0.0
C604 C 0.78014 0.90156 0.46679 0.0
C605 C 0.80517 0.89845 0.49238 0.0
C606 C 0.70008 0.89038 0.39516 0.0
C607 C 0.69486 0.89397 0.32425 0.0
C608 C 0.72531 0.89031 0.42032 0.0
C609 C 0.74601 0.8938 0.37529 0.0
C610 C 0.74083 0.89802 0.30467 0.0
C611 C 0.71552 0.89815 0.27942 0.0
H612 H 0.10044 0.16938 0.68801 0.0
H613 H 0.11036 0.19791 0.48288 0.0
H614 H 0.09346 0.21029 0.73449 0.0
H615 H 0.1051 0.2391 0.52962 0.0
H616 H 0.07948 0.31071 0.61875 0.0
H617 H 0.07855 0.26886 0.57494 0.0
H618 H 0.11496 0.24552 0.76513 0.0
H619 H 0.11433 0.28733 0.80978 0.0
C620 C 0.10122 0.18449 0.65289 0.0
C621 C 0.106 0.18048 0.58184 0.0
C622 C 0.09743 0.20804 0.67963 0.0
C623 C 0.09894 0.22828 0.63628 0.0
C624 C 0.1033 0.2241 0.56476 0.0
C625 C 0.1065 0.20046 0.53778 0.0
C626 C 0.08706 0.29653 0.65117 0.0
C627 C 0.09714 0.30221 0.7173 0.0
C628 C 0.08671 0.2725 0.62598 0.0
C629 C 0.09703 0.2536 0.66577 0.0
C630 C 0.10647 0.25935 0.73303 0.0
C631 C 0.10624 0.28336 0.75877 0.0
H632 H 0.70252 0.60818 0.05083 0.0
H633 H 0.67459 0.61991 0.84215 0.0
H634 H 0.74628 0.60457 0.00644 0.0
H635 H 0.71811 0.61679 0.79845 0.0
H636 H 0.82131 0.63353 0.91362 0.0
H637 H 0.77789 0.63205 0.95825 0.0
H638 H 0.75402 0.58923 0.7784 0.0
H639 H 0.79779 0.59078 0.73316 0.0
C640 C 0.70565 0.60988 0.99559 0.0
C641 C 0.68502 0.61451 0.95026 0.0
C642 C 0.73074 0.60794 0.97016 0.0
C643 C 0.73571 0.6105 0.89887 0.0
C644 C 0.71497 0.61444 0.85345 0.0
C645 C 0.68998 0.61643 0.87878 0.0
C646 C 0.80694 0.62353 0.88375 0.0
C647 C 0.81314 0.6121 0.81994 0.0
C648 C 0.782 0.62262 0.90962 0.0
C649 C 0.76249 0.61036 0.87228 0.0
C650 C 0.76859 0.59896 0.80827 0.0
C651 C 0.79366 0.59983 0.78234 0.0
H652 H 0.39189 0.32946 0.18698 0.0
H653 H 0.4144 0.30494 0.9814 0.0
H654 H 0.39681 0.28835 0.22899 0.0
H655 H 0.41984 0.26373 0.02415 0.0
H656 H 0.38836 0.19104 0.10258 0.0
H657 H 0.39057 0.23229 0.06148 0.0
H658 H 0.42682 0.2555 0.2543 0.0
H659 H 0.42451 0.21381 0.29613 0.0
C660 C 0.39819 0.31536 0.1508 0.0
C661 C 0.40247 0.3205 0.08048 0.0
C662 C 0.40122 0.29179 0.17519 0.0
C663 C 0.40859 0.27271 0.12994 0.0
C664 C 0.41378 0.27797 0.06016 0.0
C665 C 0.41077 0.30161 0.0357 0.0
C666 C 0.3972 0.20476 0.1361 0.0
C667 C 0.40641 0.19899 0.20266 0.0
C668 C 0.39853 0.22849 0.11224 0.0
C669 C 0.40902 0.24721 0.15431 0.0
C670 C 0.41847 0.2415 0.22075 0.0
C671 C 0.4172 0.21762 0.24469 0.0
loop_
_geom_bond_atom_site_label_1
_geom_bond_atom_site_label_2
_geom_bond_distance
_geom_bond_site_symmetry_2
_ccdc_geom_bond_type
Co0 O3 1.970 . S
Co0 N17 1.989 . S
Co0 O25 1.967 . S
Co0 O32 1.920 . S
Co1 O4 1.966 . S
Co1 N10 2.022 . S
Co1 N18 1.993 . S
Co1 O26 1.941 . S
C2 O3 1.258 . S
C2 O4 1.263 1_554 S
O3 Co0 1.970 . S
O3 C2 1.258 . S
O4 Co1 1.966 . S
O4 C2 1.263 1_556 S
C5 O6 1.235 . S
C5 O32 1.289 . S
O6 C5 1.235 . S
C7 C9 1.400 . S
C7 N10 1.351 . S
C7 C12 1.501 . S
C8 C9 1.387 . S
C8 N11 1.341 . S
C9 C7 1.400 . S
C9 C8 1.387 . S
N10 Co1 2.022 . S
N10 C7 1.351 . S
N10 N11 1.365 . S
N11 C8 1.341 . S
N11 N10 1.365 . S
N11 H31 0.862 . S
C12 C7 1.501 . S
C12 H13 0.961 . S
C12 H14 0.961 . S
C12 H15 0.960 . S
H13 C12 0.961 . S
H14 C12 0.961 . S
H15 C12 0.960 . S
C16 N17 1.342 . S
C16 C20 1.401 . S
C16 C21 1.499 . S
N17 Co0 1.989 . S
N17 C16 1.342 . S
N17 N18 1.388 1_554 S
N18 Co1 1.993 . S
N18 N17 1.388 1_556 S
N18 C19 1.346 . S
C19 N18 1.346 . S
C19 C20 1.396 1_556 S
C19 C29 1.510 . S
C20 C16 1.401 . S
C20 C19 1.396 1_554 S
C21 C16 1.499 . S
C21 H22 0.959 . S
C21 H23 0.960 . S
C21 H24 0.961 . S
H22 C21 0.959 . S
H23 C21 0.960 . S
H24 C21 0.961 . S
O25 Co0 1.967 . S
O25 C33 1.258 . S
O26 Co1 1.941 . S
O26 C33 1.266 1_556 S
H27 C29 0.959 . S
H28 C29 0.961 . S
C29 C19 1.510 . S
C29 H27 0.959 . S
C29 H28 0.961 . S
C29 H30 0.960 . S
H30 C29 0.960 . S
H31 N11 0.862 . S
O32 Co0 1.920 . S
O32 C5 1.289 . S
C33 O25 1.258 . S
C33 O26 1.266 1_554 S
Co34 O37 1.970 . S
Co34 N51 1.989 . S
Co34 O59 1.967 . S
Co34 O66 1.920 . S
Co35 O38 1.966 . S
Co35 N44 2.022 . S
Co35 N52 1.993 . S
Co35 O60 1.941 . S
C36 O37 1.258 . S
C36 O38 1.263 . S
O37 Co34 1.970 . S
O37 C36 1.258 . S
O38 Co35 1.966 . S
O38 C36 1.263 . S
C39 O40 1.235 . S
C39 O66 1.289 . S
O40 C39 1.235 . S
C41 C43 1.400 1_554 S
C41 N44 1.351 . S
C41 C46 1.501 . S
C42 C43 1.387 . S
C42 N45 1.341 1_556 S
C43 C41 1.400 1_556 S
C43 C42 1.387 . S
N44 Co35 2.022 . S
N44 C41 1.351 . S
N44 N45 1.365 . S
N45 C42 1.341 1_554 S
N45 N44 1.365 . S
N45 H65 0.862 . S
C46 C41 1.501 . S
C46 H47 0.961 . S
C46 H48 0.961 . S
C46 H49 0.960 1_554 S
H47 C46 0.961 . S
H48 C46 0.961 . S
H49 C46 0.960 1_556 S
C50 N51 1.342 . S
C50 C54 1.401 . S
C50 C55 1.499 . S
N51 Co34 1.989 . S
N51 C50 1.342 . S
N51 N52 1.388 . S
N52 Co35 1.993 . S
N52 N51 1.388 . S
N52 C53 1.346 . S
C53 N52 1.346 . S
C53 C54 1.396 . S
C53 C63 1.510 . S
C54 C50 1.401 . S
C54 C53 1.396 . S
C55 C50 1.499 . S
C55 H56 0.959 . S
C55 H57 0.960 . S
C55 H58 0.961 . S
H56 C55 0.959 . S
H57 C55 0.960 . S
H58 C55 0.961 . S
O59 Co34 1.967 . S
O59 C67 1.258 . S
O60 Co35 1.941 . S
O60 C67 1.266 . S
H61 C63 0.959 . S
H62 C63 0.961 . S
C63 C53 1.510 . S
C63 H61 0.959 . S
C63 H62 0.961 . S
C63 H64 0.960 . S
H64 C63 0.960 . S
H65 N45 0.862 . S
O66 Co34 1.920 . S
O66 C39 1.289 . S
C67 O59 1.258 . S
C67 O60 1.266 . S
Co68 O71 1.970 . S
Co68 N85 1.989 . S
Co68 O93 1.967 . S
Co68 O100 1.920 . S
Co69 O72 1.966 . S
Co69 N78 2.022 . S
Co69 N86 1.993 . S
Co69 O94 1.941 . S
C70 O71 1.258 . S
C70 O72 1.263 . S
O71 Co68 1.970 . S
O71 C70 1.258 . S
O72 Co69 1.966 . S
O72 C70 1.263 . S
C73 O74 1.235 . S
C73 O100 1.289 . S
O74 C73 1.235 . S
C75 C77 1.400 . S
C75 N78 1.351 . S
C75 C80 1.501 . S
C76 C77 1.387 . S
C76 N79 1.341 . S
C77 C75 1.400 . S
C77 C76 1.387 . S
N78 Co69 2.022 . S
N78 C75 1.351 . S
N78 N79 1.365 . S
N79 C76 1.341 . S
N79 N78 1.365 . S
N79 H99 0.862 . S
C80 C75 1.501 . S
C80 H81 0.961 . S
C80 H82 0.961 . S
C80 H83 0.960 . S
H81 C80 0.961 . S
H82 C80 0.961 . S
H83 C80 0.960 . S
C84 N85 1.342 . S
C84 C88 1.401 . S
C84 C89 1.499 . S
N85 Co68 1.989 . S
N85 C84 1.342 . S
N85 N86 1.388 . S
N86 Co69 1.993 . S
N86 N85 1.388 . S
N86 C87 1.346 . S
C87 N86 1.346 . S
C87 C88 1.396 . S
C87 C97 1.510 . S
C88 C84 1.401 . S
C88 C87 1.396 . S
C89 C84 1.499 . S
C89 H90 0.959 . S
C89 H91 0.960 . S
C89 H92 0.961 . S
H90 C89 0.959 . S
H91 C89 0.960 . S
H92 C89 0.961 . S
O93 Co68 1.967 . S
O93 C101 1.258 . S
O94 Co69 1.941 . S
O94 C101 1.266 . S
H95 C97 0.959 . S
H96 C97 0.961 . S
C97 C87 1.510 . S
C97 H95 0.959 . S
C97 H96 0.961 . S
C97 H98 0.960 . S
H98 C97 0.960 . S
H99 N79 0.862 . S
O100 Co68 1.920 . S
O100 C73 1.289 . S
C101 O93 1.258 . S
C101 O94 1.266 . S
Co102 O105 1.970 . S
Co102 N119 1.989 . S
Co102 O127 1.967 . S
Co102 O134 1.920 . S
Co103 O106 1.966 . S
Co103 N112 2.022 . S
Co103 N120 1.993 . S
Co103 O128 1.941 . S
C104 O105 1.258 . S
C104 O106 1.263 . S
O105 Co102 1.970 . S
O105 C104 1.258 . S
O106 Co103 1.966 . S
O106 C104 1.263 . S
C107 O108 1.235 . S
C107 O134 1.289 . S
O108 C107 1.235 . S
C109 C111 1.400 . S
C109 N112 1.351 1_554 S
C109 C114 1.501 . S
C110 C111 1.387 . S
C110 N113 1.341 1_554 S
C111 C109 1.400 . S
C111 C110 1.387 . S
N112 Co103 2.022 . S
N112 C109 1.351 1_556 S
N112 N113 1.365 . S
N113 C110 1.341 1_556 S
N113 N112 1.365 . S
N113 H133 0.862 . S
C114 C109 1.501 . S
C114 H115 0.961 1_554 S
C114 H116 0.961 . S
C114 H117 0.960 . S
H115 C114 0.961 1_556 S
H116 C114 0.961 . S
H117 C114 0.960 . S
C118 N119 1.342 . S
C118 C122 1.401 . S
C118 C123 1.499 . S
N119 Co102 1.989 . S
N119 C118 1.342 . S
N119 N120 1.388 . S
N120 Co103 1.993 . S
N120 N119 1.388 . S
N120 C121 1.346 . S
C121 N120 1.346 . S
C121 C122 1.396 . S
C121 C131 1.510 . S
C122 C118 1.401 . S
C122 C121 1.396 . S
C123 C118 1.499 . S
C123 H124 0.959 . S
C123 H125 0.960 . S
C123 H126 0.961 . S
H124 C123 0.959 . S
H125 C123 0.960 . S
H126 C123 0.961 . S
O127 Co102 1.967 . S
O127 C135 1.258 . S
O128 Co103 1.941 . S
O128 C135 1.266 . S
H129 C131 0.959 . S
H130 C131 0.961 . S
C131 C121 1.510 . S
C131 H129 0.959 . S
C131 H130 0.961 . S
C131 H132 0.960 . S
H132 C131 0.960 . S
H133 N113 0.862 . S
O134 Co102 1.920 . S
O134 C107 1.289 . S
C135 O127 1.258 . S
C135 O128 1.266 . S
Co136 O139 1.970 . S
Co136 N153 1.989 . S
Co136 O161 1.967 . S
Co136 O168 1.920 . S
Co137 O140 1.966 . S
Co137 N146 2.022 . S
Co137 N154 1.993 . S
Co137 O162 1.941 . S
C138 O139 1.258 . S
C138 O140 1.263 . S
O139 Co136 1.970 . S
O139 C138 1.258 . S
O140 Co137 1.966 . S
O140 C138 1.263 . S
C141 O142 1.235 . S
C141 O168 1.289 . S
O142 C141 1.235 . S
C143 C145 1.400 1_554 S
C143 N146 1.351 . S
C143 C148 1.501 . S
C144 C145 1.387 . S
C144 N147 1.341 1_556 S
C145 C143 1.400 1_556 S
C145 C144 1.387 . S
N146 Co137 2.022 . S
N146 C143 1.351 . S
N146 N147 1.365 . S
N147 C144 1.341 1_554 S
N147 N146 1.365 . S
N147 H167 0.862 . S
C148 C143 1.501 . S
C148 H149 0.961 . S
C148 H150 0.961 . S
C148 H151 0.960 1_554 S
H149 C148 0.961 . S
H150 C148 0.961 . S
H151 C148 0.960 1_556 S
C152 N153 1.342 . S
C152 C156 1.401 . S
C152 C157 1.499 . S
N153 Co136 1.989 . S
N153 C152 1.342 . S
N153 N154 1.388 . S
N154 Co137 1.993 . S
N154 N153 1.388 . S
N154 C155 1.346 . S
C155 N154 1.346 . S
C155 C156 1.396 . S
C155 C165 1.510 . S
C156 C152 1.401 . S
C156 C155 1.396 . S
C157 C152 1.499 . S
C157 H158 0.959 . S
C157 H159 0.960 . S
C157 H160 0.961 . S
H158 C157 0.959 . S
H159 C157 0.960 . S
H160 C157 0.961 . S
O161 Co136 1.967 . S
O161 C169 1.258 . S
O162 Co137 1.941 . S
O162 C169 1.266 . S
H163 C165 0.959 . S
H164 C165 0.961 . S
C165 C155 1.510 . S
C165 H163 0.959 . S
C165 H164 0.961 . S
C165 H166 0.960 . S
H166 C165 0.960 . S
H167 N147 0.862 . S
O168 Co136 1.920 . S
O168 C141 1.289 . S
C169 O161 1.258 . S
C169 O162 1.266 . S
Co170 O173 1.970 . S
Co170 N187 1.989 . S
Co170 O195 1.967 . S
Co170 O202 1.920 . S
Co171 O174 1.966 . S
Co171 N180 2.022 . S
Co171 N188 1.993 . S
Co171 O196 1.941 . S
C172 O173 1.258 . S
C172 O174 1.263 . S
O173 Co170 1.970 . S
O173 C172 1.258 . S
O174 Co171 1.966 . S
O174 C172 1.263 . S
C175 O176 1.235 . S
C175 O202 1.289 . S
O176 C175 1.235 . S
C177 C179 1.400 . S
C177 N180 1.351 . S
C177 C182 1.501 . S
C178 C179 1.387 . S
C178 N181 1.341 . S
C179 C177 1.400 . S
C179 C178 1.387 . S
N180 Co171 2.022 . S
N180 C177 1.351 . S
N180 N181 1.365 . S
N181 C178 1.341 . S
N181 N180 1.365 . S
N181 H201 0.862 . S
C182 C177 1.501 . S
C182 H183 0.961 . S
C182 H184 0.961 . S
C182 H185 0.960 . S
H183 C182 0.961 . S
H184 C182 0.961 . S
H185 C182 0.960 . S
C186 N187 1.342 . S
C186 C190 1.401 . S
C186 C191 1.499 . S
N187 Co170 1.989 . S
N187 C186 1.342 . S
N187 N188 1.388 . S
N188 Co171 1.993 . S
N188 N187 1.388 . S
N188 C189 1.346 . S
C189 N188 1.346 . S
C189 C190 1.396 . S
C189 C199 1.510 . S
C190 C186 1.401 . S
C190 C189 1.396 . S
C191 C186 1.499 . S
C191 H192 0.959 . S
C191 H193 0.960 . S
C191 H194 0.961 . S
H192 C191 0.959 . S
H193 C191 0.960 . S
H194 C191 0.961 . S
O195 Co170 1.967 . S
O195 C203 1.258 . S
O196 Co171 1.941 . S
O196 C203 1.266 . S
H197 C199 0.959 . S
H198 C199 0.961 . S
C199 C189 1.510 . S
C199 H197 0.959 . S
C199 H198 0.961 . S
C199 H200 0.960 . S
H200 C199 0.960 . S
H201 N181 0.862 . S
O202 Co170 1.920 . S
O202 C175 1.289 . S
C203 O195 1.258 . S
C203 O196 1.266 . S
Co204 O207 1.970 . S
Co204 N221 1.989 . S
Co204 O229 1.967 . S
Co204 O236 1.920 . S
Co205 O208 1.966 . S
Co205 N214 2.022 . S
Co205 N222 1.993 . S
Co205 O230 1.941 . S
C206 O207 1.258 . S
C206 O208 1.263 . S
O207 Co204 1.970 . S
O207 C206 1.258 . S
O208 Co205 1.966 . S
O208 C206 1.263 . S
C209 O210 1.235 . S
C209 O236 1.289 . S
O210 C209 1.235 . S
C211 C213 1.400 . S
C211 N214 1.351 . S
C211 C216 1.501 . S
C212 C213 1.387 . S
C212 N215 1.341 . S
C213 C211 1.400 . S
C213 C212 1.387 . S
N214 Co205 2.022 . S
N214 C211 1.351 . S
N214 N215 1.365 . S
N215 C212 1.341 . S
N215 N214 1.365 . S
N215 H235 0.862 . S
C216 C211 1.501 . S
C216 H217 0.961 . S
C216 H218 0.961 . S
C216 H219 0.960 . S
H217 C216 0.961 . S
H218 C216 0.961 . S
H219 C216 0.960 . S
C220 N221 1.342 . S
C220 C224 1.401 . S
C220 C225 1.499 . S
N221 Co204 1.989 . S
N221 C220 1.342 . S
N221 N222 1.388 . S
N222 Co205 1.993 . S
N222 N221 1.388 . S
N222 C223 1.346 . S
C223 N222 1.346 . S
C223 C224 1.396 . S
C223 C233 1.510 . S
C224 C220 1.401 . S
C224 C223 1.396 . S
C225 C220 1.499 . S
C225 H226 0.959 . S
C225 H227 0.960 . S
C225 H228 0.961 . S
H226 C225 0.959 . S
H227 C225 0.960 . S
H228 C225 0.961 . S
O229 Co204 1.967 . S
O229 C237 1.258 . S
O230 Co205 1.941 . S
O230 C237 1.266 . S
H231 C233 0.959 . S
H232 C233 0.961 . S
C233 C223 1.510 . S
C233 H231 0.959 . S
C233 H232 0.961 . S
C233 H234 0.960 . S
H234 C233 0.960 . S
H235 N215 0.862 . S
O236 Co204 1.920 . S
O236 C209 1.289 . S
C237 O229 1.258 . S
C237 O230 1.266 . S
Co238 O241 1.970 . S
Co238 N255 1.989 . S
Co238 O263 1.967 . S
Co238 O270 1.920 . S
Co239 O242 1.966 . S
Co239 N248 2.022 . S
Co239 N256 1.993 . S
Co239 O264 1.941 . S
C240 O241 1.258 1_554 S
C240 O242 1.263 . S
O241 Co238 1.970 . S
O241 C240 1.258 1_556 S
O242 Co239 1.966 . S
O242 C240 1.263 . S
C243 O244 1.235 . S
C243 O270 1.289 . S
O244 C243 1.235 . S
C245 C247 1.400 . S
C245 N248 1.351 . S
C245 C250 1.501 . S
C246 C247 1.387 . S
C246 N249 1.341 . S
C247 C245 1.400 . S
C247 C246 1.387 . S
N248 Co239 2.022 . S
N248 C245 1.351 . S
N248 N249 1.365 . S
N249 C246 1.341 . S
N249 N248 1.365 . S
N249 H269 0.862 . S
C250 C245 1.501 . S
C250 H251 0.961 . S
C250 H252 0.961 . S
C250 H253 0.960 . S
H251 C250 0.961 . S
H252 C250 0.961 . S
H253 C250 0.960 . S
C254 N255 1.342 . S
C254 C258 1.401 1_556 S
C254 C259 1.499 . S
N255 Co238 1.989 . S
N255 C254 1.342 . S
N255 N256 1.388 1_556 S
N256 Co239 1.993 . S
N256 N255 1.388 1_554 S
N256 C257 1.346 . S
C257 N256 1.346 . S
C257 C258 1.396 . S
C257 C267 1.510 . S
C258 C254 1.401 1_554 S
C258 C257 1.396 . S
C259 C254 1.499 . S
C259 H260 0.959 . S
C259 H261 0.960 . S
C259 H262 0.961 . S
H260 C259 0.959 . S
H261 C259 0.960 . S
H262 C259 0.961 . S
O263 Co238 1.967 . S
O263 C271 1.258 1_556 S
O264 Co239 1.941 . S
O264 C271 1.266 . S
H265 C267 0.959 . S
H266 C267 0.961 . S
C267 C257 1.510 . S
C267 H265 0.959 . S
C267 H266 0.961 . S
C267 H268 0.960 . S
H268 C267 0.960 . S
H269 N249 0.862 . S
O270 Co238 1.920 . S
O270 C243 1.289 . S
C271 O263 1.258 1_554 S
C271 O264 1.266 . S
H272 C280 0.950 . S
H273 C285 0.950 . S
H274 C282 0.950 . S
H275 C284 0.950 . S
H276 C286 0.950 . S
H277 C288 0.950 . S
H278 C290 0.950 . S
H279 C291 0.950 . S
C280 H272 0.950 . S
C280 C281 1.386 . S
C280 C282 1.391 . S
C281 C280 1.386 . S
C281 C285 1.393 1_554 S
C282 H274 0.950 . S
C282 C280 1.391 . S
C282 C283 1.400 . S
C283 C282 1.400 . S
C283 C284 1.398 1_554 S
C283 C289 1.491 . S
C284 H275 0.950 . S
C284 C283 1.398 1_556 S
C284 C285 1.391 . S
C285 H273 0.950 . S
C285 C281 1.393 1_556 S
C285 C284 1.391 . S
C286 H276 0.950 . S
C286 C287 1.386 1_556 S
C286 C288 1.391 . S
C287 C286 1.386 1_554 S
C287 C291 1.393 . S
C288 H277 0.950 . S
C288 C286 1.391 . S
C288 C289 1.400 1_556 S
C289 C283 1.491 . S
C289 C288 1.400 1_554 S
C289 C290 1.398 . S
C290 H278 0.950 . S
C290 C289 1.398 . S
C290 C291 1.391 . S
C291 H279 0.950 . S
C291 C287 1.393 . S
C291 C290 1.391 . S
H292 C300 0.950 . S
H293 C305 0.950 . S
H294 C302 0.950 . S
H295 C304 0.950 . S
H296 C306 0.950 . S
H297 C308 0.950 . S
H298 C310 0.961 . S
H299 C311 0.950 . S
C300 H292 0.950 . S
C300 C301 1.386 . S
C300 C302 1.391 . S
C301 C300 1.386 . S
C301 C305 1.393 . S
C302 H294 0.950 . S
C302 C300 1.391 . S
C302 C303 1.400 . S
C303 C302 1.400 . S
C303 C304 1.398 . S
C303 C309 1.491 1_545 S
C304 H295 0.950 . S
C304 C303 1.398 . S
C304 C305 1.391 . S
C305 H293 0.950 . S
C305 C301 1.393 . S
C305 C304 1.391 . S
C306 H296 0.950 . S
C306 C307 1.386 . S
C306 C308 1.391 . S
C307 C306 1.386 . S
C307 C311 1.393 . S
C308 H297 0.950 . S
C308 C306 1.391 . S
C308 C309 1.400 . S
C309 C303 1.491 1_565 S
C309 C308 1.400 . S
C309 C310 1.398 1_565 S
C310 H298 0.961 . S
C310 C309 1.398 1_545 S
C310 C311 1.381 1_545 S
C311 H299 0.950 . S
C311 C307 1.393 . S
C311 C310 1.381 1_565 S
H312 C320 0.943 1_455 S
H313 C325 0.950 . S
H314 C322 0.950 . S
H315 C324 0.950 . S
H316 C326 0.950 . S
H317 C328 0.950 . S
H318 C330 0.950 . S
H319 C331 0.954 . S
C320 H312 0.943 1_655 S
C320 C321 1.411 . S
C320 C322 1.372 1_655 S
C321 C320 1.411 . S
C321 C325 1.393 . S
C322 H314 0.950 . S
C322 C320 1.372 1_455 S
C322 C323 1.400 . S
C323 C322 1.400 . S
C323 C324 1.398 1_455 S
C323 C329 1.491 . S
C324 H315 0.950 . S
C324 C323 1.398 1_655 S
C324 C325 1.391 . S
C325 H313 0.950 . S
C325 C321 1.393 . S
C325 C324 1.391 . S
C326 H316 0.950 . S
C326 C327 1.386 . S
C326 C328 1.391 . S
C327 C326 1.386 . S
C327 C331 1.393 . S
C328 H317 0.950 . S
C328 C326 1.391 . S
C328 C329 1.400 1_545 S
C329 C323 1.491 . S
C329 C328 1.400 1_565 S
C329 C330 1.398 . S
C330 H318 0.950 . S
C330 C329 1.398 . S
C330 C331 1.391 1_565 S
C331 H319 0.954 . S
C331 C327 1.393 . S
C331 C330 1.391 1_545 S
H332 C340 0.950 . S
H333 C345 0.950 . S
H334 C342 0.950 . S
H335 C344 0.950 1_655 S
H336 C346 0.950 . S
H337 C348 0.950 . S
H338 C350 0.948 . S
H339 C351 0.950 . S
C340 H332 0.950 . S
C340 C341 1.386 . S
C340 C342 1.391 . S
C341 C340 1.386 . S
C341 C345 1.393 . S
C342 H334 0.950 . S
C342 C340 1.391 . S
C342 C343 1.400 . S
C343 C342 1.400 . S
C343 C344 1.398 . S
C343 C349 1.491 1_455 S
C344 H335 0.950 1_455 S
C344 C343 1.398 . S
C344 C345 1.391 . S
C345 H333 0.950 . S
C345 C341 1.393 . S
C345 C344 1.391 . S
C346 H336 0.950 . S
C346 C347 1.386 . S
C346 C348 1.391 . S
C347 C346 1.386 . S
C347 C351 1.393 . S
C348 H337 0.950 . S
C348 C346 1.391 . S
C348 C349 1.400 . S
C349 C343 1.491 1_655 S
C349 C348 1.400 . S
C349 C350 1.398 . S
C350 H338 0.948 . S
C350 C349 1.398 . S
C350 C351 1.391 . S
C351 H339 0.950 . S
C351 C347 1.393 . S
C351 C350 1.391 . S
H352 C360 0.950 . S
H353 C365 0.950 . S
H354 C362 0.950 . S
H355 C364 0.950 . S
H356 C366 0.950 . S
H357 C368 0.950 . S
H358 C370 0.950 . S
H359 C371 0.950 . S
C360 H352 0.950 . S
C360 C361 1.386 . S
C360 C362 1.391 . S
C361 C360 1.386 . S
C361 C365 1.393 . S
C362 H354 0.950 . S
C362 C360 1.391 . S
C362 C363 1.400 . S
C363 C362 1.400 . S
C363 C364 1.398 . S
C363 C369 1.491 . S
C364 H355 0.950 . S
C364 C363 1.398 . S
C364 C365 1.391 . S
C365 H353 0.950 . S
C365 C361 1.393 . S
C365 C364 1.391 . S
C366 H356 0.950 . S
C366 C367 1.386 . S
C366 C368 1.391 . S
C367 C366 1.386 . S
C367 C371 1.393 . S
C368 H357 0.950 . S
C368 C366 1.391 . S
C368 C369 1.400 . S
C369 C363 1.491 . S
C369 C368 1.400 . S
C369 C370 1.398 . S
C370 H358 0.950 . S
C370 C369 1.398 . S
C370 C371 1.391 . S
C371 H359 0.950 . S
C371 C367 1.393 . S
C371 C370 1.391 . S
H372 C380 0.950 . S
H373 C385 0.950 . S
H374 C382 0.950 . S
H375 C384 0.950 . S
H376 C386 0.950 . S
H377 C388 0.950 . S
H378 C390 0.950 . S
H379 C391 0.950 . S
C380 H372 0.950 . S
C380 C381 1.386 . S
C380 C382 1.391 . S
C381 C380 1.386 . S
C381 C385 1.393 . S
C382 H374 0.950 . S
C382 C380 1.391 . S
C382 C383 1.400 . S
C383 C382 1.400 . S
C383 C384 1.398 . S
C383 C389 1.491 . S
C384 H375 0.950 . S
C384 C383 1.398 . S
C384 C385 1.391 . S
C385 H373 0.950 . S
C385 C381 1.393 . S
C385 C384 1.391 . S
C386 H376 0.950 . S
C386 C387 1.386 . S
C386 C388 1.391 . S
C387 C386 1.386 . S
C387 C391 1.393 . S
C388 H377 0.950 . S
C388 C386 1.391 . S
C388 C389 1.400 . S
C389 C383 1.491 . S
C389 C388 1.400 . S
C389 C390 1.398 . S
C390 H378 0.950 . S
C390 C389 1.398 . S
C390 C391 1.391 . S
C391 H379 0.950 . S
C391 C387 1.393 . S
C391 C390 1.391 . S
H392 C400 0.950 . S
H393 C405 0.950 . S
H394 C402 0.950 . S
H395 C404 0.950 . S
H396 C406 0.950 . S
H397 C408 0.950 . S
H398 C410 0.950 . S
H399 C411 0.950 . S
C400 H392 0.950 . S
C400 C401 1.386 . S
C400 C402 1.391 1_556 S
C401 C400 1.386 . S
C401 C405 1.393 . S
C402 H394 0.950 . S
C402 C400 1.391 1_554 S
C402 C403 1.400 . S
C403 C402 1.400 . S
C403 C404 1.398 . S
C403 C409 1.491 . S
C404 H395 0.950 . S
C404 C403 1.398 . S
C404 C405 1.391 1_554 S
C405 H393 0.950 . S
C405 C401 1.393 . S
C405 C404 1.391 1_556 S
C406 H396 0.950 . S
C406 C407 1.386 . S
C406 C408 1.391 . S
C407 C406 1.386 . S
C407 C411 1.393 . S
C408 H397 0.950 . S
C408 C406 1.391 . S
C408 C409 1.400 . S
C409 C403 1.491 . S
C409 C408 1.400 . S
C409 C410 1.398 . S
C410 H398 0.950 . S
C410 C409 1.398 . S
C410 C411 1.391 . S
C411 H399 0.950 . S
C411 C407 1.393 . S
C411 C410 1.391 . S
H412 C420 0.950 . S
H413 C425 0.950 . S
H414 C422 0.950 . S
H415 C424 0.950 . S
H416 C426 0.950 . S
H417 C428 0.950 . S
H418 C430 0.950 . S
H419 C431 0.950 . S
C420 H412 0.950 . S
C420 C421 1.386 . S
C420 C422 1.391 . S
C421 C420 1.386 . S
C421 C425 1.393 . S
C422 H414 0.950 . S
C422 C420 1.391 . S
C422 C423 1.400 . S
C423 C422 1.400 . S
C423 C424 1.398 . S
C423 C429 1.491 . S
C424 H415 0.950 . S
C424 C423 1.398 . S
C424 C425 1.391 . S
C425 H413 0.950 . S
C425 C421 1.393 . S
C425 C424 1.391 . S
C426 H416 0.950 . S
C426 C427 1.386 . S
C426 C428 1.391 . S
C427 C426 1.386 . S
C427 C431 1.393 . S
C428 H417 0.950 . S
C428 C426 1.391 . S
C428 C429 1.400 . S
C429 C423 1.491 . S
C429 C428 1.400 . S
C429 C430 1.398 . S
C430 H418 0.950 . S
C430 C429 1.398 . S
C430 C431 1.391 . S
C431 H419 0.950 . S
C431 C427 1.393 . S
C431 C430 1.391 . S
H432 C440 0.950 . S
H433 C445 0.950 . S
H434 C442 0.950 . S
H435 C444 0.950 . S
H436 C446 0.950 . S
H437 C448 0.950 . S
H438 C450 0.950 . S
H439 C451 0.950 . S
C440 H432 0.950 . S
C440 C441 1.386 . S
C440 C442 1.391 . S
C441 C440 1.386 . S
C441 C445 1.393 . S
C442 H434 0.950 . S
C442 C440 1.391 . S
C442 C443 1.400 . S
C443 C442 1.400 . S
C443 C444 1.398 . S
C443 C449 1.491 . S
C444 H435 0.950 . S
C444 C443 1.398 . S
C444 C445 1.391 . S
C445 H433 0.950 . S
C445 C441 1.393 . S
C445 C444 1.391 . S
C446 H436 0.950 . S
C446 C447 1.386 . S
C446 C448 1.391 . S
C447 C446 1.386 . S
C447 C451 1.393 . S
C448 H437 0.950 . S
C448 C446 1.391 . S
C448 C449 1.400 . S
C449 C443 1.491 . S
C449 C448 1.400 . S
C449 C450 1.398 . S
C450 H438 0.950 . S
C450 C449 1.398 . S
C450 C451 1.391 . S
C451 H439 0.950 . S
C451 C447 1.393 . S
C451 C450 1.391 . S
H452 C460 0.950 . S
H453 C465 0.950 . S
H454 C462 0.950 . S
H455 C464 0.950 . S
H456 C466 0.950 . S
H457 C468 0.950 . S
H458 C470 0.950 . S
H459 C471 0.950 . S
C460 H452 0.950 . S
C460 C461 1.386 . S
C460 C462 1.391 . S
C461 C460 1.386 . S
C461 C465 1.393 . S
C462 H454 0.950 . S
C462 C460 1.391 . S
C462 C463 1.400 . S
C463 C462 1.400 . S
C463 C464 1.398 . S
C463 C469 1.491 1_554 S
C464 H455 0.950 . S
C464 C463 1.398 . S
C464 C465 1.391 . S
C465 H453 0.950 . S
C465 C461 1.393 . S
C465 C464 1.391 . S
C466 H456 0.950 . S
C466 C467 1.386 . S
C466 C468 1.391 . S
C467 C466 1.386 . S
C467 C471 1.393 . S
C468 H457 0.950 . S
C468 C466 1.391 . S
C468 C469 1.400 . S
C469 C463 1.491 1_556 S
C469 C468 1.400 . S
C469 C470 1.398 . S
C470 H458 0.950 . S
C470 C469 1.398 . S
C470 C471 1.391 . S
C471 H459 0.950 . S
C471 C467 1.393 . S
C471 C470 1.391 . S
H472 C480 0.950 . S
H473 C485 0.950 . S
H474 C482 0.950 . S
H475 C484 0.950 . S
H476 C486 0.950 . S
H477 C488 0.950 . S
H478 C490 0.950 . S
H479 C491 0.950 . S
C480 H472 0.950 . S
C480 C481 1.386 . S
C480 C482 1.391 . S
C481 C480 1.386 . S
C481 C485 1.393 . S
C482 H474 0.950 . S
C482 C480 1.391 . S
C482 C483 1.400 . S
C483 C482 1.400 . S
C483 C484 1.398 . S
C483 C489 1.491 . S
C484 H475 0.950 . S
C484 C483 1.398 . S
C484 C485 1.391 . S
C485 H473 0.950 . S
C485 C481 1.393 . S
C485 C484 1.391 . S
C486 H476 0.950 . S
C486 C487 1.386 . S
C486 C488 1.391 . S
C487 C486 1.386 . S
C487 C491 1.393 . S
C488 H477 0.950 . S
C488 C486 1.391 . S
C488 C489 1.400 . S
C489 C483 1.491 . S
C489 C488 1.400 . S
C489 C490 1.398 . S
C490 H478 0.950 . S
C490 C489 1.398 . S
C490 C491 1.391 . S
C491 H479 0.950 . S
C491 C487 1.393 . S
C491 C490 1.391 . S
H492 C500 0.950 . S
H493 C505 0.950 . S
H494 C502 0.950 . S
H495 C504 0.950 . S
H496 C506 0.950 . S
H497 C508 0.950 . S
H498 C510 0.950 . S
H499 C511 0.950 . S
C500 H492 0.950 . S
C500 C501 1.386 . S
C500 C502 1.391 . S
C501 C500 1.386 . S
C501 C505 1.393 . S
C502 H494 0.950 . S
C502 C500 1.391 . S
C502 C503 1.400 . S
C503 C502 1.400 . S
C503 C504 1.398 . S
C503 C509 1.491 . S
C504 H495 0.950 . S
C504 C503 1.398 . S
C504 C505 1.391 . S
C505 H493 0.950 . S
C505 C501 1.393 . S
C505 C504 1.391 . S
C506 H496 0.950 . S
C506 C507 1.386 . S
C506 C508 1.391 . S
C507 C506 1.386 . S
C507 C511 1.393 . S
C508 H497 0.950 . S
C508 C506 1.391 . S
C508 C509 1.400 . S
C509 C503 1.491 . S
C509 C508 1.400 . S
C509 C510 1.398 . S
C510 H498 0.950 . S
C510 C509 1.398 . S
C510 C511 1.391 . S
C511 H499 0.950 . S
C511 C507 1.393 . S
C511 C510 1.391 . S
H512 C520 0.950 . S
H513 C525 0.950 . S
H514 C522 0.950 . S
H515 C524 0.950 . S
H516 C526 0.950 . S
H517 C528 0.950 . S
H518 C530 0.950 . S
H519 C531 0.950 1_554 S
C520 H512 0.950 . S
C520 C521 1.386 . S
C520 C522 1.391 . S
C521 C520 1.386 . S
C521 C525 1.393 . S
C522 H514 0.950 . S
C522 C520 1.391 . S
C522 C523 1.400 . S
C523 C522 1.400 . S
C523 C524 1.398 . S
C523 C529 1.491 . S
C524 H515 0.950 . S
C524 C523 1.398 . S
C524 C525 1.391 . S
C525 H513 0.950 . S
C525 C521 1.393 . S
C525 C524 1.391 . S
C526 H516 0.950 . S
C526 C527 1.386 . S
C526 C528 1.391 . S
C527 C526 1.386 . S
C527 C531 1.393 . S
C528 H517 0.950 . S
C528 C526 1.391 . S
C528 C529 1.400 . S
C529 C523 1.491 . S
C529 C528 1.400 . S
C529 C530 1.398 . S
C530 H518 0.950 . S
C530 C529 1.398 . S
C530 C531 1.391 . S
C531 H519 0.950 1_556 S
C531 C527 1.393 . S
C531 C530 1.391 . S
H532 C540 0.950 . S
H533 C545 0.950 . S
H534 C542 0.950 . S
H535 C544 0.950 . S
H536 C546 0.950 . S
H537 C548 0.950 . S
H538 C550 0.950 . S
H539 C551 0.950 1_556 S
C540 H532 0.950 . S
C540 C541 1.386 . S
C540 C542 1.391 . S
C541 C540 1.386 . S
C541 C545 1.393 . S
C542 H534 0.950 . S
C542 C540 1.391 . S
C542 C543 1.400 . S
C543 C542 1.400 . S
C543 C544 1.398 . S
C543 C549 1.491 . S
C544 H535 0.950 . S
C544 C543 1.398 . S
C544 C545 1.391 . S
C545 H533 0.950 . S
C545 C541 1.393 . S
C545 C544 1.391 . S
C546 H536 0.950 . S
C546 C547 1.386 . S
C546 C548 1.391 . S
C547 C546 1.386 . S
C547 C551 1.393 . S
C548 H537 0.950 . S
C548 C546 1.391 . S
C548 C549 1.400 . S
C549 C543 1.491 . S
C549 C548 1.400 . S
C549 C550 1.398 . S
C550 H538 0.950 . S
C550 C549 1.398 . S
C550 C551 1.391 . S
C551 H539 0.950 1_554 S
C551 C547 1.393 . S
C551 C550 1.391 . S
H552 C560 0.950 . S
H553 C565 0.950 . S
H554 C562 0.950 . S
H555 C564 0.950 . S
H556 C566 0.950 . S
H557 C568 0.950 . S
H558 C570 0.950 . S
H559 C571 0.950 . S
C560 H552 0.950 . S
C560 C561 1.386 . S
C560 C562 1.391 . S
C561 C560 1.386 . S
C561 C565 1.393 . S
C562 H554 0.950 . S
C562 C560 1.391 . S
C562 C563 1.400 . S
C563 C562 1.400 . S
C563 C564 1.398 . S
C563 C569 1.491 . S
C564 H555 0.950 . S
C564 C563 1.398 . S
C564 C565 1.391 . S
C565 H553 0.950 . S
C565 C561 1.393 . S
C565 C564 1.391 . S
C566 H556 0.950 . S
C566 C567 1.386 . S
C566 C568 1.391 . S
C567 C566 1.386 . S
C567 C571 1.393 . S
C568 H557 0.950 . S
C568 C566 1.391 . S
C568 C569 1.400 . S
C569 C563 1.491 . S
C569 C568 1.400 . S
C569 C570 1.398 . S
C570 H558 0.950 . S
C570 C569 1.398 . S
C570 C571 1.391 . S
C571 H559 0.950 . S
C571 C567 1.393 . S
C571 C570 1.391 . S
H572 C580 0.950 . S
H573 C585 0.950 . S
H574 C582 0.950 . S
H575 C584 0.950 . S
H576 C586 0.950 . S
H577 C588 0.950 . S
H578 C590 0.950 . S
H579 C591 0.950 . S
C580 H572 0.950 . S
C580 C581 1.386 . S
C580 C582 1.391 . S
C581 C580 1.386 . S
C581 C585 1.393 . S
C582 H574 0.950 . S
C582 C580 1.391 . S
C582 C583 1.400 . S
C583 C582 1.400 . S
C583 C584 1.398 . S
C583 C589 1.491 . S
C584 H575 0.950 . S
C584 C583 1.398 . S
C584 C585 1.391 . S
C585 H573 0.950 . S
C585 C581 1.393 . S
C585 C584 1.391 . S
C586 H576 0.950 . S
C586 C587 1.386 . S
C586 C588 1.391 . S
C587 C586 1.386 . S
C587 C591 1.393 . S
C588 H577 0.950 . S
C588 C586 1.391 . S
C588 C589 1.400 . S
C589 C583 1.491 . S
C589 C588 1.400 . S
C589 C590 1.398 . S
C590 H578 0.950 . S
C590 C589 1.398 . S
C590 C591 1.391 . S
C591 H579 0.950 . S
C591 C587 1.393 . S
C591 C590 1.391 . S
H592 C600 0.950 . S
H593 C605 0.950 . S
H594 C602 0.950 . S
H595 C604 0.950 . S
H596 C606 0.950 . S
H597 C608 0.950 . S
H598 C610 0.950 . S
H599 C611 0.950 . S
C600 H592 0.950 . S
C600 C601 1.386 . S
C600 C602 1.391 . S
C601 C600 1.386 . S
C601 C605 1.393 . S
C602 H594 0.950 . S
C602 C600 1.391 . S
C602 C603 1.400 . S
C603 C602 1.400 . S
C603 C604 1.398 . S
C603 C609 1.491 . S
C604 H595 0.950 . S
C604 C603 1.398 . S
C604 C605 1.391 . S
C605 H593 0.950 . S
C605 C601 1.393 . S
C605 C604 1.391 . S
C606 H596 0.950 . S
C606 C607 1.386 . S
C606 C608 1.391 . S
C607 C606 1.386 . S
C607 C611 1.393 . S
C608 H597 0.950 . S
C608 C606 1.391 . S
C608 C609 1.400 . S
C609 C603 1.491 . S
C609 C608 1.400 . S
C609 C610 1.398 . S
C610 H598 0.950 . S
C610 C609 1.398 . S
C610 C611 1.391 . S
C611 H599 0.950 . S
C611 C607 1.393 . S
C611 C610 1.391 . S
H612 C620 0.950 . S
H613 C625 0.950 . S
H614 C622 0.950 . S
H615 C624 0.950 . S
H616 C626 0.950 . S
H617 C628 0.950 . S
H618 C630 0.950 . S
H619 C631 0.950 . S
C620 H612 0.950 . S
C620 C621 1.386 . S
C620 C622 1.391 . S
C621 C620 1.386 . S
C621 C625 1.393 . S
C622 H614 0.950 . S
C622 C620 1.391 . S
C622 C623 1.400 . S
C623 C622 1.400 . S
C623 C624 1.398 . S
C623 C629 1.491 . S
C624 H615 0.950 . S
C624 C623 1.398 . S
C624 C625 1.391 . S
C625 H613 0.950 . S
C625 C621 1.393 . S
C625 C624 1.391 . S
C626 H616 0.950 . S
C626 C627 1.386 . S
C626 C628 1.391 . S
C627 C626 1.386 . S
C627 C631 1.393 . S
C628 H617 0.950 . S
C628 C626 1.391 . S
C628 C629 1.400 . S
C629 C623 1.491 . S
C629 C628 1.400 . S
C629 C630 1.398 . S
C630 H618 0.950 . S
C630 C629 1.398 . S
C630 C631 1.391 . S
C631 H619 0.950 . S
C631 C627 1.393 . S
C631 C630 1.391 . S
H632 C640 0.950 . S
H633 C645 0.950 1_554 S
H634 C642 0.950 . S
H635 C644 0.950 . S
H636 C646 0.950 . S
H637 C648 0.950 . S
H638 C650 0.950 . S
H639 C651 0.950 . S
C640 H632 0.950 . S
C640 C641 1.386 . S
C640 C642 1.391 . S
C641 C640 1.386 . S
C641 C645 1.393 . S
C642 H634 0.950 . S
C642 C640 1.391 . S
C642 C643 1.400 . S
C643 C642 1.400 . S
C643 C644 1.398 . S
C643 C649 1.491 . S
C644 H635 0.950 . S
C644 C643 1.398 . S
C644 C645 1.391 . S
C645 H633 0.950 1_556 S
C645 C641 1.393 . S
C645 C644 1.391 . S
C646 H636 0.950 . S
C646 C647 1.386 . S
C646 C648 1.391 . S
C647 C646 1.386 . S
C647 C651 1.393 . S
C648 H637 0.950 . S
C648 C646 1.391 . S
C648 C649 1.400 . S
C649 C643 1.491 . S
C649 C648 1.400 . S
C649 C650 1.398 . S
C650 H638 0.950 . S
C650 C649 1.398 . S
C650 C651 1.391 . S
C651 H639 0.950 . S
C651 C647 1.393 . S
C651 C650 1.391 . S
H652 C660 0.950 . S
H653 C665 0.950 1_556 S
H654 C662 0.950 . S
H655 C664 0.950 . S
H656 C666 0.950 . S
H657 C668 0.950 . S
H658 C670 0.950 . S
H659 C671 0.950 . S
C660 H652 0.950 . S
C660 C661 1.386 . S
C660 C662 1.391 . S
C661 C660 1.386 . S
C661 C665 1.393 . S
C662 H654 0.950 . S
C662 C660 1.391 . S
C662 C663 1.400 . S
C663 C662 1.400 . S
C663 C664 1.398 . S
C663 C669 1.491 . S
C664 H655 0.950 . S
C664 C663 1.398 . S
C664 C665 1.391 . S
C665 H653 0.950 1_554 S
C665 C661 1.393 . S
C665 C664 1.391 . S
C666 H656 0.950 . S
C666 C667 1.386 . S
C666 C668 1.391 . S
C667 C666 1.386 . S
C667 C671 1.393 . S
C668 H657 0.950 . S
C668 C666 1.391 . S
C668 C669 1.400 . S
C669 C663 1.491 . S
C669 C668 1.400 . S
C669 C670 1.398 . S
C670 H658 0.950 . S
C670 C669 1.398 . S
C670 C671 1.391 . S
C671 H659 0.950 . S
C671 C667 1.393 . S
C671 C670 1.391 . S
C281 C258 1.423 . S
C287 C20 1.431 . S
C301 C156 1.516 . S
C307 C54 1.513 . S
C321 C190 1.638 . S
C327 C88 1.642 . S
C341 C224 1.545 . S
C347 C122 1.525 . S
C361 C5 1.262 . S
C367 C9 1.227 . S
C381 C43 1.179 . S
C387 C39 1.222 . S
C401 C77 1.240 . S
C407 C73 1.251 . S
C421 C111 1.293 . S
C427 C107 1.295 . S
C441 C145 1.277 . S
C447 C141 1.277 . S
C461 C179 1.279 . S
C467 C175 1.304 . S
C481 C213 1.201 . S
C487 C209 1.228 1_554 S
C501 C243 1.225 . S
C507 C247 1.185 . S
C521 C237 1.420 . S
C527 C2 1.418 1_556 S
C541 C36 1.377 . S
C547 C240 1.378 . S
C561 C169 1.669 . S
C567 C101 1.661 . S
C581 C135 1.685 . S
C587 C203 1.681 . S
C601 C172 1.706 . S
C607 C67 1.707 . S
C621 C70 1.667 . S
C627 C206 1.666 . S
C641 C271 1.562 1_556 S
C647 C104 1.561 . S
C661 C33 1.618 . S
C667 C138 1.618 . S
