# Generated by pormake.
# Topology sqp, (5)-cn, num edge types: 1
# Building blocks:
#     Node 0, Type 0, BuildingBlock: XOMCOT_clean_sbu_0, # of connection points: 5
#     Node 1, Type 0, BuildingBlock: XOMCOT_clean_sbu_0, # of connection points: 5
#     Node 2, Type 0, BuildingBlock: XOMCOT_clean_sbu_0, # of connection points: 5
#     Node 3, Type 0, BuildingBlock: XOMCOT_clean_sbu_0, # of connection points: 5
#     Edge 4, Type (0, 0), BuildingBlock: CIFDUS_clean_linker_0, # of connection points: 2
#     Edge 5, Type (0, 0), BuildingBlock: CIFDUS_clean_linker_0, # of connection points: 2
#     Edge 6, Type (0, 0), BuildingBlock: CIFDUS_clean_linker_0, # of connection points: 2
#     Edge 7, Type (0, 0), BuildingBlock: CIFDUS_clean_linker_0, # of connection points: 2
#     Edge 8, Type (0, 0), BuildingBlock: CIFDUS_clean_linker_0, # of connection points: 2
#     Edge 9, Type (0, 0), BuildingBlock: CIFDUS_clean_linker_0, # of connection points: 2
#     Edge 10, Type (0, 0), BuildingBlock: CIFDUS_clean_linker_0, # of connection points: 2
#     Edge 11, Type (0, 0), BuildingBlock: CIFDUS_clean_linker_0, # of connection points: 2
#     Edge 12, Type (0, 0), BuildingBlock: CIFDUS_clean_linker_0, # of connection points: 2
#     Edge 13, Type (0, 0), BuildingBlock: CIFDUS_clean_linker_0, # of connection points: 2
# Relax obj value: 0.120
# Max RMSD: 0.201
# Mean RMSD: 0.201
data_MOF--net-sqp--node1-XOMCOT_clean_sbu_0--edge1-CIFDUS_clean_linker_0
_symmetry_space_group_name_H-M    P1
_symmetry_Int_Tables_number       1
_symmetry_cell_setting            triclinic
loop_
_symmetry_equiv_pos_as_xyz
'x, y, z'
_cell_length_a     21.533281
_cell_length_b     17.252272
_cell_length_c     41.966758
_cell_angle_alpha  89.614088
_cell_angle_beta   88.780463
_cell_angle_gamma 89.726439
loop_
_atom_site_label
_atom_site_type_symbol
_atom_site_fract_x
_atom_site_fract_y
_atom_site_fract_z
_atom_type_partial_charge
Co0 Co 0.02701 0.02662 0.30718 0.0
C1 C 0.9231 0.14505 0.30764 0.0
C2 C 1.00037 0.17619 0.27733 0.0
C3 C 0.95437 0.23012 0.27332 0.0
N4 N 0.98218 0.12361 0.29959 0.0
N5 N 0.90597 0.21088 0.29241 0.0
H6 H 0.89113 0.11003 0.32165 0.0
H7 H 0.0421 0.17233 0.26269 0.0
C8 C 0.13168 0.14091 0.30346 0.0
O9 O 0.10202 0.18446 0.32444 0.0
N10 N 0.07249 0.93072 0.31253 0.0
C11 C 0.07255 0.88055 0.33733 0.0
C12 C 0.1149 0.82205 0.33059 0.0
C13 C 0.11324 0.90151 0.29093 0.0
N14 N 0.1399 0.83556 0.30137 0.0
C15 C 0.98522 0.05632 0.3711 0.0
C16 C 0.10031 0.05044 0.39884 0.0
C17 C 0.04704 0.056 0.41859 0.0
C18 C 0.98903 0.06028 0.40419 0.0
C19 C 0.09439 0.04639 0.36578 0.0
N20 N 0.03728 0.04978 0.35219 0.0
H21 H 0.93989 0.05331 0.36097 0.0
H22 H 0.13565 0.03619 0.3513 0.0
H23 H 0.04434 0.88634 0.35882 0.0
H24 H 0.12373 0.92854 0.2681 0.0
O25 O 0.95026 0.97028 0.31084 0.0
O26 O 1.00248 0.99269 0.26548 0.0
O27 O 0.10795 0.0773 0.2944 0.0
C28 C 0.95496 0.96116 0.28016 0.0
H29 H 0.95439 0.27655 0.25582 0.0
H30 H 0.1257 0.77283 0.34566 0.0
H31 H 0.14617 0.04661 0.40885 0.0
H32 H 0.94646 0.06196 0.41839 0.0
Co33 Co 0.03671 0.97723 0.71835 0.0
C34 C 0.14877 0.07675 0.73066 0.0
C35 C 0.06908 0.14038 0.71478 0.0
C36 C 0.11775 0.19091 0.71691 0.0
N37 N 0.08826 0.06857 0.72306 0.0
N38 N 0.16763 0.15107 0.72683 0.0
H39 H 0.17894 0.02965 0.73771 0.0
H40 H 0.02314 0.15461 0.70654 0.0
C41 C 0.90578 0.0308 0.73749 0.0
O42 O 0.88037 0.97186 0.7232 0.0
N43 N 0.98485 0.88623 0.71367 0.0
C44 C 0.97203 0.8477 0.68676 0.0
C45 C 0.93234 0.78749 0.69433 0.0
C46 C 0.95527 0.84668 0.73736 0.0
N47 N 0.92164 0.78726 0.72613 0.0
C48 C 0.07588 0.0154 0.6558 0.0
C49 C 0.9622 0.04188 0.62855 0.0
C50 C 0.01614 0.04467 0.60915 0.0
C51 C 0.07351 0.03307 0.62349 0.0
C52 C 0.96671 0.02473 0.66116 0.0
N53 N 0.02312 1.00983 0.6743 0.0
H54 H 0.12085 1.00593 0.66607 0.0
H55 H 0.92466 0.02138 0.6751 0.0
H56 H 0.98982 0.8623 0.66321 0.0
H57 H 0.95556 0.86391 0.76211 0.0
O58 O 0.10726 0.91218 0.70964 0.0
O59 O 0.06754 0.93302 0.75804 0.0
O60 O 0.96472 0.04074 0.73654 0.0
C61 C 0.10785 0.8965 0.7399 0.0
H62 H 0.11679 0.25235 0.71147 0.0
H63 H 0.91275 0.74711 0.67772 0.0
H64 H 0.91676 0.05046 0.6185 0.0
H65 H 0.11664 0.03705 0.60984 0.0
Co66 Co 0.5173 0.47406 0.81337 0.0
C67 C 0.41113 0.58662 0.81246 0.0
C68 C 0.47525 0.59911 0.77274 0.0
C69 C 0.42776 0.65116 0.76896 0.0
N70 N 0.46512 0.55877 0.79993 0.0
N71 N 0.38774 0.6435 0.79384 0.0
H72 H 0.38829 0.56368 0.8337 0.0
H73 H 0.51333 0.58923 0.75604 0.0
C74 C 0.64668 0.53665 0.80355 0.0
O75 O 0.66158 0.50781 0.8314 0.0
N76 N 0.57188 0.38844 0.82502 0.0
C77 C 0.59715 0.36807 0.85315 0.0
C78 C 0.64053 0.31019 0.84788 0.0
C79 C 0.60027 0.34214 0.80331 0.0
N80 N 0.642 0.2941 0.81656 0.0
C81 C 0.49669 0.48849 0.88006 0.0
C82 C 0.5538 0.6297 0.88847 0.0
C83 C 0.52662 0.59171 0.91491 0.0
C84 C 0.49705 0.52093 0.91024 0.0
C85 C 0.55116 0.59564 0.85822 0.0
N86 N 0.52564 0.52383 0.85463 0.0
H87 H 0.47482 0.43284 0.87749 0.0
H88 H 0.56914 0.62741 0.83781 0.0
H89 H 0.58851 0.39545 0.8758 0.0
H90 H 0.59328 0.34649 0.7779 0.0
O91 O 0.44555 0.41211 0.82411 0.0
O92 O 0.49069 0.41518 0.77637 0.0
O93 O 0.59134 0.52956 0.7935 0.0
C94 C 0.44731 0.38686 0.79514 0.0
H95 H 0.42154 0.68974 0.7488 0.0
H96 H 0.66975 0.2833 0.86553 0.0
H97 H 0.57608 0.68537 0.89111 0.0
H98 H 0.47586 0.48939 0.93003 0.0
Co99 Co 0.54696 0.53267 0.20986 0.0
C100 C 0.65918 0.62936 0.22168 0.0
C101 C 0.5811 0.69757 0.20731 0.0
C102 C 0.62969 0.74659 0.21262 0.0
N103 N 0.59952 0.62368 0.21245 0.0
N104 N 0.67852 0.70371 0.22173 0.0
H105 H 0.68775 0.581 0.22896 0.0
H106 H 0.53471 0.71595 0.20177 0.0
C107 C 0.4177 0.58914 0.2255 0.0
O108 O 0.39738 0.5452 0.20252 0.0
N109 N 0.49414 0.44237 0.20832 0.0
C110 C 0.48024 0.39581 0.18383 0.0
C111 C 0.43553 0.34379 0.19417 0.0
C112 C 0.45954 0.41647 0.23326 0.0
N113 N 0.42207 0.35777 0.22517 0.0
C114 C 0.55954 0.52775 0.14193 0.0
C115 C 0.47612 0.64285 0.12619 0.0
C116 C 0.51025 0.60622 0.10183 0.0
C117 C 0.55238 0.54818 0.11008 0.0
C118 C 0.48557 0.62162 0.15805 0.0
N119 N 0.52619 0.56332 0.16588 0.0
H120 H 0.59203 0.48194 0.14686 0.0
H121 H 0.46087 0.65436 0.17592 0.0
H122 H 0.49913 0.40037 0.15988 0.0
H123 H 0.45972 0.44307 0.25654 0.0
O124 O 0.6172 0.46804 0.19946 0.0
O125 O 0.58355 0.48874 0.24866 0.0
O126 O 0.47608 0.59384 0.23053 0.0
C127 C 0.62191 0.45219 0.22947 0.0
H128 H 0.62818 0.80932 0.21176 0.0
H129 H 0.41232 0.30194 0.17952 0.0
H130 H 0.44338 0.68866 0.12073 0.0
H131 H 0.57904 0.51748 0.09193 0.0
H132 H 0.97883 0.13406 0.46405 0.0
H133 H 0.12344 0.96149 0.45263 0.0
H134 H 0.12632 0.94356 0.51014 0.0
H135 H 0.0853 0.97225 0.56337 0.0
H136 H 0.94071 0.14413 0.57585 0.0
H137 H 0.93865 0.16461 0.51809 0.0
C138 C 1.01091 0.09244 0.47414 0.0
C139 C 0.05112 0.04959 0.45389 0.0
C140 C 1.01169 0.08135 0.50737 0.0
C141 C 0.09283 0.99649 0.4675 0.0
C142 C 0.09406 0.9855 0.50043 0.0
C143 C 0.05384 0.01507 0.55359 0.0
C144 C 1.01349 0.05692 0.57404 0.0
C145 C 0.05347 0.02718 0.52054 0.0
C146 C 0.97191 0.11058 0.56072 0.0
C147 C 0.97105 0.12273 0.52769 0.0
H148 H 0.59874 0.63958 0.05689 0.0
H149 H 0.40095 0.61314 0.07044 0.0
H150 H 0.38724 0.61848 0.01271 0.0
H151 H 0.43346 0.61134 0.95863 0.0
H152 H 0.63142 0.63528 0.94506 0.0
H153 H 0.64324 0.65201 1.0025 0.0
C154 C 0.55258 0.63639 0.04713 0.0
C155 C 0.50097 0.62493 0.06774 0.0
C156 C 0.54525 0.6387 0.01397 0.0
C157 C 0.44128 0.62199 0.05499 0.0
C158 C 0.43353 0.62452 0.02201 0.0
C159 C 0.47897 0.62201 0.96827 0.0
C160 C 0.53162 0.62128 0.94782 0.0
C161 C 0.4854 0.63006 1.00129 0.0
C162 C 0.59028 0.63592 0.96037 0.0
C163 C 0.59707 0.64465 0.99322 0.0
H164 H 0.19026 0.27845 0.31212 0.0
H165 H 0.20494 0.06375 0.26013 0.0
H166 H 0.29779 0.11085 0.23211 0.0
H167 H 0.37277 0.2151 0.22075 0.0
H168 H 0.35614 0.43054 0.27192 0.0
H169 H 0.26702 0.38065 0.30205 0.0
C170 C 0.21395 0.24171 0.29482 0.0
C171 C 0.19031 0.16793 0.28814 0.0
C172 C 0.26721 0.26925 0.2786 0.0
C173 C 0.22182 0.12105 0.26567 0.0
C174 C 0.27499 0.1479 0.24957 0.0
C175 C 0.3496 0.25099 0.2385 0.0
C176 C 0.37143 0.32623 0.24408 0.0
C177 C 0.29768 0.22228 0.25555 0.0
C178 C 0.34124 0.37188 0.26745 0.0
C179 C 0.28979 0.34365 0.28456 0.0
H180 H 0.83626 0.20629 0.24137 0.0
H181 H 0.84186 0.29316 0.33688 0.0
H182 H 0.74906 0.37367 0.32733 0.0
H183 H 0.67328 0.42973 0.28887 0.0
H184 H 0.67399 0.34196 0.19271 0.0
H185 H 0.75655 0.25163 0.20528 0.0
C186 C 0.81592 0.24153 0.26024 0.0
C187 C 0.84497 0.2439 0.28973 0.0
C188 C 0.76422 0.2885 0.25419 0.0
C189 C 0.8193 0.29004 0.31412 0.0
C190 C 0.76682 0.33653 0.30848 0.0
C191 C 0.69113 0.3901 0.27092 0.0
C192 C 0.66808 0.39365 0.23975 0.0
C193 C 0.73986 0.33801 0.27821 0.0
C194 C 0.69154 0.34168 0.21672 0.0
C195 C 0.73872 0.28955 0.22387 0.0
H196 H 0.74739 0.81702 0.1957 0.0
H197 H 0.73529 0.65912 0.27543 0.0
H198 H 0.82204 0.72465 0.30064 0.0
H199 H 0.89554 0.8335 0.30166 0.0
H200 H 0.91199 0.9871 0.22053 0.0
H201 H 0.82918 0.91692 0.19395 0.0
C202 C 0.7646 0.79663 0.21837 0.0
C203 C 0.7352 0.73398 0.23389 0.0
C204 C 0.81452 0.83431 0.23249 0.0
C205 C 0.75776 0.707 0.26308 0.0
C206 C 0.80685 0.74485 0.27756 0.0
C207 C 0.88104 0.85118 0.27809 0.0
C208 C 0.90873 0.91577 0.26314 0.0
C209 C 0.8346 0.8096 0.26279 0.0
C210 C 0.89087 0.93756 0.2324 0.0
C211 C 0.84359 0.89761 0.21729 0.0
H212 H 0.24887 0.781 0.32244 0.0
H213 H 0.13019 0.78691 0.24123 0.0
H214 H 0.2056 0.70939 0.21052 0.0
H215 H 0.30552 0.64111 0.2067 0.0
H216 H 0.42899 0.64301 0.28623 0.0
H217 H 0.35208 0.71666 0.31772 0.0
C218 C 0.23977 0.76462 0.29809 0.0
C219 C 0.18415 0.78863 0.28403 0.0
C220 C 0.28429 0.72205 0.28033 0.0
C221 C 0.17284 0.76871 0.25234 0.0
C222 C 0.21585 0.72453 0.23487 0.0
C223 C 0.31558 0.65758 0.23095 0.0
C224 C 0.37266 0.63635 0.24421 0.0
C225 C 0.27179 0.70109 0.24858 0.0
C226 C 0.38542 0.65898 0.27548 0.0
C227 C 0.34137 0.70078 0.29352 0.0
H228 H 0.29732 0.62376 0.75337 0.0
H229 H 0.34752 0.7493 0.83688 0.0
H230 H 0.25788 0.8369 0.83026 0.0
H231 H 0.17422 0.88834 0.7953 0.0
H232 H 0.13194 0.76374 0.7097 0.0
H233 H 0.20848 0.66487 0.72245 0.0
C234 C 0.28712 0.66893 0.77059 0.0
C235 C 0.328 0.68034 0.79558 0.0
C236 C 0.23747 0.71998 0.76582 0.0
C237 C 0.31568 0.73929 0.81772 0.0
C238 C 0.26502 0.78973 0.81365 0.0
C239 C 0.18121 0.83865 0.77992 0.0
C240 C 0.14833 0.83365 0.75139 0.0
C241 C 0.2269 0.78244 0.78701 0.0
C242 C 0.15761 0.76931 0.73151 0.0
C243 C 0.2012 0.71262 0.73879 0.0
H244 H 0.23228 0.14363 0.78056 0.0
H245 H 0.23502 0.23631 0.68521 0.0
H246 H 0.32772 0.31248 0.69657 0.0
H247 H 0.40138 0.36328 0.73569 0.0
H248 H 0.39143 0.27879 0.83257 0.0
H249 H 0.30918 0.18903 0.81883 0.0
C250 C 0.2544 0.17908 0.7622 0.0
C251 C 0.22765 0.18416 0.73209 0.0
C252 C 0.30599 0.22513 0.76939 0.0
C253 C 0.25543 0.23156 0.70851 0.0
C254 C 0.30809 0.27531 0.71507 0.0
C255 C 0.38175 0.3243 0.75357 0.0
C256 C 0.4022 0.32787 0.78509 0.0
C257 C 0.33284 0.27428 0.74572 0.0
C258 C 0.37603 0.2776 0.80817 0.0
C259 C 0.32901 0.22611 0.80035 0.0
H260 H 0.78238 0.05345 0.73002 0.0
H261 H 0.93797 0.13302 0.78384 0.0
H262 H 0.86922 0.22001 0.8142 0.0
H263 H 0.76412 0.27287 0.82565 0.0
H264 H 0.61061 0.19817 0.76957 0.0
H265 H 0.67909 0.10944 0.73989 0.0
C266 C 0.80131 0.08978 0.7484 0.0
C267 C 0.8651 0.08638 0.75481 0.0
C268 C 0.76175 0.14022 0.76541 0.0
C269 C 0.88902 0.13464 0.77841 0.0
C270 C 0.8497 0.18415 0.79586 0.0
C271 C 0.74591 0.23653 0.8071 0.0
C272 C 0.68254 0.24106 0.7999 0.0
C273 C 0.78592 0.18713 0.78968 0.0
C274 C 0.65933 0.19524 0.77539 0.0
C275 C 0.6984 0.14467 0.7585 0.0
H276 H 0.7595 0.58896 0.82234 0.0
H277 H 0.63829 0.5857 0.74174 0.0
H278 H 0.71379 0.66065 0.71032 0.0
H279 H 0.81339 0.7296 0.70595 0.0
H280 H 0.93313 0.73673 0.78684 0.0
H281 H 0.85911 0.65811 0.81794 0.0
C282 C 0.74964 0.60433 0.79786 0.0
C283 C 0.69319 0.58147 0.78447 0.0
C284 C 0.79303 0.64834 0.77998 0.0
C285 C 0.68117 0.60255 0.75275 0.0
C286 C 0.72441 0.64539 0.7347 0.0
C287 C 0.82359 0.71313 0.73025 0.0
C288 C 0.87888 0.73865 0.74401 0.0
C289 C 0.78041 0.66879 0.74808 0.0
C290 C 0.89079 0.71819 0.77578 0.0
C291 C 0.84854 0.67308 0.79352 0.0
loop_
_geom_bond_atom_site_label_1
_geom_bond_atom_site_label_2
_geom_bond_distance
_geom_bond_site_symmetry_2
_ccdc_geom_bond_type
Co0 N4 2.148 1_465 S
Co0 N10 2.128 . S
Co0 N20 2.194 1_565 S
Co0 O25 2.351 1_455 S
Co0 O26 2.155 1_455 S
Co0 O27 2.096 1_565 S
C1 N4 1.301 . S
C1 N5 1.328 . S
C1 H6 0.930 . S
C2 C3 1.333 . S
C2 N4 1.317 . S
C2 H7 0.928 . S
C3 C2 1.333 . S
C3 N5 1.350 . S
C3 H29 0.931 . S
N4 Co0 2.148 1_645 S
N4 C1 1.301 . S
N4 C2 1.317 . S
N5 C1 1.328 . S
N5 C3 1.350 . S
H6 C1 0.930 . S
H7 C2 0.928 . S
C8 O9 1.224 . S
C8 O27 1.247 . S
O9 C8 1.224 . S
N10 Co0 2.128 . S
N10 C11 1.355 . S
N10 C13 1.311 . S
C11 N10 1.355 . S
C11 C12 1.363 . S
C11 H23 0.929 . S
C12 C11 1.363 . S
C12 N14 1.375 . S
C12 H30 0.931 . S
C13 N10 1.311 . S
C13 N14 1.347 . S
C13 H24 0.929 . S
N14 C12 1.375 . S
N14 C13 1.347 . S
C15 C18 1.365 . S
C15 N20 1.328 1_665 S
C15 H21 0.929 . S
C16 C17 1.362 . S
C16 C19 1.378 . S
C16 H31 0.929 . S
C17 C16 1.362 . S
C17 C18 1.366 1_445 S
C18 C15 1.365 . S
C18 C17 1.366 1_665 S
C18 H32 0.930 . S
C19 C16 1.378 . S
C19 N20 1.315 . S
C19 H22 0.930 . S
N20 Co0 2.194 1_545 S
N20 C15 1.328 1_445 S
N20 C19 1.315 . S
H21 C15 0.929 . S
H22 C19 0.930 . S
H23 C11 0.929 . S
H24 C13 0.929 . S
O25 Co0 2.351 1_655 S
O25 C28 1.244 . S
O26 Co0 2.155 1_655 S
O26 C28 1.240 . S
O27 Co0 2.096 1_545 S
O27 C8 1.247 . S
C28 O25 1.244 . S
C28 O26 1.240 . S
H29 C3 0.931 . S
H30 C12 0.931 . S
H31 C16 0.929 . S
H32 C18 0.930 . S
Co33 N37 2.148 1_565 S
Co33 N43 2.128 1_455 S
Co33 N53 2.194 1_565 S
Co33 O58 2.351 . S
Co33 O59 2.155 . S
Co33 O60 2.096 1_465 S
C34 N37 1.301 . S
C34 N38 1.328 . S
C34 H39 0.930 . S
C35 C36 1.333 . S
C35 N37 1.317 . S
C35 H40 0.930 . S
C36 C35 1.333 . S
C36 N38 1.350 . S
C36 H62 0.931 . S
N37 Co33 2.148 1_545 S
N37 C34 1.301 . S
N37 C35 1.317 . S
N38 C34 1.328 . S
N38 C36 1.350 . S
H39 C34 0.930 . S
H40 C35 0.930 . S
C41 O42 1.224 . S
C41 O60 1.247 . S
O42 C41 1.224 . S
N43 Co33 2.128 1_655 S
N43 C44 1.355 . S
N43 C46 1.311 . S
C44 N43 1.355 . S
C44 C45 1.363 . S
C44 H56 0.929 . S
C45 C44 1.363 . S
C45 N47 1.375 . S
C45 H63 0.931 . S
C46 N43 1.311 . S
C46 N47 1.347 . S
C46 H57 0.929 . S
N47 C45 1.375 . S
N47 C46 1.347 . S
C48 C51 1.365 . S
C48 N53 1.328 1_565 S
C48 H54 0.929 . S
C49 C50 1.362 1_655 S
C49 C52 1.378 . S
C49 H64 0.929 . S
C50 C49 1.362 1_455 S
C50 C51 1.366 1_545 S
C51 C48 1.365 . S
C51 C50 1.366 1_565 S
C51 H65 0.930 . S
C52 C49 1.378 . S
C52 N53 1.315 1_655 S
C52 H55 0.930 . S
N53 Co33 2.194 1_545 S
N53 C48 1.328 1_545 S
N53 C52 1.315 1_455 S
H54 C48 0.929 . S
H55 C52 0.930 . S
H56 C44 0.929 . S
H57 C46 0.929 . S
O58 Co33 2.351 . S
O58 C61 1.244 . S
O59 Co33 2.155 . S
O59 C61 1.240 . S
O60 Co33 2.096 1_645 S
O60 C41 1.247 . S
C61 O58 1.244 . S
C61 O59 1.240 . S
H62 C36 0.931 . S
H63 C45 0.931 . S
H64 C49 0.929 . S
H65 C51 0.930 . S
Co66 N70 2.148 . S
Co66 N76 2.128 . S
Co66 N86 2.194 . S
Co66 O91 2.351 . S
Co66 O92 2.155 . S
Co66 O93 2.096 . S
C67 N70 1.301 . S
C67 N71 1.328 . S
C67 H72 0.930 . S
C68 C69 1.333 . S
C68 N70 1.317 . S
C68 H73 0.930 . S
C69 C68 1.333 . S
C69 N71 1.350 . S
C69 H95 0.931 . S
N70 Co66 2.148 . S
N70 C67 1.301 . S
N70 C68 1.317 . S
N71 C67 1.328 . S
N71 C69 1.350 . S
H72 C67 0.930 . S
H73 C68 0.930 . S
C74 O75 1.224 . S
C74 O93 1.247 . S
O75 C74 1.224 . S
N76 Co66 2.128 . S
N76 C77 1.355 . S
N76 C79 1.311 . S
C77 N76 1.355 . S
C77 C78 1.363 . S
C77 H89 0.929 . S
C78 C77 1.363 . S
C78 N80 1.375 . S
C78 H96 0.931 . S
C79 N76 1.311 . S
C79 N80 1.347 . S
C79 H90 0.929 . S
N80 C78 1.375 . S
N80 C79 1.347 . S
C81 C84 1.365 . S
C81 N86 1.328 . S
C81 H87 0.929 . S
C82 C83 1.362 . S
C82 C85 1.378 . S
C82 H97 0.929 . S
C83 C82 1.362 . S
C83 C84 1.366 . S
C84 C81 1.365 . S
C84 C83 1.366 . S
C84 H98 0.930 . S
C85 C82 1.378 . S
C85 N86 1.315 . S
C85 H88 0.930 . S
N86 Co66 2.194 . S
N86 C81 1.328 . S
N86 C85 1.315 . S
H87 C81 0.929 . S
H88 C85 0.930 . S
H89 C77 0.929 . S
H90 C79 0.929 . S
O91 Co66 2.351 . S
O91 C94 1.244 . S
O92 Co66 2.155 . S
O92 C94 1.240 . S
O93 Co66 2.096 . S
O93 C74 1.247 . S
C94 O91 1.244 . S
C94 O92 1.240 . S
H95 C69 0.931 . S
H96 C78 0.931 . S
H97 C82 0.929 . S
H98 C84 0.930 . S
Co99 N103 2.148 . S
Co99 N109 2.128 . S
Co99 N119 2.194 . S
Co99 O124 2.351 . S
Co99 O125 2.155 . S
Co99 O126 2.096 . S
C100 N103 1.301 . S
C100 N104 1.328 . S
C100 H105 0.930 . S
C101 C102 1.333 . S
C101 N103 1.317 . S
C101 H106 0.930 . S
C102 C101 1.333 . S
C102 N104 1.350 . S
C102 H128 0.931 . S
N103 Co99 2.148 . S
N103 C100 1.301 . S
N103 C101 1.317 . S
N104 C100 1.328 . S
N104 C102 1.350 . S
H105 C100 0.930 . S
H106 C101 0.930 . S
C107 O108 1.224 . S
C107 O126 1.247 . S
O108 C107 1.224 . S
N109 Co99 2.128 . S
N109 C110 1.355 . S
N109 C112 1.311 . S
C110 N109 1.355 . S
C110 C111 1.363 . S
C110 H122 0.929 . S
C111 C110 1.363 . S
C111 N113 1.375 . S
C111 H129 0.931 . S
C112 N109 1.311 . S
C112 N113 1.347 . S
C112 H123 0.929 . S
N113 C111 1.375 . S
N113 C112 1.347 . S
C114 C117 1.365 . S
C114 N119 1.328 . S
C114 H120 0.929 . S
C115 C116 1.362 . S
C115 C118 1.378 . S
C115 H130 0.929 . S
C116 C115 1.362 . S
C116 C117 1.366 . S
C117 C114 1.365 . S
C117 C116 1.366 . S
C117 H131 0.930 . S
C118 C115 1.378 . S
C118 N119 1.315 . S
C118 H121 0.930 . S
N119 Co99 2.194 . S
N119 C114 1.328 . S
N119 C118 1.315 . S
H120 C114 0.929 . S
H121 C118 0.930 . S
H122 C110 0.929 . S
H123 C112 0.929 . S
O124 Co99 2.351 . S
O124 C127 1.244 . S
O125 Co99 2.155 . S
O125 C127 1.240 . S
O126 Co99 2.096 . S
O126 C107 1.247 . S
C127 O124 1.244 . S
C127 O125 1.240 . S
H128 C102 0.931 . S
H129 C111 0.931 . S
H130 C115 0.929 . S
H131 C117 0.930 . S
H132 C138 0.930 . S
H133 C141 0.930 . S
H134 C142 0.930 . S
H135 C143 0.930 . S
H136 C146 0.930 . S
H137 C147 0.930 . S
C138 H132 0.930 . S
C138 C139 1.355 1_655 S
C138 C140 1.415 . S
C139 C138 1.355 1_455 S
C139 C141 1.419 1_545 S
C140 C138 1.415 . S
C140 C145 1.425 1_645 S
C140 C147 1.409 . S
C141 H133 0.930 . S
C141 C139 1.419 1_565 S
C141 C142 1.362 . S
C142 H134 0.930 . S
C142 C141 1.362 . S
C142 C145 1.409 . S
C143 H135 0.930 . S
C143 C144 1.355 1_565 S
C143 C145 1.415 . S
C144 C143 1.355 1_545 S
C144 C146 1.419 1_455 S
C145 C140 1.425 1_465 S
C145 C142 1.409 . S
C145 C143 1.415 . S
C146 H136 0.930 . S
C146 C144 1.419 1_655 S
C146 C147 1.362 . S
C147 H137 0.930 . S
C147 C140 1.409 . S
C147 C146 1.362 . S
H148 C154 0.930 . S
H149 C157 0.930 . S
H150 C158 0.930 . S
H151 C159 0.930 . S
H152 C162 0.930 . S
H153 C163 0.930 . S
C154 H148 0.930 . S
C154 C155 1.355 . S
C154 C156 1.415 . S
C155 C154 1.355 . S
C155 C157 1.419 . S
C156 C154 1.415 . S
C156 C161 1.425 1_554 S
C156 C163 1.409 1_554 S
C157 H149 0.930 . S
C157 C155 1.419 . S
C157 C158 1.362 . S
C158 H150 0.930 . S
C158 C157 1.362 . S
C158 C161 1.409 1_554 S
C159 H151 0.930 . S
C159 C160 1.355 . S
C159 C161 1.415 . S
C160 C159 1.355 . S
C160 C162 1.419 . S
C161 C156 1.425 1_556 S
C161 C158 1.409 1_556 S
C161 C159 1.415 . S
C162 H152 0.930 . S
C162 C160 1.419 . S
C162 C163 1.362 . S
C163 H153 0.930 . S
C163 C156 1.409 1_556 S
C163 C162 1.362 . S
H164 C170 0.930 . S
H165 C173 0.930 . S
H166 C174 0.930 . S
H167 C175 0.930 . S
H168 C178 0.930 . S
H169 C179 0.930 . S
C170 H164 0.930 . S
C170 C171 1.355 . S
C170 C172 1.415 . S
C171 C170 1.355 . S
C171 C173 1.419 . S
C172 C170 1.415 . S
C172 C177 1.425 . S
C172 C179 1.409 . S
C173 H165 0.930 . S
C173 C171 1.419 . S
C173 C174 1.362 . S
C174 H166 0.930 . S
C174 C173 1.362 . S
C174 C177 1.409 . S
C175 H167 0.930 . S
C175 C176 1.355 . S
C175 C177 1.415 . S
C176 C175 1.355 . S
C176 C178 1.419 . S
C177 C172 1.425 . S
C177 C174 1.409 . S
C177 C175 1.415 . S
C178 H168 0.930 . S
C178 C176 1.419 . S
C178 C179 1.362 . S
C179 H169 0.930 . S
C179 C172 1.409 . S
C179 C178 1.362 . S
H180 C186 0.930 . S
H181 C189 0.930 . S
H182 C190 0.930 . S
H183 C191 0.930 . S
H184 C194 0.930 . S
H185 C195 0.930 . S
C186 H180 0.930 . S
C186 C187 1.355 . S
C186 C188 1.415 . S
C187 C186 1.355 . S
C187 C189 1.419 . S
C188 C186 1.415 . S
C188 C193 1.425 . S
C188 C195 1.409 . S
C189 H181 0.930 . S
C189 C187 1.419 . S
C189 C190 1.362 . S
C190 H182 0.930 . S
C190 C189 1.362 . S
C190 C193 1.409 . S
C191 H183 0.930 . S
C191 C192 1.355 . S
C191 C193 1.415 . S
C192 C191 1.355 . S
C192 C194 1.419 . S
C193 C188 1.425 . S
C193 C190 1.409 . S
C193 C191 1.415 . S
C194 H184 0.930 . S
C194 C192 1.419 . S
C194 C195 1.362 . S
C195 H185 0.930 . S
C195 C188 1.409 . S
C195 C194 1.362 . S
H196 C202 0.930 . S
H197 C205 0.930 . S
H198 C206 0.930 . S
H199 C207 0.930 . S
H200 C210 0.930 . S
H201 C211 0.930 . S
C202 H196 0.930 . S
C202 C203 1.355 . S
C202 C204 1.415 . S
C203 C202 1.355 . S
C203 C205 1.419 . S
C204 C202 1.415 . S
C204 C209 1.425 . S
C204 C211 1.409 . S
C205 H197 0.930 . S
C205 C203 1.419 . S
C205 C206 1.362 . S
C206 H198 0.930 . S
C206 C205 1.362 . S
C206 C209 1.409 . S
C207 H199 0.930 . S
C207 C208 1.355 . S
C207 C209 1.415 . S
C208 C207 1.355 . S
C208 C210 1.419 . S
C209 C204 1.425 . S
C209 C206 1.409 . S
C209 C207 1.415 . S
C210 H200 0.930 . S
C210 C208 1.419 . S
C210 C211 1.362 . S
C211 H201 0.930 . S
C211 C204 1.409 . S
C211 C210 1.362 . S
H212 C218 0.930 . S
H213 C221 0.930 . S
H214 C222 0.930 . S
H215 C223 0.930 . S
H216 C226 0.930 . S
H217 C227 0.930 . S
C218 H212 0.930 . S
C218 C219 1.355 . S
C218 C220 1.415 . S
C219 C218 1.355 . S
C219 C221 1.419 . S
C220 C218 1.415 . S
C220 C225 1.425 . S
C220 C227 1.409 . S
C221 H213 0.930 . S
C221 C219 1.419 . S
C221 C222 1.362 . S
C222 H214 0.930 . S
C222 C221 1.362 . S
C222 C225 1.409 . S
C223 H215 0.930 . S
C223 C224 1.355 . S
C223 C225 1.415 . S
C224 C223 1.355 . S
C224 C226 1.419 . S
C225 C220 1.425 . S
C225 C222 1.409 . S
C225 C223 1.415 . S
C226 H216 0.930 . S
C226 C224 1.419 . S
C226 C227 1.362 . S
C227 H217 0.930 . S
C227 C220 1.409 . S
C227 C226 1.362 . S
H228 C234 0.930 . S
H229 C237 0.930 . S
H230 C238 0.930 . S
H231 C239 0.930 . S
H232 C242 0.930 . S
H233 C243 0.930 . S
C234 H228 0.930 . S
C234 C235 1.355 . S
C234 C236 1.415 . S
C235 C234 1.355 . S
C235 C237 1.419 . S
C236 C234 1.415 . S
C236 C241 1.425 . S
C236 C243 1.409 . S
C237 H229 0.930 . S
C237 C235 1.419 . S
C237 C238 1.362 . S
C238 H230 0.930 . S
C238 C237 1.362 . S
C238 C241 1.409 . S
C239 H231 0.930 . S
C239 C240 1.355 . S
C239 C241 1.415 . S
C240 C239 1.355 . S
C240 C242 1.419 . S
C241 C236 1.425 . S
C241 C238 1.409 . S
C241 C239 1.415 . S
C242 H232 0.930 . S
C242 C240 1.419 . S
C242 C243 1.362 . S
C243 H233 0.930 . S
C243 C236 1.409 . S
C243 C242 1.362 . S
H244 C250 0.930 . S
H245 C253 0.930 . S
H246 C254 0.930 . S
H247 C255 0.930 . S
H248 C258 0.930 . S
H249 C259 0.930 . S
C250 H244 0.930 . S
C250 C251 1.355 . S
C250 C252 1.415 . S
C251 C250 1.355 . S
C251 C253 1.419 . S
C252 C250 1.415 . S
C252 C257 1.425 . S
C252 C259 1.409 . S
C253 H245 0.930 . S
C253 C251 1.419 . S
C253 C254 1.362 . S
C254 H246 0.930 . S
C254 C253 1.362 . S
C254 C257 1.409 . S
C255 H247 0.930 . S
C255 C256 1.355 . S
C255 C257 1.415 . S
C256 C255 1.355 . S
C256 C258 1.419 . S
C257 C252 1.425 . S
C257 C254 1.409 . S
C257 C255 1.415 . S
C258 H248 0.930 . S
C258 C256 1.419 . S
C258 C259 1.362 . S
C259 H249 0.930 . S
C259 C252 1.409 . S
C259 C258 1.362 . S
H260 C266 0.930 . S
H261 C269 0.930 . S
H262 C270 0.930 . S
H263 C271 0.930 . S
H264 C274 0.930 . S
H265 C275 0.930 . S
C266 H260 0.930 . S
C266 C267 1.355 . S
C266 C268 1.415 . S
C267 C266 1.355 . S
C267 C269 1.419 . S
C268 C266 1.415 . S
C268 C273 1.425 . S
C268 C275 1.409 . S
C269 H261 0.930 . S
C269 C267 1.419 . S
C269 C270 1.362 . S
C270 H262 0.930 . S
C270 C269 1.362 . S
C270 C273 1.409 . S
C271 H263 0.930 . S
C271 C272 1.355 . S
C271 C273 1.415 . S
C272 C271 1.355 . S
C272 C274 1.419 . S
C273 C268 1.425 . S
C273 C270 1.409 . S
C273 C271 1.415 . S
C274 H264 0.930 . S
C274 C272 1.419 . S
C274 C275 1.362 . S
C275 H265 0.930 . S
C275 C268 1.409 . S
C275 C274 1.362 . S
H276 C282 0.930 . S
H277 C285 0.930 . S
H278 C286 0.930 . S
H279 C287 0.930 . S
H280 C290 0.930 . S
H281 C291 0.930 . S
C282 H276 0.930 . S
C282 C283 1.355 . S
C282 C284 1.415 . S
C283 C282 1.355 . S
C283 C285 1.419 . S
C284 C282 1.415 . S
C284 C289 1.425 . S
C284 C291 1.409 . S
C285 H277 0.930 . S
C285 C283 1.419 . S
C285 C286 1.362 . S
C286 H278 0.930 . S
C286 C285 1.362 . S
C286 C289 1.409 . S
C287 H279 0.930 . S
C287 C288 1.355 . S
C287 C289 1.415 . S
C288 C287 1.355 . S
C288 C290 1.419 . S
C289 C284 1.425 . S
C289 C286 1.409 . S
C289 C287 1.415 . S
C290 H280 0.930 . S
C290 C288 1.419 . S
C290 C291 1.362 . S
C291 H281 0.930 . S
C291 C284 1.409 . S
C291 C290 1.362 . S
C139 C17 1.490 . S
C144 C50 1.488 . S
C155 C116 1.487 . S
C160 C83 1.490 . S
C171 C8 1.529 . S
C176 N113 1.518 . S
C187 N5 1.354 . S
C192 C127 1.472 . S
C203 N104 1.416 . S
C208 C28 1.475 . S
C219 N14 1.483 . S
C224 C107 1.536 . S
C235 N71 1.357 . S
C240 C61 1.473 . S
C251 N38 1.367 . S
C256 C94 1.469 . S
C267 C41 1.535 . S
C272 N80 1.503 . S
C283 C74 1.513 . S
C288 N47 1.495 . S
