# Generated by pormake.
# Topology wnd, (6)-cn, num edge types: 1
# Building blocks:
#     Node 0, Type 0, BuildingBlock: MIFKUJ_clean_sbu_0, # of connection points: 6
#     Node 1, Type 0, BuildingBlock: MIFKUJ_clean_sbu_0, # of connection points: 6
#     Node 2, Type 0, BuildingBlock: MIFKUJ_clean_sbu_0, # of connection points: 6
#     Node 3, Type 0, BuildingBlock: MIFKUJ_clean_sbu_0, # of connection points: 6
#     Node 4, Type 0, BuildingBlock: MIFKUJ_clean_sbu_0, # of connection points: 6
#     Node 5, Type 0, BuildingBlock: MIFKUJ_clean_sbu_0, # of connection points: 6
#     Node 6, Type 0, BuildingBlock: MIFKUJ_clean_sbu_0, # of connection points: 6
#     Node 7, Type 0, BuildingBlock: MIFKUJ_clean_sbu_0, # of connection points: 6
#     Node 8, Type 0, BuildingBlock: MIFKUJ_clean_sbu_0, # of connection points: 6
#     Node 9, Type 0, BuildingBlock: MIFKUJ_clean_sbu_0, # of connection points: 6
#     Node 10, Type 0, BuildingBlock: MIFKUJ_clean_sbu_0, # of connection points: 6
#     Node 11, Type 0, BuildingBlock: MIFKUJ_clean_sbu_0, # of connection points: 6
#     Node 12, Type 0, BuildingBlock: MIFKUJ_clean_sbu_0, # of connection points: 6
#     Node 13, Type 0, BuildingBlock: MIFKUJ_clean_sbu_0, # of connection points: 6
#     Node 14, Type 0, BuildingBlock: MIFKUJ_clean_sbu_0, # of connection points: 6
#     Node 15, Type 0, BuildingBlock: MIFKUJ_clean_sbu_0, # of connection points: 6
#     Node 16, Type 0, BuildingBlock: MIFKUJ_clean_sbu_0, # of connection points: 6
#     Node 17, Type 0, BuildingBlock: MIFKUJ_clean_sbu_0, # of connection points: 6
#     Node 18, Type 0, BuildingBlock: MIFKUJ_clean_sbu_0, # of connection points: 6
#     Node 19, Type 0, BuildingBlock: MIFKUJ_clean_sbu_0, # of connection points: 6
#     Node 20, Type 0, BuildingBlock: MIFKUJ_clean_sbu_0, # of connection points: 6
#     Node 21, Type 0, BuildingBlock: MIFKUJ_clean_sbu_0, # of connection points: 6
#     Node 22, Type 0, BuildingBlock: MIFKUJ_clean_sbu_0, # of connection points: 6
#     Node 23, Type 0, BuildingBlock: MIFKUJ_clean_sbu_0, # of connection points: 6
#     Node 24, Type 0, BuildingBlock: MIFKUJ_clean_sbu_0, # of connection points: 6
#     Node 25, Type 0, BuildingBlock: MIFKUJ_clean_sbu_0, # of connection points: 6
#     Node 26, Type 0, BuildingBlock: MIFKUJ_clean_sbu_0, # of connection points: 6
#     Node 27, Type 0, BuildingBlock: MIFKUJ_clean_sbu_0, # of connection points: 6
#     Node 28, Type 0, BuildingBlock: MIFKUJ_clean_sbu_0, # of connection points: 6
#     Node 29, Type 0, BuildingBlock: MIFKUJ_clean_sbu_0, # of connection points: 6
#     Node 30, Type 0, BuildingBlock: MIFKUJ_clean_sbu_0, # of connection points: 6
#     Node 31, Type 0, BuildingBlock: MIFKUJ_clean_sbu_0, # of connection points: 6
#     Node 32, Type 0, BuildingBlock: MIFKUJ_clean_sbu_0, # of connection points: 6
#     Node 33, Type 0, BuildingBlock: MIFKUJ_clean_sbu_0, # of connection points: 6
#     Node 34, Type 0, BuildingBlock: MIFKUJ_clean_sbu_0, # of connection points: 6
#     Node 35, Type 0, BuildingBlock: MIFKUJ_clean_sbu_0, # of connection points: 6
#     Edge 36, Type (0, 0), BuildingBlock: XUDNAN_clean_linker_2, # of connection points: 2
#     Edge 37, Type (0, 0), BuildingBlock: XUDNAN_clean_linker_2, # of connection points: 2
#     Edge 38, Type (0, 0), BuildingBlock: XUDNAN_clean_linker_2, # of connection points: 2
#     Edge 39, Type (0, 0), BuildingBlock: XUDNAN_clean_linker_2, # of connection points: 2
#     Edge 40, Type (0, 0), BuildingBlock: XUDNAN_clean_linker_2, # of connection points: 2
#     Edge 41, Type (0, 0), BuildingBlock: XUDNAN_clean_linker_2, # of connection points: 2
#     Edge 42, Type (0, 0), BuildingBlock: XUDNAN_clean_linker_2, # of connection points: 2
#     Edge 43, Type (0, 0), BuildingBlock: XUDNAN_clean_linker_2, # of connection points: 2
#     Edge 44, Type (0, 0), BuildingBlock: XUDNAN_clean_linker_2, # of connection points: 2
#     Edge 45, Type (0, 0), BuildingBlock: XUDNAN_clean_linker_2, # of connection points: 2
#     Edge 46, Type (0, 0), BuildingBlock: XUDNAN_clean_linker_2, # of connection points: 2
#     Edge 47, Type (0, 0), BuildingBlock: XUDNAN_clean_linker_2, # of connection points: 2
#     Edge 48, Type (0, 0), BuildingBlock: XUDNAN_clean_linker_2, # of connection points: 2
#     Edge 49, Type (0, 0), BuildingBlock: XUDNAN_clean_linker_2, # of connection points: 2
#     Edge 50, Type (0, 0), BuildingBlock: XUDNAN_clean_linker_2, # of connection points: 2
#     Edge 51, Type (0, 0), BuildingBlock: XUDNAN_clean_linker_2, # of connection points: 2
#     Edge 52, Type (0, 0), BuildingBlock: XUDNAN_clean_linker_2, # of connection points: 2
#     Edge 53, Type (0, 0), BuildingBlock: XUDNAN_clean_linker_2, # of connection points: 2
#     Edge 54, Type (0, 0), BuildingBlock: XUDNAN_clean_linker_2, # of connection points: 2
#     Edge 55, Type (0, 0), BuildingBlock: XUDNAN_clean_linker_2, # of connection points: 2
#     Edge 56, Type (0, 0), BuildingBlock: XUDNAN_clean_linker_2, # of connection points: 2
#     Edge 57, Type (0, 0), BuildingBlock: XUDNAN_clean_linker_2, # of connection points: 2
#     Edge 58, Type (0, 0), BuildingBlock: XUDNAN_clean_linker_2, # of connection points: 2
#     Edge 59, Type (0, 0), BuildingBlock: XUDNAN_clean_linker_2, # of connection points: 2
#     Edge 60, Type (0, 0), BuildingBlock: XUDNAN_clean_linker_2, # of connection points: 2
#     Edge 61, Type (0, 0), BuildingBlock: XUDNAN_clean_linker_2, # of connection points: 2
#     Edge 62, Type (0, 0), BuildingBlock: XUDNAN_clean_linker_2, # of connection points: 2
#     Edge 63, Type (0, 0), BuildingBlock: XUDNAN_clean_linker_2, # of connection points: 2
#     Edge 64, Type (0, 0), BuildingBlock: XUDNAN_clean_linker_2, # of connection points: 2
#     Edge 65, Type (0, 0), BuildingBlock: XUDNAN_clean_linker_2, # of connection points: 2
#     Edge 66, Type (0, 0), BuildingBlock: XUDNAN_clean_linker_2, # of connection points: 2
#     Edge 67, Type (0, 0), BuildingBlock: XUDNAN_clean_linker_2, # of connection points: 2
#     Edge 68, Type (0, 0), BuildingBlock: XUDNAN_clean_linker_2, # of connection points: 2
#     Edge 69, Type (0, 0), BuildingBlock: XUDNAN_clean_linker_2, # of connection points: 2
#     Edge 70, Type (0, 0), BuildingBlock: XUDNAN_clean_linker_2, # of connection points: 2
#     Edge 71, Type (0, 0), BuildingBlock: XUDNAN_clean_linker_2, # of connection points: 2
#     Edge 72, Type (0, 0), BuildingBlock: XUDNAN_clean_linker_2, # of connection points: 2
#     Edge 73, Type (0, 0), BuildingBlock: XUDNAN_clean_linker_2, # of connection points: 2
#     Edge 74, Type (0, 0), BuildingBlock: XUDNAN_clean_linker_2, # of connection points: 2
#     Edge 75, Type (0, 0), BuildingBlock: XUDNAN_clean_linker_2, # of connection points: 2
#     Edge 76, Type (0, 0), BuildingBlock: XUDNAN_clean_linker_2, # of connection points: 2
#     Edge 77, Type (0, 0), BuildingBlock: XUDNAN_clean_linker_2, # of connection points: 2
#     Edge 78, Type (0, 0), BuildingBlock: XUDNAN_clean_linker_2, # of connection points: 2
#     Edge 79, Type (0, 0), BuildingBlock: XUDNAN_clean_linker_2, # of connection points: 2
#     Edge 80, Type (0, 0), BuildingBlock: XUDNAN_clean_linker_2, # of connection points: 2
#     Edge 81, Type (0, 0), BuildingBlock: XUDNAN_clean_linker_2, # of connection points: 2
#     Edge 82, Type (0, 0), BuildingBlock: XUDNAN_clean_linker_2, # of connection points: 2
#     Edge 83, Type (0, 0), BuildingBlock: XUDNAN_clean_linker_2, # of connection points: 2
#     Edge 84, Type (0, 0), BuildingBlock: XUDNAN_clean_linker_2, # of connection points: 2
#     Edge 85, Type (0, 0), BuildingBlock: XUDNAN_clean_linker_2, # of connection points: 2
#     Edge 86, Type (0, 0), BuildingBlock: XUDNAN_clean_linker_2, # of connection points: 2
#     Edge 87, Type (0, 0), BuildingBlock: XUDNAN_clean_linker_2, # of connection points: 2
#     Edge 88, Type (0, 0), BuildingBlock: XUDNAN_clean_linker_2, # of connection points: 2
#     Edge 89, Type (0, 0), BuildingBlock: XUDNAN_clean_linker_2, # of connection points: 2
#     Edge 90, Type (0, 0), BuildingBlock: XUDNAN_clean_linker_2, # of connection points: 2
#     Edge 91, Type (0, 0), BuildingBlock: XUDNAN_clean_linker_2, # of connection points: 2
#     Edge 92, Type (0, 0), BuildingBlock: XUDNAN_clean_linker_2, # of connection points: 2
#     Edge 93, Type (0, 0), BuildingBlock: XUDNAN_clean_linker_2, # of connection points: 2
#     Edge 94, Type (0, 0), BuildingBlock: XUDNAN_clean_linker_2, # of connection points: 2
#     Edge 95, Type (0, 0), BuildingBlock: XUDNAN_clean_linker_2, # of connection points: 2
#     Edge 96, Type (0, 0), BuildingBlock: XUDNAN_clean_linker_2, # of connection points: 2
#     Edge 97, Type (0, 0), BuildingBlock: XUDNAN_clean_linker_2, # of connection points: 2
#     Edge 98, Type (0, 0), BuildingBlock: XUDNAN_clean_linker_2, # of connection points: 2
#     Edge 99, Type (0, 0), BuildingBlock: XUDNAN_clean_linker_2, # of connection points: 2
#     Edge 100, Type (0, 0), BuildingBlock: XUDNAN_clean_linker_2, # of connection points: 2
#     Edge 101, Type (0, 0), BuildingBlock: XUDNAN_clean_linker_2, # of connection points: 2
#     Edge 102, Type (0, 0), BuildingBlock: XUDNAN_clean_linker_2, # of connection points: 2
#     Edge 103, Type (0, 0), BuildingBlock: XUDNAN_clean_linker_2, # of connection points: 2
#     Edge 104, Type (0, 0), BuildingBlock: XUDNAN_clean_linker_2, # of connection points: 2
#     Edge 105, Type (0, 0), BuildingBlock: XUDNAN_clean_linker_2, # of connection points: 2
#     Edge 106, Type (0, 0), BuildingBlock: XUDNAN_clean_linker_2, # of connection points: 2
#     Edge 107, Type (0, 0), BuildingBlock: XUDNAN_clean_linker_2, # of connection points: 2
#     Edge 108, Type (0, 0), BuildingBlock: XUDNAN_clean_linker_2, # of connection points: 2
#     Edge 109, Type (0, 0), BuildingBlock: XUDNAN_clean_linker_2, # of connection points: 2
#     Edge 110, Type (0, 0), BuildingBlock: XUDNAN_clean_linker_2, # of connection points: 2
#     Edge 111, Type (0, 0), BuildingBlock: XUDNAN_clean_linker_2, # of connection points: 2
#     Edge 112, Type (0, 0), BuildingBlock: XUDNAN_clean_linker_2, # of connection points: 2
#     Edge 113, Type (0, 0), BuildingBlock: XUDNAN_clean_linker_2, # of connection points: 2
#     Edge 114, Type (0, 0), BuildingBlock: XUDNAN_clean_linker_2, # of connection points: 2
#     Edge 115, Type (0, 0), BuildingBlock: XUDNAN_clean_linker_2, # of connection points: 2
#     Edge 116, Type (0, 0), BuildingBlock: XUDNAN_clean_linker_2, # of connection points: 2
#     Edge 117, Type (0, 0), BuildingBlock: XUDNAN_clean_linker_2, # of connection points: 2
#     Edge 118, Type (0, 0), BuildingBlock: XUDNAN_clean_linker_2, # of connection points: 2
#     Edge 119, Type (0, 0), BuildingBlock: XUDNAN_clean_linker_2, # of connection points: 2
#     Edge 120, Type (0, 0), BuildingBlock: XUDNAN_clean_linker_2, # of connection points: 2
#     Edge 121, Type (0, 0), BuildingBlock: XUDNAN_clean_linker_2, # of connection points: 2
#     Edge 122, Type (0, 0), BuildingBlock: XUDNAN_clean_linker_2, # of connection points: 2
#     Edge 123, Type (0, 0), BuildingBlock: XUDNAN_clean_linker_2, # of connection points: 2
#     Edge 124, Type (0, 0), BuildingBlock: XUDNAN_clean_linker_2, # of connection points: 2
#     Edge 125, Type (0, 0), BuildingBlock: XUDNAN_clean_linker_2, # of connection points: 2
#     Edge 126, Type (0, 0), BuildingBlock: XUDNAN_clean_linker_2, # of connection points: 2
#     Edge 127, Type (0, 0), BuildingBlock: XUDNAN_clean_linker_2, # of connection points: 2
#     Edge 128, Type (0, 0), BuildingBlock: XUDNAN_clean_linker_2, # of connection points: 2
#     Edge 129, Type (0, 0), BuildingBlock: XUDNAN_clean_linker_2, # of connection points: 2
#     Edge 130, Type (0, 0), BuildingBlock: XUDNAN_clean_linker_2, # of connection points: 2
#     Edge 131, Type (0, 0), BuildingBlock: XUDNAN_clean_linker_2, # of connection points: 2
#     Edge 132, Type (0, 0), BuildingBlock: XUDNAN_clean_linker_2, # of connection points: 2
#     Edge 133, Type (0, 0), BuildingBlock: XUDNAN_clean_linker_2, # of connection points: 2
#     Edge 134, Type (0, 0), BuildingBlock: XUDNAN_clean_linker_2, # of connection points: 2
#     Edge 135, Type (0, 0), BuildingBlock: XUDNAN_clean_linker_2, # of connection points: 2
#     Edge 136, Type (0, 0), BuildingBlock: XUDNAN_clean_linker_2, # of connection points: 2
#     Edge 137, Type (0, 0), BuildingBlock: XUDNAN_clean_linker_2, # of connection points: 2
#     Edge 138, Type (0, 0), BuildingBlock: XUDNAN_clean_linker_2, # of connection points: 2
#     Edge 139, Type (0, 0), BuildingBlock: XUDNAN_clean_linker_2, # of connection points: 2
#     Edge 140, Type (0, 0), BuildingBlock: XUDNAN_clean_linker_2, # of connection points: 2
#     Edge 141, Type (0, 0), BuildingBlock: XUDNAN_clean_linker_2, # of connection points: 2
#     Edge 142, Type (0, 0), BuildingBlock: XUDNAN_clean_linker_2, # of connection points: 2
#     Edge 143, Type (0, 0), BuildingBlock: XUDNAN_clean_linker_2, # of connection points: 2
# Relax obj value: 0.074
# Max RMSD: 0.167
# Mean RMSD: 0.167
data_MOF--net-wnd--node1-MIFKUJ_clean_sbu_0--edge1-XUDNAN_clean_linker_2
_symmetry_space_group_name_H-M    P1
_symmetry_Int_Tables_number       1
_symmetry_cell_setting            triclinic
loop_
_symmetry_equiv_pos_as_xyz
'x, y, z'
_cell_length_a     34.895875
_cell_length_b     34.900079
_cell_length_c     154.96131
_cell_angle_alpha  89.925764
_cell_angle_beta   90.061351
_cell_angle_gamma 119.8915
loop_
_atom_site_label
_atom_site_type_symbol
_atom_site_fract_x
_atom_site_fract_y
_atom_site_fract_z
_atom_type_partial_charge
Zn0 Zn 0.49133 0.9808 0.04266 0.0
Zn1 Zn 0.50602 0.08423 0.03818 0.0
C2 C 0.40114 0.91169 0.04436 0.0
O3 O 0.41517 0.91188 0.05224 0.0
C4 C 0.60001 0.13195 0.0385 0.0
O5 O 0.59304 0.13534 0.03027 0.0
O6 O 0.51378 0.93935 0.04611 0.0
O7 O 0.52891 0.01222 0.03226 0.0
O8 O 0.50264 0.05368 0.02712 0.0
C9 C 0.50074 0.90517 0.04141 0.0
O10 O 0.47415 0.8988 0.0349 0.0
O11 O 0.42752 0.94039 0.03899 0.0
C12 C 0.51018 0.16803 0.04076 0.0
O13 O 0.52546 0.165 0.04833 0.0
O14 O 0.49944 0.13712 0.03529 0.0
O15 O 0.45978 0.04996 0.04688 0.0
O16 O 0.49019 0.01457 0.05316 0.0
O17 O 0.56699 0.1093 0.04338 0.0
C18 C 0.52315 0.03257 0.02604 0.0
C19 C 0.46736 0.03374 0.05355 0.0
Zn20 Zn 0.08219 0.53611 0.04148 0.0
Zn21 Zn 0.97709 0.43644 0.04123 0.0
C22 C 0.14938 0.51928 0.0485 0.0
O23 O 0.13531 0.52655 0.05584 0.0
C24 C 0.92307 0.4707 0.03814 0.0
O25 O 0.91287 0.43975 0.03232 0.0
O26 O 0.11739 0.6034 0.04184 0.0
O27 O 0.04919 0.51545 0.02967 0.0
O28 O 0.99258 0.44624 0.02909 0.0
C29 C 0.13732 0.62333 0.03496 0.0
O30 O 0.13101 0.60002 0.02792 0.0
O31 O 0.13081 0.52021 0.04149 0.0
C32 C 0.90208 0.36518 0.04964 0.0
O33 O 0.91242 0.3955 0.0556 0.0
O34 O 0.9266 0.37427 0.043 0.0
O35 O 0.03146 0.44832 0.04735 0.0
O36 O 0.04722 0.51163 0.05274 0.0
O37 O 0.95247 0.47739 0.04376 0.0
C38 C 0.01925 0.48247 0.02545 0.0
C39 C 0.03404 0.47088 0.05387 0.0
Zn40 Zn 0.52712 0.56197 0.04167 0.0
Zn41 Zn 0.61929 0.55819 0.03663 0.0
C42 C 0.53067 0.64207 0.04634 0.0
O43 O 0.50421 0.61567 0.05236 0.0
C44 C 0.56726 0.46834 0.0318 0.0
O45 O 0.58156 0.4872 0.02424 0.0
O46 O 0.46194 0.53271 0.04463 0.0
O47 O 0.53093 0.5406 0.02959 0.0
O48 O 0.60209 0.58177 0.0267 0.0
C49 C 0.43744 0.54024 0.03964 0.0
O50 O 0.45475 0.56332 0.03258 0.0
O51 O 0.5465 0.62707 0.04076 0.0
C52 C 0.69876 0.55681 0.04049 0.0
O53 O 0.68105 0.54837 0.04823 0.0
O54 O 0.6785 0.56318 0.03431 0.0
O55 O 0.62781 0.59431 0.0468 0.0
O56 O 0.56013 0.55779 0.05216 0.0
O57 O 0.57736 0.4926 0.03849 0.0
C58 C 0.56208 0.56378 0.02435 0.0
C59 C 0.60123 0.58481 0.05302 0.0
Zn60 Zn 0.98059 0.47929 0.44799 0.0
Zn61 Zn 0.07751 0.48265 0.45265 0.0
C62 C 0.90358 0.39189 0.44372 0.0
O63 O 0.90585 0.40657 0.43582 0.0
C64 C 0.12889 0.57298 0.45276 0.0
O65 O 0.13806 0.55957 0.46 0.0
O66 O 0.95012 0.5137 0.44477 0.0
O67 O 1.00061 0.49397 0.46072 0.0
O68 O 0.05654 0.48301 0.46393 0.0
C69 C 0.92181 0.51071 0.45031 0.0
O70 O 0.91677 0.48803 0.45741 0.0
O71 O 0.93148 0.41672 0.44933 0.0
C72 C 0.15984 0.48292 0.44899 0.0
O73 O 0.15732 0.49699 0.44126 0.0
O74 O 0.12863 0.47258 0.45434 0.0
O75 O 0.02676 0.43311 0.44696 0.0
O76 O 0.01954 0.47711 0.43818 0.0
O77 O 0.10069 0.54405 0.44767 0.0
C78 C 0.02621 0.49062 0.46616 0.0
C79 C 0.02868 0.4465 0.43937 0.0
Zn80 Zn 0.57542 0.51911 0.44716 0.0
Zn81 Zn 0.55534 0.61196 0.45159 0.0
C82 C 0.66123 0.53933 0.44365 0.0
O83 O 0.64065 0.52465 0.43626 0.0
C84 C 0.46975 0.57424 0.4585 0.0
O85 O 0.49374 0.59625 0.4652 0.0
O86 O 0.54956 0.45344 0.44549 0.0
O87 O 0.54058 0.52452 0.45713 0.0
O88 O 0.57799 0.59301 0.46179 0.0
C89 C 0.54672 0.43304 0.45248 0.0
O90 O 0.55981 0.45571 0.4597 0.0
O91 O 0.63957 0.54058 0.45015 0.0
C92 C 0.57235 0.69777 0.44636 0.0
O93 O 0.57283 0.68117 0.4388 0.0
O94 O 0.56676 0.67474 0.45312 0.0
O95 O 0.5779 0.60911 0.43994 0.0
O96 O 0.57767 0.5482 0.43579 0.0
O97 O 0.48916 0.57462 0.45154 0.0
C98 C 0.55642 0.5518 0.46334 0.0
C99 C 0.58348 0.58642 0.43423 0.0
Zn100 Zn 0.53104 0.06961 0.44891 0.0
Zn101 Zn 0.43386 0.96297 0.45 0.0
C102 C 0.51431 0.14136 0.44482 0.0
O103 O 0.52983 0.13991 0.43718 0.0
C104 C 0.47642 0.91395 0.45159 0.0
O105 O 0.45052 0.90231 0.45838 0.0
O106 O 0.59725 0.10796 0.44756 0.0
O107 O 0.51822 0.03645 0.46054 0.0
O108 O 0.4497 0.97963 0.46213 0.0
C109 C 0.61921 0.1265 0.45434 0.0
O110 O 0.59839 0.1178 0.46176 0.0
O111 O 0.5103 0.11346 0.45054 0.0
C112 C 0.35973 0.87526 0.44581 0.0
O113 O 0.39043 0.86844 0.44253 0.0
O114 O 0.37014 0.91197 0.44941 0.0
O115 O 0.44039 0.01451 0.44323 0.0
O116 O 0.50521 0.03676 0.43764 0.0
O117 O 0.47556 0.94141 0.44628 0.0
C118 C 0.48758 0.00651 0.46517 0.0
C119 C 0.46417 0.02193 0.4366 0.0
Zn120 Zn 0.54813 0.95577 0.95045 0.0
Zn121 Zn 0.57834 0.07715 0.94819 0.0
C122 C 0.46169 0.94743 0.95369 0.0
O123 O 0.47991 0.97065 0.96069 0.0
C124 C 0.65268 0.14864 0.9402 0.0
O125 O 0.6246 0.13736 0.93376 0.0
O126 O 0.54737 0.89673 0.95084 0.0
O127 O 0.58467 0.98819 0.9405 0.0
O128 O 0.57366 0.04399 0.937 0.0
C129 C 0.57028 0.88728 0.94578 0.0
O130 O 0.59718 0.91718 0.94026 0.0
O131 O 0.48516 0.93987 0.94846 0.0
C132 C 0.54819 0.13391 0.95452 0.0
O133 O 0.57113 0.13243 0.96112 0.0
O134 O 0.54322 0.1098 0.94797 0.0
O135 O 0.57778 0.0524 0.96019 0.0
O136 O 0.56979 0.9853 0.96165 0.0
O137 O 0.6402 0.12737 0.94726 0.0
C138 C 0.58607 0.01629 0.93515 0.0
C139 C 0.57718 0.02186 0.96481 0.0
Zn140 Zn 0.09453 0.61628 0.95186 0.0
Zn141 Zn 0.98122 0.52068 0.9449 0.0
C142 C 0.15812 0.59566 0.95477 0.0
O143 O 0.15727 0.61923 0.9613 0.0
C144 C 0.89762 0.51701 0.94106 0.0
O145 O 0.89076 0.48385 0.93605 0.0
O146 O 0.13693 0.68116 0.95334 0.0
O147 O 0.0444 0.60586 0.94455 0.0
O148 O 0.02069 0.55554 0.93478 0.0
C149 C 0.16868 0.69804 0.94798 0.0
O150 O 0.17025 0.6731 0.9418 0.0
O151 O 0.13052 0.58693 0.94865 0.0
C152 C 0.92364 0.42875 0.94722 0.0
O153 O 0.91912 0.44292 0.95478 0.0
O154 O 0.95103 0.45634 0.94187 0.0
O155 O 0.00541 0.53091 0.95754 0.0
O156 O 0.06686 0.58843 0.96273 0.0
O157 O 0.93357 0.53735 0.94528 0.0
C158 C 0.04555 0.59548 0.93684 0.0
C159 C 0.03161 0.55167 0.96381 0.0
Zn160 Zn 0.44549 0.48091 0.95087 0.0
Zn161 Zn 0.53306 0.48319 0.94591 0.0
C162 C 0.48325 0.57365 0.95245 0.0
O163 O 0.46097 0.55919 0.95968 0.0
C164 C 0.51486 0.39284 0.9441 0.0
O165 O 0.52894 0.40635 0.93621 0.0
O166 O 0.38814 0.47834 0.95389 0.0
O167 O 0.43587 0.43907 0.94135 0.0
O168 O 0.499 0.48732 0.93554 0.0
C169 C 0.35996 0.47687 0.94848 0.0
O170 O 0.36343 0.46908 0.94031 0.0
O171 O 0.48407 0.54568 0.94727 0.0
C172 C 0.62886 0.53893 0.94566 0.0
O173 O 0.62124 0.56505 0.95058 0.0
O174 O 0.59638 0.50429 0.94253 0.0
O175 O 0.53591 0.51703 0.9568 0.0
O176 O 0.46958 0.46947 0.96155 0.0
O177 O 0.51089 0.41905 0.94927 0.0
C178 C 0.45856 0.45797 0.93472 0.0
C179 C 0.50903 0.49927 0.96303 0.0
Zn180 Zn 0.97334 0.55926 0.53861 0.0
Zn181 Zn 0.07681 0.56956 0.5435 0.0
C182 C 0.92947 0.4705 0.53372 0.0
O183 O 0.9289 0.49057 0.52658 0.0
C184 C 0.14497 0.65634 0.54574 0.0
O185 O 0.14616 0.63712 0.55296 0.0
O186 O 0.91963 0.56597 0.53573 0.0
O187 O 1.0029 0.59473 0.54898 0.0
O188 O 0.04567 0.5699 0.55442 0.0
C189 C 0.88977 0.55783 0.54135 0.0
O190 O 0.89533 0.54775 0.54925 0.0
O191 O 0.94795 0.49363 0.5404 0.0
C192 C 0.14834 0.55949 0.5391 0.0
O193 O 0.14021 0.5763 0.53221 0.0
O194 O 0.12249 0.54976 0.54555 0.0
O195 O 0.04065 0.5353 0.53328 0.0
O196 O 0.01456 0.57762 0.52864 0.0
O197 O 0.11489 0.63387 0.54026 0.0
C198 C 0.02706 0.59323 0.55494 0.0
C199 C 0.02956 0.55185 0.52711 0.0
Zn200 Zn 0.49035 0.44411 0.54 0.0
Zn201 Zn 0.501 0.53597 0.54224 0.0
C202 C 0.5795 0.48004 0.53474 0.0
O203 O 0.55689 0.45403 0.52831 0.0
C204 C 0.40348 0.51218 0.54565 0.0
O205 O 0.39774 0.4848 0.55198 0.0
O206 O 0.48077 0.38343 0.54072 0.0
O207 O 0.4527 0.44635 0.54932 0.0
O208 O 0.50842 0.50828 0.5535 0.0
C209 C 0.49176 0.37338 0.54781 0.0
O210 O 0.5082 0.4029 0.55399 0.0
O211 O 0.55827 0.48373 0.54109 0.0
C212 C 0.54843 0.62507 0.53699 0.0
O213 O 0.53445 0.60623 0.52943 0.0
O214 O 0.53993 0.60111 0.54367 0.0
O215 O 0.51452 0.52271 0.52989 0.0
O216 O 0.4699 0.45115 0.52866 0.0
O217 O 0.44024 0.53162 0.54162 0.0
C218 C 0.47574 0.47092 0.55541 0.0
C219 C 0.49203 0.48875 0.52519 0.0
Zn220 Zn 0.61313 0.09847 0.53992 0.0
Zn221 Zn 0.52338 0.96178 0.54302 0.0
C222 C 0.56701 0.14637 0.53898 0.0
O223 O 0.56516 0.13736 0.53071 0.0
C224 C 0.54226 0.89341 0.54583 0.0
O225 O 0.52806 0.89499 0.5536 0.0
O226 O 0.67987 0.13663 0.53933 0.0
O227 O 0.58588 0.04472 0.54695 0.0
O228 O 0.55341 0.98621 0.55472 0.0
C229 C 0.69904 0.17291 0.54348 0.0
O230 O 0.67584 0.1828 0.54875 0.0
O231 O 0.58689 0.13377 0.54408 0.0
C232 C 0.43064 0.92552 0.53814 0.0
O233 O 0.44719 0.95063 0.53129 0.0
O234 O 0.45666 0.9269 0.54404 0.0
O235 O 0.54586 0.00703 0.53297 0.0
O236 O 0.5891 0.07515 0.52822 0.0
O237 O 0.54221 0.91883 0.53999 0.0
C238 C 0.58268 0.02648 0.55413 0.0
C239 C 0.55984 0.03508 0.52679 0.0
Zn240 Zn 0.15995 0.31631 0.3772 0.0
Zn241 Zn 0.16434 0.41747 0.37297 0.0
C242 C 0.07317 0.25534 0.38304 0.0
O243 O 0.09415 0.26841 0.39044 0.0
C244 C 0.25455 0.48145 0.37071 0.0
O245 O 0.23544 0.49726 0.36568 0.0
O246 O 0.18511 0.275 0.37926 0.0
O247 O 0.18499 0.34771 0.3657 0.0
O248 O 0.14696 0.38127 0.36251 0.0
C249 C 0.1973 0.26139 0.37276 0.0
O250 O 0.19591 0.27639 0.36506 0.0
O251 O 0.09413 0.27297 0.3761 0.0
C252 C 0.16324 0.49587 0.37754 0.0
O253 O 0.18094 0.4898 0.38451 0.0
O254 O 0.15236 0.4685 0.37135 0.0
O255 O 0.12997 0.38354 0.38309 0.0
O256 O 0.16956 0.35453 0.38788 0.0
O257 O 0.2308 0.44518 0.37469 0.0
C258 C 0.17034 0.3646 0.36026 0.0
C259 C 0.14785 0.37439 0.38927 0.0
Zn260 Zn 0.74976 0.87232 0.37694 0.0
Zn261 Zn 0.65165 0.78061 0.37231 0.0
C262 C 0.81821 0.85652 0.38246 0.0
O263 O 0.80569 0.86562 0.3898 0.0
C264 C 0.60262 0.8246 0.37159 0.0
O265 O 0.59598 0.80615 0.36393 0.0
O266 O 0.78397 0.93683 0.38047 0.0
O267 O 0.72286 0.87077 0.36511 0.0
O268 O 0.67694 0.80196 0.36083 0.0
C269 C 0.81309 0.96323 0.37517 0.0
O270 O 0.81732 0.94765 0.36774 0.0
O271 O 0.79814 0.85623 0.37557 0.0
C272 C 0.56529 0.70966 0.37644 0.0
O273 O 0.56904 0.73789 0.38243 0.0
O274 O 0.59712 0.71979 0.37123 0.0
O275 O 0.6934 0.77382 0.37995 0.0
O276 O 0.71136 0.83491 0.38701 0.0
O277 O 0.62893 0.82075 0.37677 0.0
C278 C 0.70004 0.84296 0.35926 0.0
C279 C 0.7033 0.79517 0.38694 0.0
Zn280 Zn 0.19642 0.90036 0.37554 0.0
Zn281 Zn 0.29045 0.8969 0.37239 0.0
C282 C 0.2021 0.98453 0.37994 0.0
O283 O 0.1756 0.96138 0.38628 0.0
C284 C 0.24837 0.8051 0.37011 0.0
O285 O 0.27427 0.82023 0.36333 0.0
O286 O 0.13091 0.87136 0.37837 0.0
O287 O 0.20302 0.88255 0.36315 0.0
O288 O 0.27508 0.90928 0.36098 0.0
C289 C 0.10452 0.8748 0.37316 0.0
O290 O 0.1197 0.8943 0.36568 0.0
O291 O 0.21621 0.96586 0.3748 0.0
C292 C 0.36632 0.89626 0.37929 0.0
O293 O 0.34359 0.89075 0.38638 0.0
O294 O 0.35099 0.90118 0.37217 0.0
O295 O 0.29221 0.94063 0.38079 0.0
O296 O 0.22793 0.89206 0.38598 0.0
O297 O 0.24752 0.83276 0.37536 0.0
C298 C 0.23626 0.89553 0.35813 0.0
C299 C 0.26772 0.92221 0.38723 0.0
Zn300 Zn 0.65248 0.82377 0.78203 0.0
Zn301 Zn 0.77373 0.85169 0.7839 0.0
C302 C 0.58608 0.73037 0.78384 0.0
O303 O 0.60923 0.72282 0.77811 0.0
C304 C 0.80513 0.93636 0.79167 0.0
O305 O 0.80066 0.91338 0.79869 0.0
O306 O 0.62538 0.86235 0.7803 0.0
O307 O 0.70178 0.85152 0.79072 0.0
O308 O 0.7406 0.82118 0.79447 0.0
C309 C 0.61115 0.86927 0.78734 0.0
O310 O 0.62119 0.85672 0.79459 0.0
O311 O 0.60117 0.76908 0.78687 0.0
C312 C 0.84896 0.86108 0.77555 0.0
O313 O 0.83483 0.87922 0.76988 0.0
O314 O 0.82796 0.84654 0.7826 0.0
O315 O 0.73705 0.82226 0.77364 0.0
O316 O 0.66847 0.80604 0.77073 0.0
O317 O 0.79389 0.91658 0.78443 0.0
C318 C 0.70837 0.82727 0.79593 0.0
C319 C 0.70385 0.80628 0.76866 0.0
Zn320 Zn 0.24915 0.8599 0.7799 0.0
Zn321 Zn 0.23718 0.95849 0.78221 0.0
C322 C 0.34015 0.87802 0.77703 0.0
O323 O 0.33077 0.87427 0.76875 0.0
C324 C 0.14746 0.91794 0.78039 0.0
O325 O 0.15554 0.93298 0.78834 0.0
O326 O 0.21634 0.79441 0.77661 0.0
O327 O 0.22815 0.86796 0.79209 0.0
O328 O 0.22766 0.93129 0.79333 0.0
C329 C 0.21891 0.76713 0.78173 0.0
O330 O 0.24038 0.78202 0.78904 0.0
O331 O 0.31107 0.87365 0.78248 0.0
C332 C 0.23392 0.03966 0.77934 0.0
O333 O 0.21717 0.02214 0.7718 0.0
O334 O 0.24742 0.02 0.78437 0.0
O335 O 0.28833 0.95475 0.77799 0.0
O336 O 0.25429 0.89934 0.76934 0.0
O337 O 0.1798 0.92455 0.7756 0.0
C338 C 0.22352 0.89617 0.79658 0.0
C339 C 0.27859 0.94082 0.77039 0.0
Zn340 Zn 0.20377 0.41253 0.77911 0.0
Zn341 Zn 0.11448 0.31751 0.78555 0.0
C342 C 0.17115 0.4686 0.77297 0.0
O343 O 0.18218 0.45834 0.76558 0.0
C344 C 0.14734 0.26235 0.79065 0.0
O345 O 0.12789 0.26523 0.79768 0.0
O346 O 0.26722 0.4594 0.77685 0.0
O347 O 0.20825 0.38959 0.79084 0.0
O348 O 0.13961 0.35749 0.79562 0.0
C349 C 0.27856 0.48914 0.7826 0.0
O350 O 0.25008 0.48399 0.78866 0.0
O351 O 0.17333 0.44957 0.77982 0.0
C352 C 0.02797 0.2428 0.78353 0.0
O353 O 0.04152 0.24671 0.77552 0.0
O354 O 0.05308 0.27108 0.78904 0.0
O355 O 0.11091 0.34469 0.77447 0.0
O356 O 0.17791 0.36874 0.76924 0.0
O357 O 0.14755 0.28385 0.784 0.0
C358 C 0.18078 0.37614 0.79703 0.0
C359 C 0.13619 0.34795 0.7683 0.0
Zn360 Zn 0.22467 0.30229 0.28692 0.0
Zn361 Zn 0.25111 0.41833 0.28055 0.0
C362 C 0.1344 0.2596 0.28755 0.0
O363 O 0.14653 0.25657 0.29543 0.0
C364 C 0.33923 0.47726 0.27399 0.0
O365 O 0.32286 0.45693 0.26664 0.0
O366 O 0.23478 0.25078 0.28888 0.0
O367 O 0.27359 0.35119 0.2807 0.0
O368 O 0.24702 0.37651 0.271 0.0
C369 C 0.22132 0.21973 0.28336 0.0
O370 O 0.20247 0.2226 0.27623 0.0
O371 O 0.16381 0.27882 0.28178 0.0
C372 C 0.23053 0.48671 0.28184 0.0
O373 O 0.26329 0.49965 0.28736 0.0
O374 O 0.21718 0.45028 0.27786 0.0
O375 O 0.23686 0.39505 0.29299 0.0
O376 O 0.22388 0.32927 0.2978 0.0
O377 O 0.31491 0.46563 0.28068 0.0
C378 C 0.26412 0.35298 0.27294 0.0
C379 C 0.22799 0.36706 0.29906 0.0
Zn380 Zn 0.75418 0.95294 0.28398 0.0
Zn381 Zn 0.64978 0.8596 0.28038 0.0
C382 C 0.79933 0.90364 0.28612 0.0
O383 O 0.80097 0.91679 0.29412 0.0
C384 C 0.57597 0.85977 0.27203 0.0
O385 O 0.58839 0.84359 0.26566 0.0
O386 O 0.80591 0.01369 0.28497 0.0
O387 O 0.71542 0.95723 0.27526 0.0
O388 O 0.69154 0.89044 0.27033 0.0
C389 C 0.83515 0.02932 0.2791 0.0
O390 O 0.83132 0.00481 0.27236 0.0
O391 O 0.77862 0.91317 0.28052 0.0
C392 C 0.59281 0.769 0.28341 0.0
O393 O 0.58295 0.78591 0.29004 0.0
O394 O 0.62329 0.79478 0.27831 0.0
O395 O 0.66714 0.8714 0.29313 0.0
O396 O 0.72657 0.9372 0.29532 0.0
O397 O 0.59817 0.87052 0.279 0.0
C398 C 0.70857 0.93162 0.26899 0.0
C399 C 0.69376 0.90216 0.29813 0.0
Zn400 Zn 0.10837 0.82706 0.28466 0.0
Zn401 Zn 0.19914 0.82049 0.27881 0.0
C402 C 0.15297 0.91534 0.28916 0.0
O403 O 0.13188 0.89478 0.29622 0.0
C404 C 0.16137 0.72542 0.27506 0.0
O405 O 0.14727 0.7339 0.26785 0.0
O406 O 0.04841 0.82268 0.28628 0.0
O407 O 0.10006 0.78836 0.27464 0.0
O408 O 0.16558 0.82765 0.26875 0.0
C409 C 0.0362 0.83381 0.27943 0.0
O410 O 0.06233 0.84575 0.27266 0.0
O411 O 0.14932 0.89257 0.28248 0.0
C412 C 0.29318 0.85149 0.28011 0.0
O413 O 0.28427 0.84557 0.2884 0.0
O414 O 0.26261 0.84555 0.27486 0.0
O415 O 0.19976 0.84766 0.29049 0.0
O416 O 0.13048 0.81126 0.2952 0.0
O417 O 0.18108 0.75595 0.28062 0.0
C418 C 0.12381 0.80491 0.26801 0.0
C419 C 0.17176 0.83433 0.29665 0.0
Zn420 Zn 0.6372 0.892 0.86948 0.0
Zn421 Zn 0.73747 0.90277 0.87463 0.0
C422 C 0.59726 0.79966 0.86768 0.0
O423 O 0.5953 0.81265 0.85981 0.0
C424 C 0.803 0.99009 0.87999 0.0
O425 O 0.79007 0.97084 0.88756 0.0
O426 O 0.58069 0.89464 0.86811 0.0
O427 O 0.67477 0.93988 0.87772 0.0
O428 O 0.69798 0.90019 0.8846 0.0
C429 C 0.56362 0.89879 0.87505 0.0
O430 O 0.58387 0.90223 0.8824 0.0
O431 O 0.61568 0.82867 0.87358 0.0
C432 C 0.80644 0.88278 0.87389 0.0
O433 O 0.81596 0.90972 0.86729 0.0
O434 O 0.77218 0.87319 0.87835 0.0
O435 O 0.71189 0.87664 0.86275 0.0
O436 O 0.66727 0.90097 0.85823 0.0
O437 O 0.78458 0.96785 0.87321 0.0
C438 C 0.68812 0.93065 0.88456 0.0
C439 C 0.69106 0.88362 0.85675 0.0
Zn440 Zn 0.16292 0.77336 0.87169 0.0
Zn441 Zn 0.14252 0.86002 0.87616 0.0
C442 C 0.25351 0.81904 0.86932 0.0
O443 O 0.23815 0.79402 0.86242 0.0
C444 C 0.05063 0.82316 0.88193 0.0
O445 O 0.0654 0.81915 0.88948 0.0
O446 O 0.16332 0.71541 0.87195 0.0
O447 O 0.11845 0.76733 0.88037 0.0
O448 O 0.15653 0.83255 0.88626 0.0
C449 C 0.18189 0.71188 0.87875 0.0
O450 O 0.19613 0.74357 0.88452 0.0
O451 O 0.22601 0.8188 0.87475 0.0
C452 C 0.19241 0.95942 0.87552 0.0
O453 O 0.21767 0.95766 0.86944 0.0
O454 O 0.16307 0.92387 0.87903 0.0
O455 O 0.16263 0.85565 0.86407 0.0
O456 O 0.15291 0.79008 0.86004 0.0
O457 O 0.07658 0.83635 0.87547 0.0
C458 C 0.13585 0.79081 0.88699 0.0
C459 C 0.16241 0.82946 0.85829 0.0
Zn460 Zn 0.28666 0.4186 0.87487 0.0
Zn461 Zn 0.1808 0.31571 0.87534 0.0
C462 C 0.22876 0.45799 0.87559 0.0
O463 O 0.21183 0.43739 0.86828 0.0
C464 C 0.21528 0.2514 0.87443 0.0
O465 O 0.24955 0.27999 0.86991 0.0
O466 O 0.35217 0.46461 0.87435 0.0
O467 O 0.27483 0.36587 0.88184 0.0
O468 O 0.2102 0.35412 0.88603 0.0
C469 C 0.3689 0.49738 0.87951 0.0
O470 O 0.34455 0.49851 0.88585 0.0
O471 O 0.25729 0.45175 0.87948 0.0
C472 C 0.09019 0.25591 0.87141 0.0
O473 O 0.10953 0.24609 0.86522 0.0
O474 O 0.11408 0.28825 0.87638 0.0
O475 O 0.2008 0.34033 0.863 0.0
O476 O 0.26731 0.40072 0.86303 0.0
O477 O 0.18669 0.26141 0.87692 0.0
C478 C 0.24865 0.36115 0.88789 0.0
C479 C 0.23392 0.37122 0.85903 0.0
Zn480 Zn 0.81619 0.6446 0.70832 0.0
Zn481 Zn 0.8276 0.75201 0.70814 0.0
C482 C 0.72458 0.57102 0.7096 0.0
O483 O 0.73047 0.57652 0.71798 0.0
C484 C 0.92023 0.79275 0.70797 0.0
O485 O 0.91181 0.79886 0.69998 0.0
O486 O 0.8464 0.60794 0.71034 0.0
O487 O 0.84389 0.68174 0.69739 0.0
O488 O 0.82352 0.73256 0.69626 0.0
C489 C 0.84925 0.5889 0.70356 0.0
O490 O 0.8355 0.59666 0.69622 0.0
O491 O 0.75514 0.59732 0.70454 0.0
C492 C 0.82605 0.82852 0.71477 0.0
O493 O 0.82535 0.80942 0.72212 0.0
O494 O 0.8256 0.80932 0.70776 0.0
O495 O 0.77745 0.70783 0.71506 0.0
O496 O 0.80928 0.67057 0.71978 0.0
O497 O 0.888 0.77011 0.71304 0.0
C498 C 0.83864 0.70963 0.69297 0.0
C499 C 0.78167 0.68405 0.72073 0.0
Zn500 Zn 0.40956 0.1923 0.70659 0.0
Zn501 Zn 0.29719 0.09994 0.70628 0.0
C502 C 0.47567 0.17656 0.71419 0.0
O503 O 0.46188 0.18666 0.72126 0.0
C504 C 0.2505 0.14507 0.70546 0.0
O505 O 0.23769 0.12024 0.69851 0.0
O506 O 0.44635 0.25945 0.70647 0.0
O507 O 0.37837 0.17165 0.69476 0.0
O508 O 0.31234 0.11065 0.69406 0.0
C509 C 0.47267 0.27422 0.70006 0.0
O510 O 0.47057 0.246 0.69421 0.0
O511 O 0.45696 0.17501 0.70704 0.0
C512 C 0.22177 0.0318 0.71488 0.0
O513 O 0.23654 0.062 0.72096 0.0
O514 O 0.24319 0.03993 0.70784 0.0
O515 O 0.34743 0.1024 0.71261 0.0
O516 O 0.37456 0.16881 0.71785 0.0
O517 O 0.27952 0.14411 0.71029 0.0
C518 C 0.34544 0.14259 0.69044 0.0
C519 C 0.35607 0.12732 0.71907 0.0
Zn520 Zn 0.8601 0.2355 0.70907 0.0
Zn521 Zn 0.9536 0.23289 0.7068 0.0
C522 C 0.87484 0.32492 0.71284 0.0
O523 O 0.8589 0.30877 0.7205 0.0
C524 C 0.91003 0.13911 0.70548 0.0
O525 O 0.93034 0.15095 0.69799 0.0
O526 O 0.79538 0.20746 0.71201 0.0
O527 O 0.86521 0.2135 0.69702 0.0
O528 O 0.93756 0.24206 0.69522 0.0
C529 C 0.76906 0.21012 0.70668 0.0
O530 O 0.78432 0.22893 0.69915 0.0
O531 O 0.87978 0.30057 0.70735 0.0
C532 C 0.03756 0.24653 0.71315 0.0
O533 O 0.02332 0.25443 0.72038 0.0
O534 O 0.01434 0.23868 0.70636 0.0
O535 O 0.95453 0.27806 0.71476 0.0
O536 O 0.89058 0.22845 0.71977 0.0
O537 O 0.91295 0.16912 0.71057 0.0
C538 C 0.89903 0.22712 0.69215 0.0
C539 C 0.92987 0.2592 0.72115 0.0
Zn540 Zn 0.32291 0.15401 0.11407 0.0
Zn541 Zn 0.41182 0.15676 0.12099 0.0
C542 C 0.25097 0.07504 0.10807 0.0
O543 O 0.26532 0.09973 0.1011 0.0
C544 C 0.4593 0.24911 0.12221 0.0
O545 O 0.46596 0.23624 0.12976 0.0
O546 O 0.29233 0.18639 0.10962 0.0
O547 O 0.34472 0.18047 0.12611 0.0
O548 O 0.37752 0.14581 0.13161 0.0
C549 C 0.25938 0.17933 0.11427 0.0
O550 O 0.25095 0.15493 0.12124 0.0
O551 O 0.27202 0.09042 0.11511 0.0
C552 C 0.49278 0.15251 0.11851 0.0
O553 O 0.47837 0.13964 0.11061 0.0
O554 O 0.46855 0.15812 0.1239 0.0
O555 O 0.38008 0.11 0.11239 0.0
O556 O 0.36327 0.15229 0.10465 0.0
O557 O 0.43353 0.21973 0.11686 0.0
C558 C 0.35887 0.16865 0.13259 0.0
C559 C 0.37117 0.1205 0.10517 0.0
Zn560 Zn 0.91901 0.19831 0.11188 0.0
Zn561 Zn 0.89344 0.28515 0.11919 0.0
C562 C 0.01097 0.23229 0.10558 0.0
O563 O 0.00628 0.26148 0.10103 0.0
C564 C 0.80774 0.24304 0.12432 0.0
O565 O 0.83209 0.26199 0.13117 0.0
O566 O 0.8768 0.13357 0.11038 0.0
O567 O 0.91888 0.21277 0.12481 0.0
O568 O 0.91153 0.26867 0.12969 0.0
C569 C 0.87783 0.10835 0.11619 0.0
O570 O 0.9036 0.12614 0.12292 0.0
O571 O 0.97909 0.2044 0.11019 0.0
C572 C 0.87197 0.35299 0.11767 0.0
O573 O 0.84117 0.32331 0.11264 0.0
O574 O 0.90025 0.34492 0.12111 0.0
O575 O 0.93584 0.29082 0.11028 0.0
O576 O 0.90926 0.23257 0.10212 0.0
O577 O 0.82725 0.24312 0.11737 0.0
C578 C 0.91793 0.23653 0.13096 0.0
C579 C 0.92093 0.27299 0.10308 0.0
Zn580 Zn 0.86399 0.75396 0.11509 0.0
Zn581 Zn 0.7704 0.63523 0.11873 0.0
C582 C 0.84556 0.81975 0.10987 0.0
O583 O 0.85605 0.8091 0.10247 0.0
C584 C 0.80657 0.58985 0.12691 0.0
O585 O 0.77163 0.57866 0.13173 0.0
O586 O 0.92924 0.78922 0.112 0.0
O587 O 0.85374 0.72207 0.12662 0.0
O588 O 0.78074 0.68302 0.12699 0.0
C589 C 0.96025 0.81196 0.11731 0.0
O590 O 0.95111 0.80965 0.12558 0.0
O591 O 0.84696 0.80045 0.11673 0.0
C592 C 0.69045 0.55686 0.11347 0.0
O593 O 0.70996 0.57036 0.10596 0.0
O594 O 0.70931 0.57969 0.12018 0.0
O595 O 0.77431 0.65415 0.10672 0.0
O596 O 0.83016 0.72172 0.10432 0.0
O597 O 0.81496 0.6166 0.12072 0.0
C598 C 0.8178 0.69988 0.13081 0.0
C599 C 0.7975 0.68585 0.10168 0.0
Zn600 Zn 0.87818 0.63121 0.61858 0.0
Zn601 Zn 0.90135 0.74133 0.61432 0.0
C602 C 0.78779 0.59029 0.62065 0.0
O603 O 0.80125 0.57915 0.62764 0.0
C604 C 0.98853 0.81017 0.61152 0.0
O605 O 0.97002 0.80867 0.60404 0.0
O606 O 0.87749 0.5725 0.61982 0.0
O607 O 0.92066 0.66237 0.60929 0.0
O608 O 0.90254 0.70949 0.60348 0.0
C609 C 0.86467 0.54818 0.61311 0.0
O610 O 0.85125 0.56141 0.60641 0.0
O611 O 0.81654 0.61604 0.61526 0.0
C612 C 0.88533 0.81072 0.61783 0.0
O613 O 0.90716 0.8096 0.62464 0.0
O614 O 0.87782 0.78341 0.61173 0.0
O615 O 0.86813 0.70694 0.62505 0.0
O616 O 0.8948 0.66456 0.62952 0.0
O617 O 0.96548 0.78232 0.61732 0.0
C618 C 0.91996 0.68507 0.60297 0.0
C619 C 0.88163 0.69178 0.6311 0.0
Zn620 Zn 0.42778 0.28488 0.61696 0.0
Zn621 Zn 0.30679 0.18674 0.61121 0.0
C622 C 0.46838 0.22894 0.61608 0.0
O623 O 0.44635 0.21064 0.62319 0.0
C624 C 0.25278 0.22632 0.6065 0.0
O625 O 0.28049 0.24429 0.60006 0.0
O626 O 0.47079 0.34928 0.61843 0.0
O627 O 0.37748 0.27198 0.6095 0.0
O628 O 0.34457 0.21748 0.60057 0.0
C629 C 0.47418 0.38214 0.61423 0.0
O630 O 0.44365 0.37644 0.6086 0.0
O631 O 0.46328 0.25848 0.61232 0.0
C632 C 0.24942 0.10056 0.61661 0.0
O633 O 0.24954 0.12446 0.62316 0.0
O634 O 0.2732 0.12001 0.61006 0.0
O635 O 0.33927 0.20269 0.62299 0.0
O636 O 0.40307 0.25657 0.62812 0.0
O637 O 0.25883 0.20258 0.61194 0.0
C638 C 0.37584 0.25626 0.60209 0.0
C639 C 0.36656 0.22102 0.62921 0.0
Zn640 Zn 0.77965 0.15725 0.61734 0.0
Zn641 Zn 0.86624 0.15881 0.61263 0.0
C642 C 0.8221 0.25037 0.61946 0.0
O643 O 0.80141 0.23623 0.62687 0.0
C644 C 0.85244 0.07057 0.60917 0.0
O645 O 0.86939 0.08794 0.60162 0.0
O646 O 0.72074 0.15513 0.61789 0.0
O647 O 0.77318 0.11387 0.60817 0.0
O648 O 0.83398 0.16535 0.60237 0.0
C649 C 0.71529 0.17221 0.61107 0.0
O650 O 0.7449 0.1845 0.60491 0.0
O651 O 0.821 0.22209 0.61411 0.0
C652 C 0.95394 0.17822 0.61426 0.0
O653 O 0.93616 0.15393 0.62117 0.0
O654 O 0.92982 0.1861 0.60926 0.0
O655 O 0.86715 0.18661 0.62421 0.0
O656 O 0.79831 0.14691 0.62878 0.0
O657 O 0.84606 0.09386 0.61469 0.0
C658 C 0.79495 0.13336 0.60149 0.0
C659 C 0.83912 0.17202 0.63034 0.0
Zn660 Zn 0.29622 0.21917 0.20593 0.0
Zn661 Zn 0.4056 0.23415 0.20934 0.0
C662 C 0.26593 0.13307 0.19859 0.0
O663 O 0.26937 0.15418 0.19135 0.0
C664 C 0.47924 0.3209 0.21219 0.0
O665 O 0.47661 0.30506 0.22 0.0
O666 O 0.23981 0.22225 0.2045 0.0
O667 O 0.3199 0.24334 0.21729 0.0
O668 O 0.37926 0.23852 0.22067 0.0
C669 C 0.2293 0.24378 0.20969 0.0
O670 O 0.25714 0.26748 0.21579 0.0
O671 O 0.27718 0.1545 0.20565 0.0
C672 C 0.47056 0.20845 0.20633 0.0
O673 O 0.47635 0.2319 0.19931 0.0
O674 O 0.44013 0.20277 0.21157 0.0
O675 O 0.3691 0.21014 0.19842 0.0
O676 O 0.33897 0.25193 0.19663 0.0
O677 O 0.45155 0.29657 0.2065 0.0
C678 C 0.34908 0.24723 0.22262 0.0
C679 C 0.36204 0.236 0.19373 0.0
Zn680 Zn 0.82367 0.10081 0.20403 0.0
Zn681 Zn 0.81501 0.19074 0.20811 0.0
C682 C 0.91401 0.14367 0.20305 0.0
O683 O 0.89948 0.11376 0.1969 0.0
C684 C 0.73072 0.17484 0.21433 0.0
O685 O 0.75002 0.17773 0.22177 0.0
O686 O 0.82096 0.04251 0.20636 0.0
O687 O 0.77482 0.10288 0.20998 0.0
O688 O 0.81703 0.15587 0.21859 0.0
C689 C 0.84049 0.04122 0.21322 0.0
O690 O 0.85844 0.07592 0.2183 0.0
O691 O 0.88578 0.14747 0.20763 0.0
C692 C 0.85052 0.27766 0.20318 0.0
O693 O 0.8306 0.25511 0.1962 0.0
O694 O 0.85016 0.25672 0.20993 0.0
O695 O 0.83315 0.17877 0.19609 0.0
O696 O 0.82092 0.1128 0.19185 0.0
O697 O 0.75172 0.17851 0.20737 0.0
C698 C 0.78812 0.11555 0.21756 0.0
C699 C 0.83375 0.1531 0.19027 0.0
Zn700 Zn 0.95013 0.75965 0.2048 0.0
Zn701 Zn 0.85635 0.63364 0.20897 0.0
C702 C 0.89041 0.79162 0.20952 0.0
O703 O 0.86614 0.76538 0.20326 0.0
C704 C 0.87685 0.56427 0.2117 0.0
O705 O 0.86901 0.56901 0.2198 0.0
O706 O 0.01435 0.80158 0.2023 0.0
O707 O 0.93674 0.70274 0.2099 0.0
O708 O 0.89074 0.66412 0.2199 0.0
C709 C 0.0361 0.83316 0.20753 0.0
O710 O 0.01699 0.83521 0.21468 0.0
O711 O 0.9259 0.79223 0.21167 0.0
C712 C 0.76964 0.57812 0.20422 0.0
O713 O 0.79207 0.58147 0.19719 0.0
O714 O 0.79056 0.59905 0.21093 0.0
O715 O 0.86909 0.67251 0.19797 0.0
O716 O 0.91778 0.74094 0.19379 0.0
O717 O 0.87393 0.58881 0.20598 0.0
C718 C 0.92834 0.69578 0.21784 0.0
C719 C 0.88431 0.7032 0.19227 0.0
H720 H 0.40024 0.15446 0.08896 0.0
H721 H 0.35097 0.03524 0.10437 0.0
H722 H 0.368 0.99883 0.09257 0.0
H723 H 0.36318 0.0997 0.06765 0.0
H724 H 0.41261 0.1409 0.06233 0.0
H725 H 0.39171 0.15573 0.07161 0.0
H726 H 0.46788 0.18588 0.07906 0.0
H727 H 0.48864 0.17021 0.06989 0.0
H728 H 0.4907 0.14995 0.08049 0.0
H729 H 0.39901 0.97873 0.08008 0.0
H730 H 0.4338 0.97297 0.06657 0.0
H731 H 0.46043 0.10373 0.05906 0.0
C732 C 0.3918 0.12028 0.08971 0.0
C733 C 0.37425 0.09749 0.09752 0.0
C734 C 0.36457 0.05316 0.0984 0.0
C735 C 0.37412 0.03223 0.09176 0.0
C736 C 0.39325 0.0561 0.08428 0.0
C737 C 0.4014 0.09888 0.08313 0.0
C738 C 0.42459 0.11786 0.07465 0.0
C739 C 0.39631 0.12919 0.06871 0.0
C740 C 0.47067 0.15836 0.07612 0.0
C741 C 0.42798 0.07904 0.07124 0.0
C742 C 0.41024 0.04396 0.07694 0.0
C743 C 0.41232 0.00561 0.07547 0.0
C744 C 0.43234 0.00272 0.06785 0.0
C745 C 0.44917 0.03769 0.06181 0.0
C746 C 0.44709 0.07628 0.06354 0.0
H747 H 0.94003 0.26665 0.08605 0.0
H748 H 0.91501 0.34677 0.10393 0.0
H749 H 0.93369 0.40335 0.09281 0.0
H750 H 0.03509 0.35396 0.07787 0.0
H751 H 0.02783 0.33471 0.06688 0.0
H752 H 0.00331 0.29565 0.07556 0.0
H753 H 0.92683 0.26397 0.06838 0.0
H754 H 0.95011 0.30316 0.05965 0.0
H755 H 0.90517 0.29993 0.06592 0.0
H756 H 0.96576 0.45631 0.08062 0.0
H757 H 0.00534 0.49995 0.06768 0.0
H758 H 0.01294 0.38728 0.05796 0.0
C759 C 0.93674 0.29525 0.08747 0.0
C760 C 0.92477 0.30184 0.09579 0.0
C761 C 0.92278 0.34059 0.09755 0.0
C762 C 0.93362 0.37308 0.09127 0.0
C763 C 0.94701 0.36664 0.08324 0.0
C764 C 0.94842 0.32861 0.08128 0.0
C765 C 0.96917 0.33249 0.07253 0.0
C766 C 0.01134 0.32901 0.07326 0.0
C767 C 0.93584 0.29784 0.06624 0.0
C768 C 0.97993 0.37878 0.07003 0.0
C769 C 0.96662 0.39785 0.07625 0.0
C770 C 0.97569 0.44153 0.0756 0.0
C771 C 0.99849 0.4662 0.0683 0.0
C772 C 0.01182 0.44689 0.06181 0.0
C773 C 1.00257 0.40277 0.06276 0.0
H774 H 0.6309 0.54865 0.06469 0.0
H775 H 0.62092 0.66487 0.05904 0.0
H776 H 0.67794 0.70707 0.0701 0.0
H777 H 0.6502 0.56736 0.08803 0.0
H778 H 0.68803 0.54623 0.08807 0.0
H779 H 0.64374 0.52588 0.08033 0.0
H780 H 0.70179 0.54702 0.06812 0.0
H781 H 0.74643 0.5697 0.07581 0.0
H782 H 0.74562 0.60352 0.06709 0.0
H783 H 0.74004 0.73756 0.08084 0.0
H784 H 0.79106 0.75011 0.09293 0.0
H785 H 0.76101 0.61393 0.09128 0.0
C786 C 0.63933 0.58236 0.06611 0.0
C787 C 0.62087 0.60342 0.06133 0.0
C788 C 0.6339 0.64811 0.06294 0.0
C789 C 0.66675 0.67242 0.06906 0.0
C790 C 0.68614 0.65133 0.07337 0.0
C791 C 0.67215 0.60704 0.07213 0.0
C792 C 0.69856 0.59231 0.07752 0.0
C793 C 0.66835 0.55579 0.08387 0.0
C794 C 0.72464 0.57727 0.07179 0.0
C795 C 0.72909 0.63506 0.08211 0.0
C796 C 0.72214 0.66897 0.07948 0.0
C797 C 0.74579 0.7113 0.08297 0.0
C798 C 0.77522 0.71834 0.08974 0.0
C799 C 0.77997 0.68301 0.09296 0.0
C800 C 0.75809 0.64149 0.08885 0.0
H801 H 0.0523 0.47676 0.42264 0.0
H802 H 0.06013 0.39016 0.44187 0.0
H803 H 0.10013 0.36934 0.43168 0.0
H804 H 0.03017 0.40791 0.40498 0.0
H805 H 0.06408 0.45115 0.39746 0.0
H806 H 0.04096 0.46354 0.40667 0.0
H807 H 0.11936 0.52451 0.41085 0.0
H808 H 0.14482 0.51079 0.40217 0.0
H809 H 0.16152 0.51041 0.41312 0.0
H810 H 0.13444 0.35302 0.41915 0.0
H811 H 0.15563 0.33934 0.40469 0.0
H812 H 0.12096 0.43236 0.39364 0.0
C813 C 0.06285 0.45383 0.42472 0.0
C814 C 0.05323 0.4354 0.43306 0.0
C815 C 0.06725 0.40505 0.43552 0.0
C816 C 0.09032 0.39309 0.4298 0.0
C817 C 0.09916 0.41161 0.42162 0.0
C818 C 0.08579 0.44119 0.41905 0.0
C819 C 0.09699 0.45385 0.4097 0.0
C820 C 0.05558 0.44344 0.4044 0.0
C821 C 0.13274 0.5028 0.40891 0.0
C822 C 0.11532 0.4241 0.4073 0.0
C823 C 0.11803 0.40132 0.41432 0.0
C824 C 0.13297 0.37103 0.41358 0.0
C825 C 0.14484 0.36339 0.40538 0.0
C826 C 0.14039 0.38512 0.39806 0.0
C827 C 0.12577 0.41599 0.39911 0.0
H828 H 0.55652 0.63205 0.42403 0.0
H829 H 0.65572 0.59251 0.42634 0.0
H830 H 0.69929 0.64473 0.41474 0.0
H831 H 0.56713 0.64831 0.40001 0.0
H832 H 0.5573 0.69425 0.40062 0.0
H833 H 0.53215 0.65003 0.40838 0.0
H834 H 0.56741 0.70764 0.42074 0.0
H835 H 0.5933 0.75154 0.41295 0.0
H836 H 0.6266 0.7438 0.42089 0.0
H837 H 0.73543 0.70652 0.40402 0.0
H838 H 0.75585 0.76516 0.39303 0.0
H839 H 0.63336 0.76473 0.39778 0.0
C840 C 0.58681 0.63362 0.4219 0.0
C841 C 0.60281 0.60825 0.42599 0.0
C842 C 0.64259 0.61106 0.42314 0.0
C843 C 0.66777 0.64101 0.41663 0.0
C844 C 0.65214 0.66717 0.413 0.0
C845 C 0.61194 0.66282 0.41534 0.0
C846 C 0.60287 0.69513 0.41047 0.0
C847 C 0.56248 0.67046 0.40451 0.0
C848 C 0.59718 0.72635 0.41664 0.0
C849 C 0.64512 0.71963 0.40533 0.0
C850 C 0.67306 0.70292 0.40686 0.0
C851 C 0.71384 0.71984 0.40276 0.0
C852 C 0.72545 0.75344 0.39665 0.0
C853 C 0.69667 0.76997 0.39484 0.0
C854 C 0.65646 0.7535 0.39932 0.0
H855 H 0.33257 0.99923 0.39363 0.0
H856 H 0.25405 0.85932 0.39937 0.0
H857 H 0.30287 0.86929 0.41184 0.0
H858 H 0.43762 0.01284 0.39894 0.0
H859 H 0.45846 0.06654 0.40379 0.0
H860 H 0.41746 0.04876 0.39537 0.0
H861 H 0.36518 0.06172 0.4053 0.0
H862 H 0.40666 0.08109 0.41362 0.0
H863 H 0.35161 0.03652 0.41585 0.0
H864 H 0.36422 0.894 0.42279 0.0
H865 H 0.42172 0.9346 0.43383 0.0
H866 H 0.45536 0.05869 0.42171 0.0
C867 C 0.32526 0.97086 0.39761 0.0
C868 C 0.28978 0.92854 0.3956 0.0
C869 C 0.28087 0.89206 0.40091 0.0
C870 C 0.3088 0.89734 0.40789 0.0
C871 C 0.34476 0.93933 0.40947 0.0
C872 C 0.35218 0.97568 0.40465 0.0
C873 C 0.39166 0.01763 0.40794 0.0
C874 C 0.42847 0.03761 0.4011 0.0
C875 C 0.37794 0.05121 0.41085 0.0
C876 C 0.40504 0.99943 0.41549 0.0
C877 C 0.3784 0.95398 0.41608 0.0
C878 C 0.38466 0.92959 0.42246 0.0
C879 C 0.41715 0.95261 0.42869 0.0
C880 C 0.44192 0.99914 0.42864 0.0
C881 C 0.437 0.0229 0.4218 0.0
H882 H 0.56205 0.94318 0.92573 0.0
H883 H 0.64843 0.08524 0.92554 0.0
H884 H 0.68696 0.07856 0.91268 0.0
H885 H 0.64017 0.91385 0.92095 0.0
H886 H 0.60589 0.86804 0.91397 0.0
H887 H 0.581 0.88391 0.92236 0.0
H888 H 0.53111 0.89333 0.91142 0.0
H889 H 0.55433 0.87694 0.90277 0.0
H890 H 0.5553 0.92903 0.90223 0.0
H891 H 0.71839 0.05491 0.9004 0.0
H892 H 0.73515 0.01727 0.88867 0.0
H893 H 0.63065 0.89051 0.89771 0.0
C894 C 0.58838 0.97297 0.92283 0.0
C895 C 0.60216 0.01477 0.9265 0.0
C896 C 0.63685 0.0531 0.92265 0.0
C897 C 0.65921 0.04948 0.91544 0.0
C898 C 0.64606 0.00735 0.91222 0.0
C899 C 0.61087 0.96989 0.9157 0.0
C900 C 0.60353 0.92838 0.9112 0.0
C901 C 0.60797 0.89671 0.9175 0.0
C902 C 0.5584 0.90554 0.90663 0.0
C903 C 0.6411 0.94805 0.9048 0.0
C904 C 0.66503 0.99368 0.90542 0.0
C905 C 0.70005 0.01925 0.89988 0.0
C906 C 0.70962 0.99768 0.89333 0.0
C907 C 0.68488 0.95117 0.89253 0.0
C908 C 0.65093 0.926 0.89843 0.0
H909 H 0.10068 0.70249 0.8901 0.0
H910 H 0.16332 0.83051 0.90277 0.0
H911 H 0.15439 0.79372 0.91684 0.0
H912 H 0.02003 0.64536 0.90544 0.0
H913 H 0.02162 0.59463 0.9047 0.0
H914 H 0.03723 0.63116 0.89556 0.0
H915 H 0.11315 0.63479 0.89495 0.0
H916 H 0.09787 0.59814 0.9041 0.0
H917 H 0.14783 0.65117 0.9044 0.0
H918 H 0.12858 0.74371 0.92936 0.0
H919 H 0.09141 0.68367 0.93981 0.0
H920 H 0.05139 0.58704 0.91922 0.0
C921 C 0.1131 0.72289 0.89582 0.0
C922 C 0.13265 0.76938 0.89536 0.0
C923 C 0.14831 0.79487 0.90298 0.0
C924 C 0.14356 0.7743 0.91098 0.0
C925 C 0.12375 0.72838 0.9112 0.0
C926 C 0.10919 0.70297 0.90382 0.0
C927 C 0.08679 0.65408 0.9059 0.0
C928 C 0.03857 0.62991 0.90271 0.0
C929 C 0.11298 0.63333 0.90212 0.0
C930 C 0.08928 0.6559 0.91566 0.0
C931 C 0.11102 0.69919 0.91854 0.0
C932 C 0.11303 0.70972 0.92722 0.0
C933 C 0.09206 0.6752 0.93313 0.0
C934 C 0.0704 0.6305 0.93041 0.0
C935 C 0.06921 0.62078 0.92154 0.0
H936 H 0.4134 0.38506 0.92493 0.0
H937 H 0.44596 0.52157 0.92743 0.0
H938 H 0.38826 0.50911 0.91664 0.0
H939 H 0.39344 0.37814 0.9015 0.0
H940 H 0.35001 0.32128 0.90224 0.0
H941 H 0.39484 0.34294 0.90987 0.0
H942 H 0.3374 0.3173 0.92229 0.0
H943 H 0.29252 0.2975 0.91467 0.0
H944 H 0.2989 0.3375 0.92272 0.0
H945 H 0.32136 0.47859 0.90669 0.0
H946 H 0.26461 0.43862 0.89547 0.0
H947 H 0.28133 0.32459 0.89872 0.0
C948 C 0.40918 0.41256 0.92297 0.0
C949 C 0.4341 0.45431 0.92683 0.0
C950 C 0.42757 0.48961 0.92432 0.0
C951 C 0.39448 0.48261 0.91834 0.0
C952 C 0.36901 0.44034 0.91489 0.0
C953 C 0.37713 0.40639 0.91689 0.0
C954 C 0.34648 0.36456 0.91206 0.0
C955 C 0.37276 0.35095 0.90606 0.0
C956 C 0.3171 0.32701 0.91831 0.0
C957 C 0.31971 0.38014 0.90703 0.0
C958 C 0.33228 0.42356 0.90891 0.0
C959 C 0.31163 0.44476 0.90509 0.0
C960 C 0.27923 0.42177 0.89879 0.0
C961 C 0.26899 0.37877 0.89628 0.0
C962 C 0.28837 0.3573 0.90064 0.0
H963 H 0.91701 0.61161 0.597 0.0
H964 H 0.96907 0.75031 0.59113 0.0
H965 H 0.01234 0.74393 0.57903 0.0
H966 H 0.01252 0.60478 0.59292 0.0
H967 H 0.98305 0.55082 0.58803 0.0
H968 H 0.95637 0.56665 0.59608 0.0
H969 H 0.89196 0.55105 0.58542 0.0
H970 H 0.91766 0.5324 0.57773 0.0
H971 H 0.90535 0.57512 0.5748 0.0
H972 H 0.04861 0.72101 0.56765 0.0
H973 H 0.06567 0.68146 0.55641 0.0
H974 H 0.99035 0.55856 0.57034 0.0
C975 C 0.93712 0.64061 0.59313 0.0
C976 C 0.94001 0.68145 0.59496 0.0
C977 C 0.96638 0.71867 0.58974 0.0
C978 C 0.99138 0.71542 0.58297 0.0
C979 C 0.98902 0.67473 0.58158 0.0
C980 C 0.96169 0.63783 0.58641 0.0
C981 C 0.96262 0.59723 0.58341 0.0
C982 C 0.97967 0.57882 0.59054 0.0
C983 C 0.91671 0.56188 0.58015 0.0
C984 C 0.99524 0.61693 0.57611 0.0
C985 C 0.01038 0.66176 0.57519 0.0
C986 C 0.03757 0.68619 0.56838 0.0
C987 C 0.0474 0.66366 0.5621 0.0
C988 C 0.03016 0.61753 0.56275 0.0
C989 C 0.00531 0.59418 0.56997 0.0
H990 H 0.39892 0.40842 0.56234 0.0
H991 H 0.53955 0.48502 0.56748 0.0
H992 H 0.53016 0.43573 0.57985 0.0
H993 H 0.36411 0.38376 0.58533 0.0
H994 H 0.3191 0.32984 0.58255 0.0
H995 H 0.33744 0.37475 0.57497 0.0
H996 H 0.34844 0.32674 0.56357 0.0
H997 H 0.33199 0.2824 0.57121 0.0
H998 H 0.38494 0.30543 0.56592 0.0
H999 H 0.50511 0.37323 0.59088 0.0
H1000 H 0.46547 0.31028 0.60087 0.0
H1001 H 0.34221 0.27383 0.58782 0.0
C1002 C 0.42757 0.41559 0.56623 0.0
C1003 C 0.46992 0.45043 0.564 0.0
C1004 C 0.50672 0.45885 0.56918 0.0
C1005 C 0.50173 0.43068 0.57613 0.0
C1006 C 0.4597 0.39495 0.57783 0.0
C1007 C 0.42313 0.38816 0.57315 0.0
C1008 C 0.38163 0.34724 0.57612 0.0
C1009 C 0.34863 0.35964 0.57997 0.0
C1010 C 0.36054 0.31347 0.56876 0.0
C1011 C 0.40062 0.33087 0.583 0.0
C1012 C 0.44562 0.35893 0.58397 0.0
C1013 C 0.46992 0.35113 0.59016 0.0
C1014 C 0.44721 0.31498 0.59575 0.0
C1015 C 0.40092 0.28692 0.59504 0.0
C1016 C 0.37772 0.29427 0.58841 0.0
H1017 H 0.73278 0.05462 0.59496 0.0
H1018 H 0.80194 0.19558 0.58991 0.0
H1019 H 0.75141 0.18368 0.57769 0.0
H1020 H 0.71591 0.02288 0.572 0.0
H1021 H 0.6632 0.97437 0.57407 0.0
H1022 H 0.70558 0.9948 0.58223 0.0
H1023 H 0.65067 0.9986 0.59299 0.0
H1024 H 0.60854 0.97946 0.58478 0.0
H1025 H 0.62507 0.03092 0.59027 0.0
H1026 H 0.68862 0.15664 0.56704 0.0
H1027 H 0.62756 0.1149 0.55669 0.0
H1028 H 0.60463 0.99162 0.56783 0.0
C1029 C 0.73763 0.08281 0.59117 0.0
C1030 C 0.77082 0.12596 0.59334 0.0
C1031 C 0.77675 0.16222 0.58826 0.0
C1032 C 0.74797 0.15582 0.58139 0.0
C1033 C 0.7145 0.11288 0.57959 0.0
C1034 C 0.71012 0.07687 0.58416 0.0
C1035 C 0.67273 0.03398 0.58068 0.0
C1036 C 0.69041 0.00479 0.57703 0.0
C1037 C 0.63715 0.00931 0.58759 0.0
C1038 C 0.65593 0.05151 0.57358 0.0
C1039 C 0.68015 0.09714 0.57312 0.0
C1040 C 0.6702 0.12089 0.56719 0.0
C1041 C 0.63591 0.09715 0.56131 0.0
C1042 C 0.61281 0.05051 0.56129 0.0
C1043 C 0.62201 0.0274 0.56768 0.0
H1044 H 0.82403 0.73241 0.73475 0.0
H1045 H 0.69509 0.63805 0.72477 0.0
H1046 H 0.65949 0.65665 0.73657 0.0
H1047 H 0.79299 0.7203 0.75849 0.0
H1048 H 0.82812 0.77878 0.76021 0.0
H1049 H 0.84292 0.75081 0.75226 0.0
H1050 H 0.84739 0.80662 0.74066 0.0
H1051 H 0.83182 0.83405 0.74856 0.0
H1052 H 0.79979 0.81302 0.73884 0.0
H1053 H 0.63864 0.69518 0.74782 0.0
H1054 H 0.63428 0.7432 0.75909 0.0
H1055 H 0.77733 0.81373 0.76108 0.0
C1056 C 0.78839 0.71384 0.7354 0.0
C1057 C 0.76204 0.68279 0.72911 0.0
C1058 C 0.71548 0.66089 0.72975 0.0
C1059 C 0.69509 0.67159 0.73637 0.0
C1060 C 0.72193 0.70439 0.74221 0.0
C1061 C 0.76763 0.72455 0.74191 0.0
C1062 C 0.78901 0.76203 0.74833 0.0
C1063 C 0.81476 0.75237 0.75523 0.0
C1064 C 0.81878 0.80654 0.74382 0.0
C1065 C 0.74836 0.76052 0.75207 0.0
C1066 C 0.70995 0.72711 0.74852 0.0
C1067 C 0.66851 0.72101 0.75076 0.0
C1068 C 0.66636 0.7488 0.75706 0.0
C1069 C 0.70547 0.78216 0.76099 0.0
C1070 C 0.7468 0.78841 0.75828 0.0
H1071 H 0.26482 0.92833 0.75271 0.0
H1072 H 0.31059 0.02861 0.77274 0.0
H1073 H 0.32703 0.08559 0.76191 0.0
H1074 H 0.34937 0.99258 0.73812 0.0
H1075 H 0.31567 0.97314 0.72854 0.0
H1076 H 0.3009 0.93837 0.73794 0.0
H1077 H 0.22357 0.93098 0.73781 0.0
H1078 H 0.2379 0.96684 0.72855 0.0
H1079 H 0.21859 0.97986 0.73831 0.0
H1080 H 0.34572 0.13359 0.74905 0.0
H1081 H 0.36693 0.16899 0.73468 0.0
H1082 H 0.3121 0.03931 0.72287 0.0
C1083 C 0.27736 0.9621 0.7548 0.0
C1084 C 0.2854 0.97356 0.76361 0.0
C1085 C 0.30319 0.0185 0.76607 0.0
C1086 C 0.31275 0.05141 0.75996 0.0
C1087 C 0.30499 0.03928 0.75134 0.0
C1088 C 0.28788 0.99583 0.74873 0.0
C1089 C 0.28668 0.99272 0.73898 0.0
C1090 C 0.31485 0.97305 0.73571 0.0
C1091 C 0.23883 0.96602 0.73571 0.0
C1092 C 0.30718 0.0412 0.73662 0.0
C1093 C 0.31677 0.06742 0.74384 0.0
C1094 C 0.3379 0.11344 0.74331 0.0
C1095 C 0.34995 0.13329 0.73514 0.0
C1096 C 0.34112 0.10702 0.72766 0.0
C1097 C 0.31911 0.0604 0.72846 0.0
H1098 H 0.98997 0.33494 0.72871 0.0
H1099 H 0.92218 0.19253 0.73164 0.0
H1100 H 0.9756 0.20028 0.74304 0.0
H1101 H 0.09812 0.35436 0.73123 0.0
H1102 H 0.11809 0.4048 0.73731 0.0
H1103 H 0.0735 0.38865 0.72972 0.0
H1104 H 0.02271 0.39133 0.74164 0.0
H1105 H 0.06789 0.40974 0.74914 0.0
H1106 H 0.01549 0.36152 0.75158 0.0
H1107 H 0.04137 0.22407 0.75298 0.0
H1108 H 0.10111 0.26228 0.76375 0.0
H1109 H 0.12186 0.38877 0.75484 0.0
C1110 C 0.98566 0.30552 0.73195 0.0
C1111 C 0.95212 0.26322 0.7294 0.0
C1112 C 0.94737 0.22524 0.73366 0.0
C1113 C 0.978 0.22934 0.74 0.0
C1114 C 0.01243 0.27159 0.74201 0.0
C1115 C 0.0154 0.30906 0.73833 0.0
C1116 C 0.05448 0.35072 0.74178 0.0
C1117 C 0.08802 0.37612 0.73458 0.0
C1118 C 0.03922 0.38003 0.74631 0.0
C1119 C 0.07282 0.33101 0.7481 0.0
C1120 C 0.049 0.28529 0.74794 0.0
C1121 C 0.05989 0.25981 0.75322 0.0
C1122 C 0.09395 0.28168 0.75926 0.0
C1123 C 0.11553 0.32815 0.76006 0.0
C1124 C 0.10622 0.35321 0.7542 0.0
H1125 H 0.26707 0.36369 0.25535 0.0
H1126 H 0.29494 0.2965 0.27593 0.0
H1127 H 0.32411 0.26516 0.26539 0.0
H1128 H 0.23488 0.27949 0.23913 0.0
H1129 H 0.26191 0.31899 0.23058 0.0
H1130 H 0.24145 0.33403 0.23986 0.0
H1131 H 0.32008 0.40162 0.24213 0.0
H1132 H 0.34062 0.38532 0.23301 0.0
H1133 H 0.36645 0.39279 0.24342 0.0
H1134 H 0.35045 0.24092 0.25263 0.0
H1135 H 0.36675 0.22162 0.2382 0.0
H1136 H 0.32619 0.30832 0.2263 0.0
C1137 C 0.27875 0.34192 0.2576 0.0
C1138 C 0.27788 0.33181 0.26642 0.0
C1139 C 0.29439 0.30396 0.26917 0.0
C1140 C 0.31152 0.28633 0.26325 0.0
C1141 C 0.31269 0.29756 0.25463 0.0
C1142 C 0.29671 0.3246 0.2518 0.0
C1143 C 0.30236 0.3319 0.24218 0.0
C1144 C 0.25746 0.31505 0.23768 0.0
C1145 C 0.33428 0.38081 0.24007 0.0
C1146 C 0.32264 0.30362 0.24006 0.0
C1147 C 0.32893 0.28449 0.24732 0.0
C1148 C 0.34593 0.25582 0.24688 0.0
C1149 C 0.35533 0.24525 0.23871 0.0
C1150 C 0.3471 0.26316 0.23123 0.0
C1151 C 0.33202 0.2937 0.23196 0.0
H1152 H 0.76418 0.01808 0.26488 0.0
H1153 H 0.68455 0.88794 0.25356 0.0
H1154 H 0.70328 0.92126 0.239 0.0
H1155 H 0.73454 0.07571 0.25131 0.0
H1156 H 0.78818 0.12463 0.25047 0.0
H1157 H 0.7742 0.0904 0.25993 0.0
H1158 H 0.84279 0.08127 0.25771 0.0
H1159 H 0.85753 0.1162 0.2483 0.0
H1160 H 0.85087 0.0617 0.24749 0.0
H1161 H 0.72046 0.96865 0.22619 0.0
H1162 H 0.73951 0.02669 0.21541 0.0
H1163 H 0.81186 0.12718 0.23481 0.0
C1164 C 0.75137 0.99644 0.25933 0.0
C1165 C 0.7228 0.95044 0.26031 0.0
C1166 C 0.70659 0.92322 0.25292 0.0
C1167 C 0.71714 0.94183 0.24465 0.0
C1168 C 0.74458 0.98745 0.24393 0.0
C1169 C 0.76213 0.01437 0.25105 0.0
C1170 C 0.78863 0.06267 0.24851 0.0
C1171 C 0.77025 0.08992 0.25281 0.0
C1172 C 0.83788 0.08157 0.25063 0.0
C1173 C 0.78076 0.05892 0.23886 0.0
C1174 C 0.7558 0.01512 0.23639 0.0
C1175 C 0.74087 0.00299 0.22799 0.0
C1176 C 0.75169 0.0364 0.22193 0.0
C1177 C 0.77774 0.08162 0.22424 0.0
C1178 C 0.79261 0.09296 0.23283 0.0
H1179 H 0.91984 0.69638 0.23552 0.0
H1180 H 0.01554 0.74993 0.21473 0.0
H1181 H 0.07535 0.7891 0.22524 0.0
H1182 H 0.97425 0.79102 0.25048 0.0
H1183 H 0.96122 0.75558 0.25979 0.0
H1184 H 0.92513 0.7373 0.25054 0.0
H1185 H 0.93262 0.66706 0.24976 0.0
H1186 H 0.96929 0.68575 0.2589 0.0
H1187 H 0.98682 0.67293 0.24891 0.0
H1188 H 0.12576 0.81764 0.23794 0.0
H1189 H 0.16312 0.83291 0.25213 0.0
H1190 H 0.03531 0.75754 0.26463 0.0
C1191 C 0.95322 0.71727 0.23319 0.0
C1192 C 0.96278 0.72173 0.22428 0.0
C1193 C 0.00714 0.74787 0.2215 0.0
C1194 C 0.04149 0.76987 0.22743 0.0
C1195 C 0.03111 0.76471 0.23615 0.0
C1196 C 0.98812 0.73896 0.23905 0.0
C1197 C 0.98659 0.7357 0.24879 0.0
C1198 C 0.96025 0.75615 0.25262 0.0
C1199 C 0.96772 0.6875 0.25176 0.0
C1200 C 0.03535 0.76324 0.25087 0.0
C1201 C 0.06046 0.77993 0.2435 0.0
C1202 C 0.10647 0.80508 0.24379 0.0
C1203 C 0.1274 0.81345 0.25185 0.0
C1204 C 0.10221 0.79646 0.25948 0.0
C1205 C 0.0556 0.77115 0.25893 0.0
H1206 H 0.51911 0.07358 0.01119 0.0
H1207 H 0.56736 0.98944 0.02144 0.0
H1208 H 0.59454 0.98535 0.00702 0.0
H1209 H 0.47892 0.01718 0.99178 0.0
H1210 H 0.49458 0.0657 0.98529 0.0
H1211 H 0.48328 0.0662 -0.0034 0.0
H1212 H 0.56071 0.13517 -0.00128 0.0
H1213 H 0.57227 0.13471 0.9874 0.0
H1214 H 0.60922 0.13332 -0.00463 0.0
H1215 H 0.60927 0.98358 0.99147 0.0
H1216 H 0.61007 0.98371 0.97556 0.0
H1217 H 0.554 0.07022 0.97528 0.0
C1218 C 0.53595 0.05481 0.01043 0.0
C1219 C 0.54114 0.03189 0.01746 0.0
C1220 C 0.56306 0.00739 0.01617 0.0
C1221 C 0.57882 0.00501 0.00801 0.0
C1222 C 0.57277 0.0276 0.00122 0.0
C1223 C 0.55202 0.05216 0.00233 0.0
C1224 C 0.54705 0.07073 0.99383 0.0
C1225 C 0.49805 0.05392 0.99175 0.0
C1226 C 0.57393 0.1215 0.99383 0.0
C1227 C 0.56689 0.05143 0.98773 0.0
C1228 C 0.58196 0.0271 0.99216 0.0
C1229 C 0.59835 0.00315 0.98792 0.0
C1230 C 0.59855 0.00333 0.9789 0.0
C1231 C 0.58254 0.02735 0.97423 0.0
C1232 C 0.56746 0.0525 0.97871 0.0
H1233 H 0.08067 0.58788 0.97839 0.0
H1234 H 0.9582 0.47557 0.96939 0.0
H1235 H 0.94149 0.44652 0.98427 0.0
H1236 H 0.10843 0.52956 0.99365 0.0
H1237 H 0.13062 0.57374 0.00144 0.0
H1238 H 0.13235 0.58615 0.99012 0.0
H1239 H 0.09078 0.62902 0.99311 0.0
H1240 H 0.08898 0.61675 0.00444 0.0
H1241 H 0.03852 0.60176 -0.00131 0.0
H1242 H 0.93913 0.42921 -5e-05 0.0
H1243 H 0.95029 0.4243 0.01547 0.0
H1244 H 0.07444 0.54866 0.01427 0.0
C1245 C 0.05016 0.55722 0.97951 0.0
C1246 C 0.02067 0.53392 0.97269 0.0
C1247 C 0.98128 0.49392 0.97448 0.0
C1248 C 0.9715 0.47723 0.98292 0.0
C1249 C 1.00144 0.50106 0.98945 0.0
C1250 C 0.0399 0.54023 0.98785 0.0
C1251 C 0.0668 0.55921 -0.004 0.0
C1252 C 0.11223 0.56232 -0.00475 0.0
C1253 C 0.07153 0.60435 -0.00181 0.0
C1254 C 0.03758 0.52431 0.00245 0.0
C1255 C 1.00004 0.49115 -0.00148 0.0
C1256 C 0.96834 0.45496 0.0031 0.0
C1257 C 0.97518 0.45248 0.01192 0.0
C1258 C 0.01347 0.48605 0.0161 0.0
C1259 C 0.04491 0.52252 0.01127 0.0
H1260 H 0.50716 0.49326 0.01435 0.0
H1261 H 0.59932 0.63423 0.01366 0.0
H1262 H 0.59281 0.63377 -0.00223 0.0
H1263 H 0.55198 0.46957 -0.00379 0.0
H1264 H 0.50014 0.42566 0.99218 0.0
H1265 H 0.50717 0.43763 0.00356 0.0
H1266 H 0.43886 0.44836 0.00362 0.0
H1267 H 0.43112 0.43575 0.99226 0.0
H1268 H 0.43641 0.48681 -0.00384 0.0
H1269 H 0.58229 0.61692 0.98206 0.0
H1270 H 0.56484 0.58514 0.96737 0.0
H1271 H 0.48 0.45497 0.97824 0.0
C1272 C 0.52479 0.52413 0.01084 0.0
C1273 C 0.55319 0.56394 0.01513 0.0
C1274 C 0.57718 0.60357 0.0104 0.0
C1275 C 0.5737 0.6036 0.00141 0.0
C1276 C 0.54649 0.56357 -0.0027 0.0
C1277 C 0.5223 0.52457 0.00184 0.0
C1278 C 0.4986 0.48556 -0.00418 0.0
C1279 C 0.51548 0.45268 -0.00299 0.0
C1280 C 0.44825 0.4628 -0.00296 0.0
C1281 C 0.51275 0.50885 0.9872 0.0
C1282 C 0.54067 0.55378 0.9882 0.0
C1283 C 0.5601 0.58187 0.98118 0.0
C1284 C 0.55035 0.56355 0.97289 0.0
C1285 C 0.52111 0.51778 0.97174 0.0
C1286 C 0.50209 0.49018 0.97898 0.0
H1287 H 0.01418 0.58325 0.51208 0.0
H1288 H 0.03374 0.47868 0.52258 0.0
H1289 H 0.02477 0.44689 0.50809 0.0
H1290 H 0.9329 0.51549 0.4953 0.0
H1291 H 0.95538 0.55977 0.48751 0.0
H1292 H 0.95831 0.57207 0.49887 0.0
H1293 H 0.04331 0.6224 0.49772 0.0
H1294 H 0.0406 0.61046 0.48637 0.0
H1295 H 0.07596 0.60015 0.49332 0.0
H1296 H 0.02035 0.42998 0.49285 0.0
H1297 H 0.02507 0.43061 0.47704 0.0
H1298 H 0.00816 0.54558 0.47593 0.0
C1299 C 0.01599 0.55334 0.51133 0.0
C1300 C 0.02448 0.53329 0.51843 0.0
C1301 C 0.02733 0.49461 0.51722 0.0
C1302 C 0.02186 0.47605 0.50903 0.0
C1303 C 0.01353 0.49658 0.50217 0.0
C1304 C 0.0108 0.53444 0.50318 0.0
C1305 C 0.00531 0.5518 0.49458 0.0
C1306 C 0.96029 0.54964 0.49404 0.0
C1307 C 0.04359 0.59898 0.4929 0.0
C1308 C 0.00716 0.51865 0.48856 0.0
C1309 C 0.01106 0.4867 0.49315 0.0
C1310 C 0.01667 0.45429 0.48916 0.0
C1311 C 0.01952 0.4551 0.48021 0.0
C1312 C 0.01689 0.48814 0.47538 0.0
C1313 C 0.00944 0.51965 0.47954 0.0
H1314 H 0.58487 0.59752 0.47876 0.0
H1315 H 0.49047 0.46982 0.46795 0.0
H1316 H 0.46224 0.44201 0.48247 0.0
H1317 H 0.6103 0.55474 0.49757 0.0
H1318 H 0.61497 0.59768 0.50468 0.0
H1319 H 0.62684 0.60899 0.49336 0.0
H1320 H 0.56913 0.63493 0.49234 0.0
H1321 H 0.55702 0.62357 0.50366 0.0
H1322 H 0.51316 0.5984 0.49582 0.0
H1323 H 0.4452 0.42661 0.49794 0.0
H1324 H 0.44132 0.42377 0.51378 0.0
H1325 H 0.54686 0.56067 0.51501 0.0
C1326 C 0.55809 0.56382 0.47946 0.0
C1327 C 0.53994 0.53595 0.47219 0.0
C1328 C 0.50513 0.4919 0.47339 0.0
C1329 C 0.48865 0.47574 0.48162 0.0
C1330 C 0.50731 0.50389 0.48863 0.0
C1331 C 0.54129 0.54693 0.48768 0.0
C1332 C 0.55628 0.56943 0.4964 0.0
C1333 C 0.60499 0.58353 0.4981 0.0
C1334 C 0.54842 0.60892 0.49709 0.0
C1335 C 0.52566 0.53208 0.50236 0.0
C1336 C 0.49756 0.49476 0.49769 0.0
C1337 C 0.4669 0.45563 0.50168 0.0
C1338 C 0.46507 0.45437 0.51069 0.0
C1339 C 0.49378 0.49197 0.51566 0.0
C1340 C 0.52426 0.53146 0.5114 0.0
H1341 H 0.57448 0.08863 0.51286 0.0
H1342 H 0.51084 0.9506 0.5205 0.0
H1343 H 0.48667 0.92847 0.50543 0.0
H1344 H 0.49198 0.07657 0.49742 0.0
H1345 H 0.5317 0.11671 0.49006 0.0
H1346 H 0.54322 0.12139 0.50147 0.0
H1347 H 0.61646 0.12179 0.49846 0.0
H1348 H 0.60497 0.11667 0.48706 0.0
H1349 H 0.61524 0.07692 0.49247 0.0
H1350 H 0.46785 0.92166 0.48971 0.0
H1351 H 0.45653 0.93021 0.47428 0.0
H1352 H 0.53634 0.07266 0.47672 0.0
C1353 C 0.55551 0.0537 0.51138 0.0
C1354 C 0.54434 0.02128 0.51786 0.0
C1355 C 0.51933 0.97598 0.51566 0.0
C1356 C 0.50567 0.96312 0.50712 0.0
C1357 C 0.51745 0.99599 0.50089 0.0
C1358 C 0.5418 0.04033 0.50291 0.0
C1359 C 0.54991 0.06911 0.49503 0.0
C1360 C 0.52789 0.09762 0.49606 0.0
C1361 C 0.5996 0.0978 0.49315 0.0
C1362 C 0.52682 0.03396 0.48821 0.0
C1363 C 0.50789 0.99204 0.49176 0.0
C1364 C 0.48282 0.95426 0.48685 0.0
C1365 C 0.47657 0.95947 0.4781 0.0
C1366 C 0.49599 0.00205 0.47432 0.0
C1367 C 0.52182 0.03973 0.47943 0.0
H1368 H 0.16897 0.31193 0.31069 0.0
H1369 H 0.27568 0.44662 0.3072 0.0
H1370 H 0.27289 0.46082 0.32281 0.0
H1371 H 0.10832 0.33837 0.32683 0.0
H1372 H 0.09092 0.28738 0.33258 0.0
H1373 H 0.09989 0.28985 0.3211 0.0
H1374 H 0.15474 0.26101 0.32337 0.0
H1375 H 0.14686 0.25946 0.33487 0.0
H1376 H 0.20167 0.2908 0.3304 0.0
H1377 H 0.26246 0.45748 0.33888 0.0
H1378 H 0.23902 0.43997 0.35413 0.0
H1379 H 0.13825 0.3079 0.34682 0.0
C1380 C 0.19132 0.34459 0.31321 0.0
C1381 C 0.22273 0.37822 0.30788 0.0
C1382 C 0.25128 0.42069 0.31127 0.0
C1383 C 0.25006 0.42886 0.32009 0.0
C1384 C 0.21958 0.39436 0.32526 0.0
C1385 C 0.19009 0.35338 0.32191 0.0
C1386 C 0.16067 0.32177 0.32879 0.0
C1387 C 0.11208 0.30858 0.32723 0.0
C1388 C 0.16637 0.28086 0.32939 0.0
C1389 C 0.17918 0.35087 0.33662 0.0
C1390 C 0.21309 0.39264 0.33446 0.0
C1391 C 0.23569 0.42511 0.34065 0.0
C1392 C 0.22241 0.41491 0.34925 0.0
C1393 C 0.18718 0.37274 0.35149 0.0
C1394 C 0.16558 0.34021 0.34517 0.0
H1395 H 0.67981 0.7967 0.34414 0.0
H1396 H 0.71504 0.92497 0.35488 0.0
H1397 H 0.70852 0.95091 0.34042 0.0
H1398 H 0.74237 0.83893 0.32492 0.0
H1399 H 0.70339 0.79438 0.31819 0.0
H1400 H 0.70736 0.78493 0.32949 0.0
H1401 H 0.62353 0.75641 0.33125 0.0
H1402 H 0.61942 0.76627 0.31996 0.0
H1403 H 0.60134 0.7911 0.328 0.0
H1404 H 0.70294 0.96441 0.32495 0.0
H1405 H 0.70335 0.96656 0.30904 0.0
H1406 H 0.67105 0.82947 0.30818 0.0
C1407 C 0.68578 0.83012 0.34344 0.0
C1408 C 0.69783 0.85889 0.35059 0.0
C1409 C 0.70607 0.90258 0.34945 0.0
C1410 C 0.70203 0.91743 0.3413 0.0
C1411 C 0.68998 0.88821 0.33438 0.0
C1412 C 0.68238 0.84563 0.33534 0.0
C1413 C 0.67333 0.82213 0.32674 0.0
C1414 C 0.70872 0.80936 0.32472 0.0
C1415 C 0.62662 0.78158 0.32647 0.0
C1416 C 0.67726 0.85832 0.32078 0.0
C1417 C 0.68661 0.89602 0.32536 0.0
C1418 C 0.69512 0.93501 0.32129 0.0
C1419 C 0.69535 0.93594 0.31228 0.0
C1420 C 0.68683 0.89806 0.30747 0.0
C1421 C 0.67659 0.85845 0.31176 0.0
H1422 H 0.13024 0.79858 0.31204 0.0
H1423 H 0.24765 0.90926 0.30099 0.0
H1424 H 0.27345 0.93935 0.31556 0.0
H1425 H 0.11466 0.85845 0.32967 0.0
H1426 H 0.09826 0.81391 0.33729 0.0
H1427 H 0.08727 0.802 0.32595 0.0
H1428 H 0.12925 0.75819 0.32623 0.0
H1429 H 0.14018 0.7698 0.33756 0.0
H1430 H 0.1853 0.78468 0.33017 0.0
H1431 H 0.28882 0.95537 0.33105 0.0
H1432 H 0.29395 0.956 0.34691 0.0
H1433 H 0.16653 0.83568 0.34823 0.0
C1434 C 0.16121 0.82929 0.31271 0.0
C1435 C 0.18705 0.85156 0.30541 0.0
C1436 C 0.22759 0.89143 0.30651 0.0
C1437 C 0.24235 0.90897 0.31474 0.0
C1438 C 0.21631 0.88611 0.3218 0.0
C1439 C 0.17671 0.84708 0.3209 0.0
C1440 C 0.15649 0.82798 0.32963 0.0
C1441 C 0.1115 0.82546 0.33069 0.0
C1442 C 0.15259 0.78247 0.33098 0.0
C1443 C 0.19102 0.86242 0.33555 0.0
C1444 C 0.22514 0.89563 0.33086 0.0
C1445 C 0.26219 0.92983 0.33481 0.0
C1446 C 0.26486 0.92979 0.3438 0.0
C1447 C 0.23056 0.89598 0.34874 0.0
C1448 C 0.19281 0.86226 0.34458 0.0
H1449 H 0.70437 0.8901 0.80557 0.0
H1450 H 0.68293 0.75672 0.80654 0.0
H1451 H 0.67165 0.75499 0.82235 0.0
H1452 H 0.76903 0.92503 0.82409 0.0
H1453 H 0.74999 0.9616 0.82778 0.0
H1454 H 0.74933 0.95022 0.81644 0.0
H1455 H 0.66553 0.92341 0.81564 0.0
H1456 H 0.66604 0.93571 0.82695 0.0
H1457 H 0.62809 0.88111 0.82297 0.0
H1458 H 0.67268 0.7715 0.83808 0.0
H1459 H 0.67934 0.80285 0.85269 0.0
H1460 H 0.6998 0.92539 0.84142 0.0
C1461 C 0.69555 0.85995 0.80908 0.0
C1462 C 0.69352 0.82312 0.8049 0.0
C1463 C 0.68395 0.78491 0.80969 0.0
C1464 C 0.67766 0.78374 0.81864 0.0
C1465 C 0.68157 0.82128 0.82264 0.0
C1466 C 0.68994 0.85857 0.81801 0.0
C1467 C 0.69687 0.89598 0.82392 0.0
C1468 C 0.74409 0.93552 0.823 0.0
C1469 C 0.66203 0.90984 0.82227 0.0
C1470 C 0.69046 0.87372 0.83259 0.0
C1471 C 0.68221 0.83083 0.83172 0.0
C1472 C 0.67846 0.80479 0.83885 0.0
C1473 C 0.68268 0.82291 0.84709 0.0
C1474 C 0.68988 0.86627 0.84809 0.0
C1475 C 0.69374 0.89192 0.84077 0.0
H1476 H 0.15867 0.78304 0.84353 0.0
H1477 H 0.19292 0.91385 0.85287 0.0
H1478 H 0.21376 0.94332 0.83823 0.0
H1479 H 0.24674 0.81986 0.82763 0.0
H1480 H 0.21309 0.77914 0.8197 0.0
H1481 H 0.20148 0.76725 0.83102 0.0
H1482 H 0.12101 0.75 0.82853 0.0
H1483 H 0.13236 0.7618 0.8172 0.0
H1484 H 0.11125 0.79083 0.82343 0.0
H1485 H 0.22949 0.95928 0.82314 0.0
H1486 H 0.23924 0.9623 0.80758 0.0
H1487 H 0.19522 0.82158 0.80707 0.0
C1488 C 0.17061 0.81787 0.84248 0.0
C1489 C 0.17405 0.8461 0.84937 0.0
C1490 C 0.18976 0.89146 0.84773 0.0
C1491 C 0.20186 0.90864 0.83943 0.0
C1492 C 0.19802 0.88008 0.83282 0.0
C1493 C 0.18277 0.83573 0.83417 0.0
C1494 C 0.18118 0.81266 0.82575 0.0
C1495 C 0.2125 0.79361 0.82605 0.0
C1496 C 0.13362 0.77669 0.8236 0.0
C1497 C 0.19768 0.85118 0.81949 0.0
C1498 C 0.2072 0.88954 0.82382 0.0
C1499 C 0.22217 0.92957 0.81965 0.0
C1500 C 0.22734 0.93069 0.81075 0.0
C1501 C 0.21758 0.89197 0.80604 0.0
C1502 C 0.20293 0.85163 0.81049 0.0
H1503 H 0.13597 0.32586 0.81106 0.0
H1504 H 0.26232 0.43599 0.80304 0.0
H1505 H 0.28997 0.44386 0.81796 0.0
H1506 H 0.12898 0.3664 0.83152 0.0
H1507 H 0.1061 0.31388 0.83697 0.0
H1508 H 0.09642 0.31577 0.82561 0.0
H1509 H 0.12895 0.2647 0.8225 0.0
H1510 H 0.13868 0.26259 0.83387 0.0
H1511 H 0.18361 0.28028 0.82631 0.0
H1512 H 0.30282 0.44219 0.83351 0.0
H1513 H 0.30161 0.43134 0.84912 0.0
H1514 H 0.16734 0.32045 0.84736 0.0
C1515 C 0.16944 0.35162 0.81246 0.0
C1516 C 0.19702 0.38055 0.80594 0.0
C1517 C 0.24075 0.41351 0.80796 0.0
C1518 C 0.25673 0.41818 0.8164 0.0
C1519 C 0.22877 0.38913 0.82267 0.0
C1520 C 0.18622 0.35626 0.82082 0.0
C1521 C 0.16326 0.32944 0.82881 0.0
C1522 C 0.12121 0.33153 0.83084 0.0
C1523 C 0.15302 0.28141 0.82781 0.0
C1524 C 0.19895 0.35379 0.83551 0.0
C1525 C 0.23656 0.38767 0.83175 0.0
C1526 C 0.27376 0.41561 0.83654 0.0
C1527 C 0.27256 0.40909 0.84543 0.0
C1528 C 0.23426 0.37498 0.84951 0.0
C1529 C 0.1971 0.34666 0.84444 0.0
H1530 H 0.85879 0.65895 0.68223 0.0
H1531 H 0.84452 0.77582 0.68281 0.0
H1532 H 0.85722 0.78496 0.66722 0.0
H1533 H 0.94566 0.70017 0.66549 0.0
H1534 H 0.92373 0.64674 0.66046 0.0
H1535 H 0.91663 0.65062 0.67189 0.0
H1536 H 0.83197 0.60086 0.67011 0.0
H1537 H 0.83869 0.59713 0.65868 0.0
H1538 H 0.8029 0.61673 0.66258 0.0
H1539 H 0.86204 0.77721 0.65169 0.0
H1540 H 0.86726 0.75732 0.63674 0.0
H1541 H 0.88394 0.64875 0.64583 0.0
C1542 C 0.85904 0.6868 0.67909 0.0
C1543 C 0.85025 0.71638 0.68374 0.0
C1544 C 0.85066 0.75237 0.67939 0.0
C1545 C 0.858 0.75803 0.67053 0.0
C1546 C 0.8653 0.72772 0.66611 0.0
C1547 C 0.86654 0.69315 0.6702 0.0
C1548 C 0.8737 0.66465 0.66376 0.0
C1549 C 0.91755 0.66563 0.66551 0.0
C1550 C 0.83447 0.61703 0.66379 0.0
C1551 C 0.87554 0.68841 0.65544 0.0
C1552 C 0.87033 0.7245 0.65699 0.0
C1553 C 0.86737 0.74977 0.65037 0.0
C1554 C 0.87045 0.73825 0.64189 0.0
C1555 C 0.87732 0.70237 0.64011 0.0
C1556 C 0.87976 0.67704 0.647 0.0
H1557 H 0.401 0.26201 0.64459 0.0
H1558 H 0.31104 0.13419 0.63336 0.0
H1559 H 0.29629 0.10028 0.64785 0.0
H1560 H 0.44887 0.22274 0.66017 0.0
H1561 H 0.45344 0.26107 0.66845 0.0
H1562 H 0.45556 0.27575 0.65724 0.0
H1563 H 0.39058 0.29064 0.65956 0.0
H1564 H 0.38855 0.27641 0.67079 0.0
H1565 H 0.33968 0.24803 0.6642 0.0
H1566 H 0.29173 0.08053 0.66344 0.0
H1567 H 0.29671 0.07574 0.67922 0.0
H1568 H 0.39231 0.21611 0.68027 0.0
C1569 C 0.37802 0.2269 0.64518 0.0
C1570 C 0.35633 0.2008 0.63787 0.0
C1571 C 0.32677 0.15499 0.6389 0.0
C1572 C 0.31866 0.13539 0.64708 0.0
C1573 C 0.34065 0.1621 0.65414 0.0
C1574 C 0.3697 0.20684 0.65328 0.0
C1575 C 0.38929 0.22806 0.6619 0.0
C1576 C 0.43978 0.24807 0.66194 0.0
C1577 C 0.37623 0.26283 0.66425 0.0
C1578 C 0.3669 0.18811 0.66774 0.0
C1579 C 0.33886 0.15048 0.66313 0.0
C1580 C 0.31362 0.1097 0.66712 0.0
C1581 C 0.31668 0.10738 0.67608 0.0
C1582 C 0.34501 0.14555 0.68095 0.0
C1583 C 0.37078 0.18631 0.6767 0.0
H1584 H 0.79452 0.13713 0.64555 0.0
H1585 H 0.91742 0.24303 0.63508 0.0
H1586 H 0.94316 0.27055 0.64977 0.0
H1587 H 0.7834 0.19968 0.6632 0.0
H1588 H 0.76284 0.15424 0.67072 0.0
H1589 H 0.75251 0.1436 0.65933 0.0
H1590 H 0.78828 0.09397 0.6597 0.0
H1591 H 0.79856 0.10431 0.67109 0.0
H1592 H 0.84358 0.1161 0.66387 0.0
H1593 H 0.95735 0.28494 0.66525 0.0
H1594 H 0.96042 0.28494 0.6811 0.0
H1595 H 0.82849 0.17028 0.68194 0.0
C1596 C 0.82668 0.16631 0.64636 0.0
C1597 C 0.85397 0.188 0.63918 0.0
C1598 C 0.89605 0.22576 0.64049 0.0
C1599 C 0.91088 0.24181 0.6488 0.0
C1600 C 0.88333 0.21964 0.65573 0.0
C1601 C 0.84222 0.18265 0.65464 0.0
C1602 C 0.82031 0.16399 0.66327 0.0
C1603 C 0.77721 0.16549 0.66418 0.0
C1604 C 0.81222 0.1168 0.66456 0.0
C1605 C 0.85569 0.19631 0.66936 0.0
C1606 C 0.89162 0.2281 0.66481 0.0
C1607 C 0.92939 0.26043 0.6689 0.0
C1608 C 0.93084 0.26 0.67789 0.0
C1609 C 0.8947 0.22757 0.68271 0.0
C1610 C 0.85633 0.1957 0.6784 0.0
H1611 H 0.36988 0.1755 0.18382 0.0
H1612 H 0.36657 0.29806 0.1825 0.0
H1613 H 0.36722 0.29517 0.16658 0.0
H1614 H 0.44033 0.1945 0.1649 0.0
H1615 H 0.40968 0.13736 0.16166 0.0
H1616 H 0.41337 0.15171 0.17291 0.0
H1617 H 0.32784 0.10911 0.17389 0.0
H1618 H 0.32375 0.09527 0.16262 0.0
H1619 H 0.29636 0.12366 0.16673 0.0
H1620 H 0.36138 0.27551 0.15096 0.0
H1621 H 0.35563 0.24331 0.13649 0.0
H1622 H 0.36289 0.1338 0.14809 0.0
C1623 C 0.37039 0.20227 0.18018 0.0
C1624 C 0.36824 0.23704 0.18435 0.0
C1625 C 0.36807 0.27106 0.17939 0.0
C1626 C 0.36844 0.26972 0.17037 0.0
C1627 C 0.36896 0.23414 0.16645 0.0
C1628 C 0.37037 0.20125 0.17118 0.0
C1629 C 0.36829 0.16541 0.16541 0.0
C1630 C 0.41044 0.16208 0.16627 0.0
C1631 C 0.32659 0.12074 0.16728 0.0
C1632 C 0.36555 0.18334 0.15668 0.0
C1633 C 0.36572 0.22286 0.15743 0.0
C1634 C 0.36165 0.24479 0.15027 0.0
C1635 C 0.35803 0.2261 0.14211 0.0
C1636 C 0.35891 0.18619 0.14121 0.0
C1637 C 0.36249 0.16455 0.1486 0.0
H1638 H 0.86791 0.15871 0.13939 0.0
H1639 H 0.9743 0.29344 0.14272 0.0
H1640 H 0.96754 0.28432 0.15853 0.0
H1641 H 0.8024 0.16309 0.15516 0.0
H1642 H 0.78 0.10747 0.15916 0.0
H1643 H 0.79861 0.12011 0.14816 0.0
H1644 H 0.85204 0.08964 0.15044 0.0
H1645 H 0.83264 0.07554 0.1614 0.0
H1646 H 0.89088 0.11009 0.15927 0.0
H1647 H 0.94036 0.2663 0.17347 0.0
H1648 H 0.90125 0.23604 0.18723 0.0
H1649 H 0.81273 0.11206 0.17451 0.0
C1650 C 0.89121 0.18529 0.14348 0.0
C1651 C 0.92232 0.2264 0.13994 0.0
C1652 C 0.95093 0.26149 0.14541 0.0
C1653 C 0.94715 0.25667 0.15436 0.0
C1654 C 0.9145 0.21657 0.15771 0.0
C1655 C 0.88752 0.1811 0.15247 0.0
C1656 C 0.85209 0.14339 0.15771 0.0
C1657 C 0.80554 0.13293 0.15488 0.0
C1658 C 0.85725 0.10223 0.15718 0.0
C1659 C 0.86299 0.16358 0.16665 0.0
C1660 C 0.89892 0.20591 0.16647 0.0
C1661 C 0.91285 0.23281 0.17376 0.0
C1662 C 0.89014 0.21556 0.1815 0.0
C1663 C 0.85427 0.17174 0.18189 0.0
C1664 C 0.8405 0.14548 0.17438 0.0
H1665 H 0.88869 0.74119 0.14168 0.0
H1666 H 0.74975 0.64087 0.14102 0.0
H1667 H 0.75171 0.62886 0.15668 0.0
H1668 H 0.92293 0.68821 0.15759 0.0
H1669 H 0.96135 0.73963 0.16271 0.0
H1670 H 0.9493 0.73859 0.15138 0.0
H1671 H 0.92675 0.79819 0.15383 0.0
H1672 H 0.93854 0.7993 0.16517 0.0
H1673 H 0.88472 0.78837 0.16168 0.0
H1674 H 0.76854 0.62957 0.17257 0.0
H1675 H 0.79916 0.64382 0.18739 0.0
H1676 H 0.92635 0.74374 0.17743 0.0
C1677 C 0.85874 0.71643 0.14481 0.0
C1678 C 0.81911 0.69195 0.14013 0.0
C1679 C 0.7805 0.66015 0.14448 0.0
C1680 C 0.78129 0.65297 0.15337 0.0
C1681 C 0.82085 0.67802 0.1578 0.0
C1682 C 0.85883 0.70912 0.15366 0.0
C1683 C 0.89669 0.73281 0.15993 0.0
C1684 C 0.93481 0.72428 0.15777 0.0
C1685 C 0.91259 0.78261 0.16017 0.0
C1686 C 0.87402 0.71036 0.16824 0.0
C1687 C 0.83037 0.67866 0.1669 0.0
C1688 C 0.80281 0.65404 0.17369 0.0
C1689 C 0.8205 0.66205 0.18206 0.0
C1690 C 0.86517 0.69439 0.18353 0.0
C1691 C 0.89202 0.71882 0.17651 0.0
H1692 H 0.44884 0.81619 0.04118 0.0
H1693 H 0.58382 0.92061 0.04532 0.0
H1694 H 0.60757 0.86451 0.04662 0.0
H1695 H 0.45266 0.74033 0.05681 0.0
H1696 H 0.41691 0.6922 0.05049 0.0
H1697 H 0.41166 0.74089 0.0498 0.0
H1698 H 0.42215 0.74238 0.03322 0.0
H1699 H 0.42793 0.69401 0.03389 0.0
H1700 H 0.47072 0.74365 0.0289 0.0
H1701 H 0.61652 0.79603 0.04627 0.0
H1702 H 0.60821 0.72098 0.04663 0.0
H1703 H 0.46633 0.66265 0.04417 0.0
C1704 C 0.48334 0.82712 0.04242 0.0
C1705 C 0.51468 0.87244 0.04312 0.0
C1706 C 0.55944 0.88584 0.04482 0.0
C1707 C 0.57316 0.85428 0.0455 0.0
C1708 C 0.54144 0.80966 0.04465 0.0
C1709 C 0.49727 0.79614 0.04335 0.0
C1710 C 0.46929 0.74633 0.04303 0.0
C1711 C 0.43566 0.72893 0.05048 0.0
C1712 C 0.44618 0.7307 0.03424 0.0
C1713 C 0.50461 0.73377 0.04424 0.0
C1714 C 0.54616 0.77065 0.04502 0.0
C1715 C 0.58409 0.76697 0.04579 0.0
C1716 C 0.57919 0.72444 0.04594 0.0
C1717 C 0.53669 0.6866 0.04549 0.0
C1718 C 0.49911 0.69135 0.0446 0.0
H1719 H 0.18272 0.6759 0.04884 0.0
H1720 H 0.16937 0.67799 0.02103 0.0
H1721 H 0.23116 0.75485 0.02062 0.0
H1722 H 0.21628 0.79364 0.05278 0.0
H1723 H 0.25533 0.79972 0.06103 0.0
H1724 H 0.20643 0.74684 0.05932 0.0
H1725 H 0.25521 0.71084 0.05719 0.0
H1726 H 0.30413 0.76355 0.05887 0.0
H1727 H 0.2982 0.73287 0.04913 0.0
H1728 H 0.2981 0.82911 0.023 0.0
H1729 H 0.36656 0.89469 0.02799 0.0
H1730 H 0.33798 0.84429 0.05422 0.0
C1731 C 0.19205 0.69296 0.0427 0.0
C1732 C 0.17085 0.67107 0.03497 0.0
C1733 C 0.1849 0.69414 0.02704 0.0
C1734 C 0.21994 0.73788 0.02673 0.0
C1735 C 0.24078 0.75824 0.03443 0.0
C1736 C 0.22737 0.73662 0.04227 0.0
C1737 C 0.25771 0.76484 0.04949 0.0
C1738 C 0.23242 0.77698 0.05604 0.0
C1739 C 0.28014 0.74164 0.05393 0.0
C1740 C 0.29078 0.80513 0.04444 0.0
C1741 C 0.28004 0.8009 0.03578 0.0
C1742 C 0.30659 0.83303 0.02978 0.0
C1743 C 0.34544 0.87023 0.03268 0.0
C1744 C 0.35766 0.87487 0.0415 0.0
C1745 C 0.32948 0.84201 0.04745 0.0
H1746 H 0.20923 0.53954 0.03542 0.0
H1747 H 0.17899 0.48798 0.06153 0.0
H1748 H 0.2473 0.48308 0.0618 0.0
H1749 H 0.25961 0.47607 0.02786 0.0
H1750 H 0.30186 0.52162 0.02179 0.0
H1751 H 0.24882 0.51754 0.02341 0.0
H1752 H 0.28738 0.59618 0.03006 0.0
H1753 H 0.34046 0.60048 0.02846 0.0
H1754 H 0.32445 0.60836 0.03907 0.0
H1755 H 0.32053 0.4865 0.05939 0.0
H1756 H 0.39435 0.50108 0.05474 0.0
H1757 H 0.37767 0.55293 0.03041 0.0
C1758 C 0.21657 0.5264 0.04113 0.0
C1759 C 0.18859 0.51354 0.04842 0.0
C1760 C 0.19992 0.49774 0.05586 0.0
C1761 C 0.23857 0.49477 0.05607 0.0
C1762 C 0.26576 0.50819 0.04881 0.0
C1763 C 0.2554 0.52396 0.0415 0.0
C1764 C 0.29169 0.5392 0.0348 0.0
C1765 C 0.27445 0.51197 0.02647 0.0
C1766 C 0.31219 0.589 0.03299 0.0
C1767 C 0.32397 0.52931 0.03946 0.0
C1768 C 0.30835 0.51122 0.04751 0.0
C1769 C 0.33298 0.50042 0.05307 0.0
C1770 C 0.37485 0.50875 0.05037 0.0
C1771 C 0.39179 0.52795 0.04219 0.0
C1772 C 0.36564 0.53793 0.03667 0.0
H1773 H 0.85417 0.50267 0.46045 0.0
H1774 H 0.92108 0.55809 0.43618 0.0
H1775 H 0.8662 0.58108 0.43279 0.0
H1776 H 0.74798 0.4562 0.45244 0.0
H1777 H 0.72438 0.4668 0.46185 0.0
H1778 H 0.77237 0.46071 0.46292 0.0
H1779 H 0.8147 0.53742 0.4703 0.0
H1780 H 0.76669 0.54373 0.46925 0.0
H1781 H 0.81903 0.58523 0.46491 0.0
H1782 H 0.79881 0.58842 0.43117 0.0
H1783 H 0.72425 0.58006 0.43143 0.0
H1784 H 0.70197 0.52171 0.45694 0.0
C1785 C 0.85799 0.52056 0.45451 0.0
C1786 C 0.89207 0.52873 0.44859 0.0
C1787 C 0.89538 0.55162 0.44082 0.0
C1788 C 0.86444 0.56493 0.43886 0.0
C1789 C 0.83067 0.55542 0.44477 0.0
C1790 C 0.82744 0.53399 0.45246 0.0
C1791 C 0.78587 0.52409 0.45734 0.0
C1792 C 0.7559 0.47399 0.45871 0.0
C1793 C 0.79727 0.54913 0.46597 0.0
C1794 C 0.76544 0.54213 0.45108 0.0
C1795 C 0.79203 0.5604 0.4439 0.0
C1796 C 0.77822 0.57515 0.43684 0.0
C1797 C 0.73585 0.5702 0.43704 0.0
C1798 C 0.70792 0.55098 0.44427 0.0
C1799 C 0.72332 0.5378 0.45146 0.0
H1800 H 0.51975 0.20761 0.4343 0.0
H1801 H 0.49455 0.15999 0.46075 0.0
H1802 H 0.49236 0.2265 0.4652 0.0
H1803 H 0.59173 0.31721 0.43876 0.0
H1804 H 0.57218 0.34008 0.43057 0.0
H1805 H 0.5657 0.28605 0.42913 0.0
H1806 H 0.48133 0.25282 0.42706 0.0
H1807 H 0.48759 0.30694 0.42845 0.0
H1808 H 0.44974 0.26176 0.4352 0.0
H1809 H 0.50256 0.30126 0.46719 0.0
H1810 H 0.52161 0.37925 0.46653 0.0
H1811 H 0.53848 0.37913 0.43878 0.0
C1812 C 0.51274 0.2107 0.44099 0.0
C1813 C 0.50727 0.17849 0.44717 0.0
C1814 C 0.49861 0.184 0.45588 0.0
C1815 C 0.49724 0.22169 0.45848 0.0
C1816 C 0.50389 0.2533 0.45228 0.0
C1817 C 0.51087 0.24805 0.44369 0.0
C1818 C 0.51969 0.28842 0.43845 0.0
C1819 C 0.56502 0.30915 0.43397 0.0
C1820 C 0.48236 0.27678 0.4319 0.0
C1821 C 0.51902 0.31804 0.44553 0.0
C1822 C 0.50915 0.29675 0.45343 0.0
C1823 C 0.5095 0.31805 0.46103 0.0
C1824 C 0.52059 0.36245 0.46059 0.0
C1825 C 0.5313 0.38519 0.4526 0.0
C1826 C 0.52976 0.36239 0.44496 0.0
H1827 H 0.83379 0.33046 0.43392 0.0
H1828 H 0.89014 0.35477 0.4597 0.0
H1829 H 0.82659 0.28545 0.46474 0.0
H1830 H 0.72432 0.28899 0.44012 0.0
H1831 H 0.70024 0.24678 0.43195 0.0
H1832 H 0.75254 0.29581 0.43001 0.0
H1833 H 0.78835 0.24783 0.42679 0.0
H1834 H 0.73605 0.19848 0.4287 0.0
H1835 H 0.78437 0.2079 0.43466 0.0
H1836 H 0.75449 0.2189 0.46747 0.0
H1837 H 0.6777 0.15723 0.46766 0.0
H1838 H 0.6672 0.17342 0.44012 0.0
C1839 C 0.83313 0.32076 0.44058 0.0
C1840 C 0.86704 0.34813 0.4464 0.0
C1841 C 0.8647 0.33443 0.4551 0.0
C1842 C 0.82875 0.29498 0.45803 0.0
C1843 C 0.79554 0.26919 0.45219 0.0
C1844 C 0.79743 0.28117 0.44363 0.0
C1845 C 0.75592 0.24844 0.43884 0.0
C1846 C 0.73184 0.27139 0.43501 0.0
C1847 C 0.76683 0.22423 0.43183 0.0
C1848 C 0.72974 0.2174 0.44615 0.0
C1849 C 0.7536 0.22981 0.45376 0.0
C1850 C 0.73568 0.2083 0.46153 0.0
C1851 C 0.69198 0.1734 0.46158 0.0
C1852 C 0.6666 0.16028 0.4539 0.0
C1853 C 0.68607 0.18217 0.44606 0.0
H1854 H 0.51471 0.32633 0.93453 0.0
H1855 H 0.50563 0.36385 0.96083 0.0
H1856 H 0.50668 0.29781 0.96622 0.0
H1857 H 0.44561 0.20507 0.93799 0.0
H1858 H 0.47887 0.19303 0.93082 0.0
H1859 H 0.47327 0.24102 0.92898 0.0
H1860 H 0.55845 0.29071 0.92922 0.0
H1861 H 0.56437 0.24304 0.93111 0.0
H1862 H 0.58906 0.28912 0.93847 0.0
H1863 H 0.51708 0.23266 0.96885 0.0
H1864 H 0.5328 0.17115 0.96854 0.0
H1865 H 0.53238 0.17339 0.94055 0.0
C1866 C 0.51207 0.32022 0.94142 0.0
C1867 C 0.50992 0.35033 0.94725 0.0
C1868 C 0.5069 0.34121 0.95622 0.0
C1869 C 0.50755 0.30375 0.95935 0.0
C1870 C 0.51055 0.27525 0.95344 0.0
C1871 C 0.5122 0.28268 0.94465 0.0
C1872 C 0.5171 0.2478 0.93971 0.0
C1873 C 0.47628 0.22009 0.93404 0.0
C1874 C 0.55979 0.26894 0.93431 0.0
C1875 C 0.51956 0.2205 0.9471 0.0
C1876 C 0.51542 0.23681 0.95496 0.0
C1877 C 0.51953 0.2191 0.96273 0.0
C1878 C 0.52853 0.18417 0.96249 0.0
C1879 C 0.53318 0.16697 0.95452 0.0
C1880 C 0.52792 0.18506 0.94673 0.0
H1881 H 0.86789 0.35934 0.95739 0.0
H1882 H 0.90575 0.39667 0.9307 0.0
H1883 H 0.84367 0.32501 0.92593 0.0
H1884 H 0.82902 0.23905 0.95458 0.0
H1885 H 0.78455 0.22369 0.96216 0.0
H1886 H 0.83554 0.2752 0.96345 0.0
H1887 H 0.79169 0.31722 0.96346 0.0
H1888 H 0.74076 0.26605 0.96207 0.0
H1889 H 0.75595 0.31049 0.95448 0.0
H1890 H 0.77119 0.25465 0.92407 0.0
H1891 H 0.69726 0.18803 0.92533 0.0
H1892 H 0.70882 0.19594 0.95324 0.0
C1893 C 0.86383 0.35198 0.95055 0.0
C1894 C 0.89162 0.38346 0.94442 0.0
C1895 C 0.88506 0.37282 0.93552 0.0
C1896 C 0.84983 0.33225 0.93275 0.0
C1897 C 0.82209 0.30251 0.93897 0.0
C1898 C 0.8292 0.31155 0.94769 0.0
C1899 C 0.79309 0.27534 0.95305 0.0
C1900 C 0.81167 0.25193 0.95864 0.0
C1901 C 0.76896 0.29337 0.95858 0.0
C1902 C 0.76364 0.24539 0.94597 0.0
C1903 C 0.78096 0.26143 0.93789 0.0
C1904 C 0.75775 0.24123 0.93036 0.0
C1905 C 0.71574 0.20364 0.93114 0.0
C1906 C 0.69763 0.18675 0.93938 0.0
C1907 C 0.72222 0.20767 0.94685 0.0
H1908 H 0.65462 0.48367 0.93838 0.0
H1909 H 0.70577 0.61038 0.95124 0.0
H1910 H 0.78068 0.61966 0.95103 0.0
H1911 H 0.72039 0.44943 0.9498 0.0
H1912 H 0.72853 0.42212 0.94071 0.0
H1913 H 0.67942 0.42664 0.94136 0.0
H1914 H 0.69682 0.46481 0.92639 0.0
H1915 H 0.7459 0.46023 0.92567 0.0
H1916 H 0.74977 0.51347 0.92456 0.0
H1917 H 0.84907 0.61316 0.9502 0.0
H1918 H 0.90668 0.59241 0.94838 0.0
H1919 H 0.81092 0.47026 0.93596 0.0
C1920 C 0.68166 0.51376 0.94102 0.0
C1921 C 0.67434 0.54648 0.94477 0.0
C1922 C 0.71057 0.58499 0.94829 0.0
C1923 C 0.75324 0.59054 0.94821 0.0
C1924 C 0.75914 0.55732 0.94459 0.0
C1925 C 0.7244 0.51977 0.94102 0.0
C1926 C 0.73929 0.48828 0.93783 0.0
C1927 C 0.71549 0.44401 0.94272 0.0
C1928 C 0.73255 0.48131 0.92803 0.0
C1929 C 0.78787 0.51403 0.94015 0.0
C1930 C 0.79862 0.55368 0.94407 0.0
C1931 C 0.84116 0.58238 0.94707 0.0
C1932 C 0.87361 0.57025 0.94602 0.0
C1933 C 0.86338 0.52988 0.94197 0.0
C1934 C 0.81992 0.50159 0.93898 0.0
H1935 H 0.31687 0.47287 0.55157 0.0
H1936 H 0.41202 0.57873 0.53518 0.0
H1937 H 0.35724 0.60152 0.5321 0.0
H1938 H 0.22084 0.44652 0.53803 0.0
H1939 H 0.18388 0.43465 0.54703 0.0
H1940 H 0.23028 0.42566 0.54798 0.0
H1941 H 0.25728 0.47618 0.56144 0.0
H1942 H 0.21112 0.48552 0.5605 0.0
H1943 H 0.26672 0.5318 0.56069 0.0
H1944 H 0.29404 0.61374 0.53068 0.0
H1945 H 0.22402 0.61442 0.53081 0.0
H1946 H 0.1673 0.50184 0.54821 0.0
C1947 C 0.32608 0.50076 0.54732 0.0
C1948 C 0.36895 0.52396 0.54362 0.0
C1949 C 0.37953 0.56019 0.53807 0.0
C1950 C 0.34862 0.57355 0.53628 0.0
C1951 C 0.30697 0.55027 0.54004 0.0
C1952 C 0.29533 0.5145 0.54541 0.0
C1953 C 0.24779 0.49527 0.54848 0.0
C1954 C 0.219 0.4477 0.54518 0.0
C1955 C 0.24563 0.49734 0.55837 0.0
C1956 C 0.23509 0.52654 0.54415 0.0
C1957 C 0.26986 0.55765 0.53927 0.0
C1958 C 0.26653 0.58955 0.53447 0.0
C1959 C 0.22649 0.58955 0.53457 0.0
C1960 C 0.19014 0.55818 0.5395 0.0
C1961 C 0.19465 0.52643 0.54444 0.0
H1962 H 0.54305 0.66908 0.55103 0.0
H1963 H 0.589 0.68731 0.52454 0.0
H1964 H 0.6037 0.76408 0.52487 0.0
H1965 H 0.4826 0.7192 0.54865 0.0
H1966 H 0.49346 0.74526 0.55909 0.0
H1967 H 0.49674 0.69592 0.55767 0.0
H1968 H 0.57711 0.73603 0.56346 0.0
H1969 H 0.57391 0.78556 0.565 0.0
H1970 H 0.6177 0.78723 0.55856 0.0
H1971 H 0.60077 0.83216 0.52704 0.0
H1972 H 0.58142 0.88868 0.53098 0.0
H1973 H 0.53567 0.82629 0.55601 0.0
C1974 C 0.55812 0.68994 0.54544 0.0
C1975 C 0.56563 0.67276 0.5378 0.0
C1976 C 0.58357 0.70023 0.53048 0.0
C1977 C 0.59215 0.74384 0.53062 0.0
C1978 C 0.58262 0.7593 0.53813 0.0
C1979 C 0.5663 0.73338 0.54545 0.0
C1980 C 0.55286 0.75567 0.55222 0.0
C1981 C 0.5035 0.72732 0.55453 0.0
C1982 C 0.58216 0.76679 0.56029 0.0
C1983 C 0.56212 0.79707 0.54739 0.0
C1984 C 0.5801 0.79889 0.53935 0.0
C1985 C 0.58768 0.83175 0.53338 0.0
C1986 C 0.57627 0.86349 0.53566 0.0
C1987 C 0.55716 0.86182 0.54381 0.0
C1988 C 0.55078 0.82866 0.54979 0.0
H1989 H 0.38744 0.86193 0.55051 0.0
H1990 H 0.36614 0.91241 0.52645 0.0
H1991 H 0.28849 0.85186 0.52629 0.0
H1992 H 0.32572 0.74998 0.54508 0.0
H1993 H 0.30367 0.73134 0.55575 0.0
H1994 H 0.3561 0.78106 0.55442 0.0
H1995 H 0.32733 0.82501 0.56313 0.0
H1996 H 0.2748 0.77526 0.56451 0.0
H1997 H 0.27714 0.82363 0.5598 0.0
H1998 H 0.21492 0.78164 0.52808 0.0
H1999 H 0.15134 0.70866 0.53192 0.0
H2000 H 0.22117 0.70536 0.55485 0.0
C2001 C 0.36628 0.86086 0.54529 0.0
C2002 C 0.38292 0.89212 0.53851 0.0
C2003 C 0.35417 0.88901 0.53174 0.0
C2004 C 0.30997 0.85472 0.53159 0.0
C2005 C 0.29492 0.82393 0.53828 0.0
C2006 C 0.32217 0.82688 0.54504 0.0
C2007 C 0.29877 0.78825 0.55118 0.0
C2008 C 0.32248 0.76106 0.55163 0.0
C2009 C 0.29424 0.80399 0.56019 0.0
C2010 C 0.25434 0.76274 0.54676 0.0
C2011 C 0.25261 0.78384 0.53934 0.0
C2012 C 0.21569 0.76514 0.53394 0.0
C2013 C 0.17977 0.72368 0.53616 0.0
C2014 C 0.18109 0.70147 0.54372 0.0
C2015 C 0.21877 0.72171 0.5491 0.0
H2016 H 0.17238 0.03258 0.38901 0.0
H2017 H 0.25411 0.04072 0.36719 0.0
H2018 H 0.26662 0.11517 0.36383 0.0
H2019 H 0.11928 0.08381 0.37894 0.0
H2020 H 0.11805 0.1134 0.38836 0.0
H2021 H 0.11857 0.06237 0.38956 0.0
H2022 H 0.1883 0.1018 0.3992 0.0
H2023 H 0.188 0.15305 0.39804 0.0
H2024 H 0.23666 0.1503 0.3952 0.0
H2025 H 0.26487 0.18522 0.362 0.0
H2026 H 0.25006 0.2473 0.36192 0.0
H2027 H 0.17107 0.19588 0.38512 0.0
C2028 C 0.19352 0.05029 0.38361 0.0
C2029 C 0.21239 0.03072 0.37838 0.0
C2030 C 0.23941 0.05493 0.37131 0.0
C2031 C 0.24677 0.09733 0.36936 0.0
C2032 C 0.2272 0.11535 0.37456 0.0
C2033 C 0.20133 0.0928 0.38158 0.0
C2034 C 0.18243 0.11895 0.38586 0.0
C2035 C 0.13158 0.09309 0.38566 0.0
C2036 C 0.19991 0.13178 0.39512 0.0
C2037 C 0.20091 0.15925 0.38002 0.0
C2038 C 0.22681 0.15647 0.37358 0.0
C2039 C 0.24524 0.18812 0.36708 0.0
C2040 C 0.23657 0.22324 0.36709 0.0
C2041 C 0.20989 0.22675 0.37357 0.0
C2042 C 0.19242 0.19462 0.3802 0.0
H2043 H 0.03036 0.19849 0.36958 0.0
H2044 H 0.01401 0.22457 0.39629 0.0
H2045 H 0.94188 0.15567 0.39677 0.0
H2046 H 0.91175 0.14477 0.36334 0.0
H2047 H 0.91564 0.10473 0.35662 0.0
H2048 H 0.96307 0.159 0.35801 0.0
H2049 H 0.00906 0.12368 0.36321 0.0
H2050 H 0.96183 0.06941 0.36188 0.0
H2051 H 0.98946 0.08568 0.37218 0.0
H2052 H 0.87492 0.08068 0.39479 0.0
H2053 H 0.81867 0.00493 0.39053 0.0
H2054 H 0.8792 0.0268 0.36521 0.0
C2055 C 0.01101 0.19031 0.37545 0.0
C2056 C 0.02759 0.21713 0.38288 0.0
C2057 C 1.00185 0.20464 0.39051 0.0
C2058 C 0.96077 0.1656 0.39084 0.0
C2059 C 0.94583 0.13927 0.38348 0.0
C2060 C 0.97007 0.15114 0.37591 0.0
C2061 C 0.94829 0.1152 0.36916 0.0
C2062 C 0.93382 0.13193 0.36132 0.0
C2063 C 0.97899 0.09745 0.36645 0.0
C2064 C 0.90869 0.08089 0.37418 0.0
C2065 C 0.90755 0.09564 0.38239 0.0
C2066 C 0.87517 0.06896 0.38834 0.0
C2067 C 0.84335 0.02594 0.38587 0.0
C2068 C 0.84434 0.00986 0.37753 0.0
C2069 C 0.87724 0.0381 0.37161 0.0
H2070 H 0.87086 0.86308 0.36863 0.0
H2071 H 0.85338 0.83524 0.39609 0.0
H2072 H 0.92127 0.83 0.39639 0.0
H2073 H 0.91898 0.79168 0.36361 0.0
H2074 H 0.95728 0.83042 0.35588 0.0
H2075 H 0.90449 0.82684 0.35758 0.0
H2076 H 0.94401 0.91069 0.36094 0.0
H2077 H 0.99682 0.91451 0.35926 0.0
H2078 H 0.98537 0.93278 0.36931 0.0
H2079 H 0.99389 0.83325 0.394 0.0
H2080 H 0.0671 0.84713 0.38915 0.0
H2081 H 0.03878 0.87452 0.36331 0.0
C2082 C 0.88081 0.8549 0.37466 0.0
C2083 C 0.85664 0.84932 0.38233 0.0
C2084 C 0.8713 0.83962 0.39013 0.0
C2085 C 0.90977 0.83639 0.39037 0.0
C2086 C 0.93335 0.84293 0.38274 0.0
C2087 C 0.91946 0.85192 0.37502 0.0
C2088 C 0.95263 0.86073 0.3679 0.0
C2089 C 0.93211 0.82531 0.36082 0.0
C2090 C 0.97078 0.90745 0.36414 0.0
C2091 C 0.98789 0.85665 0.37287 0.0
C2092 C 0.97576 0.84561 0.38139 0.0
C2093 C 0.00357 0.84147 0.38732 0.0
C2094 C 0.04513 0.8494 0.3845 0.0
C2095 C 0.05878 0.86183 0.37585 0.0
C2096 C 0.02934 0.86486 0.36996 0.0
H2097 H 0.4102 0.88637 0.76737 0.0
H2098 H 0.36719 0.88412 0.79375 0.0
H2099 H 0.43662 0.89079 0.79911 0.0
H2100 H 0.45777 0.82056 0.77074 0.0
H2101 H 0.50407 0.85061 0.76359 0.0
H2102 H 0.45338 0.85099 0.76174 0.0
H2103 H 0.49611 0.93662 0.76216 0.0
H2104 H 0.54705 0.93649 0.76404 0.0
H2105 H 0.52967 0.96472 0.77143 0.0
H2106 H 0.507 0.89155 0.80172 0.0
H2107 H 0.57256 0.88258 0.80143 0.0
H2108 H 0.57079 0.88371 0.7734 0.0
C2109 C 0.41573 0.88804 0.77427 0.0
C2110 C 0.38328 0.88494 0.78013 0.0
C2111 C 0.39158 0.8867 0.78912 0.0
C2112 C 0.43104 0.89067 0.79224 0.0
C2113 C 0.46213 0.89325 0.7863 0.0
C2114 C 0.45509 0.89209 0.77751 0.0
C2115 C 0.49274 0.89246 0.77256 0.0
C2116 C 0.47597 0.85119 0.76682 0.0
C2117 C 0.51787 0.93511 0.76723 0.0
C2118 C 0.52085 0.89179 0.77996 0.0
C2119 C 0.50301 0.89328 0.78782 0.0
C2120 C 0.52165 0.89092 0.79561 0.0
C2121 C 0.55895 0.88582 0.79536 0.0
C2122 C 0.57695 0.88255 0.78739 0.0
C2123 C 0.55817 0.88665 0.77959 0.0
H2124 H 0.2223 0.70234 0.79118 0.0
H2125 H 0.17636 0.72526 0.76671 0.0
H2126 H 0.15232 0.64836 0.76235 0.0
H2127 H 0.26663 0.63817 0.78297 0.0
H2128 H 0.25052 0.60233 0.79227 0.0
H2129 H 0.26082 0.65792 0.79336 0.0
H2130 H 0.1822 0.62606 0.8 0.0
H2131 H 0.17204 0.57054 0.79853 0.0
H2132 H 0.13476 0.58667 0.79391 0.0
H2133 H 0.14001 0.57108 0.76013 0.0
H2134 H 0.13975 0.50006 0.7603 0.0
H2135 H 0.19181 0.527 0.78637 0.0
C2136 C 0.20659 0.6911 0.78495 0.0
C2137 C 0.20117 0.71999 0.7793 0.0
C2138 C 0.18077 0.70385 0.77117 0.0
C2139 C 0.16696 0.66015 0.76864 0.0
C2140 C 0.17344 0.63281 0.77433 0.0
C2141 C 0.19257 0.64765 0.78233 0.0
C2142 C 0.19789 0.61252 0.78708 0.0
C2143 C 0.24688 0.62872 0.78902 0.0
C2144 C 0.17005 0.5981 0.79537 0.0
C2145 C 0.17962 0.57583 0.78042 0.0
C2146 C 0.1655 0.58809 0.77312 0.0
C2147 C 0.15028 0.5609 0.76587 0.0
C2148 C 0.15021 0.5206 0.76602 0.0
C2149 C 0.16494 0.50761 0.7734 0.0
C2150 C 0.17908 0.53537 0.78074 0.0
H2151 H 0.54182 0.64163 0.77977 0.0
H2152 H 0.52322 0.74614 0.79056 0.0
H2153 H 0.44296 0.69595 0.79078 0.0
H2154 H 0.44861 0.59382 0.7661 0.0
H2155 H 0.4336 0.53719 0.76818 0.0
H2156 H 0.49039 0.58035 0.76915 0.0
H2157 H 0.49296 0.55647 0.78488 0.0
H2158 H 0.43639 0.51271 0.78391 0.0
H2159 H 0.4522 0.55242 0.79252 0.0
H2160 H 0.36564 0.63742 0.78919 0.0
H2161 H 0.29391 0.56938 0.78745 0.0
H2162 H 0.3601 0.5007 0.77787 0.0
C2163 C 0.52084 0.65366 0.7823 0.0
C2164 C 0.53887 0.69782 0.78515 0.0
C2165 C 0.51036 0.7124 0.78841 0.0
C2166 C 0.46461 0.68424 0.7885 0.0
C2167 C 0.44786 0.6414 0.78544 0.0
C2168 C 0.4749 0.62569 0.78256 0.0
C2169 C 0.44786 0.57769 0.7798 0.0
C2170 C 0.45559 0.57196 0.77024 0.0
C2171 C 0.45795 0.54807 0.78562 0.0
C2172 C 0.40142 0.56949 0.78133 0.0
C2173 C 0.4025 0.60686 0.7846 0.0
C2174 C 0.36428 0.60783 0.78669 0.0
C2175 C 0.32376 0.56911 0.78567 0.0
C2176 C 0.32166 0.53006 0.78254 0.0
C2177 C 0.3609 0.53038 0.78018 0.0
H2178 H 0.2634 0.57261 0.28679 0.0
H2179 H 0.15349 0.46545 0.2732 0.0
H2180 H 0.12145 0.5138 0.2706 0.0
H2181 H 0.20348 0.61832 0.2972 0.0
H2182 H 0.24678 0.67481 0.29575 0.0
H2183 H 0.26039 0.63151 0.29666 0.0
H2184 H 0.30192 0.65519 0.28205 0.0
H2185 H 0.28869 0.69873 0.28113 0.0
H2186 H 0.27352 0.6586 0.27261 0.0
H2187 H 0.10324 0.57541 0.26902 0.0
H2188 H 0.10064 0.64503 0.2685 0.0
H2189 H 0.22152 0.71053 0.2835 0.0
C2190 C 0.23238 0.55907 0.28332 0.0
C2191 C 0.21077 0.51509 0.28023 0.0
C2192 C 0.17061 0.49901 0.27562 0.0
C2193 C 0.15214 0.5262 0.27414 0.0
C2194 C 0.17435 0.56941 0.27728 0.0
C2195 C 0.2137 0.58576 0.28175 0.0
C2196 C 0.23195 0.63379 0.28419 0.0
C2197 C 0.23585 0.63994 0.29403 0.0
C2198 C 0.27665 0.66331 0.27973 0.0
C2199 C 0.19627 0.64178 0.28055 0.0
C2200 C 0.16352 0.60441 0.27651 0.0
C2201 C 0.12846 0.60468 0.27223 0.0
C2202 C 0.12722 0.64429 0.27198 0.0
C2203 C 0.16043 0.68284 0.27608 0.0
C2204 C 0.19504 0.68125 0.2805 0.0
H2205 H 0.3758 0.53611 0.2872 0.0
H2206 H 0.40356 0.50651 0.26153 0.0
H2207 H 0.47648 0.57485 0.26184 0.0
H2208 H 0.41919 0.64833 0.28378 0.0
H2209 H 0.44113 0.66482 0.29452 0.0
H2210 H 0.39416 0.6109 0.29272 0.0
H2211 H 0.43586 0.57482 0.29981 0.0
H2212 H 0.4831 0.62875 0.30164 0.0
H2213 H 0.48938 0.58772 0.29575 0.0
H2214 H 0.54328 0.64962 0.26448 0.0
H2215 H 0.59692 0.72585 0.26895 0.0
H2216 H 0.52396 0.70602 0.29278 0.0
C2217 C 0.39756 0.54339 0.28172 0.0
C2218 C 0.38421 0.51586 0.27437 0.0
C2219 C 0.41327 0.5271 0.26725 0.0
C2220 C 0.45478 0.56571 0.26738 0.0
C2221 C 0.4666 0.59253 0.27468 0.0
C2222 C 0.43878 0.5818 0.28171 0.0
C2223 C 0.4573 0.6179 0.28845 0.0
C2224 C 0.4261 0.63658 0.28995 0.0
C2225 C 0.46699 0.60129 0.29691 0.0
C2226 C 0.49948 0.65118 0.28402 0.0
C2227 C 0.50464 0.63576 0.27615 0.0
C2228 C 0.5399 0.66182 0.27069 0.0
C2229 C 0.57019 0.70506 0.27329 0.0
C2230 C 0.56467 0.72182 0.28123 0.0
C2231 C 0.52933 0.69408 0.28671 0.0
H2232 H 0.36916 0.87612 0.28938 0.0
H2233 H 0.31418 0.84152 0.26355 0.0
H2234 H 0.38262 0.84447 0.25848 0.0
H2235 H 0.48468 0.95218 0.28236 0.0
H2236 H 0.50756 0.93573 0.29108 0.0
H2237 H 0.4558 0.93471 0.29251 0.0
H2238 H 0.41844 0.85219 0.29692 0.0
H2239 H 0.46988 0.85284 0.29544 0.0
H2240 H 0.4212 0.81311 0.28971 0.0
H2241 H 0.4539 0.844 0.25653 0.0
H2242 H 0.52438 0.84389 0.25768 0.0
H2243 H 0.53415 0.88076 0.28468 0.0
C2244 C 0.37181 0.86993 0.28262 0.0
C2245 C 0.33626 0.85867 0.27686 0.0
C2246 C 0.34102 0.85059 0.26808 0.0
C2247 C 0.37977 0.85208 0.26513 0.0
C2248 C 0.41379 0.86238 0.27102 0.0
C2249 C 0.41048 0.87179 0.27955 0.0
C2250 C 0.45134 0.88064 0.2846 0.0
C2251 C 0.47632 0.92867 0.28783 0.0
C2252 C 0.43948 0.84772 0.29211 0.0
C2253 C 0.47735 0.87297 0.27766 0.0
C2254 C 0.45528 0.86285 0.26985 0.0
C2255 C 0.47179 0.85252 0.26258 0.0
C2256 C 0.51185 0.85245 0.26331 0.0
C2257 C 0.53504 0.86259 0.27125 0.0
C2258 C 0.51755 0.87335 0.27849 0.0
H2259 H 0.0267 0.86827 0.87083 0.0
H2260 H 0.97738 0.77416 0.89194 0.0
H2261 H 0.90739 0.7762 0.89182 0.0
H2262 H 0.98433 0.93437 0.87893 0.0
H2263 H 0.9721 0.9482 0.86847 0.0
H2264 H 0.0161 0.9358 0.86965 0.0
H2265 H 0.97987 0.87439 0.85806 0.0
H2266 H 0.93592 0.88685 0.85679 0.0
H2267 H 0.92315 0.83133 0.85936 0.0
H2268 H 0.8442 0.79204 0.88981 0.0
H2269 H 0.79366 0.82027 0.88614 0.0
H2270 H 0.88654 0.90574 0.86669 0.0
C2271 C 1.00074 0.84722 0.87528 0.0
C2272 C 0.00705 0.82043 0.8813 0.0
C2273 C 0.97294 0.79457 0.88723 0.0
C2274 C 0.93316 0.79557 0.88721 0.0
C2275 C 0.92834 0.82305 0.88129 0.0
C2276 C 0.96133 0.84848 0.87545 0.0
C2277 C 0.94956 0.87775 0.8702 0.0
C2278 C 0.98247 0.92693 0.87192 0.0
C2279 C 0.94695 0.8669 0.86053 0.0
C2280 C 0.90445 0.86436 0.87388 0.0
C2281 C 0.89273 0.83285 0.88028 0.0
C2282 C 0.85297 0.81652 0.88477 0.0
C2283 C 0.82451 0.8328 0.88266 0.0
C2284 C 0.83598 0.86505 0.8761 0.0
C2285 C 0.87651 0.88081 0.87168 0.0
H2286 H 0.26663 0.21504 0.8696 0.0
H2287 H 0.14728 0.18607 0.88359 0.0
H2288 H 0.13244 0.11049 0.88634 0.0
H2289 H 0.22384 0.11277 0.85911 0.0
H2290 H 0.27329 0.10884 0.85999 0.0
H2291 H 0.27719 0.16222 0.85977 0.0
H2292 H 0.32001 0.18247 0.87425 0.0
H2293 H 0.31623 0.12904 0.87452 0.0
H2294 H 0.29605 0.14686 0.88348 0.0
H2295 H 0.12784 0.03727 0.88698 0.0
H2296 H 0.13207 0.96963 0.88495 0.0
H2297 H 0.25347 0.04409 0.87031 0.0
C2298 C 0.23769 0.19297 0.87334 0.0
C2299 C 0.20824 0.20671 0.87639 0.0
C2300 C 0.17051 0.17658 0.88119 0.0
C2301 C 0.16179 0.1335 0.88282 0.0
C2302 C 0.19118 0.12091 0.87966 0.0
C2303 C 0.22841 0.14965 0.87503 0.0
C2304 C 0.25337 0.12679 0.87203 0.0
C2305 C 0.25711 0.1277 0.86214 0.0
C2306 C 0.29913 0.14753 0.87633 0.0
C2307 C 0.22327 0.08031 0.87538 0.0
C2308 C 0.18814 0.07804 0.87992 0.0
C2309 C 0.15538 0.03867 0.8835 0.0
C2310 C 0.15817 1.00037 0.88231 0.0
C2311 C 0.19316 1.00142 0.87747 0.0
C2312 C 0.22641 0.04218 0.87406 0.0
H2313 H 0.86187 0.02997 0.86667 0.0
H2314 H 0.82953 0.05347 0.89242 0.0
H2315 H 0.89561 0.12796 0.89235 0.0
H2316 H 0.97558 0.07887 0.87025 0.0
H2317 H 0.99196 0.10237 0.85961 0.0
H2318 H 0.93909 0.05352 0.86119 0.0
H2319 H 0.90022 0.09277 0.85426 0.0
H2320 H 0.95308 0.14186 0.85266 0.0
H2321 H 0.9102 0.14495 0.85855 0.0
H2322 H 0.96817 0.19783 0.88993 0.0
H2323 H 0.04347 0.25537 0.88572 0.0
H2324 H 0.03012 0.18555 0.86175 0.0
C2325 C 0.86814 0.05127 0.87219 0.0
C2326 C 0.84029 0.03615 0.87951 0.0
C2327 C 0.85031 0.06447 0.88673 0.0
C2328 C 0.88768 0.10692 0.88673 0.0
C2329 C 0.91495 0.12061 0.87949 0.0
C2330 C 0.90573 0.09359 0.87236 0.0
C2331 C 0.94249 0.11465 0.86573 0.0
C2332 C 0.96352 0.08563 0.86411 0.0
C2333 C 0.92547 0.12412 0.8573 0.0
C2334 C 0.97424 0.15718 0.87034 0.0
C2335 C 0.9574 0.16037 0.8782 0.0
C2336 C 0.98151 0.19588 0.88375 0.0
C2337 C 0.02427 0.22852 0.88129 0.0
C2338 C 0.0428 0.22518 0.87339 0.0
C2339 C 0.01691 0.18934 0.8678 0.0
H2340 H 0.86962 0.38731 0.72295 0.0
H2341 H 0.89458 0.36178 0.69672 0.0
H2342 H 0.89812 0.43076 0.69192 0.0
H2343 H 0.79943 0.42779 0.71803 0.0
H2344 H 0.81995 0.4707 0.72609 0.0
H2345 H 0.82459 0.42215 0.72776 0.0
H2346 H 0.90913 0.47106 0.72988 0.0
H2347 H 0.90475 0.5199 0.72825 0.0
H2348 H 0.94178 0.51048 0.72166 0.0
H2349 H 0.89083 0.49724 0.68959 0.0
H2350 H 0.87466 0.55824 0.68989 0.0
H2351 H 0.85577 0.54322 0.71763 0.0
C2352 C 0.8767 0.39667 0.71623 0.0
C2353 C 0.8819 0.36899 0.71022 0.0
C2354 C 0.89074 0.38238 0.70147 0.0
C2355 C 0.89286 0.42161 0.69867 0.0
C2356 C 0.88671 0.44761 0.70471 0.0
C2357 C 0.87931 0.43607 0.71332 0.0
C2358 C 0.87166 0.46899 0.71837 0.0
C2359 C 0.8262 0.44602 0.72282 0.0
C2360 C 0.90905 0.49409 0.72493 0.0
C2361 C 0.87356 0.49942 0.71116 0.0
C2362 C 0.88301 0.48676 0.70336 0.0
C2363 C 0.88409 0.50791 0.69567 0.0
C2364 C 0.87471 0.54251 0.69592 0.0
C2365 C 0.86418 0.55579 0.70379 0.0
C2366 C 0.86441 0.53437 0.71154 0.0
H2367 H 0.49849 0.3403 0.71232 0.0
H2368 H 0.5281 0.31415 0.68651 0.0
H2369 H 0.59176 0.38955 0.68575 0.0
H2370 H 0.53349 0.45889 0.70834 0.0
H2371 H 0.55649 0.4754 0.719 0.0
H2372 H 0.51002 0.42086 0.71724 0.0
H2373 H 0.55392 0.38634 0.72396 0.0
H2374 H 0.6004 0.44067 0.72574 0.0
H2375 H 0.60734 0.40064 0.71962 0.0
H2376 H 0.65497 0.46547 0.68803 0.0
H2377 H 0.71529 0.53639 0.69344 0.0
H2378 H 0.64685 0.51411 0.71792 0.0
C2379 C 0.51781 0.35078 0.70645 0.0
C2380 C 0.50801 0.32124 0.69946 0.0
C2381 C 0.53467 0.33607 0.69194 0.0
C2382 C 0.57094 0.37897 0.69143 0.0
C2383 C 0.58016 0.40699 0.69846 0.0
C2384 C 0.55437 0.3937 0.70582 0.0
C2385 C 0.57327 0.42973 0.71264 0.0
C2386 C 0.54142 0.44725 0.71441 0.0
C2387 C 0.5844 0.41335 0.72098 0.0
C2388 C 0.61471 0.46432 0.70809 0.0
C2389 C 0.6174 0.45087 0.69985 0.0
C2390 C 0.65302 0.4766 0.69444 0.0
C2391 C 0.68712 0.51693 0.69758 0.0
C2392 C 0.68579 0.53093 0.7061 0.0
C2393 C 0.64875 0.50438 0.71137 0.0
H2394 H 0.53153 0.18683 0.70087 0.0
H2395 H 0.51068 0.15773 0.72825 0.0
H2396 H 0.58099 0.15689 0.72906 0.0
H2397 H 0.58611 0.12206 0.69611 0.0
H2398 H 0.62451 0.16292 0.68867 0.0
H2399 H 0.57018 0.1561 0.69006 0.0
H2400 H 0.60523 0.23925 0.69382 0.0
H2401 H 0.65958 0.2463 0.69247 0.0
H2402 H 0.64491 0.26195 0.70248 0.0
H2403 H 0.65582 0.164 0.72706 0.0
H2404 H 0.73061 0.18125 0.72256 0.0
H2405 H 0.70355 0.20818 0.69658 0.0
C2406 C 0.54123 0.17921 0.70699 0.0
C2407 C 0.51543 0.1718 0.71448 0.0
C2408 C 0.52986 0.16322 0.72242 0.0
C2409 C 0.56967 0.16256 0.72294 0.0
C2410 C 0.59475 0.17077 0.71546 0.0
C2411 C 0.58114 0.179 0.70764 0.0
C2412 C 0.61582 0.19038 0.70072 0.0
C2413 C 0.59809 0.15579 0.69346 0.0
C2414 C 0.63235 0.23725 0.69717 0.0
C2415 C 0.65134 0.18791 0.7059 0.0
C2416 C 0.63835 0.17601 0.71436 0.0
C2417 C 0.66621 0.17298 0.72044 0.0
C2418 C 0.70864 0.18283 0.71781 0.0
C2419 C 0.72297 0.19599 0.70921 0.0
C2420 C 0.69359 0.19802 0.70319 0.0
H2421 H 0.17666 0.1509 0.12047 0.0
H2422 H 0.27277 0.24303 0.10223 0.0
H2423 H 0.22007 0.26799 0.09803 0.0
H2424 H 0.08201 0.11883 0.10715 0.0
H2425 H 0.04652 0.1136 0.11605 0.0
H2426 H 0.09247 0.10457 0.11774 0.0
H2427 H 0.12241 0.16397 0.12979 0.0
H2428 H 0.07652 0.17313 0.12815 0.0
H2429 H 0.13231 0.21878 0.12744 0.0
H2430 H 0.15568 0.28252 0.09595 0.0
H2431 H 0.08534 0.28378 0.09586 0.0
H2432 H 0.03234 0.18009 0.11524 0.0
C2433 C 0.18691 0.17659 0.11563 0.0
C2434 C 0.22893 0.19529 0.11171 0.0
C2435 C 0.24071 0.22833 0.10532 0.0
C2436 C 0.21104 0.24271 0.10291 0.0
C2437 C 0.16972 0.22338 0.10691 0.0
C2438 C 0.1577 0.19086 0.11311 0.0
C2439 C 0.11108 0.17423 0.11628 0.0
C2440 C 0.08127 0.12489 0.11418 0.0
C2441 C 0.11058 0.18308 0.12599 0.0
C2442 C 0.09866 0.20269 0.11095 0.0
C2443 C 0.13282 0.23095 0.1056 0.0
C2444 C 0.12872 0.26044 0.10011 0.0
C2445 C 0.08867 0.26092 0.1001 0.0
C2446 C 0.05326 0.23197 0.10552 0.0
C2447 C 0.05863 0.20258 0.111 0.0
H2448 H 0.87933 0.04685 0.12686 0.0
H2449 H 0.82961 0.0615 0.10211 0.0
H2450 H 0.80538 0.98366 0.09871 0.0
H2451 H 0.92612 0.98831 0.11952 0.0
H2452 H 0.91314 0.95228 0.12872 0.0
H2453 H 0.91848 0.00588 0.13 0.0
H2454 H 0.8397 0.97013 0.13653 0.0
H2455 H 0.83425 0.91624 0.13534 0.0
H2456 H 0.79367 0.92751 0.13062 0.0
H2457 H 0.79982 0.91032 0.09687 0.0
H2458 H 0.80935 0.84478 0.09707 0.0
H2459 H 0.86052 0.87666 0.12317 0.0
C2460 C 0.86206 0.03334 0.12084 0.0
C2461 C 0.85631 0.06021 0.11476 0.0
C2462 C 0.83419 0.04146 0.10689 0.0
C2463 C 0.82022 0.99725 0.10491 0.0
C2464 C 0.82807 0.97218 0.11091 0.0
C2465 C 0.84791 0.98934 0.11878 0.0
C2466 C 0.85688 0.95712 0.1237 0.0
C2467 C 0.90659 0.9771 0.12559 0.0
C2468 C 0.82947 0.94184 0.13204 0.0
C2469 C 0.84084 0.91997 0.11721 0.0
C2470 C 0.82393 0.92911 0.10991 0.0
C2471 C 0.81182 0.90218 0.10263 0.0
C2472 C 0.8176 0.86526 0.10278 0.0
C2473 C 0.83513 0.85562 0.11017 0.0
C2474 C 0.84594 0.88275 0.11753 0.0
H2475 H 0.20716 0.01566 0.12132 0.0
H2476 H 0.19918 0.0374 0.09394 0.0
H2477 H 0.12708 0.9692 0.09318 0.0
H2478 H 0.15181 0.893 0.11978 0.0
H2479 H 0.12354 0.88484 0.12992 0.0
H2480 H 0.17672 0.93345 0.12824 0.0
H2481 H 0.14352 0.98311 0.13212 0.0
H2482 H 0.09037 0.93477 0.13382 0.0
H2483 H 0.09592 0.97665 0.12628 0.0
H2484 H 0.05403 0.90146 0.09541 0.0
H2485 H 0.98348 0.83986 0.10066 0.0
H2486 H 0.03695 0.86119 0.12665 0.0
C2487 C 0.19054 0.00568 0.11515 0.0
C2488 C 0.2091 0.03197 0.10769 0.0
C2489 C 0.18597 0.01789 0.09974 0.0
C2490 C 0.14491 0.97904 0.09923 0.0
C2491 C 0.12732 0.95416 0.10669 0.0
C2492 C 0.14936 0.9667 0.1145 0.0
C2493 C 0.12193 0.93479 0.12161 0.0
C2494 C 0.14487 0.91006 0.1251 0.0
C2495 C 0.11236 0.95878 0.12888 0.0
C2496 C 0.08027 0.90377 0.11665 0.0
C2497 C 0.08459 0.91504 0.10801 0.0
C2498 C 0.05037 0.89204 0.10215 0.0
C2499 C 0.01037 0.85697 0.1052 0.0
C2500 C 0.00454 0.8455 0.11407 0.0
C2501 C 0.04034 0.86898 0.11983 0.0
H2502 H 0.88038 0.85753 0.60387 0.0
H2503 H 0.857 0.83822 0.63142 0.0
H2504 H 0.83805 0.89744 0.63181 0.0
H2505 H 0.93483 0.97297 0.60461 0.0
H2506 H 0.91272 0.98047 0.59464 0.0
H2507 H 0.91793 0.93216 0.59617 0.0
H2508 H 0.83454 0.882 0.59291 0.0
H2509 H 0.82909 0.93026 0.59134 0.0
H2510 H 0.79442 0.88867 0.59906 0.0
H2511 H 0.82737 0.96198 0.62958 0.0
H2512 H 0.82944 0.03063 0.625 0.0
H2513 H 0.86287 0.01166 0.59897 0.0
C2514 C 0.87005 0.86506 0.60991 0.0
C2515 C 0.86954 0.84295 0.6176 0.0
C2516 C 0.85732 0.85461 0.62546 0.0
C2517 C 0.84633 0.88808 0.62574 0.0
C2518 C 0.84801 0.90998 0.61811 0.0
C2519 C 0.85966 0.89914 0.61034 0.0
C2520 C 0.86299 0.93091 0.60328 0.0
C2521 C 0.90991 0.95559 0.59946 0.0
C2522 C 0.82818 0.9065 0.59623 0.0
C2523 C 0.85263 0.96184 0.60837 0.0
C2524 C 0.84325 0.94855 0.61687 0.0
C2525 C 0.83424 0.97253 0.62292 0.0
C2526 C 0.83549 0.01155 0.62025 0.0
C2527 C 0.84623 0.02665 0.61162 0.0
C2528 C 0.85427 1.00094 0.60559 0.0
H2529 H 0.19903 0.04681 0.60341 0.0
H2530 H 0.23026 0.04669 0.63048 0.0
H2531 H 0.17239 0.96815 0.63161 0.0
H2532 H 0.08577 0.98715 0.60619 0.0
H2533 H 0.07328 0.9565 0.59624 0.0
H2534 H 0.12237 0.00977 0.59706 0.0
H2535 H 0.17033 0.97552 0.59255 0.0
H2536 H 0.12121 0.92206 0.59166 0.0
H2537 H 0.1661 0.92915 0.5985 0.0
H2538 H 0.10614 0.89293 0.63028 0.0
H2539 H 0.03451 0.82723 0.62672 0.0
H2540 H 0.04404 0.87684 0.60064 0.0
C2541 C 0.19464 0.02965 0.60947 0.0
C2542 C 0.21951 0.05232 0.61682 0.0
C2543 C 0.21176 0.02956 0.62476 0.0
C2544 C 0.17909 0.98498 0.62546 0.0
C2545 C 0.15416 0.96374 0.61816 0.0
C2546 C 0.16147 0.98527 0.61032 0.0
C2547 C 0.12655 0.95657 0.60378 0.0
C2548 C 0.10046 0.97883 0.60064 0.0
C2549 C 0.1473 0.94514 0.59617 0.0
C2550 C 0.09798 0.91612 0.60923 0.0
C2551 C 0.11488 0.92063 0.61747 0.0
C2552 C 0.09287 0.88872 0.62382 0.0
C2553 C 0.05215 0.85153 0.62174 0.0
C2554 C 0.03367 0.84677 0.6134 0.0
C2555 C 0.05743 0.87924 0.60705 0.0
H2556 H 0.18364 0.18371 0.6177 0.0
H2557 H 0.23004 0.27578 0.59618 0.0
H2558 H 0.15954 0.27643 0.59624 0.0
H2559 H 0.07411 0.11971 0.6104 0.0
H2560 H 0.04973 0.10986 0.621 0.0
H2561 H 0.10505 0.1194 0.6197 0.0
H2562 H 0.1341 0.18423 0.6306 0.0
H2563 H 0.07878 0.17475 0.63197 0.0
H2564 H 0.12266 0.22862 0.62881 0.0
H2565 H 0.08194 0.26287 0.59804 0.0
H2566 H 0.00396 0.23764 0.6017 0.0
H2567 H 0.00952 0.15491 0.62205 0.0
C2568 C 0.17937 0.20461 0.61308 0.0
C2569 C 0.2124 0.22984 0.60696 0.0
C2570 C 0.2052 0.25627 0.60095 0.0
C2571 C 0.16531 0.25687 0.60094 0.0
C2572 C 0.13312 0.23095 0.60697 0.0
C2573 C 0.13984 0.20549 0.61296 0.0
C2574 C 0.09935 0.17901 0.6185 0.0
C2575 C 0.08099 0.12905 0.61732 0.0
C2576 C 0.10933 0.19248 0.62803 0.0
C2577 C 0.06866 0.19335 0.61466 0.0
C2578 C 0.08867 0.22331 0.60802 0.0
C2579 C 0.06606 0.23977 0.60328 0.0
C2580 C 0.02181 0.22518 0.60539 0.0
C2581 C 1.00082 0.19455 0.61219 0.0
C2582 C 0.02478 0.17873 0.61688 0.0
H2583 H 0.54168 0.21937 0.19685 0.0
H2584 H 0.47153 0.16388 0.22086 0.0
H2585 H 0.52811 0.14457 0.22507 0.0
H2586 H 0.57902 0.13905 0.19339 0.0
H2587 H 0.63179 0.18029 0.18917 0.0
H2588 H 0.58389 0.18649 0.18775 0.0
H2589 H 0.62544 0.26364 0.19498 0.0
H2590 H 0.67334 0.25762 0.19645 0.0
H2591 H 0.64864 0.26883 0.2056 0.0
H2592 H 0.5959 0.13775 0.22726 0.0
H2593 H 0.66832 0.14115 0.22701 0.0
H2594 H 0.69322 0.1991 0.2014 0.0
C2595 C 0.53773 0.20247 0.20294 0.0
C2596 C 0.50202 0.19303 0.20851 0.0
C2597 C 0.49844 0.17131 0.21645 0.0
C2598 C 0.53044 0.16021 0.21891 0.0
C2599 C 0.56563 0.17075 0.21332 0.0
C2600 C 0.56927 0.19108 0.20547 0.0
C2601 C 0.61135 0.20067 0.20083 0.0
C2602 C 0.60087 0.17509 0.19228 0.0
C2603 C 0.64146 0.25065 0.19938 0.0
C2604 C 0.63114 0.18309 0.20735 0.0
C2605 C 0.60427 0.166 0.21451 0.0
C2606 C 0.61687 0.15043 0.22163 0.0
C2607 C 0.65811 0.15261 0.22144 0.0
C2608 C 0.68612 0.16993 0.21415 0.0
C2609 C 0.67211 0.18486 0.20699 0.0
H2610 H 0.87789 0.50068 0.22201 0.0
H2611 H 0.89352 0.54608 0.19546 0.0
H2612 H 0.89961 0.48198 0.1908 0.0
H2613 H 0.9526 0.45175 0.22026 0.0
H2614 H 0.91756 0.40622 0.22723 0.0
H2615 H 0.9217 0.45939 0.22873 0.0
H2616 H 0.83662 0.42295 0.2274 0.0
H2617 H 0.83221 0.36986 0.22587 0.0
H2618 H 0.80934 0.39073 0.21794 0.0
H2619 H 0.89353 0.40931 0.18869 0.0
H2620 H 0.87514 0.33152 0.18921 0.0
H2621 H 0.8641 0.33197 0.2171 0.0
C2622 C 0.88371 0.49771 0.21525 0.0
C2623 C 0.88534 0.52847 0.20911 0.0
C2624 C 0.89232 0.52307 0.2003 0.0
C2625 C 0.89605 0.48685 0.19758 0.0
C2626 C 0.89326 0.45659 0.20377 0.0
C2627 C 0.88761 0.46171 0.21243 0.0
C2628 C 0.88167 0.42222 0.21762 0.0
C2629 C 0.92071 0.43571 0.22383 0.0
C2630 C 0.83732 0.40015 0.22249 0.0
C2631 C 0.88221 0.39303 0.21044 0.0
C2632 C 0.88994 0.41405 0.20253 0.0
C2633 C 0.88837 0.39278 0.19485 0.0
C2634 C 0.87772 0.34853 0.19521 0.0
C2635 C 0.86855 0.3259 0.20319 0.0
C2636 C 0.87194 0.3488 0.21093 0.0
H2637 H 0.54698 0.3796 0.22256 0.0
H2638 H 0.49562 0.36138 0.19643 0.0
H2639 H 0.561 0.43137 0.19209 0.0
H2640 H 0.60014 0.50296 0.22283 0.0
H2641 H 0.64655 0.50892 0.22902 0.0
H2642 H 0.59285 0.46063 0.23041 0.0
H2643 H 0.62606 0.41045 0.22703 0.0
H2644 H 0.67971 0.45843 0.22562 0.0
H2645 H 0.65581 0.41825 0.21708 0.0
H2646 H 0.63536 0.49668 0.19006 0.0
H2647 H 0.71399 0.55435 0.19053 0.0
H2648 H 0.71733 0.53236 0.21801 0.0
C2649 C 0.54899 0.39082 0.21597 0.0
C2650 C 0.51612 0.36504 0.20984 0.0
C2651 C 0.52027 0.38061 0.20125 0.0
C2652 C 0.55723 0.42042 0.19873 0.0
C2653 C 0.58949 0.44455 0.20488 0.0
C2654 C 0.58563 0.43062 0.21334 0.0
C2655 C 0.62668 0.46097 0.2185 0.0
C2656 C 0.6159 0.48479 0.22561 0.0
C2657 C 0.64833 0.4355 0.22227 0.0
C2658 C 0.65501 0.49292 0.2115 0.0
C2659 C 0.6326 0.48313 0.20373 0.0
C2660 C 0.65298 0.50531 0.19614 0.0
C2661 C 0.69766 0.53785 0.19646 0.0
C2662 C 0.72145 0.54798 0.20432 0.0
C2663 C 0.69956 0.52592 0.21197 0.0
H2664 H 0.5669 0.41838 0.04556 0.0
H2665 H 0.51957 0.40877 0.01932 0.0
H2666 H 0.49233 0.32856 0.0194 0.0
H2667 H 0.60932 0.34886 0.04277 0.0
H2668 H 0.59458 0.32302 0.05324 0.0
H2669 H 0.60336 0.37796 0.0518 0.0
H2670 H 0.52519 0.35309 0.05784 0.0
H2671 H 0.5163 0.29803 0.05938 0.0
H2672 H 0.47778 0.3065 0.05305 0.0
H2673 H 0.47865 0.25201 0.02158 0.0
H2674 H 0.47876 0.18388 0.02577 0.0
H2675 H 0.5362 0.24272 0.05054 0.0
C2676 C 0.54943 0.39906 0.03995 0.0
C2677 C 0.54488 0.41963 0.03246 0.0
C2678 C 0.52316 0.39357 0.02514 0.0
C2679 C 0.50748 0.34798 0.02513 0.0
C2680 C 0.5138 0.32887 0.03249 0.0
C2681 C 0.53398 0.35345 0.0398 0.0
C2682 C 0.54058 0.32562 0.04653 0.0
C2683 C 0.58988 0.34503 0.04871 0.0
C2684 C 0.51333 0.32051 0.05468 0.0
C2685 C 0.5224 0.28214 0.04174 0.0
C2686 C 0.50651 0.28457 0.03371 0.0
C2687 C 0.49039 0.24947 0.0279 0.0
C2688 C 0.49074 0.21094 0.03033 0.0
C2689 C 0.50741 0.20785 0.03849 0.0
C2690 C 0.52291 0.24386 0.04428 0.0
H2691 H 0.85486 0.3121 0.03617 0.0
H2692 H 0.85087 0.32667 0.06389 0.0
H2693 H 0.77539 0.26193 0.06429 0.0
H2694 H 0.7476 0.29059 0.03263 0.0
H2695 H 0.73585 0.25221 0.0239 0.0
H2696 H 0.79187 0.29462 0.02599 0.0
H2697 H 0.81539 0.2352 0.02742 0.0
H2698 H 0.75935 0.19249 0.02531 0.0
H2699 H 0.78701 0.19037 0.03497 0.0
H2700 H 0.69803 0.19928 0.06146 0.0
H2701 H 0.624 0.14766 0.05557 0.0
H2702 H 0.67772 0.17741 0.02961 0.0
C2703 C 0.83863 0.30085 0.04236 0.0
C2704 C 0.85907 0.32374 0.05003 0.0
C2705 C 0.83605 0.30912 0.05796 0.0
C2706 C 0.79321 0.27235 0.05824 0.0
C2707 C 0.77365 0.25098 0.05053 0.0
C2708 C 0.79557 0.26489 0.04273 0.0
C2709 C 0.7656 0.23973 0.03525 0.0
C2710 C 0.7599 0.27116 0.02908 0.0
C2711 C 0.78287 0.21284 0.03046 0.0
C2712 C 0.72319 0.20987 0.04004 0.0
C2713 C 0.72864 0.2163 0.04886 0.0
C2714 C 0.6935 0.1937 0.05457 0.0
C2715 C 0.65157 0.1644 0.05117 0.0
C2716 C 0.64505 0.15845 0.04213 0.0
C2717 C 0.68162 0.18104 0.03655 0.0
H2718 H 0.88391 0.49326 0.05111 0.0
H2719 H 0.91136 0.50601 0.02367 0.0
H2720 H 0.86397 0.53912 0.02167 0.0
H2721 H 0.77342 0.45721 0.04929 0.0
H2722 H 0.76832 0.48606 0.05846 0.0
H2723 H 0.81143 0.47211 0.05821 0.0
H2724 H 0.87034 0.5543 0.06054 0.0
H2725 H 0.82722 0.56847 0.06087 0.0
H2726 H 0.87217 0.59573 0.05332 0.0
H2727 H 0.80637 0.5603 0.02214 0.0
H2728 H 0.74163 0.56876 0.02511 0.0
H2729 H 0.74865 0.5411 0.05222 0.0
C2730 C 0.88125 0.50482 0.04477 0.0
C2731 C 0.90178 0.49795 0.03756 0.0
C2732 C 0.89624 0.5116 0.02928 0.0
C2733 C 0.86949 0.53051 0.02808 0.0
C2734 C 0.84831 0.53547 0.03524 0.0
C2735 C 0.85401 0.52338 0.04345 0.0
C2736 C 0.8233 0.52764 0.04982 0.0
C2737 C 0.79229 0.4831 0.0542 0.0
C2738 C 0.84985 0.56369 0.05654 0.0
C2739 C 0.79812 0.54173 0.04382 0.0
C2740 C 0.81383 0.54697 0.03548 0.0
C2741 C 0.79424 0.55711 0.02868 0.0
C2742 C 0.75735 0.56171 0.03042 0.0
C2743 C 0.74006 0.55572 0.03889 0.0
C2744 C 0.76127 0.54626 0.04568 0.0
H2745 H 0.41067 0.54122 0.44505 0.0
H2746 H 0.41906 0.56008 0.47283 0.0
H2747 H 0.33864 0.53079 0.47344 0.0
H2748 H 0.33599 0.5771 0.4412 0.0
H2749 H 0.30506 0.53738 0.4329 0.0
H2750 H 0.36211 0.55372 0.43471 0.0
H2751 H 0.34059 0.47182 0.43696 0.0
H2752 H 0.28334 0.45517 0.43512 0.0
H2753 H 0.29949 0.43907 0.44491 0.0
H2754 H 0.25929 0.50507 0.47103 0.0
H2755 H 0.18621 0.48836 0.46569 0.0
H2756 H 0.22884 0.48884 0.43935 0.0
C2757 C 0.39542 0.53823 0.45128 0.0
C2758 C 0.42108 0.55267 0.4589 0.0
C2759 C 0.40005 0.54905 0.46691 0.0
C2760 C 0.35435 0.53228 0.46734 0.0
C2761 C 0.33013 0.51908 0.4597 0.0
C2762 C 0.3498 0.52178 0.45182 0.0
C2763 C 0.31665 0.50867 0.44451 0.0
C2764 C 0.33081 0.54649 0.43795 0.0
C2765 C 0.30961 0.46615 0.44012 0.0
C2766 C 0.27586 0.50037 0.44948 0.0
C2767 C 0.28417 0.50537 0.45826 0.0
C2768 C 0.25218 0.50054 0.46419 0.0
C2769 C 0.21069 0.49093 0.46108 0.0
C2770 C 0.20178 0.48712 0.4521 0.0
C2771 C 0.23469 0.49138 0.44624 0.0
H2772 H 0.54125 0.72889 0.45928 0.0
H2773 H 0.60264 0.76152 0.43402 0.0
H2774 H 0.59196 0.82604 0.43322 0.0
H2775 H 0.45828 0.75101 0.45476 0.0
H2776 H 0.4581 0.77499 0.46504 0.0
H2777 H 0.47702 0.73571 0.46432 0.0
H2778 H 0.55181 0.79222 0.47123 0.0
H2779 H 0.53298 0.83171 0.47204 0.0
H2780 H 0.58385 0.84636 0.4665 0.0
H2781 H 0.56563 0.88067 0.43427 0.0
H2782 H 0.52721 0.92257 0.43736 0.0
H2783 H 0.48394 0.85505 0.462 0.0
C2784 C 0.55378 0.7505 0.45372 0.0
C2785 C 0.57278 0.74025 0.4467 0.0
C2786 C 0.58778 0.76867 0.43944 0.0
C2787 C 0.58209 0.80557 0.43895 0.0
C2788 C 0.56176 0.81393 0.44583 0.0
C2789 C 0.5483 0.78755 0.45313 0.0
C2790 C 0.5239 0.80155 0.45928 0.0
C2791 C 0.47653 0.76356 0.46094 0.0
C2792 C 0.54969 0.819 0.46777 0.0
C2793 C 0.52403 0.83847 0.45411 0.0
C2794 C 0.54661 0.84561 0.44643 0.0
C2795 C 0.54856 0.87601 0.44034 0.0
C2796 C 0.52657 0.89956 0.44213 0.0
C2797 C 0.50271 0.89219 0.44992 0.0
C2798 C 0.50214 0.86171 0.45601 0.0
H2799 H 0.32337 0.81832 0.459 0.0
H2800 H 0.29755 0.84665 0.43315 0.0
H2801 H 0.22822 0.77414 0.43269 0.0
H2802 H 0.29527 0.71205 0.45497 0.0
H2803 H 0.27095 0.68979 0.46534 0.0
H2804 H 0.31249 0.74702 0.46438 0.0
H2805 H 0.25938 0.77058 0.47108 0.0
H2806 H 0.21767 0.71326 0.4722 0.0
H2807 H 0.20533 0.75069 0.46643 0.0
H2808 H 0.16827 0.69377 0.43433 0.0
H2809 H 0.12292 0.61423 0.43799 0.0
H2810 H 0.19018 0.63961 0.46267 0.0
C2811 C 0.30189 0.8099 0.45342 0.0
C2812 C 0.31454 0.83804 0.44621 0.0
C2813 C 0.28732 0.82559 0.43881 0.0
C2814 C 0.24809 0.78454 0.4385 0.0
C2815 C 0.23703 0.75655 0.44564 0.0
C2816 C 0.26304 0.769 0.453 0.0
C2817 C 0.24739 0.73128 0.45935 0.0
C2818 C 0.28367 0.71935 0.46111 0.0
C2819 C 0.23148 0.7421 0.46776 0.0
C2820 C 0.20931 0.69526 0.45434 0.0
C2821 C 0.20334 0.71036 0.44649 0.0
C2822 C 0.17213 0.68181 0.44053 0.0
C2823 C 0.14664 0.63668 0.44264 0.0
C2824 C 0.15288 0.62069 0.45062 0.0
C2825 C 0.18422 0.65071 0.45655 0.0
H2826 H 0.47194 0.63643 0.9607 0.0
H2827 H 0.54098 0.61864 0.93917 0.0
H2828 H 0.57328 0.69792 0.93544 0.0
H2829 H 0.44346 0.70857 0.94994 0.0
H2830 H 0.4504 0.74178 0.95934 0.0
H2831 H 0.43512 0.68461 0.96057 0.0
H2832 H 0.50279 0.70728 0.97054 0.0
H2833 H 0.51821 0.76455 0.96935 0.0
H2834 H 0.55727 0.74679 0.96674 0.0
H2835 H 0.59724 0.77945 0.93406 0.0
H2836 H 0.60836 0.85495 0.93467 0.0
H2837 H 0.52079 0.81786 0.9568 0.0
C2838 C 0.49423 0.64917 0.95525 0.0
C2839 C 0.5042 0.62132 0.95026 0.0
C2840 C 0.53299 0.63934 0.9431 0.0
C2841 C 0.55152 0.68433 0.94095 0.0
C2842 C 0.54072 0.71074 0.94599 0.0
C2843 C 0.51258 0.69371 0.95298 0.0
C2844 C 0.50467 0.72841 0.95715 0.0
C2845 C 0.4555 0.71503 0.95672 0.0
C2846 C 0.52176 0.73727 0.9665 0.0
C2847 C 0.5325 0.76772 0.9514 0.0
C2848 C 0.55339 0.75702 0.94505 0.0
C2849 C 0.58094 0.78806 0.93899 0.0
C2850 C 0.58699 0.83093 0.93939 0.0
C2851 C 0.56521 0.84241 0.94574 0.0
C2852 C 0.53783 0.81023 0.95185 0.0
H2853 H 0.24217 0.74093 0.93796 0.0
H2854 H 0.17814 0.7579 0.96046 0.0
H2855 H 0.24364 0.83126 0.96302 0.0
H2856 H 0.34413 0.78199 0.94712 0.0
H2857 H 0.37534 0.80866 0.93753 0.0
H2858 H 0.32074 0.7617 0.93659 0.0
H2859 H 0.29683 0.80753 0.92714 0.0
H2860 H 0.35156 0.85484 0.92805 0.0
H2861 H 0.30412 0.85922 0.93115 0.0
H2862 H 0.31957 0.89717 0.9643 0.0
H2863 H 0.40005 0.94896 0.96444 0.0
H2864 H 0.41368 0.88846 0.94105 0.0
C2865 C 0.24136 0.76052 0.9433 0.0
C2866 C 0.20505 0.74387 0.94899 0.0
C2867 C 0.20557 0.7702 0.95598 0.0
C2868 C 0.24253 0.81196 0.95746 0.0
C2869 C 0.27835 0.82693 0.95184 0.0
C2870 C 0.2779 0.80204 0.94487 0.0
C2871 C 0.32216 0.82306 0.94036 0.0
C2872 C 0.34172 0.79202 0.94041 0.0
C2873 C 0.31843 0.837 0.93113 0.0
C2874 C 0.34819 0.86281 0.94609 0.0
C2875 C 0.32222 0.86494 0.95259 0.0
C2876 C 0.34006 0.89642 0.95914 0.0
C2877 C 0.38582 0.92567 0.95917 0.0
C2878 C 0.41313 0.92285 0.95274 0.0
C2879 C 0.39367 0.89191 0.94599 0.0
H2880 H 0.16539 0.536 0.94386 0.0
H2881 H 0.22712 0.62347 0.96573 0.0
H2882 H 0.28222 0.59983 0.96663 0.0
H2883 H 0.18274 0.4475 0.95181 0.0
H2884 H 0.19476 0.4335 0.94135 0.0
H2885 H 0.15875 0.4565 0.94225 0.0
H2886 H 0.20856 0.51935 0.9317 0.0
H2887 H 0.24451 0.49636 0.93072 0.0
H2888 H 0.26676 0.5531 0.93399 0.0
H2889 H 0.32897 0.56651 0.96578 0.0
H2890 H 0.37096 0.5295 0.96222 0.0
H2891 H 0.28374 0.46478 0.94045 0.0
C2892 C 0.19063 0.55018 0.9488 0.0
C2893 C 0.19159 0.58139 0.95476 0.0
C2894 C 0.2252 0.59922 0.96114 0.0
C2895 C 0.2568 0.58601 0.96172 0.0
C2896 C 0.25461 0.55484 0.95589 0.0
C2897 C 0.22284 0.53727 0.94949 0.0
C2898 C 0.22902 0.50452 0.94404 0.0
C2899 C 0.18893 0.45774 0.94492 0.0
C2900 C 0.23775 0.51924 0.93455 0.0
C2901 C 0.26972 0.50749 0.9483 0.0
C2902 C 0.28312 0.53615 0.95522 0.0
C2903 C 0.31899 0.54401 0.96036 0.0
C2904 C 0.34249 0.52255 0.9583 0.0
C2905 C 0.33064 0.49415 0.95106 0.0
C2906 C 0.29352 0.48631 0.94602 0.0
H2907 H 0.63893 0.5011 0.54828 0.0
H2908 H 0.63072 0.50751 0.52043 0.0
H2909 H 0.71067 0.53496 0.51926 0.0
H2910 H 0.75295 0.59949 0.55056 0.0
H2911 H 0.7679 0.57356 0.55895 0.0
H2912 H 0.71124 0.5605 0.55778 0.0
H2913 H 0.6867 0.47737 0.55659 0.0
H2914 H 0.7432 0.49022 0.5577 0.0
H2915 H 0.71131 0.45946 0.54847 0.0
H2916 H 0.78981 0.55509 0.52085 0.0
H2917 H 0.86245 0.56531 0.52514 0.0
H2918 H 0.82051 0.54424 0.55193 0.0
C2919 C 0.65433 0.50961 0.54197 0.0
C2920 C 0.6286 0.50261 0.53444 0.0
C2921 C 0.64973 0.5128 0.52628 0.0
C2922 C 0.69522 0.52854 0.52555 0.0
C2923 C 0.7195 0.53393 0.53303 0.0
C2924 C 0.69996 0.52498 0.54111 0.0
C2925 C 0.73315 0.53024 0.54803 0.0
C2926 C 0.74182 0.56821 0.55419 0.0
C2927 C 0.71765 0.48672 0.55299 0.0
C2928 C 0.77368 0.54192 0.54255 0.0
C2929 C 0.76526 0.54467 0.53394 0.0
C2930 C 0.79696 0.5535 0.52759 0.0
C2931 C 0.83822 0.55926 0.5301 0.0
C2932 C 0.84746 0.55571 0.53887 0.0
C2933 C 0.81471 0.54741 0.54517 0.0
H2934 H 0.52996 0.18567 0.52965 0.0
H2935 H 0.56124 0.16602 0.55584 0.0
H2936 H 0.5339 0.21435 0.56129 0.0
H2937 H 0.56834 0.29655 0.53167 0.0
H2938 H 0.52677 0.29775 0.52494 0.0
H2939 H 0.54164 0.25589 0.52329 0.0
H2940 H 0.45969 0.19488 0.52521 0.0
H2941 H 0.44448 0.23669 0.52687 0.0
H2942 H 0.43033 0.19403 0.53484 0.0
H2943 H 0.51329 0.27233 0.56362 0.0
H2944 H 0.50201 0.33668 0.5626 0.0
H2945 H 0.48356 0.3172 0.53492 0.0
C2946 C 0.53007 0.19065 0.53655 0.0
C2947 C 0.54751 0.17211 0.54232 0.0
C2948 C 0.54788 0.17995 0.5513 0.0
C2949 C 0.53217 0.20708 0.55446 0.0
C2950 C 0.51597 0.22564 0.54857 0.0
C2951 C 0.51466 0.21763 0.5398 0.0
C2952 C 0.50035 0.24524 0.53472 0.0
C2953 C 0.53643 0.27565 0.52828 0.0
C2954 C 0.45607 0.21595 0.53014 0.0
C2955 C 0.49532 0.27121 0.54197 0.0
C2956 C 0.50386 0.25906 0.54992 0.0
C2957 C 0.5056 0.28156 0.55746 0.0
C2958 C 0.49937 0.3181 0.55682 0.0
C2959 C 0.49175 0.33158 0.54868 0.0
C2960 C 0.48849 0.30706 0.54124 0.0
H2961 H 0.89401 0.41697 0.54782 0.0
H2962 H 0.91011 0.41444 0.52012 0.0
H2963 H 0.86236 0.33329 0.52017 0.0
H2964 H 0.88376 0.30589 0.5527 0.0
H2965 H 0.84215 0.29393 0.56078 0.0
H2966 H 0.88508 0.35021 0.55889 0.0
H2967 H 0.82568 0.37285 0.55619 0.0
H2968 H 0.78281 0.31692 0.55809 0.0
H2969 H 0.78383 0.344 0.5481 0.0
H2970 H 0.80562 0.25435 0.52288 0.0
H2971 H 0.73958 0.18597 0.52781 0.0
H2972 H 0.75767 0.24041 0.55359 0.0
C2973 C 0.88871 0.39909 0.54183 0.0
C2974 C 0.90606 0.42177 0.53399 0.0
C2975 C 0.89726 0.39755 0.52621 0.0
C2976 C 0.87045 0.35143 0.52618 0.0
C2977 C 0.85276 0.33002 0.53399 0.0
C2978 C 0.8615 0.35309 0.54167 0.0
C2979 C 0.83367 0.32325 0.54895 0.0
C2980 C 0.86291 0.31801 0.55573 0.0
C2981 C 0.80478 0.34027 0.55306 0.0
C2982 C 0.80611 0.28054 0.54407 0.0
C2983 C 0.81868 0.28465 0.53551 0.0
C2984 C 0.79602 0.25046 0.52961 0.0
C2985 C 0.75866 0.21165 0.53246 0.0
C2986 C 0.74384 0.20797 0.54108 0.0
C2987 C 0.7687 0.2423 0.54699 0.0
H2988 H 0.19782 0.55722 0.36465 0.0
H2989 H 0.12621 0.52732 0.38878 0.0
H2990 H 0.13379 0.60169 0.38883 0.0
H2991 H 0.27654 0.66409 0.37001 0.0
H2992 H 0.28135 0.68763 0.35943 0.0
H2993 H 0.26414 0.62997 0.36054 0.0
H2994 H 0.19282 0.60886 0.35186 0.0
H2995 H 0.20996 0.66658 0.35065 0.0
H2996 H 0.15682 0.62914 0.35529 0.0
H2997 H 0.15647 0.68183 0.38707 0.0
H2998 H 0.19226 0.76155 0.38363 0.0
H2999 H 0.25003 0.73959 0.36069 0.0
C3000 C 0.18245 0.56596 0.36976 0.0
C3001 C 0.16109 0.53674 0.37669 0.0
C3002 C 0.14275 0.54955 0.38345 0.0
C3003 C 0.14669 0.59155 0.38349 0.0
C3004 C 0.16924 0.62036 0.37672 0.0
C3005 C 0.18662 0.60805 0.36994 0.0
C3006 C 0.21306 0.6466 0.36391 0.0
C3007 C 0.26163 0.65771 0.36345 0.0
C3008 C 0.19188 0.63723 0.35489 0.0
C3009 C 0.20867 0.68268 0.36846 0.0
C3010 C 0.18286 0.66678 0.37577 0.0
C3011 C 0.17621 0.69455 0.38128 0.0
C3012 C 0.19674 0.73981 0.37929 0.0
C3013 C 0.22379 0.75689 0.37188 0.0
C3014 C 0.22921 0.72762 0.36636 0.0
H3015 H 0.48503 0.70326 0.37537 0.0
H3016 H 0.54991 0.62499 0.37487 0.0
H3017 H 0.47673 0.55645 0.37374 0.0
H3018 H 0.38972 0.62994 0.38746 0.0
H3019 H 0.35237 0.64042 0.38119 0.0
H3020 H 0.40956 0.68252 0.38217 0.0
H3021 H 0.41715 0.68719 0.36551 0.0
H3022 H 0.3599 0.64532 0.36449 0.0
H3023 H 0.40208 0.63772 0.35941 0.0
H3024 H 0.39487 0.49627 0.37363 0.0
H3025 H 0.31304 0.45084 0.37251 0.0
H3026 H 0.30436 0.57041 0.37165 0.0
C3027 C 0.48369 0.6716 0.37502 0.0
C3028 C 0.52264 0.66893 0.37528 0.0
C3029 C 0.52011 0.62732 0.37467 0.0
C3030 C 0.4788 0.5884 0.37407 0.0
C3031 C 0.44074 0.59207 0.37389 0.0
C3032 C 0.44303 0.63279 0.37417 0.0
C3033 C 0.39775 0.62828 0.37345 0.0
C3034 C 0.38672 0.64635 0.38155 0.0
C3035 C 0.39402 0.65096 0.36522 0.0
C3036 C 0.3694 0.5786 0.37287 0.0
C3037 C 0.39453 0.55808 0.37326 0.0
C3038 C 0.37497 0.51206 0.37322 0.0
C3039 C 0.32862 0.48654 0.37264 0.0
C3040 C 0.30277 0.5073 0.37193 0.0
C3041 C 0.32353 0.5538 0.37208 0.0
H3042 H 0.40941 0.88175 0.3659 0.0
H3043 H 0.41531 0.90314 0.39357 0.0
H3044 H 0.48027 0.89288 0.39451 0.0
H3045 H 0.43477 0.79583 0.36663 0.0
H3046 H 0.46721 0.81202 0.35688 0.0
H3047 H 0.42385 0.82514 0.35828 0.0
H3048 H 0.47997 0.90804 0.35564 0.0
H3049 H 0.52356 0.89512 0.35424 0.0
H3050 H 0.52918 0.93534 0.36217 0.0
H3051 H 0.54236 0.87591 0.39255 0.0
H3052 H 0.59453 0.85138 0.38787 0.0
H3053 H 0.54725 0.84021 0.36156 0.0
C3054 C 0.4249 0.88514 0.37213 0.0
C3055 C 0.40744 0.8936 0.37965 0.0
C3056 C 0.42813 0.8968 0.38771 0.0
C3057 C 0.46516 0.89114 0.38831 0.0
C3058 C 0.48119 0.8822 0.3808 0.0
C3059 C 0.46169 0.87919 0.37286 0.0
C3060 C 0.4836 0.86656 0.36586 0.0
C3061 C 0.45038 0.82226 0.36167 0.0
C3062 C 0.50537 0.90347 0.35908 0.0
C3063 C 0.518 0.86234 0.37111 0.0
C3064 C 0.51644 0.8719 0.3797 0.0
C3065 C 0.54414 0.86874 0.38582 0.0
C3066 C 0.57377 0.85489 0.3831 0.0
C3067 C 0.57521 0.84404 0.37435 0.0
C3068 C 0.54725 0.84848 0.3683 0.0
H3069 H 0.07303 0.87829 0.78997 0.0
H3070 H 0.11921 0.91354 0.76363 0.0
H3071 H 0.04307 0.89214 0.75899 0.0
H3072 H 0.95923 0.78448 0.78471 0.0
H3073 H 0.93566 0.79926 0.79356 0.0
H3074 H 0.99128 0.80876 0.79434 0.0
H3075 H 0.01949 0.89132 0.79773 0.0
H3076 H 0.96429 0.88228 0.79685 0.0
H3077 H 0.00775 0.92383 0.79027 0.0
H3078 H 0.96555 0.88025 0.75789 0.0
H3079 H 0.89299 0.87495 0.76023 0.0
H3080 H 0.89838 0.84638 0.78731 0.0
C3081 C 0.06689 0.88025 0.78317 0.0
C3082 C 0.10177 0.89749 0.77714 0.0
C3083 C 0.0927 0.89993 0.76833 0.0
C3084 C 0.04962 0.88792 0.76565 0.0
C3085 C 0.01622 0.87284 0.77186 0.0
C3086 C 0.02433 0.86821 0.78043 0.0
C3087 C 0.98433 0.85567 0.78602 0.0
C3088 C 0.96658 0.80928 0.78989 0.0
C3089 C 0.9946 0.89035 0.79313 0.0
C3090 C 0.95295 0.85609 0.77937 0.0
C3091 C 0.97159 0.86548 0.77121 0.0
C3092 C 0.9503 0.87188 0.76421 0.0
C3093 C 0.90926 0.8691 0.76561 0.0
C3094 C 0.89008 0.86006 0.77395 0.0
C3095 C 0.91189 0.85259 0.78084 0.0
H3096 H 0.22437 0.1015 0.76995 0.0
H3097 H 0.23187 0.06133 0.79614 0.0
H3098 H 0.21501 0.11721 0.80178 0.0
H3099 H 0.27423 0.22154 0.77523 0.0
H3100 H 0.23955 0.22915 0.7676 0.0
H3101 H 0.25578 0.18836 0.76558 0.0
H3102 H 0.17347 0.12812 0.76408 0.0
H3103 H 0.15695 0.16854 0.76616 0.0
H3104 H 0.13569 0.1196 0.77277 0.0
H3105 H 0.18989 0.17112 0.80459 0.0
H3106 H 0.16275 0.22404 0.80451 0.0
H3107 H 0.1741 0.23283 0.77658 0.0
C3108 C 0.22326 0.10511 0.77687 0.0
C3109 C 0.22962 0.07717 0.78261 0.0
C3110 C 0.2277 0.08269 0.79162 0.0
C3111 C 0.21797 0.11425 0.79489 0.0
C3112 C 0.21111 0.14071 0.78908 0.0
C3113 C 0.21437 0.13713 0.78027 0.0
C3114 C 0.20462 0.1693 0.77547 0.0
C3115 C 0.24601 0.20415 0.77069 0.0
C3116 C 0.16533 0.14491 0.76926 0.0
C3117 C 0.19321 0.18984 0.78296 0.0
C3118 C 0.19762 0.17305 0.79074 0.0
C3119 C 0.18701 0.18509 0.79855 0.0
C3120 C 0.17145 0.21511 0.79843 0.0
C3121 C 0.16657 0.23288 0.79055 0.0
C3122 C 0.17805 0.22031 0.78271 0.0
H3123 H 0.97075 0.17368 0.77343 0.0
H3124 H 0.99408 0.2205 0.7999 0.0
H3125 H 0.93178 0.149 0.80469 0.0
H3126 H 0.84802 0.10415 0.77497 0.0
H3127 H 0.84739 0.06215 0.76811 0.0
H3128 H 0.88908 0.11925 0.76663 0.0
H3129 H 0.95028 0.0983 0.76829 0.0
H3130 H 0.90896 0.04134 0.76981 0.0
H3131 H 0.95134 0.06927 0.77784 0.0
H3132 H 0.87424 0.06946 0.8068 0.0
H3133 H 0.82568 0.98847 0.80604 0.0
H3134 H 0.83969 0.99418 0.77817 0.0
C3135 C 0.96205 0.16941 0.78021 0.0
C3136 C 0.98712 0.20275 0.78629 0.0
C3137 C 0.97511 0.19553 0.79512 0.0
C3138 C 0.93972 0.15505 0.7979 0.0
C3139 C 0.91646 0.12239 0.79176 0.0
C3140 C 0.92691 0.12929 0.78308 0.0
C3141 C 0.89963 0.08765 0.77788 0.0
C3142 C 0.86921 0.09367 0.77152 0.0
C3143 C 0.92933 0.07331 0.77319 0.0
C3144 C 0.87335 0.05578 0.78503 0.0
C3145 C 0.88308 0.07652 0.79297 0.0
C3146 C 0.86569 0.05302 0.8006 0.0
C3147 C 0.83825 0.00702 0.80011 0.0
C3148 C 0.8287 0.9851 0.79204 0.0
C3149 C 0.84571 0.01007 0.78441 0.0
H3150 H 0.16304 0.97091 0.27569 0.0
H3151 H 0.19548 0.96913 0.30265 0.0
H3152 H 0.22575 0.0497 0.3035 0.0
H3153 H 0.25895 0.08457 0.27053 0.0
H3154 H 0.22512 0.0971 0.2636 0.0
H3155 H 0.21389 0.04094 0.2646 0.0
H3156 H 0.13321 0.01603 0.26901 0.0
H3157 H 0.14423 0.07198 0.26809 0.0
H3158 H 0.1231 0.04215 0.27807 0.0
H3159 H 0.24362 0.12769 0.30205 0.0
H3160 H 0.24667 0.19798 0.29845 0.0
H3161 H 0.20053 0.14972 0.27253 0.0
C3162 C 0.17806 0.98789 0.28166 0.0
C3163 C 0.17751 0.96408 0.28908 0.0
C3164 C 0.19592 0.98695 0.29689 0.0
C3165 C 0.21333 0.03271 0.29742 0.0
C3166 C 0.21207 0.05517 0.29009 0.0
C3167 C 0.19513 0.03367 0.28234 0.0
C3168 C 0.19322 0.06479 0.27573 0.0
C3169 C 0.22467 0.07229 0.26817 0.0
C3170 C 0.14561 0.04771 0.27254 0.0
C3171 C 0.20966 0.10634 0.28112 0.0
C3172 C 0.22134 0.10032 0.28931 0.0
C3173 C 0.23524 0.13308 0.29561 0.0
C3174 C 0.23678 0.17289 0.2935 0.0
C3175 C 0.22387 0.17942 0.28521 0.0
C3176 C 0.21082 0.14585 0.27892 0.0
H3177 H 0.08858 0.20667 0.27392 0.0
H3178 H 0.07404 0.26481 0.29749 0.0
H3179 H 0.99301 0.21972 0.29633 0.0
H3180 H 0.98164 0.18747 0.26301 0.0
H3181 H 0.97126 0.13513 0.25874 0.0
H3182 H 0.02729 0.17967 0.2601 0.0
H3183 H 0.04481 0.12853 0.2694 0.0
H3184 H 0.98896 0.08413 0.26815 0.0
H3185 H 0.01164 0.10209 0.2788 0.0
H3186 H 0.91663 0.16053 0.29429 0.0
H3187 H 0.84848 0.09027 0.29146 0.0
H3188 H 0.91076 0.06759 0.26932 0.0
C3189 C 0.06805 0.21125 0.27857 0.0
C3190 C 0.08708 0.23966 0.28569 0.0
C3191 C 0.05971 0.24356 0.29193 0.0
C3192 C 0.01373 0.21824 0.2913 0.0
C3193 C 0.99572 0.18906 0.28441 0.0
C3194 C 0.02186 0.18553 0.2781 0.0
C3195 C 0.99438 0.14696 0.27213 0.0
C3196 C 0.9936 0.1633 0.26295 0.0
C3197 C 0.01094 0.11347 0.27213 0.0
C3198 C 0.94947 0.12804 0.27638 0.0
C3199 C 0.95087 0.15353 0.28332 0.0
C3200 C 0.91475 0.1408 0.28875 0.0
C3201 C 0.87626 0.10067 0.28712 0.0
C3202 C 0.87431 0.07354 0.28016 0.0
C3203 C 0.91111 0.08795 0.27462 0.0
H3204 H 0.98499 0.83642 0.29277 0.0
H3205 H 0.99437 0.83645 0.26485 0.0
H3206 H 0.92886 0.84519 0.26359 0.0
H3207 H 0.86179 0.78001 0.29401 0.0
H3208 H 0.86307 0.81411 0.30286 0.0
H3209 H 0.90681 0.80126 0.30163 0.0
H3210 H 0.96465 0.88481 0.3016 0.0
H3211 H 0.92121 0.89791 0.30282 0.0
H3212 H 0.95931 0.9207 0.29392 0.0
H3213 H 0.86679 0.86063 0.26523 0.0
H3214 H 0.81461 0.88516 0.26971 0.0
H3215 H 0.84622 0.87789 0.29656 0.0
C3216 C 0.97253 0.83717 0.28641 0.0
C3217 C 0.99448 0.83514 0.27891 0.0
C3218 C 0.97789 0.83747 0.27069 0.0
C3219 C 0.94057 0.84234 0.2699 0.0
C3220 C 0.92013 0.84508 0.27739 0.0
C3221 C 0.93545 0.84263 0.2855 0.0
C3222 C 0.90978 0.85055 0.29248 0.0
C3223 C 0.88382 0.80901 0.29807 0.0
C3224 C 0.94058 0.8909 0.29803 0.0
C3225 C 0.87887 0.85941 0.28702 0.0
C3226 C 0.88479 0.85516 0.27834 0.0
C3227 C 0.86147 0.86359 0.27202 0.0
C3228 C 0.83185 0.8775 0.27463 0.0
C3229 C 0.82619 0.88343 0.28348 0.0
C3230 C 0.84954 0.87344 0.28974 0.0
H3231 H 0.31842 0.82053 0.85923 0.0
H3232 H 0.29706 0.86789 0.88364 0.0
H3233 H 0.37618 0.89894 0.88721 0.0
H3234 H 0.3893 0.78531 0.86717 0.0
H3235 H 0.42439 0.80126 0.85778 0.0
H3236 H 0.36751 0.78721 0.85672 0.0
H3237 H 0.39178 0.8631 0.84959 0.0
H3238 H 0.44884 0.87736 0.85058 0.0
H3239 H 0.43054 0.91308 0.8551 0.0
H3240 H 0.45575 0.91879 0.88865 0.0
H3241 H 0.53003 0.92694 0.88781 0.0
H3242 H 0.49933 0.86627 0.86246 0.0
C3243 C 0.33044 0.83818 0.86526 0.0
C3244 C 0.30154 0.84201 0.87114 0.0
C3245 C 0.31861 0.86485 0.87901 0.0
C3246 C 0.36349 0.88256 0.88109 0.0
C3247 C 0.39083 0.87735 0.87521 0.0
C3248 C 0.37499 0.85593 0.86744 0.0
C3249 C 0.41048 0.85232 0.86248 0.0
C3250 C 0.39711 0.80364 0.86095 0.0
C3251 C 0.42103 0.878 0.85393 0.0
C3252 C 0.44867 0.87432 0.86876 0.0
C3253 C 0.43669 0.88876 0.87604 0.0
C3254 C 0.4656 0.90804 0.88294 0.0
C3255 C 0.50766 0.91232 0.88242 0.0
C3256 C 0.5205 0.89732 0.87508 0.0
C3257 C 0.49072 0.87864 0.86811 0.0
H3258 H 0.14399 0.63125 0.87038 0.0
H3259 H 0.24005 0.70941 0.89005 0.0
H3260 H 0.25769 0.65008 0.89217 0.0
H3261 H 0.10651 0.52391 0.88136 0.0
H3262 H 0.09893 0.4945 0.87138 0.0
H3263 H 0.09147 0.54203 0.87169 0.0
H3264 H 0.14912 0.57891 0.85946 0.0
H3265 H 0.15655 0.5315 0.85908 0.0
H3266 H 0.20356 0.58578 0.86076 0.0
H3267 H 0.26817 0.58491 0.89171 0.0
H3268 H 0.27248 0.51828 0.88835 0.0
H3269 H 0.16947 0.48089 0.86905 0.0
C3270 C 0.16849 0.63565 0.87516 0.0
C3271 C 0.1906 0.67495 0.88005 0.0
C3272 C 0.22241 0.67949 0.88627 0.0
C3273 C 0.23267 0.64594 0.88754 0.0
C3274 C 0.2104 0.60767 0.88263 0.0
C3275 C 0.17882 0.6021 0.8766 0.0
C3276 C 0.16061 0.5579 0.87207 0.0
C3277 C 0.11146 0.52781 0.87426 0.0
C3278 C 0.16794 0.56391 0.86226 0.0
C3279 C 0.18866 0.54075 0.87618 0.0
C3280 C 0.21644 0.56963 0.88238 0.0
C3281 C 0.24628 0.56176 0.88693 0.0
C3282 C 0.2484 0.5237 0.88497 0.0
C3283 C 0.22128 0.49423 0.87844 0.0
C3284 C 0.19048 0.50262 0.8741 0.0
H3285 H 0.40928 0.57642 0.88822 0.0
H3286 H 0.42607 0.5087 0.86633 0.0
H3287 H 0.49291 0.5778 0.86203 0.0
H3288 H 0.43627 0.67351 0.87752 0.0
H3289 H 0.46509 0.71007 0.88639 0.0
H3290 H 0.42257 0.65411 0.88849 0.0
H3291 H 0.47768 0.64104 0.89747 0.0
H3292 H 0.52047 0.69716 0.89542 0.0
H3293 H 0.52924 0.65191 0.8927 0.0
H3294 H 0.55068 0.6558 0.8589 0.0
H3295 H 0.59687 0.73678 0.85742 0.0
H3296 H 0.54514 0.75451 0.88157 0.0
C3297 C 0.42765 0.57574 0.88265 0.0
C3298 C 0.41244 0.53692 0.87764 0.0
C3299 C 0.43711 0.53782 0.87031 0.0
C3300 C 0.4752 0.57697 0.86782 0.0
C3301 C 0.48855 0.61491 0.87277 0.0
C3302 C 0.46579 0.61455 0.88009 0.0
C3303 C 0.48498 0.66062 0.88387 0.0
C3304 C 0.45016 0.67543 0.88408 0.0
C3305 C 0.50424 0.6628 0.8929 0.0
C3306 C 0.52124 0.68724 0.87739 0.0
C3307 C 0.52285 0.66008 0.87107 0.0
C3308 C 0.5505 0.67724 0.86392 0.0
C3309 C 0.57659 0.72326 0.86313 0.0
C3310 C 0.57527 0.75172 0.86948 0.0
C3311 C 0.5479 0.73341 0.87679 0.0
H3312 H 0.84801 0.88659 0.70112 0.0
H3313 H 0.81507 0.87194 0.72837 0.0
H3314 H 0.82699 0.94776 0.72868 0.0
H3315 H 0.93529 0.99646 0.70235 0.0
H3316 H 0.92374 0.01351 0.69215 0.0
H3317 H 0.90838 0.95662 0.69385 0.0
H3318 H 0.82735 0.93238 0.68984 0.0
H3319 H 0.84248 0.9893 0.68814 0.0
H3320 H 0.79882 0.95563 0.69558 0.0
H3321 H 0.84679 0.02697 0.72626 0.0
H3322 H 0.87557 0.10403 0.72139 0.0
H3323 H 0.89681 0.0677 0.6958 0.0
C3324 C 0.84253 0.89903 0.70712 0.0
C3325 C 0.83027 0.87306 0.71472 0.0
C3326 C 0.8243 0.89101 0.72246 0.0
C3327 C 0.83087 0.93408 0.7227 0.0
C3328 C 0.84348 0.95901 0.71513 0.0
C3329 C 0.84926 0.94216 0.70748 0.0
C3330 C 0.86558 0.9768 0.7004 0.0
C3331 C 0.91094 0.98641 0.69699 0.0
C3332 C 0.83152 0.96267 0.69306 0.0
C3333 C 0.869 0.01595 0.70531 0.0
C3334 C 0.85553 0.00486 0.71377 0.0
C3335 C 0.85709 0.03595 0.71963 0.0
C3336 C 0.87344 0.07967 0.7168 0.0
C3337 C 0.88842 0.09205 0.70821 0.0
C3338 C 0.88547 0.0594 0.7024 0.0
H3339 H 0.99606 0.83037 0.69847 0.0
H3340 H 0.94753 0.81489 0.72474 0.0
H3341 H 0.02264 0.86945 0.7297 0.0
H3342 H 0.10877 0.84857 0.70422 0.0
H3343 H 0.13431 0.88823 0.69563 0.0
H3344 H 0.07854 0.84306 0.69442 0.0
H3345 H 0.05204 0.89895 0.69113 0.0
H3346 H 0.10745 0.9442 0.69243 0.0
H3347 H 0.06327 0.94214 0.6988 0.0
H3348 H 0.09915 0.93476 0.73129 0.0
H3349 H 0.17291 1.00079 0.72965 0.0
H3350 H 0.17278 0.97094 0.70248 0.0
C3351 C 1.00151 0.83748 0.70531 0.0
C3352 C 0.96604 0.81836 0.71123 0.0
C3353 C 0.97433 0.82879 0.72011 0.0
C3354 C 0.01687 0.85985 0.72298 0.0
C3355 C 0.0508 0.87939 0.71691 0.0
C3356 C 0.04377 0.86793 0.70828 0.0
C3357 C 0.08496 0.89583 0.70298 0.0
C3358 C 0.10269 0.86721 0.69909 0.0
C3359 C 0.07639 0.92181 0.69592 0.0
C3360 C 0.11563 0.92623 0.70989 0.0
C3361 C 0.09545 0.91605 0.7179 0.0
C3362 C 0.11574 0.94223 0.72511 0.0
C3363 C 0.15764 0.97974 0.72411 0.0
C3364 C 0.17902 0.99052 0.71598 0.0
C3365 C 0.15779 0.963 0.70882 0.0
H3366 H 0.19241 0.15736 0.69572 0.0
H3367 H 0.25702 0.18823 0.72073 0.0
H3368 H 0.21349 0.22344 0.72507 0.0
H3369 H 0.18408 0.25789 0.69353 0.0
H3370 H 0.1307 0.22843 0.68841 0.0
H3371 H 0.17006 0.20976 0.68706 0.0
H3372 H 0.11213 0.13223 0.69273 0.0
H3373 H 0.07274 0.15069 0.69413 0.0
H3374 H 0.08693 0.12739 0.70313 0.0
H3375 H 0.15772 0.24915 0.72706 0.0
H3376 H 0.09564 0.26411 0.72648 0.0
H3377 H 0.06856 0.21651 0.70007 0.0
C3378 C 0.19803 0.17214 0.70207 0.0
C3379 C 0.22823 0.17016 0.70788 0.0
C3380 C 0.2343 0.18965 0.71615 0.0
C3381 C 0.2097 0.20967 0.71867 0.0
C3382 C 0.17957 0.21026 0.71282 0.0
C3383 C 0.17396 0.19226 0.70466 0.0
C3384 C 0.13792 0.19493 0.69972 0.0
C3385 C 0.15683 0.22452 0.69171 0.0
C3386 C 0.10021 0.14856 0.69729 0.0
C3387 C 0.12326 0.21633 0.70644 0.0
C3388 C 0.14785 0.22523 0.71393 0.0
C3389 C 0.13871 0.24288 0.72118 0.0
C3390 C 0.10334 0.25122 0.72079 0.0
C3391 C 0.07743 0.2418 0.7132 0.0
C3392 C 0.08808 0.22468 0.70592 0.0
H3393 H 0.73735 0.18531 0.1138 0.0
H3394 H 0.77299 0.27843 0.13501 0.0
H3395 H 0.69708 0.2644 0.13568 0.0
H3396 H 0.66007 0.21131 0.10338 0.0
H3397 H 0.62061 0.15493 0.10063 0.0
H3398 H 0.67838 0.17192 0.10158 0.0
H3399 H 0.65937 0.10994 0.1128 0.0
H3400 H 0.60154 0.09288 0.1119 0.0
H3401 H 0.6282 0.10702 0.1223 0.0
H3402 H 0.61897 0.24079 0.13458 0.0
H3403 H 0.54024 0.20981 0.13126 0.0
H3404 H 0.55113 0.13142 0.11065 0.0
C3405 C 0.72895 0.20255 0.11857 0.0
C3406 C 0.76109 0.23254 0.12443 0.0
C3407 C 0.74893 0.25465 0.13056 0.0
C3408 C 0.70585 0.24713 0.13099 0.0
C3409 C 0.67484 0.21706 0.12527 0.0
C3410 C 0.68543 0.19498 0.11917 0.0
C3411 C 0.64473 0.16393 0.11393 0.0
C3412 C 0.65136 0.17629 0.10431 0.0
C3413 C 0.63276 0.11558 0.11532 0.0
C3414 C 0.61029 0.17294 0.11798 0.0
C3415 C 0.62865 0.20341 0.12457 0.0
C3416 C 0.60401 0.21681 0.12945 0.0
C3417 C 0.55919 0.19877 0.12754 0.0
C3418 C 0.53943 0.16798 0.12073 0.0
C3419 C 0.56539 0.15488 0.11589 0.0
H3420 H 0.8025 0.36694 0.1166 0.0
H3421 H 0.94199 0.43158 0.12302 0.0
H3422 H 0.94111 0.50065 0.12629 0.0
H3423 H 0.80324 0.46053 0.10666 0.0
H3424 H 0.74993 0.44685 0.11096 0.0
H3425 H 0.76264 0.40371 0.10882 0.0
H3426 H 0.74353 0.37684 0.12466 0.0
H3427 H 0.73096 0.42003 0.12686 0.0
H3428 H 0.77131 0.41523 0.13334 0.0
H3429 H 0.92477 0.56335 0.12823 0.0
H3430 H 0.89282 0.61283 0.12967 0.0
H3431 H 0.76352 0.50367 0.12316 0.0
C3432 C 0.83297 0.39573 0.11862 0.0
C3433 C 0.8724 0.39435 0.11951 0.0
C3434 C 0.91147 0.43229 0.12231 0.0
C3435 C 0.91128 0.47153 0.12416 0.0
C3436 C 0.87163 0.47172 0.12326 0.0
C3437 C 0.83316 0.43465 0.12062 0.0
C3438 C 0.79454 0.44271 0.1204 0.0
C3439 C 0.77656 0.4382 0.11116 0.0
C3440 C 0.75795 0.41188 0.12669 0.0
C3441 C 0.81715 0.49006 0.12342 0.0
C3442 C 0.86176 0.50661 0.1249 0.0
C3443 C 0.88978 0.5506 0.12723 0.0
C3444 C 0.87154 0.57832 0.12805 0.0
C3445 C 0.82584 0.56126 0.12673 0.0
C3446 C 0.7984 0.51678 0.12444 0.0
H3447 H 0.65784 0.49747 0.12698 0.0
H3448 H 0.6289 0.51954 0.10084 0.0
H3449 H 0.56287 0.44534 0.10063 0.0
H3450 H 0.63012 0.38718 0.12382 0.0
H3451 H 0.60598 0.36787 0.13433 0.0
H3452 H 0.64803 0.4247 0.13285 0.0
H3453 H 0.59551 0.45027 0.13905 0.0
H3454 H 0.55324 0.39345 0.14058 0.0
H3455 H 0.54159 0.43001 0.13432 0.0
H3456 H 0.50346 0.36651 0.10275 0.0
H3457 H 0.45545 0.28853 0.1071 0.0
H3458 H 0.52284 0.31698 0.13182 0.0
C3459 C 0.63688 0.48704 0.12132 0.0
C3460 C 0.64828 0.51441 0.11394 0.0
C3461 C 0.62078 0.49913 0.10655 0.0
C3462 C 0.58307 0.45706 0.10638 0.0
C3463 C 0.57318 0.43041 0.11366 0.0
C3464 C 0.59918 0.44476 0.12101 0.0
C3465 C 0.58299 0.40827 0.12771 0.0
C3466 C 0.61891 0.39631 0.1298 0.0
C3467 C 0.5674 0.42128 0.1359 0.0
C3468 C 0.54442 0.37112 0.12292 0.0
C3469 C 0.53907 0.38468 0.11486 0.0
C3470 C 0.50696 0.3556 0.1091 0.0
C3471 C 0.47984 0.31134 0.11161 0.0
C3472 C 0.48511 0.29655 0.1198 0.0
C3473 C 0.51755 0.3272 0.12554 0.0
H3474 H 0.83777 0.31971 0.62999 0.0
H3475 H 0.8436 0.28646 0.60323 0.0
H3476 H 0.86099 0.36158 0.59886 0.0
H3477 H 0.78431 0.37942 0.62659 0.0
H3478 H 0.81413 0.42112 0.63464 0.0
H3479 H 0.80764 0.36691 0.63583 0.0
H3480 H 0.89254 0.40098 0.6369 0.0
H3481 H 0.89936 0.45547 0.63582 0.0
H3482 H 0.92739 0.43749 0.62851 0.0
H3483 H 0.86767 0.43625 0.59725 0.0
H3484 H 0.86892 0.50722 0.59854 0.0
H3485 H 0.86184 0.49393 0.62641 0.0
C3486 C 0.84373 0.32854 0.62323 0.0
C3487 C 0.83948 0.2972 0.61695 0.0
C3488 C 0.84714 0.30997 0.60816 0.0
C3489 C 0.85689 0.35255 0.60562 0.0
C3490 C 0.85952 0.38219 0.61195 0.0
C3491 C 0.85389 0.371 0.62059 0.0
C3492 C 0.85632 0.40822 0.62606 0.0
C3493 C 0.81302 0.39299 0.63107 0.0
C3494 C 0.89629 0.42663 0.63219 0.0
C3495 C 0.86262 0.44153 0.61913 0.0
C3496 C 0.86453 0.42585 0.61103 0.0
C3497 C 0.86704 0.44916 0.60356 0.0
C3498 C 0.86752 0.4894 0.60436 0.0
C3499 C 0.86587 0.50635 0.61258 0.0
C3500 C 0.8639 0.48221 0.62006 0.0
H3501 H 0.72047 0.52569 0.62992 0.0
H3502 H 0.74725 0.60698 0.60704 0.0
H3503 H 0.66725 0.56754 0.6036 0.0
H3504 H 0.64188 0.42711 0.62025 0.0
H3505 H 0.60811 0.40597 0.62978 0.0
H3506 H 0.66641 0.44387 0.6308 0.0
H3507 H 0.65005 0.49631 0.63995 0.0
H3508 H 0.59157 0.45855 0.63892 0.0
H3509 H 0.61447 0.5154 0.63564 0.0
H3510 H 0.58419 0.51425 0.60216 0.0
H3511 H 0.50761 0.45096 0.60258 0.0
H3512 H 0.53774 0.40646 0.62648 0.0
C3513 C 0.70959 0.53594 0.62427 0.0
C3514 C 0.74003 0.56969 0.61879 0.0
C3515 C 0.7244 0.58138 0.61136 0.0
C3516 C 0.67905 0.55924 0.60937 0.0
C3517 C 0.64996 0.52566 0.61488 0.0
C3518 C 0.6648 0.51414 0.62217 0.0
C3519 C 0.62784 0.47477 0.62671 0.0
C3520 C 0.63659 0.43564 0.62689 0.0
C3521 C 0.62056 0.48702 0.63585 0.0
C3522 C 0.58975 0.46563 0.62082 0.0
C3523 C 0.60283 0.49532 0.61405 0.0
C3524 C 0.57348 0.49127 0.60751 0.0
C3525 C 0.53 0.45539 0.60783 0.0
C3526 C 0.51664 0.42407 0.61461 0.0
C3527 C 0.54677 0.4301 0.62126 0.0
H3528 H 0.63821 0.13945 0.62056 0.0
H3529 H 0.71196 0.22943 0.59969 0.0
H3530 H 0.65425 0.24966 0.59816 0.0
H3531 H 0.52867 0.10274 0.61105 0.0
H3532 H 0.50292 0.09918 0.62132 0.0
H3533 H 0.54925 0.08992 0.62066 0.0
H3534 H 0.59138 0.15103 0.63207 0.0
H3535 H 0.54514 0.16026 0.63281 0.0
H3536 H 0.59933 0.20559 0.63028 0.0
H3537 H 0.59115 0.26261 0.5991 0.0
H3538 H 0.52628 0.26937 0.60283 0.0
H3539 H 0.49171 0.17076 0.62299 0.0
C3540 C 0.64195 0.16317 0.61564 0.0
C3541 C 0.6794 0.18263 0.61021 0.0
C3542 C 0.6833 0.21365 0.60386 0.0
C3543 C 0.65071 0.22544 0.60293 0.0
C3544 C 0.61412 0.20557 0.60833 0.0
C3545 C 0.60933 0.17504 0.61455 0.0
C3546 C 0.56686 0.1594 0.61958 0.0
C3547 C 0.53504 0.10987 0.61806 0.0
C3548 C 0.57627 0.16972 0.62926 0.0
C3549 C 0.54962 0.18723 0.61542 0.0
C3550 C 0.57716 0.21307 0.60886 0.0
C3551 C 0.56903 0.24231 0.60418 0.0
C3552 C 0.53202 0.24584 0.60634 0.0
C3553 C 0.50384 0.22056 0.61319 0.0
C3554 C 0.51247 0.19036 0.61769 0.0
H3555 H 0.97875 0.13619 0.19481 0.0
H3556 H 0.95775 0.20702 0.21559 0.0
H3557 H 0.03777 0.24432 0.21905 0.0
H3558 H 0.05413 0.11521 0.20592 0.0
H3559 H 0.08728 0.12128 0.19655 0.0
H3560 H 0.0295 0.10342 0.19532 0.0
H3561 H 0.04879 0.16804 0.18471 0.0
H3562 H 0.1067 0.18604 0.18587 0.0
H3563 H 0.08688 0.22392 0.18802 0.0
H3564 H 0.11988 0.27048 0.22063 0.0
H3565 H 0.1959 0.2827 0.22036 0.0
H3566 H 0.16123 0.19316 0.1986 0.0
C3567 C 0.99087 0.15997 0.20003 0.0
C3568 C 0.96199 0.16886 0.20491 0.0
C3569 C 0.97932 0.19988 0.21173 0.0
C3570 C 0.02468 0.22119 0.21374 0.0
C3571 C 0.05207 0.21107 0.20884 0.0
C3572 C 0.03568 0.1812 0.20212 0.0
C3573 C 0.07117 0.1741 0.19811 0.0
C3574 C 0.05983 0.12564 0.19904 0.0
C3575 C 0.07883 0.18892 0.18862 0.0
C3576 C 0.11028 0.20442 0.20366 0.0
C3577 C 0.09877 0.22567 0.20979 0.0
C3578 C 0.12925 0.25426 0.21581 0.0
C3579 C 0.1724 0.26098 0.2156 0.0
C3580 C 0.18469 0.23906 0.20942 0.0
C3581 C 0.15311 0.21074 0.20335 0.0
H3582 H 0.80363 0.96134 0.20486 0.0
H3583 H 0.8915 0.03536 0.22593 0.0
H3584 H 0.90757 0.97502 0.22839 0.0
H3585 H 0.76126 0.85032 0.21485 0.0
H3586 H 0.75899 0.82495 0.20459 0.0
H3587 H 0.75058 0.87185 0.20512 0.0
H3588 H 0.81368 0.91355 0.19405 0.0
H3589 H 0.82231 0.86696 0.19348 0.0
H3590 H 0.86764 0.92075 0.19624 0.0
H3591 H 0.92131 0.91126 0.22738 0.0
H3592 H 0.92997 0.84772 0.22317 0.0
H3593 H 0.831 0.81387 0.20317 0.0
C3594 C 0.82559 0.96447 0.21009 0.0
C3595 C 0.84632 0.00304 0.21519 0.0
C3596 C 0.87508 0.00603 0.22195 0.0
C3597 C 0.88439 0.97189 0.22342 0.0
C3598 C 0.8641 0.93465 0.21817 0.0
C3599 C 0.83491 0.9305 0.2117 0.0
C3600 C 0.81949 0.88822 0.20666 0.0
C3601 C 0.76962 0.85698 0.20788 0.0
C3602 C 0.83153 0.89798 0.19704 0.0
C3603 C 0.84607 0.87026 0.21104 0.0
C3604 C 0.87124 0.89726 0.21773 0.0
C3605 C 0.90109 0.88932 0.22228 0.0
C3606 C 0.90583 0.8532 0.21984 0.0
C3607 C 0.88085 0.82557 0.21291 0.0
C3608 C 0.84995 0.83382 0.20861 0.0
H3609 H 0.09263 0.9021 0.21769 0.0
H3610 H 0.07723 0.84909 0.1918 0.0
H3611 H 0.14357 0.91778 0.18716 0.0
H3612 H 0.11772 0.00527 0.2119 0.0
H3613 H 0.15784 0.03433 0.22026 0.0
H3614 H 0.11511 0.97816 0.22198 0.0
H3615 H 0.17404 0.95566 0.2253 0.0
H3616 H 0.21718 0.01206 0.22365 0.0
H3617 H 0.21741 0.96809 0.21761 0.0
H3618 H 0.20205 0.99648 0.18473 0.0
H3619 H 0.24996 0.0777 0.18488 0.0
H3620 H 0.22848 0.07859 0.21244 0.0
C3621 C 0.10399 0.90437 0.21111 0.0
C3622 C 0.07983 0.87031 0.20511 0.0
C3623 C 0.09543 0.87468 0.19653 0.0
C3624 C 0.13313 0.91357 0.19383 0.0
C3625 C 0.1552 0.94733 0.19983 0.0
C3626 C 0.14158 0.9428 0.20833 0.0
C3627 C 0.16806 0.98541 0.2133 0.0
C3628 C 0.13788 1.00173 0.21707 0.0
C3629 C 0.19583 0.97997 0.22038 0.0
C3630 C 0.19704 0.01534 0.20615 0.0
C3631 C 0.18964 0.99266 0.19845 0.0
C3632 C 0.20901 0.01438 0.19075 0.0
C3633 C 0.23599 0.06051 0.19089 0.0
C3634 C 0.24321 0.08433 0.19868 0.0
C3635 C 0.22439 0.06118 0.20642 0.0
loop_
_geom_bond_atom_site_label_1
_geom_bond_atom_site_label_2
_geom_bond_distance
_geom_bond_site_symmetry_2
_ccdc_geom_bond_type
Zn0 O6 1.969 . S
Zn0 O7 1.965 1_565 S
Zn0 O11 2.024 . S
Zn0 O16 1.969 . S
Zn1 O8 1.969 . S
Zn1 O14 1.969 . S
Zn1 O15 1.965 . S
Zn1 O17 2.024 . S
C2 O3 1.229 . S
C2 O11 1.058 . S
O3 C2 1.229 . S
C4 O5 1.229 . S
C4 O17 1.058 . S
O5 C4 1.229 . S
O6 Zn0 1.969 . S
O6 C9 1.267 . S
O7 Zn0 1.965 1_545 S
O7 C18 1.260 . S
O8 Zn1 1.969 . S
O8 C18 1.258 . S
C9 O6 1.267 . S
C9 O10 1.228 . S
O10 C9 1.228 . S
O11 Zn0 2.024 . S
O11 C2 1.058 . S
C12 O13 1.228 . S
C12 O14 1.267 . S
O13 C12 1.228 . S
O14 Zn1 1.969 . S
O14 C12 1.267 . S
O15 Zn1 1.965 . S
O15 C19 1.260 . S
O16 Zn0 1.969 . S
O16 C19 1.258 1_565 S
O17 Zn1 2.024 . S
O17 C4 1.058 . S
C18 O7 1.260 . S
C18 O8 1.258 . S
C19 O15 1.260 . S
C19 O16 1.258 1_545 S
Zn20 O26 1.969 . S
Zn20 O27 1.965 . S
Zn20 O31 2.024 . S
Zn20 O36 1.969 . S
Zn21 O28 1.969 . S
Zn21 O34 1.969 . S
Zn21 O35 1.965 . S
Zn21 O37 2.024 . S
C22 O23 1.229 . S
C22 O31 1.058 . S
O23 C22 1.229 . S
C24 O25 1.229 . S
C24 O37 1.058 . S
O25 C24 1.229 . S
O26 Zn20 1.969 . S
O26 C29 1.267 . S
O27 Zn20 1.965 . S
O27 C38 1.260 . S
O28 Zn21 1.969 . S
O28 C38 1.258 1_655 S
C29 O26 1.267 . S
C29 O30 1.228 . S
O30 C29 1.228 . S
O31 Zn20 2.024 . S
O31 C22 1.058 . S
C32 O33 1.228 . S
C32 O34 1.267 . S
O33 C32 1.228 . S
O34 Zn21 1.969 . S
O34 C32 1.267 . S
O35 Zn21 1.965 . S
O35 C39 1.260 1_655 S
O36 Zn20 1.969 . S
O36 C39 1.258 . S
O37 Zn21 2.024 . S
O37 C24 1.058 . S
C38 O27 1.260 . S
C38 O28 1.258 1_455 S
C39 O35 1.260 1_455 S
C39 O36 1.258 . S
Zn40 O46 1.969 . S
Zn40 O47 1.965 . S
Zn40 O51 2.024 . S
Zn40 O56 1.969 . S
Zn41 O48 1.969 . S
Zn41 O54 1.969 . S
Zn41 O55 1.965 . S
Zn41 O57 2.024 . S
C42 O43 1.229 . S
C42 O51 1.058 . S
O43 C42 1.229 . S
C44 O45 1.229 . S
C44 O57 1.058 . S
O45 C44 1.229 . S
O46 Zn40 1.969 . S
O46 C49 1.267 . S
O47 Zn40 1.965 . S
O47 C58 1.260 . S
O48 Zn41 1.969 . S
O48 C58 1.258 . S
C49 O46 1.267 . S
C49 O50 1.228 . S
O50 C49 1.228 . S
O51 Zn40 2.024 . S
O51 C42 1.058 . S
C52 O53 1.228 . S
C52 O54 1.267 . S
O53 C52 1.228 . S
O54 Zn41 1.969 . S
O54 C52 1.267 . S
O55 Zn41 1.965 . S
O55 C59 1.260 . S
O56 Zn40 1.969 . S
O56 C59 1.258 . S
O57 Zn41 2.024 . S
O57 C44 1.058 . S
C58 O47 1.260 . S
C58 O48 1.258 . S
C59 O55 1.260 . S
C59 O56 1.258 . S
Zn60 O66 1.969 . S
Zn60 O67 1.965 1_655 S
Zn60 O71 2.024 . S
Zn60 O76 1.969 . S
Zn61 O68 1.969 . S
Zn61 O74 1.969 . S
Zn61 O75 1.965 . S
Zn61 O77 2.024 . S
C62 O63 1.229 . S
C62 O71 1.058 . S
O63 C62 1.229 . S
C64 O65 1.229 . S
C64 O77 1.058 . S
O65 C64 1.229 . S
O66 Zn60 1.969 . S
O66 C69 1.267 . S
O67 Zn60 1.965 1_455 S
O67 C78 1.260 . S
O68 Zn61 1.969 . S
O68 C78 1.258 . S
C69 O66 1.267 . S
C69 O70 1.228 . S
O70 C69 1.228 . S
O71 Zn60 2.024 . S
O71 C62 1.058 . S
C72 O73 1.228 . S
C72 O74 1.267 . S
O73 C72 1.228 . S
O74 Zn61 1.969 . S
O74 C72 1.267 . S
O75 Zn61 1.965 . S
O75 C79 1.260 . S
O76 Zn60 1.969 . S
O76 C79 1.258 1_655 S
O77 Zn61 2.024 . S
O77 C64 1.058 . S
C78 O67 1.260 . S
C78 O68 1.258 . S
C79 O75 1.260 . S
C79 O76 1.258 1_455 S
Zn80 O86 1.969 . S
Zn80 O87 1.965 . S
Zn80 O91 2.024 . S
Zn80 O96 1.969 . S
Zn81 O88 1.969 . S
Zn81 O94 1.969 . S
Zn81 O95 1.965 . S
Zn81 O97 2.024 . S
C82 O83 1.229 . S
C82 O91 1.058 . S
O83 C82 1.229 . S
C84 O85 1.229 . S
C84 O97 1.058 . S
O85 C84 1.229 . S
O86 Zn80 1.969 . S
O86 C89 1.267 . S
O87 Zn80 1.965 . S
O87 C98 1.260 . S
O88 Zn81 1.969 . S
O88 C98 1.258 . S
C89 O86 1.267 . S
C89 O90 1.228 . S
O90 C89 1.228 . S
O91 Zn80 2.024 . S
O91 C82 1.058 . S
C92 O93 1.228 . S
C92 O94 1.267 . S
O93 C92 1.228 . S
O94 Zn81 1.969 . S
O94 C92 1.267 . S
O95 Zn81 1.965 . S
O95 C99 1.260 . S
O96 Zn80 1.969 . S
O96 C99 1.258 . S
O97 Zn81 2.024 . S
O97 C84 1.058 . S
C98 O87 1.260 . S
C98 O88 1.258 . S
C99 O95 1.260 . S
C99 O96 1.258 . S
Zn100 O106 1.969 . S
Zn100 O107 1.965 . S
Zn100 O111 2.024 . S
Zn100 O116 1.969 . S
Zn101 O108 1.969 . S
Zn101 O114 1.969 . S
Zn101 O115 1.965 . S
Zn101 O117 2.024 . S
C102 O103 1.229 . S
C102 O111 1.058 . S
O103 C102 1.229 . S
C104 O105 1.229 . S
C104 O117 1.058 . S
O105 C104 1.229 . S
O106 Zn100 1.969 . S
O106 C109 1.267 . S
O107 Zn100 1.965 . S
O107 C118 1.260 . S
O108 Zn101 1.969 . S
O108 C118 1.258 1_565 S
C109 O106 1.267 . S
C109 O110 1.228 . S
O110 C109 1.228 . S
O111 Zn100 2.024 . S
O111 C102 1.058 . S
C112 O113 1.228 . S
C112 O114 1.267 . S
O113 C112 1.228 . S
O114 Zn101 1.969 . S
O114 C112 1.267 . S
O115 Zn101 1.965 . S
O115 C119 1.260 1_565 S
O116 Zn100 1.969 . S
O116 C119 1.258 . S
O117 Zn101 2.024 . S
O117 C104 1.058 . S
C118 O107 1.260 . S
C118 O108 1.258 1_545 S
C119 O115 1.260 1_545 S
C119 O116 1.258 . S
Zn120 O126 1.969 . S
Zn120 O127 1.965 . S
Zn120 O131 2.024 . S
Zn120 O136 1.969 . S
Zn121 O128 1.969 . S
Zn121 O134 1.969 . S
Zn121 O135 1.965 . S
Zn121 O137 2.024 . S
C122 O123 1.229 . S
C122 O131 1.058 . S
O123 C122 1.229 . S
C124 O125 1.229 . S
C124 O137 1.058 . S
O125 C124 1.229 . S
O126 Zn120 1.969 . S
O126 C129 1.267 . S
O127 Zn120 1.965 . S
O127 C138 1.260 1_565 S
O128 Zn121 1.969 . S
O128 C138 1.258 . S
C129 O126 1.267 . S
C129 O130 1.228 . S
O130 C129 1.228 . S
O131 Zn120 2.024 . S
O131 C122 1.058 . S
C132 O133 1.228 . S
C132 O134 1.267 . S
O133 C132 1.228 . S
O134 Zn121 1.969 . S
O134 C132 1.267 . S
O135 Zn121 1.965 . S
O135 C139 1.260 . S
O136 Zn120 1.969 . S
O136 C139 1.258 1_565 S
O137 Zn121 2.024 . S
O137 C124 1.058 . S
C138 O127 1.260 1_545 S
C138 O128 1.258 . S
C139 O135 1.260 . S
C139 O136 1.258 1_545 S
Zn140 O146 1.969 . S
Zn140 O147 1.965 . S
Zn140 O151 2.024 . S
Zn140 O156 1.969 . S
Zn141 O148 1.969 . S
Zn141 O154 1.969 . S
Zn141 O155 1.965 1_655 S
Zn141 O157 2.024 . S
C142 O143 1.229 . S
C142 O151 1.058 . S
O143 C142 1.229 . S
C144 O145 1.229 . S
C144 O157 1.058 . S
O145 C144 1.229 . S
O146 Zn140 1.969 . S
O146 C149 1.267 . S
O147 Zn140 1.965 . S
O147 C158 1.260 . S
O148 Zn141 1.969 . S
O148 C158 1.258 1_655 S
C149 O146 1.267 . S
C149 O150 1.228 . S
O150 C149 1.228 . S
O151 Zn140 2.024 . S
O151 C142 1.058 . S
C152 O153 1.228 . S
C152 O154 1.267 . S
O153 C152 1.228 . S
O154 Zn141 1.969 . S
O154 C152 1.267 . S
O155 Zn141 1.965 1_455 S
O155 C159 1.260 . S
O156 Zn140 1.969 . S
O156 C159 1.258 . S
O157 Zn141 2.024 . S
O157 C144 1.058 . S
C158 O147 1.260 . S
C158 O148 1.258 1_455 S
C159 O155 1.260 . S
C159 O156 1.258 . S
Zn160 O166 1.969 . S
Zn160 O167 1.965 . S
Zn160 O171 2.024 . S
Zn160 O176 1.969 . S
Zn161 O168 1.969 . S
Zn161 O174 1.969 . S
Zn161 O175 1.965 . S
Zn161 O177 2.024 . S
C162 O163 1.229 . S
C162 O171 1.058 . S
O163 C162 1.229 . S
C164 O165 1.229 . S
C164 O177 1.058 . S
O165 C164 1.229 . S
O166 Zn160 1.969 . S
O166 C169 1.267 . S
O167 Zn160 1.965 . S
O167 C178 1.260 . S
O168 Zn161 1.969 . S
O168 C178 1.258 . S
C169 O166 1.267 . S
C169 O170 1.228 . S
O170 C169 1.228 . S
O171 Zn160 2.024 . S
O171 C162 1.058 . S
C172 O173 1.228 . S
C172 O174 1.267 . S
O173 C172 1.228 . S
O174 Zn161 1.969 . S
O174 C172 1.267 . S
O175 Zn161 1.965 . S
O175 C179 1.260 . S
O176 Zn160 1.969 . S
O176 C179 1.258 . S
O177 Zn161 2.024 . S
O177 C164 1.058 . S
C178 O167 1.260 . S
C178 O168 1.258 . S
C179 O175 1.260 . S
C179 O176 1.258 . S
Zn180 O186 1.969 . S
Zn180 O187 1.965 . S
Zn180 O191 2.024 . S
Zn180 O196 1.969 . S
Zn181 O188 1.969 . S
Zn181 O194 1.969 . S
Zn181 O195 1.965 . S
Zn181 O197 2.024 . S
C182 O183 1.229 . S
C182 O191 1.058 . S
O183 C182 1.229 . S
C184 O185 1.229 . S
C184 O197 1.058 . S
O185 C184 1.229 . S
O186 Zn180 1.969 . S
O186 C189 1.267 . S
O187 Zn180 1.965 . S
O187 C198 1.260 1_655 S
O188 Zn181 1.969 . S
O188 C198 1.258 . S
C189 O186 1.267 . S
C189 O190 1.228 . S
O190 C189 1.228 . S
O191 Zn180 2.024 . S
O191 C182 1.058 . S
C192 O193 1.228 . S
C192 O194 1.267 . S
O193 C192 1.228 . S
O194 Zn181 1.969 . S
O194 C192 1.267 . S
O195 Zn181 1.965 . S
O195 C199 1.260 . S
O196 Zn180 1.969 . S
O196 C199 1.258 1_655 S
O197 Zn181 2.024 . S
O197 C184 1.058 . S
C198 O187 1.260 1_455 S
C198 O188 1.258 . S
C199 O195 1.260 . S
C199 O196 1.258 1_455 S
Zn200 O206 1.969 . S
Zn200 O207 1.965 . S
Zn200 O211 2.024 . S
Zn200 O216 1.969 . S
Zn201 O208 1.969 . S
Zn201 O214 1.969 . S
Zn201 O215 1.965 . S
Zn201 O217 2.024 . S
C202 O203 1.229 . S
C202 O211 1.058 . S
O203 C202 1.229 . S
C204 O205 1.229 . S
C204 O217 1.058 . S
O205 C204 1.229 . S
O206 Zn200 1.969 . S
O206 C209 1.267 . S
O207 Zn200 1.965 . S
O207 C218 1.260 . S
O208 Zn201 1.969 . S
O208 C218 1.258 . S
C209 O206 1.267 . S
C209 O210 1.228 . S
O210 C209 1.228 . S
O211 Zn200 2.024 . S
O211 C202 1.058 . S
C212 O213 1.228 . S
C212 O214 1.267 . S
O213 C212 1.228 . S
O214 Zn201 1.969 . S
O214 C212 1.267 . S
O215 Zn201 1.965 . S
O215 C219 1.260 . S
O216 Zn200 1.969 . S
O216 C219 1.258 . S
O217 Zn201 2.024 . S
O217 C204 1.058 . S
C218 O207 1.260 . S
C218 O208 1.258 . S
C219 O215 1.260 . S
C219 O216 1.258 . S
Zn220 O226 1.969 . S
Zn220 O227 1.965 . S
Zn220 O231 2.024 . S
Zn220 O236 1.969 . S
Zn221 O228 1.969 . S
Zn221 O234 1.969 . S
Zn221 O235 1.965 1_565 S
Zn221 O237 2.024 . S
C222 O223 1.229 . S
C222 O231 1.058 . S
O223 C222 1.229 . S
C224 O225 1.229 . S
C224 O237 1.058 . S
O225 C224 1.229 . S
O226 Zn220 1.969 . S
O226 C229 1.267 . S
O227 Zn220 1.965 . S
O227 C238 1.260 . S
O228 Zn221 1.969 . S
O228 C238 1.258 1_565 S
C229 O226 1.267 . S
C229 O230 1.228 . S
O230 C229 1.228 . S
O231 Zn220 2.024 . S
O231 C222 1.058 . S
C232 O233 1.228 . S
C232 O234 1.267 . S
O233 C232 1.228 . S
O234 Zn221 1.969 . S
O234 C232 1.267 . S
O235 Zn221 1.965 1_545 S
O235 C239 1.260 . S
O236 Zn220 1.969 . S
O236 C239 1.258 . S
O237 Zn221 2.024 . S
O237 C224 1.058 . S
C238 O227 1.260 . S
C238 O228 1.258 1_545 S
C239 O235 1.260 . S
C239 O236 1.258 . S
Zn240 O246 1.969 . S
Zn240 O247 1.965 . S
Zn240 O251 2.024 . S
Zn240 O256 1.969 . S
Zn241 O248 1.969 . S
Zn241 O254 1.969 . S
Zn241 O255 1.965 . S
Zn241 O257 2.024 . S
C242 O243 1.229 . S
C242 O251 1.058 . S
O243 C242 1.229 . S
C244 O245 1.229 . S
C244 O257 1.058 . S
O245 C244 1.229 . S
O246 Zn240 1.969 . S
O246 C249 1.267 . S
O247 Zn240 1.965 . S
O247 C258 1.260 . S
O248 Zn241 1.969 . S
O248 C258 1.258 . S
C249 O246 1.267 . S
C249 O250 1.228 . S
O250 C249 1.228 . S
O251 Zn240 2.024 . S
O251 C242 1.058 . S
C252 O253 1.228 . S
C252 O254 1.267 . S
O253 C252 1.228 . S
O254 Zn241 1.969 . S
O254 C252 1.267 . S
O255 Zn241 1.965 . S
O255 C259 1.260 . S
O256 Zn240 1.969 . S
O256 C259 1.258 . S
O257 Zn241 2.024 . S
O257 C244 1.058 . S
C258 O247 1.260 . S
C258 O248 1.258 . S
C259 O255 1.260 . S
C259 O256 1.258 . S
Zn260 O266 1.969 . S
Zn260 O267 1.965 . S
Zn260 O271 2.024 . S
Zn260 O276 1.969 . S
Zn261 O268 1.969 . S
Zn261 O274 1.969 . S
Zn261 O275 1.965 . S
Zn261 O277 2.024 . S
C262 O263 1.229 . S
C262 O271 1.058 . S
O263 C262 1.229 . S
C264 O265 1.229 . S
C264 O277 1.058 . S
O265 C264 1.229 . S
O266 Zn260 1.969 . S
O266 C269 1.267 . S
O267 Zn260 1.965 . S
O267 C278 1.260 . S
O268 Zn261 1.969 . S
O268 C278 1.258 . S
C269 O266 1.267 . S
C269 O270 1.228 . S
O270 C269 1.228 . S
O271 Zn260 2.024 . S
O271 C262 1.058 . S
C272 O273 1.228 . S
C272 O274 1.267 . S
O273 C272 1.228 . S
O274 Zn261 1.969 . S
O274 C272 1.267 . S
O275 Zn261 1.965 . S
O275 C279 1.260 . S
O276 Zn260 1.969 . S
O276 C279 1.258 . S
O277 Zn261 2.024 . S
O277 C264 1.058 . S
C278 O267 1.260 . S
C278 O268 1.258 . S
C279 O275 1.260 . S
C279 O276 1.258 . S
Zn280 O286 1.969 . S
Zn280 O287 1.965 . S
Zn280 O291 2.024 . S
Zn280 O296 1.969 . S
Zn281 O288 1.969 . S
Zn281 O294 1.969 . S
Zn281 O295 1.965 . S
Zn281 O297 2.024 . S
C282 O283 1.229 . S
C282 O291 1.058 . S
O283 C282 1.229 . S
C284 O285 1.229 . S
C284 O297 1.058 . S
O285 C284 1.229 . S
O286 Zn280 1.969 . S
O286 C289 1.267 . S
O287 Zn280 1.965 . S
O287 C298 1.260 . S
O288 Zn281 1.969 . S
O288 C298 1.258 . S
C289 O286 1.267 . S
C289 O290 1.228 . S
O290 C289 1.228 . S
O291 Zn280 2.024 . S
O291 C282 1.058 . S
C292 O293 1.228 . S
C292 O294 1.267 . S
O293 C292 1.228 . S
O294 Zn281 1.969 . S
O294 C292 1.267 . S
O295 Zn281 1.965 . S
O295 C299 1.260 . S
O296 Zn280 1.969 . S
O296 C299 1.258 . S
O297 Zn281 2.024 . S
O297 C284 1.058 . S
C298 O287 1.260 . S
C298 O288 1.258 . S
C299 O295 1.260 . S
C299 O296 1.258 . S
Zn300 O306 1.969 . S
Zn300 O307 1.965 . S
Zn300 O311 2.024 . S
Zn300 O316 1.969 . S
Zn301 O308 1.969 . S
Zn301 O314 1.969 . S
Zn301 O315 1.965 . S
Zn301 O317 2.024 . S
C302 O303 1.229 . S
C302 O311 1.058 . S
O303 C302 1.229 . S
C304 O305 1.229 . S
C304 O317 1.058 . S
O305 C304 1.229 . S
O306 Zn300 1.969 . S
O306 C309 1.267 . S
O307 Zn300 1.965 . S
O307 C318 1.260 . S
O308 Zn301 1.969 . S
O308 C318 1.258 . S
C309 O306 1.267 . S
C309 O310 1.228 . S
O310 C309 1.228 . S
O311 Zn300 2.024 . S
O311 C302 1.058 . S
C312 O313 1.228 . S
C312 O314 1.267 . S
O313 C312 1.228 . S
O314 Zn301 1.969 . S
O314 C312 1.267 . S
O315 Zn301 1.965 . S
O315 C319 1.260 . S
O316 Zn300 1.969 . S
O316 C319 1.258 . S
O317 Zn301 2.024 . S
O317 C304 1.058 . S
C318 O307 1.260 . S
C318 O308 1.258 . S
C319 O315 1.260 . S
C319 O316 1.258 . S
Zn320 O326 1.969 . S
Zn320 O327 1.965 . S
Zn320 O331 2.024 . S
Zn320 O336 1.969 . S
Zn321 O328 1.969 . S
Zn321 O334 1.969 . S
Zn321 O335 1.965 . S
Zn321 O337 2.024 . S
C322 O323 1.229 . S
C322 O331 1.058 . S
O323 C322 1.229 . S
C324 O325 1.229 . S
C324 O337 1.058 . S
O325 C324 1.229 . S
O326 Zn320 1.969 . S
O326 C329 1.267 . S
O327 Zn320 1.965 . S
O327 C338 1.260 . S
O328 Zn321 1.969 . S
O328 C338 1.258 . S
C329 O326 1.267 . S
C329 O330 1.228 . S
O330 C329 1.228 . S
O331 Zn320 2.024 . S
O331 C322 1.058 . S
C332 O333 1.228 . S
C332 O334 1.267 1_545 S
O333 C332 1.228 . S
O334 Zn321 1.969 . S
O334 C332 1.267 1_565 S
O335 Zn321 1.965 . S
O335 C339 1.260 . S
O336 Zn320 1.969 . S
O336 C339 1.258 . S
O337 Zn321 2.024 . S
O337 C324 1.058 . S
C338 O327 1.260 . S
C338 O328 1.258 . S
C339 O335 1.260 . S
C339 O336 1.258 . S
Zn340 O346 1.969 . S
Zn340 O347 1.965 . S
Zn340 O351 2.024 . S
Zn340 O356 1.969 . S
Zn341 O348 1.969 . S
Zn341 O354 1.969 . S
Zn341 O355 1.965 . S
Zn341 O357 2.024 . S
C342 O343 1.229 . S
C342 O351 1.058 . S
O343 C342 1.229 . S
C344 O345 1.229 . S
C344 O357 1.058 . S
O345 C344 1.229 . S
O346 Zn340 1.969 . S
O346 C349 1.267 . S
O347 Zn340 1.965 . S
O347 C358 1.260 . S
O348 Zn341 1.969 . S
O348 C358 1.258 . S
C349 O346 1.267 . S
C349 O350 1.228 . S
O350 C349 1.228 . S
O351 Zn340 2.024 . S
O351 C342 1.058 . S
C352 O353 1.228 . S
C352 O354 1.267 . S
O353 C352 1.228 . S
O354 Zn341 1.969 . S
O354 C352 1.267 . S
O355 Zn341 1.965 . S
O355 C359 1.260 . S
O356 Zn340 1.969 . S
O356 C359 1.258 . S
O357 Zn341 2.024 . S
O357 C344 1.058 . S
C358 O347 1.260 . S
C358 O348 1.258 . S
C359 O355 1.260 . S
C359 O356 1.258 . S
Zn360 O366 1.969 . S
Zn360 O367 1.965 . S
Zn360 O371 2.024 . S
Zn360 O376 1.969 . S
Zn361 O368 1.969 . S
Zn361 O374 1.969 . S
Zn361 O375 1.965 . S
Zn361 O377 2.024 . S
C362 O363 1.229 . S
C362 O371 1.058 . S
O363 C362 1.229 . S
C364 O365 1.229 . S
C364 O377 1.058 . S
O365 C364 1.229 . S
O366 Zn360 1.969 . S
O366 C369 1.267 . S
O367 Zn360 1.965 . S
O367 C378 1.260 . S
O368 Zn361 1.969 . S
O368 C378 1.258 . S
C369 O366 1.267 . S
C369 O370 1.228 . S
O370 C369 1.228 . S
O371 Zn360 2.024 . S
O371 C362 1.058 . S
C372 O373 1.228 . S
C372 O374 1.267 . S
O373 C372 1.228 . S
O374 Zn361 1.969 . S
O374 C372 1.267 . S
O375 Zn361 1.965 . S
O375 C379 1.260 . S
O376 Zn360 1.969 . S
O376 C379 1.258 . S
O377 Zn361 2.024 . S
O377 C364 1.058 . S
C378 O367 1.260 . S
C378 O368 1.258 . S
C379 O375 1.260 . S
C379 O376 1.258 . S
Zn380 O386 1.969 . S
Zn380 O387 1.965 . S
Zn380 O391 2.024 . S
Zn380 O396 1.969 . S
Zn381 O388 1.969 . S
Zn381 O394 1.969 . S
Zn381 O395 1.965 . S
Zn381 O397 2.024 . S
C382 O383 1.229 . S
C382 O391 1.058 . S
O383 C382 1.229 . S
C384 O385 1.229 . S
C384 O397 1.058 . S
O385 C384 1.229 . S
O386 Zn380 1.969 . S
O386 C389 1.267 1_565 S
O387 Zn380 1.965 . S
O387 C398 1.260 . S
O388 Zn381 1.969 . S
O388 C398 1.258 . S
C389 O386 1.267 1_545 S
C389 O390 1.228 . S
O390 C389 1.228 . S
O391 Zn380 2.024 . S
O391 C382 1.058 . S
C392 O393 1.228 . S
C392 O394 1.267 . S
O393 C392 1.228 . S
O394 Zn381 1.969 . S
O394 C392 1.267 . S
O395 Zn381 1.965 . S
O395 C399 1.260 . S
O396 Zn380 1.969 . S
O396 C399 1.258 . S
O397 Zn381 2.024 . S
O397 C384 1.058 . S
C398 O387 1.260 . S
C398 O388 1.258 . S
C399 O395 1.260 . S
C399 O396 1.258 . S
Zn400 O406 1.969 . S
Zn400 O407 1.965 . S
Zn400 O411 2.024 . S
Zn400 O416 1.969 . S
Zn401 O408 1.969 . S
Zn401 O414 1.969 . S
Zn401 O415 1.965 . S
Zn401 O417 2.024 . S
C402 O403 1.229 . S
C402 O411 1.058 . S
O403 C402 1.229 . S
C404 O405 1.229 . S
C404 O417 1.058 . S
O405 C404 1.229 . S
O406 Zn400 1.969 . S
O406 C409 1.267 . S
O407 Zn400 1.965 . S
O407 C418 1.260 . S
O408 Zn401 1.969 . S
O408 C418 1.258 . S
C409 O406 1.267 . S
C409 O410 1.228 . S
O410 C409 1.228 . S
O411 Zn400 2.024 . S
O411 C402 1.058 . S
C412 O413 1.228 . S
C412 O414 1.267 . S
O413 C412 1.228 . S
O414 Zn401 1.969 . S
O414 C412 1.267 . S
O415 Zn401 1.965 . S
O415 C419 1.260 . S
O416 Zn400 1.969 . S
O416 C419 1.258 . S
O417 Zn401 2.024 . S
O417 C404 1.058 . S
C418 O407 1.260 . S
C418 O408 1.258 . S
C419 O415 1.260 . S
C419 O416 1.258 . S
Zn420 O426 1.969 . S
Zn420 O427 1.965 . S
Zn420 O431 2.024 . S
Zn420 O436 1.969 . S
Zn421 O428 1.969 . S
Zn421 O434 1.969 . S
Zn421 O435 1.965 . S
Zn421 O437 2.024 . S
C422 O423 1.229 . S
C422 O431 1.058 . S
O423 C422 1.229 . S
C424 O425 1.229 . S
C424 O437 1.058 . S
O425 C424 1.229 . S
O426 Zn420 1.969 . S
O426 C429 1.267 . S
O427 Zn420 1.965 . S
O427 C438 1.260 . S
O428 Zn421 1.969 . S
O428 C438 1.258 . S
C429 O426 1.267 . S
C429 O430 1.228 . S
O430 C429 1.228 . S
O431 Zn420 2.024 . S
O431 C422 1.058 . S
C432 O433 1.228 . S
C432 O434 1.267 . S
O433 C432 1.228 . S
O434 Zn421 1.969 . S
O434 C432 1.267 . S
O435 Zn421 1.965 . S
O435 C439 1.260 . S
O436 Zn420 1.969 . S
O436 C439 1.258 . S
O437 Zn421 2.024 . S
O437 C424 1.058 . S
C438 O427 1.260 . S
C438 O428 1.258 . S
C439 O435 1.260 . S
C439 O436 1.258 . S
Zn440 O446 1.969 . S
Zn440 O447 1.965 . S
Zn440 O451 2.024 . S
Zn440 O456 1.969 . S
Zn441 O448 1.969 . S
Zn441 O454 1.969 . S
Zn441 O455 1.965 . S
Zn441 O457 2.024 . S
C442 O443 1.229 . S
C442 O451 1.058 . S
O443 C442 1.229 . S
C444 O445 1.229 . S
C444 O457 1.058 . S
O445 C444 1.229 . S
O446 Zn440 1.969 . S
O446 C449 1.267 . S
O447 Zn440 1.965 . S
O447 C458 1.260 . S
O448 Zn441 1.969 . S
O448 C458 1.258 . S
C449 O446 1.267 . S
C449 O450 1.228 . S
O450 C449 1.228 . S
O451 Zn440 2.024 . S
O451 C442 1.058 . S
C452 O453 1.228 . S
C452 O454 1.267 . S
O453 C452 1.228 . S
O454 Zn441 1.969 . S
O454 C452 1.267 . S
O455 Zn441 1.965 . S
O455 C459 1.260 . S
O456 Zn440 1.969 . S
O456 C459 1.258 . S
O457 Zn441 2.024 . S
O457 C444 1.058 . S
C458 O447 1.260 . S
C458 O448 1.258 . S
C459 O455 1.260 . S
C459 O456 1.258 . S
Zn460 O466 1.969 . S
Zn460 O467 1.965 . S
Zn460 O471 2.024 . S
Zn460 O476 1.969 . S
Zn461 O468 1.969 . S
Zn461 O474 1.969 . S
Zn461 O475 1.965 . S
Zn461 O477 2.024 . S
C462 O463 1.229 . S
C462 O471 1.058 . S
O463 C462 1.229 . S
C464 O465 1.229 . S
C464 O477 1.058 . S
O465 C464 1.229 . S
O466 Zn460 1.969 . S
O466 C469 1.267 . S
O467 Zn460 1.965 . S
O467 C478 1.260 . S
O468 Zn461 1.969 . S
O468 C478 1.258 . S
C469 O466 1.267 . S
C469 O470 1.228 . S
O470 C469 1.228 . S
O471 Zn460 2.024 . S
O471 C462 1.058 . S
C472 O473 1.228 . S
C472 O474 1.267 . S
O473 C472 1.228 . S
O474 Zn461 1.969 . S
O474 C472 1.267 . S
O475 Zn461 1.965 . S
O475 C479 1.260 . S
O476 Zn460 1.969 . S
O476 C479 1.258 . S
O477 Zn461 2.024 . S
O477 C464 1.058 . S
C478 O467 1.260 . S
C478 O468 1.258 . S
C479 O475 1.260 . S
C479 O476 1.258 . S
Zn480 O486 1.969 . S
Zn480 O487 1.965 . S
Zn480 O491 2.024 . S
Zn480 O496 1.969 . S
Zn481 O488 1.969 . S
Zn481 O494 1.969 . S
Zn481 O495 1.965 . S
Zn481 O497 2.024 . S
C482 O483 1.229 . S
C482 O491 1.058 . S
O483 C482 1.229 . S
C484 O485 1.229 . S
C484 O497 1.058 . S
O485 C484 1.229 . S
O486 Zn480 1.969 . S
O486 C489 1.267 . S
O487 Zn480 1.965 . S
O487 C498 1.260 . S
O488 Zn481 1.969 . S
O488 C498 1.258 . S
C489 O486 1.267 . S
C489 O490 1.228 . S
O490 C489 1.228 . S
O491 Zn480 2.024 . S
O491 C482 1.058 . S
C492 O493 1.228 . S
C492 O494 1.267 . S
O493 C492 1.228 . S
O494 Zn481 1.969 . S
O494 C492 1.267 . S
O495 Zn481 1.965 . S
O495 C499 1.260 . S
O496 Zn480 1.969 . S
O496 C499 1.258 . S
O497 Zn481 2.024 . S
O497 C484 1.058 . S
C498 O487 1.260 . S
C498 O488 1.258 . S
C499 O495 1.260 . S
C499 O496 1.258 . S
Zn500 O506 1.969 . S
Zn500 O507 1.965 . S
Zn500 O511 2.024 . S
Zn500 O516 1.969 . S
Zn501 O508 1.969 . S
Zn501 O514 1.969 . S
Zn501 O515 1.965 . S
Zn501 O517 2.024 . S
C502 O503 1.229 . S
C502 O511 1.058 . S
O503 C502 1.229 . S
C504 O505 1.229 . S
C504 O517 1.058 . S
O505 C504 1.229 . S
O506 Zn500 1.969 . S
O506 C509 1.267 . S
O507 Zn500 1.965 . S
O507 C518 1.260 . S
O508 Zn501 1.969 . S
O508 C518 1.258 . S
C509 O506 1.267 . S
C509 O510 1.228 . S
O510 C509 1.228 . S
O511 Zn500 2.024 . S
O511 C502 1.058 . S
C512 O513 1.228 . S
C512 O514 1.267 . S
O513 C512 1.228 . S
O514 Zn501 1.969 . S
O514 C512 1.267 . S
O515 Zn501 1.965 . S
O515 C519 1.260 . S
O516 Zn500 1.969 . S
O516 C519 1.258 . S
O517 Zn501 2.024 . S
O517 C504 1.058 . S
C518 O507 1.260 . S
C518 O508 1.258 . S
C519 O515 1.260 . S
C519 O516 1.258 . S
Zn520 O526 1.969 . S
Zn520 O527 1.965 . S
Zn520 O531 2.024 . S
Zn520 O536 1.969 . S
Zn521 O528 1.969 . S
Zn521 O534 1.969 . S
Zn521 O535 1.965 . S
Zn521 O537 2.024 . S
C522 O523 1.229 . S
C522 O531 1.058 . S
O523 C522 1.229 . S
C524 O525 1.229 . S
C524 O537 1.058 . S
O525 C524 1.229 . S
O526 Zn520 1.969 . S
O526 C529 1.267 . S
O527 Zn520 1.965 . S
O527 C538 1.260 . S
O528 Zn521 1.969 . S
O528 C538 1.258 . S
C529 O526 1.267 . S
C529 O530 1.228 . S
O530 C529 1.228 . S
O531 Zn520 2.024 . S
O531 C522 1.058 . S
C532 O533 1.228 . S
C532 O534 1.267 1_455 S
O533 C532 1.228 . S
O534 Zn521 1.969 . S
O534 C532 1.267 1_655 S
O535 Zn521 1.965 . S
O535 C539 1.260 . S
O536 Zn520 1.969 . S
O536 C539 1.258 . S
O537 Zn521 2.024 . S
O537 C524 1.058 . S
C538 O527 1.260 . S
C538 O528 1.258 . S
C539 O535 1.260 . S
C539 O536 1.258 . S
Zn540 O546 1.969 . S
Zn540 O547 1.965 . S
Zn540 O551 2.024 . S
Zn540 O556 1.969 . S
Zn541 O548 1.969 . S
Zn541 O554 1.969 . S
Zn541 O555 1.965 . S
Zn541 O557 2.024 . S
C542 O543 1.229 . S
C542 O551 1.058 . S
O543 C542 1.229 . S
C544 O545 1.229 . S
C544 O557 1.058 . S
O545 C544 1.229 . S
O546 Zn540 1.969 . S
O546 C549 1.267 . S
O547 Zn540 1.965 . S
O547 C558 1.260 . S
O548 Zn541 1.969 . S
O548 C558 1.258 . S
C549 O546 1.267 . S
C549 O550 1.228 . S
O550 C549 1.228 . S
O551 Zn540 2.024 . S
O551 C542 1.058 . S
C552 O553 1.228 . S
C552 O554 1.267 . S
O553 C552 1.228 . S
O554 Zn541 1.969 . S
O554 C552 1.267 . S
O555 Zn541 1.965 . S
O555 C559 1.260 . S
O556 Zn540 1.969 . S
O556 C559 1.258 . S
O557 Zn541 2.024 . S
O557 C544 1.058 . S
C558 O547 1.260 . S
C558 O548 1.258 . S
C559 O555 1.260 . S
C559 O556 1.258 . S
Zn560 O566 1.969 . S
Zn560 O567 1.965 . S
Zn560 O571 2.024 . S
Zn560 O576 1.969 . S
Zn561 O568 1.969 . S
Zn561 O574 1.969 . S
Zn561 O575 1.965 . S
Zn561 O577 2.024 . S
C562 O563 1.229 . S
C562 O571 1.058 . S
O563 C562 1.229 . S
C564 O565 1.229 . S
C564 O577 1.058 . S
O565 C564 1.229 . S
O566 Zn560 1.969 . S
O566 C569 1.267 . S
O567 Zn560 1.965 . S
O567 C578 1.260 . S
O568 Zn561 1.969 . S
O568 C578 1.258 . S
C569 O566 1.267 . S
C569 O570 1.228 . S
O570 C569 1.228 . S
O571 Zn560 2.024 . S
O571 C562 1.058 . S
C572 O573 1.228 . S
C572 O574 1.267 . S
O573 C572 1.228 . S
O574 Zn561 1.969 . S
O574 C572 1.267 . S
O575 Zn561 1.965 . S
O575 C579 1.260 . S
O576 Zn560 1.969 . S
O576 C579 1.258 . S
O577 Zn561 2.024 . S
O577 C564 1.058 . S
C578 O567 1.260 . S
C578 O568 1.258 . S
C579 O575 1.260 . S
C579 O576 1.258 . S
Zn580 O586 1.969 . S
Zn580 O587 1.965 . S
Zn580 O591 2.024 . S
Zn580 O596 1.969 . S
Zn581 O588 1.969 . S
Zn581 O594 1.969 . S
Zn581 O595 1.965 . S
Zn581 O597 2.024 . S
C582 O583 1.229 . S
C582 O591 1.058 . S
O583 C582 1.229 . S
C584 O585 1.229 . S
C584 O597 1.058 . S
O585 C584 1.229 . S
O586 Zn580 1.969 . S
O586 C589 1.267 . S
O587 Zn580 1.965 . S
O587 C598 1.260 . S
O588 Zn581 1.969 . S
O588 C598 1.258 . S
C589 O586 1.267 . S
C589 O590 1.228 . S
O590 C589 1.228 . S
O591 Zn580 2.024 . S
O591 C582 1.058 . S
C592 O593 1.228 . S
C592 O594 1.267 . S
O593 C592 1.228 . S
O594 Zn581 1.969 . S
O594 C592 1.267 . S
O595 Zn581 1.965 . S
O595 C599 1.260 . S
O596 Zn580 1.969 . S
O596 C599 1.258 . S
O597 Zn581 2.024 . S
O597 C584 1.058 . S
C598 O587 1.260 . S
C598 O588 1.258 . S
C599 O595 1.260 . S
C599 O596 1.258 . S
Zn600 O606 1.969 . S
Zn600 O607 1.965 . S
Zn600 O611 2.024 . S
Zn600 O616 1.969 . S
Zn601 O608 1.969 . S
Zn601 O614 1.969 . S
Zn601 O615 1.965 . S
Zn601 O617 2.024 . S
C602 O603 1.229 . S
C602 O611 1.058 . S
O603 C602 1.229 . S
C604 O605 1.229 . S
C604 O617 1.058 . S
O605 C604 1.229 . S
O606 Zn600 1.969 . S
O606 C609 1.267 . S
O607 Zn600 1.965 . S
O607 C618 1.260 . S
O608 Zn601 1.969 . S
O608 C618 1.258 . S
C609 O606 1.267 . S
C609 O610 1.228 . S
O610 C609 1.228 . S
O611 Zn600 2.024 . S
O611 C602 1.058 . S
C612 O613 1.228 . S
C612 O614 1.267 . S
O613 C612 1.228 . S
O614 Zn601 1.969 . S
O614 C612 1.267 . S
O615 Zn601 1.965 . S
O615 C619 1.260 . S
O616 Zn600 1.969 . S
O616 C619 1.258 . S
O617 Zn601 2.024 . S
O617 C604 1.058 . S
C618 O607 1.260 . S
C618 O608 1.258 . S
C619 O615 1.260 . S
C619 O616 1.258 . S
Zn620 O626 1.969 . S
Zn620 O627 1.965 . S
Zn620 O631 2.024 . S
Zn620 O636 1.969 . S
Zn621 O628 1.969 . S
Zn621 O634 1.969 . S
Zn621 O635 1.965 . S
Zn621 O637 2.024 . S
C622 O623 1.229 . S
C622 O631 1.058 . S
O623 C622 1.229 . S
C624 O625 1.229 . S
C624 O637 1.058 . S
O625 C624 1.229 . S
O626 Zn620 1.969 . S
O626 C629 1.267 . S
O627 Zn620 1.965 . S
O627 C638 1.260 . S
O628 Zn621 1.969 . S
O628 C638 1.258 . S
C629 O626 1.267 . S
C629 O630 1.228 . S
O630 C629 1.228 . S
O631 Zn620 2.024 . S
O631 C622 1.058 . S
C632 O633 1.228 . S
C632 O634 1.267 . S
O633 C632 1.228 . S
O634 Zn621 1.969 . S
O634 C632 1.267 . S
O635 Zn621 1.965 . S
O635 C639 1.260 . S
O636 Zn620 1.969 . S
O636 C639 1.258 . S
O637 Zn621 2.024 . S
O637 C624 1.058 . S
C638 O627 1.260 . S
C638 O628 1.258 . S
C639 O635 1.260 . S
C639 O636 1.258 . S
Zn640 O646 1.969 . S
Zn640 O647 1.965 . S
Zn640 O651 2.024 . S
Zn640 O656 1.969 . S
Zn641 O648 1.969 . S
Zn641 O654 1.969 . S
Zn641 O655 1.965 . S
Zn641 O657 2.024 . S
C642 O643 1.229 . S
C642 O651 1.058 . S
O643 C642 1.229 . S
C644 O645 1.229 . S
C644 O657 1.058 . S
O645 C644 1.229 . S
O646 Zn640 1.969 . S
O646 C649 1.267 . S
O647 Zn640 1.965 . S
O647 C658 1.260 . S
O648 Zn641 1.969 . S
O648 C658 1.258 . S
C649 O646 1.267 . S
C649 O650 1.228 . S
O650 C649 1.228 . S
O651 Zn640 2.024 . S
O651 C642 1.058 . S
C652 O653 1.228 . S
C652 O654 1.267 . S
O653 C652 1.228 . S
O654 Zn641 1.969 . S
O654 C652 1.267 . S
O655 Zn641 1.965 . S
O655 C659 1.260 . S
O656 Zn640 1.969 . S
O656 C659 1.258 . S
O657 Zn641 2.024 . S
O657 C644 1.058 . S
C658 O647 1.260 . S
C658 O648 1.258 . S
C659 O655 1.260 . S
C659 O656 1.258 . S
Zn660 O666 1.969 . S
Zn660 O667 1.965 . S
Zn660 O671 2.024 . S
Zn660 O676 1.969 . S
Zn661 O668 1.969 . S
Zn661 O674 1.969 . S
Zn661 O675 1.965 . S
Zn661 O677 2.024 . S
C662 O663 1.229 . S
C662 O671 1.058 . S
O663 C662 1.229 . S
C664 O665 1.229 . S
C664 O677 1.058 . S
O665 C664 1.229 . S
O666 Zn660 1.969 . S
O666 C669 1.267 . S
O667 Zn660 1.965 . S
O667 C678 1.260 . S
O668 Zn661 1.969 . S
O668 C678 1.258 . S
C669 O666 1.267 . S
C669 O670 1.228 . S
O670 C669 1.228 . S
O671 Zn660 2.024 . S
O671 C662 1.058 . S
C672 O673 1.228 . S
C672 O674 1.267 . S
O673 C672 1.228 . S
O674 Zn661 1.969 . S
O674 C672 1.267 . S
O675 Zn661 1.965 . S
O675 C679 1.260 . S
O676 Zn660 1.969 . S
O676 C679 1.258 . S
O677 Zn661 2.024 . S
O677 C664 1.058 . S
C678 O667 1.260 . S
C678 O668 1.258 . S
C679 O675 1.260 . S
C679 O676 1.258 . S
Zn680 O686 1.969 . S
Zn680 O687 1.965 . S
Zn680 O691 2.024 . S
Zn680 O696 1.969 . S
Zn681 O688 1.969 . S
Zn681 O694 1.969 . S
Zn681 O695 1.965 . S
Zn681 O697 2.024 . S
C682 O683 1.229 . S
C682 O691 1.058 . S
O683 C682 1.229 . S
C684 O685 1.229 . S
C684 O697 1.058 . S
O685 C684 1.229 . S
O686 Zn680 1.969 . S
O686 C689 1.267 . S
O687 Zn680 1.965 . S
O687 C698 1.260 . S
O688 Zn681 1.969 . S
O688 C698 1.258 . S
C689 O686 1.267 . S
C689 O690 1.228 . S
O690 C689 1.228 . S
O691 Zn680 2.024 . S
O691 C682 1.058 . S
C692 O693 1.228 . S
C692 O694 1.267 . S
O693 C692 1.228 . S
O694 Zn681 1.969 . S
O694 C692 1.267 . S
O695 Zn681 1.965 . S
O695 C699 1.260 . S
O696 Zn680 1.969 . S
O696 C699 1.258 . S
O697 Zn681 2.024 . S
O697 C684 1.058 . S
C698 O687 1.260 . S
C698 O688 1.258 . S
C699 O695 1.260 . S
C699 O696 1.258 . S
Zn700 O706 1.969 . S
Zn700 O707 1.965 . S
Zn700 O711 2.024 . S
Zn700 O716 1.969 . S
Zn701 O708 1.969 . S
Zn701 O714 1.969 . S
Zn701 O715 1.965 . S
Zn701 O717 2.024 . S
C702 O703 1.229 . S
C702 O711 1.058 . S
O703 C702 1.229 . S
C704 O705 1.229 . S
C704 O717 1.058 . S
O705 C704 1.229 . S
O706 Zn700 1.969 . S
O706 C709 1.267 1_655 S
O707 Zn700 1.965 . S
O707 C718 1.260 . S
O708 Zn701 1.969 . S
O708 C718 1.258 . S
C709 O706 1.267 1_455 S
C709 O710 1.228 . S
O710 C709 1.228 . S
O711 Zn700 2.024 . S
O711 C702 1.058 . S
C712 O713 1.228 . S
C712 O714 1.267 . S
O713 C712 1.228 . S
O714 Zn701 1.969 . S
O714 C712 1.267 . S
O715 Zn701 1.965 . S
O715 C719 1.260 . S
O716 Zn700 1.969 . S
O716 C719 1.258 . S
O717 Zn701 2.024 . S
O717 C704 1.058 . S
C718 O707 1.260 . S
C718 O708 1.258 . S
C719 O715 1.260 . S
C719 O716 1.258 . S
H720 C732 0.930 . S
H721 C734 0.930 . S
H722 C735 0.930 . S
H723 C739 0.959 . S
H724 C739 0.959 . S
H725 C739 0.961 . S
H726 C740 0.960 . S
H727 C740 0.961 . S
H728 C740 0.959 . S
H729 C743 0.929 . S
H730 C744 0.931 1_565 S
H731 C746 0.930 . S
C732 H720 0.930 . S
C732 C733 1.399 . S
C732 C737 1.399 . S
C733 C732 1.399 . S
C733 C734 1.376 . S
C734 H721 0.930 . S
C734 C733 1.376 . S
C734 C735 1.388 . S
C735 H722 0.930 . S
C735 C734 1.388 . S
C735 C736 1.390 . S
C736 C735 1.390 . S
C736 C737 1.394 . S
C736 C742 1.465 . S
C737 C732 1.399 . S
C737 C736 1.394 . S
C737 C738 1.516 . S
C738 C737 1.516 . S
C738 C739 1.502 . S
C738 C740 1.561 . S
C738 C741 1.526 . S
C739 H723 0.959 . S
C739 H724 0.959 . S
C739 H725 0.961 . S
C739 C738 1.502 . S
C740 H726 0.960 . S
C740 H727 0.961 . S
C740 H728 0.959 . S
C740 C738 1.561 . S
C741 C738 1.526 . S
C741 C742 1.396 . S
C741 C746 1.390 . S
C742 C736 1.465 . S
C742 C741 1.396 . S
C742 C743 1.399 . S
C743 H729 0.929 . S
C743 C742 1.399 . S
C743 C744 1.385 . S
C744 H730 0.931 1_545 S
C744 C743 1.385 . S
C744 C745 1.389 . S
C745 C744 1.389 . S
C745 C746 1.387 . S
C746 H731 0.930 . S
C746 C741 1.390 . S
C746 C745 1.387 . S
H747 C759 0.930 . S
H748 C761 0.930 . S
H749 C762 0.930 . S
H750 C766 0.959 1_455 S
H751 C766 0.959 1_455 S
H752 C766 0.961 . S
H753 C767 0.960 . S
H754 C767 0.961 . S
H755 C767 0.959 . S
H756 C770 0.929 . S
H757 C771 0.931 . S
H758 C773 0.930 . S
C759 H747 0.930 . S
C759 C760 1.399 . S
C759 C764 1.399 . S
C760 C759 1.399 . S
C760 C761 1.376 . S
C761 H748 0.930 . S
C761 C760 1.376 . S
C761 C762 1.388 . S
C762 H749 0.930 . S
C762 C761 1.388 . S
C762 C763 1.390 . S
C763 C762 1.390 . S
C763 C764 1.394 . S
C763 C769 1.465 . S
C764 C759 1.399 . S
C764 C763 1.394 . S
C764 C765 1.516 . S
C765 C764 1.516 . S
C765 C766 1.502 . S
C765 C767 1.561 . S
C765 C768 1.526 . S
C766 H750 0.959 1_655 S
C766 H751 0.959 1_655 S
C766 H752 0.961 . S
C766 C765 1.502 . S
C767 H753 0.960 . S
C767 H754 0.961 . S
C767 H755 0.959 . S
C767 C765 1.561 . S
C768 C765 1.526 . S
C768 C769 1.396 . S
C768 C773 1.390 . S
C769 C763 1.465 . S
C769 C768 1.396 . S
C769 C770 1.399 . S
C770 H756 0.929 . S
C770 C769 1.399 . S
C770 C771 1.385 . S
C771 H757 0.931 . S
C771 C770 1.385 . S
C771 C772 1.389 . S
C772 C771 1.389 . S
C772 C773 1.387 . S
C773 H758 0.930 . S
C773 C768 1.390 . S
C773 C772 1.387 . S
H774 C786 0.930 . S
H775 C788 0.930 . S
H776 C789 0.930 . S
H777 C793 0.959 . S
H778 C793 0.959 . S
H779 C793 0.961 . S
H780 C794 0.960 . S
H781 C794 0.961 . S
H782 C794 0.959 . S
H783 C797 0.929 . S
H784 C798 0.931 . S
H785 C800 0.930 . S
C786 H774 0.930 . S
C786 C787 1.399 . S
C786 C791 1.399 . S
C787 C786 1.399 . S
C787 C788 1.376 . S
C788 H775 0.930 . S
C788 C787 1.376 . S
C788 C789 1.388 . S
C789 H776 0.930 . S
C789 C788 1.388 . S
C789 C790 1.390 . S
C790 C789 1.390 . S
C790 C791 1.394 . S
C790 C796 1.465 . S
C791 C786 1.399 . S
C791 C790 1.394 . S
C791 C792 1.516 . S
C792 C791 1.516 . S
C792 C793 1.502 . S
C792 C794 1.561 . S
C792 C795 1.526 . S
C793 H777 0.959 . S
C793 H778 0.959 . S
C793 H779 0.961 . S
C793 C792 1.502 . S
C794 H780 0.960 . S
C794 H781 0.961 . S
C794 H782 0.959 . S
C794 C792 1.561 . S
C795 C792 1.526 . S
C795 C796 1.396 . S
C795 C800 1.390 . S
C796 C790 1.465 . S
C796 C795 1.396 . S
C796 C797 1.399 . S
C797 H783 0.929 . S
C797 C796 1.399 . S
C797 C798 1.385 . S
C798 H784 0.931 . S
C798 C797 1.385 . S
C798 C799 1.389 . S
C799 C798 1.389 . S
C799 C800 1.387 . S
C800 H785 0.930 . S
C800 C795 1.390 . S
C800 C799 1.387 . S
H801 C813 0.930 . S
H802 C815 0.930 . S
H803 C816 0.930 . S
H804 C820 0.959 . S
H805 C820 0.959 . S
H806 C820 0.961 . S
H807 C821 0.960 . S
H808 C821 0.961 . S
H809 C821 0.959 . S
H810 C824 0.929 . S
H811 C825 0.931 . S
H812 C827 0.930 . S
C813 H801 0.930 . S
C813 C814 1.399 . S
C813 C818 1.399 . S
C814 C813 1.399 . S
C814 C815 1.376 . S
C815 H802 0.930 . S
C815 C814 1.376 . S
C815 C816 1.388 . S
C816 H803 0.930 . S
C816 C815 1.388 . S
C816 C817 1.390 . S
C817 C816 1.390 . S
C817 C818 1.394 . S
C817 C823 1.465 . S
C818 C813 1.399 . S
C818 C817 1.394 . S
C818 C819 1.516 . S
C819 C818 1.516 . S
C819 C820 1.502 . S
C819 C821 1.561 . S
C819 C822 1.526 . S
C820 H804 0.959 . S
C820 H805 0.959 . S
C820 H806 0.961 . S
C820 C819 1.502 . S
C821 H807 0.960 . S
C821 H808 0.961 . S
C821 H809 0.959 . S
C821 C819 1.561 . S
C822 C819 1.526 . S
C822 C823 1.396 . S
C822 C827 1.390 . S
C823 C817 1.465 . S
C823 C822 1.396 . S
C823 C824 1.399 . S
C824 H810 0.929 . S
C824 C823 1.399 . S
C824 C825 1.385 . S
C825 H811 0.931 . S
C825 C824 1.385 . S
C825 C826 1.389 . S
C826 C825 1.389 . S
C826 C827 1.387 . S
C827 H812 0.930 . S
C827 C822 1.390 . S
C827 C826 1.387 . S
H828 C840 0.930 . S
H829 C842 0.930 . S
H830 C843 0.930 . S
H831 C847 0.959 . S
H832 C847 0.959 . S
H833 C847 0.961 . S
H834 C848 0.960 . S
H835 C848 0.961 . S
H836 C848 0.959 . S
H837 C851 0.929 . S
H838 C852 0.931 . S
H839 C854 0.930 . S
C840 H828 0.930 . S
C840 C841 1.399 . S
C840 C845 1.399 . S
C841 C840 1.399 . S
C841 C842 1.376 . S
C842 H829 0.930 . S
C842 C841 1.376 . S
C842 C843 1.388 . S
C843 H830 0.930 . S
C843 C842 1.388 . S
C843 C844 1.390 . S
C844 C843 1.390 . S
C844 C845 1.394 . S
C844 C850 1.465 . S
C845 C840 1.399 . S
C845 C844 1.394 . S
C845 C846 1.516 . S
C846 C845 1.516 . S
C846 C847 1.502 . S
C846 C848 1.561 . S
C846 C849 1.526 . S
C847 H831 0.959 . S
C847 H832 0.959 . S
C847 H833 0.961 . S
C847 C846 1.502 . S
C848 H834 0.960 . S
C848 H835 0.961 . S
C848 H836 0.959 . S
C848 C846 1.561 . S
C849 C846 1.526 . S
C849 C850 1.396 . S
C849 C854 1.390 . S
C850 C844 1.465 . S
C850 C849 1.396 . S
C850 C851 1.399 . S
C851 H837 0.929 . S
C851 C850 1.399 . S
C851 C852 1.385 . S
C852 H838 0.931 . S
C852 C851 1.385 . S
C852 C853 1.389 . S
C853 C852 1.389 . S
C853 C854 1.387 . S
C854 H839 0.930 . S
C854 C849 1.390 . S
C854 C853 1.387 . S
H855 C867 0.930 . S
H856 C869 0.930 . S
H857 C870 0.930 . S
H858 C874 0.959 1_565 S
H859 C874 0.959 . S
H860 C874 0.961 . S
H861 C875 0.960 . S
H862 C875 0.961 . S
H863 C875 0.959 . S
H864 C878 0.929 . S
H865 C879 0.931 . S
H866 C881 0.930 . S
C867 H855 0.930 . S
C867 C868 1.399 . S
C867 C872 1.399 . S
C868 C867 1.399 . S
C868 C869 1.376 . S
C869 H856 0.930 . S
C869 C868 1.376 . S
C869 C870 1.388 . S
C870 H857 0.930 . S
C870 C869 1.388 . S
C870 C871 1.390 . S
C871 C870 1.390 . S
C871 C872 1.394 . S
C871 C877 1.465 . S
C872 C867 1.399 . S
C872 C871 1.394 . S
C872 C873 1.523 . S
C873 C872 1.523 . S
C873 C874 1.502 1_565 S
C873 C875 1.548 1_565 S
C873 C876 1.533 . S
C874 H858 0.959 1_545 S
C874 H859 0.959 . S
C874 H860 0.961 . S
C874 C873 1.502 1_545 S
C875 H861 0.960 . S
C875 H862 0.961 . S
C875 H863 0.959 . S
C875 C873 1.548 1_545 S
C876 C873 1.533 . S
C876 C877 1.396 . S
C876 C881 1.390 1_565 S
C877 C871 1.465 . S
C877 C876 1.396 . S
C877 C878 1.399 . S
C878 H864 0.929 . S
C878 C877 1.399 . S
C878 C879 1.385 . S
C879 H865 0.931 . S
C879 C878 1.385 . S
C879 C880 1.389 . S
C880 C879 1.389 . S
C880 C881 1.387 1_565 S
C881 H866 0.930 . S
C881 C876 1.390 1_545 S
C881 C880 1.387 1_545 S
H882 C894 0.930 . S
H883 C896 0.930 . S
H884 C897 0.930 . S
H885 C901 0.959 . S
H886 C901 0.959 . S
H887 C901 0.961 . S
H888 C902 0.960 . S
H889 C902 0.961 . S
H890 C902 0.959 . S
H891 C905 0.929 1_545 S
H892 C906 0.931 . S
H893 C908 0.930 . S
C894 H882 0.930 . S
C894 C895 1.399 . S
C894 C899 1.399 . S
C895 C894 1.399 . S
C895 C896 1.376 1_565 S
C896 H883 0.930 . S
C896 C895 1.376 1_545 S
C896 C897 1.388 . S
C897 H884 0.930 . S
C897 C896 1.388 . S
C897 C898 1.390 1_545 S
C898 C897 1.390 1_565 S
C898 C899 1.394 . S
C898 C904 1.465 . S
C899 C894 1.399 . S
C899 C898 1.394 . S
C899 C900 1.516 . S
C900 C899 1.516 . S
C900 C901 1.502 . S
C900 C902 1.561 . S
C900 C903 1.526 . S
C901 H885 0.959 . S
C901 H886 0.959 . S
C901 H887 0.961 . S
C901 C900 1.502 . S
C902 H888 0.960 . S
C902 H889 0.961 . S
C902 H890 0.959 . S
C902 C900 1.561 . S
C903 C900 1.526 . S
C903 C904 1.396 . S
C903 C908 1.390 . S
C904 C898 1.465 . S
C904 C903 1.396 . S
C904 C905 1.399 . S
C905 H891 0.929 1_565 S
C905 C904 1.399 . S
C905 C906 1.385 . S
C906 H892 0.931 . S
C906 C905 1.385 . S
C906 C907 1.389 . S
C907 C906 1.389 . S
C907 C908 1.387 . S
C908 H893 0.930 . S
C908 C903 1.390 . S
C908 C907 1.387 . S
H909 C921 0.930 . S
H910 C923 0.930 . S
H911 C924 0.930 . S
H912 C928 0.959 . S
H913 C928 0.959 . S
H914 C928 0.961 . S
H915 C929 0.960 . S
H916 C929 0.961 . S
H917 C929 0.959 . S
H918 C932 0.929 . S
H919 C933 0.931 . S
H920 C935 0.930 . S
C921 H909 0.930 . S
C921 C922 1.399 . S
C921 C926 1.399 . S
C922 C921 1.399 . S
C922 C923 1.376 . S
C923 H910 0.930 . S
C923 C922 1.376 . S
C923 C924 1.388 . S
C924 H911 0.930 . S
C924 C923 1.388 . S
C924 C925 1.390 . S
C925 C924 1.390 . S
C925 C926 1.394 . S
C925 C931 1.465 . S
C926 C921 1.399 . S
C926 C925 1.394 . S
C926 C927 1.516 . S
C927 C926 1.516 . S
C927 C928 1.502 . S
C927 C929 1.561 . S
C927 C930 1.526 . S
C928 H912 0.959 . S
C928 H913 0.959 . S
C928 H914 0.961 . S
C928 C927 1.502 . S
C929 H915 0.960 . S
C929 H916 0.961 . S
C929 H917 0.959 . S
C929 C927 1.561 . S
C930 C927 1.526 . S
C930 C931 1.396 . S
C930 C935 1.390 . S
C931 C925 1.465 . S
C931 C930 1.396 . S
C931 C932 1.399 . S
C932 H918 0.929 . S
C932 C931 1.399 . S
C932 C933 1.385 . S
C933 H919 0.931 . S
C933 C932 1.385 . S
C933 C934 1.389 . S
C934 C933 1.389 . S
C934 C935 1.387 . S
C935 H920 0.930 . S
C935 C930 1.390 . S
C935 C934 1.387 . S
H936 C948 0.930 . S
H937 C950 0.930 . S
H938 C951 0.930 . S
H939 C955 0.959 . S
H940 C955 0.959 . S
H941 C955 0.961 . S
H942 C956 0.960 . S
H943 C956 0.961 . S
H944 C956 0.959 . S
H945 C959 0.929 . S
H946 C960 0.931 . S
H947 C962 0.930 . S
C948 H936 0.930 . S
C948 C949 1.399 . S
C948 C953 1.399 . S
C949 C948 1.399 . S
C949 C950 1.376 . S
C950 H937 0.930 . S
C950 C949 1.376 . S
C950 C951 1.388 . S
C951 H938 0.930 . S
C951 C950 1.388 . S
C951 C952 1.390 . S
C952 C951 1.390 . S
C952 C953 1.394 . S
C952 C958 1.465 . S
C953 C948 1.399 . S
C953 C952 1.394 . S
C953 C954 1.516 . S
C954 C953 1.516 . S
C954 C955 1.502 . S
C954 C956 1.561 . S
C954 C957 1.526 . S
C955 H939 0.959 . S
C955 H940 0.959 . S
C955 H941 0.961 . S
C955 C954 1.502 . S
C956 H942 0.960 . S
C956 H943 0.961 . S
C956 H944 0.959 . S
C956 C954 1.561 . S
C957 C954 1.526 . S
C957 C958 1.396 . S
C957 C962 1.390 . S
C958 C952 1.465 . S
C958 C957 1.396 . S
C958 C959 1.399 . S
C959 H945 0.929 . S
C959 C958 1.399 . S
C959 C960 1.385 . S
C960 H946 0.931 . S
C960 C959 1.385 . S
C960 C961 1.389 . S
C961 C960 1.389 . S
C961 C962 1.387 . S
C962 H947 0.930 . S
C962 C957 1.390 . S
C962 C961 1.387 . S
H963 C975 0.930 . S
H964 C977 0.930 . S
H965 C978 0.930 . S
H966 C982 0.959 . S
H967 C982 0.959 . S
H968 C982 0.961 . S
H969 C983 0.960 . S
H970 C983 0.961 . S
H971 C983 0.959 . S
H972 C986 0.929 1_455 S
H973 C987 0.931 . S
H974 C989 0.930 . S
C975 H963 0.930 . S
C975 C976 1.399 . S
C975 C980 1.399 . S
C976 C975 1.399 . S
C976 C977 1.376 . S
C977 H964 0.930 . S
C977 C976 1.376 . S
C977 C978 1.388 . S
C978 H965 0.930 . S
C978 C977 1.388 . S
C978 C979 1.390 . S
C979 C978 1.390 . S
C979 C980 1.394 . S
C979 C985 1.465 . S
C980 C975 1.399 . S
C980 C979 1.394 . S
C980 C981 1.516 . S
C981 C980 1.516 . S
C981 C982 1.502 . S
C981 C983 1.561 . S
C981 C984 1.526 . S
C982 H966 0.959 . S
C982 H967 0.959 . S
C982 H968 0.961 . S
C982 C981 1.502 . S
C983 H969 0.960 . S
C983 H970 0.961 . S
C983 H971 0.959 . S
C983 C981 1.561 . S
C984 C981 1.526 . S
C984 C985 1.396 . S
C984 C989 1.390 . S
C985 C979 1.465 . S
C985 C984 1.396 . S
C985 C986 1.399 . S
C986 H972 0.929 1_655 S
C986 C985 1.399 . S
C986 C987 1.385 1_655 S
C987 H973 0.931 . S
C987 C986 1.385 1_455 S
C987 C988 1.389 1_455 S
C988 C987 1.389 1_655 S
C988 C989 1.387 . S
C989 H974 0.930 . S
C989 C984 1.390 . S
C989 C988 1.387 . S
H990 C1002 0.930 . S
H991 C1004 0.930 . S
H992 C1005 0.930 . S
H993 C1009 0.959 . S
H994 C1009 0.959 . S
H995 C1009 0.961 . S
H996 C1010 0.960 . S
H997 C1010 0.961 . S
H998 C1010 0.959 . S
H999 C1013 0.929 . S
H1000 C1014 0.931 . S
H1001 C1016 0.930 . S
C1002 H990 0.930 . S
C1002 C1003 1.399 . S
C1002 C1007 1.399 . S
C1003 C1002 1.399 . S
C1003 C1004 1.376 . S
C1004 H991 0.930 . S
C1004 C1003 1.376 . S
C1004 C1005 1.388 . S
C1005 H992 0.930 . S
C1005 C1004 1.388 . S
C1005 C1006 1.390 . S
C1006 C1005 1.390 . S
C1006 C1007 1.394 . S
C1006 C1012 1.465 . S
C1007 C1002 1.399 . S
C1007 C1006 1.394 . S
C1007 C1008 1.516 . S
C1008 C1007 1.516 . S
C1008 C1009 1.502 . S
C1008 C1010 1.561 . S
C1008 C1011 1.526 . S
C1009 H993 0.959 . S
C1009 H994 0.959 . S
C1009 H995 0.961 . S
C1009 C1008 1.502 . S
C1010 H996 0.960 . S
C1010 H997 0.961 . S
C1010 H998 0.959 . S
C1010 C1008 1.561 . S
C1011 C1008 1.526 . S
C1011 C1012 1.396 . S
C1011 C1016 1.390 . S
C1012 C1006 1.465 . S
C1012 C1011 1.396 . S
C1012 C1013 1.399 . S
C1013 H999 0.929 . S
C1013 C1012 1.399 . S
C1013 C1014 1.385 . S
C1014 H1000 0.931 . S
C1014 C1013 1.385 . S
C1014 C1015 1.389 . S
C1015 C1014 1.389 . S
C1015 C1016 1.387 . S
C1016 H1001 0.930 . S
C1016 C1011 1.390 . S
C1016 C1015 1.387 . S
H1017 C1029 0.930 . S
H1018 C1031 0.930 . S
H1019 C1032 0.930 . S
H1020 C1036 0.959 . S
H1021 C1036 0.959 1_565 S
H1022 C1036 0.961 . S
H1023 C1037 0.960 . S
H1024 C1037 0.966 . S
H1025 C1037 0.959 . S
H1026 C1040 0.929 . S
H1027 C1041 0.931 . S
H1028 C1043 0.930 . S
C1029 H1017 0.930 . S
C1029 C1030 1.399 . S
C1029 C1034 1.399 . S
C1030 C1029 1.399 . S
C1030 C1031 1.376 . S
C1031 H1018 0.930 . S
C1031 C1030 1.376 . S
C1031 C1032 1.388 . S
C1032 H1019 0.930 . S
C1032 C1031 1.388 . S
C1032 C1033 1.390 . S
C1033 C1032 1.390 . S
C1033 C1034 1.394 . S
C1033 C1039 1.465 . S
C1034 C1029 1.399 . S
C1034 C1033 1.394 . S
C1034 C1035 1.516 . S
C1035 C1034 1.516 . S
C1035 C1036 1.502 . S
C1035 C1037 1.561 . S
C1035 C1038 1.526 . S
C1036 H1020 0.959 . S
C1036 H1021 0.959 1_545 S
C1036 H1022 0.961 . S
C1036 C1035 1.502 . S
C1037 H1023 0.960 . S
C1037 H1024 0.966 . S
C1037 H1025 0.959 . S
C1037 C1035 1.561 . S
C1038 C1035 1.526 . S
C1038 C1039 1.396 . S
C1038 C1043 1.390 . S
C1039 C1033 1.465 . S
C1039 C1038 1.396 . S
C1039 C1040 1.399 . S
C1040 H1026 0.929 . S
C1040 C1039 1.399 . S
C1040 C1041 1.385 . S
C1041 H1027 0.931 . S
C1041 C1040 1.385 . S
C1041 C1042 1.389 . S
C1042 C1041 1.389 . S
C1042 C1043 1.387 . S
C1043 H1028 0.930 . S
C1043 C1038 1.390 . S
C1043 C1042 1.387 . S
H1044 C1056 0.930 . S
H1045 C1058 0.930 . S
H1046 C1059 0.930 . S
H1047 C1063 0.959 . S
H1048 C1063 0.959 . S
H1049 C1063 0.961 . S
H1050 C1064 0.960 . S
H1051 C1064 0.961 . S
H1052 C1064 0.959 . S
H1053 C1067 0.929 . S
H1054 C1068 0.931 . S
H1055 C1070 0.930 . S
C1056 H1044 0.930 . S
C1056 C1057 1.399 . S
C1056 C1061 1.399 . S
C1057 C1056 1.399 . S
C1057 C1058 1.376 . S
C1058 H1045 0.930 . S
C1058 C1057 1.376 . S
C1058 C1059 1.388 . S
C1059 H1046 0.930 . S
C1059 C1058 1.388 . S
C1059 C1060 1.390 . S
C1060 C1059 1.390 . S
C1060 C1061 1.394 . S
C1060 C1066 1.465 . S
C1061 C1056 1.399 . S
C1061 C1060 1.394 . S
C1061 C1062 1.516 . S
C1062 C1061 1.516 . S
C1062 C1063 1.502 . S
C1062 C1064 1.561 . S
C1062 C1065 1.526 . S
C1063 H1047 0.959 . S
C1063 H1048 0.959 . S
C1063 H1049 0.961 . S
C1063 C1062 1.502 . S
C1064 H1050 0.960 . S
C1064 H1051 0.961 . S
C1064 H1052 0.959 . S
C1064 C1062 1.561 . S
C1065 C1062 1.526 . S
C1065 C1066 1.396 . S
C1065 C1070 1.390 . S
C1066 C1060 1.465 . S
C1066 C1065 1.396 . S
C1066 C1067 1.399 . S
C1067 H1053 0.929 . S
C1067 C1066 1.399 . S
C1067 C1068 1.385 . S
C1068 H1054 0.931 . S
C1068 C1067 1.385 . S
C1068 C1069 1.389 . S
C1069 C1068 1.389 . S
C1069 C1070 1.387 . S
C1070 H1055 0.930 . S
C1070 C1065 1.390 . S
C1070 C1069 1.387 . S
H1071 C1083 0.930 . S
H1072 C1085 0.930 . S
H1073 C1086 0.930 . S
H1074 C1090 0.959 . S
H1075 C1090 0.959 . S
H1076 C1090 0.961 . S
H1077 C1091 0.960 . S
H1078 C1091 0.961 . S
H1079 C1091 0.959 . S
H1080 C1094 0.929 . S
H1081 C1095 0.931 . S
H1082 C1097 0.930 . S
C1083 H1071 0.930 . S
C1083 C1084 1.399 . S
C1083 C1088 1.399 . S
C1084 C1083 1.399 . S
C1084 C1085 1.376 . S
C1085 H1072 0.930 . S
C1085 C1084 1.376 . S
C1085 C1086 1.388 1_565 S
C1086 H1073 0.930 . S
C1086 C1085 1.388 1_545 S
C1086 C1087 1.390 . S
C1087 C1086 1.390 . S
C1087 C1088 1.394 1_545 S
C1087 C1093 1.465 . S
C1088 C1083 1.399 . S
C1088 C1087 1.394 1_565 S
C1088 C1089 1.516 . S
C1089 C1088 1.516 . S
C1089 C1090 1.502 . S
C1089 C1091 1.561 . S
C1089 C1092 1.526 1_565 S
C1090 H1074 0.959 . S
C1090 H1075 0.959 . S
C1090 H1076 0.961 . S
C1090 C1089 1.502 . S
C1091 H1077 0.960 . S
C1091 H1078 0.961 . S
C1091 H1079 0.959 . S
C1091 C1089 1.561 . S
C1092 C1089 1.526 1_545 S
C1092 C1093 1.396 . S
C1092 C1097 1.390 . S
C1093 C1087 1.465 . S
C1093 C1092 1.396 . S
C1093 C1094 1.399 . S
C1094 H1080 0.929 . S
C1094 C1093 1.399 . S
C1094 C1095 1.385 . S
C1095 H1081 0.931 . S
C1095 C1094 1.385 . S
C1095 C1096 1.389 . S
C1096 C1095 1.389 . S
C1096 C1097 1.387 . S
C1097 H1082 0.930 . S
C1097 C1092 1.390 . S
C1097 C1096 1.387 . S
H1098 C1110 0.930 . S
H1099 C1112 0.930 . S
H1100 C1113 0.930 . S
H1101 C1117 0.959 . S
H1102 C1117 0.959 . S
H1103 C1117 0.961 . S
H1104 C1118 0.960 . S
H1105 C1118 0.961 . S
H1106 C1118 0.959 . S
H1107 C1121 0.929 . S
H1108 C1122 0.931 . S
H1109 C1124 0.930 . S
C1110 H1098 0.930 . S
C1110 C1111 1.399 . S
C1110 C1115 1.399 1_655 S
C1111 C1110 1.399 . S
C1111 C1112 1.376 . S
C1112 H1099 0.930 . S
C1112 C1111 1.376 . S
C1112 C1113 1.388 . S
C1113 H1100 0.930 . S
C1113 C1112 1.388 . S
C1113 C1114 1.390 . S
C1114 C1113 1.390 . S
C1114 C1115 1.394 1_655 S
C1114 C1120 1.465 1_655 S
C1115 C1110 1.399 1_455 S
C1115 C1114 1.394 1_455 S
C1115 C1116 1.516 . S
C1116 C1115 1.516 . S
C1116 C1117 1.502 . S
C1116 C1118 1.561 . S
C1116 C1119 1.526 . S
C1117 H1101 0.959 . S
C1117 H1102 0.959 . S
C1117 H1103 0.961 . S
C1117 C1116 1.502 . S
C1118 H1104 0.960 . S
C1118 H1105 0.961 . S
C1118 H1106 0.959 . S
C1118 C1116 1.561 . S
C1119 C1116 1.526 . S
C1119 C1120 1.396 . S
C1119 C1124 1.390 . S
C1120 C1114 1.465 1_455 S
C1120 C1119 1.396 . S
C1120 C1121 1.399 . S
C1121 H1107 0.929 . S
C1121 C1120 1.399 . S
C1121 C1122 1.385 . S
C1122 H1108 0.931 . S
C1122 C1121 1.385 . S
C1122 C1123 1.389 . S
C1123 C1122 1.389 . S
C1123 C1124 1.387 . S
C1124 H1109 0.930 . S
C1124 C1119 1.390 . S
C1124 C1123 1.387 . S
H1125 C1137 0.930 . S
H1126 C1139 0.930 . S
H1127 C1140 0.930 . S
H1128 C1144 0.959 . S
H1129 C1144 0.959 . S
H1130 C1144 0.961 . S
H1131 C1145 0.960 . S
H1132 C1145 0.961 . S
H1133 C1145 0.959 . S
H1134 C1148 0.929 . S
H1135 C1149 0.931 . S
H1136 C1151 0.930 . S
C1137 H1125 0.930 . S
C1137 C1138 1.399 . S
C1137 C1142 1.399 . S
C1138 C1137 1.399 . S
C1138 C1139 1.376 . S
C1139 H1126 0.930 . S
C1139 C1138 1.376 . S
C1139 C1140 1.388 . S
C1140 H1127 0.930 . S
C1140 C1139 1.388 . S
C1140 C1141 1.390 . S
C1141 C1140 1.390 . S
C1141 C1142 1.394 . S
C1141 C1147 1.465 . S
C1142 C1137 1.399 . S
C1142 C1141 1.394 . S
C1142 C1143 1.516 . S
C1143 C1142 1.516 . S
C1143 C1144 1.502 . S
C1143 C1145 1.561 . S
C1143 C1146 1.526 . S
C1144 H1128 0.959 . S
C1144 H1129 0.959 . S
C1144 H1130 0.961 . S
C1144 C1143 1.502 . S
C1145 H1131 0.960 . S
C1145 H1132 0.961 . S
C1145 H1133 0.959 . S
C1145 C1143 1.561 . S
C1146 C1143 1.526 . S
C1146 C1147 1.396 . S
C1146 C1151 1.390 . S
C1147 C1141 1.465 . S
C1147 C1146 1.396 . S
C1147 C1148 1.399 . S
C1148 H1134 0.929 . S
C1148 C1147 1.399 . S
C1148 C1149 1.385 . S
C1149 H1135 0.931 . S
C1149 C1148 1.385 . S
C1149 C1150 1.389 . S
C1150 C1149 1.389 . S
C1150 C1151 1.387 . S
C1151 H1136 0.930 . S
C1151 C1146 1.390 . S
C1151 C1150 1.387 . S
H1152 C1164 0.930 . S
H1153 C1166 0.930 . S
H1154 C1167 0.930 . S
H1155 C1171 0.959 . S
H1156 C1171 0.959 . S
H1157 C1171 0.961 . S
H1158 C1172 0.960 . S
H1159 C1172 0.961 . S
H1160 C1172 0.959 . S
H1161 C1175 0.929 . S
H1162 C1176 0.931 . S
H1163 C1178 0.930 . S
C1164 H1152 0.930 . S
C1164 C1165 1.399 . S
C1164 C1169 1.399 1_565 S
C1165 C1164 1.399 . S
C1165 C1166 1.376 . S
C1166 H1153 0.930 . S
C1166 C1165 1.376 . S
C1166 C1167 1.388 . S
C1167 H1154 0.930 . S
C1167 C1166 1.388 . S
C1167 C1168 1.390 . S
C1168 C1167 1.390 . S
C1168 C1169 1.394 1_565 S
C1168 C1174 1.465 1_565 S
C1169 C1164 1.399 1_545 S
C1169 C1168 1.394 1_545 S
C1169 C1170 1.516 . S
C1170 C1169 1.516 . S
C1170 C1171 1.502 . S
C1170 C1172 1.561 . S
C1170 C1173 1.526 . S
C1171 H1155 0.959 . S
C1171 H1156 0.959 . S
C1171 H1157 0.961 . S
C1171 C1170 1.502 . S
C1172 H1158 0.960 . S
C1172 H1159 0.961 . S
C1172 H1160 0.959 . S
C1172 C1170 1.561 . S
C1173 C1170 1.526 . S
C1173 C1174 1.396 . S
C1173 C1178 1.390 . S
C1174 C1168 1.465 1_545 S
C1174 C1173 1.396 . S
C1174 C1175 1.399 . S
C1175 H1161 0.929 . S
C1175 C1174 1.399 . S
C1175 C1176 1.385 . S
C1176 H1162 0.931 . S
C1176 C1175 1.385 . S
C1176 C1177 1.389 . S
C1177 C1176 1.389 . S
C1177 C1178 1.387 . S
C1178 H1163 0.930 . S
C1178 C1173 1.390 . S
C1178 C1177 1.387 . S
H1179 C1191 0.930 . S
H1180 C1193 0.930 . S
H1181 C1194 0.930 . S
H1182 C1198 0.959 . S
H1183 C1198 0.959 . S
H1184 C1198 0.961 . S
H1185 C1199 0.960 . S
H1186 C1199 0.952 1_455 S
H1187 C1199 0.959 1_455 S
H1188 C1202 0.929 . S
H1189 C1203 0.931 . S
H1190 C1205 0.930 . S
C1191 H1179 0.930 . S
C1191 C1192 1.399 . S
C1191 C1196 1.399 . S
C1192 C1191 1.399 . S
C1192 C1193 1.376 . S
C1193 H1180 0.930 . S
C1193 C1192 1.376 . S
C1193 C1194 1.388 1_655 S
C1194 H1181 0.930 . S
C1194 C1193 1.388 1_455 S
C1194 C1195 1.390 . S
C1195 C1194 1.390 . S
C1195 C1196 1.394 1_455 S
C1195 C1201 1.465 . S
C1196 C1191 1.399 . S
C1196 C1195 1.394 1_655 S
C1196 C1197 1.516 . S
C1197 C1196 1.516 . S
C1197 C1198 1.502 . S
C1197 C1199 1.561 . S
C1197 C1200 1.526 1_655 S
C1198 H1182 0.959 . S
C1198 H1183 0.959 . S
C1198 H1184 0.961 . S
C1198 C1197 1.502 . S
C1199 H1185 0.960 . S
C1199 H1186 0.952 1_655 S
C1199 H1187 0.959 1_655 S
C1199 C1197 1.561 . S
C1200 C1197 1.526 1_455 S
C1200 C1201 1.396 . S
C1200 C1205 1.390 . S
C1201 C1195 1.465 . S
C1201 C1200 1.396 . S
C1201 C1202 1.399 . S
C1202 H1188 0.929 . S
C1202 C1201 1.399 . S
C1202 C1203 1.385 . S
C1203 H1189 0.931 . S
C1203 C1202 1.385 . S
C1203 C1204 1.389 . S
C1204 C1203 1.389 . S
C1204 C1205 1.387 . S
C1205 H1190 0.930 . S
C1205 C1200 1.390 . S
C1205 C1204 1.387 . S
H1206 C1218 0.930 . S
H1207 C1220 0.930 . S
H1208 C1221 0.930 . S
H1209 C1225 0.969 . S
H1210 C1225 1.010 . S
H1211 C1225 0.907 1_554 S
H1212 C1226 0.983 . S
H1213 C1226 0.941 1_556 S
H1214 C1226 0.958 1_556 S
H1215 C1229 0.929 . S
H1216 C1230 0.931 . S
H1217 C1232 0.930 . S
C1218 H1206 0.930 . S
C1218 C1219 1.399 . S
C1218 C1223 1.399 . S
C1219 C1218 1.399 . S
C1219 C1220 1.376 1_545 S
C1220 H1207 0.930 . S
C1220 C1219 1.376 1_565 S
C1220 C1221 1.388 . S
C1221 H1208 0.930 . S
C1221 C1220 1.388 . S
C1221 C1222 1.390 1_565 S
C1222 C1221 1.390 1_545 S
C1222 C1223 1.394 . S
C1222 C1228 1.465 1_554 S
C1223 C1218 1.399 . S
C1223 C1222 1.394 . S
C1223 C1224 1.524 1_554 S
C1224 C1223 1.524 1_556 S
C1224 C1225 1.500 . S
C1224 C1226 1.561 1_556 S
C1224 C1227 1.518 . S
C1225 H1209 0.969 . S
C1225 H1210 1.010 . S
C1225 H1211 0.907 1_556 S
C1225 C1224 1.500 . S
C1226 H1212 0.983 . S
C1226 H1213 0.941 1_554 S
C1226 H1214 0.958 1_554 S
C1226 C1224 1.561 1_554 S
C1227 C1224 1.518 . S
C1227 C1228 1.396 . S
C1227 C1232 1.390 . S
C1228 C1222 1.465 1_556 S
C1228 C1227 1.396 . S
C1228 C1229 1.399 1_545 S
C1229 H1215 0.929 . S
C1229 C1228 1.399 1_565 S
C1229 C1230 1.385 . S
C1230 H1216 0.931 . S
C1230 C1229 1.385 . S
C1230 C1231 1.389 1_565 S
C1231 C1230 1.389 1_545 S
C1231 C1232 1.387 . S
C1232 H1217 0.930 . S
C1232 C1227 1.390 . S
C1232 C1231 1.387 . S
H1233 C1245 0.930 . S
H1234 C1247 0.930 . S
H1235 C1248 0.930 . S
H1236 C1252 0.959 1_554 S
H1237 C1252 0.956 1_554 S
H1238 C1252 0.964 . S
H1239 C1253 0.924 1_556 S
H1240 C1253 0.994 . S
H1241 C1253 0.965 . S
H1242 C1256 0.929 . S
H1243 C1257 0.931 . S
H1244 C1259 0.930 . S
C1245 H1233 0.930 . S
C1245 C1246 1.399 . S
C1245 C1250 1.399 . S
C1246 C1245 1.399 . S
C1246 C1247 1.376 1_455 S
C1247 H1234 0.930 . S
C1247 C1246 1.376 1_655 S
C1247 C1248 1.388 . S
C1248 H1235 0.930 . S
C1248 C1247 1.388 . S
C1248 C1249 1.390 1_655 S
C1249 C1248 1.390 1_455 S
C1249 C1250 1.394 . S
C1249 C1255 1.465 1_556 S
C1250 C1245 1.399 . S
C1250 C1249 1.394 . S
C1250 C1251 1.526 1_556 S
C1251 C1250 1.526 1_554 S
C1251 C1252 1.502 1_554 S
C1251 C1253 1.560 . S
C1251 C1254 1.516 . S
C1252 H1236 0.959 1_556 S
C1252 H1237 0.956 1_556 S
C1252 H1238 0.964 . S
C1252 C1251 1.502 1_556 S
C1253 H1239 0.924 1_554 S
C1253 H1240 0.994 . S
C1253 H1241 0.965 . S
C1253 C1251 1.560 . S
C1254 C1251 1.516 . S
C1254 C1255 1.396 . S
C1254 C1259 1.390 . S
C1255 C1249 1.465 1_554 S
C1255 C1254 1.396 . S
C1255 C1256 1.399 1_455 S
C1256 H1242 0.929 . S
C1256 C1255 1.399 1_655 S
C1256 C1257 1.385 . S
C1257 H1243 0.931 . S
C1257 C1256 1.385 . S
C1257 C1258 1.389 1_655 S
C1258 C1257 1.389 1_455 S
C1258 C1259 1.387 . S
C1259 H1244 0.930 . S
C1259 C1254 1.390 . S
C1259 C1258 1.387 . S
H1260 C1272 0.930 . S
H1261 C1274 0.930 . S
H1262 C1275 0.930 . S
H1263 C1279 0.954 1_556 S
H1264 C1279 0.923 1_556 S
H1265 C1279 1.003 . S
H1266 C1280 1.032 . S
H1267 C1280 0.902 1_556 S
H1268 C1280 0.954 1_556 S
H1269 C1283 0.929 . S
H1270 C1284 0.931 . S
H1271 C1286 0.930 . S
C1272 H1260 0.930 . S
C1272 C1273 1.399 . S
C1272 C1277 1.399 . S
C1273 C1272 1.399 . S
C1273 C1274 1.376 . S
C1274 H1261 0.930 . S
C1274 C1273 1.376 . S
C1274 C1275 1.388 . S
C1275 H1262 0.930 . S
C1275 C1274 1.388 . S
C1275 C1276 1.390 . S
C1276 C1275 1.390 . S
C1276 C1277 1.394 . S
C1276 C1282 1.465 1_554 S
C1277 C1272 1.399 . S
C1277 C1276 1.394 . S
C1277 C1278 1.549 . S
C1278 C1277 1.549 . S
C1278 C1279 1.502 . S
C1278 C1280 1.561 . S
C1278 C1281 1.491 1_554 S
C1279 H1263 0.954 1_554 S
C1279 H1264 0.923 1_554 S
C1279 H1265 1.003 . S
C1279 C1278 1.502 . S
C1280 H1266 1.032 . S
C1280 H1267 0.902 1_554 S
C1280 H1268 0.954 1_554 S
C1280 C1278 1.561 . S
C1281 C1278 1.491 1_556 S
C1281 C1282 1.396 . S
C1281 C1286 1.390 . S
C1282 C1276 1.465 1_556 S
C1282 C1281 1.396 . S
C1282 C1283 1.399 . S
C1283 H1269 0.929 . S
C1283 C1282 1.399 . S
C1283 C1284 1.385 . S
C1284 H1270 0.931 . S
C1284 C1283 1.385 . S
C1284 C1285 1.389 . S
C1285 C1284 1.389 . S
C1285 C1286 1.387 . S
C1286 H1271 0.930 . S
C1286 C1281 1.390 . S
C1286 C1285 1.387 . S
H1287 C1299 0.930 . S
H1288 C1301 0.930 . S
H1289 C1302 0.930 . S
H1290 C1306 0.959 . S
H1291 C1306 0.959 . S
H1292 C1306 0.961 . S
H1293 C1307 0.960 . S
H1294 C1307 0.961 . S
H1295 C1307 0.959 . S
H1296 C1310 0.929 . S
H1297 C1311 0.931 . S
H1298 C1313 0.930 . S
C1299 H1287 0.930 . S
C1299 C1300 1.399 . S
C1299 C1304 1.399 . S
C1300 C1299 1.399 . S
C1300 C1301 1.376 . S
C1301 H1288 0.930 . S
C1301 C1300 1.376 . S
C1301 C1302 1.388 . S
C1302 H1289 0.930 . S
C1302 C1301 1.388 . S
C1302 C1303 1.390 . S
C1303 C1302 1.390 . S
C1303 C1304 1.394 . S
C1303 C1309 1.465 . S
C1304 C1299 1.399 . S
C1304 C1303 1.394 . S
C1304 C1305 1.516 . S
C1305 C1304 1.516 . S
C1305 C1306 1.502 1_455 S
C1305 C1307 1.561 . S
C1305 C1308 1.526 . S
C1306 H1290 0.959 . S
C1306 H1291 0.959 . S
C1306 H1292 0.961 . S
C1306 C1305 1.502 1_655 S
C1307 H1293 0.960 . S
C1307 H1294 0.961 . S
C1307 H1295 0.959 . S
C1307 C1305 1.561 . S
C1308 C1305 1.526 . S
C1308 C1309 1.396 . S
C1308 C1313 1.390 . S
C1309 C1303 1.465 . S
C1309 C1308 1.396 . S
C1309 C1310 1.399 . S
C1310 H1296 0.929 . S
C1310 C1309 1.399 . S
C1310 C1311 1.385 . S
C1311 H1297 0.931 . S
C1311 C1310 1.385 . S
C1311 C1312 1.389 . S
C1312 C1311 1.389 . S
C1312 C1313 1.387 . S
C1313 H1298 0.930 . S
C1313 C1308 1.390 . S
C1313 C1312 1.387 . S
H1314 C1326 0.930 . S
H1315 C1328 0.930 . S
H1316 C1329 0.930 . S
H1317 C1333 0.959 . S
H1318 C1333 0.959 . S
H1319 C1333 0.961 . S
H1320 C1334 0.960 . S
H1321 C1334 0.961 . S
H1322 C1334 0.959 . S
H1323 C1337 0.929 . S
H1324 C1338 0.931 . S
H1325 C1340 0.930 . S
C1326 H1314 0.930 . S
C1326 C1327 1.399 . S
C1326 C1331 1.399 . S
C1327 C1326 1.399 . S
C1327 C1328 1.376 . S
C1328 H1315 0.930 . S
C1328 C1327 1.376 . S
C1328 C1329 1.388 . S
C1329 H1316 0.930 . S
C1329 C1328 1.388 . S
C1329 C1330 1.390 . S
C1330 C1329 1.390 . S
C1330 C1331 1.394 . S
C1330 C1336 1.465 . S
C1331 C1326 1.399 . S
C1331 C1330 1.394 . S
C1331 C1332 1.516 . S
C1332 C1331 1.516 . S
C1332 C1333 1.502 . S
C1332 C1334 1.561 . S
C1332 C1335 1.526 . S
C1333 H1317 0.959 . S
C1333 H1318 0.959 . S
C1333 H1319 0.961 . S
C1333 C1332 1.502 . S
C1334 H1320 0.960 . S
C1334 H1321 0.961 . S
C1334 H1322 0.959 . S
C1334 C1332 1.561 . S
C1335 C1332 1.526 . S
C1335 C1336 1.396 . S
C1335 C1340 1.390 . S
C1336 C1330 1.465 . S
C1336 C1335 1.396 . S
C1336 C1337 1.399 . S
C1337 H1323 0.929 . S
C1337 C1336 1.399 . S
C1337 C1338 1.385 . S
C1338 H1324 0.931 . S
C1338 C1337 1.385 . S
C1338 C1339 1.389 . S
C1339 C1338 1.389 . S
C1339 C1340 1.387 . S
C1340 H1325 0.930 . S
C1340 C1335 1.390 . S
C1340 C1339 1.387 . S
H1341 C1353 0.930 . S
H1342 C1355 0.930 . S
H1343 C1356 0.930 . S
H1344 C1360 0.959 . S
H1345 C1360 0.959 . S
H1346 C1360 0.961 . S
H1347 C1361 0.960 . S
H1348 C1361 0.961 . S
H1349 C1361 0.959 . S
H1350 C1364 0.929 . S
H1351 C1365 0.931 . S
H1352 C1367 0.930 . S
C1353 H1341 0.930 . S
C1353 C1354 1.399 . S
C1353 C1358 1.399 . S
C1354 C1353 1.399 . S
C1354 C1355 1.376 1_545 S
C1355 H1342 0.930 . S
C1355 C1354 1.376 1_565 S
C1355 C1356 1.388 . S
C1356 H1343 0.930 . S
C1356 C1355 1.388 . S
C1356 C1357 1.390 1_565 S
C1357 C1356 1.390 1_545 S
C1357 C1358 1.394 . S
C1357 C1363 1.465 . S
C1358 C1353 1.399 . S
C1358 C1357 1.394 . S
C1358 C1359 1.516 . S
C1359 C1358 1.516 . S
C1359 C1360 1.502 . S
C1359 C1361 1.561 . S
C1359 C1362 1.526 . S
C1360 H1344 0.959 . S
C1360 H1345 0.959 . S
C1360 H1346 0.961 . S
C1360 C1359 1.502 . S
C1361 H1347 0.960 . S
C1361 H1348 0.961 . S
C1361 H1349 0.959 . S
C1361 C1359 1.561 . S
C1362 C1359 1.526 . S
C1362 C1363 1.396 . S
C1362 C1367 1.390 . S
C1363 C1357 1.465 . S
C1363 C1362 1.396 . S
C1363 C1364 1.399 1_545 S
C1364 H1350 0.929 . S
C1364 C1363 1.399 1_565 S
C1364 C1365 1.385 . S
C1365 H1351 0.931 . S
C1365 C1364 1.385 . S
C1365 C1366 1.389 1_565 S
C1366 C1365 1.389 1_545 S
C1366 C1367 1.387 . S
C1367 H1352 0.930 . S
C1367 C1362 1.390 . S
C1367 C1366 1.387 . S
H1368 C1380 0.930 . S
H1369 C1382 0.930 . S
H1370 C1383 0.930 . S
H1371 C1387 0.959 . S
H1372 C1387 0.959 . S
H1373 C1387 0.961 . S
H1374 C1388 0.960 . S
H1375 C1388 0.961 . S
H1376 C1388 0.959 . S
H1377 C1391 0.929 . S
H1378 C1392 0.931 . S
H1379 C1394 0.930 . S
C1380 H1368 0.930 . S
C1380 C1381 1.399 . S
C1380 C1385 1.399 . S
C1381 C1380 1.399 . S
C1381 C1382 1.376 . S
C1382 H1369 0.930 . S
C1382 C1381 1.376 . S
C1382 C1383 1.388 . S
C1383 H1370 0.930 . S
C1383 C1382 1.388 . S
C1383 C1384 1.390 . S
C1384 C1383 1.390 . S
C1384 C1385 1.394 . S
C1384 C1390 1.465 . S
C1385 C1380 1.399 . S
C1385 C1384 1.394 . S
C1385 C1386 1.516 . S
C1386 C1385 1.516 . S
C1386 C1387 1.502 . S
C1386 C1388 1.561 . S
C1386 C1389 1.526 . S
C1387 H1371 0.959 . S
C1387 H1372 0.959 . S
C1387 H1373 0.961 . S
C1387 C1386 1.502 . S
C1388 H1374 0.960 . S
C1388 H1375 0.961 . S
C1388 H1376 0.959 . S
C1388 C1386 1.561 . S
C1389 C1386 1.526 . S
C1389 C1390 1.396 . S
C1389 C1394 1.390 . S
C1390 C1384 1.465 . S
C1390 C1389 1.396 . S
C1390 C1391 1.399 . S
C1391 H1377 0.929 . S
C1391 C1390 1.399 . S
C1391 C1392 1.385 . S
C1392 H1378 0.931 . S
C1392 C1391 1.385 . S
C1392 C1393 1.389 . S
C1393 C1392 1.389 . S
C1393 C1394 1.387 . S
C1394 H1379 0.930 . S
C1394 C1389 1.390 . S
C1394 C1393 1.387 . S
H1395 C1407 0.930 . S
H1396 C1409 0.930 . S
H1397 C1410 0.930 . S
H1398 C1414 0.959 . S
H1399 C1414 0.959 . S
H1400 C1414 0.961 . S
H1401 C1415 0.960 . S
H1402 C1415 0.961 . S
H1403 C1415 0.959 . S
H1404 C1418 0.929 . S
H1405 C1419 0.931 . S
H1406 C1421 0.930 . S
C1407 H1395 0.930 . S
C1407 C1408 1.399 . S
C1407 C1412 1.399 . S
C1408 C1407 1.399 . S
C1408 C1409 1.376 . S
C1409 H1396 0.930 . S
C1409 C1408 1.376 . S
C1409 C1410 1.388 . S
C1410 H1397 0.930 . S
C1410 C1409 1.388 . S
C1410 C1411 1.390 . S
C1411 C1410 1.390 . S
C1411 C1412 1.394 . S
C1411 C1417 1.465 . S
C1412 C1407 1.399 . S
C1412 C1411 1.394 . S
C1412 C1413 1.516 . S
C1413 C1412 1.516 . S
C1413 C1414 1.502 . S
C1413 C1415 1.561 . S
C1413 C1416 1.526 . S
C1414 H1398 0.959 . S
C1414 H1399 0.959 . S
C1414 H1400 0.961 . S
C1414 C1413 1.502 . S
C1415 H1401 0.960 . S
C1415 H1402 0.961 . S
C1415 H1403 0.959 . S
C1415 C1413 1.561 . S
C1416 C1413 1.526 . S
C1416 C1417 1.396 . S
C1416 C1421 1.390 . S
C1417 C1411 1.465 . S
C1417 C1416 1.396 . S
C1417 C1418 1.399 . S
C1418 H1404 0.929 . S
C1418 C1417 1.399 . S
C1418 C1419 1.385 . S
C1419 H1405 0.931 . S
C1419 C1418 1.385 . S
C1419 C1420 1.389 . S
C1420 C1419 1.389 . S
C1420 C1421 1.387 . S
C1421 H1406 0.930 . S
C1421 C1416 1.390 . S
C1421 C1420 1.387 . S
H1422 C1434 0.930 . S
H1423 C1436 0.930 . S
H1424 C1437 0.930 . S
H1425 C1441 0.959 . S
H1426 C1441 0.959 . S
H1427 C1441 0.961 . S
H1428 C1442 0.960 . S
H1429 C1442 0.961 . S
H1430 C1442 0.959 . S
H1431 C1445 0.929 . S
H1432 C1446 0.931 . S
H1433 C1448 0.930 . S
C1434 H1422 0.930 . S
C1434 C1435 1.399 . S
C1434 C1439 1.399 . S
C1435 C1434 1.399 . S
C1435 C1436 1.376 . S
C1436 H1423 0.930 . S
C1436 C1435 1.376 . S
C1436 C1437 1.388 . S
C1437 H1424 0.930 . S
C1437 C1436 1.388 . S
C1437 C1438 1.390 . S
C1438 C1437 1.390 . S
C1438 C1439 1.394 . S
C1438 C1444 1.465 . S
C1439 C1434 1.399 . S
C1439 C1438 1.394 . S
C1439 C1440 1.516 . S
C1440 C1439 1.516 . S
C1440 C1441 1.502 . S
C1440 C1442 1.561 . S
C1440 C1443 1.526 . S
C1441 H1425 0.959 . S
C1441 H1426 0.959 . S
C1441 H1427 0.961 . S
C1441 C1440 1.502 . S
C1442 H1428 0.960 . S
C1442 H1429 0.961 . S
C1442 H1430 0.959 . S
C1442 C1440 1.561 . S
C1443 C1440 1.526 . S
C1443 C1444 1.396 . S
C1443 C1448 1.390 . S
C1444 C1438 1.465 . S
C1444 C1443 1.396 . S
C1444 C1445 1.399 . S
C1445 H1431 0.929 . S
C1445 C1444 1.399 . S
C1445 C1446 1.385 . S
C1446 H1432 0.931 . S
C1446 C1445 1.385 . S
C1446 C1447 1.389 . S
C1447 C1446 1.389 . S
C1447 C1448 1.387 . S
C1448 H1433 0.930 . S
C1448 C1443 1.390 . S
C1448 C1447 1.387 . S
H1449 C1461 0.930 . S
H1450 C1463 0.930 . S
H1451 C1464 0.930 . S
H1452 C1468 0.959 . S
H1453 C1468 0.959 . S
H1454 C1468 0.961 . S
H1455 C1469 0.960 . S
H1456 C1469 0.961 . S
H1457 C1469 0.959 . S
H1458 C1472 0.929 . S
H1459 C1473 0.931 . S
H1460 C1475 0.930 . S
C1461 H1449 0.930 . S
C1461 C1462 1.399 . S
C1461 C1466 1.399 . S
C1462 C1461 1.399 . S
C1462 C1463 1.376 . S
C1463 H1450 0.930 . S
C1463 C1462 1.376 . S
C1463 C1464 1.388 . S
C1464 H1451 0.930 . S
C1464 C1463 1.388 . S
C1464 C1465 1.390 . S
C1465 C1464 1.390 . S
C1465 C1466 1.394 . S
C1465 C1471 1.465 . S
C1466 C1461 1.399 . S
C1466 C1465 1.394 . S
C1466 C1467 1.516 . S
C1467 C1466 1.516 . S
C1467 C1468 1.502 . S
C1467 C1469 1.561 . S
C1467 C1470 1.526 . S
C1468 H1452 0.959 . S
C1468 H1453 0.959 . S
C1468 H1454 0.961 . S
C1468 C1467 1.502 . S
C1469 H1455 0.960 . S
C1469 H1456 0.961 . S
C1469 H1457 0.959 . S
C1469 C1467 1.561 . S
C1470 C1467 1.526 . S
C1470 C1471 1.396 . S
C1470 C1475 1.390 . S
C1471 C1465 1.465 . S
C1471 C1470 1.396 . S
C1471 C1472 1.399 . S
C1472 H1458 0.929 . S
C1472 C1471 1.399 . S
C1472 C1473 1.385 . S
C1473 H1459 0.931 . S
C1473 C1472 1.385 . S
C1473 C1474 1.389 . S
C1474 C1473 1.389 . S
C1474 C1475 1.387 . S
C1475 H1460 0.930 . S
C1475 C1470 1.390 . S
C1475 C1474 1.387 . S
H1476 C1488 0.930 . S
H1477 C1490 0.930 . S
H1478 C1491 0.930 . S
H1479 C1495 0.959 . S
H1480 C1495 0.959 . S
H1481 C1495 0.961 . S
H1482 C1496 0.960 . S
H1483 C1496 0.961 . S
H1484 C1496 0.959 . S
H1485 C1499 0.929 . S
H1486 C1500 0.931 . S
H1487 C1502 0.930 . S
C1488 H1476 0.930 . S
C1488 C1489 1.399 . S
C1488 C1493 1.399 . S
C1489 C1488 1.399 . S
C1489 C1490 1.376 . S
C1490 H1477 0.930 . S
C1490 C1489 1.376 . S
C1490 C1491 1.388 . S
C1491 H1478 0.930 . S
C1491 C1490 1.388 . S
C1491 C1492 1.390 . S
C1492 C1491 1.390 . S
C1492 C1493 1.394 . S
C1492 C1498 1.465 . S
C1493 C1488 1.399 . S
C1493 C1492 1.394 . S
C1493 C1494 1.516 . S
C1494 C1493 1.516 . S
C1494 C1495 1.502 . S
C1494 C1496 1.561 . S
C1494 C1497 1.526 . S
C1495 H1479 0.959 . S
C1495 H1480 0.959 . S
C1495 H1481 0.961 . S
C1495 C1494 1.502 . S
C1496 H1482 0.960 . S
C1496 H1483 0.961 . S
C1496 H1484 0.959 . S
C1496 C1494 1.561 . S
C1497 C1494 1.526 . S
C1497 C1498 1.396 . S
C1497 C1502 1.390 . S
C1498 C1492 1.465 . S
C1498 C1497 1.396 . S
C1498 C1499 1.399 . S
C1499 H1485 0.929 . S
C1499 C1498 1.399 . S
C1499 C1500 1.385 . S
C1500 H1486 0.931 . S
C1500 C1499 1.385 . S
C1500 C1501 1.389 . S
C1501 C1500 1.389 . S
C1501 C1502 1.387 . S
C1502 H1487 0.930 . S
C1502 C1497 1.390 . S
C1502 C1501 1.387 . S
H1503 C1515 0.930 . S
H1504 C1517 0.930 . S
H1505 C1518 0.930 . S
H1506 C1522 0.959 . S
H1507 C1522 0.959 . S
H1508 C1522 0.961 . S
H1509 C1523 0.960 . S
H1510 C1523 0.961 . S
H1511 C1523 0.959 . S
H1512 C1526 0.929 . S
H1513 C1527 0.931 . S
H1514 C1529 0.930 . S
C1515 H1503 0.930 . S
C1515 C1516 1.399 . S
C1515 C1520 1.399 . S
C1516 C1515 1.399 . S
C1516 C1517 1.376 . S
C1517 H1504 0.930 . S
C1517 C1516 1.376 . S
C1517 C1518 1.388 . S
C1518 H1505 0.930 . S
C1518 C1517 1.388 . S
C1518 C1519 1.390 . S
C1519 C1518 1.390 . S
C1519 C1520 1.394 . S
C1519 C1525 1.465 . S
C1520 C1515 1.399 . S
C1520 C1519 1.394 . S
C1520 C1521 1.516 . S
C1521 C1520 1.516 . S
C1521 C1522 1.502 . S
C1521 C1523 1.561 . S
C1521 C1524 1.526 . S
C1522 H1506 0.959 . S
C1522 H1507 0.959 . S
C1522 H1508 0.961 . S
C1522 C1521 1.502 . S
C1523 H1509 0.960 . S
C1523 H1510 0.961 . S
C1523 H1511 0.959 . S
C1523 C1521 1.561 . S
C1524 C1521 1.526 . S
C1524 C1525 1.396 . S
C1524 C1529 1.390 . S
C1525 C1519 1.465 . S
C1525 C1524 1.396 . S
C1525 C1526 1.399 . S
C1526 H1512 0.929 . S
C1526 C1525 1.399 . S
C1526 C1527 1.385 . S
C1527 H1513 0.931 . S
C1527 C1526 1.385 . S
C1527 C1528 1.389 . S
C1528 C1527 1.389 . S
C1528 C1529 1.387 . S
C1529 H1514 0.930 . S
C1529 C1524 1.390 . S
C1529 C1528 1.387 . S
H1530 C1542 0.930 . S
H1531 C1544 0.930 . S
H1532 C1545 0.930 . S
H1533 C1549 0.959 . S
H1534 C1549 0.959 . S
H1535 C1549 0.961 . S
H1536 C1550 0.960 . S
H1537 C1550 0.961 . S
H1538 C1550 0.959 . S
H1539 C1553 0.929 . S
H1540 C1554 0.931 . S
H1541 C1556 0.930 . S
C1542 H1530 0.930 . S
C1542 C1543 1.399 . S
C1542 C1547 1.399 . S
C1543 C1542 1.399 . S
C1543 C1544 1.376 . S
C1544 H1531 0.930 . S
C1544 C1543 1.376 . S
C1544 C1545 1.388 . S
C1545 H1532 0.930 . S
C1545 C1544 1.388 . S
C1545 C1546 1.390 . S
C1546 C1545 1.390 . S
C1546 C1547 1.394 . S
C1546 C1552 1.465 . S
C1547 C1542 1.399 . S
C1547 C1546 1.394 . S
C1547 C1548 1.516 . S
C1548 C1547 1.516 . S
C1548 C1549 1.502 . S
C1548 C1550 1.561 . S
C1548 C1551 1.526 . S
C1549 H1533 0.959 . S
C1549 H1534 0.959 . S
C1549 H1535 0.961 . S
C1549 C1548 1.502 . S
C1550 H1536 0.960 . S
C1550 H1537 0.961 . S
C1550 H1538 0.959 . S
C1550 C1548 1.561 . S
C1551 C1548 1.526 . S
C1551 C1552 1.396 . S
C1551 C1556 1.390 . S
C1552 C1546 1.465 . S
C1552 C1551 1.396 . S
C1552 C1553 1.399 . S
C1553 H1539 0.929 . S
C1553 C1552 1.399 . S
C1553 C1554 1.385 . S
C1554 H1540 0.931 . S
C1554 C1553 1.385 . S
C1554 C1555 1.389 . S
C1555 C1554 1.389 . S
C1555 C1556 1.387 . S
C1556 H1541 0.930 . S
C1556 C1551 1.390 . S
C1556 C1555 1.387 . S
H1557 C1569 0.930 . S
H1558 C1571 0.930 . S
H1559 C1572 0.930 . S
H1560 C1576 0.959 . S
H1561 C1576 0.959 . S
H1562 C1576 0.961 . S
H1563 C1577 0.960 . S
H1564 C1577 0.961 . S
H1565 C1577 0.959 . S
H1566 C1580 0.929 . S
H1567 C1581 0.931 . S
H1568 C1583 0.930 . S
C1569 H1557 0.930 . S
C1569 C1570 1.399 . S
C1569 C1574 1.399 . S
C1570 C1569 1.399 . S
C1570 C1571 1.376 . S
C1571 H1558 0.930 . S
C1571 C1570 1.376 . S
C1571 C1572 1.388 . S
C1572 H1559 0.930 . S
C1572 C1571 1.388 . S
C1572 C1573 1.390 . S
C1573 C1572 1.390 . S
C1573 C1574 1.394 . S
C1573 C1579 1.465 . S
C1574 C1569 1.399 . S
C1574 C1573 1.394 . S
C1574 C1575 1.516 . S
C1575 C1574 1.516 . S
C1575 C1576 1.502 . S
C1575 C1577 1.561 . S
C1575 C1578 1.526 . S
C1576 H1560 0.959 . S
C1576 H1561 0.959 . S
C1576 H1562 0.961 . S
C1576 C1575 1.502 . S
C1577 H1563 0.960 . S
C1577 H1564 0.961 . S
C1577 H1565 0.959 . S
C1577 C1575 1.561 . S
C1578 C1575 1.526 . S
C1578 C1579 1.396 . S
C1578 C1583 1.390 . S
C1579 C1573 1.465 . S
C1579 C1578 1.396 . S
C1579 C1580 1.399 . S
C1580 H1566 0.929 . S
C1580 C1579 1.399 . S
C1580 C1581 1.385 . S
C1581 H1567 0.931 . S
C1581 C1580 1.385 . S
C1581 C1582 1.389 . S
C1582 C1581 1.389 . S
C1582 C1583 1.387 . S
C1583 H1568 0.930 . S
C1583 C1578 1.390 . S
C1583 C1582 1.387 . S
H1584 C1596 0.930 . S
H1585 C1598 0.930 . S
H1586 C1599 0.930 . S
H1587 C1603 0.959 . S
H1588 C1603 0.959 . S
H1589 C1603 0.961 . S
H1590 C1604 0.960 . S
H1591 C1604 0.961 . S
H1592 C1604 0.959 . S
H1593 C1607 0.929 . S
H1594 C1608 0.931 . S
H1595 C1610 0.930 . S
C1596 H1584 0.930 . S
C1596 C1597 1.399 . S
C1596 C1601 1.399 . S
C1597 C1596 1.399 . S
C1597 C1598 1.376 . S
C1598 H1585 0.930 . S
C1598 C1597 1.376 . S
C1598 C1599 1.388 . S
C1599 H1586 0.930 . S
C1599 C1598 1.388 . S
C1599 C1600 1.390 . S
C1600 C1599 1.390 . S
C1600 C1601 1.394 . S
C1600 C1606 1.465 . S
C1601 C1596 1.399 . S
C1601 C1600 1.394 . S
C1601 C1602 1.516 . S
C1602 C1601 1.516 . S
C1602 C1603 1.502 . S
C1602 C1604 1.561 . S
C1602 C1605 1.526 . S
C1603 H1587 0.959 . S
C1603 H1588 0.959 . S
C1603 H1589 0.961 . S
C1603 C1602 1.502 . S
C1604 H1590 0.960 . S
C1604 H1591 0.961 . S
C1604 H1592 0.959 . S
C1604 C1602 1.561 . S
C1605 C1602 1.526 . S
C1605 C1606 1.396 . S
C1605 C1610 1.390 . S
C1606 C1600 1.465 . S
C1606 C1605 1.396 . S
C1606 C1607 1.399 . S
C1607 H1593 0.929 . S
C1607 C1606 1.399 . S
C1607 C1608 1.385 . S
C1608 H1594 0.931 . S
C1608 C1607 1.385 . S
C1608 C1609 1.389 . S
C1609 C1608 1.389 . S
C1609 C1610 1.387 . S
C1610 H1595 0.930 . S
C1610 C1605 1.390 . S
C1610 C1609 1.387 . S
H1611 C1623 0.930 . S
H1612 C1625 0.930 . S
H1613 C1626 0.930 . S
H1614 C1630 0.959 . S
H1615 C1630 0.959 . S
H1616 C1630 0.961 . S
H1617 C1631 0.960 . S
H1618 C1631 0.961 . S
H1619 C1631 0.959 . S
H1620 C1634 0.929 . S
H1621 C1635 0.931 . S
H1622 C1637 0.930 . S
C1623 H1611 0.930 . S
C1623 C1624 1.399 . S
C1623 C1628 1.399 . S
C1624 C1623 1.399 . S
C1624 C1625 1.376 . S
C1625 H1612 0.930 . S
C1625 C1624 1.376 . S
C1625 C1626 1.388 . S
C1626 H1613 0.930 . S
C1626 C1625 1.388 . S
C1626 C1627 1.390 . S
C1627 C1626 1.390 . S
C1627 C1628 1.394 . S
C1627 C1633 1.465 . S
C1628 C1623 1.399 . S
C1628 C1627 1.394 . S
C1628 C1629 1.516 . S
C1629 C1628 1.516 . S
C1629 C1630 1.502 . S
C1629 C1631 1.561 . S
C1629 C1632 1.526 . S
C1630 H1614 0.959 . S
C1630 H1615 0.959 . S
C1630 H1616 0.961 . S
C1630 C1629 1.502 . S
C1631 H1617 0.960 . S
C1631 H1618 0.961 . S
C1631 H1619 0.959 . S
C1631 C1629 1.561 . S
C1632 C1629 1.526 . S
C1632 C1633 1.396 . S
C1632 C1637 1.390 . S
C1633 C1627 1.465 . S
C1633 C1632 1.396 . S
C1633 C1634 1.399 . S
C1634 H1620 0.929 . S
C1634 C1633 1.399 . S
C1634 C1635 1.385 . S
C1635 H1621 0.931 . S
C1635 C1634 1.385 . S
C1635 C1636 1.389 . S
C1636 C1635 1.389 . S
C1636 C1637 1.387 . S
C1637 H1622 0.930 . S
C1637 C1632 1.390 . S
C1637 C1636 1.387 . S
H1638 C1650 0.930 . S
H1639 C1652 0.930 . S
H1640 C1653 0.930 . S
H1641 C1657 0.959 . S
H1642 C1657 0.959 . S
H1643 C1657 0.961 . S
H1644 C1658 0.960 . S
H1645 C1658 0.961 . S
H1646 C1658 0.959 . S
H1647 C1661 0.929 . S
H1648 C1662 0.931 . S
H1649 C1664 0.930 . S
C1650 H1638 0.930 . S
C1650 C1651 1.399 . S
C1650 C1655 1.399 . S
C1651 C1650 1.399 . S
C1651 C1652 1.376 . S
C1652 H1639 0.930 . S
C1652 C1651 1.376 . S
C1652 C1653 1.388 . S
C1653 H1640 0.930 . S
C1653 C1652 1.388 . S
C1653 C1654 1.390 . S
C1654 C1653 1.390 . S
C1654 C1655 1.394 . S
C1654 C1660 1.465 . S
C1655 C1650 1.399 . S
C1655 C1654 1.394 . S
C1655 C1656 1.516 . S
C1656 C1655 1.516 . S
C1656 C1657 1.502 . S
C1656 C1658 1.561 . S
C1656 C1659 1.526 . S
C1657 H1641 0.959 . S
C1657 H1642 0.959 . S
C1657 H1643 0.961 . S
C1657 C1656 1.502 . S
C1658 H1644 0.960 . S
C1658 H1645 0.961 . S
C1658 H1646 0.959 . S
C1658 C1656 1.561 . S
C1659 C1656 1.526 . S
C1659 C1660 1.396 . S
C1659 C1664 1.390 . S
C1660 C1654 1.465 . S
C1660 C1659 1.396 . S
C1660 C1661 1.399 . S
C1661 H1647 0.929 . S
C1661 C1660 1.399 . S
C1661 C1662 1.385 . S
C1662 H1648 0.931 . S
C1662 C1661 1.385 . S
C1662 C1663 1.389 . S
C1663 C1662 1.389 . S
C1663 C1664 1.387 . S
C1664 H1649 0.930 . S
C1664 C1659 1.390 . S
C1664 C1663 1.387 . S
H1665 C1677 0.930 . S
H1666 C1679 0.930 . S
H1667 C1680 0.930 . S
H1668 C1684 0.959 . S
H1669 C1684 0.959 . S
H1670 C1684 0.961 . S
H1671 C1685 0.960 . S
H1672 C1685 0.961 . S
H1673 C1685 0.959 . S
H1674 C1688 0.929 . S
H1675 C1689 0.931 . S
H1676 C1691 0.930 . S
C1677 H1665 0.930 . S
C1677 C1678 1.399 . S
C1677 C1682 1.399 . S
C1678 C1677 1.399 . S
C1678 C1679 1.376 . S
C1679 H1666 0.930 . S
C1679 C1678 1.376 . S
C1679 C1680 1.388 . S
C1680 H1667 0.930 . S
C1680 C1679 1.388 . S
C1680 C1681 1.390 . S
C1681 C1680 1.390 . S
C1681 C1682 1.394 . S
C1681 C1687 1.465 . S
C1682 C1677 1.399 . S
C1682 C1681 1.394 . S
C1682 C1683 1.516 . S
C1683 C1682 1.516 . S
C1683 C1684 1.502 . S
C1683 C1685 1.561 . S
C1683 C1686 1.526 . S
C1684 H1668 0.959 . S
C1684 H1669 0.959 . S
C1684 H1670 0.961 . S
C1684 C1683 1.502 . S
C1685 H1671 0.960 . S
C1685 H1672 0.961 . S
C1685 H1673 0.959 . S
C1685 C1683 1.561 . S
C1686 C1683 1.526 . S
C1686 C1687 1.396 . S
C1686 C1691 1.390 . S
C1687 C1681 1.465 . S
C1687 C1686 1.396 . S
C1687 C1688 1.399 . S
C1688 H1674 0.929 . S
C1688 C1687 1.399 . S
C1688 C1689 1.385 . S
C1689 H1675 0.931 . S
C1689 C1688 1.385 . S
C1689 C1690 1.389 . S
C1690 C1689 1.389 . S
C1690 C1691 1.387 . S
C1691 H1676 0.930 . S
C1691 C1686 1.390 . S
C1691 C1690 1.387 . S
H1692 C1704 0.930 . S
H1693 C1706 0.930 . S
H1694 C1707 0.930 . S
H1695 C1711 0.959 . S
H1696 C1711 0.959 . S
H1697 C1711 0.961 . S
H1698 C1712 0.960 . S
H1699 C1712 0.961 . S
H1700 C1712 0.959 . S
H1701 C1715 0.929 . S
H1702 C1716 0.931 . S
H1703 C1718 0.930 . S
C1704 H1692 0.930 . S
C1704 C1705 1.399 . S
C1704 C1709 1.399 . S
C1705 C1704 1.399 . S
C1705 C1706 1.376 . S
C1706 H1693 0.930 . S
C1706 C1705 1.376 . S
C1706 C1707 1.388 . S
C1707 H1694 0.930 . S
C1707 C1706 1.388 . S
C1707 C1708 1.390 . S
C1708 C1707 1.390 . S
C1708 C1709 1.394 . S
C1708 C1714 1.465 . S
C1709 C1704 1.399 . S
C1709 C1708 1.394 . S
C1709 C1710 1.516 . S
C1710 C1709 1.516 . S
C1710 C1711 1.502 . S
C1710 C1712 1.561 . S
C1710 C1713 1.526 . S
C1711 H1695 0.959 . S
C1711 H1696 0.959 . S
C1711 H1697 0.961 . S
C1711 C1710 1.502 . S
C1712 H1698 0.960 . S
C1712 H1699 0.961 . S
C1712 H1700 0.959 . S
C1712 C1710 1.561 . S
C1713 C1710 1.526 . S
C1713 C1714 1.396 . S
C1713 C1718 1.390 . S
C1714 C1708 1.465 . S
C1714 C1713 1.396 . S
C1714 C1715 1.399 . S
C1715 H1701 0.929 . S
C1715 C1714 1.399 . S
C1715 C1716 1.385 . S
C1716 H1702 0.931 . S
C1716 C1715 1.385 . S
C1716 C1717 1.389 . S
C1717 C1716 1.389 . S
C1717 C1718 1.387 . S
C1718 H1703 0.930 . S
C1718 C1713 1.390 . S
C1718 C1717 1.387 . S
H1719 C1731 0.930 . S
H1720 C1733 0.930 . S
H1721 C1734 0.930 . S
H1722 C1738 0.959 . S
H1723 C1738 0.959 . S
H1724 C1738 0.961 . S
H1725 C1739 0.960 . S
H1726 C1739 0.961 . S
H1727 C1739 0.959 . S
H1728 C1742 0.929 . S
H1729 C1743 0.931 . S
H1730 C1745 0.930 . S
C1731 H1719 0.930 . S
C1731 C1732 1.399 . S
C1731 C1736 1.399 . S
C1732 C1731 1.399 . S
C1732 C1733 1.376 . S
C1733 H1720 0.930 . S
C1733 C1732 1.376 . S
C1733 C1734 1.388 . S
C1734 H1721 0.930 . S
C1734 C1733 1.388 . S
C1734 C1735 1.390 . S
C1735 C1734 1.390 . S
C1735 C1736 1.394 . S
C1735 C1741 1.465 . S
C1736 C1731 1.399 . S
C1736 C1735 1.394 . S
C1736 C1737 1.516 . S
C1737 C1736 1.516 . S
C1737 C1738 1.502 . S
C1737 C1739 1.561 . S
C1737 C1740 1.526 . S
C1738 H1722 0.959 . S
C1738 H1723 0.959 . S
C1738 H1724 0.961 . S
C1738 C1737 1.502 . S
C1739 H1725 0.960 . S
C1739 H1726 0.961 . S
C1739 H1727 0.959 . S
C1739 C1737 1.561 . S
C1740 C1737 1.526 . S
C1740 C1741 1.396 . S
C1740 C1745 1.390 . S
C1741 C1735 1.465 . S
C1741 C1740 1.396 . S
C1741 C1742 1.399 . S
C1742 H1728 0.929 . S
C1742 C1741 1.399 . S
C1742 C1743 1.385 . S
C1743 H1729 0.931 . S
C1743 C1742 1.385 . S
C1743 C1744 1.389 . S
C1744 C1743 1.389 . S
C1744 C1745 1.387 . S
C1745 H1730 0.930 . S
C1745 C1740 1.390 . S
C1745 C1744 1.387 . S
H1746 C1758 0.930 . S
H1747 C1760 0.930 . S
H1748 C1761 0.930 . S
H1749 C1765 0.959 . S
H1750 C1765 0.959 . S
H1751 C1765 0.961 . S
H1752 C1766 0.960 . S
H1753 C1766 0.961 . S
H1754 C1766 0.959 . S
H1755 C1769 0.929 . S
H1756 C1770 0.931 . S
H1757 C1772 0.930 . S
C1758 H1746 0.930 . S
C1758 C1759 1.399 . S
C1758 C1763 1.399 . S
C1759 C1758 1.399 . S
C1759 C1760 1.376 . S
C1760 H1747 0.930 . S
C1760 C1759 1.376 . S
C1760 C1761 1.388 . S
C1761 H1748 0.930 . S
C1761 C1760 1.388 . S
C1761 C1762 1.390 . S
C1762 C1761 1.390 . S
C1762 C1763 1.394 . S
C1762 C1768 1.465 . S
C1763 C1758 1.399 . S
C1763 C1762 1.394 . S
C1763 C1764 1.516 . S
C1764 C1763 1.516 . S
C1764 C1765 1.502 . S
C1764 C1766 1.561 . S
C1764 C1767 1.526 . S
C1765 H1749 0.959 . S
C1765 H1750 0.959 . S
C1765 H1751 0.961 . S
C1765 C1764 1.502 . S
C1766 H1752 0.960 . S
C1766 H1753 0.961 . S
C1766 H1754 0.959 . S
C1766 C1764 1.561 . S
C1767 C1764 1.526 . S
C1767 C1768 1.396 . S
C1767 C1772 1.390 . S
C1768 C1762 1.465 . S
C1768 C1767 1.396 . S
C1768 C1769 1.399 . S
C1769 H1755 0.929 . S
C1769 C1768 1.399 . S
C1769 C1770 1.385 . S
C1770 H1756 0.931 . S
C1770 C1769 1.385 . S
C1770 C1771 1.389 . S
C1771 C1770 1.389 . S
C1771 C1772 1.387 . S
C1772 H1757 0.930 . S
C1772 C1767 1.390 . S
C1772 C1771 1.387 . S
H1773 C1785 0.930 . S
H1774 C1787 0.930 . S
H1775 C1788 0.930 . S
H1776 C1792 0.959 . S
H1777 C1792 0.959 . S
H1778 C1792 0.961 . S
H1779 C1793 0.960 . S
H1780 C1793 0.961 . S
H1781 C1793 0.959 . S
H1782 C1796 0.929 . S
H1783 C1797 0.931 . S
H1784 C1799 0.930 . S
C1785 H1773 0.930 . S
C1785 C1786 1.399 . S
C1785 C1790 1.399 . S
C1786 C1785 1.399 . S
C1786 C1787 1.376 . S
C1787 H1774 0.930 . S
C1787 C1786 1.376 . S
C1787 C1788 1.388 . S
C1788 H1775 0.930 . S
C1788 C1787 1.388 . S
C1788 C1789 1.390 . S
C1789 C1788 1.390 . S
C1789 C1790 1.394 . S
C1789 C1795 1.465 . S
C1790 C1785 1.399 . S
C1790 C1789 1.394 . S
C1790 C1791 1.516 . S
C1791 C1790 1.516 . S
C1791 C1792 1.502 . S
C1791 C1793 1.561 . S
C1791 C1794 1.526 . S
C1792 H1776 0.959 . S
C1792 H1777 0.959 . S
C1792 H1778 0.961 . S
C1792 C1791 1.502 . S
C1793 H1779 0.960 . S
C1793 H1780 0.961 . S
C1793 H1781 0.959 . S
C1793 C1791 1.561 . S
C1794 C1791 1.526 . S
C1794 C1795 1.396 . S
C1794 C1799 1.390 . S
C1795 C1789 1.465 . S
C1795 C1794 1.396 . S
C1795 C1796 1.399 . S
C1796 H1782 0.929 . S
C1796 C1795 1.399 . S
C1796 C1797 1.385 . S
C1797 H1783 0.931 . S
C1797 C1796 1.385 . S
C1797 C1798 1.389 . S
C1798 C1797 1.389 . S
C1798 C1799 1.387 . S
C1799 H1784 0.930 . S
C1799 C1794 1.390 . S
C1799 C1798 1.387 . S
H1800 C1812 0.930 . S
H1801 C1814 0.930 . S
H1802 C1815 0.930 . S
H1803 C1819 0.959 . S
H1804 C1819 0.959 . S
H1805 C1819 0.961 . S
H1806 C1820 0.960 . S
H1807 C1820 0.961 . S
H1808 C1820 0.959 . S
H1809 C1823 0.929 . S
H1810 C1824 0.931 . S
H1811 C1826 0.930 . S
C1812 H1800 0.930 . S
C1812 C1813 1.399 . S
C1812 C1817 1.399 . S
C1813 C1812 1.399 . S
C1813 C1814 1.376 . S
C1814 H1801 0.930 . S
C1814 C1813 1.376 . S
C1814 C1815 1.388 . S
C1815 H1802 0.930 . S
C1815 C1814 1.388 . S
C1815 C1816 1.390 . S
C1816 C1815 1.390 . S
C1816 C1817 1.394 . S
C1816 C1822 1.465 . S
C1817 C1812 1.399 . S
C1817 C1816 1.394 . S
C1817 C1818 1.516 . S
C1818 C1817 1.516 . S
C1818 C1819 1.502 . S
C1818 C1820 1.561 . S
C1818 C1821 1.526 . S
C1819 H1803 0.959 . S
C1819 H1804 0.959 . S
C1819 H1805 0.961 . S
C1819 C1818 1.502 . S
C1820 H1806 0.960 . S
C1820 H1807 0.961 . S
C1820 H1808 0.959 . S
C1820 C1818 1.561 . S
C1821 C1818 1.526 . S
C1821 C1822 1.396 . S
C1821 C1826 1.390 . S
C1822 C1816 1.465 . S
C1822 C1821 1.396 . S
C1822 C1823 1.399 . S
C1823 H1809 0.929 . S
C1823 C1822 1.399 . S
C1823 C1824 1.385 . S
C1824 H1810 0.931 . S
C1824 C1823 1.385 . S
C1824 C1825 1.389 . S
C1825 C1824 1.389 . S
C1825 C1826 1.387 . S
C1826 H1811 0.930 . S
C1826 C1821 1.390 . S
C1826 C1825 1.387 . S
H1827 C1839 0.930 . S
H1828 C1841 0.930 . S
H1829 C1842 0.930 . S
H1830 C1846 0.959 . S
H1831 C1846 0.959 . S
H1832 C1846 0.961 . S
H1833 C1847 0.960 . S
H1834 C1847 0.961 . S
H1835 C1847 0.959 . S
H1836 C1850 0.929 . S
H1837 C1851 0.931 . S
H1838 C1853 0.930 . S
C1839 H1827 0.930 . S
C1839 C1840 1.399 . S
C1839 C1844 1.399 . S
C1840 C1839 1.399 . S
C1840 C1841 1.376 . S
C1841 H1828 0.930 . S
C1841 C1840 1.376 . S
C1841 C1842 1.388 . S
C1842 H1829 0.930 . S
C1842 C1841 1.388 . S
C1842 C1843 1.390 . S
C1843 C1842 1.390 . S
C1843 C1844 1.394 . S
C1843 C1849 1.465 . S
C1844 C1839 1.399 . S
C1844 C1843 1.394 . S
C1844 C1845 1.516 . S
C1845 C1844 1.516 . S
C1845 C1846 1.502 . S
C1845 C1847 1.561 . S
C1845 C1848 1.526 . S
C1846 H1830 0.959 . S
C1846 H1831 0.959 . S
C1846 H1832 0.961 . S
C1846 C1845 1.502 . S
C1847 H1833 0.960 . S
C1847 H1834 0.961 . S
C1847 H1835 0.959 . S
C1847 C1845 1.561 . S
C1848 C1845 1.526 . S
C1848 C1849 1.396 . S
C1848 C1853 1.390 . S
C1849 C1843 1.465 . S
C1849 C1848 1.396 . S
C1849 C1850 1.399 . S
C1850 H1836 0.929 . S
C1850 C1849 1.399 . S
C1850 C1851 1.385 . S
C1851 H1837 0.931 . S
C1851 C1850 1.385 . S
C1851 C1852 1.389 . S
C1852 C1851 1.389 . S
C1852 C1853 1.387 . S
C1853 H1838 0.930 . S
C1853 C1848 1.390 . S
C1853 C1852 1.387 . S
H1854 C1866 0.930 . S
H1855 C1868 0.930 . S
H1856 C1869 0.930 . S
H1857 C1873 0.959 . S
H1858 C1873 0.959 . S
H1859 C1873 0.961 . S
H1860 C1874 0.960 . S
H1861 C1874 0.961 . S
H1862 C1874 0.959 . S
H1863 C1877 0.929 . S
H1864 C1878 0.931 . S
H1865 C1880 0.930 . S
C1866 H1854 0.930 . S
C1866 C1867 1.399 . S
C1866 C1871 1.399 . S
C1867 C1866 1.399 . S
C1867 C1868 1.376 . S
C1868 H1855 0.930 . S
C1868 C1867 1.376 . S
C1868 C1869 1.388 . S
C1869 H1856 0.930 . S
C1869 C1868 1.388 . S
C1869 C1870 1.390 . S
C1870 C1869 1.390 . S
C1870 C1871 1.394 . S
C1870 C1876 1.465 . S
C1871 C1866 1.399 . S
C1871 C1870 1.394 . S
C1871 C1872 1.516 . S
C1872 C1871 1.516 . S
C1872 C1873 1.502 . S
C1872 C1874 1.561 . S
C1872 C1875 1.526 . S
C1873 H1857 0.959 . S
C1873 H1858 0.959 . S
C1873 H1859 0.961 . S
C1873 C1872 1.502 . S
C1874 H1860 0.960 . S
C1874 H1861 0.961 . S
C1874 H1862 0.959 . S
C1874 C1872 1.561 . S
C1875 C1872 1.526 . S
C1875 C1876 1.396 . S
C1875 C1880 1.390 . S
C1876 C1870 1.465 . S
C1876 C1875 1.396 . S
C1876 C1877 1.399 . S
C1877 H1863 0.929 . S
C1877 C1876 1.399 . S
C1877 C1878 1.385 . S
C1878 H1864 0.931 . S
C1878 C1877 1.385 . S
C1878 C1879 1.389 . S
C1879 C1878 1.389 . S
C1879 C1880 1.387 . S
C1880 H1865 0.930 . S
C1880 C1875 1.390 . S
C1880 C1879 1.387 . S
H1881 C1893 0.930 . S
H1882 C1895 0.930 . S
H1883 C1896 0.930 . S
H1884 C1900 0.959 . S
H1885 C1900 0.959 . S
H1886 C1900 0.961 . S
H1887 C1901 0.960 . S
H1888 C1901 0.961 . S
H1889 C1901 0.959 . S
H1890 C1904 0.929 . S
H1891 C1905 0.931 . S
H1892 C1907 0.930 . S
C1893 H1881 0.930 . S
C1893 C1894 1.399 . S
C1893 C1898 1.399 . S
C1894 C1893 1.399 . S
C1894 C1895 1.376 . S
C1895 H1882 0.930 . S
C1895 C1894 1.376 . S
C1895 C1896 1.388 . S
C1896 H1883 0.930 . S
C1896 C1895 1.388 . S
C1896 C1897 1.390 . S
C1897 C1896 1.390 . S
C1897 C1898 1.394 . S
C1897 C1903 1.465 . S
C1898 C1893 1.399 . S
C1898 C1897 1.394 . S
C1898 C1899 1.516 . S
C1899 C1898 1.516 . S
C1899 C1900 1.502 . S
C1899 C1901 1.561 . S
C1899 C1902 1.526 . S
C1900 H1884 0.959 . S
C1900 H1885 0.959 . S
C1900 H1886 0.961 . S
C1900 C1899 1.502 . S
C1901 H1887 0.960 . S
C1901 H1888 0.961 . S
C1901 H1889 0.959 . S
C1901 C1899 1.561 . S
C1902 C1899 1.526 . S
C1902 C1903 1.396 . S
C1902 C1907 1.390 . S
C1903 C1897 1.465 . S
C1903 C1902 1.396 . S
C1903 C1904 1.399 . S
C1904 H1890 0.929 . S
C1904 C1903 1.399 . S
C1904 C1905 1.385 . S
C1905 H1891 0.931 . S
C1905 C1904 1.385 . S
C1905 C1906 1.389 . S
C1906 C1905 1.389 . S
C1906 C1907 1.387 . S
C1907 H1892 0.930 . S
C1907 C1902 1.390 . S
C1907 C1906 1.387 . S
H1908 C1920 0.930 . S
H1909 C1922 0.930 . S
H1910 C1923 0.930 . S
H1911 C1927 0.959 . S
H1912 C1927 0.959 . S
H1913 C1927 0.961 . S
H1914 C1928 0.960 . S
H1915 C1928 0.961 . S
H1916 C1928 0.959 . S
H1917 C1931 0.929 . S
H1918 C1932 0.931 . S
H1919 C1934 0.930 . S
C1920 H1908 0.930 . S
C1920 C1921 1.399 . S
C1920 C1925 1.399 . S
C1921 C1920 1.399 . S
C1921 C1922 1.376 . S
C1922 H1909 0.930 . S
C1922 C1921 1.376 . S
C1922 C1923 1.388 . S
C1923 H1910 0.930 . S
C1923 C1922 1.388 . S
C1923 C1924 1.390 . S
C1924 C1923 1.390 . S
C1924 C1925 1.394 . S
C1924 C1930 1.465 . S
C1925 C1920 1.399 . S
C1925 C1924 1.394 . S
C1925 C1926 1.516 . S
C1926 C1925 1.516 . S
C1926 C1927 1.502 . S
C1926 C1928 1.561 . S
C1926 C1929 1.526 . S
C1927 H1911 0.959 . S
C1927 H1912 0.959 . S
C1927 H1913 0.961 . S
C1927 C1926 1.502 . S
C1928 H1914 0.960 . S
C1928 H1915 0.961 . S
C1928 H1916 0.959 . S
C1928 C1926 1.561 . S
C1929 C1926 1.526 . S
C1929 C1930 1.396 . S
C1929 C1934 1.390 . S
C1930 C1924 1.465 . S
C1930 C1929 1.396 . S
C1930 C1931 1.399 . S
C1931 H1917 0.929 . S
C1931 C1930 1.399 . S
C1931 C1932 1.385 . S
C1932 H1918 0.931 . S
C1932 C1931 1.385 . S
C1932 C1933 1.389 . S
C1933 C1932 1.389 . S
C1933 C1934 1.387 . S
C1934 H1919 0.930 . S
C1934 C1929 1.390 . S
C1934 C1933 1.387 . S
H1935 C1947 0.930 . S
H1936 C1949 0.930 . S
H1937 C1950 0.930 . S
H1938 C1954 0.959 . S
H1939 C1954 0.959 . S
H1940 C1954 0.961 . S
H1941 C1955 0.960 . S
H1942 C1955 0.961 . S
H1943 C1955 0.959 . S
H1944 C1958 0.929 . S
H1945 C1959 0.931 . S
H1946 C1961 0.930 . S
C1947 H1935 0.930 . S
C1947 C1948 1.399 . S
C1947 C1952 1.399 . S
C1948 C1947 1.399 . S
C1948 C1949 1.376 . S
C1949 H1936 0.930 . S
C1949 C1948 1.376 . S
C1949 C1950 1.388 . S
C1950 H1937 0.930 . S
C1950 C1949 1.388 . S
C1950 C1951 1.390 . S
C1951 C1950 1.390 . S
C1951 C1952 1.394 . S
C1951 C1957 1.465 . S
C1952 C1947 1.399 . S
C1952 C1951 1.394 . S
C1952 C1953 1.516 . S
C1953 C1952 1.516 . S
C1953 C1954 1.502 . S
C1953 C1955 1.561 . S
C1953 C1956 1.526 . S
C1954 H1938 0.959 . S
C1954 H1939 0.959 . S
C1954 H1940 0.961 . S
C1954 C1953 1.502 . S
C1955 H1941 0.960 . S
C1955 H1942 0.961 . S
C1955 H1943 0.959 . S
C1955 C1953 1.561 . S
C1956 C1953 1.526 . S
C1956 C1957 1.396 . S
C1956 C1961 1.390 . S
C1957 C1951 1.465 . S
C1957 C1956 1.396 . S
C1957 C1958 1.399 . S
C1958 H1944 0.929 . S
C1958 C1957 1.399 . S
C1958 C1959 1.385 . S
C1959 H1945 0.931 . S
C1959 C1958 1.385 . S
C1959 C1960 1.389 . S
C1960 C1959 1.389 . S
C1960 C1961 1.387 . S
C1961 H1946 0.930 . S
C1961 C1956 1.390 . S
C1961 C1960 1.387 . S
H1962 C1974 0.930 . S
H1963 C1976 0.930 . S
H1964 C1977 0.930 . S
H1965 C1981 0.959 . S
H1966 C1981 0.959 . S
H1967 C1981 0.961 . S
H1968 C1982 0.960 . S
H1969 C1982 0.961 . S
H1970 C1982 0.959 . S
H1971 C1985 0.929 . S
H1972 C1986 0.931 . S
H1973 C1988 0.930 . S
C1974 H1962 0.930 . S
C1974 C1975 1.399 . S
C1974 C1979 1.399 . S
C1975 C1974 1.399 . S
C1975 C1976 1.376 . S
C1976 H1963 0.930 . S
C1976 C1975 1.376 . S
C1976 C1977 1.388 . S
C1977 H1964 0.930 . S
C1977 C1976 1.388 . S
C1977 C1978 1.390 . S
C1978 C1977 1.390 . S
C1978 C1979 1.394 . S
C1978 C1984 1.465 . S
C1979 C1974 1.399 . S
C1979 C1978 1.394 . S
C1979 C1980 1.516 . S
C1980 C1979 1.516 . S
C1980 C1981 1.502 . S
C1980 C1982 1.561 . S
C1980 C1983 1.526 . S
C1981 H1965 0.959 . S
C1981 H1966 0.959 . S
C1981 H1967 0.961 . S
C1981 C1980 1.502 . S
C1982 H1968 0.960 . S
C1982 H1969 0.961 . S
C1982 H1970 0.959 . S
C1982 C1980 1.561 . S
C1983 C1980 1.526 . S
C1983 C1984 1.396 . S
C1983 C1988 1.390 . S
C1984 C1978 1.465 . S
C1984 C1983 1.396 . S
C1984 C1985 1.399 . S
C1985 H1971 0.929 . S
C1985 C1984 1.399 . S
C1985 C1986 1.385 . S
C1986 H1972 0.931 . S
C1986 C1985 1.385 . S
C1986 C1987 1.389 . S
C1987 C1986 1.389 . S
C1987 C1988 1.387 . S
C1988 H1973 0.930 . S
C1988 C1983 1.390 . S
C1988 C1987 1.387 . S
H1989 C2001 0.930 . S
H1990 C2003 0.930 . S
H1991 C2004 0.930 . S
H1992 C2008 0.959 . S
H1993 C2008 0.959 . S
H1994 C2008 0.961 . S
H1995 C2009 0.960 . S
H1996 C2009 0.961 . S
H1997 C2009 0.959 . S
H1998 C2012 0.929 . S
H1999 C2013 0.931 . S
H2000 C2015 0.930 . S
C2001 H1989 0.930 . S
C2001 C2002 1.399 . S
C2001 C2006 1.399 . S
C2002 C2001 1.399 . S
C2002 C2003 1.376 . S
C2003 H1990 0.930 . S
C2003 C2002 1.376 . S
C2003 C2004 1.388 . S
C2004 H1991 0.930 . S
C2004 C2003 1.388 . S
C2004 C2005 1.390 . S
C2005 C2004 1.390 . S
C2005 C2006 1.394 . S
C2005 C2011 1.465 . S
C2006 C2001 1.399 . S
C2006 C2005 1.394 . S
C2006 C2007 1.516 . S
C2007 C2006 1.516 . S
C2007 C2008 1.502 . S
C2007 C2009 1.561 . S
C2007 C2010 1.526 . S
C2008 H1992 0.959 . S
C2008 H1993 0.959 . S
C2008 H1994 0.961 . S
C2008 C2007 1.502 . S
C2009 H1995 0.960 . S
C2009 H1996 0.961 . S
C2009 H1997 0.959 . S
C2009 C2007 1.561 . S
C2010 C2007 1.526 . S
C2010 C2011 1.396 . S
C2010 C2015 1.390 . S
C2011 C2005 1.465 . S
C2011 C2010 1.396 . S
C2011 C2012 1.399 . S
C2012 H1998 0.929 . S
C2012 C2011 1.399 . S
C2012 C2013 1.385 . S
C2013 H1999 0.931 . S
C2013 C2012 1.385 . S
C2013 C2014 1.389 . S
C2014 C2013 1.389 . S
C2014 C2015 1.387 . S
C2015 H2000 0.930 . S
C2015 C2010 1.390 . S
C2015 C2014 1.387 . S
H2016 C2028 0.930 . S
H2017 C2030 0.930 . S
H2018 C2031 0.930 . S
H2019 C2035 0.959 . S
H2020 C2035 0.959 . S
H2021 C2035 0.961 . S
H2022 C2036 0.960 . S
H2023 C2036 0.961 . S
H2024 C2036 0.959 . S
H2025 C2039 0.929 . S
H2026 C2040 0.931 . S
H2027 C2042 0.930 . S
C2028 H2016 0.930 . S
C2028 C2029 1.399 . S
C2028 C2033 1.399 . S
C2029 C2028 1.399 . S
C2029 C2030 1.376 . S
C2030 H2017 0.930 . S
C2030 C2029 1.376 . S
C2030 C2031 1.388 . S
C2031 H2018 0.930 . S
C2031 C2030 1.388 . S
C2031 C2032 1.390 . S
C2032 C2031 1.390 . S
C2032 C2033 1.394 . S
C2032 C2038 1.465 . S
C2033 C2028 1.399 . S
C2033 C2032 1.394 . S
C2033 C2034 1.516 . S
C2034 C2033 1.516 . S
C2034 C2035 1.502 . S
C2034 C2036 1.561 . S
C2034 C2037 1.526 . S
C2035 H2019 0.959 . S
C2035 H2020 0.959 . S
C2035 H2021 0.961 . S
C2035 C2034 1.502 . S
C2036 H2022 0.960 . S
C2036 H2023 0.961 . S
C2036 H2024 0.959 . S
C2036 C2034 1.561 . S
C2037 C2034 1.526 . S
C2037 C2038 1.396 . S
C2037 C2042 1.390 . S
C2038 C2032 1.465 . S
C2038 C2037 1.396 . S
C2038 C2039 1.399 . S
C2039 H2025 0.929 . S
C2039 C2038 1.399 . S
C2039 C2040 1.385 . S
C2040 H2026 0.931 . S
C2040 C2039 1.385 . S
C2040 C2041 1.389 . S
C2041 C2040 1.389 . S
C2041 C2042 1.387 . S
C2042 H2027 0.930 . S
C2042 C2037 1.390 . S
C2042 C2041 1.387 . S
H2043 C2055 0.929 1_455 S
H2044 C2057 0.930 . S
H2045 C2058 0.930 . S
H2046 C2062 0.959 . S
H2047 C2062 0.959 . S
H2048 C2062 0.961 . S
H2049 C2063 0.960 . S
H2050 C2063 0.961 . S
H2051 C2063 0.959 . S
H2052 C2066 0.929 . S
H2053 C2067 0.931 . S
H2054 C2069 0.930 . S
C2055 H2043 0.929 1_655 S
C2055 C2056 1.399 1_655 S
C2055 C2060 1.399 . S
C2056 C2055 1.399 1_455 S
C2056 C2057 1.376 . S
C2057 H2044 0.930 . S
C2057 C2056 1.376 . S
C2057 C2058 1.388 1_455 S
C2058 H2045 0.930 . S
C2058 C2057 1.388 1_655 S
C2058 C2059 1.390 . S
C2059 C2058 1.390 . S
C2059 C2060 1.394 . S
C2059 C2065 1.465 . S
C2060 C2055 1.399 . S
C2060 C2059 1.394 . S
C2060 C2061 1.516 . S
C2061 C2060 1.516 . S
C2061 C2062 1.502 . S
C2061 C2063 1.561 . S
C2061 C2064 1.526 . S
C2062 H2046 0.959 . S
C2062 H2047 0.959 . S
C2062 H2048 0.961 . S
C2062 C2061 1.502 . S
C2063 H2049 0.960 . S
C2063 H2050 0.961 . S
C2063 H2051 0.959 . S
C2063 C2061 1.561 . S
C2064 C2061 1.526 . S
C2064 C2065 1.396 . S
C2064 C2069 1.390 . S
C2065 C2059 1.465 . S
C2065 C2064 1.396 . S
C2065 C2066 1.399 . S
C2066 H2052 0.929 . S
C2066 C2065 1.399 . S
C2066 C2067 1.385 . S
C2067 H2053 0.931 . S
C2067 C2066 1.385 . S
C2067 C2068 1.389 . S
C2068 C2067 1.389 . S
C2068 C2069 1.387 . S
C2069 H2054 0.930 . S
C2069 C2064 1.390 . S
C2069 C2068 1.387 . S
H2070 C2082 0.930 . S
H2071 C2084 0.930 . S
H2072 C2085 0.930 . S
H2073 C2089 0.959 . S
H2074 C2089 0.959 . S
H2075 C2089 0.961 . S
H2076 C2090 0.960 . S
H2077 C2090 0.961 . S
H2078 C2090 0.959 . S
H2079 C2093 0.929 . S
H2080 C2094 0.931 . S
H2081 C2096 0.930 . S
C2082 H2070 0.930 . S
C2082 C2083 1.399 . S
C2082 C2087 1.399 . S
C2083 C2082 1.399 . S
C2083 C2084 1.376 . S
C2084 H2071 0.930 . S
C2084 C2083 1.376 . S
C2084 C2085 1.388 . S
C2085 H2072 0.930 . S
C2085 C2084 1.388 . S
C2085 C2086 1.390 . S
C2086 C2085 1.390 . S
C2086 C2087 1.394 . S
C2086 C2092 1.465 . S
C2087 C2082 1.399 . S
C2087 C2086 1.394 . S
C2087 C2088 1.516 . S
C2088 C2087 1.516 . S
C2088 C2089 1.502 . S
C2088 C2090 1.561 . S
C2088 C2091 1.526 . S
C2089 H2073 0.959 . S
C2089 H2074 0.959 . S
C2089 H2075 0.961 . S
C2089 C2088 1.502 . S
C2090 H2076 0.960 . S
C2090 H2077 0.961 . S
C2090 H2078 0.959 . S
C2090 C2088 1.561 . S
C2091 C2088 1.526 . S
C2091 C2092 1.396 . S
C2091 C2096 1.390 1_655 S
C2092 C2086 1.465 . S
C2092 C2091 1.396 . S
C2092 C2093 1.399 . S
C2093 H2079 0.929 . S
C2093 C2092 1.399 . S
C2093 C2094 1.385 1_655 S
C2094 H2080 0.931 . S
C2094 C2093 1.385 1_455 S
C2094 C2095 1.389 . S
C2095 C2094 1.389 . S
C2095 C2096 1.387 . S
C2096 H2081 0.930 . S
C2096 C2091 1.390 1_455 S
C2096 C2095 1.387 . S
H2097 C2109 0.930 . S
H2098 C2111 0.930 . S
H2099 C2112 0.930 . S
H2100 C2116 0.959 . S
H2101 C2116 0.959 . S
H2102 C2116 0.961 . S
H2103 C2117 0.960 . S
H2104 C2117 0.961 . S
H2105 C2117 0.959 . S
H2106 C2120 0.929 . S
H2107 C2121 0.931 . S
H2108 C2123 0.930 . S
C2109 H2097 0.930 . S
C2109 C2110 1.399 . S
C2109 C2114 1.399 . S
C2110 C2109 1.399 . S
C2110 C2111 1.376 . S
C2111 H2098 0.930 . S
C2111 C2110 1.376 . S
C2111 C2112 1.388 . S
C2112 H2099 0.930 . S
C2112 C2111 1.388 . S
C2112 C2113 1.390 . S
C2113 C2112 1.390 . S
C2113 C2114 1.394 . S
C2113 C2119 1.465 . S
C2114 C2109 1.399 . S
C2114 C2113 1.394 . S
C2114 C2115 1.516 . S
C2115 C2114 1.516 . S
C2115 C2116 1.502 . S
C2115 C2117 1.561 . S
C2115 C2118 1.526 . S
C2116 H2100 0.959 . S
C2116 H2101 0.959 . S
C2116 H2102 0.961 . S
C2116 C2115 1.502 . S
C2117 H2103 0.960 . S
C2117 H2104 0.961 . S
C2117 H2105 0.959 . S
C2117 C2115 1.561 . S
C2118 C2115 1.526 . S
C2118 C2119 1.396 . S
C2118 C2123 1.390 . S
C2119 C2113 1.465 . S
C2119 C2118 1.396 . S
C2119 C2120 1.399 . S
C2120 H2106 0.929 . S
C2120 C2119 1.399 . S
C2120 C2121 1.385 . S
C2121 H2107 0.931 . S
C2121 C2120 1.385 . S
C2121 C2122 1.389 . S
C2122 C2121 1.389 . S
C2122 C2123 1.387 . S
C2123 H2108 0.930 . S
C2123 C2118 1.390 . S
C2123 C2122 1.387 . S
H2124 C2136 0.930 . S
H2125 C2138 0.930 . S
H2126 C2139 0.930 . S
H2127 C2143 0.959 . S
H2128 C2143 0.959 . S
H2129 C2143 0.961 . S
H2130 C2144 0.960 . S
H2131 C2144 0.961 . S
H2132 C2144 0.959 . S
H2133 C2147 0.929 . S
H2134 C2148 0.931 . S
H2135 C2150 0.930 . S
C2136 H2124 0.930 . S
C2136 C2137 1.399 . S
C2136 C2141 1.399 . S
C2137 C2136 1.399 . S
C2137 C2138 1.376 . S
C2138 H2125 0.930 . S
C2138 C2137 1.376 . S
C2138 C2139 1.388 . S
C2139 H2126 0.930 . S
C2139 C2138 1.388 . S
C2139 C2140 1.390 . S
C2140 C2139 1.390 . S
C2140 C2141 1.394 . S
C2140 C2146 1.465 . S
C2141 C2136 1.399 . S
C2141 C2140 1.394 . S
C2141 C2142 1.516 . S
C2142 C2141 1.516 . S
C2142 C2143 1.502 . S
C2142 C2144 1.561 . S
C2142 C2145 1.526 . S
C2143 H2127 0.959 . S
C2143 H2128 0.959 . S
C2143 H2129 0.961 . S
C2143 C2142 1.502 . S
C2144 H2130 0.960 . S
C2144 H2131 0.961 . S
C2144 H2132 0.959 . S
C2144 C2142 1.561 . S
C2145 C2142 1.526 . S
C2145 C2146 1.396 . S
C2145 C2150 1.390 . S
C2146 C2140 1.465 . S
C2146 C2145 1.396 . S
C2146 C2147 1.399 . S
C2147 H2133 0.929 . S
C2147 C2146 1.399 . S
C2147 C2148 1.385 . S
C2148 H2134 0.931 . S
C2148 C2147 1.385 . S
C2148 C2149 1.389 . S
C2149 C2148 1.389 . S
C2149 C2150 1.387 . S
C2150 H2135 0.930 . S
C2150 C2145 1.390 . S
C2150 C2149 1.387 . S
H2151 C2163 0.930 . S
H2152 C2165 0.930 . S
H2153 C2166 0.930 . S
H2154 C2170 0.959 . S
H2155 C2170 0.959 . S
H2156 C2170 0.961 . S
H2157 C2171 0.960 . S
H2158 C2171 0.961 . S
H2159 C2171 0.959 . S
H2160 C2174 0.929 . S
H2161 C2175 0.931 . S
H2162 C2177 0.930 . S
C2163 H2151 0.930 . S
C2163 C2164 1.399 . S
C2163 C2168 1.399 . S
C2164 C2163 1.399 . S
C2164 C2165 1.376 . S
C2165 H2152 0.930 . S
C2165 C2164 1.376 . S
C2165 C2166 1.388 . S
C2166 H2153 0.930 . S
C2166 C2165 1.388 . S
C2166 C2167 1.390 . S
C2167 C2166 1.390 . S
C2167 C2168 1.394 . S
C2167 C2173 1.465 . S
C2168 C2163 1.399 . S
C2168 C2167 1.394 . S
C2168 C2169 1.516 . S
C2169 C2168 1.516 . S
C2169 C2170 1.502 . S
C2169 C2171 1.561 . S
C2169 C2172 1.526 . S
C2170 H2154 0.959 . S
C2170 H2155 0.959 . S
C2170 H2156 0.961 . S
C2170 C2169 1.502 . S
C2171 H2157 0.960 . S
C2171 H2158 0.961 . S
C2171 H2159 0.959 . S
C2171 C2169 1.561 . S
C2172 C2169 1.526 . S
C2172 C2173 1.396 . S
C2172 C2177 1.390 . S
C2173 C2167 1.465 . S
C2173 C2172 1.396 . S
C2173 C2174 1.399 . S
C2174 H2160 0.929 . S
C2174 C2173 1.399 . S
C2174 C2175 1.385 . S
C2175 H2161 0.931 . S
C2175 C2174 1.385 . S
C2175 C2176 1.389 . S
C2176 C2175 1.389 . S
C2176 C2177 1.387 . S
C2177 H2162 0.930 . S
C2177 C2172 1.390 . S
C2177 C2176 1.387 . S
H2178 C2190 0.930 . S
H2179 C2192 0.930 . S
H2180 C2193 0.930 . S
H2181 C2197 0.959 . S
H2182 C2197 0.959 . S
H2183 C2197 0.961 . S
H2184 C2198 0.960 . S
H2185 C2198 0.961 . S
H2186 C2198 0.959 . S
H2187 C2201 0.929 . S
H2188 C2202 0.931 . S
H2189 C2204 0.930 . S
C2190 H2178 0.930 . S
C2190 C2191 1.399 . S
C2190 C2195 1.399 . S
C2191 C2190 1.399 . S
C2191 C2192 1.376 . S
C2192 H2179 0.930 . S
C2192 C2191 1.376 . S
C2192 C2193 1.388 . S
C2193 H2180 0.930 . S
C2193 C2192 1.388 . S
C2193 C2194 1.390 . S
C2194 C2193 1.390 . S
C2194 C2195 1.394 . S
C2194 C2200 1.465 . S
C2195 C2190 1.399 . S
C2195 C2194 1.394 . S
C2195 C2196 1.516 . S
C2196 C2195 1.516 . S
C2196 C2197 1.502 . S
C2196 C2198 1.561 . S
C2196 C2199 1.526 . S
C2197 H2181 0.959 . S
C2197 H2182 0.959 . S
C2197 H2183 0.961 . S
C2197 C2196 1.502 . S
C2198 H2184 0.960 . S
C2198 H2185 0.961 . S
C2198 H2186 0.959 . S
C2198 C2196 1.561 . S
C2199 C2196 1.526 . S
C2199 C2200 1.396 . S
C2199 C2204 1.390 . S
C2200 C2194 1.465 . S
C2200 C2199 1.396 . S
C2200 C2201 1.399 . S
C2201 H2187 0.929 . S
C2201 C2200 1.399 . S
C2201 C2202 1.385 . S
C2202 H2188 0.931 . S
C2202 C2201 1.385 . S
C2202 C2203 1.389 . S
C2203 C2202 1.389 . S
C2203 C2204 1.387 . S
C2204 H2189 0.930 . S
C2204 C2199 1.390 . S
C2204 C2203 1.387 . S
H2205 C2217 0.930 . S
H2206 C2219 0.930 . S
H2207 C2220 0.930 . S
H2208 C2224 0.959 . S
H2209 C2224 0.959 . S
H2210 C2224 0.961 . S
H2211 C2225 0.960 . S
H2212 C2225 0.961 . S
H2213 C2225 0.959 . S
H2214 C2228 0.929 . S
H2215 C2229 0.931 . S
H2216 C2231 0.930 . S
C2217 H2205 0.930 . S
C2217 C2218 1.399 . S
C2217 C2222 1.399 . S
C2218 C2217 1.399 . S
C2218 C2219 1.376 . S
C2219 H2206 0.930 . S
C2219 C2218 1.376 . S
C2219 C2220 1.388 . S
C2220 H2207 0.930 . S
C2220 C2219 1.388 . S
C2220 C2221 1.390 . S
C2221 C2220 1.390 . S
C2221 C2222 1.394 . S
C2221 C2227 1.465 . S
C2222 C2217 1.399 . S
C2222 C2221 1.394 . S
C2222 C2223 1.516 . S
C2223 C2222 1.516 . S
C2223 C2224 1.502 . S
C2223 C2225 1.561 . S
C2223 C2226 1.526 . S
C2224 H2208 0.959 . S
C2224 H2209 0.959 . S
C2224 H2210 0.961 . S
C2224 C2223 1.502 . S
C2225 H2211 0.960 . S
C2225 H2212 0.961 . S
C2225 H2213 0.959 . S
C2225 C2223 1.561 . S
C2226 C2223 1.526 . S
C2226 C2227 1.396 . S
C2226 C2231 1.390 . S
C2227 C2221 1.465 . S
C2227 C2226 1.396 . S
C2227 C2228 1.399 . S
C2228 H2214 0.929 . S
C2228 C2227 1.399 . S
C2228 C2229 1.385 . S
C2229 H2215 0.931 . S
C2229 C2228 1.385 . S
C2229 C2230 1.389 . S
C2230 C2229 1.389 . S
C2230 C2231 1.387 . S
C2231 H2216 0.930 . S
C2231 C2226 1.390 . S
C2231 C2230 1.387 . S
H2232 C2244 0.930 . S
H2233 C2246 0.930 . S
H2234 C2247 0.930 . S
H2235 C2251 0.959 . S
H2236 C2251 0.959 . S
H2237 C2251 0.961 . S
H2238 C2252 0.960 . S
H2239 C2252 0.961 . S
H2240 C2252 0.959 . S
H2241 C2255 0.929 . S
H2242 C2256 0.931 . S
H2243 C2258 0.930 . S
C2244 H2232 0.930 . S
C2244 C2245 1.399 . S
C2244 C2249 1.399 . S
C2245 C2244 1.399 . S
C2245 C2246 1.376 . S
C2246 H2233 0.930 . S
C2246 C2245 1.376 . S
C2246 C2247 1.388 . S
C2247 H2234 0.930 . S
C2247 C2246 1.388 . S
C2247 C2248 1.390 . S
C2248 C2247 1.390 . S
C2248 C2249 1.394 . S
C2248 C2254 1.465 . S
C2249 C2244 1.399 . S
C2249 C2248 1.394 . S
C2249 C2250 1.516 . S
C2250 C2249 1.516 . S
C2250 C2251 1.502 . S
C2250 C2252 1.561 . S
C2250 C2253 1.526 . S
C2251 H2235 0.959 . S
C2251 H2236 0.959 . S
C2251 H2237 0.961 . S
C2251 C2250 1.502 . S
C2252 H2238 0.960 . S
C2252 H2239 0.961 . S
C2252 H2240 0.959 . S
C2252 C2250 1.561 . S
C2253 C2250 1.526 . S
C2253 C2254 1.396 . S
C2253 C2258 1.390 . S
C2254 C2248 1.465 . S
C2254 C2253 1.396 . S
C2254 C2255 1.399 . S
C2255 H2241 0.929 . S
C2255 C2254 1.399 . S
C2255 C2256 1.385 . S
C2256 H2242 0.931 . S
C2256 C2255 1.385 . S
C2256 C2257 1.389 . S
C2257 C2256 1.389 . S
C2257 C2258 1.387 . S
C2258 H2243 0.930 . S
C2258 C2253 1.390 . S
C2258 C2257 1.387 . S
H2259 C2271 0.930 . S
H2260 C2273 0.930 . S
H2261 C2274 0.930 . S
H2262 C2278 0.959 . S
H2263 C2278 0.959 . S
H2264 C2278 0.961 1_455 S
H2265 C2279 0.960 . S
H2266 C2279 0.961 . S
H2267 C2279 0.959 . S
H2268 C2282 0.929 . S
H2269 C2283 0.931 . S
H2270 C2285 0.930 . S
C2271 H2259 0.930 . S
C2271 C2272 1.399 . S
C2271 C2276 1.399 1_455 S
C2272 C2271 1.399 . S
C2272 C2273 1.376 1_455 S
C2273 H2260 0.930 . S
C2273 C2272 1.376 1_655 S
C2273 C2274 1.388 . S
C2274 H2261 0.930 . S
C2274 C2273 1.388 . S
C2274 C2275 1.390 . S
C2275 C2274 1.390 . S
C2275 C2276 1.394 . S
C2275 C2281 1.465 . S
C2276 C2271 1.399 1_655 S
C2276 C2275 1.394 . S
C2276 C2277 1.516 . S
C2277 C2276 1.516 . S
C2277 C2278 1.502 . S
C2277 C2279 1.561 . S
C2277 C2280 1.526 . S
C2278 H2262 0.959 . S
C2278 H2263 0.959 . S
C2278 H2264 0.961 1_655 S
C2278 C2277 1.502 . S
C2279 H2265 0.960 . S
C2279 H2266 0.961 . S
C2279 H2267 0.959 . S
C2279 C2277 1.561 . S
C2280 C2277 1.526 . S
C2280 C2281 1.396 . S
C2280 C2285 1.390 . S
C2281 C2275 1.465 . S
C2281 C2280 1.396 . S
C2281 C2282 1.399 . S
C2282 H2268 0.929 . S
C2282 C2281 1.399 . S
C2282 C2283 1.385 . S
C2283 H2269 0.931 . S
C2283 C2282 1.385 . S
C2283 C2284 1.389 . S
C2284 C2283 1.389 . S
C2284 C2285 1.387 . S
C2285 H2270 0.930 . S
C2285 C2280 1.390 . S
C2285 C2284 1.387 . S
H2286 C2298 0.930 . S
H2287 C2300 0.930 . S
H2288 C2301 0.930 . S
H2289 C2305 0.959 . S
H2290 C2305 0.959 . S
H2291 C2305 0.961 . S
H2292 C2306 0.960 . S
H2293 C2306 0.961 . S
H2294 C2306 0.959 . S
H2295 C2309 0.929 . S
H2296 C2310 0.931 1_565 S
H2297 C2312 0.930 . S
C2298 H2286 0.930 . S
C2298 C2299 1.399 . S
C2298 C2303 1.399 . S
C2299 C2298 1.399 . S
C2299 C2300 1.376 . S
C2300 H2287 0.930 . S
C2300 C2299 1.376 . S
C2300 C2301 1.388 . S
C2301 H2288 0.930 . S
C2301 C2300 1.388 . S
C2301 C2302 1.390 . S
C2302 C2301 1.390 . S
C2302 C2303 1.394 . S
C2302 C2308 1.465 . S
C2303 C2298 1.399 . S
C2303 C2302 1.394 . S
C2303 C2304 1.516 . S
C2304 C2303 1.516 . S
C2304 C2305 1.502 . S
C2304 C2306 1.561 . S
C2304 C2307 1.526 . S
C2305 H2289 0.959 . S
C2305 H2290 0.959 . S
C2305 H2291 0.961 . S
C2305 C2304 1.502 . S
C2306 H2292 0.960 . S
C2306 H2293 0.961 . S
C2306 H2294 0.959 . S
C2306 C2304 1.561 . S
C2307 C2304 1.526 . S
C2307 C2308 1.396 . S
C2307 C2312 1.390 . S
C2308 C2302 1.465 . S
C2308 C2307 1.396 . S
C2308 C2309 1.399 . S
C2309 H2295 0.929 . S
C2309 C2308 1.399 . S
C2309 C2310 1.385 . S
C2310 H2296 0.931 1_545 S
C2310 C2309 1.385 . S
C2310 C2311 1.389 . S
C2311 C2310 1.389 . S
C2311 C2312 1.387 . S
C2312 H2297 0.930 . S
C2312 C2307 1.390 . S
C2312 C2311 1.387 . S
H2313 C2325 0.930 . S
H2314 C2327 0.930 . S
H2315 C2328 0.930 . S
H2316 C2332 0.959 . S
H2317 C2332 0.959 . S
H2318 C2332 0.961 . S
H2319 C2333 0.960 . S
H2320 C2333 0.961 . S
H2321 C2333 0.959 . S
H2322 C2336 0.929 . S
H2323 C2337 0.931 . S
H2324 C2339 0.930 . S
C2325 H2313 0.930 . S
C2325 C2326 1.399 . S
C2325 C2330 1.399 . S
C2326 C2325 1.399 . S
C2326 C2327 1.376 . S
C2327 H2314 0.930 . S
C2327 C2326 1.376 . S
C2327 C2328 1.388 . S
C2328 H2315 0.930 . S
C2328 C2327 1.388 . S
C2328 C2329 1.390 . S
C2329 C2328 1.390 . S
C2329 C2330 1.394 . S
C2329 C2335 1.465 . S
C2330 C2325 1.399 . S
C2330 C2329 1.394 . S
C2330 C2331 1.516 . S
C2331 C2330 1.516 . S
C2331 C2332 1.502 . S
C2331 C2333 1.561 . S
C2331 C2334 1.526 . S
C2332 H2316 0.959 . S
C2332 H2317 0.959 . S
C2332 H2318 0.961 . S
C2332 C2331 1.502 . S
C2333 H2319 0.960 . S
C2333 H2320 0.961 . S
C2333 H2321 0.959 . S
C2333 C2331 1.561 . S
C2334 C2331 1.526 . S
C2334 C2335 1.396 . S
C2334 C2339 1.390 1_655 S
C2335 C2329 1.465 . S
C2335 C2334 1.396 . S
C2335 C2336 1.399 . S
C2336 H2322 0.929 . S
C2336 C2335 1.399 . S
C2336 C2337 1.385 1_655 S
C2337 H2323 0.931 . S
C2337 C2336 1.385 1_455 S
C2337 C2338 1.389 . S
C2338 C2337 1.389 . S
C2338 C2339 1.387 . S
C2339 H2324 0.930 . S
C2339 C2334 1.390 1_455 S
C2339 C2338 1.387 . S
H2340 C2352 0.930 . S
H2341 C2354 0.930 . S
H2342 C2355 0.930 . S
H2343 C2359 0.959 . S
H2344 C2359 0.959 . S
H2345 C2359 0.961 . S
H2346 C2360 0.960 . S
H2347 C2360 0.961 . S
H2348 C2360 0.959 . S
H2349 C2363 0.929 . S
H2350 C2364 0.931 . S
H2351 C2366 0.930 . S
C2352 H2340 0.930 . S
C2352 C2353 1.399 . S
C2352 C2357 1.399 . S
C2353 C2352 1.399 . S
C2353 C2354 1.376 . S
C2354 H2341 0.930 . S
C2354 C2353 1.376 . S
C2354 C2355 1.388 . S
C2355 H2342 0.930 . S
C2355 C2354 1.388 . S
C2355 C2356 1.390 . S
C2356 C2355 1.390 . S
C2356 C2357 1.394 . S
C2356 C2362 1.465 . S
C2357 C2352 1.399 . S
C2357 C2356 1.394 . S
C2357 C2358 1.516 . S
C2358 C2357 1.516 . S
C2358 C2359 1.502 . S
C2358 C2360 1.561 . S
C2358 C2361 1.526 . S
C2359 H2343 0.959 . S
C2359 H2344 0.959 . S
C2359 H2345 0.961 . S
C2359 C2358 1.502 . S
C2360 H2346 0.960 . S
C2360 H2347 0.961 . S
C2360 H2348 0.959 . S
C2360 C2358 1.561 . S
C2361 C2358 1.526 . S
C2361 C2362 1.396 . S
C2361 C2366 1.390 . S
C2362 C2356 1.465 . S
C2362 C2361 1.396 . S
C2362 C2363 1.399 . S
C2363 H2349 0.929 . S
C2363 C2362 1.399 . S
C2363 C2364 1.385 . S
C2364 H2350 0.931 . S
C2364 C2363 1.385 . S
C2364 C2365 1.389 . S
C2365 C2364 1.389 . S
C2365 C2366 1.387 . S
C2366 H2351 0.930 . S
C2366 C2361 1.390 . S
C2366 C2365 1.387 . S
H2367 C2379 0.930 . S
H2368 C2381 0.930 . S
H2369 C2382 0.930 . S
H2370 C2386 0.959 . S
H2371 C2386 0.959 . S
H2372 C2386 0.961 . S
H2373 C2387 0.960 . S
H2374 C2387 0.961 . S
H2375 C2387 0.959 . S
H2376 C2390 0.929 . S
H2377 C2391 0.931 . S
H2378 C2393 0.930 . S
C2379 H2367 0.930 . S
C2379 C2380 1.399 . S
C2379 C2384 1.399 . S
C2380 C2379 1.399 . S
C2380 C2381 1.376 . S
C2381 H2368 0.930 . S
C2381 C2380 1.376 . S
C2381 C2382 1.388 . S
C2382 H2369 0.930 . S
C2382 C2381 1.388 . S
C2382 C2383 1.390 . S
C2383 C2382 1.390 . S
C2383 C2384 1.394 . S
C2383 C2389 1.465 . S
C2384 C2379 1.399 . S
C2384 C2383 1.394 . S
C2384 C2385 1.516 . S
C2385 C2384 1.516 . S
C2385 C2386 1.502 . S
C2385 C2387 1.561 . S
C2385 C2388 1.526 . S
C2386 H2370 0.959 . S
C2386 H2371 0.959 . S
C2386 H2372 0.961 . S
C2386 C2385 1.502 . S
C2387 H2373 0.960 . S
C2387 H2374 0.961 . S
C2387 H2375 0.959 . S
C2387 C2385 1.561 . S
C2388 C2385 1.526 . S
C2388 C2389 1.396 . S
C2388 C2393 1.390 . S
C2389 C2383 1.465 . S
C2389 C2388 1.396 . S
C2389 C2390 1.399 . S
C2390 H2376 0.929 . S
C2390 C2389 1.399 . S
C2390 C2391 1.385 . S
C2391 H2377 0.931 . S
C2391 C2390 1.385 . S
C2391 C2392 1.389 . S
C2392 C2391 1.389 . S
C2392 C2393 1.387 . S
C2393 H2378 0.930 . S
C2393 C2388 1.390 . S
C2393 C2392 1.387 . S
H2394 C2406 0.930 . S
H2395 C2408 0.930 . S
H2396 C2409 0.930 . S
H2397 C2413 0.959 . S
H2398 C2413 0.959 . S
H2399 C2413 0.961 . S
H2400 C2414 0.960 . S
H2401 C2414 0.961 . S
H2402 C2414 0.959 . S
H2403 C2417 0.929 . S
H2404 C2418 0.931 . S
H2405 C2420 0.930 . S
C2406 H2394 0.930 . S
C2406 C2407 1.399 . S
C2406 C2411 1.399 . S
C2407 C2406 1.399 . S
C2407 C2408 1.376 . S
C2408 H2395 0.930 . S
C2408 C2407 1.376 . S
C2408 C2409 1.388 . S
C2409 H2396 0.930 . S
C2409 C2408 1.388 . S
C2409 C2410 1.390 . S
C2410 C2409 1.390 . S
C2410 C2411 1.394 . S
C2410 C2416 1.465 . S
C2411 C2406 1.399 . S
C2411 C2410 1.394 . S
C2411 C2412 1.516 . S
C2412 C2411 1.516 . S
C2412 C2413 1.502 . S
C2412 C2414 1.561 . S
C2412 C2415 1.526 . S
C2413 H2397 0.959 . S
C2413 H2398 0.959 . S
C2413 H2399 0.961 . S
C2413 C2412 1.502 . S
C2414 H2400 0.960 . S
C2414 H2401 0.961 . S
C2414 H2402 0.959 . S
C2414 C2412 1.561 . S
C2415 C2412 1.526 . S
C2415 C2416 1.396 . S
C2415 C2420 1.390 . S
C2416 C2410 1.465 . S
C2416 C2415 1.396 . S
C2416 C2417 1.399 . S
C2417 H2403 0.929 . S
C2417 C2416 1.399 . S
C2417 C2418 1.385 . S
C2418 H2404 0.931 . S
C2418 C2417 1.385 . S
C2418 C2419 1.389 . S
C2419 C2418 1.389 . S
C2419 C2420 1.387 . S
C2420 H2405 0.930 . S
C2420 C2415 1.390 . S
C2420 C2419 1.387 . S
H2421 C2433 0.930 . S
H2422 C2435 0.930 . S
H2423 C2436 0.930 . S
H2424 C2440 0.959 . S
H2425 C2440 0.959 . S
H2426 C2440 0.961 . S
H2427 C2441 0.960 . S
H2428 C2441 0.961 . S
H2429 C2441 0.959 . S
H2430 C2444 0.929 . S
H2431 C2445 0.931 . S
H2432 C2447 0.930 . S
C2433 H2421 0.930 . S
C2433 C2434 1.399 . S
C2433 C2438 1.399 . S
C2434 C2433 1.399 . S
C2434 C2435 1.376 . S
C2435 H2422 0.930 . S
C2435 C2434 1.376 . S
C2435 C2436 1.388 . S
C2436 H2423 0.930 . S
C2436 C2435 1.388 . S
C2436 C2437 1.390 . S
C2437 C2436 1.390 . S
C2437 C2438 1.394 . S
C2437 C2443 1.465 . S
C2438 C2433 1.399 . S
C2438 C2437 1.394 . S
C2438 C2439 1.516 . S
C2439 C2438 1.516 . S
C2439 C2440 1.502 . S
C2439 C2441 1.561 . S
C2439 C2442 1.526 . S
C2440 H2424 0.959 . S
C2440 H2425 0.959 . S
C2440 H2426 0.961 . S
C2440 C2439 1.502 . S
C2441 H2427 0.960 . S
C2441 H2428 0.961 . S
C2441 H2429 0.959 . S
C2441 C2439 1.561 . S
C2442 C2439 1.526 . S
C2442 C2443 1.396 . S
C2442 C2447 1.390 . S
C2443 C2437 1.465 . S
C2443 C2442 1.396 . S
C2443 C2444 1.399 . S
C2444 H2430 0.929 . S
C2444 C2443 1.399 . S
C2444 C2445 1.385 . S
C2445 H2431 0.931 . S
C2445 C2444 1.385 . S
C2445 C2446 1.389 . S
C2446 C2445 1.389 . S
C2446 C2447 1.387 . S
C2447 H2432 0.930 . S
C2447 C2442 1.390 . S
C2447 C2446 1.387 . S
H2448 C2460 0.930 . S
H2449 C2462 0.930 . S
H2450 C2463 0.930 . S
H2451 C2467 0.959 . S
H2452 C2467 0.959 . S
H2453 C2467 0.961 . S
H2454 C2468 0.960 . S
H2455 C2468 0.961 . S
H2456 C2468 0.959 . S
H2457 C2471 0.929 . S
H2458 C2472 0.931 . S
H2459 C2474 0.930 . S
C2460 H2448 0.930 . S
C2460 C2461 1.399 . S
C2460 C2465 1.399 1_545 S
C2461 C2460 1.399 . S
C2461 C2462 1.376 . S
C2462 H2449 0.930 . S
C2462 C2461 1.376 . S
C2462 C2463 1.388 1_545 S
C2463 H2450 0.930 . S
C2463 C2462 1.388 1_565 S
C2463 C2464 1.390 . S
C2464 C2463 1.390 . S
C2464 C2465 1.394 . S
C2464 C2470 1.465 . S
C2465 C2460 1.399 1_565 S
C2465 C2464 1.394 . S
C2465 C2466 1.516 . S
C2466 C2465 1.516 . S
C2466 C2467 1.502 . S
C2466 C2468 1.561 . S
C2466 C2469 1.526 . S
C2467 H2451 0.959 . S
C2467 H2452 0.959 . S
C2467 H2453 0.961 . S
C2467 C2466 1.502 . S
C2468 H2454 0.960 . S
C2468 H2455 0.961 . S
C2468 H2456 0.959 . S
C2468 C2466 1.561 . S
C2469 C2466 1.526 . S
C2469 C2470 1.396 . S
C2469 C2474 1.390 . S
C2470 C2464 1.465 . S
C2470 C2469 1.396 . S
C2470 C2471 1.399 . S
C2471 H2457 0.929 . S
C2471 C2470 1.399 . S
C2471 C2472 1.385 . S
C2472 H2458 0.931 . S
C2472 C2471 1.385 . S
C2472 C2473 1.389 . S
C2473 C2472 1.389 . S
C2473 C2474 1.387 . S
C2474 H2459 0.930 . S
C2474 C2469 1.390 . S
C2474 C2473 1.387 . S
H2475 C2487 0.930 . S
H2476 C2489 0.930 . S
H2477 C2490 0.930 . S
H2478 C2494 0.959 . S
H2479 C2494 0.959 . S
H2480 C2494 0.961 . S
H2481 C2495 0.960 . S
H2482 C2495 0.961 . S
H2483 C2495 0.959 . S
H2484 C2498 0.929 . S
H2485 C2499 0.931 1_655 S
H2486 C2501 0.930 . S
C2487 H2475 0.930 . S
C2487 C2488 1.399 1_565 S
C2487 C2492 1.399 . S
C2488 C2487 1.399 1_545 S
C2488 C2489 1.376 . S
C2489 H2476 0.930 . S
C2489 C2488 1.376 . S
C2489 C2490 1.388 . S
C2490 H2477 0.930 . S
C2490 C2489 1.388 . S
C2490 C2491 1.390 1_545 S
C2491 C2490 1.390 1_565 S
C2491 C2492 1.394 . S
C2491 C2497 1.465 . S
C2492 C2487 1.399 . S
C2492 C2491 1.394 . S
C2492 C2493 1.516 . S
C2493 C2492 1.516 . S
C2493 C2494 1.502 . S
C2493 C2495 1.561 . S
C2493 C2496 1.526 . S
C2494 H2478 0.959 . S
C2494 H2479 0.959 . S
C2494 H2480 0.961 . S
C2494 C2493 1.502 . S
C2495 H2481 0.960 . S
C2495 H2482 0.961 . S
C2495 H2483 0.959 . S
C2495 C2493 1.561 . S
C2496 C2493 1.526 . S
C2496 C2497 1.396 . S
C2496 C2501 1.390 . S
C2497 C2491 1.465 . S
C2497 C2496 1.396 . S
C2497 C2498 1.399 . S
C2498 H2484 0.929 . S
C2498 C2497 1.399 . S
C2498 C2499 1.385 . S
C2499 H2485 0.931 1_455 S
C2499 C2498 1.385 . S
C2499 C2500 1.389 . S
C2500 C2499 1.389 . S
C2500 C2501 1.387 . S
C2501 H2486 0.930 . S
C2501 C2496 1.390 . S
C2501 C2500 1.387 . S
H2502 C2514 0.930 . S
H2503 C2516 0.930 . S
H2504 C2517 0.930 . S
H2505 C2521 0.959 . S
H2506 C2521 0.959 . S
H2507 C2521 0.961 . S
H2508 C2522 0.960 . S
H2509 C2522 0.961 . S
H2510 C2522 0.959 . S
H2511 C2525 0.929 . S
H2512 C2526 0.915 1_545 S
H2513 C2528 0.931 . S
C2514 H2502 0.930 . S
C2514 C2515 1.399 . S
C2514 C2519 1.399 . S
C2515 C2514 1.399 . S
C2515 C2516 1.376 . S
C2516 H2503 0.930 . S
C2516 C2515 1.376 . S
C2516 C2517 1.388 . S
C2517 H2504 0.930 . S
C2517 C2516 1.388 . S
C2517 C2518 1.390 . S
C2518 C2517 1.390 . S
C2518 C2519 1.394 . S
C2518 C2524 1.465 . S
C2519 C2514 1.399 . S
C2519 C2518 1.394 . S
C2519 C2520 1.516 . S
C2520 C2519 1.516 . S
C2520 C2521 1.502 . S
C2520 C2522 1.561 . S
C2520 C2523 1.526 . S
C2521 H2505 0.959 . S
C2521 H2506 0.959 . S
C2521 H2507 0.961 . S
C2521 C2520 1.502 . S
C2522 H2508 0.960 . S
C2522 H2509 0.961 . S
C2522 H2510 0.959 . S
C2522 C2520 1.561 . S
C2523 C2520 1.526 . S
C2523 C2524 1.396 . S
C2523 C2528 1.387 1_565 S
C2524 C2518 1.465 . S
C2524 C2523 1.396 . S
C2524 C2525 1.399 . S
C2525 H2511 0.929 . S
C2525 C2524 1.399 . S
C2525 C2526 1.412 . S
C2526 H2512 0.915 1_565 S
C2526 C2525 1.412 . S
C2526 C2527 1.378 1_565 S
C2527 C2526 1.378 1_545 S
C2527 C2528 1.388 . S
C2528 H2513 0.931 . S
C2528 C2523 1.387 1_545 S
C2528 C2527 1.388 . S
H2529 C2541 0.930 . S
H2530 C2543 0.930 . S
H2531 C2544 0.930 . S
H2532 C2548 0.959 . S
H2533 C2548 0.959 . S
H2534 C2548 0.961 . S
H2535 C2549 0.960 . S
H2536 C2549 0.961 . S
H2537 C2549 0.959 . S
H2538 C2552 0.929 . S
H2539 C2553 0.931 . S
H2540 C2555 0.930 . S
C2541 H2529 0.930 . S
C2541 C2542 1.399 . S
C2541 C2546 1.399 1_545 S
C2542 C2541 1.399 . S
C2542 C2543 1.376 . S
C2543 H2530 0.930 . S
C2543 C2542 1.376 . S
C2543 C2544 1.388 1_545 S
C2544 H2531 0.930 . S
C2544 C2543 1.388 1_565 S
C2544 C2545 1.390 . S
C2545 C2544 1.390 . S
C2545 C2546 1.394 . S
C2545 C2551 1.465 . S
C2546 C2541 1.399 1_565 S
C2546 C2545 1.394 . S
C2546 C2547 1.516 . S
C2547 C2546 1.516 . S
C2547 C2548 1.502 . S
C2547 C2549 1.561 . S
C2547 C2550 1.526 . S
C2548 H2532 0.959 . S
C2548 H2533 0.959 . S
C2548 H2534 0.961 . S
C2548 C2547 1.502 . S
C2549 H2535 0.960 . S
C2549 H2536 0.961 . S
C2549 H2537 0.959 . S
C2549 C2547 1.561 . S
C2550 C2547 1.526 . S
C2550 C2551 1.396 . S
C2550 C2555 1.390 . S
C2551 C2545 1.465 . S
C2551 C2550 1.396 . S
C2551 C2552 1.399 . S
C2552 H2538 0.929 . S
C2552 C2551 1.399 . S
C2552 C2553 1.385 . S
C2553 H2539 0.931 . S
C2553 C2552 1.385 . S
C2553 C2554 1.389 . S
C2554 C2553 1.389 . S
C2554 C2555 1.387 . S
C2555 H2540 0.930 . S
C2555 C2550 1.390 . S
C2555 C2554 1.387 . S
H2556 C2568 0.930 . S
H2557 C2570 0.930 . S
H2558 C2571 0.930 . S
H2559 C2575 0.959 . S
H2560 C2575 0.959 . S
H2561 C2575 0.961 . S
H2562 C2576 0.960 . S
H2563 C2576 0.961 . S
H2564 C2576 0.959 . S
H2565 C2579 0.929 . S
H2566 C2580 0.931 . S
H2567 C2582 0.930 . S
C2568 H2556 0.930 . S
C2568 C2569 1.399 . S
C2568 C2573 1.399 . S
C2569 C2568 1.399 . S
C2569 C2570 1.376 . S
C2570 H2557 0.930 . S
C2570 C2569 1.376 . S
C2570 C2571 1.388 . S
C2571 H2558 0.930 . S
C2571 C2570 1.388 . S
C2571 C2572 1.390 . S
C2572 C2571 1.390 . S
C2572 C2573 1.394 . S
C2572 C2578 1.465 . S
C2573 C2568 1.399 . S
C2573 C2572 1.394 . S
C2573 C2574 1.516 . S
C2574 C2573 1.516 . S
C2574 C2575 1.502 . S
C2574 C2576 1.561 . S
C2574 C2577 1.526 . S
C2575 H2559 0.959 . S
C2575 H2560 0.959 . S
C2575 H2561 0.961 . S
C2575 C2574 1.502 . S
C2576 H2562 0.960 . S
C2576 H2563 0.961 . S
C2576 H2564 0.959 . S
C2576 C2574 1.561 . S
C2577 C2574 1.526 . S
C2577 C2578 1.396 . S
C2577 C2582 1.390 . S
C2578 C2572 1.465 . S
C2578 C2577 1.396 . S
C2578 C2579 1.399 . S
C2579 H2565 0.929 . S
C2579 C2578 1.399 . S
C2579 C2580 1.385 . S
C2580 H2566 0.931 . S
C2580 C2579 1.385 . S
C2580 C2581 1.389 . S
C2581 C2580 1.389 . S
C2581 C2582 1.387 . S
C2582 H2567 0.930 . S
C2582 C2577 1.390 . S
C2582 C2581 1.387 . S
H2583 C2595 0.930 . S
H2584 C2597 0.930 . S
H2585 C2598 0.930 . S
H2586 C2602 0.959 . S
H2587 C2602 0.959 . S
H2588 C2602 0.961 . S
H2589 C2603 0.960 . S
H2590 C2603 0.961 . S
H2591 C2603 0.959 . S
H2592 C2606 0.929 . S
H2593 C2607 0.931 . S
H2594 C2609 0.930 . S
C2595 H2583 0.930 . S
C2595 C2596 1.399 . S
C2595 C2600 1.399 . S
C2596 C2595 1.399 . S
C2596 C2597 1.376 . S
C2597 H2584 0.930 . S
C2597 C2596 1.376 . S
C2597 C2598 1.388 . S
C2598 H2585 0.930 . S
C2598 C2597 1.388 . S
C2598 C2599 1.390 . S
C2599 C2598 1.390 . S
C2599 C2600 1.394 . S
C2599 C2605 1.465 . S
C2600 C2595 1.399 . S
C2600 C2599 1.394 . S
C2600 C2601 1.516 . S
C2601 C2600 1.516 . S
C2601 C2602 1.502 . S
C2601 C2603 1.561 . S
C2601 C2604 1.526 . S
C2602 H2586 0.959 . S
C2602 H2587 0.959 . S
C2602 H2588 0.961 . S
C2602 C2601 1.502 . S
C2603 H2589 0.960 . S
C2603 H2590 0.961 . S
C2603 H2591 0.959 . S
C2603 C2601 1.561 . S
C2604 C2601 1.526 . S
C2604 C2605 1.396 . S
C2604 C2609 1.390 . S
C2605 C2599 1.465 . S
C2605 C2604 1.396 . S
C2605 C2606 1.399 . S
C2606 H2592 0.929 . S
C2606 C2605 1.399 . S
C2606 C2607 1.385 . S
C2607 H2593 0.931 . S
C2607 C2606 1.385 . S
C2607 C2608 1.389 . S
C2608 C2607 1.389 . S
C2608 C2609 1.387 . S
C2609 H2594 0.930 . S
C2609 C2604 1.390 . S
C2609 C2608 1.387 . S
H2610 C2622 0.930 . S
H2611 C2624 0.930 . S
H2612 C2625 0.930 . S
H2613 C2629 0.959 . S
H2614 C2629 0.959 . S
H2615 C2629 0.961 . S
H2616 C2630 0.960 . S
H2617 C2630 0.961 . S
H2618 C2630 0.959 . S
H2619 C2633 0.929 . S
H2620 C2634 0.931 . S
H2621 C2636 0.930 . S
C2622 H2610 0.930 . S
C2622 C2623 1.399 . S
C2622 C2627 1.399 . S
C2623 C2622 1.399 . S
C2623 C2624 1.376 . S
C2624 H2611 0.930 . S
C2624 C2623 1.376 . S
C2624 C2625 1.388 . S
C2625 H2612 0.930 . S
C2625 C2624 1.388 . S
C2625 C2626 1.390 . S
C2626 C2625 1.390 . S
C2626 C2627 1.394 . S
C2626 C2632 1.465 . S
C2627 C2622 1.399 . S
C2627 C2626 1.394 . S
C2627 C2628 1.516 . S
C2628 C2627 1.516 . S
C2628 C2629 1.502 . S
C2628 C2630 1.561 . S
C2628 C2631 1.526 . S
C2629 H2613 0.959 . S
C2629 H2614 0.959 . S
C2629 H2615 0.961 . S
C2629 C2628 1.502 . S
C2630 H2616 0.960 . S
C2630 H2617 0.961 . S
C2630 H2618 0.959 . S
C2630 C2628 1.561 . S
C2631 C2628 1.526 . S
C2631 C2632 1.396 . S
C2631 C2636 1.390 . S
C2632 C2626 1.465 . S
C2632 C2631 1.396 . S
C2632 C2633 1.399 . S
C2633 H2619 0.929 . S
C2633 C2632 1.399 . S
C2633 C2634 1.385 . S
C2634 H2620 0.931 . S
C2634 C2633 1.385 . S
C2634 C2635 1.389 . S
C2635 C2634 1.389 . S
C2635 C2636 1.387 . S
C2636 H2621 0.930 . S
C2636 C2631 1.390 . S
C2636 C2635 1.387 . S
H2637 C2649 0.930 . S
H2638 C2651 0.930 . S
H2639 C2652 0.930 . S
H2640 C2656 0.959 . S
H2641 C2656 0.959 . S
H2642 C2656 0.961 . S
H2643 C2657 0.960 . S
H2644 C2657 0.961 . S
H2645 C2657 0.959 . S
H2646 C2660 0.929 . S
H2647 C2661 0.931 . S
H2648 C2663 0.930 . S
C2649 H2637 0.930 . S
C2649 C2650 1.399 . S
C2649 C2654 1.399 . S
C2650 C2649 1.399 . S
C2650 C2651 1.376 . S
C2651 H2638 0.930 . S
C2651 C2650 1.376 . S
C2651 C2652 1.388 . S
C2652 H2639 0.930 . S
C2652 C2651 1.388 . S
C2652 C2653 1.390 . S
C2653 C2652 1.390 . S
C2653 C2654 1.394 . S
C2653 C2659 1.465 . S
C2654 C2649 1.399 . S
C2654 C2653 1.394 . S
C2654 C2655 1.516 . S
C2655 C2654 1.516 . S
C2655 C2656 1.502 . S
C2655 C2657 1.561 . S
C2655 C2658 1.526 . S
C2656 H2640 0.959 . S
C2656 H2641 0.959 . S
C2656 H2642 0.961 . S
C2656 C2655 1.502 . S
C2657 H2643 0.960 . S
C2657 H2644 0.961 . S
C2657 H2645 0.959 . S
C2657 C2655 1.561 . S
C2658 C2655 1.526 . S
C2658 C2659 1.396 . S
C2658 C2663 1.390 . S
C2659 C2653 1.465 . S
C2659 C2658 1.396 . S
C2659 C2660 1.399 . S
C2660 H2646 0.929 . S
C2660 C2659 1.399 . S
C2660 C2661 1.385 . S
C2661 H2647 0.931 . S
C2661 C2660 1.385 . S
C2661 C2662 1.389 . S
C2662 C2661 1.389 . S
C2662 C2663 1.387 . S
C2663 H2648 0.930 . S
C2663 C2658 1.390 . S
C2663 C2662 1.387 . S
H2664 C2676 0.930 . S
H2665 C2678 0.930 . S
H2666 C2679 0.930 . S
H2667 C2683 0.959 . S
H2668 C2683 0.959 . S
H2669 C2683 0.961 . S
H2670 C2684 0.960 . S
H2671 C2684 0.961 . S
H2672 C2684 0.959 . S
H2673 C2687 0.929 . S
H2674 C2688 0.931 . S
H2675 C2690 0.930 . S
C2676 H2664 0.930 . S
C2676 C2677 1.399 . S
C2676 C2681 1.399 . S
C2677 C2676 1.399 . S
C2677 C2678 1.376 . S
C2678 H2665 0.930 . S
C2678 C2677 1.376 . S
C2678 C2679 1.388 . S
C2679 H2666 0.930 . S
C2679 C2678 1.388 . S
C2679 C2680 1.390 . S
C2680 C2679 1.390 . S
C2680 C2681 1.394 . S
C2680 C2686 1.465 . S
C2681 C2676 1.399 . S
C2681 C2680 1.394 . S
C2681 C2682 1.516 . S
C2682 C2681 1.516 . S
C2682 C2683 1.502 . S
C2682 C2684 1.561 . S
C2682 C2685 1.526 . S
C2683 H2667 0.959 . S
C2683 H2668 0.959 . S
C2683 H2669 0.961 . S
C2683 C2682 1.502 . S
C2684 H2670 0.960 . S
C2684 H2671 0.961 . S
C2684 H2672 0.959 . S
C2684 C2682 1.561 . S
C2685 C2682 1.526 . S
C2685 C2686 1.396 . S
C2685 C2690 1.390 . S
C2686 C2680 1.465 . S
C2686 C2685 1.396 . S
C2686 C2687 1.399 . S
C2687 H2673 0.929 . S
C2687 C2686 1.399 . S
C2687 C2688 1.385 . S
C2688 H2674 0.931 . S
C2688 C2687 1.385 . S
C2688 C2689 1.389 . S
C2689 C2688 1.389 . S
C2689 C2690 1.387 . S
C2690 H2675 0.930 . S
C2690 C2685 1.390 . S
C2690 C2689 1.387 . S
H2691 C2703 0.930 . S
H2692 C2705 0.930 . S
H2693 C2706 0.930 . S
H2694 C2710 0.959 . S
H2695 C2710 0.959 . S
H2696 C2710 0.961 . S
H2697 C2711 0.960 . S
H2698 C2711 0.961 . S
H2699 C2711 0.959 . S
H2700 C2714 0.929 . S
H2701 C2715 0.931 . S
H2702 C2717 0.930 . S
C2703 H2691 0.930 . S
C2703 C2704 1.399 . S
C2703 C2708 1.399 . S
C2704 C2703 1.399 . S
C2704 C2705 1.376 . S
C2705 H2692 0.930 . S
C2705 C2704 1.376 . S
C2705 C2706 1.388 . S
C2706 H2693 0.930 . S
C2706 C2705 1.388 . S
C2706 C2707 1.390 . S
C2707 C2706 1.390 . S
C2707 C2708 1.394 . S
C2707 C2713 1.465 . S
C2708 C2703 1.399 . S
C2708 C2707 1.394 . S
C2708 C2709 1.516 . S
C2709 C2708 1.516 . S
C2709 C2710 1.502 . S
C2709 C2711 1.561 . S
C2709 C2712 1.526 . S
C2710 H2694 0.959 . S
C2710 H2695 0.959 . S
C2710 H2696 0.961 . S
C2710 C2709 1.502 . S
C2711 H2697 0.960 . S
C2711 H2698 0.961 . S
C2711 H2699 0.959 . S
C2711 C2709 1.561 . S
C2712 C2709 1.526 . S
C2712 C2713 1.396 . S
C2712 C2717 1.390 . S
C2713 C2707 1.465 . S
C2713 C2712 1.396 . S
C2713 C2714 1.399 . S
C2714 H2700 0.929 . S
C2714 C2713 1.399 . S
C2714 C2715 1.385 . S
C2715 H2701 0.931 . S
C2715 C2714 1.385 . S
C2715 C2716 1.389 . S
C2716 C2715 1.389 . S
C2716 C2717 1.387 . S
C2717 H2702 0.930 . S
C2717 C2712 1.390 . S
C2717 C2716 1.387 . S
H2718 C2730 0.930 . S
H2719 C2732 0.930 . S
H2720 C2733 0.930 . S
H2721 C2737 0.959 . S
H2722 C2737 0.959 . S
H2723 C2737 0.961 . S
H2724 C2738 0.960 . S
H2725 C2738 0.961 . S
H2726 C2738 0.959 . S
H2727 C2741 0.929 . S
H2728 C2742 0.931 . S
H2729 C2744 0.930 . S
C2730 H2718 0.930 . S
C2730 C2731 1.399 . S
C2730 C2735 1.399 . S
C2731 C2730 1.399 . S
C2731 C2732 1.376 . S
C2732 H2719 0.930 . S
C2732 C2731 1.376 . S
C2732 C2733 1.388 . S
C2733 H2720 0.930 . S
C2733 C2732 1.388 . S
C2733 C2734 1.390 . S
C2734 C2733 1.390 . S
C2734 C2735 1.394 . S
C2734 C2740 1.465 . S
C2735 C2730 1.399 . S
C2735 C2734 1.394 . S
C2735 C2736 1.516 . S
C2736 C2735 1.516 . S
C2736 C2737 1.502 . S
C2736 C2738 1.561 . S
C2736 C2739 1.526 . S
C2737 H2721 0.959 . S
C2737 H2722 0.959 . S
C2737 H2723 0.961 . S
C2737 C2736 1.502 . S
C2738 H2724 0.960 . S
C2738 H2725 0.961 . S
C2738 H2726 0.959 . S
C2738 C2736 1.561 . S
C2739 C2736 1.526 . S
C2739 C2740 1.396 . S
C2739 C2744 1.390 . S
C2740 C2734 1.465 . S
C2740 C2739 1.396 . S
C2740 C2741 1.399 . S
C2741 H2727 0.929 . S
C2741 C2740 1.399 . S
C2741 C2742 1.385 . S
C2742 H2728 0.931 . S
C2742 C2741 1.385 . S
C2742 C2743 1.389 . S
C2743 C2742 1.389 . S
C2743 C2744 1.387 . S
C2744 H2729 0.930 . S
C2744 C2739 1.390 . S
C2744 C2743 1.387 . S
H2745 C2757 0.930 . S
H2746 C2759 0.930 . S
H2747 C2760 0.930 . S
H2748 C2764 0.959 . S
H2749 C2764 0.959 . S
H2750 C2764 0.961 . S
H2751 C2765 0.960 . S
H2752 C2765 0.961 . S
H2753 C2765 0.959 . S
H2754 C2768 0.929 . S
H2755 C2769 0.931 . S
H2756 C2771 0.930 . S
C2757 H2745 0.930 . S
C2757 C2758 1.399 . S
C2757 C2762 1.399 . S
C2758 C2757 1.399 . S
C2758 C2759 1.376 . S
C2759 H2746 0.930 . S
C2759 C2758 1.376 . S
C2759 C2760 1.388 . S
C2760 H2747 0.930 . S
C2760 C2759 1.388 . S
C2760 C2761 1.390 . S
C2761 C2760 1.390 . S
C2761 C2762 1.394 . S
C2761 C2767 1.465 . S
C2762 C2757 1.399 . S
C2762 C2761 1.394 . S
C2762 C2763 1.516 . S
C2763 C2762 1.516 . S
C2763 C2764 1.502 . S
C2763 C2765 1.561 . S
C2763 C2766 1.526 . S
C2764 H2748 0.959 . S
C2764 H2749 0.959 . S
C2764 H2750 0.961 . S
C2764 C2763 1.502 . S
C2765 H2751 0.960 . S
C2765 H2752 0.961 . S
C2765 H2753 0.959 . S
C2765 C2763 1.561 . S
C2766 C2763 1.526 . S
C2766 C2767 1.396 . S
C2766 C2771 1.390 . S
C2767 C2761 1.465 . S
C2767 C2766 1.396 . S
C2767 C2768 1.399 . S
C2768 H2754 0.929 . S
C2768 C2767 1.399 . S
C2768 C2769 1.385 . S
C2769 H2755 0.931 . S
C2769 C2768 1.385 . S
C2769 C2770 1.389 . S
C2770 C2769 1.389 . S
C2770 C2771 1.387 . S
C2771 H2756 0.930 . S
C2771 C2766 1.390 . S
C2771 C2770 1.387 . S
H2772 C2784 0.930 . S
H2773 C2786 0.930 . S
H2774 C2787 0.930 . S
H2775 C2791 0.959 . S
H2776 C2791 0.959 . S
H2777 C2791 0.961 . S
H2778 C2792 0.960 . S
H2779 C2792 0.961 . S
H2780 C2792 0.959 . S
H2781 C2795 0.929 . S
H2782 C2796 0.931 . S
H2783 C2798 0.930 . S
C2784 H2772 0.930 . S
C2784 C2785 1.399 . S
C2784 C2789 1.399 . S
C2785 C2784 1.399 . S
C2785 C2786 1.376 . S
C2786 H2773 0.930 . S
C2786 C2785 1.376 . S
C2786 C2787 1.388 . S
C2787 H2774 0.930 . S
C2787 C2786 1.388 . S
C2787 C2788 1.390 . S
C2788 C2787 1.390 . S
C2788 C2789 1.394 . S
C2788 C2794 1.465 . S
C2789 C2784 1.399 . S
C2789 C2788 1.394 . S
C2789 C2790 1.516 . S
C2790 C2789 1.516 . S
C2790 C2791 1.502 . S
C2790 C2792 1.561 . S
C2790 C2793 1.526 . S
C2791 H2775 0.959 . S
C2791 H2776 0.959 . S
C2791 H2777 0.961 . S
C2791 C2790 1.502 . S
C2792 H2778 0.960 . S
C2792 H2779 0.961 . S
C2792 H2780 0.959 . S
C2792 C2790 1.561 . S
C2793 C2790 1.526 . S
C2793 C2794 1.396 . S
C2793 C2798 1.390 . S
C2794 C2788 1.465 . S
C2794 C2793 1.396 . S
C2794 C2795 1.399 . S
C2795 H2781 0.929 . S
C2795 C2794 1.399 . S
C2795 C2796 1.385 . S
C2796 H2782 0.931 . S
C2796 C2795 1.385 . S
C2796 C2797 1.389 . S
C2797 C2796 1.389 . S
C2797 C2798 1.387 . S
C2798 H2783 0.930 . S
C2798 C2793 1.390 . S
C2798 C2797 1.387 . S
H2799 C2811 0.930 . S
H2800 C2813 0.930 . S
H2801 C2814 0.930 . S
H2802 C2818 0.959 . S
H2803 C2818 0.959 . S
H2804 C2818 0.961 . S
H2805 C2819 0.960 . S
H2806 C2819 0.961 . S
H2807 C2819 0.959 . S
H2808 C2822 0.929 . S
H2809 C2823 0.931 . S
H2810 C2825 0.930 . S
C2811 H2799 0.930 . S
C2811 C2812 1.399 . S
C2811 C2816 1.399 . S
C2812 C2811 1.399 . S
C2812 C2813 1.376 . S
C2813 H2800 0.930 . S
C2813 C2812 1.376 . S
C2813 C2814 1.388 . S
C2814 H2801 0.930 . S
C2814 C2813 1.388 . S
C2814 C2815 1.390 . S
C2815 C2814 1.390 . S
C2815 C2816 1.394 . S
C2815 C2821 1.465 . S
C2816 C2811 1.399 . S
C2816 C2815 1.394 . S
C2816 C2817 1.516 . S
C2817 C2816 1.516 . S
C2817 C2818 1.502 . S
C2817 C2819 1.561 . S
C2817 C2820 1.526 . S
C2818 H2802 0.959 . S
C2818 H2803 0.959 . S
C2818 H2804 0.961 . S
C2818 C2817 1.502 . S
C2819 H2805 0.960 . S
C2819 H2806 0.961 . S
C2819 H2807 0.959 . S
C2819 C2817 1.561 . S
C2820 C2817 1.526 . S
C2820 C2821 1.396 . S
C2820 C2825 1.390 . S
C2821 C2815 1.465 . S
C2821 C2820 1.396 . S
C2821 C2822 1.399 . S
C2822 H2808 0.929 . S
C2822 C2821 1.399 . S
C2822 C2823 1.385 . S
C2823 H2809 0.931 . S
C2823 C2822 1.385 . S
C2823 C2824 1.389 . S
C2824 C2823 1.389 . S
C2824 C2825 1.387 . S
C2825 H2810 0.930 . S
C2825 C2820 1.390 . S
C2825 C2824 1.387 . S
H2826 C2838 0.930 . S
H2827 C2840 0.930 . S
H2828 C2841 0.930 . S
H2829 C2845 0.959 . S
H2830 C2845 0.959 . S
H2831 C2845 0.961 . S
H2832 C2846 0.960 . S
H2833 C2846 0.961 . S
H2834 C2846 0.959 . S
H2835 C2849 0.929 . S
H2836 C2850 0.931 . S
H2837 C2852 0.930 . S
C2838 H2826 0.930 . S
C2838 C2839 1.399 . S
C2838 C2843 1.399 . S
C2839 C2838 1.399 . S
C2839 C2840 1.376 . S
C2840 H2827 0.930 . S
C2840 C2839 1.376 . S
C2840 C2841 1.388 . S
C2841 H2828 0.930 . S
C2841 C2840 1.388 . S
C2841 C2842 1.390 . S
C2842 C2841 1.390 . S
C2842 C2843 1.394 . S
C2842 C2848 1.465 . S
C2843 C2838 1.399 . S
C2843 C2842 1.394 . S
C2843 C2844 1.516 . S
C2844 C2843 1.516 . S
C2844 C2845 1.502 . S
C2844 C2846 1.561 . S
C2844 C2847 1.526 . S
C2845 H2829 0.959 . S
C2845 H2830 0.959 . S
C2845 H2831 0.961 . S
C2845 C2844 1.502 . S
C2846 H2832 0.960 . S
C2846 H2833 0.961 . S
C2846 H2834 0.959 . S
C2846 C2844 1.561 . S
C2847 C2844 1.526 . S
C2847 C2848 1.396 . S
C2847 C2852 1.390 . S
C2848 C2842 1.465 . S
C2848 C2847 1.396 . S
C2848 C2849 1.399 . S
C2849 H2835 0.929 . S
C2849 C2848 1.399 . S
C2849 C2850 1.385 . S
C2850 H2836 0.931 . S
C2850 C2849 1.385 . S
C2850 C2851 1.389 . S
C2851 C2850 1.389 . S
C2851 C2852 1.387 . S
C2852 H2837 0.930 . S
C2852 C2847 1.390 . S
C2852 C2851 1.387 . S
H2853 C2865 0.930 . S
H2854 C2867 0.930 . S
H2855 C2868 0.930 . S
H2856 C2872 0.959 . S
H2857 C2872 0.959 . S
H2858 C2872 0.961 . S
H2859 C2873 0.960 . S
H2860 C2873 0.961 . S
H2861 C2873 0.959 . S
H2862 C2876 0.929 . S
H2863 C2877 0.931 . S
H2864 C2879 0.930 . S
C2865 H2853 0.930 . S
C2865 C2866 1.399 . S
C2865 C2870 1.399 . S
C2866 C2865 1.399 . S
C2866 C2867 1.376 . S
C2867 H2854 0.930 . S
C2867 C2866 1.376 . S
C2867 C2868 1.388 . S
C2868 H2855 0.930 . S
C2868 C2867 1.388 . S
C2868 C2869 1.390 . S
C2869 C2868 1.390 . S
C2869 C2870 1.394 . S
C2869 C2875 1.465 . S
C2870 C2865 1.399 . S
C2870 C2869 1.394 . S
C2870 C2871 1.516 . S
C2871 C2870 1.516 . S
C2871 C2872 1.502 . S
C2871 C2873 1.561 . S
C2871 C2874 1.526 . S
C2872 H2856 0.959 . S
C2872 H2857 0.959 . S
C2872 H2858 0.961 . S
C2872 C2871 1.502 . S
C2873 H2859 0.960 . S
C2873 H2860 0.961 . S
C2873 H2861 0.959 . S
C2873 C2871 1.561 . S
C2874 C2871 1.526 . S
C2874 C2875 1.396 . S
C2874 C2879 1.390 . S
C2875 C2869 1.465 . S
C2875 C2874 1.396 . S
C2875 C2876 1.399 . S
C2876 H2862 0.929 . S
C2876 C2875 1.399 . S
C2876 C2877 1.385 . S
C2877 H2863 0.931 . S
C2877 C2876 1.385 . S
C2877 C2878 1.389 . S
C2878 C2877 1.389 . S
C2878 C2879 1.387 . S
C2879 H2864 0.930 . S
C2879 C2874 1.390 . S
C2879 C2878 1.387 . S
H2880 C2892 0.930 . S
H2881 C2894 0.930 . S
H2882 C2895 0.930 . S
H2883 C2899 0.959 . S
H2884 C2899 0.959 . S
H2885 C2899 0.961 . S
H2886 C2900 0.960 . S
H2887 C2900 0.961 . S
H2888 C2900 0.959 . S
H2889 C2903 0.929 . S
H2890 C2904 0.931 . S
H2891 C2906 0.930 . S
C2892 H2880 0.930 . S
C2892 C2893 1.399 . S
C2892 C2897 1.399 . S
C2893 C2892 1.399 . S
C2893 C2894 1.376 . S
C2894 H2881 0.930 . S
C2894 C2893 1.376 . S
C2894 C2895 1.388 . S
C2895 H2882 0.930 . S
C2895 C2894 1.388 . S
C2895 C2896 1.390 . S
C2896 C2895 1.390 . S
C2896 C2897 1.394 . S
C2896 C2902 1.465 . S
C2897 C2892 1.399 . S
C2897 C2896 1.394 . S
C2897 C2898 1.516 . S
C2898 C2897 1.516 . S
C2898 C2899 1.502 . S
C2898 C2900 1.561 . S
C2898 C2901 1.526 . S
C2899 H2883 0.959 . S
C2899 H2884 0.959 . S
C2899 H2885 0.961 . S
C2899 C2898 1.502 . S
C2900 H2886 0.960 . S
C2900 H2887 0.961 . S
C2900 H2888 0.959 . S
C2900 C2898 1.561 . S
C2901 C2898 1.526 . S
C2901 C2902 1.396 . S
C2901 C2906 1.390 . S
C2902 C2896 1.465 . S
C2902 C2901 1.396 . S
C2902 C2903 1.399 . S
C2903 H2889 0.929 . S
C2903 C2902 1.399 . S
C2903 C2904 1.385 . S
C2904 H2890 0.931 . S
C2904 C2903 1.385 . S
C2904 C2905 1.389 . S
C2905 C2904 1.389 . S
C2905 C2906 1.387 . S
C2906 H2891 0.930 . S
C2906 C2901 1.390 . S
C2906 C2905 1.387 . S
H2907 C2919 0.930 . S
H2908 C2921 0.930 . S
H2909 C2922 0.930 . S
H2910 C2926 0.959 . S
H2911 C2926 0.959 . S
H2912 C2926 0.961 . S
H2913 C2927 0.960 . S
H2914 C2927 0.961 . S
H2915 C2927 0.959 . S
H2916 C2930 0.929 . S
H2917 C2931 0.931 . S
H2918 C2933 0.930 . S
C2919 H2907 0.930 . S
C2919 C2920 1.399 . S
C2919 C2924 1.399 . S
C2920 C2919 1.399 . S
C2920 C2921 1.376 . S
C2921 H2908 0.930 . S
C2921 C2920 1.376 . S
C2921 C2922 1.388 . S
C2922 H2909 0.930 . S
C2922 C2921 1.388 . S
C2922 C2923 1.390 . S
C2923 C2922 1.390 . S
C2923 C2924 1.394 . S
C2923 C2929 1.465 . S
C2924 C2919 1.399 . S
C2924 C2923 1.394 . S
C2924 C2925 1.516 . S
C2925 C2924 1.516 . S
C2925 C2926 1.502 . S
C2925 C2927 1.561 . S
C2925 C2928 1.526 . S
C2926 H2910 0.959 . S
C2926 H2911 0.959 . S
C2926 H2912 0.961 . S
C2926 C2925 1.502 . S
C2927 H2913 0.960 . S
C2927 H2914 0.961 . S
C2927 H2915 0.959 . S
C2927 C2925 1.561 . S
C2928 C2925 1.526 . S
C2928 C2929 1.396 . S
C2928 C2933 1.390 . S
C2929 C2923 1.465 . S
C2929 C2928 1.396 . S
C2929 C2930 1.399 . S
C2930 H2916 0.929 . S
C2930 C2929 1.399 . S
C2930 C2931 1.385 . S
C2931 H2917 0.931 . S
C2931 C2930 1.385 . S
C2931 C2932 1.389 . S
C2932 C2931 1.389 . S
C2932 C2933 1.387 . S
C2933 H2918 0.930 . S
C2933 C2928 1.390 . S
C2933 C2932 1.387 . S
H2934 C2946 0.930 . S
H2935 C2948 0.930 . S
H2936 C2949 0.930 . S
H2937 C2953 0.959 . S
H2938 C2953 0.959 . S
H2939 C2953 0.961 . S
H2940 C2954 0.960 . S
H2941 C2954 0.961 . S
H2942 C2954 0.959 . S
H2943 C2957 0.929 . S
H2944 C2958 0.931 . S
H2945 C2960 0.930 . S
C2946 H2934 0.930 . S
C2946 C2947 1.399 . S
C2946 C2951 1.399 . S
C2947 C2946 1.399 . S
C2947 C2948 1.376 . S
C2948 H2935 0.930 . S
C2948 C2947 1.376 . S
C2948 C2949 1.388 . S
C2949 H2936 0.930 . S
C2949 C2948 1.388 . S
C2949 C2950 1.390 . S
C2950 C2949 1.390 . S
C2950 C2951 1.394 . S
C2950 C2956 1.465 . S
C2951 C2946 1.399 . S
C2951 C2950 1.394 . S
C2951 C2952 1.516 . S
C2952 C2951 1.516 . S
C2952 C2953 1.502 . S
C2952 C2954 1.561 . S
C2952 C2955 1.526 . S
C2953 H2937 0.959 . S
C2953 H2938 0.959 . S
C2953 H2939 0.961 . S
C2953 C2952 1.502 . S
C2954 H2940 0.960 . S
C2954 H2941 0.961 . S
C2954 H2942 0.959 . S
C2954 C2952 1.561 . S
C2955 C2952 1.526 . S
C2955 C2956 1.396 . S
C2955 C2960 1.390 . S
C2956 C2950 1.465 . S
C2956 C2955 1.396 . S
C2956 C2957 1.399 . S
C2957 H2943 0.929 . S
C2957 C2956 1.399 . S
C2957 C2958 1.385 . S
C2958 H2944 0.931 . S
C2958 C2957 1.385 . S
C2958 C2959 1.389 . S
C2959 C2958 1.389 . S
C2959 C2960 1.387 . S
C2960 H2945 0.930 . S
C2960 C2955 1.390 . S
C2960 C2959 1.387 . S
H2961 C2973 0.930 . S
H2962 C2975 0.930 . S
H2963 C2976 0.930 . S
H2964 C2980 0.959 . S
H2965 C2980 0.959 . S
H2966 C2980 0.961 . S
H2967 C2981 0.960 . S
H2968 C2981 0.961 . S
H2969 C2981 0.959 . S
H2970 C2984 0.929 . S
H2971 C2985 0.931 . S
H2972 C2987 0.930 . S
C2973 H2961 0.930 . S
C2973 C2974 1.399 . S
C2973 C2978 1.399 . S
C2974 C2973 1.399 . S
C2974 C2975 1.376 . S
C2975 H2962 0.930 . S
C2975 C2974 1.376 . S
C2975 C2976 1.388 . S
C2976 H2963 0.930 . S
C2976 C2975 1.388 . S
C2976 C2977 1.390 . S
C2977 C2976 1.390 . S
C2977 C2978 1.394 . S
C2977 C2983 1.465 . S
C2978 C2973 1.399 . S
C2978 C2977 1.394 . S
C2978 C2979 1.516 . S
C2979 C2978 1.516 . S
C2979 C2980 1.502 . S
C2979 C2981 1.561 . S
C2979 C2982 1.526 . S
C2980 H2964 0.959 . S
C2980 H2965 0.959 . S
C2980 H2966 0.961 . S
C2980 C2979 1.502 . S
C2981 H2967 0.960 . S
C2981 H2968 0.961 . S
C2981 H2969 0.959 . S
C2981 C2979 1.561 . S
C2982 C2979 1.526 . S
C2982 C2983 1.396 . S
C2982 C2987 1.390 . S
C2983 C2977 1.465 . S
C2983 C2982 1.396 . S
C2983 C2984 1.399 . S
C2984 H2970 0.929 . S
C2984 C2983 1.399 . S
C2984 C2985 1.385 . S
C2985 H2971 0.931 . S
C2985 C2984 1.385 . S
C2985 C2986 1.389 . S
C2986 C2985 1.389 . S
C2986 C2987 1.387 . S
C2987 H2972 0.930 . S
C2987 C2982 1.390 . S
C2987 C2986 1.387 . S
H2988 C3000 0.930 . S
H2989 C3002 0.930 . S
H2990 C3003 0.930 . S
H2991 C3007 0.959 . S
H2992 C3007 0.959 . S
H2993 C3007 0.961 . S
H2994 C3008 0.960 . S
H2995 C3008 0.961 . S
H2996 C3008 0.959 . S
H2997 C3011 0.929 . S
H2998 C3012 0.931 . S
H2999 C3014 0.930 . S
C3000 H2988 0.930 . S
C3000 C3001 1.399 . S
C3000 C3005 1.399 . S
C3001 C3000 1.399 . S
C3001 C3002 1.376 . S
C3002 H2989 0.930 . S
C3002 C3001 1.376 . S
C3002 C3003 1.388 . S
C3003 H2990 0.930 . S
C3003 C3002 1.388 . S
C3003 C3004 1.390 . S
C3004 C3003 1.390 . S
C3004 C3005 1.394 . S
C3004 C3010 1.465 . S
C3005 C3000 1.399 . S
C3005 C3004 1.394 . S
C3005 C3006 1.516 . S
C3006 C3005 1.516 . S
C3006 C3007 1.502 . S
C3006 C3008 1.561 . S
C3006 C3009 1.526 . S
C3007 H2991 0.959 . S
C3007 H2992 0.959 . S
C3007 H2993 0.961 . S
C3007 C3006 1.502 . S
C3008 H2994 0.960 . S
C3008 H2995 0.961 . S
C3008 H2996 0.959 . S
C3008 C3006 1.561 . S
C3009 C3006 1.526 . S
C3009 C3010 1.396 . S
C3009 C3014 1.390 . S
C3010 C3004 1.465 . S
C3010 C3009 1.396 . S
C3010 C3011 1.399 . S
C3011 H2997 0.929 . S
C3011 C3010 1.399 . S
C3011 C3012 1.385 . S
C3012 H2998 0.931 . S
C3012 C3011 1.385 . S
C3012 C3013 1.389 . S
C3013 C3012 1.389 . S
C3013 C3014 1.387 . S
C3014 H2999 0.930 . S
C3014 C3009 1.390 . S
C3014 C3013 1.387 . S
H3015 C3027 0.930 . S
H3016 C3029 0.930 . S
H3017 C3030 0.930 . S
H3018 C3034 0.959 . S
H3019 C3034 0.959 . S
H3020 C3034 0.961 . S
H3021 C3035 0.960 . S
H3022 C3035 0.961 . S
H3023 C3035 0.959 . S
H3024 C3038 0.929 . S
H3025 C3039 0.931 . S
H3026 C3041 0.930 . S
C3027 H3015 0.930 . S
C3027 C3028 1.399 . S
C3027 C3032 1.399 . S
C3028 C3027 1.399 . S
C3028 C3029 1.376 . S
C3029 H3016 0.930 . S
C3029 C3028 1.376 . S
C3029 C3030 1.388 . S
C3030 H3017 0.930 . S
C3030 C3029 1.388 . S
C3030 C3031 1.390 . S
C3031 C3030 1.390 . S
C3031 C3032 1.394 . S
C3031 C3037 1.465 . S
C3032 C3027 1.399 . S
C3032 C3031 1.394 . S
C3032 C3033 1.516 . S
C3033 C3032 1.516 . S
C3033 C3034 1.502 . S
C3033 C3035 1.561 . S
C3033 C3036 1.526 . S
C3034 H3018 0.959 . S
C3034 H3019 0.959 . S
C3034 H3020 0.961 . S
C3034 C3033 1.502 . S
C3035 H3021 0.960 . S
C3035 H3022 0.961 . S
C3035 H3023 0.959 . S
C3035 C3033 1.561 . S
C3036 C3033 1.526 . S
C3036 C3037 1.396 . S
C3036 C3041 1.390 . S
C3037 C3031 1.465 . S
C3037 C3036 1.396 . S
C3037 C3038 1.399 . S
C3038 H3024 0.929 . S
C3038 C3037 1.399 . S
C3038 C3039 1.385 . S
C3039 H3025 0.931 . S
C3039 C3038 1.385 . S
C3039 C3040 1.389 . S
C3040 C3039 1.389 . S
C3040 C3041 1.387 . S
C3041 H3026 0.930 . S
C3041 C3036 1.390 . S
C3041 C3040 1.387 . S
H3042 C3054 0.930 . S
H3043 C3056 0.930 . S
H3044 C3057 0.930 . S
H3045 C3061 0.959 . S
H3046 C3061 0.959 . S
H3047 C3061 0.961 . S
H3048 C3062 0.960 . S
H3049 C3062 0.961 . S
H3050 C3062 0.959 . S
H3051 C3065 0.929 . S
H3052 C3066 0.931 . S
H3053 C3068 0.930 . S
C3054 H3042 0.930 . S
C3054 C3055 1.399 . S
C3054 C3059 1.399 . S
C3055 C3054 1.399 . S
C3055 C3056 1.376 . S
C3056 H3043 0.930 . S
C3056 C3055 1.376 . S
C3056 C3057 1.388 . S
C3057 H3044 0.930 . S
C3057 C3056 1.388 . S
C3057 C3058 1.390 . S
C3058 C3057 1.390 . S
C3058 C3059 1.394 . S
C3058 C3064 1.465 . S
C3059 C3054 1.399 . S
C3059 C3058 1.394 . S
C3059 C3060 1.516 . S
C3060 C3059 1.516 . S
C3060 C3061 1.502 . S
C3060 C3062 1.561 . S
C3060 C3063 1.526 . S
C3061 H3045 0.959 . S
C3061 H3046 0.959 . S
C3061 H3047 0.961 . S
C3061 C3060 1.502 . S
C3062 H3048 0.960 . S
C3062 H3049 0.961 . S
C3062 H3050 0.959 . S
C3062 C3060 1.561 . S
C3063 C3060 1.526 . S
C3063 C3064 1.396 . S
C3063 C3068 1.390 . S
C3064 C3058 1.465 . S
C3064 C3063 1.396 . S
C3064 C3065 1.399 . S
C3065 H3051 0.929 . S
C3065 C3064 1.399 . S
C3065 C3066 1.385 . S
C3066 H3052 0.931 . S
C3066 C3065 1.385 . S
C3066 C3067 1.389 . S
C3067 C3066 1.389 . S
C3067 C3068 1.387 . S
C3068 H3053 0.930 . S
C3068 C3063 1.390 . S
C3068 C3067 1.387 . S
H3069 C3081 0.930 . S
H3070 C3083 0.930 . S
H3071 C3084 0.930 . S
H3072 C3088 0.959 . S
H3073 C3088 0.959 . S
H3074 C3088 0.961 . S
H3075 C3089 0.960 1_455 S
H3076 C3089 0.961 . S
H3077 C3089 0.959 . S
H3078 C3092 0.929 . S
H3079 C3093 0.931 . S
H3080 C3095 0.930 . S
C3081 H3069 0.930 . S
C3081 C3082 1.399 . S
C3081 C3086 1.384 1_455 S
C3082 C3081 1.399 . S
C3082 C3083 1.376 . S
C3083 H3070 0.930 . S
C3083 C3082 1.376 . S
C3083 C3084 1.388 . S
C3084 H3071 0.930 . S
C3084 C3083 1.388 . S
C3084 C3085 1.390 1_455 S
C3085 C3084 1.390 1_655 S
C3085 C3086 1.400 . S
C3085 C3091 1.465 . S
C3086 C3081 1.384 1_655 S
C3086 C3085 1.400 . S
C3086 C3087 1.527 . S
C3087 C3086 1.527 . S
C3087 C3088 1.502 . S
C3087 C3089 1.561 . S
C3087 C3090 1.526 . S
C3088 H3072 0.959 . S
C3088 H3073 0.959 . S
C3088 H3074 0.961 . S
C3088 C3087 1.502 . S
C3089 H3075 0.960 1_655 S
C3089 H3076 0.961 . S
C3089 H3077 0.959 . S
C3089 C3087 1.561 . S
C3090 C3087 1.526 . S
C3090 C3091 1.396 . S
C3090 C3095 1.390 . S
C3091 C3085 1.465 . S
C3091 C3090 1.396 . S
C3091 C3092 1.399 . S
C3092 H3078 0.929 . S
C3092 C3091 1.399 . S
C3092 C3093 1.385 . S
C3093 H3079 0.931 . S
C3093 C3092 1.385 . S
C3093 C3094 1.389 . S
C3094 C3093 1.389 . S
C3094 C3095 1.387 . S
C3095 H3080 0.930 . S
C3095 C3090 1.390 . S
C3095 C3094 1.387 . S
H3096 C3108 0.930 . S
H3097 C3110 0.930 . S
H3098 C3111 0.930 . S
H3099 C3115 0.959 . S
H3100 C3115 0.959 . S
H3101 C3115 0.961 . S
H3102 C3116 0.960 . S
H3103 C3116 0.961 . S
H3104 C3116 0.959 . S
H3105 C3119 0.929 . S
H3106 C3120 0.931 . S
H3107 C3122 0.930 . S
C3108 H3096 0.930 . S
C3108 C3109 1.399 . S
C3108 C3113 1.399 . S
C3109 C3108 1.399 . S
C3109 C3110 1.376 . S
C3110 H3097 0.930 . S
C3110 C3109 1.376 . S
C3110 C3111 1.388 . S
C3111 H3098 0.930 . S
C3111 C3110 1.388 . S
C3111 C3112 1.390 . S
C3112 C3111 1.390 . S
C3112 C3113 1.394 . S
C3112 C3118 1.465 . S
C3113 C3108 1.399 . S
C3113 C3112 1.394 . S
C3113 C3114 1.516 . S
C3114 C3113 1.516 . S
C3114 C3115 1.502 . S
C3114 C3116 1.561 . S
C3114 C3117 1.526 . S
C3115 H3099 0.959 . S
C3115 H3100 0.959 . S
C3115 H3101 0.961 . S
C3115 C3114 1.502 . S
C3116 H3102 0.960 . S
C3116 H3103 0.961 . S
C3116 H3104 0.959 . S
C3116 C3114 1.561 . S
C3117 C3114 1.526 . S
C3117 C3118 1.396 . S
C3117 C3122 1.390 . S
C3118 C3112 1.465 . S
C3118 C3117 1.396 . S
C3118 C3119 1.399 . S
C3119 H3105 0.929 . S
C3119 C3118 1.399 . S
C3119 C3120 1.385 . S
C3120 H3106 0.931 . S
C3120 C3119 1.385 . S
C3120 C3121 1.389 . S
C3121 C3120 1.389 . S
C3121 C3122 1.387 . S
C3122 H3107 0.930 . S
C3122 C3117 1.390 . S
C3122 C3121 1.387 . S
H3123 C3135 0.930 . S
H3124 C3137 0.930 . S
H3125 C3138 0.930 . S
H3126 C3142 0.959 . S
H3127 C3142 0.959 . S
H3128 C3142 0.961 . S
H3129 C3143 0.960 . S
H3130 C3143 0.961 . S
H3131 C3143 0.959 . S
H3132 C3146 0.929 . S
H3133 C3147 0.931 . S
H3134 C3149 0.930 . S
C3135 H3123 0.930 . S
C3135 C3136 1.399 1_655 S
C3135 C3140 1.399 . S
C3136 C3135 1.399 1_455 S
C3136 C3137 1.376 . S
C3137 H3124 0.930 . S
C3137 C3136 1.376 . S
C3137 C3138 1.388 1_455 S
C3138 H3125 0.930 . S
C3138 C3137 1.388 1_655 S
C3138 C3139 1.390 . S
C3139 C3138 1.390 . S
C3139 C3140 1.394 . S
C3139 C3145 1.465 . S
C3140 C3135 1.399 . S
C3140 C3139 1.394 . S
C3140 C3141 1.516 . S
C3141 C3140 1.516 . S
C3141 C3142 1.502 . S
C3141 C3143 1.561 . S
C3141 C3144 1.526 . S
C3142 H3126 0.959 . S
C3142 H3127 0.959 . S
C3142 H3128 0.961 . S
C3142 C3141 1.502 . S
C3143 H3129 0.960 . S
C3143 H3130 0.961 . S
C3143 H3131 0.959 . S
C3143 C3141 1.561 . S
C3144 C3141 1.526 . S
C3144 C3145 1.396 . S
C3144 C3149 1.390 . S
C3145 C3139 1.465 . S
C3145 C3144 1.396 . S
C3145 C3146 1.399 . S
C3146 H3132 0.929 . S
C3146 C3145 1.399 . S
C3146 C3147 1.385 1_545 S
C3147 H3133 0.931 . S
C3147 C3146 1.385 1_565 S
C3147 C3148 1.389 . S
C3148 C3147 1.389 . S
C3148 C3149 1.387 1_565 S
C3149 H3134 0.930 . S
C3149 C3144 1.390 . S
C3149 C3148 1.387 1_545 S
H3150 C3162 0.930 . S
H3151 C3164 0.930 . S
H3152 C3165 0.930 . S
H3153 C3169 0.959 . S
H3154 C3169 0.959 . S
H3155 C3169 0.961 . S
H3156 C3170 0.960 . S
H3157 C3170 0.961 . S
H3158 C3170 0.959 . S
H3159 C3173 0.929 . S
H3160 C3174 0.931 . S
H3161 C3176 0.930 . S
C3162 H3150 0.930 . S
C3162 C3163 1.399 1_545 S
C3162 C3167 1.399 . S
C3163 C3162 1.399 1_565 S
C3163 C3164 1.376 . S
C3164 H3151 0.930 . S
C3164 C3163 1.376 . S
C3164 C3165 1.388 1_565 S
C3165 H3152 0.930 . S
C3165 C3164 1.388 1_545 S
C3165 C3166 1.390 . S
C3166 C3165 1.390 . S
C3166 C3167 1.394 . S
C3166 C3172 1.465 . S
C3167 C3162 1.399 . S
C3167 C3166 1.394 . S
C3167 C3168 1.516 . S
C3168 C3167 1.516 . S
C3168 C3169 1.502 . S
C3168 C3170 1.561 . S
C3168 C3171 1.526 . S
C3169 H3153 0.959 . S
C3169 H3154 0.959 . S
C3169 H3155 0.961 . S
C3169 C3168 1.502 . S
C3170 H3156 0.960 . S
C3170 H3157 0.961 . S
C3170 H3158 0.959 . S
C3170 C3168 1.561 . S
C3171 C3168 1.526 . S
C3171 C3172 1.396 . S
C3171 C3176 1.390 . S
C3172 C3166 1.465 . S
C3172 C3171 1.396 . S
C3172 C3173 1.399 . S
C3173 H3159 0.929 . S
C3173 C3172 1.399 . S
C3173 C3174 1.385 . S
C3174 H3160 0.931 . S
C3174 C3173 1.385 . S
C3174 C3175 1.389 . S
C3175 C3174 1.389 . S
C3175 C3176 1.387 . S
C3176 H3161 0.930 . S
C3176 C3171 1.390 . S
C3176 C3175 1.387 . S
H3177 C3189 0.930 . S
H3178 C3191 0.930 . S
H3179 C3192 0.930 . S
H3180 C3196 0.959 . S
H3181 C3196 0.959 . S
H3182 C3196 0.961 . S
H3183 C3197 0.960 1_455 S
H3184 C3197 0.961 . S
H3185 C3197 0.959 . S
H3186 C3200 0.929 . S
H3187 C3201 0.931 . S
H3188 C3203 0.930 . S
C3189 H3177 0.930 . S
C3189 C3190 1.399 . S
C3189 C3194 1.399 . S
C3190 C3189 1.399 . S
C3190 C3191 1.376 . S
C3191 H3178 0.930 . S
C3191 C3190 1.376 . S
C3191 C3192 1.388 . S
C3192 H3179 0.930 . S
C3192 C3191 1.388 . S
C3192 C3193 1.390 1_455 S
C3193 C3192 1.390 1_655 S
C3193 C3194 1.394 1_655 S
C3193 C3199 1.465 . S
C3194 C3189 1.399 . S
C3194 C3193 1.394 1_455 S
C3194 C3195 1.516 1_455 S
C3195 C3194 1.516 1_655 S
C3195 C3196 1.502 . S
C3195 C3197 1.561 . S
C3195 C3198 1.526 . S
C3196 H3180 0.959 . S
C3196 H3181 0.959 . S
C3196 H3182 0.961 . S
C3196 C3195 1.502 . S
C3197 H3183 0.960 1_655 S
C3197 H3184 0.961 . S
C3197 H3185 0.959 . S
C3197 C3195 1.561 . S
C3198 C3195 1.526 . S
C3198 C3199 1.396 . S
C3198 C3203 1.390 . S
C3199 C3193 1.465 . S
C3199 C3198 1.396 . S
C3199 C3200 1.399 . S
C3200 H3186 0.929 . S
C3200 C3199 1.399 . S
C3200 C3201 1.385 . S
C3201 H3187 0.931 . S
C3201 C3200 1.385 . S
C3201 C3202 1.389 . S
C3202 C3201 1.389 . S
C3202 C3203 1.387 . S
C3203 H3188 0.930 . S
C3203 C3198 1.390 . S
C3203 C3202 1.387 . S
H3204 C3216 0.930 . S
H3205 C3218 0.930 . S
H3206 C3219 0.930 . S
H3207 C3223 0.959 . S
H3208 C3223 0.959 . S
H3209 C3223 0.961 . S
H3210 C3224 0.960 . S
H3211 C3224 0.961 . S
H3212 C3224 0.959 . S
H3213 C3227 0.929 . S
H3214 C3228 0.931 . S
H3215 C3230 0.930 . S
C3216 H3204 0.930 . S
C3216 C3217 1.399 1_655 S
C3216 C3221 1.399 . S
C3217 C3216 1.399 1_455 S
C3217 C3218 1.376 . S
C3218 H3205 0.930 . S
C3218 C3217 1.376 . S
C3218 C3219 1.388 1_455 S
C3219 H3206 0.930 . S
C3219 C3218 1.388 1_655 S
C3219 C3220 1.390 . S
C3220 C3219 1.390 . S
C3220 C3221 1.394 . S
C3220 C3226 1.465 . S
C3221 C3216 1.399 . S
C3221 C3220 1.394 . S
C3221 C3222 1.516 . S
C3222 C3221 1.516 . S
C3222 C3223 1.502 . S
C3222 C3224 1.561 . S
C3222 C3225 1.526 . S
C3223 H3207 0.959 . S
C3223 H3208 0.959 . S
C3223 H3209 0.961 . S
C3223 C3222 1.502 . S
C3224 H3210 0.960 . S
C3224 H3211 0.961 . S
C3224 H3212 0.959 . S
C3224 C3222 1.561 . S
C3225 C3222 1.526 . S
C3225 C3226 1.396 . S
C3225 C3230 1.390 . S
C3226 C3220 1.465 . S
C3226 C3225 1.396 . S
C3226 C3227 1.399 . S
C3227 H3213 0.929 . S
C3227 C3226 1.399 . S
C3227 C3228 1.385 . S
C3228 H3214 0.931 . S
C3228 C3227 1.385 . S
C3228 C3229 1.389 . S
C3229 C3228 1.389 . S
C3229 C3230 1.387 . S
C3230 H3215 0.930 . S
C3230 C3225 1.390 . S
C3230 C3229 1.387 . S
H3231 C3243 0.930 . S
H3232 C3245 0.930 . S
H3233 C3246 0.930 . S
H3234 C3250 0.959 . S
H3235 C3250 0.959 . S
H3236 C3250 0.961 . S
H3237 C3251 0.960 . S
H3238 C3251 0.961 . S
H3239 C3251 0.959 . S
H3240 C3254 0.929 . S
H3241 C3255 0.931 . S
H3242 C3257 0.930 . S
C3243 H3231 0.930 . S
C3243 C3244 1.399 . S
C3243 C3248 1.399 . S
C3244 C3243 1.399 . S
C3244 C3245 1.376 . S
C3245 H3232 0.930 . S
C3245 C3244 1.376 . S
C3245 C3246 1.388 . S
C3246 H3233 0.930 . S
C3246 C3245 1.388 . S
C3246 C3247 1.390 . S
C3247 C3246 1.390 . S
C3247 C3248 1.394 . S
C3247 C3253 1.465 . S
C3248 C3243 1.399 . S
C3248 C3247 1.394 . S
C3248 C3249 1.516 . S
C3249 C3248 1.516 . S
C3249 C3250 1.502 . S
C3249 C3251 1.561 . S
C3249 C3252 1.526 . S
C3250 H3234 0.959 . S
C3250 H3235 0.959 . S
C3250 H3236 0.961 . S
C3250 C3249 1.502 . S
C3251 H3237 0.960 . S
C3251 H3238 0.961 . S
C3251 H3239 0.959 . S
C3251 C3249 1.561 . S
C3252 C3249 1.526 . S
C3252 C3253 1.396 . S
C3252 C3257 1.390 . S
C3253 C3247 1.465 . S
C3253 C3252 1.396 . S
C3253 C3254 1.399 . S
C3254 H3240 0.929 . S
C3254 C3253 1.399 . S
C3254 C3255 1.385 . S
C3255 H3241 0.931 . S
C3255 C3254 1.385 . S
C3255 C3256 1.389 . S
C3256 C3255 1.389 . S
C3256 C3257 1.387 . S
C3257 H3242 0.930 . S
C3257 C3252 1.390 . S
C3257 C3256 1.387 . S
H3258 C3270 0.930 . S
H3259 C3272 0.930 . S
H3260 C3273 0.930 . S
H3261 C3277 0.959 . S
H3262 C3277 0.959 . S
H3263 C3277 0.961 . S
H3264 C3278 0.960 . S
H3265 C3278 0.961 . S
H3266 C3278 0.959 . S
H3267 C3281 0.929 . S
H3268 C3282 0.931 . S
H3269 C3284 0.930 . S
C3270 H3258 0.930 . S
C3270 C3271 1.399 . S
C3270 C3275 1.399 . S
C3271 C3270 1.399 . S
C3271 C3272 1.376 . S
C3272 H3259 0.930 . S
C3272 C3271 1.376 . S
C3272 C3273 1.388 . S
C3273 H3260 0.930 . S
C3273 C3272 1.388 . S
C3273 C3274 1.390 . S
C3274 C3273 1.390 . S
C3274 C3275 1.394 . S
C3274 C3280 1.465 . S
C3275 C3270 1.399 . S
C3275 C3274 1.394 . S
C3275 C3276 1.516 . S
C3276 C3275 1.516 . S
C3276 C3277 1.502 . S
C3276 C3278 1.561 . S
C3276 C3279 1.526 . S
C3277 H3261 0.959 . S
C3277 H3262 0.959 . S
C3277 H3263 0.961 . S
C3277 C3276 1.502 . S
C3278 H3264 0.960 . S
C3278 H3265 0.961 . S
C3278 H3266 0.959 . S
C3278 C3276 1.561 . S
C3279 C3276 1.526 . S
C3279 C3280 1.396 . S
C3279 C3284 1.390 . S
C3280 C3274 1.465 . S
C3280 C3279 1.396 . S
C3280 C3281 1.399 . S
C3281 H3267 0.929 . S
C3281 C3280 1.399 . S
C3281 C3282 1.385 . S
C3282 H3268 0.931 . S
C3282 C3281 1.385 . S
C3282 C3283 1.389 . S
C3283 C3282 1.389 . S
C3283 C3284 1.387 . S
C3284 H3269 0.930 . S
C3284 C3279 1.390 . S
C3284 C3283 1.387 . S
H3285 C3297 0.930 . S
H3286 C3299 0.930 . S
H3287 C3300 0.930 . S
H3288 C3304 0.959 . S
H3289 C3304 0.959 . S
H3290 C3304 0.961 . S
H3291 C3305 0.960 . S
H3292 C3305 0.961 . S
H3293 C3305 0.959 . S
H3294 C3308 0.929 . S
H3295 C3309 0.931 . S
H3296 C3311 0.930 . S
C3297 H3285 0.930 . S
C3297 C3298 1.399 . S
C3297 C3302 1.399 . S
C3298 C3297 1.399 . S
C3298 C3299 1.376 . S
C3299 H3286 0.930 . S
C3299 C3298 1.376 . S
C3299 C3300 1.388 . S
C3300 H3287 0.930 . S
C3300 C3299 1.388 . S
C3300 C3301 1.390 . S
C3301 C3300 1.390 . S
C3301 C3302 1.394 . S
C3301 C3307 1.465 . S
C3302 C3297 1.399 . S
C3302 C3301 1.394 . S
C3302 C3303 1.516 . S
C3303 C3302 1.516 . S
C3303 C3304 1.502 . S
C3303 C3305 1.561 . S
C3303 C3306 1.526 . S
C3304 H3288 0.959 . S
C3304 H3289 0.959 . S
C3304 H3290 0.961 . S
C3304 C3303 1.502 . S
C3305 H3291 0.960 . S
C3305 H3292 0.961 . S
C3305 H3293 0.959 . S
C3305 C3303 1.561 . S
C3306 C3303 1.526 . S
C3306 C3307 1.396 . S
C3306 C3311 1.390 . S
C3307 C3301 1.465 . S
C3307 C3306 1.396 . S
C3307 C3308 1.399 . S
C3308 H3294 0.929 . S
C3308 C3307 1.399 . S
C3308 C3309 1.385 . S
C3309 H3295 0.931 . S
C3309 C3308 1.385 . S
C3309 C3310 1.389 . S
C3310 C3309 1.389 . S
C3310 C3311 1.387 . S
C3311 H3296 0.930 . S
C3311 C3306 1.390 . S
C3311 C3310 1.387 . S
H3312 C3324 0.930 . S
H3313 C3326 0.930 . S
H3314 C3327 0.930 . S
H3315 C3331 0.959 . S
H3316 C3331 0.959 1_545 S
H3317 C3331 0.961 . S
H3318 C3332 0.960 . S
H3319 C3332 0.961 . S
H3320 C3332 0.959 . S
H3321 C3335 0.929 1_565 S
H3322 C3336 0.931 . S
H3323 C3338 0.930 . S
C3324 H3312 0.930 . S
C3324 C3325 1.399 . S
C3324 C3329 1.399 . S
C3325 C3324 1.399 . S
C3325 C3326 1.376 . S
C3326 H3313 0.930 . S
C3326 C3325 1.376 . S
C3326 C3327 1.388 . S
C3327 H3314 0.930 . S
C3327 C3326 1.388 . S
C3327 C3328 1.390 . S
C3328 C3327 1.390 . S
C3328 C3329 1.394 . S
C3328 C3334 1.465 . S
C3329 C3324 1.399 . S
C3329 C3328 1.394 . S
C3329 C3330 1.516 . S
C3330 C3329 1.516 . S
C3330 C3331 1.502 . S
C3330 C3332 1.561 . S
C3330 C3333 1.516 1_565 S
C3331 H3315 0.959 . S
C3331 H3316 0.959 1_565 S
C3331 H3317 0.961 . S
C3331 C3330 1.502 . S
C3332 H3318 0.960 . S
C3332 H3319 0.961 . S
C3332 H3320 0.959 . S
C3332 C3330 1.561 . S
C3333 C3330 1.516 1_545 S
C3333 C3334 1.391 1_545 S
C3333 C3338 1.403 . S
C3334 C3328 1.465 . S
C3334 C3333 1.391 1_565 S
C3334 C3335 1.399 1_565 S
C3335 H3321 0.929 1_545 S
C3335 C3334 1.399 1_545 S
C3335 C3336 1.385 . S
C3336 H3322 0.931 . S
C3336 C3335 1.385 . S
C3336 C3337 1.389 . S
C3337 C3336 1.389 . S
C3337 C3338 1.387 . S
C3338 H3323 0.930 . S
C3338 C3333 1.403 . S
C3338 C3337 1.387 . S
H3339 C3351 0.930 . S
H3340 C3353 0.930 . S
H3341 C3354 0.930 . S
H3342 C3358 0.959 . S
H3343 C3358 0.959 . S
H3344 C3358 0.961 . S
H3345 C3359 0.960 . S
H3346 C3359 0.961 . S
H3347 C3359 0.959 . S
H3348 C3362 0.929 . S
H3349 C3363 0.931 . S
H3350 C3365 0.930 . S
C3351 H3339 0.930 . S
C3351 C3352 1.399 1_455 S
C3351 C3356 1.399 . S
C3352 C3351 1.399 1_655 S
C3352 C3353 1.376 . S
C3353 H3340 0.930 . S
C3353 C3352 1.376 . S
C3353 C3354 1.388 1_655 S
C3354 H3341 0.930 . S
C3354 C3353 1.388 1_455 S
C3354 C3355 1.390 . S
C3355 C3354 1.390 . S
C3355 C3356 1.394 . S
C3355 C3361 1.465 . S
C3356 C3351 1.399 . S
C3356 C3355 1.394 . S
C3356 C3357 1.516 . S
C3357 C3356 1.516 . S
C3357 C3358 1.502 . S
C3357 C3359 1.561 . S
C3357 C3360 1.526 . S
C3358 H3342 0.959 . S
C3358 H3343 0.959 . S
C3358 H3344 0.961 . S
C3358 C3357 1.502 . S
C3359 H3345 0.960 . S
C3359 H3346 0.961 . S
C3359 H3347 0.959 . S
C3359 C3357 1.561 . S
C3360 C3357 1.526 . S
C3360 C3361 1.396 . S
C3360 C3365 1.390 . S
C3361 C3355 1.465 . S
C3361 C3360 1.396 . S
C3361 C3362 1.399 . S
C3362 H3348 0.929 . S
C3362 C3361 1.399 . S
C3362 C3363 1.385 1_565 S
C3363 H3349 0.931 . S
C3363 C3362 1.385 1_545 S
C3363 C3364 1.389 . S
C3364 C3363 1.389 . S
C3364 C3365 1.387 1_545 S
C3365 H3350 0.930 . S
C3365 C3360 1.390 . S
C3365 C3364 1.387 1_565 S
H3366 C3378 0.930 . S
H3367 C3380 0.930 . S
H3368 C3381 0.930 . S
H3369 C3385 0.959 . S
H3370 C3385 0.959 . S
H3371 C3385 0.961 . S
H3372 C3386 0.960 . S
H3373 C3386 0.961 . S
H3374 C3386 0.959 . S
H3375 C3389 0.929 . S
H3376 C3390 0.931 . S
H3377 C3392 0.930 . S
C3378 H3366 0.930 . S
C3378 C3379 1.399 . S
C3378 C3383 1.399 . S
C3379 C3378 1.399 . S
C3379 C3380 1.376 . S
C3380 H3367 0.930 . S
C3380 C3379 1.376 . S
C3380 C3381 1.388 . S
C3381 H3368 0.930 . S
C3381 C3380 1.388 . S
C3381 C3382 1.390 . S
C3382 C3381 1.390 . S
C3382 C3383 1.394 . S
C3382 C3388 1.465 . S
C3383 C3378 1.399 . S
C3383 C3382 1.394 . S
C3383 C3384 1.516 . S
C3384 C3383 1.516 . S
C3384 C3385 1.502 . S
C3384 C3386 1.561 . S
C3384 C3387 1.526 . S
C3385 H3369 0.959 . S
C3385 H3370 0.959 . S
C3385 H3371 0.961 . S
C3385 C3384 1.502 . S
C3386 H3372 0.960 . S
C3386 H3373 0.961 . S
C3386 H3374 0.959 . S
C3386 C3384 1.561 . S
C3387 C3384 1.526 . S
C3387 C3388 1.396 . S
C3387 C3392 1.390 . S
C3388 C3382 1.465 . S
C3388 C3387 1.396 . S
C3388 C3389 1.399 . S
C3389 H3375 0.929 . S
C3389 C3388 1.399 . S
C3389 C3390 1.385 . S
C3390 H3376 0.931 . S
C3390 C3389 1.385 . S
C3390 C3391 1.389 . S
C3391 C3390 1.389 . S
C3391 C3392 1.387 . S
C3392 H3377 0.930 . S
C3392 C3387 1.390 . S
C3392 C3391 1.387 . S
H3393 C3405 0.930 . S
H3394 C3407 0.930 . S
H3395 C3408 0.930 . S
H3396 C3412 0.959 . S
H3397 C3412 0.959 . S
H3398 C3412 0.961 . S
H3399 C3413 0.960 . S
H3400 C3413 0.961 . S
H3401 C3413 0.959 . S
H3402 C3416 0.929 . S
H3403 C3417 0.931 . S
H3404 C3419 0.930 . S
C3405 H3393 0.930 . S
C3405 C3406 1.399 . S
C3405 C3410 1.399 . S
C3406 C3405 1.399 . S
C3406 C3407 1.376 . S
C3407 H3394 0.930 . S
C3407 C3406 1.376 . S
C3407 C3408 1.388 . S
C3408 H3395 0.930 . S
C3408 C3407 1.388 . S
C3408 C3409 1.390 . S
C3409 C3408 1.390 . S
C3409 C3410 1.394 . S
C3409 C3415 1.465 . S
C3410 C3405 1.399 . S
C3410 C3409 1.394 . S
C3410 C3411 1.516 . S
C3411 C3410 1.516 . S
C3411 C3412 1.502 . S
C3411 C3413 1.561 . S
C3411 C3414 1.526 . S
C3412 H3396 0.959 . S
C3412 H3397 0.959 . S
C3412 H3398 0.961 . S
C3412 C3411 1.502 . S
C3413 H3399 0.960 . S
C3413 H3400 0.961 . S
C3413 H3401 0.959 . S
C3413 C3411 1.561 . S
C3414 C3411 1.526 . S
C3414 C3415 1.396 . S
C3414 C3419 1.390 . S
C3415 C3409 1.465 . S
C3415 C3414 1.396 . S
C3415 C3416 1.399 . S
C3416 H3402 0.929 . S
C3416 C3415 1.399 . S
C3416 C3417 1.385 . S
C3417 H3403 0.931 . S
C3417 C3416 1.385 . S
C3417 C3418 1.389 . S
C3418 C3417 1.389 . S
C3418 C3419 1.387 . S
C3419 H3404 0.930 . S
C3419 C3414 1.390 . S
C3419 C3418 1.387 . S
H3420 C3432 0.930 . S
H3421 C3434 0.930 . S
H3422 C3435 0.930 . S
H3423 C3439 0.959 . S
H3424 C3439 0.959 . S
H3425 C3439 0.961 . S
H3426 C3440 0.960 . S
H3427 C3440 0.961 . S
H3428 C3440 0.959 . S
H3429 C3443 0.929 . S
H3430 C3444 0.931 . S
H3431 C3446 0.930 . S
C3432 H3420 0.930 . S
C3432 C3433 1.399 . S
C3432 C3437 1.399 . S
C3433 C3432 1.399 . S
C3433 C3434 1.376 . S
C3434 H3421 0.930 . S
C3434 C3433 1.376 . S
C3434 C3435 1.388 . S
C3435 H3422 0.930 . S
C3435 C3434 1.388 . S
C3435 C3436 1.390 . S
C3436 C3435 1.390 . S
C3436 C3437 1.394 . S
C3436 C3442 1.465 . S
C3437 C3432 1.399 . S
C3437 C3436 1.394 . S
C3437 C3438 1.516 . S
C3438 C3437 1.516 . S
C3438 C3439 1.502 . S
C3438 C3440 1.561 . S
C3438 C3441 1.526 . S
C3439 H3423 0.959 . S
C3439 H3424 0.959 . S
C3439 H3425 0.961 . S
C3439 C3438 1.502 . S
C3440 H3426 0.960 . S
C3440 H3427 0.961 . S
C3440 H3428 0.959 . S
C3440 C3438 1.561 . S
C3441 C3438 1.526 . S
C3441 C3442 1.396 . S
C3441 C3446 1.390 . S
C3442 C3436 1.465 . S
C3442 C3441 1.396 . S
C3442 C3443 1.399 . S
C3443 H3429 0.929 . S
C3443 C3442 1.399 . S
C3443 C3444 1.385 . S
C3444 H3430 0.931 . S
C3444 C3443 1.385 . S
C3444 C3445 1.389 . S
C3445 C3444 1.389 . S
C3445 C3446 1.387 . S
C3446 H3431 0.930 . S
C3446 C3441 1.390 . S
C3446 C3445 1.387 . S
H3447 C3459 0.930 . S
H3448 C3461 0.930 . S
H3449 C3462 0.930 . S
H3450 C3466 0.959 . S
H3451 C3466 0.959 . S
H3452 C3466 0.961 . S
H3453 C3467 0.960 . S
H3454 C3467 0.961 . S
H3455 C3467 0.959 . S
H3456 C3470 0.929 . S
H3457 C3471 0.931 . S
H3458 C3473 0.930 . S
C3459 H3447 0.930 . S
C3459 C3460 1.399 . S
C3459 C3464 1.399 . S
C3460 C3459 1.399 . S
C3460 C3461 1.376 . S
C3461 H3448 0.930 . S
C3461 C3460 1.376 . S
C3461 C3462 1.388 . S
C3462 H3449 0.930 . S
C3462 C3461 1.388 . S
C3462 C3463 1.390 . S
C3463 C3462 1.390 . S
C3463 C3464 1.394 . S
C3463 C3469 1.465 . S
C3464 C3459 1.399 . S
C3464 C3463 1.394 . S
C3464 C3465 1.516 . S
C3465 C3464 1.516 . S
C3465 C3466 1.502 . S
C3465 C3467 1.561 . S
C3465 C3468 1.526 . S
C3466 H3450 0.959 . S
C3466 H3451 0.959 . S
C3466 H3452 0.961 . S
C3466 C3465 1.502 . S
C3467 H3453 0.960 . S
C3467 H3454 0.961 . S
C3467 H3455 0.959 . S
C3467 C3465 1.561 . S
C3468 C3465 1.526 . S
C3468 C3469 1.396 . S
C3468 C3473 1.390 . S
C3469 C3463 1.465 . S
C3469 C3468 1.396 . S
C3469 C3470 1.399 . S
C3470 H3456 0.929 . S
C3470 C3469 1.399 . S
C3470 C3471 1.385 . S
C3471 H3457 0.931 . S
C3471 C3470 1.385 . S
C3471 C3472 1.389 . S
C3472 C3471 1.389 . S
C3472 C3473 1.387 . S
C3473 H3458 0.930 . S
C3473 C3468 1.390 . S
C3473 C3472 1.387 . S
H3474 C3486 0.930 . S
H3475 C3488 0.930 . S
H3476 C3489 0.930 . S
H3477 C3493 0.959 . S
H3478 C3493 0.959 . S
H3479 C3493 0.961 . S
H3480 C3494 0.960 . S
H3481 C3494 0.961 . S
H3482 C3494 0.959 . S
H3483 C3497 0.929 . S
H3484 C3498 0.931 . S
H3485 C3500 0.930 . S
C3486 H3474 0.930 . S
C3486 C3487 1.399 . S
C3486 C3491 1.399 . S
C3487 C3486 1.399 . S
C3487 C3488 1.376 . S
C3488 H3475 0.930 . S
C3488 C3487 1.376 . S
C3488 C3489 1.388 . S
C3489 H3476 0.930 . S
C3489 C3488 1.388 . S
C3489 C3490 1.390 . S
C3490 C3489 1.390 . S
C3490 C3491 1.394 . S
C3490 C3496 1.465 . S
C3491 C3486 1.399 . S
C3491 C3490 1.394 . S
C3491 C3492 1.516 . S
C3492 C3491 1.516 . S
C3492 C3493 1.502 . S
C3492 C3494 1.561 . S
C3492 C3495 1.526 . S
C3493 H3477 0.959 . S
C3493 H3478 0.959 . S
C3493 H3479 0.961 . S
C3493 C3492 1.502 . S
C3494 H3480 0.960 . S
C3494 H3481 0.961 . S
C3494 H3482 0.959 . S
C3494 C3492 1.561 . S
C3495 C3492 1.526 . S
C3495 C3496 1.396 . S
C3495 C3500 1.390 . S
C3496 C3490 1.465 . S
C3496 C3495 1.396 . S
C3496 C3497 1.399 . S
C3497 H3483 0.929 . S
C3497 C3496 1.399 . S
C3497 C3498 1.385 . S
C3498 H3484 0.931 . S
C3498 C3497 1.385 . S
C3498 C3499 1.389 . S
C3499 C3498 1.389 . S
C3499 C3500 1.387 . S
C3500 H3485 0.930 . S
C3500 C3495 1.390 . S
C3500 C3499 1.387 . S
H3501 C3513 0.930 . S
H3502 C3515 0.930 . S
H3503 C3516 0.930 . S
H3504 C3520 0.959 . S
H3505 C3520 0.959 . S
H3506 C3520 0.961 . S
H3507 C3521 0.960 . S
H3508 C3521 0.961 . S
H3509 C3521 0.959 . S
H3510 C3524 0.929 . S
H3511 C3525 0.931 . S
H3512 C3527 0.930 . S
C3513 H3501 0.930 . S
C3513 C3514 1.399 . S
C3513 C3518 1.399 . S
C3514 C3513 1.399 . S
C3514 C3515 1.376 . S
C3515 H3502 0.930 . S
C3515 C3514 1.376 . S
C3515 C3516 1.388 . S
C3516 H3503 0.930 . S
C3516 C3515 1.388 . S
C3516 C3517 1.390 . S
C3517 C3516 1.390 . S
C3517 C3518 1.394 . S
C3517 C3523 1.465 . S
C3518 C3513 1.399 . S
C3518 C3517 1.394 . S
C3518 C3519 1.516 . S
C3519 C3518 1.516 . S
C3519 C3520 1.502 . S
C3519 C3521 1.561 . S
C3519 C3522 1.526 . S
C3520 H3504 0.959 . S
C3520 H3505 0.959 . S
C3520 H3506 0.961 . S
C3520 C3519 1.502 . S
C3521 H3507 0.960 . S
C3521 H3508 0.961 . S
C3521 H3509 0.959 . S
C3521 C3519 1.561 . S
C3522 C3519 1.526 . S
C3522 C3523 1.396 . S
C3522 C3527 1.390 . S
C3523 C3517 1.465 . S
C3523 C3522 1.396 . S
C3523 C3524 1.399 . S
C3524 H3510 0.929 . S
C3524 C3523 1.399 . S
C3524 C3525 1.385 . S
C3525 H3511 0.931 . S
C3525 C3524 1.385 . S
C3525 C3526 1.389 . S
C3526 C3525 1.389 . S
C3526 C3527 1.387 . S
C3527 H3512 0.930 . S
C3527 C3522 1.390 . S
C3527 C3526 1.387 . S
H3528 C3540 0.930 . S
H3529 C3542 0.930 . S
H3530 C3543 0.930 . S
H3531 C3547 0.959 . S
H3532 C3547 0.959 . S
H3533 C3547 0.961 . S
H3534 C3548 0.960 . S
H3535 C3548 0.961 . S
H3536 C3548 0.959 . S
H3537 C3551 0.929 . S
H3538 C3552 0.931 . S
H3539 C3554 0.930 . S
C3540 H3528 0.930 . S
C3540 C3541 1.399 . S
C3540 C3545 1.399 . S
C3541 C3540 1.399 . S
C3541 C3542 1.376 . S
C3542 H3529 0.930 . S
C3542 C3541 1.376 . S
C3542 C3543 1.388 . S
C3543 H3530 0.930 . S
C3543 C3542 1.388 . S
C3543 C3544 1.390 . S
C3544 C3543 1.390 . S
C3544 C3545 1.394 . S
C3544 C3550 1.465 . S
C3545 C3540 1.399 . S
C3545 C3544 1.394 . S
C3545 C3546 1.516 . S
C3546 C3545 1.516 . S
C3546 C3547 1.502 . S
C3546 C3548 1.561 . S
C3546 C3549 1.526 . S
C3547 H3531 0.959 . S
C3547 H3532 0.959 . S
C3547 H3533 0.961 . S
C3547 C3546 1.502 . S
C3548 H3534 0.960 . S
C3548 H3535 0.961 . S
C3548 H3536 0.959 . S
C3548 C3546 1.561 . S
C3549 C3546 1.526 . S
C3549 C3550 1.396 . S
C3549 C3554 1.390 . S
C3550 C3544 1.465 . S
C3550 C3549 1.396 . S
C3550 C3551 1.399 . S
C3551 H3537 0.929 . S
C3551 C3550 1.399 . S
C3551 C3552 1.385 . S
C3552 H3538 0.931 . S
C3552 C3551 1.385 . S
C3552 C3553 1.389 . S
C3553 C3552 1.389 . S
C3553 C3554 1.387 . S
C3554 H3539 0.930 . S
C3554 C3549 1.390 . S
C3554 C3553 1.387 . S
H3555 C3567 0.930 1_655 S
H3556 C3569 0.930 1_655 S
H3557 C3570 0.930 . S
H3558 C3574 0.959 . S
H3559 C3574 0.959 . S
H3560 C3574 0.961 . S
H3561 C3575 0.960 . S
H3562 C3575 0.961 . S
H3563 C3575 0.959 . S
H3564 C3578 0.929 . S
H3565 C3579 0.931 . S
H3566 C3581 0.930 . S
C3567 H3555 0.930 1_455 S
C3567 C3568 1.399 1_455 S
C3567 C3572 1.399 . S
C3568 C3567 1.399 1_655 S
C3568 C3569 1.376 1_655 S
C3569 H3556 0.930 1_455 S
C3569 C3568 1.376 1_455 S
C3569 C3570 1.388 . S
C3570 H3557 0.930 . S
C3570 C3569 1.388 . S
C3570 C3571 1.390 . S
C3571 C3570 1.390 . S
C3571 C3572 1.394 . S
C3571 C3577 1.465 . S
C3572 C3567 1.399 . S
C3572 C3571 1.394 . S
C3572 C3573 1.516 . S
C3573 C3572 1.516 . S
C3573 C3574 1.502 . S
C3573 C3575 1.561 . S
C3573 C3576 1.526 . S
C3574 H3558 0.959 . S
C3574 H3559 0.959 . S
C3574 H3560 0.961 . S
C3574 C3573 1.502 . S
C3575 H3561 0.960 . S
C3575 H3562 0.961 . S
C3575 H3563 0.959 . S
C3575 C3573 1.561 . S
C3576 C3573 1.526 . S
C3576 C3577 1.396 . S
C3576 C3581 1.390 . S
C3577 C3571 1.465 . S
C3577 C3576 1.396 . S
C3577 C3578 1.399 . S
C3578 H3564 0.929 . S
C3578 C3577 1.399 . S
C3578 C3579 1.385 . S
C3579 H3565 0.931 . S
C3579 C3578 1.385 . S
C3579 C3580 1.389 . S
C3580 C3579 1.389 . S
C3580 C3581 1.387 . S
C3581 H3566 0.930 . S
C3581 C3576 1.390 . S
C3581 C3580 1.387 . S
H3582 C3594 0.930 . S
H3583 C3596 0.930 . S
H3584 C3597 0.927 . S
H3585 C3601 0.959 . S
H3586 C3601 0.959 . S
H3587 C3601 0.961 . S
H3588 C3602 0.960 . S
H3589 C3602 0.961 . S
H3590 C3602 0.959 . S
H3591 C3605 0.929 . S
H3592 C3606 0.931 . S
H3593 C3608 0.930 . S
C3594 H3582 0.930 . S
C3594 C3595 1.399 1_565 S
C3594 C3599 1.399 . S
C3595 C3594 1.399 1_545 S
C3595 C3596 1.376 . S
C3596 H3583 0.930 . S
C3596 C3595 1.376 . S
C3596 C3597 1.415 . S
C3597 H3584 0.927 . S
C3597 C3596 1.415 . S
C3597 C3598 1.366 1_545 S
C3598 C3597 1.366 1_565 S
C3598 C3599 1.394 . S
C3598 C3604 1.465 . S
C3599 C3594 1.399 . S
C3599 C3598 1.394 . S
C3599 C3600 1.516 . S
C3600 C3599 1.516 . S
C3600 C3601 1.502 . S
C3600 C3602 1.561 . S
C3600 C3603 1.526 . S
C3601 H3585 0.959 . S
C3601 H3586 0.959 . S
C3601 H3587 0.961 . S
C3601 C3600 1.502 . S
C3602 H3588 0.960 . S
C3602 H3589 0.961 . S
C3602 H3590 0.959 . S
C3602 C3600 1.561 . S
C3603 C3600 1.526 . S
C3603 C3604 1.396 . S
C3603 C3608 1.390 . S
C3604 C3598 1.465 . S
C3604 C3603 1.396 . S
C3604 C3605 1.399 . S
C3605 H3591 0.929 . S
C3605 C3604 1.399 . S
C3605 C3606 1.385 . S
C3606 H3592 0.931 . S
C3606 C3605 1.385 . S
C3606 C3607 1.389 . S
C3607 C3606 1.389 . S
C3607 C3608 1.387 . S
C3608 H3593 0.930 . S
C3608 C3603 1.390 . S
C3608 C3607 1.387 . S
H3609 C3621 0.930 . S
H3610 C3623 0.930 . S
H3611 C3624 0.930 . S
H3612 C3628 0.959 . S
H3613 C3628 0.959 . S
H3614 C3628 0.961 . S
H3615 C3629 0.960 . S
H3616 C3629 0.961 . S
H3617 C3629 0.959 . S
H3618 C3632 0.929 . S
H3619 C3633 0.931 . S
H3620 C3635 0.930 . S
C3621 H3609 0.930 . S
C3621 C3622 1.399 . S
C3621 C3626 1.399 . S
C3622 C3621 1.399 . S
C3622 C3623 1.376 . S
C3623 H3610 0.930 . S
C3623 C3622 1.376 . S
C3623 C3624 1.388 . S
C3624 H3611 0.930 . S
C3624 C3623 1.388 . S
C3624 C3625 1.390 . S
C3625 C3624 1.390 . S
C3625 C3626 1.394 . S
C3625 C3631 1.465 . S
C3626 C3621 1.399 . S
C3626 C3625 1.394 . S
C3626 C3627 1.516 . S
C3627 C3626 1.516 . S
C3627 C3628 1.502 . S
C3627 C3629 1.561 . S
C3627 C3630 1.526 . S
C3628 H3612 0.959 . S
C3628 H3613 0.959 . S
C3628 H3614 0.961 . S
C3628 C3627 1.502 . S
C3629 H3615 0.960 . S
C3629 H3616 0.961 . S
C3629 H3617 0.959 . S
C3629 C3627 1.561 . S
C3630 C3627 1.526 . S
C3630 C3631 1.396 . S
C3630 C3635 1.390 1_565 S
C3631 C3625 1.465 . S
C3631 C3630 1.396 . S
C3631 C3632 1.399 1_565 S
C3632 H3618 0.929 . S
C3632 C3631 1.399 1_545 S
C3632 C3633 1.385 . S
C3633 H3619 0.931 . S
C3633 C3632 1.385 . S
C3633 C3634 1.389 . S
C3634 C3633 1.389 . S
C3634 C3635 1.387 . S
C3635 H3620 0.930 . S
C3635 C3630 1.390 1_545 S
C3635 C3634 1.387 . S
C733 C559 1.773 . S
C745 C19 1.821 . S
C760 C579 1.809 . S
C772 C39 1.843 1_655 S
C787 C59 1.774 . S
C799 C599 1.815 . S
C814 C79 1.785 . S
C826 C259 1.839 . S
C841 C99 1.786 . S
C853 C279 1.788 . S
C868 C299 1.843 . S
C880 C119 1.797 1_565 S
C895 C138 1.810 1_565 S
C907 C438 1.783 . S
C922 C458 1.843 . S
C934 C158 1.792 . S
C949 C178 1.818 . S
C961 C478 1.826 . S
C976 C618 1.829 . S
C988 C198 1.774 1_655 S
C1003 C218 1.820 . S
C1015 C638 1.825 . S
C1030 C658 1.823 . S
C1042 C238 1.822 . S
C1057 C499 1.774 . S
C1069 C319 1.806 . S
C1084 C339 1.795 . S
C1096 C519 1.843 . S
C1111 C539 1.844 . S
C1123 C359 1.799 . S
C1138 C378 1.779 . S
C1150 C678 1.843 . S
C1165 C398 1.842 . S
C1177 C698 1.777 . S
C1192 C718 1.778 . S
C1204 C418 1.842 . S
C1219 C18 1.657 . S
C1231 C139 1.624 . S
C1246 C159 1.671 . S
C1258 C38 1.618 . S
C1273 C58 1.668 . S
C1285 C179 1.623 . S
C1300 C199 1.665 . S
C1312 C78 1.629 . S
C1327 C98 1.638 . S
C1339 C219 1.641 . S
C1354 C239 1.662 . S
C1366 C118 1.620 . S
C1381 C379 1.658 . S
C1393 C258 1.623 . S
C1408 C278 1.635 . S
C1420 C399 1.643 . S
C1435 C419 1.654 . S
C1447 C298 1.642 . S
C1462 C318 1.669 . S
C1474 C439 1.623 . S
C1489 C459 1.669 . S
C1501 C338 1.621 . S
C1516 C358 1.664 . S
C1528 C479 1.619 . S
C1543 C498 1.624 . S
C1555 C619 1.667 . S
C1570 C639 1.669 . S
C1582 C518 1.622 . S
C1597 C659 1.659 . S
C1609 C538 1.635 . S
C1624 C679 1.631 . S
C1636 C558 1.647 . S
C1651 C578 1.650 . S
C1663 C699 1.645 . S
C1678 C598 1.628 . S
C1690 C719 1.664 . S
C1705 C9 1.493 . S
C1717 C42 1.429 . S
C1732 C29 1.458 . S
C1744 C2 1.374 . S
C1759 C22 1.333 . S
C1771 C49 1.518 . S
C1786 C69 1.521 . S
C1798 C82 1.385 . S
C1813 C102 1.406 . S
C1825 C89 1.465 . S
C1840 C62 1.416 . S
C1852 C109 1.470 . S
C1867 C164 1.339 . S
C1879 C132 1.459 . S
C1894 C152 1.492 . S
C1906 C124 1.314 . S
C1921 C172 1.512 . S
C1933 C144 1.429 . S
C1948 C204 1.304 . S
C1960 C192 1.467 . S
C1975 C212 1.480 . S
C1987 C224 1.407 . S
C2002 C232 1.497 . S
C2014 C184 1.425 . S
C2029 C282 1.430 1_545 S
C2041 C249 1.488 . S
C2056 C242 1.318 . S
C2068 C269 1.513 1_545 S
C2083 C262 1.309 . S
C2095 C289 1.507 . S
C2110 C322 1.390 . S
C2122 C309 1.461 . S
C2137 C329 1.522 . S
C2149 C342 1.375 . S
C2164 C302 1.320 . S
C2176 C349 1.470 . S
C2191 C372 1.521 . S
C2203 C404 1.416 . S
C2218 C364 1.391 . S
C2230 C392 1.522 . S
C2245 C412 1.482 . S
C2257 C384 1.306 . S
C2272 C444 1.425 . S
C2284 C432 1.517 . S
C2299 C464 1.305 . S
C2311 C452 1.483 1_545 S
C2326 C424 1.385 1_545 S
C2338 C472 1.521 . S
C2353 C522 1.405 . S
C2365 C489 1.464 . S
C2380 C509 1.469 . S
C2392 C482 1.321 . S
C2407 C502 1.316 . S
C2419 C529 1.512 . S
C2434 C549 1.511 . S
C2446 C562 1.413 1_455 S
C2461 C569 1.522 . S
C2473 C582 1.374 . S
C2488 C542 1.301 . S
C2500 C589 1.492 1_455 S
C2515 C612 1.481 . S
C2527 C644 1.408 . S
C2542 C632 1.487 . S
C2554 C604 1.416 1_455 S
C2569 C624 1.419 . S
C2581 C652 1.520 1_455 S
C2596 C672 1.514 . S
C2608 C684 1.355 . S
C2623 C704 1.339 . S
C2635 C692 1.459 . S
C2650 C664 1.365 . S
C2662 C712 1.463 . S
C2677 C44 1.048 . S
C2689 C12 1.077 . S
C2704 C32 1.002 . S
C2716 C4 1.077 . S
C2731 C24 1.026 . S
C2743 C52 1.058 . S
C2758 C84 0.999 . S
C2770 C72 1.019 . S
C2785 C92 1.027 . S
C2797 C104 1.091 . S
C2812 C112 1.052 . S
C2824 C64 1.100 . S
C2839 C162 1.104 . S
C2851 C129 1.033 . S
C2866 C149 1.094 . S
C2878 C122 1.045 . S
C2893 C142 0.994 . S
C2905 C169 0.981 . S
C2920 C202 0.986 . S
C2932 C189 1.024 . S
C2947 C222 1.085 . S
C2959 C209 0.973 . S
C2974 C182 0.986 . S
C2986 C229 1.025 . S
C3001 C252 1.043 . S
C3013 C284 1.097 . S
C3028 C272 1.095 . S
C3040 C244 1.086 . S
C3055 C292 1.010 . S
C3067 C264 1.082 . S
C3082 C324 1.037 . S
C3094 C312 0.961 . S
C3109 C332 0.980 . S
C3121 C344 0.987 . S
C3136 C352 1.002 . S
C3148 C304 0.992 . S
C3163 C402 0.987 . S
C3175 C369 1.029 . S
C3190 C362 1.006 . S
C3202 C389 1.070 . S
C3217 C409 0.949 . S
C3229 C382 1.052 . S
C3244 C442 1.104 . S
C3256 C429 1.019 . S
C3271 C449 0.971 . S
C3283 C462 1.000 . S
C3298 C469 1.095 . S
C3310 C422 1.054 . S
C3325 C492 1.024 . S
C3337 C524 1.089 . S
C3352 C484 1.020 . S
C3364 C512 0.951 . S
C3379 C504 1.065 . S
C3391 C532 0.986 . S
C3406 C564 0.989 . S
C3418 C552 0.997 . S
C3433 C572 1.093 . S
C3445 C584 1.076 . S
C3460 C592 1.029 . S
C3472 C544 1.092 . S
C3487 C642 1.100 . S
C3499 C609 1.004 . S
C3514 C602 1.104 . S
C3526 C629 1.032 . S
C3541 C649 0.965 . S
C3553 C622 1.004 . S
C3568 C682 1.102 . S
C3580 C669 1.050 . S
C3595 C689 0.963 . S
C3607 C702 1.007 . S
C3622 C709 1.074 . S
C3634 C662 1.009 . S
