# Generated by pormake.
# Topology swa, (7)-cn, num edge types: 1
# Building blocks:
#     Node 0, Type 0, BuildingBlock: NUHQUE_clean_sbu_2, # of connection points: 7
#     Node 1, Type 0, BuildingBlock: NUHQUE_clean_sbu_2, # of connection points: 7
#     Node 2, Type 0, BuildingBlock: NUHQUE_clean_sbu_2, # of connection points: 7
#     Node 3, Type 0, BuildingBlock: NUHQUE_clean_sbu_2, # of connection points: 7
#     Node 4, Type 0, BuildingBlock: NUHQUE_clean_sbu_2, # of connection points: 7
#     Node 5, Type 0, BuildingBlock: NUHQUE_clean_sbu_2, # of connection points: 7
#     Node 6, Type 0, BuildingBlock: NUHQUE_clean_sbu_2, # of connection points: 7
#     Node 7, Type 0, BuildingBlock: NUHQUE_clean_sbu_2, # of connection points: 7
#     Node 8, Type 0, BuildingBlock: NUHQUE_clean_sbu_2, # of connection points: 7
#     Node 9, Type 0, BuildingBlock: NUHQUE_clean_sbu_2, # of connection points: 7
#     Node 10, Type 0, BuildingBlock: NUHQUE_clean_sbu_2, # of connection points: 7
#     Node 11, Type 0, BuildingBlock: NUHQUE_clean_sbu_2, # of connection points: 7
#     Node 12, Type 0, BuildingBlock: NUHQUE_clean_sbu_2, # of connection points: 7
#     Node 13, Type 0, BuildingBlock: NUHQUE_clean_sbu_2, # of connection points: 7
#     Node 14, Type 0, BuildingBlock: NUHQUE_clean_sbu_2, # of connection points: 7
#     Node 15, Type 0, BuildingBlock: NUHQUE_clean_sbu_2, # of connection points: 7
#     Node 16, Type 0, BuildingBlock: NUHQUE_clean_sbu_2, # of connection points: 7
#     Node 17, Type 0, BuildingBlock: NUHQUE_clean_sbu_2, # of connection points: 7
#     Node 18, Type 0, BuildingBlock: NUHQUE_clean_sbu_2, # of connection points: 7
#     Node 19, Type 0, BuildingBlock: NUHQUE_clean_sbu_2, # of connection points: 7
#     Node 20, Type 0, BuildingBlock: NUHQUE_clean_sbu_2, # of connection points: 7
#     Node 21, Type 0, BuildingBlock: NUHQUE_clean_sbu_2, # of connection points: 7
#     Node 22, Type 0, BuildingBlock: NUHQUE_clean_sbu_2, # of connection points: 7
#     Node 23, Type 0, BuildingBlock: NUHQUE_clean_sbu_2, # of connection points: 7
#     Node 24, Type 0, BuildingBlock: NUHQUE_clean_sbu_2, # of connection points: 7
#     Node 25, Type 0, BuildingBlock: NUHQUE_clean_sbu_2, # of connection points: 7
#     Node 26, Type 0, BuildingBlock: NUHQUE_clean_sbu_2, # of connection points: 7
#     Node 27, Type 0, BuildingBlock: NUHQUE_clean_sbu_2, # of connection points: 7
#     Node 28, Type 0, BuildingBlock: NUHQUE_clean_sbu_2, # of connection points: 7
#     Node 29, Type 0, BuildingBlock: NUHQUE_clean_sbu_2, # of connection points: 7
#     Node 30, Type 0, BuildingBlock: NUHQUE_clean_sbu_2, # of connection points: 7
#     Node 31, Type 0, BuildingBlock: NUHQUE_clean_sbu_2, # of connection points: 7
#     Node 32, Type 0, BuildingBlock: NUHQUE_clean_sbu_2, # of connection points: 7
#     Node 33, Type 0, BuildingBlock: NUHQUE_clean_sbu_2, # of connection points: 7
#     Node 34, Type 0, BuildingBlock: NUHQUE_clean_sbu_2, # of connection points: 7
#     Node 35, Type 0, BuildingBlock: NUHQUE_clean_sbu_2, # of connection points: 7
#     Node 36, Type 0, BuildingBlock: NUHQUE_clean_sbu_2, # of connection points: 7
#     Node 37, Type 0, BuildingBlock: NUHQUE_clean_sbu_2, # of connection points: 7
#     Node 38, Type 0, BuildingBlock: NUHQUE_clean_sbu_2, # of connection points: 7
#     Node 39, Type 0, BuildingBlock: NUHQUE_clean_sbu_2, # of connection points: 7
#     Node 40, Type 0, BuildingBlock: NUHQUE_clean_sbu_2, # of connection points: 7
#     Node 41, Type 0, BuildingBlock: NUHQUE_clean_sbu_2, # of connection points: 7
#     Node 42, Type 0, BuildingBlock: NUHQUE_clean_sbu_2, # of connection points: 7
#     Node 43, Type 0, BuildingBlock: NUHQUE_clean_sbu_2, # of connection points: 7
#     Node 44, Type 0, BuildingBlock: NUHQUE_clean_sbu_2, # of connection points: 7
#     Node 45, Type 0, BuildingBlock: NUHQUE_clean_sbu_2, # of connection points: 7
#     Node 46, Type 0, BuildingBlock: NUHQUE_clean_sbu_2, # of connection points: 7
#     Node 47, Type 0, BuildingBlock: NUHQUE_clean_sbu_2, # of connection points: 7
#     Edge 48, Type (0, 0), BuildingBlock: EZIPEK_clean_linker_0, # of connection points: 2
#     Edge 49, Type (0, 0), BuildingBlock: EZIPEK_clean_linker_0, # of connection points: 2
#     Edge 50, Type (0, 0), BuildingBlock: EZIPEK_clean_linker_0, # of connection points: 2
#     Edge 51, Type (0, 0), BuildingBlock: EZIPEK_clean_linker_0, # of connection points: 2
#     Edge 52, Type (0, 0), BuildingBlock: EZIPEK_clean_linker_0, # of connection points: 2
#     Edge 53, Type (0, 0), BuildingBlock: EZIPEK_clean_linker_0, # of connection points: 2
#     Edge 54, Type (0, 0), BuildingBlock: EZIPEK_clean_linker_0, # of connection points: 2
#     Edge 55, Type (0, 0), BuildingBlock: EZIPEK_clean_linker_0, # of connection points: 2
#     Edge 56, Type (0, 0), BuildingBlock: EZIPEK_clean_linker_0, # of connection points: 2
#     Edge 57, Type (0, 0), BuildingBlock: EZIPEK_clean_linker_0, # of connection points: 2
#     Edge 58, Type (0, 0), BuildingBlock: EZIPEK_clean_linker_0, # of connection points: 2
#     Edge 59, Type (0, 0), BuildingBlock: EZIPEK_clean_linker_0, # of connection points: 2
#     Edge 60, Type (0, 0), BuildingBlock: EZIPEK_clean_linker_0, # of connection points: 2
#     Edge 61, Type (0, 0), BuildingBlock: EZIPEK_clean_linker_0, # of connection points: 2
#     Edge 62, Type (0, 0), BuildingBlock: EZIPEK_clean_linker_0, # of connection points: 2
#     Edge 63, Type (0, 0), BuildingBlock: EZIPEK_clean_linker_0, # of connection points: 2
#     Edge 64, Type (0, 0), BuildingBlock: EZIPEK_clean_linker_0, # of connection points: 2
#     Edge 65, Type (0, 0), BuildingBlock: EZIPEK_clean_linker_0, # of connection points: 2
#     Edge 66, Type (0, 0), BuildingBlock: EZIPEK_clean_linker_0, # of connection points: 2
#     Edge 67, Type (0, 0), BuildingBlock: EZIPEK_clean_linker_0, # of connection points: 2
#     Edge 68, Type (0, 0), BuildingBlock: EZIPEK_clean_linker_0, # of connection points: 2
#     Edge 69, Type (0, 0), BuildingBlock: EZIPEK_clean_linker_0, # of connection points: 2
#     Edge 70, Type (0, 0), BuildingBlock: EZIPEK_clean_linker_0, # of connection points: 2
#     Edge 71, Type (0, 0), BuildingBlock: EZIPEK_clean_linker_0, # of connection points: 2
#     Edge 72, Type (0, 0), BuildingBlock: EZIPEK_clean_linker_0, # of connection points: 2
#     Edge 73, Type (0, 0), BuildingBlock: EZIPEK_clean_linker_0, # of connection points: 2
#     Edge 74, Type (0, 0), BuildingBlock: EZIPEK_clean_linker_0, # of connection points: 2
#     Edge 75, Type (0, 0), BuildingBlock: EZIPEK_clean_linker_0, # of connection points: 2
#     Edge 76, Type (0, 0), BuildingBlock: EZIPEK_clean_linker_0, # of connection points: 2
#     Edge 77, Type (0, 0), BuildingBlock: EZIPEK_clean_linker_0, # of connection points: 2
#     Edge 78, Type (0, 0), BuildingBlock: EZIPEK_clean_linker_0, # of connection points: 2
#     Edge 79, Type (0, 0), BuildingBlock: EZIPEK_clean_linker_0, # of connection points: 2
#     Edge 80, Type (0, 0), BuildingBlock: EZIPEK_clean_linker_0, # of connection points: 2
#     Edge 81, Type (0, 0), BuildingBlock: EZIPEK_clean_linker_0, # of connection points: 2
#     Edge 82, Type (0, 0), BuildingBlock: EZIPEK_clean_linker_0, # of connection points: 2
#     Edge 83, Type (0, 0), BuildingBlock: EZIPEK_clean_linker_0, # of connection points: 2
#     Edge 84, Type (0, 0), BuildingBlock: EZIPEK_clean_linker_0, # of connection points: 2
#     Edge 85, Type (0, 0), BuildingBlock: EZIPEK_clean_linker_0, # of connection points: 2
#     Edge 86, Type (0, 0), BuildingBlock: EZIPEK_clean_linker_0, # of connection points: 2
#     Edge 87, Type (0, 0), BuildingBlock: EZIPEK_clean_linker_0, # of connection points: 2
#     Edge 88, Type (0, 0), BuildingBlock: EZIPEK_clean_linker_0, # of connection points: 2
#     Edge 89, Type (0, 0), BuildingBlock: EZIPEK_clean_linker_0, # of connection points: 2
#     Edge 90, Type (0, 0), BuildingBlock: EZIPEK_clean_linker_0, # of connection points: 2
#     Edge 91, Type (0, 0), BuildingBlock: EZIPEK_clean_linker_0, # of connection points: 2
#     Edge 92, Type (0, 0), BuildingBlock: EZIPEK_clean_linker_0, # of connection points: 2
#     Edge 93, Type (0, 0), BuildingBlock: EZIPEK_clean_linker_0, # of connection points: 2
#     Edge 94, Type (0, 0), BuildingBlock: EZIPEK_clean_linker_0, # of connection points: 2
#     Edge 95, Type (0, 0), BuildingBlock: EZIPEK_clean_linker_0, # of connection points: 2
#     Edge 96, Type (0, 0), BuildingBlock: EZIPEK_clean_linker_0, # of connection points: 2
#     Edge 97, Type (0, 0), BuildingBlock: EZIPEK_clean_linker_0, # of connection points: 2
#     Edge 98, Type (0, 0), BuildingBlock: EZIPEK_clean_linker_0, # of connection points: 2
#     Edge 99, Type (0, 0), BuildingBlock: EZIPEK_clean_linker_0, # of connection points: 2
#     Edge 100, Type (0, 0), BuildingBlock: EZIPEK_clean_linker_0, # of connection points: 2
#     Edge 101, Type (0, 0), BuildingBlock: EZIPEK_clean_linker_0, # of connection points: 2
#     Edge 102, Type (0, 0), BuildingBlock: EZIPEK_clean_linker_0, # of connection points: 2
#     Edge 103, Type (0, 0), BuildingBlock: EZIPEK_clean_linker_0, # of connection points: 2
#     Edge 104, Type (0, 0), BuildingBlock: EZIPEK_clean_linker_0, # of connection points: 2
#     Edge 105, Type (0, 0), BuildingBlock: EZIPEK_clean_linker_0, # of connection points: 2
#     Edge 106, Type (0, 0), BuildingBlock: EZIPEK_clean_linker_0, # of connection points: 2
#     Edge 107, Type (0, 0), BuildingBlock: EZIPEK_clean_linker_0, # of connection points: 2
#     Edge 108, Type (0, 0), BuildingBlock: EZIPEK_clean_linker_0, # of connection points: 2
#     Edge 109, Type (0, 0), BuildingBlock: EZIPEK_clean_linker_0, # of connection points: 2
#     Edge 110, Type (0, 0), BuildingBlock: EZIPEK_clean_linker_0, # of connection points: 2
#     Edge 111, Type (0, 0), BuildingBlock: EZIPEK_clean_linker_0, # of connection points: 2
#     Edge 112, Type (0, 0), BuildingBlock: EZIPEK_clean_linker_0, # of connection points: 2
#     Edge 113, Type (0, 0), BuildingBlock: EZIPEK_clean_linker_0, # of connection points: 2
#     Edge 114, Type (0, 0), BuildingBlock: EZIPEK_clean_linker_0, # of connection points: 2
#     Edge 115, Type (0, 0), BuildingBlock: EZIPEK_clean_linker_0, # of connection points: 2
#     Edge 116, Type (0, 0), BuildingBlock: EZIPEK_clean_linker_0, # of connection points: 2
#     Edge 117, Type (0, 0), BuildingBlock: EZIPEK_clean_linker_0, # of connection points: 2
#     Edge 118, Type (0, 0), BuildingBlock: EZIPEK_clean_linker_0, # of connection points: 2
#     Edge 119, Type (0, 0), BuildingBlock: EZIPEK_clean_linker_0, # of connection points: 2
#     Edge 120, Type (0, 0), BuildingBlock: EZIPEK_clean_linker_0, # of connection points: 2
#     Edge 121, Type (0, 0), BuildingBlock: EZIPEK_clean_linker_0, # of connection points: 2
#     Edge 122, Type (0, 0), BuildingBlock: EZIPEK_clean_linker_0, # of connection points: 2
#     Edge 123, Type (0, 0), BuildingBlock: EZIPEK_clean_linker_0, # of connection points: 2
#     Edge 124, Type (0, 0), BuildingBlock: EZIPEK_clean_linker_0, # of connection points: 2
#     Edge 125, Type (0, 0), BuildingBlock: EZIPEK_clean_linker_0, # of connection points: 2
#     Edge 126, Type (0, 0), BuildingBlock: EZIPEK_clean_linker_0, # of connection points: 2
#     Edge 127, Type (0, 0), BuildingBlock: EZIPEK_clean_linker_0, # of connection points: 2
#     Edge 128, Type (0, 0), BuildingBlock: EZIPEK_clean_linker_0, # of connection points: 2
#     Edge 129, Type (0, 0), BuildingBlock: EZIPEK_clean_linker_0, # of connection points: 2
#     Edge 130, Type (0, 0), BuildingBlock: EZIPEK_clean_linker_0, # of connection points: 2
#     Edge 131, Type (0, 0), BuildingBlock: EZIPEK_clean_linker_0, # of connection points: 2
#     Edge 132, Type (0, 0), BuildingBlock: EZIPEK_clean_linker_0, # of connection points: 2
#     Edge 133, Type (0, 0), BuildingBlock: EZIPEK_clean_linker_0, # of connection points: 2
#     Edge 134, Type (0, 0), BuildingBlock: EZIPEK_clean_linker_0, # of connection points: 2
#     Edge 135, Type (0, 0), BuildingBlock: EZIPEK_clean_linker_0, # of connection points: 2
#     Edge 136, Type (0, 0), BuildingBlock: EZIPEK_clean_linker_0, # of connection points: 2
#     Edge 137, Type (0, 0), BuildingBlock: EZIPEK_clean_linker_0, # of connection points: 2
#     Edge 138, Type (0, 0), BuildingBlock: EZIPEK_clean_linker_0, # of connection points: 2
#     Edge 139, Type (0, 0), BuildingBlock: EZIPEK_clean_linker_0, # of connection points: 2
#     Edge 140, Type (0, 0), BuildingBlock: EZIPEK_clean_linker_0, # of connection points: 2
#     Edge 141, Type (0, 0), BuildingBlock: EZIPEK_clean_linker_0, # of connection points: 2
#     Edge 142, Type (0, 0), BuildingBlock: EZIPEK_clean_linker_0, # of connection points: 2
#     Edge 143, Type (0, 0), BuildingBlock: EZIPEK_clean_linker_0, # of connection points: 2
#     Edge 144, Type (0, 0), BuildingBlock: EZIPEK_clean_linker_0, # of connection points: 2
#     Edge 145, Type (0, 0), BuildingBlock: EZIPEK_clean_linker_0, # of connection points: 2
#     Edge 146, Type (0, 0), BuildingBlock: EZIPEK_clean_linker_0, # of connection points: 2
#     Edge 147, Type (0, 0), BuildingBlock: EZIPEK_clean_linker_0, # of connection points: 2
#     Edge 148, Type (0, 0), BuildingBlock: EZIPEK_clean_linker_0, # of connection points: 2
#     Edge 149, Type (0, 0), BuildingBlock: EZIPEK_clean_linker_0, # of connection points: 2
#     Edge 150, Type (0, 0), BuildingBlock: EZIPEK_clean_linker_0, # of connection points: 2
#     Edge 151, Type (0, 0), BuildingBlock: EZIPEK_clean_linker_0, # of connection points: 2
#     Edge 152, Type (0, 0), BuildingBlock: EZIPEK_clean_linker_0, # of connection points: 2
#     Edge 153, Type (0, 0), BuildingBlock: EZIPEK_clean_linker_0, # of connection points: 2
#     Edge 154, Type (0, 0), BuildingBlock: EZIPEK_clean_linker_0, # of connection points: 2
#     Edge 155, Type (0, 0), BuildingBlock: EZIPEK_clean_linker_0, # of connection points: 2
#     Edge 156, Type (0, 0), BuildingBlock: EZIPEK_clean_linker_0, # of connection points: 2
#     Edge 157, Type (0, 0), BuildingBlock: EZIPEK_clean_linker_0, # of connection points: 2
#     Edge 158, Type (0, 0), BuildingBlock: EZIPEK_clean_linker_0, # of connection points: 2
#     Edge 159, Type (0, 0), BuildingBlock: EZIPEK_clean_linker_0, # of connection points: 2
#     Edge 160, Type (0, 0), BuildingBlock: EZIPEK_clean_linker_0, # of connection points: 2
#     Edge 161, Type (0, 0), BuildingBlock: EZIPEK_clean_linker_0, # of connection points: 2
#     Edge 162, Type (0, 0), BuildingBlock: EZIPEK_clean_linker_0, # of connection points: 2
#     Edge 163, Type (0, 0), BuildingBlock: EZIPEK_clean_linker_0, # of connection points: 2
#     Edge 164, Type (0, 0), BuildingBlock: EZIPEK_clean_linker_0, # of connection points: 2
#     Edge 165, Type (0, 0), BuildingBlock: EZIPEK_clean_linker_0, # of connection points: 2
#     Edge 166, Type (0, 0), BuildingBlock: EZIPEK_clean_linker_0, # of connection points: 2
#     Edge 167, Type (0, 0), BuildingBlock: EZIPEK_clean_linker_0, # of connection points: 2
#     Edge 168, Type (0, 0), BuildingBlock: EZIPEK_clean_linker_0, # of connection points: 2
#     Edge 169, Type (0, 0), BuildingBlock: EZIPEK_clean_linker_0, # of connection points: 2
#     Edge 170, Type (0, 0), BuildingBlock: EZIPEK_clean_linker_0, # of connection points: 2
#     Edge 171, Type (0, 0), BuildingBlock: EZIPEK_clean_linker_0, # of connection points: 2
#     Edge 172, Type (0, 0), BuildingBlock: EZIPEK_clean_linker_0, # of connection points: 2
#     Edge 173, Type (0, 0), BuildingBlock: EZIPEK_clean_linker_0, # of connection points: 2
#     Edge 174, Type (0, 0), BuildingBlock: EZIPEK_clean_linker_0, # of connection points: 2
#     Edge 175, Type (0, 0), BuildingBlock: EZIPEK_clean_linker_0, # of connection points: 2
#     Edge 176, Type (0, 0), BuildingBlock: EZIPEK_clean_linker_0, # of connection points: 2
#     Edge 177, Type (0, 0), BuildingBlock: EZIPEK_clean_linker_0, # of connection points: 2
#     Edge 178, Type (0, 0), BuildingBlock: EZIPEK_clean_linker_0, # of connection points: 2
#     Edge 179, Type (0, 0), BuildingBlock: EZIPEK_clean_linker_0, # of connection points: 2
#     Edge 180, Type (0, 0), BuildingBlock: EZIPEK_clean_linker_0, # of connection points: 2
#     Edge 181, Type (0, 0), BuildingBlock: EZIPEK_clean_linker_0, # of connection points: 2
#     Edge 182, Type (0, 0), BuildingBlock: EZIPEK_clean_linker_0, # of connection points: 2
#     Edge 183, Type (0, 0), BuildingBlock: EZIPEK_clean_linker_0, # of connection points: 2
#     Edge 184, Type (0, 0), BuildingBlock: EZIPEK_clean_linker_0, # of connection points: 2
#     Edge 185, Type (0, 0), BuildingBlock: EZIPEK_clean_linker_0, # of connection points: 2
#     Edge 186, Type (0, 0), BuildingBlock: EZIPEK_clean_linker_0, # of connection points: 2
#     Edge 187, Type (0, 0), BuildingBlock: EZIPEK_clean_linker_0, # of connection points: 2
#     Edge 188, Type (0, 0), BuildingBlock: EZIPEK_clean_linker_0, # of connection points: 2
#     Edge 189, Type (0, 0), BuildingBlock: EZIPEK_clean_linker_0, # of connection points: 2
#     Edge 190, Type (0, 0), BuildingBlock: EZIPEK_clean_linker_0, # of connection points: 2
#     Edge 191, Type (0, 0), BuildingBlock: EZIPEK_clean_linker_0, # of connection points: 2
#     Edge 192, Type (0, 0), BuildingBlock: EZIPEK_clean_linker_0, # of connection points: 2
#     Edge 193, Type (0, 0), BuildingBlock: EZIPEK_clean_linker_0, # of connection points: 2
#     Edge 194, Type (0, 0), BuildingBlock: EZIPEK_clean_linker_0, # of connection points: 2
#     Edge 195, Type (0, 0), BuildingBlock: EZIPEK_clean_linker_0, # of connection points: 2
#     Edge 196, Type (0, 0), BuildingBlock: EZIPEK_clean_linker_0, # of connection points: 2
#     Edge 197, Type (0, 0), BuildingBlock: EZIPEK_clean_linker_0, # of connection points: 2
#     Edge 198, Type (0, 0), BuildingBlock: EZIPEK_clean_linker_0, # of connection points: 2
#     Edge 199, Type (0, 0), BuildingBlock: EZIPEK_clean_linker_0, # of connection points: 2
#     Edge 200, Type (0, 0), BuildingBlock: EZIPEK_clean_linker_0, # of connection points: 2
#     Edge 201, Type (0, 0), BuildingBlock: EZIPEK_clean_linker_0, # of connection points: 2
#     Edge 202, Type (0, 0), BuildingBlock: EZIPEK_clean_linker_0, # of connection points: 2
#     Edge 203, Type (0, 0), BuildingBlock: EZIPEK_clean_linker_0, # of connection points: 2
#     Edge 204, Type (0, 0), BuildingBlock: EZIPEK_clean_linker_0, # of connection points: 2
#     Edge 205, Type (0, 0), BuildingBlock: EZIPEK_clean_linker_0, # of connection points: 2
#     Edge 206, Type (0, 0), BuildingBlock: EZIPEK_clean_linker_0, # of connection points: 2
#     Edge 207, Type (0, 0), BuildingBlock: EZIPEK_clean_linker_0, # of connection points: 2
#     Edge 208, Type (0, 0), BuildingBlock: EZIPEK_clean_linker_0, # of connection points: 2
#     Edge 209, Type (0, 0), BuildingBlock: EZIPEK_clean_linker_0, # of connection points: 2
#     Edge 210, Type (0, 0), BuildingBlock: EZIPEK_clean_linker_0, # of connection points: 2
#     Edge 211, Type (0, 0), BuildingBlock: EZIPEK_clean_linker_0, # of connection points: 2
#     Edge 212, Type (0, 0), BuildingBlock: EZIPEK_clean_linker_0, # of connection points: 2
#     Edge 213, Type (0, 0), BuildingBlock: EZIPEK_clean_linker_0, # of connection points: 2
#     Edge 214, Type (0, 0), BuildingBlock: EZIPEK_clean_linker_0, # of connection points: 2
#     Edge 215, Type (0, 0), BuildingBlock: EZIPEK_clean_linker_0, # of connection points: 2
# Relax obj value: 0.263
# Max RMSD: 0.247
# Mean RMSD: 0.247
data_MOF--net-swa--node1-NUHQUE_clean_sbu_2--edge1-EZIPEK_clean_linker_0
_symmetry_space_group_name_H-M    P1
_symmetry_Int_Tables_number       1
_symmetry_cell_setting            triclinic
loop_
_symmetry_equiv_pos_as_xyz
'x, y, z'
_cell_length_a     55.297428
_cell_length_b     55.318796
_cell_length_c     55.29762
_cell_angle_alpha  90.034898
_cell_angle_beta   90.037201
_cell_angle_gamma 89.98992
loop_
_atom_site_label
_atom_site_type_symbol
_atom_site_fract_x
_atom_site_fract_y
_atom_site_fract_z
_atom_type_partial_charge
O0 O 0.1238 0.64324 0.12522 0.0
Tb1 Tb 0.09209 0.65374 0.10419 0.0
Eu2 Eu 0.08291 0.6725 0.16555 0.0
C3 C 0.14408 0.6547 0.12025 0.0
O4 O 0.14325 0.67308 0.10526 0.0
C5 C 0.10172 0.70606 0.12265 0.0
O6 O 0.0472 0.69218 0.16165 0.0
C7 C 0.09862 0.67307 0.21 0.0
C8 C 0.03709 0.69383 0.14016 0.0
O9 O 0.04732 0.68291 0.1218 0.0
C10 C 0.05497 0.62766 0.13956 0.0
C11 C 0.09289 0.66361 0.23441 0.0
C12 C 0.11144 0.65442 0.2495 0.0
C13 C 0.10618 0.64759 0.27352 0.0
C14 C 0.08249 0.64945 0.28196 0.0
C15 C 0.06416 0.65882 0.26744 0.0
C16 C 0.06926 0.66581 0.24367 0.0
O17 O 0.09247 0.69294 0.10512 0.0
O18 O 0.10753 0.69616 0.14345 0.0
O19 O 0.1144 0.63776 0.07546 0.0
O20 O 0.08046 0.65209 0.0661 0.0
C21 C 0.09981 0.64187 0.05753 0.0
O22 O 0.06764 0.63522 0.15829 0.0
O23 O 0.05955 0.63571 0.11759 0.0
O24 O 0.08353 0.6891 0.201 0.0
O25 O 0.10665 0.65771 0.1937 0.0
H26 H 0.12987 0.65336 0.24294 0.0
H27 H 0.0784 0.64445 0.3005 0.0
H28 H 0.05489 0.6734 0.2327 0.0
O29 O 0.85965 0.12606 0.11066 0.0
Tb30 Tb 0.84849 0.08948 0.09923 0.0
Eu31 Eu 0.83368 0.08332 0.16449 0.0
C32 C 0.84437 0.14446 0.11054 0.0
O33 O 0.82118 0.14013 0.11032 0.0
C34 C 0.79834 0.09811 0.12258 0.0
O35 O 0.81226 0.04883 0.16872 0.0
C36 C 0.83751 0.10202 0.20745 0.0
C37 C 0.80795 0.03404 0.15065 0.0
O38 O 0.81788 0.03838 0.12954 0.0
C39 C 0.87276 0.0523 0.13531 0.0
C40 C 0.84576 0.09409 0.23146 0.0
C41 C 0.8533 0.11135 0.24855 0.0
C42 C 0.85904 0.10411 0.2722 0.0
C43 C 0.85789 0.07962 0.27842 0.0
C44 C 0.85029 0.06229 0.26163 0.0
C45 C 0.84419 0.06956 0.23811 0.0
O46 O 0.80982 0.08609 0.10569 0.0
O47 O 0.80997 0.10671 0.14142 0.0
O48 O 0.87119 0.09849 0.06797 0.0
O49 O 0.83676 0.08365 0.06167 0.0
C50 C 0.85586 0.09248 0.05121 0.0
O51 O 0.87003 0.06846 0.15253 0.0
O52 O 0.86424 0.05614 0.11336 0.0
O53 O 0.81801 0.0912 0.19943 0.0
O54 O 0.85403 0.10502 0.19066 0.0
H55 H 0.85394 0.13034 0.24378 0.0
H56 H 0.86224 0.07409 0.29674 0.0
H57 H 0.83784 0.05622 0.22522 0.0
O58 O 0.38324 0.85077 0.11312 0.0
Tb59 Tb 0.41923 0.84722 0.09756 0.0
Eu60 Eu 0.42462 0.83543 0.16118 0.0
C61 C 0.37435 0.87018 0.12355 0.0
O62 O 0.38873 0.8881 0.12951 0.0
C63 C 0.41035 0.7985 0.12099 0.0
O64 O 0.46037 0.81638 0.16562 0.0
C65 C 0.40648 0.83944 0.20432 0.0
C66 C 0.47478 0.8123 0.14719 0.0
O67 O 0.46863 0.81984 0.12556 0.0
C68 C 0.456 0.87522 0.13125 0.0
C69 C 0.41585 0.84595 0.2284 0.0
C70 C 0.40029 0.85545 0.24617 0.0
C71 C 0.40894 0.85964 0.26973 0.0
C72 C 0.4332 0.85475 0.27519 0.0
C73 C 0.44884 0.84545 0.25764 0.0
C74 C 0.44014 0.84104 0.23426 0.0
O75 O 0.42292 0.80879 0.10377 0.0
O76 O 0.4009 0.81156 0.13834 0.0
O77 O 0.40877 0.87082 0.06746 0.0
O78 O 0.4212 0.83529 0.05987 0.0
C79 C 0.41303 0.8552 0.05039 0.0
O80 O 0.44214 0.87083 0.15015 0.0
O81 O 0.45222 0.86438 0.11037 0.0
O82 O 0.41512 0.81922 0.19543 0.0
O83 O 0.40491 0.85678 0.18813 0.0
H84 H 0.38149 0.85902 0.24191 0.0
H85 H 0.43991 0.85798 0.29336 0.0
H86 H 0.45225 0.83355 0.22077 0.0
O87 O 0.63539 0.38317 0.11672 0.0
Tb88 Tb 0.64835 0.41761 0.10255 0.0
Eu89 Eu 0.66523 0.42841 0.16674 0.0
C90 C 0.64627 0.37058 0.13366 0.0
O91 O 0.6621 0.38098 0.14787 0.0
C92 C 0.70261 0.41182 0.12281 0.0
O93 O 0.68141 0.46507 0.17306 0.0
C94 C 0.65988 0.40841 0.20896 0.0
C95 C 0.69043 0.47683 0.15453 0.0
O96 O 0.68694 0.46825 0.13266 0.0
C97 C 0.62647 0.45734 0.13597 0.0
C98 C 0.64911 0.41619 0.23209 0.0
C99 C 0.64212 0.39905 0.24958 0.0
C100 C 0.63586 0.40667 0.27307 0.0
C101 C 0.63659 0.43132 0.2788 0.0
C102 C 0.64291 0.4485 0.26141 0.0
C103 C 0.64856 0.44096 0.2379 0.0
O104 O 0.68721 0.41352 0.10472 0.0
O105 O 0.69688 0.41379 0.14582 0.0
O106 O 0.62376 0.4107 0.072 0.0
O107 O 0.66017 0.41976 0.06485 0.0
C108 C 0.63971 0.4138 0.055 0.0
O109 O 0.62903 0.44193 0.15373 0.0
O110 O 0.63723 0.4532 0.11519 0.0
O111 O 0.67903 0.42075 0.20249 0.0
O112 O 0.64517 0.40402 0.19082 0.0
H113 H 0.64241 0.37994 0.24527 0.0
H114 H 0.63239 0.43717 0.29706 0.0
H115 H 0.65386 0.45433 0.22457 0.0
O116 O 0.12901 0.85666 0.39216 0.0
Tb117 Tb 0.09353 0.85134 0.40833 0.0
Eu118 Eu 0.08829 0.84017 0.34301 0.0
C119 C 0.1369 0.87646 0.38168 0.0
O120 O 0.12177 0.89399 0.37646 0.0
C121 C 0.10505 0.80299 0.38365 0.0
O122 O 0.05134 0.82285 0.33872 0.0
C123 C 0.1069 0.84707 0.30029 0.0
C124 C 0.04071 0.81235 0.35722 0.0
O125 O 0.05176 0.81205 0.37817 0.0
C126 C 0.05571 0.87545 0.37378 0.0
C127 C 0.09875 0.85578 0.27643 0.0
C128 C 0.11569 0.86321 0.25882 0.0
C129 C 0.1079 0.86866 0.23516 0.0
C130 C 0.08331 0.867 0.22951 0.0
C131 C 0.06649 0.85968 0.2468 0.0
C132 C 0.0741 0.8543 0.27032 0.0
O133 O 0.09342 0.81293 0.40179 0.0
O134 O 0.11265 0.81577 0.3651 0.0
O135 O 0.10292 0.8745 0.43923 0.0
O136 O 0.0911 0.83854 0.44565 0.0
C137 C 0.09881 0.85829 0.45583 0.0
O138 O 0.07292 0.87532 0.35741 0.0
O139 O 0.05904 0.86465 0.39471 0.0
O140 O 0.09721 0.82659 0.30737 0.0
O141 O 0.10847 0.86308 0.3178 0.0
H142 H 0.13478 0.86392 0.2632 0.0
H143 H 0.07729 0.8706 0.21117 0.0
H144 H 0.06102 0.84795 0.28346 0.0
O145 O 0.64875 0.11879 0.39841 0.0
Tb146 Tb 0.65202 0.08417 0.41682 0.0
Eu147 Eu 0.66638 0.07454 0.35418 0.0
C148 C 0.62887 0.12739 0.38864 0.0
O149 O 0.61043 0.11297 0.38468 0.0
C150 C 0.70215 0.09278 0.39488 0.0
O151 O 0.68407 0.03794 0.35623 0.0
C152 C 0.66372 0.0873 0.30899 0.0
C153 C 0.70778 0.03623 0.35544 0.0
O154 O 0.72092 0.0559 0.35356 0.0
C155 C 0.62585 0.04594 0.38405 0.0
C156 C 0.65516 0.07541 0.28675 0.0
C157 C 0.65168 0.08874 0.26528 0.0
C158 C 0.64589 0.07675 0.24351 0.0
C159 C 0.64385 0.05147 0.24356 0.0
C160 C 0.64869 0.03812 0.26447 0.0
C161 C 0.65334 0.05009 0.28624 0.0
O162 O 0.69061 0.08168 0.41234 0.0
O163 O 0.69058 0.09952 0.37522 0.0
O164 O 0.62921 0.09735 0.44657 0.0
O165 O 0.66415 0.08359 0.45443 0.0
C166 C 0.64486 0.09329 0.46373 0.0
O167 O 0.62976 0.06058 0.36575 0.0
O168 O 0.63664 0.04985 0.40493 0.0
O169 O 0.6829 0.0773 0.31877 0.0
O170 O 0.64721 0.09324 0.32504 0.0
H171 H 0.65433 0.10815 0.26531 0.0
H172 H 0.64039 0.04199 0.22672 0.0
H173 H 0.6572 0.0396 0.30236 0.0
O174 O 0.37572 0.64152 0.38611 0.0
Tb175 Tb 0.40891 0.65481 0.4026 0.0
Eu176 Eu 0.42413 0.67078 0.33632 0.0
C177 C 0.36544 0.65096 0.3669 0.0
O178 O 0.37774 0.66526 0.35264 0.0
C179 C 0.40415 0.70842 0.37936 0.0
O180 O 0.46125 0.68659 0.33183 0.0
C181 C 0.40599 0.6653 0.29303 0.0
C182 C 0.47244 0.69507 0.35098 0.0
O183 O 0.46286 0.69128 0.37237 0.0
C184 C 0.4498 0.63387 0.37054 0.0
C185 C 0.41445 0.65677 0.26913 0.0
C186 C 0.39774 0.64787 0.25198 0.0
C187 C 0.40532 0.64284 0.22819 0.0
C188 C 0.42951 0.64652 0.22182 0.0
C189 C 0.44624 0.65515 0.23861 0.0
C190 C 0.43885 0.65992 0.2624 0.0
O191 O 0.40455 0.69354 0.39805 0.0
O192 O 0.40807 0.70222 0.35667 0.0
O193 O 0.40198 0.62987 0.43293 0.0
O194 O 0.40748 0.66692 0.4404 0.0
C195 C 0.40267 0.64603 0.45003 0.0
O196 O 0.43346 0.63482 0.35343 0.0
O197 O 0.44515 0.64405 0.3915 0.0
O198 O 0.41614 0.6852 0.30081 0.0
O199 O 0.40316 0.64922 0.31024 0.0
H200 H 0.37888 0.64567 0.25683 0.0
H201 H 0.43529 0.64312 0.20336 0.0
H202 H 0.45186 0.66695 0.27528 0.0
O203 O 0.86697 0.37358 0.38091 0.0
Tb204 Tb 0.85171 0.40725 0.39464 0.0
Eu205 Eu 0.8337 0.41634 0.33093 0.0
C206 C 0.85654 0.36019 0.36428 0.0
O207 O 0.8398 0.36951 0.3504 0.0
C208 C 0.79785 0.3971 0.37501 0.0
O209 O 0.81481 0.45201 0.32567 0.0
C210 C 0.83918 0.39598 0.28883 0.0
C211 C 0.80684 0.46358 0.34485 0.0
O212 O 0.81201 0.45488 0.36633 0.0
C213 C 0.8709 0.44811 0.36064 0.0
C214 C 0.85065 0.40334 0.26595 0.0
C215 C 0.85701 0.38614 0.24824 0.0
C216 C 0.8647 0.39388 0.22521 0.0
C217 C 0.86667 0.41863 0.2204 0.0
C218 C 0.86008 0.43574 0.23777 0.0
C219 C 0.85249 0.42809 0.26061 0.0
O220 O 0.81356 0.39906 0.39278 0.0
O221 O 0.80283 0.40037 0.352 0.0
O222 O 0.87566 0.4015 0.42592 0.0
O223 O 0.83924 0.41155 0.4319 0.0
C224 C 0.85944 0.40583 0.4424 0.0
O225 O 0.86936 0.43265 0.34273 0.0
O226 O 0.86095 0.44322 0.38164 0.0
O227 O 0.82034 0.40902 0.29493 0.0
O228 O 0.8535 0.39136 0.30724 0.0
H229 H 0.85488 0.36701 0.25189 0.0
H230 H 0.87207 0.42466 0.20252 0.0
H231 H 0.84688 0.44147 0.27382 0.0
O232 O 0.12374 0.12242 0.64959 0.0
Tb233 Tb 0.10547 0.08793 0.65328 0.0
Eu234 Eu 0.16654 0.07786 0.67457 0.0
C235 C 0.13191 0.13097 0.62901 0.0
O236 O 0.1353 0.11626 0.61068 0.0
C237 C 0.12289 0.09907 0.70599 0.0
O238 O 0.15922 0.04286 0.69453 0.0
C239 C 0.21224 0.08909 0.67667 0.0
C240 C 0.13706 0.03432 0.69585 0.0
O241 O 0.11968 0.0454 0.6843 0.0
C242 C 0.14168 0.04982 0.63139 0.0
C243 C 0.23564 0.0803 0.66698 0.0
C244 C 0.25305 0.09677 0.65814 0.0
C245 C 0.27599 0.08845 0.65067 0.0
C246 C 0.28107 0.0637 0.65145 0.0
C247 C 0.26409 0.04729 0.66034 0.0
C248 C 0.24143 0.05554 0.66806 0.0
O249 O 0.10571 0.08964 0.69249 0.0
O250 O 0.14445 0.10379 0.69699 0.0
O251 O 0.06667 0.08498 0.66052 0.0
O252 O 0.07822 0.10109 0.62768 0.0
C253 C 0.05945 0.09556 0.64081 0.0
O254 O 0.15884 0.06544 0.63634 0.0
O255 O 0.11921 0.05401 0.6381 0.0
O256 O 0.20135 0.07493 0.69232 0.0
O257 O 0.19716 0.0993 0.66139 0.0
H258 H 0.24909 0.11596 0.65773 0.0
H259 H 0.29877 0.05723 0.64596 0.0
H260 H 0.22857 0.04262 0.67524 0.0
O261 O 0.3846 0.11748 0.64748 0.0
Tb262 Tb 0.41763 0.09711 0.65518 0.0
Eu263 Eu 0.42469 0.16164 0.66801 0.0
C264 C 0.37002 0.11259 0.62928 0.0
O265 O 0.37744 0.09712 0.61286 0.0
C266 C 0.40515 0.12188 0.70315 0.0
O267 O 0.45698 0.16723 0.69243 0.0
C268 C 0.40556 0.20319 0.65735 0.0
C269 C 0.46914 0.14841 0.70041 0.0
O270 O 0.46166 0.12668 0.69468 0.0
C271 C 0.46219 0.129 0.63589 0.0
C272 C 0.41246 0.227 0.64772 0.0
C273 C 0.39424 0.24397 0.64217 0.0
C274 C 0.40047 0.26805 0.63699 0.0
C275 C 0.42482 0.27465 0.63618 0.0
C276 C 0.44289 0.2584 0.64291 0.0
C277 C 0.43684 0.23437 0.6482 0.0
O278 O 0.41735 0.10375 0.69387 0.0
O279 O 0.39807 0.13989 0.68957 0.0
O280 O 0.40995 0.06552 0.63204 0.0
O281 O 0.41518 0.06023 0.66955 0.0
C282 C 0.41039 0.04943 0.64923 0.0
O283 O 0.45025 0.14952 0.63849 0.0
O284 O 0.45358 0.10768 0.64248 0.0
O285 O 0.41469 0.19789 0.67865 0.0
O286 O 0.40541 0.18473 0.6423 0.0
H287 H 0.37535 0.23903 0.64392 0.0
H288 H 0.42957 0.29347 0.63317 0.0
H289 H 0.45079 0.22198 0.65423 0.0
O290 O 0.39506 0.37615 0.63715 0.0
Tb291 Tb 0.40825 0.40994 0.65298 0.0
Eu292 Eu 0.34192 0.42166 0.66843 0.0
C293 C 0.37435 0.36532 0.64131 0.0
O294 O 0.35708 0.37669 0.65277 0.0
C295 C 0.38274 0.39845 0.704 0.0
O296 O 0.34545 0.4586 0.68532 0.0
C297 C 0.29645 0.40928 0.66529 0.0
C298 C 0.34581 0.46084 0.709 0.0
O299 O 0.34422 0.44152 0.72268 0.0
C300 C 0.37344 0.44847 0.62973 0.0
C301 C 0.27286 0.4182 0.65634 0.0
C302 C 0.25545 0.40184 0.64717 0.0
C303 C 0.23201 0.41001 0.64126 0.0
C304 C 0.22644 0.43451 0.64403 0.0
C305 C 0.24349 0.45082 0.65304 0.0
C306 C 0.26667 0.44271 0.65916 0.0
O307 O 0.40195 0.40538 0.69158 0.0
O308 O 0.3607 0.39736 0.69509 0.0
O309 O 0.43891 0.39359 0.63389 0.0
O310 O 0.4465 0.41851 0.66143 0.0
C311 C 0.45632 0.40388 0.64578 0.0
O312 O 0.35691 0.43155 0.63166 0.0
O313 O 0.39529 0.4445 0.63843 0.0
O314 O 0.30583 0.42119 0.68356 0.0
O315 O 0.3127 0.40263 0.64931 0.0
H316 H 0.25982 0.38282 0.6454 0.0
H317 H 0.20838 0.44088 0.63972 0.0
H318 H 0.2796 0.45543 0.66664 0.0
O319 O 0.12598 0.39074 0.64162 0.0
Tb320 Tb 0.08872 0.40345 0.64434 0.0
Eu321 Eu 0.08673 0.3371 0.65735 0.0
C322 C 0.13663 0.38207 0.62222 0.0
O323 O 0.1237 0.37626 0.60316 0.0
C324 C 0.09972 0.37911 0.69246 0.0
O325 O 0.05233 0.33111 0.67862 0.0
C326 C 0.10757 0.29508 0.65303 0.0
C327 C 0.03675 0.34865 0.68239 0.0
O328 O 0.04071 0.36986 0.67256 0.0
C329 C 0.05397 0.36564 0.61885 0.0
C330 C 0.09871 0.27025 0.6494 0.0
C331 C 0.11457 0.25162 0.64221 0.0
C332 C 0.10607 0.22769 0.64048 0.0
C333 C 0.08179 0.2227 0.64564 0.0
C334 C 0.06599 0.24111 0.65265 0.0
C335 C 0.07441 0.26486 0.65454 0.0
O336 O 0.08623 0.39589 0.68256 0.0
O337 O 0.10996 0.36242 0.67911 0.0
O338 O 0.09932 0.43564 0.62364 0.0
O339 O 0.08053 0.44011 0.65676 0.0
C340 C 0.09087 0.45145 0.63893 0.0
O341 O 0.07109 0.34925 0.62127 0.0
O342 O 0.0567 0.3877 0.62749 0.0
O343 O 0.10158 0.30478 0.67379 0.0
O344 O 0.10499 0.31011 0.63485 0.0
H345 H 0.13337 0.2556 0.63838 0.0
H346 H 0.07516 0.20428 0.64438 0.0
H347 H 0.0621 0.27904 0.66023 0.0
O348 O 0.11112 0.38199 0.84756 0.0
Tb349 Tb 0.09348 0.41658 0.84085 0.0
Eu350 Eu 0.15512 0.424 0.82562 0.0
C351 C 0.11646 0.37315 0.86897 0.0
O352 O 0.11713 0.38758 0.88782 0.0
C353 C 0.1152 0.40011 0.79266 0.0
O354 O 0.154 0.45974 0.80506 0.0
C355 C 0.19944 0.40941 0.83004 0.0
C356 C 0.1359 0.46642 0.79103 0.0
O357 O 0.11732 0.45211 0.78819 0.0
C358 C 0.1271 0.45631 0.86256 0.0
C359 C 0.2226 0.41744 0.8402 0.0
C360 C 0.23975 0.39997 0.84706 0.0
C361 C 0.2631 0.40712 0.85388 0.0
C362 C 0.26887 0.4317 0.85478 0.0
C363 C 0.25205 0.44918 0.84775 0.0
C364 C 0.22877 0.44212 0.84066 0.0
O365 O 0.09717 0.41234 0.80215 0.0
O366 O 0.1347 0.39528 0.80519 0.0
O367 O 0.0552 0.41614 0.83111 0.0
O368 O 0.06536 0.40805 0.8673 0.0
C369 C 0.04725 0.4097 0.85229 0.0
O370 O 0.1441 0.43984 0.86158 0.0
O371 O 0.10622 0.45242 0.85182 0.0
O372 O 0.19143 0.42147 0.81119 0.0
O373 O 0.18239 0.40368 0.84554 0.0
H374 H 0.23555 0.38089 0.84545 0.0
H375 H 0.28721 0.43716 0.85919 0.0
H376 H 0.216 0.45565 0.83449 0.0
O377 O 0.13112 0.11864 0.86044 0.0
Tb378 Tb 0.09464 0.10411 0.86045 0.0
Eu379 Eu 0.08352 0.16439 0.83357 0.0
C380 C 0.14061 0.1323 0.8774 0.0
O381 O 0.127 0.14101 0.8948 0.0
C382 C 0.10414 0.11936 0.80812 0.0
O383 O 0.05643 0.16351 0.80321 0.0
C384 C 0.09946 0.2082 0.84026 0.0
C385 C 0.03473 0.17274 0.80598 0.0
O386 O 0.02936 0.18449 0.82589 0.0
C387 C 0.05024 0.13782 0.87629 0.0
C388 C 0.08983 0.23276 0.84446 0.0
C389 C 0.105 0.25146 0.85311 0.0
C390 C 0.09625 0.27539 0.85449 0.0
C391 C 0.07252 0.28028 0.8473 0.0
C392 C 0.05734 0.26191 0.83904 0.0
C393 C 0.06589 0.23815 0.83772 0.0
O394 O 0.09155 0.10429 0.8214 0.0
O395 O 0.1114 0.13973 0.81779 0.0
O396 O 0.10952 0.07416 0.88189 0.0
O397 O 0.08348 0.06657 0.85479 0.0
C398 C 0.0972 0.05708 0.87133 0.0
O399 O 0.05286 0.15364 0.85857 0.0
O400 O 0.06654 0.12136 0.88226 0.0
O401 O 0.09431 0.19898 0.81896 0.0
O402 O 0.09768 0.19232 0.85794 0.0
H403 H 0.1235 0.24755 0.85828 0.0
H404 H 0.06567 0.29865 0.84834 0.0
H405 H 0.05407 0.22406 0.83106 0.0
O406 O 0.38812 0.12207 0.85802 0.0
Tb407 Tb 0.40548 0.08768 0.8505 0.0
Eu408 Eu 0.34243 0.08139 0.83469 0.0
C409 C 0.37872 0.12861 0.87882 0.0
O410 O 0.37529 0.11245 0.89585 0.0
C411 C 0.38359 0.104 0.80256 0.0
O412 O 0.34224 0.04561 0.81414 0.0
C413 C 0.29885 0.09873 0.83856 0.0
C414 C 0.35715 0.04063 0.79615 0.0
O415 O 0.3726 0.05691 0.78886 0.0
C416 C 0.37102 0.04882 0.87346 0.0
C417 C 0.27438 0.09176 0.84627 0.0
C418 C 0.25759 0.10965 0.85324 0.0
C419 C 0.23356 0.10318 0.85847 0.0
C420 C 0.22653 0.07897 0.85661 0.0
C421 C 0.24319 0.06109 0.8502 0.0
C422 C 0.26721 0.06743 0.84532 0.0
O423 O 0.40079 0.09043 0.81176 0.0
O424 O 0.36458 0.10972 0.81543 0.0
O425 O 0.44373 0.08728 0.84024 0.0
O426 O 0.43424 0.09645 0.87627 0.0
C427 C 0.45214 0.09401 0.86117 0.0
O428 O 0.35229 0.06317 0.87008 0.0
O429 O 0.39225 0.05302 0.86355 0.0
O430 O 0.30709 0.08792 0.81905 0.0
O431 O 0.31529 0.10112 0.85556 0.0
H432 H 0.26305 0.12844 0.85424 0.0
H433 H 0.20794 0.07394 0.86038 0.0
H434 H 0.28006 0.05353 0.8402 0.0
O435 O 0.371 0.38963 0.87007 0.0
Tb436 Tb 0.40694 0.39983 0.85742 0.0
Eu437 Eu 0.41596 0.33373 0.84495 0.0
C438 C 0.3584 0.37125 0.86189 0.0
O439 O 0.36909 0.35425 0.84936 0.0
C440 C 0.40018 0.37557 0.80508 0.0
O441 O 0.45335 0.32807 0.83075 0.0
C442 C 0.39818 0.29041 0.8497 0.0
C443 C 0.46469 0.34682 0.82188 0.0
O444 O 0.4548 0.36828 0.82405 0.0
C445 C 0.44323 0.36624 0.88428 0.0
C446 C 0.40795 0.26691 0.85775 0.0
C447 C 0.39233 0.2486 0.86605 0.0
C448 C 0.40133 0.22517 0.87028 0.0
C449 C 0.42598 0.22044 0.86693 0.0
C450 C 0.44168 0.23847 0.85878 0.0
C451 C 0.43268 0.26174 0.85436 0.0
O452 O 0.40416 0.3945 0.81889 0.0
O453 O 0.39978 0.35305 0.8128 0.0
O454 O 0.40045 0.43346 0.87764 0.0
O455 O 0.41435 0.43547 0.84207 0.0
C456 C 0.407 0.44809 0.86043 0.0
O457 O 0.42761 0.34857 0.88143 0.0
O458 O 0.44081 0.38627 0.87182 0.0
O459 O 0.4078 0.29866 0.82975 0.0
O460 O 0.39501 0.30736 0.86604 0.0
H461 H 0.37318 0.25221 0.86813 0.0
H462 H 0.4329 0.20232 0.86992 0.0
H463 H 0.44481 0.27554 0.84754 0.0
O464 O 0.63158 0.10514 0.12941 0.0
Tb465 Tb 0.64879 0.09765 0.09437 0.0
Eu466 Eu 0.66316 0.16344 0.08647 0.0
C467 C 0.64067 0.11821 0.14711 0.0
O468 O 0.65508 0.13628 0.14235 0.0
C469 C 0.69853 0.12308 0.10794 0.0
O470 O 0.68493 0.16594 0.05197 0.0
C471 C 0.65712 0.20717 0.10275 0.0
C472 C 0.68982 0.14712 0.03828 0.0
O473 O 0.68031 0.12608 0.04368 0.0
C474 C 0.6266 0.13231 0.05496 0.0
C475 C 0.648 0.23063 0.09424 0.0
C476 C 0.64438 0.24946 0.111 0.0
C477 C 0.64019 0.27312 0.10278 0.0
C478 C 0.63858 0.2776 0.07796 0.0
C479 C 0.64276 0.25917 0.06117 0.0
C480 C 0.64717 0.2356 0.0693 0.0
O481 O 0.68735 0.10443 0.09834 0.0
O482 O 0.68812 0.14398 0.11191 0.0
O483 O 0.62828 0.06472 0.10208 0.0
O484 O 0.66291 0.06129 0.08675 0.0
C485 C 0.64463 0.04931 0.09534 0.0
O486 O 0.62763 0.14934 0.07147 0.0
O487 O 0.63541 0.1107 0.05961 0.0
O488 O 0.67681 0.19963 0.09194 0.0
O489 O 0.64135 0.18981 0.10648 0.0
H490 H 0.64679 0.24616 0.13017 0.0
H491 H 0.63632 0.29604 0.07163 0.0
H492 H 0.65154 0.22158 0.05631 0.0
O493 O 0.64105 0.38107 0.37852 0.0
Tb494 Tb 0.64731 0.40115 0.4118 0.0
Eu495 Eu 0.6633 0.33584 0.41713 0.0
C496 C 0.62029 0.38157 0.36692 0.0
O497 O 0.60225 0.39335 0.37692 0.0
C498 C 0.69765 0.37932 0.4008 0.0
O499 O 0.68107 0.33178 0.45369 0.0
C500 C 0.65861 0.29237 0.39958 0.0
C501 C 0.6852 0.35078 0.46725 0.0
O502 O 0.68088 0.37194 0.45755 0.0
C503 C 0.62538 0.36495 0.44863 0.0
C504 C 0.65239 0.26886 0.41048 0.0
C505 C 0.64563 0.2489 0.39606 0.0
C506 C 0.64182 0.22611 0.40685 0.0
C507 C 0.64453 0.22366 0.43192 0.0
C508 C 0.65095 0.24342 0.44629 0.0
C509 C 0.65479 0.26597 0.43562 0.0
O510 O 0.68603 0.39625 0.41276 0.0
O511 O 0.6867 0.35947 0.39346 0.0
O512 O 0.6237 0.43232 0.40381 0.0
O513 O 0.66059 0.43842 0.4122 0.0
C514 C 0.64035 0.44882 0.40638 0.0
O515 O 0.62706 0.34917 0.43093 0.0
O516 O 0.63406 0.38695 0.44593 0.0
O517 O 0.67924 0.30149 0.40694 0.0
O518 O 0.6413 0.30861 0.39859 0.0
H519 H 0.64383 0.25092 0.37665 0.0
H520 H 0.64185 0.20614 0.44033 0.0
H521 H 0.66031 0.28108 0.44683 0.0
O522 O 0.11484 0.64998 0.37514 0.0
Tb523 Tb 0.09691 0.65315 0.41019 0.0
Eu524 Eu 0.1599 0.66482 0.41783 0.0
C525 C 0.12817 0.63187 0.3674 0.0
O526 O 0.13469 0.61463 0.38235 0.0
C527 C 0.12036 0.70196 0.4015 0.0
O528 O 0.16297 0.68618 0.45224 0.0
C529 C 0.20313 0.65924 0.40052 0.0
C530 C 0.14395 0.69027 0.46581 0.0
O531 O 0.12285 0.68138 0.45958 0.0
C532 C 0.12927 0.62432 0.44915 0.0
C533 C 0.2274 0.65076 0.40733 0.0
C534 C 0.24515 0.64943 0.38922 0.0
C535 C 0.2695 0.64655 0.39553 0.0
C536 C 0.276 0.64467 0.41986 0.0
C537 C 0.25855 0.64511 0.43819 0.0
C538 C 0.23402 0.64783 0.43182 0.0
O539 O 0.10282 0.69165 0.41364 0.0
O540 O 0.1384 0.68907 0.39318 0.0
O541 O 0.06744 0.63543 0.39044 0.0
O542 O 0.05854 0.66025 0.41797 0.0
C543 C 0.04957 0.64585 0.40163 0.0
O544 O 0.14971 0.63174 0.43938 0.0
O545 O 0.10798 0.63241 0.44194 0.0
O546 O 0.19579 0.67886 0.41168 0.0
O547 O 0.18593 0.64308 0.39739 0.0
H548 H 0.24028 0.65212 0.37041 0.0
H549 H 0.295 0.64324 0.42462 0.0
H550 H 0.22038 0.64891 0.44586 0.0
O551 O 0.85694 0.11758 0.3751 0.0
Tb552 Tb 0.85815 0.10226 0.41108 0.0
Eu553 Eu 0.83309 0.16122 0.42213 0.0
C554 C 0.87394 0.13156 0.36622 0.0
O555 O 0.89109 0.13988 0.38039 0.0
C556 C 0.80431 0.11567 0.40609 0.0
O557 O 0.80652 0.17353 0.45044 0.0
C558 C 0.85135 0.19846 0.40043 0.0
C559 C 0.7993 0.15739 0.46632 0.0
O560 O 0.80643 0.1349 0.46379 0.0
C561 C 0.87525 0.13504 0.45401 0.0
C562 C 0.8609 0.22214 0.40766 0.0
C563 C 0.86402 0.24009 0.38992 0.0
C564 C 0.86753 0.26426 0.39682 0.0
C565 C 0.86927 0.27009 0.42135 0.0
C566 C 0.86601 0.25247 0.43912 0.0
C567 C 0.86203 0.22837 0.43232 0.0
O568 O 0.81953 0.10146 0.41738 0.0
O569 O 0.81151 0.13682 0.3984 0.0
O570 O 0.87666 0.07177 0.39363 0.0
O571 O 0.85521 0.06535 0.4248 0.0
C572 C 0.86848 0.05525 0.40827 0.0
O573 O 0.85536 0.14805 0.45348 0.0
O574 O 0.88215 0.12079 0.4362 0.0
O575 O 0.8281 0.19573 0.40452 0.0
O576 O 0.86428 0.17924 0.40603 0.0
H577 H 0.8615 0.23571 0.37097 0.0
H578 H 0.87105 0.28891 0.42669 0.0
H579 H 0.85807 0.21496 0.44606 0.0
O580 O 0.39117 0.86176 0.37448 0.0
Tb581 Tb 0.40502 0.86101 0.41118 0.0
Eu582 Eu 0.34291 0.83735 0.41994 0.0
C583 C 0.38132 0.88071 0.36412 0.0
O584 O 0.37534 0.89964 0.37715 0.0
C585 C 0.38716 0.80998 0.4006 0.0
O586 O 0.3411 0.80696 0.44685 0.0
C587 C 0.29982 0.84739 0.40374 0.0
C588 C 0.33088 0.81021 0.46803 0.0
O589 O 0.32023 0.83082 0.47298 0.0
C590 C 0.37063 0.87873 0.45375 0.0
C591 C 0.27556 0.85403 0.41282 0.0
C592 C 0.25733 0.86133 0.39647 0.0
C593 C 0.23342 0.86464 0.40463 0.0
C594 C 0.22798 0.86083 0.42901 0.0
C595 C 0.24587 0.85388 0.44541 0.0
C596 C 0.26971 0.85065 0.43736 0.0
O597 O 0.4018 0.8222 0.4147 0.0
O598 O 0.36734 0.82027 0.39264 0.0
O599 O 0.43663 0.87836 0.39465 0.0
O600 O 0.44198 0.85454 0.42413 0.0
C601 C 0.45287 0.86786 0.4081 0.0
O602 O 0.35492 0.86097 0.45103 0.0
O603 O 0.38733 0.88451 0.43763 0.0
O604 O 0.3071 0.8255 0.40947 0.0
O605 O 0.31719 0.86367 0.40519 0.0
H606 H 0.26153 0.86373 0.37749 0.0
H607 H 0.20953 0.86313 0.4353 0.0
H608 H 0.28342 0.84487 0.45002 0.0
O609 O 0.85696 0.38093 0.11816 0.0
Tb610 Tb 0.85557 0.40613 0.08791 0.0
Eu611 Eu 0.83065 0.34885 0.077 0.0
C612 C 0.87714 0.37615 0.12984 0.0
O613 O 0.8973 0.38544 0.12141 0.0
C614 C 0.80231 0.39383 0.09659 0.0
O615 O 0.80164 0.33985 0.04985 0.0
C616 C 0.84715 0.30856 0.09418 0.0
C617 C 0.79458 0.35694 0.03493 0.0
O618 O 0.80357 0.37877 0.03737 0.0
C619 C 0.86684 0.37793 0.03877 0.0
C620 C 0.85595 0.28694 0.0815 0.0
C621 C 0.85733 0.26441 0.0934 0.0
C622 C 0.86157 0.24313 0.07999 0.0
C623 C 0.86468 0.24484 0.05486 0.0
C624 C 0.86114 0.26677 0.04286 0.0
C625 C 0.85795 0.28797 0.05619 0.0
O626 O 0.81664 0.40853 0.08478 0.0
O627 O 0.80983 0.37221 0.10269 0.0
O628 O 0.84785 0.44489 0.09068 0.0
O629 O 0.88071 0.43181 0.10519 0.0
C630 C 0.86736 0.45101 0.10222 0.0
O631 O 0.8521 0.36 0.04417 0.0
O632 O 0.872 0.39615 0.05343 0.0
O633 O 0.82401 0.31277 0.0907 0.0
O634 O 0.86061 0.32817 0.09224 0.0
H635 H 0.85351 0.26324 0.11258 0.0
H636 H 0.86673 0.22845 0.04426 0.0
H637 H 0.85465 0.30484 0.04674 0.0
O638 O 0.12028 0.86312 0.13002 0.0
Tb639 Tb 0.10448 0.86074 0.09401 0.0
Eu640 Eu 0.16589 0.84072 0.0897 0.0
C641 C 0.13222 0.88165 0.13892 0.0
O642 O 0.13921 0.89924 0.12461 0.0
C643 C 0.12092 0.80861 0.10564 0.0
O644 O 0.16239 0.82245 0.05343 0.0
C645 C 0.21073 0.83919 0.10395 0.0
C646 C 0.16016 0.79881 0.05217 0.0
O647 O 0.16048 0.7859 0.07207 0.0
C648 C 0.14244 0.88198 0.05789 0.0
C649 C 0.23439 0.84677 0.0941 0.0
C650 C 0.2535 0.8535 0.10967 0.0
C651 C 0.27661 0.8585 0.10012 0.0
C652 C 0.28023 0.85717 0.0751 0.0
C653 C 0.2614 0.8507 0.05958 0.0
C654 C 0.23849 0.84565 0.06901 0.0
O655 O 0.10531 0.82179 0.09357 0.0
O656 O 0.14145 0.81808 0.11326 0.0
O657 O 0.07542 0.88587 0.10434 0.0
O658 O 0.06644 0.85229 0.08817 0.0
C659 C 0.05765 0.87213 0.09717 0.0
O660 O 0.15881 0.87812 0.07467 0.0
O661 O 0.12023 0.87395 0.06049 0.0
O662 O 0.19997 0.82157 0.09219 0.0
O663 O 0.1957 0.85637 0.11062 0.0
H664 H 0.25063 0.85418 0.12904 0.0
H665 H 0.29806 0.86063 0.06766 0.0
H666 H 0.22412 0.84015 0.05684 0.0
O667 O 0.39738 0.64473 0.12579 0.0
Tb668 Tb 0.41294 0.64923 0.08992 0.0
Eu669 Eu 0.34868 0.6672 0.08318 0.0
C670 C 0.38353 0.62693 0.13321 0.0
O671 O 0.37581 0.61047 0.11793 0.0
C672 C 0.39108 0.69798 0.10352 0.0
O673 O 0.34184 0.69228 0.05161 0.0
C674 C 0.30714 0.65592 0.1019 0.0
C675 C 0.35925 0.70586 0.0428 0.0
O676 O 0.38013 0.70667 0.05392 0.0
C677 C 0.37912 0.62988 0.04622 0.0
C678 C 0.28274 0.65032 0.09293 0.0
C679 C 0.26355 0.64657 0.10931 0.0
C680 C 0.23953 0.64569 0.10082 0.0
C681 C 0.23512 0.64814 0.07602 0.0
C682 C 0.25409 0.65119 0.05963 0.0
C683 C 0.27795 0.65207 0.06804 0.0
O684 O 0.40739 0.688 0.08948 0.0
O685 O 0.37242 0.68545 0.11072 0.0
O686 O 0.44503 0.63091 0.10471 0.0
O687 O 0.44984 0.66042 0.08079 0.0
C688 C 0.461 0.6447 0.09424 0.0
O689 O 0.35973 0.64221 0.05279 0.0
O690 O 0.39948 0.62867 0.05883 0.0
O691 O 0.31408 0.67823 0.09757 0.0
O692 O 0.32431 0.63982 0.09799 0.0
H693 H 0.26714 0.64529 0.12854 0.0
H694 H 0.21666 0.64768 0.06935 0.0
H695 H 0.29261 0.65502 0.05536 0.0
O696 O 0.86902 0.37332 0.87719 0.0
Tb697 Tb 0.90212 0.35728 0.8916 0.0
Eu698 Eu 0.91786 0.33383 0.82856 0.0
C699 C 0.85486 0.36348 0.86087 0.0
O700 O 0.86378 0.34811 0.84525 0.0
C701 C 0.89854 0.30389 0.87254 0.0
O702 O 0.94837 0.30704 0.82891 0.0
C703 C 0.90319 0.33999 0.78423 0.0
C704 C 0.96955 0.31207 0.81946 0.0
O705 O 0.97308 0.33295 0.80876 0.0
C706 C 0.95008 0.37263 0.86142 0.0
C707 C 0.91286 0.3479 0.76056 0.0
C708 C 0.89695 0.35578 0.74221 0.0
C709 C 0.90574 0.36032 0.71873 0.0
C710 C 0.9304 0.35742 0.71394 0.0
C711 C 0.94636 0.34986 0.73196 0.0
C712 C 0.93764 0.34513 0.75528 0.0
O713 O 0.90749 0.31833 0.88918 0.0
O714 O 0.89229 0.31215 0.85125 0.0
O715 O 0.8909 0.34565 0.92787 0.0
O716 O 0.90572 0.3806 0.92367 0.0
C717 C 0.89656 0.36546 0.93912 0.0
O718 O 0.94382 0.36307 0.84041 0.0
O719 O 0.93748 0.37145 0.8817 0.0
O720 O 0.91221 0.31965 0.79254 0.0
O721 O 0.90009 0.35645 0.8012 0.0
H722 H 0.87778 0.35757 0.7459 0.0
H723 H 0.93722 0.36071 0.69583 0.0
H724 H 0.95 0.33865 0.76897 0.0
O725 O 0.13967 0.88315 0.90467 0.0
Tb726 Tb 0.15286 0.91961 0.91216 0.0
Eu727 Eu 0.16075 0.92696 0.84586 0.0
C728 C 0.14294 0.87031 0.88495 0.0
O729 O 0.14922 0.88076 0.86469 0.0
C730 C 0.20119 0.90846 0.88351 0.0
O731 O 0.17821 0.96344 0.84804 0.0
C732 C 0.15599 0.91408 0.80087 0.0
C733 C 0.20158 0.96569 0.84484 0.0
O734 O 0.21477 0.9465 0.84022 0.0
C735 C 0.12603 0.95678 0.87887 0.0
C736 C 0.14416 0.91893 0.77746 0.0
C737 C 0.14576 0.90118 0.7594 0.0
C738 C 0.13925 0.90674 0.73564 0.0
C739 C 0.13009 0.92961 0.73025 0.0
C740 C 0.12708 0.9477 0.74802 0.0
C741 C 0.13505 0.94208 0.77177 0.0
O742 O 0.19091 0.91888 0.90231 0.0
O743 O 0.18983 0.90427 0.86306 0.0
O744 O 0.13302 0.91731 0.94647 0.0
O745 O 0.17099 0.92172 0.94736 0.0
C746 C 0.1518 0.91867 0.96056 0.0
O747 O 0.12559 0.9396 0.86244 0.0
O748 O 0.13843 0.95383 0.89896 0.0
O749 O 0.17146 0.93042 0.80841 0.0
O750 O 0.14322 0.9043 0.81839 0.0
H751 H 0.15388 0.88378 0.76335 0.0
H752 H 0.127 0.93353 0.71132 0.0
H753 H 0.13567 0.95547 0.78583 0.0
O754 O 0.63048 0.14724 0.8917 0.0
Tb755 Tb 0.59398 0.14673 0.9063 0.0
Eu756 Eu 0.58306 0.16947 0.84241 0.0
C757 C 0.64034 0.12989 0.8788 0.0
O758 O 0.62676 0.11259 0.86985 0.0
C759 C 0.59772 0.19936 0.88829 0.0
O760 O 0.55188 0.19457 0.83497 0.0
C761 C 0.60308 0.15947 0.80107 0.0
C762 C 0.5366 0.19855 0.85267 0.0
O763 O 0.54067 0.18866 0.8738 0.0
C764 C 0.55034 0.12805 0.87216 0.0
C765 C 0.59479 0.15259 0.77662 0.0
C766 C 0.61178 0.14672 0.75851 0.0
C767 C 0.60409 0.14299 0.7345 0.0
C768 C 0.57943 0.1443 0.72904 0.0
C769 C 0.56238 0.15013 0.74676 0.0
C770 C 0.57009 0.15442 0.77058 0.0
O771 O 0.58753 0.18512 0.90422 0.0
O772 O 0.60651 0.19022 0.86822 0.0
O773 O 0.60788 0.12606 0.93741 0.0
O774 O 0.58521 0.15626 0.94373 0.0
C775 C 0.59772 0.1393 0.95406 0.0
O776 O 0.55445 0.1427 0.85376 0.0
O777 O 0.56429 0.12533 0.89144 0.0
O778 O 0.59685 0.18138 0.8078 0.0
O779 O 0.60077 0.14335 0.81849 0.0
H780 H 0.63088 0.14591 0.76284 0.0
H781 H 0.57346 0.1414 0.71056 0.0
H782 H 0.55699 0.1596 0.78422 0.0
O783 O 0.36004 0.61961 0.88048 0.0
Tb784 Tb 0.35502 0.58618 0.90077 0.0
Eu785 Eu 0.33633 0.58275 0.83892 0.0
C786 C 0.34855 0.63885 0.88848 0.0
O787 O 0.33398 0.63649 0.90707 0.0
C788 C 0.3038 0.59573 0.88332 0.0
O789 O 0.31025 0.55231 0.83273 0.0
C790 C 0.34417 0.60225 0.79684 0.0
C791 C 0.30649 0.53637 0.84985 0.0
O792 O 0.31823 0.53819 0.87041 0.0
C793 C 0.3787 0.5475 0.8648 0.0
C794 C 0.35155 0.59264 0.77299 0.0
C795 C 0.35673 0.60838 0.75357 0.0
C796 C 0.36053 0.59898 0.73015 0.0
C797 C 0.35905 0.574 0.72642 0.0
C798 C 0.35425 0.55819 0.74553 0.0
C799 C 0.3509 0.56749 0.76891 0.0
O800 O 0.31623 0.58129 0.89741 0.0
O801 O 0.3145 0.60565 0.86462 0.0
O802 O 0.3728 0.60725 0.92951 0.0
O803 O 0.3523 0.57679 0.93942 0.0
C804 C 0.3652 0.5946 0.9478 0.0
O805 O 0.3653 0.55484 0.8464 0.0
O806 O 0.37684 0.55673 0.88675 0.0
O807 O 0.32286 0.5948 0.80417 0.0
O808 O 0.36047 0.60219 0.81425 0.0
H809 H 0.35723 0.62775 0.75649 0.0
H810 H 0.3616 0.56674 0.70836 0.0
H811 H 0.34685 0.55525 0.78367 0.0
O812 O 0.88356 0.15177 0.61242 0.0
Tb813 Tb 0.91971 0.1539 0.59687 0.0
Eu814 Eu 0.92507 0.16977 0.65805 0.0
C815 C 0.87332 0.13256 0.6219 0.0
O816 O 0.88638 0.11336 0.62686 0.0
C817 C 0.90844 0.20335 0.61677 0.0
O818 O 0.95503 0.19726 0.66024 0.0
C819 C 0.90693 0.16249 0.7005 0.0
C820 C 0.97702 0.19178 0.66725 0.0
O821 O 0.98163 0.17016 0.67587 0.0
C822 C 0.96155 0.13159 0.62991 0.0
C823 C 0.91576 0.15419 0.72405 0.0
C824 C 0.89909 0.15008 0.74277 0.0
C825 C 0.90736 0.14647 0.76645 0.0
C826 C 0.93225 0.1465 0.77117 0.0
C827 C 0.94887 0.15162 0.75289 0.0
C828 C 0.94071 0.15471 0.72912 0.0
O829 O 0.92304 0.19258 0.60156 0.0
O830 O 0.89953 0.19128 0.63502 0.0
O831 O 0.90427 0.13326 0.56691 0.0
O832 O 0.92694 0.16325 0.55919 0.0
C833 C 0.91359 0.14636 0.54974 0.0
O834 O 0.95295 0.14095 0.65006 0.0
O835 O 0.95164 0.13428 0.60844 0.0
O836 O 0.91597 0.18329 0.69347 0.0
O837 O 0.90547 0.14633 0.68304 0.0
H838 H 0.87985 0.15154 0.7393 0.0
H839 H 0.93857 0.14497 0.7897 0.0
H840 H 0.95353 0.15939 0.71508 0.0
O841 O 0.35841 0.87616 0.61212 0.0
Tb842 Tb 0.35416 0.91372 0.60023 0.0
Eu843 Eu 0.34534 0.91349 0.66259 0.0
C844 C 0.37815 0.86528 0.61977 0.0
O845 O 0.39765 0.87796 0.62454 0.0
C846 C 0.30777 0.89658 0.62398 0.0
O847 O 0.32577 0.94911 0.66048 0.0
C848 C 0.34842 0.89979 0.70736 0.0
C849 C 0.30252 0.95082 0.66498 0.0
O850 O 0.29006 0.93158 0.67092 0.0
C851 C 0.38071 0.94925 0.63603 0.0
C852 C 0.35698 0.90941 0.73068 0.0
C853 C 0.36155 0.89333 0.74984 0.0
C854 C 0.36542 0.90229 0.77329 0.0
C855 C 0.36583 0.92727 0.77725 0.0
C856 C 0.3615 0.94341 0.75836 0.0
C857 C 0.35727 0.93451 0.73499 0.0
O858 O 0.31602 0.91314 0.60907 0.0
O859 O 0.32205 0.88795 0.64085 0.0
O860 O 0.37488 0.90318 0.56818 0.0
O861 O 0.34229 0.92266 0.56346 0.0
C862 C 0.36001 0.91203 0.55216 0.0
O863 O 0.38046 0.93158 0.65192 0.0
O864 O 0.36944 0.94689 0.61523 0.0
O865 O 0.32948 0.91079 0.69821 0.0
O866 O 0.3648 0.89408 0.69107 0.0
H867 H 0.36027 0.87399 0.74694 0.0
H868 H 0.36822 0.93417 0.79548 0.0
H869 H 0.35315 0.94703 0.72055 0.0
O870 O 0.63261 0.36636 0.60858 0.0
Tb871 Tb 0.59576 0.35939 0.59662 0.0
Eu872 Eu 0.57226 0.34472 0.67252 0.0
C873 C 0.64084 0.36495 0.63084 0.0
O874 O 0.62604 0.36223 0.64916 0.0
C875 C 0.5982 0.31346 0.63066 0.0
O876 O 0.53831 0.32254 0.67447 0.0
C877 C 0.58947 0.35994 0.7136 0.0
C878 C 0.52738 0.31737 0.65399 0.0
O879 O 0.53541 0.32718 0.63397 0.0
C880 C 0.55843 0.38072 0.62803 0.0
C881 C 0.58383 0.35866 0.73956 0.0
C882 C 0.60098 0.36621 0.75692 0.0
C883 C 0.59469 0.36669 0.78156 0.0
C884 C 0.57127 0.36034 0.78849 0.0
C885 C 0.55429 0.35249 0.7715 0.0
C886 C 0.56082 0.35098 0.74706 0.0
O887 O 0.58489 0.32532 0.61459 0.0
O888 O 0.59882 0.31992 0.6537 0.0
O889 O 0.60076 0.37633 0.56127 0.0
O890 O 0.59408 0.33859 0.56281 0.0
C891 C 0.59843 0.35676 0.54848 0.0
O892 O 0.57482 0.37073 0.64205 0.0
O893 O 0.56572 0.38316 0.60578 0.0
O894 O 0.59645 0.33971 0.70327 0.0
O895 O 0.57415 0.37239 0.7003 0.0
H896 H 0.61891 0.3718 0.75134 0.0
H897 H 0.56624 0.36137 0.80744 0.0
H898 H 0.54769 0.34485 0.73383 0.0
O899 O 0.14058 0.62843 0.61259 0.0
Tb900 Tb 0.14125 0.59238 0.5971 0.0
Eu901 Eu 0.16256 0.58566 0.65903 0.0
C902 C 0.12344 0.63696 0.62665 0.0
O903 O 0.1066 0.6225 0.63505 0.0
C904 C 0.19376 0.60024 0.61402 0.0
O905 O 0.18943 0.55689 0.66864 0.0
C906 C 0.15024 0.60577 0.69959 0.0
C907 C 0.19498 0.54087 0.65212 0.0
O908 O 0.18519 0.54247 0.63056 0.0
C909 C 0.1206 0.5511 0.63264 0.0
C910 C 0.14261 0.59652 0.72338 0.0
C911 C 0.1428 0.61203 0.74363 0.0
C912 C 0.13921 0.60258 0.76695 0.0
C913 C 0.13543 0.57777 0.76983 0.0
C914 C 0.13603 0.56206 0.75007 0.0
C915 C 0.13911 0.57148 0.72669 0.0
O916 O 0.18006 0.58782 0.59916 0.0
O917 O 0.18447 0.60891 0.63405 0.0
O918 O 0.12253 0.60855 0.56585 0.0
O919 O 0.14825 0.58084 0.55985 0.0
C920 C 0.13353 0.59583 0.54934 0.0
O921 O 0.13736 0.55506 0.64922 0.0
O922 O 0.11824 0.5645 0.613 0.0
O923 O 0.17263 0.60035 0.6939 0.0
O924 O 0.13505 0.60318 0.68137 0.0
H925 H 0.14696 0.63105 0.74141 0.0
H926 H 0.13349 0.5704 0.78792 0.0
H927 H 0.14017 0.55928 0.71139 0.0
O928 O 0.89123 0.87887 0.35756 0.0
Tb929 Tb 0.90872 0.91397 0.35669 0.0
Eu930 Eu 0.84586 0.92272 0.33714 0.0
C931 C 0.87599 0.87159 0.37421 0.0
O932 O 0.86761 0.88695 0.39026 0.0
C933 C 0.89071 0.90796 0.30496 0.0
O934 O 0.83704 0.95402 0.31274 0.0
C935 C 0.80503 0.90157 0.34698 0.0
C936 C 0.85401 0.96973 0.30751 0.0
O937 O 0.87588 0.96662 0.3162 0.0
C938 C 0.87492 0.95601 0.37895 0.0
C939 C 0.7807 0.90917 0.35483 0.0
C940 C 0.76269 0.89168 0.35928 0.0
C941 C 0.73866 0.89893 0.36346 0.0
C942 C 0.73284 0.92353 0.36319 0.0
C943 C 0.75053 0.94106 0.35898 0.0
C944 C 0.77458 0.93389 0.3551 0.0
O945 O 0.90595 0.92016 0.31834 0.0
O946 O 0.87047 0.89979 0.31428 0.0
O947 O 0.93877 0.90019 0.37894 0.0
O948 O 0.94658 0.91785 0.34585 0.0
C949 C 0.95601 0.90697 0.3644 0.0
O950 O 0.85576 0.95014 0.36584 0.0
O951 O 0.89599 0.94493 0.37723 0.0
O952 O 0.81112 0.90912 0.32533 0.0
O953 O 0.8228 0.90326 0.36278 0.0
H954 H 0.76716 0.87261 0.35883 0.0
H955 H 0.71424 0.92911 0.36607 0.0
H956 H 0.78826 0.94744 0.3514 0.0
O957 O 0.63357 0.88459 0.35691 0.0
Tb958 Tb 0.59696 0.89883 0.35809 0.0
Eu959 Eu 0.58539 0.83662 0.33487 0.0
C960 C 0.64301 0.87009 0.3732 0.0
O961 O 0.62911 0.8599 0.38951 0.0
C962 C 0.60081 0.88225 0.30487 0.0
O963 O 0.55692 0.82532 0.30806 0.0
C964 C 0.6053 0.79724 0.35124 0.0
C965 C 0.54133 0.8419 0.30136 0.0
O966 O 0.54385 0.86399 0.3096 0.0
C967 C 0.55224 0.86677 0.37465 0.0
C968 C 0.59588 0.7733 0.35844 0.0
C969 C 0.6116 0.7548 0.36656 0.0
C970 C 0.60261 0.73123 0.3705 0.0
C971 C 0.57805 0.72662 0.36671 0.0
C972 C 0.56243 0.74466 0.35848 0.0
C973 C 0.5713 0.76802 0.3544 0.0
O974 O 0.59099 0.8983 0.31932 0.0
O975 O 0.60924 0.8619 0.31384 0.0
O976 O 0.6131 0.92874 0.37878 0.0
O977 O 0.58515 0.9364 0.35374 0.0
C978 C 0.60017 0.94589 0.36914 0.0
O979 O 0.55411 0.8507 0.35711 0.0
O980 O 0.56984 0.88161 0.38115 0.0
O981 O 0.60268 0.80212 0.32813 0.0
O982 O 0.59989 0.81578 0.36526 0.0
H983 H 0.63069 0.75847 0.36903 0.0
H984 H 0.57111 0.70846 0.3694 0.0
H985 H 0.55929 0.78181 0.34732 0.0
O986 O 0.61188 0.62452 0.36246 0.0
Tb987 Tb 0.59457 0.58929 0.35811 0.0
Eu988 Eu 0.65608 0.58233 0.34265 0.0
C989 C 0.62148 0.63309 0.38248 0.0
O990 O 0.6257 0.61852 0.40074 0.0
C991 C 0.61498 0.60232 0.30779 0.0
O992 O 0.65096 0.54648 0.32423 0.0
C993 C 0.70155 0.59389 0.34269 0.0
C994 C 0.65067 0.5449 0.30055 0.0
O995 O 0.6532 0.56443 0.28731 0.0
C996 C 0.62907 0.55022 0.38037 0.0
C997 C 0.72524 0.585 0.35109 0.0
C998 C 0.74302 0.60184 0.35806 0.0
C999 C 0.76677 0.59414 0.36263 0.0
C1000 C 0.77243 0.56956 0.36112 0.0
C1001 C 0.75513 0.55269 0.35373 0.0
C1002 C 0.73142 0.56035 0.34895 0.0
O1003 O 0.59786 0.59066 0.31931 0.0
O1004 O 0.63527 0.60796 0.31886 0.0
O1005 O 0.5643 0.60237 0.38026 0.0
O1006 O 0.557 0.58398 0.34734 0.0
C1007 C 0.54729 0.59518 0.36558 0.0
O1008 O 0.64586 0.56693 0.37907 0.0
O1009 O 0.60762 0.55432 0.37096 0.0
O1010 O 0.69114 0.58126 0.32546 0.0
O1011 O 0.68628 0.60201 0.35904 0.0
H1012 H 0.73885 0.62099 0.35832 0.0
H1013 H 0.79099 0.56376 0.36386 0.0
H1014 H 0.71827 0.54735 0.34244 0.0
O1015 O 0.87377 0.60673 0.37979 0.0
Tb1016 Tb 0.90915 0.59419 0.36813 0.0
Eu1017 Eu 0.93219 0.66982 0.35277 0.0
C1018 C 0.863 0.62582 0.37068 0.0
O1019 O 0.87553 0.64163 0.35821 0.0
C1020 C 0.90916 0.62711 0.31613 0.0
O1021 O 0.9676 0.67693 0.33492 0.0
C1022 C 0.9118 0.70999 0.36589 0.0
C1023 C 0.97809 0.65841 0.32458 0.0
O1024 O 0.96847 0.63688 0.32714 0.0
C1025 C 0.94698 0.62585 0.38662 0.0
C1026 C 0.91664 0.73601 0.36256 0.0
C1027 C 0.89766 0.75284 0.36486 0.0
C1028 C 0.90245 0.77771 0.36304 0.0
C1029 C 0.92597 0.78558 0.35815 0.0
C1030 C 0.94517 0.76917 0.35675 0.0
C1031 C 0.94044 0.74431 0.35869 0.0
O1032 O 0.90874 0.60776 0.33058 0.0
O1033 O 0.91389 0.64999 0.32196 0.0
O1034 O 0.89671 0.55937 0.38235 0.0
O1035 O 0.91664 0.55994 0.34962 0.0
C1036 C 0.90538 0.54615 0.36495 0.0
O1037 O 0.92943 0.63937 0.37825 0.0
O1038 O 0.94099 0.60332 0.38905 0.0
O1039 O 0.90514 0.69787 0.34652 0.0
O1040 O 0.92743 0.6982 0.37943 0.0
H1041 H 0.87949 0.74672 0.36892 0.0
H1042 H 0.92969 0.80483 0.35722 0.0
H1043 H 0.95532 0.73156 0.35797 0.0
O1044 O 0.89223 0.62534 0.14669 0.0
Tb1045 Tb 0.9081 0.59291 0.16258 0.0
Eu1046 Eu 0.8445 0.58152 0.17949 0.0
C1047 C 0.87514 0.63828 0.1569 0.0
O1048 O 0.86215 0.629 0.17432 0.0
C1049 C 0.88729 0.60254 0.2163 0.0
O1050 O 0.83887 0.54596 0.19771 0.0
C1051 C 0.80201 0.60072 0.17226 0.0
C1052 C 0.85821 0.53502 0.20591 0.0
O1053 O 0.87915 0.54605 0.20422 0.0
C1054 C 0.87741 0.54713 0.14443 0.0
C1055 C 0.77803 0.5943 0.16206 0.0
C1056 C 0.76191 0.61265 0.15444 0.0
C1057 C 0.73791 0.60677 0.14802 0.0
C1058 C 0.7305 0.58265 0.14866 0.0
C1059 C 0.74603 0.56439 0.1565 0.0
C1060 C 0.76986 0.57016 0.16306 0.0
O1061 O 0.90554 0.59991 0.20118 0.0
O1062 O 0.8644 0.59887 0.21076 0.0
O1063 O 0.93861 0.60397 0.13941 0.0
O1064 O 0.94608 0.58842 0.17337 0.0
C1065 C 0.95583 0.59786 0.15422 0.0
O1066 O 0.85645 0.55808 0.14794 0.0
O1067 O 0.89838 0.55656 0.15075 0.0
O1068 O 0.80815 0.58875 0.19181 0.0
O1069 O 0.82027 0.60405 0.1573 0.0
H1070 H 0.76762 0.63138 0.15449 0.0
H1071 H 0.71195 0.57813 0.14404 0.0
H1072 H 0.78167 0.55601 0.16975 0.0
O1073 O 0.88063 0.89177 0.13768 0.0
Tb1074 Tb 0.91489 0.90656 0.15088 0.0
Eu1075 Eu 0.93015 0.84216 0.1669 0.0
C1076 C 0.86821 0.87484 0.14884 0.0
O1077 O 0.87903 0.86062 0.16436 0.0
C1078 C 0.90988 0.88416 0.20455 0.0
O1079 O 0.96488 0.83749 0.18743 0.0
C1080 C 0.91384 0.79841 0.16148 0.0
C1081 C 0.97785 0.85589 0.19471 0.0
O1082 O 0.97129 0.87779 0.18828 0.0
C1083 C 0.95812 0.87594 0.13066 0.0
C1084 C 0.9185 0.77556 0.14843 0.0
C1085 C 0.90013 0.75813 0.14833 0.0
C1086 C 0.90565 0.73414 0.14281 0.0
C1087 C 0.92901 0.72799 0.13545 0.0
C1088 C 0.94768 0.74524 0.13317 0.0
C1089 C 0.94216 0.76911 0.14101 0.0
O1090 O 0.91098 0.90264 0.18958 0.0
O1091 O 0.91294 0.86134 0.19842 0.0
O1092 O 0.90812 0.93826 0.12771 0.0
O1093 O 0.91464 0.9435 0.16502 0.0
C1094 C 0.90954 0.95435 0.14485 0.0
O1095 O 0.9434 0.85739 0.13128 0.0
O1096 O 0.95168 0.89658 0.14053 0.0
O1097 O 0.93049 0.8046 0.17713 0.0
O1098 O 0.90453 0.81693 0.14977 0.0
H1099 H 0.88229 0.7626 0.15514 0.0
H1100 H 0.93274 0.70891 0.13318 0.0
H1101 H 0.95598 0.78259 0.14319 0.0
O1102 O 0.61921 0.87386 0.14948 0.0
Tb1103 Tb 0.60264 0.90936 0.14989 0.0
Eu1104 Eu 0.66105 0.91922 0.17593 0.0
C1105 C 0.63551 0.86675 0.13374 0.0
O1106 O 0.64447 0.88207 0.118 0.0
C1107 C 0.61557 0.89816 0.20187 0.0
O1108 O 0.66509 0.9478 0.20453 0.0
C1109 C 0.7033 0.90287 0.16341 0.0
C1110 C 0.66085 0.94372 0.22753 0.0
O1111 O 0.65615 0.92178 0.23518 0.0
C1112 C 0.6356 0.9527 0.1336 0.0
C1113 C 0.72705 0.91196 0.1553 0.0
C1114 C 0.74615 0.89544 0.15165 0.0
C1115 C 0.76977 0.90391 0.14745 0.0
C1116 C 0.77397 0.92876 0.14618 0.0
C1117 C 0.75536 0.94534 0.15015 0.0
C1118 C 0.73175 0.937 0.15451 0.0
O1119 O 0.60383 0.91407 0.18886 0.0
O1120 O 0.63722 0.89193 0.19443 0.0
O1121 O 0.57264 0.89209 0.13023 0.0
O1122 O 0.56498 0.92074 0.15451 0.0
C1123 C 0.55548 0.90509 0.13975 0.0
O1124 O 0.64924 0.95099 0.1531 0.0
O1125 O 0.62036 0.93573 0.12669 0.0
O1126 O 0.69742 0.90845 0.18578 0.0
O1127 O 0.68501 0.90448 0.14817 0.0
H1128 H 0.74299 0.87619 0.15353 0.0
H1129 H 0.79232 0.9353 0.14372 0.0
H1130 H 0.71747 0.94983 0.15849 0.0
O1131 O 0.63364 0.62058 0.15246 0.0
Tb1132 Tb 0.59727 0.60529 0.15343 0.0
Eu1133 Eu 0.58957 0.66593 0.17133 0.0
C1134 C 0.64291 0.63367 0.13491 0.0
O1135 O 0.62888 0.64209 0.1177 0.0
C1136 C 0.60469 0.6236 0.20508 0.0
O1137 O 0.55614 0.66103 0.19383 0.0
C1138 C 0.6043 0.71042 0.17266 0.0
C1139 C 0.53567 0.6716 0.18813 0.0
O1140 O 0.5345 0.68547 0.1689 0.0
C1141 C 0.55969 0.64038 0.12695 0.0
C1142 C 0.59775 0.73435 0.16292 0.0
C1143 C 0.61613 0.75045 0.15577 0.0
C1144 C 0.61026 0.77415 0.1488 0.0
C1145 C 0.58604 0.78145 0.14847 0.0
C1146 C 0.56763 0.76559 0.15524 0.0
C1147 C 0.57344 0.74201 0.16243 0.0
O1148 O 0.59274 0.6079 0.192 0.0
O1149 O 0.61346 0.64305 0.1948 0.0
O1150 O 0.61103 0.57456 0.13235 0.0
O1151 O 0.58884 0.56798 0.16293 0.0
C1152 C 0.60115 0.55786 0.1457 0.0
O1153 O 0.57036 0.65984 0.13567 0.0
O1154 O 0.56545 0.6185 0.13439 0.0
O1155 O 0.58916 0.70108 0.18841 0.0
O1156 O 0.61324 0.69441 0.15745 0.0
H1157 H 0.63492 0.74486 0.15633 0.0
H1158 H 0.58147 0.7998 0.14322 0.0
H1159 H 0.55908 0.72992 0.16801 0.0
O1160 O 0.35348 0.89938 0.8826 0.0
Tb1161 Tb 0.34744 0.90779 0.92078 0.0
Eu1162 Eu 0.33583 0.84458 0.92207 0.0
C1163 C 0.36096 0.87936 0.8723 0.0
O1164 O 0.36673 0.86051 0.88542 0.0
C1165 C 0.29985 0.88457 0.90623 0.0
O1166 O 0.31791 0.84792 0.95851 0.0
C1167 C 0.33559 0.80005 0.90727 0.0
C1168 C 0.29474 0.84346 0.96143 0.0
O1169 O 0.28148 0.83659 0.94303 0.0
C1170 C 0.37443 0.8706 0.95425 0.0
C1171 C 0.34325 0.77601 0.9153 0.0
C1172 C 0.34619 0.75754 0.89811 0.0
C1173 C 0.35022 0.73372 0.90576 0.0
C1174 C 0.35162 0.72862 0.93047 0.0
C1175 C 0.34952 0.74701 0.94768 0.0
C1176 C 0.34553 0.77081 0.94008 0.0
O1177 O 0.30912 0.89953 0.92219 0.0
O1178 O 0.31334 0.86729 0.89731 0.0
O1179 O 0.37168 0.93844 0.91509 0.0
O1180 O 0.33537 0.94543 0.92479 0.0
C1181 C 0.35588 0.95543 0.91894 0.0
O1182 O 0.3726 0.85492 0.9365 0.0
O1183 O 0.36324 0.89158 0.95314 0.0
O1184 O 0.31804 0.80986 0.91984 0.0
O1185 O 0.35264 0.81544 0.90126 0.0
H1186 H 0.34448 0.76146 0.87897 0.0
H1187 H 0.35451 0.71013 0.93638 0.0
H1188 H 0.3436 0.78503 0.9534 0.0
O1189 O 0.35161 0.61112 0.62316 0.0
Tb1190 Tb 0.34872 0.59403 0.58779 0.0
Eu1191 Eu 0.33133 0.65974 0.57919 0.0
C1192 C 0.37101 0.6216 0.63203 0.0
O1193 O 0.38902 0.62722 0.61763 0.0
C1194 C 0.29697 0.61531 0.59567 0.0
O1195 O 0.31332 0.66231 0.54256 0.0
C1196 C 0.33575 0.70341 0.59677 0.0
C1197 C 0.30578 0.64249 0.53185 0.0
O1198 O 0.31014 0.6217 0.54226 0.0
C1199 C 0.36958 0.63007 0.54906 0.0
C1200 C 0.34316 0.72755 0.58774 0.0
C1201 C 0.35208 0.74553 0.60371 0.0
C1202 C 0.35675 0.76915 0.59513 0.0
C1203 C 0.35236 0.77444 0.57081 0.0
C1204 C 0.34397 0.75679 0.55484 0.0
C1205 C 0.33972 0.73328 0.56316 0.0
O1206 O 0.30981 0.5974 0.58665 0.0
O1207 O 0.30718 0.63593 0.60224 0.0
O1208 O 0.37395 0.56483 0.59788 0.0
O1209 O 0.3384 0.5558 0.58673 0.0
C1210 C 0.35883 0.54705 0.59446 0.0
O1211 O 0.36783 0.64641 0.5662 0.0
O1212 O 0.36146 0.608 0.55294 0.0
O1213 O 0.3157 0.69477 0.58744 0.0
O1214 O 0.35261 0.68683 0.599 0.0
H1215 H 0.35498 0.74132 0.62263 0.0
H1216 H 0.35561 0.79261 0.56415 0.0
H1217 H 0.3331 0.71971 0.55064 0.0
O1218 O 0.89318 0.35403 0.61357 0.0
Tb1219 Tb 0.90831 0.34926 0.57754 0.0
Eu1220 Eu 0.84325 0.33524 0.57358 0.0
C1221 C 0.88254 0.37352 0.62201 0.0
O1222 O 0.8767 0.39122 0.60731 0.0
C1223 C 0.88485 0.30085 0.59067 0.0
O1224 O 0.84207 0.31218 0.53984 0.0
C1225 C 0.79929 0.33753 0.59036 0.0
C1226 C 0.86098 0.30819 0.52601 0.0
O1227 O 0.88141 0.31921 0.53078 0.0
C1228 C 0.8715 0.37366 0.54138 0.0
C1229 C 0.77448 0.34544 0.58445 0.0
C1230 C 0.75814 0.34973 0.60353 0.0
C1231 C 0.73358 0.35388 0.5986 0.0
C1232 C 0.72546 0.35371 0.57471 0.0
C1233 C 0.74136 0.34969 0.55549 0.0
C1234 C 0.76608 0.34592 0.5603 0.0
O1235 O 0.90152 0.31075 0.577 0.0
O1236 O 0.86648 0.31342 0.59887 0.0
O1237 O 0.93973 0.37115 0.58832 0.0
O1238 O 0.94557 0.3367 0.57254 0.0
C1239 C 0.95616 0.35547 0.582 0.0
O1240 O 0.85488 0.3714 0.55821 0.0
O1241 O 0.89345 0.36486 0.54448 0.0
O1242 O 0.80772 0.31938 0.57767 0.0
O1243 O 0.8157 0.35405 0.5951 0.0
H1244 H 0.76428 0.34901 0.62214 0.0
H1245 H 0.70636 0.35648 0.57103 0.0
H1246 H 0.77843 0.3425 0.54547 0.0
O1247 O 0.14561 0.89618 0.62672 0.0
Tb1248 Tb 0.15886 0.90477 0.5906 0.0
Eu1249 Eu 0.16876 0.83876 0.58279 0.0
C1250 C 0.14826 0.87602 0.63896 0.0
O1251 O 0.15517 0.85612 0.62821 0.0
C1252 C 0.20786 0.87728 0.6024 0.0
O1253 O 0.18371 0.842 0.54509 0.0
C1254 C 0.1645 0.79363 0.59524 0.0
C1255 C 0.20699 0.83936 0.54123 0.0
O1256 O 0.22138 0.83398 0.55934 0.0
C1257 C 0.13232 0.87051 0.55454 0.0
C1258 C 0.15356 0.77044 0.58788 0.0
C1259 C 0.14554 0.75415 0.60577 0.0
C1260 C 0.13831 0.73065 0.5993 0.0
C1261 C 0.13838 0.72389 0.57494 0.0
C1262 C 0.14622 0.73986 0.55704 0.0
C1263 C 0.15375 0.76318 0.56346 0.0
O1264 O 0.19729 0.89611 0.59223 0.0
O1265 O 0.1968 0.85662 0.60625 0.0
O1266 O 0.13665 0.9376 0.59336 0.0
O1267 O 0.17443 0.94124 0.58914 0.0
C1268 C 0.15432 0.95304 0.59222 0.0
O1269 O 0.13274 0.85478 0.57227 0.0
O1270 O 0.14474 0.89069 0.55652 0.0
O1271 O 0.18183 0.80196 0.58131 0.0
O1272 O 0.15015 0.81064 0.60363 0.0
H1273 H 0.14595 0.75931 0.62468 0.0
H1274 H 0.13313 0.70565 0.56991 0.0
H1275 H 0.16048 0.77525 0.54956 0.0
O1276 O 0.62248 0.15972 0.63009 0.0
Tb1277 Tb 0.60518 0.16456 0.59514 0.0
Eu1278 Eu 0.66781 0.18021 0.59102 0.0
C1279 C 0.63176 0.13924 0.63774 0.0
O1280 O 0.63666 0.12202 0.62215 0.0
C1281 C 0.62484 0.21493 0.60617 0.0
O1282 O 0.6722 0.20255 0.55721 0.0
C1283 C 0.71147 0.17499 0.6078 0.0
C1284 C 0.65445 0.20585 0.54185 0.0
O1285 O 0.63322 0.19641 0.54658 0.0
C1286 C 0.63991 0.14171 0.55681 0.0
C1287 C 0.73442 0.16677 0.59679 0.0
C1288 C 0.75359 0.1582 0.61129 0.0
C1289 C 0.77603 0.15235 0.60068 0.0
C1290 C 0.77887 0.15466 0.57562 0.0
C1291 C 0.75995 0.1629 0.56101 0.0
C1292 C 0.73773 0.16893 0.5716 0.0
O1293 O 0.60872 0.20343 0.59305 0.0
O1294 O 0.64398 0.20362 0.61479 0.0
O1295 O 0.56623 0.17219 0.59674 0.0
O1296 O 0.57854 0.13651 0.60358 0.0
C1297 C 0.55957 0.1504 0.60266 0.0
O1298 O 0.65791 0.14493 0.57211 0.0
O1299 O 0.6184 0.15104 0.56074 0.0
O1300 O 0.70304 0.19538 0.59912 0.0
O1301 O 0.69448 0.15867 0.61095 0.0
H1302 H 0.75131 0.15666 0.63069 0.0
H1303 H 0.79615 0.1503 0.5674 0.0
H1304 H 0.72322 0.17568 0.56027 0.0
O1305 O 0.13466 0.61642 0.87865 0.0
Tb1306 Tb 0.14968 0.60002 0.9114 0.0
Eu1307 Eu 0.1705 0.66188 0.92792 0.0
C1308 C 0.14507 0.63311 0.86536 0.0
O1309 O 0.16184 0.64687 0.87473 0.0
C1310 C 0.20369 0.61934 0.9053 0.0
O1311 O 0.18973 0.66121 0.96368 0.0
C1312 C 0.16594 0.70654 0.91405 0.0
C1313 C 0.21347 0.66086 0.96452 0.0
O1314 O 0.22604 0.66148 0.9444 0.0
C1315 C 0.13281 0.62911 0.95821 0.0
C1316 C 0.1564 0.72975 0.92311 0.0
C1317 C 0.15359 0.74926 0.90696 0.0
C1318 C 0.14869 0.77255 0.91587 0.0
C1319 C 0.1468 0.77619 0.94081 0.0
C1320 C 0.1502 0.7572 0.95709 0.0
C1321 C 0.15409 0.73372 0.9482 0.0
O1322 O 0.1891 0.60181 0.91209 0.0
O1323 O 0.19716 0.64212 0.90427 0.0
O1324 O 0.12486 0.56918 0.90637 0.0
O1325 O 0.16244 0.56324 0.9041 0.0
C1326 C 0.14142 0.55299 0.90227 0.0
O1327 O 0.13644 0.64976 0.94689 0.0
O1328 O 0.13807 0.60805 0.94828 0.0
O1329 O 0.18478 0.69817 0.92582 0.0
O1330 O 0.15035 0.68959 0.90796 0.0
H1331 H 0.15659 0.74666 0.88777 0.0
H1332 H 0.14423 0.7944 0.94769 0.0
H1333 H 0.15716 0.71903 0.9608 0.0
O1334 O 0.89648 0.14273 0.87502 0.0
Tb1335 Tb 0.90419 0.1505 0.91276 0.0
Eu1336 Eu 0.84271 0.17683 0.9274 0.0
C1337 C 0.87624 0.14653 0.86327 0.0
O1338 O 0.85659 0.15319 0.87472 0.0
C1339 C 0.88594 0.20334 0.90115 0.0
O1340 O 0.84003 0.20597 0.95564 0.0
C1341 C 0.80014 0.16398 0.912 0.0
C1342 C 0.84315 0.22897 0.95055 0.0
O1343 O 0.84595 0.236 0.92806 0.0
C1344 C 0.87063 0.13345 0.95665 0.0
C1345 C 0.77637 0.15472 0.91976 0.0
C1346 C 0.75915 0.14823 0.90205 0.0
C1347 C 0.73531 0.14251 0.90884 0.0
C1348 C 0.72904 0.1428 0.9333 0.0
C1349 C 0.74589 0.14911 0.95103 0.0
C1350 C 0.76967 0.155 0.94434 0.0
O1351 O 0.90239 0.18991 0.9118 0.0
O1352 O 0.86383 0.19535 0.89858 0.0
O1353 O 0.93623 0.13199 0.89869 0.0
O1354 O 0.94066 0.15603 0.92801 0.0
C1355 C 0.95206 0.1422 0.9127 0.0
O1356 O 0.85759 0.15337 0.95706 0.0
O1357 O 0.88494 0.12714 0.93851 0.0
O1358 O 0.80553 0.18597 0.91925 0.0
O1359 O 0.81875 0.14908 0.91241 0.0
H1360 H 0.76397 0.14852 0.88305 0.0
H1361 H 0.71058 0.13871 0.93858 0.0
H1362 H 0.78255 0.16058 0.95803 0.0
O1363 O 0.605 0.35759 0.8853 0.0
Tb1364 Tb 0.5892 0.35316 0.92112 0.0
Eu1365 Eu 0.65263 0.33674 0.92288 0.0
C1366 C 0.61748 0.3763 0.87766 0.0
O1367 O 0.62461 0.39295 0.89302 0.0
C1368 C 0.60841 0.30249 0.90828 0.0
O1369 O 0.66057 0.31398 0.95571 0.0
C1370 C 0.69426 0.3429 0.90204 0.0
C1371 C 0.6434 0.30696 0.97044 0.0
O1372 O 0.62107 0.31376 0.96615 0.0
C1373 C 0.62644 0.37462 0.95834 0.0
C1374 C 0.7182 0.35062 0.9106 0.0
C1375 C 0.73675 0.35522 0.89386 0.0
C1376 C 0.76028 0.36008 0.90206 0.0
C1377 C 0.76495 0.36093 0.92694 0.0
C1378 C 0.74684 0.35555 0.94375 0.0
C1379 C 0.72336 0.3506 0.93555 0.0
O1380 O 0.59208 0.31449 0.92047 0.0
O1381 O 0.62792 0.31347 0.90022 0.0
O1382 O 0.55797 0.37508 0.90989 0.0
O1383 O 0.5521 0.34195 0.92831 0.0
C1384 C 0.54156 0.36005 0.91771 0.0
O1385 O 0.64313 0.37205 0.94163 0.0
O1386 O 0.60439 0.3663 0.95503 0.0
O1387 O 0.6869 0.32216 0.91077 0.0
O1388 O 0.67719 0.3594 0.90175 0.0
H1389 H 0.73325 0.35368 0.87463 0.0
H1390 H 0.78332 0.36389 0.93321 0.0
H1391 H 0.70946 0.34571 0.94847 0.0
C1392 C 0.09177 0.74596 0.10245 0.0
C1393 C 0.10656 0.73237 0.11847 0.0
C1394 C 0.12616 0.77024 0.13034 0.0
C1395 C 0.11532 0.78254 0.11053 0.0
N1396 N 0.09304 0.77738 0.07277 0.0
N1397 N 0.14366 0.73224 0.14199 0.0
C1398 C 0.09961 0.76912 0.09506 0.0
C1399 C 0.12551 0.74464 0.13085 0.0
N1400 N 0.0698 0.73762 0.09489 0.0
N1401 N 0.1361 0.78262 0.14925 0.0
H1402 H 0.14583 0.71368 0.14 0.0
H1403 H 0.1584 0.74091 0.14997 0.0
H1404 H 0.13419 0.80123 0.15135 0.0
H1405 H 0.14295 0.77387 0.1645 0.0
H1406 H 0.05809 0.74815 0.08449 0.0
H1407 H 0.06186 0.72201 0.10165 0.0
H1408 H 0.08289 0.76695 0.06075 0.0
H1409 H 0.10045 0.79267 0.06487 0.0
C1410 C 0.73135 0.108 0.13505 0.0
C1411 C 0.72438 0.12035 0.11387 0.0
C1412 C 0.76562 0.11876 0.09827 0.0
C1413 C 0.77271 0.10518 0.11899 0.0
N1414 N 0.76184 0.08473 0.15607 0.0
N1415 N 0.7361 0.14589 0.08084 0.0
C1416 C 0.75548 0.09948 0.13729 0.0
C1417 C 0.74186 0.12819 0.09706 0.0
N1418 N 0.71522 0.10602 0.15362 0.0
N1419 N 0.7811 0.12214 0.07931 0.0
H1420 H 0.71913 0.15399 0.08044 0.0
H1421 H 0.74871 0.15439 0.06974 0.0
H1422 H 0.79894 0.11634 0.07912 0.0
H1423 H 0.77566 0.12911 0.06268 0.0
H1424 H 0.71943 0.09918 0.17063 0.0
H1425 H 0.69808 0.11383 0.15275 0.0
H1426 H 0.74959 0.0775 0.16838 0.0
H1427 H 0.77925 0.07806 0.15838 0.0
C1428 C 0.41703 0.75508 0.13155 0.0
C1429 C 0.40364 0.77282 0.11879 0.0
C1430 C 0.37738 0.74132 0.10244 0.0
C1431 C 0.3938 0.72351 0.11106 0.0
N1432 N 0.42929 0.71314 0.13428 0.0
N1433 N 0.3715 0.78323 0.09121 0.0
C1434 C 0.41368 0.73031 0.12576 0.0
C1435 C 0.38387 0.76607 0.10401 0.0
N1436 N 0.43225 0.76188 0.14978 0.0
N1437 N 0.35535 0.73478 0.0934 0.0
H1438 H 0.37504 0.8017 0.09274 0.0
H1439 H 0.35886 0.77903 0.07788 0.0
H1440 H 0.3495 0.71694 0.09251 0.0
H1441 H 0.34185 0.74719 0.08911 0.0
H1442 H 0.44092 0.7497 0.16122 0.0
H1443 H 0.43439 0.77986 0.15491 0.0
H1444 H 0.44572 0.71728 0.14252 0.0
H1445 H 0.42635 0.69463 0.13207 0.0
C1446 C 0.73896 0.42169 0.09729 0.0
C1447 C 0.72858 0.4085 0.11677 0.0
C1448 C 0.76878 0.39333 0.12681 0.0
C1449 C 0.77773 0.40158 0.10425 0.0
N1450 N 0.76913 0.42148 0.06597 0.0
N1451 N 0.73398 0.37781 0.14771 0.0
C1452 C 0.76231 0.41529 0.08888 0.0
C1453 C 0.74356 0.39321 0.13095 0.0
N1454 N 0.72723 0.44112 0.0875 0.0
N1455 N 0.78435 0.38657 0.14474 0.0
H1456 H 0.71551 0.37589 0.1507 0.0
H1457 H 0.74441 0.36495 0.15673 0.0
H1458 H 0.80305 0.38858 0.14319 0.0
H1459 H 0.77852 0.38222 0.16213 0.0
H1460 H 0.73526 0.4525 0.07481 0.0
H1461 H 0.71095 0.4478 0.09422 0.0
H1462 H 0.75719 0.42925 0.05361 0.0
H1463 H 0.78556 0.41672 0.05825 0.0
C1464 C 0.0989 0.75993 0.37156 0.0
C1465 C 0.11167 0.77725 0.38553 0.0
C1466 C 0.134 0.74489 0.40574 0.0
C1467 C 0.11842 0.7277 0.39474 0.0
N1468 N 0.08568 0.71833 0.36744 0.0
N1469 N 0.14089 0.78684 0.41645 0.0
C1470 C 0.10078 0.73506 0.37765 0.0
C1471 C 0.12916 0.76991 0.40274 0.0
N1472 N 0.08535 0.76723 0.35222 0.0
N1473 N 0.15363 0.73734 0.41871 0.0
H1474 H 0.13907 0.80539 0.41358 0.0
H1475 H 0.15141 0.78258 0.43147 0.0
H1476 H 0.15784 0.71918 0.42112 0.0
H1477 H 0.16693 0.74896 0.42524 0.0
H1478 H 0.07748 0.75534 0.33992 0.0
H1479 H 0.0839 0.78527 0.34705 0.0
H1480 H 0.07047 0.72291 0.35734 0.0
H1481 H 0.08756 0.69977 0.37015 0.0
C1482 C 0.76682 0.09197 0.41858 0.0
C1483 C 0.77851 0.10851 0.4027 0.0
C1484 C 0.73915 0.11795 0.38515 0.0
C1485 C 0.72842 0.09827 0.39766 0.0
N1486 N 0.73641 0.06107 0.41975 0.0
N1487 N 0.77537 0.12968 0.36429 0.0
C1488 C 0.74349 0.08352 0.41242 0.0
C1489 C 0.76462 0.11922 0.38389 0.0
N1490 N 0.77687 0.08503 0.44004 0.0
N1491 N 0.72553 0.13615 0.37555 0.0
H1492 H 0.79384 0.12823 0.36084 0.0
H1493 H 0.76535 0.13652 0.34983 0.0
H1494 H 0.7071 0.138 0.37894 0.0
H1495 H 0.73334 0.15126 0.3674 0.0
H1496 H 0.76758 0.0742 0.45237 0.0
H1497 H 0.79253 0.09255 0.4472 0.0
H1498 H 0.74793 0.04949 0.4292 0.0
H1499 H 0.72078 0.05272 0.4135 0.0
C1500 C 0.40215 0.76853 0.41259 0.0
C1501 C 0.39203 0.78416 0.39491 0.0
C1502 C 0.38657 0.74938 0.36808 0.0
C1503 C 0.3999 0.73456 0.38441 0.0
N1504 N 0.42801 0.73405 0.41817 0.0
N1505 N 0.38197 0.78993 0.3527 0.0
C1506 C 0.40999 0.74526 0.40551 0.0
C1507 C 0.38638 0.77477 0.37169 0.0
N1508 N 0.40342 0.77516 0.43633 0.0
N1509 N 0.37334 0.73954 0.34968 0.0
H1510 H 0.38367 0.80865 0.35397 0.0
H1511 H 0.37976 0.78371 0.33503 0.0
H1512 H 0.3716 0.72104 0.34682 0.0
H1513 H 0.36179 0.74984 0.33889 0.0
H1514 H 0.40901 0.76326 0.44986 0.0
H1515 H 0.39605 0.79115 0.4429 0.0
H1516 H 0.43687 0.74236 0.43261 0.0
H1517 H 0.43637 0.71821 0.41232 0.0
C1518 C 0.73241 0.37617 0.37123 0.0
C1519 C 0.72336 0.38365 0.39409 0.0
C1520 C 0.76198 0.40348 0.40212 0.0
C1521 C 0.77233 0.39203 0.38159 0.0
N1522 N 0.76767 0.36223 0.34973 0.0
N1523 N 0.73315 0.3988 0.43417 0.0
C1524 C 0.75769 0.37672 0.36705 0.0
C1525 C 0.73918 0.39562 0.41045 0.0
N1526 N 0.71703 0.37004 0.35291 0.0
N1527 N 0.77302 0.42273 0.413 0.0
H1528 H 0.71752 0.39175 0.44178 0.0
H1529 H 0.74526 0.40578 0.44686 0.0
H1530 H 0.78857 0.43092 0.40621 0.0
H1531 H 0.76482 0.43258 0.42684 0.0
H1532 H 0.72304 0.36618 0.33546 0.0
H1533 H 0.69837 0.3722 0.35419 0.0
H1534 H 0.75759 0.34945 0.3402 0.0
H1535 H 0.78624 0.36092 0.34687 0.0
C1536 C 0.10037 0.091 0.7453 0.0
C1537 C 0.11771 0.10467 0.73203 0.0
C1538 C 0.12933 0.12422 0.77001 0.0
C1539 C 0.10888 0.11418 0.78195 0.0
N1540 N 0.07015 0.09411 0.77627 0.0
N1541 N 0.14285 0.1407 0.73207 0.0
C1542 C 0.09288 0.09941 0.76827 0.0
C1543 C 0.13049 0.12326 0.7444 0.0
N1544 N 0.09181 0.06938 0.73706 0.0
N1545 N 0.14828 0.13355 0.78277 0.0
H1546 H 0.14185 0.14266 0.71336 0.0
H1547 H 0.15115 0.15521 0.74083 0.0
H1548 H 0.14978 0.13183 0.80146 0.0
H1549 H 0.16401 0.13971 0.77438 0.0
H1550 H 0.08041 0.05849 0.74742 0.0
H1551 H 0.09864 0.06067 0.7219 0.0
H1552 H 0.05772 0.08464 0.76568 0.0
H1553 H 0.06254 0.10196 0.79157 0.0
C1554 C 0.37712 0.10531 0.73456 0.0
C1555 C 0.39664 0.12061 0.72838 0.0
C1556 C 0.40487 0.1285 0.77107 0.0
C1557 C 0.38574 0.1127 0.77736 0.0
N1558 N 0.34799 0.09412 0.76513 0.0
N1559 N 0.42184 0.1542 0.74007 0.0
C1560 C 0.36994 0.1037 0.75914 0.0
C1561 C 0.40828 0.13461 0.74642 0.0
N1562 N 0.3656 0.09218 0.71705 0.0
N1563 N 0.41975 0.13767 0.78856 0.0
H1564 H 0.42341 0.15988 0.72221 0.0
H1565 H 0.42923 0.1662 0.75258 0.0
H1566 H 0.41674 0.13501 0.807 0.0
H1567 H 0.4357 0.14691 0.78466 0.0
H1568 H 0.35315 0.07858 0.7209 0.0
H1569 H 0.36952 0.09395 0.69868 0.0
H1570 H 0.33496 0.08939 0.75236 0.0
H1571 H 0.34183 0.09291 0.78286 0.0
C1572 C 0.37454 0.37199 0.7408 0.0
C1573 C 0.38624 0.39222 0.72996 0.0
C1574 C 0.40932 0.39856 0.76708 0.0
C1575 C 0.39558 0.38042 0.77901 0.0
N1576 N 0.36069 0.35383 0.77798 0.0
N1577 N 0.40825 0.42948 0.73661 0.0
C1578 C 0.37696 0.36816 0.76612 0.0
C1579 C 0.40173 0.4069 0.7442 0.0
N1580 N 0.3616 0.35595 0.72716 0.0
N1581 N 0.43017 0.4074 0.777 0.0
H1582 H 0.40152 0.43733 0.72087 0.0
H1583 H 0.41776 0.44155 0.74756 0.0
H1584 H 0.43761 0.40089 0.79302 0.0
H1585 H 0.44169 0.41904 0.76767 0.0
H1586 H 0.35553 0.33943 0.73389 0.0
H1587 H 0.35864 0.35782 0.70872 0.0
H1588 H 0.34522 0.34693 0.7697 0.0
H1589 H 0.36091 0.3509 0.79655 0.0
C1590 C 0.12858 0.40361 0.74956 0.0
C1591 C 0.11382 0.39219 0.76723 0.0
C1592 C 0.0955 0.36714 0.73576 0.0
C1593 C 0.10672 0.38179 0.718 0.0
N1594 N 0.13366 0.41437 0.70741 0.0
N1595 N 0.08292 0.36321 0.77755 0.0
C1596 C 0.12329 0.40009 0.72472 0.0
C1597 C 0.09718 0.37393 0.76046 0.0
N1598 N 0.14789 0.41742 0.75641 0.0
N1599 N 0.08371 0.34652 0.72904 0.0
H1600 H 0.08473 0.36663 0.79602 0.0
H1601 H 0.06844 0.35193 0.77333 0.0
H1602 H 0.08298 0.34075 0.71113 0.0
H1603 H 0.07682 0.33399 0.74127 0.0
H1604 H 0.16066 0.42407 0.74428 0.0
H1605 H 0.15262 0.42035 0.77438 0.0
H1606 H 0.14336 0.43003 0.71136 0.0
H1607 H 0.13142 0.41135 0.68892 0.0
C1608 C 0.87623 0.26394 0.87028 0.0
C1609 C 0.89668 0.2775 0.87765 0.0
C1610 C 0.91176 0.24229 0.90003 0.0
C1611 C 0.89192 0.22804 0.8913 0.0
N1612 N 0.86211 0.22455 0.85892 0.0
N1613 N 0.9381 0.27599 0.89137 0.0
C1614 C 0.87626 0.23856 0.8736 0.0
C1615 C 0.91576 0.26555 0.88994 0.0
N1616 N 0.85629 0.27496 0.86073 0.0
N1617 N 0.92626 0.23486 0.91865 0.0
H1618 H 0.94208 0.2925 0.88329 0.0
H1619 H 0.95328 0.26688 0.89787 0.0
H1620 H 0.92416 0.21906 0.92846 0.0
H1621 H 0.93902 0.2462 0.92665 0.0
H1622 H 0.84008 0.26577 0.85778 0.0
H1623 H 0.85492 0.29348 0.85789 0.0
H1624 H 0.85221 0.2317 0.84454 0.0
H1625 H 0.86271 0.20578 0.8586 0.0
C1626 C 0.235 0.87786 0.88258 0.0
C1627 C 0.2272 0.90218 0.8853 0.0
C1628 C 0.26917 0.91442 0.89211 0.0
C1629 C 0.27573 0.88994 0.89556 0.0
N1630 N 0.26428 0.84755 0.89365 0.0
N1631 N 0.23734 0.94405 0.89318 0.0
C1632 C 0.25866 0.87137 0.89029 0.0
C1633 C 0.24442 0.9206 0.89026 0.0
N1634 N 0.22008 0.86086 0.87261 0.0
N1635 N 0.28665 0.93164 0.88914 0.0
H1636 H 0.21965 0.94978 0.89053 0.0
H1637 H 0.24883 0.95753 0.89961 0.0
H1638 H 0.30499 0.92733 0.8881 0.0
H1639 H 0.28286 0.94949 0.88449 0.0
H1640 H 0.22598 0.8437 0.86755 0.0
H1641 H 0.20231 0.86424 0.86746 0.0
H1642 H 0.25132 0.83388 0.89376 0.0
H1643 H 0.28143 0.84122 0.89783 0.0
C1644 C 0.61831 0.23984 0.88223 0.0
C1645 C 0.59993 0.22583 0.89346 0.0
C1646 C 0.58872 0.26161 0.91706 0.0
C1647 C 0.60418 0.27636 0.90256 0.0
N1648 N 0.62557 0.27864 0.86425 0.0
N1649 N 0.56218 0.22732 0.91628 0.0
C1650 C 0.61652 0.26531 0.88292 0.0
C1651 C 0.5834 0.23781 0.90924 0.0
N1652 N 0.63818 0.22936 0.87202 0.0
N1653 N 0.5798 0.2693 0.9388 0.0
H1654 H 0.55591 0.21091 0.90972 0.0
H1655 H 0.54902 0.2367 0.926 0.0
H1656 H 0.58506 0.28511 0.94745 0.0
H1657 H 0.57001 0.25796 0.95025 0.0
H1658 H 0.65229 0.23959 0.8648 0.0
H1659 H 0.64234 0.21112 0.8741 0.0
H1660 H 0.63367 0.27063 0.8492 0.0
H1661 H 0.62161 0.29692 0.86198 0.0
C1662 C 0.27026 0.60392 0.91349 0.0
C1663 C 0.27814 0.60184 0.88907 0.0
C1664 C 0.23811 0.61545 0.87572 0.0
C1665 C 0.22925 0.61334 0.89966 0.0
N1666 N 0.23651 0.6011 0.94098 0.0
N1667 N 0.26631 0.59912 0.84688 0.0
C1668 C 0.24515 0.60594 0.9184 0.0
C1669 C 0.26119 0.60582 0.8701 0.0
N1670 N 0.28655 0.60566 0.93199 0.0
N1671 N 0.22479 0.62674 0.85828 0.0
H1672 H 0.28198 0.5899 0.84205 0.0
H1673 H 0.25353 0.59986 0.83302 0.0
H1674 H 0.20801 0.63456 0.86167 0.0
H1675 H 0.2316 0.63043 0.84109 0.0
H1676 H 0.28148 0.60944 0.94975 0.0
H1677 H 0.30515 0.60655 0.92936 0.0
H1678 H 0.24711 0.59346 0.95458 0.0
H1679 H 0.21831 0.60261 0.94542 0.0
C1680 C 0.90464 0.27162 0.61872 0.0
C1681 C 0.88856 0.27598 0.59929 0.0
C1682 C 0.88427 0.23255 0.59216 0.0
C1683 C 0.90006 0.22816 0.61187 0.0
N1684 N 0.91942 0.24288 0.64815 0.0
N1685 N 0.85789 0.26116 0.57209 0.0
C1686 C 0.90845 0.24751 0.62651 0.0
C1687 C 0.87674 0.25659 0.58739 0.0
N1688 N 0.91647 0.29046 0.62953 0.0
N1689 N 0.87651 0.2138 0.57802 0.0
H1690 H 0.85147 0.27857 0.569 0.0
H1691 H 0.84715 0.24774 0.5644 0.0
H1692 H 0.88031 0.19575 0.58192 0.0
H1693 H 0.86742 0.2162 0.5617 0.0
H1694 H 0.93062 0.28818 0.64175 0.0
H1695 H 0.91314 0.3085 0.62516 0.0
H1696 H 0.92408 0.25626 0.66056 0.0
H1697 H 0.92139 0.22548 0.65494 0.0
C1698 C 0.24222 0.87553 0.63248 0.0
C1699 C 0.234 0.87883 0.60833 0.0
C1700 C 0.27598 0.88323 0.59511 0.0
C1701 C 0.28339 0.88604 0.61943 0.0
N1702 N 0.27337 0.88328 0.66211 0.0
N1703 N 0.24356 0.88609 0.56623 0.0
C1704 C 0.26661 0.88135 0.63842 0.0
C1705 C 0.25103 0.88277 0.58953 0.0
N1706 N 0.22696 0.86668 0.64979 0.0
N1707 N 0.29288 0.87961 0.57745 0.0
H1708 H 0.22562 0.88447 0.56092 0.0
H1709 H 0.25507 0.89184 0.55246 0.0
H1710 H 0.31132 0.87815 0.58124 0.0
H1711 H 0.28839 0.87491 0.55975 0.0
H1712 H 0.23276 0.86115 0.66684 0.0
H1713 H 0.20883 0.86279 0.6467 0.0
H1714 H 0.26103 0.884 0.67631 0.0
H1715 H 0.2911 0.88541 0.66788 0.0
C1716 C 0.6 0.24418 0.63023 0.0
C1717 C 0.61941 0.23999 0.61406 0.0
C1718 C 0.62437 0.28374 0.60816 0.0
C1719 C 0.6055 0.28809 0.62504 0.0
N1720 N 0.57762 0.27234 0.65501 0.0
N1721 N 0.65315 0.25526 0.59116 0.0
C1722 C 0.59406 0.26828 0.63699 0.0
C1723 C 0.63258 0.25964 0.60415 0.0
N1724 N 0.58687 0.22505 0.63883 0.0
N1725 N 0.63427 0.30264 0.5957 0.0
H1726 H 0.65942 0.23787 0.58753 0.0
H1727 H 0.66508 0.26869 0.5856 0.0
H1728 H 0.62938 0.32056 0.59872 0.0
H1729 H 0.64618 0.30057 0.58128 0.0
H1730 H 0.57037 0.22687 0.64771 0.0
H1731 H 0.59179 0.20707 0.63602 0.0
H1732 H 0.57154 0.25897 0.66676 0.0
H1733 H 0.5705 0.28925 0.65902 0.0
C1734 C 0.23324 0.58823 0.59328 0.0
C1735 C 0.21997 0.60437 0.60837 0.0
C1736 C 0.25814 0.62422 0.61871 0.0
C1737 C 0.2705 0.61127 0.60023 0.0
N1738 N 0.26544 0.586 0.56438 0.0
N1739 N 0.22042 0.64382 0.62772 0.0
C1740 C 0.25683 0.59482 0.58577 0.0
C1741 C 0.23253 0.62427 0.61878 0.0
N1742 N 0.22438 0.56609 0.58687 0.0
N1743 N 0.27037 0.63544 0.63699 0.0
H1744 H 0.20193 0.64636 0.62513 0.0
H1745 H 0.2294 0.65906 0.63428 0.0
H1746 H 0.28884 0.63312 0.63986 0.0
H1747 H 0.26145 0.64391 0.65129 0.0
H1748 H 0.23474 0.55346 0.57742 0.0
H1749 H 0.20859 0.55871 0.59381 0.0
H1750 H 0.2548 0.57563 0.55275 0.0
H1751 H 0.2816 0.59142 0.5566 0.0
C1752 C 0.89053 0.87487 0.24492 0.0
C1753 C 0.90567 0.88974 0.23049 0.0
C1754 C 0.91024 0.91765 0.26457 0.0
C1755 C 0.89733 0.90134 0.27971 0.0
N1756 N 0.88402 0.86 0.28531 0.0
N1757 N 0.93658 0.92089 0.23005 0.0
C1758 C 0.89006 0.87859 0.27024 0.0
C1759 C 0.91755 0.90983 0.24131 0.0
N1760 N 0.87593 0.85777 0.23471 0.0
N1761 N 0.91484 0.94087 0.27162 0.0
H1762 H 0.944 0.91475 0.21386 0.0
H1763 H 0.94707 0.93412 0.23845 0.0
H1764 H 0.90871 0.94833 0.28772 0.0
H1765 H 0.9222 0.95373 0.25997 0.0
H1766 H 0.86322 0.84809 0.24471 0.0
H1767 H 0.87443 0.85519 0.21611 0.0
H1768 H 0.88027 0.84263 0.27901 0.0
H1769 H 0.88619 0.86099 0.30401 0.0
C1770 C 0.62326 0.87707 0.26576 0.0
C1771 C 0.60327 0.88711 0.27829 0.0
C1772 C 0.58771 0.9023 0.23918 0.0
C1773 C 0.60747 0.89097 0.22698 0.0
N1774 N 0.63481 0.85698 0.22903 0.0
N1775 N 0.56334 0.90541 0.27534 0.0
C1776 C 0.62234 0.87499 0.24036 0.0
C1777 C 0.58467 0.89886 0.26465 0.0
N1778 N 0.64381 0.87053 0.2778 0.0
N1779 N 0.57136 0.91593 0.2267 0.0
H1780 H 0.55953 0.90339 0.29357 0.0
H1781 H 0.54816 0.91097 0.26568 0.0
H1782 H 0.56816 0.91389 0.2083 0.0
H1783 H 0.56029 0.92877 0.23493 0.0
H1784 H 0.65926 0.86449 0.26881 0.0
H1785 H 0.64654 0.87437 0.29606 0.0
H1786 H 0.64491 0.84416 0.23849 0.0
H1787 H 0.63188 0.85277 0.21087 0.0
C1788 C 0.58895 0.60602 0.24395 0.0
C1789 C 0.6068 0.61979 0.2317 0.0
C1790 C 0.6254 0.62779 0.27096 0.0
C1791 C 0.61145 0.60904 0.28178 0.0
N1792 N 0.58469 0.57484 0.27351 0.0
N1793 N 0.64646 0.63858 0.23447 0.0
C1794 C 0.59451 0.59649 0.26693 0.0
C1795 C 0.62641 0.62925 0.24538 0.0
N1796 N 0.56643 0.60264 0.23441 0.0
N1797 N 0.63665 0.64496 0.28464 0.0
H1798 H 0.64945 0.63757 0.21592 0.0
H1799 H 0.66152 0.64425 0.24433 0.0
H1800 H 0.63356 0.64687 0.30312 0.0
H1801 H 0.64591 0.65947 0.27693 0.0
H1802 H 0.55282 0.59362 0.24386 0.0
H1803 H 0.56038 0.61177 0.21908 0.0
H1804 H 0.57325 0.56516 0.26203 0.0
H1805 H 0.5907 0.56481 0.28819 0.0
C1806 C 0.8853 0.6344 0.27774 0.0
C1807 C 0.90413 0.6221 0.29018 0.0
C1808 C 0.91034 0.59589 0.25494 0.0
C1809 C 0.89305 0.60951 0.24168 0.0
N1810 N 0.86703 0.64458 0.23929 0.0
N1811 N 0.93855 0.59523 0.28829 0.0
C1812 C 0.88135 0.62958 0.25274 0.0
C1813 C 0.91782 0.60405 0.27808 0.0
N1814 N 0.87044 0.64995 0.28994 0.0
N1815 N 0.91881 0.57441 0.24608 0.0
H1816 H 0.9451 0.60104 0.30498 0.0
H1817 H 0.95061 0.5841 0.27904 0.0
H1818 H 0.91343 0.56718 0.22955 0.0
H1819 H 0.92922 0.56249 0.2563 0.0
H1820 H 0.85461 0.65703 0.28257 0.0
H1821 H 0.87255 0.65414 0.30818 0.0
H1822 H 0.86057 0.6611 0.24561 0.0
H1823 H 0.86328 0.6417 0.22107 0.0
C1824 C 0.11978 0.61646 0.02538 0.0
C1825 C 0.10541 0.63685 0.03147 0.0
C1826 C 0.10328 0.64695 0.98823 0.0
C1827 C 0.1217 0.62982 0.98299 0.0
N1828 N 0.15071 0.60093 0.99894 0.0
N1829 N 0.08744 0.67457 0.01803 0.0
C1830 C 0.13076 0.61513 1.00215 0.0
C1831 C 0.09804 0.6529 0.01273 0.0
N1832 N 0.12249 0.59791 0.04146 0.0
N1833 N 0.09027 0.65716 0.96989 0.0
H1834 H 0.08466 0.6808 0.03555 0.0
H1835 H 0.08399 0.68765 0.0049 0.0
H1836 H 0.0925 0.65214 0.95184 0.0
H1837 H 0.07532 0.66824 0.97293 0.0
H1838 H 0.13111 0.58174 0.037 0.0
H1839 H 0.11357 0.59739 0.05805 0.0
H1840 H 0.15926 0.59204 0.0132 0.0
H1841 H 0.16038 0.59996 0.98286 0.0
C1842 C 0.8826 0.09748 0.01467 0.0
C1843 C 0.85896 0.09797 0.02484 0.0
C1844 C 0.84352 0.11216 0.9857 0.0
C1845 C 0.86741 0.11711 0.97788 0.0
N1846 N 0.91029 0.116 0.98628 0.0
N1847 N 0.81678 0.10969 0.01988 0.0
C1848 C 0.8872 0.10989 0.99255 0.0
C1849 C 0.83924 0.10598 0.01025 0.0
N1850 N 0.90058 0.08473 0.02581 0.0
N1851 N 0.82482 0.11349 0.9696 0.0
H1852 H 0.81246 0.10699 0.03792 0.0
H1853 H 0.80284 0.11807 0.01034 0.0
H1854 H 0.82749 0.11739 0.95133 0.0
H1855 H 0.80729 0.10797 0.97379 0.0
H1856 H 0.91759 0.08215 0.01813 0.0
H1857 H 0.89758 0.07433 0.04124 0.0
H1858 H 0.925 0.11356 0.99781 0.0
H1859 H 0.91457 0.12522 0.97044 0.0
C1860 C 0.40535 0.88016 0.98643 0.0
C1861 C 0.3875 0.86415 0.97704 0.0
C1862 C 0.38669 0.84239 0.01579 0.0
C1863 C 0.40503 0.85785 0.02488 0.0
N1864 N 0.43477 0.88882 0.01804 0.0
N1865 N 0.36581 0.82618 0.9811 0.0
C1866 C 0.4152 0.87603 0.00995 0.0
C1867 C 0.37978 0.84397 0.99108 0.0
N1868 N 0.41285 0.89937 0.97282 0.0
N1869 N 0.37456 0.82725 0.03116 0.0
H1870 H 0.3594 0.82643 0.96347 0.0
H1871 H 0.36242 0.80978 0.98971 0.0
H1872 H 0.37849 0.8258 0.04954 0.0
H1873 H 0.35894 0.8179 0.02629 0.0
H1874 H 0.42327 0.91351 0.97956 0.0
H1875 H 0.40795 0.9016 0.95473 0.0
H1876 H 0.4447 0.90065 0.00731 0.0
H1877 H 0.44232 0.88623 0.03514 0.0
C1878 C 0.65267 0.38706 0.02082 0.0
C1879 C 0.63701 0.40537 0.02956 0.0
C1880 C 0.61586 0.40577 0.99036 0.0
C1881 C 0.63208 0.38781 0.98143 0.0
N1882 N 0.67068 0.36737 0.98653 0.0
N1883 N 0.60616 0.43502 0.0219 0.0
C1884 C 0.65204 0.3805 0.99601 0.0
C1885 C 0.61921 0.41552 0.01412 0.0
N1886 N 0.66705 0.37445 0.03656 0.0
N1887 N 0.59746 0.41381 0.97593 0.0
H1888 H 0.60823 0.44247 0.03911 0.0
H1889 H 0.59453 0.44494 0.01093 0.0
H1890 H 0.59637 0.4097 0.95755 0.0
H1891 H 0.58306 0.42421 0.98214 0.0
H1892 H 0.67672 0.35907 0.03161 0.0
H1893 H 0.6673 0.37749 0.05516 0.0
H1894 H 0.68703 0.36507 0.99563 0.0
H1895 H 0.67115 0.36057 0.96907 0.0
C1896 C 0.10492 0.88305 0.52022 0.0
C1897 C 0.11987 0.86506 0.53104 0.0
C1898 C 0.1211 0.84311 0.49241 0.0
C1899 C 0.10552 0.86055 0.48183 0.0
N1900 N 0.07878 0.89453 0.48674 0.0
N1901 N 0.1354 0.82396 0.52883 0.0
C1902 C 0.09636 0.87984 0.49604 0.0
C1903 C 0.12568 0.84377 0.5177 0.0
N1904 N 0.09876 0.9032 0.53315 0.0
N1905 N 0.13299 0.82679 0.4781 0.0
H1906 H 0.13918 0.82291 0.54717 0.0
H1907 H 0.1373 0.80732 0.52019 0.0
H1908 H 0.13121 0.82621 0.45935 0.0
H1909 H 0.14675 0.81561 0.48449 0.0
H1910 H 0.09092 0.91849 0.52548 0.0
H1911 H 0.10215 0.90492 0.55163 0.0
H1912 H 0.06948 0.9074 0.49685 0.0
H1913 H 0.07197 0.89254 0.46925 0.0
C1914 C 0.66015 0.12383 0.49339 0.0
C1915 C 0.64411 0.10452 0.48814 0.0
C1916 C 0.62682 0.10777 0.529 0.0
C1917 C 0.6434 0.12676 0.53447 0.0
N1918 N 0.6799 0.14838 0.52351 0.0
N1919 N 0.61441 0.07572 0.50136 0.0
C1920 C 0.66139 0.13327 0.51727 0.0
C1921 C 0.628 0.09584 0.50607 0.0
N1922 N 0.6732 0.13431 0.47516 0.0
N1923 N 0.61009 0.10101 0.54589 0.0
H1924 H 0.61471 0.06689 0.48468 0.0
H1925 H 0.60399 0.06681 0.51422 0.0
H1926 H 0.61054 0.10713 0.56373 0.0
H1927 H 0.59547 0.08974 0.54225 0.0
H1928 H 0.6828 0.15039 0.4772 0.0
H1929 H 0.67259 0.12841 0.45725 0.0
H1930 H 0.69513 0.15083 0.51272 0.0
H1931 H 0.68144 0.15687 0.54018 0.0
C1932 C 0.37714 0.65714 0.48598 0.0
C1933 C 0.39528 0.64218 0.47577 0.0
C1934 C 0.39821 0.62013 0.51443 0.0
C1935 C 0.38098 0.63616 0.52503 0.0
N1936 N 0.36076 0.67514 0.52202 0.0
N1937 N 0.42606 0.61193 0.48132 0.0
C1938 C 0.37261 0.65632 0.51127 0.0
C1939 C 0.40659 0.62426 0.49026 0.0
N1940 N 0.36304 0.67125 0.47136 0.0
N1941 N 0.40701 0.6012 0.52764 0.0
H1942 H 0.43276 0.61462 0.4639 0.0
H1943 H 0.43681 0.60044 0.49164 0.0
H1944 H 0.40414 0.59947 0.5462 0.0
H1945 H 0.41673 0.58692 0.52016 0.0
H1946 H 0.34769 0.68028 0.47755 0.0
H1947 H 0.36482 0.67169 0.4526 0.0
H1948 H 0.35666 0.69112 0.51291 0.0
H1949 H 0.35752 0.67647 0.54043 0.0
C1950 C 0.87949 0.41048 0.48322 0.0
C1951 C 0.86167 0.39945 0.46844 0.0
C1952 C 0.84558 0.37792 0.50375 0.0
C1953 C 0.8657 0.3858 0.51783 0.0
N1954 N 0.90092 0.41125 0.52161 0.0
N1955 N 0.8308 0.36894 0.46365 0.0
C1956 C 0.88241 0.40261 0.50769 0.0
C1957 C 0.84538 0.38239 0.47847 0.0
N1958 N 0.89304 0.42902 0.47409 0.0
N1959 N 0.82644 0.36622 0.5141 0.0
H1960 H 0.83087 0.37038 0.44486 0.0
H1961 H 0.82054 0.35438 0.46973 0.0
H1962 H 0.82543 0.3611 0.5321 0.0
H1963 H 0.81014 0.3635 0.50501 0.0
H1964 H 0.90474 0.43955 0.4844 0.0
H1965 H 0.8913 0.43512 0.45632 0.0
H1966 H 0.91561 0.42079 0.51475 0.0
H1967 H 0.90181 0.40847 0.54025 0.0
C1968 C 0.00619 0.13668 0.62576 0.0
C1969 C 0.98632 0.12128 0.63091 0.0
C1970 C 0.01446 0.08792 0.63903 0.0
C1971 C 0.03429 0.10412 0.63651 0.0
N1972 N 0.0483 0.14546 0.63328 0.0
N1973 N 0.97113 0.08304 0.64489 0.0
C1974 C 0.03002 0.1289 0.63127 0.0
C1975 C 0.99033 0.0971 0.6383 0.0
N1976 N 1.00236 0.15887 0.61557 0.0
N1977 N 0.01867 0.06367 0.64123 0.0
H1978 H 0.95326 0.08901 0.64366 0.0
H1979 H 0.97295 0.06615 0.653 0.0
H1980 H 0.03602 0.05628 0.64131 0.0
H1981 H 0.00504 0.0507 0.64081 0.0
H1982 H 0.01629 0.16972 0.60902 0.0
H1983 H 0.98519 0.16555 0.61163 0.0
H1984 H 0.04549 0.16407 0.63236 0.0
H1985 H 0.06582 0.14106 0.63861 0.0
C1986 C 0.4084 0.98415 0.6255 0.0
C1987 C 0.3918 0.97336 0.64194 0.0
C1988 C 0.38668 0.01273 0.66214 0.0
C1989 C 0.40423 0.02321 0.64663 0.0
N1990 N 0.43529 0.01775 0.61657 0.0
N1991 N 0.37038 0.9765 0.68009 0.0
C1992 C 0.41605 0.0086 0.62909 0.0
C1993 C 0.38275 0.98729 0.66166 0.0
N1994 N 0.41694 0.97098 0.60641 0.0
N1995 N 0.37244 0.02721 0.67628 0.0
H1996 H 0.36686 0.95811 0.68089 0.0
H1997 H 0.36583 0.98549 0.69603 0.0
H1998 H 0.37378 0.046 0.67648 0.0
H1999 H 0.35744 0.02086 0.68573 0.0
H2000 H 0.42635 0.97853 0.59197 0.0
H2001 H 0.41377 0.95248 0.60453 0.0
H2002 H 0.4463 0.00738 0.60537 0.0
H2003 H 0.44165 0.03533 0.61899 0.0
C2004 C 0.49097 0.39111 0.6189 0.0
C2005 C 0.48282 0.3986 0.64209 0.0
C2006 C 0.52505 0.3959 0.65639 0.0
C2007 C 0.53222 0.38488 0.63429 0.0
N2008 N 0.51872 0.36533 0.5974 0.0
N2009 N 0.49235 0.40181 0.68482 0.0
C2010 C 0.51418 0.38041 0.61645 0.0
C2011 C 0.49989 0.39918 0.66146 0.0
N2012 N 0.47724 0.39525 0.59878 0.0
N2013 N 0.54206 0.40457 0.67201 0.0
H2014 H 0.47422 0.40282 0.68975 0.0
H2015 H 0.50408 0.40013 0.6995 0.0
H2016 H 0.56051 0.40401 0.66827 0.0
H2017 H 0.53763 0.41464 0.68733 0.0
H2018 H 0.48347 0.39171 0.58134 0.0
H2019 H 0.46124 0.40521 0.59913 0.0
H2020 H 0.50533 0.36015 0.58516 0.0
H2021 H 0.53471 0.35551 0.59564 0.0
C2022 C 0.10657 0.5159 0.65801 0.0
C2023 C 0.10568 0.52831 0.63559 0.0
C2024 C 0.08937 0.49142 0.61652 0.0
C2025 C 0.09492 0.47813 0.63787 0.0
N2026 N 0.1125 0.47771 0.67803 0.0
N2027 N 0.08394 0.53079 0.59783 0.0
C2028 C 0.10416 0.49039 0.65851 0.0
C2029 C 0.09364 0.51695 0.61585 0.0
N2030 N 0.10819 0.52873 0.67906 0.0
N2031 N 0.08008 0.47964 0.59686 0.0
H2032 H 0.08246 0.5495 0.59919 0.0
H2033 H 0.07391 0.52394 0.58346 0.0
H2034 H 0.07448 0.46166 0.59735 0.0
H2035 H 0.07884 0.48729 0.57972 0.0
H2036 H 0.10699 0.52079 0.69611 0.0
H2037 H 0.1072 0.54757 0.67935 0.0
H2038 H 0.12179 0.48583 0.6923 0.0
H2039 H 0.11273 0.4589 0.67887 0.0
C2040 C 1.00231 0.41587 0.8486 0.0
C2041 C 0.02203 0.40184 0.85723 0.0
C2042 C 0.99348 0.37266 0.87443 0.0
C2043 C 0.97413 0.3845 0.86241 0.0
N2044 N 0.95999 0.41687 0.83692 0.0
N2045 N 0.03615 0.36376 0.87367 0.0
C2046 C 0.97852 0.40598 0.84913 0.0
C2047 C 0.01762 0.37952 0.86917 0.0
N2048 N 0.00618 0.43896 0.84071 0.0
N2049 N 0.98899 0.3546 0.89066 0.0
H2050 H 0.054 0.36691 0.86862 0.0
H2051 H 0.03339 0.34618 0.87986 0.0
H2052 H 0.97171 0.34825 0.89461 0.0
H2053 H 1.00236 0.34732 0.90178 0.0
H2054 H 0.99227 0.45087 0.8363 0.0
H2055 H 0.0232 0.44708 0.84087 0.0
H2056 H 0.96256 0.43081 0.82454 0.0
H2057 H 0.94209 0.41105 0.83823 0.0
C2058 C 0.12284 0.99547 0.85471 0.0
C2059 C 0.11465 0.98095 0.87433 0.0
C2060 C 0.09211 0.01599 0.89035 0.0
C2061 C 0.10308 0.03092 0.87267 0.0
N2062 N 0.13146 0.03588 0.83999 0.0
N2063 N 0.09121 0.97715 0.91087 0.0
C2064 C 0.11917 0.02092 0.8554 0.0
C2065 C 0.09913 0.99119 0.89214 0.0
N2066 N 0.13371 0.98505 0.83515 0.0
N2067 N 0.07467 0.02544 0.90509 0.0
H2068 H 0.09404 0.95851 0.91151 0.0
H2069 H 0.08253 0.98397 0.92611 0.0
H2070 H 0.0696 0.04361 0.90453 0.0
H2071 H 0.06409 0.01512 0.91673 0.0
H2072 H 0.13973 0.99462 0.82019 0.0
H2073 H 0.13479 0.96651 0.83249 0.0
H2074 H 0.14576 0.03021 0.82915 0.0
H2075 H 0.12889 0.05456 0.8395 0.0
C2076 C 0.4971 0.08643 0.85785 0.0
C2077 C 0.47766 0.10125 0.86591 0.0
C2078 C 0.50687 0.12953 0.88361 0.0
C2079 C 0.52608 0.11665 0.87255 0.0
N2080 N 0.53969 0.08403 0.84722 0.0
N2081 N 0.46461 0.14011 0.8814 0.0
C2082 C 0.52127 0.0954 0.85911 0.0
C2083 C 0.48264 0.12358 0.87765 0.0
N2084 N 0.49259 0.06352 0.84978 0.0
N2085 N 0.51174 0.14764 0.89972 0.0
H2086 H 0.44681 0.13755 0.8758 0.0
H2087 H 0.46787 0.15765 0.88746 0.0
H2088 H 0.52927 0.15257 0.9046 0.0
H2089 H 0.49839 0.15605 0.91003 0.0
H2090 H 0.50618 0.05112 0.84577 0.0
H2091 H 0.47528 0.05607 0.84933 0.0
H2092 H 0.53696 0.0701 0.83484 0.0
H2093 H 0.55767 0.08957 0.84873 0.0
C2094 C 0.39137 0.51168 0.83946 0.0
C2095 C 0.39389 0.52503 0.86119 0.0
C2096 C 0.41266 0.48908 0.87986 0.0
C2097 C 0.40373 0.47479 0.86042 0.0
N2098 N 0.38152 0.47286 0.8226 0.0
N2099 N 0.41535 0.52866 0.89898 0.0
C2100 C 0.39249 0.48617 0.84031 0.0
C2101 C 0.40714 0.51438 0.88058 0.0
N2102 N 0.38929 0.52331 0.81779 0.0
N2103 N 0.42718 0.47863 0.89695 0.0
H2104 H 0.41645 0.54741 0.89729 0.0
H2105 H 0.42201 0.52215 0.91531 0.0
H2106 H 0.43224 0.46048 0.89633 0.0
H2107 H 0.43556 0.48798 0.91095 0.0
H2108 H 0.38887 0.51419 0.80128 0.0
H2109 H 0.39185 0.54193 0.81617 0.0
H2110 H 0.37123 0.48075 0.8089 0.0
H2111 H 0.38027 0.45407 0.82299 0.0
C2112 C 0.66126 0.98474 0.11448 0.0
C2113 C 0.63786 0.97534 0.11912 0.0
C2114 C 0.62051 0.0112 0.0997 0.0
C2115 C 0.64341 0.02281 0.10036 0.0
N2116 N 0.68561 0.02074 0.11279 0.0
N2117 N 0.59452 0.98199 0.11905 0.0
C2118 C 0.66395 0.00959 0.10862 0.0
C2119 C 0.61721 0.98903 0.11227 0.0
N2120 N 0.68097 0.9699 0.11552 0.0
N2121 N 0.60192 0.02116 0.08684 0.0
H2122 H 0.59106 0.96664 0.12937 0.0
H2123 H 0.57931 0.99283 0.11652 0.0
H2124 H 0.60401 0.03675 0.07643 0.0
H2125 H 0.58545 0.01237 0.08419 0.0
H2126 H 0.69814 0.97545 0.11012 0.0
H2127 H 0.67961 0.9514 0.11895 0.0
H2128 H 0.70009 0.01204 0.12119 0.0
H2129 H 0.68863 0.03913 0.11051 0.0
C2130 C 0.62064 0.48962 0.41319 0.0
C2131 C 0.63777 0.4751 0.40075 0.0
C2132 C 0.65372 0.51135 0.38053 0.0
C2133 C 0.63444 0.52547 0.39029 0.0
N2134 N 0.59961 0.52805 0.41642 0.0
N2135 N 0.66732 0.47141 0.36892 0.0
C2136 C 0.6179 0.51452 0.40675 0.0
C2137 C 0.65351 0.4858 0.38357 0.0
N2138 N 0.6077 0.47985 0.43184 0.0
N2139 N 0.67251 0.52199 0.36851 0.0
H2140 H 0.66717 0.45259 0.36981 0.0
H2141 H 0.67688 0.47796 0.35406 0.0
H2142 H 0.67408 0.54042 0.36551 0.0
H2143 H 0.68814 0.51266 0.36365 0.0
H2144 H 0.5968 0.48993 0.44341 0.0
H2145 H 0.60926 0.4618 0.43702 0.0
H2146 H 0.585 0.52069 0.42572 0.0
H2147 H 0.59866 0.54679 0.41454 0.0
C2148 C 0.00585 0.66048 0.39999 0.0
C2149 C 0.0232 0.64172 0.39658 0.0
C2150 C 0.99097 0.61639 0.37969 0.0
C2151 C 0.9731 0.63306 0.38766 0.0
N2152 N 0.96417 0.6697 0.40967 0.0
N2153 N 0.02983 0.59906 0.38879 0.0
C2154 C 0.98067 0.65486 0.39891 0.0
C2155 C 0.01514 0.6189 0.3879 0.0
N2156 N 0.01312 0.68386 0.40314 0.0
N2157 N 0.98515 0.59841 0.36377 0.0
H2158 H 0.04679 0.5991 0.39697 0.0
H2159 H 0.02376 0.58176 0.38438 0.0
H2160 H 0.96809 0.5969 0.35585 0.0
H2161 H 0.99812 0.5871 0.35606 0.0
H2162 H 1.00099 0.69829 0.4036 0.0
H2163 H 0.03114 0.68923 0.40211 0.0
H2164 H 0.96914 0.68462 0.42009 0.0
H2165 H 0.94575 0.6658 0.41023 0.0
C2166 C 0.84871 0.01521 0.4002 0.0
C2167 C 0.87017 0.02876 0.40428 0.0
C2168 C 0.89409 0.9914 0.40191 0.0
C2169 C 0.87312 0.97869 0.39408 0.0
N2170 N 0.83008 0.97562 0.39971 0.0
N2171 N 0.91352 0.03018 0.40867 0.0
C2172 C 0.85022 0.98974 0.39742 0.0
C2173 C 0.89295 0.01696 0.40511 0.0
N2174 N 0.82702 0.02675 0.3973 0.0
N2175 N 0.91423 0.97886 0.40882 0.0
H2176 H 0.9133 0.04866 0.41244 0.0
H2177 H 0.93085 0.02318 0.40637 0.0
H2178 H 0.91412 0.96018 0.41117 0.0
H2179 H 0.9296 0.98694 0.41608 0.0
H2180 H 0.81141 0.01798 0.39142 0.0
H2181 H 0.825 0.04545 0.39844 0.0
H2182 H 0.81308 0.98241 0.40414 0.0
H2183 H 0.83115 0.9568 0.40058 0.0
C2184 C 0.49252 0.84587 0.40106 0.0
C2185 C 0.47943 0.86796 0.40303 0.0
C2186 C 0.51487 0.88996 0.38766 0.0
C2187 C 0.52842 0.86808 0.38733 0.0
N2188 N 0.53185 0.82655 0.39996 0.0
N2189 N 0.48032 0.91151 0.40393 0.0
C2190 C 0.51777 0.84649 0.39613 0.0
C2191 C 0.49133 0.89016 0.39816 0.0
N2192 N 0.48074 0.82416 0.40204 0.0
N2193 N 0.52365 0.91022 0.37659 0.0
H2194 H 0.46332 0.91234 0.41207 0.0
H2195 H 0.48908 0.92817 0.403 0.0
H2196 H 0.54041 0.91092 0.36803 0.0
H2197 H 0.51333 0.92575 0.37393 0.0
H2198 H 0.48913 0.80777 0.39802 0.0
H2199 H 0.46212 0.82249 0.40422 0.0
H2200 H 0.52551 0.81104 0.40857 0.0
H2201 H 0.55048 0.82652 0.39696 0.0
C2202 C 0.88485 0.50196 0.14579 0.0
C2203 C 0.87737 0.52276 0.13256 0.0
C2204 C 0.86806 0.49649 0.09779 0.0
C2205 C 0.87207 0.47566 0.11233 0.0
N2206 N 0.87909 0.45912 0.15218 0.0
N2207 N 0.86059 0.53971 0.09605 0.0
C2208 C 0.87924 0.4785 0.13682 0.0
C2209 C 0.86848 0.51995 0.10861 0.0
N2210 N 0.89732 0.50437 0.16698 0.0
N2211 N 0.86498 0.49396 0.07338 0.0
H2212 H 0.86249 0.55735 0.10245 0.0
H2213 H 0.85106 0.53852 0.07985 0.0
H2214 H 0.86554 0.47725 0.06466 0.0
H2215 H 0.86436 0.50849 0.06144 0.0
H2216 H 0.90516 0.4898 0.176 0.0
H2217 H 0.90206 0.52097 0.17438 0.0
H2218 H 0.88144 0.46074 0.17081 0.0
H2219 H 0.87393 0.44178 0.14695 0.0
C2220 C 0.01619 0.89147 0.09565 0.0
C2221 C 0.03227 0.8742 0.10562 0.0
C2222 C 0.99873 0.8549 0.12705 0.0
C2223 C 0.98281 0.87373 0.11959 0.0
N2224 N 0.97627 0.90988 0.09595 0.0
N2225 N 0.04008 0.84337 0.13532 0.0
C2226 C 0.99159 0.89211 0.10372 0.0
C2227 C 0.02386 0.85706 0.12256 0.0
N2228 N 0.02427 0.90664 0.07791 0.0
N2229 N 0.99021 0.83444 0.13783 0.0
H2230 H 0.05877 0.84481 0.13322 0.0
H2231 H 0.03518 0.83254 0.14991 0.0
H2232 H 0.97225 0.83099 0.14182 0.0
H2233 H 1.00104 0.81934 0.14047 0.0
H2234 H 0.01309 0.91802 0.06792 0.0
H2235 H 0.04224 0.90686 0.07216 0.0
H2236 H 0.98199 0.92548 0.08715 0.0
H2237 H 0.95763 0.90924 0.0987 0.0
C2238 C 0.52525 0.66552 0.10933 0.0
C2239 C 0.53753 0.64308 0.11106 0.0
C2240 C 0.50105 0.62253 0.0956 0.0
C2241 C 0.48765 0.64426 0.09877 0.0
N2242 N 0.48688 0.68617 0.11146 0.0
N2243 N 0.54062 0.60336 0.09373 0.0
C2244 C 0.49976 0.66576 0.10606 0.0
C2245 C 0.52641 0.62233 0.10071 0.0
N2246 N 0.53803 0.68661 0.1087 0.0
N2247 N 0.48952 0.60204 0.08799 0.0
H2248 H 0.55946 0.60428 0.0943 0.0
H2249 H 0.53428 0.58819 0.08458 0.0
H2250 H 0.47158 0.60192 0.08218 0.0
H2251 H 0.49733 0.58493 0.08832 0.0
H2252 H 0.52999 0.70333 0.10552 0.0
H2253 H 0.55681 0.68698 0.1071 0.0
H2254 H 0.49466 0.70132 0.11954 0.0
H2255 H 0.46812 0.6872 0.11023 0.0
C2256 C 0.8931 0.35766 0.00762 0.0
C2257 C 0.87772 0.37721 0.01412 0.0
C2258 C 0.87536 0.38964 0.97146 0.0
C2259 C 0.89129 0.37051 0.96507 0.0
N2260 N 0.91873 0.33895 0.97719 0.0
N2261 N 0.85714 0.41406 0.00304 0.0
C2262 C 0.90112 0.35524 0.98322 0.0
C2263 C 0.87001 0.39405 0.99631 0.0
N2264 N 0.89978 0.34118 0.02481 0.0
N2265 N 0.86389 0.4025 0.95369 0.0
H2266 H 0.85141 0.41723 0.02071 0.0
H2267 H 0.85357 0.42847 0.99148 0.0
H2268 H 0.86687 0.39966 0.9353 0.0
H2269 H 0.84986 0.4146 0.95696 0.0
H2270 H 0.90828 0.32486 0.02089 0.0
H2271 H 0.89588 0.34333 0.04314 0.0
H2272 H 0.92841 0.32883 0.98977 0.0
H2273 H 0.9252 0.33691 0.95959 0.0
C2274 C 0.1342 0.91475 0.02725 0.0
C2275 C 0.14874 0.89499 0.03504 0.0
C2276 C 0.16604 0.89162 0.99428 0.0
C2277 C 0.1519 0.91166 0.98656 0.0
N2278 N 0.12612 0.94523 0.99657 0.0
N2279 N 0.1837 0.86958 0.02757 0.0
C2280 C 0.13702 0.92411 0.00334 0.0
C2281 C 0.16648 0.8852 0.01917 0.0
N2282 N 0.11759 0.92449 0.04275 0.0
N2283 N 0.17759 0.87737 0.97765 0.0
H2284 H 0.18491 0.86397 0.04544 0.0
H2285 H 0.1985 0.86412 0.01728 0.0
H2286 H 0.17698 0.88042 0.95908 0.0
H2287 H 0.18565 0.86091 0.98197 0.0
H2288 H 0.10422 0.93662 0.03745 0.0
H2289 H 0.11674 0.9198 0.06101 0.0
H2290 H 0.11688 0.95652 0.00845 0.0
H2291 H 0.12798 0.95256 0.97929 0.0
C2292 C 0.60129 0.11774 0.01984 0.0
C2293 C 0.61511 0.13665 0.03059 0.0
C2294 C 0.61534 0.15816 0.9915 0.0
C2295 C 0.60322 0.13838 0.98047 0.0
N2296 N 0.5858 0.09864 0.98334 0.0
N2297 N 0.62801 0.17862 0.02791 0.0
C2298 C 0.59645 0.118 0.99445 0.0
C2299 C 0.61987 0.15803 0.01691 0.0
N2300 N 0.5912 0.10047 0.03438 0.0
N2301 N 0.62442 0.17633 0.97733 0.0
H2302 H 0.63322 0.17993 0.04585 0.0
H2303 H 0.62789 0.19546 0.01952 0.0
H2304 H 0.62221 0.17701 0.95862 0.0
H2305 H 0.63618 0.18961 0.98362 0.0
H2306 H 0.57923 0.08728 0.02832 0.0
H2307 H 0.59258 0.10098 0.05319 0.0
H2308 H 0.58315 0.08198 0.99166 0.0
H2309 H 0.58084 0.09871 0.96514 0.0
C2310 C 0.39266 0.61017 0.9809 0.0
C2311 C 0.36988 0.60049 0.97394 0.0
C2312 C 0.35678 0.60351 0.01642 0.0
C2313 C 0.37765 0.61732 0.02219 0.0
N2314 N 0.41381 0.63739 0.00775 0.0
N2315 N 0.3284 0.5919 0.98531 0.0
C2316 C 0.39528 0.62149 0.00392 0.0
C2317 C 0.35146 0.59798 0.99179 0.0
N2318 N 0.41214 0.60796 0.96587 0.0
N2319 N 0.34212 0.59535 0.03454 0.0
H2320 H 0.32305 0.58879 0.96756 0.0
H2321 H 0.31391 0.5925 0.99734 0.0
H2322 H 0.34588 0.59839 0.05279 0.0
H2323 H 0.32788 0.58336 0.03159 0.0
H2324 H 0.42962 0.61278 0.97103 0.0
H2325 H 0.41141 0.59862 0.9495 0.0
H2326 H 0.42539 0.64302 0.99399 0.0
H2327 H 0.41625 0.64687 0.02382 0.0
C2328 C 0.90181 0.16405 0.50931 0.0
C2329 C 0.9079 0.14359 0.52365 0.0
C2330 C 0.89522 0.11668 0.49075 0.0
C2331 C 0.89022 0.13717 0.47613 0.0
N2332 N 0.89605 0.17969 0.46886 0.0
N2333 N 0.91722 0.10098 0.5252 0.0
C2334 C 0.89606 0.16063 0.48456 0.0
C2335 C 0.9068 0.12005 0.51345 0.0
N2336 N 0.8996 0.18649 0.51945 0.0
N2337 N 0.88765 0.0942 0.48383 0.0
H2338 H 0.92664 0.10293 0.54144 0.0
H2339 H 0.91884 0.08385 0.51752 0.0
H2340 H 0.8788 0.09079 0.46755 0.0
H2341 H 0.88839 0.0792 0.4952 0.0
H2342 H 0.89263 0.2013 0.51011 0.0
H2343 H 0.90217 0.19 0.53774 0.0
H2344 H 0.9023 0.19681 0.47358 0.0
H2345 H 0.89238 0.17765 0.45045 0.0
C2346 C 0.38917 0.89633 0.49208 0.0
C2347 C 0.36876 0.89269 0.47683 0.0
C2348 C 0.34191 0.90383 0.51038 0.0
C2349 C 0.36238 0.9085 0.52539 0.0
N2350 N 0.40505 0.91759 0.52689 0.0
N2351 N 0.32668 0.90126 0.46938 0.0
C2352 C 0.38587 0.90748 0.51504 0.0
C2353 C 0.34547 0.89927 0.48532 0.0
N2354 N 0.41144 0.88781 0.48564 0.0
N2355 N 0.31921 0.90196 0.51993 0.0
H2356 H 0.32888 0.89883 0.45078 0.0
H2357 H 0.30976 0.908 0.47425 0.0
H2358 H 0.31525 0.90418 0.53813 0.0
H2359 H 0.30443 0.89578 0.50997 0.0
H2360 H 0.42615 0.88785 0.49744 0.0
H2361 H 0.41484 0.8786 0.46959 0.0
H2362 H 0.42217 0.91913 0.51915 0.0
H2363 H 0.40313 0.92709 0.54308 0.0
C2364 C 0.58922 0.37237 0.50685 0.0
C2365 C 0.60165 0.3556 0.52179 0.0
C2366 C 0.62134 0.33861 0.48586 0.0
C2367 C 0.61317 0.35864 0.47194 0.0
N2368 N 0.58708 0.39335 0.46836 0.0
N2369 N 0.63203 0.3244 0.52575 0.0
C2370 C 0.59633 0.37511 0.48222 0.0
C2371 C 0.6181 0.3389 0.51135 0.0
N2372 N 0.57008 0.38505 0.51603 0.0
N2373 N 0.63195 0.31914 0.47503 0.0
H2374 H 0.63099 0.32437 0.54454 0.0
H2375 H 0.64636 0.31409 0.51915 0.0
H2376 H 0.63414 0.31745 0.45647 0.0
H2377 H 0.6359 0.30323 0.48431 0.0
H2378 H 0.55883 0.39597 0.50562 0.0
H2379 H 0.56395 0.38286 0.53373 0.0
H2380 H 0.57745 0.40792 0.47539 0.0
H2381 H 0.58958 0.39416 0.44967 0.0
C2382 C 0.15319 0.60615 0.48402 0.0
C2383 C 0.13065 0.60947 0.47217 0.0
C2384 C 0.10986 0.59847 0.51011 0.0
C2385 C 0.13227 0.59995 0.52267 0.0
N2386 N 0.1751 0.6089 0.52164 0.0
N2387 N 0.08919 0.59645 0.47127 0.0
C2388 C 0.15392 0.60454 0.50962 0.0
C2389 C 0.10928 0.60216 0.48448 0.0
N2390 N 0.17371 0.60248 0.4708 0.0
N2391 N 0.08912 0.59379 0.52271 0.0
H2392 H 0.08957 0.59553 0.45243 0.0
H2393 H 0.07332 0.58954 0.47861 0.0
H2394 H 0.08907 0.5894 0.54104 0.0
H2395 H 0.07186 0.59535 0.51538 0.0
H2396 H 0.19037 0.59834 0.47861 0.0
H2397 H 0.17325 0.59957 0.45217 0.0
H2398 H 0.19066 0.61502 0.51295 0.0
H2399 H 0.17651 0.60903 0.54044 0.0
C2400 C 0.99652 0.90965 0.38533 0.0
C2401 C 0.98198 0.90016 0.36646 0.0
C2402 C 0.01775 0.88098 0.34838 0.0
C2403 C 0.03177 0.88743 0.36906 0.0
N2404 N 0.03496 0.90938 0.40665 0.0
N2405 N 0.97772 0.87326 0.33241 0.0
C2406 C 0.02121 0.90222 0.38738 0.0
C2407 C 0.99234 0.885 0.34857 0.0
N2408 N 0.98694 0.92644 0.40076 0.0
N2409 N 0.02842 0.8714 0.32825 0.0
H2410 H 0.95897 0.87529 0.3321 0.0
H2411 H 0.98385 0.85959 0.32099 0.0
H2412 H 0.04685 0.86845 0.32648 0.0
H2413 H 0.01926 0.86891 0.31196 0.0
H2414 H 0.99702 0.93606 0.4134 0.0
H2415 H 0.96894 0.93204 0.39986 0.0
H2416 H 0.02789 0.91713 0.42227 0.0
H2417 H 0.05369 0.90713 0.4072 0.0
C2418 C 0.60601 0.0077 0.40027 0.0
C2419 C 0.61219 0.02253 0.3802 0.0
C2420 C 0.60726 0.98784 0.35299 0.0
C2421 C 0.60356 0.97237 0.37316 0.0
N2422 N 0.59866 0.96735 0.41619 0.0
N2423 N 0.60395 0.0285 0.33767 0.0
C2424 C 0.6026 0.98227 0.39689 0.0
C2425 C 0.60846 0.01323 0.35654 0.0
N2426 N 0.60117 0.0184 0.42202 0.0
N2427 N 0.61118 0.97834 0.3305 0.0
H2428 H 0.60034 0.04681 0.34015 0.0
H2429 H 0.5995 0.02243 0.32039 0.0
H2430 H 0.61145 0.95984 0.32694 0.0
H2431 H 0.61682 0.98879 0.31588 0.0
H2432 H 0.59507 0.0092 0.43723 0.0
H2433 H 0.6003 0.03714 0.42397 0.0
H2434 H 0.60079 0.97263 0.43412 0.0
H2435 H 0.59417 0.94915 0.41432 0.0
C2436 C 0.51204 0.616 0.34604 0.0
C2437 C 0.52164 0.60335 0.36625 0.0
C2438 C 0.48232 0.60634 0.38678 0.0
C2439 C 0.47316 0.6204 0.36722 0.0
N2440 N 0.47709 0.63091 0.32466 0.0
N2441 N 0.51676 0.5872 0.40635 0.0
C2442 C 0.4872 0.62275 0.3457 0.0
C2443 C 0.50698 0.59869 0.38676 0.0
N2444 N 0.52718 0.62355 0.32794 0.0
N2445 N 0.46676 0.59861 0.40439 0.0
H2446 H 0.53412 0.57984 0.40634 0.0
H2447 H 0.50827 0.58597 0.42309 0.0
H2448 H 0.44819 0.60186 0.40372 0.0
H2449 H 0.47146 0.58674 0.41819 0.0
H2450 H 0.52183 0.63461 0.31371 0.0
H2451 H 0.54584 0.62102 0.32818 0.0
H2452 H 0.48542 0.62902 0.30787 0.0
H2453 H 0.45975 0.63778 0.32294 0.0
C2454 C 0.90714 0.50324 0.37982 0.0
C2455 C 0.90032 0.51997 0.36159 0.0
C2456 C 0.88101 0.48723 0.33844 0.0
C2457 C 0.88485 0.47122 0.35824 0.0
N2458 N 0.90865 0.46141 0.3933 0.0
N2459 N 0.87862 0.52872 0.3247 0.0
C2460 C 0.89999 0.47855 0.37771 0.0
C2461 C 0.88715 0.51211 0.34095 0.0
N2462 N 0.92003 0.51116 0.39941 0.0
N2463 N 0.87203 0.47887 0.31698 0.0
H2464 H 0.8821 0.54718 0.32585 0.0
H2465 H 0.8662 0.52464 0.31114 0.0
H2466 H 0.86663 0.4612 0.31383 0.0
H2467 H 0.87186 0.48912 0.30121 0.0
H2468 H 0.92311 0.50091 0.41486 0.0
H2469 H 0.92707 0.52861 0.40065 0.0
H2470 H 0.9211 0.46479 0.40699 0.0
H2471 H 0.90516 0.443 0.39103 0.0
C2472 C 0.02216 0.61178 0.16748 0.0
C2473 C 0.03235 0.61273 0.14395 0.0
C2474 C 0.99366 0.59668 0.12814 0.0
C2475 C 0.98232 0.60221 0.15059 0.0
N2476 N 0.98623 0.619 0.1909 0.0
N2477 N 0.02925 0.59948 0.10249 0.0
C2478 C 0.9967 0.61072 0.17011 0.0
C2479 C 0.01847 0.60323 0.12437 0.0
N2480 N 0.03664 0.61018 0.18741 0.0
N2481 N 0.98117 0.58398 0.11097 0.0
H2482 H 0.048 0.59884 0.10054 0.0
H2483 H 0.01974 0.59653 0.08651 0.0
H2484 H 0.96352 0.57791 0.11354 0.0
H2485 H 0.9888 0.57752 0.09504 0.0
H2486 H 0.02969 0.60781 0.20477 0.0
H2487 H 0.05516 0.6069 0.18617 0.0
H2488 H 0.9962 0.62732 0.20459 0.0
H2489 H 0.96759 0.62025 0.19332 0.0
C2490 C 0.91226 0.99593 0.12588 0.0
C2491 C 0.90165 0.98006 0.14301 0.0
C2492 C 0.8782 0.01383 0.15975 0.0
C2493 C 0.88569 0.02893 0.14027 0.0
N2494 N 0.91132 0.03481 0.10546 0.0
N2495 N 0.87047 0.97292 0.17273 0.0
C2496 C 0.90315 0.02004 0.12349 0.0
C2497 C 0.88371 0.98878 0.15912 0.0
N2498 N 0.93166 0.98827 0.11261 0.0
N2499 N 0.86598 0.02301 0.17916 0.0
H2500 H 0.87262 0.95422 0.1719 0.0
H2501 H 0.85536 0.97809 0.18273 0.0
H2502 H 0.86039 0.04081 0.18089 0.0
H2503 H 0.8635 0.01315 0.19503 0.0
H2504 H 0.94189 0.99952 0.10155 0.0
H2505 H 0.93879 0.97087 0.11405 0.0
H2506 H 0.92127 0.02873 0.09068 0.0
H2507 H 0.90772 0.05332 0.10504 0.0
C2508 C 0.49001 0.89258 0.1571 0.0
C2509 C 0.47885 0.88997 0.13413 0.0
C2510 C 0.5172 0.90218 0.11476 0.0
C2511 C 0.52905 0.90028 0.13749 0.0
N2512 N 0.52717 0.8893 0.1797 0.0
N2513 N 0.47906 0.90312 0.09271 0.0
C2514 C 0.51555 0.89451 0.15852 0.0
C2515 C 0.49172 0.89785 0.11328 0.0
N2516 N 0.47634 0.89527 0.17746 0.0
N2517 N 0.53039 0.90769 0.09461 0.0
H2518 H 0.46019 0.90294 0.09228 0.0
H2519 H 0.48668 0.91032 0.07711 0.0
H2520 H 0.5487 0.91218 0.0953 0.0
H2521 H 0.52366 0.90676 0.07707 0.0
H2522 H 0.48383 0.89911 0.19432 0.0
H2523 H 0.45773 0.89813 0.17689 0.0
H2524 H 0.51823 0.88241 0.19476 0.0
H2525 H 0.54594 0.88902 0.18132 0.0
C2526 C 0.60084 0.51941 0.121 0.0
C2527 C 0.60504 0.53136 0.14339 0.0
C2528 C 0.61306 0.49231 0.16282 0.0
C2529 C 0.61351 0.48099 0.13974 0.0
N2530 N 0.598 0.48125 0.09915 0.0
N2531 N 0.61876 0.52953 0.18491 0.0
C2532 C 0.60465 0.4939 0.11935 0.0
C2533 C 0.61194 0.5179 0.16415 0.0
N2534 N 0.59326 0.53246 0.10141 0.0
N2535 N 0.61196 0.47888 0.18353 0.0
H2536 H 0.61987 0.54827 0.18642 0.0
H2537 H 0.62603 0.52061 0.19983 0.0
H2538 H 0.6084 0.46043 0.18358 0.0
H2539 H 0.61012 0.48646 0.20068 0.0
H2540 H 0.59242 0.52572 0.08388 0.0
H2541 H 0.58827 0.5506 0.10246 0.0
H2542 H 0.59033 0.48886 0.08378 0.0
H2543 H 0.59785 0.46239 0.09874 0.0
C2544 C 0.36015 1.0009 0.92256 0.0
C2545 C 0.35798 0.97987 0.90797 0.0
C2546 C 0.36552 0.00397 0.87155 0.0
C2547 C 0.36703 0.02523 0.88579 0.0
N2548 N 0.36302 0.04485 0.92447 0.0
N2549 N 0.35462 0.96269 0.86759 0.0
C2550 C 0.36343 0.02398 0.91124 0.0
C2551 C 0.35943 0.98178 0.88241 0.0
N2552 N 0.35987 0.99863 0.94716 0.0
N2553 N 0.36938 0.0048 0.84717 0.0
H2554 H 0.34861 0.94585 0.87354 0.0
H2555 H 0.34861 0.94585 0.87354 0.0
H2556 H 0.37438 0.02051 0.8382 0.0
H2557 H 0.36832 0.98954 0.8361 0.0
H2558 H 0.36379 0.01267 0.95906 0.0
H2559 H 0.35688 0.98211 0.95577 0.0
H2560 H 0.35814 0.04567 0.94261 0.0
H2561 H 0.36639 0.06177 0.91686 0.0
C2562 C 0.34741 0.48645 0.62546 0.0
C2563 C 0.36779 0.47246 0.61794 0.0
C2564 C 0.3809 0.50687 0.59238 0.0
C2565 C 0.36243 0.52149 0.60256 0.0
N2566 N 0.33136 0.52651 0.63271 0.0
N2567 N 0.40345 0.46916 0.59295 0.0
C2568 C 0.34653 0.5116 0.62005 0.0
C2569 C 0.38444 0.48272 0.60107 0.0
N2570 N 0.32845 0.47602 0.63739 0.0
N2571 N 0.39438 0.51576 0.57366 0.0
H2572 H 0.40478 0.4506 0.59593 0.0
H2573 H 0.41813 0.47629 0.58361 0.0
H2574 H 0.39231 0.53329 0.56702 0.0
H2575 H 0.40642 0.50544 0.56355 0.0
H2576 H 0.31223 0.48502 0.64069 0.0
H2577 H 0.32737 0.45786 0.64183 0.0
H2578 H 0.32153 0.52087 0.64775 0.0
H2579 H 0.33055 0.54514 0.63 0.0
C2580 C 0.99711 0.37585 0.58079 0.0
C2581 C 0.98225 0.35659 0.58898 0.0
C2582 C 0.01674 0.33943 0.61142 0.0
C2583 C 0.03098 0.36005 0.60539 0.0
N2584 N 0.03729 0.39382 0.57876 0.0
N2585 N 0.9767 0.32226 0.61534 0.0
C2586 C 0.02179 0.37719 0.58851 0.0
C2587 C 0.99185 0.33874 0.60478 0.0
N2588 N 0.98741 0.39312 0.56598 0.0
N2589 N 0.02678 0.32014 0.62314 0.0
H2590 H 0.9582 0.32138 0.61188 0.0
H2591 H 0.98188 0.31094 0.62947 0.0
H2592 H 0.04427 0.31966 0.6299 0.0
H2593 H 0.01827 0.30338 0.62432 0.0
H2594 H 0.99603 0.40918 0.56142 0.0
H2595 H 0.96998 0.39188 0.55885 0.0
H2596 H 0.03269 0.40592 0.56515 0.0
H2597 H 0.05574 0.39402 0.58273 0.0
C2598 C 0.16456 0.01013 0.62963 0.0
C2599 C 0.14763 0.02643 0.61899 0.0
C2600 C 0.1381 0.99557 0.58809 0.0
C2601 C 0.15263 0.97858 0.60068 0.0
N2602 N 0.17544 0.96838 0.63651 0.0
N2603 N 0.1183 0.03482 0.5878 0.0
C2604 C 0.16488 0.98555 0.62214 0.0
C2605 C 0.13438 0.01913 0.59812 0.0
N2606 N 0.18042 0.0178 0.64699 0.0
N2607 N 0.12846 0.98935 0.56617 0.0
H2608 H 0.11696 0.05292 0.59292 0.0
H2609 H 0.10576 0.02981 0.57468 0.0
H2610 H 0.13082 0.97229 0.55848 0.0
H2611 H 0.11969 1.00146 0.55476 0.0
H2612 H 0.19491 0.00733 0.65296 0.0
H2613 H 0.18091 0.03521 0.65393 0.0
H2614 H 0.1819 0.97196 0.65385 0.0
H2615 H 0.17545 0.94998 0.63245 0.0
C2616 C 0.53085 0.13233 0.63313 0.0
C2617 C 0.53468 0.14325 0.61019 0.0
C2618 C 0.49073 0.14192 0.60257 0.0
C2619 C 0.48711 0.13055 0.62538 0.0
N2620 N 0.50474 0.11187 0.66097 0.0
N2621 N 0.51887 0.15436 0.57114 0.0
C2622 C 0.50747 0.12447 0.63991 0.0
C2623 C 0.51474 0.147 0.59438 0.0
N2624 N 0.54901 0.12985 0.64964 0.0
N2625 N 0.47112 0.14798 0.58879 0.0
H2626 H 0.53613 0.15791 0.56444 0.0
H2627 H 0.50556 0.1551 0.55785 0.0
H2628 H 0.45358 0.14245 0.59302 0.0
H2629 H 0.472 0.15915 0.57369 0.0
H2630 H 0.56663 0.13616 0.64733 0.0
H2631 H 0.56663 0.13616 0.64733 0.0
H2632 H 0.51923 0.10778 0.67238 0.0
H2633 H 0.48849 0.10424 0.66644 0.0
C2634 C 0.15074 0.49539 0.8658 0.0
C2635 C 0.1319 0.48016 0.87451 0.0
C2636 C 0.12062 0.51203 0.9037 0.0
C2637 C 0.13732 0.52808 0.89262 0.0
N2638 N 0.16288 0.53657 0.85824 0.0
N2639 N 0.0978 0.47458 0.90117 0.0
C2640 C 0.15093 0.52018 0.87236 0.0
C2641 C 0.11638 0.48876 0.89319 0.0
N2642 N 0.16875 0.48649 0.85143 0.0
N2643 N 0.10966 0.51849 0.92489 0.0
H2644 H 0.09547 0.45668 0.8957 0.0
H2645 H 0.08407 0.4809 0.9124 0.0
H2646 H 0.11264 0.53508 0.93331 0.0
H2647 H 0.09929 0.50667 0.93523 0.0
H2648 H 0.18403 0.49654 0.84686 0.0
H2649 H 0.17014 0.4685 0.8463 0.0
H2650 H 0.17097 0.53199 0.84184 0.0
H2651 H 0.16207 0.55516 0.86113 0.0
C2652 C 0.01776 0.16043 0.89906 0.0
C2653 C 0.02673 0.13825 0.88973 0.0
C2654 C 0.98936 0.11822 0.9032 0.0
C2655 C 0.97877 0.141 0.90838 0.0
N2656 N 0.98244 0.18468 0.90773 0.0
N2657 N 0.01891 0.0964 0.87952 0.0
C2658 C 0.99291 0.16238 0.9057 0.0
C2659 C 0.01209 0.11713 0.89114 0.0
N2660 N 0.03308 0.17961 0.90184 0.0
N2661 N 0.97775 0.09751 0.91 0.0
H2662 H 0.03476 0.09484 0.86947 0.0
H2663 H 0.00761 0.08142 0.87779 0.0
H2664 H 0.96136 0.09769 0.91934 0.0
H2665 H 0.98563 0.08044 0.90875 0.0
H2666 H 0.02815 0.19551 0.91066 0.0
H2667 H 0.05145 0.17863 0.89765 0.0
H2668 H 0.99132 0.20062 0.90306 0.0
H2669 H 0.9643 0.18737 0.91188 0.0
C2670 C 0.4775 0.34074 0.90111 0.0
C2671 C 0.46543 0.36332 0.89981 0.0
C2672 C 0.50186 0.38276 0.91693 0.0
C2673 C 0.51517 0.36128 0.91236 0.0
N2674 N 0.51576 0.32044 0.89647 0.0
N2675 N 0.46438 0.40519 0.91189 0.0
C2676 C 0.50301 0.34037 0.90365 0.0
C2677 C 0.47715 0.38419 0.90942 0.0
N2678 N 0.46482 0.31958 0.90114 0.0
N2679 N 0.51252 0.40132 0.92932 0.0
H2680 H 0.44556 0.40573 0.91048 0.0
H2681 H 0.47225 0.42193 0.91531 0.0
H2682 H 0.53029 0.40055 0.9356 0.0
H2683 H 0.50339 0.41669 0.93514 0.0
H2684 H 0.47306 0.30293 0.90413 0.0
H2685 H 0.44611 0.31879 0.90267 0.0
H2686 H 0.50765 0.30553 0.88828 0.0
H2687 H 0.53458 0.31977 0.89593 0.0
C2688 C 0.17764 0.62432 0.11604 0.0
C2689 C 0.16835 0.64545 0.12722 0.0
C2690 C 0.20912 0.66225 0.13066 0.0
C2691 C 0.21806 0.64254 0.11686 0.0
N2692 N 0.21329 0.60116 0.10469 0.0
N2693 N 0.17575 0.67818 0.15447 0.0
C2694 C 0.20308 0.62214 0.11273 0.0
C2695 C 0.18445 0.66215 0.13789 0.0
N2696 N 0.16218 0.60738 0.10691 0.0
N2697 N 0.22344 0.68183 0.13517 0.0
H2698 H 0.15772 0.67757 0.16009 0.0
H2699 H 0.18671 0.68999 0.16424 0.0
H2700 H 0.24164 0.68249 0.13039 0.0
H2701 H 0.21693 0.69787 0.14259 0.0
H2702 H 0.16765 0.59328 0.09569 0.0
H2703 H 0.14362 0.60783 0.11006 0.0
H2704 H 0.20379 0.58502 0.10281 0.0
H2705 H 0.23193 0.59956 0.10209 0.0
C2706 C 0.83877 0.2043 0.07966 0.0
C2707 C 0.85724 0.2185 0.09033 0.0
C2708 C 0.86843 0.18359 0.11569 0.0
C2709 C 0.85193 0.16899 0.10247 0.0
N2710 N 0.82833 0.1644 0.06596 0.0
N2711 N 0.89209 0.22071 0.1165 0.0
C2712 C 0.83925 0.17904 0.08261 0.0
C2713 C 0.87283 0.20791 0.10787 0.0
N2714 N 0.82039 0.21496 0.06704 0.0
N2715 N 0.87932 0.17456 0.1359 0.0
H2716 H 0.89564 0.23845 0.11122 0.0
H2717 H 0.90538 0.21316 0.12751 0.0
H2718 H 0.87667 0.15682 0.14171 0.0
H2719 H 0.88963 0.18508 0.14765 0.0
H2720 H 0.80561 0.20528 0.06044 0.0
H2721 H 0.81853 0.23368 0.06574 0.0
H2722 H 0.82036 0.17103 0.0502 0.0
H2723 H 0.83004 0.14561 0.06636 0.0
C2724 C 0.30849 0.88778 0.11254 0.0
C2725 C 0.29802 0.86461 0.11538 0.0
C2726 C 0.33528 0.85079 0.13495 0.0
C2727 C 0.3475 0.8716 0.12629 0.0
N2728 N 0.34524 0.91052 0.1062 0.0
N2729 N 0.30139 0.82356 0.12964 0.0
C2730 C 0.33391 0.89066 0.11552 0.0
C2731 C 0.31119 0.84609 0.12724 0.0
N2732 N 0.29409 0.90679 0.10616 0.0
N2733 N 0.34694 0.83546 0.15039 0.0
H2734 H 0.28368 0.81953 0.12462 0.0
H2735 H 0.31129 0.80858 0.13535 0.0
H2736 H 0.36435 0.83907 0.15677 0.0
H2737 H 0.33852 0.82087 0.15879 0.0
H2738 H 0.30012 0.92463 0.10572 0.0
H2739 H 0.27546 0.90484 0.10374 0.0
H2740 H 0.33648 0.92322 0.0954 0.0
H2741 H 0.36367 0.91376 0.10782 0.0
C2742 C 0.62165 0.30666 0.12714 0.0
C2743 C 0.64265 0.29449 0.11887 0.0
C2744 C 0.66664 0.33124 0.1241 0.0
C2745 C 0.64558 0.34384 0.13168 0.0
N2746 N 0.60435 0.34277 0.14549 0.0
N2747 N 0.68625 0.29432 0.11393 0.0
C2748 C 0.62345 0.33123 0.1349 0.0
C2749 C 0.66541 0.30623 0.1195 0.0
N2750 N 0.59989 0.29501 0.12636 0.0
N2751 N 0.68777 0.34323 0.11959 0.0
H2752 H 0.68721 0.27583 0.11028 0.0
H2753 H 0.68721 0.27583 0.11028 0.0
H2754 H 0.6893 0.36196 0.11987 0.0
H2755 H 0.70352 0.33441 0.11405 0.0
H2756 H 0.58335 0.30346 0.12938 0.0
H2757 H 0.59844 0.27675 0.12179 0.0
H2758 H 0.58827 0.33421 0.15019 0.0
H2759 H 0.60535 0.36069 0.15133 0.0
C2760 C 0.17703 0.89762 0.38908 0.0
C2761 C 0.16356 0.87868 0.37797 0.0
C2762 C 0.20018 0.85373 0.37554 0.0
C2763 C 0.21299 0.87171 0.38852 0.0
N2764 N 0.21674 0.91339 0.39968 0.0
N2765 N 0.16417 0.84343 0.35258 0.0
C2766 C 0.20243 0.8947 0.39223 0.0
C2767 C 0.17592 0.85837 0.36833 0.0
N2768 N 0.16556 0.91735 0.39851 0.0
N2769 N 0.21056 0.83168 0.37162 0.0
H2770 H 0.14656 0.84698 0.34678 0.0
H2771 H 0.17256 0.82922 0.3435 0.0
H2772 H 0.22852 0.828 0.37606 0.0
H2773 H 0.2011 0.81679 0.36502 0.0
H2774 H 0.17409 0.92992 0.40964 0.0
H2775 H 0.14722 0.92077 0.3963 0.0
H2776 H 0.21075 0.9312 0.40091 0.0
H2777 H 0.23533 0.91127 0.40227 0.0
C2778 C 0.60896 0.16826 0.3959 0.0
C2779 C 0.62743 0.1541 0.38482 0.0
C2780 C 0.65282 0.1903 0.38071 0.0
C2781 C 0.63496 0.20403 0.39293 0.0
N2782 N 0.59328 0.20852 0.404 0.0
N2783 N 0.66233 0.1534 0.3589 0.0
C2784 C 0.61196 0.19378 0.39744 0.0
C2785 C 0.64778 0.16584 0.37449 0.0
N2786 N 0.58964 0.15751 0.4069 0.0
N2787 N 0.67512 0.20002 0.37651 0.0
H2788 H 0.65864 0.1356 0.35383 0.0
H2789 H 0.67637 0.16142 0.34925 0.0
H2790 H 0.67927 0.218 0.38035 0.0
H2791 H 0.68981 0.1899 0.37045 0.0
H2792 H 0.57756 0.16686 0.41791 0.0
H2793 H 0.58631 0.13903 0.40653 0.0
H2794 H 0.57547 0.20256 0.40557 0.0
H2795 H 0.59533 0.22724 0.40537 0.0
C2796 C 0.32652 0.62816 0.36381 0.0
C2797 C 0.3387 0.65062 0.36585 0.0
C2798 C 0.30008 0.67072 0.37391 0.0
C2799 C 0.28935 0.6479 0.37761 0.0
N2800 N 0.29091 0.60466 0.37439 0.0
N2801 N 0.33722 0.6933 0.37569 0.0
C2802 C 0.30201 0.62651 0.37147 0.0
C2803 C 0.32546 0.6721 0.37096 0.0
N2804 N 0.33858 0.60853 0.35492 0.0
N2805 N 0.28615 0.69108 0.37462 0.0
H2806 H 0.35593 0.69489 0.37572 0.0
H2807 H 0.32857 0.70876 0.38208 0.0
H2808 H 0.26749 0.69042 0.37729 0.0
H2809 H 0.29265 0.70815 0.37004 0.0
H2810 H 0.33032 0.592 0.35133 0.0
H2811 H 0.35655 0.60951 0.34921 0.0
H2812 H 0.29982 0.58814 0.37305 0.0
H2813 H 0.27264 0.6033 0.379 0.0
C2814 C 0.88501 0.29828 0.3725 0.0
C2815 C 0.86454 0.28468 0.37968 0.0
C2816 C 0.83837 0.31963 0.37349 0.0
C2817 C 0.8588 0.33355 0.36637 0.0
N2818 N 0.90042 0.33493 0.35374 0.0
N2819 N 0.82126 0.27984 0.37943 0.0
C2820 C 0.88179 0.3224 0.36401 0.0
C2821 C 0.84104 0.29445 0.37715 0.0
N2822 N 0.90752 0.28842 0.37491 0.0
N2823 N 0.817 0.33064 0.37927 0.0
H2824 H 0.82258 0.26135 0.38275 0.0
H2825 H 0.80374 0.28559 0.37552 0.0
H2826 H 0.8145 0.34925 0.37889 0.0
H2827 H 0.80247 0.32159 0.3871 0.0
H2828 H 0.92348 0.29818 0.37277 0.0
H2829 H 0.91008 0.27043 0.38 0.0
H2830 H 0.91714 0.32726 0.34972 0.0
H2831 H 0.89841 0.35257 0.34737 0.0
C2832 C 0.11679 0.19574 0.61083 0.0
C2833 C 0.12169 0.20698 0.63325 0.0
C2834 C 0.14393 0.17091 0.64606 0.0
C2835 C 0.13358 0.15778 0.62656 0.0
N2836 N 0.10899 0.15819 0.59009 0.0
N2837 N 0.14077 0.20587 0.67237 0.0
C2838 C 0.12029 0.17039 0.60839 0.0
C2839 C 0.13605 0.19496 0.65072 0.0
N2840 N 0.10791 0.2093 0.59221 0.0
N2841 N 0.16098 0.16011 0.6603 0.0
H2842 H 0.13582 0.22369 0.67605 0.0
H2843 H 0.1485 0.19691 0.68702 0.0
H2844 H 0.1672 0.14261 0.6569 0.0
H2845 H 0.17056 0.16919 0.67374 0.0
H2846 H 0.10587 0.20271 0.57467 0.0
H2847 H 0.10503 0.22789 0.59391 0.0
H2848 H 0.09646 0.16627 0.57857 0.0
H2849 H 0.11064 0.13974 0.58711 0.0
C2850 C 0.31043 0.11663 0.66038 0.0
C2851 C 0.29586 0.10488 0.64279 0.0
C2852 C 0.3275 0.11148 0.6123 0.0
C2853 C 0.34348 0.1184 0.63111 0.0
N2854 N 0.34552 0.1419 0.66761 0.0
N2855 N 0.28815 0.09504 0.60113 0.0
C2856 C 0.33349 0.12563 0.65353 0.0
C2857 C 0.30349 0.10411 0.61826 0.0
N2858 N 0.30311 0.11766 0.68394 0.0
N2859 N 0.33528 0.11276 0.58891 0.0
H2860 H 0.27021 0.09066 0.60508 0.0
H2861 H 0.29303 0.09155 0.58332 0.0
H2862 H 0.35212 0.12008 0.58454 0.0
H2863 H 0.32458 0.10892 0.57393 0.0
H2864 H 0.31442 0.12319 0.69797 0.0
H2865 H 0.28616 0.11171 0.68963 0.0
H2866 H 0.33848 0.14898 0.68359 0.0
H2867 H 0.36088 0.15086 0.66129 0.0
C2868 C 0.38188 0.32577 0.66174 0.0
C2869 C 0.37438 0.33852 0.64078 0.0
C2870 C 0.37567 0.30071 0.61759 0.0
C2871 C 0.38297 0.28833 0.6388 0.0
N2872 N 0.38412 0.2873 0.68226 0.0
N2873 N 0.35936 0.33762 0.59993 0.0
C2874 C 0.38237 0.30027 0.66134 0.0
C2875 C 0.36942 0.32574 0.61908 0.0
N2876 N 0.391 0.33788 0.68122 0.0
N2877 N 0.37609 0.28879 0.596 0.0
H2878 H 0.35504 0.35598 0.60065 0.0
H2879 H 0.35369 0.32898 0.58419 0.0
H2880 H 0.37975 0.2703 0.59495 0.0
H2881 H 0.37363 0.29724 0.57936 0.0
H2882 H 0.3992 0.32924 0.69583 0.0
H2883 H 0.39265 0.3566 0.68168 0.0
H2884 H 0.38215 0.29512 0.69931 0.0
H2885 H 0.38492 0.26847 0.68235 0.0
C2886 C 0.20273 0.39761 0.60931 0.0
C2887 C 0.21209 0.39379 0.63284 0.0
C2888 C 0.17523 0.37148 0.64317 0.0
C2889 C 0.16367 0.38092 0.62229 0.0
N2890 N 0.16696 0.40351 0.58487 0.0
N2891 N 0.20733 0.37654 0.67258 0.0
C2892 C 0.17769 0.39354 0.60477 0.0
C2893 C 0.19861 0.38004 0.64974 0.0
N2894 N 0.21777 0.40595 0.59161 0.0
N2895 N 0.16366 0.35441 0.65671 0.0
H2896 H 0.22455 0.38207 0.67789 0.0
H2897 H 0.19699 0.36932 0.68656 0.0
H2898 H 0.14692 0.34733 0.65158 0.0
H2899 H 0.17174 0.34548 0.6712 0.0
H2900 H 0.21272 0.40726 0.57351 0.0
H2901 H 0.23611 0.40916 0.59483 0.0
H2902 H 0.17579 0.41547 0.57333 0.0
H2903 H 0.14882 0.4012 0.58052 0.0
C2904 C 0.10442 0.33285 0.88787 0.0
C2905 C 0.11881 0.34627 0.87119 0.0
C2906 C 0.12602 0.30919 0.84768 0.0
C2907 C 0.11068 0.2963 0.86361 0.0
N2908 N 0.09298 0.29322 0.90301 0.0
N2909 N 0.14984 0.34537 0.84067 0.0
C2910 C 0.10291 0.30729 0.88534 0.0
C2911 C 0.13192 0.3337 0.85298 0.0
N2912 N 0.0903 0.34432 0.90459 0.0
N2913 N 0.13361 0.29855 0.82674 0.0
H2914 H 0.15476 0.36313 0.84466 0.0
H2915 H 0.1613 0.33678 0.82844 0.0
H2916 H 0.13022 0.28043 0.82279 0.0
H2917 H 0.14224 0.30795 0.8129 0.0
H2918 H 0.07724 0.33542 0.91482 0.0
H2919 H 0.08997 0.36291 0.90716 0.0
H2920 H 0.0887 0.2997 0.92018 0.0
H2921 H 0.09147 0.27449 0.90111 0.0
C2922 C 0.17818 0.14292 0.85532 0.0
C2923 C 0.16733 0.13527 0.87721 0.0
C2924 C 0.20644 0.11919 0.89047 0.0
C2925 C 0.2149 0.12088 0.86638 0.0
N2926 N 0.20995 0.13602 0.82588 0.0
N2927 N 0.17161 0.11756 0.91694 0.0
C2928 C 0.20139 0.13388 0.84893 0.0
C2929 C 0.18178 0.12452 0.89555 0.0
N2930 N 0.1659 0.15847 0.8406 0.0
N2931 N 0.22192 0.1116 0.90815 0.0
H2932 H 0.15391 0.12173 0.92175 0.0
H2933 H 0.18042 0.10675 0.92958 0.0
H2934 H 0.23997 0.10746 0.90448 0.0
H2935 H 0.21762 0.11165 0.92648 0.0
H2936 H 0.1734 0.16626 0.82519 0.0
H2937 H 0.14891 0.16526 0.84528 0.0
H2938 H 0.19967 0.14269 0.81158 0.0
H2939 H 0.22715 0.13013 0.8209 0.0
C2940 C 0.386 0.16776 0.9018 0.0
C2941 C 0.37451 0.15498 0.8826 0.0
C2942 C 0.37216 0.19222 0.85872 0.0
C2943 C 0.38559 0.20437 0.87686 0.0
N2944 N 0.3973 0.20686 0.91853 0.0
N2945 N 0.34827 0.15703 0.84804 0.0
C2946 C 0.38949 0.19316 0.89952 0.0
C2947 C 0.36454 0.16808 0.86295 0.0
N2948 N 0.39535 0.15566 0.92119 0.0
N2949 N 0.36835 0.20292 0.83679 0.0
H2950 H 0.34245 0.13937 0.85115 0.0
H2951 H 0.33888 0.16602 0.83441 0.0
H2952 H 0.37329 0.2207 0.8331 0.0
H2953 H 0.36145 0.19372 0.82186 0.0
H2954 H 0.40692 0.16363 0.93374 0.0
H2955 H 0.39236 0.13743 0.92449 0.0
H2956 H 0.39869 0.20036 0.93615 0.0
H2957 H 0.40005 0.22547 0.91691 0.0
C2958 C 0.32269 0.38286 0.83669 0.0
C2959 C 0.33198 0.37484 0.85926 0.0
C2960 C 0.29248 0.38221 0.87801 0.0
C2961 C 0.28346 0.38977 0.85524 0.0
N2962 N 0.28742 0.38989 0.81188 0.0
N2963 N 0.32486 0.36241 0.90033 0.0
C2964 C 0.29766 0.38711 0.8342 0.0
C2965 C 0.31649 0.37289 0.8796 0.0
N2966 N 0.33799 0.38891 0.8183 0.0
N2967 N 0.27843 0.38499 0.8981 0.0
H2968 H 0.34244 0.3557 0.90186 0.0
H2969 H 0.31396 0.3587 0.91522 0.0
H2970 H 0.26049 0.39081 0.89705 0.0
H2971 H 0.28471 0.38244 0.91566 0.0
H2972 H 0.33232 0.39733 0.80242 0.0
H2973 H 0.35665 0.38806 0.81999 0.0
H2974 H 0.2966 0.38607 0.79587 0.0
H2975 H 0.26908 0.39357 0.80948 0.0
C2976 C 0.62675 0.11787 0.19071 0.0
C2977 C 0.64106 0.10783 0.17191 0.0
C2978 C 0.6617 0.08212 0.20142 0.0
C2979 C 0.64527 0.08957 0.21967 0.0
N2980 N 0.60972 0.11229 0.23081 0.0
N2981 N 0.66856 0.07641 0.15874 0.0
C2982 C 0.62716 0.10698 0.21416 0.0
C2983 C 0.65735 0.08867 0.17705 0.0
N2984 N 0.61278 0.13771 0.18617 0.0
N2985 N 0.68208 0.06949 0.20749 0.0
H2986 H 0.66684 0.081 0.14056 0.0
H2987 H 0.67833 0.06053 0.16156 0.0
H2988 H 0.68662 0.06541 0.22534 0.0
H2989 H 0.69575 0.0655 0.19515 0.0
H2990 H 0.60392 0.14739 0.19968 0.0
H2991 H 0.61138 0.14544 0.16902 0.0
H2992 H 0.59465 0.12291 0.22696 0.0
H2993 H 0.60927 0.1045 0.24797 0.0
C2994 C 0.64684 0.37671 0.30557 0.0
C2995 C 0.62879 0.38961 0.29263 0.0
C2996 C 0.60013 0.38276 0.3258 0.0
C2997 C 0.61984 0.37556 0.34045 0.0
N2998 N 0.65578 0.35132 0.34027 0.0
N2999 N 0.58701 0.40082 0.28788 0.0
C3000 C 0.6413 0.36777 0.32899 0.0
C3001 C 0.6048 0.39076 0.30177 0.0
N3002 N 0.6697 0.37473 0.29647 0.0
N3003 N 0.57718 0.38098 0.33467 0.0
H3004 H 0.58991 0.40564 0.26986 0.0
H3005 H 0.56976 0.40487 0.29419 0.0
H3006 H 0.57368 0.37285 0.35133 0.0
H3007 H 0.56169 0.38484 0.3247 0.0
H3008 H 0.68422 0.36809 0.30648 0.0
H3009 H 0.67441 0.3808 0.27928 0.0
H3010 H 0.67071 0.34332 0.33201 0.0
H3011 H 0.65089 0.34358 0.35678 0.0
C3012 C 0.13619 0.65788 0.30574 0.0
C3013 C 0.12459 0.63992 0.29166 0.0
C3014 C 0.12518 0.61198 0.32606 0.0
C3015 C 0.13388 0.63107 0.34099 0.0
N3016 N 0.15679 0.66785 0.34325 0.0
N3017 N 0.11684 0.59791 0.2851 0.0
C3018 C 0.14264 0.65253 0.33007 0.0
C3019 C 0.1226 0.61611 0.30074 0.0
N3020 N 0.13919 0.68055 0.2965 0.0
N3021 N 0.11745 0.59081 0.33611 0.0
H3022 H 0.11453 0.60118 0.26663 0.0
H3023 H 0.11665 0.57972 0.2899 0.0
H3024 H 0.11956 0.58668 0.35433 0.0
H3025 H 0.10806 0.57761 0.32652 0.0
H3026 H 0.14457 0.69536 0.30682 0.0
H3027 H 0.13542 0.68463 0.27848 0.0
H3028 H 0.16518 0.68308 0.33605 0.0
H3029 H 0.16209 0.66367 0.36086 0.0
C3030 C 0.89354 0.12685 0.32519 0.0
C3031 C 0.87406 0.13545 0.33965 0.0
C3032 C 0.8465 0.13263 0.30515 0.0
C3033 C 0.86524 0.12161 0.29159 0.0
N3034 N 0.90771 0.11626 0.2849 0.0
N3035 N 0.83546 0.15523 0.34117 0.0
C3036 C 0.88925 0.12177 0.30034 0.0
C3037 C 0.85174 0.14151 0.32866 0.0
N3038 N 0.9154 0.1216 0.33542 0.0
N3039 N 0.82342 0.13291 0.29633 0.0
H3040 H 0.83928 0.16191 0.35842 0.0
H3041 H 0.81948 0.16182 0.33368 0.0
H3042 H 0.81912 0.12711 0.27891 0.0
H3043 H 0.80845 0.13787 0.30661 0.0
H3044 H 0.92901 0.11214 0.3265 0.0
H3045 H 0.91984 0.1259 0.35317 0.0
H3046 H 0.92591 0.11786 0.28944 0.0
H3047 H 0.9046 0.11232 0.26668 0.0
C3048 C 0.37836 0.85286 0.30277 0.0
C3049 C 0.3933 0.86894 0.28954 0.0
C3050 C 0.39334 0.89756 0.32334 0.0
C3051 C 0.37983 0.88067 0.33727 0.0
N3052 N 0.35245 0.84698 0.33775 0.0
N3053 N 0.40767 0.9094 0.28352 0.0
C3054 C 0.36982 0.85996 0.32596 0.0
C3055 C 0.39802 0.89239 0.29858 0.0
N3056 N 0.37374 0.83026 0.29394 0.0
N3057 N 0.40349 0.91739 0.33402 0.0
H3058 H 0.41133 0.90574 0.26535 0.0
H3059 H 0.40972 0.9275 0.28829 0.0
H3060 H 0.4004 0.92231 0.3519 0.0
H3061 H 0.41615 0.92838 0.32547 0.0
H3062 H 0.36541 0.81671 0.304 0.0
H3063 H 0.37931 0.82465 0.27683 0.0
H3064 H 0.34305 0.83267 0.3299 0.0
H3065 H 0.34587 0.85218 0.35468 0.0
C3066 C 0.8491 0.36911 0.19051 0.0
C3067 C 0.86903 0.37706 0.20465 0.0
C3068 C 0.89634 0.36867 0.17075 0.0
C3069 C 0.87587 0.36713 0.15544 0.0
N3070 N 0.83579 0.35075 0.15283 0.0
N3071 N 0.91201 0.38011 0.21026 0.0
C3072 C 0.8531 0.36234 0.16604 0.0
C3073 C 0.89291 0.3748 0.19553 0.0
N3074 N 0.82625 0.3699 0.19981 0.0
N3075 N 0.91867 0.36344 0.16167 0.0
H3076 H 0.90974 0.38357 0.22869 0.0
H3077 H 0.92978 0.38164 0.20426 0.0
H3078 H 0.92085 0.35672 0.14416 0.0
H3079 H 0.93438 0.363 0.17202 0.0
H3080 H 0.81076 0.36707 0.18949 0.0
H3081 H 0.82271 0.37427 0.21779 0.0
H3082 H 0.8193 0.3451 0.15995 0.0
H3083 H 0.83935 0.34428 0.13547 0.0
C3084 C 0.12605 0.90187 0.17977 0.0
C3085 C 0.13565 0.88254 0.1657 0.0
C3086 C 0.13597 0.85637 0.20153 0.0
C3087 C 0.12461 0.87499 0.21498 0.0
N3088 N 0.11703 0.91733 0.21998 0.0
N3089 N 0.15808 0.84534 0.16525 0.0
C3090 C 0.12281 0.8985 0.2051 0.0
C3091 C 0.14356 0.86115 0.17742 0.0
N3092 N 0.11804 0.92256 0.16892 0.0
N3093 N 0.13787 0.8337 0.21108 0.0
H3094 H 0.16403 0.84878 0.14768 0.0
H3095 H 0.16609 0.83031 0.17331 0.0
H3096 H 0.13311 0.82976 0.22889 0.0
H3097 H 0.14307 0.81864 0.20103 0.0
H3098 H 0.10801 0.93571 0.1779 0.0
H3099 H 0.12016 0.9262 0.15061 0.0
H3100 H 0.11728 0.93534 0.2145 0.0
H3101 H 0.11438 0.91489 0.23852 0.0
C3102 C 0.3757 0.65202 0.19503 0.0
C3103 C 0.38873 0.63464 0.20861 0.0
C3104 C 0.38902 0.60704 0.17392 0.0
C3105 C 0.37847 0.62555 0.1596 0.0
N3106 N 0.35338 0.66088 0.1582 0.0
N3107 N 0.39994 0.59319 0.21427 0.0
C3108 C 0.3688 0.64639 0.1709 0.0
C3109 C 0.39234 0.61113 0.19914 0.0
N3110 N 0.37159 0.67444 0.2045 0.0
N3111 N 0.39764 0.58653 0.16322 0.0
H3112 H 0.4026 0.59625 0.23273 0.0
H3113 H 0.40138 0.57514 0.20914 0.0
H3114 H 0.39494 0.58258 0.14501 0.0
H3115 H 0.40825 0.5738 0.17216 0.0
H3116 H 0.36494 0.68889 0.19444 0.0
H3117 H 0.3758 0.67882 0.22235 0.0
H3118 H 0.3443 0.67556 0.16572 0.0
H3119 H 0.34788 0.65646 0.14068 0.0
C3120 C 0.81268 0.38075 0.86235 0.0
C3121 C 0.82897 0.36158 0.86737 0.0
C3122 C 0.79644 0.33883 0.88668 0.0
C3123 C 0.78141 0.35945 0.88554 0.0
N3124 N 0.77477 0.40051 0.87287 0.0
N3125 N 0.83749 0.3248 0.88942 0.0
C3126 C 0.78925 0.38052 0.87322 0.0
C3127 C 0.82112 0.3411 0.88067 0.0
N3128 N 0.81968 0.39909 0.8474 0.0
N3129 N 0.78718 0.31717 0.8941 0.0
H3130 H 0.85604 0.32645 0.88673 0.0
H3131 H 0.8329 0.31102 0.90142 0.0
H3132 H 0.76896 0.31494 0.89848 0.0
H3133 H 0.79695 0.30107 0.89338 0.0
H3134 H 0.80803 0.41259 0.84137 0.0
H3135 H 0.83685 0.39972 0.83958 0.0
H3136 H 0.7804 0.41731 0.86654 0.0
H3137 H 0.75732 0.40046 0.88003 0.0
C3138 C 0.12833 0.82739 0.87968 0.0
C3139 C 0.14622 0.84386 0.88792 0.0
C3140 C 0.16978 0.81008 0.90413 0.0
C3141 C 0.14984 0.79455 0.90047 0.0
N3142 N 0.10992 0.78773 0.88464 0.0
N3143 N 0.18288 0.85101 0.91088 0.0
C3144 C 0.12916 0.80287 0.88777 0.0
C3145 C 0.1668 0.83523 0.90072 0.0
N3146 N 0.1104 0.8353 0.86466 0.0
N3147 N 0.19144 0.8007 0.91147 0.0
H3148 H 0.18192 0.86965 0.90859 0.0
H3149 H 0.19638 0.84569 0.92291 0.0
H3150 H 0.19399 0.78219 0.91412 0.0
H3151 H 0.20728 0.81086 0.91241 0.0
H3152 H 0.09798 0.82381 0.85639 0.0
H3153 H 0.1091 0.85325 0.85903 0.0
H3154 H 0.09321 0.79335 0.87803 0.0
H3155 H 0.11047 0.76958 0.88973 0.0
C3156 C 0.70262 0.15617 0.88023 0.0
C3157 C 0.71571 0.13703 0.89115 0.0
C3158 C 0.68105 0.10989 0.88609 0.0
C3159 C 0.66725 0.12959 0.87687 0.0
N3160 N 0.66734 0.16817 0.85694 0.0
N3161 N 0.7209 0.09436 0.89646 0.0
C3162 C 0.67902 0.1516 0.87103 0.0
C3163 C 0.70609 0.11335 0.89101 0.0
N3164 N 0.71198 0.17901 0.8802 0.0
N3165 N 0.67008 0.08863 0.8922 0.0
H3166 H 0.73923 0.09681 0.9003 0.0
H3167 H 0.7157 0.07634 0.89479 0.0
H3168 H 0.65198 0.08487 0.88879 0.0
H3169 H 0.67868 0.07501 0.90196 0.0
H3170 H 0.70206 0.19425 0.87533 0.0
H3171 H 0.72944 0.18284 0.8862 0.0
H3172 H 0.67552 0.18382 0.85043 0.0
H3173 H 0.65015 0.1649 0.84981 0.0
C3174 C 0.3748 0.70087 0.88772 0.0
C3175 C 0.35235 0.71314 0.88874 0.0
C3176 C 0.3322 0.67729 0.87295 0.0
C3177 C 0.35286 0.66353 0.87904 0.0
N3178 N 0.39537 0.6621 0.88835 0.0
N3179 N 0.30965 0.71413 0.87999 0.0
C3180 C 0.37493 0.67537 0.88444 0.0
C3181 C 0.33111 0.70193 0.87988 0.0
N3182 N 0.39565 0.71365 0.89104 0.0
N3183 N 0.31352 0.66641 0.8611 0.0
H3184 H 0.30835 0.7324 0.88441 0.0
H3185 H 0.29302 0.70593 0.87668 0.0
H3186 H 0.31483 0.64858 0.8552 0.0
H3187 H 0.29837 0.67562 0.85476 0.0
H3188 H 0.41286 0.70627 0.88912 0.0
H3189 H 0.39548 0.73235 0.89367 0.0
H3190 H 0.41132 0.66926 0.89533 0.0
H3191 H 0.39617 0.64358 0.88498 0.0
C3192 C 0.83577 0.15406 0.63471 0.0
C3193 C 0.84643 0.13297 0.62472 0.0
C3194 C 0.80628 0.12038 0.61049 0.0
C3195 C 0.79743 0.144 0.61488 0.0
N3196 N 0.8038 0.18383 0.63146 0.0
N3197 N 0.84132 0.0956 0.60233 0.0
C3198 C 0.81198 0.16086 0.6276 0.0
C3199 C 0.83146 0.11559 0.61298 0.0
N3200 N 0.84858 0.16763 0.65088 0.0
N3201 N 0.79055 0.10278 0.60323 0.0
H3202 H 0.85952 0.09105 0.60348 0.0
H3203 H 0.83162 0.08418 0.5909 0.0
H3204 H 0.77207 0.1061 0.60121 0.0
H3205 H 0.79535 0.08463 0.60168 0.0
H3206 H 0.84124 0.18224 0.66025 0.0
H3207 H 0.86576 0.16251 0.65677 0.0
H3208 H 0.81476 0.19772 0.63791 0.0
H3209 H 0.78637 0.18938 0.62689 0.0
C3210 C 0.35083 0.80312 0.62524 0.0
C3211 C 0.36649 0.78935 0.61034 0.0
C3212 C 0.39421 0.82394 0.6072 0.0
C3213 C 0.37786 0.8382 0.62108 0.0
N3214 N 0.34609 0.83859 0.6507 0.0
N3215 N 0.40649 0.78364 0.59458 0.0
C3216 C 0.35798 0.82677 0.63261 0.0
C3217 C 0.38951 0.79877 0.60418 0.0
N3218 N 0.32855 0.79429 0.63112 0.0
N3219 N 0.41299 0.83454 0.59518 0.0
H3220 H 0.40315 0.76522 0.59211 0.0
H3221 H 0.42435 0.78876 0.59148 0.0
H3222 H 0.41723 0.8528 0.59655 0.0
H3223 H 0.42351 0.82547 0.58246 0.0
H3224 H 0.31519 0.80469 0.63939 0.0
H3225 H 0.32303 0.77685 0.62658 0.0
H3226 H 0.33248 0.8307 0.66104 0.0
H3227 H 0.35193 0.85538 0.65707 0.0
C3228 C 0.68162 0.38407 0.62874 0.0
C3229 C 0.6674 0.36344 0.63396 0.0
C3230 C 0.70188 0.3369 0.62589 0.0
C3231 C 0.71511 0.35729 0.61778 0.0
N3232 N 0.7212 0.40019 0.61803 0.0
N3233 N 0.66557 0.32149 0.64524 0.0
C3234 C 0.70621 0.38094 0.62179 0.0
C3235 C 0.67824 0.34027 0.63544 0.0
N3236 N 0.67109 0.4064 0.62921 0.0
N3237 N 0.71131 0.31428 0.62269 0.0
H3238 H 0.64827 0.32367 0.65237 0.0
H3239 H 0.67281 0.3044 0.64828 0.0
H3240 H 0.72895 0.31149 0.61663 0.0
H3241 H 0.70157 0.29839 0.6252 0.0
H3242 H 0.67944 0.42213 0.62321 0.0
H3243 H 0.65342 0.40899 0.63536 0.0
H3244 H 0.71655 0.41803 0.62174 0.0
H3245 H 0.73922 0.3979 0.61289 0.0
C3246 C 0.1504 0.6982 0.62871 0.0
C3247 C 0.13185 0.71172 0.61727 0.0
C3248 C 0.10365 0.6779 0.6218 0.0
C3249 C 0.123 0.66353 0.63077 0.0
N3250 N 0.16093 0.66237 0.6518 0.0
N3251 N 0.08944 0.71817 0.61115 0.0
C3252 C 0.14503 0.67468 0.6375 0.0
C3253 C 0.10787 0.70282 0.61699 0.0
N3254 N 0.17348 0.70695 0.6294 0.0
N3255 N 0.08202 0.66752 0.61597 0.0
H3256 H 0.09255 0.73641 0.60741 0.0
H3257 H 0.07124 0.7135 0.6123 0.0
H3258 H 0.07777 0.64964 0.61995 0.0
H3259 H 0.06849 0.67641 0.60635 0.0
H3260 H 0.18832 0.69661 0.63467 0.0
H3261 H 0.17795 0.72431 0.62363 0.0
H3262 H 0.17658 0.67005 0.65894 0.0
H3263 H 0.15699 0.64513 0.65841 0.0
C3264 C 0.87981 0.83155 0.39567 0.0
C3265 C 0.8712 0.84518 0.37564 0.0
C3266 C 0.87276 0.80918 0.34987 0.0
C3267 C 0.88425 0.79657 0.36892 0.0
N3268 N 0.89073 0.79202 0.41157 0.0
N3269 N 0.85103 0.84524 0.33722 0.0
C3270 C 0.88468 0.80649 0.3925 0.0
C3271 C 0.8646 0.83321 0.35396 0.0
N3272 N 0.88532 0.8428 0.41697 0.0
N3273 N 0.87123 0.79868 0.32758 0.0
H3274 H 0.84492 0.86284 0.34025 0.0
H3275 H 0.84418 0.83724 0.3216 0.0
H3276 H 0.87635 0.78075 0.32463 0.0
H3277 H 0.86568 0.8078 0.31208 0.0
H3278 H 0.89486 0.83456 0.43095 0.0
H3279 H 0.88105 0.86075 0.42055 0.0
H3280 H 0.88962 0.79746 0.42956 0.0
H3281 H 0.89467 0.77371 0.40937 0.0
C3282 C 0.70848 0.88086 0.39136 0.0
C3283 C 0.71858 0.88156 0.36788 0.0
C3284 C 0.68191 0.86265 0.35179 0.0
C3285 C 0.66984 0.86784 0.37381 0.0
N3286 N 0.67195 0.88163 0.41536 0.0
N3287 N 0.71577 0.87195 0.32552 0.0
C3288 C 0.68333 0.87616 0.39412 0.0
C3289 C 0.70577 0.87151 0.34809 0.0
N3290 N 0.72293 0.88555 0.41083 0.0
N3291 N 0.67028 0.84949 0.33442 0.0
H3292 H 0.73347 0.87765 0.3224 0.0
H3293 H 0.7062 0.86772 0.30985 0.0
H3294 H 0.65289 0.84262 0.33707 0.0
H3295 H 0.6786 0.84347 0.31864 0.0
H3296 H 0.71732 0.88341 0.42868 0.0
H3297 H 0.74135 0.88925 0.40893 0.0
H3298 H 0.68035 0.89074 0.42954 0.0
H3299 H 0.65372 0.87835 0.41852 0.0
C3300 C 0.61446 0.67385 0.40295 0.0
C3301 C 0.62531 0.65986 0.3842 0.0
C3302 C 0.6301 0.69656 0.35961 0.0
C3303 C 0.61785 0.71008 0.37761 0.0
N3304 N 0.60668 0.71398 0.41925 0.0
N3305 N 0.65139 0.65955 0.3494 0.0
C3306 C 0.61326 0.69946 0.40041 0.0
C3307 C 0.6359 0.67188 0.36414 0.0
N3308 N 0.60333 0.66288 0.42206 0.0
N3309 N 0.63467 0.70674 0.3376 0.0
H3310 H 0.65615 0.6416 0.3527 0.0
H3311 H 0.66128 0.66775 0.33563 0.0
H3312 H 0.63132 0.72493 0.33398 0.0
H3313 H 0.64068 0.6969 0.32271 0.0
H3314 H 0.59258 0.67216 0.43443 0.0
H3315 H 0.6033 0.64431 0.4249 0.0
H3316 H 0.60492 0.70781 0.43696 0.0
H3317 H 0.60546 0.73273 0.41737 0.0
C3318 C 0.79728 0.61668 0.38761 0.0
C3319 C 0.78732 0.61127 0.36463 0.0
C3320 C 0.826 0.6195 0.3452 0.0
C3321 C 0.83633 0.62475 0.36817 0.0
N3322 N 0.83086 0.63371 0.4104 0.0
N3323 N 0.78952 0.61522 0.32138 0.0
C3324 C 0.82155 0.62527 0.38913 0.0
C3325 C 0.80075 0.61577 0.34338 0.0
N3326 N 0.78388 0.61243 0.40789 0.0
N3327 N 0.84045 0.61546 0.32556 0.0
H3328 H 0.77102 0.612 0.31954 0.0
H3329 H 0.79801 0.62041 0.30538 0.0
H3330 H 0.85922 0.61606 0.3263 0.0
H3331 H 0.83397 0.60898 0.30909 0.0
H3332 H 0.79083 0.61327 0.42537 0.0
H3333 H 0.76577 0.60716 0.40699 0.0
H3334 H 0.82058 0.63632 0.42595 0.0
H3335 H 0.84859 0.64003 0.41182 0.0
C3336 C 0.87015 0.67674 0.13326 0.0
C3337 C 0.87704 0.66488 0.15491 0.0
C3338 C 0.89115 0.70332 0.17165 0.0
C3339 C 0.88897 0.71393 0.14852 0.0
N3340 N 0.87561 0.71178 0.10725 0.0
N3341 N 0.89792 0.66625 0.19337 0.0
C3342 C 0.87777 0.70105 0.12937 0.0
C3343 C 0.88811 0.67806 0.174 0.0
N3344 N 0.85658 0.66469 0.1165 0.0
N3345 N 0.89729 0.71722 0.19113 0.0
H3346 H 0.89775 0.64754 0.19514 0.0
H3347 H 0.90849 0.67475 0.20646 0.0
H3348 H 0.90014 0.7358 0.18987 0.0
H3349 H 0.89703 0.71078 0.20883 0.0
H3350 H 0.84934 0.67284 0.10116 0.0
H3351 H 0.851 0.64684 0.119 0.0
H3352 H 0.87024 0.70265 0.09168 0.0
H3353 H 0.88008 0.7299 0.10447 0.0
C3354 C 0.8034 0.88177 0.12632 0.0
C3355 C 0.79146 0.88798 0.14814 0.0
C3356 C 0.82915 0.88313 0.17068 0.0
C3357 C 0.84134 0.8767 0.14893 0.0
N3358 N 0.83917 0.86485 0.10709 0.0
N3359 N 0.79093 0.88735 0.19162 0.0
C3360 C 0.82811 0.87429 0.12705 0.0
C3361 C 0.80365 0.8858 0.17051 0.0
N3362 N 0.79135 0.88409 0.10489 0.0
N3363 N 0.84199 0.8891 0.19096 0.0
H3364 H 0.77224 0.88983 0.19202 0.0
H3365 H 0.79851 0.8837 0.20848 0.0
H3366 H 0.86078 0.88948 0.19155 0.0
H3367 H 0.83411 0.89635 0.20645 0.0
H3368 H 0.79965 0.88269 0.08806 0.0
H3369 H 0.77298 0.8884 0.10412 0.0
H3370 H 0.83007 0.86071 0.09114 0.0
H3371 H 0.85721 0.85927 0.10723 0.0
C3372 C 0.62879 0.80105 0.11821 0.0
C3373 C 0.62872 0.79251 0.14231 0.0
C3374 C 0.64822 0.82987 0.15545 0.0
C3375 C 0.64149 0.84063 0.13327 0.0
N3376 N 0.62846 0.83606 0.09186 0.0
N3377 N 0.64089 0.79736 0.18387 0.0
C3378 C 0.63348 0.82594 0.1138 0.0
C3379 C 0.63996 0.80618 0.16084 0.0
N3380 N 0.62324 0.78543 0.09992 0.0
N3381 N 0.66187 0.84278 0.17145 0.0
H3382 H 0.6355 0.77984 0.18821 0.0
H3383 H 0.64615 0.80766 0.19874 0.0
H3384 H 0.66788 0.86021 0.16745 0.0
H3385 H 0.66901 0.8355 0.18728 0.0
H3386 H 0.62444 0.78986 0.08166 0.0
H3387 H 0.61956 0.76721 0.10325 0.0
H3388 H 0.61961 0.82696 0.07795 0.0
H3389 H 0.63261 0.85393 0.08771 0.0
C3390 C 0.70539 0.63572 0.161 0.0
C3391 C 0.71888 0.62496 0.14205 0.0
C3392 C 0.68397 0.62817 0.11487 0.0
C3393 C 0.66976 0.63686 0.13452 0.0
N3394 N 0.66916 0.6576 0.1727 0.0
N3395 N 0.72428 0.61934 0.09949 0.0
C3396 C 0.68136 0.6437 0.15637 0.0
C3397 C 0.70924 0.62448 0.11836 0.0
N3398 N 0.71484 0.63661 0.1838 0.0
N3399 N 0.67325 0.62141 0.09366 0.0
H3400 H 0.74274 0.61631 0.10211 0.0
H3401 H 0.71904 0.62047 0.08143 0.0
H3402 H 0.65498 0.6239 0.08999 0.0
H3403 H 0.68228 0.61208 0.08003 0.0
H3404 H 0.70476 0.64128 0.19901 0.0
H3405 H 0.73263 0.63164 0.18759 0.0
H3406 H 0.67715 0.66486 0.18815 0.0
H3407 H 0.65168 0.66387 0.16933 0.0
C3408 C 0.38637 0.88253 0.80831 0.0
C3409 C 0.36487 0.88655 0.79498 0.0
C3410 C 0.34072 0.8824 0.83143 0.0
C3411 C 0.36212 0.8786 0.84535 0.0
N3412 N 0.40503 0.87014 0.84609 0.0
N3413 N 0.32184 0.88136 0.79198 0.0
C3414 C 0.38485 0.87663 0.8334 0.0
C3415 C 0.34218 0.883 0.80593 0.0
N3416 N 0.40816 0.88575 0.79716 0.0
N3417 N 0.31916 0.88731 0.84234 0.0
H3418 H 0.32231 0.88221 0.77317 0.0
H3419 H 0.305 0.87651 0.79891 0.0
H3420 H 0.31715 0.88841 0.86084 0.0
H3421 H 0.30381 0.89298 0.83299 0.0
H3422 H 0.42464 0.88613 0.80625 0.0
H3423 H 0.40948 0.88897 0.77859 0.0
H3424 H 0.42156 0.86625 0.83796 0.0
H3425 H 0.40497 0.86709 0.86467 0.0
C3426 C 0.34745 0.62583 0.69559 0.0
C3427 C 0.36623 0.61428 0.70865 0.0
C3428 C 0.39182 0.61409 0.67245 0.0
C3429 C 0.37249 0.62446 0.6589 0.0
N3430 N 0.33593 0.64802 0.65949 0.0
N3431 N 0.40857 0.60558 0.71221 0.0
C3432 C 0.35168 0.63308 0.67124 0.0
C3433 C 0.3893 0.61153 0.69795 0.0
N3434 N 0.32515 0.62844 0.70584 0.0
N3435 N 0.41162 0.60463 0.66108 0.0
H3436 H 0.40686 0.60343 0.7309 0.0
H3437 H 0.42634 0.60529 0.706 0.0
H3438 H 0.41461 0.60573 0.64257 0.0
H3439 H 0.4245 0.5941 0.6699 0.0
H3440 H 0.30992 0.63393 0.6962 0.0
H3441 H 0.32163 0.62389 0.72379 0.0
H3442 H 0.32139 0.65647 0.66799 0.0
H3443 H 0.33898 0.65388 0.64181 0.0
C3444 C 0.87724 0.34953 0.68487 0.0
C3445 C 0.88999 0.36744 0.69804 0.0
C3446 C 0.89033 0.3939 0.66248 0.0
C3447 C 0.87918 0.37518 0.64875 0.0
N3448 N 0.85388 0.3399 0.64897 0.0
N3449 N 0.90078 0.40919 0.7024 0.0
C3450 C 0.86976 0.35462 0.6608 0.0
C3451 C 0.89352 0.39063 0.68783 0.0
N3452 N 0.87381 0.32713 0.69465 0.0
N3453 N 0.89972 0.41379 0.65127 0.0
H3454 H 0.90336 0.40685 0.72097 0.0
H3455 H 0.90186 0.42708 0.69665 0.0
H3456 H 0.8976 0.41735 0.63294 0.0
H3457 H 0.91082 0.42627 0.65999 0.0
H3458 H 0.86743 0.31241 0.68477 0.0
H3459 H 0.87852 0.32295 0.71242 0.0
H3460 H 0.84494 0.32552 0.65721 0.0
H3461 H 0.84777 0.34387 0.63156 0.0
C3462 C 0.12742 0.87591 0.7044 0.0
C3463 C 0.14543 0.89086 0.71487 0.0
C3464 C 0.1674 0.89223 0.67664 0.0
C3465 C 0.14897 0.87797 0.6657 0.0
N3466 N 0.11463 0.85157 0.67002 0.0
N3467 N 0.18593 0.90651 0.71373 0.0
C3468 C 0.13015 0.868 0.67998 0.0
C3469 C 0.16668 0.89648 0.70189 0.0
N3470 N 0.10719 0.8705 0.71746 0.0
N3471 N 0.18485 0.9029 0.66276 0.0
H3472 H 0.18567 0.91001 0.73226 0.0
H3473 H 0.20281 0.90903 0.70578 0.0
H3474 H 0.18667 0.89981 0.64427 0.0
H3475 H 0.19672 0.91599 0.66926 0.0
H3476 H 0.09198 0.86209 0.71021 0.0
H3477 H 0.10542 0.8753 0.73563 0.0
H3478 H 0.1017 0.84215 0.67992 0.0
H3479 H 0.1159 0.84602 0.65203 0.0
C3480 C 0.61859 0.11619 0.70152 0.0
C3481 C 0.62095 0.13841 0.71394 0.0
C3482 C 0.6419 0.15517 0.67872 0.0
C3483 C 0.63349 0.13554 0.66446 0.0
N3484 N 0.61259 0.09689 0.66288 0.0
N3485 N 0.63554 0.17947 0.71462 0.0
C3486 C 0.62214 0.1155 0.67605 0.0
C3487 C 0.63339 0.15787 0.70286 0.0
N3488 N 0.61187 0.09605 0.71408 0.0
N3489 N 0.65772 0.17139 0.66894 0.0
H3490 H 0.62999 0.18199 0.73245 0.0
H3491 H 0.64166 0.19519 0.70626 0.0
H3492 H 0.66446 0.16945 0.65142 0.0
H3493 H 0.66597 0.18508 0.67892 0.0
H3494 H 0.6117 0.07878 0.70655 0.0
H3495 H 0.60895 0.09649 0.73274 0.0
H3496 H 0.60139 0.08374 0.67037 0.0
H3497 H 0.61422 0.0952 0.64425 0.0
C3498 C 0.16311 0.6141 0.82864 0.0
C3499 C 0.14505 0.6292 0.83885 0.0
C3500 C 0.12467 0.63134 0.79944 0.0
C3501 C 0.14335 0.61694 0.78932 0.0
N3502 N 0.18386 0.60136 0.79234 0.0
N3503 N 0.11108 0.65584 0.83342 0.0
C3504 C 0.16388 0.61088 0.80331 0.0
C3505 C 0.12665 0.63916 0.824 0.0
N3506 N 0.17844 0.60129 0.8432 0.0
N3507 N 0.1046 0.63645 0.78599 0.0
H3508 H 0.11199 0.66146 0.85142 0.0
H3509 H 0.09856 0.66536 0.82306 0.0
H3510 H 0.10309 0.63154 0.76783 0.0
H3511 H 0.08912 0.6445 0.79306 0.0
H3512 H 0.19013 0.58802 0.83668 0.0
H3513 H 0.17799 0.60226 0.86201 0.0
H3514 H 0.20014 0.59846 0.80141 0.0
H3515 H 0.18484 0.5988 0.77366 0.0
C3516 C 0.87032 0.12938 0.82155 0.0
C3517 C 0.87797 0.14867 0.83667 0.0
C3518 C 0.89342 0.17009 0.80136 0.0
C3519 C 0.89103 0.14879 0.78755 0.0
N3520 N 0.87662 0.10801 0.78356 0.0
N3521 N 0.90126 0.18555 0.84109 0.0
C3522 C 0.87883 0.12846 0.7972 0.0
C3523 C 0.89041 0.16876 0.8266 0.0
N3524 N 0.85567 0.11175 0.83067 0.0
N3525 N 0.89988 0.19126 0.79041 0.0
H3526 H 0.9006 0.18483 0.85984 0.0
H3527 H 0.91273 0.19897 0.83452 0.0
H3528 H 0.90245 0.19254 0.77175 0.0
H3529 H 0.90012 0.20779 0.79948 0.0
H3530 H 0.84802 0.09817 0.8201 0.0
H3531 H 0.84967 0.11189 0.84856 0.0
H3532 H 0.87033 0.09163 0.79034 0.0
H3533 H 0.88211 0.10734 0.76552 0.0
C3534 C 0.60841 0.39621 0.8124 0.0
C3535 C 0.61169 0.37345 0.80128 0.0
C3536 C 0.63044 0.35823 0.83835 0.0
C3537 C 0.62138 0.37862 0.85106 0.0
N3538 N 0.60252 0.41813 0.84982 0.0
N3539 N 0.62798 0.33325 0.80231 0.0
C3540 C 0.61131 0.39835 0.83791 0.0
C3541 C 0.62406 0.35482 0.81367 0.0
N3542 N 0.60147 0.41537 0.79849 0.0
N3543 N 0.64481 0.342 0.85014 0.0
H3544 H 0.62431 0.33076 0.78396 0.0
H3545 H 0.63398 0.31774 0.81112 0.0
H3546 H 0.64954 0.34421 0.86824 0.0
H3547 H 0.65369 0.32777 0.8416 0.0
H3548 H 0.60049 0.43306 0.80486 0.0
H3549 H 0.59902 0.41369 0.77983 0.0
H3550 H 0.59222 0.43151 0.84151 0.0
H3551 H 0.60439 0.42078 0.86835 0.0
C3552 C 0.01908 0.67572 0.31516 0.0
C3553 C 0.99873 0.66185 0.30801 0.0
C3554 C 0.02015 0.64825 0.27179 0.0
C3555 C 0.04015 0.66273 0.27856 0.0
N3556 N 0.05569 0.69589 0.30224 0.0
N3557 N 0.97705 0.64217 0.27548 0.0
C3558 C 0.03852 0.67847 0.29874 0.0
C3559 C 0.99834 0.65036 0.28502 0.0
N3560 N 0.02073 0.68489 0.33806 0.0
N3561 N 0.02224 0.63164 0.25363 0.0
H3562 H 0.96041 0.64479 0.28398 0.0
H3563 H 0.97557 0.63541 0.25794 0.0
H3564 H 0.03798 0.62943 0.24351 0.0
H3565 H 0.00897 0.61877 0.24996 0.0
H3566 H 0.03643 0.69282 0.34484 0.0
H3567 H 0.00738 0.68257 0.35111 0.0
H3568 H 0.05422 0.70924 0.31546 0.0
H3569 H 0.07006 0.69846 0.29027 0.0
C3570 C 0.83333 0.00981 0.30195 0.0
C3571 C 0.84867 0.99141 0.29281 0.0
C3572 C 0.86278 0.01835 0.26071 0.0
C3573 C 0.84742 0.03681 0.26976 0.0
N3574 N 0.81275 0.04765 0.29389 0.0
N3575 N 0.87097 0.97534 0.25914 0.0
C3576 C 0.83087 0.03167 0.28871 0.0
C3577 C 0.86116 0.9948 0.27074 0.0
N3578 N 0.8222 0.00705 0.32384 0.0
N3579 N 0.87984 0.0235 0.24361 0.0
H3580 H 0.86894 0.95776 0.26568 0.0
H3581 H 0.87855 0.97632 0.24192 0.0
H3582 H 0.88191 0.04059 0.23596 0.0
H3583 H 0.89314 0.01124 0.23835 0.0
H3584 H 0.81313 0.02102 0.33264 0.0
H3585 H 0.82347 0.99131 0.33413 0.0
H3586 H 0.79886 0.0439 0.30604 0.0
H3587 H 0.81024 0.06362 0.28417 0.0
C3588 C 0.51716 0.85023 0.26462 0.0
C3589 C 0.52028 0.83636 0.28585 0.0
C3590 C 0.47871 0.82171 0.28206 0.0
C3591 C 0.47423 0.83983 0.26444 0.0
N3592 N 0.4891 0.87284 0.24001 0.0
N3593 N 0.50397 0.80868 0.31541 0.0
C3594 C 0.49351 0.85423 0.25561 0.0
C3595 C 0.50121 0.82157 0.29451 0.0
N3596 N 0.53692 0.85951 0.25313 0.0
N3597 N 0.46138 0.80478 0.28688 0.0
H3598 H 0.52024 0.80779 0.32488 0.0
H3599 H 0.48973 0.79999 0.32414 0.0
H3600 H 0.44481 0.8044 0.27784 0.0
H3601 H 0.46432 0.78988 0.29801 0.0
H3602 H 0.536 0.86823 0.23646 0.0
H3603 H 0.55448 0.85603 0.25917 0.0
H3604 H 0.50209 0.88578 0.2357 0.0
H3605 H 0.472 0.87664 0.23304 0.0
C3606 C 0.66763 0.48582 0.27001 0.0
C3607 C 0.64469 0.47431 0.26866 0.0
C3608 C 0.62595 0.50869 0.28932 0.0
C3609 C 0.64845 0.52098 0.28891 0.0
N3610 N 0.68998 0.52308 0.27563 0.0
N3611 N 0.6013 0.47695 0.27188 0.0
C3612 C 0.66901 0.5102 0.278 0.0
C3613 C 0.6236 0.48646 0.27672 0.0
N3614 N 0.68826 0.47303 0.26523 0.0
N3615 N 0.607 0.51788 0.30225 0.0
H3616 H 0.59895 0.46088 0.26228 0.0
H3617 H 0.58521 0.48614 0.27524 0.0
H3618 H 0.60797 0.53414 0.31174 0.0
H3619 H 0.59102 0.50839 0.30528 0.0
H3620 H 0.70556 0.47966 0.26859 0.0
H3621 H 0.68822 0.45495 0.25993 0.0
H3622 H 0.70457 0.51718 0.26528 0.0
H3623 H 0.69225 0.54046 0.28257 0.0
C3624 C 0.02302 0.87224 0.24312 0.0
C3625 C 0.0414 0.85503 0.23881 0.0
C3626 C 0.0159 0.8341 0.20927 0.0
C3627 C 0.99806 0.8525 0.21226 0.0
N3628 N 0.98039 0.88141 0.23968 0.0
N3629 N 0.05272 0.81557 0.22454 0.0
C3630 C 1.00031 0.86926 0.2316 0.0
C3631 C 0.03689 0.83457 0.22411 0.0
N3632 N 0.02748 0.89184 0.25748 0.0
N3633 N 0.01357 0.81679 0.1918 0.0
H3634 H 0.06824 0.81553 0.2353 0.0
H3635 H 0.0494 0.79902 0.21622 0.0
H3636 H 0.99797 0.81395 0.18183 0.0
H3637 H 0.02761 0.80543 0.1865 0.0
H3638 H 0.01561 0.90639 0.25898 0.0
H3639 H 0.04372 0.89417 0.26681 0.0
H3640 H 0.98048 0.89248 0.25493 0.0
H3641 H 0.96313 0.87789 0.23292 0.0
C3642 C 0.67572 0.00219 0.25865 0.0
C3643 C 0.65207 0.01166 0.26219 0.0
C3644 C 0.63413 0.97379 0.24824 0.0
C3645 C 0.65772 0.96473 0.24368 0.0
N3646 N 0.70057 0.96688 0.25048 0.0
N3647 N 0.60941 0.00499 0.26683 0.0
C3648 C 0.67841 0.97782 0.25101 0.0
C3649 C 0.63147 0.9968 0.2593 0.0
N3650 N 0.69545 0.01689 0.26106 0.0
N3651 N 0.61436 0.96113 0.24052 0.0
H3652 H 0.60713 0.02196 0.27476 0.0
H3653 H 0.59393 0.99429 0.2673 0.0
H3654 H 0.6157 0.94419 0.23244 0.0
H3655 H 0.59681 0.96791 0.24079 0.0
H3656 H 0.71285 0.0119 0.2559 0.0
H3657 H 0.69435 0.03472 0.26703 0.0
H3658 H 0.71619 0.97461 0.2576 0.0
H3659 H 0.70285 0.949 0.24486 0.0
C3660 C 0.48607 0.64006 0.22386 0.0
C3661 C 0.47125 0.65996 0.23015 0.0
C3662 C 0.50121 0.68769 0.21294 0.0
C3663 C 0.51396 0.66761 0.20329 0.0
N3664 N 0.51624 0.62451 0.19632 0.0
N3665 N 0.46319 0.70283 0.22853 0.0
C3666 C 0.50597 0.64369 0.20809 0.0
C3667 C 0.47848 0.68387 0.2243 0.0
N3668 N 0.48099 0.61766 0.23294 0.0
N3669 N 0.51112 0.71031 0.21189 0.0
H3670 H 0.44656 0.7009 0.23718 0.0
H3671 H 0.46625 0.7202 0.22193 0.0
H3672 H 0.52799 0.71376 0.2042 0.0
H3673 H 0.50373 0.72523 0.22071 0.0
H3674 H 0.49246 0.60286 0.23087 0.0
H3675 H 0.46649 0.61453 0.2446 0.0
H3676 H 0.50945 0.60698 0.19729 0.0
H3677 H 0.53011 0.62637 0.1837 0.0
C3678 C 0.84397 0.49199 0.20242 0.0
C3679 C 0.85707 0.51001 0.21523 0.0
C3680 C 0.87348 0.47898 0.2422 0.0
C3681 C 0.85846 0.46156 0.23092 0.0
N3682 N 0.82443 0.45305 0.20481 0.0
N3683 N 0.87925 0.52137 0.25119 0.0
C3684 C 0.84208 0.46857 0.21247 0.0
C3685 C 0.87037 0.50374 0.23631 0.0
N3686 N 0.83463 0.49654 0.17998 0.0
N3687 N 0.89126 0.4719 0.25783 0.0
H3688 H 0.87609 0.53973 0.24828 0.0
H3689 H 0.88741 0.51771 0.26777 0.0
H3690 H 0.89429 0.45387 0.26241 0.0
H3691 H 0.90429 0.48373 0.26458 0.0
H3692 H 0.82718 0.48306 0.16909 0.0
H3693 H 0.83682 0.51287 0.17091 0.0
H3694 H 0.8107 0.45823 0.19296 0.0
H3695 H 0.82194 0.4359 0.21222 0.0
C3696 C 0.27402 0.98073 0.64658 0.0
C3697 C 0.29077 0.97471 0.66507 0.0
C3698 C 0.288 0.01553 0.68193 0.0
C3699 C 0.27129 0.02166 0.66337 0.0
N3700 N 0.24519 0.0097 0.63051 0.0
N3701 N 0.31016 0.98405 0.70296 0.0
C3702 C 0.26317 0.00405 0.64654 0.0
C3703 C 0.29678 0.99147 0.68351 0.0
N3704 N 0.26944 0.96453 0.62843 0.0
N3705 N 0.29569 0.03289 0.69782 0.0
H3706 H 0.31655 0.96642 0.70485 0.0
H3707 H 0.31342 0.99463 0.71818 0.0
H3708 H 0.28818 0.05018 0.69859 0.0
H3709 H 0.3102 0.03065 0.70961 0.0
H3710 H 0.25955 0.96859 0.61294 0.0
H3711 H 0.27682 0.94718 0.62803 0.0
H3712 H 0.23647 0.99704 0.61966 0.0
H3713 H 0.23767 0.02693 0.62915 0.0
C3714 C 0.48607 0.26685 0.63177 0.0
C3715 C 0.46699 0.26861 0.64865 0.0
C3716 C 0.48751 0.30188 0.6694 0.0
C3717 C 0.50715 0.29976 0.65302 0.0
N3718 N 0.52768 0.27615 0.62227 0.0
N3719 N 0.45246 0.28265 0.68723 0.0
C3720 C 0.50725 0.28097 0.63531 0.0
C3721 C 0.46886 0.28431 0.66883 0.0
N3722 N 0.48352 0.2525 0.6118 0.0
N3723 N 0.48557 0.32162 0.68419 0.0
H3724 H 0.43856 0.26988 0.68726 0.0
H3725 H 0.45412 0.29216 0.70341 0.0
H3726 H 0.49796 0.33581 0.68421 0.0
H3727 H 0.4703 0.32523 0.6946 0.0
H3728 H 0.49544 0.25283 0.59723 0.0
H3729 H 0.46862 0.24123 0.60918 0.0
H3730 H 0.52954 0.261 0.61123 0.0
H3731 H 0.54363 0.28595 0.62402 0.0
C3732 C 0.20359 0.50187 0.67351 0.0
C3733 C 0.21119 0.52045 0.65759 0.0
C3734 C 0.24381 0.49497 0.64213 0.0
C3735 C 0.2358 0.47609 0.65749 0.0
N3736 N 0.21351 0.46375 0.6928 0.0
N3737 N 0.24283 0.53794 0.6335 0.0
C3738 C 0.21754 0.48039 0.67499 0.0
C3739 C 0.2328 0.51804 0.64411 0.0
N3740 N 0.18237 0.50406 0.68602 0.0
N3741 N 0.26078 0.49056 0.62473 0.0
H3742 H 0.23539 0.55516 0.63555 0.0
H3743 H 0.25965 0.53781 0.62502 0.0
H3744 H 0.26929 0.47387 0.62267 0.0
H3745 H 0.26527 0.50298 0.61131 0.0
H3746 H 0.17451 0.48993 0.69565 0.0
H3747 H 0.1717 0.51959 0.6856 0.0
H3748 H 0.20177 0.46664 0.70722 0.0
H3749 H 0.22372 0.44796 0.69436 0.0
C3750 C 0.02315 0.23513 0.63991 0.0
C3751 C 0.04068 0.23469 0.65852 0.0
C3752 C 0.01232 0.21356 0.68506 0.0
C3753 C 0.99692 0.20959 0.66493 0.0
N3754 N 0.98783 0.21625 0.6225 0.0
N3755 N 0.05239 0.22445 0.6992 0.0
C3756 C 1.00201 0.22075 0.64227 0.0
C3757 C 0.03526 0.22446 0.68137 0.0
N3758 N 0.02694 0.24904 0.61984 0.0
N3759 N 0.00471 0.20738 0.70775 0.0
H3760 H 0.0689 0.23343 0.69747 0.0
H3761 H 0.05075 0.21466 0.71519 0.0
H3762 H 0.98762 0.2001 0.71106 0.0
H3763 H 0.01419 0.21165 0.72344 0.0
H3764 H 0.01373 0.25225 0.6068 0.0
H3765 H 0.04256 0.25932 0.6174 0.0
H3766 H 0.99253 0.22133 0.605 0.0
H3767 H 0.97221 0.20581 0.62291 0.0
C3768 C 0.27709 0.47921 0.82563 0.0
C3769 C 0.26072 0.47433 0.84473 0.0
C3770 C 0.26948 0.51382 0.86255 0.0
C3771 C 0.28914 0.51641 0.84624 0.0
N3772 N 0.31276 0.50104 0.8128 0.0
N3773 N 0.24073 0.48659 0.88141 0.0
C3774 C 0.293 0.49922 0.82757 0.0
C3775 C 0.25642 0.49171 0.86303 0.0
N3776 N 0.2775 0.46444 0.80581 0.0
N3777 N 0.2631 0.53268 0.87721 0.0
H3778 H 0.23026 0.47091 0.88176 0.0
H3779 H 0.23897 0.49724 0.89683 0.0
H3780 H 0.27212 0.54924 0.87694 0.0
H3781 H 0.24761 0.53277 0.88789 0.0
H3782 H 0.28745 0.46818 0.79027 0.0
H3783 H 0.26598 0.44959 0.804 0.0
H3784 H 0.31795 0.48759 0.80069 0.0
H3785 H 0.32523 0.51513 0.81386 0.0
C3786 C 0.0257 0.27394 0.80872 0.0
C3787 C 0.03211 0.26835 0.83292 0.0
C3788 C 0.9971 0.29038 0.84802 0.0
C3789 C 0.99021 0.29572 0.82388 0.0
N3790 N 0.99463 0.28825 0.78114 0.0
N3791 N 0.02054 0.26474 0.87466 0.0
C3792 C 0.00346 0.28607 0.80413 0.0
C3793 C 0.01647 0.27423 0.85221 0.0
N3794 N 0.04135 0.26866 0.79035 0.0
N3795 N 0.98656 0.30224 0.86694 0.0
H3796 H 0.03479 0.25286 0.87815 0.0
H3797 H 0.00845 0.26665 0.88898 0.0
H3798 H 0.97319 0.3153 0.86467 0.0
H3799 H 0.9927 0.30088 0.8847 0.0
H3800 H 0.03909 0.27479 0.7727 0.0
H3801 H 0.05733 0.25901 0.79309 0.0
H3802 H 1.00229 0.27967 0.76622 0.0
H3803 H 0.97838 0.29701 0.77725 0.0
C3804 C 0.22385 0.99986 0.82519 0.0
C3805 C 0.21292 0.9898 0.84614 0.0
C3806 C 0.22649 0.02432 0.87018 0.0
C3807 C 0.23494 0.03565 0.84883 0.0
N3808 N 0.23836 0.03608 0.8053 0.0
N3809 N 0.19964 0.99469 0.88758 0.0
C3810 C 0.23295 0.02387 0.82611 0.0
C3811 C 0.21294 0.00269 0.86835 0.0
N3812 N 0.22508 0.98674 0.80426 0.0
N3813 N 0.23199 0.03396 0.89228 0.0
H3814 H 0.18962 0.97876 0.8874 0.0
H3815 H 0.19689 0.00495 0.90315 0.0
H3816 H 0.24235 0.0496 0.89433 0.0
H3817 H 0.22843 0.02517 0.90855 0.0
H3818 H 0.23552 0.99188 0.78946 0.0
H3819 H 0.21674 0.96998 0.80204 0.0
H3820 H 0.23465 0.02943 0.78808 0.0
H3821 H 0.24476 0.0538 0.80512 0.0
C3822 C 0.51025 0.23319 0.86372 0.0
C3823 C 0.51412 0.21255 0.84911 0.0
C3824 C 0.47221 0.21478 0.83511 0.0
C3825 C 0.46725 0.23204 0.85348 0.0
N3826 N 0.48132 0.25605 0.88715 0.0
N3827 N 0.49847 0.18243 0.82162 0.0
C3828 C 0.48626 0.24113 0.8681 0.0
C3829 C 0.49513 0.20318 0.83464 0.0
N3830 N 0.52959 0.24527 0.87319 0.0
N3831 N 0.45502 0.20957 0.81812 0.0
H3832 H 0.51503 0.17349 0.82058 0.0
H3833 H 0.4844 0.17319 0.81316 0.0
H3834 H 0.43816 0.21806 0.81781 0.0
H3835 H 0.45831 0.19871 0.80308 0.0
H3836 H 0.52804 0.26162 0.88243 0.0
H3837 H 0.54736 0.24016 0.86939 0.0
H3838 H 0.49425 0.26094 0.89996 0.0
H3839 H 0.46389 0.26184 0.89136 0.0
C3840 C 0.62985 0.26003 0.01745 0.0
C3841 C 0.64683 0.26609 0.03559 0.0
C3842 C 0.66673 0.29471 0.00824 0.0
C3843 C 0.64844 0.29002 0.99077 0.0
N3844 N 0.62123 0.26031 0.97456 0.0
N3845 N 0.68617 0.28193 0.0455 0.0
C3846 C 0.63264 0.27014 0.99408 0.0
C3847 C 0.6669 0.28106 0.03001 0.0
N3848 N 0.61055 0.24557 0.0227 0.0
N3849 N 0.68333 0.3126 0.00465 0.0
H3850 H 0.68689 0.27169 0.06133 0.0
H3851 H 0.70233 0.29074 0.04158 0.0
H3852 H 0.6855 0.32154 0.98831 0.0
H3853 H 0.69476 0.31904 0.01817 0.0
H3854 H 0.5963 0.24274 0.01068 0.0
H3855 H 0.60807 0.2376 0.0396 0.0
H3856 H 0.611 0.24451 0.97546 0.0
H3857 H 0.62478 0.26634 0.95704 0.0
C3858 C 0.63867 0.23719 0.51351 0.0
C3859 C 0.65752 0.2209 0.51974 0.0
C3860 C 0.6764 0.22831 0.48027 0.0
C3861 C 0.65482 0.23964 0.4725 0.0
N3862 N 0.61524 0.25552 0.48136 0.0
N3863 N 0.69581 0.20207 0.50923 0.0
C3864 C 0.63603 0.24465 0.48911 0.0
C3865 C 0.67715 0.21718 0.50342 0.0
N3866 N 0.6237 0.24596 0.5311 0.0
N3867 N 0.69617 0.22828 0.46543 0.0
H3868 H 0.69849 0.19478 0.52629 0.0
H3869 H 0.70839 0.19583 0.49668 0.0
H3870 H 0.69601 0.23621 0.44831 0.0
H3871 H 0.71327 0.22257 0.47087 0.0
H3872 H 0.61104 0.25958 0.52806 0.0
H3873 H 0.62583 0.24154 0.54931 0.0
H3874 H 0.59978 0.25702 0.49201 0.0
H3875 H 0.61298 0.26188 0.46374 0.0
C3876 C 0.28231 0.62356 0.47007 0.0
C3877 C 0.26713 0.64324 0.46376 0.0
C3878 C 0.27397 0.66046 0.5041 0.0
C3879 C 0.29257 0.6432 0.50837 0.0
N3880 N 0.31829 0.61192 0.49173 0.0
N3881 N 0.25223 0.68319 0.47374 0.0
C3882 C 0.29777 0.62563 0.49039 0.0
C3883 C 0.26384 0.66248 0.48051 0.0
N3884 N 0.28203 0.60287 0.45658 0.0
N3885 N 0.2652 0.67429 0.5226 0.0
H3886 H 0.24525 0.68594 0.45646 0.0
H3887 H 0.25163 0.69855 0.48466 0.0
H3888 H 0.27104 0.6725 0.54043 0.0
H3889 H 0.25017 0.6855 0.52067 0.0
H3890 H 0.29143 0.58732 0.46161 0.0
H3891 H 0.27036 0.60048 0.44192 0.0
H3892 H 0.32376 0.6004 0.47784 0.0
H3893 H 0.33137 0.61426 0.50511 0.0
C3894 C 0.87935 0.27346 0.50313 0.0
C3895 C 0.8599 0.29008 0.50608 0.0
C3896 C 0.84063 0.27303 0.46994 0.0
C3897 C 0.86242 0.26084 0.46432 0.0
N3898 N 0.90306 0.24962 0.475 0.0
N3899 N 0.82215 0.30651 0.49084 0.0
C3900 C 0.88187 0.26083 0.4809 0.0
C3901 C 0.84028 0.28979 0.48938 0.0
N3902 N 0.89495 0.26912 0.5218 0.0
N3903 N 0.82041 0.26883 0.45635 0.0
H3904 H 0.82113 0.31963 0.50422 0.0
H3905 H 0.80909 0.30879 0.47745 0.0
H3906 H 0.82027 0.25675 0.44185 0.0
H3907 H 0.80334 0.27534 0.46094 0.0
H3908 H 0.90801 0.25555 0.52136 0.0
H3909 H 0.89307 0.27716 0.53874 0.0
H3910 H 0.91883 0.25138 0.48518 0.0
H3911 H 0.90522 0.2397 0.45909 0.0
C3912 C 0.22688 0.8227 0.50398 0.0
C3913 C 0.21713 0.84277 0.5167 0.0
C3914 C 0.23126 0.87006 0.48489 0.0
C3915 C 0.23878 0.84989 0.47101 0.0
N3916 N 0.24028 0.80668 0.46539 0.0
N3917 N 0.20523 0.88484 0.51671 0.0
C3918 C 0.23584 0.82607 0.48007 0.0
C3919 C 0.21787 0.86626 0.50642 0.0
N3920 N 0.22718 0.80037 0.51455 0.0
N3921 N 0.23729 0.8929 0.47764 0.0
H3922 H 0.19496 0.88293 0.53237 0.0
H3923 H 0.20312 0.90164 0.50848 0.0
H3924 H 0.24736 0.89629 0.46204 0.0
H3925 H 0.23444 0.90819 0.48827 0.0
H3926 H 0.23631 0.78559 0.50732 0.0
H3927 H 0.21928 0.79681 0.5313 0.0
H3928 H 0.23573 0.78898 0.46989 0.0
H3929 H 0.24705 0.80838 0.44788 0.0
C3930 C 0.8317 0.2621 0.00877 0.0
C3931 C 0.85591 0.26591 0.01659 0.0
C3932 C 0.87134 0.25162 0.97781 0.0
C3933 C 0.8473 0.24597 0.97073 0.0
N3934 N 0.80456 0.25159 0.97575 0.0
N3935 N 0.89778 0.27145 0.00685 0.0
C3936 C 0.82742 0.2533 0.985 0.0
C3937 C 0.8754 0.26325 1.00035 0.0
N3938 N 0.81299 0.26553 0.02456 0.0
N3939 N 0.89028 0.24432 0.96379 0.0
H3940 H 0.90094 0.27977 0.02351 0.0
H3941 H 0.9125 0.27202 0.99515 0.0
H3942 H 0.88778 0.23591 0.94714 0.0
H3943 H 0.9083 0.24535 0.96913 0.0
H3944 H 0.79526 0.26025 0.02113 0.0
H3945 H 0.81531 0.27301 0.0417 0.0
H3946 H 0.78922 0.25825 0.98438 0.0
H3947 H 0.80119 0.24525 0.95829 0.0
C3948 C 0.26766 0.86286 0.99208 0.0
C3949 C 0.28408 0.84413 0.98585 0.0
C3950 C 0.28042 0.82681 0.0264 0.0
C3951 C 0.26671 0.84727 0.03355 0.0
N3952 N 0.24791 0.88544 0.02416 0.0
N3953 N 0.30671 0.8084 0.99657 0.0
C3954 C 0.26021 0.86536 0.01658 0.0
C3955 C 0.29059 0.82609 0.00287 0.0
N3956 N 0.25933 0.87827 0.97462 0.0
N3957 N 0.28312 0.80783 0.04202 0.0
H3958 H 0.31318 0.80617 0.97901 0.0
H3959 H 0.31466 0.79664 0.00893 0.0
H3960 H 0.27565 0.8077 0.05934 0.0
H3961 H 0.29087 0.79138 0.03724 0.0
H3962 H 0.24531 0.89052 0.97738 0.0
H3963 H 0.2653 0.87775 0.95674 0.0
H3964 H 0.24496 0.90058 0.01339 0.0
H3965 H 0.24173 0.88761 0.04184 0.0
C3966 C 0.24889 0.67578 0.02161 0.0
C3967 C 0.24815 0.65308 0.03357 0.0
C3968 C 0.22437 0.63585 1.00058 0.0
C3969 C 0.22595 0.65814 0.98799 0.0
N3970 N 0.24288 0.6982 0.98437 0.0
N3971 N 0.2412 0.61017 0.03179 0.0
C3972 C 0.23946 0.67769 0.99773 0.0
C3973 C 0.23787 0.63267 0.02209 0.0
N3974 N 0.25729 0.69575 0.03355 0.0
N3975 N 0.20934 0.61799 0.99252 0.0
H3976 H 0.25128 0.60728 0.04749 0.0
H3977 H 0.23616 0.59429 0.02302 0.0
H3978 H 0.19887 0.61961 0.97696 0.0
H3979 H 0.20562 0.60239 0.00237 0.0
H3980 H 0.2557 0.71328 0.02689 0.0
H3981 H 0.2645 0.69505 0.05095 0.0
H3982 H 0.25475 0.71194 0.98936 0.0
H3983 H 0.23501 0.70086 0.96744 0.0
C3984 C 0.01182 0.36382 0.71707 0.0
C3985 C 0.01606 0.34561 0.69939 0.0
C3986 C 0.9785 0.32545 0.71181 0.0
C3987 C 0.97211 0.34624 0.72531 0.0
N3988 N 0.98232 0.38544 0.74122 0.0
N3989 N 0.00318 0.30848 0.67997 0.0
C3990 C 0.98882 0.36534 0.72839 0.0
C3991 C 0.99961 0.32592 0.69711 0.0
N3992 N 0.03 0.37928 0.72351 0.0
N3993 N 0.96417 0.30535 0.713 0.0
H3994 H 0.01847 0.30758 0.66911 0.0
H3995 H 0.99025 0.29558 0.6754 0.0
H3996 H 0.94857 0.30471 0.7236 0.0
H3997 H 0.9689 0.28874 0.70551 0.0
H3998 H 0.02875 0.39132 0.73794 0.0
H3999 H 0.04729 0.37831 0.7161 0.0
H4000 H 0.99249 0.40127 0.7415 0.0
H4001 H 0.96598 0.38673 0.75056 0.0
C4002 C 0.10874 0.97548 0.71666 0.0
C4003 C 0.11951 0.97278 0.73968 0.0
C4004 C 0.13557 0.01381 0.73653 0.0
C4005 C 0.13084 0.01332 0.71122 0.0
N4006 N 0.1127 0.99291 0.67691 0.0
N4007 N 0.12302 0.99747 0.77499 0.0
C4008 C 0.11682 0.99422 0.70125 0.0
C4009 C 0.12772 0.9941 0.75108 0.0
N4010 N 0.09045 0.96034 0.71002 0.0
N4011 N 0.14687 0.03317 0.74689 0.0
H4012 H 0.1119 0.98552 0.78445 0.0
H4013 H 0.12615 0.01377 0.78392 0.0
H4014 H 0.15086 0.04902 0.73752 0.0
H4015 H 0.15307 0.03297 0.7647 0.0
H4016 H 0.08044 0.96255 0.6942 0.0
H4017 H 0.084 0.94709 0.72184 0.0
H4018 H 0.10455 0.97802 0.66872 0.0
H4019 H 0.11951 0.00546 0.66463 0.0
C4020 C 0.51904 0.1357 0.74617 0.0
C4021 C 0.5367 0.15289 0.73914 0.0
C4022 C 0.51003 0.16755 0.70698 0.0
C4023 C 0.49169 0.15135 0.7148 0.0
N4024 N 0.47681 0.12437 0.74584 0.0
N4025 N 0.54614 0.18972 0.71793 0.0
C4026 C 0.49557 0.13682 0.7357 0.0
C4027 C 0.53109 0.17043 0.72133 0.0
N4028 N 0.52496 0.11748 0.76177 0.0
N4029 N 0.50846 0.17869 0.68497 0.0
H4030 H 0.56161 0.19244 0.72842 0.0
H4031 H 0.54187 0.20415 0.7066 0.0
H4032 H 0.49432 0.17583 0.67285 0.0
H4033 H 0.52261 0.18865 0.67753 0.0
H4034 H 0.51364 0.10282 0.76521 0.0
H4035 H 0.54189 0.11596 0.7699 0.0
H4036 H 0.47807 0.11568 0.76251 0.0
H4037 H 0.45935 0.12462 0.73883 0.0
C4038 C 0.37077 0.49721 0.71943 0.0
C4039 C 0.34823 0.485 0.72029 0.0
C4040 C 0.32966 0.5201 0.74012 0.0
C4041 C 0.3525 0.53186 0.74019 0.0
N4042 N 0.39572 0.52945 0.7356 0.0
N4043 N 0.30728 0.48271 0.73519 0.0
C4044 C 0.37336 0.51966 0.73164 0.0
C4045 C 0.32806 0.49571 0.73204 0.0
N4046 N 0.38954 0.48768 0.70648 0.0
N4047 N 0.30927 0.53264 0.74633 0.0
H4048 H 0.30485 0.46533 0.72827 0.0
H4049 H 0.29304 0.48847 0.74608 0.0
H4050 H 0.30955 0.55051 0.75227 0.0
H4051 H 0.29183 0.52597 0.7439 0.0
H4052 H 0.4055 0.49704 0.70299 0.0
H4053 H 0.38852 0.47111 0.69755 0.0
H4054 H 0.41181 0.5204 0.73189 0.0
H4055 H 0.39819 0.54571 0.74487 0.0
C4056 C 0.98915 0.13816 0.76772 0.0
C4057 C 0.97404 0.15734 0.76019 0.0
C4058 C 0.00277 0.18663 0.77712 0.0
C4059 C 0.01541 0.16733 0.78827 0.0
N4060 N 0.01844 0.12463 0.79715 0.0
N4061 N 0.96529 0.20012 0.75889 0.0
C4062 C 0.00834 0.143 0.78406 0.0
C4063 C 0.9807 0.18173 0.76487 0.0
N4064 N 0.98474 0.11527 0.75958 0.0
N4065 N 0.01193 0.20956 0.77821 0.0
H4066 H 0.94922 0.19742 0.74943 0.0
H4067 H 0.96774 0.21792 0.76453 0.0
H4068 H 0.02813 0.21365 0.78699 0.0
H4069 H 0.0047 0.22408 0.76863 0.0
H4070 H 0.99641 0.10081 0.76269 0.0
H4071 H 0.97062 0.11137 0.74765 0.0
H4072 H 0.01213 0.1069 0.79662 0.0
H4073 H 0.03164 0.12739 0.81034 0.0
C4074 C 0.38063 0.00411 0.78259 0.0
C4075 C 0.358 0.01619 0.78501 0.0
C4076 C 0.33737 0.98089 0.76777 0.0
C4077 C 0.36013 0.96959 0.7641 0.0
N4078 N 0.40347 0.97262 0.76243 0.0
N4079 N 0.31571 0.01841 0.77431 0.0
C4080 C 0.38177 0.98201 0.76962 0.0
C4081 C 0.33657 0.00527 0.77598 0.0
N4082 N 0.40081 0.01285 0.79394 0.0
N4083 N 0.31651 0.9681 0.76429 0.0
H4084 H 0.31455 0.0365 0.7795 0.0
H4085 H 0.30024 0.01214 0.76556 0.0
H4086 H 0.3163 0.95041 0.75775 0.0
H4087 H 0.29954 0.97448 0.7694 0.0
H4088 H 0.41703 0.00331 0.79489 0.0
H4089 H 0.40086 0.02833 0.80467 0.0
H4090 H 0.41973 0.98203 0.76376 0.0
H4091 H 0.40485 0.95639 0.75289 0.0
C4092 C 0.50644 0.33001 0.81402 0.0
C4093 C 0.48616 0.34366 0.8063 0.0
C4094 C 0.50932 0.36015 0.77261 0.0
C4095 C 0.52965 0.34641 0.78014 0.0
N4096 N 0.54481 0.31223 0.80254 0.0
N4097 N 0.46575 0.36248 0.77264 0.0
C4098 C 0.52719 0.32917 0.79898 0.0
C4099 C 0.48676 0.35576 0.78373 0.0
N4100 N 0.50662 0.31911 0.83618 0.0
N4101 N 0.51161 0.37843 0.75616 0.0
H4102 H 0.44881 0.35805 0.77966 0.0
H4103 H 0.46523 0.36968 0.75523 0.0
H4104 H 0.52794 0.38325 0.74816 0.0
H4105 H 0.49752 0.39032 0.75217 0.0
H4106 H 0.52199 0.31108 0.84354 0.0
H4107 H 0.49207 0.31978 0.8481 0.0
H4108 H 0.54308 0.29799 0.81474 0.0
H4109 H 0.56002 0.31104 0.79142 0.0
C4110 C 0.1558 0.49752 0.76417 0.0
C4111 C 0.13588 0.49025 0.77866 0.0
C4112 C 0.11374 0.5265 0.76607 0.0
C4113 C 0.13498 0.53569 0.75521 0.0
N4114 N 0.17744 0.53096 0.74601 0.0
N4115 N 0.09747 0.50039 0.79699 0.0
C4116 C 0.15634 0.5214 0.75459 0.0
C4117 C 0.11513 0.50532 0.78042 0.0
N4118 N 0.17387 0.4815 0.75894 0.0
N4119 N 0.09227 0.53829 0.76288 0.0
H4120 H 0.09846 0.48601 0.80913 0.0
H4121 H 0.08317 0.51212 0.80058 0.0
H4122 H 0.0908 0.55383 0.75226 0.0
H4123 H 0.07574 0.5313 0.76861 0.0
H4124 H 0.18754 0.48512 0.74652 0.0
H4125 H 0.17398 0.46375 0.76523 0.0
H4126 H 0.19412 0.52238 0.74781 0.0
H4127 H 0.17865 0.54822 0.73859 0.0
C4128 C 0.734 0.97758 0.37976 0.0
C4129 C 0.74297 0.96685 0.35828 0.0
C4130 C 0.73127 0.003 0.33533 0.0
C4131 C 0.71972 0.01229 0.35631 0.0
N4132 N 0.70662 0.00669 0.39757 0.0
N4133 N 0.74749 0.96776 0.31487 0.0
C4134 C 0.72008 0.99909 0.37829 0.0
C4135 C 0.74115 0.97923 0.33585 0.0
N4136 N 0.73918 0.96733 0.40165 0.0
N4137 N 0.73247 0.01671 0.31479 0.0
H4138 H 0.7548 0.9504 0.31442 0.0
H4139 H 0.74388 0.97469 0.29774 0.0
H4140 H 0.72395 0.03344 0.31308 0.0
H4141 H 0.74309 0.01216 0.29992 0.0
H4142 H 0.7352 0.97553 0.41813 0.0
H4143 H 0.74965 0.95171 0.40334 0.0
H4144 H 0.70416 0.99641 0.41315 0.0
H4145 H 0.69612 0.02234 0.39727 0.0
C4146 C 0.49506 0.73235 0.36345 0.0
C4147 C 0.49382 0.7113 0.34868 0.0
C4148 C 0.53413 0.7208 0.33302 0.0
C4149 C 0.53738 0.73755 0.35209 0.0
N4150 N 0.521 0.7594 0.38608 0.0
N4151 N 0.51321 0.68512 0.3193 0.0
C4152 C 0.51776 0.74367 0.36731 0.0
C4153 C 0.51342 0.70566 0.33299 0.0
N4154 N 0.47444 0.742 0.37307 0.0
N4155 N 0.55114 0.7192 0.31517 0.0
H4156 H 0.49885 0.67307 0.3189 0.0
H4157 H 0.52822 0.67897 0.30974 0.0
H4158 H 0.56647 0.73022 0.31486 0.0
H4159 H 0.54879 0.70894 0.29954 0.0
H4160 H 0.47412 0.75839 0.38238 0.0
H4161 H 0.45728 0.7352 0.36916 0.0
H4162 H 0.508 0.76228 0.39941 0.0
H4163 H 0.53727 0.7684 0.38918 0.0
C4164 C 0.79521 0.50447 0.32733 0.0
C4165 C 0.79009 0.48461 0.34283 0.0
C4166 C 0.75792 0.50802 0.36258 0.0
C4167 C 0.76353 0.52793 0.34756 0.0
N4168 N 0.78122 0.54251 0.31057 0.0
N4169 N 0.76054 0.46467 0.36803 0.0
C4170 C 0.78005 0.52519 0.32816 0.0
C4171 C 0.7695 0.4855 0.35823 0.0
N4172 N 0.81521 0.50439 0.31287 0.0
N4173 N 0.74237 0.5108 0.38156 0.0
H4174 H 0.76764 0.44769 0.3639 0.0
H4175 H 0.74446 0.46394 0.37781 0.0
H4176 H 0.73321 0.52692 0.38499 0.0
H4177 H 0.73978 0.4976 0.39474 0.0
H4178 H 0.82132 0.51959 0.30361 0.0
H4179 H 0.82675 0.48969 0.31125 0.0
H4180 H 0.79122 0.54053 0.29474 0.0
H4181 H 0.77015 0.5578 0.31067 0.0
C4182 C 0.00981 0.78486 0.33724 0.0
C4183 C 0.01596 0.80202 0.35542 0.0
C4184 C 0.97784 0.79363 0.37616 0.0
C4185 C 0.97032 0.77883 0.35661 0.0
N4186 N 0.97762 0.76343 0.31645 0.0
N4187 N 0.00244 0.82748 0.38828 0.0
C4188 C 0.98588 0.77527 0.33651 0.0
C4189 C 0.99898 0.80779 0.37375 0.0
N4190 N 0.02694 0.77687 0.32134 0.0
N4191 N 0.96517 0.7937 0.39738 0.0
H4192 H 0.01707 0.83916 0.38631 0.0
H4193 H 0.98936 0.83377 0.4003 0.0
H4194 H 0.95007 0.78278 0.40032 0.0
H4195 H 0.97123 0.80256 0.41289 0.0
H4196 H 0.0241 0.76241 0.30959 0.0
H4197 H 0.04466 0.78321 0.32125 0.0
H4198 H 0.9873 0.76255 0.30032 0.0
H4199 H 0.96025 0.7562 0.31527 0.0
C4200 C 0.72927 0.49848 0.14558 0.0
C4201 C 0.70688 0.49774 0.15821 0.0
C4202 C 0.71649 0.53685 0.17652 0.0
C4203 C 0.73573 0.5398 0.15983 0.0
N4204 N 0.75968 0.52385 0.12702 0.0
N4205 N 0.6781 0.51762 0.18449 0.0
C4206 C 0.74213 0.52064 0.14409 0.0
C4207 C 0.70031 0.51713 0.1737 0.0
N4208 N 0.73873 0.47784 0.13584 0.0
N4209 N 0.71367 0.55304 0.19498 0.0
H4210 H 0.66523 0.50408 0.18222 0.0
H4211 H 0.67158 0.53258 0.1939 0.0
H4212 H 0.72548 0.56753 0.19761 0.0
H4213 H 0.70132 0.55063 0.209 0.0
H4214 H 0.75592 0.47701 0.12817 0.0
H4215 H 0.73067 0.46095 0.13805 0.0
H4216 H 0.76306 0.51134 0.11333 0.0
H4217 H 0.76969 0.53974 0.12546 0.0
C4218 C 0.99534 0.69813 0.12301 0.0
C4219 C 0.01503 0.70856 0.1358 0.0
C4220 C 0.99447 0.74793 0.13395 0.0
C4221 C 0.97296 0.73615 0.12663 0.0
N4222 N 0.96043 0.70613 0.09784 0.0
N4223 N 0.03438 0.74458 0.15156 0.0
C4224 C 0.97574 0.71304 0.11592 0.0
C4225 C 0.0149 0.7338 0.14086 0.0
N4226 N 0.99448 0.67378 0.11891 0.0
N4227 N 0.9973 0.77186 0.12903 0.0
H4228 H 0.05062 0.73562 0.15491 0.0
H4229 H 0.03385 0.76228 0.15805 0.0
H4230 H 0.98488 0.7811 0.11822 0.0
H4231 H 0.01369 0.78086 0.13131 0.0
H4232 H 0.97932 0.66519 0.1117 0.0
H4233 H 0.00779 0.66186 0.12493 0.0
H4234 H 0.96279 0.69035 0.08782 0.0
H4235 H 0.94701 0.71776 0.09136 0.0
C4236 C 0.77311 0.00973 0.13452 0.0
C4237 C 0.79028 0.01382 0.15326 0.0
C4238 C 0.77489 0.97787 0.17422 0.0
C4239 C 0.76232 0.97109 0.15297 0.0
N4240 N 0.74988 0.97999 0.11224 0.0
N4241 N 0.80787 1.00075 0.19132 0.0
C4242 C 0.76125 0.987 0.13301 0.0
C4243 C 0.79096 0.99791 0.17352 0.0
N4244 N 0.76751 0.02782 0.11866 0.0
N4245 N 0.77173 0.96479 0.19493 0.0
H4246 H 0.82009 0.01495 0.19195 0.0
H4247 H 0.81106 0.98787 0.20469 0.0
H4248 H 0.76016 0.94991 0.19579 0.0
H4249 H 0.77855 0.9701 0.21168 0.0
H4250 H 0.75362 0.02645 0.10599 0.0
H4251 H 0.77475 0.04517 0.12008 0.0
H4252 H 0.75088 0.98976 0.09616 0.0
H4253 H 0.74068 0.96359 0.11075 0.0
C4254 C 0.53549 0.79209 0.17274 0.0
C4255 C 0.54236 0.77456 0.15533 0.0
C4256 C 0.50296 0.77861 0.13557 0.0
C4257 C 0.49765 0.79874 0.15066 0.0
N4258 N 0.51074 0.82709 0.18134 0.0
N4259 N 0.53397 0.75295 0.11838 0.0
C4260 C 0.51429 0.80604 0.16884 0.0
C4261 C 0.5264 0.76815 0.13634 0.0
N4262 N 0.54927 0.79533 0.19301 0.0
N4263 N 0.48547 0.76895 0.121 0.0
H4264 H 0.55088 0.7446 0.11843 0.0
H4265 H 0.52419 0.75006 0.10254 0.0
H4266 H 0.46801 0.77592 0.11985 0.0
H4267 H 0.48757 0.75265 0.11179 0.0
H4268 H 0.54396 0.80616 0.20749 0.0
H4269 H 0.56491 0.78531 0.19638 0.0
H4270 H 0.52355 0.83446 0.19303 0.0
H4271 H 0.49611 0.83858 0.17831 0.0
C4272 C 0.37551 0.71594 1.00184 0.0
C4273 C 0.3566 0.71804 0.01909 0.0
C4274 C 0.33253 0.74087 0.98968 0.0
C4275 C 0.3525 0.7406 0.97354 0.0
N4276 N 0.39514 0.73402 0.96732 0.0
N4277 N 0.31924 0.73721 0.03126 0.0
C4278 C 0.37476 0.73031 0.98078 0.0
C4279 C 0.33569 0.73195 0.01361 0.0
N4280 N 0.39326 0.69893 0.0045 0.0
N4281 N 0.31036 0.74854 0.98194 0.0
H4282 H 0.3213 0.73166 0.04916 0.0
H4283 H 0.3048 0.74901 0.02866 0.0
H4284 H 0.30729 0.75522 0.96459 0.0
H4285 H 0.29466 0.74658 0.99215 0.0
H4286 H 0.4061 0.69538 0.99117 0.0
H4287 H 0.39337 0.68624 0.01842 0.0
H4288 H 0.41225 0.72851 0.973 0.0
H4289 H 0.39523 0.74481 0.95184 0.0
C4290 C 0.36058 0.77059 0.51556 0.0
C4291 C 0.34008 0.76388 0.52929 0.0
C4292 C 0.3137 0.78152 0.49841 0.0
C4293 C 0.33422 0.79223 0.48746 0.0
N4294 N 0.37727 0.79985 0.48785 0.0
N4295 N 0.29676 0.76373 0.53465 0.0
C4296 C 0.35778 0.78724 0.49632 0.0
C4297 C 0.31645 0.76917 0.52077 0.0
N4298 N 0.38277 0.76144 0.5214 0.0
N4299 N 0.29167 0.78303 0.48733 0.0
H4300 H 0.298 0.75431 0.55092 0.0
H4301 H 0.27937 0.76984 0.53075 0.0
H4302 H 0.28918 0.79199 0.47091 0.0
H4303 H 0.27657 0.77343 0.49315 0.0
H4304 H 0.3981 0.76407 0.51077 0.0
H4305 H 0.38519 0.74917 0.53554 0.0
H4306 H 0.39444 0.79866 0.49552 0.0
H4307 H 0.37592 0.81324 0.47467 0.0
C4308 C 0.72489 0.32733 0.51938 0.0
C4309 C 0.73077 0.34959 0.53072 0.0
C4310 C 0.70171 0.37063 0.50491 0.0
C4311 C 0.69757 0.34908 0.49153 0.0
N4312 N 0.69705 0.30535 0.49365 0.0
N4313 N 0.72877 0.39299 0.53097 0.0
C4314 C 0.70709 0.32685 0.50061 0.0
C4315 C 0.72054 0.3714 0.52223 0.0
N4316 N 0.73627 0.30663 0.52667 0.0
N4317 N 0.68576 0.38944 0.50334 0.0
H4318 H 0.74274 0.3941 0.54364 0.0
H4319 H 0.72352 0.4096 0.52378 0.0
H4320 H 0.66918 0.38789 0.49449 0.0
H4321 H 0.68695 0.40489 0.51407 0.0
H4322 H 0.73513 0.29028 0.51744 0.0
H4323 H 0.74862 0.30622 0.5409 0.0
H4324 H 0.70209 0.28861 0.50055 0.0
H4325 H 0.68099 0.30424 0.48394 0.0
C4326 C 0.16574 0.71247 0.52707 0.0
C4327 C 0.1484 0.73071 0.53193 0.0
C4328 C 0.13169 0.72576 0.49124 0.0
C4329 C 0.1463 0.70486 0.48808 0.0
N4330 N 0.17508 0.67627 0.50441 0.0
N4331 N 0.11372 0.75405 0.51949 0.0
C4332 C 0.16299 0.69778 0.50625 0.0
C4333 C 0.13119 0.7374 0.51415 0.0
N4334 N 0.18486 0.70928 0.54242 0.0
N4335 N 0.1188 0.73484 0.47219 0.0
H4336 H 0.11306 0.76331 0.53591 0.0
H4337 H 0.09899 0.75755 0.50828 0.0
H4338 H 0.11876 0.72686 0.45512 0.0
H4339 H 0.10995 0.75146 0.47269 0.0
H4340 H 0.19933 0.69783 0.53863 0.0
H4341 H 0.18745 0.71996 0.55778 0.0
H4342 H 0.18546 0.66905 0.51838 0.0
H4343 H 0.17297 0.66442 0.4899 0.0
C4344 C 0.75556 0.14909 0.51774 0.0
C4345 C 0.76455 0.1661 0.5347 0.0
C4346 C 0.7935 0.18131 0.50484 0.0
C4347 C 0.78481 0.16398 0.48793 0.0
N4348 N 0.75285 0.13706 0.47562 0.0
N4349 N 0.78609 0.20313 0.54219 0.0
C4350 C 0.76417 0.1498 0.49353 0.0
C4351 C 0.78141 0.18392 0.52736 0.0
N4352 N 0.74001 0.13135 0.52505 0.0
N4353 N 0.81434 0.19385 0.50043 0.0
H4354 H 0.77741 0.2054 0.55879 0.0
H4355 H 0.79658 0.21787 0.53698 0.0
H4356 H 0.82424 0.19235 0.4845 0.0
H4357 H 0.82296 0.20443 0.51343 0.0
H4358 H 0.7351 0.11678 0.51417 0.0
H4359 H 0.73304 0.13041 0.54253 0.0
H4360 H 0.73648 0.12807 0.47808 0.0
H4361 H 0.7586 0.13761 0.45765 0.0
C4362 C 0.17642 0.77203 0.0193 0.0
C4363 C 0.15742 0.78666 0.02846 0.0
C4364 C 0.13189 0.77496 0.99427 0.0
C4365 C 0.15192 0.76337 0.98326 0.0
N4366 N 0.19474 0.75423 0.98377 0.0
N4367 N 0.11862 0.80578 0.02224 0.0
C4368 C 0.17457 0.76248 0.99546 0.0
C4369 C 0.13556 0.7892 0.01528 0.0
N4370 N 0.19651 0.76773 0.03306 0.0
N4371 N 0.10932 0.77224 0.98459 0.0
H4372 H 0.1207 0.81689 0.03733 0.0
H4373 H 0.1035 0.81002 0.01182 0.0
H4374 H 0.10607 0.76153 0.96937 0.0
H4375 H 0.09367 0.77847 0.99304 0.0
H4376 H 0.20955 0.75491 0.02848 0.0
H4377 H 0.19943 0.7758 0.04985 0.0
H4378 H 0.21214 0.75582 0.99081 0.0
H4379 H 0.19456 0.7476 0.96615 0.0
C4380 C 0.7227 0.17134 0.9824 0.0
C4381 C 0.7371 0.15114 0.97627 0.0
C4382 C 0.72512 0.13123 0.01392 0.0
C4383 C 0.70708 0.14932 0.01764 0.0
N4384 N 0.68699 0.18546 0.00298 0.0
N4385 N 0.75152 0.11112 0.98525 0.0
C4386 C 0.70564 0.16933 1.00146 0.0
C4387 C 0.73839 0.13097 0.9919 0.0
N4388 N 0.72506 0.19232 0.96959 0.0
N4389 N 0.73019 0.11474 0.03161 0.0
H4390 H 0.76212 0.1107 0.96965 0.0
H4391 H 0.75075 0.09468 0.99438 0.0
H4392 H 0.7214 0.11436 0.04824 0.0
H4393 H 0.74487 0.10298 0.03082 0.0
H4394 H 0.71677 0.20847 0.97462 0.0
H4395 H 0.73732 0.19415 0.95536 0.0
H4396 H 0.68369 0.19871 0.99001 0.0
H4397 H 0.67325 0.18426 0.0157 0.0
C4398 C 0.74709 0.36868 0.98757 0.0
C4399 C 0.75397 0.35191 0.96945 0.0
C4400 C 0.78487 0.33486 0.99623 0.0
C4401 C 0.77824 0.35187 0.01429 0.0
N4402 N 0.74808 0.37889 0.03022 0.0
N4403 N 0.77307 0.31407 0.95948 0.0
C4404 C 0.75765 0.3668 0.01094 0.0
C4405 C 0.77069 0.33323 0.97489 0.0
N4406 N 0.73158 0.38712 0.98217 0.0
N4407 N 0.80558 0.32154 0.99846 0.0
H4408 H 0.76246 0.31222 0.94397 0.0
H4409 H 0.7836 0.29896 0.96336 0.0
H4410 H 0.81688 0.32228 0.01351 0.0
H4411 H 0.81264 0.31109 0.98446 0.0
H4412 H 0.72805 0.40139 0.99395 0.0
H4413 H 0.72333 0.38896 0.96532 0.0
H4414 H 0.7319 0.3885 0.02942 0.0
H4415 H 0.75505 0.37699 0.04767 0.0
loop_
_geom_bond_atom_site_label_1
_geom_bond_atom_site_label_2
_geom_bond_distance
_geom_bond_site_symmetry_2
_ccdc_geom_bond_type
O0 Tb1 2.292 . S
O0 C3 1.255 . S
Tb1 O0 2.292 . S
Tb1 O17 2.326 . S
Tb1 O19 2.500 . S
Tb1 O20 2.473 . S
Tb1 O23 2.324 . S
Eu2 O6 2.292 . S
Eu2 C7 2.852 . S
Eu2 O18 2.324 . S
Eu2 O22 2.326 . S
Eu2 O24 2.500 . S
Eu2 O25 2.473 . S
C3 O0 1.255 . S
C3 O4 1.247 . S
O4 C3 1.247 . S
C5 O17 1.242 . S
C5 O18 1.258 . S
O6 Eu2 2.292 . S
O6 C8 1.255 . S
C7 Eu2 2.852 . S
C7 C11 1.503 . S
C7 O24 1.273 . S
C7 O25 1.257 . S
C8 O6 1.255 . S
C8 O9 1.247 . S
O9 C8 1.247 . S
C10 O22 1.242 . S
C10 O23 1.258 . S
C11 C7 1.503 . S
C11 C12 1.379 . S
C11 C16 1.392 . S
C12 C11 1.379 . S
C12 C13 1.404 . S
C12 H26 0.929 . S
C13 C12 1.404 . S
C13 C14 1.389 . S
C14 C13 1.389 . S
C14 C15 1.399 . S
C14 H27 0.931 . S
C15 C14 1.399 . S
C15 C16 1.390 . S
C16 C11 1.392 . S
C16 C15 1.390 . S
C16 H28 0.929 . S
O17 Tb1 2.326 . S
O17 C5 1.242 . S
O18 Eu2 2.324 . S
O18 C5 1.258 . S
O19 Tb1 2.500 . S
O19 C21 1.273 . S
O20 Tb1 2.473 . S
O20 C21 1.257 . S
C21 O19 1.273 . S
C21 O20 1.257 . S
O22 Eu2 2.326 . S
O22 C10 1.242 . S
O23 Tb1 2.324 . S
O23 C10 1.258 . S
O24 Eu2 2.500 . S
O24 C7 1.273 . S
O25 Eu2 2.473 . S
O25 C7 1.257 . S
H26 C12 0.929 . S
H27 C14 0.931 . S
H28 C16 0.929 . S
O29 Tb30 2.292 . S
O29 C32 1.255 . S
Tb30 O29 2.292 . S
Tb30 O46 2.326 . S
Tb30 O48 2.500 . S
Tb30 O49 2.473 . S
Tb30 O52 2.324 . S
Eu31 O35 2.292 . S
Eu31 C36 2.852 . S
Eu31 O47 2.324 . S
Eu31 O51 2.326 . S
Eu31 O53 2.500 . S
Eu31 O54 2.473 . S
C32 O29 1.255 . S
C32 O33 1.247 . S
O33 C32 1.247 . S
C34 O46 1.242 . S
C34 O47 1.258 . S
O35 Eu31 2.292 . S
O35 C37 1.255 . S
C36 Eu31 2.852 . S
C36 C40 1.503 . S
C36 O53 1.273 . S
C36 O54 1.257 . S
C37 O35 1.255 . S
C37 O38 1.247 . S
O38 C37 1.247 . S
C39 O51 1.242 . S
C39 O52 1.258 . S
C40 C36 1.503 . S
C40 C41 1.379 . S
C40 C45 1.392 . S
C41 C40 1.379 . S
C41 C42 1.404 . S
C41 H55 0.929 . S
C42 C41 1.404 . S
C42 C43 1.389 . S
C43 C42 1.389 . S
C43 C44 1.399 . S
C43 H56 0.931 . S
C44 C43 1.399 . S
C44 C45 1.390 . S
C45 C40 1.392 . S
C45 C44 1.390 . S
C45 H57 0.929 . S
O46 Tb30 2.326 . S
O46 C34 1.242 . S
O47 Eu31 2.324 . S
O47 C34 1.258 . S
O48 Tb30 2.500 . S
O48 C50 1.273 . S
O49 Tb30 2.473 . S
O49 C50 1.257 . S
C50 O48 1.273 . S
C50 O49 1.257 . S
O51 Eu31 2.326 . S
O51 C39 1.242 . S
O52 Tb30 2.324 . S
O52 C39 1.258 . S
O53 Eu31 2.500 . S
O53 C36 1.273 . S
O54 Eu31 2.473 . S
O54 C36 1.257 . S
H55 C41 0.929 . S
H56 C43 0.931 . S
H57 C45 0.929 . S
O58 Tb59 2.292 . S
O58 C61 1.255 . S
Tb59 O58 2.292 . S
Tb59 O75 2.326 . S
Tb59 O77 2.500 . S
Tb59 O78 2.473 . S
Tb59 O81 2.324 . S
Eu60 O64 2.292 . S
Eu60 C65 2.852 . S
Eu60 O76 2.324 . S
Eu60 O80 2.326 . S
Eu60 O82 2.500 . S
Eu60 O83 2.473 . S
C61 O58 1.255 . S
C61 O62 1.247 . S
O62 C61 1.247 . S
C63 O75 1.242 . S
C63 O76 1.258 . S
O64 Eu60 2.292 . S
O64 C66 1.255 . S
C65 Eu60 2.852 . S
C65 C69 1.503 . S
C65 O82 1.273 . S
C65 O83 1.257 . S
C66 O64 1.255 . S
C66 O67 1.247 . S
O67 C66 1.247 . S
C68 O80 1.242 . S
C68 O81 1.258 . S
C69 C65 1.503 . S
C69 C70 1.379 . S
C69 C74 1.392 . S
C70 C69 1.379 . S
C70 C71 1.404 . S
C70 H84 0.929 . S
C71 C70 1.404 . S
C71 C72 1.389 . S
C72 C71 1.389 . S
C72 C73 1.399 . S
C72 H85 0.931 . S
C73 C72 1.399 . S
C73 C74 1.390 . S
C74 C69 1.392 . S
C74 C73 1.390 . S
C74 H86 0.929 . S
O75 Tb59 2.326 . S
O75 C63 1.242 . S
O76 Eu60 2.324 . S
O76 C63 1.258 . S
O77 Tb59 2.500 . S
O77 C79 1.273 . S
O78 Tb59 2.473 . S
O78 C79 1.257 . S
C79 O77 1.273 . S
C79 O78 1.257 . S
O80 Eu60 2.326 . S
O80 C68 1.242 . S
O81 Tb59 2.324 . S
O81 C68 1.258 . S
O82 Eu60 2.500 . S
O82 C65 1.273 . S
O83 Eu60 2.473 . S
O83 C65 1.257 . S
H84 C70 0.929 . S
H85 C72 0.931 . S
H86 C74 0.929 . S
O87 Tb88 2.292 . S
O87 C90 1.255 . S
Tb88 O87 2.292 . S
Tb88 O104 2.326 . S
Tb88 O106 2.500 . S
Tb88 O107 2.473 . S
Tb88 O110 2.324 . S
Eu89 O93 2.292 . S
Eu89 C94 2.852 . S
Eu89 O105 2.324 . S
Eu89 O109 2.326 . S
Eu89 O111 2.500 . S
Eu89 O112 2.473 . S
C90 O87 1.255 . S
C90 O91 1.247 . S
O91 C90 1.247 . S
C92 O104 1.242 . S
C92 O105 1.258 . S
O93 Eu89 2.292 . S
O93 C95 1.255 . S
C94 Eu89 2.852 . S
C94 C98 1.503 . S
C94 O111 1.273 . S
C94 O112 1.257 . S
C95 O93 1.255 . S
C95 O96 1.247 . S
O96 C95 1.247 . S
C97 O109 1.242 . S
C97 O110 1.258 . S
C98 C94 1.503 . S
C98 C99 1.379 . S
C98 C103 1.392 . S
C99 C98 1.379 . S
C99 C100 1.404 . S
C99 H113 0.929 . S
C100 C99 1.404 . S
C100 C101 1.389 . S
C101 C100 1.389 . S
C101 C102 1.399 . S
C101 H114 0.931 . S
C102 C101 1.399 . S
C102 C103 1.390 . S
C103 C98 1.392 . S
C103 C102 1.390 . S
C103 H115 0.929 . S
O104 Tb88 2.326 . S
O104 C92 1.242 . S
O105 Eu89 2.324 . S
O105 C92 1.258 . S
O106 Tb88 2.500 . S
O106 C108 1.273 . S
O107 Tb88 2.473 . S
O107 C108 1.257 . S
C108 O106 1.273 . S
C108 O107 1.257 . S
O109 Eu89 2.326 . S
O109 C97 1.242 . S
O110 Tb88 2.324 . S
O110 C97 1.258 . S
O111 Eu89 2.500 . S
O111 C94 1.273 . S
O112 Eu89 2.473 . S
O112 C94 1.257 . S
H113 C99 0.929 . S
H114 C101 0.931 . S
H115 C103 0.929 . S
O116 Tb117 2.292 . S
O116 C119 1.255 . S
Tb117 O116 2.292 . S
Tb117 O133 2.326 . S
Tb117 O135 2.500 . S
Tb117 O136 2.473 . S
Tb117 O139 2.324 . S
Eu118 O122 2.292 . S
Eu118 C123 2.852 . S
Eu118 O134 2.324 . S
Eu118 O138 2.326 . S
Eu118 O140 2.500 . S
Eu118 O141 2.473 . S
C119 O116 1.255 . S
C119 O120 1.247 . S
O120 C119 1.247 . S
C121 O133 1.242 . S
C121 O134 1.258 . S
O122 Eu118 2.292 . S
O122 C124 1.255 . S
C123 Eu118 2.852 . S
C123 C127 1.503 . S
C123 O140 1.273 . S
C123 O141 1.257 . S
C124 O122 1.255 . S
C124 O125 1.247 . S
O125 C124 1.247 . S
C126 O138 1.242 . S
C126 O139 1.258 . S
C127 C123 1.503 . S
C127 C128 1.379 . S
C127 C132 1.392 . S
C128 C127 1.379 . S
C128 C129 1.404 . S
C128 H142 0.929 . S
C129 C128 1.404 . S
C129 C130 1.389 . S
C130 C129 1.389 . S
C130 C131 1.399 . S
C130 H143 0.931 . S
C131 C130 1.399 . S
C131 C132 1.390 . S
C132 C127 1.392 . S
C132 C131 1.390 . S
C132 H144 0.929 . S
O133 Tb117 2.326 . S
O133 C121 1.242 . S
O134 Eu118 2.324 . S
O134 C121 1.258 . S
O135 Tb117 2.500 . S
O135 C137 1.273 . S
O136 Tb117 2.473 . S
O136 C137 1.257 . S
C137 O135 1.273 . S
C137 O136 1.257 . S
O138 Eu118 2.326 . S
O138 C126 1.242 . S
O139 Tb117 2.324 . S
O139 C126 1.258 . S
O140 Eu118 2.500 . S
O140 C123 1.273 . S
O141 Eu118 2.473 . S
O141 C123 1.257 . S
H142 C128 0.929 . S
H143 C130 0.931 . S
H144 C132 0.929 . S
O145 Tb146 2.292 . S
O145 C148 1.255 . S
Tb146 O145 2.292 . S
Tb146 O162 2.326 . S
Tb146 O164 2.500 . S
Tb146 O165 2.473 . S
Tb146 O168 2.324 . S
Eu147 O151 2.292 . S
Eu147 C152 2.852 . S
Eu147 O163 2.324 . S
Eu147 O167 2.326 . S
Eu147 O169 2.500 . S
Eu147 O170 2.473 . S
C148 O145 1.255 . S
C148 O149 1.247 . S
O149 C148 1.247 . S
C150 O162 1.242 . S
C150 O163 1.258 . S
O151 Eu147 2.292 . S
O151 C153 1.255 . S
C152 Eu147 2.852 . S
C152 C156 1.503 . S
C152 O169 1.273 . S
C152 O170 1.257 . S
C153 O151 1.255 . S
C153 O154 1.247 . S
O154 C153 1.247 . S
C155 O167 1.242 . S
C155 O168 1.258 . S
C156 C152 1.503 . S
C156 C157 1.379 . S
C156 C161 1.392 . S
C157 C156 1.379 . S
C157 C158 1.404 . S
C157 H171 0.929 . S
C158 C157 1.404 . S
C158 C159 1.389 . S
C159 C158 1.389 . S
C159 C160 1.399 . S
C159 H172 0.931 . S
C160 C159 1.399 . S
C160 C161 1.390 . S
C161 C156 1.392 . S
C161 C160 1.390 . S
C161 H173 0.929 . S
O162 Tb146 2.326 . S
O162 C150 1.242 . S
O163 Eu147 2.324 . S
O163 C150 1.258 . S
O164 Tb146 2.500 . S
O164 C166 1.273 . S
O165 Tb146 2.473 . S
O165 C166 1.257 . S
C166 O164 1.273 . S
C166 O165 1.257 . S
O167 Eu147 2.326 . S
O167 C155 1.242 . S
O168 Tb146 2.324 . S
O168 C155 1.258 . S
O169 Eu147 2.500 . S
O169 C152 1.273 . S
O170 Eu147 2.473 . S
O170 C152 1.257 . S
H171 C157 0.929 . S
H172 C159 0.931 . S
H173 C161 0.929 . S
O174 Tb175 2.292 . S
O174 C177 1.255 . S
Tb175 O174 2.292 . S
Tb175 O191 2.326 . S
Tb175 O193 2.500 . S
Tb175 O194 2.473 . S
Tb175 O197 2.324 . S
Eu176 O180 2.292 . S
Eu176 C181 2.852 . S
Eu176 O192 2.324 . S
Eu176 O196 2.326 . S
Eu176 O198 2.500 . S
Eu176 O199 2.473 . S
C177 O174 1.255 . S
C177 O178 1.247 . S
O178 C177 1.247 . S
C179 O191 1.242 . S
C179 O192 1.258 . S
O180 Eu176 2.292 . S
O180 C182 1.255 . S
C181 Eu176 2.852 . S
C181 C185 1.503 . S
C181 O198 1.273 . S
C181 O199 1.257 . S
C182 O180 1.255 . S
C182 O183 1.247 . S
O183 C182 1.247 . S
C184 O196 1.242 . S
C184 O197 1.258 . S
C185 C181 1.503 . S
C185 C186 1.379 . S
C185 C190 1.392 . S
C186 C185 1.379 . S
C186 C187 1.404 . S
C186 H200 0.929 . S
C187 C186 1.404 . S
C187 C188 1.389 . S
C188 C187 1.389 . S
C188 C189 1.399 . S
C188 H201 0.931 . S
C189 C188 1.399 . S
C189 C190 1.390 . S
C190 C185 1.392 . S
C190 C189 1.390 . S
C190 H202 0.929 . S
O191 Tb175 2.326 . S
O191 C179 1.242 . S
O192 Eu176 2.324 . S
O192 C179 1.258 . S
O193 Tb175 2.500 . S
O193 C195 1.273 . S
O194 Tb175 2.473 . S
O194 C195 1.257 . S
C195 O193 1.273 . S
C195 O194 1.257 . S
O196 Eu176 2.326 . S
O196 C184 1.242 . S
O197 Tb175 2.324 . S
O197 C184 1.258 . S
O198 Eu176 2.500 . S
O198 C181 1.273 . S
O199 Eu176 2.473 . S
O199 C181 1.257 . S
H200 C186 0.929 . S
H201 C188 0.931 . S
H202 C190 0.929 . S
O203 Tb204 2.292 . S
O203 C206 1.255 . S
Tb204 O203 2.292 . S
Tb204 O220 2.326 . S
Tb204 O222 2.500 . S
Tb204 O223 2.473 . S
Tb204 O226 2.324 . S
Eu205 O209 2.292 . S
Eu205 C210 2.852 . S
Eu205 O221 2.324 . S
Eu205 O225 2.326 . S
Eu205 O227 2.500 . S
Eu205 O228 2.473 . S
C206 O203 1.255 . S
C206 O207 1.247 . S
O207 C206 1.247 . S
C208 O220 1.242 . S
C208 O221 1.258 . S
O209 Eu205 2.292 . S
O209 C211 1.255 . S
C210 Eu205 2.852 . S
C210 C214 1.503 . S
C210 O227 1.273 . S
C210 O228 1.257 . S
C211 O209 1.255 . S
C211 O212 1.247 . S
O212 C211 1.247 . S
C213 O225 1.242 . S
C213 O226 1.258 . S
C214 C210 1.503 . S
C214 C215 1.379 . S
C214 C219 1.392 . S
C215 C214 1.379 . S
C215 C216 1.404 . S
C215 H229 0.929 . S
C216 C215 1.404 . S
C216 C217 1.389 . S
C217 C216 1.389 . S
C217 C218 1.399 . S
C217 H230 0.931 . S
C218 C217 1.399 . S
C218 C219 1.390 . S
C219 C214 1.392 . S
C219 C218 1.390 . S
C219 H231 0.929 . S
O220 Tb204 2.326 . S
O220 C208 1.242 . S
O221 Eu205 2.324 . S
O221 C208 1.258 . S
O222 Tb204 2.500 . S
O222 C224 1.273 . S
O223 Tb204 2.473 . S
O223 C224 1.257 . S
C224 O222 1.273 . S
C224 O223 1.257 . S
O225 Eu205 2.326 . S
O225 C213 1.242 . S
O226 Tb204 2.324 . S
O226 C213 1.258 . S
O227 Eu205 2.500 . S
O227 C210 1.273 . S
O228 Eu205 2.473 . S
O228 C210 1.257 . S
H229 C215 0.929 . S
H230 C217 0.931 . S
H231 C219 0.929 . S
O232 Tb233 2.292 . S
O232 C235 1.255 . S
Tb233 O232 2.292 . S
Tb233 O249 2.326 . S
Tb233 O251 2.500 . S
Tb233 O252 2.473 . S
Tb233 O255 2.324 . S
Eu234 O238 2.292 . S
Eu234 C239 2.852 . S
Eu234 O250 2.324 . S
Eu234 O254 2.326 . S
Eu234 O256 2.500 . S
Eu234 O257 2.473 . S
C235 O232 1.255 . S
C235 O236 1.247 . S
O236 C235 1.247 . S
C237 O249 1.242 . S
C237 O250 1.258 . S
O238 Eu234 2.292 . S
O238 C240 1.255 . S
C239 Eu234 2.852 . S
C239 C243 1.503 . S
C239 O256 1.273 . S
C239 O257 1.257 . S
C240 O238 1.255 . S
C240 O241 1.247 . S
O241 C240 1.247 . S
C242 O254 1.242 . S
C242 O255 1.258 . S
C243 C239 1.503 . S
C243 C244 1.379 . S
C243 C248 1.392 . S
C244 C243 1.379 . S
C244 C245 1.404 . S
C244 H258 0.929 . S
C245 C244 1.404 . S
C245 C246 1.389 . S
C246 C245 1.389 . S
C246 C247 1.399 . S
C246 H259 0.931 . S
C247 C246 1.399 . S
C247 C248 1.390 . S
C248 C243 1.392 . S
C248 C247 1.390 . S
C248 H260 0.929 . S
O249 Tb233 2.326 . S
O249 C237 1.242 . S
O250 Eu234 2.324 . S
O250 C237 1.258 . S
O251 Tb233 2.500 . S
O251 C253 1.273 . S
O252 Tb233 2.473 . S
O252 C253 1.257 . S
C253 O251 1.273 . S
C253 O252 1.257 . S
O254 Eu234 2.326 . S
O254 C242 1.242 . S
O255 Tb233 2.324 . S
O255 C242 1.258 . S
O256 Eu234 2.500 . S
O256 C239 1.273 . S
O257 Eu234 2.473 . S
O257 C239 1.257 . S
H258 C244 0.929 . S
H259 C246 0.931 . S
H260 C248 0.929 . S
O261 Tb262 2.292 . S
O261 C264 1.255 . S
Tb262 O261 2.292 . S
Tb262 O278 2.326 . S
Tb262 O280 2.500 . S
Tb262 O281 2.473 . S
Tb262 O284 2.324 . S
Eu263 O267 2.292 . S
Eu263 C268 2.852 . S
Eu263 O279 2.324 . S
Eu263 O283 2.326 . S
Eu263 O285 2.500 . S
Eu263 O286 2.473 . S
C264 O261 1.255 . S
C264 O265 1.247 . S
O265 C264 1.247 . S
C266 O278 1.242 . S
C266 O279 1.258 . S
O267 Eu263 2.292 . S
O267 C269 1.255 . S
C268 Eu263 2.852 . S
C268 C272 1.503 . S
C268 O285 1.273 . S
C268 O286 1.257 . S
C269 O267 1.255 . S
C269 O270 1.247 . S
O270 C269 1.247 . S
C271 O283 1.242 . S
C271 O284 1.258 . S
C272 C268 1.503 . S
C272 C273 1.379 . S
C272 C277 1.392 . S
C273 C272 1.379 . S
C273 C274 1.404 . S
C273 H287 0.929 . S
C274 C273 1.404 . S
C274 C275 1.389 . S
C275 C274 1.389 . S
C275 C276 1.399 . S
C275 H288 0.931 . S
C276 C275 1.399 . S
C276 C277 1.390 . S
C277 C272 1.392 . S
C277 C276 1.390 . S
C277 H289 0.929 . S
O278 Tb262 2.326 . S
O278 C266 1.242 . S
O279 Eu263 2.324 . S
O279 C266 1.258 . S
O280 Tb262 2.500 . S
O280 C282 1.273 . S
O281 Tb262 2.473 . S
O281 C282 1.257 . S
C282 O280 1.273 . S
C282 O281 1.257 . S
O283 Eu263 2.326 . S
O283 C271 1.242 . S
O284 Tb262 2.324 . S
O284 C271 1.258 . S
O285 Eu263 2.500 . S
O285 C268 1.273 . S
O286 Eu263 2.473 . S
O286 C268 1.257 . S
H287 C273 0.929 . S
H288 C275 0.931 . S
H289 C277 0.929 . S
O290 Tb291 2.292 . S
O290 C293 1.255 . S
Tb291 O290 2.292 . S
Tb291 O307 2.326 . S
Tb291 O309 2.500 . S
Tb291 O310 2.473 . S
Tb291 O313 2.324 . S
Eu292 O296 2.292 . S
Eu292 C297 2.852 . S
Eu292 O308 2.324 . S
Eu292 O312 2.326 . S
Eu292 O314 2.500 . S
Eu292 O315 2.473 . S
C293 O290 1.255 . S
C293 O294 1.247 . S
O294 C293 1.247 . S
C295 O307 1.242 . S
C295 O308 1.258 . S
O296 Eu292 2.292 . S
O296 C298 1.255 . S
C297 Eu292 2.852 . S
C297 C301 1.503 . S
C297 O314 1.273 . S
C297 O315 1.257 . S
C298 O296 1.255 . S
C298 O299 1.247 . S
O299 C298 1.247 . S
C300 O312 1.242 . S
C300 O313 1.258 . S
C301 C297 1.503 . S
C301 C302 1.379 . S
C301 C306 1.392 . S
C302 C301 1.379 . S
C302 C303 1.404 . S
C302 H316 0.929 . S
C303 C302 1.404 . S
C303 C304 1.389 . S
C304 C303 1.389 . S
C304 C305 1.399 . S
C304 H317 0.931 . S
C305 C304 1.399 . S
C305 C306 1.390 . S
C306 C301 1.392 . S
C306 C305 1.390 . S
C306 H318 0.929 . S
O307 Tb291 2.326 . S
O307 C295 1.242 . S
O308 Eu292 2.324 . S
O308 C295 1.258 . S
O309 Tb291 2.500 . S
O309 C311 1.273 . S
O310 Tb291 2.473 . S
O310 C311 1.257 . S
C311 O309 1.273 . S
C311 O310 1.257 . S
O312 Eu292 2.326 . S
O312 C300 1.242 . S
O313 Tb291 2.324 . S
O313 C300 1.258 . S
O314 Eu292 2.500 . S
O314 C297 1.273 . S
O315 Eu292 2.473 . S
O315 C297 1.257 . S
H316 C302 0.929 . S
H317 C304 0.931 . S
H318 C306 0.929 . S
O319 Tb320 2.292 . S
O319 C322 1.255 . S
Tb320 O319 2.292 . S
Tb320 O336 2.326 . S
Tb320 O338 2.500 . S
Tb320 O339 2.473 . S
Tb320 O342 2.324 . S
Eu321 O325 2.292 . S
Eu321 C326 2.852 . S
Eu321 O337 2.324 . S
Eu321 O341 2.326 . S
Eu321 O343 2.500 . S
Eu321 O344 2.473 . S
C322 O319 1.255 . S
C322 O323 1.247 . S
O323 C322 1.247 . S
C324 O336 1.242 . S
C324 O337 1.258 . S
O325 Eu321 2.292 . S
O325 C327 1.255 . S
C326 Eu321 2.852 . S
C326 C330 1.503 . S
C326 O343 1.273 . S
C326 O344 1.257 . S
C327 O325 1.255 . S
C327 O328 1.247 . S
O328 C327 1.247 . S
C329 O341 1.242 . S
C329 O342 1.258 . S
C330 C326 1.503 . S
C330 C331 1.379 . S
C330 C335 1.392 . S
C331 C330 1.379 . S
C331 C332 1.404 . S
C331 H345 0.929 . S
C332 C331 1.404 . S
C332 C333 1.389 . S
C333 C332 1.389 . S
C333 C334 1.399 . S
C333 H346 0.931 . S
C334 C333 1.399 . S
C334 C335 1.390 . S
C335 C330 1.392 . S
C335 C334 1.390 . S
C335 H347 0.929 . S
O336 Tb320 2.326 . S
O336 C324 1.242 . S
O337 Eu321 2.324 . S
O337 C324 1.258 . S
O338 Tb320 2.500 . S
O338 C340 1.273 . S
O339 Tb320 2.473 . S
O339 C340 1.257 . S
C340 O338 1.273 . S
C340 O339 1.257 . S
O341 Eu321 2.326 . S
O341 C329 1.242 . S
O342 Tb320 2.324 . S
O342 C329 1.258 . S
O343 Eu321 2.500 . S
O343 C326 1.273 . S
O344 Eu321 2.473 . S
O344 C326 1.257 . S
H345 C331 0.929 . S
H346 C333 0.931 . S
H347 C335 0.929 . S
O348 Tb349 2.292 . S
O348 C351 1.255 . S
Tb349 O348 2.292 . S
Tb349 O365 2.326 . S
Tb349 O367 2.500 . S
Tb349 O368 2.473 . S
Tb349 O371 2.324 . S
Eu350 O354 2.292 . S
Eu350 C355 2.852 . S
Eu350 O366 2.324 . S
Eu350 O370 2.326 . S
Eu350 O372 2.500 . S
Eu350 O373 2.473 . S
C351 O348 1.255 . S
C351 O352 1.247 . S
O352 C351 1.247 . S
C353 O365 1.242 . S
C353 O366 1.258 . S
O354 Eu350 2.292 . S
O354 C356 1.255 . S
C355 Eu350 2.852 . S
C355 C359 1.503 . S
C355 O372 1.273 . S
C355 O373 1.257 . S
C356 O354 1.255 . S
C356 O357 1.247 . S
O357 C356 1.247 . S
C358 O370 1.242 . S
C358 O371 1.258 . S
C359 C355 1.503 . S
C359 C360 1.379 . S
C359 C364 1.392 . S
C360 C359 1.379 . S
C360 C361 1.404 . S
C360 H374 0.929 . S
C361 C360 1.404 . S
C361 C362 1.389 . S
C362 C361 1.389 . S
C362 C363 1.399 . S
C362 H375 0.931 . S
C363 C362 1.399 . S
C363 C364 1.390 . S
C364 C359 1.392 . S
C364 C363 1.390 . S
C364 H376 0.929 . S
O365 Tb349 2.326 . S
O365 C353 1.242 . S
O366 Eu350 2.324 . S
O366 C353 1.258 . S
O367 Tb349 2.500 . S
O367 C369 1.273 . S
O368 Tb349 2.473 . S
O368 C369 1.257 . S
C369 O367 1.273 . S
C369 O368 1.257 . S
O370 Eu350 2.326 . S
O370 C358 1.242 . S
O371 Tb349 2.324 . S
O371 C358 1.258 . S
O372 Eu350 2.500 . S
O372 C355 1.273 . S
O373 Eu350 2.473 . S
O373 C355 1.257 . S
H374 C360 0.929 . S
H375 C362 0.931 . S
H376 C364 0.929 . S
O377 Tb378 2.292 . S
O377 C380 1.255 . S
Tb378 O377 2.292 . S
Tb378 O394 2.326 . S
Tb378 O396 2.500 . S
Tb378 O397 2.473 . S
Tb378 O400 2.324 . S
Eu379 O383 2.292 . S
Eu379 C384 2.852 . S
Eu379 O395 2.324 . S
Eu379 O399 2.326 . S
Eu379 O401 2.500 . S
Eu379 O402 2.473 . S
C380 O377 1.255 . S
C380 O381 1.247 . S
O381 C380 1.247 . S
C382 O394 1.242 . S
C382 O395 1.258 . S
O383 Eu379 2.292 . S
O383 C385 1.255 . S
C384 Eu379 2.852 . S
C384 C388 1.503 . S
C384 O401 1.273 . S
C384 O402 1.257 . S
C385 O383 1.255 . S
C385 O386 1.247 . S
O386 C385 1.247 . S
C387 O399 1.242 . S
C387 O400 1.258 . S
C388 C384 1.503 . S
C388 C389 1.379 . S
C388 C393 1.392 . S
C389 C388 1.379 . S
C389 C390 1.404 . S
C389 H403 0.929 . S
C390 C389 1.404 . S
C390 C391 1.389 . S
C391 C390 1.389 . S
C391 C392 1.399 . S
C391 H404 0.931 . S
C392 C391 1.399 . S
C392 C393 1.390 . S
C393 C388 1.392 . S
C393 C392 1.390 . S
C393 H405 0.929 . S
O394 Tb378 2.326 . S
O394 C382 1.242 . S
O395 Eu379 2.324 . S
O395 C382 1.258 . S
O396 Tb378 2.500 . S
O396 C398 1.273 . S
O397 Tb378 2.473 . S
O397 C398 1.257 . S
C398 O396 1.273 . S
C398 O397 1.257 . S
O399 Eu379 2.326 . S
O399 C387 1.242 . S
O400 Tb378 2.324 . S
O400 C387 1.258 . S
O401 Eu379 2.500 . S
O401 C384 1.273 . S
O402 Eu379 2.473 . S
O402 C384 1.257 . S
H403 C389 0.929 . S
H404 C391 0.931 . S
H405 C393 0.929 . S
O406 Tb407 2.292 . S
O406 C409 1.255 . S
Tb407 O406 2.292 . S
Tb407 O423 2.326 . S
Tb407 O425 2.500 . S
Tb407 O426 2.473 . S
Tb407 O429 2.324 . S
Eu408 O412 2.292 . S
Eu408 C413 2.852 . S
Eu408 O424 2.324 . S
Eu408 O428 2.326 . S
Eu408 O430 2.500 . S
Eu408 O431 2.473 . S
C409 O406 1.255 . S
C409 O410 1.247 . S
O410 C409 1.247 . S
C411 O423 1.242 . S
C411 O424 1.258 . S
O412 Eu408 2.292 . S
O412 C414 1.255 . S
C413 Eu408 2.852 . S
C413 C417 1.503 . S
C413 O430 1.273 . S
C413 O431 1.257 . S
C414 O412 1.255 . S
C414 O415 1.247 . S
O415 C414 1.247 . S
C416 O428 1.242 . S
C416 O429 1.258 . S
C417 C413 1.503 . S
C417 C418 1.379 . S
C417 C422 1.392 . S
C418 C417 1.379 . S
C418 C419 1.404 . S
C418 H432 0.929 . S
C419 C418 1.404 . S
C419 C420 1.389 . S
C420 C419 1.389 . S
C420 C421 1.399 . S
C420 H433 0.931 . S
C421 C420 1.399 . S
C421 C422 1.390 . S
C422 C417 1.392 . S
C422 C421 1.390 . S
C422 H434 0.929 . S
O423 Tb407 2.326 . S
O423 C411 1.242 . S
O424 Eu408 2.324 . S
O424 C411 1.258 . S
O425 Tb407 2.500 . S
O425 C427 1.273 . S
O426 Tb407 2.473 . S
O426 C427 1.257 . S
C427 O425 1.273 . S
C427 O426 1.257 . S
O428 Eu408 2.326 . S
O428 C416 1.242 . S
O429 Tb407 2.324 . S
O429 C416 1.258 . S
O430 Eu408 2.500 . S
O430 C413 1.273 . S
O431 Eu408 2.473 . S
O431 C413 1.257 . S
H432 C418 0.929 . S
H433 C420 0.931 . S
H434 C422 0.929 . S
O435 Tb436 2.292 . S
O435 C438 1.255 . S
Tb436 O435 2.292 . S
Tb436 O452 2.326 . S
Tb436 O454 2.500 . S
Tb436 O455 2.473 . S
Tb436 O458 2.324 . S
Eu437 O441 2.292 . S
Eu437 C442 2.852 . S
Eu437 O453 2.324 . S
Eu437 O457 2.326 . S
Eu437 O459 2.500 . S
Eu437 O460 2.473 . S
C438 O435 1.255 . S
C438 O439 1.247 . S
O439 C438 1.247 . S
C440 O452 1.242 . S
C440 O453 1.258 . S
O441 Eu437 2.292 . S
O441 C443 1.255 . S
C442 Eu437 2.852 . S
C442 C446 1.503 . S
C442 O459 1.273 . S
C442 O460 1.257 . S
C443 O441 1.255 . S
C443 O444 1.247 . S
O444 C443 1.247 . S
C445 O457 1.242 . S
C445 O458 1.258 . S
C446 C442 1.503 . S
C446 C447 1.379 . S
C446 C451 1.392 . S
C447 C446 1.379 . S
C447 C448 1.404 . S
C447 H461 0.929 . S
C448 C447 1.404 . S
C448 C449 1.389 . S
C449 C448 1.389 . S
C449 C450 1.399 . S
C449 H462 0.931 . S
C450 C449 1.399 . S
C450 C451 1.390 . S
C451 C446 1.392 . S
C451 C450 1.390 . S
C451 H463 0.929 . S
O452 Tb436 2.326 . S
O452 C440 1.242 . S
O453 Eu437 2.324 . S
O453 C440 1.258 . S
O454 Tb436 2.500 . S
O454 C456 1.273 . S
O455 Tb436 2.473 . S
O455 C456 1.257 . S
C456 O454 1.273 . S
C456 O455 1.257 . S
O457 Eu437 2.326 . S
O457 C445 1.242 . S
O458 Tb436 2.324 . S
O458 C445 1.258 . S
O459 Eu437 2.500 . S
O459 C442 1.273 . S
O460 Eu437 2.473 . S
O460 C442 1.257 . S
H461 C447 0.929 . S
H462 C449 0.931 . S
H463 C451 0.929 . S
O464 Tb465 2.292 . S
O464 C467 1.255 . S
Tb465 O464 2.292 . S
Tb465 O481 2.326 . S
Tb465 O483 2.500 . S
Tb465 O484 2.473 . S
Tb465 O487 2.324 . S
Eu466 O470 2.292 . S
Eu466 C471 2.852 . S
Eu466 O482 2.324 . S
Eu466 O486 2.326 . S
Eu466 O488 2.500 . S
Eu466 O489 2.473 . S
C467 O464 1.255 . S
C467 O468 1.247 . S
O468 C467 1.247 . S
C469 O481 1.242 . S
C469 O482 1.258 . S
O470 Eu466 2.292 . S
O470 C472 1.255 . S
C471 Eu466 2.852 . S
C471 C475 1.503 . S
C471 O488 1.273 . S
C471 O489 1.257 . S
C472 O470 1.255 . S
C472 O473 1.247 . S
O473 C472 1.247 . S
C474 O486 1.242 . S
C474 O487 1.258 . S
C475 C471 1.503 . S
C475 C476 1.379 . S
C475 C480 1.392 . S
C476 C475 1.379 . S
C476 C477 1.404 . S
C476 H490 0.929 . S
C477 C476 1.404 . S
C477 C478 1.389 . S
C478 C477 1.389 . S
C478 C479 1.399 . S
C478 H491 0.931 . S
C479 C478 1.399 . S
C479 C480 1.390 . S
C480 C475 1.392 . S
C480 C479 1.390 . S
C480 H492 0.929 . S
O481 Tb465 2.326 . S
O481 C469 1.242 . S
O482 Eu466 2.324 . S
O482 C469 1.258 . S
O483 Tb465 2.500 . S
O483 C485 1.273 . S
O484 Tb465 2.473 . S
O484 C485 1.257 . S
C485 O483 1.273 . S
C485 O484 1.257 . S
O486 Eu466 2.326 . S
O486 C474 1.242 . S
O487 Tb465 2.324 . S
O487 C474 1.258 . S
O488 Eu466 2.500 . S
O488 C471 1.273 . S
O489 Eu466 2.473 . S
O489 C471 1.257 . S
H490 C476 0.929 . S
H491 C478 0.931 . S
H492 C480 0.929 . S
O493 Tb494 2.292 . S
O493 C496 1.255 . S
Tb494 O493 2.292 . S
Tb494 O510 2.326 . S
Tb494 O512 2.500 . S
Tb494 O513 2.473 . S
Tb494 O516 2.324 . S
Eu495 O499 2.292 . S
Eu495 C500 2.852 . S
Eu495 O511 2.324 . S
Eu495 O515 2.326 . S
Eu495 O517 2.500 . S
Eu495 O518 2.473 . S
C496 O493 1.255 . S
C496 O497 1.247 . S
O497 C496 1.247 . S
C498 O510 1.242 . S
C498 O511 1.258 . S
O499 Eu495 2.292 . S
O499 C501 1.255 . S
C500 Eu495 2.852 . S
C500 C504 1.503 . S
C500 O517 1.273 . S
C500 O518 1.257 . S
C501 O499 1.255 . S
C501 O502 1.247 . S
O502 C501 1.247 . S
C503 O515 1.242 . S
C503 O516 1.258 . S
C504 C500 1.503 . S
C504 C505 1.379 . S
C504 C509 1.392 . S
C505 C504 1.379 . S
C505 C506 1.404 . S
C505 H519 0.929 . S
C506 C505 1.404 . S
C506 C507 1.389 . S
C507 C506 1.389 . S
C507 C508 1.399 . S
C507 H520 0.931 . S
C508 C507 1.399 . S
C508 C509 1.390 . S
C509 C504 1.392 . S
C509 C508 1.390 . S
C509 H521 0.929 . S
O510 Tb494 2.326 . S
O510 C498 1.242 . S
O511 Eu495 2.324 . S
O511 C498 1.258 . S
O512 Tb494 2.500 . S
O512 C514 1.273 . S
O513 Tb494 2.473 . S
O513 C514 1.257 . S
C514 O512 1.273 . S
C514 O513 1.257 . S
O515 Eu495 2.326 . S
O515 C503 1.242 . S
O516 Tb494 2.324 . S
O516 C503 1.258 . S
O517 Eu495 2.500 . S
O517 C500 1.273 . S
O518 Eu495 2.473 . S
O518 C500 1.257 . S
H519 C505 0.929 . S
H520 C507 0.931 . S
H521 C509 0.929 . S
O522 Tb523 2.292 . S
O522 C525 1.255 . S
Tb523 O522 2.292 . S
Tb523 O539 2.326 . S
Tb523 O541 2.500 . S
Tb523 O542 2.473 . S
Tb523 O545 2.324 . S
Eu524 O528 2.292 . S
Eu524 C529 2.852 . S
Eu524 O540 2.324 . S
Eu524 O544 2.326 . S
Eu524 O546 2.500 . S
Eu524 O547 2.473 . S
C525 O522 1.255 . S
C525 O526 1.247 . S
O526 C525 1.247 . S
C527 O539 1.242 . S
C527 O540 1.258 . S
O528 Eu524 2.292 . S
O528 C530 1.255 . S
C529 Eu524 2.852 . S
C529 C533 1.503 . S
C529 O546 1.273 . S
C529 O547 1.257 . S
C530 O528 1.255 . S
C530 O531 1.247 . S
O531 C530 1.247 . S
C532 O544 1.242 . S
C532 O545 1.258 . S
C533 C529 1.503 . S
C533 C534 1.379 . S
C533 C538 1.392 . S
C534 C533 1.379 . S
C534 C535 1.404 . S
C534 H548 0.929 . S
C535 C534 1.404 . S
C535 C536 1.389 . S
C536 C535 1.389 . S
C536 C537 1.399 . S
C536 H549 0.931 . S
C537 C536 1.399 . S
C537 C538 1.390 . S
C538 C533 1.392 . S
C538 C537 1.390 . S
C538 H550 0.929 . S
O539 Tb523 2.326 . S
O539 C527 1.242 . S
O540 Eu524 2.324 . S
O540 C527 1.258 . S
O541 Tb523 2.500 . S
O541 C543 1.273 . S
O542 Tb523 2.473 . S
O542 C543 1.257 . S
C543 O541 1.273 . S
C543 O542 1.257 . S
O544 Eu524 2.326 . S
O544 C532 1.242 . S
O545 Tb523 2.324 . S
O545 C532 1.258 . S
O546 Eu524 2.500 . S
O546 C529 1.273 . S
O547 Eu524 2.473 . S
O547 C529 1.257 . S
H548 C534 0.929 . S
H549 C536 0.931 . S
H550 C538 0.929 . S
O551 Tb552 2.292 . S
O551 C554 1.255 . S
Tb552 O551 2.292 . S
Tb552 O568 2.326 . S
Tb552 O570 2.500 . S
Tb552 O571 2.473 . S
Tb552 O574 2.324 . S
Eu553 O557 2.292 . S
Eu553 C558 2.852 . S
Eu553 O569 2.324 . S
Eu553 O573 2.326 . S
Eu553 O575 2.500 . S
Eu553 O576 2.473 . S
C554 O551 1.255 . S
C554 O555 1.247 . S
O555 C554 1.247 . S
C556 O568 1.242 . S
C556 O569 1.258 . S
O557 Eu553 2.292 . S
O557 C559 1.255 . S
C558 Eu553 2.852 . S
C558 C562 1.503 . S
C558 O575 1.273 . S
C558 O576 1.257 . S
C559 O557 1.255 . S
C559 O560 1.247 . S
O560 C559 1.247 . S
C561 O573 1.242 . S
C561 O574 1.258 . S
C562 C558 1.503 . S
C562 C563 1.379 . S
C562 C567 1.392 . S
C563 C562 1.379 . S
C563 C564 1.404 . S
C563 H577 0.929 . S
C564 C563 1.404 . S
C564 C565 1.389 . S
C565 C564 1.389 . S
C565 C566 1.399 . S
C565 H578 0.931 . S
C566 C565 1.399 . S
C566 C567 1.390 . S
C567 C562 1.392 . S
C567 C566 1.390 . S
C567 H579 0.929 . S
O568 Tb552 2.326 . S
O568 C556 1.242 . S
O569 Eu553 2.324 . S
O569 C556 1.258 . S
O570 Tb552 2.500 . S
O570 C572 1.273 . S
O571 Tb552 2.473 . S
O571 C572 1.257 . S
C572 O570 1.273 . S
C572 O571 1.257 . S
O573 Eu553 2.326 . S
O573 C561 1.242 . S
O574 Tb552 2.324 . S
O574 C561 1.258 . S
O575 Eu553 2.500 . S
O575 C558 1.273 . S
O576 Eu553 2.473 . S
O576 C558 1.257 . S
H577 C563 0.929 . S
H578 C565 0.931 . S
H579 C567 0.929 . S
O580 Tb581 2.292 . S
O580 C583 1.255 . S
Tb581 O580 2.292 . S
Tb581 O597 2.326 . S
Tb581 O599 2.500 . S
Tb581 O600 2.473 . S
Tb581 O603 2.324 . S
Eu582 O586 2.292 . S
Eu582 C587 2.852 . S
Eu582 O598 2.324 . S
Eu582 O602 2.326 . S
Eu582 O604 2.500 . S
Eu582 O605 2.473 . S
C583 O580 1.255 . S
C583 O584 1.247 . S
O584 C583 1.247 . S
C585 O597 1.242 . S
C585 O598 1.258 . S
O586 Eu582 2.292 . S
O586 C588 1.255 . S
C587 Eu582 2.852 . S
C587 C591 1.503 . S
C587 O604 1.273 . S
C587 O605 1.257 . S
C588 O586 1.255 . S
C588 O589 1.247 . S
O589 C588 1.247 . S
C590 O602 1.242 . S
C590 O603 1.258 . S
C591 C587 1.503 . S
C591 C592 1.379 . S
C591 C596 1.392 . S
C592 C591 1.379 . S
C592 C593 1.404 . S
C592 H606 0.929 . S
C593 C592 1.404 . S
C593 C594 1.389 . S
C594 C593 1.389 . S
C594 C595 1.399 . S
C594 H607 0.931 . S
C595 C594 1.399 . S
C595 C596 1.390 . S
C596 C591 1.392 . S
C596 C595 1.390 . S
C596 H608 0.929 . S
O597 Tb581 2.326 . S
O597 C585 1.242 . S
O598 Eu582 2.324 . S
O598 C585 1.258 . S
O599 Tb581 2.500 . S
O599 C601 1.273 . S
O600 Tb581 2.473 . S
O600 C601 1.257 . S
C601 O599 1.273 . S
C601 O600 1.257 . S
O602 Eu582 2.326 . S
O602 C590 1.242 . S
O603 Tb581 2.324 . S
O603 C590 1.258 . S
O604 Eu582 2.500 . S
O604 C587 1.273 . S
O605 Eu582 2.473 . S
O605 C587 1.257 . S
H606 C592 0.929 . S
H607 C594 0.931 . S
H608 C596 0.929 . S
O609 Tb610 2.292 . S
O609 C612 1.255 . S
Tb610 O609 2.292 . S
Tb610 O626 2.326 . S
Tb610 O628 2.500 . S
Tb610 O629 2.473 . S
Tb610 O632 2.324 . S
Eu611 O615 2.292 . S
Eu611 C616 2.852 . S
Eu611 O627 2.324 . S
Eu611 O631 2.326 . S
Eu611 O633 2.500 . S
Eu611 O634 2.473 . S
C612 O609 1.255 . S
C612 O613 1.247 . S
O613 C612 1.247 . S
C614 O626 1.242 . S
C614 O627 1.258 . S
O615 Eu611 2.292 . S
O615 C617 1.255 . S
C616 Eu611 2.852 . S
C616 C620 1.503 . S
C616 O633 1.273 . S
C616 O634 1.257 . S
C617 O615 1.255 . S
C617 O618 1.247 . S
O618 C617 1.247 . S
C619 O631 1.242 . S
C619 O632 1.258 . S
C620 C616 1.503 . S
C620 C621 1.379 . S
C620 C625 1.392 . S
C621 C620 1.379 . S
C621 C622 1.404 . S
C621 H635 0.929 . S
C622 C621 1.404 . S
C622 C623 1.389 . S
C623 C622 1.389 . S
C623 C624 1.399 . S
C623 H636 0.931 . S
C624 C623 1.399 . S
C624 C625 1.390 . S
C625 C620 1.392 . S
C625 C624 1.390 . S
C625 H637 0.929 . S
O626 Tb610 2.326 . S
O626 C614 1.242 . S
O627 Eu611 2.324 . S
O627 C614 1.258 . S
O628 Tb610 2.500 . S
O628 C630 1.273 . S
O629 Tb610 2.473 . S
O629 C630 1.257 . S
C630 O628 1.273 . S
C630 O629 1.257 . S
O631 Eu611 2.326 . S
O631 C619 1.242 . S
O632 Tb610 2.324 . S
O632 C619 1.258 . S
O633 Eu611 2.500 . S
O633 C616 1.273 . S
O634 Eu611 2.473 . S
O634 C616 1.257 . S
H635 C621 0.929 . S
H636 C623 0.931 . S
H637 C625 0.929 . S
O638 Tb639 2.292 . S
O638 C641 1.255 . S
Tb639 O638 2.292 . S
Tb639 O655 2.326 . S
Tb639 O657 2.500 . S
Tb639 O658 2.473 . S
Tb639 O661 2.324 . S
Eu640 O644 2.292 . S
Eu640 C645 2.852 . S
Eu640 O656 2.324 . S
Eu640 O660 2.326 . S
Eu640 O662 2.500 . S
Eu640 O663 2.473 . S
C641 O638 1.255 . S
C641 O642 1.247 . S
O642 C641 1.247 . S
C643 O655 1.242 . S
C643 O656 1.258 . S
O644 Eu640 2.292 . S
O644 C646 1.255 . S
C645 Eu640 2.852 . S
C645 C649 1.503 . S
C645 O662 1.273 . S
C645 O663 1.257 . S
C646 O644 1.255 . S
C646 O647 1.247 . S
O647 C646 1.247 . S
C648 O660 1.242 . S
C648 O661 1.258 . S
C649 C645 1.503 . S
C649 C650 1.379 . S
C649 C654 1.392 . S
C650 C649 1.379 . S
C650 C651 1.404 . S
C650 H664 0.929 . S
C651 C650 1.404 . S
C651 C652 1.389 . S
C652 C651 1.389 . S
C652 C653 1.399 . S
C652 H665 0.931 . S
C653 C652 1.399 . S
C653 C654 1.390 . S
C654 C649 1.392 . S
C654 C653 1.390 . S
C654 H666 0.929 . S
O655 Tb639 2.326 . S
O655 C643 1.242 . S
O656 Eu640 2.324 . S
O656 C643 1.258 . S
O657 Tb639 2.500 . S
O657 C659 1.273 . S
O658 Tb639 2.473 . S
O658 C659 1.257 . S
C659 O657 1.273 . S
C659 O658 1.257 . S
O660 Eu640 2.326 . S
O660 C648 1.242 . S
O661 Tb639 2.324 . S
O661 C648 1.258 . S
O662 Eu640 2.500 . S
O662 C645 1.273 . S
O663 Eu640 2.473 . S
O663 C645 1.257 . S
H664 C650 0.929 . S
H665 C652 0.931 . S
H666 C654 0.929 . S
O667 Tb668 2.292 . S
O667 C670 1.255 . S
Tb668 O667 2.292 . S
Tb668 O684 2.326 . S
Tb668 O686 2.500 . S
Tb668 O687 2.473 . S
Tb668 O690 2.324 . S
Eu669 O673 2.292 . S
Eu669 C674 2.852 . S
Eu669 O685 2.324 . S
Eu669 O689 2.326 . S
Eu669 O691 2.500 . S
Eu669 O692 2.473 . S
C670 O667 1.255 . S
C670 O671 1.247 . S
O671 C670 1.247 . S
C672 O684 1.242 . S
C672 O685 1.258 . S
O673 Eu669 2.292 . S
O673 C675 1.255 . S
C674 Eu669 2.852 . S
C674 C678 1.503 . S
C674 O691 1.273 . S
C674 O692 1.257 . S
C675 O673 1.255 . S
C675 O676 1.247 . S
O676 C675 1.247 . S
C677 O689 1.242 . S
C677 O690 1.258 . S
C678 C674 1.503 . S
C678 C679 1.379 . S
C678 C683 1.392 . S
C679 C678 1.379 . S
C679 C680 1.404 . S
C679 H693 0.929 . S
C680 C679 1.404 . S
C680 C681 1.389 . S
C681 C680 1.389 . S
C681 C682 1.399 . S
C681 H694 0.931 . S
C682 C681 1.399 . S
C682 C683 1.390 . S
C683 C678 1.392 . S
C683 C682 1.390 . S
C683 H695 0.929 . S
O684 Tb668 2.326 . S
O684 C672 1.242 . S
O685 Eu669 2.324 . S
O685 C672 1.258 . S
O686 Tb668 2.500 . S
O686 C688 1.273 . S
O687 Tb668 2.473 . S
O687 C688 1.257 . S
C688 O686 1.273 . S
C688 O687 1.257 . S
O689 Eu669 2.326 . S
O689 C677 1.242 . S
O690 Tb668 2.324 . S
O690 C677 1.258 . S
O691 Eu669 2.500 . S
O691 C674 1.273 . S
O692 Eu669 2.473 . S
O692 C674 1.257 . S
H693 C679 0.929 . S
H694 C681 0.931 . S
H695 C683 0.929 . S
O696 Tb697 2.292 . S
O696 C699 1.255 . S
Tb697 O696 2.292 . S
Tb697 O713 2.326 . S
Tb697 O715 2.500 . S
Tb697 O716 2.473 . S
Tb697 O719 2.324 . S
Eu698 O702 2.292 . S
Eu698 C703 2.852 . S
Eu698 O714 2.324 . S
Eu698 O718 2.326 . S
Eu698 O720 2.500 . S
Eu698 O721 2.473 . S
C699 O696 1.255 . S
C699 O700 1.247 . S
O700 C699 1.247 . S
C701 O713 1.242 . S
C701 O714 1.258 . S
O702 Eu698 2.292 . S
O702 C704 1.255 . S
C703 Eu698 2.852 . S
C703 C707 1.503 . S
C703 O720 1.273 . S
C703 O721 1.257 . S
C704 O702 1.255 . S
C704 O705 1.247 . S
O705 C704 1.247 . S
C706 O718 1.242 . S
C706 O719 1.258 . S
C707 C703 1.503 . S
C707 C708 1.379 . S
C707 C712 1.392 . S
C708 C707 1.379 . S
C708 C709 1.404 . S
C708 H722 0.929 . S
C709 C708 1.404 . S
C709 C710 1.389 . S
C710 C709 1.389 . S
C710 C711 1.399 . S
C710 H723 0.931 . S
C711 C710 1.399 . S
C711 C712 1.390 . S
C712 C707 1.392 . S
C712 C711 1.390 . S
C712 H724 0.929 . S
O713 Tb697 2.326 . S
O713 C701 1.242 . S
O714 Eu698 2.324 . S
O714 C701 1.258 . S
O715 Tb697 2.500 . S
O715 C717 1.273 . S
O716 Tb697 2.473 . S
O716 C717 1.257 . S
C717 O715 1.273 . S
C717 O716 1.257 . S
O718 Eu698 2.326 . S
O718 C706 1.242 . S
O719 Tb697 2.324 . S
O719 C706 1.258 . S
O720 Eu698 2.500 . S
O720 C703 1.273 . S
O721 Eu698 2.473 . S
O721 C703 1.257 . S
H722 C708 0.929 . S
H723 C710 0.931 . S
H724 C712 0.929 . S
O725 Tb726 2.292 . S
O725 C728 1.255 . S
Tb726 O725 2.292 . S
Tb726 O742 2.326 . S
Tb726 O744 2.500 . S
Tb726 O745 2.473 . S
Tb726 O748 2.324 . S
Eu727 O731 2.292 . S
Eu727 C732 2.852 . S
Eu727 O743 2.324 . S
Eu727 O747 2.326 . S
Eu727 O749 2.500 . S
Eu727 O750 2.473 . S
C728 O725 1.255 . S
C728 O729 1.247 . S
O729 C728 1.247 . S
C730 O742 1.242 . S
C730 O743 1.258 . S
O731 Eu727 2.292 . S
O731 C733 1.255 . S
C732 Eu727 2.852 . S
C732 C736 1.503 . S
C732 O749 1.273 . S
C732 O750 1.257 . S
C733 O731 1.255 . S
C733 O734 1.247 . S
O734 C733 1.247 . S
C735 O747 1.242 . S
C735 O748 1.258 . S
C736 C732 1.503 . S
C736 C737 1.379 . S
C736 C741 1.392 . S
C737 C736 1.379 . S
C737 C738 1.404 . S
C737 H751 0.929 . S
C738 C737 1.404 . S
C738 C739 1.389 . S
C739 C738 1.389 . S
C739 C740 1.399 . S
C739 H752 0.931 . S
C740 C739 1.399 . S
C740 C741 1.390 . S
C741 C736 1.392 . S
C741 C740 1.390 . S
C741 H753 0.929 . S
O742 Tb726 2.326 . S
O742 C730 1.242 . S
O743 Eu727 2.324 . S
O743 C730 1.258 . S
O744 Tb726 2.500 . S
O744 C746 1.273 . S
O745 Tb726 2.473 . S
O745 C746 1.257 . S
C746 O744 1.273 . S
C746 O745 1.257 . S
O747 Eu727 2.326 . S
O747 C735 1.242 . S
O748 Tb726 2.324 . S
O748 C735 1.258 . S
O749 Eu727 2.500 . S
O749 C732 1.273 . S
O750 Eu727 2.473 . S
O750 C732 1.257 . S
H751 C737 0.929 . S
H752 C739 0.931 . S
H753 C741 0.929 . S
O754 Tb755 2.292 . S
O754 C757 1.255 . S
Tb755 O754 2.292 . S
Tb755 O771 2.326 . S
Tb755 O773 2.500 . S
Tb755 O774 2.473 . S
Tb755 O777 2.324 . S
Eu756 O760 2.292 . S
Eu756 C761 2.852 . S
Eu756 O772 2.324 . S
Eu756 O776 2.326 . S
Eu756 O778 2.500 . S
Eu756 O779 2.473 . S
C757 O754 1.255 . S
C757 O758 1.247 . S
O758 C757 1.247 . S
C759 O771 1.242 . S
C759 O772 1.258 . S
O760 Eu756 2.292 . S
O760 C762 1.255 . S
C761 Eu756 2.852 . S
C761 C765 1.503 . S
C761 O778 1.273 . S
C761 O779 1.257 . S
C762 O760 1.255 . S
C762 O763 1.247 . S
O763 C762 1.247 . S
C764 O776 1.242 . S
C764 O777 1.258 . S
C765 C761 1.503 . S
C765 C766 1.379 . S
C765 C770 1.392 . S
C766 C765 1.379 . S
C766 C767 1.404 . S
C766 H780 0.929 . S
C767 C766 1.404 . S
C767 C768 1.389 . S
C768 C767 1.389 . S
C768 C769 1.399 . S
C768 H781 0.931 . S
C769 C768 1.399 . S
C769 C770 1.390 . S
C770 C765 1.392 . S
C770 C769 1.390 . S
C770 H782 0.929 . S
O771 Tb755 2.326 . S
O771 C759 1.242 . S
O772 Eu756 2.324 . S
O772 C759 1.258 . S
O773 Tb755 2.500 . S
O773 C775 1.273 . S
O774 Tb755 2.473 . S
O774 C775 1.257 . S
C775 O773 1.273 . S
C775 O774 1.257 . S
O776 Eu756 2.326 . S
O776 C764 1.242 . S
O777 Tb755 2.324 . S
O777 C764 1.258 . S
O778 Eu756 2.500 . S
O778 C761 1.273 . S
O779 Eu756 2.473 . S
O779 C761 1.257 . S
H780 C766 0.929 . S
H781 C768 0.931 . S
H782 C770 0.929 . S
O783 Tb784 2.292 . S
O783 C786 1.255 . S
Tb784 O783 2.292 . S
Tb784 O800 2.326 . S
Tb784 O802 2.500 . S
Tb784 O803 2.473 . S
Tb784 O806 2.324 . S
Eu785 O789 2.292 . S
Eu785 C790 2.852 . S
Eu785 O801 2.324 . S
Eu785 O805 2.326 . S
Eu785 O807 2.500 . S
Eu785 O808 2.473 . S
C786 O783 1.255 . S
C786 O787 1.247 . S
O787 C786 1.247 . S
C788 O800 1.242 . S
C788 O801 1.258 . S
O789 Eu785 2.292 . S
O789 C791 1.255 . S
C790 Eu785 2.852 . S
C790 C794 1.503 . S
C790 O807 1.273 . S
C790 O808 1.257 . S
C791 O789 1.255 . S
C791 O792 1.247 . S
O792 C791 1.247 . S
C793 O805 1.242 . S
C793 O806 1.258 . S
C794 C790 1.503 . S
C794 C795 1.379 . S
C794 C799 1.392 . S
C795 C794 1.379 . S
C795 C796 1.404 . S
C795 H809 0.929 . S
C796 C795 1.404 . S
C796 C797 1.389 . S
C797 C796 1.389 . S
C797 C798 1.399 . S
C797 H810 0.931 . S
C798 C797 1.399 . S
C798 C799 1.390 . S
C799 C794 1.392 . S
C799 C798 1.390 . S
C799 H811 0.929 . S
O800 Tb784 2.326 . S
O800 C788 1.242 . S
O801 Eu785 2.324 . S
O801 C788 1.258 . S
O802 Tb784 2.500 . S
O802 C804 1.273 . S
O803 Tb784 2.473 . S
O803 C804 1.257 . S
C804 O802 1.273 . S
C804 O803 1.257 . S
O805 Eu785 2.326 . S
O805 C793 1.242 . S
O806 Tb784 2.324 . S
O806 C793 1.258 . S
O807 Eu785 2.500 . S
O807 C790 1.273 . S
O808 Eu785 2.473 . S
O808 C790 1.257 . S
H809 C795 0.929 . S
H810 C797 0.931 . S
H811 C799 0.929 . S
O812 Tb813 2.292 . S
O812 C815 1.255 . S
Tb813 O812 2.292 . S
Tb813 O829 2.326 . S
Tb813 O831 2.500 . S
Tb813 O832 2.473 . S
Tb813 O835 2.324 . S
Eu814 O818 2.292 . S
Eu814 C819 2.852 . S
Eu814 O830 2.324 . S
Eu814 O834 2.326 . S
Eu814 O836 2.500 . S
Eu814 O837 2.473 . S
C815 O812 1.255 . S
C815 O816 1.247 . S
O816 C815 1.247 . S
C817 O829 1.242 . S
C817 O830 1.258 . S
O818 Eu814 2.292 . S
O818 C820 1.255 . S
C819 Eu814 2.852 . S
C819 C823 1.503 . S
C819 O836 1.273 . S
C819 O837 1.257 . S
C820 O818 1.255 . S
C820 O821 1.247 . S
O821 C820 1.247 . S
C822 O834 1.242 . S
C822 O835 1.258 . S
C823 C819 1.503 . S
C823 C824 1.379 . S
C823 C828 1.392 . S
C824 C823 1.379 . S
C824 C825 1.404 . S
C824 H838 0.929 . S
C825 C824 1.404 . S
C825 C826 1.389 . S
C826 C825 1.389 . S
C826 C827 1.399 . S
C826 H839 0.931 . S
C827 C826 1.399 . S
C827 C828 1.390 . S
C828 C823 1.392 . S
C828 C827 1.390 . S
C828 H840 0.929 . S
O829 Tb813 2.326 . S
O829 C817 1.242 . S
O830 Eu814 2.324 . S
O830 C817 1.258 . S
O831 Tb813 2.500 . S
O831 C833 1.273 . S
O832 Tb813 2.473 . S
O832 C833 1.257 . S
C833 O831 1.273 . S
C833 O832 1.257 . S
O834 Eu814 2.326 . S
O834 C822 1.242 . S
O835 Tb813 2.324 . S
O835 C822 1.258 . S
O836 Eu814 2.500 . S
O836 C819 1.273 . S
O837 Eu814 2.473 . S
O837 C819 1.257 . S
H838 C824 0.929 . S
H839 C826 0.931 . S
H840 C828 0.929 . S
O841 Tb842 2.292 . S
O841 C844 1.255 . S
Tb842 O841 2.292 . S
Tb842 O858 2.326 . S
Tb842 O860 2.500 . S
Tb842 O861 2.473 . S
Tb842 O864 2.324 . S
Eu843 O847 2.292 . S
Eu843 C848 2.852 . S
Eu843 O859 2.324 . S
Eu843 O863 2.326 . S
Eu843 O865 2.500 . S
Eu843 O866 2.473 . S
C844 O841 1.255 . S
C844 O845 1.247 . S
O845 C844 1.247 . S
C846 O858 1.242 . S
C846 O859 1.258 . S
O847 Eu843 2.292 . S
O847 C849 1.255 . S
C848 Eu843 2.852 . S
C848 C852 1.503 . S
C848 O865 1.273 . S
C848 O866 1.257 . S
C849 O847 1.255 . S
C849 O850 1.247 . S
O850 C849 1.247 . S
C851 O863 1.242 . S
C851 O864 1.258 . S
C852 C848 1.503 . S
C852 C853 1.379 . S
C852 C857 1.392 . S
C853 C852 1.379 . S
C853 C854 1.404 . S
C853 H867 0.929 . S
C854 C853 1.404 . S
C854 C855 1.389 . S
C855 C854 1.389 . S
C855 C856 1.399 . S
C855 H868 0.931 . S
C856 C855 1.399 . S
C856 C857 1.390 . S
C857 C852 1.392 . S
C857 C856 1.390 . S
C857 H869 0.929 . S
O858 Tb842 2.326 . S
O858 C846 1.242 . S
O859 Eu843 2.324 . S
O859 C846 1.258 . S
O860 Tb842 2.500 . S
O860 C862 1.273 . S
O861 Tb842 2.473 . S
O861 C862 1.257 . S
C862 O860 1.273 . S
C862 O861 1.257 . S
O863 Eu843 2.326 . S
O863 C851 1.242 . S
O864 Tb842 2.324 . S
O864 C851 1.258 . S
O865 Eu843 2.500 . S
O865 C848 1.273 . S
O866 Eu843 2.473 . S
O866 C848 1.257 . S
H867 C853 0.929 . S
H868 C855 0.931 . S
H869 C857 0.929 . S
O870 Tb871 2.292 . S
O870 C873 1.255 . S
Tb871 O870 2.292 . S
Tb871 O887 2.326 . S
Tb871 O889 2.500 . S
Tb871 O890 2.473 . S
Tb871 O893 2.324 . S
Eu872 O876 2.292 . S
Eu872 C877 2.852 . S
Eu872 O888 2.324 . S
Eu872 O892 2.326 . S
Eu872 O894 2.500 . S
Eu872 O895 2.473 . S
C873 O870 1.255 . S
C873 O874 1.247 . S
O874 C873 1.247 . S
C875 O887 1.242 . S
C875 O888 1.258 . S
O876 Eu872 2.292 . S
O876 C878 1.255 . S
C877 Eu872 2.852 . S
C877 C881 1.503 . S
C877 O894 1.273 . S
C877 O895 1.257 . S
C878 O876 1.255 . S
C878 O879 1.247 . S
O879 C878 1.247 . S
C880 O892 1.242 . S
C880 O893 1.258 . S
C881 C877 1.503 . S
C881 C882 1.379 . S
C881 C886 1.392 . S
C882 C881 1.379 . S
C882 C883 1.404 . S
C882 H896 0.929 . S
C883 C882 1.404 . S
C883 C884 1.389 . S
C884 C883 1.389 . S
C884 C885 1.399 . S
C884 H897 0.931 . S
C885 C884 1.399 . S
C885 C886 1.390 . S
C886 C881 1.392 . S
C886 C885 1.390 . S
C886 H898 0.929 . S
O887 Tb871 2.326 . S
O887 C875 1.242 . S
O888 Eu872 2.324 . S
O888 C875 1.258 . S
O889 Tb871 2.500 . S
O889 C891 1.273 . S
O890 Tb871 2.473 . S
O890 C891 1.257 . S
C891 O889 1.273 . S
C891 O890 1.257 . S
O892 Eu872 2.326 . S
O892 C880 1.242 . S
O893 Tb871 2.324 . S
O893 C880 1.258 . S
O894 Eu872 2.500 . S
O894 C877 1.273 . S
O895 Eu872 2.473 . S
O895 C877 1.257 . S
H896 C882 0.929 . S
H897 C884 0.931 . S
H898 C886 0.929 . S
O899 Tb900 2.292 . S
O899 C902 1.255 . S
Tb900 O899 2.292 . S
Tb900 O916 2.326 . S
Tb900 O918 2.500 . S
Tb900 O919 2.473 . S
Tb900 O922 2.324 . S
Eu901 O905 2.292 . S
Eu901 C906 2.852 . S
Eu901 O917 2.324 . S
Eu901 O921 2.326 . S
Eu901 O923 2.500 . S
Eu901 O924 2.473 . S
C902 O899 1.255 . S
C902 O903 1.247 . S
O903 C902 1.247 . S
C904 O916 1.242 . S
C904 O917 1.258 . S
O905 Eu901 2.292 . S
O905 C907 1.255 . S
C906 Eu901 2.852 . S
C906 C910 1.503 . S
C906 O923 1.273 . S
C906 O924 1.257 . S
C907 O905 1.255 . S
C907 O908 1.247 . S
O908 C907 1.247 . S
C909 O921 1.242 . S
C909 O922 1.258 . S
C910 C906 1.503 . S
C910 C911 1.379 . S
C910 C915 1.392 . S
C911 C910 1.379 . S
C911 C912 1.404 . S
C911 H925 0.929 . S
C912 C911 1.404 . S
C912 C913 1.389 . S
C913 C912 1.389 . S
C913 C914 1.399 . S
C913 H926 0.931 . S
C914 C913 1.399 . S
C914 C915 1.390 . S
C915 C910 1.392 . S
C915 C914 1.390 . S
C915 H927 0.929 . S
O916 Tb900 2.326 . S
O916 C904 1.242 . S
O917 Eu901 2.324 . S
O917 C904 1.258 . S
O918 Tb900 2.500 . S
O918 C920 1.273 . S
O919 Tb900 2.473 . S
O919 C920 1.257 . S
C920 O918 1.273 . S
C920 O919 1.257 . S
O921 Eu901 2.326 . S
O921 C909 1.242 . S
O922 Tb900 2.324 . S
O922 C909 1.258 . S
O923 Eu901 2.500 . S
O923 C906 1.273 . S
O924 Eu901 2.473 . S
O924 C906 1.257 . S
H925 C911 0.929 . S
H926 C913 0.931 . S
H927 C915 0.929 . S
O928 Tb929 2.292 . S
O928 C931 1.255 . S
Tb929 O928 2.292 . S
Tb929 O945 2.326 . S
Tb929 O947 2.500 . S
Tb929 O948 2.473 . S
Tb929 O951 2.324 . S
Eu930 O934 2.292 . S
Eu930 C935 2.852 . S
Eu930 O946 2.324 . S
Eu930 O950 2.326 . S
Eu930 O952 2.500 . S
Eu930 O953 2.473 . S
C931 O928 1.255 . S
C931 O932 1.247 . S
O932 C931 1.247 . S
C933 O945 1.242 . S
C933 O946 1.258 . S
O934 Eu930 2.292 . S
O934 C936 1.255 . S
C935 Eu930 2.852 . S
C935 C939 1.503 . S
C935 O952 1.273 . S
C935 O953 1.257 . S
C936 O934 1.255 . S
C936 O937 1.247 . S
O937 C936 1.247 . S
C938 O950 1.242 . S
C938 O951 1.258 . S
C939 C935 1.503 . S
C939 C940 1.379 . S
C939 C944 1.392 . S
C940 C939 1.379 . S
C940 C941 1.404 . S
C940 H954 0.929 . S
C941 C940 1.404 . S
C941 C942 1.389 . S
C942 C941 1.389 . S
C942 C943 1.399 . S
C942 H955 0.931 . S
C943 C942 1.399 . S
C943 C944 1.390 . S
C944 C939 1.392 . S
C944 C943 1.390 . S
C944 H956 0.929 . S
O945 Tb929 2.326 . S
O945 C933 1.242 . S
O946 Eu930 2.324 . S
O946 C933 1.258 . S
O947 Tb929 2.500 . S
O947 C949 1.273 . S
O948 Tb929 2.473 . S
O948 C949 1.257 . S
C949 O947 1.273 . S
C949 O948 1.257 . S
O950 Eu930 2.326 . S
O950 C938 1.242 . S
O951 Tb929 2.324 . S
O951 C938 1.258 . S
O952 Eu930 2.500 . S
O952 C935 1.273 . S
O953 Eu930 2.473 . S
O953 C935 1.257 . S
H954 C940 0.929 . S
H955 C942 0.931 . S
H956 C944 0.929 . S
O957 Tb958 2.292 . S
O957 C960 1.255 . S
Tb958 O957 2.292 . S
Tb958 O974 2.326 . S
Tb958 O976 2.500 . S
Tb958 O977 2.473 . S
Tb958 O980 2.324 . S
Eu959 O963 2.292 . S
Eu959 C964 2.852 . S
Eu959 O975 2.324 . S
Eu959 O979 2.326 . S
Eu959 O981 2.500 . S
Eu959 O982 2.473 . S
C960 O957 1.255 . S
C960 O961 1.247 . S
O961 C960 1.247 . S
C962 O974 1.242 . S
C962 O975 1.258 . S
O963 Eu959 2.292 . S
O963 C965 1.255 . S
C964 Eu959 2.852 . S
C964 C968 1.503 . S
C964 O981 1.273 . S
C964 O982 1.257 . S
C965 O963 1.255 . S
C965 O966 1.247 . S
O966 C965 1.247 . S
C967 O979 1.242 . S
C967 O980 1.258 . S
C968 C964 1.503 . S
C968 C969 1.379 . S
C968 C973 1.392 . S
C969 C968 1.379 . S
C969 C970 1.404 . S
C969 H983 0.929 . S
C970 C969 1.404 . S
C970 C971 1.389 . S
C971 C970 1.389 . S
C971 C972 1.399 . S
C971 H984 0.931 . S
C972 C971 1.399 . S
C972 C973 1.390 . S
C973 C968 1.392 . S
C973 C972 1.390 . S
C973 H985 0.929 . S
O974 Tb958 2.326 . S
O974 C962 1.242 . S
O975 Eu959 2.324 . S
O975 C962 1.258 . S
O976 Tb958 2.500 . S
O976 C978 1.273 . S
O977 Tb958 2.473 . S
O977 C978 1.257 . S
C978 O976 1.273 . S
C978 O977 1.257 . S
O979 Eu959 2.326 . S
O979 C967 1.242 . S
O980 Tb958 2.324 . S
O980 C967 1.258 . S
O981 Eu959 2.500 . S
O981 C964 1.273 . S
O982 Eu959 2.473 . S
O982 C964 1.257 . S
H983 C969 0.929 . S
H984 C971 0.931 . S
H985 C973 0.929 . S
O986 Tb987 2.292 . S
O986 C989 1.255 . S
Tb987 O986 2.292 . S
Tb987 O1003 2.326 . S
Tb987 O1005 2.500 . S
Tb987 O1006 2.473 . S
Tb987 O1009 2.324 . S
Eu988 O992 2.292 . S
Eu988 C993 2.852 . S
Eu988 O1004 2.324 . S
Eu988 O1008 2.326 . S
Eu988 O1010 2.500 . S
Eu988 O1011 2.473 . S
C989 O986 1.255 . S
C989 O990 1.247 . S
O990 C989 1.247 . S
C991 O1003 1.242 . S
C991 O1004 1.258 . S
O992 Eu988 2.292 . S
O992 C994 1.255 . S
C993 Eu988 2.852 . S
C993 C997 1.503 . S
C993 O1010 1.273 . S
C993 O1011 1.257 . S
C994 O992 1.255 . S
C994 O995 1.247 . S
O995 C994 1.247 . S
C996 O1008 1.242 . S
C996 O1009 1.258 . S
C997 C993 1.503 . S
C997 C998 1.379 . S
C997 C1002 1.392 . S
C998 C997 1.379 . S
C998 C999 1.404 . S
C998 H1012 0.929 . S
C999 C998 1.404 . S
C999 C1000 1.389 . S
C1000 C999 1.389 . S
C1000 C1001 1.399 . S
C1000 H1013 0.931 . S
C1001 C1000 1.399 . S
C1001 C1002 1.390 . S
C1002 C997 1.392 . S
C1002 C1001 1.390 . S
C1002 H1014 0.929 . S
O1003 Tb987 2.326 . S
O1003 C991 1.242 . S
O1004 Eu988 2.324 . S
O1004 C991 1.258 . S
O1005 Tb987 2.500 . S
O1005 C1007 1.273 . S
O1006 Tb987 2.473 . S
O1006 C1007 1.257 . S
C1007 O1005 1.273 . S
C1007 O1006 1.257 . S
O1008 Eu988 2.326 . S
O1008 C996 1.242 . S
O1009 Tb987 2.324 . S
O1009 C996 1.258 . S
O1010 Eu988 2.500 . S
O1010 C993 1.273 . S
O1011 Eu988 2.473 . S
O1011 C993 1.257 . S
H1012 C998 0.929 . S
H1013 C1000 0.931 . S
H1014 C1002 0.929 . S
O1015 Tb1016 2.292 . S
O1015 C1018 1.255 . S
Tb1016 O1015 2.292 . S
Tb1016 O1032 2.326 . S
Tb1016 O1034 2.500 . S
Tb1016 O1035 2.473 . S
Tb1016 O1038 2.324 . S
Eu1017 O1021 2.292 . S
Eu1017 C1022 2.852 . S
Eu1017 O1033 2.324 . S
Eu1017 O1037 2.326 . S
Eu1017 O1039 2.500 . S
Eu1017 O1040 2.473 . S
C1018 O1015 1.255 . S
C1018 O1019 1.247 . S
O1019 C1018 1.247 . S
C1020 O1032 1.242 . S
C1020 O1033 1.258 . S
O1021 Eu1017 2.292 . S
O1021 C1023 1.255 . S
C1022 Eu1017 2.852 . S
C1022 C1026 1.503 . S
C1022 O1039 1.273 . S
C1022 O1040 1.257 . S
C1023 O1021 1.255 . S
C1023 O1024 1.247 . S
O1024 C1023 1.247 . S
C1025 O1037 1.242 . S
C1025 O1038 1.258 . S
C1026 C1022 1.503 . S
C1026 C1027 1.379 . S
C1026 C1031 1.392 . S
C1027 C1026 1.379 . S
C1027 C1028 1.404 . S
C1027 H1041 0.929 . S
C1028 C1027 1.404 . S
C1028 C1029 1.389 . S
C1029 C1028 1.389 . S
C1029 C1030 1.399 . S
C1029 H1042 0.931 . S
C1030 C1029 1.399 . S
C1030 C1031 1.390 . S
C1031 C1026 1.392 . S
C1031 C1030 1.390 . S
C1031 H1043 0.929 . S
O1032 Tb1016 2.326 . S
O1032 C1020 1.242 . S
O1033 Eu1017 2.324 . S
O1033 C1020 1.258 . S
O1034 Tb1016 2.500 . S
O1034 C1036 1.273 . S
O1035 Tb1016 2.473 . S
O1035 C1036 1.257 . S
C1036 O1034 1.273 . S
C1036 O1035 1.257 . S
O1037 Eu1017 2.326 . S
O1037 C1025 1.242 . S
O1038 Tb1016 2.324 . S
O1038 C1025 1.258 . S
O1039 Eu1017 2.500 . S
O1039 C1022 1.273 . S
O1040 Eu1017 2.473 . S
O1040 C1022 1.257 . S
H1041 C1027 0.929 . S
H1042 C1029 0.931 . S
H1043 C1031 0.929 . S
O1044 Tb1045 2.292 . S
O1044 C1047 1.255 . S
Tb1045 O1044 2.292 . S
Tb1045 O1061 2.326 . S
Tb1045 O1063 2.500 . S
Tb1045 O1064 2.473 . S
Tb1045 O1067 2.324 . S
Eu1046 O1050 2.292 . S
Eu1046 C1051 2.852 . S
Eu1046 O1062 2.324 . S
Eu1046 O1066 2.326 . S
Eu1046 O1068 2.500 . S
Eu1046 O1069 2.473 . S
C1047 O1044 1.255 . S
C1047 O1048 1.247 . S
O1048 C1047 1.247 . S
C1049 O1061 1.242 . S
C1049 O1062 1.258 . S
O1050 Eu1046 2.292 . S
O1050 C1052 1.255 . S
C1051 Eu1046 2.852 . S
C1051 C1055 1.503 . S
C1051 O1068 1.273 . S
C1051 O1069 1.257 . S
C1052 O1050 1.255 . S
C1052 O1053 1.247 . S
O1053 C1052 1.247 . S
C1054 O1066 1.242 . S
C1054 O1067 1.258 . S
C1055 C1051 1.503 . S
C1055 C1056 1.379 . S
C1055 C1060 1.392 . S
C1056 C1055 1.379 . S
C1056 C1057 1.404 . S
C1056 H1070 0.929 . S
C1057 C1056 1.404 . S
C1057 C1058 1.389 . S
C1058 C1057 1.389 . S
C1058 C1059 1.399 . S
C1058 H1071 0.931 . S
C1059 C1058 1.399 . S
C1059 C1060 1.390 . S
C1060 C1055 1.392 . S
C1060 C1059 1.390 . S
C1060 H1072 0.929 . S
O1061 Tb1045 2.326 . S
O1061 C1049 1.242 . S
O1062 Eu1046 2.324 . S
O1062 C1049 1.258 . S
O1063 Tb1045 2.500 . S
O1063 C1065 1.273 . S
O1064 Tb1045 2.473 . S
O1064 C1065 1.257 . S
C1065 O1063 1.273 . S
C1065 O1064 1.257 . S
O1066 Eu1046 2.326 . S
O1066 C1054 1.242 . S
O1067 Tb1045 2.324 . S
O1067 C1054 1.258 . S
O1068 Eu1046 2.500 . S
O1068 C1051 1.273 . S
O1069 Eu1046 2.473 . S
O1069 C1051 1.257 . S
H1070 C1056 0.929 . S
H1071 C1058 0.931 . S
H1072 C1060 0.929 . S
O1073 Tb1074 2.292 . S
O1073 C1076 1.255 . S
Tb1074 O1073 2.292 . S
Tb1074 O1090 2.326 . S
Tb1074 O1092 2.500 . S
Tb1074 O1093 2.473 . S
Tb1074 O1096 2.324 . S
Eu1075 O1079 2.292 . S
Eu1075 C1080 2.852 . S
Eu1075 O1091 2.324 . S
Eu1075 O1095 2.326 . S
Eu1075 O1097 2.500 . S
Eu1075 O1098 2.473 . S
C1076 O1073 1.255 . S
C1076 O1077 1.247 . S
O1077 C1076 1.247 . S
C1078 O1090 1.242 . S
C1078 O1091 1.258 . S
O1079 Eu1075 2.292 . S
O1079 C1081 1.255 . S
C1080 Eu1075 2.852 . S
C1080 C1084 1.503 . S
C1080 O1097 1.273 . S
C1080 O1098 1.257 . S
C1081 O1079 1.255 . S
C1081 O1082 1.247 . S
O1082 C1081 1.247 . S
C1083 O1095 1.242 . S
C1083 O1096 1.258 . S
C1084 C1080 1.503 . S
C1084 C1085 1.379 . S
C1084 C1089 1.392 . S
C1085 C1084 1.379 . S
C1085 C1086 1.404 . S
C1085 H1099 0.929 . S
C1086 C1085 1.404 . S
C1086 C1087 1.389 . S
C1087 C1086 1.389 . S
C1087 C1088 1.399 . S
C1087 H1100 0.931 . S
C1088 C1087 1.399 . S
C1088 C1089 1.390 . S
C1089 C1084 1.392 . S
C1089 C1088 1.390 . S
C1089 H1101 0.929 . S
O1090 Tb1074 2.326 . S
O1090 C1078 1.242 . S
O1091 Eu1075 2.324 . S
O1091 C1078 1.258 . S
O1092 Tb1074 2.500 . S
O1092 C1094 1.273 . S
O1093 Tb1074 2.473 . S
O1093 C1094 1.257 . S
C1094 O1092 1.273 . S
C1094 O1093 1.257 . S
O1095 Eu1075 2.326 . S
O1095 C1083 1.242 . S
O1096 Tb1074 2.324 . S
O1096 C1083 1.258 . S
O1097 Eu1075 2.500 . S
O1097 C1080 1.273 . S
O1098 Eu1075 2.473 . S
O1098 C1080 1.257 . S
H1099 C1085 0.929 . S
H1100 C1087 0.931 . S
H1101 C1089 0.929 . S
O1102 Tb1103 2.292 . S
O1102 C1105 1.255 . S
Tb1103 O1102 2.292 . S
Tb1103 O1119 2.326 . S
Tb1103 O1121 2.500 . S
Tb1103 O1122 2.473 . S
Tb1103 O1125 2.324 . S
Eu1104 O1108 2.292 . S
Eu1104 C1109 2.852 . S
Eu1104 O1120 2.324 . S
Eu1104 O1124 2.326 . S
Eu1104 O1126 2.500 . S
Eu1104 O1127 2.473 . S
C1105 O1102 1.255 . S
C1105 O1106 1.247 . S
O1106 C1105 1.247 . S
C1107 O1119 1.242 . S
C1107 O1120 1.258 . S
O1108 Eu1104 2.292 . S
O1108 C1110 1.255 . S
C1109 Eu1104 2.852 . S
C1109 C1113 1.503 . S
C1109 O1126 1.273 . S
C1109 O1127 1.257 . S
C1110 O1108 1.255 . S
C1110 O1111 1.247 . S
O1111 C1110 1.247 . S
C1112 O1124 1.242 . S
C1112 O1125 1.258 . S
C1113 C1109 1.503 . S
C1113 C1114 1.379 . S
C1113 C1118 1.392 . S
C1114 C1113 1.379 . S
C1114 C1115 1.404 . S
C1114 H1128 0.929 . S
C1115 C1114 1.404 . S
C1115 C1116 1.389 . S
C1116 C1115 1.389 . S
C1116 C1117 1.399 . S
C1116 H1129 0.931 . S
C1117 C1116 1.399 . S
C1117 C1118 1.390 . S
C1118 C1113 1.392 . S
C1118 C1117 1.390 . S
C1118 H1130 0.929 . S
O1119 Tb1103 2.326 . S
O1119 C1107 1.242 . S
O1120 Eu1104 2.324 . S
O1120 C1107 1.258 . S
O1121 Tb1103 2.500 . S
O1121 C1123 1.273 . S
O1122 Tb1103 2.473 . S
O1122 C1123 1.257 . S
C1123 O1121 1.273 . S
C1123 O1122 1.257 . S
O1124 Eu1104 2.326 . S
O1124 C1112 1.242 . S
O1125 Tb1103 2.324 . S
O1125 C1112 1.258 . S
O1126 Eu1104 2.500 . S
O1126 C1109 1.273 . S
O1127 Eu1104 2.473 . S
O1127 C1109 1.257 . S
H1128 C1114 0.929 . S
H1129 C1116 0.931 . S
H1130 C1118 0.929 . S
O1131 Tb1132 2.292 . S
O1131 C1134 1.255 . S
Tb1132 O1131 2.292 . S
Tb1132 O1148 2.326 . S
Tb1132 O1150 2.500 . S
Tb1132 O1151 2.473 . S
Tb1132 O1154 2.324 . S
Eu1133 O1137 2.292 . S
Eu1133 C1138 2.852 . S
Eu1133 O1149 2.324 . S
Eu1133 O1153 2.326 . S
Eu1133 O1155 2.500 . S
Eu1133 O1156 2.473 . S
C1134 O1131 1.255 . S
C1134 O1135 1.247 . S
O1135 C1134 1.247 . S
C1136 O1148 1.242 . S
C1136 O1149 1.258 . S
O1137 Eu1133 2.292 . S
O1137 C1139 1.255 . S
C1138 Eu1133 2.852 . S
C1138 C1142 1.503 . S
C1138 O1155 1.273 . S
C1138 O1156 1.257 . S
C1139 O1137 1.255 . S
C1139 O1140 1.247 . S
O1140 C1139 1.247 . S
C1141 O1153 1.242 . S
C1141 O1154 1.258 . S
C1142 C1138 1.503 . S
C1142 C1143 1.379 . S
C1142 C1147 1.392 . S
C1143 C1142 1.379 . S
C1143 C1144 1.404 . S
C1143 H1157 0.929 . S
C1144 C1143 1.404 . S
C1144 C1145 1.389 . S
C1145 C1144 1.389 . S
C1145 C1146 1.399 . S
C1145 H1158 0.931 . S
C1146 C1145 1.399 . S
C1146 C1147 1.390 . S
C1147 C1142 1.392 . S
C1147 C1146 1.390 . S
C1147 H1159 0.929 . S
O1148 Tb1132 2.326 . S
O1148 C1136 1.242 . S
O1149 Eu1133 2.324 . S
O1149 C1136 1.258 . S
O1150 Tb1132 2.500 . S
O1150 C1152 1.273 . S
O1151 Tb1132 2.473 . S
O1151 C1152 1.257 . S
C1152 O1150 1.273 . S
C1152 O1151 1.257 . S
O1153 Eu1133 2.326 . S
O1153 C1141 1.242 . S
O1154 Tb1132 2.324 . S
O1154 C1141 1.258 . S
O1155 Eu1133 2.500 . S
O1155 C1138 1.273 . S
O1156 Eu1133 2.473 . S
O1156 C1138 1.257 . S
H1157 C1143 0.929 . S
H1158 C1145 0.931 . S
H1159 C1147 0.929 . S
O1160 Tb1161 2.292 . S
O1160 C1163 1.255 . S
Tb1161 O1160 2.292 . S
Tb1161 O1177 2.326 . S
Tb1161 O1179 2.500 . S
Tb1161 O1180 2.473 . S
Tb1161 O1183 2.324 . S
Eu1162 O1166 2.292 . S
Eu1162 C1167 2.852 . S
Eu1162 O1178 2.324 . S
Eu1162 O1182 2.326 . S
Eu1162 O1184 2.500 . S
Eu1162 O1185 2.473 . S
C1163 O1160 1.255 . S
C1163 O1164 1.247 . S
O1164 C1163 1.247 . S
C1165 O1177 1.242 . S
C1165 O1178 1.258 . S
O1166 Eu1162 2.292 . S
O1166 C1168 1.255 . S
C1167 Eu1162 2.852 . S
C1167 C1171 1.503 . S
C1167 O1184 1.273 . S
C1167 O1185 1.257 . S
C1168 O1166 1.255 . S
C1168 O1169 1.247 . S
O1169 C1168 1.247 . S
C1170 O1182 1.242 . S
C1170 O1183 1.258 . S
C1171 C1167 1.503 . S
C1171 C1172 1.379 . S
C1171 C1176 1.392 . S
C1172 C1171 1.379 . S
C1172 C1173 1.404 . S
C1172 H1186 0.929 . S
C1173 C1172 1.404 . S
C1173 C1174 1.389 . S
C1174 C1173 1.389 . S
C1174 C1175 1.399 . S
C1174 H1187 0.931 . S
C1175 C1174 1.399 . S
C1175 C1176 1.390 . S
C1176 C1171 1.392 . S
C1176 C1175 1.390 . S
C1176 H1188 0.929 . S
O1177 Tb1161 2.326 . S
O1177 C1165 1.242 . S
O1178 Eu1162 2.324 . S
O1178 C1165 1.258 . S
O1179 Tb1161 2.500 . S
O1179 C1181 1.273 . S
O1180 Tb1161 2.473 . S
O1180 C1181 1.257 . S
C1181 O1179 1.273 . S
C1181 O1180 1.257 . S
O1182 Eu1162 2.326 . S
O1182 C1170 1.242 . S
O1183 Tb1161 2.324 . S
O1183 C1170 1.258 . S
O1184 Eu1162 2.500 . S
O1184 C1167 1.273 . S
O1185 Eu1162 2.473 . S
O1185 C1167 1.257 . S
H1186 C1172 0.929 . S
H1187 C1174 0.931 . S
H1188 C1176 0.929 . S
O1189 Tb1190 2.292 . S
O1189 C1192 1.255 . S
Tb1190 O1189 2.292 . S
Tb1190 O1206 2.326 . S
Tb1190 O1208 2.500 . S
Tb1190 O1209 2.473 . S
Tb1190 O1212 2.324 . S
Eu1191 O1195 2.292 . S
Eu1191 C1196 2.852 . S
Eu1191 O1207 2.324 . S
Eu1191 O1211 2.326 . S
Eu1191 O1213 2.500 . S
Eu1191 O1214 2.473 . S
C1192 O1189 1.255 . S
C1192 O1193 1.247 . S
O1193 C1192 1.247 . S
C1194 O1206 1.242 . S
C1194 O1207 1.258 . S
O1195 Eu1191 2.292 . S
O1195 C1197 1.255 . S
C1196 Eu1191 2.852 . S
C1196 C1200 1.503 . S
C1196 O1213 1.273 . S
C1196 O1214 1.257 . S
C1197 O1195 1.255 . S
C1197 O1198 1.247 . S
O1198 C1197 1.247 . S
C1199 O1211 1.242 . S
C1199 O1212 1.258 . S
C1200 C1196 1.503 . S
C1200 C1201 1.379 . S
C1200 C1205 1.392 . S
C1201 C1200 1.379 . S
C1201 C1202 1.404 . S
C1201 H1215 0.929 . S
C1202 C1201 1.404 . S
C1202 C1203 1.389 . S
C1203 C1202 1.389 . S
C1203 C1204 1.399 . S
C1203 H1216 0.931 . S
C1204 C1203 1.399 . S
C1204 C1205 1.390 . S
C1205 C1200 1.392 . S
C1205 C1204 1.390 . S
C1205 H1217 0.929 . S
O1206 Tb1190 2.326 . S
O1206 C1194 1.242 . S
O1207 Eu1191 2.324 . S
O1207 C1194 1.258 . S
O1208 Tb1190 2.500 . S
O1208 C1210 1.273 . S
O1209 Tb1190 2.473 . S
O1209 C1210 1.257 . S
C1210 O1208 1.273 . S
C1210 O1209 1.257 . S
O1211 Eu1191 2.326 . S
O1211 C1199 1.242 . S
O1212 Tb1190 2.324 . S
O1212 C1199 1.258 . S
O1213 Eu1191 2.500 . S
O1213 C1196 1.273 . S
O1214 Eu1191 2.473 . S
O1214 C1196 1.257 . S
H1215 C1201 0.929 . S
H1216 C1203 0.931 . S
H1217 C1205 0.929 . S
O1218 Tb1219 2.292 . S
O1218 C1221 1.255 . S
Tb1219 O1218 2.292 . S
Tb1219 O1235 2.326 . S
Tb1219 O1237 2.500 . S
Tb1219 O1238 2.473 . S
Tb1219 O1241 2.324 . S
Eu1220 O1224 2.292 . S
Eu1220 C1225 2.852 . S
Eu1220 O1236 2.324 . S
Eu1220 O1240 2.326 . S
Eu1220 O1242 2.500 . S
Eu1220 O1243 2.473 . S
C1221 O1218 1.255 . S
C1221 O1222 1.247 . S
O1222 C1221 1.247 . S
C1223 O1235 1.242 . S
C1223 O1236 1.258 . S
O1224 Eu1220 2.292 . S
O1224 C1226 1.255 . S
C1225 Eu1220 2.852 . S
C1225 C1229 1.503 . S
C1225 O1242 1.273 . S
C1225 O1243 1.257 . S
C1226 O1224 1.255 . S
C1226 O1227 1.247 . S
O1227 C1226 1.247 . S
C1228 O1240 1.242 . S
C1228 O1241 1.258 . S
C1229 C1225 1.503 . S
C1229 C1230 1.379 . S
C1229 C1234 1.392 . S
C1230 C1229 1.379 . S
C1230 C1231 1.404 . S
C1230 H1244 0.929 . S
C1231 C1230 1.404 . S
C1231 C1232 1.389 . S
C1232 C1231 1.389 . S
C1232 C1233 1.399 . S
C1232 H1245 0.931 . S
C1233 C1232 1.399 . S
C1233 C1234 1.390 . S
C1234 C1229 1.392 . S
C1234 C1233 1.390 . S
C1234 H1246 0.929 . S
O1235 Tb1219 2.326 . S
O1235 C1223 1.242 . S
O1236 Eu1220 2.324 . S
O1236 C1223 1.258 . S
O1237 Tb1219 2.500 . S
O1237 C1239 1.273 . S
O1238 Tb1219 2.473 . S
O1238 C1239 1.257 . S
C1239 O1237 1.273 . S
C1239 O1238 1.257 . S
O1240 Eu1220 2.326 . S
O1240 C1228 1.242 . S
O1241 Tb1219 2.324 . S
O1241 C1228 1.258 . S
O1242 Eu1220 2.500 . S
O1242 C1225 1.273 . S
O1243 Eu1220 2.473 . S
O1243 C1225 1.257 . S
H1244 C1230 0.929 . S
H1245 C1232 0.931 . S
H1246 C1234 0.929 . S
O1247 Tb1248 2.292 . S
O1247 C1250 1.255 . S
Tb1248 O1247 2.292 . S
Tb1248 O1264 2.326 . S
Tb1248 O1266 2.500 . S
Tb1248 O1267 2.473 . S
Tb1248 O1270 2.324 . S
Eu1249 O1253 2.292 . S
Eu1249 C1254 2.852 . S
Eu1249 O1265 2.324 . S
Eu1249 O1269 2.326 . S
Eu1249 O1271 2.500 . S
Eu1249 O1272 2.473 . S
C1250 O1247 1.255 . S
C1250 O1251 1.247 . S
O1251 C1250 1.247 . S
C1252 O1264 1.242 . S
C1252 O1265 1.258 . S
O1253 Eu1249 2.292 . S
O1253 C1255 1.255 . S
C1254 Eu1249 2.852 . S
C1254 C1258 1.503 . S
C1254 O1271 1.273 . S
C1254 O1272 1.257 . S
C1255 O1253 1.255 . S
C1255 O1256 1.247 . S
O1256 C1255 1.247 . S
C1257 O1269 1.242 . S
C1257 O1270 1.258 . S
C1258 C1254 1.503 . S
C1258 C1259 1.379 . S
C1258 C1263 1.392 . S
C1259 C1258 1.379 . S
C1259 C1260 1.404 . S
C1259 H1273 0.929 . S
C1260 C1259 1.404 . S
C1260 C1261 1.389 . S
C1261 C1260 1.389 . S
C1261 C1262 1.399 . S
C1261 H1274 0.931 . S
C1262 C1261 1.399 . S
C1262 C1263 1.390 . S
C1263 C1258 1.392 . S
C1263 C1262 1.390 . S
C1263 H1275 0.929 . S
O1264 Tb1248 2.326 . S
O1264 C1252 1.242 . S
O1265 Eu1249 2.324 . S
O1265 C1252 1.258 . S
O1266 Tb1248 2.500 . S
O1266 C1268 1.273 . S
O1267 Tb1248 2.473 . S
O1267 C1268 1.257 . S
C1268 O1266 1.273 . S
C1268 O1267 1.257 . S
O1269 Eu1249 2.326 . S
O1269 C1257 1.242 . S
O1270 Tb1248 2.324 . S
O1270 C1257 1.258 . S
O1271 Eu1249 2.500 . S
O1271 C1254 1.273 . S
O1272 Eu1249 2.473 . S
O1272 C1254 1.257 . S
H1273 C1259 0.929 . S
H1274 C1261 0.931 . S
H1275 C1263 0.929 . S
O1276 Tb1277 2.292 . S
O1276 C1279 1.255 . S
Tb1277 O1276 2.292 . S
Tb1277 O1293 2.326 . S
Tb1277 O1295 2.500 . S
Tb1277 O1296 2.473 . S
Tb1277 O1299 2.324 . S
Eu1278 O1282 2.292 . S
Eu1278 C1283 2.852 . S
Eu1278 O1294 2.324 . S
Eu1278 O1298 2.326 . S
Eu1278 O1300 2.500 . S
Eu1278 O1301 2.473 . S
C1279 O1276 1.255 . S
C1279 O1280 1.247 . S
O1280 C1279 1.247 . S
C1281 O1293 1.242 . S
C1281 O1294 1.258 . S
O1282 Eu1278 2.292 . S
O1282 C1284 1.255 . S
C1283 Eu1278 2.852 . S
C1283 C1287 1.503 . S
C1283 O1300 1.273 . S
C1283 O1301 1.257 . S
C1284 O1282 1.255 . S
C1284 O1285 1.247 . S
O1285 C1284 1.247 . S
C1286 O1298 1.242 . S
C1286 O1299 1.258 . S
C1287 C1283 1.503 . S
C1287 C1288 1.379 . S
C1287 C1292 1.392 . S
C1288 C1287 1.379 . S
C1288 C1289 1.404 . S
C1288 H1302 0.929 . S
C1289 C1288 1.404 . S
C1289 C1290 1.389 . S
C1290 C1289 1.389 . S
C1290 C1291 1.399 . S
C1290 H1303 0.931 . S
C1291 C1290 1.399 . S
C1291 C1292 1.390 . S
C1292 C1287 1.392 . S
C1292 C1291 1.390 . S
C1292 H1304 0.929 . S
O1293 Tb1277 2.326 . S
O1293 C1281 1.242 . S
O1294 Eu1278 2.324 . S
O1294 C1281 1.258 . S
O1295 Tb1277 2.500 . S
O1295 C1297 1.273 . S
O1296 Tb1277 2.473 . S
O1296 C1297 1.257 . S
C1297 O1295 1.273 . S
C1297 O1296 1.257 . S
O1298 Eu1278 2.326 . S
O1298 C1286 1.242 . S
O1299 Tb1277 2.324 . S
O1299 C1286 1.258 . S
O1300 Eu1278 2.500 . S
O1300 C1283 1.273 . S
O1301 Eu1278 2.473 . S
O1301 C1283 1.257 . S
H1302 C1288 0.929 . S
H1303 C1290 0.931 . S
H1304 C1292 0.929 . S
O1305 Tb1306 2.292 . S
O1305 C1308 1.255 . S
Tb1306 O1305 2.292 . S
Tb1306 O1322 2.326 . S
Tb1306 O1324 2.500 . S
Tb1306 O1325 2.473 . S
Tb1306 O1328 2.324 . S
Eu1307 O1311 2.292 . S
Eu1307 C1312 2.852 . S
Eu1307 O1323 2.324 . S
Eu1307 O1327 2.326 . S
Eu1307 O1329 2.500 . S
Eu1307 O1330 2.473 . S
C1308 O1305 1.255 . S
C1308 O1309 1.247 . S
O1309 C1308 1.247 . S
C1310 O1322 1.242 . S
C1310 O1323 1.258 . S
O1311 Eu1307 2.292 . S
O1311 C1313 1.255 . S
C1312 Eu1307 2.852 . S
C1312 C1316 1.503 . S
C1312 O1329 1.273 . S
C1312 O1330 1.257 . S
C1313 O1311 1.255 . S
C1313 O1314 1.247 . S
O1314 C1313 1.247 . S
C1315 O1327 1.242 . S
C1315 O1328 1.258 . S
C1316 C1312 1.503 . S
C1316 C1317 1.379 . S
C1316 C1321 1.392 . S
C1317 C1316 1.379 . S
C1317 C1318 1.404 . S
C1317 H1331 0.929 . S
C1318 C1317 1.404 . S
C1318 C1319 1.389 . S
C1319 C1318 1.389 . S
C1319 C1320 1.399 . S
C1319 H1332 0.931 . S
C1320 C1319 1.399 . S
C1320 C1321 1.390 . S
C1321 C1316 1.392 . S
C1321 C1320 1.390 . S
C1321 H1333 0.929 . S
O1322 Tb1306 2.326 . S
O1322 C1310 1.242 . S
O1323 Eu1307 2.324 . S
O1323 C1310 1.258 . S
O1324 Tb1306 2.500 . S
O1324 C1326 1.273 . S
O1325 Tb1306 2.473 . S
O1325 C1326 1.257 . S
C1326 O1324 1.273 . S
C1326 O1325 1.257 . S
O1327 Eu1307 2.326 . S
O1327 C1315 1.242 . S
O1328 Tb1306 2.324 . S
O1328 C1315 1.258 . S
O1329 Eu1307 2.500 . S
O1329 C1312 1.273 . S
O1330 Eu1307 2.473 . S
O1330 C1312 1.257 . S
H1331 C1317 0.929 . S
H1332 C1319 0.931 . S
H1333 C1321 0.929 . S
O1334 Tb1335 2.292 . S
O1334 C1337 1.255 . S
Tb1335 O1334 2.292 . S
Tb1335 O1351 2.326 . S
Tb1335 O1353 2.500 . S
Tb1335 O1354 2.473 . S
Tb1335 O1357 2.324 . S
Eu1336 O1340 2.292 . S
Eu1336 C1341 2.852 . S
Eu1336 O1352 2.324 . S
Eu1336 O1356 2.326 . S
Eu1336 O1358 2.500 . S
Eu1336 O1359 2.473 . S
C1337 O1334 1.255 . S
C1337 O1338 1.247 . S
O1338 C1337 1.247 . S
C1339 O1351 1.242 . S
C1339 O1352 1.258 . S
O1340 Eu1336 2.292 . S
O1340 C1342 1.255 . S
C1341 Eu1336 2.852 . S
C1341 C1345 1.503 . S
C1341 O1358 1.273 . S
C1341 O1359 1.257 . S
C1342 O1340 1.255 . S
C1342 O1343 1.247 . S
O1343 C1342 1.247 . S
C1344 O1356 1.242 . S
C1344 O1357 1.258 . S
C1345 C1341 1.503 . S
C1345 C1346 1.379 . S
C1345 C1350 1.392 . S
C1346 C1345 1.379 . S
C1346 C1347 1.404 . S
C1346 H1360 0.929 . S
C1347 C1346 1.404 . S
C1347 C1348 1.389 . S
C1348 C1347 1.389 . S
C1348 C1349 1.399 . S
C1348 H1361 0.931 . S
C1349 C1348 1.399 . S
C1349 C1350 1.390 . S
C1350 C1345 1.392 . S
C1350 C1349 1.390 . S
C1350 H1362 0.929 . S
O1351 Tb1335 2.326 . S
O1351 C1339 1.242 . S
O1352 Eu1336 2.324 . S
O1352 C1339 1.258 . S
O1353 Tb1335 2.500 . S
O1353 C1355 1.273 . S
O1354 Tb1335 2.473 . S
O1354 C1355 1.257 . S
C1355 O1353 1.273 . S
C1355 O1354 1.257 . S
O1356 Eu1336 2.326 . S
O1356 C1344 1.242 . S
O1357 Tb1335 2.324 . S
O1357 C1344 1.258 . S
O1358 Eu1336 2.500 . S
O1358 C1341 1.273 . S
O1359 Eu1336 2.473 . S
O1359 C1341 1.257 . S
H1360 C1346 0.929 . S
H1361 C1348 0.931 . S
H1362 C1350 0.929 . S
O1363 Tb1364 2.292 . S
O1363 C1366 1.255 . S
Tb1364 O1363 2.292 . S
Tb1364 O1380 2.326 . S
Tb1364 O1382 2.500 . S
Tb1364 O1383 2.473 . S
Tb1364 O1386 2.324 . S
Eu1365 O1369 2.292 . S
Eu1365 C1370 2.852 . S
Eu1365 O1381 2.324 . S
Eu1365 O1385 2.326 . S
Eu1365 O1387 2.500 . S
Eu1365 O1388 2.473 . S
C1366 O1363 1.255 . S
C1366 O1367 1.247 . S
O1367 C1366 1.247 . S
C1368 O1380 1.242 . S
C1368 O1381 1.258 . S
O1369 Eu1365 2.292 . S
O1369 C1371 1.255 . S
C1370 Eu1365 2.852 . S
C1370 C1374 1.503 . S
C1370 O1387 1.273 . S
C1370 O1388 1.257 . S
C1371 O1369 1.255 . S
C1371 O1372 1.247 . S
O1372 C1371 1.247 . S
C1373 O1385 1.242 . S
C1373 O1386 1.258 . S
C1374 C1370 1.503 . S
C1374 C1375 1.379 . S
C1374 C1379 1.392 . S
C1375 C1374 1.379 . S
C1375 C1376 1.404 . S
C1375 H1389 0.929 . S
C1376 C1375 1.404 . S
C1376 C1377 1.389 . S
C1377 C1376 1.389 . S
C1377 C1378 1.399 . S
C1377 H1390 0.931 . S
C1378 C1377 1.399 . S
C1378 C1379 1.390 . S
C1379 C1374 1.392 . S
C1379 C1378 1.390 . S
C1379 H1391 0.929 . S
O1380 Tb1364 2.326 . S
O1380 C1368 1.242 . S
O1381 Eu1365 2.324 . S
O1381 C1368 1.258 . S
O1382 Tb1364 2.500 . S
O1382 C1384 1.273 . S
O1383 Tb1364 2.473 . S
O1383 C1384 1.257 . S
C1384 O1382 1.273 . S
C1384 O1383 1.257 . S
O1385 Eu1365 2.326 . S
O1385 C1373 1.242 . S
O1386 Tb1364 2.324 . S
O1386 C1373 1.258 . S
O1387 Eu1365 2.500 . S
O1387 C1370 1.273 . S
O1388 Eu1365 2.473 . S
O1388 C1370 1.257 . S
H1389 C1375 0.929 . S
H1390 C1377 0.931 . S
H1391 C1379 0.929 . S
C1392 C1393 1.363 . S
C1392 C1398 1.379 . S
C1392 N1400 1.356 . S
C1393 C1392 1.363 . S
C1393 C1399 1.363 . S
C1394 C1395 1.363 . S
C1394 C1399 1.379 . S
C1394 N1401 1.356 . S
C1395 C1394 1.363 . S
C1395 C1398 1.363 . S
N1396 C1398 1.356 . S
N1396 H1408 0.984 . S
N1396 H1409 0.985 . S
N1397 C1399 1.356 . S
N1397 H1402 0.984 . S
N1397 H1403 0.985 . S
C1398 C1392 1.379 . S
C1398 C1395 1.363 . S
C1398 N1396 1.356 . S
C1399 C1393 1.363 . S
C1399 C1394 1.379 . S
C1399 N1397 1.356 . S
N1400 C1392 1.356 . S
N1400 H1406 0.984 . S
N1400 H1407 0.984 . S
N1401 C1394 1.356 . S
N1401 H1404 0.984 . S
N1401 H1405 0.985 . S
H1402 N1397 0.984 . S
H1403 N1397 0.985 . S
H1404 N1401 0.984 . S
H1405 N1401 0.985 . S
H1406 N1400 0.984 . S
H1407 N1400 0.984 . S
H1408 N1396 0.984 . S
H1409 N1396 0.985 . S
C1410 C1411 1.363 . S
C1410 C1416 1.379 . S
C1410 N1418 1.356 . S
C1411 C1410 1.363 . S
C1411 C1417 1.363 . S
C1412 C1413 1.363 . S
C1412 C1417 1.379 . S
C1412 N1419 1.356 . S
C1413 C1412 1.363 . S
C1413 C1416 1.363 . S
N1414 C1416 1.356 . S
N1414 H1426 0.984 . S
N1414 H1427 0.985 . S
N1415 C1417 1.356 . S
N1415 H1420 0.984 . S
N1415 H1421 0.985 . S
C1416 C1410 1.379 . S
C1416 C1413 1.363 . S
C1416 N1414 1.356 . S
C1417 C1411 1.363 . S
C1417 C1412 1.379 . S
C1417 N1415 1.356 . S
N1418 C1410 1.356 . S
N1418 H1424 0.984 . S
N1418 H1425 0.984 . S
N1419 C1412 1.356 . S
N1419 H1422 0.984 . S
N1419 H1423 0.985 . S
H1420 N1415 0.984 . S
H1421 N1415 0.985 . S
H1422 N1419 0.984 . S
H1423 N1419 0.985 . S
H1424 N1418 0.984 . S
H1425 N1418 0.984 . S
H1426 N1414 0.984 . S
H1427 N1414 0.985 . S
C1428 C1429 1.363 . S
C1428 C1434 1.379 . S
C1428 N1436 1.356 . S
C1429 C1428 1.363 . S
C1429 C1435 1.363 . S
C1430 C1431 1.363 . S
C1430 C1435 1.379 . S
C1430 N1437 1.356 . S
C1431 C1430 1.363 . S
C1431 C1434 1.363 . S
N1432 C1434 1.356 . S
N1432 H1444 0.984 . S
N1432 H1445 0.985 . S
N1433 C1435 1.356 . S
N1433 H1438 0.984 . S
N1433 H1439 0.985 . S
C1434 C1428 1.379 . S
C1434 C1431 1.363 . S
C1434 N1432 1.356 . S
C1435 C1429 1.363 . S
C1435 C1430 1.379 . S
C1435 N1433 1.356 . S
N1436 C1428 1.356 . S
N1436 H1442 0.984 . S
N1436 H1443 0.984 . S
N1437 C1430 1.356 . S
N1437 H1440 0.984 . S
N1437 H1441 0.985 . S
H1438 N1433 0.984 . S
H1439 N1433 0.985 . S
H1440 N1437 0.984 . S
H1441 N1437 0.985 . S
H1442 N1436 0.984 . S
H1443 N1436 0.984 . S
H1444 N1432 0.984 . S
H1445 N1432 0.985 . S
C1446 C1447 1.363 . S
C1446 C1452 1.379 . S
C1446 N1454 1.356 . S
C1447 C1446 1.363 . S
C1447 C1453 1.363 . S
C1448 C1449 1.363 . S
C1448 C1453 1.379 . S
C1448 N1455 1.356 . S
C1449 C1448 1.363 . S
C1449 C1452 1.363 . S
N1450 C1452 1.356 . S
N1450 H1462 0.984 . S
N1450 H1463 0.985 . S
N1451 C1453 1.356 . S
N1451 H1456 0.984 . S
N1451 H1457 0.985 . S
C1452 C1446 1.379 . S
C1452 C1449 1.363 . S
C1452 N1450 1.356 . S
C1453 C1447 1.363 . S
C1453 C1448 1.379 . S
C1453 N1451 1.356 . S
N1454 C1446 1.356 . S
N1454 H1460 0.984 . S
N1454 H1461 0.984 . S
N1455 C1448 1.356 . S
N1455 H1458 0.984 . S
N1455 H1459 0.985 . S
H1456 N1451 0.984 . S
H1457 N1451 0.985 . S
H1458 N1455 0.984 . S
H1459 N1455 0.985 . S
H1460 N1454 0.984 . S
H1461 N1454 0.984 . S
H1462 N1450 0.984 . S
H1463 N1450 0.985 . S
C1464 C1465 1.363 . S
C1464 C1470 1.379 . S
C1464 N1472 1.356 . S
C1465 C1464 1.363 . S
C1465 C1471 1.363 . S
C1466 C1467 1.363 . S
C1466 C1471 1.379 . S
C1466 N1473 1.356 . S
C1467 C1466 1.363 . S
C1467 C1470 1.363 . S
N1468 C1470 1.356 . S
N1468 H1480 0.984 . S
N1468 H1481 0.985 . S
N1469 C1471 1.356 . S
N1469 H1474 0.984 . S
N1469 H1475 0.985 . S
C1470 C1464 1.379 . S
C1470 C1467 1.363 . S
C1470 N1468 1.356 . S
C1471 C1465 1.363 . S
C1471 C1466 1.379 . S
C1471 N1469 1.356 . S
N1472 C1464 1.356 . S
N1472 H1478 0.984 . S
N1472 H1479 0.984 . S
N1473 C1466 1.356 . S
N1473 H1476 0.984 . S
N1473 H1477 0.985 . S
H1474 N1469 0.984 . S
H1475 N1469 0.985 . S
H1476 N1473 0.984 . S
H1477 N1473 0.985 . S
H1478 N1472 0.984 . S
H1479 N1472 0.984 . S
H1480 N1468 0.984 . S
H1481 N1468 0.985 . S
C1482 C1483 1.363 . S
C1482 C1488 1.379 . S
C1482 N1490 1.356 . S
C1483 C1482 1.363 . S
C1483 C1489 1.363 . S
C1484 C1485 1.363 . S
C1484 C1489 1.379 . S
C1484 N1491 1.356 . S
C1485 C1484 1.363 . S
C1485 C1488 1.363 . S
N1486 C1488 1.356 . S
N1486 H1498 0.984 . S
N1486 H1499 0.985 . S
N1487 C1489 1.356 . S
N1487 H1492 0.984 . S
N1487 H1493 0.985 . S
C1488 C1482 1.379 . S
C1488 C1485 1.363 . S
C1488 N1486 1.356 . S
C1489 C1483 1.363 . S
C1489 C1484 1.379 . S
C1489 N1487 1.356 . S
N1490 C1482 1.356 . S
N1490 H1496 0.984 . S
N1490 H1497 0.984 . S
N1491 C1484 1.356 . S
N1491 H1494 0.984 . S
N1491 H1495 0.985 . S
H1492 N1487 0.984 . S
H1493 N1487 0.985 . S
H1494 N1491 0.984 . S
H1495 N1491 0.985 . S
H1496 N1490 0.984 . S
H1497 N1490 0.984 . S
H1498 N1486 0.984 . S
H1499 N1486 0.985 . S
C1500 C1501 1.363 . S
C1500 C1506 1.379 . S
C1500 N1508 1.356 . S
C1501 C1500 1.363 . S
C1501 C1507 1.363 . S
C1502 C1503 1.363 . S
C1502 C1507 1.379 . S
C1502 N1509 1.356 . S
C1503 C1502 1.363 . S
C1503 C1506 1.363 . S
N1504 C1506 1.356 . S
N1504 H1516 0.984 . S
N1504 H1517 0.985 . S
N1505 C1507 1.356 . S
N1505 H1510 0.984 . S
N1505 H1511 0.985 . S
C1506 C1500 1.379 . S
C1506 C1503 1.363 . S
C1506 N1504 1.356 . S
C1507 C1501 1.363 . S
C1507 C1502 1.379 . S
C1507 N1505 1.356 . S
N1508 C1500 1.356 . S
N1508 H1514 0.984 . S
N1508 H1515 0.984 . S
N1509 C1502 1.356 . S
N1509 H1512 0.984 . S
N1509 H1513 0.985 . S
H1510 N1505 0.984 . S
H1511 N1505 0.985 . S
H1512 N1509 0.984 . S
H1513 N1509 0.985 . S
H1514 N1508 0.984 . S
H1515 N1508 0.984 . S
H1516 N1504 0.984 . S
H1517 N1504 0.985 . S
C1518 C1519 1.363 . S
C1518 C1524 1.379 . S
C1518 N1526 1.356 . S
C1519 C1518 1.363 . S
C1519 C1525 1.363 . S
C1520 C1521 1.363 . S
C1520 C1525 1.379 . S
C1520 N1527 1.356 . S
C1521 C1520 1.363 . S
C1521 C1524 1.363 . S
N1522 C1524 1.356 . S
N1522 H1534 0.984 . S
N1522 H1535 0.985 . S
N1523 C1525 1.356 . S
N1523 H1528 0.984 . S
N1523 H1529 0.985 . S
C1524 C1518 1.379 . S
C1524 C1521 1.363 . S
C1524 N1522 1.356 . S
C1525 C1519 1.363 . S
C1525 C1520 1.379 . S
C1525 N1523 1.356 . S
N1526 C1518 1.356 . S
N1526 H1532 0.984 . S
N1526 H1533 0.984 . S
N1527 C1520 1.356 . S
N1527 H1530 0.984 . S
N1527 H1531 0.985 . S
H1528 N1523 0.984 . S
H1529 N1523 0.985 . S
H1530 N1527 0.984 . S
H1531 N1527 0.985 . S
H1532 N1526 0.984 . S
H1533 N1526 0.984 . S
H1534 N1522 0.984 . S
H1535 N1522 0.985 . S
C1536 C1537 1.363 . S
C1536 C1542 1.379 . S
C1536 N1544 1.356 . S
C1537 C1536 1.363 . S
C1537 C1543 1.363 . S
C1538 C1539 1.363 . S
C1538 C1543 1.379 . S
C1538 N1545 1.356 . S
C1539 C1538 1.363 . S
C1539 C1542 1.363 . S
N1540 C1542 1.356 . S
N1540 H1552 0.984 . S
N1540 H1553 0.985 . S
N1541 C1543 1.356 . S
N1541 H1546 0.984 . S
N1541 H1547 0.985 . S
C1542 C1536 1.379 . S
C1542 C1539 1.363 . S
C1542 N1540 1.356 . S
C1543 C1537 1.363 . S
C1543 C1538 1.379 . S
C1543 N1541 1.356 . S
N1544 C1536 1.356 . S
N1544 H1550 0.984 . S
N1544 H1551 0.984 . S
N1545 C1538 1.356 . S
N1545 H1548 0.984 . S
N1545 H1549 0.985 . S
H1546 N1541 0.984 . S
H1547 N1541 0.985 . S
H1548 N1545 0.984 . S
H1549 N1545 0.985 . S
H1550 N1544 0.984 . S
H1551 N1544 0.984 . S
H1552 N1540 0.984 . S
H1553 N1540 0.985 . S
C1554 C1555 1.363 . S
C1554 C1560 1.379 . S
C1554 N1562 1.356 . S
C1555 C1554 1.363 . S
C1555 C1561 1.363 . S
C1556 C1557 1.363 . S
C1556 C1561 1.379 . S
C1556 N1563 1.356 . S
C1557 C1556 1.363 . S
C1557 C1560 1.363 . S
N1558 C1560 1.356 . S
N1558 H1570 0.984 . S
N1558 H1571 0.985 . S
N1559 C1561 1.356 . S
N1559 H1564 0.984 . S
N1559 H1565 0.985 . S
C1560 C1554 1.379 . S
C1560 C1557 1.363 . S
C1560 N1558 1.356 . S
C1561 C1555 1.363 . S
C1561 C1556 1.379 . S
C1561 N1559 1.356 . S
N1562 C1554 1.356 . S
N1562 H1568 0.984 . S
N1562 H1569 0.984 . S
N1563 C1556 1.356 . S
N1563 H1566 0.984 . S
N1563 H1567 0.985 . S
H1564 N1559 0.984 . S
H1565 N1559 0.985 . S
H1566 N1563 0.984 . S
H1567 N1563 0.985 . S
H1568 N1562 0.984 . S
H1569 N1562 0.984 . S
H1570 N1558 0.984 . S
H1571 N1558 0.985 . S
C1572 C1573 1.363 . S
C1572 C1578 1.379 . S
C1572 N1580 1.356 . S
C1573 C1572 1.363 . S
C1573 C1579 1.363 . S
C1574 C1575 1.363 . S
C1574 C1579 1.379 . S
C1574 N1581 1.356 . S
C1575 C1574 1.363 . S
C1575 C1578 1.363 . S
N1576 C1578 1.356 . S
N1576 H1588 0.984 . S
N1576 H1589 0.985 . S
N1577 C1579 1.356 . S
N1577 H1582 0.984 . S
N1577 H1583 0.985 . S
C1578 C1572 1.379 . S
C1578 C1575 1.363 . S
C1578 N1576 1.356 . S
C1579 C1573 1.363 . S
C1579 C1574 1.379 . S
C1579 N1577 1.356 . S
N1580 C1572 1.356 . S
N1580 H1586 0.984 . S
N1580 H1587 0.984 . S
N1581 C1574 1.356 . S
N1581 H1584 0.984 . S
N1581 H1585 0.985 . S
H1582 N1577 0.984 . S
H1583 N1577 0.985 . S
H1584 N1581 0.984 . S
H1585 N1581 0.985 . S
H1586 N1580 0.984 . S
H1587 N1580 0.984 . S
H1588 N1576 0.984 . S
H1589 N1576 0.985 . S
C1590 C1591 1.363 . S
C1590 C1596 1.379 . S
C1590 N1598 1.356 . S
C1591 C1590 1.363 . S
C1591 C1597 1.363 . S
C1592 C1593 1.363 . S
C1592 C1597 1.379 . S
C1592 N1599 1.356 . S
C1593 C1592 1.363 . S
C1593 C1596 1.363 . S
N1594 C1596 1.356 . S
N1594 H1606 0.984 . S
N1594 H1607 0.985 . S
N1595 C1597 1.356 . S
N1595 H1600 0.984 . S
N1595 H1601 0.985 . S
C1596 C1590 1.379 . S
C1596 C1593 1.363 . S
C1596 N1594 1.356 . S
C1597 C1591 1.363 . S
C1597 C1592 1.379 . S
C1597 N1595 1.356 . S
N1598 C1590 1.356 . S
N1598 H1604 0.984 . S
N1598 H1605 0.984 . S
N1599 C1592 1.356 . S
N1599 H1602 0.984 . S
N1599 H1603 0.985 . S
H1600 N1595 0.984 . S
H1601 N1595 0.985 . S
H1602 N1599 0.984 . S
H1603 N1599 0.985 . S
H1604 N1598 0.984 . S
H1605 N1598 0.984 . S
H1606 N1594 0.984 . S
H1607 N1594 0.985 . S
C1608 C1609 1.363 . S
C1608 C1614 1.379 . S
C1608 N1616 1.356 . S
C1609 C1608 1.363 . S
C1609 C1615 1.363 . S
C1610 C1611 1.363 . S
C1610 C1615 1.379 . S
C1610 N1617 1.356 . S
C1611 C1610 1.363 . S
C1611 C1614 1.363 . S
N1612 C1614 1.356 . S
N1612 H1624 0.984 . S
N1612 H1625 0.985 . S
N1613 C1615 1.356 . S
N1613 H1618 0.984 . S
N1613 H1619 0.985 . S
C1614 C1608 1.379 . S
C1614 C1611 1.363 . S
C1614 N1612 1.356 . S
C1615 C1609 1.363 . S
C1615 C1610 1.379 . S
C1615 N1613 1.356 . S
N1616 C1608 1.356 . S
N1616 H1622 0.984 . S
N1616 H1623 0.984 . S
N1617 C1610 1.356 . S
N1617 H1620 0.984 . S
N1617 H1621 0.985 . S
H1618 N1613 0.984 . S
H1619 N1613 0.985 . S
H1620 N1617 0.984 . S
H1621 N1617 0.985 . S
H1622 N1616 0.984 . S
H1623 N1616 0.984 . S
H1624 N1612 0.984 . S
H1625 N1612 0.985 . S
C1626 C1627 1.363 . S
C1626 C1632 1.379 . S
C1626 N1634 1.356 . S
C1627 C1626 1.363 . S
C1627 C1633 1.363 . S
C1628 C1629 1.363 . S
C1628 C1633 1.379 . S
C1628 N1635 1.356 . S
C1629 C1628 1.363 . S
C1629 C1632 1.363 . S
N1630 C1632 1.356 . S
N1630 H1642 0.984 . S
N1630 H1643 0.985 . S
N1631 C1633 1.356 . S
N1631 H1636 0.984 . S
N1631 H1637 0.985 . S
C1632 C1626 1.379 . S
C1632 C1629 1.363 . S
C1632 N1630 1.356 . S
C1633 C1627 1.363 . S
C1633 C1628 1.379 . S
C1633 N1631 1.356 . S
N1634 C1626 1.356 . S
N1634 H1640 0.984 . S
N1634 H1641 0.984 . S
N1635 C1628 1.356 . S
N1635 H1638 0.984 . S
N1635 H1639 0.985 . S
H1636 N1631 0.984 . S
H1637 N1631 0.985 . S
H1638 N1635 0.984 . S
H1639 N1635 0.985 . S
H1640 N1634 0.984 . S
H1641 N1634 0.984 . S
H1642 N1630 0.984 . S
H1643 N1630 0.985 . S
C1644 C1645 1.363 . S
C1644 C1650 1.379 . S
C1644 N1652 1.356 . S
C1645 C1644 1.363 . S
C1645 C1651 1.363 . S
C1646 C1647 1.363 . S
C1646 C1651 1.379 . S
C1646 N1653 1.356 . S
C1647 C1646 1.363 . S
C1647 C1650 1.363 . S
N1648 C1650 1.356 . S
N1648 H1660 0.984 . S
N1648 H1661 0.985 . S
N1649 C1651 1.356 . S
N1649 H1654 0.984 . S
N1649 H1655 0.985 . S
C1650 C1644 1.379 . S
C1650 C1647 1.363 . S
C1650 N1648 1.356 . S
C1651 C1645 1.363 . S
C1651 C1646 1.379 . S
C1651 N1649 1.356 . S
N1652 C1644 1.356 . S
N1652 H1658 0.984 . S
N1652 H1659 0.984 . S
N1653 C1646 1.356 . S
N1653 H1656 0.984 . S
N1653 H1657 0.985 . S
H1654 N1649 0.984 . S
H1655 N1649 0.985 . S
H1656 N1653 0.984 . S
H1657 N1653 0.985 . S
H1658 N1652 0.984 . S
H1659 N1652 0.984 . S
H1660 N1648 0.984 . S
H1661 N1648 0.985 . S
C1662 C1663 1.363 . S
C1662 C1668 1.379 . S
C1662 N1670 1.356 . S
C1663 C1662 1.363 . S
C1663 C1669 1.363 . S
C1664 C1665 1.363 . S
C1664 C1669 1.379 . S
C1664 N1671 1.356 . S
C1665 C1664 1.363 . S
C1665 C1668 1.363 . S
N1666 C1668 1.356 . S
N1666 H1678 0.984 . S
N1666 H1679 0.985 . S
N1667 C1669 1.356 . S
N1667 H1672 0.984 . S
N1667 H1673 0.985 . S
C1668 C1662 1.379 . S
C1668 C1665 1.363 . S
C1668 N1666 1.356 . S
C1669 C1663 1.363 . S
C1669 C1664 1.379 . S
C1669 N1667 1.356 . S
N1670 C1662 1.356 . S
N1670 H1676 0.984 . S
N1670 H1677 0.984 . S
N1671 C1664 1.356 . S
N1671 H1674 0.984 . S
N1671 H1675 0.985 . S
H1672 N1667 0.984 . S
H1673 N1667 0.985 . S
H1674 N1671 0.984 . S
H1675 N1671 0.985 . S
H1676 N1670 0.984 . S
H1677 N1670 0.984 . S
H1678 N1666 0.984 . S
H1679 N1666 0.985 . S
C1680 C1681 1.363 . S
C1680 C1686 1.379 . S
C1680 N1688 1.356 . S
C1681 C1680 1.363 . S
C1681 C1687 1.363 . S
C1682 C1683 1.363 . S
C1682 C1687 1.379 . S
C1682 N1689 1.356 . S
C1683 C1682 1.363 . S
C1683 C1686 1.363 . S
N1684 C1686 1.356 . S
N1684 H1696 0.984 . S
N1684 H1697 0.985 . S
N1685 C1687 1.356 . S
N1685 H1690 0.984 . S
N1685 H1691 0.985 . S
C1686 C1680 1.379 . S
C1686 C1683 1.363 . S
C1686 N1684 1.356 . S
C1687 C1681 1.363 . S
C1687 C1682 1.379 . S
C1687 N1685 1.356 . S
N1688 C1680 1.356 . S
N1688 H1694 0.984 . S
N1688 H1695 0.984 . S
N1689 C1682 1.356 . S
N1689 H1692 0.984 . S
N1689 H1693 0.985 . S
H1690 N1685 0.984 . S
H1691 N1685 0.985 . S
H1692 N1689 0.984 . S
H1693 N1689 0.985 . S
H1694 N1688 0.984 . S
H1695 N1688 0.984 . S
H1696 N1684 0.984 . S
H1697 N1684 0.985 . S
C1698 C1699 1.363 . S
C1698 C1704 1.379 . S
C1698 N1706 1.356 . S
C1699 C1698 1.363 . S
C1699 C1705 1.363 . S
C1700 C1701 1.363 . S
C1700 C1705 1.379 . S
C1700 N1707 1.356 . S
C1701 C1700 1.363 . S
C1701 C1704 1.363 . S
N1702 C1704 1.356 . S
N1702 H1714 0.984 . S
N1702 H1715 0.985 . S
N1703 C1705 1.356 . S
N1703 H1708 0.984 . S
N1703 H1709 0.985 . S
C1704 C1698 1.379 . S
C1704 C1701 1.363 . S
C1704 N1702 1.356 . S
C1705 C1699 1.363 . S
C1705 C1700 1.379 . S
C1705 N1703 1.356 . S
N1706 C1698 1.356 . S
N1706 H1712 0.984 . S
N1706 H1713 0.984 . S
N1707 C1700 1.356 . S
N1707 H1710 0.984 . S
N1707 H1711 0.985 . S
H1708 N1703 0.984 . S
H1709 N1703 0.985 . S
H1710 N1707 0.984 . S
H1711 N1707 0.985 . S
H1712 N1706 0.984 . S
H1713 N1706 0.984 . S
H1714 N1702 0.984 . S
H1715 N1702 0.985 . S
C1716 C1717 1.363 . S
C1716 C1722 1.379 . S
C1716 N1724 1.356 . S
C1717 C1716 1.363 . S
C1717 C1723 1.363 . S
C1718 C1719 1.363 . S
C1718 C1723 1.379 . S
C1718 N1725 1.356 . S
C1719 C1718 1.363 . S
C1719 C1722 1.363 . S
N1720 C1722 1.356 . S
N1720 H1732 0.984 . S
N1720 H1733 0.985 . S
N1721 C1723 1.356 . S
N1721 H1726 0.984 . S
N1721 H1727 0.985 . S
C1722 C1716 1.379 . S
C1722 C1719 1.363 . S
C1722 N1720 1.356 . S
C1723 C1717 1.363 . S
C1723 C1718 1.379 . S
C1723 N1721 1.356 . S
N1724 C1716 1.356 . S
N1724 H1730 0.984 . S
N1724 H1731 0.984 . S
N1725 C1718 1.356 . S
N1725 H1728 0.984 . S
N1725 H1729 0.985 . S
H1726 N1721 0.984 . S
H1727 N1721 0.985 . S
H1728 N1725 0.984 . S
H1729 N1725 0.985 . S
H1730 N1724 0.984 . S
H1731 N1724 0.984 . S
H1732 N1720 0.984 . S
H1733 N1720 0.985 . S
C1734 C1735 1.363 . S
C1734 C1740 1.379 . S
C1734 N1742 1.356 . S
C1735 C1734 1.363 . S
C1735 C1741 1.363 . S
C1736 C1737 1.363 . S
C1736 C1741 1.379 . S
C1736 N1743 1.356 . S
C1737 C1736 1.363 . S
C1737 C1740 1.363 . S
N1738 C1740 1.356 . S
N1738 H1750 0.984 . S
N1738 H1751 0.985 . S
N1739 C1741 1.356 . S
N1739 H1744 0.984 . S
N1739 H1745 0.985 . S
C1740 C1734 1.379 . S
C1740 C1737 1.363 . S
C1740 N1738 1.356 . S
C1741 C1735 1.363 . S
C1741 C1736 1.379 . S
C1741 N1739 1.356 . S
N1742 C1734 1.356 . S
N1742 H1748 0.984 . S
N1742 H1749 0.984 . S
N1743 C1736 1.356 . S
N1743 H1746 0.984 . S
N1743 H1747 0.985 . S
H1744 N1739 0.984 . S
H1745 N1739 0.985 . S
H1746 N1743 0.984 . S
H1747 N1743 0.985 . S
H1748 N1742 0.984 . S
H1749 N1742 0.984 . S
H1750 N1738 0.984 . S
H1751 N1738 0.985 . S
C1752 C1753 1.363 . S
C1752 C1758 1.379 . S
C1752 N1760 1.356 . S
C1753 C1752 1.363 . S
C1753 C1759 1.363 . S
C1754 C1755 1.363 . S
C1754 C1759 1.379 . S
C1754 N1761 1.356 . S
C1755 C1754 1.363 . S
C1755 C1758 1.363 . S
N1756 C1758 1.356 . S
N1756 H1768 0.984 . S
N1756 H1769 0.985 . S
N1757 C1759 1.356 . S
N1757 H1762 0.984 . S
N1757 H1763 0.985 . S
C1758 C1752 1.379 . S
C1758 C1755 1.363 . S
C1758 N1756 1.356 . S
C1759 C1753 1.363 . S
C1759 C1754 1.379 . S
C1759 N1757 1.356 . S
N1760 C1752 1.356 . S
N1760 H1766 0.984 . S
N1760 H1767 0.984 . S
N1761 C1754 1.356 . S
N1761 H1764 0.984 . S
N1761 H1765 0.985 . S
H1762 N1757 0.984 . S
H1763 N1757 0.985 . S
H1764 N1761 0.984 . S
H1765 N1761 0.985 . S
H1766 N1760 0.984 . S
H1767 N1760 0.984 . S
H1768 N1756 0.984 . S
H1769 N1756 0.985 . S
C1770 C1771 1.363 . S
C1770 C1776 1.379 . S
C1770 N1778 1.356 . S
C1771 C1770 1.363 . S
C1771 C1777 1.363 . S
C1772 C1773 1.363 . S
C1772 C1777 1.379 . S
C1772 N1779 1.356 . S
C1773 C1772 1.363 . S
C1773 C1776 1.363 . S
N1774 C1776 1.356 . S
N1774 H1786 0.984 . S
N1774 H1787 0.985 . S
N1775 C1777 1.356 . S
N1775 H1780 0.984 . S
N1775 H1781 0.985 . S
C1776 C1770 1.379 . S
C1776 C1773 1.363 . S
C1776 N1774 1.356 . S
C1777 C1771 1.363 . S
C1777 C1772 1.379 . S
C1777 N1775 1.356 . S
N1778 C1770 1.356 . S
N1778 H1784 0.984 . S
N1778 H1785 0.984 . S
N1779 C1772 1.356 . S
N1779 H1782 0.984 . S
N1779 H1783 0.985 . S
H1780 N1775 0.984 . S
H1781 N1775 0.985 . S
H1782 N1779 0.984 . S
H1783 N1779 0.985 . S
H1784 N1778 0.984 . S
H1785 N1778 0.984 . S
H1786 N1774 0.984 . S
H1787 N1774 0.985 . S
C1788 C1789 1.363 . S
C1788 C1794 1.379 . S
C1788 N1796 1.356 . S
C1789 C1788 1.363 . S
C1789 C1795 1.363 . S
C1790 C1791 1.363 . S
C1790 C1795 1.379 . S
C1790 N1797 1.356 . S
C1791 C1790 1.363 . S
C1791 C1794 1.363 . S
N1792 C1794 1.356 . S
N1792 H1804 0.984 . S
N1792 H1805 0.985 . S
N1793 C1795 1.356 . S
N1793 H1798 0.984 . S
N1793 H1799 0.985 . S
C1794 C1788 1.379 . S
C1794 C1791 1.363 . S
C1794 N1792 1.356 . S
C1795 C1789 1.363 . S
C1795 C1790 1.379 . S
C1795 N1793 1.356 . S
N1796 C1788 1.356 . S
N1796 H1802 0.984 . S
N1796 H1803 0.984 . S
N1797 C1790 1.356 . S
N1797 H1800 0.984 . S
N1797 H1801 0.985 . S
H1798 N1793 0.984 . S
H1799 N1793 0.985 . S
H1800 N1797 0.984 . S
H1801 N1797 0.985 . S
H1802 N1796 0.984 . S
H1803 N1796 0.984 . S
H1804 N1792 0.984 . S
H1805 N1792 0.985 . S
C1806 C1807 1.363 . S
C1806 C1812 1.379 . S
C1806 N1814 1.356 . S
C1807 C1806 1.363 . S
C1807 C1813 1.363 . S
C1808 C1809 1.363 . S
C1808 C1813 1.379 . S
C1808 N1815 1.356 . S
C1809 C1808 1.363 . S
C1809 C1812 1.363 . S
N1810 C1812 1.356 . S
N1810 H1822 0.984 . S
N1810 H1823 0.985 . S
N1811 C1813 1.356 . S
N1811 H1816 0.984 . S
N1811 H1817 0.985 . S
C1812 C1806 1.379 . S
C1812 C1809 1.363 . S
C1812 N1810 1.356 . S
C1813 C1807 1.363 . S
C1813 C1808 1.379 . S
C1813 N1811 1.356 . S
N1814 C1806 1.356 . S
N1814 H1820 0.984 . S
N1814 H1821 0.984 . S
N1815 C1808 1.356 . S
N1815 H1818 0.984 . S
N1815 H1819 0.985 . S
H1816 N1811 0.984 . S
H1817 N1811 0.985 . S
H1818 N1815 0.984 . S
H1819 N1815 0.985 . S
H1820 N1814 0.984 . S
H1821 N1814 0.984 . S
H1822 N1810 0.984 . S
H1823 N1810 0.985 . S
C1824 C1825 1.363 . S
C1824 C1830 1.379 1_554 S
C1824 N1832 1.356 . S
C1825 C1824 1.363 . S
C1825 C1831 1.363 . S
C1826 C1827 1.363 . S
C1826 C1831 1.379 1_556 S
C1826 N1833 1.356 . S
C1827 C1826 1.363 . S
C1827 C1830 1.363 . S
N1828 C1830 1.356 . S
N1828 H1840 0.984 . S
N1828 H1841 0.985 . S
N1829 C1831 1.356 . S
N1829 H1834 0.984 . S
N1829 H1835 0.985 . S
C1830 C1824 1.379 1_556 S
C1830 C1827 1.363 . S
C1830 N1828 1.356 . S
C1831 C1825 1.363 . S
C1831 C1826 1.379 1_554 S
C1831 N1829 1.356 . S
N1832 C1824 1.356 . S
N1832 H1838 0.984 . S
N1832 H1839 0.984 . S
N1833 C1826 1.356 . S
N1833 H1836 0.984 . S
N1833 H1837 0.985 . S
H1834 N1829 0.984 . S
H1835 N1829 0.985 . S
H1836 N1833 0.984 . S
H1837 N1833 0.985 . S
H1838 N1832 0.984 . S
H1839 N1832 0.984 . S
H1840 N1828 0.984 . S
H1841 N1828 0.985 . S
C1842 C1843 1.363 . S
C1842 C1848 1.379 1_554 S
C1842 N1850 1.356 . S
C1843 C1842 1.363 . S
C1843 C1849 1.363 . S
C1844 C1845 1.363 . S
C1844 C1849 1.379 1_556 S
C1844 N1851 1.356 . S
C1845 C1844 1.363 . S
C1845 C1848 1.363 . S
N1846 C1848 1.356 . S
N1846 H1858 0.984 . S
N1846 H1859 0.985 . S
N1847 C1849 1.356 . S
N1847 H1852 0.984 . S
N1847 H1853 0.985 . S
C1848 C1842 1.379 1_556 S
C1848 C1845 1.363 . S
C1848 N1846 1.356 . S
C1849 C1843 1.363 . S
C1849 C1844 1.379 1_554 S
C1849 N1847 1.356 . S
N1850 C1842 1.356 . S
N1850 H1856 0.984 . S
N1850 H1857 0.984 . S
N1851 C1844 1.356 . S
N1851 H1854 0.984 . S
N1851 H1855 0.985 . S
H1852 N1847 0.984 . S
H1853 N1847 0.985 . S
H1854 N1851 0.984 . S
H1855 N1851 0.985 . S
H1856 N1850 0.984 . S
H1857 N1850 0.984 . S
H1858 N1846 0.984 . S
H1859 N1846 0.985 . S
C1860 C1861 1.363 . S
C1860 C1866 1.379 1_556 S
C1860 N1868 1.356 . S
C1861 C1860 1.363 . S
C1861 C1867 1.363 . S
C1862 C1863 1.363 . S
C1862 C1867 1.379 1_554 S
C1862 N1869 1.356 . S
C1863 C1862 1.363 . S
C1863 C1866 1.363 . S
N1864 C1866 1.356 . S
N1864 H1876 0.984 . S
N1864 H1877 0.985 . S
N1865 C1867 1.356 . S
N1865 H1870 0.984 . S
N1865 H1871 0.985 . S
C1866 C1860 1.379 1_554 S
C1866 C1863 1.363 . S
C1866 N1864 1.356 . S
C1867 C1861 1.363 . S
C1867 C1862 1.379 1_556 S
C1867 N1865 1.356 . S
N1868 C1860 1.356 . S
N1868 H1874 0.984 . S
N1868 H1875 0.984 . S
N1869 C1862 1.356 . S
N1869 H1872 0.984 . S
N1869 H1873 0.985 . S
H1870 N1865 0.984 . S
H1871 N1865 0.985 . S
H1872 N1869 0.984 . S
H1873 N1869 0.985 . S
H1874 N1868 0.984 . S
H1875 N1868 0.984 . S
H1876 N1864 0.984 . S
H1877 N1864 0.985 . S
C1878 C1879 1.363 . S
C1878 C1884 1.379 1_554 S
C1878 N1886 1.356 . S
C1879 C1878 1.363 . S
C1879 C1885 1.363 . S
C1880 C1881 1.363 . S
C1880 C1885 1.379 1_556 S
C1880 N1887 1.356 . S
C1881 C1880 1.363 . S
C1881 C1884 1.363 . S
N1882 C1884 1.356 . S
N1882 H1894 0.984 . S
N1882 H1895 0.985 . S
N1883 C1885 1.356 . S
N1883 H1888 0.984 . S
N1883 H1889 0.985 . S
C1884 C1878 1.379 1_556 S
C1884 C1881 1.363 . S
C1884 N1882 1.356 . S
C1885 C1879 1.363 . S
C1885 C1880 1.379 1_554 S
C1885 N1883 1.356 . S
N1886 C1878 1.356 . S
N1886 H1892 0.984 . S
N1886 H1893 0.984 . S
N1887 C1880 1.356 . S
N1887 H1890 0.984 . S
N1887 H1891 0.985 . S
H1888 N1883 0.984 . S
H1889 N1883 0.985 . S
H1890 N1887 0.984 . S
H1891 N1887 0.985 . S
H1892 N1886 0.984 . S
H1893 N1886 0.984 . S
H1894 N1882 0.984 . S
H1895 N1882 0.985 . S
C1896 C1897 1.363 . S
C1896 C1902 1.379 . S
C1896 N1904 1.356 . S
C1897 C1896 1.363 . S
C1897 C1903 1.363 . S
C1898 C1899 1.363 . S
C1898 C1903 1.379 . S
C1898 N1905 1.356 . S
C1899 C1898 1.363 . S
C1899 C1902 1.363 . S
N1900 C1902 1.356 . S
N1900 H1912 0.984 . S
N1900 H1913 0.985 . S
N1901 C1903 1.356 . S
N1901 H1906 0.984 . S
N1901 H1907 0.985 . S
C1902 C1896 1.379 . S
C1902 C1899 1.363 . S
C1902 N1900 1.356 . S
C1903 C1897 1.363 . S
C1903 C1898 1.379 . S
C1903 N1901 1.356 . S
N1904 C1896 1.356 . S
N1904 H1910 0.984 . S
N1904 H1911 0.984 . S
N1905 C1898 1.356 . S
N1905 H1908 0.984 . S
N1905 H1909 0.985 . S
H1906 N1901 0.984 . S
H1907 N1901 0.985 . S
H1908 N1905 0.984 . S
H1909 N1905 0.985 . S
H1910 N1904 0.984 . S
H1911 N1904 0.984 . S
H1912 N1900 0.984 . S
H1913 N1900 0.985 . S
C1914 C1915 1.363 . S
C1914 C1920 1.379 . S
C1914 N1922 1.356 . S
C1915 C1914 1.363 . S
C1915 C1921 1.363 . S
C1916 C1917 1.363 . S
C1916 C1921 1.379 . S
C1916 N1923 1.356 . S
C1917 C1916 1.363 . S
C1917 C1920 1.363 . S
N1918 C1920 1.356 . S
N1918 H1930 0.984 . S
N1918 H1931 0.985 . S
N1919 C1921 1.356 . S
N1919 H1924 0.984 . S
N1919 H1925 0.985 . S
C1920 C1914 1.379 . S
C1920 C1917 1.363 . S
C1920 N1918 1.356 . S
C1921 C1915 1.363 . S
C1921 C1916 1.379 . S
C1921 N1919 1.356 . S
N1922 C1914 1.356 . S
N1922 H1928 0.984 . S
N1922 H1929 0.984 . S
N1923 C1916 1.356 . S
N1923 H1926 0.984 . S
N1923 H1927 0.985 . S
H1924 N1919 0.984 . S
H1925 N1919 0.985 . S
H1926 N1923 0.984 . S
H1927 N1923 0.985 . S
H1928 N1922 0.984 . S
H1929 N1922 0.984 . S
H1930 N1918 0.984 . S
H1931 N1918 0.985 . S
C1932 C1933 1.363 . S
C1932 C1938 1.379 . S
C1932 N1940 1.356 . S
C1933 C1932 1.363 . S
C1933 C1939 1.363 . S
C1934 C1935 1.363 . S
C1934 C1939 1.379 . S
C1934 N1941 1.356 . S
C1935 C1934 1.363 . S
C1935 C1938 1.363 . S
N1936 C1938 1.356 . S
N1936 H1948 0.984 . S
N1936 H1949 0.985 . S
N1937 C1939 1.356 . S
N1937 H1942 0.984 . S
N1937 H1943 0.985 . S
C1938 C1932 1.379 . S
C1938 C1935 1.363 . S
C1938 N1936 1.356 . S
C1939 C1933 1.363 . S
C1939 C1934 1.379 . S
C1939 N1937 1.356 . S
N1940 C1932 1.356 . S
N1940 H1946 0.984 . S
N1940 H1947 0.984 . S
N1941 C1934 1.356 . S
N1941 H1944 0.984 . S
N1941 H1945 0.985 . S
H1942 N1937 0.984 . S
H1943 N1937 0.985 . S
H1944 N1941 0.984 . S
H1945 N1941 0.985 . S
H1946 N1940 0.984 . S
H1947 N1940 0.984 . S
H1948 N1936 0.984 . S
H1949 N1936 0.985 . S
C1950 C1951 1.363 . S
C1950 C1956 1.379 . S
C1950 N1958 1.356 . S
C1951 C1950 1.363 . S
C1951 C1957 1.363 . S
C1952 C1953 1.363 . S
C1952 C1957 1.379 . S
C1952 N1959 1.356 . S
C1953 C1952 1.363 . S
C1953 C1956 1.363 . S
N1954 C1956 1.356 . S
N1954 H1966 0.984 . S
N1954 H1967 0.985 . S
N1955 C1957 1.356 . S
N1955 H1960 0.984 . S
N1955 H1961 0.985 . S
C1956 C1950 1.379 . S
C1956 C1953 1.363 . S
C1956 N1954 1.356 . S
C1957 C1951 1.363 . S
C1957 C1952 1.379 . S
C1957 N1955 1.356 . S
N1958 C1950 1.356 . S
N1958 H1964 0.984 . S
N1958 H1965 0.984 . S
N1959 C1952 1.356 . S
N1959 H1962 0.984 . S
N1959 H1963 0.985 . S
H1960 N1955 0.984 . S
H1961 N1955 0.985 . S
H1962 N1959 0.984 . S
H1963 N1959 0.985 . S
H1964 N1958 0.984 . S
H1965 N1958 0.984 . S
H1966 N1954 0.984 . S
H1967 N1954 0.985 . S
C1968 C1969 1.363 . S
C1968 C1974 1.379 1_655 S
C1968 N1976 1.356 . S
C1969 C1968 1.363 . S
C1969 C1975 1.363 . S
C1970 C1971 1.363 . S
C1970 C1975 1.379 1_455 S
C1970 N1977 1.356 . S
C1971 C1970 1.363 . S
C1971 C1974 1.363 . S
N1972 C1974 1.356 . S
N1972 H1984 0.984 . S
N1972 H1985 0.985 . S
N1973 C1975 1.356 . S
N1973 H1978 0.984 . S
N1973 H1979 0.985 . S
C1974 C1968 1.379 1_455 S
C1974 C1971 1.363 . S
C1974 N1972 1.356 . S
C1975 C1969 1.363 . S
C1975 C1970 1.379 1_655 S
C1975 N1973 1.356 . S
N1976 C1968 1.356 . S
N1976 H1982 0.984 . S
N1976 H1983 0.984 . S
N1977 C1970 1.356 . S
N1977 H1980 0.984 . S
N1977 H1981 0.985 . S
H1978 N1973 0.984 . S
H1979 N1973 0.985 . S
H1980 N1977 0.984 . S
H1981 N1977 0.985 . S
H1982 N1976 0.984 . S
H1983 N1976 0.984 . S
H1984 N1972 0.984 . S
H1985 N1972 0.985 . S
C1986 C1987 1.363 . S
C1986 C1992 1.379 1_565 S
C1986 N1994 1.356 . S
C1987 C1986 1.363 . S
C1987 C1993 1.363 . S
C1988 C1989 1.363 . S
C1988 C1993 1.379 1_545 S
C1988 N1995 1.356 . S
C1989 C1988 1.363 . S
C1989 C1992 1.363 . S
N1990 C1992 1.356 . S
N1990 H2002 0.984 . S
N1990 H2003 0.985 . S
N1991 C1993 1.356 . S
N1991 H1996 0.984 . S
N1991 H1997 0.985 . S
C1992 C1986 1.379 1_545 S
C1992 C1989 1.363 . S
C1992 N1990 1.356 . S
C1993 C1987 1.363 . S
C1993 C1988 1.379 1_565 S
C1993 N1991 1.356 . S
N1994 C1986 1.356 . S
N1994 H2000 0.984 . S
N1994 H2001 0.984 . S
N1995 C1988 1.356 . S
N1995 H1998 0.984 . S
N1995 H1999 0.985 . S
H1996 N1991 0.984 . S
H1997 N1991 0.985 . S
H1998 N1995 0.984 . S
H1999 N1995 0.985 . S
H2000 N1994 0.984 . S
H2001 N1994 0.984 . S
H2002 N1990 0.984 . S
H2003 N1990 0.985 . S
C2004 C2005 1.363 . S
C2004 C2010 1.379 . S
C2004 N2012 1.356 . S
C2005 C2004 1.363 . S
C2005 C2011 1.363 . S
C2006 C2007 1.363 . S
C2006 C2011 1.379 . S
C2006 N2013 1.356 . S
C2007 C2006 1.363 . S
C2007 C2010 1.363 . S
N2008 C2010 1.356 . S
N2008 H2020 0.984 . S
N2008 H2021 0.985 . S
N2009 C2011 1.356 . S
N2009 H2014 0.984 . S
N2009 H2015 0.985 . S
C2010 C2004 1.379 . S
C2010 C2007 1.363 . S
C2010 N2008 1.356 . S
C2011 C2005 1.363 . S
C2011 C2006 1.379 . S
C2011 N2009 1.356 . S
N2012 C2004 1.356 . S
N2012 H2018 0.984 . S
N2012 H2019 0.984 . S
N2013 C2006 1.356 . S
N2013 H2016 0.984 . S
N2013 H2017 0.985 . S
H2014 N2009 0.984 . S
H2015 N2009 0.985 . S
H2016 N2013 0.984 . S
H2017 N2013 0.985 . S
H2018 N2012 0.984 . S
H2019 N2012 0.984 . S
H2020 N2008 0.984 . S
H2021 N2008 0.985 . S
C2022 C2023 1.363 . S
C2022 C2028 1.379 . S
C2022 N2030 1.356 . S
C2023 C2022 1.363 . S
C2023 C2029 1.363 . S
C2024 C2025 1.363 . S
C2024 C2029 1.379 . S
C2024 N2031 1.356 . S
C2025 C2024 1.363 . S
C2025 C2028 1.363 . S
N2026 C2028 1.356 . S
N2026 H2038 0.984 . S
N2026 H2039 0.985 . S
N2027 C2029 1.356 . S
N2027 H2032 0.984 . S
N2027 H2033 0.985 . S
C2028 C2022 1.379 . S
C2028 C2025 1.363 . S
C2028 N2026 1.356 . S
C2029 C2023 1.363 . S
C2029 C2024 1.379 . S
C2029 N2027 1.356 . S
N2030 C2022 1.356 . S
N2030 H2036 0.984 . S
N2030 H2037 0.984 . S
N2031 C2024 1.356 . S
N2031 H2034 0.984 . S
N2031 H2035 0.985 . S
H2032 N2027 0.984 . S
H2033 N2027 0.985 . S
H2034 N2031 0.984 . S
H2035 N2031 0.985 . S
H2036 N2030 0.984 . S
H2037 N2030 0.984 . S
H2038 N2026 0.984 . S
H2039 N2026 0.985 . S
C2040 C2041 1.363 . S
C2040 C2046 1.379 1_455 S
C2040 N2048 1.356 . S
C2041 C2040 1.363 . S
C2041 C2047 1.363 . S
C2042 C2043 1.363 . S
C2042 C2047 1.379 1_655 S
C2042 N2049 1.356 . S
C2043 C2042 1.363 . S
C2043 C2046 1.363 . S
N2044 C2046 1.356 . S
N2044 H2056 0.984 . S
N2044 H2057 0.985 . S
N2045 C2047 1.356 . S
N2045 H2050 0.984 . S
N2045 H2051 0.985 . S
C2046 C2040 1.379 1_655 S
C2046 C2043 1.363 . S
C2046 N2044 1.356 . S
C2047 C2041 1.363 . S
C2047 C2042 1.379 1_455 S
C2047 N2045 1.356 . S
N2048 C2040 1.356 . S
N2048 H2054 0.984 . S
N2048 H2055 0.984 . S
N2049 C2042 1.356 . S
N2049 H2052 0.984 . S
N2049 H2053 0.985 . S
H2050 N2045 0.984 . S
H2051 N2045 0.985 . S
H2052 N2049 0.984 . S
H2053 N2049 0.985 . S
H2054 N2048 0.984 . S
H2055 N2048 0.984 . S
H2056 N2044 0.984 . S
H2057 N2044 0.985 . S
C2058 C2059 1.363 . S
C2058 C2064 1.379 1_565 S
C2058 N2066 1.356 . S
C2059 C2058 1.363 . S
C2059 C2065 1.363 . S
C2060 C2061 1.363 . S
C2060 C2065 1.379 1_545 S
C2060 N2067 1.356 . S
C2061 C2060 1.363 . S
C2061 C2064 1.363 . S
N2062 C2064 1.356 . S
N2062 H2074 0.984 . S
N2062 H2075 0.985 . S
N2063 C2065 1.356 . S
N2063 H2068 0.984 . S
N2063 H2069 0.985 . S
C2064 C2058 1.379 1_545 S
C2064 C2061 1.363 . S
C2064 N2062 1.356 . S
C2065 C2059 1.363 . S
C2065 C2060 1.379 1_565 S
C2065 N2063 1.356 . S
N2066 C2058 1.356 . S
N2066 H2072 0.984 . S
N2066 H2073 0.984 . S
N2067 C2060 1.356 . S
N2067 H2070 0.984 . S
N2067 H2071 0.985 . S
H2068 N2063 0.984 . S
H2069 N2063 0.985 . S
H2070 N2067 0.984 . S
H2071 N2067 0.985 . S
H2072 N2066 0.984 . S
H2073 N2066 0.984 . S
H2074 N2062 0.984 . S
H2075 N2062 0.985 . S
C2076 C2077 1.363 . S
C2076 C2082 1.379 . S
C2076 N2084 1.356 . S
C2077 C2076 1.363 . S
C2077 C2083 1.363 . S
C2078 C2079 1.363 . S
C2078 C2083 1.379 . S
C2078 N2085 1.356 . S
C2079 C2078 1.363 . S
C2079 C2082 1.363 . S
N2080 C2082 1.356 . S
N2080 H2092 0.984 . S
N2080 H2093 0.985 . S
N2081 C2083 1.356 . S
N2081 H2086 0.984 . S
N2081 H2087 0.985 . S
C2082 C2076 1.379 . S
C2082 C2079 1.363 . S
C2082 N2080 1.356 . S
C2083 C2077 1.363 . S
C2083 C2078 1.379 . S
C2083 N2081 1.356 . S
N2084 C2076 1.356 . S
N2084 H2090 0.984 . S
N2084 H2091 0.984 . S
N2085 C2078 1.356 . S
N2085 H2088 0.984 . S
N2085 H2089 0.985 . S
H2086 N2081 0.984 . S
H2087 N2081 0.985 . S
H2088 N2085 0.984 . S
H2089 N2085 0.985 . S
H2090 N2084 0.984 . S
H2091 N2084 0.984 . S
H2092 N2080 0.984 . S
H2093 N2080 0.985 . S
C2094 C2095 1.363 . S
C2094 C2100 1.379 . S
C2094 N2102 1.356 . S
C2095 C2094 1.363 . S
C2095 C2101 1.363 . S
C2096 C2097 1.363 . S
C2096 C2101 1.379 . S
C2096 N2103 1.356 . S
C2097 C2096 1.363 . S
C2097 C2100 1.363 . S
N2098 C2100 1.356 . S
N2098 H2110 0.984 . S
N2098 H2111 0.985 . S
N2099 C2101 1.356 . S
N2099 H2104 0.984 . S
N2099 H2105 0.985 . S
C2100 C2094 1.379 . S
C2100 C2097 1.363 . S
C2100 N2098 1.356 . S
C2101 C2095 1.363 . S
C2101 C2096 1.379 . S
C2101 N2099 1.356 . S
N2102 C2094 1.356 . S
N2102 H2108 0.984 . S
N2102 H2109 0.984 . S
N2103 C2096 1.356 . S
N2103 H2106 0.984 . S
N2103 H2107 0.985 . S
H2104 N2099 0.984 . S
H2105 N2099 0.985 . S
H2106 N2103 0.984 . S
H2107 N2103 0.985 . S
H2108 N2102 0.984 . S
H2109 N2102 0.984 . S
H2110 N2098 0.984 . S
H2111 N2098 0.985 . S
C2112 C2113 1.363 . S
C2112 C2118 1.379 1_565 S
C2112 N2120 1.356 . S
C2113 C2112 1.363 . S
C2113 C2119 1.363 . S
C2114 C2115 1.363 . S
C2114 C2119 1.379 1_545 S
C2114 N2121 1.356 . S
C2115 C2114 1.363 . S
C2115 C2118 1.363 . S
N2116 C2118 1.356 . S
N2116 H2128 0.984 . S
N2116 H2129 0.985 . S
N2117 C2119 1.356 . S
N2117 H2122 0.984 . S
N2117 H2123 0.985 . S
C2118 C2112 1.379 1_545 S
C2118 C2115 1.363 . S
C2118 N2116 1.356 . S
C2119 C2113 1.363 . S
C2119 C2114 1.379 1_565 S
C2119 N2117 1.356 . S
N2120 C2112 1.356 . S
N2120 H2126 0.984 . S
N2120 H2127 0.984 . S
N2121 C2114 1.356 . S
N2121 H2124 0.984 . S
N2121 H2125 0.985 . S
H2122 N2117 0.984 . S
H2123 N2117 0.985 . S
H2124 N2121 0.984 . S
H2125 N2121 0.985 . S
H2126 N2120 0.984 . S
H2127 N2120 0.984 . S
H2128 N2116 0.984 . S
H2129 N2116 0.985 . S
C2130 C2131 1.363 . S
C2130 C2136 1.379 . S
C2130 N2138 1.356 . S
C2131 C2130 1.363 . S
C2131 C2137 1.363 . S
C2132 C2133 1.363 . S
C2132 C2137 1.379 . S
C2132 N2139 1.356 . S
C2133 C2132 1.363 . S
C2133 C2136 1.363 . S
N2134 C2136 1.356 . S
N2134 H2146 0.984 . S
N2134 H2147 0.985 . S
N2135 C2137 1.356 . S
N2135 H2140 0.984 . S
N2135 H2141 0.985 . S
C2136 C2130 1.379 . S
C2136 C2133 1.363 . S
C2136 N2134 1.356 . S
C2137 C2131 1.363 . S
C2137 C2132 1.379 . S
C2137 N2135 1.356 . S
N2138 C2130 1.356 . S
N2138 H2144 0.984 . S
N2138 H2145 0.984 . S
N2139 C2132 1.356 . S
N2139 H2142 0.984 . S
N2139 H2143 0.985 . S
H2140 N2135 0.984 . S
H2141 N2135 0.985 . S
H2142 N2139 0.984 . S
H2143 N2139 0.985 . S
H2144 N2138 0.984 . S
H2145 N2138 0.984 . S
H2146 N2134 0.984 . S
H2147 N2134 0.985 . S
C2148 C2149 1.363 . S
C2148 C2154 1.379 1_455 S
C2148 N2156 1.356 . S
C2149 C2148 1.363 . S
C2149 C2155 1.363 . S
C2150 C2151 1.363 . S
C2150 C2155 1.379 1_655 S
C2150 N2157 1.356 . S
C2151 C2150 1.363 . S
C2151 C2154 1.363 . S
N2152 C2154 1.356 . S
N2152 H2164 0.984 . S
N2152 H2165 0.985 . S
N2153 C2155 1.356 . S
N2153 H2158 0.984 . S
N2153 H2159 0.985 . S
C2154 C2148 1.379 1_655 S
C2154 C2151 1.363 . S
C2154 N2152 1.356 . S
C2155 C2149 1.363 . S
C2155 C2150 1.379 1_455 S
C2155 N2153 1.356 . S
N2156 C2148 1.356 . S
N2156 H2162 0.984 . S
N2156 H2163 0.984 . S
N2157 C2150 1.356 . S
N2157 H2160 0.984 . S
N2157 H2161 0.985 . S
H2158 N2153 0.984 . S
H2159 N2153 0.985 . S
H2160 N2157 0.984 . S
H2161 N2157 0.985 . S
H2162 N2156 0.984 . S
H2163 N2156 0.984 . S
H2164 N2152 0.984 . S
H2165 N2152 0.985 . S
C2166 C2167 1.363 . S
C2166 C2172 1.379 1_545 S
C2166 N2174 1.356 . S
C2167 C2166 1.363 . S
C2167 C2173 1.363 . S
C2168 C2169 1.363 . S
C2168 C2173 1.379 1_565 S
C2168 N2175 1.356 . S
C2169 C2168 1.363 . S
C2169 C2172 1.363 . S
N2170 C2172 1.356 . S
N2170 H2182 0.984 . S
N2170 H2183 0.985 . S
N2171 C2173 1.356 . S
N2171 H2176 0.984 . S
N2171 H2177 0.985 . S
C2172 C2166 1.379 1_565 S
C2172 C2169 1.363 . S
C2172 N2170 1.356 . S
C2173 C2167 1.363 . S
C2173 C2168 1.379 1_545 S
C2173 N2171 1.356 . S
N2174 C2166 1.356 . S
N2174 H2180 0.984 . S
N2174 H2181 0.984 . S
N2175 C2168 1.356 . S
N2175 H2178 0.984 . S
N2175 H2179 0.985 . S
H2176 N2171 0.984 . S
H2177 N2171 0.985 . S
H2178 N2175 0.984 . S
H2179 N2175 0.985 . S
H2180 N2174 0.984 . S
H2181 N2174 0.984 . S
H2182 N2170 0.984 . S
H2183 N2170 0.985 . S
C2184 C2185 1.363 . S
C2184 C2190 1.379 . S
C2184 N2192 1.356 . S
C2185 C2184 1.363 . S
C2185 C2191 1.363 . S
C2186 C2187 1.363 . S
C2186 C2191 1.379 . S
C2186 N2193 1.356 . S
C2187 C2186 1.363 . S
C2187 C2190 1.363 . S
N2188 C2190 1.356 . S
N2188 H2200 0.984 . S
N2188 H2201 0.985 . S
N2189 C2191 1.356 . S
N2189 H2194 0.984 . S
N2189 H2195 0.985 . S
C2190 C2184 1.379 . S
C2190 C2187 1.363 . S
C2190 N2188 1.356 . S
C2191 C2185 1.363 . S
C2191 C2186 1.379 . S
C2191 N2189 1.356 . S
N2192 C2184 1.356 . S
N2192 H2198 0.984 . S
N2192 H2199 0.984 . S
N2193 C2186 1.356 . S
N2193 H2196 0.984 . S
N2193 H2197 0.985 . S
H2194 N2189 0.984 . S
H2195 N2189 0.985 . S
H2196 N2193 0.984 . S
H2197 N2193 0.985 . S
H2198 N2192 0.984 . S
H2199 N2192 0.984 . S
H2200 N2188 0.984 . S
H2201 N2188 0.985 . S
C2202 C2203 1.363 . S
C2202 C2208 1.379 . S
C2202 N2210 1.356 . S
C2203 C2202 1.363 . S
C2203 C2209 1.363 . S
C2204 C2205 1.363 . S
C2204 C2209 1.379 . S
C2204 N2211 1.356 . S
C2205 C2204 1.363 . S
C2205 C2208 1.363 . S
N2206 C2208 1.356 . S
N2206 H2218 0.984 . S
N2206 H2219 0.985 . S
N2207 C2209 1.356 . S
N2207 H2212 0.984 . S
N2207 H2213 0.985 . S
C2208 C2202 1.379 . S
C2208 C2205 1.363 . S
C2208 N2206 1.356 . S
C2209 C2203 1.363 . S
C2209 C2204 1.379 . S
C2209 N2207 1.356 . S
N2210 C2202 1.356 . S
N2210 H2216 0.984 . S
N2210 H2217 0.984 . S
N2211 C2204 1.356 . S
N2211 H2214 0.984 . S
N2211 H2215 0.985 . S
H2212 N2207 0.984 . S
H2213 N2207 0.985 . S
H2214 N2211 0.984 . S
H2215 N2211 0.985 . S
H2216 N2210 0.984 . S
H2217 N2210 0.984 . S
H2218 N2206 0.984 . S
H2219 N2206 0.985 . S
C2220 C2221 1.363 . S
C2220 C2226 1.379 1_455 S
C2220 N2228 1.356 . S
C2221 C2220 1.363 . S
C2221 C2227 1.363 . S
C2222 C2223 1.363 . S
C2222 C2227 1.379 1_655 S
C2222 N2229 1.356 . S
C2223 C2222 1.363 . S
C2223 C2226 1.363 . S
N2224 C2226 1.356 . S
N2224 H2236 0.984 . S
N2224 H2237 0.985 . S
N2225 C2227 1.356 . S
N2225 H2230 0.984 . S
N2225 H2231 0.985 . S
C2226 C2220 1.379 1_655 S
C2226 C2223 1.363 . S
C2226 N2224 1.356 . S
C2227 C2221 1.363 . S
C2227 C2222 1.379 1_455 S
C2227 N2225 1.356 . S
N2228 C2220 1.356 . S
N2228 H2234 0.984 . S
N2228 H2235 0.984 . S
N2229 C2222 1.356 . S
N2229 H2232 0.984 . S
N2229 H2233 0.985 . S
H2230 N2225 0.984 . S
H2231 N2225 0.985 . S
H2232 N2229 0.984 . S
H2233 N2229 0.985 . S
H2234 N2228 0.984 . S
H2235 N2228 0.984 . S
H2236 N2224 0.984 . S
H2237 N2224 0.985 . S
C2238 C2239 1.363 . S
C2238 C2244 1.379 . S
C2238 N2246 1.356 . S
C2239 C2238 1.363 . S
C2239 C2245 1.363 . S
C2240 C2241 1.363 . S
C2240 C2245 1.379 . S
C2240 N2247 1.356 . S
C2241 C2240 1.363 . S
C2241 C2244 1.363 . S
N2242 C2244 1.356 . S
N2242 H2254 0.984 . S
N2242 H2255 0.985 . S
N2243 C2245 1.356 . S
N2243 H2248 0.984 . S
N2243 H2249 0.985 . S
C2244 C2238 1.379 . S
C2244 C2241 1.363 . S
C2244 N2242 1.356 . S
C2245 C2239 1.363 . S
C2245 C2240 1.379 . S
C2245 N2243 1.356 . S
N2246 C2238 1.356 . S
N2246 H2252 0.984 . S
N2246 H2253 0.984 . S
N2247 C2240 1.356 . S
N2247 H2250 0.984 . S
N2247 H2251 0.985 . S
H2248 N2243 0.984 . S
H2249 N2243 0.985 . S
H2250 N2247 0.984 . S
H2251 N2247 0.985 . S
H2252 N2246 0.984 . S
H2253 N2246 0.984 . S
H2254 N2242 0.984 . S
H2255 N2242 0.985 . S
C2256 C2257 1.363 . S
C2256 C2262 1.379 1_554 S
C2256 N2264 1.356 . S
C2257 C2256 1.363 . S
C2257 C2263 1.363 . S
C2258 C2259 1.363 . S
C2258 C2263 1.379 1_556 S
C2258 N2265 1.356 . S
C2259 C2258 1.363 . S
C2259 C2262 1.363 . S
N2260 C2262 1.356 . S
N2260 H2272 0.984 . S
N2260 H2273 0.985 . S
N2261 C2263 1.356 . S
N2261 H2266 0.984 . S
N2261 H2267 0.985 . S
C2262 C2256 1.379 1_556 S
C2262 C2259 1.363 . S
C2262 N2260 1.356 . S
C2263 C2257 1.363 . S
C2263 C2258 1.379 1_554 S
C2263 N2261 1.356 . S
N2264 C2256 1.356 . S
N2264 H2270 0.984 . S
N2264 H2271 0.984 . S
N2265 C2258 1.356 . S
N2265 H2268 0.984 . S
N2265 H2269 0.985 . S
H2266 N2261 0.984 . S
H2267 N2261 0.985 . S
H2268 N2265 0.984 . S
H2269 N2265 0.985 . S
H2270 N2264 0.984 . S
H2271 N2264 0.984 . S
H2272 N2260 0.984 . S
H2273 N2260 0.985 . S
C2274 C2275 1.363 . S
C2274 C2280 1.379 1_554 S
C2274 N2282 1.356 . S
C2275 C2274 1.363 . S
C2275 C2281 1.363 . S
C2276 C2277 1.363 . S
C2276 C2281 1.379 1_556 S
C2276 N2283 1.356 . S
C2277 C2276 1.363 . S
C2277 C2280 1.363 . S
N2278 C2280 1.356 . S
N2278 H2290 0.984 . S
N2278 H2291 0.985 . S
N2279 C2281 1.356 . S
N2279 H2284 0.984 . S
N2279 H2285 0.985 . S
C2280 C2274 1.379 1_556 S
C2280 C2277 1.363 . S
C2280 N2278 1.356 . S
C2281 C2275 1.363 . S
C2281 C2276 1.379 1_554 S
C2281 N2279 1.356 . S
N2282 C2274 1.356 . S
N2282 H2288 0.984 . S
N2282 H2289 0.984 . S
N2283 C2276 1.356 . S
N2283 H2286 0.984 . S
N2283 H2287 0.985 . S
H2284 N2279 0.984 . S
H2285 N2279 0.985 . S
H2286 N2283 0.984 . S
H2287 N2283 0.985 . S
H2288 N2282 0.984 . S
H2289 N2282 0.984 . S
H2290 N2278 0.984 . S
H2291 N2278 0.985 . S
C2292 C2293 1.363 . S
C2292 C2298 1.379 1_554 S
C2292 N2300 1.356 . S
C2293 C2292 1.363 . S
C2293 C2299 1.363 . S
C2294 C2295 1.363 . S
C2294 C2299 1.379 1_556 S
C2294 N2301 1.356 . S
C2295 C2294 1.363 . S
C2295 C2298 1.363 . S
N2296 C2298 1.356 . S
N2296 H2308 0.984 . S
N2296 H2309 0.985 . S
N2297 C2299 1.356 . S
N2297 H2302 0.984 . S
N2297 H2303 0.985 . S
C2298 C2292 1.379 1_556 S
C2298 C2295 1.363 . S
C2298 N2296 1.356 . S
C2299 C2293 1.363 . S
C2299 C2294 1.379 1_554 S
C2299 N2297 1.356 . S
N2300 C2292 1.356 . S
N2300 H2306 0.984 . S
N2300 H2307 0.984 . S
N2301 C2294 1.356 . S
N2301 H2304 0.984 . S
N2301 H2305 0.985 . S
H2302 N2297 0.984 . S
H2303 N2297 0.985 . S
H2304 N2301 0.984 . S
H2305 N2301 0.985 . S
H2306 N2300 0.984 . S
H2307 N2300 0.984 . S
H2308 N2296 0.984 . S
H2309 N2296 0.985 . S
C2310 C2311 1.363 . S
C2310 C2316 1.379 1_556 S
C2310 N2318 1.356 . S
C2311 C2310 1.363 . S
C2311 C2317 1.363 . S
C2312 C2313 1.363 . S
C2312 C2317 1.379 1_554 S
C2312 N2319 1.356 . S
C2313 C2312 1.363 . S
C2313 C2316 1.363 . S
N2314 C2316 1.356 . S
N2314 H2326 0.984 . S
N2314 H2327 0.985 . S
N2315 C2317 1.356 . S
N2315 H2320 0.984 . S
N2315 H2321 0.985 . S
C2316 C2310 1.379 1_554 S
C2316 C2313 1.363 . S
C2316 N2314 1.356 . S
C2317 C2311 1.363 . S
C2317 C2312 1.379 1_556 S
C2317 N2315 1.356 . S
N2318 C2310 1.356 . S
N2318 H2324 0.984 . S
N2318 H2325 0.984 . S
N2319 C2312 1.356 . S
N2319 H2322 0.984 . S
N2319 H2323 0.985 . S
H2320 N2315 0.984 . S
H2321 N2315 0.985 . S
H2322 N2319 0.984 . S
H2323 N2319 0.985 . S
H2324 N2318 0.984 . S
H2325 N2318 0.984 . S
H2326 N2314 0.984 . S
H2327 N2314 0.985 . S
C2328 C2329 1.363 . S
C2328 C2334 1.379 . S
C2328 N2336 1.356 . S
C2329 C2328 1.363 . S
C2329 C2335 1.363 . S
C2330 C2331 1.363 . S
C2330 C2335 1.379 . S
C2330 N2337 1.356 . S
C2331 C2330 1.363 . S
C2331 C2334 1.363 . S
N2332 C2334 1.356 . S
N2332 H2344 0.984 . S
N2332 H2345 0.985 . S
N2333 C2335 1.356 . S
N2333 H2338 0.984 . S
N2333 H2339 0.985 . S
C2334 C2328 1.379 . S
C2334 C2331 1.363 . S
C2334 N2332 1.356 . S
C2335 C2329 1.363 . S
C2335 C2330 1.379 . S
C2335 N2333 1.356 . S
N2336 C2328 1.356 . S
N2336 H2342 0.984 . S
N2336 H2343 0.984 . S
N2337 C2330 1.356 . S
N2337 H2340 0.984 . S
N2337 H2341 0.985 . S
H2338 N2333 0.984 . S
H2339 N2333 0.985 . S
H2340 N2337 0.984 . S
H2341 N2337 0.985 . S
H2342 N2336 0.984 . S
H2343 N2336 0.984 . S
H2344 N2332 0.984 . S
H2345 N2332 0.985 . S
C2346 C2347 1.363 . S
C2346 C2352 1.379 . S
C2346 N2354 1.356 . S
C2347 C2346 1.363 . S
C2347 C2353 1.363 . S
C2348 C2349 1.363 . S
C2348 C2353 1.379 . S
C2348 N2355 1.356 . S
C2349 C2348 1.363 . S
C2349 C2352 1.363 . S
N2350 C2352 1.356 . S
N2350 H2362 0.984 . S
N2350 H2363 0.985 . S
N2351 C2353 1.356 . S
N2351 H2356 0.984 . S
N2351 H2357 0.985 . S
C2352 C2346 1.379 . S
C2352 C2349 1.363 . S
C2352 N2350 1.356 . S
C2353 C2347 1.363 . S
C2353 C2348 1.379 . S
C2353 N2351 1.356 . S
N2354 C2346 1.356 . S
N2354 H2360 0.984 . S
N2354 H2361 0.984 . S
N2355 C2348 1.356 . S
N2355 H2358 0.984 . S
N2355 H2359 0.985 . S
H2356 N2351 0.984 . S
H2357 N2351 0.985 . S
H2358 N2355 0.984 . S
H2359 N2355 0.985 . S
H2360 N2354 0.984 . S
H2361 N2354 0.984 . S
H2362 N2350 0.984 . S
H2363 N2350 0.985 . S
C2364 C2365 1.363 . S
C2364 C2370 1.379 . S
C2364 N2372 1.356 . S
C2365 C2364 1.363 . S
C2365 C2371 1.363 . S
C2366 C2367 1.363 . S
C2366 C2371 1.379 . S
C2366 N2373 1.356 . S
C2367 C2366 1.363 . S
C2367 C2370 1.363 . S
N2368 C2370 1.356 . S
N2368 H2380 0.984 . S
N2368 H2381 0.985 . S
N2369 C2371 1.356 . S
N2369 H2374 0.984 . S
N2369 H2375 0.985 . S
C2370 C2364 1.379 . S
C2370 C2367 1.363 . S
C2370 N2368 1.356 . S
C2371 C2365 1.363 . S
C2371 C2366 1.379 . S
C2371 N2369 1.356 . S
N2372 C2364 1.356 . S
N2372 H2378 0.984 . S
N2372 H2379 0.984 . S
N2373 C2366 1.356 . S
N2373 H2376 0.984 . S
N2373 H2377 0.985 . S
H2374 N2369 0.984 . S
H2375 N2369 0.985 . S
H2376 N2373 0.984 . S
H2377 N2373 0.985 . S
H2378 N2372 0.984 . S
H2379 N2372 0.984 . S
H2380 N2368 0.984 . S
H2381 N2368 0.985 . S
C2382 C2383 1.363 . S
C2382 C2388 1.379 . S
C2382 N2390 1.356 . S
C2383 C2382 1.363 . S
C2383 C2389 1.363 . S
C2384 C2385 1.363 . S
C2384 C2389 1.379 . S
C2384 N2391 1.356 . S
C2385 C2384 1.363 . S
C2385 C2388 1.363 . S
N2386 C2388 1.356 . S
N2386 H2398 0.984 . S
N2386 H2399 0.985 . S
N2387 C2389 1.356 . S
N2387 H2392 0.984 . S
N2387 H2393 0.985 . S
C2388 C2382 1.379 . S
C2388 C2385 1.363 . S
C2388 N2386 1.356 . S
C2389 C2383 1.363 . S
C2389 C2384 1.379 . S
C2389 N2387 1.356 . S
N2390 C2382 1.356 . S
N2390 H2396 0.984 . S
N2390 H2397 0.984 . S
N2391 C2384 1.356 . S
N2391 H2394 0.984 . S
N2391 H2395 0.985 . S
H2392 N2387 0.984 . S
H2393 N2387 0.985 . S
H2394 N2391 0.984 . S
H2395 N2391 0.985 . S
H2396 N2390 0.984 . S
H2397 N2390 0.984 . S
H2398 N2386 0.984 . S
H2399 N2386 0.985 . S
C2400 C2401 1.363 . S
C2400 C2406 1.379 1_655 S
C2400 N2408 1.356 . S
C2401 C2400 1.363 . S
C2401 C2407 1.363 . S
C2402 C2403 1.363 . S
C2402 C2407 1.379 1_455 S
C2402 N2409 1.356 . S
C2403 C2402 1.363 . S
C2403 C2406 1.363 . S
N2404 C2406 1.356 . S
N2404 H2416 0.984 . S
N2404 H2417 0.985 . S
N2405 C2407 1.356 . S
N2405 H2410 0.984 . S
N2405 H2411 0.985 . S
C2406 C2400 1.379 1_455 S
C2406 C2403 1.363 . S
C2406 N2404 1.356 . S
C2407 C2401 1.363 . S
C2407 C2402 1.379 1_655 S
C2407 N2405 1.356 . S
N2408 C2400 1.356 . S
N2408 H2414 0.984 . S
N2408 H2415 0.984 . S
N2409 C2402 1.356 . S
N2409 H2412 0.984 . S
N2409 H2413 0.985 . S
H2410 N2405 0.984 . S
H2411 N2405 0.985 . S
H2412 N2409 0.984 . S
H2413 N2409 0.985 . S
H2414 N2408 0.984 . S
H2415 N2408 0.984 . S
H2416 N2404 0.984 . S
H2417 N2404 0.985 . S
C2418 C2419 1.363 . S
C2418 C2424 1.379 1_545 S
C2418 N2426 1.356 . S
C2419 C2418 1.363 . S
C2419 C2425 1.363 . S
C2420 C2421 1.363 . S
C2420 C2425 1.379 1_565 S
C2420 N2427 1.356 . S
C2421 C2420 1.363 . S
C2421 C2424 1.363 . S
N2422 C2424 1.356 . S
N2422 H2434 0.984 . S
N2422 H2435 0.985 . S
N2423 C2425 1.356 . S
N2423 H2428 0.984 . S
N2423 H2429 0.985 . S
C2424 C2418 1.379 1_565 S
C2424 C2421 1.363 . S
C2424 N2422 1.356 . S
C2425 C2419 1.363 . S
C2425 C2420 1.379 1_545 S
C2425 N2423 1.356 . S
N2426 C2418 1.356 . S
N2426 H2432 0.984 . S
N2426 H2433 0.984 . S
N2427 C2420 1.356 . S
N2427 H2430 0.984 . S
N2427 H2431 0.985 . S
H2428 N2423 0.984 . S
H2429 N2423 0.985 . S
H2430 N2427 0.984 . S
H2431 N2427 0.985 . S
H2432 N2426 0.984 . S
H2433 N2426 0.984 . S
H2434 N2422 0.984 . S
H2435 N2422 0.985 . S
C2436 C2437 1.363 . S
C2436 C2442 1.379 . S
C2436 N2444 1.356 . S
C2437 C2436 1.363 . S
C2437 C2443 1.363 . S
C2438 C2439 1.363 . S
C2438 C2443 1.379 . S
C2438 N2445 1.356 . S
C2439 C2438 1.363 . S
C2439 C2442 1.363 . S
N2440 C2442 1.356 . S
N2440 H2452 0.984 . S
N2440 H2453 0.985 . S
N2441 C2443 1.356 . S
N2441 H2446 0.984 . S
N2441 H2447 0.985 . S
C2442 C2436 1.379 . S
C2442 C2439 1.363 . S
C2442 N2440 1.356 . S
C2443 C2437 1.363 . S
C2443 C2438 1.379 . S
C2443 N2441 1.356 . S
N2444 C2436 1.356 . S
N2444 H2450 0.984 . S
N2444 H2451 0.984 . S
N2445 C2438 1.356 . S
N2445 H2448 0.984 . S
N2445 H2449 0.985 . S
H2446 N2441 0.984 . S
H2447 N2441 0.985 . S
H2448 N2445 0.984 . S
H2449 N2445 0.985 . S
H2450 N2444 0.984 . S
H2451 N2444 0.984 . S
H2452 N2440 0.984 . S
H2453 N2440 0.985 . S
C2454 C2455 1.363 . S
C2454 C2460 1.379 . S
C2454 N2462 1.356 . S
C2455 C2454 1.363 . S
C2455 C2461 1.363 . S
C2456 C2457 1.363 . S
C2456 C2461 1.379 . S
C2456 N2463 1.356 . S
C2457 C2456 1.363 . S
C2457 C2460 1.363 . S
N2458 C2460 1.356 . S
N2458 H2470 0.984 . S
N2458 H2471 0.985 . S
N2459 C2461 1.356 . S
N2459 H2464 0.984 . S
N2459 H2465 0.985 . S
C2460 C2454 1.379 . S
C2460 C2457 1.363 . S
C2460 N2458 1.356 . S
C2461 C2455 1.363 . S
C2461 C2456 1.379 . S
C2461 N2459 1.356 . S
N2462 C2454 1.356 . S
N2462 H2468 0.984 . S
N2462 H2469 0.984 . S
N2463 C2456 1.356 . S
N2463 H2466 0.984 . S
N2463 H2467 0.985 . S
H2464 N2459 0.984 . S
H2465 N2459 0.985 . S
H2466 N2463 0.984 . S
H2467 N2463 0.985 . S
H2468 N2462 0.984 . S
H2469 N2462 0.984 . S
H2470 N2458 0.984 . S
H2471 N2458 0.985 . S
C2472 C2473 1.363 . S
C2472 C2478 1.379 1_455 S
C2472 N2480 1.356 . S
C2473 C2472 1.363 . S
C2473 C2479 1.363 . S
C2474 C2475 1.363 . S
C2474 C2479 1.379 1_655 S
C2474 N2481 1.356 . S
C2475 C2474 1.363 . S
C2475 C2478 1.363 . S
N2476 C2478 1.356 . S
N2476 H2488 0.984 . S
N2476 H2489 0.985 . S
N2477 C2479 1.356 . S
N2477 H2482 0.984 . S
N2477 H2483 0.985 . S
C2478 C2472 1.379 1_655 S
C2478 C2475 1.363 . S
C2478 N2476 1.356 . S
C2479 C2473 1.363 . S
C2479 C2474 1.379 1_455 S
C2479 N2477 1.356 . S
N2480 C2472 1.356 . S
N2480 H2486 0.984 . S
N2480 H2487 0.984 . S
N2481 C2474 1.356 . S
N2481 H2484 0.984 . S
N2481 H2485 0.985 . S
H2482 N2477 0.984 . S
H2483 N2477 0.985 . S
H2484 N2481 0.984 . S
H2485 N2481 0.985 . S
H2486 N2480 0.984 . S
H2487 N2480 0.984 . S
H2488 N2476 0.984 . S
H2489 N2476 0.985 . S
C2490 C2491 1.363 . S
C2490 C2496 1.379 1_565 S
C2490 N2498 1.356 . S
C2491 C2490 1.363 . S
C2491 C2497 1.363 . S
C2492 C2493 1.363 . S
C2492 C2497 1.379 1_545 S
C2492 N2499 1.356 . S
C2493 C2492 1.363 . S
C2493 C2496 1.363 . S
N2494 C2496 1.356 . S
N2494 H2506 0.984 . S
N2494 H2507 0.985 . S
N2495 C2497 1.356 . S
N2495 H2500 0.984 . S
N2495 H2501 0.985 . S
C2496 C2490 1.379 1_545 S
C2496 C2493 1.363 . S
C2496 N2494 1.356 . S
C2497 C2491 1.363 . S
C2497 C2492 1.379 1_565 S
C2497 N2495 1.356 . S
N2498 C2490 1.356 . S
N2498 H2504 0.984 . S
N2498 H2505 0.984 . S
N2499 C2492 1.356 . S
N2499 H2502 0.984 . S
N2499 H2503 0.985 . S
H2500 N2495 0.984 . S
H2501 N2495 0.985 . S
H2502 N2499 0.984 . S
H2503 N2499 0.985 . S
H2504 N2498 0.984 . S
H2505 N2498 0.984 . S
H2506 N2494 0.984 . S
H2507 N2494 0.985 . S
C2508 C2509 1.363 . S
C2508 C2514 1.379 . S
C2508 N2516 1.356 . S
C2509 C2508 1.363 . S
C2509 C2515 1.363 . S
C2510 C2511 1.363 . S
C2510 C2515 1.379 . S
C2510 N2517 1.356 . S
C2511 C2510 1.363 . S
C2511 C2514 1.363 . S
N2512 C2514 1.356 . S
N2512 H2524 0.984 . S
N2512 H2525 0.985 . S
N2513 C2515 1.356 . S
N2513 H2518 0.984 . S
N2513 H2519 0.985 . S
C2514 C2508 1.379 . S
C2514 C2511 1.363 . S
C2514 N2512 1.356 . S
C2515 C2509 1.363 . S
C2515 C2510 1.379 . S
C2515 N2513 1.356 . S
N2516 C2508 1.356 . S
N2516 H2522 0.984 . S
N2516 H2523 0.984 . S
N2517 C2510 1.356 . S
N2517 H2520 0.984 . S
N2517 H2521 0.985 . S
H2518 N2513 0.984 . S
H2519 N2513 0.985 . S
H2520 N2517 0.984 . S
H2521 N2517 0.985 . S
H2522 N2516 0.984 . S
H2523 N2516 0.984 . S
H2524 N2512 0.984 . S
H2525 N2512 0.985 . S
C2526 C2527 1.363 . S
C2526 C2532 1.379 . S
C2526 N2534 1.356 . S
C2527 C2526 1.363 . S
C2527 C2533 1.363 . S
C2528 C2529 1.363 . S
C2528 C2533 1.379 . S
C2528 N2535 1.356 . S
C2529 C2528 1.363 . S
C2529 C2532 1.363 . S
N2530 C2532 1.356 . S
N2530 H2542 0.984 . S
N2530 H2543 0.985 . S
N2531 C2533 1.356 . S
N2531 H2536 0.984 . S
N2531 H2537 0.985 . S
C2532 C2526 1.379 . S
C2532 C2529 1.363 . S
C2532 N2530 1.356 . S
C2533 C2527 1.363 . S
C2533 C2528 1.379 . S
C2533 N2531 1.356 . S
N2534 C2526 1.356 . S
N2534 H2540 0.984 . S
N2534 H2541 0.984 . S
N2535 C2528 1.356 . S
N2535 H2538 0.984 . S
N2535 H2539 0.985 . S
H2536 N2531 0.984 . S
H2537 N2531 0.985 . S
H2538 N2535 0.984 . S
H2539 N2535 0.985 . S
H2540 N2534 0.984 . S
H2541 N2534 0.984 . S
H2542 N2530 0.984 . S
H2543 N2530 0.985 . S
C2544 C2545 1.363 . S
C2544 C2550 1.379 1_565 S
C2544 N2552 1.356 . S
C2545 C2544 1.363 . S
C2545 C2551 1.363 . S
C2546 C2547 1.395 . S
C2546 C2551 1.331 1_545 S
C2546 N2553 1.386 . S
C2547 C2546 1.395 . S
C2547 C2550 1.363 . S
N2548 C2550 1.356 . S
N2548 H2560 0.984 . S
N2548 H2561 0.985 . S
N2549 C2551 1.356 . S
N2549 H2554 0.984 . S
N2549 H2555 0.985 . S
C2550 C2544 1.379 1_545 S
C2550 C2547 1.363 . S
C2550 N2548 1.356 . S
C2551 C2545 1.363 . S
C2551 C2546 1.331 1_565 S
C2551 N2549 1.356 . S
N2552 C2544 1.356 . S
N2552 H2558 0.984 . S
N2552 H2559 0.984 . S
N2553 C2546 1.386 . S
N2553 H2556 0.984 . S
N2553 H2557 0.985 . S
H2554 N2549 0.984 . S
H2555 N2549 0.985 . S
H2556 N2553 0.984 . S
H2557 N2553 0.985 . S
H2558 N2552 0.984 . S
H2559 N2552 0.984 . S
H2560 N2548 0.984 . S
H2561 N2548 0.985 . S
C2562 C2563 1.363 . S
C2562 C2568 1.379 . S
C2562 N2570 1.356 . S
C2563 C2562 1.363 . S
C2563 C2569 1.363 . S
C2564 C2565 1.363 . S
C2564 C2569 1.379 . S
C2564 N2571 1.356 . S
C2565 C2564 1.363 . S
C2565 C2568 1.363 . S
N2566 C2568 1.356 . S
N2566 H2578 0.984 . S
N2566 H2579 0.985 . S
N2567 C2569 1.356 . S
N2567 H2572 0.984 . S
N2567 H2573 0.985 . S
C2568 C2562 1.379 . S
C2568 C2565 1.363 . S
C2568 N2566 1.356 . S
C2569 C2563 1.363 . S
C2569 C2564 1.379 . S
C2569 N2567 1.356 . S
N2570 C2562 1.356 . S
N2570 H2576 0.984 . S
N2570 H2577 0.984 . S
N2571 C2564 1.356 . S
N2571 H2574 0.984 . S
N2571 H2575 0.985 . S
H2572 N2567 0.984 . S
H2573 N2567 0.985 . S
H2574 N2571 0.984 . S
H2575 N2571 0.985 . S
H2576 N2570 0.984 . S
H2577 N2570 0.984 . S
H2578 N2566 0.984 . S
H2579 N2566 0.985 . S
C2580 C2581 1.363 . S
C2580 C2586 1.379 1_655 S
C2580 N2588 1.356 . S
C2581 C2580 1.363 . S
C2581 C2587 1.363 . S
C2582 C2583 1.363 . S
C2582 C2587 1.379 1_455 S
C2582 N2589 1.356 . S
C2583 C2582 1.363 . S
C2583 C2586 1.363 . S
N2584 C2586 1.356 . S
N2584 H2596 0.984 . S
N2584 H2597 0.985 . S
N2585 C2587 1.356 . S
N2585 H2590 0.984 . S
N2585 H2591 0.985 . S
C2586 C2580 1.379 1_455 S
C2586 C2583 1.363 . S
C2586 N2584 1.356 . S
C2587 C2581 1.363 . S
C2587 C2582 1.379 1_655 S
C2587 N2585 1.356 . S
N2588 C2580 1.356 . S
N2588 H2594 0.984 . S
N2588 H2595 0.984 . S
N2589 C2582 1.356 . S
N2589 H2592 0.984 . S
N2589 H2593 0.985 . S
H2590 N2585 0.984 . S
H2591 N2585 0.985 . S
H2592 N2589 0.984 . S
H2593 N2589 0.985 . S
H2594 N2588 0.984 . S
H2595 N2588 0.984 . S
H2596 N2584 0.984 . S
H2597 N2584 0.985 . S
C2598 C2599 1.363 . S
C2598 C2604 1.379 1_545 S
C2598 N2606 1.356 . S
C2599 C2598 1.363 . S
C2599 C2605 1.363 . S
C2600 C2601 1.363 . S
C2600 C2605 1.379 1_565 S
C2600 N2607 1.356 . S
C2601 C2600 1.363 . S
C2601 C2604 1.363 . S
N2602 C2604 1.356 . S
N2602 H2614 0.984 . S
N2602 H2615 0.985 . S
N2603 C2605 1.356 . S
N2603 H2608 0.984 . S
N2603 H2609 0.985 . S
C2604 C2598 1.379 1_565 S
C2604 C2601 1.363 . S
C2604 N2602 1.356 . S
C2605 C2599 1.363 . S
C2605 C2600 1.379 1_545 S
C2605 N2603 1.356 . S
N2606 C2598 1.356 . S
N2606 H2612 0.984 . S
N2606 H2613 0.984 . S
N2607 C2600 1.356 . S
N2607 H2610 0.984 . S
N2607 H2611 0.985 . S
H2608 N2603 0.984 . S
H2609 N2603 0.985 . S
H2610 N2607 0.984 . S
H2611 N2607 0.985 . S
H2612 N2606 0.984 . S
H2613 N2606 0.984 . S
H2614 N2602 0.984 . S
H2615 N2602 0.985 . S
C2616 C2617 1.363 . S
C2616 C2622 1.379 . S
C2616 N2624 1.356 . S
C2617 C2616 1.363 . S
C2617 C2623 1.363 . S
C2618 C2619 1.363 . S
C2618 C2623 1.379 . S
C2618 N2625 1.356 . S
C2619 C2618 1.363 . S
C2619 C2622 1.363 . S
N2620 C2622 1.356 . S
N2620 H2632 0.984 . S
N2620 H2633 0.985 . S
N2621 C2623 1.356 . S
N2621 H2626 0.984 . S
N2621 H2627 0.985 . S
C2622 C2616 1.379 . S
C2622 C2619 1.363 . S
C2622 N2620 1.356 . S
C2623 C2617 1.363 . S
C2623 C2618 1.379 . S
C2623 N2621 1.356 . S
N2624 C2616 1.356 . S
N2624 H2630 0.984 . S
N2624 H2631 0.984 . S
N2625 C2618 1.356 . S
N2625 H2628 0.984 . S
N2625 H2629 0.985 . S
H2626 N2621 0.984 . S
H2627 N2621 0.985 . S
H2628 N2625 0.984 . S
H2629 N2625 0.985 . S
H2630 N2624 0.984 . S
H2631 N2624 0.984 . S
H2632 N2620 0.984 . S
H2633 N2620 0.985 . S
C2634 C2635 1.363 . S
C2634 C2640 1.379 . S
C2634 N2642 1.356 . S
C2635 C2634 1.363 . S
C2635 C2641 1.363 . S
C2636 C2637 1.363 . S
C2636 C2641 1.379 . S
C2636 N2643 1.356 . S
C2637 C2636 1.363 . S
C2637 C2640 1.363 . S
N2638 C2640 1.356 . S
N2638 H2650 0.984 . S
N2638 H2651 0.985 . S
N2639 C2641 1.356 . S
N2639 H2644 0.984 . S
N2639 H2645 0.985 . S
C2640 C2634 1.379 . S
C2640 C2637 1.363 . S
C2640 N2638 1.356 . S
C2641 C2635 1.363 . S
C2641 C2636 1.379 . S
C2641 N2639 1.356 . S
N2642 C2634 1.356 . S
N2642 H2648 0.984 . S
N2642 H2649 0.984 . S
N2643 C2636 1.356 . S
N2643 H2646 0.984 . S
N2643 H2647 0.985 . S
H2644 N2639 0.984 . S
H2645 N2639 0.985 . S
H2646 N2643 0.984 . S
H2647 N2643 0.985 . S
H2648 N2642 0.984 . S
H2649 N2642 0.984 . S
H2650 N2638 0.984 . S
H2651 N2638 0.985 . S
C2652 C2653 1.363 . S
C2652 C2658 1.379 1_455 S
C2652 N2660 1.356 . S
C2653 C2652 1.363 . S
C2653 C2659 1.363 . S
C2654 C2655 1.363 . S
C2654 C2659 1.379 1_655 S
C2654 N2661 1.356 . S
C2655 C2654 1.363 . S
C2655 C2658 1.363 . S
N2656 C2658 1.356 . S
N2656 H2668 0.984 . S
N2656 H2669 0.985 . S
N2657 C2659 1.356 . S
N2657 H2662 0.984 . S
N2657 H2663 0.985 . S
C2658 C2652 1.379 1_655 S
C2658 C2655 1.363 . S
C2658 N2656 1.356 . S
C2659 C2653 1.363 . S
C2659 C2654 1.379 1_455 S
C2659 N2657 1.356 . S
N2660 C2652 1.356 . S
N2660 H2666 0.984 . S
N2660 H2667 0.984 . S
N2661 C2654 1.356 . S
N2661 H2664 0.984 . S
N2661 H2665 0.985 . S
H2662 N2657 0.984 . S
H2663 N2657 0.985 . S
H2664 N2661 0.984 . S
H2665 N2661 0.985 . S
H2666 N2660 0.984 . S
H2667 N2660 0.984 . S
H2668 N2656 0.984 . S
H2669 N2656 0.985 . S
C2670 C2671 1.363 . S
C2670 C2676 1.379 . S
C2670 N2678 1.356 . S
C2671 C2670 1.363 . S
C2671 C2677 1.363 . S
C2672 C2673 1.363 . S
C2672 C2677 1.379 . S
C2672 N2679 1.356 . S
C2673 C2672 1.363 . S
C2673 C2676 1.363 . S
N2674 C2676 1.356 . S
N2674 H2686 0.984 . S
N2674 H2687 0.985 . S
N2675 C2677 1.356 . S
N2675 H2680 0.984 . S
N2675 H2681 0.985 . S
C2676 C2670 1.379 . S
C2676 C2673 1.363 . S
C2676 N2674 1.356 . S
C2677 C2671 1.363 . S
C2677 C2672 1.379 . S
C2677 N2675 1.356 . S
N2678 C2670 1.356 . S
N2678 H2684 0.984 . S
N2678 H2685 0.984 . S
N2679 C2672 1.356 . S
N2679 H2682 0.984 . S
N2679 H2683 0.985 . S
H2680 N2675 0.984 . S
H2681 N2675 0.985 . S
H2682 N2679 0.984 . S
H2683 N2679 0.985 . S
H2684 N2678 0.984 . S
H2685 N2678 0.984 . S
H2686 N2674 0.984 . S
H2687 N2674 0.985 . S
C2688 C2689 1.363 . S
C2688 C2694 1.379 . S
C2688 N2696 1.356 . S
C2689 C2688 1.363 . S
C2689 C2695 1.363 . S
C2690 C2691 1.363 . S
C2690 C2695 1.379 . S
C2690 N2697 1.356 . S
C2691 C2690 1.363 . S
C2691 C2694 1.363 . S
N2692 C2694 1.356 . S
N2692 H2704 0.984 . S
N2692 H2705 0.985 . S
N2693 C2695 1.356 . S
N2693 H2698 0.984 . S
N2693 H2699 0.985 . S
C2694 C2688 1.379 . S
C2694 C2691 1.363 . S
C2694 N2692 1.356 . S
C2695 C2689 1.363 . S
C2695 C2690 1.379 . S
C2695 N2693 1.356 . S
N2696 C2688 1.356 . S
N2696 H2702 0.984 . S
N2696 H2703 0.984 . S
N2697 C2690 1.356 . S
N2697 H2700 0.984 . S
N2697 H2701 0.985 . S
H2698 N2693 0.984 . S
H2699 N2693 0.985 . S
H2700 N2697 0.984 . S
H2701 N2697 0.985 . S
H2702 N2696 0.984 . S
H2703 N2696 0.984 . S
H2704 N2692 0.984 . S
H2705 N2692 0.985 . S
C2706 C2707 1.363 . S
C2706 C2712 1.379 . S
C2706 N2714 1.356 . S
C2707 C2706 1.363 . S
C2707 C2713 1.363 . S
C2708 C2709 1.363 . S
C2708 C2713 1.379 . S
C2708 N2715 1.356 . S
C2709 C2708 1.363 . S
C2709 C2712 1.363 . S
N2710 C2712 1.356 . S
N2710 H2722 0.984 . S
N2710 H2723 0.985 . S
N2711 C2713 1.356 . S
N2711 H2716 0.984 . S
N2711 H2717 0.985 . S
C2712 C2706 1.379 . S
C2712 C2709 1.363 . S
C2712 N2710 1.356 . S
C2713 C2707 1.363 . S
C2713 C2708 1.379 . S
C2713 N2711 1.356 . S
N2714 C2706 1.356 . S
N2714 H2720 0.984 . S
N2714 H2721 0.984 . S
N2715 C2708 1.356 . S
N2715 H2718 0.984 . S
N2715 H2719 0.985 . S
H2716 N2711 0.984 . S
H2717 N2711 0.985 . S
H2718 N2715 0.984 . S
H2719 N2715 0.985 . S
H2720 N2714 0.984 . S
H2721 N2714 0.984 . S
H2722 N2710 0.984 . S
H2723 N2710 0.985 . S
C2724 C2725 1.363 . S
C2724 C2730 1.379 . S
C2724 N2732 1.356 . S
C2725 C2724 1.363 . S
C2725 C2731 1.363 . S
C2726 C2727 1.363 . S
C2726 C2731 1.379 . S
C2726 N2733 1.356 . S
C2727 C2726 1.363 . S
C2727 C2730 1.363 . S
N2728 C2730 1.356 . S
N2728 H2740 0.984 . S
N2728 H2741 0.985 . S
N2729 C2731 1.356 . S
N2729 H2734 0.984 . S
N2729 H2735 0.985 . S
C2730 C2724 1.379 . S
C2730 C2727 1.363 . S
C2730 N2728 1.356 . S
C2731 C2725 1.363 . S
C2731 C2726 1.379 . S
C2731 N2729 1.356 . S
N2732 C2724 1.356 . S
N2732 H2738 0.984 . S
N2732 H2739 0.984 . S
N2733 C2726 1.356 . S
N2733 H2736 0.984 . S
N2733 H2737 0.985 . S
H2734 N2729 0.984 . S
H2735 N2729 0.985 . S
H2736 N2733 0.984 . S
H2737 N2733 0.985 . S
H2738 N2732 0.984 . S
H2739 N2732 0.984 . S
H2740 N2728 0.984 . S
H2741 N2728 0.985 . S
C2742 C2743 1.363 . S
C2742 C2748 1.379 . S
C2742 N2750 1.356 . S
C2743 C2742 1.363 . S
C2743 C2749 1.363 . S
C2744 C2745 1.363 . S
C2744 C2749 1.379 . S
C2744 N2751 1.356 . S
C2745 C2744 1.363 . S
C2745 C2748 1.363 . S
N2746 C2748 1.356 . S
N2746 H2758 0.984 . S
N2746 H2759 0.985 . S
N2747 C2749 1.356 . S
N2747 H2752 0.984 . S
N2747 H2753 0.985 . S
C2748 C2742 1.379 . S
C2748 C2745 1.363 . S
C2748 N2746 1.356 . S
C2749 C2743 1.363 . S
C2749 C2744 1.379 . S
C2749 N2747 1.356 . S
N2750 C2742 1.356 . S
N2750 H2756 0.984 . S
N2750 H2757 0.984 . S
N2751 C2744 1.356 . S
N2751 H2754 0.984 . S
N2751 H2755 0.985 . S
H2752 N2747 0.984 . S
H2753 N2747 0.985 . S
H2754 N2751 0.984 . S
H2755 N2751 0.985 . S
H2756 N2750 0.984 . S
H2757 N2750 0.984 . S
H2758 N2746 0.984 . S
H2759 N2746 0.985 . S
C2760 C2761 1.363 . S
C2760 C2766 1.379 . S
C2760 N2768 1.356 . S
C2761 C2760 1.363 . S
C2761 C2767 1.363 . S
C2762 C2763 1.363 . S
C2762 C2767 1.379 . S
C2762 N2769 1.356 . S
C2763 C2762 1.363 . S
C2763 C2766 1.363 . S
N2764 C2766 1.356 . S
N2764 H2776 0.984 . S
N2764 H2777 0.985 . S
N2765 C2767 1.356 . S
N2765 H2770 0.984 . S
N2765 H2771 0.985 . S
C2766 C2760 1.379 . S
C2766 C2763 1.363 . S
C2766 N2764 1.356 . S
C2767 C2761 1.363 . S
C2767 C2762 1.379 . S
C2767 N2765 1.356 . S
N2768 C2760 1.356 . S
N2768 H2774 0.984 . S
N2768 H2775 0.984 . S
N2769 C2762 1.356 . S
N2769 H2772 0.984 . S
N2769 H2773 0.985 . S
H2770 N2765 0.984 . S
H2771 N2765 0.985 . S
H2772 N2769 0.984 . S
H2773 N2769 0.985 . S
H2774 N2768 0.984 . S
H2775 N2768 0.984 . S
H2776 N2764 0.984 . S
H2777 N2764 0.985 . S
C2778 C2779 1.363 . S
C2778 C2784 1.379 . S
C2778 N2786 1.356 . S
C2779 C2778 1.363 . S
C2779 C2785 1.363 . S
C2780 C2781 1.363 . S
C2780 C2785 1.379 . S
C2780 N2787 1.356 . S
C2781 C2780 1.363 . S
C2781 C2784 1.363 . S
N2782 C2784 1.356 . S
N2782 H2794 0.984 . S
N2782 H2795 0.985 . S
N2783 C2785 1.356 . S
N2783 H2788 0.984 . S
N2783 H2789 0.985 . S
C2784 C2778 1.379 . S
C2784 C2781 1.363 . S
C2784 N2782 1.356 . S
C2785 C2779 1.363 . S
C2785 C2780 1.379 . S
C2785 N2783 1.356 . S
N2786 C2778 1.356 . S
N2786 H2792 0.984 . S
N2786 H2793 0.984 . S
N2787 C2780 1.356 . S
N2787 H2790 0.984 . S
N2787 H2791 0.985 . S
H2788 N2783 0.984 . S
H2789 N2783 0.985 . S
H2790 N2787 0.984 . S
H2791 N2787 0.985 . S
H2792 N2786 0.984 . S
H2793 N2786 0.984 . S
H2794 N2782 0.984 . S
H2795 N2782 0.985 . S
C2796 C2797 1.363 . S
C2796 C2802 1.379 . S
C2796 N2804 1.356 . S
C2797 C2796 1.363 . S
C2797 C2803 1.363 . S
C2798 C2799 1.363 . S
C2798 C2803 1.379 . S
C2798 N2805 1.356 . S
C2799 C2798 1.363 . S
C2799 C2802 1.363 . S
N2800 C2802 1.356 . S
N2800 H2812 0.984 . S
N2800 H2813 0.985 . S
N2801 C2803 1.356 . S
N2801 H2806 0.984 . S
N2801 H2807 0.985 . S
C2802 C2796 1.379 . S
C2802 C2799 1.363 . S
C2802 N2800 1.356 . S
C2803 C2797 1.363 . S
C2803 C2798 1.379 . S
C2803 N2801 1.356 . S
N2804 C2796 1.356 . S
N2804 H2810 0.984 . S
N2804 H2811 0.984 . S
N2805 C2798 1.356 . S
N2805 H2808 0.984 . S
N2805 H2809 0.985 . S
H2806 N2801 0.984 . S
H2807 N2801 0.985 . S
H2808 N2805 0.984 . S
H2809 N2805 0.985 . S
H2810 N2804 0.984 . S
H2811 N2804 0.984 . S
H2812 N2800 0.984 . S
H2813 N2800 0.985 . S
C2814 C2815 1.363 . S
C2814 C2820 1.379 . S
C2814 N2822 1.356 . S
C2815 C2814 1.363 . S
C2815 C2821 1.363 . S
C2816 C2817 1.363 . S
C2816 C2821 1.379 . S
C2816 N2823 1.356 . S
C2817 C2816 1.363 . S
C2817 C2820 1.363 . S
N2818 C2820 1.356 . S
N2818 H2830 0.984 . S
N2818 H2831 0.985 . S
N2819 C2821 1.356 . S
N2819 H2824 0.984 . S
N2819 H2825 0.985 . S
C2820 C2814 1.379 . S
C2820 C2817 1.363 . S
C2820 N2818 1.356 . S
C2821 C2815 1.363 . S
C2821 C2816 1.379 . S
C2821 N2819 1.356 . S
N2822 C2814 1.356 . S
N2822 H2828 0.984 . S
N2822 H2829 0.984 . S
N2823 C2816 1.356 . S
N2823 H2826 0.984 . S
N2823 H2827 0.985 . S
H2824 N2819 0.984 . S
H2825 N2819 0.985 . S
H2826 N2823 0.984 . S
H2827 N2823 0.985 . S
H2828 N2822 0.984 . S
H2829 N2822 0.984 . S
H2830 N2818 0.984 . S
H2831 N2818 0.985 . S
C2832 C2833 1.363 . S
C2832 C2838 1.379 . S
C2832 N2840 1.356 . S
C2833 C2832 1.363 . S
C2833 C2839 1.363 . S
C2834 C2835 1.363 . S
C2834 C2839 1.379 . S
C2834 N2841 1.356 . S
C2835 C2834 1.363 . S
C2835 C2838 1.363 . S
N2836 C2838 1.356 . S
N2836 H2848 0.984 . S
N2836 H2849 0.985 . S
N2837 C2839 1.356 . S
N2837 H2842 0.984 . S
N2837 H2843 0.985 . S
C2838 C2832 1.379 . S
C2838 C2835 1.363 . S
C2838 N2836 1.356 . S
C2839 C2833 1.363 . S
C2839 C2834 1.379 . S
C2839 N2837 1.356 . S
N2840 C2832 1.356 . S
N2840 H2846 0.984 . S
N2840 H2847 0.984 . S
N2841 C2834 1.356 . S
N2841 H2844 0.984 . S
N2841 H2845 0.985 . S
H2842 N2837 0.984 . S
H2843 N2837 0.985 . S
H2844 N2841 0.984 . S
H2845 N2841 0.985 . S
H2846 N2840 0.984 . S
H2847 N2840 0.984 . S
H2848 N2836 0.984 . S
H2849 N2836 0.985 . S
C2850 C2851 1.363 . S
C2850 C2856 1.379 . S
C2850 N2858 1.356 . S
C2851 C2850 1.363 . S
C2851 C2857 1.363 . S
C2852 C2853 1.363 . S
C2852 C2857 1.379 . S
C2852 N2859 1.356 . S
C2853 C2852 1.363 . S
C2853 C2856 1.363 . S
N2854 C2856 1.356 . S
N2854 H2866 0.984 . S
N2854 H2867 0.985 . S
N2855 C2857 1.356 . S
N2855 H2860 0.984 . S
N2855 H2861 0.985 . S
C2856 C2850 1.379 . S
C2856 C2853 1.363 . S
C2856 N2854 1.356 . S
C2857 C2851 1.363 . S
C2857 C2852 1.379 . S
C2857 N2855 1.356 . S
N2858 C2850 1.356 . S
N2858 H2864 0.984 . S
N2858 H2865 0.984 . S
N2859 C2852 1.356 . S
N2859 H2862 0.984 . S
N2859 H2863 0.985 . S
H2860 N2855 0.984 . S
H2861 N2855 0.985 . S
H2862 N2859 0.984 . S
H2863 N2859 0.985 . S
H2864 N2858 0.984 . S
H2865 N2858 0.984 . S
H2866 N2854 0.984 . S
H2867 N2854 0.985 . S
C2868 C2869 1.363 . S
C2868 C2874 1.379 . S
C2868 N2876 1.356 . S
C2869 C2868 1.363 . S
C2869 C2875 1.363 . S
C2870 C2871 1.363 . S
C2870 C2875 1.379 . S
C2870 N2877 1.356 . S
C2871 C2870 1.363 . S
C2871 C2874 1.363 . S
N2872 C2874 1.356 . S
N2872 H2884 0.984 . S
N2872 H2885 0.985 . S
N2873 C2875 1.356 . S
N2873 H2878 0.984 . S
N2873 H2879 0.985 . S
C2874 C2868 1.379 . S
C2874 C2871 1.363 . S
C2874 N2872 1.356 . S
C2875 C2869 1.363 . S
C2875 C2870 1.379 . S
C2875 N2873 1.356 . S
N2876 C2868 1.356 . S
N2876 H2882 0.984 . S
N2876 H2883 0.984 . S
N2877 C2870 1.356 . S
N2877 H2880 0.984 . S
N2877 H2881 0.985 . S
H2878 N2873 0.984 . S
H2879 N2873 0.985 . S
H2880 N2877 0.984 . S
H2881 N2877 0.985 . S
H2882 N2876 0.984 . S
H2883 N2876 0.984 . S
H2884 N2872 0.984 . S
H2885 N2872 0.985 . S
C2886 C2887 1.363 . S
C2886 C2892 1.379 . S
C2886 N2894 1.356 . S
C2887 C2886 1.363 . S
C2887 C2893 1.363 . S
C2888 C2889 1.363 . S
C2888 C2893 1.379 . S
C2888 N2895 1.356 . S
C2889 C2888 1.363 . S
C2889 C2892 1.363 . S
N2890 C2892 1.356 . S
N2890 H2902 0.984 . S
N2890 H2903 0.985 . S
N2891 C2893 1.356 . S
N2891 H2896 0.984 . S
N2891 H2897 0.985 . S
C2892 C2886 1.379 . S
C2892 C2889 1.363 . S
C2892 N2890 1.356 . S
C2893 C2887 1.363 . S
C2893 C2888 1.379 . S
C2893 N2891 1.356 . S
N2894 C2886 1.356 . S
N2894 H2900 0.984 . S
N2894 H2901 0.984 . S
N2895 C2888 1.356 . S
N2895 H2898 0.984 . S
N2895 H2899 0.985 . S
H2896 N2891 0.984 . S
H2897 N2891 0.985 . S
H2898 N2895 0.984 . S
H2899 N2895 0.985 . S
H2900 N2894 0.984 . S
H2901 N2894 0.984 . S
H2902 N2890 0.984 . S
H2903 N2890 0.985 . S
C2904 C2905 1.363 . S
C2904 C2910 1.379 . S
C2904 N2912 1.356 . S
C2905 C2904 1.363 . S
C2905 C2911 1.363 . S
C2906 C2907 1.363 . S
C2906 C2911 1.379 . S
C2906 N2913 1.356 . S
C2907 C2906 1.363 . S
C2907 C2910 1.363 . S
N2908 C2910 1.356 . S
N2908 H2920 0.984 . S
N2908 H2921 0.985 . S
N2909 C2911 1.356 . S
N2909 H2914 0.984 . S
N2909 H2915 0.985 . S
C2910 C2904 1.379 . S
C2910 C2907 1.363 . S
C2910 N2908 1.356 . S
C2911 C2905 1.363 . S
C2911 C2906 1.379 . S
C2911 N2909 1.356 . S
N2912 C2904 1.356 . S
N2912 H2918 0.984 . S
N2912 H2919 0.984 . S
N2913 C2906 1.356 . S
N2913 H2916 0.984 . S
N2913 H2917 0.985 . S
H2914 N2909 0.984 . S
H2915 N2909 0.985 . S
H2916 N2913 0.984 . S
H2917 N2913 0.985 . S
H2918 N2912 0.984 . S
H2919 N2912 0.984 . S
H2920 N2908 0.984 . S
H2921 N2908 0.985 . S
C2922 C2923 1.363 . S
C2922 C2928 1.379 . S
C2922 N2930 1.356 . S
C2923 C2922 1.363 . S
C2923 C2929 1.363 . S
C2924 C2925 1.363 . S
C2924 C2929 1.379 . S
C2924 N2931 1.356 . S
C2925 C2924 1.363 . S
C2925 C2928 1.363 . S
N2926 C2928 1.356 . S
N2926 H2938 0.984 . S
N2926 H2939 0.985 . S
N2927 C2929 1.356 . S
N2927 H2932 0.984 . S
N2927 H2933 0.985 . S
C2928 C2922 1.379 . S
C2928 C2925 1.363 . S
C2928 N2926 1.356 . S
C2929 C2923 1.363 . S
C2929 C2924 1.379 . S
C2929 N2927 1.356 . S
N2930 C2922 1.356 . S
N2930 H2936 0.984 . S
N2930 H2937 0.984 . S
N2931 C2924 1.356 . S
N2931 H2934 0.984 . S
N2931 H2935 0.985 . S
H2932 N2927 0.984 . S
H2933 N2927 0.985 . S
H2934 N2931 0.984 . S
H2935 N2931 0.985 . S
H2936 N2930 0.984 . S
H2937 N2930 0.984 . S
H2938 N2926 0.984 . S
H2939 N2926 0.985 . S
C2940 C2941 1.363 . S
C2940 C2946 1.379 . S
C2940 N2948 1.356 . S
C2941 C2940 1.363 . S
C2941 C2947 1.363 . S
C2942 C2943 1.363 . S
C2942 C2947 1.379 . S
C2942 N2949 1.356 . S
C2943 C2942 1.363 . S
C2943 C2946 1.363 . S
N2944 C2946 1.356 . S
N2944 H2956 0.984 . S
N2944 H2957 0.985 . S
N2945 C2947 1.356 . S
N2945 H2950 0.984 . S
N2945 H2951 0.985 . S
C2946 C2940 1.379 . S
C2946 C2943 1.363 . S
C2946 N2944 1.356 . S
C2947 C2941 1.363 . S
C2947 C2942 1.379 . S
C2947 N2945 1.356 . S
N2948 C2940 1.356 . S
N2948 H2954 0.984 . S
N2948 H2955 0.984 . S
N2949 C2942 1.356 . S
N2949 H2952 0.984 . S
N2949 H2953 0.985 . S
H2950 N2945 0.984 . S
H2951 N2945 0.985 . S
H2952 N2949 0.984 . S
H2953 N2949 0.985 . S
H2954 N2948 0.984 . S
H2955 N2948 0.984 . S
H2956 N2944 0.984 . S
H2957 N2944 0.985 . S
C2958 C2959 1.363 . S
C2958 C2964 1.379 . S
C2958 N2966 1.356 . S
C2959 C2958 1.363 . S
C2959 C2965 1.363 . S
C2960 C2961 1.363 . S
C2960 C2965 1.379 . S
C2960 N2967 1.356 . S
C2961 C2960 1.363 . S
C2961 C2964 1.363 . S
N2962 C2964 1.356 . S
N2962 H2974 0.984 . S
N2962 H2975 0.985 . S
N2963 C2965 1.356 . S
N2963 H2968 0.984 . S
N2963 H2969 0.985 . S
C2964 C2958 1.379 . S
C2964 C2961 1.363 . S
C2964 N2962 1.356 . S
C2965 C2959 1.363 . S
C2965 C2960 1.379 . S
C2965 N2963 1.356 . S
N2966 C2958 1.356 . S
N2966 H2972 0.984 . S
N2966 H2973 0.984 . S
N2967 C2960 1.356 . S
N2967 H2970 0.984 . S
N2967 H2971 0.985 . S
H2968 N2963 0.984 . S
H2969 N2963 0.985 . S
H2970 N2967 0.984 . S
H2971 N2967 0.985 . S
H2972 N2966 0.984 . S
H2973 N2966 0.984 . S
H2974 N2962 0.984 . S
H2975 N2962 0.985 . S
C2976 C2977 1.363 . S
C2976 C2982 1.379 . S
C2976 N2984 1.356 . S
C2977 C2976 1.363 . S
C2977 C2983 1.363 . S
C2978 C2979 1.363 . S
C2978 C2983 1.379 . S
C2978 N2985 1.356 . S
C2979 C2978 1.363 . S
C2979 C2982 1.363 . S
N2980 C2982 1.356 . S
N2980 H2992 0.984 . S
N2980 H2993 0.985 . S
N2981 C2983 1.356 . S
N2981 H2986 0.984 . S
N2981 H2987 0.985 . S
C2982 C2976 1.379 . S
C2982 C2979 1.363 . S
C2982 N2980 1.356 . S
C2983 C2977 1.363 . S
C2983 C2978 1.379 . S
C2983 N2981 1.356 . S
N2984 C2976 1.356 . S
N2984 H2990 0.984 . S
N2984 H2991 0.984 . S
N2985 C2978 1.356 . S
N2985 H2988 0.984 . S
N2985 H2989 0.985 . S
H2986 N2981 0.984 . S
H2987 N2981 0.985 . S
H2988 N2985 0.984 . S
H2989 N2985 0.985 . S
H2990 N2984 0.984 . S
H2991 N2984 0.984 . S
H2992 N2980 0.984 . S
H2993 N2980 0.985 . S
C2994 C2995 1.363 . S
C2994 C3000 1.379 . S
C2994 N3002 1.356 . S
C2995 C2994 1.363 . S
C2995 C3001 1.363 . S
C2996 C2997 1.363 . S
C2996 C3001 1.379 . S
C2996 N3003 1.356 . S
C2997 C2996 1.363 . S
C2997 C3000 1.363 . S
N2998 C3000 1.356 . S
N2998 H3010 0.984 . S
N2998 H3011 0.985 . S
N2999 C3001 1.356 . S
N2999 H3004 0.984 . S
N2999 H3005 0.985 . S
C3000 C2994 1.379 . S
C3000 C2997 1.363 . S
C3000 N2998 1.356 . S
C3001 C2995 1.363 . S
C3001 C2996 1.379 . S
C3001 N2999 1.356 . S
N3002 C2994 1.356 . S
N3002 H3008 0.984 . S
N3002 H3009 0.984 . S
N3003 C2996 1.356 . S
N3003 H3006 0.984 . S
N3003 H3007 0.985 . S
H3004 N2999 0.984 . S
H3005 N2999 0.985 . S
H3006 N3003 0.984 . S
H3007 N3003 0.985 . S
H3008 N3002 0.984 . S
H3009 N3002 0.984 . S
H3010 N2998 0.984 . S
H3011 N2998 0.985 . S
C3012 C3013 1.363 . S
C3012 C3018 1.379 . S
C3012 N3020 1.356 . S
C3013 C3012 1.363 . S
C3013 C3019 1.363 . S
C3014 C3015 1.363 . S
C3014 C3019 1.379 . S
C3014 N3021 1.356 . S
C3015 C3014 1.363 . S
C3015 C3018 1.363 . S
N3016 C3018 1.356 . S
N3016 H3028 0.984 . S
N3016 H3029 0.985 . S
N3017 C3019 1.356 . S
N3017 H3022 0.984 . S
N3017 H3023 0.985 . S
C3018 C3012 1.379 . S
C3018 C3015 1.363 . S
C3018 N3016 1.356 . S
C3019 C3013 1.363 . S
C3019 C3014 1.379 . S
C3019 N3017 1.356 . S
N3020 C3012 1.356 . S
N3020 H3026 0.984 . S
N3020 H3027 0.984 . S
N3021 C3014 1.356 . S
N3021 H3024 0.984 . S
N3021 H3025 0.985 . S
H3022 N3017 0.984 . S
H3023 N3017 0.985 . S
H3024 N3021 0.984 . S
H3025 N3021 0.985 . S
H3026 N3020 0.984 . S
H3027 N3020 0.984 . S
H3028 N3016 0.984 . S
H3029 N3016 0.985 . S
C3030 C3031 1.363 . S
C3030 C3036 1.379 . S
C3030 N3038 1.356 . S
C3031 C3030 1.363 . S
C3031 C3037 1.363 . S
C3032 C3033 1.363 . S
C3032 C3037 1.379 . S
C3032 N3039 1.356 . S
C3033 C3032 1.363 . S
C3033 C3036 1.363 . S
N3034 C3036 1.356 . S
N3034 H3046 0.984 . S
N3034 H3047 0.985 . S
N3035 C3037 1.356 . S
N3035 H3040 0.984 . S
N3035 H3041 0.985 . S
C3036 C3030 1.379 . S
C3036 C3033 1.363 . S
C3036 N3034 1.356 . S
C3037 C3031 1.363 . S
C3037 C3032 1.379 . S
C3037 N3035 1.356 . S
N3038 C3030 1.356 . S
N3038 H3044 0.984 . S
N3038 H3045 0.984 . S
N3039 C3032 1.356 . S
N3039 H3042 0.984 . S
N3039 H3043 0.985 . S
H3040 N3035 0.984 . S
H3041 N3035 0.985 . S
H3042 N3039 0.984 . S
H3043 N3039 0.985 . S
H3044 N3038 0.984 . S
H3045 N3038 0.984 . S
H3046 N3034 0.984 . S
H3047 N3034 0.985 . S
C3048 C3049 1.363 . S
C3048 C3054 1.379 . S
C3048 N3056 1.356 . S
C3049 C3048 1.363 . S
C3049 C3055 1.363 . S
C3050 C3051 1.363 . S
C3050 C3055 1.379 . S
C3050 N3057 1.356 . S
C3051 C3050 1.363 . S
C3051 C3054 1.363 . S
N3052 C3054 1.356 . S
N3052 H3064 0.984 . S
N3052 H3065 0.985 . S
N3053 C3055 1.356 . S
N3053 H3058 0.984 . S
N3053 H3059 0.985 . S
C3054 C3048 1.379 . S
C3054 C3051 1.363 . S
C3054 N3052 1.356 . S
C3055 C3049 1.363 . S
C3055 C3050 1.379 . S
C3055 N3053 1.356 . S
N3056 C3048 1.356 . S
N3056 H3062 0.984 . S
N3056 H3063 0.984 . S
N3057 C3050 1.356 . S
N3057 H3060 0.984 . S
N3057 H3061 0.985 . S
H3058 N3053 0.984 . S
H3059 N3053 0.985 . S
H3060 N3057 0.984 . S
H3061 N3057 0.985 . S
H3062 N3056 0.984 . S
H3063 N3056 0.984 . S
H3064 N3052 0.984 . S
H3065 N3052 0.985 . S
C3066 C3067 1.363 . S
C3066 C3072 1.379 . S
C3066 N3074 1.356 . S
C3067 C3066 1.363 . S
C3067 C3073 1.363 . S
C3068 C3069 1.363 . S
C3068 C3073 1.379 . S
C3068 N3075 1.356 . S
C3069 C3068 1.363 . S
C3069 C3072 1.363 . S
N3070 C3072 1.356 . S
N3070 H3082 0.984 . S
N3070 H3083 0.985 . S
N3071 C3073 1.356 . S
N3071 H3076 0.984 . S
N3071 H3077 0.985 . S
C3072 C3066 1.379 . S
C3072 C3069 1.363 . S
C3072 N3070 1.356 . S
C3073 C3067 1.363 . S
C3073 C3068 1.379 . S
C3073 N3071 1.356 . S
N3074 C3066 1.356 . S
N3074 H3080 0.984 . S
N3074 H3081 0.984 . S
N3075 C3068 1.356 . S
N3075 H3078 0.984 . S
N3075 H3079 0.985 . S
H3076 N3071 0.984 . S
H3077 N3071 0.985 . S
H3078 N3075 0.984 . S
H3079 N3075 0.985 . S
H3080 N3074 0.984 . S
H3081 N3074 0.984 . S
H3082 N3070 0.984 . S
H3083 N3070 0.985 . S
C3084 C3085 1.363 . S
C3084 C3090 1.379 . S
C3084 N3092 1.356 . S
C3085 C3084 1.363 . S
C3085 C3091 1.363 . S
C3086 C3087 1.363 . S
C3086 C3091 1.379 . S
C3086 N3093 1.356 . S
C3087 C3086 1.363 . S
C3087 C3090 1.363 . S
N3088 C3090 1.356 . S
N3088 H3100 0.984 . S
N3088 H3101 0.985 . S
N3089 C3091 1.356 . S
N3089 H3094 0.984 . S
N3089 H3095 0.985 . S
C3090 C3084 1.379 . S
C3090 C3087 1.363 . S
C3090 N3088 1.356 . S
C3091 C3085 1.363 . S
C3091 C3086 1.379 . S
C3091 N3089 1.356 . S
N3092 C3084 1.356 . S
N3092 H3098 0.984 . S
N3092 H3099 0.984 . S
N3093 C3086 1.356 . S
N3093 H3096 0.984 . S
N3093 H3097 0.985 . S
H3094 N3089 0.984 . S
H3095 N3089 0.985 . S
H3096 N3093 0.984 . S
H3097 N3093 0.985 . S
H3098 N3092 0.984 . S
H3099 N3092 0.984 . S
H3100 N3088 0.984 . S
H3101 N3088 0.985 . S
C3102 C3103 1.363 . S
C3102 C3108 1.379 . S
C3102 N3110 1.356 . S
C3103 C3102 1.363 . S
C3103 C3109 1.363 . S
C3104 C3105 1.363 . S
C3104 C3109 1.379 . S
C3104 N3111 1.356 . S
C3105 C3104 1.363 . S
C3105 C3108 1.363 . S
N3106 C3108 1.356 . S
N3106 H3118 0.984 . S
N3106 H3119 0.985 . S
N3107 C3109 1.356 . S
N3107 H3112 0.984 . S
N3107 H3113 0.985 . S
C3108 C3102 1.379 . S
C3108 C3105 1.363 . S
C3108 N3106 1.356 . S
C3109 C3103 1.363 . S
C3109 C3104 1.379 . S
C3109 N3107 1.356 . S
N3110 C3102 1.356 . S
N3110 H3116 0.984 . S
N3110 H3117 0.984 . S
N3111 C3104 1.356 . S
N3111 H3114 0.984 . S
N3111 H3115 0.985 . S
H3112 N3107 0.984 . S
H3113 N3107 0.985 . S
H3114 N3111 0.984 . S
H3115 N3111 0.985 . S
H3116 N3110 0.984 . S
H3117 N3110 0.984 . S
H3118 N3106 0.984 . S
H3119 N3106 0.985 . S
C3120 C3121 1.363 . S
C3120 C3126 1.379 . S
C3120 N3128 1.356 . S
C3121 C3120 1.363 . S
C3121 C3127 1.363 . S
C3122 C3123 1.363 . S
C3122 C3127 1.379 . S
C3122 N3129 1.356 . S
C3123 C3122 1.363 . S
C3123 C3126 1.363 . S
N3124 C3126 1.356 . S
N3124 H3136 0.984 . S
N3124 H3137 0.985 . S
N3125 C3127 1.356 . S
N3125 H3130 0.984 . S
N3125 H3131 0.985 . S
C3126 C3120 1.379 . S
C3126 C3123 1.363 . S
C3126 N3124 1.356 . S
C3127 C3121 1.363 . S
C3127 C3122 1.379 . S
C3127 N3125 1.356 . S
N3128 C3120 1.356 . S
N3128 H3134 0.984 . S
N3128 H3135 0.984 . S
N3129 C3122 1.356 . S
N3129 H3132 0.984 . S
N3129 H3133 0.985 . S
H3130 N3125 0.984 . S
H3131 N3125 0.985 . S
H3132 N3129 0.984 . S
H3133 N3129 0.985 . S
H3134 N3128 0.984 . S
H3135 N3128 0.984 . S
H3136 N3124 0.984 . S
H3137 N3124 0.985 . S
C3138 C3139 1.363 . S
C3138 C3144 1.379 . S
C3138 N3146 1.356 . S
C3139 C3138 1.363 . S
C3139 C3145 1.363 . S
C3140 C3141 1.363 . S
C3140 C3145 1.379 . S
C3140 N3147 1.356 . S
C3141 C3140 1.363 . S
C3141 C3144 1.363 . S
N3142 C3144 1.356 . S
N3142 H3154 0.984 . S
N3142 H3155 0.985 . S
N3143 C3145 1.356 . S
N3143 H3148 0.984 . S
N3143 H3149 0.985 . S
C3144 C3138 1.379 . S
C3144 C3141 1.363 . S
C3144 N3142 1.356 . S
C3145 C3139 1.363 . S
C3145 C3140 1.379 . S
C3145 N3143 1.356 . S
N3146 C3138 1.356 . S
N3146 H3152 0.984 . S
N3146 H3153 0.984 . S
N3147 C3140 1.356 . S
N3147 H3150 0.984 . S
N3147 H3151 0.985 . S
H3148 N3143 0.984 . S
H3149 N3143 0.985 . S
H3150 N3147 0.984 . S
H3151 N3147 0.985 . S
H3152 N3146 0.984 . S
H3153 N3146 0.984 . S
H3154 N3142 0.984 . S
H3155 N3142 0.985 . S
C3156 C3157 1.363 . S
C3156 C3162 1.379 . S
C3156 N3164 1.356 . S
C3157 C3156 1.363 . S
C3157 C3163 1.363 . S
C3158 C3159 1.363 . S
C3158 C3163 1.379 . S
C3158 N3165 1.356 . S
C3159 C3158 1.363 . S
C3159 C3162 1.363 . S
N3160 C3162 1.356 . S
N3160 H3172 0.984 . S
N3160 H3173 0.985 . S
N3161 C3163 1.356 . S
N3161 H3166 0.984 . S
N3161 H3167 0.985 . S
C3162 C3156 1.379 . S
C3162 C3159 1.363 . S
C3162 N3160 1.356 . S
C3163 C3157 1.363 . S
C3163 C3158 1.379 . S
C3163 N3161 1.356 . S
N3164 C3156 1.356 . S
N3164 H3170 0.984 . S
N3164 H3171 0.984 . S
N3165 C3158 1.356 . S
N3165 H3168 0.984 . S
N3165 H3169 0.985 . S
H3166 N3161 0.984 . S
H3167 N3161 0.985 . S
H3168 N3165 0.984 . S
H3169 N3165 0.985 . S
H3170 N3164 0.984 . S
H3171 N3164 0.984 . S
H3172 N3160 0.984 . S
H3173 N3160 0.985 . S
C3174 C3175 1.363 . S
C3174 C3180 1.379 . S
C3174 N3182 1.356 . S
C3175 C3174 1.363 . S
C3175 C3181 1.363 . S
C3176 C3177 1.363 . S
C3176 C3181 1.379 . S
C3176 N3183 1.356 . S
C3177 C3176 1.363 . S
C3177 C3180 1.363 . S
N3178 C3180 1.356 . S
N3178 H3190 0.984 . S
N3178 H3191 0.985 . S
N3179 C3181 1.356 . S
N3179 H3184 0.984 . S
N3179 H3185 0.985 . S
C3180 C3174 1.379 . S
C3180 C3177 1.363 . S
C3180 N3178 1.356 . S
C3181 C3175 1.363 . S
C3181 C3176 1.379 . S
C3181 N3179 1.356 . S
N3182 C3174 1.356 . S
N3182 H3188 0.984 . S
N3182 H3189 0.984 . S
N3183 C3176 1.356 . S
N3183 H3186 0.984 . S
N3183 H3187 0.985 . S
H3184 N3179 0.984 . S
H3185 N3179 0.985 . S
H3186 N3183 0.984 . S
H3187 N3183 0.985 . S
H3188 N3182 0.984 . S
H3189 N3182 0.984 . S
H3190 N3178 0.984 . S
H3191 N3178 0.985 . S
C3192 C3193 1.363 . S
C3192 C3198 1.379 . S
C3192 N3200 1.356 . S
C3193 C3192 1.363 . S
C3193 C3199 1.363 . S
C3194 C3195 1.363 . S
C3194 C3199 1.379 . S
C3194 N3201 1.356 . S
C3195 C3194 1.363 . S
C3195 C3198 1.363 . S
N3196 C3198 1.356 . S
N3196 H3208 0.984 . S
N3196 H3209 0.985 . S
N3197 C3199 1.356 . S
N3197 H3202 0.984 . S
N3197 H3203 0.985 . S
C3198 C3192 1.379 . S
C3198 C3195 1.363 . S
C3198 N3196 1.356 . S
C3199 C3193 1.363 . S
C3199 C3194 1.379 . S
C3199 N3197 1.356 . S
N3200 C3192 1.356 . S
N3200 H3206 0.984 . S
N3200 H3207 0.984 . S
N3201 C3194 1.356 . S
N3201 H3204 0.984 . S
N3201 H3205 0.985 . S
H3202 N3197 0.984 . S
H3203 N3197 0.985 . S
H3204 N3201 0.984 . S
H3205 N3201 0.985 . S
H3206 N3200 0.984 . S
H3207 N3200 0.984 . S
H3208 N3196 0.984 . S
H3209 N3196 0.985 . S
C3210 C3211 1.363 . S
C3210 C3216 1.379 . S
C3210 N3218 1.356 . S
C3211 C3210 1.363 . S
C3211 C3217 1.363 . S
C3212 C3213 1.363 . S
C3212 C3217 1.379 . S
C3212 N3219 1.356 . S
C3213 C3212 1.363 . S
C3213 C3216 1.363 . S
N3214 C3216 1.356 . S
N3214 H3226 0.984 . S
N3214 H3227 0.985 . S
N3215 C3217 1.356 . S
N3215 H3220 0.984 . S
N3215 H3221 0.985 . S
C3216 C3210 1.379 . S
C3216 C3213 1.363 . S
C3216 N3214 1.356 . S
C3217 C3211 1.363 . S
C3217 C3212 1.379 . S
C3217 N3215 1.356 . S
N3218 C3210 1.356 . S
N3218 H3224 0.984 . S
N3218 H3225 0.984 . S
N3219 C3212 1.356 . S
N3219 H3222 0.984 . S
N3219 H3223 0.985 . S
H3220 N3215 0.984 . S
H3221 N3215 0.985 . S
H3222 N3219 0.984 . S
H3223 N3219 0.985 . S
H3224 N3218 0.984 . S
H3225 N3218 0.984 . S
H3226 N3214 0.984 . S
H3227 N3214 0.985 . S
C3228 C3229 1.363 . S
C3228 C3234 1.379 . S
C3228 N3236 1.356 . S
C3229 C3228 1.363 . S
C3229 C3235 1.363 . S
C3230 C3231 1.363 . S
C3230 C3235 1.379 . S
C3230 N3237 1.356 . S
C3231 C3230 1.363 . S
C3231 C3234 1.363 . S
N3232 C3234 1.356 . S
N3232 H3244 0.984 . S
N3232 H3245 0.985 . S
N3233 C3235 1.356 . S
N3233 H3238 0.984 . S
N3233 H3239 0.985 . S
C3234 C3228 1.379 . S
C3234 C3231 1.363 . S
C3234 N3232 1.356 . S
C3235 C3229 1.363 . S
C3235 C3230 1.379 . S
C3235 N3233 1.356 . S
N3236 C3228 1.356 . S
N3236 H3242 0.984 . S
N3236 H3243 0.984 . S
N3237 C3230 1.356 . S
N3237 H3240 0.984 . S
N3237 H3241 0.985 . S
H3238 N3233 0.984 . S
H3239 N3233 0.985 . S
H3240 N3237 0.984 . S
H3241 N3237 0.985 . S
H3242 N3236 0.984 . S
H3243 N3236 0.984 . S
H3244 N3232 0.984 . S
H3245 N3232 0.985 . S
C3246 C3247 1.363 . S
C3246 C3252 1.379 . S
C3246 N3254 1.356 . S
C3247 C3246 1.363 . S
C3247 C3253 1.363 . S
C3248 C3249 1.363 . S
C3248 C3253 1.379 . S
C3248 N3255 1.356 . S
C3249 C3248 1.363 . S
C3249 C3252 1.363 . S
N3250 C3252 1.356 . S
N3250 H3262 0.984 . S
N3250 H3263 0.985 . S
N3251 C3253 1.356 . S
N3251 H3256 0.984 . S
N3251 H3257 0.985 . S
C3252 C3246 1.379 . S
C3252 C3249 1.363 . S
C3252 N3250 1.356 . S
C3253 C3247 1.363 . S
C3253 C3248 1.379 . S
C3253 N3251 1.356 . S
N3254 C3246 1.356 . S
N3254 H3260 0.984 . S
N3254 H3261 0.984 . S
N3255 C3248 1.356 . S
N3255 H3258 0.984 . S
N3255 H3259 0.985 . S
H3256 N3251 0.984 . S
H3257 N3251 0.985 . S
H3258 N3255 0.984 . S
H3259 N3255 0.985 . S
H3260 N3254 0.984 . S
H3261 N3254 0.984 . S
H3262 N3250 0.984 . S
H3263 N3250 0.985 . S
C3264 C3265 1.363 . S
C3264 C3270 1.379 . S
C3264 N3272 1.356 . S
C3265 C3264 1.363 . S
C3265 C3271 1.363 . S
C3266 C3267 1.363 . S
C3266 C3271 1.379 . S
C3266 N3273 1.356 . S
C3267 C3266 1.363 . S
C3267 C3270 1.363 . S
N3268 C3270 1.356 . S
N3268 H3280 0.984 . S
N3268 H3281 0.985 . S
N3269 C3271 1.356 . S
N3269 H3274 0.984 . S
N3269 H3275 0.985 . S
C3270 C3264 1.379 . S
C3270 C3267 1.363 . S
C3270 N3268 1.356 . S
C3271 C3265 1.363 . S
C3271 C3266 1.379 . S
C3271 N3269 1.356 . S
N3272 C3264 1.356 . S
N3272 H3278 0.984 . S
N3272 H3279 0.984 . S
N3273 C3266 1.356 . S
N3273 H3276 0.984 . S
N3273 H3277 0.985 . S
H3274 N3269 0.984 . S
H3275 N3269 0.985 . S
H3276 N3273 0.984 . S
H3277 N3273 0.985 . S
H3278 N3272 0.984 . S
H3279 N3272 0.984 . S
H3280 N3268 0.984 . S
H3281 N3268 0.985 . S
C3282 C3283 1.363 . S
C3282 C3288 1.379 . S
C3282 N3290 1.356 . S
C3283 C3282 1.363 . S
C3283 C3289 1.363 . S
C3284 C3285 1.363 . S
C3284 C3289 1.379 . S
C3284 N3291 1.356 . S
C3285 C3284 1.363 . S
C3285 C3288 1.363 . S
N3286 C3288 1.356 . S
N3286 H3298 0.984 . S
N3286 H3299 0.985 . S
N3287 C3289 1.356 . S
N3287 H3292 0.984 . S
N3287 H3293 0.985 . S
C3288 C3282 1.379 . S
C3288 C3285 1.363 . S
C3288 N3286 1.356 . S
C3289 C3283 1.363 . S
C3289 C3284 1.379 . S
C3289 N3287 1.356 . S
N3290 C3282 1.356 . S
N3290 H3296 0.984 . S
N3290 H3297 0.984 . S
N3291 C3284 1.356 . S
N3291 H3294 0.984 . S
N3291 H3295 0.985 . S
H3292 N3287 0.984 . S
H3293 N3287 0.985 . S
H3294 N3291 0.984 . S
H3295 N3291 0.985 . S
H3296 N3290 0.984 . S
H3297 N3290 0.984 . S
H3298 N3286 0.984 . S
H3299 N3286 0.985 . S
C3300 C3301 1.363 . S
C3300 C3306 1.379 . S
C3300 N3308 1.356 . S
C3301 C3300 1.363 . S
C3301 C3307 1.363 . S
C3302 C3303 1.363 . S
C3302 C3307 1.379 . S
C3302 N3309 1.356 . S
C3303 C3302 1.363 . S
C3303 C3306 1.363 . S
N3304 C3306 1.356 . S
N3304 H3316 0.984 . S
N3304 H3317 0.985 . S
N3305 C3307 1.356 . S
N3305 H3310 0.984 . S
N3305 H3311 0.985 . S
C3306 C3300 1.379 . S
C3306 C3303 1.363 . S
C3306 N3304 1.356 . S
C3307 C3301 1.363 . S
C3307 C3302 1.379 . S
C3307 N3305 1.356 . S
N3308 C3300 1.356 . S
N3308 H3314 0.984 . S
N3308 H3315 0.984 . S
N3309 C3302 1.356 . S
N3309 H3312 0.984 . S
N3309 H3313 0.985 . S
H3310 N3305 0.984 . S
H3311 N3305 0.985 . S
H3312 N3309 0.984 . S
H3313 N3309 0.985 . S
H3314 N3308 0.984 . S
H3315 N3308 0.984 . S
H3316 N3304 0.984 . S
H3317 N3304 0.985 . S
C3318 C3319 1.363 . S
C3318 C3324 1.379 . S
C3318 N3326 1.356 . S
C3319 C3318 1.363 . S
C3319 C3325 1.363 . S
C3320 C3321 1.363 . S
C3320 C3325 1.379 . S
C3320 N3327 1.356 . S
C3321 C3320 1.363 . S
C3321 C3324 1.363 . S
N3322 C3324 1.356 . S
N3322 H3334 0.984 . S
N3322 H3335 0.985 . S
N3323 C3325 1.356 . S
N3323 H3328 0.984 . S
N3323 H3329 0.985 . S
C3324 C3318 1.379 . S
C3324 C3321 1.363 . S
C3324 N3322 1.356 . S
C3325 C3319 1.363 . S
C3325 C3320 1.379 . S
C3325 N3323 1.356 . S
N3326 C3318 1.356 . S
N3326 H3332 0.984 . S
N3326 H3333 0.984 . S
N3327 C3320 1.356 . S
N3327 H3330 0.984 . S
N3327 H3331 0.985 . S
H3328 N3323 0.984 . S
H3329 N3323 0.985 . S
H3330 N3327 0.984 . S
H3331 N3327 0.985 . S
H3332 N3326 0.984 . S
H3333 N3326 0.984 . S
H3334 N3322 0.984 . S
H3335 N3322 0.985 . S
C3336 C3337 1.363 . S
C3336 C3342 1.379 . S
C3336 N3344 1.356 . S
C3337 C3336 1.363 . S
C3337 C3343 1.363 . S
C3338 C3339 1.363 . S
C3338 C3343 1.379 . S
C3338 N3345 1.356 . S
C3339 C3338 1.363 . S
C3339 C3342 1.363 . S
N3340 C3342 1.356 . S
N3340 H3352 0.984 . S
N3340 H3353 0.985 . S
N3341 C3343 1.356 . S
N3341 H3346 0.984 . S
N3341 H3347 0.985 . S
C3342 C3336 1.379 . S
C3342 C3339 1.363 . S
C3342 N3340 1.356 . S
C3343 C3337 1.363 . S
C3343 C3338 1.379 . S
C3343 N3341 1.356 . S
N3344 C3336 1.356 . S
N3344 H3350 0.984 . S
N3344 H3351 0.984 . S
N3345 C3338 1.356 . S
N3345 H3348 0.984 . S
N3345 H3349 0.985 . S
H3346 N3341 0.984 . S
H3347 N3341 0.985 . S
H3348 N3345 0.984 . S
H3349 N3345 0.985 . S
H3350 N3344 0.984 . S
H3351 N3344 0.984 . S
H3352 N3340 0.984 . S
H3353 N3340 0.985 . S
C3354 C3355 1.363 . S
C3354 C3360 1.379 . S
C3354 N3362 1.356 . S
C3355 C3354 1.363 . S
C3355 C3361 1.363 . S
C3356 C3357 1.363 . S
C3356 C3361 1.379 . S
C3356 N3363 1.356 . S
C3357 C3356 1.363 . S
C3357 C3360 1.363 . S
N3358 C3360 1.356 . S
N3358 H3370 0.984 . S
N3358 H3371 0.985 . S
N3359 C3361 1.356 . S
N3359 H3364 0.984 . S
N3359 H3365 0.985 . S
C3360 C3354 1.379 . S
C3360 C3357 1.363 . S
C3360 N3358 1.356 . S
C3361 C3355 1.363 . S
C3361 C3356 1.379 . S
C3361 N3359 1.356 . S
N3362 C3354 1.356 . S
N3362 H3368 0.984 . S
N3362 H3369 0.984 . S
N3363 C3356 1.356 . S
N3363 H3366 0.984 . S
N3363 H3367 0.985 . S
H3364 N3359 0.984 . S
H3365 N3359 0.985 . S
H3366 N3363 0.984 . S
H3367 N3363 0.985 . S
H3368 N3362 0.984 . S
H3369 N3362 0.984 . S
H3370 N3358 0.984 . S
H3371 N3358 0.985 . S
C3372 C3373 1.363 . S
C3372 C3378 1.379 . S
C3372 N3380 1.356 . S
C3373 C3372 1.363 . S
C3373 C3379 1.363 . S
C3374 C3375 1.363 . S
C3374 C3379 1.379 . S
C3374 N3381 1.356 . S
C3375 C3374 1.363 . S
C3375 C3378 1.363 . S
N3376 C3378 1.356 . S
N3376 H3388 0.984 . S
N3376 H3389 0.985 . S
N3377 C3379 1.356 . S
N3377 H3382 0.984 . S
N3377 H3383 0.985 . S
C3378 C3372 1.379 . S
C3378 C3375 1.363 . S
C3378 N3376 1.356 . S
C3379 C3373 1.363 . S
C3379 C3374 1.379 . S
C3379 N3377 1.356 . S
N3380 C3372 1.356 . S
N3380 H3386 0.984 . S
N3380 H3387 0.984 . S
N3381 C3374 1.356 . S
N3381 H3384 0.984 . S
N3381 H3385 0.985 . S
H3382 N3377 0.984 . S
H3383 N3377 0.985 . S
H3384 N3381 0.984 . S
H3385 N3381 0.985 . S
H3386 N3380 0.984 . S
H3387 N3380 0.984 . S
H3388 N3376 0.984 . S
H3389 N3376 0.985 . S
C3390 C3391 1.363 . S
C3390 C3396 1.379 . S
C3390 N3398 1.356 . S
C3391 C3390 1.363 . S
C3391 C3397 1.363 . S
C3392 C3393 1.363 . S
C3392 C3397 1.379 . S
C3392 N3399 1.356 . S
C3393 C3392 1.363 . S
C3393 C3396 1.363 . S
N3394 C3396 1.356 . S
N3394 H3406 0.984 . S
N3394 H3407 0.985 . S
N3395 C3397 1.356 . S
N3395 H3400 0.984 . S
N3395 H3401 0.985 . S
C3396 C3390 1.379 . S
C3396 C3393 1.363 . S
C3396 N3394 1.356 . S
C3397 C3391 1.363 . S
C3397 C3392 1.379 . S
C3397 N3395 1.356 . S
N3398 C3390 1.356 . S
N3398 H3404 0.984 . S
N3398 H3405 0.984 . S
N3399 C3392 1.356 . S
N3399 H3402 0.984 . S
N3399 H3403 0.985 . S
H3400 N3395 0.984 . S
H3401 N3395 0.985 . S
H3402 N3399 0.984 . S
H3403 N3399 0.985 . S
H3404 N3398 0.984 . S
H3405 N3398 0.984 . S
H3406 N3394 0.984 . S
H3407 N3394 0.985 . S
C3408 C3409 1.363 . S
C3408 C3414 1.379 . S
C3408 N3416 1.356 . S
C3409 C3408 1.363 . S
C3409 C3415 1.363 . S
C3410 C3411 1.363 . S
C3410 C3415 1.379 . S
C3410 N3417 1.356 . S
C3411 C3410 1.363 . S
C3411 C3414 1.363 . S
N3412 C3414 1.356 . S
N3412 H3424 0.984 . S
N3412 H3425 0.985 . S
N3413 C3415 1.356 . S
N3413 H3418 0.984 . S
N3413 H3419 0.985 . S
C3414 C3408 1.379 . S
C3414 C3411 1.363 . S
C3414 N3412 1.356 . S
C3415 C3409 1.363 . S
C3415 C3410 1.379 . S
C3415 N3413 1.356 . S
N3416 C3408 1.356 . S
N3416 H3422 0.984 . S
N3416 H3423 0.984 . S
N3417 C3410 1.356 . S
N3417 H3420 0.984 . S
N3417 H3421 0.985 . S
H3418 N3413 0.984 . S
H3419 N3413 0.985 . S
H3420 N3417 0.984 . S
H3421 N3417 0.985 . S
H3422 N3416 0.984 . S
H3423 N3416 0.984 . S
H3424 N3412 0.984 . S
H3425 N3412 0.985 . S
C3426 C3427 1.363 . S
C3426 C3432 1.379 . S
C3426 N3434 1.356 . S
C3427 C3426 1.363 . S
C3427 C3433 1.363 . S
C3428 C3429 1.363 . S
C3428 C3433 1.379 . S
C3428 N3435 1.356 . S
C3429 C3428 1.363 . S
C3429 C3432 1.363 . S
N3430 C3432 1.356 . S
N3430 H3442 0.984 . S
N3430 H3443 0.985 . S
N3431 C3433 1.356 . S
N3431 H3436 0.984 . S
N3431 H3437 0.985 . S
C3432 C3426 1.379 . S
C3432 C3429 1.363 . S
C3432 N3430 1.356 . S
C3433 C3427 1.363 . S
C3433 C3428 1.379 . S
C3433 N3431 1.356 . S
N3434 C3426 1.356 . S
N3434 H3440 0.984 . S
N3434 H3441 0.984 . S
N3435 C3428 1.356 . S
N3435 H3438 0.984 . S
N3435 H3439 0.985 . S
H3436 N3431 0.984 . S
H3437 N3431 0.985 . S
H3438 N3435 0.984 . S
H3439 N3435 0.985 . S
H3440 N3434 0.984 . S
H3441 N3434 0.984 . S
H3442 N3430 0.984 . S
H3443 N3430 0.985 . S
C3444 C3445 1.363 . S
C3444 C3450 1.379 . S
C3444 N3452 1.356 . S
C3445 C3444 1.363 . S
C3445 C3451 1.363 . S
C3446 C3447 1.363 . S
C3446 C3451 1.379 . S
C3446 N3453 1.356 . S
C3447 C3446 1.363 . S
C3447 C3450 1.363 . S
N3448 C3450 1.356 . S
N3448 H3460 0.984 . S
N3448 H3461 0.985 . S
N3449 C3451 1.356 . S
N3449 H3454 0.984 . S
N3449 H3455 0.985 . S
C3450 C3444 1.379 . S
C3450 C3447 1.363 . S
C3450 N3448 1.356 . S
C3451 C3445 1.363 . S
C3451 C3446 1.379 . S
C3451 N3449 1.356 . S
N3452 C3444 1.356 . S
N3452 H3458 0.984 . S
N3452 H3459 0.984 . S
N3453 C3446 1.356 . S
N3453 H3456 0.984 . S
N3453 H3457 0.985 . S
H3454 N3449 0.984 . S
H3455 N3449 0.985 . S
H3456 N3453 0.984 . S
H3457 N3453 0.985 . S
H3458 N3452 0.984 . S
H3459 N3452 0.984 . S
H3460 N3448 0.984 . S
H3461 N3448 0.985 . S
C3462 C3463 1.363 . S
C3462 C3468 1.379 . S
C3462 N3470 1.356 . S
C3463 C3462 1.363 . S
C3463 C3469 1.363 . S
C3464 C3465 1.363 . S
C3464 C3469 1.379 . S
C3464 N3471 1.356 . S
C3465 C3464 1.363 . S
C3465 C3468 1.363 . S
N3466 C3468 1.356 . S
N3466 H3478 0.984 . S
N3466 H3479 0.985 . S
N3467 C3469 1.356 . S
N3467 H3472 0.984 . S
N3467 H3473 0.985 . S
C3468 C3462 1.379 . S
C3468 C3465 1.363 . S
C3468 N3466 1.356 . S
C3469 C3463 1.363 . S
C3469 C3464 1.379 . S
C3469 N3467 1.356 . S
N3470 C3462 1.356 . S
N3470 H3476 0.984 . S
N3470 H3477 0.984 . S
N3471 C3464 1.356 . S
N3471 H3474 0.984 . S
N3471 H3475 0.985 . S
H3472 N3467 0.984 . S
H3473 N3467 0.985 . S
H3474 N3471 0.984 . S
H3475 N3471 0.985 . S
H3476 N3470 0.984 . S
H3477 N3470 0.984 . S
H3478 N3466 0.984 . S
H3479 N3466 0.985 . S
C3480 C3481 1.363 . S
C3480 C3486 1.379 . S
C3480 N3488 1.356 . S
C3481 C3480 1.363 . S
C3481 C3487 1.363 . S
C3482 C3483 1.363 . S
C3482 C3487 1.379 . S
C3482 N3489 1.356 . S
C3483 C3482 1.363 . S
C3483 C3486 1.363 . S
N3484 C3486 1.356 . S
N3484 H3496 0.984 . S
N3484 H3497 0.985 . S
N3485 C3487 1.356 . S
N3485 H3490 0.984 . S
N3485 H3491 0.985 . S
C3486 C3480 1.379 . S
C3486 C3483 1.363 . S
C3486 N3484 1.356 . S
C3487 C3481 1.363 . S
C3487 C3482 1.379 . S
C3487 N3485 1.356 . S
N3488 C3480 1.356 . S
N3488 H3494 0.984 . S
N3488 H3495 0.984 . S
N3489 C3482 1.356 . S
N3489 H3492 0.984 . S
N3489 H3493 0.985 . S
H3490 N3485 0.984 . S
H3491 N3485 0.985 . S
H3492 N3489 0.984 . S
H3493 N3489 0.985 . S
H3494 N3488 0.984 . S
H3495 N3488 0.984 . S
H3496 N3484 0.984 . S
H3497 N3484 0.985 . S
C3498 C3499 1.363 . S
C3498 C3504 1.379 . S
C3498 N3506 1.356 . S
C3499 C3498 1.363 . S
C3499 C3505 1.363 . S
C3500 C3501 1.363 . S
C3500 C3505 1.379 . S
C3500 N3507 1.356 . S
C3501 C3500 1.363 . S
C3501 C3504 1.363 . S
N3502 C3504 1.356 . S
N3502 H3514 0.984 . S
N3502 H3515 0.985 . S
N3503 C3505 1.356 . S
N3503 H3508 0.984 . S
N3503 H3509 0.985 . S
C3504 C3498 1.379 . S
C3504 C3501 1.363 . S
C3504 N3502 1.356 . S
C3505 C3499 1.363 . S
C3505 C3500 1.379 . S
C3505 N3503 1.356 . S
N3506 C3498 1.356 . S
N3506 H3512 0.984 . S
N3506 H3513 0.984 . S
N3507 C3500 1.356 . S
N3507 H3510 0.984 . S
N3507 H3511 0.985 . S
H3508 N3503 0.984 . S
H3509 N3503 0.985 . S
H3510 N3507 0.984 . S
H3511 N3507 0.985 . S
H3512 N3506 0.984 . S
H3513 N3506 0.984 . S
H3514 N3502 0.984 . S
H3515 N3502 0.985 . S
C3516 C3517 1.363 . S
C3516 C3522 1.379 . S
C3516 N3524 1.356 . S
C3517 C3516 1.363 . S
C3517 C3523 1.363 . S
C3518 C3519 1.363 . S
C3518 C3523 1.379 . S
C3518 N3525 1.356 . S
C3519 C3518 1.363 . S
C3519 C3522 1.363 . S
N3520 C3522 1.356 . S
N3520 H3532 0.984 . S
N3520 H3533 0.985 . S
N3521 C3523 1.356 . S
N3521 H3526 0.984 . S
N3521 H3527 0.985 . S
C3522 C3516 1.379 . S
C3522 C3519 1.363 . S
C3522 N3520 1.356 . S
C3523 C3517 1.363 . S
C3523 C3518 1.379 . S
C3523 N3521 1.356 . S
N3524 C3516 1.356 . S
N3524 H3530 0.984 . S
N3524 H3531 0.984 . S
N3525 C3518 1.356 . S
N3525 H3528 0.984 . S
N3525 H3529 0.985 . S
H3526 N3521 0.984 . S
H3527 N3521 0.985 . S
H3528 N3525 0.984 . S
H3529 N3525 0.985 . S
H3530 N3524 0.984 . S
H3531 N3524 0.984 . S
H3532 N3520 0.984 . S
H3533 N3520 0.985 . S
C3534 C3535 1.363 . S
C3534 C3540 1.379 . S
C3534 N3542 1.356 . S
C3535 C3534 1.363 . S
C3535 C3541 1.363 . S
C3536 C3537 1.363 . S
C3536 C3541 1.379 . S
C3536 N3543 1.356 . S
C3537 C3536 1.363 . S
C3537 C3540 1.363 . S
N3538 C3540 1.356 . S
N3538 H3550 0.984 . S
N3538 H3551 0.985 . S
N3539 C3541 1.356 . S
N3539 H3544 0.984 . S
N3539 H3545 0.985 . S
C3540 C3534 1.379 . S
C3540 C3537 1.363 . S
C3540 N3538 1.356 . S
C3541 C3535 1.363 . S
C3541 C3536 1.379 . S
C3541 N3539 1.356 . S
N3542 C3534 1.356 . S
N3542 H3548 0.984 . S
N3542 H3549 0.984 . S
N3543 C3536 1.356 . S
N3543 H3546 0.984 . S
N3543 H3547 0.985 . S
H3544 N3539 0.984 . S
H3545 N3539 0.985 . S
H3546 N3543 0.984 . S
H3547 N3543 0.985 . S
H3548 N3542 0.984 . S
H3549 N3542 0.984 . S
H3550 N3538 0.984 . S
H3551 N3538 0.985 . S
C3552 C3553 1.363 . S
C3552 C3558 1.379 . S
C3552 N3560 1.356 . S
C3553 C3552 1.363 . S
C3553 C3559 1.363 . S
C3554 C3555 1.363 . S
C3554 C3559 1.379 . S
C3554 N3561 1.356 . S
C3555 C3554 1.363 . S
C3555 C3558 1.363 . S
N3556 C3558 1.356 . S
N3556 H3568 0.984 . S
N3556 H3569 0.985 . S
N3557 C3559 1.356 1_655 S
N3557 H3562 0.984 . S
N3557 H3563 0.985 . S
C3558 C3552 1.379 . S
C3558 C3555 1.363 . S
C3558 N3556 1.356 . S
C3559 C3553 1.363 . S
C3559 C3554 1.379 . S
C3559 N3557 1.356 1_455 S
N3560 C3552 1.356 . S
N3560 H3566 0.984 . S
N3560 H3567 0.984 . S
N3561 C3554 1.356 . S
N3561 H3564 0.984 . S
N3561 H3565 0.985 1_455 S
H3562 N3557 0.984 . S
H3563 N3557 0.985 . S
H3564 N3561 0.984 . S
H3565 N3561 0.985 1_655 S
H3566 N3560 0.984 . S
H3567 N3560 0.984 . S
H3568 N3556 0.984 . S
H3569 N3556 0.985 . S
C3570 C3571 1.363 . S
C3570 C3576 1.379 . S
C3570 N3578 1.356 . S
C3571 C3570 1.363 . S
C3571 C3577 1.363 . S
C3572 C3573 1.363 . S
C3572 C3577 1.379 . S
C3572 N3579 1.356 . S
C3573 C3572 1.363 . S
C3573 C3576 1.363 . S
N3574 C3576 1.356 . S
N3574 H3586 0.984 . S
N3574 H3587 0.985 . S
N3575 C3577 1.356 1_565 S
N3575 H3580 0.984 . S
N3575 H3581 0.985 . S
C3576 C3570 1.379 . S
C3576 C3573 1.363 . S
C3576 N3574 1.356 . S
C3577 C3571 1.363 . S
C3577 C3572 1.379 . S
C3577 N3575 1.356 1_545 S
N3578 C3570 1.356 . S
N3578 H3584 0.984 . S
N3578 H3585 0.984 . S
N3579 C3572 1.356 . S
N3579 H3582 0.984 . S
N3579 H3583 0.985 1_545 S
H3580 N3575 0.984 . S
H3581 N3575 0.985 . S
H3582 N3579 0.984 . S
H3583 N3579 0.985 1_565 S
H3584 N3578 0.984 . S
H3585 N3578 0.984 . S
H3586 N3574 0.984 . S
H3587 N3574 0.985 . S
C3588 C3589 1.363 . S
C3588 C3594 1.379 . S
C3588 N3596 1.356 . S
C3589 C3588 1.363 . S
C3589 C3595 1.363 . S
C3590 C3591 1.363 . S
C3590 C3595 1.379 . S
C3590 N3597 1.356 . S
C3591 C3590 1.363 . S
C3591 C3594 1.363 . S
N3592 C3594 1.356 . S
N3592 H3604 0.984 . S
N3592 H3605 0.985 . S
N3593 C3595 1.356 . S
N3593 H3598 0.984 . S
N3593 H3599 0.985 . S
C3594 C3588 1.379 . S
C3594 C3591 1.363 . S
C3594 N3592 1.356 . S
C3595 C3589 1.363 . S
C3595 C3590 1.379 . S
C3595 N3593 1.356 . S
N3596 C3588 1.356 . S
N3596 H3602 0.984 . S
N3596 H3603 0.984 . S
N3597 C3590 1.356 . S
N3597 H3600 0.984 . S
N3597 H3601 0.985 . S
H3598 N3593 0.984 . S
H3599 N3593 0.985 . S
H3600 N3597 0.984 . S
H3601 N3597 0.985 . S
H3602 N3596 0.984 . S
H3603 N3596 0.984 . S
H3604 N3592 0.984 . S
H3605 N3592 0.985 . S
C3606 C3607 1.363 . S
C3606 C3612 1.379 . S
C3606 N3614 1.356 . S
C3607 C3606 1.363 . S
C3607 C3613 1.363 . S
C3608 C3609 1.363 . S
C3608 C3613 1.379 . S
C3608 N3615 1.356 . S
C3609 C3608 1.363 . S
C3609 C3612 1.363 . S
N3610 C3612 1.356 . S
N3610 H3622 0.984 . S
N3610 H3623 0.985 . S
N3611 C3613 1.356 . S
N3611 H3616 0.984 . S
N3611 H3617 0.985 . S
C3612 C3606 1.379 . S
C3612 C3609 1.363 . S
C3612 N3610 1.356 . S
C3613 C3607 1.363 . S
C3613 C3608 1.379 . S
C3613 N3611 1.356 . S
N3614 C3606 1.356 . S
N3614 H3620 0.984 . S
N3614 H3621 0.984 . S
N3615 C3608 1.356 . S
N3615 H3618 0.984 . S
N3615 H3619 0.985 . S
H3616 N3611 0.984 . S
H3617 N3611 0.985 . S
H3618 N3615 0.984 . S
H3619 N3615 0.985 . S
H3620 N3614 0.984 . S
H3621 N3614 0.984 . S
H3622 N3610 0.984 . S
H3623 N3610 0.985 . S
C3624 C3625 1.363 . S
C3624 C3630 1.379 . S
C3624 N3632 1.356 . S
C3625 C3624 1.363 . S
C3625 C3631 1.363 . S
C3626 C3627 1.363 . S
C3626 C3631 1.379 . S
C3626 N3633 1.356 . S
C3627 C3626 1.363 . S
C3627 C3630 1.363 . S
N3628 C3630 1.356 1_655 S
N3628 H3640 0.984 . S
N3628 H3641 0.985 . S
N3629 C3631 1.356 . S
N3629 H3634 0.984 . S
N3629 H3635 0.985 . S
C3630 C3624 1.379 . S
C3630 C3627 1.363 . S
C3630 N3628 1.356 1_455 S
C3631 C3625 1.363 . S
C3631 C3626 1.379 . S
C3631 N3629 1.356 . S
N3632 C3624 1.356 . S
N3632 H3638 0.984 . S
N3632 H3639 0.984 . S
N3633 C3626 1.356 . S
N3633 H3636 0.984 . S
N3633 H3637 0.985 . S
H3634 N3629 0.984 . S
H3635 N3629 0.985 . S
H3636 N3633 0.984 . S
H3637 N3633 0.985 . S
H3638 N3632 0.984 . S
H3639 N3632 0.984 . S
H3640 N3628 0.984 . S
H3641 N3628 0.985 . S
C3642 C3643 1.363 . S
C3642 C3648 1.379 . S
C3642 N3650 1.356 . S
C3643 C3642 1.363 . S
C3643 C3649 1.363 . S
C3644 C3645 1.363 . S
C3644 C3649 1.379 . S
C3644 N3651 1.356 . S
C3645 C3644 1.363 . S
C3645 C3648 1.363 . S
N3646 C3648 1.356 1_565 S
N3646 H3658 0.984 . S
N3646 H3659 0.985 . S
N3647 C3649 1.356 . S
N3647 H3652 0.984 . S
N3647 H3653 0.985 . S
C3648 C3642 1.379 . S
C3648 C3645 1.363 . S
C3648 N3646 1.356 1_545 S
C3649 C3643 1.363 . S
C3649 C3644 1.379 . S
C3649 N3647 1.356 . S
N3650 C3642 1.356 . S
N3650 H3656 0.984 1_545 S
N3650 H3657 0.984 . S
N3651 C3644 1.356 . S
N3651 H3654 0.984 . S
N3651 H3655 0.985 . S
H3652 N3647 0.984 . S
H3653 N3647 0.985 . S
H3654 N3651 0.984 . S
H3655 N3651 0.985 . S
H3656 N3650 0.984 1_565 S
H3657 N3650 0.984 . S
H3658 N3646 0.984 . S
H3659 N3646 0.985 . S
C3660 C3661 1.363 . S
C3660 C3666 1.379 . S
C3660 N3668 1.356 . S
C3661 C3660 1.363 . S
C3661 C3667 1.363 . S
C3662 C3663 1.363 . S
C3662 C3667 1.379 . S
C3662 N3669 1.356 . S
C3663 C3662 1.363 . S
C3663 C3666 1.363 . S
N3664 C3666 1.356 . S
N3664 H3676 0.984 . S
N3664 H3677 0.985 . S
N3665 C3667 1.356 . S
N3665 H3670 0.984 . S
N3665 H3671 0.985 . S
C3666 C3660 1.379 . S
C3666 C3663 1.363 . S
C3666 N3664 1.356 . S
C3667 C3661 1.363 . S
C3667 C3662 1.379 . S
C3667 N3665 1.356 . S
N3668 C3660 1.356 . S
N3668 H3674 0.984 . S
N3668 H3675 0.984 . S
N3669 C3662 1.356 . S
N3669 H3672 0.984 . S
N3669 H3673 0.985 . S
H3670 N3665 0.984 . S
H3671 N3665 0.985 . S
H3672 N3669 0.984 . S
H3673 N3669 0.985 . S
H3674 N3668 0.984 . S
H3675 N3668 0.984 . S
H3676 N3664 0.984 . S
H3677 N3664 0.985 . S
C3678 C3679 1.363 . S
C3678 C3684 1.379 . S
C3678 N3686 1.356 . S
C3679 C3678 1.363 . S
C3679 C3685 1.363 . S
C3680 C3681 1.363 . S
C3680 C3685 1.379 . S
C3680 N3687 1.356 . S
C3681 C3680 1.363 . S
C3681 C3684 1.363 . S
N3682 C3684 1.356 . S
N3682 H3694 0.984 . S
N3682 H3695 0.985 . S
N3683 C3685 1.356 . S
N3683 H3688 0.984 . S
N3683 H3689 0.985 . S
C3684 C3678 1.379 . S
C3684 C3681 1.363 . S
C3684 N3682 1.356 . S
C3685 C3679 1.363 . S
C3685 C3680 1.379 . S
C3685 N3683 1.356 . S
N3686 C3678 1.356 . S
N3686 H3692 0.984 . S
N3686 H3693 0.984 . S
N3687 C3680 1.356 . S
N3687 H3690 0.984 . S
N3687 H3691 0.985 . S
H3688 N3683 0.984 . S
H3689 N3683 0.985 . S
H3690 N3687 0.984 . S
H3691 N3687 0.985 . S
H3692 N3686 0.984 . S
H3693 N3686 0.984 . S
H3694 N3682 0.984 . S
H3695 N3682 0.985 . S
C3696 C3697 1.363 . S
C3696 C3702 1.379 . S
C3696 N3704 1.356 . S
C3697 C3696 1.363 . S
C3697 C3703 1.363 . S
C3698 C3699 1.363 . S
C3698 C3703 1.379 . S
C3698 N3705 1.356 . S
C3699 C3698 1.363 . S
C3699 C3702 1.363 . S
N3700 C3702 1.356 . S
N3700 H3712 0.984 . S
N3700 H3713 0.985 . S
N3701 C3703 1.356 1_565 S
N3701 H3706 0.984 . S
N3701 H3707 0.985 . S
C3702 C3696 1.379 . S
C3702 C3699 1.363 . S
C3702 N3700 1.356 . S
C3703 C3697 1.363 . S
C3703 C3698 1.379 . S
C3703 N3701 1.356 1_545 S
N3704 C3696 1.356 . S
N3704 H3710 0.984 . S
N3704 H3711 0.984 . S
N3705 C3698 1.356 . S
N3705 H3708 0.984 . S
N3705 H3709 0.985 . S
H3706 N3701 0.984 . S
H3707 N3701 0.985 . S
H3708 N3705 0.984 . S
H3709 N3705 0.985 . S
H3710 N3704 0.984 . S
H3711 N3704 0.984 . S
H3712 N3700 0.984 . S
H3713 N3700 0.985 . S
C3714 C3715 1.363 . S
C3714 C3720 1.379 . S
C3714 N3722 1.356 . S
C3715 C3714 1.363 . S
C3715 C3721 1.363 . S
C3716 C3717 1.363 . S
C3716 C3721 1.379 . S
C3716 N3723 1.356 . S
C3717 C3716 1.363 . S
C3717 C3720 1.363 . S
N3718 C3720 1.356 . S
N3718 H3730 0.984 . S
N3718 H3731 0.985 . S
N3719 C3721 1.356 . S
N3719 H3724 0.984 . S
N3719 H3725 0.985 . S
C3720 C3714 1.379 . S
C3720 C3717 1.363 . S
C3720 N3718 1.356 . S
C3721 C3715 1.363 . S
C3721 C3716 1.379 . S
C3721 N3719 1.356 . S
N3722 C3714 1.356 . S
N3722 H3728 0.984 . S
N3722 H3729 0.984 . S
N3723 C3716 1.356 . S
N3723 H3726 0.984 . S
N3723 H3727 0.985 . S
H3724 N3719 0.984 . S
H3725 N3719 0.985 . S
H3726 N3723 0.984 . S
H3727 N3723 0.985 . S
H3728 N3722 0.984 . S
H3729 N3722 0.984 . S
H3730 N3718 0.984 . S
H3731 N3718 0.985 . S
C3732 C3733 1.363 . S
C3732 C3738 1.379 . S
C3732 N3740 1.356 . S
C3733 C3732 1.363 . S
C3733 C3739 1.363 . S
C3734 C3735 1.363 . S
C3734 C3739 1.379 . S
C3734 N3741 1.356 . S
C3735 C3734 1.363 . S
C3735 C3738 1.363 . S
N3736 C3738 1.356 . S
N3736 H3748 0.984 . S
N3736 H3749 0.985 . S
N3737 C3739 1.356 . S
N3737 H3742 0.984 . S
N3737 H3743 0.985 . S
C3738 C3732 1.379 . S
C3738 C3735 1.363 . S
C3738 N3736 1.356 . S
C3739 C3733 1.363 . S
C3739 C3734 1.379 . S
C3739 N3737 1.356 . S
N3740 C3732 1.356 . S
N3740 H3746 0.984 . S
N3740 H3747 0.984 . S
N3741 C3734 1.356 . S
N3741 H3744 0.984 . S
N3741 H3745 0.985 . S
H3742 N3737 0.984 . S
H3743 N3737 0.985 . S
H3744 N3741 0.984 . S
H3745 N3741 0.985 . S
H3746 N3740 0.984 . S
H3747 N3740 0.984 . S
H3748 N3736 0.984 . S
H3749 N3736 0.985 . S
C3750 C3751 1.363 . S
C3750 C3756 1.379 . S
C3750 N3758 1.356 . S
C3751 C3750 1.363 . S
C3751 C3757 1.363 . S
C3752 C3753 1.363 . S
C3752 C3757 1.379 . S
C3752 N3759 1.356 . S
C3753 C3752 1.363 . S
C3753 C3756 1.363 . S
N3754 C3756 1.356 1_655 S
N3754 H3766 0.984 . S
N3754 H3767 0.985 . S
N3755 C3757 1.356 . S
N3755 H3760 0.984 . S
N3755 H3761 0.985 . S
C3756 C3750 1.379 . S
C3756 C3753 1.363 . S
C3756 N3754 1.356 1_455 S
C3757 C3751 1.363 . S
C3757 C3752 1.379 . S
C3757 N3755 1.356 . S
N3758 C3750 1.356 . S
N3758 H3764 0.984 . S
N3758 H3765 0.984 . S
N3759 C3752 1.356 . S
N3759 H3762 0.984 . S
N3759 H3763 0.985 . S
H3760 N3755 0.984 . S
H3761 N3755 0.985 . S
H3762 N3759 0.984 . S
H3763 N3759 0.985 . S
H3764 N3758 0.984 . S
H3765 N3758 0.984 . S
H3766 N3754 0.984 . S
H3767 N3754 0.985 . S
C3768 C3769 1.363 . S
C3768 C3774 1.379 . S
C3768 N3776 1.356 . S
C3769 C3768 1.363 . S
C3769 C3775 1.363 . S
C3770 C3771 1.363 . S
C3770 C3775 1.379 . S
C3770 N3777 1.356 . S
C3771 C3770 1.363 . S
C3771 C3774 1.363 . S
N3772 C3774 1.356 . S
N3772 H3784 0.984 . S
N3772 H3785 0.985 . S
N3773 C3775 1.356 . S
N3773 H3778 0.984 . S
N3773 H3779 0.985 . S
C3774 C3768 1.379 . S
C3774 C3771 1.363 . S
C3774 N3772 1.356 . S
C3775 C3769 1.363 . S
C3775 C3770 1.379 . S
C3775 N3773 1.356 . S
N3776 C3768 1.356 . S
N3776 H3782 0.984 . S
N3776 H3783 0.984 . S
N3777 C3770 1.356 . S
N3777 H3780 0.984 . S
N3777 H3781 0.985 . S
H3778 N3773 0.984 . S
H3779 N3773 0.985 . S
H3780 N3777 0.984 . S
H3781 N3777 0.985 . S
H3782 N3776 0.984 . S
H3783 N3776 0.984 . S
H3784 N3772 0.984 . S
H3785 N3772 0.985 . S
C3786 C3787 1.363 . S
C3786 C3792 1.379 . S
C3786 N3794 1.356 . S
C3787 C3786 1.363 . S
C3787 C3793 1.363 . S
C3788 C3789 1.363 . S
C3788 C3793 1.379 . S
C3788 N3795 1.356 1_455 S
C3789 C3788 1.363 . S
C3789 C3792 1.363 . S
N3790 C3792 1.356 . S
N3790 H3802 0.984 . S
N3790 H3803 0.985 . S
N3791 C3793 1.356 . S
N3791 H3796 0.984 . S
N3791 H3797 0.985 . S
C3792 C3786 1.379 . S
C3792 C3789 1.363 . S
C3792 N3790 1.356 . S
C3793 C3787 1.363 . S
C3793 C3788 1.379 . S
C3793 N3791 1.356 . S
N3794 C3786 1.356 . S
N3794 H3800 0.984 . S
N3794 H3801 0.984 . S
N3795 C3788 1.356 1_655 S
N3795 H3798 0.984 . S
N3795 H3799 0.985 . S
H3796 N3791 0.984 . S
H3797 N3791 0.985 . S
H3798 N3795 0.984 . S
H3799 N3795 0.985 . S
H3800 N3794 0.984 . S
H3801 N3794 0.984 . S
H3802 N3790 0.984 . S
H3803 N3790 0.985 . S
C3804 C3805 1.363 . S
C3804 C3810 1.379 . S
C3804 N3812 1.356 1_545 S
C3805 C3804 1.363 . S
C3805 C3811 1.363 . S
C3806 C3807 1.363 . S
C3806 C3811 1.379 . S
C3806 N3813 1.356 . S
C3807 C3806 1.363 . S
C3807 C3810 1.363 . S
N3808 C3810 1.356 . S
N3808 H3820 1.002 . S
N3808 H3821 0.985 . S
N3809 C3811 1.356 . S
N3809 H3814 0.984 . S
N3809 H3815 0.985 . S
C3810 C3804 1.379 . S
C3810 C3807 1.363 . S
C3810 N3808 1.356 . S
C3811 C3805 1.363 . S
C3811 C3806 1.379 . S
C3811 N3809 1.356 . S
N3812 C3804 1.356 1_565 S
N3812 H3818 0.984 . S
N3812 H3819 0.984 . S
N3813 C3806 1.356 . S
N3813 H3816 0.984 . S
N3813 H3817 0.985 . S
H3814 N3809 0.984 . S
H3815 N3809 0.985 . S
H3816 N3813 0.984 . S
H3817 N3813 0.985 . S
H3818 N3812 0.984 . S
H3819 N3812 0.984 . S
H3820 N3808 1.002 . S
H3821 N3808 0.985 . S
C3822 C3823 1.363 . S
C3822 C3828 1.379 . S
C3822 N3830 1.356 . S
C3823 C3822 1.363 . S
C3823 C3829 1.363 . S
C3824 C3825 1.363 . S
C3824 C3829 1.379 . S
C3824 N3831 1.356 . S
C3825 C3824 1.363 . S
C3825 C3828 1.363 . S
N3826 C3828 1.356 . S
N3826 H3838 0.984 . S
N3826 H3839 0.985 . S
N3827 C3829 1.356 . S
N3827 H3832 0.984 . S
N3827 H3833 0.985 . S
C3828 C3822 1.379 . S
C3828 C3825 1.363 . S
C3828 N3826 1.356 . S
C3829 C3823 1.363 . S
C3829 C3824 1.379 . S
C3829 N3827 1.356 . S
N3830 C3822 1.356 . S
N3830 H3836 0.984 . S
N3830 H3837 0.984 . S
N3831 C3824 1.356 . S
N3831 H3834 0.984 . S
N3831 H3835 0.985 . S
H3832 N3827 0.984 . S
H3833 N3827 0.985 . S
H3834 N3831 0.984 . S
H3835 N3831 0.985 . S
H3836 N3830 0.984 . S
H3837 N3830 0.984 . S
H3838 N3826 0.984 . S
H3839 N3826 0.985 . S
C3840 C3841 1.363 . S
C3840 C3846 1.389 . S
C3840 N3848 1.356 . S
C3841 C3840 1.363 . S
C3841 C3847 1.363 . S
C3842 C3843 1.363 . S
C3842 C3847 1.379 . S
C3842 N3849 1.356 . S
C3843 C3842 1.363 . S
C3843 C3846 1.374 . S
N3844 C3846 1.336 1_556 S
N3844 H3856 0.984 . S
N3844 H3857 0.985 . S
N3845 C3847 1.356 . S
N3845 H3850 0.984 . S
N3845 H3851 0.985 . S
C3846 C3840 1.389 . S
C3846 C3843 1.374 . S
C3846 N3844 1.336 1_554 S
C3847 C3841 1.363 . S
C3847 C3842 1.379 . S
C3847 N3845 1.356 . S
N3848 C3840 1.356 . S
N3848 H3854 0.984 1_554 S
N3848 H3855 0.984 . S
N3849 C3842 1.356 . S
N3849 H3852 0.984 . S
N3849 H3853 0.985 . S
H3850 N3845 0.984 . S
H3851 N3845 0.985 . S
H3852 N3849 0.984 . S
H3853 N3849 0.985 . S
H3854 N3848 0.984 1_556 S
H3855 N3848 0.984 . S
H3856 N3844 0.984 . S
H3857 N3844 0.985 . S
C3858 C3859 1.363 . S
C3858 C3864 1.379 . S
C3858 N3866 1.356 . S
C3859 C3858 1.363 . S
C3859 C3865 1.363 . S
C3860 C3861 1.363 . S
C3860 C3865 1.379 . S
C3860 N3867 1.356 . S
C3861 C3860 1.363 . S
C3861 C3864 1.363 . S
N3862 C3864 1.356 . S
N3862 H3874 0.984 . S
N3862 H3875 0.985 . S
N3863 C3865 1.356 . S
N3863 H3868 0.984 . S
N3863 H3869 0.985 . S
C3864 C3858 1.379 . S
C3864 C3861 1.363 . S
C3864 N3862 1.356 . S
C3865 C3859 1.363 . S
C3865 C3860 1.379 . S
C3865 N3863 1.356 . S
N3866 C3858 1.356 . S
N3866 H3872 0.984 . S
N3866 H3873 0.984 . S
N3867 C3860 1.356 . S
N3867 H3870 0.984 . S
N3867 H3871 0.985 . S
H3868 N3863 0.984 . S
H3869 N3863 0.985 . S
H3870 N3867 0.984 . S
H3871 N3867 0.985 . S
H3872 N3866 0.984 . S
H3873 N3866 0.984 . S
H3874 N3862 0.984 . S
H3875 N3862 0.985 . S
C3876 C3877 1.363 . S
C3876 C3882 1.379 . S
C3876 N3884 1.356 . S
C3877 C3876 1.363 . S
C3877 C3883 1.363 . S
C3878 C3879 1.363 . S
C3878 C3883 1.379 . S
C3878 N3885 1.356 . S
C3879 C3878 1.363 . S
C3879 C3882 1.363 . S
N3880 C3882 1.356 . S
N3880 H3892 0.984 . S
N3880 H3893 0.985 . S
N3881 C3883 1.356 . S
N3881 H3886 0.984 . S
N3881 H3887 0.985 . S
C3882 C3876 1.379 . S
C3882 C3879 1.363 . S
C3882 N3880 1.356 . S
C3883 C3877 1.363 . S
C3883 C3878 1.379 . S
C3883 N3881 1.356 . S
N3884 C3876 1.356 . S
N3884 H3890 0.984 . S
N3884 H3891 0.984 . S
N3885 C3878 1.356 . S
N3885 H3888 0.984 . S
N3885 H3889 0.985 . S
H3886 N3881 0.984 . S
H3887 N3881 0.985 . S
H3888 N3885 0.984 . S
H3889 N3885 0.985 . S
H3890 N3884 0.984 . S
H3891 N3884 0.984 . S
H3892 N3880 0.984 . S
H3893 N3880 0.985 . S
C3894 C3895 1.363 . S
C3894 C3900 1.379 . S
C3894 N3902 1.356 . S
C3895 C3894 1.363 . S
C3895 C3901 1.363 . S
C3896 C3897 1.363 . S
C3896 C3901 1.379 . S
C3896 N3903 1.356 . S
C3897 C3896 1.363 . S
C3897 C3900 1.363 . S
N3898 C3900 1.356 . S
N3898 H3910 0.984 . S
N3898 H3911 0.985 . S
N3899 C3901 1.356 . S
N3899 H3904 0.984 . S
N3899 H3905 0.985 . S
C3900 C3894 1.379 . S
C3900 C3897 1.363 . S
C3900 N3898 1.356 . S
C3901 C3895 1.363 . S
C3901 C3896 1.379 . S
C3901 N3899 1.356 . S
N3902 C3894 1.356 . S
N3902 H3908 0.984 . S
N3902 H3909 0.984 . S
N3903 C3896 1.356 . S
N3903 H3906 0.984 . S
N3903 H3907 0.985 . S
H3904 N3899 0.984 . S
H3905 N3899 0.985 . S
H3906 N3903 0.984 . S
H3907 N3903 0.985 . S
H3908 N3902 0.984 . S
H3909 N3902 0.984 . S
H3910 N3898 0.984 . S
H3911 N3898 0.985 . S
C3912 C3913 1.363 . S
C3912 C3918 1.379 . S
C3912 N3920 1.356 . S
C3913 C3912 1.363 . S
C3913 C3919 1.363 . S
C3914 C3915 1.363 . S
C3914 C3919 1.379 . S
C3914 N3921 1.356 . S
C3915 C3914 1.363 . S
C3915 C3918 1.363 . S
N3916 C3918 1.356 . S
N3916 H3928 0.984 . S
N3916 H3929 0.985 . S
N3917 C3919 1.356 . S
N3917 H3922 0.984 . S
N3917 H3923 0.985 . S
C3918 C3912 1.379 . S
C3918 C3915 1.363 . S
C3918 N3916 1.356 . S
C3919 C3913 1.363 . S
C3919 C3914 1.379 . S
C3919 N3917 1.356 . S
N3920 C3912 1.356 . S
N3920 H3926 0.984 . S
N3920 H3927 0.984 . S
N3921 C3914 1.356 . S
N3921 H3924 0.984 . S
N3921 H3925 0.985 . S
H3922 N3917 0.984 . S
H3923 N3917 0.985 . S
H3924 N3921 0.984 . S
H3925 N3921 0.985 . S
H3926 N3920 0.984 . S
H3927 N3920 0.984 . S
H3928 N3916 0.984 . S
H3929 N3916 0.985 . S
C3930 C3931 1.363 . S
C3930 C3936 1.379 . S
C3930 N3938 1.356 . S
C3931 C3930 1.363 . S
C3931 C3937 1.363 . S
C3932 C3933 1.363 . S
C3932 C3937 1.379 . S
C3932 N3939 1.356 . S
C3933 C3932 1.363 . S
C3933 C3936 1.363 . S
N3934 C3936 1.356 1_556 S
N3934 H3946 0.984 . S
N3934 H3947 0.985 . S
N3935 C3937 1.356 . S
N3935 H3940 0.984 . S
N3935 H3941 0.985 . S
C3936 C3930 1.379 . S
C3936 C3933 1.363 . S
C3936 N3934 1.356 1_554 S
C3937 C3931 1.363 . S
C3937 C3932 1.379 . S
C3937 N3935 1.356 . S
N3938 C3930 1.356 . S
N3938 H3944 0.984 1_554 S
N3938 H3945 0.984 . S
N3939 C3932 1.356 . S
N3939 H3942 0.984 . S
N3939 H3943 0.985 . S
H3940 N3935 0.984 . S
H3941 N3935 0.985 . S
H3942 N3939 0.984 . S
H3943 N3939 0.985 . S
H3944 N3938 0.984 1_556 S
H3945 N3938 0.984 . S
H3946 N3934 0.984 . S
H3947 N3934 0.985 . S
C3948 C3949 1.363 . S
C3948 C3954 1.379 . S
C3948 N3956 1.356 . S
C3949 C3948 1.363 . S
C3949 C3955 1.363 . S
C3950 C3951 1.363 . S
C3950 C3955 1.379 . S
C3950 N3957 1.356 . S
C3951 C3950 1.363 . S
C3951 C3954 1.363 . S
N3952 C3954 1.356 . S
N3952 H3964 0.984 . S
N3952 H3965 0.985 . S
N3953 C3955 1.336 1_556 S
N3953 H3958 0.998 . S
N3953 H3959 0.993 . S
C3954 C3948 1.379 . S
C3954 C3951 1.363 . S
C3954 N3952 1.356 . S
C3955 C3949 1.363 . S
C3955 C3950 1.379 . S
C3955 N3953 1.336 1_554 S
N3956 C3948 1.356 . S
N3956 H3962 0.984 . S
N3956 H3963 0.984 . S
N3957 C3950 1.356 . S
N3957 H3960 0.984 . S
N3957 H3961 0.985 . S
H3958 N3953 0.998 . S
H3959 N3953 0.993 . S
H3960 N3957 0.984 . S
H3961 N3957 0.985 . S
H3962 N3956 0.984 . S
H3963 N3956 0.984 . S
H3964 N3952 0.984 . S
H3965 N3952 0.985 . S
C3966 C3967 1.363 . S
C3966 C3972 1.379 . S
C3966 N3974 1.356 . S
C3967 C3966 1.363 . S
C3967 C3973 1.363 . S
C3968 C3969 1.363 . S
C3968 C3973 1.379 . S
C3968 N3975 1.356 . S
C3969 C3968 1.363 . S
C3969 C3972 1.363 . S
N3970 C3972 1.356 1_556 S
N3970 H3982 0.984 . S
N3970 H3983 0.985 . S
N3971 C3973 1.356 . S
N3971 H3976 0.984 . S
N3971 H3977 0.985 . S
C3972 C3966 1.379 . S
C3972 C3969 1.363 . S
C3972 N3970 1.356 1_554 S
C3973 C3967 1.363 . S
C3973 C3968 1.379 . S
C3973 N3971 1.356 . S
N3974 C3966 1.356 . S
N3974 H3980 0.984 1_554 S
N3974 H3981 0.984 . S
N3975 C3968 1.356 . S
N3975 H3978 0.984 . S
N3975 H3979 0.985 . S
H3976 N3971 0.984 . S
H3977 N3971 0.985 . S
H3978 N3975 0.984 . S
H3979 N3975 0.985 . S
H3980 N3974 0.984 1_556 S
H3981 N3974 0.984 . S
H3982 N3970 0.984 . S
H3983 N3970 0.985 . S
C3984 C3985 1.363 . S
C3984 C3990 1.379 . S
C3984 N3992 1.356 1_655 S
C3985 C3984 1.363 . S
C3985 C3991 1.363 . S
C3986 C3987 1.363 . S
C3986 C3991 1.379 . S
C3986 N3993 1.356 . S
C3987 C3986 1.363 . S
C3987 C3990 1.363 . S
N3988 C3990 1.356 . S
N3988 H4000 0.984 . S
N3988 H4001 0.985 . S
N3989 C3991 1.356 . S
N3989 H3994 0.984 . S
N3989 H3995 0.985 . S
C3990 C3984 1.379 . S
C3990 C3987 1.363 . S
C3990 N3988 1.356 . S
C3991 C3985 1.363 . S
C3991 C3986 1.379 . S
C3991 N3989 1.356 . S
N3992 C3984 1.356 1_455 S
N3992 H3998 0.984 . S
N3992 H3999 0.984 . S
N3993 C3986 1.356 . S
N3993 H3996 0.984 . S
N3993 H3997 0.985 . S
H3994 N3989 0.984 . S
H3995 N3989 0.985 . S
H3996 N3993 0.984 . S
H3997 N3993 0.985 . S
H3998 N3992 0.984 . S
H3999 N3992 0.984 . S
H4000 N3988 0.984 . S
H4001 N3988 0.985 . S
C4002 C4003 1.363 . S
C4002 C4008 1.379 . S
C4002 N4010 1.356 . S
C4003 C4002 1.363 . S
C4003 C4009 1.363 . S
C4004 C4005 1.363 . S
C4004 C4009 1.379 . S
C4004 N4011 1.356 1_565 S
C4005 C4004 1.363 . S
C4005 C4008 1.363 . S
N4006 C4008 1.356 . S
N4006 H4018 0.984 . S
N4006 H4019 0.985 . S
N4007 C4009 1.356 . S
N4007 H4012 0.984 . S
N4007 H4013 0.985 1_565 S
C4008 C4002 1.379 . S
C4008 C4005 1.363 . S
C4008 N4006 1.356 . S
C4009 C4003 1.363 . S
C4009 C4004 1.379 . S
C4009 N4007 1.356 . S
N4010 C4002 1.356 . S
N4010 H4016 0.984 . S
N4010 H4017 0.984 . S
N4011 C4004 1.356 1_545 S
N4011 H4014 0.984 . S
N4011 H4015 0.985 . S
H4012 N4007 0.984 . S
H4013 N4007 0.985 1_545 S
H4014 N4011 0.984 . S
H4015 N4011 0.985 . S
H4016 N4010 0.984 . S
H4017 N4010 0.984 . S
H4018 N4006 0.984 . S
H4019 N4006 0.985 . S
C4020 C4021 1.363 . S
C4020 C4026 1.379 . S
C4020 N4028 1.356 . S
C4021 C4020 1.363 . S
C4021 C4027 1.363 . S
C4022 C4023 1.363 . S
C4022 C4027 1.379 . S
C4022 N4029 1.356 . S
C4023 C4022 1.363 . S
C4023 C4026 1.363 . S
N4024 C4026 1.356 . S
N4024 H4036 0.984 . S
N4024 H4037 0.985 . S
N4025 C4027 1.356 . S
N4025 H4030 0.984 . S
N4025 H4031 0.985 . S
C4026 C4020 1.379 . S
C4026 C4023 1.363 . S
C4026 N4024 1.356 . S
C4027 C4021 1.363 . S
C4027 C4022 1.379 . S
C4027 N4025 1.356 . S
N4028 C4020 1.356 . S
N4028 H4034 0.984 . S
N4028 H4035 0.984 . S
N4029 C4022 1.356 . S
N4029 H4032 0.984 . S
N4029 H4033 0.985 . S
H4030 N4025 0.984 . S
H4031 N4025 0.985 . S
H4032 N4029 0.984 . S
H4033 N4029 0.985 . S
H4034 N4028 0.984 . S
H4035 N4028 0.984 . S
H4036 N4024 0.984 . S
H4037 N4024 0.985 . S
C4038 C4039 1.363 . S
C4038 C4044 1.379 . S
C4038 N4046 1.356 . S
C4039 C4038 1.363 . S
C4039 C4045 1.363 . S
C4040 C4041 1.363 . S
C4040 C4045 1.379 . S
C4040 N4047 1.356 . S
C4041 C4040 1.363 . S
C4041 C4044 1.363 . S
N4042 C4044 1.356 . S
N4042 H4054 0.984 . S
N4042 H4055 0.985 . S
N4043 C4045 1.356 . S
N4043 H4048 0.984 . S
N4043 H4049 0.985 . S
C4044 C4038 1.379 . S
C4044 C4041 1.363 . S
C4044 N4042 1.356 . S
C4045 C4039 1.363 . S
C4045 C4040 1.379 . S
C4045 N4043 1.356 . S
N4046 C4038 1.356 . S
N4046 H4052 0.984 . S
N4046 H4053 0.984 . S
N4047 C4040 1.356 . S
N4047 H4050 0.984 . S
N4047 H4051 0.985 . S
H4048 N4043 0.984 . S
H4049 N4043 0.985 . S
H4050 N4047 0.984 . S
H4051 N4047 0.985 . S
H4052 N4046 0.984 . S
H4053 N4046 0.984 . S
H4054 N4042 0.984 . S
H4055 N4042 0.985 . S
C4056 C4057 1.363 . S
C4056 C4062 1.379 . S
C4056 N4064 1.356 . S
C4057 C4056 1.363 . S
C4057 C4063 1.363 . S
C4058 C4059 1.363 . S
C4058 C4063 1.379 . S
C4058 N4065 1.356 1_655 S
C4059 C4058 1.363 . S
C4059 C4062 1.363 . S
N4060 C4062 1.356 . S
N4060 H4072 0.984 . S
N4060 H4073 0.985 . S
N4061 C4063 1.356 . S
N4061 H4066 0.984 . S
N4061 H4067 0.985 . S
C4062 C4056 1.379 . S
C4062 C4059 1.363 . S
C4062 N4060 1.356 . S
C4063 C4057 1.363 . S
C4063 C4058 1.379 . S
C4063 N4061 1.356 . S
N4064 C4056 1.356 . S
N4064 H4070 0.984 . S
N4064 H4071 0.984 . S
N4065 C4058 1.356 1_455 S
N4065 H4068 0.984 . S
N4065 H4069 0.985 . S
H4066 N4061 0.984 . S
H4067 N4061 0.985 . S
H4068 N4065 0.984 . S
H4069 N4065 0.985 . S
H4070 N4064 0.984 . S
H4071 N4064 0.984 . S
H4072 N4060 0.984 . S
H4073 N4060 0.985 . S
C4074 C4075 1.363 . S
C4074 C4080 1.379 . S
C4074 N4082 1.356 . S
C4075 C4074 1.363 . S
C4075 C4081 1.363 . S
C4076 C4077 1.363 . S
C4076 C4081 1.379 . S
C4076 N4083 1.356 . S
C4077 C4076 1.363 . S
C4077 C4080 1.363 . S
N4078 C4080 1.356 . S
N4078 H4090 0.984 . S
N4078 H4091 0.985 . S
N4079 C4081 1.356 1_545 S
N4079 H4084 0.984 . S
N4079 H4085 0.985 . S
C4080 C4074 1.379 . S
C4080 C4077 1.363 . S
C4080 N4078 1.356 . S
C4081 C4075 1.363 . S
C4081 C4076 1.379 . S
C4081 N4079 1.356 1_565 S
N4082 C4074 1.356 . S
N4082 H4088 0.984 . S
N4082 H4089 0.984 . S
N4083 C4076 1.356 . S
N4083 H4086 0.984 . S
N4083 H4087 0.985 . S
H4084 N4079 0.984 . S
H4085 N4079 0.985 . S
H4086 N4083 0.984 . S
H4087 N4083 0.985 . S
H4088 N4082 0.984 . S
H4089 N4082 0.984 . S
H4090 N4078 0.984 . S
H4091 N4078 0.985 . S
C4092 C4093 1.363 . S
C4092 C4098 1.379 . S
C4092 N4100 1.356 . S
C4093 C4092 1.363 . S
C4093 C4099 1.363 . S
C4094 C4095 1.363 . S
C4094 C4099 1.379 . S
C4094 N4101 1.356 . S
C4095 C4094 1.363 . S
C4095 C4098 1.363 . S
N4096 C4098 1.356 . S
N4096 H4108 0.984 . S
N4096 H4109 0.985 . S
N4097 C4099 1.356 . S
N4097 H4102 0.984 . S
N4097 H4103 0.985 . S
C4098 C4092 1.379 . S
C4098 C4095 1.363 . S
C4098 N4096 1.356 . S
C4099 C4093 1.363 . S
C4099 C4094 1.379 . S
C4099 N4097 1.356 . S
N4100 C4092 1.356 . S
N4100 H4106 0.984 . S
N4100 H4107 0.984 . S
N4101 C4094 1.356 . S
N4101 H4104 0.984 . S
N4101 H4105 0.985 . S
H4102 N4097 0.984 . S
H4103 N4097 0.985 . S
H4104 N4101 0.984 . S
H4105 N4101 0.985 . S
H4106 N4100 0.984 . S
H4107 N4100 0.984 . S
H4108 N4096 0.984 . S
H4109 N4096 0.985 . S
C4110 C4111 1.363 . S
C4110 C4116 1.379 . S
C4110 N4118 1.356 . S
C4111 C4110 1.363 . S
C4111 C4117 1.363 . S
C4112 C4113 1.363 . S
C4112 C4117 1.379 . S
C4112 N4119 1.356 . S
C4113 C4112 1.363 . S
C4113 C4116 1.363 . S
N4114 C4116 1.356 . S
N4114 H4126 0.984 . S
N4114 H4127 0.985 . S
N4115 C4117 1.356 . S
N4115 H4120 0.984 . S
N4115 H4121 0.985 . S
C4116 C4110 1.379 . S
C4116 C4113 1.363 . S
C4116 N4114 1.356 . S
C4117 C4111 1.363 . S
C4117 C4112 1.379 . S
C4117 N4115 1.356 . S
N4118 C4110 1.356 . S
N4118 H4124 0.984 . S
N4118 H4125 0.984 . S
N4119 C4112 1.356 . S
N4119 H4122 0.984 . S
N4119 H4123 0.985 . S
H4120 N4115 0.984 . S
H4121 N4115 0.985 . S
H4122 N4119 0.984 . S
H4123 N4119 0.985 . S
H4124 N4118 0.984 . S
H4125 N4118 0.984 . S
H4126 N4114 0.984 . S
H4127 N4114 0.985 . S
C4128 C4129 1.363 . S
C4128 C4134 1.379 . S
C4128 N4136 1.356 . S
C4129 C4128 1.363 . S
C4129 C4135 1.363 . S
C4130 C4131 1.363 . S
C4130 C4135 1.379 . S
C4130 N4137 1.356 . S
C4131 C4130 1.363 . S
C4131 C4134 1.363 . S
N4132 C4134 1.356 . S
N4132 H4144 0.984 . S
N4132 H4145 0.985 . S
N4133 C4135 1.356 . S
N4133 H4138 0.984 . S
N4133 H4139 0.985 . S
C4134 C4128 1.379 . S
C4134 C4131 1.363 . S
C4134 N4132 1.356 . S
C4135 C4129 1.363 . S
C4135 C4130 1.379 . S
C4135 N4133 1.356 . S
N4136 C4128 1.356 . S
N4136 H4142 0.984 . S
N4136 H4143 0.984 . S
N4137 C4130 1.356 . S
N4137 H4140 0.968 1_565 S
N4137 H4141 0.985 . S
H4138 N4133 0.984 . S
H4139 N4133 0.985 . S
H4140 N4137 0.968 1_545 S
H4141 N4137 0.985 . S
H4142 N4136 0.984 . S
H4143 N4136 0.984 . S
H4144 N4132 0.984 . S
H4145 N4132 0.985 . S
C4146 C4147 1.363 . S
C4146 C4152 1.379 . S
C4146 N4154 1.356 . S
C4147 C4146 1.363 . S
C4147 C4153 1.363 . S
C4148 C4149 1.363 . S
C4148 C4153 1.379 . S
C4148 N4155 1.356 . S
C4149 C4148 1.363 . S
C4149 C4152 1.363 . S
N4150 C4152 1.356 . S
N4150 H4162 0.984 . S
N4150 H4163 0.985 . S
N4151 C4153 1.356 . S
N4151 H4156 0.984 . S
N4151 H4157 0.985 . S
C4152 C4146 1.379 . S
C4152 C4149 1.363 . S
C4152 N4150 1.356 . S
C4153 C4147 1.363 . S
C4153 C4148 1.379 . S
C4153 N4151 1.356 . S
N4154 C4146 1.356 . S
N4154 H4160 0.984 . S
N4154 H4161 0.984 . S
N4155 C4148 1.356 . S
N4155 H4158 0.984 . S
N4155 H4159 0.985 . S
H4156 N4151 0.984 . S
H4157 N4151 0.985 . S
H4158 N4155 0.984 . S
H4159 N4155 0.985 . S
H4160 N4154 0.984 . S
H4161 N4154 0.984 . S
H4162 N4150 0.984 . S
H4163 N4150 0.985 . S
C4164 C4165 1.363 . S
C4164 C4170 1.379 . S
C4164 N4172 1.356 . S
C4165 C4164 1.363 . S
C4165 C4171 1.363 . S
C4166 C4167 1.363 . S
C4166 C4171 1.379 . S
C4166 N4173 1.356 . S
C4167 C4166 1.363 . S
C4167 C4170 1.363 . S
N4168 C4170 1.356 . S
N4168 H4180 0.984 . S
N4168 H4181 0.985 . S
N4169 C4171 1.356 . S
N4169 H4174 0.984 . S
N4169 H4175 0.985 . S
C4170 C4164 1.379 . S
C4170 C4167 1.363 . S
C4170 N4168 1.356 . S
C4171 C4165 1.363 . S
C4171 C4166 1.379 . S
C4171 N4169 1.356 . S
N4172 C4164 1.356 . S
N4172 H4178 0.984 . S
N4172 H4179 0.984 . S
N4173 C4166 1.356 . S
N4173 H4176 0.984 . S
N4173 H4177 0.985 . S
H4174 N4169 0.984 . S
H4175 N4169 0.985 . S
H4176 N4173 0.984 . S
H4177 N4173 0.985 . S
H4178 N4172 0.984 . S
H4179 N4172 0.984 . S
H4180 N4168 0.984 . S
H4181 N4168 0.985 . S
C4182 C4183 1.363 . S
C4182 C4188 1.379 . S
C4182 N4190 1.356 1_655 S
C4183 C4182 1.363 . S
C4183 C4189 1.363 . S
C4184 C4185 1.363 . S
C4184 C4189 1.379 . S
C4184 N4191 1.356 . S
C4185 C4184 1.363 . S
C4185 C4188 1.363 . S
N4186 C4188 1.356 . S
N4186 H4198 0.984 1_655 S
N4186 H4199 0.985 . S
N4187 C4189 1.356 . S
N4187 H4192 0.984 . S
N4187 H4193 0.985 . S
C4188 C4182 1.379 . S
C4188 C4185 1.363 . S
C4188 N4186 1.356 . S
C4189 C4183 1.363 . S
C4189 C4184 1.379 . S
C4189 N4187 1.356 . S
N4190 C4182 1.356 1_455 S
N4190 H4196 0.984 . S
N4190 H4197 0.984 . S
N4191 C4184 1.356 . S
N4191 H4194 0.984 . S
N4191 H4195 0.985 . S
H4192 N4187 0.984 . S
H4193 N4187 0.985 . S
H4194 N4191 0.984 . S
H4195 N4191 0.985 . S
H4196 N4190 0.984 . S
H4197 N4190 0.984 . S
H4198 N4186 0.984 1_455 S
H4199 N4186 0.985 . S
C4200 C4201 1.363 . S
C4200 C4206 1.379 . S
C4200 N4208 1.356 . S
C4201 C4200 1.363 . S
C4201 C4207 1.363 . S
C4202 C4203 1.363 . S
C4202 C4207 1.379 . S
C4202 N4209 1.356 . S
C4203 C4202 1.363 . S
C4203 C4206 1.363 . S
N4204 C4206 1.356 . S
N4204 H4216 0.984 . S
N4204 H4217 0.985 . S
N4205 C4207 1.356 . S
N4205 H4210 0.984 . S
N4205 H4211 0.985 . S
C4206 C4200 1.379 . S
C4206 C4203 1.363 . S
C4206 N4204 1.356 . S
C4207 C4201 1.363 . S
C4207 C4202 1.379 . S
C4207 N4205 1.356 . S
N4208 C4200 1.356 . S
N4208 H4214 0.984 . S
N4208 H4215 0.984 . S
N4209 C4202 1.356 . S
N4209 H4212 0.984 . S
N4209 H4213 0.985 . S
H4210 N4205 0.984 . S
H4211 N4205 0.985 . S
H4212 N4209 0.984 . S
H4213 N4209 0.985 . S
H4214 N4208 0.984 . S
H4215 N4208 0.984 . S
H4216 N4204 0.984 . S
H4217 N4204 0.985 . S
C4218 C4219 1.363 . S
C4218 C4224 1.379 . S
C4218 N4226 1.356 . S
C4219 C4218 1.363 . S
C4219 C4225 1.363 . S
C4220 C4221 1.363 . S
C4220 C4225 1.379 . S
C4220 N4227 1.356 . S
C4221 C4220 1.363 . S
C4221 C4224 1.363 . S
N4222 C4224 1.356 . S
N4222 H4234 0.984 . S
N4222 H4235 0.985 . S
N4223 C4225 1.356 1_455 S
N4223 H4228 0.984 . S
N4223 H4229 0.985 . S
C4224 C4218 1.379 . S
C4224 C4221 1.363 . S
C4224 N4222 1.356 . S
C4225 C4219 1.363 . S
C4225 C4220 1.379 . S
C4225 N4223 1.356 1_655 S
N4226 C4218 1.356 . S
N4226 H4232 0.984 . S
N4226 H4233 0.984 . S
N4227 C4220 1.356 . S
N4227 H4230 0.984 . S
N4227 H4231 0.984 1_655 S
H4228 N4223 0.984 . S
H4229 N4223 0.985 . S
H4230 N4227 0.984 . S
H4231 N4227 0.984 1_455 S
H4232 N4226 0.984 . S
H4233 N4226 0.984 . S
H4234 N4222 0.984 . S
H4235 N4222 0.985 . S
C4236 C4237 1.363 . S
C4236 C4242 1.379 . S
C4236 N4244 1.356 1_565 S
C4237 C4236 1.363 . S
C4237 C4243 1.363 . S
C4238 C4239 1.363 . S
C4238 C4243 1.379 . S
C4238 N4245 1.356 . S
C4239 C4238 1.363 . S
C4239 C4242 1.363 . S
N4240 C4242 1.356 . S
N4240 H4252 0.947 1_565 S
N4240 H4253 0.985 . S
N4241 C4243 1.356 . S
N4241 H4246 0.984 . S
N4241 H4247 0.985 . S
C4242 C4236 1.379 . S
C4242 C4239 1.363 . S
C4242 N4240 1.356 . S
C4243 C4237 1.363 . S
C4243 C4238 1.379 . S
C4243 N4241 1.356 . S
N4244 C4236 1.356 1_545 S
N4244 H4250 0.984 . S
N4244 H4251 0.984 . S
N4245 C4238 1.356 . S
N4245 H4248 0.984 . S
N4245 H4249 0.985 . S
H4246 N4241 0.984 . S
H4247 N4241 0.985 . S
H4248 N4245 0.984 . S
H4249 N4245 0.985 . S
H4250 N4244 0.984 . S
H4251 N4244 0.984 . S
H4252 N4240 0.947 1_545 S
H4253 N4240 0.985 . S
C4254 C4255 1.363 . S
C4254 C4260 1.379 . S
C4254 N4262 1.356 . S
C4255 C4254 1.363 . S
C4255 C4261 1.363 . S
C4256 C4257 1.363 . S
C4256 C4261 1.379 . S
C4256 N4263 1.356 . S
C4257 C4256 1.363 . S
C4257 C4260 1.363 . S
N4258 C4260 1.356 . S
N4258 H4270 0.984 . S
N4258 H4271 0.985 . S
N4259 C4261 1.356 . S
N4259 H4264 0.984 . S
N4259 H4265 0.985 . S
C4260 C4254 1.379 . S
C4260 C4257 1.363 . S
C4260 N4258 1.356 . S
C4261 C4255 1.363 . S
C4261 C4256 1.379 . S
C4261 N4259 1.356 . S
N4262 C4254 1.356 . S
N4262 H4268 0.984 . S
N4262 H4269 0.984 . S
N4263 C4256 1.356 . S
N4263 H4266 0.984 . S
N4263 H4267 0.985 . S
H4264 N4259 0.984 . S
H4265 N4259 0.985 . S
H4266 N4263 0.984 . S
H4267 N4263 0.985 . S
H4268 N4262 0.984 . S
H4269 N4262 0.984 . S
H4270 N4258 0.984 . S
H4271 N4258 0.985 . S
C4272 C4273 1.363 . S
C4272 C4278 1.379 . S
C4272 N4280 1.356 . S
C4273 C4272 1.363 . S
C4273 C4279 1.363 . S
C4274 C4275 1.363 . S
C4274 C4279 1.379 . S
C4274 N4281 1.356 . S
C4275 C4274 1.363 . S
C4275 C4278 1.363 . S
N4276 C4278 1.356 . S
N4276 H4288 0.984 . S
N4276 H4289 0.985 . S
N4277 C4279 1.356 1_554 S
N4277 H4282 0.984 . S
N4277 H4283 0.985 . S
C4278 C4272 1.379 . S
C4278 C4275 1.363 . S
C4278 N4276 1.356 . S
C4279 C4273 1.363 . S
C4279 C4274 1.379 . S
C4279 N4277 1.356 1_556 S
N4280 C4272 1.356 . S
N4280 H4286 0.984 . S
N4280 H4287 0.984 . S
N4281 C4274 1.356 . S
N4281 H4284 0.984 . S
N4281 H4285 0.985 1_556 S
H4282 N4277 0.984 . S
H4283 N4277 0.985 . S
H4284 N4281 0.984 . S
H4285 N4281 0.985 1_554 S
H4286 N4280 0.984 . S
H4287 N4280 0.984 . S
H4288 N4276 0.984 . S
H4289 N4276 0.985 . S
C4290 C4291 1.363 . S
C4290 C4296 1.379 . S
C4290 N4298 1.356 . S
C4291 C4290 1.363 . S
C4291 C4297 1.363 . S
C4292 C4293 1.363 . S
C4292 C4297 1.379 . S
C4292 N4299 1.356 . S
C4293 C4292 1.363 . S
C4293 C4296 1.363 . S
N4294 C4296 1.356 . S
N4294 H4306 0.984 . S
N4294 H4307 0.985 . S
N4295 C4297 1.356 . S
N4295 H4300 0.984 . S
N4295 H4301 0.985 . S
C4296 C4290 1.379 . S
C4296 C4293 1.363 . S
C4296 N4294 1.356 . S
C4297 C4291 1.363 . S
C4297 C4292 1.379 . S
C4297 N4295 1.356 . S
N4298 C4290 1.356 . S
N4298 H4304 0.984 . S
N4298 H4305 0.984 . S
N4299 C4292 1.356 . S
N4299 H4302 0.984 . S
N4299 H4303 0.985 . S
H4300 N4295 0.984 . S
H4301 N4295 0.985 . S
H4302 N4299 0.984 . S
H4303 N4299 0.985 . S
H4304 N4298 0.984 . S
H4305 N4298 0.984 . S
H4306 N4294 0.984 . S
H4307 N4294 0.985 . S
C4308 C4309 1.363 . S
C4308 C4314 1.379 . S
C4308 N4316 1.356 . S
C4309 C4308 1.363 . S
C4309 C4315 1.363 . S
C4310 C4311 1.363 . S
C4310 C4315 1.379 . S
C4310 N4317 1.356 . S
C4311 C4310 1.363 . S
C4311 C4314 1.363 . S
N4312 C4314 1.356 . S
N4312 H4324 0.984 . S
N4312 H4325 0.985 . S
N4313 C4315 1.356 . S
N4313 H4318 0.984 . S
N4313 H4319 0.985 . S
C4314 C4308 1.379 . S
C4314 C4311 1.363 . S
C4314 N4312 1.356 . S
C4315 C4309 1.363 . S
C4315 C4310 1.379 . S
C4315 N4313 1.356 . S
N4316 C4308 1.356 . S
N4316 H4322 0.984 . S
N4316 H4323 0.984 . S
N4317 C4310 1.356 . S
N4317 H4320 0.984 . S
N4317 H4321 0.985 . S
H4318 N4313 0.984 . S
H4319 N4313 0.985 . S
H4320 N4317 0.984 . S
H4321 N4317 0.985 . S
H4322 N4316 0.984 . S
H4323 N4316 0.984 . S
H4324 N4312 0.984 . S
H4325 N4312 0.985 . S
C4326 C4327 1.363 . S
C4326 C4332 1.379 . S
C4326 N4334 1.356 . S
C4327 C4326 1.363 . S
C4327 C4333 1.363 . S
C4328 C4329 1.363 . S
C4328 C4333 1.379 . S
C4328 N4335 1.356 . S
C4329 C4328 1.363 . S
C4329 C4332 1.363 . S
N4330 C4332 1.356 . S
N4330 H4342 0.984 . S
N4330 H4343 0.985 . S
N4331 C4333 1.356 . S
N4331 H4336 0.984 . S
N4331 H4337 0.985 . S
C4332 C4326 1.379 . S
C4332 C4329 1.363 . S
C4332 N4330 1.356 . S
C4333 C4327 1.363 . S
C4333 C4328 1.379 . S
C4333 N4331 1.356 . S
N4334 C4326 1.356 . S
N4334 H4340 0.984 . S
N4334 H4341 0.984 . S
N4335 C4328 1.356 . S
N4335 H4338 0.984 . S
N4335 H4339 0.985 . S
H4336 N4331 0.984 . S
H4337 N4331 0.985 . S
H4338 N4335 0.984 . S
H4339 N4335 0.985 . S
H4340 N4334 0.984 . S
H4341 N4334 0.984 . S
H4342 N4330 0.984 . S
H4343 N4330 0.985 . S
C4344 C4345 1.363 . S
C4344 C4350 1.379 . S
C4344 N4352 1.356 . S
C4345 C4344 1.363 . S
C4345 C4351 1.363 . S
C4346 C4347 1.363 . S
C4346 C4351 1.379 . S
C4346 N4353 1.356 . S
C4347 C4346 1.363 . S
C4347 C4350 1.363 . S
N4348 C4350 1.356 . S
N4348 H4360 0.984 . S
N4348 H4361 0.985 . S
N4349 C4351 1.356 . S
N4349 H4354 0.984 . S
N4349 H4355 0.985 . S
C4350 C4344 1.379 . S
C4350 C4347 1.363 . S
C4350 N4348 1.356 . S
C4351 C4345 1.363 . S
C4351 C4346 1.379 . S
C4351 N4349 1.356 . S
N4352 C4344 1.356 . S
N4352 H4358 0.984 . S
N4352 H4359 0.984 . S
N4353 C4346 1.356 . S
N4353 H4356 0.984 . S
N4353 H4357 0.985 . S
H4354 N4349 0.984 . S
H4355 N4349 0.985 . S
H4356 N4353 0.984 . S
H4357 N4353 0.985 . S
H4358 N4352 0.984 . S
H4359 N4352 0.984 . S
H4360 N4348 0.984 . S
H4361 N4348 0.985 . S
C4362 C4363 1.363 . S
C4362 C4368 1.379 . S
C4362 N4370 1.356 1_556 S
C4363 C4362 1.363 . S
C4363 C4369 1.363 . S
C4364 C4365 1.363 . S
C4364 C4369 1.379 . S
C4364 N4371 1.356 . S
C4365 C4364 1.363 . S
C4365 C4368 1.363 . S
N4366 C4368 1.356 . S
N4366 H4378 0.984 1_556 S
N4366 H4379 0.985 . S
N4367 C4369 1.356 . S
N4367 H4372 0.984 . S
N4367 H4373 0.985 . S
C4368 C4362 1.379 . S
C4368 C4365 1.363 . S
C4368 N4366 1.356 . S
C4369 C4363 1.363 . S
C4369 C4364 1.379 . S
C4369 N4367 1.356 . S
N4370 C4362 1.356 1_554 S
N4370 H4376 0.984 . S
N4370 H4377 0.984 . S
N4371 C4364 1.356 . S
N4371 H4374 0.984 . S
N4371 H4375 0.985 . S
H4372 N4367 0.984 . S
H4373 N4367 0.985 . S
H4374 N4371 0.984 . S
H4375 N4371 0.985 . S
H4376 N4370 0.984 . S
H4377 N4370 0.984 . S
H4378 N4366 0.984 1_554 S
H4379 N4366 0.985 . S
C4380 C4381 1.363 . S
C4380 C4386 1.379 . S
C4380 N4388 1.356 . S
C4381 C4380 1.363 . S
C4381 C4387 1.363 . S
C4382 C4383 1.363 . S
C4382 C4387 1.379 . S
C4382 N4389 1.356 1_556 S
C4383 C4382 1.363 . S
C4383 C4386 1.363 . S
N4384 C4386 1.356 . S
N4384 H4396 0.984 . S
N4384 H4397 0.985 . S
N4385 C4387 1.356 . S
N4385 H4390 0.984 . S
N4385 H4391 0.985 1_556 S
C4386 C4380 1.379 . S
C4386 C4383 1.363 . S
C4386 N4384 1.356 . S
C4387 C4381 1.363 . S
C4387 C4382 1.379 . S
C4387 N4385 1.356 . S
N4388 C4380 1.356 . S
N4388 H4394 0.984 . S
N4388 H4395 0.984 . S
N4389 C4382 1.356 1_554 S
N4389 H4392 0.984 . S
N4389 H4393 0.985 . S
H4390 N4385 0.984 . S
H4391 N4385 0.985 1_554 S
H4392 N4389 0.984 . S
H4393 N4389 0.985 . S
H4394 N4388 0.984 . S
H4395 N4388 0.984 . S
H4396 N4384 0.984 . S
H4397 N4384 0.985 . S
C4398 C4399 1.363 . S
C4398 C4404 1.379 . S
C4398 N4406 1.356 . S
C4399 C4398 1.363 . S
C4399 C4405 1.363 . S
C4400 C4401 1.363 . S
C4400 C4405 1.379 . S
C4400 N4407 1.356 . S
C4401 C4400 1.363 . S
C4401 C4404 1.363 . S
N4402 C4404 1.356 1_554 S
N4402 H4414 0.984 . S
N4402 H4415 0.985 . S
N4403 C4405 1.356 . S
N4403 H4408 0.984 . S
N4403 H4409 0.985 . S
C4404 C4398 1.379 . S
C4404 C4401 1.363 . S
C4404 N4402 1.356 1_556 S
C4405 C4399 1.363 . S
C4405 C4400 1.379 . S
C4405 N4403 1.356 . S
N4406 C4398 1.356 . S
N4406 H4412 0.984 1_556 S
N4406 H4413 0.984 . S
N4407 C4400 1.356 . S
N4407 H4410 0.984 . S
N4407 H4411 0.985 . S
H4408 N4403 0.984 . S
H4409 N4403 0.985 . S
H4410 N4407 0.984 . S
H4411 N4407 0.985 . S
H4412 N4406 0.984 1_554 S
H4413 N4406 0.984 . S
H4414 N4402 0.984 . S
H4415 N4402 0.985 . S
C1393 C5 2.921 . S
C1395 C643 2.921 . S
C1411 C469 2.921 . S
C1413 C34 2.921 . S
C1429 C63 2.921 . S
C1431 C672 2.921 . S
C1447 C92 2.921 . S
C1449 C614 2.921 . S
C1465 C121 2.921 . S
C1467 C527 2.921 . S
C1483 C556 2.921 . S
C1485 C150 2.921 . S
C1501 C585 2.921 . S
C1503 C179 2.921 . S
C1519 C498 2.921 . S
C1521 C208 2.921 . S
C1537 C237 2.921 . S
C1539 C382 2.921 . S
C1555 C266 2.921 . S
C1557 C411 2.921 . S
C1573 C295 2.921 . S
C1575 C440 2.921 . S
C1591 C353 2.921 . S
C1593 C324 2.921 . S
C1609 C701 2.921 . S
C1611 C1339 2.921 . S
C1627 C730 2.921 . S
C1629 C1165 2.921 . S
C1645 C759 2.921 . S
C1647 C1368 2.921 . S
C1663 C788 2.921 . S
C1665 C1310 2.921 . S
C1681 C1223 2.921 . S
C1683 C817 2.921 . S
C1699 C1252 2.921 . S
C1701 C846 2.921 . S
C1717 C1281 2.921 . S
C1719 C875 2.921 . S
C1735 C904 2.921 . S
C1737 C1194 2.921 . S
C1753 C1078 2.921 . S
C1755 C933 2.921 . S
C1771 C962 2.921 . S
C1773 C1107 2.921 . S
C1789 C1136 2.921 . S
C1791 C991 2.921 . S
C1807 C1020 2.921 . S
C1809 C1049 2.921 . S
C1825 C21 1.811 . S
C1827 C1315 1.883 . S
C1843 C50 1.811 . S
C1845 C1344 1.883 . S
C1861 C1170 1.883 . S
C1863 C79 1.811 . S
C1879 C108 1.811 . S
C1881 C1373 1.883 . S
C1897 C1257 1.883 . S
C1899 C137 1.811 . S
C1915 C166 1.811 . S
C1917 C1286 1.883 . S
C1933 C195 1.811 . S
C1935 C1199 1.883 . S
C1951 C224 1.811 . S
C1953 C1228 1.883 . S
C1969 C822 1.883 . S
C1971 C253 1.811 . S
C1987 C851 1.883 . S
C1989 C282 1.811 . S
C2005 C311 1.811 . S
C2007 C880 1.883 . S
C2023 C909 1.883 . S
C2025 C340 1.811 . S
C2041 C369 1.811 . S
C2043 C706 1.883 . S
C2059 C735 1.883 . S
C2061 C398 1.811 . S
C2077 C427 1.811 . S
C2079 C764 1.883 . S
C2095 C793 1.883 . S
C2097 C456 1.811 . S
C2113 C1112 1.883 . S
C2115 C485 1.811 . S
C2131 C514 1.811 . S
C2133 C996 1.883 . S
C2149 C543 1.811 . S
C2151 C1025 1.883 . S
C2167 C572 1.811 . S
C2169 C938 1.883 . S
C2185 C601 1.811 . S
C2187 C967 1.883 . S
C2203 C1054 1.883 . S
C2205 C630 1.811 . S
C2221 C659 1.811 . S
C2223 C1083 1.883 . S
C2239 C1141 1.883 . S
C2241 C688 1.811 . S
C2257 C619 1.883 . S
C2259 C717 1.811 . S
C2275 C648 1.883 . S
C2277 C746 1.811 . S
C2293 C474 1.883 . S
C2295 C775 1.811 . S
C2311 C804 1.811 . S
C2313 C677 1.883 . S
C2329 C833 1.811 . S
C2331 C561 1.883 . S
C2347 C590 1.883 . S
C2349 C862 1.811 . S
C2365 C891 1.811 . S
C2367 C503 1.883 . S
C2383 C532 1.883 . S
C2385 C920 1.811 . S
C2401 C949 1.811 . S
C2403 C126 1.883 . S
C2419 C155 1.883 . S
C2421 C978 1.811 . S
C2437 C1007 1.811 . S
C2439 C184 1.883 . S
C2455 C1036 1.811 . S
C2457 C213 1.883 . S
C2473 C10 1.883 . S
C2475 C1065 1.811 . S
C2491 C1094 1.811 . S
C2493 C39 1.883 . S
C2509 C68 1.883 . S
C2511 C1123 1.811 . S
C2527 C1152 1.811 . S
C2529 C97 1.883 . S
C2545 C1181 1.811 . S
C2547 C416 1.883 . S
C2563 C300 1.883 . S
C2565 C1210 1.811 . S
C2581 C1239 1.811 . S
C2583 C329 1.883 . S
C2599 C242 1.883 . S
C2601 C1268 1.811 . S
C2617 C1297 1.811 . S
C2619 C271 1.883 . S
C2635 C358 1.883 . S
C2637 C1326 1.811 . S
C2653 C387 1.883 . S
C2655 C1355 1.811 . S
C2671 C445 1.883 . S
C2673 C1384 1.811 . S
C2689 C3 1.675 . S
C2691 C680 1.420 . S
C2707 C622 1.420 . S
C2709 C32 1.675 . S
C2725 C651 1.420 . S
C2727 C61 1.675 . S
C2743 C477 1.420 . S
C2745 C90 1.675 . S
C2761 C119 1.675 . S
C2763 C593 1.420 . S
C2779 C148 1.675 . S
C2781 C506 1.420 . S
C2797 C177 1.675 . S
C2799 C535 1.420 . S
C2815 C564 1.420 . S
C2817 C206 1.675 . S
C2833 C332 1.420 . S
C2835 C235 1.675 . S
C2851 C245 1.420 . S
C2853 C264 1.675 . S
C2869 C293 1.675 . S
C2871 C274 1.420 . S
C2887 C303 1.420 . S
C2889 C322 1.675 . S
C2905 C351 1.675 . S
C2907 C390 1.420 . S
C2923 C380 1.675 . S
C2925 C419 1.420 . S
C2941 C409 1.675 . S
C2943 C448 1.420 . S
C2959 C438 1.675 . S
C2961 C361 1.420 . S
C2977 C467 1.675 . S
C2979 C158 1.420 . S
C2995 C100 1.420 . S
C2997 C496 1.675 . S
C3013 C13 1.420 . S
C3015 C525 1.675 . S
C3031 C554 1.675 . S
C3033 C42 1.420 . S
C3049 C71 1.420 . S
C3051 C583 1.675 . S
C3067 C216 1.420 . S
C3069 C612 1.675 . S
C3085 C641 1.675 . S
C3087 C129 1.420 . S
C3103 C187 1.420 . S
C3105 C670 1.675 . S
C3121 C699 1.675 . S
C3123 C1376 1.420 . S
C3139 C728 1.675 . S
C3141 C1318 1.420 . S
C3157 C1347 1.420 . S
C3159 C757 1.675 . S
C3175 C1173 1.420 . S
C3177 C786 1.675 . S
C3193 C815 1.675 . S
C3195 C1289 1.420 . S
C3211 C1202 1.420 . S
C3213 C844 1.675 . S
C3229 C873 1.675 . S
C3231 C1231 1.420 . S
C3247 C1260 1.420 . S
C3249 C902 1.675 . S
C3265 C931 1.675 . S
C3267 C1028 1.420 . S
C3283 C941 1.420 . S
C3285 C960 1.675 . S
C3301 C989 1.675 . S
C3303 C970 1.420 . S
C3319 C999 1.420 . S
C3321 C1018 1.675 . S
C3337 C1047 1.675 . S
C3339 C1086 1.420 . S
C3355 C1115 1.420 . S
C3357 C1076 1.675 . S
C3373 C1144 1.420 . S
C3375 C1105 1.675 . S
C3391 C1057 1.420 . S
C3393 C1134 1.675 . S
C3409 C854 1.420 . S
C3411 C1163 1.675 . S
C3427 C796 1.420 . S
C3429 C1192 1.675 . S
C3445 C709 1.420 . S
C3447 C1221 1.675 . S
C3463 C738 1.420 . S
C3465 C1250 1.675 . S
C3481 C767 1.420 . S
C3483 C1279 1.675 . S
C3499 C1308 1.675 . S
C3501 C912 1.420 . S
C3517 C1337 1.675 . S
C3519 C825 1.420 . S
C3535 C883 1.420 . S
C3537 C1366 1.675 . S
C3553 C1023 0.997 1_455 S
C3555 C15 1.089 . S
C3571 C936 0.997 1_545 S
C3573 C44 1.089 . S
C3589 C965 0.997 . S
C3591 C73 1.089 . S
C3607 C102 1.089 . S
C3609 C994 0.997 . S
C3625 C131 1.089 . S
C3627 C1081 0.997 1_455 S
C3643 C160 1.089 . S
C3645 C1110 0.997 1_545 S
C3661 C189 1.089 . S
C3663 C1139 0.997 . S
C3679 C1052 0.997 . S
C3681 C218 1.089 . S
C3697 C849 0.997 1_545 S
C3699 C247 1.089 . S
C3715 C276 1.089 . S
C3717 C878 0.997 . S
C3733 C907 0.997 . S
C3735 C305 1.089 . S
C3751 C334 1.089 . S
C3753 C820 0.997 1_455 S
C3769 C363 1.089 . S
C3771 C791 0.997 . S
C3787 C392 1.089 . S
C3789 C704 0.997 1_455 S
C3805 C733 0.997 1_545 S
C3807 C421 1.089 . S
C3823 C762 0.997 . S
C3825 C450 1.089 . S
C3841 C479 1.089 . S
C3843 C1371 0.997 1_554 S
C3859 C1284 0.997 . S
C3861 C508 1.089 . S
C3877 C537 1.089 . S
C3879 C1197 0.997 . S
C3895 C1226 0.997 . S
C3897 C566 1.089 . S
C3913 C1255 0.997 . S
C3915 C595 1.089 . S
C3931 C624 1.089 . S
C3933 C1342 0.997 1_554 S
C3949 C1168 0.997 1_554 S
C3951 C653 1.089 . S
C3967 C682 1.089 . S
C3969 C1313 0.997 1_554 S
C3985 C327 0.997 1_655 S
C3987 C711 1.089 . S
C4003 C740 1.089 . S
C4005 C240 0.997 1_565 S
C4021 C769 1.089 . S
C4023 C269 0.997 . S
C4039 C298 0.997 . S
C4041 C798 1.089 . S
C4057 C827 1.089 . S
C4059 C385 0.997 1_655 S
C4075 C414 0.997 1_565 S
C4077 C856 1.089 . S
C4093 C443 0.997 . S
C4095 C885 1.089 . S
C4111 C356 0.997 . S
C4113 C914 1.089 . S
C4129 C943 1.089 . S
C4131 C153 0.997 1_565 S
C4147 C182 0.997 . S
C4149 C972 1.089 . S
C4165 C211 0.997 . S
C4167 C1001 1.089 . S
C4183 C124 0.997 1_655 S
C4185 C1030 1.089 . S
C4201 C95 0.997 . S
C4203 C1059 1.089 . S
C4219 C8 0.997 1_655 S
C4221 C1088 1.089 . S
C4237 C37 0.997 1_565 S
C4239 C1117 1.089 . S
C4255 C1146 1.089 . S
C4257 C66 0.997 . S
C4273 C675 0.997 1_556 S
C4275 C1175 1.089 . S
C4291 C1204 1.089 . S
C4293 C588 0.997 . S
C4309 C1233 1.089 . S
C4311 C501 0.997 . S
C4327 C1262 1.089 . S
C4329 C530 0.997 . S
C4345 C1291 1.089 . S
C4347 C559 0.997 . S
C4363 C646 0.997 1_556 S
C4365 C1320 1.089 . S
C4381 C1349 1.089 . S
C4383 C472 0.997 1_556 S
C4399 C1378 1.089 . S
C4401 C617 0.997 1_556 S
