# Generated by pormake.
# Topology wme, (6)-cn, num edge types: 1
# Building blocks:
#     Node 0, Type 0, BuildingBlock: LEVNOQ01_clean_sbu_1, # of connection points: 6
#     Node 1, Type 0, BuildingBlock: LEVNOQ01_clean_sbu_1, # of connection points: 6
#     Node 2, Type 0, BuildingBlock: LEVNOQ01_clean_sbu_1, # of connection points: 6
#     Node 3, Type 0, BuildingBlock: LEVNOQ01_clean_sbu_1, # of connection points: 6
#     Node 4, Type 0, BuildingBlock: LEVNOQ01_clean_sbu_1, # of connection points: 6
#     Node 5, Type 0, BuildingBlock: LEVNOQ01_clean_sbu_1, # of connection points: 6
#     Node 6, Type 0, BuildingBlock: LEVNOQ01_clean_sbu_1, # of connection points: 6
#     Node 7, Type 0, BuildingBlock: LEVNOQ01_clean_sbu_1, # of connection points: 6
#     Node 8, Type 0, BuildingBlock: LEVNOQ01_clean_sbu_1, # of connection points: 6
#     Node 9, Type 0, BuildingBlock: LEVNOQ01_clean_sbu_1, # of connection points: 6
#     Node 10, Type 0, BuildingBlock: LEVNOQ01_clean_sbu_1, # of connection points: 6
#     Node 11, Type 0, BuildingBlock: LEVNOQ01_clean_sbu_1, # of connection points: 6
#     Edge 12, Type (0, 0), BuildingBlock: EYOCIG_clean_linker_4, # of connection points: 2
#     Edge 13, Type (0, 0), BuildingBlock: EYOCIG_clean_linker_4, # of connection points: 2
#     Edge 14, Type (0, 0), BuildingBlock: EYOCIG_clean_linker_4, # of connection points: 2
#     Edge 15, Type (0, 0), BuildingBlock: EYOCIG_clean_linker_4, # of connection points: 2
#     Edge 16, Type (0, 0), BuildingBlock: EYOCIG_clean_linker_4, # of connection points: 2
#     Edge 17, Type (0, 0), BuildingBlock: EYOCIG_clean_linker_4, # of connection points: 2
#     Edge 18, Type (0, 0), BuildingBlock: EYOCIG_clean_linker_4, # of connection points: 2
#     Edge 19, Type (0, 0), BuildingBlock: EYOCIG_clean_linker_4, # of connection points: 2
#     Edge 20, Type (0, 0), BuildingBlock: EYOCIG_clean_linker_4, # of connection points: 2
#     Edge 21, Type (0, 0), BuildingBlock: EYOCIG_clean_linker_4, # of connection points: 2
#     Edge 22, Type (0, 0), BuildingBlock: EYOCIG_clean_linker_4, # of connection points: 2
#     Edge 23, Type (0, 0), BuildingBlock: EYOCIG_clean_linker_4, # of connection points: 2
#     Edge 24, Type (0, 0), BuildingBlock: EYOCIG_clean_linker_4, # of connection points: 2
#     Edge 25, Type (0, 0), BuildingBlock: EYOCIG_clean_linker_4, # of connection points: 2
#     Edge 26, Type (0, 0), BuildingBlock: EYOCIG_clean_linker_4, # of connection points: 2
#     Edge 27, Type (0, 0), BuildingBlock: EYOCIG_clean_linker_4, # of connection points: 2
#     Edge 28, Type (0, 0), BuildingBlock: EYOCIG_clean_linker_4, # of connection points: 2
#     Edge 29, Type (0, 0), BuildingBlock: EYOCIG_clean_linker_4, # of connection points: 2
#     Edge 30, Type (0, 0), BuildingBlock: EYOCIG_clean_linker_4, # of connection points: 2
#     Edge 31, Type (0, 0), BuildingBlock: EYOCIG_clean_linker_4, # of connection points: 2
#     Edge 32, Type (0, 0), BuildingBlock: EYOCIG_clean_linker_4, # of connection points: 2
#     Edge 33, Type (0, 0), BuildingBlock: EYOCIG_clean_linker_4, # of connection points: 2
#     Edge 34, Type (0, 0), BuildingBlock: EYOCIG_clean_linker_4, # of connection points: 2
#     Edge 35, Type (0, 0), BuildingBlock: EYOCIG_clean_linker_4, # of connection points: 2
#     Edge 36, Type (0, 0), BuildingBlock: EYOCIG_clean_linker_4, # of connection points: 2
#     Edge 37, Type (0, 0), BuildingBlock: EYOCIG_clean_linker_4, # of connection points: 2
#     Edge 38, Type (0, 0), BuildingBlock: EYOCIG_clean_linker_4, # of connection points: 2
#     Edge 39, Type (0, 0), BuildingBlock: EYOCIG_clean_linker_4, # of connection points: 2
#     Edge 40, Type (0, 0), BuildingBlock: EYOCIG_clean_linker_4, # of connection points: 2
#     Edge 41, Type (0, 0), BuildingBlock: EYOCIG_clean_linker_4, # of connection points: 2
#     Edge 42, Type (0, 0), BuildingBlock: EYOCIG_clean_linker_4, # of connection points: 2
#     Edge 43, Type (0, 0), BuildingBlock: EYOCIG_clean_linker_4, # of connection points: 2
#     Edge 44, Type (0, 0), BuildingBlock: EYOCIG_clean_linker_4, # of connection points: 2
#     Edge 45, Type (0, 0), BuildingBlock: EYOCIG_clean_linker_4, # of connection points: 2
#     Edge 46, Type (0, 0), BuildingBlock: EYOCIG_clean_linker_4, # of connection points: 2
#     Edge 47, Type (0, 0), BuildingBlock: EYOCIG_clean_linker_4, # of connection points: 2
# Relax obj value: 0.152
# Max RMSD: 0.186
# Mean RMSD: 0.186
data_MOF--net-wme--node1-LEVNOQ01_clean_sbu_1--edge1-EYOCIG_clean_linker_4
_symmetry_space_group_name_H-M    P1
_symmetry_Int_Tables_number       1
_symmetry_cell_setting            triclinic
loop_
_symmetry_equiv_pos_as_xyz
'x, y, z'
_cell_length_a     25.162446
_cell_length_b     25.169249
_cell_length_c     44.474377
_cell_angle_alpha  89.990997
_cell_angle_beta   90.013323
_cell_angle_gamma 119.99012
loop_
_atom_site_label
_atom_site_type_symbol
_atom_site_fract_x
_atom_site_fract_y
_atom_site_fract_z
_atom_type_partial_charge
O0 O 0.14711 0.16524 0.15894 0.0
Mg1 Mg 0.09377 0.19892 0.17866 0.0
O2 O 0.18392 0.23572 0.12294 0.0
Mg3 Mg 0.15291 0.30768 0.13148 0.0
O4 O 0.14141 0.29245 0.18274 0.0
O5 O 0.10806 0.22954 0.22227 0.0
O6 O 0.12093 0.37895 0.13872 0.0
O7 O 0.2544 0.38176 0.14017 0.0
Mg8 Mg 0.19878 0.41467 0.07668 0.0
O9 O 0.16661 0.32474 0.0822 0.0
O10 O 0.131 0.43068 0.09632 0.0
O11 O 0.28058 0.45138 0.10332 0.0
O12 O 0.19124 0.36337 0.03699 0.0
C13 C 0.00383 0.19389 0.13351 0.0
C14 C 0.17843 0.18754 0.13528 0.0
C15 C 0.13523 0.28452 0.21161 0.0
C16 C 0.11183 0.4163 0.12317 0.0
C17 C 0.29308 0.43152 0.1271 0.0
C18 C 0.17466 0.31696 0.05443 0.0
O19 O 0.00838 0.17155 0.15823 0.0
O20 O 0.05018 0.23822 0.1208 0.0
O21 O 0.95638 0.15833 0.65878 0.0
Mg22 Mg 0.86935 0.10495 0.67846 0.0
O23 O 0.92285 0.19545 0.62284 0.0
Mg24 Mg 0.81985 0.16434 0.63134 0.0
O25 O 0.82355 0.1527 0.68259 0.0
O26 O 0.85299 0.11912 0.72209 0.0
O27 O 0.71659 0.13229 0.63857 0.0
O28 O 0.84716 0.26578 0.6401 0.0
Mg29 Mg 0.75872 0.21036 0.57659 0.0
O30 O 0.81652 0.17819 0.58207 0.0
O31 O 0.67493 0.14253 0.5962 0.0
O32 O 0.80376 0.29208 0.60327 0.0
O33 O 0.8025 0.20292 0.53689 0.0
C34 C 0.78457 0.01526 0.63324 0.0
C35 C -0.03451 0.18985 0.63518 0.0
C36 C 0.82527 0.14643 0.71146 0.0
C37 C 0.67015 0.12324 0.62303 0.0
C38 C 0.83609 0.3045 0.62706 0.0
C39 C 0.83233 0.18629 0.5543 0.0
O40 O 0.81134 0.01966 0.65799 0.0
O41 O 0.78667 0.06168 0.62056 0.0
O42 O 0.77367 0.96879 0.15919 0.0
Mg43 Mg 0.73981 0.88166 0.1788 0.0
O44 O 0.7032 0.93562 0.12317 0.0
Mg45 Mg 0.63118 0.83264 0.1315 0.0
O46 O 0.64625 0.83606 0.18276 0.0
O47 O 0.70892 0.86507 0.22237 0.0
O48 O 0.55992 0.7294 0.13859 0.0
O49 O 0.55711 0.86005 0.14022 0.0
Mg50 Mg 0.5243 0.77189 0.07666 0.0
O51 O 0.61427 0.82962 0.0822 0.0
O52 O 0.50824 0.68799 0.09615 0.0
O53 O 0.48754 0.81687 0.10333 0.0
O54 O 0.5756 0.81573 0.03699 0.0
C55 C 0.74483 0.7971 0.13348 0.0
C56 C 0.75141 -0.0219 0.13558 0.0
C57 C 0.65398 0.83757 0.21164 0.0
C58 C 0.52262 0.68306 0.12298 0.0
C59 C 0.50738 0.84909 0.12714 0.0
C60 C 0.62203 0.84549 0.05444 0.0
O61 O 0.76704 0.82363 0.15829 0.0
O62 O 0.70066 0.79942 0.12076 0.0
O63 O 0.77934 0.78523 0.659 0.0
Mg64 Mg 0.83268 0.75146 0.67864 0.0
O65 O 0.7423 0.71478 0.62299 0.0
Mg66 Mg 0.77335 0.64282 0.63142 0.0
O67 O 0.78493 0.65793 0.68269 0.0
O68 O 0.81847 0.72077 0.72223 0.0
O69 O 0.80537 0.57157 0.63857 0.0
O70 O 0.67188 0.56874 0.64014 0.0
Mg71 Mg 0.72732 0.53591 0.5766 0.0
O72 O 0.7595 0.62585 0.58213 0.0
O73 O 0.79516 0.51987 0.59614 0.0
O74 O 0.64557 0.49916 0.60327 0.0
O75 O 0.73475 0.5872 0.53692 0.0
C76 C 0.92246 0.75656 0.63341 0.0
C77 C 0.74789 0.76295 0.63537 0.0
C78 C 0.79117 0.66581 0.71156 0.0
C79 C 0.81443 0.53425 0.62298 0.0
C80 C 0.63315 0.519 0.62707 0.0
C81 C 0.75138 0.63361 0.55436 0.0
O82 O 0.91802 0.77881 0.65818 0.0
O83 O 0.87605 0.71231 0.62069 0.0
O84 O -0.0299 0.79259 0.15883 0.0
Mg85 Mg 0.05723 0.84594 0.17845 0.0
O86 O 0.00325 0.75503 0.12295 0.0
Mg87 Mg 0.10629 0.78615 0.13133 0.0
O88 O 0.10283 0.798 0.18258 0.0
O89 O 0.07374 0.83187 0.22207 0.0
O90 O 0.20958 0.81827 0.13847 0.0
O91 O 0.07905 0.68476 0.14021 0.0
Mg92 Mg 0.16722 0.73994 0.07663 0.0
O93 O 0.10933 0.77202 0.08206 0.0
O94 O 0.25109 0.80795 0.09609 0.0
O95 O 0.1224 0.65836 0.10342 0.0
O96 O 0.12327 0.74707 0.03691 0.0
C97 C 0.14176 0.93533 0.13308 0.0
C98 C 0.96076 0.76085 0.1353 0.0
C99 C 0.10124 0.80436 0.21144 0.0
C100 C 0.25597 0.82732 0.1229 0.0
C101 C 0.09015 0.64602 0.12722 0.0
C102 C 0.09344 0.76374 0.0543 0.0
O103 O 0.11525 0.9311 0.15788 0.0
O104 O 0.13943 0.88879 0.12042 0.0
O105 O 0.15234 -0.01814 0.65905 0.0
Mg106 Mg 0.18619 0.069 0.67864 0.0
O107 O 0.22296 0.01502 0.62312 0.0
Mg108 Mg 0.29494 0.118 0.63148 0.0
O109 O 0.27975 0.11457 0.68274 0.0
O110 O 0.21682 0.08549 0.72225 0.0
O111 O 0.36618 0.22124 0.63859 0.0
O112 O 0.36903 0.09061 0.6403 0.0
Mg113 Mg 0.40194 0.17875 0.57671 0.0
O114 O 0.31196 0.12101 0.5822 0.0
O115 O 0.41796 0.26264 0.59618 0.0
O116 O 0.43865 0.13379 0.60344 0.0
O117 O 0.35071 0.13491 0.53702 0.0
C118 C 0.18129 0.15356 0.63329 0.0
C119 C 0.17469 0.97254 0.63549 0.0
C120 C 0.27182 0.11299 0.71161 0.0
C121 C 0.40353 0.26757 0.623 0.0
C122 C 0.41879 0.10158 0.62726 0.0
C123 C 0.30425 0.10516 0.55443 0.0
O124 O 0.159 0.12703 0.65809 0.0
O125 O 0.22549 0.15123 0.62063 0.0
O126 O 0.77283 0.79174 0.38621 0.0
Mg127 Mg 0.73908 0.8451 0.36658 0.0
O128 O 0.70218 0.75442 0.42213 0.0
Mg129 Mg 0.63027 0.78554 0.41371 0.0
O130 O 0.64553 0.79728 0.36245 0.0
O131 O 0.7085 0.831 0.32296 0.0
O132 O 0.55908 0.81763 0.40655 0.0
O133 O 0.55612 0.68412 0.40489 0.0
Mg134 Mg 0.5232 0.73939 0.46847 0.0
O135 O 0.61317 0.77157 0.46298 0.0
O136 O 0.50725 0.8073 0.44895 0.0
O137 O 0.48647 0.65775 0.44174 0.0
O138 O 0.57444 0.74674 0.50816 0.0
C139 C 0.74403 0.93466 0.41187 0.0
C140 C 0.75045 0.76012 0.40978 0.0
C141 C 0.65349 0.80361 0.33359 0.0
C142 C 0.52172 0.82666 0.42213 0.0
C143 C 0.50633 0.64538 0.41792 0.0
C144 C 0.6209 0.76342 0.49074 0.0
O145 O 0.76633 0.93034 0.38709 0.0
O146 O 0.69978 0.88819 0.42454 0.0
O147 O 0.9567 0.7854 0.8861 0.0
Mg148 Mg 0.86962 0.75171 0.86642 0.0
O149 O 0.92336 0.71478 0.92203 0.0
Mg150 Mg 0.82036 0.64281 0.9136 0.0
O151 O 0.82392 0.65819 0.86237 0.0
O152 O 0.85305 0.72098 0.82281 0.0
O153 O 0.71709 0.57158 0.90642 0.0
O154 O 0.84774 0.56873 0.90474 0.0
Mg155 Mg 0.7595 0.53566 0.96832 0.0
O156 O 0.81724 0.62562 0.96286 0.0
O157 O 0.67562 0.51971 0.94881 0.0
O158 O 0.80446 0.49901 0.94155 0.0
O159 O 0.80338 0.58681 1.00802 0.0
C160 C 0.78495 0.75655 0.91177 0.0
C161 C -0.03409 0.76304 0.90969 0.0
C162 C 0.82547 0.66602 0.8335 0.0
C163 C 0.67072 0.5342 0.92199 0.0
C164 C 0.83671 0.51893 0.91775 0.0
C165 C 0.83313 0.63329 0.99062 0.0
O166 O 0.81158 0.77887 0.88699 0.0
O167 O 0.78716 0.71228 0.92444 0.0
O168 O 0.14534 0.9682 0.38604 0.0
Mg169 Mg 0.09217 0.88105 0.36645 0.0
O170 O 0.18286 0.93514 0.42201 0.0
Mg171 Mg 0.15188 0.83216 0.41369 0.0
O172 O 0.14025 0.83557 0.3624 0.0
O173 O 0.10641 0.86462 0.32286 0.0
O174 O 0.11989 0.72892 0.40661 0.0
O175 O 0.25335 0.85955 0.40494 0.0
Mg176 Mg 0.19801 0.77142 0.46853 0.0
O177 O 0.16582 0.82919 0.46299 0.0
O178 O 0.13013 0.68751 0.44906 0.0
O179 O 0.27972 0.81633 0.44183 0.0
O180 O 0.19062 0.8153 0.50819 0.0
C181 C 0.00263 0.79649 0.41174 0.0
C182 C 0.17702 -0.02242 0.40962 0.0
C183 C 0.13396 0.83718 0.33353 0.0
C184 C 0.11083 0.68258 0.42222 0.0
C185 C 0.29211 0.84855 0.41801 0.0
C186 C 0.17396 0.84507 0.49075 0.0
O187 O 0.0069 0.82296 0.38692 0.0
O188 O 0.04917 0.79891 0.42446 0.0
O189 O 0.15267 0.15834 0.88631 0.0
Mg190 Mg 0.18641 0.10501 0.86666 0.0
O191 O 0.22332 0.19562 0.92224 0.0
Mg192 Mg 0.29523 0.16451 0.9138 0.0
O193 O 0.27996 0.15284 0.86254 0.0
O194 O 0.21696 0.11917 0.82304 0.0
O195 O 0.36643 0.13243 0.90663 0.0
O196 O 0.36937 0.26593 0.90501 0.0
Mg197 Mg 0.40234 0.21057 0.96855 0.0
O198 O 0.31237 0.17846 0.96308 0.0
O199 O 0.41825 0.14265 0.94902 0.0
O200 O 0.43908 0.29224 0.94183 0.0
O201 O 0.35117 0.20327 1.00825 0.0
C202 C 0.18148 0.01539 0.91192 0.0
C203 C 0.17506 0.18994 0.90989 0.0
C204 C 0.27198 0.14656 0.83368 0.0
C205 C 0.40378 0.12336 0.92219 0.0
C206 C 0.41918 0.30465 0.91803 0.0
C207 C 0.3047 0.18664 0.99084 0.0
O208 O 0.15918 0.01975 0.88714 0.0
O209 O 0.22573 0.06184 0.92461 0.0
O210 O -0.03137 0.1648 0.38607 0.0
Mg211 Mg 0.05568 0.19852 0.36638 0.0
O212 O 0.00218 0.2352 0.42211 0.0
Mg213 Mg 0.10517 0.30719 0.41364 0.0
O214 O 0.10153 0.29206 0.36238 0.0
O215 O 0.07213 0.22932 0.3228 0.0
O216 O 0.20843 0.37844 0.40645 0.0
O217 O 0.07777 0.38128 0.40497 0.0
Mg218 Mg 0.16622 0.41406 0.46848 0.0
O219 O 0.10844 0.32414 0.46293 0.0
O220 O 0.25004 0.43008 0.44888 0.0
O221 O 0.12118 0.45084 0.44185 0.0
O222 O 0.12243 0.36272 0.50815 0.0
C223 C 0.14048 0.19342 0.41159 0.0
C224 C 0.95954 0.18704 0.40974 0.0
C225 C 0.09988 0.28426 0.3335 0.0
C226 C 0.25485 0.41574 0.42202 0.0
C227 C 0.08884 0.43102 0.41806 0.0
C228 C 0.09261 0.31634 0.4907 0.0
O229 O 0.11369 0.17115 0.38683 0.0
O230 O 0.13839 0.23769 0.42431 0.0
O231 O 0.78001 -0.01848 0.88622 0.0
Mg232 Mg 0.83324 0.06853 0.86648 0.0
O233 O 0.74267 0.01486 0.92213 0.0
Mg234 Mg 0.77362 0.11782 0.91362 0.0
O235 O 0.78527 0.11409 0.86238 0.0
O236 O 0.81892 0.08484 0.82286 0.0
O237 O 0.80559 0.22103 0.90635 0.0
O238 O 0.67211 0.09039 0.90485 0.0
Mg239 Mg 0.72758 0.17893 0.96832 0.0
O240 O 0.7598 0.12118 0.96288 0.0
O241 O 0.79538 0.2627 0.9487 0.0
O242 O 0.64583 0.13383 0.94165 0.0
O243 O 0.7351 0.13528 1.00806 0.0
C244 C 0.92282 0.15336 0.91174 0.0
C245 C 0.74844 0.97232 0.90981 0.0
C246 C 0.79149 0.11241 0.83351 0.0
C247 C 0.81464 0.26747 0.92187 0.0
C248 C 0.63338 0.10147 0.91788 0.0
C249 C 0.75175 0.10545 0.99066 0.0
O250 O 0.91851 0.12669 0.88698 0.0
O251 O 0.87632 0.15111 0.92441 0.0
C252 C 0.19593 0.04825 0.11366 0.0
C253 C 0.17417 -0.00544 0.11924 0.0
C254 C 0.2067 0.10875 0.11412 0.0
C255 C 0.19948 0.15128 0.1202 0.0
C256 C 0.12253 0.20772 0.61381 0.0
C257 C 0.15445 0.18596 0.61945 0.0
C258 C 0.07275 0.21844 0.61418 0.0
C259 C 0.02292 0.21112 0.62018 0.0
C260 C 0.83024 0.08538 0.11468 0.0
C261 C 0.78771 0.03557 0.12065 0.0
C262 C 0.89074 0.13511 0.11426 0.0
C263 C 0.94446 0.16703 0.11981 0.0
C264 C 0.71949 0.84176 0.61435 0.0
C265 C 0.72675 0.79923 0.62037 0.0
C266 C 0.73028 0.90226 0.61392 0.0
C267 C 0.75208 0.95596 0.61949 0.0
C268 C 0.85339 0.73219 0.11443 0.0
C269 C 0.90323 0.73951 0.12038 0.0
C270 C 0.80362 0.74293 0.11407 0.0
C271 C 0.77171 0.76471 0.11969 0.0
C272 C 0.0355 0.81544 0.61412 0.0
C273 C -0.01821 0.78347 0.61967 0.0
C274 C 0.09597 0.86524 0.61456 0.0
C275 C 0.13845 0.91506 0.62056 0.0
C276 C 0.88967 0.74228 0.43115 0.0
C277 C 0.94337 0.76408 0.42555 0.0
C278 C 0.82916 0.73154 0.43074 0.0
C279 C 0.78665 0.73885 0.42475 0.0
C280 C 0.07307 0.84186 0.93075 0.0
C281 C 0.02331 0.79931 0.9247 0.0
C282 C 0.12277 0.90238 0.93122 0.0
C283 C 0.15468 0.95609 0.92568 0.0
C284 C 0.19475 0.13462 0.43087 0.0
C285 C 0.17295 0.16653 0.4253 0.0
C286 C 0.20551 0.08488 0.43048 0.0
C287 C 0.19823 0.03507 0.42452 0.0
C288 C 0.09631 0.21848 0.93082 0.0
C289 C 0.13886 0.2112 0.92485 0.0
C290 C 0.03579 0.20768 0.93117 0.0
C291 C -0.01791 0.18585 0.92554 0.0
C292 C 0.85244 0.10815 0.43081 0.0
C293 C 0.90219 0.15073 0.42477 0.0
C294 C 0.80275 0.04763 0.43124 0.0
C295 C 0.77085 -0.00607 0.42566 0.0
C296 C 0.73082 0.81538 0.93119 0.0
C297 C 0.75255 0.78343 0.92558 0.0
C298 C 0.72006 0.86513 0.9308 0.0
C299 C 0.72728 0.91491 0.9248 0.0
C300 C 0.06085 0.53608 0.14481 0.0
C301 C 0.06918 0.58682 0.14027 0.0
C302 C 0.06731 0.48373 0.14343 0.0
C303 C 0.08582 0.44933 0.13714 0.0
C304 C 0.5582 0.07858 0.64332 0.0
C305 C 0.61111 0.09715 0.637 0.0
C306 C 0.49937 0.07212 0.64477 0.0
C307 C 0.45699 0.08052 0.64027 0.0
C308 C 0.45542 0.57101 0.14314 0.0
C309 C 0.48969 0.62394 0.13688 0.0
C310 C 0.40313 0.51215 0.14455 0.0
C311 C 0.35237 0.46976 0.14006 0.0
C312 C 0.85909 0.46688 0.64317 0.0
C313 C 0.84052 0.50124 0.63691 0.0
C314 C 0.86555 0.41452 0.64456 0.0
C315 C 0.85714 0.36375 0.64005 0.0
C316 C 0.42682 0.87863 0.14458 0.0
C317 C 0.46918 0.87019 0.1401 0.0
C318 C 0.368 0.87215 0.14313 0.0
C319 C 0.31506 0.85351 0.13683 0.0
C320 C 0.52311 0.43843 0.64455 0.0
C321 C 0.57388 0.48079 0.64005 0.0
C322 C 0.47078 0.37961 0.64316 0.0
C323 C 0.43647 0.32668 0.6369 0.0
C324 C 0.40215 0.87797 0.40052 0.0
C325 C 0.35137 0.86958 0.40502 0.0
C326 C 0.45448 0.87147 0.40192 0.0
C327 C 0.4888 0.85284 0.4082 0.0
C328 C 0.55866 0.46692 0.90183 0.0
C329 C 0.6116 0.50126 0.90807 0.0
C330 C 0.49981 0.4146 0.90047 0.0
C331 C 0.45742 0.36387 0.90501 0.0
C332 C 0.066 0.57053 0.40206 0.0
C333 C 0.08466 0.62346 0.40833 0.0
C334 C 0.05943 0.51168 0.40064 0.0
C335 C 0.0678 0.46929 0.40511 0.0
C336 C 0.52329 0.072 0.90046 0.0
C337 C 0.57408 0.08037 0.90492 0.0
C338 C 0.47098 0.07856 0.90193 0.0
C339 C 0.4367 0.0972 0.90825 0.0
C340 C 0.36683 0.4831 0.40178 0.0
C341 C 0.31392 0.44875 0.40807 0.0
C342 C 0.42567 0.53543 0.40038 0.0
C343 C 0.46808 0.58616 0.4049 0.0
C344 C 0.866 0.43828 0.90017 0.0
C345 C 0.85769 0.48071 0.9047 0.0
C346 C 0.85941 0.37942 0.90158 0.0
C347 C 0.84079 0.32651 0.90789 0.0
C348 C 0.14921 0.35695 0.28826 0.0
C349 C 0.13117 0.33401 0.31265 0.0
C350 C 0.15846 0.35702 0.25693 0.0
C351 C 0.15362 0.33418 0.23251 0.0
C352 C 0.77644 0.17007 0.75682 0.0
C353 C 0.79424 0.16505 0.73238 0.0
C354 C 0.76756 0.16112 0.78818 0.0
C355 C 0.7727 0.14334 0.8126 0.0
C356 C 0.58111 0.78877 0.25686 0.0
C357 C 0.60413 0.8066 0.23246 0.0
C358 C 0.58098 0.77983 0.28822 0.0
C359 C 0.60381 0.7849 0.31267 0.0
C360 C 0.76751 0.59323 0.75687 0.0
C361 C 0.77253 0.61609 0.73245 0.0
C362 C 0.77653 0.5933 0.78822 0.0
C363 C 0.79441 0.61626 0.81263 0.0
C364 C 0.14966 0.7802 0.25682 0.0
C365 C 0.13203 0.78545 0.23237 0.0
C366 C 0.15831 0.78886 0.28819 0.0
C367 C 0.15299 0.80645 0.31263 0.0
C368 C 0.3445 0.17044 0.78831 0.0
C369 C 0.32166 0.16531 0.81275 0.0
C370 C 0.34445 0.1616 0.75695 0.0
C371 C 0.32154 0.14387 0.73252 0.0
C372 C 0.21692 0.20134 1.01436 0.0
C373 C 0.25341 0.19214 1.00107 0.0
C374 C 0.18923 0.22911 0.03094 0.0
C375 C 0.1801 0.26565 0.04422 0.0
C376 C -0.00983 0.2285 0.51419 0.0
C377 C 0.03585 0.26503 0.5009 0.0
C378 C 0.93472 0.2008 0.53077 0.0
C379 C 0.88906 0.19169 0.54407 0.0
C380 C 0.70987 0.94785 0.03091 0.0
C381 C 0.67337 0.90221 0.04423 0.0
C382 C 0.73748 0.00324 1.01429 0.0
C383 C 0.74648 0.04881 1.00095 0.0
C384 C 0.73669 0.72139 0.53086 0.0
C385 C 0.7459 0.68491 0.54416 0.0
C386 C 0.70887 0.74903 0.51427 0.0
C387 C 0.67228 0.75809 0.50097 0.0
C388 C 0.9355 0.72117 1.01415 0.0
C389 C 0.88984 0.68463 1.00085 0.0
C390 C -0.00905 0.74897 0.03074 0.0
C391 C 0.03665 0.75822 0.04406 0.0
C392 C 0.18854 0.94746 0.51427 0.0
C393 C 0.17937 0.90181 0.50096 0.0
C394 C 0.21631 0.00287 0.53088 0.0
C395 C 0.25287 0.04849 0.5442 0.0
loop_
_geom_bond_atom_site_label_1
_geom_bond_atom_site_label_2
_geom_bond_distance
_geom_bond_site_symmetry_2
_ccdc_geom_bond_type
O0 Mg1 1.990 . S
O0 C14 1.253 . S
Mg1 O0 1.990 . S
Mg1 O4 2.180 . S
Mg1 O5 2.117 . S
Mg1 O19 2.030 . S
O2 Mg3 2.072 . S
O2 C14 1.260 . S
Mg3 O2 2.072 . S
Mg3 O4 2.099 . S
Mg3 O6 2.079 . S
Mg3 O7 2.072 . S
Mg3 O9 2.099 . S
Mg3 O20 2.079 . S
O4 Mg1 2.180 . S
O4 Mg3 2.099 . S
O4 C15 1.279 . S
O5 Mg1 2.117 . S
O5 C15 1.250 . S
O6 Mg3 2.079 . S
O6 C16 1.264 . S
O7 Mg3 2.072 . S
O7 C17 1.260 . S
Mg8 O9 2.180 . S
Mg8 O10 2.030 . S
Mg8 O11 1.990 . S
Mg8 O12 2.117 . S
O9 Mg3 2.099 . S
O9 Mg8 2.180 . S
O9 C18 1.279 . S
O10 Mg8 2.030 . S
O10 C16 1.248 . S
O11 Mg8 1.990 . S
O11 C17 1.253 . S
O12 Mg8 2.117 . S
O12 C18 1.250 . S
C13 O19 1.248 . S
C13 O20 1.264 . S
C14 O0 1.253 . S
C14 O2 1.260 . S
C15 O4 1.279 . S
C15 O5 1.250 . S
C16 O6 1.264 . S
C16 O10 1.248 . S
C17 O7 1.260 . S
C17 O11 1.253 . S
C18 O9 1.279 . S
C18 O12 1.250 . S
O19 Mg1 2.030 . S
O19 C13 1.248 . S
O20 Mg3 2.079 . S
O20 C13 1.264 . S
O21 Mg22 1.990 . S
O21 C35 1.253 . S
Mg22 O21 1.990 . S
Mg22 O25 2.180 . S
Mg22 O26 2.117 . S
Mg22 O40 2.030 . S
O23 Mg24 2.072 . S
O23 C35 1.260 . S
Mg24 O23 2.072 . S
Mg24 O25 2.099 . S
Mg24 O27 2.079 . S
Mg24 O28 2.072 . S
Mg24 O30 2.099 . S
Mg24 O41 2.079 . S
O25 Mg22 2.180 . S
O25 Mg24 2.099 . S
O25 C36 1.279 . S
O26 Mg22 2.117 . S
O26 C36 1.250 . S
O27 Mg24 2.079 . S
O27 C37 1.264 . S
O28 Mg24 2.072 . S
O28 C38 1.260 . S
Mg29 O30 2.180 . S
Mg29 O31 2.030 . S
Mg29 O32 1.990 . S
Mg29 O33 2.117 . S
O30 Mg24 2.099 . S
O30 Mg29 2.180 . S
O30 C39 1.279 . S
O31 Mg29 2.030 . S
O31 C37 1.248 . S
O32 Mg29 1.990 . S
O32 C38 1.253 . S
O33 Mg29 2.117 . S
O33 C39 1.250 . S
C34 O40 1.248 . S
C34 O41 1.264 . S
C35 O21 1.253 . S
C35 O23 1.260 . S
C36 O25 1.279 . S
C36 O26 1.250 . S
C37 O27 1.264 . S
C37 O31 1.248 . S
C38 O28 1.260 . S
C38 O32 1.253 . S
C39 O30 1.279 . S
C39 O33 1.250 . S
O40 Mg22 2.030 . S
O40 C34 1.248 . S
O41 Mg24 2.079 . S
O41 C34 1.264 . S
O42 Mg43 1.990 . S
O42 C56 1.253 . S
Mg43 O42 1.990 . S
Mg43 O46 2.180 . S
Mg43 O47 2.117 . S
Mg43 O61 2.030 . S
O44 Mg45 2.072 . S
O44 C56 1.260 . S
Mg45 O44 2.072 . S
Mg45 O46 2.099 . S
Mg45 O48 2.079 . S
Mg45 O49 2.072 . S
Mg45 O51 2.099 . S
Mg45 O62 2.079 . S
O46 Mg43 2.180 . S
O46 Mg45 2.099 . S
O46 C57 1.279 . S
O47 Mg43 2.117 . S
O47 C57 1.250 . S
O48 Mg45 2.079 . S
O48 C58 1.264 . S
O49 Mg45 2.072 . S
O49 C59 1.260 . S
Mg50 O51 2.180 . S
Mg50 O52 2.030 . S
Mg50 O53 1.990 . S
Mg50 O54 2.117 . S
O51 Mg45 2.099 . S
O51 Mg50 2.180 . S
O51 C60 1.279 . S
O52 Mg50 2.030 . S
O52 C58 1.248 . S
O53 Mg50 1.990 . S
O53 C59 1.253 . S
O54 Mg50 2.117 . S
O54 C60 1.250 . S
C55 O61 1.248 . S
C55 O62 1.264 . S
C56 O42 1.253 . S
C56 O44 1.260 . S
C57 O46 1.279 . S
C57 O47 1.250 . S
C58 O48 1.264 . S
C58 O52 1.248 . S
C59 O49 1.260 . S
C59 O53 1.253 . S
C60 O51 1.279 . S
C60 O54 1.250 . S
O61 Mg43 2.030 . S
O61 C55 1.248 . S
O62 Mg45 2.079 . S
O62 C55 1.264 . S
O63 Mg64 1.990 . S
O63 C77 1.253 . S
Mg64 O63 1.990 . S
Mg64 O67 2.180 . S
Mg64 O68 2.117 . S
Mg64 O82 2.030 . S
O65 Mg66 2.072 . S
O65 C77 1.260 . S
Mg66 O65 2.072 . S
Mg66 O67 2.099 . S
Mg66 O69 2.079 . S
Mg66 O70 2.072 . S
Mg66 O72 2.099 . S
Mg66 O83 2.079 . S
O67 Mg64 2.180 . S
O67 Mg66 2.099 . S
O67 C78 1.279 . S
O68 Mg64 2.117 . S
O68 C78 1.250 . S
O69 Mg66 2.079 . S
O69 C79 1.264 . S
O70 Mg66 2.072 . S
O70 C80 1.260 . S
Mg71 O72 2.180 . S
Mg71 O73 2.030 . S
Mg71 O74 1.990 . S
Mg71 O75 2.117 . S
O72 Mg66 2.099 . S
O72 Mg71 2.180 . S
O72 C81 1.279 . S
O73 Mg71 2.030 . S
O73 C79 1.248 . S
O74 Mg71 1.990 . S
O74 C80 1.253 . S
O75 Mg71 2.117 . S
O75 C81 1.250 . S
C76 O82 1.248 . S
C76 O83 1.264 . S
C77 O63 1.253 . S
C77 O65 1.260 . S
C78 O67 1.279 . S
C78 O68 1.250 . S
C79 O69 1.264 . S
C79 O73 1.248 . S
C80 O70 1.260 . S
C80 O74 1.253 . S
C81 O72 1.279 . S
C81 O75 1.250 . S
O82 Mg64 2.030 . S
O82 C76 1.248 . S
O83 Mg66 2.079 . S
O83 C76 1.264 . S
O84 Mg85 1.990 . S
O84 C98 1.253 . S
Mg85 O84 1.990 . S
Mg85 O88 2.180 . S
Mg85 O89 2.117 . S
Mg85 O103 2.030 . S
O86 Mg87 2.072 . S
O86 C98 1.260 . S
Mg87 O86 2.072 . S
Mg87 O88 2.099 . S
Mg87 O90 2.079 . S
Mg87 O91 2.072 . S
Mg87 O93 2.099 . S
Mg87 O104 2.079 . S
O88 Mg85 2.180 . S
O88 Mg87 2.099 . S
O88 C99 1.279 . S
O89 Mg85 2.117 . S
O89 C99 1.250 . S
O90 Mg87 2.079 . S
O90 C100 1.264 . S
O91 Mg87 2.072 . S
O91 C101 1.260 . S
Mg92 O93 2.180 . S
Mg92 O94 2.030 . S
Mg92 O95 1.990 . S
Mg92 O96 2.117 . S
O93 Mg87 2.099 . S
O93 Mg92 2.180 . S
O93 C102 1.279 . S
O94 Mg92 2.030 . S
O94 C100 1.248 . S
O95 Mg92 1.990 . S
O95 C101 1.253 . S
O96 Mg92 2.117 . S
O96 C102 1.250 . S
C97 O103 1.248 . S
C97 O104 1.264 . S
C98 O84 1.253 . S
C98 O86 1.260 . S
C99 O88 1.279 . S
C99 O89 1.250 . S
C100 O90 1.264 . S
C100 O94 1.248 . S
C101 O91 1.260 . S
C101 O95 1.253 . S
C102 O93 1.279 . S
C102 O96 1.250 . S
O103 Mg85 2.030 . S
O103 C97 1.248 . S
O104 Mg87 2.079 . S
O104 C97 1.264 . S
O105 Mg106 1.990 . S
O105 C119 1.253 . S
Mg106 O105 1.990 . S
Mg106 O109 2.180 . S
Mg106 O110 2.117 . S
Mg106 O124 2.030 . S
O107 Mg108 2.072 . S
O107 C119 1.260 . S
Mg108 O107 2.072 . S
Mg108 O109 2.099 . S
Mg108 O111 2.079 . S
Mg108 O112 2.072 . S
Mg108 O114 2.099 . S
Mg108 O125 2.079 . S
O109 Mg106 2.180 . S
O109 Mg108 2.099 . S
O109 C120 1.279 . S
O110 Mg106 2.117 . S
O110 C120 1.250 . S
O111 Mg108 2.079 . S
O111 C121 1.264 . S
O112 Mg108 2.072 . S
O112 C122 1.260 . S
Mg113 O114 2.180 . S
Mg113 O115 2.030 . S
Mg113 O116 1.990 . S
Mg113 O117 2.117 . S
O114 Mg108 2.099 . S
O114 Mg113 2.180 . S
O114 C123 1.279 . S
O115 Mg113 2.030 . S
O115 C121 1.248 . S
O116 Mg113 1.990 . S
O116 C122 1.253 . S
O117 Mg113 2.117 . S
O117 C123 1.250 . S
C118 O124 1.248 . S
C118 O125 1.264 . S
C119 O105 1.253 . S
C119 O107 1.260 . S
C120 O109 1.279 . S
C120 O110 1.250 . S
C121 O111 1.264 . S
C121 O115 1.248 . S
C122 O112 1.260 . S
C122 O116 1.253 . S
C123 O114 1.279 . S
C123 O117 1.250 . S
O124 Mg106 2.030 . S
O124 C118 1.248 . S
O125 Mg108 2.079 . S
O125 C118 1.264 . S
O126 Mg127 1.990 . S
O126 C140 1.253 . S
Mg127 O126 1.990 . S
Mg127 O130 2.180 . S
Mg127 O131 2.117 . S
Mg127 O145 2.030 . S
O128 Mg129 2.072 . S
O128 C140 1.260 . S
Mg129 O128 2.072 . S
Mg129 O130 2.099 . S
Mg129 O132 2.079 . S
Mg129 O133 2.072 . S
Mg129 O135 2.099 . S
Mg129 O146 2.079 . S
O130 Mg127 2.180 . S
O130 Mg129 2.099 . S
O130 C141 1.279 . S
O131 Mg127 2.117 . S
O131 C141 1.250 . S
O132 Mg129 2.079 . S
O132 C142 1.264 . S
O133 Mg129 2.072 . S
O133 C143 1.260 . S
Mg134 O135 2.180 . S
Mg134 O136 2.030 . S
Mg134 O137 1.990 . S
Mg134 O138 2.117 . S
O135 Mg129 2.099 . S
O135 Mg134 2.180 . S
O135 C144 1.279 . S
O136 Mg134 2.030 . S
O136 C142 1.248 . S
O137 Mg134 1.990 . S
O137 C143 1.253 . S
O138 Mg134 2.117 . S
O138 C144 1.250 . S
C139 O145 1.248 . S
C139 O146 1.264 . S
C140 O126 1.253 . S
C140 O128 1.260 . S
C141 O130 1.279 . S
C141 O131 1.250 . S
C142 O132 1.264 . S
C142 O136 1.248 . S
C143 O133 1.260 . S
C143 O137 1.253 . S
C144 O135 1.279 . S
C144 O138 1.250 . S
O145 Mg127 2.030 . S
O145 C139 1.248 . S
O146 Mg129 2.079 . S
O146 C139 1.264 . S
O147 Mg148 1.990 . S
O147 C161 1.253 . S
Mg148 O147 1.990 . S
Mg148 O151 2.180 . S
Mg148 O152 2.117 . S
Mg148 O166 2.030 . S
O149 Mg150 2.072 . S
O149 C161 1.260 . S
Mg150 O149 2.072 . S
Mg150 O151 2.099 . S
Mg150 O153 2.079 . S
Mg150 O154 2.072 . S
Mg150 O156 2.099 . S
Mg150 O167 2.079 . S
O151 Mg148 2.180 . S
O151 Mg150 2.099 . S
O151 C162 1.279 . S
O152 Mg148 2.117 . S
O152 C162 1.250 . S
O153 Mg150 2.079 . S
O153 C163 1.264 . S
O154 Mg150 2.072 . S
O154 C164 1.260 . S
Mg155 O156 2.180 . S
Mg155 O157 2.030 . S
Mg155 O158 1.990 . S
Mg155 O159 2.117 . S
O156 Mg150 2.099 . S
O156 Mg155 2.180 . S
O156 C165 1.279 . S
O157 Mg155 2.030 . S
O157 C163 1.248 . S
O158 Mg155 1.990 . S
O158 C164 1.253 . S
O159 Mg155 2.117 . S
O159 C165 1.250 . S
C160 O166 1.248 . S
C160 O167 1.264 . S
C161 O147 1.253 . S
C161 O149 1.260 . S
C162 O151 1.279 . S
C162 O152 1.250 . S
C163 O153 1.264 . S
C163 O157 1.248 . S
C164 O154 1.260 . S
C164 O158 1.253 . S
C165 O156 1.279 . S
C165 O159 1.250 . S
O166 Mg148 2.030 . S
O166 C160 1.248 . S
O167 Mg150 2.079 . S
O167 C160 1.264 . S
O168 Mg169 1.990 . S
O168 C182 1.253 . S
Mg169 O168 1.990 . S
Mg169 O172 2.180 . S
Mg169 O173 2.117 . S
Mg169 O187 2.030 . S
O170 Mg171 2.072 . S
O170 C182 1.260 . S
Mg171 O170 2.072 . S
Mg171 O172 2.099 . S
Mg171 O174 2.079 . S
Mg171 O175 2.072 . S
Mg171 O177 2.099 . S
Mg171 O188 2.079 . S
O172 Mg169 2.180 . S
O172 Mg171 2.099 . S
O172 C183 1.279 . S
O173 Mg169 2.117 . S
O173 C183 1.250 . S
O174 Mg171 2.079 . S
O174 C184 1.264 . S
O175 Mg171 2.072 . S
O175 C185 1.260 . S
Mg176 O177 2.180 . S
Mg176 O178 2.030 . S
Mg176 O179 1.990 . S
Mg176 O180 2.117 . S
O177 Mg171 2.099 . S
O177 Mg176 2.180 . S
O177 C186 1.279 . S
O178 Mg176 2.030 . S
O178 C184 1.248 . S
O179 Mg176 1.990 . S
O179 C185 1.253 . S
O180 Mg176 2.117 . S
O180 C186 1.250 . S
C181 O187 1.248 . S
C181 O188 1.264 . S
C182 O168 1.253 . S
C182 O170 1.260 . S
C183 O172 1.279 . S
C183 O173 1.250 . S
C184 O174 1.264 . S
C184 O178 1.248 . S
C185 O175 1.260 . S
C185 O179 1.253 . S
C186 O177 1.279 . S
C186 O180 1.250 . S
O187 Mg169 2.030 . S
O187 C181 1.248 . S
O188 Mg171 2.079 . S
O188 C181 1.264 . S
O189 Mg190 1.990 . S
O189 C203 1.253 . S
Mg190 O189 1.990 . S
Mg190 O193 2.180 . S
Mg190 O194 2.117 . S
Mg190 O208 2.030 . S
O191 Mg192 2.072 . S
O191 C203 1.260 . S
Mg192 O191 2.072 . S
Mg192 O193 2.099 . S
Mg192 O195 2.079 . S
Mg192 O196 2.072 . S
Mg192 O198 2.099 . S
Mg192 O209 2.079 . S
O193 Mg190 2.180 . S
O193 Mg192 2.099 . S
O193 C204 1.279 . S
O194 Mg190 2.117 . S
O194 C204 1.250 . S
O195 Mg192 2.079 . S
O195 C205 1.264 . S
O196 Mg192 2.072 . S
O196 C206 1.260 . S
Mg197 O198 2.180 . S
Mg197 O199 2.030 . S
Mg197 O200 1.990 . S
Mg197 O201 2.117 . S
O198 Mg192 2.099 . S
O198 Mg197 2.180 . S
O198 C207 1.279 . S
O199 Mg197 2.030 . S
O199 C205 1.248 . S
O200 Mg197 1.990 . S
O200 C206 1.253 . S
O201 Mg197 2.117 . S
O201 C207 1.250 . S
C202 O208 1.248 . S
C202 O209 1.264 . S
C203 O189 1.253 . S
C203 O191 1.260 . S
C204 O193 1.279 . S
C204 O194 1.250 . S
C205 O195 1.264 . S
C205 O199 1.248 . S
C206 O196 1.260 . S
C206 O200 1.253 . S
C207 O198 1.279 . S
C207 O201 1.250 . S
O208 Mg190 2.030 . S
O208 C202 1.248 . S
O209 Mg192 2.079 . S
O209 C202 1.264 . S
O210 Mg211 1.990 . S
O210 C224 1.253 . S
Mg211 O210 1.990 . S
Mg211 O214 2.180 . S
Mg211 O215 2.117 . S
Mg211 O229 2.030 . S
O212 Mg213 2.072 . S
O212 C224 1.260 . S
Mg213 O212 2.072 . S
Mg213 O214 2.099 . S
Mg213 O216 2.079 . S
Mg213 O217 2.072 . S
Mg213 O219 2.099 . S
Mg213 O230 2.079 . S
O214 Mg211 2.180 . S
O214 Mg213 2.099 . S
O214 C225 1.279 . S
O215 Mg211 2.117 . S
O215 C225 1.250 . S
O216 Mg213 2.079 . S
O216 C226 1.264 . S
O217 Mg213 2.072 . S
O217 C227 1.260 . S
Mg218 O219 2.180 . S
Mg218 O220 2.030 . S
Mg218 O221 1.990 . S
Mg218 O222 2.117 . S
O219 Mg213 2.099 . S
O219 Mg218 2.180 . S
O219 C228 1.279 . S
O220 Mg218 2.030 . S
O220 C226 1.248 . S
O221 Mg218 1.990 . S
O221 C227 1.253 . S
O222 Mg218 2.117 . S
O222 C228 1.250 . S
C223 O229 1.248 . S
C223 O230 1.264 . S
C224 O210 1.253 . S
C224 O212 1.260 . S
C225 O214 1.279 . S
C225 O215 1.250 . S
C226 O216 1.264 . S
C226 O220 1.248 . S
C227 O217 1.260 . S
C227 O221 1.253 . S
C228 O219 1.279 . S
C228 O222 1.250 . S
O229 Mg211 2.030 . S
O229 C223 1.248 . S
O230 Mg213 2.079 . S
O230 C223 1.264 . S
O231 Mg232 1.990 . S
O231 C245 1.253 . S
Mg232 O231 1.990 . S
Mg232 O235 2.180 . S
Mg232 O236 2.117 . S
Mg232 O250 2.030 . S
O233 Mg234 2.072 . S
O233 C245 1.260 . S
Mg234 O233 2.072 . S
Mg234 O235 2.099 . S
Mg234 O237 2.079 . S
Mg234 O238 2.072 . S
Mg234 O240 2.099 . S
Mg234 O251 2.079 . S
O235 Mg232 2.180 . S
O235 Mg234 2.099 . S
O235 C246 1.279 . S
O236 Mg232 2.117 . S
O236 C246 1.250 . S
O237 Mg234 2.079 . S
O237 C247 1.264 . S
O238 Mg234 2.072 . S
O238 C248 1.260 . S
Mg239 O240 2.180 . S
Mg239 O241 2.030 . S
Mg239 O242 1.990 . S
Mg239 O243 2.117 . S
O240 Mg234 2.099 . S
O240 Mg239 2.180 . S
O240 C249 1.279 . S
O241 Mg239 2.030 . S
O241 C247 1.248 . S
O242 Mg239 1.990 . S
O242 C248 1.253 . S
O243 Mg239 2.117 . S
O243 C249 1.250 . S
C244 O250 1.248 . S
C244 O251 1.264 . S
C245 O231 1.253 . S
C245 O233 1.260 . S
C246 O235 1.279 . S
C246 O236 1.250 . S
C247 O237 1.264 . S
C247 O241 1.248 . S
C248 O238 1.260 . S
C248 O242 1.253 . S
C249 O240 1.279 . S
C249 O243 1.250 . S
O250 Mg232 2.030 . S
O250 C244 1.248 . S
O251 Mg234 2.079 . S
O251 C244 1.264 . S
C252 C253 1.170 . S
C252 C254 1.380 . S
C253 C252 1.170 . S
C254 C252 1.380 . S
C254 C255 1.170 . S
C255 C254 1.170 . S
C256 C257 1.170 . S
C256 C258 1.380 . S
C257 C256 1.170 . S
C258 C256 1.380 . S
C258 C259 1.170 . S
C259 C258 1.170 . S
C260 C261 1.170 . S
C260 C262 1.380 . S
C261 C260 1.170 . S
C262 C260 1.380 . S
C262 C263 1.170 . S
C263 C262 1.170 . S
C264 C265 1.170 . S
C264 C266 1.380 . S
C265 C264 1.170 . S
C266 C264 1.380 . S
C266 C267 1.170 . S
C267 C266 1.170 . S
C268 C269 1.170 . S
C268 C270 1.380 . S
C269 C268 1.170 . S
C270 C268 1.380 . S
C270 C271 1.170 . S
C271 C270 1.170 . S
C272 C273 1.170 . S
C272 C274 1.380 . S
C273 C272 1.170 . S
C274 C272 1.380 . S
C274 C275 1.170 . S
C275 C274 1.170 . S
C276 C277 1.170 . S
C276 C278 1.380 . S
C277 C276 1.170 . S
C278 C276 1.380 . S
C278 C279 1.170 . S
C279 C278 1.170 . S
C280 C281 1.170 . S
C280 C282 1.380 . S
C281 C280 1.170 . S
C282 C280 1.380 . S
C282 C283 1.170 . S
C283 C282 1.170 . S
C284 C285 1.170 . S
C284 C286 1.380 . S
C285 C284 1.170 . S
C286 C284 1.380 . S
C286 C287 1.170 . S
C287 C286 1.170 . S
C288 C289 1.170 . S
C288 C290 1.380 . S
C289 C288 1.170 . S
C290 C288 1.380 . S
C290 C291 1.170 . S
C291 C290 1.170 . S
C292 C293 1.170 . S
C292 C294 1.380 . S
C293 C292 1.170 . S
C294 C292 1.380 . S
C294 C295 1.170 . S
C295 C294 1.170 . S
C296 C297 1.170 . S
C296 C298 1.380 . S
C297 C296 1.170 . S
C298 C296 1.380 . S
C298 C299 1.170 . S
C299 C298 1.170 . S
C300 C301 1.170 . S
C300 C302 1.380 . S
C301 C300 1.170 . S
C302 C300 1.380 . S
C302 C303 1.170 . S
C303 C302 1.170 . S
C304 C305 1.170 . S
C304 C306 1.380 . S
C305 C304 1.170 . S
C306 C304 1.380 . S
C306 C307 1.170 . S
C307 C306 1.170 . S
C308 C309 1.170 . S
C308 C310 1.380 . S
C309 C308 1.170 . S
C310 C308 1.380 . S
C310 C311 1.170 . S
C311 C310 1.170 . S
C312 C313 1.170 . S
C312 C314 1.380 . S
C313 C312 1.170 . S
C314 C312 1.380 . S
C314 C315 1.170 . S
C315 C314 1.170 . S
C316 C317 1.170 . S
C316 C318 1.380 . S
C317 C316 1.170 . S
C318 C316 1.380 . S
C318 C319 1.170 . S
C319 C318 1.170 . S
C320 C321 1.170 . S
C320 C322 1.380 . S
C321 C320 1.170 . S
C322 C320 1.380 . S
C322 C323 1.170 . S
C323 C322 1.170 . S
C324 C325 1.170 . S
C324 C326 1.380 . S
C325 C324 1.170 . S
C326 C324 1.380 . S
C326 C327 1.170 . S
C327 C326 1.170 . S
C328 C329 1.170 . S
C328 C330 1.380 . S
C329 C328 1.170 . S
C330 C328 1.380 . S
C330 C331 1.170 . S
C331 C330 1.170 . S
C332 C333 1.170 . S
C332 C334 1.380 . S
C333 C332 1.170 . S
C334 C332 1.380 . S
C334 C335 1.170 . S
C335 C334 1.170 . S
C336 C337 1.170 . S
C336 C338 1.380 . S
C337 C336 1.170 . S
C338 C336 1.380 . S
C338 C339 1.170 . S
C339 C338 1.170 . S
C340 C341 1.170 . S
C340 C342 1.380 . S
C341 C340 1.170 . S
C342 C340 1.380 . S
C342 C343 1.170 . S
C343 C342 1.170 . S
C344 C345 1.170 . S
C344 C346 1.380 . S
C345 C344 1.170 . S
C346 C344 1.380 . S
C346 C347 1.170 . S
C347 C346 1.170 . S
C348 C349 1.170 . S
C348 C350 1.380 . S
C349 C348 1.170 . S
C350 C348 1.380 . S
C350 C351 1.170 . S
C351 C350 1.170 . S
C352 C353 1.170 . S
C352 C354 1.380 . S
C353 C352 1.170 . S
C354 C352 1.380 . S
C354 C355 1.170 . S
C355 C354 1.170 . S
C356 C357 1.170 . S
C356 C358 1.380 . S
C357 C356 1.170 . S
C358 C356 1.380 . S
C358 C359 1.170 . S
C359 C358 1.170 . S
C360 C361 1.170 . S
C360 C362 1.380 . S
C361 C360 1.170 . S
C362 C360 1.380 . S
C362 C363 1.170 . S
C363 C362 1.170 . S
C364 C365 1.170 . S
C364 C366 1.380 . S
C365 C364 1.170 . S
C366 C364 1.380 . S
C366 C367 1.170 . S
C367 C366 1.170 . S
C368 C369 1.170 . S
C368 C370 1.380 . S
C369 C368 1.170 . S
C370 C368 1.380 . S
C370 C371 1.170 . S
C371 C370 1.170 . S
C372 C373 1.170 . S
C372 C374 1.380 1_556 S
C373 C372 1.170 . S
C374 C372 1.380 1_554 S
C374 C375 1.170 . S
C375 C374 1.170 . S
C376 C377 1.170 . S
C376 C378 1.380 1_455 S
C377 C376 1.170 . S
C378 C376 1.380 1_655 S
C378 C379 1.170 . S
C379 C378 1.170 . S
C380 C381 1.170 . S
C380 C382 1.380 1_564 S
C381 C380 1.170 . S
C382 C380 1.380 1_546 S
C382 C383 1.170 . S
C383 C382 1.170 . S
C384 C385 1.170 . S
C384 C386 1.380 . S
C385 C384 1.170 . S
C386 C384 1.380 . S
C386 C387 1.170 . S
C387 C386 1.170 . S
C388 C389 1.170 . S
C388 C390 1.380 1_656 S
C389 C388 1.170 . S
C390 C388 1.380 1_454 S
C390 C391 1.170 . S
C391 C390 1.170 . S
C392 C393 1.170 . S
C392 C394 1.380 1_565 S
C393 C392 1.170 . S
C394 C392 1.380 1_545 S
C394 C395 1.170 . S
C395 C394 1.170 . S
C253 C97 1.117 1_545 S
C255 C14 1.146 . S
C257 C118 1.114 . S
C259 C35 1.142 1_455 S
C261 C56 1.097 1_545 S
C263 C13 1.050 1_655 S
C265 C77 1.133 . S
C267 C34 1.101 1_565 S
C269 C98 1.102 1_655 S
C271 C55 1.056 . S
C273 C76 1.051 1_455 S
C275 C119 1.098 1_565 S
C277 C181 1.121 1_655 S
C279 C140 1.148 . S
C281 C161 1.119 1_455 S
C283 C202 1.080 1_565 S
C285 C223 1.057 . S
C287 C182 1.103 1_545 S
C289 C203 1.135 . S
C291 C244 1.101 1_455 S
C293 C224 1.143 1_655 S
C295 C139 1.113 1_545 S
C297 C160 1.078 . S
C299 C245 1.118 1_565 S
C301 C101 1.208 . S
C303 C16 1.271 . S
C305 C37 1.276 . S
C307 C122 1.219 . S
C309 C58 1.297 . S
C311 C17 1.165 . S
C313 C79 1.283 . S
C315 C38 1.153 . S
C317 C59 1.186 . S
C319 C100 1.303 . S
C321 C80 1.173 . S
C323 C121 1.300 . S
C325 C185 1.168 . S
C327 C142 1.270 . S
C329 C163 1.268 . S
C331 C206 1.182 . S
C333 C184 1.279 . S
C335 C227 1.154 . S
C337 C248 1.179 . S
C339 C205 1.268 . S
C341 C226 1.268 . S
C343 C143 1.176 . S
C345 C164 1.213 . S
C347 C247 1.273 . S
C349 C225 1.380 . S
C351 C15 1.364 . S
C353 C36 1.327 . S
C355 C246 1.346 . S
C357 C57 1.374 . S
C359 C141 1.356 . S
C361 C78 1.322 . S
C363 C162 1.340 . S
C365 C99 1.366 . S
C367 C183 1.381 . S
C369 C204 1.335 . S
C371 C120 1.355 . S
C373 C207 1.629 . S
C375 C18 1.646 . S
C377 C228 1.633 . S
C379 C39 1.647 . S
C381 C60 1.626 . S
C383 C249 1.644 . S
C385 C81 1.597 . S
C387 C144 1.619 . S
C389 C165 1.636 . S
C391 C102 1.613 . S
C393 C186 1.640 . S
C395 C123 1.647 . S
