# Generated by pormake.
# Topology smn, (6)-cn, num edge types: 1
# Building blocks:
#     Node 0, Type 0, BuildingBlock: VOLQOD_clean_sbu_1, # of connection points: 6
#     Node 1, Type 0, BuildingBlock: VOLQOD_clean_sbu_1, # of connection points: 6
#     Node 2, Type 0, BuildingBlock: VOLQOD_clean_sbu_1, # of connection points: 6
#     Node 3, Type 0, BuildingBlock: VOLQOD_clean_sbu_1, # of connection points: 6
#     Node 4, Type 0, BuildingBlock: VOLQOD_clean_sbu_1, # of connection points: 6
#     Node 5, Type 0, BuildingBlock: VOLQOD_clean_sbu_1, # of connection points: 6
#     Node 6, Type 0, BuildingBlock: VOLQOD_clean_sbu_1, # of connection points: 6
#     Node 7, Type 0, BuildingBlock: VOLQOD_clean_sbu_1, # of connection points: 6
#     Node 8, Type 0, BuildingBlock: VOLQOD_clean_sbu_1, # of connection points: 6
#     Node 9, Type 0, BuildingBlock: VOLQOD_clean_sbu_1, # of connection points: 6
#     Node 10, Type 0, BuildingBlock: VOLQOD_clean_sbu_1, # of connection points: 6
#     Node 11, Type 0, BuildingBlock: VOLQOD_clean_sbu_1, # of connection points: 6
#     Node 12, Type 0, BuildingBlock: VOLQOD_clean_sbu_1, # of connection points: 6
#     Node 13, Type 0, BuildingBlock: VOLQOD_clean_sbu_1, # of connection points: 6
#     Node 14, Type 0, BuildingBlock: VOLQOD_clean_sbu_1, # of connection points: 6
#     Node 15, Type 0, BuildingBlock: VOLQOD_clean_sbu_1, # of connection points: 6
#     Node 16, Type 0, BuildingBlock: VOLQOD_clean_sbu_1, # of connection points: 6
#     Node 17, Type 0, BuildingBlock: VOLQOD_clean_sbu_1, # of connection points: 6
#     Edge 18, Type (0, 0), BuildingBlock: OJICUG_clean_linker_0, # of connection points: 2
#     Edge 19, Type (0, 0), BuildingBlock: OJICUG_clean_linker_0, # of connection points: 2
#     Edge 20, Type (0, 0), BuildingBlock: OJICUG_clean_linker_0, # of connection points: 2
#     Edge 21, Type (0, 0), BuildingBlock: OJICUG_clean_linker_0, # of connection points: 2
#     Edge 22, Type (0, 0), BuildingBlock: OJICUG_clean_linker_0, # of connection points: 2
#     Edge 23, Type (0, 0), BuildingBlock: OJICUG_clean_linker_0, # of connection points: 2
#     Edge 24, Type (0, 0), BuildingBlock: OJICUG_clean_linker_0, # of connection points: 2
#     Edge 25, Type (0, 0), BuildingBlock: OJICUG_clean_linker_0, # of connection points: 2
#     Edge 26, Type (0, 0), BuildingBlock: OJICUG_clean_linker_0, # of connection points: 2
#     Edge 27, Type (0, 0), BuildingBlock: OJICUG_clean_linker_0, # of connection points: 2
#     Edge 28, Type (0, 0), BuildingBlock: OJICUG_clean_linker_0, # of connection points: 2
#     Edge 29, Type (0, 0), BuildingBlock: OJICUG_clean_linker_0, # of connection points: 2
#     Edge 30, Type (0, 0), BuildingBlock: OJICUG_clean_linker_0, # of connection points: 2
#     Edge 31, Type (0, 0), BuildingBlock: OJICUG_clean_linker_0, # of connection points: 2
#     Edge 32, Type (0, 0), BuildingBlock: OJICUG_clean_linker_0, # of connection points: 2
#     Edge 33, Type (0, 0), BuildingBlock: OJICUG_clean_linker_0, # of connection points: 2
#     Edge 34, Type (0, 0), BuildingBlock: OJICUG_clean_linker_0, # of connection points: 2
#     Edge 35, Type (0, 0), BuildingBlock: OJICUG_clean_linker_0, # of connection points: 2
#     Edge 36, Type (0, 0), BuildingBlock: OJICUG_clean_linker_0, # of connection points: 2
#     Edge 37, Type (0, 0), BuildingBlock: OJICUG_clean_linker_0, # of connection points: 2
#     Edge 38, Type (0, 0), BuildingBlock: OJICUG_clean_linker_0, # of connection points: 2
#     Edge 39, Type (0, 0), BuildingBlock: OJICUG_clean_linker_0, # of connection points: 2
#     Edge 40, Type (0, 0), BuildingBlock: OJICUG_clean_linker_0, # of connection points: 2
#     Edge 41, Type (0, 0), BuildingBlock: OJICUG_clean_linker_0, # of connection points: 2
#     Edge 42, Type (0, 0), BuildingBlock: OJICUG_clean_linker_0, # of connection points: 2
#     Edge 43, Type (0, 0), BuildingBlock: OJICUG_clean_linker_0, # of connection points: 2
#     Edge 44, Type (0, 0), BuildingBlock: OJICUG_clean_linker_0, # of connection points: 2
#     Edge 45, Type (0, 0), BuildingBlock: OJICUG_clean_linker_0, # of connection points: 2
#     Edge 46, Type (0, 0), BuildingBlock: OJICUG_clean_linker_0, # of connection points: 2
#     Edge 47, Type (0, 0), BuildingBlock: OJICUG_clean_linker_0, # of connection points: 2
#     Edge 48, Type (0, 0), BuildingBlock: OJICUG_clean_linker_0, # of connection points: 2
#     Edge 49, Type (0, 0), BuildingBlock: OJICUG_clean_linker_0, # of connection points: 2
#     Edge 50, Type (0, 0), BuildingBlock: OJICUG_clean_linker_0, # of connection points: 2
#     Edge 51, Type (0, 0), BuildingBlock: OJICUG_clean_linker_0, # of connection points: 2
#     Edge 52, Type (0, 0), BuildingBlock: OJICUG_clean_linker_0, # of connection points: 2
#     Edge 53, Type (0, 0), BuildingBlock: OJICUG_clean_linker_0, # of connection points: 2
#     Edge 54, Type (0, 0), BuildingBlock: OJICUG_clean_linker_0, # of connection points: 2
#     Edge 55, Type (0, 0), BuildingBlock: OJICUG_clean_linker_0, # of connection points: 2
#     Edge 56, Type (0, 0), BuildingBlock: OJICUG_clean_linker_0, # of connection points: 2
#     Edge 57, Type (0, 0), BuildingBlock: OJICUG_clean_linker_0, # of connection points: 2
#     Edge 58, Type (0, 0), BuildingBlock: OJICUG_clean_linker_0, # of connection points: 2
#     Edge 59, Type (0, 0), BuildingBlock: OJICUG_clean_linker_0, # of connection points: 2
#     Edge 60, Type (0, 0), BuildingBlock: OJICUG_clean_linker_0, # of connection points: 2
#     Edge 61, Type (0, 0), BuildingBlock: OJICUG_clean_linker_0, # of connection points: 2
#     Edge 62, Type (0, 0), BuildingBlock: OJICUG_clean_linker_0, # of connection points: 2
#     Edge 63, Type (0, 0), BuildingBlock: OJICUG_clean_linker_0, # of connection points: 2
#     Edge 64, Type (0, 0), BuildingBlock: OJICUG_clean_linker_0, # of connection points: 2
#     Edge 65, Type (0, 0), BuildingBlock: OJICUG_clean_linker_0, # of connection points: 2
#     Edge 66, Type (0, 0), BuildingBlock: OJICUG_clean_linker_0, # of connection points: 2
#     Edge 67, Type (0, 0), BuildingBlock: OJICUG_clean_linker_0, # of connection points: 2
#     Edge 68, Type (0, 0), BuildingBlock: OJICUG_clean_linker_0, # of connection points: 2
#     Edge 69, Type (0, 0), BuildingBlock: OJICUG_clean_linker_0, # of connection points: 2
#     Edge 70, Type (0, 0), BuildingBlock: OJICUG_clean_linker_0, # of connection points: 2
#     Edge 71, Type (0, 0), BuildingBlock: OJICUG_clean_linker_0, # of connection points: 2
# Relax obj value: 0.237
# Max RMSD: 0.243
# Mean RMSD: 0.242
data_MOF--net-smn--node1-VOLQOD_clean_sbu_1--edge1-OJICUG_clean_linker_0
_symmetry_space_group_name_H-M    P1
_symmetry_Int_Tables_number       1
_symmetry_cell_setting            triclinic
loop_
_symmetry_equiv_pos_as_xyz
'x, y, z'
_cell_length_a     48.366485
_cell_length_b     48.423235
_cell_length_c     16.038567
_cell_angle_alpha  90.059132
_cell_angle_beta   90.023356
_cell_angle_gamma 119.90603
loop_
_atom_site_label
_atom_site_type_symbol
_atom_site_fract_x
_atom_site_fract_y
_atom_site_fract_z
_atom_type_partial_charge
O0 O 0.01234 0.26282 0.64141 0.0
Zn1 Zn 0.97823 0.22231 0.69356 0.0
O2 O -0.00043 0.20751 0.76531 0.0
Zn3 Zn -0.00192 0.16856 0.73396 0.0
Zn4 Zn 0.04162 0.23984 0.79011 0.0
Zn5 Zn 0.97749 0.19629 0.86514 0.0
O6 O 0.97057 0.13207 0.8166 0.0
O7 O 0.94121 0.1535 0.85274 0.0
O8 O 0.95539 0.18843 0.60247 0.0
O9 O 0.97411 0.15544 0.62783 0.0
O10 O 0.04303 0.17759 0.70504 0.0
O11 O 0.07068 0.23001 0.72518 0.0
O12 O 0.05143 0.23766 0.9129 0.0
O13 O 0.95058 0.23532 0.76422 0.0
O14 O 0.0058 0.19606 0.95486 0.0
O15 O 0.96074 0.22463 0.89172 0.0
C16 C 0.03809 0.28523 0.67261 0.0
C17 C 0.94475 0.12941 0.84602 0.0
C18 C 0.06877 0.20446 0.69781 0.0
C19 C 0.95795 0.16406 0.5834 0.0
C20 C 0.03514 0.21602 0.96662 0.0
C21 C 0.94867 0.23667 0.84371 0.0
O22 O 0.04948 0.28168 0.74129 0.0
O23 O 0.75089 0.77173 0.63514 0.0
Zn24 Zn 0.79195 0.77829 0.68666 0.0
O25 O 0.80786 0.81517 0.7568 0.0
Zn26 Zn 0.84865 0.85049 0.72664 0.0
Zn27 Zn 0.77765 0.82841 0.77014 0.0
Zn28 Zn 0.81309 0.80408 0.86416 0.0
O29 O 0.88473 0.85298 0.80412 0.0
O30 O 0.85407 0.80647 0.86601 0.0
O31 O 0.82512 0.78767 0.5927 0.0
O32 O 0.85913 0.83894 0.61836 0.0
O33 O 0.84379 0.88952 0.69752 0.0
O34 O 0.7907 0.86476 0.69603 0.0
O35 O 0.78198 0.84819 0.88366 0.0
O36 O 0.77857 0.73861 0.76185 0.0
O37 O 0.8146 0.83528 0.94782 0.0
O38 O 0.78165 0.75965 0.88771 0.0
C39 C 0.72947 0.77728 0.66357 0.0
C40 C 0.88143 0.82888 0.84573 0.0
C41 C 0.81757 0.88863 0.67812 0.0
C42 C 0.84964 0.81436 0.57287 0.0
C43 C 0.80017 0.85111 0.94471 0.0
C44 C 0.7731 0.73557 0.84065 0.0
O45 O 0.73447 0.79497 0.72758 0.0
O46 O 0.23427 -0.00312 0.63544 0.0
Zn47 Zn 0.22844 0.03174 0.68725 0.0
O48 O 0.19335 0.01151 0.76221 0.0
Zn49 Zn 0.15571 0.01372 0.73657 0.0
Zn50 Zn 0.18359 0.96965 0.78881 0.0
Zn51 Zn 0.20543 0.03467 0.86018 0.0
O52 O 0.148 0.04088 0.82461 0.0
O53 O 0.19969 0.07147 0.84603 0.0
O54 O 0.21608 0.05442 0.59823 0.0
O55 O 0.16547 0.03834 0.63176 0.0
O56 O 0.11957 0.96899 0.70741 0.0
O57 O 0.14409 0.9409 0.72597 0.0
O58 O 0.17225 0.96113 0.91273 0.0
O59 O 0.26993 0.05976 0.75491 0.0
O60 O 0.17719 0.00753 0.95184 0.0
O61 O 0.25055 0.05084 0.884 0.0
C62 C 0.23144 0.97154 0.66815 0.0
C63 C 0.17173 0.06726 0.84919 0.0
C64 C 0.12046 0.94311 0.6996 0.0
C65 C 0.18944 0.05341 0.58412 0.0
C66 C 0.16747 0.97824 0.96537 0.0
C67 C 0.27406 0.06233 0.83415 0.0
O68 O 0.21707 0.96088 0.7379 0.0
O69 O 0.05101 0.7877 0.24658 0.0
Zn70 Zn 0.0245 0.80126 0.31953 0.0
O71 O 0.00455 0.81825 0.24895 0.0
Zn72 Zn 0.00959 0.85853 0.28381 0.0
Zn73 Zn 0.02418 0.82672 0.14572 0.0
Zn74 Zn 0.96163 0.78742 0.22518 0.0
O75 O 0.96514 0.85273 0.30939 0.0
O76 O 0.93538 0.80028 0.29062 0.0
O77 O 0.04781 0.83295 0.41552 0.0
O78 O 0.03031 0.86712 0.3945 0.0
O79 O 0.04374 0.89621 0.21093 0.0
O80 O 0.06266 0.86746 0.15267 0.0
O81 O -0.00365 0.82927 0.05828 0.0
O82 O 0.98945 0.76061 0.36889 0.0
O83 O 0.95041 0.78927 0.10352 0.0
O84 O 0.95101 0.74457 0.27305 0.0
C85 C 0.0508 0.78459 0.16711 0.0
C86 C 0.93864 0.82648 0.31726 0.0
C87 C 0.06608 0.89425 0.17303 0.0
C88 C 0.04519 0.85692 0.43858 0.0
C89 C 0.96667 0.81038 0.04877 0.0
C90 C 0.96272 0.73948 0.33893 0.0
O91 O 0.03763 0.79568 0.11958 0.0
O92 O 0.22491 0.28586 0.2418 0.0
Zn93 Zn 0.21125 0.24694 0.31958 0.0
O94 O 0.19372 0.20898 0.25276 0.0
Zn95 Zn 0.15263 0.17526 0.28831 0.0
Zn96 Zn 0.18823 0.21921 0.14408 0.0
Zn97 Zn 0.22251 0.19365 0.24136 0.0
O98 O 0.15514 0.13504 0.3184 0.0
O99 O 0.20805 0.15753 0.31711 0.0
O100 O 0.17983 0.24049 0.41541 0.0
O101 O 0.14485 0.18899 0.39705 0.0
O102 O 0.11627 0.17341 0.21402 0.0
O103 O 0.14738 0.2174 0.14222 0.0
O104 O 0.18592 0.18687 0.06261 0.0
O105 O 0.25194 0.25265 0.37058 0.0
O106 O 0.21701 0.17245 0.12893 0.0
O107 O 0.2664 0.226 0.2839 0.0
C108 C 0.2295 0.28814 0.16265 0.0
C109 C 0.18078 0.13461 0.33654 0.0
C110 C 0.12001 0.19661 0.16769 0.0
C111 C 0.15557 0.21442 0.43965 0.0
C112 C 0.19916 0.16992 0.06733 0.0
C113 C 0.2723 0.24506 0.34532 0.0
O114 O 0.21996 0.26355 0.11688 0.0
O115 O 0.73061 0.96368 0.24513 0.0
Zn116 Zn 0.77107 0.99053 0.3178 0.0
O117 O 0.80749 0.01132 0.2467 0.0
Zn118 Zn 0.84396 0.00749 0.27582 0.0
Zn119 Zn 0.796 0.99302 0.14129 0.0
Zn120 Zn 0.82012 0.05451 0.23176 0.0
O121 O 0.88149 0.05119 0.30964 0.0
O122 O 0.85624 0.07898 0.30676 0.0
O123 O 0.78149 0.96687 0.40924 0.0
O124 O 0.83237 0.98285 0.37999 0.0
O125 O 0.8507 0.97915 0.19035 0.0
O126 O 0.80122 0.9558 0.14073 0.0
O127 O 0.8259 0.02261 0.05566 0.0
O128 O 0.76484 0.02517 0.36963 0.0
O129 O 0.83986 0.06882 0.11763 0.0
O130 O 0.78596 0.06352 0.27343 0.0
C131 C 0.72713 0.96414 0.16587 0.0
C132 C 0.88009 0.07627 0.32756 0.0
C133 C 0.82739 0.95625 0.15142 0.0
C134 C 0.80795 0.96787 0.42605 0.0
C135 C 0.84192 0.05283 0.057 0.0
C136 C 0.76937 0.05152 0.33946 0.0
O137 O 0.75104 0.97811 0.1176 0.0
O138 O 0.68181 0.5914 0.97576 0.0
Zn139 Zn 0.64712 0.55063 0.02566 0.0
O140 O 0.66686 0.53665 0.10452 0.0
Zn141 Zn 0.66704 0.49799 0.07926 0.0
Zn142 Zn 0.70781 0.5698 0.13455 0.0
Zn143 Zn 0.64182 0.52435 0.1995 0.0
O144 O 0.64007 0.46243 0.16434 0.0
O145 O 0.60693 0.48085 0.18207 0.0
O146 O 0.6269 0.51605 0.93561 0.0
O147 O 0.64426 0.48274 0.97148 0.0
O148 O 0.71266 0.50839 0.05688 0.0
O149 O 0.73884 0.56087 0.07644 0.0
O150 O 0.7146 0.5676 0.25935 0.0
O151 O 0.61729 0.56299 0.08763 0.0
O152 O 0.66845 0.52532 0.29576 0.0
O153 O 0.6229 0.5513 0.21846 0.0
C154 C 0.70608 0.61443 0.01075 0.0
C155 C 0.61262 0.45806 0.18496 0.0
C156 C 0.73807 0.53558 0.05134 0.0
C157 C 0.62926 0.49119 0.92198 0.0
C158 C 0.69733 0.54582 0.31176 0.0
C159 C 0.61242 0.5635 0.16603 0.0
O160 O 0.71571 0.61135 0.08275 0.0
O161 O 0.4179 0.11088 0.96968 0.0
Zn162 Zn 0.45854 0.11634 0.02088 0.0
O163 O 0.47402 0.15129 0.09785 0.0
Zn164 Zn 0.51474 0.18777 0.07147 0.0
Zn165 Zn 0.44242 0.16227 0.1225 0.0
Zn166 Zn 0.4814 0.13785 0.1991 0.0
O167 O 0.55116 0.19089 0.14914 0.0
O168 O 0.52274 0.14119 0.19392 0.0
O169 O 0.49236 0.12796 0.92861 0.0
O170 O 0.52658 0.1786 0.961 0.0
O171 O 0.5084 0.22622 0.05007 0.0
O172 O 0.4556 0.2026 0.06339 0.0
O173 O 0.44252 0.17255 0.2458 0.0
O174 O 0.44506 0.07478 0.08699 0.0
O175 O 0.48204 0.16569 0.29108 0.0
O176 O 0.45102 0.0928 0.21749 0.0
C177 C 0.39617 0.11548 1.00039 0.0
C178 C 0.54948 0.16587 0.18154 0.0
C179 C 0.48203 0.22626 0.04114 0.0
C180 C 0.51723 0.15482 0.91237 0.0
C181 C 0.46293 0.17619 0.30168 0.0
C182 C 0.44119 0.06991 0.16581 0.0
O183 O 0.40047 0.13091 0.06852 0.0
O184 O 0.89763 0.32992 0.9792 0.0
Zn185 Zn 0.89203 0.36497 0.02957 0.0
O186 O 0.8578 0.34536 0.10715 0.0
Zn187 Zn 0.81938 0.34586 0.08022 0.0
Zn188 Zn 0.84889 0.30388 0.1357 0.0
Zn189 Zn 0.8704 0.3701 0.20313 0.0
O190 O 0.81044 0.37261 0.16532 0.0
O191 O 0.86186 0.4052 0.18716 0.0
O192 O 0.87879 0.38643 0.93974 0.0
O193 O 0.82809 0.36948 0.97405 0.0
O194 O 0.78389 0.30076 0.05404 0.0
O195 O 0.80921 0.27362 0.07491 0.0
O196 O 0.83898 0.29667 0.26023 0.0
O197 O 0.93408 0.39381 0.09336 0.0
O198 O 0.84415 0.34332 0.2981 0.0
O199 O 0.91632 0.38848 0.22358 0.0
C200 C 0.89564 0.3052 0.01351 0.0
C201 C 0.83341 0.39976 0.18798 0.0
C202 C 0.78522 0.27509 0.04814 0.0
C203 C 0.8518 0.38462 0.92569 0.0
C204 C 0.83492 0.31421 0.31305 0.0
C205 C 0.93922 0.39851 0.17191 0.0
O206 O 0.88239 0.29541 0.08484 0.0
O207 O 0.71537 0.12182 0.58846 0.0
Zn208 Zn 0.6894 0.13587 0.66209 0.0
O209 O 0.67082 0.15465 0.59245 0.0
Zn210 Zn 0.67735 0.19524 0.63028 0.0
Zn211 Zn 0.69095 0.16349 0.48949 0.0
Zn212 Zn 0.62741 0.12538 0.56761 0.0
O213 O 0.63395 0.19182 0.65416 0.0
O214 O 0.60218 0.13989 0.63178 0.0
O215 O 0.71294 0.16617 0.76047 0.0
O216 O 0.69693 0.20165 0.74188 0.0
O217 O 0.71249 0.23301 0.56067 0.0
O218 O 0.73007 0.20383 0.49823 0.0
O219 O 0.66378 0.1674 0.40208 0.0
O220 O 0.65329 0.09537 0.70922 0.0
O221 O 0.61709 0.12795 0.44549 0.0
O222 O 0.61446 0.08191 0.61575 0.0
C223 C 0.71578 0.11957 0.50882 0.0
C224 C 0.60664 0.16641 0.65951 0.0
C225 C 0.73434 0.23069 0.52136 0.0
C226 C 0.71082 0.19022 0.78543 0.0
C227 C 0.63402 0.14915 0.39164 0.0
C228 C 0.62587 0.07551 0.68013 0.0
O229 O 0.70364 0.13184 0.46169 0.0
O230 O 0.88985 0.61624 0.58814 0.0
Zn231 Zn 0.87555 0.57676 0.66321 0.0
O232 O 0.85568 0.53908 0.59522 0.0
Zn233 Zn 0.8148 0.50613 0.63435 0.0
Zn234 Zn 0.8488 0.54999 0.48855 0.0
Zn235 Zn 0.88329 0.52256 0.57896 0.0
O236 O 0.81627 0.46527 0.66148 0.0
O237 O 0.8689 0.48619 0.65369 0.0
O238 O 0.84638 0.57145 0.76295 0.0
O239 O 0.80965 0.52042 0.74525 0.0
O240 O 0.77771 0.50473 0.56451 0.0
O241 O 0.80805 0.54863 0.49149 0.0
O242 O 0.84543 0.51806 0.40398 0.0
O243 O 0.91602 0.58058 0.70909 0.0
O244 O 0.87605 0.50198 0.46585 0.0
O245 O 0.92809 0.55352 0.61754 0.0
C246 C 0.89268 0.61866 0.50856 0.0
C247 C 0.84166 0.46392 0.67588 0.0
C248 C 0.78096 0.52788 0.51879 0.0
C249 C 0.82208 0.54576 0.78865 0.0
C250 C 0.85817 0.50062 0.40566 0.0
C251 C 0.93536 0.57227 0.68018 0.0
O252 O 0.88081 0.59421 0.46162 0.0
O253 O 0.39754 0.29893 0.59212 0.0
Zn254 Zn 0.43786 0.32515 0.66527 0.0
O255 O 0.47464 0.34317 0.59404 0.0
Zn256 Zn 0.5082 0.33479 0.62556 0.0
Zn257 Zn 0.46227 0.32619 0.4872 0.0
Zn258 Zn 0.49126 0.3872 0.57941 0.0
O259 O 0.5496 0.37684 0.65137 0.0
O260 O 0.52835 0.4084 0.65198 0.0
O261 O 0.4458 0.3019 0.76313 0.0
O262 O 0.496 0.31485 0.73596 0.0
O263 O 0.50788 0.29916 0.55132 0.0
O264 O 0.46261 0.28646 0.4859 0.0
O265 O 0.49366 0.35441 0.40173 0.0
O266 O 0.43358 0.36166 0.71214 0.0
O267 O 0.51115 0.40087 0.46576 0.0
O268 O 0.46072 0.40108 0.62173 0.0
C269 C 0.39408 0.30022 0.51307 0.0
C270 C 0.55104 0.40334 0.66938 0.0
C271 C 0.48358 0.27959 0.50815 0.0
C272 C 0.47175 0.30244 0.7833 0.0
C273 C 0.51174 0.38443 0.40435 0.0
C274 C 0.44187 0.38939 0.68404 0.0
O275 O 0.41792 0.31449 0.46462 0.0
O276 O 0.34567 0.92639 0.29437 0.0
Zn277 Zn 0.31016 0.88564 0.343 0.0
O278 O 0.32988 0.86794 0.41219 0.0
Zn279 Zn 0.32303 0.82684 0.37832 0.0
Zn280 Zn 0.37381 0.8963 0.42553 0.0
Zn281 Zn 0.31332 0.86266 0.51976 0.0
O282 O 0.28819 0.79073 0.45163 0.0
O283 O 0.27437 0.82191 0.52017 0.0
O284 O 0.28663 0.85422 0.24545 0.0
O285 O 0.30253 0.81893 0.26851 0.0
O286 O 0.36584 0.82908 0.35066 0.0
O287 O 0.39593 0.88192 0.35087 0.0
O288 O 0.38859 0.89056 0.53845 0.0
O289 O 0.28418 0.89958 0.41844 0.0
O290 O 0.34269 0.8603 0.60359 0.0
O291 O 0.30051 0.89449 0.54466 0.0
C292 C 0.37329 0.9465 0.32197 0.0
C293 C 0.26823 0.79452 0.49584 0.0
C294 C 0.39181 0.85464 0.33241 0.0
C295 C 0.2886 0.82978 0.2232 0.0
C296 C 0.37285 0.87314 0.59996 0.0
C297 C 0.28591 0.90421 0.49765 0.0
O298 O 0.38571 0.94018 0.38432 0.0
O299 O 0.08302 0.44212 0.2949 0.0
Zn300 Zn 0.1237 0.44594 0.34016 0.0
O301 O 0.14343 0.48341 0.40894 0.0
Zn302 Zn 0.18418 0.51687 0.37134 0.0
Zn303 Zn 0.1147 0.49799 0.4364 0.0
Zn304 Zn 0.15315 0.47229 0.51045 0.0
O305 O 0.22197 0.51921 0.44112 0.0
O306 O 0.19265 0.47178 0.49885 0.0
O307 O 0.15349 0.45214 0.24081 0.0
O308 O 0.18988 0.50328 0.25965 0.0
O309 O 0.18118 0.557 0.34821 0.0
O310 O 0.12942 0.53772 0.37256 0.0
O311 O 0.11861 0.51091 0.55902 0.0
O312 O 0.1095 0.40623 0.41487 0.0
O313 O 0.15889 0.50401 0.59756 0.0
O314 O 0.12074 0.42895 0.5405 0.0
C315 C 0.06352 0.44998 0.32527 0.0
C316 C 0.21963 0.49465 0.47806 0.0
C317 C 0.15596 0.55937 0.34399 0.0
C318 C 0.17781 0.47802 0.21584 0.0
C319 C 0.14065 0.5154 0.61056 0.0
C320 C 0.10767 0.40424 0.49465 0.0
O321 O 0.07058 0.46788 0.38972 0.0
O322 O 0.56886 0.66274 0.29372 0.0
Zn323 Zn 0.5654 0.69949 0.34101 0.0
O324 O 0.52779 0.68191 0.40935 0.0
Zn325 Zn 0.49514 0.69083 0.37222 0.0
Zn326 Zn 0.51057 0.63766 0.42367 0.0
Zn327 Zn 0.53908 0.69893 0.51682 0.0
O328 O 0.49478 0.72663 0.44398 0.0
O329 O 0.53851 0.73871 0.51659 0.0
O330 O 0.56007 0.72385 0.24241 0.0
O331 O 0.50933 0.71061 0.26192 0.0
O332 O 0.45365 0.64915 0.34433 0.0
O333 O 0.47386 0.61675 0.34953 0.0
O334 O 0.48996 0.62395 0.5366 0.0
O335 O 0.60507 0.7243 0.41621 0.0
O336 O 0.50686 0.67034 0.60063 0.0
O337 O 0.58331 0.71042 0.54277 0.0
C338 C 0.55986 0.63475 0.32082 0.0
C339 C 0.51816 0.74586 0.4903 0.0
C340 C 0.45177 0.62227 0.32876 0.0
C341 C 0.53451 0.7232 0.21796 0.0
C342 C 0.48887 0.64029 0.59761 0.0
C343 C 0.60769 0.72339 0.49563 0.0
O344 O 0.54076 0.6231 0.38265 0.0
O345 O 0.38326 0.46083 0.91429 0.0
Zn346 Zn 0.35357 0.47333 0.97639 0.0
O347 O 0.33365 0.48721 0.89781 0.0
Zn348 Zn 0.3336 0.52596 0.923 0.0
Zn349 Zn 0.35867 0.49945 0.80268 0.0
Zn350 Zn 0.29251 0.45411 0.86843 0.0
O351 O 0.28806 0.51559 0.94756 0.0
O352 O 0.2617 0.46308 0.92821 0.0
O353 O 0.37423 0.50817 0.06587 0.0
O354 O 0.35708 0.5416 0.02967 0.0
O355 O 0.36024 0.5613 0.83692 0.0
O356 O 0.39354 0.54304 0.81962 0.0
O357 O 0.33199 0.49861 0.70681 0.0
O358 O 0.31899 0.4325 0.0263 0.0
O359 O 0.28553 0.45674 0.74352 0.0
O360 O 0.28492 0.41241 0.91959 0.0
C361 C 0.38801 0.46015 0.8359 0.0
C362 C 0.26265 0.48842 0.95381 0.0
C363 C 0.38771 0.56573 0.81613 0.0
C364 C 0.37221 0.53326 0.07895 0.0
C365 C 0.30299 0.47844 0.69108 0.0
C366 C 0.29481 0.40934 0.99129 0.0
O367 O 0.37755 0.47237 0.78344 0.0
O368 O 0.55418 0.94728 0.91582 0.0
Zn369 Zn 0.54146 0.90542 0.97973 0.0
O370 O 0.52731 0.87126 0.90172 0.0
Zn371 Zn 0.48825 0.8329 0.9271 0.0
Zn372 Zn 0.51598 0.88379 0.80441 0.0
Zn373 Zn 0.56034 0.86277 0.87431 0.0
O374 O 0.49808 0.79734 0.95153 0.0
O375 O 0.5507 0.82299 0.93371 0.0
O376 O 0.5065 0.89181 0.06897 0.0
O377 O 0.473 0.84119 0.03387 0.0
O378 O 0.45283 0.82448 0.84101 0.0
O379 O 0.47249 0.87585 0.81719 0.0
O380 O 0.5172 0.85759 0.70986 0.0
O381 O 0.58231 0.91157 0.03122 0.0
O382 O 0.5588 0.85306 0.75012 0.0
O383 O 0.60192 0.8962 0.92642 0.0
C384 C 0.5553 0.95231 0.83709 0.0
C385 C 0.52513 0.79874 0.95829 0.0
C386 C 0.44923 0.84764 0.81651 0.0
C387 C 0.48142 0.86481 0.08265 0.0
C388 C 0.53743 0.84864 0.69621 0.0
C389 C 0.60521 0.90966 0.99741 0.0
O390 O 0.54347 0.92946 0.78514 0.0
O391 O 0.06419 0.62703 0.91271 0.0
Zn392 Zn 0.10565 0.65534 0.97874 0.0
O393 O 0.14059 0.67504 0.90236 0.0
Zn394 Zn 0.17767 0.67206 0.93095 0.0
Zn395 Zn 0.12757 0.65365 0.80167 0.0
Zn396 Zn 0.15057 0.71714 0.87697 0.0
O397 O 0.21514 0.71723 0.95387 0.0
O398 O 0.19027 0.74517 0.9383 0.0
O399 O 0.11742 0.63367 0.07157 0.0
O400 O 0.16846 0.65106 0.04131 0.0
O401 O 0.18229 0.63951 0.85412 0.0
O402 O 0.13231 0.61656 0.80933 0.0
O403 O 0.15509 0.68083 0.7095 0.0
O404 O 0.09977 0.69017 0.02925 0.0
O405 O 0.16118 0.727 0.75394 0.0
O406 O 0.11799 0.72661 0.92814 0.0
C407 C 0.05929 0.62529 0.83381 0.0
C408 C 0.21422 0.74313 0.96245 0.0
C409 C 0.15759 0.61555 0.82244 0.0
C410 C 0.14449 0.63625 0.08902 0.0
C411 C 0.16512 0.71029 0.69848 0.0
C412 C 0.10324 0.71581 0.99715 0.0
O413 O 0.0822 0.63786 0.78216 0.0
C414 C 0.11983 0.23736 0.61892 0.0
C415 C 0.09515 0.20716 0.64482 0.0
H416 H 0.15841 0.26357 0.53342 0.0
C417 C 0.09364 0.17986 0.61037 0.0
H418 H 0.12182 0.259 0.64444 0.0
C419 C 0.11465 0.18258 0.54718 0.0
C420 C 0.13763 0.21269 0.51632 0.0
H421 H 0.07524 0.1563 0.62923 0.0
H422 H 0.1119 0.16086 0.52003 0.0
C423 C 0.14085 0.24009 0.55514 0.0
C424 C 0.78505 0.93143 0.54946 0.0
C425 C 0.81119 0.95079 0.49877 0.0
H426 H 0.76691 0.8973 0.64782 0.0
C427 C 0.84085 0.95287 0.51584 0.0
H428 H 0.76207 0.9296 0.53895 0.0
C429 C 0.84374 0.93436 0.57827 0.0
C430 C 0.81705 0.91338 0.62511 0.0
H431 H 0.86177 0.96799 0.47891 0.0
H432 H 0.8664 0.93526 0.58664 0.0
C433 C 0.78797 0.91299 0.61206 0.0
C434 C 0.07222 0.91975 0.60747 0.0
C435 C 0.09671 0.91699 0.64613 0.0
H436 H 0.0366 0.90276 0.51268 0.0
C437 C 0.10128 0.89136 0.62334 0.0
H438 H 0.06783 0.93895 0.62372 0.0
C439 C 0.08353 0.87063 0.55857 0.0
C440 C 0.06079 0.87505 0.51557 0.0
H441 H 0.11986 0.88834 0.65216 0.0
H442 H 0.08875 0.85224 0.53961 0.0
C443 C 0.05445 0.89902 0.54317 0.0
C444 C 0.17349 0.11884 0.87165 0.0
C445 C 0.16825 0.08962 0.90361 0.0
H446 H 0.18738 0.1676 0.89898 0.0
C447 C 0.17161 0.08675 0.9895 0.0
H448 H 0.17222 0.12189 0.80511 0.0
C449 C 0.18204 0.11308 0.04187 0.0
C450 C 0.18868 0.14272 0.00973 0.0
H451 H 0.16871 0.06473 0.01506 0.0
H452 H 0.18532 0.11034 0.10758 0.0
C453 C 0.18298 0.1451 0.92481 0.0
C454 C 0.8649 0.06497 0.91249 0.0
C455 C 0.86887 0.06887 0.99916 0.0
H456 H 0.88727 0.08143 0.79301 0.0
C457 C 0.89965 0.08711 0.03242 0.0
H458 H 0.84137 0.05042 0.88584 0.0
C459 C 0.92588 0.10304 0.97993 0.0
C460 C 0.9217 0.10165 0.89327 0.0
H461 H 0.90333 0.08964 0.09931 0.0
H462 H 0.94902 0.11893 0.00723 0.0
C463 C 0.89116 0.08191 0.85966 0.0
C464 C 0.93677 0.85191 0.90605 0.0
C465 C 0.90848 0.82574 0.87693 0.0
H466 H 0.97811 0.86732 0.98376 0.0
C467 C 0.90302 0.79474 0.89221 0.0
H468 H 0.94153 0.87597 0.89539 0.0
C469 C 0.92319 0.78977 0.94397 0.0
C470 C 0.94986 0.81571 0.97955 0.0
H471 H 0.88167 0.77403 0.86914 0.0
H472 H 0.91703 0.7656 0.95963 0.0
C473 C 0.95753 0.84687 0.95681 0.0
C474 C 0.86384 0.79142 0.44972 0.0
C475 C 0.86925 0.81775 0.49813 0.0
H476 H 0.88107 0.7737 0.3528 0.0
C477 C 0.89528 0.84796 0.47764 0.0
H478 H 0.84391 0.76797 0.46297 0.0
C479 C 0.91671 0.85136 0.41474 0.0
C480 C 0.91261 0.82468 0.37024 0.0
H481 H 0.89999 0.86904 0.51251 0.0
H482 H 0.93733 0.87462 0.40403 0.0
C483 C 0.88521 0.79486 0.38629 0.0
C484 C 0.15698 0.07112 0.50148 0.0
C485 C 0.18582 0.07088 0.51297 0.0
H486 H 0.13244 0.09114 0.43586 0.0
C487 C 0.21113 0.0884 0.45806 0.0
H488 H 0.13674 0.05756 0.54203 0.0
C489 C 0.20839 0.10728 0.39659 0.0
C490 C 0.18035 0.10924 0.38886 0.0
H491 H 0.23343 0.0884 0.4642 0.0
H492 H 0.22889 0.12147 0.35734 0.0
C493 C 0.15427 0.09013 0.44007 0.0
C494 C 0.92599 0.09622 0.42732 0.0
C495 C 0.90416 0.10137 0.38229 0.0
H496 H 0.96009 0.11198 0.52595 0.0
C497 C 0.90258 0.12922 0.39811 0.0
H498 H 0.92785 0.0751 0.41671 0.0
C499 C 0.9208 0.1503 0.46144 0.0
C500 C 0.94111 0.14405 0.51011 0.0
H501 H 0.88619 0.13414 0.36391 0.0
H502 H 0.9181 0.17081 0.47403 0.0
C503 C 0.94428 0.11733 0.49051 0.0
C504 C 0.82428 0.9036 0.13763 0.0
C505 C 0.83086 0.93276 0.10207 0.0
H506 H 0.80927 0.85421 0.11492 0.0
C507 C 0.8293 0.93507 0.01528 0.0
H508 H 0.82431 0.9011 0.20474 0.0
C509 C 0.81901 0.90825 0.96519 0.0
C510 C 0.81074 0.87866 1.00061 0.0
H511 H 0.83347 0.95713 0.98681 0.0
H512 H 0.81704 0.91058 0.89854 0.0
C513 C 0.81488 0.87673 0.08673 0.0
C514 C 0.12148 0.96915 0.05574 0.0
C515 C 0.14611 0.96257 0.03673 0.0
H516 H 0.07596 0.95231 0.11541 0.0
C517 C 0.14718 0.9378 0.07825 0.0
H518 H 0.12023 0.98828 0.02422 0.0
C519 C 0.12265 0.91814 0.13216 0.0
C520 C 0.09589 0.92208 0.1433 0.0
H521 H 0.16607 0.93252 0.06548 0.0
H522 H 0.12327 0.89799 0.15945 0.0
C523 C 0.09626 0.94879 0.10834 0.0
C524 C 0.07951 0.23689 0.06911 0.0
C525 C 0.05191 0.21102 0.03667 0.0
H526 H 0.12189 0.25225 0.14021 0.0
C527 C 0.04337 0.17992 0.06255 0.0
H528 H 0.0864 0.26105 0.05116 0.0
C529 C 0.06411 0.17468 0.11275 0.0
C530 C 0.0933 0.20059 0.13805 0.0
H531 H 0.02207 0.1595 0.03824 0.0
H532 H 0.05858 0.15051 0.12565 0.0
C533 C 0.09977 0.23173 0.12007 0.0
C534 C 0.78489 0.51446 0.90321 0.0
C535 C 0.80612 0.54442 0.86845 0.0
H536 H 0.74712 0.48811 0.98955 0.0
C537 C 0.80892 0.57187 0.90583 0.0
H538 H 0.78273 0.4928 0.87722 0.0
C539 C 0.78856 0.56912 0.97135 0.0
C540 C 0.76503 0.53885 1.00018 0.0
H541 H 0.82525 0.59526 0.88104 0.0
H542 H 0.78977 0.59064 0.99509 0.0
C543 C 0.76455 0.51169 0.96816 0.0
C544 C 0.50775 0.27426 0.94876 0.0
C545 C 0.48058 0.25107 0.9902 0.0
H546 H 0.52622 0.30892 0.85199 0.0
C547 C 0.45076 0.24835 0.97145 0.0
H548 H 0.53105 0.27723 0.96187 0.0
C549 C 0.44778 0.26625 0.90718 0.0
C550 C 0.4746 0.28734 0.86078 0.0
H551 H 0.42925 0.23092 1.0028 0.0
H552 H 0.42432 0.26224 0.89099 0.0
C553 C 0.5048 0.29223 0.88502 0.0
C554 C 0.7357 0.24991 0.96115 0.0
C555 C 0.76163 0.24854 0.99556 0.0
H556 H 0.69909 0.23218 0.86897 0.0
C557 C 0.76766 0.22427 0.96862 0.0
H558 H 0.73012 0.26798 0.98087 0.0
C559 C 0.74998 0.20376 0.90336 0.0
C560 C 0.72592 0.20712 0.86413 0.0
H561 H 0.7874 0.22238 0.9941 0.0
H562 H 0.75641 0.18665 0.88057 0.0
C563 C 0.71804 0.22942 0.89642 0.0
C564 C 0.83508 0.44303 0.37812 0.0
C565 C 0.84694 0.47395 0.34663 0.0
H566 H 0.81884 0.39411 0.34988 0.0
C567 C 0.84707 0.47851 0.26027 0.0
H568 H 0.83406 0.43892 0.44475 0.0
C569 C 0.8385 0.4528 0.20594 0.0
C570 C 0.82843 0.42218 0.2377 0.0
H571 H 0.85568 0.50215 0.23498 0.0
H572 H 0.84193 0.45721 0.1395 0.0
C573 C 0.82553 0.41729 0.32406 0.0
C574 C 0.53365 0.39437 0.25888 0.0
C575 C 0.53836 0.39945 0.34507 0.0
H576 H 0.55487 0.40926 0.13774 0.0
C577 C 0.56942 0.41832 0.37622 0.0
H578 H 0.50991 0.37941 0.23384 0.0
C579 C 0.59518 0.43369 0.32189 0.0
C580 C 0.59017 0.43108 0.23552 0.0
H581 H 0.57369 0.42184 0.44276 0.0
H582 H 0.6185 0.45009 0.34734 0.0
C583 C 0.55938 0.4107 0.20423 0.0
C584 C 0.62364 0.18607 0.30535 0.0
C585 C 0.61802 0.15507 0.32159 0.0
H586 H 0.60599 0.2143 0.24691 0.0
C587 C 0.594 0.12934 0.27788 0.0
H588 H 0.64218 0.20631 0.33878 0.0
C589 C 0.57425 0.13405 0.22374 0.0
C590 C 0.57728 0.16442 0.21458 0.0
H591 H 0.5895 0.10536 0.28868 0.0
H592 H 0.55484 0.11331 0.1941 0.0
C593 C 0.60316 0.19073 0.25248 0.0
C594 C 0.56515 0.1885 0.82379 0.0
C595 C 0.53735 0.15892 0.83834 0.0
H596 H 0.60865 0.21436 0.75515 0.0
C597 C 0.53039 0.13345 0.78449 0.0
H598 H 0.57112 0.20891 0.86316 0.0
C599 C 0.55185 0.13683 0.7215 0.0
C600 C 0.58088 0.16569 0.71136 0.0
H601 H 0.50905 0.11054 0.79303 0.0
H602 H 0.54639 0.11618 0.68369 0.0
C603 C 0.58668 0.19182 0.7612 0.0
C604 C 0.87209 0.41764 0.7961 0.0
C605 C 0.84752 0.40131 0.85384 0.0
H606 H 0.88892 0.44932 0.69238 0.0
C607 C 0.81886 0.40205 0.84443 0.0
H608 H 0.8942 0.41716 0.8006 0.0
C609 C 0.81575 0.42055 0.78231 0.0
C610 C 0.84121 0.43861 0.72829 0.0
H611 H 0.79918 0.38939 0.88726 0.0
H612 H 0.79419 0.42211 0.77983 0.0
C613 C 0.86891 0.43596 0.73383 0.0
C614 C 0.61172 0.44071 0.84118 0.0
C615 C 0.6134 0.47056 0.84896 0.0
H616 H 0.59096 0.3959 0.77683 0.0
C617 C 0.59875 0.47971 0.78824 0.0
H618 H 0.62312 0.43303 0.8864 0.0
C619 C 0.58087 0.45862 0.72478 0.0
C620 C 0.57697 0.42778 0.72111 0.0
H621 H 0.60008 0.5027 0.79133 0.0
H622 H 0.56858 0.46587 0.68118 0.0
C623 C 0.59362 0.41948 0.77782 0.0
C624 C 0.4422 0.19979 0.40429 0.0
C625 C 0.46791 0.19748 0.37284 0.0
H626 H 0.42726 0.22698 0.47606 0.0
C627 C 0.49903 0.21917 0.40073 0.0
H628 H 0.41803 0.18318 0.38469 0.0
C629 C 0.50458 0.24494 0.45209 0.0
C630 C 0.47894 0.24888 0.4766 0.0
H631 H 0.51932 0.21784 0.37713 0.0
H632 H 0.52887 0.26295 0.46663 0.0
C633 C 0.44763 0.22495 0.45652 0.0
C634 C 0.8152 0.27367 0.42562 0.0
C635 C 0.81444 0.29898 0.3861 0.0
H636 H 0.79092 0.23326 0.50478 0.0
C637 C 0.79041 0.30611 0.40777 0.0
H638 H 0.83363 0.26795 0.41077 0.0
C639 C 0.7653 0.28572 0.46049 0.0
C640 C 0.76441 0.2584 0.49276 0.0
H641 H 0.78938 0.32563 0.37786 0.0
H642 H 0.74534 0.28967 0.46937 0.0
C643 C 0.79072 0.25391 0.47951 0.0
C644 C 0.75963 0.5623 0.47315 0.0
C645 C 0.75382 0.53131 0.49015 0.0
H646 H 0.74618 0.59123 0.40271 0.0
C647 C 0.72525 0.50512 0.46258 0.0
H648 H 0.7813 0.58298 0.49486 0.0
C649 C 0.70472 0.51 0.41056 0.0
C650 C 0.71288 0.54104 0.3851 0.0
H651 H 0.72026 0.48106 0.47457 0.0
H652 H 0.68414 0.48942 0.38408 0.0
C653 C 0.73959 0.56712 0.42038 0.0
C654 C 0.40961 0.82859 0.22665 0.0
C655 C 0.41678 0.85413 0.28032 0.0
H656 H 0.42441 0.81199 0.12177 0.0
C657 C 0.44693 0.88192 0.27443 0.0
H658 H 0.38662 0.80698 0.22938 0.0
C659 C 0.46845 0.8851 0.21216 0.0
C660 C 0.46043 0.86046 0.15464 0.0
H661 H 0.45336 0.90199 0.31562 0.0
H662 H 0.49086 0.90728 0.20744 0.0
C663 C 0.43125 0.83171 0.16442 0.0
C664 C 0.18152 0.60432 0.24178 0.0
C665 C 0.15536 0.58434 0.29185 0.0
H666 H 0.19861 0.6364 0.13893 0.0
C667 C 0.12654 0.58467 0.28136 0.0
H668 H 0.20403 0.60476 0.24815 0.0
C669 C 0.12317 0.60246 0.21766 0.0
C670 C 0.14863 0.62054 0.16355 0.0
H671 H 0.10588 0.56976 0.31936 0.0
H672 H 0.10027 0.60099 0.20884 0.0
C673 C 0.17821 0.62227 0.17851 0.0
C674 C 0.40366 0.54544 0.21134 0.0
C675 C 0.3887 0.55432 0.15085 0.0
H676 H 0.43431 0.55969 0.31742 0.0
C677 C 0.39065 0.58432 0.1577 0.0
H678 H 0.40217 0.52238 0.2089 0.0
C679 C 0.40915 0.60587 0.22006 0.0
C680 C 0.42596 0.59776 0.27676 0.0
H681 H 0.37906 0.59183 0.1126 0.0
H682 H 0.41186 0.62947 0.22051 0.0
C683 C 0.42194 0.56685 0.27382 0.0
C684 C 0.50172 0.80583 0.59602 0.0
C685 C 0.53276 0.82784 0.62392 0.0
H686 H 0.47233 0.76186 0.53042 0.0
C687 C 0.55869 0.826 0.59203 0.0
H688 H 0.48124 0.80676 0.61982 0.0
C689 C 0.55358 0.80086 0.54004 0.0
C690 C 0.52241 0.7766 0.52027 0.0
H691 H 0.58281 0.84282 0.61156 0.0
H692 H 0.57409 0.79904 0.52068 0.0
C693 C 0.49654 0.78017 0.54468 0.0
C694 C 0.21284 0.77415 0.54329 0.0
C695 C 0.23766 0.7678 0.52535 0.0
H696 H 0.17033 0.76084 0.61297 0.0
C697 C 0.23467 0.73876 0.55078 0.0
H698 H 0.21419 0.79613 0.52296 0.0
C699 C 0.2089 0.71811 0.60132 0.0
C700 C 0.18629 0.72662 0.62741 0.0
H701 H 0.25342 0.73332 0.53786 0.0
H702 H 0.20829 0.69699 0.62596 0.0
C703 C 0.18765 0.754 0.5947 0.0
C704 C 0.27449 0.51893 0.54111 0.0
C705 C 0.24733 0.49242 0.50835 0.0
H706 H 0.31417 0.53506 0.62506 0.0
C707 C 0.24296 0.46176 0.52251 0.0
H708 H 0.27837 0.54275 0.53156 0.0
C709 C 0.26263 0.45727 0.57757 0.0
C710 C 0.28776 0.48342 0.61739 0.0
H711 H 0.22246 0.44084 0.49689 0.0
H712 H 0.25699 0.43322 0.59291 0.0
C713 C 0.29479 0.51443 0.59499 0.0
C714 C 0.1914 0.45218 0.09861 0.0
C715 C 0.19432 0.47959 0.13668 0.0
H716 H 0.21051 0.43344 0.00909 0.0
C717 C 0.21608 0.50963 0.10321 0.0
H718 H 0.1747 0.42874 0.12239 0.0
C719 C 0.23661 0.51244 0.03865 0.0
C720 C 0.23583 0.48525 0.00564 0.0
H721 H 0.21844 0.53129 0.12976 0.0
H722 H 0.25433 0.53604 0.01812 0.0
C723 C 0.21196 0.45498 0.03351 0.0
C724 C 0.50316 0.7305 0.10566 0.0
C725 C 0.53317 0.73834 0.13912 0.0
H726 H 0.47701 0.74302 0.02121 0.0
C727 C 0.56074 0.76261 0.10149 0.0
H728 H 0.48138 0.71133 0.13188 0.0
C729 C 0.55815 0.78066 0.03695 0.0
C730 C 0.52795 0.77476 0.0093 0.0
H731 H 0.58414 0.76898 0.12528 0.0
H732 H 0.57984 0.8006 0.01286 0.0
C733 C 0.50057 0.74853 0.04168 0.0
C734 C 0.25122 0.8163 0.10092 0.0
C735 C 0.27353 0.81178 0.14559 0.0
H736 H 0.21545 0.79854 0.006 0.0
C737 C 0.2799 0.78765 0.11928 0.0
H738 H 0.24602 0.83482 0.11876 0.0
C739 C 0.26238 0.76674 0.05501 0.0
C740 C 0.23816 0.76951 0.01496 0.0
H741 H 0.29752 0.78387 0.15094 0.0
H742 H 0.26664 0.74735 0.04013 0.0
C743 C 0.23377 0.79543 0.03606 0.0
C744 C 0.18308 0.58846 0.74671 0.0
C745 C 0.15716 0.58674 0.79042 0.0
H746 H 0.19793 0.56622 0.65475 0.0
C747 C 0.12735 0.55847 0.78605 0.0
H748 H 0.20617 0.60998 0.74842 0.0
C749 C 0.12236 0.53428 0.73068 0.0
C750 C 0.14741 0.53726 0.68112 0.0
H751 H 0.10698 0.5563 0.82002 0.0
H752 H 0.09856 0.51401 0.72348 0.0
C753 C 0.17823 0.56359 0.69269 0.0
C754 C 0.40537 0.5895 0.67855 0.0
C755 C 0.41001 0.59264 0.76503 0.0
H756 H 0.42725 0.60132 0.55814 0.0
C757 C 0.44052 0.6138 0.79676 0.0
H758 H 0.38229 0.57253 0.65283 0.0
C759 C 0.46634 0.63047 0.74251 0.0
C760 C 0.46206 0.62497 0.65634 0.0
H761 H 0.44479 0.61567 0.86339 0.0
H762 H 0.48986 0.64604 0.76796 0.0
C763 C 0.43123 0.60523 0.62469 0.0
C764 C 0.40958 0.85235 0.6257 0.0
C765 C 0.38902 0.86233 0.65812 0.0
H766 H 0.44324 0.83714 0.65256 0.0
C767 C 0.38328 0.8603 0.74429 0.0
H768 H 0.41369 0.85288 0.55913 0.0
C769 C 0.40039 0.85137 0.79788 0.0
C770 C 0.42224 0.84304 0.76539 0.0
H771 H 0.36707 0.86735 0.77032 0.0
H772 H 0.39822 0.85309 0.86467 0.0
C773 C 0.42575 0.84245 0.6788 0.0
C774 C 0.08059 0.34242 0.66502 0.0
C775 C 0.05578 0.31551 0.62618 0.0
H776 H 0.11639 0.39125 0.65367 0.0
C777 C 0.04873 0.31757 0.54188 0.0
H778 H 0.08676 0.34164 0.72958 0.0
C779 C 0.06609 0.34609 0.49761 0.0
C780 C 0.09046 0.37312 0.5373 0.0
H781 H 0.02992 0.29711 0.50986 0.0
H782 H 0.06 0.34717 0.43315 0.0
C783 C 0.09758 0.37088 0.6213 0.0
C784 C 0.67171 0.76114 0.66066 0.0
C785 C 0.69847 0.76362 0.61976 0.0
H786 H 0.6222 0.74646 0.65335 0.0
C787 C 0.69547 0.75353 0.53614 0.0
H788 H 0.67323 0.76875 0.72486 0.0
C789 C 0.66622 0.74119 0.4944 0.0
C790 C 0.63935 0.73814 0.53614 0.0
H791 H 0.7158 0.75544 0.50269 0.0
H792 H 0.66447 0.73343 0.43027 0.0
C793 C 0.64246 0.74831 0.61958 0.0
C794 C 0.24935 0.93113 0.66508 0.0
C795 C 0.24471 0.95391 0.62324 0.0
H796 H 0.26588 0.89773 0.65815 0.0
C797 C 0.25259 0.95945 0.53789 0.0
H798 H 0.24347 0.92617 0.73054 0.0
C799 C 0.26509 0.94271 0.49566 0.0
C800 C 0.27046 0.92054 0.53839 0.0
H801 H 0.24902 0.97668 0.50355 0.0
H802 H 0.27125 0.94767 0.43035 0.0
C803 C 0.26226 0.91485 0.6234 0.0
C804 C 0.33246 0.07919 0.8315 0.0
C805 C 0.3063 0.07838 0.87171 0.0
H806 H 0.3814 0.09111 0.84122 0.0
C807 C 0.31032 0.09087 0.95291 0.0
H808 H 0.33 0.06958 0.7692 0.0
C809 C 0.33951 0.10317 0.99398 0.0
C810 C 0.36545 0.10305 0.9553 0.0
H811 H 0.29066 0.09079 0.98549 0.0
H812 H 0.3415 0.11225 0.05676 0.0
C813 C 0.36175 0.09124 0.87318 0.0
C814 C 0.92301 0.24595 0.96708 0.0
C815 C 0.93297 0.25287 0.88347 0.0
H816 H 0.90355 0.25686 0.07336 0.0
C817 C 0.92977 0.27661 0.84196 0.0
H818 H 0.92497 0.22764 1.00086 0.0
C819 C 0.91773 0.29372 0.88423 0.0
C820 C 0.90833 0.28713 0.96846 0.0
H821 H 0.93738 0.28258 0.77779 0.0
H822 H 0.91589 0.31218 0.8509 0.0
C823 C 0.91074 0.26275 0.00888 0.0
C824 C 0.73561 0.67628 0.83766 0.0
C825 C 0.75709 0.70392 0.88109 0.0
H826 H 0.70214 0.62625 0.84505 0.0
C827 C 0.76219 0.7017 0.96667 0.0
H828 H 0.73114 0.67731 0.77188 0.0
C829 C 0.74588 0.67267 0.00838 0.0
C830 C 0.72371 0.64513 0.96586 0.0
H831 H 0.77882 0.72255 1.00189 0.0
H832 H 0.75033 0.67196 0.07433 0.0
C833 C 0.71886 0.64716 0.87986 0.0
C834 C 0.93393 0.67684 0.50933 0.0
C835 C 0.90981 0.65017 0.46781 0.0
H836 H 0.97005 0.72597 0.50048 0.0
C837 C 0.90291 0.65325 0.3842 0.0
H838 H 0.93982 0.67511 0.57356 0.0
C839 C 0.91991 0.68226 0.34262 0.0
C840 C 0.94457 0.70877 0.38325 0.0
H841 H 0.8843 0.63314 0.35058 0.0
H842 H 0.91402 0.68376 0.27824 0.0
C843 C 0.95136 0.70583 0.46717 0.0
C844 C 0.3063 0.2696 0.47232 0.0
C845 C 0.30312 0.25823 0.38988 0.0
H846 H 0.33752 0.29119 0.57724 0.0
C847 C 0.32957 0.25935 0.35079 0.0
H848 H 0.28618 0.26871 0.50445 0.0
C849 C 0.35882 0.27248 0.39205 0.0
C850 C 0.36218 0.28424 0.47395 0.0
H851 H 0.32787 0.25069 0.28763 0.0
H852 H 0.37896 0.27355 0.3595 0.0
C853 C 0.33553 0.28219 0.51436 0.0
C854 C 0.74588 0.0619 0.46734 0.0
C855 C 0.75588 0.06898 0.3837 0.0
H856 H 0.72586 0.07276 0.57347 0.0
C857 C 0.7535 0.09337 0.34327 0.0
H858 H 0.74769 0.0434 0.50053 0.0
C859 C 0.74084 0.10989 0.38476 0.0
C860 C 0.73067 0.10277 0.46815 0.0
H861 H 0.76106 0.09949 0.2791 0.0
H862 H 0.73906 0.12835 0.35123 0.0
C863 C 0.73363 0.07884 0.50944 0.0
C864 C 0.66318 0.92652 1.00065 0.0
C865 C 0.63605 0.9228 0.04228 0.0
H866 H 0.71287 0.94217 0.00732 0.0
C867 C 0.63865 0.93135 0.12723 0.0
H868 H 0.66207 0.92005 0.93555 0.0
C869 C 0.66794 0.94377 0.16913 0.0
C870 C 0.69519 0.94827 0.12642 0.0
H871 H 0.61807 0.92848 0.1614 0.0
H872 H 0.66943 0.95063 0.23399 0.0
C873 C 0.69236 0.93923 0.042 0.0
C874 C 0.07544 0.77463 0.04294 0.0
C875 C 0.06596 0.76803 0.12689 0.0
H876 H 0.09461 0.7635 0.93648 0.0
C877 C 0.06947 0.74454 0.16877 0.0
H878 H 0.07323 0.79277 0.009 0.0
C879 C 0.08141 0.72737 0.1265 0.0
C880 C 0.09048 0.73376 0.04208 0.0
H881 H 0.06224 0.73888 0.23328 0.0
H882 H 0.08357 0.70913 0.16002 0.0
C883 C 0.08772 0.75786 1.00121 0.0
C884 C 0.26618 0.34757 0.16434 0.0
C885 C 0.24554 0.31959 0.12084 0.0
H886 H 0.29834 0.39788 0.15719 0.0
C887 C 0.24083 0.32149 0.03482 0.0
H888 H 0.27033 0.34686 0.23047 0.0
C889 C 0.25655 0.35059 0.99302 0.0
C890 C 0.27774 0.3785 0.03589 0.0
H891 H 0.22488 0.30038 0.99945 0.0
H892 H 0.25239 0.35112 0.92681 0.0
C893 C 0.28234 0.37671 0.12211 0.0
C894 C 0.97779 0.42836 0.28613 0.0
C895 C 0.972 0.41446 0.20627 0.0
H896 H 0.01103 0.45052 0.38604 0.0
C897 C -0.00304 0.41352 0.16426 0.0
H898 H 0.95905 0.42957 0.32007 0.0
C899 C 0.02673 0.42514 0.20284 0.0
C900 C 0.03224 0.43834 0.28368 0.0
H901 H -0.00684 0.40278 0.10298 0.0
H902 H 0.04536 0.42356 0.16949 0.0
C903 C 0.00758 0.44035 0.32413 0.0
C904 C 0.59763 0.60629 0.1596 0.0
C905 C 0.59577 0.57968 0.19958 0.0
H906 H 0.58819 0.64497 0.16738 0.0
C907 C 0.58063 0.57042 0.27768 0.0
H908 H 0.60937 0.61409 0.09976 0.0
C909 C 0.56844 0.58791 0.31631 0.0
C910 C 0.57152 0.61537 0.27826 0.0
H911 H 0.57873 0.54988 0.3099 0.0
H912 H 0.55737 0.58036 0.37699 0.0
C913 C 0.58582 0.62413 0.19889 0.0
C914 C 0.38317 0.98211 0.19844 0.0
C915 C 0.39145 0.9776 0.27957 0.0
H916 H 0.39298 0.01487 0.09739 0.0
C917 C 0.41742 0.00307 0.31965 0.0
H918 H 0.36345 0.96277 0.16553 0.0
C919 C 0.43402 0.03268 0.28095 0.0
C920 C 0.42537 0.03744 0.20073 0.0
H921 H 0.42454 0.00036 0.38179 0.0
H922 H 0.4535 0.05207 0.31443 0.0
C923 C 0.4002 0.01175 0.15899 0.0
C924 C 0.56252 0.99025 0.72335 0.0
C925 C 0.57143 0.98494 0.80264 0.0
H926 H 0.57252 0.02282 0.62277 0.0
C927 C 0.59755 0.01008 0.84327 0.0
H928 H 0.54235 0.97133 0.6906 0.0
C929 C 0.61522 0.0396 0.80358 0.0
C930 C 0.60678 0.04459 0.72312 0.0
H931 H 0.60507 0.00657 0.90407 0.0
H932 H 0.63567 0.05841 0.83568 0.0
C933 C 0.57984 0.01976 0.68429 0.0
C934 C 0.02148 0.5959 0.7185 0.0
C935 C 0.02669 0.60903 0.79918 0.0
H936 H 0.98859 0.57384 0.61788 0.0
C937 C 0.00131 0.60876 0.842 0.0
H938 H 0.04064 0.59564 0.68416 0.0
C939 C 0.97156 0.59675 0.80326 0.0
C940 C 0.96659 0.5843 0.72167 0.0
H941 H 0.00475 0.61889 0.90397 0.0
H942 H 0.95251 0.59738 0.8371 0.0
C943 C 0.99169 0.58343 0.68042 0.0
C944 C 0.43204 0.43546 0.68632 0.0
C945 C 0.42963 0.40848 0.72565 0.0
H946 H 0.421 0.473 0.69094 0.0
C947 C 0.4155 0.4 0.80526 0.0
H948 H 0.44293 0.44279 0.62538 0.0
C949 C 0.40334 0.41771 0.84368 0.0
C950 C 0.40466 0.4439 0.80257 0.0
H951 H 0.4136 0.37952 0.8377 0.0
H952 H 0.39184 0.41018 0.90388 0.0
C953 C 0.41951 0.45281 0.72406 0.0
loop_
_geom_bond_atom_site_label_1
_geom_bond_atom_site_label_2
_geom_bond_distance
_geom_bond_site_symmetry_2
_ccdc_geom_bond_type
O0 Zn1 1.953 1_455 S
O0 C16 1.225 . S
Zn1 O0 1.953 1_655 S
Zn1 O2 1.949 1_655 S
Zn1 O8 1.919 . S
Zn1 O13 1.924 . S
O2 Zn1 1.949 1_455 S
O2 Zn3 1.923 1_455 S
O2 Zn4 1.950 . S
O2 Zn5 1.945 1_455 S
Zn3 O2 1.923 1_655 S
Zn3 O6 1.933 . S
Zn3 O9 1.941 . S
Zn3 O10 1.965 1_655 S
Zn4 O2 1.950 . S
Zn4 O11 1.938 . S
Zn4 O12 1.906 . S
Zn4 O22 1.953 . S
Zn5 O2 1.945 1_655 S
Zn5 O7 1.932 . S
Zn5 O14 1.977 1_655 S
Zn5 O15 1.910 . S
O6 Zn3 1.933 . S
O6 C17 1.226 . S
O7 Zn5 1.932 . S
O7 C17 1.307 . S
O8 Zn1 1.919 . S
O8 C19 1.253 . S
O9 Zn3 1.941 . S
O9 C19 1.283 . S
O10 Zn3 1.965 1_455 S
O10 C18 1.303 . S
O11 Zn4 1.938 . S
O11 C18 1.247 . S
O12 Zn4 1.906 . S
O12 C20 1.304 . S
O13 Zn1 1.924 . S
O13 C21 1.311 . S
O14 Zn5 1.977 1_455 S
O14 C20 1.272 . S
O15 Zn5 1.910 . S
O15 C21 1.231 . S
C16 O0 1.225 . S
C16 O22 1.298 . S
C17 O6 1.226 . S
C17 O7 1.307 . S
C18 O10 1.303 . S
C18 O11 1.247 . S
C19 O8 1.253 . S
C19 O9 1.283 . S
C20 O12 1.304 . S
C20 O14 1.272 . S
C21 O13 1.311 . S
C21 O15 1.231 . S
O22 Zn4 1.953 . S
O22 C16 1.298 . S
O23 Zn24 1.953 . S
O23 C39 1.225 . S
Zn24 O23 1.953 . S
Zn24 O25 1.949 . S
Zn24 O31 1.919 . S
Zn24 O36 1.924 . S
O25 Zn24 1.949 . S
O25 Zn26 1.923 . S
O25 Zn27 1.950 . S
O25 Zn28 1.945 . S
Zn26 O25 1.923 . S
Zn26 O29 1.933 . S
Zn26 O32 1.941 . S
Zn26 O33 1.965 . S
Zn27 O25 1.950 . S
Zn27 O34 1.938 . S
Zn27 O35 1.906 . S
Zn27 O45 1.953 . S
Zn28 O25 1.945 . S
Zn28 O30 1.932 . S
Zn28 O37 1.977 . S
Zn28 O38 1.910 . S
O29 Zn26 1.933 . S
O29 C40 1.226 . S
O30 Zn28 1.932 . S
O30 C40 1.307 . S
O31 Zn24 1.919 . S
O31 C42 1.253 . S
O32 Zn26 1.941 . S
O32 C42 1.283 . S
O33 Zn26 1.965 . S
O33 C41 1.303 . S
O34 Zn27 1.938 . S
O34 C41 1.247 . S
O35 Zn27 1.906 . S
O35 C43 1.304 . S
O36 Zn24 1.924 . S
O36 C44 1.311 . S
O37 Zn28 1.977 . S
O37 C43 1.272 . S
O38 Zn28 1.910 . S
O38 C44 1.231 . S
C39 O23 1.225 . S
C39 O45 1.298 . S
C40 O29 1.226 . S
C40 O30 1.307 . S
C41 O33 1.303 . S
C41 O34 1.247 . S
C42 O31 1.253 . S
C42 O32 1.283 . S
C43 O35 1.304 . S
C43 O37 1.272 . S
C44 O36 1.311 . S
C44 O38 1.231 . S
O45 Zn27 1.953 . S
O45 C39 1.298 . S
O46 Zn47 1.953 . S
O46 C62 1.225 1_545 S
Zn47 O46 1.953 . S
Zn47 O48 1.949 . S
Zn47 O54 1.919 . S
Zn47 O59 1.924 . S
O48 Zn47 1.949 . S
O48 Zn49 1.923 . S
O48 Zn50 1.950 1_545 S
O48 Zn51 1.945 . S
Zn49 O48 1.923 . S
Zn49 O52 1.933 . S
Zn49 O55 1.941 . S
Zn49 O56 1.965 1_545 S
Zn50 O48 1.950 1_565 S
Zn50 O57 1.938 . S
Zn50 O58 1.906 . S
Zn50 O68 1.953 . S
Zn51 O48 1.945 . S
Zn51 O53 1.932 . S
Zn51 O60 1.977 1_545 S
Zn51 O61 1.910 . S
O52 Zn49 1.933 . S
O52 C63 1.226 . S
O53 Zn51 1.932 . S
O53 C63 1.307 . S
O54 Zn47 1.919 . S
O54 C65 1.253 . S
O55 Zn49 1.941 . S
O55 C65 1.283 . S
O56 Zn49 1.965 1_565 S
O56 C64 1.303 . S
O57 Zn50 1.938 . S
O57 C64 1.247 . S
O58 Zn50 1.906 . S
O58 C66 1.304 . S
O59 Zn47 1.924 . S
O59 C67 1.311 . S
O60 Zn51 1.977 1_565 S
O60 C66 1.272 . S
O61 Zn51 1.910 . S
O61 C67 1.231 . S
C62 O46 1.225 1_565 S
C62 O68 1.298 . S
C63 O52 1.226 . S
C63 O53 1.307 . S
C64 O56 1.303 . S
C64 O57 1.247 . S
C65 O54 1.253 . S
C65 O55 1.283 . S
C66 O58 1.304 . S
C66 O60 1.272 . S
C67 O59 1.311 . S
C67 O61 1.231 . S
O68 Zn50 1.953 . S
O68 C62 1.298 . S
O69 Zn70 1.953 . S
O69 C85 1.225 . S
Zn70 O69 1.953 . S
Zn70 O71 1.949 . S
Zn70 O77 1.919 . S
Zn70 O82 1.924 . S
O71 Zn70 1.949 . S
O71 Zn72 1.923 . S
O71 Zn73 1.950 . S
O71 Zn74 1.945 1_455 S
Zn72 O71 1.923 . S
Zn72 O75 1.933 1_455 S
Zn72 O78 1.941 . S
Zn72 O79 1.965 . S
Zn73 O71 1.950 . S
Zn73 O80 1.938 . S
Zn73 O81 1.906 1_455 S
Zn73 O91 1.953 . S
Zn74 O71 1.945 1_655 S
Zn74 O76 1.932 . S
Zn74 O83 1.977 . S
Zn74 O84 1.910 . S
O75 Zn72 1.933 1_655 S
O75 C86 1.226 . S
O76 Zn74 1.932 . S
O76 C86 1.307 . S
O77 Zn70 1.919 . S
O77 C88 1.253 . S
O78 Zn72 1.941 . S
O78 C88 1.283 . S
O79 Zn72 1.965 . S
O79 C87 1.303 . S
O80 Zn73 1.938 . S
O80 C87 1.247 . S
O81 Zn73 1.906 1_655 S
O81 C89 1.304 . S
O82 Zn70 1.924 . S
O82 C90 1.311 1_455 S
O83 Zn74 1.977 . S
O83 C89 1.272 . S
O84 Zn74 1.910 . S
O84 C90 1.231 . S
C85 O69 1.225 . S
C85 O91 1.298 . S
C86 O75 1.226 . S
C86 O76 1.307 . S
C87 O79 1.303 . S
C87 O80 1.247 . S
C88 O77 1.253 . S
C88 O78 1.283 . S
C89 O81 1.304 . S
C89 O83 1.272 . S
C90 O82 1.311 1_655 S
C90 O84 1.231 . S
O91 Zn73 1.953 . S
O91 C85 1.298 . S
O92 Zn93 1.953 . S
O92 C108 1.225 . S
Zn93 O92 1.953 . S
Zn93 O94 1.949 . S
Zn93 O100 1.919 . S
Zn93 O105 1.924 . S
O94 Zn93 1.949 . S
O94 Zn95 1.923 . S
O94 Zn96 1.950 . S
O94 Zn97 1.945 . S
Zn95 O94 1.923 . S
Zn95 O98 1.933 . S
Zn95 O101 1.941 . S
Zn95 O102 1.965 . S
Zn96 O94 1.950 . S
Zn96 O103 1.938 . S
Zn96 O104 1.906 . S
Zn96 O114 1.953 . S
Zn97 O94 1.945 . S
Zn97 O99 1.932 . S
Zn97 O106 1.977 . S
Zn97 O107 1.910 . S
O98 Zn95 1.933 . S
O98 C109 1.226 . S
O99 Zn97 1.932 . S
O99 C109 1.307 . S
O100 Zn93 1.919 . S
O100 C111 1.253 . S
O101 Zn95 1.941 . S
O101 C111 1.283 . S
O102 Zn95 1.965 . S
O102 C110 1.303 . S
O103 Zn96 1.938 . S
O103 C110 1.247 . S
O104 Zn96 1.906 . S
O104 C112 1.304 . S
O105 Zn93 1.924 . S
O105 C113 1.311 . S
O106 Zn97 1.977 . S
O106 C112 1.272 . S
O107 Zn97 1.910 . S
O107 C113 1.231 . S
C108 O92 1.225 . S
C108 O114 1.298 . S
C109 O98 1.226 . S
C109 O99 1.307 . S
C110 O102 1.303 . S
C110 O103 1.247 . S
C111 O100 1.253 . S
C111 O101 1.283 . S
C112 O104 1.304 . S
C112 O106 1.272 . S
C113 O105 1.311 . S
C113 O107 1.231 . S
O114 Zn96 1.953 . S
O114 C108 1.298 . S
O115 Zn116 1.953 . S
O115 C131 1.225 . S
Zn116 O115 1.953 . S
Zn116 O117 1.949 1_565 S
Zn116 O123 1.919 . S
Zn116 O128 1.924 1_565 S
O117 Zn116 1.949 1_545 S
O117 Zn118 1.923 1_545 S
O117 Zn119 1.950 . S
O117 Zn120 1.945 . S
Zn118 O117 1.923 1_565 S
Zn118 O121 1.933 1_565 S
Zn118 O124 1.941 . S
Zn118 O125 1.965 . S
Zn119 O117 1.950 . S
Zn119 O126 1.938 1_545 S
Zn119 O127 1.906 . S
Zn119 O137 1.953 1_545 S
Zn120 O117 1.945 . S
Zn120 O122 1.932 . S
Zn120 O129 1.977 . S
Zn120 O130 1.910 . S
O121 Zn118 1.933 1_545 S
O121 C132 1.226 . S
O122 Zn120 1.932 . S
O122 C132 1.307 . S
O123 Zn116 1.919 . S
O123 C134 1.253 . S
O124 Zn118 1.941 . S
O124 C134 1.283 . S
O125 Zn118 1.965 . S
O125 C133 1.303 . S
O126 Zn119 1.938 1_565 S
O126 C133 1.247 . S
O127 Zn119 1.906 . S
O127 C135 1.304 . S
O128 Zn116 1.924 1_545 S
O128 C136 1.311 . S
O129 Zn120 1.977 . S
O129 C135 1.272 . S
O130 Zn120 1.910 . S
O130 C136 1.231 . S
C131 O115 1.225 . S
C131 O137 1.298 . S
C132 O121 1.226 . S
C132 O122 1.307 . S
C133 O125 1.303 . S
C133 O126 1.247 . S
C134 O123 1.253 . S
C134 O124 1.283 . S
C135 O127 1.304 . S
C135 O129 1.272 . S
C136 O128 1.311 . S
C136 O130 1.231 . S
O137 Zn119 1.953 1_565 S
O137 C131 1.298 . S
O138 Zn139 1.953 1_556 S
O138 C154 1.225 . S
Zn139 O138 1.953 1_554 S
Zn139 O140 1.949 . S
Zn139 O146 1.919 1_554 S
Zn139 O151 1.924 . S
O140 Zn139 1.949 . S
O140 Zn141 1.923 . S
O140 Zn142 1.950 . S
O140 Zn143 1.945 . S
Zn141 O140 1.923 . S
Zn141 O144 1.933 . S
Zn141 O147 1.941 1_554 S
Zn141 O148 1.965 1_554 S
Zn142 O140 1.950 . S
Zn142 O149 1.938 . S
Zn142 O150 1.906 . S
Zn142 O160 1.953 . S
Zn143 O140 1.945 . S
Zn143 O145 1.932 . S
Zn143 O152 1.977 . S
Zn143 O153 1.910 . S
O144 Zn141 1.933 . S
O144 C155 1.226 . S
O145 Zn143 1.932 . S
O145 C155 1.307 . S
O146 Zn139 1.919 1_556 S
O146 C157 1.253 . S
O147 Zn141 1.941 1_556 S
O147 C157 1.283 . S
O148 Zn141 1.965 1_556 S
O148 C156 1.303 . S
O149 Zn142 1.938 . S
O149 C156 1.247 1_554 S
O150 Zn142 1.906 . S
O150 C158 1.304 . S
O151 Zn139 1.924 . S
O151 C159 1.311 . S
O152 Zn143 1.977 . S
O152 C158 1.272 . S
O153 Zn143 1.910 . S
O153 C159 1.231 . S
C154 O138 1.225 . S
C154 O160 1.298 1_556 S
C155 O144 1.226 . S
C155 O145 1.307 . S
C156 O148 1.303 . S
C156 O149 1.247 1_556 S
C157 O146 1.253 . S
C157 O147 1.283 . S
C158 O150 1.304 . S
C158 O152 1.272 . S
C159 O151 1.311 . S
C159 O153 1.231 . S
O160 Zn142 1.953 . S
O160 C154 1.298 1_554 S
O161 Zn162 1.953 1_556 S
O161 C177 1.225 . S
Zn162 O161 1.953 1_554 S
Zn162 O163 1.949 . S
Zn162 O169 1.919 1_554 S
Zn162 O174 1.924 . S
O163 Zn162 1.949 . S
O163 Zn164 1.923 . S
O163 Zn165 1.950 . S
O163 Zn166 1.945 . S
Zn164 O163 1.923 . S
Zn164 O167 1.933 . S
Zn164 O170 1.941 1_554 S
Zn164 O171 1.965 1_554 S
Zn165 O163 1.950 . S
Zn165 O172 1.938 . S
Zn165 O173 1.906 . S
Zn165 O183 1.953 . S
Zn166 O163 1.945 . S
Zn166 O168 1.932 . S
Zn166 O175 1.977 . S
Zn166 O176 1.910 . S
O167 Zn164 1.933 . S
O167 C178 1.226 . S
O168 Zn166 1.932 . S
O168 C178 1.307 . S
O169 Zn162 1.919 1_556 S
O169 C180 1.253 . S
O170 Zn164 1.941 1_556 S
O170 C180 1.283 . S
O171 Zn164 1.965 1_556 S
O171 C179 1.303 . S
O172 Zn165 1.938 . S
O172 C179 1.247 1_554 S
O173 Zn165 1.906 . S
O173 C181 1.304 . S
O174 Zn162 1.924 . S
O174 C182 1.311 . S
O175 Zn166 1.977 . S
O175 C181 1.272 . S
O176 Zn166 1.910 . S
O176 C182 1.231 . S
C177 O161 1.225 . S
C177 O183 1.298 1_556 S
C178 O167 1.226 . S
C178 O168 1.307 . S
C179 O171 1.303 . S
C179 O172 1.247 1_556 S
C180 O169 1.253 . S
C180 O170 1.283 . S
C181 O173 1.304 . S
C181 O175 1.272 . S
C182 O174 1.311 . S
C182 O176 1.231 . S
O183 Zn165 1.953 . S
O183 C177 1.298 1_554 S
O184 Zn185 1.953 1_556 S
O184 C200 1.225 . S
Zn185 O184 1.953 1_554 S
Zn185 O186 1.949 . S
Zn185 O192 1.919 1_554 S
Zn185 O197 1.924 . S
O186 Zn185 1.949 . S
O186 Zn187 1.923 . S
O186 Zn188 1.950 . S
O186 Zn189 1.945 . S
Zn187 O186 1.923 . S
Zn187 O190 1.933 . S
Zn187 O193 1.941 1_554 S
Zn187 O194 1.965 1_554 S
Zn188 O186 1.950 . S
Zn188 O195 1.938 . S
Zn188 O196 1.906 . S
Zn188 O206 1.953 . S
Zn189 O186 1.945 . S
Zn189 O191 1.932 . S
Zn189 O198 1.977 . S
Zn189 O199 1.910 . S
O190 Zn187 1.933 . S
O190 C201 1.226 . S
O191 Zn189 1.932 . S
O191 C201 1.307 . S
O192 Zn185 1.919 1_556 S
O192 C203 1.253 . S
O193 Zn187 1.941 1_556 S
O193 C203 1.283 . S
O194 Zn187 1.965 1_556 S
O194 C202 1.303 . S
O195 Zn188 1.938 . S
O195 C202 1.247 1_554 S
O196 Zn188 1.906 . S
O196 C204 1.304 . S
O197 Zn185 1.924 . S
O197 C205 1.311 . S
O198 Zn189 1.977 . S
O198 C204 1.272 . S
O199 Zn189 1.910 . S
O199 C205 1.231 . S
C200 O184 1.225 . S
C200 O206 1.298 1_556 S
C201 O190 1.226 . S
C201 O191 1.307 . S
C202 O194 1.303 . S
C202 O195 1.247 1_556 S
C203 O192 1.253 . S
C203 O193 1.283 . S
C204 O196 1.304 . S
C204 O198 1.272 . S
C205 O197 1.311 . S
C205 O199 1.231 . S
O206 Zn188 1.953 . S
O206 C200 1.298 1_554 S
O207 Zn208 1.953 . S
O207 C223 1.225 . S
Zn208 O207 1.953 . S
Zn208 O209 1.949 . S
Zn208 O215 1.919 . S
Zn208 O220 1.924 . S
O209 Zn208 1.949 . S
O209 Zn210 1.923 . S
O209 Zn211 1.950 . S
O209 Zn212 1.945 . S
Zn210 O209 1.923 . S
Zn210 O213 1.933 . S
Zn210 O216 1.941 . S
Zn210 O217 1.965 . S
Zn211 O209 1.950 . S
Zn211 O218 1.938 . S
Zn211 O219 1.906 . S
Zn211 O229 1.953 . S
Zn212 O209 1.945 . S
Zn212 O214 1.932 . S
Zn212 O221 1.977 . S
Zn212 O222 1.910 . S
O213 Zn210 1.933 . S
O213 C224 1.226 . S
O214 Zn212 1.932 . S
O214 C224 1.307 . S
O215 Zn208 1.919 . S
O215 C226 1.253 . S
O216 Zn210 1.941 . S
O216 C226 1.283 . S
O217 Zn210 1.965 . S
O217 C225 1.303 . S
O218 Zn211 1.938 . S
O218 C225 1.247 . S
O219 Zn211 1.906 . S
O219 C227 1.304 . S
O220 Zn208 1.924 . S
O220 C228 1.311 . S
O221 Zn212 1.977 . S
O221 C227 1.272 . S
O222 Zn212 1.910 . S
O222 C228 1.231 . S
C223 O207 1.225 . S
C223 O229 1.298 . S
C224 O213 1.226 . S
C224 O214 1.307 . S
C225 O217 1.303 . S
C225 O218 1.247 . S
C226 O215 1.253 . S
C226 O216 1.283 . S
C227 O219 1.304 . S
C227 O221 1.272 . S
C228 O220 1.311 . S
C228 O222 1.231 . S
O229 Zn211 1.953 . S
O229 C223 1.298 . S
O230 Zn231 1.953 . S
O230 C246 1.225 . S
Zn231 O230 1.953 . S
Zn231 O232 1.949 . S
Zn231 O238 1.919 . S
Zn231 O243 1.924 . S
O232 Zn231 1.949 . S
O232 Zn233 1.923 . S
O232 Zn234 1.950 . S
O232 Zn235 1.945 . S
Zn233 O232 1.923 . S
Zn233 O236 1.933 . S
Zn233 O239 1.941 . S
Zn233 O240 1.965 . S
Zn234 O232 1.950 . S
Zn234 O241 1.938 . S
Zn234 O242 1.906 . S
Zn234 O252 1.953 . S
Zn235 O232 1.945 . S
Zn235 O237 1.932 . S
Zn235 O244 1.977 . S
Zn235 O245 1.910 . S
O236 Zn233 1.933 . S
O236 C247 1.226 . S
O237 Zn235 1.932 . S
O237 C247 1.307 . S
O238 Zn231 1.919 . S
O238 C249 1.253 . S
O239 Zn233 1.941 . S
O239 C249 1.283 . S
O240 Zn233 1.965 . S
O240 C248 1.303 . S
O241 Zn234 1.938 . S
O241 C248 1.247 . S
O242 Zn234 1.906 . S
O242 C250 1.304 . S
O243 Zn231 1.924 . S
O243 C251 1.311 . S
O244 Zn235 1.977 . S
O244 C250 1.272 . S
O245 Zn235 1.910 . S
O245 C251 1.231 . S
C246 O230 1.225 . S
C246 O252 1.298 . S
C247 O236 1.226 . S
C247 O237 1.307 . S
C248 O240 1.303 . S
C248 O241 1.247 . S
C249 O238 1.253 . S
C249 O239 1.283 . S
C250 O242 1.304 . S
C250 O244 1.272 . S
C251 O243 1.311 . S
C251 O245 1.231 . S
O252 Zn234 1.953 . S
O252 C246 1.298 . S
O253 Zn254 1.953 . S
O253 C269 1.225 . S
Zn254 O253 1.953 . S
Zn254 O255 1.949 . S
Zn254 O261 1.919 . S
Zn254 O266 1.924 . S
O255 Zn254 1.949 . S
O255 Zn256 1.923 . S
O255 Zn257 1.950 . S
O255 Zn258 1.945 . S
Zn256 O255 1.923 . S
Zn256 O259 1.933 . S
Zn256 O262 1.941 . S
Zn256 O263 1.965 . S
Zn257 O255 1.950 . S
Zn257 O264 1.938 . S
Zn257 O265 1.906 . S
Zn257 O275 1.953 . S
Zn258 O255 1.945 . S
Zn258 O260 1.932 . S
Zn258 O267 1.977 . S
Zn258 O268 1.910 . S
O259 Zn256 1.933 . S
O259 C270 1.226 . S
O260 Zn258 1.932 . S
O260 C270 1.307 . S
O261 Zn254 1.919 . S
O261 C272 1.253 . S
O262 Zn256 1.941 . S
O262 C272 1.283 . S
O263 Zn256 1.965 . S
O263 C271 1.303 . S
O264 Zn257 1.938 . S
O264 C271 1.247 . S
O265 Zn257 1.906 . S
O265 C273 1.304 . S
O266 Zn254 1.924 . S
O266 C274 1.311 . S
O267 Zn258 1.977 . S
O267 C273 1.272 . S
O268 Zn258 1.910 . S
O268 C274 1.231 . S
C269 O253 1.225 . S
C269 O275 1.298 . S
C270 O259 1.226 . S
C270 O260 1.307 . S
C271 O263 1.303 . S
C271 O264 1.247 . S
C272 O261 1.253 . S
C272 O262 1.283 . S
C273 O265 1.304 . S
C273 O267 1.272 . S
C274 O266 1.311 . S
C274 O268 1.231 . S
O275 Zn257 1.953 . S
O275 C269 1.298 . S
O276 Zn277 1.953 . S
O276 C292 1.225 . S
Zn277 O276 1.953 . S
Zn277 O278 1.949 . S
Zn277 O284 1.919 . S
Zn277 O289 1.924 . S
O278 Zn277 1.949 . S
O278 Zn279 1.923 . S
O278 Zn280 1.950 . S
O278 Zn281 1.945 . S
Zn279 O278 1.923 . S
Zn279 O282 1.933 . S
Zn279 O285 1.941 . S
Zn279 O286 1.965 . S
Zn280 O278 1.950 . S
Zn280 O287 1.938 . S
Zn280 O288 1.906 . S
Zn280 O298 1.953 . S
Zn281 O278 1.945 . S
Zn281 O283 1.932 . S
Zn281 O290 1.977 . S
Zn281 O291 1.910 . S
O282 Zn279 1.933 . S
O282 C293 1.226 . S
O283 Zn281 1.932 . S
O283 C293 1.307 . S
O284 Zn277 1.919 . S
O284 C295 1.253 . S
O285 Zn279 1.941 . S
O285 C295 1.283 . S
O286 Zn279 1.965 . S
O286 C294 1.303 . S
O287 Zn280 1.938 . S
O287 C294 1.247 . S
O288 Zn280 1.906 . S
O288 C296 1.304 . S
O289 Zn277 1.924 . S
O289 C297 1.311 . S
O290 Zn281 1.977 . S
O290 C296 1.272 . S
O291 Zn281 1.910 . S
O291 C297 1.231 . S
C292 O276 1.225 . S
C292 O298 1.298 . S
C293 O282 1.226 . S
C293 O283 1.307 . S
C294 O286 1.303 . S
C294 O287 1.247 . S
C295 O284 1.253 . S
C295 O285 1.283 . S
C296 O288 1.304 . S
C296 O290 1.272 . S
C297 O289 1.311 . S
C297 O291 1.231 . S
O298 Zn280 1.953 . S
O298 C292 1.298 . S
O299 Zn300 1.953 . S
O299 C315 1.225 . S
Zn300 O299 1.953 . S
Zn300 O301 1.949 . S
Zn300 O307 1.919 . S
Zn300 O312 1.924 . S
O301 Zn300 1.949 . S
O301 Zn302 1.923 . S
O301 Zn303 1.950 . S
O301 Zn304 1.945 . S
Zn302 O301 1.923 . S
Zn302 O305 1.933 . S
Zn302 O308 1.941 . S
Zn302 O309 1.965 . S
Zn303 O301 1.950 . S
Zn303 O310 1.938 . S
Zn303 O311 1.906 . S
Zn303 O321 1.953 . S
Zn304 O301 1.945 . S
Zn304 O306 1.932 . S
Zn304 O313 1.977 . S
Zn304 O314 1.910 . S
O305 Zn302 1.933 . S
O305 C316 1.226 . S
O306 Zn304 1.932 . S
O306 C316 1.307 . S
O307 Zn300 1.919 . S
O307 C318 1.253 . S
O308 Zn302 1.941 . S
O308 C318 1.283 . S
O309 Zn302 1.965 . S
O309 C317 1.303 . S
O310 Zn303 1.938 . S
O310 C317 1.247 . S
O311 Zn303 1.906 . S
O311 C319 1.304 . S
O312 Zn300 1.924 . S
O312 C320 1.311 . S
O313 Zn304 1.977 . S
O313 C319 1.272 . S
O314 Zn304 1.910 . S
O314 C320 1.231 . S
C315 O299 1.225 . S
C315 O321 1.298 . S
C316 O305 1.226 . S
C316 O306 1.307 . S
C317 O309 1.303 . S
C317 O310 1.247 . S
C318 O307 1.253 . S
C318 O308 1.283 . S
C319 O311 1.304 . S
C319 O313 1.272 . S
C320 O312 1.311 . S
C320 O314 1.231 . S
O321 Zn303 1.953 . S
O321 C315 1.298 . S
O322 Zn323 1.953 . S
O322 C338 1.225 . S
Zn323 O322 1.953 . S
Zn323 O324 1.949 . S
Zn323 O330 1.919 . S
Zn323 O335 1.924 . S
O324 Zn323 1.949 . S
O324 Zn325 1.923 . S
O324 Zn326 1.950 . S
O324 Zn327 1.945 . S
Zn325 O324 1.923 . S
Zn325 O328 1.933 . S
Zn325 O331 1.941 . S
Zn325 O332 1.965 . S
Zn326 O324 1.950 . S
Zn326 O333 1.938 . S
Zn326 O334 1.906 . S
Zn326 O344 1.953 . S
Zn327 O324 1.945 . S
Zn327 O329 1.932 . S
Zn327 O336 1.977 . S
Zn327 O337 1.910 . S
O328 Zn325 1.933 . S
O328 C339 1.226 . S
O329 Zn327 1.932 . S
O329 C339 1.307 . S
O330 Zn323 1.919 . S
O330 C341 1.253 . S
O331 Zn325 1.941 . S
O331 C341 1.283 . S
O332 Zn325 1.965 . S
O332 C340 1.303 . S
O333 Zn326 1.938 . S
O333 C340 1.247 . S
O334 Zn326 1.906 . S
O334 C342 1.304 . S
O335 Zn323 1.924 . S
O335 C343 1.311 . S
O336 Zn327 1.977 . S
O336 C342 1.272 . S
O337 Zn327 1.910 . S
O337 C343 1.231 . S
C338 O322 1.225 . S
C338 O344 1.298 . S
C339 O328 1.226 . S
C339 O329 1.307 . S
C340 O332 1.303 . S
C340 O333 1.247 . S
C341 O330 1.253 . S
C341 O331 1.283 . S
C342 O334 1.304 . S
C342 O336 1.272 . S
C343 O335 1.311 . S
C343 O337 1.231 . S
O344 Zn326 1.953 . S
O344 C338 1.298 . S
O345 Zn346 1.953 . S
O345 C361 1.225 . S
Zn346 O345 1.953 . S
Zn346 O347 1.949 . S
Zn346 O353 1.919 1_556 S
Zn346 O358 1.924 1_556 S
O347 Zn346 1.949 . S
O347 Zn348 1.923 . S
O347 Zn349 1.950 . S
O347 Zn350 1.945 . S
Zn348 O347 1.923 . S
Zn348 O351 1.933 1_556 S
Zn348 O354 1.941 1_556 S
Zn348 O355 1.965 . S
Zn349 O347 1.950 . S
Zn349 O356 1.938 . S
Zn349 O357 1.906 . S
Zn349 O367 1.953 . S
Zn350 O347 1.945 . S
Zn350 O352 1.932 1_556 S
Zn350 O359 1.977 . S
Zn350 O360 1.910 1_556 S
O351 Zn348 1.933 1_554 S
O351 C362 1.226 . S
O352 Zn350 1.932 1_554 S
O352 C362 1.307 . S
O353 Zn346 1.919 1_554 S
O353 C364 1.253 . S
O354 Zn348 1.941 1_554 S
O354 C364 1.283 . S
O355 Zn348 1.965 . S
O355 C363 1.303 . S
O356 Zn349 1.938 . S
O356 C363 1.247 . S
O357 Zn349 1.906 . S
O357 C365 1.304 . S
O358 Zn346 1.924 1_554 S
O358 C366 1.311 . S
O359 Zn350 1.977 . S
O359 C365 1.272 . S
O360 Zn350 1.910 1_554 S
O360 C366 1.231 . S
C361 O345 1.225 . S
C361 O367 1.298 . S
C362 O351 1.226 . S
C362 O352 1.307 . S
C363 O355 1.303 . S
C363 O356 1.247 . S
C364 O353 1.253 . S
C364 O354 1.283 . S
C365 O357 1.304 . S
C365 O359 1.272 . S
C366 O358 1.311 . S
C366 O360 1.231 . S
O367 Zn349 1.953 . S
O367 C361 1.298 . S
O368 Zn369 1.953 . S
O368 C384 1.225 . S
Zn369 O368 1.953 . S
Zn369 O370 1.949 . S
Zn369 O376 1.919 1_556 S
Zn369 O381 1.924 1_556 S
O370 Zn369 1.949 . S
O370 Zn371 1.923 . S
O370 Zn372 1.950 . S
O370 Zn373 1.945 . S
Zn371 O370 1.923 . S
Zn371 O374 1.933 1_556 S
Zn371 O377 1.941 1_556 S
Zn371 O378 1.965 . S
Zn372 O370 1.950 . S
Zn372 O379 1.938 . S
Zn372 O380 1.906 . S
Zn372 O390 1.953 . S
Zn373 O370 1.945 . S
Zn373 O375 1.932 1_556 S
Zn373 O382 1.977 . S
Zn373 O383 1.910 1_556 S
O374 Zn371 1.933 1_554 S
O374 C385 1.226 . S
O375 Zn373 1.932 1_554 S
O375 C385 1.307 . S
O376 Zn369 1.919 1_554 S
O376 C387 1.253 . S
O377 Zn371 1.941 1_554 S
O377 C387 1.283 . S
O378 Zn371 1.965 . S
O378 C386 1.303 . S
O379 Zn372 1.938 . S
O379 C386 1.247 . S
O380 Zn372 1.906 . S
O380 C388 1.304 . S
O381 Zn369 1.924 1_554 S
O381 C389 1.311 . S
O382 Zn373 1.977 . S
O382 C388 1.272 . S
O383 Zn373 1.910 1_554 S
O383 C389 1.231 . S
C384 O368 1.225 . S
C384 O390 1.298 . S
C385 O374 1.226 . S
C385 O375 1.307 . S
C386 O378 1.303 . S
C386 O379 1.247 . S
C387 O376 1.253 . S
C387 O377 1.283 . S
C388 O380 1.304 . S
C388 O382 1.272 . S
C389 O381 1.311 . S
C389 O383 1.231 . S
O390 Zn372 1.953 . S
O390 C384 1.298 . S
O391 Zn392 1.953 . S
O391 C407 1.225 . S
Zn392 O391 1.953 . S
Zn392 O393 1.949 . S
Zn392 O399 1.919 1_556 S
Zn392 O404 1.924 1_556 S
O393 Zn392 1.949 . S
O393 Zn394 1.923 . S
O393 Zn395 1.950 . S
O393 Zn396 1.945 . S
Zn394 O393 1.923 . S
Zn394 O397 1.933 1_556 S
Zn394 O400 1.941 1_556 S
Zn394 O401 1.965 . S
Zn395 O393 1.950 . S
Zn395 O402 1.938 . S
Zn395 O403 1.906 . S
Zn395 O413 1.953 . S
Zn396 O393 1.945 . S
Zn396 O398 1.932 1_556 S
Zn396 O405 1.977 . S
Zn396 O406 1.910 1_556 S
O397 Zn394 1.933 1_554 S
O397 C408 1.226 . S
O398 Zn396 1.932 1_554 S
O398 C408 1.307 . S
O399 Zn392 1.919 1_554 S
O399 C410 1.253 . S
O400 Zn394 1.941 1_554 S
O400 C410 1.283 . S
O401 Zn394 1.965 . S
O401 C409 1.303 . S
O402 Zn395 1.938 . S
O402 C409 1.247 . S
O403 Zn395 1.906 . S
O403 C411 1.304 . S
O404 Zn392 1.924 1_554 S
O404 C412 1.311 . S
O405 Zn396 1.977 . S
O405 C411 1.272 . S
O406 Zn396 1.910 1_554 S
O406 C412 1.231 . S
C407 O391 1.225 . S
C407 O413 1.298 . S
C408 O397 1.226 . S
C408 O398 1.307 . S
C409 O401 1.303 . S
C409 O402 1.247 . S
C410 O399 1.253 . S
C410 O400 1.283 . S
C411 O403 1.304 . S
C411 O405 1.272 . S
C412 O404 1.311 . S
C412 O406 1.231 . S
O413 Zn395 1.953 . S
O413 C407 1.298 . S
C414 C415 1.387 . S
C414 H418 0.950 . S
C414 C423 1.390 . S
C415 C414 1.387 . S
C415 C417 1.387 . S
H416 C423 0.950 . S
C417 C415 1.387 . S
C417 C419 1.390 . S
C417 H421 0.950 . S
H418 C414 0.950 . S
C419 C417 1.390 . S
C419 C420 1.387 . S
C419 H422 0.950 . S
C420 C419 1.387 . S
C420 C423 1.387 . S
H421 C417 0.950 . S
H422 C419 0.950 . S
C423 C414 1.390 . S
C423 H416 0.950 . S
C423 C420 1.387 . S
C424 C425 1.387 . S
C424 H428 0.950 . S
C424 C433 1.390 . S
C425 C424 1.387 . S
C425 C427 1.387 . S
H426 C433 0.950 . S
C427 C425 1.387 . S
C427 C429 1.390 . S
C427 H431 0.950 . S
H428 C424 0.950 . S
C429 C427 1.390 . S
C429 C430 1.387 . S
C429 H432 0.950 . S
C430 C429 1.387 . S
C430 C433 1.387 . S
H431 C427 0.950 . S
H432 C429 0.950 . S
C433 C424 1.390 . S
C433 H426 0.950 . S
C433 C430 1.387 . S
C434 C435 1.387 . S
C434 H438 0.950 . S
C434 C443 1.390 . S
C435 C434 1.387 . S
C435 C437 1.387 . S
H436 C443 0.950 . S
C437 C435 1.387 . S
C437 C439 1.390 . S
C437 H441 0.950 . S
H438 C434 0.950 . S
C439 C437 1.390 . S
C439 C440 1.387 . S
C439 H442 0.950 . S
C440 C439 1.387 . S
C440 C443 1.387 . S
H441 C437 0.950 . S
H442 C439 0.950 . S
C443 C434 1.390 . S
C443 H436 0.950 . S
C443 C440 1.387 . S
C444 C445 1.387 . S
C444 H448 0.950 . S
C444 C453 1.390 . S
C445 C444 1.387 . S
C445 C447 1.387 1_556 S
H446 C453 0.950 . S
C447 C445 1.387 1_554 S
C447 C449 1.390 . S
C447 H451 0.950 . S
H448 C444 0.950 . S
C449 C447 1.390 . S
C449 C450 1.387 . S
C449 H452 0.950 . S
C450 C449 1.387 . S
C450 C453 1.387 1_554 S
H451 C447 0.950 . S
H452 C449 0.950 . S
C453 C444 1.390 . S
C453 H446 0.950 . S
C453 C450 1.387 1_556 S
C454 C455 1.387 . S
C454 H458 0.950 . S
C454 C463 1.390 1_554 S
C455 C454 1.387 . S
C455 C457 1.387 . S
H456 C463 0.950 . S
C457 C455 1.387 . S
C457 C459 1.390 1_554 S
C457 H461 0.950 . S
H458 C454 0.950 . S
C459 C457 1.390 1_556 S
C459 C460 1.387 . S
C459 H462 0.950 . S
C460 C459 1.387 . S
C460 C463 1.387 . S
H461 C457 0.950 . S
H462 C459 0.950 . S
C463 C454 1.390 1_556 S
C463 H456 0.950 . S
C463 C460 1.387 . S
C464 C465 1.387 . S
C464 H468 0.950 . S
C464 C473 1.390 1_556 S
C465 C464 1.387 . S
C465 C467 1.387 . S
H466 C473 0.950 . S
C467 C465 1.387 . S
C467 C469 1.390 . S
C467 H471 0.950 . S
H468 C464 0.950 . S
C469 C467 1.390 . S
C469 C470 1.387 1_556 S
C469 H472 0.950 . S
C470 C469 1.387 1_554 S
C470 C473 1.387 . S
H471 C467 0.950 . S
H472 C469 0.950 . S
C473 C464 1.390 1_554 S
C473 H466 0.950 . S
C473 C470 1.387 . S
C474 C475 1.387 . S
C474 H478 0.950 . S
C474 C483 1.390 . S
C475 C474 1.387 . S
C475 C477 1.387 . S
H476 C483 0.950 . S
C477 C475 1.387 . S
C477 C479 1.390 . S
C477 H481 0.950 . S
H478 C474 0.950 . S
C479 C477 1.390 . S
C479 C480 1.387 . S
C479 H482 0.950 . S
C480 C479 1.387 . S
C480 C483 1.387 . S
H481 C477 0.950 . S
H482 C479 0.950 . S
C483 C474 1.390 . S
C483 H476 0.950 . S
C483 C480 1.387 . S
C484 C485 1.387 . S
C484 H488 0.950 . S
C484 C493 1.390 . S
C485 C484 1.387 . S
C485 C487 1.387 . S
H486 C493 0.950 . S
C487 C485 1.387 . S
C487 C489 1.390 . S
C487 H491 0.950 . S
H488 C484 0.950 . S
C489 C487 1.390 . S
C489 C490 1.387 . S
C489 H492 0.950 . S
C490 C489 1.387 . S
C490 C493 1.387 . S
H491 C487 0.950 . S
H492 C489 0.950 . S
C493 C484 1.390 . S
C493 H486 0.950 . S
C493 C490 1.387 . S
C494 C495 1.387 . S
C494 H498 0.950 . S
C494 C503 1.390 . S
C495 C494 1.387 . S
C495 C497 1.387 . S
H496 C503 0.950 . S
C497 C495 1.387 . S
C497 C499 1.390 . S
C497 H501 0.950 . S
H498 C494 0.950 . S
C499 C497 1.390 . S
C499 C500 1.387 . S
C499 H502 0.950 . S
C500 C499 1.387 . S
C500 C503 1.387 . S
H501 C497 0.950 . S
H502 C499 0.950 . S
C503 C494 1.390 . S
C503 H496 0.950 . S
C503 C500 1.387 . S
C504 C505 1.387 . S
C504 H508 0.950 . S
C504 C513 1.390 . S
C505 C504 1.387 . S
C505 C507 1.387 1_554 S
H506 C513 0.950 . S
C507 C505 1.387 1_556 S
C507 C509 1.390 . S
C507 H511 0.950 . S
H508 C504 0.950 . S
C509 C507 1.390 . S
C509 C510 1.387 . S
C509 H512 0.950 . S
C510 C509 1.387 . S
C510 C513 1.387 1_556 S
H511 C507 0.950 . S
H512 C509 0.950 . S
C513 C504 1.390 . S
C513 H506 0.950 . S
C513 C510 1.387 1_554 S
C514 C515 1.387 1_554 S
C514 H518 0.950 . S
C514 C523 1.390 . S
C515 C514 1.387 1_556 S
C515 C517 1.387 . S
H516 C523 0.950 . S
C517 C515 1.387 . S
C517 C519 1.390 1_556 S
C517 H521 0.950 . S
H518 C514 0.950 . S
C519 C517 1.390 1_554 S
C519 C520 1.387 . S
C519 H522 0.950 . S
C520 C519 1.387 . S
C520 C523 1.387 . S
H521 C517 0.950 . S
H522 C519 0.950 . S
C523 C514 1.390 . S
C523 H516 0.950 . S
C523 C520 1.387 . S
C524 C525 1.387 1_554 S
C524 H528 0.950 . S
C524 C533 1.390 . S
C525 C524 1.387 1_556 S
C525 C527 1.387 . S
H526 C533 0.950 . S
C527 C525 1.387 . S
C527 C529 1.390 1_556 S
C527 H531 0.950 . S
H528 C524 0.950 . S
C529 C527 1.390 1_554 S
C529 C530 1.387 . S
C529 H532 0.950 . S
C530 C529 1.387 . S
C530 C533 1.387 . S
H531 C527 0.950 . S
H532 C529 0.950 . S
C533 C524 1.390 . S
C533 H526 0.950 . S
C533 C530 1.387 . S
C534 C535 1.387 . S
C534 H538 0.950 . S
C534 C543 1.390 . S
C535 C534 1.387 . S
C535 C537 1.387 . S
H536 C543 0.950 . S
C537 C535 1.387 . S
C537 C539 1.390 . S
C537 H541 0.950 . S
H538 C534 0.950 . S
C539 C537 1.390 . S
C539 C540 1.387 . S
C539 H542 0.950 . S
C540 C539 1.387 . S
C540 C543 1.387 . S
H541 C537 0.950 . S
H542 C539 0.950 . S
C543 C534 1.390 . S
C543 H536 0.950 . S
C543 C540 1.387 . S
C544 C545 1.387 . S
C544 H548 0.950 . S
C544 C553 1.390 . S
C545 C544 1.387 . S
C545 C547 1.387 . S
H546 C553 0.950 . S
C547 C545 1.387 . S
C547 C549 1.390 . S
C547 H551 0.950 . S
H548 C544 0.950 . S
C549 C547 1.390 . S
C549 C550 1.387 . S
C549 H552 0.950 . S
C550 C549 1.387 . S
C550 C553 1.387 . S
H551 C547 0.950 . S
H552 C549 0.950 . S
C553 C544 1.390 . S
C553 H546 0.950 . S
C553 C550 1.387 . S
C554 C555 1.387 . S
C554 H558 0.950 . S
C554 C563 1.390 . S
C555 C554 1.387 . S
C555 C557 1.387 . S
H556 C563 0.950 . S
C557 C555 1.387 . S
C557 C559 1.390 . S
C557 H561 0.950 . S
H558 C554 0.950 . S
C559 C557 1.390 . S
C559 C560 1.387 . S
C559 H562 0.950 . S
C560 C559 1.387 . S
C560 C563 1.387 . S
H561 C557 0.950 . S
H562 C559 0.950 . S
C563 C554 1.390 . S
C563 H556 0.950 . S
C563 C560 1.387 . S
C564 C565 1.387 . S
C564 H568 0.950 . S
C564 C573 1.390 . S
C565 C564 1.387 . S
C565 C567 1.387 . S
H566 C573 0.950 . S
C567 C565 1.387 . S
C567 C569 1.390 . S
C567 H571 0.950 . S
H568 C564 0.950 . S
C569 C567 1.390 . S
C569 C570 1.387 . S
C569 H572 0.950 . S
C570 C569 1.387 . S
C570 C573 1.387 . S
H571 C567 0.950 . S
H572 C569 0.950 . S
C573 C564 1.390 . S
C573 H566 0.950 . S
C573 C570 1.387 . S
C574 C575 1.387 . S
C574 H578 0.950 . S
C574 C583 1.390 . S
C575 C574 1.387 . S
C575 C577 1.387 . S
H576 C583 0.950 . S
C577 C575 1.387 . S
C577 C579 1.390 . S
C577 H581 0.950 . S
H578 C574 0.950 . S
C579 C577 1.390 . S
C579 C580 1.387 . S
C579 H582 0.950 . S
C580 C579 1.387 . S
C580 C583 1.387 . S
H581 C577 0.950 . S
H582 C579 0.950 . S
C583 C574 1.390 . S
C583 H576 0.950 . S
C583 C580 1.387 . S
C584 C585 1.387 . S
C584 H588 0.950 . S
C584 C593 1.390 . S
C585 C584 1.387 . S
C585 C587 1.387 . S
H586 C593 0.950 . S
C587 C585 1.387 . S
C587 C589 1.390 . S
C587 H591 0.950 . S
H588 C584 0.950 . S
C589 C587 1.390 . S
C589 C590 1.387 . S
C589 H592 0.950 . S
C590 C589 1.387 . S
C590 C593 1.387 . S
H591 C587 0.950 . S
H592 C589 0.950 . S
C593 C584 1.390 . S
C593 H586 0.950 . S
C593 C590 1.387 . S
C594 C595 1.387 . S
C594 H598 0.950 . S
C594 C603 1.390 . S
C595 C594 1.387 . S
C595 C597 1.387 . S
H596 C603 0.950 . S
C597 C595 1.387 . S
C597 C599 1.390 . S
C597 H601 0.950 . S
H598 C594 0.950 . S
C599 C597 1.390 . S
C599 C600 1.387 . S
C599 H602 0.950 . S
C600 C599 1.387 . S
C600 C603 1.387 . S
H601 C597 0.950 . S
H602 C599 0.950 . S
C603 C594 1.390 . S
C603 H596 0.950 . S
C603 C600 1.387 . S
C604 C605 1.387 . S
C604 H608 0.950 . S
C604 C613 1.390 . S
C605 C604 1.387 . S
C605 C607 1.387 . S
H606 C613 0.950 . S
C607 C605 1.387 . S
C607 C609 1.390 . S
C607 H611 0.950 . S
H608 C604 0.950 . S
C609 C607 1.390 . S
C609 C610 1.387 . S
C609 H612 0.950 . S
C610 C609 1.387 . S
C610 C613 1.387 . S
H611 C607 0.950 . S
H612 C609 0.950 . S
C613 C604 1.390 . S
C613 H606 0.950 . S
C613 C610 1.387 . S
C614 C615 1.387 . S
C614 H618 0.950 . S
C614 C623 1.390 . S
C615 C614 1.387 . S
C615 C617 1.387 . S
H616 C623 0.950 . S
C617 C615 1.387 . S
C617 C619 1.390 . S
C617 H621 0.950 . S
H618 C614 0.950 . S
C619 C617 1.390 . S
C619 C620 1.387 . S
C619 H622 0.950 . S
C620 C619 1.387 . S
C620 C623 1.387 . S
H621 C617 0.950 . S
H622 C619 0.950 . S
C623 C614 1.390 . S
C623 H616 0.950 . S
C623 C620 1.387 . S
C624 C625 1.387 . S
C624 H628 0.950 . S
C624 C633 1.390 . S
C625 C624 1.387 . S
C625 C627 1.387 . S
H626 C633 0.950 . S
C627 C625 1.387 . S
C627 C629 1.390 . S
C627 H631 0.950 . S
H628 C624 0.950 . S
C629 C627 1.390 . S
C629 C630 1.387 . S
C629 H632 0.950 . S
C630 C629 1.387 . S
C630 C633 1.387 . S
H631 C627 0.950 . S
H632 C629 0.950 . S
C633 C624 1.390 . S
C633 H626 0.950 . S
C633 C630 1.387 . S
C634 C635 1.387 . S
C634 H638 0.950 . S
C634 C643 1.390 . S
C635 C634 1.387 . S
C635 C637 1.387 . S
H636 C643 0.950 . S
C637 C635 1.387 . S
C637 C639 1.390 . S
C637 H641 0.950 . S
H638 C634 0.950 . S
C639 C637 1.390 . S
C639 C640 1.387 . S
C639 H642 0.950 . S
C640 C639 1.387 . S
C640 C643 1.387 . S
H641 C637 0.950 . S
H642 C639 0.950 . S
C643 C634 1.390 . S
C643 H636 0.950 . S
C643 C640 1.387 . S
C644 C645 1.387 . S
C644 H648 0.950 . S
C644 C653 1.390 . S
C645 C644 1.387 . S
C645 C647 1.387 . S
H646 C653 0.950 . S
C647 C645 1.387 . S
C647 C649 1.390 . S
C647 H651 0.950 . S
H648 C644 0.950 . S
C649 C647 1.390 . S
C649 C650 1.387 . S
C649 H652 0.950 . S
C650 C649 1.387 . S
C650 C653 1.387 . S
H651 C647 0.950 . S
H652 C649 0.950 . S
C653 C644 1.390 . S
C653 H646 0.950 . S
C653 C650 1.387 . S
C654 C655 1.387 . S
C654 H658 0.950 . S
C654 C663 1.390 . S
C655 C654 1.387 . S
C655 C657 1.387 . S
H656 C663 0.950 . S
C657 C655 1.387 . S
C657 C659 1.390 . S
C657 H661 0.950 . S
H658 C654 0.950 . S
C659 C657 1.390 . S
C659 C660 1.387 . S
C659 H662 0.950 . S
C660 C659 1.387 . S
C660 C663 1.387 . S
H661 C657 0.950 . S
H662 C659 0.950 . S
C663 C654 1.390 . S
C663 H656 0.950 . S
C663 C660 1.387 . S
C664 C665 1.387 . S
C664 H668 0.950 . S
C664 C673 1.390 . S
C665 C664 1.387 . S
C665 C667 1.387 . S
H666 C673 0.950 . S
C667 C665 1.387 . S
C667 C669 1.390 . S
C667 H671 0.950 . S
H668 C664 0.950 . S
C669 C667 1.390 . S
C669 C670 1.387 . S
C669 H672 0.950 . S
C670 C669 1.387 . S
C670 C673 1.387 . S
H671 C667 0.950 . S
H672 C669 0.950 . S
C673 C664 1.390 . S
C673 H666 0.950 . S
C673 C670 1.387 . S
C674 C675 1.387 . S
C674 H678 0.950 . S
C674 C683 1.390 . S
C675 C674 1.387 . S
C675 C677 1.387 . S
H676 C683 0.950 . S
C677 C675 1.387 . S
C677 C679 1.390 . S
C677 H681 0.950 . S
H678 C674 0.950 . S
C679 C677 1.390 . S
C679 C680 1.387 . S
C679 H682 0.950 . S
C680 C679 1.387 . S
C680 C683 1.387 . S
H681 C677 0.950 . S
H682 C679 0.950 . S
C683 C674 1.390 . S
C683 H676 0.950 . S
C683 C680 1.387 . S
C684 C685 1.387 . S
C684 H688 0.950 . S
C684 C693 1.390 . S
C685 C684 1.387 . S
C685 C687 1.387 . S
H686 C693 0.950 . S
C687 C685 1.387 . S
C687 C689 1.390 . S
C687 H691 0.950 . S
H688 C684 0.950 . S
C689 C687 1.390 . S
C689 C690 1.387 . S
C689 H692 0.950 . S
C690 C689 1.387 . S
C690 C693 1.387 . S
H691 C687 0.950 . S
H692 C689 0.950 . S
C693 C684 1.390 . S
C693 H686 0.950 . S
C693 C690 1.387 . S
C694 C695 1.387 . S
C694 H698 0.950 . S
C694 C703 1.390 . S
C695 C694 1.387 . S
C695 C697 1.387 . S
H696 C703 0.950 . S
C697 C695 1.387 . S
C697 C699 1.390 . S
C697 H701 0.950 . S
H698 C694 0.950 . S
C699 C697 1.390 . S
C699 C700 1.387 . S
C699 H702 0.950 . S
C700 C699 1.387 . S
C700 C703 1.387 . S
H701 C697 0.950 . S
H702 C699 0.950 . S
C703 C694 1.390 . S
C703 H696 0.950 . S
C703 C700 1.387 . S
C704 C705 1.387 . S
C704 H708 0.950 . S
C704 C713 1.390 . S
C705 C704 1.387 . S
C705 C707 1.387 . S
H706 C713 0.950 . S
C707 C705 1.387 . S
C707 C709 1.390 . S
C707 H711 0.950 . S
H708 C704 0.950 . S
C709 C707 1.390 . S
C709 C710 1.387 . S
C709 H712 0.950 . S
C710 C709 1.387 . S
C710 C713 1.387 . S
H711 C707 0.950 . S
H712 C709 0.950 . S
C713 C704 1.390 . S
C713 H706 0.950 . S
C713 C710 1.387 . S
C714 C715 1.387 . S
C714 H718 0.950 . S
C714 C723 1.390 . S
C715 C714 1.387 . S
C715 C717 1.387 . S
H716 C723 0.950 . S
C717 C715 1.387 . S
C717 C719 1.390 . S
C717 H721 0.950 . S
H718 C714 0.950 . S
C719 C717 1.390 . S
C719 C720 1.387 . S
C719 H722 0.950 . S
C720 C719 1.387 . S
C720 C723 1.387 . S
H721 C717 0.950 . S
H722 C719 0.950 . S
C723 C714 1.390 . S
C723 H716 0.950 . S
C723 C720 1.387 . S
C724 C725 1.387 . S
C724 H728 0.950 . S
C724 C733 1.390 . S
C725 C724 1.387 . S
C725 C727 1.387 . S
H726 C733 0.950 . S
C727 C725 1.387 . S
C727 C729 1.390 . S
C727 H731 0.950 . S
H728 C724 0.950 . S
C729 C727 1.390 . S
C729 C730 1.387 . S
C729 H732 0.950 . S
C730 C729 1.387 . S
C730 C733 1.387 . S
H731 C727 0.950 . S
H732 C729 0.950 . S
C733 C724 1.390 . S
C733 H726 0.950 . S
C733 C730 1.387 . S
C734 C735 1.387 . S
C734 H738 0.950 . S
C734 C743 1.390 . S
C735 C734 1.387 . S
C735 C737 1.387 . S
H736 C743 0.950 . S
C737 C735 1.387 . S
C737 C739 1.390 . S
C737 H741 0.950 . S
H738 C734 0.950 . S
C739 C737 1.390 . S
C739 C740 1.387 . S
C739 H742 0.950 . S
C740 C739 1.387 . S
C740 C743 1.387 . S
H741 C737 0.950 . S
H742 C739 0.950 . S
C743 C734 1.390 . S
C743 H736 0.950 . S
C743 C740 1.387 . S
C744 C745 1.387 . S
C744 H748 0.950 . S
C744 C753 1.390 . S
C745 C744 1.387 . S
C745 C747 1.387 . S
H746 C753 0.950 . S
C747 C745 1.387 . S
C747 C749 1.390 . S
C747 H751 0.950 . S
H748 C744 0.950 . S
C749 C747 1.390 . S
C749 C750 1.387 . S
C749 H752 0.950 . S
C750 C749 1.387 . S
C750 C753 1.387 . S
H751 C747 0.950 . S
H752 C749 0.950 . S
C753 C744 1.390 . S
C753 H746 0.950 . S
C753 C750 1.387 . S
C754 C755 1.387 . S
C754 H758 0.950 . S
C754 C763 1.390 . S
C755 C754 1.387 . S
C755 C757 1.387 . S
H756 C763 0.950 . S
C757 C755 1.387 . S
C757 C759 1.390 . S
C757 H761 0.950 . S
H758 C754 0.950 . S
C759 C757 1.390 . S
C759 C760 1.387 . S
C759 H762 0.950 . S
C760 C759 1.387 . S
C760 C763 1.387 . S
H761 C757 0.950 . S
H762 C759 0.950 . S
C763 C754 1.390 . S
C763 H756 0.950 . S
C763 C760 1.387 . S
C764 C765 1.387 . S
C764 H768 0.950 . S
C764 C773 1.390 . S
C765 C764 1.387 . S
C765 C767 1.387 . S
H766 C773 0.950 . S
C767 C765 1.387 . S
C767 C769 1.390 . S
C767 H771 0.950 . S
H768 C764 0.950 . S
C769 C767 1.390 . S
C769 C770 1.387 . S
C769 H772 0.950 . S
C770 C769 1.387 . S
C770 C773 1.387 . S
H771 C767 0.950 . S
H772 C769 0.950 . S
C773 C764 1.390 . S
C773 H766 0.950 . S
C773 C770 1.387 . S
C774 C775 1.387 . S
C774 H778 0.950 . S
C774 C783 1.390 . S
C775 C774 1.387 . S
C775 C777 1.387 . S
H776 C783 0.950 . S
C777 C775 1.387 . S
C777 C779 1.390 . S
C777 H781 0.950 . S
H778 C774 0.950 . S
C779 C777 1.390 . S
C779 C780 1.387 . S
C779 H782 0.950 . S
C780 C779 1.387 . S
C780 C783 1.387 . S
H781 C777 0.950 . S
H782 C779 0.950 . S
C783 C774 1.390 . S
C783 H776 0.950 . S
C783 C780 1.387 . S
C784 C785 1.387 . S
C784 H788 0.950 . S
C784 C793 1.390 . S
C785 C784 1.387 . S
C785 C787 1.387 . S
H786 C793 0.950 . S
C787 C785 1.387 . S
C787 C789 1.390 . S
C787 H791 0.950 . S
H788 C784 0.950 . S
C789 C787 1.390 . S
C789 C790 1.387 . S
C789 H792 0.950 . S
C790 C789 1.387 . S
C790 C793 1.387 . S
H791 C787 0.950 . S
H792 C789 0.950 . S
C793 C784 1.390 . S
C793 H786 0.950 . S
C793 C790 1.387 . S
C794 C795 1.387 . S
C794 H798 0.950 . S
C794 C803 1.390 . S
C795 C794 1.387 . S
C795 C797 1.387 . S
H796 C803 0.950 . S
C797 C795 1.387 . S
C797 C799 1.390 . S
C797 H801 0.950 . S
H798 C794 0.950 . S
C799 C797 1.390 . S
C799 C800 1.387 . S
C799 H802 0.950 . S
C800 C799 1.387 . S
C800 C803 1.387 . S
H801 C797 0.950 . S
H802 C799 0.950 . S
C803 C794 1.390 . S
C803 H796 0.950 . S
C803 C800 1.387 . S
C804 C805 1.387 . S
C804 H808 0.950 . S
C804 C813 1.390 . S
C805 C804 1.387 . S
C805 C807 1.387 . S
H806 C813 0.950 . S
C807 C805 1.387 . S
C807 C809 1.390 . S
C807 H811 0.950 . S
H808 C804 0.950 . S
C809 C807 1.390 . S
C809 C810 1.387 . S
C809 H812 0.950 1_556 S
C810 C809 1.387 . S
C810 C813 1.387 . S
H811 C807 0.950 . S
H812 C809 0.950 1_554 S
C813 C804 1.390 . S
C813 H806 0.950 . S
C813 C810 1.387 . S
C814 C815 1.387 . S
C814 H818 0.950 . S
C814 C823 1.390 . S
C815 C814 1.387 . S
C815 C817 1.387 . S
H816 C823 0.950 . S
C817 C815 1.387 . S
C817 C819 1.390 . S
C817 H821 0.950 . S
H818 C814 0.950 . S
C819 C817 1.390 . S
C819 C820 1.387 . S
C819 H822 0.950 . S
C820 C819 1.387 . S
C820 C823 1.387 . S
H821 C817 0.950 . S
H822 C819 0.950 . S
C823 C814 1.390 . S
C823 H816 0.950 . S
C823 C820 1.387 . S
C824 C825 1.387 . S
C824 H828 0.950 . S
C824 C833 1.390 . S
C825 C824 1.387 . S
C825 C827 1.387 . S
H826 C833 0.950 . S
C827 C825 1.387 . S
C827 C829 1.390 . S
C827 H831 0.950 . S
H828 C824 0.950 . S
C829 C827 1.390 . S
C829 C830 1.387 . S
C829 H832 0.950 . S
C830 C829 1.387 . S
C830 C833 1.387 . S
H831 C827 0.950 . S
H832 C829 0.950 . S
C833 C824 1.390 . S
C833 H826 0.950 . S
C833 C830 1.387 . S
C834 C835 1.387 . S
C834 H838 0.950 . S
C834 C843 1.390 . S
C835 C834 1.387 . S
C835 C837 1.387 . S
H836 C843 0.950 . S
C837 C835 1.387 . S
C837 C839 1.390 . S
C837 H841 0.950 . S
H838 C834 0.950 . S
C839 C837 1.390 . S
C839 C840 1.387 . S
C839 H842 0.950 . S
C840 C839 1.387 . S
C840 C843 1.387 . S
H841 C837 0.950 . S
H842 C839 0.950 . S
C843 C834 1.390 . S
C843 H836 0.950 . S
C843 C840 1.387 . S
C844 C845 1.387 . S
C844 H848 0.950 . S
C844 C853 1.390 . S
C845 C844 1.387 . S
C845 C847 1.387 . S
H846 C853 0.950 . S
C847 C845 1.387 . S
C847 C849 1.390 . S
C847 H851 0.950 . S
H848 C844 0.950 . S
C849 C847 1.390 . S
C849 C850 1.387 . S
C849 H852 0.950 . S
C850 C849 1.387 . S
C850 C853 1.387 . S
H851 C847 0.950 . S
H852 C849 0.950 . S
C853 C844 1.390 . S
C853 H846 0.950 . S
C853 C850 1.387 . S
C854 C855 1.387 . S
C854 H858 0.950 . S
C854 C863 1.390 . S
C855 C854 1.387 . S
C855 C857 1.387 . S
H856 C863 0.950 . S
C857 C855 1.387 . S
C857 C859 1.390 . S
C857 H861 0.950 . S
H858 C854 0.950 . S
C859 C857 1.390 . S
C859 C860 1.387 . S
C859 H862 0.950 . S
C860 C859 1.387 . S
C860 C863 1.387 . S
H861 C857 0.950 . S
H862 C859 0.950 . S
C863 C854 1.390 . S
C863 H856 0.950 . S
C863 C860 1.387 . S
C864 C865 1.387 . S
C864 H868 0.950 . S
C864 C873 1.390 . S
C865 C864 1.387 . S
C865 C867 1.387 . S
H866 C873 0.950 . S
C867 C865 1.387 . S
C867 C869 1.390 . S
C867 H871 0.950 . S
H868 C864 0.950 . S
C869 C867 1.390 . S
C869 C870 1.387 . S
C869 H872 0.977 . S
C870 C869 1.387 . S
C870 C873 1.387 . S
H871 C867 0.950 . S
H872 C869 0.977 . S
C873 C864 1.390 . S
C873 H866 0.950 . S
C873 C870 1.387 . S
C874 C875 1.387 . S
C874 H878 0.950 1_554 S
C874 C883 1.390 1_554 S
C875 C874 1.387 . S
C875 C877 1.387 . S
H876 C883 0.950 . S
C877 C875 1.387 . S
C877 C879 1.390 . S
C877 H881 0.950 . S
H878 C874 0.950 1_556 S
C879 C877 1.390 . S
C879 C880 1.387 . S
C879 H882 0.950 . S
C880 C879 1.387 . S
C880 C883 1.387 1_554 S
H881 C877 0.950 . S
H882 C879 0.950 . S
C883 C874 1.390 1_556 S
C883 H876 0.950 . S
C883 C880 1.387 1_556 S
C884 C885 1.387 . S
C884 H888 0.950 . S
C884 C893 1.390 . S
C885 C884 1.387 . S
C885 C887 1.387 . S
H886 C893 0.950 . S
C887 C885 1.387 . S
C887 C889 1.390 . S
C887 H891 0.950 . S
H888 C884 0.950 . S
C889 C887 1.390 . S
C889 C890 1.387 . S
C889 H892 0.950 1_554 S
C890 C889 1.387 . S
C890 C893 1.387 . S
H891 C887 0.950 . S
H892 C889 0.950 1_556 S
C893 C884 1.390 . S
C893 H886 0.950 . S
C893 C890 1.387 . S
C894 C895 1.387 . S
C894 H898 0.950 . S
C894 C903 1.390 1_655 S
C895 C894 1.387 . S
C895 C897 1.372 1_655 S
H896 C903 0.950 . S
C897 C895 1.372 1_455 S
C897 C899 1.416 . S
C897 H901 0.941 1_455 S
H898 C894 0.950 . S
C899 C897 1.416 . S
C899 C900 1.387 . S
C899 H902 0.950 . S
C900 C899 1.387 . S
C900 C903 1.387 . S
H901 C897 0.941 1_655 S
H902 C899 0.950 . S
C903 C894 1.390 1_455 S
C903 H896 0.950 . S
C903 C900 1.387 . S
C904 C905 1.387 . S
C904 H908 0.950 . S
C904 C913 1.390 . S
C905 C904 1.387 . S
C905 C907 1.387 . S
H906 C913 0.950 . S
C907 C905 1.387 . S
C907 C909 1.390 . S
C907 H911 0.950 . S
H908 C904 0.950 . S
C909 C907 1.390 . S
C909 C910 1.387 . S
C909 H912 0.950 . S
C910 C909 1.387 . S
C910 C913 1.387 . S
H911 C907 0.950 . S
H912 C909 0.950 . S
C913 C904 1.390 . S
C913 H906 0.950 . S
C913 C910 1.387 . S
C914 C915 1.387 . S
C914 H918 0.950 . S
C914 C923 1.390 1_565 S
C915 C914 1.387 . S
C915 C917 1.387 1_565 S
H916 C923 0.950 . S
C917 C915 1.387 1_545 S
C917 C919 1.390 . S
C917 H921 0.950 . S
H918 C914 0.950 . S
C919 C917 1.390 . S
C919 C920 1.387 . S
C919 H922 0.950 . S
C920 C919 1.387 . S
C920 C923 1.387 . S
H921 C917 0.950 . S
H922 C919 0.950 . S
C923 C914 1.390 1_545 S
C923 H916 0.950 . S
C923 C920 1.387 . S
C924 C925 1.387 . S
C924 H928 0.950 . S
C924 C933 1.390 1_565 S
C925 C924 1.387 . S
C925 C927 1.387 1_565 S
H926 C933 0.950 . S
C927 C925 1.387 1_545 S
C927 C929 1.390 . S
C927 H931 0.950 . S
H928 C924 0.950 . S
C929 C927 1.390 . S
C929 C930 1.387 . S
C929 H932 0.950 . S
C930 C929 1.387 . S
C930 C933 1.387 . S
H931 C927 0.950 . S
H932 C929 0.950 . S
C933 C924 1.390 1_545 S
C933 H926 0.950 . S
C933 C930 1.387 . S
C934 C935 1.387 . S
C934 H938 0.950 . S
C934 C943 1.390 1_455 S
C935 C934 1.387 . S
C935 C937 1.387 . S
H936 C943 0.950 . S
C937 C935 1.387 . S
C937 C939 1.390 1_455 S
C937 H941 0.950 . S
H938 C934 0.950 . S
C939 C937 1.390 1_655 S
C939 C940 1.387 . S
C939 H942 0.950 . S
C940 C939 1.387 . S
C940 C943 1.387 . S
H941 C937 0.950 . S
H942 C939 0.950 . S
C943 C934 1.390 1_655 S
C943 H936 0.950 . S
C943 C940 1.387 . S
C944 C945 1.387 . S
C944 H948 0.950 . S
C944 C953 1.390 . S
C945 C944 1.387 . S
C945 C947 1.387 . S
H946 C953 0.950 . S
C947 C945 1.387 . S
C947 C949 1.390 . S
C947 H951 0.950 . S
H948 C944 0.950 . S
C949 C947 1.390 . S
C949 C950 1.387 . S
C949 H952 0.950 . S
C950 C949 1.387 . S
C950 C953 1.387 . S
H951 C947 0.950 . S
H952 C949 0.950 . S
C953 C944 1.390 . S
C953 H946 0.950 . S
C953 C950 1.387 . S
C415 C18 1.484 . S
C420 C111 1.477 . S
C425 C134 1.477 . S
C430 C41 1.484 . S
C435 C64 1.485 . S
C440 C88 1.477 . S
C445 C63 1.784 . S
C450 C112 1.890 . S
C455 C135 1.890 . S
C460 C17 1.785 . S
C465 C40 1.786 . S
C470 C89 1.891 . S
C475 C42 1.840 . S
C480 C86 1.833 . S
C485 C65 1.840 . S
C490 C109 1.833 . S
C495 C132 1.830 . S
C500 C19 1.837 . S
C505 C133 1.499 . S
C510 C43 1.489 . S
C515 C66 1.489 . S
C520 C87 1.499 . S
C525 C20 1.487 . S
C530 C110 1.499 . S
C535 C249 1.475 . S
C540 C156 1.483 . S
C545 C179 1.482 . S
C550 C272 1.474 . S
C555 C202 1.483 . S
C560 C226 1.475 . S
C565 C250 1.892 . S
C570 C201 1.787 . S
C575 C273 1.889 . S
C580 C155 1.784 . S
C585 C227 1.891 . S
C590 C178 1.786 . S
C595 C180 1.838 . S
C600 C224 1.832 . S
C605 C203 1.840 . S
C610 C247 1.834 . S
C615 C157 1.837 . S
C620 C270 1.831 . S
C625 C181 1.487 . S
C630 C271 1.499 . S
C635 C204 1.488 . S
C640 C225 1.499 . S
C645 C248 1.498 . S
C650 C158 1.487 . S
C655 C294 1.484 . S
C660 C387 1.476 . S
C665 C317 1.485 . S
C670 C410 1.476 . S
C675 C364 1.478 . S
C680 C340 1.486 . S
C685 C388 1.891 . S
C690 C339 1.786 . S
C695 C293 1.786 . S
C700 C411 1.891 . S
C705 C316 1.786 . S
C710 C365 1.891 . S
C715 C318 1.840 . S
C720 C362 1.833 . S
C725 C341 1.840 . S
C730 C385 1.833 . S
C735 C295 1.840 . S
C740 C408 1.833 . S
C745 C409 1.498 . S
C750 C319 1.489 . S
C755 C363 1.498 . S
C760 C342 1.487 . S
C765 C296 1.487 . S
C770 C386 1.497 . S
C775 C16 1.392 . S
C780 C320 1.369 . S
C785 C39 1.392 . S
C790 C343 1.368 . S
C795 C62 1.392 . S
C800 C297 1.367 . S
C805 C67 1.370 . S
C810 C177 1.393 . S
C815 C21 1.368 . S
C820 C200 1.392 . S
C825 C44 1.369 . S
C830 C154 1.393 . S
C835 C246 1.445 . S
C840 C90 1.434 . S
C845 C113 1.433 . S
C850 C269 1.446 . S
C855 C136 1.433 . S
C860 C223 1.445 . S
C865 C389 1.432 . S
C870 C131 1.446 . S
C875 C85 1.445 . S
C880 C412 1.431 . S
C885 C108 1.445 . S
C890 C366 1.434 . S
C895 C205 1.368 . S
C900 C315 1.392 . S
C905 C159 1.370 . S
C910 C338 1.393 . S
C915 C292 1.393 . S
C920 C182 1.370 . S
C925 C384 1.445 . S
C930 C228 1.432 . S
C935 C407 1.445 . S
C940 C251 1.431 . S
C945 C274 1.431 . S
C950 C361 1.445 . S
