# Generated by pormake.
# Topology noo, (5)-cn, num edge types: 1
# Building blocks:
#     Node 0, Type 0, BuildingBlock: XOMCOT_clean_sbu_1, # of connection points: 5
#     Node 1, Type 0, BuildingBlock: XOMCOT_clean_sbu_1, # of connection points: 5
#     Node 2, Type 0, BuildingBlock: XOMCOT_clean_sbu_1, # of connection points: 5
#     Node 3, Type 0, BuildingBlock: XOMCOT_clean_sbu_1, # of connection points: 5
#     Node 4, Type 0, BuildingBlock: XOMCOT_clean_sbu_1, # of connection points: 5
#     Node 5, Type 0, BuildingBlock: XOMCOT_clean_sbu_1, # of connection points: 5
#     Node 6, Type 0, BuildingBlock: XOMCOT_clean_sbu_1, # of connection points: 5
#     Node 7, Type 0, BuildingBlock: XOMCOT_clean_sbu_1, # of connection points: 5
#     Edge 8, Type (0, 0), BuildingBlock: AJUNOK_clean_linker_0, # of connection points: 2
#     Edge 9, Type (0, 0), BuildingBlock: AJUNOK_clean_linker_0, # of connection points: 2
#     Edge 10, Type (0, 0), BuildingBlock: AJUNOK_clean_linker_0, # of connection points: 2
#     Edge 11, Type (0, 0), BuildingBlock: AJUNOK_clean_linker_0, # of connection points: 2
#     Edge 12, Type (0, 0), BuildingBlock: AJUNOK_clean_linker_0, # of connection points: 2
#     Edge 13, Type (0, 0), BuildingBlock: AJUNOK_clean_linker_0, # of connection points: 2
#     Edge 14, Type (0, 0), BuildingBlock: AJUNOK_clean_linker_0, # of connection points: 2
#     Edge 15, Type (0, 0), BuildingBlock: AJUNOK_clean_linker_0, # of connection points: 2
#     Edge 16, Type (0, 0), BuildingBlock: AJUNOK_clean_linker_0, # of connection points: 2
#     Edge 17, Type (0, 0), BuildingBlock: AJUNOK_clean_linker_0, # of connection points: 2
#     Edge 18, Type (0, 0), BuildingBlock: AJUNOK_clean_linker_0, # of connection points: 2
#     Edge 19, Type (0, 0), BuildingBlock: AJUNOK_clean_linker_0, # of connection points: 2
#     Edge 20, Type (0, 0), BuildingBlock: AJUNOK_clean_linker_0, # of connection points: 2
#     Edge 21, Type (0, 0), BuildingBlock: AJUNOK_clean_linker_0, # of connection points: 2
#     Edge 22, Type (0, 0), BuildingBlock: AJUNOK_clean_linker_0, # of connection points: 2
#     Edge 23, Type (0, 0), BuildingBlock: AJUNOK_clean_linker_0, # of connection points: 2
#     Edge 24, Type (0, 0), BuildingBlock: AJUNOK_clean_linker_0, # of connection points: 2
#     Edge 25, Type (0, 0), BuildingBlock: AJUNOK_clean_linker_0, # of connection points: 2
#     Edge 26, Type (0, 0), BuildingBlock: AJUNOK_clean_linker_0, # of connection points: 2
#     Edge 27, Type (0, 0), BuildingBlock: AJUNOK_clean_linker_0, # of connection points: 2
# Relax obj value: 0.064
# Max RMSD: 0.098
# Mean RMSD: 0.098
data_MOF--net-noo--node1-XOMCOT_clean_sbu_1--edge1-AJUNOK_clean_linker_0
_symmetry_space_group_name_H-M    P1
_symmetry_Int_Tables_number       1
_symmetry_cell_setting            triclinic
loop_
_symmetry_equiv_pos_as_xyz
'x, y, z'
_cell_length_a     32.356169
_cell_length_b     32.343327
_cell_length_c     18.435731
_cell_angle_alpha  90.161512
_cell_angle_beta   89.941701
_cell_angle_gamma 89.916013
loop_
_atom_site_label
_atom_site_type_symbol
_atom_site_fract_x
_atom_site_fract_y
_atom_site_fract_z
_atom_type_partial_charge
C0 C 0.43794 0.28285 1.00034 0.0
C1 C 0.4171 0.31973 1.00339 0.0
N2 N 0.38793 0.31691 1.05521 0.0
N3 N 0.42172 0.25669 1.04948 0.0
C4 C 0.39106 0.27825 0.08209 0.0
H5 H 0.46444 0.27604 0.96655 0.0
Co6 Co 0.44507 0.20564 0.06901 0.0
C7 C 0.41435 0.19847 0.22614 0.0
O8 O 0.44935 0.2109 0.25455 0.0
N9 N 0.4691 0.1539 0.08866 0.0
C10 C 0.50731 0.10501 0.14052 0.0
C11 C 0.49205 0.14426 0.14763 0.0
C12 C 0.47025 0.11939 1.04713 0.0
N13 N 0.49378 0.08971 0.07723 0.0
O14 O 0.40325 0.17962 1.00953 0.0
H15 H 0.49871 0.16479 0.19225 0.0
H16 H 0.45461 0.11587 0.99573 0.0
O17 O 0.41011 0.19771 0.15691 0.0
C18 C 0.41384 0.18255 0.94275 0.0
O19 O 0.44995 0.19903 0.92794 0.0
N20 N 0.48907 0.23304 0.11566 0.0
C21 C 0.55677 0.28578 0.12614 0.0
C22 C 0.52044 0.29442 0.16492 0.0
C23 C 0.4865 0.26764 0.1584 0.0
C24 C 0.52501 0.224 0.08009 0.0
C25 C 0.55936 0.24928 0.08602 0.0
H26 H 0.45724 0.27686 0.18176 0.0
H27 H 0.52611 0.19898 1.04114 0.0
H28 H 0.37197 0.2662 0.12533 0.0
H29 H 0.42369 0.34703 0.97157 0.0
H30 H 0.52624 0.08855 0.17935 0.0
H31 H 0.51712 0.3232 0.19455 0.0
H32 H 0.5866 0.24228 1.05395 0.0
C33 C 0.72549 0.44746 1.00792 0.0
C34 C 0.68704 0.42978 1.01231 0.0
N35 N 0.68905 0.39803 1.05927 0.0
N36 N 0.75169 0.42682 1.05166 0.0
C37 C 0.72874 0.39649 0.08169 0.0
H38 H 0.73358 0.47466 0.97703 0.0
Co39 Co 0.8056 0.44359 0.06905 0.0
C40 C 0.80736 0.40918 0.22443 0.0
O41 O 0.7923 0.44277 0.2545 0.0
N42 N 0.85999 0.45994 0.08612 0.0
C43 C 0.91576 0.48429 0.14164 0.0
C44 C 0.87556 0.47237 0.15064 0.0
C45 C 0.89147 0.46451 1.03855 0.0
N46 N 0.92541 0.47944 0.07137 0.0
O47 O 0.82536 0.39953 1.00735 0.0
H48 H 0.85847 0.47433 0.20075 0.0
H49 H 0.88951 0.4578 0.98117 0.0
O50 O 0.81104 0.40712 0.15522 0.0
C51 C 0.82261 0.40937 0.94031 0.0
O52 O 0.80713 0.44579 0.92425 0.0
N53 N 0.7851 0.49076 0.12014 0.0
C54 C 0.74095 0.56469 0.13058 0.0
C55 C 0.72564 0.52868 0.16287 0.0
C56 C 0.74833 0.49183 0.15715 0.0
C57 C 0.80148 0.52679 0.09415 0.0
C58 C 0.78059 0.5641 0.1009 0.0
H59 H 0.73381 0.46354 0.17481 0.0
H60 H 0.82857 0.52655 1.06 0.0
H61 H 0.74074 0.37407 0.11968 0.0
H62 H 0.65943 0.44015 0.98463 0.0
H63 H 0.93637 0.49595 0.18315 0.0
H64 H 0.69471 0.52799 0.18537 0.0
H65 H 0.79316 0.59135 0.07488 0.0
C66 C 0.57652 0.72752 1.00152 0.0
C67 C 0.59917 0.69171 1.00267 0.0
N68 N 0.6294 0.69606 1.05219 0.0
N69 N 0.59234 0.75437 1.05009 0.0
C70 C 0.62456 0.73428 0.08058 0.0
H71 H 0.54917 0.73315 0.96934 0.0
Co72 Co 0.56738 0.80466 0.06962 0.0
C73 C 0.59709 0.81248 0.22745 0.0
O74 O 0.56247 0.79858 0.25509 0.0
N75 N 0.54175 0.85565 0.08916 0.0
C76 C 0.5031 0.90411 0.14181 0.0
C77 C 0.51898 0.86511 0.14858 0.0
C78 C 0.53969 0.88992 1.04752 0.0
N79 N 0.51615 0.91951 0.07834 0.0
O80 O 0.60866 0.83193 1.01122 0.0
H81 H 0.51302 0.84466 0.19342 0.0
H82 H 0.55483 0.89339 0.99563 0.0
O83 O 0.60166 0.81396 0.15827 0.0
C84 C 0.59951 0.8292 0.94378 0.0
O85 O 0.56505 0.81029 0.92601 0.0
N86 N 0.52394 0.77614 0.11564 0.0
C87 C 0.4545 0.72661 0.13831 0.0
C88 C 0.49222 0.71722 0.17229 0.0
C89 C 0.52689 0.74225 0.15956 0.0
C90 C 0.4876 0.7847 0.08129 0.0
C91 C 0.45252 0.76114 0.09309 0.0
H92 H 0.55652 0.73286 0.18107 0.0
H93 H 0.4863 0.80859 1.04046 0.0
H94 H 0.64359 0.74697 0.12342 0.0
H95 H 0.59299 0.66402 0.9714 0.0
H96 H 0.48422 0.92039 0.18116 0.0
H97 H 0.49534 0.68975 0.20529 0.0
H98 H 0.42488 0.76811 1.06231 0.0
C99 C 0.28422 0.57433 1.00526 0.0
C100 C 0.32172 0.59353 1.01387 0.0
N101 N 0.31837 0.62117 1.0684 0.0
N102 N 0.25722 0.5898 1.05399 0.0
C103 C 0.27881 0.61851 0.09143 0.0
H104 H 0.27759 0.54926 0.96816 0.0
Co105 Co 0.20481 0.56813 0.06993 0.0
C106 C 0.19976 0.59958 0.22776 0.0
O107 O 0.21576 0.56615 0.25651 0.0
N108 N 0.15193 0.54664 0.08642 0.0
C109 C 0.10063 0.51311 0.14041 0.0
C110 C 0.13914 0.52957 0.14945 0.0
C111 C 0.12017 0.54065 1.03993 0.0
N112 N 0.08897 0.51997 0.07169 0.0
O113 O 0.18136 0.61135 1.01075 0.0
H114 H 0.15734 0.52722 0.19817 0.0
H115 H 0.12018 0.54999 0.98368 0.0
O116 O 0.1965 0.60242 0.15858 0.0
C117 C 0.18448 0.60059 0.94404 0.0
O118 O 0.20064 0.56421 0.92954 0.0
N119 N 0.22927 0.52195 0.11671 0.0
C120 C 0.27681 0.45013 0.12699 0.0
C121 C 0.28898 0.48623 0.16339 0.0
C122 C 0.26477 0.52212 0.15719 0.0
C123 C 0.21664 0.48612 0.08413 0.0
C124 C 0.23913 0.44984 0.09044 0.0
H125 H 0.27685 0.5507 0.17881 0.0
H126 H 0.19115 0.48611 1.04643 0.0
H127 H 0.26661 0.6351 0.13768 0.0
H128 H 0.34955 0.58707 0.98323 0.0
H129 H 0.08248 0.49713 0.18097 0.0
H130 H 0.31863 0.48779 0.19046 0.0
H131 H 0.2292 0.42274 1.06045 0.0
C132 C 0.93706 0.22674 0.63641 0.0
C133 C 0.91837 0.18909 0.62597 0.0
N134 N 0.89009 0.19311 0.57287 0.0
N135 N 0.92065 0.25445 0.59015 0.0
C136 C 0.89187 0.23314 0.55242 0.0
H137 H 0.96239 0.23307 0.673 0.0
Co138 Co 0.94141 0.30749 0.57651 0.0
C139 C 0.91234 0.31277 0.41785 0.0
O140 O 0.94743 0.2997 0.39047 0.0
N141 N 0.9621 0.36105 0.56227 0.0
C142 C 0.9958 0.41351 0.512 0.0
C143 C 0.98125 0.3743 0.50136 0.0
C144 C 0.96482 0.3933 0.60895 0.0
N145 N 0.9857 0.42514 0.5796 0.0
O146 O 0.8969 0.32961 0.63479 0.0
H147 H 0.98596 0.35616 0.45294 0.0
H148 H 0.95248 0.39342 0.66347 0.0
O149 O 0.90798 0.31539 0.48692 0.0
C150 C 0.90617 0.32524 0.70188 0.0
O151 O 0.9422 0.30882 0.71765 0.0
N152 N 0.98863 0.28421 0.53073 0.0
C153 C 0.06129 0.2378 0.52139 0.0
C154 C 0.02591 0.22553 0.48309 0.0
C155 C 0.98958 0.24915 0.48886 0.0
C156 C 0.02372 0.29697 0.56534 0.0
C157 C 0.06042 0.27508 0.55954 0.0
H158 H 0.96148 0.23692 0.46568 0.0
H159 H 0.02272 0.32211 0.60394 0.0
H160 H 0.87439 0.246 0.50794 0.0
H161 H 0.9255 0.16076 0.65448 0.0
H162 H 0.01221 0.43235 0.47299 0.0
H163 H 0.02518 0.19617 0.45472 0.0
H164 H 0.08692 0.28513 0.59087 0.0
C165 C 0.78341 0.93197 0.64736 0.0
C166 C 0.82037 0.91195 0.63721 0.0
N167 N 0.81679 0.88705 0.57893 0.0
N168 N 0.75652 0.91967 0.5959 0.0
C169 C 0.77767 0.89206 0.55503 0.0
H170 H 0.77729 0.95579 0.6872 0.0
Co171 Co 0.70627 0.94571 0.5808 0.0
C172 C 0.69094 0.91839 0.42414 0.0
O173 O 0.69822 0.95531 0.39787 0.0
N174 N 0.65515 0.97288 0.56529 0.0
C175 C 0.60746 0.0157 0.52114 0.0
C176 C 0.64682 1.00108 0.51302 0.0
C177 C 0.61952 0.97044 0.60363 0.0
N178 N 0.59047 0.99646 0.57809 0.0
O179 O 0.67958 0.90466 0.6406 0.0
H180 H 0.66809 0.01146 0.47186 0.0
H181 H 0.61457 0.95018 0.64928 0.0
O182 O 0.69499 0.91189 0.49244 0.0
C183 C 0.68261 0.91565 0.70721 0.0
O184 O 0.69963 0.95161 0.72138 0.0
N185 N 0.73477 0.98843 0.53416 0.0
C186 C 0.78392 0.05752 0.50827 0.0
C187 C 0.78979 0.02103 0.46793 0.0
C188 C 0.76485 0.98642 0.48211 0.0
C189 C 0.73017 0.02328 0.57516 0.0
C190 C 0.75345 0.05831 0.56195 0.0
H191 H 0.77118 0.95764 0.4543 0.0
H192 H 0.70909 0.02335 0.62073 0.0
H193 H 0.76573 0.87817 0.50594 0.0
H194 H 0.84813 0.91619 0.66909 0.0
H195 H 0.59199 0.03793 0.48669 0.0
H196 H 0.81433 0.01884 0.42812 0.0
H197 H 0.74944 0.085 0.59693 0.0
C198 C 0.07804 0.78569 0.64582 0.0
C199 C 0.09793 0.8227 0.63617 0.0
N200 N 0.12414 0.81877 0.57975 0.0
N201 N 0.0917 0.75836 0.59597 0.0
C202 C 0.12004 0.7793 0.55667 0.0
H203 H 0.05347 0.77976 0.68416 0.0
Co204 Co 0.06695 0.70732 0.58075 0.0
C205 C 0.09603 0.69728 0.42273 0.0
O206 O 0.06078 0.70927 0.39477 0.0
N207 N 0.04159 0.65563 0.56537 0.0
C208 C 1.00241 0.60651 0.51636 0.0
C209 C 0.01901 0.64491 0.50651 0.0
C210 C 0.03871 0.62254 0.6099 0.0
N211 N 0.01473 0.59263 0.58132 0.0
O212 O 0.10896 0.68154 0.63956 0.0
H213 H 0.0133 0.66428 0.46015 0.0
H214 H 0.05331 0.62033 0.66244 0.0
O215 O 0.10072 0.69675 0.49189 0.0
C216 C 0.10006 0.68489 0.70703 0.0
O217 O 0.06523 0.70328 0.7247 0.0
N218 N 0.02284 0.73451 0.53387 0.0
C219 C 0.95257 0.78232 0.5074 0.0
C220 C 0.99005 0.79128 0.47239 0.0
C221 C 0.0251 0.76712 0.48691 0.0
C222 C 0.98664 0.72633 0.56906 0.0
C223 C 0.95111 0.74897 0.5553 0.0
H224 H 0.05437 0.77618 0.46374 0.0
H225 H 0.98576 0.70348 0.6117 0.0
H226 H 0.13505 0.7669 0.50891 0.0
H227 H 0.0927 0.85072 0.66712 0.0
H228 H 0.98325 0.58967 0.47831 0.0
H229 H 0.99269 0.81789 0.43718 0.0
H230 H 0.92353 0.74244 0.5866 0.0
C231 C 0.22779 0.07581 0.64549 0.0
C232 C 0.1912 0.09714 0.64283 0.0
N233 N 0.19444 0.12638 0.59134 0.0
N234 N 0.2542 0.09179 0.59648 0.0
C235 C 0.23308 0.12277 0.56426 0.0
H236 H 0.23427 0.04922 0.67905 0.0
Co237 Co 0.30506 0.06788 0.57721 0.0
C238 C 0.31229 0.09912 0.4202 0.0
O239 O 0.29904 0.06448 0.39147 0.0
N240 N 0.35658 0.04327 0.55791 0.0
C241 C 0.4054 1.00507 0.50532 0.0
C242 C 0.36671 0.02152 0.49761 0.0
C243 C 0.39023 0.04014 0.60099 0.0
N244 N 0.41989 0.01659 0.57043 0.0
O245 O 0.33133 0.10933 0.63712 0.0
H246 H 0.34681 0.01643 0.45163 0.0
H247 H 0.39311 0.05434 0.65385 0.0
O248 O 0.31393 0.10302 0.48952 0.0
C249 C 0.32879 0.09953 0.70427 0.0
O250 O 0.31094 0.06433 0.7208 0.0
N251 N 0.27753 0.02418 0.52959 0.0
C252 C 0.22887 0.95422 0.50524 0.0
C253 C 0.21902 0.99204 0.47209 0.0
C254 C 0.2436 0.02694 0.48562 0.0
C255 C 0.28674 0.98761 0.56269 0.0
C256 C 0.26363 0.95229 0.54999 0.0
H257 H 0.23375 0.05655 0.46479 0.0
H258 H 0.31067 0.98629 0.60349 0.0
H259 H 0.24541 0.14179 0.52123 0.0
H260 H 0.1638 0.09087 0.67471 0.0
H261 H 0.42208 0.98677 0.46562 0.0
H262 H 0.1914 0.9951 0.4394 0.0
H263 H 0.271 0.92452 0.58009 0.0
C264 C 0.47035 0.97842 1.05707 0.0
C265 C 0.51025 0.96124 1.05543 0.0
C266 C 0.46465 0.02128 1.05577 0.0
C267 C 0.49881 0.04787 1.0543 0.0
H268 H 0.44375 0.9586 1.06462 0.0
H269 H 0.43383 0.03376 1.06287 0.0
S270 S 0.60898 0.01813 1.04082 0.0
N271 N 0.58391 0.97369 1.04407 0.0
N272 N 0.57318 0.05461 1.04373 0.0
C273 C 0.53851 0.03105 1.04666 0.0
C274 C 0.54427 0.98748 1.04659 0.0
C275 C 0.99544 0.45663 1.04608 0.0
C276 C 0.96513 0.48748 1.04129 0.0
C277 C 0.03734 0.46708 1.04691 0.0
C278 C 0.04981 0.50857 1.04239 0.0
H279 H 0.98651 0.42503 1.05735 0.0
H280 H 0.05993 0.44325 1.05841 0.0
S281 S 0.98219 0.59963 1.01825 0.0
N282 N 0.95 0.56011 1.02357 0.0
N283 N 0.0292 0.57983 1.02389 0.0
C284 C 0.01999 0.539 1.02913 0.0
C285 C 0.97734 0.52839 1.02902 0.0
C286 C 0.95903 0.49379 0.60742 0.0
C287 C 0.99203 0.46569 0.60811 0.0
C288 C 0.9665 0.53639 0.60672 0.0
C289 C 0.00709 0.55184 0.60781 0.0
H290 H 0.92778 0.48273 0.59943 0.0
H291 H 0.94075 0.55733 0.5988 0.0
S292 S 0.10329 0.49055 0.62155 0.0
N293 N 0.06602 0.45569 0.61852 0.0
N294 N 0.0801 0.53608 0.6191 0.0
C295 C 0.03991 0.52408 0.61694 0.0
C296 C 0.03234 0.48076 0.61648 0.0
C297 C 0.53014 0.03924 0.60627 0.0
C298 C 0.54801 0.99983 0.59871 0.0
C299 C 0.48721 0.04432 0.60511 0.0
C300 C 0.46124 0.01014 0.59488 0.0
H301 H 0.54964 0.06642 0.6078 0.0
H302 H 0.47444 0.0753 0.60528 0.0
S303 S 0.49259 0.9003 0.58228 0.0
N304 N 0.53658 0.92587 0.58938 0.0
N305 N 0.4556 0.93555 0.58562 0.0
C306 C 0.47856 0.97039 0.59364 0.0
C307 C 0.52217 0.96516 0.59605 0.0
C308 C 0.31587 0.4068 1.0397 0.0
C309 C 0.30621 0.41608 0.11236 0.0
C310 C 0.34219 0.37413 1.0219 0.0
C311 C 0.35977 0.34925 0.07591 0.0
H312 H 0.30296 0.4251 0.99605 0.0
H313 H 0.34865 0.36804 0.96522 0.0
S314 S 0.34558 0.36148 0.27448 0.0
N315 N 0.31687 0.39857 0.23894 0.0
N316 N 0.36687 0.33669 0.20534 0.0
C317 C 0.35071 0.35823 0.14897 0.0
C318 C 0.32395 0.39193 0.16724 0.0
C319 C 0.5939 0.33295 1.04336 0.0
C320 C 0.58874 0.31749 0.11395 0.0
C321 C 0.62649 0.35947 1.02641 0.0
C322 C 0.6554 0.37132 0.07926 0.0
H323 H 0.57292 0.32375 1.00047 0.0
H324 H 0.62973 0.36995 0.97098 0.0
S325 S 0.65392 0.34136 0.27342 0.0
N326 N 0.61382 0.31704 0.23791 0.0
N327 N 0.6754 0.36748 0.20633 0.0
C328 C 0.65004 0.3569 0.15069 0.0
C329 C 0.6165 0.32994 0.16803 0.0
C330 C 0.66711 0.65616 0.14551 0.0
C331 C 0.65905 0.665 0.0721 0.0
C332 C 0.6935 0.6234 0.16507 0.0
C333 C 0.71299 0.59919 0.11159 0.0
H334 H 0.65206 0.67396 0.1878 0.0
H335 H 0.69876 0.61703 0.22196 0.0
S336 S 0.7026 0.6106 0.9122 0.0
N337 N 0.67331 0.64767 0.94639 0.0
N338 N 0.72229 0.58614 0.98261 0.0
C339 C 0.70537 0.60813 1.03821 0.0
C340 C 0.67859 0.64109 1.01857 0.0
C341 C 0.39224 0.63102 0.09698 0.0
C342 C 0.35133 0.64599 0.09799 0.0
C343 C 0.42553 0.6563 0.11673 0.0
C344 C 0.41913 0.69751 0.13828 0.0
H345 H 0.39874 0.59989 0.07849 0.0
H346 H 0.45661 0.64429 0.1104 0.0
S347 S 0.31793 0.75022 0.1592 0.0
N348 N 0.30619 0.70373 0.12832 0.0
N349 N 0.36873 0.75082 0.16739 0.0
C350 C 0.37823 0.7119 0.14484 0.0
C351 C 0.34433 0.68626 0.12427 0.0
C352 C 0.85475 0.08655 0.52054 0.0
C353 C 0.8128 0.09291 0.50456 0.0
C354 C 0.88035 0.1198 0.53946 0.0
C355 C 0.86493 0.16052 0.5429 0.0
H356 H 0.86713 0.05546 0.52366 0.0
H357 H 0.91208 0.11337 0.55423 0.0
S358 S 0.75838 0.19373 0.49686 0.0
N359 N 0.75797 0.14307 0.48557 0.0
N360 N 0.80584 0.20552 0.52233 0.0
C361 C 0.82381 0.16755 0.52166 0.0
C362 C 0.79782 0.13371 0.50221 0.0
C363 C 0.92352 0.85263 0.52737 0.0
C364 C 0.91715 0.81135 0.50629 0.0
C365 C 0.89024 0.87787 0.54751 0.0
C366 C 0.84944 0.86284 0.54696 0.0
H367 H 0.95458 0.8646 0.53353 0.0
H368 H 0.89662 0.90892 0.56648 0.0
S369 S 0.81602 0.75878 0.48638 0.0
N370 N 0.86686 0.75795 0.47809 0.0
N371 N 0.80422 0.80543 0.51673 0.0
C372 C 0.84238 0.82272 0.52047 0.0
C373 C 0.8763 0.79696 0.50002 0.0
C374 C 0.15875 0.92547 0.52833 0.0
C375 C 0.19973 0.91887 0.50578 0.0
C376 C 0.13363 0.89234 0.54917 0.0
C377 C 0.14849 0.8514 0.5482 0.0
H378 H 0.14689 0.95661 0.53481 0.0
H379 H 0.10276 0.89901 0.56869 0.0
S380 S 0.25177 0.81734 0.48399 0.0
N381 N 0.25254 0.86815 0.47551 0.0
N382 N 0.20556 0.80587 0.51625 0.0
C383 C 0.18835 0.84412 0.52059 0.0
C384 C 0.2139 0.87788 0.49907 0.0
C385 C 0.10515 0.19918 0.60814 0.0
C386 C 0.09573 0.20879 0.53562 0.0
C387 C 0.13775 0.17277 0.62548 0.0
C388 C 0.16245 0.15498 0.57113 0.0
H389 H 0.0869 0.21207 0.65207 0.0
H390 H 0.14385 0.16628 0.68206 0.0
S391 S 0.15007 0.1691 0.37276 0.0
N392 N 0.11312 0.19796 0.4088 0.0
N393 N 0.17486 0.14778 0.44156 0.0
C394 C 0.15345 0.16408 0.49822 0.0
C395 C 0.11982 0.19094 0.48042 0.0
C396 C 0.38863 0.17971 0.35099 0.0
C397 C 0.38299 0.17869 0.27498 0.0
C398 C 0.36393 0.15607 0.39816 0.0
C399 C 0.33254 0.13007 0.37153 0.0
H400 H 0.41348 0.1977 0.37443 0.0
H401 H 0.37103 0.15657 0.45557 0.0
S402 S 0.30087 0.12032 0.17845 0.0
N403 N 0.34036 0.15256 0.17648 0.0
N404 N 0.29421 0.10826 0.26463 0.0
C405 C 0.32476 0.13079 0.29621 0.0
C406 C 0.34979 0.15504 0.24817 0.0
C407 C 0.82579 0.38229 0.3483 0.0
C408 C 0.82881 0.37848 0.27215 0.0
C409 C 0.85111 0.35919 0.39518 0.0
C410 C 0.88083 0.33129 0.36814 0.0
H411 H 0.80483 0.40464 0.37224 0.0
H412 H 0.84869 0.36488 0.45296 0.0
S413 S 0.89731 0.30504 0.17369 0.0
N414 N 0.86108 0.341 0.17244 0.0
N415 N 0.90848 0.29774 0.26008 0.0
C416 C 0.88226 0.32506 0.29233 0.0
C417 C 0.85633 0.3485 0.24455 0.0
C418 C 0.67368 0.89231 0.29885 0.0
C419 C 0.67265 0.8864 0.37474 0.0
C420 C 0.65151 0.86657 0.25102 0.0
C421 C 0.62687 0.83395 0.27691 0.0
H422 H 0.69066 0.91802 0.27604 0.0
H423 H 0.65196 0.8738 0.19368 0.0
S424 S 0.61709 0.80199 0.46971 0.0
N425 N 0.64771 0.84274 0.47253 0.0
N426 N 0.60593 0.79477 0.38322 0.0
C427 C 0.62744 0.82617 0.35223 0.0
C428 C 0.65034 0.85218 0.40089 0.0
C429 C 0.15529 0.64827 0.40006 0.0
C430 C 0.12749 0.6781 0.37357 0.0
C431 C 0.18008 0.62466 0.35271 0.0
C432 C 0.17841 0.62993 0.27669 0.0
H433 H 0.15645 0.64152 0.45755 0.0
H434 H 0.19953 0.60091 0.37606 0.0
S435 S 0.11534 0.70856 0.18046 0.0
N436 N 0.1032 0.71487 0.26679 0.0
N437 N 0.14967 0.67079 0.17826 0.0
C438 C 0.15284 0.6617 0.24997 0.0
C439 C 0.12744 0.68561 0.29819 0.0
C440 C 0.61554 0.83966 0.81197 0.0
C441 C 0.62422 0.84913 0.88529 0.0
C442 C 0.63544 0.86013 0.75462 0.0
C443 C 0.66471 0.89121 0.76806 0.0
H444 H 0.59256 0.8166 0.79841 0.0
H445 H 0.62686 0.85237 0.69946 0.0
S446 S 0.7007 0.92599 0.95005 0.0
N447 N 0.66566 0.89039 0.96779 0.0
N448 N 0.70323 0.92883 0.86076 0.0
C449 C 0.67473 0.90006 0.84118 0.0
C450 C 0.65452 0.87905 0.89953 0.0
C451 C 0.11612 0.67523 0.839 0.0
C452 C 0.12544 0.66604 0.76576 0.0
C453 C 0.13649 0.65542 0.89655 0.0
C454 C 0.16691 0.62534 0.88336 0.0
H455 H 0.09215 0.6974 0.85236 0.0
H456 H 0.12722 0.66268 0.95163 0.0
S457 S 0.20548 0.59232 0.70186 0.0
N458 N 0.16911 0.62658 0.68372 0.0
N459 N 0.20755 0.58941 0.79118 0.0
C460 C 0.17777 0.61706 0.8104 0.0
C461 C 0.15708 0.63738 0.75184 0.0
C462 C 0.34023 0.11339 0.83677 0.0
C463 C 0.34784 0.12437 0.76376 0.0
C464 C 0.36019 0.1334 0.89472 0.0
C465 C 0.38888 0.16508 0.88215 0.0
H466 H 0.3192 0.08843 0.84959 0.0
H467 H 0.35419 0.12291 0.94948 0.0
S468 S 0.41706 0.20848 0.70203 0.0
N469 N 0.38403 0.17115 0.68298 0.0
N470 N 0.42153 0.20883 0.79123 0.0
C471 C 0.39551 0.1776 0.80963 0.0
C472 C 0.37501 0.1573 0.75068 0.0
C473 C 0.85268 0.37478 0.74965 0.0
C474 C 0.88038 0.34214 0.76202 0.0
C475 C 0.83302 0.39509 0.8077 0.0
C476 C 0.84 0.38348 0.88056 0.0
H477 H 0.84753 0.38599 0.69508 0.0
H478 H 0.81302 0.42098 0.79516 0.0
S479 S 0.90593 0.29644 0.94152 0.0
N480 N 0.9109 0.29651 0.85237 0.0
N481 N 0.87402 0.33478 0.96088 0.0
C482 C 0.86581 0.34936 0.89334 0.0
C483 C 0.88598 0.32874 0.83428 0.0
loop_
_geom_bond_atom_site_label_1
_geom_bond_atom_site_label_2
_geom_bond_distance
_geom_bond_site_symmetry_2
_ccdc_geom_bond_type
C0 C1 1.351 . S
C0 N3 1.368 . S
C0 H5 0.931 . S
C1 C0 1.351 . S
C1 N2 1.357 1_556 S
C1 H29 0.930 . S
N2 C1 1.357 1_554 S
N2 C4 1.347 . S
N3 C0 1.368 . S
N3 C4 1.321 1_556 S
N3 Co6 2.138 . S
C4 N2 1.347 . S
C4 N3 1.321 1_554 S
C4 H28 0.930 . S
H5 C0 0.931 . S
Co6 N3 2.138 . S
Co6 N9 2.118 1_556 S
Co6 O14 2.068 . S
Co6 O17 2.023 1_556 S
Co6 N20 2.139 1_556 S
C7 O8 1.227 . S
C7 O17 1.265 . S
O8 C7 1.227 . S
N9 Co6 2.118 1_554 S
N9 C11 1.375 . S
N9 C12 1.313 1_554 S
C10 C11 1.338 . S
C10 N13 1.377 1_554 S
C10 H30 0.930 . S
C11 N9 1.375 . S
C11 C10 1.338 . S
C11 H15 0.931 . S
C12 N9 1.313 1_556 S
C12 N13 1.344 . S
C12 H16 0.930 . S
N13 C10 1.377 1_556 S
N13 C12 1.344 . S
O14 Co6 2.068 . S
O14 C18 1.253 . S
H15 C11 0.931 . S
H16 C12 0.930 . S
O17 Co6 2.023 1_554 S
O17 C7 1.265 . S
C18 O14 1.253 . S
C18 O19 1.227 . S
O19 C18 1.227 . S
N20 Co6 2.139 1_554 S
N20 C23 1.346 . S
N20 C24 1.345 1_554 S
C21 C22 1.387 . S
C21 C25 1.391 1_554 S
C22 C21 1.387 . S
C22 C23 1.369 . S
C22 H31 0.929 . S
C23 N20 1.346 . S
C23 C22 1.369 . S
C23 H26 0.928 . S
C24 N20 1.345 1_556 S
C24 C25 1.371 . S
C24 H27 0.931 . S
C25 C21 1.391 1_556 S
C25 C24 1.371 . S
C25 H32 0.930 . S
H26 C23 0.928 . S
H27 C24 0.931 . S
H28 C4 0.930 . S
H29 C1 0.930 . S
H30 C10 0.930 . S
H31 C22 0.929 . S
H32 C25 0.930 . S
C33 C34 1.351 . S
C33 N36 1.368 . S
C33 H38 0.931 . S
C34 C33 1.351 . S
C34 N35 1.357 1_556 S
C34 H62 0.930 . S
N35 C34 1.357 1_554 S
N35 C37 1.347 . S
N36 C33 1.368 . S
N36 C37 1.321 1_556 S
N36 Co39 2.138 . S
C37 N35 1.347 . S
C37 N36 1.321 1_554 S
C37 H61 0.930 . S
H38 C33 0.931 . S
Co39 N36 2.138 . S
Co39 N42 2.118 1_556 S
Co39 O47 2.068 . S
Co39 O50 2.023 1_556 S
Co39 N53 2.139 1_556 S
C40 O41 1.227 . S
C40 O50 1.265 . S
O41 C40 1.227 . S
N42 Co39 2.118 1_554 S
N42 C44 1.375 . S
N42 C45 1.313 1_554 S
C43 C44 1.338 . S
C43 N46 1.377 1_554 S
C43 H63 0.930 . S
C44 N42 1.375 . S
C44 C43 1.338 . S
C44 H48 0.931 . S
C45 N42 1.313 1_556 S
C45 N46 1.344 . S
C45 H49 0.930 . S
N46 C43 1.377 1_556 S
N46 C45 1.344 . S
O47 Co39 2.068 . S
O47 C51 1.253 . S
H48 C44 0.931 . S
H49 C45 0.930 . S
O50 Co39 2.023 1_554 S
O50 C40 1.265 . S
C51 O47 1.253 . S
C51 O52 1.227 . S
O52 C51 1.227 . S
N53 Co39 2.139 1_554 S
N53 C56 1.346 . S
N53 C57 1.345 1_554 S
C54 C55 1.387 . S
C54 C58 1.391 1_554 S
C55 C54 1.387 . S
C55 C56 1.369 . S
C55 H64 0.929 . S
C56 N53 1.346 . S
C56 C55 1.369 . S
C56 H59 0.928 . S
C57 N53 1.345 1_556 S
C57 C58 1.371 . S
C57 H60 0.931 . S
C58 C54 1.391 1_556 S
C58 C57 1.371 . S
C58 H65 0.930 . S
H59 C56 0.928 . S
H60 C57 0.931 . S
H61 C37 0.930 . S
H62 C34 0.930 . S
H63 C43 0.930 . S
H64 C55 0.929 . S
H65 C58 0.930 . S
C66 C67 1.351 . S
C66 N69 1.368 . S
C66 H71 0.931 . S
C67 C66 1.351 . S
C67 N68 1.357 1_556 S
C67 H95 0.930 . S
N68 C67 1.357 1_554 S
N68 C70 1.347 . S
N69 C66 1.368 . S
N69 C70 1.321 1_556 S
N69 Co72 2.138 . S
C70 N68 1.347 . S
C70 N69 1.321 1_554 S
C70 H94 0.930 . S
H71 C66 0.931 . S
Co72 N69 2.138 . S
Co72 N75 2.118 1_556 S
Co72 O80 2.068 . S
Co72 O83 2.023 1_556 S
Co72 N86 2.139 1_556 S
C73 O74 1.227 . S
C73 O83 1.265 . S
O74 C73 1.227 . S
N75 Co72 2.118 1_554 S
N75 C77 1.375 . S
N75 C78 1.313 1_554 S
C76 C77 1.338 . S
C76 N79 1.377 1_554 S
C76 H96 0.930 . S
C77 N75 1.375 . S
C77 C76 1.338 . S
C77 H81 0.931 . S
C78 N75 1.313 1_556 S
C78 N79 1.344 . S
C78 H82 0.930 . S
N79 C76 1.377 1_556 S
N79 C78 1.344 . S
O80 Co72 2.068 . S
O80 C84 1.253 . S
H81 C77 0.931 . S
H82 C78 0.930 . S
O83 Co72 2.023 1_554 S
O83 C73 1.265 . S
C84 O80 1.253 . S
C84 O85 1.227 . S
O85 C84 1.227 . S
N86 Co72 2.139 1_554 S
N86 C89 1.346 . S
N86 C90 1.345 1_554 S
C87 C88 1.387 . S
C87 C91 1.391 1_554 S
C88 C87 1.387 . S
C88 C89 1.369 . S
C88 H97 0.929 . S
C89 N86 1.346 . S
C89 C88 1.369 . S
C89 H92 0.928 . S
C90 N86 1.345 1_556 S
C90 C91 1.371 . S
C90 H93 0.931 . S
C91 C87 1.391 1_556 S
C91 C90 1.371 . S
C91 H98 0.930 . S
H92 C89 0.928 . S
H93 C90 0.931 . S
H94 C70 0.930 . S
H95 C67 0.930 . S
H96 C76 0.930 . S
H97 C88 0.929 . S
H98 C91 0.930 . S
C99 C100 1.351 . S
C99 N102 1.368 . S
C99 H104 0.931 . S
C100 C99 1.351 . S
C100 N101 1.357 1_556 S
C100 H128 0.930 . S
N101 C100 1.357 1_554 S
N101 C103 1.347 . S
N102 C99 1.368 . S
N102 C103 1.321 1_556 S
N102 Co105 2.138 . S
C103 N101 1.347 . S
C103 N102 1.321 1_554 S
C103 H127 0.930 . S
H104 C99 0.931 . S
Co105 N102 2.138 . S
Co105 N108 2.118 1_556 S
Co105 O113 2.068 . S
Co105 O116 2.023 1_556 S
Co105 N119 2.139 1_556 S
C106 O107 1.227 . S
C106 O116 1.265 . S
O107 C106 1.227 . S
N108 Co105 2.118 1_554 S
N108 C110 1.375 . S
N108 C111 1.313 1_554 S
C109 C110 1.338 . S
C109 N112 1.377 1_554 S
C109 H129 0.930 . S
C110 N108 1.375 . S
C110 C109 1.338 . S
C110 H114 0.931 . S
C111 N108 1.313 1_556 S
C111 N112 1.344 . S
C111 H115 0.930 . S
N112 C109 1.377 1_556 S
N112 C111 1.344 . S
O113 Co105 2.068 . S
O113 C117 1.253 . S
H114 C110 0.931 . S
H115 C111 0.930 . S
O116 Co105 2.023 1_554 S
O116 C106 1.265 . S
C117 O113 1.253 . S
C117 O118 1.227 . S
O118 C117 1.227 . S
N119 Co105 2.139 1_554 S
N119 C122 1.346 . S
N119 C123 1.345 1_554 S
C120 C121 1.387 . S
C120 C124 1.391 1_554 S
C121 C120 1.387 . S
C121 C122 1.369 . S
C121 H130 0.929 . S
C122 N119 1.346 . S
C122 C121 1.369 . S
C122 H125 0.928 . S
C123 N119 1.345 1_556 S
C123 C124 1.371 . S
C123 H126 0.931 . S
C124 C120 1.391 1_556 S
C124 C123 1.371 . S
C124 H131 0.930 . S
H125 C122 0.928 . S
H126 C123 0.931 . S
H127 C103 0.930 . S
H128 C100 0.930 . S
H129 C109 0.930 . S
H130 C121 0.929 . S
H131 C124 0.930 . S
C132 C133 1.351 . S
C132 N135 1.368 . S
C132 H137 0.931 . S
C133 C132 1.351 . S
C133 N134 1.373 . S
C133 H161 0.930 . S
N134 C133 1.373 . S
N134 C136 1.340 . S
N135 C132 1.368 . S
N135 C136 1.321 . S
N135 Co138 2.135 . S
C136 N134 1.340 . S
C136 N135 1.321 . S
C136 H160 0.930 . S
H137 C132 0.931 . S
Co138 N135 2.135 . S
Co138 N141 2.121 . S
Co138 O146 2.055 . S
Co138 O149 2.039 . S
Co138 N152 2.140 . S
C139 O140 1.227 . S
C139 O149 1.265 . S
O140 C139 1.227 . S
N141 Co138 2.121 . S
N141 C143 1.375 . S
N141 C144 1.313 . S
C142 C143 1.338 . S
C142 N145 1.377 . S
C142 H162 0.930 . S
C143 N141 1.375 . S
C143 C142 1.338 . S
C143 H147 0.931 . S
C144 N141 1.313 . S
C144 N145 1.344 . S
C144 H148 0.930 . S
N145 C142 1.377 . S
N145 C144 1.344 . S
O146 Co138 2.055 . S
O146 C150 1.253 . S
H147 C143 0.931 . S
H148 C144 0.930 . S
O149 Co138 2.039 . S
O149 C139 1.265 . S
C150 O146 1.253 . S
C150 O151 1.227 . S
O151 C150 1.227 . S
N152 Co138 2.140 . S
N152 C155 1.346 . S
N152 C156 1.345 . S
C153 C154 1.387 1_455 S
C153 C157 1.391 . S
C154 C153 1.387 1_655 S
C154 C155 1.369 . S
C154 H163 0.929 . S
C155 N152 1.346 . S
C155 C154 1.369 . S
C155 H158 0.928 . S
C156 N152 1.345 . S
C156 C157 1.371 1_655 S
C156 H159 0.931 . S
C157 C153 1.391 . S
C157 C156 1.371 1_455 S
C157 H164 0.930 . S
H158 C155 0.928 . S
H159 C156 0.931 . S
H160 C136 0.930 . S
H161 C133 0.930 . S
H162 C142 0.930 . S
H163 C154 0.929 . S
H164 C157 0.930 . S
C165 C166 1.351 . S
C165 N168 1.368 . S
C165 H170 0.931 . S
C166 C165 1.351 . S
C166 N167 1.373 . S
C166 H194 0.930 . S
N167 C166 1.373 . S
N167 C169 1.340 . S
N168 C165 1.368 . S
N168 C169 1.321 . S
N168 Co171 2.135 . S
C169 N167 1.340 . S
C169 N168 1.321 . S
C169 H193 0.930 . S
H170 C165 0.931 . S
Co171 N168 2.135 . S
Co171 N174 2.121 . S
Co171 O179 2.055 . S
Co171 O182 2.039 . S
Co171 N185 2.140 . S
C172 O173 1.227 . S
C172 O182 1.265 . S
O173 C172 1.227 . S
N174 Co171 2.121 . S
N174 C176 1.375 . S
N174 C177 1.313 . S
C175 C176 1.338 . S
C175 N178 1.377 . S
C175 H195 0.930 . S
C176 N174 1.375 . S
C176 C175 1.338 . S
C176 H180 0.931 . S
C177 N174 1.313 . S
C177 N178 1.344 . S
C177 H181 0.930 . S
N178 C175 1.377 . S
N178 C177 1.344 . S
O179 Co171 2.055 . S
O179 C183 1.253 . S
H180 C176 0.931 . S
H181 C177 0.930 . S
O182 Co171 2.039 . S
O182 C172 1.265 . S
C183 O179 1.253 . S
C183 O184 1.227 . S
O184 C183 1.227 . S
N185 Co171 2.140 . S
N185 C188 1.346 . S
N185 C189 1.345 . S
C186 C187 1.387 1_545 S
C186 C190 1.391 . S
C187 C186 1.387 1_565 S
C187 C188 1.369 . S
C187 H196 0.929 . S
C188 N185 1.346 . S
C188 C187 1.369 . S
C188 H191 0.928 . S
C189 N185 1.345 . S
C189 C190 1.371 1_565 S
C189 H192 0.931 . S
C190 C186 1.391 . S
C190 C189 1.371 1_545 S
C190 H197 0.930 . S
H191 C188 0.928 . S
H192 C189 0.931 . S
H193 C169 0.930 . S
H194 C166 0.930 . S
H195 C175 0.930 . S
H196 C187 0.929 . S
H197 C190 0.930 . S
C198 C199 1.351 . S
C198 N201 1.368 . S
C198 H203 0.931 . S
C199 C198 1.351 . S
C199 N200 1.373 . S
C199 H227 0.930 . S
N200 C199 1.373 . S
N200 C202 1.340 . S
N201 C198 1.368 . S
N201 C202 1.321 . S
N201 Co204 2.135 . S
C202 N200 1.340 . S
C202 N201 1.321 . S
C202 H226 0.930 . S
H203 C198 0.931 . S
Co204 N201 2.135 . S
Co204 N207 2.121 . S
Co204 O212 2.055 . S
Co204 O215 2.039 . S
Co204 N218 2.140 . S
C205 O206 1.227 . S
C205 O215 1.265 . S
O206 C205 1.227 . S
N207 Co204 2.121 . S
N207 C209 1.375 . S
N207 C210 1.313 . S
C208 C209 1.338 . S
C208 N211 1.377 . S
C208 H228 0.930 . S
C209 N207 1.375 . S
C209 C208 1.338 . S
C209 H213 0.931 . S
C210 N207 1.313 . S
C210 N211 1.344 . S
C210 H214 0.930 . S
N211 C208 1.377 . S
N211 C210 1.344 . S
O212 Co204 2.055 . S
O212 C216 1.253 . S
H213 C209 0.931 . S
H214 C210 0.930 . S
O215 Co204 2.039 . S
O215 C205 1.265 . S
C216 O212 1.253 . S
C216 O217 1.227 . S
O217 C216 1.227 . S
N218 Co204 2.140 . S
N218 C221 1.346 . S
N218 C222 1.345 . S
C219 C220 1.387 1_655 S
C219 C223 1.391 . S
C220 C219 1.387 1_455 S
C220 C221 1.369 . S
C220 H229 0.929 . S
C221 N218 1.346 . S
C221 C220 1.369 . S
C221 H224 0.928 . S
C222 N218 1.345 . S
C222 C223 1.371 1_455 S
C222 H225 0.931 . S
C223 C219 1.391 . S
C223 C222 1.371 1_655 S
C223 H230 0.930 . S
H224 C221 0.928 . S
H225 C222 0.931 . S
H226 C202 0.930 . S
H227 C199 0.930 . S
H228 C208 0.930 . S
H229 C220 0.929 . S
H230 C223 0.930 . S
C231 C232 1.351 . S
C231 N234 1.368 . S
C231 H236 0.931 . S
C232 C231 1.351 . S
C232 N233 1.373 . S
C232 H260 0.930 . S
N233 C232 1.373 . S
N233 C235 1.340 . S
N234 C231 1.368 . S
N234 C235 1.321 . S
N234 Co237 2.135 . S
C235 N233 1.340 . S
C235 N234 1.321 . S
C235 H259 0.930 . S
H236 C231 0.931 . S
Co237 N234 2.135 . S
Co237 N240 2.121 . S
Co237 O245 2.055 . S
Co237 O248 2.039 . S
Co237 N251 2.140 . S
C238 O239 1.227 . S
C238 O248 1.265 . S
O239 C238 1.227 . S
N240 Co237 2.121 . S
N240 C242 1.375 . S
N240 C243 1.313 . S
C241 C242 1.338 . S
C241 N244 1.377 . S
C241 H261 0.930 . S
C242 N240 1.375 . S
C242 C241 1.338 . S
C242 H246 0.931 . S
C243 N240 1.313 . S
C243 N244 1.344 . S
C243 H247 0.930 . S
N244 C241 1.377 . S
N244 C243 1.344 . S
O245 Co237 2.055 . S
O245 C249 1.253 . S
H246 C242 0.931 . S
H247 C243 0.930 . S
O248 Co237 2.039 . S
O248 C238 1.265 . S
C249 O245 1.253 . S
C249 O250 1.227 . S
O250 C249 1.227 . S
N251 Co237 2.140 . S
N251 C254 1.346 . S
N251 C255 1.345 . S
C252 C253 1.387 1_565 S
C252 C256 1.391 . S
C253 C252 1.387 1_545 S
C253 C254 1.369 . S
C253 H262 0.929 . S
C254 N251 1.346 . S
C254 C253 1.369 . S
C254 H257 0.928 . S
C255 N251 1.345 . S
C255 C256 1.371 1_545 S
C255 H258 0.931 . S
C256 C252 1.391 . S
C256 C255 1.371 1_565 S
C256 H263 0.930 . S
H257 C254 0.928 . S
H258 C255 0.931 . S
H259 C235 0.930 . S
H260 C232 0.930 . S
H261 C241 0.930 . S
H262 C253 0.929 . S
H263 C256 0.930 . S
C264 C265 1.369 . S
C264 C266 1.419 1_565 S
C264 H268 0.930 . S
C265 C264 1.369 . S
C265 C274 1.429 1_556 S
C266 C264 1.419 1_545 S
C266 C267 1.363 . S
C266 H269 0.929 . S
C267 C266 1.363 . S
C267 C273 1.428 1_556 S
H268 C264 0.930 . S
H269 C266 0.929 . S
S270 N271 1.613 1_545 S
S270 N272 1.610 . S
N271 S270 1.613 1_565 S
N271 C274 1.350 . S
N272 S270 1.610 . S
N272 C273 1.351 . S
C273 C267 1.428 1_554 S
C273 N272 1.351 . S
C273 C274 1.434 1_545 S
C274 C265 1.429 1_554 S
C274 N271 1.350 . S
C274 C273 1.434 1_565 S
C275 C276 1.369 . S
C275 C277 1.419 1_655 S
C275 H279 0.930 . S
C276 C275 1.369 . S
C276 C285 1.429 . S
C277 C275 1.419 1_455 S
C277 C278 1.363 . S
C277 H280 0.929 . S
C278 C277 1.363 . S
C278 C284 1.428 . S
H279 C275 0.930 . S
H280 C277 0.929 . S
S281 N282 1.613 . S
S281 N283 1.610 1_655 S
N282 S281 1.613 . S
N282 C285 1.350 . S
N283 S281 1.610 1_455 S
N283 C284 1.351 . S
C284 C278 1.428 . S
C284 N283 1.351 . S
C284 C285 1.434 1_455 S
C285 C276 1.429 . S
C285 N282 1.350 . S
C285 C284 1.434 1_655 S
C286 C287 1.369 . S
C286 C288 1.419 . S
C286 H290 0.930 . S
C287 C286 1.369 . S
C287 C296 1.429 1_655 S
C288 C286 1.419 . S
C288 C289 1.363 1_655 S
C288 H291 0.929 . S
C289 C288 1.363 1_455 S
C289 C295 1.428 . S
H290 C286 0.930 . S
H291 C288 0.929 . S
S292 N293 1.613 . S
S292 N294 1.610 . S
N293 S292 1.613 . S
N293 C296 1.350 . S
N294 S292 1.610 . S
N294 C295 1.351 . S
C295 C289 1.428 . S
C295 N294 1.351 . S
C295 C296 1.434 . S
C296 C287 1.429 1_455 S
C296 N293 1.350 . S
C296 C295 1.434 . S
C297 C298 1.369 1_545 S
C297 C299 1.419 . S
C297 H301 0.930 . S
C298 C297 1.369 1_565 S
C298 C307 1.429 . S
C299 C297 1.419 . S
C299 C300 1.363 . S
C299 H302 0.929 . S
C300 C299 1.363 . S
C300 C306 1.428 1_545 S
H301 C297 0.930 . S
H302 C299 0.929 . S
S303 N304 1.613 . S
S303 N305 1.610 . S
N304 S303 1.613 . S
N304 C307 1.350 . S
N305 S303 1.610 . S
N305 C306 1.351 . S
C306 C300 1.428 1_565 S
C306 N305 1.351 . S
C306 C307 1.434 . S
C307 C298 1.429 . S
C307 N304 1.350 . S
C307 C306 1.434 . S
C308 C309 1.369 1_556 S
C308 C310 1.419 . S
C308 H312 0.930 . S
C309 C308 1.369 1_554 S
C309 C318 1.429 . S
C310 C308 1.419 . S
C310 C311 1.363 1_556 S
C310 H313 0.929 . S
C311 C310 1.363 1_554 S
C311 C317 1.428 . S
H312 C308 0.930 . S
H313 C310 0.929 . S
S314 N315 1.613 . S
S314 N316 1.610 . S
N315 S314 1.613 . S
N315 C318 1.350 . S
N316 S314 1.610 . S
N316 C317 1.351 . S
C317 C311 1.428 . S
C317 N316 1.351 . S
C317 C318 1.434 . S
C318 C309 1.429 . S
C318 N315 1.350 . S
C318 C317 1.434 . S
C319 C320 1.369 1_556 S
C319 C321 1.419 . S
C319 H323 0.930 . S
C320 C319 1.369 1_554 S
C320 C329 1.429 . S
C321 C319 1.419 . S
C321 C322 1.363 1_556 S
C321 H324 0.929 . S
C322 C321 1.363 1_554 S
C322 C328 1.428 . S
H323 C319 0.930 . S
H324 C321 0.929 . S
S325 N326 1.613 . S
S325 N327 1.610 . S
N326 S325 1.613 . S
N326 C329 1.350 . S
N327 S325 1.610 . S
N327 C328 1.351 . S
C328 C322 1.428 . S
C328 N327 1.351 . S
C328 C329 1.434 . S
C329 C320 1.429 . S
C329 N326 1.350 . S
C329 C328 1.434 . S
C330 C331 1.369 . S
C330 C332 1.419 . S
C330 H334 0.930 . S
C331 C330 1.369 . S
C331 C340 1.429 1_554 S
C332 C330 1.419 . S
C332 C333 1.363 . S
C332 H335 0.929 . S
C333 C332 1.363 . S
C333 C339 1.428 1_554 S
H334 C330 0.930 . S
H335 C332 0.929 . S
S336 N337 1.613 . S
S336 N338 1.610 . S
N337 S336 1.613 . S
N337 C340 1.350 . S
N338 S336 1.610 . S
N338 C339 1.351 . S
C339 C333 1.428 1_556 S
C339 N338 1.351 . S
C339 C340 1.434 . S
C340 C331 1.429 1_556 S
C340 N337 1.350 . S
C340 C339 1.434 . S
C341 C342 1.369 1_556 S
C341 C343 1.419 . S
C341 H345 0.930 . S
C342 C341 1.369 1_554 S
C342 C351 1.429 . S
C343 C341 1.419 . S
C343 C344 1.363 1_556 S
C343 H346 0.929 . S
C344 C343 1.363 1_554 S
C344 C350 1.428 . S
H345 C341 0.930 . S
H346 C343 0.929 . S
S347 N348 1.613 . S
S347 N349 1.610 . S
N348 S347 1.613 . S
N348 C351 1.350 . S
N349 S347 1.610 . S
N349 C350 1.351 . S
C350 C344 1.428 . S
C350 N349 1.351 . S
C350 C351 1.434 . S
C351 C342 1.429 . S
C351 N348 1.350 . S
C351 C350 1.434 . S
C352 C353 1.369 . S
C352 C354 1.419 . S
C352 H356 0.930 . S
C353 C352 1.369 . S
C353 C362 1.429 . S
C354 C352 1.419 . S
C354 C355 1.363 . S
C354 H357 0.929 . S
C355 C354 1.363 . S
C355 C361 1.428 . S
H356 C352 0.930 . S
H357 C354 0.929 . S
S358 N359 1.613 . S
S358 N360 1.610 . S
N359 S358 1.613 . S
N359 C362 1.350 . S
N360 S358 1.610 . S
N360 C361 1.351 . S
C361 C355 1.428 . S
C361 N360 1.351 . S
C361 C362 1.434 . S
C362 C353 1.429 . S
C362 N359 1.350 . S
C362 C361 1.434 . S
C363 C364 1.369 . S
C363 C365 1.419 . S
C363 H367 0.930 . S
C364 C363 1.369 . S
C364 C373 1.429 . S
C365 C363 1.419 . S
C365 C366 1.363 . S
C365 H368 0.929 . S
C366 C365 1.363 . S
C366 C372 1.428 . S
H367 C363 0.930 . S
H368 C365 0.929 . S
S369 N370 1.613 . S
S369 N371 1.610 . S
N370 S369 1.613 . S
N370 C373 1.350 . S
N371 S369 1.610 . S
N371 C372 1.351 . S
C372 C366 1.428 . S
C372 N371 1.351 . S
C372 C373 1.434 . S
C373 C364 1.429 . S
C373 N370 1.350 . S
C373 C372 1.434 . S
C374 C375 1.369 . S
C374 C376 1.419 . S
C374 H378 0.930 . S
C375 C374 1.369 . S
C375 C384 1.429 . S
C376 C374 1.419 . S
C376 C377 1.363 . S
C376 H379 0.929 . S
C377 C376 1.363 . S
C377 C383 1.428 . S
H378 C374 0.930 . S
H379 C376 0.929 . S
S380 N381 1.613 . S
S380 N382 1.610 . S
N381 S380 1.613 . S
N381 C384 1.350 . S
N382 S380 1.610 . S
N382 C383 1.351 . S
C383 C377 1.428 . S
C383 N382 1.351 . S
C383 C384 1.434 . S
C384 C375 1.429 . S
C384 N381 1.350 . S
C384 C383 1.434 . S
C385 C386 1.369 . S
C385 C387 1.419 . S
C385 H389 0.930 . S
C386 C385 1.369 . S
C386 C395 1.429 . S
C387 C385 1.419 . S
C387 C388 1.363 . S
C387 H390 0.929 . S
C388 C387 1.363 . S
C388 C394 1.428 . S
H389 C385 0.930 . S
H390 C387 0.929 . S
S391 N392 1.613 . S
S391 N393 1.610 . S
N392 S391 1.613 . S
N392 C395 1.350 . S
N393 S391 1.610 . S
N393 C394 1.351 . S
C394 C388 1.428 . S
C394 N393 1.351 . S
C394 C395 1.434 . S
C395 C386 1.429 . S
C395 N392 1.350 . S
C395 C394 1.434 . S
C396 C397 1.369 . S
C396 C398 1.419 . S
C396 H400 0.930 . S
C397 C396 1.369 . S
C397 C406 1.429 . S
C398 C396 1.419 . S
C398 C399 1.363 . S
C398 H401 0.929 . S
C399 C398 1.363 . S
C399 C405 1.428 . S
H400 C396 0.930 . S
H401 C398 0.929 . S
S402 N403 1.613 . S
S402 N404 1.610 . S
N403 S402 1.613 . S
N403 C406 1.350 . S
N404 S402 1.610 . S
N404 C405 1.351 . S
C405 C399 1.428 . S
C405 N404 1.351 . S
C405 C406 1.434 . S
C406 C397 1.429 . S
C406 N403 1.350 . S
C406 C405 1.434 . S
C407 C408 1.369 . S
C407 C409 1.419 . S
C407 H411 0.930 . S
C408 C407 1.369 . S
C408 C417 1.429 . S
C409 C407 1.419 . S
C409 C410 1.363 . S
C409 H412 0.929 . S
C410 C409 1.363 . S
C410 C416 1.428 . S
H411 C407 0.930 . S
H412 C409 0.929 . S
S413 N414 1.613 . S
S413 N415 1.610 . S
N414 S413 1.613 . S
N414 C417 1.350 . S
N415 S413 1.610 . S
N415 C416 1.351 . S
C416 C410 1.428 . S
C416 N415 1.351 . S
C416 C417 1.434 . S
C417 C408 1.429 . S
C417 N414 1.350 . S
C417 C416 1.434 . S
C418 C419 1.369 . S
C418 C420 1.419 . S
C418 H422 0.930 . S
C419 C418 1.369 . S
C419 C428 1.429 . S
C420 C418 1.419 . S
C420 C421 1.363 . S
C420 H423 0.929 . S
C421 C420 1.363 . S
C421 C427 1.428 . S
H422 C418 0.930 . S
H423 C420 0.929 . S
S424 N425 1.613 . S
S424 N426 1.610 . S
N425 S424 1.613 . S
N425 C428 1.350 . S
N426 S424 1.610 . S
N426 C427 1.351 . S
C427 C421 1.428 . S
C427 N426 1.351 . S
C427 C428 1.434 . S
C428 C419 1.429 . S
C428 N425 1.350 . S
C428 C427 1.434 . S
C429 C430 1.369 . S
C429 C431 1.419 . S
C429 H433 0.930 . S
C430 C429 1.369 . S
C430 C439 1.429 . S
C431 C429 1.419 . S
C431 C432 1.363 . S
C431 H434 0.929 . S
C432 C431 1.363 . S
C432 C438 1.428 . S
H433 C429 0.930 . S
H434 C431 0.929 . S
S435 N436 1.613 . S
S435 N437 1.610 . S
N436 S435 1.613 . S
N436 C439 1.350 . S
N437 S435 1.610 . S
N437 C438 1.351 . S
C438 C432 1.428 . S
C438 N437 1.351 . S
C438 C439 1.434 . S
C439 C430 1.429 . S
C439 N436 1.350 . S
C439 C438 1.434 . S
C440 C441 1.369 . S
C440 C442 1.419 . S
C440 H444 0.930 . S
C441 C440 1.369 . S
C441 C450 1.429 . S
C442 C440 1.419 . S
C442 C443 1.363 . S
C442 H445 0.929 . S
C443 C442 1.363 . S
C443 C449 1.428 . S
H444 C440 0.930 . S
H445 C442 0.929 . S
S446 N447 1.613 . S
S446 N448 1.610 . S
N447 S446 1.613 . S
N447 C450 1.350 . S
N448 S446 1.610 . S
N448 C449 1.351 . S
C449 C443 1.428 . S
C449 N448 1.351 . S
C449 C450 1.434 . S
C450 C441 1.429 . S
C450 N447 1.350 . S
C450 C449 1.434 . S
C451 C452 1.369 . S
C451 C453 1.419 . S
C451 H455 0.930 . S
C452 C451 1.369 . S
C452 C461 1.429 . S
C453 C451 1.419 . S
C453 C454 1.363 . S
C453 H456 0.929 . S
C454 C453 1.363 . S
C454 C460 1.428 . S
H455 C451 0.930 . S
H456 C453 0.929 . S
S457 N458 1.613 . S
S457 N459 1.610 . S
N458 S457 1.613 . S
N458 C461 1.350 . S
N459 S457 1.610 . S
N459 C460 1.351 . S
C460 C454 1.428 . S
C460 N459 1.351 . S
C460 C461 1.434 . S
C461 C452 1.429 . S
C461 N458 1.350 . S
C461 C460 1.434 . S
C462 C463 1.369 . S
C462 C464 1.419 . S
C462 H466 0.930 . S
C463 C462 1.369 . S
C463 C472 1.429 . S
C464 C462 1.419 . S
C464 C465 1.363 . S
C464 H467 0.929 . S
C465 C464 1.363 . S
C465 C471 1.428 . S
H466 C462 0.930 . S
H467 C464 0.929 . S
S468 N469 1.613 . S
S468 N470 1.610 . S
N469 S468 1.613 . S
N469 C472 1.350 . S
N470 S468 1.610 . S
N470 C471 1.351 . S
C471 C465 1.428 . S
C471 N470 1.351 . S
C471 C472 1.434 . S
C472 C463 1.429 . S
C472 N469 1.350 . S
C472 C471 1.434 . S
C473 C474 1.369 . S
C473 C475 1.419 . S
C473 H477 0.930 . S
C474 C473 1.369 . S
C474 C483 1.429 . S
C475 C473 1.419 . S
C475 C476 1.363 . S
C475 H478 0.929 . S
C476 C475 1.363 . S
C476 C482 1.428 . S
H477 C473 0.930 . S
H478 C475 0.929 . S
S479 N480 1.613 . S
S479 N481 1.610 . S
N480 S479 1.613 . S
N480 C483 1.350 . S
N481 S479 1.610 . S
N481 C482 1.351 . S
C482 C476 1.428 . S
C482 N481 1.351 . S
C482 C483 1.434 . S
C483 C474 1.429 . S
C483 N480 1.350 . S
C483 C482 1.434 . S
C265 N79 1.315 . S
C267 N13 1.316 . S
C276 N46 1.321 . S
C278 N112 1.321 . S
C287 N145 1.324 . S
C289 N211 1.323 . S
C298 N178 1.322 . S
C300 N244 1.322 . S
C309 C120 1.558 . S
C311 N2 1.513 . S
C320 C21 1.558 . S
C322 N35 1.513 . S
C331 N68 1.505 . S
C333 C54 1.558 . S
C342 N101 1.512 . S
C344 C87 1.557 . S
C353 C186 1.558 . S
C355 N134 1.509 . S
C364 C219 1.557 . S
C366 N167 1.505 . S
C375 C252 1.557 . S
C377 N200 1.505 . S
C386 C153 1.559 . S
C388 N233 1.508 . S
C397 C7 1.550 . S
C399 C238 1.550 . S
C408 C40 1.550 . S
C410 C139 1.550 . S
C419 C172 1.550 . S
C421 C73 1.550 . S
C430 C205 1.549 . S
C432 C106 1.550 . S
C441 C84 1.482 . S
C443 C183 1.482 . S
C452 C216 1.484 . S
C454 C117 1.482 . S
C463 C249 1.484 . S
C465 C18 1.482 . S
C474 C150 1.484 . S
C476 C51 1.483 . S
