# Generated by pormake.
# Topology kag, (6)-cn, num edge types: 1
# Building blocks:
#     Node 0, Type 0, BuildingBlock: GEDQOX_clean_sbu_0, # of connection points: 6
#     Node 1, Type 0, BuildingBlock: GEDQOX_clean_sbu_0, # of connection points: 6
#     Node 2, Type 0, BuildingBlock: GEDQOX_clean_sbu_0, # of connection points: 6
#     Edge 3, Type (0, 0), BuildingBlock: UVAHIK_clean_linker_0, # of connection points: 2
#     Edge 4, Type (0, 0), BuildingBlock: UVAHIK_clean_linker_0, # of connection points: 2
#     Edge 5, Type (0, 0), BuildingBlock: UVAHIK_clean_linker_0, # of connection points: 2
#     Edge 6, Type (0, 0), BuildingBlock: UVAHIK_clean_linker_0, # of connection points: 2
#     Edge 7, Type (0, 0), BuildingBlock: UVAHIK_clean_linker_0, # of connection points: 2
#     Edge 8, Type (0, 0), BuildingBlock: UVAHIK_clean_linker_0, # of connection points: 2
#     Edge 9, Type (0, 0), BuildingBlock: UVAHIK_clean_linker_0, # of connection points: 2
#     Edge 10, Type (0, 0), BuildingBlock: UVAHIK_clean_linker_0, # of connection points: 2
#     Edge 11, Type (0, 0), BuildingBlock: UVAHIK_clean_linker_0, # of connection points: 2
# Relax obj value: 0.055
# Max RMSD: 0.172
# Mean RMSD: 0.099
data_MOF--net-kag--node1-GEDQOX_clean_sbu_0--edge1-UVAHIK_clean_linker_0
_symmetry_space_group_name_H-M    P1
_symmetry_Int_Tables_number       1
_symmetry_cell_setting            triclinic
loop_
_symmetry_equiv_pos_as_xyz
'x, y, z'
_cell_length_a     58.848171
_cell_length_b     51.257075
_cell_length_c     19.224701
_cell_angle_alpha  95.225324
_cell_angle_beta   89.572229
_cell_angle_gamma 137.10178
loop_
_atom_site_label
_atom_site_type_symbol
_atom_site_fract_x
_atom_site_fract_y
_atom_site_fract_z
_atom_type_partial_charge
Nd0 Nd 1.02937 0.55447 0.02294 0.0
Nd1 Nd 0.03825 0.50606 0.9801 0.0
C2 C 1.01155 0.5859 0.08005 0.0
C3 C 0.98294 0.58019 0.07641 0.0
C4 C 0.96021 0.56251 0.12834 0.0
C5 C 0.93426 0.55896 0.12747 0.0
C6 C 0.93053 0.57325 0.07487 0.0
C7 C 0.95311 0.59062 0.02257 0.0
C8 C 0.97902 0.59412 0.0234 0.0
C9 C 1.03223 0.54639 0.88012 0.0
C10 C 0.96176 0.45941 0.98992 0.0
C11 C 0.05539 0.47405 0.9218 0.0
C12 C 0.08419 0.48046 0.92323 0.0
C13 C 0.08637 0.46276 0.86801 0.0
C14 C 0.11274 0.46708 0.86948 0.0
C15 C 0.13747 0.4892 0.92642 0.0
C16 C 0.13541 0.50738 0.98137 0.0
C17 C 0.10904 0.50315 0.97968 0.0
C18 C 0.03512 0.51401 0.1227 0.0
C19 C 0.10585 0.60108 0.01369 0.0
O20 O 1.00729 0.56043 0.10838 0.0
O21 O 1.02909 0.59752 0.02571 0.0
O22 O 0.04616 0.57823 0.91697 0.0
O23 O 1.0161 0.51933 0.91798 0.0
O24 O 0.97529 0.49234 0.0241 0.0
O25 O 0.98084 0.45818 0.95729 0.0
O26 O 0.05894 0.49886 0.89288 0.0
O27 O 0.03984 0.4642 0.97889 0.0
O28 O 1.02109 0.48213 0.08581 0.0
O29 O 0.05149 0.54118 0.08501 0.0
O30 O 0.09236 0.56823 0.97913 0.0
O31 O 0.08671 0.60218 0.04653 0.0
H32 H 0.96269 0.55175 0.17021 0.0
H33 H 0.91712 0.54504 0.16813 0.0
H34 H 0.95136 0.6025 0.98191 0.0
H35 H 0.99628 0.60833 0.98299 0.0
H36 H 0.06738 0.44511 0.82407 0.0
H37 H 0.11329 0.45229 0.82674 0.0
H38 H 0.15424 0.52498 0.02556 0.0
H39 H 0.10786 0.51725 0.02267 0.0
Nd40 Nd 0.52333 0.04975 0.98772 0.0
Nd41 Nd 0.54366 1.01201 0.01064 0.0
C42 C 0.51159 0.08723 0.94475 0.0
C43 C 0.52018 0.12275 0.94923 0.0
C44 C 0.51675 0.1328 0.88778 0.0
C45 C 0.51991 0.16276 0.89067 0.0
C46 C 0.52662 0.18355 0.95525 0.0
C47 C 0.53138 0.17443 0.01668 0.0
C48 C 0.52805 0.14423 0.01375 0.0
C49 C 0.52602 0.04151 0.12688 0.0
C50 C 0.60407 0.10457 0.01274 0.0
C51 C 0.55495 0.97375 0.0516 0.0
C52 C 0.54887 0.93985 0.03804 0.0
C53 C 0.52112 0.90436 0.06224 0.0
C54 C 0.51829 0.87453 0.05756 0.0
C55 C 0.54333 0.8796 0.02934 0.0
C56 C 0.57055 0.91472 0.00347 0.0
C57 C 0.57331 0.94439 0.00792 0.0
C58 C 0.54031 1.01958 0.8712 0.0
C59 C 0.46284 0.95746 0.98874 0.0
O60 O 0.53102 0.08653 0.91368 0.0
O61 O 0.49832 0.06722 0.99775 0.0
O62 O 0.50388 0.03762 0.09715 0.0
O63 O 0.54731 0.05185 0.0847 0.0
O64 O 0.5812 0.10039 0.9829 0.0
O65 O 0.59479 0.07556 0.04061 0.0
O66 O 0.53116 0.96897 0.07396 0.0
O67 O 0.57331 1.00042 0.00981 0.0
O68 O 0.5623 1.02311 0.90038 0.0
O69 O 0.51931 1.00948 0.91392 0.0
O70 O 0.48593 0.96184 0.01797 0.0
O71 O 0.47182 0.98624 0.9606 0.0
H72 H 0.51053 0.11659 0.83743 0.0
H73 H 0.51665 0.16933 0.84218 0.0
H74 H 0.5364 0.18962 0.06736 0.0
H75 H 0.53063 0.13696 0.06207 0.0
H76 H 0.50206 0.9 0.08671 0.0
H77 H 0.49712 0.84804 0.07855 0.0
H78 H 0.59006 0.91953 0.98042 0.0
H79 H 0.59523 0.97143 0.9895 0.0
Nd80 Nd 0.49632 0.49926 0.97973 0.0
Nd81 Nd 0.56925 0.56065 0.02013 0.0
C82 C 0.43546 0.45839 0.92415 0.0
C83 C 0.41356 0.46303 0.92674 0.0
C84 C 0.38784 0.44366 0.87347 0.0
C85 C 0.36734 0.44853 0.87457 0.0
C86 C 0.37219 0.47285 0.92915 0.0
C87 C 0.3981 0.49228 0.98249 0.0
C88 C 0.41868 0.48753 0.98113 0.0
C89 C 0.51188 0.50901 0.12094 0.0
C90 C 0.53677 0.59018 0.01792 0.0
C91 C 0.6305 0.60172 0.07339 0.0
C92 C 0.65256 0.59701 0.07439 0.0
C93 C 0.64957 0.57593 0.12315 0.0
C94 C 0.67044 0.5716 0.12354 0.0
C95 C 0.69479 0.58823 0.07522 0.0
C96 C 0.69787 0.60942 0.02671 0.0
C97 C 0.67712 0.61392 0.02653 0.0
C98 C 0.5533 0.55071 0.87912 0.0
C99 C 0.52883 0.46989 0.98349 0.0
O100 O 0.46245 0.48322 0.89138 0.0
O101 O 0.44114 0.45201 0.98247 0.0
O102 O 0.48784 0.47565 0.08385 0.0
O103 O 0.5263 0.53614 0.08404 0.0
O104 O 0.51053 0.55528 0.98489 0.0
O105 O 0.56243 0.599 0.04586 0.0
O106 O 0.60415 0.57951 0.10912 0.0
O107 O 0.62423 0.60619 0.01315 0.0
O108 O 0.57706 0.58413 0.91624 0.0
O109 O 0.53922 0.52364 0.91598 0.0
O110 O 0.55452 0.50444 0.01836 0.0
O111 O 0.50378 0.46153 0.95303 0.0
H112 H 0.38364 0.42478 0.83093 0.0
H113 H 0.34743 0.43287 0.83309 0.0
H114 H 0.40277 0.5116 0.02471 0.0
H115 H 0.43871 0.50312 0.02236 0.0
H116 H 0.63104 0.56265 0.16103 0.0
H117 H 0.66726 0.55485 0.16123 0.0
H118 H 0.71671 0.6231 0.98951 0.0
H119 H 0.68037 0.63071 0.98883 0.0
C120 C 0.04996 0.57448 0.76661 0.0
C121 C 1.03227 0.54215 0.80254 0.0
C122 C 0.05031 0.57133 0.69359 0.0
C123 C 1.00443 0.50015 0.53252 0.0
H124 H 0.08591 0.58348 0.44769 0.0
C125 C 1.01723 0.48584 0.23614 0.0
C126 C 0.03501 0.5182 0.20027 0.0
C127 C 1.01685 0.48896 0.30915 0.0
C128 C 0.06279 0.56013 0.47029 0.0
H129 H 1.00125 0.48108 0.78976 0.0
H130 H 1.00197 0.47546 0.66187 0.0
H131 H 0.08552 0.58782 0.57493 0.0
H132 H 0.06615 0.57931 0.21313 0.0
H133 H 0.06536 0.58488 0.34099 0.0
H134 H 0.98169 0.47248 0.42787 0.0
C135 C 1.01529 0.50328 0.69022 0.0
C136 C 0.06256 0.56258 0.54354 0.0
C137 C 1.01498 0.50648 0.76358 0.0
C138 C 0.05235 0.55387 0.23926 0.0
C139 C 0.052 0.55705 0.31262 0.0
C140 C 1.00465 0.49771 0.45927 0.0
C141 C 0.033 0.53572 0.65413 0.0
C142 C 0.03337 0.53265 0.57583 0.0
C143 C 0.03422 0.52458 0.34867 0.0
C144 C 0.03385 0.52764 0.42697 0.0
H145 H 0.06353 0.6024 0.79497 0.0
H146 H 0.06379 0.59683 0.66798 0.0
H147 H 0.98131 0.47681 0.55513 0.0
H148 H 1.00362 0.4579 0.20775 0.0
H149 H 1.00331 0.46344 0.33473 0.0
C150 C 0.55377 0.04618 0.23465 0.0
C151 C 0.528 0.03914 0.20287 0.0
C152 C 0.5551 0.04396 0.3067 0.0
C153 C 0.50222 1.00409 0.45867 0.0
H154 H 0.58775 0.07834 0.56993 0.0
C155 C 0.51237 1.01498 0.76388 0.0
C156 C 0.53811 1.02185 0.79525 0.0
C157 C 0.51094 1.01721 0.69187 0.0
C158 C 0.56362 0.05705 0.53967 0.0
H159 H 0.48336 1.02408 0.22192 0.0
H160 H 0.48582 1.02067 0.34663 0.0
H161 H 0.58588 0.0813 0.44455 0.0
H162 H 0.58256 0.03659 0.77552 0.0
H163 H 0.5799 0.04004 0.65093 0.0
H164 H 0.47997 0.97986 0.55384 0.0
C165 C 0.50484 1.0274 0.31632 0.0
C166 C 0.56256 0.05874 0.46744 0.0
C167 C 0.50356 0.02965 0.24462 0.0
C168 C 0.56238 0.03115 0.75314 0.0
C169 C 0.561 0.03343 0.68152 0.0
C170 C 0.50328 1.00242 0.53092 0.0
C171 C 0.5306 0.03451 0.34866 0.0
C172 C 0.53185 0.0323 0.42573 0.0
C173 C 0.53529 1.02652 0.64959 0.0
C174 C 0.534 1.02883 0.5726 0.0
H175 H 0.57289 0.05337 0.20388 0.0
H176 H 0.57511 0.04919 0.32932 0.0
H177 H 0.47809 0.9828 0.42842 0.0
H178 H 0.49339 1.00793 0.79496 0.0
H179 H 0.49096 1.01211 0.66953 0.0
C180 C 0.56706 0.57826 0.76568 0.0
C181 C 0.54789 0.54568 0.80157 0.0
C182 C 0.56307 0.5742 0.69246 0.0
C183 C 0.50431 0.50387 0.53697 0.0
H184 H 0.58326 0.57582 0.43574 0.0
C185 C 0.49798 0.4814 0.23435 0.0
C186 C 0.51728 0.51401 0.19848 0.0
C187 C 0.50198 0.48544 0.30756 0.0
C188 C 0.56088 0.55574 0.46309 0.0
H189 H 0.50911 0.48315 0.7887 0.0
H190 H 0.50221 0.47592 0.66051 0.0
H191 H 0.58921 0.58192 0.56325 0.0
H192 H 0.5563 0.57654 0.21138 0.0
H193 H 0.56319 0.58373 0.33954 0.0
H194 H 0.47597 0.4777 0.43683 0.0
C195 C 0.52022 0.50472 0.68907 0.0
C196 C 0.56429 0.55922 0.53644 0.0
C197 C 0.52426 0.50882 0.76254 0.0
C198 C 0.54105 0.55086 0.23752 0.0
C199 C 0.54509 0.55494 0.31099 0.0
C200 C 0.5009 0.5004 0.46363 0.0
C201 C 0.53976 0.5374 0.65293 0.0
C202 C 0.53606 0.53336 0.57451 0.0
C203 C 0.52543 0.52223 0.34712 0.0
C204 C 0.52913 0.52626 0.42554 0.0
H205 H 0.58534 0.60708 0.79421 0.0
H206 H 0.57814 0.60002 0.66686 0.0
H207 H 0.48194 0.48379 0.56433 0.0
H208 H 0.4796 0.45259 0.2058 0.0
H209 H 0.48683 0.4596 0.33313 0.0
C210 C 0.17458 0.4894 0.99146 0.0
C211 C 0.16468 0.49231 0.92889 0.0
C212 C 0.19872 0.48996 0.99264 0.0
C213 C 0.23634 0.47093 0.87528 0.0
H214 H 0.30383 0.52426 0.0314 0.0
C215 C 0.34135 0.48233 0.86853 0.0
C216 C 0.35024 0.47782 0.93034 0.0
C217 C 0.32009 0.48609 0.86918 0.0
C218 C 0.28493 0.50887 0.98771 0.0
H219 H 0.17353 0.49979 0.81922 0.0
H220 H 0.21561 0.50083 0.82128 0.0
H221 H 0.26453 0.52761 0.03133 0.0
H222 H 0.34372 0.47374 0.04137 0.0
H223 H 0.30632 0.47986 0.04244 0.0
H224 H 0.25635 0.45179 0.83192 0.0
C225 C 0.20422 0.49732 0.86916 0.0
C226 C 0.26242 0.51084 0.98766 0.0
C227 C 0.18011 0.49675 0.86798 0.0
C228 C 0.33765 0.4776 0.99301 0.0
C229 C 0.31625 0.48118 0.99362 0.0
C230 C 0.25876 0.46888 0.8754 0.0
C231 C 0.21354 0.49345 0.93127 0.0
C232 C 0.23786 0.49191 0.93138 0.0
C233 C 0.30702 0.48525 0.93159 0.0
C234 C 0.28337 0.48783 0.93157 0.0
H235 H 0.16292 0.48548 0.03912 0.0
H236 H 0.20502 0.48648 0.04119 0.0
H237 H 0.21736 0.45539 0.8317 0.0
H238 H 0.35108 0.48329 0.81963 0.0
H239 H 0.31409 0.48994 0.8207 0.0
C240 C 0.66545 0.14741 0.04608 0.0
C241 C 0.64068 0.14196 0.0133 0.0
C242 C 0.69977 0.18171 0.04378 0.0
C243 C 0.75983 0.2845 0.00516 0.0
H244 H 0.82223 0.27929 0.9944 0.0
C245 C 0.90452 0.42374 0.02839 0.0
C246 C 0.92474 0.42335 0.98981 0.0
C247 C 0.87009 0.38982 0.03055 0.0
C248 C 0.80527 0.28147 0.99669 0.0
H249 H 0.63327 0.16914 0.95231 0.0
H250 H 0.6927 0.22835 0.94749 0.0
H251 H 0.76278 0.22046 0.99871 0.0
H252 H 0.92382 0.38625 0.92248 0.0
H253 H 0.86398 0.32751 0.92509 0.0
H254 H 0.80219 0.34536 0.00124 0.0
C255 C 0.68574 0.20641 0.97617 0.0
C256 C 0.77095 0.24752 1.00024 0.0
C257 C 0.65142 0.17215 0.97865 0.0
C258 C 0.90927 0.38789 0.95295 0.0
C259 C 0.87478 0.35395 0.95495 0.0
C260 C 0.79415 0.31845 0.00149 0.0
C261 C 0.71062 0.21181 0.00839 0.0
C262 C 0.74753 0.24834 0.00465 0.0
C263 C 0.85452 0.35419 0.99406 0.0
C264 C 0.81758 0.31764 0.99727 0.0
H265 H 0.65837 0.12503 0.07344 0.0
H266 H 0.71781 0.18465 0.07041 0.0
H267 H 0.743 0.28683 0.00926 0.0
H268 H 0.91535 0.45028 0.05788 0.0
H269 H 0.85583 0.39151 0.06222 0.0
C270 C 0.51168 0.80975 0.01254 0.0
C271 C 0.54197 0.84923 0.02924 0.0
C272 C 0.51076 0.78157 0.0122 0.0
C273 C 0.56641 0.76965 0.00609 0.0
H274 H 0.48975 0.67058 0.06816 0.0
C275 C 0.56633 0.65868 0.04723 0.0
C276 C 0.5371 0.61968 0.02276 0.0
C277 C 0.56674 0.68647 0.04921 0.0
C278 C 0.51125 0.69797 0.05007 0.0
H279 H 0.59486 0.88966 0.06091 0.0
H280 H 0.59325 0.84088 0.06112 0.0
H281 H 0.49065 0.71895 0.06901 0.0
H282 H 0.48515 0.57942 0.98217 0.0
H283 H 0.48588 0.62769 0.98595 0.0
H284 H 0.58711 0.74873 0.98782 0.0
C285 C 0.57026 0.83154 0.04636 0.0
C286 C 0.51174 0.72578 0.05037 0.0
C287 C 0.57119 0.85965 0.04633 0.0
C288 C 0.50817 0.60915 0.00131 0.0
C289 C 0.5085 0.63685 0.00385 0.0
C290 C 0.56599 0.74195 0.00621 0.0
C291 C 0.54008 0.79203 0.02898 0.0
C292 C 0.53934 0.76209 0.02836 0.0
C293 C 0.53785 0.67597 0.02736 0.0
C294 C 0.53841 0.70569 0.02815 0.0
H295 H 0.48873 0.80062 0.99847 0.0
H296 H 0.4871 0.75158 0.99756 0.0
H297 H 0.58785 0.79685 0.98741 0.0
H298 H 0.58907 0.6679 0.06416 0.0
H299 H 0.58969 0.71622 0.06838 0.0
C300 C 0.88656 0.56313 0.01296 0.0
C301 C 0.90396 0.57125 0.07571 0.0
C302 C 0.86265 0.56293 0.01361 0.0
C303 C 0.83734 0.60042 0.12257 0.0
H304 H 0.75571 0.5257 0.99786 0.0
C305 C 0.73168 0.58801 0.13955 0.0
C306 C 0.7172 0.58392 0.07586 0.0
C307 C 0.75346 0.58499 0.14009 0.0
C308 C 0.77853 0.54697 0.03258 0.0
H309 H 0.90955 0.58531 0.18849 0.0
H310 H 0.86734 0.58399 0.18979 0.0
H311 H 0.79524 0.5227 0.99808 0.0
H312 H 0.71365 0.57253 0.96285 0.0
H313 H 0.75187 0.56758 0.96377 0.0
H314 H 0.82063 0.62466 0.15708 0.0
C315 C 0.87251 0.5783 0.13988 0.0
C316 C 0.80122 0.54528 0.03268 0.0
C317 C 0.89643 0.57855 0.13922 0.0
C318 C 0.72466 0.57623 0.01277 0.0
C319 C 0.74629 0.57299 0.01333 0.0
C320 C 0.81462 0.60202 0.12263 0.0
C321 C 0.8555 0.57082 0.07704 0.0
C322 C 0.83097 0.57205 0.07759 0.0
C323 C 0.76113 0.57759 0.07699 0.0
C324 C 0.78498 0.57538 0.07754 0.0
H325 H 0.89143 0.55694 0.96317 0.0
H326 H 0.85028 0.55737 0.96415 0.0
H327 H 0.86026 0.62196 0.15692 0.0
H328 H 0.72667 0.59425 0.18903 0.0
H329 H 0.76419 0.58829 0.19006 0.0
C330 C 0.15814 0.67262 0.05078 0.0
C331 C 0.14284 0.63724 0.01394 0.0
C332 C 0.19257 0.70671 0.04873 0.0
C333 C 0.27349 0.743 0.00189 0.0
H334 H 0.30397 0.84047 0.00455 0.0
C335 C 0.4159 0.89004 0.02383 0.0
C336 C 0.42631 0.92002 0.98903 0.0
C337 C 0.38166 0.85563 0.02665 0.0
C338 C 0.29606 0.81357 0.00305 0.0
H339 H 0.1525 0.61056 0.946 0.0
H340 H 0.21195 0.6696 0.94156 0.0
H341 H 0.24467 0.78132 0.00905 0.0
H342 H 0.40811 0.93643 0.92905 0.0
H343 H 0.34882 0.87655 0.93268 0.0
H344 H 0.32476 0.7751 0.99392 0.0
C345 C 0.19758 0.67113 0.97321 0.0
C346 C 0.26181 0.77943 0.00672 0.0
C347 C 0.1632 0.63705 0.97543 0.0
C348 C 0.40129 0.91422 0.95654 0.0
C349 C 0.36705 0.87977 0.95917 0.0
C350 C 0.30773 0.77714 0.9981 0.0
C351 C 0.21295 0.70669 0.00959 0.0
C352 C 0.24982 0.74344 0.0062 0.0
C353 C 0.35653 0.84986 0.99463 0.0
C354 C 0.31971 0.81312 0.99856 0.0
H355 H 0.14348 0.67411 0.0812 0.0
H356 H 0.20322 0.73308 0.07854 0.0
H357 H 0.26569 0.71623 0.00217 0.0
H358 H 0.43425 0.89332 0.04992 0.0
H359 H 0.37496 0.83384 0.05537 0.0
C360 C 0.50294 0.40408 0.93912 0.0
C361 C 0.52853 0.44041 0.97935 0.0
C362 C 0.50282 0.37649 0.9361 0.0
C363 C 0.53654 0.34937 0.03192 0.0
H364 H 0.51367 0.28878 0.85525 0.0
C365 C 0.55123 0.24847 0.00311 0.0
C366 C 0.52729 0.21342 0.95837 0.0
C367 C 0.55162 0.27626 0.00557 0.0
C368 C 0.51969 0.30501 0.90534 0.0
H369 H 0.57418 0.47601 0.04787 0.0
H370 H 0.57391 0.42813 0.04254 0.0
H371 H 0.51331 0.33615 0.85964 0.0
H372 H 0.48433 0.17994 0.88259 0.0
H373 H 0.48469 0.22783 0.88744 0.0
H374 H 0.54258 0.31804 0.07791 0.0
C375 C 0.55373 0.42075 0.01372 0.0
C376 C 0.51952 0.3323 0.90778 0.0
C377 C 0.55398 0.44837 0.0164 0.0
C378 C 0.50358 0.20686 0.91666 0.0
C379 C 0.50383 0.23449 0.9194 0.0
C380 C 0.53653 0.32192 0.02959 0.0
C381 C 0.52816 0.38438 0.97361 0.0
C382 C 0.52799 0.35494 0.97107 0.0
C383 C 0.52791 0.26972 0.96371 0.0
C384 C 0.52813 0.29929 0.96624 0.0
H385 H 0.48292 0.39686 0.90995 0.0
H386 H 0.48254 0.3487 0.90517 0.0
H387 H 0.54274 0.36583 0.08184 0.0
H388 H 0.57008 0.25473 0.03547 0.0
H389 H 0.57089 0.30317 0.03962 0.0
loop_
_geom_bond_atom_site_label_1
_geom_bond_atom_site_label_2
_geom_bond_distance
_geom_bond_site_symmetry_2
_ccdc_geom_bond_type
Nd0 C2 2.836 1_556 S
Nd0 O20 2.500 1_556 S
Nd0 O21 2.492 . S
Nd0 O22 2.487 . S
Nd0 O23 2.682 1_655 S
Nd0 O24 2.410 . S
Nd0 O29 2.414 1_556 S
Nd0 O31 2.424 1_656 S
Nd1 C11 2.836 1_554 S
Nd1 O23 2.414 1_554 S
Nd1 O25 2.424 1_454 S
Nd1 O26 2.500 1_554 S
Nd1 O27 2.492 . S
Nd1 O28 2.487 . S
Nd1 O29 2.682 1_455 S
Nd1 O30 2.410 . S
C2 Nd0 2.836 1_554 S
C2 C3 1.498 . S
C2 O20 1.258 . S
C2 O21 1.239 1_554 S
C3 C2 1.498 . S
C3 C4 1.366 . S
C3 C8 1.407 1_554 S
C4 C3 1.366 . S
C4 C5 1.392 . S
C4 H32 0.930 . S
C5 C4 1.392 . S
C5 C6 1.398 . S
C5 H33 0.929 . S
C6 C5 1.398 . S
C6 C7 1.352 1_554 S
C7 C6 1.352 1_556 S
C7 C8 1.384 . S
C7 H34 0.930 . S
C8 C3 1.407 1_556 S
C8 C7 1.384 . S
C8 H35 0.929 . S
C9 O22 1.234 1_455 S
C9 O23 1.276 . S
C10 O24 1.251 . S
C10 O25 1.269 . S
C11 Nd1 2.836 1_556 S
C11 C12 1.498 . S
C11 O26 1.258 . S
C11 O27 1.239 1_556 S
C12 C11 1.498 . S
C12 C13 1.366 . S
C12 C17 1.407 1_556 S
C13 C12 1.366 . S
C13 C14 1.392 . S
C13 H36 0.930 . S
C14 C13 1.392 . S
C14 C15 1.398 . S
C14 H37 0.929 . S
C15 C14 1.398 . S
C15 C16 1.352 1_556 S
C16 C15 1.352 1_554 S
C16 C17 1.384 . S
C16 H38 0.930 . S
C17 C12 1.407 1_554 S
C17 C16 1.384 . S
C17 H39 0.929 . S
C18 O28 1.241 . S
C18 O29 1.273 1_455 S
C19 O30 1.251 . S
C19 O31 1.269 . S
O20 Nd0 2.500 1_554 S
O20 C2 1.258 . S
O21 Nd0 2.492 . S
O21 C2 1.239 1_556 S
O22 Nd0 2.487 . S
O22 C9 1.234 1_655 S
O23 Nd0 2.682 1_455 S
O23 Nd1 2.414 1_556 S
O23 C9 1.276 . S
O24 Nd0 2.410 . S
O24 C10 1.251 . S
O25 Nd1 2.424 1_656 S
O25 C10 1.269 . S
O26 Nd1 2.500 1_556 S
O26 C11 1.258 . S
O27 Nd1 2.492 . S
O27 C11 1.239 1_554 S
O28 Nd1 2.487 . S
O28 C18 1.241 . S
O29 Nd0 2.414 1_554 S
O29 Nd1 2.682 1_655 S
O29 C18 1.273 1_655 S
O30 Nd1 2.410 . S
O30 C19 1.251 . S
O31 Nd0 2.424 1_454 S
O31 C19 1.269 . S
H32 C4 0.930 . S
H33 C5 0.929 . S
H34 C7 0.930 . S
H35 C8 0.929 . S
H36 C13 0.930 . S
H37 C14 0.929 . S
H38 C16 0.930 . S
H39 C17 0.929 . S
Nd40 C42 2.836 . S
Nd40 O60 2.500 1_554 S
Nd40 O61 2.492 . S
Nd40 O62 2.487 . S
Nd40 O63 2.682 1_545 S
Nd40 O64 2.410 . S
Nd40 O69 2.414 1_554 S
Nd40 O71 2.424 1_545 S
Nd41 C51 2.836 . S
Nd41 O63 2.414 1_556 S
Nd41 O65 2.424 1_565 S
Nd41 O66 2.500 1_556 S
Nd41 O67 2.492 . S
Nd41 O68 2.487 . S
Nd41 O69 2.682 1_565 S
Nd41 O70 2.410 . S
C42 Nd40 2.836 . S
C42 C43 1.498 . S
C42 O60 1.258 1_554 S
C42 O61 1.239 . S
C43 C42 1.498 . S
C43 C44 1.366 1_554 S
C43 C48 1.407 . S
C44 C43 1.366 1_556 S
C44 C45 1.392 . S
C44 H72 0.930 . S
C45 C44 1.392 . S
C45 C46 1.398 1_556 S
C45 H73 0.929 . S
C46 C45 1.398 1_554 S
C46 C47 1.352 . S
C47 C46 1.352 . S
C47 C48 1.384 . S
C47 H74 0.930 . S
C48 C43 1.407 . S
C48 C47 1.384 . S
C48 H75 0.929 . S
C49 O62 1.241 . S
C49 O63 1.273 1_545 S
C50 O64 1.251 . S
C50 O65 1.268 1_554 S
C51 Nd41 2.836 . S
C51 C52 1.498 . S
C51 O66 1.258 1_556 S
C51 O67 1.239 . S
C52 C51 1.498 . S
C52 C53 1.366 1_556 S
C52 C57 1.407 . S
C53 C52 1.366 1_554 S
C53 C54 1.392 . S
C53 H76 0.930 . S
C54 C53 1.392 . S
C54 C55 1.398 1_554 S
C54 H77 0.929 . S
C55 C54 1.398 1_556 S
C55 C56 1.352 . S
C56 C55 1.352 . S
C56 C57 1.384 . S
C56 H78 0.930 . S
C57 C52 1.407 . S
C57 C56 1.384 . S
C57 H79 0.929 . S
C58 O68 1.241 . S
C58 O69 1.273 1_565 S
C59 O70 1.251 . S
C59 O71 1.268 1_556 S
O60 Nd40 2.500 1_556 S
O60 C42 1.258 1_556 S
O61 Nd40 2.492 . S
O61 C42 1.239 . S
O62 Nd40 2.487 . S
O62 C49 1.241 . S
O63 Nd40 2.682 1_565 S
O63 Nd41 2.414 1_554 S
O63 C49 1.273 1_565 S
O64 Nd40 2.410 . S
O64 C50 1.251 . S
O65 Nd41 2.424 1_545 S
O65 C50 1.268 1_556 S
O66 Nd41 2.500 1_554 S
O66 C51 1.258 1_554 S
O67 Nd41 2.492 . S
O67 C51 1.239 . S
O68 Nd41 2.487 . S
O68 C58 1.241 . S
O69 Nd40 2.414 1_556 S
O69 Nd41 2.682 1_545 S
O69 C58 1.273 1_545 S
O70 Nd41 2.410 . S
O70 C59 1.251 . S
O71 Nd40 2.424 1_565 S
O71 C59 1.268 1_554 S
H72 C44 0.930 . S
H73 C45 0.929 . S
H74 C47 0.930 . S
H75 C48 0.929 . S
H76 C53 0.930 . S
H77 C54 0.929 . S
H78 C56 0.930 . S
H79 C57 0.929 . S
Nd80 C82 2.836 1_554 S
Nd80 O100 2.500 1_554 S
Nd80 O101 2.492 . S
Nd80 O102 2.487 . S
Nd80 O103 2.682 . S
Nd80 O104 2.410 . S
Nd80 O109 2.414 1_554 S
Nd80 O111 2.425 1_554 S
Nd81 C91 2.836 1_556 S
Nd81 O103 2.414 1_556 S
Nd81 O105 2.424 1_556 S
Nd81 O106 2.500 1_556 S
Nd81 O107 2.492 . S
Nd81 O108 2.487 . S
Nd81 O109 2.682 . S
Nd81 O110 2.410 . S
C82 Nd80 2.836 1_556 S
C82 C83 1.498 . S
C82 O100 1.258 . S
C82 O101 1.239 1_556 S
C83 C82 1.498 . S
C83 C84 1.366 . S
C83 C88 1.407 1_556 S
C84 C83 1.366 . S
C84 C85 1.392 . S
C84 H112 0.930 . S
C85 C84 1.392 . S
C85 C86 1.398 . S
C85 H113 0.929 . S
C86 C85 1.398 . S
C86 C87 1.352 1_556 S
C87 C86 1.352 1_554 S
C87 C88 1.384 . S
C87 H114 0.930 . S
C88 C83 1.407 1_554 S
C88 C87 1.384 . S
C88 H115 0.929 . S
C89 O102 1.241 . S
C89 O103 1.273 . S
C90 O104 1.251 . S
C90 O105 1.268 . S
C91 Nd81 2.836 1_554 S
C91 C92 1.498 . S
C91 O106 1.258 . S
C91 O107 1.239 1_554 S
C92 C91 1.498 . S
C92 C93 1.366 . S
C92 C97 1.407 1_554 S
C93 C92 1.366 . S
C93 C94 1.392 . S
C93 H116 0.930 . S
C94 C93 1.392 . S
C94 C95 1.398 . S
C94 H117 0.929 . S
C95 C94 1.398 . S
C95 C96 1.352 1_554 S
C96 C95 1.352 1_556 S
C96 C97 1.384 . S
C96 H118 0.930 . S
C97 C92 1.407 1_556 S
C97 C96 1.384 . S
C97 H119 0.929 . S
C98 O108 1.241 . S
C98 O109 1.273 . S
C99 O110 1.251 . S
C99 O111 1.271 . S
O100 Nd80 2.500 1_556 S
O100 C82 1.258 . S
O101 Nd80 2.492 . S
O101 C82 1.239 1_554 S
O102 Nd80 2.487 . S
O102 C89 1.241 . S
O103 Nd80 2.682 . S
O103 Nd81 2.414 1_554 S
O103 C89 1.273 . S
O104 Nd80 2.410 . S
O104 C90 1.251 . S
O105 Nd81 2.424 1_554 S
O105 C90 1.268 . S
O106 Nd81 2.500 1_554 S
O106 C91 1.258 . S
O107 Nd81 2.492 . S
O107 C91 1.239 1_556 S
O108 Nd81 2.487 . S
O108 C98 1.241 . S
O109 Nd80 2.414 1_556 S
O109 Nd81 2.682 . S
O109 C98 1.273 . S
O110 Nd81 2.410 . S
O110 C99 1.251 . S
O111 Nd80 2.425 1_556 S
O111 C99 1.271 . S
H112 C84 0.930 . S
H113 C85 0.929 . S
H114 C87 0.930 . S
H115 C88 0.929 . S
H116 C93 0.930 . S
H117 C94 0.929 . S
H118 C96 0.930 . S
H119 C97 0.929 . S
C120 C121 1.349 . S
C120 C122 1.327 . S
C120 H145 0.950 . S
C121 C120 1.349 . S
C121 C137 1.349 1_455 S
C122 C120 1.327 . S
C122 C141 1.429 . S
C122 H146 0.950 . S
C123 C140 1.574 . S
C123 C142 1.368 1_655 S
C123 H147 0.949 . S
H124 C128 0.949 . S
C125 C126 1.366 . S
C125 C127 1.327 . S
C125 H148 0.950 . S
C126 C125 1.366 . S
C126 C138 1.331 1_655 S
C127 C125 1.327 . S
C127 C143 1.425 1_655 S
C127 H149 0.950 . S
C128 H124 0.949 . S
C128 C136 1.574 . S
C128 C144 1.389 . S
H129 C137 0.950 . S
H130 C135 0.950 . S
H131 C136 0.949 . S
H132 C138 0.950 . S
H133 C139 0.950 . S
H134 C140 0.949 . S
C135 H130 0.950 . S
C135 C137 1.327 . S
C135 C141 1.429 1_655 S
C136 C128 1.574 . S
C136 H131 0.949 . S
C136 C142 1.368 . S
C137 C121 1.349 1_655 S
C137 H129 0.950 . S
C137 C135 1.327 . S
C138 C126 1.331 1_455 S
C138 H132 0.950 . S
C138 C139 1.327 . S
C139 H133 0.950 . S
C139 C138 1.327 . S
C139 C143 1.432 . S
C140 C123 1.574 . S
C140 H134 0.949 . S
C140 C144 1.349 1_655 S
C141 C122 1.429 . S
C141 C135 1.429 1_455 S
C141 C142 1.523 . S
C142 C123 1.368 1_455 S
C142 C136 1.368 . S
C142 C141 1.523 . S
C143 C127 1.425 1_455 S
C143 C139 1.432 . S
C143 C144 1.522 . S
C144 C128 1.389 . S
C144 C140 1.349 1_455 S
C144 C143 1.522 . S
H145 C120 0.950 . S
H146 C122 0.950 . S
H147 C123 0.949 . S
H148 C125 0.950 . S
H149 C127 0.950 . S
C150 C151 1.349 1_565 S
C150 C152 1.327 . S
C150 H175 0.950 . S
C151 C150 1.349 1_545 S
C151 C167 1.349 . S
C152 C150 1.327 . S
C152 C171 1.429 1_565 S
C152 H176 0.950 . S
C153 C170 1.574 . S
C153 C172 1.368 . S
C153 H177 0.949 . S
H154 C158 0.949 . S
C155 C156 1.361 . S
C155 C157 1.327 . S
C155 H178 0.950 . S
C156 C155 1.361 . S
C156 C168 1.338 1_545 S
C157 C155 1.327 . S
C157 C173 1.453 . S
C157 H179 0.950 . S
C158 H154 0.949 . S
C158 C166 1.574 . S
C158 C174 1.332 1_565 S
H159 C167 0.950 . S
H160 C165 0.950 . S
H161 C166 0.949 . S
H162 C168 0.950 . S
H163 C169 0.950 . S
H164 C170 0.949 . S
C165 H160 0.950 . S
C165 C167 1.327 . S
C165 C171 1.429 . S
C166 C158 1.574 . S
C166 H161 0.949 . S
C166 C172 1.368 1_565 S
C167 C151 1.349 . S
C167 H159 0.950 . S
C167 C165 1.327 . S
C168 C156 1.338 1_565 S
C168 H162 0.950 . S
C168 C169 1.327 . S
C169 H163 0.950 . S
C169 C168 1.327 . S
C169 C173 1.400 1_565 S
C170 C153 1.574 . S
C170 H164 0.949 . S
C170 C174 1.409 . S
C171 C152 1.429 1_545 S
C171 C165 1.429 . S
C171 C172 1.523 . S
C172 C153 1.368 . S
C172 C166 1.368 1_545 S
C172 C171 1.523 . S
C173 C157 1.453 . S
C173 C169 1.400 1_545 S
C173 C174 1.522 . S
C174 C158 1.332 1_545 S
C174 C170 1.409 . S
C174 C173 1.522 . S
H175 C150 0.950 . S
H176 C152 0.950 . S
H177 C153 0.949 . S
H178 C155 0.950 . S
H179 C157 0.950 . S
C180 C181 1.349 . S
C180 C182 1.327 . S
C180 H205 0.950 . S
C181 C180 1.349 . S
C181 C197 1.349 . S
C182 C180 1.327 . S
C182 C201 1.429 . S
C182 H206 0.950 . S
C183 C200 1.574 . S
C183 C202 1.368 . S
C183 H207 0.949 . S
H184 C188 0.949 . S
C185 C186 1.349 . S
C185 C187 1.327 . S
C185 H208 0.950 . S
C186 C185 1.349 . S
C186 C198 1.349 . S
C187 C185 1.327 . S
C187 C203 1.429 . S
C187 H209 0.950 . S
C188 H184 0.949 . S
C188 C196 1.574 . S
C188 C204 1.368 . S
H189 C197 0.950 . S
H190 C195 0.950 . S
H191 C196 0.949 . S
H192 C198 0.950 . S
H193 C199 0.950 . S
H194 C200 0.949 . S
C195 H190 0.950 . S
C195 C197 1.327 . S
C195 C201 1.429 . S
C196 C188 1.574 . S
C196 H191 0.949 . S
C196 C202 1.368 . S
C197 C181 1.349 . S
C197 H189 0.950 . S
C197 C195 1.327 . S
C198 C186 1.349 . S
C198 H192 0.950 . S
C198 C199 1.327 . S
C199 H193 0.950 . S
C199 C198 1.327 . S
C199 C203 1.429 . S
C200 C183 1.574 . S
C200 H194 0.949 . S
C200 C204 1.368 . S
C201 C182 1.429 . S
C201 C195 1.429 . S
C201 C202 1.523 . S
C202 C183 1.368 . S
C202 C196 1.368 . S
C202 C201 1.523 . S
C203 C187 1.429 . S
C203 C199 1.429 . S
C203 C204 1.523 . S
C204 C188 1.368 . S
C204 C200 1.368 . S
C204 C203 1.523 . S
H205 C180 0.950 . S
H206 C182 0.950 . S
H207 C183 0.949 . S
H208 C185 0.950 . S
H209 C187 0.950 . S
C210 C211 1.349 1_554 S
C210 C212 1.327 . S
C210 H235 0.950 . S
C211 C210 1.349 1_556 S
C211 C227 1.349 . S
C212 C210 1.327 . S
C212 C231 1.429 1_554 S
C212 H236 0.950 . S
C213 C230 1.574 . S
C213 C232 1.368 . S
C213 H237 0.949 . S
H214 C218 0.949 . S
C215 C216 1.349 . S
C215 C217 1.327 . S
C215 H238 0.950 . S
C216 C215 1.349 . S
C216 C228 1.349 1_556 S
C217 C215 1.327 . S
C217 C233 1.429 . S
C217 H239 0.950 . S
C218 H214 0.949 . S
C218 C226 1.574 . S
C218 C234 1.368 1_554 S
H219 C227 0.950 . S
H220 C225 0.950 . S
H221 C226 0.949 . S
H222 C228 0.950 . S
H223 C229 0.950 . S
H224 C230 0.949 . S
C225 H220 0.950 . S
C225 C227 1.327 . S
C225 C231 1.429 . S
C226 C218 1.574 . S
C226 H221 0.949 . S
C226 C232 1.368 1_554 S
C227 C211 1.349 . S
C227 H219 0.950 . S
C227 C225 1.327 . S
C228 C216 1.349 1_554 S
C228 H222 0.950 . S
C228 C229 1.327 . S
C229 H223 0.950 . S
C229 C228 1.327 . S
C229 C233 1.429 1_554 S
C230 C213 1.574 . S
C230 H224 0.949 . S
C230 C234 1.368 . S
C231 C212 1.429 1_556 S
C231 C225 1.429 . S
C231 C232 1.523 . S
C232 C213 1.368 . S
C232 C226 1.368 1_556 S
C232 C231 1.523 . S
C233 C217 1.429 . S
C233 C229 1.429 1_556 S
C233 C234 1.523 . S
C234 C218 1.368 1_556 S
C234 C230 1.368 . S
C234 C233 1.523 . S
H235 C210 0.950 . S
H236 C212 0.950 . S
H237 C213 0.949 . S
H238 C215 0.950 . S
H239 C217 0.950 . S
C240 C241 1.350 . S
C240 C242 1.327 . S
C240 H265 0.950 . S
C241 C240 1.350 . S
C241 C257 1.348 1_554 S
C242 C240 1.327 . S
C242 C261 1.426 1_554 S
C242 H266 0.950 . S
C243 C260 1.574 . S
C243 C262 1.374 . S
C243 H267 0.949 . S
H244 C248 0.949 . S
C245 C246 1.349 . S
C245 C247 1.327 . S
C245 H268 0.950 . S
C246 C245 1.349 . S
C246 C258 1.349 1_556 S
C247 C245 1.327 . S
C247 C263 1.429 . S
C247 H269 0.950 . S
C248 H244 0.949 . S
C248 C256 1.574 . S
C248 C264 1.356 1_554 S
H249 C257 0.950 . S
H250 C255 0.950 . S
H251 C256 0.949 . S
H252 C258 0.950 . S
H253 C259 0.950 . S
H254 C260 0.949 . S
C255 H250 0.950 . S
C255 C257 1.327 . S
C255 C261 1.430 . S
C256 C248 1.574 . S
C256 H251 0.949 . S
C256 C262 1.363 1_554 S
C257 C241 1.348 1_556 S
C257 H249 0.950 . S
C257 C255 1.327 . S
C258 C246 1.349 1_554 S
C258 H252 0.950 . S
C258 C259 1.327 . S
C259 H253 0.950 . S
C259 C258 1.327 . S
C259 C263 1.429 1_554 S
C260 C243 1.574 . S
C260 H254 0.949 . S
C260 C264 1.380 . S
C261 C242 1.426 1_556 S
C261 C255 1.430 . S
C261 C262 1.522 . S
C262 C243 1.374 . S
C262 C256 1.363 1_556 S
C262 C261 1.522 . S
C263 C247 1.429 . S
C263 C259 1.429 1_556 S
C263 C264 1.525 . S
C264 C248 1.356 1_556 S
C264 C260 1.380 . S
C264 C263 1.525 . S
H265 C240 0.950 . S
H266 C242 0.950 . S
H267 C243 0.949 . S
H268 C245 0.950 . S
H269 C247 0.950 . S
C270 C271 1.349 1_554 S
C270 C272 1.327 . S
C270 H295 0.950 . S
C271 C270 1.349 1_556 S
C271 C287 1.349 . S
C272 C270 1.327 . S
C272 C291 1.429 1_554 S
C272 H296 0.950 . S
C273 C290 1.574 . S
C273 C292 1.368 . S
C273 H297 0.949 . S
H274 C278 0.949 . S
C275 C276 1.349 1_556 S
C275 C277 1.327 . S
C275 H298 0.950 . S
C276 C275 1.349 1_554 S
C276 C288 1.349 . S
C277 C275 1.327 . S
C277 C293 1.427 1_556 S
C277 H299 0.950 . S
C278 H274 0.949 . S
C278 C286 1.574 . S
C278 C294 1.360 1_554 S
H279 C287 0.950 . S
H280 C285 0.950 . S
H281 C286 0.949 . S
H282 C288 0.950 . S
H283 C289 0.950 . S
H284 C290 0.949 . S
C285 H280 0.950 . S
C285 C287 1.327 . S
C285 C291 1.429 . S
C286 C278 1.574 . S
C286 H281 0.949 . S
C286 C292 1.368 1_554 S
C287 C271 1.349 . S
C287 H279 0.950 . S
C287 C285 1.327 . S
C288 C276 1.349 . S
C288 H282 0.950 . S
C288 C289 1.327 . S
C289 H283 0.950 . S
C289 C288 1.327 . S
C289 C293 1.430 . S
C290 C273 1.574 . S
C290 H284 0.949 . S
C290 C294 1.377 . S
C291 C272 1.429 1_556 S
C291 C285 1.429 . S
C291 C292 1.523 . S
C292 C273 1.368 . S
C292 C286 1.368 1_556 S
C292 C291 1.523 . S
C293 C277 1.427 1_554 S
C293 C289 1.430 . S
C293 C294 1.522 1_554 S
C294 C278 1.360 1_556 S
C294 C290 1.377 . S
C294 C293 1.522 1_556 S
H295 C270 0.950 . S
H296 C272 0.950 . S
H297 C273 0.949 . S
H298 C275 0.950 . S
H299 C277 0.950 . S
C300 C301 1.349 1_556 S
C300 C302 1.327 . S
C300 H325 0.950 . S
C301 C300 1.349 1_554 S
C301 C317 1.349 . S
C302 C300 1.327 . S
C302 C321 1.429 1_556 S
C302 H326 0.950 . S
C303 C320 1.574 . S
C303 C322 1.368 . S
C303 H327 0.949 . S
H304 C308 0.949 . S
C305 C306 1.349 . S
C305 C307 1.327 . S
C305 H328 0.950 . S
C306 C305 1.349 . S
C306 C318 1.349 1_554 S
C307 C305 1.327 . S
C307 C323 1.429 . S
C307 H329 0.950 . S
C308 H304 0.949 . S
C308 C316 1.574 . S
C308 C324 1.368 1_556 S
H309 C317 0.950 . S
H310 C315 0.950 . S
H311 C316 0.949 . S
H312 C318 0.950 . S
H313 C319 0.950 . S
H314 C320 0.949 . S
C315 H310 0.950 . S
C315 C317 1.327 . S
C315 C321 1.429 . S
C316 C308 1.574 . S
C316 H311 0.949 . S
C316 C322 1.368 1_556 S
C317 C301 1.349 . S
C317 H309 0.950 . S
C317 C315 1.327 . S
C318 C306 1.349 1_556 S
C318 H312 0.950 . S
C318 C319 1.327 . S
C319 H313 0.950 . S
C319 C318 1.327 . S
C319 C323 1.429 1_556 S
C320 C303 1.574 . S
C320 H314 0.949 . S
C320 C324 1.368 . S
C321 C302 1.429 1_554 S
C321 C315 1.429 . S
C321 C322 1.523 . S
C322 C303 1.368 . S
C322 C316 1.368 1_554 S
C322 C321 1.523 . S
C323 C307 1.429 . S
C323 C319 1.429 1_554 S
C323 C324 1.523 . S
C324 C308 1.368 1_554 S
C324 C320 1.368 . S
C324 C323 1.523 . S
H325 C300 0.950 . S
H326 C302 0.950 . S
H327 C303 0.949 . S
H328 C305 0.950 . S
H329 C307 0.950 . S
C330 C331 1.349 1_556 S
C330 C332 1.327 . S
C330 H355 0.950 . S
C331 C330 1.349 1_554 S
C331 C347 1.349 . S
C332 C330 1.327 . S
C332 C351 1.429 1_556 S
C332 H356 0.950 . S
C333 C350 1.574 . S
C333 C352 1.368 . S
C333 H357 0.949 . S
H334 C338 0.949 . S
C335 C336 1.348 . S
C335 C337 1.327 . S
C335 H358 0.950 . S
C336 C335 1.348 . S
C336 C348 1.350 1_554 S
C337 C335 1.327 . S
C337 C353 1.433 . S
C337 H359 0.950 . S
C338 H334 0.949 . S
C338 C346 1.574 . S
C338 C354 1.360 1_556 S
H339 C347 0.950 . S
H340 C345 0.950 . S
H341 C346 0.949 . S
H342 C348 0.950 . S
H343 C349 0.950 . S
H344 C350 0.949 . S
C345 H340 0.950 . S
C345 C347 1.327 . S
C345 C351 1.429 . S
C346 C338 1.574 . S
C346 H341 0.949 . S
C346 C352 1.368 1_556 S
C347 C331 1.349 . S
C347 H339 0.950 . S
C347 C345 1.327 . S
C348 C336 1.350 1_556 S
C348 H342 0.950 . S
C348 C349 1.327 . S
C349 H343 0.950 . S
C349 C348 1.327 . S
C349 C353 1.424 1_556 S
C350 C333 1.574 . S
C350 H344 0.949 . S
C350 C354 1.377 . S
C351 C332 1.429 1_554 S
C351 C345 1.429 . S
C351 C352 1.523 . S
C352 C333 1.368 . S
C352 C346 1.368 1_554 S
C352 C351 1.523 . S
C353 C337 1.433 . S
C353 C349 1.424 1_554 S
C353 C354 1.522 . S
C354 C338 1.360 1_554 S
C354 C350 1.377 . S
C354 C353 1.522 . S
H355 C330 0.950 . S
H356 C332 0.950 . S
H357 C333 0.949 . S
H358 C335 0.950 . S
H359 C337 0.950 . S
C360 C361 1.349 . S
C360 C362 1.327 . S
C360 H385 0.950 . S
C361 C360 1.349 . S
C361 C377 1.349 1_556 S
C362 C360 1.327 . S
C362 C381 1.430 1_556 S
C362 H386 0.950 . S
C363 C380 1.574 . S
C363 C382 1.382 . S
C363 H387 0.949 . S
H364 C368 0.949 . S
C365 C366 1.349 . S
C365 C367 1.327 . S
C365 H388 0.950 . S
C366 C365 1.349 . S
C366 C378 1.349 1_554 S
C367 C365 1.327 . S
C367 C383 1.429 . S
C367 H389 0.950 . S
C368 H364 0.949 . S
C368 C376 1.574 . S
C368 C384 1.368 1_556 S
H369 C377 0.950 . S
H370 C375 0.950 . S
H371 C376 0.949 . S
H372 C378 0.950 . S
H373 C379 0.950 . S
H374 C380 0.949 . S
C375 H370 0.950 . S
C375 C377 1.327 . S
C375 C381 1.427 . S
C376 C368 1.574 . S
C376 H371 0.949 . S
C376 C382 1.356 1_556 S
C377 C361 1.349 1_554 S
C377 H369 0.950 . S
C377 C375 1.327 . S
C378 C366 1.349 1_556 S
C378 H372 0.950 . S
C378 C379 1.327 . S
C379 H373 0.950 . S
C379 C378 1.327 . S
C379 C383 1.429 1_556 S
C380 C363 1.574 . S
C380 H374 0.949 . S
C380 C384 1.368 . S
C381 C362 1.430 1_554 S
C381 C375 1.427 . S
C381 C382 1.521 . S
C382 C363 1.382 . S
C382 C376 1.356 1_554 S
C382 C381 1.521 . S
C383 C367 1.429 . S
C383 C379 1.429 1_554 S
C383 C384 1.523 . S
C384 C368 1.368 1_554 S
C384 C380 1.368 . S
C384 C383 1.523 . S
H385 C360 0.950 . S
H386 C362 0.950 . S
H387 C363 0.949 . S
H388 C365 0.950 . S
H389 C367 0.950 . S
C121 C9 1.446 . S
C126 C18 1.436 1_655 S
C151 C49 1.455 . S
C156 C58 1.451 1_545 S
C181 C98 1.444 . S
C186 C89 1.444 . S
C211 C15 0.906 . S
C216 C86 0.909 . S
C241 C50 2.589 . S
C246 C10 2.621 . S
C271 C55 1.917 . S
C276 C90 1.956 . S
C301 C6 0.906 . S
C306 C95 0.909 . S
C331 C19 2.621 . S
C336 C59 2.589 1_554 S
C361 C99 1.956 . S
C366 C46 1.917 . S
