# Generated by pormake.
# Topology xfh, (7)-cn, num edge types: 1
# Building blocks:
#     Node 0, Type 0, BuildingBlock: HICVOG_clean_sbu_0, # of connection points: 7
#     Node 1, Type 0, BuildingBlock: HICVOG_clean_sbu_0, # of connection points: 7
#     Node 2, Type 0, BuildingBlock: HICVOG_clean_sbu_0, # of connection points: 7
#     Node 3, Type 0, BuildingBlock: HICVOG_clean_sbu_0, # of connection points: 7
#     Node 4, Type 0, BuildingBlock: HICVOG_clean_sbu_0, # of connection points: 7
#     Node 5, Type 0, BuildingBlock: HICVOG_clean_sbu_0, # of connection points: 7
#     Node 6, Type 0, BuildingBlock: HICVOG_clean_sbu_0, # of connection points: 7
#     Node 7, Type 0, BuildingBlock: HICVOG_clean_sbu_0, # of connection points: 7
#     Node 8, Type 0, BuildingBlock: HICVOG_clean_sbu_0, # of connection points: 7
#     Node 9, Type 0, BuildingBlock: HICVOG_clean_sbu_0, # of connection points: 7
#     Node 10, Type 0, BuildingBlock: HICVOG_clean_sbu_0, # of connection points: 7
#     Node 11, Type 0, BuildingBlock: HICVOG_clean_sbu_0, # of connection points: 7
#     Node 12, Type 0, BuildingBlock: HICVOG_clean_sbu_0, # of connection points: 7
#     Node 13, Type 0, BuildingBlock: HICVOG_clean_sbu_0, # of connection points: 7
#     Node 14, Type 0, BuildingBlock: HICVOG_clean_sbu_0, # of connection points: 7
#     Node 15, Type 0, BuildingBlock: HICVOG_clean_sbu_0, # of connection points: 7
#     Edge 16, Type (0, 0), BuildingBlock: AJUNOK_clean_linker_0, # of connection points: 2
#     Edge 17, Type (0, 0), BuildingBlock: AJUNOK_clean_linker_0, # of connection points: 2
#     Edge 18, Type (0, 0), BuildingBlock: AJUNOK_clean_linker_0, # of connection points: 2
#     Edge 19, Type (0, 0), BuildingBlock: AJUNOK_clean_linker_0, # of connection points: 2
#     Edge 20, Type (0, 0), BuildingBlock: AJUNOK_clean_linker_0, # of connection points: 2
#     Edge 21, Type (0, 0), BuildingBlock: AJUNOK_clean_linker_0, # of connection points: 2
#     Edge 22, Type (0, 0), BuildingBlock: AJUNOK_clean_linker_0, # of connection points: 2
#     Edge 23, Type (0, 0), BuildingBlock: AJUNOK_clean_linker_0, # of connection points: 2
#     Edge 24, Type (0, 0), BuildingBlock: AJUNOK_clean_linker_0, # of connection points: 2
#     Edge 25, Type (0, 0), BuildingBlock: AJUNOK_clean_linker_0, # of connection points: 2
#     Edge 26, Type (0, 0), BuildingBlock: AJUNOK_clean_linker_0, # of connection points: 2
#     Edge 27, Type (0, 0), BuildingBlock: AJUNOK_clean_linker_0, # of connection points: 2
#     Edge 28, Type (0, 0), BuildingBlock: AJUNOK_clean_linker_0, # of connection points: 2
#     Edge 29, Type (0, 0), BuildingBlock: AJUNOK_clean_linker_0, # of connection points: 2
#     Edge 30, Type (0, 0), BuildingBlock: AJUNOK_clean_linker_0, # of connection points: 2
#     Edge 31, Type (0, 0), BuildingBlock: AJUNOK_clean_linker_0, # of connection points: 2
#     Edge 32, Type (0, 0), BuildingBlock: AJUNOK_clean_linker_0, # of connection points: 2
#     Edge 33, Type (0, 0), BuildingBlock: AJUNOK_clean_linker_0, # of connection points: 2
#     Edge 34, Type (0, 0), BuildingBlock: AJUNOK_clean_linker_0, # of connection points: 2
#     Edge 35, Type (0, 0), BuildingBlock: AJUNOK_clean_linker_0, # of connection points: 2
#     Edge 36, Type (0, 0), BuildingBlock: AJUNOK_clean_linker_0, # of connection points: 2
#     Edge 37, Type (0, 0), BuildingBlock: AJUNOK_clean_linker_0, # of connection points: 2
#     Edge 38, Type (0, 0), BuildingBlock: AJUNOK_clean_linker_0, # of connection points: 2
#     Edge 39, Type (0, 0), BuildingBlock: AJUNOK_clean_linker_0, # of connection points: 2
#     Edge 40, Type (0, 0), BuildingBlock: AJUNOK_clean_linker_0, # of connection points: 2
#     Edge 41, Type (0, 0), BuildingBlock: AJUNOK_clean_linker_0, # of connection points: 2
#     Edge 42, Type (0, 0), BuildingBlock: AJUNOK_clean_linker_0, # of connection points: 2
#     Edge 43, Type (0, 0), BuildingBlock: AJUNOK_clean_linker_0, # of connection points: 2
#     Edge 44, Type (0, 0), BuildingBlock: AJUNOK_clean_linker_0, # of connection points: 2
#     Edge 45, Type (0, 0), BuildingBlock: AJUNOK_clean_linker_0, # of connection points: 2
#     Edge 46, Type (0, 0), BuildingBlock: AJUNOK_clean_linker_0, # of connection points: 2
#     Edge 47, Type (0, 0), BuildingBlock: AJUNOK_clean_linker_0, # of connection points: 2
#     Edge 48, Type (0, 0), BuildingBlock: AJUNOK_clean_linker_0, # of connection points: 2
#     Edge 49, Type (0, 0), BuildingBlock: AJUNOK_clean_linker_0, # of connection points: 2
#     Edge 50, Type (0, 0), BuildingBlock: AJUNOK_clean_linker_0, # of connection points: 2
#     Edge 51, Type (0, 0), BuildingBlock: AJUNOK_clean_linker_0, # of connection points: 2
#     Edge 52, Type (0, 0), BuildingBlock: AJUNOK_clean_linker_0, # of connection points: 2
#     Edge 53, Type (0, 0), BuildingBlock: AJUNOK_clean_linker_0, # of connection points: 2
#     Edge 54, Type (0, 0), BuildingBlock: AJUNOK_clean_linker_0, # of connection points: 2
#     Edge 55, Type (0, 0), BuildingBlock: AJUNOK_clean_linker_0, # of connection points: 2
#     Edge 56, Type (0, 0), BuildingBlock: AJUNOK_clean_linker_0, # of connection points: 2
#     Edge 57, Type (0, 0), BuildingBlock: AJUNOK_clean_linker_0, # of connection points: 2
#     Edge 58, Type (0, 0), BuildingBlock: AJUNOK_clean_linker_0, # of connection points: 2
#     Edge 59, Type (0, 0), BuildingBlock: AJUNOK_clean_linker_0, # of connection points: 2
#     Edge 60, Type (0, 0), BuildingBlock: AJUNOK_clean_linker_0, # of connection points: 2
#     Edge 61, Type (0, 0), BuildingBlock: AJUNOK_clean_linker_0, # of connection points: 2
#     Edge 62, Type (0, 0), BuildingBlock: AJUNOK_clean_linker_0, # of connection points: 2
#     Edge 63, Type (0, 0), BuildingBlock: AJUNOK_clean_linker_0, # of connection points: 2
#     Edge 64, Type (0, 0), BuildingBlock: AJUNOK_clean_linker_0, # of connection points: 2
#     Edge 65, Type (0, 0), BuildingBlock: AJUNOK_clean_linker_0, # of connection points: 2
#     Edge 66, Type (0, 0), BuildingBlock: AJUNOK_clean_linker_0, # of connection points: 2
#     Edge 67, Type (0, 0), BuildingBlock: AJUNOK_clean_linker_0, # of connection points: 2
#     Edge 68, Type (0, 0), BuildingBlock: AJUNOK_clean_linker_0, # of connection points: 2
#     Edge 69, Type (0, 0), BuildingBlock: AJUNOK_clean_linker_0, # of connection points: 2
#     Edge 70, Type (0, 0), BuildingBlock: AJUNOK_clean_linker_0, # of connection points: 2
#     Edge 71, Type (0, 0), BuildingBlock: AJUNOK_clean_linker_0, # of connection points: 2
# Relax obj value: 0.255
# Max RMSD: 0.230
# Mean RMSD: 0.230
data_MOF--net-xfh--node1-HICVOG_clean_sbu_0--edge1-AJUNOK_clean_linker_0
_symmetry_space_group_name_H-M    P1
_symmetry_Int_Tables_number       1
_symmetry_cell_setting            triclinic
loop_
_symmetry_equiv_pos_as_xyz
'x, y, z'
_cell_length_a     22.288839
_cell_length_b     22.029474
_cell_length_c     51.415213
_cell_angle_alpha  89.83942
_cell_angle_beta   89.851138
_cell_angle_gamma 89.855723
loop_
_atom_site_label
_atom_site_type_symbol
_atom_site_fract_x
_atom_site_fract_y
_atom_site_fract_z
_atom_type_partial_charge
Zn0 Zn 0.41324 0.11235 0.09118 0.0
C1 C 0.52213 0.15574 0.03287 0.0
N2 N 0.56375 0.16251 0.05162 0.0
C3 C 0.5331 0.15447 0.07376 0.0
N4 N 0.47504 0.14427 0.06923 0.0
N5 N 0.46606 0.14945 0.04408 0.0
C6 C 0.33117 0.25523 0.00038 0.0
O7 O 0.29061 0.27434 0.01706 0.0
O8 O 0.4474 0.08716 0.1253 0.0
Zn9 Zn 0.39155 0.20349 0.04523 0.0
N10 N 0.37868 1.04313 0.07346 0.0
C11 C 0.33562 0.99399 0.03668 0.0
C12 C 0.36442 1.04386 0.04771 0.0
C13 C 0.36519 0.99458 0.08848 0.0
N14 N 0.3213 0.94569 0.05189 0.0
C15 C 0.33572 0.94474 0.07756 0.0
O16 O 0.31194 0.16348 0.06051 0.0
C17 C 0.30114 0.16216 0.08497 0.0
O18 O 0.34504 0.16852 0.10027 0.0
H19 H 0.3742 1.08299 0.03579 0.0
H20 H 0.3752 0.99606 0.10906 0.0
C21 C 0.36353 0.31181 0.07918 0.0
C22 C 0.3803 0.36349 0.09405 0.0
C23 C 0.48143 0.34805 0.08078 0.0
C24 C 0.4647 0.29783 0.06613 0.0
N25 N 0.40657 0.2794 0.06582 0.0
N26 N 0.43927 0.37924 0.09437 0.0
H27 H 0.31723 0.29727 0.0786 0.0
C28 C 0.46283 0.12905 0.1408 0.0
O29 O 0.45612 0.18591 0.13356 0.0
O30 O 0.3763 0.22586 0.00857 0.0
H31 H 0.49815 0.27353 0.05505 0.0
H32 H 0.32388 0.99413 0.01628 0.0
H33 H 0.52776 0.36243 0.08122 0.0
Zn34 Zn 0.70301 0.65081 0.29661 0.0
C35 C 0.76175 0.79642 0.32301 0.0
N36 N 0.75298 0.82695 0.3008 0.0
C37 C 0.75182 0.78325 0.28246 0.0
N38 N 0.75593 0.72679 0.29416 0.0
N39 N 0.76578 0.73681 0.31895 0.0
C40 C 0.78023 0.72169 0.39102 0.0
O41 O 0.72413 0.7144 0.38389 0.0
O42 O 0.67153 0.63103 0.26167 0.0
Zn43 Zn 0.79669 0.67435 0.34096 0.0
N44 N 0.63151 0.66629 0.31952 0.0
C45 C 0.57037 0.74366 0.33822 0.0
C46 C 0.61772 0.72603 0.32228 0.0
C47 C 0.59692 0.62272 0.33161 0.0
N48 N 0.53694 0.70093 0.35047 0.0
C49 C 0.54782 0.64054 0.34769 0.0
O50 O 0.74145 0.60542 0.35037 0.0
C51 C 0.74893 0.561 0.33514 0.0
O52 O 0.74627 0.57171 0.31072 0.0
H53 H 0.64317 0.7601 0.31202 0.0
H54 H 0.6076 0.5752 0.32896 0.0
C55 C 0.90937 0.61887 0.33878 0.0
C56 C 0.9589 0.58924 0.3279 0.0
C57 C 0.91693 0.60082 0.28607 0.0
C58 C 0.86757 0.63062 0.297 0.0
N59 N 0.86487 0.63904 0.32322 0.0
N60 N 0.96151 0.58033 0.30178 0.0
H61 H 0.90534 0.62469 0.35962 0.0
C62 C 0.70371 0.64581 0.24239 0.0
O63 O 0.75641 0.67047 0.24615 0.0
O64 O 0.82171 0.7086 0.37502 0.0
H65 H 0.8313 0.64506 0.28467 0.0
H66 H 0.55984 0.79119 0.3406 0.0
H67 H 0.91935 0.59331 0.26531 0.0
Zn68 Zn 0.25137 1.06479 0.5861 0.0
C69 C 0.14428 1.01457 0.52889 0.0
N70 N 0.10229 1.00964 0.54771 0.0
C71 C 0.13246 1.02028 0.56968 0.0
N72 N 0.19042 1.03072 0.56488 0.0
N73 N 0.20014 1.02215 0.53996 0.0
C74 C 0.34003 0.91571 0.50008 0.0
O75 O 0.38286 0.90772 0.51728 0.0
O76 O 0.21629 0.10069 0.61804 0.0
Zn77 Zn 0.27334 0.96632 0.54311 0.0
N78 N 0.29105 0.12975 0.56718 0.0
C79 C 0.3401 0.17561 0.53084 0.0
C80 C 0.30753 0.1275 0.54168 0.0
C81 C 0.30571 0.17798 0.58205 0.0
N82 N 0.35519 0.22379 0.54594 0.0
C83 C 0.33813 0.22617 0.57133 0.0
O84 O 0.35295 1.00514 0.55894 0.0
C85 C 0.36136 1.00929 0.58352 0.0
O86 O 0.31571 1.00742 0.59822 0.0
H87 H 0.29671 0.08845 0.52995 0.0
H88 H 0.29392 0.17783 0.60244 0.0
C89 C 0.29817 0.85987 0.57829 0.0
C90 C 0.28042 0.80975 0.59398 0.0
C91 C 0.17954 0.82655 0.58099 0.0
C92 C 0.19711 0.8756 0.56564 0.0
N93 N 0.25564 0.89263 0.56481 0.0
N94 N 0.2212 0.79522 0.59477 0.0
H95 H 0.34489 0.87285 0.5771 0.0
C96 C 0.2026 1.06754 0.63731 0.0
O97 O 0.20669 1.00825 0.63516 0.0
O98 O 0.29064 0.93908 0.50716 0.0
H99 H 0.16406 0.89987 0.55437 0.0
H100 H 0.35392 0.17426 0.51066 0.0
H101 H 0.13301 0.81307 0.58179 0.0
Zn102 Zn 0.86298 0.50317 0.84205 0.0
C103 C 0.89431 0.38176 0.78628 0.0
N104 N 0.88557 0.34188 0.8059 0.0
C105 C 0.87927 0.37657 0.827 0.0
N106 N 0.88474 0.43532 0.82112 0.0
N107 N 0.89635 0.44035 0.79608 0.0
C108 C 0.99562 0.57784 0.74988 0.0
O109 O 1.0048 0.62109 0.76695 0.0
O110 O 0.83996 0.47495 0.8773 0.0
Zn111 Zn 0.95069 0.51516 0.79447 0.0
N112 N 0.79535 0.54102 0.82536 0.0
C113 C 0.74069 0.57858 0.78893 0.0
C114 C 0.79113 0.54959 0.79922 0.0
C115 C 0.75215 0.56124 0.84155 0.0
N116 N 0.69672 0.59808 0.80524 0.0
C117 C 0.70121 0.58983 0.83139 0.0
O118 O 0.91228 0.59808 0.80843 0.0
C119 C 0.91389 0.61098 0.83267 0.0
O120 O 0.92459 0.56762 0.84815 0.0
H121 H 0.82729 0.53579 0.78658 0.0
H122 H 0.75848 0.55596 0.86229 0.0
C123 C 1.05915 0.54375 0.82776 0.0
C124 C 0.10843 0.52587 0.84361 0.0
C125 C 0.08796 0.42299 0.83332 0.0
C126 C 1.03934 0.44054 0.81809 0.0
N127 N 1.02487 0.50023 0.81566 0.0
N128 N 0.1208 0.46562 0.84578 0.0
H129 H 1.04791 0.59127 0.82549 0.0
C130 C 0.87998 0.45377 0.89231 0.0
O131 O 0.93578 0.451 0.88406 0.0
O132 O 0.97385 0.52766 0.75748 0.0
H133 H 1.01307 0.4065 0.80825 0.0
H134 H 0.73686 0.58622 0.76821 0.0
H135 H 0.0999 0.37568 0.83505 0.0
Zn136 Zn 0.70766 1.06811 0.89151 0.0
C137 C 0.63775 0.99809 0.9542 0.0
N138 N 0.59227 0.98316 0.93823 0.0
C139 C 0.61373 0.99411 0.91437 0.0
N140 N 0.6703 1.01385 0.9154 0.0
N141 N 0.68828 1.01125 0.93973 0.0
C142 C 0.83615 0.91855 0.97982 0.0
O143 O 0.87881 0.90919 0.96261 0.0
O144 O 0.67609 1.06148 0.85563 0.0
Zn145 Zn 0.76377 0.95961 0.93582 0.0
N146 N 0.69628 0.15014 0.90313 0.0
C147 C 0.64897 0.23061 0.92634 0.0
C148 C 0.65284 0.16909 0.91985 0.0
C149 C 0.73629 0.18969 0.89299 0.0
N150 N 0.68883 0.27049 0.91584 0.0
C151 C 0.73313 0.25106 0.8996 0.0
O152 O 0.83851 1.0017 0.91813 0.0
C153 C 0.84291 1.0346 0.89763 0.0
O154 O 0.79655 1.05726 0.88713 0.0
H155 H 0.62177 0.13701 0.92807 0.0
H156 H 0.76945 0.17342 0.87923 0.0
C157 C 0.79246 0.85336 0.90069 0.0
C158 C 0.77675 0.80102 0.886 0.0
C159 C 0.67685 0.81019 0.90177 0.0
C160 C 0.69266 0.86081 0.9164 0.0
N161 N 0.74945 0.88298 0.91527 0.0
N162 N 0.71884 0.7818 0.887 0.0
H163 H 0.83795 0.87036 0.90031 0.0
C164 C 0.69892 1.01926 0.84208 0.0
O165 O 0.73293 0.97866 0.85368 0.0
O166 O 0.78537 0.9375 0.97219 0.0
H167 H 0.6596 0.88219 0.92868 0.0
H168 H 0.61435 0.24653 0.93945 0.0
H169 H 0.63143 0.79313 0.90245 0.0
Zn170 Zn 0.45357 0.52203 0.68501 0.0
C171 C 0.40286 0.37898 0.65561 0.0
N172 N 0.4087 0.34721 0.67772 0.0
C173 C 0.40452 0.38968 0.69657 0.0
N174 N 0.3999 0.44666 0.68553 0.0
N175 N 0.39465 0.43798 0.66034 0.0
C176 C 0.38105 0.45631 0.58856 0.0
O177 O 0.43655 0.46596 0.596 0.0
O178 O 0.47629 0.54136 0.72161 0.0
Zn179 Zn 0.36257 0.50058 0.6388 0.0
N180 N 0.52866 0.50585 0.66416 0.0
C181 C 0.59436 0.42751 0.64934 0.0
C182 C 0.54542 0.44649 0.66411 0.0
C183 C 0.5617 0.54799 0.65039 0.0
N184 N 0.62603 0.46868 0.6353 0.0
C185 C 0.61195 0.52881 0.63528 0.0
O186 O 0.41798 0.56932 0.62986 0.0
C187 C 0.41118 0.61333 0.64531 0.0
O188 O 0.41318 0.60193 0.66968 0.0
H189 H 0.52067 0.41372 0.67547 0.0
H190 H 0.54873 0.59534 0.6508 0.0
C191 C 0.24494 0.54776 0.64283 0.0
C192 C 0.19494 0.57482 0.65466 0.0
C193 C 0.24469 0.5725 0.69515 0.0
C194 C 0.29451 0.54564 0.68329 0.0
N195 N 0.29377 0.53402 0.65726 0.0
N196 N 0.19609 0.58706 0.68054 0.0
H197 H 0.24588 0.53927 0.6221 0.0
C198 C 0.49159 0.59509 0.72755 0.0
O199 O 0.4959 0.6363 0.70914 0.0
O200 O 0.33853 0.46724 0.60439 0.0
H201 H 0.33369 0.53583 0.69481 0.0
H202 H 0.6072 0.38014 0.64912 0.0
H203 H 0.24505 0.58254 0.71573 0.0
Zn204 Zn 0.89569 0.20545 0.4356 0.0
C205 C 1.04224 0.15949 0.40683 0.0
N206 N 1.07162 0.16875 0.42911 0.0
C207 C 1.02885 0.16433 0.44764 0.0
N208 N 0.97354 0.15662 0.43615 0.0
N209 N 0.98389 0.15011 0.41113 0.0
C210 C 0.96995 0.13051 0.33931 0.0
O211 O 0.95676 0.18676 0.34563 0.0
O212 O 0.87666 0.22673 0.47241 0.0
Zn213 Zn 0.92492 0.11392 0.38958 0.0
N214 N 0.90823 0.28251 0.41535 0.0
C215 C 0.98254 0.35311 0.40125 0.0
C216 C 0.96596 0.30218 0.41558 0.0
C217 C 0.86527 0.31438 0.40171 0.0
N218 N 0.94058 0.38378 0.38735 0.0
C219 C 0.882 0.36664 0.38708 0.0
O220 O 0.85377 0.16579 0.37982 0.0
C221 C 0.80953 0.15859 0.395 0.0
O222 O 0.81925 0.16094 0.41952 0.0
H223 H 0.99931 0.27832 0.42685 0.0
H224 H 0.81919 0.29903 0.40189 0.0
C225 C 0.87959 0.99586 0.39279 0.0
C226 C 0.85157 0.94542 0.40395 0.0
C227 C 0.85551 0.99212 0.44519 0.0
C228 C 0.88283 1.04283 0.43395 0.0
N229 N 0.89419 1.04369 0.40789 0.0
N230 N 0.83957 0.94476 0.42987 0.0
H231 H 0.88723 0.99841 0.37201 0.0
C232 C 0.82692 0.24975 0.47943 0.0
O233 O 0.78615 0.26191 0.46175 0.0
O234 O 0.96152 0.08879 0.35597 0.0
H235 H 0.89276 1.0816 0.44591 0.0
H236 H 1.02861 0.36832 0.40134 0.0
H237 H 0.84565 0.9911 0.46579 0.0
Zn238 Zn 0.2915 0.66902 0.13986 0.0
C239 C 0.25596 0.77641 0.1998 0.0
N240 N 0.25166 0.81989 0.18135 0.0
C241 C 0.2556 0.78951 0.15889 0.0
N242 N 0.26209 0.73008 0.16297 0.0
N243 N 0.25865 0.7199 0.18816 0.0
C244 C 0.1566 0.57545 0.22895 0.0
O245 O 0.1502 0.53379 0.21094 0.0
O246 O 0.3133 0.70505 0.10518 0.0
Zn247 Zn 0.20418 0.64515 0.18669 0.0
N248 N 0.36109 0.63333 0.15641 0.0
C249 C 0.41222 0.58796 0.1923 0.0
C250 C 0.36225 0.61787 0.18209 0.0
C251 C 0.40792 0.62014 0.14068 0.0
N252 N 0.45897 0.57424 0.1764 0.0
C253 C 0.45812 0.5903 0.15087 0.0
O254 O 0.24404 0.56537 0.17113 0.0
C255 C 0.24439 0.55513 0.14667 0.0
O256 O 0.23593 0.59983 0.13161 0.0
H257 H 0.32446 0.62728 0.19459 0.0
H258 H 0.40499 0.63098 0.12017 0.0
C259 C 0.09708 0.62069 0.15177 0.0
C260 C 1.04588 0.64012 0.13744 0.0
C261 C 1.06204 0.74044 0.15276 0.0
C262 C 0.11214 0.72132 0.16666 0.0
N263 N 0.12986 0.66232 0.16578 0.0
N264 N 1.03056 0.69982 0.13853 0.0
H265 H 0.11066 0.57351 0.15159 0.0
C266 C 0.27084 0.71151 0.08894 0.0
O267 O 0.21607 0.69724 0.0962 0.0
O268 O 0.17858 0.62665 0.22287 0.0
H269 H 0.13672 0.75353 0.17826 0.0
H270 H 0.41347 0.57502 0.2126 0.0
H271 H 1.04786 0.78734 0.1535 0.0
Zn272 Zn 0.91912 0.61047 0.5904 0.0
C273 C 1.03171 0.64963 0.53315 0.0
N274 N 1.07159 0.6565 0.55261 0.0
C275 C 1.03889 0.65112 0.57428 0.0
N276 N 0.98127 0.64155 0.56877 0.0
N277 N 0.97457 0.64463 0.54339 0.0
C278 C 0.83518 0.74526 0.49978 0.0
O279 O 0.79397 0.75645 0.51746 0.0
O280 O 0.95272 0.58639 0.62487 0.0
Zn281 Zn 0.89997 0.69813 0.54331 0.0
N282 N 0.88543 0.54074 0.57299 0.0
C283 C 0.8475 0.48659 0.53642 0.0
C284 C 0.87651 0.53715 0.54681 0.0
C285 C 0.86649 0.49603 0.58899 0.0
N286 N 0.82828 0.44179 0.55259 0.0
C287 C 0.83766 0.44537 0.57864 0.0
O288 O 0.81995 0.65829 0.55857 0.0
C289 C 0.80757 0.65798 0.58291 0.0
O290 O 0.85036 0.66647 0.59858 0.0
H291 H 0.88963 0.57377 0.53411 0.0
H292 H 0.87267 0.50074 0.60976 0.0
C293 C 0.87435 0.80716 0.57721 0.0
C294 C 0.89258 0.85996 0.59089 0.0
C295 C 0.99156 0.84566 0.57479 0.0
C296 C 0.97356 0.79401 0.56142 0.0
N297 N 0.91584 0.77459 0.56307 0.0
N298 N 0.95104 0.87699 0.58919 0.0
H299 H 0.8282 0.79217 0.578 0.0
C300 C 0.96057 0.62886 0.64114 0.0
O301 O 0.9476 0.68482 0.63418 0.0
O302 O 0.88425 0.7207 0.50658 0.0
H303 H 1.00562 0.76955 0.54965 0.0
H304 H 0.83953 0.48345 0.51573 0.0
H305 H 1.0374 0.86123 0.57351 0.0
Zn306 Zn 0.20243 0.15628 0.79567 0.0
C307 C 0.28106 0.29503 0.82376 0.0
N308 N 0.27398 0.32813 0.80214 0.0
C309 C 0.26294 0.28667 0.78348 0.0
N310 N 0.25987 0.22922 0.79456 0.0
N311 N 0.27398 0.23593 0.81922 0.0
C312 C 0.2759 0.22195 0.89186 0.0
O313 O 0.22016 0.22707 0.88388 0.0
O314 O 0.16985 0.14158 0.76017 0.0
Zn315 Zn 0.29248 0.16902 0.84163 0.0
N316 N 0.13442 0.17205 0.8208 0.0
C317 C 0.09356 0.24327 0.85099 0.0
C318 C 0.13212 0.22941 0.83049 0.0
C319 C 0.0953 0.12858 0.83001 0.0
N320 N 1.05629 0.20012 0.86045 0.0
C321 C 1.05471 0.14313 0.8505 0.0
O322 O 0.23062 0.10446 0.84789 0.0
C323 C 0.24135 1.06103 0.83249 0.0
O324 O 0.24293 1.07391 0.80822 0.0
H325 H 0.16088 0.26431 0.82277 0.0
H326 H 0.09681 1.08314 0.8221 0.0
C327 C 0.39895 0.10555 0.84385 0.0
C328 C 0.45199 1.07809 0.83529 0.0
C329 C 0.42224 0.09469 0.79166 0.0
C330 C 0.37002 0.12321 0.80045 0.0
N331 N 0.36038 0.12909 0.82642 0.0
N332 N 0.46238 1.07315 0.80928 0.0
H333 H 0.38757 0.10834 0.86426 0.0
C334 C 0.20829 0.14946 0.7423 0.0
O335 O 0.26328 0.16466 0.74846 0.0
O336 O 0.31468 0.19866 0.87678 0.0
H337 H 0.33723 0.13954 0.78676 0.0
H338 H 0.09331 0.28801 0.85951 0.0
H339 H 0.4308 0.08973 0.77106 0.0
Zn340 Zn 0.7274 0.57197 0.08686 0.0
C341 C 0.62874 0.50776 0.02984 0.0
N342 N 0.58759 0.49853 0.04873 0.0
C343 C 0.61648 0.51181 0.07069 0.0
N344 N 0.67326 0.52721 0.06593 0.0
N345 N 0.68386 0.51966 0.041 0.0
C346 C 0.82624 0.41807 0.00082 0.0
O347 O 0.86769 0.4025 0.01772 0.0
O348 O 0.68942 0.60073 0.11892 0.0
Zn349 Zn 0.76069 0.46961 0.04462 0.0
N350 N 0.75024 0.645 0.06863 0.0
C351 C 0.73535 0.72092 0.03614 0.0
C352 C 0.7228 0.66358 0.04641 0.0
C353 C 0.78847 0.68208 0.08137 0.0
N354 N 0.77171 0.75901 0.04952 0.0
C355 C 0.79857 0.74075 0.07192 0.0
O356 O 0.83774 0.51489 0.05987 0.0
C357 C 0.84611 0.52466 0.08416 0.0
O358 O 0.80099 0.52765 0.09908 0.0
H359 H 0.68908 0.63583 0.03759 0.0
H360 H 0.80659 0.66776 0.09994 0.0
C361 C 0.79035 0.36295 0.08024 0.0
C362 C 0.77385 0.31084 0.09512 0.0
C363 C 0.67366 0.32255 0.08019 0.0
C364 C 0.6901 0.37307 0.06552 0.0
N365 N 0.74746 0.39379 0.06606 0.0
N366 N 0.71549 0.293 0.09457 0.0
H367 H 0.83626 0.37879 0.08018 0.0
C368 C 0.68178 0.56527 0.13799 0.0
O369 O 0.69291 0.50706 0.13511 0.0
O370 O 0.77943 0.44526 0.0086 0.0
H371 H 0.65703 0.39552 0.05361 0.0
H372 H 0.71355 0.73632 0.01853 0.0
H373 H 0.62789 0.30645 0.07989 0.0
Zn374 Zn 0.36568 0.98892 0.34077 0.0
C375 C 0.4089 0.88165 0.28209 0.0
N376 N 0.40887 0.83768 0.30041 0.0
C377 C 0.40209 0.86748 0.32289 0.0
N378 N 0.39832 0.92727 0.31888 0.0
N379 N 0.40583 0.93777 0.29392 0.0
C380 C 0.50775 1.074 0.24858 0.0
O381 O 0.53193 0.11186 0.26521 0.0
O382 O 0.34344 0.95365 0.37509 0.0
Zn383 Zn 0.45659 1.01447 0.29404 0.0
N384 N 0.2955 1.02237 0.32359 0.0
C385 C 0.24388 1.06122 0.28649 0.0
C386 C 0.29371 1.03254 0.29745 0.0
C387 C 0.24939 1.03973 0.33908 0.0
N388 N 0.19809 1.07942 0.3021 0.0
C389 C 0.19956 1.06909 0.32816 0.0
O390 O 0.41399 0.09329 0.30936 0.0
C391 C 0.4126 0.1036 0.33384 0.0
O392 O 0.42015 1.05903 0.34907 0.0
H393 H 0.33109 1.02036 0.28519 0.0
H394 H 0.25268 1.03273 0.35987 0.0
C395 C 0.56516 1.04404 0.32782 0.0
C396 C 0.61748 1.02659 0.34197 0.0
C397 C 0.60345 0.92524 0.32743 0.0
C398 C 0.55233 0.94245 0.31372 0.0
N399 N 0.53314 1.00103 0.31422 0.0
N400 N 0.63426 0.96721 0.34121 0.0
H401 H 0.54989 0.09069 0.32798 0.0
C402 C 0.38634 0.94557 0.39092 0.0
O403 O 0.44119 0.95875 0.3834 0.0
O404 O 0.47623 1.0303 0.25701 0.0
H405 H 0.52789 0.90899 0.3027 0.0
H406 H 0.24213 1.06998 0.26579 0.0
H407 H 0.61887 0.87871 0.32697 0.0
Zn408 Zn 0.26133 0.4569 0.43543 0.0
C409 C 0.11208 0.49545 0.40714 0.0
N410 N 0.08436 0.48748 0.43 0.0
C411 C 0.12807 0.49434 0.44791 0.0
N412 N 0.18249 0.50178 0.43545 0.0
N413 N 0.17048 0.50596 0.41048 0.0
C414 C 0.17959 0.5214 0.33769 0.0
O415 O 0.19687 0.46675 0.34481 0.0
O416 O 0.27942 0.43939 0.47246 0.0
Zn417 Zn 0.22281 0.54974 0.38795 0.0
N418 N 0.2522 0.37813 0.41609 0.0
C419 C 0.18114 0.3014 0.4054 0.0
C420 C 0.19618 0.35448 0.41842 0.0
C421 C 0.29506 0.34852 0.40144 0.0
N422 N 0.2229 0.27281 0.3906 0.0
C423 C 0.27991 0.29398 0.38813 0.0
O424 O 0.3019 0.51001 0.37938 0.0
C425 C 0.34535 0.513 0.39517 0.0
O426 O 0.3354 0.50489 0.41948 0.0
H427 H 0.16301 0.37689 0.43037 0.0
H428 H 0.33976 0.36724 0.39988 0.0
C429 C 0.27488 0.6655 0.39046 0.0
C430 C 0.28573 0.72373 0.40005 0.0
C431 C 0.22516 0.70288 0.43668 0.0
C432 C 0.21299 0.64534 0.42671 0.0
N433 N 0.23862 0.6275 0.40391 0.0
N434 N 0.26074 0.74127 0.42295 0.0
H435 H 0.29314 0.65117 0.37192 0.0
C436 C 0.32821 0.41566 0.48011 0.0
O437 O 0.36843 0.39916 0.46278 0.0
O438 O 0.18482 0.56484 0.35364 0.0
H439 H 0.1817 0.61643 0.43664 0.0
H440 H 0.13646 0.28281 0.4072 0.0
H441 H 0.20476 0.71769 0.45469 0.0
Zn442 Zn 0.94693 1.02151 0.18591 0.0
C443 C 0.89254 0.87868 0.15576 0.0
N444 N 0.8971 0.84663 0.17787 0.0
C445 C 0.89586 0.88906 0.19678 0.0
N446 N 0.89362 0.94627 0.18569 0.0
N447 N 0.88806 0.93807 0.16051 0.0
C448 C 0.88054 0.95812 0.08912 0.0
O449 O 0.93519 0.96669 0.09788 0.0
O450 O 0.96995 1.03434 0.22269 0.0
Zn451 Zn 0.85777 1.00206 0.13902 0.0
N452 N 1.02199 1.00656 0.16506 0.0
C453 C 0.08966 0.92956 0.15076 0.0
C454 C 1.03946 0.94744 0.16496 0.0
C455 C 1.05495 1.04942 0.15168 0.0
N456 N 0.12147 0.97145 0.13719 0.0
C457 C 0.10643 1.03133 0.1371 0.0
O458 O 0.9131 1.07211 0.13146 0.0
C459 C 0.90553 0.11555 0.14719 0.0
O460 O 0.90738 0.10328 0.17153 0.0
H461 H 1.01446 0.91411 0.17593 0.0
H462 H 1.04109 0.0965 0.15208 0.0
C463 C 0.7398 1.04873 0.14223 0.0
C464 C 0.69014 1.07685 0.15377 0.0
C465 C 0.73908 1.0754 0.1944 0.0
C466 C 0.78881 1.04772 0.18282 0.0
N467 N 0.78827 1.03508 0.15688 0.0
N468 N 0.69095 0.09012 0.17954 0.0
H469 H 0.74084 1.03962 0.12154 0.0
C470 C 0.99882 1.0804 0.23039 0.0
O471 O 1.01498 0.12206 0.21345 0.0
O472 O 0.83641 0.96984 0.104 0.0
H473 H 0.82771 1.03772 0.1945 0.0
H474 H 0.10359 0.88258 0.15071 0.0
H475 H 0.73921 1.08609 0.21492 0.0
Zn476 Zn 0.44359 0.6058 0.88845 0.0
C477 C 0.52046 0.67025 0.94953 0.0
N478 N 0.56354 0.68723 0.93254 0.0
C479 C 0.53909 0.67873 0.90912 0.0
N480 N 0.48241 0.65995 0.91144 0.0
N481 N 0.4679 0.65931 0.93626 0.0
C482 C 0.31846 0.74303 0.97911 0.0
O483 O 0.27452 0.747 0.96221 0.0
O484 O 0.48163 0.6032 0.85341 0.0
Zn485 Zn 0.39127 0.70915 0.93425 0.0
N486 N 0.44819 0.52579 0.90317 0.0
C487 C 0.48631 0.44783 0.9308 0.0
C488 C 0.48612 0.5083 0.92247 0.0
C489 C 0.41017 0.48585 0.89216 0.0
N490 N 0.449 0.40733 0.91926 0.0
C491 C 0.41042 0.42533 0.90026 0.0
O492 O 0.31649 0.66661 0.91639 0.0
C493 C 0.31083 0.64032 0.89428 0.0
O494 O 0.35646 0.62197 0.88175 0.0
H495 H 0.51613 0.54056 0.93118 0.0
H496 H 0.38158 0.50094 0.87641 0.0
C497 C 0.3619 0.81727 0.90001 0.0
C498 C 0.37755 0.871 0.88613 0.0
C499 C 0.47649 0.86275 0.90287 0.0
C500 C 0.46071 0.81074 0.91672 0.0
N501 N 0.40449 0.7875 0.91471 0.0
N502 N 0.43494 0.89138 0.88797 0.0
H503 H 0.31684 0.79932 0.8989 0.0
C504 C 0.46833 0.64445 0.83713 0.0
O505 O 0.43427 0.68989 0.8447 0.0
O506 O 0.37058 0.72864 0.97124 0.0
H507 H 0.49339 0.78899 0.92907 0.0
H508 H 0.51649 0.43307 0.94602 0.0
H509 H 0.52151 0.88063 0.90419 0.0
Zn510 Zn 0.80926 0.18059 0.63902 0.0
C511 C 0.75282 0.27434 0.70023 0.0
N512 N 0.74297 0.31765 0.68208 0.0
C513 C 0.75264 0.28984 0.65943 0.0
N514 N 0.76705 0.23168 0.66307 0.0
N515 N 0.76358 0.21935 0.68815 0.0
C516 C 0.72057 1.0646 0.73175 0.0
O517 O 0.75773 1.03297 0.71731 0.0
O518 O 0.82349 0.22134 0.60484 0.0
Zn519 Zn 0.71791 0.13969 0.68609 0.0
N520 N 0.88632 0.16081 0.65427 0.0
C521 C 0.95979 0.1693 0.68776 0.0
C522 C 0.90321 0.18308 0.67779 0.0
C523 C 0.92462 0.12653 0.64003 0.0
N524 N 0.99859 0.13609 0.67322 0.0
C525 C 0.98218 0.1145 0.64958 0.0
O526 O 0.76455 1.06661 0.66821 0.0
C527 C 0.7707 1.05832 0.64377 0.0
O528 O 0.76777 0.1036 0.62868 0.0
H529 H 0.87427 0.21307 0.68831 0.0
H530 H 0.91127 0.11129 0.62089 0.0
C531 C 0.61079 0.11073 0.65143 0.0
C532 C 0.5566 0.12763 0.63864 0.0
C533 C 0.56419 0.22566 0.65744 0.0
C534 C 0.61695 0.20892 0.67 0.0
N535 N 0.64038 0.15243 0.66666 0.0
N536 N 0.53552 0.18498 0.64216 0.0
H537 H 0.6289 1.06541 0.64923 0.0
C538 C 0.77955 0.22672 0.58932 0.0
O539 O 0.72607 0.20934 0.5971 0.0
O540 O 0.69776 0.11302 0.72251 0.0
H541 H 0.639 0.24099 0.68255 0.0
H542 H 0.97358 0.18691 0.70643 0.0
H543 H 0.54571 0.27068 0.66007 0.0
C544 C 0.3193 0.46843 0.14725 0.0
C545 C 0.27052 0.49801 0.13525 0.0
C546 C 0.35228 0.42268 0.13428 0.0
C547 C 0.33713 0.40297 0.10899 0.0
H548 H 0.33455 0.48326 0.16618 0.0
H549 H 0.39148 0.40396 0.14383 0.0
S550 S 0.21094 0.46292 0.06957 0.0
N551 N 0.20734 0.50226 0.09684 0.0
N552 N 0.26797 0.41554 0.07299 0.0
C553 C 0.28653 0.42991 0.09735 0.0
C554 C 0.25372 0.47746 0.11031 0.0
C555 C 0.43823 0.57859 0.39867 0.0
C556 C 0.40459 0.5354 0.38485 0.0
C557 C 0.48698 0.60938 0.38697 0.0
C558 C 0.5054 0.59751 0.36113 0.0
H559 H 0.42451 0.59161 0.4181 0.0
H560 H 0.50908 0.64466 0.39798 0.0
S561 S 0.43511 0.48535 0.31709 0.0
N562 N 0.39542 0.48019 0.34418 0.0
N563 N 0.48715 0.53695 0.32263 0.0
C564 C 0.47425 0.552 0.34763 0.0
C565 C 0.42395 0.5214 0.35935 0.0
C566 C 0.36766 0.7363 0.59586 0.0
C567 C 0.32307 0.76994 0.60887 0.0
C568 C 0.39826 0.68805 0.6083 0.0
C569 C 0.38648 0.67182 0.63447 0.0
H570 H 0.37627 0.7447 0.57542 0.0
H571 H 0.42985 0.6616 0.59695 0.0
S572 S 0.27769 0.74961 0.67789 0.0
N573 N 0.27122 0.78592 0.64987 0.0
N574 N 0.32963 0.69707 0.67334 0.0
C575 C 0.34461 0.70767 0.64812 0.0
C576 C 0.31266 0.75599 0.6353 0.0
C577 C 0.20827 0.59128 0.89691 0.0
C578 C 0.25081 0.62528 0.88279 0.0
C579 C 0.1593 0.56305 0.88433 0.0
C580 C 0.14972 0.56899 0.85727 0.0
H581 H 0.21535 0.58252 0.91741 0.0
H582 H 0.13035 0.53369 0.89569 0.0
S583 S 0.24569 0.65653 0.81177 0.0
N584 N 0.27823 0.6654 0.84034 0.0
N585 N 0.18581 0.6142 0.81716 0.0
C586 C 0.1898 0.60595 0.8433 0.0
C587 C 0.24027 0.63355 0.85593 0.0
C588 C 0.89869 0.6843 0.87004 0.0
C589 C 0.88695 0.66842 0.84387 0.0
C590 C 0.86665 0.73094 0.88295 0.0
C591 C 0.8205 0.7635 0.87047 0.0
H592 H 0.93153 0.65872 0.88108 0.0
H593 H 0.87554 0.73888 0.90336 0.0
S594 S 0.77423 0.74418 0.80167 0.0
N595 N 0.82841 0.69367 0.80551 0.0
N596 N 0.76685 0.77879 0.82997 0.0
C597 C 0.80985 0.74997 0.84407 0.0
C598 C 0.84342 0.70344 0.83073 0.0
C599 C 0.68372 0.61774 0.63212 0.0
C600 C 0.65195 0.57067 0.61988 0.0
C601 C 0.73167 0.64789 0.61945 0.0
C602 C 0.74949 0.63331 0.59376 0.0
H603 H 0.67403 0.62878 0.65222 0.0
H604 H 0.75657 0.6815 0.6303 0.0
S605 S 0.6774 0.51669 0.55234 0.0
N606 N 0.63993 0.51302 0.58006 0.0
N607 N 0.72792 0.57067 0.55614 0.0
C608 C 0.71564 0.58874 0.58082 0.0
C609 C 0.66771 0.5572 0.59391 0.0
C610 C 0.79367 0.43877 0.38486 0.0
C611 C 0.83897 0.40571 0.37201 0.0
C612 C 0.76269 0.48667 0.37231 0.0
C613 C 0.77474 0.50312 0.34619 0.0
H614 H 0.78473 0.43017 0.40525 0.0
H615 H 0.73044 0.51261 0.38352 0.0
S616 S 0.88616 0.42741 0.30331 0.0
N617 N 0.89237 0.39101 0.33131 0.0
N618 N 0.83315 0.47898 0.30761 0.0
C619 C 0.81757 0.46797 0.33273 0.0
C620 C 0.84993 0.42007 0.34567 0.0
C621 C 0.94198 0.5865 0.083 0.0
C622 C 0.90584 0.5426 0.09535 0.0
C623 C 0.99029 0.61447 0.09615 0.0
C624 C 1.0056 0.599 0.12202 0.0
H625 H 0.93033 0.60252 0.06372 0.0
H626 H 1.0143 0.65059 0.08635 0.0
S627 S 0.92823 0.48341 0.16239 0.0
N628 N 0.89118 0.48273 0.13461 0.0
N629 N 0.98213 0.53413 0.1588 0.0
C630 C 0.97215 0.55258 0.13395 0.0
C631 C 0.92236 0.52486 0.12078 0.0
C632 C 0.83783 0.96569 0.6447 0.0
C633 C 0.79182 0.99919 0.63256 0.0
C634 C 0.86736 0.9177 0.63169 0.0
C635 C 0.85121 0.89998 0.60627 0.0
H636 H 0.85398 0.97925 0.66366 0.0
H637 H 0.905 0.89587 0.6412 0.0
S638 S 0.73053 0.96987 0.56667 0.0
N639 N 0.72949 1.00893 0.59405 0.0
N640 N 0.78378 0.91818 0.57011 0.0
C641 C 0.80292 0.93071 0.59457 0.0
C642 C 0.77366 0.98036 0.60757 0.0
C643 C 1.0033 0.09341 0.8887 0.0
C644 C 1.00833 0.10091 0.86145 0.0
C645 C 0.9518 1.06749 0.90038 0.0
C646 C 0.9023 1.04958 0.88533 0.0
H647 H 1.03838 0.11054 0.90122 0.0
H648 H 0.94917 1.06535 0.9214 0.0
S649 S 0.89348 1.05635 0.81315 0.0
N650 N 0.96015 1.08493 0.81981 0.0
N651 N 0.86346 1.03775 0.84146 0.0
C652 C 0.90792 1.05439 0.858 0.0
C653 C 0.96075 1.07961 0.84614 0.0
C654 C 0.89485 0.19287 0.11088 0.0
C655 C 0.88058 0.17437 0.13655 0.0
C656 C 0.86413 0.241 0.09829 0.0
C657 C 0.81677 0.27223 0.1106 0.0
H658 H 0.92859 0.16821 0.09995 0.0
H659 H 0.87486 0.25098 0.07817 0.0
S660 S 0.76318 0.24477 0.17808 0.0
N661 N 0.81789 0.19487 0.17423 0.0
N662 N 0.75902 0.28289 0.15042 0.0
C663 C 0.80364 0.25589 0.13656 0.0
C664 C 0.8358 0.20788 0.14958 0.0
C665 C 0.72348 1.08338 0.39525 0.0
C666 C 0.75236 0.13354 0.3837 0.0
C667 C 0.67741 1.05158 0.38221 0.0
C668 C 0.65674 1.06919 0.35729 0.0
H669 H 0.73913 1.06607 0.41378 0.0
H670 H 0.65926 1.01123 0.39136 0.0
S671 S 0.71494 0.19962 0.31914 0.0
N672 N 0.75508 0.20056 0.34611 0.0
N673 N 0.66796 0.14212 0.32219 0.0
C674 C 0.68314 0.12112 0.34615 0.0
C675 C 0.73095 0.15276 0.35916 0.0
C676 C 0.33754 0.19027 0.3339 0.0
C677 C 0.38764 0.16136 0.34516 0.0
C678 C 0.30556 0.23624 0.34724 0.0
C679 C 0.32291 0.25662 0.37216 0.0
H680 H 0.32041 0.17453 0.31542 0.0
H681 H 0.26526 0.25435 0.33839 0.0
S682 S 0.45338 0.19893 0.40946 0.0
N683 N 0.45464 0.15883 0.38235 0.0
N684 N 0.39566 0.24574 0.40686 0.0
C685 C 0.37489 0.23054 0.38294 0.0
C686 C 0.40679 0.1829 0.36962 0.0
C687 C 0.16726 1.05695 0.09706 0.0
C688 C 0.14664 1.07382 0.12207 0.0
C689 C 0.2139 0.0886 0.08421 0.0
C690 C 0.24338 0.13778 0.09605 0.0
H691 H 0.14856 1.01733 0.08767 0.0
H692 H 0.22945 1.07188 0.06557 0.0
S693 S 0.20601 0.20191 0.16088 0.0
N694 N 0.15832 0.14518 0.15755 0.0
N695 N 0.24652 0.20335 0.13393 0.0
C696 C 0.22192 0.15639 0.12065 0.0
C697 C 0.17355 0.12492 0.13349 0.0
C698 C 0.28739 0.94041 0.88276 0.0
C699 C 0.33425 0.90851 0.87046 0.0
C700 C 0.25558 0.98714 0.86979 0.0
C701 C 0.26832 1.00367 0.84373 0.0
H702 H 0.27771 0.93188 0.9031 0.0
H703 H 0.22209 1.01222 0.88068 0.0
S704 S 0.38375 0.93012 0.80208 0.0
N705 N 0.39005 0.89481 0.83033 0.0
N706 N 0.32888 0.98 0.80567 0.0
C707 C 0.31271 0.96937 0.83075 0.0
C708 C 0.34605 0.92281 0.84418 0.0
C709 C 0.43181 1.01697 0.62182 0.0
C710 C 0.41999 1.02929 0.5953 0.0
C711 C 0.48012 1.04422 0.63515 0.0
C712 C 0.51876 1.08559 0.6227 0.0
H713 H 0.40173 0.98793 0.63277 0.0
H714 H 0.48473 1.03595 0.65583 0.0
S715 S 0.51049 0.13155 0.55328 0.0
N716 N 0.45418 1.08357 0.55684 0.0
N717 N 0.54347 0.13559 0.58197 0.0
C718 C 0.50918 0.0964 0.59598 0.0
C719 C 0.46049 1.06797 0.58226 0.0
C720 C 0.24811 0.25761 0.93638 0.0
C721 C 0.29272 0.23941 0.9186 0.0
C722 C 0.26156 0.26664 0.96268 0.0
C723 C 0.32011 0.25787 0.97208 0.0
H724 H 0.20188 0.26242 0.93025 0.0
H725 H 0.22516 0.27743 0.9759 0.0
S726 S 0.45524 0.22067 0.93272 0.0
N727 N 0.39931 0.21998 0.91177 0.0
N728 N 0.42465 0.2382 0.96098 0.0
C729 C 0.36602 0.24446 0.95414 0.0
C730 C 0.35232 0.23487 0.92744 0.0
C731 C 0.6631 0.5724 0.21061 0.0
C732 C 0.68531 0.63052 0.21605 0.0
C733 C 0.65776 0.55264 0.18491 0.0
C734 C 0.67352 0.59096 0.16409 0.0
H735 H 0.65393 0.54064 0.22625 0.0
H736 H 0.64427 0.50618 0.18138 0.0
S737 S 0.72243 0.75182 0.16887 0.0
N738 N 0.71525 0.72886 0.19928 0.0
N739 N 0.70364 0.69307 0.1508 0.0
C740 C 0.68985 0.65145 0.16946 0.0
C741 C 0.69636 0.67088 0.19558 0.0
C742 C 0.41104 0.91726 0.46264 0.0
C743 C 0.35233 0.90957 0.47203 0.0
C744 C 0.422 0.92557 0.43607 0.0
C745 C 0.37465 0.92622 0.41799 0.0
H746 H 0.44838 0.92086 0.47599 0.0
H747 H 0.46763 0.93453 0.42989 0.0
S748 S 0.21436 0.89459 0.43233 0.0
N749 N 0.2475 0.89342 0.46101 0.0
N750 N 0.26804 0.90866 0.41099 0.0
C751 C 0.31645 0.91275 0.42692 0.0
C752 C 0.30531 0.90452 0.45398 0.0
C753 C 0.99119 0.65066 0.7128 0.0
C754 C 0.999 0.59086 0.72176 0.0
C755 C 0.98185 0.66281 0.6864 0.0
C756 C 0.98018 0.61562 0.66802 0.0
H757 H 0.98869 0.68806 0.7264 0.0
H758 H 0.97317 0.70933 0.68062 0.0
S759 S 1.01162 0.45275 0.68101 0.0
N760 N 1.01395 0.48514 0.7099 0.0
N761 N 0.99678 0.50786 0.66016 0.0
C762 C 0.99344 0.55626 0.67645 0.0
C763 C 1.0027 0.54391 0.70337 0.0
C764 C 0.81164 0.93734 0.05211 0.0
C765 C 0.87034 0.93837 0.06201 0.0
C766 C 0.80098 0.9271 0.02573 0.0
C767 C 0.84855 0.91725 0.00813 0.0
H768 H 0.77356 0.94701 0.06458 0.0
H769 H 0.75504 0.92945 0.01895 0.0
S770 S 1.00985 0.90408 0.02514 0.0
N771 N 0.97618 0.92051 0.05287 0.0
N772 N 0.95603 0.90093 0.00319 0.0
C773 C 0.9071 0.91306 0.01814 0.0
C774 C 0.91802 0.92379 0.0451 0.0
C775 C 0.50819 0.56717 0.77391 0.0
C776 C 0.49582 0.61216 0.75524 0.0
C777 C 0.503 0.57931 0.80049 0.0
C778 C 0.48405 0.63662 0.8094 0.0
H779 H 0.52005 0.52155 0.76793 0.0
H780 H 0.5109 0.54243 0.81404 0.0
S781 S 0.45353 0.77225 0.76851 0.0
N782 N 0.47 0.71812 0.7475 0.0
N783 N 0.459 0.74063 0.79755 0.0
C784 C 0.47523 0.68314 0.79101 0.0
C785 C 0.48146 0.67099 0.76389 0.0
C786 C 0.84932 0.2447 0.55221 0.0
C787 C 0.79029 0.24425 0.56193 0.0
C788 C 0.86066 0.24984 0.52556 0.0
C789 C 0.81352 0.25539 0.50755 0.0
H790 H 0.88715 0.2378 0.56509 0.0
H791 H 0.90681 0.24703 0.51899 0.0
S792 S 0.6514 0.26849 0.52356 0.0
N793 N 0.68451 0.25841 0.55193 0.0
N794 N 0.70582 0.26841 0.5017 0.0
C795 C 0.75453 0.26043 0.5172 0.0
C796 C 0.74293 0.25475 0.54443 0.0
C797 C 0.16035 0.5005 0.26525 0.0
C798 C 0.14908 0.56003 0.25665 0.0
C799 C 0.16647 0.48752 0.29178 0.0
C800 C 0.1613 0.53362 0.31056 0.0
H801 H 0.1684 0.46444 0.25138 0.0
H802 H 0.17856 0.44169 0.29741 0.0
S803 S 0.11836 0.69414 0.29808 0.0
N804 N 0.12325 0.66333 0.26891 0.0
N805 N 0.13448 0.63918 0.31881 0.0
C806 C 0.14426 0.59214 0.30226 0.0
C807 C 0.13828 0.6053 0.27527 0.0
C808 C 0.74865 0.74092 0.43685 0.0
C809 C 0.79468 0.7387 0.41807 0.0
C810 C 0.76182 0.74718 0.46331 0.0
C811 C 0.82145 0.75137 0.47187 0.0
H812 H 0.70222 0.7348 0.4313 0.0
H813 H 0.72521 0.74516 0.47718 0.0
S814 S 0.95724 0.761 0.43027 0.0
N815 N 0.90164 0.75037 0.40966 0.0
N816 N 0.92612 0.7625 0.45942 0.0
C817 C 0.86744 0.7545 0.45318 0.0
C818 C 0.85413 0.74811 0.42625 0.0
C819 C 0.16407 1.06184 0.68279 0.0
C820 C 0.19238 0.09537 0.66295 0.0
C821 C 0.16458 1.08226 0.70857 0.0
C822 C 0.1944 0.13611 0.71515 0.0
H823 H 0.14388 1.01828 0.67858 0.0
H824 H 0.14545 1.05366 0.72362 0.0
S825 S 0.26777 0.24455 0.6703 0.0
N826 N 0.2445 0.18895 0.65141 0.0
N827 N 0.24661 0.22589 0.7 0.0
C828 C 0.21877 0.17216 0.69536 0.0
C829 C 0.21737 0.15218 0.66913 0.0
C830 C 0.90991 0.42034 0.93688 0.0
C831 C 0.86425 0.43505 0.91907 0.0
C832 C 0.89691 0.41054 0.96321 0.0
C833 C 0.83777 0.41495 0.97258 0.0
H834 H 0.95643 0.41911 0.93075 0.0
H835 H 0.93385 0.40286 0.97648 0.0
S836 S 0.70065 0.44075 0.93307 0.0
N837 N 0.7566 0.44569 0.91211 0.0
N838 N 0.73215 0.42601 0.96141 0.0
C839 C 0.79116 0.42438 0.95458 0.0
C840 C 0.80439 0.43481 0.92786 0.0
C841 C 0.47352 1.05552 0.17725 0.0
C842 C 0.48433 0.11378 0.16714 0.0
C843 C 0.485 1.04211 0.20332 0.0
C844 C 0.50818 1.08627 0.22028 0.0
H845 H 0.4532 1.02071 0.16534 0.0
H846 H 0.47307 0.99739 0.21044 0.0
S847 S 0.55642 0.24172 0.20184 0.0
N848 N 0.52798 0.21322 0.1749 0.0
N849 N 0.5502 0.18777 0.22404 0.0
C850 C 0.52445 0.14297 0.20982 0.0
C851 C 0.51222 0.15684 0.18322 0.0
C852 C 0.29628 0.43136 0.52604 0.0
C853 C 0.34183 0.41548 0.50827 0.0
C854 C 0.30901 0.44157 0.55224 0.0
C855 C 0.3679 0.43679 0.56171 0.0
H856 H 0.25056 0.43827 0.51954 0.0
H857 H 0.27268 0.45593 0.56485 0.0
S858 S 0.50181 0.38687 0.52427 0.0
N859 N 0.447 0.38806 0.50273 0.0
N860 N 0.4711 0.40809 0.55205 0.0
C861 C 0.41324 0.41687 0.54462 0.0
C862 C 0.40014 0.4059 0.51789 0.0
C863 C 0.99855 0.16312 0.2945 0.0
C864 C 0.98889 0.11584 0.31249 0.0
C865 C 1.0063 0.15106 0.26799 0.0
C866 C 1.0042 0.09132 0.25857 0.0
H867 H 0.99743 0.21008 0.30069 0.0
H868 H 1.01018 0.18907 0.25469 0.0
S869 S 0.99191 0.95071 0.29815 0.0
N870 N 0.98667 1.0064 0.31945 0.0
N871 N 1.00065 0.98389 0.26957 0.0
C872 C 0.99982 1.04336 0.27659 0.0
C873 C 0.99238 1.05558 0.3036 0.0
C874 C 0.23629 0.727 0.04324 0.0
C875 C 0.28295 0.7294 0.06162 0.0
C876 C 0.2476 0.73498 0.01665 0.0
C877 C 0.30604 0.74558 0.0074 0.0
H878 H 0.19088 0.71633 0.04923 0.0
H879 H 0.21064 0.72975 0.00321 0.0
S880 S 0.44192 0.76814 0.04783 0.0
N881 N 0.38844 0.75188 0.06898 0.0
N882 N 0.40969 0.76675 0.01896 0.0
C883 C 0.35233 0.75282 0.02571 0.0
C884 C 0.34079 0.74483 0.05283 0.0
C885 C 0.67184 1.08303 0.77484 0.0
C886 C 0.70898 1.04669 0.75909 0.0
C887 C 0.66561 1.07129 0.80146 0.0
C888 C 0.69648 1.0229 0.81338 0.0
H889 H 0.64894 0.12222 0.76681 0.0
H890 H 0.63838 0.1021 0.81291 0.0
S891 S 0.79223 0.90871 0.78013 0.0
N892 N 0.77175 0.9561 0.75687 0.0
N893 N 0.75999 0.93415 0.80689 0.0
C894 C 0.73028 0.98357 0.79756 0.0
C895 C 0.73667 0.99552 0.77042 0.0
C896 C 0.63142 0.09676 0.98049 0.0
C897 C 0.61557 1.03525 0.9772 0.0
C898 C 0.59762 0.13642 -0.00326 0.0
C899 C 0.54586 0.11717 0.0106 0.0
H900 H 0.66937 0.11501 0.96992 0.0
H901 H 0.61306 0.18271 -0.00107 0.0
S902 S 0.4898 0.95843 0.01162 0.0
N903 N 0.54673 0.95624 -0.00896 0.0
N904 N 0.48553 1.02936 0.02175 0.0
C905 C 0.5312 1.05517 0.00823 0.0
C906 C 0.56539 1.01492 -0.00829 0.0
C907 C 0.84646 0.78882 0.25454 0.0
C908 C 0.7849 0.80251 0.25794 0.0
C909 C 0.88292 0.82026 0.23616 0.0
C910 C 0.86072 0.86861 0.22065 0.0
H911 H 0.86727 0.75474 0.26679 0.0
H912 H 0.92917 0.80599 0.23384 0.0
S913 S 0.70186 0.9204 0.22075 0.0
N914 N 0.70349 0.86729 0.24348 0.0
N915 N 0.77075 0.92442 0.20896 0.0
C916 C 0.79905 0.88192 0.22364 0.0
C917 C 0.7619 0.84979 0.24223 0.0
C918 C 1.03564 1.06872 0.47554 0.0
C919 C 1.05115 0.13009 0.47133 0.0
C920 C 1.0691 1.03062 0.49256 0.0
C921 C 0.12093 1.05098 0.50588 0.0
H922 H 0.99857 1.04917 0.46492 0.0
H923 H 1.05359 0.98459 0.49566 0.0
S924 S 0.1802 0.20832 0.50219 0.0
N925 N 0.12216 0.20923 0.48228 0.0
N926 N 0.18354 0.13875 0.51416 0.0
C927 C 0.13653 0.11236 0.50191 0.0
C928 C 0.10228 0.15123 0.48477 0.0
C929 C 0.83649 0.26978 0.73498 0.0
C930 C 0.78589 0.29865 0.72407 0.0
C931 C 0.87485 0.30005 0.75282 0.0
C932 C 0.865 0.36086 0.76114 0.0
H933 H 0.84683 0.22338 0.72986 0.0
H934 H 0.91164 0.27437 0.76115 0.0
S935 S 0.73487 0.45507 0.74093 0.0
N936 N 0.72585 0.3911 0.72483 0.0
N937 N 0.79704 0.4463 0.75789 0.0
C938 C 0.81381 0.38951 0.75082 0.0
C939 C 0.77461 0.35885 0.73277 0.0
C940 C 0.27394 0.35532 0.74405 0.0
C941 C 0.29393 0.30354 0.75809 0.0
C942 C 0.31072 0.38606 0.72552 0.0
C943 C 0.37047 0.36786 0.72046 0.0
H944 H 0.22967 0.3735 0.74801 0.0
H945 H 0.29166 0.42371 0.71474 0.0
S946 S 0.44747 0.23839 0.75272 0.0
N947 N 0.38005 0.23877 0.7661 0.0
N948 N 0.44755 0.29435 0.73129 0.0
C949 C 0.39101 0.31647 0.73435 0.0
C950 C 0.35362 0.28523 0.75308 0.0
C951 C 0.27431 0.84738 0.23782 0.0
C952 C 0.29364 0.79694 0.22284 0.0
C953 C 0.313 0.87879 0.25517 0.0
C954 C 0.37409 0.86284 0.25808 0.0
H955 H 0.22853 0.86335 0.23586 0.0
H956 H 0.29414 0.91449 0.2671 0.0
S957 S 0.45003 0.73792 0.2223 0.0
N958 N 0.38048 0.73604 0.21132 0.0
N959 N 0.45185 0.79315 0.24394 0.0
C960 C 0.39424 0.81328 0.24294 0.0
C961 C 0.35481 0.78118 0.22539 0.0
C962 C 1.02037 0.57042 0.49704 0.0
C963 C 1.05581 0.6133 0.5101 0.0
C964 C 1.04546 0.52957 0.4787 0.0
C965 C 0.10764 0.52876 0.47212 0.0
H966 H 0.97287 0.56752 0.50124 0.0
H967 H 1.0149 0.49882 0.46909 0.0
S968 S 0.22214 0.62749 0.50247 0.0
N969 N 0.1583 0.65028 0.5156 0.0
N970 N 0.20445 0.5719 0.48248 0.0
C971 C 0.14401 0.56965 0.48579 0.0
C972 C 0.11844 0.61227 0.50412 0.0
C973 C 0.63538 0.5893 -0.0058 0.0
C974 C 0.60311 0.54268 0.00659 0.0
C975 C 0.60698 0.6321 0.97766 0.0
C976 C 0.54469 0.62994 0.97143 0.0
H977 H 0.68298 0.59389 -0.00232 0.0
H978 H 0.63516 0.66696 0.9692 0.0
S979 S 0.43993 0.51258 -0.00377 0.0
N980 N 0.50481 0.4944 0.00962 0.0
N981 N 0.45273 0.57389 0.97856 0.0
C982 C 0.51218 0.58229 0.98299 0.0
C983 C 0.54101 0.53879 6e-05 0.0
C984 C 0.33667 0.83416 0.13305 0.0
C985 C 0.27578 0.81939 0.13524 0.0
C986 C 0.35681 0.87123 0.11286 0.0
C987 C 0.31645 0.89466 0.09442 0.0
H988 H 0.36838 0.81912 0.14768 0.0
H989 H 0.40371 0.88412 0.1124 0.0
S990 S 0.15394 0.86125 0.08989 0.0
N991 N 0.17637 0.82466 0.11626 0.0
N992 N 0.2142 0.89498 0.07793 0.0
C993 C 0.25617 0.87634 0.09534 0.0
C994 C 0.23563 0.8388 0.11607 0.0
C995 C 1.05522 0.4808 0.36606 0.0
C996 C 1.07922 0.51948 0.38496 0.0
C997 C 1.01913 0.50429 0.34614 0.0
C998 C 1.00624 0.5667 0.34498 0.0
H999 H 1.06372 0.43244 0.36688 0.0
H1000 H 0.9991 0.47336 0.33236 0.0
S1001 S 1.06482 0.68673 0.38819 0.0
N1002 N 0.09153 0.62275 0.40033 0.0
N1003 N 1.02495 0.66709 0.36256 0.0
C1004 C 1.03278 0.60585 0.36299 0.0
C1005 C 1.06885 0.58206 0.3832 0.0
C1006 C 0.31163 0.30453 0.60378 0.0
C1007 C 0.35573 0.27659 0.58827 0.0
C1008 C 0.32765 0.34076 0.62486 0.0
C1009 C 0.38811 0.34991 0.63102 0.0
H1010 H 0.26449 0.29549 0.60046 0.0
H1011 H 0.29262 0.35963 0.63708 0.0
S1012 S 0.52027 0.29449 0.59435 0.0
N1013 N 0.46208 0.26601 0.57872 0.0
N1014 N 0.4922 0.33431 0.61873 0.0
C1015 C 0.43261 0.32582 0.61474 0.0
C1016 C 0.41632 0.28933 0.59307 0.0
C1017 C 0.64088 0.57733 0.87147 0.0
C1018 C 0.65425 0.61164 0.84914 0.0
C1019 C 0.60379 0.60045 0.89074 0.0
C1020 C 0.5769 0.65756 0.88796 0.0
H1021 H 0.66039 0.53277 0.87447 0.0
H1022 H 0.59695 0.57369 0.90815 0.0
S1023 S 0.59215 0.7626 0.83227 0.0
N1024 N 0.63498 0.70409 0.82457 0.0
N1025 N 0.56263 0.74698 0.86103 0.0
C1026 C 0.58743 0.69156 0.86542 0.0
C1027 C 0.62622 0.66828 0.84576 0.0
C1028 C 0.74907 0.33882 0.87034 0.0
C1029 C 0.77357 0.29396 0.88658 0.0
C1030 C 0.78501 0.36857 0.85199 0.0
C1031 C 0.84632 0.35447 0.84965 0.0
H1032 H 0.70124 0.34776 0.8705 0.0
H1033 H 0.76419 0.4004 0.83864 0.0
S1034 S 0.93298 0.24692 0.89016 0.0
N1035 N 0.86358 0.24179 0.90126 0.0
N1036 N 0.93111 0.29746 0.86636 0.0
C1037 C 0.87203 0.31272 0.86685 0.0
C1038 C 0.83563 0.28277 0.88561 0.0
C1039 C 0.11962 0.55106 0.62105 0.0
C1040 C 0.14373 0.59304 0.63864 0.0
C1041 C 0.0816 0.57021 0.60117 0.0
C1042 C 1.06681 0.63175 0.5984 0.0
H1043 H 0.13293 0.50374 0.62181 0.0
H1044 H 1.06637 0.53731 0.58702 0.0
S1045 S 0.11101 0.7578 0.64153 0.0
N1046 N 0.14462 0.69738 0.65394 0.0
N1047 N 1.07357 0.73364 0.61588 0.0
C1048 C 0.08717 0.67355 0.61676 0.0
C1049 C 0.12528 0.65392 0.63729 0.0
C1050 C 0.76754 0.89029 0.38373 0.0
C1051 C 0.82965 0.89733 0.38703 0.0
C1052 C 0.74519 0.85538 0.36327 0.0
C1053 C 0.78461 0.82604 0.34612 0.0
H1054 H 0.73628 0.91485 0.39601 0.0
H1055 H 0.69716 0.85249 0.36044 0.0
S1056 S 0.95053 0.8255 0.34825 0.0
N1057 N 0.92994 0.86938 0.37273 0.0
N1058 N 0.8877 0.80238 0.33451 0.0
C1059 C 0.84658 0.83014 0.35005 0.0
C1060 C 0.86926 0.86609 0.3706 0.0
C1061 C 0.56017 0.49091 0.11128 0.0
C1062 C 0.5836 0.53262 0.09334 0.0
C1063 C 0.5224 0.51068 0.13133 0.0
C1064 C 0.5069 0.57233 0.13348 0.0
H1065 H 0.56997 0.44295 0.10941 0.0
H1066 H 0.50268 0.47732 0.14429 0.0
S1067 S 0.56108 0.69909 0.09225 0.0
N1068 N 0.59153 0.63769 0.07939 0.0
N1069 N 0.5215 0.67523 0.11747 0.0
C1070 C 0.53233 0.61453 0.11625 0.0
C1071 C 0.5702 0.59443 0.09588 0.0
C1072 C 0.75529 0.38554 0.59864 0.0
C1073 C 0.81691 0.39771 0.59623 0.0
C1074 C 0.73394 0.3492 0.61905 0.0
C1075 C 0.77404 0.32407 0.6371 0.0
H1076 H 0.72344 0.40629 0.58545 0.0
H1077 H 0.68622 0.34118 0.62087 0.0
S1078 S 0.93945 0.3385 0.63772 0.0
N1079 N 0.91769 0.37869 0.61226 0.0
N1080 N 0.87742 0.31138 0.65089 0.0
C1081 C 0.83567 0.33444 0.63434 0.0
C1082 C 0.85727 0.37078 0.61365 0.0
C1083 C 0.53801 1.06399 0.89779 0.0
C1084 C 0.57331 1.01239 0.89369 0.0
C1085 C 0.50138 1.08645 0.87828 0.0
C1086 C 0.49589 1.05593 0.85441 0.0
H1087 H 0.53879 0.08752 0.91623 0.0
H1088 H 0.47708 0.12807 0.88216 0.0
S1089 S 0.57736 0.9166 0.83487 0.0
N1090 N 0.60119 0.93033 0.86468 0.0
N1091 N 0.52889 0.97094 0.82782 0.0
C1092 C 0.53065 1.00357 0.85015 0.0
C1093 C 0.5696 0.9816 0.87 0.0
C1094 C 0.80908 0.84774 0.12777 0.0
C1095 C 0.87112 0.85101 0.13185 0.0
C1096 C 0.78613 0.81541 0.10676 0.0
C1097 C 0.8247 0.78534 0.08944 0.0
H1098 H 0.77818 0.86867 0.14139 0.0
H1099 H 0.7379 0.8111 0.10485 0.0
S1100 S 0.99053 0.78834 0.08958 0.0
N1101 N 0.97089 0.82795 0.11552 0.0
N1102 N 0.92734 0.76555 0.076 0.0
C1103 C 0.88683 0.79093 0.09249 0.0
C1104 C 0.91026 0.82417 0.11386 0.0
C1105 C 0.12728 1.05256 0.36416 0.0
C1106 C 0.15124 0.09136 0.34508 0.0
C1107 C 0.08898 1.07495 0.38337 0.0
C1108 C 1.07373 0.13669 0.38405 0.0
H1109 H 0.13999 1.00506 0.36478 0.0
H1110 H 1.0731 1.04435 0.39843 0.0
S1111 S 0.11962 0.25564 0.33724 0.0
N1112 N 0.15323 0.19331 0.32678 0.0
N1113 N 0.08142 0.2356 0.36347 0.0
C1114 C 0.09496 0.1755 0.36453 0.0
C1115 C 0.13344 0.15257 0.34471 0.0
C1116 C 0.31161 0.82731 0.34362 0.0
C1117 C 0.37351 0.83786 0.34496 0.0
C1118 C 0.2829 0.7926 0.36257 0.0
C1119 C 0.31541 0.7679 0.38337 0.0
H1120 H 0.2857 0.84427 0.32731 0.0
H1121 H 0.23546 0.78309 0.36047 0.0
S1122 S 0.47678 0.78844 0.39714 0.0
N1123 N 0.46568 0.82528 0.36949 0.0
N1124 N 0.41107 0.75971 0.40557 0.0
C1125 C 0.3767 0.78039 0.38564 0.0
C1126 C 0.40613 0.81542 0.36617 0.0
C1127 C 0.59347 0.17764 0.11274 0.0
C1128 C 0.56355 0.13514 0.09728 0.0
C1129 C 0.6311 0.15826 0.13285 0.0
C1130 C 0.64016 0.09608 0.13748 0.0
H1131 H 0.58915 0.22573 0.10874 0.0
H1132 H 0.65595 0.19181 0.14376 0.0
S1133 S 0.56903 0.96773 0.1031 0.0
N1134 N 0.54275 1.02902 0.08841 0.0
N1135 N 0.61389 0.99247 0.12628 0.0
C1136 C 0.60841 1.05342 0.12283 0.0
C1137 C 0.57011 1.07307 0.10252 0.0
C1138 C 0.31337 0.39402 0.88117 0.0
C1139 C 0.37438 0.38144 0.88579 0.0
C1140 C 0.28205 0.36351 0.86169 0.0
C1141 C 0.31081 0.31922 0.84664 0.0
H1142 H 0.2909 0.43027 0.8916 0.0
H1143 H 0.23595 0.37615 0.8577 0.0
S1144 S 0.46873 0.26799 0.85176 0.0
N1145 N 0.46149 0.32038 0.8745 0.0
N1146 N 0.40231 0.26273 0.83779 0.0
C1147 C 0.3708 0.30425 0.85181 0.0
C1148 C 0.40263 0.33519 0.87164 0.0
C1149 C 0.0907 0.10519 0.59436 0.0
C1150 C 0.10165 1.04267 0.59263 0.0
C1151 C 1.05406 0.12828 0.61397 0.0
C1152 C 1.02726 0.08931 0.63216 0.0
H1153 H 0.10905 0.1361 0.57996 0.0
H1154 H 1.04471 0.17659 0.61434 0.0
S1155 S 1.04593 0.92282 0.63695 0.0
N1156 N 0.08611 0.94246 0.6112 0.0
N1157 N 1.01639 0.9863 0.64841 0.0
C1158 C 1.0395 1.02699 0.63124 0.0
C1159 C 1.07685 1.00339 0.61119 0.0
loop_
_geom_bond_atom_site_label_1
_geom_bond_atom_site_label_2
_geom_bond_distance
_geom_bond_site_symmetry_2
_ccdc_geom_bond_type
Zn0 N4 2.020 1_565 S
Zn0 O8 2.019 . S
Zn0 N10 2.119 . S
Zn0 O18 1.975 1_565 S
C1 N2 1.334 . S
C1 N5 1.336 . S
N2 C1 1.334 . S
N2 C3 1.334 . S
C3 N2 1.334 . S
C3 N4 1.336 . S
N4 Zn0 2.020 1_545 S
N4 C3 1.336 . S
N4 N5 1.354 . S
N5 C1 1.336 . S
N5 N4 1.354 . S
N5 Zn9 2.020 . S
C6 O7 1.244 . S
C6 O30 1.257 . S
O7 C6 1.244 . S
O8 Zn0 2.019 . S
O8 C28 1.257 . S
Zn9 N5 2.020 . S
Zn9 O16 1.975 . S
Zn9 N25 2.119 . S
Zn9 O30 2.019 . S
N10 Zn0 2.119 . S
N10 C12 1.334 . S
N10 C13 1.328 . S
C11 C12 1.391 . S
C11 N14 1.329 . S
C11 H32 0.930 . S
C12 N10 1.334 . S
C12 C11 1.391 . S
C12 H19 0.930 . S
C13 N10 1.328 . S
C13 C15 1.392 . S
C13 H20 0.930 . S
N14 C11 1.329 . S
N14 C15 1.331 . S
C15 C13 1.392 . S
C15 N14 1.331 . S
O16 Zn9 1.975 . S
O16 C17 1.252 . S
C17 O16 1.252 . S
C17 O18 1.252 . S
O18 Zn0 1.975 1_545 S
O18 C17 1.252 . S
H19 C12 0.930 . S
H20 C13 0.930 . S
C21 C22 1.392 . S
C21 N25 1.328 . S
C21 H27 0.930 . S
C22 C21 1.392 . S
C22 N26 1.331 . S
C23 C24 1.391 . S
C23 N26 1.329 . S
C23 H33 0.930 . S
C24 C23 1.391 . S
C24 N25 1.334 . S
C24 H31 0.930 . S
N25 Zn9 2.119 . S
N25 C21 1.328 . S
N25 C24 1.334 . S
N26 C22 1.331 . S
N26 C23 1.329 . S
H27 C21 0.930 . S
C28 O8 1.257 . S
C28 O29 1.244 1_565 S
O29 C28 1.244 1_545 S
O30 C6 1.257 . S
O30 Zn9 2.019 . S
H31 C24 0.930 . S
H32 C11 0.930 . S
H33 C23 0.930 . S
Zn34 N38 2.020 . S
Zn34 O42 2.019 . S
Zn34 N44 2.119 . S
Zn34 O52 1.975 . S
C35 N36 1.334 . S
C35 N39 1.336 . S
N36 C35 1.334 . S
N36 C37 1.334 . S
C37 N36 1.334 . S
C37 N38 1.336 . S
N38 Zn34 2.020 . S
N38 C37 1.336 . S
N38 N39 1.354 . S
N39 C35 1.336 . S
N39 N38 1.354 . S
N39 Zn43 2.020 . S
C40 O41 1.244 . S
C40 O64 1.257 . S
O41 C40 1.244 . S
O42 Zn34 2.019 . S
O42 C62 1.257 . S
Zn43 N39 2.020 . S
Zn43 O50 1.975 . S
Zn43 N59 2.119 . S
Zn43 O64 2.019 . S
N44 Zn34 2.119 . S
N44 C46 1.334 . S
N44 C47 1.328 . S
C45 C46 1.391 . S
C45 N48 1.329 . S
C45 H66 0.930 . S
C46 N44 1.334 . S
C46 C45 1.391 . S
C46 H53 0.930 . S
C47 N44 1.328 . S
C47 C49 1.392 . S
C47 H54 0.930 . S
N48 C45 1.329 . S
N48 C49 1.331 . S
C49 C47 1.392 . S
C49 N48 1.331 . S
O50 Zn43 1.975 . S
O50 C51 1.252 . S
C51 O50 1.252 . S
C51 O52 1.252 . S
O52 Zn34 1.975 . S
O52 C51 1.252 . S
H53 C46 0.930 . S
H54 C47 0.930 . S
C55 C56 1.392 . S
C55 N59 1.328 . S
C55 H61 0.930 . S
C56 C55 1.392 . S
C56 N60 1.331 . S
C57 C58 1.391 . S
C57 N60 1.329 . S
C57 H67 0.930 . S
C58 C57 1.391 . S
C58 N59 1.334 . S
C58 H65 0.930 . S
N59 Zn43 2.119 . S
N59 C55 1.328 . S
N59 C58 1.334 . S
N60 C56 1.331 . S
N60 C57 1.329 . S
H61 C55 0.930 . S
C62 O42 1.257 . S
C62 O63 1.244 . S
O63 C62 1.244 . S
O64 C40 1.257 . S
O64 Zn43 2.019 . S
H65 C58 0.930 . S
H66 C45 0.930 . S
H67 C57 0.930 . S
Zn68 N72 2.020 1_545 S
Zn68 O76 2.019 . S
Zn68 N78 2.119 . S
Zn68 O86 1.975 1_545 S
C69 N70 1.334 . S
C69 N73 1.336 . S
N70 C69 1.334 . S
N70 C71 1.334 . S
C71 N70 1.334 . S
C71 N72 1.336 . S
N72 Zn68 2.020 1_565 S
N72 C71 1.336 . S
N72 N73 1.354 . S
N73 C69 1.336 . S
N73 N72 1.354 . S
N73 Zn77 2.020 . S
C74 O75 1.244 . S
C74 O98 1.257 . S
O75 C74 1.244 . S
O76 Zn68 2.019 . S
O76 C96 1.257 . S
Zn77 N73 2.020 . S
Zn77 O84 1.975 . S
Zn77 N93 2.119 . S
Zn77 O98 2.019 . S
N78 Zn68 2.119 . S
N78 C80 1.334 . S
N78 C81 1.328 . S
C79 C80 1.391 . S
C79 N82 1.329 . S
C79 H100 0.930 . S
C80 N78 1.334 . S
C80 C79 1.391 . S
C80 H87 0.930 . S
C81 N78 1.328 . S
C81 C83 1.392 . S
C81 H88 0.930 . S
N82 C79 1.329 . S
N82 C83 1.331 . S
C83 C81 1.392 . S
C83 N82 1.331 . S
O84 Zn77 1.975 . S
O84 C85 1.252 . S
C85 O84 1.252 . S
C85 O86 1.252 . S
O86 Zn68 1.975 1_565 S
O86 C85 1.252 . S
H87 C80 0.930 . S
H88 C81 0.930 . S
C89 C90 1.392 . S
C89 N93 1.328 . S
C89 H95 0.930 . S
C90 C89 1.392 . S
C90 N94 1.331 . S
C91 C92 1.391 . S
C91 N94 1.329 . S
C91 H101 0.930 . S
C92 C91 1.391 . S
C92 N93 1.334 . S
C92 H99 0.930 . S
N93 Zn77 2.119 . S
N93 C89 1.328 . S
N93 C92 1.334 . S
N94 C90 1.331 . S
N94 C91 1.329 . S
H95 C89 0.930 . S
C96 O76 1.257 . S
C96 O97 1.244 1_545 S
O97 C96 1.244 1_565 S
O98 C74 1.257 . S
O98 Zn77 2.019 . S
H99 C92 0.930 . S
H100 C79 0.930 . S
H101 C91 0.930 . S
Zn102 N106 2.020 . S
Zn102 O110 2.019 . S
Zn102 N112 2.119 . S
Zn102 O120 1.975 . S
C103 N104 1.334 . S
C103 N107 1.336 . S
N104 C103 1.334 . S
N104 C105 1.334 . S
C105 N104 1.334 . S
C105 N106 1.336 . S
N106 Zn102 2.020 . S
N106 C105 1.336 . S
N106 N107 1.354 . S
N107 C103 1.336 . S
N107 N106 1.354 . S
N107 Zn111 2.020 . S
C108 O109 1.244 . S
C108 O132 1.257 . S
O109 C108 1.244 . S
O110 Zn102 2.019 . S
O110 C130 1.257 . S
Zn111 N107 2.020 . S
Zn111 O118 1.975 . S
Zn111 N127 2.119 . S
Zn111 O132 2.019 . S
N112 Zn102 2.119 . S
N112 C114 1.334 . S
N112 C115 1.328 . S
C113 C114 1.391 . S
C113 N116 1.329 . S
C113 H134 0.930 . S
C114 N112 1.334 . S
C114 C113 1.391 . S
C114 H121 0.930 . S
C115 N112 1.328 . S
C115 C117 1.392 . S
C115 H122 0.930 . S
N116 C113 1.329 . S
N116 C117 1.331 . S
C117 C115 1.392 . S
C117 N116 1.331 . S
O118 Zn111 1.975 . S
O118 C119 1.252 . S
C119 O118 1.252 . S
C119 O120 1.252 . S
O120 Zn102 1.975 . S
O120 C119 1.252 . S
H121 C114 0.930 . S
H122 C115 0.930 . S
C123 C124 1.392 . S
C123 N127 1.328 . S
C123 H129 0.930 . S
C124 C123 1.392 . S
C124 N128 1.331 1_655 S
C125 C126 1.391 . S
C125 N128 1.329 1_655 S
C125 H135 0.930 . S
C126 C125 1.391 . S
C126 N127 1.334 . S
C126 H133 0.930 . S
N127 Zn111 2.119 . S
N127 C123 1.328 . S
N127 C126 1.334 . S
N128 C124 1.331 1_455 S
N128 C125 1.329 1_455 S
H129 C123 0.930 . S
C130 O110 1.257 . S
C130 O131 1.244 . S
O131 C130 1.244 . S
O132 C108 1.257 . S
O132 Zn111 2.019 . S
H133 C126 0.930 . S
H134 C113 0.930 . S
H135 C125 0.930 . S
Zn136 N140 2.020 1_545 S
Zn136 O144 2.019 . S
Zn136 N146 2.119 . S
Zn136 O154 1.975 1_545 S
C137 N138 1.334 . S
C137 N141 1.336 . S
N138 C137 1.334 . S
N138 C139 1.334 . S
C139 N138 1.334 . S
C139 N140 1.336 . S
N140 Zn136 2.020 1_565 S
N140 C139 1.336 . S
N140 N141 1.354 . S
N141 C137 1.336 . S
N141 N140 1.354 . S
N141 Zn145 2.020 . S
C142 O143 1.244 . S
C142 O166 1.257 . S
O143 C142 1.244 . S
O144 Zn136 2.019 . S
O144 C164 1.257 . S
Zn145 N141 2.020 . S
Zn145 O152 1.975 . S
Zn145 N161 2.119 . S
Zn145 O166 2.019 . S
N146 Zn136 2.119 . S
N146 C148 1.334 . S
N146 C149 1.328 . S
C147 C148 1.391 . S
C147 N150 1.329 . S
C147 H168 0.930 . S
C148 N146 1.334 . S
C148 C147 1.391 . S
C148 H155 0.930 . S
C149 N146 1.328 . S
C149 C151 1.392 . S
C149 H156 0.930 . S
N150 C147 1.329 . S
N150 C151 1.331 . S
C151 C149 1.392 . S
C151 N150 1.331 . S
O152 Zn145 1.975 . S
O152 C153 1.252 . S
C153 O152 1.252 . S
C153 O154 1.252 . S
O154 Zn136 1.975 1_565 S
O154 C153 1.252 . S
H155 C148 0.930 . S
H156 C149 0.930 . S
C157 C158 1.392 . S
C157 N161 1.328 . S
C157 H163 0.930 . S
C158 C157 1.392 . S
C158 N162 1.331 . S
C159 C160 1.391 . S
C159 N162 1.329 . S
C159 H169 0.930 . S
C160 C159 1.391 . S
C160 N161 1.334 . S
C160 H167 0.930 . S
N161 Zn145 2.119 . S
N161 C157 1.328 . S
N161 C160 1.334 . S
N162 C158 1.331 . S
N162 C159 1.329 . S
H163 C157 0.930 . S
C164 O144 1.257 . S
C164 O165 1.244 1_545 S
O165 C164 1.244 1_565 S
O166 C142 1.257 . S
O166 Zn145 2.019 . S
H167 C160 0.930 . S
H168 C147 0.930 . S
H169 C159 0.930 . S
Zn170 N174 2.020 . S
Zn170 O178 2.019 . S
Zn170 N180 2.119 . S
Zn170 O188 1.975 . S
C171 N172 1.334 . S
C171 N175 1.336 . S
N172 C171 1.334 . S
N172 C173 1.334 . S
C173 N172 1.334 . S
C173 N174 1.336 . S
N174 Zn170 2.020 . S
N174 C173 1.336 . S
N174 N175 1.354 . S
N175 C171 1.336 . S
N175 N174 1.354 . S
N175 Zn179 2.020 . S
C176 O177 1.244 . S
C176 O200 1.257 . S
O177 C176 1.244 . S
O178 Zn170 2.019 . S
O178 C198 1.257 . S
Zn179 N175 2.020 . S
Zn179 O186 1.975 . S
Zn179 N195 2.119 . S
Zn179 O200 2.019 . S
N180 Zn170 2.119 . S
N180 C182 1.334 . S
N180 C183 1.328 . S
C181 C182 1.391 . S
C181 N184 1.329 . S
C181 H202 0.930 . S
C182 N180 1.334 . S
C182 C181 1.391 . S
C182 H189 0.930 . S
C183 N180 1.328 . S
C183 C185 1.392 . S
C183 H190 0.930 . S
N184 C181 1.329 . S
N184 C185 1.331 . S
C185 C183 1.392 . S
C185 N184 1.331 . S
O186 Zn179 1.975 . S
O186 C187 1.252 . S
C187 O186 1.252 . S
C187 O188 1.252 . S
O188 Zn170 1.975 . S
O188 C187 1.252 . S
H189 C182 0.930 . S
H190 C183 0.930 . S
C191 C192 1.392 . S
C191 N195 1.328 . S
C191 H197 0.930 . S
C192 C191 1.392 . S
C192 N196 1.331 . S
C193 C194 1.391 . S
C193 N196 1.329 . S
C193 H203 0.930 . S
C194 C193 1.391 . S
C194 N195 1.334 . S
C194 H201 0.930 . S
N195 Zn179 2.119 . S
N195 C191 1.328 . S
N195 C194 1.334 . S
N196 C192 1.331 . S
N196 C193 1.329 . S
H197 C191 0.930 . S
C198 O178 1.257 . S
C198 O199 1.244 . S
O199 C198 1.244 . S
O200 C176 1.257 . S
O200 Zn179 2.019 . S
H201 C194 0.930 . S
H202 C181 0.930 . S
H203 C193 0.930 . S
Zn204 N208 2.020 . S
Zn204 O212 2.019 . S
Zn204 N214 2.119 . S
Zn204 O222 1.975 . S
C205 N206 1.334 . S
C205 N209 1.336 . S
N206 C205 1.334 . S
N206 C207 1.334 . S
C207 N206 1.334 . S
C207 N208 1.336 . S
N208 Zn204 2.020 . S
N208 C207 1.336 . S
N208 N209 1.354 . S
N209 C205 1.336 . S
N209 N208 1.354 . S
N209 Zn213 2.020 1_545 S
C210 O211 1.244 1_565 S
C210 O234 1.257 . S
O211 C210 1.244 1_545 S
O212 Zn204 2.019 . S
O212 C232 1.257 . S
Zn213 N209 2.020 1_565 S
Zn213 O220 1.975 1_565 S
Zn213 N229 2.119 . S
Zn213 O234 2.019 . S
N214 Zn204 2.119 . S
N214 C216 1.334 . S
N214 C217 1.328 . S
C215 C216 1.391 . S
C215 N218 1.329 . S
C215 H236 0.930 . S
C216 N214 1.334 . S
C216 C215 1.391 . S
C216 H223 0.930 . S
C217 N214 1.328 . S
C217 C219 1.392 . S
C217 H224 0.930 . S
N218 C215 1.329 . S
N218 C219 1.331 . S
C219 C217 1.392 . S
C219 N218 1.331 . S
O220 Zn213 1.975 1_545 S
O220 C221 1.252 . S
C221 O220 1.252 . S
C221 O222 1.252 . S
O222 Zn204 1.975 . S
O222 C221 1.252 . S
H223 C216 0.930 . S
H224 C217 0.930 . S
C225 C226 1.392 . S
C225 N229 1.328 . S
C225 H231 0.930 . S
C226 C225 1.392 . S
C226 N230 1.331 . S
C227 C228 1.391 . S
C227 N230 1.329 . S
C227 H237 0.930 . S
C228 C227 1.391 . S
C228 N229 1.334 . S
C228 H235 0.930 . S
N229 Zn213 2.119 . S
N229 C225 1.328 . S
N229 C228 1.334 . S
N230 C226 1.331 . S
N230 C227 1.329 . S
H231 C225 0.930 . S
C232 O212 1.257 . S
C232 O233 1.244 . S
O233 C232 1.244 . S
O234 C210 1.257 . S
O234 Zn213 2.019 . S
H235 C228 0.930 . S
H236 C215 0.930 . S
H237 C227 0.930 . S
Zn238 N242 2.020 . S
Zn238 O246 2.019 . S
Zn238 N248 2.119 . S
Zn238 O256 1.975 . S
C239 N240 1.334 . S
C239 N243 1.336 . S
N240 C239 1.334 . S
N240 C241 1.334 . S
C241 N240 1.334 . S
C241 N242 1.336 . S
N242 Zn238 2.020 . S
N242 C241 1.336 . S
N242 N243 1.354 . S
N243 C239 1.336 . S
N243 N242 1.354 . S
N243 Zn247 2.020 . S
C244 O245 1.244 . S
C244 O268 1.257 . S
O245 C244 1.244 . S
O246 Zn238 2.019 . S
O246 C266 1.257 . S
Zn247 N243 2.020 . S
Zn247 O254 1.975 . S
Zn247 N263 2.119 . S
Zn247 O268 2.019 . S
N248 Zn238 2.119 . S
N248 C250 1.334 . S
N248 C251 1.328 . S
C249 C250 1.391 . S
C249 N252 1.329 . S
C249 H270 0.930 . S
C250 N248 1.334 . S
C250 C249 1.391 . S
C250 H257 0.930 . S
C251 N248 1.328 . S
C251 C253 1.392 . S
C251 H258 0.930 . S
N252 C249 1.329 . S
N252 C253 1.331 . S
C253 C251 1.392 . S
C253 N252 1.331 . S
O254 Zn247 1.975 . S
O254 C255 1.252 . S
C255 O254 1.252 . S
C255 O256 1.252 . S
O256 Zn238 1.975 . S
O256 C255 1.252 . S
H257 C250 0.930 . S
H258 C251 0.930 . S
C259 C260 1.392 . S
C259 N263 1.328 . S
C259 H265 0.930 . S
C260 C259 1.392 . S
C260 N264 1.331 1_455 S
C261 C262 1.391 . S
C261 N264 1.329 1_455 S
C261 H271 0.930 . S
C262 C261 1.391 . S
C262 N263 1.334 . S
C262 H269 0.930 . S
N263 Zn247 2.119 . S
N263 C259 1.328 . S
N263 C262 1.334 . S
N264 C260 1.331 1_655 S
N264 C261 1.329 1_655 S
H265 C259 0.930 . S
C266 O246 1.257 . S
C266 O267 1.244 . S
O267 C266 1.244 . S
O268 C244 1.257 . S
O268 Zn247 2.019 . S
H269 C262 0.930 . S
H270 C249 0.930 . S
H271 C261 0.930 . S
Zn272 N276 2.020 . S
Zn272 O280 2.019 . S
Zn272 N282 2.119 . S
Zn272 O290 1.975 . S
C273 N274 1.334 . S
C273 N277 1.336 . S
N274 C273 1.334 . S
N274 C275 1.334 . S
C275 N274 1.334 . S
C275 N276 1.336 . S
N276 Zn272 2.020 . S
N276 C275 1.336 . S
N276 N277 1.354 . S
N277 C273 1.336 . S
N277 N276 1.354 . S
N277 Zn281 2.020 . S
C278 O279 1.244 . S
C278 O302 1.257 . S
O279 C278 1.244 . S
O280 Zn272 2.019 . S
O280 C300 1.257 . S
Zn281 N277 2.020 . S
Zn281 O288 1.975 . S
Zn281 N297 2.119 . S
Zn281 O302 2.019 . S
N282 Zn272 2.119 . S
N282 C284 1.334 . S
N282 C285 1.328 . S
C283 C284 1.391 . S
C283 N286 1.329 . S
C283 H304 0.930 . S
C284 N282 1.334 . S
C284 C283 1.391 . S
C284 H291 0.930 . S
C285 N282 1.328 . S
C285 C287 1.392 . S
C285 H292 0.930 . S
N286 C283 1.329 . S
N286 C287 1.331 . S
C287 C285 1.392 . S
C287 N286 1.331 . S
O288 Zn281 1.975 . S
O288 C289 1.252 . S
C289 O288 1.252 . S
C289 O290 1.252 . S
O290 Zn272 1.975 . S
O290 C289 1.252 . S
H291 C284 0.930 . S
H292 C285 0.930 . S
C293 C294 1.392 . S
C293 N297 1.328 . S
C293 H299 0.930 . S
C294 C293 1.392 . S
C294 N298 1.331 . S
C295 C296 1.391 . S
C295 N298 1.329 . S
C295 H305 0.930 . S
C296 C295 1.391 . S
C296 N297 1.334 . S
C296 H303 0.930 . S
N297 Zn281 2.119 . S
N297 C293 1.328 . S
N297 C296 1.334 . S
N298 C294 1.331 . S
N298 C295 1.329 . S
H299 C293 0.930 . S
C300 O280 1.257 . S
C300 O301 1.244 . S
O301 C300 1.244 . S
O302 C278 1.257 . S
O302 Zn281 2.019 . S
H303 C296 0.930 . S
H304 C283 0.930 . S
H305 C295 0.930 . S
Zn306 N310 2.020 . S
Zn306 O314 2.019 . S
Zn306 N316 2.119 . S
Zn306 O324 1.975 . S
C307 N308 1.334 . S
C307 N311 1.336 . S
N308 C307 1.334 . S
N308 C309 1.334 . S
C309 N308 1.334 . S
C309 N310 1.336 . S
N310 Zn306 2.020 . S
N310 C309 1.336 . S
N310 N311 1.354 . S
N311 C307 1.336 . S
N311 N310 1.354 . S
N311 Zn315 2.020 . S
C312 O313 1.244 . S
C312 O336 1.257 . S
O313 C312 1.244 . S
O314 Zn306 2.019 . S
O314 C334 1.257 . S
Zn315 N311 2.020 . S
Zn315 O322 1.975 . S
Zn315 N331 2.119 . S
Zn315 O336 2.019 . S
N316 Zn306 2.119 . S
N316 C318 1.334 . S
N316 C319 1.328 . S
C317 C318 1.391 . S
C317 N320 1.329 1_455 S
C317 H338 0.930 . S
C318 N316 1.334 . S
C318 C317 1.391 . S
C318 H325 0.930 . S
C319 N316 1.328 . S
C319 C321 1.392 . S
C319 H326 0.930 . S
N320 C317 1.329 1_655 S
N320 C321 1.331 1_655 S
C321 C319 1.392 . S
C321 N320 1.331 1_455 S
O322 Zn315 1.975 . S
O322 C323 1.252 1_545 S
C323 O322 1.252 1_565 S
C323 O324 1.252 1_565 S
O324 Zn306 1.975 . S
O324 C323 1.252 1_545 S
H325 C318 0.930 . S
H326 C319 0.930 . S
C327 C328 1.392 . S
C327 N331 1.328 . S
C327 H333 0.930 . S
C328 C327 1.392 . S
C328 N332 1.331 . S
C329 C330 1.391 . S
C329 N332 1.329 . S
C329 H339 0.930 . S
C330 C329 1.391 . S
C330 N331 1.334 . S
C330 H337 0.930 . S
N331 Zn315 2.119 . S
N331 C327 1.328 . S
N331 C330 1.334 . S
N332 C328 1.331 . S
N332 C329 1.329 . S
H333 C327 0.930 . S
C334 O314 1.257 . S
C334 O335 1.244 . S
O335 C334 1.244 . S
O336 C312 1.257 . S
O336 Zn315 2.019 . S
H337 C330 0.930 . S
H338 C317 0.930 . S
H339 C329 0.930 . S
Zn340 N344 2.020 . S
Zn340 O348 2.019 . S
Zn340 N350 2.119 . S
Zn340 O358 1.975 . S
C341 N342 1.334 . S
C341 N345 1.336 . S
N342 C341 1.334 . S
N342 C343 1.334 . S
C343 N342 1.334 . S
C343 N344 1.336 . S
N344 Zn340 2.020 . S
N344 C343 1.336 . S
N344 N345 1.354 . S
N345 C341 1.336 . S
N345 N344 1.354 . S
N345 Zn349 2.020 . S
C346 O347 1.244 . S
C346 O370 1.257 . S
O347 C346 1.244 . S
O348 Zn340 2.019 . S
O348 C368 1.257 . S
Zn349 N345 2.020 . S
Zn349 O356 1.975 . S
Zn349 N365 2.119 . S
Zn349 O370 2.019 . S
N350 Zn340 2.119 . S
N350 C352 1.334 . S
N350 C353 1.328 . S
C351 C352 1.391 . S
C351 N354 1.329 . S
C351 H372 0.930 . S
C352 N350 1.334 . S
C352 C351 1.391 . S
C352 H359 0.930 . S
C353 N350 1.328 . S
C353 C355 1.392 . S
C353 H360 0.930 . S
N354 C351 1.329 . S
N354 C355 1.331 . S
C355 C353 1.392 . S
C355 N354 1.331 . S
O356 Zn349 1.975 . S
O356 C357 1.252 . S
C357 O356 1.252 . S
C357 O358 1.252 . S
O358 Zn340 1.975 . S
O358 C357 1.252 . S
H359 C352 0.930 . S
H360 C353 0.930 . S
C361 C362 1.392 . S
C361 N365 1.328 . S
C361 H367 0.930 . S
C362 C361 1.392 . S
C362 N366 1.331 . S
C363 C364 1.391 . S
C363 N366 1.329 . S
C363 H373 0.930 . S
C364 C363 1.391 . S
C364 N365 1.334 . S
C364 H371 0.930 . S
N365 Zn349 2.119 . S
N365 C361 1.328 . S
N365 C364 1.334 . S
N366 C362 1.331 . S
N366 C363 1.329 . S
H367 C361 0.930 . S
C368 O348 1.257 . S
C368 O369 1.244 . S
O369 C368 1.244 . S
O370 C346 1.257 . S
O370 Zn349 2.019 . S
H371 C364 0.930 . S
H372 C351 0.930 . S
H373 C363 0.930 . S
Zn374 N378 2.020 . S
Zn374 O382 2.019 . S
Zn374 N384 2.119 . S
Zn374 O392 1.975 . S
C375 N376 1.334 . S
C375 N379 1.336 . S
N376 C375 1.334 . S
N376 C377 1.334 . S
C377 N376 1.334 . S
C377 N378 1.336 . S
N378 Zn374 2.020 . S
N378 C377 1.336 . S
N378 N379 1.354 . S
N379 C375 1.336 . S
N379 N378 1.354 . S
N379 Zn383 2.020 . S
C380 O381 1.244 . S
C380 O404 1.257 . S
O381 C380 1.244 . S
O382 Zn374 2.019 . S
O382 C402 1.257 . S
Zn383 N379 2.020 . S
Zn383 O390 1.975 . S
Zn383 N399 2.119 . S
Zn383 O404 2.019 . S
N384 Zn374 2.119 . S
N384 C386 1.334 . S
N384 C387 1.328 . S
C385 C386 1.391 . S
C385 N388 1.329 . S
C385 H406 0.930 . S
C386 N384 1.334 . S
C386 C385 1.391 . S
C386 H393 0.930 . S
C387 N384 1.328 . S
C387 C389 1.392 . S
C387 H394 0.930 . S
N388 C385 1.329 . S
N388 C389 1.331 . S
C389 C387 1.392 . S
C389 N388 1.331 . S
O390 Zn383 1.975 . S
O390 C391 1.252 1_565 S
C391 O390 1.252 1_545 S
C391 O392 1.252 1_545 S
O392 Zn374 1.975 . S
O392 C391 1.252 1_565 S
H393 C386 0.930 . S
H394 C387 0.930 . S
C395 C396 1.392 . S
C395 N399 1.328 . S
C395 H401 0.930 . S
C396 C395 1.392 . S
C396 N400 1.331 . S
C397 C398 1.391 . S
C397 N400 1.329 . S
C397 H407 0.930 . S
C398 C397 1.391 . S
C398 N399 1.334 . S
C398 H405 0.930 . S
N399 Zn383 2.119 . S
N399 C395 1.328 . S
N399 C398 1.334 . S
N400 C396 1.331 . S
N400 C397 1.329 . S
H401 C395 0.930 . S
C402 O382 1.257 . S
C402 O403 1.244 . S
O403 C402 1.244 . S
O404 C380 1.257 . S
O404 Zn383 2.019 . S
H405 C398 0.930 . S
H406 C385 0.930 . S
H407 C397 0.930 . S
Zn408 N412 2.020 . S
Zn408 O416 2.019 . S
Zn408 N418 2.119 . S
Zn408 O426 1.975 . S
C409 N410 1.334 . S
C409 N413 1.336 . S
N410 C409 1.334 . S
N410 C411 1.334 . S
C411 N410 1.334 . S
C411 N412 1.336 . S
N412 Zn408 2.020 . S
N412 C411 1.336 . S
N412 N413 1.354 . S
N413 C409 1.336 . S
N413 N412 1.354 . S
N413 Zn417 2.020 . S
C414 O415 1.244 . S
C414 O438 1.257 . S
O415 C414 1.244 . S
O416 Zn408 2.019 . S
O416 C436 1.257 . S
Zn417 N413 2.020 . S
Zn417 O424 1.975 . S
Zn417 N433 2.119 . S
Zn417 O438 2.019 . S
N418 Zn408 2.119 . S
N418 C420 1.334 . S
N418 C421 1.328 . S
C419 C420 1.391 . S
C419 N422 1.329 . S
C419 H440 0.930 . S
C420 N418 1.334 . S
C420 C419 1.391 . S
C420 H427 0.930 . S
C421 N418 1.328 . S
C421 C423 1.392 . S
C421 H428 0.930 . S
N422 C419 1.329 . S
N422 C423 1.331 . S
C423 C421 1.392 . S
C423 N422 1.331 . S
O424 Zn417 1.975 . S
O424 C425 1.252 . S
C425 O424 1.252 . S
C425 O426 1.252 . S
O426 Zn408 1.975 . S
O426 C425 1.252 . S
H427 C420 0.930 . S
H428 C421 0.930 . S
C429 C430 1.392 . S
C429 N433 1.328 . S
C429 H435 0.930 . S
C430 C429 1.392 . S
C430 N434 1.331 . S
C431 C432 1.391 . S
C431 N434 1.329 . S
C431 H441 0.930 . S
C432 C431 1.391 . S
C432 N433 1.334 . S
C432 H439 0.930 . S
N433 Zn417 2.119 . S
N433 C429 1.328 . S
N433 C432 1.334 . S
N434 C430 1.331 . S
N434 C431 1.329 . S
H435 C429 0.930 . S
C436 O416 1.257 . S
C436 O437 1.244 . S
O437 C436 1.244 . S
O438 C414 1.257 . S
O438 Zn417 2.019 . S
H439 C432 0.930 . S
H440 C419 0.930 . S
H441 C431 0.930 . S
Zn442 N446 2.020 . S
Zn442 O450 2.019 . S
Zn442 N452 2.119 . S
Zn442 O460 1.975 . S
C443 N444 1.334 . S
C443 N447 1.336 . S
N444 C443 1.334 . S
N444 C445 1.334 . S
C445 N444 1.334 . S
C445 N446 1.336 . S
N446 Zn442 2.020 . S
N446 C445 1.336 . S
N446 N447 1.354 . S
N447 C443 1.336 . S
N447 N446 1.354 . S
N447 Zn451 2.020 . S
C448 O449 1.244 . S
C448 O472 1.257 . S
O449 C448 1.244 . S
O450 Zn442 2.019 . S
O450 C470 1.257 . S
Zn451 N447 2.020 . S
Zn451 O458 1.975 . S
Zn451 N467 2.119 . S
Zn451 O472 2.019 . S
N452 Zn442 2.119 . S
N452 C454 1.334 . S
N452 C455 1.328 . S
C453 C454 1.391 . S
C453 N456 1.329 1_655 S
C453 H474 0.930 . S
C454 N452 1.334 . S
C454 C453 1.391 . S
C454 H461 0.930 . S
C455 N452 1.328 . S
C455 C457 1.392 . S
C455 H462 0.930 . S
N456 C453 1.329 1_455 S
N456 C457 1.331 1_455 S
C457 C455 1.392 . S
C457 N456 1.331 1_655 S
O458 Zn451 1.975 . S
O458 C459 1.252 1_565 S
C459 O458 1.252 1_545 S
C459 O460 1.252 1_545 S
O460 Zn442 1.975 . S
O460 C459 1.252 1_565 S
H461 C454 0.930 . S
H462 C455 0.930 . S
C463 C464 1.392 . S
C463 N467 1.328 . S
C463 H469 0.930 . S
C464 C463 1.392 . S
C464 N468 1.331 . S
C465 C466 1.391 . S
C465 N468 1.329 . S
C465 H475 0.930 . S
C466 C465 1.391 . S
C466 N467 1.334 . S
C466 H473 0.930 . S
N467 Zn451 2.119 . S
N467 C463 1.328 . S
N467 C466 1.334 . S
N468 C464 1.331 . S
N468 C465 1.329 . S
H469 C463 0.930 . S
C470 O450 1.257 . S
C470 O471 1.244 . S
O471 C470 1.244 . S
O472 C448 1.257 . S
O472 Zn451 2.019 . S
H473 C466 0.930 . S
H474 C453 0.930 . S
H475 C465 0.930 . S
Zn476 N480 2.020 . S
Zn476 O484 2.019 . S
Zn476 N486 2.119 . S
Zn476 O494 1.975 . S
C477 N478 1.334 . S
C477 N481 1.336 . S
N478 C477 1.334 . S
N478 C479 1.334 . S
C479 N478 1.334 . S
C479 N480 1.336 . S
N480 Zn476 2.020 . S
N480 C479 1.336 . S
N480 N481 1.354 . S
N481 C477 1.336 . S
N481 N480 1.354 . S
N481 Zn485 2.020 . S
C482 O483 1.244 . S
C482 O506 1.257 . S
O483 C482 1.244 . S
O484 Zn476 2.019 . S
O484 C504 1.257 . S
Zn485 N481 2.020 . S
Zn485 O492 1.975 . S
Zn485 N501 2.119 . S
Zn485 O506 2.019 . S
N486 Zn476 2.119 . S
N486 C488 1.334 . S
N486 C489 1.328 . S
C487 C488 1.391 . S
C487 N490 1.329 . S
C487 H508 0.930 . S
C488 N486 1.334 . S
C488 C487 1.391 . S
C488 H495 0.930 . S
C489 N486 1.328 . S
C489 C491 1.392 . S
C489 H496 0.930 . S
N490 C487 1.329 . S
N490 C491 1.331 . S
C491 C489 1.392 . S
C491 N490 1.331 . S
O492 Zn485 1.975 . S
O492 C493 1.252 . S
C493 O492 1.252 . S
C493 O494 1.252 . S
O494 Zn476 1.975 . S
O494 C493 1.252 . S
H495 C488 0.930 . S
H496 C489 0.930 . S
C497 C498 1.392 . S
C497 N501 1.328 . S
C497 H503 0.930 . S
C498 C497 1.392 . S
C498 N502 1.331 . S
C499 C500 1.391 . S
C499 N502 1.329 . S
C499 H509 0.930 . S
C500 C499 1.391 . S
C500 N501 1.334 . S
C500 H507 0.930 . S
N501 Zn485 2.119 . S
N501 C497 1.328 . S
N501 C500 1.334 . S
N502 C498 1.331 . S
N502 C499 1.329 . S
H503 C497 0.930 . S
C504 O484 1.257 . S
C504 O505 1.244 . S
O505 C504 1.244 . S
O506 C482 1.257 . S
O506 Zn485 2.019 . S
H507 C500 0.930 . S
H508 C487 0.930 . S
H509 C499 0.930 . S
Zn510 N514 2.020 . S
Zn510 O518 2.019 . S
Zn510 N520 2.119 . S
Zn510 O528 1.975 . S
C511 N512 1.334 . S
C511 N515 1.336 . S
N512 C511 1.334 . S
N512 C513 1.334 . S
C513 N512 1.334 . S
C513 N514 1.336 . S
N514 Zn510 2.020 . S
N514 C513 1.336 . S
N514 N515 1.354 . S
N515 C511 1.336 . S
N515 N514 1.354 . S
N515 Zn519 2.020 . S
C516 O517 1.244 . S
C516 O540 1.257 . S
O517 C516 1.244 . S
O518 Zn510 2.019 . S
O518 C538 1.257 . S
Zn519 N515 2.020 . S
Zn519 O526 1.975 . S
Zn519 N535 2.119 . S
Zn519 O540 2.019 . S
N520 Zn510 2.119 . S
N520 C522 1.334 . S
N520 C523 1.328 . S
C521 C522 1.391 . S
C521 N524 1.329 . S
C521 H542 0.930 . S
C522 N520 1.334 . S
C522 C521 1.391 . S
C522 H529 0.930 . S
C523 N520 1.328 . S
C523 C525 1.392 . S
C523 H530 0.930 . S
N524 C521 1.329 . S
N524 C525 1.331 . S
C525 C523 1.392 . S
C525 N524 1.331 . S
O526 Zn519 1.975 . S
O526 C527 1.252 1_545 S
C527 O526 1.252 1_565 S
C527 O528 1.252 1_565 S
O528 Zn510 1.975 . S
O528 C527 1.252 1_545 S
H529 C522 0.930 . S
H530 C523 0.930 . S
C531 C532 1.392 . S
C531 N535 1.328 . S
C531 H537 0.930 . S
C532 C531 1.392 . S
C532 N536 1.331 . S
C533 C534 1.391 . S
C533 N536 1.329 . S
C533 H543 0.930 . S
C534 C533 1.391 . S
C534 N535 1.334 . S
C534 H541 0.930 . S
N535 Zn519 2.119 . S
N535 C531 1.328 . S
N535 C534 1.334 . S
N536 C532 1.331 . S
N536 C533 1.329 . S
H537 C531 0.930 . S
C538 O518 1.257 . S
C538 O539 1.244 . S
O539 C538 1.244 . S
O540 C516 1.257 . S
O540 Zn519 2.019 . S
H541 C534 0.930 . S
H542 C521 0.930 . S
H543 C533 0.930 . S
C544 C545 1.369 . S
C544 C546 1.419 . S
C544 H548 0.930 . S
C545 C544 1.369 . S
C545 C554 1.429 . S
C546 C544 1.419 . S
C546 C547 1.363 . S
C546 H549 0.929 . S
C547 C546 1.363 . S
C547 C553 1.428 . S
H548 C544 0.930 . S
H549 C546 0.929 . S
S550 N551 1.613 . S
S550 N552 1.610 . S
N551 S550 1.613 . S
N551 C554 1.350 . S
N552 S550 1.610 . S
N552 C553 1.351 . S
C553 C547 1.428 . S
C553 N552 1.351 . S
C553 C554 1.434 . S
C554 C545 1.429 . S
C554 N551 1.350 . S
C554 C553 1.434 . S
C555 C556 1.369 . S
C555 C557 1.419 . S
C555 H559 0.930 . S
C556 C555 1.369 . S
C556 C565 1.429 . S
C557 C555 1.419 . S
C557 C558 1.363 . S
C557 H560 0.929 . S
C558 C557 1.363 . S
C558 C564 1.428 . S
H559 C555 0.930 . S
H560 C557 0.929 . S
S561 N562 1.613 . S
S561 N563 1.610 . S
N562 S561 1.613 . S
N562 C565 1.350 . S
N563 S561 1.610 . S
N563 C564 1.351 . S
C564 C558 1.428 . S
C564 N563 1.351 . S
C564 C565 1.434 . S
C565 C556 1.429 . S
C565 N562 1.350 . S
C565 C564 1.434 . S
C566 C567 1.369 . S
C566 C568 1.419 . S
C566 H570 0.930 . S
C567 C566 1.369 . S
C567 C576 1.429 . S
C568 C566 1.419 . S
C568 C569 1.363 . S
C568 H571 0.929 . S
C569 C568 1.363 . S
C569 C575 1.428 . S
H570 C566 0.930 . S
H571 C568 0.929 . S
S572 N573 1.613 . S
S572 N574 1.610 . S
N573 S572 1.613 . S
N573 C576 1.350 . S
N574 S572 1.610 . S
N574 C575 1.351 . S
C575 C569 1.428 . S
C575 N574 1.351 . S
C575 C576 1.434 . S
C576 C567 1.429 . S
C576 N573 1.350 . S
C576 C575 1.434 . S
C577 C578 1.369 . S
C577 C579 1.419 . S
C577 H581 0.930 . S
C578 C577 1.369 . S
C578 C587 1.429 . S
C579 C577 1.419 . S
C579 C580 1.363 . S
C579 H582 0.929 . S
C580 C579 1.363 . S
C580 C586 1.428 . S
H581 C577 0.930 . S
H582 C579 0.929 . S
S583 N584 1.613 . S
S583 N585 1.610 . S
N584 S583 1.613 . S
N584 C587 1.350 . S
N585 S583 1.610 . S
N585 C586 1.351 . S
C586 C580 1.428 . S
C586 N585 1.351 . S
C586 C587 1.434 . S
C587 C578 1.429 . S
C587 N584 1.350 . S
C587 C586 1.434 . S
C588 C589 1.369 . S
C588 C590 1.419 . S
C588 H592 0.930 . S
C589 C588 1.369 . S
C589 C598 1.429 . S
C590 C588 1.419 . S
C590 C591 1.363 . S
C590 H593 0.929 . S
C591 C590 1.363 . S
C591 C597 1.428 . S
H592 C588 0.930 . S
H593 C590 0.929 . S
S594 N595 1.613 . S
S594 N596 1.610 . S
N595 S594 1.613 . S
N595 C598 1.350 . S
N596 S594 1.610 . S
N596 C597 1.351 . S
C597 C591 1.428 . S
C597 N596 1.351 . S
C597 C598 1.434 . S
C598 C589 1.429 . S
C598 N595 1.350 . S
C598 C597 1.434 . S
C599 C600 1.369 . S
C599 C601 1.419 . S
C599 H603 0.930 . S
C600 C599 1.369 . S
C600 C609 1.429 . S
C601 C599 1.419 . S
C601 C602 1.363 . S
C601 H604 0.929 . S
C602 C601 1.363 . S
C602 C608 1.428 . S
H603 C599 0.930 . S
H604 C601 0.929 . S
S605 N606 1.613 . S
S605 N607 1.610 . S
N606 S605 1.613 . S
N606 C609 1.350 . S
N607 S605 1.610 . S
N607 C608 1.351 . S
C608 C602 1.428 . S
C608 N607 1.351 . S
C608 C609 1.434 . S
C609 C600 1.429 . S
C609 N606 1.350 . S
C609 C608 1.434 . S
C610 C611 1.369 . S
C610 C612 1.419 . S
C610 H614 0.930 . S
C611 C610 1.369 . S
C611 C620 1.429 . S
C612 C610 1.419 . S
C612 C613 1.363 . S
C612 H615 0.929 . S
C613 C612 1.363 . S
C613 C619 1.428 . S
H614 C610 0.930 . S
H615 C612 0.929 . S
S616 N617 1.613 . S
S616 N618 1.610 . S
N617 S616 1.613 . S
N617 C620 1.350 . S
N618 S616 1.610 . S
N618 C619 1.351 . S
C619 C613 1.428 . S
C619 N618 1.351 . S
C619 C620 1.434 . S
C620 C611 1.429 . S
C620 N617 1.350 . S
C620 C619 1.434 . S
C621 C622 1.369 . S
C621 C623 1.419 . S
C621 H625 0.930 . S
C622 C621 1.369 . S
C622 C631 1.429 . S
C623 C621 1.419 . S
C623 C624 1.363 . S
C623 H626 0.929 . S
C624 C623 1.363 . S
C624 C630 1.428 . S
H625 C621 0.930 . S
H626 C623 0.929 . S
S627 N628 1.613 . S
S627 N629 1.610 . S
N628 S627 1.613 . S
N628 C631 1.350 . S
N629 S627 1.610 . S
N629 C630 1.351 . S
C630 C624 1.428 . S
C630 N629 1.351 . S
C630 C631 1.434 . S
C631 C622 1.429 . S
C631 N628 1.350 . S
C631 C630 1.434 . S
C632 C633 1.369 . S
C632 C634 1.419 . S
C632 H636 0.930 . S
C633 C632 1.369 . S
C633 C642 1.429 . S
C634 C632 1.419 . S
C634 C635 1.363 . S
C634 H637 0.929 . S
C635 C634 1.363 . S
C635 C641 1.428 . S
H636 C632 0.930 . S
H637 C634 0.929 . S
S638 N639 1.613 . S
S638 N640 1.610 . S
N639 S638 1.613 . S
N639 C642 1.350 . S
N640 S638 1.610 . S
N640 C641 1.351 . S
C641 C635 1.428 . S
C641 N640 1.351 . S
C641 C642 1.434 . S
C642 C633 1.429 . S
C642 N639 1.350 . S
C642 C641 1.434 . S
C643 C644 1.369 . S
C643 C645 1.419 . S
C643 H647 0.930 . S
C644 C643 1.369 . S
C644 C653 1.429 . S
C645 C643 1.419 . S
C645 C646 1.363 1_545 S
C645 H648 0.929 . S
C646 C645 1.363 1_565 S
C646 C652 1.428 . S
H647 C643 0.930 . S
H648 C645 0.929 . S
S649 N650 1.613 1_565 S
S649 N651 1.610 . S
N650 S649 1.613 1_545 S
N650 C653 1.350 . S
N651 S649 1.610 . S
N651 C652 1.351 . S
C652 C646 1.428 . S
C652 N651 1.351 . S
C652 C653 1.434 1_565 S
C653 C644 1.429 . S
C653 N650 1.350 . S
C653 C652 1.434 1_545 S
C654 C655 1.369 . S
C654 C656 1.419 . S
C654 H658 0.930 . S
C655 C654 1.369 . S
C655 C664 1.429 . S
C656 C654 1.419 . S
C656 C657 1.363 . S
C656 H659 0.929 . S
C657 C656 1.363 . S
C657 C663 1.428 . S
H658 C654 0.930 . S
H659 C656 0.929 . S
S660 N661 1.613 . S
S660 N662 1.610 . S
N661 S660 1.613 . S
N661 C664 1.350 . S
N662 S660 1.610 . S
N662 C663 1.351 . S
C663 C657 1.428 . S
C663 N662 1.351 . S
C663 C664 1.434 . S
C664 C655 1.429 . S
C664 N661 1.350 . S
C664 C663 1.434 . S
C665 C666 1.369 . S
C665 C667 1.419 . S
C665 H669 0.930 . S
C666 C665 1.369 . S
C666 C675 1.429 1_545 S
C667 C665 1.419 . S
C667 C668 1.363 1_545 S
C667 H670 0.929 . S
C668 C667 1.363 1_565 S
C668 C674 1.428 . S
H669 C665 0.930 . S
H670 C667 0.929 . S
S671 N672 1.613 . S
S671 N673 1.610 . S
N672 S671 1.613 . S
N672 C675 1.350 . S
N673 S671 1.610 . S
N673 C674 1.351 . S
C674 C668 1.428 . S
C674 N673 1.351 . S
C674 C675 1.434 . S
C675 C666 1.429 1_565 S
C675 N672 1.350 . S
C675 C674 1.434 . S
C676 C677 1.369 . S
C676 C678 1.419 . S
C676 H680 0.930 . S
C677 C676 1.369 . S
C677 C686 1.429 . S
C678 C676 1.419 . S
C678 C679 1.363 . S
C678 H681 0.929 . S
C679 C678 1.363 . S
C679 C685 1.428 . S
H680 C676 0.930 . S
H681 C678 0.929 . S
S682 N683 1.613 . S
S682 N684 1.610 . S
N683 S682 1.613 . S
N683 C686 1.350 . S
N684 S682 1.610 . S
N684 C685 1.351 . S
C685 C679 1.428 . S
C685 N684 1.351 . S
C685 C686 1.434 . S
C686 C677 1.429 . S
C686 N683 1.350 . S
C686 C685 1.434 . S
C687 C688 1.369 1_545 S
C687 C689 1.419 . S
C687 H691 0.930 . S
C688 C687 1.369 1_565 S
C688 C697 1.429 . S
C689 C687 1.419 . S
C689 C690 1.363 . S
C689 H692 0.929 . S
C690 C689 1.363 . S
C690 C696 1.428 1_545 S
H691 C687 0.930 . S
H692 C689 0.929 . S
S693 N694 1.613 . S
S693 N695 1.610 . S
N694 S693 1.613 . S
N694 C697 1.350 . S
N695 S693 1.610 . S
N695 C696 1.351 . S
C696 C690 1.428 1_565 S
C696 N695 1.351 . S
C696 C697 1.434 . S
C697 C688 1.429 . S
C697 N694 1.350 . S
C697 C696 1.434 . S
C698 C699 1.369 . S
C698 C700 1.419 . S
C698 H702 0.930 . S
C699 C698 1.369 . S
C699 C708 1.429 . S
C700 C698 1.419 . S
C700 C701 1.363 . S
C700 H703 0.929 . S
C701 C700 1.363 . S
C701 C707 1.428 . S
H702 C698 0.930 . S
H703 C700 0.929 . S
S704 N705 1.613 . S
S704 N706 1.610 . S
N705 S704 1.613 . S
N705 C708 1.350 . S
N706 S704 1.610 . S
N706 C707 1.351 . S
C707 C701 1.428 . S
C707 N706 1.351 . S
C707 C708 1.434 . S
C708 C699 1.429 . S
C708 N705 1.350 . S
C708 C707 1.434 . S
C709 C710 1.369 1_545 S
C709 C711 1.419 . S
C709 H713 0.930 . S
C710 C709 1.369 1_565 S
C710 C719 1.429 . S
C711 C709 1.419 . S
C711 C712 1.363 . S
C711 H714 0.929 . S
C712 C711 1.363 . S
C712 C718 1.428 1_545 S
H713 C709 0.930 . S
H714 C711 0.929 . S
S715 N716 1.613 . S
S715 N717 1.610 . S
N716 S715 1.613 . S
N716 C719 1.350 . S
N717 S715 1.610 . S
N717 C718 1.351 . S
C718 C712 1.428 1_565 S
C718 N717 1.351 . S
C718 C719 1.434 . S
C719 C710 1.429 . S
C719 N716 1.350 . S
C719 C718 1.434 . S
C720 C721 1.369 . S
C720 C722 1.419 . S
C720 H724 0.930 . S
C721 C720 1.369 . S
C721 C730 1.429 . S
C722 C720 1.419 . S
C722 C723 1.363 1_556 S
C722 H725 0.929 1_556 S
C723 C722 1.363 1_554 S
C723 C729 1.428 1_554 S
H724 C720 0.930 . S
H725 C722 0.929 1_554 S
S726 N727 1.613 . S
S726 N728 1.610 . S
N727 S726 1.613 . S
N727 C730 1.350 . S
N728 S726 1.610 . S
N728 C729 1.351 . S
C729 C723 1.428 1_556 S
C729 N728 1.351 . S
C729 C730 1.434 . S
C730 C721 1.429 . S
C730 N727 1.350 . S
C730 C729 1.434 . S
C731 C732 1.369 . S
C731 C733 1.419 . S
C731 H735 0.930 . S
C732 C731 1.369 . S
C732 C741 1.429 . S
C733 C731 1.419 . S
C733 C734 1.363 . S
C733 H736 0.929 . S
C734 C733 1.363 . S
C734 C740 1.428 . S
H735 C731 0.930 . S
H736 C733 0.929 . S
S737 N738 1.613 . S
S737 N739 1.610 . S
N738 S737 1.613 . S
N738 C741 1.350 . S
N739 S737 1.610 . S
N739 C740 1.351 . S
C740 C734 1.428 . S
C740 N739 1.351 . S
C740 C741 1.434 . S
C741 C732 1.429 . S
C741 N738 1.350 . S
C741 C740 1.434 . S
C742 C743 1.369 . S
C742 C744 1.419 . S
C742 H746 0.930 . S
C743 C742 1.369 . S
C743 C752 1.429 . S
C744 C742 1.419 . S
C744 C745 1.363 . S
C744 H747 0.929 . S
C745 C744 1.363 . S
C745 C751 1.428 . S
H746 C742 0.930 . S
H747 C744 0.929 . S
S748 N749 1.613 . S
S748 N750 1.610 . S
N749 S748 1.613 . S
N749 C752 1.350 . S
N750 S748 1.610 . S
N750 C751 1.351 . S
C751 C745 1.428 . S
C751 N750 1.351 . S
C751 C752 1.434 . S
C752 C743 1.429 . S
C752 N749 1.350 . S
C752 C751 1.434 . S
C753 C754 1.369 . S
C753 C755 1.419 . S
C753 H757 0.930 . S
C754 C753 1.369 . S
C754 C763 1.429 . S
C755 C753 1.419 . S
C755 C756 1.363 . S
C755 H758 0.929 . S
C756 C755 1.363 . S
C756 C762 1.428 . S
H757 C753 0.930 . S
H758 C755 0.929 . S
S759 N760 1.613 . S
S759 N761 1.610 . S
N760 S759 1.613 . S
N760 C763 1.350 . S
N761 S759 1.610 . S
N761 C762 1.351 . S
C762 C756 1.428 . S
C762 N761 1.351 . S
C762 C763 1.434 . S
C763 C754 1.429 . S
C763 N760 1.350 . S
C763 C762 1.434 . S
C764 C765 1.369 . S
C764 C766 1.419 . S
C764 H768 0.930 . S
C765 C764 1.369 . S
C765 C774 1.429 . S
C766 C764 1.419 . S
C766 C767 1.363 1_554 S
C766 H769 0.929 . S
C767 C766 1.363 1_556 S
C767 C773 1.428 1_556 S
H768 C764 0.930 . S
H769 C766 0.929 . S
S770 N771 1.613 1_545 S
S770 N772 1.610 1_545 S
N771 S770 1.613 1_565 S
N771 C774 1.350 . S
N772 S770 1.610 1_565 S
N772 C773 1.351 . S
C773 C767 1.428 1_554 S
C773 N772 1.351 . S
C773 C774 1.434 . S
C774 C765 1.429 . S
C774 N771 1.350 . S
C774 C773 1.434 . S
C775 C776 1.369 . S
C775 C777 1.419 . S
C775 H779 0.930 . S
C776 C775 1.369 . S
C776 C785 1.429 . S
C777 C775 1.419 . S
C777 C778 1.363 . S
C777 H780 0.929 . S
C778 C777 1.363 . S
C778 C784 1.428 . S
H779 C775 0.930 . S
H780 C777 0.929 . S
S781 N782 1.613 . S
S781 N783 1.610 . S
N782 S781 1.613 . S
N782 C785 1.350 . S
N783 S781 1.610 . S
N783 C784 1.351 . S
C784 C778 1.428 . S
C784 N783 1.351 . S
C784 C785 1.434 . S
C785 C776 1.429 . S
C785 N782 1.350 . S
C785 C784 1.434 . S
C786 C787 1.369 . S
C786 C788 1.419 . S
C786 H790 0.930 . S
C787 C786 1.369 . S
C787 C796 1.429 . S
C788 C786 1.419 . S
C788 C789 1.363 . S
C788 H791 0.929 . S
C789 C788 1.363 . S
C789 C795 1.428 . S
H790 C786 0.930 . S
H791 C788 0.929 . S
S792 N793 1.613 1_565 S
S792 N794 1.610 . S
N793 S792 1.613 1_545 S
N793 C796 1.350 . S
N794 S792 1.610 . S
N794 C795 1.351 1_565 S
C795 C789 1.428 . S
C795 N794 1.351 1_545 S
C795 C796 1.434 . S
C796 C787 1.429 . S
C796 N793 1.350 . S
C796 C795 1.434 . S
C797 C798 1.369 . S
C797 C799 1.419 . S
C797 H801 0.930 . S
C798 C797 1.369 . S
C798 C807 1.429 . S
C799 C797 1.419 . S
C799 C800 1.363 . S
C799 H802 0.929 . S
C800 C799 1.363 . S
C800 C806 1.428 . S
H801 C797 0.930 . S
H802 C799 0.929 . S
S803 N804 1.613 . S
S803 N805 1.610 . S
N804 S803 1.613 . S
N804 C807 1.350 . S
N805 S803 1.610 . S
N805 C806 1.351 . S
C806 C800 1.428 . S
C806 N805 1.351 . S
C806 C807 1.434 . S
C807 C798 1.429 . S
C807 N804 1.350 . S
C807 C806 1.434 . S
C808 C809 1.369 . S
C808 C810 1.419 . S
C808 H812 0.930 . S
C809 C808 1.369 . S
C809 C818 1.429 . S
C810 C808 1.419 . S
C810 C811 1.363 . S
C810 H813 0.929 . S
C811 C810 1.363 . S
C811 C817 1.428 . S
H812 C808 0.930 . S
H813 C810 0.929 . S
S814 N815 1.613 . S
S814 N816 1.610 . S
N815 S814 1.613 . S
N815 C818 1.350 . S
N816 S814 1.610 . S
N816 C817 1.351 . S
C817 C811 1.428 . S
C817 N816 1.351 . S
C817 C818 1.434 . S
C818 C809 1.429 . S
C818 N815 1.350 . S
C818 C817 1.434 . S
C819 C820 1.369 1_565 S
C819 C821 1.419 1_565 S
C819 H823 0.930 . S
C820 C819 1.369 1_545 S
C820 C829 1.429 . S
C821 C819 1.419 1_545 S
C821 C822 1.363 . S
C821 H824 0.929 . S
C822 C821 1.363 . S
C822 C828 1.428 . S
H823 C819 0.930 . S
H824 C821 0.929 . S
S825 N826 1.613 . S
S825 N827 1.610 . S
N826 S825 1.613 . S
N826 C829 1.350 . S
N827 S825 1.610 . S
N827 C828 1.351 . S
C828 C822 1.428 . S
C828 N827 1.351 . S
C828 C829 1.434 . S
C829 C820 1.429 . S
C829 N826 1.350 . S
C829 C828 1.434 . S
C830 C831 1.369 . S
C830 C832 1.419 . S
C830 H834 0.930 . S
C831 C830 1.369 . S
C831 C840 1.429 . S
C832 C830 1.419 . S
C832 C833 1.363 1_556 S
C832 H835 0.929 . S
C833 C832 1.363 1_554 S
C833 C839 1.428 1_554 S
H834 C830 0.930 . S
H835 C832 0.929 . S
S836 N837 1.613 . S
S836 N838 1.610 1_556 S
N837 S836 1.613 . S
N837 C840 1.350 . S
N838 S836 1.610 1_554 S
N838 C839 1.351 1_554 S
C839 C833 1.428 1_556 S
C839 N838 1.351 1_556 S
C839 C840 1.434 . S
C840 C831 1.429 . S
C840 N837 1.350 . S
C840 C839 1.434 . S
C841 C842 1.369 . S
C841 C843 1.419 . S
C841 H845 0.930 . S
C842 C841 1.369 . S
C842 C851 1.429 1_565 S
C843 C841 1.419 . S
C843 C844 1.363 . S
C843 H846 0.929 . S
C844 C843 1.363 . S
C844 C850 1.428 1_565 S
H845 C841 0.930 . S
H846 C843 0.929 . S
S847 N848 1.613 . S
S847 N849 1.610 . S
N848 S847 1.613 . S
N848 C851 1.350 . S
N849 S847 1.610 . S
N849 C850 1.351 . S
C850 C844 1.428 1_545 S
C850 N849 1.351 . S
C850 C851 1.434 . S
C851 C842 1.429 1_545 S
C851 N848 1.350 . S
C851 C850 1.434 . S
C852 C853 1.369 . S
C852 C854 1.419 . S
C852 H856 0.930 . S
C853 C852 1.369 . S
C853 C862 1.429 . S
C854 C852 1.419 . S
C854 C855 1.363 . S
C854 H857 0.929 . S
C855 C854 1.363 . S
C855 C861 1.428 . S
H856 C852 0.930 . S
H857 C854 0.929 . S
S858 N859 1.613 . S
S858 N860 1.610 . S
N859 S858 1.613 . S
N859 C862 1.350 . S
N860 S858 1.610 . S
N860 C861 1.351 . S
C861 C855 1.428 . S
C861 N860 1.351 . S
C861 C862 1.434 . S
C862 C853 1.429 . S
C862 N859 1.350 . S
C862 C861 1.434 . S
C863 C864 1.369 . S
C863 C865 1.419 . S
C863 H867 0.930 . S
C864 C863 1.369 . S
C864 C873 1.429 . S
C865 C863 1.419 . S
C865 C866 1.363 . S
C865 H868 0.929 . S
C866 C865 1.363 . S
C866 C872 1.428 . S
H867 C863 0.930 . S
H868 C865 0.929 . S
S869 N870 1.613 . S
S869 N871 1.610 . S
N870 S869 1.613 . S
N870 C873 1.350 . S
N871 S869 1.610 . S
N871 C872 1.351 . S
C872 C866 1.428 . S
C872 N871 1.351 . S
C872 C873 1.434 . S
C873 C864 1.429 . S
C873 N870 1.350 . S
C873 C872 1.434 . S
C874 C875 1.369 . S
C874 C876 1.419 . S
C874 H878 0.930 . S
C875 C874 1.369 . S
C875 C884 1.429 . S
C876 C874 1.419 . S
C876 C877 1.363 1_554 S
C876 H879 0.929 1_554 S
C877 C876 1.363 1_556 S
C877 C883 1.428 1_556 S
H878 C874 0.930 . S
H879 C876 0.929 1_556 S
S880 N881 1.613 . S
S880 N882 1.610 . S
N881 S880 1.613 . S
N881 C884 1.350 . S
N882 S880 1.610 . S
N882 C883 1.351 . S
C883 C877 1.428 1_554 S
C883 N882 1.351 . S
C883 C884 1.434 . S
C884 C875 1.429 . S
C884 N881 1.350 . S
C884 C883 1.434 . S
C885 C886 1.369 . S
C885 C887 1.419 . S
C885 H889 0.930 . S
C886 C885 1.369 . S
C886 C895 1.429 1_545 S
C887 C885 1.419 . S
C887 C888 1.363 . S
C887 H890 0.929 . S
C888 C887 1.363 . S
C888 C894 1.428 1_545 S
H889 C885 0.930 . S
H890 C887 0.929 . S
S891 N892 1.613 . S
S891 N893 1.610 . S
N892 S891 1.613 . S
N892 C895 1.350 . S
N893 S891 1.610 . S
N893 C894 1.351 . S
C894 C888 1.428 1_565 S
C894 N893 1.351 . S
C894 C895 1.434 . S
C895 C886 1.429 1_565 S
C895 N892 1.350 . S
C895 C894 1.434 . S
C896 C897 1.369 1_545 S
C896 C898 1.419 . S
C896 H900 0.930 . S
C897 C896 1.369 1_565 S
C897 C906 1.429 1_556 S
C898 C896 1.419 . S
C898 C899 1.363 1_556 S
C898 H901 0.929 . S
C899 C898 1.363 1_554 S
C899 C905 1.428 1_545 S
H900 C896 0.930 . S
H901 C898 0.929 . S
S902 N903 1.613 . S
S902 N904 1.610 . S
N903 S902 1.613 . S
N903 C906 1.350 . S
N904 S902 1.610 . S
N904 C905 1.351 . S
C905 C899 1.428 1_565 S
C905 N904 1.351 . S
C905 C906 1.434 . S
C906 C897 1.429 1_554 S
C906 N903 1.350 . S
C906 C905 1.434 . S
C907 C908 1.369 . S
C907 C909 1.419 . S
C907 H911 0.930 . S
C908 C907 1.369 . S
C908 C917 1.429 . S
C909 C907 1.419 . S
C909 C910 1.363 . S
C909 H912 0.929 . S
C910 C909 1.363 . S
C910 C916 1.428 . S
H911 C907 0.930 . S
H912 C909 0.929 . S
S913 N914 1.613 . S
S913 N915 1.610 . S
N914 S913 1.613 . S
N914 C917 1.350 . S
N915 S913 1.610 . S
N915 C916 1.351 . S
C916 C910 1.428 . S
C916 N915 1.351 . S
C916 C917 1.434 . S
C917 C908 1.429 . S
C917 N914 1.350 . S
C917 C916 1.434 . S
C918 C919 1.358 1_465 S
C918 C920 1.429 . S
C918 H922 0.931 . S
C919 C918 1.358 1_645 S
C919 C928 1.429 . S
C920 C918 1.429 . S
C920 C921 1.363 . S
C920 H923 0.929 . S
C921 C920 1.363 . S
C921 C927 1.428 1_465 S
H922 C918 0.931 . S
H923 C920 0.929 . S
S924 N925 1.613 . S
S924 N926 1.610 . S
N925 S924 1.613 . S
N925 C928 1.350 . S
N926 S924 1.610 . S
N926 C927 1.351 . S
C927 C921 1.428 1_645 S
C927 N926 1.351 . S
C927 C928 1.434 . S
C928 C919 1.429 . S
C928 N925 1.350 . S
C928 C927 1.434 . S
C929 C930 1.369 . S
C929 C931 1.419 . S
C929 H933 0.930 . S
C930 C929 1.369 . S
C930 C939 1.429 . S
C931 C929 1.419 . S
C931 C932 1.363 . S
C931 H934 0.929 . S
C932 C931 1.363 . S
C932 C938 1.428 . S
H933 C929 0.930 . S
H934 C931 0.929 . S
S935 N936 1.613 . S
S935 N937 1.610 . S
N936 S935 1.613 . S
N936 C939 1.350 . S
N937 S935 1.610 . S
N937 C938 1.351 . S
C938 C932 1.428 . S
C938 N937 1.351 . S
C938 C939 1.434 . S
C939 C930 1.429 . S
C939 N936 1.350 . S
C939 C938 1.434 . S
C940 C941 1.369 . S
C940 C942 1.419 . S
C940 H944 0.930 . S
C941 C940 1.369 . S
C941 C950 1.429 . S
C942 C940 1.419 . S
C942 C943 1.363 . S
C942 H945 0.929 . S
C943 C942 1.363 . S
C943 C949 1.428 . S
H944 C940 0.930 . S
H945 C942 0.929 . S
S946 N947 1.613 . S
S946 N948 1.610 . S
N947 S946 1.613 . S
N947 C950 1.350 . S
N948 S946 1.610 . S
N948 C949 1.351 . S
C949 C943 1.428 . S
C949 N948 1.351 . S
C949 C950 1.434 . S
C950 C941 1.429 . S
C950 N947 1.350 . S
C950 C949 1.434 . S
C951 C952 1.369 . S
C951 C953 1.419 . S
C951 H955 0.930 . S
C952 C951 1.369 . S
C952 C961 1.429 . S
C953 C951 1.419 . S
C953 C954 1.363 . S
C953 H956 0.929 . S
C954 C953 1.363 . S
C954 C960 1.428 . S
H955 C951 0.930 . S
H956 C953 0.929 . S
S957 N958 1.613 . S
S957 N959 1.610 . S
N958 S957 1.613 . S
N958 C961 1.350 . S
N959 S957 1.610 . S
N959 C960 1.351 . S
C960 C954 1.428 . S
C960 N959 1.351 . S
C960 C961 1.434 . S
C961 C952 1.429 . S
C961 N958 1.350 . S
C961 C960 1.434 . S
C962 C963 1.369 . S
C962 C964 1.419 . S
C962 H966 0.930 . S
C963 C962 1.369 . S
C963 C972 1.429 1_655 S
C964 C962 1.419 . S
C964 C965 1.363 1_655 S
C964 H967 0.929 . S
C965 C964 1.363 1_455 S
C965 C971 1.428 . S
H966 C962 0.930 . S
H967 C964 0.929 . S
S968 N969 1.613 . S
S968 N970 1.610 . S
N969 S968 1.613 . S
N969 C972 1.350 . S
N970 S968 1.610 . S
N970 C971 1.351 . S
C971 C965 1.428 . S
C971 N970 1.351 . S
C971 C972 1.434 . S
C972 C963 1.429 1_455 S
C972 N969 1.350 . S
C972 C971 1.434 . S
C973 C974 1.369 1_556 S
C973 C975 1.419 . S
C973 H977 0.930 . S
C974 C973 1.369 1_554 S
C974 C983 1.429 . S
C975 C973 1.419 . S
C975 C976 1.363 . S
C975 H978 0.929 . S
C976 C975 1.363 . S
C976 C982 1.428 1_556 S
H977 C973 0.930 . S
H978 C975 0.929 . S
S979 N980 1.613 . S
S979 N981 1.610 . S
N980 S979 1.613 . S
N980 C983 1.350 . S
N981 S979 1.610 . S
N981 C982 1.351 . S
C982 C976 1.428 1_554 S
C982 N981 1.351 . S
C982 C983 1.434 . S
C983 C974 1.429 . S
C983 N980 1.350 . S
C983 C982 1.434 . S
C984 C985 1.369 . S
C984 C986 1.419 . S
C984 H988 0.930 . S
C985 C984 1.369 . S
C985 C994 1.429 . S
C986 C984 1.419 . S
C986 C987 1.363 . S
C986 H989 0.929 . S
C987 C986 1.363 . S
C987 C993 1.428 . S
H988 C984 0.930 . S
H989 C986 0.929 . S
S990 N991 1.613 . S
S990 N992 1.610 . S
N991 S990 1.613 . S
N991 C994 1.350 . S
N992 S990 1.610 . S
N992 C993 1.351 . S
C993 C987 1.428 . S
C993 N992 1.351 . S
C993 C994 1.434 . S
C994 C985 1.429 . S
C994 N991 1.350 . S
C994 C993 1.434 . S
C995 C996 1.369 1_655 S
C995 C997 1.419 . S
C995 H999 0.930 . S
C996 C995 1.369 1_455 S
C996 C1005 1.429 . S
C997 C995 1.419 . S
C997 C998 1.363 . S
C997 H1000 0.929 . S
C998 C997 1.363 . S
C998 C1004 1.428 . S
H999 C995 0.930 . S
H1000 C997 0.929 . S
S1001 N1002 1.613 . S
S1001 N1003 1.610 . S
N1002 S1001 1.613 . S
N1002 C1005 1.350 . S
N1003 S1001 1.610 . S
N1003 C1004 1.351 1_455 S
C1004 C998 1.428 . S
C1004 N1003 1.351 1_655 S
C1004 C1005 1.434 1_655 S
C1005 C996 1.429 . S
C1005 N1002 1.350 . S
C1005 C1004 1.434 1_455 S
C1006 C1007 1.369 . S
C1006 C1008 1.419 . S
C1006 H1010 0.930 . S
C1007 C1006 1.369 . S
C1007 C1016 1.429 . S
C1008 C1006 1.419 . S
C1008 C1009 1.363 . S
C1008 H1011 0.929 . S
C1009 C1008 1.363 . S
C1009 C1015 1.428 . S
H1010 C1006 0.930 . S
H1011 C1008 0.929 . S
S1012 N1013 1.613 . S
S1012 N1014 1.610 . S
N1013 S1012 1.613 . S
N1013 C1016 1.350 . S
N1014 S1012 1.610 . S
N1014 C1015 1.351 . S
C1015 C1009 1.428 . S
C1015 N1014 1.351 . S
C1015 C1016 1.434 . S
C1016 C1007 1.429 . S
C1016 N1013 1.350 . S
C1016 C1015 1.434 . S
C1017 C1018 1.369 . S
C1017 C1019 1.419 . S
C1017 H1021 0.930 . S
C1018 C1017 1.369 . S
C1018 C1027 1.429 . S
C1019 C1017 1.419 . S
C1019 C1020 1.363 . S
C1019 H1022 0.929 . S
C1020 C1019 1.363 . S
C1020 C1026 1.428 . S
H1021 C1017 0.930 . S
H1022 C1019 0.929 . S
S1023 N1024 1.613 . S
S1023 N1025 1.610 . S
N1024 S1023 1.613 . S
N1024 C1027 1.350 . S
N1025 S1023 1.610 . S
N1025 C1026 1.351 . S
C1026 C1020 1.428 . S
C1026 N1025 1.351 . S
C1026 C1027 1.434 . S
C1027 C1018 1.429 . S
C1027 N1024 1.350 . S
C1027 C1026 1.434 . S
C1028 C1029 1.369 . S
C1028 C1030 1.419 . S
C1028 H1032 0.930 . S
C1029 C1028 1.369 . S
C1029 C1038 1.429 . S
C1030 C1028 1.419 . S
C1030 C1031 1.363 . S
C1030 H1033 0.929 . S
C1031 C1030 1.363 . S
C1031 C1037 1.428 . S
H1032 C1028 0.930 . S
H1033 C1030 0.929 . S
S1034 N1035 1.613 . S
S1034 N1036 1.610 . S
N1035 S1034 1.613 . S
N1035 C1038 1.350 . S
N1036 S1034 1.610 . S
N1036 C1037 1.351 . S
C1037 C1031 1.428 . S
C1037 N1036 1.351 . S
C1037 C1038 1.434 . S
C1038 C1029 1.429 . S
C1038 N1035 1.350 . S
C1038 C1037 1.434 . S
C1039 C1040 1.369 . S
C1039 C1041 1.419 1_455 S
C1039 H1043 0.930 . S
C1040 C1039 1.369 . S
C1040 C1049 1.429 . S
C1041 C1039 1.419 1_655 S
C1041 C1042 1.363 . S
C1041 H1044 0.929 . S
C1042 C1041 1.363 . S
C1042 C1048 1.428 . S
H1043 C1039 0.930 . S
H1044 C1041 0.929 . S
S1045 N1046 1.613 . S
S1045 N1047 1.610 1_455 S
N1046 S1045 1.613 . S
N1046 C1049 1.350 . S
N1047 S1045 1.610 1_655 S
N1047 C1048 1.351 . S
C1048 C1042 1.428 . S
C1048 N1047 1.351 . S
C1048 C1049 1.434 1_655 S
C1049 C1040 1.429 . S
C1049 N1046 1.350 . S
C1049 C1048 1.434 1_455 S
C1050 C1051 1.369 . S
C1050 C1052 1.419 . S
C1050 H1054 0.930 . S
C1051 C1050 1.369 . S
C1051 C1060 1.429 . S
C1052 C1050 1.419 . S
C1052 C1053 1.363 . S
C1052 H1055 0.929 . S
C1053 C1052 1.363 . S
C1053 C1059 1.428 . S
H1054 C1050 0.930 . S
H1055 C1052 0.929 . S
S1056 N1057 1.613 . S
S1056 N1058 1.610 . S
N1057 S1056 1.613 . S
N1057 C1060 1.350 . S
N1058 S1056 1.610 . S
N1058 C1059 1.351 . S
C1059 C1053 1.428 . S
C1059 N1058 1.351 . S
C1059 C1060 1.434 . S
C1060 C1051 1.429 . S
C1060 N1057 1.350 . S
C1060 C1059 1.434 . S
C1061 C1062 1.369 . S
C1061 C1063 1.419 . S
C1061 H1065 0.930 . S
C1062 C1061 1.369 . S
C1062 C1071 1.429 . S
C1063 C1061 1.419 . S
C1063 C1064 1.363 . S
C1063 H1066 0.929 . S
C1064 C1063 1.363 . S
C1064 C1070 1.428 . S
H1065 C1061 0.930 . S
H1066 C1063 0.929 . S
S1067 N1068 1.613 . S
S1067 N1069 1.610 . S
N1068 S1067 1.613 . S
N1068 C1071 1.350 . S
N1069 S1067 1.610 . S
N1069 C1070 1.351 . S
C1070 C1064 1.428 . S
C1070 N1069 1.351 . S
C1070 C1071 1.434 . S
C1071 C1062 1.429 . S
C1071 N1068 1.350 . S
C1071 C1070 1.434 . S
C1072 C1073 1.369 . S
C1072 C1074 1.419 . S
C1072 H1076 0.930 . S
C1073 C1072 1.369 . S
C1073 C1082 1.429 . S
C1074 C1072 1.419 . S
C1074 C1075 1.363 . S
C1074 H1077 0.929 . S
C1075 C1074 1.363 . S
C1075 C1081 1.428 . S
H1076 C1072 0.930 . S
H1077 C1074 0.929 . S
S1078 N1079 1.613 . S
S1078 N1080 1.610 . S
N1079 S1078 1.613 . S
N1079 C1082 1.350 . S
N1080 S1078 1.610 . S
N1080 C1081 1.351 . S
C1081 C1075 1.428 . S
C1081 N1080 1.351 . S
C1081 C1082 1.434 . S
C1082 C1073 1.429 . S
C1082 N1079 1.350 . S
C1082 C1081 1.434 . S
C1083 C1084 1.369 . S
C1083 C1085 1.419 . S
C1083 H1087 0.930 . S
C1084 C1083 1.369 . S
C1084 C1093 1.429 . S
C1085 C1083 1.419 . S
C1085 C1086 1.363 . S
C1085 H1088 0.929 . S
C1086 C1085 1.363 . S
C1086 C1092 1.428 . S
H1087 C1083 0.930 . S
H1088 C1085 0.929 . S
S1089 N1090 1.613 . S
S1089 N1091 1.610 . S
N1090 S1089 1.613 . S
N1090 C1093 1.350 . S
N1091 S1089 1.610 . S
N1091 C1092 1.351 . S
C1092 C1086 1.428 . S
C1092 N1091 1.351 . S
C1092 C1093 1.434 . S
C1093 C1084 1.429 . S
C1093 N1090 1.350 . S
C1093 C1092 1.434 . S
C1094 C1095 1.369 . S
C1094 C1096 1.419 . S
C1094 H1098 0.930 . S
C1095 C1094 1.369 . S
C1095 C1104 1.429 . S
C1096 C1094 1.419 . S
C1096 C1097 1.363 . S
C1096 H1099 0.929 . S
C1097 C1096 1.363 . S
C1097 C1103 1.428 . S
H1098 C1094 0.930 . S
H1099 C1096 0.929 . S
S1100 N1101 1.613 . S
S1100 N1102 1.610 . S
N1101 S1100 1.613 . S
N1101 C1104 1.350 . S
N1102 S1100 1.610 . S
N1102 C1103 1.351 . S
C1103 C1097 1.428 . S
C1103 N1102 1.351 . S
C1103 C1104 1.434 . S
C1104 C1095 1.429 . S
C1104 N1101 1.350 . S
C1104 C1103 1.434 . S
C1105 C1106 1.369 . S
C1105 C1107 1.419 1_455 S
C1105 H1109 0.930 . S
C1106 C1105 1.369 . S
C1106 C1115 1.429 . S
C1107 C1105 1.419 1_655 S
C1107 C1108 1.363 . S
C1107 H1110 0.929 . S
C1108 C1107 1.363 . S
C1108 C1114 1.428 1_565 S
H1109 C1105 0.930 . S
H1110 C1107 0.929 . S
S1111 N1112 1.613 1_545 S
S1111 N1113 1.610 1_455 S
N1112 S1111 1.613 1_565 S
N1112 C1115 1.350 . S
N1113 S1111 1.610 1_655 S
N1113 C1114 1.351 . S
C1114 C1108 1.428 1_545 S
C1114 N1113 1.351 . S
C1114 C1115 1.434 1_645 S
C1115 C1106 1.429 . S
C1115 N1112 1.350 . S
C1115 C1114 1.434 1_465 S
C1116 C1117 1.369 . S
C1116 C1118 1.419 . S
C1116 H1120 0.930 . S
C1117 C1116 1.369 . S
C1117 C1126 1.429 . S
C1118 C1116 1.419 . S
C1118 C1119 1.363 . S
C1118 H1121 0.929 . S
C1119 C1118 1.363 . S
C1119 C1125 1.428 . S
H1120 C1116 0.930 . S
H1121 C1118 0.929 . S
S1122 N1123 1.613 . S
S1122 N1124 1.610 . S
N1123 S1122 1.613 . S
N1123 C1126 1.350 . S
N1124 S1122 1.610 . S
N1124 C1125 1.351 . S
C1125 C1119 1.428 . S
C1125 N1124 1.351 . S
C1125 C1126 1.434 . S
C1126 C1117 1.429 . S
C1126 N1123 1.350 . S
C1126 C1125 1.434 . S
C1127 C1128 1.369 1_545 S
C1127 C1129 1.419 1_545 S
C1127 H1131 0.930 . S
C1128 C1127 1.369 1_565 S
C1128 C1137 1.429 . S
C1129 C1127 1.419 1_565 S
C1129 C1130 1.363 . S
C1129 H1132 0.929 . S
C1130 C1129 1.363 . S
C1130 C1136 1.428 . S
H1131 C1127 0.930 . S
H1132 C1129 0.929 . S
S1133 N1134 1.613 . S
S1133 N1135 1.610 . S
N1134 S1133 1.613 . S
N1134 C1137 1.350 . S
N1135 S1133 1.610 . S
N1135 C1136 1.351 . S
C1136 C1130 1.428 . S
C1136 N1135 1.351 . S
C1136 C1137 1.434 . S
C1137 C1128 1.429 . S
C1137 N1134 1.350 . S
C1137 C1136 1.434 . S
C1138 C1139 1.369 . S
C1138 C1140 1.419 . S
C1138 H1142 0.930 . S
C1139 C1138 1.369 . S
C1139 C1148 1.429 . S
C1140 C1138 1.419 . S
C1140 C1141 1.363 . S
C1140 H1143 0.929 . S
C1141 C1140 1.363 . S
C1141 C1147 1.428 . S
H1142 C1138 0.930 . S
H1143 C1140 0.929 . S
S1144 N1145 1.613 . S
S1144 N1146 1.610 . S
N1145 S1144 1.613 . S
N1145 C1148 1.350 . S
N1146 S1144 1.610 . S
N1146 C1147 1.351 . S
C1147 C1141 1.428 . S
C1147 N1146 1.351 . S
C1147 C1148 1.434 . S
C1148 C1139 1.429 . S
C1148 N1145 1.350 . S
C1148 C1147 1.434 . S
C1149 C1150 1.369 . S
C1149 C1151 1.419 1_455 S
C1149 H1153 0.930 . S
C1150 C1149 1.369 . S
C1150 C1159 1.429 1_445 S
C1151 C1149 1.419 1_655 S
C1151 C1152 1.363 . S
C1151 H1154 0.929 . S
C1152 C1151 1.363 . S
C1152 C1158 1.428 . S
H1153 C1149 0.930 . S
H1154 C1151 0.929 . S
S1155 N1156 1.613 . S
S1155 N1157 1.610 . S
N1156 S1155 1.613 . S
N1156 C1159 1.350 . S
N1157 S1155 1.610 . S
N1157 C1158 1.351 1_565 S
C1158 C1152 1.428 . S
C1158 N1157 1.351 1_545 S
C1158 C1159 1.434 1_545 S
C1159 C1150 1.429 1_665 S
C1159 N1156 1.350 . S
C1159 C1158 1.434 1_565 S
C545 C255 2.478 . S
C547 C22 2.223 . S
C556 C425 2.480 . S
C558 C49 2.224 . S
C567 C90 2.215 . S
C569 C187 2.482 . S
C578 C493 2.479 . S
C580 C124 2.219 1_455 S
C589 C119 2.483 . S
C591 C158 2.216 . S
C600 C185 2.216 . S
C602 C289 2.483 . S
C611 C219 2.216 . S
C613 C51 2.483 . S
C622 C357 2.478 . S
C624 C260 2.223 1_655 S
C633 C527 2.479 . S
C635 C294 2.224 . S
C644 C321 2.226 1_655 S
C646 C153 2.479 . S
C655 C459 2.483 . S
C657 C362 2.220 . S
C666 C221 2.478 . S
C668 C396 2.224 . S
C677 C391 2.480 . S
C679 C423 2.218 . S
C688 C457 2.224 1_455 S
C690 C17 2.479 . S
C699 C498 2.215 . S
C701 C323 2.482 . S
C710 C85 2.483 . S
C712 C532 2.218 . S
C721 C312 0.869 . S
C723 C6 0.876 . S
C732 C62 0.875 . S
C734 C368 0.870 . S
C743 C74 0.875 . S
C745 C402 0.875 . S
C754 C108 0.875 . S
C756 C300 0.871 . S
C765 C448 0.869 . S
C767 C142 0.877 . S
C776 C198 0.878 . S
C778 C504 0.873 . S
C787 C538 0.869 . S
C789 C232 0.876 . S
C798 C244 0.874 . S
C800 C414 0.873 . S
C809 C40 0.875 . S
C811 C278 0.875 . S
C820 C96 0.869 . S
C822 C334 0.877 . S
C831 C130 0.875 . S
C833 C346 0.875 . S
C842 C28 0.872 . S
C844 C380 0.878 . S
C853 C436 0.876 . S
C855 C176 0.876 . S
C864 C210 0.877 . S
C866 C470 0.876 . S
C875 C266 0.872 . S
C877 C482 0.875 . S
C886 C516 0.878 . S
C888 C164 0.872 . S
C897 C137 2.833 . S
C899 C1 2.825 . S
C908 C37 2.832 . S
C910 C445 2.826 . S
C919 C207 2.833 . S
C921 C69 2.825 . S
C930 C511 2.829 . S
C932 C103 2.828 . S
C941 C309 2.825 . S
C943 C173 2.831 . S
C952 C239 2.826 . S
C954 C375 2.831 . S
C963 C273 2.831 . S
C965 C411 2.827 . S
C974 C341 2.828 . S
C976 C477 2.829 . S
C985 C241 0.773 . S
C987 C15 0.757 . S
C996 C409 0.769 . S
C998 C56 0.770 . S
C1007 C83 0.767 . S
C1009 C171 0.755 . S
C1018 C117 0.754 . S
C1020 C479 0.765 . S
C1029 C151 0.754 . S
C1031 C105 0.765 . S
C1040 C192 0.754 . S
C1042 C275 0.767 . S
C1051 C226 0.775 . S
C1053 C35 0.760 . S
C1062 C343 0.770 . S
C1064 C253 0.770 . S
C1073 C287 0.774 . S
C1075 C513 0.765 . S
C1084 C139 0.775 1_545 S
C1086 C328 0.760 . S
C1095 C443 0.764 . S
C1097 C355 0.757 . S
C1106 C389 0.754 . S
C1108 C205 0.766 1_565 S
C1117 C377 0.755 . S
C1119 C430 0.760 . S
C1128 C3 0.775 1_565 S
C1130 C464 0.761 . S
C1139 C491 0.775 . S
C1141 C307 0.764 . S
C1150 C71 0.753 1_545 S
C1152 C525 0.764 . S
