# Generated by pormake.
# Topology wmi, (6)-cn, num edge types: 1
# Building blocks:
#     Node 0, Type 0, BuildingBlock: KUMBOL_clean_sbu_1, # of connection points: 6
#     Node 1, Type 0, BuildingBlock: KUMBOL_clean_sbu_1, # of connection points: 6
#     Node 2, Type 0, BuildingBlock: KUMBOL_clean_sbu_1, # of connection points: 6
#     Node 3, Type 0, BuildingBlock: KUMBOL_clean_sbu_1, # of connection points: 6
#     Node 4, Type 0, BuildingBlock: KUMBOL_clean_sbu_1, # of connection points: 6
#     Node 5, Type 0, BuildingBlock: KUMBOL_clean_sbu_1, # of connection points: 6
#     Node 6, Type 0, BuildingBlock: KUMBOL_clean_sbu_1, # of connection points: 6
#     Node 7, Type 0, BuildingBlock: KUMBOL_clean_sbu_1, # of connection points: 6
#     Node 8, Type 0, BuildingBlock: KUMBOL_clean_sbu_1, # of connection points: 6
#     Node 9, Type 0, BuildingBlock: KUMBOL_clean_sbu_1, # of connection points: 6
#     Node 10, Type 0, BuildingBlock: KUMBOL_clean_sbu_1, # of connection points: 6
#     Node 11, Type 0, BuildingBlock: KUMBOL_clean_sbu_1, # of connection points: 6
#     Node 12, Type 0, BuildingBlock: KUMBOL_clean_sbu_1, # of connection points: 6
#     Node 13, Type 0, BuildingBlock: KUMBOL_clean_sbu_1, # of connection points: 6
#     Node 14, Type 0, BuildingBlock: KUMBOL_clean_sbu_1, # of connection points: 6
#     Node 15, Type 0, BuildingBlock: KUMBOL_clean_sbu_1, # of connection points: 6
#     Node 16, Type 0, BuildingBlock: KUMBOL_clean_sbu_1, # of connection points: 6
#     Node 17, Type 0, BuildingBlock: KUMBOL_clean_sbu_1, # of connection points: 6
#     Edge 18, Type (0, 0), BuildingBlock: OJICUG_clean_linker_0, # of connection points: 2
#     Edge 19, Type (0, 0), BuildingBlock: OJICUG_clean_linker_0, # of connection points: 2
#     Edge 20, Type (0, 0), BuildingBlock: OJICUG_clean_linker_0, # of connection points: 2
#     Edge 21, Type (0, 0), BuildingBlock: OJICUG_clean_linker_0, # of connection points: 2
#     Edge 22, Type (0, 0), BuildingBlock: OJICUG_clean_linker_0, # of connection points: 2
#     Edge 23, Type (0, 0), BuildingBlock: OJICUG_clean_linker_0, # of connection points: 2
#     Edge 24, Type (0, 0), BuildingBlock: OJICUG_clean_linker_0, # of connection points: 2
#     Edge 25, Type (0, 0), BuildingBlock: OJICUG_clean_linker_0, # of connection points: 2
#     Edge 26, Type (0, 0), BuildingBlock: OJICUG_clean_linker_0, # of connection points: 2
#     Edge 27, Type (0, 0), BuildingBlock: OJICUG_clean_linker_0, # of connection points: 2
#     Edge 28, Type (0, 0), BuildingBlock: OJICUG_clean_linker_0, # of connection points: 2
#     Edge 29, Type (0, 0), BuildingBlock: OJICUG_clean_linker_0, # of connection points: 2
#     Edge 30, Type (0, 0), BuildingBlock: OJICUG_clean_linker_0, # of connection points: 2
#     Edge 31, Type (0, 0), BuildingBlock: OJICUG_clean_linker_0, # of connection points: 2
#     Edge 32, Type (0, 0), BuildingBlock: OJICUG_clean_linker_0, # of connection points: 2
#     Edge 33, Type (0, 0), BuildingBlock: OJICUG_clean_linker_0, # of connection points: 2
#     Edge 34, Type (0, 0), BuildingBlock: OJICUG_clean_linker_0, # of connection points: 2
#     Edge 35, Type (0, 0), BuildingBlock: OJICUG_clean_linker_0, # of connection points: 2
#     Edge 36, Type (0, 0), BuildingBlock: OJICUG_clean_linker_0, # of connection points: 2
#     Edge 37, Type (0, 0), BuildingBlock: OJICUG_clean_linker_0, # of connection points: 2
#     Edge 38, Type (0, 0), BuildingBlock: OJICUG_clean_linker_0, # of connection points: 2
#     Edge 39, Type (0, 0), BuildingBlock: OJICUG_clean_linker_0, # of connection points: 2
#     Edge 40, Type (0, 0), BuildingBlock: OJICUG_clean_linker_0, # of connection points: 2
#     Edge 41, Type (0, 0), BuildingBlock: OJICUG_clean_linker_0, # of connection points: 2
#     Edge 42, Type (0, 0), BuildingBlock: OJICUG_clean_linker_0, # of connection points: 2
#     Edge 43, Type (0, 0), BuildingBlock: OJICUG_clean_linker_0, # of connection points: 2
#     Edge 44, Type (0, 0), BuildingBlock: OJICUG_clean_linker_0, # of connection points: 2
#     Edge 45, Type (0, 0), BuildingBlock: OJICUG_clean_linker_0, # of connection points: 2
#     Edge 46, Type (0, 0), BuildingBlock: OJICUG_clean_linker_0, # of connection points: 2
#     Edge 47, Type (0, 0), BuildingBlock: OJICUG_clean_linker_0, # of connection points: 2
#     Edge 48, Type (0, 0), BuildingBlock: OJICUG_clean_linker_0, # of connection points: 2
#     Edge 49, Type (0, 0), BuildingBlock: OJICUG_clean_linker_0, # of connection points: 2
#     Edge 50, Type (0, 0), BuildingBlock: OJICUG_clean_linker_0, # of connection points: 2
#     Edge 51, Type (0, 0), BuildingBlock: OJICUG_clean_linker_0, # of connection points: 2
#     Edge 52, Type (0, 0), BuildingBlock: OJICUG_clean_linker_0, # of connection points: 2
#     Edge 53, Type (0, 0), BuildingBlock: OJICUG_clean_linker_0, # of connection points: 2
#     Edge 54, Type (0, 0), BuildingBlock: OJICUG_clean_linker_0, # of connection points: 2
#     Edge 55, Type (0, 0), BuildingBlock: OJICUG_clean_linker_0, # of connection points: 2
#     Edge 56, Type (0, 0), BuildingBlock: OJICUG_clean_linker_0, # of connection points: 2
#     Edge 57, Type (0, 0), BuildingBlock: OJICUG_clean_linker_0, # of connection points: 2
#     Edge 58, Type (0, 0), BuildingBlock: OJICUG_clean_linker_0, # of connection points: 2
#     Edge 59, Type (0, 0), BuildingBlock: OJICUG_clean_linker_0, # of connection points: 2
#     Edge 60, Type (0, 0), BuildingBlock: OJICUG_clean_linker_0, # of connection points: 2
#     Edge 61, Type (0, 0), BuildingBlock: OJICUG_clean_linker_0, # of connection points: 2
#     Edge 62, Type (0, 0), BuildingBlock: OJICUG_clean_linker_0, # of connection points: 2
#     Edge 63, Type (0, 0), BuildingBlock: OJICUG_clean_linker_0, # of connection points: 2
#     Edge 64, Type (0, 0), BuildingBlock: OJICUG_clean_linker_0, # of connection points: 2
#     Edge 65, Type (0, 0), BuildingBlock: OJICUG_clean_linker_0, # of connection points: 2
#     Edge 66, Type (0, 0), BuildingBlock: OJICUG_clean_linker_0, # of connection points: 2
#     Edge 67, Type (0, 0), BuildingBlock: OJICUG_clean_linker_0, # of connection points: 2
#     Edge 68, Type (0, 0), BuildingBlock: OJICUG_clean_linker_0, # of connection points: 2
#     Edge 69, Type (0, 0), BuildingBlock: OJICUG_clean_linker_0, # of connection points: 2
#     Edge 70, Type (0, 0), BuildingBlock: OJICUG_clean_linker_0, # of connection points: 2
#     Edge 71, Type (0, 0), BuildingBlock: OJICUG_clean_linker_0, # of connection points: 2
# Relax obj value: 0.065
# Max RMSD: 0.192
# Mean RMSD: 0.192
data_MOF--net-wmi--node1-KUMBOL_clean_sbu_1--edge1-OJICUG_clean_linker_0
_symmetry_space_group_name_H-M    P1
_symmetry_Int_Tables_number       1
_symmetry_cell_setting            triclinic
loop_
_symmetry_equiv_pos_as_xyz
'x, y, z'
_cell_length_a     31.217474
_cell_length_b     31.190376
_cell_length_c     59.469227
_cell_angle_alpha  90.074706
_cell_angle_beta   89.94595
_cell_angle_gamma 119.98521
loop_
_atom_site_label
_atom_site_type_symbol
_atom_site_fract_x
_atom_site_fract_y
_atom_site_fract_z
_atom_type_partial_charge
C0 C 0.62053 0.05333 0.12057 0.0
C1 C 0.67594 0.05041 0.09267 0.0
C2 C 0.63545 0.05662 0.09826 0.0
C3 C 0.70225 0.04291 0.10983 0.0
C4 C 0.64365 0.04079 0.13745 0.0
C5 C 0.68666 0.03905 0.13218 0.0
N6 N 0.58115 0.05907 0.1255 0.0
C7 C 0.56255 0.05215 0.14678 0.0
C8 C 0.62168 0.02914 0.15881 0.0
C9 C 0.5815 0.03541 0.16359 0.0
Gd10 Gd 0.41209 0.98061 0.07428 0.0
Gd11 Gd 0.5508 0.08404 0.09572 0.0
N12 N 0.60986 0.06506 0.08205 0.0
C13 C 0.68959 0.05327 0.07008 0.0
C14 C 0.62483 0.07067 0.06017 0.0
C15 C 0.66397 0.0636 0.05376 0.0
H16 H 0.60857 0.08295 0.04773 0.0
H17 H 0.67532 0.06767 0.03633 0.0
H18 H 0.33778 0.94703 0.11932 0.0
H19 H 0.53264 0.05859 0.15086 0.0
H20 H 0.2763 0.96535 0.13631 0.0
H21 H 0.72047 0.04866 0.06513 0.0
H22 H 0.73477 0.0402 0.10601 0.0
H23 H 0.38579 0.96426 0.01954 0.0
H24 H 0.63308 0.01285 0.17152 0.0
H25 H 0.56507 0.02716 0.18019 0.0
H26 H 0.24314 0.0488 0.07807 0.0
H27 H 0.70894 0.0358 0.14517 0.0
H28 H 0.27126 0.99832 0.00744 0.0
H29 H 0.32649 0.9683 0.99351 0.0
N30 N 0.36592 0.99404 0.04716 0.0
C31 C 0.3359 1.01077 0.05486 0.0
C32 C 0.36347 0.97963 0.02533 0.0
C33 C 0.30008 1.00041 0.01814 0.0
C34 C 0.33 0.98189 0.01055 0.0
C35 C 0.30431 0.01722 0.04019 0.0
H36 H 0.25082 0.04193 0.03729 0.0
N37 N 0.35172 0.99386 0.09131 0.0
C38 C 0.3302 0.01272 0.07785 0.0
C39 C 0.27872 1.0107 0.10866 0.0
C40 C 0.29433 0.02343 0.08641 0.0
C41 C 0.32948 0.97267 0.11114 0.0
C42 C 0.29367 0.98188 0.12046 0.0
O43 O 0.5288 1.00347 0.10118 0.0
O44 O 0.47818 0.9705 0.07109 0.0
O45 O 0.36377 0.908 0.08912 0.0
O46 O 0.37774 0.91517 0.05339 0.0
O47 O 0.53402 0.08194 0.05743 0.0
O48 O 0.47283 1.00117 0.04905 0.0
O49 O 0.43638 0.06361 0.06764 0.0
O50 O 0.48709 0.09697 0.09777 0.0
O51 O 0.61097 0.15423 0.08217 0.0
O52 O 0.59158 0.14791 0.11731 0.0
O53 O 0.43587 0.9835 0.11022 0.0
O54 O 0.48528 0.06435 0.1205 0.0
C55 C 0.50308 0.96603 0.08765 0.0
C56 C 0.50904 0.04496 0.04298 0.0
C57 C 0.30073 0.84998 0.06517 0.0
C58 C 0.23154 0.76604 0.06778 0.0
C59 C 0.22458 0.82655 0.04495 0.0
C60 C 0.27248 0.86228 0.05101 0.0
C61 C 0.20414 0.77852 0.05325 0.0
C62 C 0.27994 0.80172 0.0737 0.0
C63 C 0.35289 0.88563 0.06974 0.0
C64 C 0.26969 0.039 0.07174 0.0
C65 C 0.27389 0.03487 0.04853 0.0
H66 H 0.25048 0.0172 0.11575 0.0
C67 C 0.4654 0.10249 0.08034 0.0
C68 C 0.44667 0.01949 0.1244 0.0
C69 C 0.67436 0.21126 0.1084 0.0
C70 C 0.76522 0.26023 0.10283 0.0
C71 C 0.72696 0.2742 0.13557 0.0
C72 C 0.68048 0.23764 0.12844 0.0
C73 C 0.76876 0.28535 0.12298 0.0
C74 C 0.71736 0.22307 0.09526 0.0
C75 C 0.62177 0.17602 0.10169 0.0
H76 H 0.2034 0.83602 0.03366 0.0
H77 H 0.28749 0.89913 0.04434 0.0
H78 H 0.16705 0.75092 0.04822 0.0
H79 H 0.30156 0.79169 0.08447 0.0
H80 H 0.73056 0.29438 0.15094 0.0
H81 H 0.64873 0.23065 0.13856 0.0
H82 H 0.80437 0.31437 0.12895 0.0
H83 H 0.71374 0.2039 0.07956 0.0
C84 C 0.02168 0.59192 0.11843 0.0
C85 C 0.02749 0.65096 0.09026 0.0
C86 C 0.0227 0.60486 0.09594 0.0
C87 C 0.02832 0.68236 0.10735 0.0
C88 C 0.02582 0.62482 0.13558 0.0
C89 C 0.02628 0.6687 0.1299 0.0
N90 N 1.0163 0.54701 0.12353 0.0
C91 C 1.01758 0.53385 0.14529 0.0
C92 C 0.02825 0.61189 0.1579 0.0
C93 C 0.02495 0.56668 0.16274 0.0
Gd94 Gd 0.08879 0.44671 0.0757 0.0
Gd95 Gd 0.99287 0.49241 0.0933 0.0
N96 N 0.01838 0.57217 0.07971 0.0
C97 C 0.02929 0.66329 0.06754 0.0
C98 C 0.01824 0.58337 0.05752 0.0
C99 C 0.02488 0.6294 0.05111 0.0
H100 H 1.01045 0.55643 0.04461 0.0
H101 H 0.02468 0.63795 0.03349 0.0
H102 H 0.10078 0.39183 0.12059 0.0
H103 H 1.0116 0.49776 0.14954 0.0
H104 H 0.07237 0.30702 0.13451 0.0
H105 H 0.03297 0.69837 0.06252 0.0
H106 H 0.02975 0.71692 0.10332 0.0
H107 H 0.10083 0.44861 0.02001 0.0
H108 H 0.03283 0.63608 0.17166 0.0
H109 H 0.02647 0.55646 0.17998 0.0
H110 H 1.01627 0.21013 0.06786 0.0
H111 H 0.02399 0.69189 0.14273 0.0
H112 H 0.07677 0.3061 0.00123 0.0
H113 H 0.10317 0.39286 0.99131 0.0
N114 N 0.07203 0.39353 0.04544 0.0
C115 C 0.05623 0.3456 0.05112 0.0
C116 C 0.0862 0.41008 0.024 0.0
C117 C 0.07292 0.32972 0.01344 0.0
C118 C 0.0886 0.37887 0.00789 0.0
C119 C 0.05373 0.31175 0.03481 0.0
H120 H 0.03293 0.23543 0.02825 0.0
N121 N 0.06351 0.36802 0.08962 0.0
C122 C 0.04965 0.33203 0.07378 0.0
C123 C 0.04045 0.27354 0.10269 0.0
C124 C 0.03683 0.28338 0.08003 0.0
C125 C 0.07662 0.36065 0.1104 0.0
C126 C 0.06297 0.31296 0.11774 0.0
O127 O 0.07418 0.54657 0.09933 0.0
O128 O 0.11478 0.52838 0.07158 0.0
O129 O 0.15817 0.47034 0.09382 0.0
O130 O 0.14996 0.44552 0.05949 0.0
O131 O 1.0005 0.47722 0.05533 0.0
O132 O 0.08117 0.49405 0.04997 0.0
O133 O 1.0045 0.3915 0.07007 0.0
O134 O 0.96764 0.41282 0.09774 0.0
O135 O 0.92874 0.49265 0.07759 0.0
O136 O 0.92604 0.47304 0.1122 0.0
O137 O 0.08531 0.47088 0.11054 0.0
O138 O 1.00559 0.44443 0.11994 0.0
C139 C 0.11191 0.55969 0.08565 0.0
C140 C 0.04036 0.49104 0.04235 0.0
C141 C 0.22899 0.50595 0.07012 0.0
C142 C 0.31821 0.54104 0.06905 0.0
C143 C 0.27941 0.57654 0.04615 0.0
C144 C 0.23315 0.54122 0.05429 0.0
C145 C 0.32176 0.57624 0.05333 0.0
C146 C 0.27176 0.5063 0.07771 0.0
C147 C 0.18001 0.4649 0.07625 0.0
C148 C 0.02691 0.24781 0.06335 0.0
C149 C 0.03653 0.26226 0.04079 0.0
H150 H 0.0314 0.23683 0.10816 0.0
C151 C 0.96483 0.38315 0.08177 0.0
C152 C 0.04863 0.44698 0.1243 0.0
C153 C 0.88552 0.51896 0.10321 0.0
C154 C 0.83538 0.55996 0.09718 0.0
C155 C 0.88033 0.5717 0.13219 0.0
C156 C 0.89793 0.54113 0.12465 0.0
C157 C 0.84961 0.58106 0.11869 0.0
C158 C 0.85316 0.52809 0.08948 0.0
C159 C 0.90483 0.48484 0.09648 0.0
H160 H 0.28231 0.60331 0.03378 0.0
H161 H 0.20041 0.5401 0.04758 0.0
H162 H 0.35733 0.60306 0.04639 0.0
H163 H 0.26869 0.47821 0.08938 0.0
H164 H 0.89027 0.58797 0.14881 0.0
H165 H 0.92105 0.5345 0.136 0.0
H166 H 0.83595 0.60431 0.12539 0.0
H167 H 0.84205 0.51076 0.07311 0.0
C168 C 0.47404 0.45401 0.11798 0.0
C169 C 0.41577 0.39891 0.09004 0.0
C170 C 0.46328 0.43775 0.09583 0.0
C171 C 0.37984 0.37624 0.10685 0.0
C172 C 0.43668 0.43494 0.13433 0.0
C173 C 0.39048 0.39384 0.12895 0.0
N174 N 0.52041 0.49096 0.12317 0.0
C175 C 0.532 0.50993 0.14441 0.0
C176 C 0.44705 0.45883 0.15525 0.0
C177 C 0.49502 0.49548 0.16054 0.0
Gd178 Gd 0.61713 0.66035 0.07358 0.0
Gd179 Gd 0.57748 0.51822 0.09381 0.0
N180 N 0.49918 0.46001 0.07999 0.0
C181 C 0.40629 0.383 0.06768 0.0
C182 C 0.49093 0.44256 0.05847 0.0
C183 C 0.44419 0.40477 0.05184 0.0
H184 H 0.52073 0.45568 0.04662 0.0
H185 H 0.43787 0.39147 0.03467 0.0
H186 H 0.65135 0.73227 0.11962 0.0
H187 H 0.56924 0.53728 0.14887 0.0
H188 H 0.72856 0.79361 0.13849 0.0
H189 H 0.3703 0.35317 0.0626 0.0
H190 H 0.3438 0.34493 0.10295 0.0
H191 H 0.63569 0.70126 0.02033 0.0
H192 H 0.41848 0.45177 0.16709 0.0
H193 H 0.50332 0.51299 0.17692 0.0
H194 H 0.85452 0.82427 0.08541 0.0
H195 H 0.36321 0.37395 0.14173 0.0
H196 H 0.78873 0.80831 0.0129 0.0
H197 H 0.70331 0.76374 -0.00248 0.0
N198 N 0.6811 0.71089 0.04872 0.0
C199 C 0.72698 0.73761 0.05781 0.0
C200 C 0.6727 0.7193 0.02713 0.0
C201 C 0.75912 0.77936 0.02261 0.0
C202 C 0.71107 0.75489 0.01406 0.0
C203 C 0.7678 0.77009 0.04455 0.0
H204 H 0.84687 0.82101 0.0443 0.0
N205 N 0.68825 0.71915 0.09289 0.0
C206 C 0.73092 0.74037 0.08094 0.0
C207 C 0.77553 0.79007 0.11304 0.0
C208 C 0.77626 0.77471 0.09105 0.0
C209 C 0.68642 0.741 0.11243 0.0
C210 C 0.73003 0.77626 0.12298 0.0
O211 O 0.52234 0.54423 0.09966 0.0
O212 O 0.54057 0.59445 0.06926 0.0
O213 O 0.59186 0.70885 0.08772 0.0
O214 O 0.58464 0.69243 0.05226 0.0
O215 O 0.58943 0.53376 0.05495 0.0
O216 O 0.57963 0.60196 0.04722 0.0
O217 O 0.67415 0.63453 0.06535 0.0
O218 O 0.65417 0.58156 0.09447 0.0
O219 O 0.58499 0.45585 0.08105 0.0
O220 O 0.5994 0.47717 0.11589 0.0
O221 O 0.5953 0.63429 0.10925 0.0
O222 O 0.62498 0.58308 0.11898 0.0
C223 C 0.51014 0.56774 0.08521 0.0
C224 C 0.58279 0.5632 0.04074 0.0
C225 C 0.59129 0.76849 0.06283 0.0
C226 C 0.57376 0.8357 0.06724 0.0
C227 C 0.62976 0.83994 0.03801 0.0
C228 C 0.62286 0.79423 0.04478 0.0
C229 C 0.6052 0.86058 0.04912 0.0
C230 C 0.56684 0.78968 0.07418 0.0
C231 C 0.57897 0.71752 0.06821 0.0
C232 C 0.81909 0.79914 0.07784 0.0
C233 C 0.8147 0.79744 0.05443 0.0
H234 H 0.8092 0.81755 0.1212 0.0
C235 C 0.68061 0.60147 0.07665 0.0
C236 C 0.62028 0.62268 0.12318 0.0
C237 C 0.57908 0.39344 0.10778 0.0
C238 C 0.53943 0.30249 0.10235 0.0
C239 C 0.58891 0.34184 0.13568 0.0
C240 C 0.5982 0.38797 0.12828 0.0
C241 C 0.55996 0.29969 0.12293 0.0
C242 C 0.54964 0.35005 0.09449 0.0
C243 C 0.59633 0.44584 0.10062 0.0
H244 H 0.65355 0.85898 0.02386 0.0
H245 H 0.64131 0.77881 0.03542 0.0
H246 H 0.61019 0.89579 0.04342 0.0
H247 H 0.54145 0.76986 0.0878 0.0
H248 H 0.60468 0.33878 0.15139 0.0
H249 H 0.62171 0.41998 0.13855 0.0
H250 H 0.55383 0.2644 0.12916 0.0
H251 H 0.53503 0.35315 0.07846 0.0
C252 C 0.05338 0.61497 0.87078 0.0
C253 C 0.05166 0.66889 0.89984 0.0
C254 C 0.0577 0.6287 0.89335 0.0
C255 C 0.04325 0.69597 0.88339 0.0
C256 C 0.04009 0.63894 0.85462 0.0
C257 C 0.03842 0.68158 0.86083 0.0
N258 N 0.0598 0.57645 0.86482 0.0
C259 C 0.05294 0.55955 0.84322 0.0
C260 C 0.02842 0.6186 0.83292 0.0
C261 C 0.03542 0.57927 0.8271 0.0
Gd262 Gd 0.98632 0.40664 0.91363 0.0
Gd263 Gd 0.08734 0.54544 0.89328 0.0
N264 N 0.06775 0.60286 0.90886 0.0
C265 C 0.05594 0.68179 0.92258 0.0
C266 C 0.07438 0.61703 0.93094 0.0
C267 C 0.06739 0.65574 0.93818 0.0
H268 H 0.08711 0.60048 0.94309 0.0
H269 H 0.07234 0.66644 0.95572 0.0
H270 H 0.95707 0.33374 0.86842 0.0
H271 H 0.05984 0.53021 0.83846 0.0
H272 H 0.97428 0.27039 0.85282 0.0
H273 H 0.05155 0.71244 0.92819 0.0
H274 H 0.04081 0.72836 0.88791 0.0
H275 H 0.98322 0.39667 0.96894 0.0
H276 H 1.01182 0.63085 0.82069 0.0
H277 H 0.02723 0.56416 0.81024 0.0
H278 H 0.04397 0.23018 0.91473 0.0
H279 H 0.03497 0.7048 0.84842 0.0
H280 H 1.00074 0.27249 0.98453 0.0
H281 H 0.98105 0.33677 -0.00333 0.0
N282 N 1.00345 0.36613 0.94188 0.0
C283 C 1.01522 0.33169 0.93501 0.0
C284 C 0.99388 0.3701 0.96388 0.0
C285 C 1.00441 0.30052 0.97275 0.0
C286 C 0.99225 0.33604 0.97951 0.0
C287 C 0.01908 0.3 0.95062 0.0
H288 H 0.0375 0.24217 0.95519 0.0
N289 N 0.99963 0.34549 0.89777 0.0
C290 C 1.0158 0.32292 0.91216 0.0
C291 C 1.01341 0.26913 0.88228 0.0
C292 C 0.02412 0.28469 0.90465 0.0
C293 C 0.98066 0.32405 0.87752 0.0
C294 C 0.98882 0.28687 0.86907 0.0
O295 O 1.00686 0.52123 0.8865 0.0
O296 O 0.97141 0.47017 0.91656 0.0
O297 O 0.91392 0.3553 0.89937 0.0
O298 O 0.92212 0.37037 0.93507 0.0
O299 O 0.08427 0.52684 0.93162 0.0
O300 O 1.00242 0.46841 0.93713 0.0
O301 O 0.06948 0.4314 0.92061 0.0
O302 O 0.10222 0.48325 0.89103 0.0
O303 O 0.15701 0.60794 0.90591 0.0
O304 O 0.15023 0.586 0.87115 0.0
O305 O 0.98857 0.4294 0.87768 0.0
O306 O 0.06918 0.48102 0.86773 0.0
C307 C 0.96988 0.49781 0.90041 0.0
C308 C 0.04543 0.50137 0.94511 0.0
C309 C 0.85722 0.29274 0.92396 0.0
C310 C 0.77243 0.22457 0.92413 0.0
C311 C 0.83604 0.21724 0.94424 0.0
C312 C 0.87125 0.26478 0.93737 0.0
C313 C 0.78674 0.19725 0.93777 0.0
C314 C 0.80778 0.27227 0.91712 0.0
C315 C 0.89226 0.34476 0.91892 0.0
C316 C 0.03641 0.25887 0.92024 0.0
C317 C 0.0326 0.2656 0.94327 0.0
H318 H 0.01866 0.23951 0.87592 0.0
C319 C 0.1086 0.46226 0.90847 0.0
C320 C 0.02499 0.44138 0.86366 0.0
C321 C 0.21251 0.66992 0.87896 0.0
C322 C 0.26383 0.76034 0.88483 0.0
C323 C 0.27168 0.72244 0.85048 0.0
C324 C 0.23552 0.67601 0.85793 0.0
C325 C 0.28568 0.7641 0.86374 0.0
C326 C 0.22726 0.7127 0.89268 0.0
C327 C 0.17833 0.61766 0.88631 0.0
H328 H 0.84687 0.19608 0.95484 0.0
H329 H 0.90904 0.28 0.94295 0.0
H330 H 0.75967 0.16045 0.9434 0.0
H331 H 0.79659 0.29384 0.90695 0.0
H332 H 0.2894 0.72608 0.83438 0.0
H333 H 0.22637 0.64432 0.8473 0.0
H334 H 0.31436 0.79969 0.85755 0.0
H335 H 0.21095 0.70905 0.90915 0.0
C336 C 0.4594 0.46857 0.87035 0.0
C337 C 0.40155 0.4153 0.8989 0.0
C338 C 0.44414 0.45995 0.89275 0.0
C339 C 0.37345 0.38085 0.88223 0.0
C340 C 0.43343 0.43235 0.85393 0.0
C341 C 0.38876 0.38999 0.85978 0.0
N342 N 0.49925 0.51276 0.86456 0.0
C343 C 0.51618 0.52227 0.84295 0.0
C344 C 0.45275 0.44067 0.83208 0.0
C345 C 0.49419 0.4857 0.82655 0.0
Gd346 Gd 0.66774 0.61425 0.91217 0.0
Gd347 Gd 0.52764 0.57215 0.89288 0.0
N348 N 0.46996 0.49568 0.90834 0.0
C349 C 0.38696 0.40768 0.92146 0.0
C350 C 0.45431 0.48933 0.93018 0.0
C351 C 0.41357 0.44485 0.93717 0.0
H352 H 0.47114 0.51906 0.94216 0.0
H353 H 0.40155 0.44004 0.95452 0.0
H354 H 0.73943 0.65791 0.86719 0.0
H355 H 0.54625 0.5579 0.8381 0.0
H356 H 0.80056 0.73868 0.85098 0.0
H357 H 0.35445 0.37385 0.9268 0.0
H358 H 0.33921 0.34755 0.88644 0.0
H359 H 0.68484 0.62446 0.96724 0.0
H360 H 0.43706 0.41266 0.81936 0.0
H361 H 0.50858 0.49256 0.80956 0.0
H362 H 0.82966 0.85274 0.91013 0.0
H363 H 0.36455 0.36505 0.84706 0.0
H364 H 0.79207 0.77519 0.9811 0.0
H365 H 0.7383 0.68886 -0.0056 0.0
N366 N 0.70596 0.67431 0.93981 0.0
C367 C 0.73608 0.72118 0.93222 0.0
C368 C 0.70567 0.66261 0.96189 0.0
C369 C 0.76598 0.74753 0.96979 0.0
C370 C 0.7364 0.69883 0.97716 0.0
C371 C 0.76497 0.75959 0.94732 0.0
H372 H 0.81727 0.83797 0.95076 0.0
N373 N 0.72354 0.68928 0.89527 0.0
C374 C 0.74386 0.72917 0.90919 0.0
C375 C 0.79683 0.7801 0.87907 0.0
C376 C 0.77986 0.7762 0.90114 0.0
C377 C 0.7468 0.69144 0.87559 0.0
C378 C 0.78259 0.73699 0.86678 0.0
O379 O 0.55272 0.51603 0.88855 0.0
O380 O 0.6115 0.53334 0.91628 0.0
O381 O 0.71424 0.5889 0.8961 0.0
O382 O 0.72559 0.61176 0.93083 0.0
O383 O 0.549 0.58734 0.9308 0.0
O384 O 0.61102 0.56869 0.93811 0.0
O385 O 0.63799 0.66865 0.9184 0.0
O386 O 0.58469 0.65128 0.88894 0.0
O387 O 0.46544 0.5786 0.90675 0.0
O388 O 0.48039 0.58731 0.87143 0.0
O389 O 0.64103 0.5906 0.877 0.0
O390 O 0.58956 0.61884 0.86665 0.0
C391 C 0.57653 0.50281 0.9025 0.0
C392 C 0.5712 0.57006 0.94421 0.0
C393 C 0.74861 0.55386 0.92054 0.0
C394 C 0.80529 0.52182 0.92028 0.0
C395 C 0.73361 0.4853 0.94487 0.0
C396 C 0.71954 0.51845 0.93679 0.0
C397 C 0.77657 0.48724 0.93682 0.0
C398 C 0.79106 0.55491 0.91205 0.0
C399 C 0.73903 0.59378 0.91444 0.0
C400 C 0.80282 0.81618 0.9161 0.0
C401 C 0.79593 0.80772 0.93925 0.0
H402 H 0.8252 0.81525 0.8724 0.0
C403 C 0.61055 0.67992 0.90539 0.0
C404 C 0.62983 0.61543 0.86296 0.0
C405 C 0.39469 0.54267 0.88181 0.0
C406 C 0.3042 0.49914 0.88964 0.0
C407 C 0.33621 0.47761 0.8568 0.0
C408 C 0.3843 0.51342 0.86231 0.0
C409 C 0.29676 0.47041 0.87027 0.0
C410 C 0.35381 0.53589 0.89537 0.0
C411 C 0.4481 0.57997 0.88703 0.0
H412 H 0.7117 0.45867 0.95769 0.0
H413 H 0.68691 0.51746 0.94368 0.0
H414 H 0.78759 0.46193 0.94355 0.0
H415 H 0.81405 0.58267 0.89978 0.0
H416 H 0.32939 0.45553 0.84176 0.0
H417 H 0.41348 0.51808 0.85101 0.0
H418 H 0.25977 0.443 0.86503 0.0
H419 H 0.36046 0.55874 0.91013 0.0
C420 C 0.60412 0.02961 0.87104 0.0
C421 C 0.65952 0.02688 0.89898 0.0
C422 C 0.61401 0.0234 0.8933 0.0
C423 C 0.69341 0.0337 0.88197 0.0
C424 C 0.63999 0.04098 0.85434 0.0
C425 C 0.68295 0.03924 0.85967 0.0
N426 N 0.55953 0.02483 0.86576 0.0
C427 C 0.54935 0.0331 0.84441 0.0
C428 C 0.63104 0.05335 0.83289 0.0
C429 C 0.58563 0.04924 0.82786 0.0
Gd430 Gd 0.45093 0.08252 0.91313 0.0
Gd431 Gd 0.50117 0.99077 0.89433 0.0
N432 N 0.57869 0.0125 0.90919 0.0
C433 C 0.66844 0.02049 0.92142 0.0
C434 C 0.58596 1.00277 0.93076 0.0
C435 C 0.63143 1.00838 0.93739 0.0
H436 H 0.55603 0.98749 0.94263 0.0
H437 H 0.63702 1.001 0.9546 0.0
H438 H 0.40302 0.105 0.86816 0.0
H439 H 0.51351 0.02713 0.83982 0.0
H440 H 0.32062 0.07668 0.8512 0.0
H441 H 0.703 0.02301 0.92642 0.0
H442 H 0.72728 0.03357 0.8858 0.0
H443 H 0.44068 0.10161 0.96756 0.0
H444 H 0.65902 0.068 0.8202 0.0
H445 H 0.57834 0.05779 0.81115 0.0
H446 H 0.20949 0.98908 0.91066 0.0
H447 H 0.70764 0.04021 0.84673 0.0
H448 H 0.28793 0.0506 0.98053 0.0
H449 H 0.37482 0.09138 0.99377 0.0
N450 N 0.39098 0.06403 0.94075 0.0
C451 C 0.34346 0.04182 0.93325 0.0
C452 C 0.40242 0.081 0.9623 0.0
C453 C 0.31627 0.05146 0.96979 0.0
C454 C 0.36537 0.07572 0.97704 0.0
C455 C 0.30452 0.03243 0.94801 0.0
H456 H 0.22518 1.00042 0.95127 0.0
N457 N 0.37452 0.0576 0.89626 0.0
C458 C 0.33482 0.03681 0.91021 0.0
C459 C 0.28158 0.03071 0.87944 0.0
C460 C 0.28678 0.02076 0.90187 0.0
C461 C 0.37046 0.07676 0.87639 0.0
C462 C 0.3239 0.06213 0.8672 0.0
O463 O 0.55271 0.0735 0.89112 0.0
O464 O 0.53212 0.10985 0.91983 0.0
O465 O 0.47867 0.15245 0.8951 0.0
O466 O 0.44839 0.14384 0.92845 0.0
O467 O 0.48664 0.99483 0.93263 0.0
O468 O 0.49296 0.07135 0.94068 0.0
O469 O 0.39889 0.99783 0.91865 0.0
O470 O 0.42054 0.96097 0.89078 0.0
O471 O 0.49426 0.92187 0.90797 0.0
O472 O 0.49973 0.93484 0.87175 0.0
O473 O 0.47656 0.07853 0.87871 0.0
O474 O 0.45087 1.0001 0.86806 0.0
C475 C 0.56495 0.1082 0.90639 0.0
C476 C 0.4949 0.03168 0.94669 0.0
C477 C 0.51132 0.22242 0.91895 0.0
C478 C 0.54895 0.31169 0.91882 0.0
C479 C 0.58186 0.27245 0.94298 0.0
C480 C 0.5459 0.22612 0.93507 0.0
C481 C 0.58347 0.31518 0.93488 0.0
C482 C 0.51283 0.26528 0.91088 0.0
C483 C 0.4708 0.17409 0.91207 0.0
C484 C 0.24678 1.00286 0.91681 0.0
C485 C 0.25576 1.00956 0.93994 0.0
H486 H 0.24556 0.02014 0.87249 0.0
C487 C 0.39092 0.95843 0.90678 0.0
C488 C 0.45149 0.0425 0.86479 0.0
C489 C 0.49766 0.85912 0.88403 0.0
C490 C 0.53019 0.80191 0.88877 0.0
C491 C 0.46926 0.78716 0.8598 0.0
C492 C 0.46832 0.82967 0.86619 0.0
C493 C 0.49995 0.77351 0.87088 0.0
C494 C 0.52872 0.84495 0.89554 0.0
C495 C 0.49962 0.90723 0.88816 0.0
H496 H 0.60809 0.2752 0.95559 0.0
H497 H 0.54429 0.1932 0.9419 0.0
H498 H 0.61113 0.35094 0.94134 0.0
H499 H 0.48563 0.26254 0.89875 0.0
H500 H 0.44655 0.76498 0.84592 0.0
H501 H 0.44499 0.83999 0.85691 0.0
H502 H 0.50038 0.74061 0.86532 0.0
H503 H 0.55273 0.86801 0.90893 0.0
C504 C 0.28294 0.38031 0.45172 0.0
C505 C 0.34059 0.383 0.4235 0.0
C506 C 0.29916 0.38731 0.42944 0.0
C507 C 0.3664 0.37364 0.44025 0.0
C508 C 0.30577 0.36612 0.46804 0.0
C509 C 0.34965 0.36633 0.46249 0.0
N510 N 0.24357 0.38569 0.45721 0.0
C511 C 0.22464 0.37665 0.47848 0.0
C512 C 0.28334 0.35212 0.48927 0.0
C513 C 0.24312 0.35795 0.49462 0.0
Gd514 Gd 0.07961 0.31602 0.40721 0.0
Gd515 Gd 0.21634 0.4171 0.42875 0.0
N516 N 0.27493 0.39898 0.41374 0.0
C517 C 0.3563 0.39054 0.4011 0.0
C518 C 0.29216 0.40946 0.39218 0.0
C519 C 0.33201 0.40395 0.38539 0.0
H520 H 0.27731 0.42456 0.38033 0.0
H521 H 0.34512 0.41187 0.36821 0.0
H522 H 1.00544 0.28534 0.45217 0.0
H523 H 0.19498 0.38312 0.48305 0.0
H524 H 0.94487 0.30544 0.46864 0.0
H525 H 0.38801 0.38758 0.39592 0.0
H526 H 0.39983 0.37275 0.43624 0.0
H527 H 0.05403 0.29741 0.35245 0.0
H528 H 0.29469 0.33468 0.50146 0.0
H529 H 0.22653 0.34818 0.51117 0.0
H530 H 0.90959 0.38306 0.40853 0.0
H531 H 0.37224 0.36284 0.47523 0.0
H532 H 0.93844 0.32904 0.33884 0.0
H533 H 0.99454 0.29946 0.32588 0.0
N534 N 0.03383 0.32844 0.37946 0.0
C535 C 1.00348 0.34521 0.38665 0.0
C536 C 0.03149 0.31284 0.35782 0.0
C537 C 0.96736 0.3321 0.34982 0.0
C538 C 0.99783 0.31385 0.34274 0.0
C539 C 0.97145 0.35018 0.37163 0.0
H540 H 0.91706 0.37353 0.36795 0.0
N541 N 0.0192 0.33027 0.42346 0.0
C542 C 0.99759 0.34825 0.40955 0.0
C543 C 0.94636 0.3482 0.44007 0.0
C544 C 0.96153 0.35916 0.41767 0.0
C545 C 0.99729 0.31061 0.44355 0.0
C546 C 0.9618 0.32063 0.45255 0.0
O547 O 0.19189 0.3361 0.43372 0.0
O548 O 0.14281 0.30139 0.40299 0.0
O549 O 0.03022 0.24438 0.42265 0.0
O550 O 0.04444 0.24988 0.38692 0.0
O551 O 0.20015 0.41597 0.3904 0.0
O552 O 0.13989 0.33526 0.382 0.0
O553 O 0.10518 0.39934 0.40075 0.0
O554 O 0.15582 0.43508 0.43113 0.0
O555 O 0.27485 0.48822 0.41609 0.0
O556 O 0.26412 0.4762 0.45227 0.0
O557 O 0.10282 0.31944 0.44331 0.0
O558 O 0.15179 0.40005 0.45365 0.0
C559 C 0.17094 0.30051 0.41899 0.0
C560 C 0.17634 0.37875 0.37595 0.0
C561 C 0.96706 0.18641 0.39874 0.0
C562 C 0.89836 0.10231 0.39982 0.0
C563 C 0.89126 0.16464 0.37857 0.0
C564 C 0.93892 0.19995 0.38517 0.0
C565 C 0.87102 0.11584 0.38579 0.0
C566 C 0.94641 0.13752 0.40627 0.0
C567 C 0.01918 0.22129 0.40344 0.0
C568 C 0.93639 0.37326 0.40256 0.0
C569 C 0.94051 0.36766 0.37946 0.0
H570 H 0.91813 0.35508 0.44686 0.0
C571 C 0.13179 0.43825 0.41394 0.0
C572 C 0.11265 0.3555 0.45734 0.0
C573 C 0.33851 0.55198 0.44002 0.0
C574 C 0.4277 0.6097 0.43392 0.0
C575 C 0.38168 0.62808 0.46167 0.0
C576 C 0.33865 0.58425 0.45648 0.0
C577 C 0.42572 0.64066 0.45059 0.0
C578 C 0.38347 0.56489 0.42844 0.0
C579 C 0.28992 0.50622 0.43612 0.0
H580 H 0.87011 0.17507 0.36776 0.0
H581 H 0.95383 0.23741 0.37935 0.0
H582 H 0.83398 0.0886 0.38053 0.0
H583 H 0.96789 0.12668 0.41671 0.0
H584 H 0.38095 0.6523 0.47453 0.0
H585 H 0.30501 0.57541 0.46549 0.0
H586 H 0.45878 0.67474 0.45526 0.0
H587 H 0.38431 0.54022 0.41584 0.0
C588 C 0.69047 0.93201 0.45293 0.0
C589 C 0.69539 0.99055 0.42475 0.0
C590 C 0.69083 0.94453 0.43044 0.0
C591 C 0.69604 0.02187 0.44183 0.0
C592 C 0.69478 0.96498 0.47006 0.0
C593 C 0.69418 1.0083 0.46436 0.0
N594 N 0.68466 0.88702 0.45811 0.0
C595 C 0.68557 0.87369 0.47985 0.0
C596 C 0.69776 0.95223 0.49236 0.0
C597 C 0.69379 0.90677 0.49726 0.0
Gd598 Gd 0.75251 0.78607 0.40611 0.0
Gd599 Gd 0.66127 0.83177 0.42834 0.0
N600 N 0.68571 0.91141 0.41424 0.0
C601 C 0.69671 1.00275 0.40207 0.0
C602 C 0.68468 0.9225 0.39207 0.0
C603 C 0.69159 0.96862 0.38567 0.0
H604 H 0.67617 0.8958 0.37905 0.0
H605 H 0.69088 0.97699 0.36806 0.0
H606 H 0.68162 0.70303 0.4479 0.0
H607 H 0.67804 0.83704 0.48399 0.0
H608 H 0.65383 0.61704 0.45725 0.0
H609 H 0.70034 0.03781 0.39706 0.0
H610 H 0.69687 0.05615 0.43779 0.0
H611 H 0.77407 0.79644 0.35079 0.0
H612 H 0.70316 0.9766 0.5061 0.0
H613 H 0.69519 0.8965 0.51451 0.0
H614 H 0.70129 0.5562 0.39345 0.0
H615 H 0.69096 0.03106 0.47714 0.0
H616 H 0.77815 0.66641 0.33127 0.0
H617 H 0.79105 0.74946 0.32206 0.0
N618 N 0.74944 0.73929 0.37519 0.0
C619 C 0.73888 0.69252 0.3801 0.0
C620 C 0.76554 0.75908 0.35436 0.0
C621 C 0.76888 0.68614 0.34357 0.0
C622 C 0.77613 0.733 0.33827 0.0
C623 C 0.74743 0.66422 0.36418 0.0
H624 H 0.74075 0.59291 0.35724 0.0
N625 N 0.71394 0.70186 0.41655 0.0
C626 C 0.71947 0.67282 0.40112 0.0
C627 C 0.68097 0.60292 0.42645 0.0
C628 C 0.70423 0.62291 0.40589 0.0
C629 C 0.68957 0.68182 0.43626 0.0
C630 C 0.6729 0.63236 0.44153 0.0
O631 O 0.74166 0.88657 0.43372 0.0
O632 O 0.77266 0.86642 0.40335 0.0
O633 O 0.81616 0.7849 0.42131 0.0
O634 O 0.82315 0.82219 0.38969 0.0
O635 O 0.66107 0.81639 0.38957 0.0
O636 O 0.73996 0.83174 0.38168 0.0
O637 O 0.66795 0.73267 0.40005 0.0
O638 O 0.64393 0.75438 0.4317 0.0
O639 O 0.593 0.82576 0.41469 0.0
O640 O 0.59705 0.81121 0.44958 0.0
O641 O 0.76195 0.81266 0.44143 0.0
O642 O 0.68454 0.78981 0.45429 0.0
C643 C 0.77716 0.89765 0.41922 0.0
C644 C 0.69801 0.82712 0.37516 0.0
C645 C 0.88571 0.80371 0.39728 0.0
C646 C 0.97421 0.83465 0.39597 0.0
C647 C 0.92112 0.78002 0.36664 0.0
C648 C 0.88015 0.77697 0.3775 0.0
C649 C 0.96809 0.80918 0.37569 0.0
C650 C 0.93292 0.83171 0.40686 0.0
C651 C 0.84571 0.81171 0.40518 0.0
C652 C 0.71224 0.59442 0.38996 0.0
C653 C 0.73456 0.61528 0.36932 0.0
H654 H 0.66831 0.56463 0.43065 0.0
C655 C 0.63224 0.72614 0.41416 0.0
C656 C 0.72909 0.794 0.45721 0.0
C657 C 0.5545 0.85515 0.44075 0.0
C658 C 0.50675 0.89761 0.43351 0.0
C659 C 0.5575 0.91668 0.46706 0.0
C660 C 0.57089 0.88185 0.46103 0.0
C661 C 0.52607 0.92475 0.45342 0.0
C662 C 0.52109 0.86248 0.42714 0.0
C663 C 0.57257 0.82015 0.43436 0.0
H664 H 0.91652 0.76038 0.351 0.0
H665 H 0.84448 0.75521 0.37001 0.0
H666 H 0.99973 0.81155 0.36699 0.0
H667 H 0.9379 0.85319 0.42199 0.0
H668 H 0.5711 0.93715 0.48261 0.0
H669 H 0.59432 0.87598 0.47247 0.0
H670 H 0.51527 0.95114 0.45892 0.0
H671 H 0.50641 0.84115 0.41186 0.0
C672 C 0.13843 0.79238 0.4506 0.0
C673 C 0.08175 0.73725 0.42218 0.0
C674 C 0.12688 0.77955 0.42805 0.0
C675 C 0.05075 0.70601 0.43917 0.0
C676 C 0.10486 0.76408 0.4675 0.0
C677 C 0.0632 0.71865 0.46176 0.0
N678 N 0.18243 0.83273 0.45597 0.0
C679 C 0.19356 0.84903 0.47765 0.0
C680 C 0.11478 0.78244 0.48954 0.0
C681 C 0.15903 0.82515 0.49463 0.0
Gd682 Gd 0.29292 1.00252 0.40901 0.0
Gd683 Gd 0.23901 0.8602 0.42668 0.0
N684 N 0.15992 0.80804 0.41199 0.0
C685 C 0.07024 0.72632 0.39943 0.0
C686 C 0.14946 0.79654 0.38976 0.0
C687 C 0.10404 0.75648 0.38315 0.0
H688 H 0.17639 0.81607 0.37693 0.0
H689 H 0.09604 0.7476 0.3655 0.0
H690 H 0.34071 0.07082 0.45461 0.0
H691 H 0.22895 0.87972 0.48221 0.0
H692 H 0.42312 0.12707 0.47092 0.0
H693 H 0.03586 0.69422 0.39428 0.0
H694 H 1.01748 0.67167 0.43504 0.0
H695 H 0.3026 0.01523 0.35367 0.0
H696 H 0.08834 0.76564 0.50271 0.0
H697 H 0.16701 0.83893 0.51172 0.0
H698 H 0.533 0.15551 0.41031 0.0
H699 H 0.04085 0.69236 0.47453 0.0
H700 H 0.45119 0.12894 0.34039 0.0
H701 H 0.36491 0.07471 0.32741 0.0
N702 N 0.35259 0.03728 0.38114 0.0
C703 C 0.3997 0.06682 0.38861 0.0
C704 C 0.34054 0.03715 0.35911 0.0
C705 C 0.42434 0.10111 0.35156 0.0
C706 C 0.3756 0.07117 0.34431 0.0
C707 C 0.43754 0.09696 0.37352 0.0
H708 H 0.51603 0.1482 0.36976 0.0
N709 N 0.36923 0.05375 0.42588 0.0
C710 C 0.40861 0.0732 0.41167 0.0
C711 C 0.46201 0.12252 0.44207 0.0
C712 C 0.45648 0.10716 0.41964 0.0
C713 C 0.37333 0.07636 0.44596 0.0
C714 C 0.41984 0.10958 0.45481 0.0
O715 O 0.18764 0.89074 0.43165 0.0
O716 O 0.21062 0.95027 0.40401 0.0
O717 O 0.2724 0.05237 0.42547 0.0
O718 O 0.29644 0.06412 0.39094 0.0
O719 O 0.25574 0.88121 0.38858 0.0
O720 O 0.24589 0.94941 0.38261 0.0
O721 O 0.34404 0.96834 0.40361 0.0
O722 O 0.31849 0.91184 0.43191 0.0
O723 O 0.24321 0.79749 0.41146 0.0
O724 O 0.24284 0.80531 0.44784 0.0
O725 O 0.26542 0.97542 0.44354 0.0
O726 O 0.28848 0.91983 0.45349 0.0
C727 C 0.17741 0.91708 0.41778 0.0
C728 C 0.24639 0.91006 0.37519 0.0
C729 C 0.23798 0.0864 0.40077 0.0
C730 C 0.20006 0.13785 0.40219 0.0
C731 C 0.16636 0.06629 0.37756 0.0
C732 C 0.20302 0.05619 0.3846 0.0
C733 C 0.16487 0.10703 0.38629 0.0
C734 C 0.23646 0.12735 0.40953 0.0
C735 C 0.27829 0.07772 0.4072 0.0
C736 C 0.49587 0.13023 0.40442 0.0
C737 C 0.48619 0.12618 0.38133 0.0
H738 H 0.49793 0.14918 0.44873 0.0
C739 C 0.34874 0.93497 0.41554 0.0
C740 C 0.28737 0.96122 0.4577 0.0
C741 C 0.24323 0.73148 0.43461 0.0
C742 C 0.21201 0.64181 0.4295 0.0
C743 C 0.27431 0.68884 0.45787 0.0
C744 C 0.27397 0.73186 0.45191 0.0
C745 C 0.24364 0.64434 0.44687 0.0
C746 C 0.21202 0.68593 0.42321 0.0
C747 C 0.24044 0.7775 0.43104 0.0
H748 H 0.13965 0.04304 0.36503 0.0
H749 H 0.20487 0.02555 0.37706 0.0
H750 H 0.1369 0.11517 0.38034 0.0
H751 H 0.26411 0.15156 0.42158 0.0
H752 H 0.29809 0.68984 0.47134 0.0
H753 H 0.29749 0.76562 0.46112 0.0
H754 H 0.2443 0.61139 0.45209 0.0
H755 H 0.18698 0.68448 0.41025 0.0
C756 C 0.70483 0.93609 0.20658 0.0
C757 C 0.70992 0.99263 0.23601 0.0
C758 C 0.71158 0.9501 0.22919 0.0
C759 C 0.70537 0.02258 0.21979 0.0
C760 C 0.69536 0.96348 0.19068 0.0
C761 C 0.70005 1.00893 0.19716 0.0
N762 N 0.70864 0.89636 0.20004 0.0
C763 C 0.69999 0.87991 0.17833 0.0
C764 C 0.68289 0.94473 0.16875 0.0
C765 C 0.68505 0.90275 0.16255 0.0
Gd766 Gd 0.65619 0.72866 0.24643 0.0
Gd767 Gd 0.74403 0.86988 0.22685 0.0
N768 N 0.72205 0.92376 0.24423 0.0
C769 C 0.71652 1.0059 0.25872 0.0
C770 C 0.73175 0.93877 0.26618 0.0
C771 C 0.72722 0.97862 0.27389 0.0
H772 H 0.74635 0.92295 0.27771 0.0
H773 H 0.73475 0.98998 0.29133 0.0
H774 H 0.64852 0.66194 0.20188 0.0
H775 H 0.70468 0.84946 0.17307 0.0
H776 H 0.68191 0.60933 0.18851 0.0
H777 H 0.71535 0.03824 0.26455 0.0
H778 H 0.70764 0.05725 0.22447 0.0
H779 H 0.6489 0.72376 0.30251 0.0
H780 H 0.66987 0.96091 0.15658 0.0
H781 H 0.6763 0.88871 0.14552 0.0
H782 H 0.74116 0.57483 0.25611 0.0
H783 H 0.70236 0.03527 0.18487 0.0
H784 H 0.68615 0.61553 0.32335 0.0
H785 H 0.65647 0.67368 0.33255 0.0
N786 N 0.67696 0.69654 0.27707 0.0
C787 C 0.69481 0.66591 0.27179 0.0
C788 C 0.66503 0.70108 0.29868 0.0
C789 C 0.68567 0.63969 0.31042 0.0
C790 C 0.66828 0.67197 0.31562 0.0
C791 C 0.70158 0.6382 0.28861 0.0
H792 H 0.7272 0.58665 0.29576 0.0
N793 N 0.68465 0.67725 0.23317 0.0
C794 C 0.70052 0.65747 0.24923 0.0
C795 C 0.71318 0.60942 0.22078 0.0
C796 C 0.71593 0.62339 0.24336 0.0
C797 C 0.67337 0.65667 0.21235 0.0
C798 C 0.68974 0.62452 0.20535 0.0
O799 O 0.66191 0.83801 0.22211 0.0
O800 O 0.62729 0.78197 0.25116 0.0
O801 O 0.58747 0.67903 0.22883 0.0
O802 O 0.59636 0.66704 0.2638 0.0
O803 O 0.74115 0.84957 0.26499 0.0
O804 O 0.66249 0.78382 0.27174 0.0
O805 O 0.74169 0.76217 0.25047 0.0
O806 O 0.77239 0.81845 0.22197 0.0
O807 O 0.81279 0.93283 0.24003 0.0
O808 O 0.79962 0.92365 0.2039 0.0
O809 O 0.65514 0.75301 0.2113 0.0
O810 O 0.73256 0.80945 0.2 0.0
C811 C 0.6275 0.81492 0.23724 0.0
C812 C 0.70245 0.82365 0.27856 0.0
C813 C 0.51746 0.64853 0.25266 0.0
C814 C 0.42792 0.59718 0.25446 0.0
C815 C 0.46905 0.67689 0.2733 0.0
C816 C 0.51469 0.68448 0.26589 0.0
C817 C 0.42587 0.63328 0.26779 0.0
C818 C 0.47382 0.60507 0.24667 0.0
C819 C 0.5659 0.65432 0.24702 0.0
C820 C 0.72866 0.60059 0.26032 0.0
C821 C 0.72057 0.60722 0.2829 0.0
H822 H 0.7244 0.58319 0.21558 0.0
C823 C 0.77956 0.79542 0.23838 0.0
C824 C 0.6907 0.76662 0.19678 0.0
C825 C 0.87523 0.99828 0.21578 0.0
C826 C 0.93308 0.08795 0.22078 0.0
C827 C 0.94688 0.04176 0.1914 0.0
C828 C 0.90428 0.99841 0.19775 0.0
C829 C 0.96105 0.08603 0.20271 0.0
C830 C 0.88998 0.0435 0.22753 0.0
C831 C 0.82733 0.95194 0.2201 0.0
H832 H 0.46721 0.70448 0.28366 0.0
H833 H 0.54786 0.71778 0.27105 0.0
H834 H 0.39072 0.62757 0.27397 0.0
H835 H 0.47566 0.57686 0.23673 0.0
H836 H 0.96878 0.04118 0.1774 0.0
H837 H 0.89365 0.9648 0.18832 0.0
H838 H 0.99408 0.11924 0.19721 0.0
H839 H 0.86739 0.04445 0.24114 0.0
C840 C 0.12814 0.80273 0.20376 0.0
C841 C 0.07149 0.7498 0.23275 0.0
C842 C 0.11422 0.79409 0.22634 0.0
C843 C 0.04194 0.7158 0.21621 0.0
C844 C 0.10018 0.76722 0.18734 0.0
C845 C 0.05572 0.72516 0.19359 0.0
N846 N 0.16815 0.84659 0.19776 0.0
C847 C 0.18358 0.85621 0.17592 0.0
C848 C 0.11694 0.77613 0.16505 0.0
C849 C 0.15903 0.82052 0.15936 0.0
Gd850 Gd 0.33667 0.94723 0.24508 0.0
Gd851 Gd 0.19827 0.90618 0.22604 0.0
N852 N 0.14121 0.82966 0.24182 0.0
C853 C 0.05817 0.74216 0.25546 0.0
C854 C 0.12687 0.82322 0.26386 0.0
C855 C 0.08612 0.779 0.27108 0.0
H856 H 0.14466 0.85266 0.27589 0.0
H857 H 0.07509 0.77419 0.28858 0.0
H858 H 0.40591 0.99982 0.20052 0.0
H859 H 0.21394 0.89158 0.17098 0.0
H860 H 0.46381 0.08375 0.18614 0.0
H861 H 0.02558 0.70862 0.261 0.0
H862 H 1.00768 0.68277 0.22067 0.0
H863 H 0.34594 0.94563 0.30067 0.0
H864 H 0.09816 0.7493 0.15202 0.0
H865 H 0.17167 0.82783 0.1421 0.0
H866 H 0.50621 0.18205 0.25226 0.0
H867 H 0.03064 0.70071 0.18103 0.0
H868 H 0.47123 0.0845 0.31809 0.0
H869 H 0.40732 0.99941 0.32875 0.0
N870 N 0.37402 1.00051 0.27511 0.0
C871 C 0.4073 0.04802 0.2693 0.0
C872 C 0.37119 0.98387 0.29656 0.0
C873 C 0.44167 0.06235 0.30651 0.0
C874 C 0.40648 0.0139 0.31233 0.0
C875 C 0.44001 0.08111 0.28543 0.0
H876 H 0.49777 0.15657 0.29183 0.0
N877 N 0.3919 0.02519 0.23091 0.0
C878 C 0.41455 0.06133 0.24663 0.0
C879 C 0.46544 0.11854 0.21761 0.0
C880 C 0.45157 0.10943 0.24026 0.0
C881 C 0.413 0.03151 0.21031 0.0
C882 C 0.44801 0.07866 0.2028 0.0
O883 O 0.22304 0.84975 0.22149 0.0
O884 O 0.27893 0.86688 0.25038 0.0
O885 O 0.37965 0.91936 0.2276 0.0
O886 O 0.39804 0.94695 0.26148 0.0
O887 O 0.2196 0.92343 0.2641 0.0
O888 O 0.28005 0.9025 0.27083 0.0
O889 O 0.30944 1.00392 0.25031 0.0
O890 O 0.25515 0.98494 0.22126 0.0
O891 O 0.13565 0.91211 0.23964 0.0
O892 O 0.15236 0.92283 0.20448 0.0
O893 O 0.31047 0.92309 0.20999 0.0
O894 O 0.25973 0.95185 0.19947 0.0
C895 C 0.24545 0.83618 0.23607 0.0
C896 C 0.24351 0.90848 0.27782 0.0
C897 C 0.41341 0.88371 0.25207 0.0
C898 C 0.46687 0.84813 0.25514 0.0
C899 C 0.39131 0.8143 0.27711 0.0
C900 C 0.38074 0.84892 0.26771 0.0
C901 C 0.43442 0.81418 0.27106 0.0
C902 C 0.45604 0.88264 0.2455 0.0
C903 C 0.40707 0.92526 0.24514 0.0
C904 C 0.47824 0.14478 0.25685 0.0
C905 C 0.47352 0.13025 0.27939 0.0
H906 H 0.494 0.15476 0.21207 0.0
C907 C 0.28107 0.01421 0.23749 0.0
C908 C 0.29938 0.94748 0.19571 0.0
C909 C 0.06647 0.87828 0.21397 0.0
C910 C 0.97617 0.835 0.22121 0.0
C911 C 1.00857 0.81492 0.18815 0.0
C912 C 0.05657 0.85031 0.19407 0.0
C913 C 0.96887 0.80712 0.20158 0.0
C914 C 0.02546 0.87106 0.22741 0.0
C915 C 0.11947 0.91487 0.21983 0.0
H916 H 0.36651 0.78809 0.28943 0.0
H917 H 0.34801 0.84966 0.27319 0.0
H918 H 0.44247 0.78749 0.27874 0.0
H919 H 0.48177 0.9099 0.23371 0.0
H920 H 1.00203 0.79372 0.17284 0.0
H921 H 0.08603 0.85563 0.1828 0.0
H922 H 0.93188 0.78017 0.19614 0.0
H923 H 0.03175 0.89317 0.24241 0.0
C924 C 0.27486 0.3672 0.20663 0.0
C925 C 0.32746 0.36218 0.23542 0.0
C926 C 0.28203 0.35787 0.22887 0.0
C927 C 0.36421 0.37337 0.21928 0.0
C928 C 0.31344 0.38298 0.19097 0.0
C929 C 0.35661 0.38234 0.19706 0.0
N930 N 0.2301 0.36071 0.20033 0.0
C931 C 0.22202 0.37081 0.17893 0.0
C932 C 0.30675 0.39807 0.16969 0.0
C933 C 0.26081 0.39149 0.16355 0.0
Gd934 Gd 0.11922 0.41441 0.24588 0.0
Gd935 Gd 0.16835 0.32216 0.22722 0.0
N936 N 0.24419 0.34283 0.2438 0.0
C937 C 0.33354 0.35207 0.2577 0.0
C938 C 0.24892 0.32963 0.26514 0.0
C939 C 0.29403 0.33571 0.27263 0.0
H940 H 0.21749 0.31164 0.27616 0.0
H941 H 0.29759 0.3256 0.28965 0.0
H942 H 0.07163 0.43597 0.20078 0.0
H943 H 0.18605 0.36336 0.17358 0.0
H944 H 0.98914 0.4098 0.18438 0.0
H945 H 0.36793 0.35502 0.26332 0.0
H946 H 0.39812 0.37379 0.22366 0.0
H947 H 0.11225 0.43572 0.30031 0.0
H948 H 0.33677 0.41648 0.15805 0.0
H949 H 0.25517 0.40184 0.14691 0.0
H950 H 0.8792 0.32925 0.24525 0.0
H951 H 0.38331 0.38581 0.18473 0.0
H952 H 0.96108 0.38929 0.31475 0.0
H953 H 0.04818 0.42737 0.32725 0.0
N954 N 0.06098 0.39871 0.27395 0.0
C955 C 1.01326 0.3777 0.26685 0.0
C956 C 0.07374 0.41602 0.29539 0.0
C957 C 0.98843 0.38914 0.30365 0.0
C958 C 0.03775 0.4119 0.31052 0.0
C959 C 0.97533 0.37009 0.28191 0.0
H960 H 0.89653 0.34107 0.28575 0.0
N961 N 0.04279 0.39098 0.22958 0.0
C962 C 1.00368 0.37225 0.24388 0.0
C963 C 0.95016 0.36683 0.21335 0.0
C964 C 0.95574 0.3577 0.23587 0.0
C965 C 0.03886 0.40919 0.20942 0.0
C966 C 0.99236 0.39589 0.20056 0.0
O967 O 0.21829 0.40499 0.224 0.0
O968 O 0.19948 0.43987 0.25368 0.0
O969 O 0.15074 0.4846 0.22773 0.0
O970 O 0.11663 0.47666 0.26016 0.0
O971 O 0.15235 0.32497 0.26555 0.0
O972 O 0.15953 0.40175 0.27377 0.0
O973 O 0.06537 0.32958 0.25051 0.0
O974 O 0.08762 0.29161 0.22328 0.0
O975 O 0.16072 0.25232 0.23981 0.0
O976 O 0.16951 0.26861 0.20386 0.0
O977 O 0.14316 0.4099 0.21108 0.0
O978 O 0.11869 0.3315 0.20052 0.0
C979 C 0.23178 0.43707 0.24042 0.0
C980 C 0.16065 0.36164 0.27977 0.0
C981 C 0.18124 0.55508 0.25135 0.0
C982 C 0.21597 0.6441 0.25282 0.0
C983 C 0.24954 0.60479 0.27656 0.0
C984 C 0.21542 0.55868 0.26768 0.0
C985 C 0.24968 0.64738 0.26926 0.0
C986 C 0.18188 0.59794 0.2438 0.0
C987 C 0.14132 0.50669 0.24401 0.0
C988 C 0.91647 0.34183 0.25113 0.0
C989 C 0.9264 0.34881 0.2742 0.0
H990 H 0.91423 0.35736 0.20665 0.0
C991 C 0.05712 0.29002 0.23864 0.0
C992 C 0.11839 0.37349 0.19723 0.0
C993 C 0.16676 0.19198 0.21532 0.0
C994 C 0.199 0.13463 0.22026 0.0
C995 C 0.13976 0.12096 0.1906 0.0
C996 C 0.13848 0.16326 0.19708 0.0
C997 C 0.16977 0.10687 0.20199 0.0
C998 C 0.19713 0.17737 0.22711 0.0
C999 C 0.16781 0.23947 0.21991 0.0
H1000 H 0.27541 0.60745 0.28934 0.0
H1001 H 0.21482 0.52581 0.27396 0.0
H1002 H 0.27588 0.68288 0.2765 0.0
H1003 H 0.15504 0.59526 0.23148 0.0
H1004 H 0.1178 0.09928 0.17645 0.0
H1005 H 0.11561 0.17392 0.18762 0.0
H1006 H 0.17051 0.07415 0.19638 0.0
H1007 H 0.2202 0.19982 0.24086 0.0
C1008 C 0.94558 0.70778 0.7841 0.0
C1009 C 1.00724 0.71862 0.75619 0.0
C1010 C 0.96313 0.71797 0.76203 0.0
C1011 C 0.03509 0.71244 0.77298 0.0
C1012 C 0.97107 0.69686 0.80045 0.0
C1013 C 1.01774 0.7031 0.79512 0.0
N1014 N 0.90363 0.70862 0.78955 0.0
C1015 C 0.88385 0.6963 0.81063 0.0
C1016 C 0.94886 0.68064 0.82158 0.0
C1017 C 0.90522 0.6804 0.8267 0.0
Gd1018 Gd 0.73618 0.64993 0.74258 0.0
Gd1019 Gd 0.87825 0.74371 0.76186 0.0
N1020 N 0.93731 0.72752 0.74636 0.0
C1021 C 0.02327 0.72776 0.73384 0.0
C1022 C 0.95414 0.73893 0.72479 0.0
C1023 C 0.99641 0.73772 0.71804 0.0
H1024 H 0.93705 0.75186 0.71299 0.0
H1025 H 1.00944 0.74659 0.70088 0.0
H1026 H 0.66553 0.63177 0.78712 0.0
H1027 H 0.85197 0.69877 0.81538 0.0
H1028 H 0.61135 0.6617 0.8025 0.0
H1029 H 0.05693 0.72843 0.72873 0.0
H1030 H 0.07055 0.71573 0.76912 0.0
H1031 H 0.7131 0.63085 0.6875 0.0
H1032 H 0.96353 0.66646 0.8339 0.0
H1033 H 0.88855 0.6688 0.84317 0.0
H1034 H 0.58532 0.73994 0.7395 0.0
H1035 H 0.04188 0.7028 0.80796 0.0
H1036 H 0.61605 0.68524 0.67001 0.0
H1037 H 0.6638 0.64486 0.65892 0.0
N1038 N 0.69693 0.66727 0.71351 0.0
C1039 C 0.6702 0.68879 0.71997 0.0
C1040 C 0.69453 0.65107 0.69198 0.0
C1041 C 0.64021 0.68217 0.68208 0.0
C1042 C 0.66629 0.65841 0.67591 0.0
C1043 C 0.64268 0.69859 0.70416 0.0
H1044 H 0.59477 0.7295 0.69918 0.0
N1045 N 0.68342 0.67515 0.75775 0.0
C1046 C 0.66423 0.69397 0.74283 0.0
C1047 C 0.61608 0.70237 0.77254 0.0
C1048 C 0.63132 0.70986 0.75006 0.0
C1049 C 0.66085 0.65876 0.77798 0.0
C1050 C 0.62848 0.67387 0.78618 0.0
O1051 O 0.85358 0.66194 0.76226 0.0
O1052 O 0.78958 0.62215 0.73631 0.0
O1053 O 0.69256 0.58027 0.7608 0.0
O1054 O 0.67313 0.58834 0.72696 0.0
O1055 O 0.85812 0.74032 0.724 0.0
O1056 O 0.79128 0.66212 0.71567 0.0
O1057 O 0.76779 0.73497 0.73839 0.0
O1058 O 0.82506 0.77049 0.76677 0.0
O1059 O 0.93757 0.81406 0.74838 0.0
O1060 O 0.93309 0.79976 0.7845 0.0
O1061 O 0.76684 0.6531 0.7768 0.0
O1062 O 0.81803 0.73092 0.78856 0.0
C1063 C 0.82547 0.62459 0.74897 0.0
C1064 C 0.83259 0.70247 0.71001 0.0
C1065 C 0.65688 0.50962 0.73696 0.0
C1066 C 0.6042 0.42017 0.73565 0.0
C1067 C 0.67926 0.46023 0.71334 0.0
C1068 C 0.68898 0.50626 0.72138 0.0
C1069 C 0.63685 0.41735 0.72029 0.0
C1070 C 0.61457 0.46634 0.74422 0.0
C1071 C 0.66422 0.55822 0.74354 0.0
C1072 C 0.60973 0.72651 0.73421 0.0
C1073 C 0.61494 0.72033 0.71124 0.0
H1074 H 0.59016 0.71316 0.77871 0.0
C1075 C 0.79766 0.77352 0.75109 0.0
C1076 C 0.77644 0.68803 0.79121 0.0
C1077 C 1.00524 0.87651 0.77142 0.0
C1078 C 0.09502 0.933 0.76624 0.0
C1079 C 0.04924 0.95009 0.79464 0.0
C1080 C 1.00564 0.90725 0.78874 0.0
C1081 C 0.09344 0.96277 0.78359 0.0
C1082 C 0.05037 0.88959 0.76 0.0
C1083 C 0.95903 0.82817 0.76794 0.0
H1084 H 0.70416 0.45786 0.70138 0.0
H1085 H 0.72119 0.53928 0.71519 0.0
H1086 H 0.62917 0.38191 0.71354 0.0
H1087 H 0.58889 0.46871 0.75576 0.0
H1088 H 0.04891 0.97328 0.80812 0.0
H1089 H 0.97212 0.89764 0.79801 0.0
H1090 H 0.12686 0.99595 0.78878 0.0
H1091 H 0.05108 0.86546 0.74707 0.0
C1092 C 0.36016 0.26204 0.78339 0.0
C1093 C 0.35912 0.3167 0.75459 0.0
C1094 C 0.35608 0.27163 0.76084 0.0
C1095 C 0.3633 0.35035 0.77129 0.0
C1096 C 0.36835 0.29752 0.79993 0.0
C1097 C 0.36656 0.34008 0.79389 0.0
N1098 N 0.35474 0.21744 0.78922 0.0
C1099 C 0.35952 0.20695 0.81104 0.0
C1100 C 0.37641 0.28808 0.82209 0.0
C1101 C 0.37215 0.24278 0.82766 0.0
Gd1102 Gd 0.42127 0.11399 0.74336 0.0
Gd1103 Gd 0.3253 0.15868 0.76056 0.0
N1104 N 0.34757 0.23637 0.7452 0.0
C1105 C 0.35521 0.3255 0.73185 0.0
C1106 C 0.34178 0.24412 0.72307 0.0
C1107 C 0.34682 0.28914 0.71602 0.0
H1108 H 0.33074 0.21523 0.7108 0.0
H1109 H 0.34218 0.29496 0.69846 0.0
H1110 H 0.45107 0.07351 0.78873 0.0
H1111 H 0.35295 0.17099 0.81594 0.0
H1112 H 0.43117 0.99379 0.80636 0.0
H1113 H 0.35736 0.35967 0.72642 0.0
H1114 H 0.36288 0.38387 0.76694 0.0
H1115 H 0.42725 0.09997 0.68864 0.0
H1116 H 0.38677 0.31535 0.83506 0.0
H1117 H 0.37734 0.23501 0.84487 0.0
H1118 H 0.3428 0.87539 0.74949 0.0
H1119 H 0.36553 0.36433 0.80653 0.0
H1120 H 0.39539 0.9509 0.67857 0.0
H1121 H 0.42912 0.03691 0.66438 0.0
N1122 N 0.39925 0.05196 0.71678 0.0
C1123 C 0.38262 1.00565 0.72513 0.0
C1124 C 0.41195 0.06248 0.69473 0.0
C1125 C 0.39345 0.97842 0.68891 0.0
C1126 C 0.41293 0.02684 0.68098 0.0
C1127 C 0.37553 0.96674 0.71084 0.0
H1128 H 0.34965 0.88817 0.70864 0.0
N1129 N 0.40173 0.04015 0.76153 0.0
C1130 C 0.38137 0.99916 0.7483 0.0
C1131 C 0.38343 0.95034 0.77937 0.0
C1132 C 0.36986 0.9526 0.75721 0.0
C1133 C 0.42402 0.03939 0.78105 0.0
C1134 C 0.41396 0.99441 0.79069 0.0
O1135 O 0.4066 0.21321 0.76583 0.0
O1136 O 0.44508 0.19459 0.73739 0.0
O1137 O 0.49335 0.14281 0.75953 0.0
O1138 O 0.48185 0.11412 0.72578 0.0
O1139 O 0.33124 0.14267 0.72243 0.0
O1140 O 0.41101 0.15701 0.71626 0.0
O1141 O 0.33716 0.05991 0.73659 0.0
O1142 O 0.30158 0.07947 0.76533 0.0
O1143 O 0.25814 0.15462 0.74629 0.0
O1144 O 0.26207 0.14295 0.78151 0.0
O1145 O 0.418 0.13924 0.77804 0.0
O1146 O 0.33803 0.11134 0.78734 0.0
C1147 C 0.44227 0.2262 0.75114 0.0
C1148 C 0.37023 0.15483 0.70904 0.0
C1149 C 0.56116 0.17758 0.7344 0.0
C1150 C 0.65039 0.21519 0.73227 0.0
C1151 C 0.60838 0.24783 0.70979 0.0
C1152 C 0.56306 0.21219 0.71873 0.0
C1153 C 0.65189 0.24911 0.71638 0.0
C1154 C 0.605 0.17962 0.74141 0.0
C1155 C 0.51361 0.13622 0.74171 0.0
C1156 C 0.35311 0.91163 0.74286 0.0
C1157 C 0.35715 0.91893 0.71959 0.0
H1158 H 0.37636 0.91561 0.78669 0.0
C1159 C 0.29817 0.05011 0.74914 0.0
C1160 C 0.38143 0.11497 0.79182 0.0
C1161 C 0.22201 0.18845 0.77158 0.0
C1162 C 0.17405 0.23077 0.76448 0.0
C1163 C 0.22872 0.25333 0.7968 0.0
C1164 C 0.24109 0.21761 0.79109 0.0
C1165 C 0.19586 0.26009 0.78361 0.0
C1166 C 0.18718 0.19452 0.75845 0.0
C1167 C 0.23819 0.15157 0.76589 0.0
H1168 H 0.60971 0.27402 0.69749 0.0
H1169 H 0.52946 0.21081 0.713 0.0
H1170 H 0.68678 0.2765 0.70907 0.0
H1171 H 0.60368 0.15264 0.7533 0.0
H1172 H 0.24422 0.27551 0.81179 0.0
H1173 H 0.26568 0.21284 0.80225 0.0
H1174 H 0.18595 0.28728 0.78889 0.0
H1175 H 0.17038 0.17131 0.74385 0.0
C1176 C 0.80103 0.12878 0.78211 0.0
C1177 C 0.74791 0.07221 0.75312 0.0
C1178 C 0.79296 0.11395 0.75962 0.0
C1179 C 0.71267 0.0443 0.76952 0.0
C1180 C 0.76369 0.10374 0.79813 0.0
C1181 C 0.72112 0.05938 0.792 0.0
N1182 N 0.84539 0.16776 0.7883 0.0
C1183 C 0.8541 0.1849 0.8099 0.0
C1184 C 0.77094 0.1241 0.81977 0.0
C1185 C 0.81631 0.16451 0.82575 0.0
Gd1186 Gd 0.95837 0.33493 0.74193 0.0
Gd1187 Gd 0.90606 0.19363 0.76082 0.0
N1188 N 0.82947 0.13935 0.74432 0.0
C1189 C 0.74062 0.05812 0.73051 0.0
C1190 C 0.82325 0.12416 0.72239 0.0
C1191 C 0.7784 0.08441 0.71506 0.0
H1192 H 0.85316 0.14029 0.71054 0.0
H1193 H 0.77378 0.07273 0.69766 0.0
H1194 H 1.00737 0.40322 0.78727 0.0
H1195 H 0.88985 0.21417 0.81509 0.0
H1196 H 0.0902 0.45874 0.80339 0.0
H1197 H 0.70652 0.02624 0.72491 0.0
H1198 H 0.67915 1.01047 0.76507 0.0
H1199 H 0.96549 0.34474 0.68632 0.0
H1200 H 0.74167 0.11077 0.83183 0.0
H1201 H 0.82231 0.17949 0.84262 0.0
H1202 H 0.19737 0.49167 0.74097 0.0
H1203 H 0.69536 0.03508 0.80445 0.0
H1204 H 0.11272 0.45914 0.67126 0.0
H1205 H 0.02654 0.40216 0.65902 0.0
N1206 N 1.01651 0.36959 0.71345 0.0
C1207 C 0.06376 0.40016 0.72049 0.0
C1208 C 1.0035 0.36767 0.69144 0.0
C1209 C 0.0865 0.43226 0.68296 0.0
C1210 C 0.03779 0.40067 0.67608 0.0
C1211 C 0.10069 0.43018 0.70501 0.0
H1212 H 0.17862 0.48285 0.70056 0.0
N1213 N 0.03506 0.38701 0.7581 0.0
C1214 C 0.07368 0.40719 0.74348 0.0
C1215 C 0.1281 0.4566 0.77359 0.0
C1216 C 0.12166 0.44188 0.75103 0.0
C1217 C 0.03974 0.40887 0.77842 0.0
C1218 C 0.08647 0.44217 0.787 0.0
O1219 O 0.85488 0.22465 0.76489 0.0
O1220 O 0.87675 0.28156 0.73612 0.0
O1221 O 0.93382 0.38219 0.75789 0.0
O1222 O 0.96312 0.39752 0.72423 0.0
O1223 O 0.92324 0.21352 0.72258 0.0
O1224 O 0.91227 0.2807 0.71571 0.0
O1225 O 1.01019 0.30147 0.73692 0.0
O1226 O 0.98543 0.24644 0.76575 0.0
O1227 O 0.91292 0.13146 0.74732 0.0
O1228 O 0.90868 0.14001 0.78353 0.0
O1229 O 0.93181 0.3093 0.77682 0.0
O1230 O 0.95451 0.25386 0.78767 0.0
C1231 C 0.84389 0.24812 0.74981 0.0
C1232 C 0.91249 0.24083 0.70886 0.0
C1233 C 0.90009 0.4147 0.73183 0.0
C1234 C 0.85725 0.4619 0.73132 0.0
C1235 C 0.83169 0.3919 0.70609 0.0
C1236 C 0.86826 0.3836 0.71491 0.0
C1237 C 0.82613 0.43077 0.71423 0.0
C1238 C 0.89456 0.4539 0.74 0.0
C1239 C 0.94114 0.40844 0.73978 0.0
C1240 C 0.16016 0.46566 0.73543 0.0
C1241 C 0.14946 0.46075 0.71241 0.0
H1242 H 0.16417 0.48359 0.77999 0.0
C1243 C 1.01526 0.26872 0.74915 0.0
C1244 C 0.95367 0.29563 0.79134 0.0
C1245 C 0.91151 0.06662 0.77139 0.0
C1246 C 0.8798 0.97689 0.76727 0.0
C1247 C 0.94511 0.02571 0.79416 0.0
C1248 C 0.94403 0.0683 0.78808 0.0
C1249 C 0.91327 0.98049 0.78396 0.0
C1250 C 0.8793 0.02051 0.76076 0.0
C1251 C 0.90878 0.11229 0.7672 0.0
H1252 H 0.80785 0.36841 0.69278 0.0
H1253 H 0.87231 0.3535 0.7082 0.0
H1254 H 0.79794 0.43703 0.70691 0.0
H1255 H 0.91924 0.47812 0.75296 0.0
H1256 H 0.97037 0.02762 0.80711 0.0
H1257 H 0.96848 0.10276 0.79662 0.0
H1258 H 0.91449 0.94787 0.78926 0.0
H1259 H 0.85306 0.01827 0.74825 0.0
C1260 C 0.37627 0.27425 0.53897 0.0
C1261 C 0.38051 0.33108 0.56806 0.0
C1262 C 0.38365 0.28929 0.56144 0.0
C1263 C 0.37276 0.35888 0.55176 0.0
C1264 C 0.36351 0.29915 0.52308 0.0
C1265 C 0.36561 0.34365 0.5293 0.0
N1266 N 0.381 0.23485 0.53272 0.0
C1267 C 0.37163 0.21726 0.5112 0.0
C1268 C 0.3495 0.27839 0.50154 0.0
C1269 C 0.35388 0.23762 0.49551 0.0
Gd1270 Gd 0.3242 0.06726 0.57897 0.0
Gd1271 Gd 0.41532 0.20826 0.5601 0.0
N1272 N 0.39481 0.26377 0.57665 0.0
C1273 C 0.3878 0.34525 0.59067 0.0
C1274 C 0.40433 0.27902 0.59855 0.0
C1275 C 0.3996 0.31896 0.60599 0.0
H1276 H 0.41796 0.26248 0.61028 0.0
H1277 H 0.40696 0.33066 0.62338 0.0
H1278 H 0.30343 0.99649 0.53417 0.0
H1279 H 0.37746 0.18755 0.50598 0.0
H1280 H 0.3296 0.93938 0.51874 0.0
H1281 H 0.38567 0.37715 0.59635 0.0
H1282 H 0.37316 0.39275 0.55628 0.0
H1283 H 0.32023 0.05771 0.63437 0.0
H1284 H 0.33328 0.29167 0.48959 0.0
H1285 H 0.34411 0.22226 0.47873 0.0
H1286 H 0.4067 0.9104 0.58104 0.0
H1287 H 0.36401 0.36799 0.51693 0.0
H1288 H 0.34964 0.94104 0.64935 0.0
H1289 H 0.32064 0.99853 0.66153 0.0
N1290 N 0.34748 0.03297 0.60758 0.0
C1291 C 0.36428 1.00229 0.60078 0.0
C1292 C 0.3355 0.03475 0.62946 0.0
C1293 C 0.3527 0.96947 0.63811 0.0
C1294 C 0.33527 1.001 0.64478 0.0
C1295 C 0.37071 0.9723 0.61639 0.0
H1296 H 0.39607 0.91978 0.62133 0.0
N1297 N 0.34805 0.01399 0.56317 0.0
C1298 C 0.36705 0.99458 0.57788 0.0
C1299 C 0.37123 0.94366 0.54823 0.0
C1300 C 0.38033 0.95964 0.57059 0.0
C1301 C 0.33006 0.99091 0.54315 0.0
C1302 C 0.34317 0.95704 0.53487 0.0
O1303 O 0.33353 0.18017 0.55657 0.0
O1304 O 0.29661 0.12113 0.58446 0.0
O1305 O 0.25355 0.01876 0.56252 0.0
O1306 O 0.26459 1.00728 0.59725 0.0
O1307 O 0.41223 0.18755 0.59815 0.0
O1308 O 0.33296 0.12248 0.60493 0.0
O1309 O 0.40934 0.09947 0.58389 0.0
O1310 O 0.44014 0.15409 0.55494 0.0
O1311 O 0.48505 0.26933 0.57369 0.0
O1312 O 0.47199 0.26118 0.53748 0.0
O1313 O 0.32412 0.09401 0.54426 0.0
O1314 O 0.40256 0.14759 0.53336 0.0
C1315 C 0.29757 0.15467 0.57076 0.0
C1316 C 0.37382 0.16132 0.61183 0.0
C1317 C 0.1851 0.98892 0.58724 0.0
C1318 C 0.09565 0.93784 0.58944 0.0
C1319 C 0.13732 0.0176 0.60818 0.0
C1320 C 0.18281 0.02505 0.60052 0.0
C1321 C 0.09389 0.97403 0.60279 0.0
C1322 C 0.14131 0.94543 0.58155 0.0
C1323 C 0.23309 0.99449 0.58094 0.0
C1324 C 0.39542 0.93652 0.58637 0.0
C1325 C 0.38927 0.94177 0.60931 0.0
H1326 H 0.38016 0.91637 0.54205 0.0
C1327 C 0.44729 0.1315 0.57151 0.0
C1328 C 0.35961 0.10626 0.52985 0.0
C1329 C 0.54947 0.33288 0.54938 0.0
C1330 C 0.61143 0.42111 0.55473 0.0
C1331 C 0.62198 0.37282 0.5253 0.0
C1332 C 0.5777 0.33106 0.53143 0.0
C1333 C 0.63863 0.41737 0.53676 0.0
C1334 C 0.56662 0.37832 0.56123 0.0
C1335 C 0.50045 0.28825 0.55378 0.0
H1336 H 0.13579 0.04535 0.61855 0.0
H1337 H 0.21619 0.05846 0.60542 0.0
H1338 H 0.05885 0.96844 0.60906 0.0
H1339 H 0.14282 0.91713 0.57153 0.0
H1340 H 0.64319 0.37086 0.51133 0.0
H1341 H 0.5652 0.29717 0.52194 0.0
H1342 H 0.67271 0.4495 0.5313 0.0
H1343 H 0.54447 0.38085 0.57464 0.0
C1344 C 0.79507 0.13712 0.5381 0.0
C1345 C 0.73734 0.08513 0.56699 0.0
C1346 C 0.78071 0.12889 0.56064 0.0
C1347 C 0.70728 0.0517 0.5504 0.0
C1348 C 0.76687 0.10179 0.52169 0.0
C1349 C 0.72135 0.06091 0.52781 0.0
N1350 N 0.83558 0.18057 0.53209 0.0
C1351 C 0.85146 0.18976 0.51031 0.0
C1352 C 0.78439 0.11001 0.49952 0.0
C1353 C 0.82702 0.15388 0.49384 0.0
Gd1354 Gd 1.00249 0.28051 0.5789 0.0
Gd1355 Gd 0.86525 0.24058 0.5601 0.0
N1356 N 0.80774 0.16447 0.57611 0.0
C1357 C 0.72374 0.0777 0.58966 0.0
C1358 C 0.79306 0.15833 0.5981 0.0
C1359 C 0.75192 0.11439 0.6053 0.0
H1360 H 0.81072 0.18785 0.61009 0.0
H1361 H 0.74065 0.10982 0.62276 0.0
H1362 H 0.07052 0.33676 0.53464 0.0
H1363 H 0.88221 0.22486 0.50536 0.0
H1364 H 0.12848 0.42172 0.52154 0.0
H1365 H 0.69071 0.04452 0.59515 0.0
H1366 H 0.67231 0.01942 0.55477 0.0
H1367 H 1.01152 0.27326 0.6344 0.0
H1368 H 0.76604 0.083 0.48658 0.0
H1369 H 0.84016 0.16067 0.47664 0.0
H1370 H 0.17555 0.51284 0.58991 0.0
H1371 H 0.69552 0.03755 0.51522 0.0
H1372 H 0.13763 0.4093 0.65404 0.0
H1373 H 0.07237 0.32399 0.66325 0.0
N1374 N 0.04019 0.33048 0.60991 0.0
C1375 C 0.07423 0.37829 0.60488 0.0
C1376 C 0.03705 0.31174 0.63096 0.0
C1377 C 0.10845 0.38848 0.64203 0.0
C1378 C 0.07228 0.33997 0.64711 0.0
C1379 C 0.10756 0.40935 0.62137 0.0
H1380 H 0.1669 0.48347 0.62885 0.0
N1381 N 0.05802 0.35944 0.56607 0.0
C1382 C 0.08159 0.39378 0.58245 0.0
C1383 C 0.13245 0.4534 0.55417 0.0
C1384 C 0.11929 0.4421 0.57681 0.0
C1385 C 0.0782 0.36756 0.5452 0.0
C1386 C 0.11352 0.41518 0.53842 0.0
O1387 O 0.89043 0.18461 0.55502 0.0
O1388 O 0.9452 0.19962 0.58408 0.0
O1389 O 0.04317 0.25052 0.56099 0.0
O1390 O 0.0664 0.28281 0.59385 0.0
O1391 O 0.88649 0.25697 0.59822 0.0
O1392 O 0.94632 0.23525 0.60461 0.0
O1393 O 0.97653 0.3386 0.58385 0.0
O1394 O 0.92034 0.3199 0.55556 0.0
O1395 O 0.80246 0.2465 0.57344 0.0
O1396 O 0.81907 0.25624 0.53824 0.0
O1397 O 0.97761 0.25843 0.5435 0.0
O1398 O 0.9265 0.28709 0.53351 0.0
C1399 C 0.91079 0.16944 0.56992 0.0
C1400 C 0.90971 0.24086 0.61174 0.0
C1401 C 0.08053 0.21848 0.58551 0.0
C1402 C 0.13387 0.1828 0.58783 0.0
C1403 C 0.06254 0.15295 0.61236 0.0
C1404 C 0.05058 0.18632 0.60261 0.0
C1405 C 0.10416 0.15127 0.60506 0.0
C1406 C 0.12205 0.2164 0.57804 0.0
C1407 C 0.07307 0.25885 0.57781 0.0
C1408 C 0.14695 0.47545 0.59392 0.0
C1409 C 0.14209 0.45869 0.6161 0.0
H1410 H 0.1614 0.48991 0.54917 0.0
C1411 C 0.94751 0.34915 0.57155 0.0
C1412 C 0.96633 0.28316 0.5295 0.0
C1413 C 0.73331 0.21178 0.54783 0.0
C1414 C 0.64323 0.16851 0.55529 0.0
C1415 C 0.67529 0.14698 0.52258 0.0
C1416 C 0.72328 0.18306 0.52816 0.0
C1417 C 0.63574 0.13951 0.53605 0.0
C1418 C 0.69247 0.20503 0.56121 0.0
C1419 C 0.78623 0.24864 0.55355 0.0
H1420 H 0.03999 0.12892 0.62582 0.0
H1421 H 0.01898 0.18819 0.60892 0.0
H1422 H 0.11349 0.12569 0.61295 0.0
H1423 H 0.14586 0.24177 0.56518 0.0
H1424 H 0.66865 0.12506 0.5075 0.0
H1425 H 0.75263 0.18825 0.51686 0.0
H1426 H 0.5987 0.1121 0.53086 0.0
H1427 H 0.69885 0.22794 0.57593 0.0
C1428 C 0.94238 0.68771 0.53872 0.0
C1429 C 0.99537 0.68445 0.56774 0.0
C1430 C 0.95061 0.68169 0.56117 0.0
C1431 C 0.03018 0.69047 0.55134 0.0
C1432 C 0.97906 0.69801 0.52258 0.0
C1433 C 0.0212 0.69558 0.52877 0.0
N1434 N 0.8982 0.68266 0.53259 0.0
C1435 C 0.88901 0.68916 0.51081 0.0
C1436 C 0.97146 0.70946 0.50072 0.0
C1437 C 0.92621 0.70464 0.49473 0.0
Gd1438 Gd 0.78821 0.74575 0.58251 0.0
Gd1439 Gd 0.83862 0.65503 0.56072 0.0
N1440 N 0.91423 0.67123 0.57638 0.0
C1441 C 1.00247 0.67788 0.59039 0.0
C1442 C 0.91967 0.6611 0.59816 0.0
C1443 C 0.96432 0.66604 0.60568 0.0
H1444 H 0.88904 0.64625 0.60959 0.0
H1445 H 0.96843 0.65845 0.62306 0.0
H1446 H 0.71594 0.67206 0.53702 0.0
H1447 H 0.85315 0.68209 0.50558 0.0
H1448 H 0.63585 0.64798 0.52146 0.0
H1449 H 0.0364 0.67989 0.59608 0.0
H1450 H 0.06341 0.68967 0.55585 0.0
H1451 H 0.78056 0.76649 0.63798 0.0
H1452 H 1.00029 0.7236 0.48846 0.0
H1453 H 0.91976 0.71209 0.47766 0.0
H1454 H 0.55405 0.68597 0.57919 0.0
H1455 H 0.04594 0.69505 0.51627 0.0
H1456 H 0.64027 0.75628 0.64767 0.0
H1457 H 0.72215 0.77591 0.66239 0.0
N1458 N 0.73129 0.73885 0.61013 0.0
C1459 C 0.68569 0.72605 0.60196 0.0
C1460 C 0.74352 0.75415 0.63197 0.0
C1461 C 0.66508 0.75011 0.63718 0.0
C1462 C 0.71115 0.76112 0.64557 0.0
C1463 C 0.6511 0.73066 0.61553 0.0
H1464 H 0.57709 0.71999 0.61731 0.0
N1465 N 0.70723 0.70491 0.56688 0.0
C1466 C 0.67328 0.7085 0.57995 0.0
C1467 C 0.61219 0.67236 0.55025 0.0
C1468 C 0.6251 0.69285 0.57177 0.0
C1469 C 0.69287 0.68118 0.54658 0.0
C1470 C 0.64601 0.66575 0.53778 0.0
O1471 O 0.89479 0.73644 0.55981 0.0
O1472 O 0.8693 0.76939 0.58853 0.0
O1473 O 0.80513 0.81337 0.56416 0.0
O1474 O 0.79618 0.81004 0.59987 0.0
O1475 O 0.82143 0.65456 0.59908 0.0
O1476 O 0.83184 0.73195 0.60835 0.0
O1477 O 0.73549 0.66138 0.58813 0.0
O1478 O 0.76199 0.63986 0.55748 0.0
O1479 O 0.82622 0.58309 0.57323 0.0
O1480 O 0.81858 0.59353 0.5379 0.0
O1481 O 0.82193 0.75728 0.54828 0.0
O1482 O 0.80083 0.68138 0.53411 0.0
C1483 C 0.90322 0.77089 0.5747 0.0
C1484 C 0.83032 0.69033 0.61387 0.0
C1485 C 0.84928 0.88789 0.58521 0.0
C1486 C 0.88377 0.97713 0.58328 0.0
C1487 C 0.92977 0.94319 0.60158 0.0
C1488 C 0.89182 0.89535 0.59671 0.0
C1489 C 0.92584 0.98391 0.59488 0.0
C1490 C 0.84526 0.92899 0.57857 0.0
C1491 C 0.80699 0.83764 0.58229 0.0
C1492 C 0.5909 0.69744 0.58533 0.0
C1493 C 0.60397 0.71663 0.60706 0.0
H1494 H 0.5757 0.66008 0.54341 0.0
C1495 C 0.73284 0.62625 0.57475 0.0
C1496 C 0.80522 0.72612 0.5317 0.0
C1497 C 0.834 0.52713 0.5466 0.0
C1498 C 0.87362 0.47582 0.55201 0.0
C1499 C 0.8225 0.46418 0.51914 0.0
C1500 C 0.81373 0.50146 0.52642 0.0
C1501 C 0.85202 0.45154 0.53172 0.0
C1502 C 0.86405 0.51377 0.55975 0.0
C1503 C 0.81782 0.56344 0.55325 0.0
H1504 H 0.96214 0.94873 0.6107 0.0
H1505 H 0.8952 0.86419 0.60239 0.0
H1506 H 0.95553 0.02085 0.59888 0.0
H1507 H 0.81224 0.92358 0.57002 0.0
H1508 H 0.80594 0.44465 0.50365 0.0
H1509 H 0.78986 0.50965 0.51627 0.0
H1510 H 0.85779 0.42206 0.52558 0.0
H1511 H 0.87964 0.5324 0.57553 0.0
C1512 C 0.55165 0.92544 0.09966 0.0
C1513 C 0.51355 0.92472 0.08676 0.0
H1514 H 0.60096 0.89664 0.10348 0.0
C1515 C 0.48849 0.88637 0.07103 0.0
H1516 H 0.57047 0.95318 0.11246 0.0
C1517 C 0.50502 0.85322 0.06642 0.0
C1518 C 0.54664 0.85781 0.07751 0.0
H1519 H 0.4581 0.88384 0.06121 0.0
H1520 H 0.48781 0.82659 0.05293 0.0
C1521 C 0.56858 0.89257 0.09484 0.0
C1522 C 0.21427 0.68029 0.06226 0.0
C1523 C 0.20955 0.71475 0.07554 0.0
H1524 H 0.18623 0.60414 0.05474 0.0
C1525 C 0.17727 0.69858 0.09396 0.0
H1526 H 0.23896 0.69235 0.0479 0.0
C1527 C 0.14789 0.64799 0.0983 0.0
C1528 C 0.14922 0.61295 0.08381 0.0
H1529 H 0.17318 0.72492 0.10432 0.0
H1530 H 0.12275 0.6365 0.11241 0.0
C1531 C 0.1841 0.62978 0.06626 0.0
C1532 C 0.38741 0.52787 0.05806 0.0
C1533 C 0.36309 0.53916 0.07489 0.0
H1534 H 0.45345 0.52768 0.04842 0.0
C1535 C 0.38492 0.55412 0.0962 0.0
H1536 H 0.37083 0.5158 0.04159 0.0
C1537 C 0.43211 0.5607 0.10016 0.0
C1538 C 0.45773 0.55274 0.08274 0.0
H1539 H 0.3667 0.56324 0.10932 0.0
H1540 H 0.44968 0.57472 0.1163 0.0
C1541 C 0.43446 0.53475 0.06194 0.0
C1542 C 0.93316 0.53919 0.92198 0.0
C1543 C 0.93323 0.51377 0.90252 0.0
H1544 H 0.89212 0.56244 0.94261 0.0
C1545 C 0.89358 0.49653 0.8874 0.0
H1546 H 0.96336 0.55236 0.93391 0.0
C1547 C 0.85268 0.50188 0.89248 0.0
C1548 C 0.85142 0.52457 0.91267 0.0
H1549 H 0.89279 0.47613 0.8725 0.0
H1550 H 0.82096 0.48583 0.88136 0.0
C1551 C 0.89255 0.54473 0.92699 0.0
C1552 C 0.58904 0.39014 0.89733 0.0
C1553 C 0.55018 0.35686 0.91112 0.0
H1554 H 0.62731 0.4634 0.8835 0.0
C1555 C 0.51641 0.36978 0.91984 0.0
H1556 H 0.61536 0.38051 0.89055 0.0
C1557 C 0.52337 0.41694 0.91592 0.0
C1558 C 0.56373 0.45106 0.90307 0.0
H1559 H 0.48658 0.34455 0.93074 0.0
H1560 H 0.49906 0.42762 0.924 0.0
C1561 C 0.59579 0.43715 0.89332 0.0
C1562 C 0.65286 0.14934 0.89299 0.0
C1563 C 0.61811 0.14481 0.90931 0.0
H1564 H 0.72959 0.17842 0.88504 0.0
C1565 C 0.63517 0.17276 0.92919 0.0
H1566 H 0.64103 0.12976 0.87716 0.0
C1567 C 0.68588 0.20154 0.93338 0.0
C1568 C 0.72016 0.20282 0.91777 0.0
H1569 H 0.60952 0.17042 0.94204 0.0
H1570 H 0.69833 0.22092 0.94928 0.0
C1571 C 0.70352 0.17776 0.89728 0.0
C1572 C 0.16706 0.17938 0.4266 0.0
C1573 C 0.20002 0.18257 0.40978 0.0
H1574 H 0.13269 0.21585 0.44302 0.0
C1575 C 0.22773 0.22693 0.39793 0.0
H1576 H 0.14511 0.14511 0.4357 0.0
C1577 C 0.22019 0.26678 0.40186 0.0
C1578 C 0.18552 0.26279 0.41794 0.0
H1579 H 0.25296 0.22967 0.38474 0.0
H1580 H 0.23959 0.29972 0.39162 0.0
C1581 C 0.16002 0.21954 0.43075 0.0
C1582 C 0.87786 0.01567 0.39355 0.0
C1583 C 0.87602 0.05102 0.4074 0.0
H1584 H 0.84809 0.93873 0.38664 0.0
C1585 C 0.84691 0.03623 0.42685 0.0
H1586 H 0.90043 0.02686 0.37849 0.0
C1587 C 0.81717 0.98604 0.43165 0.0
C1588 C 0.81548 0.95014 0.41675 0.0
H1589 H 0.84531 0.06337 0.43767 0.0
H1590 H 0.79385 0.97553 0.44642 0.0
C1591 C 0.84782 0.96544 0.39822 0.0
C1592 C 0.11043 0.92271 0.39738 0.0
C1593 C 0.12495 0.90355 0.4153 0.0
H1594 H 0.0503 0.91655 0.37763 0.0
C1595 C 0.08824 0.86781 0.42943 0.0
H1596 H 0.13741 0.95019 0.38622 0.0
C1597 C 0.03819 0.84799 0.42427 0.0
C1598 C 0.02433 0.8643 0.40516 0.0
H1599 H 0.098 0.85325 0.44379 0.0
H1600 H 1.01063 0.81768 0.43426 0.0
C1601 C 0.06052 0.90338 0.3924 0.0
C1602 C 0.54703 0.85558 0.26617 0.0
C1603 C 0.51247 0.84769 0.2493 0.0
H1604 H 0.61135 0.85159 0.27527 0.0
C1605 C 0.5191 0.83415 0.2276 0.0
H1606 H 0.54286 0.86678 0.28291 0.0
C1607 C 0.55828 0.82562 0.22324 0.0
C1608 C 0.59066 0.83021 0.24061 0.0
H1609 H 0.4926 0.82773 0.21442 0.0
H1610 H 0.56175 0.81299 0.20671 0.0
C1611 C 0.58583 0.84674 0.26186 0.0
C1612 C 0.25216 0.76406 0.22344 0.0
C1613 C 0.23061 0.78388 0.23765 0.0
H1614 H 0.26381 0.70279 0.21722 0.0
C1615 C 0.19955 0.75525 0.25521 0.0
H1616 H 0.27662 0.7861 0.20996 0.0
C1617 C 0.19201 0.7079 0.25923 0.0
C1618 C 0.21589 0.68915 0.24585 0.0
H1619 H 0.18302 0.77035 0.2664 0.0
H1620 H 0.16963 0.68695 0.27345 0.0
C1621 C 0.24488 0.71677 0.22756 0.0
C1622 C 0.35525 0.51899 0.26738 0.0
C1623 C 0.38164 0.55094 0.24962 0.0
H1624 H 0.28638 0.45735 0.27821 0.0
C1625 C 0.36025 0.54217 0.22815 0.0
H1626 H 0.37145 0.52507 0.28401 0.0
C1627 C 0.31182 0.50339 0.22482 0.0
C1628 C 0.28434 0.47372 0.24303 0.0
H1629 H 0.37997 0.56682 0.21432 0.0
H1630 H 0.29498 0.49824 0.20838 0.0
C1631 C 0.30677 0.48073 0.26413 0.0
C1632 C 0.88333 0.59183 0.74322 0.0
C1633 C 0.83545 0.58333 0.74752 0.0
H1634 H 0.92803 0.55955 0.73491 0.0
C1635 C 0.79618 0.53462 0.74911 0.0
H1636 H 0.91411 0.62898 0.74165 0.0
C1637 C 0.8038 0.49496 0.74487 0.0
C1638 C 0.85111 0.5034 0.73929 0.0
H1639 H 0.75943 0.52732 0.75332 0.0
H1640 H 0.77246 0.45766 0.7454 0.0
C1641 C 0.89121 0.55209 0.73926 0.0
C1642 C 0.55466 0.35048 0.76201 0.0
C1643 C 0.55833 0.37459 0.74159 0.0
H1644 H 0.51378 0.28349 0.78111 0.0
C1645 C 0.52086 0.3516 0.72544 0.0
H1646 H 0.58364 0.36759 0.77451 0.0
C1647 C 0.48166 0.30374 0.72905 0.0
C1648 C 0.47933 0.27864 0.74894 0.0
H1649 H 0.52318 0.36983 0.70962 0.0
H1650 H 0.45407 0.28569 0.71602 0.0
C1651 C 0.51507 0.30266 0.76572 0.0
C1652 C 0.72045 0.23903 0.75874 0.0
C1653 C 0.69648 0.2165 0.73857 0.0
H1654 H 0.78713 0.26671 0.77817 0.0
C1655 C 0.71939 0.20025 0.72318 0.0
H1656 H 0.70322 0.252 0.77069 0.0
C1657 C 0.76711 0.2091 0.7273 0.0
C1658 C 0.79205 0.23391 0.74691 0.0
H1659 H 0.70109 0.18248 0.70761 0.0
H1660 H 0.78507 0.19785 0.71492 0.0
C1661 C 0.76812 0.24752 0.76295 0.0
C1662 C 0.22329 0.21106 0.5916 0.0
C1663 C 0.17801 0.18113 0.58077 0.0
H1664 H 0.29723 0.22543 0.59688 0.0
C1665 C 0.17358 0.14541 0.56518 0.0
H1666 H 0.22701 0.23849 0.60384 0.0
C1667 C 0.21358 0.13817 0.56115 0.0
C1668 C 0.25811 0.16659 0.57271 0.0
H1669 H 0.13865 0.12189 0.55684 0.0
H1670 H 0.20923 0.10926 0.54967 0.0
C1671 C 0.26321 0.20368 0.58763 0.0
C1672 C 0.85525 0.03783 0.58988 0.0
C1673 C 0.88116 0.02118 0.57654 0.0
H1674 H 0.84502 0.09917 0.59822 0.0
C1675 C 0.91199 0.05145 0.55924 0.0
H1676 H 0.83171 0.01513 0.60346 0.0
C1677 C 0.91921 0.09901 0.55615 0.0
C1678 C 0.89612 0.11692 0.5705 0.0
H1679 H 0.93256 0.03926 0.54896 0.0
H1680 H 0.94497 0.12277 0.54342 0.0
C1681 C 0.86299 0.08572 0.58696 0.0
C1682 C 0.02773 0.85456 0.6006 0.0
C1683 C 0.04942 0.89193 0.58432 0.0
H1684 H 0.9635 0.7862 0.61014 0.0
C1685 C 0.02418 0.88766 0.5642 0.0
H1686 H 0.0469 0.85739 0.6162 0.0
C1687 C 0.97688 0.84713 0.56073 0.0
C1688 C 0.95433 0.81098 0.57747 0.0
H1689 H 0.04034 0.91652 0.55159 0.0
H1690 H 0.95718 0.84497 0.54539 0.0
C1691 C 0.98028 0.8143 0.59722 0.0
C1692 C 0.47336 0.04734 0.00687 0.0
C1693 C 0.51432 0.05144 0.01822 0.0
H1694 H 0.42886 0.0225 0.9773 0.0
C1695 C 0.54915 0.04503 0.00569 0.0
H1696 H 0.44701 0.0538 0.01579 0.0
C1697 C 0.54325 0.03673 0.9822 0.0
C1698 C 0.49937 0.02829 0.97147 0.0
H1699 H 0.58055 0.04601 0.01384 0.0
H1700 H 0.57305 0.0374 0.97271 0.0
C1701 C 0.46384 0.03131 0.98461 0.0
C1702 C 0.0897 0.52955 0.9826 0.0
C1703 C 0.04612 0.5093 0.96999 0.0
H1704 H 0.12197 0.5411 0.01532 0.0
C1705 C 1.0006 0.49017 0.98175 0.0
H1706 H 0.12525 0.54513 0.97429 0.0
C1707 C 0.99829 0.48642 0.00529 0.0
C1708 C 0.04155 0.50258 0.01782 0.0
H1709 H 0.96598 0.47527 0.97268 0.0
H1710 H 0.96254 0.46862 0.01351 0.0
C1711 C 0.08744 0.52664 0.00621 0.0
C1712 C 0.5391 0.51964 0.98 0.0
C1713 C 0.56363 0.56598 0.96893 0.0
H1714 H 0.52313 0.48095 0.01168 0.0
C1715 C 0.59574 0.60737 0.98151 0.0
H1716 H 0.51544 0.48635 0.97054 0.0
C1717 C 0.60696 0.60225 0.00363 0.0
C1718 C 0.58042 0.5579 0.0156 0.0
H1719 H 0.61579 0.64332 0.97356 0.0
H1720 H 0.63671 0.63348 0.01178 0.0
C1721 C 0.54542 0.51604 0.00345 0.0
C1722 C 0.21591 0.37711 0.33874 0.0
C1723 C 0.18168 0.38478 0.35113 0.0
H1724 H 0.23873 0.36708 0.30586 0.0
C1725 C 0.14068 0.38041 0.33969 0.0
H1726 H 0.24736 0.37836 0.347 0.0
C1727 C 0.13032 0.36265 0.31768 0.0
C1728 C 0.16527 0.35843 0.30461 0.0
H1729 H 0.11473 0.38774 0.34846 0.0
H1730 H 0.09524 0.35374 0.31043 0.0
C1731 C 0.20934 0.36729 0.31533 0.0
C1732 C 0.74216 0.86444 0.3389 0.0
C1733 C 0.69673 0.83708 0.35064 0.0
H1734 H 0.78027 0.8813 0.30714 0.0
C1735 C 0.65312 0.81387 0.33808 0.0
H1736 H 0.77673 0.88421 0.34801 0.0
C1737 C 0.6554 0.81364 0.31448 0.0
C1738 C 0.70133 0.83564 0.30288 0.0
H1739 H 0.61766 0.79308 0.34641 0.0
H1740 H 0.6209 0.79316 0.30538 0.0
C1741 C 0.74452 0.86323 0.31536 0.0
C1742 C 0.21488 0.92576 0.31484 0.0
C1743 C 0.2333 0.90025 0.30252 0.0
H1744 H 0.20352 0.94776 0.34729 0.0
C1745 C 0.24887 0.87116 0.31453 0.0
H1746 H 0.20227 0.94808 0.30629 0.0
C1747 C 0.25062 0.87153 0.33816 0.0
C1748 C 0.23641 0.9007 0.35046 0.0
H1749 H 0.26238 0.84999 0.30558 0.0
H1750 H 0.26552 0.85116 0.34667 0.0
C1751 C 0.21621 0.92578 0.33845 0.0
C1752 C 0.80349 0.70727 0.67253 0.0
C1753 C 0.84077 0.7071 0.68534 0.0
H1754 H 0.76269 0.6856 0.64182 0.0
C1755 C 0.87415 0.69599 0.67434 0.0
H1756 H 0.77906 0.71823 0.68013 0.0
C1757 C 0.87087 0.6878 0.65082 0.0
C1758 C 0.8302 0.68382 0.63864 0.0
H1759 H 0.90251 0.69357 0.68373 0.0
H1760 H 0.90019 0.68524 0.64247 0.0
C1761 C 0.79524 0.69049 0.6504 0.0
C1762 C 0.32944 0.15279 0.64836 0.0
C1763 C 0.37473 0.1711 0.63652 0.0
H1764 H 0.29188 0.13299 0.68031 0.0
C1765 C 0.41844 0.19107 0.64902 0.0
H1766 H 0.29484 0.1379 0.63925 0.0
C1767 C 0.41653 0.18856 0.67262 0.0
C1768 C 0.37085 0.16573 0.68442 0.0
H1769 H 0.45381 0.20568 0.64062 0.0
H1770 H 0.45118 0.20251 0.68158 0.0
C1771 C 0.32747 0.14997 0.67197 0.0
C1772 C 0.91632 0.2033 0.64819 0.0
C1773 C 0.89905 0.23125 0.63637 0.0
H1774 H 0.93475 0.18435 0.68018 0.0
C1775 C 0.87807 0.25411 0.64885 0.0
H1776 H 0.93157 0.18382 0.63912 0.0
C1777 C 0.87892 0.25323 0.67246 0.0
C1778 C 0.9015 0.23017 0.68428 0.0
H1779 H 0.86378 0.27518 0.64048 0.0
H1780 H 0.8643 0.27334 0.68146 0.0
C1781 C 0.91797 0.20313 0.67182 0.0
C1782 C 0.35191 0.0149 0.16708 0.0
C1783 C 0.33161 0.96595 0.17519 0.0
H1784 H 0.40608 0.07175 0.14519 0.0
C1785 C 0.35317 0.93811 0.16773 0.0
H1786 H 0.33756 0.03809 0.17303 0.0
C1787 C 0.39415 0.95836 0.15339 0.0
C1788 C 0.41397 1.00656 0.14473 0.0
H1789 H 0.33957 0.90078 0.17384 0.0
H1790 H 0.40885 0.935 0.14808 0.0
C1791 C 0.39263 0.03496 0.15192 0.0
C1792 C 0.10924 0.45553 0.15342 0.0
C1793 C 0.06052 0.42786 0.14518 0.0
H1794 H 0.16655 0.45839 0.17399 0.0
C1795 C 0.03166 0.37849 0.15278 0.0
H1796 H 0.13323 0.49315 0.14771 0.0
C1797 C 0.05146 0.35787 0.16814 0.0
C1798 C 0.10048 0.38622 0.17619 0.0
H1799 H 0.9947 0.35536 0.14622 0.0
H1800 H 0.02783 0.32078 0.17448 0.0
C1801 C 0.12903 0.43493 0.16807 0.0
C1802 C 0.62831 0.71142 0.16861 0.0
C1803 C 0.67785 0.73464 0.17599 0.0
H1804 H 0.57104 0.65619 0.1481 0.0
C1805 C 0.70768 0.71595 0.16746 0.0
H1806 H 0.60348 0.72334 0.1751 0.0
C1807 C 0.68835 0.67596 0.15176 0.0
C1808 C 0.63877 0.65378 0.14424 0.0
H1809 H 0.74532 0.7312 0.17337 0.0
H1810 H 0.71276 0.66413 0.14473 0.0
C1811 C 0.60909 0.6716 0.1535 0.0
C1812 C 0.96472 0.38991 0.83413 0.0
C1813 C 1.01257 0.40907 0.84311 0.0
H1814 H 0.90743 0.33636 0.81316 0.0
C1815 C 0.04011 0.38648 0.83632 0.0
H1816 H 0.94176 0.40523 0.83921 0.0
C1817 C 0.01987 0.34581 0.82103 0.0
C1818 C 0.97153 0.32668 0.81235 0.0
H1819 H 0.07641 0.39901 0.84341 0.0
H1820 H 0.04266 0.3308 0.81533 0.0
C1821 C 0.94432 0.34908 0.81963 0.0
C1822 C 0.68366 0.68388 0.83504 0.0
C1823 C 0.66156 0.63415 0.84228 0.0
H1824 H 0.73951 0.74149 0.81399 0.0
C1825 C 0.6806 0.60504 0.83359 0.0
H1826 H 0.67114 0.7079 0.8419 0.0
C1827 C 0.72102 0.62479 0.81891 0.0
C1828 C 0.74335 0.67419 0.81146 0.0
H1829 H 0.66549 0.56701 0.83902 0.0
H1830 H 0.73384 0.60047 0.81269 0.0
C1831 C 0.72428 0.70377 0.81981 0.0
C1832 C 0.44126 0.12476 0.82148 0.0
C1833 C 0.39324 0.09607 0.81269 0.0
H1834 H 0.49846 0.12856 0.84241 0.0
C1835 C 0.36487 0.0465 0.82004 0.0
H1836 H 0.46469 0.16265 0.81598 0.0
C1837 C 0.38465 0.02645 0.83567 0.0
C1838 C 0.43328 0.05554 0.84401 0.0
H1839 H 0.32839 0.02283 0.81309 0.0
H1840 H 0.3615 0.98905 0.84177 0.0
C1841 C 0.46127 0.1046 0.83622 0.0
C1842 C 0.01852 0.35072 0.5007 0.0
C1843 C 0.99814 0.30167 0.50874 0.0
H1844 H 0.07252 0.40774 0.4788 0.0
C1845 C 0.01965 0.27392 0.50104 0.0
H1846 H 1.00442 0.37397 0.50686 0.0
C1847 C 0.06029 0.29413 0.48646 0.0
C1848 C 0.08014 0.34241 0.47786 0.0
H1849 H 1.00616 0.23657 0.5071 0.0
H1850 H 0.07479 0.27071 0.48096 0.0
C1851 C 0.05907 0.37085 0.4854 0.0
C1852 C 0.7695 0.74672 0.47245 0.0
C1853 C 0.74314 0.77218 0.4766 0.0
H1854 H 0.80686 0.70996 0.48571 0.0
C1855 C 0.73752 0.78178 0.49902 0.0
H1856 H 0.77646 0.73972 0.4555 0.0
C1857 C 0.7582 0.76731 0.51641 0.0
C1858 C 0.78303 0.74025 0.51234 0.0
H1859 H 0.71909 0.80229 0.50319 0.0
H1860 H 0.75291 0.77625 0.53324 0.0
C1861 C 0.78761 0.72965 0.48992 0.0
C1862 C 0.35469 1.0121 0.48665 0.0
C1863 C 0.30555 0.99152 0.47881 0.0
H1864 H 0.41225 0.06708 0.50805 0.0
C1865 C 0.27745 0.01223 0.48692 0.0
H1866 H 0.37801 0.99829 0.48027 0.0
C1867 C 0.29772 0.05297 0.50141 0.0
C1868 C 0.34664 0.07407 0.50932 0.0
H1869 H 0.23987 0.99825 0.4811 0.0
H1870 H 0.27409 0.06699 0.50718 0.0
C1871 C 0.3751 0.05312 0.50171 0.0
C1872 C 0.4664 0.21631 0.10108 0.0
C1873 C 0.50856 0.25413 0.09022 0.0
H1874 H 0.4183 0.13817 0.10578 0.0
C1875 C 0.52826 0.2404 0.07208 0.0
H1876 H 0.45123 0.22516 0.11559 0.0
C1877 C 0.50897 0.19001 0.06635 0.0
C1878 C 0.46931 0.15206 0.07847 0.0
H1879 H 0.56166 0.2681 0.06385 0.0
H1880 H 0.52842 0.18054 0.05399 0.0
C1881 C 0.44722 0.1662 0.09536 0.0
C1882 C 0.82768 0.30993 0.07277 0.0
C1883 C 0.81315 0.27607 0.09071 0.0
H1884 H 0.88831 0.36982 0.05515 0.0
C1885 C 0.85023 0.27052 0.10159 0.0
H1886 H 0.80059 0.3166 0.06457 0.0
C1887 C 0.90054 0.30091 0.09612 0.0
C1888 C 0.91543 0.33768 0.07951 0.0
H1889 H 0.84071 0.24614 0.11598 0.0
H1890 H 0.9281 0.29927 0.10659 0.0
C1891 C 0.87817 0.34042 0.0673 0.0
C1892 C 0.7723 0.63127 0.07721 0.0
C1893 C 0.72355 0.59303 0.07363 0.0
H1894 H 0.84621 0.6507 0.08688 0.0
C1895 C 0.71459 0.54389 0.07375 0.0
H1896 H 0.78047 0.66933 0.07792 0.0
C1897 C 0.75218 0.53295 0.07899 0.0
C1898 C 0.80007 0.57096 0.08443 0.0
H1899 H 0.67741 0.51347 0.07134 0.0
H1900 H 0.74261 0.49459 0.08068 0.0
C1901 C 0.80994 0.62037 0.08253 0.0
C1902 C 0.2194 0.4426 0.90657 0.0
C1903 C 0.25839 0.49118 0.90191 0.0
H1904 H 0.14132 0.3948 0.91286 0.0
C1905 C 0.24839 0.53008 0.9043 0.0
H1906 H 0.2256 0.41156 0.90482 0.0
C1907 C 0.20013 0.52023 0.9091 0.0
C1908 C 0.16021 0.47142 0.91167 0.0
H1909 H 0.27678 0.56774 0.90057 0.0
H1910 H 0.19333 0.55087 0.9093 0.0
C1911 C 0.17095 0.43281 0.91137 0.0
C1912 C 0.54654 0.75195 0.91719 0.0
C1913 C 0.56334 0.78531 0.89902 0.0
H1914 H 0.55031 0.69306 0.93422 0.0
C1915 C 0.60439 0.7909 0.88673 0.0
H1916 H 0.51398 0.74548 0.92647 0.0
C1917 C 0.62542 0.76109 0.89127 0.0
C1918 C 0.60607 0.72488 0.90825 0.0
H1919 H 0.61721 0.81501 0.87218 0.0
H1920 H 0.65343 0.76275 0.87994 0.0
C1921 C 0.56766 0.72207 0.92174 0.0
C1922 C 0.30616 0.89516 0.89476 0.0
C1923 C 0.34618 0.9089 0.90945 0.0
H1924 H 0.24736 0.83642 0.87595 0.0
C1925 C 0.35143 0.87102 0.91965 0.0
H1926 H 0.30245 0.9234 0.88583 0.0
C1927 C 0.31984 0.82095 0.91395 0.0
C1928 C 0.28242 0.8076 0.89777 0.0
H1929 H 0.38321 0.88048 0.93022 0.0
H1930 H 0.32805 0.79337 0.92038 0.0
C1931 C 0.27469 0.84518 0.88902 0.0
C1932 C 0.13759 0.55646 0.43147 0.0
C1933 C 0.17912 0.59168 0.41935 0.0
H1934 H 0.0883 0.47938 0.43848 0.0
C1935 C 0.19677 0.57448 0.40172 0.0
H1936 H 0.12415 0.56813 0.44568 0.0
C1937 C 0.17583 0.52332 0.39746 0.0
C1938 C 0.13676 0.48797 0.41074 0.0
H1939 H 0.22979 0.6003 0.39264 0.0
H1940 H 0.19373 0.51136 0.38538 0.0
C1941 C 0.1168 0.50541 0.42725 0.0
C1942 C 0.54507 0.68098 0.399 0.0
C1943 C 0.58089 0.68269 0.41394 0.0
H1944 H 0.46767 0.65554 0.39335 0.0
C1945 C 0.56404 0.65269 0.43329 0.0
H1946 H 0.55658 0.70526 0.38452 0.0
C1947 C 0.51347 0.6242 0.43827 0.0
C1948 C 0.47772 0.62501 0.42422 0.0
H1949 H 0.59013 0.65469 0.44579 0.0
H1950 H 0.50252 0.60496 0.45423 0.0
C1951 C 0.49402 0.65258 0.40412 0.0
C1952 C 0.4189 0.8659 0.42187 0.0
C1953 C 0.46828 0.90423 0.4215 0.0
H1954 H 0.34285 0.84597 0.41994 0.0
C1955 C 0.4782 0.95193 0.41494 0.0
H1956 H 0.40975 0.82915 0.42734 0.0
C1957 C 0.43953 0.96179 0.41052 0.0
C1958 C 0.3901 0.92424 0.41297 0.0
H1959 H 0.51593 0.98244 0.41483 0.0
H1960 H 0.44833 0.99944 0.40715 0.0
C1961 C 0.38047 0.87583 0.41777 0.0
C1962 C 0.87043 0.85527 0.23685 0.0
C1963 C 0.83175 0.80651 0.24109 0.0
H1964 H 0.94668 0.9029 0.22799 0.0
C1965 C 0.84399 0.76915 0.24332 0.0
H1966 H 0.86242 0.88502 0.23492 0.0
C1967 C 0.89283 0.77961 0.2392 0.0
C1968 C 0.93058 0.82771 0.23311 0.0
H1969 H 0.81527 0.73127 0.24629 0.0
H1970 H 0.90034 0.74927 0.23911 0.0
C1971 C 0.91912 0.8658 0.23304 0.0
C1972 C 0.29576 0.09591 0.22412 0.0
C1973 C 0.27523 0.05833 0.24045 0.0
H1974 H 0.28831 0.15067 0.20534 0.0
C1975 C 0.23484 0.05342 0.2531 0.0
H1976 H 0.32529 0.09914 0.21337 0.0
C1977 C 0.21327 0.08277 0.24836 0.0
C1978 C 0.23157 0.11776 0.23085 0.0
H1979 H 0.2166 0.02328 0.265 0.0
H1980 H 0.17946 0.0748 0.25694 0.0
C1981 C 0.27428 0.12527 0.2194 0.0
C1982 C 0.945 0.17378 0.21956 0.0
C1983 C 0.95049 0.13767 0.23136 0.0
H1984 H 0.97358 0.25137 0.21341 0.0
C1985 C 0.98447 0.15353 0.24927 0.0
H1986 H 0.92046 0.16306 0.20519 0.0
C1987 C 1.01481 0.20435 0.25407 0.0
C1988 C 1.01191 0.24063 0.24113 0.0
H1989 H 0.99098 0.127 0.25814 0.0
H1990 H 0.04414 0.2154 0.26634 0.0
C1991 C 0.9753 0.22453 0.22437 0.0
C1992 C 0.78613 0.84021 0.76755 0.0
C1993 C 0.80171 0.82293 0.74919 0.0
H1994 H 0.79796 0.90287 0.78734 0.0
C1995 C 0.83664 0.85815 0.7343 0.0
H1996 H 0.76093 0.81418 0.77985 0.0
C1997 C 0.85823 0.90931 0.73868 0.0
C1998 C 0.8454 0.92635 0.75806 0.0
H1999 H 0.85111 0.84617 0.72061 0.0
H2000 H 0.88827 0.93526 0.72808 0.0
C2001 C 0.80763 0.89116 0.77192 0.0
C2002 C 0.23029 0.96981 0.76334 0.0
C2003 C 0.24805 1.00601 0.74633 0.0
H2004 H 0.16758 0.91734 0.78264 0.0
C2005 C 0.21301 1.01036 0.73309 0.0
H2006 H 0.25619 0.96708 0.77455 0.0
C2007 C 0.16197 0.98198 0.73785 0.0
C2008 C 0.14463 0.94853 0.75599 0.0
H2009 H 0.22535 0.03949 0.72063 0.0
H2010 H 0.13654 0.98961 0.7287 0.0
C2011 C 0.17936 0.94148 0.7681 0.0
C2012 C 0.08501 0.19886 0.75504 0.0
C2013 C 0.13442 0.23659 0.75311 0.0
H2014 H 1.00917 0.17985 0.75513 0.0
C2015 C 0.14399 0.28376 0.74583 0.0
H2016 H 0.07616 0.16258 0.7611 0.0
C2017 C 0.10519 0.29385 0.74222 0.0
C2018 C 0.05602 0.25714 0.74625 0.0
H2019 H 0.18179 0.31387 0.74454 0.0
H2020 H 0.11396 0.33123 0.7382 0.0
C2021 C 0.04651 0.20909 0.75179 0.0
C2022 C 0.53811 0.19062 0.56904 0.0
C2023 C 0.49942 0.14255 0.57437 0.0
H2024 H 0.61412 0.23695 0.55958 0.0
C2025 C 0.51152 0.10539 0.57787 0.0
H2026 H 0.53027 0.22013 0.56603 0.0
C2027 C 0.56022 0.1152 0.57395 0.0
C2028 C 0.59792 0.16249 0.56688 0.0
H2029 H 0.48277 0.06797 0.58169 0.0
H2030 H 0.56767 0.08485 0.57485 0.0
C2031 C 0.58661 0.20056 0.56548 0.0
C2032 C 0.90381 0.39207 0.58644 0.0
C2033 C 0.9439 0.39485 0.57423 0.0
H2034 H 0.85077 0.41682 0.58956 0.0
C2035 C 0.9665 0.43248 0.55803 0.0
H2036 H 0.88394 0.36206 0.59825 0.0
C2037 C 0.94743 0.46387 0.55302 0.0
C2038 C 0.90483 0.45851 0.56392 0.0
H2039 H 0.99575 0.43425 0.54753 0.0
H2040 H 0.96295 0.48904 0.53893 0.0
C2041 C 0.88459 0.4235 0.5814 0.0
C2042 C 0.65963 0.48726 0.58393 0.0
C2043 C 0.62971 0.47156 0.56452 0.0
H2044 H 0.71502 0.54929 0.60293 0.0
C2045 C 0.62824 0.50772 0.55106 0.0
H2046 H 0.66295 0.46043 0.5942 0.0
C2047 C 0.65839 0.55817 0.55582 0.0
C2048 C 0.69021 0.57444 0.57455 0.0
H2049 H 0.60695 0.49708 0.53562 0.0
H2050 H 0.65955 0.58423 0.54362 0.0
C2051 C 0.68944 0.53822 0.58894 0.0
loop_
_geom_bond_atom_site_label_1
_geom_bond_atom_site_label_2
_geom_bond_distance
_geom_bond_site_symmetry_2
_ccdc_geom_bond_type
C0 C2 1.422 . S
C0 C4 1.415 1_545 S
C0 N6 1.369 . S
C1 C2 1.421 1_565 S
C1 C3 1.417 . S
C1 C13 1.422 . S
C2 C0 1.422 . S
C2 C1 1.421 1_545 S
C2 N12 1.359 . S
C3 C1 1.417 . S
C3 C5 1.329 . S
C3 H22 0.930 . S
C4 C0 1.415 1_565 S
C4 C5 1.437 . S
C4 C8 1.413 . S
C5 C3 1.329 . S
C5 C4 1.437 . S
C5 H27 0.929 . S
N6 C0 1.369 . S
N6 C7 1.338 . S
N6 Gd11 2.622 . S
C7 N6 1.338 . S
C7 C9 1.378 1_545 S
C7 H19 0.929 . S
C8 C4 1.413 . S
C8 C9 1.348 . S
C8 H24 0.931 . S
C9 C7 1.378 1_565 S
C9 C8 1.348 . S
C9 H25 0.930 . S
Gd10 N30 2.622 . S
Gd10 N37 2.570 . S
Gd10 O44 2.353 . S
Gd10 O45 2.468 . S
Gd10 O46 2.427 . S
Gd10 O48 2.388 . S
Gd10 O49 2.386 1_565 S
Gd10 O53 2.307 . S
Gd10 C63 2.805 . S
Gd11 N6 2.622 . S
Gd11 N12 2.570 . S
Gd11 O43 2.386 1_545 S
Gd11 O47 2.307 . S
Gd11 O50 2.353 . S
Gd11 O51 2.468 . S
Gd11 O52 2.427 . S
Gd11 O54 2.388 . S
Gd11 C75 2.805 . S
N12 C2 1.359 . S
N12 Gd11 2.570 . S
N12 C14 1.343 . S
C13 C1 1.422 . S
C13 C15 1.321 1_565 S
C13 H21 0.931 . S
C14 N12 1.343 . S
C14 C15 1.390 . S
C14 H16 0.931 . S
C15 C13 1.321 1_545 S
C15 C14 1.390 . S
C15 H17 0.930 . S
H16 C14 0.931 . S
H17 C15 0.930 . S
H18 C41 0.931 . S
H19 C7 0.929 . S
H20 C42 0.930 . S
H21 C13 0.931 . S
H22 C3 0.930 . S
H23 C32 0.935 . S
H24 C8 0.931 . S
H25 C9 0.930 . S
H26 C64 0.930 . S
H27 C5 0.929 . S
H28 C33 0.931 1_556 S
H29 C34 0.930 1_556 S
N30 Gd10 2.622 . S
N30 C31 1.369 1_565 S
N30 C32 1.336 . S
C31 N30 1.369 1_545 S
C31 C35 1.415 . S
C31 C38 1.422 . S
C32 H23 0.935 . S
C32 N30 1.336 . S
C32 C34 1.373 1_565 S
C33 H28 0.931 1_554 S
C33 C34 1.348 . S
C33 C35 1.413 . S
C34 H29 0.930 1_554 S
C34 C32 1.373 1_545 S
C34 C33 1.348 . S
C35 C31 1.415 . S
C35 C33 1.413 . S
C35 C65 1.437 . S
H36 C65 0.929 . S
N37 Gd10 2.570 . S
N37 C38 1.359 1_565 S
N37 C41 1.343 . S
C38 C31 1.422 . S
C38 N37 1.359 1_545 S
C38 C40 1.421 . S
C39 C40 1.422 . S
C39 C42 1.321 . S
C39 H66 0.931 . S
C40 C38 1.421 . S
C40 C39 1.422 . S
C40 C64 1.417 . S
C41 H18 0.931 . S
C41 N37 1.343 . S
C41 C42 1.390 1_565 S
C42 H20 0.930 . S
C42 C39 1.321 . S
C42 C41 1.390 1_545 S
O43 Gd11 2.386 1_565 S
O43 C55 1.265 . S
O44 Gd10 2.353 . S
O44 C55 1.242 . S
O45 Gd10 2.468 . S
O45 C63 1.263 . S
O46 Gd10 2.427 . S
O46 C63 1.252 . S
O47 Gd11 2.307 . S
O47 C56 1.261 . S
O48 Gd10 2.388 . S
O48 C56 1.252 1_565 S
O49 Gd10 2.386 1_545 S
O49 C67 1.265 . S
O50 Gd11 2.353 . S
O50 C67 1.242 . S
O51 Gd11 2.468 . S
O51 C75 1.263 . S
O52 Gd11 2.427 . S
O52 C75 1.252 . S
O53 Gd10 2.307 . S
O53 C68 1.261 . S
O54 Gd11 2.388 . S
O54 C68 1.252 1_545 S
C55 O43 1.265 . S
C55 O44 1.242 . S
C56 O47 1.261 . S
C56 O48 1.252 1_545 S
C57 C60 1.394 . S
C57 C62 1.370 . S
C57 C63 1.500 . S
C58 C61 1.383 . S
C58 C62 1.395 . S
C59 C60 1.396 . S
C59 C61 1.365 . S
C59 H76 0.929 . S
C60 C57 1.394 . S
C60 C59 1.396 . S
C60 H77 0.930 . S
C61 C58 1.383 . S
C61 C59 1.365 . S
C61 H78 0.931 . S
C62 C57 1.370 . S
C62 C58 1.395 . S
C62 H79 0.930 . S
C63 Gd10 2.805 . S
C63 O45 1.263 . S
C63 O46 1.252 . S
C63 C57 1.500 . S
C64 H26 0.930 . S
C64 C40 1.417 . S
C64 C65 1.329 . S
C65 C35 1.437 . S
C65 H36 0.929 . S
C65 C64 1.329 . S
H66 C39 0.931 . S
C67 O49 1.265 . S
C67 O50 1.242 . S
C68 O53 1.261 . S
C68 O54 1.252 1_565 S
C69 C72 1.394 . S
C69 C74 1.370 . S
C69 C75 1.500 . S
C70 C73 1.383 . S
C70 C74 1.395 . S
C71 C72 1.396 . S
C71 C73 1.365 . S
C71 H80 0.929 . S
C72 C69 1.394 . S
C72 C71 1.396 . S
C72 H81 0.930 . S
C73 C70 1.383 . S
C73 C71 1.365 . S
C73 H82 0.931 . S
C74 C69 1.370 . S
C74 C70 1.395 . S
C74 H83 0.930 . S
C75 Gd11 2.805 . S
C75 O51 1.263 . S
C75 O52 1.252 . S
C75 C69 1.500 . S
H76 C59 0.929 . S
H77 C60 0.930 . S
H78 C61 0.931 . S
H79 C62 0.930 . S
H80 C71 0.929 . S
H81 C72 0.930 . S
H82 C73 0.931 . S
H83 C74 0.930 . S
C84 C86 1.422 . S
C84 C88 1.415 . S
C84 N90 1.369 . S
C85 C86 1.421 . S
C85 C87 1.417 . S
C85 C97 1.422 . S
C86 C84 1.422 . S
C86 C85 1.421 . S
C86 N96 1.359 . S
C87 C85 1.417 . S
C87 C89 1.329 . S
C87 H106 0.930 . S
C88 C84 1.415 . S
C88 C89 1.437 . S
C88 C92 1.413 . S
C89 C87 1.329 . S
C89 C88 1.437 . S
C89 H111 0.929 . S
N90 C84 1.369 . S
N90 C91 1.338 . S
N90 Gd95 2.622 1_455 S
C91 N90 1.338 . S
C91 C93 1.378 . S
C91 H103 0.929 . S
C92 C88 1.413 . S
C92 C93 1.348 . S
C92 H108 0.931 . S
C93 C91 1.378 . S
C93 C92 1.348 . S
C93 H109 0.930 . S
Gd94 N114 2.622 . S
Gd94 N121 2.570 . S
Gd94 O128 2.353 . S
Gd94 O129 2.468 . S
Gd94 O130 2.427 . S
Gd94 O132 2.388 . S
Gd94 O133 2.386 1_455 S
Gd94 O137 2.307 . S
Gd94 C147 2.805 . S
Gd95 N90 2.622 1_655 S
Gd95 N96 2.570 1_655 S
Gd95 O127 2.386 1_655 S
Gd95 O131 2.307 1_655 S
Gd95 O134 2.353 . S
Gd95 O135 2.468 . S
Gd95 O136 2.427 . S
Gd95 O138 2.388 1_655 S
Gd95 C159 2.805 . S
N96 C86 1.359 . S
N96 Gd95 2.570 1_455 S
N96 C98 1.343 . S
C97 C85 1.422 . S
C97 C99 1.321 . S
C97 H105 0.931 . S
C98 N96 1.343 . S
C98 C99 1.390 . S
C98 H100 0.931 . S
C99 C97 1.321 . S
C99 C98 1.390 . S
C99 H101 0.930 . S
H100 C98 0.931 . S
H101 C99 0.930 . S
H102 C125 0.931 . S
H103 C91 0.929 . S
H104 C126 0.930 . S
H105 C97 0.931 . S
H106 C87 0.930 . S
H107 C116 0.929 . S
H108 C92 0.931 . S
H109 C93 0.930 . S
H110 C148 0.930 . S
H111 C89 0.929 . S
H112 C117 0.931 1_656 S
H113 C118 0.930 1_556 S
N114 Gd94 2.622 . S
N114 C115 1.369 . S
N114 C116 1.338 . S
C115 N114 1.369 . S
C115 C119 1.415 . S
C115 C122 1.422 . S
C116 H107 0.929 . S
C116 N114 1.338 . S
C116 C118 1.378 . S
C117 H112 0.931 1_454 S
C117 C118 1.348 . S
C117 C119 1.413 . S
C118 H113 0.930 1_554 S
C118 C116 1.378 . S
C118 C117 1.348 . S
C119 C115 1.415 . S
C119 C117 1.413 . S
C119 C149 1.437 1_455 S
H120 C149 0.929 . S
N121 Gd94 2.570 . S
N121 C122 1.359 . S
N121 C125 1.343 . S
C122 C115 1.422 . S
C122 N121 1.359 . S
C122 C124 1.421 . S
C123 C124 1.422 . S
C123 C126 1.321 . S
C123 H150 0.931 1_455 S
C124 C122 1.421 . S
C124 C123 1.422 . S
C124 C148 1.417 1_455 S
C125 H102 0.931 . S
C125 N121 1.343 . S
C125 C126 1.390 . S
C126 H104 0.930 . S
C126 C123 1.321 . S
C126 C125 1.390 . S
O127 Gd95 2.386 1_455 S
O127 C139 1.265 . S
O128 Gd94 2.353 . S
O128 C139 1.242 . S
O129 Gd94 2.468 . S
O129 C147 1.263 . S
O130 Gd94 2.427 . S
O130 C147 1.252 . S
O131 Gd95 2.307 1_455 S
O131 C140 1.261 . S
O132 Gd94 2.388 . S
O132 C140 1.252 . S
O133 Gd94 2.386 1_655 S
O133 C151 1.265 . S
O134 Gd95 2.353 . S
O134 C151 1.242 . S
O135 Gd95 2.468 . S
O135 C159 1.263 . S
O136 Gd95 2.427 . S
O136 C159 1.252 . S
O137 Gd94 2.307 . S
O137 C152 1.261 . S
O138 Gd95 2.388 1_455 S
O138 C152 1.252 . S
C139 O127 1.265 . S
C139 O128 1.242 . S
C140 O131 1.261 . S
C140 O132 1.252 . S
C141 C144 1.394 . S
C141 C146 1.370 . S
C141 C147 1.500 . S
C142 C145 1.383 . S
C142 C146 1.395 . S
C143 C144 1.396 . S
C143 C145 1.365 . S
C143 H160 0.929 . S
C144 C141 1.394 . S
C144 C143 1.396 . S
C144 H161 0.930 . S
C145 C142 1.383 . S
C145 C143 1.365 . S
C145 H162 0.931 . S
C146 C141 1.370 . S
C146 C142 1.395 . S
C146 H163 0.930 . S
C147 Gd94 2.805 . S
C147 O129 1.263 . S
C147 O130 1.252 . S
C147 C141 1.500 . S
C148 H110 0.930 . S
C148 C124 1.417 1_655 S
C148 C149 1.329 . S
C149 C119 1.437 1_655 S
C149 H120 0.929 . S
C149 C148 1.329 . S
H150 C123 0.931 1_655 S
C151 O133 1.265 . S
C151 O134 1.242 . S
C152 O137 1.261 . S
C152 O138 1.252 . S
C153 C156 1.394 . S
C153 C158 1.370 . S
C153 C159 1.500 . S
C154 C157 1.383 . S
C154 C158 1.395 . S
C155 C156 1.396 . S
C155 C157 1.365 . S
C155 H164 0.929 . S
C156 C153 1.394 . S
C156 C155 1.396 . S
C156 H165 0.930 . S
C157 C154 1.383 . S
C157 C155 1.365 . S
C157 H166 0.931 . S
C158 C153 1.370 . S
C158 C154 1.395 . S
C158 H167 0.930 . S
C159 Gd95 2.805 . S
C159 O135 1.263 . S
C159 O136 1.252 . S
C159 C153 1.500 . S
H160 C143 0.929 . S
H161 C144 0.930 . S
H162 C145 0.931 . S
H163 C146 0.930 . S
H164 C155 0.929 . S
H165 C156 0.930 . S
H166 C157 0.931 . S
H167 C158 0.930 . S
C168 C170 1.422 . S
C168 C172 1.415 . S
C168 N174 1.369 . S
C169 C170 1.421 . S
C169 C171 1.417 . S
C169 C181 1.422 . S
C170 C168 1.422 . S
C170 C169 1.421 . S
C170 N180 1.359 . S
C171 C169 1.417 . S
C171 C173 1.329 . S
C171 H190 0.930 . S
C172 C168 1.415 . S
C172 C173 1.437 . S
C172 C176 1.413 . S
C173 C171 1.329 . S
C173 C172 1.437 . S
C173 H195 0.929 . S
N174 C168 1.369 . S
N174 C175 1.338 . S
N174 Gd179 2.622 . S
C175 N174 1.338 . S
C175 C177 1.378 . S
C175 H187 0.929 . S
C176 C172 1.413 . S
C176 C177 1.348 . S
C176 H192 0.931 . S
C177 C175 1.378 . S
C177 C176 1.348 . S
C177 H193 0.930 . S
Gd178 N198 2.622 . S
Gd178 N205 2.570 . S
Gd178 O212 2.353 . S
Gd178 O213 2.468 . S
Gd178 O214 2.427 . S
Gd178 O216 2.388 . S
Gd178 O217 2.386 . S
Gd178 O221 2.307 . S
Gd178 C231 2.805 . S
Gd179 N174 2.622 . S
Gd179 N180 2.570 . S
Gd179 O211 2.386 . S
Gd179 O215 2.307 . S
Gd179 O218 2.353 . S
Gd179 O219 2.468 . S
Gd179 O220 2.427 . S
Gd179 O222 2.388 . S
Gd179 C243 2.805 . S
N180 C170 1.359 . S
N180 Gd179 2.570 . S
N180 C182 1.343 . S
C181 C169 1.422 . S
C181 C183 1.321 . S
C181 H189 0.931 . S
C182 N180 1.343 . S
C182 C183 1.390 . S
C182 H184 0.931 . S
C183 C181 1.321 . S
C183 C182 1.390 . S
C183 H185 0.930 . S
H184 C182 0.931 . S
H185 C183 0.930 . S
H186 C209 0.931 . S
H187 C175 0.929 . S
H188 C210 0.930 . S
H189 C181 0.931 . S
H190 C171 0.930 . S
H191 C200 0.929 . S
H192 C176 0.931 . S
H193 C177 0.930 . S
H194 C232 0.930 . S
H195 C173 0.929 . S
H196 C201 0.931 1_556 S
H197 C202 0.930 1_556 S
N198 Gd178 2.622 . S
N198 C199 1.369 . S
N198 C200 1.338 . S
C199 N198 1.369 . S
C199 C203 1.415 . S
C199 C206 1.422 . S
C200 H191 0.929 . S
C200 N198 1.338 . S
C200 C202 1.378 . S
C201 H196 0.931 1_554 S
C201 C202 1.348 . S
C201 C203 1.413 . S
C202 H197 0.930 1_554 S
C202 C200 1.378 . S
C202 C201 1.348 . S
C203 C199 1.415 . S
C203 C201 1.413 . S
C203 C233 1.437 . S
H204 C233 0.929 . S
N205 Gd178 2.570 . S
N205 C206 1.359 . S
N205 C209 1.343 . S
C206 C199 1.422 . S
C206 N205 1.359 . S
C206 C208 1.421 . S
C207 C208 1.422 . S
C207 C210 1.321 . S
C207 H234 0.931 . S
C208 C206 1.421 . S
C208 C207 1.422 . S
C208 C232 1.417 . S
C209 H186 0.931 . S
C209 N205 1.343 . S
C209 C210 1.390 . S
C210 H188 0.930 . S
C210 C207 1.321 . S
C210 C209 1.390 . S
O211 Gd179 2.386 . S
O211 C223 1.265 . S
O212 Gd178 2.353 . S
O212 C223 1.242 . S
O213 Gd178 2.468 . S
O213 C231 1.263 . S
O214 Gd178 2.427 . S
O214 C231 1.252 . S
O215 Gd179 2.307 . S
O215 C224 1.261 . S
O216 Gd178 2.388 . S
O216 C224 1.252 . S
O217 Gd178 2.386 . S
O217 C235 1.265 . S
O218 Gd179 2.353 . S
O218 C235 1.242 . S
O219 Gd179 2.468 . S
O219 C243 1.263 . S
O220 Gd179 2.427 . S
O220 C243 1.252 . S
O221 Gd178 2.307 . S
O221 C236 1.261 . S
O222 Gd179 2.388 . S
O222 C236 1.252 . S
C223 O211 1.265 . S
C223 O212 1.242 . S
C224 O215 1.261 . S
C224 O216 1.252 . S
C225 C228 1.394 . S
C225 C230 1.370 . S
C225 C231 1.500 . S
C226 C229 1.383 . S
C226 C230 1.395 . S
C227 C228 1.396 . S
C227 C229 1.365 . S
C227 H244 0.929 . S
C228 C225 1.394 . S
C228 C227 1.396 . S
C228 H245 0.930 . S
C229 C226 1.383 . S
C229 C227 1.365 . S
C229 H246 0.931 . S
C230 C225 1.370 . S
C230 C226 1.395 . S
C230 H247 0.930 . S
C231 Gd178 2.805 . S
C231 O213 1.263 . S
C231 O214 1.252 . S
C231 C225 1.500 . S
C232 H194 0.930 . S
C232 C208 1.417 . S
C232 C233 1.329 . S
C233 C203 1.437 . S
C233 H204 0.929 . S
C233 C232 1.329 . S
H234 C207 0.931 . S
C235 O217 1.265 . S
C235 O218 1.242 . S
C236 O221 1.261 . S
C236 O222 1.252 . S
C237 C240 1.394 . S
C237 C242 1.370 . S
C237 C243 1.500 . S
C238 C241 1.383 . S
C238 C242 1.395 . S
C239 C240 1.396 . S
C239 C241 1.365 . S
C239 H248 0.929 . S
C240 C237 1.394 . S
C240 C239 1.396 . S
C240 H249 0.930 . S
C241 C238 1.383 . S
C241 C239 1.365 . S
C241 H250 0.931 . S
C242 C237 1.370 . S
C242 C238 1.395 . S
C242 H251 0.930 . S
C243 Gd179 2.805 . S
C243 O219 1.263 . S
C243 O220 1.252 . S
C243 C237 1.500 . S
H244 C227 0.929 . S
H245 C228 0.930 . S
H246 C229 0.931 . S
H247 C230 0.930 . S
H248 C239 0.929 . S
H249 C240 0.930 . S
H250 C241 0.931 . S
H251 C242 0.930 . S
C252 C254 1.422 . S
C252 C256 1.415 1_455 S
C252 N258 1.369 . S
C253 C254 1.421 1_655 S
C253 C255 1.417 . S
C253 C265 1.422 . S
C254 C252 1.422 . S
C254 C253 1.421 1_455 S
C254 N264 1.359 . S
C255 C253 1.417 . S
C255 C257 1.329 . S
C255 H274 0.930 . S
C256 C252 1.415 1_655 S
C256 C257 1.437 . S
C256 C260 1.413 . S
C257 C255 1.329 . S
C257 C256 1.437 . S
C257 H279 0.929 . S
N258 C252 1.369 . S
N258 C259 1.338 . S
N258 Gd263 2.622 . S
C259 N258 1.338 . S
C259 C261 1.378 1_455 S
C259 H271 0.929 . S
C260 C256 1.413 . S
C260 C261 1.348 . S
C260 H276 0.931 . S
C261 C259 1.378 1_655 S
C261 C260 1.348 . S
C261 H277 0.930 . S
Gd262 N282 2.622 . S
Gd262 N289 2.570 . S
Gd262 O296 2.353 . S
Gd262 O297 2.468 . S
Gd262 O298 2.427 . S
Gd262 O300 2.388 . S
Gd262 O301 2.386 1_655 S
Gd262 O305 2.307 . S
Gd262 C315 2.805 . S
Gd263 N258 2.622 . S
Gd263 N264 2.570 . S
Gd263 O295 2.386 1_455 S
Gd263 O299 2.307 . S
Gd263 O302 2.353 . S
Gd263 O303 2.468 . S
Gd263 O304 2.427 . S
Gd263 O306 2.388 . S
Gd263 C327 2.805 . S
N264 C254 1.359 . S
N264 Gd263 2.570 . S
N264 C266 1.343 . S
C265 C253 1.422 . S
C265 C267 1.321 1_655 S
C265 H273 0.931 . S
C266 N264 1.343 . S
C266 C267 1.390 . S
C266 H268 0.931 . S
C267 C265 1.321 1_455 S
C267 C266 1.390 . S
C267 H269 0.930 . S
H268 C266 0.931 . S
H269 C267 0.930 . S
H270 C293 0.931 . S
H271 C259 0.929 . S
H272 C294 0.930 . S
H273 C265 0.931 . S
H274 C255 0.930 . S
H275 C284 0.935 . S
H276 C260 0.931 . S
H277 C261 0.930 . S
H278 C316 0.930 . S
H279 C257 0.929 . S
H280 C285 0.931 1_554 S
H281 C286 0.930 1_554 S
N282 Gd262 2.622 . S
N282 C283 1.369 1_655 S
N282 C284 1.336 . S
C283 N282 1.369 1_455 S
C283 C287 1.415 . S
C283 C290 1.422 . S
C284 H275 0.935 . S
C284 N282 1.336 . S
C284 C286 1.373 1_655 S
C285 H280 0.931 1_556 S
C285 C286 1.348 . S
C285 C287 1.413 . S
C286 H281 0.930 1_556 S
C286 C284 1.373 1_455 S
C286 C285 1.348 . S
C287 C283 1.415 . S
C287 C285 1.413 . S
C287 C317 1.437 . S
H288 C317 0.929 . S
N289 Gd262 2.570 . S
N289 C290 1.359 1_655 S
N289 C293 1.343 . S
C290 C283 1.422 . S
C290 N289 1.359 1_455 S
C290 C292 1.421 . S
C291 C292 1.422 . S
C291 C294 1.321 . S
C291 H318 0.931 . S
C292 C290 1.421 . S
C292 C291 1.422 . S
C292 C316 1.417 . S
C293 H270 0.931 . S
C293 N289 1.343 . S
C293 C294 1.390 1_655 S
C294 H272 0.930 . S
C294 C291 1.321 . S
C294 C293 1.390 1_455 S
O295 Gd263 2.386 1_655 S
O295 C307 1.265 . S
O296 Gd262 2.353 . S
O296 C307 1.242 . S
O297 Gd262 2.468 . S
O297 C315 1.263 . S
O298 Gd262 2.427 . S
O298 C315 1.252 . S
O299 Gd263 2.307 . S
O299 C308 1.261 . S
O300 Gd262 2.388 . S
O300 C308 1.252 1_655 S
O301 Gd262 2.386 1_455 S
O301 C319 1.265 . S
O302 Gd263 2.353 . S
O302 C319 1.242 . S
O303 Gd263 2.468 . S
O303 C327 1.263 . S
O304 Gd263 2.427 . S
O304 C327 1.252 . S
O305 Gd262 2.307 . S
O305 C320 1.261 . S
O306 Gd263 2.388 . S
O306 C320 1.252 1_455 S
C307 O295 1.265 . S
C307 O296 1.242 . S
C308 O299 1.261 . S
C308 O300 1.252 1_455 S
C309 C312 1.394 . S
C309 C314 1.370 . S
C309 C315 1.500 . S
C310 C313 1.383 . S
C310 C314 1.395 . S
C311 C312 1.396 . S
C311 C313 1.365 . S
C311 H328 0.929 . S
C312 C309 1.394 . S
C312 C311 1.396 . S
C312 H329 0.930 . S
C313 C310 1.383 . S
C313 C311 1.365 . S
C313 H330 0.931 . S
C314 C309 1.370 . S
C314 C310 1.395 . S
C314 H331 0.930 . S
C315 Gd262 2.805 . S
C315 O297 1.263 . S
C315 O298 1.252 . S
C315 C309 1.500 . S
C316 H278 0.930 . S
C316 C292 1.417 . S
C316 C317 1.329 . S
C317 C287 1.437 . S
C317 H288 0.929 . S
C317 C316 1.329 . S
H318 C291 0.931 . S
C319 O301 1.265 . S
C319 O302 1.242 . S
C320 O305 1.261 . S
C320 O306 1.252 1_655 S
C321 C324 1.394 . S
C321 C326 1.370 . S
C321 C327 1.500 . S
C322 C325 1.383 . S
C322 C326 1.395 . S
C323 C324 1.396 . S
C323 C325 1.365 . S
C323 H332 0.929 . S
C324 C321 1.394 . S
C324 C323 1.396 . S
C324 H333 0.930 . S
C325 C322 1.383 . S
C325 C323 1.365 . S
C325 H334 0.931 . S
C326 C321 1.370 . S
C326 C322 1.395 . S
C326 H335 0.930 . S
C327 Gd263 2.805 . S
C327 O303 1.263 . S
C327 O304 1.252 . S
C327 C321 1.500 . S
H328 C311 0.929 . S
H329 C312 0.930 . S
H330 C313 0.931 . S
H331 C314 0.930 . S
H332 C323 0.929 . S
H333 C324 0.930 . S
H334 C325 0.931 . S
H335 C326 0.930 . S
C336 C338 1.422 . S
C336 C340 1.415 . S
C336 N342 1.369 . S
C337 C338 1.421 . S
C337 C339 1.417 . S
C337 C349 1.422 . S
C338 C336 1.422 . S
C338 C337 1.421 . S
C338 N348 1.359 . S
C339 C337 1.417 . S
C339 C341 1.329 . S
C339 H358 0.930 . S
C340 C336 1.415 . S
C340 C341 1.437 . S
C340 C344 1.413 . S
C341 C339 1.329 . S
C341 C340 1.437 . S
C341 H363 0.929 . S
N342 C336 1.369 . S
N342 C343 1.338 . S
N342 Gd347 2.622 . S
C343 N342 1.338 . S
C343 C345 1.378 . S
C343 H355 0.929 . S
C344 C340 1.413 . S
C344 C345 1.348 . S
C344 H360 0.931 . S
C345 C343 1.378 . S
C345 C344 1.348 . S
C345 H361 0.930 . S
Gd346 N366 2.622 . S
Gd346 N373 2.570 . S
Gd346 O380 2.353 . S
Gd346 O381 2.468 . S
Gd346 O382 2.427 . S
Gd346 O384 2.388 . S
Gd346 O385 2.386 . S
Gd346 O389 2.307 . S
Gd346 C399 2.805 . S
Gd347 N342 2.622 . S
Gd347 N348 2.570 . S
Gd347 O379 2.386 . S
Gd347 O383 2.307 . S
Gd347 O386 2.353 . S
Gd347 O387 2.468 . S
Gd347 O388 2.427 . S
Gd347 O390 2.388 . S
Gd347 C411 2.805 . S
N348 C338 1.359 . S
N348 Gd347 2.570 . S
N348 C350 1.343 . S
C349 C337 1.422 . S
C349 C351 1.321 . S
C349 H357 0.931 . S
C350 N348 1.343 . S
C350 C351 1.390 . S
C350 H352 0.931 . S
C351 C349 1.321 . S
C351 C350 1.390 . S
C351 H353 0.930 . S
H352 C350 0.931 . S
H353 C351 0.930 . S
H354 C377 0.931 . S
H355 C343 0.929 . S
H356 C378 0.930 . S
H357 C349 0.931 . S
H358 C339 0.930 . S
H359 C368 0.929 . S
H360 C344 0.931 . S
H361 C345 0.930 . S
H362 C400 0.930 . S
H363 C341 0.929 . S
H364 C369 0.931 1_554 S
H365 C370 0.930 1_554 S
N366 Gd346 2.622 . S
N366 C367 1.369 . S
N366 C368 1.338 . S
C367 N366 1.369 . S
C367 C371 1.415 . S
C367 C374 1.422 . S
C368 H359 0.929 . S
C368 N366 1.338 . S
C368 C370 1.378 . S
C369 H364 0.931 1_556 S
C369 C370 1.348 . S
C369 C371 1.413 . S
C370 H365 0.930 1_556 S
C370 C368 1.378 . S
C370 C369 1.348 . S
C371 C367 1.415 . S
C371 C369 1.413 . S
C371 C401 1.437 . S
H372 C401 0.929 . S
N373 Gd346 2.570 . S
N373 C374 1.359 . S
N373 C377 1.343 . S
C374 C367 1.422 . S
C374 N373 1.359 . S
C374 C376 1.421 . S
C375 C376 1.422 . S
C375 C378 1.321 . S
C375 H402 0.931 . S
C376 C374 1.421 . S
C376 C375 1.422 . S
C376 C400 1.417 . S
C377 H354 0.931 . S
C377 N373 1.343 . S
C377 C378 1.390 . S
C378 H356 0.930 . S
C378 C375 1.321 . S
C378 C377 1.390 . S
O379 Gd347 2.386 . S
O379 C391 1.265 . S
O380 Gd346 2.353 . S
O380 C391 1.242 . S
O381 Gd346 2.468 . S
O381 C399 1.263 . S
O382 Gd346 2.427 . S
O382 C399 1.252 . S
O383 Gd347 2.307 . S
O383 C392 1.261 . S
O384 Gd346 2.388 . S
O384 C392 1.252 . S
O385 Gd346 2.386 . S
O385 C403 1.265 . S
O386 Gd347 2.353 . S
O386 C403 1.242 . S
O387 Gd347 2.468 . S
O387 C411 1.263 . S
O388 Gd347 2.427 . S
O388 C411 1.252 . S
O389 Gd346 2.307 . S
O389 C404 1.261 . S
O390 Gd347 2.388 . S
O390 C404 1.252 . S
C391 O379 1.265 . S
C391 O380 1.242 . S
C392 O383 1.261 . S
C392 O384 1.252 . S
C393 C396 1.394 . S
C393 C398 1.370 . S
C393 C399 1.500 . S
C394 C397 1.383 . S
C394 C398 1.395 . S
C395 C396 1.396 . S
C395 C397 1.365 . S
C395 H412 0.929 . S
C396 C393 1.394 . S
C396 C395 1.396 . S
C396 H413 0.930 . S
C397 C394 1.383 . S
C397 C395 1.365 . S
C397 H414 0.931 . S
C398 C393 1.370 . S
C398 C394 1.395 . S
C398 H415 0.930 . S
C399 Gd346 2.805 . S
C399 O381 1.263 . S
C399 O382 1.252 . S
C399 C393 1.500 . S
C400 H362 0.930 . S
C400 C376 1.417 . S
C400 C401 1.329 . S
C401 C371 1.437 . S
C401 H372 0.929 . S
C401 C400 1.329 . S
H402 C375 0.931 . S
C403 O385 1.265 . S
C403 O386 1.242 . S
C404 O389 1.261 . S
C404 O390 1.252 . S
C405 C408 1.394 . S
C405 C410 1.370 . S
C405 C411 1.500 . S
C406 C409 1.383 . S
C406 C410 1.395 . S
C407 C408 1.396 . S
C407 C409 1.365 . S
C407 H416 0.929 . S
C408 C405 1.394 . S
C408 C407 1.396 . S
C408 H417 0.930 . S
C409 C406 1.383 . S
C409 C407 1.365 . S
C409 H418 0.931 . S
C410 C405 1.370 . S
C410 C406 1.395 . S
C410 H419 0.930 . S
C411 Gd347 2.805 . S
C411 O387 1.263 . S
C411 O388 1.252 . S
C411 C405 1.500 . S
H412 C395 0.929 . S
H413 C396 0.930 . S
H414 C397 0.931 . S
H415 C398 0.930 . S
H416 C407 0.929 . S
H417 C408 0.930 . S
H418 C409 0.931 . S
H419 C410 0.930 . S
C420 C422 1.422 . S
C420 C424 1.415 . S
C420 N426 1.369 . S
C421 C422 1.421 . S
C421 C423 1.417 . S
C421 C433 1.422 . S
C422 C420 1.422 . S
C422 C421 1.421 . S
C422 N432 1.359 . S
C423 C421 1.417 . S
C423 C425 1.329 . S
C423 H442 0.930 . S
C424 C420 1.415 . S
C424 C425 1.437 . S
C424 C428 1.413 . S
C425 C423 1.329 . S
C425 C424 1.437 . S
C425 H447 0.929 . S
N426 C420 1.369 . S
N426 C427 1.338 . S
N426 Gd431 2.622 1_545 S
C427 N426 1.338 . S
C427 C429 1.378 . S
C427 H439 0.929 . S
C428 C424 1.413 . S
C428 C429 1.348 . S
C428 H444 0.931 . S
C429 C427 1.378 . S
C429 C428 1.348 . S
C429 H445 0.930 . S
Gd430 N450 2.622 . S
Gd430 N457 2.570 . S
Gd430 O464 2.353 . S
Gd430 O465 2.468 . S
Gd430 O466 2.427 . S
Gd430 O468 2.388 . S
Gd430 O469 2.386 1_545 S
Gd430 O473 2.307 . S
Gd430 C483 2.805 . S
Gd431 N426 2.622 1_565 S
Gd431 N432 2.570 1_565 S
Gd431 O463 2.386 1_565 S
Gd431 O467 2.307 1_565 S
Gd431 O470 2.353 . S
Gd431 O471 2.468 . S
Gd431 O472 2.427 . S
Gd431 O474 2.388 1_565 S
Gd431 C495 2.805 . S
N432 C422 1.359 . S
N432 Gd431 2.570 1_545 S
N432 C434 1.343 . S
C433 C421 1.422 . S
C433 C435 1.321 . S
C433 H441 0.931 . S
C434 N432 1.343 . S
C434 C435 1.390 . S
C434 H436 0.931 . S
C435 C433 1.321 . S
C435 C434 1.390 . S
C435 H437 0.930 . S
H436 C434 0.931 . S
H437 C435 0.930 . S
H438 C461 0.931 . S
H439 C427 0.929 . S
H440 C462 0.930 . S
H441 C433 0.931 . S
H442 C423 0.930 . S
H443 C452 0.929 . S
H444 C428 0.931 . S
H445 C429 0.930 . S
H446 C484 0.930 . S
H447 C425 0.929 . S
H448 C453 0.931 1_564 S
H449 C454 0.930 1_554 S
N450 Gd430 2.622 . S
N450 C451 1.369 . S
N450 C452 1.338 . S
C451 N450 1.369 . S
C451 C455 1.415 . S
C451 C458 1.422 . S
C452 H443 0.929 . S
C452 N450 1.338 . S
C452 C454 1.378 . S
C453 H448 0.931 1_546 S
C453 C454 1.348 . S
C453 C455 1.413 . S
C454 H449 0.930 1_556 S
C454 C452 1.378 . S
C454 C453 1.348 . S
C455 C451 1.415 . S
C455 C453 1.413 . S
C455 C485 1.437 1_545 S
H456 C485 0.929 . S
N457 Gd430 2.570 . S
N457 C458 1.359 . S
N457 C461 1.343 . S
C458 C451 1.422 . S
C458 N457 1.359 . S
C458 C460 1.421 . S
C459 C460 1.422 . S
C459 C462 1.321 . S
C459 H486 0.931 1_545 S
C460 C458 1.421 . S
C460 C459 1.422 . S
C460 C484 1.417 1_545 S
C461 H438 0.931 . S
C461 N457 1.343 . S
C461 C462 1.390 . S
C462 H440 0.930 . S
C462 C459 1.321 . S
C462 C461 1.390 . S
O463 Gd431 2.386 1_545 S
O463 C475 1.265 . S
O464 Gd430 2.353 . S
O464 C475 1.242 . S
O465 Gd430 2.468 . S
O465 C483 1.263 . S
O466 Gd430 2.427 . S
O466 C483 1.252 . S
O467 Gd431 2.307 1_545 S
O467 C476 1.261 . S
O468 Gd430 2.388 . S
O468 C476 1.252 . S
O469 Gd430 2.386 1_565 S
O469 C487 1.265 . S
O470 Gd431 2.353 . S
O470 C487 1.242 . S
O471 Gd431 2.468 . S
O471 C495 1.263 . S
O472 Gd431 2.427 . S
O472 C495 1.252 . S
O473 Gd430 2.307 . S
O473 C488 1.261 . S
O474 Gd431 2.388 1_545 S
O474 C488 1.252 . S
C475 O463 1.265 . S
C475 O464 1.242 . S
C476 O467 1.261 . S
C476 O468 1.252 . S
C477 C480 1.394 . S
C477 C482 1.370 . S
C477 C483 1.500 . S
C478 C481 1.383 . S
C478 C482 1.395 . S
C479 C480 1.396 . S
C479 C481 1.365 . S
C479 H496 0.929 . S
C480 C477 1.394 . S
C480 C479 1.396 . S
C480 H497 0.930 . S
C481 C478 1.383 . S
C481 C479 1.365 . S
C481 H498 0.931 . S
C482 C477 1.370 . S
C482 C478 1.395 . S
C482 H499 0.930 . S
C483 Gd430 2.805 . S
C483 O465 1.263 . S
C483 O466 1.252 . S
C483 C477 1.500 . S
C484 H446 0.930 . S
C484 C460 1.417 1_565 S
C484 C485 1.329 . S
C485 C455 1.437 1_565 S
C485 H456 0.929 . S
C485 C484 1.329 . S
H486 C459 0.931 1_565 S
C487 O469 1.265 . S
C487 O470 1.242 . S
C488 O473 1.261 . S
C488 O474 1.252 . S
C489 C492 1.394 . S
C489 C494 1.370 . S
C489 C495 1.500 . S
C490 C493 1.383 . S
C490 C494 1.395 . S
C491 C492 1.396 . S
C491 C493 1.365 . S
C491 H500 0.929 . S
C492 C489 1.394 . S
C492 C491 1.396 . S
C492 H501 0.930 . S
C493 C490 1.383 . S
C493 C491 1.365 . S
C493 H502 0.931 . S
C494 C489 1.370 . S
C494 C490 1.395 . S
C494 H503 0.930 . S
C495 Gd431 2.805 . S
C495 O471 1.263 . S
C495 O472 1.252 . S
C495 C489 1.500 . S
H496 C479 0.929 . S
H497 C480 0.930 . S
H498 C481 0.931 . S
H499 C482 0.930 . S
H500 C491 0.929 . S
H501 C492 0.930 . S
H502 C493 0.931 . S
H503 C494 0.930 . S
C504 C506 1.422 . S
C504 C508 1.415 . S
C504 N510 1.369 . S
C505 C506 1.421 . S
C505 C507 1.417 . S
C505 C517 1.422 . S
C506 C504 1.422 . S
C506 C505 1.421 . S
C506 N516 1.359 . S
C507 C505 1.417 . S
C507 C509 1.329 . S
C507 H526 0.930 . S
C508 C504 1.415 . S
C508 C509 1.437 . S
C508 C512 1.413 . S
C509 C507 1.329 . S
C509 C508 1.437 . S
C509 H531 0.929 . S
N510 C504 1.369 . S
N510 C511 1.338 . S
N510 Gd515 2.622 . S
C511 N510 1.338 . S
C511 C513 1.378 . S
C511 H523 0.929 . S
C512 C508 1.413 . S
C512 C513 1.348 . S
C512 H528 0.931 . S
C513 C511 1.378 . S
C513 C512 1.348 . S
C513 H529 0.930 . S
Gd514 N534 2.622 . S
Gd514 N541 2.570 . S
Gd514 O548 2.353 . S
Gd514 O549 2.468 . S
Gd514 O550 2.427 . S
Gd514 O552 2.388 . S
Gd514 O553 2.386 . S
Gd514 O557 2.307 . S
Gd514 C567 2.805 . S
Gd515 N510 2.622 . S
Gd515 N516 2.570 . S
Gd515 O547 2.386 . S
Gd515 O551 2.307 . S
Gd515 O554 2.353 . S
Gd515 O555 2.468 . S
Gd515 O556 2.427 . S
Gd515 O558 2.388 . S
Gd515 C579 2.805 . S
N516 C506 1.359 . S
N516 Gd515 2.570 . S
N516 C518 1.343 . S
C517 C505 1.422 . S
C517 C519 1.321 . S
C517 H525 0.931 . S
C518 N516 1.343 . S
C518 C519 1.390 . S
C518 H520 0.931 . S
C519 C517 1.321 . S
C519 C518 1.390 . S
C519 H521 0.930 . S
H520 C518 0.931 . S
H521 C519 0.930 . S
H522 C545 0.931 . S
H523 C511 0.929 . S
H524 C546 0.930 . S
H525 C517 0.931 . S
H526 C507 0.930 . S
H527 C536 0.929 . S
H528 C512 0.931 . S
H529 C513 0.930 . S
H530 C568 0.930 . S
H531 C509 0.929 . S
H532 C537 0.931 . S
H533 C538 0.930 . S
N534 Gd514 2.622 . S
N534 C535 1.369 . S
N534 C536 1.338 . S
C535 N534 1.369 . S
C535 C539 1.415 . S
C535 C542 1.422 . S
C536 H527 0.929 . S
C536 N534 1.338 . S
C536 C538 1.378 . S
C537 H532 0.931 . S
C537 C538 1.348 . S
C537 C539 1.413 . S
C538 H533 0.930 . S
C538 C536 1.378 . S
C538 C537 1.348 . S
C539 C535 1.415 . S
C539 C537 1.413 . S
C539 C569 1.437 1_455 S
H540 C569 0.929 . S
N541 Gd514 2.570 . S
N541 C542 1.359 . S
N541 C545 1.343 . S
C542 C535 1.422 . S
C542 N541 1.359 . S
C542 C544 1.421 1_455 S
C543 C544 1.422 . S
C543 C546 1.321 . S
C543 H570 0.931 . S
C544 C542 1.421 1_655 S
C544 C543 1.422 . S
C544 C568 1.417 . S
C545 H522 0.931 . S
C545 N541 1.343 . S
C545 C546 1.390 1_455 S
C546 H524 0.930 . S
C546 C543 1.321 . S
C546 C545 1.390 1_655 S
O547 Gd515 2.386 . S
O547 C559 1.265 . S
O548 Gd514 2.353 . S
O548 C559 1.242 . S
O549 Gd514 2.468 . S
O549 C567 1.263 . S
O550 Gd514 2.427 . S
O550 C567 1.252 . S
O551 Gd515 2.307 . S
O551 C560 1.261 . S
O552 Gd514 2.388 . S
O552 C560 1.252 . S
O553 Gd514 2.386 . S
O553 C571 1.265 . S
O554 Gd515 2.353 . S
O554 C571 1.242 . S
O555 Gd515 2.468 . S
O555 C579 1.263 . S
O556 Gd515 2.427 . S
O556 C579 1.252 . S
O557 Gd514 2.307 . S
O557 C572 1.261 . S
O558 Gd515 2.388 . S
O558 C572 1.252 . S
C559 O547 1.265 . S
C559 O548 1.242 . S
C560 O551 1.261 . S
C560 O552 1.252 . S
C561 C564 1.394 . S
C561 C566 1.370 . S
C561 C567 1.500 1_655 S
C562 C565 1.383 . S
C562 C566 1.395 . S
C563 C564 1.396 . S
C563 C565 1.365 . S
C563 H580 0.929 . S
C564 C561 1.394 . S
C564 C563 1.396 . S
C564 H581 0.930 . S
C565 C562 1.383 . S
C565 C563 1.365 . S
C565 H582 0.931 . S
C566 C561 1.370 . S
C566 C562 1.395 . S
C566 H583 0.930 . S
C567 Gd514 2.805 . S
C567 O549 1.263 . S
C567 O550 1.252 . S
C567 C561 1.500 1_455 S
C568 H530 0.930 . S
C568 C544 1.417 . S
C568 C569 1.329 . S
C569 C539 1.437 1_655 S
C569 H540 0.929 . S
C569 C568 1.329 . S
H570 C543 0.931 . S
C571 O553 1.265 . S
C571 O554 1.242 . S
C572 O557 1.261 . S
C572 O558 1.252 . S
C573 C576 1.394 . S
C573 C578 1.370 . S
C573 C579 1.500 . S
C574 C577 1.383 . S
C574 C578 1.395 . S
C575 C576 1.396 . S
C575 C577 1.365 . S
C575 H584 0.929 . S
C576 C573 1.394 . S
C576 C575 1.396 . S
C576 H585 0.930 . S
C577 C574 1.383 . S
C577 C575 1.365 . S
C577 H586 0.931 . S
C578 C573 1.370 . S
C578 C574 1.395 . S
C578 H587 0.930 . S
C579 Gd515 2.805 . S
C579 O555 1.263 . S
C579 O556 1.252 . S
C579 C573 1.500 . S
H580 C563 0.929 . S
H581 C564 0.930 . S
H582 C565 0.931 . S
H583 C566 0.930 . S
H584 C575 0.929 . S
H585 C576 0.930 . S
H586 C577 0.931 . S
H587 C578 0.930 . S
C588 C590 1.419 1_565 S
C588 C592 1.415 1_565 S
C588 N594 1.369 . S
C589 C590 1.430 . S
C589 C591 1.417 . S
C589 C601 1.422 . S
C590 C588 1.419 1_545 S
C590 C589 1.430 . S
C590 N600 1.353 1_545 S
C591 C589 1.417 . S
C591 C593 1.329 . S
C591 H610 0.930 . S
C592 C588 1.415 1_545 S
C592 C593 1.437 . S
C592 C596 1.413 . S
C593 C591 1.329 . S
C593 C592 1.437 . S
C593 H615 0.929 . S
N594 C588 1.369 . S
N594 C595 1.338 . S
N594 Gd599 2.622 . S
C595 N594 1.338 . S
C595 C597 1.378 . S
C595 H607 0.929 . S
C596 C592 1.413 . S
C596 C597 1.348 1_545 S
C596 H612 0.931 . S
C597 C595 1.378 . S
C597 C596 1.348 1_565 S
C597 H613 0.930 . S
Gd598 N618 2.622 . S
Gd598 N625 2.570 . S
Gd598 O632 2.353 . S
Gd598 O633 2.468 . S
Gd598 O634 2.427 . S
Gd598 O636 2.388 . S
Gd598 O637 2.386 . S
Gd598 O641 2.307 . S
Gd598 C651 2.805 . S
Gd599 N594 2.622 . S
Gd599 N600 2.570 . S
Gd599 O631 2.386 . S
Gd599 O635 2.307 . S
Gd599 O638 2.353 . S
Gd599 O639 2.468 . S
Gd599 O640 2.427 . S
Gd599 O642 2.388 . S
Gd599 C663 2.805 . S
N600 C590 1.353 1_565 S
N600 Gd599 2.570 . S
N600 C602 1.343 . S
C601 C589 1.422 . S
C601 C603 1.321 . S
C601 H609 0.931 . S
C602 N600 1.343 . S
C602 C603 1.390 1_565 S
C602 H604 0.931 . S
C603 C601 1.321 . S
C603 C602 1.390 1_545 S
C603 H605 0.930 . S
H604 C602 0.931 . S
H605 C603 0.930 . S
H606 C629 0.931 . S
H607 C595 0.929 . S
H608 C630 0.930 . S
H609 C601 0.931 . S
H610 C591 0.930 . S
H611 C620 0.929 . S
H612 C596 0.931 . S
H613 C597 0.930 . S
H614 C652 0.930 . S
H615 C593 0.929 . S
H616 C621 0.931 . S
H617 C622 0.930 . S
N618 Gd598 2.622 . S
N618 C619 1.369 . S
N618 C620 1.338 . S
C619 N618 1.369 . S
C619 C623 1.415 . S
C619 C626 1.422 . S
C620 H611 0.929 . S
C620 N618 1.338 . S
C620 C622 1.378 . S
C621 H616 0.931 . S
C621 C622 1.348 . S
C621 C623 1.413 . S
C622 H617 0.930 . S
C622 C620 1.378 . S
C622 C621 1.348 . S
C623 C619 1.415 . S
C623 C621 1.413 . S
C623 C653 1.437 . S
H624 C653 0.929 . S
N625 Gd598 2.570 . S
N625 C626 1.359 . S
N625 C629 1.343 . S
C626 C619 1.422 . S
C626 N625 1.359 . S
C626 C628 1.421 . S
C627 C628 1.422 . S
C627 C630 1.321 . S
C627 H654 0.931 . S
C628 C626 1.421 . S
C628 C627 1.422 . S
C628 C652 1.417 . S
C629 H606 0.931 . S
C629 N625 1.343 . S
C629 C630 1.390 . S
C630 H608 0.930 . S
C630 C627 1.321 . S
C630 C629 1.390 . S
O631 Gd599 2.386 . S
O631 C643 1.265 . S
O632 Gd598 2.353 . S
O632 C643 1.242 . S
O633 Gd598 2.468 . S
O633 C651 1.263 . S
O634 Gd598 2.427 . S
O634 C651 1.252 . S
O635 Gd599 2.307 . S
O635 C644 1.261 . S
O636 Gd598 2.388 . S
O636 C644 1.252 . S
O637 Gd598 2.386 . S
O637 C655 1.265 . S
O638 Gd599 2.353 . S
O638 C655 1.242 . S
O639 Gd599 2.468 . S
O639 C663 1.263 . S
O640 Gd599 2.427 . S
O640 C663 1.252 . S
O641 Gd598 2.307 . S
O641 C656 1.261 . S
O642 Gd599 2.388 . S
O642 C656 1.252 . S
C643 O631 1.265 . S
C643 O632 1.242 . S
C644 O635 1.261 . S
C644 O636 1.252 . S
C645 C648 1.394 . S
C645 C650 1.370 . S
C645 C651 1.500 . S
C646 C649 1.383 . S
C646 C650 1.395 . S
C647 C648 1.396 . S
C647 C649 1.365 . S
C647 H664 0.929 . S
C648 C645 1.394 . S
C648 C647 1.396 . S
C648 H665 0.930 . S
C649 C646 1.383 . S
C649 C647 1.365 . S
C649 H666 0.943 . S
C650 C645 1.370 . S
C650 C646 1.395 . S
C650 H667 0.930 . S
C651 Gd598 2.805 . S
C651 O633 1.263 . S
C651 O634 1.252 . S
C651 C645 1.500 . S
C652 H614 0.930 . S
C652 C628 1.417 . S
C652 C653 1.329 . S
C653 C623 1.437 . S
C653 H624 0.929 . S
C653 C652 1.329 . S
H654 C627 0.931 . S
C655 O637 1.265 . S
C655 O638 1.242 . S
C656 O641 1.261 . S
C656 O642 1.252 . S
C657 C660 1.394 . S
C657 C662 1.370 . S
C657 C663 1.500 . S
C658 C661 1.383 . S
C658 C662 1.395 . S
C659 C660 1.396 . S
C659 C661 1.365 . S
C659 H668 0.929 . S
C660 C657 1.394 . S
C660 C659 1.396 . S
C660 H669 0.930 . S
C661 C658 1.383 . S
C661 C659 1.365 . S
C661 H670 0.931 . S
C662 C657 1.370 . S
C662 C658 1.395 . S
C662 H671 0.930 . S
C663 Gd599 2.805 . S
C663 O639 1.263 . S
C663 O640 1.252 . S
C663 C657 1.500 . S
H664 C647 0.929 . S
H665 C648 0.930 . S
H666 C649 0.943 . S
H667 C650 0.930 . S
H668 C659 0.929 . S
H669 C660 0.930 . S
H670 C661 0.931 . S
H671 C662 0.930 . S
C672 C674 1.422 . S
C672 C676 1.415 . S
C672 N678 1.369 . S
C673 C674 1.421 1_655 S
C673 C675 1.417 . S
C673 C685 1.422 . S
C674 C672 1.422 . S
C674 C673 1.421 1_455 S
C674 N684 1.359 . S
C675 C673 1.417 . S
C675 C677 1.329 . S
C675 H694 0.930 . S
C676 C672 1.415 . S
C676 C677 1.437 1_455 S
C676 C680 1.413 . S
C677 C675 1.329 . S
C677 C676 1.437 1_655 S
C677 H699 0.929 . S
N678 C672 1.369 . S
N678 C679 1.338 . S
N678 Gd683 2.622 . S
C679 N678 1.338 . S
C679 C681 1.378 . S
C679 H691 0.929 . S
C680 C676 1.413 . S
C680 C681 1.348 . S
C680 H696 0.931 . S
C681 C679 1.378 . S
C681 C680 1.348 . S
C681 H697 0.930 . S
Gd682 N702 2.622 . S
Gd682 N709 2.570 1_565 S
Gd682 O716 2.353 . S
Gd682 O717 2.468 1_565 S
Gd682 O718 2.427 . S
Gd682 O720 2.388 . S
Gd682 O721 2.386 . S
Gd682 O725 2.307 . S
Gd682 C735 2.805 1_565 S
Gd683 N678 2.622 . S
Gd683 N684 2.570 . S
Gd683 O715 2.386 . S
Gd683 O719 2.307 . S
Gd683 O722 2.353 . S
Gd683 O723 2.468 . S
Gd683 O724 2.427 . S
Gd683 O726 2.388 . S
Gd683 C747 2.805 . S
N684 C674 1.359 . S
N684 Gd683 2.570 . S
N684 C686 1.343 . S
C685 C673 1.422 . S
C685 C687 1.321 1_655 S
C685 H693 0.931 . S
C686 N684 1.343 . S
C686 C687 1.390 . S
C686 H688 0.931 . S
C687 C685 1.321 1_455 S
C687 C686 1.390 . S
C687 H689 0.930 . S
H688 C686 0.931 . S
H689 C687 0.930 . S
H690 C713 0.931 . S
H691 C679 0.929 . S
H692 C714 0.930 . S
H693 C685 0.931 . S
H694 C675 0.930 . S
H695 C704 0.929 . S
H696 C680 0.931 . S
H697 C681 0.930 . S
H698 C736 0.930 . S
H699 C677 0.929 . S
H700 C705 0.931 . S
H701 C706 0.930 . S
N702 Gd682 2.622 . S
N702 C703 1.369 1_565 S
N702 C704 1.338 . S
C703 N702 1.369 1_545 S
C703 C707 1.415 . S
C703 C710 1.422 . S
C704 H695 0.929 . S
C704 N702 1.338 . S
C704 C706 1.378 . S
C705 H700 0.931 . S
C705 C706 1.348 1_545 S
C705 C707 1.413 . S
C706 H701 0.930 . S
C706 C704 1.378 . S
C706 C705 1.348 1_565 S
C707 C703 1.415 . S
C707 C705 1.413 . S
C707 C737 1.437 . S
H708 C737 0.929 . S
N709 Gd682 2.570 1_545 S
N709 C710 1.359 . S
N709 C713 1.343 . S
C710 C703 1.422 . S
C710 N709 1.359 . S
C710 C712 1.421 . S
C711 C712 1.422 . S
C711 C714 1.321 . S
C711 H738 0.931 . S
C712 C710 1.421 . S
C712 C711 1.422 . S
C712 C736 1.417 . S
C713 H690 0.931 . S
C713 N709 1.343 . S
C713 C714 1.390 . S
C714 H692 0.930 . S
C714 C711 1.321 . S
C714 C713 1.390 . S
O715 Gd683 2.386 . S
O715 C727 1.265 . S
O716 Gd682 2.353 . S
O716 C727 1.242 . S
O717 Gd682 2.468 1_545 S
O717 C735 1.263 . S
O718 Gd682 2.427 . S
O718 C735 1.252 1_565 S
O719 Gd683 2.307 . S
O719 C728 1.261 . S
O720 Gd682 2.388 . S
O720 C728 1.252 . S
O721 Gd682 2.386 . S
O721 C739 1.265 . S
O722 Gd683 2.353 . S
O722 C739 1.242 . S
O723 Gd683 2.468 . S
O723 C747 1.263 . S
O724 Gd683 2.427 . S
O724 C747 1.252 . S
O725 Gd682 2.307 . S
O725 C740 1.261 . S
O726 Gd683 2.388 . S
O726 C740 1.252 . S
C727 O715 1.265 . S
C727 O716 1.242 . S
C728 O719 1.261 . S
C728 O720 1.252 . S
C729 C732 1.394 . S
C729 C734 1.370 . S
C729 C735 1.500 . S
C730 C733 1.383 . S
C730 C734 1.395 . S
C731 C732 1.396 . S
C731 C733 1.365 . S
C731 H748 0.929 . S
C732 C729 1.394 . S
C732 C731 1.396 . S
C732 H749 0.930 . S
C733 C730 1.383 . S
C733 C731 1.365 . S
C733 H750 0.931 . S
C734 C729 1.370 . S
C734 C730 1.395 . S
C734 H751 0.930 . S
C735 Gd682 2.805 1_545 S
C735 O717 1.263 . S
C735 O718 1.252 1_545 S
C735 C729 1.500 . S
C736 H698 0.930 . S
C736 C712 1.417 . S
C736 C737 1.329 . S
C737 C707 1.437 . S
C737 H708 0.929 . S
C737 C736 1.329 . S
H738 C711 0.931 . S
C739 O721 1.265 . S
C739 O722 1.242 . S
C740 O725 1.261 . S
C740 O726 1.252 . S
C741 C744 1.394 . S
C741 C746 1.370 . S
C741 C747 1.500 . S
C742 C745 1.383 . S
C742 C746 1.395 . S
C743 C744 1.396 . S
C743 C745 1.365 . S
C743 H752 0.929 . S
C744 C741 1.394 . S
C744 C743 1.396 . S
C744 H753 0.930 . S
C745 C742 1.383 . S
C745 C743 1.365 . S
C745 H754 0.931 . S
C746 C741 1.370 . S
C746 C742 1.395 . S
C746 H755 0.930 . S
C747 Gd683 2.805 . S
C747 O723 1.263 . S
C747 O724 1.252 . S
C747 C741 1.500 . S
H748 C731 0.929 . S
H749 C732 0.930 . S
H750 C733 0.931 . S
H751 C734 0.930 . S
H752 C743 0.929 . S
H753 C744 0.930 . S
H754 C745 0.931 . S
H755 C746 0.930 . S
C756 C758 1.422 . S
C756 C760 1.415 . S
C756 N762 1.369 . S
C757 C758 1.421 1_545 S
C757 C759 1.417 . S
C757 C769 1.422 . S
C758 C756 1.422 . S
C758 C757 1.421 1_565 S
C758 N768 1.359 . S
C759 C757 1.417 . S
C759 C761 1.329 . S
C759 H778 0.930 . S
C760 C756 1.415 . S
C760 C761 1.437 1_565 S
C760 C764 1.413 . S
C761 C759 1.329 . S
C761 C760 1.437 1_545 S
C761 H783 0.929 . S
N762 C756 1.369 . S
N762 C763 1.338 . S
N762 Gd767 2.622 . S
C763 N762 1.338 . S
C763 C765 1.378 . S
C763 H775 0.929 . S
C764 C760 1.413 . S
C764 C765 1.348 . S
C764 H780 0.931 . S
C765 C763 1.378 . S
C765 C764 1.348 . S
C765 H781 0.930 . S
Gd766 N786 2.622 . S
Gd766 N793 2.570 . S
Gd766 O800 2.353 . S
Gd766 O801 2.468 . S
Gd766 O802 2.427 . S
Gd766 O804 2.388 . S
Gd766 O805 2.386 . S
Gd766 O809 2.307 . S
Gd766 C819 2.805 . S
Gd767 N762 2.622 . S
Gd767 N768 2.570 . S
Gd767 O799 2.386 . S
Gd767 O803 2.307 . S
Gd767 O806 2.353 . S
Gd767 O807 2.468 . S
Gd767 O808 2.427 . S
Gd767 O810 2.388 . S
Gd767 C831 2.805 . S
N768 C758 1.359 . S
N768 Gd767 2.570 . S
N768 C770 1.343 . S
C769 C757 1.422 . S
C769 C771 1.321 . S
C769 H777 0.931 . S
C770 N768 1.343 . S
C770 C771 1.390 1_565 S
C770 H772 0.931 . S
C771 C769 1.321 . S
C771 C770 1.390 1_545 S
C771 H773 0.930 . S
H772 C770 0.931 . S
H773 C771 0.930 . S
H774 C797 0.931 . S
H775 C763 0.929 . S
H776 C798 0.930 . S
H777 C769 0.931 . S
H778 C759 0.930 . S
H779 C788 0.929 . S
H780 C764 0.931 . S
H781 C765 0.930 . S
H782 C820 0.930 . S
H783 C761 0.929 . S
H784 C789 0.931 . S
H785 C790 0.930 . S
N786 Gd766 2.622 . S
N786 C787 1.369 . S
N786 C788 1.338 . S
C787 N786 1.369 . S
C787 C791 1.415 . S
C787 C794 1.422 . S
C788 H779 0.929 . S
C788 N786 1.338 . S
C788 C790 1.378 . S
C789 H784 0.931 . S
C789 C790 1.348 . S
C789 C791 1.413 . S
C790 H785 0.930 . S
C790 C788 1.378 . S
C790 C789 1.348 . S
C791 C787 1.415 . S
C791 C789 1.413 . S
C791 C821 1.437 . S
H792 C821 0.929 . S
N793 Gd766 2.570 . S
N793 C794 1.359 . S
N793 C797 1.343 . S
C794 C787 1.422 . S
C794 N793 1.359 . S
C794 C796 1.421 . S
C795 C796 1.422 . S
C795 C798 1.321 . S
C795 H822 0.931 . S
C796 C794 1.421 . S
C796 C795 1.422 . S
C796 C820 1.417 . S
C797 H774 0.931 . S
C797 N793 1.343 . S
C797 C798 1.390 . S
C798 H776 0.930 . S
C798 C795 1.321 . S
C798 C797 1.390 . S
O799 Gd767 2.386 . S
O799 C811 1.265 . S
O800 Gd766 2.353 . S
O800 C811 1.242 . S
O801 Gd766 2.468 . S
O801 C819 1.263 . S
O802 Gd766 2.427 . S
O802 C819 1.252 . S
O803 Gd767 2.307 . S
O803 C812 1.261 . S
O804 Gd766 2.388 . S
O804 C812 1.252 . S
O805 Gd766 2.386 . S
O805 C823 1.265 . S
O806 Gd767 2.353 . S
O806 C823 1.242 . S
O807 Gd767 2.468 . S
O807 C831 1.263 . S
O808 Gd767 2.427 . S
O808 C831 1.252 . S
O809 Gd766 2.307 . S
O809 C824 1.261 . S
O810 Gd767 2.388 . S
O810 C824 1.252 . S
C811 O799 1.265 . S
C811 O800 1.242 . S
C812 O803 1.261 . S
C812 O804 1.252 . S
C813 C816 1.394 . S
C813 C818 1.370 . S
C813 C819 1.500 . S
C814 C817 1.383 . S
C814 C818 1.395 . S
C815 C816 1.396 . S
C815 C817 1.365 . S
C815 H832 0.929 . S
C816 C813 1.394 . S
C816 C815 1.396 . S
C816 H833 0.930 . S
C817 C814 1.383 . S
C817 C815 1.365 . S
C817 H834 0.931 . S
C818 C813 1.370 . S
C818 C814 1.395 . S
C818 H835 0.930 . S
C819 Gd766 2.805 . S
C819 O801 1.263 . S
C819 O802 1.252 . S
C819 C813 1.500 . S
C820 H782 0.930 . S
C820 C796 1.417 . S
C820 C821 1.329 . S
C821 C791 1.437 . S
C821 H792 0.929 . S
C821 C820 1.329 . S
H822 C795 0.931 . S
C823 O805 1.265 . S
C823 O806 1.242 . S
C824 O809 1.261 . S
C824 O810 1.252 . S
C825 C828 1.394 . S
C825 C830 1.370 . S
C825 C831 1.500 1_545 S
C826 C829 1.383 . S
C826 C830 1.395 . S
C827 C828 1.396 . S
C827 C829 1.365 . S
C827 H836 0.929 . S
C828 C825 1.394 . S
C828 C827 1.396 . S
C828 H837 0.930 . S
C829 C826 1.383 . S
C829 C827 1.365 . S
C829 H838 0.931 . S
C830 C825 1.370 . S
C830 C826 1.395 . S
C830 H839 0.930 . S
C831 Gd767 2.805 . S
C831 O807 1.263 . S
C831 O808 1.252 . S
C831 C825 1.500 1_565 S
H832 C815 0.929 . S
H833 C816 0.930 . S
H834 C817 0.931 . S
H835 C818 0.930 . S
H836 C827 0.929 . S
H837 C828 0.930 . S
H838 C829 0.931 . S
H839 C830 0.930 . S
C840 C842 1.422 . S
C840 C844 1.415 . S
C840 N846 1.369 . S
C841 C842 1.421 . S
C841 C843 1.417 . S
C841 C853 1.422 . S
C842 C840 1.422 . S
C842 C841 1.421 . S
C842 N852 1.359 . S
C843 C841 1.417 . S
C843 C845 1.329 . S
C843 H862 0.930 1_455 S
C844 C840 1.415 . S
C844 C845 1.437 . S
C844 C848 1.413 . S
C845 C843 1.329 . S
C845 C844 1.437 . S
C845 H867 0.929 . S
N846 C840 1.369 . S
N846 C847 1.338 . S
N846 Gd851 2.622 . S
C847 N846 1.338 . S
C847 C849 1.378 . S
C847 H859 0.929 . S
C848 C844 1.413 . S
C848 C849 1.348 . S
C848 H864 0.931 . S
C849 C847 1.378 . S
C849 C848 1.348 . S
C849 H865 0.930 . S
Gd850 N870 2.622 . S
Gd850 N877 2.570 . S
Gd850 O884 2.353 . S
Gd850 O885 2.468 . S
Gd850 O886 2.427 . S
Gd850 O888 2.388 . S
Gd850 O889 2.386 . S
Gd850 O893 2.307 . S
Gd850 C903 2.805 . S
Gd851 N846 2.622 . S
Gd851 N852 2.570 . S
Gd851 O883 2.386 . S
Gd851 O887 2.307 . S
Gd851 O890 2.353 . S
Gd851 O891 2.468 . S
Gd851 O892 2.427 . S
Gd851 O894 2.388 . S
Gd851 C915 2.805 . S
N852 C842 1.359 . S
N852 Gd851 2.570 . S
N852 C854 1.343 . S
C853 C841 1.422 . S
C853 C855 1.321 . S
C853 H861 0.931 1_455 S
C854 N852 1.343 . S
C854 C855 1.390 . S
C854 H856 0.931 . S
C855 C853 1.321 . S
C855 C854 1.390 . S
C855 H857 0.930 . S
H856 C854 0.931 . S
H857 C855 0.930 . S
H858 C881 0.931 . S
H859 C847 0.929 . S
H860 C882 0.930 . S
H861 C853 0.931 1_655 S
H862 C843 0.930 1_655 S
H863 C872 0.929 . S
H864 C848 0.931 . S
H865 C849 0.930 . S
H866 C904 0.930 . S
H867 C845 0.929 . S
H868 C873 0.931 . S
H869 C874 0.930 . S
N870 Gd850 2.622 . S
N870 C871 1.348 1_565 S
N870 C872 1.338 . S
C871 N870 1.348 1_545 S
C871 C875 1.432 . S
C871 C878 1.427 . S
C872 H863 0.929 . S
C872 N870 1.338 . S
C872 C874 1.378 . S
C873 H868 0.931 . S
C873 C874 1.348 1_545 S
C873 C875 1.413 . S
C874 H869 0.930 . S
C874 C872 1.378 . S
C874 C873 1.348 1_565 S
C875 C871 1.432 . S
C875 C873 1.413 . S
C875 C905 1.437 . S
H876 C905 0.929 . S
N877 Gd850 2.570 . S
N877 C878 1.359 1_565 S
N877 C881 1.343 . S
C878 C871 1.427 . S
C878 N877 1.359 1_545 S
C878 C880 1.421 . S
C879 C880 1.422 . S
C879 C882 1.321 . S
C879 H906 0.931 . S
C880 C878 1.421 . S
C880 C879 1.422 . S
C880 C904 1.417 . S
C881 H858 0.931 . S
C881 N877 1.343 . S
C881 C882 1.390 1_565 S
C882 H860 0.930 . S
C882 C879 1.321 . S
C882 C881 1.390 1_545 S
O883 Gd851 2.386 . S
O883 C895 1.265 . S
O884 Gd850 2.353 . S
O884 C895 1.242 . S
O885 Gd850 2.468 . S
O885 C903 1.263 . S
O886 Gd850 2.427 . S
O886 C903 1.252 . S
O887 Gd851 2.307 . S
O887 C896 1.261 . S
O888 Gd850 2.388 . S
O888 C896 1.252 . S
O889 Gd850 2.386 . S
O889 C907 1.265 . S
O890 Gd851 2.353 . S
O890 C907 1.242 . S
O891 Gd851 2.468 . S
O891 C915 1.263 . S
O892 Gd851 2.427 . S
O892 C915 1.252 . S
O893 Gd850 2.307 . S
O893 C908 1.261 . S
O894 Gd851 2.388 . S
O894 C908 1.252 . S
C895 O883 1.265 . S
C895 O884 1.242 . S
C896 O887 1.261 . S
C896 O888 1.252 . S
C897 C900 1.394 . S
C897 C902 1.370 . S
C897 C903 1.500 . S
C898 C901 1.383 . S
C898 C902 1.395 . S
C899 C900 1.396 . S
C899 C901 1.365 . S
C899 H916 0.929 . S
C900 C897 1.394 . S
C900 C899 1.396 . S
C900 H917 0.930 . S
C901 C898 1.383 . S
C901 C899 1.365 . S
C901 H918 0.931 . S
C902 C897 1.370 . S
C902 C898 1.395 . S
C902 H919 0.930 . S
C903 Gd850 2.805 . S
C903 O885 1.263 . S
C903 O886 1.252 . S
C903 C897 1.500 . S
C904 H866 0.930 . S
C904 C880 1.417 . S
C904 C905 1.329 . S
C905 C875 1.437 . S
C905 H876 0.929 . S
C905 C904 1.329 . S
H906 C879 0.931 . S
C907 O889 1.265 . S
C907 O890 1.242 . S
C908 O893 1.261 . S
C908 O894 1.252 . S
C909 C912 1.403 . S
C909 C914 1.370 1_455 S
C909 C915 1.500 . S
C910 C913 1.383 . S
C910 C914 1.395 . S
C911 C912 1.372 1_655 S
C911 C913 1.365 . S
C911 H920 0.929 . S
C912 C909 1.403 . S
C912 C911 1.372 1_455 S
C912 H921 0.945 . S
C913 C910 1.383 . S
C913 C911 1.365 . S
C913 H922 0.931 . S
C914 C909 1.370 1_655 S
C914 C910 1.395 . S
C914 H923 0.931 1_655 S
C915 Gd851 2.805 . S
C915 O891 1.263 . S
C915 O892 1.252 . S
C915 C909 1.500 . S
H916 C899 0.929 . S
H917 C900 0.930 . S
H918 C901 0.931 . S
H919 C902 0.930 . S
H920 C911 0.929 . S
H921 C912 0.945 . S
H922 C913 0.931 . S
H923 C914 0.931 1_455 S
C924 C926 1.422 . S
C924 C928 1.415 . S
C924 N930 1.369 . S
C925 C926 1.421 . S
C925 C927 1.417 . S
C925 C937 1.422 . S
C926 C924 1.422 . S
C926 C925 1.421 . S
C926 N936 1.359 . S
C927 C925 1.417 . S
C927 C929 1.329 . S
C927 H946 0.930 . S
C928 C924 1.415 . S
C928 C929 1.437 . S
C928 C932 1.413 . S
C929 C927 1.329 . S
C929 C928 1.437 . S
C929 H951 0.929 . S
N930 C924 1.369 . S
N930 C931 1.338 . S
N930 Gd935 2.622 . S
C931 N930 1.338 . S
C931 C933 1.378 . S
C931 H943 0.929 . S
C932 C928 1.413 . S
C932 C933 1.348 . S
C932 H948 0.931 . S
C933 C931 1.378 . S
C933 C932 1.348 . S
C933 H949 0.930 . S
Gd934 N954 2.622 . S
Gd934 N961 2.570 . S
Gd934 O968 2.353 . S
Gd934 O969 2.468 . S
Gd934 O970 2.427 . S
Gd934 O972 2.388 . S
Gd934 O973 2.386 . S
Gd934 O977 2.307 . S
Gd934 C987 2.805 . S
Gd935 N930 2.622 . S
Gd935 N936 2.570 . S
Gd935 O967 2.386 . S
Gd935 O971 2.307 . S
Gd935 O974 2.353 . S
Gd935 O975 2.468 . S
Gd935 O976 2.427 . S
Gd935 O978 2.388 . S
Gd935 C999 2.805 . S
N936 C926 1.359 . S
N936 Gd935 2.570 . S
N936 C938 1.343 . S
C937 C925 1.422 . S
C937 C939 1.321 . S
C937 H945 0.931 . S
C938 N936 1.343 . S
C938 C939 1.390 . S
C938 H940 0.931 . S
C939 C937 1.321 . S
C939 C938 1.390 . S
C939 H941 0.930 . S
H940 C938 0.931 . S
H941 C939 0.930 . S
H942 C965 0.931 . S
H943 C931 0.929 . S
H944 C966 0.930 . S
H945 C937 0.931 . S
H946 C927 0.930 . S
H947 C956 0.929 . S
H948 C932 0.931 . S
H949 C933 0.930 . S
H950 C988 0.930 . S
H951 C929 0.929 . S
H952 C957 0.935 . S
H953 C958 0.930 . S
N954 Gd934 2.622 . S
N954 C955 1.369 . S
N954 C956 1.338 . S
C955 N954 1.369 . S
C955 C959 1.415 . S
C955 C962 1.422 . S
C956 H947 0.929 . S
C956 N954 1.338 . S
C956 C958 1.378 . S
C957 H952 0.935 . S
C957 C958 1.348 . S
C957 C959 1.413 . S
C958 H953 0.930 . S
C958 C956 1.378 . S
C958 C957 1.348 . S
C959 C955 1.415 . S
C959 C957 1.413 . S
C959 C989 1.437 1_455 S
H960 C989 0.929 . S
N961 Gd934 2.570 . S
N961 C962 1.359 . S
N961 C965 1.343 . S
C962 C955 1.422 . S
C962 N961 1.359 . S
C962 C964 1.421 1_455 S
C963 C964 1.422 . S
C963 C966 1.321 . S
C963 H990 0.931 . S
C964 C962 1.421 1_655 S
C964 C963 1.422 . S
C964 C988 1.417 . S
C965 H942 0.931 . S
C965 N961 1.343 . S
C965 C966 1.390 1_455 S
C966 H944 0.930 . S
C966 C963 1.321 . S
C966 C965 1.390 1_655 S
O967 Gd935 2.386 . S
O967 C979 1.265 . S
O968 Gd934 2.353 . S
O968 C979 1.242 . S
O969 Gd934 2.468 . S
O969 C987 1.263 . S
O970 Gd934 2.427 . S
O970 C987 1.252 . S
O971 Gd935 2.307 . S
O971 C980 1.261 . S
O972 Gd934 2.388 . S
O972 C980 1.252 . S
O973 Gd934 2.386 . S
O973 C991 1.265 . S
O974 Gd935 2.353 . S
O974 C991 1.242 . S
O975 Gd935 2.468 . S
O975 C999 1.263 . S
O976 Gd935 2.427 . S
O976 C999 1.252 . S
O977 Gd934 2.307 . S
O977 C992 1.261 . S
O978 Gd935 2.388 . S
O978 C992 1.252 . S
C979 O967 1.265 . S
C979 O968 1.242 . S
C980 O971 1.261 . S
C980 O972 1.252 . S
C981 C984 1.394 . S
C981 C986 1.370 . S
C981 C987 1.500 . S
C982 C985 1.383 . S
C982 C986 1.395 . S
C983 C984 1.396 . S
C983 C985 1.365 . S
C983 H1000 0.929 . S
C984 C981 1.394 . S
C984 C983 1.396 . S
C984 H1001 0.930 . S
C985 C982 1.383 . S
C985 C983 1.365 . S
C985 H1002 0.931 . S
C986 C981 1.370 . S
C986 C982 1.395 . S
C986 H1003 0.930 . S
C987 Gd934 2.805 . S
C987 O969 1.263 . S
C987 O970 1.252 . S
C987 C981 1.500 . S
C988 H950 0.930 . S
C988 C964 1.417 . S
C988 C989 1.329 . S
C989 C959 1.437 1_655 S
C989 H960 0.929 . S
C989 C988 1.329 . S
H990 C963 0.931 . S
C991 O973 1.265 . S
C991 O974 1.242 . S
C992 O977 1.261 . S
C992 O978 1.252 . S
C993 C996 1.394 . S
C993 C998 1.370 . S
C993 C999 1.500 . S
C994 C997 1.383 . S
C994 C998 1.395 . S
C995 C996 1.396 . S
C995 C997 1.365 . S
C995 H1004 0.929 . S
C996 C993 1.394 . S
C996 C995 1.396 . S
C996 H1005 0.930 . S
C997 C994 1.383 . S
C997 C995 1.365 . S
C997 H1006 0.931 . S
C998 C993 1.370 . S
C998 C994 1.395 . S
C998 H1007 0.930 . S
C999 Gd935 2.805 . S
C999 O975 1.263 . S
C999 O976 1.252 . S
C999 C993 1.500 . S
H1000 C983 0.929 . S
H1001 C984 0.930 . S
H1002 C985 0.931 . S
H1003 C986 0.930 . S
H1004 C995 0.929 . S
H1005 C996 0.930 . S
H1006 C997 0.931 . S
H1007 C998 0.930 . S
C1008 C1010 1.422 . S
C1008 C1012 1.415 . S
C1008 N1014 1.369 . S
C1009 C1010 1.421 1_455 S
C1009 C1011 1.417 . S
C1009 C1021 1.422 . S
C1010 C1008 1.422 . S
C1010 C1009 1.421 1_655 S
C1010 N1020 1.359 . S
C1011 C1009 1.417 . S
C1011 C1013 1.329 . S
C1011 H1030 0.930 . S
C1012 C1008 1.415 . S
C1012 C1013 1.437 1_655 S
C1012 C1016 1.413 . S
C1013 C1011 1.329 . S
C1013 C1012 1.437 1_455 S
C1013 H1035 0.929 . S
N1014 C1008 1.369 . S
N1014 C1015 1.338 . S
N1014 Gd1019 2.622 . S
C1015 N1014 1.338 . S
C1015 C1017 1.378 . S
C1015 H1027 0.929 . S
C1016 C1012 1.413 . S
C1016 C1017 1.348 . S
C1016 H1032 0.931 . S
C1017 C1015 1.378 . S
C1017 C1016 1.348 . S
C1017 H1033 0.930 . S
Gd1018 N1038 2.622 . S
Gd1018 N1045 2.570 . S
Gd1018 O1052 2.353 . S
Gd1018 O1053 2.468 . S
Gd1018 O1054 2.427 . S
Gd1018 O1056 2.388 . S
Gd1018 O1057 2.386 . S
Gd1018 O1061 2.307 . S
Gd1018 C1071 2.805 . S
Gd1019 N1014 2.622 . S
Gd1019 N1020 2.570 . S
Gd1019 O1051 2.386 . S
Gd1019 O1055 2.307 . S
Gd1019 O1058 2.353 . S
Gd1019 O1059 2.468 . S
Gd1019 O1060 2.427 . S
Gd1019 O1062 2.388 . S
Gd1019 C1083 2.805 . S
N1020 C1010 1.359 . S
N1020 Gd1019 2.570 . S
N1020 C1022 1.343 . S
C1021 C1009 1.422 . S
C1021 C1023 1.321 . S
C1021 H1029 0.931 . S
C1022 N1020 1.343 . S
C1022 C1023 1.390 1_655 S
C1022 H1024 0.931 . S
C1023 C1021 1.321 . S
C1023 C1022 1.390 1_455 S
C1023 H1025 0.930 . S
H1024 C1022 0.931 . S
H1025 C1023 0.930 . S
H1026 C1049 0.931 . S
H1027 C1015 0.929 . S
H1028 C1050 0.930 . S
H1029 C1021 0.931 . S
H1030 C1011 0.930 . S
H1031 C1040 0.929 . S
H1032 C1016 0.931 . S
H1033 C1017 0.930 . S
H1034 C1072 0.930 . S
H1035 C1013 0.929 . S
H1036 C1041 0.931 . S
H1037 C1042 0.930 . S
N1038 Gd1018 2.622 . S
N1038 C1039 1.369 . S
N1038 C1040 1.338 . S
C1039 N1038 1.369 . S
C1039 C1043 1.415 . S
C1039 C1046 1.422 . S
C1040 H1031 0.929 . S
C1040 N1038 1.338 . S
C1040 C1042 1.378 . S
C1041 H1036 0.931 . S
C1041 C1042 1.348 . S
C1041 C1043 1.413 . S
C1042 H1037 0.930 . S
C1042 C1040 1.378 . S
C1042 C1041 1.348 . S
C1043 C1039 1.415 . S
C1043 C1041 1.413 . S
C1043 C1073 1.437 . S
H1044 C1073 0.929 . S
N1045 Gd1018 2.570 . S
N1045 C1046 1.359 . S
N1045 C1049 1.343 . S
C1046 C1039 1.422 . S
C1046 N1045 1.359 . S
C1046 C1048 1.421 . S
C1047 C1048 1.422 . S
C1047 C1050 1.321 . S
C1047 H1074 0.931 . S
C1048 C1046 1.421 . S
C1048 C1047 1.422 . S
C1048 C1072 1.417 . S
C1049 H1026 0.931 . S
C1049 N1045 1.343 . S
C1049 C1050 1.390 . S
C1050 H1028 0.930 . S
C1050 C1047 1.321 . S
C1050 C1049 1.390 . S
O1051 Gd1019 2.386 . S
O1051 C1063 1.265 . S
O1052 Gd1018 2.353 . S
O1052 C1063 1.242 . S
O1053 Gd1018 2.468 . S
O1053 C1071 1.263 . S
O1054 Gd1018 2.427 . S
O1054 C1071 1.252 . S
O1055 Gd1019 2.307 . S
O1055 C1064 1.261 . S
O1056 Gd1018 2.388 . S
O1056 C1064 1.252 . S
O1057 Gd1018 2.386 . S
O1057 C1075 1.265 . S
O1058 Gd1019 2.353 . S
O1058 C1075 1.242 . S
O1059 Gd1019 2.468 . S
O1059 C1083 1.263 . S
O1060 Gd1019 2.427 . S
O1060 C1083 1.252 . S
O1061 Gd1018 2.307 . S
O1061 C1076 1.261 . S
O1062 Gd1019 2.388 . S
O1062 C1076 1.252 . S
C1063 O1051 1.265 . S
C1063 O1052 1.242 . S
C1064 O1055 1.261 . S
C1064 O1056 1.252 . S
C1065 C1068 1.394 . S
C1065 C1070 1.370 . S
C1065 C1071 1.500 . S
C1066 C1069 1.383 . S
C1066 C1070 1.395 . S
C1067 C1068 1.396 . S
C1067 C1069 1.365 . S
C1067 H1084 0.929 . S
C1068 C1065 1.394 . S
C1068 C1067 1.396 . S
C1068 H1085 0.930 . S
C1069 C1066 1.383 . S
C1069 C1067 1.365 . S
C1069 H1086 0.931 . S
C1070 C1065 1.370 . S
C1070 C1066 1.395 . S
C1070 H1087 0.930 . S
C1071 Gd1018 2.805 . S
C1071 O1053 1.263 . S
C1071 O1054 1.252 . S
C1071 C1065 1.500 . S
C1072 H1034 0.930 . S
C1072 C1048 1.417 . S
C1072 C1073 1.329 . S
C1073 C1043 1.437 . S
C1073 H1044 0.929 . S
C1073 C1072 1.329 . S
H1074 C1047 0.931 . S
C1075 O1057 1.265 . S
C1075 O1058 1.242 . S
C1076 O1061 1.261 . S
C1076 O1062 1.252 . S
C1077 C1080 1.394 . S
C1077 C1082 1.370 . S
C1077 C1083 1.500 1_455 S
C1078 C1081 1.383 . S
C1078 C1082 1.395 . S
C1079 C1080 1.396 . S
C1079 C1081 1.365 . S
C1079 H1088 0.929 . S
C1080 C1077 1.394 . S
C1080 C1079 1.396 . S
C1080 H1089 0.930 . S
C1081 C1078 1.383 . S
C1081 C1079 1.365 . S
C1081 H1090 0.931 . S
C1082 C1077 1.370 . S
C1082 C1078 1.395 . S
C1082 H1091 0.930 . S
C1083 Gd1019 2.805 . S
C1083 O1059 1.263 . S
C1083 O1060 1.252 . S
C1083 C1077 1.500 1_655 S
H1084 C1067 0.929 . S
H1085 C1068 0.930 . S
H1086 C1069 0.931 . S
H1087 C1070 0.930 . S
H1088 C1079 0.929 . S
H1089 C1080 0.930 . S
H1090 C1081 0.931 . S
H1091 C1082 0.930 . S
C1092 C1094 1.422 . S
C1092 C1096 1.415 . S
C1092 N1098 1.369 . S
C1093 C1094 1.421 . S
C1093 C1095 1.417 . S
C1093 C1105 1.422 . S
C1094 C1092 1.422 . S
C1094 C1093 1.421 . S
C1094 N1104 1.359 . S
C1095 C1093 1.417 . S
C1095 C1097 1.329 . S
C1095 H1114 0.930 . S
C1096 C1092 1.415 . S
C1096 C1097 1.437 . S
C1096 C1100 1.413 . S
C1097 C1095 1.329 . S
C1097 C1096 1.437 . S
C1097 H1119 0.929 . S
N1098 C1092 1.369 . S
N1098 C1099 1.338 . S
N1098 Gd1103 2.622 . S
C1099 N1098 1.338 . S
C1099 C1101 1.378 . S
C1099 H1111 0.929 . S
C1100 C1096 1.413 . S
C1100 C1101 1.348 . S
C1100 H1116 0.931 . S
C1101 C1099 1.378 . S
C1101 C1100 1.348 . S
C1101 H1117 0.930 . S
Gd1102 N1122 2.622 . S
Gd1102 N1129 2.570 . S
Gd1102 O1136 2.353 . S
Gd1102 O1137 2.468 . S
Gd1102 O1138 2.427 . S
Gd1102 O1140 2.388 . S
Gd1102 O1141 2.386 . S
Gd1102 O1145 2.307 . S
Gd1102 C1155 2.805 . S
Gd1103 N1098 2.622 . S
Gd1103 N1104 2.570 . S
Gd1103 O1135 2.386 . S
Gd1103 O1139 2.307 . S
Gd1103 O1142 2.353 . S
Gd1103 O1143 2.468 . S
Gd1103 O1144 2.427 . S
Gd1103 O1146 2.388 . S
Gd1103 C1167 2.805 . S
N1104 C1094 1.359 . S
N1104 Gd1103 2.570 . S
N1104 C1106 1.343 . S
C1105 C1093 1.422 . S
C1105 C1107 1.321 . S
C1105 H1113 0.931 . S
C1106 N1104 1.343 . S
C1106 C1107 1.390 . S
C1106 H1108 0.931 . S
C1107 C1105 1.321 . S
C1107 C1106 1.390 . S
C1107 H1109 0.930 . S
H1108 C1106 0.931 . S
H1109 C1107 0.930 . S
H1110 C1133 0.931 . S
H1111 C1099 0.929 . S
H1112 C1134 0.930 . S
H1113 C1105 0.931 . S
H1114 C1095 0.930 . S
H1115 C1124 0.929 . S
H1116 C1100 0.931 . S
H1117 C1101 0.930 . S
H1118 C1156 0.930 . S
H1119 C1097 0.929 . S
H1120 C1125 0.935 . S
H1121 C1126 0.930 . S
N1122 Gd1102 2.622 . S
N1122 C1123 1.369 . S
N1122 C1124 1.338 . S
C1123 N1122 1.369 . S
C1123 C1127 1.415 . S
C1123 C1130 1.422 . S
C1124 H1115 0.929 . S
C1124 N1122 1.338 . S
C1124 C1126 1.378 . S
C1125 H1120 0.935 . S
C1125 C1126 1.348 . S
C1125 C1127 1.413 . S
C1126 H1121 0.930 . S
C1126 C1124 1.378 . S
C1126 C1125 1.348 . S
C1127 C1123 1.415 . S
C1127 C1125 1.413 . S
C1127 C1157 1.437 1_545 S
H1128 C1157 0.929 . S
N1129 Gd1102 2.570 . S
N1129 C1130 1.359 . S
N1129 C1133 1.343 . S
C1130 C1123 1.422 . S
C1130 N1129 1.359 . S
C1130 C1132 1.421 1_545 S
C1131 C1132 1.422 . S
C1131 C1134 1.321 . S
C1131 H1158 0.931 . S
C1132 C1130 1.421 1_565 S
C1132 C1131 1.422 . S
C1132 C1156 1.417 . S
C1133 H1110 0.931 . S
C1133 N1129 1.343 . S
C1133 C1134 1.390 1_545 S
C1134 H1112 0.930 . S
C1134 C1131 1.321 . S
C1134 C1133 1.390 1_565 S
O1135 Gd1103 2.386 . S
O1135 C1147 1.265 . S
O1136 Gd1102 2.353 . S
O1136 C1147 1.242 . S
O1137 Gd1102 2.468 . S
O1137 C1155 1.263 . S
O1138 Gd1102 2.427 . S
O1138 C1155 1.252 . S
O1139 Gd1103 2.307 . S
O1139 C1148 1.261 . S
O1140 Gd1102 2.388 . S
O1140 C1148 1.252 . S
O1141 Gd1102 2.386 . S
O1141 C1159 1.265 . S
O1142 Gd1103 2.353 . S
O1142 C1159 1.242 . S
O1143 Gd1103 2.468 . S
O1143 C1167 1.263 . S
O1144 Gd1103 2.427 . S
O1144 C1167 1.252 . S
O1145 Gd1102 2.307 . S
O1145 C1160 1.261 . S
O1146 Gd1103 2.388 . S
O1146 C1160 1.252 . S
C1147 O1135 1.265 . S
C1147 O1136 1.242 . S
C1148 O1139 1.261 . S
C1148 O1140 1.252 . S
C1149 C1152 1.394 . S
C1149 C1154 1.370 . S
C1149 C1155 1.500 . S
C1150 C1153 1.383 . S
C1150 C1154 1.395 . S
C1151 C1152 1.396 . S
C1151 C1153 1.365 . S
C1151 H1168 0.929 . S
C1152 C1149 1.394 . S
C1152 C1151 1.396 . S
C1152 H1169 0.930 . S
C1153 C1150 1.383 . S
C1153 C1151 1.365 . S
C1153 H1170 0.931 . S
C1154 C1149 1.370 . S
C1154 C1150 1.395 . S
C1154 H1171 0.930 . S
C1155 Gd1102 2.805 . S
C1155 O1137 1.263 . S
C1155 O1138 1.252 . S
C1155 C1149 1.500 . S
C1156 H1118 0.930 . S
C1156 C1132 1.417 . S
C1156 C1157 1.329 . S
C1157 C1127 1.437 1_565 S
C1157 H1128 0.929 . S
C1157 C1156 1.329 . S
H1158 C1131 0.931 . S
C1159 O1141 1.265 . S
C1159 O1142 1.242 . S
C1160 O1145 1.261 . S
C1160 O1146 1.252 . S
C1161 C1164 1.394 . S
C1161 C1166 1.370 . S
C1161 C1167 1.500 . S
C1162 C1165 1.383 . S
C1162 C1166 1.395 . S
C1163 C1164 1.396 . S
C1163 C1165 1.365 . S
C1163 H1172 0.929 . S
C1164 C1161 1.394 . S
C1164 C1163 1.396 . S
C1164 H1173 0.930 . S
C1165 C1162 1.383 . S
C1165 C1163 1.365 . S
C1165 H1174 0.931 . S
C1166 C1161 1.370 . S
C1166 C1162 1.395 . S
C1166 H1175 0.930 . S
C1167 Gd1103 2.805 . S
C1167 O1143 1.263 . S
C1167 O1144 1.252 . S
C1167 C1161 1.500 . S
H1168 C1151 0.929 . S
H1169 C1152 0.930 . S
H1170 C1153 0.931 . S
H1171 C1154 0.930 . S
H1172 C1163 0.929 . S
H1173 C1164 0.930 . S
H1174 C1165 0.931 . S
H1175 C1166 0.930 . S
C1176 C1178 1.422 . S
C1176 C1180 1.415 . S
C1176 N1182 1.369 . S
C1177 C1178 1.421 . S
C1177 C1179 1.417 . S
C1177 C1189 1.422 . S
C1178 C1176 1.422 . S
C1178 C1177 1.421 . S
C1178 N1188 1.359 . S
C1179 C1177 1.417 . S
C1179 C1181 1.329 . S
C1179 H1198 0.930 1_545 S
C1180 C1176 1.415 . S
C1180 C1181 1.437 . S
C1180 C1184 1.413 . S
C1181 C1179 1.329 . S
C1181 C1180 1.437 . S
C1181 H1203 0.929 . S
N1182 C1176 1.369 . S
N1182 C1183 1.338 . S
N1182 Gd1187 2.622 . S
C1183 N1182 1.338 . S
C1183 C1185 1.378 . S
C1183 H1195 0.929 . S
C1184 C1180 1.413 . S
C1184 C1185 1.348 . S
C1184 H1200 0.931 . S
C1185 C1183 1.378 . S
C1185 C1184 1.348 . S
C1185 H1201 0.930 . S
Gd1186 N1206 2.622 . S
Gd1186 N1213 2.570 . S
Gd1186 O1220 2.353 . S
Gd1186 O1221 2.468 . S
Gd1186 O1222 2.427 . S
Gd1186 O1224 2.388 . S
Gd1186 O1225 2.386 . S
Gd1186 O1229 2.307 . S
Gd1186 C1239 2.805 . S
Gd1187 N1182 2.622 . S
Gd1187 N1188 2.570 . S
Gd1187 O1219 2.386 . S
Gd1187 O1223 2.307 . S
Gd1187 O1226 2.353 . S
Gd1187 O1227 2.468 . S
Gd1187 O1228 2.427 . S
Gd1187 O1230 2.388 . S
Gd1187 C1251 2.805 . S
N1188 C1178 1.359 . S
N1188 Gd1187 2.570 . S
N1188 C1190 1.343 . S
C1189 C1177 1.422 . S
C1189 C1191 1.321 . S
C1189 H1197 0.931 1_545 S
C1190 N1188 1.343 . S
C1190 C1191 1.390 . S
C1190 H1192 0.931 . S
C1191 C1189 1.321 . S
C1191 C1190 1.390 . S
C1191 H1193 0.930 . S
H1192 C1190 0.931 . S
H1193 C1191 0.930 . S
H1194 C1217 0.931 . S
H1195 C1183 0.929 . S
H1196 C1218 0.930 . S
H1197 C1189 0.931 1_565 S
H1198 C1179 0.930 1_565 S
H1199 C1208 0.929 . S
H1200 C1184 0.931 . S
H1201 C1185 0.930 . S
H1202 C1240 0.930 . S
H1203 C1181 0.929 . S
H1204 C1209 0.931 . S
H1205 C1210 0.930 . S
N1206 Gd1186 2.622 . S
N1206 C1207 1.348 1_655 S
N1206 C1208 1.338 . S
C1207 N1206 1.348 1_455 S
C1207 C1211 1.432 . S
C1207 C1214 1.427 . S
C1208 H1199 0.929 . S
C1208 N1206 1.338 . S
C1208 C1210 1.378 . S
C1209 H1204 0.931 . S
C1209 C1210 1.348 1_455 S
C1209 C1211 1.413 . S
C1210 H1205 0.930 . S
C1210 C1208 1.378 . S
C1210 C1209 1.348 1_655 S
C1211 C1207 1.432 . S
C1211 C1209 1.413 . S
C1211 C1241 1.437 . S
H1212 C1241 0.929 . S
N1213 Gd1186 2.570 . S
N1213 C1214 1.359 1_655 S
N1213 C1217 1.343 . S
C1214 C1207 1.427 . S
C1214 N1213 1.359 1_455 S
C1214 C1216 1.421 . S
C1215 C1216 1.422 . S
C1215 C1218 1.321 . S
C1215 H1242 0.931 . S
C1216 C1214 1.421 . S
C1216 C1215 1.422 . S
C1216 C1240 1.417 . S
C1217 H1194 0.931 . S
C1217 N1213 1.343 . S
C1217 C1218 1.390 1_655 S
C1218 H1196 0.930 . S
C1218 C1215 1.321 . S
C1218 C1217 1.390 1_455 S
O1219 Gd1187 2.386 . S
O1219 C1231 1.265 . S
O1220 Gd1186 2.353 . S
O1220 C1231 1.242 . S
O1221 Gd1186 2.468 . S
O1221 C1239 1.263 . S
O1222 Gd1186 2.427 . S
O1222 C1239 1.252 . S
O1223 Gd1187 2.307 . S
O1223 C1232 1.261 . S
O1224 Gd1186 2.388 . S
O1224 C1232 1.252 . S
O1225 Gd1186 2.386 . S
O1225 C1243 1.265 . S
O1226 Gd1187 2.353 . S
O1226 C1243 1.242 . S
O1227 Gd1187 2.468 . S
O1227 C1251 1.263 . S
O1228 Gd1187 2.427 . S
O1228 C1251 1.252 . S
O1229 Gd1186 2.307 . S
O1229 C1244 1.261 . S
O1230 Gd1187 2.388 . S
O1230 C1244 1.252 . S
C1231 O1219 1.265 . S
C1231 O1220 1.242 . S
C1232 O1223 1.261 . S
C1232 O1224 1.252 . S
C1233 C1236 1.394 . S
C1233 C1238 1.370 . S
C1233 C1239 1.500 . S
C1234 C1237 1.383 . S
C1234 C1238 1.395 . S
C1235 C1236 1.396 . S
C1235 C1237 1.365 . S
C1235 H1252 0.929 . S
C1236 C1233 1.394 . S
C1236 C1235 1.396 . S
C1236 H1253 0.930 . S
C1237 C1234 1.383 . S
C1237 C1235 1.365 . S
C1237 H1254 0.931 . S
C1238 C1233 1.370 . S
C1238 C1234 1.395 . S
C1238 H1255 0.930 . S
C1239 Gd1186 2.805 . S
C1239 O1221 1.263 . S
C1239 O1222 1.252 . S
C1239 C1233 1.500 . S
C1240 H1202 0.930 . S
C1240 C1216 1.417 . S
C1240 C1241 1.329 . S
C1241 C1211 1.437 . S
C1241 H1212 0.929 . S
C1241 C1240 1.329 . S
H1242 C1215 0.931 . S
C1243 O1225 1.265 . S
C1243 O1226 1.242 . S
C1244 O1229 1.261 . S
C1244 O1230 1.252 . S
C1245 C1248 1.403 . S
C1245 C1250 1.370 1_545 S
C1245 C1251 1.500 . S
C1246 C1249 1.383 . S
C1246 C1250 1.395 . S
C1247 C1248 1.372 1_565 S
C1247 C1249 1.365 . S
C1247 H1256 0.929 . S
C1248 C1245 1.403 . S
C1248 C1247 1.372 1_545 S
C1248 H1257 0.944 . S
C1249 C1246 1.383 . S
C1249 C1247 1.365 . S
C1249 H1258 0.931 . S
C1250 C1245 1.370 1_565 S
C1250 C1246 1.395 . S
C1250 H1259 0.931 1_565 S
C1251 Gd1187 2.805 . S
C1251 O1227 1.263 . S
C1251 O1228 1.252 . S
C1251 C1245 1.500 . S
H1252 C1235 0.929 . S
H1253 C1236 0.930 . S
H1254 C1237 0.931 . S
H1255 C1238 0.930 . S
H1256 C1247 0.929 . S
H1257 C1248 0.944 . S
H1258 C1249 0.931 . S
H1259 C1250 0.931 1_545 S
C1260 C1262 1.422 . S
C1260 C1264 1.415 . S
C1260 N1266 1.369 . S
C1261 C1262 1.421 . S
C1261 C1263 1.417 . S
C1261 C1273 1.422 . S
C1262 C1260 1.422 . S
C1262 C1261 1.421 . S
C1262 N1272 1.359 . S
C1263 C1261 1.417 . S
C1263 C1265 1.329 . S
C1263 H1282 0.930 . S
C1264 C1260 1.415 . S
C1264 C1265 1.437 . S
C1264 C1268 1.413 . S
C1265 C1263 1.329 . S
C1265 C1264 1.437 . S
C1265 H1287 0.929 . S
N1266 C1260 1.369 . S
N1266 C1267 1.338 . S
N1266 Gd1271 2.622 . S
C1267 N1266 1.338 . S
C1267 C1269 1.378 . S
C1267 H1279 0.929 . S
C1268 C1264 1.413 . S
C1268 C1269 1.348 . S
C1268 H1284 0.931 . S
C1269 C1267 1.378 . S
C1269 C1268 1.348 . S
C1269 H1285 0.930 . S
Gd1270 N1290 2.622 . S
Gd1270 N1297 2.570 . S
Gd1270 O1304 2.353 . S
Gd1270 O1305 2.468 . S
Gd1270 O1306 2.427 . S
Gd1270 O1308 2.388 . S
Gd1270 O1309 2.386 . S
Gd1270 O1313 2.307 . S
Gd1270 C1323 2.805 . S
Gd1271 N1266 2.622 . S
Gd1271 N1272 2.570 . S
Gd1271 O1303 2.386 . S
Gd1271 O1307 2.307 . S
Gd1271 O1310 2.353 . S
Gd1271 O1311 2.468 . S
Gd1271 O1312 2.427 . S
Gd1271 O1314 2.388 . S
Gd1271 C1335 2.805 . S
N1272 C1262 1.359 . S
N1272 Gd1271 2.570 . S
N1272 C1274 1.343 . S
C1273 C1261 1.422 . S
C1273 C1275 1.321 . S
C1273 H1281 0.931 . S
C1274 N1272 1.343 . S
C1274 C1275 1.390 . S
C1274 H1276 0.931 . S
C1275 C1273 1.321 . S
C1275 C1274 1.390 . S
C1275 H1277 0.930 . S
H1276 C1274 0.931 . S
H1277 C1275 0.930 . S
H1278 C1301 0.931 . S
H1279 C1267 0.929 . S
H1280 C1302 0.930 . S
H1281 C1273 0.931 . S
H1282 C1263 0.930 . S
H1283 C1292 0.929 . S
H1284 C1268 0.931 . S
H1285 C1269 0.930 . S
H1286 C1324 0.930 . S
H1287 C1265 0.929 . S
H1288 C1293 0.931 . S
H1289 C1294 0.930 . S
N1290 Gd1270 2.622 . S
N1290 C1291 1.369 . S
N1290 C1292 1.338 . S
C1291 N1290 1.369 . S
C1291 C1295 1.415 . S
C1291 C1298 1.422 . S
C1292 H1283 0.929 . S
C1292 N1290 1.338 . S
C1292 C1294 1.378 . S
C1293 H1288 0.931 . S
C1293 C1294 1.348 . S
C1293 C1295 1.413 . S
C1294 H1289 0.930 . S
C1294 C1292 1.378 . S
C1294 C1293 1.348 . S
C1295 C1291 1.415 . S
C1295 C1293 1.413 . S
C1295 C1325 1.437 1_545 S
H1296 C1325 0.929 . S
N1297 Gd1270 2.570 . S
N1297 C1298 1.359 . S
N1297 C1301 1.343 . S
C1298 C1291 1.422 . S
C1298 N1297 1.359 . S
C1298 C1300 1.421 1_545 S
C1299 C1300 1.422 . S
C1299 C1302 1.321 . S
C1299 H1326 0.931 . S
C1300 C1298 1.421 1_565 S
C1300 C1299 1.422 . S
C1300 C1324 1.417 . S
C1301 H1278 0.931 . S
C1301 N1297 1.343 . S
C1301 C1302 1.390 1_545 S
C1302 H1280 0.930 . S
C1302 C1299 1.321 . S
C1302 C1301 1.390 1_565 S
O1303 Gd1271 2.386 . S
O1303 C1315 1.265 . S
O1304 Gd1270 2.353 . S
O1304 C1315 1.242 . S
O1305 Gd1270 2.468 . S
O1305 C1323 1.263 . S
O1306 Gd1270 2.427 . S
O1306 C1323 1.252 . S
O1307 Gd1271 2.307 . S
O1307 C1316 1.261 . S
O1308 Gd1270 2.388 . S
O1308 C1316 1.252 . S
O1309 Gd1270 2.386 . S
O1309 C1327 1.265 . S
O1310 Gd1271 2.353 . S
O1310 C1327 1.242 . S
O1311 Gd1271 2.468 . S
O1311 C1335 1.263 . S
O1312 Gd1271 2.427 . S
O1312 C1335 1.252 . S
O1313 Gd1270 2.307 . S
O1313 C1328 1.261 . S
O1314 Gd1271 2.388 . S
O1314 C1328 1.252 . S
C1315 O1303 1.265 . S
C1315 O1304 1.242 . S
C1316 O1307 1.261 . S
C1316 O1308 1.252 . S
C1317 C1320 1.394 . S
C1317 C1322 1.370 . S
C1317 C1323 1.500 1_565 S
C1318 C1321 1.383 . S
C1318 C1322 1.395 . S
C1319 C1320 1.396 . S
C1319 C1321 1.365 . S
C1319 H1336 0.929 . S
C1320 C1317 1.394 . S
C1320 C1319 1.396 . S
C1320 H1337 0.930 . S
C1321 C1318 1.383 . S
C1321 C1319 1.365 . S
C1321 H1338 0.931 . S
C1322 C1317 1.370 . S
C1322 C1318 1.395 . S
C1322 H1339 0.930 . S
C1323 Gd1270 2.805 . S
C1323 O1305 1.263 . S
C1323 O1306 1.252 . S
C1323 C1317 1.500 1_545 S
C1324 H1286 0.930 . S
C1324 C1300 1.417 . S
C1324 C1325 1.329 . S
C1325 C1295 1.437 1_565 S
C1325 H1296 0.929 . S
C1325 C1324 1.329 . S
H1326 C1299 0.931 . S
C1327 O1309 1.265 . S
C1327 O1310 1.242 . S
C1328 O1313 1.261 . S
C1328 O1314 1.252 . S
C1329 C1332 1.394 . S
C1329 C1334 1.370 . S
C1329 C1335 1.500 . S
C1330 C1333 1.383 . S
C1330 C1334 1.395 . S
C1331 C1332 1.396 . S
C1331 C1333 1.365 . S
C1331 H1340 0.929 . S
C1332 C1329 1.394 . S
C1332 C1331 1.396 . S
C1332 H1341 0.930 . S
C1333 C1330 1.383 . S
C1333 C1331 1.365 . S
C1333 H1342 0.931 . S
C1334 C1329 1.370 . S
C1334 C1330 1.395 . S
C1334 H1343 0.930 . S
C1335 Gd1271 2.805 . S
C1335 O1311 1.263 . S
C1335 O1312 1.252 . S
C1335 C1329 1.500 . S
H1336 C1319 0.929 . S
H1337 C1320 0.930 . S
H1338 C1321 0.931 . S
H1339 C1322 0.930 . S
H1340 C1331 0.929 . S
H1341 C1332 0.930 . S
H1342 C1333 0.931 . S
H1343 C1334 0.930 . S
C1344 C1346 1.422 . S
C1344 C1348 1.415 . S
C1344 N1350 1.369 . S
C1345 C1346 1.421 1_565 S
C1345 C1347 1.417 . S
C1345 C1357 1.422 . S
C1346 C1344 1.422 . S
C1346 C1345 1.421 1_545 S
C1346 N1356 1.359 . S
C1347 C1345 1.417 . S
C1347 C1349 1.329 . S
C1347 H1366 0.930 . S
C1348 C1344 1.415 . S
C1348 C1349 1.437 1_545 S
C1348 C1352 1.413 . S
C1349 C1347 1.329 . S
C1349 C1348 1.437 1_565 S
C1349 H1371 0.929 . S
N1350 C1344 1.369 . S
N1350 C1351 1.338 . S
N1350 Gd1355 2.622 . S
C1351 N1350 1.338 . S
C1351 C1353 1.378 . S
C1351 H1363 0.929 . S
C1352 C1348 1.413 . S
C1352 C1353 1.348 . S
C1352 H1368 0.931 . S
C1353 C1351 1.378 . S
C1353 C1352 1.348 . S
C1353 H1369 0.930 . S
Gd1354 N1374 2.622 . S
Gd1354 N1381 2.570 1_655 S
Gd1354 O1388 2.353 . S
Gd1354 O1389 2.468 1_655 S
Gd1354 O1390 2.427 . S
Gd1354 O1392 2.388 . S
Gd1354 O1393 2.386 . S
Gd1354 O1397 2.307 . S
Gd1354 C1407 2.805 1_655 S
Gd1355 N1350 2.622 . S
Gd1355 N1356 2.570 . S
Gd1355 O1387 2.386 . S
Gd1355 O1391 2.307 . S
Gd1355 O1394 2.353 . S
Gd1355 O1395 2.468 . S
Gd1355 O1396 2.427 . S
Gd1355 O1398 2.388 . S
Gd1355 C1419 2.805 . S
N1356 C1346 1.359 . S
N1356 Gd1355 2.570 . S
N1356 C1358 1.343 . S
C1357 C1345 1.422 . S
C1357 C1359 1.321 1_565 S
C1357 H1365 0.931 . S
C1358 N1356 1.343 . S
C1358 C1359 1.390 . S
C1358 H1360 0.931 . S
C1359 C1357 1.321 1_545 S
C1359 C1358 1.390 . S
C1359 H1361 0.930 . S
H1360 C1358 0.931 . S
H1361 C1359 0.930 . S
H1362 C1385 0.931 . S
H1363 C1351 0.929 . S
H1364 C1386 0.930 . S
H1365 C1357 0.931 . S
H1366 C1347 0.930 . S
H1367 C1376 0.929 . S
H1368 C1352 0.931 . S
H1369 C1353 0.930 . S
H1370 C1408 0.930 . S
H1371 C1349 0.929 . S
H1372 C1377 0.931 . S
H1373 C1378 0.930 . S
N1374 Gd1354 2.622 . S
N1374 C1375 1.369 1_655 S
N1374 C1376 1.338 . S
C1375 N1374 1.369 1_455 S
C1375 C1379 1.415 . S
C1375 C1382 1.422 . S
C1376 H1367 0.929 . S
C1376 N1374 1.338 . S
C1376 C1378 1.378 . S
C1377 H1372 0.931 . S
C1377 C1378 1.348 1_455 S
C1377 C1379 1.413 . S
C1378 H1373 0.930 . S
C1378 C1376 1.378 . S
C1378 C1377 1.348 1_655 S
C1379 C1375 1.415 . S
C1379 C1377 1.413 . S
C1379 C1409 1.437 . S
H1380 C1409 0.929 . S
N1381 Gd1354 2.570 1_455 S
N1381 C1382 1.359 . S
N1381 C1385 1.343 . S
C1382 C1375 1.422 . S
C1382 N1381 1.359 . S
C1382 C1384 1.421 . S
C1383 C1384 1.422 . S
C1383 C1386 1.321 . S
C1383 H1410 0.931 . S
C1384 C1382 1.421 . S
C1384 C1383 1.422 . S
C1384 C1408 1.417 . S
C1385 H1362 0.931 . S
C1385 N1381 1.343 . S
C1385 C1386 1.390 . S
C1386 H1364 0.930 . S
C1386 C1383 1.321 . S
C1386 C1385 1.390 . S
O1387 Gd1355 2.386 . S
O1387 C1399 1.265 . S
O1388 Gd1354 2.353 . S
O1388 C1399 1.242 . S
O1389 Gd1354 2.468 1_455 S
O1389 C1407 1.263 . S
O1390 Gd1354 2.427 . S
O1390 C1407 1.252 1_655 S
O1391 Gd1355 2.307 . S
O1391 C1400 1.261 . S
O1392 Gd1354 2.388 . S
O1392 C1400 1.252 . S
O1393 Gd1354 2.386 . S
O1393 C1411 1.265 . S
O1394 Gd1355 2.353 . S
O1394 C1411 1.242 . S
O1395 Gd1355 2.468 . S
O1395 C1419 1.263 . S
O1396 Gd1355 2.427 . S
O1396 C1419 1.252 . S
O1397 Gd1354 2.307 . S
O1397 C1412 1.261 . S
O1398 Gd1355 2.388 . S
O1398 C1412 1.252 . S
C1399 O1387 1.265 . S
C1399 O1388 1.242 . S
C1400 O1391 1.261 . S
C1400 O1392 1.252 . S
C1401 C1404 1.394 . S
C1401 C1406 1.370 . S
C1401 C1407 1.500 . S
C1402 C1405 1.383 . S
C1402 C1406 1.395 . S
C1403 C1404 1.396 . S
C1403 C1405 1.365 . S
C1403 H1420 0.929 . S
C1404 C1401 1.394 . S
C1404 C1403 1.396 . S
C1404 H1421 0.930 . S
C1405 C1402 1.383 . S
C1405 C1403 1.365 . S
C1405 H1422 0.931 . S
C1406 C1401 1.370 . S
C1406 C1402 1.395 . S
C1406 H1423 0.930 . S
C1407 Gd1354 2.805 1_455 S
C1407 O1389 1.263 . S
C1407 O1390 1.252 1_455 S
C1407 C1401 1.500 . S
C1408 H1370 0.930 . S
C1408 C1384 1.417 . S
C1408 C1409 1.329 . S
C1409 C1379 1.437 . S
C1409 H1380 0.929 . S
C1409 C1408 1.329 . S
H1410 C1383 0.931 . S
C1411 O1393 1.265 . S
C1411 O1394 1.242 . S
C1412 O1397 1.261 . S
C1412 O1398 1.252 . S
C1413 C1416 1.394 . S
C1413 C1418 1.370 . S
C1413 C1419 1.500 . S
C1414 C1417 1.383 . S
C1414 C1418 1.395 . S
C1415 C1416 1.396 . S
C1415 C1417 1.365 . S
C1415 H1424 0.929 . S
C1416 C1413 1.394 . S
C1416 C1415 1.396 . S
C1416 H1425 0.930 . S
C1417 C1414 1.383 . S
C1417 C1415 1.365 . S
C1417 H1426 0.931 . S
C1418 C1413 1.370 . S
C1418 C1414 1.395 . S
C1418 H1427 0.930 . S
C1419 Gd1355 2.805 . S
C1419 O1395 1.263 . S
C1419 O1396 1.252 . S
C1419 C1413 1.500 . S
H1420 C1403 0.929 . S
H1421 C1404 0.930 . S
H1422 C1405 0.931 . S
H1423 C1406 0.930 . S
H1424 C1415 0.929 . S
H1425 C1416 0.930 . S
H1426 C1417 0.931 . S
H1427 C1418 0.930 . S
C1428 C1430 1.419 1_655 S
C1428 C1432 1.415 1_655 S
C1428 N1434 1.369 . S
C1429 C1430 1.430 . S
C1429 C1431 1.417 . S
C1429 C1441 1.422 . S
C1430 C1428 1.419 1_455 S
C1430 C1429 1.430 . S
C1430 N1440 1.353 1_455 S
C1431 C1429 1.417 . S
C1431 C1433 1.329 . S
C1431 H1450 0.930 . S
C1432 C1428 1.415 1_455 S
C1432 C1433 1.437 . S
C1432 C1436 1.413 . S
C1433 C1431 1.329 . S
C1433 C1432 1.437 . S
C1433 H1455 0.929 . S
N1434 C1428 1.369 . S
N1434 C1435 1.338 . S
N1434 Gd1439 2.622 . S
C1435 N1434 1.338 . S
C1435 C1437 1.378 . S
C1435 H1447 0.929 . S
C1436 C1432 1.413 . S
C1436 C1437 1.348 1_455 S
C1436 H1452 0.931 . S
C1437 C1435 1.378 . S
C1437 C1436 1.348 1_655 S
C1437 H1453 0.930 . S
Gd1438 N1458 2.622 . S
Gd1438 N1465 2.570 . S
Gd1438 O1472 2.353 . S
Gd1438 O1473 2.468 . S
Gd1438 O1474 2.427 . S
Gd1438 O1476 2.388 . S
Gd1438 O1477 2.386 . S
Gd1438 O1481 2.307 . S
Gd1438 C1491 2.805 . S
Gd1439 N1434 2.622 . S
Gd1439 N1440 2.570 . S
Gd1439 O1471 2.386 . S
Gd1439 O1475 2.307 . S
Gd1439 O1478 2.353 . S
Gd1439 O1479 2.468 . S
Gd1439 O1480 2.427 . S
Gd1439 O1482 2.388 . S
Gd1439 C1503 2.805 . S
N1440 C1430 1.353 1_655 S
N1440 Gd1439 2.570 . S
N1440 C1442 1.343 . S
C1441 C1429 1.422 . S
C1441 C1443 1.321 . S
C1441 H1449 0.931 . S
C1442 N1440 1.343 . S
C1442 C1443 1.390 1_655 S
C1442 H1444 0.931 . S
C1443 C1441 1.321 . S
C1443 C1442 1.390 1_455 S
C1443 H1445 0.930 . S
H1444 C1442 0.931 . S
H1445 C1443 0.930 . S
H1446 C1469 0.931 . S
H1447 C1435 0.929 . S
H1448 C1470 0.930 . S
H1449 C1441 0.931 . S
H1450 C1431 0.930 . S
H1451 C1460 0.929 . S
H1452 C1436 0.931 . S
H1453 C1437 0.930 . S
H1454 C1492 0.930 . S
H1455 C1433 0.929 . S
H1456 C1461 0.931 . S
H1457 C1462 0.930 . S
N1458 Gd1438 2.622 . S
N1458 C1459 1.369 . S
N1458 C1460 1.338 . S
C1459 N1458 1.369 . S
C1459 C1463 1.415 . S
C1459 C1466 1.422 . S
C1460 H1451 0.929 . S
C1460 N1458 1.338 . S
C1460 C1462 1.378 . S
C1461 H1456 0.931 . S
C1461 C1462 1.348 . S
C1461 C1463 1.413 . S
C1462 H1457 0.930 . S
C1462 C1460 1.378 . S
C1462 C1461 1.348 . S
C1463 C1459 1.415 . S
C1463 C1461 1.413 . S
C1463 C1493 1.437 . S
H1464 C1493 0.929 . S
N1465 Gd1438 2.570 . S
N1465 C1466 1.359 . S
N1465 C1469 1.343 . S
C1466 C1459 1.422 . S
C1466 N1465 1.359 . S
C1466 C1468 1.421 . S
C1467 C1468 1.422 . S
C1467 C1470 1.321 . S
C1467 H1494 0.931 . S
C1468 C1466 1.421 . S
C1468 C1467 1.422 . S
C1468 C1492 1.417 . S
C1469 H1446 0.931 . S
C1469 N1465 1.343 . S
C1469 C1470 1.390 . S
C1470 H1448 0.930 . S
C1470 C1467 1.321 . S
C1470 C1469 1.390 . S
O1471 Gd1439 2.386 . S
O1471 C1483 1.265 . S
O1472 Gd1438 2.353 . S
O1472 C1483 1.242 . S
O1473 Gd1438 2.468 . S
O1473 C1491 1.263 . S
O1474 Gd1438 2.427 . S
O1474 C1491 1.252 . S
O1475 Gd1439 2.307 . S
O1475 C1484 1.261 . S
O1476 Gd1438 2.388 . S
O1476 C1484 1.252 . S
O1477 Gd1438 2.386 . S
O1477 C1495 1.265 . S
O1478 Gd1439 2.353 . S
O1478 C1495 1.242 . S
O1479 Gd1439 2.468 . S
O1479 C1503 1.263 . S
O1480 Gd1439 2.427 . S
O1480 C1503 1.252 . S
O1481 Gd1438 2.307 . S
O1481 C1496 1.261 . S
O1482 Gd1439 2.388 . S
O1482 C1496 1.252 . S
C1483 O1471 1.265 . S
C1483 O1472 1.242 . S
C1484 O1475 1.261 . S
C1484 O1476 1.252 . S
C1485 C1488 1.394 . S
C1485 C1490 1.370 . S
C1485 C1491 1.500 . S
C1486 C1489 1.383 . S
C1486 C1490 1.395 . S
C1487 C1488 1.396 . S
C1487 C1489 1.365 . S
C1487 H1504 0.929 . S
C1488 C1485 1.394 . S
C1488 C1487 1.396 . S
C1488 H1505 0.930 . S
C1489 C1486 1.383 . S
C1489 C1487 1.365 . S
C1489 H1506 0.943 . S
C1490 C1485 1.370 . S
C1490 C1486 1.395 . S
C1490 H1507 0.930 . S
C1491 Gd1438 2.805 . S
C1491 O1473 1.263 . S
C1491 O1474 1.252 . S
C1491 C1485 1.500 . S
C1492 H1454 0.930 . S
C1492 C1468 1.417 . S
C1492 C1493 1.329 . S
C1493 C1463 1.437 . S
C1493 H1464 0.929 . S
C1493 C1492 1.329 . S
H1494 C1467 0.931 . S
C1495 O1477 1.265 . S
C1495 O1478 1.242 . S
C1496 O1481 1.261 . S
C1496 O1482 1.252 . S
C1497 C1500 1.394 . S
C1497 C1502 1.370 . S
C1497 C1503 1.500 . S
C1498 C1501 1.383 . S
C1498 C1502 1.395 . S
C1499 C1500 1.396 . S
C1499 C1501 1.365 . S
C1499 H1508 0.929 . S
C1500 C1497 1.394 . S
C1500 C1499 1.396 . S
C1500 H1509 0.930 . S
C1501 C1498 1.383 . S
C1501 C1499 1.365 . S
C1501 H1510 0.931 . S
C1502 C1497 1.370 . S
C1502 C1498 1.395 . S
C1502 H1511 0.930 . S
C1503 Gd1439 2.805 . S
C1503 O1479 1.263 . S
C1503 O1480 1.252 . S
C1503 C1497 1.500 . S
H1504 C1487 0.929 . S
H1505 C1488 0.930 . S
H1506 C1489 0.943 . S
H1507 C1490 0.930 . S
H1508 C1499 0.929 . S
H1509 C1500 0.930 . S
H1510 C1501 0.931 . S
H1511 C1502 0.930 . S
C1512 C1513 1.387 . S
C1512 H1516 0.950 . S
C1512 C1521 1.390 . S
C1513 C1512 1.387 . S
C1513 C1515 1.387 . S
H1514 C1521 0.950 . S
C1515 C1513 1.387 . S
C1515 C1517 1.390 . S
C1515 H1519 0.950 . S
H1516 C1512 0.950 . S
C1517 C1515 1.390 . S
C1517 C1518 1.387 . S
C1517 H1520 0.950 . S
C1518 C1517 1.387 . S
C1518 C1521 1.387 . S
H1519 C1515 0.950 . S
H1520 C1517 0.950 . S
C1521 C1512 1.390 . S
C1521 H1514 0.950 . S
C1521 C1518 1.387 . S
C1522 C1523 1.387 . S
C1522 H1526 0.950 . S
C1522 C1531 1.390 . S
C1523 C1522 1.387 . S
C1523 C1525 1.387 . S
H1524 C1531 0.950 . S
C1525 C1523 1.387 . S
C1525 C1527 1.390 . S
C1525 H1529 0.950 . S
H1526 C1522 0.950 . S
C1527 C1525 1.390 . S
C1527 C1528 1.387 . S
C1527 H1530 0.950 . S
C1528 C1527 1.387 . S
C1528 C1531 1.387 . S
H1529 C1525 0.950 . S
H1530 C1527 0.950 . S
C1531 C1522 1.390 . S
C1531 H1524 0.950 . S
C1531 C1528 1.387 . S
C1532 C1533 1.387 . S
C1532 H1536 0.950 . S
C1532 C1541 1.390 . S
C1533 C1532 1.387 . S
C1533 C1535 1.387 . S
H1534 C1541 0.950 . S
C1535 C1533 1.387 . S
C1535 C1537 1.390 . S
C1535 H1539 0.950 . S
H1536 C1532 0.950 . S
C1537 C1535 1.390 . S
C1537 C1538 1.387 . S
C1537 H1540 0.950 . S
C1538 C1537 1.387 . S
C1538 C1541 1.387 . S
H1539 C1535 0.950 . S
H1540 C1537 0.950 . S
C1541 C1532 1.390 . S
C1541 H1534 0.950 . S
C1541 C1538 1.387 . S
C1542 C1543 1.387 . S
C1542 H1546 0.950 . S
C1542 C1551 1.390 . S
C1543 C1542 1.387 . S
C1543 C1545 1.387 . S
H1544 C1551 0.950 . S
C1545 C1543 1.387 . S
C1545 C1547 1.390 . S
C1545 H1549 0.950 . S
H1546 C1542 0.950 . S
C1547 C1545 1.390 . S
C1547 C1548 1.387 . S
C1547 H1550 0.950 . S
C1548 C1547 1.387 . S
C1548 C1551 1.387 . S
H1549 C1545 0.950 . S
H1550 C1547 0.950 . S
C1551 C1542 1.390 . S
C1551 H1544 0.950 . S
C1551 C1548 1.387 . S
C1552 C1553 1.387 . S
C1552 H1556 0.950 . S
C1552 C1561 1.390 . S
C1553 C1552 1.387 . S
C1553 C1555 1.387 . S
H1554 C1561 0.950 . S
C1555 C1553 1.387 . S
C1555 C1557 1.390 . S
C1555 H1559 0.950 . S
H1556 C1552 0.950 . S
C1557 C1555 1.390 . S
C1557 C1558 1.387 . S
C1557 H1560 0.950 . S
C1558 C1557 1.387 . S
C1558 C1561 1.387 . S
H1559 C1555 0.950 . S
H1560 C1557 0.950 . S
C1561 C1552 1.390 . S
C1561 H1554 0.950 . S
C1561 C1558 1.387 . S
C1562 C1563 1.387 . S
C1562 H1566 0.950 . S
C1562 C1571 1.390 . S
C1563 C1562 1.387 . S
C1563 C1565 1.387 . S
H1564 C1571 0.950 . S
C1565 C1563 1.387 . S
C1565 C1567 1.390 . S
C1565 H1569 0.950 . S
H1566 C1562 0.950 . S
C1567 C1565 1.390 . S
C1567 C1568 1.387 . S
C1567 H1570 0.950 . S
C1568 C1567 1.387 . S
C1568 C1571 1.387 . S
H1569 C1565 0.950 . S
H1570 C1567 0.950 . S
C1571 C1562 1.390 . S
C1571 H1564 0.950 . S
C1571 C1568 1.387 . S
C1572 C1573 1.387 . S
C1572 H1576 0.950 . S
C1572 C1581 1.390 . S
C1573 C1572 1.387 . S
C1573 C1575 1.387 . S
H1574 C1581 0.950 . S
C1575 C1573 1.387 . S
C1575 C1577 1.390 . S
C1575 H1579 0.950 . S
H1576 C1572 0.950 . S
C1577 C1575 1.390 . S
C1577 C1578 1.387 . S
C1577 H1580 0.950 . S
C1578 C1577 1.387 . S
C1578 C1581 1.387 . S
H1579 C1575 0.950 . S
H1580 C1577 0.950 . S
C1581 C1572 1.390 . S
C1581 H1574 0.950 . S
C1581 C1578 1.387 . S
C1582 C1583 1.387 . S
C1582 H1586 0.950 . S
C1582 C1591 1.390 1_545 S
C1583 C1582 1.387 . S
C1583 C1585 1.387 . S
H1584 C1591 0.950 . S
C1585 C1583 1.387 . S
C1585 C1587 1.390 1_545 S
C1585 H1589 0.950 . S
H1586 C1582 0.950 . S
C1587 C1585 1.390 1_565 S
C1587 C1588 1.387 . S
C1587 H1590 0.950 . S
C1588 C1587 1.387 . S
C1588 C1591 1.387 . S
H1589 C1585 0.950 . S
H1590 C1587 0.950 . S
C1591 C1582 1.390 1_565 S
C1591 H1584 0.950 . S
C1591 C1588 1.387 . S
C1592 C1593 1.387 . S
C1592 H1596 0.950 . S
C1592 C1601 1.390 . S
C1593 C1592 1.387 . S
C1593 C1595 1.387 . S
H1594 C1601 0.950 1_655 S
C1595 C1593 1.387 . S
C1595 C1597 1.390 1_455 S
C1595 H1599 0.950 . S
H1596 C1592 0.950 . S
C1597 C1595 1.390 1_655 S
C1597 C1598 1.387 . S
C1597 H1600 0.950 . S
C1598 C1597 1.387 . S
C1598 C1601 1.387 1_655 S
H1599 C1595 0.950 . S
H1600 C1597 0.950 . S
C1601 C1592 1.390 . S
C1601 H1594 0.950 1_455 S
C1601 C1598 1.387 1_455 S
C1602 C1603 1.387 . S
C1602 H1606 0.950 . S
C1602 C1611 1.390 . S
C1603 C1602 1.387 . S
C1603 C1605 1.387 . S
H1604 C1611 0.950 . S
C1605 C1603 1.387 . S
C1605 C1607 1.390 . S
C1605 H1609 0.950 . S
H1606 C1602 0.950 . S
C1607 C1605 1.390 . S
C1607 C1608 1.387 . S
C1607 H1610 0.950 . S
C1608 C1607 1.387 . S
C1608 C1611 1.387 . S
H1609 C1605 0.950 . S
H1610 C1607 0.950 . S
C1611 C1602 1.390 . S
C1611 H1604 0.950 . S
C1611 C1608 1.387 . S
C1612 C1613 1.387 . S
C1612 H1616 0.950 . S
C1612 C1621 1.390 . S
C1613 C1612 1.387 . S
C1613 C1615 1.387 . S
H1614 C1621 0.950 . S
C1615 C1613 1.387 . S
C1615 C1617 1.390 . S
C1615 H1619 0.950 . S
H1616 C1612 0.950 . S
C1617 C1615 1.390 . S
C1617 C1618 1.387 . S
C1617 H1620 0.950 . S
C1618 C1617 1.387 . S
C1618 C1621 1.387 . S
H1619 C1615 0.950 . S
H1620 C1617 0.950 . S
C1621 C1612 1.390 . S
C1621 H1614 0.950 . S
C1621 C1618 1.387 . S
C1622 C1623 1.387 . S
C1622 H1626 0.950 . S
C1622 C1631 1.390 . S
C1623 C1622 1.387 . S
C1623 C1625 1.387 . S
H1624 C1631 0.950 . S
C1625 C1623 1.387 . S
C1625 C1627 1.390 . S
C1625 H1629 0.950 . S
H1626 C1622 0.950 . S
C1627 C1625 1.390 . S
C1627 C1628 1.387 . S
C1627 H1630 0.950 . S
C1628 C1627 1.387 . S
C1628 C1631 1.387 . S
H1629 C1625 0.950 . S
H1630 C1627 0.950 . S
C1631 C1622 1.390 . S
C1631 H1624 0.950 . S
C1631 C1628 1.387 . S
C1632 C1633 1.387 . S
C1632 H1636 0.950 . S
C1632 C1641 1.390 . S
C1633 C1632 1.387 . S
C1633 C1635 1.387 . S
H1634 C1641 0.950 . S
C1635 C1633 1.387 . S
C1635 C1637 1.390 . S
C1635 H1639 0.950 . S
H1636 C1632 0.950 . S
C1637 C1635 1.390 . S
C1637 C1638 1.387 . S
C1637 H1640 0.950 . S
C1638 C1637 1.387 . S
C1638 C1641 1.387 . S
H1639 C1635 0.950 . S
H1640 C1637 0.950 . S
C1641 C1632 1.390 . S
C1641 H1634 0.950 . S
C1641 C1638 1.387 . S
C1642 C1643 1.387 . S
C1642 H1646 0.950 . S
C1642 C1651 1.390 . S
C1643 C1642 1.387 . S
C1643 C1645 1.387 . S
H1644 C1651 0.950 . S
C1645 C1643 1.387 . S
C1645 C1647 1.390 . S
C1645 H1649 0.950 . S
H1646 C1642 0.950 . S
C1647 C1645 1.390 . S
C1647 C1648 1.387 . S
C1647 H1650 0.950 . S
C1648 C1647 1.387 . S
C1648 C1651 1.387 . S
H1649 C1645 0.950 . S
H1650 C1647 0.950 . S
C1651 C1642 1.390 . S
C1651 H1644 0.950 . S
C1651 C1648 1.387 . S
C1652 C1653 1.387 . S
C1652 H1656 0.950 . S
C1652 C1661 1.390 . S
C1653 C1652 1.387 . S
C1653 C1655 1.387 . S
H1654 C1661 0.950 . S
C1655 C1653 1.387 . S
C1655 C1657 1.390 . S
C1655 H1659 0.950 . S
H1656 C1652 0.950 . S
C1657 C1655 1.390 . S
C1657 C1658 1.387 . S
C1657 H1660 0.950 . S
C1658 C1657 1.387 . S
C1658 C1661 1.387 . S
H1659 C1655 0.950 . S
H1660 C1657 0.950 . S
C1661 C1652 1.390 . S
C1661 H1654 0.950 . S
C1661 C1658 1.387 . S
C1662 C1663 1.387 . S
C1662 H1666 0.950 . S
C1662 C1671 1.390 . S
C1663 C1662 1.387 . S
C1663 C1665 1.387 . S
H1664 C1671 0.950 . S
C1665 C1663 1.387 . S
C1665 C1667 1.390 . S
C1665 H1669 0.950 . S
H1666 C1662 0.950 . S
C1667 C1665 1.390 . S
C1667 C1668 1.387 . S
C1667 H1670 0.950 . S
C1668 C1667 1.387 . S
C1668 C1671 1.387 . S
H1669 C1665 0.950 . S
H1670 C1667 0.950 . S
C1671 C1662 1.390 . S
C1671 H1664 0.950 . S
C1671 C1668 1.387 . S
C1672 C1673 1.387 . S
C1672 H1676 0.950 . S
C1672 C1681 1.390 1_565 S
C1673 C1672 1.387 . S
C1673 C1675 1.387 1_565 S
H1674 C1681 0.950 . S
C1675 C1673 1.387 1_545 S
C1675 C1677 1.390 . S
C1675 H1679 0.950 1_545 S
H1676 C1672 0.950 . S
C1677 C1675 1.390 . S
C1677 C1678 1.387 . S
C1677 H1680 0.950 . S
C1678 C1677 1.387 . S
C1678 C1681 1.387 . S
H1679 C1675 0.950 1_565 S
H1680 C1677 0.950 . S
C1681 C1672 1.390 1_545 S
C1681 H1674 0.950 . S
C1681 C1678 1.387 . S
C1682 C1683 1.387 . S
C1682 H1686 0.950 . S
C1682 C1691 1.390 1_455 S
C1683 C1682 1.387 . S
C1683 C1685 1.387 . S
H1684 C1691 0.950 . S
C1685 C1683 1.387 . S
C1685 C1687 1.390 1_455 S
C1685 H1689 0.950 . S
H1686 C1682 0.950 . S
C1687 C1685 1.390 1_655 S
C1687 C1688 1.387 . S
C1687 H1690 0.950 . S
C1688 C1687 1.387 . S
C1688 C1691 1.387 . S
H1689 C1685 0.950 . S
H1690 C1687 0.950 . S
C1691 C1682 1.390 1_655 S
C1691 H1684 0.950 . S
C1691 C1688 1.387 . S
C1692 C1693 1.387 . S
C1692 H1696 0.950 . S
C1692 C1701 1.390 1_554 S
C1693 C1692 1.387 . S
C1693 C1695 1.387 . S
H1694 C1701 0.950 . S
C1695 C1693 1.387 . S
C1695 C1697 1.390 1_554 S
C1695 H1699 0.950 . S
H1696 C1692 0.950 . S
C1697 C1695 1.390 1_556 S
C1697 C1698 1.387 . S
C1697 H1700 0.950 . S
C1698 C1697 1.387 . S
C1698 C1701 1.387 . S
H1699 C1695 0.950 . S
H1700 C1697 0.950 . S
C1701 C1692 1.390 1_556 S
C1701 H1694 0.950 . S
C1701 C1698 1.387 . S
C1702 C1703 1.387 . S
C1702 H1706 0.950 . S
C1702 C1711 1.390 1_556 S
C1703 C1702 1.387 . S
C1703 C1705 1.387 1_455 S
H1704 C1711 0.950 . S
C1705 C1703 1.387 1_655 S
C1705 C1707 1.390 1_556 S
C1705 H1709 0.950 . S
H1706 C1702 0.950 . S
C1707 C1705 1.390 1_554 S
C1707 C1708 1.387 1_655 S
C1707 H1710 0.950 . S
C1708 C1707 1.387 1_455 S
C1708 C1711 1.387 . S
H1709 C1705 0.950 . S
H1710 C1707 0.950 . S
C1711 C1702 1.390 1_554 S
C1711 H1704 0.950 . S
C1711 C1708 1.387 . S
C1712 C1713 1.387 . S
C1712 H1716 0.950 . S
C1712 C1721 1.390 1_556 S
C1713 C1712 1.387 . S
C1713 C1715 1.387 . S
H1714 C1721 0.950 . S
C1715 C1713 1.387 . S
C1715 C1717 1.390 1_556 S
C1715 H1719 0.950 . S
H1716 C1712 0.950 . S
C1717 C1715 1.390 1_554 S
C1717 C1718 1.387 . S
C1717 H1720 0.950 . S
C1718 C1717 1.387 . S
C1718 C1721 1.387 . S
H1719 C1715 0.950 . S
H1720 C1717 0.950 . S
C1721 C1712 1.390 1_554 S
C1721 H1714 0.950 . S
C1721 C1718 1.387 . S
C1722 C1723 1.387 . S
C1722 H1726 0.950 . S
C1722 C1731 1.390 . S
C1723 C1722 1.387 . S
C1723 C1725 1.387 . S
H1724 C1731 0.950 . S
C1725 C1723 1.387 . S
C1725 C1727 1.390 . S
C1725 H1729 0.950 . S
H1726 C1722 0.950 . S
C1727 C1725 1.390 . S
C1727 C1728 1.387 . S
C1727 H1730 0.950 . S
C1728 C1727 1.387 . S
C1728 C1731 1.387 . S
H1729 C1725 0.950 . S
H1730 C1727 0.950 . S
C1731 C1722 1.390 . S
C1731 H1724 0.950 . S
C1731 C1728 1.387 . S
C1732 C1733 1.387 . S
C1732 H1736 0.950 . S
C1732 C1741 1.390 . S
C1733 C1732 1.387 . S
C1733 C1735 1.387 . S
H1734 C1741 0.950 . S
C1735 C1733 1.387 . S
C1735 C1737 1.390 . S
C1735 H1739 0.950 . S
H1736 C1732 0.950 . S
C1737 C1735 1.390 . S
C1737 C1738 1.387 . S
C1737 H1740 0.950 . S
C1738 C1737 1.387 . S
C1738 C1741 1.387 . S
H1739 C1735 0.950 . S
H1740 C1737 0.950 . S
C1741 C1732 1.390 . S
C1741 H1734 0.950 . S
C1741 C1738 1.387 . S
C1742 C1743 1.387 . S
C1742 H1746 0.950 . S
C1742 C1751 1.390 . S
C1743 C1742 1.387 . S
C1743 C1745 1.387 . S
H1744 C1751 0.950 . S
C1745 C1743 1.387 . S
C1745 C1747 1.390 . S
C1745 H1749 0.950 . S
H1746 C1742 0.950 . S
C1747 C1745 1.390 . S
C1747 C1748 1.387 . S
C1747 H1750 0.950 . S
C1748 C1747 1.387 . S
C1748 C1751 1.387 . S
H1749 C1745 0.950 . S
H1750 C1747 0.950 . S
C1751 C1742 1.390 . S
C1751 H1744 0.950 . S
C1751 C1748 1.387 . S
C1752 C1753 1.387 . S
C1752 H1756 0.950 . S
C1752 C1761 1.390 . S
C1753 C1752 1.387 . S
C1753 C1755 1.387 . S
H1754 C1761 0.950 . S
C1755 C1753 1.387 . S
C1755 C1757 1.390 . S
C1755 H1759 0.950 . S
H1756 C1752 0.950 . S
C1757 C1755 1.390 . S
C1757 C1758 1.387 . S
C1757 H1760 0.950 . S
C1758 C1757 1.387 . S
C1758 C1761 1.387 . S
H1759 C1755 0.950 . S
H1760 C1757 0.950 . S
C1761 C1752 1.390 . S
C1761 H1754 0.950 . S
C1761 C1758 1.387 . S
C1762 C1763 1.387 . S
C1762 H1766 0.950 . S
C1762 C1771 1.390 . S
C1763 C1762 1.387 . S
C1763 C1765 1.387 . S
H1764 C1771 0.950 . S
C1765 C1763 1.387 . S
C1765 C1767 1.390 . S
C1765 H1769 0.950 . S
H1766 C1762 0.950 . S
C1767 C1765 1.390 . S
C1767 C1768 1.387 . S
C1767 H1770 0.950 . S
C1768 C1767 1.387 . S
C1768 C1771 1.387 . S
H1769 C1765 0.950 . S
H1770 C1767 0.950 . S
C1771 C1762 1.390 . S
C1771 H1764 0.950 . S
C1771 C1768 1.387 . S
C1772 C1773 1.387 . S
C1772 H1776 0.950 . S
C1772 C1781 1.390 . S
C1773 C1772 1.387 . S
C1773 C1775 1.387 . S
H1774 C1781 0.950 . S
C1775 C1773 1.387 . S
C1775 C1777 1.390 . S
C1775 H1779 0.950 . S
H1776 C1772 0.950 . S
C1777 C1775 1.390 . S
C1777 C1778 1.387 . S
C1777 H1780 0.950 . S
C1778 C1777 1.387 . S
C1778 C1781 1.387 . S
H1779 C1775 0.950 . S
H1780 C1777 0.950 . S
C1781 C1772 1.390 . S
C1781 H1774 0.950 . S
C1781 C1778 1.387 . S
C1782 C1783 1.387 . S
C1782 H1786 0.950 . S
C1782 C1791 1.390 . S
C1783 C1782 1.387 . S
C1783 C1785 1.387 . S
H1784 C1791 0.950 1_545 S
C1785 C1783 1.387 . S
C1785 C1787 1.390 . S
C1785 H1789 0.950 . S
H1786 C1782 0.950 . S
C1787 C1785 1.390 . S
C1787 C1788 1.387 . S
C1787 H1790 0.950 . S
C1788 C1787 1.387 . S
C1788 C1791 1.387 . S
H1789 C1785 0.950 . S
H1790 C1787 0.950 . S
C1791 C1782 1.390 . S
C1791 H1784 0.950 1_565 S
C1791 C1788 1.387 . S
C1792 C1793 1.387 . S
C1792 H1796 0.950 . S
C1792 C1801 1.390 . S
C1793 C1792 1.387 . S
C1793 C1795 1.387 . S
H1794 C1801 0.950 . S
C1795 C1793 1.387 . S
C1795 C1797 1.390 . S
C1795 H1799 0.950 . S
H1796 C1792 0.950 . S
C1797 C1795 1.390 . S
C1797 C1798 1.387 . S
C1797 H1800 0.950 . S
C1798 C1797 1.387 . S
C1798 C1801 1.387 . S
H1799 C1795 0.950 . S
H1800 C1797 0.950 . S
C1801 C1792 1.390 . S
C1801 H1794 0.950 . S
C1801 C1798 1.387 . S
C1802 C1803 1.387 . S
C1802 H1806 0.950 . S
C1802 C1811 1.390 . S
C1803 C1802 1.387 . S
C1803 C1805 1.387 . S
H1804 C1811 0.950 . S
C1805 C1803 1.387 . S
C1805 C1807 1.390 . S
C1805 H1809 0.950 . S
H1806 C1802 0.950 . S
C1807 C1805 1.390 . S
C1807 C1808 1.387 . S
C1807 H1810 0.950 . S
C1808 C1807 1.387 . S
C1808 C1811 1.387 . S
H1809 C1805 0.950 . S
H1810 C1807 0.950 . S
C1811 C1802 1.390 . S
C1811 H1804 0.950 . S
C1811 C1808 1.387 . S
C1812 C1813 1.387 . S
C1812 H1816 0.950 . S
C1812 C1821 1.390 . S
C1813 C1812 1.387 . S
C1813 C1815 1.387 . S
H1814 C1821 0.950 . S
C1815 C1813 1.387 . S
C1815 C1817 1.390 . S
C1815 H1819 0.950 1_655 S
H1816 C1812 0.950 . S
C1817 C1815 1.390 . S
C1817 C1818 1.387 . S
C1817 H1820 0.950 . S
C1818 C1817 1.387 . S
C1818 C1821 1.387 . S
H1819 C1815 0.950 1_455 S
H1820 C1817 0.950 . S
C1821 C1812 1.390 . S
C1821 H1814 0.950 . S
C1821 C1818 1.387 . S
C1822 C1823 1.387 . S
C1822 H1826 0.950 . S
C1822 C1831 1.390 . S
C1823 C1822 1.387 . S
C1823 C1825 1.387 . S
H1824 C1831 0.950 . S
C1825 C1823 1.387 . S
C1825 C1827 1.390 . S
C1825 H1829 0.950 . S
H1826 C1822 0.950 . S
C1827 C1825 1.390 . S
C1827 C1828 1.387 . S
C1827 H1830 0.950 . S
C1828 C1827 1.387 . S
C1828 C1831 1.387 . S
H1829 C1825 0.950 . S
H1830 C1827 0.950 . S
C1831 C1822 1.390 . S
C1831 H1824 0.950 . S
C1831 C1828 1.387 . S
C1832 C1833 1.387 . S
C1832 H1836 0.950 . S
C1832 C1841 1.390 . S
C1833 C1832 1.387 . S
C1833 C1835 1.387 . S
H1834 C1841 0.950 . S
C1835 C1833 1.387 . S
C1835 C1837 1.390 . S
C1835 H1839 0.950 . S
H1836 C1832 0.950 . S
C1837 C1835 1.390 . S
C1837 C1838 1.387 . S
C1837 H1840 0.950 . S
C1838 C1837 1.387 . S
C1838 C1841 1.387 . S
H1839 C1835 0.950 . S
H1840 C1837 0.950 . S
C1841 C1832 1.390 . S
C1841 H1834 0.950 . S
C1841 C1838 1.387 . S
C1842 C1843 1.387 1_455 S
C1842 H1846 0.950 . S
C1842 C1851 1.390 . S
C1843 C1842 1.387 1_655 S
C1843 C1845 1.387 . S
H1844 C1851 0.950 . S
C1845 C1843 1.387 . S
C1845 C1847 1.390 1_655 S
C1845 H1849 0.950 . S
H1846 C1842 0.950 . S
C1847 C1845 1.390 1_455 S
C1847 C1848 1.387 . S
C1847 H1850 0.950 . S
C1848 C1847 1.387 . S
C1848 C1851 1.387 . S
H1849 C1845 0.950 . S
H1850 C1847 0.950 . S
C1851 C1842 1.390 . S
C1851 H1844 0.950 . S
C1851 C1848 1.387 . S
C1852 C1853 1.387 . S
C1852 H1856 0.950 . S
C1852 C1861 1.390 . S
C1853 C1852 1.387 . S
C1853 C1855 1.387 . S
H1854 C1861 0.950 . S
C1855 C1853 1.387 . S
C1855 C1857 1.390 . S
C1855 H1859 0.950 . S
H1856 C1852 0.950 . S
C1857 C1855 1.390 . S
C1857 C1858 1.387 . S
C1857 H1860 0.950 . S
C1858 C1857 1.387 . S
C1858 C1861 1.387 . S
H1859 C1855 0.950 . S
H1860 C1857 0.950 . S
C1861 C1852 1.390 . S
C1861 H1854 0.950 . S
C1861 C1858 1.387 . S
C1862 C1863 1.387 . S
C1862 H1866 0.950 . S
C1862 C1871 1.390 1_565 S
C1863 C1862 1.387 . S
C1863 C1865 1.387 . S
H1864 C1871 0.950 . S
C1865 C1863 1.387 . S
C1865 C1867 1.390 1_565 S
C1865 H1869 0.950 . S
H1866 C1862 0.950 . S
C1867 C1865 1.390 1_545 S
C1867 C1868 1.387 . S
C1867 H1870 0.950 . S
C1868 C1867 1.387 . S
C1868 C1871 1.387 . S
H1869 C1865 0.950 . S
H1870 C1867 0.950 . S
C1871 C1862 1.390 1_545 S
C1871 H1864 0.950 . S
C1871 C1868 1.387 . S
C1872 C1873 1.387 . S
C1872 H1876 0.950 . S
C1872 C1881 1.390 . S
C1873 C1872 1.387 . S
C1873 C1875 1.387 . S
H1874 C1881 0.950 . S
C1875 C1873 1.387 . S
C1875 C1877 1.390 . S
C1875 H1879 0.950 . S
H1876 C1872 0.950 . S
C1877 C1875 1.390 . S
C1877 C1878 1.387 . S
C1877 H1880 0.950 . S
C1878 C1877 1.387 . S
C1878 C1881 1.387 . S
H1879 C1875 0.950 . S
H1880 C1877 0.950 . S
C1881 C1872 1.390 . S
C1881 H1874 0.950 . S
C1881 C1878 1.387 . S
C1882 C1883 1.387 . S
C1882 H1886 0.950 . S
C1882 C1891 1.390 . S
C1883 C1882 1.387 . S
C1883 C1885 1.387 . S
H1884 C1891 0.950 . S
C1885 C1883 1.387 . S
C1885 C1887 1.390 . S
C1885 H1889 0.950 . S
H1886 C1882 0.950 . S
C1887 C1885 1.390 . S
C1887 C1888 1.387 . S
C1887 H1890 0.950 . S
C1888 C1887 1.387 . S
C1888 C1891 1.387 . S
H1889 C1885 0.950 . S
H1890 C1887 0.950 . S
C1891 C1882 1.390 . S
C1891 H1884 0.950 . S
C1891 C1888 1.387 . S
C1892 C1893 1.387 . S
C1892 H1896 0.950 . S
C1892 C1901 1.390 . S
C1893 C1892 1.387 . S
C1893 C1895 1.387 . S
H1894 C1901 0.950 . S
C1895 C1893 1.387 . S
C1895 C1897 1.390 . S
C1895 H1899 0.950 . S
H1896 C1892 0.950 . S
C1897 C1895 1.390 . S
C1897 C1898 1.387 . S
C1897 H1900 0.950 . S
C1898 C1897 1.387 . S
C1898 C1901 1.387 . S
H1899 C1895 0.950 . S
H1900 C1897 0.950 . S
C1901 C1892 1.390 . S
C1901 H1894 0.950 . S
C1901 C1898 1.387 . S
C1902 C1903 1.387 . S
C1902 H1906 0.950 . S
C1902 C1911 1.390 . S
C1903 C1902 1.387 . S
C1903 C1905 1.387 . S
H1904 C1911 0.950 . S
C1905 C1903 1.387 . S
C1905 C1907 1.390 . S
C1905 H1909 0.950 . S
H1906 C1902 0.950 . S
C1907 C1905 1.390 . S
C1907 C1908 1.387 . S
C1907 H1910 0.950 . S
C1908 C1907 1.387 . S
C1908 C1911 1.387 . S
H1909 C1905 0.950 . S
H1910 C1907 0.950 . S
C1911 C1902 1.390 . S
C1911 H1904 0.950 . S
C1911 C1908 1.387 . S
C1912 C1913 1.387 . S
C1912 H1916 0.950 . S
C1912 C1921 1.390 . S
C1913 C1912 1.387 . S
C1913 C1915 1.387 . S
H1914 C1921 0.950 . S
C1915 C1913 1.387 . S
C1915 C1917 1.390 . S
C1915 H1919 0.950 . S
H1916 C1912 0.950 . S
C1917 C1915 1.390 . S
C1917 C1918 1.387 . S
C1917 H1920 0.950 . S
C1918 C1917 1.387 . S
C1918 C1921 1.387 . S
H1919 C1915 0.950 . S
H1920 C1917 0.950 . S
C1921 C1912 1.390 . S
C1921 H1914 0.950 . S
C1921 C1918 1.387 . S
C1922 C1923 1.387 . S
C1922 H1926 0.950 . S
C1922 C1931 1.390 . S
C1923 C1922 1.387 . S
C1923 C1925 1.387 . S
H1924 C1931 0.950 . S
C1925 C1923 1.387 . S
C1925 C1927 1.390 . S
C1925 H1929 0.950 . S
H1926 C1922 0.950 . S
C1927 C1925 1.390 . S
C1927 C1928 1.387 . S
C1927 H1930 0.950 . S
C1928 C1927 1.387 . S
C1928 C1931 1.387 . S
H1929 C1925 0.950 . S
H1930 C1927 0.950 . S
C1931 C1922 1.390 . S
C1931 H1924 0.950 . S
C1931 C1928 1.387 . S
C1932 C1933 1.387 . S
C1932 H1936 0.950 . S
C1932 C1941 1.390 . S
C1933 C1932 1.387 . S
C1933 C1935 1.387 . S
H1934 C1941 0.950 . S
C1935 C1933 1.387 . S
C1935 C1937 1.390 . S
C1935 H1939 0.950 . S
H1936 C1932 0.950 . S
C1937 C1935 1.390 . S
C1937 C1938 1.387 . S
C1937 H1940 0.950 . S
C1938 C1937 1.387 . S
C1938 C1941 1.387 . S
H1939 C1935 0.950 . S
H1940 C1937 0.950 . S
C1941 C1932 1.390 . S
C1941 H1934 0.950 . S
C1941 C1938 1.387 . S
C1942 C1943 1.387 . S
C1942 H1946 0.950 . S
C1942 C1951 1.390 . S
C1943 C1942 1.387 . S
C1943 C1945 1.387 . S
H1944 C1951 0.950 . S
C1945 C1943 1.387 . S
C1945 C1947 1.390 . S
C1945 H1949 0.950 . S
H1946 C1942 0.950 . S
C1947 C1945 1.390 . S
C1947 C1948 1.387 . S
C1947 H1950 0.950 . S
C1948 C1947 1.387 . S
C1948 C1951 1.387 . S
H1949 C1945 0.950 . S
H1950 C1947 0.950 . S
C1951 C1942 1.390 . S
C1951 H1944 0.950 . S
C1951 C1948 1.387 . S
C1952 C1953 1.387 . S
C1952 H1956 0.950 . S
C1952 C1961 1.390 . S
C1953 C1952 1.387 . S
C1953 C1955 1.387 . S
H1954 C1961 0.950 . S
C1955 C1953 1.387 . S
C1955 C1957 1.390 . S
C1955 H1959 0.950 . S
H1956 C1952 0.950 . S
C1957 C1955 1.390 . S
C1957 C1958 1.387 . S
C1957 H1960 0.950 . S
C1958 C1957 1.387 . S
C1958 C1961 1.387 . S
H1959 C1955 0.950 . S
H1960 C1957 0.950 . S
C1961 C1952 1.390 . S
C1961 H1954 0.950 . S
C1961 C1958 1.387 . S
C1962 C1963 1.387 . S
C1962 H1966 0.950 . S
C1962 C1971 1.390 . S
C1963 C1962 1.387 . S
C1963 C1965 1.387 . S
H1964 C1971 0.950 . S
C1965 C1963 1.387 . S
C1965 C1967 1.390 . S
C1965 H1969 0.950 . S
H1966 C1962 0.950 . S
C1967 C1965 1.390 . S
C1967 C1968 1.387 . S
C1967 H1970 0.950 . S
C1968 C1967 1.387 . S
C1968 C1971 1.387 . S
H1969 C1965 0.950 . S
H1970 C1967 0.950 . S
C1971 C1962 1.390 . S
C1971 H1964 0.950 . S
C1971 C1968 1.387 . S
C1972 C1973 1.387 1_545 S
C1972 H1976 0.950 . S
C1972 C1981 1.390 . S
C1973 C1972 1.387 1_565 S
C1973 C1975 1.387 1_565 S
H1974 C1981 0.950 . S
C1975 C1973 1.387 1_545 S
C1975 C1977 1.390 . S
C1975 H1979 0.950 1_545 S
H1976 C1972 0.950 . S
C1977 C1975 1.390 . S
C1977 C1978 1.387 . S
C1977 H1980 0.950 . S
C1978 C1977 1.387 . S
C1978 C1981 1.387 . S
H1979 C1975 0.950 1_565 S
H1980 C1977 0.950 . S
C1981 C1972 1.390 . S
C1981 H1974 0.950 . S
C1981 C1978 1.387 . S
C1982 C1983 1.387 . S
C1982 H1986 0.950 . S
C1982 C1991 1.390 1_655 S
C1983 C1982 1.387 . S
C1983 C1985 1.387 . S
H1984 C1991 0.950 . S
C1985 C1983 1.387 . S
C1985 C1987 1.390 1_655 S
C1985 H1989 0.950 . S
H1986 C1982 0.950 . S
C1987 C1985 1.390 1_455 S
C1987 C1988 1.387 . S
C1987 H1990 0.950 . S
C1988 C1987 1.387 . S
C1988 C1991 1.387 . S
H1989 C1985 0.950 . S
H1990 C1987 0.950 . S
C1991 C1982 1.390 1_455 S
C1991 H1984 0.950 . S
C1991 C1988 1.387 . S
C1992 C1993 1.387 . S
C1992 H1996 0.950 . S
C1992 C2001 1.390 . S
C1993 C1992 1.387 . S
C1993 C1995 1.387 . S
H1994 C2001 0.950 . S
C1995 C1993 1.387 . S
C1995 C1997 1.390 . S
C1995 H1999 0.950 . S
H1996 C1992 0.950 . S
C1997 C1995 1.390 . S
C1997 C1998 1.387 . S
C1997 H2000 0.950 . S
C1998 C1997 1.387 . S
C1998 C2001 1.387 . S
H1999 C1995 0.950 . S
H2000 C1997 0.950 . S
C2001 C1992 1.390 . S
C2001 H1994 0.950 . S
C2001 C1998 1.387 . S
C2002 C2003 1.387 . S
C2002 H2006 0.950 . S
C2002 C2011 1.390 1_545 S
C2003 C2002 1.387 . S
C2003 C2005 1.387 . S
H2004 C2011 0.950 . S
C2005 C2003 1.387 . S
C2005 C2007 1.390 1_545 S
C2005 H2009 0.950 . S
H2006 C2002 0.950 . S
C2007 C2005 1.390 1_565 S
C2007 C2008 1.387 . S
C2007 H2010 0.950 . S
C2008 C2007 1.387 . S
C2008 C2011 1.387 . S
H2009 C2005 0.950 . S
H2010 C2007 0.950 . S
C2011 C2002 1.390 1_565 S
C2011 H2004 0.950 . S
C2011 C2008 1.387 . S
C2012 C2013 1.387 . S
C2012 H2016 0.950 . S
C2012 C2021 1.390 . S
C2013 C2012 1.387 . S
C2013 C2015 1.387 . S
H2014 C2021 0.950 1_655 S
C2015 C2013 1.387 . S
C2015 C2017 1.390 . S
C2015 H2019 0.950 . S
H2016 C2012 0.950 . S
C2017 C2015 1.390 . S
C2017 C2018 1.387 1_455 S
C2017 H2020 0.950 . S
C2018 C2017 1.387 1_655 S
C2018 C2021 1.387 1_655 S
H2019 C2015 0.950 . S
H2020 C2017 0.950 . S
C2021 C2012 1.390 . S
C2021 H2014 0.950 1_455 S
C2021 C2018 1.387 1_455 S
C2022 C2023 1.387 . S
C2022 H2026 0.950 . S
C2022 C2031 1.390 . S
C2023 C2022 1.387 . S
C2023 C2025 1.387 . S
H2024 C2031 0.950 . S
C2025 C2023 1.387 . S
C2025 C2027 1.390 . S
C2025 H2029 0.950 . S
H2026 C2022 0.950 . S
C2027 C2025 1.390 . S
C2027 C2028 1.387 . S
C2027 H2030 0.950 . S
C2028 C2027 1.387 . S
C2028 C2031 1.387 . S
H2029 C2025 0.950 . S
H2030 C2027 0.950 . S
C2031 C2022 1.390 . S
C2031 H2024 0.950 . S
C2031 C2028 1.387 . S
C2032 C2033 1.387 . S
C2032 H2036 0.950 . S
C2032 C2041 1.390 . S
C2033 C2032 1.387 . S
C2033 C2035 1.387 . S
H2034 C2041 0.950 . S
C2035 C2033 1.387 . S
C2035 C2037 1.390 . S
C2035 H2039 0.950 . S
H2036 C2032 0.950 . S
C2037 C2035 1.390 . S
C2037 C2038 1.387 . S
C2037 H2040 0.950 . S
C2038 C2037 1.387 . S
C2038 C2041 1.387 . S
H2039 C2035 0.950 . S
H2040 C2037 0.950 . S
C2041 C2032 1.390 . S
C2041 H2034 0.950 . S
C2041 C2038 1.387 . S
C2042 C2043 1.387 . S
C2042 H2046 0.950 . S
C2042 C2051 1.390 . S
C2043 C2042 1.387 . S
C2043 C2045 1.387 . S
H2044 C2051 0.950 . S
C2045 C2043 1.387 . S
C2045 C2047 1.390 . S
C2045 H2049 0.950 . S
H2046 C2042 0.950 . S
C2047 C2045 1.390 . S
C2047 C2048 1.387 . S
C2047 H2050 0.950 . S
C2048 C2047 1.387 . S
C2048 C2051 1.387 . S
H2049 C2045 0.950 . S
H2050 C2047 0.950 . S
C2051 C2042 1.390 . S
C2051 H2044 0.950 . S
C2051 C2048 1.387 . S
C1513 C55 1.108 . S
C1518 C226 0.989 . S
C1523 C58 0.987 . S
C1528 C139 1.108 . S
C1533 C142 0.989 . S
C1538 C223 1.109 . S
C1543 C307 1.109 . S
C1548 C394 0.989 . S
C1553 C478 0.985 . S
C1558 C391 1.107 . S
C1563 C475 1.107 . S
C1568 C310 0.987 . S
C1573 C730 0.985 . S
C1578 C559 1.107 . S
C1583 C562 0.988 . S
C1588 C643 1.108 . S
C1593 C727 1.108 . S
C1598 C646 0.985 . S
C1603 C898 0.988 . S
C1608 C811 1.109 . S
C1613 C895 1.107 . S
C1618 C982 0.985 . S
C1623 C814 0.988 . S
C1628 C979 1.109 . S
C1633 C1063 1.109 . S
C1638 C1234 0.991 . S
C1643 C1066 0.986 . S
C1648 C1147 1.107 . S
C1653 C1150 0.986 . S
C1658 C1231 1.107 . S
C1663 C1402 0.990 . S
C1668 C1315 1.109 . S
C1673 C1486 0.989 . S
C1678 C1399 1.109 . S
C1683 C1318 0.989 . S
C1688 C1483 1.109 . S
C1693 C56 1.855 . S
C1698 C476 1.855 . S
C1703 C308 1.857 . S
C1708 C140 1.859 . S
C1713 C392 1.859 . S
C1718 C224 1.858 . S
C1723 C560 1.858 . S
C1728 C980 1.858 . S
C1733 C644 1.858 . S
C1738 C812 1.857 . S
C1743 C896 1.855 . S
C1748 C728 1.856 . S
C1753 C1064 1.855 . S
C1758 C1484 1.855 . S
C1763 C1316 1.858 . S
C1768 C1148 1.858 . S
C1773 C1400 1.858 . S
C1778 C1232 1.858 . S
C1783 C908 2.184 . S
C1788 C68 2.185 . S
C1793 C152 2.183 . S
C1798 C992 2.183 . S
C1803 C824 2.183 . S
C1808 C236 2.183 . S
C1813 C320 2.183 . S
C1818 C1244 2.183 . S
C1823 C404 2.185 . S
C1828 C1076 2.185 . S
C1833 C1160 2.184 . S
C1838 C488 2.183 . S
C1843 C1412 2.184 . S
C1848 C572 2.185 . S
C1853 C656 2.184 . S
C1858 C1496 2.185 . S
C1863 C740 2.185 . S
C1868 C1328 2.185 . S
C1873 C238 1.467 . S
C1878 C67 1.644 . S
C1883 C70 1.466 . S
C1888 C151 1.643 . S
C1893 C235 1.643 . S
C1898 C154 1.464 . S
C1903 C406 1.465 . S
C1908 C319 1.643 . S
C1913 C490 1.466 . S
C1918 C403 1.643 . S
C1923 C487 1.644 . S
C1928 C322 1.465 . S
C1933 C742 1.466 . S
C1938 C571 1.644 . S
C1943 C655 1.643 . S
C1948 C574 1.466 . S
C1953 C658 1.467 . S
C1958 C739 1.644 . S
C1963 C823 1.645 . S
C1968 C910 1.468 . S
C1973 C907 1.644 . S
C1978 C994 1.466 . S
C1983 C826 1.466 . S
C1988 C991 1.644 . S
C1993 C1075 1.644 . S
C1998 C1246 1.467 . S
C2003 C1159 1.644 . S
C2008 C1078 1.466 . S
C2013 C1162 1.467 . S
C2018 C1243 1.644 . S
C2023 C1327 1.644 . S
C2028 C1414 1.467 . S
C2033 C1411 1.643 . S
C2038 C1498 1.466 . S
C2043 C1330 1.466 . S
C2048 C1495 1.643 . S
