# Generated by pormake.
# Topology lcv-a, (4)-cn, num edge types: 1
# Building blocks:
#     Node 0, Type 0, BuildingBlock: QUQFOY_clean_sbu_1, # of connection points: 4
#     Node 1, Type 0, BuildingBlock: QUQFOY_clean_sbu_1, # of connection points: 4
#     Node 2, Type 0, BuildingBlock: QUQFOY_clean_sbu_1, # of connection points: 4
#     Node 3, Type 0, BuildingBlock: QUQFOY_clean_sbu_1, # of connection points: 4
#     Node 4, Type 0, BuildingBlock: QUQFOY_clean_sbu_1, # of connection points: 4
#     Node 5, Type 0, BuildingBlock: QUQFOY_clean_sbu_1, # of connection points: 4
#     Node 6, Type 0, BuildingBlock: QUQFOY_clean_sbu_1, # of connection points: 4
#     Node 7, Type 0, BuildingBlock: QUQFOY_clean_sbu_1, # of connection points: 4
#     Node 8, Type 0, BuildingBlock: QUQFOY_clean_sbu_1, # of connection points: 4
#     Node 9, Type 0, BuildingBlock: QUQFOY_clean_sbu_1, # of connection points: 4
#     Node 10, Type 0, BuildingBlock: QUQFOY_clean_sbu_1, # of connection points: 4
#     Node 11, Type 0, BuildingBlock: QUQFOY_clean_sbu_1, # of connection points: 4
#     Node 12, Type 0, BuildingBlock: QUQFOY_clean_sbu_1, # of connection points: 4
#     Node 13, Type 0, BuildingBlock: QUQFOY_clean_sbu_1, # of connection points: 4
#     Node 14, Type 0, BuildingBlock: QUQFOY_clean_sbu_1, # of connection points: 4
#     Node 15, Type 0, BuildingBlock: QUQFOY_clean_sbu_1, # of connection points: 4
#     Node 16, Type 0, BuildingBlock: QUQFOY_clean_sbu_1, # of connection points: 4
#     Node 17, Type 0, BuildingBlock: QUQFOY_clean_sbu_1, # of connection points: 4
#     Node 18, Type 0, BuildingBlock: QUQFOY_clean_sbu_1, # of connection points: 4
#     Node 19, Type 0, BuildingBlock: QUQFOY_clean_sbu_1, # of connection points: 4
#     Node 20, Type 0, BuildingBlock: QUQFOY_clean_sbu_1, # of connection points: 4
#     Node 21, Type 0, BuildingBlock: QUQFOY_clean_sbu_1, # of connection points: 4
#     Node 22, Type 0, BuildingBlock: QUQFOY_clean_sbu_1, # of connection points: 4
#     Node 23, Type 0, BuildingBlock: QUQFOY_clean_sbu_1, # of connection points: 4
#     Node 24, Type 0, BuildingBlock: QUQFOY_clean_sbu_1, # of connection points: 4
#     Node 25, Type 0, BuildingBlock: QUQFOY_clean_sbu_1, # of connection points: 4
#     Node 26, Type 0, BuildingBlock: QUQFOY_clean_sbu_1, # of connection points: 4
#     Node 27, Type 0, BuildingBlock: QUQFOY_clean_sbu_1, # of connection points: 4
#     Node 28, Type 0, BuildingBlock: QUQFOY_clean_sbu_1, # of connection points: 4
#     Node 29, Type 0, BuildingBlock: QUQFOY_clean_sbu_1, # of connection points: 4
#     Node 30, Type 0, BuildingBlock: QUQFOY_clean_sbu_1, # of connection points: 4
#     Node 31, Type 0, BuildingBlock: QUQFOY_clean_sbu_1, # of connection points: 4
#     Node 32, Type 0, BuildingBlock: QUQFOY_clean_sbu_1, # of connection points: 4
#     Node 33, Type 0, BuildingBlock: QUQFOY_clean_sbu_1, # of connection points: 4
#     Node 34, Type 0, BuildingBlock: QUQFOY_clean_sbu_1, # of connection points: 4
#     Node 35, Type 0, BuildingBlock: QUQFOY_clean_sbu_1, # of connection points: 4
#     Node 36, Type 0, BuildingBlock: QUQFOY_clean_sbu_1, # of connection points: 4
#     Node 37, Type 0, BuildingBlock: QUQFOY_clean_sbu_1, # of connection points: 4
#     Node 38, Type 0, BuildingBlock: QUQFOY_clean_sbu_1, # of connection points: 4
#     Node 39, Type 0, BuildingBlock: QUQFOY_clean_sbu_1, # of connection points: 4
#     Node 40, Type 0, BuildingBlock: QUQFOY_clean_sbu_1, # of connection points: 4
#     Node 41, Type 0, BuildingBlock: QUQFOY_clean_sbu_1, # of connection points: 4
#     Node 42, Type 0, BuildingBlock: QUQFOY_clean_sbu_1, # of connection points: 4
#     Node 43, Type 0, BuildingBlock: QUQFOY_clean_sbu_1, # of connection points: 4
#     Node 44, Type 0, BuildingBlock: QUQFOY_clean_sbu_1, # of connection points: 4
#     Node 45, Type 0, BuildingBlock: QUQFOY_clean_sbu_1, # of connection points: 4
#     Node 46, Type 0, BuildingBlock: QUQFOY_clean_sbu_1, # of connection points: 4
#     Node 47, Type 0, BuildingBlock: QUQFOY_clean_sbu_1, # of connection points: 4
#     Edge 48, Type (0, 0), BuildingBlock: EZIPEK_clean_linker_0, # of connection points: 2
#     Edge 49, Type (0, 0), BuildingBlock: EZIPEK_clean_linker_0, # of connection points: 2
#     Edge 50, Type (0, 0), BuildingBlock: EZIPEK_clean_linker_0, # of connection points: 2
#     Edge 51, Type (0, 0), BuildingBlock: EZIPEK_clean_linker_0, # of connection points: 2
#     Edge 52, Type (0, 0), BuildingBlock: EZIPEK_clean_linker_0, # of connection points: 2
#     Edge 53, Type (0, 0), BuildingBlock: EZIPEK_clean_linker_0, # of connection points: 2
#     Edge 54, Type (0, 0), BuildingBlock: EZIPEK_clean_linker_0, # of connection points: 2
#     Edge 55, Type (0, 0), BuildingBlock: EZIPEK_clean_linker_0, # of connection points: 2
#     Edge 56, Type (0, 0), BuildingBlock: EZIPEK_clean_linker_0, # of connection points: 2
#     Edge 57, Type (0, 0), BuildingBlock: EZIPEK_clean_linker_0, # of connection points: 2
#     Edge 58, Type (0, 0), BuildingBlock: EZIPEK_clean_linker_0, # of connection points: 2
#     Edge 59, Type (0, 0), BuildingBlock: EZIPEK_clean_linker_0, # of connection points: 2
#     Edge 60, Type (0, 0), BuildingBlock: EZIPEK_clean_linker_0, # of connection points: 2
#     Edge 61, Type (0, 0), BuildingBlock: EZIPEK_clean_linker_0, # of connection points: 2
#     Edge 62, Type (0, 0), BuildingBlock: EZIPEK_clean_linker_0, # of connection points: 2
#     Edge 63, Type (0, 0), BuildingBlock: EZIPEK_clean_linker_0, # of connection points: 2
#     Edge 64, Type (0, 0), BuildingBlock: EZIPEK_clean_linker_0, # of connection points: 2
#     Edge 65, Type (0, 0), BuildingBlock: EZIPEK_clean_linker_0, # of connection points: 2
#     Edge 66, Type (0, 0), BuildingBlock: EZIPEK_clean_linker_0, # of connection points: 2
#     Edge 67, Type (0, 0), BuildingBlock: EZIPEK_clean_linker_0, # of connection points: 2
#     Edge 68, Type (0, 0), BuildingBlock: EZIPEK_clean_linker_0, # of connection points: 2
#     Edge 69, Type (0, 0), BuildingBlock: EZIPEK_clean_linker_0, # of connection points: 2
#     Edge 70, Type (0, 0), BuildingBlock: EZIPEK_clean_linker_0, # of connection points: 2
#     Edge 71, Type (0, 0), BuildingBlock: EZIPEK_clean_linker_0, # of connection points: 2
#     Edge 72, Type (0, 0), BuildingBlock: EZIPEK_clean_linker_0, # of connection points: 2
#     Edge 73, Type (0, 0), BuildingBlock: EZIPEK_clean_linker_0, # of connection points: 2
#     Edge 74, Type (0, 0), BuildingBlock: EZIPEK_clean_linker_0, # of connection points: 2
#     Edge 75, Type (0, 0), BuildingBlock: EZIPEK_clean_linker_0, # of connection points: 2
#     Edge 76, Type (0, 0), BuildingBlock: EZIPEK_clean_linker_0, # of connection points: 2
#     Edge 77, Type (0, 0), BuildingBlock: EZIPEK_clean_linker_0, # of connection points: 2
#     Edge 78, Type (0, 0), BuildingBlock: EZIPEK_clean_linker_0, # of connection points: 2
#     Edge 79, Type (0, 0), BuildingBlock: EZIPEK_clean_linker_0, # of connection points: 2
#     Edge 80, Type (0, 0), BuildingBlock: EZIPEK_clean_linker_0, # of connection points: 2
#     Edge 81, Type (0, 0), BuildingBlock: EZIPEK_clean_linker_0, # of connection points: 2
#     Edge 82, Type (0, 0), BuildingBlock: EZIPEK_clean_linker_0, # of connection points: 2
#     Edge 83, Type (0, 0), BuildingBlock: EZIPEK_clean_linker_0, # of connection points: 2
#     Edge 84, Type (0, 0), BuildingBlock: EZIPEK_clean_linker_0, # of connection points: 2
#     Edge 85, Type (0, 0), BuildingBlock: EZIPEK_clean_linker_0, # of connection points: 2
#     Edge 86, Type (0, 0), BuildingBlock: EZIPEK_clean_linker_0, # of connection points: 2
#     Edge 87, Type (0, 0), BuildingBlock: EZIPEK_clean_linker_0, # of connection points: 2
#     Edge 88, Type (0, 0), BuildingBlock: EZIPEK_clean_linker_0, # of connection points: 2
#     Edge 89, Type (0, 0), BuildingBlock: EZIPEK_clean_linker_0, # of connection points: 2
#     Edge 90, Type (0, 0), BuildingBlock: EZIPEK_clean_linker_0, # of connection points: 2
#     Edge 91, Type (0, 0), BuildingBlock: EZIPEK_clean_linker_0, # of connection points: 2
#     Edge 92, Type (0, 0), BuildingBlock: EZIPEK_clean_linker_0, # of connection points: 2
#     Edge 93, Type (0, 0), BuildingBlock: EZIPEK_clean_linker_0, # of connection points: 2
#     Edge 94, Type (0, 0), BuildingBlock: EZIPEK_clean_linker_0, # of connection points: 2
#     Edge 95, Type (0, 0), BuildingBlock: EZIPEK_clean_linker_0, # of connection points: 2
#     Edge 96, Type (0, 0), BuildingBlock: EZIPEK_clean_linker_0, # of connection points: 2
#     Edge 97, Type (0, 0), BuildingBlock: EZIPEK_clean_linker_0, # of connection points: 2
#     Edge 98, Type (0, 0), BuildingBlock: EZIPEK_clean_linker_0, # of connection points: 2
#     Edge 99, Type (0, 0), BuildingBlock: EZIPEK_clean_linker_0, # of connection points: 2
#     Edge 100, Type (0, 0), BuildingBlock: EZIPEK_clean_linker_0, # of connection points: 2
#     Edge 101, Type (0, 0), BuildingBlock: EZIPEK_clean_linker_0, # of connection points: 2
#     Edge 102, Type (0, 0), BuildingBlock: EZIPEK_clean_linker_0, # of connection points: 2
#     Edge 103, Type (0, 0), BuildingBlock: EZIPEK_clean_linker_0, # of connection points: 2
#     Edge 104, Type (0, 0), BuildingBlock: EZIPEK_clean_linker_0, # of connection points: 2
#     Edge 105, Type (0, 0), BuildingBlock: EZIPEK_clean_linker_0, # of connection points: 2
#     Edge 106, Type (0, 0), BuildingBlock: EZIPEK_clean_linker_0, # of connection points: 2
#     Edge 107, Type (0, 0), BuildingBlock: EZIPEK_clean_linker_0, # of connection points: 2
#     Edge 108, Type (0, 0), BuildingBlock: EZIPEK_clean_linker_0, # of connection points: 2
#     Edge 109, Type (0, 0), BuildingBlock: EZIPEK_clean_linker_0, # of connection points: 2
#     Edge 110, Type (0, 0), BuildingBlock: EZIPEK_clean_linker_0, # of connection points: 2
#     Edge 111, Type (0, 0), BuildingBlock: EZIPEK_clean_linker_0, # of connection points: 2
#     Edge 112, Type (0, 0), BuildingBlock: EZIPEK_clean_linker_0, # of connection points: 2
#     Edge 113, Type (0, 0), BuildingBlock: EZIPEK_clean_linker_0, # of connection points: 2
#     Edge 114, Type (0, 0), BuildingBlock: EZIPEK_clean_linker_0, # of connection points: 2
#     Edge 115, Type (0, 0), BuildingBlock: EZIPEK_clean_linker_0, # of connection points: 2
#     Edge 116, Type (0, 0), BuildingBlock: EZIPEK_clean_linker_0, # of connection points: 2
#     Edge 117, Type (0, 0), BuildingBlock: EZIPEK_clean_linker_0, # of connection points: 2
#     Edge 118, Type (0, 0), BuildingBlock: EZIPEK_clean_linker_0, # of connection points: 2
#     Edge 119, Type (0, 0), BuildingBlock: EZIPEK_clean_linker_0, # of connection points: 2
#     Edge 120, Type (0, 0), BuildingBlock: EZIPEK_clean_linker_0, # of connection points: 2
#     Edge 121, Type (0, 0), BuildingBlock: EZIPEK_clean_linker_0, # of connection points: 2
#     Edge 122, Type (0, 0), BuildingBlock: EZIPEK_clean_linker_0, # of connection points: 2
#     Edge 123, Type (0, 0), BuildingBlock: EZIPEK_clean_linker_0, # of connection points: 2
#     Edge 124, Type (0, 0), BuildingBlock: EZIPEK_clean_linker_0, # of connection points: 2
#     Edge 125, Type (0, 0), BuildingBlock: EZIPEK_clean_linker_0, # of connection points: 2
#     Edge 126, Type (0, 0), BuildingBlock: EZIPEK_clean_linker_0, # of connection points: 2
#     Edge 127, Type (0, 0), BuildingBlock: EZIPEK_clean_linker_0, # of connection points: 2
#     Edge 128, Type (0, 0), BuildingBlock: EZIPEK_clean_linker_0, # of connection points: 2
#     Edge 129, Type (0, 0), BuildingBlock: EZIPEK_clean_linker_0, # of connection points: 2
#     Edge 130, Type (0, 0), BuildingBlock: EZIPEK_clean_linker_0, # of connection points: 2
#     Edge 131, Type (0, 0), BuildingBlock: EZIPEK_clean_linker_0, # of connection points: 2
#     Edge 132, Type (0, 0), BuildingBlock: EZIPEK_clean_linker_0, # of connection points: 2
#     Edge 133, Type (0, 0), BuildingBlock: EZIPEK_clean_linker_0, # of connection points: 2
#     Edge 134, Type (0, 0), BuildingBlock: EZIPEK_clean_linker_0, # of connection points: 2
#     Edge 135, Type (0, 0), BuildingBlock: EZIPEK_clean_linker_0, # of connection points: 2
#     Edge 136, Type (0, 0), BuildingBlock: EZIPEK_clean_linker_0, # of connection points: 2
#     Edge 137, Type (0, 0), BuildingBlock: EZIPEK_clean_linker_0, # of connection points: 2
#     Edge 138, Type (0, 0), BuildingBlock: EZIPEK_clean_linker_0, # of connection points: 2
#     Edge 139, Type (0, 0), BuildingBlock: EZIPEK_clean_linker_0, # of connection points: 2
#     Edge 140, Type (0, 0), BuildingBlock: EZIPEK_clean_linker_0, # of connection points: 2
#     Edge 141, Type (0, 0), BuildingBlock: EZIPEK_clean_linker_0, # of connection points: 2
#     Edge 142, Type (0, 0), BuildingBlock: EZIPEK_clean_linker_0, # of connection points: 2
#     Edge 143, Type (0, 0), BuildingBlock: EZIPEK_clean_linker_0, # of connection points: 2
# Relax obj value: 0.772
# Max RMSD: 0.398
# Mean RMSD: 0.364
data_MOF--net-lcv-a--node1-QUQFOY_clean_sbu_1--edge1-EZIPEK_clean_linker_0
_symmetry_space_group_name_H-M    P1
_symmetry_Int_Tables_number       1
_symmetry_cell_setting            triclinic
loop_
_symmetry_equiv_pos_as_xyz
'x, y, z'
_cell_length_a     67.791945
_cell_length_b     68.018963
_cell_length_c     68.064333
_cell_angle_alpha  89.581766
_cell_angle_beta   89.409479
_cell_angle_gamma 89.31201
loop_
_atom_site_label
_atom_site_type_symbol
_atom_site_fract_x
_atom_site_fract_y
_atom_site_fract_z
_atom_type_partial_charge
O0 O 0.9913 0.35031 0.25847 0.0
Cd1 Cd 1.00552 0.36005 0.23418 0.0
Cd2 Cd 1.00458 0.31228 0.2552 0.0
O3 O 0.97666 0.32337 0.26321 0.0
O4 O 0.99673 0.3871 0.22549 0.0
O5 O 0.02382 0.38226 0.24255 0.0
C6 C 0.01091 0.39441 0.23531 0.0
C7 C 0.03587 0.30397 0.26867 0.0
C8 C 0.97589 0.3405 0.25576 0.0
C9 C 1.00916 0.31778 0.21183 0.0
O10 O 1.00468 0.30675 0.22623 0.0
O11 O 1.01035 0.33675 0.21324 0.0
O12 O 0.0214 0.29166 0.26867 0.0
O13 O 0.03165 0.32166 0.26271 0.0
O14 O 0.959 0.76226 0.45129 0.0
Cd15 Cd 0.97458 0.76271 0.47477 0.0
Cd16 Cd 0.99996 0.73688 0.4765 0.0
O17 O 0.9854 0.74366 0.44647 0.0
O18 O 0.95693 0.77424 0.49588 0.0
O19 O 0.96093 0.74211 0.49146 0.0
C20 C 0.9508 0.75647 0.49923 0.0
C21 C 0.015 0.7574 0.50428 0.0
C22 C 0.97031 0.75335 0.43959 0.0
C23 C 0.02216 0.76042 0.45804 0.0
O24 O 0.0233 0.74189 0.45909 0.0
O25 O 1.00591 0.76896 0.46409 0.0
O26 O 0.02369 0.74278 0.49607 0.0
O27 O 0.99723 0.75944 0.49874 0.0
O28 O 0.5975 0.73291 0.68723 0.0
Cd29 Cd 0.581 0.74145 0.71013 0.0
Cd30 Cd 0.60519 0.76977 0.71051 0.0
O31 O 0.62404 0.74652 0.69906 0.0
O32 O 0.57049 0.7155 0.72069 0.0
O33 O 0.59404 0.73191 0.73523 0.0
C34 C 0.58454 0.71571 0.73345 0.0
C35 C 0.59138 0.78481 0.73931 0.0
C36 C 0.61607 0.73426 0.68729 0.0
C37 C 0.57127 0.77797 0.68751 0.0
O38 O 0.58971 0.78052 0.68747 0.0
O39 O 0.56433 0.76711 0.70135 0.0
O40 O 0.60669 0.79219 0.73053 0.0
O41 O 0.58603 0.76787 0.73332 0.0
O42 O 0.60577 0.38085 0.97729 0.0
Cd43 Cd 0.60354 0.35132 0.97924 0.0
Cd44 Cd 0.56219 0.3676 0.9854 0.0
O45 O 0.57784 0.38558 0.96414 0.0
O46 O 0.63122 0.34133 0.97428 0.0
O47 O 0.61814 0.34383 1.00404 0.0
C48 C 0.63373 0.34173 0.99312 0.0
C49 C 0.56024 0.34679 0.01379 0.0
C50 C 0.59653 0.38657 0.96244 0.0
C51 C 0.56057 0.33852 0.95832 0.0
O52 O 0.54877 0.35064 0.96627 0.0
O53 O 0.57919 0.3384 0.96274 0.0
O54 O 0.54779 0.36116 0.0111 0.0
O55 O 0.57537 0.34657 1.00211 0.0
O56 O 0.97826 0.76697 0.35003 0.0
Cd57 Cd 0.99873 0.75579 0.36821 0.0
Cd58 Cd 0.9986 0.80284 0.35356 0.0
O59 O 0.96843 0.79629 0.35286 0.0
O60 O 0.99207 0.72761 0.37458 0.0
O61 O 0.01529 0.73542 0.35305 0.0
C62 C 1.00415 0.72205 0.36083 0.0
C63 C 0.02755 0.79931 0.33441 0.0
C64 C 0.96624 0.77861 0.35831 0.0
C65 C 1.00984 0.79537 0.3941 0.0
O66 O 1.00643 0.80858 0.38131 0.0
O67 O 1.00741 0.77683 0.39043 0.0
O68 O 0.01729 0.81553 0.33426 0.0
O69 O 0.01978 0.78451 0.34359 0.0
O70 O 0.59969 0.74035 0.63603 0.0
Cd71 Cd 0.59659 0.76546 0.62217 0.0
Cd72 Cd 0.57443 0.74783 0.60015 0.0
O73 O 0.60036 0.72881 0.60607 0.0
O74 O 0.62349 0.77928 0.62151 0.0
O75 O 0.612 0.76379 0.59611 0.0
C76 C 0.62666 0.77271 0.60388 0.0
C77 C 0.56449 0.77793 0.58215 0.0
C78 C 0.60564 0.72742 0.62419 0.0
C79 C 0.55375 0.76017 0.63292 0.0
O80 O 0.55472 0.74431 0.62337 0.0
O81 O 0.56687 0.77316 0.62975 0.0
O82 O 0.55893 0.7607 0.57666 0.0
O83 O 0.57764 0.77789 0.59542 0.0
O84 O 0.63412 0.35602 0.88448 0.0
Cd85 Cd 0.60518 0.3498 0.88108 0.0
Cd86 Cd 0.61985 0.31306 0.87214 0.0
O87 O 0.63286 0.3277 0.89745 0.0
O88 O 0.59388 0.37593 0.88911 0.0
O89 O 0.59539 0.36686 0.85832 0.0
C90 C 0.59289 0.38094 0.87084 0.0
C91 C 0.59216 0.30648 0.85113 0.0
C92 C 0.6367 0.34584 0.89962 0.0
C93 C 0.59609 0.30535 0.90198 0.0
O94 O 0.60877 0.29528 0.89256 0.0
O95 O 0.59392 0.32414 0.89842 0.0
O96 O 0.60862 0.2968 0.8495 0.0
O97 O 0.59286 0.32231 0.86135 0.0
O98 O 0.98928 0.34105 0.16987 0.0
Cd99 Cd 0.99805 0.34447 0.14206 0.0
Cd100 Cd 0.01499 0.37707 0.15265 0.0
O101 O 0.98861 0.3733 0.17175 0.0
O102 O 0.9788 0.33252 0.12263 0.0
O103 O 0.97778 0.36389 0.13071 0.0
C104 C 0.96989 0.34947 0.12161 0.0
C105 C 0.02924 0.37769 0.11947 0.0
C106 C 0.98253 0.35638 0.1781 0.0
C107 C 0.04046 0.34504 0.15463 0.0
O108 O 0.03478 0.35858 0.16604 0.0
O109 O 0.02974 0.34176 0.13967 0.0
O110 O 0.03609 0.38847 0.13327 0.0
O111 O 0.0123 0.3705 0.12317 0.0
O112 O 0.2557 0.96431 0.34705 0.0
Cd113 Cd 0.24439 0.9915 0.34934 0.0
Cd114 Cd 0.25479 0.97587 0.30513 0.0
O115 O 0.2432 0.9516 0.32193 0.0
O116 O 0.23285 0.9916 0.37656 0.0
O117 O 0.26045 1.00688 0.36922 0.0
C118 C 0.24861 0.99994 0.38256 0.0
C119 C 0.27744 1.0026 0.30399 0.0
C120 C 0.24257 0.95329 0.34051 0.0
C121 C 0.22118 0.99899 0.30563 0.0
O122 O 0.23074 0.98842 0.29357 0.0
O123 O 0.22625 0.99968 0.32392 0.0
O124 O 0.27815 0.9887 0.29108 0.0
O125 O 0.2662 0.99933 0.31906 0.0
O126 O 0.36212 0.94217 0.59146 0.0
Cd127 Cd 0.33538 0.95516 0.59272 0.0
Cd128 Cd 0.35205 0.97553 0.56716 0.0
O129 O 0.37169 0.97221 0.5925 0.0
O130 O 0.32768 0.95586 0.62208 0.0
O131 O 0.33375 0.98244 0.60503 0.0
C132 C 0.33019 0.9747 0.62194 0.0
C133 C 0.32763 0.9998 0.55834 0.0
C134 C 0.37439 0.95423 0.59762 0.0
C135 C 0.33097 0.94283 0.55166 0.0
O136 O 0.34763 0.95111 0.54942 0.0
O137 O 0.32104 0.94565 0.56747 0.0
O138 O 0.34569 1.00123 0.55223 0.0
O139 O 0.32409 0.98577 0.57052 0.0
O140 O 0.37358 0.12194 0.85055 0.0
Cd141 Cd 0.37736 0.09297 0.84665 0.0
Cd142 Cd 0.37111 0.11507 0.80724 0.0
O143 O 0.38992 0.1319 0.82608 0.0
O144 O 0.3852 0.08564 0.87416 0.0
O145 O 0.35588 0.07902 0.8622 0.0
C146 C 0.367 0.08106 0.87743 0.0
C147 C 0.34835 0.09081 0.79846 0.0
C148 C 0.38928 0.1296 0.84459 0.0
C149 C 0.40041 0.0883 0.80204 0.0
O150 O 0.39302 0.1025 0.79243 0.0
O151 O 0.39503 0.08487 0.82017 0.0
O152 O 0.34774 0.10807 0.79021 0.0
O153 O 0.35783 0.08948 0.81481 0.0
O154 O 0.22321 0.10654 0.09207 0.0
Cd155 Cd 0.25262 0.11079 0.09303 0.0
Cd156 Cd 0.23356 0.10806 0.04919 0.0
O157 O 0.21263 0.12327 0.06777 0.0
O158 O 0.25923 0.11874 0.12055 0.0
O159 O 0.26418 0.08857 0.1101 0.0
C160 C 0.26323 0.10061 0.12472 0.0
C161 C 0.25481 0.07994 0.04757 0.0
C162 C 0.21411 0.12173 0.08634 0.0
C163 C 0.26403 0.13494 0.05023 0.0
O164 O 0.25128 0.12917 0.03822 0.0
O165 O 0.26374 0.1284 0.06818 0.0
O166 O 0.24152 0.08308 0.03437 0.0
O167 O 0.25333 0.09064 0.06304 0.0
O168 O 0.21236 0.08645 0.23102 0.0
Cd169 Cd 0.23686 0.07188 0.23644 0.0
Cd170 Cd 0.24585 0.0991 0.25986 0.0
O171 O 0.22859 0.11364 0.23672 0.0
O172 O 0.24547 0.06064 0.20994 0.0
O173 O 0.25829 0.08746 0.22234 0.0
C174 C 0.25599 0.0763 0.2073 0.0
C175 C 0.27274 0.07965 0.2729 0.0
C176 C 0.21379 0.10483 0.229 0.0
C177 C 0.2235 0.07147 0.27895 0.0
O178 O 0.22359 0.08993 0.27737 0.0
O179 O 0.23316 0.06108 0.26625 0.0
O180 O 0.2687 0.09695 0.27981 0.0
O181 O 0.26509 0.07569 0.25629 0.0
O182 O 0.23722 0.93792 0.48845 0.0
Cd183 Cd 0.2577 0.95708 0.49365 0.0
Cd184 Cd 0.23416 0.97383 0.51684 0.0
O185 O 0.21588 0.96206 0.49342 0.0
O186 O 0.27141 0.96181 0.46711 0.0
O187 O 0.24942 0.98253 0.47926 0.0
C188 C 0.26004 0.97705 0.46441 0.0
C189 C 0.25655 1.00019 0.52389 0.0
C190 C 0.22027 0.94523 0.48586 0.0
C191 C 0.25646 0.94642 0.53785 0.0
O192 O 0.23883 0.95285 0.53779 0.0
O193 O 0.26784 0.95001 0.52307 0.0
O194 O 0.23819 1.00129 0.52931 0.0
O195 O 0.26134 0.98571 0.51295 0.0
O196 O 0.3984 0.01439 0.70144 0.0
Cd197 Cd 0.37467 0.0193 0.71665 0.0
Cd198 Cd 0.36991 0.9923 0.74231 0.0
O199 O 0.39837 0.9914 0.72452 0.0
O200 O 0.35373 0.02981 0.69855 0.0
O201 O 0.35639 0.99834 0.70644 0.0
C202 C 0.34847 0.01183 0.6954 0.0
C203 C 0.34554 0.01603 0.75799 0.0
C204 C 0.40719 1.00057 0.7102 0.0
C205 C 0.39168 0.01746 0.76145 0.0
O206 O 0.39009 0.999 0.76192 0.0
O207 O 0.38473 0.02708 0.74655 0.0
O208 O 0.35272 1.001 0.76701 0.0
O209 O 0.34984 0.01634 0.73968 0.0
O210 O 0.37232 0.12665 0.98902 0.0
Cd211 Cd 0.34691 0.11273 0.98984 0.0
Cd212 Cd 0.36158 0.09728 0.02151 0.0
O213 O 0.38813 0.10468 1.00683 0.0
O214 O 0.33794 0.1152 0.96167 0.0
O215 O 0.34897 0.08724 0.9745 0.0
C216 C 0.3443 0.09735 0.959 0.0
C217 C 0.33509 0.07578 0.02752 0.0
C218 C 0.38819 0.12065 0.99665 0.0
C219 C 0.33912 0.13009 0.03123 0.0
O220 O 0.35501 0.12195 0.0364 0.0
O221 O 0.33102 0.12443 0.01512 0.0
O222 O 0.35113 0.07427 0.03771 0.0
O223 O 0.33589 0.08646 0.01183 0.0
O224 O 0.38873 0.2034 0.03127 0.0
Cd225 Cd 0.37198 0.22607 0.03613 0.0
Cd226 Cd 0.35013 0.23174 1.00546 0.0
O227 O 0.37109 0.20582 1.00416 0.0
O228 O 0.38654 0.24778 0.04965 0.0
O229 O 0.38428 0.24543 0.01727 0.0
C230 C 0.39253 0.25333 0.03232 0.0
C231 C 0.3302 0.25343 0.02798 0.0
C232 C 0.38401 0.19656 0.01484 0.0
C233 C 0.32926 0.20719 0.02766 0.0
O234 O 0.33123 0.20975 0.00937 0.0
O235 O 0.34198 0.21472 0.03926 0.0
O236 O 0.3237 0.24697 0.01166 0.0
O237 O 0.34862 0.2502 0.03038 0.0
O238 O 0.8513 0.37806 0.13025 0.0
Cd239 Cd 0.8588 0.38467 0.1022 0.0
Cd240 Cd 0.81277 0.38086 0.11576 0.0
O241 O 0.82624 0.39285 0.14146 0.0
O242 O 0.88776 0.39052 0.10415 0.0
O243 O 0.8766 0.36355 0.09044 0.0
C244 C 0.89136 0.37321 0.09726 0.0
C245 C 0.80739 0.35022 0.10085 0.0
C246 C 0.84496 0.39225 0.14045 0.0
C247 C 0.81952 0.40812 0.08326 0.0
O248 O 0.80634 0.40153 0.09484 0.0
O249 O 0.83773 0.40254 0.08558 0.0
O250 O 0.79439 0.35813 0.11257 0.0
O251 O 0.82448 0.35854 0.10006 0.0
O252 O 0.96693 0.6093 0.35927 0.0
Cd253 Cd 0.98022 0.60959 0.3336 0.0
Cd254 Cd 0.998 0.57915 0.34715 0.0
O255 O 0.9919 0.59436 0.37363 0.0
O256 O 0.9758 0.63708 0.32355 0.0
O257 O 1.00361 0.62726 0.33758 0.0
C258 C 0.99226 0.64164 0.33187 0.0
C259 C 0.01757 0.57389 0.3187 0.0
C260 C 0.97512 0.60331 0.3748 0.0
C261 C 0.96377 0.5683 0.32833 0.0
O262 O 0.97324 0.56341 0.34342 0.0
O263 O 0.96878 0.58415 0.31908 0.0
O264 O 0.02065 0.56363 0.33455 0.0
O265 O 1.00667 0.58944 0.32049 0.0
O266 O 0.72143 0.69628 0.59798 0.0
Cd267 Cd 0.73114 0.71846 0.5824 0.0
Cd268 Cd 0.75359 0.72786 0.60939 0.0
O269 O 0.7278 0.71446 0.62387 0.0
O270 O 0.70877 0.73196 0.56691 0.0
O271 O 0.71688 0.74154 0.59634 0.0
C272 C 0.70445 0.74258 0.58211 0.0
C273 C 0.7657 0.75631 0.59146 0.0
C274 C 0.71893 0.6998 0.61605 0.0
C275 C 0.77437 0.70273 0.58452 0.0
O276 O 0.77318 0.70598 0.60278 0.0
O277 O 0.76104 0.70997 0.5732 0.0
O278 O 0.77019 0.75342 0.60972 0.0
O279 O 0.75236 0.74517 0.5847 0.0
O280 O 0.15984 0.96776 0.37781 0.0
Cd281 Cd 0.14436 0.9802 0.35589 0.0
Cd282 Cd 0.13777 0.01371 0.3707 0.0
O283 O 0.16635 0.99859 0.37882 0.0
O284 O 0.13648 0.95603 0.34095 0.0
O285 O 0.11591 0.97263 0.3603 0.0
C286 C 0.11994 0.95671 0.35068 0.0
C287 C 0.11074 0.02073 0.34745 0.0
C288 C 0.17238 0.98066 0.38078 0.0
C289 C 0.16226 0.02525 0.34398 0.0
O290 O 0.15445 0.03413 0.35836 0.0
O291 O 0.15956 1.00638 0.34201 0.0
O292 O 0.11193 0.02934 0.36423 0.0
O293 O 0.12304 1.00649 0.345 0.0
O294 O 0.22897 0.89207 0.50278 0.0
Cd295 Cd 0.23727 0.87517 0.52465 0.0
Cd296 Cd 0.25945 0.85693 0.50187 0.0
O297 O 0.23387 0.86582 0.48437 0.0
O298 O 0.21343 0.86996 0.54263 0.0
O299 O 0.22231 0.84985 0.51889 0.0
C300 C 0.20906 0.85513 0.53163 0.0
C301 C 0.27135 0.83449 0.52714 0.0
C302 C 0.22562 0.88278 0.48717 0.0
C303 C 0.28029 0.8876 0.51781 0.0
O304 O 0.27888 0.87959 0.50118 0.0
O305 O 0.2673 0.88377 0.53107 0.0
O306 O 0.2761 0.83205 0.50883 0.0
O307 O 0.25784 0.84738 0.53052 0.0
O308 O 0.98021 0.51007 0.21134 0.0
Cd309 Cd 0.97709 0.50716 0.24057 0.0
Cd310 Cd 0.97767 0.55147 0.22142 0.0
O311 O 0.96138 0.53317 0.20185 0.0
O312 O 0.97134 0.47845 0.24502 0.0
O313 O 1.00051 0.49138 0.25069 0.0
C314 C 0.98981 0.47588 0.24875 0.0
C315 C 1.00735 0.55361 0.23961 0.0
C316 C 0.96398 0.51473 0.20373 0.0
C317 C 0.95352 0.54935 0.25488 0.0
O318 O 0.95792 0.56139 0.24134 0.0
O319 O 0.96012 0.53137 0.25419 0.0
O320 O 1.00273 0.56688 0.22667 0.0
O321 O 0.99709 0.5378 0.23928 0.0
O322 O 0.6222 0.60934 0.71046 0.0
Cd323 Cd 0.62112 0.60437 0.73989 0.0
Cd324 Cd 0.61501 0.56511 0.72694 0.0
O325 O 0.63693 0.58155 0.70995 0.0
O326 O 0.6292 0.63075 0.75008 0.0
O327 O 0.59827 0.62137 0.75007 0.0
C328 C 0.61076 0.63553 0.75128 0.0
C329 C 0.59779 0.55568 0.75676 0.0
C330 C 0.63724 0.59977 0.70532 0.0
C331 C 0.64769 0.56361 0.7486 0.0
O332 O 0.63886 0.55217 0.73724 0.0
O333 O 0.64205 0.5818 0.75029 0.0
O334 O 0.59913 0.5443 0.74162 0.0
O335 O 0.60393 0.57343 0.7539 0.0
O336 O 0.48153 0.85818 0.69628 0.0
Cd337 Cd 0.50572 0.85171 0.70988 0.0
Cd338 Cd 0.49 0.82992 0.73432 0.0
O339 O 0.47111 0.85648 0.72683 0.0
O340 O 0.52406 0.87536 0.71177 0.0
O341 O 0.50565 0.86569 0.7365 0.0
C342 C 0.51776 0.87847 0.72957 0.0
C343 C 0.52077 0.82392 0.75193 0.0
C344 C 0.46941 0.86365 0.70924 0.0
C345 C 0.50148 0.80613 0.70399 0.0
O346 O 0.48739 0.80528 0.71638 0.0
O347 O 0.51012 0.82248 0.70134 0.0
O348 O 0.50382 0.82151 0.76048 0.0
O349 O 0.52036 0.83199 0.73499 0.0
O350 O 0.48641 0.25692 0.96599 0.0
Cd351 Cd 0.4941 0.27651 0.98542 0.0
Cd352 Cd 0.51489 0.24913 1.00134 0.0
O353 O 0.48911 0.23445 0.98947 0.0
O354 O 0.47115 0.29524 0.99131 0.0
O355 O 0.47757 0.26867 0.009 0.0
C356 C 0.46562 0.28299 1.00492 0.0
C357 C 0.52807 0.27243 0.02442 0.0
C358 C 0.48211 0.24013 0.97274 0.0
C359 C 0.53593 0.26967 0.97318 0.0
O360 O 0.53279 0.25184 0.97721 0.0
O361 O 0.52484 0.28284 0.98119 0.0
O362 O 0.53423 0.25435 0.02432 0.0
O363 O 0.51233 0.27597 0.01488 0.0
O364 O 0.08433 0.22214 0.19488 0.0
Cd365 Cd 0.08417 0.2322 0.22246 0.0
Cd366 Cd 0.11667 0.25589 0.21612 0.0
O367 O 0.10906 0.24182 0.18798 0.0
O368 O 0.06961 0.21249 0.23977 0.0
O369 O 0.10214 0.21439 0.23879 0.0
C370 C 0.0866 0.20517 0.2447 0.0
C371 C 0.10835 0.26878 0.24838 0.0
C372 C 0.09562 0.22991 0.18224 0.0
C373 C 0.08259 0.27815 0.21248 0.0
O374 O 0.09968 0.27695 0.20501 0.0
O375 O 0.07549 0.26334 0.22209 0.0
O376 O 0.1204 0.27769 0.23664 0.0
O377 O 0.10413 0.25115 0.24335 0.0
O378 O 0.11415 0.84307 0.47024 0.0
Cd379 Cd 0.10558 0.82442 0.49037 0.0
Cd380 Cd 0.07984 0.84979 0.49858 0.0
O381 O 0.10569 0.86691 0.49052 0.0
O382 O 0.13088 0.81121 0.49992 0.0
O383 O 0.11614 0.83529 0.51582 0.0
C384 C 0.13158 0.82406 0.51391 0.0
C385 C 0.06116 0.82667 0.51885 0.0
C386 C 0.11589 0.86065 0.47567 0.0
C387 C 0.06729 0.82626 0.46923 0.0
O388 O 0.06921 0.84447 0.47155 0.0
O389 O 0.07759 0.81448 0.47999 0.0
O390 O 0.05441 0.84405 0.51456 0.0
O391 O 0.07963 0.82407 0.51502 0.0
O392 O 0.49663 0.22785 0.90204 0.0
Cd393 Cd 0.51477 0.23186 0.87927 0.0
Cd394 Cd 0.49152 0.26136 0.87217 0.0
O395 O 0.47139 0.24177 0.88707 0.0
O396 O 0.52442 0.20427 0.87247 0.0
O397 O 0.50169 0.22021 0.85527 0.0
C398 C 0.51073 0.20383 0.85929 0.0
C399 C 0.51359 0.274 0.84735 0.0
C400 C 0.47825 0.23109 0.90122 0.0
C401 C 0.52233 0.27189 0.89545 0.0
O402 O 0.50378 0.27265 0.89598 0.0
O403 O 0.53101 0.25829 0.88537 0.0
O404 O 0.49847 0.28422 0.8534 0.0
O405 O 0.51352 0.2557 0.8524 0.0
O406 O 0.09418 0.2503 0.09521 0.0
Cd407 Cd 0.10493 0.2651 0.11811 0.0
Cd408 Cd 0.05813 0.27207 0.09952 0.0
O409 O 0.06423 0.24232 0.09311 0.0
O410 O 0.13053 0.25268 0.12709 0.0
O411 O 0.12982 0.27995 0.10946 0.0
C412 C 0.13999 0.26548 0.1168 0.0
C413 C 0.05757 0.30566 0.09191 0.0
C414 C 0.08121 0.23779 0.09963 0.0
C415 C 0.06289 0.2715 0.14217 0.0
O416 O 0.05121 0.2713 0.12787 0.0
O417 O 0.08183 0.27046 0.13964 0.0
O418 O 0.04208 0.29492 0.08937 0.0
O419 O 0.07419 0.29644 0.09484 0.0
O420 O 0.1068 0.85458 0.40831 0.0
Cd421 Cd 0.09082 0.84973 0.38432 0.0
Cd422 Cd 0.11943 0.82358 0.37846 0.0
O423 O 0.13471 0.84679 0.39317 0.0
O424 O 0.07413 0.87422 0.37959 0.0
O425 O 0.10133 0.86789 0.36279 0.0
C426 C 0.08744 0.88026 0.36726 0.0
C427 C 0.10531 0.81513 0.34774 0.0
C428 C 0.1254 0.85585 0.40705 0.0
C429 C 0.08551 0.80757 0.39582 0.0
O430 O 0.10387 0.80754 0.39903 0.0
O431 O 0.07841 0.82089 0.38436 0.0
O432 O 0.12055 0.80557 0.3542 0.0
O433 O 0.1012 0.83134 0.35634 0.0
O434 O 0.4797 0.86278 0.65223 0.0
Cd435 Cd 0.48515 0.84493 0.62988 0.0
Cd436 Cd 0.5153 0.8676 0.62514 0.0
O437 O 0.49376 0.88806 0.63778 0.0
O438 O 0.45747 0.83449 0.62488 0.0
O439 O 0.47252 0.85435 0.60427 0.0
C440 C 0.45635 0.84587 0.60959 0.0
C441 C 0.52699 0.85113 0.59572 0.0
C442 C 0.48197 0.88112 0.65099 0.0
C443 C 0.52605 0.83445 0.64617 0.0
O444 O 0.52894 0.85272 0.64743 0.0
O445 O 0.51164 0.82836 0.63592 0.0
O446 O 0.53588 0.86636 0.60256 0.0
O447 O 0.51004 0.84766 0.60353 0.0
O448 O 0.77037 0.50214 0.83069 0.0
Cd449 Cd 0.74852 0.52007 0.83953 0.0
Cd450 Cd 0.76801 0.51927 0.79384 0.0
O451 O 0.77128 0.48967 0.80246 0.0
O452 O 0.74132 0.51369 0.86738 0.0
O453 O 0.75865 0.5399 0.85897 0.0
C454 C 0.75229 0.5281 0.8726 0.0
C455 C 0.78175 0.55065 0.79304 0.0
C456 C 0.7648 0.48828 0.81994 0.0
C457 C 0.72498 0.52504 0.79871 0.0
O458 O 0.7397 0.52333 0.78726 0.0
O459 O 0.72649 0.524 0.81759 0.0
O460 O 0.78355 0.53892 0.77815 0.0
O461 O 0.77489 0.54303 0.80924 0.0
O462 O 0.87743 0.47501 0.11708 0.0
Cd463 Cd 0.84945 0.47037 0.10895 0.0
Cd464 Cd 0.87837 0.47732 0.07444 0.0
O465 O 0.89551 0.4613 0.09618 0.0
O466 O 0.83783 0.46402 0.13543 0.0
O467 O 0.83461 0.49309 0.12136 0.0
C468 C 0.83373 0.48255 0.13728 0.0
C469 C 0.85585 0.50353 0.06507 0.0
C470 C 0.8885 0.4606 0.11353 0.0
C471 C 0.85292 0.44757 0.06474 0.0
O472 O 0.86888 0.45486 0.05841 0.0
O473 O 0.84469 0.45355 0.08109 0.0
O474 O 0.87388 0.503 0.05854 0.0
O475 O 0.85212 0.49174 0.07954 0.0
O476 O 0.89251 0.57178 0.38468 0.0
Cd477 Cd 0.86856 0.56824 0.37044 0.0
Cd478 Cd 0.86299 0.5972 0.34602 0.0
O479 O 0.89049 0.59759 0.3647 0.0
O480 O 0.84694 0.5604 0.38969 0.0
O481 O 0.85291 0.59136 0.38129 0.0
C482 C 0.84439 0.57905 0.39309 0.0
C483 C 0.84008 0.57311 0.3302 0.0
C484 C 0.89997 0.58725 0.37776 0.0
C485 C 0.88622 0.57308 0.32583 0.0
O486 O 0.88399 0.59151 0.32635 0.0
O487 O 0.87912 0.56254 0.34005 0.0
O488 O 0.84703 0.58814 0.32117 0.0
O489 O 0.8435 0.57315 0.3486 0.0
O490 O 0.71631 0.65664 0.59282 0.0
Cd491 Cd 0.74316 0.64439 0.59257 0.0
Cd492 Cd 0.72755 0.62375 0.56796 0.0
O493 O 0.70709 0.62627 0.59276 0.0
O494 O 0.75391 0.64583 0.62033 0.0
O495 O 0.74442 0.61821 0.6075 0.0
C496 C 0.75111 0.62717 0.62258 0.0
C497 C 0.75284 0.60001 0.56036 0.0
C498 C 0.70409 0.64398 0.5984 0.0
C499 C 0.74743 0.6571 0.55134 0.0
O500 O 0.7312 0.64811 0.54936 0.0
O501 O 0.75731 0.65443 0.567 0.0
O502 O 0.73514 0.59833 0.55368 0.0
O503 O 0.7555 0.61405 0.5725 0.0
O504 O 0.71443 0.64275 0.73104 0.0
Cd505 Cd 0.71753 0.61333 0.73194 0.0
Cd506 Cd 0.71861 0.63826 0.77203 0.0
O507 O 0.69705 0.65349 0.75452 0.0
O508 O 0.7132 0.6045 0.70431 0.0
O509 O 0.74281 0.60699 0.71776 0.0
C510 C 0.73218 0.60537 0.70214 0.0
C511 C 0.75048 0.62571 0.77438 0.0
C512 C 0.6977 0.6488 0.73652 0.0
C513 C 0.70366 0.59996 0.77756 0.0
O514 O 0.70488 0.61623 0.78633 0.0
O515 O 0.70777 0.59901 0.75899 0.0
O516 O 0.74522 0.64062 0.78509 0.0
O517 O 0.73991 0.62207 0.75923 0.0
O518 O 0.76013 0.47101 0.97378 0.0
Cd519 Cd 0.77925 0.49168 0.97918 0.0
Cd520 Cd 0.75713 0.50191 1.00799 0.0
O521 O 0.73635 0.4861 0.99006 0.0
O522 O 0.79018 0.49792 0.95256 0.0
O523 O 0.7687 0.51723 0.96852 0.0
C524 C 0.77746 0.51237 0.95219 0.0
C525 C 0.78263 0.52016 0.02407 0.0
C526 C 0.7422 0.47197 0.97879 0.0
C527 C 0.78299 0.47212 0.01753 0.0
O528 O 0.76491 0.47609 0.01898 0.0
O529 O 0.79374 0.48073 1.00448 0.0
O530 O 0.76592 0.51632 0.03271 0.0
O531 O 0.78323 0.51667 1.00538 0.0
O532 O 0.89062 0.46804 0.23045 0.0
Cd533 Cd 0.87998 0.49402 0.24066 0.0
Cd534 Cd 0.8762 0.47705 0.27585 0.0
O535 O 0.90247 0.46755 0.25926 0.0
O536 O 0.87684 0.5076 0.21442 0.0
O537 O 0.85159 0.49649 0.23193 0.0
C538 C 0.85854 0.50234 0.2151 0.0
C539 C 0.85223 0.50021 0.28795 0.0
C540 C 0.90552 0.46554 0.24082 0.0
C541 C 0.90255 0.50454 0.28308 0.0
O542 O 0.896 0.48986 0.29249 0.0
O543 O 0.89746 0.50752 0.26482 0.0
O544 O 0.85395 0.48279 0.29564 0.0
O545 O 0.86082 0.50278 0.27113 0.0
O546 O 0.83921 0.66394 0.4818 0.0
Cd547 Cd 0.82127 0.64354 0.49089 0.0
Cd548 Cd 0.84537 0.62872 0.51394 0.0
O549 O 0.86284 0.64288 0.49027 0.0
O550 O 0.80595 0.63092 0.46837 0.0
O551 O 0.83464 0.61949 0.47824 0.0
C552 C 0.82085 0.61916 0.46537 0.0
C553 C 0.82349 0.60168 0.52227 0.0
C554 C 0.85712 0.65852 0.48092 0.0
C555 C 0.82314 0.6551 0.53534 0.0
O556 O 0.84081 0.64889 0.53527 0.0
O557 O 0.81204 0.65135 0.52069 0.0
O558 O 0.84198 0.6011 0.52695 0.0
O559 O 0.81827 0.61587 0.51106 0.0
O560 O 0.84361 0.70656 0.48764 0.0
Cd561 Cd 0.84075 0.71872 0.51381 0.0
Cd562 Cd 0.81897 0.74174 0.49623 0.0
O563 O 0.84456 0.73693 0.47713 0.0
O564 O 0.86759 0.71596 0.52732 0.0
O565 O 0.85714 0.74374 0.51466 0.0
C566 C 0.87144 0.73403 0.52277 0.0
C567 C 0.80907 0.76271 0.52288 0.0
C568 C 0.84971 0.71883 0.47511 0.0
C569 C 0.79766 0.7097 0.51131 0.0
O570 O 0.79839 0.71951 0.49537 0.0
O571 O 0.81192 0.71089 0.52335 0.0
O572 O 0.80514 0.76732 0.50485 0.0
O573 O 0.82103 0.74813 0.5254 0.0
O574 O 0.34971 0.90962 0.60922 0.0
Cd575 Cd 0.3467 0.88918 0.58886 0.0
Cd576 Cd 0.3252 0.87383 0.61291 0.0
O577 O 0.3508 0.88443 0.6291 0.0
O578 O 0.37327 0.88591 0.5744 0.0
O579 O 0.36331 0.86455 0.59627 0.0
C580 C 0.37727 0.87028 0.5846 0.0
C581 C 0.31513 0.84597 0.59385 0.0
C582 C 0.35564 0.90226 0.62511 0.0
C583 C 0.30366 0.90015 0.58901 0.0
O584 O 0.30466 0.89576 0.60714 0.0
O585 O 0.3178 0.8948 0.57754 0.0
O586 O 0.31095 0.84727 0.61241 0.0
O587 O 0.32737 0.85865 0.58706 0.0
O588 O 0.46789 0.09429 0.87749 0.0
Cd589 Cd 0.46936 0.0939 0.84776 0.0
Cd590 Cd 0.47319 0.05159 0.86839 0.0
O591 O 0.45262 0.06861 0.88611 0.0
O592 O 0.46315 0.12168 0.83895 0.0
O593 O 0.49358 0.11011 0.84129 0.0
C594 C 0.48184 0.12518 0.83972 0.0
C595 C 0.50379 0.0502 0.85083 0.0
C596 C 0.45226 0.08727 0.88449 0.0
C597 C 0.45185 0.04932 0.83387 0.0
O598 O 0.45596 0.03874 0.84862 0.0
O599 O 0.45653 0.06786 0.83358 0.0
O600 O 0.49961 0.0373 0.86427 0.0
O601 O 0.49245 0.06555 0.85041 0.0
O602 O 0.23312 0.19737 0.13095 0.0
Cd603 Cd 0.24409 0.21102 0.10692 0.0
Cd604 Cd 0.2794 0.21479 0.12317 0.0
O605 O 0.26335 0.18789 0.1314 0.0
O606 O 0.21863 0.21728 0.09287 0.0
O607 O 0.23533 0.23954 0.10922 0.0
C608 C 0.219 0.23439 0.10111 0.0
C609 C 0.28855 0.2408 0.10002 0.0
C610 C 0.2451 0.18352 0.13343 0.0
C611 C 0.28757 0.18929 0.09487 0.0
O612 O 0.29677 0.19581 0.10944 0.0
O613 O 0.26906 0.19422 0.09231 0.0
O614 O 0.29853 0.23708 0.11572 0.0
O615 O 0.27231 0.23134 0.09871 0.0
O616 O 0.67145 0.46666 0.83005 0.0
Cd617 Cd 0.64492 0.47813 0.82669 0.0
Cd618 Cd 0.63984 0.5049 0.85053 0.0
O619 O 0.67159 0.49445 0.84627 0.0
O620 O 0.62649 0.45568 0.82028 0.0
O621 O 0.62808 0.46893 0.84977 0.0
C622 C 0.62178 0.45488 0.83881 0.0
C623 C 0.61072 0.51725 0.83098 0.0
C624 C 0.68111 0.4799 0.83829 0.0
C625 C 0.65448 0.52561 0.82231 0.0
O626 O 0.65451 0.52768 0.84071 0.0
O627 O 0.65011 0.50862 0.81511 0.0
O628 O 0.61799 0.52644 0.8456 0.0
O629 O 0.61788 0.49988 0.82883 0.0
O630 O 0.73935 0.39998 0.01469 0.0
Cd631 Cd 0.74132 0.37676 0.03204 0.0
Cd632 Cd 0.76688 0.36216 0.00904 0.0
O633 O 0.74814 0.38078 0.9902 0.0
O634 O 0.7128 0.37049 0.04017 0.0
O635 O 0.72838 0.35483 0.01624 0.0
C636 C 0.71198 0.35869 0.02528 0.0
C637 C 0.77463 0.33548 0.03079 0.0
C638 C 0.74021 0.39699 0.99644 0.0
C639 C 0.78539 0.38445 0.03708 0.0
O640 O 0.78611 0.38137 0.01883 0.0
O641 O 0.76959 0.3801 0.04688 0.0
O642 O 0.78336 0.33705 0.0138 0.0
O643 O 0.75928 0.34639 0.03338 0.0
O644 O 0.47679 0.98556 0.73152 0.0
Cd645 Cd 0.48862 0.98663 0.75752 0.0
Cd646 Cd 0.50449 0.01796 0.74343 0.0
O647 O 0.50021 1.00238 0.71685 0.0
O648 O 0.48661 0.95838 0.76576 0.0
O649 O 0.51475 0.9723 0.75647 0.0
C650 C 0.50479 0.95643 0.75982 0.0
C651 C 0.52097 0.0261 0.77266 0.0
C652 C 0.48454 0.99197 0.7159 0.0
C653 C 0.46883 0.02685 0.76139 0.0
O654 O 0.47819 0.03167 0.7461 0.0
O655 O 0.47467 0.0116 0.77122 0.0
O656 O 0.52402 0.03614 0.75662 0.0
O657 O 0.51248 0.00937 0.77083 0.0
O658 O 0.14721 0.10234 0.25052 0.0
Cd659 Cd 0.12781 0.09724 0.27162 0.0
Cd660 Cd 0.11688 0.07042 0.24832 0.0
O661 O 0.12647 0.09297 0.22788 0.0
O662 O 0.12381 0.1246 0.2826 0.0
O663 O 0.10178 0.11001 0.26411 0.0
C664 C 0.10818 0.12605 0.27177 0.0
C665 C 0.09551 0.05592 0.27279 0.0
C666 C 0.14191 0.10256 0.23282 0.0
C667 C 0.1459 0.05737 0.27316 0.0
O668 O 0.14295 0.05783 0.25493 0.0
O669 O 0.13646 0.06956 0.28426 0.0
O670 O 0.09863 0.0476 0.25595 0.0
O671 O 0.10108 0.07388 0.27387 0.0
C672 C 0.07343 0.30933 0.26717 0.0
C673 C 0.05714 0.29706 0.27209 0.0
C674 C 0.08049 0.26889 0.27352 0.0
C675 C 0.09444 0.27975 0.26236 0.0
N676 N 0.10772 0.31183 0.25619 0.0
N677 N 0.04749 0.26666 0.28766 0.0
C678 C 0.09204 0.30055 0.26158 0.0
C679 C 0.06144 0.27726 0.27779 0.0
N680 N 0.07146 0.32921 0.26924 0.0
N681 N 0.08607 0.25099 0.28087 0.0
H682 H 0.0353 0.27335 0.29442 0.0
H683 H 0.04826 0.2515 0.28972 0.0
H684 H 0.10056 0.24581 0.27932 0.0
H685 H 0.07734 0.24235 0.29005 0.0
H686 H 0.08255 0.33924 0.26621 0.0
H687 H 0.05936 0.33557 0.27643 0.0
H688 H 0.10673 0.32673 0.25275 0.0
H689 H 0.12207 0.30616 0.2557 0.0
C690 C 0.05683 0.78978 0.52515 0.0
C691 C 0.04797 0.8088 0.52291 0.0
C692 C 0.01593 0.79183 0.51966 0.0
C693 C 0.0258 0.77369 0.51532 0.0
N694 N 0.05591 0.75471 0.51898 0.0
N695 N 0.0173 0.8273 0.52255 0.0
C696 C 0.04635 0.77246 0.5196 0.0
C697 C 0.02697 0.80964 0.52155 0.0
N698 N 0.07476 0.78817 0.53403 0.0
N699 N 0.99615 0.79181 0.52369 0.0
H700 H 0.02368 0.83982 0.52831 0.0
H701 H 1.00275 0.82929 0.51809 0.0
H702 H 0.9883 0.77883 0.5255 0.0
H703 H 0.98821 0.8042 0.52822 0.0
H704 H 0.08154 0.77479 0.53749 0.0
H705 H 0.08153 0.80018 0.54046 0.0
H706 H 0.07122 0.75329 0.51856 0.0
H707 H 0.04848 0.7414 0.51924 0.0
C708 C 0.57605 0.81714 0.75146 0.0
C709 C 0.57726 0.79636 0.75235 0.0
C710 C 0.54254 0.79537 0.76367 0.0
C711 C 0.54028 0.8157 0.7589 0.0
N712 N 0.55687 0.84672 0.75379 0.0
N713 N 0.5651 0.76777 0.76914 0.0
C714 C 0.55762 0.82676 0.75487 0.0
C715 C 0.56156 0.78617 0.76174 0.0
N716 N 0.59244 0.82798 0.74756 0.0
N717 N 0.52649 0.78445 0.76871 0.0
H718 H 0.57919 0.7614 0.76875 0.0
H719 H 0.5549 0.75994 0.77754 0.0
H720 H 0.51275 0.79059 0.77202 0.0
H721 H 0.52671 0.76914 0.76922 0.0
H722 H 0.5919 0.84326 0.746 0.0
H723 H 0.6066 0.82187 0.74758 0.0
H724 H 0.54414 0.85499 0.75674 0.0
H725 H 0.54414 0.85499 0.75674 0.0
C726 C 0.55982 0.29258 0.02494 0.0
C727 C 0.53981 0.28994 0.03097 0.0
C728 C 0.53643 0.32602 0.03506 0.0
C729 C 0.55525 0.32857 0.02601 0.0
N730 N 0.58782 0.31444 0.02475 0.0
N731 N 0.51208 0.30332 0.04869 0.0
C732 C 0.56792 0.31186 0.0249 0.0
C733 C 0.52915 0.30651 0.03838 0.0
N734 N 0.57093 0.27716 0.01816 0.0
N735 N 0.52568 0.34216 0.04061 0.0
H736 H 0.50722 0.28912 0.05183 0.0
H737 H 0.50373 0.31431 0.05547 0.0
H738 H 0.53197 0.35603 0.04156 0.0
H739 H 0.51089 0.34179 0.04482 0.0
H740 H 0.58439 0.27907 0.01087 0.0
H741 H 0.56663 0.26259 0.01921 0.0
H742 H 0.59798 0.30283 0.02523 0.0
H743 H 0.5938 0.32825 0.02719 0.0
C744 C 0.05786 0.81599 0.31966 0.0
C745 C 0.04915 0.79907 0.32824 0.0
C746 C 0.08196 0.78755 0.33881 0.0
C747 C 0.08962 0.80662 0.33483 0.0
N748 N 0.08682 0.83684 0.3166 0.0
N749 N 0.05503 0.7647 0.33452 0.0
C750 C 0.07821 0.81998 0.32328 0.0
C751 C 0.06187 0.7835 0.33428 0.0
N752 N 0.0468 0.82767 0.30753 0.0
N753 N 0.09342 0.7736 0.34778 0.0
H754 H 0.04124 0.76123 0.32892 0.0
H755 H 0.0638 0.75241 0.33755 0.0
H756 H 0.10869 0.7746 0.34862 0.0
H757 H 0.08775 0.76092 0.35426 0.0
H758 H 0.05199 0.84009 0.30025 0.0
H759 H 0.03268 0.82364 0.30323 0.0
H760 H 0.07932 0.84832 0.30967 0.0
H761 H 0.10191 0.83923 0.31817 0.0
C762 C 0.53422 0.80012 0.57431 0.0
C763 C 0.55503 0.79755 0.5763 0.0
C764 C 0.55791 0.83356 0.58119 0.0
C765 C 0.53702 0.83529 0.58308 0.0
N766 N 0.50648 0.82296 0.57093 0.0
N767 N 0.58658 0.81293 0.57316 0.0
C768 C 0.52555 0.81937 0.57629 0.0
C769 C 0.56682 0.81473 0.57704 0.0
N770 N 0.52251 0.78427 0.57134 0.0
N771 N 0.56926 0.8498 0.58342 0.0
H772 H 0.59304 0.79956 0.56903 0.0
H773 H 0.59621 0.8247 0.57218 0.0
H774 H 0.56344 0.86401 0.58243 0.0
H775 H 0.58443 0.84928 0.58557 0.0
H776 H 0.50723 0.78473 0.57313 0.0
H777 H 0.52796 0.77053 0.56731 0.0
H778 H 0.49757 0.81257 0.56438 0.0
H779 H 0.50045 0.83716 0.5708 0.0
C780 C 0.55618 0.31124 0.8403 0.0
C781 C 0.57236 0.29829 0.84469 0.0
C782 C 0.54987 0.27077 0.83868 0.0
C783 C 0.533 0.2832 0.84038 0.0
N784 N 0.52064 0.3166 0.83914 0.0
N785 N 0.58194 0.26432 0.85197 0.0
C786 C 0.53631 0.30389 0.84005 0.0
C787 C 0.56862 0.27764 0.84467 0.0
N788 N 0.55985 0.3304 0.83551 0.0
N789 N 0.54809 0.25227 0.83134 0.0
H790 H 0.59486 0.26806 0.85901 0.0
H791 H 0.5787 0.24943 0.85347 0.0
H792 H 0.53492 0.24743 0.82532 0.0
H793 H 0.56025 0.24306 0.8288 0.0
H794 H 0.54902 0.34026 0.83073 0.0
H795 H 0.57411 0.33583 0.8341 0.0
H796 H 0.52171 0.33156 0.84207 0.0
H797 H 0.5066 0.31212 0.83517 0.0
C798 C 0.03333 0.35673 0.08913 0.0
C799 C 0.04227 0.36639 0.1051 0.0
C800 C 0.06561 0.33874 0.10857 0.0
C801 C 0.0554 0.32788 0.09387 0.0
N802 N 0.03475 0.33017 0.06533 0.0
N803 N 0.07307 0.37113 0.12129 0.0
C804 C 0.04095 0.33812 0.08253 0.0
C805 C 0.06065 0.359 0.11164 0.0
N806 N 0.01713 0.36523 0.08075 0.0
N807 N 0.07865 0.32971 0.12099 0.0
H808 H 0.07002 0.38612 0.12272 0.0
H809 H 0.0873 0.36689 0.12533 0.0
H810 H 0.08205 0.31481 0.12097 0.0
H811 H 0.08474 0.33684 0.13294 0.0
H812 H 1.00823 0.35819 0.07068 0.0
H813 H 0.0125 0.37943 0.0845 0.0
H814 H 0.02526 0.33738 0.05566 0.0
H815 H 0.04083 0.31716 0.05975 0.0
C816 C 0.27524 0.0581 0.30411 0.0
C817 C 0.2817 0.06271 0.28457 0.0
C818 C 0.294 0.02833 0.2813 0.0
C819 C 0.28492 0.02332 0.29959 0.0
N820 N 0.27837 0.03585 0.33197 0.0
N821 N 0.30318 0.054 0.2577 0.0
C822 C 0.27921 0.039 0.31216 0.0
C823 C 0.29309 0.04831 0.27422 0.0
N824 N 0.26429 0.07124 0.31481 0.0
N825 N 0.30367 0.01408 0.27085 0.0
H826 H 0.30325 0.06861 0.25288 0.0
H827 H 0.31269 0.04489 0.24973 0.0
H828 H 0.30761 1.0006 0.27716 0.0
H829 H 0.30828 0.0157 0.25631 0.0
H830 H 0.25676 0.06729 0.32765 0.0
H831 H 0.26198 0.08581 0.31074 0.0
H832 H 0.27565 0.04703 0.34206 0.0
H833 H 0.28326 0.02267 0.33829 0.0
C834 C 0.29311 0.01379 0.56179 0.0
C835 C 0.31045 0.01137 0.55005 0.0
C836 C 0.29042 0.01432 0.52036 0.0
C837 C 0.27306 0.01218 0.53205 0.0
N838 N 0.25752 0.01955 0.56305 0.0
N839 N 0.32584 0.01973 0.51911 0.0
C840 C 0.27426 0.0153 0.55256 0.0
C841 C 0.30923 0.01514 0.52957 0.0
N842 N 0.29481 0.01406 0.58176 0.0
N843 N 0.28878 0.01466 0.50038 0.0
H844 H 0.33927 0.0223 0.52587 0.0
H845 H 0.32587 0.02347 0.50426 0.0
H846 H 0.27505 0.01562 0.49358 0.0
H847 H 0.30071 0.01356 0.49069 0.0
H848 H 0.28292 0.01341 0.59151 0.0
H849 H 0.30854 0.01475 0.58852 0.0
H850 H 0.25727 0.02265 0.57799 0.0
H851 H 0.24404 0.02214 0.55622 0.0
C852 C 0.33829 0.0527 0.75773 0.0
C853 C 0.3387 0.03477 0.7685 0.0
C854 C 0.33668 0.05503 0.79871 0.0
C855 C 0.34225 0.07219 0.78783 0.0
N856 N 0.35287 0.08457 0.75571 0.0
N857 N 0.33485 0.01932 0.8003 0.0
C858 C 0.34405 0.07041 0.76696 0.0
C859 C 0.33685 0.03606 0.78936 0.0
N860 N 0.33229 0.05302 0.73867 0.0
N861 N 0.33048 0.05692 0.81776 0.0
H862 H 0.33142 1.00585 0.79406 0.0
H863 H 0.33654 0.01889 0.81549 0.0
H864 H 0.32889 0.07056 0.82454 0.0
H865 H 0.32481 0.04536 0.82609 0.0
H866 H 0.33084 0.06605 0.73061 0.0
H867 H 0.326 0.0408 0.73212 0.0
H868 H 0.35563 0.08268 0.74073 0.0
H869 H 0.35998 0.09671 0.76133 0.0
C870 C 0.28807 0.06788 0.05876 0.0
C871 C 0.27401 0.06883 0.04356 0.0
C872 C 0.30129 0.06266 0.02001 0.0
C873 C 0.31521 0.06835 0.03442 0.0
N874 N 0.32076 0.07638 0.06879 0.0
N875 N 0.26697 0.06079 0.00999 0.0
C876 C 0.30845 0.07046 0.05428 0.0
C877 C 0.28052 0.06405 0.02423 0.0
N878 N 0.28185 0.0643 0.07754 0.0
N879 N 0.3081 0.05558 1.00244 0.0
H880 H 0.2522 0.05812 0.01332 0.0
H881 H 0.2704 0.06023 0.99506 0.0
H882 H 0.32314 0.0536 0.99951 0.0
H883 H 0.29908 0.04993 0.99162 0.0
H884 H 0.29153 0.06188 0.08914 0.0
H885 H 0.26709 0.06128 0.08078 0.0
H886 H 0.31557 0.08065 0.0826 0.0
H887 H 0.33584 0.07827 0.06708 0.0
C888 C 0.31643 0.25972 0.082 0.0
C889 C 0.2969 0.25215 0.08234 0.0
C890 C 0.29638 0.25455 0.04601 0.0
C891 C 0.317 0.25852 0.0456 0.0
N892 N 0.34284 0.27479 0.06279 0.0
N893 N 0.266 0.25403 0.06526 0.0
C894 C 0.32589 0.26415 0.06354 0.0
C895 C 0.28613 0.25304 0.06448 0.0
N896 N 0.32587 0.26314 0.09922 0.0
N897 N 0.28637 0.25246 0.02889 0.0
H898 H 0.25829 0.25583 0.07848 0.0
H899 H 0.25717 0.25598 0.05296 0.0
H900 H 0.29169 0.25771 0.01547 0.0
H901 H 0.27256 0.24598 0.02819 0.0
H902 H 0.34101 0.26532 0.10014 0.0
H903 H 0.31834 0.26437 0.11258 0.0
H904 H 0.34961 0.28062 0.07507 0.0
H905 H 0.34881 0.27986 0.04952 0.0
C906 C 0.80513 0.32624 0.05065 0.0
C907 C 0.78427 0.32684 0.04894 0.0
C908 C 0.78155 0.32884 0.085 0.0
C909 C 0.80134 0.33533 0.08555 0.0
N910 N 0.83378 0.3304 0.07171 0.0
N911 N 0.7532 0.32077 0.06494 0.0
C912 C 0.81383 0.33076 0.06922 0.0
C913 C 0.77272 0.32518 0.06642 0.0
N914 N 0.81634 0.32136 0.03462 0.0
N915 N 0.77163 0.32565 0.10226 0.0
H916 H 0.74716 0.31646 0.05161 0.0
H917 H 0.74315 0.32137 0.07657 0.0
H918 H 0.77869 0.32649 0.11578 0.0
H919 H 0.75736 0.32027 0.10324 0.0
H920 H 0.83166 0.32143 0.03416 0.0
H921 H 0.81002 0.31577 0.02195 0.0
H922 H 0.84408 0.32851 0.06044 0.0
H923 H 0.84002 0.3308 0.08564 0.0
C924 C 0.02207 0.5427 0.27172 0.0
C925 C 0.01976 0.55785 0.25756 0.0
C926 C 0.0276 0.58157 0.28359 0.0
C927 C 0.02329 0.5671 0.29825 0.0
N928 N 0.01597 0.53267 0.30514 0.0
N929 N 0.02658 0.59155 0.24915 0.0
C930 C 0.0209 0.54721 0.29211 0.0
C931 C 0.02466 0.57728 0.26319 0.0
N932 N 0.02561 0.52394 0.26559 0.0
N933 N 0.03489 0.59926 0.28928 0.0
H934 H 0.02819 0.58822 0.2343 0.0
H935 H 0.0271 0.6065 0.25223 0.0
H936 H 0.038 0.60226 0.30394 0.0
H937 H 0.03963 0.61012 0.27955 0.0
H938 H 0.02895 0.51241 0.27522 0.0
H939 H 0.02768 0.52071 0.25072 0.0
H940 H 0.01158 0.51879 0.30062 0.0
H941 H 0.01481 0.53445 0.32023 0.0
C942 C 0.80873 0.77172 0.55879 0.0
C943 C 0.79848 0.77125 0.54065 0.0
C944 C 0.76731 0.77444 0.5594 0.0
C945 C 0.77716 0.76876 0.57685 0.0
N946 N 0.80783 0.76754 0.59436 0.0
N947 N 0.76736 0.77593 0.52388 0.0
C948 C 0.7981 0.76963 0.57703 0.0
C949 C 0.77762 0.7743 0.54098 0.0
N950 N 0.82868 0.77432 0.55837 0.0
N951 N 0.74793 0.77999 0.56066 0.0
H952 H 0.77394 0.77872 0.51032 0.0
H953 H 0.75211 0.77455 0.52316 0.0
H954 H 0.74055 0.78064 0.57418 0.0
H955 H 0.73995 0.78586 0.54897 0.0
H956 H 0.83723 0.77608 0.57083 0.0
H957 H 0.8364 0.77656 0.54521 0.0
H958 H 0.82295 0.76495 0.59538 0.0
H959 H 0.80067 0.76876 0.60791 0.0
C960 C 0.09414 0.02415 0.29411 0.0
C961 C 0.09072 0.04477 0.29183 0.0
C962 C 0.09199 0.04818 0.32809 0.0
C963 C 0.0986 0.02825 0.33001 0.0
N964 N 0.09563 0.99597 0.3163 0.0
N965 N 0.07656 0.07325 0.30741 0.0
C966 C 0.09652 0.01583 0.3134 0.0
C967 C 0.08659 0.0558 0.30913 0.0
N968 N 0.09514 0.01234 0.27802 0.0
N969 N 0.09091 0.06006 0.34413 0.0
H970 H 0.07113 0.07826 0.29395 0.0
H971 H 0.07155 0.08145 0.31936 0.0
H972 H 0.09058 0.05471 0.35846 0.0
H973 H 0.08984 0.07533 0.34312 0.0
H974 H 0.10121 0.9982 0.27833 0.0
H975 H 0.08937 0.01647 0.26448 0.0
H976 H 0.09268 0.98598 0.30523 0.0
H977 H 0.09527 0.98976 0.33036 0.0
C978 C 0.28361 0.83037 0.58058 0.0
C979 C 0.30443 0.83298 0.57948 0.0
C980 C 0.30369 0.82448 0.54415 0.0
C981 C 0.28278 0.82638 0.54454 0.0
N982 N 0.25356 0.82116 0.56376 0.0
N983 N 0.33441 0.82419 0.56259 0.0
C984 C 0.27303 0.82603 0.56308 0.0
C985 C 0.31449 0.82723 0.56194 0.0
N986 N 0.27375 0.83292 0.59796 0.0
N987 N 0.31323 0.82089 0.52678 0.0
H988 H 0.34212 0.8252 0.57572 0.0
H989 H 0.34294 0.81898 0.55091 0.0
H990 H 0.30589 0.81594 0.51444 0.0
H991 H 0.32836 0.8223 0.52467 0.0
H992 H 0.25851 0.83474 0.59903 0.0
H993 H 0.28073 0.8329 0.61148 0.0
H994 H 0.24551 0.8191 0.5767 0.0
H995 H 0.24613 0.81709 0.55111 0.0
C996 C 0.58829 0.52716 0.77975 0.0
C997 C 0.59319 0.54735 0.77735 0.0
C998 C 0.59794 0.54856 0.8135 0.0
C999 C 0.59948 0.52765 0.81435 0.0
N1000 N 0.59009 0.4972 0.79934 0.0
N1001 N 0.59615 0.57849 0.79383 0.0
C1002 C 0.59275 0.517 0.79777 0.0
C1003 C 0.59602 0.55846 0.79483 0.0
N1004 N 0.57788 0.51813 0.76537 0.0
N1005 N 0.59668 0.55888 0.83061 0.0
H1006 H 0.59019 0.58633 0.78206 0.0
H1007 H 0.60169 0.58732 0.80487 0.0
H1008 H 0.59492 0.55195 0.84421 0.0
H1009 H 0.59452 0.57402 0.83134 0.0
H1010 H 0.5726 0.50386 0.76651 0.0
H1011 H 0.57212 0.5259 0.75343 0.0
H1012 H 0.58852 0.48803 0.78729 0.0
H1013 H 0.58919 0.48999 0.81289 0.0
C1014 C 0.7749 0.58494 0.80557 0.0
C1015 C 0.78256 0.57287 0.79041 0.0
C1016 C 0.77775 0.60085 0.76742 0.0
C1017 C 0.76489 0.61012 0.78131 0.0
N1018 N 0.74993 0.60881 0.81405 0.0
N1019 N 0.79735 0.57196 0.75816 0.0
C1020 C 0.76344 0.60189 0.80067 0.0
C1021 C 0.786 0.58173 0.77168 0.0
N1022 N 0.77874 0.58032 0.8247 0.0
N1023 N 0.78213 0.61052 0.75028 0.0
H1024 H 0.80615 0.5599 0.76206 0.0
H1025 H 0.79853 0.57599 0.74343 0.0
H1026 H 0.77679 0.62468 0.74729 0.0
H1027 H 0.79205 0.60537 0.73971 0.0
H1028 H 0.7746 0.58942 0.83634 0.0
H1029 H 0.78844 0.56892 0.82851 0.0
H1030 H 0.74702 0.60156 0.8273 0.0
H1031 H 0.74022 0.62045 0.8115 0.0
C1032 C 0.80291 0.52287 0.05639 0.0
C1033 C 0.80184 0.52363 0.03543 0.0
C1034 C 0.83771 0.51645 0.03377 0.0
C1035 C 0.8388 0.51438 0.05473 0.0
N1036 N 0.82357 0.52327 0.08552 0.0
N1037 N 0.82082 0.53239 1.00667 0.0
C1038 C 0.82167 0.51992 0.06587 0.0
C1039 C 0.82008 0.52406 0.02495 0.0
N1040 N 0.78618 0.52536 0.06742 0.0
N1041 N 0.85264 0.50995 0.02177 0.0
H1042 H 0.80876 0.5399 1.00068 0.0
H1043 H 0.83401 0.53442 0.99892 0.0
H1044 H 0.86579 0.50378 0.02657 0.0
H1045 H 0.8511 0.50908 1.00657 0.0
H1046 H 0.78524 0.52155 0.08224 0.0
H1047 H 0.77335 0.53167 0.06178 0.0
H1048 H 0.81225 0.52878 0.09442 0.0
H1049 H 0.83723 0.52271 0.09245 0.0
C1050 C 0.83362 0.55301 0.29879 0.0
C1051 C 0.83545 0.554 0.3196 0.0
C1052 C 0.84559 0.51922 0.32011 0.0
C1053 C 0.84388 0.51778 0.29925 0.0
N1054 N 0.82959 0.53226 0.27012 0.0
N1055 N 0.8318 0.53451 0.34916 0.0
C1056 C 0.83585 0.53441 0.28898 0.0
C1057 C 0.83756 0.53593 0.32995 0.0
N1058 N 0.8294 0.5697 0.28836 0.0
N1059 N 0.85627 0.50581 0.33075 0.0
H1060 H 0.82386 0.54574 0.35614 0.0
H1061 H 0.83222 0.52124 0.35694 0.0
H1062 H 0.8648 0.49462 0.32461 0.0
H1063 H 0.85889 0.5076 0.34571 0.0
H1064 H 0.83073 0.57064 0.27312 0.0
H1065 H 0.82462 0.58265 0.29511 0.0
H1066 H 0.82229 0.54332 0.2623 0.0
H1067 H 0.8296 0.51869 0.2631 0.0
C1068 C 0.7895 0.58687 0.52135 0.0
C1069 C 0.80733 0.58976 0.53185 0.0
C1070 C 0.78842 0.58824 0.56282 0.0
C1071 C 0.77057 0.58918 0.55202 0.0
N1072 N 0.75502 0.57764 0.52274 0.0
N1073 N 0.82412 0.58344 0.56227 0.0
C1074 C 0.77135 0.58457 0.53181 0.0
C1075 C 0.80695 0.58705 0.55255 0.0
N1076 N 0.78979 0.58717 0.50133 0.0
N1077 N 0.78753 0.58891 0.58284 0.0
H1078 H 0.83742 0.58097 0.55484 0.0
H1079 H 0.82485 0.58052 0.57727 0.0
H1080 H 0.77417 0.58778 0.59051 0.0
H1081 H 0.79976 0.59085 0.59171 0.0
H1082 H 0.77712 0.58802 0.49282 0.0
H1083 H 0.80293 0.58725 0.49334 0.0
H1084 H 0.75504 0.57291 0.50822 0.0
H1085 H 0.74229 0.57392 0.53056 0.0
C1086 C 0.52419 0.02642 0.82882 0.0
C1087 C 0.5171 0.04571 0.83315 0.0
C1088 C 0.51839 0.05409 0.79797 0.0
C1089 C 0.52374 0.0343 0.79312 0.0
N1090 N 0.53851 1.00402 0.80456 0.0
N1091 N 0.51985 0.07935 0.82281 0.0
C1092 C 0.5288 0.0212 0.80882 0.0
C1093 C 0.51838 0.06002 0.818 0.0
N1094 N 0.52673 0.01314 0.84371 0.0
N1095 N 0.51165 0.06705 0.78408 0.0
H1096 H 0.52149 0.08366 0.8374 0.0
H1097 H 0.52217 0.09041 0.81238 0.0
H1098 H 0.51005 0.06378 0.76932 0.0
H1099 H 0.50569 0.08077 0.78772 0.0
H1100 H 0.52879 0.99812 0.84151 0.0
H1101 H 0.52722 0.01738 0.85838 0.0
H1102 H 0.54397 0.99435 0.81517 0.0
H1103 H 0.54289 1.00042 0.79028 0.0
C1104 C 0.96277 0.36406 0.22998 0.0
C1105 C 0.96565 0.34429 0.23642 0.0
C1106 C 0.96431 0.33397 0.20223 0.0
C1107 C 0.96951 0.35339 0.19621 0.0
N1108 N 0.96143 0.38724 0.20221 0.0
N1109 N 0.9585 0.31059 0.22838 0.0
C1110 C 0.9645 0.36869 0.20937 0.0
C1111 C 0.96286 0.32925 0.22252 0.0
N1112 N 0.95937 0.37823 0.24374 0.0
N1113 N 0.95993 0.31988 0.18896 0.0
H1114 H 0.95476 0.30709 0.24286 0.0
H1115 H 0.95713 0.29909 0.21842 0.0
H1116 H 0.95875 0.32262 0.17391 0.0
H1117 H 0.95875 0.32262 0.17391 0.0
H1118 H 0.95809 0.39317 0.24062 0.0
H1119 H 0.95763 0.37463 0.2586 0.0
H1120 H 0.95779 0.39931 0.21087 0.0
H1121 H 0.96108 0.39012 0.18714 0.0
C1122 C 0.9636 0.78715 0.39511 0.0
C1123 C 0.96121 0.77365 0.37957 0.0
C1124 C 0.96231 0.74631 0.40387 0.0
C1125 C 0.96848 0.75956 0.41849 0.0
N1126 N 0.97404 0.79336 0.42803 0.0
N1127 N 0.94838 0.74217 0.37131 0.0
C1128 C 0.96869 0.78013 0.41408 0.0
C1129 C 0.95755 0.75368 0.38466 0.0
N1130 N 0.96057 0.80681 0.3927 0.0
N1131 N 0.96132 0.72671 0.40823 0.0
H1132 H 0.9441 0.74766 0.35761 0.0
H1133 H 0.94334 0.72808 0.3744 0.0
H1134 H 0.96441 0.72108 0.42218 0.0
H1135 H 0.95869 0.71593 0.39783 0.0
H1136 H 0.95457 0.81327 0.38014 0.0
H1137 H 0.95457 0.81327 0.38014 0.0
H1138 H 0.97356 0.80851 0.42561 0.0
H1139 H 0.97989 0.78928 0.44158 0.0
C1140 C 0.63952 0.73158 0.65823 0.0
C1141 C 0.62675 0.72236 0.67194 0.0
C1142 C 0.61537 0.70089 0.64554 0.0
C1143 C 0.62195 0.71499 0.63192 0.0
N1144 N 0.64978 0.7352 0.6245 0.0
N1145 N 0.60906 0.69229 0.67914 0.0
C1146 C 0.638 0.72654 0.63806 0.0
C1147 C 0.61752 0.70466 0.66587 0.0
N1148 N 0.6522 0.7457 0.66402 0.0
N1149 N 0.60475 0.68542 0.63914 0.0
H1150 H 0.60984 0.69448 0.69427 0.0
H1151 H 0.60984 0.69448 0.69427 0.0
H1152 H 0.60248 0.6833 0.62414 0.0
H1153 H 0.59876 0.675 0.64877 0.0
H1154 H 0.66121 0.75322 0.65402 0.0
H1155 H 0.65406 0.7491 0.6788 0.0
H1156 H 0.64829 0.73233 0.60955 0.0
H1157 H 0.64829 0.73233 0.60955 0.0
C1158 C 0.59909 0.36383 0.93391 0.0
C1159 C 0.60616 0.38065 0.94317 0.0
C1160 C 0.6369 0.37497 0.92374 0.0
C1161 C 0.63041 0.35579 0.91861 0.0
N1162 N 0.61005 0.3307 0.93347 0.0
N1163 N 0.63382 0.40282 0.94535 0.0
C1164 C 0.61278 0.34957 0.92769 0.0
C1165 C 0.62575 0.38636 0.93783 0.0
N1166 N 0.57978 0.36209 0.92932 0.0
N1167 N 0.65396 0.38206 0.91591 0.0
H1168 H 0.6263 0.412 0.9552 0.0
H1169 H 0.6263 0.412 0.9552 0.0
H1170 H 0.66275 0.37374 0.90632 0.0
H1171 H 0.65908 0.39605 0.91923 0.0
H1172 H 0.57494 0.35015 0.92119 0.0
H1173 H 0.56953 0.37337 0.9319 0.0
H1174 H 0.62094 0.31983 0.9319 0.0
H1175 H 0.62094 0.31983 0.9319 0.0
C1176 C 0.20372 0.95852 0.38231 0.0
C1177 C 0.19292 0.97469 0.37413 0.0
C1178 C 0.2077 0.96659 0.3426 0.0
C1179 C 0.22261 0.95473 0.35094 0.0
N1180 N 0.23436 0.9392 0.38065 0.0
N1181 N 0.19761 0.99924 0.34923 0.0
C1182 C 0.22045 0.95047 0.3715 0.0
C1183 C 0.19793 0.98015 0.35482 0.0
N1184 N 0.1984 0.95124 0.40025 0.0
N1185 N 0.20279 0.96532 0.32338 0.0
H1186 H 0.19542 0.01063 0.35925 0.0
H1187 H 0.19542 0.01063 0.35925 0.0
H1188 H 0.2088 0.95456 0.31417 0.0
H1189 H 0.19128 0.97391 0.31768 0.0
H1190 H 0.20464 0.93846 0.40615 0.0
H1191 H 0.18707 0.95768 0.40859 0.0
H1192 H 0.23458 0.93716 0.39583 0.0
H1193 H 0.24603 0.93264 0.3729 0.0
C1194 C 0.3669 0.9317 0.64197 0.0
C1195 C 0.37214 0.91315 0.63406 0.0
C1196 C 0.39593 0.92945 0.61243 0.0
C1197 C 0.38548 0.9473 0.61524 0.0
N1198 N 0.37286 0.96707 0.64138 0.0
N1199 N 0.39921 0.8949 0.61973 0.0
C1200 C 0.37508 0.94902 0.63324 0.0
C1201 C 0.38978 0.91232 0.62277 0.0
N1202 N 0.35274 0.93262 0.65624 0.0
N1203 N 0.41009 0.92843 0.59823 0.0
H1204 H 0.39467 0.88189 0.62657 0.0
H1205 H 0.39467 0.88189 0.62657 0.0
H1206 H 0.41419 0.9409 0.59018 0.0
H1207 H 0.41735 0.9153 0.59489 0.0
H1208 H 0.34697 0.94579 0.66164 0.0
H1209 H 0.34672 0.91978 0.66217 0.0
H1210 H 0.36669 0.96925 0.65529 0.0
H1211 H 0.37896 0.97942 0.63454 0.0
C1212 C 0.41928 0.10747 0.84687 0.0
C1213 C 0.40788 0.12277 0.85516 0.0
C1214 C 0.42622 0.11546 0.8859 0.0
C1215 C 0.43348 0.09745 0.87778 0.0
N1216 N 0.42364 0.07333 0.85464 0.0
N1217 N 0.40012 0.14062 0.88482 0.0
C1218 C 0.42633 0.09242 0.85931 0.0
C1219 C 0.41114 0.12657 0.87553 0.0
N1220 N 0.42551 0.10826 0.82789 0.0
N1221 N 0.43346 0.12183 0.90329 0.0
H1222 H 0.38986 0.14934 0.87731 0.0
H1223 H 0.40068 0.14286 0.89993 0.0
H1224 H 0.44373 0.11353 0.91125 0.0
H1225 H 0.42992 0.13557 0.9091 0.0
H1226 H 0.43493 0.09743 0.82216 0.0
H1227 H 0.42279 0.12045 0.81889 0.0
H1228 H 0.41754 0.06928 0.84136 0.0
H1229 H 0.42578 0.06196 0.86479 0.0
C1230 C 0.23418 0.15145 0.09308 0.0
C1231 C 0.2178 0.14 0.09822 0.0
C1232 C 0.2189 0.15656 0.13058 0.0
C1233 C 0.23794 0.16411 0.12583 0.0
N1234 N 0.26631 0.15578 0.10634 0.0
N1235 N 0.19461 0.13122 0.12379 0.0
C1236 C 0.24649 0.15784 0.10813 0.0
C1237 C 0.21009 0.14238 0.11769 0.0
N1238 N 0.23718 0.15786 0.07441 0.0
N1239 N 0.20949 0.16267 0.14726 0.0
H1240 H 0.18761 0.12156 0.11434 0.0
H1241 H 0.18949 0.131 0.13828 0.0
H1242 H 0.21625 0.172 0.1572 0.0
H1243 H 0.19497 0.15899 0.15069 0.0
H1244 H 0.24868 0.16743 0.07102 0.0
H1245 H 0.22722 0.15515 0.0632 0.0
H1246 H 0.27278 0.1502 0.09364 0.0
H1247 H 0.27563 0.15738 0.11832 0.0
C1248 C 0.16609 0.10172 0.2052 0.0
C1249 C 0.15565 0.11299 0.21916 0.0
C1250 C 0.18626 0.12996 0.22752 0.0
C1251 C 0.19698 0.11458 0.21844 0.0
N1252 N 0.19713 0.09126 0.19168 0.0
N1253 N 0.15483 0.14361 0.23691 0.0
C1254 C 0.18694 0.10288 0.20447 0.0
C1255 C 0.16534 0.1295 0.22727 0.0
N1256 N 0.15635 0.08879 0.19374 0.0
N1257 N 0.19579 0.14429 0.23739 0.0
H1258 H 0.13943 0.14367 0.23764 0.0
H1259 H 0.13943 0.14367 0.23764 0.0
H1260 H 0.21113 0.14532 0.23714 0.0
H1261 H 0.18821 0.15545 0.24488 0.0
H1262 H 0.16368 0.07961 0.18376 0.0
H1263 H 0.14097 0.08803 0.19396 0.0
H1264 H 0.21251 0.0912 0.19064 0.0
H1265 H 0.21251 0.0912 0.19064 0.0
C1266 C 0.21668 0.92425 0.45747 0.0
C1267 C 0.20696 0.93313 0.47377 0.0
C1268 C 0.19483 0.90084 0.48304 0.0
C1269 C 0.21165 0.89263 0.47352 0.0
N1270 N 0.23328 0.89438 0.44574 0.0
N1271 N 0.18047 0.9308 0.49701 0.0
C1272 C 0.22024 0.90353 0.45808 0.0
C1273 C 0.19315 0.92172 0.48426 0.0
N1274 N 0.22481 0.93606 0.44345 0.0
N1275 N 0.18237 0.88862 0.49285 0.0
H1276 H 0.17974 0.94613 0.49778 0.0
H1277 H 0.17113 0.9233 0.50662 0.0
H1278 H 0.18504 0.87346 0.49305 0.0
H1279 H 0.16924 0.89333 0.49945 0.0
H1280 H 0.23249 0.93085 0.43121 0.0
H1281 H 0.22269 0.95127 0.44393 0.0
H1282 H 0.24143 0.90159 0.4349 0.0
H1283 H 0.23572 0.87921 0.44672 0.0
C1284 C 0.44123 0.01477 0.70498 0.0
C1285 C 0.42873 0.9979 0.70562 0.0
C1286 C 0.45778 0.97734 0.69745 0.0
C1287 C 0.46999 0.99395 0.69989 0.0
N1288 N 0.47263 0.02876 0.69617 0.0
N1289 N 0.42454 0.96401 0.69653 0.0
C1290 C 0.46119 0.01268 0.69925 0.0
C1291 C 0.4368 0.97939 0.69982 0.0
N1292 N 0.43513 0.03289 0.7111 0.0
N1293 N 0.46673 0.95942 0.69524 0.0
H1294 H 0.40926 0.96522 0.69816 0.0
H1295 H 0.42932 0.95054 0.69098 0.0
H1296 H 0.48206 0.95822 0.69371 0.0
H1297 H 0.45933 0.9461 0.69551 0.0
H1298 H 0.42141 0.03597 0.71749 0.0
H1299 H 0.42141 0.03597 0.71749 0.0
H1300 H 0.46691 0.04308 0.69653 0.0
H1301 H 0.4875 0.02733 0.69217 0.0
C1302 C 0.40111 0.14303 0.02048 0.0
C1303 C 0.40181 0.13702 1.00084 0.0
C1304 C 0.39937 0.17188 0.99083 0.0
C1305 C 0.39168 0.17641 0.00983 0.0
N1306 N 0.38308 0.16416 0.04253 0.0
N1307 N 0.40677 0.14594 0.96717 0.0
C1308 C 0.39239 0.16154 0.02482 0.0
C1309 C 0.40341 0.15175 0.98604 0.0
N1310 N 0.4068 0.13025 0.03489 0.0
N1311 N 0.40287 0.18663 0.97759 0.0
H1312 H 0.40977 0.13119 0.96393 0.0
H1313 H 0.40591 0.15532 0.95505 0.0
H1314 H 0.40037 0.2014 0.98091 0.0
H1315 H 0.40975 0.18436 0.96404 0.0
H1316 H 0.40738 0.13419 0.04965 0.0
H1317 H 0.41292 0.11651 0.03146 0.0
H1318 H 0.38235 0.15314 0.05321 0.0
H1319 H 0.37396 0.17618 0.04566 0.0
C1320 C 0.87324 0.41688 0.14798 0.0
C1321 C 0.85579 0.41146 0.13777 0.0
C1322 C 0.86677 0.43151 0.11092 0.0
C1323 C 0.88129 0.44102 0.12156 0.0
N1324 N 0.89734 0.44302 0.15294 0.0
N1325 N 0.83225 0.42788 0.11759 0.0
C1326 C 0.88424 0.43391 0.14116 0.0
C1327 C 0.85121 0.42273 0.12128 0.0
N1328 N 0.87905 0.40624 0.16394 0.0
N1329 N 0.87081 0.42508 0.0926 0.0
H1330 H 0.8206 0.42381 0.12679 0.0
H1331 H 0.82874 0.43829 0.10695 0.0
H1332 H 0.88416 0.42785 0.08534 0.0
H1333 H 0.88416 0.42785 0.08534 0.0
H1334 H 0.89231 0.40872 0.17109 0.0
H1335 H 0.87081 0.39442 0.16925 0.0
H1336 H 0.89896 0.43936 0.16773 0.0
H1337 H 0.90573 0.45483 0.14787 0.0
C1338 C 0.94642 0.61449 0.39362 0.0
C1339 C 0.96071 0.59937 0.39076 0.0
C1340 C 0.93516 0.57608 0.38385 0.0
C1341 C 0.92067 0.5916 0.38355 0.0
N1342 N 0.9117 0.62418 0.39465 0.0
N1343 N 0.96752 0.56493 0.3936 0.0
C1344 C 0.92599 0.61043 0.39065 0.0
C1345 C 0.95431 0.57987 0.39061 0.0
N1346 N 0.95293 0.63309 0.39667 0.0
N1347 N 0.93192 0.55792 0.37633 0.0
H1348 H 0.98189 0.56771 0.39815 0.0
H1349 H 0.96364 0.55017 0.39258 0.0
H1350 H 0.91924 0.55392 0.3689 0.0
H1351 H 0.91924 0.55392 0.3689 0.0
H1352 H 0.94387 0.64555 0.39659 0.0
H1353 H 0.96794 0.63576 0.3986 0.0
H1354 H 0.91454 0.63764 0.40114 0.0
H1355 H 0.89672 0.62145 0.39285 0.0
C1356 C 0.6793 0.66578 0.61152 0.0
C1357 C 0.69194 0.64978 0.61575 0.0
C1358 C 0.71095 0.6709 0.63708 0.0
C1359 C 0.70403 0.68721 0.62606 0.0
N1360 N 0.67728 0.70139 0.60783 0.0
N1361 N 0.70952 0.63599 0.64313 0.0
C1362 C 0.68601 0.68511 0.61577 0.0
C1363 C 0.70354 0.65198 0.63272 0.0
N1364 N 0.66241 0.66238 0.60159 0.0
N1365 N 0.72547 0.67319 0.65046 0.0
H1366 H 0.70489 0.62184 0.63969 0.0
H1367 H 0.70489 0.62184 0.63969 0.0
H1368 H 0.73111 0.68705 0.65349 0.0
H1369 H 0.73124 0.66135 0.65846 0.0
H1370 H 0.65198 0.67326 0.59836 0.0
H1371 H 0.65864 0.64806 0.59776 0.0
H1372 H 0.68271 0.71539 0.61067 0.0
H1373 H 0.66537 0.70094 0.59833 0.0
C1374 C 0.93608 0.50673 0.22689 0.0
C1375 C 0.9467 0.50196 0.20967 0.0
C1376 C 0.931 0.4692 0.21249 0.0
C1377 C 0.92423 0.47377 0.23188 0.0
N1378 N 0.93471 0.49265 0.2592 0.0
N1379 N 0.95542 0.47629 0.18676 0.0
C1380 C 0.93081 0.49141 0.23977 0.0
C1381 C 0.94464 0.48232 0.20264 0.0
N1382 N 0.92933 0.52525 0.23024 0.0
N1383 N 0.9247 0.45253 0.2037 0.0
H1384 H 0.96465 0.48584 0.179 0.0
H1385 H 0.95578 0.46175 0.18203 0.0
H1386 H 0.91567 0.44251 0.21109 0.0
H1387 H 0.9279 0.44921 0.18908 0.0
H1388 H 0.92051 0.52839 0.24251 0.0
H1389 H 0.93105 0.5366 0.22001 0.0
H1390 H 0.94039 0.5053 0.26528 0.0
H1391 H 0.934 0.4804 0.26852 0.0
C1392 C 0.67346 0.64284 0.70823 0.0
C1393 C 0.68033 0.63847 0.72759 0.0
C1394 C 0.66817 0.60556 0.72335 0.0
C1395 C 0.65641 0.61076 0.70733 0.0
N1396 N 0.64839 0.63598 0.68363 0.0
N1397 N 0.67243 0.61816 0.75563 0.0
C1398 C 0.65927 0.62999 0.69932 0.0
C1399 C 0.67439 0.62049 0.73592 0.0
N1400 N 0.68008 0.65914 0.6986 0.0
N1401 N 0.67482 0.58684 0.72575 0.0
H1402 H 0.67415 0.62971 0.7654 0.0
H1403 H 0.66702 0.60516 0.76168 0.0
H1404 H 0.67225 0.57603 0.71529 0.0
H1405 H 0.68426 0.58303 0.73713 0.0
H1406 H 0.67681 0.66217 0.68394 0.0
H1407 H 0.68961 0.66901 0.70518 0.0
H1408 H 0.64846 0.65037 0.67827 0.0
H1409 H 0.63876 0.62648 0.67665 0.0
C1410 C 0.4508 0.88563 0.66939 0.0
C1411 C 0.47019 0.89275 0.66568 0.0
C1412 C 0.47257 0.89785 0.70112 0.0
C1413 C 0.45907 0.88234 0.70403 0.0
N1414 N 0.42827 0.87043 0.69263 0.0
N1415 N 0.49703 0.91137 0.6784 0.0
C1416 C 0.44533 0.8801 0.68886 0.0
C1417 C 0.48 0.90144 0.68165 0.0
N1418 N 0.43855 0.88165 0.65431 0.0
N1419 N 0.47938 0.90747 0.71702 0.0
H1420 H 0.50222 0.91411 0.66415 0.0
H1421 H 0.50586 0.91639 0.68971 0.0
H1422 H 0.47456 0.90369 0.73118 0.0
H1423 H 0.48821 0.91984 0.71578 0.0
H1424 H 0.4422 0.88486 0.63969 0.0
H1425 H 0.4422 0.88486 0.63969 0.0
H1426 H 0.41801 0.86764 0.68169 0.0
H1427 H 0.42478 0.86562 0.70685 0.0
C1428 C 0.45466 0.23913 0.94933 0.0
C1429 C 0.46929 0.2283 0.95981 0.0
C1430 C 0.47531 0.20899 0.93039 0.0
C1431 C 0.46667 0.2244 0.91891 0.0
N1432 N 0.4413 0.24945 0.9181 0.0
N1433 N 0.4881 0.19826 0.96174 0.0
C1434 C 0.45372 0.23763 0.92858 0.0
C1435 C 0.47734 0.21136 0.95094 0.0
N1436 N 0.44295 0.25246 0.95877 0.0
N1437 N 0.48336 0.19283 0.92168 0.0
H1438 H 0.48946 0.19967 0.97693 0.0
H1439 H 0.49492 0.18592 0.9555 0.0
H1440 H 0.48248 0.19035 0.90659 0.0
H1441 H 0.48248 0.19035 0.90659 0.0
H1442 H 0.4433 0.25433 0.97399 0.0
H1443 H 0.4433 0.25433 0.97399 0.0
H1444 H 0.4321 0.2599 0.92481 0.0
H1445 H 0.43963 0.24787 0.90297 0.0
C1446 C 0.10268 0.22238 0.12622 0.0
C1447 C 0.08353 0.22756 0.11955 0.0
C1448 C 0.07136 0.22639 0.15364 0.0
C1449 C 0.09133 0.22657 0.1606 0.0
N1450 N 0.12534 0.21837 0.15373 0.0
N1451 N 0.04935 0.22128 0.12587 0.0
C1452 C 0.10681 0.22235 0.14692 0.0
C1453 C 0.06767 0.22508 0.13295 0.0
N1454 N 0.11664 0.21711 0.11257 0.0
N1455 N 0.05592 0.22871 0.16652 0.0
H1456 H 0.0471 0.21826 0.11107 0.0
H1457 H 0.037 0.21849 0.13458 0.0
H1458 H 0.05725 0.2349 0.18035 0.0
H1459 H 0.04133 0.2259 0.16321 0.0
H1460 H 0.13086 0.21235 0.11587 0.0
H1461 H 0.11335 0.21637 0.09763 0.0
H1462 H 0.13775 0.21652 0.14481 0.0
H1463 H 0.12834 0.21677 0.16866 0.0
C1464 C 0.12043 0.88616 0.45032 0.0
C1465 C 0.12937 0.87255 0.46318 0.0
C1466 C 0.14843 0.85872 0.43561 0.0
C1467 C 0.13485 0.86773 0.42271 0.0
N1468 N 0.11435 0.89651 0.41719 0.0
N1469 N 0.15805 0.85209 0.46885 0.0
C1470 C 0.12363 0.88406 0.42984 0.0
C1471 C 0.14617 0.86193 0.4561 0.0
N1472 N 0.10747 0.89982 0.45747 0.0
N1473 N 0.16248 0.84606 0.42864 0.0
H1474 H 0.15618 0.85305 0.48408 0.0
H1475 H 0.15618 0.85305 0.48408 0.0
H1476 H 0.16461 0.84382 0.41362 0.0
H1477 H 0.17228 0.83863 0.43792 0.0
H1478 H 0.0999 0.90965 0.44832 0.0
H1479 H 0.10496 0.90129 0.47256 0.0
H1480 H 0.11612 0.89546 0.40196 0.0
H1481 H 0.11612 0.89546 0.40196 0.0
C1482 C 0.73009 0.47774 0.80931 0.0
C1483 C 0.7442 0.48042 0.82425 0.0
C1484 C 0.71717 0.47896 0.84914 0.0
C1485 C 0.703 0.48038 0.83396 0.0
N1486 N 0.69623 0.48255 0.79917 0.0
N1487 N 0.75173 0.47422 0.8581 0.0
C1488 C 0.70956 0.47991 0.81393 0.0
C1489 C 0.73784 0.47813 0.84415 0.0
N1490 N 0.7361 0.47186 0.79105 0.0
N1491 N 0.71089 0.47881 0.86828 0.0
H1492 H 0.76667 0.4726 0.85453 0.0
H1493 H 0.74849 0.47096 0.87272 0.0
H1494 H 0.69598 0.47882 0.87223 0.0
H1495 H 0.72024 0.47964 0.88025 0.0
H1496 H 0.72641 0.46819 0.77993 0.0
H1497 H 0.75058 0.4675 0.788 0.0
H1498 H 0.70013 0.4835 0.7844 0.0
H1499 H 0.68134 0.48567 0.80165 0.0
C1500 C 0.7408 0.41975 0.96637 0.0
C1501 C 0.73154 0.41314 0.98386 0.0
C1502 C 0.7172 0.44629 0.98877 0.0
C1503 C 0.73073 0.45365 0.97479 0.0
N1504 N 0.7472 0.4463 0.94392 0.0
N1505 N 0.70327 0.4186 1.00545 0.0
C1506 C 0.73929 0.43999 0.96125 0.0
C1507 C 0.71702 0.42579 0.99271 0.0
N1508 N 0.75139 0.40714 0.95481 0.0
N1509 N 0.7047 0.45871 0.99854 0.0
H1510 H 0.70175 0.40361 1.00848 0.0
H1511 H 0.70175 0.40361 1.00848 0.0
H1512 H 0.70344 0.47357 0.99478 0.0
H1513 H 0.695 0.4538 0.00948 0.0
H1514 H 0.75895 0.41187 0.94223 0.0
H1515 H 0.75175 0.39202 0.95733 0.0
H1516 H 0.74625 0.46094 0.9392 0.0
H1517 H 0.74625 0.46094 0.9392 0.0
C1518 C 0.88202 0.7044 0.4734 0.0
C1519 C 0.86588 0.71146 0.46221 0.0
C1520 C 0.86133 0.67807 0.4508 0.0
C1521 C 0.87006 0.67118 0.46852 0.0
N1522 N 0.89498 0.67716 0.49259 0.0
N1523 N 0.84842 0.70595 0.4325 0.0
C1524 C 0.88303 0.68401 0.47809 0.0
C1525 C 0.85918 0.69863 0.44767 0.0
N1526 N 0.89431 0.71718 0.48208 0.0
N1527 N 0.8527 0.66536 0.43833 0.0
H1528 H 0.84609 0.72109 0.43088 0.0
H1529 H 0.84234 0.6969 0.42187 0.0
H1530 H 0.85328 0.65014 0.44049 0.0
H1531 H 0.85328 0.65014 0.44049 0.0
H1532 H 0.89325 0.73232 0.47955 0.0
H1533 H 0.89325 0.73232 0.47955 0.0
H1534 H 0.9041 0.68645 0.50048 0.0
H1535 H 0.89569 0.66221 0.49616 0.0
C1536 C 0.01492 0.28757 0.18424 0.0
C1537 C 0.02175 0.30797 0.19718 0.0
C1538 C 0.06683 0.29755 0.17076 0.0
C1539 C 0.05419 0.27857 0.16092 0.0
N1540 N 0.02086 0.25965 0.15711 0.0
N1541 N 0.04893 0.33172 0.20953 0.0
C1542 C 0.02979 0.27404 0.16734 0.0
C1543 C 0.04486 0.31726 0.1957 0.0
N1544 N 0.99623 0.28144 0.18776 0.0
N1545 N 0.08665 0.29848 0.16529 0.0
H1546 H 0.042 0.33156 0.22325 0.0
H1547 H 0.05975 0.34251 0.20934 0.0
H1548 H 0.09506 0.28558 0.16507 0.0
H1549 H 0.09575 0.31071 0.16414 0.0
H1550 H 0.99045 0.26873 0.18187 0.0
H1551 H 0.98686 0.28916 0.19726 0.0
H1552 H 1.00603 0.25632 0.15868 0.0
H1553 H 0.02841 0.25159 0.14646 0.0
C1554 C 0.05366 0.81341 0.41842 0.0
C1555 C 0.07193 0.79804 0.41018 0.0
C1556 C 0.05883 0.76226 0.43644 0.0
C1557 C 0.03817 0.77233 0.4482 0.0
N1558 N 0.01672 0.80309 0.45736 0.0
N1559 N 0.08964 0.7637 0.41072 0.0
C1560 C 0.03107 0.79607 0.44429 0.0
C1561 C 0.07442 0.77412 0.41874 0.0
N1562 N 0.0551 0.83225 0.41037 0.0
N1563 N 0.0637 0.74356 0.4417 0.0
H1564 H 0.09873 0.76995 0.4 0.0
H1565 H 0.09287 0.74917 0.41435 0.0
H1566 H 0.0568 0.73645 0.45341 0.0
H1567 H 0.07535 0.73574 0.4354 0.0
H1568 H 0.0463 0.84487 0.4119 0.0
H1569 H 0.0463 0.84487 0.4119 0.0
H1570 H 1.00589 0.81389 0.45505 0.0
H1571 H 0.0175 0.79883 0.4721 0.0
C1572 C 0.56928 0.79972 0.65678 0.0
C1573 C 0.55868 0.78714 0.67091 0.0
C1574 C 0.53576 0.81035 0.6727 0.0
C1575 C 0.54015 0.82027 0.65523 0.0
N1576 N 0.56515 0.82377 0.63022 0.0
N1577 N 0.51332 0.76875 0.66761 0.0
C1578 C 0.55842 0.81492 0.64694 0.0
C1579 C 0.53584 0.78847 0.67113 0.0
N1580 N 0.58876 0.79681 0.65228 0.0
N1581 N 0.54408 0.81889 0.6887 0.0
H1582 H 0.50836 0.75418 0.66517 0.0
H1583 H 0.50836 0.75418 0.66517 0.0
H1584 H 0.54645 0.81119 0.70184 0.0
H1585 H 0.54645 0.81119 0.70184 0.0
H1586 H 0.59705 0.80717 0.64454 0.0
H1587 H 0.59605 0.78347 0.65486 0.0
H1588 H 0.57772 0.81893 0.62265 0.0
H1589 H 0.55744 0.83539 0.62364 0.0
C1590 C 0.56627 0.30199 0.94561 0.0
C1591 C 0.55297 0.32319 0.94492 0.0
C1592 C 0.52388 0.3091 0.91243 0.0
C1593 C 0.53305 0.28552 0.90826 0.0
N1594 N 0.5575 0.25653 0.91703 0.0
N1595 N 0.52462 0.34459 0.92959 0.0
C1596 C 0.55301 0.27622 0.92075 0.0
C1597 C 0.53318 0.32643 0.92937 0.0
N1598 N 0.57984 0.30074 0.96088 0.0
N1599 N 0.5088 0.31502 0.9007 0.0
H1600 H 0.53029 0.35603 0.93775 0.0
H1601 H 0.51249 0.34853 0.9212 0.0
H1602 H 0.50436 0.30673 0.88879 0.0
H1603 H 0.50144 0.3284 0.90213 0.0
H1604 H 0.59288 0.29247 0.96178 0.0
H1605 H 0.5764 0.30709 0.97441 0.0
H1606 H 0.57036 0.24845 0.91986 0.0
H1607 H 0.54683 0.247 0.91211 0.0
C1608 C 0.06319 0.79636 0.44392 0.0
C1609 C 0.05558 0.81876 0.45263 0.0
C1610 C 0.01977 0.82273 0.42382 0.0
C1611 C 0.0221 0.80089 0.41113 0.0
N1612 N 0.04223 0.76918 0.40232 0.0
N1613 N 0.02977 0.84809 0.45214 0.0
C1614 C 0.04049 0.78447 0.41581 0.0
C1615 C 0.03517 0.8311 0.44307 0.0
N1616 N 0.08127 0.78972 0.45114 0.0
N1617 N 1.00457 0.83457 0.41815 0.0
H1618 H 0.03678 0.85306 0.46462 0.0
H1619 H 0.01764 0.85655 0.44806 0.0
H1620 H 0.99472 0.83024 0.40743 0.0
H1621 H 1.00192 0.8485 0.42379 0.0
H1622 H 0.09232 0.79982 0.4539 0.0
H1623 H 0.08677 0.77537 0.45236 0.0
H1624 H 0.04741 0.75483 0.40457 0.0
H1625 H 0.04051 0.77219 0.38738 0.0
C1626 C 0.51917 0.78544 0.64138 0.0
C1627 C 0.53792 0.76416 0.64754 0.0
C1628 C 0.52531 0.76839 0.69662 0.0
C1629 C 0.50683 0.79021 0.68991 0.0
N1630 N 0.48644 0.80825 0.65807 0.0
N1631 N 0.55102 0.73796 0.67875 0.0
C1632 C 0.50295 0.7979 0.66232 0.0
C1633 C 0.54063 0.75459 0.67514 0.0
N1634 N 0.51592 0.78964 0.62229 0.0
N1635 N 0.52675 0.76244 0.71551 0.0
H1636 H 0.55847 0.7308 0.66732 0.0
H1637 H 0.55081 0.73163 0.69271 0.0
H1638 H 0.51863 0.76968 0.72643 0.0
H1639 H 0.53564 0.75042 0.71936 0.0
H1640 H 0.50448 0.79896 0.61786 0.0
H1641 H 0.52421 0.78235 0.61155 0.0
H1642 H 0.48151 0.80955 0.64367 0.0
H1643 H 0.48151 0.80955 0.64367 0.0
C1644 C 0.57074 0.26707 0.94996 0.0
C1645 C 0.54696 0.27503 0.95514 0.0
C1646 C 0.5592 0.30705 0.91475 0.0
C1647 C 0.58148 0.29552 0.91505 0.0
N1648 N 0.60539 0.26922 0.93035 0.0
N1649 N 0.51573 0.29611 0.94622 0.0
C1650 C 0.58676 0.27669 0.93143 0.0
C1651 C 0.5357 0.29329 0.94187 0.0
N1652 N 0.57781 0.25268 0.96199 0.0
N1653 N 0.5564 0.31969 0.89874 0.0
H1654 H 0.50758 0.28453 0.95198 0.0
H1655 H 0.5065 0.30818 0.94341 0.0
H1656 H 0.56351 0.3167 0.88545 0.0
H1657 H 0.54679 0.33171 0.89722 0.0
H1658 H 0.59184 0.24654 0.96061 0.0
H1659 H 0.56923 0.24702 0.97343 0.0
H1660 H 0.61051 0.25791 0.93933 0.0
H1661 H 0.61576 0.27475 0.92046 0.0
C1662 C 0.03697 0.30848 0.16599 0.0
C1663 C 0.05156 0.32838 0.16348 0.0
C1664 C 0.08039 0.316 0.19712 0.0
C1665 C 0.06972 0.2942 0.20497 0.0
N1666 N 0.04096 0.26889 0.2037 0.0
N1667 N 0.08119 0.34907 0.17505 0.0
C1668 C 0.04873 0.28553 0.19458 0.0
C1669 C 0.07174 0.33185 0.17812 0.0
N1670 N 0.02251 0.30679 0.1517 0.0
N1671 N 0.09745 0.3207 0.20607 0.0
H1672 H 0.07668 0.35872 0.16394 0.0
H1673 H 0.09285 0.35369 0.18359 0.0
H1674 H 0.10292 0.31207 0.21753 0.0
H1675 H 0.10597 0.33265 0.20193 0.0
H1676 H 0.02646 0.30927 0.13706 0.0
H1677 H 1.00863 0.30035 0.15265 0.0
H1678 H 0.03097 0.25862 0.19856 0.0
H1679 H 0.04284 0.26691 0.21874 0.0
C1680 C 0.17502 0.05634 0.29981 0.0
C1681 C 0.16273 0.04578 0.28078 0.0
C1682 C 0.18942 1.00778 0.27972 0.0
C1683 C 0.20563 0.01278 0.29852 0.0
N1684 N 0.21934 0.03806 0.32436 0.0
N1685 N 0.15834 0.01615 0.25659 0.0
C1686 C 0.20407 0.03393 0.31158 0.0
C1687 C 0.16975 0.02309 0.27123 0.0
N1688 N 0.16907 0.07552 0.30417 0.0
N1689 N 0.19151 0.98973 0.27151 0.0
H1690 H 0.14542 0.02329 0.25232 0.0
H1691 H 0.16148 1.00328 0.24902 0.0
H1692 H 0.20179 0.9795 0.27662 0.0
H1693 H 0.18262 0.98465 0.26037 0.0
H1694 H 0.17032 0.08324 0.31729 0.0
H1695 H 0.16442 0.08491 0.29295 0.0
H1696 H 0.23358 0.03221 0.32347 0.0
H1697 H 0.23358 0.03221 0.32347 0.0
C1698 C 0.32722 0.90844 0.53959 0.0
C1699 C 0.32352 0.92867 0.53691 0.0
C1700 C 0.29775 0.92025 0.5135 0.0
C1701 C 0.2971 0.90102 0.52186 0.0
N1702 N 0.31585 0.87556 0.53877 0.0
N1703 N 0.30939 0.95404 0.51675 0.0
C1704 C 0.31321 0.89469 0.53349 0.0
C1705 C 0.31021 0.93467 0.52216 0.0
N1706 N 0.34406 0.90188 0.54817 0.0
N1707 N 0.2869 0.92454 0.49725 0.0
H1708 H 0.31874 0.96442 0.52281 0.0
H1709 H 0.29964 0.95982 0.50645 0.0
H1710 H 0.2771 0.91466 0.49113 0.0
H1711 H 0.28896 0.93725 0.48898 0.0
H1712 H 0.35521 0.91133 0.55248 0.0
H1713 H 0.35521 0.91133 0.55248 0.0
H1714 H 0.30633 0.86444 0.5346 0.0
H1715 H 0.30633 0.86444 0.5346 0.0
C1716 C 0.43044 0.07943 0.77364 0.0
C1717 C 0.41348 0.07382 0.79193 0.0
C1718 C 0.43692 0.02665 0.78511 0.0
C1719 C 0.45108 0.0384 0.76783 0.0
N1720 N 0.4592 0.0714 0.74828 0.0
N1721 N 0.39498 0.0479 0.81341 0.0
C1722 C 0.44747 0.06314 0.76227 0.0
C1723 C 0.41142 0.0507 0.80124 0.0
N1724 N 0.43173 0.09838 0.76761 0.0
N1725 N 0.43963 1.00631 0.78582 0.0
H1726 H 0.38194 0.05566 0.8106 0.0
H1727 H 0.3929 0.03763 0.8247 0.0
H1728 H 0.44379 0.99883 0.77309 0.0
H1729 H 0.43656 0.99642 0.79723 0.0
H1730 H 0.42323 0.1097 0.77369 0.0
H1731 H 0.42323 0.1097 0.77369 0.0
H1732 H 0.45783 0.08627 0.74464 0.0
H1733 H 0.46964 0.06361 0.74017 0.0
C1734 C 0.29326 0.18775 0.02232 0.0
C1735 C 0.31443 0.19301 0.03526 0.0
C1736 C 0.29907 0.14876 0.05992 0.0
C1737 C 0.27982 0.14915 0.04422 0.0
N1738 N 0.26095 0.16651 0.01516 0.0
N1739 N 0.33805 0.18586 0.06483 0.0
C1740 C 0.2773 0.16744 0.02647 0.0
C1741 C 0.32228 0.17846 0.05434 0.0
N1742 N 0.28844 0.20088 1.00797 0.0
N1743 N 0.30176 0.1319 0.07133 0.0
H1744 H 0.33781 0.20068 0.0685 0.0
H1745 H 0.34866 0.17855 0.07324 0.0
H1746 H 0.29605 0.11815 0.06806 0.0
H1747 H 0.29605 0.11815 0.06806 0.0
H1748 H 0.27677 0.19913 0.99842 0.0
H1749 H 0.29604 0.214 1.00623 0.0
H1750 H 0.25742 0.17688 1.00448 0.0
H1751 H 0.25074 0.15536 0.01662 0.0
C1752 C 0.19744 0.04222 0.28138 0.0
C1753 C 0.20855 0.06203 0.29172 0.0
C1754 C 0.18772 0.05699 0.33282 0.0
C1755 C 0.1736 0.03628 0.32855 0.0
N1756 N 0.15987 0.01051 0.30328 0.0
N1757 N 0.21349 0.08518 0.32193 0.0
C1758 C 0.17377 0.02501 0.30635 0.0
C1759 C 0.20361 0.06917 0.31572 0.0
N1760 N 0.20113 0.03998 0.26132 0.0
N1761 N 0.18739 0.06375 0.35154 0.0
H1762 H 0.22374 0.09223 0.31293 0.0
H1763 H 0.21136 0.09148 0.33564 0.0
H1764 H 0.17947 0.05684 0.36269 0.0
H1765 H 0.19561 0.07559 0.35616 0.0
H1766 H 0.20001 0.02749 0.25259 0.0
H1767 H 0.20399 0.05224 0.25255 0.0
H1768 H 0.14672 1.00906 0.31117 0.0
H1769 H 0.14672 1.00906 0.31117 0.0
C1770 C 0.25914 0.91542 0.55853 0.0
C1771 C 0.26399 0.93542 0.55536 0.0
C1772 C 0.28619 0.93275 0.58348 0.0
C1773 C 0.28673 0.9121 0.58121 0.0
N1774 N 0.268 0.88381 0.57147 0.0
N1775 N 0.27903 0.96442 0.56812 0.0
C1776 C 0.27147 0.90343 0.57039 0.0
C1777 C 0.2764 0.94459 0.56905 0.0
N1778 N 0.24295 0.90732 0.55038 0.0
N1779 N 0.29475 0.94091 0.59943 0.0
H1780 H 0.27148 0.97337 0.55814 0.0
H1781 H 0.289 0.97179 0.57684 0.0
H1782 H 0.30152 0.93229 0.61021 0.0
H1783 H 0.29333 0.95576 0.60286 0.0
H1784 H 0.23304 0.9151 0.54153 0.0
H1785 H 0.23304 0.9151 0.54153 0.0
H1786 H 0.27625 0.87413 0.58017 0.0
H1787 H 0.27625 0.87413 0.58017 0.0
C1788 C 0.42406 0.02212 0.81795 0.0
C1789 C 0.44101 0.04098 0.81666 0.0
C1790 C 0.41703 0.04699 0.76997 0.0
C1791 C 0.40313 0.02724 0.77719 0.0
N1792 N 0.39379 1.00104 0.80416 0.0
N1793 N 0.45939 0.06788 0.7966 0.0
C1794 C 0.40651 0.01577 0.79982 0.0
C1795 C 0.44293 0.0557 0.79665 0.0
N1796 N 0.42376 0.01159 0.83499 0.0
N1797 N 0.41125 0.05594 0.75245 0.0
H1798 H 0.47211 0.06326 0.80389 0.0
H1799 H 0.46196 0.08097 0.78895 0.0
H1800 H 0.39633 0.05718 0.7493 0.0
H1801 H 0.41907 0.06501 0.74278 0.0
H1802 H 0.41385 1.00043 0.83796 0.0
H1803 H 0.4336 0.01394 0.84626 0.0
H1804 H 0.39483 0.99211 0.81654 0.0
H1805 H 0.38145 0.99852 0.79561 0.0
C1806 C 0.31853 0.16189 0.0857 0.0
C1807 C 0.29851 0.17701 0.08004 0.0
C1808 C 0.31134 0.1587 0.03194 0.0
C1809 C 0.32977 0.14596 0.04364 0.0
N1810 N 0.34905 0.13806 0.07659 0.0
N1811 N 0.27585 0.19421 0.05424 0.0
C1812 C 0.33346 0.14812 0.06889 0.0
C1813 C 0.29024 0.1796 0.05666 0.0
N1814 N 0.32218 0.15954 0.10517 0.0
N1815 N 0.3122 0.15772 0.0115 0.0
H1816 H 0.2766 0.2071 0.06236 0.0
H1817 H 0.26494 0.19547 0.04357 0.0
H1818 H 0.32584 0.15591 1.0045 0.0
H1819 H 0.30108 0.16019 1.00124 0.0
H1820 H 0.33293 0.15011 0.11072 0.0
H1821 H 0.31312 0.16582 0.11588 0.0
H1822 H 0.35334 0.13934 0.0911 0.0
H1823 H 0.35862 0.12943 0.06831 0.0
C1824 C 0.78607 0.45629 0.05487 0.0
C1825 C 0.79069 0.45606 0.02945 0.0
C1826 C 0.8191 0.42272 0.02754 0.0
C1827 C 0.81285 0.42194 0.06596 0.0
N1828 N 0.78998 0.4421 0.09131 0.0
N1829 N 0.80556 0.44128 0.99657 0.0
C1830 C 0.79594 0.4404 0.07228 0.0
C1831 C 0.8055 0.44057 0.01654 0.0
N1832 N 0.77493 0.47158 0.06171 0.0
N1833 N 0.8303 0.41223 0.01388 0.0
H1834 H 0.79556 0.44983 0.98862 0.0
H1835 H 0.81461 0.43203 0.98818 0.0
H1836 H 0.8402 0.40049 0.01565 0.0
H1837 H 0.8402 0.40049 0.01565 0.0
H1838 H 0.77241 0.4742 0.07653 0.0
H1839 H 0.76937 0.48253 0.05254 0.0
H1840 H 0.77879 0.45164 0.09584 0.0
H1841 H 0.7957 0.43344 0.10251 0.0
C1842 C 0.91091 0.54289 0.2852 0.0
C1843 C 0.91441 0.5195 0.29356 0.0
C1844 C 0.94526 0.53088 0.3256 0.0
C1845 C 0.947 0.55606 0.3212 0.0
N1846 N 0.93384 0.58817 0.30418 0.0
N1847 N 0.93352 0.49451 0.31612 0.0
C1848 C 0.93294 0.56771 0.30381 0.0
C1849 C 0.93077 0.51397 0.31228 0.0
N1850 N 0.89531 0.54518 0.27214 0.0
N1851 N 0.95592 0.52344 0.34079 0.0
H1852 H 0.92653 0.48375 0.30806 0.0
H1853 H 0.94381 0.48907 0.32601 0.0
H1854 H 0.96403 0.53213 0.35008 0.0
H1855 H 0.95521 0.50887 0.34534 0.0
H1856 H 0.89305 0.55594 0.26136 0.0
H1857 H 0.88283 0.53651 0.27377 0.0
H1858 H 0.93688 0.5952 0.31736 0.0
H1859 H 0.93037 0.59845 0.29324 0.0
C1860 C 0.82 0.68633 0.5551 0.0
C1861 C 0.81525 0.66634 0.55252 0.0
C1862 C 0.79206 0.66991 0.58002 0.0
C1863 C 0.79108 0.69045 0.57645 0.0
N1864 N 0.80967 0.71849 0.56479 0.0
N1865 N 0.79961 0.6378 0.56618 0.0
C1866 C 0.80669 0.69879 0.56537 0.0
C1867 C 0.80224 0.65763 0.56625 0.0
N1868 N 0.83701 0.69396 0.54784 0.0
N1869 N 0.78406 0.66224 0.59674 0.0
H1870 H 0.80749 0.62857 0.55669 0.0
H1871 H 0.78932 0.63079 0.57514 0.0
H1872 H 0.77714 0.67103 0.60727 0.0
H1873 H 0.7864 0.64766 0.601 0.0
H1874 H 0.84766 0.68559 0.54041 0.0
H1875 H 0.84766 0.68559 0.54041 0.0
H1876 H 0.80067 0.72853 0.57227 0.0
H1877 H 0.80067 0.72853 0.57227 0.0
C1878 C 0.94238 0.53978 0.29127 0.0
C1879 C 0.94054 0.55542 0.27187 0.0
C1880 C 0.90264 0.57723 0.28814 0.0
C1881 C 0.89887 0.56441 0.30995 0.0
N1882 N 0.90776 0.53493 0.33346 0.0
N1883 N 0.92167 0.58446 0.25413 0.0
C1884 C 0.91404 0.54529 0.31685 0.0
C1885 C 0.92194 0.57311 0.27064 0.0
N1886 N 0.9595 0.5284 0.29265 0.0
N1887 N 0.88891 0.59134 0.28402 0.0
H1888 H 0.93222 0.58325 0.24307 0.0
H1889 H 0.91096 0.59508 0.25131 0.0
H1890 H 0.87596 0.59266 0.29228 0.0
H1891 H 0.88985 0.60096 0.27216 0.0
H1892 H 0.97273 0.53148 0.28538 0.0
H1893 H 0.97273 0.53148 0.28538 0.0
H1894 H 0.91549 0.52549 0.34285 0.0
H1895 H 0.89276 0.53311 0.33599 0.0
C1896 C 0.69482 0.55071 0.80342 0.0
C1897 C 0.70676 0.53299 0.78999 0.0
C1898 C 0.68006 0.53776 0.75307 0.0
C1899 C 0.66357 0.55563 0.76118 0.0
N1900 N 0.6503 0.57856 0.79012 0.0
N1901 N 0.70971 0.5118 0.75802 0.0
C1902 C 0.66512 0.56565 0.78404 0.0
C1903 C 0.69948 0.5268 0.7666 0.0
N1904 N 0.70396 0.55576 0.82091 0.0
N1905 N 0.67862 0.5327 0.73387 0.0
H1906 H 0.72099 0.5043 0.76523 0.0
H1907 H 0.70597 0.50581 0.7446 0.0
H1908 H 0.66861 0.53948 0.72447 0.0
H1909 H 0.68843 0.52315 0.72689 0.0
H1910 H 0.69789 0.56191 0.83364 0.0
H1911 H 0.71929 0.55609 0.82153 0.0
H1912 H 0.63671 0.58055 0.78343 0.0
H1913 H 0.63671 0.58055 0.78343 0.0
C1914 C 0.81964 0.44739 0.04758 0.0
C1915 C 0.84106 0.4357 0.05131 0.0
C1916 C 0.82385 0.39378 0.04741 0.0
C1917 C 0.79928 0.39927 0.04403 0.0
N1918 N 0.7706 0.4252 0.03986 0.0
N1919 N 0.86182 0.40361 0.05238 0.0
C1920 C 0.79079 0.42302 0.04297 0.0
C1921 C 0.84314 0.4107 0.05045 0.0
N1922 N 0.82046 0.46766 0.04671 0.0
N1923 N 0.82854 0.37437 0.04693 0.0
H1924 H 0.86542 0.38873 0.0526 0.0
H1925 H 0.87363 0.41324 0.05329 0.0
H1926 H 0.81768 0.36402 0.0445 0.0
H1927 H 0.84276 0.36885 0.04874 0.0
H1928 H 0.83372 0.47519 0.04653 0.0
H1929 H 0.83372 0.47519 0.04653 0.0
H1930 H 0.7619 0.43779 0.03783 0.0
H1931 H 0.76146 0.41313 0.03991 0.0
C1932 C 0.7681 0.66357 0.52081 0.0
C1933 C 0.75518 0.6706 0.53572 0.0
C1934 C 0.76513 0.70441 0.52837 0.0
C1935 C 0.7804 0.69707 0.51625 0.0
N1936 N 0.78954 0.67209 0.49314 0.0
N1937 N 0.73413 0.69741 0.54538 0.0
C1938 C 0.77964 0.67737 0.50984 0.0
C1939 C 0.75125 0.69103 0.53683 0.0
N1940 N 0.76964 0.64382 0.51754 0.0
N1941 N 0.76469 0.7241 0.53185 0.0
H1942 H 0.72407 0.68774 0.55181 0.0
H1943 H 0.72913 0.71186 0.5441 0.0
H1944 H 0.75455 0.73114 0.54111 0.0
H1945 H 0.75455 0.73114 0.54111 0.0
H1946 H 0.77958 0.63753 0.50759 0.0
H1947 H 0.76102 0.63364 0.52519 0.0
H1948 H 0.78746 0.65866 0.48632 0.0
H1949 H 0.79827 0.68196 0.48521 0.0
C1950 C 0.6721 0.53466 0.78783 0.0
C1951 C 0.66189 0.54189 0.80966 0.0
C1952 C 0.68145 0.58326 0.80947 0.0
C1953 C 0.69522 0.58221 0.78774 0.0
N1954 N 0.70936 0.56035 0.7584 0.0
N1955 N 0.65624 0.56961 0.8361 0.0
C1956 C 0.69539 0.56161 0.77341 0.0
C1957 C 0.66631 0.56478 0.81945 0.0
N1958 N 0.66463 0.5173 0.78034 0.0
N1959 N 0.6822 0.59955 0.82074 0.0
H1960 H 0.6449 0.56097 0.84171 0.0
H1961 H 0.65831 0.58303 0.84303 0.0
H1962 H 0.69132 0.61142 0.81784 0.0
H1963 H 0.69132 0.61142 0.81784 0.0
H1964 H 0.67062 0.50762 0.76999 0.0
H1965 H 0.64979 0.51417 0.7827 0.0
H1966 H 0.72223 0.56856 0.75769 0.0
H1967 H 0.72223 0.56856 0.75769 0.0
C1968 C 0.9983 0.42094 0.25801 0.0
C1969 C 1.00965 0.41559 0.2411 0.0
C1970 C 1.01017 0.45027 0.23057 0.0
C1971 C 0.99879 0.45566 0.24748 0.0
N1972 N 0.98519 0.44695 0.27902 0.0
N1973 N 0.02971 0.42523 0.21354 0.0
C1974 C 0.99388 0.4412 0.26175 0.0
C1975 C 0.01671 0.43035 0.22816 0.0
N1976 N 0.99101 0.40652 0.27006 0.0
N1977 N 0.01368 0.46394 0.21615 0.0
H1978 H 0.03451 0.41074 0.21145 0.0
H1979 H 0.03702 0.43537 0.20465 0.0
H1980 H 1.00939 0.47865 0.21729 0.0
H1981 H 0.01969 0.46052 0.20245 0.0
H1982 H 0.98058 0.40903 0.2811 0.0
H1983 H 0.99471 0.39169 0.26839 0.0
H1984 H 0.98281 0.43757 0.29093 0.0
H1985 H 0.98179 0.46163 0.28206 0.0
C1986 C 0.92866 0.73687 0.52284 0.0
C1987 C 0.93106 0.75268 0.50919 0.0
C1988 C 0.89584 0.76089 0.51413 0.0
C1989 C 0.89231 0.7424 0.5232 0.0
N1990 N 0.90668 0.71464 0.54039 0.0
N1991 N 0.91473 0.77755 0.48913 0.0
C1992 C 0.90915 0.73092 0.52886 0.0
C1993 C 0.91412 0.76428 0.50428 0.0
N1994 N 0.94504 0.72813 0.53071 0.0
N1995 N 0.88199 0.77556 0.51532 0.0
H1996 H 0.92696 0.77948 0.47999 0.0
H1997 H 0.90214 0.78489 0.4841 0.0
H1998 H 0.8695 0.77439 0.52431 0.0
H1999 H 0.88447 0.78972 0.50991 0.0
H2000 H 0.94459 0.71769 0.54196 0.0
H2001 H 0.95931 0.73271 0.52727 0.0
H2002 H 0.91752 0.70384 0.54229 0.0
H2003 H 0.89382 0.71223 0.54852 0.0
C2004 C 0.61562 0.66966 0.73709 0.0
C2005 C 0.60439 0.65685 0.74934 0.0
C2006 C 0.57968 0.68372 0.75287 0.0
C2007 C 0.59226 0.6968 0.74233 0.0
N2008 N 0.62587 0.70279 0.731 0.0
N2009 N 0.57722 0.65357 0.77224 0.0
C2010 C 0.61152 0.6901 0.73702 0.0
C2011 C 0.58681 0.66443 0.75827 0.0
N2012 N 0.62879 0.6623 0.72363 0.0
N2013 N 0.561 0.6897 0.75776 0.0
H2014 H 0.58247 0.6399 0.77705 0.0
H2015 H 0.56528 0.65893 0.78042 0.0
H2016 H 0.55591 0.70403 0.75522 0.0
H2017 H 0.55039 0.68022 0.76346 0.0
H2018 H 0.63616 0.67113 0.71341 0.0
H2019 H 0.62983 0.64743 0.72039 0.0
H2020 H 0.64041 0.69814 0.72853 0.0
H2021 H 0.6242 0.71796 0.73044 0.0
C2022 C 0.67897 0.34053 0.02764 0.0
C2023 C 0.6925 0.35236 0.01677 0.0
C2024 C 0.66672 0.35845 0.9922 0.0
C2025 C 0.65402 0.34468 1.00146 0.0
N2026 N 0.64935 0.3205 0.02707 0.0
N2027 N 0.70007 0.36746 0.98515 0.0
C2028 C 0.66049 0.33514 0.01901 0.0
C2029 C 0.6867 0.35955 0.99794 0.0
N2030 N 0.68379 0.3343 0.0461 0.0
N2031 N 0.65951 0.37177 0.97884 0.0
H2032 H 0.71496 0.36818 0.98801 0.0
H2033 H 0.69666 0.37111 0.97066 0.0
H2034 H 0.64462 0.37313 0.97544 0.0
H2035 H 0.66786 0.38333 0.97322 0.0
H2036 H 0.67385 0.32747 0.05563 0.0
H2037 H 0.69752 0.33696 0.05227 0.0
H2038 H 0.654 0.31173 0.03878 0.0
H2039 H 0.63616 0.31596 0.02089 0.0
C2040 C 0.01548 0.67062 0.33839 0.0
C2041 C 0.9961 0.66259 0.33808 0.0
C2042 C 0.98305 0.69485 0.34805 0.0
C2043 C 1.00223 0.70184 0.35195 0.0
N2044 N 0.03718 0.69501 0.35246 0.0
N2045 N 0.96232 0.66656 0.34992 0.0
C2046 C 0.01866 0.68936 0.34751 0.0
C2047 C 0.98011 0.67454 0.34496 0.0
N2048 N 0.03073 0.6608 0.32944 0.0
N2049 N 0.9676 0.70772 0.34624 0.0
H2050 H 0.95986 0.65148 0.35047 0.0
H2051 H 0.95092 0.67487 0.35625 0.0
H2052 H 0.96963 0.72288 0.34593 0.0
H2053 H 0.95355 0.70329 0.34216 0.0
H2054 H 0.04475 0.6667 0.32772 0.0
H2055 H 0.02882 0.64767 0.32192 0.0
H2056 H 0.04948 0.68574 0.35138 0.0
H2057 H 0.03994 0.70839 0.35923 0.0
C2058 C 0.68365 0.77063 0.59729 0.0
C2059 C 0.68506 0.75419 0.5843 0.0
C2060 C 0.64981 0.75996 0.57711 0.0
C2061 C 0.64719 0.77153 0.59424 0.0
N2062 N 0.66325 0.79127 0.61852 0.0
N2063 N 0.66644 0.73136 0.56436 0.0
C2064 C 0.66463 0.77791 0.60371 0.0
C2065 C 0.66741 0.74851 0.57459 0.0
N2066 N 0.7004 0.78007 0.60265 0.0
N2067 N 0.63559 0.75989 0.56309 0.0
H2068 H 0.67765 0.72084 0.56385 0.0
H2069 H 0.65325 0.7263 0.55861 0.0
H2070 H 0.62352 0.76955 0.56356 0.0
H2071 H 0.63741 0.75247 0.54982 0.0
H2072 H 0.70033 0.79303 0.6107 0.0
H2073 H 0.71428 0.77638 0.597 0.0
H2074 H 0.67475 0.79398 0.62812 0.0
H2075 H 0.65062 0.79982 0.62096 0.0
C2076 C 0.60503 0.41559 0.87617 0.0
C2077 C 0.59425 0.40237 0.86443 0.0
C2078 C 0.59623 0.42717 0.83759 0.0
C2079 C 0.61129 0.43733 0.84779 0.0
N2080 N 0.63333 0.43646 0.87576 0.0
N2081 N 0.57769 0.39698 0.83384 0.0
C2082 C 0.61654 0.43033 0.86686 0.0
C2083 C 0.58931 0.40859 0.84503 0.0
N2084 N 0.6042 0.41454 0.89619 0.0
N2085 N 0.5879 0.43558 0.82135 0.0
H2086 H 0.57035 0.38482 0.83964 0.0
H2087 H 0.57567 0.39925 0.81884 0.0
H2088 H 0.59165 0.44955 0.81627 0.0
H2089 H 0.57581 0.42972 0.81423 0.0
H2090 H 0.61138 0.42456 0.90509 0.0
H2091 H 0.59384 0.4061 0.90374 0.0
H2092 H 0.63819 0.43042 0.88902 0.0
H2093 H 0.64384 0.44521 0.86882 0.0
C2094 C 0.94782 0.36775 0.0977 0.0
C2095 C 0.95024 0.35243 0.11183 0.0
C2096 C 0.91426 0.34702 0.11145 0.0
C2097 C 0.91161 0.36418 0.09953 0.0
N2098 N 0.92587 0.39076 0.08092 0.0
N2099 N 0.9354 0.32845 0.13351 0.0
C2100 C 0.92845 0.37442 0.09246 0.0
C2101 C 0.93341 0.34204 0.11873 0.0
N2102 N 0.96419 0.37559 0.08895 0.0
N2103 N 0.89847 0.33558 0.11634 0.0
H2104 H 0.94894 0.32391 0.13908 0.0
H2105 H 0.92355 0.3226 0.14134 0.0
H2106 H 0.88392 0.33922 0.11314 0.0
H2107 H 0.8999 0.32157 0.12246 0.0
H2108 H 0.96376 0.38552 0.07726 0.0
H2109 H 0.97841 0.37076 0.09233 0.0
H2110 H 0.9371 0.4005 0.07735 0.0
H2111 H 0.91216 0.39502 0.07539 0.0
C2112 C 0.23932 0.99366 0.43719 0.0
C2113 C 0.25802 0.98685 0.44439 0.0
C2114 C 0.27189 0.99136 0.41099 0.0
C2115 C 0.25348 0.99902 0.40414 0.0
N2116 N 0.22204 0.01335 0.41278 0.0
N2117 N 0.29324 0.98638 0.43901 0.0
C2118 C 0.23807 1.0022 0.41801 0.0
C2119 C 0.27466 0.98802 0.43156 0.0
N2120 N 0.22232 0.99073 0.4477 0.0
N2121 N 0.28642 0.98592 0.39801 0.0
H2122 H 0.29589 0.98508 0.45404 0.0
H2123 H 0.30591 0.9888 0.43056 0.0
H2124 H 0.28526 0.98739 0.38285 0.0
H2125 H 0.29906 0.97821 0.4023 0.0
H2126 H 0.20837 0.99349 0.44193 0.0
H2127 H 0.22159 0.98338 0.46108 0.0
H2128 H 0.21115 0.01775 0.4228 0.0
H2129 H 0.22088 0.02006 0.39899 0.0
C2130 C 0.32115 0.97998 0.65822 0.0
C2131 C 0.33062 0.9868 0.64065 0.0
C2132 C 0.3406 0.01593 0.65933 0.0
C2133 C 0.33699 1.00607 0.67738 0.0
N2134 N 0.32108 0.97908 0.69394 0.0
N2135 N 0.35335 0.01116 0.6268 0.0
C2136 C 0.32642 0.98815 0.67679 0.0
C2137 C 0.34122 1.0049 0.64168 0.0
N2138 N 0.30649 0.96644 0.65719 0.0
N2139 N 0.34339 0.03575 0.65878 0.0
H2140 H 0.35715 1.00297 0.61451 0.0
H2141 H 0.36222 0.0235 0.62814 0.0
H2142 H 0.34076 0.04468 0.67091 0.0
H2143 H 0.34501 0.04353 0.6456 0.0
H2144 H 0.29821 0.96196 0.66936 0.0
H2145 H 0.30083 0.96168 0.64389 0.0
H2146 H 0.31569 0.9648 0.69455 0.0
H2147 H 0.32249 0.98584 0.70756 0.0
C2148 C 0.33478 0.09344 0.92322 0.0
C2149 C 0.34846 0.08975 0.93849 0.0
C2150 C 0.37069 0.07426 0.91387 0.0
C2151 C 0.35883 0.08147 0.89825 0.0
N2152 N 0.33075 0.10205 0.88904 0.0
N2153 N 0.38189 0.07994 0.94689 0.0
C2154 C 0.34103 0.09196 0.90312 0.0
C2155 C 0.36701 0.08082 0.9335 0.0
N2156 N 0.3157 0.09832 0.92783 0.0
N2157 N 0.38556 0.06108 0.91001 0.0
H2158 H 0.38079 0.08577 0.96095 0.0
H2159 H 0.39621 0.07545 0.94322 0.0
H2160 H 0.38825 0.05553 0.89597 0.0
H2161 H 0.3936 0.05406 0.92105 0.0
H2162 H 0.30465 0.0994 0.91732 0.0
H2163 H 0.31053 0.09906 0.9423 0.0
H2164 H 0.319 0.11151 0.89239 0.0
H2165 H 0.33505 0.10295 0.87437 0.0
C2166 C 0.27229 0.07145 0.17333 0.0
C2167 C 0.26147 0.08341 0.18688 0.0
C2168 C 0.2501 0.10355 0.1593 0.0
C2169 C 0.263 0.09379 0.14594 0.0
N2170 N 0.28931 0.06989 0.14164 0.0
N2171 N 0.24684 0.11587 0.192 0.0
C2172 C 0.27498 0.07805 0.15331 0.0
C2173 C 0.2528 0.10116 0.17971 0.0
N2174 N 0.2802 0.05399 0.17957 0.0
N2175 N 0.23404 0.11385 0.15274 0.0
H2176 H 0.25025 0.11616 0.20679 0.0
H2177 H 0.24116 0.12922 0.18675 0.0
H2178 H 0.22954 0.11331 0.13817 0.0
H2179 H 0.22357 0.12008 0.16224 0.0
H2180 H 0.28642 0.04368 0.17003 0.0
H2181 H 0.27962 0.0495 0.19426 0.0
H2182 H 0.29953 0.05955 0.14675 0.0
H2183 H 0.29222 0.07488 0.12741 0.0
C2184 C 0.42749 0.26483 0.0401 0.0
C2185 C 0.40973 0.26685 0.02914 0.0
C2186 C 0.42775 0.28628 1.00417 0.0
C2187 C 0.4456 0.28336 0.01477 0.0
N2188 N 0.45975 0.27823 0.04659 0.0
N2189 N 0.3919 0.28606 1.00523 0.0
C2190 C 0.44441 0.2756 0.0341 0.0
C2191 C 0.40954 0.2798 0.01265 0.0
N2192 N 0.42915 0.25149 0.05512 0.0
N2193 N 0.42799 0.29416 0.98567 0.0
H2194 H 0.37843 0.28213 0.01164 0.0
H2195 H 0.39068 0.29681 0.99431 0.0
H2196 H 0.44028 0.30061 0.97923 0.0
H2197 H 0.4159 0.29368 0.97636 0.0
H2198 H 0.44258 0.24811 0.06174 0.0
H2199 H 0.41789 0.24241 0.05996 0.0
H2200 H 0.45916 0.27427 0.06141 0.0
H2201 H 0.47203 0.28649 0.04252 0.0
C2202 C 0.0965 0.9063 0.34172 0.0
C2203 C 0.08917 0.90151 0.36083 0.0
C2204 C 0.10071 0.93323 0.37271 0.0
C2205 C 0.10768 0.93852 0.35357 0.0
N2206 N 0.1072 0.93186 0.31887 0.0
N2207 N 0.07651 0.91503 0.39135 0.0
C2208 C 0.10401 0.92558 0.33772 0.0
C2209 C 0.08848 0.91655 0.37517 0.0
N2210 N 0.09628 0.89238 0.32738 0.0
N2211 N 0.1071 0.94282 0.389 0.0
H2212 H 0.06615 0.90401 0.39316 0.0
H2213 H 0.07486 0.92637 0.40149 0.0
H2214 H 0.11785 0.95361 0.38864 0.0
H2215 H 0.10371 0.93813 0.40325 0.0
H2216 H 0.10357 0.89391 0.31393 0.0
H2217 H 0.08911 0.879 0.32932 0.0
H2218 H 0.10332 0.92379 0.30658 0.0
H2219 H 0.11192 0.94605 0.31552 0.0
C2220 C 0.15249 0.84676 0.53473 0.0
C2221 C 0.15074 0.82863 0.52466 0.0
C2222 C 0.18712 0.82507 0.52728 0.0
C2223 C 0.18886 0.84544 0.53187 0.0
N2224 N 0.17126 0.87639 0.53732 0.0
N2225 N 0.16703 0.79835 0.51538 0.0
C2226 C 0.17104 0.85646 0.53512 0.0
C2227 C 0.16829 0.81712 0.52213 0.0
N2228 N 0.1367 0.85445 0.54474 0.0
N2229 N 0.20329 0.81301 0.52888 0.0
H2230 H 0.15381 0.79068 0.51544 0.0
H2231 H 0.17911 0.79035 0.51005 0.0
H2232 H 0.21679 0.81797 0.53389 0.0
H2233 H 0.20287 0.7978 0.52743 0.0
H2234 H 0.13766 0.86702 0.55335 0.0
H2235 H 0.12378 0.84657 0.54706 0.0
H2236 H 0.15835 0.88488 0.53782 0.0
H2237 H 0.18387 0.88487 0.53616 0.0
C2238 C 0.5287 0.9141 0.73031 0.0
C2239 C 0.52127 0.89753 0.74057 0.0
C2240 C 0.51045 0.92015 0.76717 0.0
C2241 C 0.51292 0.93646 0.75429 0.0
N2242 N 0.52247 0.94798 0.72171 0.0
N2243 N 0.50917 0.88476 0.77167 0.0
C2244 C 0.52187 0.93327 0.73548 0.0
C2245 C 0.51349 0.90055 0.75997 0.0
N2246 N 0.54266 0.9117 0.71593 0.0
N2247 N 0.50588 0.92346 0.78648 0.0
H2248 H 0.51455 0.87067 0.76883 0.0
H2249 H 0.50046 0.88566 0.78433 0.0
H2250 H 0.50426 0.93759 0.7922 0.0
H2251 H 0.50553 0.91251 0.79723 0.0
H2252 H 0.54942 0.92352 0.70884 0.0
H2253 H 0.54961 0.89818 0.71338 0.0
H2254 H 0.52695 0.94554 0.70722 0.0
H2255 H 0.51649 0.96195 0.72386 0.0
C2256 C 0.09886 0.16172 0.27947 0.0
C2257 C 0.09967 0.14592 0.26585 0.0
C2258 C 0.08607 0.16853 0.2406 0.0
C2259 C 0.08861 0.18479 0.25317 0.0
N2260 N 0.09895 0.19708 0.2844 0.0
N2261 N 0.09795 0.13645 0.23146 0.0
C2262 C 0.09546 0.18144 0.27258 0.0
C2263 C 0.09401 0.14979 0.24595 0.0
N2264 N 0.10059 0.15787 0.2991 0.0
N2265 N 0.0766 0.17096 0.22308 0.0
H2266 H 0.10536 0.12325 0.23364 0.0
H2267 H 0.09625 0.13962 0.21656 0.0
H2268 H 0.07148 0.1845 0.21788 0.0
H2269 H 0.07222 0.15916 0.21453 0.0
H2270 H 0.09845 0.1685 0.30988 0.0
H2271 H 0.10197 0.14362 0.30473 0.0
H2272 H 0.10607 0.19585 0.29785 0.0
H2273 H 0.09573 0.21147 0.28008 0.0
C2274 C 0.47879 0.15806 0.8568 0.0
C2275 C 0.48908 0.14582 0.84314 0.0
C2276 C 0.51453 0.17161 0.84014 0.0
C2277 C 0.5029 0.1845 0.85204 0.0
N2278 N 0.47099 0.19099 0.86725 0.0
N2279 N 0.51548 0.14255 0.81938 0.0
C2280 C 0.48404 0.17812 0.85871 0.0
C2281 C 0.50666 0.15305 0.83413 0.0
N2282 N 0.46511 0.15026 0.86946 0.0
N2283 N 0.53307 0.17708 0.83455 0.0
H2284 H 0.50982 0.12936 0.81428 0.0
H2285 H 0.52726 0.14776 0.81099 0.0
H2286 H 0.53876 0.19086 0.83778 0.0
H2287 H 0.54315 0.1676 0.82773 0.0
H2288 H 0.45869 0.15821 0.88095 0.0
H2289 H 0.46217 0.1353 0.87046 0.0
H2290 H 0.45635 0.18738 0.87026 0.0
H2291 H 0.47403 0.20565 0.86981 0.0
C2292 C 0.18781 0.25138 0.0888 0.0
C2293 C 0.20009 0.2458 0.10471 0.0
C2294 C 0.17488 0.25913 0.12775 0.0
C2295 C 0.16149 0.26192 0.11211 0.0
N2296 N 0.15462 0.25857 0.07753 0.0
N2297 N 0.20358 0.24168 0.13992 0.0
C2298 C 0.16788 0.25774 0.09251 0.0
C2299 C 0.19329 0.24921 0.12435 0.0
N2300 N 0.19529 0.25084 0.0701 0.0
N2301 N 0.17 0.26609 0.14596 0.0
H2302 H 0.21673 0.23375 0.13849 0.0
H2303 H 0.1981 0.24163 0.15427 0.0
H2304 H 0.15671 0.27347 0.14884 0.0
H2305 H 0.17988 0.26638 0.15758 0.0
H2306 H 0.18785 0.25654 0.05798 0.0
H2307 H 0.20976 0.24636 0.06699 0.0
H2308 H 0.15772 0.25338 0.06347 0.0
H2309 H 0.13999 0.26308 0.07943 0.0
C2310 C 0.41485 0.87231 0.58018 0.0
C2311 C 0.39802 0.86106 0.58543 0.0
C2312 C 0.42126 0.83639 0.59965 0.0
C2313 C 0.43672 0.85045 0.59964 0.0
N2314 N 0.44602 0.88407 0.59177 0.0
N2315 N 0.38624 0.82983 0.59752 0.0
C2316 C 0.433 0.86899 0.59025 0.0
C2317 C 0.40155 0.84235 0.59447 0.0
N2318 N 0.41388 0.88578 0.56526 0.0
N2319 N 0.42558 0.81704 0.6033 0.0
H2320 H 0.37267 0.83174 0.5907 0.0
H2321 H 0.38712 0.81756 0.60673 0.0
H2322 H 0.43995 0.81182 0.60521 0.0
H2323 H 0.41537 0.80582 0.60195 0.0
H2324 H 0.42617 0.89343 0.56017 0.0
H2325 H 0.40187 0.88682 0.55588 0.0
H2326 H 0.44389 0.89773 0.58508 0.0
H2327 H 0.45756 0.88416 0.6017 0.0
C2328 C 0.78492 0.52662 0.91853 0.0
C2329 C 0.77078 0.52077 0.93285 0.0
C2330 C 0.74455 0.5272 0.90869 0.0
C2331 C 0.75885 0.52928 0.89354 0.0
N2332 N 0.79339 0.52852 0.88395 0.0
N2333 N 0.73673 0.5123 0.94 0.0
C2334 C 0.77927 0.52867 0.89843 0.0
C2335 C 0.75042 0.52049 0.92765 0.0
N2336 N 0.80379 0.53032 0.92414 0.0
N2337 N 0.72523 0.53155 0.90492 0.0
H2338 H 0.74007 0.50618 0.95361 0.0
H2339 H 0.72225 0.50969 0.93584 0.0
H2340 H 0.72055 0.53674 0.89125 0.0
H2341 H 0.71435 0.53208 0.91585 0.0
H2342 H 0.81433 0.53645 0.91475 0.0
H2343 H 0.80826 0.5292 0.93874 0.0
H2344 H 0.80825 0.52569 0.88667 0.0
H2345 H 0.79025 0.52952 0.86905 0.0
C2346 C 0.84673 0.51466 0.18173 0.0
C2347 C 0.84721 0.49959 0.19631 0.0
C2348 C 0.82885 0.47842 0.17371 0.0
C2349 C 0.83271 0.49137 0.15778 0.0
N2350 N 0.84232 0.5241 0.14758 0.0
N2351 N 0.84059 0.46545 0.20452 0.0
C2352 C 0.84052 0.51029 0.16211 0.0
C2353 C 0.83841 0.48114 0.19203 0.0
N2354 N 0.85163 0.53335 0.18686 0.0
N2355 N 0.81601 0.46336 0.17123 0.0
H2356 H 0.8486 0.46582 0.21746 0.0
H2357 H 0.83625 0.45129 0.20091 0.0
H2358 H 0.80832 0.46159 0.15816 0.0
H2359 H 0.81129 0.45433 0.18275 0.0
H2360 H 0.84995 0.54553 0.17766 0.0
H2361 H 0.8557 0.537 0.20111 0.0
H2362 H 0.85125 0.53639 0.14868 0.0
H2363 H 0.83438 0.52364 0.13461 0.0
C2364 C 0.82163 0.60279 0.4109 0.0
C2365 C 0.83488 0.58653 0.41171 0.0
C2366 C 0.83389 0.58859 0.44787 0.0
C2367 C 0.8235 0.60696 0.44694 0.0
N2368 N 0.81162 0.63344 0.42581 0.0
N2369 N 0.85695 0.56665 0.43162 0.0
C2370 C 0.8182 0.61449 0.428 0.0
C2371 C 0.84173 0.57997 0.43037 0.0
N2372 N 0.81239 0.60722 0.39367 0.0
N2373 N 0.83644 0.57916 0.46546 0.0
H2374 H 0.86401 0.56041 0.41951 0.0
H2375 H 0.86404 0.56333 0.44477 0.0
H2376 H 0.83154 0.58481 0.4788 0.0
H2377 H 0.84181 0.56477 0.46656 0.0
H2378 H 0.80117 0.61778 0.39261 0.0
H2379 H 0.81448 0.59884 0.381 0.0
H2380 H 0.80958 0.64005 0.4121 0.0
H2381 H 0.81049 0.64346 0.43723 0.0
C2382 C 0.75982 0.62845 0.65848 0.0
C2383 C 0.75253 0.61739 0.64267 0.0
C2384 C 0.73791 0.59429 0.66695 0.0
C2385 C 0.74111 0.60817 0.68206 0.0
N2386 N 0.75361 0.64004 0.69134 0.0
N2387 N 0.7402 0.58601 0.63226 0.0
C2388 C 0.75197 0.62551 0.6777 0.0
C2389 C 0.74335 0.59903 0.64702 0.0
N2390 N 0.77473 0.64142 0.65524 0.0
N2391 N 0.73021 0.5764 0.67186 0.0
H2392 H 0.7479 0.58665 0.61896 0.0
H2393 H 0.7309 0.574 0.63343 0.0
H2394 H 0.72663 0.57252 0.68631 0.0
H2395 H 0.72843 0.56492 0.66207 0.0
H2396 H 0.78169 0.64884 0.66652 0.0
H2397 H 0.7819 0.64254 0.64164 0.0
H2398 H 0.75946 0.65377 0.68798 0.0
H2399 H 0.74739 0.63934 0.70536 0.0
loop_
_geom_bond_atom_site_label_1
_geom_bond_atom_site_label_2
_geom_bond_distance
_geom_bond_site_symmetry_2
_ccdc_geom_bond_type
O0 Cd1 2.223 1_655 S
O0 C8 1.315 . S
Cd1 O0 2.223 1_455 S
Cd1 O4 2.297 1_455 S
Cd1 O5 2.439 1_455 S
Cd1 O11 2.240 . S
Cd2 O3 2.240 . S
Cd2 O10 2.223 1_655 S
Cd2 O12 2.297 1_655 S
Cd2 O13 2.439 1_655 S
O3 Cd2 2.240 . S
O3 C8 1.279 . S
O4 Cd1 2.297 1_655 S
O4 C6 1.247 . S
O5 Cd1 2.439 1_655 S
O5 C6 1.208 . S
C6 O4 1.247 . S
C6 O5 1.208 . S
C7 O12 1.247 . S
C7 O13 1.208 . S
C8 O0 1.315 . S
C8 O3 1.279 . S
C9 O10 1.315 . S
C9 O11 1.279 . S
O10 Cd2 2.223 1_455 S
O10 C9 1.315 . S
O11 Cd1 2.240 . S
O11 C9 1.279 . S
O12 Cd2 2.297 1_455 S
O12 C7 1.247 . S
O13 Cd2 2.439 1_455 S
O13 C7 1.208 . S
O14 Cd15 2.223 . S
O14 C22 1.315 . S
Cd15 O14 2.223 . S
Cd15 O18 2.297 . S
Cd15 O19 2.439 . S
Cd15 O25 2.240 1_655 S
Cd16 O17 2.243 . S
Cd16 O24 2.223 . S
Cd16 O26 2.297 . S
Cd16 O27 2.439 . S
O17 Cd16 2.243 . S
O17 C22 1.279 1_455 S
O18 Cd15 2.297 . S
O18 C20 1.247 . S
O19 Cd15 2.439 . S
O19 C20 1.208 . S
C20 O18 1.247 . S
C20 O19 1.208 . S
C21 O26 1.247 . S
C21 O27 1.208 . S
C22 O14 1.315 . S
C22 O17 1.279 1_655 S
C23 O24 1.315 . S
C23 O25 1.279 . S
O24 Cd16 2.223 . S
O24 C23 1.315 . S
O25 Cd15 2.240 1_455 S
O25 C23 1.279 . S
O26 Cd16 2.297 . S
O26 C21 1.247 . S
O27 Cd16 2.439 . S
O27 C21 1.208 . S
O28 Cd29 2.223 . S
O28 C36 1.315 . S
Cd29 O28 2.223 . S
Cd29 O32 2.297 . S
Cd29 O33 2.439 . S
Cd29 O39 2.240 . S
Cd30 O31 2.240 . S
Cd30 O38 2.223 . S
Cd30 O40 2.297 . S
Cd30 O41 2.439 . S
O31 Cd30 2.240 . S
O31 C36 1.279 . S
O32 Cd29 2.297 . S
O32 C34 1.247 . S
O33 Cd29 2.439 . S
O33 C34 1.208 . S
C34 O32 1.247 . S
C34 O33 1.208 . S
C35 O40 1.247 . S
C35 O41 1.208 . S
C36 O28 1.315 . S
C36 O31 1.279 . S
C37 O38 1.315 . S
C37 O39 1.279 . S
O38 Cd30 2.223 . S
O38 C37 1.315 . S
O39 Cd29 2.240 . S
O39 C37 1.279 . S
O40 Cd30 2.297 . S
O40 C35 1.247 . S
O41 Cd30 2.439 . S
O41 C35 1.208 . S
O42 Cd43 2.223 . S
O42 C50 1.315 . S
Cd43 O42 2.223 . S
Cd43 O46 2.297 . S
Cd43 O47 2.439 . S
Cd43 O53 2.240 . S
Cd44 O45 2.240 . S
Cd44 O52 2.223 . S
Cd44 O54 2.297 . S
Cd44 O55 2.439 1_556 S
O45 Cd44 2.240 . S
O45 C50 1.279 . S
O46 Cd43 2.297 . S
O46 C48 1.247 . S
O47 Cd43 2.439 . S
O47 C48 1.208 . S
C48 O46 1.247 . S
C48 O47 1.208 . S
C49 O54 1.247 1_554 S
C49 O55 1.208 . S
C50 O42 1.315 . S
C50 O45 1.279 . S
C51 O52 1.315 . S
C51 O53 1.279 . S
O52 Cd44 2.223 . S
O52 C51 1.315 . S
O53 Cd43 2.240 . S
O53 C51 1.279 . S
O54 Cd44 2.297 . S
O54 C49 1.247 1_556 S
O55 Cd44 2.439 1_554 S
O55 C49 1.208 . S
O56 Cd57 2.223 1_655 S
O56 C64 1.315 . S
Cd57 O56 2.223 1_455 S
Cd57 O60 2.297 1_455 S
Cd57 O61 2.439 1_455 S
Cd57 O67 2.240 . S
Cd58 O59 2.240 . S
Cd58 O66 2.223 1_655 S
Cd58 O68 2.297 1_655 S
Cd58 O69 2.439 1_655 S
O59 Cd58 2.240 . S
O59 C64 1.279 . S
O60 Cd57 2.297 1_655 S
O60 C62 1.247 . S
O61 Cd57 2.439 1_655 S
O61 C62 1.208 . S
C62 O60 1.247 . S
C62 O61 1.208 . S
C63 O68 1.247 . S
C63 O69 1.208 . S
C64 O56 1.315 . S
C64 O59 1.279 . S
C65 O66 1.315 . S
C65 O67 1.279 . S
O66 Cd58 2.223 1_455 S
O66 C65 1.315 . S
O67 Cd57 2.240 . S
O67 C65 1.279 . S
O68 Cd58 2.297 1_455 S
O68 C63 1.247 . S
O69 Cd58 2.439 1_455 S
O69 C63 1.208 . S
O70 Cd71 2.223 . S
O70 C78 1.315 . S
Cd71 O70 2.223 . S
Cd71 O74 2.297 . S
Cd71 O75 2.439 . S
Cd71 O81 2.240 . S
Cd72 O73 2.240 . S
Cd72 O80 2.223 . S
Cd72 O82 2.297 . S
Cd72 O83 2.439 . S
O73 Cd72 2.240 . S
O73 C78 1.279 . S
O74 Cd71 2.297 . S
O74 C76 1.247 . S
O75 Cd71 2.439 . S
O75 C76 1.208 . S
C76 O74 1.247 . S
C76 O75 1.208 . S
C77 O82 1.247 . S
C77 O83 1.208 . S
C78 O70 1.315 . S
C78 O73 1.279 . S
C79 O80 1.315 . S
C79 O81 1.279 . S
O80 Cd72 2.223 . S
O80 C79 1.315 . S
O81 Cd71 2.240 . S
O81 C79 1.279 . S
O82 Cd72 2.297 . S
O82 C77 1.247 . S
O83 Cd72 2.439 . S
O83 C77 1.208 . S
O84 Cd85 2.223 . S
O84 C92 1.315 . S
Cd85 O84 2.223 . S
Cd85 O88 2.297 . S
Cd85 O89 2.439 . S
Cd85 O95 2.240 . S
Cd86 O87 2.240 . S
Cd86 O94 2.223 . S
Cd86 O96 2.297 . S
Cd86 O97 2.439 . S
O87 Cd86 2.240 . S
O87 C92 1.279 . S
O88 Cd85 2.297 . S
O88 C90 1.247 . S
O89 Cd85 2.439 . S
O89 C90 1.208 . S
C90 O88 1.247 . S
C90 O89 1.208 . S
C91 O96 1.247 . S
C91 O97 1.208 . S
C92 O84 1.315 . S
C92 O87 1.279 . S
C93 O94 1.315 . S
C93 O95 1.279 . S
O94 Cd86 2.223 . S
O94 C93 1.315 . S
O95 Cd85 2.240 . S
O95 C93 1.279 . S
O96 Cd86 2.297 . S
O96 C91 1.247 . S
O97 Cd86 2.439 . S
O97 C91 1.208 . S
O98 Cd99 2.223 . S
O98 C106 1.315 . S
Cd99 O98 2.223 . S
Cd99 O102 2.297 . S
Cd99 O103 2.439 . S
Cd99 O109 2.240 1_655 S
Cd100 O101 2.264 . S
Cd100 O108 2.223 . S
Cd100 O110 2.297 . S
Cd100 O111 2.439 . S
O101 Cd100 2.264 . S
O101 C106 1.273 1_455 S
O102 Cd99 2.297 . S
O102 C104 1.247 . S
O103 Cd99 2.439 . S
O103 C104 1.208 . S
C104 O102 1.247 . S
C104 O103 1.208 . S
C105 O110 1.247 . S
C105 O111 1.208 . S
C106 O98 1.315 . S
C106 O101 1.273 1_655 S
C107 O108 1.315 . S
C107 O109 1.279 . S
O108 Cd100 2.223 . S
O108 C107 1.315 . S
O109 Cd99 2.240 1_455 S
O109 C107 1.279 . S
O110 Cd100 2.297 . S
O110 C105 1.247 . S
O111 Cd100 2.439 . S
O111 C105 1.208 . S
O112 Cd113 2.223 1_565 S
O112 C120 1.315 . S
Cd113 O112 2.223 1_545 S
Cd113 O116 2.297 1_545 S
Cd113 O117 2.439 1_545 S
Cd113 O123 2.240 . S
Cd114 O115 2.240 . S
Cd114 O122 2.223 1_565 S
Cd114 O124 2.297 1_565 S
Cd114 O125 2.439 1_565 S
O115 Cd114 2.240 . S
O115 C120 1.279 . S
O116 Cd113 2.297 1_565 S
O116 C118 1.247 . S
O117 Cd113 2.439 1_565 S
O117 C118 1.208 . S
C118 O116 1.247 . S
C118 O117 1.208 . S
C119 O124 1.247 . S
C119 O125 1.208 . S
C120 O112 1.315 . S
C120 O115 1.279 . S
C121 O122 1.315 . S
C121 O123 1.279 . S
O122 Cd114 2.223 1_545 S
O122 C121 1.315 . S
O123 Cd113 2.240 . S
O123 C121 1.279 . S
O124 Cd114 2.297 1_545 S
O124 C119 1.247 . S
O125 Cd114 2.439 1_545 S
O125 C119 1.208 . S
O126 Cd127 2.223 . S
O126 C134 1.315 . S
Cd127 O126 2.223 . S
Cd127 O130 2.297 . S
Cd127 O131 2.439 . S
Cd127 O137 2.240 . S
Cd128 O129 2.240 . S
Cd128 O136 2.223 . S
Cd128 O138 2.297 . S
Cd128 O139 2.439 1_565 S
O129 Cd128 2.240 . S
O129 C134 1.279 . S
O130 Cd127 2.297 . S
O130 C132 1.247 . S
O131 Cd127 2.439 . S
O131 C132 1.208 . S
C132 O130 1.247 . S
C132 O131 1.208 . S
C133 O138 1.247 1_545 S
C133 O139 1.208 . S
C134 O126 1.315 . S
C134 O129 1.279 . S
C135 O136 1.315 . S
C135 O137 1.279 . S
O136 Cd128 2.223 . S
O136 C135 1.315 . S
O137 Cd127 2.240 . S
O137 C135 1.279 . S
O138 Cd128 2.297 . S
O138 C133 1.247 1_565 S
O139 Cd128 2.439 1_545 S
O139 C133 1.208 . S
O140 Cd141 2.223 . S
O140 C148 1.315 . S
Cd141 O140 2.223 . S
Cd141 O144 2.297 . S
Cd141 O145 2.439 . S
Cd141 O151 2.240 . S
Cd142 O143 2.240 . S
Cd142 O150 2.223 . S
Cd142 O152 2.297 . S
Cd142 O153 2.439 . S
O143 Cd142 2.240 . S
O143 C148 1.279 . S
O144 Cd141 2.297 . S
O144 C146 1.247 . S
O145 Cd141 2.439 . S
O145 C146 1.208 . S
C146 O144 1.247 . S
C146 O145 1.208 . S
C147 O152 1.247 . S
C147 O153 1.208 . S
C148 O140 1.315 . S
C148 O143 1.279 . S
C149 O150 1.315 . S
C149 O151 1.279 . S
O150 Cd142 2.223 . S
O150 C149 1.315 . S
O151 Cd141 2.240 . S
O151 C149 1.279 . S
O152 Cd142 2.297 . S
O152 C147 1.247 . S
O153 Cd142 2.439 . S
O153 C147 1.208 . S
O154 Cd155 2.223 . S
O154 C162 1.315 . S
Cd155 O154 2.223 . S
Cd155 O158 2.297 . S
Cd155 O159 2.439 . S
Cd155 O165 2.240 . S
Cd156 O157 2.240 . S
Cd156 O164 2.223 . S
Cd156 O166 2.297 . S
Cd156 O167 2.439 . S
O157 Cd156 2.240 . S
O157 C162 1.279 . S
O158 Cd155 2.297 . S
O158 C160 1.247 . S
O159 Cd155 2.439 . S
O159 C160 1.208 . S
C160 O158 1.247 . S
C160 O159 1.208 . S
C161 O166 1.247 . S
C161 O167 1.208 . S
C162 O154 1.315 . S
C162 O157 1.279 . S
C163 O164 1.315 . S
C163 O165 1.279 . S
O164 Cd156 2.223 . S
O164 C163 1.315 . S
O165 Cd155 2.240 . S
O165 C163 1.279 . S
O166 Cd156 2.297 . S
O166 C161 1.247 . S
O167 Cd156 2.439 . S
O167 C161 1.208 . S
O168 Cd169 2.223 . S
O168 C176 1.315 . S
Cd169 O168 2.223 . S
Cd169 O172 2.297 . S
Cd169 O173 2.439 . S
Cd169 O179 2.240 . S
Cd170 O171 2.240 . S
Cd170 O178 2.223 . S
Cd170 O180 2.297 . S
Cd170 O181 2.439 . S
O171 Cd170 2.240 . S
O171 C176 1.279 . S
O172 Cd169 2.297 . S
O172 C174 1.247 . S
O173 Cd169 2.439 . S
O173 C174 1.208 . S
C174 O172 1.247 . S
C174 O173 1.208 . S
C175 O180 1.247 . S
C175 O181 1.208 . S
C176 O168 1.315 . S
C176 O171 1.279 . S
C177 O178 1.315 . S
C177 O179 1.279 . S
O178 Cd170 2.223 . S
O178 C177 1.315 . S
O179 Cd169 2.240 . S
O179 C177 1.279 . S
O180 Cd170 2.297 . S
O180 C175 1.247 . S
O181 Cd170 2.439 . S
O181 C175 1.208 . S
O182 Cd183 2.223 . S
O182 C190 1.315 . S
Cd183 O182 2.223 . S
Cd183 O186 2.297 . S
Cd183 O187 2.439 . S
Cd183 O193 2.240 . S
Cd184 O185 2.240 . S
Cd184 O192 2.223 . S
Cd184 O194 2.297 . S
Cd184 O195 2.439 1_565 S
O185 Cd184 2.240 . S
O185 C190 1.279 . S
O186 Cd183 2.297 . S
O186 C188 1.247 . S
O187 Cd183 2.439 . S
O187 C188 1.208 . S
C188 O186 1.247 . S
C188 O187 1.208 . S
C189 O194 1.247 1_545 S
C189 O195 1.208 . S
C190 O182 1.315 . S
C190 O185 1.279 . S
C191 O192 1.315 . S
C191 O193 1.279 . S
O192 Cd184 2.223 . S
O192 C191 1.315 . S
O193 Cd183 2.240 . S
O193 C191 1.279 . S
O194 Cd184 2.297 . S
O194 C189 1.247 1_565 S
O195 Cd184 2.439 1_545 S
O195 C189 1.208 . S
O196 Cd197 2.223 1_565 S
O196 C204 1.315 . S
Cd197 O196 2.223 1_545 S
Cd197 O200 2.297 1_545 S
Cd197 O201 2.439 1_545 S
Cd197 O207 2.240 . S
Cd198 O199 2.240 . S
Cd198 O206 2.223 1_565 S
Cd198 O208 2.297 1_565 S
Cd198 O209 2.439 1_565 S
O199 Cd198 2.240 . S
O199 C204 1.279 . S
O200 Cd197 2.297 1_565 S
O200 C202 1.247 . S
O201 Cd197 2.439 1_565 S
O201 C202 1.208 . S
C202 O200 1.247 . S
C202 O201 1.208 . S
C203 O208 1.247 . S
C203 O209 1.208 . S
C204 O196 1.315 . S
C204 O199 1.279 . S
C205 O206 1.315 . S
C205 O207 1.279 . S
O206 Cd198 2.223 1_545 S
O206 C205 1.315 . S
O207 Cd197 2.240 . S
O207 C205 1.279 . S
O208 Cd198 2.297 1_545 S
O208 C203 1.247 . S
O209 Cd198 2.439 1_545 S
O209 C203 1.208 . S
O210 Cd211 2.223 . S
O210 C218 1.315 . S
Cd211 O210 2.223 . S
Cd211 O214 2.297 . S
Cd211 O215 2.439 . S
Cd211 O221 2.240 1_556 S
Cd212 O213 2.264 . S
Cd212 O220 2.223 . S
Cd212 O222 2.297 . S
Cd212 O223 2.439 . S
O213 Cd212 2.264 . S
O213 C218 1.273 1_554 S
O214 Cd211 2.297 . S
O214 C216 1.247 . S
O215 Cd211 2.439 . S
O215 C216 1.208 . S
C216 O214 1.247 . S
C216 O215 1.208 . S
C217 O222 1.247 . S
C217 O223 1.208 . S
C218 O210 1.315 . S
C218 O213 1.273 1_556 S
C219 O220 1.315 . S
C219 O221 1.279 . S
O220 Cd212 2.223 . S
O220 C219 1.315 . S
O221 Cd211 2.240 1_554 S
O221 C219 1.279 . S
O222 Cd212 2.297 . S
O222 C217 1.247 . S
O223 Cd212 2.439 . S
O223 C217 1.208 . S
O224 Cd225 2.223 1_556 S
O224 C232 1.315 . S
Cd225 O224 2.223 1_554 S
Cd225 O228 2.297 1_554 S
Cd225 O229 2.439 1_554 S
Cd225 O235 2.240 . S
Cd226 O227 2.240 . S
Cd226 O234 2.223 1_556 S
Cd226 O236 2.297 1_556 S
Cd226 O237 2.439 1_556 S
O227 Cd226 2.240 . S
O227 C232 1.279 . S
O228 Cd225 2.297 1_556 S
O228 C230 1.247 . S
O229 Cd225 2.439 1_556 S
O229 C230 1.208 . S
C230 O228 1.247 . S
C230 O229 1.208 . S
C231 O236 1.247 . S
C231 O237 1.208 . S
C232 O224 1.315 . S
C232 O227 1.279 . S
C233 O234 1.315 . S
C233 O235 1.279 . S
O234 Cd226 2.223 1_554 S
O234 C233 1.315 . S
O235 Cd225 2.240 . S
O235 C233 1.279 . S
O236 Cd226 2.297 1_554 S
O236 C231 1.247 . S
O237 Cd226 2.439 1_554 S
O237 C231 1.208 . S
O238 Cd239 2.223 . S
O238 C246 1.315 . S
Cd239 O238 2.223 . S
Cd239 O242 2.297 . S
Cd239 O243 2.439 . S
Cd239 O249 2.240 . S
Cd240 O241 2.240 . S
Cd240 O248 2.223 . S
Cd240 O250 2.297 . S
Cd240 O251 2.439 . S
O241 Cd240 2.240 . S
O241 C246 1.279 . S
O242 Cd239 2.297 . S
O242 C244 1.247 . S
O243 Cd239 2.439 . S
O243 C244 1.208 . S
C244 O242 1.247 . S
C244 O243 1.208 . S
C245 O250 1.247 . S
C245 O251 1.208 . S
C246 O238 1.315 . S
C246 O241 1.279 . S
C247 O248 1.315 . S
C247 O249 1.279 . S
O248 Cd240 2.223 . S
O248 C247 1.315 . S
O249 Cd239 2.240 . S
O249 C247 1.279 . S
O250 Cd240 2.297 . S
O250 C245 1.247 . S
O251 Cd240 2.439 . S
O251 C245 1.208 . S
O252 Cd253 2.223 . S
O252 C260 1.315 . S
Cd253 O252 2.223 . S
Cd253 O256 2.297 . S
Cd253 O257 2.439 . S
Cd253 O263 2.240 . S
Cd254 O255 2.240 . S
Cd254 O262 2.223 . S
Cd254 O264 2.297 . S
Cd254 O265 2.439 1_655 S
O255 Cd254 2.240 . S
O255 C260 1.279 . S
O256 Cd253 2.297 . S
O256 C258 1.247 . S
O257 Cd253 2.439 . S
O257 C258 1.208 . S
C258 O256 1.247 . S
C258 O257 1.208 . S
C259 O264 1.247 1_455 S
C259 O265 1.208 . S
C260 O252 1.315 . S
C260 O255 1.279 . S
C261 O262 1.315 . S
C261 O263 1.279 . S
O262 Cd254 2.223 . S
O262 C261 1.315 . S
O263 Cd253 2.240 . S
O263 C261 1.279 . S
O264 Cd254 2.297 . S
O264 C259 1.247 1_655 S
O265 Cd254 2.439 1_455 S
O265 C259 1.208 . S
O266 Cd267 2.223 . S
O266 C274 1.315 . S
Cd267 O266 2.223 . S
Cd267 O270 2.297 . S
Cd267 O271 2.439 . S
Cd267 O277 2.240 . S
Cd268 O269 2.240 . S
Cd268 O276 2.223 . S
Cd268 O278 2.297 . S
Cd268 O279 2.439 . S
O269 Cd268 2.240 . S
O269 C274 1.279 . S
O270 Cd267 2.297 . S
O270 C272 1.247 . S
O271 Cd267 2.439 . S
O271 C272 1.208 . S
C272 O270 1.247 . S
C272 O271 1.208 . S
C273 O278 1.247 . S
C273 O279 1.208 . S
C274 O266 1.315 . S
C274 O269 1.279 . S
C275 O276 1.315 . S
C275 O277 1.279 . S
O276 Cd268 2.223 . S
O276 C275 1.315 . S
O277 Cd267 2.240 . S
O277 C275 1.279 . S
O278 Cd268 2.297 . S
O278 C273 1.247 . S
O279 Cd268 2.439 . S
O279 C273 1.208 . S
O280 Cd281 2.223 . S
O280 C288 1.315 . S
Cd281 O280 2.223 . S
Cd281 O284 2.297 . S
Cd281 O285 2.439 . S
Cd281 O291 2.240 1_565 S
Cd282 O283 2.264 . S
Cd282 O290 2.223 . S
Cd282 O292 2.297 . S
Cd282 O293 2.439 . S
O283 Cd282 2.264 . S
O283 C288 1.273 1_545 S
O284 Cd281 2.297 . S
O284 C286 1.247 . S
O285 Cd281 2.439 . S
O285 C286 1.208 . S
C286 O284 1.247 . S
C286 O285 1.208 . S
C287 O292 1.247 . S
C287 O293 1.208 . S
C288 O280 1.315 . S
C288 O283 1.273 1_565 S
C289 O290 1.315 . S
C289 O291 1.279 . S
O290 Cd282 2.223 . S
O290 C289 1.315 . S
O291 Cd281 2.240 1_545 S
O291 C289 1.279 . S
O292 Cd282 2.297 . S
O292 C287 1.247 . S
O293 Cd282 2.439 . S
O293 C287 1.208 . S
O294 Cd295 2.223 . S
O294 C302 1.315 . S
Cd295 O294 2.223 . S
Cd295 O298 2.297 . S
Cd295 O299 2.439 . S
Cd295 O305 2.240 . S
Cd296 O297 2.240 . S
Cd296 O304 2.223 . S
Cd296 O306 2.297 . S
Cd296 O307 2.439 . S
O297 Cd296 2.240 . S
O297 C302 1.279 . S
O298 Cd295 2.297 . S
O298 C300 1.247 . S
O299 Cd295 2.439 . S
O299 C300 1.208 . S
C300 O298 1.247 . S
C300 O299 1.208 . S
C301 O306 1.247 . S
C301 O307 1.208 . S
C302 O294 1.315 . S
C302 O297 1.279 . S
C303 O304 1.315 . S
C303 O305 1.279 . S
O304 Cd296 2.223 . S
O304 C303 1.315 . S
O305 Cd295 2.240 . S
O305 C303 1.279 . S
O306 Cd296 2.297 . S
O306 C301 1.247 . S
O307 Cd296 2.439 . S
O307 C301 1.208 . S
O308 Cd309 2.223 . S
O308 C316 1.315 . S
Cd309 O308 2.223 . S
Cd309 O312 2.297 . S
Cd309 O313 2.439 . S
Cd309 O319 2.240 . S
Cd310 O311 2.240 . S
Cd310 O318 2.223 . S
Cd310 O320 2.297 . S
Cd310 O321 2.439 1_655 S
O311 Cd310 2.240 . S
O311 C316 1.279 . S
O312 Cd309 2.297 . S
O312 C314 1.247 . S
O313 Cd309 2.439 . S
O313 C314 1.208 . S
C314 O312 1.247 . S
C314 O313 1.208 . S
C315 O320 1.247 1_455 S
C315 O321 1.208 . S
C316 O308 1.315 . S
C316 O311 1.279 . S
C317 O318 1.315 . S
C317 O319 1.279 . S
O318 Cd310 2.223 . S
O318 C317 1.315 . S
O319 Cd309 2.240 . S
O319 C317 1.279 . S
O320 Cd310 2.297 . S
O320 C315 1.247 1_655 S
O321 Cd310 2.439 1_455 S
O321 C315 1.208 . S
O322 Cd323 2.223 . S
O322 C330 1.315 . S
Cd323 O322 2.223 . S
Cd323 O326 2.297 . S
Cd323 O327 2.439 . S
Cd323 O333 2.240 . S
Cd324 O325 2.240 . S
Cd324 O332 2.223 . S
Cd324 O334 2.297 . S
Cd324 O335 2.439 . S
O325 Cd324 2.240 . S
O325 C330 1.279 . S
O326 Cd323 2.297 . S
O326 C328 1.247 . S
O327 Cd323 2.439 . S
O327 C328 1.208 . S
C328 O326 1.247 . S
C328 O327 1.208 . S
C329 O334 1.247 . S
C329 O335 1.208 . S
C330 O322 1.315 . S
C330 O325 1.279 . S
C331 O332 1.315 . S
C331 O333 1.279 . S
O332 Cd324 2.223 . S
O332 C331 1.315 . S
O333 Cd323 2.240 . S
O333 C331 1.279 . S
O334 Cd324 2.297 . S
O334 C329 1.247 . S
O335 Cd324 2.439 . S
O335 C329 1.208 . S
O336 Cd337 2.223 . S
O336 C344 1.315 . S
Cd337 O336 2.223 . S
Cd337 O340 2.297 . S
Cd337 O341 2.439 . S
Cd337 O347 2.240 . S
Cd338 O339 2.240 . S
Cd338 O346 2.223 . S
Cd338 O348 2.297 . S
Cd338 O349 2.439 . S
O339 Cd338 2.240 . S
O339 C344 1.279 . S
O340 Cd337 2.297 . S
O340 C342 1.247 . S
O341 Cd337 2.439 . S
O341 C342 1.208 . S
C342 O340 1.247 . S
C342 O341 1.208 . S
C343 O348 1.247 . S
C343 O349 1.208 . S
C344 O336 1.315 . S
C344 O339 1.279 . S
C345 O346 1.315 . S
C345 O347 1.279 . S
O346 Cd338 2.223 . S
O346 C345 1.315 . S
O347 Cd337 2.240 . S
O347 C345 1.279 . S
O348 Cd338 2.297 . S
O348 C343 1.247 . S
O349 Cd338 2.439 . S
O349 C343 1.208 . S
O350 Cd351 2.223 . S
O350 C358 1.315 . S
Cd351 O350 2.223 . S
Cd351 O354 2.297 . S
Cd351 O355 2.439 . S
Cd351 O361 2.240 . S
Cd352 O353 2.240 . S
Cd352 O360 2.223 . S
Cd352 O362 2.297 . S
Cd352 O363 2.439 1_556 S
O353 Cd352 2.240 . S
O353 C358 1.279 . S
O354 Cd351 2.297 . S
O354 C356 1.247 . S
O355 Cd351 2.439 . S
O355 C356 1.208 . S
C356 O354 1.247 . S
C356 O355 1.208 . S
C357 O362 1.247 1_554 S
C357 O363 1.208 . S
C358 O350 1.315 . S
C358 O353 1.279 . S
C359 O360 1.315 . S
C359 O361 1.279 . S
O360 Cd352 2.223 . S
O360 C359 1.315 . S
O361 Cd351 2.240 . S
O361 C359 1.279 . S
O362 Cd352 2.297 . S
O362 C357 1.247 1_556 S
O363 Cd352 2.439 1_554 S
O363 C357 1.208 . S
O364 Cd365 2.223 . S
O364 C372 1.315 . S
Cd365 O364 2.223 . S
Cd365 O368 2.297 . S
Cd365 O369 2.439 . S
Cd365 O375 2.240 . S
Cd366 O367 2.240 . S
Cd366 O374 2.223 . S
Cd366 O376 2.297 . S
Cd366 O377 2.439 . S
O367 Cd366 2.240 . S
O367 C372 1.279 . S
O368 Cd365 2.297 . S
O368 C370 1.247 . S
O369 Cd365 2.439 . S
O369 C370 1.208 . S
C370 O368 1.247 . S
C370 O369 1.208 . S
C371 O376 1.247 . S
C371 O377 1.208 . S
C372 O364 1.315 . S
C372 O367 1.279 . S
C373 O374 1.315 . S
C373 O375 1.279 . S
O374 Cd366 2.223 . S
O374 C373 1.315 . S
O375 Cd365 2.240 . S
O375 C373 1.279 . S
O376 Cd366 2.297 . S
O376 C371 1.247 . S
O377 Cd366 2.439 . S
O377 C371 1.208 . S
O378 Cd379 2.223 . S
O378 C386 1.315 . S
Cd379 O378 2.223 . S
Cd379 O382 2.297 . S
Cd379 O383 2.439 . S
Cd379 O389 2.240 . S
Cd380 O381 2.240 . S
Cd380 O388 2.223 . S
Cd380 O390 2.297 . S
Cd380 O391 2.439 . S
O381 Cd380 2.240 . S
O381 C386 1.279 . S
O382 Cd379 2.297 . S
O382 C384 1.247 . S
O383 Cd379 2.439 . S
O383 C384 1.208 . S
C384 O382 1.247 . S
C384 O383 1.208 . S
C385 O390 1.247 . S
C385 O391 1.208 . S
C386 O378 1.315 . S
C386 O381 1.279 . S
C387 O388 1.315 . S
C387 O389 1.279 . S
O388 Cd380 2.223 . S
O388 C387 1.315 . S
O389 Cd379 2.240 . S
O389 C387 1.279 . S
O390 Cd380 2.297 . S
O390 C385 1.247 . S
O391 Cd380 2.439 . S
O391 C385 1.208 . S
O392 Cd393 2.223 . S
O392 C400 1.315 . S
Cd393 O392 2.223 . S
Cd393 O396 2.297 . S
Cd393 O397 2.439 . S
Cd393 O403 2.240 . S
Cd394 O395 2.240 . S
Cd394 O402 2.223 . S
Cd394 O404 2.297 . S
Cd394 O405 2.439 . S
O395 Cd394 2.240 . S
O395 C400 1.279 . S
O396 Cd393 2.297 . S
O396 C398 1.247 . S
O397 Cd393 2.439 . S
O397 C398 1.208 . S
C398 O396 1.247 . S
C398 O397 1.208 . S
C399 O404 1.247 . S
C399 O405 1.208 . S
C400 O392 1.315 . S
C400 O395 1.279 . S
C401 O402 1.315 . S
C401 O403 1.279 . S
O402 Cd394 2.223 . S
O402 C401 1.315 . S
O403 Cd393 2.240 . S
O403 C401 1.279 . S
O404 Cd394 2.297 . S
O404 C399 1.247 . S
O405 Cd394 2.439 . S
O405 C399 1.208 . S
O406 Cd407 2.223 . S
O406 C414 1.315 . S
Cd407 O406 2.223 . S
Cd407 O410 2.297 . S
Cd407 O411 2.439 . S
Cd407 O417 2.240 . S
Cd408 O409 2.240 . S
Cd408 O416 2.223 . S
Cd408 O418 2.297 . S
Cd408 O419 2.439 . S
O409 Cd408 2.240 . S
O409 C414 1.279 . S
O410 Cd407 2.297 . S
O410 C412 1.247 . S
O411 Cd407 2.439 . S
O411 C412 1.208 . S
C412 O410 1.247 . S
C412 O411 1.208 . S
C413 O418 1.247 . S
C413 O419 1.208 . S
C414 O406 1.315 . S
C414 O409 1.279 . S
C415 O416 1.315 . S
C415 O417 1.279 . S
O416 Cd408 2.223 . S
O416 C415 1.315 . S
O417 Cd407 2.240 . S
O417 C415 1.279 . S
O418 Cd408 2.297 . S
O418 C413 1.247 . S
O419 Cd408 2.439 . S
O419 C413 1.208 . S
O420 Cd421 2.223 . S
O420 C428 1.315 . S
Cd421 O420 2.223 . S
Cd421 O424 2.297 . S
Cd421 O425 2.439 . S
Cd421 O431 2.240 . S
Cd422 O423 2.240 . S
Cd422 O430 2.223 . S
Cd422 O432 2.297 . S
Cd422 O433 2.439 . S
O423 Cd422 2.240 . S
O423 C428 1.279 . S
O424 Cd421 2.297 . S
O424 C426 1.247 . S
O425 Cd421 2.439 . S
O425 C426 1.208 . S
C426 O424 1.247 . S
C426 O425 1.208 . S
C427 O432 1.247 . S
C427 O433 1.208 . S
C428 O420 1.315 . S
C428 O423 1.279 . S
C429 O430 1.315 . S
C429 O431 1.279 . S
O430 Cd422 2.223 . S
O430 C429 1.315 . S
O431 Cd421 2.240 . S
O431 C429 1.279 . S
O432 Cd422 2.297 . S
O432 C427 1.247 . S
O433 Cd422 2.439 . S
O433 C427 1.208 . S
O434 Cd435 2.223 . S
O434 C442 1.315 . S
Cd435 O434 2.223 . S
Cd435 O438 2.297 . S
Cd435 O439 2.439 . S
Cd435 O445 2.240 . S
Cd436 O437 2.240 . S
Cd436 O444 2.223 . S
Cd436 O446 2.297 . S
Cd436 O447 2.439 . S
O437 Cd436 2.240 . S
O437 C442 1.279 . S
O438 Cd435 2.297 . S
O438 C440 1.247 . S
O439 Cd435 2.439 . S
O439 C440 1.208 . S
C440 O438 1.247 . S
C440 O439 1.208 . S
C441 O446 1.247 . S
C441 O447 1.208 . S
C442 O434 1.315 . S
C442 O437 1.279 . S
C443 O444 1.315 . S
C443 O445 1.279 . S
O444 Cd436 2.223 . S
O444 C443 1.315 . S
O445 Cd435 2.240 . S
O445 C443 1.279 . S
O446 Cd436 2.297 . S
O446 C441 1.247 . S
O447 Cd436 2.439 . S
O447 C441 1.208 . S
O448 Cd449 2.223 . S
O448 C456 1.315 . S
Cd449 O448 2.223 . S
Cd449 O452 2.297 . S
Cd449 O453 2.439 . S
Cd449 O459 2.240 . S
Cd450 O451 2.240 . S
Cd450 O458 2.223 . S
Cd450 O460 2.297 . S
Cd450 O461 2.439 . S
O451 Cd450 2.240 . S
O451 C456 1.279 . S
O452 Cd449 2.297 . S
O452 C454 1.247 . S
O453 Cd449 2.439 . S
O453 C454 1.208 . S
C454 O452 1.247 . S
C454 O453 1.208 . S
C455 O460 1.247 . S
C455 O461 1.208 . S
C456 O448 1.315 . S
C456 O451 1.279 . S
C457 O458 1.315 . S
C457 O459 1.279 . S
O458 Cd450 2.223 . S
O458 C457 1.315 . S
O459 Cd449 2.240 . S
O459 C457 1.279 . S
O460 Cd450 2.297 . S
O460 C455 1.247 . S
O461 Cd450 2.439 . S
O461 C455 1.208 . S
O462 Cd463 2.223 . S
O462 C470 1.315 . S
Cd463 O462 2.223 . S
Cd463 O466 2.297 . S
Cd463 O467 2.439 . S
Cd463 O473 2.240 . S
Cd464 O465 2.240 . S
Cd464 O472 2.223 . S
Cd464 O474 2.297 . S
Cd464 O475 2.439 . S
O465 Cd464 2.240 . S
O465 C470 1.279 . S
O466 Cd463 2.297 . S
O466 C468 1.247 . S
O467 Cd463 2.439 . S
O467 C468 1.208 . S
C468 O466 1.247 . S
C468 O467 1.208 . S
C469 O474 1.247 . S
C469 O475 1.208 . S
C470 O462 1.315 . S
C470 O465 1.279 . S
C471 O472 1.315 . S
C471 O473 1.279 . S
O472 Cd464 2.223 . S
O472 C471 1.315 . S
O473 Cd463 2.240 . S
O473 C471 1.279 . S
O474 Cd464 2.297 . S
O474 C469 1.247 . S
O475 Cd464 2.439 . S
O475 C469 1.208 . S
O476 Cd477 2.223 . S
O476 C484 1.315 . S
Cd477 O476 2.223 . S
Cd477 O480 2.297 . S
Cd477 O481 2.439 . S
Cd477 O487 2.240 . S
Cd478 O479 2.240 . S
Cd478 O486 2.223 . S
Cd478 O488 2.297 . S
Cd478 O489 2.439 . S
O479 Cd478 2.240 . S
O479 C484 1.279 . S
O480 Cd477 2.297 . S
O480 C482 1.247 . S
O481 Cd477 2.439 . S
O481 C482 1.208 . S
C482 O480 1.247 . S
C482 O481 1.208 . S
C483 O488 1.247 . S
C483 O489 1.208 . S
C484 O476 1.315 . S
C484 O479 1.279 . S
C485 O486 1.315 . S
C485 O487 1.279 . S
O486 Cd478 2.223 . S
O486 C485 1.315 . S
O487 Cd477 2.240 . S
O487 C485 1.279 . S
O488 Cd478 2.297 . S
O488 C483 1.247 . S
O489 Cd478 2.439 . S
O489 C483 1.208 . S
O490 Cd491 2.223 . S
O490 C498 1.315 . S
Cd491 O490 2.223 . S
Cd491 O494 2.297 . S
Cd491 O495 2.439 . S
Cd491 O501 2.240 . S
Cd492 O493 2.240 . S
Cd492 O500 2.223 . S
Cd492 O502 2.297 . S
Cd492 O503 2.439 . S
O493 Cd492 2.240 . S
O493 C498 1.279 . S
O494 Cd491 2.297 . S
O494 C496 1.247 . S
O495 Cd491 2.439 . S
O495 C496 1.208 . S
C496 O494 1.247 . S
C496 O495 1.208 . S
C497 O502 1.247 . S
C497 O503 1.208 . S
C498 O490 1.315 . S
C498 O493 1.279 . S
C499 O500 1.315 . S
C499 O501 1.279 . S
O500 Cd492 2.223 . S
O500 C499 1.315 . S
O501 Cd491 2.240 . S
O501 C499 1.279 . S
O502 Cd492 2.297 . S
O502 C497 1.247 . S
O503 Cd492 2.439 . S
O503 C497 1.208 . S
O504 Cd505 2.223 . S
O504 C512 1.315 . S
Cd505 O504 2.223 . S
Cd505 O508 2.297 . S
Cd505 O509 2.439 . S
Cd505 O515 2.240 . S
Cd506 O507 2.240 . S
Cd506 O514 2.223 . S
Cd506 O516 2.297 . S
Cd506 O517 2.439 . S
O507 Cd506 2.240 . S
O507 C512 1.279 . S
O508 Cd505 2.297 . S
O508 C510 1.247 . S
O509 Cd505 2.439 . S
O509 C510 1.208 . S
C510 O508 1.247 . S
C510 O509 1.208 . S
C511 O516 1.247 . S
C511 O517 1.208 . S
C512 O504 1.315 . S
C512 O507 1.279 . S
C513 O514 1.315 . S
C513 O515 1.279 . S
O514 Cd506 2.223 . S
O514 C513 1.315 . S
O515 Cd505 2.240 . S
O515 C513 1.279 . S
O516 Cd506 2.297 . S
O516 C511 1.247 . S
O517 Cd506 2.439 . S
O517 C511 1.208 . S
O518 Cd519 2.223 . S
O518 C526 1.315 . S
Cd519 O518 2.223 . S
Cd519 O522 2.297 . S
Cd519 O523 2.439 . S
Cd519 O529 2.240 1_556 S
Cd520 O521 2.243 . S
Cd520 O528 2.223 . S
Cd520 O530 2.297 . S
Cd520 O531 2.439 . S
O521 Cd520 2.243 . S
O521 C526 1.279 1_554 S
O522 Cd519 2.297 . S
O522 C524 1.247 . S
O523 Cd519 2.439 . S
O523 C524 1.208 . S
C524 O522 1.247 . S
C524 O523 1.208 . S
C525 O530 1.247 . S
C525 O531 1.208 . S
C526 O518 1.315 . S
C526 O521 1.279 1_556 S
C527 O528 1.315 . S
C527 O529 1.279 . S
O528 Cd520 2.223 . S
O528 C527 1.315 . S
O529 Cd519 2.240 1_554 S
O529 C527 1.279 . S
O530 Cd520 2.297 . S
O530 C525 1.247 . S
O531 Cd520 2.439 . S
O531 C525 1.208 . S
O532 Cd533 2.223 . S
O532 C540 1.315 . S
Cd533 O532 2.223 . S
Cd533 O536 2.297 . S
Cd533 O537 2.439 . S
Cd533 O543 2.240 . S
Cd534 O535 2.240 . S
Cd534 O542 2.223 . S
Cd534 O544 2.297 . S
Cd534 O545 2.439 . S
O535 Cd534 2.240 . S
O535 C540 1.279 . S
O536 Cd533 2.297 . S
O536 C538 1.247 . S
O537 Cd533 2.439 . S
O537 C538 1.208 . S
C538 O536 1.247 . S
C538 O537 1.208 . S
C539 O544 1.247 . S
C539 O545 1.208 . S
C540 O532 1.315 . S
C540 O535 1.279 . S
C541 O542 1.315 . S
C541 O543 1.279 . S
O542 Cd534 2.223 . S
O542 C541 1.315 . S
O543 Cd533 2.240 . S
O543 C541 1.279 . S
O544 Cd534 2.297 . S
O544 C539 1.247 . S
O545 Cd534 2.439 . S
O545 C539 1.208 . S
O546 Cd547 2.223 . S
O546 C554 1.315 . S
Cd547 O546 2.223 . S
Cd547 O550 2.297 . S
Cd547 O551 2.439 . S
Cd547 O557 2.240 . S
Cd548 O549 2.240 . S
Cd548 O556 2.223 . S
Cd548 O558 2.297 . S
Cd548 O559 2.439 . S
O549 Cd548 2.240 . S
O549 C554 1.279 . S
O550 Cd547 2.297 . S
O550 C552 1.247 . S
O551 Cd547 2.439 . S
O551 C552 1.208 . S
C552 O550 1.247 . S
C552 O551 1.208 . S
C553 O558 1.247 . S
C553 O559 1.208 . S
C554 O546 1.315 . S
C554 O549 1.279 . S
C555 O556 1.315 . S
C555 O557 1.279 . S
O556 Cd548 2.223 . S
O556 C555 1.315 . S
O557 Cd547 2.240 . S
O557 C555 1.279 . S
O558 Cd548 2.297 . S
O558 C553 1.247 . S
O559 Cd548 2.439 . S
O559 C553 1.208 . S
O560 Cd561 2.223 . S
O560 C568 1.315 . S
Cd561 O560 2.223 . S
Cd561 O564 2.297 . S
Cd561 O565 2.439 . S
Cd561 O571 2.240 . S
Cd562 O563 2.240 . S
Cd562 O570 2.223 . S
Cd562 O572 2.297 . S
Cd562 O573 2.439 . S
O563 Cd562 2.240 . S
O563 C568 1.279 . S
O564 Cd561 2.297 . S
O564 C566 1.247 . S
O565 Cd561 2.439 . S
O565 C566 1.208 . S
C566 O564 1.247 . S
C566 O565 1.208 . S
C567 O572 1.247 . S
C567 O573 1.208 . S
C568 O560 1.315 . S
C568 O563 1.279 . S
C569 O570 1.315 . S
C569 O571 1.279 . S
O570 Cd562 2.223 . S
O570 C569 1.315 . S
O571 Cd561 2.240 . S
O571 C569 1.279 . S
O572 Cd562 2.297 . S
O572 C567 1.247 . S
O573 Cd562 2.439 . S
O573 C567 1.208 . S
O574 Cd575 2.223 . S
O574 C582 1.315 . S
Cd575 O574 2.223 . S
Cd575 O578 2.297 . S
Cd575 O579 2.439 . S
Cd575 O585 2.240 . S
Cd576 O577 2.240 . S
Cd576 O584 2.223 . S
Cd576 O586 2.297 . S
Cd576 O587 2.439 . S
O577 Cd576 2.240 . S
O577 C582 1.279 . S
O578 Cd575 2.297 . S
O578 C580 1.247 . S
O579 Cd575 2.439 . S
O579 C580 1.208 . S
C580 O578 1.247 . S
C580 O579 1.208 . S
C581 O586 1.247 . S
C581 O587 1.208 . S
C582 O574 1.315 . S
C582 O577 1.279 . S
C583 O584 1.315 . S
C583 O585 1.279 . S
O584 Cd576 2.223 . S
O584 C583 1.315 . S
O585 Cd575 2.240 . S
O585 C583 1.279 . S
O586 Cd576 2.297 . S
O586 C581 1.247 . S
O587 Cd576 2.439 . S
O587 C581 1.208 . S
O588 Cd589 2.223 . S
O588 C596 1.315 . S
Cd589 O588 2.223 . S
Cd589 O592 2.297 . S
Cd589 O593 2.439 . S
Cd589 O599 2.240 . S
Cd590 O591 2.240 . S
Cd590 O598 2.223 . S
Cd590 O600 2.297 . S
Cd590 O601 2.439 . S
O591 Cd590 2.240 . S
O591 C596 1.279 . S
O592 Cd589 2.297 . S
O592 C594 1.247 . S
O593 Cd589 2.439 . S
O593 C594 1.208 . S
C594 O592 1.247 . S
C594 O593 1.208 . S
C595 O600 1.247 . S
C595 O601 1.208 . S
C596 O588 1.315 . S
C596 O591 1.279 . S
C597 O598 1.315 . S
C597 O599 1.279 . S
O598 Cd590 2.223 . S
O598 C597 1.315 . S
O599 Cd589 2.240 . S
O599 C597 1.279 . S
O600 Cd590 2.297 . S
O600 C595 1.247 . S
O601 Cd590 2.439 . S
O601 C595 1.208 . S
O602 Cd603 2.223 . S
O602 C610 1.315 . S
Cd603 O602 2.223 . S
Cd603 O606 2.297 . S
Cd603 O607 2.439 . S
Cd603 O613 2.240 . S
Cd604 O605 2.240 . S
Cd604 O612 2.223 . S
Cd604 O614 2.297 . S
Cd604 O615 2.439 . S
O605 Cd604 2.240 . S
O605 C610 1.279 . S
O606 Cd603 2.297 . S
O606 C608 1.247 . S
O607 Cd603 2.439 . S
O607 C608 1.208 . S
C608 O606 1.247 . S
C608 O607 1.208 . S
C609 O614 1.247 . S
C609 O615 1.208 . S
C610 O602 1.315 . S
C610 O605 1.279 . S
C611 O612 1.315 . S
C611 O613 1.279 . S
O612 Cd604 2.223 . S
O612 C611 1.315 . S
O613 Cd603 2.240 . S
O613 C611 1.279 . S
O614 Cd604 2.297 . S
O614 C609 1.247 . S
O615 Cd604 2.439 . S
O615 C609 1.208 . S
O616 Cd617 2.223 . S
O616 C624 1.315 . S
Cd617 O616 2.223 . S
Cd617 O620 2.297 . S
Cd617 O621 2.439 . S
Cd617 O627 2.240 . S
Cd618 O619 2.240 . S
Cd618 O626 2.223 . S
Cd618 O628 2.297 . S
Cd618 O629 2.439 . S
O619 Cd618 2.240 . S
O619 C624 1.279 . S
O620 Cd617 2.297 . S
O620 C622 1.247 . S
O621 Cd617 2.439 . S
O621 C622 1.208 . S
C622 O620 1.247 . S
C622 O621 1.208 . S
C623 O628 1.247 . S
C623 O629 1.208 . S
C624 O616 1.315 . S
C624 O619 1.279 . S
C625 O626 1.315 . S
C625 O627 1.279 . S
O626 Cd618 2.223 . S
O626 C625 1.315 . S
O627 Cd617 2.240 . S
O627 C625 1.279 . S
O628 Cd618 2.297 . S
O628 C623 1.247 . S
O629 Cd618 2.439 . S
O629 C623 1.208 . S
O630 Cd631 2.223 1_556 S
O630 C638 1.315 . S
Cd631 O630 2.223 1_554 S
Cd631 O634 2.297 1_554 S
Cd631 O635 2.439 1_554 S
Cd631 O641 2.240 . S
Cd632 O633 2.240 . S
Cd632 O640 2.223 1_556 S
Cd632 O642 2.297 1_556 S
Cd632 O643 2.439 1_556 S
O633 Cd632 2.240 . S
O633 C638 1.279 . S
O634 Cd631 2.297 1_556 S
O634 C636 1.247 . S
O635 Cd631 2.439 1_556 S
O635 C636 1.208 . S
C636 O634 1.247 . S
C636 O635 1.208 . S
C637 O642 1.247 . S
C637 O643 1.208 . S
C638 O630 1.315 . S
C638 O633 1.279 . S
C639 O640 1.315 . S
C639 O641 1.279 . S
O640 Cd632 2.223 1_554 S
O640 C639 1.315 . S
O641 Cd631 2.240 . S
O641 C639 1.279 . S
O642 Cd632 2.297 1_554 S
O642 C637 1.247 . S
O643 Cd632 2.439 1_554 S
O643 C637 1.208 . S
O644 Cd645 2.223 . S
O644 C652 1.315 . S
Cd645 O644 2.223 . S
Cd645 O648 2.297 . S
Cd645 O649 2.439 . S
Cd645 O655 2.240 1_565 S
Cd646 O647 2.243 . S
Cd646 O654 2.223 . S
Cd646 O656 2.297 . S
Cd646 O657 2.439 . S
O647 Cd646 2.243 . S
O647 C652 1.279 1_545 S
O648 Cd645 2.297 . S
O648 C650 1.247 . S
O649 Cd645 2.439 . S
O649 C650 1.208 . S
C650 O648 1.247 . S
C650 O649 1.208 . S
C651 O656 1.247 . S
C651 O657 1.208 . S
C652 O644 1.315 . S
C652 O647 1.279 1_565 S
C653 O654 1.315 . S
C653 O655 1.279 . S
O654 Cd646 2.223 . S
O654 C653 1.315 . S
O655 Cd645 2.240 1_545 S
O655 C653 1.279 . S
O656 Cd646 2.297 . S
O656 C651 1.247 . S
O657 Cd646 2.439 . S
O657 C651 1.208 . S
O658 Cd659 2.223 . S
O658 C666 1.315 . S
Cd659 O658 2.223 . S
Cd659 O662 2.297 . S
Cd659 O663 2.439 . S
Cd659 O669 2.240 . S
Cd660 O661 2.240 . S
Cd660 O668 2.223 . S
Cd660 O670 2.297 . S
Cd660 O671 2.439 . S
O661 Cd660 2.240 . S
O661 C666 1.279 . S
O662 Cd659 2.297 . S
O662 C664 1.247 . S
O663 Cd659 2.439 . S
O663 C664 1.208 . S
C664 O662 1.247 . S
C664 O663 1.208 . S
C665 O670 1.247 . S
C665 O671 1.208 . S
C666 O658 1.315 . S
C666 O661 1.279 . S
C667 O668 1.315 . S
C667 O669 1.279 . S
O668 Cd660 2.223 . S
O668 C667 1.315 . S
O669 Cd659 2.240 . S
O669 C667 1.279 . S
O670 Cd660 2.297 . S
O670 C665 1.247 . S
O671 Cd660 2.439 . S
O671 C665 1.208 . S
C672 C673 1.363 . S
C672 C678 1.379 . S
C672 N680 1.356 . S
C673 C672 1.363 . S
C673 C679 1.363 . S
C674 C675 1.363 . S
C674 C679 1.379 . S
C674 N681 1.356 . S
C675 C674 1.363 . S
C675 C678 1.363 . S
N676 C678 1.356 . S
N676 H688 0.984 . S
N676 H689 0.985 . S
N677 C679 1.356 . S
N677 H682 0.984 . S
N677 H683 0.985 . S
C678 C672 1.379 . S
C678 C675 1.363 . S
C678 N676 1.356 . S
C679 C673 1.363 . S
C679 C674 1.379 . S
C679 N677 1.356 . S
N680 C672 1.356 . S
N680 H686 0.984 . S
N680 H687 0.984 . S
N681 C674 1.356 . S
N681 H684 0.984 . S
N681 H685 0.985 . S
H682 N677 0.984 . S
H683 N677 0.985 . S
H684 N681 0.984 . S
H685 N681 0.985 . S
H686 N680 0.984 . S
H687 N680 0.984 . S
H688 N676 0.984 . S
H689 N676 0.985 . S
C690 C691 1.363 . S
C690 C696 1.379 . S
C690 N698 1.356 . S
C691 C690 1.363 . S
C691 C697 1.363 . S
C692 C693 1.363 . S
C692 C697 1.379 . S
C692 N699 1.356 . S
C693 C692 1.363 . S
C693 C696 1.363 . S
N694 C696 1.356 . S
N694 H706 0.984 . S
N694 H707 0.985 . S
N695 C697 1.356 . S
N695 H700 0.984 . S
N695 H701 0.985 . S
C696 C690 1.379 . S
C696 C693 1.363 . S
C696 N694 1.356 . S
C697 C691 1.363 . S
C697 C692 1.379 . S
C697 N695 1.356 . S
N698 C690 1.356 . S
N698 H704 0.984 . S
N698 H705 0.984 . S
N699 C692 1.356 . S
N699 H702 0.984 . S
N699 H703 0.985 . S
H700 N695 0.984 . S
H701 N695 0.985 . S
H702 N699 0.984 . S
H703 N699 0.985 . S
H704 N698 0.984 . S
H705 N698 0.984 . S
H706 N694 0.984 . S
H707 N694 0.985 . S
C708 C709 1.363 . S
C708 C714 1.379 . S
C708 N716 1.356 . S
C709 C708 1.363 . S
C709 C715 1.363 . S
C710 C711 1.363 . S
C710 C715 1.379 . S
C710 N717 1.356 . S
C711 C710 1.363 . S
C711 C714 1.363 . S
N712 C714 1.356 . S
N712 H724 0.984 . S
N712 H725 0.985 . S
N713 C715 1.356 . S
N713 H718 0.984 . S
N713 H719 0.985 . S
C714 C708 1.379 . S
C714 C711 1.363 . S
C714 N712 1.356 . S
C715 C709 1.363 . S
C715 C710 1.379 . S
C715 N713 1.356 . S
N716 C708 1.356 . S
N716 H722 0.984 . S
N716 H723 0.984 . S
N717 C710 1.356 . S
N717 H720 0.984 . S
N717 H721 0.985 . S
H718 N713 0.984 . S
H719 N713 0.985 . S
H720 N717 0.984 . S
H721 N717 0.985 . S
H722 N716 0.984 . S
H723 N716 0.984 . S
H724 N712 0.984 . S
H725 N712 0.985 . S
C726 C727 1.363 . S
C726 C732 1.379 . S
C726 N734 1.356 1_554 S
C727 C726 1.363 . S
C727 C733 1.363 . S
C728 C729 1.363 . S
C728 C733 1.379 . S
C728 N735 1.356 . S
C729 C728 1.363 . S
C729 C732 1.363 . S
N730 C732 1.356 1_556 S
N730 H742 0.984 . S
N730 H743 0.985 . S
N731 C733 1.356 . S
N731 H736 0.984 . S
N731 H737 0.985 . S
C732 C726 1.379 . S
C732 C729 1.363 . S
C732 N730 1.356 1_554 S
C733 C727 1.363 . S
C733 C728 1.379 . S
C733 N731 1.356 . S
N734 C726 1.356 1_556 S
N734 H740 0.984 . S
N734 H741 0.984 . S
N735 C728 1.356 . S
N735 H738 0.984 . S
N735 H739 0.985 . S
H736 N731 0.984 . S
H737 N731 0.985 . S
H738 N735 0.984 . S
H739 N735 0.985 . S
H740 N734 0.984 . S
H741 N734 0.984 . S
H742 N730 0.984 . S
H743 N730 0.985 . S
C744 C745 1.363 . S
C744 C750 1.379 . S
C744 N752 1.356 . S
C745 C744 1.363 . S
C745 C751 1.363 . S
C746 C747 1.363 . S
C746 C751 1.379 . S
C746 N753 1.356 . S
C747 C746 1.363 . S
C747 C750 1.363 . S
N748 C750 1.356 . S
N748 H760 0.984 . S
N748 H761 0.985 . S
N749 C751 1.356 . S
N749 H754 0.984 . S
N749 H755 0.985 . S
C750 C744 1.379 . S
C750 C747 1.363 . S
C750 N748 1.356 . S
C751 C745 1.363 . S
C751 C746 1.379 . S
C751 N749 1.356 . S
N752 C744 1.356 . S
N752 H758 0.984 . S
N752 H759 0.984 . S
N753 C746 1.356 . S
N753 H756 0.984 . S
N753 H757 0.985 . S
H754 N749 0.984 . S
H755 N749 0.985 . S
H756 N753 0.984 . S
H757 N753 0.985 . S
H758 N752 0.984 . S
H759 N752 0.984 . S
H760 N748 0.984 . S
H761 N748 0.985 . S
C762 C763 1.363 . S
C762 C768 1.379 . S
C762 N770 1.356 . S
C763 C762 1.363 . S
C763 C769 1.363 . S
C764 C765 1.363 . S
C764 C769 1.379 . S
C764 N771 1.356 . S
C765 C764 1.363 . S
C765 C768 1.363 . S
N766 C768 1.356 . S
N766 H778 0.984 . S
N766 H779 0.985 . S
N767 C769 1.356 . S
N767 H772 0.984 . S
N767 H773 0.985 . S
C768 C762 1.379 . S
C768 C765 1.363 . S
C768 N766 1.356 . S
C769 C763 1.363 . S
C769 C764 1.379 . S
C769 N767 1.356 . S
N770 C762 1.356 . S
N770 H776 0.984 . S
N770 H777 0.984 . S
N771 C764 1.356 . S
N771 H774 0.984 . S
N771 H775 0.985 . S
H772 N767 0.984 . S
H773 N767 0.985 . S
H774 N771 0.984 . S
H775 N771 0.985 . S
H776 N770 0.984 . S
H777 N770 0.984 . S
H778 N766 0.984 . S
H779 N766 0.985 . S
C780 C781 1.363 . S
C780 C786 1.379 . S
C780 N788 1.356 . S
C781 C780 1.363 . S
C781 C787 1.363 . S
C782 C783 1.363 . S
C782 C787 1.379 . S
C782 N789 1.356 . S
C783 C782 1.363 . S
C783 C786 1.363 . S
N784 C786 1.356 . S
N784 H796 0.984 . S
N784 H797 0.985 . S
N785 C787 1.356 . S
N785 H790 0.984 . S
N785 H791 0.985 . S
C786 C780 1.379 . S
C786 C783 1.363 . S
C786 N784 1.356 . S
C787 C781 1.363 . S
C787 C782 1.379 . S
C787 N785 1.356 . S
N788 C780 1.356 . S
N788 H794 0.984 . S
N788 H795 0.984 . S
N789 C782 1.356 . S
N789 H792 0.984 . S
N789 H793 0.985 . S
H790 N785 0.984 . S
H791 N785 0.985 . S
H792 N789 0.984 . S
H793 N789 0.985 . S
H794 N788 0.984 . S
H795 N788 0.984 . S
H796 N784 0.984 . S
H797 N784 0.985 . S
C798 C799 1.363 . S
C798 C804 1.379 . S
C798 N806 1.356 . S
C799 C798 1.363 . S
C799 C805 1.363 . S
C800 C801 1.363 . S
C800 C805 1.379 . S
C800 N807 1.356 . S
C801 C800 1.363 . S
C801 C804 1.363 . S
N802 C804 1.356 . S
N802 H814 0.984 . S
N802 H815 0.985 . S
N803 C805 1.356 . S
N803 H808 0.984 . S
N803 H809 0.985 . S
C804 C798 1.379 . S
C804 C801 1.363 . S
C804 N802 1.356 . S
C805 C799 1.363 . S
C805 C800 1.379 . S
C805 N803 1.356 . S
N806 C798 1.356 . S
N806 H812 0.984 . S
N806 H813 0.984 . S
N807 C800 1.356 . S
N807 H810 0.984 . S
N807 H811 0.985 . S
H808 N803 0.984 . S
H809 N803 0.985 . S
H810 N807 0.984 . S
H811 N807 0.985 . S
H812 N806 0.984 . S
H813 N806 0.984 . S
H814 N802 0.984 . S
H815 N802 0.985 . S
C816 C817 1.363 . S
C816 C822 1.379 . S
C816 N824 1.356 . S
C817 C816 1.363 . S
C817 C823 1.363 . S
C818 C819 1.363 . S
C818 C823 1.379 . S
C818 N825 1.356 . S
C819 C818 1.363 . S
C819 C822 1.363 . S
N820 C822 1.356 . S
N820 H832 0.984 . S
N820 H833 0.985 . S
N821 C823 1.356 . S
N821 H826 0.984 . S
N821 H827 0.985 . S
C822 C816 1.379 . S
C822 C819 1.363 . S
C822 N820 1.356 . S
C823 C817 1.363 . S
C823 C818 1.379 . S
C823 N821 1.356 . S
N824 C816 1.356 . S
N824 H830 0.984 . S
N824 H831 0.984 . S
N825 C818 1.356 . S
N825 H828 0.984 . S
N825 H829 0.985 . S
H826 N821 0.984 . S
H827 N821 0.985 . S
H828 N825 0.984 . S
H829 N825 0.985 . S
H830 N824 0.984 . S
H831 N824 0.984 . S
H832 N820 0.984 . S
H833 N820 0.985 . S
C834 C835 1.363 . S
C834 C840 1.379 . S
C834 N842 1.356 . S
C835 C834 1.363 . S
C835 C841 1.363 . S
C836 C837 1.363 . S
C836 C841 1.379 . S
C836 N843 1.356 1_545 S
C837 C836 1.363 . S
C837 C840 1.363 . S
N838 C840 1.356 . S
N838 H850 0.984 . S
N838 H851 0.985 . S
N839 C841 1.356 1_565 S
N839 H844 0.984 . S
N839 H845 0.985 . S
C840 C834 1.379 . S
C840 C837 1.363 . S
C840 N838 1.356 . S
C841 C835 1.363 . S
C841 C836 1.379 . S
C841 N839 1.356 1_545 S
N842 C834 1.356 . S
N842 H848 0.984 . S
N842 H849 0.984 . S
N843 C836 1.356 1_565 S
N843 H846 0.984 . S
N843 H847 0.985 . S
H844 N839 0.984 . S
H845 N839 0.985 . S
H846 N843 0.984 . S
H847 N843 0.985 . S
H848 N842 0.984 . S
H849 N842 0.984 . S
H850 N838 0.984 . S
H851 N838 0.985 . S
C852 C853 1.363 . S
C852 C858 1.379 . S
C852 N860 1.356 . S
C853 C852 1.363 . S
C853 C859 1.363 . S
C854 C855 1.363 . S
C854 C859 1.379 . S
C854 N861 1.356 . S
C855 C854 1.363 . S
C855 C858 1.363 . S
N856 C858 1.356 . S
N856 H868 0.984 . S
N856 H869 0.985 . S
N857 C859 1.356 . S
N857 H862 0.984 . S
N857 H863 0.985 . S
C858 C852 1.379 . S
C858 C855 1.363 . S
C858 N856 1.356 . S
C859 C853 1.363 . S
C859 C854 1.379 . S
C859 N857 1.356 . S
N860 C852 1.356 . S
N860 H866 0.984 . S
N860 H867 0.984 . S
N861 C854 1.356 . S
N861 H864 0.984 . S
N861 H865 0.985 . S
H862 N857 0.984 . S
H863 N857 0.985 . S
H864 N861 0.984 . S
H865 N861 0.985 . S
H866 N860 0.984 . S
H867 N860 0.984 . S
H868 N856 0.984 . S
H869 N856 0.985 . S
C870 C871 1.363 . S
C870 C876 1.379 . S
C870 N878 1.356 . S
C871 C870 1.363 . S
C871 C877 1.363 . S
C872 C873 1.363 . S
C872 C877 1.379 . S
C872 N879 1.356 . S
C873 C872 1.363 . S
C873 C876 1.363 . S
N874 C876 1.356 . S
N874 H886 0.984 . S
N874 H887 0.985 . S
N875 C877 1.356 . S
N875 H880 0.984 . S
N875 H881 0.985 . S
C876 C870 1.379 . S
C876 C873 1.363 . S
C876 N874 1.356 . S
C877 C871 1.363 . S
C877 C872 1.379 . S
C877 N875 1.356 . S
N878 C870 1.356 . S
N878 H884 0.984 . S
N878 H885 0.984 . S
N879 C872 1.356 . S
N879 H882 0.984 . S
N879 H883 0.985 . S
H880 N875 0.984 . S
H881 N875 0.985 . S
H882 N879 0.984 . S
H883 N879 0.985 . S
H884 N878 0.984 . S
H885 N878 0.984 . S
H886 N874 0.984 . S
H887 N874 0.985 . S
C888 C889 1.363 . S
C888 C894 1.379 . S
C888 N896 1.356 . S
C889 C888 1.363 . S
C889 C895 1.363 . S
C890 C891 1.363 . S
C890 C895 1.379 . S
C890 N897 1.356 . S
C891 C890 1.363 . S
C891 C894 1.363 . S
N892 C894 1.356 . S
N892 H904 0.984 . S
N892 H905 0.985 . S
N893 C895 1.356 . S
N893 H898 0.984 . S
N893 H899 0.985 . S
C894 C888 1.379 . S
C894 C891 1.363 . S
C894 N892 1.356 . S
C895 C889 1.363 . S
C895 C890 1.379 . S
C895 N893 1.356 . S
N896 C888 1.356 . S
N896 H902 0.984 . S
N896 H903 0.984 . S
N897 C890 1.356 . S
N897 H900 0.984 . S
N897 H901 0.985 . S
H898 N893 0.984 . S
H899 N893 0.985 . S
H900 N897 0.984 . S
H901 N897 0.985 . S
H902 N896 0.984 . S
H903 N896 0.984 . S
H904 N892 0.984 . S
H905 N892 0.985 . S
C906 C907 1.363 . S
C906 C912 1.379 . S
C906 N914 1.356 . S
C907 C906 1.363 . S
C907 C913 1.363 . S
C908 C909 1.363 . S
C908 C913 1.379 . S
C908 N915 1.356 . S
C909 C908 1.363 . S
C909 C912 1.363 . S
N910 C912 1.356 . S
N910 H922 0.984 . S
N910 H923 0.985 . S
N911 C913 1.356 . S
N911 H916 0.984 . S
N911 H917 0.985 . S
C912 C906 1.379 . S
C912 C909 1.363 . S
C912 N910 1.356 . S
C913 C907 1.363 . S
C913 C908 1.379 . S
C913 N911 1.356 . S
N914 C906 1.356 . S
N914 H920 0.984 . S
N914 H921 0.984 . S
N915 C908 1.356 . S
N915 H918 0.984 . S
N915 H919 0.985 . S
H916 N911 0.984 . S
H917 N911 0.985 . S
H918 N915 0.984 . S
H919 N915 0.985 . S
H920 N914 0.984 . S
H921 N914 0.984 . S
H922 N910 0.984 . S
H923 N910 0.985 . S
C924 C925 1.363 . S
C924 C930 1.379 . S
C924 N932 1.356 1_455 S
C925 C924 1.363 . S
C925 C931 1.363 . S
C926 C927 1.363 . S
C926 C931 1.379 . S
C926 N933 1.356 . S
C927 C926 1.363 . S
C927 C930 1.363 . S
N928 C930 1.356 1_655 S
N928 H940 0.984 . S
N928 H941 0.992 . S
N929 C931 1.356 . S
N929 H934 0.984 . S
N929 H935 0.985 . S
C930 C924 1.379 . S
C930 C927 1.363 . S
C930 N928 1.356 1_455 S
C931 C925 1.363 . S
C931 C926 1.379 . S
C931 N929 1.356 . S
N932 C924 1.356 1_655 S
N932 H938 0.984 . S
N932 H939 0.975 1_655 S
N933 C926 1.356 . S
N933 H936 0.984 . S
N933 H937 0.985 . S
H934 N929 0.984 . S
H935 N929 0.985 . S
H936 N933 0.984 . S
H937 N933 0.985 . S
H938 N932 0.984 . S
H939 N932 0.975 1_455 S
H940 N928 0.984 . S
H941 N928 0.992 . S
C942 C943 1.363 . S
C942 C948 1.379 . S
C942 N950 1.356 . S
C943 C942 1.363 . S
C943 C949 1.363 . S
C944 C945 1.363 . S
C944 C949 1.379 . S
C944 N951 1.356 . S
C945 C944 1.363 . S
C945 C948 1.363 . S
N946 C948 1.356 . S
N946 H958 0.984 . S
N946 H959 0.985 . S
N947 C949 1.356 . S
N947 H952 0.984 . S
N947 H953 0.985 . S
C948 C942 1.379 . S
C948 C945 1.363 . S
C948 N946 1.356 . S
C949 C943 1.363 . S
C949 C944 1.379 . S
C949 N947 1.356 . S
N950 C942 1.356 . S
N950 H956 0.984 . S
N950 H957 0.984 . S
N951 C944 1.356 . S
N951 H954 0.984 . S
N951 H955 0.985 . S
H952 N947 0.984 . S
H953 N947 0.985 . S
H954 N951 0.984 . S
H955 N951 0.985 . S
H956 N950 0.984 . S
H957 N950 0.984 . S
H958 N946 0.984 . S
H959 N946 0.985 . S
C960 C961 1.363 . S
C960 C966 1.379 . S
C960 N968 1.356 . S
C961 C960 1.363 . S
C961 C967 1.363 . S
C962 C963 1.363 . S
C962 C967 1.379 . S
C962 N969 1.356 . S
C963 C962 1.363 . S
C963 C966 1.363 . S
N964 C966 1.356 . S
N964 H976 0.969 1_545 S
N964 H977 0.985 . S
N965 C967 1.356 . S
N965 H970 0.984 . S
N965 H971 0.985 . S
C966 C960 1.379 . S
C966 C963 1.363 . S
C966 N964 1.356 . S
C967 C961 1.363 . S
C967 C962 1.379 . S
C967 N965 1.356 . S
N968 C960 1.356 . S
N968 H974 0.969 1_545 S
N968 H975 0.984 . S
N969 C962 1.356 . S
N969 H972 0.984 . S
N969 H973 0.985 . S
H970 N965 0.984 . S
H971 N965 0.985 . S
H972 N969 0.984 . S
H973 N969 0.985 . S
H974 N968 0.969 1_565 S
H975 N968 0.984 . S
H976 N964 0.969 1_565 S
H977 N964 0.985 . S
C978 C979 1.363 . S
C978 C984 1.379 . S
C978 N986 1.356 . S
C979 C978 1.363 . S
C979 C985 1.363 . S
C980 C981 1.363 . S
C980 C985 1.379 . S
C980 N987 1.356 . S
C981 C980 1.363 . S
C981 C984 1.363 . S
N982 C984 1.356 . S
N982 H994 0.984 . S
N982 H995 0.985 . S
N983 C985 1.356 . S
N983 H988 0.984 . S
N983 H989 0.985 . S
C984 C978 1.379 . S
C984 C981 1.363 . S
C984 N982 1.356 . S
C985 C979 1.363 . S
C985 C980 1.379 . S
C985 N983 1.356 . S
N986 C978 1.356 . S
N986 H992 0.984 . S
N986 H993 0.984 . S
N987 C980 1.356 . S
N987 H990 0.984 . S
N987 H991 0.985 . S
H988 N983 0.984 . S
H989 N983 0.985 . S
H990 N987 0.984 . S
H991 N987 0.985 . S
H992 N986 0.984 . S
H993 N986 0.984 . S
H994 N982 0.984 . S
H995 N982 0.985 . S
C996 C997 1.363 . S
C996 C1002 1.379 . S
C996 N1004 1.356 . S
C997 C996 1.363 . S
C997 C1003 1.363 . S
C998 C999 1.363 . S
C998 C1003 1.379 . S
C998 N1005 1.356 . S
C999 C998 1.363 . S
C999 C1002 1.363 . S
N1000 C1002 1.356 . S
N1000 H1012 0.984 . S
N1000 H1013 0.985 . S
N1001 C1003 1.356 . S
N1001 H1006 0.984 . S
N1001 H1007 0.985 . S
C1002 C996 1.379 . S
C1002 C999 1.363 . S
C1002 N1000 1.356 . S
C1003 C997 1.363 . S
C1003 C998 1.379 . S
C1003 N1001 1.356 . S
N1004 C996 1.356 . S
N1004 H1010 0.984 . S
N1004 H1011 0.984 . S
N1005 C998 1.356 . S
N1005 H1008 0.984 . S
N1005 H1009 0.985 . S
H1006 N1001 0.984 . S
H1007 N1001 0.985 . S
H1008 N1005 0.984 . S
H1009 N1005 0.985 . S
H1010 N1004 0.984 . S
H1011 N1004 0.984 . S
H1012 N1000 0.984 . S
H1013 N1000 0.985 . S
C1014 C1015 1.363 . S
C1014 C1020 1.379 . S
C1014 N1022 1.356 . S
C1015 C1014 1.363 . S
C1015 C1021 1.363 . S
C1016 C1017 1.363 . S
C1016 C1021 1.379 . S
C1016 N1023 1.356 . S
C1017 C1016 1.363 . S
C1017 C1020 1.363 . S
N1018 C1020 1.356 . S
N1018 H1030 0.984 . S
N1018 H1031 0.985 . S
N1019 C1021 1.356 . S
N1019 H1024 0.984 . S
N1019 H1025 0.985 . S
C1020 C1014 1.379 . S
C1020 C1017 1.363 . S
C1020 N1018 1.356 . S
C1021 C1015 1.363 . S
C1021 C1016 1.379 . S
C1021 N1019 1.356 . S
N1022 C1014 1.356 . S
N1022 H1028 0.984 . S
N1022 H1029 0.984 . S
N1023 C1016 1.356 . S
N1023 H1026 0.984 . S
N1023 H1027 0.985 . S
H1024 N1019 0.984 . S
H1025 N1019 0.985 . S
H1026 N1023 0.984 . S
H1027 N1023 0.985 . S
H1028 N1022 0.984 . S
H1029 N1022 0.984 . S
H1030 N1018 0.984 . S
H1031 N1018 0.985 . S
C1032 C1033 1.363 . S
C1032 C1038 1.379 . S
C1032 N1040 1.356 . S
C1033 C1032 1.363 . S
C1033 C1039 1.363 . S
C1034 C1035 1.363 . S
C1034 C1039 1.379 . S
C1034 N1041 1.356 . S
C1035 C1034 1.363 . S
C1035 C1038 1.363 . S
N1036 C1038 1.356 . S
N1036 H1048 0.984 . S
N1036 H1049 0.985 . S
N1037 C1039 1.356 . S
N1037 H1042 0.984 . S
N1037 H1043 0.989 . S
C1038 C1032 1.379 . S
C1038 C1035 1.363 . S
C1038 N1036 1.356 . S
C1039 C1033 1.363 . S
C1039 C1034 1.379 . S
C1039 N1037 1.356 . S
N1040 C1032 1.356 . S
N1040 H1046 0.984 . S
N1040 H1047 0.984 . S
N1041 C1034 1.356 . S
N1041 H1044 0.984 . S
N1041 H1045 0.985 1_554 S
H1042 N1037 0.984 . S
H1043 N1037 0.989 . S
H1044 N1041 0.984 . S
H1045 N1041 0.985 1_556 S
H1046 N1040 0.984 . S
H1047 N1040 0.984 . S
H1048 N1036 0.984 . S
H1049 N1036 0.985 . S
C1050 C1051 1.363 . S
C1050 C1056 1.379 . S
C1050 N1058 1.356 . S
C1051 C1050 1.363 . S
C1051 C1057 1.363 . S
C1052 C1053 1.363 . S
C1052 C1057 1.379 . S
C1052 N1059 1.356 . S
C1053 C1052 1.363 . S
C1053 C1056 1.363 . S
N1054 C1056 1.356 . S
N1054 H1066 0.984 . S
N1054 H1067 0.985 . S
N1055 C1057 1.356 . S
N1055 H1060 0.984 . S
N1055 H1061 0.985 . S
C1056 C1050 1.379 . S
C1056 C1053 1.363 . S
C1056 N1054 1.356 . S
C1057 C1051 1.363 . S
C1057 C1052 1.379 . S
C1057 N1055 1.356 . S
N1058 C1050 1.356 . S
N1058 H1064 0.984 . S
N1058 H1065 0.984 . S
N1059 C1052 1.356 . S
N1059 H1062 0.984 . S
N1059 H1063 0.985 . S
H1060 N1055 0.984 . S
H1061 N1055 0.985 . S
H1062 N1059 0.984 . S
H1063 N1059 0.985 . S
H1064 N1058 0.984 . S
H1065 N1058 0.984 . S
H1066 N1054 0.984 . S
H1067 N1054 0.985 . S
C1068 C1069 1.363 . S
C1068 C1074 1.379 . S
C1068 N1076 1.356 . S
C1069 C1068 1.363 . S
C1069 C1075 1.363 . S
C1070 C1071 1.363 . S
C1070 C1075 1.379 . S
C1070 N1077 1.356 . S
C1071 C1070 1.363 . S
C1071 C1074 1.363 . S
N1072 C1074 1.356 . S
N1072 H1084 0.984 . S
N1072 H1085 0.985 . S
N1073 C1075 1.356 . S
N1073 H1078 0.984 . S
N1073 H1079 0.985 . S
C1074 C1068 1.379 . S
C1074 C1071 1.363 . S
C1074 N1072 1.356 . S
C1075 C1069 1.363 . S
C1075 C1070 1.379 . S
C1075 N1073 1.356 . S
N1076 C1068 1.356 . S
N1076 H1082 0.984 . S
N1076 H1083 0.984 . S
N1077 C1070 1.356 . S
N1077 H1080 0.984 . S
N1077 H1081 0.985 . S
H1078 N1073 0.984 . S
H1079 N1073 0.985 . S
H1080 N1077 0.984 . S
H1081 N1077 0.985 . S
H1082 N1076 0.984 . S
H1083 N1076 0.984 . S
H1084 N1072 0.984 . S
H1085 N1072 0.985 . S
C1086 C1087 1.363 . S
C1086 C1092 1.379 . S
C1086 N1094 1.356 . S
C1087 C1086 1.363 . S
C1087 C1093 1.363 . S
C1088 C1089 1.363 . S
C1088 C1093 1.379 . S
C1088 N1095 1.356 . S
C1089 C1088 1.363 . S
C1089 C1092 1.363 . S
N1090 C1092 1.356 . S
N1090 H1102 0.984 1_545 S
N1090 H1103 0.985 . S
N1091 C1093 1.356 . S
N1091 H1096 0.984 . S
N1091 H1097 0.985 . S
C1092 C1086 1.379 . S
C1092 C1089 1.363 . S
C1092 N1090 1.356 . S
C1093 C1087 1.363 . S
C1093 C1088 1.379 . S
C1093 N1091 1.356 . S
N1094 C1086 1.356 . S
N1094 H1100 0.984 1_545 S
N1094 H1101 0.984 . S
N1095 C1088 1.356 . S
N1095 H1098 0.984 . S
N1095 H1099 0.985 . S
H1096 N1091 0.984 . S
H1097 N1091 0.985 . S
H1098 N1095 0.984 . S
H1099 N1095 0.985 . S
H1100 N1094 0.984 1_565 S
H1101 N1094 0.984 . S
H1102 N1090 0.984 1_565 S
H1103 N1090 0.985 . S
C1104 C1105 1.363 . S
C1104 C1110 1.379 . S
C1104 N1112 1.356 . S
C1105 C1104 1.363 . S
C1105 C1111 1.363 . S
C1106 C1107 1.363 . S
C1106 C1111 1.379 . S
C1106 N1113 1.356 . S
C1107 C1106 1.363 . S
C1107 C1110 1.363 . S
N1108 C1110 1.356 . S
N1108 H1120 0.984 . S
N1108 H1121 0.985 1_655 S
N1109 C1111 1.356 . S
N1109 H1114 0.984 . S
N1109 H1115 0.985 . S
C1110 C1104 1.379 . S
C1110 C1107 1.363 . S
C1110 N1108 1.356 . S
C1111 C1105 1.363 . S
C1111 C1106 1.379 . S
C1111 N1109 1.356 . S
N1112 C1104 1.356 . S
N1112 H1118 0.984 . S
N1112 H1119 0.984 . S
N1113 C1106 1.356 . S
N1113 H1116 0.984 1_655 S
N1113 H1117 0.985 . S
H1114 N1109 0.984 . S
H1115 N1109 0.985 . S
H1116 N1113 0.984 1_455 S
H1117 N1113 0.985 . S
H1118 N1112 0.984 . S
H1119 N1112 0.984 . S
H1120 N1108 0.984 . S
H1121 N1108 0.985 1_455 S
C1122 C1123 1.363 . S
C1122 C1128 1.379 . S
C1122 N1130 1.356 . S
C1123 C1122 1.363 . S
C1123 C1129 1.363 . S
C1124 C1125 1.363 . S
C1124 C1129 1.379 . S
C1124 N1131 1.356 . S
C1125 C1124 1.363 . S
C1125 C1128 1.363 . S
N1126 C1128 1.356 1_455 S
N1126 H1138 0.984 . S
N1126 H1139 0.985 . S
N1127 C1129 1.356 . S
N1127 H1132 0.984 . S
N1127 H1133 0.985 . S
C1128 C1122 1.379 . S
C1128 C1125 1.363 . S
C1128 N1126 1.356 1_655 S
C1129 C1123 1.363 . S
C1129 C1124 1.379 . S
C1129 N1127 1.356 . S
N1130 C1122 1.356 . S
N1130 H1136 0.984 . S
N1130 H1137 0.984 . S
N1131 C1124 1.356 . S
N1131 H1134 0.984 . S
N1131 H1135 0.985 . S
H1132 N1127 0.984 . S
H1133 N1127 0.985 . S
H1134 N1131 0.984 . S
H1135 N1131 0.985 . S
H1136 N1130 0.984 . S
H1137 N1130 0.984 . S
H1138 N1126 0.984 . S
H1139 N1126 0.985 . S
C1140 C1141 1.363 . S
C1140 C1146 1.379 . S
C1140 N1148 1.356 . S
C1141 C1140 1.363 . S
C1141 C1147 1.363 . S
C1142 C1143 1.363 . S
C1142 C1147 1.379 . S
C1142 N1149 1.356 . S
C1143 C1142 1.363 . S
C1143 C1146 1.363 . S
N1144 C1146 1.356 . S
N1144 H1156 0.984 . S
N1144 H1157 0.985 . S
N1145 C1147 1.356 . S
N1145 H1150 0.984 . S
N1145 H1151 0.985 . S
C1146 C1140 1.379 . S
C1146 C1143 1.363 . S
C1146 N1144 1.356 . S
C1147 C1141 1.363 . S
C1147 C1142 1.379 . S
C1147 N1145 1.356 . S
N1148 C1140 1.356 . S
N1148 H1154 0.984 . S
N1148 H1155 0.984 . S
N1149 C1142 1.356 . S
N1149 H1152 0.984 . S
N1149 H1153 0.985 . S
H1150 N1145 0.984 . S
H1151 N1145 0.985 . S
H1152 N1149 0.984 . S
H1153 N1149 0.985 . S
H1154 N1148 0.984 . S
H1155 N1148 0.984 . S
H1156 N1144 0.984 . S
H1157 N1144 0.985 . S
C1158 C1159 1.363 . S
C1158 C1164 1.379 . S
C1158 N1166 1.356 . S
C1159 C1158 1.363 . S
C1159 C1165 1.363 . S
C1160 C1161 1.363 . S
C1160 C1165 1.379 . S
C1160 N1167 1.356 . S
C1161 C1160 1.363 . S
C1161 C1164 1.363 . S
N1162 C1164 1.356 . S
N1162 H1174 0.984 . S
N1162 H1175 0.985 . S
N1163 C1165 1.356 . S
N1163 H1168 0.984 . S
N1163 H1169 0.985 . S
C1164 C1158 1.379 . S
C1164 C1161 1.363 . S
C1164 N1162 1.356 . S
C1165 C1159 1.363 . S
C1165 C1160 1.379 . S
C1165 N1163 1.356 . S
N1166 C1158 1.356 . S
N1166 H1172 0.984 . S
N1166 H1173 0.984 . S
N1167 C1160 1.356 . S
N1167 H1170 0.984 . S
N1167 H1171 0.985 . S
H1168 N1163 0.984 . S
H1169 N1163 0.985 . S
H1170 N1167 0.984 . S
H1171 N1167 0.985 . S
H1172 N1166 0.984 . S
H1173 N1166 0.984 . S
H1174 N1162 0.984 . S
H1175 N1162 0.985 . S
C1176 C1177 1.363 . S
C1176 C1182 1.379 . S
C1176 N1184 1.356 . S
C1177 C1176 1.363 . S
C1177 C1183 1.363 . S
C1178 C1179 1.363 . S
C1178 C1183 1.379 . S
C1178 N1185 1.356 . S
C1179 C1178 1.363 . S
C1179 C1182 1.363 . S
N1180 C1182 1.356 . S
N1180 H1192 0.984 . S
N1180 H1193 0.985 . S
N1181 C1183 1.356 . S
N1181 H1186 0.960 1_565 S
N1181 H1187 0.985 . S
C1182 C1176 1.379 . S
C1182 C1179 1.363 . S
C1182 N1180 1.356 . S
C1183 C1177 1.363 . S
C1183 C1178 1.379 . S
C1183 N1181 1.356 . S
N1184 C1176 1.356 . S
N1184 H1190 0.984 . S
N1184 H1191 0.984 1_565 S
N1185 C1178 1.356 . S
N1185 H1188 0.984 . S
N1185 H1189 0.985 . S
H1186 N1181 0.960 1_545 S
H1187 N1181 0.985 . S
H1188 N1185 0.984 . S
H1189 N1185 0.985 . S
H1190 N1184 0.984 . S
H1191 N1184 0.984 1_545 S
H1192 N1180 0.984 . S
H1193 N1180 0.985 . S
C1194 C1195 1.363 . S
C1194 C1200 1.379 . S
C1194 N1202 1.356 . S
C1195 C1194 1.363 . S
C1195 C1201 1.363 . S
C1196 C1197 1.363 . S
C1196 C1201 1.379 . S
C1196 N1203 1.356 . S
C1197 C1196 1.363 . S
C1197 C1200 1.363 . S
N1198 C1200 1.356 . S
N1198 H1210 0.984 . S
N1198 H1211 0.985 . S
N1199 C1201 1.356 . S
N1199 H1204 0.984 . S
N1199 H1205 0.985 . S
C1200 C1194 1.379 . S
C1200 C1197 1.363 . S
C1200 N1198 1.356 . S
C1201 C1195 1.363 . S
C1201 C1196 1.379 . S
C1201 N1199 1.356 . S
N1202 C1194 1.356 . S
N1202 H1208 0.984 . S
N1202 H1209 0.984 . S
N1203 C1196 1.356 . S
N1203 H1206 0.984 . S
N1203 H1207 0.985 . S
H1204 N1199 0.984 . S
H1205 N1199 0.985 . S
H1206 N1203 0.984 . S
H1207 N1203 0.985 . S
H1208 N1202 0.984 . S
H1209 N1202 0.984 . S
H1210 N1198 0.984 . S
H1211 N1198 0.985 . S
C1212 C1213 1.363 . S
C1212 C1218 1.379 . S
C1212 N1220 1.356 . S
C1213 C1212 1.363 . S
C1213 C1219 1.363 . S
C1214 C1215 1.363 . S
C1214 C1219 1.379 . S
C1214 N1221 1.356 . S
C1215 C1214 1.363 . S
C1215 C1218 1.363 . S
N1216 C1218 1.356 . S
N1216 H1228 0.984 . S
N1216 H1229 0.985 . S
N1217 C1219 1.356 . S
N1217 H1222 0.984 . S
N1217 H1223 0.985 . S
C1218 C1212 1.379 . S
C1218 C1215 1.363 . S
C1218 N1216 1.356 . S
C1219 C1213 1.363 . S
C1219 C1214 1.379 . S
C1219 N1217 1.356 . S
N1220 C1212 1.356 . S
N1220 H1226 0.984 . S
N1220 H1227 0.984 . S
N1221 C1214 1.356 . S
N1221 H1224 0.984 . S
N1221 H1225 0.985 . S
H1222 N1217 0.984 . S
H1223 N1217 0.985 . S
H1224 N1221 0.984 . S
H1225 N1221 0.985 . S
H1226 N1220 0.984 . S
H1227 N1220 0.984 . S
H1228 N1216 0.984 . S
H1229 N1216 0.985 . S
C1230 C1231 1.363 . S
C1230 C1236 1.379 . S
C1230 N1238 1.356 . S
C1231 C1230 1.363 . S
C1231 C1237 1.363 . S
C1232 C1233 1.363 . S
C1232 C1237 1.379 . S
C1232 N1239 1.356 . S
C1233 C1232 1.363 . S
C1233 C1236 1.363 . S
N1234 C1236 1.356 . S
N1234 H1246 0.984 . S
N1234 H1247 0.985 . S
N1235 C1237 1.356 . S
N1235 H1240 0.984 . S
N1235 H1241 0.985 . S
C1236 C1230 1.379 . S
C1236 C1233 1.363 . S
C1236 N1234 1.356 . S
C1237 C1231 1.363 . S
C1237 C1232 1.379 . S
C1237 N1235 1.356 . S
N1238 C1230 1.356 . S
N1238 H1244 0.984 . S
N1238 H1245 0.984 . S
N1239 C1232 1.356 . S
N1239 H1242 0.984 . S
N1239 H1243 0.985 . S
H1240 N1235 0.984 . S
H1241 N1235 0.985 . S
H1242 N1239 0.984 . S
H1243 N1239 0.985 . S
H1244 N1238 0.984 . S
H1245 N1238 0.984 . S
H1246 N1234 0.984 . S
H1247 N1234 0.985 . S
C1248 C1249 1.363 . S
C1248 C1254 1.379 . S
C1248 N1256 1.356 . S
C1249 C1248 1.363 . S
C1249 C1255 1.363 . S
C1250 C1251 1.363 . S
C1250 C1255 1.379 . S
C1250 N1257 1.356 . S
C1251 C1250 1.363 . S
C1251 C1254 1.363 . S
N1252 C1254 1.356 . S
N1252 H1264 0.984 . S
N1252 H1265 0.985 . S
N1253 C1255 1.356 . S
N1253 H1258 0.984 . S
N1253 H1259 0.985 . S
C1254 C1248 1.379 . S
C1254 C1251 1.363 . S
C1254 N1252 1.356 . S
C1255 C1249 1.363 . S
C1255 C1250 1.379 . S
C1255 N1253 1.356 . S
N1256 C1248 1.356 . S
N1256 H1262 0.984 . S
N1256 H1263 0.984 . S
N1257 C1250 1.356 . S
N1257 H1260 0.984 . S
N1257 H1261 0.985 . S
H1258 N1253 0.984 . S
H1259 N1253 0.985 . S
H1260 N1257 0.984 . S
H1261 N1257 0.985 . S
H1262 N1256 0.984 . S
H1263 N1256 0.984 . S
H1264 N1252 0.984 . S
H1265 N1252 0.985 . S
C1266 C1267 1.363 . S
C1266 C1272 1.379 . S
C1266 N1274 1.356 . S
C1267 C1266 1.363 . S
C1267 C1273 1.363 . S
C1268 C1269 1.363 . S
C1268 C1273 1.379 . S
C1268 N1275 1.356 . S
C1269 C1268 1.363 . S
C1269 C1272 1.363 . S
N1270 C1272 1.356 . S
N1270 H1282 0.984 . S
N1270 H1283 0.985 . S
N1271 C1273 1.356 . S
N1271 H1276 0.984 . S
N1271 H1277 0.985 . S
C1272 C1266 1.379 . S
C1272 C1269 1.363 . S
C1272 N1270 1.356 . S
C1273 C1267 1.363 . S
C1273 C1268 1.379 . S
C1273 N1271 1.356 . S
N1274 C1266 1.356 . S
N1274 H1280 0.984 . S
N1274 H1281 0.984 . S
N1275 C1268 1.356 . S
N1275 H1278 0.984 . S
N1275 H1279 0.985 . S
H1276 N1271 0.984 . S
H1277 N1271 0.985 . S
H1278 N1275 0.984 . S
H1279 N1275 0.985 . S
H1280 N1274 0.984 . S
H1281 N1274 0.984 . S
H1282 N1270 0.984 . S
H1283 N1270 0.985 . S
C1284 C1285 1.363 . S
C1284 C1290 1.362 1_565 S
C1284 N1292 1.356 . S
C1285 C1284 1.363 . S
C1285 C1291 1.363 . S
C1286 C1287 1.363 . S
C1286 C1291 1.379 . S
C1286 N1293 1.356 . S
C1287 C1286 1.363 . S
C1287 C1290 1.350 1_565 S
N1288 C1290 1.387 . S
N1288 H1300 0.984 . S
N1288 H1301 0.985 . S
N1289 C1291 1.356 . S
N1289 H1294 0.984 . S
N1289 H1295 0.985 . S
C1290 C1284 1.362 1_545 S
C1290 C1287 1.350 1_545 S
C1290 N1288 1.387 . S
C1291 C1285 1.363 . S
C1291 C1286 1.379 . S
C1291 N1289 1.356 . S
N1292 C1284 1.356 . S
N1292 H1298 0.984 1_565 S
N1292 H1299 0.984 . S
N1293 C1286 1.356 . S
N1293 H1296 0.984 . S
N1293 H1297 0.985 . S
H1294 N1289 0.984 . S
H1295 N1289 0.985 . S
H1296 N1293 0.984 . S
H1297 N1293 0.985 . S
H1298 N1292 0.984 1_545 S
H1299 N1292 0.984 . S
H1300 N1288 0.984 . S
H1301 N1288 0.985 . S
C1302 C1303 1.363 1_554 S
C1302 C1308 1.379 1_554 S
C1302 N1310 1.356 . S
C1303 C1302 1.363 1_556 S
C1303 C1309 1.363 . S
C1304 C1305 1.363 . S
C1304 C1309 1.379 . S
C1304 N1311 1.356 . S
C1305 C1304 1.363 . S
C1305 C1308 1.363 . S
N1306 C1308 1.356 . S
N1306 H1318 0.984 1_556 S
N1306 H1319 0.985 . S
N1307 C1309 1.356 . S
N1307 H1312 0.984 . S
N1307 H1313 0.985 . S
C1308 C1302 1.379 1_556 S
C1308 C1305 1.363 . S
C1308 N1306 1.356 . S
C1309 C1303 1.363 . S
C1309 C1304 1.379 . S
C1309 N1307 1.356 . S
N1310 C1302 1.356 . S
N1310 H1316 0.984 . S
N1310 H1317 0.984 . S
N1311 C1304 1.356 . S
N1311 H1314 0.984 . S
N1311 H1315 0.985 . S
H1312 N1307 0.984 . S
H1313 N1307 0.985 . S
H1314 N1311 0.984 . S
H1315 N1311 0.985 . S
H1316 N1310 0.984 . S
H1317 N1310 0.984 . S
H1318 N1306 0.984 1_554 S
H1319 N1306 0.985 . S
C1320 C1321 1.363 . S
C1320 C1326 1.379 . S
C1320 N1328 1.356 . S
C1321 C1320 1.363 . S
C1321 C1327 1.363 . S
C1322 C1323 1.363 . S
C1322 C1327 1.379 . S
C1322 N1329 1.356 . S
C1323 C1322 1.363 . S
C1323 C1326 1.363 . S
N1324 C1326 1.356 . S
N1324 H1336 0.984 . S
N1324 H1337 0.985 . S
N1325 C1327 1.356 . S
N1325 H1330 0.984 . S
N1325 H1331 0.985 . S
C1326 C1320 1.379 . S
C1326 C1323 1.363 . S
C1326 N1324 1.356 . S
C1327 C1321 1.363 . S
C1327 C1322 1.379 . S
C1327 N1325 1.356 . S
N1328 C1320 1.356 . S
N1328 H1334 0.984 . S
N1328 H1335 0.984 . S
N1329 C1322 1.356 . S
N1329 H1332 0.984 . S
N1329 H1333 0.985 . S
H1330 N1325 0.984 . S
H1331 N1325 0.985 . S
H1332 N1329 0.984 . S
H1333 N1329 0.985 . S
H1334 N1328 0.984 . S
H1335 N1328 0.984 . S
H1336 N1324 0.984 . S
H1337 N1324 0.985 . S
C1338 C1339 1.363 . S
C1338 C1344 1.379 . S
C1338 N1346 1.356 . S
C1339 C1338 1.363 . S
C1339 C1345 1.363 . S
C1340 C1341 1.363 . S
C1340 C1345 1.379 . S
C1340 N1347 1.356 . S
C1341 C1340 1.363 . S
C1341 C1344 1.363 . S
N1342 C1344 1.356 . S
N1342 H1354 0.984 . S
N1342 H1355 0.985 . S
N1343 C1345 1.356 . S
N1343 H1348 0.984 . S
N1343 H1349 0.985 . S
C1344 C1338 1.379 . S
C1344 C1341 1.363 . S
C1344 N1342 1.356 . S
C1345 C1339 1.363 . S
C1345 C1340 1.379 . S
C1345 N1343 1.356 . S
N1346 C1338 1.356 . S
N1346 H1352 0.984 . S
N1346 H1353 0.984 . S
N1347 C1340 1.356 . S
N1347 H1350 0.984 . S
N1347 H1351 0.985 . S
H1348 N1343 0.984 . S
H1349 N1343 0.985 . S
H1350 N1347 0.984 . S
H1351 N1347 0.985 . S
H1352 N1346 0.984 . S
H1353 N1346 0.984 . S
H1354 N1342 0.984 . S
H1355 N1342 0.985 . S
C1356 C1357 1.363 . S
C1356 C1362 1.379 . S
C1356 N1364 1.356 . S
C1357 C1356 1.363 . S
C1357 C1363 1.363 . S
C1358 C1359 1.363 . S
C1358 C1363 1.379 . S
C1358 N1365 1.356 . S
C1359 C1358 1.363 . S
C1359 C1362 1.363 . S
N1360 C1362 1.356 . S
N1360 H1372 0.984 . S
N1360 H1373 0.985 . S
N1361 C1363 1.356 . S
N1361 H1366 0.984 . S
N1361 H1367 0.985 . S
C1362 C1356 1.379 . S
C1362 C1359 1.363 . S
C1362 N1360 1.356 . S
C1363 C1357 1.363 . S
C1363 C1358 1.379 . S
C1363 N1361 1.356 . S
N1364 C1356 1.356 . S
N1364 H1370 0.984 . S
N1364 H1371 0.984 . S
N1365 C1358 1.356 . S
N1365 H1368 0.984 . S
N1365 H1369 0.985 . S
H1366 N1361 0.984 . S
H1367 N1361 0.985 . S
H1368 N1365 0.984 . S
H1369 N1365 0.985 . S
H1370 N1364 0.984 . S
H1371 N1364 0.984 . S
H1372 N1360 0.984 . S
H1373 N1360 0.985 . S
C1374 C1375 1.363 . S
C1374 C1380 1.379 . S
C1374 N1382 1.356 . S
C1375 C1374 1.363 . S
C1375 C1381 1.363 . S
C1376 C1377 1.363 . S
C1376 C1381 1.379 . S
C1376 N1383 1.356 . S
C1377 C1376 1.363 . S
C1377 C1380 1.363 . S
N1378 C1380 1.356 . S
N1378 H1390 0.984 . S
N1378 H1391 0.985 . S
N1379 C1381 1.356 . S
N1379 H1384 0.984 . S
N1379 H1385 0.985 . S
C1380 C1374 1.379 . S
C1380 C1377 1.363 . S
C1380 N1378 1.356 . S
C1381 C1375 1.363 . S
C1381 C1376 1.379 . S
C1381 N1379 1.356 . S
N1382 C1374 1.356 . S
N1382 H1388 0.984 . S
N1382 H1389 0.984 . S
N1383 C1376 1.356 . S
N1383 H1386 0.984 . S
N1383 H1387 0.985 . S
H1384 N1379 0.984 . S
H1385 N1379 0.985 . S
H1386 N1383 0.984 . S
H1387 N1383 0.985 . S
H1388 N1382 0.984 . S
H1389 N1382 0.984 . S
H1390 N1378 0.984 . S
H1391 N1378 0.985 . S
C1392 C1393 1.363 . S
C1392 C1398 1.379 . S
C1392 N1400 1.356 . S
C1393 C1392 1.363 . S
C1393 C1399 1.363 . S
C1394 C1395 1.363 . S
C1394 C1399 1.379 . S
C1394 N1401 1.356 . S
C1395 C1394 1.363 . S
C1395 C1398 1.363 . S
N1396 C1398 1.356 . S
N1396 H1408 0.984 . S
N1396 H1409 0.985 . S
N1397 C1399 1.356 . S
N1397 H1402 0.984 . S
N1397 H1403 0.985 . S
C1398 C1392 1.379 . S
C1398 C1395 1.363 . S
C1398 N1396 1.356 . S
C1399 C1393 1.363 . S
C1399 C1394 1.379 . S
C1399 N1397 1.356 . S
N1400 C1392 1.356 . S
N1400 H1406 0.984 . S
N1400 H1407 0.984 . S
N1401 C1394 1.356 . S
N1401 H1404 0.984 . S
N1401 H1405 0.985 . S
H1402 N1397 0.984 . S
H1403 N1397 0.985 . S
H1404 N1401 0.984 . S
H1405 N1401 0.985 . S
H1406 N1400 0.984 . S
H1407 N1400 0.984 . S
H1408 N1396 0.984 . S
H1409 N1396 0.985 . S
C1410 C1411 1.363 . S
C1410 C1416 1.379 . S
C1410 N1418 1.356 . S
C1411 C1410 1.363 . S
C1411 C1417 1.363 . S
C1412 C1413 1.363 . S
C1412 C1417 1.379 . S
C1412 N1419 1.356 . S
C1413 C1412 1.363 . S
C1413 C1416 1.363 . S
N1414 C1416 1.356 . S
N1414 H1426 0.984 . S
N1414 H1427 0.985 . S
N1415 C1417 1.356 . S
N1415 H1420 0.984 . S
N1415 H1421 0.985 . S
C1416 C1410 1.379 . S
C1416 C1413 1.363 . S
C1416 N1414 1.356 . S
C1417 C1411 1.363 . S
C1417 C1412 1.379 . S
C1417 N1415 1.356 . S
N1418 C1410 1.356 . S
N1418 H1424 0.984 . S
N1418 H1425 0.984 . S
N1419 C1412 1.356 . S
N1419 H1422 0.984 . S
N1419 H1423 0.985 . S
H1420 N1415 0.984 . S
H1421 N1415 0.985 . S
H1422 N1419 0.984 . S
H1423 N1419 0.985 . S
H1424 N1418 0.984 . S
H1425 N1418 0.984 . S
H1426 N1414 0.984 . S
H1427 N1414 0.985 . S
C1428 C1429 1.363 . S
C1428 C1434 1.379 . S
C1428 N1436 1.356 . S
C1429 C1428 1.363 . S
C1429 C1435 1.363 . S
C1430 C1431 1.363 . S
C1430 C1435 1.379 . S
C1430 N1437 1.356 . S
C1431 C1430 1.363 . S
C1431 C1434 1.363 . S
N1432 C1434 1.356 . S
N1432 H1444 0.984 . S
N1432 H1445 0.985 . S
N1433 C1435 1.356 . S
N1433 H1438 0.984 . S
N1433 H1439 0.985 . S
C1434 C1428 1.379 . S
C1434 C1431 1.363 . S
C1434 N1432 1.356 . S
C1435 C1429 1.363 . S
C1435 C1430 1.379 . S
C1435 N1433 1.356 . S
N1436 C1428 1.356 . S
N1436 H1442 0.984 . S
N1436 H1443 0.984 . S
N1437 C1430 1.356 . S
N1437 H1440 0.984 . S
N1437 H1441 0.985 . S
H1438 N1433 0.984 . S
H1439 N1433 0.985 . S
H1440 N1437 0.984 . S
H1441 N1437 0.985 . S
H1442 N1436 0.984 . S
H1443 N1436 0.984 . S
H1444 N1432 0.984 . S
H1445 N1432 0.985 . S
C1446 C1447 1.363 . S
C1446 C1452 1.379 . S
C1446 N1454 1.356 . S
C1447 C1446 1.363 . S
C1447 C1453 1.363 . S
C1448 C1449 1.363 . S
C1448 C1453 1.379 . S
C1448 N1455 1.356 . S
C1449 C1448 1.363 . S
C1449 C1452 1.363 . S
N1450 C1452 1.356 . S
N1450 H1462 0.984 . S
N1450 H1463 0.985 . S
N1451 C1453 1.356 . S
N1451 H1456 0.984 . S
N1451 H1457 0.985 . S
C1452 C1446 1.379 . S
C1452 C1449 1.363 . S
C1452 N1450 1.356 . S
C1453 C1447 1.363 . S
C1453 C1448 1.379 . S
C1453 N1451 1.356 . S
N1454 C1446 1.356 . S
N1454 H1460 0.984 . S
N1454 H1461 0.984 . S
N1455 C1448 1.356 . S
N1455 H1458 0.984 . S
N1455 H1459 0.985 . S
H1456 N1451 0.984 . S
H1457 N1451 0.985 . S
H1458 N1455 0.984 . S
H1459 N1455 0.985 . S
H1460 N1454 0.984 . S
H1461 N1454 0.984 . S
H1462 N1450 0.984 . S
H1463 N1450 0.985 . S
C1464 C1465 1.363 . S
C1464 C1470 1.379 . S
C1464 N1472 1.356 . S
C1465 C1464 1.363 . S
C1465 C1471 1.363 . S
C1466 C1467 1.363 . S
C1466 C1471 1.379 . S
C1466 N1473 1.356 . S
C1467 C1466 1.363 . S
C1467 C1470 1.363 . S
N1468 C1470 1.356 . S
N1468 H1480 0.984 . S
N1468 H1481 0.985 . S
N1469 C1471 1.356 . S
N1469 H1474 0.984 . S
N1469 H1475 0.985 . S
C1470 C1464 1.379 . S
C1470 C1467 1.363 . S
C1470 N1468 1.356 . S
C1471 C1465 1.363 . S
C1471 C1466 1.379 . S
C1471 N1469 1.356 . S
N1472 C1464 1.356 . S
N1472 H1478 0.984 . S
N1472 H1479 0.984 . S
N1473 C1466 1.356 . S
N1473 H1476 0.984 . S
N1473 H1477 0.985 . S
H1474 N1469 0.984 . S
H1475 N1469 0.985 . S
H1476 N1473 0.984 . S
H1477 N1473 0.985 . S
H1478 N1472 0.984 . S
H1479 N1472 0.984 . S
H1480 N1468 0.984 . S
H1481 N1468 0.985 . S
C1482 C1483 1.363 . S
C1482 C1488 1.379 . S
C1482 N1490 1.356 . S
C1483 C1482 1.363 . S
C1483 C1489 1.363 . S
C1484 C1485 1.363 . S
C1484 C1489 1.379 . S
C1484 N1491 1.356 . S
C1485 C1484 1.363 . S
C1485 C1488 1.363 . S
N1486 C1488 1.356 . S
N1486 H1498 0.984 . S
N1486 H1499 0.985 . S
N1487 C1489 1.356 . S
N1487 H1492 0.984 . S
N1487 H1493 0.985 . S
C1488 C1482 1.379 . S
C1488 C1485 1.363 . S
C1488 N1486 1.356 . S
C1489 C1483 1.363 . S
C1489 C1484 1.379 . S
C1489 N1487 1.356 . S
N1490 C1482 1.356 . S
N1490 H1496 0.984 . S
N1490 H1497 0.984 . S
N1491 C1484 1.356 . S
N1491 H1494 0.984 . S
N1491 H1495 0.985 . S
H1492 N1487 0.984 . S
H1493 N1487 0.985 . S
H1494 N1491 0.984 . S
H1495 N1491 0.985 . S
H1496 N1490 0.984 . S
H1497 N1490 0.984 . S
H1498 N1486 0.984 . S
H1499 N1486 0.985 . S
C1500 C1501 1.363 . S
C1500 C1506 1.379 . S
C1500 N1508 1.356 . S
C1501 C1500 1.363 . S
C1501 C1507 1.363 . S
C1502 C1503 1.363 . S
C1502 C1507 1.379 . S
C1502 N1509 1.356 1_556 S
C1503 C1502 1.363 . S
C1503 C1506 1.363 . S
N1504 C1506 1.356 . S
N1504 H1516 0.984 . S
N1504 H1517 0.985 . S
N1505 C1507 1.356 . S
N1505 H1510 0.984 . S
N1505 H1511 0.985 . S
C1506 C1500 1.379 . S
C1506 C1503 1.363 . S
C1506 N1504 1.356 . S
C1507 C1501 1.363 . S
C1507 C1502 1.379 . S
C1507 N1505 1.356 . S
N1508 C1500 1.356 . S
N1508 H1514 0.984 . S
N1508 H1515 0.984 . S
N1509 C1502 1.356 1_554 S
N1509 H1512 0.984 . S
N1509 H1513 0.985 . S
H1510 N1505 0.984 . S
H1511 N1505 0.985 . S
H1512 N1509 0.984 . S
H1513 N1509 0.985 . S
H1514 N1508 0.984 . S
H1515 N1508 0.984 . S
H1516 N1504 0.984 . S
H1517 N1504 0.985 . S
C1518 C1519 1.363 . S
C1518 C1524 1.379 . S
C1518 N1526 1.356 . S
C1519 C1518 1.363 . S
C1519 C1525 1.363 . S
C1520 C1521 1.363 . S
C1520 C1525 1.379 . S
C1520 N1527 1.356 . S
C1521 C1520 1.363 . S
C1521 C1524 1.363 . S
N1522 C1524 1.356 . S
N1522 H1534 0.984 . S
N1522 H1535 0.985 . S
N1523 C1525 1.356 . S
N1523 H1528 0.984 . S
N1523 H1529 0.985 . S
C1524 C1518 1.379 . S
C1524 C1521 1.363 . S
C1524 N1522 1.356 . S
C1525 C1519 1.363 . S
C1525 C1520 1.379 . S
C1525 N1523 1.356 . S
N1526 C1518 1.356 . S
N1526 H1532 0.984 . S
N1526 H1533 0.984 . S
N1527 C1520 1.356 . S
N1527 H1530 0.984 . S
N1527 H1531 0.985 . S
H1528 N1523 0.984 . S
H1529 N1523 0.985 . S
H1530 N1527 0.984 . S
H1531 N1527 0.985 . S
H1532 N1526 0.984 . S
H1533 N1526 0.984 . S
H1534 N1522 0.984 . S
H1535 N1522 0.985 . S
C1536 C1537 1.363 . S
C1536 C1542 1.379 . S
C1536 N1544 1.356 . S
C1537 C1536 1.363 . S
C1537 C1543 1.363 . S
C1538 C1539 1.363 . S
C1538 C1543 1.379 . S
C1538 N1545 1.356 . S
C1539 C1538 1.363 . S
C1539 C1542 1.363 . S
N1540 C1542 1.356 . S
N1540 H1552 0.984 . S
N1540 H1553 0.985 . S
N1541 C1543 1.356 . S
N1541 H1546 0.984 . S
N1541 H1547 0.985 . S
C1542 C1536 1.379 . S
C1542 C1539 1.363 . S
C1542 N1540 1.356 . S
C1543 C1537 1.363 . S
C1543 C1538 1.379 . S
C1543 N1541 1.356 . S
N1544 C1536 1.356 . S
N1544 H1550 0.984 1_455 S
N1544 H1551 0.984 . S
N1545 C1538 1.356 . S
N1545 H1548 0.984 . S
N1545 H1549 0.985 . S
H1546 N1541 0.984 . S
H1547 N1541 0.985 . S
H1548 N1545 0.984 . S
H1549 N1545 0.985 . S
H1550 N1544 0.984 1_655 S
H1551 N1544 0.984 . S
H1552 N1540 0.984 . S
H1553 N1540 0.985 . S
C1554 C1555 1.363 . S
C1554 C1560 1.379 . S
C1554 N1562 1.356 . S
C1555 C1554 1.363 . S
C1555 C1561 1.363 . S
C1556 C1557 1.363 . S
C1556 C1561 1.379 . S
C1556 N1563 1.356 . S
C1557 C1556 1.363 . S
C1557 C1560 1.363 . S
N1558 C1560 1.356 . S
N1558 H1570 0.972 1_455 S
N1558 H1571 0.985 . S
N1559 C1561 1.356 . S
N1559 H1564 0.984 . S
N1559 H1565 0.985 . S
C1560 C1554 1.379 . S
C1560 C1557 1.363 . S
C1560 N1558 1.356 . S
C1561 C1555 1.363 . S
C1561 C1556 1.379 . S
C1561 N1559 1.356 . S
N1562 C1554 1.356 . S
N1562 H1568 0.984 . S
N1562 H1569 0.984 . S
N1563 C1556 1.356 . S
N1563 H1566 0.984 . S
N1563 H1567 0.985 . S
H1564 N1559 0.984 . S
H1565 N1559 0.985 . S
H1566 N1563 0.984 . S
H1567 N1563 0.985 . S
H1568 N1562 0.984 . S
H1569 N1562 0.984 . S
H1570 N1558 0.972 1_655 S
H1571 N1558 0.985 . S
C1572 C1573 1.363 . S
C1572 C1578 1.379 . S
C1572 N1580 1.356 . S
C1573 C1572 1.363 . S
C1573 C1579 1.363 . S
C1574 C1575 1.363 . S
C1574 C1579 1.379 . S
C1574 N1581 1.356 . S
C1575 C1574 1.363 . S
C1575 C1578 1.363 . S
N1576 C1578 1.356 . S
N1576 H1588 0.984 . S
N1576 H1589 0.985 . S
N1577 C1579 1.356 . S
N1577 H1582 0.984 . S
N1577 H1583 0.985 . S
C1578 C1572 1.379 . S
C1578 C1575 1.363 . S
C1578 N1576 1.356 . S
C1579 C1573 1.363 . S
C1579 C1574 1.379 . S
C1579 N1577 1.356 . S
N1580 C1572 1.356 . S
N1580 H1586 0.984 . S
N1580 H1587 0.984 . S
N1581 C1574 1.356 . S
N1581 H1584 0.984 . S
N1581 H1585 0.985 . S
H1582 N1577 0.984 . S
H1583 N1577 0.985 . S
H1584 N1581 0.984 . S
H1585 N1581 0.985 . S
H1586 N1580 0.984 . S
H1587 N1580 0.984 . S
H1588 N1576 0.984 . S
H1589 N1576 0.985 . S
C1590 C1591 1.363 . S
C1590 C1596 1.379 . S
C1590 N1598 1.356 . S
C1591 C1590 1.363 . S
C1591 C1597 1.363 . S
C1592 C1593 1.363 . S
C1592 C1597 1.379 . S
C1592 N1599 1.356 . S
C1593 C1592 1.363 . S
C1593 C1596 1.363 . S
N1594 C1596 1.356 . S
N1594 H1606 0.984 . S
N1594 H1607 0.985 . S
N1595 C1597 1.356 . S
N1595 H1600 0.984 . S
N1595 H1601 0.985 . S
C1596 C1590 1.379 . S
C1596 C1593 1.363 . S
C1596 N1594 1.356 . S
C1597 C1591 1.363 . S
C1597 C1592 1.379 . S
C1597 N1595 1.356 . S
N1598 C1590 1.356 . S
N1598 H1604 0.984 . S
N1598 H1605 0.984 . S
N1599 C1592 1.356 . S
N1599 H1602 0.984 . S
N1599 H1603 0.985 . S
H1600 N1595 0.984 . S
H1601 N1595 0.985 . S
H1602 N1599 0.984 . S
H1603 N1599 0.985 . S
H1604 N1598 0.984 . S
H1605 N1598 0.984 . S
H1606 N1594 0.984 . S
H1607 N1594 0.985 . S
C1608 C1609 1.363 . S
C1608 C1614 1.379 . S
C1608 N1616 1.356 . S
C1609 C1608 1.363 . S
C1609 C1615 1.363 . S
C1610 C1611 1.363 . S
C1610 C1615 1.379 . S
C1610 N1617 1.356 . S
C1611 C1610 1.363 . S
C1611 C1614 1.363 . S
N1612 C1614 1.356 . S
N1612 H1624 0.984 . S
N1612 H1625 0.985 . S
N1613 C1615 1.356 . S
N1613 H1618 0.984 . S
N1613 H1619 0.985 . S
C1614 C1608 1.379 . S
C1614 C1611 1.363 . S
C1614 N1612 1.356 . S
C1615 C1609 1.363 . S
C1615 C1610 1.379 . S
C1615 N1613 1.356 . S
N1616 C1608 1.356 . S
N1616 H1622 0.984 . S
N1616 H1623 0.984 . S
N1617 C1610 1.356 . S
N1617 H1620 0.984 . S
N1617 H1621 0.985 . S
H1618 N1613 0.984 . S
H1619 N1613 0.985 . S
H1620 N1617 0.984 . S
H1621 N1617 0.985 . S
H1622 N1616 0.984 . S
H1623 N1616 0.984 . S
H1624 N1612 0.984 . S
H1625 N1612 0.985 . S
C1626 C1627 1.363 . S
C1626 C1632 1.379 . S
C1626 N1634 1.356 . S
C1627 C1626 1.363 . S
C1627 C1633 1.363 . S
C1628 C1629 1.363 . S
C1628 C1633 1.379 . S
C1628 N1635 1.356 . S
C1629 C1628 1.363 . S
C1629 C1632 1.363 . S
N1630 C1632 1.356 . S
N1630 H1642 0.984 . S
N1630 H1643 0.985 . S
N1631 C1633 1.356 . S
N1631 H1636 0.984 . S
N1631 H1637 0.985 . S
C1632 C1626 1.379 . S
C1632 C1629 1.363 . S
C1632 N1630 1.356 . S
C1633 C1627 1.363 . S
C1633 C1628 1.379 . S
C1633 N1631 1.356 . S
N1634 C1626 1.356 . S
N1634 H1640 0.984 . S
N1634 H1641 0.984 . S
N1635 C1628 1.356 . S
N1635 H1638 0.984 . S
N1635 H1639 0.985 . S
H1636 N1631 0.984 . S
H1637 N1631 0.985 . S
H1638 N1635 0.984 . S
H1639 N1635 0.985 . S
H1640 N1634 0.984 . S
H1641 N1634 0.984 . S
H1642 N1630 0.984 . S
H1643 N1630 0.985 . S
C1644 C1645 1.363 . S
C1644 C1650 1.379 . S
C1644 N1652 1.356 . S
C1645 C1644 1.363 . S
C1645 C1651 1.363 . S
C1646 C1647 1.363 . S
C1646 C1651 1.379 . S
C1646 N1653 1.356 . S
C1647 C1646 1.363 . S
C1647 C1650 1.363 . S
N1648 C1650 1.356 . S
N1648 H1660 0.984 . S
N1648 H1661 0.985 . S
N1649 C1651 1.356 . S
N1649 H1654 0.984 . S
N1649 H1655 0.985 . S
C1650 C1644 1.379 . S
C1650 C1647 1.363 . S
C1650 N1648 1.356 . S
C1651 C1645 1.363 . S
C1651 C1646 1.379 . S
C1651 N1649 1.356 . S
N1652 C1644 1.356 . S
N1652 H1658 0.984 . S
N1652 H1659 0.984 . S
N1653 C1646 1.356 . S
N1653 H1656 0.984 . S
N1653 H1657 0.985 . S
H1654 N1649 0.984 . S
H1655 N1649 0.985 . S
H1656 N1653 0.984 . S
H1657 N1653 0.985 . S
H1658 N1652 0.984 . S
H1659 N1652 0.984 . S
H1660 N1648 0.984 . S
H1661 N1648 0.985 . S
C1662 C1663 1.363 . S
C1662 C1668 1.379 . S
C1662 N1670 1.356 . S
C1663 C1662 1.363 . S
C1663 C1669 1.363 . S
C1664 C1665 1.363 . S
C1664 C1669 1.379 . S
C1664 N1671 1.356 . S
C1665 C1664 1.363 . S
C1665 C1668 1.363 . S
N1666 C1668 1.356 . S
N1666 H1678 0.984 . S
N1666 H1679 0.985 . S
N1667 C1669 1.356 . S
N1667 H1672 0.984 . S
N1667 H1673 0.985 . S
C1668 C1662 1.379 . S
C1668 C1665 1.363 . S
C1668 N1666 1.356 . S
C1669 C1663 1.363 . S
C1669 C1664 1.379 . S
C1669 N1667 1.356 . S
N1670 C1662 1.356 . S
N1670 H1676 0.984 . S
N1670 H1677 0.984 . S
N1671 C1664 1.356 . S
N1671 H1674 0.984 . S
N1671 H1675 0.985 . S
H1672 N1667 0.984 . S
H1673 N1667 0.985 . S
H1674 N1671 0.984 . S
H1675 N1671 0.985 . S
H1676 N1670 0.984 . S
H1677 N1670 0.984 . S
H1678 N1666 0.984 . S
H1679 N1666 0.985 . S
C1680 C1681 1.363 . S
C1680 C1686 1.379 . S
C1680 N1688 1.356 . S
C1681 C1680 1.363 . S
C1681 C1687 1.363 . S
C1682 C1683 1.363 . S
C1682 C1687 1.379 . S
C1682 N1689 1.356 . S
C1683 C1682 1.363 . S
C1683 C1686 1.363 . S
N1684 C1686 1.356 . S
N1684 H1696 0.984 . S
N1684 H1697 0.985 . S
N1685 C1687 1.356 . S
N1685 H1690 0.984 . S
N1685 H1691 0.985 . S
C1686 C1680 1.379 . S
C1686 C1683 1.363 . S
C1686 N1684 1.356 . S
C1687 C1681 1.363 . S
C1687 C1682 1.379 . S
C1687 N1685 1.356 . S
N1688 C1680 1.356 . S
N1688 H1694 0.984 . S
N1688 H1695 0.984 . S
N1689 C1682 1.356 . S
N1689 H1692 0.984 . S
N1689 H1693 0.985 1_545 S
H1690 N1685 0.984 . S
H1691 N1685 0.985 . S
H1692 N1689 0.984 . S
H1693 N1689 0.985 1_565 S
H1694 N1688 0.984 . S
H1695 N1688 0.984 . S
H1696 N1684 0.984 . S
H1697 N1684 0.985 . S
C1698 C1699 1.363 . S
C1698 C1704 1.379 . S
C1698 N1706 1.356 . S
C1699 C1698 1.363 . S
C1699 C1705 1.363 . S
C1700 C1701 1.363 . S
C1700 C1705 1.379 . S
C1700 N1707 1.356 . S
C1701 C1700 1.363 . S
C1701 C1704 1.363 . S
N1702 C1704 1.356 . S
N1702 H1714 0.984 . S
N1702 H1715 0.985 . S
N1703 C1705 1.356 . S
N1703 H1708 0.984 . S
N1703 H1709 0.985 . S
C1704 C1698 1.379 . S
C1704 C1701 1.363 . S
C1704 N1702 1.356 . S
C1705 C1699 1.363 . S
C1705 C1700 1.379 . S
C1705 N1703 1.356 . S
N1706 C1698 1.356 . S
N1706 H1712 0.984 . S
N1706 H1713 0.984 . S
N1707 C1700 1.356 . S
N1707 H1710 0.984 . S
N1707 H1711 0.985 . S
H1708 N1703 0.984 . S
H1709 N1703 0.985 . S
H1710 N1707 0.984 . S
H1711 N1707 0.985 . S
H1712 N1706 0.984 . S
H1713 N1706 0.984 . S
H1714 N1702 0.984 . S
H1715 N1702 0.985 . S
C1716 C1717 1.363 . S
C1716 C1722 1.379 . S
C1716 N1724 1.356 . S
C1717 C1716 1.363 . S
C1717 C1723 1.363 . S
C1718 C1719 1.363 . S
C1718 C1723 1.379 . S
C1718 N1725 1.356 . S
C1719 C1718 1.363 . S
C1719 C1722 1.363 . S
N1720 C1722 1.356 . S
N1720 H1732 0.984 . S
N1720 H1733 0.985 . S
N1721 C1723 1.356 . S
N1721 H1726 0.984 . S
N1721 H1727 0.985 . S
C1722 C1716 1.379 . S
C1722 C1719 1.363 . S
C1722 N1720 1.356 . S
C1723 C1717 1.363 . S
C1723 C1718 1.379 . S
C1723 N1721 1.356 . S
N1724 C1716 1.356 . S
N1724 H1730 0.984 . S
N1724 H1731 0.984 . S
N1725 C1718 1.356 . S
N1725 H1728 0.984 . S
N1725 H1729 0.985 . S
H1726 N1721 0.984 . S
H1727 N1721 0.985 . S
H1728 N1725 0.984 . S
H1729 N1725 0.985 . S
H1730 N1724 0.984 . S
H1731 N1724 0.984 . S
H1732 N1720 0.984 . S
H1733 N1720 0.985 . S
C1734 C1735 1.363 . S
C1734 C1740 1.379 . S
C1734 N1742 1.356 . S
C1735 C1734 1.363 . S
C1735 C1741 1.363 . S
C1736 C1737 1.363 . S
C1736 C1741 1.379 . S
C1736 N1743 1.356 . S
C1737 C1736 1.363 . S
C1737 C1740 1.363 . S
N1738 C1740 1.356 . S
N1738 H1750 0.984 . S
N1738 H1751 0.985 . S
N1739 C1741 1.356 . S
N1739 H1744 0.984 . S
N1739 H1745 0.985 . S
C1740 C1734 1.379 . S
C1740 C1737 1.363 . S
C1740 N1738 1.356 . S
C1741 C1735 1.363 . S
C1741 C1736 1.379 . S
C1741 N1739 1.356 . S
N1742 C1734 1.356 . S
N1742 H1748 0.984 1_554 S
N1742 H1749 0.984 . S
N1743 C1736 1.356 . S
N1743 H1746 0.984 . S
N1743 H1747 0.985 . S
H1744 N1739 0.984 . S
H1745 N1739 0.985 . S
H1746 N1743 0.984 . S
H1747 N1743 0.985 . S
H1748 N1742 0.984 1_556 S
H1749 N1742 0.984 . S
H1750 N1738 0.984 . S
H1751 N1738 0.985 . S
C1752 C1753 1.363 . S
C1752 C1758 1.379 . S
C1752 N1760 1.356 . S
C1753 C1752 1.363 . S
C1753 C1759 1.363 . S
C1754 C1755 1.363 . S
C1754 C1759 1.379 . S
C1754 N1761 1.356 . S
C1755 C1754 1.363 . S
C1755 C1758 1.363 . S
N1756 C1758 1.356 . S
N1756 H1768 0.984 . S
N1756 H1769 0.985 . S
N1757 C1759 1.356 . S
N1757 H1762 0.984 . S
N1757 H1763 0.985 . S
C1758 C1752 1.379 . S
C1758 C1755 1.363 . S
C1758 N1756 1.356 . S
C1759 C1753 1.363 . S
C1759 C1754 1.379 . S
C1759 N1757 1.356 . S
N1760 C1752 1.356 . S
N1760 H1766 0.984 . S
N1760 H1767 0.984 . S
N1761 C1754 1.356 . S
N1761 H1764 0.984 . S
N1761 H1765 0.985 . S
H1762 N1757 0.984 . S
H1763 N1757 0.985 . S
H1764 N1761 0.984 . S
H1765 N1761 0.985 . S
H1766 N1760 0.984 . S
H1767 N1760 0.984 . S
H1768 N1756 0.984 . S
H1769 N1756 0.985 . S
C1770 C1771 1.363 . S
C1770 C1776 1.379 . S
C1770 N1778 1.356 . S
C1771 C1770 1.363 . S
C1771 C1777 1.363 . S
C1772 C1773 1.363 . S
C1772 C1777 1.379 . S
C1772 N1779 1.356 . S
C1773 C1772 1.363 . S
C1773 C1776 1.363 . S
N1774 C1776 1.356 . S
N1774 H1786 0.984 . S
N1774 H1787 0.985 . S
N1775 C1777 1.356 . S
N1775 H1780 0.984 . S
N1775 H1781 0.985 . S
C1776 C1770 1.379 . S
C1776 C1773 1.363 . S
C1776 N1774 1.356 . S
C1777 C1771 1.363 . S
C1777 C1772 1.379 . S
C1777 N1775 1.356 . S
N1778 C1770 1.356 . S
N1778 H1784 0.984 . S
N1778 H1785 0.984 . S
N1779 C1772 1.356 . S
N1779 H1782 0.984 . S
N1779 H1783 0.985 . S
H1780 N1775 0.984 . S
H1781 N1775 0.985 . S
H1782 N1779 0.984 . S
H1783 N1779 0.985 . S
H1784 N1778 0.984 . S
H1785 N1778 0.984 . S
H1786 N1774 0.984 . S
H1787 N1774 0.985 . S
C1788 C1789 1.363 . S
C1788 C1794 1.379 . S
C1788 N1796 1.356 . S
C1789 C1788 1.363 . S
C1789 C1795 1.363 . S
C1790 C1791 1.363 . S
C1790 C1795 1.379 . S
C1790 N1797 1.356 . S
C1791 C1790 1.363 . S
C1791 C1794 1.363 . S
N1792 C1794 1.356 . S
N1792 H1804 0.984 1_545 S
N1792 H1805 0.985 1_545 S
N1793 C1795 1.356 . S
N1793 H1798 0.984 . S
N1793 H1799 0.985 . S
C1794 C1788 1.379 . S
C1794 C1791 1.363 . S
C1794 N1792 1.356 . S
C1795 C1789 1.363 . S
C1795 C1790 1.379 . S
C1795 N1793 1.356 . S
N1796 C1788 1.356 . S
N1796 H1802 0.984 . S
N1796 H1803 0.984 . S
N1797 C1790 1.356 . S
N1797 H1800 0.984 . S
N1797 H1801 0.985 . S
H1798 N1793 0.984 . S
H1799 N1793 0.985 . S
H1800 N1797 0.984 . S
H1801 N1797 0.985 . S
H1802 N1796 0.984 . S
H1803 N1796 0.984 . S
H1804 N1792 0.984 1_565 S
H1805 N1792 0.985 1_565 S
C1806 C1807 1.363 . S
C1806 C1812 1.379 . S
C1806 N1814 1.356 . S
C1807 C1806 1.363 . S
C1807 C1813 1.363 . S
C1808 C1809 1.363 . S
C1808 C1813 1.379 . S
C1808 N1815 1.356 . S
C1809 C1808 1.363 . S
C1809 C1812 1.363 . S
N1810 C1812 1.356 . S
N1810 H1822 0.984 . S
N1810 H1823 0.985 . S
N1811 C1813 1.356 . S
N1811 H1816 0.984 . S
N1811 H1817 0.985 . S
C1812 C1806 1.379 . S
C1812 C1809 1.363 . S
C1812 N1810 1.356 . S
C1813 C1807 1.363 . S
C1813 C1808 1.379 . S
C1813 N1811 1.356 . S
N1814 C1806 1.356 . S
N1814 H1820 0.984 . S
N1814 H1821 0.984 . S
N1815 C1808 1.356 . S
N1815 H1818 0.971 1_554 S
N1815 H1819 0.985 1_554 S
H1816 N1811 0.984 . S
H1817 N1811 0.985 . S
H1818 N1815 0.971 1_556 S
H1819 N1815 0.985 1_556 S
H1820 N1814 0.984 . S
H1821 N1814 0.984 . S
H1822 N1810 0.984 . S
H1823 N1810 0.985 . S
C1824 C1825 1.363 . S
C1824 C1830 1.379 . S
C1824 N1832 1.356 . S
C1825 C1824 1.363 . S
C1825 C1831 1.363 . S
C1826 C1827 1.363 . S
C1826 C1831 1.379 . S
C1826 N1833 1.356 . S
C1827 C1826 1.363 . S
C1827 C1830 1.363 . S
N1828 C1830 1.356 . S
N1828 H1840 0.984 . S
N1828 H1841 0.985 . S
N1829 C1831 1.356 . S
N1829 H1834 0.984 . S
N1829 H1835 0.985 . S
C1830 C1824 1.379 . S
C1830 C1827 1.363 . S
C1830 N1828 1.356 . S
C1831 C1825 1.363 . S
C1831 C1826 1.379 . S
C1831 N1829 1.356 . S
N1832 C1824 1.356 . S
N1832 H1838 0.984 . S
N1832 H1839 0.984 . S
N1833 C1826 1.356 . S
N1833 H1836 0.984 . S
N1833 H1837 0.985 . S
H1834 N1829 0.984 . S
H1835 N1829 0.985 . S
H1836 N1833 0.984 . S
H1837 N1833 0.985 . S
H1838 N1832 0.984 . S
H1839 N1832 0.984 . S
H1840 N1828 0.984 . S
H1841 N1828 0.985 . S
C1842 C1843 1.363 . S
C1842 C1848 1.379 . S
C1842 N1850 1.356 . S
C1843 C1842 1.363 . S
C1843 C1849 1.363 . S
C1844 C1845 1.363 . S
C1844 C1849 1.379 . S
C1844 N1851 1.356 . S
C1845 C1844 1.363 . S
C1845 C1848 1.363 . S
N1846 C1848 1.356 . S
N1846 H1858 0.984 . S
N1846 H1859 0.985 . S
N1847 C1849 1.356 . S
N1847 H1852 0.984 . S
N1847 H1853 0.985 . S
C1848 C1842 1.379 . S
C1848 C1845 1.363 . S
C1848 N1846 1.356 . S
C1849 C1843 1.363 . S
C1849 C1844 1.379 . S
C1849 N1847 1.356 . S
N1850 C1842 1.356 . S
N1850 H1856 0.984 . S
N1850 H1857 0.984 . S
N1851 C1844 1.356 . S
N1851 H1854 0.984 . S
N1851 H1855 0.985 . S
H1852 N1847 0.984 . S
H1853 N1847 0.985 . S
H1854 N1851 0.984 . S
H1855 N1851 0.985 . S
H1856 N1850 0.984 . S
H1857 N1850 0.984 . S
H1858 N1846 0.984 . S
H1859 N1846 0.985 . S
C1860 C1861 1.363 . S
C1860 C1866 1.379 . S
C1860 N1868 1.356 . S
C1861 C1860 1.363 . S
C1861 C1867 1.363 . S
C1862 C1863 1.363 . S
C1862 C1867 1.379 . S
C1862 N1869 1.356 . S
C1863 C1862 1.363 . S
C1863 C1866 1.363 . S
N1864 C1866 1.356 . S
N1864 H1876 0.984 . S
N1864 H1877 0.985 . S
N1865 C1867 1.356 . S
N1865 H1870 0.984 . S
N1865 H1871 0.985 . S
C1866 C1860 1.379 . S
C1866 C1863 1.363 . S
C1866 N1864 1.356 . S
C1867 C1861 1.363 . S
C1867 C1862 1.379 . S
C1867 N1865 1.356 . S
N1868 C1860 1.356 . S
N1868 H1874 0.984 . S
N1868 H1875 0.984 . S
N1869 C1862 1.356 . S
N1869 H1872 0.984 . S
N1869 H1873 0.985 . S
H1870 N1865 0.984 . S
H1871 N1865 0.985 . S
H1872 N1869 0.984 . S
H1873 N1869 0.985 . S
H1874 N1868 0.984 . S
H1875 N1868 0.984 . S
H1876 N1864 0.984 . S
H1877 N1864 0.985 . S
C1878 C1879 1.363 . S
C1878 C1884 1.379 . S
C1878 N1886 1.356 . S
C1879 C1878 1.363 . S
C1879 C1885 1.363 . S
C1880 C1881 1.363 . S
C1880 C1885 1.379 . S
C1880 N1887 1.356 . S
C1881 C1880 1.363 . S
C1881 C1884 1.363 . S
N1882 C1884 1.356 . S
N1882 H1894 0.984 . S
N1882 H1895 0.985 . S
N1883 C1885 1.356 . S
N1883 H1888 0.984 . S
N1883 H1889 0.985 . S
C1884 C1878 1.379 . S
C1884 C1881 1.363 . S
C1884 N1882 1.356 . S
C1885 C1879 1.363 . S
C1885 C1880 1.379 . S
C1885 N1883 1.356 . S
N1886 C1878 1.356 . S
N1886 H1892 0.984 . S
N1886 H1893 0.984 . S
N1887 C1880 1.356 . S
N1887 H1890 0.984 . S
N1887 H1891 0.985 . S
H1888 N1883 0.984 . S
H1889 N1883 0.985 . S
H1890 N1887 0.984 . S
H1891 N1887 0.985 . S
H1892 N1886 0.984 . S
H1893 N1886 0.984 . S
H1894 N1882 0.984 . S
H1895 N1882 0.985 . S
C1896 C1897 1.363 . S
C1896 C1902 1.379 . S
C1896 N1904 1.356 . S
C1897 C1896 1.363 . S
C1897 C1903 1.363 . S
C1898 C1899 1.363 . S
C1898 C1903 1.379 . S
C1898 N1905 1.356 . S
C1899 C1898 1.363 . S
C1899 C1902 1.363 . S
N1900 C1902 1.356 . S
N1900 H1912 0.984 . S
N1900 H1913 0.985 . S
N1901 C1903 1.356 . S
N1901 H1906 0.984 . S
N1901 H1907 0.985 . S
C1902 C1896 1.379 . S
C1902 C1899 1.363 . S
C1902 N1900 1.356 . S
C1903 C1897 1.363 . S
C1903 C1898 1.379 . S
C1903 N1901 1.356 . S
N1904 C1896 1.356 . S
N1904 H1910 0.984 . S
N1904 H1911 0.984 . S
N1905 C1898 1.356 . S
N1905 H1908 0.984 . S
N1905 H1909 0.985 . S
H1906 N1901 0.984 . S
H1907 N1901 0.985 . S
H1908 N1905 0.984 . S
H1909 N1905 0.985 . S
H1910 N1904 0.984 . S
H1911 N1904 0.984 . S
H1912 N1900 0.984 . S
H1913 N1900 0.985 . S
C1914 C1915 1.363 . S
C1914 C1920 1.379 . S
C1914 N1922 1.356 . S
C1915 C1914 1.363 . S
C1915 C1921 1.363 . S
C1916 C1917 1.363 . S
C1916 C1921 1.379 . S
C1916 N1923 1.356 . S
C1917 C1916 1.363 . S
C1917 C1920 1.363 . S
N1918 C1920 1.356 . S
N1918 H1930 0.984 . S
N1918 H1931 0.985 . S
N1919 C1921 1.356 . S
N1919 H1924 0.984 . S
N1919 H1925 0.985 . S
C1920 C1914 1.379 . S
C1920 C1917 1.363 . S
C1920 N1918 1.356 . S
C1921 C1915 1.363 . S
C1921 C1916 1.379 . S
C1921 N1919 1.356 . S
N1922 C1914 1.356 . S
N1922 H1928 0.984 . S
N1922 H1929 0.984 . S
N1923 C1916 1.356 . S
N1923 H1926 0.984 . S
N1923 H1927 0.985 . S
H1924 N1919 0.984 . S
H1925 N1919 0.985 . S
H1926 N1923 0.984 . S
H1927 N1923 0.985 . S
H1928 N1922 0.984 . S
H1929 N1922 0.984 . S
H1930 N1918 0.984 . S
H1931 N1918 0.985 . S
C1932 C1933 1.363 . S
C1932 C1938 1.379 . S
C1932 N1940 1.356 . S
C1933 C1932 1.363 . S
C1933 C1939 1.363 . S
C1934 C1935 1.363 . S
C1934 C1939 1.379 . S
C1934 N1941 1.356 . S
C1935 C1934 1.363 . S
C1935 C1938 1.363 . S
N1936 C1938 1.356 . S
N1936 H1948 0.984 . S
N1936 H1949 0.985 . S
N1937 C1939 1.356 . S
N1937 H1942 0.984 . S
N1937 H1943 0.985 . S
C1938 C1932 1.379 . S
C1938 C1935 1.363 . S
C1938 N1936 1.356 . S
C1939 C1933 1.363 . S
C1939 C1934 1.379 . S
C1939 N1937 1.356 . S
N1940 C1932 1.356 . S
N1940 H1946 0.984 . S
N1940 H1947 0.984 . S
N1941 C1934 1.356 . S
N1941 H1944 0.984 . S
N1941 H1945 0.985 . S
H1942 N1937 0.984 . S
H1943 N1937 0.985 . S
H1944 N1941 0.984 . S
H1945 N1941 0.985 . S
H1946 N1940 0.984 . S
H1947 N1940 0.984 . S
H1948 N1936 0.984 . S
H1949 N1936 0.985 . S
C1950 C1951 1.363 . S
C1950 C1956 1.379 . S
C1950 N1958 1.356 . S
C1951 C1950 1.363 . S
C1951 C1957 1.363 . S
C1952 C1953 1.363 . S
C1952 C1957 1.379 . S
C1952 N1959 1.356 . S
C1953 C1952 1.363 . S
C1953 C1956 1.363 . S
N1954 C1956 1.356 . S
N1954 H1966 0.984 . S
N1954 H1967 0.985 . S
N1955 C1957 1.356 . S
N1955 H1960 0.984 . S
N1955 H1961 0.985 . S
C1956 C1950 1.379 . S
C1956 C1953 1.363 . S
C1956 N1954 1.356 . S
C1957 C1951 1.363 . S
C1957 C1952 1.379 . S
C1957 N1955 1.356 . S
N1958 C1950 1.356 . S
N1958 H1964 0.984 . S
N1958 H1965 0.984 . S
N1959 C1952 1.356 . S
N1959 H1962 0.984 . S
N1959 H1963 0.985 . S
H1960 N1955 0.984 . S
H1961 N1955 0.985 . S
H1962 N1959 0.984 . S
H1963 N1959 0.985 . S
H1964 N1958 0.984 . S
H1965 N1958 0.984 . S
H1966 N1954 0.984 . S
H1967 N1954 0.985 . S
C1968 C1969 1.363 . S
C1968 C1974 1.379 . S
C1968 N1976 1.356 . S
C1969 C1968 1.363 . S
C1969 C1975 1.363 1_655 S
C1970 C1971 1.363 1_455 S
C1970 C1975 1.379 . S
C1970 N1977 1.356 . S
C1971 C1970 1.363 1_655 S
C1971 C1974 1.363 . S
N1972 C1974 1.356 . S
N1972 H1984 0.984 . S
N1972 H1985 0.985 . S
N1973 C1975 1.356 . S
N1973 H1978 0.984 . S
N1973 H1979 0.985 . S
C1974 C1968 1.379 . S
C1974 C1971 1.363 . S
C1974 N1972 1.356 . S
C1975 C1969 1.363 1_455 S
C1975 C1970 1.379 . S
C1975 N1973 1.356 . S
N1976 C1968 1.356 . S
N1976 H1982 0.984 . S
N1976 H1983 0.984 . S
N1977 C1970 1.356 . S
N1977 H1980 0.984 . S
N1977 H1981 0.985 . S
H1978 N1973 0.984 . S
H1979 N1973 0.985 . S
H1980 N1977 0.984 . S
H1981 N1977 0.985 . S
H1982 N1976 0.984 . S
H1983 N1976 0.984 . S
H1984 N1972 0.984 . S
H1985 N1972 0.985 . S
C1986 C1987 1.363 . S
C1986 C1992 1.379 . S
C1986 N1994 1.356 . S
C1987 C1986 1.363 . S
C1987 C1993 1.363 . S
C1988 C1989 1.363 . S
C1988 C1993 1.379 . S
C1988 N1995 1.356 . S
C1989 C1988 1.363 . S
C1989 C1992 1.363 . S
N1990 C1992 1.356 . S
N1990 H2002 0.984 . S
N1990 H2003 0.985 . S
N1991 C1993 1.356 . S
N1991 H1996 0.984 . S
N1991 H1997 0.985 . S
C1992 C1986 1.379 . S
C1992 C1989 1.363 . S
C1992 N1990 1.356 . S
C1993 C1987 1.363 . S
C1993 C1988 1.379 . S
C1993 N1991 1.356 . S
N1994 C1986 1.356 . S
N1994 H2000 0.984 . S
N1994 H2001 0.984 . S
N1995 C1988 1.356 . S
N1995 H1998 0.984 . S
N1995 H1999 0.985 . S
H1996 N1991 0.984 . S
H1997 N1991 0.985 . S
H1998 N1995 0.984 . S
H1999 N1995 0.985 . S
H2000 N1994 0.984 . S
H2001 N1994 0.984 . S
H2002 N1990 0.984 . S
H2003 N1990 0.985 . S
C2004 C2005 1.363 . S
C2004 C2010 1.379 . S
C2004 N2012 1.356 . S
C2005 C2004 1.363 . S
C2005 C2011 1.363 . S
C2006 C2007 1.363 . S
C2006 C2011 1.379 . S
C2006 N2013 1.356 . S
C2007 C2006 1.363 . S
C2007 C2010 1.363 . S
N2008 C2010 1.356 . S
N2008 H2020 0.984 . S
N2008 H2021 0.985 . S
N2009 C2011 1.356 . S
N2009 H2014 0.984 . S
N2009 H2015 0.985 . S
C2010 C2004 1.379 . S
C2010 C2007 1.363 . S
C2010 N2008 1.356 . S
C2011 C2005 1.363 . S
C2011 C2006 1.379 . S
C2011 N2009 1.356 . S
N2012 C2004 1.356 . S
N2012 H2018 0.984 . S
N2012 H2019 0.984 . S
N2013 C2006 1.356 . S
N2013 H2016 0.984 . S
N2013 H2017 0.985 . S
H2014 N2009 0.984 . S
H2015 N2009 0.985 . S
H2016 N2013 0.984 . S
H2017 N2013 0.985 . S
H2018 N2012 0.984 . S
H2019 N2012 0.984 . S
H2020 N2008 0.984 . S
H2021 N2008 0.985 . S
C2022 C2023 1.363 1_554 S
C2022 C2028 1.379 . S
C2022 N2030 1.356 . S
C2023 C2022 1.363 1_556 S
C2023 C2029 1.363 . S
C2024 C2025 1.363 . S
C2024 C2029 1.379 . S
C2024 N2031 1.356 . S
C2025 C2024 1.363 . S
C2025 C2028 1.363 1_556 S
N2026 C2028 1.356 . S
N2026 H2038 0.984 . S
N2026 H2039 0.985 . S
N2027 C2029 1.356 . S
N2027 H2032 0.984 . S
N2027 H2033 0.985 . S
C2028 C2022 1.379 . S
C2028 C2025 1.363 1_554 S
C2028 N2026 1.356 . S
C2029 C2023 1.363 . S
C2029 C2024 1.379 . S
C2029 N2027 1.356 . S
N2030 C2022 1.356 . S
N2030 H2036 0.984 . S
N2030 H2037 0.984 . S
N2031 C2024 1.356 . S
N2031 H2034 0.984 . S
N2031 H2035 0.985 . S
H2032 N2027 0.984 . S
H2033 N2027 0.985 . S
H2034 N2031 0.984 . S
H2035 N2031 0.985 . S
H2036 N2030 0.984 . S
H2037 N2030 0.984 . S
H2038 N2026 0.984 . S
H2039 N2026 0.985 . S
C2040 C2041 1.363 1_455 S
C2040 C2046 1.380 . S
C2040 N2048 1.356 . S
C2041 C2040 1.363 1_655 S
C2041 C2047 1.363 . S
C2042 C2043 1.363 . S
C2042 C2047 1.379 . S
C2042 N2049 1.356 . S
C2043 C2042 1.363 . S
C2043 C2046 1.347 1_655 S
N2044 C2046 1.369 . S
N2044 H2056 0.984 . S
N2044 H2057 0.985 . S
N2045 C2047 1.356 . S
N2045 H2050 0.984 . S
N2045 H2051 0.985 . S
C2046 C2040 1.380 . S
C2046 C2043 1.347 1_455 S
C2046 N2044 1.369 . S
C2047 C2041 1.363 . S
C2047 C2042 1.379 . S
C2047 N2045 1.356 . S
N2048 C2040 1.356 . S
N2048 H2054 0.984 . S
N2048 H2055 0.984 . S
N2049 C2042 1.356 . S
N2049 H2052 0.984 . S
N2049 H2053 0.985 . S
H2050 N2045 0.984 . S
H2051 N2045 0.985 . S
H2052 N2049 0.984 . S
H2053 N2049 0.985 . S
H2054 N2048 0.984 . S
H2055 N2048 0.984 . S
H2056 N2044 0.984 . S
H2057 N2044 0.985 . S
C2058 C2059 1.363 . S
C2058 C2064 1.379 . S
C2058 N2066 1.356 . S
C2059 C2058 1.363 . S
C2059 C2065 1.363 . S
C2060 C2061 1.363 . S
C2060 C2065 1.379 . S
C2060 N2067 1.356 . S
C2061 C2060 1.363 . S
C2061 C2064 1.363 . S
N2062 C2064 1.356 . S
N2062 H2074 0.984 . S
N2062 H2075 0.985 . S
N2063 C2065 1.356 . S
N2063 H2068 0.984 . S
N2063 H2069 0.985 . S
C2064 C2058 1.379 . S
C2064 C2061 1.363 . S
C2064 N2062 1.356 . S
C2065 C2059 1.363 . S
C2065 C2060 1.379 . S
C2065 N2063 1.356 . S
N2066 C2058 1.356 . S
N2066 H2072 0.984 . S
N2066 H2073 0.984 . S
N2067 C2060 1.356 . S
N2067 H2070 0.984 . S
N2067 H2071 0.985 . S
H2068 N2063 0.984 . S
H2069 N2063 0.985 . S
H2070 N2067 0.984 . S
H2071 N2067 0.985 . S
H2072 N2066 0.984 . S
H2073 N2066 0.984 . S
H2074 N2062 0.984 . S
H2075 N2062 0.985 . S
C2076 C2077 1.363 . S
C2076 C2082 1.379 . S
C2076 N2084 1.356 . S
C2077 C2076 1.363 . S
C2077 C2083 1.363 . S
C2078 C2079 1.363 . S
C2078 C2083 1.379 . S
C2078 N2085 1.356 . S
C2079 C2078 1.363 . S
C2079 C2082 1.363 . S
N2080 C2082 1.356 . S
N2080 H2092 0.984 . S
N2080 H2093 0.985 . S
N2081 C2083 1.356 . S
N2081 H2086 0.984 . S
N2081 H2087 0.985 . S
C2082 C2076 1.379 . S
C2082 C2079 1.363 . S
C2082 N2080 1.356 . S
C2083 C2077 1.363 . S
C2083 C2078 1.379 . S
C2083 N2081 1.356 . S
N2084 C2076 1.356 . S
N2084 H2090 0.984 . S
N2084 H2091 0.984 . S
N2085 C2078 1.356 . S
N2085 H2088 0.984 . S
N2085 H2089 0.985 . S
H2086 N2081 0.984 . S
H2087 N2081 0.985 . S
H2088 N2085 0.984 . S
H2089 N2085 0.985 . S
H2090 N2084 0.984 . S
H2091 N2084 0.984 . S
H2092 N2080 0.984 . S
H2093 N2080 0.985 . S
C2094 C2095 1.363 . S
C2094 C2100 1.379 . S
C2094 N2102 1.356 . S
C2095 C2094 1.363 . S
C2095 C2101 1.363 . S
C2096 C2097 1.363 . S
C2096 C2101 1.379 . S
C2096 N2103 1.356 . S
C2097 C2096 1.363 . S
C2097 C2100 1.363 . S
N2098 C2100 1.356 . S
N2098 H2110 0.984 . S
N2098 H2111 0.985 . S
N2099 C2101 1.356 . S
N2099 H2104 0.984 . S
N2099 H2105 0.985 . S
C2100 C2094 1.379 . S
C2100 C2097 1.363 . S
C2100 N2098 1.356 . S
C2101 C2095 1.363 . S
C2101 C2096 1.379 . S
C2101 N2099 1.356 . S
N2102 C2094 1.356 . S
N2102 H2108 0.984 . S
N2102 H2109 0.984 . S
N2103 C2096 1.356 . S
N2103 H2106 0.984 . S
N2103 H2107 0.985 . S
H2104 N2099 0.984 . S
H2105 N2099 0.985 . S
H2106 N2103 0.984 . S
H2107 N2103 0.985 . S
H2108 N2102 0.984 . S
H2109 N2102 0.984 . S
H2110 N2098 0.984 . S
H2111 N2098 0.985 . S
C2112 C2113 1.363 1_545 S
C2112 C2118 1.379 . S
C2112 N2120 1.356 . S
C2113 C2112 1.363 1_565 S
C2113 C2119 1.363 . S
C2114 C2115 1.363 . S
C2114 C2119 1.379 . S
C2114 N2121 1.356 . S
C2115 C2114 1.363 . S
C2115 C2118 1.363 1_565 S
N2116 C2118 1.356 . S
N2116 H2128 0.984 . S
N2116 H2129 0.985 . S
N2117 C2119 1.356 . S
N2117 H2122 0.984 . S
N2117 H2123 0.985 . S
C2118 C2112 1.379 . S
C2118 C2115 1.363 1_545 S
C2118 N2116 1.356 . S
C2119 C2113 1.363 . S
C2119 C2114 1.379 . S
C2119 N2117 1.356 . S
N2120 C2112 1.356 . S
N2120 H2126 0.984 . S
N2120 H2127 0.984 . S
N2121 C2114 1.356 . S
N2121 H2124 0.984 . S
N2121 H2125 0.985 . S
H2122 N2117 0.984 . S
H2123 N2117 0.985 . S
H2124 N2121 0.984 . S
H2125 N2121 0.985 . S
H2126 N2120 0.984 . S
H2127 N2120 0.984 . S
H2128 N2116 0.984 . S
H2129 N2116 0.985 . S
C2130 C2131 1.363 . S
C2130 C2136 1.379 . S
C2130 N2138 1.356 . S
C2131 C2130 1.363 . S
C2131 C2137 1.363 1_565 S
C2132 C2133 1.363 1_545 S
C2132 C2137 1.379 . S
C2132 N2139 1.356 . S
C2133 C2132 1.363 1_565 S
C2133 C2136 1.363 . S
N2134 C2136 1.356 . S
N2134 H2146 0.984 . S
N2134 H2147 0.985 . S
N2135 C2137 1.356 . S
N2135 H2140 0.984 . S
N2135 H2141 0.985 . S
C2136 C2130 1.379 . S
C2136 C2133 1.363 . S
C2136 N2134 1.356 . S
C2137 C2131 1.363 1_545 S
C2137 C2132 1.379 . S
C2137 N2135 1.356 . S
N2138 C2130 1.356 . S
N2138 H2144 0.984 . S
N2138 H2145 0.984 . S
N2139 C2132 1.356 . S
N2139 H2142 0.984 . S
N2139 H2143 0.985 . S
H2140 N2135 0.984 . S
H2141 N2135 0.985 . S
H2142 N2139 0.984 . S
H2143 N2139 0.985 . S
H2144 N2138 0.984 . S
H2145 N2138 0.984 . S
H2146 N2134 0.984 . S
H2147 N2134 0.985 . S
C2148 C2149 1.363 . S
C2148 C2154 1.379 . S
C2148 N2156 1.356 . S
C2149 C2148 1.363 . S
C2149 C2155 1.363 . S
C2150 C2151 1.363 . S
C2150 C2155 1.379 . S
C2150 N2157 1.356 . S
C2151 C2150 1.363 . S
C2151 C2154 1.363 . S
N2152 C2154 1.356 . S
N2152 H2164 0.984 . S
N2152 H2165 0.985 . S
N2153 C2155 1.356 . S
N2153 H2158 0.984 . S
N2153 H2159 0.985 . S
C2154 C2148 1.379 . S
C2154 C2151 1.363 . S
C2154 N2152 1.356 . S
C2155 C2149 1.363 . S
C2155 C2150 1.379 . S
C2155 N2153 1.356 . S
N2156 C2148 1.356 . S
N2156 H2162 0.984 . S
N2156 H2163 0.984 . S
N2157 C2150 1.356 . S
N2157 H2160 0.984 . S
N2157 H2161 0.985 . S
H2158 N2153 0.984 . S
H2159 N2153 0.985 . S
H2160 N2157 0.984 . S
H2161 N2157 0.985 . S
H2162 N2156 0.984 . S
H2163 N2156 0.984 . S
H2164 N2152 0.984 . S
H2165 N2152 0.985 . S
C2166 C2167 1.363 . S
C2166 C2172 1.379 . S
C2166 N2174 1.356 . S
C2167 C2166 1.363 . S
C2167 C2173 1.363 . S
C2168 C2169 1.363 . S
C2168 C2173 1.379 . S
C2168 N2175 1.356 . S
C2169 C2168 1.363 . S
C2169 C2172 1.363 . S
N2170 C2172 1.356 . S
N2170 H2182 0.984 . S
N2170 H2183 0.985 . S
N2171 C2173 1.356 . S
N2171 H2176 0.984 . S
N2171 H2177 0.985 . S
C2172 C2166 1.379 . S
C2172 C2169 1.363 . S
C2172 N2170 1.356 . S
C2173 C2167 1.363 . S
C2173 C2168 1.379 . S
C2173 N2171 1.356 . S
N2174 C2166 1.356 . S
N2174 H2180 0.984 . S
N2174 H2181 0.984 . S
N2175 C2168 1.356 . S
N2175 H2178 0.984 . S
N2175 H2179 0.985 . S
H2176 N2171 0.984 . S
H2177 N2171 0.985 . S
H2178 N2175 0.984 . S
H2179 N2175 0.985 . S
H2180 N2174 0.984 . S
H2181 N2174 0.984 . S
H2182 N2170 0.984 . S
H2183 N2170 0.985 . S
C2184 C2185 1.363 . S
C2184 C2190 1.379 . S
C2184 N2192 1.356 . S
C2185 C2184 1.363 . S
C2185 C2191 1.363 1_556 S
C2186 C2187 1.363 1_554 S
C2186 C2191 1.379 . S
C2186 N2193 1.356 . S
C2187 C2186 1.363 1_556 S
C2187 C2190 1.363 . S
N2188 C2190 1.356 . S
N2188 H2200 0.984 . S
N2188 H2201 0.985 . S
N2189 C2191 1.356 . S
N2189 H2194 0.984 . S
N2189 H2195 0.985 . S
C2190 C2184 1.379 . S
C2190 C2187 1.363 . S
C2190 N2188 1.356 . S
C2191 C2185 1.363 1_554 S
C2191 C2186 1.379 . S
C2191 N2189 1.356 . S
N2192 C2184 1.356 . S
N2192 H2198 0.984 . S
N2192 H2199 0.984 . S
N2193 C2186 1.356 . S
N2193 H2196 0.984 . S
N2193 H2197 0.985 . S
H2194 N2189 0.984 . S
H2195 N2189 0.985 . S
H2196 N2193 0.984 . S
H2197 N2193 0.985 . S
H2198 N2192 0.984 . S
H2199 N2192 0.984 . S
H2200 N2188 0.984 . S
H2201 N2188 0.985 . S
C2202 C2203 1.363 . S
C2202 C2208 1.379 . S
C2202 N2210 1.356 . S
C2203 C2202 1.363 . S
C2203 C2209 1.363 . S
C2204 C2205 1.363 . S
C2204 C2209 1.379 . S
C2204 N2211 1.356 . S
C2205 C2204 1.363 . S
C2205 C2208 1.363 . S
N2206 C2208 1.356 . S
N2206 H2218 0.984 . S
N2206 H2219 0.985 . S
N2207 C2209 1.356 . S
N2207 H2212 0.984 . S
N2207 H2213 0.985 . S
C2208 C2202 1.379 . S
C2208 C2205 1.363 . S
C2208 N2206 1.356 . S
C2209 C2203 1.363 . S
C2209 C2204 1.379 . S
C2209 N2207 1.356 . S
N2210 C2202 1.356 . S
N2210 H2216 0.984 . S
N2210 H2217 0.984 . S
N2211 C2204 1.356 . S
N2211 H2214 0.984 . S
N2211 H2215 0.985 . S
H2212 N2207 0.984 . S
H2213 N2207 0.985 . S
H2214 N2211 0.984 . S
H2215 N2211 0.985 . S
H2216 N2210 0.984 . S
H2217 N2210 0.984 . S
H2218 N2206 0.984 . S
H2219 N2206 0.985 . S
C2220 C2221 1.363 . S
C2220 C2226 1.379 . S
C2220 N2228 1.356 . S
C2221 C2220 1.363 . S
C2221 C2227 1.363 . S
C2222 C2223 1.363 . S
C2222 C2227 1.379 . S
C2222 N2229 1.356 . S
C2223 C2222 1.363 . S
C2223 C2226 1.363 . S
N2224 C2226 1.356 . S
N2224 H2236 0.984 . S
N2224 H2237 0.985 . S
N2225 C2227 1.356 . S
N2225 H2230 0.984 . S
N2225 H2231 0.985 . S
C2226 C2220 1.379 . S
C2226 C2223 1.363 . S
C2226 N2224 1.356 . S
C2227 C2221 1.363 . S
C2227 C2222 1.379 . S
C2227 N2225 1.356 . S
N2228 C2220 1.356 . S
N2228 H2234 0.984 . S
N2228 H2235 0.984 . S
N2229 C2222 1.356 . S
N2229 H2232 0.984 . S
N2229 H2233 0.985 . S
H2230 N2225 0.984 . S
H2231 N2225 0.985 . S
H2232 N2229 0.984 . S
H2233 N2229 0.985 . S
H2234 N2228 0.984 . S
H2235 N2228 0.984 . S
H2236 N2224 0.984 . S
H2237 N2224 0.985 . S
C2238 C2239 1.363 . S
C2238 C2244 1.379 . S
C2238 N2246 1.356 . S
C2239 C2238 1.363 . S
C2239 C2245 1.363 . S
C2240 C2241 1.363 . S
C2240 C2245 1.379 . S
C2240 N2247 1.356 . S
C2241 C2240 1.363 . S
C2241 C2244 1.363 . S
N2242 C2244 1.356 . S
N2242 H2254 0.984 . S
N2242 H2255 0.985 . S
N2243 C2245 1.356 . S
N2243 H2248 0.984 . S
N2243 H2249 0.985 . S
C2244 C2238 1.379 . S
C2244 C2241 1.363 . S
C2244 N2242 1.356 . S
C2245 C2239 1.363 . S
C2245 C2240 1.379 . S
C2245 N2243 1.356 . S
N2246 C2238 1.356 . S
N2246 H2252 0.984 . S
N2246 H2253 0.984 . S
N2247 C2240 1.356 . S
N2247 H2250 0.984 . S
N2247 H2251 0.985 . S
H2248 N2243 0.984 . S
H2249 N2243 0.985 . S
H2250 N2247 0.984 . S
H2251 N2247 0.985 . S
H2252 N2246 0.984 . S
H2253 N2246 0.984 . S
H2254 N2242 0.984 . S
H2255 N2242 0.985 . S
C2256 C2257 1.363 . S
C2256 C2262 1.379 . S
C2256 N2264 1.356 . S
C2257 C2256 1.363 . S
C2257 C2263 1.363 . S
C2258 C2259 1.363 . S
C2258 C2263 1.379 . S
C2258 N2265 1.356 . S
C2259 C2258 1.363 . S
C2259 C2262 1.363 . S
N2260 C2262 1.356 . S
N2260 H2272 0.984 . S
N2260 H2273 0.985 . S
N2261 C2263 1.356 . S
N2261 H2266 0.984 . S
N2261 H2267 0.985 . S
C2262 C2256 1.379 . S
C2262 C2259 1.363 . S
C2262 N2260 1.356 . S
C2263 C2257 1.363 . S
C2263 C2258 1.379 . S
C2263 N2261 1.356 . S
N2264 C2256 1.356 . S
N2264 H2270 0.984 . S
N2264 H2271 0.984 . S
N2265 C2258 1.356 . S
N2265 H2268 0.984 . S
N2265 H2269 0.985 . S
H2266 N2261 0.984 . S
H2267 N2261 0.985 . S
H2268 N2265 0.984 . S
H2269 N2265 0.985 . S
H2270 N2264 0.984 . S
H2271 N2264 0.984 . S
H2272 N2260 0.984 . S
H2273 N2260 0.985 . S
C2274 C2275 1.363 . S
C2274 C2280 1.379 . S
C2274 N2282 1.356 . S
C2275 C2274 1.363 . S
C2275 C2281 1.363 . S
C2276 C2277 1.363 . S
C2276 C2281 1.379 . S
C2276 N2283 1.356 . S
C2277 C2276 1.363 . S
C2277 C2280 1.363 . S
N2278 C2280 1.356 . S
N2278 H2290 0.984 . S
N2278 H2291 0.985 . S
N2279 C2281 1.356 . S
N2279 H2284 0.984 . S
N2279 H2285 0.985 . S
C2280 C2274 1.379 . S
C2280 C2277 1.363 . S
C2280 N2278 1.356 . S
C2281 C2275 1.363 . S
C2281 C2276 1.379 . S
C2281 N2279 1.356 . S
N2282 C2274 1.356 . S
N2282 H2288 0.984 . S
N2282 H2289 0.984 . S
N2283 C2276 1.356 . S
N2283 H2286 0.984 . S
N2283 H2287 0.985 . S
H2284 N2279 0.984 . S
H2285 N2279 0.985 . S
H2286 N2283 0.984 . S
H2287 N2283 0.985 . S
H2288 N2282 0.984 . S
H2289 N2282 0.984 . S
H2290 N2278 0.984 . S
H2291 N2278 0.985 . S
C2292 C2293 1.363 . S
C2292 C2298 1.379 . S
C2292 N2300 1.356 . S
C2293 C2292 1.363 . S
C2293 C2299 1.363 . S
C2294 C2295 1.363 . S
C2294 C2299 1.379 . S
C2294 N2301 1.356 . S
C2295 C2294 1.363 . S
C2295 C2298 1.363 . S
N2296 C2298 1.356 . S
N2296 H2308 0.984 . S
N2296 H2309 0.985 . S
N2297 C2299 1.356 . S
N2297 H2302 0.984 . S
N2297 H2303 0.985 . S
C2298 C2292 1.379 . S
C2298 C2295 1.363 . S
C2298 N2296 1.356 . S
C2299 C2293 1.363 . S
C2299 C2294 1.379 . S
C2299 N2297 1.356 . S
N2300 C2292 1.356 . S
N2300 H2306 0.984 . S
N2300 H2307 0.984 . S
N2301 C2294 1.356 . S
N2301 H2304 0.984 . S
N2301 H2305 0.985 . S
H2302 N2297 0.984 . S
H2303 N2297 0.985 . S
H2304 N2301 0.984 . S
H2305 N2301 0.985 . S
H2306 N2300 0.984 . S
H2307 N2300 0.984 . S
H2308 N2296 0.984 . S
H2309 N2296 0.985 . S
C2310 C2311 1.363 . S
C2310 C2316 1.379 . S
C2310 N2318 1.356 . S
C2311 C2310 1.363 . S
C2311 C2317 1.363 . S
C2312 C2313 1.363 . S
C2312 C2317 1.379 . S
C2312 N2319 1.356 . S
C2313 C2312 1.363 . S
C2313 C2316 1.363 . S
N2314 C2316 1.356 . S
N2314 H2326 0.984 . S
N2314 H2327 0.985 . S
N2315 C2317 1.356 . S
N2315 H2320 0.984 . S
N2315 H2321 0.985 . S
C2316 C2310 1.379 . S
C2316 C2313 1.363 . S
C2316 N2314 1.356 . S
C2317 C2311 1.363 . S
C2317 C2312 1.379 . S
C2317 N2315 1.356 . S
N2318 C2310 1.356 . S
N2318 H2324 0.984 . S
N2318 H2325 0.984 . S
N2319 C2312 1.356 . S
N2319 H2322 0.984 . S
N2319 H2323 0.985 . S
H2320 N2315 0.984 . S
H2321 N2315 0.985 . S
H2322 N2319 0.984 . S
H2323 N2319 0.985 . S
H2324 N2318 0.984 . S
H2325 N2318 0.984 . S
H2326 N2314 0.984 . S
H2327 N2314 0.985 . S
C2328 C2329 1.363 . S
C2328 C2334 1.379 . S
C2328 N2336 1.356 . S
C2329 C2328 1.363 . S
C2329 C2335 1.363 . S
C2330 C2331 1.363 . S
C2330 C2335 1.379 . S
C2330 N2337 1.356 . S
C2331 C2330 1.363 . S
C2331 C2334 1.363 . S
N2332 C2334 1.356 . S
N2332 H2344 0.984 . S
N2332 H2345 0.985 . S
N2333 C2335 1.356 . S
N2333 H2338 0.984 . S
N2333 H2339 0.985 . S
C2334 C2328 1.379 . S
C2334 C2331 1.363 . S
C2334 N2332 1.356 . S
C2335 C2329 1.363 . S
C2335 C2330 1.379 . S
C2335 N2333 1.356 . S
N2336 C2328 1.356 . S
N2336 H2342 0.984 . S
N2336 H2343 0.984 . S
N2337 C2330 1.356 . S
N2337 H2340 0.984 . S
N2337 H2341 0.985 . S
H2338 N2333 0.984 . S
H2339 N2333 0.985 . S
H2340 N2337 0.984 . S
H2341 N2337 0.985 . S
H2342 N2336 0.984 . S
H2343 N2336 0.984 . S
H2344 N2332 0.984 . S
H2345 N2332 0.985 . S
C2346 C2347 1.363 . S
C2346 C2352 1.379 . S
C2346 N2354 1.356 . S
C2347 C2346 1.363 . S
C2347 C2353 1.363 . S
C2348 C2349 1.363 . S
C2348 C2353 1.379 . S
C2348 N2355 1.356 . S
C2349 C2348 1.363 . S
C2349 C2352 1.363 . S
N2350 C2352 1.356 . S
N2350 H2362 0.984 . S
N2350 H2363 0.985 . S
N2351 C2353 1.356 . S
N2351 H2356 0.984 . S
N2351 H2357 0.985 . S
C2352 C2346 1.379 . S
C2352 C2349 1.363 . S
C2352 N2350 1.356 . S
C2353 C2347 1.363 . S
C2353 C2348 1.379 . S
C2353 N2351 1.356 . S
N2354 C2346 1.356 . S
N2354 H2360 0.984 . S
N2354 H2361 0.984 . S
N2355 C2348 1.356 . S
N2355 H2358 0.984 . S
N2355 H2359 0.985 . S
H2356 N2351 0.984 . S
H2357 N2351 0.985 . S
H2358 N2355 0.984 . S
H2359 N2355 0.985 . S
H2360 N2354 0.984 . S
H2361 N2354 0.984 . S
H2362 N2350 0.984 . S
H2363 N2350 0.985 . S
C2364 C2365 1.363 . S
C2364 C2370 1.379 . S
C2364 N2372 1.356 . S
C2365 C2364 1.363 . S
C2365 C2371 1.363 . S
C2366 C2367 1.363 . S
C2366 C2371 1.379 . S
C2366 N2373 1.356 . S
C2367 C2366 1.363 . S
C2367 C2370 1.363 . S
N2368 C2370 1.356 . S
N2368 H2380 0.984 . S
N2368 H2381 0.985 . S
N2369 C2371 1.356 . S
N2369 H2374 0.984 . S
N2369 H2375 0.985 . S
C2370 C2364 1.379 . S
C2370 C2367 1.363 . S
C2370 N2368 1.356 . S
C2371 C2365 1.363 . S
C2371 C2366 1.379 . S
C2371 N2369 1.356 . S
N2372 C2364 1.356 . S
N2372 H2378 0.984 . S
N2372 H2379 0.984 . S
N2373 C2366 1.356 . S
N2373 H2376 0.984 . S
N2373 H2377 0.985 . S
H2374 N2369 0.984 . S
H2375 N2369 0.985 . S
H2376 N2373 0.984 . S
H2377 N2373 0.985 . S
H2378 N2372 0.984 . S
H2379 N2372 0.984 . S
H2380 N2368 0.984 . S
H2381 N2368 0.985 . S
C2382 C2383 1.363 . S
C2382 C2388 1.379 . S
C2382 N2390 1.356 . S
C2383 C2382 1.363 . S
C2383 C2389 1.363 . S
C2384 C2385 1.363 . S
C2384 C2389 1.379 . S
C2384 N2391 1.356 . S
C2385 C2384 1.363 . S
C2385 C2388 1.363 . S
N2386 C2388 1.356 . S
N2386 H2398 0.984 . S
N2386 H2399 0.985 . S
N2387 C2389 1.356 . S
N2387 H2392 0.984 . S
N2387 H2393 0.985 . S
C2388 C2382 1.379 . S
C2388 C2385 1.363 . S
C2388 N2386 1.356 . S
C2389 C2383 1.363 . S
C2389 C2384 1.379 . S
C2389 N2387 1.356 . S
N2390 C2382 1.356 . S
N2390 H2396 0.984 . S
N2390 H2397 0.984 . S
N2391 C2384 1.356 . S
N2391 H2394 0.984 . S
N2391 H2395 0.985 . S
H2392 N2387 0.984 . S
H2393 N2387 0.985 . S
H2394 N2391 0.984 . S
H2395 N2391 0.985 . S
H2396 N2390 0.984 . S
H2397 N2390 0.984 . S
H2398 N2386 0.984 . S
H2399 N2386 0.985 . S
C673 C7 1.316 . S
C675 C371 1.321 . S
C691 C385 1.573 . S
C693 C21 1.585 . S
C709 C35 1.679 . S
C711 C343 1.682 . S
C727 C357 1.777 . S
C729 C49 1.774 . S
C745 C63 1.493 . S
C747 C427 1.501 . S
C763 C77 1.668 . S
C765 C441 1.666 . S
C781 C91 1.786 . S
C783 C399 1.778 . S
C799 C105 1.406 . S
C801 C413 1.396 . S
C817 C175 1.327 . S
C819 C119 1.310 . S
C835 C133 1.774 . S
C837 C189 1.777 . S
C853 C203 1.493 . S
C855 C147 1.501 . S
C871 C161 1.395 . S
C873 C217 1.407 . S
C889 C609 1.327 . S
C891 C231 1.310 . S
C907 C637 1.493 . S
C909 C245 1.501 . S
C925 C315 1.777 . S
C927 C259 1.774 . S
C943 C567 1.682 . S
C945 C273 1.679 . S
C961 C665 1.395 . S
C963 C287 1.407 . S
C979 C581 1.786 . S
C981 C301 1.778 . S
C997 C329 1.668 . S
C999 C623 1.666 . S
C1015 C455 1.682 . S
C1017 C511 1.679 . S
C1033 C525 1.585 . S
C1035 C469 1.574 . S
C1051 C483 1.786 . S
C1053 C539 1.778 . S
C1069 C553 1.666 . S
C1071 C497 1.668 . S
C1087 C595 1.573 . S
C1089 C651 1.585 . S
C1105 C8 1.047 . S
C1107 C106 1.027 . S
C1123 C64 1.156 . S
C1125 C22 1.137 . S
C1141 C36 1.234 . S
C1143 C78 1.216 . S
C1159 C50 1.312 . S
C1161 C92 1.308 . S
C1177 C288 1.029 . S
C1179 C120 1.049 . S
C1195 C582 1.308 . S
C1197 C134 1.312 . S
C1213 C148 1.145 . S
C1215 C596 1.157 . S
C1231 C162 1.032 . S
C1233 C610 1.057 . S
C1249 C666 1.032 . S
C1251 C176 1.057 . S
C1267 C190 1.305 . S
C1269 C302 1.330 . S
C1285 C204 1.156 . S
C1287 C652 1.137 . S
C1303 C218 1.029 . S
C1305 C232 1.049 . S
C1321 C246 1.145 . S
C1323 C470 1.157 . S
C1339 C260 1.312 . S
C1341 C484 1.308 . S
C1357 C498 1.216 . S
C1359 C274 1.234 . S
C1375 C316 1.305 . S
C1377 C540 1.330 . S
C1393 C512 1.234 . S
C1395 C330 1.216 . S
C1411 C442 1.242 . S
C1413 C344 1.214 . S
C1429 C358 1.305 . S
C1431 C400 1.330 . S
C1447 C414 1.032 . S
C1449 C372 1.057 . S
C1465 C386 1.157 . S
C1467 C428 1.145 . S
C1483 C456 1.214 . S
C1485 C624 1.242 . S
C1501 C638 1.156 . S
C1503 C526 1.137 . S
C1519 C568 1.214 . S
C1521 C554 1.242 . S
C1537 C9 1.638 . S
C1539 C415 1.657 . S
C1555 C429 1.698 . S
C1557 C23 1.670 . S
C1573 C37 1.657 . S
C1575 C443 1.658 . S
C1591 C51 1.670 . S
C1593 C401 1.658 . S
C1609 C387 1.667 . S
C1611 C65 1.653 . S
C1627 C79 1.679 . S
C1629 C345 1.685 . S
C1645 C359 1.664 . S
C1647 C93 1.660 . S
C1663 C107 1.651 . S
C1665 C373 1.670 . S
C1681 C667 1.659 . S
C1683 C121 1.634 . S
C1699 C135 1.670 . S
C1701 C303 1.658 . S
C1717 C149 1.698 . S
C1719 C653 1.670 . S
C1735 C233 1.638 . S
C1737 C163 1.657 . S
C1753 C177 1.665 . S
C1755 C289 1.653 . S
C1771 C191 1.664 . S
C1773 C583 1.660 . S
C1789 C597 1.667 . S
C1791 C205 1.653 . S
C1807 C611 1.665 . S
C1809 C219 1.653 . S
C1825 C527 1.667 . S
C1827 C247 1.703 . S
C1843 C541 1.658 . S
C1845 C261 1.670 . S
C1861 C555 1.658 . S
C1863 C275 1.657 . S
C1879 C317 1.664 . S
C1881 C485 1.660 . S
C1897 C457 1.685 . S
C1899 C331 1.679 . S
C1915 C471 1.667 . S
C1917 C639 1.653 . S
C1933 C499 1.679 . S
C1935 C569 1.685 . S
C1951 C625 1.658 . S
C1953 C513 1.657 . S
C1969 C6 1.546 . S
C1971 C314 1.566 . S
C1987 C20 1.592 . S
C1989 C566 1.565 . S
C2005 C328 1.611 . S
C2007 C34 1.606 . S
C2023 C636 1.537 . S
C2025 C48 1.541 . S
C2041 C258 1.539 . S
C2043 C62 1.538 . S
C2059 C272 1.606 . S
C2061 C76 1.611 . S
C2077 C90 1.594 . S
C2079 C622 1.587 . S
C2095 C104 1.542 . S
C2097 C244 1.525 . S
C2113 C188 1.564 . S
C2115 C118 1.547 . S
C2131 C132 1.539 . S
C2133 C202 1.538 . S
C2149 C216 1.542 . S
C2151 C146 1.525 . S
C2167 C174 1.609 . S
C2169 C160 1.592 . S
C2185 C230 1.546 . S
C2187 C356 1.566 . S
C2203 C426 1.531 . S
C2205 C286 1.535 . S
C2221 C384 1.595 . S
C2223 C300 1.623 . S
C2239 C342 1.572 . S
C2241 C650 1.585 . S
C2257 C664 1.592 . S
C2259 C370 1.609 . S
C2275 C594 1.594 . S
C2277 C398 1.623 . S
C2293 C608 1.609 . S
C2295 C412 1.592 . S
C2311 C580 1.594 . S
C2313 C440 1.587 . S
C2329 C524 1.592 . S
C2331 C454 1.565 . S
C2347 C538 1.623 . S
C2349 C468 1.594 . S
C2365 C482 1.594 . S
C2367 C552 1.587 . S
C2383 C496 1.611 . S
C2385 C510 1.606 . S
