# Generated by pormake.
# Topology gme, (4)-cn, num edge types: 1
# Building blocks:
#     Node 0, Type 0, BuildingBlock: ICAMEG_clean_sbu_1, # of connection points: 4
#     Node 1, Type 0, BuildingBlock: ICAMEG_clean_sbu_1, # of connection points: 4
#     Node 2, Type 0, BuildingBlock: ICAMEG_clean_sbu_1, # of connection points: 4
#     Node 3, Type 0, BuildingBlock: ICAMEG_clean_sbu_1, # of connection points: 4
#     Node 4, Type 0, BuildingBlock: ICAMEG_clean_sbu_1, # of connection points: 4
#     Node 5, Type 0, BuildingBlock: ICAMEG_clean_sbu_1, # of connection points: 4
#     Node 6, Type 0, BuildingBlock: ICAMEG_clean_sbu_1, # of connection points: 4
#     Node 7, Type 0, BuildingBlock: ICAMEG_clean_sbu_1, # of connection points: 4
#     Node 8, Type 0, BuildingBlock: ICAMEG_clean_sbu_1, # of connection points: 4
#     Node 9, Type 0, BuildingBlock: ICAMEG_clean_sbu_1, # of connection points: 4
#     Node 10, Type 0, BuildingBlock: ICAMEG_clean_sbu_1, # of connection points: 4
#     Node 11, Type 0, BuildingBlock: ICAMEG_clean_sbu_1, # of connection points: 4
#     Node 12, Type 0, BuildingBlock: ICAMEG_clean_sbu_1, # of connection points: 4
#     Node 13, Type 0, BuildingBlock: ICAMEG_clean_sbu_1, # of connection points: 4
#     Node 14, Type 0, BuildingBlock: ICAMEG_clean_sbu_1, # of connection points: 4
#     Node 15, Type 0, BuildingBlock: ICAMEG_clean_sbu_1, # of connection points: 4
#     Node 16, Type 0, BuildingBlock: ICAMEG_clean_sbu_1, # of connection points: 4
#     Node 17, Type 0, BuildingBlock: ICAMEG_clean_sbu_1, # of connection points: 4
#     Node 18, Type 0, BuildingBlock: ICAMEG_clean_sbu_1, # of connection points: 4
#     Node 19, Type 0, BuildingBlock: ICAMEG_clean_sbu_1, # of connection points: 4
#     Node 20, Type 0, BuildingBlock: ICAMEG_clean_sbu_1, # of connection points: 4
#     Node 21, Type 0, BuildingBlock: ICAMEG_clean_sbu_1, # of connection points: 4
#     Node 22, Type 0, BuildingBlock: ICAMEG_clean_sbu_1, # of connection points: 4
#     Node 23, Type 0, BuildingBlock: ICAMEG_clean_sbu_1, # of connection points: 4
#     Edge 24, Type (0, 0), BuildingBlock: KIFKEQ_clean_linker_1, # of connection points: 2
#     Edge 25, Type (0, 0), BuildingBlock: KIFKEQ_clean_linker_1, # of connection points: 2
#     Edge 26, Type (0, 0), BuildingBlock: KIFKEQ_clean_linker_1, # of connection points: 2
#     Edge 27, Type (0, 0), BuildingBlock: KIFKEQ_clean_linker_1, # of connection points: 2
#     Edge 28, Type (0, 0), BuildingBlock: KIFKEQ_clean_linker_1, # of connection points: 2
#     Edge 29, Type (0, 0), BuildingBlock: KIFKEQ_clean_linker_1, # of connection points: 2
#     Edge 30, Type (0, 0), BuildingBlock: KIFKEQ_clean_linker_1, # of connection points: 2
#     Edge 31, Type (0, 0), BuildingBlock: KIFKEQ_clean_linker_1, # of connection points: 2
#     Edge 32, Type (0, 0), BuildingBlock: KIFKEQ_clean_linker_1, # of connection points: 2
#     Edge 33, Type (0, 0), BuildingBlock: KIFKEQ_clean_linker_1, # of connection points: 2
#     Edge 34, Type (0, 0), BuildingBlock: KIFKEQ_clean_linker_1, # of connection points: 2
#     Edge 35, Type (0, 0), BuildingBlock: KIFKEQ_clean_linker_1, # of connection points: 2
#     Edge 36, Type (0, 0), BuildingBlock: KIFKEQ_clean_linker_1, # of connection points: 2
#     Edge 37, Type (0, 0), BuildingBlock: KIFKEQ_clean_linker_1, # of connection points: 2
#     Edge 38, Type (0, 0), BuildingBlock: KIFKEQ_clean_linker_1, # of connection points: 2
#     Edge 39, Type (0, 0), BuildingBlock: KIFKEQ_clean_linker_1, # of connection points: 2
#     Edge 40, Type (0, 0), BuildingBlock: KIFKEQ_clean_linker_1, # of connection points: 2
#     Edge 41, Type (0, 0), BuildingBlock: KIFKEQ_clean_linker_1, # of connection points: 2
#     Edge 42, Type (0, 0), BuildingBlock: KIFKEQ_clean_linker_1, # of connection points: 2
#     Edge 43, Type (0, 0), BuildingBlock: KIFKEQ_clean_linker_1, # of connection points: 2
#     Edge 44, Type (0, 0), BuildingBlock: KIFKEQ_clean_linker_1, # of connection points: 2
#     Edge 45, Type (0, 0), BuildingBlock: KIFKEQ_clean_linker_1, # of connection points: 2
#     Edge 46, Type (0, 0), BuildingBlock: KIFKEQ_clean_linker_1, # of connection points: 2
#     Edge 47, Type (0, 0), BuildingBlock: KIFKEQ_clean_linker_1, # of connection points: 2
#     Edge 48, Type (0, 0), BuildingBlock: KIFKEQ_clean_linker_1, # of connection points: 2
#     Edge 49, Type (0, 0), BuildingBlock: KIFKEQ_clean_linker_1, # of connection points: 2
#     Edge 50, Type (0, 0), BuildingBlock: KIFKEQ_clean_linker_1, # of connection points: 2
#     Edge 51, Type (0, 0), BuildingBlock: KIFKEQ_clean_linker_1, # of connection points: 2
#     Edge 52, Type (0, 0), BuildingBlock: KIFKEQ_clean_linker_1, # of connection points: 2
#     Edge 53, Type (0, 0), BuildingBlock: KIFKEQ_clean_linker_1, # of connection points: 2
#     Edge 54, Type (0, 0), BuildingBlock: KIFKEQ_clean_linker_1, # of connection points: 2
#     Edge 55, Type (0, 0), BuildingBlock: KIFKEQ_clean_linker_1, # of connection points: 2
#     Edge 56, Type (0, 0), BuildingBlock: KIFKEQ_clean_linker_1, # of connection points: 2
#     Edge 57, Type (0, 0), BuildingBlock: KIFKEQ_clean_linker_1, # of connection points: 2
#     Edge 58, Type (0, 0), BuildingBlock: KIFKEQ_clean_linker_1, # of connection points: 2
#     Edge 59, Type (0, 0), BuildingBlock: KIFKEQ_clean_linker_1, # of connection points: 2
#     Edge 60, Type (0, 0), BuildingBlock: KIFKEQ_clean_linker_1, # of connection points: 2
#     Edge 61, Type (0, 0), BuildingBlock: KIFKEQ_clean_linker_1, # of connection points: 2
#     Edge 62, Type (0, 0), BuildingBlock: KIFKEQ_clean_linker_1, # of connection points: 2
#     Edge 63, Type (0, 0), BuildingBlock: KIFKEQ_clean_linker_1, # of connection points: 2
#     Edge 64, Type (0, 0), BuildingBlock: KIFKEQ_clean_linker_1, # of connection points: 2
#     Edge 65, Type (0, 0), BuildingBlock: KIFKEQ_clean_linker_1, # of connection points: 2
#     Edge 66, Type (0, 0), BuildingBlock: KIFKEQ_clean_linker_1, # of connection points: 2
#     Edge 67, Type (0, 0), BuildingBlock: KIFKEQ_clean_linker_1, # of connection points: 2
#     Edge 68, Type (0, 0), BuildingBlock: KIFKEQ_clean_linker_1, # of connection points: 2
#     Edge 69, Type (0, 0), BuildingBlock: KIFKEQ_clean_linker_1, # of connection points: 2
#     Edge 70, Type (0, 0), BuildingBlock: KIFKEQ_clean_linker_1, # of connection points: 2
#     Edge 71, Type (0, 0), BuildingBlock: KIFKEQ_clean_linker_1, # of connection points: 2
# Relax obj value: 0.062
# Max RMSD: 0.066
# Mean RMSD: 0.066
data_MOF--net-gme--node1-ICAMEG_clean_sbu_1--edge1-KIFKEQ_clean_linker_1
_symmetry_space_group_name_H-M    P1
_symmetry_Int_Tables_number       1
_symmetry_cell_setting            triclinic
loop_
_symmetry_equiv_pos_as_xyz
'x, y, z'
_cell_length_a     59.961293
_cell_length_b     59.97068
_cell_length_c     61.14035
_cell_angle_alpha  89.9995
_cell_angle_beta   89.988906
_cell_angle_gamma 120.01726
loop_
_atom_site_label
_atom_site_type_symbol
_atom_site_fract_x
_atom_site_fract_y
_atom_site_fract_z
_atom_type_partial_charge
Co0 Co 0.42777 0.09713 0.12863 0.0
Co1 Co 0.38701 0.0314 0.1253 0.0
O2 O 0.39844 0.06677 0.1161 0.0
C3 C 0.38646 0.11062 0.13414 0.0
O4 O 0.37215 0.08874 0.14441 0.0
C5 C 0.39753 0.03255 0.07819 0.0
O6 O 0.41937 0.05357 0.08249 0.0
O7 O 0.42267 0.03696 0.12391 0.0
O8 O 0.44803 0.07914 0.13056 0.0
H9 H 0.3898 0.96215 0.16941 0.0
H10 H 0.40472 0.10159 0.08717 0.0
O11 O 0.40852 0.11626 0.12676 0.0
H12 H 0.4953 0.12997 0.06944 0.0
H13 H 0.48983 0.19233 0.13556 0.0
H14 H 0.46401 0.10618 0.16501 0.0
H15 H 0.47894 0.11691 0.10699 0.0
H16 H 0.45336 0.15351 0.11942 0.0
O17 O 0.38175 0.02047 0.09367 0.0
H18 H 0.40428 0.00685 0.15814 0.0
H19 H 0.34467 0.98022 0.11069 0.0
H20 H 0.50074 0.14448 0.18153 0.0
H21 H 0.42033 0.11475 0.04943 0.0
H22 H 0.51386 0.18794 0.16679 0.0
H23 H 0.46589 0.12895 0.04034 0.0
O24 O 0.4143 0.08534 0.15869 0.0
H25 H 0.31054 0.03596 0.09746 0.0
H26 H 0.3451 0.00871 0.15858 0.0
H27 H 0.30121 0.0023 0.16118 0.0
H28 H 0.28365 0.01592 0.13044 0.0
H29 H 0.3544 0.04219 0.09562 0.0
H30 H 0.32966 0.9352 0.12131 0.0
H31 H 0.35223 0.92595 0.15094 0.0
O32 O 0.39239 0.04199 0.15696 0.0
C33 C 0.44465 0.05663 0.12761 0.0
C34 C 0.37975 0.96593 0.15654 0.0
C35 C 0.34602 0.9508 0.12952 0.0
N36 N 0.37518 0.99612 0.13393 0.0
C37 C 0.3878 0.9912 0.15014 0.0
C38 C 0.35463 0.97632 0.12355 0.0
C39 C 0.35868 0.94563 0.14615 0.0
C40 C 0.42464 0.10799 0.08339 0.0
N41 N 0.4409 0.10848 0.09928 0.0
C42 C 0.43334 0.11533 0.06197 0.0
C43 C 0.4589 0.12325 0.05687 0.0
C44 C 0.4754 0.1238 0.07319 0.0
C45 C 0.46601 0.11629 0.09442 0.0
C46 C 0.48433 0.17349 0.1421 0.0
C47 C 0.46971 0.12502 0.15842 0.0
C48 C 0.46366 0.15144 0.13306 0.0
N49 N 0.4567 0.12759 0.14116 0.0
C50 C 0.49047 0.14664 0.16788 0.0
C51 C 0.49781 0.17101 0.15962 0.0
C52 C 0.40208 0.06315 0.16765 0.0
C53 C 0.31795 0.02987 0.11093 0.0
C54 C 0.33761 0.01475 0.14517 0.0
C55 C 0.31273 0.01102 0.14671 0.0
C56 C 0.30289 0.01866 0.12945 0.0
N57 N 0.35223 0.02568 0.12691 0.0
C58 C 0.34274 0.03327 0.10995 0.0
Co59 Co 0.33227 0.4266 0.63145 0.0
Co60 Co 0.35689 0.38561 0.62841 0.0
O61 O 0.33364 0.39759 0.61869 0.0
C62 C 0.27674 0.38654 0.6365 0.0
O63 O 0.28309 0.37332 0.64965 0.0
C64 C 0.36842 0.39748 0.5817 0.0
O65 O 0.36953 0.4194 0.58622 0.0
O66 O 0.3872 0.42124 0.62796 0.0
O67 O 0.37037 0.44654 0.63509 0.0
H68 H 0.42644 0.38627 0.67471 0.0
H69 H 0.30683 0.4055 0.5888 0.0
O70 O 0.29395 0.40748 0.62787 0.0
H71 H 0.37139 0.49626 0.57429 0.0
H72 H 0.29921 0.48876 0.63747 0.0
H73 H 0.35714 0.46124 0.66931 0.0
H74 H 0.36574 0.47833 0.6115 0.0
H75 H 0.30239 0.45283 0.62117 0.0
O76 O 0.36378 0.38116 0.59693 0.0
H77 H 0.39699 0.40142 0.66269 0.0
H78 H 0.36617 0.34363 0.61359 0.0
H79 H 0.35471 0.4974 0.68602 0.0
H80 H 0.31169 0.42273 0.55138 0.0
H81 H 0.32558 0.51138 0.67008 0.0
H82 H 0.34424 0.46839 0.54393 0.0
O83 O 0.32914 0.41223 0.66126 0.0
H84 H 0.27671 0.3104 0.59788 0.0
H85 H 0.33617 0.34259 0.66072 0.0
H86 H 0.29845 0.29875 0.66193 0.0
H87 H 0.26844 0.28237 0.63032 0.0
H88 H 0.31456 0.35419 0.59744 0.0
H89 H 0.39544 0.32798 0.62493 0.0
H90 H 0.42577 0.34929 0.65577 0.0
O91 O 0.3503 0.39005 0.65998 0.0
C92 C 0.38948 0.44308 0.63233 0.0
C93 C 0.41326 0.37677 0.6613 0.0
C94 C 0.39588 0.34408 0.63334 0.0
N95 N 0.37977 0.37329 0.63758 0.0
C96 C 0.39649 0.38522 0.65447 0.0
C97 C 0.37941 0.35306 0.62695 0.0
C98 C 0.41289 0.35604 0.65065 0.0
C99 C 0.32082 0.42547 0.58573 0.0
N100 N 0.33588 0.44091 0.60234 0.0
C101 C 0.32357 0.43509 0.56449 0.0
C102 C 0.34187 0.4607 0.56031 0.0
C103 C 0.35713 0.47634 0.57734 0.0
C104 C 0.35387 0.46606 0.59837 0.0
C105 C 0.31204 0.4829 0.64452 0.0
C106 C 0.34458 0.46735 0.66217 0.0
C107 C 0.3139 0.46255 0.63538 0.0
N108 N 0.33016 0.45513 0.64414 0.0
C109 C 0.34321 0.48778 0.67175 0.0
C110 C 0.32684 0.49559 0.66282 0.0
C111 C 0.3386 0.39968 0.67043 0.0
C112 C 0.28968 0.31729 0.61174 0.0
C113 C 0.32315 0.33563 0.64694 0.0
C114 C 0.30186 0.31077 0.6477 0.0
C115 C 0.28503 0.30159 0.62995 0.0
N116 N 0.32761 0.35089 0.62899 0.0
C117 C 0.31118 0.34204 0.61155 0.0
Co118 Co 0.89938 0.333 0.13755 0.0
Co119 Co 0.96437 0.35502 0.13259 0.0
O120 O 0.92849 0.33256 0.12388 0.0
C121 C 0.88338 0.27733 0.14049 0.0
O122 O 0.90565 0.28351 0.14944 0.0
C123 C 0.96295 0.36493 0.08558 0.0
O124 O 0.9429 0.36733 0.09029 0.0
O125 O 0.96067 0.38625 0.13163 0.0
O126 O 0.91927 0.37119 0.14046 0.0
H127 H 0.03671 0.42498 0.17596 0.0
H128 H 0.89217 0.30637 0.09511 0.0
O129 O 0.87837 0.29477 0.13477 0.0
H130 H 0.86906 0.3733 0.08127 0.0
H131 H 0.80547 0.30491 0.14664 0.0
H132 H 0.89317 0.36012 0.17554 0.0
H133 H 0.88222 0.36766 0.11811 0.0
H134 H 0.84276 0.30539 0.12913 0.0
O135 O 0.97459 0.36022 0.10079 0.0
H136 H 0.99135 0.3965 0.16536 0.0
H137 H 0.01418 0.36118 0.11692 0.0
H138 H 0.85644 0.3604 0.19346 0.0
H139 H 0.87886 0.31117 0.05806 0.0
H140 H 0.81221 0.33265 0.17899 0.0
H141 H 0.86731 0.34492 0.05093 0.0
O142 O 0.91127 0.32936 0.16698 0.0
H143 H 0.95451 0.27204 0.10389 0.0
H144 H 0.98604 0.33388 0.16509 0.0
H145 H 0.99009 0.29498 0.16707 0.0
H146 H 0.9743 0.26376 0.13629 0.0
H147 H 0.95066 0.31109 0.10266 0.0
H148 H 0.05982 0.38941 0.12686 0.0
H149 H 0.07131 0.42152 0.15664 0.0
O150 O 0.95455 0.35018 0.16448 0.0
C151 C 0.94194 0.38966 0.13661 0.0
C152 C 0.03194 0.411 0.16301 0.0
C153 C 0.04492 0.39106 0.13543 0.0
N154 N 0.00014 0.37705 0.14069 0.0
C155 C 0.00629 0.39477 0.15699 0.0
C156 C 0.01906 0.37516 0.12985 0.0
C157 C 0.05135 0.40907 0.15215 0.0
C158 C 0.8869 0.32091 0.09219 0.0
N159 N 0.88793 0.33668 0.10878 0.0
C160 C 0.87948 0.32361 0.07116 0.0
C161 C 0.87305 0.34258 0.06716 0.0
C162 C 0.87406 0.35853 0.08417 0.0
C163 C 0.8816 0.3553 0.10499 0.0
C164 C 0.82465 0.31712 0.15307 0.0
C165 C 0.87399 0.3481 0.16909 0.0
C166 C 0.84584 0.31743 0.14325 0.0
N167 N 0.87014 0.33291 0.15121 0.0
C168 C 0.85327 0.34829 0.17933 0.0
C169 C 0.82845 0.3327 0.17122 0.0
C170 C 0.93362 0.33875 0.17552 0.0
C171 C 0.96153 0.28553 0.11737 0.0
C172 C 0.97906 0.32035 0.15166 0.0
C173 C 0.98146 0.29839 0.15285 0.0
C174 C 0.97261 0.28089 0.13557 0.0
N175 N 0.96824 0.32481 0.13372 0.0
C176 C 0.95948 0.30772 0.11674 0.0
Co177 Co 0.56885 0.90128 0.63715 0.0
Co178 Co 0.61083 0.96633 0.63173 0.0
O179 O 0.5978 0.93053 0.6229 0.0
C180 C 0.6089 0.88581 0.63846 0.0
O181 O 0.62495 0.90806 0.64747 0.0
C182 C 0.59996 0.96458 0.5847 0.0
O183 O 0.57822 0.94344 0.58891 0.0
O184 O 0.57568 0.96191 0.63055 0.0
O185 O 0.55044 0.921 0.64141 0.0
H186 H 0.61176 0.03773 0.67545 0.0
H187 H 0.58609 0.89327 0.59389 0.0
O188 O 0.58623 0.88055 0.63321 0.0
H189 H 0.49566 0.87079 0.58342 0.0
H190 H 0.50388 0.80724 0.64694 0.0
H191 H 0.53735 0.89475 0.67657 0.0
H192 H 0.51634 0.8846 0.61956 0.0
H193 H 0.53973 0.8447 0.62866 0.0
O194 O 0.61574 0.97686 0.60008 0.0
H195 H 0.59555 0.99257 0.66458 0.0
H196 H 0.65407 0.01661 0.61632 0.0
H197 H 0.50134 0.85786 0.69527 0.0
H198 H 0.56603 0.87919 0.55754 0.0
H199 H 0.48437 0.81371 0.68045 0.0
H200 H 0.52053 0.86796 0.55211 0.0
O201 O 0.58563 0.91322 0.66601 0.0
H202 H 0.68477 0.95792 0.60298 0.0
H203 H 0.65363 0.98851 0.66427 0.0
H204 H 0.69688 0.99326 0.66623 0.0
H205 H 0.71273 0.97794 0.63541 0.0
H206 H 0.64156 0.95338 0.60178 0.0
H207 H 0.67079 0.06206 0.62651 0.0
H208 H 0.64965 0.07284 0.65634 0.0
O209 O 0.60598 0.95643 0.6636 0.0
C210 C 0.55407 0.9433 0.63677 0.0
C211 C 0.6212 0.03328 0.66248 0.0
C212 C 0.65431 0.04693 0.63499 0.0
N213 N 0.62401 0.00197 0.63999 0.0
C214 C 0.61215 0.00774 0.65631 0.0
C215 C 0.64473 0.02117 0.62926 0.0
C216 C 0.64244 0.05296 0.65174 0.0
C217 C 0.56618 0.8881 0.59172 0.0
N218 N 0.5524 0.8897 0.60884 0.0
C219 C 0.55497 0.88027 0.57107 0.0
C220 C 0.52945 0.87402 0.56803 0.0
C221 C 0.5155 0.87564 0.58558 0.0
C222 C 0.52735 0.88357 0.60599 0.0
C223 C 0.51106 0.82638 0.65352 0.0
C224 C 0.52994 0.87562 0.66993 0.0
C225 C 0.53137 0.84767 0.64326 0.0
N226 N 0.54044 0.87192 0.65142 0.0
C227 C 0.50961 0.8548 0.68063 0.0
C228 C 0.50012 0.83003 0.67232 0.0
C229 C 0.59778 0.93558 0.67455 0.0
C230 C 0.67811 0.96474 0.61649 0.0
C231 C 0.66036 0.98174 0.65082 0.0
C232 C 0.68489 0.98453 0.652 0.0
C233 C 0.69378 0.97594 0.6347 0.0
N234 N 0.64515 0.9708 0.63287 0.0
C235 C 0.65371 0.9623 0.61586 0.0
Co236 Co 0.67028 0.57298 0.13068 0.0
Co237 Co 0.64297 0.61134 0.12586 0.0
O238 O 0.66742 0.60063 0.11679 0.0
C239 C 0.72547 0.61464 0.1341 0.0
O240 O 0.719 0.62787 0.14713 0.0
C241 C 0.63239 0.59885 0.07917 0.0
O242 O 0.63175 0.57722 0.084 0.0
O243 O 0.61385 0.57517 0.12531 0.0
O244 O 0.6322 0.55196 0.13501 0.0
H245 H 0.57057 0.60731 0.17034 0.0
H246 H 0.69414 0.59225 0.0872 0.0
O247 O 0.70847 0.59307 0.12627 0.0
H248 H 0.63198 0.49995 0.0765 0.0
H249 H 0.7068 0.51398 0.13947 0.0
H250 H 0.6471 0.54012 0.1698 0.0
H251 H 0.63792 0.51984 0.11291 0.0
H252 H 0.70169 0.54806 0.12165 0.0
O253 O 0.63643 0.61519 0.09422 0.0
H254 H 0.60172 0.59393 0.15926 0.0
H255 H 0.63193 0.6519 0.11027 0.0
H256 H 0.65146 0.50581 0.18804 0.0
H257 H 0.68899 0.57307 0.05055 0.0
H258 H 0.68149 0.49253 0.17286 0.0
H259 H 0.65765 0.52663 0.04501 0.0
O260 O 0.67377 0.58899 0.15983 0.0
H261 H 0.72203 0.6884 0.09595 0.0
H262 H 0.66145 0.65442 0.15798 0.0
H263 H 0.6979 0.69899 0.15933 0.0
H264 H 0.72847 0.71627 0.12813 0.0
H265 H 0.68542 0.64387 0.09534 0.0
H266 H 0.60096 0.66577 0.12068 0.0
H267 H 0.57008 0.64348 0.15098 0.0
O268 O 0.64919 0.60756 0.15762 0.0
C269 C 0.61248 0.55405 0.13093 0.0
C270 C 0.584 0.61723 0.15717 0.0
C271 C 0.60103 0.65002 0.12927 0.0
N272 N 0.61876 0.62228 0.13429 0.0
C273 C 0.60172 0.6098 0.15087 0.0
C274 C 0.61848 0.64205 0.12342 0.0
C275 C 0.58371 0.63751 0.14628 0.0
C276 C 0.68069 0.57196 0.08497 0.0
N277 N 0.66644 0.55717 0.1022 0.0
C278 C 0.67776 0.56123 0.06416 0.0
C279 C 0.66014 0.53518 0.06105 0.0
C280 C 0.64572 0.52021 0.07871 0.0
C281 C 0.64912 0.53159 0.09929 0.0
C282 C 0.6936 0.51955 0.14621 0.0
C283 C 0.66007 0.53432 0.16301 0.0
C284 C 0.69066 0.53886 0.13621 0.0
N285 N 0.67392 0.54589 0.14456 0.0
C286 C 0.66252 0.51494 0.17345 0.0
C287 C 0.67939 0.50752 0.16494 0.0
C288 C 0.66271 0.60032 0.16845 0.0
C289 C 0.70881 0.68111 0.10962 0.0
C290 C 0.67471 0.66178 0.14437 0.0
C291 C 0.69529 0.68704 0.14521 0.0
C292 C 0.71242 0.69673 0.12769 0.0
N293 N 0.67124 0.64661 0.12654 0.0
C294 C 0.688 0.65594 0.10934 0.0
Co295 Co 0.09117 0.67281 0.62966 0.0
Co296 Co 0.02492 0.64416 0.62757 0.0
O297 O 0.05954 0.66944 0.61778 0.0
C298 C 0.10511 0.72771 0.63819 0.0
O299 O 0.08801 0.72043 0.65394 0.0
C300 C 0.02633 0.63382 0.58087 0.0
O301 O 0.04796 0.63437 0.58546 0.0
O302 O 0.03278 0.61558 0.62683 0.0
O303 O 0.07549 0.63469 0.63193 0.0
H304 H 0.95922 0.57125 0.67339 0.0
H305 H 0.09256 0.69893 0.58806 0.0
O306 O 0.10791 0.71124 0.62715 0.0
H307 H 0.12612 0.64106 0.56987 0.0
H308 H 0.18746 0.71239 0.63471 0.0
H309 H 0.10375 0.64788 0.66571 0.0
H310 H 0.11332 0.64379 0.60766 0.0
H311 H 0.14692 0.70679 0.6194 0.0
O312 O 0.01362 0.63701 0.59609 0.0
H313 H 0.00309 0.60322 0.66139 0.0
H314 H 0.9724 0.63141 0.61322 0.0
H315 H 0.14382 0.65269 0.6814 0.0
H316 H 0.10539 0.69699 0.55009 0.0
H317 H 0.18607 0.68514 0.66588 0.0
H318 H 0.12221 0.66781 0.54078 0.0
O319 O 0.07951 0.67356 0.65995 0.0
H320 H 0.02295 0.72134 0.59796 0.0
H321 H 0.00065 0.662 0.66053 0.0
H322 H 0.9911 0.69748 0.66231 0.0
H323 H 0.00222 0.7274 0.63084 0.0
H324 H 0.03234 0.68572 0.59695 0.0
H325 H 0.92817 0.59959 0.62456 0.0
H326 H 0.92139 0.5693 0.65492 0.0
O327 O 0.0361 0.65092 0.65901 0.0
C328 C 0.05334 0.61468 0.62988 0.0
C329 C 0.96192 0.58441 0.6602 0.0
C330 C 0.9445 0.60029 0.63277 0.0
N331 N 0.99027 0.61931 0.63678 0.0
C332 C 0.98671 0.60261 0.65339 0.0
C333 C 0.96957 0.61823 0.6264 0.0
C334 C 0.94071 0.58331 0.64981 0.0
C335 C 0.10014 0.6864 0.58418 0.0
N336 N 0.10227 0.67156 0.60009 0.0
C337 C 0.10727 0.6853 0.56264 0.0
C338 C 0.11666 0.66889 0.55742 0.0
C339 C 0.11883 0.65386 0.57373 0.0
C340 C 0.11149 0.65543 0.59509 0.0
C341 C 0.16917 0.69815 0.64159 0.0
C342 C 0.12205 0.66193 0.65878 0.0
C343 C 0.14615 0.69492 0.63302 0.0
N344 N 0.12298 0.67688 0.64155 0.0
C345 C 0.14468 0.66462 0.66777 0.0
C346 C 0.16838 0.68285 0.65907 0.0
C347 C 0.0575 0.66313 0.66929 0.0
C348 C 0.01795 0.70838 0.61175 0.0
C349 C 0.00562 0.675 0.6468 0.0
C350 C 0.00012 0.69502 0.64788 0.0
C351 C 0.00635 0.71179 0.63021 0.0
N352 N 0.01691 0.67172 0.6286 0.0
C353 C 0.02315 0.68813 0.61124 0.0
Co354 Co 0.90436 0.57 0.37101 0.0
Co355 Co 0.96842 0.61552 0.37729 0.0
O356 O 0.9322 0.59963 0.38578 0.0
C357 C 0.88596 0.6077 0.37054 0.0
O358 O 0.90846 0.62513 0.36281 0.0
C359 C 0.967 0.60213 0.42371 0.0
O360 O 0.94791 0.57936 0.41828 0.0
O361 O 0.96691 0.5815 0.37697 0.0
O362 O 0.92621 0.554 0.36677 0.0
H363 H 0.04345 0.62524 0.33313 0.0
H364 H 0.8946 0.58541 0.41443 0.0
O365 O 0.88155 0.58508 0.37487 0.0
H366 H 0.87775 0.49664 0.42398 0.0
H367 H 0.81203 0.50069 0.36004 0.0
H368 H 0.90057 0.53996 0.33126 0.0
H369 H 0.89055 0.51797 0.388 0.0
H370 H 0.84786 0.5376 0.37888 0.0
O371 O 0.97815 0.61944 0.4091 0.0
H372 H 0.99765 0.60524 0.34353 0.0
H373 H 0.01668 0.66008 0.39439 0.0
H374 H 0.86537 0.50295 0.312 0.0
H375 H 0.88159 0.5647 0.45066 0.0
H376 H 0.82071 0.48305 0.3264 0.0
H377 H 0.87318 0.52004 0.45562 0.0
O378 O 0.91597 0.58744 0.34234 0.0
H379 H 0.9527 0.68373 0.40904 0.0
H380 H 0.98847 0.65998 0.34647 0.0
H381 H 0.98968 0.7017 0.34622 0.0
H382 H 0.97173 0.71382 0.37769 0.0
H383 H 0.9517 0.64211 0.40852 0.0
H384 H 0.06272 0.68055 0.38468 0.0
H385 H 0.07634 0.66318 0.35378 0.0
O386 O 0.95906 0.61173 0.34533 0.0
C387 C 0.9492 0.55934 0.3708 0.0
C388 C 0.03775 0.63304 0.34658 0.0
C389 C 0.04857 0.66406 0.37553 0.0
N390 N 0.00451 0.63162 0.36942 0.0
C391 C 0.01185 0.62184 0.3525 0.0
C392 C 0.02249 0.65236 0.38099 0.0
C393 C 0.0562 0.65431 0.35819 0.0
C394 C 0.89067 0.56586 0.41641 0.0
N395 N 0.89322 0.55288 0.3991 0.0
C396 C 0.88343 0.55428 0.43698 0.0
C397 C 0.87876 0.52923 0.43976 0.0
C398 C 0.88134 0.5161 0.42202 0.0
C399 C 0.88865 0.5283 0.4017 0.0
C400 C 0.83142 0.50914 0.35364 0.0
C401 C 0.88123 0.53129 0.33771 0.0
C402 C 0.85177 0.53007 0.36422 0.0
N403 N 0.87632 0.54076 0.35629 0.0
C404 C 0.86135 0.51039 0.3267 0.0
C405 C 0.8363 0.49926 0.33477 0.0
C406 C 0.93826 0.60172 0.33411 0.0
C407 C 0.96063 0.6787 0.39526 0.0
C408 C 0.98055 0.66508 0.36019 0.0
C409 C 0.98134 0.68876 0.35998 0.0
C410 C 0.97129 0.69555 0.37765 0.0
N411 N 0.97011 0.64867 0.37753 0.0
C412 C 0.96021 0.6552 0.39491 0.0
Co413 Co 0.33529 0.90436 0.8709 0.0
Co414 Co 0.35333 0.96848 0.87544 0.0
O415 O 0.33324 0.93253 0.88474 0.0
C416 C 0.27902 0.88531 0.86994 0.0
O417 O 0.28387 0.90743 0.86149 0.0
C418 C 0.3657 0.96878 0.92206 0.0
O419 O 0.36938 0.94956 0.91718 0.0
O420 O 0.38603 0.96732 0.87551 0.0
O421 O 0.3731 0.92632 0.86654 0.0
H422 H 0.41798 0.04227 0.82975 0.0
H423 H 0.31004 0.89583 0.9142 0.0
O424 O 0.2974 0.88138 0.87488 0.0
H425 H 0.38258 0.8803 0.92551 0.0
H426 H 0.3131 0.81195 0.86267 0.0
H427 H 0.36173 0.89948 0.83174 0.0
H428 H 0.37387 0.89167 0.88898 0.0
H429 H 0.31162 0.8482 0.88026 0.0
O430 O 0.35931 0.97934 0.90708 0.0
H431 H 0.39255 0.99681 0.84123 0.0
H432 H 0.35669 0.01708 0.89116 0.0
H433 H 0.36394 0.86384 0.81372 0.0
H434 H 0.3179 0.88424 0.95097 0.0
H435 H 0.3395 0.81969 0.8292 0.0
H436 H 0.35447 0.8765 0.95681 0.0
O437 O 0.32937 0.91487 0.84175 0.0
H438 H 0.26932 0.95313 0.90676 0.0
H439 H 0.32842 0.9871 0.84377 0.0
H440 H 0.28771 0.9879 0.84306 0.0
H441 H 0.25785 0.97087 0.87474 0.0
H442 H 0.31015 0.95251 0.90671 0.0
H443 H 0.38189 0.06279 0.88036 0.0
H444 H 0.41271 0.07561 0.84939 0.0
O445 O 0.34765 0.958 0.84364 0.0
C446 C 0.39062 0.94952 0.86995 0.0
C447 C 0.40455 0.03691 0.84323 0.0
C448 C 0.38432 0.04844 0.87166 0.0
N449 N 0.37304 0.00431 0.86672 0.0
C450 C 0.39006 0.0112 0.84975 0.0
C451 C 0.37016 0.02255 0.87773 0.0
C452 C 0.40161 0.05561 0.85427 0.0
C453 C 0.32579 0.89217 0.91657 0.0
N454 N 0.34139 0.8943 0.89945 0.0
C455 C 0.33023 0.88574 0.93744 0.0
C456 C 0.35078 0.88145 0.94072 0.0
C457 C 0.36657 0.8836 0.92316 0.0
C458 C 0.36158 0.8901 0.90253 0.0
C459 C 0.32389 0.83111 0.8558 0.0
C460 C 0.3512 0.88036 0.83866 0.0
C461 C 0.32309 0.8517 0.86567 0.0
N462 N 0.33678 0.87598 0.85715 0.0
C463 C 0.35245 0.86024 0.82835 0.0
C464 C 0.33871 0.83547 0.83703 0.0
C465 C 0.33714 0.93681 0.83291 0.0
C466 C 0.2822 0.96067 0.89288 0.0
C467 C 0.3155 0.97958 0.85758 0.0
C468 C 0.29249 0.98014 0.85711 0.0
C469 C 0.27576 0.97059 0.8749 0.0
N470 N 0.32169 0.96986 0.8753 0.0
C471 C 0.30538 0.96045 0.89279 0.0
Co472 Co 0.43418 0.33406 0.37549 0.0
Co473 Co 0.39068 0.35576 0.37902 0.0
O474 O 0.40403 0.33338 0.38815 0.0
C475 C 0.39441 0.27865 0.3701 0.0
O476 O 0.37898 0.28533 0.36062 0.0
C477 C 0.4022 0.36647 0.42589 0.0
O478 O 0.4244 0.3682 0.42136 0.0
O479 O 0.42569 0.38716 0.37947 0.0
O480 O 0.45282 0.37222 0.37395 0.0
H481 H 0.38783 0.42436 0.33396 0.0
H482 H 0.41182 0.30547 0.41669 0.0
O483 O 0.41649 0.29572 0.37694 0.0
H484 H 0.50124 0.37072 0.43496 0.0
H485 H 0.49968 0.30532 0.36813 0.0
H486 H 0.47019 0.36305 0.33941 0.0
H487 H 0.48484 0.36713 0.39739 0.0
H488 H 0.46203 0.30539 0.38432 0.0
O489 O 0.38591 0.36178 0.41064 0.0
H490 H 0.40479 0.39618 0.34527 0.0
H491 H 0.34728 0.36249 0.39444 0.0
H492 H 0.50805 0.36376 0.32286 0.0
H493 H 0.4275 0.30823 0.45444 0.0
H494 H 0.52302 0.33474 0.33722 0.0
H495 H 0.47247 0.34111 0.4638 0.0
O496 O 0.42073 0.33225 0.3454 0.0
H497 H 0.31782 0.27339 0.40902 0.0
H498 H 0.34747 0.33396 0.3469 0.0
H499 H 0.3045 0.295 0.3455 0.0
H500 H 0.2894 0.26442 0.37674 0.0
H501 H 0.36074 0.31249 0.40964 0.0
H502 H 0.32982 0.39046 0.3838 0.0
H503 H 0.35008 0.4216 0.35329 0.0
O504 O 0.39543 0.35007 0.34739 0.0
C505 C 0.44822 0.39062 0.37628 0.0
C506 C 0.37879 0.41082 0.34723 0.0
C507 C 0.34625 0.39181 0.37523 0.0
N508 N 0.37691 0.37759 0.37038 0.0
C509 C 0.38825 0.39476 0.35366 0.0
C510 C 0.35625 0.37607 0.38121 0.0
C511 C 0.35762 0.40927 0.3581 0.0
C512 C 0.4315 0.31966 0.42059 0.0
N513 N 0.44741 0.33608 0.40483 0.0
C514 C 0.44023 0.32119 0.44201 0.0
C515 C 0.46546 0.33968 0.44726 0.0
C516 C 0.4816 0.35631 0.43109 0.0
C517 C 0.47218 0.35424 0.40985 0.0
C518 C 0.49336 0.31808 0.36175 0.0
C519 C 0.47667 0.35046 0.34583 0.0
C520 C 0.47202 0.31816 0.37081 0.0
N521 N 0.46401 0.33432 0.3629 0.0
C522 C 0.49808 0.3509 0.33636 0.0
C523 C 0.50646 0.3346 0.34441 0.0
C524 C 0.4068 0.34036 0.33657 0.0
C525 C 0.32416 0.2866 0.39532 0.0
C526 C 0.34108 0.3207 0.36051 0.0
C527 C 0.3167 0.2987 0.35965 0.0
C528 C 0.30823 0.28156 0.3772 0.0
N529 N 0.35656 0.32553 0.37836 0.0
C530 C 0.34841 0.30881 0.39562 0.0
Co531 Co 0.091 0.41993 0.88036 0.0
Co532 Co 0.02475 0.38217 0.88212 0.0
O533 O 0.05933 0.39151 0.89204 0.0
C534 C 0.10442 0.37865 0.87202 0.0
O535 O 0.08637 0.36815 0.85707 0.0
C536 C 0.02563 0.39333 0.92903 0.0
O537 O 0.04732 0.4145 0.9247 0.0
O538 O 0.03252 0.41859 0.88308 0.0
O539 O 0.07526 0.44231 0.87822 0.0
H540 H 0.95931 0.38961 0.83614 0.0
H541 H 0.09213 0.39481 0.92179 0.0
O542 O 0.10786 0.39839 0.88268 0.0
H543 H 0.12556 0.48606 0.94062 0.0
H544 H 0.18731 0.47695 0.87569 0.0
H545 H 0.10369 0.45776 0.84455 0.0
H546 H 0.11305 0.47091 0.90271 0.0
H547 H 0.14673 0.4418 0.89079 0.0
O548 O 0.01315 0.37765 0.9136 0.0
H549 H 0.00311 0.4015 0.84833 0.0
H550 H 0.97214 0.34216 0.89611 0.0
H551 H 0.1438 0.49322 0.82907 0.0
H552 H 0.10466 0.40918 0.95988 0.0
H553 H 0.18599 0.503 0.84467 0.0
H554 H 0.1214 0.45509 0.96952 0.0
O555 O 0.07959 0.40776 0.84997 0.0
H556 H 0.02283 0.30286 0.91123 0.0
H557 H 0.00081 0.34038 0.84886 0.0
H558 H 0.99144 0.29542 0.84678 0.0
H559 H 0.00241 0.27636 0.87815 0.0
H560 H 0.03205 0.34781 0.91255 0.0
H561 H 0.92799 0.32974 0.88457 0.0
H562 H 0.92138 0.35348 0.85432 0.0
O563 O 0.03617 0.38692 0.85067 0.0
C564 C 0.05308 0.44011 0.8802 0.0
C565 C 0.96194 0.37905 0.84929 0.0
C566 C 0.94436 0.34547 0.87649 0.0
N567 N 0.99015 0.37237 0.87276 0.0
C568 C 0.98669 0.38564 0.85621 0.0
C569 C 0.96939 0.35262 0.88298 0.0
C570 C 0.94067 0.3588 0.85951 0.0
C571 C 0.09966 0.41487 0.92581 0.0
N572 N 0.1019 0.43201 0.91002 0.0
C573 C 0.10662 0.42288 0.94742 0.0
C574 C 0.11597 0.44862 0.95283 0.0
C575 C 0.11828 0.46601 0.93663 0.0
C576 C 0.1111 0.45731 0.91519 0.0
C577 C 0.16904 0.47291 0.86879 0.0
C578 C 0.12197 0.46201 0.85151 0.0
C579 C 0.14599 0.453 0.87724 0.0
N580 N 0.12285 0.44787 0.86867 0.0
C581 C 0.14462 0.48206 0.84264 0.0
C582 C 0.16829 0.48752 0.85138 0.0
C583 C 0.05766 0.39622 0.8405 0.0
C584 C 0.0179 0.31093 0.89748 0.0
C585 C 0.00572 0.33224 0.86255 0.0
C586 C 0.00031 0.30676 0.86129 0.0
C587 C 0.00646 0.29608 0.8789 0.0
N588 N 0.01684 0.34664 0.88086 0.0
C589 C 0.023 0.33634 0.89816 0.0
Co590 Co 0.67493 0.09188 0.37885 0.0
Co591 Co 0.64367 0.0252 0.3813 0.0
O592 O 0.6707 0.05962 0.39034 0.0
C593 C 0.72835 0.11739 0.36225 0.0
O594 O 0.7186 0.11797 0.3432 0.0
C595 C 0.63633 0.02819 0.42854 0.0
O596 O 0.64038 0.05144 0.42476 0.0
O597 O 0.61657 0.0351 0.38261 0.0
O598 O 0.63695 0.07813 0.37931 0.0
H599 H 0.5678 0.96148 0.33699 0.0
H600 H 0.70465 0.09307 0.41802 0.0
O601 O 0.71337 0.10644 0.37846 0.0
H602 H 0.65224 0.13095 0.44191 0.0
H603 H 0.71699 0.18853 0.3737 0.0
H604 H 0.64898 0.10545 0.34446 0.0
H605 H 0.65014 0.11658 0.40381 0.0
H606 H 0.71093 0.14759 0.38848 0.0
O607 O 0.63665 0.01434 0.41286 0.0
H608 H 0.60186 0.0048 0.34825 0.0
H609 H 0.62831 0.97208 0.39609 0.0
H610 H 0.65432 0.14594 0.32924 0.0
H611 H 0.70762 0.10754 0.4562 0.0
H612 H 0.68853 0.18786 0.34387 0.0
H613 H 0.68119 0.12653 0.4684 0.0
O614 O 0.6721 0.07896 0.34837 0.0
H615 H 0.71864 0.01836 0.40976 0.0
H616 H 0.65841 0.99839 0.3482 0.0
H617 H 0.69181 0.98592 0.34602 0.0
H618 H 0.72216 0.99583 0.37699 0.0
H619 H 0.68509 0.03068 0.41117 0.0
H620 H 0.5944 0.9284 0.38548 0.0
H621 H 0.56391 0.9229 0.35567 0.0
O622 O 0.65003 0.03563 0.34976 0.0
C623 C 0.61651 0.05625 0.38102 0.0
C624 C 0.58102 0.96362 0.34995 0.0
C625 C 0.59593 0.94506 0.37719 0.0
N626 N 0.61717 0.99094 0.37267 0.0
C627 C 0.6004 0.98809 0.35634 0.0
C628 C 0.61505 0.96983 0.38316 0.0
C629 C 0.57883 0.94199 0.36046 0.0
C630 C 0.69333 0.10161 0.42312 0.0
N631 N 0.67732 0.10407 0.40865 0.0
C632 C 0.695 0.10966 0.4448 0.0
C633 C 0.68013 0.12025 0.45164 0.0
C634 C 0.66385 0.12271 0.43679 0.0
C635 C 0.66267 0.11444 0.41525 0.0
C636 C 0.70198 0.17039 0.36721 0.0
C637 C 0.66385 0.12362 0.35096 0.0
C638 C 0.69845 0.14715 0.37552 0.0
N639 N 0.67954 0.12415 0.3674 0.0
C640 C 0.66681 0.14648 0.34226 0.0
C641 C 0.68601 0.16999 0.35047 0.0
C642 C 0.66149 0.05686 0.33921 0.0
C643 C 0.70548 0.01388 0.39619 0.0
C644 C 0.67163 0.00288 0.3617 0.0
C645 C 0.69045 0.99571 0.36039 0.0
C646 C 0.70747 0.00126 0.37778 0.0
N647 N 0.66974 0.01513 0.37985 0.0
C648 C 0.6864 0.02074 0.39692 0.0
Co649 Co 0.57642 0.66947 0.87349 0.0
Co650 Co 0.61388 0.64049 0.87587 0.0
O651 O 0.60513 0.66646 0.88493 0.0
C652 C 0.60351 0.72248 0.85587 0.0
O653 O 0.59349 0.71231 0.83681 0.0
C654 C 0.60203 0.63132 0.92283 0.0
O655 O 0.58163 0.6332 0.9184 0.0
O656 O 0.57707 0.61233 0.87644 0.0
O657 O 0.55318 0.63152 0.87458 0.0
H658 H 0.60574 0.5666 0.83097 0.0
H659 H 0.60521 0.70016 0.9122 0.0
O660 O 0.59952 0.70791 0.87237 0.0
H661 H 0.51552 0.64633 0.93724 0.0
H662 H 0.52005 0.70947 0.86796 0.0
H663 H 0.53619 0.6417 0.83994 0.0
H664 H 0.52734 0.64422 0.89899 0.0
H665 H 0.55585 0.70481 0.88256 0.0
O666 O 0.6174 0.63344 0.90749 0.0
H667 H 0.59468 0.59941 0.84221 0.0
H668 H 0.6525 0.62659 0.8913 0.0
H669 H 0.50011 0.64561 0.82494 0.0
H670 H 0.59418 0.70306 0.95056 0.0
H671 H 0.49186 0.6797 0.83896 0.0
H672 H 0.54907 0.67593 0.96333 0.0
O673 O 0.5861 0.66623 0.84303 0.0
H674 H 0.69353 0.71679 0.90591 0.0
H675 H 0.65661 0.657 0.84364 0.0
H676 H 0.70208 0.69158 0.84233 0.0
H677 H 0.72085 0.72172 0.87367 0.0
H678 H 0.64808 0.68208 0.90644 0.0
H679 H 0.66406 0.59394 0.88072 0.0
H680 H 0.64066 0.56373 0.85029 0.0
O681 O 0.61034 0.64724 0.84431 0.0
C682 C 0.55541 0.61151 0.87556 0.0
C683 C 0.61613 0.57971 0.84421 0.0
C684 C 0.64884 0.59503 0.87215 0.0
N685 N 0.62307 0.615 0.86727 0.0
C686 C 0.61001 0.59837 0.85059 0.0
C687 C 0.64217 0.61343 0.8781 0.0
C688 C 0.63571 0.57809 0.85507 0.0
C689 C 0.58548 0.68851 0.91756 0.0
N690 N 0.56692 0.67215 0.90332 0.0
C691 C 0.57937 0.69015 0.93933 0.0
C692 C 0.55406 0.67489 0.94649 0.0
C693 C 0.53524 0.65826 0.93187 0.0
C694 C 0.54206 0.65711 0.91023 0.0
C695 C 0.52343 0.69452 0.86174 0.0
C696 C 0.53266 0.65653 0.84618 0.0
C697 C 0.54367 0.69179 0.86993 0.0
N698 N 0.54805 0.67294 0.86216 0.0
C699 C 0.51223 0.65867 0.8376 0.0
C700 C 0.50762 0.67781 0.84547 0.0
C701 C 0.59905 0.65723 0.83383 0.0
C702 C 0.68559 0.70375 0.89217 0.0
C703 C 0.66459 0.67013 0.85727 0.0
C704 C 0.69038 0.68962 0.85647 0.0
C705 C 0.7009 0.70652 0.87407 0.0
N706 N 0.64974 0.66748 0.87513 0.0
C707 C 0.65989 0.68401 0.89241 0.0
Co708 Co 0.56935 0.90251 0.87899 0.0
Co709 Co 0.6123 0.96791 0.8816 0.0
O710 O 0.59934 0.93243 0.89122 0.0
C711 C 0.60991 0.88835 0.873 0.0
O712 O 0.62432 0.9105 0.86316 0.0
C713 C 0.60007 0.96722 0.92814 0.0
O714 O 0.57804 0.94666 0.92338 0.0
O715 O 0.5771 0.96382 0.88156 0.0
O716 O 0.5501 0.92144 0.87736 0.0
H717 H 0.61461 0.03824 0.83526 0.0
H718 H 0.5925 0.89728 0.92012 0.0
O719 O 0.58784 0.88259 0.88047 0.0
H720 H 0.50298 0.87212 0.93902 0.0
H721 H 0.50526 0.80775 0.87271 0.0
H722 H 0.53265 0.89421 0.84317 0.0
H723 H 0.51888 0.88459 0.90127 0.0
H724 H 0.54267 0.84615 0.88838 0.0
O725 O 0.61658 0.97902 0.91308 0.0
H726 H 0.59806 0.99334 0.84713 0.0
H727 H 0.65507 0.01853 0.89683 0.0
H728 H 0.49502 0.85636 0.82712 0.0
H729 H 0.57734 0.88473 0.95806 0.0
H730 H 0.48109 0.81275 0.84191 0.0
H731 H 0.53231 0.87214 0.96772 0.0
O732 O 0.5823 0.91387 0.84876 0.0
H733 H 0.68566 0.96021 0.91289 0.0
H734 H 0.65571 0.98924 0.84969 0.0
H735 H 0.69897 0.99391 0.84886 0.0
H736 H 0.71422 0.97939 0.88065 0.0
H737 H 0.64245 0.9557 0.91295 0.0
H738 H 0.67211 0.06373 0.88562 0.0
H739 H 0.6519 0.07379 0.85457 0.0
O740 O 0.60791 0.95699 0.85015 0.0
C741 C 0.55459 0.9445 0.87892 0.0
C742 C 0.62363 0.03409 0.84877 0.0
C743 C 0.65588 0.0484 0.87706 0.0
N744 N 0.62572 0.00333 0.87253 0.0
C745 C 0.6144 0.0087 0.85552 0.0
C746 C 0.64612 0.02279 0.88336 0.0
C747 C 0.64454 0.05403 0.85962 0.0
C748 C 0.5728 0.89155 0.92416 0.0
N749 N 0.55657 0.89157 0.90848 0.0
C750 C 0.56435 0.88457 0.94568 0.0
C751 C 0.5391 0.87755 0.9511 0.0
C752 C 0.52264 0.87755 0.93501 0.0
C753 C 0.53176 0.88469 0.91367 0.0
C754 C 0.51111 0.82666 0.86616 0.0
C755 C 0.52662 0.87531 0.84978 0.0
C756 C 0.5323 0.84847 0.87493 0.0
N757 N 0.53971 0.87242 0.86681 0.0
C758 C 0.50533 0.85395 0.84059 0.0
C759 C 0.49755 0.82948 0.84888 0.0
C760 C 0.59637 0.93572 0.83964 0.0
C761 C 0.67926 0.96667 0.89896 0.0
C762 C 0.66217 0.98279 0.86355 0.0
C763 C 0.68671 0.98554 0.86301 0.0
C764 C 0.69526 0.9774 0.88086 0.0
N765 N 0.64662 0.9723 0.88139 0.0
C766 C 0.65484 0.96424 0.89894 0.0
Co767 Co 0.66787 0.57521 0.37228 0.0
Co768 Co 0.646 0.6184 0.37547 0.0
O769 O 0.66774 0.60469 0.3853 0.0
C770 C 0.72367 0.61439 0.3694 0.0
O771 O 0.71802 0.629 0.35733 0.0
C772 C 0.63334 0.60558 0.42176 0.0
O773 O 0.6308 0.58319 0.4166 0.0
O774 O 0.61461 0.5835 0.37528 0.0
O775 O 0.62988 0.55691 0.36785 0.0
H776 H 0.57936 0.62259 0.32861 0.0
H777 H 0.69257 0.59444 0.41552 0.0
O778 O 0.706 0.59278 0.37659 0.0
H779 H 0.62451 0.50449 0.42811 0.0
H780 H 0.6969 0.50987 0.36612 0.0
H781 H 0.6429 0.54188 0.33374 0.0
H782 H 0.63199 0.5235 0.39119 0.0
H783 H 0.6953 0.54655 0.3827 0.0
O784 O 0.63904 0.62262 0.40697 0.0
H785 H 0.60689 0.60514 0.34067 0.0
H786 H 0.63895 0.6616 0.39077 0.0
H787 H 0.64376 0.50503 0.31673 0.0
H788 H 0.68591 0.5761 0.45265 0.0
H789 H 0.67091 0.48878 0.33295 0.0
H790 H 0.6516 0.53085 0.45914 0.0
O791 O 0.67253 0.59051 0.34273 0.0
H792 H 0.72745 0.69064 0.40737 0.0
H793 H 0.6691 0.66195 0.34374 0.0
H794 H 0.70818 0.70488 0.34322 0.0
H795 H 0.73764 0.71949 0.37523 0.0
H796 H 0.68826 0.64778 0.40712 0.0
H797 H 0.61161 0.67953 0.3794 0.0
H798 H 0.58163 0.66005 0.34804 0.0
O799 O 0.65271 0.61401 0.34391 0.0
C800 C 0.61141 0.56141 0.37046 0.0
C801 C 0.59241 0.63129 0.34225 0.0
C802 C 0.61048 0.66323 0.37078 0.0
N803 N 0.62462 0.63248 0.36628 0.0
C804 C 0.60809 0.62155 0.3491 0.0
C805 C 0.62586 0.65297 0.37717 0.0
C806 C 0.59367 0.6523 0.35318 0.0
C807 C 0.67782 0.57463 0.41816 0.0
N808 N 0.66279 0.56002 0.40118 0.0
C809 C 0.67405 0.56439 0.43924 0.0
C810 C 0.65476 0.53902 0.44288 0.0
C811 C 0.63954 0.52422 0.42548 0.0
C812 C 0.64384 0.53511 0.40462 0.0
C813 C 0.68493 0.51672 0.35895 0.0
C814 C 0.65458 0.53478 0.34099 0.0
C815 C 0.68397 0.5375 0.36824 0.0
N816 N 0.66878 0.54615 0.35933 0.0
C817 C 0.65508 0.51397 0.33124 0.0
C818 C 0.67034 0.50489 0.34034 0.0
C819 C 0.66395 0.60383 0.33353 0.0
C820 C 0.71473 0.68452 0.39335 0.0
C821 C 0.68187 0.66814 0.35769 0.0
C822 C 0.70394 0.69249 0.35733 0.0
C823 C 0.72045 0.70069 0.3753 0.0
N824 N 0.67635 0.65243 0.37548 0.0
C825 C 0.69247 0.6603 0.39314 0.0
Co826 Co 0.09584 0.66564 0.87297 0.0
Co827 Co 0.03045 0.64213 0.87694 0.0
O828 O 0.06596 0.66489 0.88623 0.0
C829 C 0.11147 0.72119 0.86859 0.0
O830 O 0.0914 0.71498 0.85608 0.0
C831 C 0.03136 0.63077 0.92358 0.0
O832 O 0.05187 0.62921 0.91882 0.0
O833 O 0.03513 0.61144 0.87722 0.0
O834 O 0.07702 0.6275 0.86947 0.0
H835 H 0.96005 0.5731 0.83136 0.0
H836 H 0.10136 0.69133 0.91571 0.0
O837 O 0.11559 0.70393 0.87648 0.0
H838 H 0.12643 0.6258 0.9294 0.0
H839 H 0.19067 0.6972 0.86558 0.0
H840 H 0.10431 0.64007 0.83493 0.0
H841 H 0.11367 0.6316 0.89244 0.0
H842 H 0.15217 0.69484 0.88245 0.0
O843 O 0.01964 0.63557 0.90851 0.0
H844 H 0.00501 0.60198 0.84287 0.0
H845 H 0.97977 0.63388 0.89245 0.0
H846 H 0.14226 0.64167 0.81765 0.0
H847 H 0.11424 0.68634 0.95288 0.0
H848 H 0.18583 0.6704 0.83299 0.0
H849 H 0.12679 0.65331 0.95993 0.0
O850 O 0.08426 0.66896 0.84334 0.0
H851 H 0.03788 0.7233 0.90764 0.0
H852 H 0.0081 0.66331 0.84513 0.0
H853 H 0.00293 0.70159 0.84414 0.0
H854 H 0.01783 0.73188 0.87558 0.0
H855 H 0.04285 0.68488 0.90786 0.0
H856 H 0.93453 0.6052 0.88162 0.0
H857 H 0.92445 0.57462 0.85081 0.0
O858 O 0.04095 0.64844 0.84528 0.0
C859 C 0.05435 0.60868 0.87258 0.0
C860 C 0.9642 0.5864 0.84477 0.0
C861 C 0.94987 0.60439 0.873 0.0
N862 N 0.99499 0.61971 0.86819 0.0
C863 C 0.98961 0.60284 0.85131 0.0
C864 C 0.97551 0.62054 0.87909 0.0
C865 C 0.94424 0.58725 0.8557 0.0
C866 C 0.1071 0.67713 0.91859 0.0
N867 N 0.10689 0.66188 0.90189 0.0
C868 C 0.11425 0.67431 0.93969 0.0
C869 C 0.12124 0.65574 0.94365 0.0
C870 C 0.12103 0.64028 0.92653 0.0
C871 C 0.11373 0.64362 0.90564 0.0
C872 C 0.17178 0.68455 0.85878 0.0
C873 C 0.12318 0.65247 0.8418 0.0
C874 C 0.14992 0.68317 0.86824 0.0
N875 N 0.12599 0.66713 0.85981 0.0
C876 C 0.14461 0.65336 0.8319 0.0
C877 C 0.16905 0.66951 0.8405 0.0
C878 C 0.06208 0.65981 0.83452 0.0
C879 C 0.03126 0.71022 0.89386 0.0
C880 C 0.01472 0.67645 0.85883 0.0
C881 C 0.01168 0.69806 0.8582 0.0
C882 C 0.02004 0.71504 0.87586 0.0
N883 N 0.02569 0.67182 0.87657 0.0
C884 C 0.03395 0.6884 0.89392 0.0
Co885 Co 0.43028 0.09715 0.37281 0.0
Co886 Co 0.39108 0.03115 0.37543 0.0
O887 O 0.40136 0.06609 0.38487 0.0
C888 C 0.3896 0.11133 0.36437 0.0
O889 O 0.37889 0.09325 0.34947 0.0
C890 C 0.40143 0.03201 0.4226 0.0
O891 O 0.42303 0.0534 0.41854 0.0
O892 O 0.42725 0.03805 0.377 0.0
O893 O 0.45183 0.08051 0.37092 0.0
H894 H 0.39666 0.96397 0.3305 0.0
H895 H 0.4059 0.10002 0.41415 0.0
O896 O 0.40944 0.11478 0.37487 0.0
H897 H 0.49669 0.13063 0.43282 0.0
H898 H 0.48923 0.19307 0.36732 0.0
H899 H 0.4677 0.10848 0.33686 0.0
H900 H 0.48115 0.11779 0.39504 0.0
H901 H 0.45349 0.15311 0.38274 0.0
O902 O 0.38593 0.01988 0.40698 0.0
H903 H 0.4096 0.00821 0.34218 0.0
H904 H 0.35005 0.97914 0.3898 0.0
H905 H 0.50373 0.14793 0.32107 0.0
H906 H 0.4207 0.11289 0.4521 0.0
H907 H 0.5147 0.19061 0.33632 0.0
H908 H 0.46637 0.12822 0.46166 0.0
O909 O 0.41795 0.08547 0.34252 0.0
H910 H 0.31296 0.03255 0.40336 0.0
H911 H 0.34916 0.00711 0.34224 0.0
H912 H 0.30466 0.99902 0.33971 0.0
H913 H 0.28626 0.01171 0.37046 0.0
H914 H 0.35746 0.04047 0.40511 0.0
H915 H 0.3366 0.93458 0.37878 0.0
H916 H 0.35991 0.92679 0.34886 0.0
O917 O 0.39616 0.04211 0.34384 0.0
C918 C 0.44903 0.0582 0.37373 0.0
C919 C 0.3863 0.96712 0.34351 0.0
C920 C 0.35261 0.95062 0.37063 0.0
N921 N 0.38046 0.99622 0.36652 0.0
C922 C 0.39349 0.99212 0.35014 0.0
C923 C 0.36035 0.97588 0.37683 0.0
C924 C 0.36569 0.94627 0.35383 0.0
C925 C 0.42587 0.10697 0.41812 0.0
N926 N 0.44266 0.10829 0.40236 0.0
C927 C 0.43411 0.11411 0.43966 0.0
C928 C 0.45973 0.12267 0.44502 0.0
C929 C 0.47675 0.124 0.42885 0.0
C930 C 0.46782 0.11667 0.40749 0.0
C931 C 0.48468 0.17458 0.36057 0.0
C932 C 0.47247 0.12697 0.34369 0.0
C933 C 0.46444 0.15189 0.3692 0.0
N934 N 0.45867 0.12847 0.36083 0.0
C935 C 0.49284 0.14924 0.33463 0.0
C936 C 0.49897 0.17319 0.34318 0.0
C937 C 0.40599 0.06341 0.33332 0.0
C938 C 0.32074 0.02688 0.38987 0.0
C939 C 0.34133 0.0128 0.35563 0.0
C940 C 0.3161 0.0081 0.35414 0.0
C941 C 0.30578 0.01522 0.3714 0.0
N942 N 0.35586 0.02418 0.37382 0.0
C943 C 0.3459 0.03126 0.3908 0.0
Co944 Co 0.32879 0.42772 0.87251 0.0
Co945 Co 0.35364 0.38738 0.87897 0.0
O946 O 0.32993 0.39948 0.88729 0.0
C947 C 0.27336 0.38685 0.87115 0.0
O948 O 0.27974 0.37099 0.86203 0.0
C949 C 0.36203 0.39858 0.92613 0.0
O950 O 0.36175 0.41985 0.92181 0.0
O951 O 0.38365 0.42299 0.88011 0.0
O952 O 0.36696 0.44697 0.8684 0.0
H953 H 0.42594 0.38869 0.83634 0.0
H954 H 0.30357 0.4107 0.91582 0.0
O955 O 0.29061 0.40958 0.8764 0.0
H956 H 0.36963 0.50202 0.92536 0.0
H957 H 0.29734 0.49058 0.86115 0.0
H958 H 0.35341 0.45884 0.83285 0.0
H959 H 0.36343 0.48083 0.88953 0.0
H960 H 0.29999 0.45569 0.88013 0.0
O961 O 0.35919 0.38297 0.91078 0.0
H962 H 0.39577 0.40365 0.84656 0.0
H963 H 0.36208 0.34525 0.895 0.0
H964 H 0.35149 0.49391 0.81345 0.0
H965 H 0.30889 0.43125 0.95186 0.0
H966 H 0.32331 0.51001 0.8276 0.0
H967 H 0.34221 0.4772 0.95682 0.0
O968 O 0.32449 0.41054 0.84388 0.0
H969 H 0.27208 0.31214 0.90749 0.0
H970 H 0.33453 0.34437 0.84671 0.0
H971 H 0.29689 0.30053 0.84478 0.0
H972 H 0.26537 0.28414 0.87534 0.0
H973 H 0.30991 0.35594 0.90867 0.0
H974 H 0.39202 0.32979 0.88545 0.0
H975 H 0.42416 0.35151 0.85586 0.0
O976 O 0.34872 0.39171 0.84693 0.0
C977 C 0.38605 0.44422 0.87352 0.0
C978 C 0.41195 0.37901 0.84921 0.0
C979 C 0.39294 0.34598 0.87679 0.0
N980 N 0.37704 0.37517 0.8712 0.0
C981 C 0.39477 0.38734 0.85501 0.0
C982 C 0.37607 0.35484 0.88215 0.0
C983 C 0.41097 0.35816 0.86018 0.0
C984 C 0.31789 0.43079 0.91778 0.0
N985 N 0.33313 0.44455 0.90057 0.0
C986 C 0.32091 0.44229 0.93826 0.0
C987 C 0.33964 0.46806 0.94104 0.0
C988 C 0.35506 0.48198 0.9234 0.0
C989 C 0.35152 0.46984 0.90317 0.0
C990 C 0.30975 0.48378 0.85485 0.0
C991 C 0.34123 0.46586 0.83919 0.0
C992 C 0.3113 0.464 0.86551 0.0
N993 N 0.32703 0.45541 0.85771 0.0
C994 C 0.34016 0.48567 0.8281 0.0
C995 C 0.32432 0.49467 0.83603 0.0
C996 C 0.33553 0.39901 0.83567 0.0
C997 C 0.28572 0.31904 0.8941 0.0
C998 C 0.32087 0.33739 0.86005 0.0
C999 C 0.29962 0.31254 0.85888 0.0
C1000 C 0.28195 0.30335 0.87604 0.0
N1001 N 0.32447 0.35263 0.87784 0.0
C1002 C 0.30721 0.34378 0.89471 0.0
Co1003 Co 0.90503 0.33412 0.3813 0.0
Co1004 Co 0.97073 0.35779 0.38256 0.0
O1005 O 0.93563 0.3349 0.39293 0.0
C1006 C 0.89175 0.27951 0.37622 0.0
O1007 O 0.91378 0.28737 0.36613 0.0
C1008 C 0.97134 0.36987 0.42927 0.0
O1009 O 0.95033 0.37071 0.42502 0.0
O1010 O 0.96594 0.38846 0.38273 0.0
O1011 O 0.92336 0.37228 0.37915 0.0
H1012 H 0.03894 0.42602 0.33481 0.0
H1013 H 0.90157 0.30672 0.42263 0.0
O1014 O 0.88569 0.29572 0.38335 0.0
H1015 H 0.87541 0.37023 0.44179 0.0
H1016 H 0.80978 0.30173 0.37705 0.0
H1017 H 0.89501 0.36145 0.34561 0.0
H1018 H 0.88698 0.36641 0.40382 0.0
H1019 H 0.849 0.30377 0.39193 0.0
O1020 O 0.98283 0.36522 0.41388 0.0
H1021 H 0.99453 0.39716 0.34765 0.0
H1022 H 0.02214 0.36678 0.39659 0.0
H1023 H 0.85632 0.36018 0.33035 0.0
H1024 H 0.88994 0.30973 0.46078 0.0
H1025 H 0.81332 0.33015 0.3461 0.0
H1026 H 0.87685 0.34175 0.47058 0.0
O1027 O 0.91559 0.33219 0.35081 0.0
H1028 H 0.96548 0.27777 0.41375 0.0
H1029 H 0.99171 0.33598 0.35008 0.0
H1030 H 0.99713 0.29785 0.349 0.0
H1031 H 0.98401 0.26846 0.38102 0.0
H1032 H 0.96021 0.31601 0.41406 0.0
H1033 H 0.06687 0.39545 0.38441 0.0
H1034 H 0.07547 0.42527 0.35325 0.0
O1035 O 0.95885 0.35071 0.35126 0.0
C1036 C 0.9463 0.39117 0.38036 0.0
C1037 C 0.03543 0.41306 0.34836 0.0
C1038 C 0.05111 0.39593 0.37622 0.0
N1039 N 0.00577 0.38019 0.37273 0.0
C1040 C 0.01033 0.39662 0.35566 0.0
C1041 C 0.02576 0.37978 0.38308 0.0
C1042 C 0.05592 0.41264 0.35873 0.0
C1043 C 0.89562 0.3205 0.42672 0.0
N1044 N 0.89486 0.3363 0.411 0.0
C1045 C 0.88917 0.3222 0.44837 0.0
C1046 C 0.88187 0.34019 0.45386 0.0
C1047 C 0.88108 0.3562 0.43772 0.0
C1048 C 0.8877 0.35399 0.41625 0.0
C1049 C 0.82842 0.31493 0.37008 0.0
C1050 C 0.87638 0.34844 0.35264 0.0
C1051 C 0.85068 0.31613 0.3784 0.0
N1052 N 0.87429 0.33285 0.36974 0.0
C1053 C 0.85453 0.34776 0.34389 0.0
C1054 C 0.83041 0.33089 0.35272 0.0
C1055 C 0.93724 0.3404 0.34119 0.0
C1056 C 0.97133 0.29047 0.39972 0.0
C1057 C 0.98588 0.32324 0.36405 0.0
C1058 C 0.98905 0.30171 0.36336 0.0
C1059 C 0.9817 0.28523 0.38134 0.0
N1060 N 0.97575 0.32826 0.38215 0.0
C1061 C 0.96847 0.31219 0.39983 0.0
Co1062 Co 0.09968 0.43571 0.63782 0.0
Co1063 Co 0.03509 0.39173 0.63196 0.0
O1064 O 0.07115 0.40626 0.62342 0.0
C1065 C 0.1165 0.39669 0.63908 0.0
O1066 O 0.09404 0.37995 0.64735 0.0
C1067 C 0.03638 0.40387 0.58507 0.0
O1068 O 0.05623 0.42643 0.58988 0.0
O1069 O 0.03799 0.42638 0.63153 0.0
O1070 O 0.07895 0.45301 0.64158 0.0
H1071 H 0.96156 0.38613 0.67578 0.0
H1072 H 0.10834 0.4186 0.59475 0.0
O1073 O 0.12145 0.41938 0.63433 0.0
H1074 H 0.1284 0.50819 0.58357 0.0
H1075 H 0.19296 0.50292 0.64798 0.0
H1076 H 0.10483 0.4672 0.67692 0.0
H1077 H 0.11522 0.48781 0.61988 0.0
H1078 H 0.15628 0.46626 0.62968 0.0
O1079 O 0.02505 0.38723 0.60015 0.0
H1080 H 0.00714 0.40435 0.66524 0.0
H1081 H 0.98588 0.34777 0.61558 0.0
H1082 H 0.1409 0.504 0.69563 0.0
H1083 H 0.1217 0.43834 0.55821 0.0
H1084 H 0.18536 0.52211 0.68115 0.0
H1085 H 0.13173 0.48342 0.55243 0.0
O1086 O 0.08779 0.41909 0.66683 0.0
H1087 H 0.0476 0.32081 0.60181 0.0
H1088 H 0.01372 0.34792 0.66353 0.0
H1089 H 0.01084 0.30545 0.66465 0.0
H1090 H 0.02783 0.29163 0.6336 0.0
H1091 H 0.05027 0.36322 0.60146 0.0
H1092 H 0.94005 0.32907 0.62543 0.0
H1093 H 0.92766 0.34822 0.6558 0.0
O1094 O 0.0446 0.39602 0.66393 0.0
C1095 C 0.05624 0.44842 0.63739 0.0
C1096 C 0.96672 0.37757 0.66256 0.0
C1097 C 0.95465 0.34556 0.63428 0.0
N1098 N 0.99915 0.377 0.63994 0.0
C1099 C 0.9925 0.38775 0.65657 0.0
C1100 C 0.98061 0.35627 0.62874 0.0
C1101 C 0.94771 0.35631 0.65133 0.0
C1102 C 0.11297 0.43832 0.59242 0.0
N1103 N 0.11111 0.45206 0.60945 0.0
C1104 C 0.12041 0.44936 0.57167 0.0
C1105 C 0.12599 0.47464 0.56843 0.0
C1106 C 0.1241 0.48854 0.58589 0.0
C1107 C 0.11656 0.47687 0.6064 0.0
C1108 C 0.17367 0.49524 0.65441 0.0
C1109 C 0.12409 0.47509 0.67044 0.0
C1110 C 0.15283 0.47446 0.64414 0.0
N1111 N 0.12841 0.46475 0.65212 0.0
C1112 C 0.14445 0.49587 0.68114 0.0
C1113 C 0.16939 0.506 0.67302 0.0
C1114 C 0.0654 0.40565 0.67516 0.0
C1115 C 0.04008 0.32659 0.61541 0.0
C1116 C 0.02124 0.34209 0.65 0.0
C1117 C 0.0195 0.31799 0.6507 0.0
C1118 C 0.02901 0.31024 0.63326 0.0
N1119 N 0.03208 0.35799 0.63241 0.0
C1120 C 0.04146 0.35054 0.61527 0.0
Co1121 Co 0.66688 0.09225 0.13481 0.0
Co1122 Co 0.64248 0.02664 0.13135 0.0
O1123 O 0.66589 0.06203 0.12214 0.0
C1124 C 0.72227 0.10781 0.1416 0.0
O1125 O 0.71558 0.08867 0.15533 0.0
C1126 C 0.63178 0.02811 0.08474 0.0
O1127 O 0.63061 0.0488 0.08963 0.0
O1128 O 0.61213 0.0319 0.13079 0.0
O1129 O 0.62868 0.07411 0.13744 0.0
H1130 H 0.57225 0.95683 0.17652 0.0
H1131 H 0.69383 0.09705 0.09286 0.0
O1132 O 0.70533 0.11135 0.1322 0.0
H1133 H 0.63014 0.12386 0.07646 0.0
H1134 H 0.70019 0.18748 0.14138 0.0
H1135 H 0.64047 0.10165 0.1717 0.0
H1136 H 0.63436 0.11099 0.11386 0.0
H1137 H 0.69749 0.1485 0.12525 0.0
O1138 O 0.63613 0.01599 0.09975 0.0
H1139 H 0.60187 0.00167 0.16516 0.0
H1140 H 0.63342 0.97568 0.11588 0.0
H1141 H 0.64238 0.14008 0.18822 0.0
H1142 H 0.69041 0.11 0.05528 0.0
H1143 H 0.67243 0.1834 0.17304 0.0
H1144 H 0.65831 0.12342 0.04687 0.0
O1145 O 0.66871 0.08048 0.16475 0.0
H1146 H 0.72322 0.03233 0.10139 0.0
H1147 H 0.66261 0.00364 0.16347 0.0
H1148 H 0.70033 0.99754 0.16487 0.0
H1149 H 0.73092 0.01188 0.13363 0.0
H1150 H 0.68536 0.03825 0.10077 0.0
H1151 H 0.60398 0.93054 0.12656 0.0
H1152 H 0.5732 0.9209 0.15715 0.0
O1153 O 0.64853 0.03713 0.16299 0.0
C1154 C 0.6097 0.05144 0.13478 0.0
C1155 C 0.58563 0.96079 0.16322 0.0
C1156 C 0.60342 0.94603 0.13515 0.0
N1157 N 0.61946 0.99126 0.14 0.0
C1158 C 0.60249 0.98613 0.15676 0.0
C1159 C 0.61999 0.97161 0.12914 0.0
C1160 C 0.58616 0.94063 0.15233 0.0
C1161 C 0.68003 0.10318 0.08939 0.0
N1162 N 0.66443 0.10342 0.10557 0.0
C1163 C 0.6781 0.11037 0.06806 0.0
C1164 C 0.66005 0.11785 0.06334 0.0
C1165 C 0.64423 0.11808 0.07993 0.0
C1166 C 0.64667 0.11073 0.10107 0.0
C1167 C 0.68698 0.16871 0.1481 0.0
C1168 C 0.65344 0.1204 0.1649 0.0
C1169 C 0.68539 0.14657 0.13907 0.0
N1170 N 0.66865 0.12279 0.1474 0.0
C1171 C 0.65451 0.14211 0.17437 0.0
C1172 C 0.67139 0.16641 0.16587 0.0
C1173 C 0.65939 0.05832 0.17367 0.0
C1174 C 0.71 0.02595 0.11508 0.0
C1175 C 0.6759 0.01004 0.14988 0.0
C1176 C 0.69718 0.00647 0.15073 0.0
C1177 C 0.71433 0.01451 0.13319 0.0
N1178 N 0.67176 0.02122 0.13204 0.0
C1179 C 0.6885 0.02919 0.1148 0.0
Co1180 Co 0.57588 0.67006 0.62935 0.0
Co1181 Co 0.61453 0.6427 0.62603 0.0
O1182 O 0.60451 0.6677 0.617 0.0
C1183 C 0.61671 0.72485 0.63808 0.0
O1184 O 0.62754 0.71738 0.65279 0.0
C1185 C 0.60316 0.63367 0.57916 0.0
O1186 O 0.58175 0.63351 0.5839 0.0
O1187 O 0.57831 0.61362 0.62493 0.0
O1188 O 0.55404 0.63183 0.63093 0.0
H1189 H 0.60885 0.56927 0.67005 0.0
H1190 H 0.60029 0.69741 0.58808 0.0
O1191 O 0.59689 0.70852 0.62754 0.0
H1192 H 0.50903 0.63889 0.56968 0.0
H1193 H 0.51765 0.70771 0.63627 0.0
H1194 H 0.53856 0.6436 0.66526 0.0
H1195 H 0.5247 0.64097 0.60732 0.0
H1196 H 0.55307 0.70338 0.6203 0.0
O1197 O 0.61902 0.63668 0.59435 0.0
H1198 H 0.59609 0.60088 0.65899 0.0
H1199 H 0.65511 0.63147 0.61091 0.0
H1200 H 0.50283 0.64713 0.68159 0.0
H1201 H 0.58539 0.69615 0.55027 0.0
H1202 H 0.49218 0.67938 0.66708 0.0
H1203 H 0.53948 0.66664 0.54085 0.0
O1204 O 0.5885 0.67038 0.65949 0.0
H1205 H 0.69286 0.72176 0.59767 0.0
H1206 H 0.65664 0.66035 0.65897 0.0
H1207 H 0.70134 0.69646 0.66123 0.0
H1208 H 0.71974 0.72744 0.6304 0.0
H1209 H 0.64818 0.68549 0.59617 0.0
H1210 H 0.6684 0.60005 0.62131 0.0
H1211 H 0.64526 0.56874 0.65115 0.0
O1212 O 0.60986 0.64838 0.65765 0.0
C1213 C 0.55663 0.61216 0.62826 0.0
C1214 C 0.61915 0.58288 0.65708 0.0
C1215 C 0.65255 0.60013 0.62971 0.0
N1216 N 0.625 0.61813 0.63448 0.0
C1217 C 0.61206 0.60087 0.65081 0.0
C1218 C 0.64491 0.61784 0.62386 0.0
C1219 C 0.63956 0.58257 0.64645 0.0
C1220 C 0.58022 0.68472 0.58417 0.0
N1221 N 0.56338 0.66931 0.59992 0.0
C1222 C 0.57192 0.68401 0.5627 0.0
C1223 C 0.54617 0.66742 0.55742 0.0
C1224 C 0.52908 0.65182 0.57359 0.0
C1225 C 0.53808 0.65302 0.59486 0.0
C1226 C 0.52207 0.69355 0.6427 0.0
C1227 C 0.53393 0.65756 0.65877 0.0
C1228 C 0.54214 0.69105 0.63376 0.0
N1229 N 0.54774 0.67311 0.64173 0.0
C1230 C 0.51373 0.65953 0.66812 0.0
C1231 C 0.50778 0.67764 0.65999 0.0
C1232 C 0.6004 0.66003 0.66838 0.0
C1233 C 0.68508 0.70835 0.61119 0.0
C1234 C 0.66449 0.6738 0.64552 0.0
C1235 C 0.68982 0.69417 0.64687 0.0
C1236 C 0.70014 0.71154 0.62956 0.0
N1237 N 0.64988 0.67074 0.6274 0.0
C1238 C 0.65982 0.68773 0.6104 0.0
Co1239 Co 0.90727 0.57431 0.13357 0.0
Co1240 Co 0.9718 0.61682 0.12655 0.0
O1241 O 0.93576 0.6024 0.11792 0.0
C1242 C 0.88993 0.61291 0.13169 0.0
O1243 O 0.91215 0.63023 0.13995 0.0
C1244 C 0.97013 0.6027 0.08028 0.0
O1245 O 0.95035 0.58039 0.08577 0.0
O1246 O 0.96829 0.582 0.1272 0.0
O1247 O 0.92803 0.55739 0.1398 0.0
H1248 H 0.04508 0.62265 0.17089 0.0
H1249 H 0.89831 0.58722 0.08885 0.0
O1250 O 0.88545 0.59018 0.12779 0.0
H1251 H 0.87833 0.49694 0.08482 0.0
H1252 H 0.81406 0.50811 0.14585 0.0
H1253 H 0.90231 0.54678 0.17517 0.0
H1254 H 0.89175 0.52072 0.1197 0.0
H1255 H 0.85064 0.54293 0.12584 0.0
O1256 O 0.98164 0.62006 0.09479 0.0
H1257 H 0.99953 0.60466 0.1604 0.0
H1258 H 0.0212 0.65988 0.1095 0.0
H1259 H 0.86633 0.51186 0.19563 0.0
H1260 H 0.88468 0.56405 0.05369 0.0
H1261 H 0.82182 0.49228 0.18097 0.0
H1262 H 0.87469 0.51861 0.0515 0.0
O1263 O 0.91931 0.59374 0.16133 0.0
H1264 H 0.96057 0.68754 0.09406 0.0
H1265 H 0.9936 0.66156 0.15715 0.0
H1266 H 0.99717 0.70436 0.15701 0.0
H1267 H 0.98062 0.71761 0.12527 0.0
H1268 H 0.95721 0.64484 0.09496 0.0
H1269 H 0.06702 0.67834 0.1193 0.0
H1270 H 0.07918 0.65977 0.15027 0.0
O1271 O 0.96248 0.6137 0.15855 0.0
C1272 C 0.95026 0.56096 0.13498 0.0
C1273 C 0.04002 0.63098 0.15742 0.0
C1274 C 0.05233 0.66221 0.12844 0.0
N1275 N 0.00772 0.63137 0.13451 0.0
C1276 C 0.01425 0.62092 0.15146 0.0
C1277 C 0.02637 0.65165 0.12294 0.0
C1278 C 0.05914 0.65178 0.14583 0.0
C1279 C 0.8937 0.56735 0.08809 0.0
N1280 N 0.89574 0.55532 0.10632 0.0
C1281 C 0.88611 0.55437 0.06811 0.0
C1282 C 0.88056 0.52889 0.06689 0.0
C1283 C 0.88262 0.51673 0.08557 0.0
C1284 C 0.8903 0.53032 0.10526 0.0
C1285 C 0.83338 0.51644 0.15237 0.0
C1286 C 0.88302 0.53823 0.16861 0.0
C1287 C 0.85416 0.53619 0.14113 0.0
N1288 N 0.87862 0.5467 0.14923 0.0
C1289 C 0.86271 0.51852 0.1803 0.0
C1290 C 0.83774 0.50756 0.17208 0.0
C1291 C 0.94181 0.60638 0.16957 0.0
C1292 C 0.96791 0.68202 0.10796 0.0
C1293 C 0.98629 0.66716 0.14331 0.0
C1294 C 0.98842 0.69144 0.1433 0.0
C1295 C 0.97914 0.69886 0.12549 0.0
N1296 N 0.97532 0.65078 0.12603 0.0
C1297 C 0.96615 0.6579 0.10852 0.0
Co1298 Co 0.3282 0.90222 0.62935 0.0
Co1299 Co 0.35416 0.96796 0.62508 0.0
O1300 O 0.33022 0.9326 0.61586 0.0
C1301 C 0.27317 0.88892 0.6325 0.0
O1302 O 0.28023 0.91082 0.64253 0.0
C1303 C 0.36527 0.96655 0.57835 0.0
O1304 O 0.36588 0.94552 0.58308 0.0
O1305 O 0.38399 0.96191 0.62492 0.0
O1306 O 0.3663 0.91991 0.63277 0.0
H1307 H 0.42522 0.03706 0.67012 0.0
H1308 H 0.30299 0.89755 0.5866 0.0
O1309 O 0.28994 0.8833 0.62603 0.0
H1310 H 0.36553 0.86845 0.57331 0.0
H1311 H 0.29397 0.80697 0.63769 0.0
H1312 H 0.35312 0.89324 0.66755 0.0
H1313 H 0.3604 0.88193 0.61017 0.0
H1314 H 0.29757 0.84578 0.62036 0.0
O1315 O 0.361 0.97864 0.59345 0.0
H1316 H 0.39494 0.99238 0.65882 0.0
H1317 H 0.36419 0.01926 0.60959 0.0
H1318 H 0.35029 0.85496 0.68529 0.0
H1319 H 0.3073 0.88398 0.5495 0.0
H1320 H 0.32054 0.81144 0.67035 0.0
H1321 H 0.33885 0.86941 0.54265 0.0
O1322 O 0.32508 0.91439 0.65883 0.0
H1323 H 0.2746 0.96418 0.59441 0.0
H1324 H 0.33432 0.99141 0.65706 0.0
H1325 H 0.29714 0.99839 0.65811 0.0
H1326 H 0.267 0.98477 0.62659 0.0
H1327 H 0.31192 0.95739 0.59411 0.0
H1328 H 0.39428 0.06426 0.62023 0.0
H1329 H 0.42501 0.07337 0.65076 0.0
O1330 O 0.34775 0.95769 0.65679 0.0
C1331 C 0.38579 0.94216 0.62966 0.0
C1332 C 0.41186 0.03333 0.65685 0.0
C1333 C 0.39452 0.0486 0.62882 0.0
N1334 N 0.37767 0.00323 0.63372 0.0
C1335 C 0.39462 0.00808 0.65043 0.0
C1336 C 0.37756 0.02309 0.62285 0.0
C1337 C 0.41175 0.0537 0.64596 0.0
C1338 C 0.31657 0.89098 0.58379 0.0
N1339 N 0.33141 0.89052 0.60055 0.0
C1340 C 0.319 0.88342 0.56273 0.0
C1341 C 0.33673 0.87529 0.55889 0.0
C1342 C 0.35173 0.87478 0.57608 0.0
C1343 C 0.3488 0.88252 0.59691 0.0
C1344 C 0.30704 0.82583 0.64433 0.0
C1345 C 0.34025 0.87437 0.66088 0.0
C1346 C 0.30912 0.84788 0.63461 0.0
N1347 N 0.32569 0.87176 0.64284 0.0
C1348 C 0.33867 0.85277 0.67103 0.0
C1349 C 0.32196 0.82835 0.66265 0.0
C1350 C 0.33524 0.9367 0.66757 0.0
C1351 C 0.28764 0.97026 0.60821 0.0
C1352 C 0.32125 0.98537 0.64331 0.0
C1353 C 0.30026 0.98942 0.64398 0.0
C1354 C 0.28336 0.98179 0.62629 0.0
N1355 N 0.32535 0.97413 0.62549 0.0
C1356 C 0.30885 0.96655 0.6081 0.0
Co1357 Co 0.42107 0.32721 0.13046 0.0
Co1358 Co 0.38546 0.35819 0.12959 0.0
O1359 O 0.39283 0.33149 0.1197 0.0
C1360 C 0.3824 0.27283 0.14396 0.0
O1361 O 0.37804 0.2809 0.16254 0.0
C1362 C 0.3942 0.36582 0.08215 0.0
O1363 O 0.41394 0.36245 0.08536 0.0
O1364 O 0.42231 0.38548 0.12748 0.0
O1365 O 0.4451 0.36526 0.13076 0.0
H1366 H 0.39854 0.43368 0.17493 0.0
H1367 H 0.3925 0.29893 0.09073 0.0
O1368 O 0.3977 0.28876 0.12979 0.0
H1369 H 0.48294 0.35192 0.06729 0.0
H1370 H 0.47422 0.28366 0.1343 0.0
H1371 H 0.46168 0.35301 0.16414 0.0
H1372 H 0.47055 0.35278 0.1056 0.0
H1373 H 0.43952 0.29046 0.12027 0.0
O1374 O 0.38034 0.36515 0.09826 0.0
H1375 H 0.40778 0.39994 0.16265 0.0
H1376 H 0.3468 0.37305 0.11651 0.0
H1377 H 0.49678 0.34703 0.1785 0.0
H1378 H 0.40411 0.29718 0.05233 0.0
H1379 H 0.50321 0.31214 0.16356 0.0
H1380 H 0.4496 0.32391 0.04036 0.0
O1381 O 0.41147 0.32915 0.16122 0.0
H1382 H 0.30307 0.28261 0.10272 0.0
H1383 H 0.34506 0.34299 0.16389 0.0
H1384 H 0.29945 0.30912 0.16714 0.0
H1385 H 0.27814 0.27869 0.13637 0.0
H1386 H 0.3487 0.31663 0.10023 0.0
H1387 H 0.33702 0.40664 0.12815 0.0
H1388 H 0.36293 0.43718 0.15763 0.0
O1389 O 0.39077 0.35181 0.16091 0.0
C1390 C 0.44358 0.38565 0.12905 0.0
C1391 C 0.38706 0.42043 0.16213 0.0
C1392 C 0.35255 0.40528 0.13585 0.0
N1393 N 0.3777 0.38443 0.13903 0.0
C1394 C 0.39214 0.40124 0.15516 0.0
C1395 C 0.3582 0.38634 0.12929 0.0
C1396 C 0.36709 0.4224 0.15239 0.0
C1397 C 0.41239 0.31038 0.08571 0.0
N1398 N 0.43084 0.32588 0.10042 0.0
C1399 C 0.41883 0.3094 0.06392 0.0
C1400 C 0.44434 0.32445 0.05721 0.0
C1401 C 0.46305 0.34019 0.0723 0.0
C1402 C 0.45591 0.34067 0.09396 0.0
C1403 C 0.47165 0.29897 0.14091 0.0
C1404 C 0.46447 0.3379 0.15745 0.0
C1405 C 0.452 0.30288 0.13306 0.0
N1406 N 0.4487 0.32225 0.14126 0.0
C1407 C 0.48433 0.33456 0.16569 0.0
C1408 C 0.48791 0.31496 0.15732 0.0
C1409 C 0.4005 0.33995 0.17093 0.0
C1410 C 0.31212 0.2958 0.11621 0.0
C1411 C 0.33594 0.32975 0.15047 0.0
C1412 C 0.3101 0.31066 0.15238 0.0
C1413 C 0.29815 0.29359 0.13511 0.0
N1414 N 0.34947 0.33186 0.13184 0.0
C1415 C 0.33792 0.31515 0.11487 0.0
H1416 H 0.43283 0.10284 0.30457 0.0
H1417 H 0.37443 0.02235 0.30701 0.0
H1418 H 0.43048 0.10186 0.26501 0.0
H1419 H 0.37108 0.02166 0.26725 0.0
H1420 H 0.39195 0.02271 0.19474 0.0
H1421 H 0.39192 0.0223 0.23458 0.0
H1422 H 0.40584 0.10035 0.23513 0.0
H1423 H 0.40715 0.10112 0.1954 0.0
C1424 C 0.4192 0.08496 0.29669 0.0
C1425 C 0.40378 0.06268 0.30908 0.0
C1426 C 0.41769 0.08444 0.27388 0.0
C1427 C 0.40043 0.06173 0.26272 0.0
C1428 C 0.38486 0.03944 0.27515 0.0
C1429 C 0.38664 0.03987 0.29802 0.0
C1430 C 0.39488 0.03974 0.20339 0.0
C1431 C 0.3998 0.06203 0.19185 0.0
C1432 C 0.39473 0.03947 0.2263 0.0
C1433 C 0.39912 0.06138 0.23827 0.0
C1434 C 0.40308 0.08332 0.22662 0.0
C1435 C 0.40363 0.08372 0.20376 0.0
H1436 H 0.34967 0.36926 0.69684 0.0
H1437 H 0.32304 0.42421 0.69899 0.0
H1438 H 0.34689 0.36587 0.73665 0.0
H1439 H 0.32137 0.4217 0.7385 0.0
H1440 H 0.29982 0.39872 0.80787 0.0
H1441 H 0.29869 0.39575 0.76823 0.0
H1442 H 0.36697 0.38864 0.7692 0.0
H1443 H 0.36734 0.39043 0.80907 0.0
C1444 C 0.34324 0.38063 0.70576 0.0
C1445 C 0.33646 0.39691 0.69462 0.0
C1446 C 0.34182 0.37882 0.72863 0.0
C1447 C 0.3338 0.39342 0.74093 0.0
C1448 C 0.32705 0.40967 0.72969 0.0
C1449 C 0.3282 0.41126 0.70691 0.0
C1450 C 0.31448 0.3963 0.79965 0.0
C1451 C 0.33381 0.39505 0.81165 0.0
C1452 C 0.31395 0.39477 0.77684 0.0
C1453 C 0.33299 0.39239 0.76534 0.0
C1454 C 0.35185 0.39026 0.77742 0.0
C1455 C 0.35215 0.39141 0.80032 0.0
H1456 H 0.89563 0.30629 0.20349 0.0
H1457 H 0.97515 0.3672 0.20225 0.0
H1458 H 0.89718 0.30484 0.24314 0.0
H1459 H 0.97641 0.36664 0.24208 0.0
H1460 H 0.97683 0.34735 0.31403 0.0
H1461 H 0.97652 0.34498 0.2742 0.0
H1462 H 0.89753 0.32828 0.27362 0.0
H1463 H 0.8975 0.32946 0.31322 0.0
C1464 C 0.91345 0.31947 0.2117 0.0
C1465 C 0.93521 0.33698 0.19965 0.0
C1466 C 0.91431 0.31878 0.23452 0.0
C1467 C 0.93682 0.33586 0.24603 0.0
C1468 C 0.95879 0.35297 0.23391 0.0
C1469 C 0.95804 0.35341 0.211 0.0
C1470 C 0.95934 0.34296 0.30539 0.0
C1471 C 0.93716 0.33846 0.31693 0.0
C1472 C 0.95921 0.34179 0.28248 0.0
C1473 C 0.93698 0.33638 0.2705 0.0
C1474 C 0.91486 0.33192 0.28214 0.0
C1475 C 0.91489 0.33277 0.30497 0.0
H1476 H 0.59478 0.89826 0.70191 0.0
H1477 H 0.60895 0.97636 0.70161 0.0
H1478 H 0.59722 0.89922 0.74158 0.0
H1479 H 0.61035 0.97698 0.74148 0.0
H1480 H 0.56892 0.89657 0.81081 0.0
H1481 H 0.57153 0.89773 0.77125 0.0
H1482 H 0.63266 0.97718 0.77381 0.0
H1483 H 0.62934 0.97633 0.81359 0.0
C1484 C 0.5984 0.91566 0.71033 0.0
C1485 C 0.60144 0.93716 0.69858 0.0
C1486 C 0.59963 0.91616 0.73313 0.0
C1487 C 0.60358 0.93803 0.74485 0.0
C1488 C 0.60749 0.95986 0.73305 0.0
C1489 C 0.60657 0.95948 0.71016 0.0
C1490 C 0.58304 0.9143 0.80302 0.0
C1491 C 0.59894 0.93635 0.81548 0.0
C1492 C 0.58466 0.91492 0.78023 0.0
C1493 C 0.60244 0.93751 0.76922 0.0
C1494 C 0.61854 0.95953 0.78168 0.0
C1495 C 0.61675 0.95899 0.80453 0.0
H1496 H 0.67887 0.57854 0.30524 0.0
H1497 H 0.65371 0.63466 0.3069 0.0
H1498 H 0.67974 0.58008 0.26572 0.0
H1499 H 0.65571 0.63707 0.26703 0.0
H1500 H 0.63213 0.60997 0.19561 0.0
H1501 H 0.63405 0.61313 0.23538 0.0
H1502 H 0.70158 0.60471 0.23513 0.0
H1503 H 0.6989 0.60037 0.19556 0.0
C1504 C 0.6739 0.59157 0.29721 0.0
C1505 C 0.66619 0.60647 0.30936 0.0
C1506 C 0.6746 0.5926 0.27441 0.0
C1507 C 0.66792 0.6088 0.26303 0.0
C1508 C 0.66065 0.62411 0.27518 0.0
C1509 C 0.65969 0.62287 0.29808 0.0
C1510 C 0.64747 0.60894 0.20406 0.0
C1511 C 0.66515 0.60457 0.19242 0.0
C1512 C 0.64868 0.61092 0.2269 0.0
C1513 C 0.66782 0.60891 0.23861 0.0
C1514 C 0.68615 0.60567 0.2268 0.0
C1515 C 0.68472 0.60333 0.20404 0.0
H1516 H 0.09594 0.69693 0.69622 0.0
H1517 H 0.01792 0.63287 0.69713 0.0
H1518 H 0.09625 0.69801 0.73595 0.0
H1519 H 0.01861 0.63308 0.73696 0.0
H1520 H 0.02051 0.65105 0.8093 0.0
H1521 H 0.01877 0.65395 0.76964 0.0
H1522 H 0.09889 0.67482 0.76548 0.0
H1523 H 0.10093 0.67315 0.80498 0.0
C1524 C 0.07884 0.683 0.70492 0.0
C1525 C 0.05696 0.66471 0.69347 0.0
C1526 C 0.07907 0.68348 0.72776 0.0
C1527 C 0.05758 0.66541 0.73982 0.0
C1528 C 0.03544 0.6475 0.72833 0.0
C1529 C 0.03507 0.64728 0.70543 0.0
C1530 C 0.03781 0.65648 0.79992 0.0
C1531 C 0.06089 0.66198 0.81041 0.0
C1532 C 0.03676 0.65796 0.77711 0.0
C1533 C 0.05869 0.66467 0.7642 0.0
C1534 C 0.08173 0.67015 0.77478 0.0
C1535 C 0.08286 0.66901 0.79754 0.0
H1536 H 0.98179 0.61587 0.19699 0.0
H1537 H 0.90594 0.60752 0.19616 0.0
H1538 H 0.982 0.61761 0.23686 0.0
H1539 H 0.90656 0.61039 0.23582 0.0
H1540 H 0.89957 0.57827 0.30418 0.0
H1541 H 0.90218 0.58283 0.26484 0.0
H1542 H 0.98304 0.63969 0.26975 0.0
H1543 H 0.98067 0.63435 0.30945 0.0
C1544 C 0.9654 0.61497 0.20529 0.0
C1545 C 0.94369 0.61118 0.19343 0.0
C1546 C 0.96555 0.61607 0.22818 0.0
C1547 C 0.94411 0.61372 0.23966 0.0
C1548 C 0.9231 0.61151 0.22762 0.0
C1549 C 0.92281 0.61004 0.20483 0.0
C1550 C 0.91794 0.59191 0.29699 0.0
C1551 C 0.93991 0.60595 0.31009 0.0
C1552 C 0.91939 0.59468 0.27431 0.0
C1553 C 0.94278 0.6118 0.264 0.0
C1554 C 0.96475 0.62615 0.27709 0.0
C1555 C 0.96336 0.6232 0.29988 0.0
H1556 H 0.34531 0.97779 0.80691 0.0
H1557 H 0.32389 0.89748 0.80397 0.0
H1558 H 0.34255 0.97865 0.76709 0.0
H1559 H 0.32228 0.89864 0.76451 0.0
H1560 H 0.30083 0.8993 0.69496 0.0
H1561 H 0.29903 0.90037 0.73463 0.0
H1562 H 0.36383 0.97806 0.7346 0.0
H1563 H 0.36481 0.97736 0.69476 0.0
C1564 C 0.34002 0.96033 0.79782 0.0
C1565 C 0.33472 0.93755 0.80875 0.0
C1566 C 0.33861 0.96087 0.77494 0.0
C1567 C 0.3321 0.93869 0.76243 0.0
C1568 C 0.32676 0.91597 0.77347 0.0
C1569 C 0.32789 0.91536 0.79624 0.0
C1570 C 0.31458 0.9167 0.7034 0.0
C1571 C 0.33311 0.93815 0.69166 0.0
C1572 C 0.31367 0.91727 0.72622 0.0
C1573 C 0.33154 0.93917 0.738 0.0
C1574 C 0.34958 0.96094 0.72618 0.0
C1575 C 0.35025 0.96049 0.70329 0.0
H1576 H 0.37259 0.3467 0.31111 0.0
H1577 H 0.43581 0.33163 0.30705 0.0
H1578 H 0.36932 0.34527 0.27135 0.0
H1579 H 0.43339 0.33143 0.26747 0.0
H1580 H 0.40991 0.30913 0.1978 0.0
H1581 H 0.40936 0.30781 0.23742 0.0
H1582 H 0.38949 0.36787 0.23904 0.0
H1583 H 0.38873 0.36822 0.19918 0.0
C1584 C 0.38584 0.34314 0.30176 0.0
C1585 C 0.40435 0.3391 0.31236 0.0
C1586 C 0.3841 0.34253 0.2789 0.0
C1587 C 0.40104 0.33818 0.26603 0.0
C1588 C 0.4196 0.33426 0.27671 0.0
C1589 C 0.42111 0.33453 0.29952 0.0
C1590 C 0.40522 0.32195 0.20654 0.0
C1591 C 0.39939 0.33881 0.19521 0.0
C1592 C 0.40513 0.32136 0.22938 0.0
C1593 C 0.39965 0.33792 0.24161 0.0
C1594 C 0.39349 0.35458 0.23027 0.0
C1595 C 0.39321 0.35491 0.20735 0.0
H1596 H 0.10359 0.4304 0.70539 0.0
H1597 H 0.02305 0.37282 0.69975 0.0
H1598 H 0.10062 0.42628 0.74481 0.0
H1599 H 0.02034 0.36777 0.73943 0.0
H1600 H 0.01854 0.38739 0.81221 0.0
H1601 H 0.01981 0.3881 0.77235 0.0
H1602 H 0.09712 0.40004 0.77421 0.0
H1603 H 0.09623 0.40056 0.81391 0.0
C1604 C 0.08528 0.41654 0.71252 0.0
C1605 C 0.06357 0.40191 0.69927 0.0
C1606 C 0.08361 0.41402 0.73526 0.0
C1607 C 0.06027 0.39654 0.7455 0.0
C1608 C 0.03858 0.38168 0.73223 0.0
C1609 C 0.04017 0.38443 0.70942 0.0
C1610 C 0.03574 0.39002 0.80408 0.0
C1611 C 0.05738 0.39421 0.81628 0.0
C1612 C 0.03644 0.39029 0.78116 0.0
C1613 C 0.05869 0.39442 0.76989 0.0
C1614 C 0.0799 0.39752 0.7822 0.0
C1615 C 0.07933 0.39763 0.80505 0.0
H1616 H 0.68973 0.09667 0.31108 0.0
H1617 H 0.63445 0.01518 0.31209 0.0
H1618 H 0.69082 0.09591 0.27172 0.0
H1619 H 0.63397 0.01476 0.27221 0.0
H1620 H 0.65401 0.0184 0.19956 0.0
H1621 H 0.65561 0.01728 0.23942 0.0
H1622 H 0.66659 0.09423 0.24208 0.0
H1623 H 0.66664 0.09586 0.20261 0.0
C1624 C 0.67775 0.07852 0.30296 0.0
C1625 C 0.66216 0.05598 0.31494 0.0
C1626 C 0.67807 0.07814 0.28018 0.0
C1627 C 0.6622 0.05536 0.26855 0.0
C1628 C 0.64671 0.03265 0.2805 0.0
C1629 C 0.64683 0.03292 0.30343 0.0
C1630 C 0.657 0.03513 0.20872 0.0
C1631 C 0.66046 0.05731 0.19785 0.0
C1632 C 0.6577 0.03443 0.23161 0.0
C1633 C 0.66143 0.05573 0.24415 0.0
C1634 C 0.66444 0.07769 0.23314 0.0
C1635 C 0.66427 0.07857 0.21037 0.0
H1636 H 0.61216 0.63068 0.69517 0.0
H1637 H 0.59403 0.69193 0.69638 0.0
H1638 H 0.61277 0.6304 0.735 0.0
H1639 H 0.59577 0.69246 0.73608 0.0
H1640 H 0.56954 0.66656 0.80542 0.0
H1641 H 0.57129 0.66773 0.76584 0.0
H1642 H 0.63435 0.65221 0.76739 0.0
H1643 H 0.63185 0.64995 0.80723 0.0
C1644 C 0.60866 0.64434 0.70392 0.0
C1645 C 0.60279 0.66115 0.69255 0.0
C1646 C 0.60916 0.64428 0.72681 0.0
C1647 C 0.60409 0.66125 0.73888 0.0
C1648 C 0.59912 0.67866 0.72742 0.0
C1649 C 0.5983 0.67848 0.70459 0.0
C1650 C 0.58386 0.66345 0.79739 0.0
C1651 C 0.60062 0.65824 0.80959 0.0
C1652 C 0.58499 0.6643 0.77459 0.0
C1653 C 0.60312 0.6603 0.76328 0.0
C1654 C 0.61993 0.6551 0.77548 0.0
C1655 C 0.6186 0.65395 0.79836 0.0
H1656 H 0.34731 0.11259 0.15601 0.0
H1657 H 0.40811 0.15354 0.10885 0.0
H1658 H 0.33871 0.14849 0.1564 0.0
H1659 H 0.40011 0.18921 0.10965 0.0
H1660 H 0.37842 0.24814 0.10551 0.0
H1661 H 0.37196 0.20499 0.10079 0.0
H1662 H 0.36085 0.19223 0.17049 0.0
H1663 H 0.36632 0.23507 0.17507 0.0
C1664 C 0.35855 0.12903 0.14551 0.0
C1665 C 0.37854 0.13031 0.13257 0.0
C1666 C 0.35375 0.14965 0.14583 0.0
C1667 C 0.36873 0.1718 0.1331 0.0
C1668 C 0.38786 0.17238 0.11942 0.0
C1669 C 0.39265 0.15194 0.11913 0.0
C1670 C 0.37398 0.23588 0.11976 0.0
C1671 C 0.37328 0.24514 0.14071 0.0
C1672 C 0.37041 0.21119 0.11708 0.0
C1673 C 0.36647 0.19532 0.13532 0.0
C1674 C 0.36374 0.20384 0.15606 0.0
C1675 C 0.36699 0.22848 0.15871 0.0
H1676 H 0.16319 0.42635 0.62007 0.0
H1677 H 0.1166 0.35243 0.6512 0.0
H1678 H 0.19859 0.41814 0.61731 0.0
H1679 H 0.15237 0.3438 0.64786 0.0
H1680 H 0.23693 0.36161 0.66547 0.0
H1681 H 0.19507 0.35932 0.66382 0.0
H1682 H 0.21345 0.39303 0.59919 0.0
H1683 H 0.25551 0.39632 0.60133 0.0
C1684 C 0.16035 0.40812 0.6261 0.0
C1685 C 0.13705 0.39011 0.636 0.0
C1686 C 0.18067 0.40328 0.62429 0.0
C1687 C 0.17833 0.38019 0.6322 0.0
C1688 C 0.15484 0.36183 0.64171 0.0
C1689 C 0.13433 0.36672 0.64353 0.0
C1690 C 0.2317 0.36794 0.65074 0.0
C1691 C 0.24956 0.37954 0.63368 0.0
C1692 C 0.20769 0.36658 0.64975 0.0
C1693 C 0.20112 0.37654 0.63157 0.0
C1694 C 0.21818 0.38589 0.61371 0.0
C1695 C 0.24222 0.38762 0.61485 0.0
H1696 H 0.88258 0.23359 0.15566 0.0
H1697 H 0.8376 0.25938 0.11966 0.0
H1698 H 0.84664 0.18914 0.15348 0.0
H1699 H 0.80201 0.21581 0.11809 0.0
H1700 H 0.74438 0.13647 0.10539 0.0
H1701 H 0.7868 0.17467 0.10248 0.0
H1702 H 0.80365 0.16331 0.16895 0.0
H1703 H 0.76146 0.12421 0.17138 0.0
C1704 C 0.86518 0.22979 0.14715 0.0
C1705 C 0.86294 0.25007 0.13795 0.0
C1706 C 0.84456 0.20437 0.146 0.0
C1707 C 0.82143 0.19881 0.13552 0.0
C1708 C 0.81963 0.21913 0.12589 0.0
C1709 C 0.84006 0.24431 0.12701 0.0
C1710 C 0.75742 0.14181 0.11918 0.0
C1711 C 0.74957 0.12763 0.1387 0.0
C1712 C 0.78166 0.16379 0.11759 0.0
C1713 C 0.79841 0.17248 0.13568 0.0
C1714 C 0.79129 0.15717 0.15468 0.0
C1715 C 0.76709 0.1348 0.15612 0.0
H1716 H 0.63831 0.76312 0.66879 0.0
H1717 H 0.61277 0.74834 0.60163 0.0
H1718 H 0.64191 0.80553 0.6666 0.0
H1719 H 0.61737 0.79094 0.59909 0.0
H1720 H 0.58205 0.84086 0.61625 0.0
H1721 H 0.59033 0.80544 0.61427 0.0
H1722 H 0.66029 0.84913 0.65163 0.0
H1723 H 0.65154 0.88487 0.6541 0.0
C1724 C 0.63433 0.76931 0.65335 0.0
C1725 C 0.62485 0.75235 0.63549 0.0
C1726 C 0.63645 0.79363 0.65206 0.0
C1727 C 0.62937 0.80141 0.6328 0.0
C1728 C 0.62227 0.78527 0.61436 0.0
C1729 C 0.61978 0.76092 0.61576 0.0
C1730 C 0.59937 0.84315 0.6239 0.0
C1731 C 0.61603 0.86567 0.63549 0.0
C1732 C 0.60429 0.82284 0.62257 0.0
C1733 C 0.62608 0.82442 0.63269 0.0
C1734 C 0.64325 0.84725 0.64376 0.0
C1735 C 0.63831 0.86775 0.64508 0.0
H1736 H 0.74594 0.60551 0.09806 0.0
H1737 H 0.76635 0.64137 0.16169 0.0
H1738 H 0.78881 0.61107 0.09415 0.0
H1739 H 0.80906 0.64587 0.15832 0.0
H1740 H 0.88814 0.6563 0.1437 0.0
H1741 H 0.85103 0.6629 0.14125 0.0
H1742 H 0.80678 0.58819 0.11079 0.0
H1743 H 0.84356 0.58206 0.11258 0.0
C1744 C 0.75979 0.61492 0.1111 0.0
C1745 C 0.75278 0.62272 0.13029 0.0
C1746 C 0.7843 0.61795 0.10894 0.0
C1747 C 0.80221 0.62831 0.12615 0.0
C1748 C 0.79581 0.63788 0.14471 0.0
C1749 C 0.77132 0.63525 0.14669 0.0
C1750 C 0.87058 0.64154 0.13616 0.0
C1751 C 0.86879 0.61861 0.12846 0.0
C1752 C 0.84928 0.64525 0.13488 0.0
C1753 C 0.82588 0.62612 0.12578 0.0
C1754 C 0.82455 0.60361 0.1175 0.0
C1755 C 0.84568 0.59996 0.11874 0.0
H1756 H 0.2533 0.845 0.60858 0.0
H1757 H 0.23076 0.88775 0.65126 0.0
H1758 H 0.2096 0.80952 0.60818 0.0
H1759 H 0.18615 0.85204 0.65029 0.0
H1760 H 0.12395 0.76629 0.66863 0.0
H1761 H 0.1622 0.80883 0.66491 0.0
H1762 H 0.16695 0.79378 0.59641 0.0
H1763 H 0.1296 0.75093 0.6005 0.0
C1764 C 0.23887 0.84704 0.6176 0.0
C1765 C 0.24563 0.86916 0.63015 0.0
C1766 C 0.2136 0.82668 0.61718 0.0
C1767 C 0.19418 0.82784 0.62916 0.0
C1768 C 0.20066 0.85041 0.64103 0.0
C1769 C 0.22617 0.87093 0.64147 0.0
C1770 C 0.13286 0.77238 0.65269 0.0
C1771 C 0.12412 0.75521 0.63494 0.0
C1772 C 0.15475 0.79681 0.65051 0.0
C1773 C 0.16805 0.80457 0.63046 0.0
C1774 C 0.15769 0.78818 0.61225 0.0
C1775 C 0.13617 0.76368 0.61454 0.0
H1776 H 0.83829 0.57584 0.38702 0.0
H1777 H 0.88539 0.65214 0.36012 0.0
H1778 H 0.80203 0.58277 0.38902 0.0
H1779 H 0.84873 0.65947 0.36276 0.0
H1780 H 0.76508 0.64177 0.34245 0.0
H1781 H 0.80712 0.64455 0.34517 0.0
H1782 H 0.78506 0.60561 0.40761 0.0
H1783 H 0.74288 0.60182 0.40432 0.0
C1784 C 0.84105 0.59431 0.38179 0.0
C1785 C 0.86477 0.61339 0.37328 0.0
C1786 C 0.82021 0.5984 0.38316 0.0
C1787 C 0.82245 0.62178 0.37623 0.0
C1788 C 0.84633 0.64118 0.36812 0.0
C1789 C 0.86734 0.63704 0.36671 0.0
C1790 C 0.76952 0.63433 0.35694 0.0
C1791 C 0.75066 0.62119 0.37299 0.0
C1792 C 0.79362 0.63598 0.35855 0.0
C1793 C 0.79927 0.62478 0.37639 0.0
C1794 C 0.78109 0.61374 0.39334 0.0
C1795 C 0.75697 0.6117 0.39154 0.0
H1796 H 0.12559 0.76189 0.84076 0.0
H1797 H 0.14243 0.74157 0.90387 0.0
H1798 H 0.16438 0.80432 0.84341 0.0
H1799 H 0.18032 0.78414 0.90708 0.0
H1800 H 0.26362 0.83831 0.88772 0.0
H1801 H 0.22069 0.80155 0.88946 0.0
H1802 H 0.19007 0.84637 0.86044 0.0
H1803 H 0.23379 0.88351 0.85805 0.0
C1804 C 0.13715 0.76682 0.85548 0.0
C1805 C 0.13132 0.74838 0.87194 0.0
C1806 C 0.15934 0.79114 0.85705 0.0
C1807 C 0.1758 0.79746 0.87526 0.0
C1808 C 0.16853 0.77967 0.89254 0.0
C1809 C 0.14672 0.75533 0.89078 0.0
C1810 C 0.24781 0.84055 0.88183 0.0
C1811 C 0.25223 0.86388 0.87261 0.0
C1812 C 0.22302 0.81942 0.88304 0.0
C1813 C 0.20178 0.82097 0.87525 0.0
C1814 C 0.20602 0.84448 0.86647 0.0
C1815 C 0.23103 0.86578 0.8652 0.0
H1816 H 0.36912 0.12937 0.33386 0.0
H1817 H 0.39142 0.13644 0.40174 0.0
H1818 H 0.36459 0.16754 0.33729 0.0
H1819 H 0.38568 0.17364 0.40555 0.0
H1820 H 0.42002 0.2595 0.39272 0.0
H1821 H 0.41245 0.21606 0.39291 0.0
H1822 H 0.34518 0.1915 0.3522 0.0
H1823 H 0.35337 0.23589 0.35145 0.0
C1824 C 0.37218 0.13858 0.34969 0.0
C1825 C 0.38104 0.13029 0.36744 0.0
C1826 C 0.36951 0.16041 0.35169 0.0
C1827 C 0.37535 0.17405 0.37158 0.0
C1828 C 0.3818 0.16411 0.38982 0.0
C1829 C 0.38492 0.14268 0.3877 0.0
C1830 C 0.40344 0.24491 0.38392 0.0
C1831 C 0.38743 0.25128 0.37189 0.0
C1832 C 0.3989 0.21978 0.38423 0.0
C1833 C 0.37809 0.20012 0.37267 0.0
C1834 C 0.36149 0.20623 0.36116 0.0
C1835 C 0.36608 0.23159 0.36083 0.0
H1836 H 0.25504 0.41309 0.89397 0.0
H1837 H 0.22984 0.34429 0.85523 0.0
H1838 H 0.2113 0.40465 0.89609 0.0
H1839 H 0.18527 0.33534 0.85788 0.0
H1840 H 0.12115 0.35724 0.84122 0.0
H1841 H 0.15994 0.35362 0.84332 0.0
H1842 H 0.16973 0.37764 0.91097 0.0
H1843 H 0.13175 0.38229 0.9085 0.0
C1844 C 0.24006 0.39587 0.88615 0.0
C1845 C 0.24602 0.37948 0.87426 0.0
C1846 C 0.2148 0.39086 0.88758 0.0
C1847 C 0.19463 0.36921 0.87725 0.0
C1848 C 0.20039 0.35227 0.8659 0.0
C1849 C 0.22587 0.35731 0.86449 0.0
C1850 C 0.13127 0.36109 0.85666 0.0
C1851 C 0.12374 0.37045 0.87459 0.0
C1852 C 0.15348 0.35897 0.8579 0.0
C1853 C 0.1683 0.3659 0.87718 0.0
C1854 C 0.15921 0.37286 0.89568 0.0
C1855 C 0.13735 0.37537 0.89433 0.0
H1856 H 0.75418 0.13193 0.40133 0.0
H1857 H 0.76573 0.142 0.33145 0.0
H1858 H 0.79799 0.1673 0.40725 0.0
H1859 H 0.8092 0.17751 0.33739 0.0
H1860 H 0.88942 0.23941 0.35262 0.0
H1861 H 0.8534 0.19503 0.35131 0.0
H1862 H 0.81423 0.2132 0.40148 0.0
H1863 H 0.85001 0.25706 0.40295 0.0
C1864 C 0.76624 0.14123 0.38723 0.0
C1865 C 0.75631 0.13445 0.36591 0.0
C1866 C 0.7913 0.16159 0.39063 0.0
C1867 C 0.80694 0.17549 0.3728 0.0
C1868 C 0.79775 0.16718 0.3515 0.0
C1869 C 0.77271 0.1469 0.34809 0.0
C1870 C 0.87335 0.2337 0.36369 0.0
C1871 C 0.87238 0.2518 0.37767 0.0
C1872 C 0.85269 0.20834 0.36288 0.0
C1873 C 0.83088 0.20061 0.37621 0.0
C1874 C 0.8308 0.21836 0.39116 0.0
C1875 C 0.85125 0.24363 0.39185 0.0
H1876 H 0.61794 0.74919 0.89448 0.0
H1877 H 0.61358 0.75919 0.82489 0.0
H1878 H 0.62748 0.79327 0.90061 0.0
H1879 H 0.62275 0.80307 0.8311 0.0
H1880 H 0.64534 0.88461 0.84716 0.0
H1881 H 0.65203 0.8476 0.84435 0.0
H1882 H 0.59776 0.81008 0.89695 0.0
H1883 H 0.59126 0.8468 0.89983 0.0
C1884 C 0.61957 0.76093 0.88044 0.0
C1885 C 0.61454 0.75051 0.85921 0.0
C1886 C 0.62494 0.78617 0.88398 0.0
C1887 C 0.62551 0.80153 0.86637 0.0
C1888 C 0.6226 0.7918 0.84501 0.0
C1889 C 0.61715 0.76655 0.84147 0.0
C1890 C 0.63534 0.86869 0.85844 0.0
C1891 C 0.61756 0.86846 0.87354 0.0
C1892 C 0.63907 0.84748 0.85675 0.0
C1893 C 0.62534 0.82587 0.87036 0.0
C1894 C 0.60887 0.82649 0.88639 0.0
C1895 C 0.60496 0.84748 0.88791 0.0
H1896 H 0.36844 0.94439 0.95878 0.0
H1897 H 0.37003 0.0138 0.93724 0.0
H1898 H 0.37464 0.95967 0.99649 0.0
H1899 H 0.37635 0.0291 0.97508 0.0
H1900 H 0.421 0.05884 0.0409 0.0
H1901 H 0.41186 0.04332 1.00326 0.0
H1902 H 0.35112 0.96956 0.02597 0.0
H1903 H 0.36016 0.9851 0.06375 0.0
C1904 C 0.37009 0.96291 0.96208 0.0
C1905 C 0.36886 0.97794 0.94498 0.0
C1906 C 0.37346 0.97155 0.98373 0.0
C1907 C 0.376 0.99558 0.98875 0.0
C1908 C 0.37464 0.01058 0.97167 0.0
C1909 C 0.37092 0.00177 0.95003 0.0
C1910 C 0.40565 0.03932 0.0379 0.0
C1911 C 0.39138 0.02316 0.05534 0.0
C1912 C 0.40031 0.03051 0.01631 0.0
C1913 C 0.38079 0.00523 0.01166 0.0
C1914 C 0.36641 0.98908 0.02907 0.0
C1915 C 0.37152 0.99802 0.05068 0.0
H1916 H 0.42763 0.36666 0.46299 0.0
H1917 H 0.36308 0.37369 0.44053 0.0
H1918 H 0.41838 0.37298 0.50062 0.0
H1919 H 0.35389 0.38004 0.47827 0.0
H1920 H 0.3686 0.42295 0.54467 0.0
H1921 H 0.37567 0.41429 0.5071 0.0
H1922 H 0.38402 0.35053 0.52936 0.0
H1923 H 0.3769 0.35914 0.56708 0.0
C1924 C 0.41145 0.36954 0.46607 0.0
C1925 C 0.39616 0.3698 0.44875 0.0
C1926 C 0.40606 0.37297 0.48766 0.0
C1927 C 0.38543 0.37703 0.4924 0.0
C1928 C 0.37005 0.37717 0.4751 0.0
C1929 C 0.37525 0.37342 0.45351 0.0
C1930 C 0.37192 0.40706 0.54159 0.0
C1931 C 0.3723 0.3918 0.55889 0.0
C1932 C 0.37579 0.402 0.52003 0.0
C1933 C 0.38041 0.38174 0.51527 0.0
C1934 C 0.38071 0.36641 0.53255 0.0
C1935 C 0.37653 0.37127 0.55413 0.0
H1936 H 0.052 0.41744 0.96607 0.0
H1937 H 0.97796 0.35659 0.94381 0.0
H1938 H 0.03662 0.40919 0.00371 0.0
H1939 H 0.96256 0.34833 0.98167 0.0
H1940 H 0.93773 0.36602 0.04875 0.0
H1941 H 0.95258 0.37143 0.01093 0.0
H1942 H 0.02294 0.37512 0.0324 0.0
H1943 H 0.00814 0.36974 0.07032 0.0
C1944 C 0.03243 0.40227 0.9692 0.0
C1945 C 0.01616 0.38774 0.9519 0.0
C1946 C 0.02369 0.39743 0.99082 0.0
C1947 C 0.99838 0.37811 0.99568 0.0
C1948 C 0.9821 0.36349 0.97841 0.0
C1949 C 0.99095 0.36814 0.95675 0.0
C1950 C 0.95637 0.36795 0.04543 0.0
C1951 C 0.97182 0.3676 0.06258 0.0
C1952 C 0.96477 0.37085 0.02373 0.0
C1953 C 0.98894 0.37374 0.01867 0.0
C1954 C 0.00432 0.37318 0.0358 0.0
C1955 C 0.9958 0.36999 0.05751 0.0
H1956 H 0.60137 0.9802 0.4428 0.0
H1957 H 0.66141 0.05437 0.46499 0.0
H1958 H 0.59228 0.96501 0.48041 0.0
H1959 H 0.65445 0.03881 0.50244 0.0
H1960 H 0.59176 0.93587 0.54816 0.0
H1961 H 0.60229 0.9508 0.51061 0.0
H1962 H 0.63039 0.0291 0.53266 0.0
H1963 H 0.62211 0.01401 0.57029 0.0
C1964 C 0.61295 0.99305 0.45583 0.0
C1965 C 0.63194 0.01843 0.45114 0.0
C1966 C 0.60796 0.98433 0.47747 0.0
C1967 C 0.62254 0.00054 0.49491 0.0
C1968 C 0.64215 0.0258 0.48985 0.0
C1969 C 0.64643 0.03475 0.4683 0.0
C1970 C 0.60039 0.95629 0.54483 0.0
C1971 C 0.60621 0.97384 0.562 0.0
C1972 C 0.60622 0.96494 0.52322 0.0
C1973 C 0.61716 0.99132 0.51816 0.0
C1974 C 0.62266 0.00876 0.5356 0.0
C1975 C 0.61768 0.00015 0.55726 0.0
H1976 H 0.626 0.63819 0.06381 0.0
H1977 H 0.63063 0.57186 0.04261 0.0
H1978 H 0.61959 0.64674 0.02595 0.0
H1979 H 0.62404 0.58036 0.00485 0.0
H1980 H 0.63827 0.61989 0.93768 0.0
H1981 H 0.64645 0.61283 0.9755 0.0
H1982 H 0.58573 0.6263 0.99744 0.0
H1983 H 0.57764 0.63353 0.95976 0.0
C1984 C 0.62565 0.62544 0.05109 0.0
C1985 C 0.62871 0.60428 0.05624 0.0
C1986 C 0.62186 0.63028 0.02942 0.0
C1987 C 0.62128 0.6142 0.01242 0.0
C1988 C 0.62464 0.59323 0.01755 0.0
C1989 C 0.62823 0.58827 0.03922 0.0
C1990 C 0.6267 0.62138 0.95058 0.0
C1991 C 0.60724 0.62717 0.9457 0.0
C1992 C 0.63131 0.61722 0.97222 0.0
C1993 C 0.61672 0.619 0.98945 0.0
C1994 C 0.59746 0.62505 0.98456 0.0
C1995 C 0.59271 0.629 0.96294 0.0
H1996 H 0.97863 0.62207 0.56566 0.0
H1997 H 0.0536 0.63715 0.54418 0.0
H1998 H 0.96391 0.61527 0.52761 0.0
H1999 H 0.0389 0.63045 0.50635 0.0
H2000 H 0.01096 0.64304 0.43999 0.0
H2001 H 0.02486 0.65161 0.47815 0.0
H2002 H 0.95565 0.5825 0.49784 0.0
H2003 H 0.9417 0.57384 0.45974 0.0
C2004 C 0.99196 0.62399 0.55285 0.0
C2005 C 0.01724 0.63004 0.55794 0.0
C2006 C 0.98351 0.62 0.5311 0.0
C2007 C 0.00028 0.62236 0.51402 0.0
C2008 C 0.02563 0.62874 0.51913 0.0
C2009 C 0.03397 0.6324 0.54084 0.0
C2010 C 0.99868 0.62971 0.45246 0.0
C2011 C 0.9753 0.60769 0.44683 0.0
C2012 C 0.00669 0.63457 0.47429 0.0
C2013 C 0.99135 0.6177 0.49096 0.0
C2014 C 0.96776 0.59594 0.48536 0.0
C2015 C 0.95989 0.59091 0.46352 0.0
H2016 H 0.57406 0.94131 0.96476 0.0
H2017 H 0.63906 0.01325 0.94338 0.0
H2018 H 0.58295 0.95604 1.0026 0.0
H2019 H 0.64791 0.02795 0.98137 0.0
H2020 H 0.63217 0.05445 0.04827 0.0
H2021 H 0.62567 0.03973 0.01041 0.0
H2022 H 0.61721 0.96711 0.03128 0.0
H2023 H 0.62374 0.9818 0.06929 0.0
C2024 C 0.59025 0.96027 0.96813 0.0
C2025 C 0.60579 0.97618 0.95106 0.0
C2026 C 0.59544 0.96861 0.98983 0.0
C2027 C 0.61611 0.99313 0.99492 0.0
C2028 C 0.63172 0.00903 0.97788 0.0
C2029 C 0.62671 0.00057 0.95617 0.0
C2030 C 0.62895 0.03534 0.04481 0.0
C2031 C 0.62833 0.01922 0.06179 0.0
C2032 C 0.62542 0.02701 0.0231 0.0
C2033 C 0.62092 0.00228 0.01791 0.0
C2034 C 0.62043 0.98619 0.03485 0.0
C2035 C 0.62427 0.99464 0.05658 0.0
H2036 H 0.62837 0.64551 0.43793 0.0
H2037 H 0.63129 0.57784 0.45777 0.0
H2038 H 0.62243 0.65362 0.47614 0.0
H2039 H 0.62542 0.58601 0.49578 0.0
H2040 H 0.64044 0.62415 0.56355 0.0
H2041 H 0.64907 0.61873 0.52539 0.0
H2042 H 0.5876 0.63162 0.50461 0.0
H2043 H 0.57893 0.63701 0.54262 0.0
C2044 C 0.62781 0.63243 0.45042 0.0
C2045 C 0.63016 0.61097 0.44481 0.0
C2046 C 0.62433 0.63702 0.47226 0.0
C2047 C 0.62348 0.62045 0.48893 0.0
C2048 C 0.62625 0.59925 0.48333 0.0
C2049 C 0.62941 0.59448 0.46151 0.0
C2050 C 0.62883 0.62589 0.55083 0.0
C2051 C 0.60891 0.63085 0.55612 0.0
C2052 C 0.63371 0.6227 0.52901 0.0
C2053 C 0.619 0.62475 0.51204 0.0
C2054 C 0.5994 0.63017 0.51732 0.0
C2055 C 0.59432 0.63305 0.53912 0.0
H2056 H 0.01574 0.64157 0.06429 0.0
H2057 H 0.94432 0.57503 0.04419 0.0
H2058 H 0.0304 0.64907 0.02628 0.0
H2059 H 0.95899 0.58266 0.00623 0.0
H2060 H 0.98475 0.62241 0.9386 0.0
H2061 H 0.9698 0.61637 0.97654 0.0
H2062 H 0.04251 0.62567 0.9982 0.0
H2063 H 0.05744 0.63159 0.96039 0.0
C2064 C 0.00315 0.62861 0.05177 0.0
C2065 C 0.97892 0.60764 0.05726 0.0
C2066 C 0.01159 0.63284 0.03003 0.0
C2067 C 0.99584 0.61643 0.01331 0.0
C2068 C 0.97145 0.59573 0.01876 0.0
C2069 C 0.96315 0.59128 0.04051 0.0
C2070 C 0.99755 0.6232 0.95147 0.0
C2071 C 0.02224 0.62738 0.94649 0.0
C2072 C 0.98895 0.61963 0.97316 0.0
C2073 C 0.005 0.62056 0.99031 0.0
C2074 C 0.0298 0.62507 0.98534 0.0
C2075 C 0.03826 0.62828 0.96366 0.0
H2076 H 0.37354 0.01316 0.56335 0.0
H2077 H 0.36633 0.94129 0.54154 0.0
H2078 H 0.3812 0.02883 0.52564 0.0
H2079 H 0.37405 0.95702 0.50394 0.0
H2080 H 0.36301 0.98489 0.43669 0.0
H2081 H 0.35323 0.96903 0.47432 0.0
H2082 H 0.41575 0.04142 0.49758 0.0
H2083 H 0.42552 0.05731 0.4601 0.0
C2084 C 0.37354 0.00069 0.55053 0.0
C2085 C 0.36945 0.97602 0.55548 0.0
C2086 C 0.37804 0.00971 0.52894 0.0
C2087 C 0.37826 0.99417 0.5118 0.0
C2088 C 0.37377 0.96937 0.51673 0.0
C2089 C 0.36954 0.96044 0.53832 0.0
C2090 C 0.37463 0.99743 0.44984 0.0
C2091 C 0.39511 0.02232 0.44537 0.0
C2092 C 0.3691 0.9883 0.47138 0.0
C2093 C 0.38373 0.00397 0.48893 0.0
C2094 C 0.40397 0.02897 0.48446 0.0
C2095 C 0.40967 0.03799 0.46294 0.0
H2096 H 0.39447 0.34026 0.04577 0.0
H2097 H 0.37963 0.39976 0.06806 0.0
H2098 H 0.38457 0.34627 0.0085 0.0
H2099 H 0.37218 0.40794 0.03052 0.0
H2100 H 0.34209 0.40713 0.96296 0.0
H2101 H 0.34753 0.39745 1.00053 0.0
H2102 H 0.39785 0.36972 0.97798 0.0
H2103 H 0.39005 0.37716 0.94042 0.0
C2104 C 0.38938 0.35492 0.04252 0.0
C2105 C 0.38778 0.36955 0.05968 0.0
C2106 C 0.38396 0.35866 0.02105 0.0
C2107 C 0.37777 0.37789 0.016 0.0
C2108 C 0.37626 0.39255 0.03344 0.0
C2109 C 0.38076 0.38809 0.05505 0.0
C2110 C 0.35412 0.39875 0.96618 0.0
C2111 C 0.36559 0.39279 0.94888 0.0
C2112 C 0.35754 0.39341 0.98781 0.0
C2113 C 0.37331 0.38281 0.99276 0.0
C2114 C 0.38499 0.37718 0.97518 0.0
C2115 C 0.38078 0.38167 0.95352 0.0
H2116 H 0.06134 0.43018 0.54812 0.0
H2117 H 0.99079 0.36391 0.57012 0.0
H2118 H 0.04593 0.42092 0.5104 0.0
H2119 H 0.97541 0.35475 0.53235 0.0
H2120 H 0.94601 0.3691 0.46654 0.0
H2121 H 0.96201 0.37629 0.50402 0.0
H2122 H 0.03483 0.38691 0.48117 0.0
H2123 H 0.01879 0.3796 0.4435 0.0
C2124 C 0.04255 0.41362 0.54492 0.0
C2125 C 0.02723 0.39785 0.56215 0.0
C2126 C 0.03383 0.40823 0.52328 0.0
C2127 C 0.00945 0.38714 0.51841 0.0
C2128 C 0.99419 0.37127 0.53562 0.0
C2129 C 0.00305 0.37646 0.55724 0.0
C2130 C 0.96544 0.37295 0.46946 0.0
C2131 C 0.98117 0.37388 0.45201 0.0
C2132 C 0.97453 0.37689 0.49097 0.0
C2133 C 0.99967 0.38216 0.49555 0.0
C2134 C 0.01543 0.38307 0.47812 0.0
C2135 C 0.00621 0.37878 0.45658 0.0
H2136 H 0.44697 0.01183 0.12769 0.0
H2137 H 0.49483 0.09476 0.12982 0.0
H2138 H 0.48554 0.00781 0.13082 0.0
H2139 H 0.53284 0.09076 0.132 0.0
H2140 H 0.59482 0.07976 0.15869 0.0
H2141 H 0.55372 0.07832 0.15798 0.0
H2142 H 0.52462 0.01538 0.11177 0.0
H2143 H 0.56589 0.0162 0.11325 0.0
C2144 C 0.46564 0.02917 0.12862 0.0
C2145 C 0.46772 0.05361 0.12857 0.0
C2146 C 0.48774 0.02686 0.13033 0.0
C2147 C 0.51229 0.04895 0.13196 0.0
C2148 C 0.51425 0.07329 0.13138 0.0
C2149 C 0.49233 0.07559 0.12988 0.0
C2150 C 0.57962 0.06545 0.14851 0.0
C2151 C 0.58368 0.04832 0.1358 0.0
C2152 C 0.55605 0.06471 0.14799 0.0
C2153 C 0.53602 0.04714 0.13441 0.0
C2154 C 0.53962 0.02913 0.12243 0.0
C2155 C 0.56325 0.02963 0.12322 0.0
H2156 H 0.55283 0.56445 0.62911 0.0
H2157 H 0.50678 0.60151 0.62909 0.0
H2158 H 0.51353 0.52242 0.63145 0.0
H2159 H 0.46796 0.55994 0.63047 0.0
H2160 H 0.40352 0.48674 0.65543 0.0
H2161 H 0.44478 0.52626 0.65548 0.0
H2162 H 0.47548 0.49171 0.61162 0.0
H2163 H 0.43406 0.45144 0.61235 0.0
C2164 C 0.53438 0.56367 0.62941 0.0
C2165 C 0.53303 0.58643 0.62897 0.0
C2166 C 0.51186 0.53957 0.63066 0.0
C2167 C 0.48755 0.53775 0.63139 0.0
C2168 C 0.48631 0.56054 0.63051 0.0
C2169 C 0.50869 0.58449 0.62949 0.0
C2170 C 0.4191 0.48745 0.64592 0.0
C2171 C 0.41545 0.46607 0.63369 0.0
C2172 C 0.44277 0.51022 0.64582 0.0
C2173 C 0.46336 0.51242 0.63317 0.0
C2174 C 0.46008 0.49067 0.6216 0.0
C2175 C 0.43635 0.46763 0.62196 0.0
H2176 H 0.90608 0.40377 0.1449 0.0
H2177 H 0.98711 0.43579 0.13067 0.0
H2178 H 0.9117 0.44648 0.14577 0.0
H2179 H 0.99291 0.47922 0.13232 0.0
H2180 H 0.9811 0.54844 0.11096 0.0
H2181 H 0.98189 0.508 0.11261 0.0
H2182 H 0.93008 0.48391 0.16793 0.0
H2183 H 0.92852 0.52353 0.16566 0.0
C2184 C 0.92522 0.41994 0.1421 0.0
C2185 C 0.94613 0.41621 0.13765 0.0
C2186 C 0.92849 0.44459 0.14283 0.0
C2187 C 0.95284 0.46638 0.1394 0.0
C2188 C 0.97388 0.46282 0.13494 0.0
C2189 C 0.97056 0.43795 0.13409 0.0
C2190 C 0.97024 0.5346 0.12365 0.0
C2191 C 0.95442 0.53888 0.13795 0.0
C2192 C 0.97073 0.51148 0.12464 0.0
C2193 C 0.95562 0.49246 0.14011 0.0
C2194 C 0.94133 0.49776 0.15537 0.0
C2195 C 0.94054 0.52054 0.15417 0.0
H2196 H 0.43352 0.98621 0.62791 0.0
H2197 H 0.39665 0.90357 0.63558 0.0
H2198 H 0.47568 0.98935 0.63147 0.0
H2199 H 0.4382 0.90661 0.63817 0.0
H2200 H 0.51203 0.91756 0.66273 0.0
H2201 H 0.47292 0.92015 0.66262 0.0
H2202 H 0.50539 0.9793 0.61294 0.0
H2203 H 0.54524 0.97743 0.6138 0.0
C2204 C 0.43436 0.96874 0.63021 0.0
C2205 C 0.41162 0.94465 0.63146 0.0
C2206 C 0.45851 0.97053 0.63216 0.0
C2207 C 0.46038 0.94826 0.63534 0.0
C2208 C 0.4376 0.92426 0.6363 0.0
C2209 C 0.41363 0.92249 0.63456 0.0
C2210 C 0.51095 0.93131 0.65193 0.0
C2211 C 0.53157 0.94707 0.63808 0.0
C2212 C 0.48844 0.93271 0.65176 0.0
C2213 C 0.48573 0.94953 0.63742 0.0
C2214 C 0.50683 0.96619 0.62425 0.0
C2215 C 0.52962 0.96506 0.62467 0.0
H2216 H 0.60034 0.50859 0.15069 0.0
H2217 H 0.56675 0.54571 0.11347 0.0
H2218 H 0.55925 0.46878 0.15077 0.0
H2219 H 0.52565 0.5054 0.11283 0.0
H2220 H 0.44949 0.43397 0.13249 0.0
H2221 H 0.48961 0.4751 0.13395 0.0
H2222 H 0.5327 0.43545 0.12646 0.0
H2223 H 0.49284 0.39446 0.1259 0.0
C2224 C 0.58418 0.50825 0.14246 0.0
C2225 C 0.5869 0.53034 0.13198 0.0
C2226 C 0.5606 0.4853 0.14236 0.0
C2227 C 0.53914 0.48368 0.13155 0.0
C2228 C 0.54168 0.50596 0.12148 0.0
C2229 C 0.56528 0.52907 0.12178 0.0
C2230 C 0.46754 0.43404 0.13112 0.0
C2231 C 0.46788 0.41083 0.1291 0.0
C2232 C 0.49057 0.45767 0.13186 0.0
C2233 C 0.51448 0.45867 0.13045 0.0
C2234 C 0.51472 0.43546 0.12808 0.0
C2235 C 0.49177 0.41188 0.12755 0.0
H2236 H 0.02022 0.45542 0.61535 0.0
H2237 H 0.08239 0.4915 0.66204 0.0
H2238 H 0.01763 0.49491 0.61387 0.0
H2239 H 0.07931 0.53028 0.66111 0.0
H2240 H 0.09313 0.60498 0.63235 0.0
H2241 H 0.09108 0.56375 0.63484 0.0
H2242 H 0.00794 0.52491 0.63337 0.0
H2243 H 0.00994 0.56654 0.63017 0.0
C2244 C 0.03295 0.47156 0.6256 0.0
C2245 C 0.05176 0.4705 0.63856 0.0
C2246 C 0.03145 0.49416 0.62478 0.0
C2247 C 0.04862 0.51595 0.63704 0.0
C2248 C 0.06631 0.51417 0.65096 0.0
C2249 C 0.06797 0.49184 0.65159 0.0
C2250 C 0.07434 0.58775 0.63247 0.0
C2251 C 0.0517 0.58919 0.63109 0.0
C2252 C 0.07317 0.56401 0.6341 0.0
C2253 C 0.04933 0.54098 0.63462 0.0
C2254 C 0.02661 0.54228 0.63292 0.0
C2255 C 0.02778 0.56615 0.63117 0.0
H2256 H 0.92621 0.5182 0.34375 0.0
H2257 H 0.98392 0.55185 0.3944 0.0
H2258 H 0.92901 0.47922 0.3449 0.0
H2259 H 0.9863 0.51216 0.39596 0.0
H2260 H 0.99159 0.43803 0.38037 0.0
H2261 H 0.99628 0.48089 0.37626 0.0
H2262 H 0.91354 0.44613 0.3731 0.0
H2263 H 0.90878 0.4039 0.37676 0.0
C2264 C 0.93971 0.51734 0.35501 0.0
C2265 C 0.95456 0.53789 0.36923 0.0
C2266 C 0.94124 0.49495 0.35573 0.0
C2267 C 0.95741 0.49239 0.37089 0.0
C2268 C 0.97363 0.51359 0.38412 0.0
C2269 C 0.97227 0.53626 0.38325 0.0
C2270 C 0.97443 0.43961 0.37882 0.0
C2271 C 0.94981 0.41743 0.37878 0.0
C2272 C 0.97715 0.46414 0.37653 0.0
C2273 C 0.9553 0.46684 0.37401 0.0
C2274 C 0.93079 0.4447 0.37446 0.0
C2275 C 0.92808 0.42039 0.37674 0.0
H2276 H 0.50417 0.90772 0.87452 0.0
H2277 H 0.5539 0.99023 0.87995 0.0
H2278 H 0.4672 0.91332 0.87097 0.0
H2279 H 0.51621 0.9958 0.87598 0.0
H2280 H 0.40902 0.92776 0.84194 0.0
H2281 H 0.45072 0.93032 0.84292 0.0
H2282 H 0.47457 0.98553 0.89564 0.0
H2283 H 0.43258 0.98341 0.89424 0.0
C2284 C 0.50732 0.92714 0.87493 0.0
C2285 C 0.53216 0.94854 0.87743 0.0
C2286 C 0.48602 0.93034 0.87271 0.0
C2287 C 0.48882 0.95503 0.8728 0.0
C2288 C 0.51351 0.97654 0.8758 0.0
C2289 C 0.53504 0.97333 0.87802 0.0
C2290 C 0.42329 0.94079 0.85351 0.0
C2291 C 0.41746 0.95509 0.86824 0.0
C2292 C 0.44715 0.94219 0.85413 0.0
C2293 C 0.46568 0.95764 0.86973 0.0
C2294 C 0.46063 0.97343 0.88347 0.0
C2295 C 0.43665 0.97222 0.88268 0.0
H2296 H 0.44868 0.43696 0.3771 0.0
H2297 H 0.49876 0.40451 0.37289 0.0
H2298 H 0.4864 0.48032 0.37384 0.0
H2299 H 0.53573 0.44709 0.37033 0.0
H2300 H 0.59551 0.5204 0.34361 0.0
H2301 H 0.55419 0.48083 0.3436 0.0
H2302 H 0.52648 0.51194 0.39357 0.0
H2303 H 0.568 0.55231 0.39296 0.0
C2304 C 0.46762 0.43901 0.37562 0.0
C2305 C 0.47058 0.41716 0.37516 0.0
C2306 C 0.48919 0.46382 0.37382 0.0
C2307 C 0.51401 0.46712 0.37146 0.0
C2308 C 0.51686 0.44527 0.37152 0.0
C2309 C 0.49553 0.42072 0.37321 0.0
C2310 C 0.58051 0.51896 0.35439 0.0
C2311 C 0.58507 0.53924 0.36853 0.0
C2312 C 0.55684 0.49624 0.35447 0.0
C2313 C 0.53726 0.49299 0.36899 0.0
C2314 C 0.54119 0.51387 0.3822 0.0
C2315 C 0.56493 0.53692 0.38189 0.0
H2316 H 0.0097 0.44473 0.87798 0.0
H2317 H 0.09287 0.48971 0.87973 0.0
H2318 H 0.00778 0.48438 0.87472 0.0
H2319 H 0.09089 0.52891 0.87735 0.0
H2320 H 0.08388 0.59368 0.85044 0.0
H2321 H 0.08145 0.55211 0.85132 0.0
H2322 H 0.01531 0.52285 0.89412 0.0
H2323 H 0.01721 0.56457 0.89252 0.0
C2324 C 0.02754 0.46301 0.87787 0.0
C2325 C 0.05144 0.46396 0.87906 0.0
C2326 C 0.02642 0.48574 0.87609 0.0
C2327 C 0.04918 0.50986 0.87553 0.0
C2328 C 0.07297 0.5107 0.87717 0.0
C2329 C 0.0741 0.48811 0.87875 0.0
C2330 C 0.06867 0.57835 0.85991 0.0
C2331 C 0.0509 0.5825 0.8716 0.0
C2332 C 0.06737 0.55451 0.86054 0.0
C2333 C 0.04852 0.53424 0.87317 0.0
C2334 C 0.03003 0.53801 0.88417 0.0
C2335 C 0.03114 0.56191 0.8833 0.0
H2336 H 0.60777 0.09659 0.3855 0.0
H2337 H 0.56825 0.01415 0.37586 0.0
H2338 H 0.56696 0.09575 0.38412 0.0
H2339 H 0.52732 0.01346 0.37348 0.0
H2340 H 0.45558 0.01948 0.39079 0.0
H2341 H 0.49563 0.01825 0.39324 0.0
H2342 H 0.53553 0.09072 0.35861 0.0
H2343 H 0.49604 0.09242 0.357 0.0
C2344 C 0.59039 0.07826 0.38301 0.0
C2345 C 0.59138 0.05545 0.38079 0.0
C2346 C 0.56691 0.0778 0.38201 0.0
C2347 C 0.54376 0.05457 0.37842 0.0
C2348 C 0.54468 0.03167 0.37648 0.0
C2349 C 0.56821 0.03208 0.37775 0.0
C2350 C 0.47292 0.03506 0.38363 0.0
C2351 C 0.47264 0.05614 0.37387 0.0
C2352 C 0.49588 0.03433 0.38497 0.0
C2353 C 0.51897 0.05454 0.37636 0.0
C2354 C 0.51836 0.07515 0.36597 0.0
C2355 C 0.49559 0.07603 0.36488 0.0
H2356 H 0.50608 0.60211 0.87887 0.0
H2357 H 0.55013 0.56328 0.87246 0.0
H2358 H 0.46651 0.56105 0.87811 0.0
H2359 H 0.51004 0.52184 0.871 0.0
H2360 H 0.43104 0.45165 0.89208 0.0
H2361 H 0.47279 0.49145 0.89259 0.0
H2362 H 0.44152 0.52833 0.85214 0.0
H2363 H 0.39995 0.48916 0.85217 0.0
C2364 C 0.50739 0.58482 0.87723 0.0
C2365 C 0.53139 0.5861 0.87567 0.0
C2366 C 0.48458 0.56119 0.87661 0.0
C2367 C 0.48504 0.53812 0.87418 0.0
C2368 C 0.50902 0.53925 0.873 0.0
C2369 C 0.53198 0.56301 0.87375 0.0
C2370 C 0.43319 0.46823 0.88318 0.0
C2371 C 0.41206 0.46731 0.87232 0.0
C2372 C 0.45713 0.491 0.88341 0.0
C2373 C 0.46041 0.51321 0.87269 0.0
C2374 C 0.43953 0.51182 0.86107 0.0
C2375 C 0.41567 0.48926 0.86098 0.0
loop_
_geom_bond_atom_site_label_1
_geom_bond_atom_site_label_2
_geom_bond_distance
_geom_bond_site_symmetry_2
_ccdc_geom_bond_type
Co0 O2 2.143 . S
Co0 O8 2.074 . S
Co0 O11 2.093 . S
Co0 O24 2.097 . S
Co0 N41 2.151 . S
Co0 N49 2.214 . S
Co1 O2 2.160 . S
Co1 O7 2.058 . S
Co1 O17 2.057 . S
Co1 O32 2.037 . S
Co1 N36 2.145 1_545 S
Co1 N57 2.257 . S
O2 Co0 2.143 . S
O2 Co1 2.160 . S
C3 O4 1.278 . S
C3 O11 1.224 . S
O4 C3 1.278 . S
C5 O6 1.245 . S
C5 O17 1.232 . S
O6 C5 1.245 . S
O7 Co1 2.058 . S
O7 C33 1.269 . S
O8 Co0 2.074 . S
O8 C33 1.257 . S
H9 C34 0.930 . S
H10 C40 0.930 . S
O11 Co0 2.093 . S
O11 C3 1.224 . S
H12 C44 0.929 . S
H13 C46 0.930 . S
H14 C47 0.930 . S
H15 C45 0.929 . S
H16 C48 0.928 . S
O17 Co1 2.057 . S
O17 C5 1.232 . S
H18 C37 0.929 . S
H19 C38 0.929 . S
H20 C50 0.931 . S
H21 C42 0.929 . S
H22 C51 0.930 . S
H23 C43 0.931 . S
O24 Co0 2.097 . S
O24 C52 1.214 . S
H25 C53 0.929 . S
H26 C54 0.929 . S
H27 C55 0.930 . S
H28 C56 0.929 . S
H29 C58 0.930 . S
H30 C35 0.930 . S
H31 C39 0.930 . S
O32 Co1 2.037 . S
O32 C52 1.234 . S
C33 O7 1.269 . S
C33 O8 1.257 . S
C34 H9 0.930 . S
C34 C37 1.388 . S
C34 C39 1.418 . S
C35 H30 0.930 . S
C35 C38 1.404 . S
C35 C39 1.353 . S
N36 Co1 2.145 1_565 S
N36 C37 1.397 . S
N36 C38 1.334 . S
C37 H18 0.929 . S
C37 C34 1.388 . S
C37 N36 1.397 . S
C38 H19 0.929 . S
C38 C35 1.404 . S
C38 N36 1.334 . S
C39 H31 0.930 . S
C39 C34 1.418 . S
C39 C35 1.353 . S
C40 H10 0.930 . S
C40 N41 1.330 . S
C40 C42 1.446 . S
N41 Co0 2.151 . S
N41 C40 1.330 . S
N41 C45 1.418 . S
C42 H21 0.929 . S
C42 C40 1.446 . S
C42 C43 1.332 . S
C43 H23 0.931 . S
C43 C42 1.332 . S
C43 C44 1.267 . S
C44 H12 0.929 . S
C44 C43 1.267 . S
C44 C45 1.251 . S
C45 H15 0.929 . S
C45 N41 1.418 . S
C45 C44 1.251 . S
C46 H13 0.930 . S
C46 C48 1.406 . S
C46 C51 1.261 . S
C47 H14 0.930 . S
C47 N49 1.325 . S
C47 C50 1.357 . S
C48 H16 0.928 . S
C48 C46 1.406 . S
C48 N49 1.261 . S
N49 Co0 2.214 . S
N49 C47 1.325 . S
N49 C48 1.261 . S
C50 H20 0.931 . S
C50 C47 1.357 . S
C50 C51 1.312 . S
C51 H22 0.930 . S
C51 C46 1.261 . S
C51 C50 1.312 . S
C52 O24 1.214 . S
C52 O32 1.234 . S
C53 H25 0.929 . S
C53 C56 1.391 . S
C53 C58 1.391 . S
C54 H26 0.929 . S
C54 C55 1.390 . S
C54 N57 1.391 1_565 S
C55 H27 0.930 . S
C55 C54 1.390 . S
C55 C56 1.392 1_565 S
C56 H28 0.929 . S
C56 C53 1.391 . S
C56 C55 1.392 1_545 S
N57 Co1 2.257 . S
N57 C54 1.391 1_545 S
N57 C58 1.388 . S
C58 H29 0.930 . S
C58 C53 1.391 . S
C58 N57 1.388 . S
Co59 O61 2.143 . S
Co59 O67 2.074 . S
Co59 O70 2.093 . S
Co59 O83 2.097 . S
Co59 N100 2.151 . S
Co59 N108 2.214 . S
Co60 O61 2.160 . S
Co60 O66 2.058 . S
Co60 O76 2.057 . S
Co60 O91 2.037 . S
Co60 N95 2.145 . S
Co60 N116 2.257 . S
O61 Co59 2.143 . S
O61 Co60 2.160 . S
C62 O63 1.278 . S
C62 O70 1.224 . S
O63 C62 1.278 . S
C64 O65 1.245 . S
C64 O76 1.232 . S
O65 C64 1.245 . S
O66 Co60 2.058 . S
O66 C92 1.269 . S
O67 Co59 2.074 . S
O67 C92 1.257 . S
H68 C93 0.930 . S
H69 C99 0.930 . S
O70 Co59 2.093 . S
O70 C62 1.224 . S
H71 C103 0.929 . S
H72 C105 0.930 . S
H73 C106 0.930 . S
H74 C104 0.929 . S
H75 C107 0.928 . S
O76 Co60 2.057 . S
O76 C64 1.232 . S
H77 C96 0.929 . S
H78 C97 0.929 . S
H79 C109 0.931 . S
H80 C101 0.929 . S
H81 C110 0.930 . S
H82 C102 0.931 . S
O83 Co59 2.097 . S
O83 C111 1.214 . S
H84 C112 0.929 . S
H85 C113 0.929 . S
H86 C114 0.930 . S
H87 C115 0.929 . S
H88 C117 0.930 . S
H89 C94 0.930 . S
H90 C98 0.930 . S
O91 Co60 2.037 . S
O91 C111 1.234 . S
C92 O66 1.269 . S
C92 O67 1.257 . S
C93 H68 0.930 . S
C93 C96 1.388 . S
C93 C98 1.418 . S
C94 H89 0.930 . S
C94 C97 1.404 . S
C94 C98 1.353 . S
N95 Co60 2.145 . S
N95 C96 1.397 . S
N95 C97 1.334 . S
C96 H77 0.929 . S
C96 C93 1.388 . S
C96 N95 1.397 . S
C97 H78 0.929 . S
C97 C94 1.404 . S
C97 N95 1.334 . S
C98 H90 0.930 . S
C98 C93 1.418 . S
C98 C94 1.353 . S
C99 H69 0.930 . S
C99 N100 1.330 . S
C99 C101 1.446 . S
N100 Co59 2.151 . S
N100 C99 1.330 . S
N100 C104 1.418 . S
C101 H80 0.929 . S
C101 C99 1.446 . S
C101 C102 1.332 . S
C102 H82 0.931 . S
C102 C101 1.332 . S
C102 C103 1.267 . S
C103 H71 0.929 . S
C103 C102 1.267 . S
C103 C104 1.251 . S
C104 H74 0.929 . S
C104 N100 1.418 . S
C104 C103 1.251 . S
C105 H72 0.930 . S
C105 C107 1.406 . S
C105 C110 1.261 . S
C106 H73 0.930 . S
C106 N108 1.325 . S
C106 C109 1.357 . S
C107 H75 0.928 . S
C107 C105 1.406 . S
C107 N108 1.261 . S
N108 Co59 2.214 . S
N108 C106 1.325 . S
N108 C107 1.261 . S
C109 H79 0.931 . S
C109 C106 1.357 . S
C109 C110 1.312 . S
C110 H81 0.930 . S
C110 C105 1.261 . S
C110 C109 1.312 . S
C111 O83 1.214 . S
C111 O91 1.234 . S
C112 H84 0.929 . S
C112 C115 1.391 . S
C112 C117 1.391 . S
C113 H85 0.929 . S
C113 C114 1.390 . S
C113 N116 1.391 . S
C114 H86 0.930 . S
C114 C113 1.390 . S
C114 C115 1.392 . S
C115 H87 0.929 . S
C115 C112 1.391 . S
C115 C114 1.392 . S
N116 Co60 2.257 . S
N116 C113 1.391 . S
N116 C117 1.388 . S
C117 H88 0.930 . S
C117 C112 1.391 . S
C117 N116 1.388 . S
Co118 O120 2.143 . S
Co118 O126 2.074 . S
Co118 O129 2.093 . S
Co118 O142 2.097 . S
Co118 N159 2.151 . S
Co118 N167 2.214 . S
Co119 O120 2.160 . S
Co119 O125 2.058 . S
Co119 O135 2.057 . S
Co119 O150 2.037 . S
Co119 N154 2.145 1_655 S
Co119 N175 2.257 . S
O120 Co118 2.143 . S
O120 Co119 2.160 . S
C121 O122 1.278 . S
C121 O129 1.224 . S
O122 C121 1.278 . S
C123 O124 1.245 . S
C123 O135 1.232 . S
O124 C123 1.245 . S
O125 Co119 2.058 . S
O125 C151 1.269 . S
O126 Co118 2.074 . S
O126 C151 1.257 . S
H127 C152 0.930 . S
H128 C158 0.930 . S
O129 Co118 2.093 . S
O129 C121 1.224 . S
H130 C162 0.929 . S
H131 C164 0.930 . S
H132 C165 0.930 . S
H133 C163 0.929 . S
H134 C166 0.928 . S
O135 Co119 2.057 . S
O135 C123 1.232 . S
H136 C155 0.929 . S
H137 C156 0.929 . S
H138 C168 0.931 . S
H139 C160 0.929 . S
H140 C169 0.930 . S
H141 C161 0.931 . S
O142 Co118 2.097 . S
O142 C170 1.214 . S
H143 C171 0.929 . S
H144 C172 0.929 . S
H145 C173 0.930 . S
H146 C174 0.929 . S
H147 C176 0.930 . S
H148 C153 0.930 . S
H149 C157 0.930 . S
O150 Co119 2.037 . S
O150 C170 1.234 . S
C151 O125 1.269 . S
C151 O126 1.257 . S
C152 H127 0.930 . S
C152 C155 1.388 . S
C152 C157 1.418 . S
C153 H148 0.930 . S
C153 C156 1.404 . S
C153 C157 1.353 . S
N154 Co119 2.145 1_455 S
N154 C155 1.397 . S
N154 C156 1.334 . S
C155 H136 0.929 . S
C155 C152 1.388 . S
C155 N154 1.397 . S
C156 H137 0.929 . S
C156 C153 1.404 . S
C156 N154 1.334 . S
C157 H149 0.930 . S
C157 C152 1.418 . S
C157 C153 1.353 . S
C158 H128 0.930 . S
C158 N159 1.330 . S
C158 C160 1.446 . S
N159 Co118 2.151 . S
N159 C158 1.330 . S
N159 C163 1.418 . S
C160 H139 0.929 . S
C160 C158 1.446 . S
C160 C161 1.332 . S
C161 H141 0.931 . S
C161 C160 1.332 . S
C161 C162 1.267 . S
C162 H130 0.929 . S
C162 C161 1.267 . S
C162 C163 1.251 . S
C163 H133 0.929 . S
C163 N159 1.418 . S
C163 C162 1.251 . S
C164 H131 0.930 . S
C164 C166 1.406 . S
C164 C169 1.261 . S
C165 H132 0.930 . S
C165 N167 1.325 . S
C165 C168 1.357 . S
C166 H134 0.928 . S
C166 C164 1.406 . S
C166 N167 1.261 . S
N167 Co118 2.214 . S
N167 C165 1.325 . S
N167 C166 1.261 . S
C168 H138 0.931 . S
C168 C165 1.357 . S
C168 C169 1.312 . S
C169 H140 0.930 . S
C169 C164 1.261 . S
C169 C168 1.312 . S
C170 O142 1.214 . S
C170 O150 1.234 . S
C171 H143 0.929 . S
C171 C174 1.391 . S
C171 C176 1.391 . S
C172 H144 0.929 . S
C172 C173 1.390 . S
C172 N175 1.391 1_455 S
C173 H145 0.930 . S
C173 C172 1.390 . S
C173 C174 1.392 1_455 S
C174 H146 0.929 . S
C174 C171 1.391 . S
C174 C173 1.392 1_655 S
N175 Co119 2.257 . S
N175 C172 1.391 1_655 S
N175 C176 1.388 . S
C176 H147 0.930 . S
C176 C171 1.391 . S
C176 N175 1.388 . S
Co177 O179 2.143 . S
Co177 O185 2.074 . S
Co177 O188 2.093 . S
Co177 O201 2.097 . S
Co177 N218 2.151 . S
Co177 N226 2.214 . S
Co178 O179 2.160 . S
Co178 O184 2.058 . S
Co178 O194 2.057 . S
Co178 O209 2.037 . S
Co178 N213 2.145 1_565 S
Co178 N234 2.257 . S
O179 Co177 2.143 . S
O179 Co178 2.160 . S
C180 O181 1.278 . S
C180 O188 1.224 . S
O181 C180 1.278 . S
C182 O183 1.245 . S
C182 O194 1.232 . S
O183 C182 1.245 . S
O184 Co178 2.058 . S
O184 C210 1.269 . S
O185 Co177 2.074 . S
O185 C210 1.257 . S
H186 C211 0.930 . S
H187 C217 0.930 . S
O188 Co177 2.093 . S
O188 C180 1.224 . S
H189 C221 0.929 . S
H190 C223 0.930 . S
H191 C224 0.930 . S
H192 C222 0.929 . S
H193 C225 0.928 . S
O194 Co178 2.057 . S
O194 C182 1.232 . S
H195 C214 0.929 . S
H196 C215 0.929 . S
H197 C227 0.931 . S
H198 C219 0.929 . S
H199 C228 0.930 . S
H200 C220 0.931 . S
O201 Co177 2.097 . S
O201 C229 1.214 . S
H202 C230 0.929 . S
H203 C231 0.929 . S
H204 C232 0.930 . S
H205 C233 0.929 . S
H206 C235 0.930 . S
H207 C212 0.930 . S
H208 C216 0.930 . S
O209 Co178 2.037 . S
O209 C229 1.234 . S
C210 O184 1.269 . S
C210 O185 1.257 . S
C211 H186 0.930 . S
C211 C214 1.388 . S
C211 C216 1.418 . S
C212 H207 0.930 . S
C212 C215 1.404 . S
C212 C216 1.353 . S
N213 Co178 2.145 1_545 S
N213 C214 1.397 . S
N213 C215 1.334 . S
C214 H195 0.929 . S
C214 C211 1.388 . S
C214 N213 1.397 . S
C215 H196 0.929 . S
C215 C212 1.404 . S
C215 N213 1.334 . S
C216 H208 0.930 . S
C216 C211 1.418 . S
C216 C212 1.353 . S
C217 H187 0.930 . S
C217 N218 1.330 . S
C217 C219 1.446 . S
N218 Co177 2.151 . S
N218 C217 1.330 . S
N218 C222 1.418 . S
C219 H198 0.929 . S
C219 C217 1.446 . S
C219 C220 1.332 . S
C220 H200 0.931 . S
C220 C219 1.332 . S
C220 C221 1.267 . S
C221 H189 0.929 . S
C221 C220 1.267 . S
C221 C222 1.251 . S
C222 H192 0.929 . S
C222 N218 1.418 . S
C222 C221 1.251 . S
C223 H190 0.930 . S
C223 C225 1.406 . S
C223 C228 1.261 . S
C224 H191 0.930 . S
C224 N226 1.325 . S
C224 C227 1.357 . S
C225 H193 0.928 . S
C225 C223 1.406 . S
C225 N226 1.261 . S
N226 Co177 2.214 . S
N226 C224 1.325 . S
N226 C225 1.261 . S
C227 H197 0.931 . S
C227 C224 1.357 . S
C227 C228 1.312 . S
C228 H199 0.930 . S
C228 C223 1.261 . S
C228 C227 1.312 . S
C229 O201 1.214 . S
C229 O209 1.234 . S
C230 H202 0.929 . S
C230 C233 1.391 . S
C230 C235 1.391 . S
C231 H203 0.929 . S
C231 C232 1.390 . S
C231 N234 1.391 1_545 S
C232 H204 0.930 . S
C232 C231 1.390 . S
C232 C233 1.392 1_545 S
C233 H205 0.929 . S
C233 C230 1.391 . S
C233 C232 1.392 1_565 S
N234 Co178 2.257 . S
N234 C231 1.391 1_565 S
N234 C235 1.388 . S
C235 H206 0.930 . S
C235 C230 1.391 . S
C235 N234 1.388 . S
Co236 O238 2.143 . S
Co236 O244 2.074 . S
Co236 O247 2.093 . S
Co236 O260 2.097 . S
Co236 N277 2.151 . S
Co236 N285 2.214 . S
Co237 O238 2.160 . S
Co237 O243 2.058 . S
Co237 O253 2.057 . S
Co237 O268 2.037 . S
Co237 N272 2.145 . S
Co237 N293 2.257 . S
O238 Co236 2.143 . S
O238 Co237 2.160 . S
C239 O240 1.278 . S
C239 O247 1.224 . S
O240 C239 1.278 . S
C241 O242 1.245 . S
C241 O253 1.232 . S
O242 C241 1.245 . S
O243 Co237 2.058 . S
O243 C269 1.269 . S
O244 Co236 2.074 . S
O244 C269 1.257 . S
H245 C270 0.930 . S
H246 C276 0.930 . S
O247 Co236 2.093 . S
O247 C239 1.224 . S
H248 C280 0.929 . S
H249 C282 0.930 . S
H250 C283 0.930 . S
H251 C281 0.929 . S
H252 C284 0.928 . S
O253 Co237 2.057 . S
O253 C241 1.232 . S
H254 C273 0.929 . S
H255 C274 0.929 . S
H256 C286 0.931 . S
H257 C278 0.929 . S
H258 C287 0.930 . S
H259 C279 0.931 . S
O260 Co236 2.097 . S
O260 C288 1.214 . S
H261 C289 0.929 . S
H262 C290 0.929 . S
H263 C291 0.930 . S
H264 C292 0.929 . S
H265 C294 0.930 . S
H266 C271 0.930 . S
H267 C275 0.930 . S
O268 Co237 2.037 . S
O268 C288 1.234 . S
C269 O243 1.269 . S
C269 O244 1.257 . S
C270 H245 0.930 . S
C270 C273 1.388 . S
C270 C275 1.418 . S
C271 H266 0.930 . S
C271 C274 1.404 . S
C271 C275 1.353 . S
N272 Co237 2.145 . S
N272 C273 1.397 . S
N272 C274 1.334 . S
C273 H254 0.929 . S
C273 C270 1.388 . S
C273 N272 1.397 . S
C274 H255 0.929 . S
C274 C271 1.404 . S
C274 N272 1.334 . S
C275 H267 0.930 . S
C275 C270 1.418 . S
C275 C271 1.353 . S
C276 H246 0.930 . S
C276 N277 1.330 . S
C276 C278 1.446 . S
N277 Co236 2.151 . S
N277 C276 1.330 . S
N277 C281 1.418 . S
C278 H257 0.929 . S
C278 C276 1.446 . S
C278 C279 1.332 . S
C279 H259 0.931 . S
C279 C278 1.332 . S
C279 C280 1.267 . S
C280 H248 0.929 . S
C280 C279 1.267 . S
C280 C281 1.251 . S
C281 H251 0.929 . S
C281 N277 1.418 . S
C281 C280 1.251 . S
C282 H249 0.930 . S
C282 C284 1.406 . S
C282 C287 1.261 . S
C283 H250 0.930 . S
C283 N285 1.325 . S
C283 C286 1.357 . S
C284 H252 0.928 . S
C284 C282 1.406 . S
C284 N285 1.261 . S
N285 Co236 2.214 . S
N285 C283 1.325 . S
N285 C284 1.261 . S
C286 H256 0.931 . S
C286 C283 1.357 . S
C286 C287 1.312 . S
C287 H258 0.930 . S
C287 C282 1.261 . S
C287 C286 1.312 . S
C288 O260 1.214 . S
C288 O268 1.234 . S
C289 H261 0.929 . S
C289 C292 1.391 . S
C289 C294 1.391 . S
C290 H262 0.929 . S
C290 C291 1.390 . S
C290 N293 1.391 . S
C291 H263 0.930 . S
C291 C290 1.390 . S
C291 C292 1.392 . S
C292 H264 0.929 . S
C292 C289 1.391 . S
C292 C291 1.392 . S
N293 Co237 2.257 . S
N293 C290 1.391 . S
N293 C294 1.388 . S
C294 H265 0.930 . S
C294 C289 1.391 . S
C294 N293 1.388 . S
Co295 O297 2.143 . S
Co295 O303 2.074 . S
Co295 O306 2.093 . S
Co295 O319 2.097 . S
Co295 N336 2.151 . S
Co295 N344 2.214 . S
Co296 O297 2.160 . S
Co296 O302 2.058 . S
Co296 O312 2.057 . S
Co296 O327 2.037 . S
Co296 N331 2.145 1_455 S
Co296 N352 2.257 . S
O297 Co295 2.143 . S
O297 Co296 2.160 . S
C298 O299 1.278 . S
C298 O306 1.224 . S
O299 C298 1.278 . S
C300 O301 1.245 . S
C300 O312 1.232 . S
O301 C300 1.245 . S
O302 Co296 2.058 . S
O302 C328 1.269 . S
O303 Co295 2.074 . S
O303 C328 1.257 . S
H304 C329 0.930 . S
H305 C335 0.930 . S
O306 Co295 2.093 . S
O306 C298 1.224 . S
H307 C339 0.929 . S
H308 C341 0.930 . S
H309 C342 0.930 . S
H310 C340 0.929 . S
H311 C343 0.928 . S
O312 Co296 2.057 . S
O312 C300 1.232 . S
H313 C332 0.929 . S
H314 C333 0.929 . S
H315 C345 0.931 . S
H316 C337 0.929 . S
H317 C346 0.930 . S
H318 C338 0.931 . S
O319 Co295 2.097 . S
O319 C347 1.214 . S
H320 C348 0.929 . S
H321 C349 0.929 . S
H322 C350 0.930 . S
H323 C351 0.929 . S
H324 C353 0.930 . S
H325 C330 0.930 . S
H326 C334 0.930 . S
O327 Co296 2.037 . S
O327 C347 1.234 . S
C328 O302 1.269 . S
C328 O303 1.257 . S
C329 H304 0.930 . S
C329 C332 1.388 . S
C329 C334 1.418 . S
C330 H325 0.930 . S
C330 C333 1.404 . S
C330 C334 1.353 . S
N331 Co296 2.145 1_655 S
N331 C332 1.397 . S
N331 C333 1.334 . S
C332 H313 0.929 . S
C332 C329 1.388 . S
C332 N331 1.397 . S
C333 H314 0.929 . S
C333 C330 1.404 . S
C333 N331 1.334 . S
C334 H326 0.930 . S
C334 C329 1.418 . S
C334 C330 1.353 . S
C335 H305 0.930 . S
C335 N336 1.330 . S
C335 C337 1.446 . S
N336 Co295 2.151 . S
N336 C335 1.330 . S
N336 C340 1.418 . S
C337 H316 0.929 . S
C337 C335 1.446 . S
C337 C338 1.332 . S
C338 H318 0.931 . S
C338 C337 1.332 . S
C338 C339 1.267 . S
C339 H307 0.929 . S
C339 C338 1.267 . S
C339 C340 1.251 . S
C340 H310 0.929 . S
C340 N336 1.418 . S
C340 C339 1.251 . S
C341 H308 0.930 . S
C341 C343 1.406 . S
C341 C346 1.261 . S
C342 H309 0.930 . S
C342 N344 1.325 . S
C342 C345 1.357 . S
C343 H311 0.928 . S
C343 C341 1.406 . S
C343 N344 1.261 . S
N344 Co295 2.214 . S
N344 C342 1.325 . S
N344 C343 1.261 . S
C345 H315 0.931 . S
C345 C342 1.357 . S
C345 C346 1.312 . S
C346 H317 0.930 . S
C346 C341 1.261 . S
C346 C345 1.312 . S
C347 O319 1.214 . S
C347 O327 1.234 . S
C348 H320 0.929 . S
C348 C351 1.391 . S
C348 C353 1.391 . S
C349 H321 0.929 . S
C349 C350 1.390 . S
C349 N352 1.391 1_655 S
C350 H322 0.930 . S
C350 C349 1.390 . S
C350 C351 1.392 1_655 S
C351 H323 0.929 . S
C351 C348 1.391 . S
C351 C350 1.392 1_455 S
N352 Co296 2.257 . S
N352 C349 1.391 1_455 S
N352 C353 1.388 . S
C353 H324 0.930 . S
C353 C348 1.391 . S
C353 N352 1.388 . S
Co354 O356 2.143 . S
Co354 O362 2.074 . S
Co354 O365 2.093 . S
Co354 O378 2.097 . S
Co354 N395 2.151 . S
Co354 N403 2.214 . S
Co355 O356 2.160 . S
Co355 O361 2.058 . S
Co355 O371 2.057 . S
Co355 O386 2.037 . S
Co355 N390 2.145 1_655 S
Co355 N411 2.257 . S
O356 Co354 2.143 . S
O356 Co355 2.160 . S
C357 O358 1.278 . S
C357 O365 1.224 . S
O358 C357 1.278 . S
C359 O360 1.245 . S
C359 O371 1.232 . S
O360 C359 1.245 . S
O361 Co355 2.058 . S
O361 C387 1.269 . S
O362 Co354 2.074 . S
O362 C387 1.257 . S
H363 C388 0.930 . S
H364 C394 0.930 . S
O365 Co354 2.093 . S
O365 C357 1.224 . S
H366 C398 0.929 . S
H367 C400 0.930 . S
H368 C401 0.930 . S
H369 C399 0.929 . S
H370 C402 0.928 . S
O371 Co355 2.057 . S
O371 C359 1.232 . S
H372 C391 0.929 . S
H373 C392 0.929 . S
H374 C404 0.931 . S
H375 C396 0.929 . S
H376 C405 0.930 . S
H377 C397 0.931 . S
O378 Co354 2.097 . S
O378 C406 1.214 . S
H379 C407 0.929 . S
H380 C408 0.929 . S
H381 C409 0.930 . S
H382 C410 0.929 . S
H383 C412 0.930 . S
H384 C389 0.930 . S
H385 C393 0.930 . S
O386 Co355 2.037 . S
O386 C406 1.234 . S
C387 O361 1.269 . S
C387 O362 1.257 . S
C388 H363 0.930 . S
C388 C391 1.388 . S
C388 C393 1.418 . S
C389 H384 0.930 . S
C389 C392 1.404 . S
C389 C393 1.353 . S
N390 Co355 2.145 1_455 S
N390 C391 1.397 . S
N390 C392 1.334 . S
C391 H372 0.929 . S
C391 C388 1.388 . S
C391 N390 1.397 . S
C392 H373 0.929 . S
C392 C389 1.404 . S
C392 N390 1.334 . S
C393 H385 0.930 . S
C393 C388 1.418 . S
C393 C389 1.353 . S
C394 H364 0.930 . S
C394 N395 1.330 . S
C394 C396 1.446 . S
N395 Co354 2.151 . S
N395 C394 1.330 . S
N395 C399 1.418 . S
C396 H375 0.929 . S
C396 C394 1.446 . S
C396 C397 1.332 . S
C397 H377 0.931 . S
C397 C396 1.332 . S
C397 C398 1.267 . S
C398 H366 0.929 . S
C398 C397 1.267 . S
C398 C399 1.251 . S
C399 H369 0.929 . S
C399 N395 1.418 . S
C399 C398 1.251 . S
C400 H367 0.930 . S
C400 C402 1.406 . S
C400 C405 1.261 . S
C401 H368 0.930 . S
C401 N403 1.325 . S
C401 C404 1.357 . S
C402 H370 0.928 . S
C402 C400 1.406 . S
C402 N403 1.261 . S
N403 Co354 2.214 . S
N403 C401 1.325 . S
N403 C402 1.261 . S
C404 H374 0.931 . S
C404 C401 1.357 . S
C404 C405 1.312 . S
C405 H376 0.930 . S
C405 C400 1.261 . S
C405 C404 1.312 . S
C406 O378 1.214 . S
C406 O386 1.234 . S
C407 H379 0.929 . S
C407 C410 1.391 . S
C407 C412 1.391 . S
C408 H380 0.929 . S
C408 C409 1.390 . S
C408 N411 1.391 1_455 S
C409 H381 0.930 . S
C409 C408 1.390 . S
C409 C410 1.392 1_455 S
C410 H382 0.929 . S
C410 C407 1.391 . S
C410 C409 1.392 1_655 S
N411 Co355 2.257 . S
N411 C408 1.391 1_655 S
N411 C412 1.388 . S
C412 H383 0.930 . S
C412 C407 1.391 . S
C412 N411 1.388 . S
Co413 O415 2.143 . S
Co413 O421 2.074 . S
Co413 O424 2.093 . S
Co413 O437 2.097 . S
Co413 N454 2.151 . S
Co413 N462 2.214 . S
Co414 O415 2.160 . S
Co414 O420 2.058 . S
Co414 O430 2.057 . S
Co414 O445 2.037 . S
Co414 N449 2.145 1_565 S
Co414 N470 2.257 . S
O415 Co413 2.143 . S
O415 Co414 2.160 . S
C416 O417 1.278 . S
C416 O424 1.224 . S
O417 C416 1.278 . S
C418 O419 1.245 . S
C418 O430 1.232 . S
O419 C418 1.245 . S
O420 Co414 2.058 . S
O420 C446 1.269 . S
O421 Co413 2.074 . S
O421 C446 1.257 . S
H422 C447 0.930 . S
H423 C453 0.930 . S
O424 Co413 2.093 . S
O424 C416 1.224 . S
H425 C457 0.929 . S
H426 C459 0.930 . S
H427 C460 0.930 . S
H428 C458 0.929 . S
H429 C461 0.928 . S
O430 Co414 2.057 . S
O430 C418 1.232 . S
H431 C450 0.929 . S
H432 C451 0.929 . S
H433 C463 0.931 . S
H434 C455 0.929 . S
H435 C464 0.930 . S
H436 C456 0.931 . S
O437 Co413 2.097 . S
O437 C465 1.214 . S
H438 C466 0.929 . S
H439 C467 0.929 . S
H440 C468 0.930 . S
H441 C469 0.929 . S
H442 C471 0.930 . S
H443 C448 0.930 . S
H444 C452 0.930 . S
O445 Co414 2.037 . S
O445 C465 1.234 . S
C446 O420 1.269 . S
C446 O421 1.257 . S
C447 H422 0.930 . S
C447 C450 1.388 . S
C447 C452 1.418 . S
C448 H443 0.930 . S
C448 C451 1.404 . S
C448 C452 1.353 . S
N449 Co414 2.145 1_545 S
N449 C450 1.397 . S
N449 C451 1.334 . S
C450 H431 0.929 . S
C450 C447 1.388 . S
C450 N449 1.397 . S
C451 H432 0.929 . S
C451 C448 1.404 . S
C451 N449 1.334 . S
C452 H444 0.930 . S
C452 C447 1.418 . S
C452 C448 1.353 . S
C453 H423 0.930 . S
C453 N454 1.330 . S
C453 C455 1.446 . S
N454 Co413 2.151 . S
N454 C453 1.330 . S
N454 C458 1.418 . S
C455 H434 0.929 . S
C455 C453 1.446 . S
C455 C456 1.332 . S
C456 H436 0.931 . S
C456 C455 1.332 . S
C456 C457 1.267 . S
C457 H425 0.929 . S
C457 C456 1.267 . S
C457 C458 1.251 . S
C458 H428 0.929 . S
C458 N454 1.418 . S
C458 C457 1.251 . S
C459 H426 0.930 . S
C459 C461 1.406 . S
C459 C464 1.261 . S
C460 H427 0.930 . S
C460 N462 1.325 . S
C460 C463 1.357 . S
C461 H429 0.928 . S
C461 C459 1.406 . S
C461 N462 1.261 . S
N462 Co413 2.214 . S
N462 C460 1.325 . S
N462 C461 1.261 . S
C463 H433 0.931 . S
C463 C460 1.357 . S
C463 C464 1.312 . S
C464 H435 0.930 . S
C464 C459 1.261 . S
C464 C463 1.312 . S
C465 O437 1.214 . S
C465 O445 1.234 . S
C466 H438 0.929 . S
C466 C469 1.391 . S
C466 C471 1.391 . S
C467 H439 0.929 . S
C467 C468 1.390 . S
C467 N470 1.391 1_545 S
C468 H440 0.930 . S
C468 C467 1.390 . S
C468 C469 1.392 1_545 S
C469 H441 0.929 . S
C469 C466 1.391 . S
C469 C468 1.392 1_565 S
N470 Co414 2.257 . S
N470 C467 1.391 1_565 S
N470 C471 1.388 . S
C471 H442 0.930 . S
C471 C466 1.391 . S
C471 N470 1.388 . S
Co472 O474 2.143 . S
Co472 O480 2.074 . S
Co472 O483 2.093 . S
Co472 O496 2.097 . S
Co472 N513 2.151 . S
Co472 N521 2.214 . S
Co473 O474 2.160 . S
Co473 O479 2.058 . S
Co473 O489 2.057 . S
Co473 O504 2.037 . S
Co473 N508 2.145 . S
Co473 N529 2.257 . S
O474 Co472 2.143 . S
O474 Co473 2.160 . S
C475 O476 1.278 . S
C475 O483 1.224 . S
O476 C475 1.278 . S
C477 O478 1.245 . S
C477 O489 1.232 . S
O478 C477 1.245 . S
O479 Co473 2.058 . S
O479 C505 1.269 . S
O480 Co472 2.074 . S
O480 C505 1.257 . S
H481 C506 0.930 . S
H482 C512 0.930 . S
O483 Co472 2.093 . S
O483 C475 1.224 . S
H484 C516 0.929 . S
H485 C518 0.930 . S
H486 C519 0.930 . S
H487 C517 0.929 . S
H488 C520 0.928 . S
O489 Co473 2.057 . S
O489 C477 1.232 . S
H490 C509 0.929 . S
H491 C510 0.929 . S
H492 C522 0.931 . S
H493 C514 0.929 . S
H494 C523 0.930 . S
H495 C515 0.931 . S
O496 Co472 2.097 . S
O496 C524 1.214 . S
H497 C525 0.929 . S
H498 C526 0.929 . S
H499 C527 0.930 . S
H500 C528 0.929 . S
H501 C530 0.930 . S
H502 C507 0.930 . S
H503 C511 0.930 . S
O504 Co473 2.037 . S
O504 C524 1.234 . S
C505 O479 1.269 . S
C505 O480 1.257 . S
C506 H481 0.930 . S
C506 C509 1.388 . S
C506 C511 1.418 . S
C507 H502 0.930 . S
C507 C510 1.404 . S
C507 C511 1.353 . S
N508 Co473 2.145 . S
N508 C509 1.397 . S
N508 C510 1.334 . S
C509 H490 0.929 . S
C509 C506 1.388 . S
C509 N508 1.397 . S
C510 H491 0.929 . S
C510 C507 1.404 . S
C510 N508 1.334 . S
C511 H503 0.930 . S
C511 C506 1.418 . S
C511 C507 1.353 . S
C512 H482 0.930 . S
C512 N513 1.330 . S
C512 C514 1.446 . S
N513 Co472 2.151 . S
N513 C512 1.330 . S
N513 C517 1.418 . S
C514 H493 0.929 . S
C514 C512 1.446 . S
C514 C515 1.332 . S
C515 H495 0.931 . S
C515 C514 1.332 . S
C515 C516 1.267 . S
C516 H484 0.929 . S
C516 C515 1.267 . S
C516 C517 1.251 . S
C517 H487 0.929 . S
C517 N513 1.418 . S
C517 C516 1.251 . S
C518 H485 0.930 . S
C518 C520 1.406 . S
C518 C523 1.261 . S
C519 H486 0.930 . S
C519 N521 1.325 . S
C519 C522 1.357 . S
C520 H488 0.928 . S
C520 C518 1.406 . S
C520 N521 1.261 . S
N521 Co472 2.214 . S
N521 C519 1.325 . S
N521 C520 1.261 . S
C522 H492 0.931 . S
C522 C519 1.357 . S
C522 C523 1.312 . S
C523 H494 0.930 . S
C523 C518 1.261 . S
C523 C522 1.312 . S
C524 O496 1.214 . S
C524 O504 1.234 . S
C525 H497 0.929 . S
C525 C528 1.391 . S
C525 C530 1.391 . S
C526 H498 0.929 . S
C526 C527 1.390 . S
C526 N529 1.391 . S
C527 H499 0.930 . S
C527 C526 1.390 . S
C527 C528 1.392 . S
C528 H500 0.929 . S
C528 C525 1.391 . S
C528 C527 1.392 . S
N529 Co473 2.257 . S
N529 C526 1.391 . S
N529 C530 1.388 . S
C530 H501 0.930 . S
C530 C525 1.391 . S
C530 N529 1.388 . S
Co531 O533 2.143 . S
Co531 O539 2.074 . S
Co531 O542 2.093 . S
Co531 O555 2.097 . S
Co531 N572 2.151 . S
Co531 N580 2.214 . S
Co532 O533 2.160 . S
Co532 O538 2.058 . S
Co532 O548 2.057 . S
Co532 O563 2.037 . S
Co532 N567 2.145 1_455 S
Co532 N588 2.257 . S
O533 Co531 2.143 . S
O533 Co532 2.160 . S
C534 O535 1.278 . S
C534 O542 1.224 . S
O535 C534 1.278 . S
C536 O537 1.245 . S
C536 O548 1.232 . S
O537 C536 1.245 . S
O538 Co532 2.058 . S
O538 C564 1.269 . S
O539 Co531 2.074 . S
O539 C564 1.257 . S
H540 C565 0.930 . S
H541 C571 0.930 . S
O542 Co531 2.093 . S
O542 C534 1.224 . S
H543 C575 0.929 . S
H544 C577 0.930 . S
H545 C578 0.930 . S
H546 C576 0.929 . S
H547 C579 0.928 . S
O548 Co532 2.057 . S
O548 C536 1.232 . S
H549 C568 0.929 . S
H550 C569 0.929 . S
H551 C581 0.931 . S
H552 C573 0.929 . S
H553 C582 0.930 . S
H554 C574 0.931 . S
O555 Co531 2.097 . S
O555 C583 1.214 . S
H556 C584 0.929 . S
H557 C585 0.929 . S
H558 C586 0.930 . S
H559 C587 0.929 . S
H560 C589 0.930 . S
H561 C566 0.930 . S
H562 C570 0.930 . S
O563 Co532 2.037 . S
O563 C583 1.234 . S
C564 O538 1.269 . S
C564 O539 1.257 . S
C565 H540 0.930 . S
C565 C568 1.388 . S
C565 C570 1.418 . S
C566 H561 0.930 . S
C566 C569 1.404 . S
C566 C570 1.353 . S
N567 Co532 2.145 1_655 S
N567 C568 1.397 . S
N567 C569 1.334 . S
C568 H549 0.929 . S
C568 C565 1.388 . S
C568 N567 1.397 . S
C569 H550 0.929 . S
C569 C566 1.404 . S
C569 N567 1.334 . S
C570 H562 0.930 . S
C570 C565 1.418 . S
C570 C566 1.353 . S
C571 H541 0.930 . S
C571 N572 1.330 . S
C571 C573 1.446 . S
N572 Co531 2.151 . S
N572 C571 1.330 . S
N572 C576 1.418 . S
C573 H552 0.929 . S
C573 C571 1.446 . S
C573 C574 1.332 . S
C574 H554 0.931 . S
C574 C573 1.332 . S
C574 C575 1.267 . S
C575 H543 0.929 . S
C575 C574 1.267 . S
C575 C576 1.251 . S
C576 H546 0.929 . S
C576 N572 1.418 . S
C576 C575 1.251 . S
C577 H544 0.930 . S
C577 C579 1.406 . S
C577 C582 1.261 . S
C578 H545 0.930 . S
C578 N580 1.325 . S
C578 C581 1.357 . S
C579 H547 0.928 . S
C579 C577 1.406 . S
C579 N580 1.261 . S
N580 Co531 2.214 . S
N580 C578 1.325 . S
N580 C579 1.261 . S
C581 H551 0.931 . S
C581 C578 1.357 . S
C581 C582 1.312 . S
C582 H553 0.930 . S
C582 C577 1.261 . S
C582 C581 1.312 . S
C583 O555 1.214 . S
C583 O563 1.234 . S
C584 H556 0.929 . S
C584 C587 1.391 . S
C584 C589 1.391 . S
C585 H557 0.929 . S
C585 C586 1.390 . S
C585 N588 1.391 1_655 S
C586 H558 0.930 . S
C586 C585 1.390 . S
C586 C587 1.392 1_655 S
C587 H559 0.929 . S
C587 C584 1.391 . S
C587 C586 1.392 1_455 S
N588 Co532 2.257 . S
N588 C585 1.391 1_455 S
N588 C589 1.388 . S
C589 H560 0.930 . S
C589 C584 1.391 . S
C589 N588 1.388 . S
Co590 O592 2.143 . S
Co590 O598 2.074 . S
Co590 O601 2.093 . S
Co590 O614 2.097 . S
Co590 N631 2.151 . S
Co590 N639 2.214 . S
Co591 O592 2.160 . S
Co591 O597 2.058 . S
Co591 O607 2.057 . S
Co591 O622 2.037 . S
Co591 N626 2.145 1_545 S
Co591 N647 2.257 . S
O592 Co590 2.143 . S
O592 Co591 2.160 . S
C593 O594 1.278 . S
C593 O601 1.224 . S
O594 C593 1.278 . S
C595 O596 1.245 . S
C595 O607 1.232 . S
O596 C595 1.245 . S
O597 Co591 2.058 . S
O597 C623 1.269 . S
O598 Co590 2.074 . S
O598 C623 1.257 . S
H599 C624 0.930 . S
H600 C630 0.930 . S
O601 Co590 2.093 . S
O601 C593 1.224 . S
H602 C634 0.929 . S
H603 C636 0.930 . S
H604 C637 0.930 . S
H605 C635 0.929 . S
H606 C638 0.928 . S
O607 Co591 2.057 . S
O607 C595 1.232 . S
H608 C627 0.929 . S
H609 C628 0.929 . S
H610 C640 0.931 . S
H611 C632 0.929 . S
H612 C641 0.930 . S
H613 C633 0.931 . S
O614 Co590 2.097 . S
O614 C642 1.214 . S
H615 C643 0.929 . S
H616 C644 0.929 . S
H617 C645 0.930 . S
H618 C646 0.929 . S
H619 C648 0.930 . S
H620 C625 0.930 . S
H621 C629 0.930 . S
O622 Co591 2.037 . S
O622 C642 1.234 . S
C623 O597 1.269 . S
C623 O598 1.257 . S
C624 H599 0.930 . S
C624 C627 1.388 . S
C624 C629 1.418 . S
C625 H620 0.930 . S
C625 C628 1.404 . S
C625 C629 1.353 . S
N626 Co591 2.145 1_565 S
N626 C627 1.397 . S
N626 C628 1.334 . S
C627 H608 0.929 . S
C627 C624 1.388 . S
C627 N626 1.397 . S
C628 H609 0.929 . S
C628 C625 1.404 . S
C628 N626 1.334 . S
C629 H621 0.930 . S
C629 C624 1.418 . S
C629 C625 1.353 . S
C630 H600 0.930 . S
C630 N631 1.330 . S
C630 C632 1.446 . S
N631 Co590 2.151 . S
N631 C630 1.330 . S
N631 C635 1.418 . S
C632 H611 0.929 . S
C632 C630 1.446 . S
C632 C633 1.332 . S
C633 H613 0.931 . S
C633 C632 1.332 . S
C633 C634 1.267 . S
C634 H602 0.929 . S
C634 C633 1.267 . S
C634 C635 1.251 . S
C635 H605 0.929 . S
C635 N631 1.418 . S
C635 C634 1.251 . S
C636 H603 0.930 . S
C636 C638 1.406 . S
C636 C641 1.261 . S
C637 H604 0.930 . S
C637 N639 1.325 . S
C637 C640 1.357 . S
C638 H606 0.928 . S
C638 C636 1.406 . S
C638 N639 1.261 . S
N639 Co590 2.214 . S
N639 C637 1.325 . S
N639 C638 1.261 . S
C640 H610 0.931 . S
C640 C637 1.357 . S
C640 C641 1.312 . S
C641 H612 0.930 . S
C641 C636 1.261 . S
C641 C640 1.312 . S
C642 O614 1.214 . S
C642 O622 1.234 . S
C643 H615 0.929 . S
C643 C646 1.391 . S
C643 C648 1.391 . S
C644 H616 0.929 . S
C644 C645 1.390 . S
C644 N647 1.391 1_565 S
C645 H617 0.930 . S
C645 C644 1.390 . S
C645 C646 1.392 1_565 S
C646 H618 0.929 . S
C646 C643 1.391 . S
C646 C645 1.392 1_545 S
N647 Co591 2.257 . S
N647 C644 1.391 1_545 S
N647 C648 1.388 . S
C648 H619 0.930 . S
C648 C643 1.391 . S
C648 N647 1.388 . S
Co649 O651 2.143 . S
Co649 O657 2.074 . S
Co649 O660 2.093 . S
Co649 O673 2.097 . S
Co649 N690 2.151 . S
Co649 N698 2.214 . S
Co650 O651 2.160 . S
Co650 O656 2.058 . S
Co650 O666 2.057 . S
Co650 O681 2.037 . S
Co650 N685 2.145 . S
Co650 N706 2.257 . S
O651 Co649 2.143 . S
O651 Co650 2.160 . S
C652 O653 1.278 . S
C652 O660 1.224 . S
O653 C652 1.278 . S
C654 O655 1.245 . S
C654 O666 1.232 . S
O655 C654 1.245 . S
O656 Co650 2.058 . S
O656 C682 1.269 . S
O657 Co649 2.074 . S
O657 C682 1.257 . S
H658 C683 0.930 . S
H659 C689 0.930 . S
O660 Co649 2.093 . S
O660 C652 1.224 . S
H661 C693 0.929 . S
H662 C695 0.930 . S
H663 C696 0.930 . S
H664 C694 0.929 . S
H665 C697 0.928 . S
O666 Co650 2.057 . S
O666 C654 1.232 . S
H667 C686 0.929 . S
H668 C687 0.929 . S
H669 C699 0.931 . S
H670 C691 0.929 . S
H671 C700 0.930 . S
H672 C692 0.931 . S
O673 Co649 2.097 . S
O673 C701 1.214 . S
H674 C702 0.929 . S
H675 C703 0.929 . S
H676 C704 0.930 . S
H677 C705 0.929 . S
H678 C707 0.930 . S
H679 C684 0.930 . S
H680 C688 0.930 . S
O681 Co650 2.037 . S
O681 C701 1.234 . S
C682 O656 1.269 . S
C682 O657 1.257 . S
C683 H658 0.930 . S
C683 C686 1.388 . S
C683 C688 1.418 . S
C684 H679 0.930 . S
C684 C687 1.404 . S
C684 C688 1.353 . S
N685 Co650 2.145 . S
N685 C686 1.397 . S
N685 C687 1.334 . S
C686 H667 0.929 . S
C686 C683 1.388 . S
C686 N685 1.397 . S
C687 H668 0.929 . S
C687 C684 1.404 . S
C687 N685 1.334 . S
C688 H680 0.930 . S
C688 C683 1.418 . S
C688 C684 1.353 . S
C689 H659 0.930 . S
C689 N690 1.330 . S
C689 C691 1.446 . S
N690 Co649 2.151 . S
N690 C689 1.330 . S
N690 C694 1.418 . S
C691 H670 0.929 . S
C691 C689 1.446 . S
C691 C692 1.332 . S
C692 H672 0.931 . S
C692 C691 1.332 . S
C692 C693 1.267 . S
C693 H661 0.929 . S
C693 C692 1.267 . S
C693 C694 1.251 . S
C694 H664 0.929 . S
C694 N690 1.418 . S
C694 C693 1.251 . S
C695 H662 0.930 . S
C695 C697 1.406 . S
C695 C700 1.261 . S
C696 H663 0.930 . S
C696 N698 1.325 . S
C696 C699 1.357 . S
C697 H665 0.928 . S
C697 C695 1.406 . S
C697 N698 1.261 . S
N698 Co649 2.214 . S
N698 C696 1.325 . S
N698 C697 1.261 . S
C699 H669 0.931 . S
C699 C696 1.357 . S
C699 C700 1.312 . S
C700 H671 0.930 . S
C700 C695 1.261 . S
C700 C699 1.312 . S
C701 O673 1.214 . S
C701 O681 1.234 . S
C702 H674 0.929 . S
C702 C705 1.391 . S
C702 C707 1.391 . S
C703 H675 0.929 . S
C703 C704 1.390 . S
C703 N706 1.391 . S
C704 H676 0.930 . S
C704 C703 1.390 . S
C704 C705 1.392 . S
C705 H677 0.929 . S
C705 C702 1.391 . S
C705 C704 1.392 . S
N706 Co650 2.257 . S
N706 C703 1.391 . S
N706 C707 1.388 . S
C707 H678 0.930 . S
C707 C702 1.391 . S
C707 N706 1.388 . S
Co708 O710 2.143 . S
Co708 O716 2.074 . S
Co708 O719 2.093 . S
Co708 O732 2.097 . S
Co708 N749 2.151 . S
Co708 N757 2.214 . S
Co709 O710 2.160 . S
Co709 O715 2.058 . S
Co709 O725 2.057 . S
Co709 O740 2.037 . S
Co709 N744 2.145 1_565 S
Co709 N765 2.257 . S
O710 Co708 2.143 . S
O710 Co709 2.160 . S
C711 O712 1.278 . S
C711 O719 1.224 . S
O712 C711 1.278 . S
C713 O714 1.245 . S
C713 O725 1.232 . S
O714 C713 1.245 . S
O715 Co709 2.058 . S
O715 C741 1.269 . S
O716 Co708 2.074 . S
O716 C741 1.257 . S
H717 C742 0.930 . S
H718 C748 0.930 . S
O719 Co708 2.093 . S
O719 C711 1.224 . S
H720 C752 0.929 . S
H721 C754 0.930 . S
H722 C755 0.930 . S
H723 C753 0.929 . S
H724 C756 0.928 . S
O725 Co709 2.057 . S
O725 C713 1.232 . S
H726 C745 0.929 . S
H727 C746 0.929 . S
H728 C758 0.931 . S
H729 C750 0.929 . S
H730 C759 0.930 . S
H731 C751 0.931 . S
O732 Co708 2.097 . S
O732 C760 1.214 . S
H733 C761 0.929 . S
H734 C762 0.929 . S
H735 C763 0.930 . S
H736 C764 0.929 . S
H737 C766 0.930 . S
H738 C743 0.930 . S
H739 C747 0.930 . S
O740 Co709 2.037 . S
O740 C760 1.234 . S
C741 O715 1.269 . S
C741 O716 1.257 . S
C742 H717 0.930 . S
C742 C745 1.388 . S
C742 C747 1.418 . S
C743 H738 0.930 . S
C743 C746 1.404 . S
C743 C747 1.353 . S
N744 Co709 2.145 1_545 S
N744 C745 1.397 . S
N744 C746 1.334 . S
C745 H726 0.929 . S
C745 C742 1.388 . S
C745 N744 1.397 . S
C746 H727 0.929 . S
C746 C743 1.404 . S
C746 N744 1.334 . S
C747 H739 0.930 . S
C747 C742 1.418 . S
C747 C743 1.353 . S
C748 H718 0.930 . S
C748 N749 1.330 . S
C748 C750 1.446 . S
N749 Co708 2.151 . S
N749 C748 1.330 . S
N749 C753 1.418 . S
C750 H729 0.929 . S
C750 C748 1.446 . S
C750 C751 1.332 . S
C751 H731 0.931 . S
C751 C750 1.332 . S
C751 C752 1.267 . S
C752 H720 0.929 . S
C752 C751 1.267 . S
C752 C753 1.251 . S
C753 H723 0.929 . S
C753 N749 1.418 . S
C753 C752 1.251 . S
C754 H721 0.930 . S
C754 C756 1.406 . S
C754 C759 1.261 . S
C755 H722 0.930 . S
C755 N757 1.325 . S
C755 C758 1.357 . S
C756 H724 0.928 . S
C756 C754 1.406 . S
C756 N757 1.261 . S
N757 Co708 2.214 . S
N757 C755 1.325 . S
N757 C756 1.261 . S
C758 H728 0.931 . S
C758 C755 1.357 . S
C758 C759 1.312 . S
C759 H730 0.930 . S
C759 C754 1.261 . S
C759 C758 1.312 . S
C760 O732 1.214 . S
C760 O740 1.234 . S
C761 H733 0.929 . S
C761 C764 1.391 . S
C761 C766 1.391 . S
C762 H734 0.929 . S
C762 C763 1.390 . S
C762 N765 1.391 1_545 S
C763 H735 0.930 . S
C763 C762 1.390 . S
C763 C764 1.392 1_545 S
C764 H736 0.929 . S
C764 C761 1.391 . S
C764 C763 1.392 1_565 S
N765 Co709 2.257 . S
N765 C762 1.391 1_565 S
N765 C766 1.388 . S
C766 H737 0.930 . S
C766 C761 1.391 . S
C766 N765 1.388 . S
Co767 O769 2.143 . S
Co767 O775 2.074 . S
Co767 O778 2.093 . S
Co767 O791 2.097 . S
Co767 N808 2.151 . S
Co767 N816 2.214 . S
Co768 O769 2.160 . S
Co768 O774 2.058 . S
Co768 O784 2.057 . S
Co768 O799 2.037 . S
Co768 N803 2.145 . S
Co768 N824 2.257 . S
O769 Co767 2.143 . S
O769 Co768 2.160 . S
C770 O771 1.278 . S
C770 O778 1.224 . S
O771 C770 1.278 . S
C772 O773 1.245 . S
C772 O784 1.232 . S
O773 C772 1.245 . S
O774 Co768 2.058 . S
O774 C800 1.269 . S
O775 Co767 2.074 . S
O775 C800 1.257 . S
H776 C801 0.930 . S
H777 C807 0.930 . S
O778 Co767 2.093 . S
O778 C770 1.224 . S
H779 C811 0.929 . S
H780 C813 0.930 . S
H781 C814 0.930 . S
H782 C812 0.929 . S
H783 C815 0.928 . S
O784 Co768 2.057 . S
O784 C772 1.232 . S
H785 C804 0.929 . S
H786 C805 0.929 . S
H787 C817 0.931 . S
H788 C809 0.929 . S
H789 C818 0.930 . S
H790 C810 0.931 . S
O791 Co767 2.097 . S
O791 C819 1.214 . S
H792 C820 0.929 . S
H793 C821 0.929 . S
H794 C822 0.930 . S
H795 C823 0.929 . S
H796 C825 0.930 . S
H797 C802 0.930 . S
H798 C806 0.930 . S
O799 Co768 2.037 . S
O799 C819 1.234 . S
C800 O774 1.269 . S
C800 O775 1.257 . S
C801 H776 0.930 . S
C801 C804 1.388 . S
C801 C806 1.418 . S
C802 H797 0.930 . S
C802 C805 1.404 . S
C802 C806 1.353 . S
N803 Co768 2.145 . S
N803 C804 1.397 . S
N803 C805 1.334 . S
C804 H785 0.929 . S
C804 C801 1.388 . S
C804 N803 1.397 . S
C805 H786 0.929 . S
C805 C802 1.404 . S
C805 N803 1.334 . S
C806 H798 0.930 . S
C806 C801 1.418 . S
C806 C802 1.353 . S
C807 H777 0.930 . S
C807 N808 1.330 . S
C807 C809 1.446 . S
N808 Co767 2.151 . S
N808 C807 1.330 . S
N808 C812 1.418 . S
C809 H788 0.929 . S
C809 C807 1.446 . S
C809 C810 1.332 . S
C810 H790 0.931 . S
C810 C809 1.332 . S
C810 C811 1.267 . S
C811 H779 0.929 . S
C811 C810 1.267 . S
C811 C812 1.251 . S
C812 H782 0.929 . S
C812 N808 1.418 . S
C812 C811 1.251 . S
C813 H780 0.930 . S
C813 C815 1.406 . S
C813 C818 1.261 . S
C814 H781 0.930 . S
C814 N816 1.325 . S
C814 C817 1.357 . S
C815 H783 0.928 . S
C815 C813 1.406 . S
C815 N816 1.261 . S
N816 Co767 2.214 . S
N816 C814 1.325 . S
N816 C815 1.261 . S
C817 H787 0.931 . S
C817 C814 1.357 . S
C817 C818 1.312 . S
C818 H789 0.930 . S
C818 C813 1.261 . S
C818 C817 1.312 . S
C819 O791 1.214 . S
C819 O799 1.234 . S
C820 H792 0.929 . S
C820 C823 1.391 . S
C820 C825 1.391 . S
C821 H793 0.929 . S
C821 C822 1.390 . S
C821 N824 1.391 . S
C822 H794 0.930 . S
C822 C821 1.390 . S
C822 C823 1.392 . S
C823 H795 0.929 . S
C823 C820 1.391 . S
C823 C822 1.392 . S
N824 Co768 2.257 . S
N824 C821 1.391 . S
N824 C825 1.388 . S
C825 H796 0.930 . S
C825 C820 1.391 . S
C825 N824 1.388 . S
Co826 O828 2.143 . S
Co826 O834 2.074 . S
Co826 O837 2.093 . S
Co826 O850 2.097 . S
Co826 N867 2.151 . S
Co826 N875 2.214 . S
Co827 O828 2.160 . S
Co827 O833 2.058 . S
Co827 O843 2.057 . S
Co827 O858 2.037 . S
Co827 N862 2.145 1_455 S
Co827 N883 2.257 . S
O828 Co826 2.143 . S
O828 Co827 2.160 . S
C829 O830 1.278 . S
C829 O837 1.224 . S
O830 C829 1.278 . S
C831 O832 1.245 . S
C831 O843 1.232 . S
O832 C831 1.245 . S
O833 Co827 2.058 . S
O833 C859 1.269 . S
O834 Co826 2.074 . S
O834 C859 1.257 . S
H835 C860 0.930 . S
H836 C866 0.930 . S
O837 Co826 2.093 . S
O837 C829 1.224 . S
H838 C870 0.929 . S
H839 C872 0.930 . S
H840 C873 0.930 . S
H841 C871 0.929 . S
H842 C874 0.928 . S
O843 Co827 2.057 . S
O843 C831 1.232 . S
H844 C863 0.929 . S
H845 C864 0.929 . S
H846 C876 0.931 . S
H847 C868 0.929 . S
H848 C877 0.930 . S
H849 C869 0.931 . S
O850 Co826 2.097 . S
O850 C878 1.214 . S
H851 C879 0.929 . S
H852 C880 0.929 . S
H853 C881 0.930 . S
H854 C882 0.929 . S
H855 C884 0.930 . S
H856 C861 0.930 . S
H857 C865 0.930 . S
O858 Co827 2.037 . S
O858 C878 1.234 . S
C859 O833 1.269 . S
C859 O834 1.257 . S
C860 H835 0.930 . S
C860 C863 1.388 . S
C860 C865 1.418 . S
C861 H856 0.930 . S
C861 C864 1.404 . S
C861 C865 1.353 . S
N862 Co827 2.145 1_655 S
N862 C863 1.397 . S
N862 C864 1.334 . S
C863 H844 0.929 . S
C863 C860 1.388 . S
C863 N862 1.397 . S
C864 H845 0.929 . S
C864 C861 1.404 . S
C864 N862 1.334 . S
C865 H857 0.930 . S
C865 C860 1.418 . S
C865 C861 1.353 . S
C866 H836 0.930 . S
C866 N867 1.330 . S
C866 C868 1.446 . S
N867 Co826 2.151 . S
N867 C866 1.330 . S
N867 C871 1.418 . S
C868 H847 0.929 . S
C868 C866 1.446 . S
C868 C869 1.332 . S
C869 H849 0.931 . S
C869 C868 1.332 . S
C869 C870 1.267 . S
C870 H838 0.929 . S
C870 C869 1.267 . S
C870 C871 1.251 . S
C871 H841 0.929 . S
C871 N867 1.418 . S
C871 C870 1.251 . S
C872 H839 0.930 . S
C872 C874 1.406 . S
C872 C877 1.261 . S
C873 H840 0.930 . S
C873 N875 1.325 . S
C873 C876 1.357 . S
C874 H842 0.928 . S
C874 C872 1.406 . S
C874 N875 1.261 . S
N875 Co826 2.214 . S
N875 C873 1.325 . S
N875 C874 1.261 . S
C876 H846 0.931 . S
C876 C873 1.357 . S
C876 C877 1.312 . S
C877 H848 0.930 . S
C877 C872 1.261 . S
C877 C876 1.312 . S
C878 O850 1.214 . S
C878 O858 1.234 . S
C879 H851 0.929 . S
C879 C882 1.391 . S
C879 C884 1.391 . S
C880 H852 0.929 . S
C880 C881 1.390 . S
C880 N883 1.391 1_655 S
C881 H853 0.930 . S
C881 C880 1.390 . S
C881 C882 1.392 1_655 S
C882 H854 0.929 . S
C882 C879 1.391 . S
C882 C881 1.392 1_455 S
N883 Co827 2.257 . S
N883 C880 1.391 1_455 S
N883 C884 1.388 . S
C884 H855 0.930 . S
C884 C879 1.391 . S
C884 N883 1.388 . S
Co885 O887 2.143 . S
Co885 O893 2.074 . S
Co885 O896 2.093 . S
Co885 O909 2.097 . S
Co885 N926 2.151 . S
Co885 N934 2.214 . S
Co886 O887 2.160 . S
Co886 O892 2.058 . S
Co886 O902 2.057 . S
Co886 O917 2.037 . S
Co886 N921 2.145 1_545 S
Co886 N942 2.257 . S
O887 Co885 2.143 . S
O887 Co886 2.160 . S
C888 O889 1.278 . S
C888 O896 1.224 . S
O889 C888 1.278 . S
C890 O891 1.245 . S
C890 O902 1.232 . S
O891 C890 1.245 . S
O892 Co886 2.058 . S
O892 C918 1.269 . S
O893 Co885 2.074 . S
O893 C918 1.257 . S
H894 C919 0.930 . S
H895 C925 0.930 . S
O896 Co885 2.093 . S
O896 C888 1.224 . S
H897 C929 0.929 . S
H898 C931 0.930 . S
H899 C932 0.930 . S
H900 C930 0.929 . S
H901 C933 0.928 . S
O902 Co886 2.057 . S
O902 C890 1.232 . S
H903 C922 0.929 . S
H904 C923 0.929 . S
H905 C935 0.931 . S
H906 C927 0.929 . S
H907 C936 0.930 . S
H908 C928 0.931 . S
O909 Co885 2.097 . S
O909 C937 1.214 . S
H910 C938 0.929 . S
H911 C939 0.929 . S
H912 C940 0.930 . S
H913 C941 0.929 . S
H914 C943 0.930 . S
H915 C920 0.930 . S
H916 C924 0.930 . S
O917 Co886 2.037 . S
O917 C937 1.234 . S
C918 O892 1.269 . S
C918 O893 1.257 . S
C919 H894 0.930 . S
C919 C922 1.388 . S
C919 C924 1.418 . S
C920 H915 0.930 . S
C920 C923 1.404 . S
C920 C924 1.353 . S
N921 Co886 2.145 1_565 S
N921 C922 1.397 . S
N921 C923 1.334 . S
C922 H903 0.929 . S
C922 C919 1.388 . S
C922 N921 1.397 . S
C923 H904 0.929 . S
C923 C920 1.404 . S
C923 N921 1.334 . S
C924 H916 0.930 . S
C924 C919 1.418 . S
C924 C920 1.353 . S
C925 H895 0.930 . S
C925 N926 1.330 . S
C925 C927 1.446 . S
N926 Co885 2.151 . S
N926 C925 1.330 . S
N926 C930 1.418 . S
C927 H906 0.929 . S
C927 C925 1.446 . S
C927 C928 1.332 . S
C928 H908 0.931 . S
C928 C927 1.332 . S
C928 C929 1.267 . S
C929 H897 0.929 . S
C929 C928 1.267 . S
C929 C930 1.251 . S
C930 H900 0.929 . S
C930 N926 1.418 . S
C930 C929 1.251 . S
C931 H898 0.930 . S
C931 C933 1.406 . S
C931 C936 1.261 . S
C932 H899 0.930 . S
C932 N934 1.325 . S
C932 C935 1.357 . S
C933 H901 0.928 . S
C933 C931 1.406 . S
C933 N934 1.261 . S
N934 Co885 2.214 . S
N934 C932 1.325 . S
N934 C933 1.261 . S
C935 H905 0.931 . S
C935 C932 1.357 . S
C935 C936 1.312 . S
C936 H907 0.930 . S
C936 C931 1.261 . S
C936 C935 1.312 . S
C937 O909 1.214 . S
C937 O917 1.234 . S
C938 H910 0.929 . S
C938 C941 1.391 . S
C938 C943 1.391 . S
C939 H911 0.929 . S
C939 C940 1.390 . S
C939 N942 1.391 1_565 S
C940 H912 0.930 . S
C940 C939 1.390 . S
C940 C941 1.392 1_565 S
C941 H913 0.929 . S
C941 C938 1.391 . S
C941 C940 1.392 1_545 S
N942 Co886 2.257 . S
N942 C939 1.391 1_545 S
N942 C943 1.388 . S
C943 H914 0.930 . S
C943 C938 1.391 . S
C943 N942 1.388 . S
Co944 O946 2.143 . S
Co944 O952 2.074 . S
Co944 O955 2.093 . S
Co944 O968 2.097 . S
Co944 N985 2.151 . S
Co944 N993 2.214 . S
Co945 O946 2.160 . S
Co945 O951 2.058 . S
Co945 O961 2.057 . S
Co945 O976 2.037 . S
Co945 N980 2.145 . S
Co945 N1001 2.257 . S
O946 Co944 2.143 . S
O946 Co945 2.160 . S
C947 O948 1.278 . S
C947 O955 1.224 . S
O948 C947 1.278 . S
C949 O950 1.245 . S
C949 O961 1.232 . S
O950 C949 1.245 . S
O951 Co945 2.058 . S
O951 C977 1.269 . S
O952 Co944 2.074 . S
O952 C977 1.257 . S
H953 C978 0.930 . S
H954 C984 0.930 . S
O955 Co944 2.093 . S
O955 C947 1.224 . S
H956 C988 0.929 . S
H957 C990 0.930 . S
H958 C991 0.930 . S
H959 C989 0.929 . S
H960 C992 0.928 . S
O961 Co945 2.057 . S
O961 C949 1.232 . S
H962 C981 0.929 . S
H963 C982 0.929 . S
H964 C994 0.931 . S
H965 C986 0.929 . S
H966 C995 0.930 . S
H967 C987 0.931 . S
O968 Co944 2.097 . S
O968 C996 1.214 . S
H969 C997 0.929 . S
H970 C998 0.929 . S
H971 C999 0.930 . S
H972 C1000 0.929 . S
H973 C1002 0.930 . S
H974 C979 0.930 . S
H975 C983 0.930 . S
O976 Co945 2.037 . S
O976 C996 1.234 . S
C977 O951 1.269 . S
C977 O952 1.257 . S
C978 H953 0.930 . S
C978 C981 1.388 . S
C978 C983 1.418 . S
C979 H974 0.930 . S
C979 C982 1.404 . S
C979 C983 1.353 . S
N980 Co945 2.145 . S
N980 C981 1.397 . S
N980 C982 1.334 . S
C981 H962 0.929 . S
C981 C978 1.388 . S
C981 N980 1.397 . S
C982 H963 0.929 . S
C982 C979 1.404 . S
C982 N980 1.334 . S
C983 H975 0.930 . S
C983 C978 1.418 . S
C983 C979 1.353 . S
C984 H954 0.930 . S
C984 N985 1.330 . S
C984 C986 1.446 . S
N985 Co944 2.151 . S
N985 C984 1.330 . S
N985 C989 1.418 . S
C986 H965 0.929 . S
C986 C984 1.446 . S
C986 C987 1.332 . S
C987 H967 0.931 . S
C987 C986 1.332 . S
C987 C988 1.267 . S
C988 H956 0.929 . S
C988 C987 1.267 . S
C988 C989 1.251 . S
C989 H959 0.929 . S
C989 N985 1.418 . S
C989 C988 1.251 . S
C990 H957 0.930 . S
C990 C992 1.406 . S
C990 C995 1.261 . S
C991 H958 0.930 . S
C991 N993 1.325 . S
C991 C994 1.357 . S
C992 H960 0.928 . S
C992 C990 1.406 . S
C992 N993 1.261 . S
N993 Co944 2.214 . S
N993 C991 1.325 . S
N993 C992 1.261 . S
C994 H964 0.931 . S
C994 C991 1.357 . S
C994 C995 1.312 . S
C995 H966 0.930 . S
C995 C990 1.261 . S
C995 C994 1.312 . S
C996 O968 1.214 . S
C996 O976 1.234 . S
C997 H969 0.929 . S
C997 C1000 1.391 . S
C997 C1002 1.391 . S
C998 H970 0.929 . S
C998 C999 1.390 . S
C998 N1001 1.391 . S
C999 H971 0.930 . S
C999 C998 1.390 . S
C999 C1000 1.392 . S
C1000 H972 0.929 . S
C1000 C997 1.391 . S
C1000 C999 1.392 . S
N1001 Co945 2.257 . S
N1001 C998 1.391 . S
N1001 C1002 1.388 . S
C1002 H973 0.930 . S
C1002 C997 1.391 . S
C1002 N1001 1.388 . S
Co1003 O1005 2.143 . S
Co1003 O1011 2.074 . S
Co1003 O1014 2.093 . S
Co1003 O1027 2.097 . S
Co1003 N1044 2.151 . S
Co1003 N1052 2.214 . S
Co1004 O1005 2.160 . S
Co1004 O1010 2.058 . S
Co1004 O1020 2.057 . S
Co1004 O1035 2.037 . S
Co1004 N1039 2.145 1_655 S
Co1004 N1060 2.257 . S
O1005 Co1003 2.143 . S
O1005 Co1004 2.160 . S
C1006 O1007 1.278 . S
C1006 O1014 1.224 . S
O1007 C1006 1.278 . S
C1008 O1009 1.245 . S
C1008 O1020 1.232 . S
O1009 C1008 1.245 . S
O1010 Co1004 2.058 . S
O1010 C1036 1.269 . S
O1011 Co1003 2.074 . S
O1011 C1036 1.257 . S
H1012 C1037 0.930 . S
H1013 C1043 0.930 . S
O1014 Co1003 2.093 . S
O1014 C1006 1.224 . S
H1015 C1047 0.929 . S
H1016 C1049 0.930 . S
H1017 C1050 0.930 . S
H1018 C1048 0.929 . S
H1019 C1051 0.928 . S
O1020 Co1004 2.057 . S
O1020 C1008 1.232 . S
H1021 C1040 0.929 . S
H1022 C1041 0.929 . S
H1023 C1053 0.931 . S
H1024 C1045 0.929 . S
H1025 C1054 0.930 . S
H1026 C1046 0.931 . S
O1027 Co1003 2.097 . S
O1027 C1055 1.214 . S
H1028 C1056 0.929 . S
H1029 C1057 0.929 . S
H1030 C1058 0.930 . S
H1031 C1059 0.929 . S
H1032 C1061 0.930 . S
H1033 C1038 0.930 . S
H1034 C1042 0.930 . S
O1035 Co1004 2.037 . S
O1035 C1055 1.234 . S
C1036 O1010 1.269 . S
C1036 O1011 1.257 . S
C1037 H1012 0.930 . S
C1037 C1040 1.388 . S
C1037 C1042 1.418 . S
C1038 H1033 0.930 . S
C1038 C1041 1.404 . S
C1038 C1042 1.353 . S
N1039 Co1004 2.145 1_455 S
N1039 C1040 1.397 . S
N1039 C1041 1.334 . S
C1040 H1021 0.929 . S
C1040 C1037 1.388 . S
C1040 N1039 1.397 . S
C1041 H1022 0.929 . S
C1041 C1038 1.404 . S
C1041 N1039 1.334 . S
C1042 H1034 0.930 . S
C1042 C1037 1.418 . S
C1042 C1038 1.353 . S
C1043 H1013 0.930 . S
C1043 N1044 1.330 . S
C1043 C1045 1.446 . S
N1044 Co1003 2.151 . S
N1044 C1043 1.330 . S
N1044 C1048 1.418 . S
C1045 H1024 0.929 . S
C1045 C1043 1.446 . S
C1045 C1046 1.332 . S
C1046 H1026 0.931 . S
C1046 C1045 1.332 . S
C1046 C1047 1.267 . S
C1047 H1015 0.929 . S
C1047 C1046 1.267 . S
C1047 C1048 1.251 . S
C1048 H1018 0.929 . S
C1048 N1044 1.418 . S
C1048 C1047 1.251 . S
C1049 H1016 0.930 . S
C1049 C1051 1.406 . S
C1049 C1054 1.261 . S
C1050 H1017 0.930 . S
C1050 N1052 1.325 . S
C1050 C1053 1.357 . S
C1051 H1019 0.928 . S
C1051 C1049 1.406 . S
C1051 N1052 1.261 . S
N1052 Co1003 2.214 . S
N1052 C1050 1.325 . S
N1052 C1051 1.261 . S
C1053 H1023 0.931 . S
C1053 C1050 1.357 . S
C1053 C1054 1.312 . S
C1054 H1025 0.930 . S
C1054 C1049 1.261 . S
C1054 C1053 1.312 . S
C1055 O1027 1.214 . S
C1055 O1035 1.234 . S
C1056 H1028 0.929 . S
C1056 C1059 1.391 . S
C1056 C1061 1.391 . S
C1057 H1029 0.929 . S
C1057 C1058 1.390 . S
C1057 N1060 1.391 1_455 S
C1058 H1030 0.930 . S
C1058 C1057 1.390 . S
C1058 C1059 1.392 1_455 S
C1059 H1031 0.929 . S
C1059 C1056 1.391 . S
C1059 C1058 1.392 1_655 S
N1060 Co1004 2.257 . S
N1060 C1057 1.391 1_655 S
N1060 C1061 1.388 . S
C1061 H1032 0.930 . S
C1061 C1056 1.391 . S
C1061 N1060 1.388 . S
Co1062 O1064 2.143 . S
Co1062 O1070 2.074 . S
Co1062 O1073 2.093 . S
Co1062 O1086 2.097 . S
Co1062 N1103 2.151 . S
Co1062 N1111 2.214 . S
Co1063 O1064 2.160 . S
Co1063 O1069 2.058 . S
Co1063 O1079 2.057 . S
Co1063 O1094 2.037 . S
Co1063 N1098 2.145 1_455 S
Co1063 N1119 2.257 . S
O1064 Co1062 2.143 . S
O1064 Co1063 2.160 . S
C1065 O1066 1.278 . S
C1065 O1073 1.224 . S
O1066 C1065 1.278 . S
C1067 O1068 1.245 . S
C1067 O1079 1.232 . S
O1068 C1067 1.245 . S
O1069 Co1063 2.058 . S
O1069 C1095 1.269 . S
O1070 Co1062 2.074 . S
O1070 C1095 1.257 . S
H1071 C1096 0.930 . S
H1072 C1102 0.930 . S
O1073 Co1062 2.093 . S
O1073 C1065 1.224 . S
H1074 C1106 0.929 . S
H1075 C1108 0.930 . S
H1076 C1109 0.930 . S
H1077 C1107 0.929 . S
H1078 C1110 0.928 . S
O1079 Co1063 2.057 . S
O1079 C1067 1.232 . S
H1080 C1099 0.929 . S
H1081 C1100 0.929 . S
H1082 C1112 0.931 . S
H1083 C1104 0.929 . S
H1084 C1113 0.930 . S
H1085 C1105 0.931 . S
O1086 Co1062 2.097 . S
O1086 C1114 1.214 . S
H1087 C1115 0.929 . S
H1088 C1116 0.929 . S
H1089 C1117 0.930 . S
H1090 C1118 0.929 . S
H1091 C1120 0.930 . S
H1092 C1097 0.930 . S
H1093 C1101 0.930 . S
O1094 Co1063 2.037 . S
O1094 C1114 1.234 . S
C1095 O1069 1.269 . S
C1095 O1070 1.257 . S
C1096 H1071 0.930 . S
C1096 C1099 1.388 . S
C1096 C1101 1.418 . S
C1097 H1092 0.930 . S
C1097 C1100 1.404 . S
C1097 C1101 1.353 . S
N1098 Co1063 2.145 1_655 S
N1098 C1099 1.397 . S
N1098 C1100 1.334 . S
C1099 H1080 0.929 . S
C1099 C1096 1.388 . S
C1099 N1098 1.397 . S
C1100 H1081 0.929 . S
C1100 C1097 1.404 . S
C1100 N1098 1.334 . S
C1101 H1093 0.930 . S
C1101 C1096 1.418 . S
C1101 C1097 1.353 . S
C1102 H1072 0.930 . S
C1102 N1103 1.330 . S
C1102 C1104 1.446 . S
N1103 Co1062 2.151 . S
N1103 C1102 1.330 . S
N1103 C1107 1.418 . S
C1104 H1083 0.929 . S
C1104 C1102 1.446 . S
C1104 C1105 1.332 . S
C1105 H1085 0.931 . S
C1105 C1104 1.332 . S
C1105 C1106 1.267 . S
C1106 H1074 0.929 . S
C1106 C1105 1.267 . S
C1106 C1107 1.251 . S
C1107 H1077 0.929 . S
C1107 N1103 1.418 . S
C1107 C1106 1.251 . S
C1108 H1075 0.930 . S
C1108 C1110 1.406 . S
C1108 C1113 1.261 . S
C1109 H1076 0.930 . S
C1109 N1111 1.325 . S
C1109 C1112 1.357 . S
C1110 H1078 0.928 . S
C1110 C1108 1.406 . S
C1110 N1111 1.261 . S
N1111 Co1062 2.214 . S
N1111 C1109 1.325 . S
N1111 C1110 1.261 . S
C1112 H1082 0.931 . S
C1112 C1109 1.357 . S
C1112 C1113 1.312 . S
C1113 H1084 0.930 . S
C1113 C1108 1.261 . S
C1113 C1112 1.312 . S
C1114 O1086 1.214 . S
C1114 O1094 1.234 . S
C1115 H1087 0.929 . S
C1115 C1118 1.391 . S
C1115 C1120 1.391 . S
C1116 H1088 0.929 . S
C1116 C1117 1.390 . S
C1116 N1119 1.391 1_655 S
C1117 H1089 0.930 . S
C1117 C1116 1.390 . S
C1117 C1118 1.392 1_655 S
C1118 H1090 0.929 . S
C1118 C1115 1.391 . S
C1118 C1117 1.392 1_455 S
N1119 Co1063 2.257 . S
N1119 C1116 1.391 1_455 S
N1119 C1120 1.388 . S
C1120 H1091 0.930 . S
C1120 C1115 1.391 . S
C1120 N1119 1.388 . S
Co1121 O1123 2.143 . S
Co1121 O1129 2.074 . S
Co1121 O1132 2.093 . S
Co1121 O1145 2.097 . S
Co1121 N1162 2.151 . S
Co1121 N1170 2.214 . S
Co1122 O1123 2.160 . S
Co1122 O1128 2.058 . S
Co1122 O1138 2.057 . S
Co1122 O1153 2.037 . S
Co1122 N1157 2.145 1_545 S
Co1122 N1178 2.257 . S
O1123 Co1121 2.143 . S
O1123 Co1122 2.160 . S
C1124 O1125 1.278 . S
C1124 O1132 1.224 . S
O1125 C1124 1.278 . S
C1126 O1127 1.245 . S
C1126 O1138 1.232 . S
O1127 C1126 1.245 . S
O1128 Co1122 2.058 . S
O1128 C1154 1.269 . S
O1129 Co1121 2.074 . S
O1129 C1154 1.257 . S
H1130 C1155 0.930 . S
H1131 C1161 0.930 . S
O1132 Co1121 2.093 . S
O1132 C1124 1.224 . S
H1133 C1165 0.929 . S
H1134 C1167 0.930 . S
H1135 C1168 0.930 . S
H1136 C1166 0.929 . S
H1137 C1169 0.928 . S
O1138 Co1122 2.057 . S
O1138 C1126 1.232 . S
H1139 C1158 0.929 . S
H1140 C1159 0.929 . S
H1141 C1171 0.931 . S
H1142 C1163 0.929 . S
H1143 C1172 0.930 . S
H1144 C1164 0.931 . S
O1145 Co1121 2.097 . S
O1145 C1173 1.214 . S
H1146 C1174 0.929 . S
H1147 C1175 0.929 . S
H1148 C1176 0.930 . S
H1149 C1177 0.929 . S
H1150 C1179 0.930 . S
H1151 C1156 0.930 . S
H1152 C1160 0.930 . S
O1153 Co1122 2.037 . S
O1153 C1173 1.234 . S
C1154 O1128 1.269 . S
C1154 O1129 1.257 . S
C1155 H1130 0.930 . S
C1155 C1158 1.388 . S
C1155 C1160 1.418 . S
C1156 H1151 0.930 . S
C1156 C1159 1.404 . S
C1156 C1160 1.353 . S
N1157 Co1122 2.145 1_565 S
N1157 C1158 1.397 . S
N1157 C1159 1.334 . S
C1158 H1139 0.929 . S
C1158 C1155 1.388 . S
C1158 N1157 1.397 . S
C1159 H1140 0.929 . S
C1159 C1156 1.404 . S
C1159 N1157 1.334 . S
C1160 H1152 0.930 . S
C1160 C1155 1.418 . S
C1160 C1156 1.353 . S
C1161 H1131 0.930 . S
C1161 N1162 1.330 . S
C1161 C1163 1.446 . S
N1162 Co1121 2.151 . S
N1162 C1161 1.330 . S
N1162 C1166 1.418 . S
C1163 H1142 0.929 . S
C1163 C1161 1.446 . S
C1163 C1164 1.332 . S
C1164 H1144 0.931 . S
C1164 C1163 1.332 . S
C1164 C1165 1.267 . S
C1165 H1133 0.929 . S
C1165 C1164 1.267 . S
C1165 C1166 1.251 . S
C1166 H1136 0.929 . S
C1166 N1162 1.418 . S
C1166 C1165 1.251 . S
C1167 H1134 0.930 . S
C1167 C1169 1.406 . S
C1167 C1172 1.261 . S
C1168 H1135 0.930 . S
C1168 N1170 1.325 . S
C1168 C1171 1.357 . S
C1169 H1137 0.928 . S
C1169 C1167 1.406 . S
C1169 N1170 1.261 . S
N1170 Co1121 2.214 . S
N1170 C1168 1.325 . S
N1170 C1169 1.261 . S
C1171 H1141 0.931 . S
C1171 C1168 1.357 . S
C1171 C1172 1.312 . S
C1172 H1143 0.930 . S
C1172 C1167 1.261 . S
C1172 C1171 1.312 . S
C1173 O1145 1.214 . S
C1173 O1153 1.234 . S
C1174 H1146 0.929 . S
C1174 C1177 1.391 . S
C1174 C1179 1.391 . S
C1175 H1147 0.929 . S
C1175 C1176 1.390 . S
C1175 N1178 1.391 1_565 S
C1176 H1148 0.930 . S
C1176 C1175 1.390 . S
C1176 C1177 1.392 1_565 S
C1177 H1149 0.929 . S
C1177 C1174 1.391 . S
C1177 C1176 1.392 1_545 S
N1178 Co1122 2.257 . S
N1178 C1175 1.391 1_545 S
N1178 C1179 1.388 . S
C1179 H1150 0.930 . S
C1179 C1174 1.391 . S
C1179 N1178 1.388 . S
Co1180 O1182 2.143 . S
Co1180 O1188 2.074 . S
Co1180 O1191 2.093 . S
Co1180 O1204 2.097 . S
Co1180 N1221 2.151 . S
Co1180 N1229 2.214 . S
Co1181 O1182 2.160 . S
Co1181 O1187 2.058 . S
Co1181 O1197 2.057 . S
Co1181 O1212 2.037 . S
Co1181 N1216 2.145 . S
Co1181 N1237 2.257 . S
O1182 Co1180 2.143 . S
O1182 Co1181 2.160 . S
C1183 O1184 1.278 . S
C1183 O1191 1.224 . S
O1184 C1183 1.278 . S
C1185 O1186 1.245 . S
C1185 O1197 1.232 . S
O1186 C1185 1.245 . S
O1187 Co1181 2.058 . S
O1187 C1213 1.269 . S
O1188 Co1180 2.074 . S
O1188 C1213 1.257 . S
H1189 C1214 0.930 . S
H1190 C1220 0.930 . S
O1191 Co1180 2.093 . S
O1191 C1183 1.224 . S
H1192 C1224 0.929 . S
H1193 C1226 0.930 . S
H1194 C1227 0.930 . S
H1195 C1225 0.929 . S
H1196 C1228 0.928 . S
O1197 Co1181 2.057 . S
O1197 C1185 1.232 . S
H1198 C1217 0.929 . S
H1199 C1218 0.929 . S
H1200 C1230 0.931 . S
H1201 C1222 0.929 . S
H1202 C1231 0.930 . S
H1203 C1223 0.931 . S
O1204 Co1180 2.097 . S
O1204 C1232 1.214 . S
H1205 C1233 0.929 . S
H1206 C1234 0.929 . S
H1207 C1235 0.930 . S
H1208 C1236 0.929 . S
H1209 C1238 0.930 . S
H1210 C1215 0.930 . S
H1211 C1219 0.930 . S
O1212 Co1181 2.037 . S
O1212 C1232 1.234 . S
C1213 O1187 1.269 . S
C1213 O1188 1.257 . S
C1214 H1189 0.930 . S
C1214 C1217 1.388 . S
C1214 C1219 1.418 . S
C1215 H1210 0.930 . S
C1215 C1218 1.404 . S
C1215 C1219 1.353 . S
N1216 Co1181 2.145 . S
N1216 C1217 1.397 . S
N1216 C1218 1.334 . S
C1217 H1198 0.929 . S
C1217 C1214 1.388 . S
C1217 N1216 1.397 . S
C1218 H1199 0.929 . S
C1218 C1215 1.404 . S
C1218 N1216 1.334 . S
C1219 H1211 0.930 . S
C1219 C1214 1.418 . S
C1219 C1215 1.353 . S
C1220 H1190 0.930 . S
C1220 N1221 1.330 . S
C1220 C1222 1.446 . S
N1221 Co1180 2.151 . S
N1221 C1220 1.330 . S
N1221 C1225 1.418 . S
C1222 H1201 0.929 . S
C1222 C1220 1.446 . S
C1222 C1223 1.332 . S
C1223 H1203 0.931 . S
C1223 C1222 1.332 . S
C1223 C1224 1.267 . S
C1224 H1192 0.929 . S
C1224 C1223 1.267 . S
C1224 C1225 1.251 . S
C1225 H1195 0.929 . S
C1225 N1221 1.418 . S
C1225 C1224 1.251 . S
C1226 H1193 0.930 . S
C1226 C1228 1.406 . S
C1226 C1231 1.261 . S
C1227 H1194 0.930 . S
C1227 N1229 1.325 . S
C1227 C1230 1.357 . S
C1228 H1196 0.928 . S
C1228 C1226 1.406 . S
C1228 N1229 1.261 . S
N1229 Co1180 2.214 . S
N1229 C1227 1.325 . S
N1229 C1228 1.261 . S
C1230 H1200 0.931 . S
C1230 C1227 1.357 . S
C1230 C1231 1.312 . S
C1231 H1202 0.930 . S
C1231 C1226 1.261 . S
C1231 C1230 1.312 . S
C1232 O1204 1.214 . S
C1232 O1212 1.234 . S
C1233 H1205 0.929 . S
C1233 C1236 1.391 . S
C1233 C1238 1.391 . S
C1234 H1206 0.929 . S
C1234 C1235 1.390 . S
C1234 N1237 1.391 . S
C1235 H1207 0.930 . S
C1235 C1234 1.390 . S
C1235 C1236 1.392 . S
C1236 H1208 0.929 . S
C1236 C1233 1.391 . S
C1236 C1235 1.392 . S
N1237 Co1181 2.257 . S
N1237 C1234 1.391 . S
N1237 C1238 1.388 . S
C1238 H1209 0.930 . S
C1238 C1233 1.391 . S
C1238 N1237 1.388 . S
Co1239 O1241 2.143 . S
Co1239 O1247 2.074 . S
Co1239 O1250 2.093 . S
Co1239 O1263 2.097 . S
Co1239 N1280 2.151 . S
Co1239 N1288 2.214 . S
Co1240 O1241 2.160 . S
Co1240 O1246 2.058 . S
Co1240 O1256 2.057 . S
Co1240 O1271 2.037 . S
Co1240 N1275 2.145 1_655 S
Co1240 N1296 2.257 . S
O1241 Co1239 2.143 . S
O1241 Co1240 2.160 . S
C1242 O1243 1.278 . S
C1242 O1250 1.224 . S
O1243 C1242 1.278 . S
C1244 O1245 1.245 . S
C1244 O1256 1.232 . S
O1245 C1244 1.245 . S
O1246 Co1240 2.058 . S
O1246 C1272 1.269 . S
O1247 Co1239 2.074 . S
O1247 C1272 1.257 . S
H1248 C1273 0.930 . S
H1249 C1279 0.930 . S
O1250 Co1239 2.093 . S
O1250 C1242 1.224 . S
H1251 C1283 0.929 . S
H1252 C1285 0.930 . S
H1253 C1286 0.930 . S
H1254 C1284 0.929 . S
H1255 C1287 0.928 . S
O1256 Co1240 2.057 . S
O1256 C1244 1.232 . S
H1257 C1276 0.929 . S
H1258 C1277 0.929 . S
H1259 C1289 0.931 . S
H1260 C1281 0.929 . S
H1261 C1290 0.930 . S
H1262 C1282 0.931 . S
O1263 Co1239 2.097 . S
O1263 C1291 1.214 . S
H1264 C1292 0.929 . S
H1265 C1293 0.929 . S
H1266 C1294 0.930 . S
H1267 C1295 0.929 . S
H1268 C1297 0.930 . S
H1269 C1274 0.930 . S
H1270 C1278 0.930 . S
O1271 Co1240 2.037 . S
O1271 C1291 1.234 . S
C1272 O1246 1.269 . S
C1272 O1247 1.257 . S
C1273 H1248 0.930 . S
C1273 C1276 1.388 . S
C1273 C1278 1.418 . S
C1274 H1269 0.930 . S
C1274 C1277 1.404 . S
C1274 C1278 1.353 . S
N1275 Co1240 2.145 1_455 S
N1275 C1276 1.397 . S
N1275 C1277 1.334 . S
C1276 H1257 0.929 . S
C1276 C1273 1.388 . S
C1276 N1275 1.397 . S
C1277 H1258 0.929 . S
C1277 C1274 1.404 . S
C1277 N1275 1.334 . S
C1278 H1270 0.930 . S
C1278 C1273 1.418 . S
C1278 C1274 1.353 . S
C1279 H1249 0.930 . S
C1279 N1280 1.330 . S
C1279 C1281 1.446 . S
N1280 Co1239 2.151 . S
N1280 C1279 1.330 . S
N1280 C1284 1.418 . S
C1281 H1260 0.929 . S
C1281 C1279 1.446 . S
C1281 C1282 1.332 . S
C1282 H1262 0.931 . S
C1282 C1281 1.332 . S
C1282 C1283 1.267 . S
C1283 H1251 0.929 . S
C1283 C1282 1.267 . S
C1283 C1284 1.251 . S
C1284 H1254 0.929 . S
C1284 N1280 1.418 . S
C1284 C1283 1.251 . S
C1285 H1252 0.930 . S
C1285 C1287 1.406 . S
C1285 C1290 1.261 . S
C1286 H1253 0.930 . S
C1286 N1288 1.325 . S
C1286 C1289 1.357 . S
C1287 H1255 0.928 . S
C1287 C1285 1.406 . S
C1287 N1288 1.261 . S
N1288 Co1239 2.214 . S
N1288 C1286 1.325 . S
N1288 C1287 1.261 . S
C1289 H1259 0.931 . S
C1289 C1286 1.357 . S
C1289 C1290 1.312 . S
C1290 H1261 0.930 . S
C1290 C1285 1.261 . S
C1290 C1289 1.312 . S
C1291 O1263 1.214 . S
C1291 O1271 1.234 . S
C1292 H1264 0.929 . S
C1292 C1295 1.391 . S
C1292 C1297 1.391 . S
C1293 H1265 0.929 . S
C1293 C1294 1.390 . S
C1293 N1296 1.391 1_455 S
C1294 H1266 0.930 . S
C1294 C1293 1.390 . S
C1294 C1295 1.392 1_455 S
C1295 H1267 0.929 . S
C1295 C1292 1.391 . S
C1295 C1294 1.392 1_655 S
N1296 Co1240 2.257 . S
N1296 C1293 1.391 1_655 S
N1296 C1297 1.388 . S
C1297 H1268 0.930 . S
C1297 C1292 1.391 . S
C1297 N1296 1.388 . S
Co1298 O1300 2.143 . S
Co1298 O1306 2.074 . S
Co1298 O1309 2.093 . S
Co1298 O1322 2.097 . S
Co1298 N1339 2.151 . S
Co1298 N1347 2.214 . S
Co1299 O1300 2.160 . S
Co1299 O1305 2.058 . S
Co1299 O1315 2.057 . S
Co1299 O1330 2.037 . S
Co1299 N1334 2.145 1_565 S
Co1299 N1355 2.257 . S
O1300 Co1298 2.143 . S
O1300 Co1299 2.160 . S
C1301 O1302 1.278 . S
C1301 O1309 1.224 . S
O1302 C1301 1.278 . S
C1303 O1304 1.245 . S
C1303 O1315 1.232 . S
O1304 C1303 1.245 . S
O1305 Co1299 2.058 . S
O1305 C1331 1.269 . S
O1306 Co1298 2.074 . S
O1306 C1331 1.257 . S
H1307 C1332 0.930 . S
H1308 C1338 0.930 . S
O1309 Co1298 2.093 . S
O1309 C1301 1.224 . S
H1310 C1342 0.929 . S
H1311 C1344 0.930 . S
H1312 C1345 0.930 . S
H1313 C1343 0.929 . S
H1314 C1346 0.928 . S
O1315 Co1299 2.057 . S
O1315 C1303 1.232 . S
H1316 C1335 0.929 . S
H1317 C1336 0.929 . S
H1318 C1348 0.931 . S
H1319 C1340 0.929 . S
H1320 C1349 0.930 . S
H1321 C1341 0.931 . S
O1322 Co1298 2.097 . S
O1322 C1350 1.214 . S
H1323 C1351 0.929 . S
H1324 C1352 0.929 . S
H1325 C1353 0.930 . S
H1326 C1354 0.929 . S
H1327 C1356 0.930 . S
H1328 C1333 0.930 . S
H1329 C1337 0.930 . S
O1330 Co1299 2.037 . S
O1330 C1350 1.234 . S
C1331 O1305 1.269 . S
C1331 O1306 1.257 . S
C1332 H1307 0.930 . S
C1332 C1335 1.388 . S
C1332 C1337 1.418 . S
C1333 H1328 0.930 . S
C1333 C1336 1.404 . S
C1333 C1337 1.353 . S
N1334 Co1299 2.145 1_545 S
N1334 C1335 1.397 . S
N1334 C1336 1.334 . S
C1335 H1316 0.929 . S
C1335 C1332 1.388 . S
C1335 N1334 1.397 . S
C1336 H1317 0.929 . S
C1336 C1333 1.404 . S
C1336 N1334 1.334 . S
C1337 H1329 0.930 . S
C1337 C1332 1.418 . S
C1337 C1333 1.353 . S
C1338 H1308 0.930 . S
C1338 N1339 1.330 . S
C1338 C1340 1.446 . S
N1339 Co1298 2.151 . S
N1339 C1338 1.330 . S
N1339 C1343 1.418 . S
C1340 H1319 0.929 . S
C1340 C1338 1.446 . S
C1340 C1341 1.332 . S
C1341 H1321 0.931 . S
C1341 C1340 1.332 . S
C1341 C1342 1.267 . S
C1342 H1310 0.929 . S
C1342 C1341 1.267 . S
C1342 C1343 1.251 . S
C1343 H1313 0.929 . S
C1343 N1339 1.418 . S
C1343 C1342 1.251 . S
C1344 H1311 0.930 . S
C1344 C1346 1.406 . S
C1344 C1349 1.261 . S
C1345 H1312 0.930 . S
C1345 N1347 1.325 . S
C1345 C1348 1.357 . S
C1346 H1314 0.928 . S
C1346 C1344 1.406 . S
C1346 N1347 1.261 . S
N1347 Co1298 2.214 . S
N1347 C1345 1.325 . S
N1347 C1346 1.261 . S
C1348 H1318 0.931 . S
C1348 C1345 1.357 . S
C1348 C1349 1.312 . S
C1349 H1320 0.930 . S
C1349 C1344 1.261 . S
C1349 C1348 1.312 . S
C1350 O1322 1.214 . S
C1350 O1330 1.234 . S
C1351 H1323 0.929 . S
C1351 C1354 1.391 . S
C1351 C1356 1.391 . S
C1352 H1324 0.929 . S
C1352 C1353 1.390 . S
C1352 N1355 1.391 1_545 S
C1353 H1325 0.930 . S
C1353 C1352 1.390 . S
C1353 C1354 1.392 1_545 S
C1354 H1326 0.929 . S
C1354 C1351 1.391 . S
C1354 C1353 1.392 1_565 S
N1355 Co1299 2.257 . S
N1355 C1352 1.391 1_565 S
N1355 C1356 1.388 . S
C1356 H1327 0.930 . S
C1356 C1351 1.391 . S
C1356 N1355 1.388 . S
Co1357 O1359 2.143 . S
Co1357 O1365 2.074 . S
Co1357 O1368 2.093 . S
Co1357 O1381 2.097 . S
Co1357 N1398 2.151 . S
Co1357 N1406 2.214 . S
Co1358 O1359 2.160 . S
Co1358 O1364 2.058 . S
Co1358 O1374 2.057 . S
Co1358 O1389 2.037 . S
Co1358 N1393 2.145 . S
Co1358 N1414 2.257 . S
O1359 Co1357 2.143 . S
O1359 Co1358 2.160 . S
C1360 O1361 1.278 . S
C1360 O1368 1.224 . S
O1361 C1360 1.278 . S
C1362 O1363 1.245 . S
C1362 O1374 1.232 . S
O1363 C1362 1.245 . S
O1364 Co1358 2.058 . S
O1364 C1390 1.269 . S
O1365 Co1357 2.074 . S
O1365 C1390 1.257 . S
H1366 C1391 0.930 . S
H1367 C1397 0.930 . S
O1368 Co1357 2.093 . S
O1368 C1360 1.224 . S
H1369 C1401 0.929 . S
H1370 C1403 0.930 . S
H1371 C1404 0.930 . S
H1372 C1402 0.929 . S
H1373 C1405 0.928 . S
O1374 Co1358 2.057 . S
O1374 C1362 1.232 . S
H1375 C1394 0.929 . S
H1376 C1395 0.929 . S
H1377 C1407 0.931 . S
H1378 C1399 0.929 . S
H1379 C1408 0.930 . S
H1380 C1400 0.931 . S
O1381 Co1357 2.097 . S
O1381 C1409 1.214 . S
H1382 C1410 0.929 . S
H1383 C1411 0.929 . S
H1384 C1412 0.930 . S
H1385 C1413 0.929 . S
H1386 C1415 0.930 . S
H1387 C1392 0.930 . S
H1388 C1396 0.930 . S
O1389 Co1358 2.037 . S
O1389 C1409 1.234 . S
C1390 O1364 1.269 . S
C1390 O1365 1.257 . S
C1391 H1366 0.930 . S
C1391 C1394 1.388 . S
C1391 C1396 1.418 . S
C1392 H1387 0.930 . S
C1392 C1395 1.404 . S
C1392 C1396 1.353 . S
N1393 Co1358 2.145 . S
N1393 C1394 1.397 . S
N1393 C1395 1.334 . S
C1394 H1375 0.929 . S
C1394 C1391 1.388 . S
C1394 N1393 1.397 . S
C1395 H1376 0.929 . S
C1395 C1392 1.404 . S
C1395 N1393 1.334 . S
C1396 H1388 0.930 . S
C1396 C1391 1.418 . S
C1396 C1392 1.353 . S
C1397 H1367 0.930 . S
C1397 N1398 1.330 . S
C1397 C1399 1.446 . S
N1398 Co1357 2.151 . S
N1398 C1397 1.330 . S
N1398 C1402 1.418 . S
C1399 H1378 0.929 . S
C1399 C1397 1.446 . S
C1399 C1400 1.332 . S
C1400 H1380 0.931 . S
C1400 C1399 1.332 . S
C1400 C1401 1.267 . S
C1401 H1369 0.929 . S
C1401 C1400 1.267 . S
C1401 C1402 1.251 . S
C1402 H1372 0.929 . S
C1402 N1398 1.418 . S
C1402 C1401 1.251 . S
C1403 H1370 0.930 . S
C1403 C1405 1.406 . S
C1403 C1408 1.261 . S
C1404 H1371 0.930 . S
C1404 N1406 1.325 . S
C1404 C1407 1.357 . S
C1405 H1373 0.928 . S
C1405 C1403 1.406 . S
C1405 N1406 1.261 . S
N1406 Co1357 2.214 . S
N1406 C1404 1.325 . S
N1406 C1405 1.261 . S
C1407 H1377 0.931 . S
C1407 C1404 1.357 . S
C1407 C1408 1.312 . S
C1408 H1379 0.930 . S
C1408 C1403 1.261 . S
C1408 C1407 1.312 . S
C1409 O1381 1.214 . S
C1409 O1389 1.234 . S
C1410 H1382 0.929 . S
C1410 C1413 1.391 . S
C1410 C1415 1.391 . S
C1411 H1383 0.929 . S
C1411 C1412 1.390 . S
C1411 N1414 1.391 . S
C1412 H1384 0.930 . S
C1412 C1411 1.390 . S
C1412 C1413 1.392 . S
C1413 H1385 0.929 . S
C1413 C1410 1.391 . S
C1413 C1412 1.392 . S
N1414 Co1358 2.257 . S
N1414 C1411 1.391 . S
N1414 C1415 1.388 . S
C1415 H1386 0.930 . S
C1415 C1410 1.391 . S
C1415 N1414 1.388 . S
H1416 C1424 0.950 . S
H1417 C1429 0.920 1_565 S
H1418 C1426 0.950 . S
H1419 C1428 0.941 1_565 S
H1420 C1430 0.906 1_565 S
H1421 C1432 0.907 1_565 S
H1422 C1434 0.950 . S
H1423 C1435 0.950 . S
C1424 H1416 0.950 . S
C1424 C1425 1.386 . S
C1424 C1426 1.391 . S
C1425 C1424 1.386 . S
C1425 C1429 1.393 . S
C1426 H1418 0.950 . S
C1426 C1424 1.391 . S
C1426 C1427 1.400 . S
C1427 C1426 1.400 . S
C1427 C1428 1.398 . S
C1427 C1433 1.491 . S
C1428 H1419 0.941 1_545 S
C1428 C1427 1.398 . S
C1428 C1429 1.391 . S
C1429 H1417 0.920 1_545 S
C1429 C1425 1.393 . S
C1429 C1428 1.391 . S
C1430 H1420 0.906 1_545 S
C1430 C1431 1.386 . S
C1430 C1432 1.391 . S
C1431 C1430 1.386 . S
C1431 C1435 1.393 . S
C1432 H1421 0.907 1_545 S
C1432 C1430 1.391 . S
C1432 C1433 1.400 . S
C1433 C1427 1.491 . S
C1433 C1432 1.400 . S
C1433 C1434 1.398 . S
C1434 H1422 0.950 . S
C1434 C1433 1.398 . S
C1434 C1435 1.391 . S
C1435 H1423 0.950 . S
C1435 C1431 1.393 . S
C1435 C1434 1.391 . S
H1436 C1444 0.950 . S
H1437 C1449 0.950 . S
H1438 C1446 0.950 . S
H1439 C1448 0.950 . S
H1440 C1450 0.950 . S
H1441 C1452 0.950 . S
H1442 C1454 0.950 . S
H1443 C1455 0.950 . S
C1444 H1436 0.950 . S
C1444 C1445 1.386 . S
C1444 C1446 1.391 . S
C1445 C1444 1.386 . S
C1445 C1449 1.393 . S
C1446 H1438 0.950 . S
C1446 C1444 1.391 . S
C1446 C1447 1.400 . S
C1447 C1446 1.400 . S
C1447 C1448 1.398 . S
C1447 C1453 1.491 . S
C1448 H1439 0.950 . S
C1448 C1447 1.398 . S
C1448 C1449 1.391 . S
C1449 H1437 0.950 . S
C1449 C1445 1.393 . S
C1449 C1448 1.391 . S
C1450 H1440 0.950 . S
C1450 C1451 1.386 . S
C1450 C1452 1.391 . S
C1451 C1450 1.386 . S
C1451 C1455 1.393 . S
C1452 H1441 0.950 . S
C1452 C1450 1.391 . S
C1452 C1453 1.400 . S
C1453 C1447 1.491 . S
C1453 C1452 1.400 . S
C1453 C1454 1.398 . S
C1454 H1442 0.950 . S
C1454 C1453 1.398 . S
C1454 C1455 1.391 . S
C1455 H1443 0.950 . S
C1455 C1451 1.393 . S
C1455 C1454 1.391 . S
H1456 C1464 0.950 . S
H1457 C1469 0.950 . S
H1458 C1466 0.950 . S
H1459 C1468 0.950 . S
H1460 C1470 0.950 . S
H1461 C1472 0.950 . S
H1462 C1474 0.950 . S
H1463 C1475 0.950 . S
C1464 H1456 0.950 . S
C1464 C1465 1.386 . S
C1464 C1466 1.391 . S
C1465 C1464 1.386 . S
C1465 C1469 1.393 . S
C1466 H1458 0.950 . S
C1466 C1464 1.391 . S
C1466 C1467 1.400 . S
C1467 C1466 1.400 . S
C1467 C1468 1.398 . S
C1467 C1473 1.491 . S
C1468 H1459 0.950 . S
C1468 C1467 1.398 . S
C1468 C1469 1.391 . S
C1469 H1457 0.950 . S
C1469 C1465 1.393 . S
C1469 C1468 1.391 . S
C1470 H1460 0.950 . S
C1470 C1471 1.386 . S
C1470 C1472 1.391 . S
C1471 C1470 1.386 . S
C1471 C1475 1.393 . S
C1472 H1461 0.950 . S
C1472 C1470 1.391 . S
C1472 C1473 1.400 . S
C1473 C1467 1.491 . S
C1473 C1472 1.400 . S
C1473 C1474 1.398 . S
C1474 H1462 0.950 . S
C1474 C1473 1.398 . S
C1474 C1475 1.391 . S
C1475 H1463 0.950 . S
C1475 C1471 1.393 . S
C1475 C1474 1.391 . S
H1476 C1484 0.950 . S
H1477 C1489 0.950 . S
H1478 C1486 0.950 . S
H1479 C1488 0.950 . S
H1480 C1490 0.950 . S
H1481 C1492 0.950 . S
H1482 C1494 0.950 . S
H1483 C1495 0.950 . S
C1484 H1476 0.950 . S
C1484 C1485 1.386 . S
C1484 C1486 1.391 . S
C1485 C1484 1.386 . S
C1485 C1489 1.393 . S
C1486 H1478 0.950 . S
C1486 C1484 1.391 . S
C1486 C1487 1.400 . S
C1487 C1486 1.400 . S
C1487 C1488 1.398 . S
C1487 C1493 1.491 . S
C1488 H1479 0.950 . S
C1488 C1487 1.398 . S
C1488 C1489 1.391 . S
C1489 H1477 0.950 . S
C1489 C1485 1.393 . S
C1489 C1488 1.391 . S
C1490 H1480 0.950 . S
C1490 C1491 1.386 . S
C1490 C1492 1.391 . S
C1491 C1490 1.386 . S
C1491 C1495 1.393 . S
C1492 H1481 0.950 . S
C1492 C1490 1.391 . S
C1492 C1493 1.400 . S
C1493 C1487 1.491 . S
C1493 C1492 1.400 . S
C1493 C1494 1.398 . S
C1494 H1482 0.950 . S
C1494 C1493 1.398 . S
C1494 C1495 1.391 . S
C1495 H1483 0.950 . S
C1495 C1491 1.393 . S
C1495 C1494 1.391 . S
H1496 C1504 0.950 . S
H1497 C1509 0.950 . S
H1498 C1506 0.950 . S
H1499 C1508 0.950 . S
H1500 C1510 0.950 . S
H1501 C1512 0.950 . S
H1502 C1514 0.950 . S
H1503 C1515 0.950 . S
C1504 H1496 0.950 . S
C1504 C1505 1.386 . S
C1504 C1506 1.391 . S
C1505 C1504 1.386 . S
C1505 C1509 1.393 . S
C1506 H1498 0.950 . S
C1506 C1504 1.391 . S
C1506 C1507 1.400 . S
C1507 C1506 1.400 . S
C1507 C1508 1.398 . S
C1507 C1513 1.491 . S
C1508 H1499 0.950 . S
C1508 C1507 1.398 . S
C1508 C1509 1.391 . S
C1509 H1497 0.950 . S
C1509 C1505 1.393 . S
C1509 C1508 1.391 . S
C1510 H1500 0.950 . S
C1510 C1511 1.386 . S
C1510 C1512 1.391 . S
C1511 C1510 1.386 . S
C1511 C1515 1.393 . S
C1512 H1501 0.950 . S
C1512 C1510 1.391 . S
C1512 C1513 1.400 . S
C1513 C1507 1.491 . S
C1513 C1512 1.400 . S
C1513 C1514 1.398 . S
C1514 H1502 0.950 . S
C1514 C1513 1.398 . S
C1514 C1515 1.391 . S
C1515 H1503 0.950 . S
C1515 C1511 1.393 . S
C1515 C1514 1.391 . S
H1516 C1524 0.950 . S
H1517 C1529 0.936 1_655 S
H1518 C1526 0.950 . S
H1519 C1528 0.948 . S
H1520 C1530 0.918 1_655 S
H1521 C1532 0.920 1_655 S
H1522 C1534 0.950 . S
H1523 C1535 0.950 . S
C1524 H1516 0.950 . S
C1524 C1525 1.386 . S
C1524 C1526 1.391 . S
C1525 C1524 1.386 . S
C1525 C1529 1.393 . S
C1526 H1518 0.950 . S
C1526 C1524 1.391 . S
C1526 C1527 1.400 . S
C1527 C1526 1.400 . S
C1527 C1528 1.398 . S
C1527 C1533 1.491 . S
C1528 H1519 0.948 . S
C1528 C1527 1.398 . S
C1528 C1529 1.391 . S
C1529 H1517 0.936 1_455 S
C1529 C1525 1.393 . S
C1529 C1528 1.391 . S
C1530 H1520 0.918 1_455 S
C1530 C1531 1.386 . S
C1530 C1532 1.391 . S
C1531 C1530 1.386 . S
C1531 C1535 1.393 . S
C1532 H1521 0.920 1_455 S
C1532 C1530 1.391 . S
C1532 C1533 1.400 . S
C1533 C1527 1.491 . S
C1533 C1532 1.400 . S
C1533 C1534 1.398 . S
C1534 H1522 0.950 . S
C1534 C1533 1.398 . S
C1534 C1535 1.391 . S
C1535 H1523 0.950 . S
C1535 C1531 1.393 . S
C1535 C1534 1.391 . S
H1536 C1544 0.950 . S
H1537 C1549 0.950 . S
H1538 C1546 0.950 . S
H1539 C1548 0.950 . S
H1540 C1550 0.950 . S
H1541 C1552 0.950 . S
H1542 C1554 0.950 . S
H1543 C1555 0.950 . S
C1544 H1536 0.950 . S
C1544 C1545 1.386 . S
C1544 C1546 1.391 . S
C1545 C1544 1.386 . S
C1545 C1549 1.393 . S
C1546 H1538 0.950 . S
C1546 C1544 1.391 . S
C1546 C1547 1.400 . S
C1547 C1546 1.400 . S
C1547 C1548 1.398 . S
C1547 C1553 1.491 . S
C1548 H1539 0.950 . S
C1548 C1547 1.398 . S
C1548 C1549 1.391 . S
C1549 H1537 0.950 . S
C1549 C1545 1.393 . S
C1549 C1548 1.391 . S
C1550 H1540 0.950 . S
C1550 C1551 1.386 . S
C1550 C1552 1.391 . S
C1551 C1550 1.386 . S
C1551 C1555 1.393 . S
C1552 H1541 0.950 . S
C1552 C1550 1.391 . S
C1552 C1553 1.400 . S
C1553 C1547 1.491 . S
C1553 C1552 1.400 . S
C1553 C1554 1.398 . S
C1554 H1542 0.950 . S
C1554 C1553 1.398 . S
C1554 C1555 1.391 . S
C1555 H1543 0.950 . S
C1555 C1551 1.393 . S
C1555 C1554 1.391 . S
H1556 C1564 0.950 . S
H1557 C1569 0.950 . S
H1558 C1566 0.950 . S
H1559 C1568 0.950 . S
H1560 C1570 0.950 . S
H1561 C1572 0.950 . S
H1562 C1574 0.950 . S
H1563 C1575 0.950 . S
C1564 H1556 0.950 . S
C1564 C1565 1.386 . S
C1564 C1566 1.391 . S
C1565 C1564 1.386 . S
C1565 C1569 1.393 . S
C1566 H1558 0.950 . S
C1566 C1564 1.391 . S
C1566 C1567 1.400 . S
C1567 C1566 1.400 . S
C1567 C1568 1.398 . S
C1567 C1573 1.491 . S
C1568 H1559 0.950 . S
C1568 C1567 1.398 . S
C1568 C1569 1.391 . S
C1569 H1557 0.950 . S
C1569 C1565 1.393 . S
C1569 C1568 1.391 . S
C1570 H1560 0.950 . S
C1570 C1571 1.386 . S
C1570 C1572 1.391 . S
C1571 C1570 1.386 . S
C1571 C1575 1.393 . S
C1572 H1561 0.950 . S
C1572 C1570 1.391 . S
C1572 C1573 1.400 . S
C1573 C1567 1.491 . S
C1573 C1572 1.400 . S
C1573 C1574 1.398 . S
C1574 H1562 0.950 . S
C1574 C1573 1.398 . S
C1574 C1575 1.391 . S
C1575 H1563 0.950 . S
C1575 C1571 1.393 . S
C1575 C1574 1.391 . S
H1576 C1584 0.950 . S
H1577 C1589 0.950 . S
H1578 C1586 0.950 . S
H1579 C1588 0.950 . S
H1580 C1590 0.950 . S
H1581 C1592 0.950 . S
H1582 C1594 0.950 . S
H1583 C1595 0.950 . S
C1584 H1576 0.950 . S
C1584 C1585 1.386 . S
C1584 C1586 1.391 . S
C1585 C1584 1.386 . S
C1585 C1589 1.393 . S
C1586 H1578 0.950 . S
C1586 C1584 1.391 . S
C1586 C1587 1.400 . S
C1587 C1586 1.400 . S
C1587 C1588 1.398 . S
C1587 C1593 1.491 . S
C1588 H1579 0.950 . S
C1588 C1587 1.398 . S
C1588 C1589 1.391 . S
C1589 H1577 0.950 . S
C1589 C1585 1.393 . S
C1589 C1588 1.391 . S
C1590 H1580 0.950 . S
C1590 C1591 1.386 . S
C1590 C1592 1.391 . S
C1591 C1590 1.386 . S
C1591 C1595 1.393 . S
C1592 H1581 0.950 . S
C1592 C1590 1.391 . S
C1592 C1593 1.400 . S
C1593 C1587 1.491 . S
C1593 C1592 1.400 . S
C1593 C1594 1.398 . S
C1594 H1582 0.950 . S
C1594 C1593 1.398 . S
C1594 C1595 1.391 . S
C1595 H1583 0.950 . S
C1595 C1591 1.393 . S
C1595 C1594 1.391 . S
H1596 C1604 0.950 . S
H1597 C1609 0.950 . S
H1598 C1606 0.950 . S
H1599 C1608 0.950 . S
H1600 C1610 0.950 . S
H1601 C1612 0.950 . S
H1602 C1614 0.950 . S
H1603 C1615 0.950 . S
C1604 H1596 0.950 . S
C1604 C1605 1.386 . S
C1604 C1606 1.391 . S
C1605 C1604 1.386 . S
C1605 C1609 1.393 . S
C1606 H1598 0.950 . S
C1606 C1604 1.391 . S
C1606 C1607 1.400 . S
C1607 C1606 1.400 . S
C1607 C1608 1.398 . S
C1607 C1613 1.491 . S
C1608 H1599 0.950 . S
C1608 C1607 1.398 . S
C1608 C1609 1.391 . S
C1609 H1597 0.950 . S
C1609 C1605 1.393 . S
C1609 C1608 1.391 . S
C1610 H1600 0.950 . S
C1610 C1611 1.386 . S
C1610 C1612 1.391 . S
C1611 C1610 1.386 . S
C1611 C1615 1.393 . S
C1612 H1601 0.950 . S
C1612 C1610 1.391 . S
C1612 C1613 1.400 . S
C1613 C1607 1.491 . S
C1613 C1612 1.400 . S
C1613 C1614 1.398 . S
C1614 H1602 0.950 . S
C1614 C1613 1.398 . S
C1614 C1615 1.391 . S
C1615 H1603 0.950 . S
C1615 C1611 1.393 . S
C1615 C1614 1.391 . S
H1616 C1624 0.950 . S
H1617 C1629 0.950 . S
H1618 C1626 0.950 . S
H1619 C1628 0.950 . S
H1620 C1630 0.950 . S
H1621 C1632 0.950 . S
H1622 C1634 0.950 . S
H1623 C1635 0.950 . S
C1624 H1616 0.950 . S
C1624 C1625 1.386 . S
C1624 C1626 1.391 . S
C1625 C1624 1.386 . S
C1625 C1629 1.393 . S
C1626 H1618 0.950 . S
C1626 C1624 1.391 . S
C1626 C1627 1.400 . S
C1627 C1626 1.400 . S
C1627 C1628 1.398 . S
C1627 C1633 1.491 . S
C1628 H1619 0.950 . S
C1628 C1627 1.398 . S
C1628 C1629 1.391 . S
C1629 H1617 0.950 . S
C1629 C1625 1.393 . S
C1629 C1628 1.391 . S
C1630 H1620 0.950 . S
C1630 C1631 1.386 . S
C1630 C1632 1.391 . S
C1631 C1630 1.386 . S
C1631 C1635 1.393 . S
C1632 H1621 0.950 . S
C1632 C1630 1.391 . S
C1632 C1633 1.400 . S
C1633 C1627 1.491 . S
C1633 C1632 1.400 . S
C1633 C1634 1.398 . S
C1634 H1622 0.950 . S
C1634 C1633 1.398 . S
C1634 C1635 1.391 . S
C1635 H1623 0.950 . S
C1635 C1631 1.393 . S
C1635 C1634 1.391 . S
H1636 C1644 0.950 . S
H1637 C1649 0.950 . S
H1638 C1646 0.950 . S
H1639 C1648 0.950 . S
H1640 C1650 0.950 . S
H1641 C1652 0.950 . S
H1642 C1654 0.950 . S
H1643 C1655 0.950 . S
C1644 H1636 0.950 . S
C1644 C1645 1.386 . S
C1644 C1646 1.391 . S
C1645 C1644 1.386 . S
C1645 C1649 1.393 . S
C1646 H1638 0.950 . S
C1646 C1644 1.391 . S
C1646 C1647 1.400 . S
C1647 C1646 1.400 . S
C1647 C1648 1.398 . S
C1647 C1653 1.491 . S
C1648 H1639 0.950 . S
C1648 C1647 1.398 . S
C1648 C1649 1.391 . S
C1649 H1637 0.950 . S
C1649 C1645 1.393 . S
C1649 C1648 1.391 . S
C1650 H1640 0.950 . S
C1650 C1651 1.386 . S
C1650 C1652 1.391 . S
C1651 C1650 1.386 . S
C1651 C1655 1.393 . S
C1652 H1641 0.950 . S
C1652 C1650 1.391 . S
C1652 C1653 1.400 . S
C1653 C1647 1.491 . S
C1653 C1652 1.400 . S
C1653 C1654 1.398 . S
C1654 H1642 0.950 . S
C1654 C1653 1.398 . S
C1654 C1655 1.391 . S
C1655 H1643 0.950 . S
C1655 C1651 1.393 . S
C1655 C1654 1.391 . S
H1656 C1664 0.950 . S
H1657 C1669 0.950 . S
H1658 C1666 0.950 . S
H1659 C1668 0.950 . S
H1660 C1670 0.950 . S
H1661 C1672 0.950 . S
H1662 C1674 0.950 . S
H1663 C1675 0.950 . S
C1664 H1656 0.950 . S
C1664 C1665 1.386 . S
C1664 C1666 1.391 . S
C1665 C1664 1.386 . S
C1665 C1669 1.393 . S
C1666 H1658 0.950 . S
C1666 C1664 1.391 . S
C1666 C1667 1.400 . S
C1667 C1666 1.400 . S
C1667 C1668 1.398 . S
C1667 C1673 1.491 . S
C1668 H1659 0.950 . S
C1668 C1667 1.398 . S
C1668 C1669 1.391 . S
C1669 H1657 0.950 . S
C1669 C1665 1.393 . S
C1669 C1668 1.391 . S
C1670 H1660 0.950 . S
C1670 C1671 1.386 . S
C1670 C1672 1.391 . S
C1671 C1670 1.386 . S
C1671 C1675 1.393 . S
C1672 H1661 0.950 . S
C1672 C1670 1.391 . S
C1672 C1673 1.400 . S
C1673 C1667 1.491 . S
C1673 C1672 1.400 . S
C1673 C1674 1.398 . S
C1674 H1662 0.950 . S
C1674 C1673 1.398 . S
C1674 C1675 1.391 . S
C1675 H1663 0.950 . S
C1675 C1671 1.393 . S
C1675 C1674 1.391 . S
H1676 C1684 0.950 . S
H1677 C1689 0.950 . S
H1678 C1686 0.950 . S
H1679 C1688 0.950 . S
H1680 C1690 0.950 . S
H1681 C1692 0.950 . S
H1682 C1694 0.950 . S
H1683 C1695 0.950 . S
C1684 H1676 0.950 . S
C1684 C1685 1.386 . S
C1684 C1686 1.391 . S
C1685 C1684 1.386 . S
C1685 C1689 1.393 . S
C1686 H1678 0.950 . S
C1686 C1684 1.391 . S
C1686 C1687 1.400 . S
C1687 C1686 1.400 . S
C1687 C1688 1.398 . S
C1687 C1693 1.491 . S
C1688 H1679 0.950 . S
C1688 C1687 1.398 . S
C1688 C1689 1.391 . S
C1689 H1677 0.950 . S
C1689 C1685 1.393 . S
C1689 C1688 1.391 . S
C1690 H1680 0.950 . S
C1690 C1691 1.386 . S
C1690 C1692 1.391 . S
C1691 C1690 1.386 . S
C1691 C1695 1.393 . S
C1692 H1681 0.950 . S
C1692 C1690 1.391 . S
C1692 C1693 1.400 . S
C1693 C1687 1.491 . S
C1693 C1692 1.400 . S
C1693 C1694 1.398 . S
C1694 H1682 0.950 . S
C1694 C1693 1.398 . S
C1694 C1695 1.391 . S
C1695 H1683 0.950 . S
C1695 C1691 1.393 . S
C1695 C1694 1.391 . S
H1696 C1704 0.950 . S
H1697 C1709 0.950 . S
H1698 C1706 0.950 . S
H1699 C1708 0.950 . S
H1700 C1710 0.950 . S
H1701 C1712 0.950 . S
H1702 C1714 0.950 . S
H1703 C1715 0.950 . S
C1704 H1696 0.950 . S
C1704 C1705 1.386 . S
C1704 C1706 1.391 . S
C1705 C1704 1.386 . S
C1705 C1709 1.393 . S
C1706 H1698 0.950 . S
C1706 C1704 1.391 . S
C1706 C1707 1.400 . S
C1707 C1706 1.400 . S
C1707 C1708 1.398 . S
C1707 C1713 1.491 . S
C1708 H1699 0.950 . S
C1708 C1707 1.398 . S
C1708 C1709 1.391 . S
C1709 H1697 0.950 . S
C1709 C1705 1.393 . S
C1709 C1708 1.391 . S
C1710 H1700 0.950 . S
C1710 C1711 1.386 . S
C1710 C1712 1.391 . S
C1711 C1710 1.386 . S
C1711 C1715 1.393 . S
C1712 H1701 0.950 . S
C1712 C1710 1.391 . S
C1712 C1713 1.400 . S
C1713 C1707 1.491 . S
C1713 C1712 1.400 . S
C1713 C1714 1.398 . S
C1714 H1702 0.950 . S
C1714 C1713 1.398 . S
C1714 C1715 1.391 . S
C1715 H1703 0.950 . S
C1715 C1711 1.393 . S
C1715 C1714 1.391 . S
H1716 C1724 0.950 . S
H1717 C1729 0.950 . S
H1718 C1726 0.950 . S
H1719 C1728 0.950 . S
H1720 C1730 0.950 . S
H1721 C1732 0.950 . S
H1722 C1734 0.950 . S
H1723 C1735 0.950 . S
C1724 H1716 0.950 . S
C1724 C1725 1.386 . S
C1724 C1726 1.391 . S
C1725 C1724 1.386 . S
C1725 C1729 1.393 . S
C1726 H1718 0.950 . S
C1726 C1724 1.391 . S
C1726 C1727 1.400 . S
C1727 C1726 1.400 . S
C1727 C1728 1.398 . S
C1727 C1733 1.491 . S
C1728 H1719 0.950 . S
C1728 C1727 1.398 . S
C1728 C1729 1.391 . S
C1729 H1717 0.950 . S
C1729 C1725 1.393 . S
C1729 C1728 1.391 . S
C1730 H1720 0.950 . S
C1730 C1731 1.386 . S
C1730 C1732 1.391 . S
C1731 C1730 1.386 . S
C1731 C1735 1.393 . S
C1732 H1721 0.950 . S
C1732 C1730 1.391 . S
C1732 C1733 1.400 . S
C1733 C1727 1.491 . S
C1733 C1732 1.400 . S
C1733 C1734 1.398 . S
C1734 H1722 0.950 . S
C1734 C1733 1.398 . S
C1734 C1735 1.391 . S
C1735 H1723 0.950 . S
C1735 C1731 1.393 . S
C1735 C1734 1.391 . S
H1736 C1744 0.950 . S
H1737 C1749 0.950 . S
H1738 C1746 0.950 . S
H1739 C1748 0.950 . S
H1740 C1750 0.950 . S
H1741 C1752 0.950 . S
H1742 C1754 0.950 . S
H1743 C1755 0.950 . S
C1744 H1736 0.950 . S
C1744 C1745 1.386 . S
C1744 C1746 1.391 . S
C1745 C1744 1.386 . S
C1745 C1749 1.393 . S
C1746 H1738 0.950 . S
C1746 C1744 1.391 . S
C1746 C1747 1.400 . S
C1747 C1746 1.400 . S
C1747 C1748 1.398 . S
C1747 C1753 1.491 . S
C1748 H1739 0.950 . S
C1748 C1747 1.398 . S
C1748 C1749 1.391 . S
C1749 H1737 0.950 . S
C1749 C1745 1.393 . S
C1749 C1748 1.391 . S
C1750 H1740 0.950 . S
C1750 C1751 1.386 . S
C1750 C1752 1.391 . S
C1751 C1750 1.386 . S
C1751 C1755 1.393 . S
C1752 H1741 0.950 . S
C1752 C1750 1.391 . S
C1752 C1753 1.400 . S
C1753 C1747 1.491 . S
C1753 C1752 1.400 . S
C1753 C1754 1.398 . S
C1754 H1742 0.950 . S
C1754 C1753 1.398 . S
C1754 C1755 1.391 . S
C1755 H1743 0.950 . S
C1755 C1751 1.393 . S
C1755 C1754 1.391 . S
H1756 C1764 0.950 . S
H1757 C1769 0.950 . S
H1758 C1766 0.950 . S
H1759 C1768 0.950 . S
H1760 C1770 0.950 . S
H1761 C1772 0.950 . S
H1762 C1774 0.950 . S
H1763 C1775 0.950 . S
C1764 H1756 0.950 . S
C1764 C1765 1.386 . S
C1764 C1766 1.391 . S
C1765 C1764 1.386 . S
C1765 C1769 1.393 . S
C1766 H1758 0.950 . S
C1766 C1764 1.391 . S
C1766 C1767 1.400 . S
C1767 C1766 1.400 . S
C1767 C1768 1.398 . S
C1767 C1773 1.491 . S
C1768 H1759 0.950 . S
C1768 C1767 1.398 . S
C1768 C1769 1.391 . S
C1769 H1757 0.950 . S
C1769 C1765 1.393 . S
C1769 C1768 1.391 . S
C1770 H1760 0.950 . S
C1770 C1771 1.386 . S
C1770 C1772 1.391 . S
C1771 C1770 1.386 . S
C1771 C1775 1.393 . S
C1772 H1761 0.950 . S
C1772 C1770 1.391 . S
C1772 C1773 1.400 . S
C1773 C1767 1.491 . S
C1773 C1772 1.400 . S
C1773 C1774 1.398 . S
C1774 H1762 0.950 . S
C1774 C1773 1.398 . S
C1774 C1775 1.391 . S
C1775 H1763 0.950 . S
C1775 C1771 1.393 . S
C1775 C1774 1.391 . S
H1776 C1784 0.950 . S
H1777 C1789 0.950 . S
H1778 C1786 0.950 . S
H1779 C1788 0.950 . S
H1780 C1790 0.950 . S
H1781 C1792 0.950 . S
H1782 C1794 0.950 . S
H1783 C1795 0.950 . S
C1784 H1776 0.950 . S
C1784 C1785 1.386 . S
C1784 C1786 1.391 . S
C1785 C1784 1.386 . S
C1785 C1789 1.393 . S
C1786 H1778 0.950 . S
C1786 C1784 1.391 . S
C1786 C1787 1.400 . S
C1787 C1786 1.400 . S
C1787 C1788 1.398 . S
C1787 C1793 1.491 . S
C1788 H1779 0.950 . S
C1788 C1787 1.398 . S
C1788 C1789 1.391 . S
C1789 H1777 0.950 . S
C1789 C1785 1.393 . S
C1789 C1788 1.391 . S
C1790 H1780 0.950 . S
C1790 C1791 1.386 . S
C1790 C1792 1.391 . S
C1791 C1790 1.386 . S
C1791 C1795 1.393 . S
C1792 H1781 0.950 . S
C1792 C1790 1.391 . S
C1792 C1793 1.400 . S
C1793 C1787 1.491 . S
C1793 C1792 1.400 . S
C1793 C1794 1.398 . S
C1794 H1782 0.950 . S
C1794 C1793 1.398 . S
C1794 C1795 1.391 . S
C1795 H1783 0.950 . S
C1795 C1791 1.393 . S
C1795 C1794 1.391 . S
H1796 C1804 0.950 . S
H1797 C1809 0.950 . S
H1798 C1806 0.950 . S
H1799 C1808 0.950 . S
H1800 C1810 0.950 . S
H1801 C1812 0.950 . S
H1802 C1814 0.950 . S
H1803 C1815 0.950 . S
C1804 H1796 0.950 . S
C1804 C1805 1.386 . S
C1804 C1806 1.391 . S
C1805 C1804 1.386 . S
C1805 C1809 1.393 . S
C1806 H1798 0.950 . S
C1806 C1804 1.391 . S
C1806 C1807 1.400 . S
C1807 C1806 1.400 . S
C1807 C1808 1.398 . S
C1807 C1813 1.491 . S
C1808 H1799 0.950 . S
C1808 C1807 1.398 . S
C1808 C1809 1.391 . S
C1809 H1797 0.950 . S
C1809 C1805 1.393 . S
C1809 C1808 1.391 . S
C1810 H1800 0.950 . S
C1810 C1811 1.386 . S
C1810 C1812 1.391 . S
C1811 C1810 1.386 . S
C1811 C1815 1.393 . S
C1812 H1801 0.950 . S
C1812 C1810 1.391 . S
C1812 C1813 1.400 . S
C1813 C1807 1.491 . S
C1813 C1812 1.400 . S
C1813 C1814 1.398 . S
C1814 H1802 0.950 . S
C1814 C1813 1.398 . S
C1814 C1815 1.391 . S
C1815 H1803 0.950 . S
C1815 C1811 1.393 . S
C1815 C1814 1.391 . S
H1816 C1824 0.950 . S
H1817 C1829 0.950 . S
H1818 C1826 0.950 . S
H1819 C1828 0.950 . S
H1820 C1830 0.950 . S
H1821 C1832 0.950 . S
H1822 C1834 0.950 . S
H1823 C1835 0.950 . S
C1824 H1816 0.950 . S
C1824 C1825 1.386 . S
C1824 C1826 1.391 . S
C1825 C1824 1.386 . S
C1825 C1829 1.393 . S
C1826 H1818 0.950 . S
C1826 C1824 1.391 . S
C1826 C1827 1.400 . S
C1827 C1826 1.400 . S
C1827 C1828 1.398 . S
C1827 C1833 1.491 . S
C1828 H1819 0.950 . S
C1828 C1827 1.398 . S
C1828 C1829 1.391 . S
C1829 H1817 0.950 . S
C1829 C1825 1.393 . S
C1829 C1828 1.391 . S
C1830 H1820 0.950 . S
C1830 C1831 1.386 . S
C1830 C1832 1.391 . S
C1831 C1830 1.386 . S
C1831 C1835 1.393 . S
C1832 H1821 0.950 . S
C1832 C1830 1.391 . S
C1832 C1833 1.400 . S
C1833 C1827 1.491 . S
C1833 C1832 1.400 . S
C1833 C1834 1.398 . S
C1834 H1822 0.950 . S
C1834 C1833 1.398 . S
C1834 C1835 1.391 . S
C1835 H1823 0.950 . S
C1835 C1831 1.393 . S
C1835 C1834 1.391 . S
H1836 C1844 0.950 . S
H1837 C1849 0.950 . S
H1838 C1846 0.950 . S
H1839 C1848 0.950 . S
H1840 C1850 0.950 . S
H1841 C1852 0.950 . S
H1842 C1854 0.950 . S
H1843 C1855 0.950 . S
C1844 H1836 0.950 . S
C1844 C1845 1.386 . S
C1844 C1846 1.391 . S
C1845 C1844 1.386 . S
C1845 C1849 1.393 . S
C1846 H1838 0.950 . S
C1846 C1844 1.391 . S
C1846 C1847 1.400 . S
C1847 C1846 1.400 . S
C1847 C1848 1.398 . S
C1847 C1853 1.491 . S
C1848 H1839 0.950 . S
C1848 C1847 1.398 . S
C1848 C1849 1.391 . S
C1849 H1837 0.950 . S
C1849 C1845 1.393 . S
C1849 C1848 1.391 . S
C1850 H1840 0.950 . S
C1850 C1851 1.386 . S
C1850 C1852 1.391 . S
C1851 C1850 1.386 . S
C1851 C1855 1.393 . S
C1852 H1841 0.950 . S
C1852 C1850 1.391 . S
C1852 C1853 1.400 . S
C1853 C1847 1.491 . S
C1853 C1852 1.400 . S
C1853 C1854 1.398 . S
C1854 H1842 0.950 . S
C1854 C1853 1.398 . S
C1854 C1855 1.391 . S
C1855 H1843 0.950 . S
C1855 C1851 1.393 . S
C1855 C1854 1.391 . S
H1856 C1864 0.950 . S
H1857 C1869 0.950 . S
H1858 C1866 0.950 . S
H1859 C1868 0.950 . S
H1860 C1870 0.950 . S
H1861 C1872 0.950 . S
H1862 C1874 0.950 . S
H1863 C1875 0.950 . S
C1864 H1856 0.950 . S
C1864 C1865 1.386 . S
C1864 C1866 1.391 . S
C1865 C1864 1.386 . S
C1865 C1869 1.393 . S
C1866 H1858 0.950 . S
C1866 C1864 1.391 . S
C1866 C1867 1.400 . S
C1867 C1866 1.400 . S
C1867 C1868 1.398 . S
C1867 C1873 1.491 . S
C1868 H1859 0.950 . S
C1868 C1867 1.398 . S
C1868 C1869 1.391 . S
C1869 H1857 0.950 . S
C1869 C1865 1.393 . S
C1869 C1868 1.391 . S
C1870 H1860 0.950 . S
C1870 C1871 1.386 . S
C1870 C1872 1.391 . S
C1871 C1870 1.386 . S
C1871 C1875 1.393 . S
C1872 H1861 0.950 . S
C1872 C1870 1.391 . S
C1872 C1873 1.400 . S
C1873 C1867 1.491 . S
C1873 C1872 1.400 . S
C1873 C1874 1.398 . S
C1874 H1862 0.950 . S
C1874 C1873 1.398 . S
C1874 C1875 1.391 . S
C1875 H1863 0.950 . S
C1875 C1871 1.393 . S
C1875 C1874 1.391 . S
H1876 C1884 0.950 . S
H1877 C1889 0.950 . S
H1878 C1886 0.950 . S
H1879 C1888 0.950 . S
H1880 C1890 0.950 . S
H1881 C1892 0.950 . S
H1882 C1894 0.950 . S
H1883 C1895 0.950 . S
C1884 H1876 0.950 . S
C1884 C1885 1.386 . S
C1884 C1886 1.391 . S
C1885 C1884 1.386 . S
C1885 C1889 1.393 . S
C1886 H1878 0.950 . S
C1886 C1884 1.391 . S
C1886 C1887 1.400 . S
C1887 C1886 1.400 . S
C1887 C1888 1.398 . S
C1887 C1893 1.491 . S
C1888 H1879 0.950 . S
C1888 C1887 1.398 . S
C1888 C1889 1.391 . S
C1889 H1877 0.950 . S
C1889 C1885 1.393 . S
C1889 C1888 1.391 . S
C1890 H1880 0.950 . S
C1890 C1891 1.386 . S
C1890 C1892 1.391 . S
C1891 C1890 1.386 . S
C1891 C1895 1.393 . S
C1892 H1881 0.950 . S
C1892 C1890 1.391 . S
C1892 C1893 1.400 . S
C1893 C1887 1.491 . S
C1893 C1892 1.400 . S
C1893 C1894 1.398 . S
C1894 H1882 0.950 . S
C1894 C1893 1.398 . S
C1894 C1895 1.391 . S
C1895 H1883 0.950 . S
C1895 C1891 1.393 . S
C1895 C1894 1.391 . S
H1896 C1904 0.950 . S
H1897 C1909 0.950 . S
H1898 C1906 0.950 . S
H1899 C1908 0.959 1_545 S
H1900 C1910 0.950 . S
H1901 C1912 0.950 . S
H1902 C1914 0.959 1_565 S
H1903 C1915 0.950 . S
C1904 H1896 0.950 . S
C1904 C1905 1.386 . S
C1904 C1906 1.391 . S
C1905 C1904 1.386 . S
C1905 C1909 1.393 . S
C1906 H1898 0.950 . S
C1906 C1904 1.391 . S
C1906 C1907 1.400 . S
C1907 C1906 1.400 . S
C1907 C1908 1.385 . S
C1907 C1913 1.491 1_566 S
C1908 H1899 0.959 1_565 S
C1908 C1907 1.385 . S
C1908 C1909 1.397 . S
C1909 H1897 0.950 . S
C1909 C1905 1.393 . S
C1909 C1908 1.397 . S
C1910 H1900 0.950 . S
C1910 C1911 1.386 . S
C1910 C1912 1.391 . S
C1911 C1910 1.386 . S
C1911 C1915 1.393 . S
C1912 H1901 0.950 . S
C1912 C1910 1.391 . S
C1912 C1913 1.400 . S
C1913 C1907 1.491 1_544 S
C1913 C1912 1.400 . S
C1913 C1914 1.385 . S
C1914 H1902 0.959 1_545 S
C1914 C1913 1.385 . S
C1914 C1915 1.397 . S
C1915 H1903 0.950 . S
C1915 C1911 1.393 . S
C1915 C1914 1.397 . S
H1916 C1924 0.950 . S
H1917 C1929 0.950 . S
H1918 C1926 0.950 . S
H1919 C1928 0.950 . S
H1920 C1930 0.950 . S
H1921 C1932 0.950 . S
H1922 C1934 0.950 . S
H1923 C1935 0.950 . S
C1924 H1916 0.950 . S
C1924 C1925 1.386 . S
C1924 C1926 1.391 . S
C1925 C1924 1.386 . S
C1925 C1929 1.393 . S
C1926 H1918 0.950 . S
C1926 C1924 1.391 . S
C1926 C1927 1.400 . S
C1927 C1926 1.400 . S
C1927 C1928 1.398 . S
C1927 C1933 1.491 . S
C1928 H1919 0.950 . S
C1928 C1927 1.398 . S
C1928 C1929 1.391 . S
C1929 H1917 0.950 . S
C1929 C1925 1.393 . S
C1929 C1928 1.391 . S
C1930 H1920 0.950 . S
C1930 C1931 1.386 . S
C1930 C1932 1.391 . S
C1931 C1930 1.386 . S
C1931 C1935 1.393 . S
C1932 H1921 0.950 . S
C1932 C1930 1.391 . S
C1932 C1933 1.400 . S
C1933 C1927 1.491 . S
C1933 C1932 1.400 . S
C1933 C1934 1.398 . S
C1934 H1922 0.950 . S
C1934 C1933 1.398 . S
C1934 C1935 1.391 . S
C1935 H1923 0.950 . S
C1935 C1931 1.393 . S
C1935 C1934 1.391 . S
H1936 C1944 0.950 . S
H1937 C1949 0.950 . S
H1938 C1946 0.950 . S
H1939 C1948 0.950 . S
H1940 C1950 0.950 . S
H1941 C1952 0.950 . S
H1942 C1954 0.950 . S
H1943 C1955 0.950 . S
C1944 H1936 0.950 . S
C1944 C1945 1.386 . S
C1944 C1946 1.391 . S
C1945 C1944 1.386 . S
C1945 C1949 1.393 1_455 S
C1946 H1938 0.950 . S
C1946 C1944 1.391 . S
C1946 C1947 1.400 . S
C1947 C1946 1.400 . S
C1947 C1948 1.398 1_455 S
C1947 C1953 1.491 1_456 S
C1948 H1939 0.950 . S
C1948 C1947 1.398 1_655 S
C1948 C1949 1.391 . S
C1949 H1937 0.950 . S
C1949 C1945 1.393 1_655 S
C1949 C1948 1.391 . S
C1950 H1940 0.950 . S
C1950 C1951 1.386 . S
C1950 C1952 1.391 . S
C1951 C1950 1.386 . S
C1951 C1955 1.393 1_655 S
C1952 H1941 0.950 . S
C1952 C1950 1.391 . S
C1952 C1953 1.400 . S
C1953 C1947 1.491 1_654 S
C1953 C1952 1.400 . S
C1953 C1954 1.398 1_655 S
C1954 H1942 0.950 . S
C1954 C1953 1.398 1_455 S
C1954 C1955 1.391 . S
C1955 H1943 0.950 . S
C1955 C1951 1.393 1_455 S
C1955 C1954 1.391 . S
H1956 C1964 0.950 . S
H1957 C1969 0.950 . S
H1958 C1966 0.950 . S
H1959 C1968 0.962 . S
H1960 C1970 0.950 . S
H1961 C1972 0.950 . S
H1962 C1974 0.962 . S
H1963 C1975 0.950 . S
C1964 H1956 0.950 . S
C1964 C1965 1.386 . S
C1964 C1966 1.391 . S
C1965 C1964 1.386 . S
C1965 C1969 1.393 . S
C1966 H1958 0.950 . S
C1966 C1964 1.391 . S
C1966 C1967 1.400 . S
C1967 C1966 1.400 . S
C1967 C1968 1.390 1_545 S
C1967 C1973 1.491 1_545 S
C1968 H1959 0.962 . S
C1968 C1967 1.390 1_565 S
C1968 C1969 1.388 1_565 S
C1969 H1957 0.950 . S
C1969 C1965 1.393 . S
C1969 C1968 1.388 1_545 S
C1970 H1960 0.950 . S
C1970 C1971 1.386 . S
C1970 C1972 1.391 . S
C1971 C1970 1.386 . S
C1971 C1975 1.393 . S
C1972 H1961 0.950 . S
C1972 C1970 1.391 . S
C1972 C1973 1.400 . S
C1973 C1967 1.491 1_565 S
C1973 C1972 1.400 . S
C1973 C1974 1.390 1_565 S
C1974 H1962 0.962 . S
C1974 C1973 1.390 1_545 S
C1974 C1975 1.388 1_545 S
C1975 H1963 0.950 . S
C1975 C1971 1.393 . S
C1975 C1974 1.388 1_565 S
H1976 C1984 0.950 . S
H1977 C1989 0.950 . S
H1978 C1986 0.950 . S
H1979 C1988 0.950 . S
H1980 C1990 0.950 . S
H1981 C1992 0.950 . S
H1982 C1994 0.950 . S
H1983 C1995 0.950 . S
C1984 H1976 0.950 . S
C1984 C1985 1.386 . S
C1984 C1986 1.391 . S
C1985 C1984 1.386 . S
C1985 C1989 1.393 . S
C1986 H1978 0.950 . S
C1986 C1984 1.391 . S
C1986 C1987 1.400 . S
C1987 C1986 1.400 . S
C1987 C1988 1.398 . S
C1987 C1993 1.491 1_554 S
C1988 H1979 0.950 . S
C1988 C1987 1.398 . S
C1988 C1989 1.391 . S
C1989 H1977 0.950 . S
C1989 C1985 1.393 . S
C1989 C1988 1.391 . S
C1990 H1980 0.950 . S
C1990 C1991 1.386 . S
C1990 C1992 1.391 . S
C1991 C1990 1.386 . S
C1991 C1995 1.393 . S
C1992 H1981 0.950 . S
C1992 C1990 1.391 . S
C1992 C1993 1.400 . S
C1993 C1987 1.491 1_556 S
C1993 C1992 1.400 . S
C1993 C1994 1.398 . S
C1994 H1982 0.950 . S
C1994 C1993 1.398 . S
C1994 C1995 1.391 . S
C1995 H1983 0.950 . S
C1995 C1991 1.393 . S
C1995 C1994 1.391 . S
H1996 C2004 0.950 . S
H1997 C2009 0.950 . S
H1998 C2006 0.950 . S
H1999 C2008 0.950 . S
H2000 C2010 0.950 . S
H2001 C2012 0.950 . S
H2002 C2014 0.950 . S
H2003 C2015 0.950 . S
C2004 H1996 0.950 . S
C2004 C2005 1.386 1_655 S
C2004 C2006 1.391 . S
C2005 C2004 1.386 1_455 S
C2005 C2009 1.393 . S
C2006 H1998 0.950 . S
C2006 C2004 1.391 . S
C2006 C2007 1.400 1_655 S
C2007 C2006 1.400 1_455 S
C2007 C2008 1.398 . S
C2007 C2013 1.491 1_455 S
C2008 H1999 0.950 . S
C2008 C2007 1.398 . S
C2008 C2009 1.391 . S
C2009 H1997 0.950 . S
C2009 C2005 1.393 . S
C2009 C2008 1.391 . S
C2010 H2000 0.950 . S
C2010 C2011 1.386 1_455 S
C2010 C2012 1.391 . S
C2011 C2010 1.386 1_655 S
C2011 C2015 1.393 . S
C2012 H2001 0.950 . S
C2012 C2010 1.391 . S
C2012 C2013 1.400 1_455 S
C2013 C2007 1.491 1_655 S
C2013 C2012 1.400 1_655 S
C2013 C2014 1.398 . S
C2014 H2002 0.950 . S
C2014 C2013 1.398 . S
C2014 C2015 1.391 . S
C2015 H2003 0.950 . S
C2015 C2011 1.393 . S
C2015 C2014 1.391 . S
H2016 C2024 0.950 . S
H2017 C2029 0.950 . S
H2018 C2026 0.950 . S
H2019 C2028 0.972 . S
H2020 C2030 0.950 . S
H2021 C2032 0.950 . S
H2022 C2034 0.972 . S
H2023 C2035 0.950 . S
C2024 H2016 0.950 . S
C2024 C2025 1.386 . S
C2024 C2026 1.391 . S
C2025 C2024 1.386 . S
C2025 C2029 1.393 . S
C2026 H2018 0.950 . S
C2026 C2024 1.391 . S
C2026 C2027 1.400 . S
C2027 C2026 1.400 . S
C2027 C2028 1.383 1_565 S
C2027 C2033 1.491 1_566 S
C2028 H2019 0.972 . S
C2028 C2027 1.383 1_545 S
C2028 C2029 1.386 1_545 S
C2029 H2017 0.950 . S
C2029 C2025 1.393 . S
C2029 C2028 1.386 1_565 S
C2030 H2020 0.950 . S
C2030 C2031 1.386 . S
C2030 C2032 1.391 . S
C2031 C2030 1.386 . S
C2031 C2035 1.393 . S
C2032 H2021 0.950 . S
C2032 C2030 1.391 . S
C2032 C2033 1.400 . S
C2033 C2027 1.491 1_544 S
C2033 C2032 1.400 . S
C2033 C2034 1.383 1_545 S
C2034 H2022 0.972 . S
C2034 C2033 1.383 1_565 S
C2034 C2035 1.386 1_565 S
C2035 H2023 0.950 . S
C2035 C2031 1.393 . S
C2035 C2034 1.386 1_545 S
H2036 C2044 0.950 . S
H2037 C2049 0.950 . S
H2038 C2046 0.950 . S
H2039 C2048 0.950 . S
H2040 C2050 0.950 . S
H2041 C2052 0.950 . S
H2042 C2054 0.950 . S
H2043 C2055 0.950 . S
C2044 H2036 0.950 . S
C2044 C2045 1.386 . S
C2044 C2046 1.391 . S
C2045 C2044 1.386 . S
C2045 C2049 1.393 . S
C2046 H2038 0.950 . S
C2046 C2044 1.391 . S
C2046 C2047 1.400 . S
C2047 C2046 1.400 . S
C2047 C2048 1.398 . S
C2047 C2053 1.491 . S
C2048 H2039 0.950 . S
C2048 C2047 1.398 . S
C2048 C2049 1.391 . S
C2049 H2037 0.950 . S
C2049 C2045 1.393 . S
C2049 C2048 1.391 . S
C2050 H2040 0.950 . S
C2050 C2051 1.386 . S
C2050 C2052 1.391 . S
C2051 C2050 1.386 . S
C2051 C2055 1.393 . S
C2052 H2041 0.950 . S
C2052 C2050 1.391 . S
C2052 C2053 1.400 . S
C2053 C2047 1.491 . S
C2053 C2052 1.400 . S
C2053 C2054 1.398 . S
C2054 H2042 0.950 . S
C2054 C2053 1.398 . S
C2054 C2055 1.391 . S
C2055 H2043 0.950 . S
C2055 C2051 1.393 . S
C2055 C2054 1.391 . S
H2056 C2064 0.950 . S
H2057 C2069 0.950 . S
H2058 C2066 0.950 . S
H2059 C2068 0.950 . S
H2060 C2070 0.950 . S
H2061 C2072 0.950 . S
H2062 C2074 0.950 . S
H2063 C2075 0.950 . S
C2064 H2056 0.950 . S
C2064 C2065 1.386 1_455 S
C2064 C2066 1.391 . S
C2065 C2064 1.386 1_655 S
C2065 C2069 1.393 . S
C2066 H2058 0.950 . S
C2066 C2064 1.391 . S
C2066 C2067 1.400 1_455 S
C2067 C2066 1.400 1_655 S
C2067 C2068 1.398 . S
C2067 C2073 1.491 1_654 S
C2068 H2059 0.950 . S
C2068 C2067 1.398 . S
C2068 C2069 1.391 . S
C2069 H2057 0.950 . S
C2069 C2065 1.393 . S
C2069 C2068 1.391 . S
C2070 H2060 0.950 . S
C2070 C2071 1.386 1_655 S
C2070 C2072 1.391 . S
C2071 C2070 1.386 1_455 S
C2071 C2075 1.393 . S
C2072 H2061 0.950 . S
C2072 C2070 1.391 . S
C2072 C2073 1.400 1_655 S
C2073 C2067 1.491 1_456 S
C2073 C2072 1.400 1_455 S
C2073 C2074 1.398 . S
C2074 H2062 0.950 . S
C2074 C2073 1.398 . S
C2074 C2075 1.391 . S
C2075 H2063 0.950 . S
C2075 C2071 1.393 . S
C2075 C2074 1.391 . S
H2076 C2084 0.948 . S
H2077 C2089 0.950 . S
H2078 C2086 0.950 . S
H2079 C2088 0.950 . S
H2080 C2090 0.948 . S
H2081 C2092 0.950 . S
H2082 C2094 0.950 . S
H2083 C2095 0.950 . S
C2084 H2076 0.948 . S
C2084 C2085 1.384 1_545 S
C2084 C2086 1.395 . S
C2085 C2084 1.384 1_565 S
C2085 C2089 1.393 . S
C2086 H2078 0.950 . S
C2086 C2084 1.395 . S
C2086 C2087 1.400 1_545 S
C2087 C2086 1.400 1_565 S
C2087 C2088 1.398 . S
C2087 C2093 1.491 1_565 S
C2088 H2079 0.950 . S
C2088 C2087 1.398 . S
C2088 C2089 1.391 . S
C2089 H2077 0.950 . S
C2089 C2085 1.393 . S
C2089 C2088 1.391 . S
C2090 H2080 0.948 . S
C2090 C2091 1.384 1_565 S
C2090 C2092 1.395 . S
C2091 C2090 1.384 1_545 S
C2091 C2095 1.393 . S
C2092 H2081 0.950 . S
C2092 C2090 1.395 . S
C2092 C2093 1.400 1_565 S
C2093 C2087 1.491 1_545 S
C2093 C2092 1.400 1_545 S
C2093 C2094 1.398 . S
C2094 H2082 0.950 . S
C2094 C2093 1.398 . S
C2094 C2095 1.391 . S
C2095 H2083 0.950 . S
C2095 C2091 1.393 . S
C2095 C2094 1.391 . S
H2096 C2104 0.950 . S
H2097 C2109 0.950 . S
H2098 C2106 0.950 . S
H2099 C2108 0.950 . S
H2100 C2110 0.950 . S
H2101 C2112 0.950 . S
H2102 C2114 0.950 . S
H2103 C2115 0.950 . S
C2104 H2096 0.950 . S
C2104 C2105 1.386 . S
C2104 C2106 1.391 . S
C2105 C2104 1.386 . S
C2105 C2109 1.393 . S
C2106 H2098 0.950 . S
C2106 C2104 1.391 . S
C2106 C2107 1.400 . S
C2107 C2106 1.400 . S
C2107 C2108 1.398 . S
C2107 C2113 1.491 1_554 S
C2108 H2099 0.950 . S
C2108 C2107 1.398 . S
C2108 C2109 1.391 . S
C2109 H2097 0.950 . S
C2109 C2105 1.393 . S
C2109 C2108 1.391 . S
C2110 H2100 0.950 . S
C2110 C2111 1.386 . S
C2110 C2112 1.391 . S
C2111 C2110 1.386 . S
C2111 C2115 1.393 . S
C2112 H2101 0.950 . S
C2112 C2110 1.391 . S
C2112 C2113 1.400 . S
C2113 C2107 1.491 1_556 S
C2113 C2112 1.400 . S
C2113 C2114 1.398 . S
C2114 H2102 0.950 . S
C2114 C2113 1.398 . S
C2114 C2115 1.391 . S
C2115 H2103 0.950 . S
C2115 C2111 1.393 . S
C2115 C2114 1.391 . S
H2116 C2124 0.950 . S
H2117 C2129 0.950 . S
H2118 C2126 0.950 . S
H2119 C2128 0.950 1_655 S
H2120 C2130 0.950 . S
H2121 C2132 0.950 . S
H2122 C2134 0.950 1_455 S
H2123 C2135 0.950 . S
C2124 H2116 0.950 . S
C2124 C2125 1.386 . S
C2124 C2126 1.391 . S
C2125 C2124 1.386 . S
C2125 C2129 1.393 . S
C2126 H2118 0.950 . S
C2126 C2124 1.391 . S
C2126 C2127 1.400 . S
C2127 C2126 1.400 . S
C2127 C2128 1.398 . S
C2127 C2133 1.491 1_455 S
C2128 H2119 0.950 1_455 S
C2128 C2127 1.398 . S
C2128 C2129 1.391 . S
C2129 H2117 0.950 . S
C2129 C2125 1.393 . S
C2129 C2128 1.391 . S
C2130 H2120 0.950 . S
C2130 C2131 1.386 . S
C2130 C2132 1.391 . S
C2131 C2130 1.386 . S
C2131 C2135 1.393 . S
C2132 H2121 0.950 . S
C2132 C2130 1.391 . S
C2132 C2133 1.400 . S
C2133 C2127 1.491 1_655 S
C2133 C2132 1.400 . S
C2133 C2134 1.398 . S
C2134 H2122 0.950 1_655 S
C2134 C2133 1.398 . S
C2134 C2135 1.391 . S
C2135 H2123 0.950 . S
C2135 C2131 1.393 . S
C2135 C2134 1.391 . S
H2136 C2144 0.950 . S
H2137 C2149 0.950 . S
H2138 C2146 0.950 . S
H2139 C2148 0.950 . S
H2140 C2150 0.950 . S
H2141 C2152 0.950 . S
H2142 C2154 0.950 . S
H2143 C2155 0.950 . S
C2144 H2136 0.950 . S
C2144 C2145 1.386 . S
C2144 C2146 1.391 . S
C2145 C2144 1.386 . S
C2145 C2149 1.393 . S
C2146 H2138 0.950 . S
C2146 C2144 1.391 . S
C2146 C2147 1.400 . S
C2147 C2146 1.400 . S
C2147 C2148 1.398 . S
C2147 C2153 1.491 . S
C2148 H2139 0.950 . S
C2148 C2147 1.398 . S
C2148 C2149 1.391 . S
C2149 H2137 0.950 . S
C2149 C2145 1.393 . S
C2149 C2148 1.391 . S
C2150 H2140 0.950 . S
C2150 C2151 1.386 . S
C2150 C2152 1.391 . S
C2151 C2150 1.386 . S
C2151 C2155 1.393 . S
C2152 H2141 0.950 . S
C2152 C2150 1.391 . S
C2152 C2153 1.400 . S
C2153 C2147 1.491 . S
C2153 C2152 1.400 . S
C2153 C2154 1.398 . S
C2154 H2142 0.950 . S
C2154 C2153 1.398 . S
C2154 C2155 1.391 . S
C2155 H2143 0.950 . S
C2155 C2151 1.393 . S
C2155 C2154 1.391 . S
H2156 C2164 0.950 . S
H2157 C2169 0.950 . S
H2158 C2166 0.950 . S
H2159 C2168 0.950 . S
H2160 C2170 0.950 . S
H2161 C2172 0.950 . S
H2162 C2174 0.950 . S
H2163 C2175 0.950 . S
C2164 H2156 0.950 . S
C2164 C2165 1.386 . S
C2164 C2166 1.391 . S
C2165 C2164 1.386 . S
C2165 C2169 1.393 . S
C2166 H2158 0.950 . S
C2166 C2164 1.391 . S
C2166 C2167 1.400 . S
C2167 C2166 1.400 . S
C2167 C2168 1.398 . S
C2167 C2173 1.491 . S
C2168 H2159 0.950 . S
C2168 C2167 1.398 . S
C2168 C2169 1.391 . S
C2169 H2157 0.950 . S
C2169 C2165 1.393 . S
C2169 C2168 1.391 . S
C2170 H2160 0.950 . S
C2170 C2171 1.386 . S
C2170 C2172 1.391 . S
C2171 C2170 1.386 . S
C2171 C2175 1.393 . S
C2172 H2161 0.950 . S
C2172 C2170 1.391 . S
C2172 C2173 1.400 . S
C2173 C2167 1.491 . S
C2173 C2172 1.400 . S
C2173 C2174 1.398 . S
C2174 H2162 0.950 . S
C2174 C2173 1.398 . S
C2174 C2175 1.391 . S
C2175 H2163 0.950 . S
C2175 C2171 1.393 . S
C2175 C2174 1.391 . S
H2176 C2184 0.950 . S
H2177 C2189 0.949 . S
H2178 C2186 0.950 . S
H2179 C2188 0.949 . S
H2180 C2190 0.950 . S
H2181 C2192 0.986 . S
H2182 C2194 0.950 . S
H2183 C2195 0.950 . S
C2184 H2176 0.950 . S
C2184 C2185 1.386 . S
C2184 C2186 1.391 . S
C2185 C2184 1.386 . S
C2185 C2189 1.393 . S
C2186 H2178 0.950 . S
C2186 C2184 1.391 . S
C2186 C2187 1.400 . S
C2187 C2186 1.400 . S
C2187 C2188 1.398 . S
C2187 C2193 1.491 . S
C2188 H2179 0.949 . S
C2188 C2187 1.398 . S
C2188 C2189 1.391 . S
C2189 H2177 0.949 . S
C2189 C2185 1.393 . S
C2189 C2188 1.391 . S
C2190 H2180 0.950 . S
C2190 C2191 1.386 . S
C2190 C2192 1.391 . S
C2191 C2190 1.386 . S
C2191 C2195 1.393 . S
C2192 H2181 0.986 . S
C2192 C2190 1.391 . S
C2192 C2193 1.400 . S
C2193 C2187 1.491 . S
C2193 C2192 1.400 . S
C2193 C2194 1.398 . S
C2194 H2182 0.950 . S
C2194 C2193 1.398 . S
C2194 C2195 1.391 . S
C2195 H2183 0.950 . S
C2195 C2191 1.393 . S
C2195 C2194 1.391 . S
H2196 C2204 0.950 . S
H2197 C2209 0.950 . S
H2198 C2206 0.950 . S
H2199 C2208 0.950 . S
H2200 C2210 0.950 . S
H2201 C2212 0.950 . S
H2202 C2214 0.950 . S
H2203 C2215 0.950 . S
C2204 H2196 0.950 . S
C2204 C2205 1.386 . S
C2204 C2206 1.391 . S
C2205 C2204 1.386 . S
C2205 C2209 1.393 . S
C2206 H2198 0.950 . S
C2206 C2204 1.391 . S
C2206 C2207 1.400 . S
C2207 C2206 1.400 . S
C2207 C2208 1.398 . S
C2207 C2213 1.491 . S
C2208 H2199 0.950 . S
C2208 C2207 1.398 . S
C2208 C2209 1.391 . S
C2209 H2197 0.950 . S
C2209 C2205 1.393 . S
C2209 C2208 1.391 . S
C2210 H2200 0.950 . S
C2210 C2211 1.386 . S
C2210 C2212 1.391 . S
C2211 C2210 1.386 . S
C2211 C2215 1.393 . S
C2212 H2201 0.950 . S
C2212 C2210 1.391 . S
C2212 C2213 1.400 . S
C2213 C2207 1.491 . S
C2213 C2212 1.400 . S
C2213 C2214 1.398 . S
C2214 H2202 0.950 . S
C2214 C2213 1.398 . S
C2214 C2215 1.391 . S
C2215 H2203 0.950 . S
C2215 C2211 1.393 . S
C2215 C2214 1.391 . S
H2216 C2224 0.950 . S
H2217 C2229 0.950 . S
H2218 C2226 0.950 . S
H2219 C2228 0.950 . S
H2220 C2230 0.950 . S
H2221 C2232 0.950 . S
H2222 C2234 0.950 . S
H2223 C2235 0.950 . S
C2224 H2216 0.950 . S
C2224 C2225 1.386 . S
C2224 C2226 1.391 . S
C2225 C2224 1.386 . S
C2225 C2229 1.393 . S
C2226 H2218 0.950 . S
C2226 C2224 1.391 . S
C2226 C2227 1.400 . S
C2227 C2226 1.400 . S
C2227 C2228 1.398 . S
C2227 C2233 1.491 . S
C2228 H2219 0.950 . S
C2228 C2227 1.398 . S
C2228 C2229 1.391 . S
C2229 H2217 0.950 . S
C2229 C2225 1.393 . S
C2229 C2228 1.391 . S
C2230 H2220 0.950 . S
C2230 C2231 1.386 . S
C2230 C2232 1.391 . S
C2231 C2230 1.386 . S
C2231 C2235 1.393 . S
C2232 H2221 0.950 . S
C2232 C2230 1.391 . S
C2232 C2233 1.400 . S
C2233 C2227 1.491 . S
C2233 C2232 1.400 . S
C2233 C2234 1.398 . S
C2234 H2222 0.950 . S
C2234 C2233 1.398 . S
C2234 C2235 1.391 . S
C2235 H2223 0.950 . S
C2235 C2231 1.393 . S
C2235 C2234 1.391 . S
H2236 C2244 0.950 . S
H2237 C2249 0.950 . S
H2238 C2246 0.950 . S
H2239 C2248 0.950 . S
H2240 C2250 0.950 . S
H2241 C2252 0.950 . S
H2242 C2254 0.950 . S
H2243 C2255 0.950 . S
C2244 H2236 0.950 . S
C2244 C2245 1.386 . S
C2244 C2246 1.391 . S
C2245 C2244 1.386 . S
C2245 C2249 1.393 . S
C2246 H2238 0.950 . S
C2246 C2244 1.391 . S
C2246 C2247 1.400 . S
C2247 C2246 1.400 . S
C2247 C2248 1.398 . S
C2247 C2253 1.491 . S
C2248 H2239 0.950 . S
C2248 C2247 1.398 . S
C2248 C2249 1.391 . S
C2249 H2237 0.950 . S
C2249 C2245 1.393 . S
C2249 C2248 1.391 . S
C2250 H2240 0.950 . S
C2250 C2251 1.386 . S
C2250 C2252 1.391 . S
C2251 C2250 1.386 . S
C2251 C2255 1.393 . S
C2252 H2241 0.950 . S
C2252 C2250 1.391 . S
C2252 C2253 1.400 . S
C2253 C2247 1.491 . S
C2253 C2252 1.400 . S
C2253 C2254 1.398 . S
C2254 H2242 0.950 . S
C2254 C2253 1.398 . S
C2254 C2255 1.391 . S
C2255 H2243 0.950 . S
C2255 C2251 1.393 . S
C2255 C2254 1.391 . S
H2256 C2264 0.950 . S
H2257 C2269 0.955 . S
H2258 C2266 0.950 . S
H2259 C2268 0.981 . S
H2260 C2270 0.955 . S
H2261 C2272 0.952 . S
H2262 C2274 0.950 . S
H2263 C2275 0.950 . S
C2264 H2256 0.950 . S
C2264 C2265 1.386 . S
C2264 C2266 1.391 . S
C2265 C2264 1.386 . S
C2265 C2269 1.393 . S
C2266 H2258 0.950 . S
C2266 C2264 1.391 . S
C2266 C2267 1.400 . S
C2267 C2266 1.400 . S
C2267 C2268 1.398 . S
C2267 C2273 1.491 . S
C2268 H2259 0.981 . S
C2268 C2267 1.398 . S
C2268 C2269 1.391 . S
C2269 H2257 0.955 . S
C2269 C2265 1.393 . S
C2269 C2268 1.391 . S
C2270 H2260 0.955 . S
C2270 C2271 1.386 . S
C2270 C2272 1.391 . S
C2271 C2270 1.386 . S
C2271 C2275 1.393 . S
C2272 H2261 0.952 . S
C2272 C2270 1.391 . S
C2272 C2273 1.400 . S
C2273 C2267 1.491 . S
C2273 C2272 1.400 . S
C2273 C2274 1.398 . S
C2274 H2262 0.950 . S
C2274 C2273 1.398 . S
C2274 C2275 1.391 . S
C2275 H2263 0.950 . S
C2275 C2271 1.393 . S
C2275 C2274 1.391 . S
H2276 C2284 0.950 . S
H2277 C2289 0.950 . S
H2278 C2286 0.950 . S
H2279 C2288 0.950 . S
H2280 C2290 0.950 . S
H2281 C2292 0.950 . S
H2282 C2294 0.950 . S
H2283 C2295 0.950 . S
C2284 H2276 0.950 . S
C2284 C2285 1.386 . S
C2284 C2286 1.391 . S
C2285 C2284 1.386 . S
C2285 C2289 1.393 . S
C2286 H2278 0.950 . S
C2286 C2284 1.391 . S
C2286 C2287 1.400 . S
C2287 C2286 1.400 . S
C2287 C2288 1.398 . S
C2287 C2293 1.491 . S
C2288 H2279 0.950 . S
C2288 C2287 1.398 . S
C2288 C2289 1.391 . S
C2289 H2277 0.950 . S
C2289 C2285 1.393 . S
C2289 C2288 1.391 . S
C2290 H2280 0.950 . S
C2290 C2291 1.386 . S
C2290 C2292 1.391 . S
C2291 C2290 1.386 . S
C2291 C2295 1.393 . S
C2292 H2281 0.950 . S
C2292 C2290 1.391 . S
C2292 C2293 1.400 . S
C2293 C2287 1.491 . S
C2293 C2292 1.400 . S
C2293 C2294 1.398 . S
C2294 H2282 0.950 . S
C2294 C2293 1.398 . S
C2294 C2295 1.391 . S
C2295 H2283 0.950 . S
C2295 C2291 1.393 . S
C2295 C2294 1.391 . S
H2296 C2304 0.950 . S
H2297 C2309 0.950 . S
H2298 C2306 0.950 . S
H2299 C2308 0.950 . S
H2300 C2310 0.950 . S
H2301 C2312 0.950 . S
H2302 C2314 0.950 . S
H2303 C2315 0.950 . S
C2304 H2296 0.950 . S
C2304 C2305 1.386 . S
C2304 C2306 1.391 . S
C2305 C2304 1.386 . S
C2305 C2309 1.393 . S
C2306 H2298 0.950 . S
C2306 C2304 1.391 . S
C2306 C2307 1.400 . S
C2307 C2306 1.400 . S
C2307 C2308 1.398 . S
C2307 C2313 1.491 . S
C2308 H2299 0.950 . S
C2308 C2307 1.398 . S
C2308 C2309 1.391 . S
C2309 H2297 0.950 . S
C2309 C2305 1.393 . S
C2309 C2308 1.391 . S
C2310 H2300 0.950 . S
C2310 C2311 1.386 . S
C2310 C2312 1.391 . S
C2311 C2310 1.386 . S
C2311 C2315 1.393 . S
C2312 H2301 0.950 . S
C2312 C2310 1.391 . S
C2312 C2313 1.400 . S
C2313 C2307 1.491 . S
C2313 C2312 1.400 . S
C2313 C2314 1.398 . S
C2314 H2302 0.950 . S
C2314 C2313 1.398 . S
C2314 C2315 1.391 . S
C2315 H2303 0.950 . S
C2315 C2311 1.393 . S
C2315 C2314 1.391 . S
H2316 C2324 0.950 . S
H2317 C2329 0.950 . S
H2318 C2326 0.950 . S
H2319 C2328 0.950 . S
H2320 C2330 0.950 . S
H2321 C2332 0.950 . S
H2322 C2334 0.950 . S
H2323 C2335 0.950 . S
C2324 H2316 0.950 . S
C2324 C2325 1.386 . S
C2324 C2326 1.391 . S
C2325 C2324 1.386 . S
C2325 C2329 1.393 . S
C2326 H2318 0.950 . S
C2326 C2324 1.391 . S
C2326 C2327 1.400 . S
C2327 C2326 1.400 . S
C2327 C2328 1.398 . S
C2327 C2333 1.491 . S
C2328 H2319 0.950 . S
C2328 C2327 1.398 . S
C2328 C2329 1.391 . S
C2329 H2317 0.950 . S
C2329 C2325 1.393 . S
C2329 C2328 1.391 . S
C2330 H2320 0.950 . S
C2330 C2331 1.386 . S
C2330 C2332 1.391 . S
C2331 C2330 1.386 . S
C2331 C2335 1.393 . S
C2332 H2321 0.950 . S
C2332 C2330 1.391 . S
C2332 C2333 1.400 . S
C2333 C2327 1.491 . S
C2333 C2332 1.400 . S
C2333 C2334 1.398 . S
C2334 H2322 0.950 . S
C2334 C2333 1.398 . S
C2334 C2335 1.391 . S
C2335 H2323 0.950 . S
C2335 C2331 1.393 . S
C2335 C2334 1.391 . S
H2336 C2344 0.950 . S
H2337 C2349 0.950 . S
H2338 C2346 0.950 . S
H2339 C2348 0.950 . S
H2340 C2350 0.950 . S
H2341 C2352 0.950 . S
H2342 C2354 0.950 . S
H2343 C2355 0.950 . S
C2344 H2336 0.950 . S
C2344 C2345 1.386 . S
C2344 C2346 1.391 . S
C2345 C2344 1.386 . S
C2345 C2349 1.393 . S
C2346 H2338 0.950 . S
C2346 C2344 1.391 . S
C2346 C2347 1.400 . S
C2347 C2346 1.400 . S
C2347 C2348 1.398 . S
C2347 C2353 1.491 . S
C2348 H2339 0.950 . S
C2348 C2347 1.398 . S
C2348 C2349 1.391 . S
C2349 H2337 0.950 . S
C2349 C2345 1.393 . S
C2349 C2348 1.391 . S
C2350 H2340 0.950 . S
C2350 C2351 1.386 . S
C2350 C2352 1.391 . S
C2351 C2350 1.386 . S
C2351 C2355 1.393 . S
C2352 H2341 0.950 . S
C2352 C2350 1.391 . S
C2352 C2353 1.400 . S
C2353 C2347 1.491 . S
C2353 C2352 1.400 . S
C2353 C2354 1.398 . S
C2354 H2342 0.950 . S
C2354 C2353 1.398 . S
C2354 C2355 1.391 . S
C2355 H2343 0.950 . S
C2355 C2351 1.393 . S
C2355 C2354 1.391 . S
H2356 C2364 0.950 . S
H2357 C2369 0.950 . S
H2358 C2366 0.950 . S
H2359 C2368 0.950 . S
H2360 C2370 0.950 . S
H2361 C2372 0.950 . S
H2362 C2374 0.950 . S
H2363 C2375 0.950 . S
C2364 H2356 0.950 . S
C2364 C2365 1.386 . S
C2364 C2366 1.391 . S
C2365 C2364 1.386 . S
C2365 C2369 1.393 . S
C2366 H2358 0.950 . S
C2366 C2364 1.391 . S
C2366 C2367 1.400 . S
C2367 C2366 1.400 . S
C2367 C2368 1.398 . S
C2367 C2373 1.491 . S
C2368 H2359 0.950 . S
C2368 C2367 1.398 . S
C2368 C2369 1.391 . S
C2369 H2357 0.950 . S
C2369 C2365 1.393 . S
C2369 C2368 1.391 . S
C2370 H2360 0.950 . S
C2370 C2371 1.386 . S
C2370 C2372 1.391 . S
C2371 C2370 1.386 . S
C2371 C2375 1.393 . S
C2372 H2361 0.950 . S
C2372 C2370 1.391 . S
C2372 C2373 1.400 . S
C2373 C2367 1.491 . S
C2373 C2372 1.400 . S
C2373 C2374 1.398 . S
C2374 H2362 0.950 . S
C2374 C2373 1.398 . S
C2374 C2375 1.391 . S
C2375 H2363 0.950 . S
C2375 C2371 1.393 . S
C2375 C2374 1.391 . S
C1425 C937 1.293 . S
C1431 C52 1.295 . S
C1445 C111 1.288 . S
C1451 C996 1.299 . S
C1465 C170 1.299 . S
C1471 C1055 1.287 . S
C1485 C229 1.299 . S
C1491 C760 1.288 . S
C1505 C819 1.287 . S
C1511 C288 1.300 . S
C1525 C347 1.293 . S
C1531 C878 1.294 . S
C1545 C1291 1.298 . S
C1551 C406 1.289 . S
C1565 C465 1.287 . S
C1571 C1350 1.300 . S
C1585 C524 1.287 . S
C1591 C1409 1.300 . S
C1605 C1114 1.288 . S
C1611 C583 1.299 . S
C1625 C642 1.298 . S
C1631 C1173 1.290 . S
C1645 C1232 1.292 . S
C1651 C701 1.295 . S
C1665 C3 1.733 . S
C1671 C1360 1.745 . S
C1685 C1065 1.735 . S
C1691 C62 1.744 . S
C1705 C121 1.740 . S
C1711 C1124 1.738 . S
C1725 C1183 1.734 . S
C1731 C180 1.745 . S
C1745 C239 1.745 . S
C1751 C1242 1.733 . S
C1765 C1301 1.737 . S
C1771 C298 1.741 . S
C1785 C357 1.745 . S
C1791 C770 1.733 . S
C1805 C829 1.744 . S
C1811 C416 1.734 . S
C1825 C888 1.739 . S
C1831 C475 1.739 . S
C1845 C947 1.739 . S
C1851 C534 1.740 . S
C1865 C593 1.746 . S
C1871 C1006 1.733 . S
C1885 C652 1.745 . S
C1891 C711 1.733 . S
C1905 C418 1.363 . S
C1911 C5 1.368 . S
C1925 C477 1.363 . S
C1931 C64 1.369 . S
C1945 C536 1.363 . S
C1951 C123 1.372 . S
C1965 C595 1.379 . S
C1971 C182 1.380 . S
C1985 C241 1.382 . S
C1991 C654 1.377 . S
C2005 C300 1.382 . S
C2011 C359 1.371 . S
C2025 C713 1.380 . S
C2031 C1126 1.379 . S
C2045 C772 1.372 . S
C2051 C1185 1.382 . S
C2065 C1244 1.367 . S
C2071 C831 1.379 . S
C2085 C1303 1.363 . S
C2091 C890 1.368 . S
C2105 C1362 1.381 . S
C2111 C949 1.369 . S
C2125 C1067 1.367 . S
C2131 C1008 1.364 . S
C2145 C33 1.834 . S
C2151 C1154 1.835 . S
C2165 C1213 1.837 . S
C2171 C92 1.831 . S
C2185 C151 1.836 . S
C2191 C1272 1.832 . S
C2205 C1331 1.833 . S
C2211 C210 1.835 . S
C2225 C269 1.835 . S
C2231 C1390 1.833 . S
C2245 C1095 1.834 . S
C2251 C328 1.835 . S
C2265 C387 1.835 . S
C2271 C1036 1.833 . S
C2285 C741 1.836 . S
C2291 C446 1.833 . S
C2305 C505 1.832 . S
C2311 C800 1.836 . S
C2325 C564 1.831 . S
C2331 C859 1.837 . S
C2345 C623 1.837 . S
C2351 C918 1.832 . S
C2365 C682 1.836 . S
C2371 C977 1.832 . S
