# Generated by pormake.
# Topology bcu-f, (3)-cn, num edge types: 1
# Building blocks:
#     Node 0, Type 0, BuildingBlock: WUSLED_clean_sbu_0, # of connection points: 3
#     Node 1, Type 0, BuildingBlock: WUSLED_clean_sbu_0, # of connection points: 3
#     Node 2, Type 0, BuildingBlock: WUSLED_clean_sbu_0, # of connection points: 3
#     Node 3, Type 0, BuildingBlock: WUSLED_clean_sbu_0, # of connection points: 3
#     Node 4, Type 0, BuildingBlock: WUSLED_clean_sbu_0, # of connection points: 3
#     Node 5, Type 0, BuildingBlock: WUSLED_clean_sbu_0, # of connection points: 3
#     Node 6, Type 0, BuildingBlock: WUSLED_clean_sbu_0, # of connection points: 3
#     Node 7, Type 0, BuildingBlock: WUSLED_clean_sbu_0, # of connection points: 3
#     Node 8, Type 0, BuildingBlock: WUSLED_clean_sbu_0, # of connection points: 3
#     Node 9, Type 0, BuildingBlock: WUSLED_clean_sbu_0, # of connection points: 3
#     Node 10, Type 0, BuildingBlock: WUSLED_clean_sbu_0, # of connection points: 3
#     Node 11, Type 0, BuildingBlock: WUSLED_clean_sbu_0, # of connection points: 3
#     Node 12, Type 0, BuildingBlock: WUSLED_clean_sbu_0, # of connection points: 3
#     Node 13, Type 0, BuildingBlock: WUSLED_clean_sbu_0, # of connection points: 3
#     Node 14, Type 0, BuildingBlock: WUSLED_clean_sbu_0, # of connection points: 3
#     Node 15, Type 0, BuildingBlock: WUSLED_clean_sbu_0, # of connection points: 3
#     Edge 16, Type (0, 0), BuildingBlock: KIFKEQ_clean_linker_1, # of connection points: 2
#     Edge 17, Type (0, 0), BuildingBlock: KIFKEQ_clean_linker_1, # of connection points: 2
#     Edge 18, Type (0, 0), BuildingBlock: KIFKEQ_clean_linker_1, # of connection points: 2
#     Edge 19, Type (0, 0), BuildingBlock: KIFKEQ_clean_linker_1, # of connection points: 2
#     Edge 20, Type (0, 0), BuildingBlock: KIFKEQ_clean_linker_1, # of connection points: 2
#     Edge 21, Type (0, 0), BuildingBlock: KIFKEQ_clean_linker_1, # of connection points: 2
#     Edge 22, Type (0, 0), BuildingBlock: KIFKEQ_clean_linker_1, # of connection points: 2
#     Edge 23, Type (0, 0), BuildingBlock: KIFKEQ_clean_linker_1, # of connection points: 2
#     Edge 24, Type (0, 0), BuildingBlock: KIFKEQ_clean_linker_1, # of connection points: 2
#     Edge 25, Type (0, 0), BuildingBlock: KIFKEQ_clean_linker_1, # of connection points: 2
#     Edge 26, Type (0, 0), BuildingBlock: KIFKEQ_clean_linker_1, # of connection points: 2
#     Edge 27, Type (0, 0), BuildingBlock: KIFKEQ_clean_linker_1, # of connection points: 2
#     Edge 28, Type (0, 0), BuildingBlock: KIFKEQ_clean_linker_1, # of connection points: 2
#     Edge 29, Type (0, 0), BuildingBlock: KIFKEQ_clean_linker_1, # of connection points: 2
#     Edge 30, Type (0, 0), BuildingBlock: KIFKEQ_clean_linker_1, # of connection points: 2
#     Edge 31, Type (0, 0), BuildingBlock: KIFKEQ_clean_linker_1, # of connection points: 2
#     Edge 32, Type (0, 0), BuildingBlock: KIFKEQ_clean_linker_1, # of connection points: 2
#     Edge 33, Type (0, 0), BuildingBlock: KIFKEQ_clean_linker_1, # of connection points: 2
#     Edge 34, Type (0, 0), BuildingBlock: KIFKEQ_clean_linker_1, # of connection points: 2
#     Edge 35, Type (0, 0), BuildingBlock: KIFKEQ_clean_linker_1, # of connection points: 2
#     Edge 36, Type (0, 0), BuildingBlock: KIFKEQ_clean_linker_1, # of connection points: 2
#     Edge 37, Type (0, 0), BuildingBlock: KIFKEQ_clean_linker_1, # of connection points: 2
#     Edge 38, Type (0, 0), BuildingBlock: KIFKEQ_clean_linker_1, # of connection points: 2
#     Edge 39, Type (0, 0), BuildingBlock: KIFKEQ_clean_linker_1, # of connection points: 2
# Relax obj value: 0.004
# Max RMSD: 0.006
# Mean RMSD: 0.006
data_MOF--net-bcu-f--node1-WUSLED_clean_sbu_0--edge1-KIFKEQ_clean_linker_1
_symmetry_space_group_name_H-M    P1
_symmetry_Int_Tables_number       1
_symmetry_cell_setting            triclinic
loop_
_symmetry_equiv_pos_as_xyz
'x, y, z'
_cell_length_a     81.4015
_cell_length_b     81.515008
_cell_length_c     64.154485
_cell_angle_alpha  89.980083
_cell_angle_beta   89.991789
_cell_angle_gamma 90.001793
loop_
_atom_site_label
_atom_site_type_symbol
_atom_site_fract_x
_atom_site_fract_y
_atom_site_fract_z
_atom_type_partial_charge
C0 C 0.324 0.12858 0.1683 0.0
C1 C 0.31902 0.14429 0.17463 0.0
C2 C 0.33585 0.14208 0.20598 0.0
C3 C 0.32486 0.15098 0.19332 0.0
C4 C 0.34077 0.12633 0.19948 0.0
C5 C 0.33489 0.11966 0.18083 0.0
U6 U 0.30026 0.13224 0.11735 0.0
O7 O 0.30592 0.12308 0.08594 0.0
O8 O 0.28345 0.11492 0.10184 0.0
C9 C 0.29297 0.11344 0.0854 0.0
C10 C 0.31799 0.12142 0.14867 0.0
C11 C 0.29547 0.09665 0.07746 0.0
C12 C 0.31257 0.07272 0.07083 0.0
C13 C 0.31039 0.08821 0.07993 0.0
C14 C 0.28486 0.07383 0.05717 0.0
C15 C 0.29989 0.06543 0.05911 0.0
C16 C 0.28271 0.08926 0.06621 0.0
C17 C 0.2792 0.17212 0.10286 0.0
C18 C 0.26553 0.17497 0.06939 0.0
C19 C 0.26424 0.19706 0.09461 0.0
C20 C 0.27374 0.1878 0.10847 0.0
C21 C 0.26003 0.19077 0.07488 0.0
C22 C 0.27501 0.16573 0.08327 0.0
C23 C 0.28918 0.16248 0.1175 0.0
O24 O 0.30199 0.11941 0.14744 0.0
O25 O 0.32442 0.1276 0.13159 0.0
O26 O 0.30388 0.15846 0.11075 0.0
O27 O 0.28148 0.15025 0.12659 0.0
H28 H 0.31065 0.15139 0.16508 0.0
H29 H 0.32097 0.1632 0.19771 0.0
H30 H 0.34903 0.11905 0.20896 0.0
H31 H 0.33884 0.1075 0.1762 0.0
H32 H 0.32432 0.06664 0.07255 0.0
H33 H 0.32042 0.09368 0.08858 0.0
H34 H 0.27471 0.06847 0.04866 0.0
H35 H 0.27109 0.09554 0.06417 0.0
H36 H 0.26271 0.16983 0.05425 0.0
H37 H 0.26002 0.20906 0.09947 0.0
H38 H 0.2768 0.19287 0.12359 0.0
H39 H 0.27913 0.15361 0.0787 0.0
C40 C 0.89258 0.32222 0.16628 0.0
C41 C 0.87644 0.3183 0.17211 0.0
C42 C 0.87977 0.3334 0.20467 0.0
C43 C 0.87008 0.32383 0.19114 0.0
C44 C 0.896 0.33716 0.19875 0.0
C45 C 0.90232 0.33163 0.17973 0.0
U46 U 0.88815 0.29926 0.11488 0.0
O47 O 0.8961 0.30602 0.0832 0.0
O48 O 0.90555 0.28359 0.09785 0.0
C49 C 0.90615 0.29346 0.08167 0.0
C50 C 0.89933 0.31676 0.14617 0.0
C51 C 0.92262 0.29699 0.07338 0.0
C52 C 0.95096 0.30574 0.07775 0.0
C53 C 0.93518 0.30332 0.08599 0.0
C54 C 0.9416 0.29579 0.04421 0.0
C55 C 0.95438 0.30188 0.05678 0.0
C56 C 0.9259 0.29338 0.05245 0.0
C57 C 0.84861 0.27701 0.10168 0.0
C58 C 0.84449 0.26515 0.06733 0.0
C59 C 0.82481 0.25988 0.09487 0.0
C60 C 0.83411 0.2695 0.10853 0.0
C61 C 0.82987 0.2576 0.07407 0.0
C62 C 0.8538 0.27473 0.08103 0.0
C63 C 0.85835 0.28703 0.11618 0.0
O64 O 0.90184 0.30089 0.1444 0.0
O65 O 0.8924 0.32325 0.1296 0.0
O66 O 0.86158 0.30201 0.1098 0.0
O67 O 0.87115 0.27962 0.12434 0.0
H68 H 0.86873 0.31107 0.16186 0.0
H69 H 0.8575 0.32085 0.19509 0.0
H70 H 0.90388 0.34428 0.20889 0.0
H71 H 0.91483 0.33472 0.17551 0.0
H72 H 0.96047 0.31061 0.0878 0.0
H73 H 0.93284 0.30622 0.1022 0.0
H74 H 0.94381 0.29243 0.02813 0.0
H75 H 0.91635 0.28842 0.04251 0.0
H76 H 0.84866 0.26385 0.05139 0.0
H77 H 0.81376 0.25405 0.10068 0.0
H78 H 0.82999 0.27105 0.12447 0.0
H79 H 0.86502 0.28041 0.07549 0.0
C80 C 0.6982 0.89211 0.16842 0.0
C81 C 0.70078 0.87558 0.17358 0.0
C82 C 0.68636 0.87942 0.20658 0.0
C83 C 0.69491 0.86929 0.19249 0.0
C84 C 0.68392 0.89602 0.20131 0.0
C85 C 0.68979 0.90228 0.18241 0.0
U86 U 0.72181 0.88754 0.11745 0.0
O87 O 0.7159 0.89606 0.0858 0.0
O88 O 0.73838 0.90468 0.10123 0.0
C89 C 0.72883 0.90569 0.08477 0.0
C90 C 0.70415 0.89888 0.14853 0.0
C91 C 0.72612 0.92225 0.07631 0.0
C92 C 0.71069 0.94774 0.07399 0.0
C93 C 0.71313 0.93226 0.08304 0.0
C94 C 0.73432 0.94334 0.0517 0.0
C95 C 0.7212 0.95341 0.05807 0.0
C96 C 0.73671 0.92794 0.06071 0.0
C97 C 0.74316 0.84775 0.10377 0.0
C98 C 0.75641 0.84469 0.07006 0.0
C99 C 0.75879 0.82314 0.09593 0.0
C100 C 0.74919 0.83235 0.10973 0.0
C101 C 0.76249 0.82919 0.07591 0.0
C102 C 0.74687 0.8539 0.08389 0.0
C103 C 0.73315 0.85742 0.11836 0.0
O104 O 0.72013 0.90091 0.14718 0.0
O105 O 0.6977 0.89234 0.13168 0.0
O106 O 0.71835 0.86117 0.1117 0.0
O107 O 0.74077 0.86986 0.12708 0.0
H108 H 0.70725 0.86754 0.16293 0.0
H109 H 0.69686 0.85642 0.19591 0.0
H110 H 0.67763 0.90424 0.21189 0.0
H111 H 0.68775 0.9151 0.17872 0.0
H112 H 0.70043 0.95514 0.07919 0.0
H113 H 0.70482 0.92805 0.0951 0.0
H114 H 0.74285 0.94742 0.03983 0.0
H115 H 0.74685 0.92041 0.0554 0.0
H116 H 0.75921 0.8498 0.05489 0.0
H117 H 0.76314 0.81119 0.10083 0.0
H118 H 0.74644 0.82744 0.12503 0.0
H119 H 0.74239 0.86584 0.0791 0.0
C120 C 0.13003 0.69729 0.17111 0.0
C121 C 0.14652 0.7005 0.17599 0.0
C122 C 0.14356 0.68593 0.20901 0.0
C123 C 0.15324 0.69485 0.19476 0.0
C124 C 0.12703 0.68277 0.20395 0.0
C125 C 0.12035 0.6884 0.18518 0.0
U126 U 0.13313 0.72069 0.11973 0.0
O127 O 0.12348 0.7148 0.08861 0.0
O128 O 0.11546 0.73728 0.10449 0.0
C129 C 0.11356 0.72754 0.08835 0.0
C130 C 0.12275 0.70317 0.15148 0.0
C131 C 0.09646 0.72476 0.08132 0.0
C132 C 0.07454 0.70688 0.06894 0.0
C133 C 0.09029 0.70894 0.07736 0.0
C134 C 0.07075 0.73634 0.06874 0.0
C135 C 0.06464 0.72057 0.06438 0.0
C136 C 0.08649 0.73839 0.07704 0.0
C137 C 0.17282 0.74187 0.10423 0.0
C138 C 0.17537 0.75534 0.07059 0.0
C139 C 0.19759 0.75701 0.09563 0.0
C140 C 0.18849 0.74751 0.10965 0.0
C141 C 0.19116 0.76102 0.07589 0.0
C142 C 0.16627 0.74587 0.08465 0.0
C143 C 0.16334 0.73192 0.11908 0.0
O144 O 0.12072 0.71914 0.15014 0.0
O145 O 0.12881 0.69666 0.13439 0.0
O146 O 0.15931 0.71719 0.11252 0.0
O147 O 0.15118 0.73961 0.12834 0.0
H148 H 0.15416 0.70741 0.1653 0.0
H149 H 0.16595 0.69767 0.19825 0.0
H150 H 0.11929 0.67575 0.21439 0.0
H151 H 0.1076 0.68577 0.18163 0.0
H152 H 0.07013 0.69457 0.06596 0.0
H153 H 0.09769 0.69817 0.08044 0.0
H154 H 0.06357 0.74716 0.06515 0.0
H155 H 0.09101 0.75071 0.07971 0.0
H156 H 0.17012 0.75802 0.05546 0.0
H157 H 0.2096 0.76137 0.10035 0.0
H158 H 0.19368 0.74461 0.12476 0.0
H159 H 0.15416 0.74161 0.08022 0.0
C160 C 0.32357 0.89102 0.88247 0.0
C161 C 0.31379 0.88033 0.87057 0.0
C162 C 0.33549 0.87796 0.84455 0.0
C163 C 0.31966 0.87394 0.85173 0.0
C164 C 0.34529 0.88853 0.85662 0.0
C165 C 0.33936 0.89503 0.87535 0.0
U166 U 0.29946 0.88722 0.93326 0.0
O167 O 0.30533 0.89566 0.96495 0.0
O168 O 0.28311 0.90466 0.94927 0.0
C169 C 0.29255 0.9055 0.96584 0.0
C170 C 0.31763 0.89797 0.90234 0.0
C171 C 0.29547 0.92201 0.97431 0.0
C172 C 0.31045 0.94781 0.97552 0.0
C173 C 0.30791 0.93228 0.96664 0.0
C174 C 0.28804 0.94288 0.99959 0.0
C175 C 0.30058 0.95325 0.99221 0.0
C176 C 0.28555 0.92744 0.99075 0.0
C177 C 0.27735 0.84766 0.94656 0.0
C178 C 0.26325 0.84477 0.97974 0.0
C179 C 0.26252 0.8226 0.9546 0.0
C180 C 0.27211 0.83191 0.9409 0.0
C181 C 0.258 0.82889 0.97422 0.0
C182 C 0.27283 0.85406 0.96602 0.0
C183 C 0.28758 0.85729 0.93219 0.0
O184 O 0.30172 0.90063 0.90366 0.0
O185 O 0.32385 0.89136 0.91929 0.0
O186 O 0.30237 0.86079 0.93909 0.0
O187 O 0.28022 0.86988 0.92345 0.0
H188 H 0.30162 0.8769 0.87584 0.0
H189 H 0.31189 0.86568 0.84292 0.0
H190 H 0.35747 0.89198 0.85143 0.0
H191 H 0.34711 0.90322 0.8843 0.0
H192 H 0.32026 0.95544 0.96953 0.0
H193 H 0.31569 0.92827 0.95392 0.0
H194 H 0.27999 0.94676 1.01209 0.0
H195 H 0.27583 0.9197 0.99679 0.0
H196 H 0.26019 0.84992 0.99481 0.0
H197 H 0.2585 0.81053 0.94973 0.0
H198 H 0.27545 0.82682 0.92589 0.0
H199 H 0.27681 0.86622 0.97064 0.0
C200 C 0.12867 0.322 0.88152 0.0
C201 C 0.1453 0.31975 0.87647 0.0
C202 C 0.14112 0.33336 0.843 0.0
C203 C 0.15147 0.32538 0.85739 0.0
C204 C 0.12442 0.33542 0.84815 0.0
C205 C 0.11828 0.3298 0.86722 0.0
U206 U 0.13363 0.299 0.93285 0.0
O207 O 0.12569 0.30551 0.96462 0.0
O208 O 0.11656 0.28297 0.94988 0.0
C209 C 0.11593 0.29272 0.96618 0.0
C210 C 0.12207 0.31638 0.90166 0.0
C211 C 0.09954 0.29576 0.975 0.0
C212 C 0.07082 0.30353 0.97167 0.0
C213 C 0.08646 0.30159 0.96282 0.0
C214 C 0.08135 0.29411 1.00491 0.0
C215 C 0.06805 0.2996 0.99278 0.0
C216 C 0.09691 0.2922 0.99609 0.0
C217 C 0.17346 0.27742 0.946 0.0
C218 C 0.17647 0.26368 0.97939 0.0
C219 C 0.19855 0.26263 0.95409 0.0
C220 C 0.18919 0.27211 0.94031 0.0
C221 C 0.19231 0.2583 0.97381 0.0
C222 C 0.16714 0.27314 0.9656 0.0
C223 C 0.16365 0.28732 0.93146 0.0
O224 O 0.11984 0.30047 0.90338 0.0
O225 O 0.1289 0.32295 0.91824 0.0
O226 O 0.16016 0.30222 0.93791 0.0
O227 O 0.15098 0.27974 0.92322 0.0
H228 H 0.15351 0.31374 0.88736 0.0
H229 H 0.16441 0.32374 0.85407 0.0
H230 H 0.11604 0.34126 0.83734 0.0
H231 H 0.1054 0.33156 0.87083 0.0
H232 H 0.06082 0.30769 0.96187 0.0
H233 H 0.0883 0.3044 0.94648 0.0
H234 H 0.07974 0.29126 1.02127 0.0
H235 H 0.10689 0.28776 1.00574 0.0
H236 H 0.17137 0.26076 0.99454 0.0
H237 H 0.2106 0.25852 0.94918 0.0
H238 H 0.19422 0.27525 0.92519 0.0
H239 H 0.15498 0.27716 0.97024 0.0
C240 C 0.69769 0.12783 0.8804 0.0
C241 C 0.70144 0.14406 0.87489 0.0
C242 C 0.68579 0.14118 0.84266 0.0
C243 C 0.69555 0.15068 0.85618 0.0
C244 C 0.68214 0.12489 0.84831 0.0
C245 C 0.68805 0.11829 0.867 0.0
U246 U 0.72142 0.13169 0.93133 0.0
O247 O 0.71572 0.12269 0.96281 0.0
O248 O 0.73819 0.11442 0.94701 0.0
C249 C 0.72867 0.11307 0.96347 0.0
C250 C 0.7037 0.12074 0.90008 0.0
C251 C 0.72616 0.09635 0.9716 0.0
C252 C 0.7093 0.07212 0.97747 0.0
C253 C 0.71154 0.08758 0.96827 0.0
C254 C 0.73637 0.07396 0.99297 0.0
C255 C 0.72163 0.06522 0.99015 0.0
C256 C 0.73857 0.08935 0.98383 0.0
C257 C 0.74258 0.17149 0.94566 0.0
C258 C 0.75552 0.17459 0.97956 0.0
C259 C 0.75847 0.19593 0.95352 0.0
C260 C 0.74888 0.18677 0.93966 0.0
C261 C 0.76187 0.18996 0.97366 0.0
C262 C 0.746 0.16542 0.96566 0.0
C263 C 0.73258 0.1619 0.931 0.0
O264 O 0.7197 0.11875 0.90131 0.0
O265 O 0.69728 0.12699 0.91712 0.0
O266 O 0.71784 0.15795 0.93769 0.0
O267 O 0.74025 0.14962 0.92198 0.0
H268 H 0.70886 0.15162 0.88511 0.0
H269 H 0.69844 0.16331 0.85246 0.0
H270 H 0.67487 0.11715 0.83816 0.0
H271 H 0.68508 0.10571 0.87098 0.0
H272 H 0.69778 0.06576 0.97504 0.0
H273 H 0.70179 0.09276 0.95886 0.0
H274 H 0.74626 0.0689 1.00225 0.0
H275 H 0.74996 0.0959 0.98654 0.0
H276 H 0.75809 0.16955 0.99484 0.0
H277 H 0.76303 0.20779 0.94857 0.0
H278 H 0.74637 0.19162 0.92426 0.0
H279 H 0.74131 0.15357 0.9705 0.0
C280 C 0.8914 0.69854 0.87921 0.0
C281 C 0.87468 0.70089 0.87479 0.0
C282 C 0.8782 0.68805 0.84073 0.0
C283 C 0.86812 0.69566 0.85573 0.0
C284 C 0.89498 0.68586 0.84525 0.0
C285 C 0.9015 0.69105 0.86431 0.0
U286 U 0.88801 0.72066 0.93146 0.0
O287 O 0.89653 0.71321 0.96265 0.0
O288 O 0.90588 0.73586 0.94839 0.0
C289 C 0.90696 0.72548 0.96404 0.0
C290 C 0.89844 0.70366 0.89931 0.0
C291 C 0.92363 0.72154 0.97188 0.0
C292 C 0.95314 0.72655 0.97265 0.0
C293 C 0.93777 0.72883 0.9633 0.0
C294 C 0.94066 0.70925 0.99891 0.0
C295 C 0.95473 0.71697 0.9908 0.0
C296 C 0.9253 0.71157 0.98961 0.0
C297 C 0.84878 0.74297 0.94644 0.0
C298 C 0.8449 0.75403 0.98127 0.0
C299 C 0.82536 0.76043 0.95396 0.0
C300 C 0.83444 0.75095 0.93991 0.0
C301 C 0.83046 0.76206 0.97482 0.0
C302 C 0.85401 0.74462 0.96717 0.0
C303 C 0.85829 0.73314 0.93148 0.0
O304 O 0.90106 0.71948 0.90142 0.0
O305 O 0.89175 0.69693 0.91589 0.0
O306 O 0.86154 0.71803 0.93736 0.0
O307 O 0.871 0.74062 0.92317 0.0
H308 H 0.86671 0.70672 0.88611 0.0
H309 H 0.8552 0.69771 0.85267 0.0
H310 H 0.90304 0.67985 0.83421 0.0
H311 H 0.91443 0.68911 0.86749 0.0
H312 H 0.96367 0.73283 0.96611 0.0
H313 H 0.93693 0.73671 0.94975 0.0
H314 H 0.94145 0.7016 1.01267 0.0
H315 H 0.91461 0.7059 0.99665 0.0
H316 H 0.84928 0.7552 0.99714 0.0
H317 H 0.81421 0.76631 0.94856 0.0
H318 H 0.83025 0.74983 0.92395 0.0
H319 H 0.86516 0.73864 0.97244 0.0
C320 C 0.82284 0.62865 0.66701 0.0
C321 C 0.81694 0.64391 0.6738 0.0
C322 C 0.83418 0.64229 0.70483 0.0
C323 C 0.82253 0.65066 0.69258 0.0
C324 C 0.83997 0.62695 0.69792 0.0
C325 C 0.83434 0.62021 0.67919 0.0
U326 U 0.79953 0.63215 0.61574 0.0
O327 O 0.80631 0.62402 0.58413 0.0
O328 O 0.78403 0.6144 0.59908 0.0
C329 C 0.79388 0.61378 0.58286 0.0
C330 C 0.81735 0.62157 0.64709 0.0
C331 C 0.79759 0.59733 0.57468 0.0
C332 C 0.80437 0.56853 0.57953 0.0
C333 C 0.80195 0.58426 0.58781 0.0
C334 C 0.79848 0.57893 0.54495 0.0
C335 C 0.80252 0.56565 0.558 0.0
C336 C 0.79604 0.59458 0.55323 0.0
C337 C 0.77687 0.67126 0.60184 0.0
C338 C 0.76499 0.67482 0.56739 0.0
C339 C 0.75989 0.69502 0.59434 0.0
C340 C 0.76948 0.68592 0.60826 0.0
C341 C 0.75759 0.68961 0.5737 0.0
C342 C 0.77451 0.6657 0.58136 0.0
C343 C 0.78698 0.66179 0.61653 0.0
O344 O 0.80148 0.61884 0.64548 0.0
O345 O 0.82369 0.62836 0.63034 0.0
O346 O 0.80201 0.65865 0.61022 0.0
O347 O 0.77968 0.64901 0.62493 0.0
H348 H 0.8081 0.65065 0.66451 0.0
H349 H 0.81795 0.66257 0.6973 0.0
H350 H 0.84877 0.62007 0.70709 0.0
H351 H 0.83902 0.60841 0.67418 0.0
H352 H 0.80765 0.55862 0.58998 0.0
H353 H 0.80326 0.58617 0.60444 0.0
H354 H 0.79669 0.57715 0.52838 0.0
H355 H 0.79262 0.60452 0.54287 0.0
H356 H 0.76328 0.67021 0.55171 0.0
H357 H 0.75449 0.70643 0.59962 0.0
H358 H 0.77117 0.69036 0.62403 0.0
H359 H 0.78004 0.65432 0.57618 0.0
C360 C 0.39213 0.82488 0.66786 0.0
C361 C 0.38094 0.81514 0.67902 0.0
C362 C 0.37953 0.83574 0.70659 0.0
C363 C 0.37476 0.82048 0.69823 0.0
C364 C 0.39063 0.84549 0.69517 0.0
C365 C 0.39688 0.84009 0.67605 0.0
U366 U 0.38811 0.80142 0.6166 0.0
O367 O 0.39551 0.80839 0.58474 0.0
O368 O 0.40585 0.78631 0.59938 0.0
C369 C 0.40602 0.79621 0.58318 0.0
C370 C 0.39881 0.81952 0.6476 0.0
C371 C 0.42225 0.80018 0.57434 0.0
C372 C 0.45182 0.80376 0.57761 0.0
C373 C 0.43636 0.80153 0.58683 0.0
C374 C 0.43914 0.80387 0.54346 0.0
C375 C 0.45342 0.80467 0.55577 0.0
C376 C 0.42375 0.80162 0.55266 0.0
C377 C 0.34919 0.77783 0.60411 0.0
C378 C 0.34571 0.76487 0.5703 0.0
C379 C 0.32493 0.76144 0.597 0.0
C380 C 0.33418 0.77117 0.61059 0.0
C381 C 0.33055 0.75821 0.57665 0.0
C382 C 0.35495 0.77457 0.58392 0.0
C383 C 0.35875 0.78818 0.61841 0.0
O384 O 0.40206 0.80377 0.6458 0.0
O385 O 0.39149 0.82568 0.6311 0.0
O386 O 0.36142 0.80323 0.61189 0.0
O387 O 0.37189 0.78123 0.6264 0.0
H388 H 0.37702 0.80338 0.67293 0.0
H389 H 0.3664 0.81254 0.70663 0.0
H390 H 0.39436 0.85742 0.70085 0.0
H391 H 0.40539 0.84784 0.66759 0.0
H392 H 0.46256 0.80422 0.58755 0.0
H393 H 0.43548 0.80046 0.60362 0.0
H394 H 0.43987 0.80482 0.52665 0.0
H395 H 0.413 0.80066 0.54276 0.0
H396 H 0.35032 0.76281 0.55469 0.0
H397 H 0.31344 0.75633 0.60251 0.0
H398 H 0.3296 0.77351 0.62617 0.0
H399 H 0.36655 0.77963 0.57867 0.0
C400 C 0.19586 0.39011 0.66729 0.0
C401 C 0.20152 0.37485 0.67441 0.0
C402 C 0.18432 0.37713 0.70543 0.0
C403 C 0.19584 0.36843 0.69334 0.0
C404 C 0.17875 0.39246 0.69817 0.0
C405 C 0.18447 0.39887 0.67929 0.0
U406 U 0.21954 0.3861 0.61625 0.0
O407 O 0.21301 0.39416 0.58452 0.0
O408 O 0.23526 0.40368 0.59963 0.0
C409 C 0.22551 0.40431 0.5833 0.0
C410 C 0.20153 0.39694 0.6473 0.0
C411 C 0.22196 0.42078 0.57504 0.0
C412 C 0.21522 0.44959 0.57981 0.0
C413 C 0.2174 0.43382 0.58808 0.0
C414 C 0.22172 0.43929 0.54536 0.0
C415 C 0.21753 0.45254 0.55835 0.0
C416 C 0.22391 0.42359 0.55364 0.0
C417 C 0.24227 0.34689 0.60306 0.0
C418 C 0.25575 0.34386 0.56948 0.0
C419 C 0.2581 0.32237 0.59542 0.0
C420 C 0.24838 0.33155 0.60911 0.0
C421 C 0.26188 0.32839 0.5754 0.0
C422 C 0.24605 0.35302 0.5832 0.0
C423 C 0.23201 0.35642 0.61749 0.0
O424 O 0.21742 0.3996 0.64583 0.0
O425 O 0.19529 0.39001 0.63058 0.0
O426 O 0.21706 0.35957 0.61086 0.0
O427 O 0.23923 0.36923 0.6259 0.0
H428 H 0.21027 0.36788 0.66527 0.0
H429 H 0.20025 0.35652 0.69833 0.0
H430 H 0.17008 0.3996 0.7072 0.0
H431 H 0.17998 0.41068 0.67404 0.0
H432 H 0.21181 0.45948 0.59021 0.0
H433 H 0.21577 0.43186 0.60466 0.0
H434 H 0.22385 0.44112 0.52886 0.0
H435 H 0.22749 0.41367 0.54336 0.0
H436 H 0.25823 0.34879 0.55412 0.0
H437 H 0.2628 0.31063 0.6006 0.0
H438 H 0.24565 0.32667 0.62444 0.0
H439 H 0.24142 0.36487 0.57828 0.0
C440 C 0.62868 0.19668 0.66761 0.0
C441 C 0.64469 0.20099 0.67361 0.0
C442 C 0.64147 0.18586 0.70619 0.0
C443 C 0.65103 0.19562 0.69273 0.0
C444 C 0.62542 0.18163 0.70004 0.0
C445 C 0.6191 0.18699 0.68093 0.0
U446 U 0.63299 0.2197 0.6162 0.0
O447 O 0.62507 0.21296 0.58452 0.0
O448 O 0.6155 0.23532 0.59922 0.0
C449 C 0.615 0.2255 0.58298 0.0
C450 C 0.62191 0.20209 0.64748 0.0
C451 C 0.59859 0.22199 0.57454 0.0
C452 C 0.57077 0.21147 0.578 0.0
C453 C 0.58647 0.21405 0.58638 0.0
C454 C 0.57931 0.22456 0.54585 0.0
C455 C 0.56698 0.21678 0.55763 0.0
C456 C 0.59493 0.22711 0.55423 0.0
C457 C 0.6723 0.2422 0.60285 0.0
C458 C 0.67569 0.25469 0.56873 0.0
C459 C 0.69642 0.25871 0.59536 0.0
C460 C 0.68726 0.24906 0.60917 0.0
C461 C 0.69077 0.26159 0.57495 0.0
C462 C 0.66653 0.24512 0.58258 0.0
C463 C 0.66272 0.23211 0.61744 0.0
O464 O 0.6193 0.21794 0.6457 0.0
O465 O 0.6289 0.19566 0.63091 0.0
O466 O 0.65957 0.21711 0.61108 0.0
O467 O 0.64988 0.23941 0.62568 0.0
H468 H 0.65226 0.2085 0.66351 0.0
H469 H 0.66336 0.19927 0.69705 0.0
H470 H 0.61779 0.17394 0.70984 0.0
H471 H 0.60674 0.1835 0.6765 0.0
H472 H 0.56162 0.20531 0.58743 0.0
H473 H 0.58912 0.20999 0.60211 0.0
H474 H 0.57679 0.22907 0.5303 0.0
H475 H 0.60413 0.23333 0.54491 0.0
H476 H 0.67089 0.25686 0.55323 0.0
H477 H 0.70805 0.2637 0.60056 0.0
H478 H 0.69188 0.24693 0.62478 0.0
H479 H 0.65492 0.23999 0.57749 0.0
C480 C 0.82327 0.39012 0.37939 0.0
C481 C 0.8192 0.37403 0.37355 0.0
C482 C 0.8353 0.37689 0.34166 0.0
C483 C 0.82515 0.36748 0.35483 0.0
C484 C 0.83925 0.39303 0.34763 0.0
C485 C 0.83329 0.39956 0.36632 0.0
U486 U 0.79949 0.38674 0.43057 0.0
O487 O 0.80544 0.39609 0.46183 0.0
O488 O 0.78305 0.40441 0.44597 0.0
C489 C 0.79279 0.40613 0.46217 0.0
C490 C 0.81724 0.3972 0.39905 0.0
C491 C 0.7957 0.42313 0.46956 0.0
C492 C 0.8125 0.44323 0.48794 0.0
C493 C 0.81068 0.42772 0.47883 0.0
C494 C 0.78456 0.44999 0.47834 0.0
C495 C 0.79937 0.45446 0.48811 0.0
C496 C 0.78274 0.4345 0.46927 0.0
C497 C 0.77792 0.34726 0.44575 0.0
C498 C 0.76575 0.344 0.48009 0.0
C499 C 0.76107 0.32344 0.45348 0.0
C500 C 0.77071 0.33245 0.43951 0.0
C501 C 0.75851 0.32909 0.47395 0.0
C502 C 0.77532 0.35304 0.46609 0.0
C503 C 0.78796 0.35668 0.43092 0.0
O504 O 0.80126 0.39929 0.40028 0.0
O505 O 0.82364 0.39097 0.41612 0.0
O506 O 0.80278 0.36053 0.43746 0.0
O507 O 0.78038 0.36894 0.42175 0.0
H508 H 0.81149 0.36655 0.38352 0.0
H509 H 0.822 0.35496 0.35083 0.0
H510 H 0.84682 0.40071 0.33775 0.0
H511 H 0.83651 0.41202 0.37055 0.0
H512 H 0.82402 0.4462 0.49551 0.0
H513 H 0.82087 0.41921 0.47959 0.0
H514 H 0.77428 0.45841 0.47787 0.0
H515 H 0.77099 0.43129 0.46247 0.0
H516 H 0.76384 0.3488 0.49565 0.0
H517 H 0.75581 0.31193 0.44833 0.0
H518 H 0.77258 0.32783 0.42386 0.0
H519 H 0.78069 0.36454 0.47111 0.0
C520 C 0.62866 0.82395 0.38142 0.0
C521 C 0.64421 0.81877 0.37467 0.0
C522 C 0.64176 0.8357 0.34346 0.0
C523 C 0.6507 0.82457 0.35584 0.0
C524 C 0.62615 0.8408 0.35035 0.0
C525 C 0.61968 0.83497 0.36915 0.0
U526 U 0.63269 0.79993 0.43211 0.0
O527 O 0.62447 0.80591 0.46388 0.0
O528 O 0.61516 0.78381 0.44832 0.0
C529 C 0.61449 0.79327 0.46488 0.0
C530 C 0.62174 0.81808 0.40127 0.0
C531 C 0.598 0.79648 0.4733 0.0
C532 C 0.57136 0.80993 0.47206 0.0
C533 C 0.58698 0.80722 0.46348 0.0
C534 C 0.57774 0.79118 0.50023 0.0
C535 C 0.56658 0.80195 0.49059 0.0
C536 C 0.59328 0.7885 0.49167 0.0
C537 C 0.67212 0.77758 0.44529 0.0
C538 C 0.67538 0.76451 0.47908 0.0
C539 C 0.69635 0.7612 0.4526 0.0
C540 C 0.68719 0.77098 0.43895 0.0
C541 C 0.69058 0.75787 0.47286 0.0
C542 C 0.66623 0.77425 0.4654 0.0
C543 C 0.66256 0.78785 0.43088 0.0
O544 O 0.61924 0.80217 0.4025 0.0
O545 O 0.62852 0.82424 0.41814 0.0
O546 O 0.6592 0.80269 0.43767 0.0
O547 O 0.64986 0.78057 0.42225 0.0
H548 H 0.65135 0.8103 0.38403 0.0
H549 H 0.66282 0.82053 0.35114 0.0
H550 H 0.61883 0.84917 0.3411 0.0
H551 H 0.60763 0.83908 0.37411 0.0
H552 H 0.56312 0.81839 0.46432 0.0
H553 H 0.59047 0.8135 0.44926 0.0
H554 H 0.57439 0.78458 0.51426 0.0
H555 H 0.60161 0.7801 0.49939 0.0
H556 H 0.67065 0.76239 0.49462 0.0
H557 H 0.70787 0.7561 0.44718 0.0
H558 H 0.69187 0.77336 0.42343 0.0
H559 H 0.65457 0.77925 0.47054 0.0
C560 C 0.19953 0.62762 0.38305 0.0
C561 C 0.20115 0.64447 0.37909 0.0
C562 C 0.18856 0.64098 0.34487 0.0
C563 C 0.19568 0.6511 0.36019 0.0
C564 C 0.18711 0.62406 0.34892 0.0
C565 C 0.19253 0.61746 0.36785 0.0
U566 U 0.22239 0.63173 0.43443 0.0
O567 O 0.21603 0.6233 0.46602 0.0
O568 O 0.23866 0.61461 0.45102 0.0
C569 C 0.22896 0.61371 0.46736 0.0
C570 C 0.20509 0.62055 0.40296 0.0
C571 C 0.22617 0.59723 0.47596 0.0
C572 C 0.21658 0.56907 0.47307 0.0
C573 C 0.21852 0.58476 0.46441 0.0
C574 C 0.22973 0.57832 0.50484 0.0
C575 C 0.22232 0.56564 0.49333 0.0
C576 C 0.23163 0.59393 0.49622 0.0
C577 C 0.24365 0.6716 0.44822 0.0
C578 C 0.2583 0.67412 0.48105 0.0
C579 C 0.25743 0.69708 0.45706 0.0
C580 C 0.24799 0.68775 0.44322 0.0
C581 C 0.26271 0.69038 0.47615 0.0
C582 C 0.24885 0.66483 0.46721 0.0
C583 C 0.23377 0.66185 0.4336 0.0
O584 O 0.22103 0.61836 0.40466 0.0
O585 O 0.19844 0.62698 0.41976 0.0
O586 O 0.21892 0.65812 0.44011 0.0
O587 O 0.24146 0.64937 0.42507 0.0
H588 H 0.20662 0.65249 0.39062 0.0
H589 H 0.19718 0.66413 0.35749 0.0
H590 H 0.18152 0.61595 0.33759 0.0
H591 H 0.19118 0.60442 0.37066 0.0
H592 H 0.21091 0.55954 0.46375 0.0
H593 H 0.21423 0.58713 0.44871 0.0
H594 H 0.23402 0.57621 0.52059 0.0
H595 H 0.23749 0.60344 0.50539 0.0
H596 H 0.26196 0.66865 0.49572 0.0
H597 H 0.26078 0.70946 0.45268 0.0
H598 H 0.24411 0.69314 0.42858 0.0
H599 H 0.24557 0.65235 0.47132 0.0
C600 C 0.39244 0.19722 0.3814 0.0
C601 C 0.37599 0.20032 0.37619 0.0
C602 C 0.37969 0.18662 0.34271 0.0
C603 C 0.36966 0.19505 0.35703 0.0
C604 C 0.39621 0.18365 0.34803 0.0
C605 C 0.40251 0.1889 0.3672 0.0
U606 U 0.38799 0.21987 0.43299 0.0
O607 O 0.39572 0.21291 0.46471 0.0
O608 O 0.40537 0.23537 0.45027 0.0
C609 C 0.40577 0.22545 0.46643 0.0
C610 C 0.39919 0.20249 0.4016 0.0
C611 C 0.42208 0.22199 0.47529 0.0
C612 C 0.45116 0.21571 0.47174 0.0
C613 C 0.43559 0.21782 0.46276 0.0
C614 C 0.43971 0.22151 0.50581 0.0
C615 C 0.45343 0.21777 0.49336 0.0
C616 C 0.42422 0.2236 0.49685 0.0
C617 C 0.34854 0.24218 0.44624 0.0
C618 C 0.34585 0.25626 0.47944 0.0
C619 C 0.32332 0.2566 0.45475 0.0
C620 C 0.33262 0.24714 0.4409 0.0
C621 C 0.32982 0.26126 0.47422 0.0
C622 C 0.35512 0.2468 0.46557 0.0
C623 C 0.35822 0.2322 0.43165 0.0
O624 O 0.40179 0.21833 0.40354 0.0
O625 O 0.39219 0.19594 0.4181 0.0
O626 O 0.36138 0.21718 0.43795 0.0
O627 O 0.37108 0.23958 0.42357 0.0
H628 H 0.36805 0.2068 0.38697 0.0
H629 H 0.35696 0.19772 0.35336 0.0
H630 H 0.40423 0.17701 0.33753 0.0
H631 H 0.41523 0.18637 0.37099 0.0
H632 H 0.46148 0.21293 0.4617 0.0
H633 H 0.43416 0.21652 0.44606 0.0
H634 H 0.44095 0.2229 0.52253 0.0
H635 H 0.41392 0.22675 0.50677 0.0
H636 H 0.35116 0.25944 0.49438 0.0
H637 H 0.31112 0.26042 0.45012 0.0
H638 H 0.32739 0.24372 0.42599 0.0
H639 H 0.36741 0.24303 0.46996 0.0
H640 H 0.29928 0.9613 0.0336 0.0
H641 H 0.3075 0.98246 0.97275 0.0
H642 H 0.3007 0.98845 0.04922 0.0
H643 H 0.30968 1.00962 0.98852 0.0
H644 H 0.28949 0.05612 1.02031 0.0
H645 H 0.29143 0.0292 1.00418 0.0
H646 H 0.31818 0.01123 0.05769 0.0
H647 H 0.31557 0.03806 0.07428 0.0
C648 C 0.30151 0.97175 1.02355 0.0
C649 C 0.30307 0.96969 1.00187 0.0
C650 C 0.30254 0.98732 0.03256 0.0
C651 C 0.30523 1.00128 1.02015 0.0
C652 C 0.30736 0.99917 0.99853 0.0
C653 C 0.3063 0.98357 0.9895 0.0
C654 C 0.29571 0.04641 0.02872 0.0
C655 C 0.3022 0.04923 0.04873 0.0
C656 C 0.29703 0.03101 1.01932 0.0
C657 C 0.30494 0.01799 0.02962 0.0
C658 C 0.31183 0.02091 0.0494 0.0
C659 C 0.31048 0.03635 0.05884 0.0
H660 H 0.98356 0.29429 0.07577 0.0
H661 H 0.96355 0.31297 1.01809 0.0
H662 H 0.01105 0.29502 0.06076 0.0
H663 H 0.99096 0.31302 1.00278 0.0
H664 H 0.04502 0.32393 0.98757 0.0
H665 H 0.01784 0.32584 1.00363 0.0
H666 H 0.02616 0.27968 0.035 0.0
H667 H 0.05321 0.27783 1.0191 0.0
C668 C 0.98503 0.29871 0.05995 0.0
C669 C 0.9713 0.30349 0.04812 0.0
C670 C 1.00078 0.29892 0.05124 0.0
C671 C 1.00322 0.30391 0.03047 0.0
C672 C 0.98957 0.30919 1.01885 0.0
C673 C 0.97381 0.30898 0.02756 0.0
C674 C 0.04098 0.31416 0.9978 0.0
C675 C 0.05134 0.30078 1.00215 0.0
C676 C 0.02541 0.31526 1.00702 0.0
C677 C 0.01984 0.30298 1.02076 0.0
C678 C 0.03017 0.28955 0.02491 0.0
C679 C 0.0457 0.28847 1.01574 0.0
H680 H 0.73052 0.05645 0.02975 0.0
H681 H 0.70734 0.03736 0.97426 0.0
H682 H 0.72865 0.02958 0.04603 0.0
H683 H 0.70478 0.01056 0.99095 0.0
H684 H 0.72418 0.96135 1.01679 0.0
H685 H 0.72263 0.98838 1.00084 0.0
H686 H 0.71032 1.0095 0.06059 0.0
H687 H 0.71261 0.98249 0.07675 0.0
C688 C 0.72494 0.04652 1.02104 0.0
C689 C 0.71926 0.04904 1.00057 0.0
C690 C 0.72365 0.03114 0.03051 0.0
C691 C 0.71659 0.01784 1.01982 0.0
C692 C 0.71048 0.02046 0.99956 0.0
C693 C 0.71179 0.03588 0.99005 0.0
C694 C 0.7212 0.97176 0.02657 0.0
C695 C 0.71873 0.96975 0.04812 0.0
C696 C 0.72009 0.98726 1.01735 0.0
C697 C 0.71641 1.00118 0.02941 0.0
C698 C 0.7134 0.99909 0.05087 0.0
C699 C 0.71454 0.98357 0.06011 0.0
H700 H 0.03621 0.73697 0.07359 0.0
H701 H 0.05589 0.69976 0.0327 0.0
H702 H 1.0098 0.7351 0.05593 0.0
H703 H 0.02924 0.69748 1.01544 0.0
H704 H 0.98559 0.71371 0.9739 0.0
H705 H 0.0119 0.71366 0.99215 0.0
H706 H 0.98649 0.71708 0.0511 0.0
H707 H 0.96028 0.7178 0.03287 0.0
C708 C 0.03488 0.72833 0.06089 0.0
C709 C 0.0482 0.71857 0.05452 0.0
C710 C 0.01967 0.72713 0.05089 0.0
C711 C 0.01738 0.71614 0.03424 0.0
C712 C 0.03063 0.70619 0.02807 0.0
C713 C 0.04585 0.70736 0.03812 0.0
C714 C 0.98562 0.7145 0.99075 0.0
C715 C 0.97079 0.7158 1.00188 0.0
C716 C 1.00071 0.71429 1.00124 0.0
C717 C 1.00133 0.71542 1.02311 0.0
C718 C 0.98648 0.7164 0.03424 0.0
C719 C 0.97142 0.7166 1.02378 0.0
H720 H 0.79124 0.53676 0.57451 0.0
H721 H 0.8171 0.55643 0.52128 0.0
H722 H 0.79179 0.50957 0.55872 0.0
H723 H 0.81705 0.52939 0.50509 0.0
H724 H 0.8257 0.47556 0.48882 0.0
H725 H 0.82794 0.50175 0.50709 0.0
H726 H 0.77835 0.49601 0.52998 0.0
H727 H 0.77637 0.46962 0.51249 0.0
C728 C 0.7972 0.53527 0.55954 0.0
C729 C 0.80404 0.54882 0.54913 0.0
C730 C 0.79733 0.5197 0.55035 0.0
C731 C 0.80432 0.5173 0.53052 0.0
C732 C 0.81165 0.53075 0.52042 0.0
C733 C 0.81152 0.5463 0.52961 0.0
C734 C 0.81535 0.47982 0.49793 0.0
C735 C 0.80083 0.4705 0.49908 0.0
C736 C 0.81657 0.49491 0.50826 0.0
C737 C 0.80333 0.50101 0.52003 0.0
C738 C 0.78888 0.49162 0.52129 0.0
C739 C 0.78765 0.47657 0.51098 0.0
H740 H 0.53704 0.80434 0.4702 0.0
H741 H 0.55842 0.80524 0.53181 0.0
H742 H 0.50969 0.80671 0.48548 0.0
H743 H 0.5311 0.8069 0.5471 0.0
H744 H 0.48005 0.8231 0.56783 0.0
H745 H 0.50721 0.82413 0.55166 0.0
H746 H 0.49122 0.78939 0.50504 0.0
H747 H 0.46418 0.78841 0.5211 0.0
C748 C 0.53593 0.80519 0.48699 0.0
C749 C 0.54994 0.80449 0.49977 0.0
C750 C 0.52023 0.80635 0.49578 0.0
C751 C 0.51815 0.80686 0.51755 0.0
C752 C 0.53221 0.80665 0.53028 0.0
C753 C 0.54789 0.8055 0.52151 0.0
C754 C 0.48236 0.81566 0.55416 0.0
C755 C 0.4699 0.80571 0.54575 0.0
C756 C 0.49793 0.81625 0.54488 0.0
C757 C 0.50141 0.80688 0.52699 0.0
C758 C 0.4889 0.79703 0.51853 0.0
C759 C 0.47337 0.79645 0.52778 0.0
H760 H 0.19616 0.54434 0.49149 0.0
H761 H 0.24539 0.549 0.51588 0.0
H762 H 0.19379 0.51729 0.50773 0.0
H763 H 0.24306 0.5221 0.532 0.0
H764 H 0.22879 0.48115 0.57557 0.0
H765 H 0.22884 0.50847 0.56018 0.0
H766 H 0.20457 0.48946 0.50539 0.0
H767 H 0.20393 0.46223 0.52117 0.0
C768 C 0.20652 0.53955 0.50016 0.0
C769 C 0.22092 0.5489 0.50251 0.0
C770 C 0.20516 0.52406 0.50949 0.0
C771 C 0.21818 0.51757 0.52136 0.0
C772 C 0.23264 0.52685 0.5234 0.0
C773 C 0.23399 0.54229 0.51411 0.0
C774 C 0.22318 0.48283 0.56042 0.0
C775 C 0.21642 0.46945 0.54959 0.0
C776 C 0.2234 0.49847 0.55146 0.0
C777 C 0.21688 0.50114 0.53143 0.0
C778 C 0.20964 0.48787 0.52087 0.0
C779 C 0.20943 0.47222 0.52983 0.0
H780 H 0.53746 0.22094 0.57753 0.0
H781 H 0.55833 0.20831 0.51773 0.0
H782 H 0.51 0.21972 0.56249 0.0
H783 H 0.53093 0.20783 0.50247 0.0
H784 H 0.47778 0.19528 0.48529 0.0
H785 H 0.50494 0.1935 0.50139 0.0
H786 H 0.49381 0.23605 0.53896 0.0
H787 H 0.46677 0.23775 0.52304 0.0
C788 C 0.5362 0.21775 0.56122 0.0
C789 C 0.55014 0.21483 0.54883 0.0
C790 C 0.52045 0.21726 0.55252 0.0
C791 C 0.51823 0.21385 0.53119 0.0
C792 C 0.53214 0.2104 0.51896 0.0
C793 C 0.54788 0.21087 0.52767 0.0
C794 C 0.48119 0.20429 0.49693 0.0
C795 C 0.47006 0.2166 0.50295 0.0
C796 C 0.49675 0.20327 0.50617 0.0
C797 C 0.50156 0.21457 0.5216 0.0
C798 C 0.49043 0.22691 0.5275 0.0
C799 C 0.4749 0.2279 0.51832 0.0
H800 H 0.26217 0.22373 0.06685 0.0
H801 H 0.2352 0.18023 0.0493 0.0
H802 H 0.24565 0.23996 0.0428 0.0
H803 H 0.21916 0.19633 1.02459 0.0
H804 H 0.18189 0.23326 0.99911 0.0
H805 H 0.19808 0.21722 1.02372 0.0
H806 H 0.24162 0.24409 1.00585 0.0
H807 H 0.2253 0.2606 0.98188 0.0
C808 C 0.2527 0.21762 0.05789 0.0
C809 C 0.25002 0.20066 0.06005 0.0
C810 C 0.24336 0.2269 0.0439 0.0
C811 C 0.23109 0.21946 0.0317 0.0
C812 C 0.22839 0.2025 0.03388 0.0
C813 C 0.23773 0.19322 0.04788 0.0
C814 C 0.19489 0.23586 1.00058 0.0
C815 C 0.20227 0.24826 0.98853 0.0
C816 C 0.20422 0.22652 1.01452 0.0
C817 C 0.22117 0.22934 1.01677 0.0
C818 C 0.22856 0.24171 1.00469 0.0
C819 C 0.21923 0.25104 0.99074 0.0
H820 H 0.75641 0.19498 1.01527 0.0
H821 H 0.79011 0.20708 0.96557 0.0
H822 H 0.77298 0.21093 0.03963 0.0
H823 H 0.80644 0.2234 0.98982 0.0
H824 H 0.84083 0.23598 0.0444 0.0
H825 H 0.82451 0.21964 1.02022 0.0
H826 H 0.78004 0.23976 0.04654 0.0
H827 H 0.79632 0.25624 0.07057 0.0
C828 C 0.76738 0.20101 1.00955 0.0
C829 C 0.77194 0.19975 0.98847 0.0
C830 C 0.77678 0.21029 1.02347 0.0
C831 C 0.79102 0.21846 1.01666 0.0
C832 C 0.79562 0.21714 0.9956 0.0
C833 C 0.78617 0.20793 0.98166 0.0
C834 C 0.82758 0.23705 0.04491 0.0
C835 C 0.81991 0.24746 0.05945 0.0
C836 C 0.81823 0.22766 0.03106 0.0
C837 C 0.80097 0.22839 0.03145 0.0
C838 C 0.7933 0.23873 0.04603 0.0
C839 C 0.80264 0.24817 0.05983 0.0
H840 H 0.75746 0.82461 0.03414 0.0
H841 H 0.79037 0.81156 0.08427 0.0
H842 H 0.77395 0.80852 1.00992 0.0
H843 H 0.80698 0.79558 0.06002 0.0
H844 H 0.82257 0.75461 1.01521 0.0
H845 H 0.80629 0.7708 0.0396 0.0
H846 H 0.80021 0.80839 0.99272 0.0
H847 H 0.81634 0.7921 0.96829 0.0
C848 C 0.76832 0.81843 0.03995 0.0
C849 C 0.7726 0.81938 0.06114 0.0
C850 C 0.77779 0.80921 0.02605 0.0
C851 C 0.79183 0.80074 0.03298 0.0
C852 C 0.79612 0.80172 0.05419 0.0
C853 C 0.7866 0.8109 0.0681 0.0
C854 C 0.81786 0.76639 1.01018 0.0
C855 C 0.82073 0.77205 0.98979 0.0
C856 C 0.80854 0.77569 1.02417 0.0
C857 C 0.8019 0.79091 1.01815 0.0
C858 C 0.80487 0.7966 0.99779 0.0
C859 C 0.81414 0.78727 0.98378 0.0
H860 H 0.22415 0.75917 0.06769 0.0
H861 H 0.18025 0.78555 0.05011 0.0
H862 H 0.24016 0.77573 0.04346 0.0
H863 H 0.19615 0.80163 0.0252 0.0
H864 H 0.23276 0.83914 0.99936 0.0
H865 H 0.21683 0.8229 1.02406 0.0
H866 H 0.24419 0.77964 1.00651 0.0
H867 H 0.26058 0.79601 0.98248 0.0
C868 C 0.21791 0.76852 0.05868 0.0
C869 C 0.2009 0.77103 0.0609 0.0
C870 C 0.22706 0.77788 0.04458 0.0
C871 C 0.21945 0.79 0.03232 0.0
C872 C 0.20244 0.79252 0.03454 0.0
C873 C 0.19329 0.78316 0.04865 0.0
C874 C 0.23549 0.8262 1.00091 0.0
C875 C 0.24799 0.8189 0.98895 0.0
C876 C 0.22622 0.81684 1.0149 0.0
C877 C 0.22921 0.79995 1.01729 0.0
C878 C 0.24167 0.79265 1.00526 0.0
C879 C 0.25094 0.802 0.99127 0.0
H880 H 0.76447 0.69646 0.53287 0.0
H881 H 0.72818 0.70494 0.58079 0.0
H882 H 0.74814 0.71252 0.50835 0.0
H883 H 0.71206 0.72139 0.55642 0.0
H884 H 0.67944 0.73458 0.50033 0.0
H885 H 0.6955 0.71804 0.52459 0.0
H886 H 0.73999 0.74121 0.50272 0.0
H887 H 0.72395 0.75788 0.47861 0.0
C888 C 0.75298 0.70171 0.53815 0.0
C889 C 0.74762 0.69941 0.55878 0.0
C890 C 0.74371 0.71105 0.52416 0.0
C891 C 0.72882 0.71826 0.53044 0.0
C892 C 0.72341 0.71588 0.55104 0.0
C893 C 0.73272 0.70661 0.56506 0.0
C894 C 0.69263 0.73627 0.50082 0.0
C895 C 0.70039 0.74759 0.4875 0.0
C896 C 0.70184 0.72677 0.51472 0.0
C897 C 0.71902 0.7283 0.51559 0.0
C898 C 0.72679 0.73956 0.50222 0.0
C899 C 0.71759 0.7491 0.48837 0.0
H900 H 0.28918 0.68043 0.49933 0.0
H901 H 0.25894 0.72278 0.48642 0.0
H902 H 0.30532 0.69656 0.52392 0.0
H903 H 0.27548 0.73908 0.51037 0.0
H904 H 0.29718 0.75857 0.57111 0.0
H905 H 0.28086 0.74195 0.54729 0.0
H906 H 0.32511 0.71875 0.52463 0.0
H907 H 0.34137 0.73488 0.54908 0.0
C908 C 0.28596 0.69318 0.50175 0.0
C909 C 0.27274 0.70029 0.49091 0.0
C910 C 0.29534 0.70248 0.51567 0.0
C911 C 0.29172 0.71913 0.51913 0.0
C912 C 0.27851 0.72625 0.50827 0.0
C913 C 0.26914 0.71695 0.49434 0.0
C914 C 0.30342 0.74979 0.56123 0.0
C915 C 0.3206 0.74806 0.56206 0.0
C916 C 0.29408 0.7404 0.54738 0.0
C917 C 0.30167 0.72904 0.53398 0.0
C918 C 0.31884 0.72726 0.53486 0.0
C919 C 0.32819 0.73666 0.54872 0.0
H920 H 0.26072 0.29524 0.56848 0.0
H921 H 0.28606 0.33923 0.54901 0.0
H922 H 0.27737 0.27911 0.54449 0.0
H923 H 0.30224 0.32318 0.52438 0.0
H924 H 0.34007 0.28685 0.4987 0.0
H925 H 0.32392 0.30281 0.52345 0.0
H926 H 0.28078 0.27461 0.50746 0.0
H927 H 0.29708 0.25823 0.48334 0.0
C928 C 0.26987 0.30148 0.55913 0.0
C929 C 0.27205 0.31855 0.56071 0.0
C930 C 0.27928 0.29224 0.54517 0.0
C931 C 0.29112 0.29984 0.53244 0.0
C932 C 0.29335 0.3169 0.53408 0.0
C933 C 0.28393 0.32614 0.54804 0.0
C934 C 0.32718 0.28394 0.50062 0.0
C935 C 0.31989 0.27122 0.48905 0.0
C936 C 0.31787 0.29323 0.51464 0.0
C937 C 0.30104 0.29001 0.51746 0.0
C938 C 0.29375 0.27731 0.50586 0.0
C939 C 0.30305 0.26804 0.49183 0.0
H940 H 0.72924 0.3136 0.46657 0.0
H941 H 0.76487 0.32274 0.51506 0.0
H942 H 0.71273 0.29762 0.49094 0.0
H943 H 0.74848 0.30662 0.5394 0.0
H944 H 0.70694 0.29041 0.58274 0.0
H945 H 0.72302 0.30693 0.55846 0.0
H946 H 0.71298 0.27198 0.50946 0.0
H947 H 0.69679 0.25559 0.53369 0.0
C948 C 0.73361 0.31208 0.4824 0.0
C949 C 0.74838 0.31943 0.48886 0.0
C950 C 0.72416 0.3029 0.49638 0.0
C951 C 0.72927 0.30079 0.51716 0.0
C952 C 0.74402 0.30819 0.52362 0.0
C953 C 0.75344 0.31743 0.50966 0.0
C954 C 0.70826 0.28621 0.56681 0.0
C955 C 0.70057 0.27168 0.56015 0.0
C956 C 0.71749 0.29567 0.55289 0.0
C957 C 0.71932 0.29081 0.53197 0.0
C958 C 0.71162 0.27626 0.52534 0.0
C959 C 0.70235 0.26684 0.53925 0.0
H960 H 0.34967 0.17258 0.33505 0.0
H961 H 0.39448 0.18744 0.30432 0.0
H962 H 0.33899 0.16237 0.30199 0.0
H963 H 0.38381 0.17725 0.27127 0.0
H964 H 0.36715 0.1405 0.22155 0.0
H965 H 0.37741 0.15146 0.25439 0.0
H966 H 0.32935 0.17124 0.26794 0.0
H967 H 0.31893 0.15974 0.2354 0.0
C968 C 0.35718 0.17385 0.3212 0.0
C969 C 0.37297 0.1808 0.32239 0.0
C970 C 0.35105 0.16799 0.30222 0.0
C971 C 0.36055 0.16893 0.28394 0.0
C972 C 0.37626 0.17605 0.2851 0.0
C973 C 0.38239 0.18191 0.30406 0.0
C974 C 0.35872 0.14706 0.2316 0.0
C975 C 0.34219 0.14918 0.22583 0.0
C976 C 0.36466 0.15353 0.25034 0.0
C977 C 0.35423 0.16227 0.26383 0.0
C978 C 0.3377 0.16444 0.25803 0.0
C979 C 0.33176 0.158 0.23925 0.0
H980 H 0.86615 0.38041 0.32524 0.0
H981 H 0.81922 0.35763 0.31308 0.0
H982 H 0.87667 0.36972 0.29241 0.0
H983 H 0.82976 0.34692 0.28016 0.0
H984 H 0.86003 0.31715 0.23261 0.0
H985 H 0.84923 0.32727 0.2657 0.0
H986 H 0.87329 0.37379 0.25528 0.0
H987 H 0.88406 0.3637 0.22228 0.0
C988 C 0.85803 0.37322 0.31549 0.0
C989 C 0.8418 0.36996 0.32179 0.0
C990 C 0.86407 0.36709 0.29663 0.0
C991 C 0.85405 0.35752 0.28355 0.0
C992 C 0.83788 0.35408 0.28995 0.0
C993 C 0.83183 0.36022 0.30884 0.0
C994 C 0.8629 0.32959 0.2373 0.0
C995 C 0.87298 0.33958 0.22479 0.0
C996 C 0.8567 0.33539 0.25628 0.0
C997 C 0.86044 0.35133 0.26323 0.0
C998 C 0.87042 0.36135 0.25063 0.0
C999 C 0.8766 0.35555 0.23168 0.0
H1000 H 0.6568 0.88595 0.22526 0.0
H1001 H 0.70126 0.85771 0.23332 0.0
H1002 H 0.64633 0.87535 0.25818 0.0
H1003 H 0.69075 0.84708 0.26629 0.0
H1004 H 0.65885 0.81874 0.31352 0.0
H1005 H 0.66972 0.82909 0.28059 0.0
H1006 H 0.65123 0.87739 0.2953 0.0
H1007 H 0.64036 0.86705 0.32815 0.0
C1008 C 0.66442 0.87759 0.23414 0.0
C1009 C 0.67991 0.87274 0.22663 0.0
C1010 C 0.6584 0.8715 0.25304 0.0
C1011 C 0.66771 0.86039 0.26496 0.0
C1012 C 0.68316 0.85545 0.2574 0.0
C1013 C 0.68918 0.86155 0.23847 0.0
C1014 C 0.65723 0.8316 0.30981 0.0
C1015 C 0.64866 0.84204 0.32348 0.0
C1016 C 0.66347 0.83754 0.29092 0.0
C1017 C 0.66131 0.85407 0.28522 0.0
C1018 C 0.65286 0.86452 0.29898 0.0
C1019 C 0.64663 0.85859 0.31785 0.0
H1020 H 0.19187 0.62833 0.3055 0.0
H1021 H 0.17156 0.66962 0.33889 0.0
H1022 H 0.18125 0.63946 0.27287 0.0
H1023 H 0.16139 0.68102 0.30617 0.0
H1024 H 0.12922 0.68591 0.24765 0.0
H1025 H 0.14037 0.67525 0.2802 0.0
H1026 H 0.18529 0.66209 0.24848 0.0
H1027 H 0.1739 0.67226 0.21574 0.0
C1028 C 0.18515 0.63978 0.30588 0.0
C1029 C 0.18253 0.64804 0.32485 0.0
C1030 C 0.17921 0.64626 0.28714 0.0
C1031 C 0.17045 0.66114 0.28688 0.0
C1032 C 0.16794 0.66945 0.30582 0.0
C1033 C 0.17392 0.663 0.32456 0.0
C1034 C 0.14143 0.68064 0.24757 0.0
C1035 C 0.15063 0.67989 0.22903 0.0
C1036 C 0.14791 0.67469 0.2663 0.0
C1037 C 0.16374 0.6678 0.26699 0.0
C1038 C 0.17299 0.66716 0.24848 0.0
C1039 C 0.16653 0.67316 0.22974 0.0
H1040 H 0.36586 0.86504 0.83655 0.0
H1041 H 0.31931 0.87559 0.80726 0.0
H1042 H 0.37632 0.85429 0.80368 0.0
H1043 H 0.32983 0.86521 0.77421 0.0
H1044 H 0.3484 0.83184 0.72252 0.0
H1045 H 0.33786 0.84111 0.75601 0.0
H1046 H 0.385 0.8628 0.77014 0.0
H1047 H 0.39581 0.85268 0.73725 0.0
C1048 C 0.35791 0.86518 0.82302 0.0
C1049 C 0.34177 0.8712 0.82452 0.0
C1050 C 0.36391 0.85906 0.80412 0.0
C1051 C 0.35397 0.85891 0.78616 0.0
C1052 C 0.33778 0.86486 0.78773 0.0
C1053 C 0.33174 0.87087 0.80668 0.0
C1054 C 0.35661 0.83838 0.73288 0.0
C1055 C 0.37299 0.84148 0.72708 0.0
C1056 C 0.35048 0.84391 0.75202 0.0
C1057 C 0.36053 0.85277 0.76586 0.0
C1058 C 0.37692 0.85585 0.76006 0.0
C1059 C 0.38307 0.85024 0.741 0.0
H1060 H 0.20164 0.36103 0.73593 0.0
H1061 H 0.15279 0.37766 0.72032 0.0
H1062 H 0.1914 0.35031 0.769 0.0
H1063 H 0.14256 0.36695 0.7533 0.0
H1064 H 0.13374 0.36231 0.82341 0.0
H1065 H 0.14421 0.37253 0.7903 0.0
H1066 H 0.17395 0.32896 0.78367 0.0
H1067 H 0.16344 0.31869 0.81684 0.0
C1068 C 0.18869 0.36226 0.73945 0.0
C1069 C 0.17806 0.37028 0.72547 0.0
C1070 C 0.18281 0.35611 0.75843 0.0
C1071 C 0.16615 0.35781 0.76389 0.0
C1072 C 0.15551 0.36569 0.7498 0.0
C1073 C 0.16139 0.37184 0.73086 0.0
C1074 C 0.14239 0.35481 0.81482 0.0
C1075 C 0.14768 0.33963 0.8228 0.0
C1076 C 0.14841 0.36069 0.7958 0.0
C1077 C 0.15989 0.35155 0.78425 0.0
C1078 C 0.16528 0.33642 0.79228 0.0
C1079 C 0.15925 0.33053 0.81131 0.0
H1080 H 0.6725 0.17441 0.71449 0.0
H1081 H 0.62573 0.18397 0.74389 0.0
H1082 H 0.68326 0.16412 0.74748 0.0
H1083 H 0.63648 0.17368 0.77685 0.0
H1084 H 0.65524 0.13709 0.82549 0.0
H1085 H 0.64487 0.14805 0.79271 0.0
H1086 H 0.69114 0.17271 0.78238 0.0
H1087 H 0.70174 0.16123 0.81484 0.0
C1088 C 0.66456 0.1745 0.72804 0.0
C1089 C 0.64822 0.17998 0.72648 0.0
C1090 C 0.67073 0.16859 0.74697 0.0
C1091 C 0.66073 0.16801 0.76484 0.0
C1092 C 0.64445 0.17367 0.76333 0.0
C1093 C 0.63828 0.17957 0.74441 0.0
C1094 C 0.66327 0.14473 0.81615 0.0
C1095 C 0.67936 0.14822 0.82281 0.0
C1096 C 0.65725 0.15119 0.79745 0.0
C1097 C 0.66714 0.1613 0.78488 0.0
C1098 C 0.68322 0.16484 0.79156 0.0
C1099 C 0.68924 0.1584 0.8103 0.0
H1100 H 0.86578 0.64253 0.71944 0.0
H1101 H 0.81672 0.65855 0.73505 0.0
H1102 H 0.87598 0.65387 0.75208 0.0
H1103 H 0.82704 0.67044 0.76744 0.0
H1104 H 0.84884 0.67242 0.83393 0.0
H1105 H 0.838 0.66194 0.80108 0.0
H1106 H 0.88101 0.67997 0.76897 0.0
H1107 H 0.89185 0.69042 0.8018 0.0
C1108 C 0.85716 0.64846 0.72985 0.0
C1109 C 0.84041 0.64956 0.72463 0.0
C1110 C 0.86304 0.65515 0.74847 0.0
C1111 C 0.85235 0.66312 0.7624 0.0
C1112 C 0.8356 0.66426 0.75717 0.0
C1113 C 0.82971 0.6576 0.73849 0.0
C1114 C 0.85589 0.67433 0.81983 0.0
C1115 C 0.87126 0.68221 0.82055 0.0
C1116 C 0.84967 0.66831 0.80097 0.0
C1117 C 0.85866 0.67003 0.78236 0.0
C1118 C 0.8739 0.67815 0.78305 0.0
C1119 C 0.88012 0.68415 0.80189 0.0
loop_
_geom_bond_atom_site_label_1
_geom_bond_atom_site_label_2
_geom_bond_distance
_geom_bond_site_symmetry_2
_ccdc_geom_bond_type
C0 C1 1.264 . S
C0 C5 1.479 . S
C0 C10 1.465 . S
C1 C0 1.264 . S
C1 C3 1.339 . S
C1 H28 0.931 . S
C2 C3 1.395 . S
C2 C4 1.320 . S
C3 C1 1.339 . S
C3 C2 1.395 . S
C3 H29 0.929 . S
C4 C2 1.320 . S
C4 C5 1.405 . S
C4 H30 0.930 . S
C5 C0 1.479 . S
C5 C4 1.405 . S
C5 H31 0.931 . S
U6 O7 2.454 . S
U6 O8 2.458 . S
U6 C9 2.984 . S
U6 C10 2.847 . S
U6 C23 2.882 . S
U6 O24 2.441 . S
U6 O25 2.420 . S
U6 O26 2.455 . S
U6 O27 2.449 . S
O7 U6 2.454 . S
O7 C9 1.353 . S
O8 U6 2.458 . S
O8 C9 1.286 . S
C9 U6 2.984 . S
C9 O7 1.353 . S
C9 O8 1.286 . S
C9 C11 1.363 . S
C10 C0 1.465 . S
C10 U6 2.847 . S
C10 O24 1.249 . S
C10 O25 1.202 . S
C11 C9 1.363 . S
C11 C13 1.408 . S
C11 C16 1.342 . S
C12 C13 1.310 . S
C12 C15 1.461 . S
C12 H32 0.932 . S
C13 C11 1.408 . S
C13 C12 1.310 . S
C13 H33 0.930 . S
C14 C15 1.474 . S
C14 C16 1.285 . S
C14 H34 0.929 . S
C15 C12 1.461 . S
C15 C14 1.474 . S
C16 C11 1.342 . S
C16 C14 1.285 . S
C16 H35 0.930 . S
C17 C20 1.424 . S
C17 C22 1.245 . S
C17 C23 1.428 . S
C18 C21 1.260 . S
C18 C22 1.477 . S
C18 H36 0.944 . S
C19 C20 1.384 . S
C19 C21 1.479 . S
C19 H37 0.929 . S
C20 C17 1.424 . S
C20 C19 1.384 . S
C20 H38 0.928 . S
C21 C18 1.260 . S
C21 C19 1.479 . S
C22 C17 1.245 . S
C22 C18 1.477 . S
C22 H39 0.932 . S
C23 U6 2.882 . S
C23 C17 1.428 . S
C23 O26 1.301 . S
C23 O27 1.282 . S
O24 U6 2.441 . S
O24 C10 1.249 . S
O25 U6 2.420 . S
O25 C10 1.202 . S
O26 U6 2.455 . S
O26 C23 1.301 . S
O27 U6 2.449 . S
O27 C23 1.282 . S
H28 C1 0.931 . S
H29 C3 0.929 . S
H30 C4 0.930 . S
H31 C5 0.931 . S
H32 C12 0.932 . S
H33 C13 0.930 . S
H34 C14 0.929 . S
H35 C16 0.930 . S
H36 C18 0.944 . S
H37 C19 0.929 . S
H38 C20 0.928 . S
H39 C22 0.932 . S
C40 C41 1.264 . S
C40 C45 1.479 . S
C40 C50 1.465 . S
C41 C40 1.264 . S
C41 C43 1.339 . S
C41 H68 0.931 . S
C42 C43 1.395 . S
C42 C44 1.320 . S
C43 C41 1.339 . S
C43 C42 1.395 . S
C43 H69 0.929 . S
C44 C42 1.320 . S
C44 C45 1.405 . S
C44 H70 0.930 . S
C45 C40 1.479 . S
C45 C44 1.405 . S
C45 H71 0.931 . S
U46 O47 2.454 . S
U46 O48 2.458 . S
U46 C49 2.984 . S
U46 C50 2.847 . S
U46 C63 2.882 . S
U46 O64 2.441 . S
U46 O65 2.420 . S
U46 O66 2.455 . S
U46 O67 2.449 . S
O47 U46 2.454 . S
O47 C49 1.353 . S
O48 U46 2.458 . S
O48 C49 1.286 . S
C49 U46 2.984 . S
C49 O47 1.353 . S
C49 O48 1.286 . S
C49 C51 1.363 . S
C50 C40 1.465 . S
C50 U46 2.847 . S
C50 O64 1.249 . S
C50 O65 1.202 . S
C51 C49 1.363 . S
C51 C53 1.408 . S
C51 C56 1.342 . S
C52 C53 1.310 . S
C52 C55 1.461 . S
C52 H72 0.932 . S
C53 C51 1.408 . S
C53 C52 1.310 . S
C53 H73 0.930 . S
C54 C55 1.474 . S
C54 C56 1.285 . S
C54 H74 0.929 . S
C55 C52 1.461 . S
C55 C54 1.474 . S
C56 C51 1.342 . S
C56 C54 1.285 . S
C56 H75 0.930 . S
C57 C60 1.424 . S
C57 C62 1.245 . S
C57 C63 1.428 . S
C58 C61 1.260 . S
C58 C62 1.477 . S
C58 H76 0.944 . S
C59 C60 1.384 . S
C59 C61 1.479 . S
C59 H77 0.929 . S
C60 C57 1.424 . S
C60 C59 1.384 . S
C60 H78 0.928 . S
C61 C58 1.260 . S
C61 C59 1.479 . S
C62 C57 1.245 . S
C62 C58 1.477 . S
C62 H79 0.932 . S
C63 U46 2.882 . S
C63 C57 1.428 . S
C63 O66 1.301 . S
C63 O67 1.282 . S
O64 U46 2.441 . S
O64 C50 1.249 . S
O65 U46 2.420 . S
O65 C50 1.202 . S
O66 U46 2.455 . S
O66 C63 1.301 . S
O67 U46 2.449 . S
O67 C63 1.282 . S
H68 C41 0.931 . S
H69 C43 0.929 . S
H70 C44 0.930 . S
H71 C45 0.931 . S
H72 C52 0.932 . S
H73 C53 0.930 . S
H74 C54 0.929 . S
H75 C56 0.930 . S
H76 C58 0.944 . S
H77 C59 0.929 . S
H78 C60 0.928 . S
H79 C62 0.932 . S
C80 C81 1.264 . S
C80 C85 1.479 . S
C80 C90 1.465 . S
C81 C80 1.264 . S
C81 C83 1.339 . S
C81 H108 0.931 . S
C82 C83 1.395 . S
C82 C84 1.320 . S
C83 C81 1.339 . S
C83 C82 1.395 . S
C83 H109 0.929 . S
C84 C82 1.320 . S
C84 C85 1.405 . S
C84 H110 0.930 . S
C85 C80 1.479 . S
C85 C84 1.405 . S
C85 H111 0.931 . S
U86 O87 2.454 . S
U86 O88 2.458 . S
U86 C89 2.984 . S
U86 C90 2.847 . S
U86 C103 2.882 . S
U86 O104 2.441 . S
U86 O105 2.420 . S
U86 O106 2.455 . S
U86 O107 2.449 . S
O87 U86 2.454 . S
O87 C89 1.353 . S
O88 U86 2.458 . S
O88 C89 1.286 . S
C89 U86 2.984 . S
C89 O87 1.353 . S
C89 O88 1.286 . S
C89 C91 1.363 . S
C90 C80 1.465 . S
C90 U86 2.847 . S
C90 O104 1.249 . S
C90 O105 1.202 . S
C91 C89 1.363 . S
C91 C93 1.408 . S
C91 C96 1.342 . S
C92 C93 1.310 . S
C92 C95 1.461 . S
C92 H112 0.932 . S
C93 C91 1.408 . S
C93 C92 1.310 . S
C93 H113 0.930 . S
C94 C95 1.474 . S
C94 C96 1.285 . S
C94 H114 0.929 . S
C95 C92 1.461 . S
C95 C94 1.474 . S
C96 C91 1.342 . S
C96 C94 1.285 . S
C96 H115 0.930 . S
C97 C100 1.424 . S
C97 C102 1.245 . S
C97 C103 1.428 . S
C98 C101 1.260 . S
C98 C102 1.477 . S
C98 H116 0.944 . S
C99 C100 1.384 . S
C99 C101 1.479 . S
C99 H117 0.929 . S
C100 C97 1.424 . S
C100 C99 1.384 . S
C100 H118 0.928 . S
C101 C98 1.260 . S
C101 C99 1.479 . S
C102 C97 1.245 . S
C102 C98 1.477 . S
C102 H119 0.932 . S
C103 U86 2.882 . S
C103 C97 1.428 . S
C103 O106 1.301 . S
C103 O107 1.282 . S
O104 U86 2.441 . S
O104 C90 1.249 . S
O105 U86 2.420 . S
O105 C90 1.202 . S
O106 U86 2.455 . S
O106 C103 1.301 . S
O107 U86 2.449 . S
O107 C103 1.282 . S
H108 C81 0.931 . S
H109 C83 0.929 . S
H110 C84 0.930 . S
H111 C85 0.931 . S
H112 C92 0.932 . S
H113 C93 0.930 . S
H114 C94 0.929 . S
H115 C96 0.930 . S
H116 C98 0.944 . S
H117 C99 0.929 . S
H118 C100 0.928 . S
H119 C102 0.932 . S
C120 C121 1.264 . S
C120 C125 1.479 . S
C120 C130 1.465 . S
C121 C120 1.264 . S
C121 C123 1.339 . S
C121 H148 0.931 . S
C122 C123 1.395 . S
C122 C124 1.320 . S
C123 C121 1.339 . S
C123 C122 1.395 . S
C123 H149 0.929 . S
C124 C122 1.320 . S
C124 C125 1.405 . S
C124 H150 0.930 . S
C125 C120 1.479 . S
C125 C124 1.405 . S
C125 H151 0.931 . S
U126 O127 2.454 . S
U126 O128 2.458 . S
U126 C129 2.984 . S
U126 C130 2.847 . S
U126 C143 2.882 . S
U126 O144 2.441 . S
U126 O145 2.420 . S
U126 O146 2.455 . S
U126 O147 2.449 . S
O127 U126 2.454 . S
O127 C129 1.353 . S
O128 U126 2.458 . S
O128 C129 1.286 . S
C129 U126 2.984 . S
C129 O127 1.353 . S
C129 O128 1.286 . S
C129 C131 1.363 . S
C130 C120 1.465 . S
C130 U126 2.847 . S
C130 O144 1.249 . S
C130 O145 1.202 . S
C131 C129 1.363 . S
C131 C133 1.408 . S
C131 C136 1.342 . S
C132 C133 1.310 . S
C132 C135 1.461 . S
C132 H152 0.932 . S
C133 C131 1.408 . S
C133 C132 1.310 . S
C133 H153 0.930 . S
C134 C135 1.474 . S
C134 C136 1.285 . S
C134 H154 0.929 . S
C135 C132 1.461 . S
C135 C134 1.474 . S
C136 C131 1.342 . S
C136 C134 1.285 . S
C136 H155 0.930 . S
C137 C140 1.424 . S
C137 C142 1.245 . S
C137 C143 1.428 . S
C138 C141 1.260 . S
C138 C142 1.477 . S
C138 H156 0.944 . S
C139 C140 1.384 . S
C139 C141 1.479 . S
C139 H157 0.929 . S
C140 C137 1.424 . S
C140 C139 1.384 . S
C140 H158 0.928 . S
C141 C138 1.260 . S
C141 C139 1.479 . S
C142 C137 1.245 . S
C142 C138 1.477 . S
C142 H159 0.932 . S
C143 U126 2.882 . S
C143 C137 1.428 . S
C143 O146 1.301 . S
C143 O147 1.282 . S
O144 U126 2.441 . S
O144 C130 1.249 . S
O145 U126 2.420 . S
O145 C130 1.202 . S
O146 U126 2.455 . S
O146 C143 1.301 . S
O147 U126 2.449 . S
O147 C143 1.282 . S
H148 C121 0.931 . S
H149 C123 0.929 . S
H150 C124 0.930 . S
H151 C125 0.931 . S
H152 C132 0.932 . S
H153 C133 0.930 . S
H154 C134 0.929 . S
H155 C136 0.930 . S
H156 C138 0.944 . S
H157 C139 0.929 . S
H158 C140 0.928 . S
H159 C142 0.932 . S
C160 C161 1.264 . S
C160 C165 1.479 . S
C160 C170 1.465 . S
C161 C160 1.264 . S
C161 C163 1.339 . S
C161 H188 0.931 . S
C162 C163 1.395 . S
C162 C164 1.320 . S
C163 C161 1.339 . S
C163 C162 1.395 . S
C163 H189 0.929 . S
C164 C162 1.320 . S
C164 C165 1.405 . S
C164 H190 0.930 . S
C165 C160 1.479 . S
C165 C164 1.405 . S
C165 H191 0.931 . S
U166 O167 2.454 . S
U166 O168 2.458 . S
U166 C169 2.984 . S
U166 C170 2.847 . S
U166 C183 2.882 . S
U166 O184 2.441 . S
U166 O185 2.420 . S
U166 O186 2.455 . S
U166 O187 2.449 . S
O167 U166 2.454 . S
O167 C169 1.353 . S
O168 U166 2.458 . S
O168 C169 1.286 . S
C169 U166 2.984 . S
C169 O167 1.353 . S
C169 O168 1.286 . S
C169 C171 1.363 . S
C170 C160 1.465 . S
C170 U166 2.847 . S
C170 O184 1.249 . S
C170 O185 1.202 . S
C171 C169 1.363 . S
C171 C173 1.408 . S
C171 C176 1.342 . S
C172 C173 1.310 . S
C172 C175 1.461 . S
C172 H192 0.932 . S
C173 C171 1.408 . S
C173 C172 1.310 . S
C173 H193 0.930 . S
C174 C175 1.474 . S
C174 C176 1.285 . S
C174 H194 0.929 . S
C175 C172 1.461 . S
C175 C174 1.474 . S
C176 C171 1.342 . S
C176 C174 1.285 . S
C176 H195 0.930 . S
C177 C180 1.424 . S
C177 C182 1.245 . S
C177 C183 1.428 . S
C178 C181 1.260 . S
C178 C182 1.477 . S
C178 H196 0.944 . S
C179 C180 1.384 . S
C179 C181 1.479 . S
C179 H197 0.929 . S
C180 C177 1.424 . S
C180 C179 1.384 . S
C180 H198 0.928 . S
C181 C178 1.260 . S
C181 C179 1.479 . S
C182 C177 1.245 . S
C182 C178 1.477 . S
C182 H199 0.932 . S
C183 U166 2.882 . S
C183 C177 1.428 . S
C183 O186 1.301 . S
C183 O187 1.282 . S
O184 U166 2.441 . S
O184 C170 1.249 . S
O185 U166 2.420 . S
O185 C170 1.202 . S
O186 U166 2.455 . S
O186 C183 1.301 . S
O187 U166 2.449 . S
O187 C183 1.282 . S
H188 C161 0.931 . S
H189 C163 0.929 . S
H190 C164 0.930 . S
H191 C165 0.931 . S
H192 C172 0.932 . S
H193 C173 0.930 . S
H194 C174 0.929 . S
H195 C176 0.930 . S
H196 C178 0.944 . S
H197 C179 0.929 . S
H198 C180 0.928 . S
H199 C182 0.932 . S
C200 C201 1.264 . S
C200 C205 1.479 . S
C200 C210 1.465 . S
C201 C200 1.264 . S
C201 C203 1.339 . S
C201 H228 0.931 . S
C202 C203 1.395 . S
C202 C204 1.320 . S
C203 C201 1.339 . S
C203 C202 1.395 . S
C203 H229 0.929 . S
C204 C202 1.320 . S
C204 C205 1.405 . S
C204 H230 0.930 . S
C205 C200 1.479 . S
C205 C204 1.405 . S
C205 H231 0.931 . S
U206 O207 2.454 . S
U206 O208 2.458 . S
U206 C209 2.984 . S
U206 C210 2.847 . S
U206 C223 2.882 . S
U206 O224 2.441 . S
U206 O225 2.420 . S
U206 O226 2.455 . S
U206 O227 2.449 . S
O207 U206 2.454 . S
O207 C209 1.353 . S
O208 U206 2.458 . S
O208 C209 1.286 . S
C209 U206 2.984 . S
C209 O207 1.353 . S
C209 O208 1.286 . S
C209 C211 1.363 . S
C210 C200 1.465 . S
C210 U206 2.847 . S
C210 O224 1.249 . S
C210 O225 1.202 . S
C211 C209 1.363 . S
C211 C213 1.408 . S
C211 C216 1.342 . S
C212 C213 1.310 . S
C212 C215 1.461 . S
C212 H232 0.932 . S
C213 C211 1.408 . S
C213 C212 1.310 . S
C213 H233 0.930 . S
C214 C215 1.474 . S
C214 C216 1.285 . S
C214 H234 0.929 . S
C215 C212 1.461 . S
C215 C214 1.474 . S
C216 C211 1.342 . S
C216 C214 1.285 . S
C216 H235 0.930 . S
C217 C220 1.424 . S
C217 C222 1.245 . S
C217 C223 1.428 . S
C218 C221 1.260 . S
C218 C222 1.477 . S
C218 H236 0.944 . S
C219 C220 1.384 . S
C219 C221 1.479 . S
C219 H237 0.929 . S
C220 C217 1.424 . S
C220 C219 1.384 . S
C220 H238 0.928 . S
C221 C218 1.260 . S
C221 C219 1.479 . S
C222 C217 1.245 . S
C222 C218 1.477 . S
C222 H239 0.932 . S
C223 U206 2.882 . S
C223 C217 1.428 . S
C223 O226 1.301 . S
C223 O227 1.282 . S
O224 U206 2.441 . S
O224 C210 1.249 . S
O225 U206 2.420 . S
O225 C210 1.202 . S
O226 U206 2.455 . S
O226 C223 1.301 . S
O227 U206 2.449 . S
O227 C223 1.282 . S
H228 C201 0.931 . S
H229 C203 0.929 . S
H230 C204 0.930 . S
H231 C205 0.931 . S
H232 C212 0.932 . S
H233 C213 0.930 . S
H234 C214 0.929 . S
H235 C216 0.930 . S
H236 C218 0.944 . S
H237 C219 0.929 . S
H238 C220 0.928 . S
H239 C222 0.932 . S
C240 C241 1.264 . S
C240 C245 1.479 . S
C240 C250 1.465 . S
C241 C240 1.264 . S
C241 C243 1.339 . S
C241 H268 0.931 . S
C242 C243 1.395 . S
C242 C244 1.320 . S
C243 C241 1.339 . S
C243 C242 1.395 . S
C243 H269 0.929 . S
C244 C242 1.320 . S
C244 C245 1.405 . S
C244 H270 0.930 . S
C245 C240 1.479 . S
C245 C244 1.405 . S
C245 H271 0.931 . S
U246 O247 2.454 . S
U246 O248 2.458 . S
U246 C249 2.984 . S
U246 C250 2.847 . S
U246 C263 2.882 . S
U246 O264 2.441 . S
U246 O265 2.420 . S
U246 O266 2.455 . S
U246 O267 2.449 . S
O247 U246 2.454 . S
O247 C249 1.353 . S
O248 U246 2.458 . S
O248 C249 1.286 . S
C249 U246 2.984 . S
C249 O247 1.353 . S
C249 O248 1.286 . S
C249 C251 1.363 . S
C250 C240 1.465 . S
C250 U246 2.847 . S
C250 O264 1.249 . S
C250 O265 1.202 . S
C251 C249 1.363 . S
C251 C253 1.408 . S
C251 C256 1.342 . S
C252 C253 1.310 . S
C252 C255 1.461 . S
C252 H272 0.932 . S
C253 C251 1.408 . S
C253 C252 1.310 . S
C253 H273 0.930 . S
C254 C255 1.474 . S
C254 C256 1.285 . S
C254 H274 0.929 . S
C255 C252 1.461 . S
C255 C254 1.474 . S
C256 C251 1.342 . S
C256 C254 1.285 . S
C256 H275 0.930 . S
C257 C260 1.424 . S
C257 C262 1.245 . S
C257 C263 1.428 . S
C258 C261 1.260 . S
C258 C262 1.477 . S
C258 H276 0.944 . S
C259 C260 1.384 . S
C259 C261 1.479 . S
C259 H277 0.929 . S
C260 C257 1.424 . S
C260 C259 1.384 . S
C260 H278 0.928 . S
C261 C258 1.260 . S
C261 C259 1.479 . S
C262 C257 1.245 . S
C262 C258 1.477 . S
C262 H279 0.932 . S
C263 U246 2.882 . S
C263 C257 1.428 . S
C263 O266 1.301 . S
C263 O267 1.282 . S
O264 U246 2.441 . S
O264 C250 1.249 . S
O265 U246 2.420 . S
O265 C250 1.202 . S
O266 U246 2.455 . S
O266 C263 1.301 . S
O267 U246 2.449 . S
O267 C263 1.282 . S
H268 C241 0.931 . S
H269 C243 0.929 . S
H270 C244 0.930 . S
H271 C245 0.931 . S
H272 C252 0.932 . S
H273 C253 0.930 . S
H274 C254 0.929 . S
H275 C256 0.930 . S
H276 C258 0.944 . S
H277 C259 0.929 . S
H278 C260 0.928 . S
H279 C262 0.932 . S
C280 C281 1.264 . S
C280 C285 1.479 . S
C280 C290 1.465 . S
C281 C280 1.264 . S
C281 C283 1.339 . S
C281 H308 0.931 . S
C282 C283 1.395 . S
C282 C284 1.320 . S
C283 C281 1.339 . S
C283 C282 1.395 . S
C283 H309 0.929 . S
C284 C282 1.320 . S
C284 C285 1.405 . S
C284 H310 0.930 . S
C285 C280 1.479 . S
C285 C284 1.405 . S
C285 H311 0.931 . S
U286 O287 2.454 . S
U286 O288 2.458 . S
U286 C289 2.984 . S
U286 C290 2.847 . S
U286 C303 2.882 . S
U286 O304 2.441 . S
U286 O305 2.420 . S
U286 O306 2.455 . S
U286 O307 2.449 . S
O287 U286 2.454 . S
O287 C289 1.353 . S
O288 U286 2.458 . S
O288 C289 1.286 . S
C289 U286 2.984 . S
C289 O287 1.353 . S
C289 O288 1.286 . S
C289 C291 1.363 . S
C290 C280 1.465 . S
C290 U286 2.847 . S
C290 O304 1.249 . S
C290 O305 1.202 . S
C291 C289 1.363 . S
C291 C293 1.408 . S
C291 C296 1.342 . S
C292 C293 1.310 . S
C292 C295 1.461 . S
C292 H312 0.932 . S
C293 C291 1.408 . S
C293 C292 1.310 . S
C293 H313 0.930 . S
C294 C295 1.474 . S
C294 C296 1.285 . S
C294 H314 0.929 . S
C295 C292 1.461 . S
C295 C294 1.474 . S
C296 C291 1.342 . S
C296 C294 1.285 . S
C296 H315 0.930 . S
C297 C300 1.424 . S
C297 C302 1.245 . S
C297 C303 1.428 . S
C298 C301 1.260 . S
C298 C302 1.477 . S
C298 H316 0.944 . S
C299 C300 1.384 . S
C299 C301 1.479 . S
C299 H317 0.929 . S
C300 C297 1.424 . S
C300 C299 1.384 . S
C300 H318 0.928 . S
C301 C298 1.260 . S
C301 C299 1.479 . S
C302 C297 1.245 . S
C302 C298 1.477 . S
C302 H319 0.932 . S
C303 U286 2.882 . S
C303 C297 1.428 . S
C303 O306 1.301 . S
C303 O307 1.282 . S
O304 U286 2.441 . S
O304 C290 1.249 . S
O305 U286 2.420 . S
O305 C290 1.202 . S
O306 U286 2.455 . S
O306 C303 1.301 . S
O307 U286 2.449 . S
O307 C303 1.282 . S
H308 C281 0.931 . S
H309 C283 0.929 . S
H310 C284 0.930 . S
H311 C285 0.931 . S
H312 C292 0.932 . S
H313 C293 0.930 . S
H314 C294 0.929 . S
H315 C296 0.930 . S
H316 C298 0.944 . S
H317 C299 0.929 . S
H318 C300 0.928 . S
H319 C302 0.932 . S
C320 C321 1.264 . S
C320 C325 1.479 . S
C320 C330 1.465 . S
C321 C320 1.264 . S
C321 C323 1.339 . S
C321 H348 0.931 . S
C322 C323 1.395 . S
C322 C324 1.320 . S
C323 C321 1.339 . S
C323 C322 1.395 . S
C323 H349 0.929 . S
C324 C322 1.320 . S
C324 C325 1.405 . S
C324 H350 0.930 . S
C325 C320 1.479 . S
C325 C324 1.405 . S
C325 H351 0.931 . S
U326 O327 2.454 . S
U326 O328 2.458 . S
U326 C329 2.984 . S
U326 C330 2.847 . S
U326 C343 2.882 . S
U326 O344 2.441 . S
U326 O345 2.420 . S
U326 O346 2.455 . S
U326 O347 2.449 . S
O327 U326 2.454 . S
O327 C329 1.353 . S
O328 U326 2.458 . S
O328 C329 1.286 . S
C329 U326 2.984 . S
C329 O327 1.353 . S
C329 O328 1.286 . S
C329 C331 1.363 . S
C330 C320 1.465 . S
C330 U326 2.847 . S
C330 O344 1.249 . S
C330 O345 1.202 . S
C331 C329 1.363 . S
C331 C333 1.408 . S
C331 C336 1.342 . S
C332 C333 1.310 . S
C332 C335 1.461 . S
C332 H352 0.932 . S
C333 C331 1.408 . S
C333 C332 1.310 . S
C333 H353 0.930 . S
C334 C335 1.474 . S
C334 C336 1.285 . S
C334 H354 0.929 . S
C335 C332 1.461 . S
C335 C334 1.474 . S
C336 C331 1.342 . S
C336 C334 1.285 . S
C336 H355 0.930 . S
C337 C340 1.424 . S
C337 C342 1.245 . S
C337 C343 1.428 . S
C338 C341 1.260 . S
C338 C342 1.477 . S
C338 H356 0.932 . S
C339 C340 1.384 . S
C339 C341 1.479 . S
C339 H357 0.929 . S
C340 C337 1.424 . S
C340 C339 1.384 . S
C340 H358 0.928 . S
C341 C338 1.260 . S
C341 C339 1.479 . S
C342 C337 1.245 . S
C342 C338 1.477 . S
C342 H359 0.932 . S
C343 U326 2.882 . S
C343 C337 1.428 . S
C343 O346 1.301 . S
C343 O347 1.282 . S
O344 U326 2.441 . S
O344 C330 1.249 . S
O345 U326 2.420 . S
O345 C330 1.202 . S
O346 U326 2.455 . S
O346 C343 1.301 . S
O347 U326 2.449 . S
O347 C343 1.282 . S
H348 C321 0.931 . S
H349 C323 0.929 . S
H350 C324 0.930 . S
H351 C325 0.931 . S
H352 C332 0.932 . S
H353 C333 0.930 . S
H354 C334 0.929 . S
H355 C336 0.930 . S
H356 C338 0.932 . S
H357 C339 0.929 . S
H358 C340 0.928 . S
H359 C342 0.932 . S
C360 C361 1.264 . S
C360 C365 1.479 . S
C360 C370 1.465 . S
C361 C360 1.264 . S
C361 C363 1.339 . S
C361 H388 0.931 . S
C362 C363 1.395 . S
C362 C364 1.320 . S
C363 C361 1.339 . S
C363 C362 1.395 . S
C363 H389 0.929 . S
C364 C362 1.320 . S
C364 C365 1.405 . S
C364 H390 0.930 . S
C365 C360 1.479 . S
C365 C364 1.405 . S
C365 H391 0.931 . S
U366 O367 2.454 . S
U366 O368 2.458 . S
U366 C369 2.984 . S
U366 C370 2.847 . S
U366 C383 2.882 . S
U366 O384 2.441 . S
U366 O385 2.420 . S
U366 O386 2.455 . S
U366 O387 2.449 . S
O367 U366 2.454 . S
O367 C369 1.353 . S
O368 U366 2.458 . S
O368 C369 1.286 . S
C369 U366 2.984 . S
C369 O367 1.353 . S
C369 O368 1.286 . S
C369 C371 1.363 . S
C370 C360 1.465 . S
C370 U366 2.847 . S
C370 O384 1.249 . S
C370 O385 1.202 . S
C371 C369 1.363 . S
C371 C373 1.408 . S
C371 C376 1.342 . S
C372 C373 1.310 . S
C372 C375 1.461 . S
C372 H392 0.932 . S
C373 C371 1.408 . S
C373 C372 1.310 . S
C373 H393 0.930 . S
C374 C375 1.474 . S
C374 C376 1.285 . S
C374 H394 0.929 . S
C375 C372 1.461 . S
C375 C374 1.474 . S
C376 C371 1.342 . S
C376 C374 1.285 . S
C376 H395 0.930 . S
C377 C380 1.424 . S
C377 C382 1.245 . S
C377 C383 1.428 . S
C378 C381 1.260 . S
C378 C382 1.477 . S
C378 H396 0.932 . S
C379 C380 1.384 . S
C379 C381 1.479 . S
C379 H397 0.929 . S
C380 C377 1.424 . S
C380 C379 1.384 . S
C380 H398 0.928 . S
C381 C378 1.260 . S
C381 C379 1.479 . S
C382 C377 1.245 . S
C382 C378 1.477 . S
C382 H399 0.932 . S
C383 U366 2.882 . S
C383 C377 1.428 . S
C383 O386 1.301 . S
C383 O387 1.282 . S
O384 U366 2.441 . S
O384 C370 1.249 . S
O385 U366 2.420 . S
O385 C370 1.202 . S
O386 U366 2.455 . S
O386 C383 1.301 . S
O387 U366 2.449 . S
O387 C383 1.282 . S
H388 C361 0.931 . S
H389 C363 0.929 . S
H390 C364 0.930 . S
H391 C365 0.931 . S
H392 C372 0.932 . S
H393 C373 0.930 . S
H394 C374 0.929 . S
H395 C376 0.930 . S
H396 C378 0.932 . S
H397 C379 0.929 . S
H398 C380 0.928 . S
H399 C382 0.932 . S
C400 C401 1.264 . S
C400 C405 1.479 . S
C400 C410 1.465 . S
C401 C400 1.264 . S
C401 C403 1.339 . S
C401 H428 0.931 . S
C402 C403 1.395 . S
C402 C404 1.320 . S
C403 C401 1.339 . S
C403 C402 1.395 . S
C403 H429 0.929 . S
C404 C402 1.320 . S
C404 C405 1.405 . S
C404 H430 0.930 . S
C405 C400 1.479 . S
C405 C404 1.405 . S
C405 H431 0.931 . S
U406 O407 2.454 . S
U406 O408 2.458 . S
U406 C409 2.984 . S
U406 C410 2.847 . S
U406 C423 2.882 . S
U406 O424 2.441 . S
U406 O425 2.420 . S
U406 O426 2.455 . S
U406 O427 2.449 . S
O407 U406 2.454 . S
O407 C409 1.353 . S
O408 U406 2.458 . S
O408 C409 1.286 . S
C409 U406 2.984 . S
C409 O407 1.353 . S
C409 O408 1.286 . S
C409 C411 1.363 . S
C410 C400 1.465 . S
C410 U406 2.847 . S
C410 O424 1.249 . S
C410 O425 1.202 . S
C411 C409 1.363 . S
C411 C413 1.408 . S
C411 C416 1.342 . S
C412 C413 1.310 . S
C412 C415 1.461 . S
C412 H432 0.932 . S
C413 C411 1.408 . S
C413 C412 1.310 . S
C413 H433 0.930 . S
C414 C415 1.474 . S
C414 C416 1.285 . S
C414 H434 0.929 . S
C415 C412 1.461 . S
C415 C414 1.474 . S
C416 C411 1.342 . S
C416 C414 1.285 . S
C416 H435 0.930 . S
C417 C420 1.424 . S
C417 C422 1.245 . S
C417 C423 1.428 . S
C418 C421 1.260 . S
C418 C422 1.477 . S
C418 H436 0.932 . S
C419 C420 1.384 . S
C419 C421 1.479 . S
C419 H437 0.929 . S
C420 C417 1.424 . S
C420 C419 1.384 . S
C420 H438 0.928 . S
C421 C418 1.260 . S
C421 C419 1.479 . S
C422 C417 1.245 . S
C422 C418 1.477 . S
C422 H439 0.932 . S
C423 U406 2.882 . S
C423 C417 1.428 . S
C423 O426 1.301 . S
C423 O427 1.282 . S
O424 U406 2.441 . S
O424 C410 1.249 . S
O425 U406 2.420 . S
O425 C410 1.202 . S
O426 U406 2.455 . S
O426 C423 1.301 . S
O427 U406 2.449 . S
O427 C423 1.282 . S
H428 C401 0.931 . S
H429 C403 0.929 . S
H430 C404 0.930 . S
H431 C405 0.931 . S
H432 C412 0.932 . S
H433 C413 0.930 . S
H434 C414 0.929 . S
H435 C416 0.930 . S
H436 C418 0.932 . S
H437 C419 0.929 . S
H438 C420 0.928 . S
H439 C422 0.932 . S
C440 C441 1.264 . S
C440 C445 1.479 . S
C440 C450 1.465 . S
C441 C440 1.264 . S
C441 C443 1.339 . S
C441 H468 0.931 . S
C442 C443 1.395 . S
C442 C444 1.320 . S
C443 C441 1.339 . S
C443 C442 1.395 . S
C443 H469 0.929 . S
C444 C442 1.320 . S
C444 C445 1.405 . S
C444 H470 0.930 . S
C445 C440 1.479 . S
C445 C444 1.405 . S
C445 H471 0.931 . S
U446 O447 2.454 . S
U446 O448 2.458 . S
U446 C449 2.984 . S
U446 C450 2.847 . S
U446 C463 2.882 . S
U446 O464 2.441 . S
U446 O465 2.420 . S
U446 O466 2.455 . S
U446 O467 2.449 . S
O447 U446 2.454 . S
O447 C449 1.353 . S
O448 U446 2.458 . S
O448 C449 1.286 . S
C449 U446 2.984 . S
C449 O447 1.353 . S
C449 O448 1.286 . S
C449 C451 1.363 . S
C450 C440 1.465 . S
C450 U446 2.847 . S
C450 O464 1.249 . S
C450 O465 1.202 . S
C451 C449 1.363 . S
C451 C453 1.408 . S
C451 C456 1.342 . S
C452 C453 1.310 . S
C452 C455 1.461 . S
C452 H472 0.932 . S
C453 C451 1.408 . S
C453 C452 1.310 . S
C453 H473 0.930 . S
C454 C455 1.474 . S
C454 C456 1.285 . S
C454 H474 0.929 . S
C455 C452 1.461 . S
C455 C454 1.474 . S
C456 C451 1.342 . S
C456 C454 1.285 . S
C456 H475 0.930 . S
C457 C460 1.424 . S
C457 C462 1.245 . S
C457 C463 1.428 . S
C458 C461 1.260 . S
C458 C462 1.477 . S
C458 H476 0.932 . S
C459 C460 1.384 . S
C459 C461 1.479 . S
C459 H477 0.929 . S
C460 C457 1.424 . S
C460 C459 1.384 . S
C460 H478 0.928 . S
C461 C458 1.260 . S
C461 C459 1.479 . S
C462 C457 1.245 . S
C462 C458 1.477 . S
C462 H479 0.932 . S
C463 U446 2.882 . S
C463 C457 1.428 . S
C463 O466 1.301 . S
C463 O467 1.282 . S
O464 U446 2.441 . S
O464 C450 1.249 . S
O465 U446 2.420 . S
O465 C450 1.202 . S
O466 U446 2.455 . S
O466 C463 1.301 . S
O467 U446 2.449 . S
O467 C463 1.282 . S
H468 C441 0.931 . S
H469 C443 0.929 . S
H470 C444 0.930 . S
H471 C445 0.931 . S
H472 C452 0.932 . S
H473 C453 0.930 . S
H474 C454 0.929 . S
H475 C456 0.930 . S
H476 C458 0.932 . S
H477 C459 0.929 . S
H478 C460 0.928 . S
H479 C462 0.932 . S
C480 C481 1.264 . S
C480 C485 1.479 . S
C480 C490 1.465 . S
C481 C480 1.264 . S
C481 C483 1.339 . S
C481 H508 0.931 . S
C482 C483 1.395 . S
C482 C484 1.320 . S
C483 C481 1.339 . S
C483 C482 1.395 . S
C483 H509 0.929 . S
C484 C482 1.320 . S
C484 C485 1.405 . S
C484 H510 0.930 . S
C485 C480 1.479 . S
C485 C484 1.405 . S
C485 H511 0.931 . S
U486 O487 2.454 . S
U486 O488 2.458 . S
U486 C489 2.984 . S
U486 C490 2.847 . S
U486 C503 2.882 . S
U486 O504 2.441 . S
U486 O505 2.420 . S
U486 O506 2.455 . S
U486 O507 2.449 . S
O487 U486 2.454 . S
O487 C489 1.353 . S
O488 U486 2.458 . S
O488 C489 1.286 . S
C489 U486 2.984 . S
C489 O487 1.353 . S
C489 O488 1.286 . S
C489 C491 1.363 . S
C490 C480 1.465 . S
C490 U486 2.847 . S
C490 O504 1.249 . S
C490 O505 1.202 . S
C491 C489 1.363 . S
C491 C493 1.408 . S
C491 C496 1.342 . S
C492 C493 1.310 . S
C492 C495 1.461 . S
C492 H512 0.932 . S
C493 C491 1.408 . S
C493 C492 1.310 . S
C493 H513 0.930 . S
C494 C495 1.474 . S
C494 C496 1.285 . S
C494 H514 0.929 . S
C495 C492 1.461 . S
C495 C494 1.474 . S
C496 C491 1.342 . S
C496 C494 1.285 . S
C496 H515 0.930 . S
C497 C500 1.424 . S
C497 C502 1.245 . S
C497 C503 1.428 . S
C498 C501 1.260 . S
C498 C502 1.477 . S
C498 H516 0.932 . S
C499 C500 1.384 . S
C499 C501 1.479 . S
C499 H517 0.929 . S
C500 C497 1.424 . S
C500 C499 1.384 . S
C500 H518 0.928 . S
C501 C498 1.260 . S
C501 C499 1.479 . S
C502 C497 1.245 . S
C502 C498 1.477 . S
C502 H519 0.932 . S
C503 U486 2.882 . S
C503 C497 1.428 . S
C503 O506 1.301 . S
C503 O507 1.282 . S
O504 U486 2.441 . S
O504 C490 1.249 . S
O505 U486 2.420 . S
O505 C490 1.202 . S
O506 U486 2.455 . S
O506 C503 1.301 . S
O507 U486 2.449 . S
O507 C503 1.282 . S
H508 C481 0.931 . S
H509 C483 0.929 . S
H510 C484 0.930 . S
H511 C485 0.931 . S
H512 C492 0.932 . S
H513 C493 0.930 . S
H514 C494 0.929 . S
H515 C496 0.930 . S
H516 C498 0.932 . S
H517 C499 0.929 . S
H518 C500 0.928 . S
H519 C502 0.932 . S
C520 C521 1.264 . S
C520 C525 1.479 . S
C520 C530 1.465 . S
C521 C520 1.264 . S
C521 C523 1.339 . S
C521 H548 0.931 . S
C522 C523 1.395 . S
C522 C524 1.320 . S
C523 C521 1.339 . S
C523 C522 1.395 . S
C523 H549 0.929 . S
C524 C522 1.320 . S
C524 C525 1.405 . S
C524 H550 0.930 . S
C525 C520 1.479 . S
C525 C524 1.405 . S
C525 H551 0.931 . S
U526 O527 2.454 . S
U526 O528 2.458 . S
U526 C529 2.984 . S
U526 C530 2.847 . S
U526 C543 2.882 . S
U526 O544 2.441 . S
U526 O545 2.420 . S
U526 O546 2.455 . S
U526 O547 2.449 . S
O527 U526 2.454 . S
O527 C529 1.353 . S
O528 U526 2.458 . S
O528 C529 1.286 . S
C529 U526 2.984 . S
C529 O527 1.353 . S
C529 O528 1.286 . S
C529 C531 1.363 . S
C530 C520 1.465 . S
C530 U526 2.847 . S
C530 O544 1.249 . S
C530 O545 1.202 . S
C531 C529 1.363 . S
C531 C533 1.408 . S
C531 C536 1.342 . S
C532 C533 1.310 . S
C532 C535 1.461 . S
C532 H552 0.932 . S
C533 C531 1.408 . S
C533 C532 1.310 . S
C533 H553 0.930 . S
C534 C535 1.474 . S
C534 C536 1.285 . S
C534 H554 0.929 . S
C535 C532 1.461 . S
C535 C534 1.474 . S
C536 C531 1.342 . S
C536 C534 1.285 . S
C536 H555 0.930 . S
C537 C540 1.424 . S
C537 C542 1.245 . S
C537 C543 1.428 . S
C538 C541 1.260 . S
C538 C542 1.477 . S
C538 H556 0.932 . S
C539 C540 1.384 . S
C539 C541 1.479 . S
C539 H557 0.929 . S
C540 C537 1.424 . S
C540 C539 1.384 . S
C540 H558 0.928 . S
C541 C538 1.260 . S
C541 C539 1.479 . S
C542 C537 1.245 . S
C542 C538 1.477 . S
C542 H559 0.932 . S
C543 U526 2.882 . S
C543 C537 1.428 . S
C543 O546 1.301 . S
C543 O547 1.282 . S
O544 U526 2.441 . S
O544 C530 1.249 . S
O545 U526 2.420 . S
O545 C530 1.202 . S
O546 U526 2.455 . S
O546 C543 1.301 . S
O547 U526 2.449 . S
O547 C543 1.282 . S
H548 C521 0.931 . S
H549 C523 0.929 . S
H550 C524 0.930 . S
H551 C525 0.931 . S
H552 C532 0.932 . S
H553 C533 0.930 . S
H554 C534 0.929 . S
H555 C536 0.930 . S
H556 C538 0.932 . S
H557 C539 0.929 . S
H558 C540 0.928 . S
H559 C542 0.932 . S
C560 C561 1.264 . S
C560 C565 1.479 . S
C560 C570 1.465 . S
C561 C560 1.264 . S
C561 C563 1.339 . S
C561 H588 0.931 . S
C562 C563 1.395 . S
C562 C564 1.320 . S
C563 C561 1.339 . S
C563 C562 1.395 . S
C563 H589 0.929 . S
C564 C562 1.320 . S
C564 C565 1.405 . S
C564 H590 0.930 . S
C565 C560 1.479 . S
C565 C564 1.405 . S
C565 H591 0.931 . S
U566 O567 2.454 . S
U566 O568 2.458 . S
U566 C569 2.984 . S
U566 C570 2.847 . S
U566 C583 2.882 . S
U566 O584 2.441 . S
U566 O585 2.420 . S
U566 O586 2.455 . S
U566 O587 2.449 . S
O567 U566 2.454 . S
O567 C569 1.353 . S
O568 U566 2.458 . S
O568 C569 1.286 . S
C569 U566 2.984 . S
C569 O567 1.353 . S
C569 O568 1.286 . S
C569 C571 1.363 . S
C570 C560 1.465 . S
C570 U566 2.847 . S
C570 O584 1.249 . S
C570 O585 1.202 . S
C571 C569 1.363 . S
C571 C573 1.408 . S
C571 C576 1.342 . S
C572 C573 1.310 . S
C572 C575 1.461 . S
C572 H592 0.932 . S
C573 C571 1.408 . S
C573 C572 1.310 . S
C573 H593 0.930 . S
C574 C575 1.474 . S
C574 C576 1.285 . S
C574 H594 0.929 . S
C575 C572 1.461 . S
C575 C574 1.474 . S
C576 C571 1.342 . S
C576 C574 1.285 . S
C576 H595 0.930 . S
C577 C580 1.424 . S
C577 C582 1.245 . S
C577 C583 1.428 . S
C578 C581 1.260 . S
C578 C582 1.477 . S
C578 H596 0.932 . S
C579 C580 1.384 . S
C579 C581 1.479 . S
C579 H597 0.929 . S
C580 C577 1.424 . S
C580 C579 1.384 . S
C580 H598 0.928 . S
C581 C578 1.260 . S
C581 C579 1.479 . S
C582 C577 1.245 . S
C582 C578 1.477 . S
C582 H599 0.932 . S
C583 U566 2.882 . S
C583 C577 1.428 . S
C583 O586 1.301 . S
C583 O587 1.282 . S
O584 U566 2.441 . S
O584 C570 1.249 . S
O585 U566 2.420 . S
O585 C570 1.202 . S
O586 U566 2.455 . S
O586 C583 1.301 . S
O587 U566 2.449 . S
O587 C583 1.282 . S
H588 C561 0.931 . S
H589 C563 0.929 . S
H590 C564 0.930 . S
H591 C565 0.931 . S
H592 C572 0.932 . S
H593 C573 0.930 . S
H594 C574 0.929 . S
H595 C576 0.930 . S
H596 C578 0.932 . S
H597 C579 0.929 . S
H598 C580 0.928 . S
H599 C582 0.932 . S
C600 C601 1.264 . S
C600 C605 1.479 . S
C600 C610 1.465 . S
C601 C600 1.264 . S
C601 C603 1.339 . S
C601 H628 0.931 . S
C602 C603 1.395 . S
C602 C604 1.320 . S
C603 C601 1.339 . S
C603 C602 1.395 . S
C603 H629 0.929 . S
C604 C602 1.320 . S
C604 C605 1.405 . S
C604 H630 0.930 . S
C605 C600 1.479 . S
C605 C604 1.405 . S
C605 H631 0.931 . S
U606 O607 2.454 . S
U606 O608 2.458 . S
U606 C609 2.984 . S
U606 C610 2.847 . S
U606 C623 2.882 . S
U606 O624 2.441 . S
U606 O625 2.420 . S
U606 O626 2.455 . S
U606 O627 2.449 . S
O607 U606 2.454 . S
O607 C609 1.353 . S
O608 U606 2.458 . S
O608 C609 1.286 . S
C609 U606 2.984 . S
C609 O607 1.353 . S
C609 O608 1.286 . S
C609 C611 1.363 . S
C610 C600 1.465 . S
C610 U606 2.847 . S
C610 O624 1.249 . S
C610 O625 1.202 . S
C611 C609 1.363 . S
C611 C613 1.408 . S
C611 C616 1.342 . S
C612 C613 1.310 . S
C612 C615 1.461 . S
C612 H632 0.932 . S
C613 C611 1.408 . S
C613 C612 1.310 . S
C613 H633 0.930 . S
C614 C615 1.474 . S
C614 C616 1.285 . S
C614 H634 0.929 . S
C615 C612 1.461 . S
C615 C614 1.474 . S
C616 C611 1.342 . S
C616 C614 1.285 . S
C616 H635 0.930 . S
C617 C620 1.424 . S
C617 C622 1.245 . S
C617 C623 1.428 . S
C618 C621 1.260 . S
C618 C622 1.477 . S
C618 H636 0.932 . S
C619 C620 1.384 . S
C619 C621 1.479 . S
C619 H637 0.929 . S
C620 C617 1.424 . S
C620 C619 1.384 . S
C620 H638 0.928 . S
C621 C618 1.260 . S
C621 C619 1.479 . S
C622 C617 1.245 . S
C622 C618 1.477 . S
C622 H639 0.932 . S
C623 U606 2.882 . S
C623 C617 1.428 . S
C623 O626 1.301 . S
C623 O627 1.282 . S
O624 U606 2.441 . S
O624 C610 1.249 . S
O625 U606 2.420 . S
O625 C610 1.202 . S
O626 U606 2.455 . S
O626 C623 1.301 . S
O627 U606 2.449 . S
O627 C623 1.282 . S
H628 C601 0.931 . S
H629 C603 0.929 . S
H630 C604 0.930 . S
H631 C605 0.931 . S
H632 C612 0.932 . S
H633 C613 0.930 . S
H634 C614 0.929 . S
H635 C616 0.930 . S
H636 C618 0.932 . S
H637 C619 0.929 . S
H638 C620 0.928 . S
H639 C622 0.932 . S
H640 C648 0.950 . S
H641 C653 0.950 . S
H642 C650 0.950 . S
H643 C652 0.950 . S
H644 C654 0.950 . S
H645 C656 0.950 . S
H646 C658 0.950 . S
H647 C659 0.950 . S
C648 H640 0.950 . S
C648 C649 1.386 1_554 S
C648 C650 1.391 . S
C649 C648 1.386 1_556 S
C649 C653 1.393 . S
C650 H642 0.950 . S
C650 C648 1.391 . S
C650 C651 1.400 1_554 S
C651 C650 1.400 1_556 S
C651 C652 1.398 . S
C651 C657 1.491 1_566 S
C652 H643 0.950 . S
C652 C651 1.398 . S
C652 C653 1.391 . S
C653 H641 0.950 . S
C653 C649 1.393 . S
C653 C652 1.391 . S
C654 H644 0.950 . S
C654 C655 1.386 1_556 S
C654 C656 1.391 . S
C655 C654 1.386 1_554 S
C655 C659 1.393 . S
C656 H645 0.950 . S
C656 C654 1.391 . S
C656 C657 1.400 1_556 S
C657 C651 1.491 1_544 S
C657 C656 1.400 1_554 S
C657 C658 1.398 . S
C658 H646 0.950 . S
C658 C657 1.398 . S
C658 C659 1.391 . S
C659 H647 0.950 . S
C659 C655 1.393 . S
C659 C658 1.391 . S
H660 C668 0.950 . S
H661 C673 0.936 1_556 S
H662 C670 0.950 . S
H663 C672 0.950 . S
H664 C674 0.950 . S
H665 C676 0.950 . S
H666 C678 0.950 . S
H667 C679 0.936 1_554 S
C668 H660 0.950 . S
C668 C669 1.386 . S
C668 C670 1.391 . S
C669 C668 1.386 . S
C669 C673 1.418 . S
C670 H662 0.950 . S
C670 C668 1.391 . S
C670 C671 1.400 . S
C671 C670 1.400 . S
C671 C672 1.398 1_554 S
C671 C677 1.491 1_654 S
C672 H663 0.950 . S
C672 C671 1.398 1_556 S
C672 C673 1.380 1_556 S
C673 H661 0.936 1_554 S
C673 C669 1.418 . S
C673 C672 1.380 1_554 S
C674 H664 0.950 . S
C674 C675 1.386 . S
C674 C676 1.391 . S
C675 C674 1.386 . S
C675 C679 1.418 . S
C676 H665 0.950 . S
C676 C674 1.391 . S
C676 C677 1.400 . S
C677 C671 1.491 1_456 S
C677 C676 1.400 . S
C677 C678 1.398 1_556 S
C678 H666 0.950 . S
C678 C677 1.398 1_554 S
C678 C679 1.380 1_554 S
C679 H667 0.936 1_556 S
C679 C675 1.418 . S
C679 C678 1.380 1_556 S
H680 C688 0.950 . S
H681 C693 0.950 . S
H682 C690 0.950 . S
H683 C692 0.950 . S
H684 C694 0.950 . S
H685 C696 0.950 . S
H686 C698 0.950 . S
H687 C699 0.950 . S
C688 H680 0.950 . S
C688 C689 1.386 1_554 S
C688 C690 1.391 . S
C689 C688 1.386 1_556 S
C689 C693 1.393 . S
C690 H682 0.950 . S
C690 C688 1.391 . S
C690 C691 1.400 1_554 S
C691 C690 1.400 1_556 S
C691 C692 1.398 . S
C691 C697 1.491 1_546 S
C692 H683 0.950 . S
C692 C691 1.398 . S
C692 C693 1.391 . S
C693 H681 0.950 . S
C693 C689 1.393 . S
C693 C692 1.391 . S
C694 H684 0.950 . S
C694 C695 1.386 1_556 S
C694 C696 1.391 . S
C695 C694 1.386 1_554 S
C695 C699 1.393 . S
C696 H685 0.950 . S
C696 C694 1.391 . S
C696 C697 1.400 1_556 S
C697 C691 1.491 1_564 S
C697 C696 1.400 1_554 S
C697 C698 1.398 . S
C698 H686 0.950 . S
C698 C697 1.398 . S
C698 C699 1.391 . S
C699 H687 0.950 . S
C699 C695 1.393 . S
C699 C698 1.391 . S
H700 C708 0.950 . S
H701 C713 0.950 . S
H702 C710 0.950 . S
H703 C712 0.958 . S
H704 C714 0.950 . S
H705 C716 0.950 . S
H706 C718 0.958 . S
H707 C719 0.950 . S
C708 H700 0.950 . S
C708 C709 1.386 . S
C708 C710 1.391 . S
C709 C708 1.386 . S
C709 C713 1.393 . S
C710 H702 0.950 . S
C710 C708 1.391 . S
C710 C711 1.400 . S
C711 C710 1.400 . S
C711 C712 1.396 1_554 S
C711 C717 1.491 1_454 S
C712 H703 0.958 . S
C712 C711 1.396 1_556 S
C712 C713 1.386 1_556 S
C713 H701 0.950 . S
C713 C709 1.393 . S
C713 C712 1.386 1_554 S
C714 H704 0.950 . S
C714 C715 1.386 . S
C714 C716 1.391 . S
C715 C714 1.386 . S
C715 C719 1.393 . S
C716 H705 0.950 . S
C716 C714 1.391 . S
C716 C717 1.400 . S
C717 C711 1.491 1_656 S
C717 C716 1.400 . S
C717 C718 1.396 1_556 S
C718 H706 0.958 . S
C718 C717 1.396 1_554 S
C718 C719 1.386 1_554 S
C719 H707 0.950 . S
C719 C715 1.393 . S
C719 C718 1.386 1_556 S
H720 C728 0.950 . S
H721 C733 0.950 . S
H722 C730 0.950 . S
H723 C732 0.950 . S
H724 C734 0.950 . S
H725 C736 0.950 . S
H726 C738 0.950 . S
H727 C739 0.950 . S
C728 H720 0.950 . S
C728 C729 1.386 . S
C728 C730 1.391 . S
C729 C728 1.386 . S
C729 C733 1.393 . S
C730 H722 0.950 . S
C730 C728 1.391 . S
C730 C731 1.400 . S
C731 C730 1.400 . S
C731 C732 1.398 . S
C731 C737 1.491 . S
C732 H723 0.950 . S
C732 C731 1.398 . S
C732 C733 1.391 . S
C733 H721 0.950 . S
C733 C729 1.393 . S
C733 C732 1.391 . S
C734 H724 0.950 . S
C734 C735 1.386 . S
C734 C736 1.391 . S
C735 C734 1.386 . S
C735 C739 1.393 . S
C736 H725 0.950 . S
C736 C734 1.391 . S
C736 C737 1.400 . S
C737 C731 1.491 . S
C737 C736 1.400 . S
C737 C738 1.398 . S
C738 H726 0.950 . S
C738 C737 1.398 . S
C738 C739 1.391 . S
C739 H727 0.950 . S
C739 C735 1.393 . S
C739 C738 1.391 . S
H740 C748 0.950 . S
H741 C753 0.950 . S
H742 C750 0.950 . S
H743 C752 0.950 . S
H744 C754 0.950 . S
H745 C756 0.950 . S
H746 C758 0.950 . S
H747 C759 0.950 . S
C748 H740 0.950 . S
C748 C749 1.386 . S
C748 C750 1.391 . S
C749 C748 1.386 . S
C749 C753 1.393 . S
C750 H742 0.950 . S
C750 C748 1.391 . S
C750 C751 1.400 . S
C751 C750 1.400 . S
C751 C752 1.398 . S
C751 C757 1.491 . S
C752 H743 0.950 . S
C752 C751 1.398 . S
C752 C753 1.391 . S
C753 H741 0.950 . S
C753 C749 1.393 . S
C753 C752 1.391 . S
C754 H744 0.950 . S
C754 C755 1.386 . S
C754 C756 1.391 . S
C755 C754 1.386 . S
C755 C759 1.393 . S
C756 H745 0.950 . S
C756 C754 1.391 . S
C756 C757 1.400 . S
C757 C751 1.491 . S
C757 C756 1.400 . S
C757 C758 1.398 . S
C758 H746 0.950 . S
C758 C757 1.398 . S
C758 C759 1.391 . S
C759 H747 0.950 . S
C759 C755 1.393 . S
C759 C758 1.391 . S
H760 C768 0.950 . S
H761 C773 0.950 . S
H762 C770 0.950 . S
H763 C772 0.950 . S
H764 C774 0.950 . S
H765 C776 0.950 . S
H766 C778 0.950 . S
H767 C779 0.950 . S
C768 H760 0.950 . S
C768 C769 1.386 . S
C768 C770 1.391 . S
C769 C768 1.386 . S
C769 C773 1.393 . S
C770 H762 0.950 . S
C770 C768 1.391 . S
C770 C771 1.400 . S
C771 C770 1.400 . S
C771 C772 1.398 . S
C771 C777 1.491 . S
C772 H763 0.950 . S
C772 C771 1.398 . S
C772 C773 1.391 . S
C773 H761 0.950 . S
C773 C769 1.393 . S
C773 C772 1.391 . S
C774 H764 0.950 . S
C774 C775 1.386 . S
C774 C776 1.391 . S
C775 C774 1.386 . S
C775 C779 1.393 . S
C776 H765 0.950 . S
C776 C774 1.391 . S
C776 C777 1.400 . S
C777 C771 1.491 . S
C777 C776 1.400 . S
C777 C778 1.398 . S
C778 H766 0.950 . S
C778 C777 1.398 . S
C778 C779 1.391 . S
C779 H767 0.950 . S
C779 C775 1.393 . S
C779 C778 1.391 . S
H780 C788 0.950 . S
H781 C793 0.950 . S
H782 C790 0.950 . S
H783 C792 0.950 . S
H784 C794 0.950 . S
H785 C796 0.950 . S
H786 C798 0.950 . S
H787 C799 0.950 . S
C788 H780 0.950 . S
C788 C789 1.386 . S
C788 C790 1.391 . S
C789 C788 1.386 . S
C789 C793 1.393 . S
C790 H782 0.950 . S
C790 C788 1.391 . S
C790 C791 1.400 . S
C791 C790 1.400 . S
C791 C792 1.398 . S
C791 C797 1.491 . S
C792 H783 0.950 . S
C792 C791 1.398 . S
C792 C793 1.391 . S
C793 H781 0.950 . S
C793 C789 1.393 . S
C793 C792 1.391 . S
C794 H784 0.950 . S
C794 C795 1.386 . S
C794 C796 1.391 . S
C795 C794 1.386 . S
C795 C799 1.393 . S
C796 H785 0.950 . S
C796 C794 1.391 . S
C796 C797 1.400 . S
C797 C791 1.491 . S
C797 C796 1.400 . S
C797 C798 1.398 . S
C798 H786 0.950 . S
C798 C797 1.398 . S
C798 C799 1.391 . S
C799 H787 0.950 . S
C799 C795 1.393 . S
C799 C798 1.391 . S
H800 C808 0.950 . S
H801 C813 0.950 . S
H802 C810 0.950 . S
H803 C812 0.944 1_556 S
H804 C814 0.950 . S
H805 C816 0.950 . S
H806 C818 0.944 1_554 S
H807 C819 0.950 . S
C808 H800 0.950 . S
C808 C809 1.386 . S
C808 C810 1.391 . S
C809 C808 1.386 . S
C809 C813 1.393 . S
C810 H802 0.950 . S
C810 C808 1.391 . S
C810 C811 1.400 . S
C811 C810 1.400 . S
C811 C812 1.400 . S
C811 C817 1.491 1_554 S
C812 H803 0.944 1_554 S
C812 C811 1.400 . S
C812 C813 1.395 . S
C813 H801 0.950 . S
C813 C809 1.393 . S
C813 C812 1.395 . S
C814 H804 0.950 . S
C814 C815 1.386 . S
C814 C816 1.391 . S
C815 C814 1.386 . S
C815 C819 1.393 . S
C816 H805 0.950 . S
C816 C814 1.391 . S
C816 C817 1.400 . S
C817 C811 1.491 1_556 S
C817 C816 1.400 . S
C817 C818 1.400 . S
C818 H806 0.944 1_556 S
C818 C817 1.400 . S
C818 C819 1.395 . S
C819 H807 0.950 . S
C819 C815 1.393 . S
C819 C818 1.395 . S
H820 C828 0.950 . S
H821 C833 0.950 . S
H822 C830 0.950 . S
H823 C832 0.950 . S
H824 C834 0.950 . S
H825 C836 0.950 . S
H826 C838 0.950 . S
H827 C839 0.950 . S
C828 H820 0.950 . S
C828 C829 1.386 1_554 S
C828 C830 1.391 . S
C829 C828 1.386 1_556 S
C829 C833 1.393 . S
C830 H822 0.950 . S
C830 C828 1.391 . S
C830 C831 1.400 1_554 S
C831 C830 1.400 1_556 S
C831 C832 1.398 . S
C831 C837 1.491 1_556 S
C832 H823 0.950 . S
C832 C831 1.398 . S
C832 C833 1.391 . S
C833 H821 0.950 . S
C833 C829 1.393 . S
C833 C832 1.391 . S
C834 H824 0.950 . S
C834 C835 1.386 1_556 S
C834 C836 1.391 . S
C835 C834 1.386 1_554 S
C835 C839 1.393 . S
C836 H825 0.950 . S
C836 C834 1.391 . S
C836 C837 1.400 1_556 S
C837 C831 1.491 1_554 S
C837 C836 1.400 1_554 S
C837 C838 1.398 . S
C838 H826 0.950 . S
C838 C837 1.398 . S
C838 C839 1.391 . S
C839 H827 0.950 . S
C839 C835 1.393 . S
C839 C838 1.391 . S
H840 C848 0.950 . S
H841 C853 0.950 . S
H842 C850 0.950 . S
H843 C852 0.950 . S
H844 C854 0.950 . S
H845 C856 0.950 . S
H846 C858 0.950 . S
H847 C859 0.950 . S
C848 H840 0.950 . S
C848 C849 1.386 1_556 S
C848 C850 1.391 . S
C849 C848 1.386 1_554 S
C849 C853 1.393 . S
C850 H842 0.950 . S
C850 C848 1.391 . S
C850 C851 1.400 1_556 S
C851 C850 1.400 1_554 S
C851 C852 1.398 . S
C851 C857 1.491 1_554 S
C852 H843 0.950 . S
C852 C851 1.398 . S
C852 C853 1.391 . S
C853 H841 0.950 . S
C853 C849 1.393 . S
C853 C852 1.391 . S
C854 H844 0.950 . S
C854 C855 1.386 1_554 S
C854 C856 1.391 . S
C855 C854 1.386 1_556 S
C855 C859 1.393 . S
C856 H845 0.950 . S
C856 C854 1.391 . S
C856 C857 1.400 1_554 S
C857 C851 1.491 1_556 S
C857 C856 1.400 1_556 S
C857 C858 1.398 . S
C858 H846 0.950 . S
C858 C857 1.398 . S
C858 C859 1.391 . S
C859 H847 0.950 . S
C859 C855 1.393 . S
C859 C858 1.391 . S
H860 C868 0.950 . S
H861 C873 0.950 . S
H862 C870 0.950 . S
H863 C872 0.950 1_556 S
H864 C874 0.950 . S
H865 C876 0.950 . S
H866 C878 0.950 1_554 S
H867 C879 0.950 . S
C868 H860 0.950 . S
C868 C869 1.386 . S
C868 C870 1.391 . S
C869 C868 1.386 . S
C869 C873 1.393 . S
C870 H862 0.950 . S
C870 C868 1.391 . S
C870 C871 1.400 . S
C871 C870 1.400 . S
C871 C872 1.398 . S
C871 C877 1.491 1_554 S
C872 H863 0.950 1_554 S
C872 C871 1.398 . S
C872 C873 1.391 . S
C873 H861 0.950 . S
C873 C869 1.393 . S
C873 C872 1.391 . S
C874 H864 0.950 . S
C874 C875 1.386 . S
C874 C876 1.391 . S
C875 C874 1.386 . S
C875 C879 1.393 . S
C876 H865 0.950 . S
C876 C874 1.391 . S
C876 C877 1.400 . S
C877 C871 1.491 1_556 S
C877 C876 1.400 . S
C877 C878 1.398 . S
C878 H866 0.950 1_556 S
C878 C877 1.398 . S
C878 C879 1.391 . S
C879 H867 0.950 . S
C879 C875 1.393 . S
C879 C878 1.391 . S
H880 C888 0.950 . S
H881 C893 0.950 . S
H882 C890 0.950 . S
H883 C892 0.950 . S
H884 C894 0.950 . S
H885 C896 0.950 . S
H886 C898 0.950 . S
H887 C899 0.950 . S
C888 H880 0.950 . S
C888 C889 1.386 . S
C888 C890 1.391 . S
C889 C888 1.386 . S
C889 C893 1.393 . S
C890 H882 0.950 . S
C890 C888 1.391 . S
C890 C891 1.400 . S
C891 C890 1.400 . S
C891 C892 1.398 . S
C891 C897 1.491 . S
C892 H883 0.950 . S
C892 C891 1.398 . S
C892 C893 1.391 . S
C893 H881 0.950 . S
C893 C889 1.393 . S
C893 C892 1.391 . S
C894 H884 0.950 . S
C894 C895 1.386 . S
C894 C896 1.391 . S
C895 C894 1.386 . S
C895 C899 1.393 . S
C896 H885 0.950 . S
C896 C894 1.391 . S
C896 C897 1.400 . S
C897 C891 1.491 . S
C897 C896 1.400 . S
C897 C898 1.398 . S
C898 H886 0.950 . S
C898 C897 1.398 . S
C898 C899 1.391 . S
C899 H887 0.950 . S
C899 C895 1.393 . S
C899 C898 1.391 . S
H900 C908 0.950 . S
H901 C913 0.950 . S
H902 C910 0.950 . S
H903 C912 0.950 . S
H904 C914 0.950 . S
H905 C916 0.950 . S
H906 C918 0.950 . S
H907 C919 0.950 . S
C908 H900 0.950 . S
C908 C909 1.386 . S
C908 C910 1.391 . S
C909 C908 1.386 . S
C909 C913 1.393 . S
C910 H902 0.950 . S
C910 C908 1.391 . S
C910 C911 1.400 . S
C911 C910 1.400 . S
C911 C912 1.398 . S
C911 C917 1.491 . S
C912 H903 0.950 . S
C912 C911 1.398 . S
C912 C913 1.391 . S
C913 H901 0.950 . S
C913 C909 1.393 . S
C913 C912 1.391 . S
C914 H904 0.950 . S
C914 C915 1.386 . S
C914 C916 1.391 . S
C915 C914 1.386 . S
C915 C919 1.393 . S
C916 H905 0.950 . S
C916 C914 1.391 . S
C916 C917 1.400 . S
C917 C911 1.491 . S
C917 C916 1.400 . S
C917 C918 1.398 . S
C918 H906 0.950 . S
C918 C917 1.398 . S
C918 C919 1.391 . S
C919 H907 0.950 . S
C919 C915 1.393 . S
C919 C918 1.391 . S
H920 C928 0.950 . S
H921 C933 0.950 . S
H922 C930 0.950 . S
H923 C932 0.950 . S
H924 C934 0.950 . S
H925 C936 0.950 . S
H926 C938 0.950 . S
H927 C939 0.950 . S
C928 H920 0.950 . S
C928 C929 1.386 . S
C928 C930 1.391 . S
C929 C928 1.386 . S
C929 C933 1.393 . S
C930 H922 0.950 . S
C930 C928 1.391 . S
C930 C931 1.400 . S
C931 C930 1.400 . S
C931 C932 1.398 . S
C931 C937 1.491 . S
C932 H923 0.950 . S
C932 C931 1.398 . S
C932 C933 1.391 . S
C933 H921 0.950 . S
C933 C929 1.393 . S
C933 C932 1.391 . S
C934 H924 0.950 . S
C934 C935 1.386 . S
C934 C936 1.391 . S
C935 C934 1.386 . S
C935 C939 1.393 . S
C936 H925 0.950 . S
C936 C934 1.391 . S
C936 C937 1.400 . S
C937 C931 1.491 . S
C937 C936 1.400 . S
C937 C938 1.398 . S
C938 H926 0.950 . S
C938 C937 1.398 . S
C938 C939 1.391 . S
C939 H927 0.950 . S
C939 C935 1.393 . S
C939 C938 1.391 . S
H940 C948 0.950 . S
H941 C953 0.950 . S
H942 C950 0.950 . S
H943 C952 0.950 . S
H944 C954 0.950 . S
H945 C956 0.950 . S
H946 C958 0.950 . S
H947 C959 0.950 . S
C948 H940 0.950 . S
C948 C949 1.386 . S
C948 C950 1.391 . S
C949 C948 1.386 . S
C949 C953 1.393 . S
C950 H942 0.950 . S
C950 C948 1.391 . S
C950 C951 1.400 . S
C951 C950 1.400 . S
C951 C952 1.398 . S
C951 C957 1.491 . S
C952 H943 0.950 . S
C952 C951 1.398 . S
C952 C953 1.391 . S
C953 H941 0.950 . S
C953 C949 1.393 . S
C953 C952 1.391 . S
C954 H944 0.950 . S
C954 C955 1.386 . S
C954 C956 1.391 . S
C955 C954 1.386 . S
C955 C959 1.393 . S
C956 H945 0.950 . S
C956 C954 1.391 . S
C956 C957 1.400 . S
C957 C951 1.491 . S
C957 C956 1.400 . S
C957 C958 1.398 . S
C958 H946 0.950 . S
C958 C957 1.398 . S
C958 C959 1.391 . S
C959 H947 0.950 . S
C959 C955 1.393 . S
C959 C958 1.391 . S
H960 C968 0.950 . S
H961 C973 0.950 . S
H962 C970 0.950 . S
H963 C972 0.950 . S
H964 C974 0.950 . S
H965 C976 0.950 . S
H966 C978 0.950 . S
H967 C979 0.950 . S
C968 H960 0.950 . S
C968 C969 1.386 . S
C968 C970 1.391 . S
C969 C968 1.386 . S
C969 C973 1.393 . S
C970 H962 0.950 . S
C970 C968 1.391 . S
C970 C971 1.400 . S
C971 C970 1.400 . S
C971 C972 1.398 . S
C971 C977 1.491 . S
C972 H963 0.950 . S
C972 C971 1.398 . S
C972 C973 1.391 . S
C973 H961 0.950 . S
C973 C969 1.393 . S
C973 C972 1.391 . S
C974 H964 0.950 . S
C974 C975 1.386 . S
C974 C976 1.391 . S
C975 C974 1.386 . S
C975 C979 1.393 . S
C976 H965 0.950 . S
C976 C974 1.391 . S
C976 C977 1.400 . S
C977 C971 1.491 . S
C977 C976 1.400 . S
C977 C978 1.398 . S
C978 H966 0.950 . S
C978 C977 1.398 . S
C978 C979 1.391 . S
C979 H967 0.950 . S
C979 C975 1.393 . S
C979 C978 1.391 . S
H980 C988 0.950 . S
H981 C993 0.950 . S
H982 C990 0.950 . S
H983 C992 0.950 . S
H984 C994 0.950 . S
H985 C996 0.950 . S
H986 C998 0.950 . S
H987 C999 0.950 . S
C988 H980 0.950 . S
C988 C989 1.386 . S
C988 C990 1.391 . S
C989 C988 1.386 . S
C989 C993 1.393 . S
C990 H982 0.950 . S
C990 C988 1.391 . S
C990 C991 1.400 . S
C991 C990 1.400 . S
C991 C992 1.398 . S
C991 C997 1.491 . S
C992 H983 0.950 . S
C992 C991 1.398 . S
C992 C993 1.391 . S
C993 H981 0.950 . S
C993 C989 1.393 . S
C993 C992 1.391 . S
C994 H984 0.950 . S
C994 C995 1.386 . S
C994 C996 1.391 . S
C995 C994 1.386 . S
C995 C999 1.393 . S
C996 H985 0.950 . S
C996 C994 1.391 . S
C996 C997 1.400 . S
C997 C991 1.491 . S
C997 C996 1.400 . S
C997 C998 1.398 . S
C998 H986 0.950 . S
C998 C997 1.398 . S
C998 C999 1.391 . S
C999 H987 0.950 . S
C999 C995 1.393 . S
C999 C998 1.391 . S
H1000 C1008 0.950 . S
H1001 C1013 0.950 . S
H1002 C1010 0.950 . S
H1003 C1012 0.950 . S
H1004 C1014 0.950 . S
H1005 C1016 0.950 . S
H1006 C1018 0.950 . S
H1007 C1019 0.950 . S
C1008 H1000 0.950 . S
C1008 C1009 1.386 . S
C1008 C1010 1.391 . S
C1009 C1008 1.386 . S
C1009 C1013 1.393 . S
C1010 H1002 0.950 . S
C1010 C1008 1.391 . S
C1010 C1011 1.400 . S
C1011 C1010 1.400 . S
C1011 C1012 1.398 . S
C1011 C1017 1.491 . S
C1012 H1003 0.950 . S
C1012 C1011 1.398 . S
C1012 C1013 1.391 . S
C1013 H1001 0.950 . S
C1013 C1009 1.393 . S
C1013 C1012 1.391 . S
C1014 H1004 0.950 . S
C1014 C1015 1.386 . S
C1014 C1016 1.391 . S
C1015 C1014 1.386 . S
C1015 C1019 1.393 . S
C1016 H1005 0.950 . S
C1016 C1014 1.391 . S
C1016 C1017 1.400 . S
C1017 C1011 1.491 . S
C1017 C1016 1.400 . S
C1017 C1018 1.398 . S
C1018 H1006 0.950 . S
C1018 C1017 1.398 . S
C1018 C1019 1.391 . S
C1019 H1007 0.950 . S
C1019 C1015 1.393 . S
C1019 C1018 1.391 . S
H1020 C1028 0.950 . S
H1021 C1033 0.950 . S
H1022 C1030 0.950 . S
H1023 C1032 0.950 . S
H1024 C1034 0.950 . S
H1025 C1036 0.950 . S
H1026 C1038 0.950 . S
H1027 C1039 0.950 . S
C1028 H1020 0.950 . S
C1028 C1029 1.386 . S
C1028 C1030 1.391 . S
C1029 C1028 1.386 . S
C1029 C1033 1.393 . S
C1030 H1022 0.950 . S
C1030 C1028 1.391 . S
C1030 C1031 1.400 . S
C1031 C1030 1.400 . S
C1031 C1032 1.398 . S
C1031 C1037 1.491 . S
C1032 H1023 0.950 . S
C1032 C1031 1.398 . S
C1032 C1033 1.391 . S
C1033 H1021 0.950 . S
C1033 C1029 1.393 . S
C1033 C1032 1.391 . S
C1034 H1024 0.950 . S
C1034 C1035 1.386 . S
C1034 C1036 1.391 . S
C1035 C1034 1.386 . S
C1035 C1039 1.393 . S
C1036 H1025 0.950 . S
C1036 C1034 1.391 . S
C1036 C1037 1.400 . S
C1037 C1031 1.491 . S
C1037 C1036 1.400 . S
C1037 C1038 1.398 . S
C1038 H1026 0.950 . S
C1038 C1037 1.398 . S
C1038 C1039 1.391 . S
C1039 H1027 0.950 . S
C1039 C1035 1.393 . S
C1039 C1038 1.391 . S
H1040 C1048 0.950 . S
H1041 C1053 0.950 . S
H1042 C1050 0.950 . S
H1043 C1052 0.950 . S
H1044 C1054 0.950 . S
H1045 C1056 0.950 . S
H1046 C1058 0.950 . S
H1047 C1059 0.950 . S
C1048 H1040 0.950 . S
C1048 C1049 1.386 . S
C1048 C1050 1.391 . S
C1049 C1048 1.386 . S
C1049 C1053 1.393 . S
C1050 H1042 0.950 . S
C1050 C1048 1.391 . S
C1050 C1051 1.400 . S
C1051 C1050 1.400 . S
C1051 C1052 1.398 . S
C1051 C1057 1.491 . S
C1052 H1043 0.950 . S
C1052 C1051 1.398 . S
C1052 C1053 1.391 . S
C1053 H1041 0.950 . S
C1053 C1049 1.393 . S
C1053 C1052 1.391 . S
C1054 H1044 0.950 . S
C1054 C1055 1.386 . S
C1054 C1056 1.391 . S
C1055 C1054 1.386 . S
C1055 C1059 1.393 . S
C1056 H1045 0.950 . S
C1056 C1054 1.391 . S
C1056 C1057 1.400 . S
C1057 C1051 1.491 . S
C1057 C1056 1.400 . S
C1057 C1058 1.398 . S
C1058 H1046 0.950 . S
C1058 C1057 1.398 . S
C1058 C1059 1.391 . S
C1059 H1047 0.950 . S
C1059 C1055 1.393 . S
C1059 C1058 1.391 . S
H1060 C1068 0.950 . S
H1061 C1073 0.950 . S
H1062 C1070 0.950 . S
H1063 C1072 0.950 . S
H1064 C1074 0.950 . S
H1065 C1076 0.950 . S
H1066 C1078 0.950 . S
H1067 C1079 0.950 . S
C1068 H1060 0.950 . S
C1068 C1069 1.386 . S
C1068 C1070 1.391 . S
C1069 C1068 1.386 . S
C1069 C1073 1.393 . S
C1070 H1062 0.950 . S
C1070 C1068 1.391 . S
C1070 C1071 1.400 . S
C1071 C1070 1.400 . S
C1071 C1072 1.398 . S
C1071 C1077 1.491 . S
C1072 H1063 0.950 . S
C1072 C1071 1.398 . S
C1072 C1073 1.391 . S
C1073 H1061 0.950 . S
C1073 C1069 1.393 . S
C1073 C1072 1.391 . S
C1074 H1064 0.950 . S
C1074 C1075 1.386 . S
C1074 C1076 1.391 . S
C1075 C1074 1.386 . S
C1075 C1079 1.393 . S
C1076 H1065 0.950 . S
C1076 C1074 1.391 . S
C1076 C1077 1.400 . S
C1077 C1071 1.491 . S
C1077 C1076 1.400 . S
C1077 C1078 1.398 . S
C1078 H1066 0.950 . S
C1078 C1077 1.398 . S
C1078 C1079 1.391 . S
C1079 H1067 0.950 . S
C1079 C1075 1.393 . S
C1079 C1078 1.391 . S
H1080 C1088 0.950 . S
H1081 C1093 0.950 . S
H1082 C1090 0.950 . S
H1083 C1092 0.950 . S
H1084 C1094 0.950 . S
H1085 C1096 0.950 . S
H1086 C1098 0.950 . S
H1087 C1099 0.950 . S
C1088 H1080 0.950 . S
C1088 C1089 1.386 . S
C1088 C1090 1.391 . S
C1089 C1088 1.386 . S
C1089 C1093 1.393 . S
C1090 H1082 0.950 . S
C1090 C1088 1.391 . S
C1090 C1091 1.400 . S
C1091 C1090 1.400 . S
C1091 C1092 1.398 . S
C1091 C1097 1.491 . S
C1092 H1083 0.950 . S
C1092 C1091 1.398 . S
C1092 C1093 1.391 . S
C1093 H1081 0.950 . S
C1093 C1089 1.393 . S
C1093 C1092 1.391 . S
C1094 H1084 0.950 . S
C1094 C1095 1.386 . S
C1094 C1096 1.391 . S
C1095 C1094 1.386 . S
C1095 C1099 1.393 . S
C1096 H1085 0.950 . S
C1096 C1094 1.391 . S
C1096 C1097 1.400 . S
C1097 C1091 1.491 . S
C1097 C1096 1.400 . S
C1097 C1098 1.398 . S
C1098 H1086 0.950 . S
C1098 C1097 1.398 . S
C1098 C1099 1.391 . S
C1099 H1087 0.950 . S
C1099 C1095 1.393 . S
C1099 C1098 1.391 . S
H1100 C1108 0.950 . S
H1101 C1113 0.950 . S
H1102 C1110 0.950 . S
H1103 C1112 0.950 . S
H1104 C1114 0.950 . S
H1105 C1116 0.950 . S
H1106 C1118 0.950 . S
H1107 C1119 0.950 . S
C1108 H1100 0.950 . S
C1108 C1109 1.386 . S
C1108 C1110 1.391 . S
C1109 C1108 1.386 . S
C1109 C1113 1.393 . S
C1110 H1102 0.950 . S
C1110 C1108 1.391 . S
C1110 C1111 1.400 . S
C1111 C1110 1.400 . S
C1111 C1112 1.398 . S
C1111 C1117 1.491 . S
C1112 H1103 0.950 . S
C1112 C1111 1.398 . S
C1112 C1113 1.391 . S
C1113 H1101 0.950 . S
C1113 C1109 1.393 . S
C1113 C1112 1.391 . S
C1114 H1104 0.950 . S
C1114 C1115 1.386 . S
C1114 C1116 1.391 . S
C1115 C1114 1.386 . S
C1115 C1119 1.393 . S
C1116 H1105 0.950 . S
C1116 C1114 1.391 . S
C1116 C1117 1.400 . S
C1117 C1111 1.491 . S
C1117 C1116 1.400 . S
C1117 C1118 1.398 . S
C1118 H1106 0.950 . S
C1118 C1117 1.398 . S
C1118 C1119 1.391 . S
C1119 H1107 0.950 . S
C1119 C1115 1.393 . S
C1119 C1118 1.391 . S
C649 C175 1.773 . S
C655 C15 1.767 . S
C669 C55 1.772 . S
C675 C215 1.775 . S
C689 C255 1.773 . S
C695 C95 1.767 . S
C709 C135 1.774 . S
C715 C295 1.775 . S
C729 C335 1.769 . S
C735 C495 1.775 . S
C749 C535 1.771 . S
C755 C375 1.775 . S
C769 C575 1.766 . S
C775 C415 1.770 . S
C789 C455 1.772 . S
C795 C615 1.776 . S
C809 C21 1.807 . S
C815 C221 1.807 . S
C829 C261 1.807 . S
C835 C61 1.804 . S
C849 C101 1.804 . S
C855 C301 1.802 . S
C869 C141 1.807 . S
C875 C181 1.807 . S
C889 C341 1.807 . S
C895 C541 1.805 . S
C909 C581 1.801 . S
C915 C381 1.802 . S
C929 C421 1.807 . S
C935 C621 1.807 . S
C949 C501 1.803 . S
C955 C461 1.805 . S
C969 C602 1.881 . S
C975 C2 1.878 . S
C989 C482 1.889 . S
C995 C42 1.889 . S
C1009 C82 1.889 . S
C1015 C522 1.889 . S
C1029 C562 1.881 . S
C1035 C122 1.885 . S
C1049 C162 1.887 . S
C1055 C362 1.883 . S
C1069 C402 1.878 . S
C1075 C202 1.880 . S
C1089 C442 1.880 . S
C1095 C242 1.878 . S
C1109 C322 1.888 . S
C1115 C282 1.884 . S
