# Generated by pormake.
# Topology umy, (4)-cn, num edge types: 1
# Building blocks:
#     Node 0, Type 0, BuildingBlock: GALJAG_clean_sbu_0, # of connection points: 4
#     Node 1, Type 0, BuildingBlock: GALJAG_clean_sbu_0, # of connection points: 4
#     Node 2, Type 0, BuildingBlock: GALJAG_clean_sbu_0, # of connection points: 4
#     Node 3, Type 0, BuildingBlock: GALJAG_clean_sbu_0, # of connection points: 4
#     Node 4, Type 0, BuildingBlock: GALJAG_clean_sbu_0, # of connection points: 4
#     Node 5, Type 0, BuildingBlock: GALJAG_clean_sbu_0, # of connection points: 4
#     Node 6, Type 0, BuildingBlock: GALJAG_clean_sbu_0, # of connection points: 4
#     Node 7, Type 0, BuildingBlock: GALJAG_clean_sbu_0, # of connection points: 4
#     Node 8, Type 0, BuildingBlock: GALJAG_clean_sbu_0, # of connection points: 4
#     Node 9, Type 0, BuildingBlock: GALJAG_clean_sbu_0, # of connection points: 4
#     Node 10, Type 0, BuildingBlock: GALJAG_clean_sbu_0, # of connection points: 4
#     Node 11, Type 0, BuildingBlock: GALJAG_clean_sbu_0, # of connection points: 4
#     Edge 12, Type (0, 0), BuildingBlock: KIFKEQ_clean_linker_1, # of connection points: 2
#     Edge 13, Type (0, 0), BuildingBlock: KIFKEQ_clean_linker_1, # of connection points: 2
#     Edge 14, Type (0, 0), BuildingBlock: KIFKEQ_clean_linker_1, # of connection points: 2
#     Edge 15, Type (0, 0), BuildingBlock: KIFKEQ_clean_linker_1, # of connection points: 2
#     Edge 16, Type (0, 0), BuildingBlock: KIFKEQ_clean_linker_1, # of connection points: 2
#     Edge 17, Type (0, 0), BuildingBlock: KIFKEQ_clean_linker_1, # of connection points: 2
#     Edge 18, Type (0, 0), BuildingBlock: KIFKEQ_clean_linker_1, # of connection points: 2
#     Edge 19, Type (0, 0), BuildingBlock: KIFKEQ_clean_linker_1, # of connection points: 2
#     Edge 20, Type (0, 0), BuildingBlock: KIFKEQ_clean_linker_1, # of connection points: 2
#     Edge 21, Type (0, 0), BuildingBlock: KIFKEQ_clean_linker_1, # of connection points: 2
#     Edge 22, Type (0, 0), BuildingBlock: KIFKEQ_clean_linker_1, # of connection points: 2
#     Edge 23, Type (0, 0), BuildingBlock: KIFKEQ_clean_linker_1, # of connection points: 2
#     Edge 24, Type (0, 0), BuildingBlock: KIFKEQ_clean_linker_1, # of connection points: 2
#     Edge 25, Type (0, 0), BuildingBlock: KIFKEQ_clean_linker_1, # of connection points: 2
#     Edge 26, Type (0, 0), BuildingBlock: KIFKEQ_clean_linker_1, # of connection points: 2
#     Edge 27, Type (0, 0), BuildingBlock: KIFKEQ_clean_linker_1, # of connection points: 2
#     Edge 28, Type (0, 0), BuildingBlock: KIFKEQ_clean_linker_1, # of connection points: 2
#     Edge 29, Type (0, 0), BuildingBlock: KIFKEQ_clean_linker_1, # of connection points: 2
#     Edge 30, Type (0, 0), BuildingBlock: KIFKEQ_clean_linker_1, # of connection points: 2
#     Edge 31, Type (0, 0), BuildingBlock: KIFKEQ_clean_linker_1, # of connection points: 2
#     Edge 32, Type (0, 0), BuildingBlock: KIFKEQ_clean_linker_1, # of connection points: 2
#     Edge 33, Type (0, 0), BuildingBlock: KIFKEQ_clean_linker_1, # of connection points: 2
#     Edge 34, Type (0, 0), BuildingBlock: KIFKEQ_clean_linker_1, # of connection points: 2
#     Edge 35, Type (0, 0), BuildingBlock: KIFKEQ_clean_linker_1, # of connection points: 2
# Relax obj value: 0.077
# Max RMSD: 0.075
# Mean RMSD: 0.075
data_MOF--net-umy--node1-GALJAG_clean_sbu_0--edge1-KIFKEQ_clean_linker_1
_symmetry_space_group_name_H-M    P1
_symmetry_Int_Tables_number       1
_symmetry_cell_setting            triclinic
loop_
_symmetry_equiv_pos_as_xyz
'x, y, z'
_cell_length_a     35.866524
_cell_length_b     35.928719
_cell_length_c     61.05657
_cell_angle_alpha  89.908252
_cell_angle_beta   90.025864
_cell_angle_gamma 120.04548
loop_
_atom_site_label
_atom_site_type_symbol
_atom_site_fract_x
_atom_site_fract_y
_atom_site_fract_z
_atom_type_partial_charge
In0 In 0.0541 0.33633 0.14269 0.0
O1 O 0.05313 0.2998 0.11155 0.0
O2 O 0.11319 0.35009 0.12315 0.0
C3 C 0.9813 0.26943 0.159 0.0
C4 C 0.04735 0.40134 0.12468 0.0
C5 C 0.09941 0.35638 0.18036 0.0
O6 O 0.01407 0.26657 0.15438 0.0
O7 O 0.98468 0.30523 0.15442 0.0
O8 O 0.07043 0.36588 0.177 0.0
O9 O 0.10586 0.33756 0.16465 0.0
C10 C 0.09341 0.32183 0.10877 0.0
O11 O 0.07666 0.40749 0.13809 0.0
O12 O 0.0209 0.36236 0.12069 0.0
In13 In 0.71442 0.05218 0.30878 0.0
O14 O 0.65935 0.06606 0.30511 0.0
O15 O 0.66086 0.02064 0.28337 0.0
C16 C 0.74618 0.10299 0.34444 0.0
C17 C 0.76798 0.09182 0.27487 0.0
C18 C 0.70182 0.97831 0.32731 0.0
O19 O 0.70637 0.08096 0.34055 0.0
O20 O 0.76994 0.10006 0.33015 0.0
O21 O 0.73699 0.00466 0.31833 0.0
O22 O 0.67296 0.9884 0.326 0.0
C23 C 0.64196 0.04063 0.28925 0.0
O24 O 0.75442 0.05274 0.2794 0.0
O25 O 0.75488 0.11056 0.28756 0.0
In26 In 0.65407 0.71525 0.47829 0.0
O27 O 0.58449 0.66346 0.47363 0.0
O28 O 0.63235 0.65503 0.45746 0.0
C29 C 0.64291 0.758 0.5117 0.0
C30 C 0.66849 0.76485 0.44251 0.0
C31 C 0.70786 0.69476 0.49891 0.0
O32 O 0.61514 0.71999 0.5067 0.0
O33 O 0.67552 0.77485 0.4994 0.0
O34 O 0.72042 0.72149 0.48331 0.0
O35 O 0.66831 0.67759 0.50332 0.0
C36 C 0.59274 0.64068 0.46103 0.0
O37 O 0.69833 0.76152 0.45161 0.0
O38 O 0.63223 0.74394 0.45163 0.0
In39 In 0.93649 0.652 0.64494 0.0
O40 O 0.91953 0.58266 0.64034 0.0
O41 O 0.97301 0.63068 0.6224 0.0
C42 C 0.88729 0.64213 0.68034 0.0
C43 C 0.89504 0.6624 0.61072 0.0
C44 C 0.01235 0.7084 0.66334 0.0
O45 O 0.8975 0.61452 0.67494 0.0
O46 O 0.90096 0.67396 0.6676 0.0
O47 O 0.99364 0.72017 0.64978 0.0
O48 O 0.99359 0.66844 0.66679 0.0
C49 C 0.94898 0.59117 0.62655 0.0
O50 O 0.93235 0.69143 0.61632 0.0
O51 O 0.87895 0.62918 0.62255 0.0
In52 In 0.28157 0.93294 0.80983 0.0
O53 O 0.23573 0.92845 0.78246 0.0
O54 O 0.25297 0.8798 0.78462 0.0
C55 C 0.29999 0.00545 0.8315 0.0
C56 C 0.35827 0.95345 0.79233 0.0
C57 C 0.23649 0.8768 0.84204 0.0
O58 O 0.27436 0.99226 0.81542 0.0
O59 O 0.31694 0.98294 0.83592 0.0
O60 O 0.27335 0.88402 0.83626 0.0
O61 O 0.2222 0.8968 0.83113 0.0
C62 C 0.23217 0.89428 0.77458 0.0
O63 O 0.34133 0.92636 0.80766 0.0
O64 O 0.33683 0.97071 0.78614 0.0
In65 In 0.33354 0.27578 0.97604 0.0
O66 O 0.39935 0.33649 0.97497 0.0
O67 O 0.35501 0.32655 0.9493 0.0
C68 C 0.34642 0.24029 0.01226 0.0
C69 C 0.32668 0.22321 0.94292 0.0
C70 C 0.27205 0.29051 0.99229 0.0
O71 O 0.37446 0.27684 0.00528 0.0
O72 O 0.31285 0.22169 0.00073 0.0
O73 O 0.2631 0.25605 0.9826 0.0
O74 O 0.31163 0.31796 0.99292 0.0
C75 C 0.39214 0.35004 0.95725 0.0
O76 O 0.29756 0.23221 0.947 0.0
O77 O 0.35857 0.24017 0.9557 0.0
In78 In 0.66121 0.9445 0.69156 0.0
O79 O 0.69953 0.93636 0.71937 0.0
O80 O 0.63557 0.88567 0.71332 0.0
C81 C 0.71853 0.02006 0.67309 0.0
C82 C 0.60438 0.96201 0.7108 0.0
C83 C 0.64884 0.89465 0.6562 0.0
O84 O 0.73016 0.00034 0.68606 0.0
O85 O 0.67841 0.00259 0.67041 0.0
O86 O 0.61982 0.90142 0.66347 0.0
O87 O 0.68321 0.91178 0.66719 0.0
C88 C 0.6691 0.89968 0.72488 0.0
O89 O 0.59544 0.93907 0.69381 0.0
O90 O 0.64235 0.97688 0.71783 0.0
In91 In 0.71157 0.65523 0.85896 0.0
O92 O 0.75033 0.6924 0.88914 0.0
O93 O 0.75452 0.63818 0.87866 0.0
C94 C 0.69232 0.71072 0.83918 0.0
C95 C 0.63782 0.59462 0.8776 0.0
C96 C 0.75163 0.64516 0.82409 0.0
O97 O 0.72289 0.72315 0.85273 0.0
O98 O 0.67067 0.67057 0.83657 0.0
O99 O 0.7164 0.61491 0.83134 0.0
O100 O 0.76694 0.67973 0.83482 0.0
C101 C 0.76593 0.66816 0.89238 0.0
O102 O 0.6546 0.58691 0.86133 0.0
O103 O 0.6579 0.63302 0.88423 0.0
In104 In 0.05535 0.71674 0.02444 0.0
O105 O 0.05584 0.75065 0.05643 0.0
O106 O 0.11571 0.76539 0.04221 0.0
C107 C 0.97948 0.70231 0.0079 0.0
C108 C 0.04895 0.64576 0.04303 0.0
C109 C 0.09914 0.74716 0.9866 0.0
O110 O 0.00586 0.73742 0.01688 0.0
O111 O 0.99055 0.67408 0.0082 0.0
O112 O 0.08684 0.70947 0.99329 0.0
O113 O 0.09014 0.76934 0.99919 0.0
C114 C 0.09642 0.77164 0.05776 0.0
O115 O 0.07961 0.66998 0.03048 0.0
O116 O 0.02105 0.65692 0.04588 0.0
In117 In 0.33757 0.05641 0.19182 0.0
O118 O 0.40416 0.06337 0.193 0.0
O119 O 0.35886 0.02518 0.21761 0.0
C120 C 0.35034 0.10769 0.15681 0.0
C121 C 0.32921 0.09885 0.22607 0.0
C122 C 0.27739 0.98096 0.17422 0.0
O123 O 0.37748 0.09694 0.16249 0.0
O124 O 0.31776 0.09348 0.16904 0.0
O125 O 0.26754 0.00482 0.18491 0.0
O126 O 0.3172 0.9943 0.17326 0.0
C127 C 0.39654 0.04066 0.21004 0.0
O128 O 0.2997 0.0617 0.22067 0.0
O129 O 0.3623 0.11442 0.21409 0.0
In130 In 0.27911 0.34428 0.3562 0.0
O131 O 0.23022 0.29836 0.38152 0.0
O132 O 0.25176 0.3652 0.38382 0.0
C133 C 0.29727 0.28846 0.33599 0.0
C134 C 0.35285 0.40419 0.37491 0.0
C135 C 0.24057 0.36137 0.32264 0.0
O136 O 0.26859 0.27641 0.35062 0.0
O137 O 0.31721 0.32831 0.33228 0.0
O138 O 0.28048 0.38288 0.32618 0.0
O139 O 0.21979 0.33177 0.33631 0.0
C140 C 0.22862 0.32812 0.39172 0.0
O141 O 0.32995 0.41333 0.36286 0.0
O142 O 0.33905 0.36443 0.37724 0.0
In143 In 0.93529 0.28008 0.52156 0.0
O144 O 0.91701 0.3314 0.52668 0.0
O145 O 0.97315 0.33947 0.54293 0.0
C146 C 0.88375 0.2465 0.48612 0.0
C147 C 0.89903 0.23163 0.55751 0.0
C148 C 0.0094 0.29232 0.5037 0.0
O149 O 0.9082 0.28632 0.48876 0.0
O150 O 0.8845 0.22358 0.50156 0.0
O151 O 0.98331 0.25763 0.51319 0.0
O152 O -0.00122 0.32086 0.5041 0.0
C153 C 0.94783 0.35374 0.53953 0.0
O154 O 0.93391 0.23673 0.54966 0.0
O155 O 0.88256 0.25003 0.54698 0.0
H156 H 0.98213 0.58369 0.06675 0.0
H157 H 0.11149 0.62397 0.04497 0.0
H158 H 0.98044 0.52396 0.08692 0.0
H159 H 0.1098 0.56444 0.06518 0.0
H160 H 0.10799 0.48641 0.12536 0.0
H161 H 0.10717 0.54486 0.10531 0.0
H162 H 0.98216 0.45521 0.0788 0.0
H163 H 0.98299 0.39656 0.09881 0.0
C164 C 0.01008 0.57964 0.0662 0.0
C165 C 0.04696 0.60846 0.05432 0.0
C166 C 0.00905 0.54544 0.07767 0.0
C167 C 0.04508 0.53979 0.0777 0.0
C168 C 0.08177 0.56838 0.06564 0.0
C169 C 0.08262 0.60225 0.05397 0.0
C170 C 0.08022 0.47922 0.11536 0.0
C171 C 0.04558 0.43696 0.11361 0.0
C172 C 0.07989 0.51261 0.10378 0.0
C173 C 0.04471 0.50447 0.09042 0.0
C174 C 0.00959 0.46237 0.08907 0.0
C175 C 0.01013 0.42886 0.10046 0.0
H176 H 0.58768 0.06805 0.30328 0.0
H177 H 0.60954 0.0028 0.24975 0.0
H178 H 0.52586 0.06332 0.28385 0.0
H179 H 0.54788 -0.0015 0.23022 0.0
H180 H 0.4751 0.05969 0.19398 0.0
H181 H 0.53252 0.05529 0.2133 0.0
H182 H 0.45116 0.00518 0.2704 0.0
H183 H 0.39354 0.00916 0.25104 0.0
C184 C 0.57911 0.05251 0.28742 0.0
C185 C 0.6034 0.03585 0.27799 0.0
C186 C 0.54364 0.04961 0.27637 0.0
C187 C 0.53218 0.03056 0.25555 0.0
C188 C 0.55622 0.01354 0.2462 0.0
C189 C 0.59133 0.01585 0.25741 0.0
C190 C 0.46935 0.04731 0.21057 0.0
C191 C 0.42995 0.03487 0.22104 0.0
C192 C 0.5021 0.04462 0.22157 0.0
C193 C 0.49624 0.03004 0.24335 0.0
C194 C 0.45655 0.01683 0.25367 0.0
C195 C 0.42358 0.01892 0.24256 0.0
H196 H 0.50693 0.61222 0.46167 0.0
H197 H 0.601 0.5829 0.4352 0.0
H198 H 0.45053 0.55334 0.44065 0.0
H199 H 0.54402 0.52341 0.4142 0.0
H200 H 0.41188 0.39459 0.39915 0.0
H201 H 0.4716 0.45002 0.42076 0.0
H202 H 0.43828 0.54402 0.39896 0.0
H203 H 0.37925 0.48924 0.37734 0.0
C204 C 0.51548 0.59288 0.45156 0.0
C205 C 0.5584 0.6023 0.44996 0.0
C206 C 0.48323 0.55934 0.43945 0.0
C207 C 0.4931 0.53422 0.42568 0.0
C208 C 0.53566 0.54235 0.42475 0.0
C209 C 0.56817 0.57636 0.4367 0.0
C210 C 0.41766 0.42721 0.39885 0.0
C211 C 0.39087 0.43761 0.38665 0.0
C212 C 0.45179 0.45882 0.41115 0.0
C213 C 0.45912 0.50105 0.41165 0.0
C214 C 0.43291 0.51154 0.39906 0.0
C215 C 0.3993 0.48022 0.3866 0.0
H216 H 0.89142 0.50546 0.62666 0.0
H217 H 0.0145 0.6003 0.60001 0.0
H218 H 0.8939 0.44975 0.60501 0.0
H219 H 0.01711 0.54407 0.57847 0.0
H220 H 0.0156 0.41293 0.56397 0.0
H221 H 0.0188 0.4721 0.58545 0.0
H222 H 0.89152 0.43798 0.56292 0.0
H223 H 0.88841 0.37944 0.54132 0.0
C224 C 0.91923 0.51431 0.61636 0.0
C225 C 0.9527 0.55721 0.61494 0.0
C226 C 0.92049 0.48248 0.60389 0.0
C227 C 0.95551 0.4928 0.58998 0.0
C228 C 0.9898 0.53539 0.58912 0.0
C229 C 0.98825 0.56745 0.60138 0.0
C230 C 0.98855 0.41843 0.56346 0.0
C231 C 0.95171 0.39157 0.55105 0.0
C232 C 0.99044 0.45225 0.57568 0.0
C233 C 0.95524 0.45919 0.57595 0.0
C234 C 0.91887 0.43291 0.56316 0.0
C235 C 0.91723 0.39962 0.55072 0.0
H236 H 0.60953 0.99289 0.75213 0.0
H237 H 0.52589 0.9449 0.69572 0.0
H238 H 0.55291 0.99682 0.77255 0.0
H239 H 0.46955 0.94921 0.71608 0.0
H240 H 0.39143 0.99637 0.754 0.0
H241 H 0.45441 0.00464 0.73422 0.0
H242 H 0.47873 0.93807 0.78627 0.0
H243 H 0.41558 0.92946 0.80599 0.0
C244 C 0.57929 0.98377 0.74401 0.0
C245 C 0.57197 0.96843 0.72238 0.0
C246 C 0.5469 0.98584 0.75572 0.0
C247 C 0.50692 0.97324 0.74588 0.0
C248 C 0.50023 0.95946 0.72398 0.0
C249 C 0.53236 0.9568 0.71238 0.0
C250 C 0.41053 0.98396 0.76133 0.0
C251 C 0.39855 0.96208 0.78147 0.0
C252 C 0.4464 0.98855 0.74997 0.0
C253 C 0.47128 0.9719 0.75871 0.0
C254 C 0.46027 0.95151 0.77926 0.0
C255 C 0.42406 0.9464 0.79047 0.0
H256 H 0.38957 0.37655 0.9157 0.0
H257 H 0.47006 0.41093 0.9733 0.0
H258 H 0.44698 0.43782 0.89607 0.0
H259 H 0.52733 0.47229 0.95369 0.0
H260 H 0.60468 0.60018 0.91684 0.0
H261 H 0.54283 0.54301 0.93626 0.0
H262 H 0.52147 0.45589 0.88286 0.0
H263 H 0.5834 0.51294 0.86346 0.0
C264 C 0.41934 0.39746 0.92423 0.0
C265 C 0.42544 0.38895 0.946 0.0
C266 C 0.45222 0.43234 0.91296 0.0
C267 C 0.49159 0.45968 0.92335 0.0
C268 C 0.49717 0.45192 0.94534 0.0
C269 C 0.46449 0.41673 0.95653 0.0
C270 C 0.58655 0.56891 0.90918 0.0
C271 C 0.59888 0.56092 0.88867 0.0
C272 C 0.55133 0.5362 0.92034 0.0
C273 C 0.52745 0.49507 0.91107 0.0
C274 C 0.5391 0.48743 0.89029 0.0
C275 C 0.57464 0.51998 0.87925 0.0
H276 H 0.17969 0.36093 0.10268 0.0
H277 H 0.05875 0.27057 0.07253 0.0
H278 H 0.21849 0.35392 0.07196 0.0
H279 H 0.09786 0.26436 0.04113 0.0
H280 H 0.19112 0.22868 0.0046 0.0
H281 H 0.14453 0.23626 0.0312 0.0
H282 H 0.23397 0.373 0.03435 0.0
H283 H 0.2811 0.36502 0.00847 0.0
C284 C 0.16135 0.33972 0.08937 0.0
C285 C 0.11618 0.3163 0.09001 0.0
C286 C 0.18362 0.33602 0.0716 0.0
C287 C 0.16133 0.30905 0.05387 0.0
C288 C 0.11602 0.2853 0.05455 0.0
C289 C 0.09362 0.28888 0.07249 0.0
C290 C 0.20032 0.26044 0.01068 0.0
C291 C 0.23995 0.29619 0.0047 0.0
C292 C 0.17359 0.26482 0.0259 0.0
C293 C 0.18592 0.30511 0.03527 0.0
C294 C 0.22407 0.3413 0.02794 0.0
C295 C 0.25093 0.33683 0.01296 0.0
H296 H 0.80219 0.17579 0.26356 0.0
H297 H 0.79829 0.0585 0.24381 0.0
H298 H 0.84962 0.21366 0.23304 0.0
H299 H 0.84533 0.0964 0.21272 0.0
H300 H 0.97439 0.1981 0.17897 0.0
H301 H 0.91966 0.15145 0.20538 0.0
H302 H 0.85023 0.21917 0.19382 0.0
H303 H 0.90553 0.26646 0.16796 0.0
C304 C 0.81125 0.158 0.25258 0.0
C305 C 0.79658 0.11419 0.2561 0.0
C306 C 0.83816 0.17964 0.23493 0.0
C307 C 0.85098 0.158 0.22027 0.0
C308 C 0.83625 0.11406 0.22377 0.0
C309 C 0.80926 0.09235 0.24152 0.0
C310 C 0.94698 0.20243 0.18178 0.0
C311 C 0.94445 0.23621 0.1716 0.0
C312 C 0.91555 0.17564 0.19688 0.0
C313 C 0.88093 0.18205 0.202 0.0
C314 C 0.87703 0.21404 0.19065 0.0
C315 C 0.90853 0.24092 0.1757 0.0
H316 H 0.74353 0.83289 0.42723 0.0
H317 H 0.6076 0.75615 0.41346 0.0
H318 H 0.75165 0.88072 0.3968 0.0
H319 H 0.61579 0.8021 0.38244 0.0
H320 H 0.63232 0.92499 0.35189 0.0
H321 H 0.62554 0.87068 0.37765 0.0
H322 H 0.75115 0.89277 0.35852 0.0
H323 H 0.75862 0.94901 0.33323 0.0
C324 C 0.7156 0.82586 0.41742 0.0
C325 C 0.67485 0.79133 0.42287 0.0
C326 C 0.72022 0.85304 0.39988 0.0
C327 C 0.68425 0.8457 0.38726 0.0
C328 C 0.644 0.80957 0.39211 0.0
C329 C 0.63929 0.78304 0.40984 0.0
C330 C 0.65831 0.91792 0.35294 0.0
C331 C 0.69605 0.94135 0.34057 0.0
C332 C 0.65434 0.88646 0.36767 0.0
C333 C 0.68779 0.87711 0.37024 0.0
C334 C 0.725 0.89952 0.35723 0.0
C335 C 0.72915 0.93145 0.34259 0.0
H336 H 0.79573 0.73224 0.49553 0.0
H337 H 0.68637 0.6401 0.53336 0.0
H338 H 0.8441 0.72325 0.52055 0.0
H339 H 0.73419 0.63208 0.55849 0.0
H340 H 0.91318 0.7349 0.5874 0.0
H341 H 0.86991 0.74102 0.5581 0.0
H342 H 0.78145 0.60409 0.56185 0.0
H343 H 0.82359 0.59843 0.59147 0.0
C344 C 0.78205 0.70982 0.50905 0.0
C345 C 0.73729 0.68682 0.51247 0.0
C346 C 0.80972 0.70494 0.52347 0.0
C347 C 0.79307 0.67695 0.54154 0.0
C348 C 0.74819 0.65335 0.54457 0.0
C349 C 0.7207 0.65812 0.53019 0.0
C350 C 0.88459 0.70619 0.58182 0.0
C351 C 0.87137 0.66633 0.59191 0.0
C352 C 0.85997 0.70959 0.56495 0.0
C353 C 0.8219 0.6731 0.55778 0.0
C354 C 0.80997 0.63301 0.56729 0.0
C355 C 0.83423 0.62973 0.58424 0.0
H356 H 0.05594 0.68867 0.69311 0.0
H357 H 0.0545 0.7966 0.66273 0.0
H358 H 0.11264 0.73709 0.71766 0.0
H359 H 0.11267 0.84572 0.68709 0.0
H360 H 0.17041 0.90689 0.75527 0.0
H361 H 0.12171 0.86493 0.72557 0.0
H362 H 0.18624 0.79095 0.72033 0.0
H363 H 0.23352 0.83166 0.75042 0.0
C364 C 0.06837 0.72292 0.6914 0.0
C365 C 0.05067 0.73882 0.67604 0.0
C366 C 0.10115 0.7508 0.70542 0.0
C367 C 0.1173 0.79539 0.70439 0.0
C368 C 0.1006 0.81151 0.68849 0.0
C369 C 0.06758 0.78345 0.67442 0.0
C370 C 0.17428 0.88185 0.74761 0.0
C371 C 0.20525 0.87206 0.75535 0.0
C372 C 0.14662 0.85801 0.73049 0.0
C373 C 0.14974 0.82421 0.7207 0.0
C374 C 0.18226 0.81604 0.72781 0.0
C375 C 0.20947 0.83948 0.74502 0.0
H376 H 0.34976 0.03428 0.86788 0.0
H377 H 0.26582 0.05846 0.82698 0.0
H378 H 0.3568 0.08925 0.89322 0.0
H379 H 0.27404 0.11507 0.85218 0.0
H380 H 0.2568 0.17163 0.91744 0.0
H381 H 0.25229 0.12236 0.88863 0.0
H382 H 0.38717 0.16425 0.89784 0.0
H383 H 0.39106 0.21195 0.92706 0.0
C384 C 0.33336 0.05192 0.8641 0.0
C385 C 0.30721 0.04203 0.84544 0.0
C386 C 0.33761 0.08371 0.8786 0.0
C387 C 0.31609 0.10677 0.87475 0.0
C388 C 0.29065 0.09758 0.85577 0.0
C389 C 0.28622 0.06545 0.84125 0.0
C390 C 0.28543 0.17029 0.9132 0.0
C391 C 0.32411 0.19516 0.92466 0.0
C392 C 0.28298 0.14235 0.89659 0.0
C393 C 0.31929 0.13905 0.89101 0.0
C394 C 0.35832 0.16522 0.90201 0.0
C395 C 0.36062 0.19271 0.91872 0.0
H396 H 0.73579 0.79889 0.8402 0.0
H397 H 0.63388 0.68965 0.8065 0.0
H398 H 0.72886 0.84728 0.81441 0.0
H399 H 0.62806 0.73736 0.78041 0.0
H400 H 0.60288 0.83075 0.74481 0.0
H401 H 0.60621 0.78829 0.77497 0.0
H402 H 0.74477 0.86937 0.77693 0.0
H403 H 0.74099 0.91312 0.74725 0.0
C404 C 0.71167 0.78528 0.82742 0.0
C405 C 0.68534 0.74051 0.82539 0.0
C406 C 0.70798 0.81293 0.81251 0.0
C407 C 0.67802 0.79631 0.79523 0.0
C408 C 0.65099 0.7515 0.79367 0.0
C409 C 0.65446 0.72401 0.80861 0.0
C410 C 0.63404 0.83961 0.75175 0.0
C411 C 0.67173 0.87496 0.74356 0.0
C412 C 0.636 0.81516 0.769 0.0
C413 C 0.67581 0.82502 0.77829 0.0
C414 C 0.7135 0.86108 0.77037 0.0
C415 C 0.71144 0.88596 0.75325 0.0
H416 H 0.80928 0.62529 0.89928 0.0
H417 H 0.78735 0.72296 0.92732 0.0
H418 H 0.85651 0.63312 0.92956 0.0
H419 H 0.83376 0.7299 0.95828 0.0
H420 H 0.96242 0.76439 0.99379 0.0
H421 H 0.90783 0.75597 0.96728 0.0
H422 H 0.85653 0.61846 0.96736 0.0
H423 H 0.91222 0.62725 0.99312 0.0
C424 C 0.81432 0.64825 0.91205 0.0
C425 C 0.79468 0.67356 0.91092 0.0
C426 C 0.8411 0.65246 0.92957 0.0
C427 C 0.84863 0.68181 0.94656 0.0
C428 C 0.82893 0.7072 0.94542 0.0
C429 C 0.80227 0.70318 0.92773 0.0
C430 C 0.93894 0.73232 0.98842 0.0
C431 C 0.94179 0.6965 0.99532 0.0
C432 C 0.90757 0.72745 0.97324 0.0
C433 C 0.8782 0.6866 0.96485 0.0
C434 C 0.87936 0.65053 0.97299 0.0
C435 C 0.91101 0.65547 0.98792 0.0
H436 H 0.28942 0.91946 0.15518 0.0
H437 H 0.19474 0.95894 0.16375 0.0
H438 H 0.24244 0.86511 0.12897 0.0
H439 H 0.14814 0.90544 0.13688 0.0
H440 H 0.06341 0.78458 0.09567 0.0
H441 H 0.10383 0.83026 0.12667 0.0
H442 H 0.22293 0.86943 0.09201 0.0
H443 H 0.18288 0.82329 0.06159 0.0
C444 C 0.2583 0.91615 0.15163 0.0
C445 C 0.24588 0.94364 0.16134 0.0
C446 C 0.23151 0.88527 0.13647 0.0
C447 C 0.1919 0.88152 0.13045 0.0
C448 C 0.17835 0.90735 0.14117 0.0
C449 C 0.20507 0.93806 0.15654 0.0
C450 C 0.09823 0.80303 0.09476 0.0
C451 C 0.12001 0.80031 0.07625 0.0
C452 C 0.12137 0.82922 0.11248 0.0
C453 C 0.16667 0.85313 0.11196 0.0
C454 C 0.18817 0.85067 0.09325 0.0
C455 C 0.16516 0.8245 0.07567 0.0
H456 H 0.25646 0.08261 0.24843 0.0
H457 H 0.3939 0.16907 0.24592 0.0
H458 H 0.2504 0.12634 0.27731 0.0
H459 H 0.38833 0.21164 0.2753 0.0
H460 H 0.35473 0.30891 0.30293 0.0
H461 H 0.36291 0.26055 0.2784 0.0
H462 H 0.26569 0.15146 0.31458 0.0
H463 H 0.25647 0.20043 0.33888 0.0
C464 C 0.28541 0.1106 0.2543 0.0
C465 C 0.32554 0.12284 0.24474 0.0
C466 C 0.28204 0.1355 0.27096 0.0
C467 C 0.31884 0.17284 0.27851 0.0
C468 C 0.35918 0.18374 0.26955 0.0
C469 C 0.36243 0.15924 0.25276 0.0
C470 C 0.33536 0.27462 0.30583 0.0
C471 C 0.30489 0.25846 0.32281 0.0
C472 C 0.34026 0.2468 0.29181 0.0
C473 C 0.31503 0.202 0.29449 0.0
C474 C 0.28527 0.18577 0.31189 0.0
C475 C 0.28022 0.21377 0.32591 0.0
H476 H 0.15837 0.25293 0.40524 0.0
H477 H 0.23761 0.38699 0.42203 0.0
H478 H 0.10909 0.24382 0.43514 0.0
H479 H 0.18993 0.37769 0.45241 0.0
H480 H 0.06501 0.36229 0.48009 0.0
H481 H 0.12087 0.36928 0.45533 0.0
H482 H 0.09543 0.2424 0.47375 0.0
H483 H 0.03787 0.23484 0.49816 0.0
C484 C 0.16563 0.28019 0.4156 0.0
C485 C 0.20132 0.32079 0.41114 0.0
C486 C 0.13761 0.27497 0.43282 0.0
C487 C 0.14516 0.31019 0.44604 0.0
C488 C 0.1824 0.35014 0.44223 0.0
C489 C 0.20988 0.35546 0.42487 0.0
C490 C 0.07164 0.33605 0.47911 0.0
C491 C 0.04697 0.29798 0.49103 0.0
C492 C 0.10396 0.34014 0.46497 0.0
C493 C 0.11283 0.30642 0.46251 0.0
C494 C 0.0891 0.26878 0.47503 0.0
C495 C 0.05641 0.26458 0.48915 0.0
H496 H 0.91219 0.17036 0.577 0.0
H497 H 0.83953 0.23597 0.58292 0.0
H498 H 0.87209 0.12385 0.60785 0.0
H499 H 0.80102 0.19126 0.61418 0.0
H500 H 0.69866 0.06455 0.64406 0.0
H501 H 0.74625 0.11922 0.61843 0.0
H502 H 0.85531 0.11599 0.64648 0.0
H503 H 0.80681 0.05957 0.67189 0.0
C504 C 0.88817 0.17527 0.58515 0.0
C505 C 0.87838 0.20617 0.57738 0.0
C506 C 0.86541 0.14889 0.60292 0.0
C507 C 0.83287 0.1534 0.61335 0.0
C508 C 0.82501 0.18607 0.60621 0.0
C509 C 0.84719 0.21184 0.58833 0.0
C510 C 0.73286 0.07586 0.64501 0.0
C511 C 0.74897 0.05768 0.65995 0.0
C512 C 0.76031 0.10751 0.63035 0.0
C513 C 0.80475 0.12216 0.63034 0.0
C514 C 0.82119 0.10507 0.64586 0.0
C515 C 0.79352 0.07309 0.66055 0.0
H516 H 0.15479 0.32558 0.31371 0.0
H517 H 0.28108 0.41151 0.28717 0.0
H518 H 0.12197 0.33062 0.27952 0.0
H519 H 0.24825 0.41625 0.25299 0.0
H520 H 0.17184 0.3524 0.1885 0.0
H521 H 0.20699 0.35973 0.22373 0.0
H522 H 0.11374 0.38457 0.25507 0.0
H523 H 0.07861 0.37758 0.21966 0.0
C524 C 0.17546 0.34596 0.30068 0.0
C525 C 0.22046 0.36797 0.30304 0.0
C526 C 0.15669 0.349 0.28118 0.0
C527 C 0.18263 0.37366 0.26361 0.0
C528 C 0.22756 0.39676 0.26624 0.0
C529 C 0.24629 0.39417 0.28582 0.0
C530 C 0.15913 0.35991 0.20286 0.0
C531 C 0.12248 0.36435 0.20138 0.0
C532 C 0.17937 0.36432 0.223 0.0
C533 C 0.16305 0.37271 0.2421 0.0
C534 C 0.12681 0.3779 0.24058 0.0
C535 C 0.1069 0.37411 0.22035 0.0
H536 H 0.89109 0.28774 0.4475 0.0
H537 H 0.82076 0.16354 0.47892 0.0
H538 H 0.855 0.25576 0.41287 0.0
H539 H 0.78441 0.13172 0.44432 0.0
H540 H 0.70232 0.09857 0.38176 0.0
H541 H 0.73243 0.13577 0.41643 0.0
H542 H 0.85933 0.20097 0.3875 0.0
H543 H 0.82942 0.16353 0.35296 0.0
C544 C 0.86748 0.25375 0.44707 0.0
C545 C 0.85882 0.22805 0.46585 0.0
C546 C 0.84703 0.23548 0.42726 0.0
C547 C 0.81706 0.19131 0.42595 0.0
C548 C 0.80715 0.16593 0.44494 0.0
C549 C 0.82807 0.18409 0.46468 0.0
C550 C 0.73656 0.1212 0.38276 0.0
C551 C 0.76359 0.12812 0.36472 0.0
C552 C 0.75376 0.14228 0.4026 0.0
C553 C 0.79815 0.17117 0.4046 0.0
C554 C 0.82493 0.17914 0.38633 0.0
C555 C 0.80785 0.15758 0.36662 0.0
H556 H 0.70981 0.88263 0.63637 0.0
H557 H 0.57866 0.85539 0.62913 0.0
H558 H 0.70559 0.85008 0.60085 0.0
H559 H 0.57455 0.82285 0.59333 0.0
H560 H 0.5769 0.72741 0.54134 0.0
H561 H 0.57589 0.75955 0.57648 0.0
H562 H 0.70091 0.86888 0.56218 0.0
H563 H 0.7021 0.83676 0.52724 0.0
C564 C 0.67996 0.86943 0.62724 0.0
C565 C 0.64459 0.87164 0.6355 0.0
C566 C 0.67768 0.85112 0.60681 0.0
C567 C 0.63992 0.83442 0.5942 0.0
C568 C 0.60403 0.83542 0.60272 0.0
C569 C 0.60641 0.85405 0.62317 0.0
C570 C 0.60389 0.75856 0.54561 0.0
C571 C 0.6397 0.77948 0.53162 0.0
C572 C 0.60326 0.77696 0.56568 0.0
C573 C 0.63856 0.81644 0.57217 0.0
C574 C 0.67359 0.83804 0.55778 0.0
C575 C 0.67412 0.8198 0.5377 0.0
H576 H 0.86699 0.70052 0.69612 0.0
H577 H 0.85527 0.57742 0.71077 0.0
H578 H 0.83355 0.6989 0.73109 0.0
H579 H 0.82199 0.57598 0.746 0.0
H580 H 0.72466 0.57509 0.7974 0.0
H581 H 0.75573 0.57203 0.7622 0.0
H582 H 0.85555 0.70461 0.76989 0.0
H583 H 0.82449 0.70779 0.8048 0.0
C584 C 0.85702 0.67297 0.70676 0.0
C585 C 0.86389 0.63917 0.70076 0.0
C586 C 0.83815 0.67219 0.72686 0.0
C587 C 0.8256 0.63753 0.74138 0.0
C588 C 0.83121 0.60303 0.73509 0.0
C589 C 0.85033 0.60391 0.71498 0.0
C590 C 0.75344 0.60341 0.79162 0.0
C591 C 0.77205 0.64172 0.80379 0.0
C592 C 0.77125 0.60163 0.77152 0.0
C593 C 0.80777 0.63823 0.7632 0.0
C594 C 0.82693 0.67612 0.77569 0.0
C595 C 0.80932 0.67783 0.79576 0.0
H596 H 0.15982 0.86205 0.85836 0.0
H597 H 0.26168 0.8333 0.86972 0.0
H598 H 0.1262 0.82739 0.89284 0.0
H599 H 0.22778 0.79848 0.90445 0.0
H600 H 0.12704 0.70851 0.9573 0.0
H601 H 0.15897 0.73548 0.92108 0.0
H602 H 0.15039 0.84976 0.93166 0.0
H603 H 0.11879 0.82314 0.96758 0.0
C604 C 0.17475 0.84783 0.86809 0.0
C605 C 0.21359 0.85071 0.86143 0.0
C606 C 0.1556 0.82819 0.88789 0.0
C607 C 0.17472 0.8108 0.90144 0.0
C608 C 0.21236 0.8116 0.89428 0.0
C609 C 0.23176 0.83158 0.87446 0.0
C610 C 0.13222 0.73947 0.95187 0.0
C611 C 0.12035 0.76369 0.96522 0.0
C612 C 0.15052 0.75488 0.93121 0.0
C613 C 0.15669 0.79446 0.9235 0.0
C614 C 0.14534 0.81881 0.93703 0.0
C615 C 0.12752 0.80368 0.95767 0.0
H616 H 0.41641 0.14091 0.12694 0.0
H617 H 0.29278 0.12898 0.14088 0.0
H618 H 0.41858 0.1749 0.09172 0.0
H619 H 0.29504 0.16275 0.10594 0.0
H620 H 0.28599 0.16674 0.03181 0.0
H621 H 0.29032 0.13766 0.06711 0.0
H622 H 0.42075 0.24216 0.07523 0.0
H623 H 0.41646 0.2716 0.03961 0.0
C624 C 0.39001 0.14599 0.1226 0.0
C625 C 0.35429 0.13203 0.13658 0.0
C626 C 0.39131 0.1655 0.1025 0.0
C627 C 0.35673 0.17095 0.09601 0.0
C628 C 0.32181 0.1583 0.11036 0.0
C629 C 0.32065 0.13917 0.13043 0.0
C630 C 0.31573 0.18346 0.04101 0.0
C631 C 0.35083 0.22156 0.03299 0.0
C632 C 0.31809 0.16692 0.0613 0.0
C633 C 0.3557 0.18793 0.07401 0.0
C634 C 0.3914 0.22533 0.06573 0.0
C635 C 0.38889 0.24218 0.04542 0.0
loop_
_geom_bond_atom_site_label_1
_geom_bond_atom_site_label_2
_geom_bond_distance
_geom_bond_site_symmetry_2
_ccdc_geom_bond_type
In0 O1 2.294 . S
In0 O2 2.326 . S
In0 O6 2.266 . S
In0 O7 2.326 . S
In0 O8 2.266 . S
In0 O9 2.326 . S
In0 O11 2.294 . S
In0 O12 2.326 . S
O1 In0 2.294 . S
O1 C10 1.240 . S
O2 In0 2.326 . S
O2 C10 1.252 . S
C3 O6 1.252 1_655 S
C3 O7 1.260 1_655 S
C4 O11 1.240 . S
C4 O12 1.252 . S
C5 O8 1.252 . S
C5 O9 1.260 . S
O6 In0 2.266 . S
O6 C3 1.252 1_455 S
O7 In0 2.326 . S
O7 C3 1.260 1_455 S
O8 In0 2.266 . S
O8 C5 1.252 . S
O9 In0 2.326 . S
O9 C5 1.260 . S
C10 O1 1.240 . S
C10 O2 1.252 . S
O11 In0 2.294 . S
O11 C4 1.240 . S
O12 In0 2.326 . S
O12 C4 1.252 . S
In13 O14 2.294 . S
In13 O15 2.326 . S
In13 O19 2.266 . S
In13 O20 2.326 . S
In13 O21 2.266 . S
In13 O22 2.326 . S
In13 O24 2.294 . S
In13 O25 2.326 . S
O14 In13 2.294 . S
O14 C23 1.240 . S
O15 In13 2.326 . S
O15 C23 1.252 . S
C16 O19 1.252 . S
C16 O20 1.260 . S
C17 O24 1.240 . S
C17 O25 1.252 . S
C18 O21 1.252 1_565 S
C18 O22 1.260 1_565 S
O19 In13 2.266 . S
O19 C16 1.252 . S
O20 In13 2.326 . S
O20 C16 1.260 . S
O21 In13 2.266 . S
O21 C18 1.252 1_545 S
O22 In13 2.326 . S
O22 C18 1.260 1_545 S
C23 O14 1.240 . S
C23 O15 1.252 . S
O24 In13 2.294 . S
O24 C17 1.240 . S
O25 In13 2.326 . S
O25 C17 1.252 . S
In26 O27 2.294 . S
In26 O28 2.326 . S
In26 O32 2.266 . S
In26 O33 2.326 . S
In26 O34 2.266 . S
In26 O35 2.326 . S
In26 O37 2.294 . S
In26 O38 2.326 . S
O27 In26 2.294 . S
O27 C36 1.240 . S
O28 In26 2.326 . S
O28 C36 1.252 . S
C29 O32 1.252 . S
C29 O33 1.260 . S
C30 O37 1.240 . S
C30 O38 1.252 . S
C31 O34 1.252 . S
C31 O35 1.260 . S
O32 In26 2.266 . S
O32 C29 1.252 . S
O33 In26 2.326 . S
O33 C29 1.260 . S
O34 In26 2.266 . S
O34 C31 1.252 . S
O35 In26 2.326 . S
O35 C31 1.260 . S
C36 O27 1.240 . S
C36 O28 1.252 . S
O37 In26 2.294 . S
O37 C30 1.240 . S
O38 In26 2.326 . S
O38 C30 1.252 . S
In39 O40 2.294 . S
In39 O41 2.326 . S
In39 O45 2.266 . S
In39 O46 2.326 . S
In39 O47 2.266 . S
In39 O48 2.326 . S
In39 O50 2.294 . S
In39 O51 2.326 . S
O40 In39 2.294 . S
O40 C49 1.240 . S
O41 In39 2.326 . S
O41 C49 1.252 . S
C42 O45 1.252 . S
C42 O46 1.260 . S
C43 O50 1.240 . S
C43 O51 1.252 . S
C44 O47 1.252 1_455 S
C44 O48 1.260 1_455 S
O45 In39 2.266 . S
O45 C42 1.252 . S
O46 In39 2.326 . S
O46 C42 1.260 . S
O47 In39 2.266 . S
O47 C44 1.252 1_655 S
O48 In39 2.326 . S
O48 C44 1.260 1_655 S
C49 O40 1.240 . S
C49 O41 1.252 . S
O50 In39 2.294 . S
O50 C43 1.240 . S
O51 In39 2.326 . S
O51 C43 1.252 . S
In52 O53 2.294 . S
In52 O54 2.326 . S
In52 O58 2.266 . S
In52 O59 2.326 . S
In52 O60 2.266 . S
In52 O61 2.326 . S
In52 O63 2.294 . S
In52 O64 2.326 . S
O53 In52 2.294 . S
O53 C62 1.240 . S
O54 In52 2.326 . S
O54 C62 1.252 . S
C55 O58 1.252 1_545 S
C55 O59 1.260 1_545 S
C56 O63 1.240 . S
C56 O64 1.252 . S
C57 O60 1.252 . S
C57 O61 1.260 . S
O58 In52 2.266 . S
O58 C55 1.252 1_565 S
O59 In52 2.326 . S
O59 C55 1.260 1_565 S
O60 In52 2.266 . S
O60 C57 1.252 . S
O61 In52 2.326 . S
O61 C57 1.260 . S
C62 O53 1.240 . S
C62 O54 1.252 . S
O63 In52 2.294 . S
O63 C56 1.240 . S
O64 In52 2.326 . S
O64 C56 1.252 . S
In65 O66 2.294 . S
In65 O67 2.326 . S
In65 O71 2.266 1_556 S
In65 O72 2.326 1_556 S
In65 O73 2.266 . S
In65 O74 2.326 1_556 S
In65 O76 2.294 . S
In65 O77 2.326 . S
O66 In65 2.294 . S
O66 C75 1.240 . S
O67 In65 2.326 . S
O67 C75 1.252 . S
C68 O71 1.252 . S
C68 O72 1.260 . S
C69 O76 1.240 . S
C69 O77 1.252 . S
C70 O73 1.234 1_554 S
C70 O74 1.266 . S
O71 In65 2.266 1_554 S
O71 C68 1.252 . S
O72 In65 2.326 1_554 S
O72 C68 1.260 . S
O73 In65 2.266 . S
O73 C70 1.234 1_556 S
O74 In65 2.326 1_554 S
O74 C70 1.266 . S
C75 O66 1.240 . S
C75 O67 1.252 . S
O76 In65 2.294 . S
O76 C69 1.240 . S
O77 In65 2.326 . S
O77 C69 1.252 . S
In78 O79 2.294 . S
In78 O80 2.326 . S
In78 O84 2.266 . S
In78 O85 2.326 . S
In78 O86 2.266 . S
In78 O87 2.326 . S
In78 O89 2.294 . S
In78 O90 2.326 . S
O79 In78 2.294 . S
O79 C88 1.240 . S
O80 In78 2.326 . S
O80 C88 1.252 . S
C81 O84 1.252 1_545 S
C81 O85 1.260 1_545 S
C82 O89 1.240 . S
C82 O90 1.252 . S
C83 O86 1.252 . S
C83 O87 1.260 . S
O84 In78 2.266 . S
O84 C81 1.252 1_565 S
O85 In78 2.326 . S
O85 C81 1.260 1_565 S
O86 In78 2.266 . S
O86 C83 1.252 . S
O87 In78 2.326 . S
O87 C83 1.260 . S
C88 O79 1.240 . S
C88 O80 1.252 . S
O89 In78 2.294 . S
O89 C82 1.240 . S
O90 In78 2.326 . S
O90 C82 1.252 . S
In91 O92 2.294 . S
In91 O93 2.326 . S
In91 O97 2.266 . S
In91 O98 2.326 . S
In91 O99 2.266 . S
In91 O100 2.326 . S
In91 O102 2.294 . S
In91 O103 2.326 . S
O92 In91 2.294 . S
O92 C101 1.240 . S
O93 In91 2.326 . S
O93 C101 1.252 . S
C94 O97 1.252 . S
C94 O98 1.260 . S
C95 O102 1.240 . S
C95 O103 1.252 . S
C96 O99 1.252 . S
C96 O100 1.260 . S
O97 In91 2.266 . S
O97 C94 1.252 . S
O98 In91 2.326 . S
O98 C94 1.260 . S
O99 In91 2.266 . S
O99 C96 1.252 . S
O100 In91 2.326 . S
O100 C96 1.260 . S
C101 O92 1.240 . S
C101 O93 1.252 . S
O102 In91 2.294 . S
O102 C95 1.240 . S
O103 In91 2.326 . S
O103 C95 1.252 . S
In104 O105 2.294 . S
In104 O106 2.326 . S
In104 O110 2.266 . S
In104 O111 2.326 1_554 S
In104 O112 2.266 1_554 S
In104 O113 2.326 1_554 S
In104 O115 2.294 . S
In104 O116 2.326 . S
O105 In104 2.294 . S
O105 C114 1.240 . S
O106 In104 2.326 . S
O106 C114 1.252 . S
C107 O110 1.234 1_656 S
C107 O111 1.266 1_655 S
C108 O115 1.240 . S
C108 O116 1.252 . S
C109 O112 1.252 . S
C109 O113 1.260 . S
O110 In104 2.266 . S
O110 C107 1.234 1_454 S
O111 In104 2.326 1_556 S
O111 C107 1.266 1_455 S
O112 In104 2.266 1_556 S
O112 C109 1.252 . S
O113 In104 2.326 1_556 S
O113 C109 1.260 . S
C114 O105 1.240 . S
C114 O106 1.252 . S
O115 In104 2.294 . S
O115 C108 1.240 . S
O116 In104 2.326 . S
O116 C108 1.252 . S
In117 O118 2.294 . S
In117 O119 2.326 . S
In117 O123 2.266 . S
In117 O124 2.326 . S
In117 O125 2.266 . S
In117 O126 2.326 . S
In117 O128 2.294 . S
In117 O129 2.326 . S
O118 In117 2.294 . S
O118 C127 1.240 . S
O119 In117 2.326 . S
O119 C127 1.252 . S
C120 O123 1.252 . S
C120 O124 1.260 . S
C121 O128 1.240 . S
C121 O129 1.252 . S
C122 O125 1.252 1_565 S
C122 O126 1.260 1_565 S
O123 In117 2.266 . S
O123 C120 1.252 . S
O124 In117 2.326 . S
O124 C120 1.260 . S
O125 In117 2.266 . S
O125 C122 1.252 1_545 S
O126 In117 2.326 . S
O126 C122 1.260 1_545 S
C127 O118 1.240 . S
C127 O119 1.252 . S
O128 In117 2.294 . S
O128 C121 1.240 . S
O129 In117 2.326 . S
O129 C121 1.252 . S
In130 O131 2.294 . S
In130 O132 2.326 . S
In130 O136 2.266 . S
In130 O137 2.326 . S
In130 O138 2.266 . S
In130 O139 2.326 . S
In130 O141 2.294 . S
In130 O142 2.326 . S
O131 In130 2.294 . S
O131 C140 1.240 . S
O132 In130 2.326 . S
O132 C140 1.252 . S
C133 O136 1.252 . S
C133 O137 1.260 . S
C134 O141 1.240 . S
C134 O142 1.252 . S
C135 O138 1.252 . S
C135 O139 1.260 . S
O136 In130 2.266 . S
O136 C133 1.252 . S
O137 In130 2.326 . S
O137 C133 1.260 . S
O138 In130 2.266 . S
O138 C135 1.252 . S
O139 In130 2.326 . S
O139 C135 1.260 . S
C140 O131 1.240 . S
C140 O132 1.252 . S
O141 In130 2.294 . S
O141 C134 1.240 . S
O142 In130 2.326 . S
O142 C134 1.252 . S
In143 O144 2.294 . S
In143 O145 2.326 . S
In143 O149 2.266 . S
In143 O150 2.326 . S
In143 O151 2.266 . S
In143 O152 2.326 . S
In143 O154 2.294 . S
In143 O155 2.326 . S
O144 In143 2.294 . S
O144 C153 1.240 . S
O145 In143 2.326 . S
O145 C153 1.252 . S
C146 O149 1.252 . S
C146 O150 1.260 . S
C147 O154 1.240 . S
C147 O155 1.252 . S
C148 O151 1.252 1_455 S
C148 O152 1.260 1_455 S
O149 In143 2.266 . S
O149 C146 1.252 . S
O150 In143 2.326 . S
O150 C146 1.260 . S
O151 In143 2.266 . S
O151 C148 1.252 1_655 S
O152 In143 2.326 . S
O152 C148 1.260 1_655 S
C153 O144 1.240 . S
C153 O145 1.252 . S
O154 In143 2.294 . S
O154 C147 1.240 . S
O155 In143 2.326 . S
O155 C147 1.252 . S
H156 C164 0.950 . S
H157 C169 0.950 . S
H158 C166 0.950 . S
H159 C168 0.950 . S
H160 C170 0.950 . S
H161 C172 0.950 . S
H162 C174 0.945 1_655 S
H163 C175 0.953 . S
C164 H156 0.950 . S
C164 C165 1.386 . S
C164 C166 1.391 . S
C165 C164 1.386 . S
C165 C169 1.393 . S
C166 H158 0.950 . S
C166 C164 1.391 . S
C166 C167 1.400 . S
C167 C166 1.400 . S
C167 C168 1.398 . S
C167 C173 1.491 . S
C168 H159 0.950 . S
C168 C167 1.398 . S
C168 C169 1.391 . S
C169 H157 0.950 . S
C169 C165 1.393 . S
C169 C168 1.391 . S
C170 H160 0.950 . S
C170 C171 1.386 . S
C170 C172 1.391 . S
C171 C170 1.386 . S
C171 C175 1.393 . S
C172 H161 0.950 . S
C172 C170 1.391 . S
C172 C173 1.400 . S
C173 C167 1.491 . S
C173 C172 1.400 . S
C173 C174 1.398 . S
C174 H162 0.945 1_455 S
C174 C173 1.398 . S
C174 C175 1.391 . S
C175 H163 0.953 . S
C175 C171 1.393 . S
C175 C174 1.391 . S
H176 C184 0.950 . S
H177 C189 0.950 . S
H178 C186 0.950 . S
H179 C188 0.950 . S
H180 C190 0.950 . S
H181 C192 0.950 . S
H182 C194 0.950 . S
H183 C195 0.950 . S
C184 H176 0.950 . S
C184 C185 1.386 . S
C184 C186 1.391 . S
C185 C184 1.386 . S
C185 C189 1.393 . S
C186 H178 0.950 . S
C186 C184 1.391 . S
C186 C187 1.400 . S
C187 C186 1.400 . S
C187 C188 1.398 . S
C187 C193 1.491 . S
C188 H179 0.950 . S
C188 C187 1.398 . S
C188 C189 1.391 . S
C189 H177 0.950 . S
C189 C185 1.393 . S
C189 C188 1.391 . S
C190 H180 0.950 . S
C190 C191 1.386 . S
C190 C192 1.391 . S
C191 C190 1.386 . S
C191 C195 1.393 . S
C192 H181 0.950 . S
C192 C190 1.391 . S
C192 C193 1.400 . S
C193 C187 1.491 . S
C193 C192 1.400 . S
C193 C194 1.398 . S
C194 H182 0.950 . S
C194 C193 1.398 . S
C194 C195 1.391 . S
C195 H183 0.950 . S
C195 C191 1.393 . S
C195 C194 1.391 . S
H196 C204 0.950 . S
H197 C209 0.950 . S
H198 C206 0.950 . S
H199 C208 0.950 . S
H200 C210 0.950 . S
H201 C212 0.950 . S
H202 C214 0.950 . S
H203 C215 0.950 . S
C204 H196 0.950 . S
C204 C205 1.386 . S
C204 C206 1.391 . S
C205 C204 1.386 . S
C205 C209 1.393 . S
C206 H198 0.950 . S
C206 C204 1.391 . S
C206 C207 1.400 . S
C207 C206 1.400 . S
C207 C208 1.398 . S
C207 C213 1.491 . S
C208 H199 0.950 . S
C208 C207 1.398 . S
C208 C209 1.391 . S
C209 H197 0.950 . S
C209 C205 1.393 . S
C209 C208 1.391 . S
C210 H200 0.950 . S
C210 C211 1.386 . S
C210 C212 1.391 . S
C211 C210 1.386 . S
C211 C215 1.393 . S
C212 H201 0.950 . S
C212 C210 1.391 . S
C212 C213 1.400 . S
C213 C207 1.491 . S
C213 C212 1.400 . S
C213 C214 1.398 . S
C214 H202 0.950 . S
C214 C213 1.398 . S
C214 C215 1.391 . S
C215 H203 0.950 . S
C215 C211 1.393 . S
C215 C214 1.391 . S
H216 C224 0.950 . S
H217 C229 0.950 1_455 S
H218 C226 0.950 . S
H219 C228 0.952 1_455 S
H220 C230 0.950 1_455 S
H221 C232 0.950 1_455 S
H222 C234 0.950 . S
H223 C235 0.950 . S
C224 H216 0.950 . S
C224 C225 1.386 . S
C224 C226 1.391 . S
C225 C224 1.386 . S
C225 C229 1.393 . S
C226 H218 0.950 . S
C226 C224 1.391 . S
C226 C227 1.400 . S
C227 C226 1.400 . S
C227 C228 1.398 . S
C227 C233 1.491 . S
C228 H219 0.952 1_655 S
C228 C227 1.398 . S
C228 C229 1.391 . S
C229 H217 0.950 1_655 S
C229 C225 1.393 . S
C229 C228 1.391 . S
C230 H220 0.950 1_655 S
C230 C231 1.386 . S
C230 C232 1.391 . S
C231 C230 1.386 . S
C231 C235 1.393 . S
C232 H221 0.950 1_655 S
C232 C230 1.391 . S
C232 C233 1.400 . S
C233 C227 1.491 . S
C233 C232 1.400 . S
C233 C234 1.398 . S
C234 H222 0.950 . S
C234 C233 1.398 . S
C234 C235 1.391 . S
C235 H223 0.950 . S
C235 C231 1.393 . S
C235 C234 1.391 . S
H236 C244 0.950 . S
H237 C249 0.950 . S
H238 C246 0.950 . S
H239 C248 0.950 . S
H240 C250 0.950 . S
H241 C252 0.950 . S
H242 C254 0.950 . S
H243 C255 0.950 . S
C244 H236 0.950 . S
C244 C245 1.386 . S
C244 C246 1.391 . S
C245 C244 1.386 . S
C245 C249 1.393 . S
C246 H238 0.950 . S
C246 C244 1.391 . S
C246 C247 1.400 . S
C247 C246 1.400 . S
C247 C248 1.398 . S
C247 C253 1.491 . S
C248 H239 0.950 . S
C248 C247 1.398 . S
C248 C249 1.391 . S
C249 H237 0.950 . S
C249 C245 1.393 . S
C249 C248 1.391 . S
C250 H240 0.950 . S
C250 C251 1.386 . S
C250 C252 1.391 . S
C251 C250 1.386 . S
C251 C255 1.393 . S
C252 H241 0.950 . S
C252 C250 1.391 . S
C252 C253 1.400 . S
C253 C247 1.491 . S
C253 C252 1.400 . S
C253 C254 1.398 . S
C254 H242 0.950 . S
C254 C253 1.398 . S
C254 C255 1.391 . S
C255 H243 0.950 . S
C255 C251 1.393 . S
C255 C254 1.391 . S
H256 C264 0.950 . S
H257 C269 0.950 . S
H258 C266 0.950 . S
H259 C268 0.950 . S
H260 C270 0.950 . S
H261 C272 0.950 . S
H262 C274 0.950 . S
H263 C275 0.950 . S
C264 H256 0.950 . S
C264 C265 1.386 . S
C264 C266 1.391 . S
C265 C264 1.386 . S
C265 C269 1.393 . S
C266 H258 0.950 . S
C266 C264 1.391 . S
C266 C267 1.400 . S
C267 C266 1.400 . S
C267 C268 1.398 . S
C267 C273 1.491 . S
C268 H259 0.950 . S
C268 C267 1.398 . S
C268 C269 1.391 . S
C269 H257 0.950 . S
C269 C265 1.393 . S
C269 C268 1.391 . S
C270 H260 0.950 . S
C270 C271 1.386 . S
C270 C272 1.391 . S
C271 C270 1.386 . S
C271 C275 1.393 . S
C272 H261 0.950 . S
C272 C270 1.391 . S
C272 C273 1.400 . S
C273 C267 1.491 . S
C273 C272 1.400 . S
C273 C274 1.398 . S
C274 H262 0.950 . S
C274 C273 1.398 . S
C274 C275 1.391 . S
C275 H263 0.950 . S
C275 C271 1.393 . S
C275 C274 1.391 . S
H276 C284 0.950 . S
H277 C289 0.950 . S
H278 C286 0.950 . S
H279 C288 0.950 . S
H280 C290 0.950 1_556 S
H281 C292 0.950 . S
H282 C294 0.950 . S
H283 C295 0.950 . S
C284 H276 0.950 . S
C284 C285 1.386 . S
C284 C286 1.391 . S
C285 C284 1.386 . S
C285 C289 1.393 . S
C286 H278 0.950 . S
C286 C284 1.391 . S
C286 C287 1.400 . S
C287 C286 1.400 . S
C287 C288 1.398 . S
C287 C293 1.491 . S
C288 H279 0.950 . S
C288 C287 1.398 . S
C288 C289 1.391 . S
C289 H277 0.950 . S
C289 C285 1.393 . S
C289 C288 1.391 . S
C290 H280 0.950 1_554 S
C290 C291 1.386 . S
C290 C292 1.391 . S
C291 C290 1.386 . S
C291 C295 1.393 . S
C292 H281 0.950 . S
C292 C290 1.391 . S
C292 C293 1.400 . S
C293 C287 1.491 . S
C293 C292 1.400 . S
C293 C294 1.398 . S
C294 H282 0.950 . S
C294 C293 1.398 . S
C294 C295 1.391 . S
C295 H283 0.950 . S
C295 C291 1.393 . S
C295 C294 1.391 . S
H296 C304 0.950 . S
H297 C309 0.950 . S
H298 C306 0.950 . S
H299 C308 0.950 . S
H300 C310 0.950 . S
H301 C312 0.950 . S
H302 C314 0.950 . S
H303 C315 0.950 . S
C304 H296 0.950 . S
C304 C305 1.386 . S
C304 C306 1.391 . S
C305 C304 1.386 . S
C305 C309 1.393 . S
C306 H298 0.950 . S
C306 C304 1.391 . S
C306 C307 1.400 . S
C307 C306 1.400 . S
C307 C308 1.398 . S
C307 C313 1.491 . S
C308 H299 0.950 . S
C308 C307 1.398 . S
C308 C309 1.391 . S
C309 H297 0.950 . S
C309 C305 1.393 . S
C309 C308 1.391 . S
C310 H300 0.950 . S
C310 C311 1.386 . S
C310 C312 1.391 . S
C311 C310 1.386 . S
C311 C315 1.393 . S
C312 H301 0.950 . S
C312 C310 1.391 . S
C312 C313 1.400 . S
C313 C307 1.491 . S
C313 C312 1.400 . S
C313 C314 1.398 . S
C314 H302 0.950 . S
C314 C313 1.398 . S
C314 C315 1.391 . S
C315 H303 0.950 . S
C315 C311 1.393 . S
C315 C314 1.391 . S
H316 C324 0.950 . S
H317 C329 0.950 . S
H318 C326 0.950 . S
H319 C328 0.950 . S
H320 C330 0.950 . S
H321 C332 0.950 . S
H322 C334 0.950 . S
H323 C335 0.950 . S
C324 H316 0.950 . S
C324 C325 1.386 . S
C324 C326 1.391 . S
C325 C324 1.386 . S
C325 C329 1.393 . S
C326 H318 0.950 . S
C326 C324 1.391 . S
C326 C327 1.400 . S
C327 C326 1.400 . S
C327 C328 1.398 . S
C327 C333 1.491 . S
C328 H319 0.950 . S
C328 C327 1.398 . S
C328 C329 1.391 . S
C329 H317 0.950 . S
C329 C325 1.393 . S
C329 C328 1.391 . S
C330 H320 0.950 . S
C330 C331 1.386 . S
C330 C332 1.391 . S
C331 C330 1.386 . S
C331 C335 1.393 . S
C332 H321 0.950 . S
C332 C330 1.391 . S
C332 C333 1.400 . S
C333 C327 1.491 . S
C333 C332 1.400 . S
C333 C334 1.398 . S
C334 H322 0.950 . S
C334 C333 1.398 . S
C334 C335 1.391 . S
C335 H323 0.950 . S
C335 C331 1.393 . S
C335 C334 1.391 . S
H336 C344 0.950 . S
H337 C349 0.950 . S
H338 C346 0.950 . S
H339 C348 0.950 . S
H340 C350 0.950 . S
H341 C352 0.950 . S
H342 C354 0.950 . S
H343 C355 0.950 . S
C344 H336 0.950 . S
C344 C345 1.386 . S
C344 C346 1.391 . S
C345 C344 1.386 . S
C345 C349 1.393 . S
C346 H338 0.950 . S
C346 C344 1.391 . S
C346 C347 1.400 . S
C347 C346 1.400 . S
C347 C348 1.398 . S
C347 C353 1.491 . S
C348 H339 0.950 . S
C348 C347 1.398 . S
C348 C349 1.391 . S
C349 H337 0.950 . S
C349 C345 1.393 . S
C349 C348 1.391 . S
C350 H340 0.950 . S
C350 C351 1.386 . S
C350 C352 1.391 . S
C351 C350 1.386 . S
C351 C355 1.393 . S
C352 H341 0.950 . S
C352 C350 1.391 . S
C352 C353 1.400 . S
C353 C347 1.491 . S
C353 C352 1.400 . S
C353 C354 1.398 . S
C354 H342 0.950 . S
C354 C353 1.398 . S
C354 C355 1.391 . S
C355 H343 0.950 . S
C355 C351 1.393 . S
C355 C354 1.391 . S
H356 C364 0.950 . S
H357 C369 0.950 . S
H358 C366 0.950 . S
H359 C368 0.950 . S
H360 C370 0.950 . S
H361 C372 0.950 . S
H362 C374 0.950 . S
H363 C375 0.950 . S
C364 H356 0.950 . S
C364 C365 1.386 . S
C364 C366 1.391 . S
C365 C364 1.386 . S
C365 C369 1.393 . S
C366 H358 0.950 . S
C366 C364 1.391 . S
C366 C367 1.400 . S
C367 C366 1.400 . S
C367 C368 1.398 . S
C367 C373 1.491 . S
C368 H359 0.950 . S
C368 C367 1.398 . S
C368 C369 1.391 . S
C369 H357 0.950 . S
C369 C365 1.393 . S
C369 C368 1.391 . S
C370 H360 0.950 . S
C370 C371 1.386 . S
C370 C372 1.391 . S
C371 C370 1.386 . S
C371 C375 1.393 . S
C372 H361 0.950 . S
C372 C370 1.391 . S
C372 C373 1.400 . S
C373 C367 1.491 . S
C373 C372 1.400 . S
C373 C374 1.398 . S
C374 H362 0.950 . S
C374 C373 1.398 . S
C374 C375 1.391 . S
C375 H363 0.950 . S
C375 C371 1.393 . S
C375 C374 1.391 . S
H376 C384 0.950 . S
H377 C389 0.950 . S
H378 C386 0.950 . S
H379 C388 0.950 . S
H380 C390 0.950 . S
H381 C392 0.950 . S
H382 C394 0.950 . S
H383 C395 0.950 . S
C384 H376 0.950 . S
C384 C385 1.386 . S
C384 C386 1.391 . S
C385 C384 1.386 . S
C385 C389 1.393 . S
C386 H378 0.950 . S
C386 C384 1.391 . S
C386 C387 1.400 . S
C387 C386 1.400 . S
C387 C388 1.398 . S
C387 C393 1.491 . S
C388 H379 0.950 . S
C388 C387 1.398 . S
C388 C389 1.391 . S
C389 H377 0.950 . S
C389 C385 1.393 . S
C389 C388 1.391 . S
C390 H380 0.950 . S
C390 C391 1.386 . S
C390 C392 1.391 . S
C391 C390 1.386 . S
C391 C395 1.393 . S
C392 H381 0.950 . S
C392 C390 1.391 . S
C392 C393 1.400 . S
C393 C387 1.491 . S
C393 C392 1.400 . S
C393 C394 1.398 . S
C394 H382 0.950 . S
C394 C393 1.398 . S
C394 C395 1.391 . S
C395 H383 0.950 . S
C395 C391 1.393 . S
C395 C394 1.391 . S
H396 C404 0.950 . S
H397 C409 0.950 . S
H398 C406 0.950 . S
H399 C408 0.950 . S
H400 C410 0.950 . S
H401 C412 0.950 . S
H402 C414 0.950 . S
H403 C415 0.950 . S
C404 H396 0.950 . S
C404 C405 1.386 . S
C404 C406 1.391 . S
C405 C404 1.386 . S
C405 C409 1.393 . S
C406 H398 0.950 . S
C406 C404 1.391 . S
C406 C407 1.400 . S
C407 C406 1.400 . S
C407 C408 1.398 . S
C407 C413 1.491 . S
C408 H399 0.950 . S
C408 C407 1.398 . S
C408 C409 1.391 . S
C409 H397 0.950 . S
C409 C405 1.393 . S
C409 C408 1.391 . S
C410 H400 0.950 . S
C410 C411 1.386 . S
C410 C412 1.391 . S
C411 C410 1.386 . S
C411 C415 1.393 . S
C412 H401 0.950 . S
C412 C410 1.391 . S
C412 C413 1.400 . S
C413 C407 1.491 . S
C413 C412 1.400 . S
C413 C414 1.398 . S
C414 H402 0.950 . S
C414 C413 1.398 . S
C414 C415 1.391 . S
C415 H403 0.950 . S
C415 C411 1.393 . S
C415 C414 1.391 . S
H416 C424 0.950 . S
H417 C429 0.950 . S
H418 C426 0.950 . S
H419 C428 0.950 . S
H420 C430 0.950 . S
H421 C432 0.950 . S
H422 C434 0.950 . S
H423 C435 0.950 . S
C424 H416 0.950 . S
C424 C425 1.386 . S
C424 C426 1.391 . S
C425 C424 1.386 . S
C425 C429 1.393 . S
C426 H418 0.950 . S
C426 C424 1.391 . S
C426 C427 1.400 . S
C427 C426 1.400 . S
C427 C428 1.398 . S
C427 C433 1.491 . S
C428 H419 0.950 . S
C428 C427 1.398 . S
C428 C429 1.391 . S
C429 H417 0.950 . S
C429 C425 1.393 . S
C429 C428 1.391 . S
C430 H420 0.950 . S
C430 C431 1.386 . S
C430 C432 1.391 . S
C431 C430 1.386 . S
C431 C435 1.393 . S
C432 H421 0.950 . S
C432 C430 1.391 . S
C432 C433 1.400 . S
C433 C427 1.491 . S
C433 C432 1.400 . S
C433 C434 1.398 . S
C434 H422 0.950 . S
C434 C433 1.398 . S
C434 C435 1.391 . S
C435 H423 0.950 . S
C435 C431 1.393 . S
C435 C434 1.391 . S
H436 C444 0.950 . S
H437 C449 0.950 . S
H438 C446 0.950 . S
H439 C448 0.950 . S
H440 C450 0.950 . S
H441 C452 0.950 . S
H442 C454 0.950 . S
H443 C455 0.950 . S
C444 H436 0.950 . S
C444 C445 1.386 . S
C444 C446 1.391 . S
C445 C444 1.386 . S
C445 C449 1.393 . S
C446 H438 0.950 . S
C446 C444 1.391 . S
C446 C447 1.400 . S
C447 C446 1.400 . S
C447 C448 1.398 . S
C447 C453 1.491 . S
C448 H439 0.950 . S
C448 C447 1.398 . S
C448 C449 1.391 . S
C449 H437 0.950 . S
C449 C445 1.393 . S
C449 C448 1.391 . S
C450 H440 0.950 . S
C450 C451 1.386 . S
C450 C452 1.391 . S
C451 C450 1.386 . S
C451 C455 1.393 . S
C452 H441 0.950 . S
C452 C450 1.391 . S
C452 C453 1.400 . S
C453 C447 1.491 . S
C453 C452 1.400 . S
C453 C454 1.398 . S
C454 H442 0.950 . S
C454 C453 1.398 . S
C454 C455 1.391 . S
C455 H443 0.950 . S
C455 C451 1.393 . S
C455 C454 1.391 . S
H456 C464 0.950 . S
H457 C469 0.950 . S
H458 C466 0.950 . S
H459 C468 0.950 . S
H460 C470 0.950 . S
H461 C472 0.950 . S
H462 C474 0.950 . S
H463 C475 0.950 . S
C464 H456 0.950 . S
C464 C465 1.386 . S
C464 C466 1.391 . S
C465 C464 1.386 . S
C465 C469 1.393 . S
C466 H458 0.950 . S
C466 C464 1.391 . S
C466 C467 1.400 . S
C467 C466 1.400 . S
C467 C468 1.398 . S
C467 C473 1.491 . S
C468 H459 0.950 . S
C468 C467 1.398 . S
C468 C469 1.391 . S
C469 H457 0.950 . S
C469 C465 1.393 . S
C469 C468 1.391 . S
C470 H460 0.950 . S
C470 C471 1.386 . S
C470 C472 1.391 . S
C471 C470 1.386 . S
C471 C475 1.393 . S
C472 H461 0.950 . S
C472 C470 1.391 . S
C472 C473 1.400 . S
C473 C467 1.491 . S
C473 C472 1.400 . S
C473 C474 1.398 . S
C474 H462 0.950 . S
C474 C473 1.398 . S
C474 C475 1.391 . S
C475 H463 0.950 . S
C475 C471 1.393 . S
C475 C474 1.391 . S
H476 C484 0.950 . S
H477 C489 0.950 . S
H478 C486 0.950 . S
H479 C488 0.950 . S
H480 C490 0.950 . S
H481 C492 0.950 . S
H482 C494 0.950 . S
H483 C495 0.950 . S
C484 H476 0.950 . S
C484 C485 1.386 . S
C484 C486 1.391 . S
C485 C484 1.386 . S
C485 C489 1.393 . S
C486 H478 0.950 . S
C486 C484 1.391 . S
C486 C487 1.400 . S
C487 C486 1.400 . S
C487 C488 1.398 . S
C487 C493 1.491 . S
C488 H479 0.950 . S
C488 C487 1.398 . S
C488 C489 1.391 . S
C489 H477 0.950 . S
C489 C485 1.393 . S
C489 C488 1.391 . S
C490 H480 0.950 . S
C490 C491 1.386 . S
C490 C492 1.391 . S
C491 C490 1.386 . S
C491 C495 1.393 . S
C492 H481 0.950 . S
C492 C490 1.391 . S
C492 C493 1.400 . S
C493 C487 1.491 . S
C493 C492 1.400 . S
C493 C494 1.398 . S
C494 H482 0.950 . S
C494 C493 1.398 . S
C494 C495 1.391 . S
C495 H483 0.950 . S
C495 C491 1.393 . S
C495 C494 1.391 . S
H496 C504 0.950 . S
H497 C509 0.950 . S
H498 C506 0.950 . S
H499 C508 0.950 . S
H500 C510 0.950 . S
H501 C512 0.950 . S
H502 C514 0.950 . S
H503 C515 0.950 . S
C504 H496 0.950 . S
C504 C505 1.386 . S
C504 C506 1.391 . S
C505 C504 1.386 . S
C505 C509 1.393 . S
C506 H498 0.950 . S
C506 C504 1.391 . S
C506 C507 1.400 . S
C507 C506 1.400 . S
C507 C508 1.398 . S
C507 C513 1.491 . S
C508 H499 0.950 . S
C508 C507 1.398 . S
C508 C509 1.391 . S
C509 H497 0.950 . S
C509 C505 1.393 . S
C509 C508 1.391 . S
C510 H500 0.950 . S
C510 C511 1.386 . S
C510 C512 1.391 . S
C511 C510 1.386 . S
C511 C515 1.393 . S
C512 H501 0.950 . S
C512 C510 1.391 . S
C512 C513 1.400 . S
C513 C507 1.491 . S
C513 C512 1.400 . S
C513 C514 1.398 . S
C514 H502 0.950 . S
C514 C513 1.398 . S
C514 C515 1.391 . S
C515 H503 0.950 . S
C515 C511 1.393 . S
C515 C514 1.391 . S
H516 C524 0.950 . S
H517 C529 0.950 . S
H518 C526 0.950 . S
H519 C528 0.950 . S
H520 C530 0.950 . S
H521 C532 0.950 . S
H522 C534 0.950 . S
H523 C535 0.950 . S
C524 H516 0.950 . S
C524 C525 1.386 . S
C524 C526 1.391 . S
C525 C524 1.386 . S
C525 C529 1.393 . S
C526 H518 0.950 . S
C526 C524 1.391 . S
C526 C527 1.400 . S
C527 C526 1.400 . S
C527 C528 1.398 . S
C527 C533 1.491 . S
C528 H519 0.950 . S
C528 C527 1.398 . S
C528 C529 1.391 . S
C529 H517 0.950 . S
C529 C525 1.393 . S
C529 C528 1.391 . S
C530 H520 0.950 . S
C530 C531 1.386 . S
C530 C532 1.391 . S
C531 C530 1.386 . S
C531 C535 1.393 . S
C532 H521 0.950 . S
C532 C530 1.391 . S
C532 C533 1.400 . S
C533 C527 1.491 . S
C533 C532 1.400 . S
C533 C534 1.398 . S
C534 H522 0.950 . S
C534 C533 1.398 . S
C534 C535 1.391 . S
C535 H523 0.950 . S
C535 C531 1.393 . S
C535 C534 1.391 . S
H536 C544 0.950 . S
H537 C549 0.950 . S
H538 C546 0.950 . S
H539 C548 0.950 . S
H540 C550 0.950 . S
H541 C552 0.950 . S
H542 C554 0.950 . S
H543 C555 0.950 . S
C544 H536 0.950 . S
C544 C545 1.386 . S
C544 C546 1.391 . S
C545 C544 1.386 . S
C545 C549 1.393 . S
C546 H538 0.950 . S
C546 C544 1.391 . S
C546 C547 1.400 . S
C547 C546 1.400 . S
C547 C548 1.398 . S
C547 C553 1.491 . S
C548 H539 0.950 . S
C548 C547 1.398 . S
C548 C549 1.391 . S
C549 H537 0.950 . S
C549 C545 1.393 . S
C549 C548 1.391 . S
C550 H540 0.950 . S
C550 C551 1.386 . S
C550 C552 1.391 . S
C551 C550 1.386 . S
C551 C555 1.393 . S
C552 H541 0.950 . S
C552 C550 1.391 . S
C552 C553 1.400 . S
C553 C547 1.491 . S
C553 C552 1.400 . S
C553 C554 1.398 . S
C554 H542 0.950 . S
C554 C553 1.398 . S
C554 C555 1.391 . S
C555 H543 0.950 . S
C555 C551 1.393 . S
C555 C554 1.391 . S
H556 C564 0.950 . S
H557 C569 0.950 . S
H558 C566 0.950 . S
H559 C568 0.950 . S
H560 C570 0.950 . S
H561 C572 0.950 . S
H562 C574 0.950 . S
H563 C575 0.950 . S
C564 H556 0.950 . S
C564 C565 1.386 . S
C564 C566 1.391 . S
C565 C564 1.386 . S
C565 C569 1.393 . S
C566 H558 0.950 . S
C566 C564 1.391 . S
C566 C567 1.400 . S
C567 C566 1.400 . S
C567 C568 1.398 . S
C567 C573 1.491 . S
C568 H559 0.950 . S
C568 C567 1.398 . S
C568 C569 1.391 . S
C569 H557 0.950 . S
C569 C565 1.393 . S
C569 C568 1.391 . S
C570 H560 0.950 . S
C570 C571 1.386 . S
C570 C572 1.391 . S
C571 C570 1.386 . S
C571 C575 1.393 . S
C572 H561 0.950 . S
C572 C570 1.391 . S
C572 C573 1.400 . S
C573 C567 1.491 . S
C573 C572 1.400 . S
C573 C574 1.398 . S
C574 H562 0.950 . S
C574 C573 1.398 . S
C574 C575 1.391 . S
C575 H563 0.950 . S
C575 C571 1.393 . S
C575 C574 1.391 . S
H576 C584 0.950 . S
H577 C589 0.950 . S
H578 C586 0.950 . S
H579 C588 0.950 . S
H580 C590 0.950 . S
H581 C592 0.950 . S
H582 C594 0.950 . S
H583 C595 0.950 . S
C584 H576 0.950 . S
C584 C585 1.386 . S
C584 C586 1.391 . S
C585 C584 1.386 . S
C585 C589 1.393 . S
C586 H578 0.950 . S
C586 C584 1.391 . S
C586 C587 1.400 . S
C587 C586 1.400 . S
C587 C588 1.398 . S
C587 C593 1.491 . S
C588 H579 0.950 . S
C588 C587 1.398 . S
C588 C589 1.391 . S
C589 H577 0.950 . S
C589 C585 1.393 . S
C589 C588 1.391 . S
C590 H580 0.950 . S
C590 C591 1.386 . S
C590 C592 1.391 . S
C591 C590 1.386 . S
C591 C595 1.393 . S
C592 H581 0.950 . S
C592 C590 1.391 . S
C592 C593 1.400 . S
C593 C587 1.491 . S
C593 C592 1.400 . S
C593 C594 1.398 . S
C594 H582 0.950 . S
C594 C593 1.398 . S
C594 C595 1.391 . S
C595 H583 0.950 . S
C595 C591 1.393 . S
C595 C594 1.391 . S
H596 C604 0.950 . S
H597 C609 0.950 . S
H598 C606 0.950 . S
H599 C608 0.950 . S
H600 C610 0.950 . S
H601 C612 0.950 . S
H602 C614 0.950 . S
H603 C615 0.950 . S
C604 H596 0.950 . S
C604 C605 1.386 . S
C604 C606 1.391 . S
C605 C604 1.386 . S
C605 C609 1.393 . S
C606 H598 0.950 . S
C606 C604 1.391 . S
C606 C607 1.400 . S
C607 C606 1.400 . S
C607 C608 1.398 . S
C607 C613 1.491 . S
C608 H599 0.950 . S
C608 C607 1.398 . S
C608 C609 1.391 . S
C609 H597 0.950 . S
C609 C605 1.393 . S
C609 C608 1.391 . S
C610 H600 0.950 . S
C610 C611 1.386 . S
C610 C612 1.391 . S
C611 C610 1.386 . S
C611 C615 1.393 . S
C612 H601 0.950 . S
C612 C610 1.391 . S
C612 C613 1.400 . S
C613 C607 1.491 . S
C613 C612 1.400 . S
C613 C614 1.398 . S
C614 H602 0.950 . S
C614 C613 1.398 . S
C614 C615 1.391 . S
C615 H603 0.950 . S
C615 C611 1.393 . S
C615 C614 1.391 . S
H616 C624 0.950 . S
H617 C629 0.950 . S
H618 C626 0.950 . S
H619 C628 0.950 . S
H620 C630 0.950 . S
H621 C632 0.950 . S
H622 C634 0.950 . S
H623 C635 0.950 . S
C624 H616 0.950 . S
C624 C625 1.386 . S
C624 C626 1.391 . S
C625 C624 1.386 . S
C625 C629 1.393 . S
C626 H618 0.950 . S
C626 C624 1.391 . S
C626 C627 1.400 . S
C627 C626 1.400 . S
C627 C628 1.398 . S
C627 C633 1.491 . S
C628 H619 0.950 . S
C628 C627 1.398 . S
C628 C629 1.391 . S
C629 H617 0.950 . S
C629 C625 1.393 . S
C629 C628 1.391 . S
C630 H620 0.950 . S
C630 C631 1.386 . S
C630 C632 1.391 . S
C631 C630 1.386 . S
C631 C635 1.393 . S
C632 H621 0.950 . S
C632 C630 1.391 . S
C632 C633 1.400 . S
C633 C627 1.491 . S
C633 C632 1.400 . S
C633 C634 1.398 . S
C634 H622 0.950 . S
C634 C633 1.398 . S
C634 C635 1.391 . S
C635 H623 0.950 . S
C635 C631 1.393 . S
C635 C634 1.391 . S
C165 C108 1.329 . S
C171 C4 1.335 . S
C185 C23 1.330 . S
C191 C127 1.338 . S
C205 C36 1.334 . S
C211 C134 1.337 . S
C225 C49 1.333 . S
C231 C153 1.337 . S
C245 C82 1.338 . S
C251 C56 1.331 . S
C265 C75 1.337 . S
C271 C95 1.329 . S
C285 C10 1.543 . S
C291 C70 1.544 . S
C305 C17 1.543 . S
C311 C3 1.531 . S
C325 C30 1.542 . S
C331 C18 1.518 . S
C345 C31 1.523 . S
C351 C43 1.538 . S
C365 C44 1.528 . S
C371 C62 1.538 . S
C385 C55 1.532 . S
C391 C69 1.541 . S
C405 C94 1.518 . S
C411 C88 1.542 . S
C425 C101 1.538 . S
C431 C107 1.542 . S
C445 C122 1.531 . S
C451 C114 1.542 . S
C465 C121 1.542 . S
C471 C133 1.518 . S
C485 C140 1.542 . S
C491 C148 1.518 . S
C505 C147 1.541 . S
C511 C81 1.518 . S
C525 C135 1.296 . S
C531 C5 1.292 . S
C545 C146 1.292 . S
C551 C16 1.296 . S
C565 C83 1.295 . S
C571 C29 1.295 . S
C585 C42 1.295 . S
C591 C96 1.296 . S
C605 C57 1.295 . S
C611 C109 1.296 . S
C625 C120 1.292 . S
C631 C68 1.295 . S
