# Generated by pormake.
# Topology lcy-e, (6)-cn, num edge types: 1
# Building blocks:
#     Node 0, Type 0, BuildingBlock: BETGAK_clean_sbu_0, # of connection points: 6
#     Node 1, Type 0, BuildingBlock: BETGAK_clean_sbu_0, # of connection points: 6
#     Node 2, Type 0, BuildingBlock: BETGAK_clean_sbu_0, # of connection points: 6
#     Node 3, Type 0, BuildingBlock: BETGAK_clean_sbu_0, # of connection points: 6
#     Node 4, Type 0, BuildingBlock: BETGAK_clean_sbu_0, # of connection points: 6
#     Node 5, Type 0, BuildingBlock: BETGAK_clean_sbu_0, # of connection points: 6
#     Node 6, Type 0, BuildingBlock: BETGAK_clean_sbu_0, # of connection points: 6
#     Node 7, Type 0, BuildingBlock: BETGAK_clean_sbu_0, # of connection points: 6
#     Node 8, Type 0, BuildingBlock: BETGAK_clean_sbu_0, # of connection points: 6
#     Node 9, Type 0, BuildingBlock: BETGAK_clean_sbu_0, # of connection points: 6
#     Node 10, Type 0, BuildingBlock: BETGAK_clean_sbu_0, # of connection points: 6
#     Node 11, Type 0, BuildingBlock: BETGAK_clean_sbu_0, # of connection points: 6
#     Edge 12, Type (0, 0), BuildingBlock: CIFDUS_clean_linker_0, # of connection points: 2
#     Edge 13, Type (0, 0), BuildingBlock: CIFDUS_clean_linker_0, # of connection points: 2
#     Edge 14, Type (0, 0), BuildingBlock: CIFDUS_clean_linker_0, # of connection points: 2
#     Edge 15, Type (0, 0), BuildingBlock: CIFDUS_clean_linker_0, # of connection points: 2
#     Edge 16, Type (0, 0), BuildingBlock: CIFDUS_clean_linker_0, # of connection points: 2
#     Edge 17, Type (0, 0), BuildingBlock: CIFDUS_clean_linker_0, # of connection points: 2
#     Edge 18, Type (0, 0), BuildingBlock: CIFDUS_clean_linker_0, # of connection points: 2
#     Edge 19, Type (0, 0), BuildingBlock: CIFDUS_clean_linker_0, # of connection points: 2
#     Edge 20, Type (0, 0), BuildingBlock: CIFDUS_clean_linker_0, # of connection points: 2
#     Edge 21, Type (0, 0), BuildingBlock: CIFDUS_clean_linker_0, # of connection points: 2
#     Edge 22, Type (0, 0), BuildingBlock: CIFDUS_clean_linker_0, # of connection points: 2
#     Edge 23, Type (0, 0), BuildingBlock: CIFDUS_clean_linker_0, # of connection points: 2
#     Edge 24, Type (0, 0), BuildingBlock: CIFDUS_clean_linker_0, # of connection points: 2
#     Edge 25, Type (0, 0), BuildingBlock: CIFDUS_clean_linker_0, # of connection points: 2
#     Edge 26, Type (0, 0), BuildingBlock: CIFDUS_clean_linker_0, # of connection points: 2
#     Edge 27, Type (0, 0), BuildingBlock: CIFDUS_clean_linker_0, # of connection points: 2
#     Edge 28, Type (0, 0), BuildingBlock: CIFDUS_clean_linker_0, # of connection points: 2
#     Edge 29, Type (0, 0), BuildingBlock: CIFDUS_clean_linker_0, # of connection points: 2
#     Edge 30, Type (0, 0), BuildingBlock: CIFDUS_clean_linker_0, # of connection points: 2
#     Edge 31, Type (0, 0), BuildingBlock: CIFDUS_clean_linker_0, # of connection points: 2
#     Edge 32, Type (0, 0), BuildingBlock: CIFDUS_clean_linker_0, # of connection points: 2
#     Edge 33, Type (0, 0), BuildingBlock: CIFDUS_clean_linker_0, # of connection points: 2
#     Edge 34, Type (0, 0), BuildingBlock: CIFDUS_clean_linker_0, # of connection points: 2
#     Edge 35, Type (0, 0), BuildingBlock: CIFDUS_clean_linker_0, # of connection points: 2
#     Edge 36, Type (0, 0), BuildingBlock: CIFDUS_clean_linker_0, # of connection points: 2
#     Edge 37, Type (0, 0), BuildingBlock: CIFDUS_clean_linker_0, # of connection points: 2
#     Edge 38, Type (0, 0), BuildingBlock: CIFDUS_clean_linker_0, # of connection points: 2
#     Edge 39, Type (0, 0), BuildingBlock: CIFDUS_clean_linker_0, # of connection points: 2
#     Edge 40, Type (0, 0), BuildingBlock: CIFDUS_clean_linker_0, # of connection points: 2
#     Edge 41, Type (0, 0), BuildingBlock: CIFDUS_clean_linker_0, # of connection points: 2
#     Edge 42, Type (0, 0), BuildingBlock: CIFDUS_clean_linker_0, # of connection points: 2
#     Edge 43, Type (0, 0), BuildingBlock: CIFDUS_clean_linker_0, # of connection points: 2
#     Edge 44, Type (0, 0), BuildingBlock: CIFDUS_clean_linker_0, # of connection points: 2
#     Edge 45, Type (0, 0), BuildingBlock: CIFDUS_clean_linker_0, # of connection points: 2
#     Edge 46, Type (0, 0), BuildingBlock: CIFDUS_clean_linker_0, # of connection points: 2
#     Edge 47, Type (0, 0), BuildingBlock: CIFDUS_clean_linker_0, # of connection points: 2
# Relax obj value: 0.200
# Max RMSD: 0.313
# Mean RMSD: 0.291
data_MOF--net-lcy-e--node1-BETGAK_clean_sbu_0--edge1-CIFDUS_clean_linker_0
_symmetry_space_group_name_H-M    P1
_symmetry_Int_Tables_number       1
_symmetry_cell_setting            triclinic
loop_
_symmetry_equiv_pos_as_xyz
'x, y, z'
_cell_length_a     40.263954
_cell_length_b     37.571198
_cell_length_c     40.251647
_cell_angle_alpha  89.523452
_cell_angle_beta   90.883281
_cell_angle_gamma 88.363027
loop_
_atom_site_label
_atom_site_type_symbol
_atom_site_fract_x
_atom_site_fract_y
_atom_site_fract_z
_atom_type_partial_charge
La0 La 0.1486 0.2961 0.50113 0.0
La1 La 0.16867 0.23352 0.54288 0.0
C2 C 0.14695 0.35147 0.46529 0.0
C3 C 0.15335 0.3602 0.43005 0.0
C4 C 0.1266 0.36916 0.40852 0.0
C5 C 0.13222 0.38004 0.37586 0.0
C6 C 0.16478 0.38265 0.36406 0.0
C7 C 0.19153 0.37238 0.38523 0.0
C8 C 0.18589 0.36128 0.41789 0.0
C9 C 0.10875 0.24235 0.49484 0.0
C10 C 0.20876 0.24367 0.47833 0.0
C11 C 0.17257 0.1757 0.57517 0.0
C12 C 0.1532 0.15017 0.59408 0.0
C13 C 0.17051 0.12295 0.61147 0.0
C14 C 0.15339 0.09684 0.62837 0.0
C15 C 0.11844 0.09746 0.62844 0.0
C16 C 0.101 0.12491 0.61087 0.0
C17 C 0.1183 0.15115 0.59378 0.0
C18 C 0.20522 0.29093 0.55094 0.0
C19 C 0.114 0.28693 0.56896 0.0
O20 O 0.1209 0.33251 0.47116 0.0
O21 O 0.17254 0.34136 0.48385 0.0
O22 O 0.09955 0.27556 0.49329 0.0
O23 O 0.14017 0.23966 0.49742 0.0
O24 O 0.1903 0.27291 0.47243 0.0
O25 O 0.20326 0.22248 0.50372 0.0
O26 O 0.17739 0.20684 0.58849 0.0
O27 O 0.16629 0.17793 0.54321 0.0
O28 O 0.21682 0.25852 0.55394 0.0
O29 O 0.17447 0.28977 0.54661 0.0
O30 O 0.12265 0.25288 0.5662 0.0
O31 O 0.12681 0.31101 0.54891 0.0
H32 H 0.10126 0.36853 0.41715 0.0
H33 H 0.11103 0.38728 0.36008 0.0
H34 H 0.21693 0.37447 0.37712 0.0
H35 H 0.20712 0.35453 0.4338 0.0
H36 H 0.19744 0.12154 0.6116 0.0
H37 H 0.16767 0.07574 0.64093 0.0
H38 H 0.0741 0.12624 0.61056 0.0
H39 H 0.10455 0.17194 0.58021 0.0
La40 La 1.00505 0.87558 0.75158 0.0
La41 La 0.06232 0.88229 0.80171 0.0
C42 C 0.95543 0.88826 0.71375 0.0
C43 C 0.94828 0.8989 0.67866 0.0
C44 C 0.95884 0.87748 0.65211 0.0
C45 C 0.94809 0.88529 0.61956 0.0
C46 C 0.92668 0.91478 0.61268 0.0
C47 C 0.91767 0.93735 0.63895 0.0
C48 C 0.92823 0.92936 0.67162 0.0
C49 C 0.05532 0.83136 0.74247 0.0
C50 C 0.06011 0.93619 0.74275 0.0
C51 C 0.11355 0.86992 0.83698 0.0
C52 C 0.14408 0.86239 0.85746 0.0
C53 C 0.14523 0.87157 0.89119 0.0
C54 C 0.1741 0.86493 0.91041 0.0
C55 C 0.2027 0.84894 0.89645 0.0
C56 C 0.2013 0.83914 0.86279 0.0
C57 C 0.17237 0.84585 0.84353 0.0
C58 C 1.00824 0.92331 0.81143 0.0
C59 C 1.00719 0.82611 0.81468 0.0
O60 O 0.96872 0.85644 0.71906 0.0
O61 O 0.9683 0.91214 0.73329 0.0
O62 O 1.02492 0.82495 0.73417 0.0
O63 O 0.05731 0.86323 0.75187 0.0
O64 O 0.03182 0.92206 0.73256 0.0
O65 O 0.07773 0.92319 0.76821 0.0
O66 O 0.08644 0.88496 0.84871 0.0
O67 O 0.11169 0.8623 0.80533 0.0
O68 O 0.03813 0.93227 0.82009 0.0
O69 O 1.01001 0.89217 0.80099 0.0
O70 O 0.03925 0.83269 0.81652 0.0
O71 O 0.98716 0.84409 0.79356 0.0
H72 H 0.97448 0.85394 0.65654 0.0
H73 H 0.9557 0.86757 0.59981 0.0
H74 H 0.90096 0.96005 0.63454 0.0
H75 H 0.91966 0.94628 0.69159 0.0
H76 H 0.12383 0.88405 0.90279 0.0
H77 H 0.17395 0.87229 0.93636 0.0
H78 H 0.22282 0.82705 0.85109 0.0
H79 H 0.17228 0.83829 0.81762 0.0
La80 La 0.40832 0.7768 0.05339 0.0
La81 La 0.41388 0.72023 0.99542 0.0
C82 C 0.42084 0.8073 0.10749 0.0
C83 C 0.42966 0.84269 0.11931 0.0
C84 C 0.43904 0.8695 0.09713 0.0
C85 C 0.45097 0.90164 0.10924 0.0
C86 C 0.45367 0.9074 0.14368 0.0
C87 C 0.44362 0.88056 0.16565 0.0
C88 C 0.43176 0.84853 0.15354 0.0
C89 C 0.3655 0.79226 1.00391 0.0
C90 C 0.46127 0.78756 0.99704 0.0
C91 C 0.41352 0.69334 0.93817 0.0
C92 C 0.39159 0.67543 0.91393 0.0
C93 C 0.38879 0.63826 0.9147 0.0
C94 C 0.3715 0.6209 0.88954 0.0
C95 C 0.35663 0.64017 0.86281 0.0
C96 C 0.3589 0.67745 0.86232 0.0
C97 C 0.37622 0.69487 0.88758 0.0
C98 C 0.44413 0.70295 0.05264 0.0
C99 C 0.36224 0.70851 0.04893 0.0
O100 O 0.39062 0.80352 0.0957 0.0
O101 O 0.4433 0.79127 0.08931 0.0
O102 O 0.36958 0.81211 0.02989 0.0
O103 O 0.38625 0.76677 1.00696 0.0
O104 O 0.44553 0.80212 1.0226 0.0
O105 O 0.45424 0.75582 0.98498 0.0
O106 O 0.42258 0.67573 0.96527 0.0
O107 O 0.40727 0.72714 0.9439 0.0
O108 O 0.43468 0.6797 0.03093 0.0
O109 O 0.43986 0.73344 0.03978 0.0
O110 O 0.36699 0.70713 1.01651 0.0
O111 O 0.37868 0.73073 0.06856 0.0
H112 H 0.43781 0.86524 0.07056 0.0
H113 H 0.4582 0.92188 0.09168 0.0
H114 H 0.44588 0.88382 0.19229 0.0
H115 H 0.42508 0.82789 0.17098 0.0
H116 H 0.40079 0.62235 0.93424 0.0
H117 H 0.37083 0.59211 0.89046 0.0
H118 H 0.34755 0.69313 0.84227 0.0
H119 H 0.37826 0.72352 0.88602 0.0
La120 La 0.56259 0.13955 0.2503 0.0
La121 La 0.51232 0.13243 0.30561 0.0
C122 C 0.61239 0.14135 0.21286 0.0
C123 C 0.62077 0.13371 0.17795 0.0
C124 C 0.60223 0.11012 0.15862 0.0
C125 C 0.61282 0.10038 0.12678 0.0
C126 C 0.64206 0.11418 0.11362 0.0
C127 C 0.66013 0.13822 0.13303 0.0
C128 C 0.6496 0.14782 0.16476 0.0
C129 C 0.50349 0.1695 0.23815 0.0
C130 C 0.51288 0.0772 0.24522 0.0
C131 C 0.45842 0.12824 0.33672 0.0
C132 C 0.43231 0.14559 0.35705 0.0
C133 C 0.41822 0.12528 0.38223 0.0
C134 C 0.39135 0.13868 0.40026 0.0
C135 C 0.3778 0.1731 0.39391 0.0
C136 C 0.39203 0.19365 0.3686 0.0
C137 C 0.41902 0.17999 0.35027 0.0
C138 C 0.57224 0.1032 0.31885 0.0
C139 C 0.56171 0.19084 0.31392 0.0
O140 O 0.59299 0.16917 0.21864 0.0
O141 O 0.60466 0.11374 0.23083 0.0
O142 O 0.52207 0.15465 0.21595 0.0
O143 O 0.51906 0.16916 0.2655 0.0
O144 O 0.54016 0.09082 0.23321 0.0
O145 O 0.49835 0.08999 0.27198 0.0
O146 O 0.48772 0.12158 0.35034 0.0
O147 O 0.46021 0.13717 0.30528 0.0
O148 O 0.55195 0.11502 0.34123 0.0
O149 O 0.55704 0.10459 0.29116 0.0
O150 O 0.52995 0.1844 0.31722 0.0
O151 O 0.58024 0.17322 0.29199 0.0
H152 H 0.57994 0.09872 0.16839 0.0
H153 H 0.59813 0.08209 0.11248 0.0
H154 H 0.68305 0.14895 0.12409 0.0
H155 H 0.66451 0.16566 0.17938 0.0
H156 H 0.42755 0.09845 0.3875 0.0
H157 H 0.38076 0.12155 0.41882 0.0
H158 H 0.38247 0.22031 0.36307 0.0
H159 H 0.42921 0.19611 0.33067 0.0
La160 La 0.65282 0.23428 0.56818 0.0
La161 La 0.66898 0.29979 0.52719 0.0
C162 C 0.65162 0.18138 0.60733 0.0
C163 C 0.67123 0.16507 0.63524 0.0
C164 C 0.68425 0.18539 0.66138 0.0
C165 C 0.70079 0.16862 0.68852 0.0
C166 C 0.70484 0.13129 0.68987 0.0
C167 C 0.692 0.11127 0.66343 0.0
C168 C 0.67545 0.12795 0.63652 0.0
C169 C 0.60676 0.28482 0.56618 0.0
C170 C 0.70531 0.29018 0.5942 0.0
C171 C 0.66705 0.35904 0.49681 0.0
C172 C 0.65208 0.38161 0.46974 0.0
C173 C 0.66752 0.38371 0.43873 0.0
C174 C 0.65791 0.41033 0.4157 0.0
C175 C 0.6328 0.43572 0.42319 0.0
C176 C 0.61618 0.43246 0.45349 0.0
C177 C 0.62578 0.40583 0.47653 0.0
C178 C 0.71179 0.24442 0.52371 0.0
C179 C 0.62497 0.23985 0.49469 0.0
O180 O 0.63655 0.21205 0.61281 0.0
O181 O 0.66477 0.18011 0.57782 0.0
O182 O 0.60108 0.25113 0.5664 0.0
O183 O 0.63768 0.28963 0.56869 0.0
O184 O 0.69661 0.25645 0.59346 0.0
O185 O 0.69282 0.31404 0.57312 0.0
O186 O 0.68716 0.33243 0.48917 0.0
O187 O 0.6487 0.35169 0.52241 0.0
O188 O 0.72043 0.27734 0.52041 0.0
O189 O 0.68101 0.24458 0.52608 0.0
O190 O 0.63184 0.27422 0.49553 0.0
O191 O 0.63394 0.21762 0.51945 0.0
H192 H 0.68138 0.21415 0.66101 0.0
H193 H 0.71057 0.18485 0.7083 0.0
H194 H 0.69412 0.08247 0.66381 0.0
H195 H 0.66542 0.11171 0.61685 0.0
H196 H 0.68809 0.36579 0.43279 0.0
H197 H 0.67087 0.41165 0.39236 0.0
H198 H 0.59693 0.45167 0.46025 0.0
H199 H 0.61369 0.40541 0.50038 0.0
La200 La 1.00097 0.38997 0.74699 0.0
La201 La 0.04422 0.37373 0.80734 0.0
C202 C 0.9732 0.39473 0.69078 0.0
C203 C 0.94119 0.38062 0.67941 0.0
C204 C 0.91358 0.38122 0.70039 0.0
C205 C 0.88432 0.36463 0.69093 0.0
C206 C 0.88221 0.34666 0.66053 0.0
C207 C 0.90985 0.34614 0.63954 0.0
C208 C 0.93905 0.36304 0.64889 0.0
C209 C 0.98414 0.42491 0.80138 0.0
C210 C 0.97903 0.32845 0.79394 0.0
C211 C 0.06405 0.36742 0.86675 0.0
C212 C 0.08434 0.38598 0.8916 0.0
C213 C 0.11795 0.39288 0.88626 0.0
C214 C 0.13751 0.40667 0.91181 0.0
C215 C 0.12381 0.41391 0.94306 0.0
C216 C 0.08981 0.40858 0.94779 0.0
C217 C 0.07031 0.39461 0.92231 0.0
C218 C 0.06362 0.34222 0.75246 0.0
C219 C 0.06999 0.42918 0.75813 0.0
O220 O 0.97183 0.42024 0.71277 0.0
O221 O 0.99597 0.37042 0.6985 0.0
O222 O 0.96324 0.41367 0.77929 0.0
O223 O 1.01317 0.41779 0.79173 0.0
O224 O 0.97364 0.34485 0.76515 0.0
O225 O 1.00406 0.33647 0.81388 0.0
O226 O 0.07942 0.35278 0.84161 0.0
O227 O 0.03574 0.38302 0.85791 0.0
O228 O 0.08359 0.35158 0.77628 0.0
O229 O 0.03404 0.34763 0.76164 0.0
O230 O 0.07049 0.41923 0.78971 0.0
O231 O 0.04665 0.41899 0.73677 0.0
H232 H 0.91479 0.39386 0.72445 0.0
H233 H 0.8636 0.36514 0.70779 0.0
H234 H 0.90884 0.33278 0.61582 0.0
H235 H 0.96021 0.36177 0.63259 0.0
H236 H 0.12939 0.38675 0.86273 0.0
H237 H 0.16356 0.41095 0.90736 0.0
H238 H 0.07864 0.41361 0.97166 0.0
H239 H 0.04445 0.38942 0.92698 0.0
La240 La 0.90792 0.77998 0.06123 0.0
La241 La 0.88651 0.71614 1.02149 0.0
C242 C 0.91112 0.8359 0.0955 0.0
C243 C 0.90091 0.84975 0.12822 0.0
C244 C 0.92464 0.86627 0.14821 0.0
C245 C 0.91564 0.88196 0.17822 0.0
C246 C 0.88254 0.88177 0.18894 0.0
C247 C 0.8589 0.86417 0.16939 0.0
C248 C 0.86798 0.84832 0.13927 0.0
C249 C 0.94767 0.72405 0.06616 0.0
C250 C 0.85213 0.72811 0.08871 0.0
C251 C 0.88515 0.65645 0.99298 0.0
C252 C 0.89423 0.63394 0.96431 0.0
C253 C 0.87121 0.60927 0.95314 0.0
C254 C 0.87996 0.58387 0.92942 0.0
C255 C 0.91206 0.58248 0.91597 0.0
C256 C 0.93498 0.60787 0.92666 0.0
C257 C 0.92618 0.63331 0.95066 0.0
C258 C 0.8503 0.77612 1.01284 0.0
C259 C 0.93855 0.76899 0.99041 0.0
O260 O 0.93411 0.81061 0.0958 0.0
O261 O 0.88781 0.83037 0.07328 0.0
O262 O 0.95726 0.75657 0.06633 0.0
O263 O 0.91622 0.72328 0.06562 0.0
O264 O 0.86563 0.7599 0.0896 0.0
O265 O 0.8607 0.70423 0.06644 0.0
O266 O 0.86189 0.68128 0.98904 0.0
O267 O 0.90894 0.66601 1.01329 0.0
O268 O 0.83817 0.74451 1.01054 0.0
O269 O 0.88099 0.7725 1.01695 0.0
O270 O 0.92553 0.73698 0.99005 0.0
O271 O 0.93176 0.7925 1.01409 0.0
H272 H 0.95019 0.86757 0.14032 0.0
H273 H 0.93465 0.89462 0.19291 0.0
H274 H 0.83317 0.86366 0.17678 0.0
H275 H 0.84914 0.83563 0.12439 0.0
H276 H 0.84662 0.6088 0.9637 0.0
H277 H 0.86175 0.56451 0.92248 0.0
H278 H 0.95977 0.608 0.91663 0.0
H279 H 0.94454 0.6519 0.95903 0.0
La280 La 0.55474 0.63308 0.25023 0.0
La281 La 0.50371 0.64384 0.30399 0.0
C282 C 0.58817 0.63062 0.19781 0.0
C283 C 0.62275 0.6386 0.18864 0.0
C284 C 0.64959 0.6153 0.19701 0.0
C285 C 0.68193 0.62324 0.18767 0.0
C286 C 0.68817 0.65466 0.16983 0.0
C287 C 0.66135 0.67805 0.16174 0.0
C288 C 0.62903 0.67002 0.17088 0.0
C289 C 0.56767 0.59767 0.30636 0.0
C290 C 0.56794 0.69204 0.30344 0.0
C291 C 0.47565 0.64615 0.35955 0.0
C292 C 0.46077 0.62281 0.38473 0.0
C293 C 0.42872 0.63134 0.39586 0.0
C294 C 0.4154 0.61276 0.4225 0.0
C295 C 0.4338 0.58507 0.43851 0.0
C296 C 0.46534 0.57541 0.42651 0.0
C297 C 0.47885 0.59435 0.40003 0.0
C298 C 0.48841 0.67623 0.24682 0.0
C299 C 0.48901 0.58742 0.25327 0.0
O300 O 0.58358 0.60285 0.21698 0.0
O301 O 0.56955 0.65805 0.20636 0.0
O302 O 0.59011 0.61048 0.28722 0.0
O303 O 0.5397 0.60319 0.29269 0.0
O304 O 0.57775 0.67812 0.27498 0.0
O305 O 0.54065 0.68205 0.31822 0.0
O306 O 0.45967 0.65047 0.33112 0.0
O307 O 0.50791 0.6435 0.3559 0.0
O308 O 0.46677 0.66669 0.26839 0.0
O309 O 0.51702 0.67196 0.25977 0.0
O310 O 0.48918 0.59326 0.28546 0.0
O311 O 0.5108 0.60281 0.23363 0.0
H312 H 0.64568 0.59084 0.21064 0.0
H313 H 0.70209 0.60474 0.1944 0.0
H314 H 0.66518 0.70214 0.14751 0.0
H315 H 0.60884 0.68834 0.16378 0.0
H316 H 0.41435 0.65326 0.38465 0.0
H317 H 0.3909 0.62055 0.43108 0.0
H318 H 0.48012 0.55435 0.43856 0.0
H319 H 0.50384 0.58749 0.39241 0.0
La320 La 0.24165 0.53142 0.16546 0.0
La321 La 0.28304 0.46692 0.14632 0.0
C322 C 0.20473 0.58667 0.16546 0.0
C323 C 0.17362 0.5977 0.14778 0.0
C324 C 0.14674 0.6114 0.16594 0.0
C325 C 0.11711 0.62227 0.14977 0.0
C326 C 0.11387 0.61988 0.11504 0.0
C327 C 0.14055 0.60535 0.09695 0.0
C328 C 0.17008 0.5942 0.11316 0.0
C329 C 0.23784 0.4771 0.20631 0.0
C330 C 0.21792 0.48073 0.10609 0.0
C331 C 0.31366 0.4074 0.14569 0.0
C332 C 0.33367 0.38201 0.16648 0.0
C333 C 0.32457 0.34627 0.16705 0.0
C334 C 0.34449 0.32046 0.18344 0.0
C335 C 0.37414 0.32978 0.19961 0.0
C336 C 0.3826 0.3659 0.20026 0.0
C337 C 0.36256 0.39183 0.18375 0.0
C338 C 0.28956 0.52455 0.10877 0.0
C339 C 0.31121 0.52045 0.19959 0.0
O340 O 0.20222 0.56052 0.18681 0.0
O341 O 0.23166 0.58341 0.14771 0.0
O342 O 0.23683 0.51021 0.21495 0.0
O343 O 0.23893 0.47508 0.17493 0.0
O344 O 0.21422 0.51116 0.12215 0.0
O345 O 0.24191 0.45738 0.11345 0.0
O346 O 0.32693 0.43737 0.13671 0.0
O347 O 0.2823 0.41156 0.15325 0.0
O348 O 0.29269 0.4923 0.0976 0.0
O349 O 0.28593 0.52277 0.13946 0.0
O350 O 0.31078 0.48713 0.18909 0.0
O351 O 0.28802 0.54455 0.19052 0.0
H352 H 0.14883 0.61409 0.19266 0.0
H353 H 0.09716 0.63376 0.16433 0.0
H354 H 0.13868 0.60297 0.07019 0.0
H355 H 0.19019 0.58318 0.09853 0.0
H356 H 0.30236 0.33809 0.15398 0.0
H357 H 0.33697 0.29301 0.18293 0.0
H358 H 0.40537 0.37391 0.21236 0.0
H359 H 0.37012 0.41927 0.18377 0.0
La360 La 0.75292 0.97252 0.89808 0.0
La361 La 0.79446 0.03233 0.92118 0.0
C362 C 0.71381 0.92156 0.89235 0.0
C363 C 0.68338 0.91 0.90905 0.0
C364 C 0.65501 0.90351 0.88966 0.0
C365 C 0.62571 0.89283 0.90445 0.0
C366 C 0.62409 0.88792 0.93911 0.0
C367 C 0.65248 0.89493 0.95862 0.0
C368 C 0.68179 0.90598 0.94376 0.0
C369 C 0.75517 0.02608 0.85587 0.0
C370 C 0.72668 0.02609 0.95476 0.0
C371 C 0.82778 0.08808 0.92501 0.0
C372 C 0.84798 0.11167 0.90429 0.0
C373 C 0.88129 0.10299 0.89714 0.0
C374 C 0.90105 0.1277 0.88111 0.0
C375 C 0.88794 0.16158 0.87196 0.0
C376 C 0.8543 0.16963 0.87798 0.0
C377 C 0.83462 0.14503 0.89408 0.0
C378 C 0.79603 0.97446 0.96043 0.0
C379 C 0.82494 0.97731 0.87039 0.0
O380 O 0.71072 0.95126 0.87531 0.0
O381 O 0.74192 0.91936 0.90916 0.0
O382 O 0.75473 0.99288 0.84773 0.0
O383 O 0.75296 0.02884 0.88715 0.0
O384 O 0.72477 0.9944 0.94065 0.0
O385 O 0.75059 0.04782 0.94767 0.0
O386 O 0.83981 0.05624 0.93264 0.0
O387 O 0.79594 0.08791 0.91806 0.0
O388 O 0.80082 1.00659 0.97072 0.0
O389 O 0.79479 0.97608 0.92942 0.0
O390 O 0.82343 1.01089 0.88004 0.0
O391 O 0.80101 0.95497 0.87786 0.0
H392 H 0.65548 0.90681 0.8629 0.0
H393 H 0.60424 0.88853 0.88861 0.0
H394 H 0.65233 0.8912 0.98532 0.0
H395 H 0.70314 0.91119 0.95945 0.0
H396 H 0.89239 0.07755 0.90473 0.0
H397 H 0.92681 0.12057 0.87649 0.0
H398 H 0.84355 0.19561 0.87167 0.0
H399 H 0.80915 0.15266 0.89958 0.0
La400 La 0.76433 0.98331 0.41681 0.0
La401 La 0.82126 0.03823 0.40091 0.0
C402 C 0.70966 0.9526 0.41056 0.0
C403 C 0.69805 0.91792 0.39907 0.0
C404 C 0.71943 0.89389 0.3827 0.0
C405 C 0.70698 0.86315 0.36811 0.0
C406 C 0.67295 0.85584 0.36981 0.0
C407 C 0.65186 0.8797 0.38694 0.0
C408 C 0.66431 0.91043 0.40134 0.0
C409 C 0.8191 0.96907 0.45233 0.0
C410 C 0.81322 0.96757 0.35723 0.0
C411 C 0.8785 0.06307 0.39455 0.0
C412 C 0.90294 0.08559 0.41206 0.0
C413 C 0.90139 0.12285 0.40869 0.0
C414 C 0.92597 0.14369 0.42305 0.0
C415 C 0.95289 0.1279 0.44112 0.0
C416 C 0.95448 0.0906 0.44444 0.0
C417 C 0.92984 0.06972 0.43006 0.0
C418 C 0.76008 0.05443 0.37841 0.0
C419 C 0.77496 0.05528 0.45913 0.0
O420 O 0.72676 0.95323 0.43855 0.0
O421 O 0.72266 0.97229 0.38748 0.0
O422 O 0.7929 0.94963 0.45282 0.0
O423 O 0.81325 0.99352 0.43135 0.0
O424 O 0.79028 0.95504 0.37726 0.0
O425 O 0.82647 0.99934 0.36099 0.0
O426 O 0.85127 0.0785 0.38224 0.0
O427 O 0.87285 0.03188 0.40784 0.0
O428 O 0.7825 0.07812 0.38406 0.0
O429 O 0.77391 0.02415 0.38222 0.0
O430 O 0.80575 0.05759 0.4485 0.0
O431 O 0.75425 0.03044 0.44844 0.0
H432 H 0.74557 0.89933 0.38056 0.0
H433 H 0.72394 0.84519 0.35542 0.0
H434 H 0.62547 0.87522 0.38835 0.0
H435 H 0.64734 0.92891 0.41344 0.0
H436 H 0.88147 0.136 0.39448 0.0
H437 H 0.92417 0.17227 0.41939 0.0
H438 H 0.97465 0.07752 0.45833 0.0
H439 H 0.93209 0.04104 0.43272 0.0
La440 La 0.31443 0.47965 0.65857 0.0
La441 La 0.26976 0.54091 0.63678 0.0
C442 C 0.35389 0.42655 0.66354 0.0
C443 C 0.38152 0.41107 0.64434 0.0
C444 C 0.40441 0.43259 0.62817 0.0
C445 C 0.43147 0.41708 0.61161 0.0
C446 C 0.43583 0.37985 0.61068 0.0
C447 C 0.41247 0.35852 0.62644 0.0
C448 C 0.38564 0.374 0.6431 0.0
C449 C 0.31203 0.53281 0.70042 0.0
C450 C 0.33735 0.53388 0.60228 0.0
C451 C 0.23472 0.59759 0.63217 0.0
C452 C 0.21443 0.62198 0.65242 0.0
C453 C 0.21317 0.65823 0.64392 0.0
C454 C 0.19314 0.68218 0.6615 0.0
C455 C 0.17388 0.67031 0.688 0.0
C456 C 0.17591 0.63399 0.6971 0.0
C457 C 0.19611 0.60999 0.67949 0.0
C458 C 0.26824 0.48347 0.59792 0.0
C459 C 0.2445 0.48699 0.69045 0.0
O460 O 0.35909 0.45725 0.67751 0.0
O461 O 0.3242 0.42521 0.65 0.0
O462 O 0.31488 0.49959 0.70889 0.0
O463 O 0.31256 0.53579 0.66909 0.0
O464 O 0.34018 0.50121 0.61486 0.0
O465 O 0.31313 0.55599 0.61064 0.0
O466 O 0.22334 0.56589 0.62642 0.0
O467 O 0.2666 0.59668 0.63874 0.0
O468 O 0.26269 0.51597 0.58768 0.0
O469 O 0.27095 0.48465 0.62889 0.0
O470 O 0.24374 0.52032 0.6796 0.0
O471 O 0.26859 0.46396 0.68235 0.0
H472 H 0.40162 0.46134 0.62862 0.0
H473 H 0.44887 0.43416 0.59947 0.0
H474 H 0.41535 0.32976 0.62657 0.0
H475 H 0.36831 0.35697 0.65546 0.0
H476 H 0.22724 0.66795 0.62315 0.0
H477 H 0.1918 0.70978 0.65347 0.0
H478 H 0.1616 0.62407 0.71759 0.0
H479 H 0.19701 0.58213 0.68667 0.0
H480 H 0.18118 0.35896 0.54578 0.0
H481 H 0.26974 0.29722 0.57203 0.0
H482 H 0.29828 0.35196 0.58643 0.0
H483 H 0.29686 0.41737 0.59396 0.0
H484 H 0.20887 0.47871 0.56553 0.0
H485 H 0.18167 0.42433 0.548 0.0
C486 C 0.20693 0.35746 0.55403 0.0
C487 C 0.22333 0.32401 0.55779 0.0
C488 C 0.2233 0.38905 0.56155 0.0
C489 C 0.25656 0.3226 0.56896 0.0
C490 C 0.27288 0.3539 0.57714 0.0
C491 C 0.27184 0.41874 0.58374 0.0
C492 C 0.25478 0.45189 0.58128 0.0
C493 C 0.25636 0.38726 0.5739 0.0
C494 C 0.2226 0.45353 0.56734 0.0
C495 C 0.20694 0.42239 0.55767 0.0
H496 H 0.8849 1.00918 0.86931 0.0
H497 H 0.83488 0.91563 0.83562 0.0
H498 H 0.88689 0.89235 0.81246 0.0
H499 H 0.94666 0.89725 0.80414 0.0
H500 H 0.99799 0.98842 0.84095 0.0
H501 H 0.94506 1.01434 0.86025 0.0
C502 C 0.8852 0.98386 0.85657 0.0
C503 C 0.85582 0.96422 0.8541 0.0
C504 C 0.91541 0.97024 0.84403 0.0
C505 C 0.85697 0.93128 0.83788 0.0
C506 C 0.88673 0.91796 0.82467 0.0
C507 C 0.94641 0.92284 0.81631 0.0
C508 C 0.97637 0.94081 0.82126 0.0
C509 C 0.91614 0.93699 0.82798 0.0
C510 C 0.97536 0.97405 0.8369 0.0
C511 C 0.94511 0.98878 0.84798 0.0
H512 H 0.33927 0.64941 1.01853 0.0
H513 H 0.34235 0.70208 0.11349 0.0
H514 H 0.31776 0.65034 0.13967 0.0
H515 H 0.30002 0.58859 0.13641 0.0
H516 H 0.30006 0.53446 0.04234 0.0
H517 H 0.31901 0.5886 1.01483 0.0
C518 C 0.33409 0.64998 0.04488 0.0
C519 C 0.34268 0.67979 0.064 0.0
C520 C 0.32093 0.61972 0.05993 0.0
C521 C 0.33598 0.67965 0.09815 0.0
C522 C 0.32207 0.64998 0.11316 0.0
C523 C 0.30378 0.58871 0.1098 0.0
C524 C 0.29871 0.55756 0.09136 0.0
C525 C 0.31517 0.61961 0.09442 0.0
C526 C 0.30391 0.55808 0.057 0.0
C527 C 0.31472 0.58901 0.04134 0.0
H528 H 0.60222 0.06567 0.36944 0.0
H529 H 0.62476 0.12905 0.28381 0.0
H530 H 0.68381 0.12028 0.29444 0.0
H531 H 0.73037 0.09463 0.32891 0.0
H532 H 0.70709 0.03069 0.41432 0.0
H533 H 0.64844 0.04009 0.40368 0.0
C534 C 0.6201 0.07719 0.35289 0.0
C535 C 0.60865 0.09661 0.32476 0.0
C536 C 0.6545 0.07233 0.35959 0.0
C537 C 0.63232 0.11205 0.3042 0.0
C538 C 0.66645 0.10771 0.31083 0.0
C539 C 0.71243 0.08287 0.34523 0.0
C540 C 0.72376 0.06172 0.37236 0.0
C541 C 0.67797 0.08777 0.33844 0.0
C542 C 0.69992 0.0468 0.39314 0.0
C543 C 0.66588 0.05217 0.38704 0.0
H544 H 0.68923 0.178 0.5221 0.0
H545 H 0.77741 0.2373 0.5049 0.0
H546 H 0.80619 0.18246 0.48635 0.0
H547 H 0.80429 0.1187 0.47174 0.0
H548 H 0.71501 0.06079 0.48987 0.0
H549 H 0.68895 0.11422 0.51315 0.0
C550 C 0.71508 0.17895 0.51546 0.0
C551 C 0.73128 0.21167 0.51544 0.0
C552 C 0.7312 0.14754 0.50519 0.0
C553 C 0.76447 0.21244 0.5054 0.0
C554 C 0.78083 0.18109 0.49479 0.0
C555 C 0.77936 0.11743 0.4814 0.0
C556 C 0.76159 0.08555 0.4789 0.0
C557 C 0.76422 0.14856 0.49418 0.0
C558 C 0.72926 0.08476 0.49137 0.0
C559 C 0.71426 0.1154 0.50452 0.0
H560 H 0.13385 0.41674 0.77614 0.0
H561 H 0.07102 0.48113 0.71043 0.0
H562 H 0.12021 0.507 0.68566 0.0
H563 H 0.18083 0.50829 0.68053 0.0
H564 H 0.2435 0.43794 0.74096 0.0
H565 H 0.19453 0.41701 0.77009 0.0
C566 C 0.13099 0.43694 0.7568 0.0
C567 C 0.099 0.4476 0.7454 0.0
C568 C 0.15929 0.45012 0.74159 0.0
C569 C 0.09547 0.47287 0.71968 0.0
C570 C 0.12354 0.48747 0.7055 0.0
C571 C 0.18376 0.48864 0.70035 0.0
C572 C 0.21561 0.47485 0.70896 0.0
C573 C 0.15552 0.47587 0.71593 0.0
C574 C 0.21915 0.44887 0.73406 0.0
C575 C 0.19122 0.43701 0.75068 0.0
H576 H 0.76353 0.91276 0.96913 0.0
H577 H 0.8565 0.96272 0.98942 0.0
H578 H 0.88131 0.90539 1.00752 0.0
H579 H 0.87807 0.84065 1.01195 0.0
H580 H 0.78471 0.78986 0.99529 0.0
H581 H 0.75858 0.84779 0.97995 0.0
C582 C 0.78906 0.91101 0.97788 0.0
C583 C 0.80824 0.94178 0.97788 0.0
C584 C 0.80312 0.87783 0.98816 0.0
C585 C 0.84119 0.93946 0.98964 0.0
C586 C 0.85545 0.90663 0.9996 0.0
C587 C 0.85175 0.84222 1.00599 0.0
C588 C 0.83327 0.81094 1.00522 0.0
C589 C 0.83687 0.87557 0.99823 0.0
C590 C 0.79946 0.8135 0.99621 0.0
C591 C 0.78454 0.84664 0.98752 0.0
H592 H 0.42755 0.59185 0.27708 0.0
H593 H 0.48459 0.54482 0.19806 0.0
H594 H 0.43421 0.51702 0.17619 0.0
H595 H 0.37364 0.50797 0.17914 0.0
H596 H 0.31659 0.56136 0.25463 0.0
H597 H 0.36767 0.58478 0.27891 0.0
C598 C 0.42912 0.57512 0.25528 0.0
C599 C 0.45977 0.56967 0.23948 0.0
C600 C 0.40014 0.56051 0.24246 0.0
C601 C 0.46126 0.54901 0.21069 0.0
C602 C 0.43253 0.5332 0.1983 0.0
C603 C 0.37262 0.52434 0.20121 0.0
C604 C 0.34175 0.53251 0.2157 0.0
C605 C 0.40183 0.5389 0.21397 0.0
C606 C 0.34026 0.55455 0.24352 0.0
C607 C 0.36935 0.56794 0.25722 0.0
H608 H 0.60269 0.16042 0.35937 0.0
H609 H 0.55237 0.25959 0.33354 0.0
H610 H 0.56721 0.28382 0.38812 0.0
H611 H 0.59141 0.27492 0.44448 0.0
H612 H 0.63562 0.17257 0.47175 0.0
H613 H 0.62518 0.15079 0.41569 0.0
C614 C 0.59576 0.18761 0.36539 0.0
C615 C 0.57747 0.20866 0.34221 0.0
C616 C 0.60224 0.20021 0.39749 0.0
C617 C 0.56741 0.24341 0.35072 0.0
C618 C 0.5754 0.25696 0.38207 0.0
C619 C 0.59843 0.24773 0.43822 0.0
C620 C 0.61398 0.22531 0.4624 0.0
C621 C 0.59212 0.23527 0.40594 0.0
C622 C 0.62303 0.19018 0.45388 0.0
C623 C 0.6175 0.17785 0.42167 0.0
H624 H 0.13339 0.33583 0.61312 0.0
H625 H 0.05675 0.26087 0.59362 0.0
H626 H 0.03219 0.27346 0.64793 0.0
H627 H 0.03523 0.30284 0.70305 0.0
H628 H 0.11709 0.37098 0.72422 0.0
H629 H 0.13685 0.36426 0.66767 0.0
C630 C 0.11088 0.32289 0.62055 0.0
C631 C 0.09639 0.2981 0.59926 0.0
C632 C 0.09812 0.32877 0.65245 0.0
C633 C 0.06795 0.28049 0.60952 0.0
C634 C 0.05409 0.28751 0.64063 0.0
C635 C 0.05723 0.31632 0.69506 0.0
C636 C 0.07448 0.33768 0.71769 0.0
C637 C 0.06935 0.3111 0.66265 0.0
C638 C 0.10327 0.35457 0.70727 0.0
C639 C 0.11461 0.35074 0.67487 0.0
H640 H 1.02583 0.834 0.87818 0.0
H641 H 0.95523 0.78049 0.81596 0.0
H642 H 0.92919 0.75571 0.8656 0.0
H643 H 0.92522 0.75203 0.92665 0.0
H644 H 0.99181 0.81186 0.98814 0.0
H645 H 1.02102 0.83168 0.93862 0.0
C646 C 1.00511 0.81635 0.87546 0.0
C647 C 0.99283 0.80826 0.84357 0.0
C648 C 0.98953 0.80378 0.90393 0.0
C649 C 0.96527 0.78653 0.84032 0.0
C650 C 0.9504 0.77258 0.86865 0.0
C651 C 0.94636 0.76914 0.92915 0.0
C652 C 0.95673 0.78027 0.96087 0.0
C653 C 0.96212 0.78138 0.90056 0.0
C654 C 0.98357 0.80301 0.96391 0.0
C655 C 1.00021 0.81424 0.93567 0.0
H656 H 0.51135 0.64872 0.18801 0.0
H657 H 0.44354 0.72752 0.22778 0.0
H658 H 0.42422 0.74354 0.17145 0.0
H659 H 0.4247 0.73284 0.11126 0.0
H660 H 0.49081 0.65267 0.07133 0.0
H661 H 0.51245 0.63877 0.12744 0.0
C662 C 0.49316 0.67009 0.18442 0.0
C663 C 0.47976 0.68773 0.21218 0.0
C664 C 0.48149 0.67841 0.1519 0.0
C665 C 0.4547 0.71402 0.20686 0.0
C666 C 0.44353 0.72304 0.17465 0.0
C667 C 0.44453 0.71318 0.11459 0.0
C668 C 0.45689 0.69473 0.08688 0.0
C669 C 0.45656 0.70522 0.14698 0.0
C670 C 0.48113 0.66757 0.09216 0.0
C671 C 0.49356 0.6597 0.12425 0.0
H672 H 0.21109 0.36362 0.31737 0.0
H673 H 0.13249 0.44083 0.33738 0.0
H674 H 0.14548 0.47363 0.28726 0.0
H675 H 0.18281 0.48456 0.2416 0.0
H676 H 0.26311 0.41018 0.22128 0.0
H677 H 0.24575 0.37184 0.2674 0.0
C678 C 0.19669 0.38748 0.31058 0.0
C679 C 0.17086 0.39971 0.33128 0.0
C680 C 0.20467 0.40676 0.28175 0.0
C681 C 0.15216 0.43043 0.32185 0.0
C682 C 0.15973 0.44945 0.29326 0.0
C683 C 0.19609 0.45954 0.2469 0.0
C684 C 0.22411 0.45003 0.22835 0.0
C685 C 0.18638 0.43837 0.27357 0.0
C686 C 0.24121 0.41769 0.23516 0.0
C687 C 0.23147 0.39607 0.26171 0.0
H688 H 0.91857 0.97575 0.57442 0.0
H689 H 0.89793 0.86365 0.57604 0.0
H690 H 0.86634 0.87015 0.52423 0.0
H691 H 0.83989 0.90824 0.48154 0.0
H692 H 0.85993 0.02016 0.47788 0.0
H693 H 0.89688 1.01322 0.52686 0.0
C694 C 0.90741 0.95276 0.56317 0.0
C695 C 0.91058 0.91924 0.57922 0.0
C696 C 0.88918 0.95666 0.533 0.0
C697 C 0.89621 0.88963 0.56417 0.0
C698 C 0.87795 0.89335 0.53458 0.0
C699 C 0.85293 0.93099 0.49105 0.0
C700 C 0.84715 0.96464 0.4763 0.0
C701 C 0.87372 0.92677 0.51918 0.0
C702 C 0.8642 0.99392 0.4887 0.0
C703 C 0.88503 0.98998 0.51692 0.0
H704 H 0.29524 0.52997 0.76423 0.0
H705 H 0.33753 0.59939 0.69149 0.0
H706 H 0.35272 0.64109 0.73562 0.0
H707 H 0.35976 0.65352 0.79575 0.0
H708 H 0.31624 0.58338 0.86752 0.0
H709 H 0.29582 0.54612 0.82286 0.0
C710 C 0.30735 0.55454 0.758 0.0
C711 C 0.31571 0.5615 0.72488 0.0
C712 C 0.31617 0.57792 0.78338 0.0
C713 C 0.33092 0.59354 0.71691 0.0
C714 C 0.33979 0.61718 0.74216 0.0
C715 C 0.3452 0.63053 0.8016 0.0
C716 C 0.34017 0.62091 0.8351 0.0
C717 C 0.33341 0.60908 0.77564 0.0
C718 C 0.32126 0.59093 0.8421 0.0
C719 C 0.30941 0.56967 0.81655 0.0
H720 H 0.64278 0.04773 0.08509 0.0
H721 H 0.66891 0.15669 0.06641 0.0
H722 H 0.69487 0.13924 1.01459 0.0
H723 H 0.71392 0.09291 0.97668 0.0
H724 H 0.68809 0.98373 0.9938 0.0
H725 H 0.65748 1.00156 0.04351 0.0
C726 C 0.65363 0.06776 0.06941 0.0
C727 C 0.65434 0.10347 0.08014 0.0
C728 C 0.66862 0.05752 0.03931 0.0
C729 C 0.66867 0.12893 0.05937 0.0
C730 C 0.6834 0.11902 0.02956 0.0
C731 C 0.70133 0.07295 0.99104 0.0
C732 C 0.70365 0.03695 0.98165 0.0
C733 C 0.68417 0.08333 1.01966 0.0
C734 C 0.68674 1.01163 1.00038 0.0
C735 C 0.66941 0.02181 1.02897 0.0
H736 H 0.69932 0.14507 0.75678 0.0
H737 H 0.74946 0.0756 0.68753 0.0
H738 H 0.77203 0.03935 0.73337 0.0
H739 H 0.77311 0.02368 0.79232 0.0
H740 H 0.7241 0.09202 0.86283 0.0
H741 H 0.70625 0.13295 0.81752 0.0
C742 C 0.71568 0.1224 0.75177 0.0
C743 C 0.72202 0.11268 0.71856 0.0
C744 C 0.72871 0.10141 0.77848 0.0
C745 C 0.74337 0.0832 0.71267 0.0
C746 C 0.75647 0.0625 0.73891 0.0
C747 C 0.75894 0.04786 0.79785 0.0
C748 C 0.74957 0.05468 0.83072 0.0
C749 C 0.74856 0.07076 0.77177 0.0
C750 C 0.73159 0.08624 0.83767 0.0
C751 C 0.72119 0.10945 0.81171 0.0
H752 H 0.22831 0.43099 0.05911 0.0
H753 H 0.15844 0.51388 0.08812 0.0
H754 H 0.12318 0.50104 0.03975 0.0
H755 H 0.1123 0.46567 0.98923 0.0
H756 H 0.1836 0.38392 0.96085 0.0
H757 H 0.21843 0.39727 1.00889 0.0
C758 C 0.20526 0.44619 0.0551 0.0
C759 C 0.19585 0.47308 0.07745 0.0
C760 C 0.18552 0.43904 1.02717 0.0
C761 C 0.16618 0.49288 0.07141 0.0
C762 C 0.14605 0.48558 0.04374 0.0
C763 C 0.13548 0.45086 0.99364 0.0
C764 C 0.14543 0.42395 0.97142 0.0
C765 C 0.15548 0.45866 1.02146 0.0
C766 C 0.17564 0.40512 0.97725 0.0
C767 C 0.19545 0.41253 1.00486 0.0
H768 H 0.85694 0.98532 0.30936 0.0
H769 H 0.79245 0.90124 0.33898 0.0
H770 H 0.80797 0.86728 0.28979 0.0
H771 H 0.83977 0.86162 0.23781 0.0
H772 H 0.90303 0.94692 0.20854 0.0
H773 H 0.88821 0.97988 0.25819 0.0
C774 C 0.84627 0.95951 0.30527 0.0
C775 C 0.82349 0.94601 0.32805 0.0
C776 C 0.85515 0.94019 0.27687 0.0
C777 C 0.81003 0.91245 0.32202 0.0
C778 C 0.81887 0.89296 0.2938 0.0
C779 C 0.85015 0.8875 0.24222 0.0
C780 C 0.87275 0.90153 0.21946 0.0
C781 C 0.84132 0.90664 0.27092 0.0
C782 C 0.88612 0.93505 0.22581 0.0
C783 C 0.87749 0.9541 0.25415 0.0
H784 H 0.37183 0.49547 0.55533 0.0
H785 H 0.3543 0.60186 0.59217 0.0
H786 H 0.38394 0.62661 0.54566 0.0
H787 H 0.41053 0.61906 0.49222 0.0
H788 H 0.42873 0.51389 0.45355 0.0
H789 H 0.40351 0.48762 0.50295 0.0
C790 C 0.37513 0.52395 0.55341 0.0
C791 C 0.36054 0.5468 0.57699 0.0
C792 C 0.39193 0.5383 0.52603 0.0
C793 C 0.36491 0.5837 0.57416 0.0
C794 C 0.38182 0.59796 0.54752 0.0
C795 C 0.40898 0.59036 0.49463 0.0
C796 C 0.42085 0.56845 0.46911 0.0
C797 C 0.39457 0.57566 0.52288 0.0
C798 C 0.4195 0.53129 0.47286 0.0
C799 C 0.40505 0.51631 0.50106 0.0
H800 H 0.2642 0.2062 0.49694 0.0
H801 H 0.21977 0.26263 0.41303 0.0
H802 H 0.26843 0.24686 0.37943 0.0
H803 H 0.3232 0.21491 0.3737 0.0
H804 H 0.36782 0.16274 0.46015 0.0
H805 H 0.31952 0.17887 0.49268 0.0
C806 C 0.26496 0.21494 0.47121 0.0
C807 C 0.23803 0.23501 0.45737 0.0
C808 C 0.29317 0.20645 0.45241 0.0
C809 C 0.23999 0.24688 0.42425 0.0
C810 C 0.26785 0.23787 0.40505 0.0
C811 C 0.32258 0.20747 0.39975 0.0
C812 C 0.34912 0.18678 0.41404 0.0
C813 C 0.29461 0.21745 0.41883 0.0
C814 C 0.34759 0.17759 0.44797 0.0
C815 C 0.31996 0.18702 0.46679 0.0
H816 H 0.13466 0.06956 0.68897 0.0
H817 H 0.06254 0.06182 0.60922 0.0
H818 H 0.03704 1.01192 0.63788 0.0
H819 H 0.03737 0.96822 0.68456 0.0
H820 H 0.11198 0.97604 0.76237 0.0
H821 H 0.1346 0.0275 0.7351 0.0
C822 C 0.11349 0.05686 0.67766 0.0
C823 C 0.10083 0.06921 0.64679 0.0
C824 C 0.09953 0.02783 0.69381 0.0
C825 C 0.07275 0.05301 0.63305 0.0
C826 C 0.05832 0.02426 0.64931 0.0
C827 C 0.05854 0.98122 0.69554 0.0
C828 C 0.07302 0.96786 0.72541 0.0
C829 C 0.07182 1.01107 0.67953 0.0
C830 C 0.10039 0.98526 0.73929 0.0
C831 C 0.11339 1.01491 0.72377 0.0
H832 H 0.24731 0.79167 0.89769 0.0
H833 H 0.22901 0.89507 0.94092 0.0
H834 H 0.27827 0.88702 0.97625 0.0
H835 H 0.32545 0.85028 0.99658 0.0
H836 H 0.34468 0.74664 0.95486 0.0
H837 H 0.29685 0.75541 0.91677 0.0
C838 C 0.25428 0.81258 0.9146 0.0
C839 C 0.23397 0.8438 0.91682 0.0
C840 C 0.28299 0.80783 0.93503 0.0
C841 C 0.24351 0.87046 0.93909 0.0
C842 C 0.27191 0.86601 0.9592 0.0
C843 C 0.3194 0.82969 0.97892 0.0
C844 C 0.33879 0.79796 0.97838 0.0
C845 C 0.29161 0.83472 0.95765 0.0
C846 C 0.33051 0.77152 0.95546 0.0
C847 C 0.30294 0.77646 0.93388 0.0
H848 H 0.53345 0.042 0.18932 0.0
H849 H 0.45775 0.04259 0.26433 0.0
H850 H 0.43232 0.99163 0.23875 0.0
H851 H 0.43159 0.94615 0.19592 0.0
H852 H 0.50736 0.94356 0.12132 0.0
H853 H 0.53214 0.99634 0.14545 0.0
C854 C 0.51141 0.03098 0.20006 0.0
C855 C 0.49777 0.04616 0.22888 0.0
C856 C 0.49668 1.00137 0.18519 0.0
C857 C 0.46903 0.03155 0.24229 0.0
C858 C 0.45432 1.00232 0.22765 0.0
C859 C 0.45365 0.95697 0.18501 0.0
C860 C 0.46765 0.94075 0.15697 0.0
C861 C 0.46801 0.98691 0.19926 0.0
C862 C 0.49584 0.95567 0.14274 0.0
C863 C 0.5102 0.98571 0.15669 0.0
H864 H 0.81892 0.37294 0.66451 0.0
H865 H 0.87598 0.2802 0.63434 0.0
H866 H 0.82508 0.25195 0.61551 0.0
H867 H 0.76475 0.25579 0.60345 0.0
H868 H 0.70884 0.35055 0.63001 0.0
H869 H 0.75856 0.37543 0.65536 0.0
C870 C 0.82014 0.34633 0.65427 0.0
C871 C 0.85117 0.32877 0.65066 0.0
C872 C 0.79088 0.33052 0.64308 0.0
C873 C 0.85242 0.29447 0.63694 0.0
C874 C 0.82331 0.27822 0.62636 0.0
C875 C 0.76339 0.28141 0.61568 0.0
C876 C 0.73325 0.3012 0.61537 0.0
C877 C 0.79244 0.29622 0.62881 0.0
C878 C 0.73182 0.3348 0.63034 0.0
C879 C 0.76026 0.34912 0.64456 0.0
H880 H 0.9251 0.46058 0.80841 0.0
H881 H 1.02494 0.45324 0.84863 0.0
H882 H 1.01177 0.50113 0.88759 0.0
H883 H 0.97168 0.54542 0.91016 0.0
H884 H 0.87324 0.55536 0.86628 0.0
H885 H 0.88613 0.50641 0.829 0.0
C886 C 0.94394 0.4693 0.82584 0.0
C887 C 0.97582 0.45295 0.82593 0.0
C888 C 0.93647 0.49758 0.84748 0.0
C889 C 1.00006 0.46498 0.84835 0.0
C890 C 0.99259 0.49256 0.87051 0.0
C891 C 0.95315 0.53727 0.89217 0.0
C892 C 0.92132 0.55409 0.89154 0.0
C893 C 0.96089 0.50922 0.87021 0.0
C894 C 0.89767 0.54263 0.86809 0.0
C895 C 0.90506 0.51464 0.84652 0.0
H896 H 0.82675 0.66317 0.10015 0.0
H897 H 0.81505 0.77364 0.12738 0.0
H898 H 0.76411 0.76025 0.1569 0.0
H899 H 0.72029 0.7179 0.17064 0.0
H900 H 0.73222 0.60795 0.14175 0.0
H901 H 0.78577 0.62042 0.11742 0.0
C902 C 0.81332 0.68435 0.11282 0.0
C903 C 0.82457 0.71947 0.1112 0.0
C904 C 0.78389 0.67657 0.12926 0.0
C905 C 0.807 0.74639 0.12817 0.0
C906 C 0.77772 0.73878 0.14488 0.0
C907 C 0.7347 0.69668 0.15911 0.0
C908 C 0.72211 0.66206 0.15787 0.0
C909 C 0.76548 0.70412 0.14484 0.0
C910 C 0.74136 0.63473 0.14333 0.0
C911 C 0.77193 0.64189 0.12921 0.0
H912 H 0.57237 0.46666 0.40606 0.0
H913 H 0.67757 0.4755 0.39004 0.0
H914 H 0.66694 0.52713 0.35396 0.0
H915 H 0.62783 0.56972 0.32634 0.0
H916 H 0.52263 0.56026 0.34103 0.0
H917 H 0.53319 0.50984 0.3789 0.0
C918 C 0.59298 0.48 0.39484 0.0
C919 C 0.62572 0.46687 0.40063 0.0
C920 C 0.58671 0.50992 0.37411 0.0
C921 C 0.65207 0.48443 0.38556 0.0
C922 C 0.64605 0.51424 0.36512 0.0
C923 C 0.60726 0.55679 0.33806 0.0
C924 C 0.57451 0.56895 0.33117 0.0
C925 C 0.6135 0.52719 0.35915 0.0
C926 C 0.54809 0.55169 0.34628 0.0
C927 C 0.55411 0.52266 0.36774 0.0
H928 H 0.39172 0.267 0.1713 0.0
H929 H 0.40851 0.32929 0.25917 0.0
H930 H 0.44798 0.28348 0.2806 0.0
H931 H 0.47988 0.22686 0.2728 0.0
H932 H 0.46417 0.16668 0.18342 0.0
H933 H 0.42145 0.21001 0.16455 0.0
C934 C 0.40358 0.27035 0.19541 0.0
C935 C 0.39708 0.3015 0.21364 0.0
C936 C 0.4264 0.24416 0.20733 0.0
C937 C 0.41327 0.3057 0.24451 0.0
C938 C 0.43572 0.27944 0.25683 0.0
C939 C 0.46672 0.22307 0.24944 0.0
C940 C 0.47511 0.1937 0.22944 0.0
C941 C 0.44278 0.24871 0.23827 0.0
C942 C 0.45814 0.18917 0.19913 0.0
C943 C 0.43381 0.21397 0.18829 0.0
H944 H 0.99281 0.27831 0.84127 0.0
H945 H 0.91836 0.31061 0.76791 0.0
H946 H 0.88401 0.26098 0.78467 0.0
H947 H 0.87478 0.20901 0.82114 0.0
H948 H 0.95003 0.17737 0.89391 0.0
H949 H 0.98464 0.22584 0.87593 0.0
C950 C 0.96902 0.27467 0.82894 0.0
C951 C 0.95804 0.2984 0.80359 0.0
C952 C 0.94965 0.24598 0.83842 0.0
C953 C 0.92737 0.29282 0.78759 0.0
C954 C 0.90772 0.26444 0.79715 0.0
C955 C 0.89877 0.21275 0.83301 0.0
C956 C 0.90978 0.18951 0.85882 0.0
C957 C 0.91855 0.24094 0.82268 0.0
C958 C 0.94112 0.19446 0.87368 0.0
C959 C 0.96083 0.2224 0.86362 0.0
H960 H 0.04816 0.61178 0.12965 0.0
H961 H 0.11297 0.66414 0.06148 0.0
H962 H 0.06564 0.69712 0.03691 0.0
H963 H 1.00741 0.71676 0.03956 0.0
H964 H 0.94147 0.66565 0.107 0.0
H965 H 0.9874 0.62594 0.12677 0.0
C966 C 0.05175 0.63011 0.10915 0.0
C967 C 0.0841 0.63574 0.0976 0.0
C968 C 1.02427 0.64918 0.0951 0.0
C969 C 0.08839 0.65917 0.07072 0.0
C970 C 0.06134 0.6782 0.05676 0.0
C971 C 1.00297 0.69626 0.058 0.0
C972 C 0.9714 0.69407 0.07203 0.0
C973 C 0.02942 0.67416 0.06937 0.0
C974 C 0.96563 0.6675 0.09575 0.0
C975 C 0.99197 0.64516 0.10728 0.0
H976 H 0.62753 0.81109 0.39439 0.0
H977 H 0.68719 0.82889 0.30814 0.0
H978 H 0.66142 0.77881 0.28007 0.0
H979 H 0.61939 0.73148 0.27913 0.0
H980 H 0.55976 0.71603 0.3662 0.0
H981 H 0.58771 0.76361 0.39432 0.0
C982 C 0.63484 0.80416 0.36938 0.0
C983 C 0.65907 0.82396 0.35337 0.0
C984 C 0.61969 0.77572 0.3533 0.0
C985 C 0.66874 0.81399 0.3212 0.0
C986 C 0.65383 0.78547 0.30502 0.0
C987 C 0.61268 0.73843 0.30429 0.0
C988 C 0.58714 0.72023 0.32019 0.0
C989 C 0.62892 0.76633 0.32068 0.0
C990 C 0.57893 0.72964 0.35294 0.0
C991 C 0.59499 0.75692 0.36926 0.0
H992 H 0.54335 0.27765 0.54812 0.0
H993 H 0.60975 0.35188 0.59307 0.0
H994 H 0.56204 0.39042 0.6082 0.0
H995 H 0.50101 0.39856 0.61452 0.0
H996 H 0.43577 0.3228 0.5696 0.0
H997 H 0.48351 0.28916 0.54859 0.0
C998 C 0.5474 0.30256 0.56082 0.0
C999 C 0.5798 0.31179 0.56994 0.0
C1000 C 0.52003 0.32397 0.56979 0.0
C1001 C 0.58492 0.34428 0.58591 0.0
C1002 C 0.55764 0.36611 0.59473 0.0
C1003 C 0.49728 0.3751 0.59956 0.0
C1004 C 0.46488 0.36282 0.59414 0.0
C1005 C 0.525 0.35562 0.5877 0.0
C1006 C 0.46044 0.33234 0.57475 0.0
C1007 C 0.48772 0.31317 0.56262 0.0
H1008 H 0.18307 0.73941 0.70652 0.0
H1009 H 0.11004 0.65744 0.70468 0.0
H1010 H 0.06789 0.69976 0.72412 0.0
H1011 H 0.05042 0.76089 0.73653 0.0
H1012 H 0.12204 0.84397 0.73764 0.0
H1013 H 0.16621 0.80042 0.72357 0.0
C1014 C 0.15796 0.7308 0.71056 0.0
C1015 C 0.14973 0.69528 0.70393 0.0
C1016 C 0.13359 0.75552 0.72131 0.0
C1017 C 0.11722 0.68442 0.70986 0.0
C1018 C 0.09298 0.70871 0.72069 0.0
C1019 C 0.07578 0.76942 0.73394 0.0
C1020 C 0.08304 0.80551 0.73772 0.0
C1021 C 0.10071 0.74442 0.72572 0.0
C1022 C 0.11596 0.81625 0.7348 0.0
C1023 C 0.14111 0.79139 0.72662 0.0
H1024 H 0.49883 0.84173 1.02215 0.0
H1025 H 0.48686 0.77474 0.93629 0.0
H1026 H 0.53542 0.79988 0.91125 0.0
H1027 H 0.5829 0.8382 0.91435 0.0
H1028 H 0.59577 0.90686 0.9987 0.0
H1029 H 0.54586 0.88325 1.02379 0.0
C1030 C 0.50667 0.83296 0.99782 0.0
C1031 C 0.48921 0.80611 0.98136 0.0
C1032 C 0.53512 0.84745 0.98337 0.0
C1033 C 0.49988 0.79502 0.94984 0.0
C1034 C 0.52774 0.8094 0.93537 0.0
C1035 C 0.5746 0.8486 0.93796 0.0
C1036 C 0.59323 0.8744 0.95444 0.0
C1037 C 0.54578 0.83524 0.95205 0.0
C1038 C 0.58228 0.88669 0.98551 0.0
C1039 C 0.55355 0.87337 0.99981 0.0
H1040 H 1.02086 0.11593 0.44427 0.0
H1041 H 0.94344 0.191 0.47291 0.0
H1042 H 0.98499 0.23125 0.49379 0.0
H1043 H 0.04283 0.24715 0.50089 0.0
H1044 H 0.12149 0.17343 0.47365 0.0
H1045 H 0.07998 0.13019 0.45607 0.0
C1046 C 1.01307 0.14086 0.45551 0.0
C1047 C 0.97888 0.1506 0.45637 0.0
C1048 C 0.03731 0.16411 0.46773 0.0
C1049 C 0.96942 0.18311 0.47103 0.0
C1050 C 0.9932 0.20612 0.48323 0.0
C1051 C 0.05098 0.22148 0.49133 0.0
C1052 C 0.08514 0.21362 0.48815 0.0
C1053 C 1.02712 0.19721 0.48113 0.0
C1054 C 0.09531 0.1801 0.47623 0.0
C1055 C 0.07156 0.15552 0.46604 0.0
loop_
_geom_bond_atom_site_label_1
_geom_bond_atom_site_label_2
_geom_bond_distance
_geom_bond_site_symmetry_2
_ccdc_geom_bond_type
La0 C2 2.928 . S
La0 O20 2.521 . S
La0 O21 2.628 . S
La0 O22 2.554 . S
La0 O23 2.757 . S
La0 O24 2.470 . S
La0 O29 2.482 . S
La0 O31 2.503 . S
La1 C11 2.928 . S
La1 O23 2.482 . S
La1 O25 2.503 . S
La1 O26 2.521 . S
La1 O27 2.628 . S
La1 O28 2.554 . S
La1 O29 2.757 . S
La1 O30 2.470 . S
C2 La0 2.928 . S
C2 C3 1.503 . S
C2 O20 1.261 . S
C2 O21 1.243 . S
C3 C2 1.503 . S
C3 C4 1.394 . S
C3 C8 1.373 . S
C4 C3 1.394 . S
C4 C5 1.380 . S
C4 H32 0.930 . S
C5 C4 1.380 . S
C5 C6 1.376 . S
C5 H33 0.930 . S
C6 C5 1.376 . S
C6 C7 1.370 . S
C7 C6 1.370 . S
C7 C8 1.396 . S
C7 H34 0.929 . S
C8 C3 1.373 . S
C8 C7 1.396 . S
C8 H35 0.929 . S
C9 O22 1.240 . S
C9 O23 1.289 . S
C10 O24 1.258 . S
C10 O25 1.256 . S
C11 La1 2.928 . S
C11 C12 1.503 . S
C11 O26 1.261 . S
C11 O27 1.243 . S
C12 C11 1.503 . S
C12 C13 1.394 . S
C12 C17 1.373 . S
C13 C12 1.394 . S
C13 C14 1.380 . S
C13 H36 0.930 . S
C14 C13 1.380 . S
C14 C15 1.376 . S
C14 H37 0.930 . S
C15 C14 1.376 . S
C15 C16 1.370 . S
C16 C15 1.370 . S
C16 C17 1.396 . S
C16 H38 0.929 . S
C17 C12 1.373 . S
C17 C16 1.396 . S
C17 H39 0.929 . S
C18 O28 1.240 . S
C18 O29 1.289 . S
C19 O30 1.258 . S
C19 O31 1.256 . S
O20 La0 2.521 . S
O20 C2 1.261 . S
O21 La0 2.628 . S
O21 C2 1.243 . S
O22 La0 2.554 . S
O22 C9 1.240 . S
O23 La0 2.757 . S
O23 La1 2.482 . S
O23 C9 1.289 . S
O24 La0 2.470 . S
O24 C10 1.258 . S
O25 La1 2.503 . S
O25 C10 1.256 . S
O26 La1 2.521 . S
O26 C11 1.261 . S
O27 La1 2.628 . S
O27 C11 1.243 . S
O28 La1 2.554 . S
O28 C18 1.240 . S
O29 La0 2.482 . S
O29 La1 2.757 . S
O29 C18 1.289 . S
O30 La1 2.470 . S
O30 C19 1.258 . S
O31 La0 2.503 . S
O31 C19 1.256 . S
H32 C4 0.930 . S
H33 C5 0.930 . S
H34 C7 0.929 . S
H35 C8 0.929 . S
H36 C13 0.930 . S
H37 C14 0.930 . S
H38 C16 0.929 . S
H39 C17 0.929 . S
La40 C42 2.928 . S
La40 O60 2.521 . S
La40 O61 2.628 . S
La40 O62 2.554 1_655 S
La40 O63 2.757 1_655 S
La40 O64 2.470 1_655 S
La40 O69 2.482 . S
La40 O71 2.503 . S
La41 C51 2.928 . S
La41 O63 2.482 . S
La41 O65 2.503 . S
La41 O66 2.521 . S
La41 O67 2.628 . S
La41 O68 2.554 1_455 S
La41 O69 2.757 1_455 S
La41 O70 2.472 . S
C42 La40 2.928 . S
C42 C43 1.503 . S
C42 O60 1.261 . S
C42 O61 1.243 . S
C43 C42 1.503 . S
C43 C44 1.394 . S
C43 C48 1.373 . S
C44 C43 1.394 . S
C44 C45 1.380 . S
C44 H72 0.930 . S
C45 C44 1.380 . S
C45 C46 1.376 . S
C45 H73 0.930 . S
C46 C45 1.376 . S
C46 C47 1.370 . S
C47 C46 1.370 . S
C47 C48 1.396 . S
C47 H74 0.929 . S
C48 C43 1.373 . S
C48 C47 1.396 . S
C48 H75 0.929 . S
C49 O62 1.240 . S
C49 O63 1.289 . S
C50 O64 1.258 . S
C50 O65 1.256 . S
C51 La41 2.928 . S
C51 C52 1.503 . S
C51 O66 1.261 . S
C51 O67 1.243 . S
C52 C51 1.503 . S
C52 C53 1.394 . S
C52 C57 1.373 . S
C53 C52 1.394 . S
C53 C54 1.380 . S
C53 H76 0.930 . S
C54 C53 1.380 . S
C54 C55 1.376 . S
C54 H77 0.930 . S
C55 C54 1.376 . S
C55 C56 1.370 . S
C56 C55 1.370 . S
C56 C57 1.396 . S
C56 H78 0.929 . S
C57 C52 1.373 . S
C57 C56 1.396 . S
C57 H79 0.929 . S
C58 O68 1.240 . S
C58 O69 1.289 . S
C59 O70 1.256 1_655 S
C59 O71 1.256 . S
O60 La40 2.521 . S
O60 C42 1.261 . S
O61 La40 2.628 . S
O61 C42 1.243 . S
O62 La40 2.554 1_455 S
O62 C49 1.240 . S
O63 La40 2.757 1_455 S
O63 La41 2.482 . S
O63 C49 1.289 . S
O64 La40 2.470 1_455 S
O64 C50 1.258 . S
O65 La41 2.503 . S
O65 C50 1.256 . S
O66 La41 2.521 . S
O66 C51 1.261 . S
O67 La41 2.628 . S
O67 C51 1.243 . S
O68 La41 2.554 1_655 S
O68 C58 1.240 . S
O69 La40 2.482 . S
O69 La41 2.757 1_655 S
O69 C58 1.289 . S
O70 La41 2.472 . S
O70 C59 1.256 1_455 S
O71 La40 2.503 . S
O71 C59 1.256 . S
H72 C44 0.930 . S
H73 C45 0.930 . S
H74 C47 0.929 . S
H75 C48 0.929 . S
H76 C53 0.930 . S
H77 C54 0.930 . S
H78 C56 0.929 . S
H79 C57 0.929 . S
La80 C82 2.928 . S
La80 O100 2.521 . S
La80 O101 2.628 . S
La80 O102 2.554 1_554 S
La80 O103 2.757 1_554 S
La80 O104 2.470 1_554 S
La80 O109 2.482 . S
La80 O111 2.503 . S
La81 C91 2.928 . S
La81 O103 2.482 . S
La81 O105 2.503 . S
La81 O106 2.521 . S
La81 O107 2.628 . S
La81 O108 2.554 1_556 S
La81 O109 2.757 1_556 S
La81 O110 2.470 . S
C82 La80 2.928 . S
C82 C83 1.503 . S
C82 O100 1.261 . S
C82 O101 1.243 . S
C83 C82 1.503 . S
C83 C84 1.394 . S
C83 C88 1.373 . S
C84 C83 1.394 . S
C84 C85 1.380 . S
C84 H112 0.930 . S
C85 C84 1.380 . S
C85 C86 1.376 . S
C85 H113 0.930 . S
C86 C85 1.376 . S
C86 C87 1.370 . S
C87 C86 1.370 . S
C87 C88 1.396 . S
C87 H114 0.929 . S
C88 C83 1.373 . S
C88 C87 1.396 . S
C88 H115 0.929 . S
C89 O102 1.240 . S
C89 O103 1.289 . S
C90 O104 1.258 . S
C90 O105 1.256 . S
C91 La81 2.928 . S
C91 C92 1.503 . S
C91 O106 1.261 . S
C91 O107 1.243 . S
C92 C91 1.503 . S
C92 C93 1.394 . S
C92 C97 1.373 . S
C93 C92 1.394 . S
C93 C94 1.380 . S
C93 H116 0.930 . S
C94 C93 1.380 . S
C94 C95 1.376 . S
C94 H117 0.930 . S
C95 C94 1.376 . S
C95 C96 1.370 . S
C96 C95 1.370 . S
C96 C97 1.396 . S
C96 H118 0.929 . S
C97 C92 1.373 . S
C97 C96 1.396 . S
C97 H119 0.929 . S
C98 O108 1.240 . S
C98 O109 1.289 . S
C99 O110 1.258 1_554 S
C99 O111 1.256 . S
O100 La80 2.521 . S
O100 C82 1.261 . S
O101 La80 2.628 . S
O101 C82 1.243 . S
O102 La80 2.554 1_556 S
O102 C89 1.240 . S
O103 La80 2.757 1_556 S
O103 La81 2.482 . S
O103 C89 1.289 . S
O104 La80 2.470 1_556 S
O104 C90 1.258 . S
O105 La81 2.503 . S
O105 C90 1.256 . S
O106 La81 2.521 . S
O106 C91 1.261 . S
O107 La81 2.628 . S
O107 C91 1.243 . S
O108 La81 2.554 1_554 S
O108 C98 1.240 . S
O109 La80 2.482 . S
O109 La81 2.757 1_554 S
O109 C98 1.289 . S
O110 La81 2.470 . S
O110 C99 1.258 1_556 S
O111 La80 2.503 . S
O111 C99 1.256 . S
H112 C84 0.930 . S
H113 C85 0.930 . S
H114 C87 0.929 . S
H115 C88 0.929 . S
H116 C93 0.930 . S
H117 C94 0.930 . S
H118 C96 0.929 . S
H119 C97 0.929 . S
La120 C122 2.928 . S
La120 O140 2.521 . S
La120 O141 2.628 . S
La120 O142 2.554 . S
La120 O143 2.757 . S
La120 O144 2.470 . S
La120 O149 2.482 . S
La120 O151 2.503 . S
La121 C131 2.928 . S
La121 O143 2.482 . S
La121 O145 2.503 . S
La121 O146 2.521 . S
La121 O147 2.628 . S
La121 O148 2.554 . S
La121 O149 2.757 . S
La121 O150 2.470 . S
C122 La120 2.928 . S
C122 C123 1.503 . S
C122 O140 1.261 . S
C122 O141 1.243 . S
C123 C122 1.503 . S
C123 C124 1.394 . S
C123 C128 1.373 . S
C124 C123 1.394 . S
C124 C125 1.380 . S
C124 H152 0.930 . S
C125 C124 1.380 . S
C125 C126 1.376 . S
C125 H153 0.930 . S
C126 C125 1.376 . S
C126 C127 1.370 . S
C127 C126 1.370 . S
C127 C128 1.396 . S
C127 H154 0.929 . S
C128 C123 1.373 . S
C128 C127 1.396 . S
C128 H155 0.929 . S
C129 O142 1.240 . S
C129 O143 1.289 . S
C130 O144 1.258 . S
C130 O145 1.256 . S
C131 La121 2.928 . S
C131 C132 1.503 . S
C131 O146 1.261 . S
C131 O147 1.243 . S
C132 C131 1.503 . S
C132 C133 1.394 . S
C132 C137 1.373 . S
C133 C132 1.394 . S
C133 C134 1.380 . S
C133 H156 0.930 . S
C134 C133 1.380 . S
C134 C135 1.376 . S
C134 H157 0.930 . S
C135 C134 1.376 . S
C135 C136 1.370 . S
C136 C135 1.370 . S
C136 C137 1.396 . S
C136 H158 0.929 . S
C137 C132 1.373 . S
C137 C136 1.396 . S
C137 H159 0.929 . S
C138 O148 1.240 . S
C138 O149 1.289 . S
C139 O150 1.258 . S
C139 O151 1.256 . S
O140 La120 2.521 . S
O140 C122 1.261 . S
O141 La120 2.628 . S
O141 C122 1.243 . S
O142 La120 2.554 . S
O142 C129 1.240 . S
O143 La120 2.757 . S
O143 La121 2.482 . S
O143 C129 1.289 . S
O144 La120 2.470 . S
O144 C130 1.258 . S
O145 La121 2.503 . S
O145 C130 1.256 . S
O146 La121 2.521 . S
O146 C131 1.261 . S
O147 La121 2.628 . S
O147 C131 1.243 . S
O148 La121 2.554 . S
O148 C138 1.240 . S
O149 La120 2.482 . S
O149 La121 2.757 . S
O149 C138 1.289 . S
O150 La121 2.470 . S
O150 C139 1.258 . S
O151 La120 2.503 . S
O151 C139 1.256 . S
H152 C124 0.930 . S
H153 C125 0.930 . S
H154 C127 0.929 . S
H155 C128 0.929 . S
H156 C133 0.930 . S
H157 C134 0.930 . S
H158 C136 0.929 . S
H159 C137 0.929 . S
La160 C162 2.928 . S
La160 O180 2.521 . S
La160 O181 2.628 . S
La160 O182 2.554 . S
La160 O183 2.757 . S
La160 O184 2.470 . S
La160 O189 2.482 . S
La160 O191 2.503 . S
La161 C171 2.928 . S
La161 O183 2.482 . S
La161 O185 2.503 . S
La161 O186 2.521 . S
La161 O187 2.628 . S
La161 O188 2.554 . S
La161 O189 2.757 . S
La161 O190 2.470 . S
C162 La160 2.928 . S
C162 C163 1.503 . S
C162 O180 1.261 . S
C162 O181 1.243 . S
C163 C162 1.503 . S
C163 C164 1.394 . S
C163 C168 1.373 . S
C164 C163 1.394 . S
C164 C165 1.380 . S
C164 H192 0.930 . S
C165 C164 1.380 . S
C165 C166 1.376 . S
C165 H193 0.930 . S
C166 C165 1.376 . S
C166 C167 1.370 . S
C167 C166 1.370 . S
C167 C168 1.396 . S
C167 H194 0.929 . S
C168 C163 1.373 . S
C168 C167 1.396 . S
C168 H195 0.929 . S
C169 O182 1.240 . S
C169 O183 1.289 . S
C170 O184 1.258 . S
C170 O185 1.256 . S
C171 La161 2.928 . S
C171 C172 1.503 . S
C171 O186 1.261 . S
C171 O187 1.243 . S
C172 C171 1.503 . S
C172 C173 1.394 . S
C172 C177 1.373 . S
C173 C172 1.394 . S
C173 C174 1.380 . S
C173 H196 0.930 . S
C174 C173 1.380 . S
C174 C175 1.376 . S
C174 H197 0.930 . S
C175 C174 1.376 . S
C175 C176 1.370 . S
C176 C175 1.370 . S
C176 C177 1.396 . S
C176 H198 0.929 . S
C177 C172 1.373 . S
C177 C176 1.396 . S
C177 H199 0.929 . S
C178 O188 1.240 . S
C178 O189 1.289 . S
C179 O190 1.258 . S
C179 O191 1.256 . S
O180 La160 2.521 . S
O180 C162 1.261 . S
O181 La160 2.628 . S
O181 C162 1.243 . S
O182 La160 2.554 . S
O182 C169 1.240 . S
O183 La160 2.757 . S
O183 La161 2.482 . S
O183 C169 1.289 . S
O184 La160 2.470 . S
O184 C170 1.258 . S
O185 La161 2.503 . S
O185 C170 1.256 . S
O186 La161 2.521 . S
O186 C171 1.261 . S
O187 La161 2.628 . S
O187 C171 1.243 . S
O188 La161 2.554 . S
O188 C178 1.240 . S
O189 La160 2.482 . S
O189 La161 2.757 . S
O189 C178 1.289 . S
O190 La161 2.470 . S
O190 C179 1.258 . S
O191 La160 2.503 . S
O191 C179 1.256 . S
H192 C164 0.930 . S
H193 C165 0.930 . S
H194 C167 0.929 . S
H195 C168 0.929 . S
H196 C173 0.930 . S
H197 C174 0.930 . S
H198 C176 0.929 . S
H199 C177 0.929 . S
La200 C202 2.928 . S
La200 O220 2.521 . S
La200 O221 2.628 . S
La200 O222 2.554 . S
La200 O223 2.757 . S
La200 O224 2.470 . S
La200 O229 2.482 1_655 S
La200 O231 2.503 1_655 S
La201 C211 2.928 . S
La201 O223 2.482 1_455 S
La201 O225 2.503 1_455 S
La201 O226 2.521 . S
La201 O227 2.628 . S
La201 O228 2.554 . S
La201 O229 2.757 . S
La201 O230 2.470 . S
C202 La200 2.928 . S
C202 C203 1.503 . S
C202 O220 1.261 . S
C202 O221 1.243 . S
C203 C202 1.503 . S
C203 C204 1.394 . S
C203 C208 1.373 . S
C204 C203 1.394 . S
C204 C205 1.380 . S
C204 H232 0.930 . S
C205 C204 1.380 . S
C205 C206 1.376 . S
C205 H233 0.930 . S
C206 C205 1.376 . S
C206 C207 1.370 . S
C207 C206 1.370 . S
C207 C208 1.396 . S
C207 H234 0.929 . S
C208 C203 1.373 . S
C208 C207 1.396 . S
C208 H235 0.929 . S
C209 O222 1.240 . S
C209 O223 1.289 . S
C210 O224 1.258 . S
C210 O225 1.256 . S
C211 La201 2.928 . S
C211 C212 1.503 . S
C211 O226 1.261 . S
C211 O227 1.243 . S
C212 C211 1.503 . S
C212 C213 1.394 . S
C212 C217 1.373 . S
C213 C212 1.394 . S
C213 C214 1.380 . S
C213 H236 0.930 . S
C214 C213 1.380 . S
C214 C215 1.376 . S
C214 H237 0.930 . S
C215 C214 1.376 . S
C215 C216 1.370 . S
C216 C215 1.370 . S
C216 C217 1.396 . S
C216 H238 0.929 . S
C217 C212 1.373 . S
C217 C216 1.396 . S
C217 H239 0.929 . S
C218 O228 1.240 . S
C218 O229 1.289 . S
C219 O230 1.258 . S
C219 O231 1.256 . S
O220 La200 2.521 . S
O220 C202 1.261 . S
O221 La200 2.628 . S
O221 C202 1.243 . S
O222 La200 2.554 . S
O222 C209 1.240 . S
O223 La200 2.757 . S
O223 La201 2.482 1_655 S
O223 C209 1.289 . S
O224 La200 2.470 . S
O224 C210 1.258 . S
O225 La201 2.503 1_655 S
O225 C210 1.256 . S
O226 La201 2.521 . S
O226 C211 1.261 . S
O227 La201 2.628 . S
O227 C211 1.243 . S
O228 La201 2.554 . S
O228 C218 1.240 . S
O229 La200 2.482 1_455 S
O229 La201 2.757 . S
O229 C218 1.289 . S
O230 La201 2.470 . S
O230 C219 1.258 . S
O231 La200 2.503 1_455 S
O231 C219 1.256 . S
H232 C204 0.930 . S
H233 C205 0.930 . S
H234 C207 0.929 . S
H235 C208 0.929 . S
H236 C213 0.930 . S
H237 C214 0.930 . S
H238 C216 0.929 . S
H239 C217 0.929 . S
La240 C242 2.928 . S
La240 O260 2.521 . S
La240 O261 2.628 . S
La240 O262 2.554 . S
La240 O263 2.757 . S
La240 O264 2.470 . S
La240 O269 2.482 1_554 S
La240 O271 2.503 1_554 S
La241 C251 2.928 . S
La241 O263 2.482 1_556 S
La241 O265 2.503 1_556 S
La241 O266 2.521 . S
La241 O267 2.628 . S
La241 O268 2.554 . S
La241 O269 2.757 . S
La241 O270 2.470 . S
C242 La240 2.928 . S
C242 C243 1.503 . S
C242 O260 1.261 . S
C242 O261 1.243 . S
C243 C242 1.503 . S
C243 C244 1.394 . S
C243 C248 1.373 . S
C244 C243 1.394 . S
C244 C245 1.380 . S
C244 H272 0.930 . S
C245 C244 1.380 . S
C245 C246 1.376 . S
C245 H273 0.930 . S
C246 C245 1.376 . S
C246 C247 1.370 . S
C247 C246 1.370 . S
C247 C248 1.396 . S
C247 H274 0.929 . S
C248 C243 1.373 . S
C248 C247 1.396 . S
C248 H275 0.929 . S
C249 O262 1.240 . S
C249 O263 1.289 . S
C250 O264 1.258 . S
C250 O265 1.256 . S
C251 La241 2.928 . S
C251 C252 1.503 . S
C251 O266 1.261 . S
C251 O267 1.243 . S
C252 C251 1.503 . S
C252 C253 1.394 . S
C252 C257 1.373 . S
C253 C252 1.394 . S
C253 C254 1.380 . S
C253 H276 0.930 . S
C254 C253 1.380 . S
C254 C255 1.376 . S
C254 H277 0.930 . S
C255 C254 1.376 . S
C255 C256 1.370 . S
C256 C255 1.370 . S
C256 C257 1.396 . S
C256 H278 0.929 . S
C257 C252 1.373 . S
C257 C256 1.396 . S
C257 H279 0.929 . S
C258 O268 1.240 . S
C258 O269 1.289 . S
C259 O270 1.258 . S
C259 O271 1.256 . S
O260 La240 2.521 . S
O260 C242 1.261 . S
O261 La240 2.628 . S
O261 C242 1.243 . S
O262 La240 2.554 . S
O262 C249 1.240 . S
O263 La240 2.757 . S
O263 La241 2.482 1_554 S
O263 C249 1.289 . S
O264 La240 2.470 . S
O264 C250 1.258 . S
O265 La241 2.503 1_554 S
O265 C250 1.256 . S
O266 La241 2.521 . S
O266 C251 1.261 . S
O267 La241 2.628 . S
O267 C251 1.243 . S
O268 La241 2.554 . S
O268 C258 1.240 . S
O269 La240 2.482 1_556 S
O269 La241 2.757 . S
O269 C258 1.289 . S
O270 La241 2.470 . S
O270 C259 1.258 . S
O271 La240 2.503 1_556 S
O271 C259 1.256 . S
H272 C244 0.930 . S
H273 C245 0.930 . S
H274 C247 0.929 . S
H275 C248 0.929 . S
H276 C253 0.930 . S
H277 C254 0.930 . S
H278 C256 0.929 . S
H279 C257 0.929 . S
La280 C282 2.928 . S
La280 O300 2.521 . S
La280 O301 2.628 . S
La280 O302 2.554 . S
La280 O303 2.757 . S
La280 O304 2.470 . S
La280 O309 2.482 . S
La280 O311 2.503 . S
La281 C291 2.928 . S
La281 O303 2.482 . S
La281 O305 2.503 . S
La281 O306 2.521 . S
La281 O307 2.628 . S
La281 O308 2.554 . S
La281 O309 2.757 . S
La281 O310 2.470 . S
C282 La280 2.928 . S
C282 C283 1.503 . S
C282 O300 1.261 . S
C282 O301 1.243 . S
C283 C282 1.503 . S
C283 C284 1.394 . S
C283 C288 1.373 . S
C284 C283 1.394 . S
C284 C285 1.380 . S
C284 H312 0.930 . S
C285 C284 1.380 . S
C285 C286 1.376 . S
C285 H313 0.930 . S
C286 C285 1.376 . S
C286 C287 1.370 . S
C287 C286 1.370 . S
C287 C288 1.396 . S
C287 H314 0.929 . S
C288 C283 1.373 . S
C288 C287 1.396 . S
C288 H315 0.929 . S
C289 O302 1.240 . S
C289 O303 1.289 . S
C290 O304 1.258 . S
C290 O305 1.256 . S
C291 La281 2.928 . S
C291 C292 1.503 . S
C291 O306 1.261 . S
C291 O307 1.243 . S
C292 C291 1.503 . S
C292 C293 1.394 . S
C292 C297 1.373 . S
C293 C292 1.394 . S
C293 C294 1.380 . S
C293 H316 0.930 . S
C294 C293 1.380 . S
C294 C295 1.376 . S
C294 H317 0.930 . S
C295 C294 1.376 . S
C295 C296 1.370 . S
C296 C295 1.370 . S
C296 C297 1.396 . S
C296 H318 0.929 . S
C297 C292 1.373 . S
C297 C296 1.396 . S
C297 H319 0.929 . S
C298 O308 1.240 . S
C298 O309 1.289 . S
C299 O310 1.258 . S
C299 O311 1.256 . S
O300 La280 2.521 . S
O300 C282 1.261 . S
O301 La280 2.628 . S
O301 C282 1.243 . S
O302 La280 2.554 . S
O302 C289 1.240 . S
O303 La280 2.757 . S
O303 La281 2.482 . S
O303 C289 1.289 . S
O304 La280 2.470 . S
O304 C290 1.258 . S
O305 La281 2.503 . S
O305 C290 1.256 . S
O306 La281 2.521 . S
O306 C291 1.261 . S
O307 La281 2.628 . S
O307 C291 1.243 . S
O308 La281 2.554 . S
O308 C298 1.240 . S
O309 La280 2.482 . S
O309 La281 2.757 . S
O309 C298 1.289 . S
O310 La281 2.470 . S
O310 C299 1.258 . S
O311 La280 2.503 . S
O311 C299 1.256 . S
H312 C284 0.930 . S
H313 C285 0.930 . S
H314 C287 0.929 . S
H315 C288 0.929 . S
H316 C293 0.930 . S
H317 C294 0.930 . S
H318 C296 0.929 . S
H319 C297 0.929 . S
La320 C322 2.928 . S
La320 O340 2.521 . S
La320 O341 2.628 . S
La320 O342 2.554 . S
La320 O343 2.757 . S
La320 O344 2.470 . S
La320 O349 2.482 . S
La320 O351 2.503 . S
La321 C331 2.928 . S
La321 O343 2.482 . S
La321 O345 2.503 . S
La321 O346 2.521 . S
La321 O347 2.628 . S
La321 O348 2.554 . S
La321 O349 2.757 . S
La321 O350 2.470 . S
C322 La320 2.928 . S
C322 C323 1.503 . S
C322 O340 1.261 . S
C322 O341 1.243 . S
C323 C322 1.503 . S
C323 C324 1.394 . S
C323 C328 1.373 . S
C324 C323 1.394 . S
C324 C325 1.380 . S
C324 H352 0.930 . S
C325 C324 1.380 . S
C325 C326 1.376 . S
C325 H353 0.930 . S
C326 C325 1.376 . S
C326 C327 1.370 . S
C327 C326 1.370 . S
C327 C328 1.396 . S
C327 H354 0.929 . S
C328 C323 1.373 . S
C328 C327 1.396 . S
C328 H355 0.929 . S
C329 O342 1.240 . S
C329 O343 1.289 . S
C330 O344 1.258 . S
C330 O345 1.256 . S
C331 La321 2.928 . S
C331 C332 1.503 . S
C331 O346 1.261 . S
C331 O347 1.243 . S
C332 C331 1.503 . S
C332 C333 1.394 . S
C332 C337 1.373 . S
C333 C332 1.394 . S
C333 C334 1.380 . S
C333 H356 0.930 . S
C334 C333 1.380 . S
C334 C335 1.376 . S
C334 H357 0.930 . S
C335 C334 1.376 . S
C335 C336 1.370 . S
C336 C335 1.370 . S
C336 C337 1.396 . S
C336 H358 0.929 . S
C337 C332 1.373 . S
C337 C336 1.396 . S
C337 H359 0.929 . S
C338 O348 1.240 . S
C338 O349 1.289 . S
C339 O350 1.258 . S
C339 O351 1.256 . S
O340 La320 2.521 . S
O340 C322 1.261 . S
O341 La320 2.628 . S
O341 C322 1.243 . S
O342 La320 2.554 . S
O342 C329 1.240 . S
O343 La320 2.757 . S
O343 La321 2.482 . S
O343 C329 1.289 . S
O344 La320 2.470 . S
O344 C330 1.258 . S
O345 La321 2.503 . S
O345 C330 1.256 . S
O346 La321 2.521 . S
O346 C331 1.261 . S
O347 La321 2.628 . S
O347 C331 1.243 . S
O348 La321 2.554 . S
O348 C338 1.240 . S
O349 La320 2.482 . S
O349 La321 2.757 . S
O349 C338 1.289 . S
O350 La321 2.470 . S
O350 C339 1.258 . S
O351 La320 2.503 . S
O351 C339 1.256 . S
H352 C324 0.930 . S
H353 C325 0.930 . S
H354 C327 0.929 . S
H355 C328 0.929 . S
H356 C333 0.930 . S
H357 C334 0.930 . S
H358 C336 0.929 . S
H359 C337 0.929 . S
La360 C362 2.928 . S
La360 O380 2.521 . S
La360 O381 2.628 . S
La360 O382 2.554 1_565 S
La360 O383 2.757 1_565 S
La360 O384 2.470 1_565 S
La360 O389 2.482 . S
La360 O391 2.503 . S
La361 C371 2.928 . S
La361 O383 2.482 . S
La361 O385 2.503 . S
La361 O386 2.521 . S
La361 O387 2.628 . S
La361 O388 2.554 1_545 S
La361 O389 2.757 1_545 S
La361 O390 2.470 1_545 S
C362 La360 2.928 . S
C362 C363 1.503 . S
C362 O380 1.261 . S
C362 O381 1.243 . S
C363 C362 1.503 . S
C363 C364 1.394 . S
C363 C368 1.373 . S
C364 C363 1.394 . S
C364 C365 1.380 . S
C364 H392 0.930 . S
C365 C364 1.380 . S
C365 C366 1.376 . S
C365 H393 0.930 . S
C366 C365 1.376 . S
C366 C367 1.370 . S
C367 C366 1.370 . S
C367 C368 1.396 . S
C367 H394 0.929 . S
C368 C363 1.373 . S
C368 C367 1.396 . S
C368 H395 0.929 . S
C369 O382 1.240 . S
C369 O383 1.289 . S
C370 O384 1.258 . S
C370 O385 1.256 . S
C371 La361 2.928 . S
C371 C372 1.503 . S
C371 O386 1.261 . S
C371 O387 1.243 . S
C372 C371 1.503 . S
C372 C373 1.394 . S
C372 C377 1.373 . S
C373 C372 1.394 . S
C373 C374 1.380 . S
C373 H396 0.930 . S
C374 C373 1.380 . S
C374 C375 1.376 . S
C374 H397 0.930 . S
C375 C374 1.376 . S
C375 C376 1.370 . S
C376 C375 1.370 . S
C376 C377 1.396 . S
C376 H398 0.929 . S
C377 C372 1.373 . S
C377 C376 1.396 . S
C377 H399 0.929 . S
C378 O388 1.240 . S
C378 O389 1.289 . S
C379 O390 1.258 . S
C379 O391 1.256 . S
O380 La360 2.521 . S
O380 C362 1.261 . S
O381 La360 2.628 . S
O381 C362 1.243 . S
O382 La360 2.554 1_545 S
O382 C369 1.240 . S
O383 La360 2.757 1_545 S
O383 La361 2.482 . S
O383 C369 1.289 . S
O384 La360 2.470 1_545 S
O384 C370 1.258 . S
O385 La361 2.503 . S
O385 C370 1.256 . S
O386 La361 2.521 . S
O386 C371 1.261 . S
O387 La361 2.628 . S
O387 C371 1.243 . S
O388 La361 2.554 1_565 S
O388 C378 1.240 . S
O389 La360 2.482 . S
O389 La361 2.757 1_565 S
O389 C378 1.289 . S
O390 La361 2.470 1_565 S
O390 C379 1.258 . S
O391 La360 2.503 . S
O391 C379 1.256 . S
H392 C364 0.930 . S
H393 C365 0.930 . S
H394 C367 0.929 . S
H395 C368 0.929 . S
H396 C373 0.930 . S
H397 C374 0.930 . S
H398 C376 0.929 . S
H399 C377 0.929 . S
La400 C402 2.928 . S
La400 O420 2.521 . S
La400 O421 2.628 . S
La400 O422 2.554 . S
La400 O423 2.757 . S
La400 O424 2.470 . S
La400 O429 2.482 1_565 S
La400 O431 2.503 1_565 S
La401 C411 2.928 . S
La401 O423 2.482 1_545 S
La401 O425 2.503 1_545 S
La401 O426 2.521 . S
La401 O427 2.628 . S
La401 O428 2.554 . S
La401 O429 2.757 . S
La401 O430 2.470 . S
C402 La400 2.928 . S
C402 C403 1.503 . S
C402 O420 1.261 . S
C402 O421 1.243 . S
C403 C402 1.503 . S
C403 C404 1.394 . S
C403 C408 1.373 . S
C404 C403 1.394 . S
C404 C405 1.380 . S
C404 H432 0.930 . S
C405 C404 1.380 . S
C405 C406 1.376 . S
C405 H433 0.930 . S
C406 C405 1.376 . S
C406 C407 1.370 . S
C407 C406 1.370 . S
C407 C408 1.396 . S
C407 H434 0.929 . S
C408 C403 1.373 . S
C408 C407 1.396 . S
C408 H435 0.929 . S
C409 O422 1.240 . S
C409 O423 1.289 . S
C410 O424 1.258 . S
C410 O425 1.256 . S
C411 La401 2.928 . S
C411 C412 1.503 . S
C411 O426 1.261 . S
C411 O427 1.243 . S
C412 C411 1.503 . S
C412 C413 1.394 . S
C412 C417 1.373 . S
C413 C412 1.394 . S
C413 C414 1.380 . S
C413 H436 0.930 . S
C414 C413 1.380 . S
C414 C415 1.376 . S
C414 H437 0.930 . S
C415 C414 1.376 . S
C415 C416 1.370 . S
C416 C415 1.370 . S
C416 C417 1.396 . S
C416 H438 0.929 . S
C417 C412 1.373 . S
C417 C416 1.396 . S
C417 H439 0.929 . S
C418 O428 1.240 . S
C418 O429 1.289 . S
C419 O430 1.258 . S
C419 O431 1.256 . S
O420 La400 2.521 . S
O420 C402 1.261 . S
O421 La400 2.628 . S
O421 C402 1.243 . S
O422 La400 2.554 . S
O422 C409 1.240 . S
O423 La400 2.757 . S
O423 La401 2.482 1_565 S
O423 C409 1.289 . S
O424 La400 2.470 . S
O424 C410 1.258 . S
O425 La401 2.503 1_565 S
O425 C410 1.256 . S
O426 La401 2.521 . S
O426 C411 1.261 . S
O427 La401 2.628 . S
O427 C411 1.243 . S
O428 La401 2.554 . S
O428 C418 1.240 . S
O429 La400 2.482 1_545 S
O429 La401 2.757 . S
O429 C418 1.289 . S
O430 La401 2.470 . S
O430 C419 1.258 . S
O431 La400 2.503 1_545 S
O431 C419 1.256 . S
H432 C404 0.930 . S
H433 C405 0.930 . S
H434 C407 0.929 . S
H435 C408 0.929 . S
H436 C413 0.930 . S
H437 C414 0.930 . S
H438 C416 0.929 . S
H439 C417 0.929 . S
La440 C442 2.928 . S
La440 O460 2.521 . S
La440 O461 2.628 . S
La440 O462 2.554 . S
La440 O463 2.757 . S
La440 O464 2.470 . S
La440 O469 2.482 . S
La440 O471 2.503 . S
La441 C451 2.928 . S
La441 O463 2.482 . S
La441 O465 2.503 . S
La441 O466 2.521 . S
La441 O467 2.628 . S
La441 O468 2.554 . S
La441 O469 2.757 . S
La441 O470 2.470 . S
C442 La440 2.928 . S
C442 C443 1.503 . S
C442 O460 1.261 . S
C442 O461 1.243 . S
C443 C442 1.503 . S
C443 C444 1.394 . S
C443 C448 1.373 . S
C444 C443 1.394 . S
C444 C445 1.380 . S
C444 H472 0.930 . S
C445 C444 1.380 . S
C445 C446 1.376 . S
C445 H473 0.930 . S
C446 C445 1.376 . S
C446 C447 1.370 . S
C447 C446 1.370 . S
C447 C448 1.396 . S
C447 H474 0.929 . S
C448 C443 1.373 . S
C448 C447 1.396 . S
C448 H475 0.929 . S
C449 O462 1.240 . S
C449 O463 1.289 . S
C450 O464 1.258 . S
C450 O465 1.256 . S
C451 La441 2.928 . S
C451 C452 1.503 . S
C451 O466 1.261 . S
C451 O467 1.243 . S
C452 C451 1.503 . S
C452 C453 1.394 . S
C452 C457 1.373 . S
C453 C452 1.394 . S
C453 C454 1.380 . S
C453 H476 0.930 . S
C454 C453 1.380 . S
C454 C455 1.376 . S
C454 H477 0.930 . S
C455 C454 1.376 . S
C455 C456 1.370 . S
C456 C455 1.370 . S
C456 C457 1.396 . S
C456 H478 0.929 . S
C457 C452 1.373 . S
C457 C456 1.396 . S
C457 H479 0.929 . S
C458 O468 1.240 . S
C458 O469 1.289 . S
C459 O470 1.258 . S
C459 O471 1.256 . S
O460 La440 2.521 . S
O460 C442 1.261 . S
O461 La440 2.628 . S
O461 C442 1.243 . S
O462 La440 2.554 . S
O462 C449 1.240 . S
O463 La440 2.757 . S
O463 La441 2.482 . S
O463 C449 1.289 . S
O464 La440 2.470 . S
O464 C450 1.258 . S
O465 La441 2.503 . S
O465 C450 1.256 . S
O466 La441 2.521 . S
O466 C451 1.261 . S
O467 La441 2.628 . S
O467 C451 1.243 . S
O468 La441 2.554 . S
O468 C458 1.240 . S
O469 La440 2.482 . S
O469 La441 2.757 . S
O469 C458 1.289 . S
O470 La441 2.470 . S
O470 C459 1.258 . S
O471 La440 2.503 . S
O471 C459 1.256 . S
H472 C444 0.930 . S
H473 C445 0.930 . S
H474 C447 0.929 . S
H475 C448 0.929 . S
H476 C453 0.930 . S
H477 C454 0.930 . S
H478 C456 0.929 . S
H479 C457 0.929 . S
H480 C486 0.930 . S
H481 C489 0.930 . S
H482 C490 0.930 . S
H483 C491 0.930 . S
H484 C494 0.930 . S
H485 C495 0.930 . S
C486 H480 0.930 . S
C486 C487 1.355 . S
C486 C488 1.415 . S
C487 C486 1.355 . S
C487 C489 1.419 . S
C488 C486 1.415 . S
C488 C493 1.425 . S
C488 C495 1.409 . S
C489 H481 0.930 . S
C489 C487 1.419 . S
C489 C490 1.362 . S
C490 H482 0.930 . S
C490 C489 1.362 . S
C490 C493 1.409 . S
C491 H483 0.930 . S
C491 C492 1.355 . S
C491 C493 1.415 . S
C492 C491 1.355 . S
C492 C494 1.419 . S
C493 C488 1.425 . S
C493 C490 1.409 . S
C493 C491 1.415 . S
C494 H484 0.930 . S
C494 C492 1.419 . S
C494 C495 1.362 . S
C495 H485 0.930 . S
C495 C488 1.409 . S
C495 C494 1.362 . S
H496 C502 0.930 . S
H497 C505 0.930 . S
H498 C506 0.930 . S
H499 C507 0.930 . S
H500 C510 0.930 . S
H501 C511 0.930 . S
C502 H496 0.930 . S
C502 C503 1.355 . S
C502 C504 1.415 . S
C503 C502 1.355 . S
C503 C505 1.419 1_565 S
C504 C502 1.415 . S
C504 C509 1.425 . S
C504 C511 1.409 . S
C505 H497 0.930 . S
C505 C503 1.419 1_545 S
C505 C506 1.362 . S
C506 H498 0.930 . S
C506 C505 1.362 . S
C506 C509 1.409 1_545 S
C507 H499 0.930 . S
C507 C508 1.355 . S
C507 C509 1.415 . S
C508 C507 1.355 . S
C508 C510 1.419 . S
C509 C504 1.425 . S
C509 C506 1.409 1_565 S
C509 C507 1.415 . S
C510 H500 0.930 . S
C510 C508 1.419 . S
C510 C511 1.362 . S
C511 H501 0.930 . S
C511 C504 1.409 . S
C511 C510 1.362 . S
H512 C518 0.930 . S
H513 C521 0.930 . S
H514 C522 0.930 . S
H515 C523 0.930 . S
H516 C526 0.930 . S
H517 C527 0.930 . S
C518 H512 0.930 . S
C518 C519 1.355 . S
C518 C520 1.415 . S
C519 C518 1.355 . S
C519 C521 1.419 . S
C520 C518 1.415 . S
C520 C525 1.425 . S
C520 C527 1.409 . S
C521 H513 0.930 . S
C521 C519 1.419 . S
C521 C522 1.362 . S
C522 H514 0.930 . S
C522 C521 1.362 . S
C522 C525 1.409 . S
C523 H515 0.930 . S
C523 C524 1.355 . S
C523 C525 1.415 . S
C524 C523 1.355 . S
C524 C526 1.419 . S
C525 C520 1.425 . S
C525 C522 1.409 . S
C525 C523 1.415 . S
C526 H516 0.930 . S
C526 C524 1.419 . S
C526 C527 1.362 . S
C527 H517 0.930 . S
C527 C520 1.409 . S
C527 C526 1.362 . S
H528 C534 0.930 . S
H529 C537 0.930 . S
H530 C538 0.930 . S
H531 C539 0.930 . S
H532 C542 0.928 1_565 S
H533 C543 0.930 . S
C534 H528 0.930 . S
C534 C535 1.355 . S
C534 C536 1.415 . S
C535 C534 1.355 . S
C535 C537 1.419 . S
C536 C534 1.415 . S
C536 C541 1.425 . S
C536 C543 1.409 . S
C537 H529 0.930 . S
C537 C535 1.419 . S
C537 C538 1.362 . S
C538 H530 0.930 . S
C538 C537 1.362 . S
C538 C541 1.409 . S
C539 H531 0.930 . S
C539 C540 1.355 . S
C539 C541 1.415 . S
C540 C539 1.355 . S
C540 C542 1.419 . S
C541 C536 1.425 . S
C541 C538 1.409 . S
C541 C539 1.415 . S
C542 H532 0.928 1_545 S
C542 C540 1.419 . S
C542 C543 1.362 . S
C543 H533 0.930 . S
C543 C536 1.409 . S
C543 C542 1.362 . S
H544 C550 0.930 . S
H545 C553 0.930 . S
H546 C554 0.930 . S
H547 C555 0.930 . S
H548 C558 0.930 . S
H549 C559 0.930 . S
C550 H544 0.930 . S
C550 C551 1.355 . S
C550 C552 1.415 . S
C551 C550 1.355 . S
C551 C553 1.419 . S
C552 C550 1.415 . S
C552 C557 1.425 . S
C552 C559 1.409 . S
C553 H545 0.930 . S
C553 C551 1.419 . S
C553 C554 1.362 . S
C554 H546 0.930 . S
C554 C553 1.362 . S
C554 C557 1.409 . S
C555 H547 0.930 . S
C555 C556 1.355 . S
C555 C557 1.415 . S
C556 C555 1.355 . S
C556 C558 1.419 . S
C557 C552 1.425 . S
C557 C554 1.409 . S
C557 C555 1.415 . S
C558 H548 0.930 . S
C558 C556 1.419 . S
C558 C559 1.362 . S
C559 H549 0.930 . S
C559 C552 1.409 . S
C559 C558 1.362 . S
H560 C566 0.930 . S
H561 C569 0.930 . S
H562 C570 0.930 . S
H563 C571 0.930 . S
H564 C574 0.930 . S
H565 C575 0.930 . S
C566 H560 0.930 . S
C566 C567 1.355 . S
C566 C568 1.415 . S
C567 C566 1.355 . S
C567 C569 1.419 . S
C568 C566 1.415 . S
C568 C573 1.425 . S
C568 C575 1.409 . S
C569 H561 0.930 . S
C569 C567 1.419 . S
C569 C570 1.362 . S
C570 H562 0.930 . S
C570 C569 1.362 . S
C570 C573 1.409 . S
C571 H563 0.930 . S
C571 C572 1.355 . S
C571 C573 1.415 . S
C572 C571 1.355 . S
C572 C574 1.419 . S
C573 C568 1.425 . S
C573 C570 1.409 . S
C573 C571 1.415 . S
C574 H564 0.930 . S
C574 C572 1.419 . S
C574 C575 1.362 . S
C575 H565 0.930 . S
C575 C568 1.409 . S
C575 C574 1.362 . S
H576 C582 0.930 . S
H577 C585 0.930 . S
H578 C586 0.930 . S
H579 C587 0.930 . S
H580 C590 0.930 . S
H581 C591 0.930 . S
C582 H576 0.930 . S
C582 C583 1.355 . S
C582 C584 1.415 . S
C583 C582 1.355 . S
C583 C585 1.419 . S
C584 C582 1.415 . S
C584 C589 1.425 . S
C584 C591 1.409 . S
C585 H577 0.930 . S
C585 C583 1.419 . S
C585 C586 1.362 . S
C586 H578 0.930 . S
C586 C585 1.362 . S
C586 C589 1.409 . S
C587 H579 0.930 . S
C587 C588 1.355 . S
C587 C589 1.415 . S
C588 C587 1.355 . S
C588 C590 1.419 . S
C589 C584 1.425 . S
C589 C586 1.409 . S
C589 C587 1.415 . S
C590 H580 0.930 . S
C590 C588 1.419 . S
C590 C591 1.362 . S
C591 H581 0.930 . S
C591 C584 1.409 . S
C591 C590 1.362 . S
H592 C598 0.930 . S
H593 C601 0.930 . S
H594 C602 0.930 . S
H595 C603 0.930 . S
H596 C606 0.930 . S
H597 C607 0.930 . S
C598 H592 0.930 . S
C598 C599 1.355 . S
C598 C600 1.415 . S
C599 C598 1.355 . S
C599 C601 1.419 . S
C600 C598 1.415 . S
C600 C605 1.425 . S
C600 C607 1.409 . S
C601 H593 0.930 . S
C601 C599 1.419 . S
C601 C602 1.362 . S
C602 H594 0.930 . S
C602 C601 1.362 . S
C602 C605 1.409 . S
C603 H595 0.930 . S
C603 C604 1.355 . S
C603 C605 1.415 . S
C604 C603 1.355 . S
C604 C606 1.419 . S
C605 C600 1.425 . S
C605 C602 1.409 . S
C605 C603 1.415 . S
C606 H596 0.930 . S
C606 C604 1.419 . S
C606 C607 1.362 . S
C607 H597 0.930 . S
C607 C600 1.409 . S
C607 C606 1.362 . S
H608 C614 0.930 . S
H609 C617 0.930 . S
H610 C618 0.930 . S
H611 C619 0.930 . S
H612 C622 0.930 . S
H613 C623 0.930 . S
C614 H608 0.930 . S
C614 C615 1.355 . S
C614 C616 1.415 . S
C615 C614 1.355 . S
C615 C617 1.419 . S
C616 C614 1.415 . S
C616 C621 1.425 . S
C616 C623 1.409 . S
C617 H609 0.930 . S
C617 C615 1.419 . S
C617 C618 1.362 . S
C618 H610 0.930 . S
C618 C617 1.362 . S
C618 C621 1.409 . S
C619 H611 0.930 . S
C619 C620 1.355 . S
C619 C621 1.415 . S
C620 C619 1.355 . S
C620 C622 1.419 . S
C621 C616 1.425 . S
C621 C618 1.409 . S
C621 C619 1.415 . S
C622 H612 0.930 . S
C622 C620 1.419 . S
C622 C623 1.362 . S
C623 H613 0.930 . S
C623 C616 1.409 . S
C623 C622 1.362 . S
H624 C630 0.930 . S
H625 C633 0.930 . S
H626 C634 0.930 . S
H627 C635 0.930 . S
H628 C638 0.930 . S
H629 C639 0.930 . S
C630 H624 0.930 . S
C630 C631 1.355 . S
C630 C632 1.415 . S
C631 C630 1.355 . S
C631 C633 1.419 . S
C632 C630 1.415 . S
C632 C637 1.425 . S
C632 C639 1.409 . S
C633 H625 0.930 . S
C633 C631 1.419 . S
C633 C634 1.362 . S
C634 H626 0.930 . S
C634 C633 1.362 . S
C634 C637 1.409 . S
C635 H627 0.930 . S
C635 C636 1.355 . S
C635 C637 1.415 . S
C636 C635 1.355 . S
C636 C638 1.419 . S
C637 C632 1.425 . S
C637 C634 1.409 . S
C637 C635 1.415 . S
C638 H628 0.930 . S
C638 C636 1.419 . S
C638 C639 1.362 . S
C639 H629 0.930 . S
C639 C632 1.409 . S
C639 C638 1.362 . S
H640 C646 0.930 1_455 S
H641 C649 0.930 . S
H642 C650 0.930 . S
H643 C651 0.930 . S
H644 C654 0.930 . S
H645 C655 0.930 1_455 S
C646 H640 0.930 1_655 S
C646 C647 1.355 . S
C646 C648 1.415 . S
C647 C646 1.355 . S
C647 C649 1.419 . S
C648 C646 1.415 . S
C648 C653 1.425 . S
C648 C655 1.409 . S
C649 H641 0.930 . S
C649 C647 1.419 . S
C649 C650 1.362 . S
C650 H642 0.930 . S
C650 C649 1.362 . S
C650 C653 1.409 . S
C651 H643 0.930 . S
C651 C652 1.355 . S
C651 C653 1.415 . S
C652 C651 1.355 . S
C652 C654 1.419 . S
C653 C648 1.425 . S
C653 C650 1.409 . S
C653 C651 1.415 . S
C654 H644 0.930 . S
C654 C652 1.419 . S
C654 C655 1.362 . S
C655 H645 0.930 1_655 S
C655 C648 1.409 . S
C655 C654 1.362 . S
H656 C662 0.930 . S
H657 C665 0.930 . S
H658 C666 0.930 . S
H659 C667 0.930 . S
H660 C670 0.930 . S
H661 C671 0.930 . S
C662 H656 0.930 . S
C662 C663 1.355 . S
C662 C664 1.415 . S
C663 C662 1.355 . S
C663 C665 1.419 . S
C664 C662 1.415 . S
C664 C669 1.425 . S
C664 C671 1.409 . S
C665 H657 0.930 . S
C665 C663 1.419 . S
C665 C666 1.362 . S
C666 H658 0.930 . S
C666 C665 1.362 . S
C666 C669 1.409 . S
C667 H659 0.930 . S
C667 C668 1.355 . S
C667 C669 1.415 . S
C668 C667 1.355 . S
C668 C670 1.419 . S
C669 C664 1.425 . S
C669 C666 1.409 . S
C669 C667 1.415 . S
C670 H660 0.930 . S
C670 C668 1.419 . S
C670 C671 1.362 . S
C671 H661 0.930 . S
C671 C664 1.409 . S
C671 C670 1.362 . S
H672 C678 0.930 . S
H673 C681 0.930 . S
H674 C682 0.930 . S
H675 C683 0.930 . S
H676 C686 0.930 . S
H677 C687 0.930 . S
C678 H672 0.930 . S
C678 C679 1.355 . S
C678 C680 1.415 . S
C679 C678 1.355 . S
C679 C681 1.419 . S
C680 C678 1.415 . S
C680 C685 1.425 . S
C680 C687 1.409 . S
C681 H673 0.930 . S
C681 C679 1.419 . S
C681 C682 1.362 . S
C682 H674 0.930 . S
C682 C681 1.362 . S
C682 C685 1.409 . S
C683 H675 0.930 . S
C683 C684 1.355 . S
C683 C685 1.415 . S
C684 C683 1.355 . S
C684 C686 1.419 . S
C685 C680 1.425 . S
C685 C682 1.409 . S
C685 C683 1.415 . S
C686 H676 0.930 . S
C686 C684 1.419 . S
C686 C687 1.362 . S
C687 H677 0.930 . S
C687 C680 1.409 . S
C687 C686 1.362 . S
H688 C694 0.930 . S
H689 C697 0.930 . S
H690 C698 0.930 . S
H691 C699 0.930 . S
H692 C702 0.930 . S
H693 C703 0.930 . S
C694 H688 0.930 . S
C694 C695 1.355 . S
C694 C696 1.415 . S
C695 C694 1.355 . S
C695 C697 1.419 . S
C696 C694 1.415 . S
C696 C701 1.425 . S
C696 C703 1.409 . S
C697 H689 0.930 . S
C697 C695 1.419 . S
C697 C698 1.362 . S
C698 H690 0.930 . S
C698 C697 1.362 . S
C698 C701 1.409 . S
C699 H691 0.930 . S
C699 C700 1.355 . S
C699 C701 1.415 . S
C700 C699 1.355 . S
C700 C702 1.419 . S
C701 C696 1.425 . S
C701 C698 1.409 . S
C701 C699 1.415 . S
C702 H692 0.930 . S
C702 C700 1.419 . S
C702 C703 1.362 . S
C703 H693 0.930 . S
C703 C696 1.409 . S
C703 C702 1.362 . S
H704 C710 0.930 . S
H705 C713 0.930 . S
H706 C714 0.930 . S
H707 C715 0.930 . S
H708 C718 0.930 . S
H709 C719 0.930 . S
C710 H704 0.930 . S
C710 C711 1.355 . S
C710 C712 1.415 . S
C711 C710 1.355 . S
C711 C713 1.419 . S
C712 C710 1.415 . S
C712 C717 1.425 . S
C712 C719 1.409 . S
C713 H705 0.930 . S
C713 C711 1.419 . S
C713 C714 1.362 . S
C714 H706 0.930 . S
C714 C713 1.362 . S
C714 C717 1.409 . S
C715 H707 0.930 . S
C715 C716 1.355 . S
C715 C717 1.415 . S
C716 C715 1.355 . S
C716 C718 1.419 . S
C717 C712 1.425 . S
C717 C714 1.409 . S
C717 C715 1.415 . S
C718 H708 0.930 . S
C718 C716 1.419 . S
C718 C719 1.362 . S
C719 H709 0.930 . S
C719 C712 1.409 . S
C719 C718 1.362 . S
H720 C726 0.930 . S
H721 C729 0.930 . S
H722 C730 0.930 . S
H723 C731 0.930 . S
H724 C734 0.930 . S
H725 C735 0.930 . S
C726 H720 0.930 . S
C726 C727 1.355 . S
C726 C728 1.415 1_554 S
C727 C726 1.355 . S
C727 C729 1.419 . S
C728 C726 1.415 1_556 S
C728 C733 1.417 1_556 S
C728 C735 1.409 . S
C729 H721 0.930 . S
C729 C727 1.419 . S
C729 C730 1.362 . S
C730 H722 0.930 . S
C730 C729 1.362 . S
C730 C733 1.439 . S
C731 H723 0.930 . S
C731 C732 1.355 . S
C731 C733 1.393 1_556 S
C732 C731 1.355 . S
C732 C734 1.419 . S
C733 C728 1.417 1_554 S
C733 C730 1.439 . S
C733 C731 1.393 1_554 S
C734 H724 0.930 . S
C734 C732 1.419 . S
C734 C735 1.362 . S
C735 H725 0.930 . S
C735 C728 1.409 . S
C735 C734 1.362 . S
H736 C742 0.930 . S
H737 C745 0.930 . S
H738 C746 0.930 . S
H739 C747 0.930 . S
H740 C750 0.930 . S
H741 C751 0.930 . S
C742 H736 0.930 . S
C742 C743 1.355 . S
C742 C744 1.415 . S
C743 C742 1.355 . S
C743 C745 1.419 . S
C744 C742 1.415 . S
C744 C749 1.425 . S
C744 C751 1.409 . S
C745 H737 0.930 . S
C745 C743 1.419 . S
C745 C746 1.362 . S
C746 H738 0.930 . S
C746 C745 1.362 . S
C746 C749 1.409 . S
C747 H739 0.930 . S
C747 C748 1.355 . S
C747 C749 1.415 . S
C748 C747 1.355 . S
C748 C750 1.419 . S
C749 C744 1.425 . S
C749 C746 1.409 . S
C749 C747 1.415 . S
C750 H740 0.930 . S
C750 C748 1.419 . S
C750 C751 1.362 . S
C751 H741 0.930 . S
C751 C744 1.409 . S
C751 C750 1.362 . S
H752 C758 0.930 . S
H753 C761 0.930 . S
H754 C762 0.930 . S
H755 C763 0.930 . S
H756 C766 0.930 . S
H757 C767 0.930 . S
C758 H752 0.930 . S
C758 C759 1.355 . S
C758 C760 1.415 1_554 S
C759 C758 1.355 . S
C759 C761 1.419 . S
C760 C758 1.415 1_556 S
C760 C765 1.425 . S
C760 C767 1.409 . S
C761 H753 0.930 . S
C761 C759 1.419 . S
C761 C762 1.362 1_554 S
C762 H754 0.930 . S
C762 C761 1.362 1_556 S
C762 C765 1.409 . S
C763 H755 0.930 . S
C763 C764 1.355 . S
C763 C765 1.415 . S
C764 C763 1.355 . S
C764 C766 1.419 . S
C765 C760 1.425 . S
C765 C762 1.409 . S
C765 C763 1.415 . S
C766 H756 0.930 . S
C766 C764 1.419 . S
C766 C767 1.362 . S
C767 H757 0.930 . S
C767 C760 1.409 . S
C767 C766 1.362 . S
H768 C774 0.930 . S
H769 C777 0.930 . S
H770 C778 0.930 . S
H771 C779 0.930 . S
H772 C782 0.930 . S
H773 C783 0.930 . S
C774 H768 0.930 . S
C774 C775 1.355 . S
C774 C776 1.415 . S
C775 C774 1.355 . S
C775 C777 1.419 . S
C776 C774 1.415 . S
C776 C781 1.425 . S
C776 C783 1.409 . S
C777 H769 0.930 . S
C777 C775 1.419 . S
C777 C778 1.362 . S
C778 H770 0.930 . S
C778 C777 1.362 . S
C778 C781 1.409 . S
C779 H771 0.930 . S
C779 C780 1.355 . S
C779 C781 1.415 . S
C780 C779 1.355 . S
C780 C782 1.419 . S
C781 C776 1.425 . S
C781 C778 1.409 . S
C781 C779 1.415 . S
C782 H772 0.930 . S
C782 C780 1.419 . S
C782 C783 1.362 . S
C783 H773 0.930 . S
C783 C776 1.409 . S
C783 C782 1.362 . S
H784 C790 0.930 . S
H785 C793 0.930 . S
H786 C794 0.930 . S
H787 C795 0.930 . S
H788 C798 0.930 . S
H789 C799 0.930 . S
C790 H784 0.930 . S
C790 C791 1.355 . S
C790 C792 1.415 . S
C791 C790 1.355 . S
C791 C793 1.419 . S
C792 C790 1.415 . S
C792 C797 1.425 . S
C792 C799 1.409 . S
C793 H785 0.930 . S
C793 C791 1.419 . S
C793 C794 1.362 . S
C794 H786 0.930 . S
C794 C793 1.362 . S
C794 C797 1.409 . S
C795 H787 0.930 . S
C795 C796 1.355 . S
C795 C797 1.415 . S
C796 C795 1.355 . S
C796 C798 1.419 . S
C797 C792 1.425 . S
C797 C794 1.409 . S
C797 C795 1.415 . S
C798 H788 0.930 . S
C798 C796 1.419 . S
C798 C799 1.362 . S
C799 H789 0.930 . S
C799 C792 1.409 . S
C799 C798 1.362 . S
H800 C806 0.930 . S
H801 C809 0.930 . S
H802 C810 0.930 . S
H803 C811 0.930 . S
H804 C814 0.930 . S
H805 C815 0.930 . S
C806 H800 0.930 . S
C806 C807 1.355 . S
C806 C808 1.415 . S
C807 C806 1.355 . S
C807 C809 1.419 . S
C808 C806 1.415 . S
C808 C813 1.425 . S
C808 C815 1.409 . S
C809 H801 0.930 . S
C809 C807 1.419 . S
C809 C810 1.362 . S
C810 H802 0.930 . S
C810 C809 1.362 . S
C810 C813 1.409 . S
C811 H803 0.930 . S
C811 C812 1.355 . S
C811 C813 1.415 . S
C812 C811 1.355 . S
C812 C814 1.419 . S
C813 C808 1.425 . S
C813 C810 1.409 . S
C813 C811 1.415 . S
C814 H804 0.930 . S
C814 C812 1.419 . S
C814 C815 1.362 . S
C815 H805 0.930 . S
C815 C808 1.409 . S
C815 C814 1.362 . S
H816 C822 0.930 . S
H817 C825 0.930 . S
H818 C826 0.930 . S
H819 C827 0.930 . S
H820 C830 0.930 . S
H821 C831 0.930 . S
C822 H816 0.930 . S
C822 C823 1.355 . S
C822 C824 1.415 . S
C823 C822 1.355 . S
C823 C825 1.419 . S
C824 C822 1.415 . S
C824 C829 1.425 . S
C824 C831 1.409 . S
C825 H817 0.930 . S
C825 C823 1.419 . S
C825 C826 1.362 . S
C826 H818 0.930 . S
C826 C825 1.362 . S
C826 C829 1.409 . S
C827 H819 0.930 . S
C827 C828 1.355 . S
C827 C829 1.415 1_565 S
C828 C827 1.355 . S
C828 C830 1.419 . S
C829 C824 1.425 . S
C829 C826 1.409 . S
C829 C827 1.415 1_545 S
C830 H820 0.930 . S
C830 C828 1.419 . S
C830 C831 1.362 1_565 S
C831 H821 0.930 . S
C831 C824 1.409 . S
C831 C830 1.362 1_545 S
H832 C838 0.930 . S
H833 C841 0.930 . S
H834 C842 0.930 . S
H835 C843 0.930 . S
H836 C846 0.930 . S
H837 C847 0.930 . S
C838 H832 0.930 . S
C838 C839 1.355 . S
C838 C840 1.415 . S
C839 C838 1.355 . S
C839 C841 1.419 . S
C840 C838 1.415 . S
C840 C845 1.425 . S
C840 C847 1.409 . S
C841 H833 0.930 . S
C841 C839 1.419 . S
C841 C842 1.362 . S
C842 H834 0.930 . S
C842 C841 1.362 . S
C842 C845 1.409 . S
C843 H835 0.930 . S
C843 C844 1.355 . S
C843 C845 1.415 . S
C844 C843 1.355 . S
C844 C846 1.419 . S
C845 C840 1.425 . S
C845 C842 1.409 . S
C845 C843 1.415 . S
C846 H836 0.930 . S
C846 C844 1.419 . S
C846 C847 1.362 . S
C847 H837 0.930 . S
C847 C840 1.409 . S
C847 C846 1.362 . S
H848 C854 0.930 . S
H849 C857 0.930 . S
H850 C858 0.930 . S
H851 C859 0.930 . S
H852 C862 0.930 . S
H853 C863 0.930 . S
C854 H848 0.930 . S
C854 C855 1.355 . S
C854 C856 1.415 . S
C855 C854 1.355 . S
C855 C857 1.419 . S
C856 C854 1.415 . S
C856 C861 1.425 1_545 S
C856 C863 1.409 . S
C857 H849 0.930 . S
C857 C855 1.419 . S
C857 C858 1.362 1_545 S
C858 H850 0.930 . S
C858 C857 1.362 1_565 S
C858 C861 1.409 . S
C859 H851 0.930 . S
C859 C860 1.355 . S
C859 C861 1.415 . S
C860 C859 1.355 . S
C860 C862 1.419 . S
C861 C856 1.425 1_565 S
C861 C858 1.409 . S
C861 C859 1.415 . S
C862 H852 0.930 . S
C862 C860 1.419 . S
C862 C863 1.362 1_565 S
C863 H853 0.930 . S
C863 C856 1.409 . S
C863 C862 1.362 1_545 S
H864 C870 0.930 . S
H865 C873 0.930 . S
H866 C874 0.930 . S
H867 C875 0.930 . S
H868 C878 0.930 . S
H869 C879 0.930 . S
C870 H864 0.930 . S
C870 C871 1.355 . S
C870 C872 1.415 . S
C871 C870 1.355 . S
C871 C873 1.419 . S
C872 C870 1.415 . S
C872 C877 1.425 . S
C872 C879 1.409 . S
C873 H865 0.930 . S
C873 C871 1.419 . S
C873 C874 1.362 . S
C874 H866 0.930 . S
C874 C873 1.362 . S
C874 C877 1.409 . S
C875 H867 0.930 . S
C875 C876 1.355 . S
C875 C877 1.415 . S
C876 C875 1.355 . S
C876 C878 1.419 . S
C877 C872 1.425 . S
C877 C874 1.409 . S
C877 C875 1.415 . S
C878 H868 0.930 . S
C878 C876 1.419 . S
C878 C879 1.362 . S
C879 H869 0.930 . S
C879 C872 1.409 . S
C879 C878 1.362 . S
H880 C886 0.930 . S
H881 C889 0.930 . S
H882 C890 0.930 . S
H883 C891 0.930 . S
H884 C894 0.930 . S
H885 C895 0.930 . S
C886 H880 0.930 . S
C886 C887 1.355 . S
C886 C888 1.415 . S
C887 C886 1.355 . S
C887 C889 1.419 . S
C888 C886 1.415 . S
C888 C893 1.425 . S
C888 C895 1.409 . S
C889 H881 0.930 . S
C889 C887 1.419 . S
C889 C890 1.362 . S
C890 H882 0.930 . S
C890 C889 1.362 . S
C890 C893 1.409 . S
C891 H883 0.930 . S
C891 C892 1.355 . S
C891 C893 1.415 . S
C892 C891 1.355 . S
C892 C894 1.419 . S
C893 C888 1.425 . S
C893 C890 1.409 . S
C893 C891 1.415 . S
C894 H884 0.930 . S
C894 C892 1.419 . S
C894 C895 1.362 . S
C895 H885 0.930 . S
C895 C888 1.409 . S
C895 C894 1.362 . S
H896 C902 0.930 . S
H897 C905 0.930 . S
H898 C906 0.930 . S
H899 C907 0.930 . S
H900 C910 0.930 . S
H901 C911 0.930 . S
C902 H896 0.930 . S
C902 C903 1.355 . S
C902 C904 1.415 . S
C903 C902 1.355 . S
C903 C905 1.419 . S
C904 C902 1.415 . S
C904 C909 1.425 . S
C904 C911 1.409 . S
C905 H897 0.930 . S
C905 C903 1.419 . S
C905 C906 1.362 . S
C906 H898 0.930 . S
C906 C905 1.362 . S
C906 C909 1.409 . S
C907 H899 0.930 . S
C907 C908 1.355 . S
C907 C909 1.415 . S
C908 C907 1.355 . S
C908 C910 1.419 . S
C909 C904 1.425 . S
C909 C906 1.409 . S
C909 C907 1.415 . S
C910 H900 0.930 . S
C910 C908 1.419 . S
C910 C911 1.362 . S
C911 H901 0.930 . S
C911 C904 1.409 . S
C911 C910 1.362 . S
H912 C918 0.930 . S
H913 C921 0.930 . S
H914 C922 0.930 . S
H915 C923 0.930 . S
H916 C926 0.930 . S
H917 C927 0.930 . S
C918 H912 0.930 . S
C918 C919 1.355 . S
C918 C920 1.415 . S
C919 C918 1.355 . S
C919 C921 1.419 . S
C920 C918 1.415 . S
C920 C925 1.425 . S
C920 C927 1.409 . S
C921 H913 0.930 . S
C921 C919 1.419 . S
C921 C922 1.362 . S
C922 H914 0.930 . S
C922 C921 1.362 . S
C922 C925 1.409 . S
C923 H915 0.930 . S
C923 C924 1.355 . S
C923 C925 1.415 . S
C924 C923 1.355 . S
C924 C926 1.419 . S
C925 C920 1.425 . S
C925 C922 1.409 . S
C925 C923 1.415 . S
C926 H916 0.930 . S
C926 C924 1.419 . S
C926 C927 1.362 . S
C927 H917 0.930 . S
C927 C920 1.409 . S
C927 C926 1.362 . S
H928 C934 0.930 . S
H929 C937 0.930 . S
H930 C938 0.930 . S
H931 C939 0.930 . S
H932 C942 0.930 . S
H933 C943 0.930 . S
C934 H928 0.930 . S
C934 C935 1.355 . S
C934 C936 1.415 . S
C935 C934 1.355 . S
C935 C937 1.419 . S
C936 C934 1.415 . S
C936 C941 1.425 . S
C936 C943 1.409 . S
C937 H929 0.930 . S
C937 C935 1.419 . S
C937 C938 1.362 . S
C938 H930 0.930 . S
C938 C937 1.362 . S
C938 C941 1.409 . S
C939 H931 0.930 . S
C939 C940 1.355 . S
C939 C941 1.415 . S
C940 C939 1.355 . S
C940 C942 1.419 . S
C941 C936 1.425 . S
C941 C938 1.409 . S
C941 C939 1.415 . S
C942 H932 0.930 . S
C942 C940 1.419 . S
C942 C943 1.362 . S
C943 H933 0.930 . S
C943 C936 1.409 . S
C943 C942 1.362 . S
H944 C950 0.930 . S
H945 C953 0.930 . S
H946 C954 0.930 . S
H947 C955 0.930 . S
H948 C958 0.930 . S
H949 C959 0.930 . S
C950 H944 0.930 . S
C950 C951 1.355 . S
C950 C952 1.415 . S
C951 C950 1.355 . S
C951 C953 1.419 . S
C952 C950 1.415 . S
C952 C957 1.425 . S
C952 C959 1.409 . S
C953 H945 0.930 . S
C953 C951 1.419 . S
C953 C954 1.362 . S
C954 H946 0.930 . S
C954 C953 1.362 . S
C954 C957 1.409 . S
C955 H947 0.930 . S
C955 C956 1.355 . S
C955 C957 1.415 . S
C956 C955 1.355 . S
C956 C958 1.419 . S
C957 C952 1.425 . S
C957 C954 1.409 . S
C957 C955 1.415 . S
C958 H948 0.930 . S
C958 C956 1.419 . S
C958 C959 1.362 . S
C959 H949 0.930 . S
C959 C952 1.409 . S
C959 C958 1.362 . S
H960 C966 0.930 . S
H961 C969 0.930 . S
H962 C970 0.930 . S
H963 C971 0.930 . S
H964 C974 0.930 . S
H965 C975 0.930 . S
C966 H960 0.930 . S
C966 C967 1.355 . S
C966 C968 1.386 1_455 S
C967 C966 1.355 . S
C967 C969 1.419 . S
C968 C966 1.386 1_655 S
C968 C973 1.424 . S
C968 C975 1.440 . S
C969 H961 0.930 . S
C969 C967 1.419 . S
C969 C970 1.362 . S
C970 H962 0.930 . S
C970 C969 1.362 . S
C970 C973 1.398 1_455 S
C971 H963 0.930 . S
C971 C972 1.355 . S
C971 C973 1.426 . S
C972 C971 1.355 . S
C972 C974 1.419 . S
C973 C968 1.424 . S
C973 C970 1.398 1_655 S
C973 C971 1.426 . S
C974 H964 0.930 . S
C974 C972 1.419 . S
C974 C975 1.362 . S
C975 H965 0.930 . S
C975 C968 1.440 . S
C975 C974 1.362 . S
H976 C982 0.930 . S
H977 C985 0.930 . S
H978 C986 0.930 . S
H979 C987 0.930 . S
H980 C990 0.930 . S
H981 C991 0.930 . S
C982 H976 0.930 . S
C982 C983 1.355 . S
C982 C984 1.415 . S
C983 C982 1.355 . S
C983 C985 1.419 . S
C984 C982 1.415 . S
C984 C989 1.425 . S
C984 C991 1.409 . S
C985 H977 0.930 . S
C985 C983 1.419 . S
C985 C986 1.362 . S
C986 H978 0.930 . S
C986 C985 1.362 . S
C986 C989 1.409 . S
C987 H979 0.930 . S
C987 C988 1.355 . S
C987 C989 1.415 . S
C988 C987 1.355 . S
C988 C990 1.419 . S
C989 C984 1.425 . S
C989 C986 1.409 . S
C989 C987 1.415 . S
C990 H980 0.930 . S
C990 C988 1.419 . S
C990 C991 1.362 . S
C991 H981 0.930 . S
C991 C984 1.409 . S
C991 C990 1.362 . S
H992 C998 0.930 . S
H993 C1001 0.930 . S
H994 C1002 0.930 . S
H995 C1003 0.930 . S
H996 C1006 0.930 . S
H997 C1007 0.930 . S
C998 H992 0.930 . S
C998 C999 1.355 . S
C998 C1000 1.415 . S
C999 C998 1.355 . S
C999 C1001 1.419 . S
C1000 C998 1.415 . S
C1000 C1005 1.425 . S
C1000 C1007 1.409 . S
C1001 H993 0.930 . S
C1001 C999 1.419 . S
C1001 C1002 1.362 . S
C1002 H994 0.930 . S
C1002 C1001 1.362 . S
C1002 C1005 1.409 . S
C1003 H995 0.930 . S
C1003 C1004 1.355 . S
C1003 C1005 1.415 . S
C1004 C1003 1.355 . S
C1004 C1006 1.419 . S
C1005 C1000 1.425 . S
C1005 C1002 1.409 . S
C1005 C1003 1.415 . S
C1006 H996 0.930 . S
C1006 C1004 1.419 . S
C1006 C1007 1.362 . S
C1007 H997 0.930 . S
C1007 C1000 1.409 . S
C1007 C1006 1.362 . S
H1008 C1014 0.930 . S
H1009 C1017 0.930 . S
H1010 C1018 0.930 . S
H1011 C1019 0.930 . S
H1012 C1022 0.930 . S
H1013 C1023 0.930 . S
C1014 H1008 0.930 . S
C1014 C1015 1.355 . S
C1014 C1016 1.415 . S
C1015 C1014 1.355 . S
C1015 C1017 1.419 . S
C1016 C1014 1.415 . S
C1016 C1021 1.425 . S
C1016 C1023 1.409 . S
C1017 H1009 0.930 . S
C1017 C1015 1.419 . S
C1017 C1018 1.362 . S
C1018 H1010 0.930 . S
C1018 C1017 1.362 . S
C1018 C1021 1.409 . S
C1019 H1011 0.930 . S
C1019 C1020 1.355 . S
C1019 C1021 1.415 . S
C1020 C1019 1.355 . S
C1020 C1022 1.419 . S
C1021 C1016 1.425 . S
C1021 C1018 1.409 . S
C1021 C1019 1.415 . S
C1022 H1012 0.930 . S
C1022 C1020 1.419 . S
C1022 C1023 1.362 . S
C1023 H1013 0.930 . S
C1023 C1016 1.409 . S
C1023 C1022 1.362 . S
H1024 C1030 0.930 . S
H1025 C1033 0.930 . S
H1026 C1034 0.930 . S
H1027 C1035 0.930 . S
H1028 C1038 0.930 . S
H1029 C1039 0.930 . S
C1030 H1024 0.930 . S
C1030 C1031 1.355 . S
C1030 C1032 1.415 . S
C1031 C1030 1.355 . S
C1031 C1033 1.419 . S
C1032 C1030 1.415 . S
C1032 C1037 1.425 . S
C1032 C1039 1.409 . S
C1033 H1025 0.930 . S
C1033 C1031 1.419 . S
C1033 C1034 1.362 . S
C1034 H1026 0.930 . S
C1034 C1033 1.362 . S
C1034 C1037 1.409 . S
C1035 H1027 0.930 . S
C1035 C1036 1.355 . S
C1035 C1037 1.415 . S
C1036 C1035 1.355 . S
C1036 C1038 1.419 . S
C1037 C1032 1.425 . S
C1037 C1034 1.409 . S
C1037 C1035 1.415 . S
C1038 H1028 0.930 . S
C1038 C1036 1.419 . S
C1038 C1039 1.362 . S
C1039 H1029 0.930 . S
C1039 C1032 1.409 . S
C1039 C1038 1.362 . S
H1040 C1046 0.930 . S
H1041 C1049 0.930 . S
H1042 C1050 0.930 . S
H1043 C1051 0.930 . S
H1044 C1054 0.930 . S
H1045 C1055 0.931 . S
C1046 H1040 0.930 . S
C1046 C1047 1.355 . S
C1046 C1048 1.415 . S
C1047 C1046 1.355 . S
C1047 C1049 1.419 . S
C1048 C1046 1.415 . S
C1048 C1053 1.425 . S
C1048 C1055 1.412 . S
C1049 H1041 0.930 . S
C1049 C1047 1.419 . S
C1049 C1050 1.362 . S
C1050 H1042 0.930 . S
C1050 C1049 1.362 . S
C1050 C1053 1.409 . S
C1051 H1043 0.930 . S
C1051 C1052 1.355 . S
C1051 C1053 1.415 1_455 S
C1052 C1051 1.355 . S
C1052 C1054 1.419 . S
C1053 C1048 1.425 . S
C1053 C1050 1.409 . S
C1053 C1051 1.415 1_655 S
C1054 H1044 0.930 . S
C1054 C1052 1.419 . S
C1054 C1055 1.359 1_455 S
C1055 H1045 0.931 . S
C1055 C1048 1.412 . S
C1055 C1054 1.359 1_655 S
C487 C18 1.170 . S
C492 C458 1.157 . S
C503 C379 1.705 . S
C508 C58 1.816 . S
C519 C99 1.385 . S
C524 C338 1.408 . S
C535 C138 2.107 . S
C540 C418 2.106 . S
C551 C178 1.718 . S
C556 C419 1.686 . S
C567 C219 1.441 . S
C572 C459 1.471 . S
C583 C378 1.937 . S
C588 C258 1.941 . S
C599 C299 1.668 . S
C604 C339 1.695 . S
C615 C139 1.694 . S
C620 C179 1.761 . S
C631 C19 1.580 . S
C636 C218 1.718 . S
C647 C59 1.596 . S
C652 C259 1.629 . S
C663 C298 1.955 . S
C668 C98 1.947 . S
C679 C6 1.663 . S
C684 C329 1.559 . S
C695 C46 1.790 . S
C700 C409 1.716 . S
C711 C449 2.040 . S
C716 C95 2.078 . S
C727 C126 1.532 . S
C732 C370 1.482 . S
C743 C166 1.248 . S
C748 C369 1.148 . S
C759 C330 2.027 . S
C764 C215 1.900 . S
C775 C410 1.370 . S
C780 C246 1.361 . S
C791 C450 2.645 . S
C796 C295 2.536 . S
C807 C10 2.768 . S
C812 C135 2.663 . S
C823 C15 2.000 . S
C828 C50 2.092 . S
C839 C55 2.335 . S
C844 C89 2.301 . S
C855 C130 1.658 . S
C860 C86 1.704 . S
C871 C206 1.472 . S
C876 C170 1.430 . S
C887 C209 1.443 . S
C892 C255 1.491 . S
C903 C250 1.505 . S
C908 C286 1.522 . S
C919 C175 0.950 . S
C924 C289 0.922 . S
C935 C335 0.916 . S
C940 C129 0.863 . S
C951 C210 1.745 . S
C956 C375 1.656 . S
C967 C326 1.425 . S
C972 C249 1.372 . S
C983 C406 1.754 . S
C988 C290 1.728 . S
C999 C169 1.309 . S
C1004 C446 1.394 . S
C1015 C455 1.773 . S
C1020 C49 1.702 . S
C1031 C90 1.496 . S
C1036 C366 1.547 . S
C1047 C415 1.874 . S
C1052 C9 1.834 . S
