# Generated by pormake.
# Topology kag, (6)-cn, num edge types: 1
# Building blocks:
#     Node 0, Type 0, BuildingBlock: PAMTOO_clean_sbu_0, # of connection points: 6
#     Node 1, Type 0, BuildingBlock: PAMTOO_clean_sbu_0, # of connection points: 6
#     Node 2, Type 0, BuildingBlock: PAMTOO_clean_sbu_0, # of connection points: 6
#     Edge 3, Type (0, 0), BuildingBlock: XIVTED_clean_linker_0, # of connection points: 2
#     Edge 4, Type (0, 0), BuildingBlock: XIVTED_clean_linker_0, # of connection points: 2
#     Edge 5, Type (0, 0), BuildingBlock: XIVTED_clean_linker_0, # of connection points: 2
#     Edge 6, Type (0, 0), BuildingBlock: XIVTED_clean_linker_0, # of connection points: 2
#     Edge 7, Type (0, 0), BuildingBlock: XIVTED_clean_linker_0, # of connection points: 2
#     Edge 8, Type (0, 0), BuildingBlock: XIVTED_clean_linker_0, # of connection points: 2
#     Edge 9, Type (0, 0), BuildingBlock: XIVTED_clean_linker_0, # of connection points: 2
#     Edge 10, Type (0, 0), BuildingBlock: XIVTED_clean_linker_0, # of connection points: 2
#     Edge 11, Type (0, 0), BuildingBlock: XIVTED_clean_linker_0, # of connection points: 2
# Relax obj value: 0.093
# Max RMSD: 0.160
# Mean RMSD: 0.118
data_MOF--net-kag--node1-PAMTOO_clean_sbu_0--edge1-XIVTED_clean_linker_0
_symmetry_space_group_name_H-M    P1
_symmetry_Int_Tables_number       1
_symmetry_cell_setting            triclinic
loop_
_symmetry_equiv_pos_as_xyz
'x, y, z'
_cell_length_a     31.160481
_cell_length_b     42.296109
_cell_length_c     15.404612
_cell_angle_alpha  98.799787
_cell_angle_beta   91.66639
_cell_angle_gamma 96.349023
loop_
_atom_site_label
_atom_site_type_symbol
_atom_site_fract_x
_atom_site_fract_y
_atom_site_fract_z
_atom_type_partial_charge
Dy0 Dy 0.05376 0.54274 0.97789 0.0
Dy1 Dy 1.04723 0.46293 0.94172 0.0
C2 C 1.04927 0.50319 0.78605 0.0
O3 O 0.98489 0.5262 -0.00069 0.0
O4 O 0.97899 0.47398 0.92635 0.0
O5 O 0.05607 0.58746 0.92658 0.0
O6 O 0.05659 0.58794 0.0672 0.0
O7 O 1.03071 0.47683 0.08092 0.0
O8 O 0.07049 0.52648 0.10477 0.0
O9 O 0.11688 0.48055 0.97646 0.0
O10 O 0.12085 0.53239 0.94631 0.0
O11 O 0.06251 0.41834 0.98009 0.0
O12 O 1.02771 0.41795 0.85584 0.0
C13 C 0.96147 0.49928 0.96374 0.0
O14 O 1.03198 0.52547 0.83763 0.0
O15 O 0.06706 0.48061 0.81835 0.0
C16 C 0.09463 0.63249 0.01577 0.0
C17 C 0.15648 0.68709 0.02713 0.0
C18 C 0.1648 0.65725 0.98065 0.0
C19 C 0.13421 0.63012 0.97533 0.0
C20 C 0.08678 0.66192 0.06439 0.0
C21 C 0.11748 0.68898 0.07031 0.0
C22 C 0.0603 0.60516 0.004 0.0
C23 C 1.05043 0.50161 0.13452 0.0
C24 C 0.13941 0.50725 0.96176 0.0
C25 C 1.0142 0.37207 0.92502 0.0
C26 C 0.96132 0.316 0.95061 0.0
C27 C 0.9553 0.34621 -0.00145 0.0
C28 C 0.98157 0.37406 -0.01418 0.0
C29 C 1.02004 0.34217 0.87668 0.0
C30 C 0.99387 0.3144 0.8892 0.0
C31 C 1.04261 0.40069 0.9106 0.0
H32 H 0.19479 0.65497 0.94765 0.0
H33 H 0.14105 0.60751 0.93804 0.0
H34 H 0.05641 0.66418 0.09598 0.0
H35 H 0.10995 0.71167 0.10593 0.0
H36 H 0.93075 0.34826 0.04679 0.0
H37 H 0.97659 0.39706 0.02358 0.0
H38 H 1.04492 0.34028 0.82904 0.0
H39 H 0.99888 0.2917 0.84995 0.0
Dy40 Dy 0.49966 0.99817 -0.01179 0.0
Dy41 Dy 0.60669 0.00997 -0.00105 0.0
C42 C 0.5528 0.00612 0.16921 0.0
O43 O 0.51613 0.05169 0.02524 0.0
O44 O 0.58525 0.0567 0.97616 0.0
O45 O 0.43789 1.00168 0.04708 0.0
O46 O 0.4409 0.97902 0.91162 0.0
O47 O 0.58524 0.99301 0.85817 0.0
O48 O 0.51968 0.01252 0.86124 0.0
O49 O 0.59104 0.95885 0.01909 0.0
O50 O 0.52238 0.94957 0.9547 0.0
O51 O 0.66771 0.00978 0.93575 0.0
O52 O 0.6667 0.02484 0.07588 0.0
C53 C 0.55035 0.06936 0.0029 0.0
O54 O 0.52105 0.9889 0.11994 0.0
O55 O 0.58411 0.02271 0.13474 0.0
C56 C 0.3886 0.95551 -0.00455 0.0
C57 C 0.33859 0.89719 0.0122 0.0
C58 C 0.37751 0.90696 0.06241 0.0
C59 C 0.40247 0.93577 0.05363 0.0
C60 C 0.34937 0.9462 0.94675 0.0
C61 C 0.32458 0.91726 0.9549 0.0
C62 C 0.41672 0.98405 0.97886 0.0
C63 C 0.55242 1.0025 0.8179 0.0
C64 C 0.55682 0.9391 -0.01342 0.0
C65 C 0.71846 0.05307 0.00026 0.0
C66 C 0.77148 0.11133 -0.00422 0.0
C67 C 0.72961 0.10594 0.95568 0.0
C68 C 0.70335 0.07712 0.95803 0.0
C69 C 0.76017 0.05817 0.03993 0.0
C70 C 0.78652 0.08703 0.03766 0.0
C71 C 0.69002 0.02349 0.00702 0.0
H72 H 0.38937 0.89181 0.10625 0.0
H73 H 0.43311 0.94223 0.09066 0.0
H74 H 0.3384 0.96097 0.90089 0.0
H75 H 0.29455 0.91046 0.91594 0.0
H76 H 0.71719 0.12389 0.92181 0.0
H77 H 0.67114 0.07365 0.92719 0.0
H78 H 0.77217 0.04 0.07361 0.0
H79 H 0.81835 0.09054 0.07018 0.0
Dy80 Dy 0.54087 0.46124 0.94379 0.0
Dy81 Dy 0.55972 0.54176 0.97636 0.0
C82 C 0.55053 0.50188 0.1359 0.0
O83 O 0.4773 0.47935 0.97194 0.0
O84 O 0.48822 0.53206 0.94784 0.0
O85 O 0.50662 0.41823 0.97874 0.0
O86 O 0.54892 0.4146 0.86918 0.0
O87 O 0.5755 0.52223 0.83964 0.0
O88 O 0.52557 0.47789 0.81722 0.0
O89 O 0.62324 0.52462 0.00324 0.0
O90 O 0.61249 0.47194 0.93338 0.0
O91 O 0.56505 0.5851 0.91847 0.0
O92 O 0.58126 0.58787 0.05766 0.0
C93 C 0.46255 0.50638 0.95988 0.0
O94 O 0.56192 0.47667 0.08473 0.0
O95 O 0.53959 0.5272 0.10419 0.0
C96 C 0.53612 0.36832 0.94181 0.0
C97 C 0.54714 0.30516 0.97159 0.0
C98 C 0.52843 0.32644 0.03477 0.0
C99 C 0.52295 0.35762 0.02007 0.0
C100 C 0.55611 0.34743 0.87999 0.0
C101 C 0.56174 0.31629 0.89484 0.0
C102 C 0.52375 0.39897 0.91859 0.0
C103 C 0.55022 0.50037 0.7865 0.0
C104 C 0.63812 0.49765 0.97019 0.0
C105 C 0.56384 0.63645 0.00785 0.0
C106 C 0.55383 0.70272 0.01989 0.0
C107 C 0.53289 0.68008 0.95094 0.0
C108 C 0.53789 0.64733 0.94488 0.0
C109 C 0.58268 0.65875 0.07938 0.0
C110 C 0.57762 0.69147 0.08557 0.0
C111 C 0.57787 0.60379 -0.00794 0.0
H112 H 0.51735 0.3188 0.0951 0.0
H113 H 0.50706 0.37293 0.06887 0.0
H114 H 0.5659 0.35471 0.81839 0.0
H115 H 0.57583 0.30045 0.84429 0.0
H116 H 0.51458 0.68782 0.89881 0.0
H117 H 0.52321 0.63085 0.88839 0.0
H118 H 0.60316 0.65114 0.12845 0.0
H119 H 0.5935 0.7081 0.14052 0.0
H120 H 1.03771 0.55352 0.69848 0.0
H121 H 1.03346 0.44985 0.22021 0.0
H122 H 0.05971 0.45345 0.65555 0.0
H123 H 0.06637 0.55308 0.26707 0.0
H124 H 1.03281 0.45024 0.37922 0.0
H125 H 1.03793 0.55333 0.53928 0.0
C126 C 1.04242 0.5315 0.65558 0.0
C127 C 1.04878 0.50346 0.69022 0.0
C128 C 1.04025 0.47277 0.35456 0.0
C129 C 1.0487 0.50306 0.50854 0.0
C130 C 1.04047 0.4726 0.26391 0.0
C131 C 1.0501 0.50148 0.23039 0.0
C132 C 1.04896 0.50207 0.41207 0.0
C133 C 0.05905 0.53024 0.29012 0.0
C134 C 1.04275 0.53147 0.56492 0.0
C135 C 0.05493 0.47564 0.63165 0.0
N136 N 0.058 0.52984 0.37812 0.0
N137 N 0.05448 0.47609 0.54362 0.0
H138 H 0.62142 0.02446 0.28828 0.0
H139 H 0.48312 0.00352 0.70645 0.0
H140 H 0.4859 0.988 0.2684 0.0
H141 H 0.62138 1.00155 0.71137 0.0
H142 H 0.48341 0.00464 0.54838 0.0
H143 H 0.62188 0.02318 0.44683 0.0
C144 C 0.59174 0.01634 0.31729 0.0
C145 C 0.55355 0.00632 0.26516 0.0
C146 C 0.51365 0.00386 0.58404 0.0
C147 C 0.55389 0.00496 0.44595 0.0
C148 C 0.51356 0.00333 0.67426 0.0
C149 C 0.55229 1.00238 0.72202 0.0
C150 C 0.55284 0.00397 0.54144 0.0
C151 C 0.59076 1.00207 0.67686 0.0
C152 C 0.59212 0.01545 0.40755 0.0
C153 C 0.51609 0.99584 0.30607 0.0
N154 N 0.59013 0.00309 0.58902 0.0
N155 N 0.51715 0.9956 0.39415 0.0
H156 H 0.57848 0.55073 0.7027 0.0
H157 H 0.54719 0.44953 0.2208 0.0
H158 H 0.52143 0.45156 0.65247 0.0
H159 H 0.55231 0.55318 0.26909 0.0
H160 H 0.54644 0.44914 0.37932 0.0
H161 H 0.57785 0.55141 0.54406 0.0
C162 C 0.56594 0.52907 0.65831 0.0
C163 C 0.55 0.50101 0.6908 0.0
C164 C 0.54762 0.47194 0.35514 0.0
C165 C 0.54951 0.50163 0.50947 0.0
C166 C 0.54827 0.47223 0.26474 0.0
C167 C 0.54984 0.50146 0.23167 0.0
C168 C 0.5493 0.50112 0.41308 0.0
C169 C 0.55091 0.5301 0.29173 0.0
C170 C 0.5654 0.52955 0.56788 0.0
C171 C 0.53389 0.47372 0.63026 0.0
N172 N 0.55094 0.52924 0.37965 0.0
N173 N 0.53433 0.47463 0.54244 0.0
H174 H 0.19917 0.55777 0.93589 0.0
H175 H 0.40054 0.45838 -0.01324 0.0
H176 H 0.18915 0.45996 -0.01084 0.0
H177 H 0.41573 0.55652 0.93575 0.0
H178 H 0.3229 0.4595 -0.01186 0.0
H179 H 0.27802 0.55868 0.93602 0.0
C180 C 0.21344 0.5365 0.94767 0.0
C181 C 0.18729 0.50871 0.96243 0.0
C182 C 0.34305 0.48086 0.97665 0.0
C183 C 0.27754 0.50965 0.9626 0.0
C184 C 0.38764 0.48027 0.9758 0.0
C185 C 0.41502 0.50742 0.96101 0.0
C186 C 0.32519 0.5088 0.96254 0.0
C187 C 0.39599 0.53501 0.94738 0.0
C188 C 0.25849 0.53707 0.94772 0.0
C189 C 0.20774 0.48194 0.9774 0.0
N190 N 0.35222 0.53498 0.9484 0.0
N191 N 0.25146 0.48311 0.977 0.0
H192 H 0.74771 0.1726 0.0153 0.0
H193 H 0.98627 0.2562 0.95669 0.0
H194 H 0.85871 0.12048 0.97205 0.0
H195 H 0.87391 0.30768 0.97502 0.0
H196 H 0.94047 0.20682 0.97092 0.0
H197 H 0.79375 0.22276 0.00865 0.0
C198 C 0.78171 0.17165 0.00402 0.0
C199 C 0.79927 0.14216 -0.00613 0.0
C200 C 0.92579 0.22891 0.97199 0.0
C201 C 0.85233 0.19968 -0.01268 0.0
C202 C 0.95192 0.25713 0.96343 0.0
C203 C 0.93392 0.28617 0.96388 0.0
C204 C 0.8812 0.22958 0.98127 0.0
C205 C 0.88929 0.28596 0.97492 0.0
C206 C 0.80804 0.20036 0.00075 0.0
C207 C 0.84377 0.14259 0.9812 0.0
N208 N 0.86445 0.25809 -0.01719 0.0
N209 N 0.86868 0.17084 0.9781 0.0
H210 H 0.48943 0.89132 0.93985 0.0
H211 H 0.62095 0.7508 0.06416 0.0
H212 H 0.6222 0.90685 0.04008 0.0
H213 H 0.48685 0.73521 0.97288 0.0
H214 H 0.62162 0.80799 0.05662 0.0
H215 H 0.48795 0.83414 0.94996 0.0
C216 C 0.51841 0.88274 0.96348 0.0
C217 C 0.5561 0.90406 -0.01114 0.0
C218 C 0.59197 0.79212 0.03852 0.0
C219 C 0.55442 0.8384 0.00116 0.0
C220 C 0.59142 0.75941 0.04357 0.0
C221 C 0.55369 0.73798 0.01956 0.0
C222 C 0.55456 0.80375 0.00898 0.0
C223 C 0.5168 0.75066 -0.0087 0.0
C224 C 0.51744 0.85003 0.96954 0.0
C225 C 0.59245 0.89141 0.01962 0.0
N226 N 0.51818 0.78265 -0.01325 0.0
N227 N 0.59068 0.85948 0.02488 0.0
H228 H 0.90033 0.44849 0.8975 0.0
H229 H 0.70071 0.54533 0.04509 0.0
H230 H 0.91316 0.54616 0.03561 0.0
H231 H 0.68445 0.44828 0.90245 0.0
H232 H 0.77868 0.54486 0.04551 0.0
H233 H 0.8216 0.44691 0.90148 0.0
C234 C 0.88671 0.4696 0.92871 0.0
C235 C 0.91362 0.49755 0.96607 0.0
C236 C 0.75817 0.5236 0.01421 0.0
C237 C 0.82338 0.49583 0.97089 0.0
C238 C 0.71344 0.52382 0.01395 0.0
C239 C 0.68571 0.49681 0.97341 0.0
C240 C 0.7757 0.4962 0.97354 0.0
C241 C 0.70446 0.46967 0.93444 0.0
C242 C 0.8417 0.46865 0.93095 0.0
C243 C 0.89393 0.52409 0.00573 0.0
N244 N 0.74827 0.47009 0.93527 0.0
N245 N 0.85017 0.52255 0.00696 0.0
H246 H 0.19826 0.70645 0.88725 0.0
H247 H 0.31751 0.87066 0.15937 0.0
H248 H 0.18385 0.73506 0.16499 0.0
H249 H 0.30297 0.85179 0.8762 0.0
H250 H 0.27597 0.81834 0.16507 0.0
H251 H 0.2448 0.75671 0.88473 0.0
C252 C 0.20531 0.72315 0.94796 0.0
C253 C 0.18709 0.71657 0.02645 0.0
C254 C 0.28187 0.82569 0.10175 0.0
C255 C 0.24001 0.77435 0.02383 0.0
C256 C 0.30569 0.85545 0.09845 0.0
C257 C 0.31344 0.86565 0.0172 0.0
C258 C 0.26615 0.80583 0.02318 0.0
C259 C 0.2972 0.84507 0.94027 0.0
C260 C 0.23158 0.75196 0.94631 0.0
C261 C 0.19687 0.73933 0.10288 0.0
N262 N 0.27443 0.81614 0.94514 0.0
N263 N 0.22268 0.76721 0.09969 0.0
H264 H 0.61346 0.26827 0.93363 0.0
H265 H 0.48452 0.10624 0.04975 0.0
H266 H 0.48568 0.26402 0.03515 0.0
H267 H 0.61475 0.11297 0.96003 0.0
H268 H 0.48438 0.16405 0.04771 0.0
H269 H 0.61462 0.21141 0.94539 0.0
C270 C 0.58563 0.2554 0.95845 0.0
C271 C 0.5494 0.27103 -0.01672 0.0
C272 C 0.513 0.15284 0.02874 0.0
C273 C 0.5505 0.20572 -0.00281 0.0
C274 C 0.5131 0.1198 0.02987 0.0
C275 C 0.54963 0.10454 0.00477 0.0
C276 C 0.54965 0.17078 0.00215 0.0
C277 C 0.58574 0.12349 0.97971 0.0
C278 C 0.58637 0.22292 0.9655 0.0
C279 C 0.51452 0.25313 0.01615 0.0
N280 N 0.58476 0.15547 0.97883 0.0
N281 N 0.51585 0.22145 0.02172 0.0
loop_
_geom_bond_atom_site_label_1
_geom_bond_atom_site_label_2
_geom_bond_distance
_geom_bond_site_symmetry_2
_ccdc_geom_bond_type
Dy0 O3 2.307 1_455 S
Dy0 O5 2.395 1_554 S
Dy0 O6 2.379 . S
Dy0 O8 2.339 . S
Dy0 O10 2.298 . S
Dy0 O14 2.275 1_554 S
Dy0 C22 2.738 . S
Dy1 O4 2.298 . S
Dy1 O7 2.275 1_556 S
Dy1 O9 2.307 1_655 S
Dy1 O11 2.395 1_556 S
Dy1 O12 2.379 . S
Dy1 O15 2.339 . S
Dy1 C31 2.738 . S
C2 O14 1.254 . S
C2 O15 1.257 1_455 S
O3 Dy0 2.307 1_655 S
O3 C13 1.266 . S
O4 Dy1 2.298 . S
O4 C13 1.236 1_556 S
O5 Dy0 2.395 1_556 S
O5 C22 1.255 1_556 S
O6 Dy0 2.379 . S
O6 C22 1.249 . S
O7 Dy1 2.275 1_554 S
O7 C23 1.254 1_655 S
O8 Dy0 2.339 . S
O8 C23 1.257 . S
O9 Dy1 2.307 1_455 S
O9 C24 1.266 . S
O10 Dy0 2.298 . S
O10 C24 1.236 1_554 S
O11 Dy1 2.395 1_554 S
O11 C31 1.255 1_554 S
O12 Dy1 2.379 . S
O12 C31 1.249 . S
C13 O3 1.266 . S
C13 O4 1.236 1_554 S
O14 Dy0 2.275 1_556 S
O14 C2 1.254 . S
O15 Dy1 2.339 . S
O15 C2 1.257 1_655 S
C16 C19 1.344 1_554 S
C16 C20 1.328 . S
C16 C22 1.516 . S
C17 C18 1.304 1_554 S
C17 C21 1.323 . S
C18 C17 1.304 1_556 S
C18 C19 1.371 . S
C18 H32 0.930 . S
C19 C16 1.344 1_556 S
C19 C18 1.371 . S
C19 H33 0.931 . S
C20 C16 1.328 . S
C20 C21 1.433 . S
C20 H34 0.931 . S
C21 C17 1.323 . S
C21 C20 1.433 . S
C21 H35 0.933 . S
C22 Dy0 2.738 . S
C22 O5 1.255 1_554 S
C22 O6 1.249 . S
C22 C16 1.516 . S
C23 O7 1.254 1_455 S
C23 O8 1.257 . S
C24 O9 1.266 . S
C24 O10 1.236 1_556 S
C25 C28 1.344 1_556 S
C25 C29 1.328 . S
C25 C31 1.516 . S
C26 C27 1.304 1_556 S
C26 C30 1.323 . S
C27 C26 1.304 1_554 S
C27 C28 1.371 . S
C27 H36 0.930 . S
C28 C25 1.344 1_554 S
C28 C27 1.371 . S
C28 H37 0.931 . S
C29 C25 1.328 . S
C29 C30 1.433 . S
C29 H38 0.931 . S
C30 C26 1.323 . S
C30 C29 1.433 . S
C30 H39 0.933 . S
C31 Dy1 2.738 . S
C31 O11 1.255 1_556 S
C31 O12 1.249 . S
C31 C25 1.516 . S
H32 C18 0.930 . S
H33 C19 0.931 . S
H34 C20 0.931 . S
H35 C21 0.933 . S
H36 C27 0.930 . S
H37 C28 0.931 . S
H38 C29 0.931 . S
H39 C30 0.933 . S
Dy40 O43 2.307 1_565 S
Dy40 O45 2.395 1_556 S
Dy40 O46 2.379 . S
Dy40 O48 2.339 . S
Dy40 O50 2.298 . S
Dy40 O54 2.275 1_556 S
Dy40 C62 2.738 . S
Dy41 O44 2.298 . S
Dy41 O47 2.275 1_554 S
Dy41 O49 2.307 1_545 S
Dy41 O51 2.395 1_554 S
Dy41 O52 2.379 . S
Dy41 O55 2.339 . S
Dy41 C71 2.738 . S
C42 O54 1.254 1_545 S
C42 O55 1.257 . S
O43 Dy40 2.307 1_545 S
O43 C53 1.266 1_556 S
O44 Dy41 2.298 . S
O44 C53 1.236 . S
O45 Dy40 2.395 1_554 S
O45 C62 1.255 1_554 S
O46 Dy40 2.379 . S
O46 C62 1.249 . S
O47 Dy41 2.275 1_556 S
O47 C63 1.254 1_545 S
O48 Dy40 2.339 . S
O48 C63 1.257 . S
O49 Dy41 2.307 1_565 S
O49 C64 1.266 1_554 S
O50 Dy40 2.298 . S
O50 C64 1.236 . S
O51 Dy41 2.395 1_556 S
O51 C71 1.255 1_556 S
O52 Dy41 2.379 . S
O52 C71 1.249 . S
C53 O43 1.266 1_554 S
C53 O44 1.236 . S
O54 Dy40 2.275 1_554 S
O54 C42 1.254 1_565 S
O55 Dy41 2.339 . S
O55 C42 1.257 . S
C56 C59 1.344 1_556 S
C56 C60 1.328 . S
C56 C62 1.516 . S
C57 C58 1.304 . S
C57 C61 1.323 1_554 S
C58 C57 1.304 . S
C58 C59 1.371 . S
C58 H72 0.930 . S
C59 C56 1.344 1_554 S
C59 C58 1.371 . S
C59 H73 0.931 . S
C60 C56 1.328 . S
C60 C61 1.433 . S
C60 H74 0.931 . S
C61 C57 1.323 1_556 S
C61 C60 1.433 . S
C61 H75 0.933 . S
C62 Dy40 2.738 . S
C62 O45 1.255 1_556 S
C62 O46 1.249 . S
C62 C56 1.516 . S
C63 O47 1.254 1_565 S
C63 O48 1.257 . S
C64 O49 1.266 1_556 S
C64 O50 1.236 . S
C65 C68 1.344 1_554 S
C65 C69 1.328 . S
C65 C71 1.516 . S
C66 C67 1.304 . S
C66 C70 1.323 1_556 S
C67 C66 1.304 . S
C67 C68 1.371 . S
C67 H76 0.930 . S
C68 C65 1.344 1_556 S
C68 C67 1.371 . S
C68 H77 0.931 . S
C69 C65 1.328 . S
C69 C70 1.433 . S
C69 H78 0.931 . S
C70 C66 1.323 1_554 S
C70 C69 1.433 . S
C70 H79 0.933 . S
C71 Dy41 2.738 . S
C71 O51 1.255 1_554 S
C71 O52 1.249 . S
C71 C65 1.516 . S
H72 C58 0.930 . S
H73 C59 0.931 . S
H74 C60 0.931 . S
H75 C61 0.933 . S
H76 C67 0.930 . S
H77 C68 0.931 . S
H78 C69 0.931 . S
H79 C70 0.933 . S
Dy80 O83 2.307 . S
Dy80 O85 2.395 1_556 S
Dy80 O86 2.379 . S
Dy80 O88 2.339 . S
Dy80 O90 2.298 . S
Dy80 O94 2.275 1_556 S
Dy80 C102 2.738 . S
Dy81 O84 2.298 . S
Dy81 O87 2.275 1_554 S
Dy81 O89 2.307 . S
Dy81 O91 2.395 1_554 S
Dy81 O92 2.379 . S
Dy81 O95 2.339 . S
Dy81 C111 2.738 . S
C82 O94 1.254 . S
C82 O95 1.257 . S
O83 Dy80 2.307 . S
O83 C93 1.266 . S
O84 Dy81 2.298 . S
O84 C93 1.236 1_554 S
O85 Dy80 2.395 1_554 S
O85 C102 1.255 1_554 S
O86 Dy80 2.379 . S
O86 C102 1.249 . S
O87 Dy81 2.275 1_556 S
O87 C103 1.254 . S
O88 Dy80 2.339 . S
O88 C103 1.257 . S
O89 Dy81 2.307 . S
O89 C104 1.266 . S
O90 Dy80 2.298 . S
O90 C104 1.236 1_556 S
O91 Dy81 2.395 1_556 S
O91 C111 1.255 1_556 S
O92 Dy81 2.379 . S
O92 C111 1.249 . S
C93 O83 1.266 . S
C93 O84 1.236 1_556 S
O94 Dy80 2.275 1_554 S
O94 C82 1.254 . S
O95 Dy81 2.339 . S
O95 C82 1.257 . S
C96 C99 1.344 1_556 S
C96 C100 1.328 . S
C96 C102 1.516 . S
C97 C98 1.312 . S
C97 C101 1.312 1_554 S
C98 C97 1.312 . S
C98 C99 1.371 . S
C98 H112 0.930 . S
C99 C96 1.344 1_554 S
C99 C98 1.371 . S
C99 H113 0.931 . S
C100 C96 1.328 . S
C100 C101 1.433 . S
C100 H114 0.931 . S
C101 C97 1.312 1_556 S
C101 C100 1.433 . S
C101 H115 0.933 . S
C102 Dy80 2.738 . S
C102 O85 1.255 1_556 S
C102 O86 1.249 . S
C102 C96 1.516 . S
C103 O87 1.254 . S
C103 O88 1.257 . S
C104 O89 1.266 . S
C104 O90 1.236 1_554 S
C105 C108 1.344 1_554 S
C105 C109 1.328 . S
C105 C111 1.516 . S
C106 C107 1.305 . S
C106 C110 1.322 1_556 S
C107 C106 1.305 . S
C107 C108 1.371 . S
C107 H116 0.930 . S
C108 C105 1.344 1_556 S
C108 C107 1.371 . S
C108 H117 0.931 . S
C109 C105 1.328 . S
C109 C110 1.433 . S
C109 H118 0.931 . S
C110 C106 1.322 1_554 S
C110 C109 1.433 . S
C110 H119 0.933 . S
C111 Dy81 2.738 . S
C111 O91 1.255 1_554 S
C111 O92 1.249 . S
C111 C105 1.516 . S
H112 C98 0.930 . S
H113 C99 0.931 . S
H114 C100 0.931 . S
H115 C101 0.933 . S
H116 C107 0.930 . S
H117 C108 0.931 . S
H118 C109 0.931 . S
H119 C110 0.933 . S
H120 C126 0.930 . S
H121 C130 0.930 . S
H122 C135 0.929 . S
H123 C133 0.929 . S
H124 C128 0.929 . S
H125 C134 0.929 . S
C126 H120 0.930 . S
C126 C127 1.367 . S
C126 C134 1.378 . S
C127 C126 1.367 . S
C127 C135 1.433 1_455 S
C128 H124 0.929 . S
C128 C130 1.378 . S
C128 C132 1.350 1_655 S
C129 C132 1.463 . S
C129 C134 1.350 . S
C129 N137 1.427 1_455 S
C130 H121 0.930 . S
C130 C128 1.378 . S
C130 C131 1.367 . S
C131 C130 1.367 . S
C131 C133 1.433 1_655 S
C132 C128 1.350 1_455 S
C132 C129 1.463 . S
C132 N136 1.428 . S
C133 H123 0.929 . S
C133 C131 1.433 1_455 S
C133 N136 1.384 . S
C134 H125 0.929 . S
C134 C126 1.378 . S
C134 C129 1.350 . S
C135 H122 0.929 . S
C135 C127 1.433 1_655 S
C135 N137 1.384 . S
N136 C132 1.428 . S
N136 C133 1.384 . S
N137 C129 1.427 1_655 S
N137 C135 1.384 . S
H138 C144 0.930 . S
H139 C148 0.930 . S
H140 C153 0.929 . S
H141 C151 0.929 . S
H142 C146 0.929 . S
H143 C152 0.929 . S
C144 H138 0.930 . S
C144 C145 1.376 . S
C144 C152 1.378 . S
C145 C144 1.376 . S
C145 C153 1.426 1_565 S
C146 H142 0.929 . S
C146 C148 1.378 . S
C146 C150 1.380 . S
C147 C150 1.472 1_565 S
C147 C152 1.373 . S
C147 N155 1.399 1_565 S
C148 H139 0.930 . S
C148 C146 1.378 . S
C148 C149 1.384 . S
C149 C148 1.384 . S
C149 C151 1.419 1_545 S
C150 C146 1.380 . S
C150 C147 1.472 1_545 S
C150 N154 1.391 1_545 S
C151 H141 0.929 . S
C151 C149 1.419 1_565 S
C151 N154 1.384 . S
C152 H143 0.929 . S
C152 C144 1.378 . S
C152 C147 1.373 . S
C153 H140 0.929 . S
C153 C145 1.426 1_545 S
C153 N155 1.384 . S
N154 C150 1.391 1_565 S
N154 C151 1.384 . S
N155 C147 1.399 1_545 S
N155 C153 1.384 . S
H156 C162 0.930 . S
H157 C166 0.930 . S
H158 C171 0.929 . S
H159 C169 0.929 . S
H160 C164 0.929 . S
H161 C170 0.929 . S
C162 H156 0.930 . S
C162 C163 1.367 . S
C162 C170 1.378 . S
C163 C162 1.367 . S
C163 C171 1.433 . S
C164 H160 0.929 . S
C164 C166 1.378 . S
C164 C168 1.350 . S
C165 C168 1.463 . S
C165 C170 1.350 . S
C165 N173 1.427 . S
C166 H157 0.930 . S
C166 C164 1.378 . S
C166 C167 1.367 . S
C167 C166 1.367 . S
C167 C169 1.433 . S
C168 C164 1.350 . S
C168 C165 1.463 . S
C168 N172 1.427 . S
C169 H159 0.929 . S
C169 C167 1.433 . S
C169 N172 1.384 . S
C170 H161 0.929 . S
C170 C162 1.378 . S
C170 C165 1.350 . S
C171 H158 0.929 . S
C171 C163 1.433 . S
C171 N173 1.384 . S
N172 C168 1.427 . S
N172 C169 1.384 . S
N173 C165 1.427 . S
N173 C171 1.384 . S
H174 C180 0.930 . S
H175 C184 0.930 . S
H176 C189 0.929 . S
H177 C187 0.929 . S
H178 C182 0.929 . S
H179 C188 0.929 . S
C180 H174 0.930 . S
C180 C181 1.367 . S
C180 C188 1.378 . S
C181 C180 1.367 . S
C181 C189 1.433 1_556 S
C182 H178 0.929 . S
C182 C184 1.378 . S
C182 C186 1.350 1_554 S
C183 C186 1.463 . S
C183 C188 1.350 . S
C183 N191 1.427 1_556 S
C184 H175 0.930 . S
C184 C182 1.378 . S
C184 C185 1.367 1_554 S
C185 C184 1.367 1_556 S
C185 C187 1.433 . S
C186 C182 1.350 1_556 S
C186 C183 1.463 . S
C186 N190 1.427 . S
C187 H177 0.929 . S
C187 C185 1.433 . S
C187 N190 1.384 . S
C188 H179 0.929 . S
C188 C180 1.378 . S
C188 C183 1.350 . S
C189 H176 0.929 . S
C189 C181 1.433 1_554 S
C189 N191 1.384 . S
N190 C186 1.427 . S
N190 C187 1.384 . S
N191 C183 1.427 1_554 S
N191 C189 1.384 . S
H192 C198 0.930 . S
H193 C202 0.930 . S
H194 C207 0.929 . S
H195 C205 0.929 . S
H196 C200 0.929 . S
H197 C206 0.929 . S
C198 H192 0.930 . S
C198 C199 1.367 1_554 S
C198 C206 1.378 . S
C199 C198 1.367 1_556 S
C199 C207 1.433 . S
C200 H196 0.929 . S
C200 C202 1.378 . S
C200 C204 1.350 . S
C201 C204 1.463 . S
C201 C206 1.350 1_556 S
C201 N209 1.427 . S
C202 H193 0.930 . S
C202 C200 1.378 . S
C202 C203 1.367 . S
C203 C202 1.367 . S
C203 C205 1.433 1_556 S
C204 C200 1.350 . S
C204 C201 1.463 . S
C204 N208 1.427 1_556 S
C205 H195 0.929 . S
C205 C203 1.433 1_554 S
C205 N208 1.384 . S
C206 H197 0.929 . S
C206 C198 1.378 . S
C206 C201 1.350 1_554 S
C207 H194 0.929 . S
C207 C199 1.433 . S
C207 N209 1.384 . S
N208 C204 1.427 1_554 S
N208 C205 1.384 . S
N209 C201 1.427 . S
N209 C207 1.384 . S
H210 C216 0.930 . S
H211 C220 0.930 . S
H212 C225 0.929 . S
H213 C223 0.929 . S
H214 C218 0.929 . S
H215 C224 0.929 . S
C216 H210 0.930 . S
C216 C217 1.367 . S
C216 C224 1.378 . S
C217 C216 1.367 . S
C217 C225 1.433 1_556 S
C218 H214 0.929 . S
C218 C220 1.378 . S
C218 C222 1.350 . S
C219 C222 1.463 1_556 S
C219 C224 1.350 . S
C219 N227 1.427 1_556 S
C220 H211 0.930 . S
C220 C218 1.378 . S
C220 C221 1.367 . S
C221 C220 1.367 . S
C221 C223 1.433 1_554 S
C222 C218 1.350 . S
C222 C219 1.463 1_554 S
C222 N226 1.427 1_554 S
C223 H213 0.929 . S
C223 C221 1.433 1_556 S
C223 N226 1.384 . S
C224 H215 0.929 . S
C224 C216 1.378 . S
C224 C219 1.350 . S
C225 H212 0.929 . S
C225 C217 1.433 1_554 S
C225 N227 1.384 . S
N226 C222 1.427 1_556 S
N226 C223 1.384 . S
N227 C219 1.427 1_554 S
N227 C225 1.384 . S
H228 C234 0.930 . S
H229 C238 0.930 . S
H230 C243 0.929 . S
H231 C241 0.929 . S
H232 C236 0.929 . S
H233 C242 0.929 . S
C234 H228 0.930 . S
C234 C235 1.367 1_556 S
C234 C242 1.378 . S
C235 C234 1.367 1_554 S
C235 C243 1.433 . S
C236 H232 0.929 . S
C236 C238 1.378 . S
C236 C240 1.350 . S
C237 C240 1.463 . S
C237 C242 1.350 1_554 S
C237 N245 1.427 . S
C238 H229 0.930 . S
C238 C236 1.378 . S
C238 C239 1.367 . S
C239 C238 1.367 . S
C239 C241 1.433 1_554 S
C240 C236 1.350 . S
C240 C237 1.463 . S
C240 N244 1.427 1_554 S
C241 H231 0.929 . S
C241 C239 1.433 1_556 S
C241 N244 1.384 . S
C242 H233 0.929 . S
C242 C234 1.378 . S
C242 C237 1.350 1_556 S
C243 H230 0.929 . S
C243 C235 1.433 . S
C243 N245 1.384 . S
N244 C240 1.427 1_556 S
N244 C241 1.384 . S
N245 C237 1.427 . S
N245 C243 1.384 . S
H246 C252 0.930 . S
H247 C256 0.930 . S
H248 C261 0.929 . S
H249 C259 0.929 . S
H250 C254 0.929 . S
H251 C260 0.929 . S
C252 H246 0.930 . S
C252 C253 1.367 1_556 S
C252 C260 1.378 . S
C253 C252 1.367 1_554 S
C253 C261 1.433 . S
C254 H250 0.929 . S
C254 C256 1.378 . S
C254 C258 1.350 . S
C255 C258 1.463 . S
C255 C260 1.350 1_554 S
C255 N263 1.427 . S
C256 H247 0.930 . S
C256 C254 1.378 . S
C256 C257 1.367 . S
C257 C256 1.367 . S
C257 C259 1.433 1_554 S
C258 C254 1.350 . S
C258 C255 1.463 . S
C258 N262 1.427 1_554 S
C259 H249 0.929 . S
C259 C257 1.433 1_556 S
C259 N262 1.384 . S
C260 H251 0.929 . S
C260 C252 1.378 . S
C260 C255 1.350 1_556 S
C261 H248 0.929 . S
C261 C253 1.433 . S
C261 N263 1.384 . S
N262 C258 1.427 1_556 S
N262 C259 1.384 . S
N263 C255 1.427 . S
N263 C261 1.384 . S
H264 C270 0.930 . S
H265 C274 0.930 . S
H266 C279 0.929 . S
H267 C277 0.929 . S
H268 C272 0.929 . S
H269 C278 0.929 . S
C270 H264 0.930 . S
C270 C271 1.367 . S
C270 C278 1.378 . S
C271 C270 1.367 . S
C271 C279 1.433 1_556 S
C272 H268 0.929 . S
C272 C274 1.378 . S
C272 C276 1.350 . S
C273 C276 1.463 1_556 S
C273 C278 1.350 . S
C273 N281 1.427 1_556 S
C274 H265 0.930 . S
C274 C272 1.378 . S
C274 C275 1.367 . S
C275 C274 1.367 . S
C275 C277 1.433 1_554 S
C276 C272 1.350 . S
C276 C273 1.463 1_554 S
C276 N280 1.427 1_554 S
C277 H267 0.929 . S
C277 C275 1.433 1_556 S
C277 N280 1.384 . S
C278 H269 0.929 . S
C278 C270 1.378 . S
C278 C273 1.350 . S
C279 H266 0.929 . S
C279 C271 1.433 1_554 S
C279 N281 1.384 . S
N280 C276 1.427 1_556 S
N280 C277 1.384 . S
N281 C273 1.427 1_554 S
N281 C279 1.384 . S
C127 C2 1.479 . S
C131 C23 1.479 1_655 S
C145 C42 1.465 1_565 S
C149 C63 1.462 1_545 S
C163 C103 1.483 . S
C167 C82 1.483 . S
C181 C24 2.522 . S
C185 C93 2.497 . S
C199 C66 0.743 . S
C203 C26 0.750 . S
C217 C64 1.792 . S
C221 C106 1.797 1_554 S
C235 C13 2.519 . S
C239 C104 2.500 . S
C253 C17 0.750 . S
C257 C57 0.753 . S
C271 C97 1.800 1_556 S
C275 C53 1.794 . S
