# Generated by pormake.
# Topology crb, (4)-cn, num edge types: 1
# Building blocks:
#     Node 0, Type 0, BuildingBlock: UXUYUI_clean_sbu_0, # of connection points: 4
#     Node 1, Type 0, BuildingBlock: UXUYUI_clean_sbu_0, # of connection points: 4
#     Node 2, Type 0, BuildingBlock: UXUYUI_clean_sbu_0, # of connection points: 4
#     Node 3, Type 0, BuildingBlock: UXUYUI_clean_sbu_0, # of connection points: 4
#     Node 4, Type 0, BuildingBlock: UXUYUI_clean_sbu_0, # of connection points: 4
#     Node 5, Type 0, BuildingBlock: UXUYUI_clean_sbu_0, # of connection points: 4
#     Node 6, Type 0, BuildingBlock: UXUYUI_clean_sbu_0, # of connection points: 4
#     Node 7, Type 0, BuildingBlock: UXUYUI_clean_sbu_0, # of connection points: 4
#     Edge 8, Type (0, 0), BuildingBlock: AJUNOK_clean_linker_0, # of connection points: 2
#     Edge 9, Type (0, 0), BuildingBlock: AJUNOK_clean_linker_0, # of connection points: 2
#     Edge 10, Type (0, 0), BuildingBlock: AJUNOK_clean_linker_0, # of connection points: 2
#     Edge 11, Type (0, 0), BuildingBlock: AJUNOK_clean_linker_0, # of connection points: 2
#     Edge 12, Type (0, 0), BuildingBlock: AJUNOK_clean_linker_0, # of connection points: 2
#     Edge 13, Type (0, 0), BuildingBlock: AJUNOK_clean_linker_0, # of connection points: 2
#     Edge 14, Type (0, 0), BuildingBlock: AJUNOK_clean_linker_0, # of connection points: 2
#     Edge 15, Type (0, 0), BuildingBlock: AJUNOK_clean_linker_0, # of connection points: 2
#     Edge 16, Type (0, 0), BuildingBlock: AJUNOK_clean_linker_0, # of connection points: 2
#     Edge 17, Type (0, 0), BuildingBlock: AJUNOK_clean_linker_0, # of connection points: 2
#     Edge 18, Type (0, 0), BuildingBlock: AJUNOK_clean_linker_0, # of connection points: 2
#     Edge 19, Type (0, 0), BuildingBlock: AJUNOK_clean_linker_0, # of connection points: 2
#     Edge 20, Type (0, 0), BuildingBlock: AJUNOK_clean_linker_0, # of connection points: 2
#     Edge 21, Type (0, 0), BuildingBlock: AJUNOK_clean_linker_0, # of connection points: 2
#     Edge 22, Type (0, 0), BuildingBlock: AJUNOK_clean_linker_0, # of connection points: 2
#     Edge 23, Type (0, 0), BuildingBlock: AJUNOK_clean_linker_0, # of connection points: 2
# Relax obj value: 0.060
# Max RMSD: 0.078
# Mean RMSD: 0.078
data_MOF--net-crb--node1-UXUYUI_clean_sbu_0--edge1-AJUNOK_clean_linker_0
_symmetry_space_group_name_H-M    P1
_symmetry_Int_Tables_number       1
_symmetry_cell_setting            triclinic
loop_
_symmetry_equiv_pos_as_xyz
'x, y, z'
_cell_length_a     50.733074
_cell_length_b     50.720455
_cell_length_c     30.103095
_cell_angle_alpha  89.933341
_cell_angle_beta   90.085463
_cell_angle_gamma 89.94658
loop_
_atom_site_label
_atom_site_type_symbol
_atom_site_fract_x
_atom_site_fract_y
_atom_site_fract_z
_atom_type_partial_charge
Li0 Li 0.32139 0.31663 0.05809 0.0
Li1 Li 0.35965 0.32495 0.01455 0.0
Li2 Li 0.32698 0.35811 0.01556 0.0
Li3 Li 0.32083 0.31546 0.97261 0.0
C4 C 0.34052 0.35902 0.10443 0.0
N5 N 0.32547 0.38672 0.17935 0.0
C6 C 0.35893 0.36473 0.13767 0.0
C7 C 0.31445 0.36745 0.10943 0.0
C8 C 0.35095 0.37873 0.17527 0.0
C9 C 0.30723 0.38142 0.14746 0.0
C10 C 0.35705 0.27275 0.02139 0.0
C11 C 0.38252 0.23647 0.99258 0.0
N12 N 0.39545 0.23465 0.03209 0.0
C13 C 0.37039 0.27039 0.06185 0.0
C14 C 0.36298 0.25558 0.98653 0.0
C15 C 0.38983 0.25105 0.06653 0.0
C16 C 0.28257 0.28906 0.10706 0.0
N17 N 0.30653 0.30093 0.10987 0.0
C18 C 0.3089 0.29175 0.18769 0.0
C19 C 0.31999 0.302 0.14894 0.0
C20 C 0.28396 0.27991 0.18596 0.0
C21 C 0.27088 0.27823 0.14495 0.0
H22 H 0.27246 0.28821 0.07543 0.0
H23 H 0.33931 0.31089 0.15012 0.0
C24 C 0.41131 0.33373 0.0447 0.0
N25 N 0.3973 0.32024 0.01369 0.0
C26 C 0.43876 0.33232 0.04544 0.0
C27 C 0.43708 0.30325 0.982 0.0
C28 C 0.40959 0.30508 0.9827 0.0
C29 C 0.45202 0.31701 0.01371 0.0
H30 H 0.40116 0.3459 0.06855 0.0
H31 H 0.39812 0.29483 0.9579 0.0
C32 C 0.27108 0.34169 1.00788 0.0
N33 N 0.21997 0.35808 0.99172 0.0
C34 C 0.26301 0.34783 0.96468 0.0
C35 C 0.25307 0.34371 0.04284 0.0
C36 C 0.23712 0.35613 0.95719 0.0
C37 C 0.22735 0.3521 0.034 0.0
C38 C 0.36788 0.34944 0.93863 0.0
C39 C 0.38474 0.36999 0.95079 0.0
C40 C 0.37429 0.33344 0.90245 0.0
C41 C 0.40795 0.374 0.92682 0.0
C42 C 0.39765 0.33814 0.87923 0.0
N43 N 0.41387 0.35812 0.89184 0.0
C44 C 0.34092 0.41021 0.03297 0.0
C45 C 0.29901 0.40699 0.99863 0.0
C46 C 0.33896 0.43762 0.03427 0.0
N47 N 0.32109 0.39546 0.01549 0.0
C48 C 0.29622 0.43442 0.99924 0.0
C49 C 0.31632 0.45005 0.01748 0.0
H50 H 0.35842 0.40064 0.04573 0.0
H51 H 0.28361 0.39506 0.98446 0.0
C52 C 0.29497 0.27485 0.9251 0.0
N53 N 0.30534 0.29948 0.92181 0.0
C54 C 0.28349 0.26288 0.888 0.0
C55 C 0.29364 0.30184 0.84498 0.0
C56 C 0.30497 0.313 0.88281 0.0
C57 C 0.28258 0.2765 0.84733 0.0
H58 H 0.29572 0.2645 0.95652 0.0
H59 H 0.31333 0.33259 0.88121 0.0
O60 O 0.34813 0.34511 0.06756 0.0
O61 O 0.33823 0.29175 0.01597 0.0
O62 O 0.29623 0.33304 0.01579 0.0
O63 O 0.34527 0.34494 0.96214 0.0
H64 H 0.37917 0.35826 0.13471 0.0
H65 H 0.29996 0.36345 0.08417 0.0
H66 H 0.365 0.38322 0.20124 0.0
H67 H 0.28712 0.38807 0.15161 0.0
H68 H 0.38744 0.22313 0.96583 0.0
H69 H 0.36601 0.28358 0.08909 0.0
H70 H 0.35276 0.25718 0.95505 0.0
H71 H 0.40049 0.24912 0.09752 0.0
H72 H 0.31976 0.29292 0.21863 0.0
H73 H 0.25164 0.26911 0.14244 0.0
H74 H 0.44951 0.3432 0.07053 0.0
H75 H 0.44652 0.29173 0.95626 0.0
H76 H 0.27671 0.3467 0.93734 0.0
H77 H 0.25885 0.33886 0.07648 0.0
H78 H 0.23068 0.36111 0.92394 0.0
H79 H 0.21324 0.3538 0.06076 0.0
H80 H 0.38012 0.38249 0.97878 0.0
H81 H 0.36161 0.31728 0.89284 0.0
H82 H 0.42128 0.38969 0.93608 0.0
H83 H 0.40296 0.3258 0.85135 0.0
H84 H 0.35521 0.44899 0.04759 0.0
H85 H 0.2785 0.44332 0.98578 0.0
H86 H 0.2757 0.24309 0.89098 0.0
H87 H 0.29326 0.31302 0.81431 0.0
Li88 Li 0.69298 0.35913 0.01604 0.0
Li89 Li 0.69989 0.31914 0.05543 0.0
Li90 Li 0.69982 0.31974 0.97109 0.0
Li91 Li 0.65872 0.32591 0.0172 0.0
C92 C 0.74503 0.35408 1.00776 0.0
N93 N 0.78542 0.38992 0.99603 0.0
C94 C 0.75213 0.37111 0.04224 0.0
C95 C 0.75856 0.3552 0.96738 0.0
C96 C 0.77256 0.38913 0.03562 0.0
C97 C 0.77892 0.37346 0.96211 0.0
C98 C 0.67307 0.34558 0.11284 0.0
C99 C 0.66037 0.32498 0.18185 0.0
N100 N 0.6752 0.3428 0.2045 0.0
C101 C 0.68816 0.36372 0.13684 0.0
C102 C 0.65899 0.32609 0.13554 0.0
C103 C 0.68896 0.362 0.18315 0.0
C104 C 0.68226 0.41066 0.0449 0.0
N105 N 0.6971 0.3969 0.01534 0.0
C106 C 0.71297 0.43708 0.98327 0.0
C107 C 0.7122 0.40954 0.98464 0.0
C108 C 0.69777 0.45171 1.01339 0.0
C109 C 0.68254 0.43815 0.04486 0.0
H110 H 0.66969 0.4003 0.06797 0.0
H111 H 0.7231 0.3983 0.96037 0.0
C112 C 0.70953 0.27734 0.11655 0.0
N113 N 0.71585 0.30268 0.10633 0.0
C114 C 0.71959 0.26551 0.15498 0.0
C115 C 0.74282 0.3059 0.17135 0.0
C116 C 0.73256 0.31681 0.13239 0.0
C117 C 0.73613 0.28 0.18339 0.0
H118 H 0.69658 0.26632 0.09499 0.0
H119 H 0.73747 0.33682 0.12355 0.0
C120 C 0.66281 0.3688 0.94611 0.0
N121 N 0.64652 0.41639 0.91073 0.0
C122 C 0.64122 0.38205 0.96433 0.0
C123 C 0.67606 0.37969 0.9098 0.0
C124 C 0.63331 0.40612 0.94602 0.0
C125 C 0.66751 0.40378 0.89238 0.0
C126 C 0.66498 0.27424 1.00581 0.0
C127 C 0.66293 0.26298 0.96358 0.0
C128 C 0.64887 0.26509 0.04015 0.0
C129 C 0.64457 0.24292 0.95631 0.0
C130 C 0.63072 0.24504 0.03153 0.0
N131 N 0.62895 0.23447 0.99013 0.0
C132 C 0.73507 0.28862 0.92084 0.0
C133 C 0.70251 0.31085 0.87841 0.0
C134 C 0.74575 0.2775 0.88239 0.0
N135 N 0.71392 0.305 0.9181 0.0
C136 C 0.71265 0.30032 0.83911 0.0
C137 C 0.73448 0.28327 0.84079 0.0
H138 H 0.74363 0.28422 0.95294 0.0
H139 H 0.6855 0.32368 0.87726 0.0
C140 C 0.60717 0.33189 0.05043 0.0
N141 N 0.62141 0.32092 0.01699 0.0
C142 C 0.57972 0.33028 0.05032 0.0
C143 C 0.58196 0.30611 0.98127 0.0
C144 C 0.6094 0.30844 0.98247 0.0
C145 C 0.56682 0.31724 0.01544 0.0
H146 H 0.61707 0.34249 0.07668 0.0
H147 H 0.6211 0.30074 0.95546 0.0
O148 O 0.72517 0.33618 1.01357 0.0
O149 O 0.67245 0.34657 0.06738 0.0
O150 O 0.67136 0.34567 0.96457 0.0
O151 O 0.68267 0.2941 1.01345 0.0
H152 H 0.74161 0.37086 0.07341 0.0
H153 H 0.75334 0.34221 0.94031 0.0
H154 H 0.7781 0.40258 0.06188 0.0
H155 H 0.78951 0.37459 0.931 0.0
H156 H 0.64969 0.3099 0.19978 0.0
H157 H 0.69953 0.37869 0.11993 0.0
H158 H 0.6473 0.31184 0.11758 0.0
H159 H 0.70068 0.37581 0.20209 0.0
H160 H 0.72476 0.44681 0.95818 0.0
H161 H 0.6708 0.44868 0.06908 0.0
H162 H 0.71459 0.24521 0.16219 0.0
H163 H 0.7555 0.31778 0.19223 0.0
H164 H 0.63093 0.37405 0.99276 0.0
H165 H 0.69308 0.36993 0.89575 0.0
H166 H 0.61676 0.41669 0.95999 0.0
H167 H 0.67768 0.41253 0.86448 0.0
H168 H 0.67524 0.26972 0.9366 0.0
H169 H 0.65019 0.27352 0.07303 0.0
H170 H 0.64269 0.23411 0.92375 0.0
H171 H 0.61801 0.23791 0.05773 0.0
H172 H 0.7625 0.26435 0.88519 0.0
H173 H 0.70367 0.30573 0.80774 0.0
H174 H 0.56865 0.33928 0.07706 0.0
H175 H 0.57263 0.29642 0.95333 0.0
Li176 Li 0.65926 0.69328 0.01397 0.0
Li177 Li 0.69884 0.69932 0.05572 0.0
Li178 Li 0.69955 0.69971 0.97116 0.0
Li179 Li 0.69211 0.6585 0.01633 0.0
C180 C 0.66645 0.7461 1.00774 0.0
N181 N 0.63382 0.78927 0.99668 0.0
C182 C 0.6494 0.75374 0.04182 0.0
C183 C 0.66698 0.76047 0.96809 0.0
C184 C 0.63302 0.7756 0.03555 0.0
C185 C 0.65032 0.78223 0.96315 0.0
C186 C 0.66991 0.67237 0.11094 0.0
C187 C 0.68808 0.65948 0.18181 0.0
N188 N 0.66862 0.67309 0.20271 0.0
C189 C 0.65003 0.68618 0.13312 0.0
C190 C 0.68904 0.65882 0.13545 0.0
C191 C 0.64973 0.68631 0.17953 0.0
C192 C 0.60743 0.68052 0.03678 0.0
N193 N 0.6216 0.69798 1.01222 0.0
C194 C 0.58191 0.71763 0.98456 0.0
C195 C 0.6094 0.71606 0.98574 0.0
C196 C 0.5669 0.70005 1.01011 0.0
C197 C 0.57995 0.68121 0.03625 0.0
H198 H 0.6175 0.66569 0.05627 0.0
H199 H 0.62089 0.72885 0.96467 0.0
C200 C 0.74026 0.71083 0.11702 0.0
N201 N 0.71438 0.71507 0.10751 0.0
C202 C 0.75158 0.7218 0.15517 0.0
C203 C 0.7094 0.7411 0.17317 0.0
C204 C 0.69903 0.73007 0.1345 0.0
C205 C 0.7361 0.73728 0.18375 0.0
H206 H 0.75215 0.69899 0.09494 0.0
H207 H 0.67856 0.73319 0.12643 0.0
C208 C 0.65009 0.66425 0.94336 0.0
N209 N 0.60238 0.65008 0.90604 0.0
C210 C 0.63738 0.6412 0.95708 0.0
C211 C 0.63857 0.68006 0.91058 0.0
C212 C 0.61326 0.63439 0.93782 0.0
C213 C 0.61444 0.67256 0.89212 0.0
C214 C 0.74405 0.66409 1.00827 0.0
C215 C 0.75556 0.66123 0.96639 0.0
C216 C 0.75287 0.64853 0.04366 0.0
C217 C 0.77557 0.64263 0.96052 0.0
C218 C 0.7729 0.63012 0.03641 0.0
N219 N 0.78373 0.62756 0.99534 0.0
C220 C 0.7341 0.73289 0.92334 0.0
C221 C 0.70726 0.70542 0.87855 0.0
C222 C 0.74556 0.74409 0.88559 0.0
N223 N 0.71519 0.7141 0.91912 0.0
C224 C 0.71796 0.7163 0.83993 0.0
C225 C 0.73722 0.7361 0.84311 0.0
H226 H 0.74025 0.73915 0.9561 0.0
H227 H 0.69257 0.69009 0.87614 0.0
C228 C 0.68475 0.60716 0.0494 0.0
N229 N 0.69657 0.62111 0.01641 0.0
C230 C 0.68536 0.57967 0.0491 0.0
C231 C 0.71058 0.58126 0.98109 0.0
C232 C 0.70922 0.60878 0.98243 0.0
C233 C 0.69818 0.56643 0.01441 0.0
H234 H 0.67415 0.61734 0.07532 0.0
H235 H 0.7177 0.62029 0.95582 0.0
O236 O 0.68283 0.72491 1.01323 0.0
O237 O 0.6708 0.67231 0.06549 0.0
O238 O 0.6733 0.67166 0.96285 0.0
O239 O 0.72426 0.68203 0.01457 0.0
H240 H 0.64833 0.74258 0.07233 0.0
H241 H 0.68004 0.75486 0.94136 0.0
H242 H 0.61956 0.78159 0.06149 0.0
H243 H 0.65049 0.79351 0.93262 0.0
H244 H 0.70285 0.64919 0.20118 0.0
H245 H 0.63525 0.69707 0.11477 0.0
H246 H 0.70456 0.64806 0.11886 0.0
H247 H 0.63456 0.69704 0.19712 0.0
H248 H 0.57247 0.73196 0.96307 0.0
H249 H 0.56899 0.66716 0.05607 0.0
H250 H 0.77228 0.71844 0.162 0.0
H251 H 0.69652 0.75224 0.19481 0.0
H252 H 0.64586 0.62887 0.98272 0.0
H253 H 0.64788 0.69823 0.90017 0.0
H254 H 0.60314 0.61668 0.94829 0.0
H255 H 0.6052 0.68471 0.86697 0.0
H256 H 0.74899 0.67309 0.93862 0.0
H257 H 0.74426 0.65055 0.0763 0.0
H258 H 0.78458 0.64012 0.92824 0.0
H259 H 0.77981 0.61784 0.06344 0.0
H260 H 0.76092 0.7587 0.88966 0.0
H261 H 0.71099 0.7095 0.80792 0.0
H262 H 0.67565 0.56883 0.07543 0.0
H263 H 0.72043 0.57164 0.95361 0.0
Li264 Li 0.32435 0.65644 1.0083 0.0
Li265 Li 0.31893 0.69714 0.05165 0.0
Li266 Li 0.31885 0.69728 0.96792 0.0
Li267 Li 0.36014 0.69096 1.00882 0.0
C268 C 0.27237 0.66384 1.01248 0.0
N269 N 0.23051 0.62918 0.01847 0.0
C270 C 0.25827 0.66153 0.05214 0.0
C271 C 0.26493 0.64879 0.97568 0.0
C272 C 0.23722 0.64384 0.05455 0.0
C273 C 0.2438 0.63129 0.97942 0.0
C274 C 0.35509 0.66611 0.10116 0.0
C275 C 0.38126 0.68095 0.16326 0.0
N276 N 0.37319 0.65969 0.18718 0.0
C277 C 0.34739 0.64419 0.12615 0.0
C278 C 0.37245 0.68446 0.11967 0.0
C279 C 0.35662 0.64138 0.16965 0.0
C280 C 0.33056 0.60447 0.97706 0.0
N281 N 0.31856 0.61928 1.00874 0.0
C282 C 0.30132 0.58057 0.04351 0.0
C283 C 0.30401 0.60794 0.0415 0.0
C284 C 0.31402 0.56474 1.01183 0.0
C285 C 0.32846 0.57703 0.97787 0.0
H286 H 0.34233 0.61392 0.95175 0.0
H287 H 0.29491 0.62011 0.0666 0.0
C288 C 0.29743 0.73804 0.10443 0.0
N289 N 0.304 0.71204 0.10416 0.0
C290 C 0.28701 0.74958 0.14271 0.0
C291 C 0.28948 0.7072 0.17923 0.0
C292 C 0.29981 0.69649 0.14028 0.0
C293 C 0.28324 0.73414 0.18091 0.0
H294 H 0.30044 0.74987 0.07496 0.0
H295 H 0.30413 0.67569 0.13872 0.0
C296 C 0.34916 0.66918 0.91336 0.0
N297 N 0.35442 0.66901 0.822 0.0
C298 C 0.37088 0.68127 0.89344 0.0
C299 C 0.33031 0.65667 0.88685 0.0
C300 C 0.37315 0.68104 0.84719 0.0
C301 C 0.33326 0.65691 0.84072 0.0
C302 C 0.34994 0.74499 0.01837 0.0
C303 C 0.35492 0.76307 0.98431 0.0
C304 C 0.35849 0.75056 0.0615 0.0
C305 C 0.36895 0.78608 0.99376 0.0
C306 C 0.37244 0.77379 0.06965 0.0
N307 N 0.37739 0.7909 0.03588 0.0
C308 C 0.27735 0.7109 0.90925 0.0
C309 C 0.31941 0.72636 0.88722 0.0
C310 C 0.26576 0.72212 0.87159 0.0
N311 N 0.30373 0.71314 0.91627 0.0
C312 C 0.30867 0.73788 0.84914 0.0
C313 C 0.28148 0.73596 0.84109 0.0
H314 H 0.26527 0.7004 0.9329 0.0
H315 H 0.34032 0.72792 0.89358 0.0
C316 C 0.41189 0.67659 0.02963 0.0
N317 N 0.39747 0.69556 1.00888 0.0
C318 C 0.43933 0.67802 0.03036 0.0
C319 C 0.4368 0.7181 0.98709 0.0
C320 C 0.40933 0.71601 0.98754 0.0
C321 C 0.45216 0.69898 1.00891 0.0
H322 H 0.40204 0.66018 0.04541 0.0
H323 H 0.39755 0.73031 0.96984 0.0
O324 O 0.29319 0.68088 1.00963 0.0
O325 O 0.34614 0.66919 0.0585 0.0
O326 O 0.3464 0.66953 0.95856 0.0
O327 O 0.33627 0.72231 1.00961 0.0
H328 H 0.26354 0.67321 0.0808 0.0
H329 H 0.27544 0.6505 0.94462 0.0
H330 H 0.22623 0.64176 0.08512 0.0
H331 H 0.23796 0.6194 0.95128 0.0
H332 H 0.39464 0.69507 0.17799 0.0
H333 H 0.33427 0.62959 0.11228 0.0
H334 H 0.37939 0.70102 0.10044 0.0
H335 H 0.35062 0.62463 0.18946 0.0
H336 H 0.28965 0.57187 0.06981 0.0
H337 H 0.33868 0.56549 0.95301 0.0
H338 H 0.28224 0.7704 0.14265 0.0
H339 H 0.28609 0.69447 0.20757 0.0
H340 H 0.38574 0.69089 0.9134 0.0
H341 H 0.31355 0.64696 0.90171 0.0
H342 H 0.38978 0.69048 0.83132 0.0
H343 H 0.31872 0.64746 0.8198 0.0
H344 H 0.34815 0.75934 0.95087 0.0
H345 H 0.35411 0.7373 0.08856 0.0
H346 H 0.37311 0.80012 0.96762 0.0
H347 H 0.37922 0.77827 0.10288 0.0
H348 H 0.24479 0.71977 0.86616 0.0
H349 H 0.32143 0.74844 0.82646 0.0
H350 H 0.45041 0.66284 0.04752 0.0
H351 H 0.4459 0.73413 0.96897 0.0
Li352 Li 0.8195 0.81837 0.55421 0.0
Li353 Li 0.861 0.82569 0.51365 0.0
Li354 Li 0.82684 0.85844 0.51283 0.0
Li355 Li 0.82041 0.81848 0.47291 0.0
C356 C 0.84412 0.86612 0.59367 0.0
N357 N 0.83766 0.90945 0.64818 0.0
C358 C 0.86546 0.88267 0.60278 0.0
C359 C 0.81952 0.87156 0.61245 0.0
C360 C 0.86178 0.9045 0.63037 0.0
C361 C 0.81665 0.89356 0.63991 0.0
C362 C 0.8491 0.77337 0.53831 0.0
C363 C 0.85691 0.72707 0.55099 0.0
N364 N 0.87071 0.73309 0.58839 0.0
C365 C 0.86336 0.77912 0.57689 0.0
C366 C 0.84582 0.74716 0.52524 0.0
C367 C 0.87413 0.75847 0.60174 0.0
C368 C 0.78267 0.78746 0.60245 0.0
N369 N 0.80455 0.80278 0.60606 0.0
C370 C 0.80541 0.79668 0.68481 0.0
C371 C 0.8162 0.80724 0.64608 0.0
C372 C 0.78264 0.7811 0.68221 0.0
C373 C 0.7714 0.7762 0.64038 0.0
H374 H 0.77395 0.78411 0.57013 0.0
H375 H 0.83385 0.81909 0.64797 0.0
C376 C 0.91239 0.84402 0.51746 0.0
N377 N 0.89834 0.82144 0.51246 0.0
C378 C 0.93984 0.84356 0.51541 0.0
C379 C 0.93796 0.79662 0.50203 0.0
C380 C 0.91046 0.79798 0.50448 0.0
C381 C 0.95296 0.81967 0.50724 0.0
H382 H 0.90218 0.86248 0.52236 0.0
H383 H 0.89887 0.7804 0.49921 0.0
C384 C 0.77461 0.84685 0.48852 0.0
N385 N 0.73404 0.86814 0.43873 0.0
C386 C 0.78018 0.86242 0.45137 0.0
C387 C 0.74842 0.84211 0.50037 0.0
C388 C 0.75939 0.87299 0.42661 0.0
C389 C 0.72818 0.85306 0.47478 0.0
C390 C 0.86274 0.83962 0.4259 0.0
C391 C 0.87218 0.85962 0.39825 0.0
C392 C 0.86893 0.81333 0.41653 0.0
C393 C 0.88762 0.853 0.36153 0.0
C394 C 0.88443 0.80752 0.37951 0.0
N395 N 0.89338 0.8273 0.353 0.0
C396 C 0.84322 0.91016 0.49887 0.0
C397 C 0.79952 0.90753 0.52636 0.0
C398 C 0.84211 0.93764 0.49904 0.0
N399 N 0.82215 0.89576 0.51248 0.0
C400 C 0.79752 0.93501 0.52693 0.0
C401 C 0.81909 0.95041 0.51344 0.0
H402 H 0.86104 0.90022 0.48846 0.0
H403 H 0.78313 0.8956 0.53739 0.0
C404 C 0.79324 0.77946 0.42287 0.0
N405 N 0.80503 0.80349 0.4206 0.0
C406 C 0.78162 0.76842 0.38502 0.0
C407 C 0.79485 0.80687 0.34323 0.0
C408 C 0.80593 0.81725 0.38183 0.0
C409 C 0.78218 0.78228 0.34456 0.0
H410 H 0.79273 0.76897 0.45417 0.0
H411 H 0.81527 0.83637 0.38075 0.0
O412 O 0.84701 0.84513 0.56552 0.0
O413 O 0.83815 0.79315 0.51345 0.0
O414 O 0.79455 0.83617 0.51334 0.0
O415 O 0.84778 0.84597 0.46215 0.0
H416 H 0.88465 0.87877 0.58873 0.0
H417 H 0.80267 0.85921 0.60522 0.0
H418 H 0.87811 0.91752 0.63759 0.0
H419 H 0.79769 0.89809 0.6544 0.0
H420 H 0.85454 0.70668 0.54126 0.0
H421 H 0.86622 0.79926 0.58748 0.0
H422 H 0.8348 0.74241 0.49548 0.0
H423 H 0.88522 0.76263 0.63164 0.0
H424 H 0.81484 0.8005 0.71646 0.0
H425 H 0.75385 0.76419 0.63721 0.0
H426 H 0.95068 0.86172 0.52025 0.0
H427 H 0.94736 0.77787 0.49528 0.0
H428 H 0.80032 0.8664 0.44178 0.0
H429 H 0.74381 0.83009 0.52907 0.0
H430 H 0.76342 0.88508 0.39778 0.0
H431 H 0.70781 0.84956 0.48357 0.0
H432 H 0.8676 0.88007 0.40513 0.0
H433 H 0.86185 0.79755 0.43749 0.0
H434 H 0.89505 0.86828 0.33982 0.0
H435 H 0.88935 0.78727 0.37186 0.0
H436 H 0.85923 0.9488 0.4887 0.0
H437 H 0.77927 0.94409 0.53759 0.0
H438 H 0.77202 0.74941 0.38749 0.0
H439 H 0.79638 0.81794 0.31256 0.0
Li440 Li 0.19484 0.85971 0.50704 0.0
Li441 Li 0.20093 0.81927 0.55098 0.0
Li442 Li 0.20128 0.81878 0.46759 0.0
Li443 Li 0.1596 0.82461 0.50777 0.0
C444 C 0.24696 0.8534 0.51118 0.0
N445 N 0.28809 0.88898 0.51546 0.0
C446 C 0.26178 0.85579 0.55013 0.0
C447 C 0.25325 0.86886 0.47423 0.0
C448 C 0.28246 0.87394 0.55166 0.0
C449 C 0.27405 0.88682 0.47711 0.0
C450 C 0.16383 0.85089 0.59899 0.0
C451 C 0.13506 0.83909 0.65957 0.0
N452 N 0.1445 0.85978 0.68347 0.0
C453 C 0.17293 0.87227 0.6239 0.0
C454 C 0.14448 0.83436 0.61672 0.0
C455 C 0.16306 0.87633 0.66664 0.0
C456 C 0.18514 0.91088 0.47592 0.0
N457 N 0.19938 0.89705 0.50634 0.0
C458 C 0.21688 0.93696 0.53662 0.0
C459 C 0.215 0.90948 0.53655 0.0
C460 C 0.20217 0.95168 0.50584 0.0
C461 C 0.18617 0.93837 0.47518 0.0
H462 H 0.17256 0.90056 0.45274 0.0
H463 H 0.2256 0.89811 0.56114 0.0
C464 C 0.22244 0.77867 0.60455 0.0
N465 N 0.216 0.8047 0.60378 0.0
C466 C 0.2329 0.76728 0.643 0.0
C467 C 0.23097 0.8099 0.67862 0.0
C468 C 0.22047 0.82044 0.63954 0.0
C469 C 0.23698 0.7829 0.68086 0.0
H470 H 0.21934 0.76669 0.57533 0.0
H471 H 0.21624 0.84126 0.63756 0.0
C472 C 0.16977 0.84504 0.41236 0.0
N473 N 0.16308 0.84275 0.32137 0.0
C474 C 0.14861 0.83107 0.39425 0.0
C475 C 0.18735 0.85811 0.38426 0.0
C476 C 0.1456 0.83009 0.34814 0.0
C477 C 0.1837 0.85663 0.33833 0.0
C478 C 0.17149 0.77078 0.52088 0.0
C479 C 0.16861 0.7505 0.48986 0.0
C480 C 0.16184 0.7674 0.56396 0.0
C481 C 0.15576 0.7273 0.50231 0.0
C482 C 0.14912 0.74391 0.57515 0.0
N483 N 0.14634 0.72452 0.54433 0.0
C484 C 0.24264 0.80684 0.4078 0.0
C485 C 0.20132 0.78816 0.38887 0.0
C486 C 0.25422 0.79581 0.37009 0.0
N487 N 0.21663 0.80296 0.41631 0.0
C488 C 0.21206 0.77685 0.35068 0.0
C489 C 0.23886 0.78053 0.34106 0.0
H490 H 0.25443 0.81851 0.43027 0.0
H491 H 0.18074 0.78521 0.39656 0.0
C492 C 0.10847 0.84249 0.51695 0.0
N493 N 0.1223 0.82027 0.50729 0.0
C494 C 0.08099 0.84227 0.5162 0.0
C495 C 0.08235 0.7962 0.49583 0.0
C496 C 0.10988 0.79736 0.49667 0.0
C497 C 0.06763 0.81896 0.50524 0.0
H498 H 0.11889 0.86046 0.525 0.0
H499 H 0.1212 0.78009 0.48812 0.0
O500 O 0.22651 0.83587 0.50917 0.0
O501 O 0.17322 0.84673 0.55697 0.0
O502 O 0.17326 0.8459 0.45739 0.0
O503 O 0.1839 0.79368 0.50909 0.0
H504 H 0.25734 0.84382 0.57889 0.0
H505 H 0.24205 0.86717 0.44379 0.0
H506 H 0.29403 0.87609 0.58166 0.0
H507 H 0.279 0.89905 0.44888 0.0
H508 H 0.12016 0.82638 0.67373 0.0
H509 H 0.18767 0.88545 0.61055 0.0
H510 H 0.13656 0.81821 0.59752 0.0
H511 H 0.17012 0.89267 0.68642 0.0
H512 H 0.22904 0.94663 0.56129 0.0
H513 H 0.17447 0.94915 0.45111 0.0
H514 H 0.23748 0.74642 0.6433 0.0
H515 H 0.23464 0.82281 0.70658 0.0
H516 H 0.1348 0.82087 0.41553 0.0
H517 H 0.20369 0.86919 0.39777 0.0
H518 H 0.12941 0.81922 0.33364 0.0
H519 H 0.19724 0.86651 0.31616 0.0
H520 H 0.17616 0.75266 0.45648 0.0
H521 H 0.16442 0.7826 0.58866 0.0
H522 H 0.15329 0.71149 0.47857 0.0
H523 H 0.14155 0.74105 0.60838 0.0
H524 H 0.27488 0.79942 0.36344 0.0
H525 H 0.19962 0.76511 0.32915 0.0
H526 H 0.07028 0.86012 0.52422 0.0
H527 H 0.07266 0.77792 0.487 0.0
Li528 Li 0.19885 0.19763 0.55666 0.0
Li529 Li 0.15771 0.19333 0.51616 0.0
Li530 Li 0.19071 0.1579 0.51534 0.0
Li531 Li 0.19817 0.19938 0.47314 0.0
C532 C 0.16745 0.17247 0.61093 0.0
N533 N 0.16273 0.17632 0.70211 0.0
C534 C 0.14693 0.18715 0.62954 0.0
C535 C 0.18545 0.15958 0.63867 0.0
C536 C 0.14489 0.18887 0.67573 0.0
C537 C 0.18278 0.16184 0.68469 0.0
C538 C 0.17233 0.24786 0.50297 0.0
C539 C 0.15479 0.27584 0.44516 0.0
N540 N 0.1534 0.29615 0.47452 0.0
C541 C 0.17089 0.26906 0.53249 0.0
C542 C 0.16435 0.25131 0.45889 0.0
C543 C 0.16119 0.29329 0.51751 0.0
C544 C 0.23973 0.2055 0.62015 0.0
N545 N 0.21463 0.21214 0.60883 0.0
C546 C 0.21049 0.23885 0.67383 0.0
C547 C 0.20006 0.22866 0.6345 0.0
C548 C 0.23619 0.23196 0.68683 0.0
C549 C 0.25096 0.21525 0.65923 0.0
H550 H 0.25099 0.19254 0.59899 0.0
H551 H 0.18019 0.23371 0.62462 0.0
C552 C 0.10618 0.17622 0.52512 0.0
N553 N 0.12026 0.19865 0.51806 0.0
C554 C 0.07872 0.1767 0.52399 0.0
C555 C 0.08046 0.22375 0.51161 0.0
C556 C 0.10799 0.22229 0.51215 0.0
C557 C 0.06566 0.20064 0.5168 0.0
H558 H 0.11639 0.15781 0.53084 0.0
H559 H 0.11934 0.24 0.5075 0.0
C560 C 0.24249 0.16222 0.50787 0.0
N561 N 0.28081 0.12427 0.49491 0.0
C562 C 0.25466 0.15969 0.46647 0.0
C563 C 0.24993 0.14558 0.54277 0.0
C564 C 0.27399 0.14036 0.46058 0.0
C565 C 0.26928 0.12646 0.53551 0.0
C566 C 0.148 0.16384 0.44397 0.0
C567 C 0.13892 0.13816 0.45117 0.0
C568 C 0.13328 0.18098 0.41724 0.0
C569 C 0.11512 0.1302 0.43203 0.0
C570 C 0.10953 0.1723 0.39883 0.0
N571 N 0.10101 0.14731 0.40656 0.0
C572 C 0.18571 0.10616 0.54854 0.0
C573 C 0.20724 0.10889 0.47882 0.0
C574 C 0.18768 0.07872 0.54813 0.0
N575 N 0.19548 0.12061 0.51427 0.0
C576 C 0.20999 0.08149 0.47735 0.0
C577 C 0.2 0.06613 0.51227 0.0
H578 H 0.17594 0.11591 0.57583 0.0
H579 H 0.21416 0.1208 0.45143 0.0
C580 C 0.23526 0.23004 0.42597 0.0
N581 N 0.21374 0.21433 0.42153 0.0
C582 C 0.24709 0.24116 0.38847 0.0
C583 C 0.21424 0.21986 0.34269 0.0
C584 C 0.20326 0.2089 0.38098 0.0
C585 C 0.2364 0.23635 0.34612 0.0
H586 H 0.24333 0.23374 0.45866 0.0
H587 H 0.18626 0.19617 0.37843 0.0
O588 O 0.17015 0.17105 0.56579 0.0
O589 O 0.182 0.22408 0.51709 0.0
O590 O 0.2233 0.18081 0.51411 0.0
O591 O 0.17098 0.17221 0.46336 0.0
H592 H 0.13291 0.19738 0.60859 0.0
H593 H 0.20151 0.14824 0.6248 0.0
H594 H 0.1292 0.20028 0.69061 0.0
H595 H 0.19669 0.15215 0.70656 0.0
H596 H 0.14847 0.27872 0.41116 0.0
H597 H 0.17721 0.26687 0.56661 0.0
H598 H 0.16538 0.23523 0.4356 0.0
H599 H 0.1599 0.30984 0.54005 0.0
H600 H 0.19866 0.25217 0.69363 0.0
H601 H 0.27087 0.20955 0.66806 0.0
H602 H 0.06777 0.15857 0.5285 0.0
H603 H 0.07083 0.24255 0.50622 0.0
H604 H 0.24911 0.17235 0.43906 0.0
H605 H 0.24058 0.14715 0.57493 0.0
H606 H 0.2835 0.1381 0.42868 0.0
H607 H 0.27508 0.11332 0.56211 0.0
H608 H 0.14987 0.12458 0.47179 0.0
H609 H 0.13988 0.20088 0.41112 0.0
H610 H 0.1078 0.11045 0.43763 0.0
H611 H 0.09784 0.18546 0.37846 0.0
H612 H 0.17961 0.06742 0.57546 0.0
H613 H 0.21916 0.07236 0.44877 0.0
H614 H 0.2646 0.2531 0.3926 0.0
H615 H 0.20534 0.21567 0.31075 0.0
Li616 Li 0.8199 0.20036 0.5552 0.0
Li617 Li 0.82608 0.15734 0.51617 0.0
Li618 Li 0.85907 0.19113 0.5136 0.0
Li619 Li 0.8193 0.19803 0.47323 0.0
C620 C 0.86861 0.16969 0.59056 0.0
N621 N 0.91615 0.16582 0.635 0.0
C622 C 0.88212 0.14568 0.59191 0.0
C623 C 0.87914 0.19168 0.6122 0.0
C624 C 0.90616 0.14414 0.61446 0.0
C625 C 0.90324 0.18933 0.63439 0.0
C626 C 0.77222 0.17332 0.53645 0.0
C627 C 0.72512 0.16714 0.5374 0.0
N628 N 0.72682 0.15789 0.57975 0.0
C629 C 0.77354 0.16376 0.57997 0.0
C630 C 0.74786 0.1751 0.51497 0.0
C631 C 0.75034 0.15608 0.60131 0.0
C632 C 0.78532 0.23502 0.60067 0.0
N633 N 0.80456 0.21661 0.6061 0.0
C634 C 0.80115 0.21983 0.68511 0.0
C635 C 0.81251 0.2088 0.64723 0.0
C636 C 0.78114 0.23875 0.68059 0.0
C637 C 0.77321 0.24639 0.63773 0.0
H638 H 0.77926 0.24069 0.56753 0.0
H639 H 0.82741 0.19372 0.65067 0.0
C640 C 0.84308 0.10573 0.50597 0.0
N641 N 0.8212 0.11989 0.51658 0.0
C642 C 0.84224 0.07824 0.50496 0.0
C643 C 0.79624 0.08022 0.52537 0.0
C644 C 0.79789 0.10773 0.52553 0.0
C645 C 0.81866 0.06519 0.51523 0.0
H646 H 0.86125 0.11588 0.49824 0.0
H647 H 0.7805 0.11919 0.53246 0.0
C648 C 0.84874 0.24312 0.48608 0.0
N649 N 0.87058 0.28184 0.43305 0.0
C650 C 0.86337 0.23622 0.44852 0.0
C651 C 0.84521 0.2697 0.49665 0.0
C652 C 0.87424 0.25608 0.42214 0.0
C653 C 0.85642 0.28899 0.46944 0.0
C654 C 0.83906 0.15472 0.4278 0.0
C655 C 0.85837 0.14594 0.39825 0.0
C656 C 0.81269 0.14787 0.42069 0.0
C657 C 0.85098 0.13051 0.36191 0.0
C658 C 0.8061 0.1324 0.38396 0.0
N659 N 0.82522 0.12412 0.35557 0.0
C660 C 0.91076 0.17399 0.49963 0.0
C661 C 0.90844 0.21832 0.52417 0.0
C662 C 0.93824 0.17504 0.49897 0.0
N663 N 0.89651 0.19541 0.51215 0.0
C664 C 0.93591 0.22036 0.52339 0.0
C665 C 0.95119 0.19855 0.51049 0.0
H666 H 0.90072 0.15591 0.4909 0.0
H667 H 0.89667 0.23495 0.53472 0.0
C668 C 0.78024 0.22566 0.42459 0.0
N669 N 0.80367 0.21282 0.42095 0.0
C670 C 0.76831 0.23678 0.38705 0.0
C671 C 0.80486 0.22126 0.34281 0.0
C672 C 0.81618 0.2107 0.38118 0.0
C673 C 0.78053 0.23442 0.34534 0.0
H674 H 0.77092 0.2274 0.45676 0.0
H675 H 0.83501 0.20085 0.37911 0.0
O676 O 0.84541 0.17181 0.56759 0.0
O677 O 0.79454 0.18152 0.51516 0.0
O678 O 0.83774 0.2241 0.51245 0.0
O679 O 0.84619 0.16976 0.46356 0.0
H680 H 0.8742 0.12844 0.57561 0.0
H681 H 0.86904 0.21048 0.61113 0.0
H682 H 0.9169 0.12572 0.61557 0.0
H683 H 0.91174 0.20624 0.65091 0.0
H684 H 0.70612 0.16834 0.52116 0.0
H685 H 0.79228 0.16209 0.59693 0.0
H686 H 0.74655 0.18252 0.48131 0.0
H687 H 0.75104 0.14862 0.63497 0.0
H688 H 0.8076 0.2133 0.71764 0.0
H689 H 0.75797 0.2611 0.63299 0.0
H690 H 0.85991 0.06728 0.49682 0.0
H691 H 0.77757 0.0708 0.53255 0.0
H692 H 0.86639 0.21576 0.43985 0.0
H693 H 0.8339 0.27535 0.52561 0.0
H694 H 0.88562 0.25102 0.393 0.0
H695 H 0.85385 0.30965 0.47724 0.0
H696 H 0.87887 0.15104 0.40338 0.0
H697 H 0.79743 0.15439 0.44314 0.0
H698 H 0.86573 0.12361 0.33874 0.0
H699 H 0.78578 0.12698 0.37803 0.0
H700 H 0.9492 0.15747 0.49028 0.0
H701 H 0.94509 0.23883 0.53267 0.0
H702 H 0.74994 0.24741 0.3908 0.0
H703 H 0.81498 0.219 0.3114 0.0
C704 C 0.30763 0.49279 0.97832 0.0
C705 C 0.31417 0.47924 0.01763 0.0
C706 C 0.30724 0.52043 0.97687 0.0
C707 C 0.31312 0.53553 0.0148 0.0
H708 H 0.30345 0.48196 0.94812 0.0
H709 H 0.30244 0.53007 0.94576 0.0
S710 S 0.33048 0.50952 0.12636 0.0
N711 N 0.32566 0.48294 0.0958 0.0
N712 N 0.32538 0.53485 0.09293 0.0
C713 C 0.31916 0.52221 0.05455 0.0
C714 C 0.31962 0.49409 0.05597 0.0
C715 C 0.49561 0.33998 0.01744 0.0
C716 C 0.48132 0.31634 1.01306 0.0
C717 C 0.52321 0.34004 0.01801 0.0
C718 C 0.53763 0.31649 0.01391 0.0
H719 H 0.48538 0.35866 0.02021 0.0
H720 H 0.53337 0.35871 0.02136 0.0
S721 S 0.50989 0.24919 1.00359 0.0
N722 N 0.48378 0.26861 1.00606 0.0
N723 N 0.53577 0.26886 1.00638 0.0
C724 C 0.5237 0.29272 1.0093 0.0
C725 C 0.49554 0.29261 1.00903 0.0
C726 C 0.72128 0.4952 1.00956 0.0
C727 C 0.69748 0.48099 1.01172 0.0
C728 C 0.7214 0.52289 1.00974 0.0
C729 C 0.69774 0.53726 1.01234 0.0
H730 H 0.73996 0.48486 1.00864 0.0
H731 H 0.74013 0.53312 1.00883 0.0
S732 S 0.63013 0.50961 1.01319 0.0
N733 N 0.6496 0.4835 1.01245 0.0
N734 N 0.64992 0.53544 1.01358 0.0
C735 C 0.67383 0.52334 1.01321 0.0
C736 C 0.67368 0.49523 1.01271 0.0
C737 C 0.49607 0.67721 0.999 0.0
C738 C 0.48144 0.70016 1.00821 0.0
C739 C 0.52367 0.67743 0.99936 0.0
C740 C 0.53772 0.70065 1.00865 0.0
H741 H 0.48611 0.65889 0.99126 0.0
H742 H 0.53413 0.6593 0.99211 0.0
S743 S 0.50903 0.76575 0.03672 0.0
N744 N 0.48321 0.74658 0.02829 0.0
N745 N 0.53518 0.74702 0.0282 0.0
C746 C 0.52345 0.72378 0.01763 0.0
C747 C 0.4953 0.72354 0.01757 0.0
C748 C 0.8266 0.99428 0.47734 0.0
C749 C 0.81783 0.97968 0.51425 0.0
C750 C 0.82656 0.02191 0.47778 0.0
C751 C 0.81761 0.03598 0.51505 0.0
H752 H 0.83354 0.98427 0.44781 0.0
H753 H 0.83352 0.03237 0.44867 0.0
S754 S 0.79404 1.00724 0.62106 0.0
N755 N 0.80096 0.98143 0.58978 0.0
N756 N 0.80055 0.0334 0.59028 0.0
C757 C 0.80873 0.02169 0.55212 0.0
C758 C 0.8089 0.99354 0.5518 0.0
C759 C 0.02422 0.79969 0.52791 0.0
C760 C 0.03844 0.81855 0.50346 0.0
C761 C 0.99656 0.79989 0.5284 0.0
C762 C 0.98218 0.81889 0.50433 0.0
H763 H 0.03457 0.7851 0.54766 0.0
H764 H 0.98638 0.78546 0.54863 0.0
S765 S 0.0102 0.8704 0.43062 0.0
N766 N 0.0362 0.85532 0.4518 0.0
N767 N 0.98427 0.85552 0.45224 0.0
C768 C 0.99621 0.83723 0.47847 0.0
C769 C 0.02432 0.8371 0.47816 0.0
C770 C 0.1779 0.02222 0.51368 0.0
C771 C 0.20124 0.037 0.51046 0.0
C772 C 0.1784 0.99463 0.51168 0.0
C773 C 0.20231 0.98086 0.50712 0.0
H774 H 0.15907 0.03209 0.51732 0.0
H775 H 0.15997 0.98396 0.51427 0.0
S776 S 0.26887 0.01039 0.49772 0.0
N777 N 0.24888 0.03597 0.50252 0.0
N778 N 0.24987 0.98397 0.49933 0.0
C779 C 0.22581 0.99538 0.50414 0.0
C780 C 0.22526 0.02351 0.50556 0.0
C781 C 0.99393 0.21172 0.54633 0.0
C782 C 0.98049 0.20006 0.51035 0.0
C783 C 0.02157 0.21238 0.54786 0.0
C784 C 0.03666 0.20121 0.51367 0.0
H785 H 0.98304 0.21987 0.57403 0.0
H786 H 0.03122 0.22113 0.57638 0.0
S787 S 0.01158 0.17048 0.41048 0.0
N788 N 0.98476 0.17893 0.43808 0.0
N789 N 0.03667 0.17946 0.442 0.0
C790 C 0.02366 0.19 0.4772 0.0
C791 C 0.99557 0.18958 0.47529 0.0
C792 C 0.2522 0.2324 0.26739 0.0
C793 C 0.24844 0.24803 0.30554 0.0
C794 C 0.26349 0.24289 0.22871 0.0
C795 C 0.27166 0.26932 0.22687 0.0
H796 H 0.24668 0.21177 0.26756 0.0
H797 H 0.26621 0.23012 0.20025 0.0
S798 S 0.26441 0.3192 0.31591 0.0
N799 N 0.25234 0.29187 0.33771 0.0
N800 N 0.27416 0.31129 0.26534 0.0
C801 C 0.26782 0.28526 0.26442 0.0
C802 C 0.25609 0.27469 0.30367 0.0
C803 C 0.7736 0.27131 0.23583 0.0
C804 C 0.74678 0.2682 0.22504 0.0
C805 C 0.78422 0.26045 0.27476 0.0
C806 C 0.76849 0.24602 0.30461 0.0
H807 H 0.78661 0.28202 0.21375 0.0
H808 H 0.80495 0.26354 0.28166 0.0
S809 S 0.69698 0.23239 0.29217 0.0
N810 N 0.70452 0.2502 0.24804 0.0
N811 N 0.7247 0.22896 0.32041 0.0
C812 C 0.74161 0.24278 0.29431 0.0
C813 C 0.73074 0.25398 0.25472 0.0
C814 C 0.77451 0.7447 0.29183 0.0
C815 C 0.76983 0.77111 0.30383 0.0
C816 C 0.76369 0.73399 0.2529 0.0
C817 C 0.74767 0.74922 0.22453 0.0
H818 H 0.78694 0.7323 0.31239 0.0
H819 H 0.76772 0.71352 0.2452 0.0
S820 S 0.72914 0.81935 0.2411 0.0
N821 N 0.74748 0.81204 0.28474 0.0
N822 N 0.728 0.79224 0.21089 0.0
C823 C 0.74282 0.77565 0.23617 0.0
C824 C 0.75371 0.78651 0.2759 0.0
C825 C 0.23851 0.77223 0.25908 0.0
C826 C 0.25064 0.76861 0.30071 0.0
C827 C 0.24932 0.76126 0.22043 0.0
C828 C 0.27248 0.746 0.22211 0.0
H829 H 0.22065 0.78385 0.25631 0.0
H830 H 0.23929 0.76444 0.18909 0.0
S831 S 0.31177 0.7306 0.32289 0.0
N832 N 0.28696 0.74858 0.34135 0.0
N833 N 0.30741 0.72817 0.26868 0.0
C834 C 0.2848 0.74224 0.26351 0.0
C835 C 0.27388 0.75353 0.3028 0.0
C836 C 0.27038 0.75493 0.72032 0.0
C837 C 0.24786 0.77112 0.7222 0.0
C838 C 0.28116 0.74375 0.75891 0.0
C839 C 0.2697 0.74815 0.80079 0.0
H840 H 0.27992 0.7511 0.6888 0.0
H841 H 0.29846 0.73135 0.75587 0.0
S842 S 0.21048 0.78887 0.82372 0.0
N843 N 0.21425 0.79067 0.76933 0.0
N844 N 0.23479 0.77006 0.84193 0.0
C845 C 0.24716 0.76425 0.80314 0.0
C846 C 0.23622 0.77568 0.76387 0.0
C847 C 0.28404 0.26497 0.76646 0.0
C848 C 0.27049 0.26441 0.80722 0.0
C849 C 0.27294 0.25417 0.72789 0.0
C850 C 0.24777 0.24256 0.72849 0.0
H851 H 0.30346 0.27375 0.76438 0.0
H852 H 0.28399 0.25529 0.69718 0.0
S853 S 0.20424 0.23574 0.82676 0.0
N854 N 0.23052 0.25125 0.84582 0.0
N855 N 0.20988 0.2305 0.77349 0.0
C856 C 0.23408 0.24166 0.76907 0.0
C857 C 0.24541 0.25263 0.80839 0.0
C858 C 0.77328 0.27205 0.79277 0.0
C859 C 0.74581 0.27189 0.79942 0.0
C860 C 0.78451 0.26141 0.7542 0.0
C861 C 0.7687 0.25036 0.72065 0.0
H862 H 0.78622 0.28071 0.8174 0.0
H863 H 0.80573 0.26204 0.75041 0.0
S864 S 0.69601 0.24322 0.72302 0.0
N865 N 0.70322 0.25833 0.77005 0.0
N866 N 0.72438 0.23876 0.69726 0.0
C867 C 0.74127 0.24989 0.72687 0.0
C868 C 0.72982 0.26055 0.76629 0.0
C869 C 0.75595 0.73198 0.76617 0.0
C870 C 0.74861 0.7481 0.80222 0.0
C871 C 0.76667 0.74279 0.72726 0.0
C872 C 0.77069 0.77009 0.72311 0.0
H873 H 0.7537 0.71078 0.76822 0.0
H874 H 0.77227 0.72966 0.70051 0.0
S875 S 0.75291 0.82115 0.80582 0.0
N876 N 0.74458 0.79304 0.82968 0.0
N877 N 0.76537 0.81316 0.75701 0.0
C878 C 0.7632 0.78647 0.7585 0.0
C879 C 0.75204 0.77553 0.79793 0.0
loop_
_geom_bond_atom_site_label_1
_geom_bond_atom_site_label_2
_geom_bond_distance
_geom_bond_site_symmetry_2
_ccdc_geom_bond_type
Li0 N17 1.990 . S
Li0 O60 1.956 . S
Li0 O61 1.981 . S
Li0 O62 1.954 1_554 S
Li1 N25 1.991 . S
Li1 O60 1.959 1_556 S
Li1 O61 1.956 1_556 S
Li1 O63 1.972 . S
Li2 N47 1.991 . S
Li2 O60 1.976 . S
Li2 O62 1.956 1_554 S
Li2 O63 1.955 1_554 S
Li3 N53 1.990 . S
Li3 O61 1.950 1_556 S
Li3 O62 1.977 . S
Li3 O63 1.956 . S
C4 C6 1.348 . S
C4 C7 1.356 . S
C4 O60 1.325 . S
N5 C8 1.314 . S
N5 C9 1.279 . S
C6 C4 1.348 . S
C6 C8 1.353 . S
C6 H64 0.929 . S
C7 C4 1.356 . S
C7 C9 1.358 . S
C7 H65 0.930 . S
C8 N5 1.314 . S
C8 C6 1.353 . S
C8 H66 0.930 . S
C9 N5 1.279 . S
C9 C7 1.358 . S
C9 H67 0.930 . S
C10 C13 1.345 . S
C10 C14 1.358 1_554 S
C10 O61 1.325 . S
C11 N12 1.279 . S
C11 C14 1.358 . S
C11 H68 0.930 . S
N12 C11 1.279 . S
N12 C15 1.314 1_556 S
C13 C10 1.345 . S
C13 C15 1.353 . S
C13 H69 0.929 . S
C14 C10 1.358 1_556 S
C14 C11 1.358 . S
C14 H70 0.930 . S
C15 N12 1.314 1_554 S
C15 C13 1.353 . S
C15 H71 0.930 . S
C16 N17 1.314 . S
C16 C21 1.353 . S
C16 H22 0.930 . S
N17 Li0 1.990 . S
N17 C16 1.314 . S
N17 C19 1.279 . S
C18 C19 1.358 . S
C18 C20 1.356 . S
C18 H72 0.930 . S
C19 N17 1.279 . S
C19 C18 1.358 . S
C19 H23 0.930 . S
C20 C18 1.356 . S
C20 C21 1.348 . S
C21 C16 1.353 . S
C21 C20 1.348 . S
C21 H73 0.929 . S
H22 C16 0.930 . S
H23 C19 0.930 . S
C24 N25 1.314 . S
C24 C26 1.353 . S
C24 H30 0.930 . S
N25 Li1 1.991 . S
N25 C24 1.314 . S
N25 C28 1.279 1_556 S
C26 C24 1.353 . S
C26 C29 1.346 1_556 S
C26 H74 0.929 . S
C27 C28 1.358 . S
C27 C29 1.357 . S
C27 H75 0.930 . S
C28 N25 1.279 1_554 S
C28 C27 1.358 . S
C28 H31 0.930 . S
C29 C26 1.346 1_554 S
C29 C27 1.357 . S
H30 C24 0.930 . S
H31 C28 0.930 . S
C32 C34 1.345 1_554 S
C32 C35 1.358 . S
C32 O62 1.325 1_554 S
N33 C36 1.314 1_554 S
N33 C37 1.279 . S
C34 C32 1.345 1_556 S
C34 C36 1.353 . S
C34 H76 0.929 . S
C35 C32 1.358 . S
C35 C37 1.358 . S
C35 H77 0.930 . S
C36 N33 1.314 1_556 S
C36 C34 1.353 . S
C36 H78 0.930 . S
C37 N33 1.279 . S
C37 C35 1.358 . S
C37 H79 0.930 . S
C38 C39 1.348 . S
C38 C40 1.356 . S
C38 O63 1.325 . S
C39 C38 1.348 . S
C39 C41 1.353 . S
C39 H80 0.929 . S
C40 C38 1.356 . S
C40 C42 1.358 . S
C40 H81 0.930 . S
C41 C39 1.353 . S
C41 N43 1.314 . S
C41 H82 0.930 . S
C42 C40 1.358 . S
C42 N43 1.279 . S
C42 H83 0.930 . S
N43 C41 1.314 . S
N43 C42 1.279 . S
C44 C46 1.353 . S
C44 N47 1.314 . S
C44 H50 0.930 . S
C45 N47 1.279 1_556 S
C45 C48 1.358 . S
C45 H51 0.930 . S
C46 C44 1.353 . S
C46 C49 1.348 1_554 S
C46 H84 0.929 . S
N47 Li2 1.991 . S
N47 C44 1.314 . S
N47 C45 1.279 1_554 S
C48 C45 1.358 . S
C48 C49 1.356 . S
C48 H85 0.930 . S
C49 C46 1.348 1_556 S
C49 C48 1.356 . S
H50 C44 0.930 . S
H51 C45 0.930 . S
C52 N53 1.314 . S
C52 C54 1.353 . S
C52 H58 0.930 . S
N53 Li3 1.990 . S
N53 C52 1.314 . S
N53 C56 1.279 . S
C54 C52 1.353 . S
C54 C57 1.348 . S
C54 H86 0.929 . S
C55 C56 1.358 . S
C55 C57 1.356 . S
C55 H87 0.930 . S
C56 N53 1.279 . S
C56 C55 1.358 . S
C56 H59 0.930 . S
C57 C54 1.348 . S
C57 C55 1.356 . S
H58 C52 0.930 . S
H59 C56 0.930 . S
O60 Li0 1.956 . S
O60 Li1 1.959 1_554 S
O60 Li2 1.976 . S
O60 C4 1.325 . S
O61 Li0 1.981 . S
O61 Li1 1.956 1_554 S
O61 Li3 1.950 1_554 S
O61 C10 1.325 . S
O62 Li0 1.954 1_556 S
O62 Li2 1.956 1_556 S
O62 Li3 1.977 . S
O62 C32 1.325 1_556 S
O63 Li1 1.972 . S
O63 Li2 1.955 1_556 S
O63 Li3 1.956 . S
O63 C38 1.325 . S
H64 C6 0.929 . S
H65 C7 0.930 . S
H66 C8 0.930 . S
H67 C9 0.930 . S
H68 C11 0.930 . S
H69 C13 0.929 . S
H70 C14 0.930 . S
H71 C15 0.930 . S
H72 C18 0.930 . S
H73 C21 0.929 . S
H74 C26 0.929 . S
H75 C27 0.930 . S
H76 C34 0.929 . S
H77 C35 0.930 . S
H78 C36 0.930 . S
H79 C37 0.930 . S
H80 C39 0.929 . S
H81 C40 0.930 . S
H82 C41 0.930 . S
H83 C42 0.930 . S
H84 C46 0.929 . S
H85 C48 0.930 . S
H86 C54 0.929 . S
H87 C55 0.930 . S
Li88 N105 1.991 . S
Li88 O148 1.956 1_556 S
Li88 O149 1.959 1_556 S
Li88 O150 1.972 . S
Li89 N113 1.990 . S
Li89 O148 1.981 . S
Li89 O149 1.956 . S
Li89 O151 1.954 1_554 S
Li90 N135 1.990 . S
Li90 O148 1.950 1_556 S
Li90 O150 1.956 . S
Li90 O151 1.977 . S
Li91 N141 1.991 . S
Li91 O149 1.976 . S
Li91 O150 1.955 1_554 S
Li91 O151 1.956 1_554 S
C92 C94 1.345 . S
C92 C95 1.358 1_554 S
C92 O148 1.325 . S
N93 C96 1.314 1_556 S
N93 C97 1.279 . S
C94 C92 1.345 . S
C94 C96 1.353 . S
C94 H152 0.929 . S
C95 C92 1.358 1_556 S
C95 C97 1.358 . S
C95 H153 0.930 . S
C96 N93 1.314 1_554 S
C96 C94 1.353 . S
C96 H154 0.930 . S
C97 N93 1.279 . S
C97 C95 1.358 . S
C97 H155 0.930 . S
C98 C101 1.348 . S
C98 C102 1.356 . S
C98 O149 1.325 . S
C99 N100 1.279 . S
C99 C102 1.358 . S
C99 H156 0.930 . S
N100 C99 1.279 . S
N100 C103 1.314 . S
C101 C98 1.348 . S
C101 C103 1.353 . S
C101 H157 0.929 . S
C102 C98 1.356 . S
C102 C99 1.358 . S
C102 H158 0.930 . S
C103 N100 1.314 . S
C103 C101 1.353 . S
C103 H159 0.930 . S
C104 N105 1.314 . S
C104 C109 1.353 . S
C104 H110 0.930 . S
N105 Li88 1.991 . S
N105 C104 1.314 . S
N105 C107 1.279 1_556 S
C106 C107 1.358 . S
C106 C108 1.357 . S
C106 H160 0.930 . S
C107 N105 1.279 1_554 S
C107 C106 1.358 . S
C107 H111 0.930 . S
C108 C106 1.357 . S
C108 C109 1.346 1_554 S
C109 C104 1.353 . S
C109 C108 1.346 1_556 S
C109 H161 0.929 . S
H110 C104 0.930 . S
H111 C107 0.930 . S
C112 N113 1.314 . S
C112 C114 1.353 . S
C112 H118 0.930 . S
N113 Li89 1.990 . S
N113 C112 1.314 . S
N113 C116 1.279 . S
C114 C112 1.353 . S
C114 C117 1.348 . S
C114 H162 0.929 . S
C115 C116 1.358 . S
C115 C117 1.356 . S
C115 H163 0.930 . S
C116 N113 1.279 . S
C116 C115 1.358 . S
C116 H119 0.930 . S
C117 C114 1.348 . S
C117 C115 1.356 . S
H118 C112 0.930 . S
H119 C116 0.930 . S
C120 C122 1.348 . S
C120 C123 1.356 . S
C120 O150 1.325 . S
N121 C124 1.314 . S
N121 C125 1.279 . S
C122 C120 1.348 . S
C122 C124 1.353 . S
C122 H164 0.929 . S
C123 C120 1.356 . S
C123 C125 1.358 . S
C123 H165 0.930 . S
C124 N121 1.314 . S
C124 C122 1.353 . S
C124 H166 0.930 . S
C125 N121 1.279 . S
C125 C123 1.358 . S
C125 H167 0.930 . S
C126 C127 1.345 1_554 S
C126 C128 1.358 . S
C126 O151 1.325 1_554 S
C127 C126 1.345 1_556 S
C127 C129 1.353 . S
C127 H168 0.929 . S
C128 C126 1.358 . S
C128 C130 1.358 . S
C128 H169 0.930 . S
C129 C127 1.353 . S
C129 N131 1.314 1_556 S
C129 H170 0.930 . S
C130 C128 1.358 . S
C130 N131 1.279 . S
C130 H171 0.930 . S
N131 C129 1.314 1_554 S
N131 C130 1.279 . S
C132 C134 1.353 . S
C132 N135 1.314 . S
C132 H138 0.930 . S
C133 N135 1.279 . S
C133 C136 1.358 . S
C133 H139 0.930 . S
C134 C132 1.353 . S
C134 C137 1.348 . S
C134 H172 0.929 . S
N135 Li90 1.990 . S
N135 C132 1.314 . S
N135 C133 1.279 . S
C136 C133 1.358 . S
C136 C137 1.356 . S
C136 H173 0.930 . S
C137 C134 1.348 . S
C137 C136 1.356 . S
H138 C132 0.930 . S
H139 C133 0.930 . S
C140 N141 1.314 . S
C140 C142 1.353 . S
C140 H146 0.930 . S
N141 Li91 1.991 . S
N141 C140 1.314 . S
N141 C144 1.279 1_554 S
C142 C140 1.353 . S
C142 C145 1.348 1_554 S
C142 H174 0.929 . S
C143 C144 1.358 . S
C143 C145 1.356 . S
C143 H175 0.930 . S
C144 N141 1.279 1_556 S
C144 C143 1.358 . S
C144 H147 0.930 . S
C145 C142 1.348 1_556 S
C145 C143 1.356 . S
H146 C140 0.930 . S
H147 C144 0.930 . S
O148 Li88 1.956 1_554 S
O148 Li89 1.981 . S
O148 Li90 1.950 1_554 S
O148 C92 1.325 . S
O149 Li88 1.959 1_554 S
O149 Li89 1.956 . S
O149 Li91 1.976 . S
O149 C98 1.325 . S
O150 Li88 1.972 . S
O150 Li90 1.956 . S
O150 Li91 1.955 1_556 S
O150 C120 1.325 . S
O151 Li89 1.954 1_556 S
O151 Li90 1.977 . S
O151 Li91 1.956 1_556 S
O151 C126 1.325 1_556 S
H152 C94 0.929 . S
H153 C95 0.930 . S
H154 C96 0.930 . S
H155 C97 0.930 . S
H156 C99 0.930 . S
H157 C101 0.929 . S
H158 C102 0.930 . S
H159 C103 0.930 . S
H160 C106 0.930 . S
H161 C109 0.929 . S
H162 C114 0.929 . S
H163 C115 0.930 . S
H164 C122 0.929 . S
H165 C123 0.930 . S
H166 C124 0.930 . S
H167 C125 0.930 . S
H168 C127 0.929 . S
H169 C128 0.930 . S
H170 C129 0.930 . S
H171 C130 0.930 . S
H172 C134 0.929 . S
H173 C136 0.930 . S
H174 C142 0.929 . S
H175 C143 0.930 . S
Li176 N193 1.991 . S
Li176 O236 1.956 1_556 S
Li176 O237 1.959 1_556 S
Li176 O238 1.972 . S
Li177 N201 1.990 . S
Li177 O236 1.981 . S
Li177 O237 1.956 . S
Li177 O239 1.954 1_554 S
Li178 N223 1.990 . S
Li178 O236 1.950 1_556 S
Li178 O238 1.956 . S
Li178 O239 1.977 . S
Li179 N229 1.991 . S
Li179 O237 1.976 . S
Li179 O238 1.955 1_554 S
Li179 O239 1.956 1_554 S
C180 C182 1.345 . S
C180 C183 1.358 1_554 S
C180 O236 1.325 . S
N181 C184 1.314 1_556 S
N181 C185 1.279 . S
C182 C180 1.345 . S
C182 C184 1.353 . S
C182 H240 0.929 . S
C183 C180 1.358 1_556 S
C183 C185 1.358 . S
C183 H241 0.930 . S
C184 N181 1.314 1_554 S
C184 C182 1.353 . S
C184 H242 0.930 . S
C185 N181 1.279 . S
C185 C183 1.358 . S
C185 H243 0.930 . S
C186 C189 1.348 . S
C186 C190 1.356 . S
C186 O237 1.325 . S
C187 N188 1.279 . S
C187 C190 1.358 . S
C187 H244 0.930 . S
N188 C187 1.279 . S
N188 C191 1.314 . S
C189 C186 1.348 . S
C189 C191 1.353 . S
C189 H245 0.929 . S
C190 C186 1.356 . S
C190 C187 1.358 . S
C190 H246 0.930 . S
C191 N188 1.314 . S
C191 C189 1.353 . S
C191 H247 0.930 . S
C192 N193 1.314 . S
C192 C197 1.353 . S
C192 H198 0.930 . S
N193 Li176 1.991 . S
N193 C192 1.314 . S
N193 C195 1.279 1_556 S
C194 C195 1.358 . S
C194 C196 1.357 . S
C194 H248 0.930 . S
C195 N193 1.279 1_554 S
C195 C194 1.358 . S
C195 H199 0.930 . S
C196 C194 1.357 . S
C196 C197 1.346 1_554 S
C197 C192 1.353 . S
C197 C196 1.346 1_556 S
C197 H249 0.929 . S
H198 C192 0.930 . S
H199 C195 0.930 . S
C200 N201 1.314 . S
C200 C202 1.353 . S
C200 H206 0.930 . S
N201 Li177 1.990 . S
N201 C200 1.314 . S
N201 C204 1.279 . S
C202 C200 1.353 . S
C202 C205 1.348 . S
C202 H250 0.929 . S
C203 C204 1.358 . S
C203 C205 1.356 . S
C203 H251 0.930 . S
C204 N201 1.279 . S
C204 C203 1.358 . S
C204 H207 0.930 . S
C205 C202 1.348 . S
C205 C203 1.356 . S
H206 C200 0.930 . S
H207 C204 0.930 . S
C208 C210 1.348 . S
C208 C211 1.356 . S
C208 O238 1.325 . S
N209 C212 1.314 . S
N209 C213 1.279 . S
C210 C208 1.348 . S
C210 C212 1.353 . S
C210 H252 0.929 . S
C211 C208 1.356 . S
C211 C213 1.358 . S
C211 H253 0.930 . S
C212 N209 1.314 . S
C212 C210 1.353 . S
C212 H254 0.930 . S
C213 N209 1.279 . S
C213 C211 1.358 . S
C213 H255 0.930 . S
C214 C215 1.345 1_554 S
C214 C216 1.358 . S
C214 O239 1.325 1_554 S
C215 C214 1.345 1_556 S
C215 C217 1.353 . S
C215 H256 0.929 . S
C216 C214 1.358 . S
C216 C218 1.358 . S
C216 H257 0.930 . S
C217 C215 1.353 . S
C217 N219 1.314 1_556 S
C217 H258 0.930 . S
C218 C216 1.358 . S
C218 N219 1.279 . S
C218 H259 0.930 . S
N219 C217 1.314 1_554 S
N219 C218 1.279 . S
C220 C222 1.353 . S
C220 N223 1.314 . S
C220 H226 0.930 . S
C221 N223 1.279 . S
C221 C224 1.358 . S
C221 H227 0.930 . S
C222 C220 1.353 . S
C222 C225 1.348 . S
C222 H260 0.929 . S
N223 Li178 1.990 . S
N223 C220 1.314 . S
N223 C221 1.279 . S
C224 C221 1.358 . S
C224 C225 1.356 . S
C224 H261 0.930 . S
C225 C222 1.348 . S
C225 C224 1.356 . S
H226 C220 0.930 . S
H227 C221 0.930 . S
C228 N229 1.314 . S
C228 C230 1.353 . S
C228 H234 0.930 . S
N229 Li179 1.991 . S
N229 C228 1.314 . S
N229 C232 1.279 1_554 S
C230 C228 1.353 . S
C230 C233 1.348 1_554 S
C230 H262 0.929 . S
C231 C232 1.358 . S
C231 C233 1.356 . S
C231 H263 0.930 . S
C232 N229 1.279 1_556 S
C232 C231 1.358 . S
C232 H235 0.930 . S
C233 C230 1.348 1_556 S
C233 C231 1.356 . S
H234 C228 0.930 . S
H235 C232 0.930 . S
O236 Li176 1.956 1_554 S
O236 Li177 1.981 . S
O236 Li178 1.950 1_554 S
O236 C180 1.325 . S
O237 Li176 1.959 1_554 S
O237 Li177 1.956 . S
O237 Li179 1.976 . S
O237 C186 1.325 . S
O238 Li176 1.972 . S
O238 Li178 1.956 . S
O238 Li179 1.955 1_556 S
O238 C208 1.325 . S
O239 Li177 1.954 1_556 S
O239 Li178 1.977 . S
O239 Li179 1.956 1_556 S
O239 C214 1.325 1_556 S
H240 C182 0.929 . S
H241 C183 0.930 . S
H242 C184 0.930 . S
H243 C185 0.930 . S
H244 C187 0.930 . S
H245 C189 0.929 . S
H246 C190 0.930 . S
H247 C191 0.930 . S
H248 C194 0.930 . S
H249 C197 0.929 . S
H250 C202 0.929 . S
H251 C203 0.930 . S
H252 C210 0.929 . S
H253 C211 0.930 . S
H254 C212 0.930 . S
H255 C213 0.930 . S
H256 C215 0.929 . S
H257 C216 0.930 . S
H258 C217 0.930 . S
H259 C218 0.930 . S
H260 C222 0.929 . S
H261 C224 0.930 . S
H262 C230 0.929 . S
H263 C231 0.930 . S
Li264 N281 1.991 . S
Li264 O324 1.956 1_556 S
Li264 O325 1.959 1_556 S
Li264 O326 1.972 . S
Li265 N289 1.990 . S
Li265 O324 1.981 . S
Li265 O325 1.956 . S
Li265 O327 1.954 1_554 S
Li266 N311 1.990 . S
Li266 O324 1.950 1_556 S
Li266 O326 1.956 . S
Li266 O327 1.977 . S
Li267 N317 1.991 . S
Li267 O325 1.976 . S
Li267 O326 1.955 1_554 S
Li267 O327 1.956 1_554 S
C268 C270 1.345 . S
C268 C271 1.358 1_554 S
C268 O324 1.325 . S
N269 C272 1.314 1_556 S
N269 C273 1.279 . S
C270 C268 1.345 . S
C270 C272 1.353 . S
C270 H328 0.929 . S
C271 C268 1.358 1_556 S
C271 C273 1.358 . S
C271 H329 0.930 . S
C272 N269 1.314 1_554 S
C272 C270 1.353 . S
C272 H330 0.930 . S
C273 N269 1.279 . S
C273 C271 1.358 . S
C273 H331 0.930 . S
C274 C277 1.348 . S
C274 C278 1.356 . S
C274 O325 1.325 . S
C275 N276 1.279 . S
C275 C278 1.358 . S
C275 H332 0.930 . S
N276 C275 1.279 . S
N276 C279 1.314 . S
C277 C274 1.348 . S
C277 C279 1.353 . S
C277 H333 0.929 . S
C278 C274 1.356 . S
C278 C275 1.358 . S
C278 H334 0.930 . S
C279 N276 1.314 . S
C279 C277 1.353 . S
C279 H335 0.930 . S
C280 N281 1.314 . S
C280 C285 1.353 . S
C280 H286 0.930 . S
N281 Li264 1.991 . S
N281 C280 1.314 . S
N281 C283 1.279 1_556 S
C282 C283 1.358 . S
C282 C284 1.357 . S
C282 H336 0.930 . S
C283 N281 1.279 1_554 S
C283 C282 1.358 . S
C283 H287 0.930 . S
C284 C282 1.357 . S
C284 C285 1.346 1_554 S
C285 C280 1.353 . S
C285 C284 1.346 1_556 S
C285 H337 0.929 . S
H286 C280 0.930 . S
H287 C283 0.930 . S
C288 N289 1.314 . S
C288 C290 1.353 . S
C288 H294 0.930 . S
N289 Li265 1.990 . S
N289 C288 1.314 . S
N289 C292 1.279 . S
C290 C288 1.353 . S
C290 C293 1.348 . S
C290 H338 0.929 . S
C291 C292 1.358 . S
C291 C293 1.356 . S
C291 H339 0.930 . S
C292 N289 1.279 . S
C292 C291 1.358 . S
C292 H295 0.930 . S
C293 C290 1.348 . S
C293 C291 1.356 . S
H294 C288 0.930 . S
H295 C292 0.930 . S
C296 C298 1.348 . S
C296 C299 1.356 . S
C296 O326 1.325 . S
N297 C300 1.314 . S
N297 C301 1.279 . S
C298 C296 1.348 . S
C298 C300 1.353 . S
C298 H340 0.929 . S
C299 C296 1.356 . S
C299 C301 1.358 . S
C299 H341 0.930 . S
C300 N297 1.314 . S
C300 C298 1.353 . S
C300 H342 0.930 . S
C301 N297 1.279 . S
C301 C299 1.358 . S
C301 H343 0.930 . S
C302 C303 1.345 1_554 S
C302 C304 1.358 . S
C302 O327 1.325 1_554 S
C303 C302 1.345 1_556 S
C303 C305 1.353 . S
C303 H344 0.929 . S
C304 C302 1.358 . S
C304 C306 1.358 . S
C304 H345 0.930 . S
C305 C303 1.353 . S
C305 N307 1.314 1_556 S
C305 H346 0.930 . S
C306 C304 1.358 . S
C306 N307 1.279 . S
C306 H347 0.930 . S
N307 C305 1.314 1_554 S
N307 C306 1.279 . S
C308 C310 1.353 . S
C308 N311 1.314 . S
C308 H314 0.930 . S
C309 N311 1.279 . S
C309 C312 1.358 . S
C309 H315 0.930 . S
C310 C308 1.353 . S
C310 C313 1.348 . S
C310 H348 0.929 . S
N311 Li266 1.990 . S
N311 C308 1.314 . S
N311 C309 1.279 . S
C312 C309 1.358 . S
C312 C313 1.356 . S
C312 H349 0.930 . S
C313 C310 1.348 . S
C313 C312 1.356 . S
H314 C308 0.930 . S
H315 C309 0.930 . S
C316 N317 1.314 . S
C316 C318 1.353 . S
C316 H322 0.930 . S
N317 Li267 1.991 . S
N317 C316 1.314 . S
N317 C320 1.279 1_554 S
C318 C316 1.353 . S
C318 C321 1.348 1_554 S
C318 H350 0.929 . S
C319 C320 1.358 . S
C319 C321 1.356 . S
C319 H351 0.930 . S
C320 N317 1.279 1_556 S
C320 C319 1.358 . S
C320 H323 0.930 . S
C321 C318 1.348 1_556 S
C321 C319 1.356 . S
H322 C316 0.930 . S
H323 C320 0.930 . S
O324 Li264 1.956 1_554 S
O324 Li265 1.981 . S
O324 Li266 1.950 1_554 S
O324 C268 1.325 . S
O325 Li264 1.959 1_554 S
O325 Li265 1.956 . S
O325 Li267 1.976 . S
O325 C274 1.325 . S
O326 Li264 1.972 . S
O326 Li266 1.956 . S
O326 Li267 1.955 1_556 S
O326 C296 1.325 . S
O327 Li265 1.954 1_556 S
O327 Li266 1.977 . S
O327 Li267 1.956 1_556 S
O327 C302 1.325 1_556 S
H328 C270 0.929 . S
H329 C271 0.930 . S
H330 C272 0.930 . S
H331 C273 0.930 . S
H332 C275 0.930 . S
H333 C277 0.929 . S
H334 C278 0.930 . S
H335 C279 0.930 . S
H336 C282 0.930 . S
H337 C285 0.929 . S
H338 C290 0.929 . S
H339 C291 0.930 . S
H340 C298 0.929 . S
H341 C299 0.930 . S
H342 C300 0.930 . S
H343 C301 0.930 . S
H344 C303 0.929 . S
H345 C304 0.930 . S
H346 C305 0.930 . S
H347 C306 0.930 . S
H348 C310 0.929 . S
H349 C312 0.930 . S
H350 C318 0.929 . S
H351 C319 0.930 . S
Li352 N369 1.990 . S
Li352 O412 1.956 . S
Li352 O413 1.970 . S
Li352 O414 1.961 . S
Li353 N377 1.990 . S
Li353 O412 1.970 . S
Li353 O413 1.956 . S
Li353 O415 1.961 . S
Li354 N399 1.990 . S
Li354 O412 1.961 . S
Li354 O414 1.956 . S
Li354 O415 1.970 . S
Li355 N405 1.990 . S
Li355 O413 1.961 . S
Li355 O414 1.970 . S
Li355 O415 1.956 . S
C356 C358 1.348 . S
C356 C359 1.356 . S
C356 O412 1.325 . S
N357 C360 1.314 . S
N357 C361 1.279 . S
C358 C356 1.348 . S
C358 C360 1.353 . S
C358 H416 0.929 . S
C359 C356 1.356 . S
C359 C361 1.358 . S
C359 H417 0.930 . S
C360 N357 1.314 . S
C360 C358 1.353 . S
C360 H418 0.930 . S
C361 N357 1.279 . S
C361 C359 1.358 . S
C361 H419 0.930 . S
C362 C365 1.348 . S
C362 C366 1.356 . S
C362 O413 1.325 . S
C363 N364 1.279 . S
C363 C366 1.358 . S
C363 H420 0.930 . S
N364 C363 1.279 . S
N364 C367 1.314 . S
C365 C362 1.348 . S
C365 C367 1.353 . S
C365 H421 0.929 . S
C366 C362 1.356 . S
C366 C363 1.358 . S
C366 H422 0.930 . S
C367 N364 1.314 . S
C367 C365 1.353 . S
C367 H423 0.930 . S
C368 N369 1.314 . S
C368 C373 1.353 . S
C368 H374 0.930 . S
N369 Li352 1.990 . S
N369 C368 1.314 . S
N369 C371 1.279 . S
C370 C371 1.358 . S
C370 C372 1.356 . S
C370 H424 0.930 . S
C371 N369 1.279 . S
C371 C370 1.358 . S
C371 H375 0.930 . S
C372 C370 1.356 . S
C372 C373 1.348 . S
C373 C368 1.353 . S
C373 C372 1.348 . S
C373 H425 0.929 . S
H374 C368 0.930 . S
H375 C371 0.930 . S
C376 N377 1.314 . S
C376 C378 1.353 . S
C376 H382 0.930 . S
N377 Li353 1.990 . S
N377 C376 1.314 . S
N377 C380 1.279 . S
C378 C376 1.353 . S
C378 C381 1.348 . S
C378 H426 0.929 . S
C379 C380 1.358 . S
C379 C381 1.356 . S
C379 H427 0.930 . S
C380 N377 1.279 . S
C380 C379 1.358 . S
C380 H383 0.930 . S
C381 C378 1.348 . S
C381 C379 1.356 . S
H382 C376 0.930 . S
H383 C380 0.930 . S
C384 C386 1.348 . S
C384 C387 1.356 . S
C384 O414 1.325 . S
N385 C388 1.314 . S
N385 C389 1.279 . S
C386 C384 1.348 . S
C386 C388 1.353 . S
C386 H428 0.929 . S
C387 C384 1.356 . S
C387 C389 1.358 . S
C387 H429 0.930 . S
C388 N385 1.314 . S
C388 C386 1.353 . S
C388 H430 0.930 . S
C389 N385 1.279 . S
C389 C387 1.358 . S
C389 H431 0.930 . S
C390 C391 1.348 . S
C390 C392 1.356 . S
C390 O415 1.325 . S
C391 C390 1.348 . S
C391 C393 1.353 . S
C391 H432 0.929 . S
C392 C390 1.356 . S
C392 C394 1.358 . S
C392 H433 0.930 . S
C393 C391 1.353 . S
C393 N395 1.314 . S
C393 H434 0.930 . S
C394 C392 1.358 . S
C394 N395 1.279 . S
C394 H435 0.930 . S
N395 C393 1.314 . S
N395 C394 1.279 . S
C396 C398 1.353 . S
C396 N399 1.314 . S
C396 H402 0.930 . S
C397 N399 1.279 . S
C397 C400 1.358 . S
C397 H403 0.930 . S
C398 C396 1.353 . S
C398 C401 1.348 . S
C398 H436 0.929 . S
N399 Li354 1.990 . S
N399 C396 1.314 . S
N399 C397 1.279 . S
C400 C397 1.358 . S
C400 C401 1.356 . S
C400 H437 0.930 . S
C401 C398 1.348 . S
C401 C400 1.356 . S
H402 C396 0.930 . S
H403 C397 0.930 . S
C404 N405 1.314 . S
C404 C406 1.353 . S
C404 H410 0.930 . S
N405 Li355 1.990 . S
N405 C404 1.314 . S
N405 C408 1.279 . S
C406 C404 1.353 . S
C406 C409 1.348 . S
C406 H438 0.929 . S
C407 C408 1.358 . S
C407 C409 1.356 . S
C407 H439 0.930 . S
C408 N405 1.279 . S
C408 C407 1.358 . S
C408 H411 0.930 . S
C409 C406 1.348 . S
C409 C407 1.356 . S
H410 C404 0.930 . S
H411 C408 0.930 . S
O412 Li352 1.956 . S
O412 Li353 1.970 . S
O412 Li354 1.961 . S
O412 C356 1.325 . S
O413 Li352 1.970 . S
O413 Li353 1.956 . S
O413 Li355 1.961 . S
O413 C362 1.325 . S
O414 Li352 1.961 . S
O414 Li354 1.956 . S
O414 Li355 1.970 . S
O414 C384 1.325 . S
O415 Li353 1.961 . S
O415 Li354 1.970 . S
O415 Li355 1.956 . S
O415 C390 1.325 . S
H416 C358 0.929 . S
H417 C359 0.930 . S
H418 C360 0.930 . S
H419 C361 0.930 . S
H420 C363 0.930 . S
H421 C365 0.929 . S
H422 C366 0.930 . S
H423 C367 0.930 . S
H424 C370 0.930 . S
H425 C373 0.929 . S
H426 C378 0.929 . S
H427 C379 0.930 . S
H428 C386 0.929 . S
H429 C387 0.930 . S
H430 C388 0.930 . S
H431 C389 0.930 . S
H432 C391 0.929 . S
H433 C392 0.930 . S
H434 C393 0.930 . S
H435 C394 0.930 . S
H436 C398 0.929 . S
H437 C400 0.930 . S
H438 C406 0.929 . S
H439 C407 0.930 . S
Li440 N457 1.990 . S
Li440 O500 1.956 . S
Li440 O501 1.970 . S
Li440 O502 1.961 . S
Li441 N465 1.990 . S
Li441 O500 1.970 . S
Li441 O501 1.956 . S
Li441 O503 1.961 . S
Li442 N487 1.990 . S
Li442 O500 1.961 . S
Li442 O502 1.956 . S
Li442 O503 1.970 . S
Li443 N493 1.990 . S
Li443 O501 1.961 . S
Li443 O502 1.970 . S
Li443 O503 1.956 . S
C444 C446 1.348 . S
C444 C447 1.356 . S
C444 O500 1.325 . S
N445 C448 1.314 . S
N445 C449 1.279 . S
C446 C444 1.348 . S
C446 C448 1.353 . S
C446 H504 0.929 . S
C447 C444 1.356 . S
C447 C449 1.358 . S
C447 H505 0.930 . S
C448 N445 1.314 . S
C448 C446 1.353 . S
C448 H506 0.930 . S
C449 N445 1.279 . S
C449 C447 1.358 . S
C449 H507 0.930 . S
C450 C453 1.348 . S
C450 C454 1.356 . S
C450 O501 1.325 . S
C451 N452 1.279 . S
C451 C454 1.358 . S
C451 H508 0.930 . S
N452 C451 1.279 . S
N452 C455 1.314 . S
C453 C450 1.348 . S
C453 C455 1.353 . S
C453 H509 0.929 . S
C454 C450 1.356 . S
C454 C451 1.358 . S
C454 H510 0.930 . S
C455 N452 1.314 . S
C455 C453 1.353 . S
C455 H511 0.930 . S
C456 N457 1.314 . S
C456 C461 1.353 . S
C456 H462 0.930 . S
N457 Li440 1.990 . S
N457 C456 1.314 . S
N457 C459 1.279 . S
C458 C459 1.358 . S
C458 C460 1.356 . S
C458 H512 0.930 . S
C459 N457 1.279 . S
C459 C458 1.358 . S
C459 H463 0.930 . S
C460 C458 1.356 . S
C460 C461 1.348 . S
C461 C456 1.353 . S
C461 C460 1.348 . S
C461 H513 0.929 . S
H462 C456 0.930 . S
H463 C459 0.930 . S
C464 N465 1.314 . S
C464 C466 1.353 . S
C464 H470 0.930 . S
N465 Li441 1.990 . S
N465 C464 1.314 . S
N465 C468 1.279 . S
C466 C464 1.353 . S
C466 C469 1.348 . S
C466 H514 0.929 . S
C467 C468 1.358 . S
C467 C469 1.356 . S
C467 H515 0.930 . S
C468 N465 1.279 . S
C468 C467 1.358 . S
C468 H471 0.930 . S
C469 C466 1.348 . S
C469 C467 1.356 . S
H470 C464 0.930 . S
H471 C468 0.930 . S
C472 C474 1.348 . S
C472 C475 1.356 . S
C472 O502 1.325 . S
N473 C476 1.314 . S
N473 C477 1.279 . S
C474 C472 1.348 . S
C474 C476 1.353 . S
C474 H516 0.929 . S
C475 C472 1.356 . S
C475 C477 1.358 . S
C475 H517 0.930 . S
C476 N473 1.314 . S
C476 C474 1.353 . S
C476 H518 0.930 . S
C477 N473 1.279 . S
C477 C475 1.358 . S
C477 H519 0.930 . S
C478 C479 1.348 . S
C478 C480 1.356 . S
C478 O503 1.325 . S
C479 C478 1.348 . S
C479 C481 1.353 . S
C479 H520 0.929 . S
C480 C478 1.356 . S
C480 C482 1.358 . S
C480 H521 0.930 . S
C481 C479 1.353 . S
C481 N483 1.314 . S
C481 H522 0.930 . S
C482 C480 1.358 . S
C482 N483 1.279 . S
C482 H523 0.930 . S
N483 C481 1.314 . S
N483 C482 1.279 . S
C484 C486 1.353 . S
C484 N487 1.314 . S
C484 H490 0.930 . S
C485 N487 1.279 . S
C485 C488 1.358 . S
C485 H491 0.930 . S
C486 C484 1.353 . S
C486 C489 1.348 . S
C486 H524 0.929 . S
N487 Li442 1.990 . S
N487 C484 1.314 . S
N487 C485 1.279 . S
C488 C485 1.358 . S
C488 C489 1.356 . S
C488 H525 0.930 . S
C489 C486 1.348 . S
C489 C488 1.356 . S
H490 C484 0.930 . S
H491 C485 0.930 . S
C492 N493 1.314 . S
C492 C494 1.353 . S
C492 H498 0.930 . S
N493 Li443 1.990 . S
N493 C492 1.314 . S
N493 C496 1.279 . S
C494 C492 1.353 . S
C494 C497 1.348 . S
C494 H526 0.929 . S
C495 C496 1.358 . S
C495 C497 1.356 . S
C495 H527 0.930 . S
C496 N493 1.279 . S
C496 C495 1.358 . S
C496 H499 0.930 . S
C497 C494 1.348 . S
C497 C495 1.356 . S
H498 C492 0.930 . S
H499 C496 0.930 . S
O500 Li440 1.956 . S
O500 Li441 1.970 . S
O500 Li442 1.961 . S
O500 C444 1.325 . S
O501 Li440 1.970 . S
O501 Li441 1.956 . S
O501 Li443 1.961 . S
O501 C450 1.325 . S
O502 Li440 1.961 . S
O502 Li442 1.956 . S
O502 Li443 1.970 . S
O502 C472 1.325 . S
O503 Li441 1.961 . S
O503 Li442 1.970 . S
O503 Li443 1.956 . S
O503 C478 1.325 . S
H504 C446 0.929 . S
H505 C447 0.930 . S
H506 C448 0.930 . S
H507 C449 0.930 . S
H508 C451 0.930 . S
H509 C453 0.929 . S
H510 C454 0.930 . S
H511 C455 0.930 . S
H512 C458 0.930 . S
H513 C461 0.929 . S
H514 C466 0.929 . S
H515 C467 0.930 . S
H516 C474 0.929 . S
H517 C475 0.930 . S
H518 C476 0.930 . S
H519 C477 0.930 . S
H520 C479 0.929 . S
H521 C480 0.930 . S
H522 C481 0.930 . S
H523 C482 0.930 . S
H524 C486 0.929 . S
H525 C488 0.930 . S
H526 C494 0.929 . S
H527 C495 0.930 . S
Li528 N545 1.990 . S
Li528 O588 1.956 . S
Li528 O589 1.970 . S
Li528 O590 1.961 . S
Li529 N553 1.990 . S
Li529 O588 1.970 . S
Li529 O589 1.956 . S
Li529 O591 1.961 . S
Li530 N575 1.990 . S
Li530 O588 1.961 . S
Li530 O590 1.956 . S
Li530 O591 1.970 . S
Li531 N581 1.990 . S
Li531 O589 1.961 . S
Li531 O590 1.970 . S
Li531 O591 1.956 . S
C532 C534 1.348 . S
C532 C535 1.356 . S
C532 O588 1.325 . S
N533 C536 1.314 . S
N533 C537 1.279 . S
C534 C532 1.348 . S
C534 C536 1.353 . S
C534 H592 0.929 . S
C535 C532 1.356 . S
C535 C537 1.358 . S
C535 H593 0.930 . S
C536 N533 1.314 . S
C536 C534 1.353 . S
C536 H594 0.930 . S
C537 N533 1.279 . S
C537 C535 1.358 . S
C537 H595 0.930 . S
C538 C541 1.348 . S
C538 C542 1.356 . S
C538 O589 1.325 . S
C539 N540 1.279 . S
C539 C542 1.358 . S
C539 H596 0.930 . S
N540 C539 1.279 . S
N540 C543 1.314 . S
C541 C538 1.348 . S
C541 C543 1.353 . S
C541 H597 0.929 . S
C542 C538 1.356 . S
C542 C539 1.358 . S
C542 H598 0.930 . S
C543 N540 1.314 . S
C543 C541 1.353 . S
C543 H599 0.930 . S
C544 N545 1.314 . S
C544 C549 1.353 . S
C544 H550 0.930 . S
N545 Li528 1.990 . S
N545 C544 1.314 . S
N545 C547 1.279 . S
C546 C547 1.358 . S
C546 C548 1.356 . S
C546 H600 0.930 . S
C547 N545 1.279 . S
C547 C546 1.358 . S
C547 H551 0.930 . S
C548 C546 1.356 . S
C548 C549 1.348 . S
C549 C544 1.353 . S
C549 C548 1.348 . S
C549 H601 0.929 . S
H550 C544 0.930 . S
H551 C547 0.930 . S
C552 N553 1.314 . S
C552 C554 1.353 . S
C552 H558 0.930 . S
N553 Li529 1.990 . S
N553 C552 1.314 . S
N553 C556 1.279 . S
C554 C552 1.353 . S
C554 C557 1.348 . S
C554 H602 0.929 . S
C555 C556 1.358 . S
C555 C557 1.356 . S
C555 H603 0.930 . S
C556 N553 1.279 . S
C556 C555 1.358 . S
C556 H559 0.930 . S
C557 C554 1.348 . S
C557 C555 1.356 . S
H558 C552 0.930 . S
H559 C556 0.930 . S
C560 C562 1.348 . S
C560 C563 1.356 . S
C560 O590 1.325 . S
N561 C564 1.314 . S
N561 C565 1.279 . S
C562 C560 1.348 . S
C562 C564 1.353 . S
C562 H604 0.929 . S
C563 C560 1.356 . S
C563 C565 1.358 . S
C563 H605 0.930 . S
C564 N561 1.314 . S
C564 C562 1.353 . S
C564 H606 0.930 . S
C565 N561 1.279 . S
C565 C563 1.358 . S
C565 H607 0.930 . S
C566 C567 1.348 . S
C566 C568 1.356 . S
C566 O591 1.325 . S
C567 C566 1.348 . S
C567 C569 1.353 . S
C567 H608 0.929 . S
C568 C566 1.356 . S
C568 C570 1.358 . S
C568 H609 0.930 . S
C569 C567 1.353 . S
C569 N571 1.314 . S
C569 H610 0.930 . S
C570 C568 1.358 . S
C570 N571 1.279 . S
C570 H611 0.930 . S
N571 C569 1.314 . S
N571 C570 1.279 . S
C572 C574 1.353 . S
C572 N575 1.314 . S
C572 H578 0.930 . S
C573 N575 1.279 . S
C573 C576 1.358 . S
C573 H579 0.930 . S
C574 C572 1.353 . S
C574 C577 1.348 . S
C574 H612 0.929 . S
N575 Li530 1.990 . S
N575 C572 1.314 . S
N575 C573 1.279 . S
C576 C573 1.358 . S
C576 C577 1.356 . S
C576 H613 0.930 . S
C577 C574 1.348 . S
C577 C576 1.356 . S
H578 C572 0.930 . S
H579 C573 0.930 . S
C580 N581 1.314 . S
C580 C582 1.353 . S
C580 H586 0.930 . S
N581 Li531 1.990 . S
N581 C580 1.314 . S
N581 C584 1.279 . S
C582 C580 1.353 . S
C582 C585 1.348 . S
C582 H614 0.929 . S
C583 C584 1.358 . S
C583 C585 1.356 . S
C583 H615 0.930 . S
C584 N581 1.279 . S
C584 C583 1.358 . S
C584 H587 0.930 . S
C585 C582 1.348 . S
C585 C583 1.356 . S
H586 C580 0.930 . S
H587 C584 0.930 . S
O588 Li528 1.956 . S
O588 Li529 1.970 . S
O588 Li530 1.961 . S
O588 C532 1.325 . S
O589 Li528 1.970 . S
O589 Li529 1.956 . S
O589 Li531 1.961 . S
O589 C538 1.325 . S
O590 Li528 1.961 . S
O590 Li530 1.956 . S
O590 Li531 1.970 . S
O590 C560 1.325 . S
O591 Li529 1.961 . S
O591 Li530 1.970 . S
O591 Li531 1.956 . S
O591 C566 1.325 . S
H592 C534 0.929 . S
H593 C535 0.930 . S
H594 C536 0.930 . S
H595 C537 0.930 . S
H596 C539 0.930 . S
H597 C541 0.929 . S
H598 C542 0.930 . S
H599 C543 0.930 . S
H600 C546 0.930 . S
H601 C549 0.929 . S
H602 C554 0.929 . S
H603 C555 0.930 . S
H604 C562 0.929 . S
H605 C563 0.930 . S
H606 C564 0.930 . S
H607 C565 0.930 . S
H608 C567 0.929 . S
H609 C568 0.930 . S
H610 C569 0.930 . S
H611 C570 0.930 . S
H612 C574 0.929 . S
H613 C576 0.930 . S
H614 C582 0.929 . S
H615 C583 0.930 . S
Li616 N633 1.990 . S
Li616 O676 1.956 . S
Li616 O677 1.970 . S
Li616 O678 1.961 . S
Li617 N641 1.990 . S
Li617 O676 1.970 . S
Li617 O677 1.956 . S
Li617 O679 1.961 . S
Li618 N663 1.990 . S
Li618 O676 1.961 . S
Li618 O678 1.956 . S
Li618 O679 1.970 . S
Li619 N669 1.990 . S
Li619 O677 1.961 . S
Li619 O678 1.970 . S
Li619 O679 1.956 . S
C620 C622 1.348 . S
C620 C623 1.356 . S
C620 O676 1.325 . S
N621 C624 1.314 . S
N621 C625 1.279 . S
C622 C620 1.348 . S
C622 C624 1.353 . S
C622 H680 0.929 . S
C623 C620 1.356 . S
C623 C625 1.358 . S
C623 H681 0.930 . S
C624 N621 1.314 . S
C624 C622 1.353 . S
C624 H682 0.930 . S
C625 N621 1.279 . S
C625 C623 1.358 . S
C625 H683 0.930 . S
C626 C629 1.348 . S
C626 C630 1.356 . S
C626 O677 1.325 . S
C627 N628 1.279 . S
C627 C630 1.358 . S
C627 H684 0.930 . S
N628 C627 1.279 . S
N628 C631 1.314 . S
C629 C626 1.348 . S
C629 C631 1.353 . S
C629 H685 0.929 . S
C630 C626 1.356 . S
C630 C627 1.358 . S
C630 H686 0.930 . S
C631 N628 1.314 . S
C631 C629 1.353 . S
C631 H687 0.930 . S
C632 N633 1.314 . S
C632 C637 1.353 . S
C632 H638 0.930 . S
N633 Li616 1.990 . S
N633 C632 1.314 . S
N633 C635 1.279 . S
C634 C635 1.358 . S
C634 C636 1.356 . S
C634 H688 0.930 . S
C635 N633 1.279 . S
C635 C634 1.358 . S
C635 H639 0.930 . S
C636 C634 1.356 . S
C636 C637 1.348 . S
C637 C632 1.353 . S
C637 C636 1.348 . S
C637 H689 0.929 . S
H638 C632 0.930 . S
H639 C635 0.930 . S
C640 N641 1.314 . S
C640 C642 1.353 . S
C640 H646 0.930 . S
N641 Li617 1.990 . S
N641 C640 1.314 . S
N641 C644 1.279 . S
C642 C640 1.353 . S
C642 C645 1.348 . S
C642 H690 0.929 . S
C643 C644 1.358 . S
C643 C645 1.356 . S
C643 H691 0.930 . S
C644 N641 1.279 . S
C644 C643 1.358 . S
C644 H647 0.930 . S
C645 C642 1.348 . S
C645 C643 1.356 . S
H646 C640 0.930 . S
H647 C644 0.930 . S
C648 C650 1.348 . S
C648 C651 1.356 . S
C648 O678 1.325 . S
N649 C652 1.314 . S
N649 C653 1.279 . S
C650 C648 1.348 . S
C650 C652 1.353 . S
C650 H692 0.929 . S
C651 C648 1.356 . S
C651 C653 1.358 . S
C651 H693 0.930 . S
C652 N649 1.314 . S
C652 C650 1.353 . S
C652 H694 0.930 . S
C653 N649 1.279 . S
C653 C651 1.358 . S
C653 H695 0.930 . S
C654 C655 1.348 . S
C654 C656 1.356 . S
C654 O679 1.325 . S
C655 C654 1.348 . S
C655 C657 1.353 . S
C655 H696 0.929 . S
C656 C654 1.356 . S
C656 C658 1.358 . S
C656 H697 0.930 . S
C657 C655 1.353 . S
C657 N659 1.314 . S
C657 H698 0.930 . S
C658 C656 1.358 . S
C658 N659 1.279 . S
C658 H699 0.930 . S
N659 C657 1.314 . S
N659 C658 1.279 . S
C660 C662 1.353 . S
C660 N663 1.314 . S
C660 H666 0.930 . S
C661 N663 1.279 . S
C661 C664 1.358 . S
C661 H667 0.930 . S
C662 C660 1.353 . S
C662 C665 1.348 . S
C662 H700 0.929 . S
N663 Li618 1.990 . S
N663 C660 1.314 . S
N663 C661 1.279 . S
C664 C661 1.358 . S
C664 C665 1.356 . S
C664 H701 0.930 . S
C665 C662 1.348 . S
C665 C664 1.356 . S
H666 C660 0.930 . S
H667 C661 0.930 . S
C668 N669 1.314 . S
C668 C670 1.353 . S
C668 H674 0.930 . S
N669 Li619 1.990 . S
N669 C668 1.314 . S
N669 C672 1.279 . S
C670 C668 1.353 . S
C670 C673 1.348 . S
C670 H702 0.929 . S
C671 C672 1.358 . S
C671 C673 1.356 . S
C671 H703 0.930 . S
C672 N669 1.279 . S
C672 C671 1.358 . S
C672 H675 0.930 . S
C673 C670 1.348 . S
C673 C671 1.356 . S
H674 C668 0.930 . S
H675 C672 0.930 . S
O676 Li616 1.956 . S
O676 Li617 1.970 . S
O676 Li618 1.961 . S
O676 C620 1.325 . S
O677 Li616 1.970 . S
O677 Li617 1.956 . S
O677 Li619 1.961 . S
O677 C626 1.325 . S
O678 Li616 1.961 . S
O678 Li618 1.956 . S
O678 Li619 1.970 . S
O678 C648 1.325 . S
O679 Li617 1.961 . S
O679 Li618 1.970 . S
O679 Li619 1.956 . S
O679 C654 1.325 . S
H680 C622 0.929 . S
H681 C623 0.930 . S
H682 C624 0.930 . S
H683 C625 0.930 . S
H684 C627 0.930 . S
H685 C629 0.929 . S
H686 C630 0.930 . S
H687 C631 0.930 . S
H688 C634 0.930 . S
H689 C637 0.929 . S
H690 C642 0.929 . S
H691 C643 0.930 . S
H692 C650 0.929 . S
H693 C651 0.930 . S
H694 C652 0.930 . S
H695 C653 0.930 . S
H696 C655 0.929 . S
H697 C656 0.930 . S
H698 C657 0.930 . S
H699 C658 0.930 . S
H700 C662 0.929 . S
H701 C664 0.930 . S
H702 C670 0.929 . S
H703 C671 0.930 . S
C704 C705 1.369 1_556 S
C704 C706 1.419 . S
C704 H708 0.930 . S
C705 C704 1.369 1_554 S
C705 C714 1.429 . S
C706 C704 1.419 . S
C706 C707 1.363 1_556 S
C706 H709 0.929 . S
C707 C706 1.363 1_554 S
C707 C713 1.428 . S
H708 C704 0.930 . S
H709 C706 0.929 . S
S710 N711 1.613 . S
S710 N712 1.610 . S
N711 S710 1.613 . S
N711 C714 1.350 . S
N712 S710 1.610 . S
N712 C713 1.351 . S
C713 C707 1.428 . S
C713 N712 1.351 . S
C713 C714 1.434 . S
C714 C705 1.429 . S
C714 N711 1.350 . S
C714 C713 1.434 . S
C715 C716 1.364 1_556 S
C715 C717 1.419 . S
C715 H719 0.930 . S
C716 C715 1.364 1_554 S
C716 C725 1.435 . S
C717 C715 1.419 . S
C717 C718 1.364 . S
C717 H720 0.929 . S
C718 C717 1.364 . S
C718 C724 1.428 1_556 S
H719 C715 0.930 . S
H720 C717 0.929 . S
S721 N722 1.613 . S
S721 N723 1.610 . S
N722 S721 1.613 . S
N722 C725 1.350 . S
N723 S721 1.610 . S
N723 C724 1.351 . S
C724 C718 1.428 1_554 S
C724 N723 1.351 . S
C724 C725 1.434 . S
C725 C716 1.435 . S
C725 N722 1.350 . S
C725 C724 1.434 . S
C726 C727 1.370 . S
C726 C728 1.419 . S
C726 H730 0.930 . S
C727 C726 1.370 . S
C727 C736 1.428 1_554 S
C728 C726 1.419 . S
C728 C729 1.354 1_554 S
C728 H731 0.929 . S
C729 C728 1.354 1_556 S
C729 C735 1.438 . S
H730 C726 0.930 . S
H731 C728 0.929 . S
S732 N733 1.613 . S
S732 N734 1.610 . S
N733 S732 1.613 . S
N733 C736 1.350 . S
N734 S732 1.610 . S
N734 C735 1.351 . S
C735 C729 1.438 . S
C735 N734 1.351 . S
C735 C736 1.434 . S
C736 C727 1.428 1_556 S
C736 N733 1.350 . S
C736 C735 1.434 . S
C737 C738 1.372 . S
C737 C739 1.419 . S
C737 H741 0.930 . S
C738 C737 1.372 . S
C738 C747 1.425 1_556 S
C739 C737 1.419 . S
C739 C740 1.358 1_556 S
C739 H742 0.929 . S
C740 C739 1.358 1_554 S
C740 C746 1.434 . S
H741 C737 0.930 . S
H742 C739 0.929 . S
S743 N744 1.613 . S
S743 N745 1.610 . S
N744 S743 1.613 . S
N744 C747 1.350 . S
N745 S743 1.610 . S
N745 C746 1.351 . S
C746 C740 1.434 . S
C746 N745 1.351 . S
C746 C747 1.434 . S
C747 C738 1.425 1_554 S
C747 N744 1.350 . S
C747 C746 1.434 . S
C748 C749 1.369 . S
C748 C750 1.419 1_565 S
C748 H752 0.930 . S
C749 C748 1.369 . S
C749 C758 1.429 . S
C750 C748 1.419 1_545 S
C750 C751 1.363 . S
C750 H753 0.929 . S
C751 C750 1.363 . S
C751 C757 1.428 . S
H752 C748 0.930 . S
H753 C750 0.929 . S
S754 N755 1.620 . S
S754 N756 1.604 1_565 S
N755 S754 1.620 . S
N755 C758 1.350 . S
N756 S754 1.604 1_545 S
N756 C757 1.351 . S
C757 C751 1.428 . S
C757 N756 1.351 . S
C757 C758 1.434 1_545 S
C758 C749 1.429 . S
C758 N755 1.350 . S
C758 C757 1.434 1_565 S
C759 C760 1.369 . S
C759 C761 1.419 1_455 S
C759 H763 0.930 . S
C760 C759 1.369 . S
C760 C769 1.429 . S
C761 C759 1.419 1_655 S
C761 C762 1.363 . S
C761 H764 0.929 . S
C762 C761 1.363 . S
C762 C768 1.428 . S
H763 C759 0.930 . S
H764 C761 0.929 . S
S765 N766 1.605 1_655 S
S765 N767 1.618 . S
N766 S765 1.605 1_455 S
N766 C769 1.350 . S
N767 S765 1.618 . S
N767 C768 1.351 . S
C768 C762 1.428 . S
C768 N767 1.351 . S
C768 C769 1.434 1_655 S
C769 C760 1.429 . S
C769 N766 1.350 . S
C769 C768 1.434 1_455 S
C770 C771 1.369 . S
C770 C772 1.419 1_545 S
C770 H774 0.930 . S
C771 C770 1.369 . S
C771 C780 1.429 . S
C772 C770 1.419 1_565 S
C772 C773 1.363 . S
C772 H775 0.929 . S
C773 C772 1.363 . S
C773 C779 1.428 . S
H774 C770 0.930 . S
H775 C772 0.929 . S
S776 N777 1.612 1_565 S
S776 N778 1.612 . S
N777 S776 1.612 1_545 S
N777 C780 1.350 . S
N778 S776 1.612 . S
N778 C779 1.351 . S
C779 C773 1.428 . S
C779 N778 1.351 . S
C779 C780 1.434 1_565 S
C780 C771 1.429 . S
C780 N777 1.350 . S
C780 C779 1.434 1_545 S
C781 C782 1.369 . S
C781 C783 1.419 1_655 S
C781 H785 0.930 . S
C782 C781 1.369 . S
C782 C791 1.429 . S
C783 C781 1.419 1_455 S
C783 C784 1.363 . S
C783 H786 0.929 . S
C784 C783 1.363 . S
C784 C790 1.428 . S
H785 C781 0.930 . S
H786 C783 0.929 . S
S787 N788 1.592 1_455 S
S787 N789 1.631 . S
N788 S787 1.592 1_655 S
N788 C791 1.350 . S
N789 S787 1.631 . S
N789 C790 1.351 . S
C790 C784 1.428 . S
C790 N789 1.351 . S
C790 C791 1.434 1_455 S
C791 C782 1.429 . S
C791 N788 1.350 . S
C791 C790 1.434 1_655 S
C792 C793 1.369 . S
C792 C794 1.419 . S
C792 H796 0.930 . S
C793 C792 1.369 . S
C793 C802 1.429 . S
C794 C792 1.419 . S
C794 C795 1.363 . S
C794 H797 0.929 . S
C795 C794 1.363 . S
C795 C801 1.428 . S
H796 C792 0.930 . S
H797 C794 0.929 . S
S798 N799 1.613 . S
S798 N800 1.610 . S
N799 S798 1.613 . S
N799 C802 1.350 . S
N800 S798 1.610 . S
N800 C801 1.351 . S
C801 C795 1.428 . S
C801 N800 1.351 . S
C801 C802 1.434 . S
C802 C793 1.429 . S
C802 N799 1.350 . S
C802 C801 1.434 . S
C803 C804 1.369 . S
C803 C805 1.419 . S
C803 H807 0.930 . S
C804 C803 1.369 . S
C804 C813 1.429 . S
C805 C803 1.419 . S
C805 C806 1.363 . S
C805 H808 0.929 . S
C806 C805 1.363 . S
C806 C812 1.428 . S
H807 C803 0.930 . S
H808 C805 0.929 . S
S809 N810 1.613 . S
S809 N811 1.610 . S
N810 S809 1.613 . S
N810 C813 1.350 . S
N811 S809 1.610 . S
N811 C812 1.351 . S
C812 C806 1.428 . S
C812 N811 1.351 . S
C812 C813 1.434 . S
C813 C804 1.429 . S
C813 N810 1.350 . S
C813 C812 1.434 . S
C814 C815 1.369 . S
C814 C816 1.419 . S
C814 H818 0.930 . S
C815 C814 1.369 . S
C815 C824 1.429 . S
C816 C814 1.419 . S
C816 C817 1.363 . S
C816 H819 0.929 . S
C817 C816 1.363 . S
C817 C823 1.428 . S
H818 C814 0.930 . S
H819 C816 0.929 . S
S820 N821 1.613 . S
S820 N822 1.610 . S
N821 S820 1.613 . S
N821 C824 1.350 . S
N822 S820 1.610 . S
N822 C823 1.351 . S
C823 C817 1.428 . S
C823 N822 1.351 . S
C823 C824 1.434 . S
C824 C815 1.429 . S
C824 N821 1.350 . S
C824 C823 1.434 . S
C825 C826 1.369 . S
C825 C827 1.419 . S
C825 H829 0.930 . S
C826 C825 1.369 . S
C826 C835 1.429 . S
C827 C825 1.419 . S
C827 C828 1.363 . S
C827 H830 0.929 . S
C828 C827 1.363 . S
C828 C834 1.428 . S
H829 C825 0.930 . S
H830 C827 0.929 . S
S831 N832 1.613 . S
S831 N833 1.610 . S
N832 S831 1.613 . S
N832 C835 1.350 . S
N833 S831 1.610 . S
N833 C834 1.351 . S
C834 C828 1.428 . S
C834 N833 1.351 . S
C834 C835 1.434 . S
C835 C826 1.429 . S
C835 N832 1.350 . S
C835 C834 1.434 . S
C836 C837 1.369 . S
C836 C838 1.419 . S
C836 H840 0.930 . S
C837 C836 1.369 . S
C837 C846 1.429 . S
C838 C836 1.419 . S
C838 C839 1.363 . S
C838 H841 0.929 . S
C839 C838 1.363 . S
C839 C845 1.428 . S
H840 C836 0.930 . S
H841 C838 0.929 . S
S842 N843 1.613 . S
S842 N844 1.610 . S
N843 S842 1.613 . S
N843 C846 1.350 . S
N844 S842 1.610 . S
N844 C845 1.351 . S
C845 C839 1.428 . S
C845 N844 1.351 . S
C845 C846 1.434 . S
C846 C837 1.429 . S
C846 N843 1.350 . S
C846 C845 1.434 . S
C847 C848 1.369 . S
C847 C849 1.419 . S
C847 H851 0.930 . S
C848 C847 1.369 . S
C848 C857 1.429 . S
C849 C847 1.419 . S
C849 C850 1.363 . S
C849 H852 0.929 . S
C850 C849 1.363 . S
C850 C856 1.428 . S
H851 C847 0.930 . S
H852 C849 0.929 . S
S853 N854 1.613 . S
S853 N855 1.610 . S
N854 S853 1.613 . S
N854 C857 1.350 . S
N855 S853 1.610 . S
N855 C856 1.351 . S
C856 C850 1.428 . S
C856 N855 1.351 . S
C856 C857 1.434 . S
C857 C848 1.429 . S
C857 N854 1.350 . S
C857 C856 1.434 . S
C858 C859 1.369 . S
C858 C860 1.419 . S
C858 H862 0.930 . S
C859 C858 1.369 . S
C859 C868 1.429 . S
C860 C858 1.419 . S
C860 C861 1.363 . S
C860 H863 0.929 . S
C861 C860 1.363 . S
C861 C867 1.428 . S
H862 C858 0.930 . S
H863 C860 0.929 . S
S864 N865 1.613 . S
S864 N866 1.610 . S
N865 S864 1.613 . S
N865 C868 1.350 . S
N866 S864 1.610 . S
N866 C867 1.351 . S
C867 C861 1.428 . S
C867 N866 1.351 . S
C867 C868 1.434 . S
C868 C859 1.429 . S
C868 N865 1.350 . S
C868 C867 1.434 . S
C869 C870 1.369 . S
C869 C871 1.419 . S
C869 H873 0.930 . S
C870 C869 1.369 . S
C870 C879 1.429 . S
C871 C869 1.419 . S
C871 C872 1.363 . S
C871 H874 0.929 . S
C872 C871 1.363 . S
C872 C878 1.428 . S
H873 C869 0.930 . S
H874 C871 0.929 . S
S875 N876 1.613 . S
S875 N877 1.610 . S
N876 S875 1.613 . S
N876 C879 1.350 . S
N877 S875 1.610 . S
N877 C878 1.351 . S
C878 C872 1.428 . S
C878 N877 1.351 . S
C878 C879 1.434 . S
C879 C870 1.429 . S
C879 N876 1.350 . S
C879 C878 1.434 . S
C705 C49 1.516 1_554 S
C707 C284 1.517 . S
C716 C29 1.517 . S
C718 C145 1.517 . S
C727 C108 1.515 . S
C729 C233 1.516 . S
C738 C321 1.517 . S
C740 C196 1.517 . S
C749 C401 1.517 . S
C751 C645 1.517 . S
C760 C497 1.515 . S
C762 C381 1.515 . S
C771 C577 1.517 . S
C773 C460 1.517 . S
C782 C665 1.515 . S
C784 C557 1.515 . S
C793 C585 1.381 . S
C795 C20 1.378 . S
C804 C117 1.379 . S
C806 C673 1.379 . S
C815 C409 1.382 . S
C817 C205 1.378 . S
C826 C489 1.383 . S
C828 C293 1.377 . S
C837 C469 1.380 . S
C839 C313 1.385 . S
C848 C57 1.382 . S
C850 C548 1.382 . S
C859 C137 1.381 . S
C861 C636 1.384 . S
C870 C225 1.382 . S
C872 C372 1.383 . S
