# Generated by pormake.
# Topology sxc, (6)-cn, num edge types: 1
# Building blocks:
#     Node 0, Type 0, BuildingBlock: CIFDUS_clean_sbu_1, # of connection points: 6
#     Node 1, Type 0, BuildingBlock: CIFDUS_clean_sbu_1, # of connection points: 6
#     Node 2, Type 0, BuildingBlock: CIFDUS_clean_sbu_1, # of connection points: 6
#     Edge 3, Type (0, 0), BuildingBlock: MIFKUJ_clean_linker_0, # of connection points: 2
#     Edge 4, Type (0, 0), BuildingBlock: MIFKUJ_clean_linker_0, # of connection points: 2
#     Edge 5, Type (0, 0), BuildingBlock: MIFKUJ_clean_linker_0, # of connection points: 2
#     Edge 6, Type (0, 0), BuildingBlock: MIFKUJ_clean_linker_0, # of connection points: 2
#     Edge 7, Type (0, 0), BuildingBlock: MIFKUJ_clean_linker_0, # of connection points: 2
#     Edge 8, Type (0, 0), BuildingBlock: MIFKUJ_clean_linker_0, # of connection points: 2
#     Edge 9, Type (0, 0), BuildingBlock: MIFKUJ_clean_linker_0, # of connection points: 2
#     Edge 10, Type (0, 0), BuildingBlock: MIFKUJ_clean_linker_0, # of connection points: 2
#     Edge 11, Type (0, 0), BuildingBlock: MIFKUJ_clean_linker_0, # of connection points: 2
# Relax obj value: 0.112
# Max RMSD: 0.158
# Mean RMSD: 0.150
data_MOF--net-sxc--node1-CIFDUS_clean_sbu_1--edge1-MIFKUJ_clean_linker_0
_symmetry_space_group_name_H-M    P1
_symmetry_Int_Tables_number       1
_symmetry_cell_setting            triclinic
loop_
_symmetry_equiv_pos_as_xyz
'x, y, z'
_cell_length_a     19.834592
_cell_length_b     19.92691
_cell_length_c     59.823469
_cell_angle_alpha  99.610815
_cell_angle_beta   90.27856
_cell_angle_gamma 120.15006
loop_
_atom_site_label
_atom_site_type_symbol
_atom_site_fract_x
_atom_site_fract_y
_atom_site_fract_z
_atom_type_partial_charge
O0 O 0.16947 0.15685 0.01564 0.0
Mn1 Mn 0.05139 0.06822 0.01332 0.0
O2 O 0.18666 0.24697 0.04665 0.0
Mn3 Mn 0.08466 0.19457 0.05377 0.0
O4 O 0.93274 0.9806 0.01138 0.0
O5 O 0.05509 0.04447 0.97822 0.0
Mn6 Mn 0.01011 0.93984 0.9727 0.0
O7 O 0.08333 0.98622 0.02004 0.0
O8 O 0.90713 0.89438 0.97877 0.0
O9 O 0.01923 0.15027 0.00652 0.0
O10 O 0.01605 0.21515 0.04021 0.0
O11 O 0.03198 0.96198 0.94499 0.0
O12 O 0.0697 0.90908 0.98664 0.0
C13 C 0.04582 0.1013 0.07057 0.0
C14 C 0.21239 0.22281 0.02962 0.0
C15 C 0.88533 0.91818 0.99677 0.0
C16 C 0.05928 0.03382 0.95604 0.0
C17 C 0.09053 0.93101 0.00785 0.0
C18 C 0.0025 0.19845 0.01875 0.0
O19 O 0.04897 0.09165 0.04837 0.0
O20 O 0.06756 0.17195 0.08161 0.0
O21 O 0.1786 0.15172 0.34365 0.0
Mn22 Mn 0.15285 0.03822 0.34626 0.0
O23 O 0.08851 0.15502 0.36552 0.0
Mn24 Mn 0.07101 0.07244 0.37974 0.0
O25 O 0.12333 0.92581 0.35235 0.0
O26 O 0.15555 0.0183 0.31032 0.0
Mn27 Mn 0.16746 0.93638 0.31287 0.0
O28 O 0.2713 0.07369 0.35174 0.0
O29 O 0.07888 0.85019 0.31917 0.0
O30 O 0.03373 -0.0013 0.33758 0.0
O31 O 0.98126 0.977 0.36914 0.0
O32 O 0.17449 0.93531 0.28364 0.0
O33 O 0.26121 0.96685 0.32937 0.0
C34 C 0.15011 0.08408 0.40396 0.0
C35 C 0.13899 0.18375 0.35152 0.0
C36 C 0.08367 0.85627 0.34034 0.0
C37 C 0.16196 0.99371 0.28882 0.0
C38 C 0.30002 0.03012 0.34424 0.0
C39 C 0.9723 0.96713 0.34787 0.0
O40 O 0.15705 0.06556 0.3821 0.0
O41 O 0.09395 0.09697 0.40961 0.0
O42 O 0.26597 0.07333 0.6823 0.0
Mn43 Mn 0.1815 0.10724 0.6823 0.0
O44 O 0.32695 0.11845 0.71754 0.0
Mn45 Mn 0.28521 0.18166 0.72546 0.0
O46 O 0.09352 0.13691 0.68176 0.0
O47 O 0.1818 0.09059 0.64665 0.0
Mn48 Mn 0.08055 0.01988 0.63977 0.0
O49 O 0.09546 0.98939 0.68351 0.0
O50 O 0.01815 0.06034 0.6494 0.0
O51 O 0.27005 0.22501 0.68156 0.0
O52 O 0.33386 0.27716 0.71647 0.0
O53 O 0.11116 0.02998 0.61221 0.0
O54 O 0.05607 0.92646 0.64769 0.0
C55 C 0.18321 0.13927 0.7404 0.0
C56 C 0.31454 0.07827 0.6976 0.0
C57 C 0.03201 0.10955 0.66776 0.0
C58 C 0.17842 0.07787 0.62412 0.0
C59 C 0.05797 0.92498 0.66865 0.0
C60 C 0.32345 0.28327 0.69622 0.0
O61 O 0.18216 0.12666 0.71793 0.0
O62 O 0.2504 0.18108 0.7527 0.0
H63 H 0.08321 0.28668 0.98775 0.0
H64 H 0.09841 0.41544 0.98579 0.0
H65 H 0.90846 0.36706 0.0275 0.0
H66 H 0.89352 0.23891 0.02954 0.0
H67 H 0.91469 0.45887 0.99751 0.0
H68 H 0.08952 0.45112 0.05112 0.0
H69 H 0.18935 0.42227 0.06352 0.0
H70 H 0.35398 0.58266 0.02443 0.0
H71 H 0.25411 0.60966 0.01092 0.0
H72 H 0.01554 0.85043 0.04084 0.0
H73 H 0.00064 0.72302 0.04461 0.0
H74 H 0.18207 0.76017 1.0003 0.0
H75 H 0.19609 0.8865 0.99628 0.0
H76 H 0.17905 0.6741 0.03296 0.0
H77 H 0.00045 0.67838 0.97878 0.0
H78 H 0.89976 0.70727 0.9672 0.0
H79 H 0.74098 0.55291 0.00867 0.0
H80 H 0.84178 0.52586 0.02132 0.0
C81 C 0.04186 0.30164 0.99539 0.0
C82 C 0.98704 0.25282 0.00875 0.0
C83 C 0.05146 0.37586 0.9946 0.0
C84 C 0.00602 0.4018 0.00706 0.0
C85 C 0.94466 0.34873 0.01794 0.0
C86 C 0.93558 0.27506 0.0189 0.0
C87 C 0.02817 0.48651 0.01124 0.0
C88 C 0.97225 0.50583 0.00543 0.0
C89 C 0.10346 0.54796 0.02162 0.0
C90 C 0.16369 0.53141 0.02968 0.0
C91 C 0.14657 0.47926 0.04485 0.0
C92 C 0.20319 0.4631 0.05205 0.0
C93 C 0.27779 0.49998 0.04459 0.0
C94 C 0.29593 0.55327 0.02996 0.0
C95 C 0.23922 0.56884 0.02246 0.0
C96 C 0.05519 0.83338 0.03296 0.0
C97 C 0.10721 0.87833 0.01834 0.0
C98 C 0.04584 0.76001 0.03484 0.0
C99 C 0.08895 0.73124 0.02227 0.0
C100 C 0.14784 0.78085 0.01003 0.0
C101 C 0.15637 0.85345 0.0079 0.0
C102 C 0.0658 0.64642 0.01905 0.0
C103 C 0.12148 0.62706 0.02508 0.0
C104 C 0.99016 0.58487 0.00898 0.0
C105 C 0.92934 0.6012 1.00133 0.0
C106 C 0.94452 0.65158 0.98573 0.0
C107 C 0.88738 0.66773 0.979 0.0
C108 C 0.81417 0.63257 0.98737 0.0
C109 C 0.79793 0.58094 1.00242 0.0
C110 C 0.85516 0.56536 0.00944 0.0
H111 H 0.7699 0.64496 0.9821 0.0
H112 H 0.32167 0.48769 0.05026 0.0
H113 H 0.44286 0.16718 0.34602 0.0
H114 H 0.57149 0.17637 0.34881 0.0
H115 H 0.45891 0.93859 0.36178 0.0
H116 H 0.33372 0.93109 0.35986 0.0
H117 H 0.59371 0.01567 0.38373 0.0
H118 H 0.49533 -0.00387 0.30487 0.0
H119 H 0.46123 0.05196 0.27584 0.0
H120 H 0.69249 0.25753 0.28855 0.0
H121 H 0.72754 0.20318 0.31779 0.0
H122 H 0.82038 0.85368 0.35042 0.0
H123 H 0.7077 0.87209 0.34775 0.0
H124 H 0.8532 0.09307 0.32576 0.0
H125 H 0.96162 0.06836 0.32521 0.0
H126 H 0.71936 0.0512 0.31177 0.0
H127 H 0.82452 0.06572 0.38688 0.0
H128 H 0.86138 0.01255 0.41608 0.0
H129 H 0.6223 0.82424 0.41222 0.0
H130 H 0.58426 0.87574 0.38282 0.0
C131 C 0.44672 0.11862 0.35047 0.0
C132 C 0.37844 0.04842 0.35277 0.0
C133 C 0.51987 0.12322 0.35167 0.0
C134 C 0.52486 0.05719 0.35485 0.0
C135 C 0.45727 0.99032 0.35919 0.0
C136 C 0.38523 0.98606 0.35816 0.0
C137 C 0.59679 0.05208 0.35165 0.0
C138 C 0.62121 0.02354 0.36798 0.0
C139 C 0.63473 0.06445 0.33145 0.0
C140 C 0.61374 0.096 0.31361 0.0
C141 C 0.53874 0.05329 0.30148 0.0
C142 C 0.51926 0.08469 0.28502 0.0
C143 C 0.57459 0.15832 0.2804 0.0
C144 C 0.64963 0.20059 0.29217 0.0
C145 C 0.66933 0.16953 0.30868 0.0
C146 C 0.82674 0.90383 0.34385 0.0
C147 C 0.89987 0.96027 0.33838 0.0
C148 C 0.76298 0.91561 0.34288 0.0
C149 C 0.77308 0.98684 0.33809 0.0
C150 C 0.84373 0.03852 0.33009 0.0
C151 C 0.90598 0.02433 0.32976 0.0
C152 C 0.7138 0.01105 0.34342 0.0
C153 C 0.69266 0.04403 0.32764 0.0
C154 C 0.67918 0.00344 0.36428 0.0
C155 C 0.70168 0.97442 0.3826 0.0
C156 C 0.77987 0.01308 0.3923 0.0
C157 C 0.80097 0.98311 0.40885 0.0
C158 C 0.74423 0.91504 0.41599 0.0
C159 C 0.66619 0.87697 0.40668 0.0
C160 C 0.64481 0.90657 0.39011 0.0
H161 H 0.76073 0.89182 0.42875 0.0
H162 H 0.55937 0.18256 0.26766 0.0
H163 H 0.9752 0.78038 0.64089 0.0
H164 H 0.85129 0.67065 0.64773 0.0
H165 H 0.88484 0.78585 0.71793 0.0
H166 H 0.00814 0.89942 0.711 0.0
H167 H 0.80895 0.59424 0.70095 0.0
H168 H 0.80461 0.83012 0.69292 0.0
H169 H 0.83142 0.93845 0.67324 0.0
H170 H 0.67716 0.77041 0.61501 0.0
H171 H 0.65253 0.66048 0.63391 0.0
H172 H 0.39067 0.43349 0.72014 0.0
H173 H 0.52083 0.54297 0.71637 0.0
H174 H 0.53276 0.4044 0.65475 0.0
H175 H 0.40123 0.2943 0.65817 0.0
H176 H 0.58778 0.61331 0.67005 0.0
H177 H 0.74933 0.44728 0.68083 0.0
H178 H 0.74726 0.34403 0.69889 0.0
H179 H 0.59296 0.36509 0.74588 0.0
H180 H 0.59814 0.47206 0.72908 0.0
C181 C 0.95753 0.7821 0.65799 0.0
C182 C 0.00035 0.8499 0.67525 0.0
C183 C 0.88659 0.71912 0.6618 0.0
C184 C 0.85841 0.72177 0.68307 0.0
C185 C 0.90577 0.78389 0.70128 0.0
C186 C 0.97624 0.84844 0.69732 0.0
C187 C 0.77613 0.66412 0.68525 0.0
C188 C 0.76027 0.59815 0.69431 0.0
C189 C 0.71363 0.6698 0.67606 0.0
C190 C 0.72786 0.73648 0.66478 0.0
C191 C 0.77812 0.81577 0.67567 0.0
C192 C 0.79275 0.87771 0.66467 0.0
C193 C 0.75631 0.86137 0.64284 0.0
C194 C 0.70546 0.78302 0.63193 0.0
C195 C 0.69132 0.72082 0.64279 0.0
C196 C 0.41963 0.42745 0.70527 0.0
C197 C 0.38561 0.35555 0.68937 0.0
C198 C 0.49435 0.48959 0.70332 0.0
C199 C 0.53713 0.48031 0.68574 0.0
C200 C 0.50104 0.41143 0.66875 0.0
C201 C 0.42538 0.3494 0.67046 0.0
C202 C 0.62004 0.54221 0.68566 0.0
C203 C 0.63612 0.60905 0.67675 0.0
C204 C 0.68311 0.53616 0.69432 0.0
C205 C 0.67237 0.46654 0.70323 0.0
C206 C 0.71461 0.42973 0.69496 0.0
C207 C 0.71402 0.37145 0.70523 0.0
C208 C 0.6699 0.34795 0.72351 0.0
C209 C 0.62665 0.38302 0.73161 0.0
C210 C 0.62848 0.4427 0.72172 0.0
H211 H 0.66903 0.30234 0.73133 0.0
H212 H 0.76719 0.90944 0.63442 0.0
H213 H -0.00304 0.15805 0.70999 0.0
H214 H 0.87436 0.15553 0.718 0.0
H215 H 0.7983 0.08756 0.646 0.0
H216 H 0.92171 0.09671 0.63786 0.0
H217 H 0.76179 0.19491 0.66862 0.0
H218 H 0.64603 0.88462 0.6836 0.0
H219 H 0.66342 0.80224 0.70695 0.0
H220 H 0.79399 0.00558 0.76044 0.0
H221 H 0.77144 0.08737 0.7382 0.0
H222 H 0.35828 0.04328 0.65555 0.0
H223 H 0.47576 0.03362 0.64955 0.0
H224 H 0.50772 0.03851 0.72142 0.0
H225 H 0.38874 0.04152 0.72699 0.0
H226 H 0.56984 0.96898 0.70183 0.0
H227 H 0.56338 0.20099 0.69332 0.0
H228 H 0.52375 0.27925 0.67512 0.0
H229 H 0.63165 0.24663 0.61547 0.0
H230 H 0.67012 0.16588 0.63312 0.0
C231 C 0.95485 0.14477 0.69591 0.0
C232 C 0.9687 0.12653 0.67331 0.0
C233 C 0.88366 0.14088 0.70053 0.0
C234 C 0.82502 0.11684 0.68265 0.0
C235 C 0.84168 0.10451 0.66013 0.0
C236 C 0.91267 0.11 0.65551 0.0
C237 C 0.74554 0.10331 0.68645 0.0
C238 C 0.71976 0.14596 0.67608 0.0
C239 C 0.69066 0.03977 0.69629 0.0
C240 C 0.71174 0.99334 0.7086 0.0
C241 C 0.67981 0.91202 0.70016 0.0
C242 C 0.68926 0.86509 0.71337 0.0
C243 C 0.73179 0.8991 0.73488 0.0
C244 C 0.76282 0.97967 0.74353 0.0
C245 C 0.75148 0.0263 0.73065 0.0
C246 C 0.38854 0.03849 0.66978 0.0
C247 C 0.36633 0.04618 0.69191 0.0
C248 C 0.4561 0.03385 0.66641 0.0
C249 C 0.50284 0.03955 0.68526 0.0
C250 C 0.47403 0.03589 0.70664 0.0
C251 C 0.40599 0.03825 0.70987 0.0
C252 C 0.58572 0.06042 0.68401 0.0
C253 C 0.61172 0.01852 0.69454 0.0
C254 C 0.64098 0.12638 0.67499 0.0
C255 C 0.61896 0.17637 0.66452 0.0
C256 C 0.57815 0.20976 0.67624 0.0
C257 C 0.55563 0.25449 0.66597 0.0
C258 C 0.57485 0.2677 0.64408 0.0
C259 C 0.61668 0.23622 0.63243 0.0
C260 C 0.63868 0.19075 0.64255 0.0
H261 H 0.55743 0.30229 0.6361 0.0
H262 H 0.73951 0.86274 0.74499 0.0
H263 H 0.75743 0.82069 0.96636 0.0
H264 H 0.63782 0.70538 0.97322 0.0
H265 H 0.71301 0.77535 0.04534 0.0
H266 H 0.83397 0.89119 0.03847 0.0
H267 H 0.68545 0.63025 0.02889 0.0
H268 H 0.54411 0.76276 0.02493 0.0
H269 H 0.49654 0.84109 0.00988 0.0
H270 H 0.3932 0.66398 0.94861 0.0
H271 H 0.44098 0.58498 0.96316 0.0
H272 H 0.33685 0.32456 0.06063 0.0
H273 H 0.45481 0.44249 0.05417 0.0
H274 H 0.38442 0.37032 0.98177 0.0
H275 H 0.26535 0.25149 0.98823 0.0
H276 H 0.40897 0.51653 0.99843 0.0
H277 H 0.55069 0.38431 1.00265 0.0
H278 H 0.598 0.30617 0.01793 0.0
H279 H 0.70031 0.48356 0.07917 0.0
H280 H 0.6527 0.56234 0.06439 0.0
C281 C 0.74725 0.81303 0.98378 0.0
C282 C 0.8051 0.86454 1.00188 0.0
C283 C 0.67864 0.74715 0.98769 0.0
C284 C 0.66651 0.73155 0.00978 0.0
C285 C 0.72133 0.78638 0.02815 0.0
C286 C 0.79003 0.85287 0.02425 0.0
C287 C 0.60319 0.65285 0.01298 0.0
C288 C 0.62464 0.60588 0.02265 0.0
C289 C 0.52446 0.62027 0.0041 0.0
C290 C 0.49693 0.66834 0.99505 0.0
C291 C 0.51201 0.74091 0.00814 0.0
C292 C 0.48477 0.78531 0.99973 0.0
C293 C 0.44206 0.75763 0.97828 0.0
C294 C 0.42638 0.6854 0.96521 0.0
C295 C 0.45346 0.64074 0.97354 0.0
C296 C 0.34791 0.33239 0.04325 0.0
C297 C 0.29215 0.27907 0.02491 0.0
C298 C 0.41541 0.3998 0.03958 0.0
C299 C 0.42832 0.41527 0.0175 0.0
C300 C 0.37542 0.35931 0.99895 0.0
C301 C 0.30796 0.29114 1.00261 0.0
C302 C 0.49129 0.49417 0.01439 0.0
C303 C 0.46978 0.54106 0.00471 0.0
C304 C 0.56992 0.52678 0.02332 0.0
C305 C 0.59726 0.4788 0.03251 0.0
C306 C 0.58245 0.40624 0.01949 0.0
C307 C 0.60957 0.36195 0.02803 0.0
C308 C 0.65194 0.38977 0.04954 0.0
C309 C 0.66738 0.46202 0.06253 0.0
C310 C 0.64039 0.50655 0.05407 0.0
H311 H 0.67295 0.35543 0.05611 0.0
H312 H 0.42096 0.79207 0.97181 0.0
H313 H 0.27262 0.32044 0.34549 0.0
H314 H 0.279 0.44438 0.34083 0.0
H315 H 0.02656 0.32628 0.33676 0.0
H316 H 0.02025 0.20511 0.34147 0.0
H317 H 0.08388 0.42791 0.30757 0.0
H318 H 0.1473 0.42746 0.38819 0.0
H319 H 0.23424 0.42875 0.41814 0.0
H320 H 0.42795 0.63877 0.40197 0.0
H321 H 0.34225 0.6381 0.37177 0.0
H322 H 0.96545 0.7013 0.33406 0.0
H323 H 0.98272 0.58955 0.33693 0.0
H324 H 0.2251 0.75334 0.36325 0.0
H325 H 0.20305 0.86305 0.36401 0.0
H326 H 0.19613 0.63875 0.37709 0.0
H327 H 0.14178 0.65567 0.30031 0.0
H328 H 0.06505 0.66019 0.26858 0.0
H329 H 0.87315 0.43034 0.27305 0.0
H330 H 0.94839 0.42484 0.30494 0.0
C331 C 0.21879 0.3209 0.34291 0.0
C332 C 0.14599 0.25342 0.34388 0.0
C333 C 0.22239 0.39158 0.34043 0.0
C334 C 0.15315 0.39469 0.33873 0.0
C335 C 0.08069 0.32548 0.33801 0.0
C336 C 0.07719 0.25602 0.34071 0.0
C337 C 0.1536 0.46986 0.33989 0.0
C338 C 0.10886 0.47456 0.32267 0.0
C339 C 0.18798 0.53169 0.35926 0.0
C340 C 0.23866 0.53228 0.37763 0.0
C341 C 0.2085 0.47366 0.39098 0.0
C342 C 0.25755 0.4743 0.40799 0.0
C343 C 0.33661 0.53369 0.41192 0.0
C344 C 0.36676 0.59272 0.39889 0.0
C345 C 0.318 0.59225 0.38184 0.0
C346 C 0.02101 0.71272 0.3415 0.0
C347 C 0.08335 0.79057 0.34857 0.0
C348 C 0.03183 0.64904 0.34252 0.0
C349 C 0.10686 0.66241 0.34883 0.0
C350 C 0.16688 0.74034 0.35785 0.0
C351 C 0.15443 0.80347 0.35826 0.0
C352 C 0.12431 0.59675 0.3449 0.0
C353 C 0.17245 0.59378 0.36162 0.0
C354 C 0.09503 0.53767 0.32464 0.0
C355 C 0.05057 0.54009 0.30508 0.0
C356 C 0.08321 0.60615 0.29451 0.0
C357 C 0.03994 0.60891 0.27653 0.0
C358 C 0.96425 0.54564 0.26883 0.0
C359 C 0.93178 0.47931 0.27903 0.0
C360 C 0.97474 0.47627 0.29703 0.0
H361 H 0.93079 0.54798 0.25494 0.0
H362 H 0.37448 0.53405 0.42509 0.0
H363 H 0.0601 0.04534 0.27932 0.0
H364 H 0.03235 0.06683 0.24173 0.0
H365 H 0.22025 0.03479 0.21678 0.0
H366 H 0.25052 0.01892 0.25405 0.0
H367 H 0.21561 0.13173 0.1964 0.0
H368 H 0.00266 0.87648 0.21295 0.0
H369 H 0.8937 0.80117 0.23505 0.0
H370 H 0.7828 0.92834 0.21978 0.0
H371 H 0.89135 0.00465 0.19776 0.0
H372 H 0.12812 0.03078 0.07928 0.0
H373 H 0.13967 0.00405 0.11723 0.0
H374 H 0.93872 0.02521 0.13375 0.0
H375 H 0.92446 0.04611 0.09558 0.0
H376 H 0.94554 0.94377 0.15947 0.0
H377 H 0.14268 0.18987 0.14117 0.0
H378 H 0.24974 0.27649 0.12042 0.0
H379 H 0.38996 0.18409 0.14062 0.0
H380 H 0.28322 0.09596 0.16117 0.0
C381 C 0.09712 0.04617 0.26599 0.0
C382 C 0.15696 0.02971 0.26955 0.0
C383 C 0.08036 0.0568 0.24434 0.0
C384 C 0.12221 0.04943 0.22594 0.0
C385 C 0.18619 0.04003 0.23035 0.0
C386 C 0.20353 0.03086 0.25181 0.0
C387 C 0.09826 0.04569 0.20171 0.0
C388 C 0.15658 0.09004 0.18833 0.0
C389 C 0.02079 0.99367 0.19106 0.0
C390 C 0.95518 0.94648 0.20389 0.0
C391 C 0.955 0.88829 0.21435 0.0
C392 C 0.89339 0.84553 0.22687 0.0
C393 C 0.83146 0.86007 0.22886 0.0
C394 C 0.83081 0.91717 0.21825 0.0
C395 C 0.89227 0.9601 0.20574 0.0
C396 C 0.08322 0.02395 0.09047 0.0
C397 C 0.02545 0.04068 0.08449 0.0
C398 C 0.09119 0.01115 0.11249 0.0
C399 C 0.04275 0.01704 0.12896 0.0
C400 C 0.97806 0.02179 0.12173 0.0
C401 C 0.96908 0.03255 0.09964 0.0
C402 C 0.06367 0.02755 0.15395 0.0
C403 C 0.0047 0.98518 0.16747 0.0
C404 C 0.14038 0.08267 0.16484 0.0
C405 C 0.20462 0.13571 0.15249 0.0
C406 C 0.19616 0.18769 0.14106 0.0
C407 C 0.25679 0.23705 0.12934 0.0
C408 C 0.32653 0.23566 0.12916 0.0
C409 C 0.33584 0.18499 0.14073 0.0
C410 C 0.27529 0.13529 0.1524 0.0
H411 H 0.37341 0.27396 0.12009 0.0
H412 H 0.78391 0.82701 0.23858 0.0
H413 H 0.19154 0.97974 0.41528 0.0
H414 H 0.2431 0.98697 0.45372 0.0
H415 H 0.27328 0.21928 0.47494 0.0
H416 H 0.22626 0.21337 0.43675 0.0
H417 H 0.37593 0.21931 0.49874 0.0
H418 H 0.09827 0.03263 0.47978 0.0
H419 H 0.98078 0.91392 0.45837 0.0
H420 H 0.06505 0.76686 0.47606 0.0
H421 H 0.18356 0.88492 0.49736 0.0
H422 H 0.23348 0.21431 0.60867 0.0
H423 H 0.2733 0.22399 0.57019 0.0
H424 H 0.30079 0.02172 0.56775 0.0
H425 H 0.26142 0.01262 0.60633 0.0
H426 H 0.18984 -0.00288 0.53431 0.0
H427 H 0.45542 0.19827 0.56211 0.0
H428 H 0.55607 0.32349 0.58639 0.0
H429 H 0.47657 0.45187 0.55408 0.0
H430 H 0.37446 0.32727 0.5299 0.0
C431 C 0.21309 0.03371 0.42791 0.0
C432 C 0.2055 0.09626 0.423 0.0
C433 C 0.24105 0.03735 0.45006 0.0
C434 C 0.26013 0.10284 0.46769 0.0
C435 C 0.25905 0.16787 0.46197 0.0
C436 C 0.23232 0.16461 0.43997 0.0
C437 C 0.27348 0.10218 0.4924 0.0
C438 C 0.33513 0.17045 0.50643 0.0
C439 C 0.22113 0.03856 0.50277 0.0
C440 C 0.15027 0.96763 0.48985 0.0
C441 C 0.092 0.97502 0.47894 0.0
C442 C 0.0252 0.90787 0.46686 0.0
C443 C 0.01561 0.83293 0.46578 0.0
C444 C 0.0727 0.82497 0.47684 0.0
C445 C 0.1397 0.89197 0.48891 0.0
C446 C 0.25371 0.17566 0.60062 0.0
C447 C 0.24548 0.1135 0.61073 0.0
C448 C 0.27505 0.18018 0.57834 0.0
C449 C 0.28902 0.12279 0.56582 0.0
C450 C 0.28995 0.06646 0.57694 0.0
C451 C 0.26923 0.06246 0.59927 0.0
C452 C 0.29097 0.11477 0.54054 0.0
C453 C 0.23185 0.04498 0.52649 0.0
C454 C 0.34385 0.17799 0.53028 0.0
C455 C 0.4071 0.2533 0.54423 0.0
C456 C 0.45923 0.25316 0.56023 0.0
C457 C 0.51652 0.32405 0.57399 0.0
C458 C 0.5227 0.3956 0.57178 0.0
C459 C 0.47177 0.39642 0.55575 0.0
C460 C 0.41424 0.32568 0.54199 0.0
H461 H 0.56697 0.4504 0.58248 0.0
H462 H 0.96383 0.781 0.45644 0.0
H463 H 0.10115 0.20714 0.7581 0.0
H464 H 0.06304 0.19852 0.79679 0.0
H465 H 0.08847 -0.00533 0.79381 0.0
H466 H 0.12235 0.00121 0.75484 0.0
H467 H -0.00265 0.9841 0.82322 0.0
H468 H 0.24453 0.192 0.81227 0.0
H469 H 0.34342 0.30925 0.79825 0.0
H470 H 0.25077 0.4469 0.8331 0.0
H471 H 0.15037 0.32996 0.84704 0.0
H472 H 0.19113 0.08561 0.93525 0.0
H473 H 0.19728 0.11478 0.89698 0.0
H474 H -0.00531 0.13966 0.90455 0.0
H475 H 0.98734 0.10849 0.9428 0.0
H476 H 0.17037 0.24392 0.87415 0.0
H477 H 0.91174 -0.00483 0.8825 0.0
H478 H 0.85086 0.87428 0.89888 0.0
H479 H 0.01351 0.81106 0.86971 0.0
H480 H 0.07625 0.93246 0.8536 0.0
C481 C 0.09281 0.15699 0.76508 0.0
C482 C 0.11467 0.10477 0.75333 0.0
C483 C 0.07335 0.15347 0.78756 0.0
C484 C 0.07658 0.09833 0.79883 0.0
C485 C 0.0866 0.03879 0.78585 0.0
C486 C 0.10459 0.04156 0.76325 0.0
C487 C 0.07914 0.10806 0.82435 0.0
C488 C 0.03444 0.0414 0.83417 0.0
C489 C 0.13009 0.18186 0.83913 0.0
C490 C 0.18911 0.25191 0.83038 0.0
C491 C 0.24465 0.24703 0.81673 0.0
C492 C 0.30108 0.31346 0.80883 0.0
C493 C 0.30317 0.3854 0.8147 0.0
C494 C 0.24886 0.39104 0.8285 0.0
C495 C 0.19213 0.32469 0.83638 0.0
C496 C 0.15105 0.10255 0.9294 0.0
C497 C 0.08931 0.09569 0.94219 0.0
C498 C 0.15382 0.11786 0.9073 0.0
C499 C 0.0955 0.12775 0.89773 0.0
C500 C 0.04002 0.13166 0.91157 0.0
C501 C 0.0368 0.11548 0.93366 0.0
C502 C 0.08574 0.12121 0.87259 0.0
C503 C 0.13085 0.18781 0.86297 0.0
C504 C 0.03853 0.04687 0.85796 0.0
C505 C -0.00106 0.97301 0.86705 0.0
C506 C 0.93476 0.95571 0.87974 0.0
C507 C 0.89994 0.88713 0.88896 0.0
C508 C 0.9284 0.8351 0.88538 0.0
C509 C -0.00841 0.85143 0.87251 0.0
C510 C 0.02678 0.92009 0.86334 0.0
H511 H 0.9014 0.78207 0.89254 0.0
H512 H 0.34704 0.43684 0.80863 0.0
loop_
_geom_bond_atom_site_label_1
_geom_bond_atom_site_label_2
_geom_bond_distance
_geom_bond_site_symmetry_2
_ccdc_geom_bond_type
O0 Mn1 2.163 . S
O0 C14 1.244 . S
Mn1 O0 2.163 . S
Mn1 O4 2.160 1_445 S
Mn1 O5 2.221 1_554 S
Mn1 O7 2.163 1_545 S
Mn1 O9 2.160 . S
Mn1 O19 2.221 . S
O2 Mn3 2.087 . S
O2 C14 1.256 . S
Mn3 O2 2.087 . S
Mn3 O10 2.089 . S
Mn3 O19 2.290 . S
Mn3 O20 2.251 . S
O4 Mn1 2.160 1_665 S
O4 C15 1.239 . S
O5 Mn1 2.221 1_556 S
O5 Mn6 2.290 1_445 S
O5 C16 1.278 . S
Mn6 O5 2.290 1_665 S
Mn6 O8 2.089 . S
Mn6 O11 2.251 1_655 S
Mn6 O12 2.087 1_655 S
O7 Mn1 2.163 1_565 S
O7 C17 1.244 . S
O8 Mn6 2.089 . S
O8 C15 1.256 1_556 S
O9 Mn1 2.160 . S
O9 C18 1.239 . S
O10 Mn3 2.089 . S
O10 C18 1.256 . S
O11 Mn6 2.251 1_455 S
O11 C16 1.241 1_565 S
O12 Mn6 2.087 1_455 S
O12 C17 1.256 1_556 S
C13 O19 1.278 . S
C13 O20 1.241 . S
C14 O0 1.244 . S
C14 O2 1.256 . S
C15 O4 1.239 . S
C15 O8 1.256 1_554 S
C16 O5 1.278 . S
C16 O11 1.241 1_545 S
C17 O7 1.244 . S
C17 O12 1.256 1_554 S
C18 O9 1.239 . S
C18 O10 1.256 . S
O19 Mn1 2.221 . S
O19 Mn3 2.290 . S
O19 C13 1.278 . S
O20 Mn3 2.251 . S
O20 C13 1.241 . S
O21 Mn22 2.163 . S
O21 C35 1.244 . S
Mn22 O21 2.163 . S
Mn22 O25 2.160 1_545 S
Mn22 O26 2.221 . S
Mn22 O28 2.163 . S
Mn22 O30 2.160 1_545 S
Mn22 O40 2.221 . S
O23 Mn24 2.087 . S
O23 C35 1.256 . S
Mn24 O23 2.087 . S
Mn24 O31 2.087 1_455 S
Mn24 O40 2.290 . S
Mn24 O41 2.251 . S
O25 Mn22 2.160 1_565 S
O25 C36 1.239 . S
O26 Mn22 2.221 . S
O26 Mn27 2.290 1_545 S
O26 C37 1.278 . S
Mn27 O26 2.290 1_565 S
Mn27 O29 2.089 . S
Mn27 O32 2.251 1_565 S
Mn27 O33 2.087 1_565 S
O28 Mn22 2.163 . S
O28 C38 1.244 . S
O29 Mn27 2.089 . S
O29 C36 1.256 . S
O30 Mn22 2.160 1_565 S
O30 C39 1.239 1_465 S
O31 Mn24 2.087 1_655 S
O31 C39 1.255 . S
O32 Mn27 2.251 1_545 S
O32 C37 1.241 . S
O33 Mn27 2.087 1_545 S
O33 C38 1.256 . S
C34 O40 1.278 . S
C34 O41 1.241 . S
C35 O21 1.244 . S
C35 O23 1.256 . S
C36 O25 1.239 . S
C36 O29 1.256 . S
C37 O26 1.278 . S
C37 O32 1.241 . S
C38 O28 1.244 . S
C38 O33 1.256 . S
C39 O30 1.239 1_645 S
C39 O31 1.255 . S
O40 Mn22 2.221 . S
O40 Mn24 2.290 . S
O40 C34 1.278 . S
O41 Mn24 2.251 . S
O41 C34 1.241 . S
O42 Mn43 2.163 . S
O42 C56 1.244 . S
Mn43 O42 2.163 . S
Mn43 O46 2.160 . S
Mn43 O47 2.221 . S
Mn43 O49 2.163 1_545 S
Mn43 O51 2.160 . S
Mn43 O61 2.221 . S
O44 Mn45 2.087 . S
O44 C56 1.256 . S
Mn45 O44 2.087 . S
Mn45 O52 2.089 . S
Mn45 O61 2.290 . S
Mn45 O62 2.251 . S
O46 Mn43 2.160 . S
O46 C57 1.239 . S
O47 Mn43 2.221 . S
O47 Mn48 2.290 . S
O47 C58 1.278 . S
Mn48 O47 2.290 . S
Mn48 O50 2.089 1_455 S
Mn48 O53 2.251 . S
Mn48 O54 2.087 1_545 S
O49 Mn43 2.163 1_565 S
O49 C59 1.244 . S
O50 Mn48 2.089 1_655 S
O50 C57 1.256 1_655 S
O51 Mn43 2.160 . S
O51 C60 1.239 . S
O52 Mn45 2.089 . S
O52 C60 1.256 . S
O53 Mn48 2.251 . S
O53 C58 1.241 . S
O54 Mn48 2.087 1_565 S
O54 C59 1.256 . S
C55 O61 1.278 . S
C55 O62 1.241 . S
C56 O42 1.244 . S
C56 O44 1.256 . S
C57 O46 1.239 . S
C57 O50 1.256 1_455 S
C58 O47 1.278 . S
C58 O53 1.241 . S
C59 O49 1.244 . S
C59 O54 1.256 . S
C60 O51 1.239 . S
C60 O52 1.256 . S
O61 Mn43 2.221 . S
O61 Mn45 2.290 . S
O61 C55 1.278 . S
O62 Mn45 2.251 . S
O62 C55 1.241 . S
H63 C81 0.942 1_556 S
H64 C83 0.955 . S
H65 C85 0.950 . S
H66 C86 0.950 . S
H67 C88 0.950 1_556 S
H68 C91 0.950 . S
H69 C92 0.950 . S
H70 C94 0.950 . S
H71 C95 0.950 . S
H72 C96 0.951 1_655 S
H73 C98 0.951 1_655 S
H74 C100 0.939 1_556 S
H75 C101 0.940 1_556 S
H76 C103 0.950 . S
H77 C106 0.953 . S
H78 C107 0.950 . S
H79 C109 0.950 . S
H80 C110 0.950 1_554 S
C81 H63 0.942 1_554 S
C81 C82 1.366 . S
C81 C83 1.388 . S
C82 C81 1.366 . S
C82 C86 1.385 1_455 S
C83 H64 0.955 . S
C83 C81 1.388 . S
C83 C84 1.366 . S
C84 C83 1.366 . S
C84 C85 1.414 1_455 S
C84 C87 1.499 . S
C85 H65 0.950 . S
C85 C84 1.414 1_655 S
C85 C86 1.374 . S
C86 H66 0.950 . S
C86 C82 1.385 1_655 S
C86 C85 1.374 . S
C87 C84 1.499 . S
C87 C88 1.373 1_455 S
C87 C89 1.389 . S
C88 H67 0.950 1_554 S
C88 C87 1.373 1_655 S
C88 C104 1.377 . S
C89 C87 1.389 . S
C89 C90 1.524 . S
C89 C103 1.377 . S
C90 C89 1.524 . S
C90 C91 1.397 . S
C90 C95 1.363 . S
C91 H68 0.950 . S
C91 C90 1.397 . S
C91 C92 1.334 . S
C92 H69 0.950 . S
C92 C91 1.334 . S
C92 C93 1.287 . S
C93 C92 1.287 . S
C93 C94 1.524 . S
C93 H112 0.913 . S
C94 H70 0.950 . S
C94 C93 1.524 . S
C94 C95 1.415 . S
C95 H71 0.950 . S
C95 C90 1.363 . S
C95 C94 1.415 . S
C96 H72 0.951 1_455 S
C96 C97 1.366 . S
C96 C98 1.388 . S
C97 C96 1.366 . S
C97 C101 1.385 . S
C98 H73 0.951 1_455 S
C98 C96 1.388 . S
C98 C99 1.366 . S
C99 C98 1.366 . S
C99 C100 1.414 . S
C99 C102 1.499 . S
C100 H74 0.939 1_554 S
C100 C99 1.414 . S
C100 C101 1.374 . S
C101 H75 0.940 1_554 S
C101 C97 1.385 . S
C101 C100 1.374 . S
C102 C99 1.499 . S
C102 C103 1.373 . S
C102 C104 1.389 1_455 S
C103 H76 0.950 . S
C103 C89 1.377 . S
C103 C102 1.373 . S
C104 C88 1.377 . S
C104 C102 1.389 1_655 S
C104 C105 1.524 1_554 S
C105 C104 1.524 1_556 S
C105 C106 1.397 . S
C105 C110 1.363 . S
C106 H77 0.953 . S
C106 C105 1.397 . S
C106 C107 1.334 . S
C107 H78 0.950 . S
C107 C106 1.334 . S
C107 C108 1.287 . S
C108 C107 1.287 . S
C108 C109 1.524 . S
C108 H111 0.999 . S
C109 H79 0.950 . S
C109 C108 1.524 . S
C109 C110 1.415 . S
C110 H80 0.950 1_556 S
C110 C105 1.363 . S
C110 C109 1.415 . S
H111 C108 0.999 . S
H112 C93 0.913 . S
H113 C131 0.951 . S
H114 C133 0.951 . S
H115 C135 0.950 . S
H116 C136 0.949 1_565 S
H117 C138 0.950 . S
H118 C141 0.950 . S
H119 C142 0.950 . S
H120 C144 0.950 . S
H121 C145 0.950 . S
H122 C146 0.951 . S
H123 C148 0.951 . S
H124 C150 0.950 . S
H125 C151 0.950 . S
H126 C153 0.950 . S
H127 C156 0.950 1_545 S
H128 C157 0.950 . S
H129 C159 0.950 . S
H130 C160 0.950 . S
C131 H113 0.951 . S
C131 C132 1.366 . S
C131 C133 1.388 . S
C132 C131 1.366 . S
C132 C136 1.386 . S
C133 H114 0.951 . S
C133 C131 1.388 . S
C133 C134 1.366 . S
C134 C133 1.366 . S
C134 C135 1.414 1_545 S
C134 C137 1.499 . S
C135 H115 0.950 . S
C135 C134 1.414 1_565 S
C135 C136 1.373 1_565 S
C136 H116 0.949 1_545 S
C136 C132 1.386 . S
C136 C135 1.373 1_545 S
C137 C134 1.499 . S
C137 C138 1.373 1_545 S
C137 C139 1.389 . S
C138 H117 0.950 . S
C138 C137 1.373 1_565 S
C138 C154 1.377 . S
C139 C137 1.389 . S
C139 C140 1.524 . S
C139 C153 1.377 . S
C140 C139 1.524 . S
C140 C141 1.397 . S
C140 C145 1.363 . S
C141 H118 0.950 . S
C141 C140 1.397 . S
C141 C142 1.334 . S
C142 H119 0.950 . S
C142 C141 1.334 . S
C142 C143 1.287 . S
C143 C142 1.287 . S
C143 C144 1.524 . S
C143 H162 0.913 . S
C144 H120 0.950 . S
C144 C143 1.524 . S
C144 C145 1.415 . S
C145 H121 0.950 . S
C145 C140 1.363 . S
C145 C144 1.415 . S
C146 H122 0.951 . S
C146 C147 1.366 1_565 S
C146 C148 1.388 . S
C147 C146 1.366 1_545 S
C147 C151 1.385 . S
C148 H123 0.951 . S
C148 C146 1.388 . S
C148 C149 1.366 1_565 S
C149 C148 1.366 1_545 S
C149 C150 1.414 . S
C149 C152 1.499 . S
C150 H124 0.950 . S
C150 C149 1.414 . S
C150 C151 1.374 . S
C151 H125 0.950 . S
C151 C147 1.385 . S
C151 C150 1.374 . S
C152 C149 1.499 . S
C152 C153 1.373 . S
C152 C154 1.389 1_545 S
C153 H126 0.950 . S
C153 C139 1.377 . S
C153 C152 1.373 . S
C154 C138 1.377 . S
C154 C152 1.389 1_565 S
C154 C155 1.524 . S
C155 C154 1.524 . S
C155 C156 1.397 . S
C155 C160 1.363 . S
C156 H127 0.950 1_565 S
C156 C155 1.397 . S
C156 C157 1.334 . S
C157 H128 0.950 . S
C157 C156 1.334 . S
C157 C158 1.287 . S
C158 C157 1.287 . S
C158 C159 1.524 . S
C158 H161 0.999 . S
C159 H129 0.950 . S
C159 C158 1.524 . S
C159 C160 1.415 . S
C160 H130 0.950 . S
C160 C155 1.363 . S
C160 C159 1.415 . S
H161 C158 0.999 . S
H162 C143 0.913 . S
H163 C181 0.951 . S
H164 C183 0.951 . S
H165 C185 0.950 . S
H166 C186 0.950 1_455 S
H167 C188 0.950 . S
H168 C191 0.950 . S
H169 C192 0.950 . S
H170 C194 0.950 . S
H171 C195 0.950 . S
H172 C196 0.951 . S
H173 C198 0.951 . S
H174 C200 0.950 . S
H175 C201 0.950 . S
H176 C203 0.950 . S
H177 C206 0.950 . S
H178 C207 0.950 . S
H179 C209 0.950 . S
H180 C210 0.950 . S
C181 H163 0.951 . S
C181 C182 1.366 1_655 S
C181 C183 1.388 . S
C182 C181 1.366 1_455 S
C182 C186 1.385 1_455 S
C183 H164 0.951 . S
C183 C181 1.388 . S
C183 C184 1.366 . S
C184 C183 1.366 . S
C184 C185 1.414 . S
C184 C187 1.499 . S
C185 H165 0.950 . S
C185 C184 1.414 . S
C185 C186 1.374 . S
C186 H166 0.950 1_655 S
C186 C182 1.385 1_655 S
C186 C185 1.374 . S
C187 C184 1.499 . S
C187 C188 1.373 . S
C187 C189 1.389 . S
C188 H167 0.950 . S
C188 C187 1.373 . S
C188 C204 1.377 . S
C189 C187 1.389 . S
C189 C190 1.524 . S
C189 C203 1.377 . S
C190 C189 1.524 . S
C190 C191 1.397 . S
C190 C195 1.363 . S
C191 H168 0.950 . S
C191 C190 1.397 . S
C191 C192 1.334 . S
C192 H169 0.950 . S
C192 C191 1.334 . S
C192 C193 1.287 . S
C193 C192 1.287 . S
C193 C194 1.524 . S
C193 H212 0.913 . S
C194 H170 0.950 . S
C194 C193 1.524 . S
C194 C195 1.415 . S
C195 H171 0.950 . S
C195 C190 1.363 . S
C195 C194 1.415 . S
C196 H172 0.951 . S
C196 C197 1.366 . S
C196 C198 1.388 . S
C197 C196 1.366 . S
C197 C201 1.385 . S
C198 H173 0.951 . S
C198 C196 1.388 . S
C198 C199 1.366 . S
C199 C198 1.366 . S
C199 C200 1.414 . S
C199 C202 1.499 . S
C200 H174 0.950 . S
C200 C199 1.414 . S
C200 C201 1.374 . S
C201 H175 0.950 . S
C201 C197 1.385 . S
C201 C200 1.374 . S
C202 C199 1.499 . S
C202 C203 1.373 . S
C202 C204 1.389 . S
C203 H176 0.950 . S
C203 C189 1.377 . S
C203 C202 1.373 . S
C204 C188 1.377 . S
C204 C202 1.389 . S
C204 C205 1.524 . S
C205 C204 1.524 . S
C205 C206 1.397 . S
C205 C210 1.363 . S
C206 H177 0.950 . S
C206 C205 1.397 . S
C206 C207 1.334 . S
C207 H178 0.950 . S
C207 C206 1.334 . S
C207 C208 1.287 . S
C208 C207 1.287 . S
C208 C209 1.524 . S
C208 H211 0.999 . S
C209 H179 0.950 . S
C209 C208 1.524 . S
C209 C210 1.415 . S
C210 H180 0.950 . S
C210 C205 1.363 . S
C210 C209 1.415 . S
H211 C208 0.999 . S
H212 C193 0.913 . S
H213 C231 0.951 . S
H214 C233 0.951 . S
H215 C235 0.950 . S
H216 C236 0.950 . S
H217 C238 0.950 . S
H218 C241 0.950 . S
H219 C242 0.950 . S
H220 C244 0.950 . S
H221 C245 0.945 1_545 S
H222 C246 0.951 . S
H223 C248 0.951 . S
H224 C250 0.950 . S
H225 C251 0.950 . S
H226 C253 0.950 . S
H227 C256 0.950 . S
H228 C257 0.950 . S
H229 C259 0.950 . S
H230 C260 0.950 . S
C231 H213 0.951 . S
C231 C232 1.366 . S
C231 C233 1.388 . S
C232 C231 1.366 . S
C232 C236 1.385 . S
C233 H214 0.951 . S
C233 C231 1.388 . S
C233 C234 1.366 . S
C234 C233 1.366 . S
C234 C235 1.414 . S
C234 C237 1.499 . S
C235 H215 0.950 . S
C235 C234 1.414 . S
C235 C236 1.374 . S
C236 H216 0.950 . S
C236 C232 1.385 . S
C236 C235 1.374 . S
C237 C234 1.499 . S
C237 C238 1.373 . S
C237 C239 1.389 . S
C238 H217 0.950 . S
C238 C237 1.373 . S
C238 C254 1.377 . S
C239 C237 1.389 . S
C239 C240 1.524 1_545 S
C239 C253 1.377 . S
C240 C239 1.524 1_565 S
C240 C241 1.397 . S
C240 C245 1.363 . S
C241 H218 0.950 . S
C241 C240 1.397 . S
C241 C242 1.334 . S
C242 H219 0.950 . S
C242 C241 1.334 . S
C242 C243 1.287 . S
C243 C242 1.287 . S
C243 C244 1.524 . S
C243 H262 0.913 . S
C244 H220 0.950 . S
C244 C243 1.524 . S
C244 C245 1.415 . S
C245 H221 0.945 1_565 S
C245 C240 1.363 . S
C245 C244 1.415 . S
C246 H222 0.951 . S
C246 C247 1.366 . S
C246 C248 1.388 . S
C247 C246 1.366 . S
C247 C251 1.385 . S
C248 H223 0.951 . S
C248 C246 1.388 . S
C248 C249 1.366 . S
C249 C248 1.366 . S
C249 C250 1.414 . S
C249 C252 1.499 . S
C250 H224 0.950 . S
C250 C249 1.414 . S
C250 C251 1.374 . S
C251 H225 0.950 . S
C251 C247 1.385 . S
C251 C250 1.374 . S
C252 C249 1.499 . S
C252 C253 1.373 . S
C252 C254 1.389 . S
C253 H226 0.950 . S
C253 C239 1.377 . S
C253 C252 1.373 . S
C254 C238 1.377 . S
C254 C252 1.389 . S
C254 C255 1.524 . S
C255 C254 1.524 . S
C255 C256 1.397 . S
C255 C260 1.363 . S
C256 H227 0.950 . S
C256 C255 1.397 . S
C256 C257 1.334 . S
C257 H228 0.950 . S
C257 C256 1.334 . S
C257 C258 1.287 . S
C258 C257 1.287 . S
C258 C259 1.524 . S
C258 H261 0.999 . S
C259 H229 0.950 . S
C259 C258 1.524 . S
C259 C260 1.415 . S
C260 H230 0.950 . S
C260 C255 1.363 . S
C260 C259 1.415 . S
H261 C258 0.999 . S
H262 C243 0.913 . S
H263 C281 0.951 . S
H264 C283 0.951 . S
H265 C285 0.950 . S
H266 C286 0.950 . S
H267 C288 0.950 . S
H268 C291 0.953 . S
H269 C292 0.950 . S
H270 C294 0.950 . S
H271 C295 0.950 . S
H272 C296 0.951 . S
H273 C298 0.951 . S
H274 C300 0.950 . S
H275 C301 0.950 . S
H276 C303 0.950 . S
H277 C306 0.950 . S
H278 C307 0.950 . S
H279 C309 0.950 . S
H280 C310 0.950 . S
C281 H263 0.951 . S
C281 C282 1.366 1_556 S
C281 C283 1.388 . S
C282 C281 1.366 1_554 S
C282 C286 1.385 . S
C283 H264 0.951 . S
C283 C281 1.388 . S
C283 C284 1.366 1_556 S
C284 C283 1.366 1_554 S
C284 C285 1.414 . S
C284 C287 1.499 . S
C285 H265 0.950 . S
C285 C284 1.414 . S
C285 C286 1.374 . S
C286 H266 0.950 . S
C286 C282 1.385 . S
C286 C285 1.374 . S
C287 C284 1.499 . S
C287 C288 1.373 . S
C287 C289 1.367 1_554 S
C288 H267 0.950 . S
C288 C287 1.373 . S
C288 C304 1.377 . S
C289 C287 1.367 1_556 S
C289 C290 1.552 . S
C289 C303 1.372 . S
C290 C289 1.552 . S
C290 C291 1.395 1_556 S
C290 C295 1.363 . S
C291 H268 0.953 . S
C291 C290 1.395 1_554 S
C291 C292 1.332 1_554 S
C292 H269 0.950 . S
C292 C291 1.332 1_556 S
C292 C293 1.287 . S
C293 C292 1.287 . S
C293 C294 1.524 . S
C293 H312 0.913 . S
C294 H270 0.950 . S
C294 C293 1.524 . S
C294 C295 1.415 . S
C295 H271 0.950 . S
C295 C290 1.363 . S
C295 C294 1.415 . S
C296 H272 0.951 . S
C296 C297 1.366 . S
C296 C298 1.388 . S
C297 C296 1.366 . S
C297 C301 1.385 1_554 S
C298 H273 0.951 . S
C298 C296 1.388 . S
C298 C299 1.366 . S
C299 C298 1.366 . S
C299 C300 1.414 1_554 S
C299 C302 1.499 . S
C300 H274 0.950 . S
C300 C299 1.414 1_556 S
C300 C301 1.374 . S
C301 H275 0.950 . S
C301 C297 1.385 1_556 S
C301 C300 1.374 . S
C302 C299 1.499 . S
C302 C303 1.373 1_554 S
C302 C304 1.389 . S
C303 H276 0.950 . S
C303 C289 1.372 . S
C303 C302 1.373 1_556 S
C304 C288 1.377 . S
C304 C302 1.389 . S
C304 C305 1.524 . S
C305 C304 1.524 . S
C305 C306 1.397 . S
C305 C310 1.363 . S
C306 H277 0.950 . S
C306 C305 1.397 . S
C306 C307 1.334 . S
C307 H278 0.950 . S
C307 C306 1.334 . S
C307 C308 1.287 . S
C308 C307 1.287 . S
C308 C309 1.524 . S
C308 H311 0.999 . S
C309 H279 0.950 . S
C309 C308 1.524 . S
C309 C310 1.415 . S
C310 H280 0.950 . S
C310 C305 1.363 . S
C310 C309 1.415 . S
H311 C308 0.999 . S
H312 C293 0.913 . S
H313 C331 0.951 . S
H314 C333 0.951 . S
H315 C335 0.950 . S
H316 C336 0.950 . S
H317 C338 0.950 . S
H318 C341 0.950 . S
H319 C342 0.950 . S
H320 C344 0.950 . S
H321 C345 0.950 . S
H322 C346 0.951 . S
H323 C348 0.951 . S
H324 C350 0.950 . S
H325 C351 0.950 . S
H326 C353 0.950 . S
H327 C356 0.950 . S
H328 C357 0.950 . S
H329 C359 0.950 . S
H330 C360 0.950 . S
C331 H313 0.951 . S
C331 C332 1.366 . S
C331 C333 1.388 . S
C332 C331 1.366 . S
C332 C336 1.385 . S
C333 H314 0.951 . S
C333 C331 1.388 . S
C333 C334 1.366 . S
C334 C333 1.366 . S
C334 C335 1.414 . S
C334 C337 1.499 . S
C335 H315 0.950 . S
C335 C334 1.414 . S
C335 C336 1.374 . S
C336 H316 0.950 . S
C336 C332 1.385 . S
C336 C335 1.374 . S
C337 C334 1.499 . S
C337 C338 1.373 . S
C337 C339 1.389 . S
C338 H317 0.950 . S
C338 C337 1.373 . S
C338 C354 1.377 . S
C339 C337 1.389 . S
C339 C340 1.524 . S
C339 C353 1.377 . S
C340 C339 1.524 . S
C340 C341 1.397 . S
C340 C345 1.363 . S
C341 H318 0.950 . S
C341 C340 1.397 . S
C341 C342 1.334 . S
C342 H319 0.950 . S
C342 C341 1.334 . S
C342 C343 1.287 . S
C343 C342 1.287 . S
C343 C344 1.524 . S
C343 H362 0.913 . S
C344 H320 0.950 . S
C344 C343 1.524 . S
C344 C345 1.415 . S
C345 H321 0.950 . S
C345 C340 1.363 . S
C345 C344 1.415 . S
C346 H322 0.951 . S
C346 C347 1.366 . S
C346 C348 1.388 . S
C347 C346 1.366 . S
C347 C351 1.385 . S
C348 H323 0.951 . S
C348 C346 1.388 . S
C348 C349 1.366 . S
C349 C348 1.366 . S
C349 C350 1.414 . S
C349 C352 1.499 . S
C350 H324 0.950 . S
C350 C349 1.414 . S
C350 C351 1.374 . S
C351 H325 0.950 . S
C351 C347 1.385 . S
C351 C350 1.374 . S
C352 C349 1.499 . S
C352 C353 1.373 . S
C352 C354 1.389 . S
C353 H326 0.950 . S
C353 C339 1.377 . S
C353 C352 1.373 . S
C354 C338 1.377 . S
C354 C352 1.389 . S
C354 C355 1.524 . S
C355 C354 1.524 . S
C355 C356 1.397 . S
C355 C360 1.363 1_455 S
C356 H327 0.950 . S
C356 C355 1.397 . S
C356 C357 1.334 . S
C357 H328 0.950 . S
C357 C356 1.334 . S
C357 C358 1.287 1_455 S
C358 C357 1.287 1_655 S
C358 C359 1.524 . S
C358 H361 0.999 . S
C359 H329 0.950 . S
C359 C358 1.524 . S
C359 C360 1.415 . S
C360 H330 0.950 . S
C360 C355 1.363 1_655 S
C360 C359 1.415 . S
H361 C358 0.999 . S
H362 C343 0.913 . S
H363 C381 0.951 . S
H364 C383 0.951 . S
H365 C385 0.950 . S
H366 C386 0.950 . S
H367 C388 0.950 . S
H368 C391 0.950 1_455 S
H369 C392 0.950 . S
H370 C394 0.950 . S
H371 C395 0.950 1_545 S
H372 C396 0.951 . S
H373 C398 0.951 . S
H374 C400 0.950 . S
H375 C401 0.950 . S
H376 C403 0.950 1_655 S
H377 C406 0.950 . S
H378 C407 0.950 . S
H379 C409 0.950 . S
H380 C410 0.950 . S
C381 H363 0.951 . S
C381 C382 1.366 . S
C381 C383 1.388 . S
C382 C381 1.366 . S
C382 C386 1.385 . S
C383 H364 0.951 . S
C383 C381 1.388 . S
C383 C384 1.366 . S
C384 C383 1.366 . S
C384 C385 1.414 . S
C384 C387 1.499 . S
C385 H365 0.950 . S
C385 C384 1.414 . S
C385 C386 1.374 . S
C386 H366 0.950 . S
C386 C382 1.385 . S
C386 C385 1.374 . S
C387 C384 1.499 . S
C387 C388 1.373 . S
C387 C389 1.389 . S
C388 H367 0.950 . S
C388 C387 1.373 . S
C388 C404 1.377 . S
C389 C387 1.389 . S
C389 C390 1.524 1_445 S
C389 C403 1.377 . S
C390 C389 1.524 1_665 S
C390 C391 1.397 . S
C390 C395 1.363 . S
C391 H368 0.950 1_655 S
C391 C390 1.397 . S
C391 C392 1.334 . S
C392 H369 0.950 . S
C392 C391 1.334 . S
C392 C393 1.287 . S
C393 C392 1.287 . S
C393 C394 1.524 . S
C393 H412 0.913 . S
C394 H370 0.950 . S
C394 C393 1.524 . S
C394 C395 1.415 . S
C395 H371 0.950 1_565 S
C395 C390 1.363 . S
C395 C394 1.415 . S
C396 H372 0.951 . S
C396 C397 1.366 . S
C396 C398 1.388 . S
C397 C396 1.366 . S
C397 C401 1.385 . S
C398 H373 0.951 . S
C398 C396 1.388 . S
C398 C399 1.366 . S
C399 C398 1.366 . S
C399 C400 1.414 . S
C399 C402 1.499 . S
C400 H374 0.950 . S
C400 C399 1.414 . S
C400 C401 1.374 . S
C401 H375 0.950 . S
C401 C397 1.385 . S
C401 C400 1.374 . S
C402 C399 1.499 . S
C402 C403 1.373 . S
C402 C404 1.389 . S
C403 H376 0.950 1_455 S
C403 C389 1.377 . S
C403 C402 1.373 . S
C404 C388 1.377 . S
C404 C402 1.389 . S
C404 C405 1.524 . S
C405 C404 1.524 . S
C405 C406 1.397 . S
C405 C410 1.363 . S
C406 H377 0.950 . S
C406 C405 1.397 . S
C406 C407 1.334 . S
C407 H378 0.950 . S
C407 C406 1.334 . S
C407 C408 1.287 . S
C408 C407 1.287 . S
C408 C409 1.524 . S
C408 H411 0.999 . S
C409 H379 0.950 . S
C409 C408 1.524 . S
C409 C410 1.415 . S
C410 H380 0.950 . S
C410 C405 1.363 . S
C410 C409 1.415 . S
H411 C408 0.999 . S
H412 C393 0.913 . S
H413 C431 0.951 1_565 S
H414 C433 0.951 1_565 S
H415 C435 0.950 . S
H416 C436 0.950 . S
H417 C438 0.950 . S
H418 C441 0.950 . S
H419 C442 0.950 . S
H420 C444 0.950 . S
H421 C445 0.950 . S
H422 C446 0.951 . S
H423 C448 0.951 . S
H424 C450 0.950 1_565 S
H425 C451 0.950 1_565 S
H426 C453 0.950 1_565 S
H427 C456 0.950 . S
H428 C457 0.950 . S
H429 C459 0.950 . S
H430 C460 0.950 . S
C431 H413 0.951 1_545 S
C431 C432 1.366 . S
C431 C433 1.388 . S
C432 C431 1.366 . S
C432 C436 1.385 . S
C433 H414 0.951 1_545 S
C433 C431 1.388 . S
C433 C434 1.366 . S
C434 C433 1.366 . S
C434 C435 1.414 . S
C434 C437 1.499 . S
C435 H415 0.950 . S
C435 C434 1.414 . S
C435 C436 1.374 . S
C436 H416 0.950 . S
C436 C432 1.385 . S
C436 C435 1.374 . S
C437 C434 1.499 . S
C437 C438 1.373 . S
C437 C439 1.389 . S
C438 H417 0.950 . S
C438 C437 1.373 . S
C438 C454 1.377 . S
C439 C437 1.389 . S
C439 C440 1.524 1_545 S
C439 C453 1.377 . S
C440 C439 1.524 1_565 S
C440 C441 1.397 . S
C440 C445 1.363 . S
C441 H418 0.950 . S
C441 C440 1.397 . S
C441 C442 1.334 1_455 S
C442 H419 0.950 . S
C442 C441 1.334 1_655 S
C442 C443 1.287 . S
C443 C442 1.287 . S
C443 C444 1.524 1_655 S
C443 H462 0.913 . S
C444 H420 0.950 . S
C444 C443 1.524 1_455 S
C444 C445 1.415 . S
C445 H421 0.950 . S
C445 C440 1.363 . S
C445 C444 1.415 . S
C446 H422 0.951 . S
C446 C447 1.366 . S
C446 C448 1.388 . S
C447 C446 1.366 . S
C447 C451 1.385 . S
C448 H423 0.951 . S
C448 C446 1.388 . S
C448 C449 1.366 . S
C449 C448 1.366 . S
C449 C450 1.414 . S
C449 C452 1.499 . S
C450 H424 0.950 1_545 S
C450 C449 1.414 . S
C450 C451 1.374 . S
C451 H425 0.950 1_545 S
C451 C447 1.385 . S
C451 C450 1.374 . S
C452 C449 1.499 . S
C452 C453 1.373 . S
C452 C454 1.389 . S
C453 H426 0.950 1_545 S
C453 C439 1.377 . S
C453 C452 1.373 . S
C454 C438 1.377 . S
C454 C452 1.389 . S
C454 C455 1.524 . S
C455 C454 1.524 . S
C455 C456 1.397 . S
C455 C460 1.363 . S
C456 H427 0.950 . S
C456 C455 1.397 . S
C456 C457 1.334 . S
C457 H428 0.950 . S
C457 C456 1.334 . S
C457 C458 1.287 . S
C458 C457 1.287 . S
C458 C459 1.524 . S
C458 H461 0.999 . S
C459 H429 0.950 . S
C459 C458 1.524 . S
C459 C460 1.415 . S
C460 H430 0.950 . S
C460 C455 1.363 . S
C460 C459 1.415 . S
H461 C458 0.999 . S
H462 C443 0.913 . S
H463 C481 0.951 . S
H464 C483 0.951 . S
H465 C485 0.950 . S
H466 C486 0.950 . S
H467 C488 0.950 1_565 S
H468 C491 0.950 . S
H469 C492 0.950 . S
H470 C494 0.950 . S
H471 C495 0.950 . S
H472 C496 0.951 . S
H473 C498 0.951 . S
H474 C500 0.950 . S
H475 C501 0.950 . S
H476 C503 0.950 . S
H477 C506 0.950 . S
H478 C507 0.950 . S
H479 C509 0.950 1_455 S
H480 C510 0.950 . S
C481 H463 0.951 . S
C481 C482 1.366 . S
C481 C483 1.388 . S
C482 C481 1.366 . S
C482 C486 1.385 . S
C483 H464 0.951 . S
C483 C481 1.388 . S
C483 C484 1.366 . S
C484 C483 1.366 . S
C484 C485 1.414 . S
C484 C487 1.499 . S
C485 H465 0.950 . S
C485 C484 1.414 . S
C485 C486 1.374 . S
C486 H466 0.950 . S
C486 C482 1.385 . S
C486 C485 1.374 . S
C487 C484 1.499 . S
C487 C488 1.373 . S
C487 C489 1.389 . S
C488 H467 0.950 1_545 S
C488 C487 1.373 . S
C488 C504 1.377 . S
C489 C487 1.389 . S
C489 C490 1.524 . S
C489 C503 1.377 . S
C490 C489 1.524 . S
C490 C491 1.397 . S
C490 C495 1.363 . S
C491 H468 0.950 . S
C491 C490 1.397 . S
C491 C492 1.334 . S
C492 H469 0.950 . S
C492 C491 1.334 . S
C492 C493 1.287 . S
C493 C492 1.287 . S
C493 C494 1.524 . S
C493 H512 0.913 . S
C494 H470 0.950 . S
C494 C493 1.524 . S
C494 C495 1.415 . S
C495 H471 0.950 . S
C495 C490 1.363 . S
C495 C494 1.415 . S
C496 H472 0.951 . S
C496 C497 1.366 . S
C496 C498 1.388 . S
C497 C496 1.366 . S
C497 C501 1.385 . S
C498 H473 0.951 . S
C498 C496 1.388 . S
C498 C499 1.366 . S
C499 C498 1.366 . S
C499 C500 1.414 . S
C499 C502 1.499 . S
C500 H474 0.950 . S
C500 C499 1.414 . S
C500 C501 1.374 . S
C501 H475 0.950 . S
C501 C497 1.385 . S
C501 C500 1.374 . S
C502 C499 1.499 . S
C502 C503 1.373 . S
C502 C504 1.389 . S
C503 H476 0.950 . S
C503 C489 1.377 . S
C503 C502 1.373 . S
C504 C488 1.377 . S
C504 C502 1.389 . S
C504 C505 1.524 1_545 S
C505 C504 1.524 1_565 S
C505 C506 1.397 1_455 S
C505 C510 1.363 . S
C506 H477 0.950 . S
C506 C505 1.397 1_655 S
C506 C507 1.334 . S
C507 H478 0.950 . S
C507 C506 1.334 . S
C507 C508 1.287 . S
C508 C507 1.287 . S
C508 C509 1.524 . S
C508 H511 0.999 . S
C509 H479 0.950 1_655 S
C509 C508 1.524 . S
C509 C510 1.415 1_655 S
C510 H480 0.950 . S
C510 C505 1.363 . S
C510 C509 1.415 1_455 S
H511 C508 0.999 . S
H512 C493 0.913 . S
C82 C18 1.067 . S
C97 C17 1.078 . S
C132 C38 1.074 . S
C147 C39 1.065 . S
C182 C59 1.082 . S
C197 C60 1.071 . S
C232 C57 1.065 1_655 S
C247 C56 1.074 . S
C282 C15 1.066 . S
C297 C14 1.076 . S
C332 C35 1.082 . S
C347 C36 1.070 . S
C382 C37 1.325 . S
C397 C13 1.307 . S
C432 C34 1.306 . S
C447 C58 1.305 . S
C482 C55 1.326 . S
C497 C16 1.307 . S
