# Generated by pormake.
# Topology wkj, (6)-cn, num edge types: 1
# Building blocks:
#     Node 0, Type 0, BuildingBlock: CIFDUS_clean_sbu_1, # of connection points: 6
#     Node 1, Type 0, BuildingBlock: CIFDUS_clean_sbu_1, # of connection points: 6
#     Node 2, Type 0, BuildingBlock: CIFDUS_clean_sbu_1, # of connection points: 6
#     Node 3, Type 0, BuildingBlock: CIFDUS_clean_sbu_1, # of connection points: 6
#     Node 4, Type 0, BuildingBlock: CIFDUS_clean_sbu_1, # of connection points: 6
#     Node 5, Type 0, BuildingBlock: CIFDUS_clean_sbu_1, # of connection points: 6
#     Node 6, Type 0, BuildingBlock: CIFDUS_clean_sbu_1, # of connection points: 6
#     Node 7, Type 0, BuildingBlock: CIFDUS_clean_sbu_1, # of connection points: 6
#     Node 8, Type 0, BuildingBlock: CIFDUS_clean_sbu_1, # of connection points: 6
#     Node 9, Type 0, BuildingBlock: CIFDUS_clean_sbu_1, # of connection points: 6
#     Node 10, Type 0, BuildingBlock: CIFDUS_clean_sbu_1, # of connection points: 6
#     Node 11, Type 0, BuildingBlock: CIFDUS_clean_sbu_1, # of connection points: 6
#     Edge 12, Type (0, 0), BuildingBlock: UVAHIK_clean_linker_0, # of connection points: 2
#     Edge 13, Type (0, 0), BuildingBlock: UVAHIK_clean_linker_0, # of connection points: 2
#     Edge 14, Type (0, 0), BuildingBlock: UVAHIK_clean_linker_0, # of connection points: 2
#     Edge 15, Type (0, 0), BuildingBlock: UVAHIK_clean_linker_0, # of connection points: 2
#     Edge 16, Type (0, 0), BuildingBlock: UVAHIK_clean_linker_0, # of connection points: 2
#     Edge 17, Type (0, 0), BuildingBlock: UVAHIK_clean_linker_0, # of connection points: 2
#     Edge 18, Type (0, 0), BuildingBlock: UVAHIK_clean_linker_0, # of connection points: 2
#     Edge 19, Type (0, 0), BuildingBlock: UVAHIK_clean_linker_0, # of connection points: 2
#     Edge 20, Type (0, 0), BuildingBlock: UVAHIK_clean_linker_0, # of connection points: 2
#     Edge 21, Type (0, 0), BuildingBlock: UVAHIK_clean_linker_0, # of connection points: 2
#     Edge 22, Type (0, 0), BuildingBlock: UVAHIK_clean_linker_0, # of connection points: 2
#     Edge 23, Type (0, 0), BuildingBlock: UVAHIK_clean_linker_0, # of connection points: 2
#     Edge 24, Type (0, 0), BuildingBlock: UVAHIK_clean_linker_0, # of connection points: 2
#     Edge 25, Type (0, 0), BuildingBlock: UVAHIK_clean_linker_0, # of connection points: 2
#     Edge 26, Type (0, 0), BuildingBlock: UVAHIK_clean_linker_0, # of connection points: 2
#     Edge 27, Type (0, 0), BuildingBlock: UVAHIK_clean_linker_0, # of connection points: 2
#     Edge 28, Type (0, 0), BuildingBlock: UVAHIK_clean_linker_0, # of connection points: 2
#     Edge 29, Type (0, 0), BuildingBlock: UVAHIK_clean_linker_0, # of connection points: 2
#     Edge 30, Type (0, 0), BuildingBlock: UVAHIK_clean_linker_0, # of connection points: 2
#     Edge 31, Type (0, 0), BuildingBlock: UVAHIK_clean_linker_0, # of connection points: 2
#     Edge 32, Type (0, 0), BuildingBlock: UVAHIK_clean_linker_0, # of connection points: 2
#     Edge 33, Type (0, 0), BuildingBlock: UVAHIK_clean_linker_0, # of connection points: 2
#     Edge 34, Type (0, 0), BuildingBlock: UVAHIK_clean_linker_0, # of connection points: 2
#     Edge 35, Type (0, 0), BuildingBlock: UVAHIK_clean_linker_0, # of connection points: 2
#     Edge 36, Type (0, 0), BuildingBlock: UVAHIK_clean_linker_0, # of connection points: 2
#     Edge 37, Type (0, 0), BuildingBlock: UVAHIK_clean_linker_0, # of connection points: 2
#     Edge 38, Type (0, 0), BuildingBlock: UVAHIK_clean_linker_0, # of connection points: 2
#     Edge 39, Type (0, 0), BuildingBlock: UVAHIK_clean_linker_0, # of connection points: 2
#     Edge 40, Type (0, 0), BuildingBlock: UVAHIK_clean_linker_0, # of connection points: 2
#     Edge 41, Type (0, 0), BuildingBlock: UVAHIK_clean_linker_0, # of connection points: 2
#     Edge 42, Type (0, 0), BuildingBlock: UVAHIK_clean_linker_0, # of connection points: 2
#     Edge 43, Type (0, 0), BuildingBlock: UVAHIK_clean_linker_0, # of connection points: 2
#     Edge 44, Type (0, 0), BuildingBlock: UVAHIK_clean_linker_0, # of connection points: 2
#     Edge 45, Type (0, 0), BuildingBlock: UVAHIK_clean_linker_0, # of connection points: 2
#     Edge 46, Type (0, 0), BuildingBlock: UVAHIK_clean_linker_0, # of connection points: 2
#     Edge 47, Type (0, 0), BuildingBlock: UVAHIK_clean_linker_0, # of connection points: 2
# Relax obj value: 0.527
# Max RMSD: 0.242
# Mean RMSD: 0.242
data_MOF--net-wkj--node1-CIFDUS_clean_sbu_1--edge1-UVAHIK_clean_linker_0
_symmetry_space_group_name_H-M    P1
_symmetry_Int_Tables_number       1
_symmetry_cell_setting            triclinic
loop_
_symmetry_equiv_pos_as_xyz
'x, y, z'
_cell_length_a     64.803596
_cell_length_b     64.859772
_cell_length_c     31.698296
_cell_angle_alpha  90.001457
_cell_angle_beta   89.990995
_cell_angle_gamma 120.06489
loop_
_atom_site_label
_atom_site_type_symbol
_atom_site_fract_x
_atom_site_fract_y
_atom_site_fract_z
_atom_type_partial_charge
O0 O 0.51425 0.12389 0.32508 0.0
Mn1 Mn 0.48881 0.10581 0.27875 0.0
O2 O 0.50636 0.14998 0.3569 0.0
Mn3 Mn 0.47653 0.13758 0.33218 0.0
O4 O 0.46371 0.08703 0.23092 0.0
O5 O 0.4991 0.08155 0.28069 0.0
Mn6 Mn 0.50197 0.072 0.23056 0.0
O7 O 0.51455 0.1252 0.23225 0.0
O8 O 0.47144 0.05849 0.20841 0.0
O9 O 0.46291 0.08584 0.32474 0.0
O10 O 0.45267 0.1102 0.35689 0.0
O11 O 0.51168 0.05705 0.26933 0.0
O12 O 0.52471 0.09952 0.20385 0.0
C13 C 0.47364 0.14708 0.26938 0.0
C14 C 0.5195 0.14078 0.35147 0.0
C15 C 0.45868 0.0684 0.20874 0.0
C16 C 0.50742 0.06906 0.29709 0.0
C17 C 0.52708 0.12021 0.20709 0.0
C18 C 0.4504 0.08969 0.35182 0.0
O19 O 0.47917 0.13101 0.27876 0.0
O20 O 0.46925 0.15682 0.3012 0.0
O21 O 0.37584 0.49856 0.6177 0.0
Mn22 Mn 0.37342 0.47786 0.56604 0.0
O23 O 0.3403 0.47966 0.65128 0.0
Mn24 Mn 0.32545 0.45341 0.6151 0.0
O25 O 0.37089 0.45609 0.51455 0.0
O26 O 0.4086 0.49192 0.56886 0.0
Mn27 Mn 0.42234 0.49792 0.51947 0.0
O28 O 0.37769 0.50477 0.52342 0.0
O29 O 0.40864 0.46823 0.49401 0.0
O30 O 0.37016 0.45117 0.60815 0.0
O31 O 0.3319 0.42943 0.62802 0.0
O32 O 0.44647 0.50789 0.55956 0.0
O33 O 0.41466 0.5193 0.4956 0.0
C34 C 0.31763 0.46099 0.55295 0.0
C35 C 0.36186 0.49669 0.64808 0.0
C36 C 0.38624 0.45363 0.49245 0.0
C37 C 0.42916 0.50077 0.58628 0.0
C38 C 0.39503 0.5193 0.49934 0.0
C39 C 0.35322 0.43334 0.62793 0.0
O40 O 0.33808 0.46438 0.56505 0.0
O41 O 0.30092 0.44993 0.58057 0.0
O42 O 0.87247 0.38284 0.97571 0.0
Mn43 Mn 0.89277 0.37998 0.92838 0.0
O44 O 0.85483 0.34815 0.01134 0.0
Mn45 Mn 0.86751 0.33304 0.97892 0.0
O46 O 0.91351 0.37725 0.8799 0.0
O47 O 0.91395 0.4153 0.93213 0.0
Mn48 Mn 0.92282 0.4285 0.88232 0.0
O49 O 0.87144 0.38408 0.88259 0.0
O50 O 0.9396 0.41489 0.85969 0.0
O51 O 0.91498 0.37673 0.97363 0.0
O52 O 0.89714 0.33897 0.99606 0.0
O53 O 0.93566 0.45305 0.92147 0.0
O54 O 0.89456 0.42097 0.85535 0.0
C55 C 0.85429 0.32346 0.91575 0.0
C56 C 0.85899 0.3694 0.00537 0.0
C57 C 0.93183 0.39251 0.85868 0.0
C58 C 0.92496 0.43619 0.94891 0.0
C59 C 0.87482 0.40138 0.85802 0.0
C60 C 0.91498 0.35999 0.99554 0.0
O61 O 0.87056 0.34453 0.92722 0.0
O62 O 0.84779 0.30759 0.94523 0.0
O63 O 0.48732 0.8788 0.32327 0.0
Mn64 Mn 0.51326 0.89653 0.27735 0.0
O65 O 0.49541 0.85325 0.35679 0.0
Mn66 Mn 0.52447 0.86401 0.33017 0.0
O67 O 0.53865 0.91487 0.22992 0.0
O68 O 0.50494 0.922 0.27976 0.0
Mn69 Mn 0.50046 0.93127 0.23072 0.0
O70 O 0.48732 0.87835 0.23028 0.0
O71 O 0.52945 0.94176 0.20351 0.0
O72 O 0.53897 0.91553 0.32429 0.0
O73 O 0.54948 0.8908 0.35388 0.0
O74 O 0.49704 0.95012 0.27156 0.0
O75 O 0.47498 0.90372 0.20902 0.0
C76 C 0.52593 0.85333 0.26783 0.0
C77 C 0.48234 0.86249 0.35081 0.0
C78 C 0.5427 0.93236 0.20528 0.0
C79 C 0.50173 0.93781 0.29786 0.0
C80 C 0.47329 0.88323 0.20906 0.0
C81 C 0.55167 0.91132 0.35034 0.0
O82 O 0.52139 0.87018 0.27669 0.0
O83 O 0.53005 0.84348 0.29981 0.0
O84 O 0.62211 0.49294 0.61965 0.0
Mn85 Mn 0.6217 0.514 0.57132 0.0
O86 O 0.65735 0.51412 0.6531 0.0
Mn87 Mn 0.67023 0.54103 0.61796 0.0
O88 O 0.62067 0.53503 0.52191 0.0
O89 O 0.58643 0.49841 0.5773 0.0
Mn90 Mn 0.57134 0.48653 0.53008 0.0
O91 O 0.61884 0.48857 0.52592 0.0
O92 O 0.58368 0.5128 0.49407 0.0
O93 O 0.62393 0.53857 0.61692 0.0
O94 O 0.66208 0.56349 0.63369 0.0
O95 O 0.54831 0.48098 0.57061 0.0
O96 O 0.57953 0.464 0.51608 0.0
C97 C 0.6781 0.53491 0.55465 0.0
C98 C 0.6367 0.49552 0.6493 0.0
C99 C 0.60452 0.53137 0.4943 0.0
C100 C 0.56642 0.4922 0.59541 0.0
C101 C 0.60112 0.46937 0.51058 0.0
C102 C 0.6401 0.55704 0.63634 0.0
O103 O 0.65731 0.52993 0.56792 0.0
O104 O 0.6949 0.5467 0.58177 0.0
O105 O 0.12163 0.61742 0.97405 0.0
Mn106 Mn 0.10374 0.62196 0.92412 0.0
O107 O 0.13955 0.65186 0.0104 0.0
Mn108 Mn 0.12921 0.66826 0.97596 0.0
O109 O 0.08537 0.62588 0.873 0.0
O110 O 0.0808 0.5872 0.92607 0.0
Mn111 Mn 0.07535 0.5731 0.87714 0.0
O112 O 0.12571 0.61682 0.88091 0.0
O113 O 0.06403 0.58905 0.84416 0.0
O114 O 0.081 0.62611 0.96701 0.0
O115 O 0.09967 0.66381 0.98985 0.0
O116 O 0.05606 0.55 0.91641 0.0
O117 O 0.105 0.57811 0.86155 0.0
C118 C 0.14466 0.67818 0.91443 0.0
C119 C 0.13442 0.63027 0.00488 0.0
C120 C 0.07054 0.6112 0.84566 0.0
C121 C 0.06566 0.56737 0.94306 0.0
C122 C 0.12401 0.59842 0.86185 0.0
C123 C 0.08127 0.64321 0.98823 0.0
O124 O 0.1275 0.65716 0.92426 0.0
O125 O 0.15083 0.69374 0.9444 0.0
O126 O 0.87774 0.50563 0.36866 0.0
Mn127 Mn 0.90184 0.52516 0.41519 0.0
O128 O 0.86849 0.53119 0.33705 0.0
Mn129 Mn 0.88433 0.55723 0.37391 0.0
O130 O 0.92646 0.54548 0.46228 0.0
O131 O 0.9181 0.50616 0.40612 0.0
Mn132 Mn 0.92425 0.49673 0.45385 0.0
O133 O 0.87929 0.50113 0.46195 0.0
O134 O 0.94437 0.52485 0.48244 0.0
O135 O 0.9243 0.54865 0.36831 0.0
O136 O 0.91572 0.57775 0.35878 0.0
O137 O 0.93556 0.48534 0.41138 0.0
O138 O 0.89474 0.47775 0.47819 0.0
C139 C 0.86978 0.54853 0.43705 0.0
C140 C 0.86717 0.51083 0.33982 0.0
C141 C 0.94201 0.54326 0.48412 0.0
C142 C 0.92822 0.49617 0.38658 0.0
C143 C 0.87843 0.4832 0.48134 0.0
C144 C 0.92884 0.56867 0.35196 0.0
O145 O 0.88566 0.54423 0.42193 0.0
O146 O 0.86603 0.56243 0.41296 0.0
O147 O 0.36907 0.88533 0.71894 0.0
Mn148 Mn 0.37442 0.90789 0.76885 0.0
O149 O 0.33384 0.87708 0.69021 0.0
Mn150 Mn 0.32442 0.8919 0.73048 0.0
O151 O 0.37952 0.93097 0.81912 0.0
O152 O 0.40947 0.92349 0.7587 0.0
Mn153 Mn 0.42573 0.929 0.80555 0.0
O154 O 0.37585 0.88384 0.81193 0.0
O155 O 0.41854 0.94912 0.83619 0.0
O156 O 0.37364 0.93257 0.7264 0.0
O157 O 0.33561 0.92364 0.71878 0.0
O158 O 0.44776 0.94034 0.76175 0.0
O159 O 0.41469 0.89907 0.82863 0.0
C160 C 0.31914 0.87566 0.79199 0.0
C161 C 0.35291 0.87574 0.69039 0.0
C162 C 0.39769 0.94639 0.84032 0.0
C163 C 0.42919 0.93318 0.73801 0.0
C164 C 0.39286 0.88269 0.83099 0.0
C165 C 0.35782 0.93733 0.71219 0.0
O166 O 0.33922 0.89188 0.77698 0.0
O167 O 0.30124 0.87265 0.7693 0.0
O168 O 0.49619 0.3782 0.01797 0.0
Mn169 Mn 0.4714 0.37466 0.06294 0.0
O170 O 0.48015 0.34413 0.98063 0.0
Mn171 Mn 0.4505 0.32975 0.00732 0.0
O172 O 0.44661 0.37176 0.10888 0.0
O173 O 0.48636 0.40983 0.0632 0.0
Mn174 Mn 0.49168 0.42262 0.1133 0.0
O175 O 0.4947 0.3762 0.1113 0.0
O176 O 0.46137 0.40868 0.1369 0.0
O177 O 0.44909 0.37445 0.01437 0.0
O178 O 0.42916 0.33802 0.98585 0.0
O179 O 0.50277 0.44743 0.0741 0.0
O180 O 0.51206 0.41373 0.13735 0.0
C181 C 0.44861 0.31675 0.06975 0.0
C182 C 0.49724 0.36511 0.98865 0.0
C183 C 0.44509 0.38683 0.13345 0.0
C184 C 0.49547 0.43055 0.04653 0.0
C185 C 0.51 0.39312 0.13521 0.0
C186 C 0.43328 0.35925 0.98904 0.0
O187 O 0.45636 0.3389 0.06079 0.0
O188 O 0.44045 0.30239 0.03785 0.0
O189 O 0.11622 0.49089 0.37397 0.0
Mn190 Mn 0.09419 0.47012 0.42218 0.0
O191 O 0.12913 0.46855 0.34118 0.0
Mn192 Mn 0.11505 0.442 0.37697 0.0
O193 O 0.07166 0.44891 0.4709 0.0
O194 O 0.07587 0.48675 0.41608 0.0
Mn195 Mn 0.06844 0.49518 0.46337 0.0
O196 O 0.11654 0.49532 0.46756 0.0
O197 O 0.05081 0.46649 0.49217 0.0
O198 O 0.07113 0.44537 0.37708 0.0
O199 O 0.08418 0.4201 0.36155 0.0
O200 O 0.05508 0.50395 0.41947 0.0
O201 O 0.09811 0.51578 0.4863 0.0
C202 C 0.12953 0.44999 0.44016 0.0
C203 C 0.12785 0.48757 0.34452 0.0
C204 C 0.05541 0.44949 0.49342 0.0
C205 C 0.06445 0.49475 0.39543 0.0
C206 C 0.11585 0.51229 0.48775 0.0
C207 C 0.06874 0.42669 0.3582 0.0
O208 O 0.11289 0.45344 0.42616 0.0
O209 O 0.13451 0.43758 0.41448 0.0
O210 O 0.63004 0.11486 0.7208 0.0
Mn211 Mn 0.62675 0.09268 0.76992 0.0
O212 O 0.66515 0.12546 0.68916 0.0
Mn213 Mn 0.67602 0.11059 0.72674 0.0
O214 O 0.62377 0.06981 0.81949 0.0
O215 O 0.59133 0.07634 0.76209 0.0
Mn216 Mn 0.57652 0.06902 0.81085 0.0
O217 O 0.62547 0.11635 0.81392 0.0
O218 O 0.58474 0.04824 0.83584 0.0
O219 O 0.62743 0.06833 0.72686 0.0
O220 O 0.66552 0.0791 0.71362 0.0
O221 O 0.55319 0.0595 0.7698 0.0
O222 O 0.58749 0.09801 0.83773 0.0
C223 C 0.68238 0.12608 0.78912 0.0
C224 C 0.64548 0.12558 0.69154 0.0
C225 C 0.60618 0.05262 0.83915 0.0
C226 C 0.57092 0.06795 0.7437 0.0
C227 C 0.60868 0.11579 0.83667 0.0
C228 C 0.64325 0.06441 0.71004 0.0
O229 O 0.66216 0.10961 0.7751 0.0
O230 O 0.69987 0.12989 0.7645 0.0
O231 O 0.50765 0.61897 0.01995 0.0
Mn232 Mn 0.5316 0.62527 0.06878 0.0
O233 O 0.52097 0.65288 0.98275 0.0
Mn234 Mn 0.55 0.66916 0.01082 0.0
O235 O 0.55538 0.63078 0.1185 0.0
O236 O 0.51931 0.5906 0.07135 0.0
Mn237 Mn 0.51175 0.57812 0.12157 0.0
O238 O 0.5058 0.62216 0.11348 0.0
O239 O 0.53965 0.59526 0.15242 0.0
O240 O 0.55674 0.62713 0.02434 0.0
O241 O 0.57291 0.66246 0.99161 0.0
O242 O 0.50766 0.55396 0.08436 0.0
O243 O 0.48759 0.58401 0.1364 0.0
C244 C 0.55056 0.68257 0.07237 0.0
C245 C 0.50551 0.63122 0.99024 0.0
C246 C 0.55568 0.61712 0.14784 0.0
C247 C 0.51484 0.57052 0.05617 0.0
C248 C 0.48922 0.60445 0.13438 0.0
C249 C 0.5715 0.6424 0.99768 0.0
O250 O 0.54412 0.66059 0.06453 0.0
O251 O 0.55798 0.69657 0.03991 0.0
C252 C 0.49598 0.17595 0.2138 0.0
C253 C 0.47434 0.15648 0.22721 0.0
C254 C 0.49601 0.19418 0.19012 0.0
C255 C 0.45637 0.21318 0.1383 0.0
H256 H 0.49632 0.27265 0.19739 0.0
C257 C 0.43469 0.28679 0.12554 0.0
C258 C 0.45341 0.30796 0.10893 0.0
C259 C 0.43935 0.27012 0.14435 0.0
C260 C 0.48516 0.2562 0.18052 0.0
H261 H 0.43601 0.13901 0.22206 0.0
H262 H 0.43585 0.17015 0.17994 0.0
H263 H 0.50167 0.23842 0.20987 0.0
H264 H 0.49174 0.32995 0.1041 0.0
H265 H 0.50002 0.30095 0.1378 0.0
H266 H 0.43941 0.23073 0.10993 0.0
C267 C 0.45288 0.17177 0.18761 0.0
C268 C 0.48839 0.23665 0.18719 0.0
C269 C 0.45291 0.15368 0.21139 0.0
C270 C 0.47702 0.31389 0.11729 0.0
C271 C 0.48174 0.29709 0.13599 0.0
C272 C 0.45304 0.23261 0.13193 0.0
C273 C 0.47436 0.193 0.17943 0.0
C274 C 0.4737 0.21475 0.16674 0.0
C275 C 0.46282 0.27438 0.14668 0.0
C276 C 0.46703 0.25415 0.15366 0.0
H277 H 0.51273 0.17863 0.22623 0.0
H278 H 0.51288 0.21006 0.1834 0.0
H279 H 0.445 0.19674 0.12159 0.0
H280 H 0.41633 0.28179 0.11912 0.0
H281 H 0.42446 0.253 0.15346 0.0
C282 C 0.32084 0.49869 0.53135 0.0
C283 C 0.3141 0.47511 0.52072 0.0
C284 C 0.30687 0.50842 0.51837 0.0
C285 C 0.25663 0.50174 0.53078 0.0
H286 H 0.22468 0.49725 0.42502 0.0
C287 C 0.15658 0.45627 0.49945 0.0
C288 C 0.14831 0.46617 0.46921 0.0
C289 C 0.18053 0.46841 0.51169 0.0
C290 C 0.23373 0.4992 0.45475 0.0
H291 H 0.28994 0.44459 0.48339 0.0
H292 H 0.26655 0.4621 0.45828 0.0
H293 H 0.26325 0.49888 0.42462 0.0
H294 H 0.15772 0.49742 0.43131 0.0
H295 H 0.19971 0.51844 0.45199 0.0
H296 H 0.22587 0.49937 0.56106 0.0
C297 C 0.2822 0.47292 0.47737 0.0
C298 C 0.25574 0.50005 0.45444 0.0
C299 C 0.29574 0.46295 0.49133 0.0
C300 C 0.16355 0.48962 0.45542 0.0
C301 C 0.18766 0.50153 0.46678 0.0
C302 C 0.23436 0.5003 0.53112 0.0
C303 C 0.28653 0.49493 0.49345 0.0
C304 C 0.26701 0.50055 0.49251 0.0
C305 C 0.19659 0.49036 0.49299 0.0
C306 C 0.22237 0.49824 0.49314 0.0
H307 H 0.33466 0.50823 0.55466 0.0
H308 H 0.31059 0.52544 0.53109 0.0
H309 H 0.26478 0.50174 0.56063 0.0
H310 H 0.14529 0.43803 0.5098 0.0
H311 H 0.18698 0.45934 0.5318 0.0
C312 C 0.81949 0.32289 0.88477 0.0
C313 C 0.83826 0.31815 0.87969 0.0
C314 C 0.79685 0.30705 0.86862 0.0
C315 C 0.7604 0.2542 0.80327 0.0
H316 H 0.72634 0.22385 0.90645 0.0
C317 C 0.70299 0.15429 0.84726 0.0
C318 C 0.6854 0.14589 0.81585 0.0
C319 C 0.71495 0.17838 0.85858 0.0
C320 C 0.73531 0.23241 0.87734 0.0
H321 H 0.84921 0.29551 0.84876 0.0
H322 H 0.8102 0.26884 0.81798 0.0
H323 H 0.76175 0.26367 0.90927 0.0
H324 H 0.66507 0.15545 0.77416 0.0
H325 H 0.68633 0.19765 0.79326 0.0
H326 H 0.73454 0.22247 0.77161 0.0
C327 C 0.8127 0.28435 0.83524 0.0
C328 C 0.75548 0.25519 0.87885 0.0
C329 C 0.83515 0.2998 0.8524 0.0
C330 C 0.67815 0.16135 0.79927 0.0
C331 C 0.69053 0.18557 0.80972 0.0
C332 C 0.73987 0.23168 0.80162 0.0
C333 C 0.79301 0.28682 0.84597 0.0
C334 C 0.76871 0.2659 0.84205 0.0
C335 C 0.70987 0.19446 0.83776 0.0
C336 C 0.72768 0.22023 0.83885 0.0
H337 H 0.82135 0.33667 0.90639 0.0
H338 H 0.78194 0.30935 0.8772 0.0
H339 H 0.77044 0.26196 0.77461 0.0
H340 H 0.70927 0.14285 0.85969 0.0
H341 H 0.72991 0.18484 0.8801 0.0
C342 C 0.52278 0.68479 0.12267 0.0
C343 C 0.54631 0.69149 0.11188 0.0
C344 C 0.51797 0.70084 0.14398 0.0
C345 C 0.5468 0.76094 0.19491 0.0
H346 H 0.49959 0.7683 0.13164 0.0
C347 C 0.54639 0.84703 0.20924 0.0
C348 C 0.52481 0.84346 0.22592 0.0
C349 C 0.54722 0.82843 0.18865 0.0
C350 C 0.5128 0.76642 0.14952 0.0
H351 H 0.58333 0.71852 0.11907 0.0
H352 H 0.57524 0.74614 0.15704 0.0
H353 H 0.50334 0.73297 0.12075 0.0
H354 H 0.48674 0.81941 0.22837 0.0
H355 H 0.48799 0.78704 0.19143 0.0
H356 H 0.55666 0.7946 0.22288 0.0
C357 C 0.56033 0.7288 0.14915 0.0
C358 C 0.51475 0.74605 0.14382 0.0
C359 C 0.56506 0.71286 0.12769 0.0
C360 C 0.50356 0.82266 0.21525 0.0
C361 C 0.50434 0.80397 0.19466 0.0
C362 C 0.54501 0.78133 0.20026 0.0
C363 C 0.5367 0.72365 0.15495 0.0
C364 C 0.53204 0.74325 0.166 0.0
C365 C 0.52642 0.80611 0.18439 0.0
C366 C 0.52829 0.78451 0.17711 0.0
H367 H 0.50802 0.66853 0.11013 0.0
H368 H 0.49958 0.69614 0.14887 0.0
H369 H 0.56005 0.75922 0.21296 0.0
H370 H 0.56303 0.86285 0.21747 0.0
H371 H 0.56442 0.83074 0.18001 0.0
C372 C 0.67655 0.49811 0.53164 0.0
C373 C 0.68245 0.52157 0.5219 0.0
C374 C 0.69115 0.48927 0.51776 0.0
C375 C 0.74196 0.49701 0.52812 0.0
H376 H 0.77339 0.50326 0.42101 0.0
C377 C 0.84226 0.54189 0.4959 0.0
C378 C 0.85023 0.53215 0.46475 0.0
C379 C 0.81825 0.53012 0.5078 0.0
C380 C 0.76452 0.50087 0.45108 0.0
H381 H 0.70585 0.55284 0.48543 0.0
H382 H 0.73034 0.53687 0.4588 0.0
H383 H 0.73468 0.50132 0.4226 0.0
H384 H 0.84 0.50156 0.4245 0.0
H385 H 0.79795 0.48123 0.44468 0.0
H386 H 0.77296 0.49909 0.55687 0.0
C387 C 0.71486 0.52546 0.47784 0.0
C388 C 0.74243 0.49984 0.45192 0.0
C389 C 0.70068 0.53454 0.49268 0.0
C390 C 0.83444 0.50921 0.44933 0.0
C391 C 0.81029 0.4977 0.46041 0.0
C392 C 0.76431 0.49862 0.52734 0.0
C393 C 0.7113 0.50353 0.49287 0.0
C394 C 0.73127 0.49859 0.49053 0.0
C395 C 0.80179 0.50875 0.48788 0.0
C396 C 0.7761 0.50126 0.48888 0.0
H397 H 0.66287 0.48796 0.55482 0.0
H398 H 0.68801 0.47228 0.52966 0.0
H399 H 0.73391 0.49644 0.55839 0.0
H400 H 0.85396 0.55977 0.50751 0.0
H401 H 0.81213 0.5391 0.5289 0.0
C402 C 0.29915 0.84704 0.84988 0.0
C403 C 0.3161 0.85539 0.81737 0.0
C404 C 0.28693 0.82286 0.86058 0.0
C405 C 0.26046 0.76964 0.80204 0.0
H406 H 0.23861 0.73762 0.90969 0.0
C407 C 0.17999 0.67892 0.88545 0.0
C408 C 0.16129 0.68364 0.87925 0.0
C409 C 0.2028 0.69465 0.8698 0.0
C410 C 0.24485 0.74609 0.87925 0.0
H411 H 0.33507 0.84555 0.77297 0.0
H412 H 0.31341 0.80321 0.79107 0.0
H413 H 0.27445 0.7771 0.90668 0.0
H414 H 0.15077 0.70633 0.84722 0.0
H415 H 0.19011 0.73284 0.81741 0.0
H416 H 0.22952 0.73967 0.77522 0.0
C417 C 0.30987 0.81539 0.8088 0.0
C418 C 0.26528 0.76869 0.87763 0.0
C419 C 0.3225 0.83968 0.7989 0.0
C420 C 0.16476 0.70201 0.85166 0.0
C421 C 0.18739 0.71737 0.83506 0.0
C422 C 0.2397 0.74729 0.8038 0.0
C423 C 0.2911 0.80661 0.83808 0.0
C424 C 0.27293 0.78092 0.83916 0.0
C425 C 0.20694 0.71483 0.84664 0.0
C426 C 0.23138 0.73558 0.84259 0.0
H427 H 0.29352 0.85868 0.86383 0.0
H428 H 0.27245 0.81653 0.88312 0.0
H429 H 0.26578 0.77885 0.77204 0.0
H430 H 0.17786 0.66515 0.90735 0.0
H431 H 0.21758 0.69228 0.87903 0.0
C432 C 0.59593 0.14115 0.87372 0.0
C433 C 0.61365 0.1351 0.86682 0.0
C434 C 0.59541 0.15223 0.91112 0.0
C435 C 0.61068 0.14998 0.02059 0.0
H436 H 0.57784 0.18542 0.03867 0.0
C437 C 0.56836 0.14408 0.18039 0.0
C438 C 0.54443 0.1383 0.17808 0.0
C439 C 0.58349 0.15402 0.14566 0.0
C440 C 0.58708 0.17554 0.03425 0.0
H441 H 0.64627 0.13826 0.89136 0.0
H442 H 0.64559 0.15795 0.95698 0.0
H443 H 0.59418 0.18555 0.96908 0.0
H444 H 0.51781 0.1396 0.13893 0.0
H445 H 0.54396 0.15651 0.07778 0.0
H446 H 0.60251 0.13877 0.08461 0.0
C447 C 0.63185 0.1538 0.93364 0.0
C448 C 0.59652 0.17567 0.99436 0.0
C449 C 0.63245 0.14281 0.89585 0.0
C450 C 0.53636 0.1444 0.14171 0.0
C451 C 0.5514 0.15402 0.10661 0.0
C452 C 0.60125 0.14982 0.06031 0.0
C453 C 0.61255 0.15738 0.94271 0.0
C454 C 0.60769 0.16218 0.98663 0.0
C455 C 0.57481 0.1578 0.10743 0.0
C456 C 0.58859 0.16192 0.06741 0.0
H457 H 0.58122 0.13539 0.85178 0.0
H458 H 0.58024 0.15459 0.91678 0.0
H459 H 0.61876 0.13904 0.01588 0.0
H460 H 0.57488 0.13928 0.20801 0.0
H461 H 0.60154 0.15725 0.14792 0.0
C462 C 0.44944 0.58862 0.16755 0.0
C463 C 0.47287 0.60766 0.16266 0.0
C464 C 0.43626 0.5867 0.20371 0.0
C465 C 0.4492 0.60231 0.31496 0.0
H466 H 0.38037 0.56561 0.3255 0.0
C467 C 0.40917 0.56016 0.47324 0.0
C468 C 0.39242 0.53575 0.4707 0.0
C469 C 0.41444 0.57485 0.43782 0.0
C470 C 0.39961 0.57591 0.32321 0.0
H471 H 0.50001 0.64088 0.18979 0.0
H472 H 0.47682 0.63783 0.25299 0.0
H473 H 0.39844 0.58206 0.25697 0.0
H474 H 0.36672 0.50787 0.43027 0.0
H475 H 0.37601 0.53325 0.36818 0.0
H476 H 0.45062 0.59521 0.38025 0.0
C477 C 0.46874 0.62414 0.22905 0.0
C478 C 0.41 0.58541 0.28387 0.0
C479 C 0.48192 0.62612 0.19254 0.0
C480 C 0.37933 0.52676 0.43331 0.0
C481 C 0.38484 0.54137 0.39758 0.0
C482 C 0.43886 0.59283 0.35414 0.0
C483 C 0.44625 0.60373 0.23611 0.0
C484 C 0.43497 0.59808 0.27893 0.0
C485 C 0.40348 0.5653 0.39872 0.0
C486 C 0.41393 0.57885 0.35866 0.0
H487 H 0.44207 0.57407 0.14507 0.0
H488 H 0.41913 0.5707 0.20782 0.0
H489 H 0.46846 0.61156 0.31251 0.0
H490 H 0.41974 0.56744 0.50157 0.0
H491 H 0.4284 0.5933 0.44036 0.0
C492 C 0.84927 0.41646 0.83009 0.0
C493 C 0.85612 0.39908 0.82876 0.0
C494 C 0.83963 0.42122 0.79446 0.0
C495 C 0.82019 0.40333 0.68247 0.0
H496 H 0.85691 0.47153 0.66386 0.0
C497 C 0.8531 0.44558 0.52029 0.0
C498 C 0.8598 0.46953 0.51324 0.0
C499 C 0.84262 0.43441 0.55834 0.0
C500 C 0.8459 0.4525 0.66856 0.0
H501 H 0.85664 0.3718 0.79041 0.0
H502 H 0.83996 0.38012 0.72782 0.0
H503 H 0.85653 0.45563 0.73301 0.0
H504 H 0.85822 0.49971 0.5385 0.0
H505 H 0.83935 0.48002 0.60503 0.0
H506 H 0.81042 0.40029 0.61719 0.0
C507 C 0.8416 0.38988 0.75652 0.0
C508 C 0.84572 0.44329 0.70852 0.0
C509 C 0.85104 0.38495 0.79248 0.0
C510 C 0.85325 0.48123 0.54305 0.0
C511 C 0.84275 0.47002 0.58142 0.0
C512 C 0.82028 0.41259 0.6424 0.0
C513 C 0.83706 0.409 0.75639 0.0
C514 C 0.83349 0.41854 0.71577 0.0
C515 C 0.83855 0.4469 0.59046 0.0
C516 C 0.83384 0.43727 0.63451 0.0
H517 H 0.85328 0.42777 0.85759 0.0
H518 H 0.83581 0.43566 0.79588 0.0
H519 H 0.81029 0.38422 0.68702 0.0
H520 H 0.85785 0.43608 0.49776 0.0
H521 H 0.83977 0.41669 0.56381 0.0
C522 C 0.3691 0.85761 0.89208 0.0
C523 C 0.38753 0.86392 0.8627 0.0
C524 C 0.36971 0.84764 0.93104 0.0
C525 C 0.40413 0.82621 0.99555 0.0
H526 H 0.40013 0.86678 0.0809 0.0
C527 C 0.46325 0.85785 0.14479 0.0
C528 C 0.45563 0.86568 0.17955 0.0
C529 C 0.44851 0.84834 0.10928 0.0
C530 C 0.40083 0.85473 0.05806 0.0
H531 H 0.41912 0.86183 0.84847 0.0
H532 H 0.42012 0.84442 0.91564 0.0
H533 H 0.38412 0.8652 0.01144 0.0
H534 H 0.42601 0.86764 0.2065 0.0
H535 H 0.39975 0.84975 0.146 0.0
H536 H 0.42187 0.8166 0.04209 0.0
C537 C 0.40526 0.84719 0.90931 0.0
C538 C 0.39153 0.85382 0.0179 0.0
C539 C 0.40473 0.85724 0.87066 0.0
C540 C 0.43224 0.86165 0.18005 0.0
C541 C 0.41736 0.85173 0.14505 0.0
C542 C 0.41339 0.82705 0.03595 0.0
C543 C 0.38865 0.84367 0.94104 0.0
C544 C 0.39373 0.84017 0.98564 0.0
C545 C 0.42578 0.84628 0.10817 0.0
C546 C 0.41251 0.84191 0.06743 0.0
H547 H 0.35565 0.8626 0.88688 0.0
H548 H 0.35632 0.84466 0.95446 0.0
H549 H 0.4059 0.81528 0.97161 0.0
H550 H 0.48138 0.86116 0.1434 0.0
H551 H 0.45575 0.84448 0.08157 0.0
C552 C 0.55038 0.40535 0.16181 0.0
C553 C 0.52573 0.38938 0.16398 0.0
C554 C 0.56499 0.409 0.19673 0.0
C555 C 0.56728 0.38972 0.30705 0.0
H556 H 0.60339 0.45781 0.32708 0.0
C557 C 0.58681 0.43122 0.47218 0.0
C558 C 0.60474 0.45509 0.47794 0.0
C559 C 0.58373 0.42 0.43319 0.0
C560 C 0.59407 0.43875 0.32194 0.0
H561 H 0.49726 0.36342 0.20322 0.0
H562 H 0.52275 0.36975 0.26459 0.0
H563 H 0.58507 0.44303 0.25904 0.0
H564 H 0.63556 0.48481 0.44909 0.0
H565 H 0.63088 0.46491 0.38128 0.0
H566 H 0.57582 0.38552 0.37064 0.0
C567 C 0.53093 0.37926 0.23569 0.0
C568 C 0.5834 0.4302 0.28262 0.0
C569 C 0.51629 0.37547 0.20044 0.0
C570 C 0.62156 0.46641 0.44566 0.0
C571 C 0.61854 0.4551 0.40648 0.0
C572 C 0.57819 0.3983 0.34643 0.0
C573 C 0.55523 0.39704 0.23495 0.0
C574 C 0.56932 0.40559 0.27491 0.0
C575 C 0.59865 0.4323 0.3989 0.0
C576 C 0.59115 0.42297 0.35491 0.0
H577 H 0.55803 0.41648 0.1342 0.0
H578 H 0.58369 0.42243 0.19468 0.0
H579 H 0.55681 0.37066 0.30207 0.0
H580 H 0.57362 0.42197 0.49657 0.0
H581 H 0.56824 0.4025 0.4291 0.0
C582 C 0.14955 0.58321 0.83384 0.0
C583 C 0.14283 0.60069 0.8328 0.0
C584 C 0.159 0.5784 0.79798 0.0
C585 C 0.17663 0.59583 0.6847 0.0
H586 H 0.14121 0.52738 0.6685 0.0
C587 C 0.13974 0.55067 0.52558 0.0
C588 C 0.13469 0.5272 0.51851 0.0
C589 C 0.15086 0.56264 0.56275 0.0
C590 C 0.15182 0.5465 0.67251 0.0
H591 H 0.14259 0.62824 0.79479 0.0
H592 H 0.15864 0.61966 0.73183 0.0
H593 H 0.14263 0.54375 0.73764 0.0
H594 H 0.13955 0.49874 0.54284 0.0
H595 H 0.15929 0.51976 0.60799 0.0
H596 H 0.18461 0.59839 0.61857 0.0
C597 C 0.15712 0.60987 0.76042 0.0
C598 C 0.15265 0.556 0.71248 0.0
C599 C 0.14804 0.61495 0.79666 0.0
C600 C 0.14328 0.51684 0.54737 0.0
C601 C 0.15431 0.5288 0.58493 0.0
C602 C 0.17576 0.58629 0.64455 0.0
C603 C 0.16139 0.59056 0.75989 0.0
C604 C 0.16444 0.58082 0.71899 0.0
C605 C 0.1571 0.55137 0.59401 0.0
C606 C 0.16266 0.5615 0.63764 0.0
H607 H 0.14556 0.57185 0.86127 0.0
H608 H 0.16277 0.56391 0.79928 0.0
H609 H 0.18622 0.61499 0.68853 0.0
H610 H 0.13336 0.55912 0.50381 0.0
H611 H 0.15257 0.57989 0.56843 0.0
C612 C 0.41276 0.98407 0.8815 0.0
C613 C 0.39444 0.96068 0.87327 0.0
C614 C 0.41154 0.99651 0.91652 0.0
C615 C 0.39229 0.98568 0.02339 0.0
H616 H 0.40705 0.05143 0.02534 0.0
C617 C 0.42041 0.03641 0.17928 0.0
C618 C 0.43974 0.05972 0.17669 0.0
C619 C 0.40711 0.02489 0.14323 0.0
C620 C 0.40311 0.03313 0.02558 0.0
H621 H 0.3601 0.93222 0.89442 0.0
H622 H 0.35841 0.95376 0.9569 0.0
H623 H 0.39907 0.03034 0.95817 0.0
H624 H 0.45979 0.08973 0.13531 0.0
H625 H 0.43759 0.06966 0.07223 0.0
H626 H 0.39835 0.98865 0.08965 0.0
C627 C 0.37345 0.96255 0.93561 0.0
C628 C 0.3983 0.02101 0.987 0.0
C629 C 0.37438 0.9503 0.89985 0.0
C630 C 0.44456 0.07192 0.13822 0.0
C631 C 0.43174 0.06024 0.10191 0.0
C632 C 0.39765 0.99791 0.06178 0.0
C633 C 0.39224 0.98562 0.94463 0.0
C634 C 0.39336 0.99733 0.98549 0.0
C635 C 0.41352 0.03612 0.10342 0.0
C636 C 0.40379 0.02207 0.06347 0.0
H637 H 0.42842 0.99248 0.8615 0.0
H638 H 0.42636 0.01417 0.92295 0.0
H639 H 0.38882 0.9675 0.02306 0.0
H640 H 0.41657 0.02656 0.20859 0.0
H641 H 0.39272 0.00668 0.1463 0.0
C642 C 0.40844 0.38656 0.15737 0.0
C643 C 0.42494 0.37881 0.16286 0.0
C644 C 0.39416 0.38595 0.19108 0.0
C645 C 0.38013 0.36851 0.30585 0.0
H646 H 0.37821 0.42725 0.31088 0.0
C647 C 0.39093 0.42217 0.45654 0.0
C648 C 0.37827 0.43439 0.46086 0.0
C649 C 0.38797 0.40835 0.4208 0.0
C650 C 0.37807 0.41048 0.30978 0.0
H651 H 0.43901 0.36359 0.20699 0.0
H652 H 0.41487 0.36312 0.26614 0.0
H653 H 0.38892 0.41574 0.24536 0.0
H654 H 0.35169 0.44084 0.43233 0.0
H655 H 0.34684 0.41698 0.36896 0.0
H656 H 0.37109 0.36452 0.37168 0.0
C657 C 0.41205 0.36891 0.23576 0.0
C658 C 0.38418 0.40376 0.27196 0.0
C659 C 0.42595 0.3691 0.20178 0.0
C660 C 0.36143 0.43134 0.42998 0.0
C661 C 0.35882 0.41787 0.39363 0.0
C662 C 0.37439 0.37548 0.3439 0.0
C663 C 0.39668 0.3783 0.23144 0.0
C664 C 0.38601 0.38302 0.26966 0.0
C665 C 0.37265 0.40686 0.3881 0.0
C666 C 0.37394 0.39688 0.34654 0.0
H667 H 0.40764 0.39446 0.12774 0.0
H668 H 0.38212 0.39271 0.18598 0.0
H669 H 0.38074 0.35213 0.30529 0.0
H670 H 0.40415 0.42439 0.47981 0.0
H671 H 0.39904 0.40031 0.41738 0.0
C672 C 0.05376 0.43177 0.56357 0.0
C673 C 0.04251 0.43094 0.52536 0.0
C674 C 0.04034 0.4185 0.59831 0.0
C675 C 0.9781 0.3916 0.63812 0.0
H676 H 0.00533 0.37748 0.73512 0.0
C677 C 0.92931 0.36725 0.79719 0.0
C678 C 0.9432 0.38438 0.82762 0.0
C679 C 0.93999 0.36474 0.76054 0.0
C680 C 0.99738 0.38105 0.70808 0.0
H681 H 0.00888 0.41467 0.49216 0.0
H682 H 0.98551 0.39016 0.55166 0.0
H683 H 0.02648 0.38745 0.66776 0.0
H684 H 0.97914 0.41073 0.84563 0.0
H685 H 0.99785 0.40574 0.78262 0.0
H686 H 0.94915 0.38539 0.6787 0.0
C687 C 0.00453 0.40169 0.55577 0.0
C688 C 0.00959 0.38702 0.66949 0.0
C689 C 0.01791 0.41542 0.52137 0.0
C690 C 0.96808 0.3973 0.82272 0.0
C691 C 0.97878 0.39442 0.78666 0.0
C692 C 0.96573 0.38519 0.6764 0.0
C693 C 0.01535 0.40385 0.59539 0.0
C694 C 0.00056 0.39326 0.63428 0.0
C695 C 0.96475 0.37894 0.75428 0.0
C696 C 0.97558 0.38063 0.71216 0.0
H697 H 0.07269 0.44402 0.56748 0.0
H698 H 0.04947 0.42107 0.62809 0.0
H699 H 0.97056 0.39663 0.61239 0.0
H700 H 0.91006 0.35731 0.79998 0.0
H701 H 0.92877 0.35264 0.73609 0.0
C702 C 0.56157 0.92589 0.14207 0.0
C703 C 0.56207 0.94118 0.17389 0.0
C704 C 0.57402 0.93531 0.10425 0.0
C705 C 0.61782 0.99049 0.04825 0.0
H706 H 0.56997 0.96796 0.96022 0.0
C707 C 0.62424 0.04903 0.90613 0.0
C708 C 0.61065 0.03828 0.86992 0.0
C709 C 0.62383 0.03502 0.94015 0.0
C710 C 0.58399 0.97421 0.98362 0.0
H711 H 0.5775 0.978 0.19307 0.0
H712 H 0.59992 0.99442 0.12795 0.0
H713 H 0.56106 0.94677 0.02649 0.0
H714 H 0.58756 0.00474 0.83904 0.0
H715 H 0.58824 0.9802 0.89666 0.0
H716 H 0.64075 0.01812 0.00556 0.0
C717 C 0.58989 0.97525 0.13181 0.0
C718 C 0.57874 0.96196 0.02193 0.0
C719 C 0.57709 0.96586 0.16914 0.0
C720 C 0.59815 0.01338 0.8668 0.0
C721 C 0.59829 0.99937 0.90021 0.0
C722 C 0.62329 0.00254 0.0095 0.0
C723 C 0.58747 0.96013 0.09809 0.0
C724 C 0.59528 0.97036 0.05515 0.0
C725 C 0.61017 0.00992 0.93828 0.0
C726 C 0.60614 0.99507 0.97702 0.0
H727 H 0.54978 0.90681 0.14473 0.0
H728 H 0.5719 0.92325 0.07881 0.0
H729 H 0.63096 0.99732 0.07329 0.0
H730 H 0.63375 0.06825 0.90939 0.0
H731 H 0.63304 0.04403 0.96876 0.0
C732 C 0.62582 0.57299 0.463 0.0
C733 C 0.61004 0.54835 0.4589 0.0
C734 C 0.62918 0.58848 0.42919 0.0
C735 C 0.62093 0.5887 0.31322 0.0
H736 H 0.60795 0.64009 0.33272 0.0
C737 C 0.59581 0.62651 0.1733 0.0
C738 C 0.57444 0.62649 0.18031 0.0
C739 C 0.60936 0.62616 0.20754 0.0
C740 C 0.61182 0.62594 0.32666 0.0
H741 H 0.58635 0.5206 0.41561 0.0
H742 H 0.59235 0.54719 0.35745 0.0
H743 H 0.6142 0.62014 0.39278 0.0
H744 H 0.55123 0.62775 0.22794 0.0
H745 H 0.57453 0.62709 0.28741 0.0
H746 H 0.61682 0.593 0.24764 0.0
C747 C 0.60209 0.55475 0.38645 0.0
C748 C 0.61564 0.61468 0.36114 0.0
C749 C 0.59846 0.5395 0.42008 0.0
C750 C 0.56794 0.62827 0.22179 0.0
C751 C 0.58136 0.62784 0.25594 0.0
C752 C 0.61709 0.59987 0.27888 0.0
C753 C 0.61728 0.57944 0.39054 0.0
C754 C 0.61914 0.5952 0.35478 0.0
C755 C 0.60154 0.62543 0.24936 0.0
C756 C 0.61143 0.61796 0.28512 0.0
H757 H 0.63498 0.58032 0.49255 0.0
H758 H 0.64098 0.60745 0.43326 0.0
H759 H 0.62393 0.57396 0.30726 0.0
H760 H 0.60092 0.62468 0.14158 0.0
H761 H 0.62503 0.62477 0.20119 0.0
C762 C 0.04059 0.6203 0.81472 0.0
C763 C 0.06198 0.61997 0.81092 0.0
C764 C 0.02873 0.62148 0.77856 0.0
C765 C 0.034 0.62757 0.65999 0.0
H766 H 0.96654 0.58089 0.66384 0.0
C767 C 0.98059 0.56693 0.52213 0.0
C768 C 0.95715 0.56193 0.51488 0.0
C769 C 0.99384 0.58143 0.55578 0.0
C770 C 0.98525 0.59436 0.66233 0.0
H771 H 0.08828 0.62147 0.76723 0.0
H772 H 0.06779 0.62322 0.70442 0.0
H773 H 0.98932 0.59363 0.72907 0.0
H774 H 0.92943 0.56884 0.53624 0.0
H775 H 0.95248 0.59376 0.59627 0.0
H776 H 0.03004 0.6267 0.59269 0.0
C777 C 0.06021 0.62326 0.73482 0.0
C778 C 0.99838 0.60179 0.69985 0.0
C779 C 0.07206 0.62226 0.77088 0.0
C780 C 0.94755 0.57259 0.54092 0.0
C781 C 0.96066 0.58669 0.57534 0.0
C782 C 0.02092 0.61984 0.62245 0.0
C783 C 0.03788 0.62193 0.73795 0.0
C784 C 0.02315 0.61788 0.69914 0.0
C785 C 0.98378 0.59086 0.58355 0.0
C786 C 0.99657 0.6026 0.62316 0.0
H787 H 0.0323 0.6181 0.84533 0.0
H788 H 0.01181 0.62084 0.78237 0.0
H789 H 0.05286 0.64044 0.6581 0.0
H790 H 0.98841 0.55892 0.50257 0.0
H791 H 0.0115 0.5841 0.56152 0.0
C792 C 0.49613 0.06531 0.37379 0.0
C793 C 0.51242 0.0679 0.34226 0.0
C794 C 0.49617 0.05502 0.41273 0.0
C795 C 0.48496 0.00671 0.44448 0.0
H796 H 0.54044 0.00186 0.47265 0.0
C797 C 0.52583 0.96623 0.35295 0.0
C798 C 0.506 0.94429 0.34263 0.0
C799 C 0.52694 0.97708 0.39142 0.0
C800 C 0.52444 0.00269 0.46646 0.0
H801 H 0.54446 0.06652 0.32929 0.0
H802 H 0.54525 0.04954 0.39657 0.0
H803 H 0.54309 0.04063 0.4732 0.0
H804 H 0.47221 0.9156 0.36486 0.0
H805 H 0.47346 0.9351 0.43203 0.0
H806 H 0.46721 0.96947 0.43201 0.0
C807 C 0.53181 0.05458 0.39181 0.0
C808 C 0.52596 0.025 0.46682 0.0
C809 C 0.53128 0.06415 0.35275 0.0
C810 C 0.48793 0.93238 0.37267 0.0
C811 C 0.48867 0.94356 0.41106 0.0
C812 C 0.48347 0.98446 0.44394 0.0
C813 C 0.513 0.04782 0.42077 0.0
C814 C 0.5073 0.02746 0.44953 0.0
C815 C 0.50756 0.96674 0.41969 0.0
C816 C 0.50429 0.98299 0.44868 0.0
H817 H 0.48197 0.0688 0.36698 0.0
H818 H 0.48164 0.05046 0.43457 0.0
H819 H 0.46976 0.00772 0.43297 0.0
H820 H 0.53967 0.97595 0.32976 0.0
H821 H 0.5417 0.99497 0.39627 0.0
C822 C 0.43565 0.48468 0.65195 0.0
C823 C 0.43374 0.50279 0.63173 0.0
C824 C 0.44905 0.48946 0.68881 0.0
C825 C 0.50511 0.54047 0.712 0.0
H826 H 0.51041 0.4903 0.76768 0.0
C827 C 0.57279 0.52388 0.64642 0.0
C828 C 0.56347 0.49968 0.63766 0.0
C829 C 0.56405 0.53105 0.68031 0.0
C830 C 0.50941 0.5046 0.75204 0.0
H831 H 0.44218 0.53947 0.63569 0.0
H832 H 0.46537 0.54793 0.70068 0.0
H833 H 0.47235 0.48922 0.76723 0.0
H834 H 0.53864 0.4639 0.65821 0.0
H835 H 0.52211 0.47588 0.71491 0.0
H836 H 0.54084 0.55476 0.69279 0.0
C837 C 0.45659 0.52995 0.68828 0.0
C838 C 0.48756 0.50415 0.75242 0.0
C839 C 0.44327 0.52515 0.65114 0.0
C840 C 0.54636 0.48274 0.66483 0.0
C841 C 0.53699 0.48982 0.69782 0.0
C842 C 0.52673 0.54073 0.71105 0.0
C843 C 0.46153 0.51279 0.70522 0.0
C844 C 0.48453 0.52041 0.72755 0.0
C845 C 0.54449 0.51415 0.70427 0.0
C846 C 0.52817 0.521 0.72602 0.0
H847 H 0.42948 0.46776 0.63643 0.0
H848 H 0.45232 0.47566 0.70044 0.0
H849 H 0.504 0.5541 0.69414 0.0
H850 H 0.58517 0.53732 0.62489 0.0
H851 H 0.57136 0.54996 0.685 0.0
C852 C 0.92865 0.46369 0.00593 0.0
C853 C 0.9265 0.44185 0.99437 0.0
C854 C 0.93991 0.47478 0.04349 0.0
C855 C 0.97428 0.50221 0.11083 0.0
H856 H 0.02938 0.49903 0.07307 0.0
C857 C 0.06864 0.55883 0.01884 0.0
C858 C 0.05719 0.56426 0.98677 0.0
C859 C 0.05627 0.54762 0.056 0.0
C860 C 0.0145 0.50027 0.08568 0.0
H861 H 0.92983 0.41233 0.01677 0.0
H862 H 0.95046 0.43187 0.08194 0.0
H863 H 0.99127 0.46308 0.077 0.0
H864 H 0.02478 0.56362 0.96872 0.0
H865 H 0.00376 0.54559 0.03356 0.0
H866 H 0.99729 0.54006 0.11354 0.0
C867 C 0.94378 0.44071 0.06178 0.0
C868 C 0.99234 0.4794 0.08795 0.0
C869 C 0.93202 0.42944 0.02427 0.0
C870 C 0.03421 0.56035 0.99369 0.0
C871 C 0.02219 0.54998 0.03106 0.0
C872 C 0.99644 0.52315 0.10816 0.0
C873 C 0.9498 0.46446 0.06983 0.0
C874 C 0.97155 0.48074 0.09473 0.0
C875 C 0.03244 0.54203 0.06151 0.0
C876 C 0.01598 0.52252 0.09019 0.0
H877 H 0.924 0.47346 0.98381 0.0
H878 H 0.94371 0.49287 0.0484 0.0
H879 H 0.95876 0.50363 0.11861 0.0
H880 H 0.0862 0.56114 0.01355 0.0
H881 H 0.06454 0.54147 0.0786 0.0
C882 C 0.03647 0.47317 0.33811 0.0
C883 C 0.05912 0.49125 0.35021 0.0
C884 C 0.02679 0.4744 0.29959 0.0
C885 C 0.02708 0.52407 0.25586 0.0
H886 H 0.9671 0.47248 0.21513 0.0
C887 C 0.94967 0.52145 0.32485 0.0
C888 C 0.93444 0.49882 0.3415 0.0
C889 C 0.96302 0.52407 0.28845 0.0
C890 C 0.9837 0.48723 0.22646 0.0
H891 H 0.09049 0.52376 0.33061 0.0
H892 H 0.07335 0.52648 0.26336 0.0
H893 H 0.00187 0.46751 0.21825 0.0
H894 H 0.91958 0.46107 0.33166 0.0
H895 H 0.94357 0.46524 0.27076 0.0
H896 H 0.00908 0.54287 0.26919 0.0
C897 C 0.06321 0.51093 0.28302 0.0
C898 C 0.00382 0.48449 0.2274 0.0
C899 C 0.07306 0.50941 0.32148 0.0
C900 C 0.93111 0.47877 0.31913 0.0
C901 C 0.94502 0.48134 0.28368 0.0
C902 C 0.00695 0.52661 0.25578 0.0
C903 C 0.03922 0.49448 0.27336 0.0
C904 C 0.02482 0.50178 0.2473 0.0
C905 C 0.96275 0.50415 0.26985 0.0
C906 C 0.98428 0.50692 0.24665 0.0
H907 H 0.02516 0.45955 0.36049 0.0
H908 H 0.00827 0.4614 0.29369 0.0
H909 H 0.04324 0.5383 0.2697 0.0
H910 H 0.95344 0.53722 0.34239 0.0
H911 H 0.9754 0.54197 0.278 0.0
C912 C 0.43555 0.96226 0.683 0.0
C913 C 0.43199 0.93974 0.6932 0.0
C914 C 0.44838 0.97418 0.64701 0.0
C915 C 0.50182 0.97961 0.6059 0.0
H916 H 0.50689 0.03904 0.57028 0.0
C917 C 0.57762 0.05844 0.66989 0.0
C918 C 0.56652 0.06663 0.69774 0.0
C919 C 0.56612 0.04685 0.63238 0.0
C920 C 0.50595 0.02246 0.5791 0.0
H921 H 0.43733 0.91102 0.67243 0.0
H922 H 0.4602 0.93193 0.60947 0.0
H923 H 0.46802 0.00276 0.5709 0.0
H924 H 0.53774 0.07419 0.70426 0.0
H925 H 0.51805 0.05484 0.63964 0.0
H926 H 0.539 0.99944 0.61883 0.0
C927 C 0.45265 0.9403 0.62875 0.0
C928 C 0.48361 0.0016 0.57939 0.0
C929 C 0.43945 0.92824 0.66466 0.0
C930 C 0.54638 0.0674 0.68381 0.0
C931 C 0.53513 0.05631 0.64624 0.0
C932 C 0.52407 0.00043 0.60578 0.0
C933 C 0.45885 0.96416 0.62135 0.0
C934 C 0.48102 0.98066 0.59771 0.0
C935 C 0.54353 0.04374 0.62224 0.0
C936 C 0.52577 0.02256 0.59763 0.0
H937 H 0.43139 0.972 0.70586 0.0
H938 H 0.4529 0.99257 0.64307 0.0
H939 H 0.50079 0.9637 0.61898 0.0
H940 H 0.5936 0.0585 0.67914 0.0
H941 H 0.57359 0.03811 0.61392 0.0
C942 C 0.50338 0.56645 0.98036 0.0
C943 C 0.5183 0.56619 0.01209 0.0
C944 C 0.50215 0.55588 0.94113 0.0
C945 C 0.5249 0.52037 0.88428 0.0
H946 H 0.46201 0.46964 0.91437 0.0
C947 C 0.51869 0.45227 0.98379 0.0
C948 C 0.49677 0.43554 1.00116 0.0
C949 C 0.51956 0.46382 0.94614 0.0
C950 C 0.47951 0.48318 0.90402 0.0
H951 H 0.54474 0.55646 0.02765 0.0
H952 H 0.54328 0.53873 0.95969 0.0
H953 H 0.4705 0.50989 0.917 0.0
H954 H 0.45869 0.41623 0.99154 0.0
H955 H 0.46003 0.43492 0.92438 0.0
H956 H 0.53426 0.49353 0.87392 0.0
C957 C 0.53265 0.54719 0.96398 0.0
C958 C 0.48437 0.50669 0.90531 0.0
C959 C 0.53333 0.55708 1.00328 0.0
C960 C 0.47589 0.42854 0.9781 0.0
C961 C 0.47672 0.43979 0.93992 0.0
C962 C 0.51989 0.49675 0.88206 0.0
C963 C 0.51592 0.54502 0.93336 0.0
C964 C 0.50804 0.5254 0.90216 0.0
C965 C 0.49834 0.45916 0.92537 0.0
C966 C 0.49834 0.47838 0.89897 0.0
H967 H 0.49106 0.57267 0.98727 0.0
H968 H 0.48885 0.55416 0.91852 0.0
H969 H 0.54307 0.53454 0.8792 0.0
H970 H 0.53505 0.45802 1.00131 0.0
H971 H 0.53677 0.47833 0.93666 0.0
C972 C 0.34872 0.9529 0.64696 0.0
C973 C 0.36488 0.95595 0.67932 0.0
C974 C 0.35635 0.96738 0.61115 0.0
C975 C 0.37511 0.00751 0.54669 0.0
H976 H 0.43425 0.01861 0.49565 0.0
C977 C 0.42366 0.07625 0.41504 0.0
C978 C 0.43497 0.0708 0.3825 0.0
C979 C 0.41286 0.06066 0.44874 0.0
C980 C 0.41757 0.01542 0.5093 0.0
H981 H 0.40084 0.97828 0.70166 0.0
H982 H 0.41464 0.00332 0.6382 0.0
H983 H 0.42078 0.99647 0.56199 0.0
H984 H 0.44135 0.04325 0.358 0.0
H985 H 0.42308 0.01624 0.41792 0.0
H986 H 0.37191 0.0265 0.49419 0.0
C987 C 0.39619 0.98926 0.64017 0.0
C988 C 0.41004 0.00307 0.54759 0.0
C989 C 0.38842 0.97489 0.67631 0.0
C990 C 0.43356 0.04843 0.3831 0.0
C991 C 0.42306 0.03293 0.41738 0.0
C992 C 0.38273 0.02002 0.50866 0.0
C993 C 0.38033 0.98526 0.60673 0.0
C994 C 0.38875 0.99903 0.56676 0.0
C995 C 0.4131 0.03918 0.45103 0.0
C996 C 0.40408 0.02421 0.4896 0.0
H997 H 0.33042 0.93844 0.64808 0.0
H998 H 0.34368 0.9638 0.58598 0.0
H999 H 0.35867 0.00476 0.5607 0.0
H1000 H 0.42403 0.09313 0.41566 0.0
H1001 H 0.40537 0.06603 0.47411 0.0
C1002 C 0.3998 0.36023 0.95106 0.0
C1003 C 0.42414 0.36782 0.95482 0.0
C1004 C 0.3912 0.36601 0.91495 0.0
C1005 C 0.40623 0.38219 0.80251 0.0
H1006 H 0.36018 0.40351 0.80954 0.0
C1007 C 0.38233 0.42291 0.66033 0.0
C1008 C 0.35922 0.41962 0.65832 0.0
C1009 C 0.38941 0.41438 0.69484 0.0
C1010 C 0.37274 0.39719 0.80684 0.0
H1011 H 0.45839 0.38631 0.9236 0.0
H1012 H 0.44364 0.39686 0.86116 0.0
H1013 H 0.37399 0.39374 0.87391 0.0
H1014 H 0.3246 0.40242 0.68914 0.0
H1015 H 0.33656 0.3868 0.74791 0.0
H1016 H 0.405 0.3856 0.73547 0.0
C1017 C 0.43112 0.38662 0.88588 0.0
C1018 C 0.38071 0.39166 0.84387 0.0
C1019 C 0.43966 0.38097 0.92193 0.0
C1020 C 0.3427 0.40566 0.6897 0.0
C1021 C 0.34965 0.39694 0.72389 0.0
C1022 C 0.39818 0.38762 0.76544 0.0
C1023 C 0.40675 0.37902 0.88166 0.0
C1024 C 0.39768 0.38425 0.84221 0.0
C1025 C 0.37333 0.40196 0.72782 0.0
C1026 C 0.38139 0.39529 0.76707 0.0
H1027 H 0.38743 0.34946 0.97558 0.0
H1028 H 0.37227 0.35962 0.91247 0.0
H1029 H 0.41902 0.37615 0.80001 0.0
H1030 H 0.39515 0.4328 0.63595 0.0
H1031 H 0.40777 0.41849 0.69649 0.0
C1032 C 0.93006 0.34933 0.05977 0.0
C1033 C 0.93409 0.36576 0.0273 0.0
C1034 C 0.94522 0.3558 0.09456 0.0
C1035 C 0.00455 0.39895 0.1357 0.0
H1036 H 0.97248 0.37963 0.24407 0.0
C1037 C 0.05558 0.406 0.28865 0.0
C1038 C 0.05057 0.41564 0.32437 0.0
C1039 C 0.04109 0.39975 0.25286 0.0
C1040 C 0.98172 0.3853 0.21413 0.0
H1041 H 0.95885 0.40124 0.0043 0.0
H1042 H 0.98535 0.4127 0.06571 0.0
H1043 H 0.94903 0.36996 0.17938 0.0
H1044 H 0.0253 0.42422 0.3518 0.0
H1045 H -8e-05 0.41355 0.2889 0.0
H1046 H 0.03726 0.41436 0.17056 0.0
C1047 C 0.97012 0.39484 0.06421 0.0
C1048 C 0.96829 0.37956 0.177 0.0
C1049 C 0.95485 0.38832 0.02914 0.0
C1050 C 0.02988 0.41746 0.32435 0.0
C1051 C 0.01528 0.41113 0.28847 0.0
C1052 C 0.018 0.40454 0.17287 0.0
C1053 C 0.96499 0.37885 0.09795 0.0
C1054 C 0.97953 0.38608 0.1373 0.0
C1055 C 0.02111 0.4028 0.25188 0.0
C1056 C 0.00674 0.39758 0.21253 0.0
H1057 H 0.91448 0.33166 0.05951 0.0
H1058 H 0.94114 0.34282 0.11937 0.0
H1059 H 0.01374 0.40421 0.10568 0.0
H1060 H 0.0714 0.40436 0.28743 0.0
H1061 H 0.04578 0.39286 0.22563 0.0
C1062 C 0.65201 0.04577 0.64862 0.0
C1063 C 0.63557 0.04492 0.67861 0.0
C1064 C 0.64428 0.03081 0.61345 0.0
C1065 C 0.59143 0.99801 0.54619 0.0
H1066 H 0.62734 0.97046 0.49867 0.0
C1067 C 0.56923 0.95233 0.38223 0.0
C1068 C 0.56685 0.92959 0.38199 0.0
C1069 C 0.57947 0.96757 0.41688 0.0
C1070 C 0.61712 0.97805 0.51152 0.0
H1071 H 0.59836 0.02581 0.6972 0.0
H1072 H 0.5848 -0.0002 0.63532 0.0
H1073 H 0.64002 0.99211 0.56525 0.0
H1074 H 0.57552 0.90596 0.41659 0.0
H1075 H 0.59365 0.93248 0.47597 0.0
H1076 H 0.5683 0.98357 0.49266 0.0
C1077 C 0.60364 0.01255 0.63864 0.0
C1078 C 0.62444 0.99054 0.54959 0.0
C1079 C 0.61142 0.02742 0.67413 0.0
C1080 C 0.57678 0.92324 0.41559 0.0
C1081 C 0.58726 0.9385 0.44982 0.0
C1082 C 0.58416 0.98559 0.50795 0.0
C1083 C 0.61993 0.01455 0.60732 0.0
C1084 C 0.61164 0.00059 0.5675 0.0
C1085 C 0.58809 0.96053 0.45152 0.0
C1086 C 0.59685 0.97534 0.49033 0.0
H1087 H 0.67077 0.05894 0.6509 0.0
H1088 H 0.65732 0.03287 0.58994 0.0
H1089 H 0.58138 0.00584 0.55882 0.0
H1090 H 0.56261 0.95805 0.35615 0.0
H1091 H 0.58034 0.98469 0.41685 0.0
C1092 C 0.59797 0.65071 0.93458 0.0
C1093 C 0.58457 0.63531 0.96772 0.0
C1094 C 0.60609 0.6426 0.90114 0.0
C1095 C 0.58983 0.58769 0.84363 0.0
H1096 H 0.65116 0.62541 0.78896 0.0
C1097 C 0.61954 0.55102 0.70486 0.0
C1098 C 0.6328 0.56656 0.67203 0.0
C1099 C 0.61421 0.55957 0.74125 0.0
C1100 C 0.63382 0.61478 0.80344 0.0
H1101 H 0.57164 0.60016 0.99366 0.0
H1102 H 0.58518 0.5856 0.93451 0.0
H1103 H 0.64242 0.63983 0.85387 0.0
H1104 H 0.6518 0.60335 0.65196 0.0
H1105 H 0.64187 0.61849 0.71526 0.0
H1106 H 0.58091 0.56289 0.79287 0.0
C1107 C 0.58895 0.60387 0.93418 0.0
C1108 C 0.62889 0.62299 0.84085 0.0
C1109 C 0.58114 0.61214 0.96802 0.0
C1110 C 0.64107 0.59098 0.6765 0.0
C1111 C 0.63557 0.5996 0.71294 0.0
C1112 C 0.59468 0.57955 0.80608 0.0
C1113 C 0.60096 0.61885 0.89978 0.0
C1114 C 0.60684 0.60954 0.8614 0.0
C1115 C 0.62212 0.58398 0.7459 0.0
C1116 C 0.61676 0.59298 0.78544 0.0
H1117 H 0.60121 0.66878 0.93322 0.0
H1118 H 0.61528 0.65463 0.87521 0.0
H1119 H 0.57248 0.57717 0.85816 0.0
H1120 H 0.6137 0.5322 0.70275 0.0
H1121 H 0.60432 0.54705 0.76616 0.0
C1122 C 0.06498 0.65477 0.04987 0.0
C1123 C 0.06158 0.63809 0.01827 0.0
C1124 C 0.04914 0.6485 0.0837 0.0
C1125 C 0.98977 0.60239 0.12434 0.0
H1126 H 0.0206 0.62457 0.23306 0.0
C1127 C 0.94085 0.56221 0.2812 0.0
C1128 C 0.94502 0.57764 0.31528 0.0
C1129 C 0.95447 0.5704 0.24444 0.0
C1130 C 0.01164 0.61847 0.20297 0.0
H1131 H 0.03723 0.60286 0.99496 0.0
H1132 H 0.00989 0.59127 0.05502 0.0
H1133 H 0.0444 0.63729 0.16889 0.0
H1134 H 0.96583 0.61401 0.33707 0.0
H1135 H 0.99007 0.62854 0.2726 0.0
H1136 H 0.95704 0.58324 0.15871 0.0
C1137 C 0.02498 0.60922 0.05382 0.0
C1138 C 0.02529 0.62579 0.16604 0.0
C1139 C 0.04079 0.61565 0.01963 0.0
C1140 C 0.96275 0.60166 0.31159 0.0
C1141 C 0.97656 0.6099 0.27474 0.0
C1142 C 0.97612 0.59501 0.16134 0.0
C1143 C 0.02945 0.62534 0.08709 0.0
C1144 C 0.01457 0.61785 0.12618 0.0
C1145 C 0.9725 0.59435 0.24063 0.0
C1146 C 0.9869 0.60288 0.20115 0.0
H1147 H 0.08056 0.67244 0.04977 0.0
H1148 H 0.05275 0.66167 0.10791 0.0
H1149 H 0.98083 0.59613 0.09428 0.0
H1150 H 0.92665 0.5438 0.28269 0.0
H1151 H 0.95094 0.55787 0.21908 0.0
C1152 C 0.55122 0.13429 0.38253 0.0
C1153 C 0.54048 0.1484 0.37906 0.0
C1154 C 0.56877 0.13947 0.41279 0.0
C1155 C 0.58732 0.16865 0.51608 0.0
H1156 H 0.63444 0.14881 0.50556 0.0
C1157 C 0.61616 0.13401 0.65584 0.0
C1158 C 0.63919 0.13704 0.65746 0.0
C1159 C 0.609 0.14222 0.6214 0.0
C1160 C 0.62176 0.15495 0.50897 0.0
H1161 H 0.54113 0.18019 0.40228 0.0
H1162 H 0.57233 0.18969 0.45429 0.0
H1163 H 0.61447 0.15173 0.44276 0.0
H1164 H 0.67318 0.15225 0.62499 0.0
H1165 H 0.66075 0.16699 0.56491 0.0
H1166 H 0.59457 0.17182 0.58224 0.0
C1167 C 0.56662 0.17414 0.43452 0.0
C1168 C 0.61006 0.1563 0.47299 0.0
C1169 C 0.54881 0.16876 0.40459 0.0
C1170 C 0.65529 0.1495 0.62462 0.0
C1171 C 0.64812 0.15785 0.59012 0.0
C1172 C 0.5992 0.16755 0.55194 0.0
C1173 C 0.57627 0.15912 0.43992 0.0
C1174 C 0.59201 0.16224 0.47635 0.0
C1175 C 0.62473 0.15386 0.58775 0.0
C1176 C 0.61583 0.15973 0.54904 0.0
H1177 H 0.54529 0.11851 0.3633 0.0
H1178 H 0.57548 0.12728 0.41631 0.0
H1179 H 0.57347 0.17318 0.52006 0.0
H1180 H 0.60318 0.12441 0.68043 0.0
H1181 H 0.59072 0.13841 0.62035 0.0
C1182 C 0.3627 0.52424 0.70491 0.0
C1183 C 0.37271 0.51191 0.68517 0.0
C1184 C 0.37296 0.53724 0.742 0.0
C1185 C 0.41143 0.53995 0.83032 0.0
H1186 H 0.4287 0.6062 0.84228 0.0
C1187 C 0.49051 0.60532 0.92789 0.0
C1188 C 0.4868 0.61851 0.95881 0.0
C1189 C 0.4728 0.59212 0.89849 0.0
C1190 C 0.42356 0.58758 0.83965 0.0
H1191 H 0.39971 0.50184 0.68977 0.0
H1192 H 0.41816 0.525 0.7529 0.0
H1193 H 0.40385 0.58281 0.78249 0.0
H1194 H 0.46258 0.62962 0.98254 0.0
H1195 H 0.43129 0.60665 0.92969 0.0
H1196 H 0.43216 0.54499 0.88588 0.0
C1197 C 0.40269 0.52503 0.74004 0.0
C1198 C 0.40936 0.57421 0.80557 0.0
C1199 C 0.39257 0.51227 0.70328 0.0
C1200 C 0.46553 0.61925 0.95902 0.0
C1201 C 0.44779 0.60623 0.92897 0.0
C1202 C 0.42568 0.55328 0.86395 0.0
C1203 C 0.39293 0.53751 0.76011 0.0
C1204 C 0.40396 0.55052 0.79977 0.0
C1205 C 0.4512 0.59223 0.89899 0.0
C1206 C 0.43254 0.5774 0.8681 0.0
H1207 H 0.34703 0.52375 0.69178 0.0
H1208 H 0.36501 0.54661 0.75698 0.0
H1209 H 0.40707 0.52156 0.82724 0.0
H1210 H 0.50711 0.6051 0.92672 0.0
H1211 H 0.47601 0.58183 0.87516 0.0
C1212 C 0.84853 0.40039 0.02457 0.0
C1213 C 0.84937 0.37983 0.03551 0.0
C1214 C 0.84267 0.4123 0.05466 0.0
C1215 C 0.82046 0.40849 0.16484 0.0
H1216 H 0.86323 0.47686 0.16201 0.0
C1217 C 0.85084 0.4698 0.31026 0.0
C1218 C 0.85488 0.49312 0.30598 0.0
C1219 C 0.84322 0.4543 0.27585 0.0
C1220 C 0.85077 0.45786 0.16286 0.0
H1221 H 0.84362 0.35498 0.08605 0.0
H1222 H 0.83418 0.37618 0.13898 0.0
H1223 H 0.86294 0.45264 0.10354 0.0
H1224 H 0.85241 0.51784 0.26294 0.0
H1225 H 0.83924 0.49073 0.20279 0.0
H1226 H 0.80945 0.41389 0.2257 0.0
C1227 C 0.8375 0.38286 0.10694 0.0
C1228 C 0.85055 0.44392 0.12923 0.0
C1229 C 0.84304 0.37074 0.07663 0.0
C1230 C 0.84957 0.50004 0.26731 0.0
C1231 C 0.84212 0.48457 0.23279 0.0
C1232 C 0.82086 0.42248 0.19877 0.0
C1233 C 0.8379 0.40416 0.09659 0.0
C1234 C 0.83574 0.419 0.13012 0.0
C1235 C 0.83963 0.46184 0.23641 0.0
C1236 C 0.83636 0.44725 0.19839 0.0
H1237 H 0.85303 0.40767 0.99295 0.0
H1238 H 0.84259 0.42832 0.04532 0.0
H1239 H 0.80856 0.38941 0.16626 0.0
H1240 H 0.8546 0.46383 0.33968 0.0
H1241 H 0.84161 0.43694 0.2795 0.0
C1242 C 0.46077 0.8449 0.41824 0.0
C1243 C 0.46181 0.85557 0.37915 0.0
C1244 C 0.44319 0.84114 0.44757 0.0
C1245 C 0.40364 0.86471 0.4752 0.0
H1246 H 0.38217 0.81578 0.56143 0.0
C1247 C 0.34627 0.86247 0.61509 0.0
C1248 C 0.35779 0.86469 0.65384 0.0
C1249 C 0.35377 0.85599 0.57868 0.0
C1250 C 0.38789 0.82939 0.5373 0.0
H1251 H 0.44429 0.86921 0.33896 0.0
H1252 H 0.41302 0.86187 0.3896 0.0
H1253 H 0.40418 0.81382 0.50043 0.0
H1254 H 0.38503 0.86022 0.68533 0.0
H1255 H 0.39777 0.84846 0.62174 0.0
H1256 H 0.38736 0.88025 0.51234 0.0
C1257 C 0.42626 0.85711 0.3982 0.0
C1258 C 0.40062 0.82842 0.50253 0.0
C1259 C 0.44409 0.86119 0.36905 0.0
C1260 C 0.37585 0.85874 0.65594 0.0
C1261 C 0.38307 0.8519 0.61964 0.0
C1262 C 0.39055 0.86543 0.50954 0.0
C1263 C 0.42598 0.84764 0.4383 0.0
C1264 C 0.40929 0.84647 0.47169 0.0
C1265 C 0.37258 0.85119 0.58052 0.0
C1266 C 0.38313 0.84814 0.5414 0.0
H1267 H 0.47423 0.84048 0.42711 0.0
H1268 H 0.44388 0.83421 0.47827 0.0
H1269 H 0.41033 0.87918 0.45264 0.0
H1270 H 0.33235 0.86701 0.61236 0.0
H1271 H 0.34541 0.8555 0.54881 0.0
C1272 C 0.60411 0.45878 0.683 0.0
C1273 C 0.62811 0.47703 0.68263 0.0
C1274 C 0.59478 0.44334 0.71725 0.0
C1275 C 0.6051 0.44164 0.83083 0.0
H1276 H 0.54988 0.37856 0.81902 0.0
C1277 C 0.53281 0.40044 0.95767 0.0
C1278 C 0.51834 0.37558 0.96069 0.0
C1279 C 0.5507 0.41059 0.92717 0.0
C1280 C 0.56558 0.3959 0.82327 0.0
H1281 H 0.66153 0.49231 0.717 0.0
H1282 H 0.64531 0.46487 0.77655 0.0
H1283 H 0.57343 0.39889 0.75736 0.0
H1284 H 0.51245 0.34184 0.93622 0.0
H1285 H 0.54432 0.35953 0.88402 0.0
H1286 H 0.5974 0.43853 0.89687 0.0
C1287 C 0.63358 0.46292 0.75064 0.0
C1288 C 0.57891 0.40775 0.78763 0.0
C1289 C 0.64292 0.47857 0.71638 0.0
C1290 C 0.52312 0.36107 0.93429 0.0
C1291 C 0.54131 0.37123 0.90421 0.0
C1292 C 0.59197 0.42964 0.86662 0.0
C1293 C 0.60924 0.44552 0.75197 0.0
C1294 C 0.59822 0.43116 0.79067 0.0
C1295 C 0.55484 0.39613 0.89936 0.0
C1296 C 0.57145 0.40701 0.86305 0.0
H1297 H 0.59208 0.45703 0.6577 0.0
H1298 H 0.57588 0.43049 0.71731 0.0
H1299 H 0.61981 0.45966 0.8345 0.0
H1300 H 0.52956 0.41214 0.97743 0.0
H1301 H 0.56039 0.4298 0.92412 0.0
C1302 C 0.14369 0.4996 0.27119 0.0
C1303 C 0.13815 0.50559 0.31058 0.0
C1304 C 0.14935 0.51502 0.23688 0.0
C1305 C 0.16731 0.57617 0.20419 0.0
H1306 H 0.12528 0.5454 0.10916 0.0
C1307 C 0.14781 0.62813 0.07798 0.0
C1308 C 0.14208 0.61891 0.03685 0.0
C1309 C 0.15198 0.61567 0.10961 0.0
C1310 C 0.13761 0.55429 0.13484 0.0
H1311 H 0.13595 0.5332 0.34557 0.0
H1312 H 0.14605 0.56015 0.28562 0.0
H1313 H 0.12535 0.52149 0.16802 0.0
H1314 H 0.13777 0.59021 0.99593 0.0
H1315 H 0.1459 0.56893 0.05063 0.0
H1316 H 0.17953 0.60904 0.17113 0.0
C1317 C 0.1459 0.5435 0.28136 0.0
C1318 C 0.13756 0.54054 0.16867 0.0
C1319 C 0.14 0.528 0.3156 0.0
C1320 C 0.14188 0.59765 0.02746 0.0
C1321 C 0.14638 0.58536 0.05892 0.0
C1322 C 0.16761 0.58995 0.17003 0.0
C1323 C 0.14989 0.53681 0.24142 0.0
C1324 C 0.15212 0.55137 0.20394 0.0
C1325 C 0.15082 0.59386 0.10067 0.0
C1326 C 0.15244 0.57921 0.13523 0.0
H1327 H 0.14244 0.48249 0.26621 0.0
H1328 H 0.15256 0.50956 0.20642 0.0
H1329 H 0.17879 0.5849 0.23099 0.0
H1330 H 0.14796 0.64441 0.08628 0.0
H1331 H 0.15503 0.62263 0.14145 0.0
loop_
_geom_bond_atom_site_label_1
_geom_bond_atom_site_label_2
_geom_bond_distance
_geom_bond_site_symmetry_2
_ccdc_geom_bond_type
O0 Mn1 2.163 . S
O0 C14 1.244 . S
Mn1 O0 2.163 . S
Mn1 O4 2.160 . S
Mn1 O5 2.221 . S
Mn1 O7 2.163 . S
Mn1 O9 2.160 . S
Mn1 O19 2.221 . S
O2 Mn3 2.087 . S
O2 C14 1.256 . S
Mn3 O2 2.087 . S
Mn3 O10 2.089 . S
Mn3 O19 2.290 . S
Mn3 O20 2.251 . S
O4 Mn1 2.160 . S
O4 C15 1.239 . S
O5 Mn1 2.221 . S
O5 Mn6 2.290 . S
O5 C16 1.278 . S
Mn6 O5 2.290 . S
Mn6 O8 2.089 . S
Mn6 O11 2.251 . S
Mn6 O12 2.087 . S
O7 Mn1 2.163 . S
O7 C17 1.244 . S
O8 Mn6 2.089 . S
O8 C15 1.256 . S
O9 Mn1 2.160 . S
O9 C18 1.239 . S
O10 Mn3 2.089 . S
O10 C18 1.256 . S
O11 Mn6 2.251 . S
O11 C16 1.241 . S
O12 Mn6 2.087 . S
O12 C17 1.256 . S
C13 O19 1.278 . S
C13 O20 1.241 . S
C14 O0 1.244 . S
C14 O2 1.256 . S
C15 O4 1.239 . S
C15 O8 1.256 . S
C16 O5 1.278 . S
C16 O11 1.241 . S
C17 O7 1.244 . S
C17 O12 1.256 . S
C18 O9 1.239 . S
C18 O10 1.256 . S
O19 Mn1 2.221 . S
O19 Mn3 2.290 . S
O19 C13 1.278 . S
O20 Mn3 2.251 . S
O20 C13 1.241 . S
O21 Mn22 2.163 . S
O21 C35 1.244 . S
Mn22 O21 2.163 . S
Mn22 O25 2.160 . S
Mn22 O26 2.221 . S
Mn22 O28 2.163 . S
Mn22 O30 2.160 . S
Mn22 O40 2.221 . S
O23 Mn24 2.087 . S
O23 C35 1.256 . S
Mn24 O23 2.087 . S
Mn24 O31 2.089 . S
Mn24 O40 2.290 . S
Mn24 O41 2.251 . S
O25 Mn22 2.160 . S
O25 C36 1.239 . S
O26 Mn22 2.221 . S
O26 Mn27 2.290 . S
O26 C37 1.278 . S
Mn27 O26 2.290 . S
Mn27 O29 2.089 . S
Mn27 O32 2.251 . S
Mn27 O33 2.087 . S
O28 Mn22 2.163 . S
O28 C38 1.244 . S
O29 Mn27 2.089 . S
O29 C36 1.256 . S
O30 Mn22 2.160 . S
O30 C39 1.239 . S
O31 Mn24 2.089 . S
O31 C39 1.256 . S
O32 Mn27 2.251 . S
O32 C37 1.241 . S
O33 Mn27 2.087 . S
O33 C38 1.256 . S
C34 O40 1.278 . S
C34 O41 1.241 . S
C35 O21 1.244 . S
C35 O23 1.256 . S
C36 O25 1.239 . S
C36 O29 1.256 . S
C37 O26 1.278 . S
C37 O32 1.241 . S
C38 O28 1.244 . S
C38 O33 1.256 . S
C39 O30 1.239 . S
C39 O31 1.256 . S
O40 Mn22 2.221 . S
O40 Mn24 2.290 . S
O40 C34 1.278 . S
O41 Mn24 2.251 . S
O41 C34 1.241 . S
O42 Mn43 2.163 . S
O42 C56 1.244 . S
Mn43 O42 2.163 . S
Mn43 O46 2.160 . S
Mn43 O47 2.221 . S
Mn43 O49 2.163 . S
Mn43 O51 2.160 . S
Mn43 O61 2.221 . S
O44 Mn45 2.087 1_554 S
O44 C56 1.256 1_554 S
Mn45 O44 2.087 1_556 S
Mn45 O52 2.089 1_556 S
Mn45 O61 2.291 . S
Mn45 O62 2.252 . S
O46 Mn43 2.160 . S
O46 C57 1.239 . S
O47 Mn43 2.221 . S
O47 Mn48 2.290 . S
O47 C58 1.278 . S
Mn48 O47 2.290 . S
Mn48 O50 2.089 . S
Mn48 O53 2.251 . S
Mn48 O54 2.087 . S
O49 Mn43 2.163 . S
O49 C59 1.244 . S
O50 Mn48 2.089 . S
O50 C57 1.256 . S
O51 Mn43 2.160 . S
O51 C60 1.239 1_556 S
O52 Mn45 2.089 1_554 S
O52 C60 1.256 . S
O53 Mn48 2.251 . S
O53 C58 1.241 . S
O54 Mn48 2.087 . S
O54 C59 1.256 . S
C55 O61 1.278 . S
C55 O62 1.241 . S
C56 O42 1.244 . S
C56 O44 1.256 1_556 S
C57 O46 1.239 . S
C57 O50 1.256 . S
C58 O47 1.278 . S
C58 O53 1.241 . S
C59 O49 1.244 . S
C59 O54 1.256 . S
C60 O51 1.239 1_554 S
C60 O52 1.256 . S
O61 Mn43 2.221 . S
O61 Mn45 2.291 . S
O61 C55 1.278 . S
O62 Mn45 2.252 . S
O62 C55 1.241 . S
O63 Mn64 2.163 . S
O63 C77 1.244 . S
Mn64 O63 2.163 . S
Mn64 O67 2.160 . S
Mn64 O68 2.221 . S
Mn64 O70 2.163 . S
Mn64 O72 2.160 . S
Mn64 O82 2.221 . S
O65 Mn66 2.087 . S
O65 C77 1.256 . S
Mn66 O65 2.087 . S
Mn66 O73 2.089 . S
Mn66 O82 2.290 . S
Mn66 O83 2.251 . S
O67 Mn64 2.160 . S
O67 C78 1.239 . S
O68 Mn64 2.221 . S
O68 Mn69 2.290 . S
O68 C79 1.278 . S
Mn69 O68 2.290 . S
Mn69 O71 2.089 . S
Mn69 O74 2.251 . S
Mn69 O75 2.087 . S
O70 Mn64 2.163 . S
O70 C80 1.244 . S
O71 Mn69 2.089 . S
O71 C78 1.256 . S
O72 Mn64 2.160 . S
O72 C81 1.239 . S
O73 Mn66 2.089 . S
O73 C81 1.256 . S
O74 Mn69 2.251 . S
O74 C79 1.241 . S
O75 Mn69 2.087 . S
O75 C80 1.256 . S
C76 O82 1.278 . S
C76 O83 1.241 . S
C77 O63 1.244 . S
C77 O65 1.256 . S
C78 O67 1.239 . S
C78 O71 1.256 . S
C79 O68 1.278 . S
C79 O74 1.241 . S
C80 O70 1.244 . S
C80 O75 1.256 . S
C81 O72 1.239 . S
C81 O73 1.256 . S
O82 Mn64 2.221 . S
O82 Mn66 2.290 . S
O82 C76 1.278 . S
O83 Mn66 2.251 . S
O83 C76 1.241 . S
O84 Mn85 2.163 . S
O84 C98 1.244 . S
Mn85 O84 2.163 . S
Mn85 O88 2.160 . S
Mn85 O89 2.221 . S
Mn85 O91 2.163 . S
Mn85 O93 2.160 . S
Mn85 O103 2.221 . S
O86 Mn87 2.087 . S
O86 C98 1.256 . S
Mn87 O86 2.087 . S
Mn87 O94 2.089 . S
Mn87 O103 2.290 . S
Mn87 O104 2.251 . S
O88 Mn85 2.160 . S
O88 C99 1.239 . S
O89 Mn85 2.221 . S
O89 Mn90 2.290 . S
O89 C100 1.278 . S
Mn90 O89 2.290 . S
Mn90 O92 2.089 . S
Mn90 O95 2.251 . S
Mn90 O96 2.087 . S
O91 Mn85 2.163 . S
O91 C101 1.244 . S
O92 Mn90 2.089 . S
O92 C99 1.256 . S
O93 Mn85 2.160 . S
O93 C102 1.239 . S
O94 Mn87 2.089 . S
O94 C102 1.256 . S
O95 Mn90 2.251 . S
O95 C100 1.241 . S
O96 Mn90 2.087 . S
O96 C101 1.256 . S
C97 O103 1.278 . S
C97 O104 1.241 . S
C98 O84 1.244 . S
C98 O86 1.256 . S
C99 O88 1.239 . S
C99 O92 1.256 . S
C100 O89 1.278 . S
C100 O95 1.241 . S
C101 O91 1.244 . S
C101 O96 1.256 . S
C102 O93 1.239 . S
C102 O94 1.256 . S
O103 Mn85 2.221 . S
O103 Mn87 2.290 . S
O103 C97 1.278 . S
O104 Mn87 2.251 . S
O104 C97 1.241 . S
O105 Mn106 2.163 . S
O105 C119 1.244 . S
Mn106 O105 2.163 . S
Mn106 O109 2.160 . S
Mn106 O110 2.221 . S
Mn106 O112 2.163 . S
Mn106 O114 2.160 . S
Mn106 O124 2.221 . S
O107 Mn108 2.087 1_554 S
O107 C119 1.256 1_554 S
Mn108 O107 2.087 1_556 S
Mn108 O115 2.089 1_556 S
Mn108 O124 2.291 . S
Mn108 O125 2.252 . S
O109 Mn106 2.160 . S
O109 C120 1.239 . S
O110 Mn106 2.221 . S
O110 Mn111 2.290 . S
O110 C121 1.278 . S
Mn111 O110 2.290 . S
Mn111 O113 2.089 . S
Mn111 O116 2.251 . S
Mn111 O117 2.087 . S
O112 Mn106 2.163 . S
O112 C122 1.244 . S
O113 Mn111 2.089 . S
O113 C120 1.256 . S
O114 Mn106 2.160 . S
O114 C123 1.239 1_556 S
O115 Mn108 2.089 1_554 S
O115 C123 1.256 . S
O116 Mn111 2.251 . S
O116 C121 1.241 . S
O117 Mn111 2.087 . S
O117 C122 1.256 . S
C118 O124 1.278 . S
C118 O125 1.241 . S
C119 O105 1.244 . S
C119 O107 1.256 1_556 S
C120 O109 1.239 . S
C120 O113 1.256 . S
C121 O110 1.278 . S
C121 O116 1.241 . S
C122 O112 1.244 . S
C122 O117 1.256 . S
C123 O114 1.239 1_554 S
C123 O115 1.256 . S
O124 Mn106 2.221 . S
O124 Mn108 2.291 . S
O124 C118 1.278 . S
O125 Mn108 2.252 . S
O125 C118 1.241 . S
O126 Mn127 2.163 . S
O126 C140 1.244 . S
Mn127 O126 2.163 . S
Mn127 O130 2.160 . S
Mn127 O131 2.221 . S
Mn127 O133 2.163 . S
Mn127 O135 2.160 . S
Mn127 O145 2.221 . S
O128 Mn129 2.087 . S
O128 C140 1.256 . S
Mn129 O128 2.087 . S
Mn129 O136 2.089 . S
Mn129 O145 2.290 . S
Mn129 O146 2.251 . S
O130 Mn127 2.160 . S
O130 C141 1.239 . S
O131 Mn127 2.221 . S
O131 Mn132 2.290 . S
O131 C142 1.278 . S
Mn132 O131 2.290 . S
Mn132 O134 2.089 . S
Mn132 O137 2.251 . S
Mn132 O138 2.087 . S
O133 Mn127 2.163 . S
O133 C143 1.244 . S
O134 Mn132 2.089 . S
O134 C141 1.256 . S
O135 Mn127 2.160 . S
O135 C144 1.239 . S
O136 Mn129 2.089 . S
O136 C144 1.256 . S
O137 Mn132 2.251 . S
O137 C142 1.241 . S
O138 Mn132 2.087 . S
O138 C143 1.256 . S
C139 O145 1.278 . S
C139 O146 1.241 . S
C140 O126 1.244 . S
C140 O128 1.256 . S
C141 O130 1.239 . S
C141 O134 1.256 . S
C142 O131 1.278 . S
C142 O137 1.241 . S
C143 O133 1.244 . S
C143 O138 1.256 . S
C144 O135 1.239 . S
C144 O136 1.256 . S
O145 Mn127 2.221 . S
O145 Mn129 2.290 . S
O145 C139 1.278 . S
O146 Mn129 2.251 . S
O146 C139 1.241 . S
O147 Mn148 2.163 . S
O147 C161 1.244 . S
Mn148 O147 2.163 . S
Mn148 O151 2.160 . S
Mn148 O152 2.221 . S
Mn148 O154 2.163 . S
Mn148 O156 2.160 . S
Mn148 O166 2.221 . S
O149 Mn150 2.087 . S
O149 C161 1.256 . S
Mn150 O149 2.087 . S
Mn150 O157 2.089 . S
Mn150 O166 2.290 . S
Mn150 O167 2.251 . S
O151 Mn148 2.160 . S
O151 C162 1.239 . S
O152 Mn148 2.221 . S
O152 Mn153 2.290 . S
O152 C163 1.278 . S
Mn153 O152 2.290 . S
Mn153 O155 2.089 . S
Mn153 O158 2.251 . S
Mn153 O159 2.087 . S
O154 Mn148 2.163 . S
O154 C164 1.244 . S
O155 Mn153 2.089 . S
O155 C162 1.256 . S
O156 Mn148 2.160 . S
O156 C165 1.239 . S
O157 Mn150 2.089 . S
O157 C165 1.256 . S
O158 Mn153 2.251 . S
O158 C163 1.241 . S
O159 Mn153 2.087 . S
O159 C164 1.256 . S
C160 O166 1.278 . S
C160 O167 1.241 . S
C161 O147 1.244 . S
C161 O149 1.256 . S
C162 O151 1.239 . S
C162 O155 1.256 . S
C163 O152 1.278 . S
C163 O158 1.241 . S
C164 O154 1.244 . S
C164 O159 1.256 . S
C165 O156 1.239 . S
C165 O157 1.256 . S
O166 Mn148 2.221 . S
O166 Mn150 2.290 . S
O166 C160 1.278 . S
O167 Mn150 2.251 . S
O167 C160 1.241 . S
O168 Mn169 2.163 . S
O168 C182 1.244 . S
Mn169 O168 2.163 . S
Mn169 O172 2.160 . S
Mn169 O173 2.221 . S
Mn169 O175 2.163 . S
Mn169 O177 2.160 . S
Mn169 O187 2.221 . S
O170 Mn171 2.087 1_556 S
O170 C182 1.256 1_556 S
Mn171 O170 2.087 1_554 S
Mn171 O178 2.089 1_554 S
Mn171 O187 2.291 . S
Mn171 O188 2.252 . S
O172 Mn169 2.160 . S
O172 C183 1.239 . S
O173 Mn169 2.221 . S
O173 Mn174 2.290 . S
O173 C184 1.278 . S
Mn174 O173 2.290 . S
Mn174 O176 2.089 . S
Mn174 O179 2.251 . S
Mn174 O180 2.087 . S
O175 Mn169 2.163 . S
O175 C185 1.244 . S
O176 Mn174 2.089 . S
O176 C183 1.256 . S
O177 Mn169 2.160 . S
O177 C186 1.239 1_554 S
O178 Mn171 2.089 1_556 S
O178 C186 1.256 . S
O179 Mn174 2.251 . S
O179 C184 1.241 . S
O180 Mn174 2.087 . S
O180 C185 1.256 . S
C181 O187 1.278 . S
C181 O188 1.241 . S
C182 O168 1.244 . S
C182 O170 1.256 1_554 S
C183 O172 1.239 . S
C183 O176 1.256 . S
C184 O173 1.278 . S
C184 O179 1.241 . S
C185 O175 1.244 . S
C185 O180 1.256 . S
C186 O177 1.239 1_556 S
C186 O178 1.256 . S
O187 Mn169 2.221 . S
O187 Mn171 2.291 . S
O187 C181 1.278 . S
O188 Mn171 2.252 . S
O188 C181 1.241 . S
O189 Mn190 2.163 . S
O189 C203 1.244 . S
Mn190 O189 2.163 . S
Mn190 O193 2.160 . S
Mn190 O194 2.221 . S
Mn190 O196 2.163 . S
Mn190 O198 2.160 . S
Mn190 O208 2.221 . S
O191 Mn192 2.087 . S
O191 C203 1.256 . S
Mn192 O191 2.087 . S
Mn192 O199 2.089 . S
Mn192 O208 2.290 . S
Mn192 O209 2.251 . S
O193 Mn190 2.160 . S
O193 C204 1.239 . S
O194 Mn190 2.221 . S
O194 Mn195 2.290 . S
O194 C205 1.278 . S
Mn195 O194 2.290 . S
Mn195 O197 2.089 . S
Mn195 O200 2.251 . S
Mn195 O201 2.087 . S
O196 Mn190 2.163 . S
O196 C206 1.244 . S
O197 Mn195 2.089 . S
O197 C204 1.256 . S
O198 Mn190 2.160 . S
O198 C207 1.239 . S
O199 Mn192 2.089 . S
O199 C207 1.256 . S
O200 Mn195 2.251 . S
O200 C205 1.241 . S
O201 Mn195 2.087 . S
O201 C206 1.256 . S
C202 O208 1.278 . S
C202 O209 1.241 . S
C203 O189 1.244 . S
C203 O191 1.256 . S
C204 O193 1.239 . S
C204 O197 1.256 . S
C205 O194 1.278 . S
C205 O200 1.241 . S
C206 O196 1.244 . S
C206 O201 1.256 . S
C207 O198 1.239 . S
C207 O199 1.256 . S
O208 Mn190 2.221 . S
O208 Mn192 2.290 . S
O208 C202 1.278 . S
O209 Mn192 2.251 . S
O209 C202 1.241 . S
O210 Mn211 2.163 . S
O210 C224 1.244 . S
Mn211 O210 2.163 . S
Mn211 O214 2.160 . S
Mn211 O215 2.221 . S
Mn211 O217 2.163 . S
Mn211 O219 2.160 . S
Mn211 O229 2.221 . S
O212 Mn213 2.087 . S
O212 C224 1.256 . S
Mn213 O212 2.087 . S
Mn213 O220 2.089 . S
Mn213 O229 2.290 . S
Mn213 O230 2.251 . S
O214 Mn211 2.160 . S
O214 C225 1.239 . S
O215 Mn211 2.221 . S
O215 Mn216 2.290 . S
O215 C226 1.278 . S
Mn216 O215 2.290 . S
Mn216 O218 2.089 . S
Mn216 O221 2.251 . S
Mn216 O222 2.087 . S
O217 Mn211 2.163 . S
O217 C227 1.244 . S
O218 Mn216 2.089 . S
O218 C225 1.256 . S
O219 Mn211 2.160 . S
O219 C228 1.239 . S
O220 Mn213 2.089 . S
O220 C228 1.256 . S
O221 Mn216 2.251 . S
O221 C226 1.241 . S
O222 Mn216 2.087 . S
O222 C227 1.256 . S
C223 O229 1.278 . S
C223 O230 1.241 . S
C224 O210 1.244 . S
C224 O212 1.256 . S
C225 O214 1.239 . S
C225 O218 1.256 . S
C226 O215 1.278 . S
C226 O221 1.241 . S
C227 O217 1.244 . S
C227 O222 1.256 . S
C228 O219 1.239 . S
C228 O220 1.256 . S
O229 Mn211 2.221 . S
O229 Mn213 2.290 . S
O229 C223 1.278 . S
O230 Mn213 2.251 . S
O230 C223 1.241 . S
O231 Mn232 2.163 . S
O231 C245 1.244 . S
Mn232 O231 2.163 . S
Mn232 O235 2.160 . S
Mn232 O236 2.221 . S
Mn232 O238 2.163 . S
Mn232 O240 2.160 . S
Mn232 O250 2.221 . S
O233 Mn234 2.087 1_556 S
O233 C245 1.256 1_556 S
Mn234 O233 2.087 1_554 S
Mn234 O241 2.089 1_554 S
Mn234 O250 2.291 . S
Mn234 O251 2.252 . S
O235 Mn232 2.160 . S
O235 C246 1.239 . S
O236 Mn232 2.221 . S
O236 Mn237 2.290 . S
O236 C247 1.278 . S
Mn237 O236 2.290 . S
Mn237 O239 2.089 . S
Mn237 O242 2.251 . S
Mn237 O243 2.087 . S
O238 Mn232 2.163 . S
O238 C248 1.244 . S
O239 Mn237 2.089 . S
O239 C246 1.256 . S
O240 Mn232 2.160 . S
O240 C249 1.239 1_554 S
O241 Mn234 2.089 1_556 S
O241 C249 1.256 . S
O242 Mn237 2.251 . S
O242 C247 1.241 . S
O243 Mn237 2.087 . S
O243 C248 1.256 . S
C244 O250 1.278 . S
C244 O251 1.241 . S
C245 O231 1.244 . S
C245 O233 1.256 1_554 S
C246 O235 1.239 . S
C246 O239 1.256 . S
C247 O236 1.278 . S
C247 O242 1.241 . S
C248 O238 1.244 . S
C248 O243 1.256 . S
C249 O240 1.239 1_556 S
C249 O241 1.256 . S
O250 Mn232 2.221 . S
O250 Mn234 2.291 . S
O250 C244 1.278 . S
O251 Mn234 2.252 . S
O251 C244 1.241 . S
C252 C253 1.349 . S
C252 C254 1.327 . S
C252 H277 0.950 . S
C253 C252 1.349 . S
C253 C269 1.349 . S
C254 C252 1.327 . S
C254 C273 1.429 . S
C254 H278 0.950 . S
C255 C272 1.574 . S
C255 C274 1.368 . S
C255 H279 0.949 . S
H256 C260 0.949 . S
C257 C258 1.349 . S
C257 C259 1.327 . S
C257 H280 0.950 . S
C258 C257 1.349 . S
C258 C270 1.349 . S
C259 C257 1.327 . S
C259 C275 1.429 . S
C259 H281 0.950 . S
C260 H256 0.949 . S
C260 C268 1.574 . S
C260 C276 1.368 . S
H261 C269 0.950 . S
H262 C267 0.950 . S
H263 C268 0.949 . S
H264 C270 0.950 . S
H265 C271 0.950 . S
H266 C272 0.949 . S
C267 H262 0.950 . S
C267 C269 1.327 . S
C267 C273 1.429 . S
C268 C260 1.574 . S
C268 H263 0.949 . S
C268 C274 1.368 . S
C269 C253 1.349 . S
C269 H261 0.950 . S
C269 C267 1.327 . S
C270 C258 1.349 . S
C270 H264 0.950 . S
C270 C271 1.327 . S
C271 H265 0.950 . S
C271 C270 1.327 . S
C271 C275 1.429 . S
C272 C255 1.574 . S
C272 H266 0.949 . S
C272 C276 1.368 . S
C273 C254 1.429 . S
C273 C267 1.429 . S
C273 C274 1.523 . S
C274 C255 1.368 . S
C274 C268 1.368 . S
C274 C273 1.523 . S
C275 C259 1.429 . S
C275 C271 1.429 . S
C275 C276 1.523 . S
C276 C260 1.368 . S
C276 C272 1.368 . S
C276 C275 1.523 . S
H277 C252 0.950 . S
H278 C254 0.950 . S
H279 C255 0.949 . S
H280 C257 0.950 . S
H281 C259 0.950 . S
C282 C283 1.349 . S
C282 C284 1.327 . S
C282 H307 0.950 . S
C283 C282 1.349 . S
C283 C299 1.349 . S
C284 C282 1.327 . S
C284 C303 1.429 . S
C284 H308 0.950 . S
C285 C302 1.574 . S
C285 C304 1.368 . S
C285 H309 0.949 . S
H286 C290 0.949 . S
C287 C288 1.349 . S
C287 C289 1.327 . S
C287 H310 0.950 . S
C288 C287 1.349 . S
C288 C300 1.349 . S
C289 C287 1.327 . S
C289 C305 1.429 . S
C289 H311 0.950 . S
C290 H286 0.949 . S
C290 C298 1.574 . S
C290 C306 1.368 . S
H291 C299 0.950 . S
H292 C297 0.950 . S
H293 C298 0.949 . S
H294 C300 0.950 . S
H295 C301 0.950 . S
H296 C302 0.949 . S
C297 H292 0.950 . S
C297 C299 1.327 . S
C297 C303 1.429 . S
C298 C290 1.574 . S
C298 H293 0.949 . S
C298 C304 1.368 . S
C299 C283 1.349 . S
C299 H291 0.950 . S
C299 C297 1.327 . S
C300 C288 1.349 . S
C300 H294 0.950 . S
C300 C301 1.327 . S
C301 H295 0.950 . S
C301 C300 1.327 . S
C301 C305 1.429 . S
C302 C285 1.574 . S
C302 H296 0.949 . S
C302 C306 1.368 . S
C303 C284 1.429 . S
C303 C297 1.429 . S
C303 C304 1.523 . S
C304 C285 1.368 . S
C304 C298 1.368 . S
C304 C303 1.523 . S
C305 C289 1.429 . S
C305 C301 1.429 . S
C305 C306 1.523 . S
C306 C290 1.368 . S
C306 C302 1.368 . S
C306 C305 1.523 . S
H307 C282 0.950 . S
H308 C284 0.950 . S
H309 C285 0.949 . S
H310 C287 0.950 . S
H311 C289 0.950 . S
C312 C313 1.349 . S
C312 C314 1.327 . S
C312 H337 0.950 . S
C313 C312 1.349 . S
C313 C329 1.349 . S
C314 C312 1.327 . S
C314 C333 1.429 . S
C314 H338 0.950 . S
C315 C332 1.574 . S
C315 C334 1.368 . S
C315 H339 0.949 . S
H316 C320 0.949 . S
C317 C318 1.349 . S
C317 C319 1.327 . S
C317 H340 0.950 . S
C318 C317 1.349 . S
C318 C330 1.349 . S
C319 C317 1.327 . S
C319 C335 1.429 . S
C319 H341 0.950 . S
C320 H316 0.949 . S
C320 C328 1.574 . S
C320 C336 1.368 . S
H321 C329 0.950 . S
H322 C327 0.950 . S
H323 C328 0.949 . S
H324 C330 0.950 . S
H325 C331 0.950 . S
H326 C332 0.949 . S
C327 H322 0.950 . S
C327 C329 1.327 . S
C327 C333 1.429 . S
C328 C320 1.574 . S
C328 H323 0.949 . S
C328 C334 1.368 . S
C329 C313 1.349 . S
C329 H321 0.950 . S
C329 C327 1.327 . S
C330 C318 1.349 . S
C330 H324 0.950 . S
C330 C331 1.327 . S
C331 H325 0.950 . S
C331 C330 1.327 . S
C331 C335 1.429 . S
C332 C315 1.574 . S
C332 H326 0.949 . S
C332 C336 1.368 . S
C333 C314 1.429 . S
C333 C327 1.429 . S
C333 C334 1.523 . S
C334 C315 1.368 . S
C334 C328 1.368 . S
C334 C333 1.523 . S
C335 C319 1.429 . S
C335 C331 1.429 . S
C335 C336 1.523 . S
C336 C320 1.368 . S
C336 C332 1.368 . S
C336 C335 1.523 . S
H337 C312 0.950 . S
H338 C314 0.950 . S
H339 C315 0.949 . S
H340 C317 0.950 . S
H341 C319 0.950 . S
C342 C343 1.349 . S
C342 C344 1.327 . S
C342 H367 0.950 . S
C343 C342 1.349 . S
C343 C359 1.349 . S
C344 C342 1.327 . S
C344 C363 1.429 . S
C344 H368 0.950 . S
C345 C362 1.574 . S
C345 C364 1.368 . S
C345 H369 0.949 . S
H346 C350 0.949 . S
C347 C348 1.349 . S
C347 C349 1.327 . S
C347 H370 0.950 . S
C348 C347 1.349 . S
C348 C360 1.349 . S
C349 C347 1.327 . S
C349 C365 1.429 . S
C349 H371 0.950 . S
C350 H346 0.949 . S
C350 C358 1.574 . S
C350 C366 1.368 . S
H351 C359 0.950 . S
H352 C357 0.950 . S
H353 C358 0.949 . S
H354 C360 0.950 . S
H355 C361 0.950 . S
H356 C362 0.949 . S
C357 H352 0.950 . S
C357 C359 1.327 . S
C357 C363 1.429 . S
C358 C350 1.574 . S
C358 H353 0.949 . S
C358 C364 1.368 . S
C359 C343 1.349 . S
C359 H351 0.950 . S
C359 C357 1.327 . S
C360 C348 1.349 . S
C360 H354 0.950 . S
C360 C361 1.327 . S
C361 H355 0.950 . S
C361 C360 1.327 . S
C361 C365 1.429 . S
C362 C345 1.574 . S
C362 H356 0.949 . S
C362 C366 1.368 . S
C363 C344 1.429 . S
C363 C357 1.429 . S
C363 C364 1.523 . S
C364 C345 1.368 . S
C364 C358 1.368 . S
C364 C363 1.523 . S
C365 C349 1.429 . S
C365 C361 1.429 . S
C365 C366 1.523 . S
C366 C350 1.368 . S
C366 C362 1.368 . S
C366 C365 1.523 . S
H367 C342 0.950 . S
H368 C344 0.950 . S
H369 C345 0.949 . S
H370 C347 0.950 . S
H371 C349 0.950 . S
C372 C373 1.349 . S
C372 C374 1.327 . S
C372 H397 0.950 . S
C373 C372 1.349 . S
C373 C389 1.349 . S
C374 C372 1.327 . S
C374 C393 1.429 . S
C374 H398 0.950 . S
C375 C392 1.574 . S
C375 C394 1.368 . S
C375 H399 0.949 . S
H376 C380 0.949 . S
C377 C378 1.349 . S
C377 C379 1.327 . S
C377 H400 0.950 . S
C378 C377 1.349 . S
C378 C390 1.349 . S
C379 C377 1.327 . S
C379 C395 1.429 . S
C379 H401 0.950 . S
C380 H376 0.949 . S
C380 C388 1.574 . S
C380 C396 1.368 . S
H381 C389 0.950 . S
H382 C387 0.950 . S
H383 C388 0.949 . S
H384 C390 0.950 . S
H385 C391 0.950 . S
H386 C392 0.949 . S
C387 H382 0.950 . S
C387 C389 1.327 . S
C387 C393 1.429 . S
C388 C380 1.574 . S
C388 H383 0.949 . S
C388 C394 1.368 . S
C389 C373 1.349 . S
C389 H381 0.950 . S
C389 C387 1.327 . S
C390 C378 1.349 . S
C390 H384 0.950 . S
C390 C391 1.327 . S
C391 H385 0.950 . S
C391 C390 1.327 . S
C391 C395 1.429 . S
C392 C375 1.574 . S
C392 H386 0.949 . S
C392 C396 1.368 . S
C393 C374 1.429 . S
C393 C387 1.429 . S
C393 C394 1.523 . S
C394 C375 1.368 . S
C394 C388 1.368 . S
C394 C393 1.523 . S
C395 C379 1.429 . S
C395 C391 1.429 . S
C395 C396 1.523 . S
C396 C380 1.368 . S
C396 C392 1.368 . S
C396 C395 1.523 . S
H397 C372 0.950 . S
H398 C374 0.950 . S
H399 C375 0.949 . S
H400 C377 0.950 . S
H401 C379 0.950 . S
C402 C403 1.349 . S
C402 C404 1.327 . S
C402 H427 0.950 . S
C403 C402 1.349 . S
C403 C419 1.349 . S
C404 C402 1.327 . S
C404 C423 1.429 . S
C404 H428 0.950 . S
C405 C422 1.574 . S
C405 C424 1.368 . S
C405 H429 0.949 . S
H406 C410 0.949 . S
C407 C408 1.349 . S
C407 C409 1.327 . S
C407 H430 0.950 . S
C408 C407 1.349 . S
C408 C420 1.349 . S
C409 C407 1.327 . S
C409 C425 1.429 . S
C409 H431 0.950 . S
C410 H406 0.949 . S
C410 C418 1.574 . S
C410 C426 1.368 . S
H411 C419 0.950 . S
H412 C417 0.950 . S
H413 C418 0.949 . S
H414 C420 0.950 . S
H415 C421 0.950 . S
H416 C422 0.949 . S
C417 H412 0.950 . S
C417 C419 1.327 . S
C417 C423 1.429 . S
C418 C410 1.574 . S
C418 H413 0.949 . S
C418 C424 1.368 . S
C419 C403 1.349 . S
C419 H411 0.950 . S
C419 C417 1.327 . S
C420 C408 1.349 . S
C420 H414 0.950 . S
C420 C421 1.327 . S
C421 H415 0.950 . S
C421 C420 1.327 . S
C421 C425 1.429 . S
C422 C405 1.574 . S
C422 H416 0.949 . S
C422 C426 1.368 . S
C423 C404 1.429 . S
C423 C417 1.429 . S
C423 C424 1.523 . S
C424 C405 1.368 . S
C424 C418 1.368 . S
C424 C423 1.523 . S
C425 C409 1.429 . S
C425 C421 1.429 . S
C425 C426 1.523 . S
C426 C410 1.368 . S
C426 C422 1.368 . S
C426 C425 1.523 . S
H427 C402 0.950 . S
H428 C404 0.950 . S
H429 C405 0.949 . S
H430 C407 0.950 . S
H431 C409 0.950 . S
C432 C433 1.349 . S
C432 C434 1.327 . S
C432 H457 0.950 . S
C433 C432 1.349 . S
C433 C449 1.349 . S
C434 C432 1.327 . S
C434 C453 1.429 . S
C434 H458 0.950 . S
C435 C452 1.574 1_556 S
C435 C454 1.368 . S
C435 H459 0.949 . S
H436 C440 0.949 . S
C437 C438 1.349 . S
C437 C439 1.327 . S
C437 H460 0.950 . S
C438 C437 1.349 . S
C438 C450 1.349 . S
C439 C437 1.327 . S
C439 C455 1.429 . S
C439 H461 0.950 . S
C440 H436 0.949 . S
C440 C448 1.574 1_554 S
C440 C456 1.368 . S
H441 C449 0.950 . S
H442 C447 0.950 . S
H443 C448 0.949 . S
H444 C450 0.950 . S
H445 C451 0.950 . S
H446 C452 0.949 . S
C447 H442 0.950 . S
C447 C449 1.327 . S
C447 C453 1.429 . S
C448 C440 1.574 1_556 S
C448 H443 0.949 . S
C448 C454 1.368 . S
C449 C433 1.349 . S
C449 H441 0.950 . S
C449 C447 1.327 . S
C450 C438 1.349 . S
C450 H444 0.950 . S
C450 C451 1.327 . S
C451 H445 0.950 . S
C451 C450 1.327 . S
C451 C455 1.429 . S
C452 C435 1.574 1_554 S
C452 H446 0.949 . S
C452 C456 1.368 . S
C453 C434 1.429 . S
C453 C447 1.429 . S
C453 C454 1.523 . S
C454 C435 1.368 . S
C454 C448 1.368 . S
C454 C453 1.523 . S
C455 C439 1.429 . S
C455 C451 1.429 . S
C455 C456 1.523 . S
C456 C440 1.368 . S
C456 C452 1.368 . S
C456 C455 1.523 . S
H457 C432 0.950 . S
H458 C434 0.950 . S
H459 C435 0.949 . S
H460 C437 0.950 . S
H461 C439 0.950 . S
C462 C463 1.349 . S
C462 C464 1.327 . S
C462 H487 0.950 . S
C463 C462 1.349 . S
C463 C479 1.349 . S
C464 C462 1.327 . S
C464 C483 1.429 . S
C464 H488 0.950 . S
C465 C482 1.574 . S
C465 C484 1.368 . S
C465 H489 0.949 . S
H466 C470 0.949 . S
C467 C468 1.349 . S
C467 C469 1.327 . S
C467 H490 0.950 . S
C468 C467 1.349 . S
C468 C480 1.349 . S
C469 C467 1.327 . S
C469 C485 1.429 . S
C469 H491 0.950 . S
C470 H466 0.949 . S
C470 C478 1.574 . S
C470 C486 1.368 . S
H471 C479 0.950 . S
H472 C477 0.950 . S
H473 C478 0.949 . S
H474 C480 0.950 . S
H475 C481 0.950 . S
H476 C482 0.949 . S
C477 H472 0.950 . S
C477 C479 1.327 . S
C477 C483 1.429 . S
C478 C470 1.574 . S
C478 H473 0.949 . S
C478 C484 1.368 . S
C479 C463 1.349 . S
C479 H471 0.950 . S
C479 C477 1.327 . S
C480 C468 1.349 . S
C480 H474 0.950 . S
C480 C481 1.327 . S
C481 H475 0.950 . S
C481 C480 1.327 . S
C481 C485 1.429 . S
C482 C465 1.574 . S
C482 H476 0.949 . S
C482 C486 1.368 . S
C483 C464 1.429 . S
C483 C477 1.429 . S
C483 C484 1.523 . S
C484 C465 1.368 . S
C484 C478 1.368 . S
C484 C483 1.523 . S
C485 C469 1.429 . S
C485 C481 1.429 . S
C485 C486 1.523 . S
C486 C470 1.368 . S
C486 C482 1.368 . S
C486 C485 1.523 . S
H487 C462 0.950 . S
H488 C464 0.950 . S
H489 C465 0.949 . S
H490 C467 0.950 . S
H491 C469 0.950 . S
C492 C493 1.349 . S
C492 C494 1.327 . S
C492 H517 0.950 . S
C493 C492 1.349 . S
C493 C509 1.349 . S
C494 C492 1.327 . S
C494 C513 1.429 . S
C494 H518 0.950 . S
C495 C512 1.574 . S
C495 C514 1.368 . S
C495 H519 0.949 . S
H496 C500 0.949 . S
C497 C498 1.349 . S
C497 C499 1.327 . S
C497 H520 0.950 . S
C498 C497 1.349 . S
C498 C510 1.349 . S
C499 C497 1.327 . S
C499 C515 1.429 . S
C499 H521 0.950 . S
C500 H496 0.949 . S
C500 C508 1.574 . S
C500 C516 1.368 . S
H501 C509 0.950 . S
H502 C507 0.950 . S
H503 C508 0.949 . S
H504 C510 0.950 . S
H505 C511 0.950 . S
H506 C512 0.949 . S
C507 H502 0.950 . S
C507 C509 1.327 . S
C507 C513 1.429 . S
C508 C500 1.574 . S
C508 H503 0.949 . S
C508 C514 1.368 . S
C509 C493 1.349 . S
C509 H501 0.950 . S
C509 C507 1.327 . S
C510 C498 1.349 . S
C510 H504 0.950 . S
C510 C511 1.327 . S
C511 H505 0.950 . S
C511 C510 1.327 . S
C511 C515 1.429 . S
C512 C495 1.574 . S
C512 H506 0.949 . S
C512 C516 1.368 . S
C513 C494 1.429 . S
C513 C507 1.429 . S
C513 C514 1.523 . S
C514 C495 1.368 . S
C514 C508 1.368 . S
C514 C513 1.523 . S
C515 C499 1.429 . S
C515 C511 1.429 . S
C515 C516 1.523 . S
C516 C500 1.368 . S
C516 C512 1.368 . S
C516 C515 1.523 . S
H517 C492 0.950 . S
H518 C494 0.950 . S
H519 C495 0.949 . S
H520 C497 0.950 . S
H521 C499 0.950 . S
C522 C523 1.349 . S
C522 C524 1.327 . S
C522 H547 0.950 . S
C523 C522 1.349 . S
C523 C539 1.349 . S
C524 C522 1.327 . S
C524 C543 1.429 . S
C524 H548 0.950 . S
C525 C542 1.574 1_556 S
C525 C544 1.368 . S
C525 H549 0.949 . S
H526 C530 0.949 . S
C527 C528 1.349 . S
C527 C529 1.327 . S
C527 H550 0.950 . S
C528 C527 1.349 . S
C528 C540 1.349 . S
C529 C527 1.327 . S
C529 C545 1.429 . S
C529 H551 0.950 . S
C530 H526 0.949 . S
C530 C538 1.574 1_554 S
C530 C546 1.368 . S
H531 C539 0.950 . S
H532 C537 0.950 . S
H533 C538 0.949 . S
H534 C540 0.950 . S
H535 C541 0.950 . S
H536 C542 0.949 . S
C537 H532 0.950 . S
C537 C539 1.327 . S
C537 C543 1.429 . S
C538 C530 1.574 1_556 S
C538 H533 0.949 . S
C538 C544 1.368 . S
C539 C523 1.349 . S
C539 H531 0.950 . S
C539 C537 1.327 . S
C540 C528 1.349 . S
C540 H534 0.950 . S
C540 C541 1.327 . S
C541 H535 0.950 . S
C541 C540 1.327 . S
C541 C545 1.429 . S
C542 C525 1.574 1_554 S
C542 H536 0.949 . S
C542 C546 1.368 . S
C543 C524 1.429 . S
C543 C537 1.429 . S
C543 C544 1.523 . S
C544 C525 1.368 . S
C544 C538 1.368 . S
C544 C543 1.523 . S
C545 C529 1.429 . S
C545 C541 1.429 . S
C545 C546 1.523 . S
C546 C530 1.368 . S
C546 C542 1.368 . S
C546 C545 1.523 . S
H547 C522 0.950 . S
H548 C524 0.950 . S
H549 C525 0.949 . S
H550 C527 0.950 . S
H551 C529 0.950 . S
C552 C553 1.349 . S
C552 C554 1.327 . S
C552 H577 0.950 . S
C553 C552 1.349 . S
C553 C569 1.349 . S
C554 C552 1.327 . S
C554 C573 1.429 . S
C554 H578 0.950 . S
C555 C572 1.574 . S
C555 C574 1.368 . S
C555 H579 0.949 . S
H556 C560 0.949 . S
C557 C558 1.349 . S
C557 C559 1.327 . S
C557 H580 0.950 . S
C558 C557 1.349 . S
C558 C570 1.349 . S
C559 C557 1.327 . S
C559 C575 1.429 . S
C559 H581 0.950 . S
C560 H556 0.949 . S
C560 C568 1.574 . S
C560 C576 1.368 . S
H561 C569 0.950 . S
H562 C567 0.950 . S
H563 C568 0.949 . S
H564 C570 0.950 . S
H565 C571 0.950 . S
H566 C572 0.949 . S
C567 H562 0.950 . S
C567 C569 1.327 . S
C567 C573 1.429 . S
C568 C560 1.574 . S
C568 H563 0.949 . S
C568 C574 1.368 . S
C569 C553 1.349 . S
C569 H561 0.950 . S
C569 C567 1.327 . S
C570 C558 1.349 . S
C570 H564 0.950 . S
C570 C571 1.327 . S
C571 H565 0.950 . S
C571 C570 1.327 . S
C571 C575 1.429 . S
C572 C555 1.574 . S
C572 H566 0.949 . S
C572 C576 1.368 . S
C573 C554 1.429 . S
C573 C567 1.429 . S
C573 C574 1.523 . S
C574 C555 1.368 . S
C574 C568 1.368 . S
C574 C573 1.523 . S
C575 C559 1.429 . S
C575 C571 1.429 . S
C575 C576 1.523 . S
C576 C560 1.368 . S
C576 C572 1.368 . S
C576 C575 1.523 . S
H577 C552 0.950 . S
H578 C554 0.950 . S
H579 C555 0.949 . S
H580 C557 0.950 . S
H581 C559 0.950 . S
C582 C583 1.349 . S
C582 C584 1.327 . S
C582 H607 0.950 . S
C583 C582 1.349 . S
C583 C599 1.349 . S
C584 C582 1.327 . S
C584 C603 1.429 . S
C584 H608 0.950 . S
C585 C602 1.574 . S
C585 C604 1.368 . S
C585 H609 0.949 . S
H586 C590 0.949 . S
C587 C588 1.349 . S
C587 C589 1.327 . S
C587 H610 0.950 . S
C588 C587 1.349 . S
C588 C600 1.349 . S
C589 C587 1.327 . S
C589 C605 1.429 . S
C589 H611 0.950 . S
C590 H586 0.949 . S
C590 C598 1.574 . S
C590 C606 1.368 . S
H591 C599 0.950 . S
H592 C597 0.950 . S
H593 C598 0.949 . S
H594 C600 0.950 . S
H595 C601 0.950 . S
H596 C602 0.949 . S
C597 H592 0.950 . S
C597 C599 1.327 . S
C597 C603 1.429 . S
C598 C590 1.574 . S
C598 H593 0.949 . S
C598 C604 1.368 . S
C599 C583 1.349 . S
C599 H591 0.950 . S
C599 C597 1.327 . S
C600 C588 1.349 . S
C600 H594 0.950 . S
C600 C601 1.327 . S
C601 H595 0.950 . S
C601 C600 1.327 . S
C601 C605 1.429 . S
C602 C585 1.574 . S
C602 H596 0.949 . S
C602 C606 1.368 . S
C603 C584 1.429 . S
C603 C597 1.429 . S
C603 C604 1.523 . S
C604 C585 1.368 . S
C604 C598 1.368 . S
C604 C603 1.523 . S
C605 C589 1.429 . S
C605 C601 1.429 . S
C605 C606 1.523 . S
C606 C590 1.368 . S
C606 C602 1.368 . S
C606 C605 1.523 . S
H607 C582 0.950 . S
H608 C584 0.950 . S
H609 C585 0.949 . S
H610 C587 0.950 . S
H611 C589 0.950 . S
C612 C613 1.349 . S
C612 C614 1.327 . S
C612 H637 0.950 . S
C613 C612 1.349 . S
C613 C629 1.349 . S
C614 C612 1.327 . S
C614 C633 1.429 . S
C614 H638 0.950 . S
C615 C632 1.555 1_556 S
C615 C634 1.386 . S
C615 H639 0.950 . S
H616 C620 0.950 . S
C617 C618 1.349 . S
C617 C619 1.327 . S
C617 H640 0.950 . S
C618 C617 1.349 . S
C618 C630 1.349 . S
C619 C617 1.327 . S
C619 C635 1.429 . S
C619 H641 0.950 . S
C620 H616 0.950 . S
C620 C628 1.555 1_554 S
C620 C636 1.386 . S
H621 C629 0.950 . S
H622 C627 0.950 . S
H623 C628 0.949 . S
H624 C630 0.950 . S
H625 C631 0.950 . S
H626 C632 0.949 . S
C627 H622 0.950 . S
C627 C629 1.327 . S
C627 C633 1.429 . S
C628 C620 1.555 1_556 S
C628 H623 0.949 . S
C628 C634 1.368 1_545 S
C629 C613 1.349 . S
C629 H621 0.950 . S
C629 C627 1.327 . S
C630 C618 1.349 . S
C630 H624 0.950 . S
C630 C631 1.327 . S
C631 H625 0.950 . S
C631 C630 1.327 . S
C631 C635 1.429 . S
C632 C615 1.555 1_554 S
C632 H626 0.949 . S
C632 C636 1.368 1_565 S
C633 C614 1.429 . S
C633 C627 1.429 . S
C633 C634 1.523 . S
C634 C615 1.386 . S
C634 C628 1.368 1_565 S
C634 C633 1.523 . S
C635 C619 1.429 . S
C635 C631 1.429 . S
C635 C636 1.523 . S
C636 C620 1.386 . S
C636 C632 1.368 1_545 S
C636 C635 1.523 . S
H637 C612 0.950 . S
H638 C614 0.950 . S
H639 C615 0.950 . S
H640 C617 0.950 . S
H641 C619 0.950 . S
C642 C643 1.349 . S
C642 C644 1.327 . S
C642 H667 0.950 . S
C643 C642 1.349 . S
C643 C659 1.349 . S
C644 C642 1.327 . S
C644 C663 1.429 . S
C644 H668 0.950 . S
C645 C662 1.574 . S
C645 C664 1.368 . S
C645 H669 0.949 . S
H646 C650 0.949 . S
C647 C648 1.349 . S
C647 C649 1.327 . S
C647 H670 0.950 . S
C648 C647 1.349 . S
C648 C660 1.349 . S
C649 C647 1.327 . S
C649 C665 1.429 . S
C649 H671 0.950 . S
C650 H646 0.949 . S
C650 C658 1.574 . S
C650 C666 1.368 . S
H651 C659 0.950 . S
H652 C657 0.950 . S
H653 C658 0.949 . S
H654 C660 0.950 . S
H655 C661 0.950 . S
H656 C662 0.949 . S
C657 H652 0.950 . S
C657 C659 1.327 . S
C657 C663 1.429 . S
C658 C650 1.574 . S
C658 H653 0.949 . S
C658 C664 1.368 . S
C659 C643 1.349 . S
C659 H651 0.950 . S
C659 C657 1.327 . S
C660 C648 1.349 . S
C660 H654 0.950 . S
C660 C661 1.327 . S
C661 H655 0.950 . S
C661 C660 1.327 . S
C661 C665 1.429 . S
C662 C645 1.574 . S
C662 H656 0.949 . S
C662 C666 1.368 . S
C663 C644 1.429 . S
C663 C657 1.429 . S
C663 C664 1.523 . S
C664 C645 1.368 . S
C664 C658 1.368 . S
C664 C663 1.523 . S
C665 C649 1.429 . S
C665 C661 1.429 . S
C665 C666 1.523 . S
C666 C650 1.368 . S
C666 C662 1.368 . S
C666 C665 1.523 . S
H667 C642 0.950 . S
H668 C644 0.950 . S
H669 C645 0.949 . S
H670 C647 0.950 . S
H671 C649 0.950 . S
C672 C673 1.349 . S
C672 C674 1.327 . S
C672 H697 0.950 . S
C673 C672 1.349 . S
C673 C689 1.349 . S
C674 C672 1.327 . S
C674 C693 1.429 . S
C674 H698 0.950 . S
C675 C692 1.574 1_455 S
C675 C694 1.368 . S
C675 H699 0.949 . S
H676 C680 0.949 . S
C677 C678 1.349 . S
C677 C679 1.327 . S
C677 H700 0.950 . S
C678 C677 1.349 . S
C678 C690 1.349 . S
C679 C677 1.327 . S
C679 C695 1.429 . S
C679 H701 0.950 . S
C680 H676 0.949 . S
C680 C688 1.574 1_655 S
C680 C696 1.368 . S
H681 C689 0.950 . S
H682 C687 0.950 . S
H683 C688 0.949 . S
H684 C690 0.950 . S
H685 C691 0.950 . S
H686 C692 0.949 . S
C687 H682 0.950 . S
C687 C689 1.327 . S
C687 C693 1.429 . S
C688 C680 1.574 1_455 S
C688 H683 0.949 . S
C688 C694 1.368 . S
C689 C673 1.349 . S
C689 H681 0.950 . S
C689 C687 1.327 . S
C690 C678 1.349 . S
C690 H684 0.950 . S
C690 C691 1.327 . S
C691 H685 0.950 . S
C691 C690 1.327 . S
C691 C695 1.429 . S
C692 C675 1.574 1_655 S
C692 H686 0.949 . S
C692 C696 1.368 . S
C693 C674 1.429 . S
C693 C687 1.429 . S
C693 C694 1.523 . S
C694 C675 1.368 . S
C694 C688 1.368 . S
C694 C693 1.523 . S
C695 C679 1.429 . S
C695 C691 1.429 . S
C695 C696 1.523 . S
C696 C680 1.368 . S
C696 C692 1.368 . S
C696 C695 1.523 . S
H697 C672 0.950 . S
H698 C674 0.950 . S
H699 C675 0.949 . S
H700 C677 0.950 . S
H701 C679 0.950 . S
C702 C703 1.349 . S
C702 C704 1.327 . S
C702 H727 0.950 . S
C703 C702 1.349 . S
C703 C719 1.349 . S
C704 C702 1.327 . S
C704 C723 1.429 . S
C704 H728 0.950 . S
C705 C722 1.574 1_554 S
C705 C724 1.368 1_545 S
C705 H729 0.949 . S
H706 C710 0.949 . S
C707 C708 1.349 . S
C707 C709 1.327 . S
C707 H730 0.950 . S
C708 C707 1.349 . S
C708 C720 1.349 . S
C709 C707 1.327 . S
C709 C725 1.429 . S
C709 H731 0.950 . S
C710 H706 0.949 . S
C710 C718 1.574 1_556 S
C710 C726 1.368 1_565 S
H711 C719 0.950 . S
H712 C717 0.950 . S
H713 C718 0.949 . S
H714 C720 0.950 . S
H715 C721 0.950 . S
H716 C722 0.949 . S
C717 H712 0.950 . S
C717 C719 1.327 . S
C717 C723 1.429 . S
C718 C710 1.574 1_554 S
C718 H713 0.949 . S
C718 C724 1.368 . S
C719 C703 1.349 . S
C719 H711 0.950 . S
C719 C717 1.327 . S
C720 C708 1.349 . S
C720 H714 0.950 . S
C720 C721 1.327 . S
C721 H715 0.950 . S
C721 C720 1.327 . S
C721 C725 1.429 . S
C722 C705 1.574 1_556 S
C722 H716 0.949 . S
C722 C726 1.368 . S
C723 C704 1.429 . S
C723 C717 1.429 . S
C723 C724 1.523 . S
C724 C705 1.368 1_565 S
C724 C718 1.368 . S
C724 C723 1.523 . S
C725 C709 1.429 . S
C725 C721 1.429 . S
C725 C726 1.523 . S
C726 C710 1.368 1_545 S
C726 C722 1.368 . S
C726 C725 1.523 . S
H727 C702 0.950 . S
H728 C704 0.950 . S
H729 C705 0.949 . S
H730 C707 0.950 . S
H731 C709 0.950 . S
C732 C733 1.349 . S
C732 C734 1.327 . S
C732 H757 0.950 . S
C733 C732 1.349 . S
C733 C749 1.349 . S
C734 C732 1.327 . S
C734 C753 1.429 . S
C734 H758 0.950 . S
C735 C752 1.574 . S
C735 C754 1.368 . S
C735 H759 0.949 . S
H736 C740 0.949 . S
C737 C738 1.349 . S
C737 C739 1.327 . S
C737 H760 0.950 . S
C738 C737 1.349 . S
C738 C750 1.349 . S
C739 C737 1.327 . S
C739 C755 1.429 . S
C739 H761 0.950 . S
C740 H736 0.949 . S
C740 C748 1.574 . S
C740 C756 1.368 . S
H741 C749 0.950 . S
H742 C747 0.950 . S
H743 C748 0.949 . S
H744 C750 0.950 . S
H745 C751 0.950 . S
H746 C752 0.949 . S
C747 H742 0.950 . S
C747 C749 1.327 . S
C747 C753 1.429 . S
C748 C740 1.574 . S
C748 H743 0.949 . S
C748 C754 1.368 . S
C749 C733 1.349 . S
C749 H741 0.950 . S
C749 C747 1.327 . S
C750 C738 1.349 . S
C750 H744 0.950 . S
C750 C751 1.327 . S
C751 H745 0.950 . S
C751 C750 1.327 . S
C751 C755 1.429 . S
C752 C735 1.574 . S
C752 H746 0.949 . S
C752 C756 1.368 . S
C753 C734 1.429 . S
C753 C747 1.429 . S
C753 C754 1.523 . S
C754 C735 1.368 . S
C754 C748 1.368 . S
C754 C753 1.523 . S
C755 C739 1.429 . S
C755 C751 1.429 . S
C755 C756 1.523 . S
C756 C740 1.368 . S
C756 C752 1.368 . S
C756 C755 1.523 . S
H757 C732 0.950 . S
H758 C734 0.950 . S
H759 C735 0.949 . S
H760 C737 0.950 . S
H761 C739 0.950 . S
C762 C763 1.349 . S
C762 C764 1.327 . S
C762 H787 0.950 . S
C763 C762 1.349 . S
C763 C779 1.349 . S
C764 C762 1.327 . S
C764 C783 1.429 . S
C764 H788 0.950 . S
C765 C782 1.574 . S
C765 C784 1.368 . S
C765 H789 0.949 . S
H766 C770 0.949 . S
C767 C768 1.349 . S
C767 C769 1.327 . S
C767 H790 0.950 . S
C768 C767 1.349 . S
C768 C780 1.349 . S
C769 C767 1.327 . S
C769 C785 1.429 . S
C769 H791 0.950 . S
C770 H766 0.949 . S
C770 C778 1.574 . S
C770 C786 1.368 . S
H771 C779 0.950 . S
H772 C777 0.950 . S
H773 C778 0.949 . S
H774 C780 0.950 . S
H775 C781 0.950 . S
H776 C782 0.949 . S
C777 H772 0.950 . S
C777 C779 1.327 . S
C777 C783 1.429 . S
C778 C770 1.574 . S
C778 H773 0.949 . S
C778 C784 1.368 1_655 S
C779 C763 1.349 . S
C779 H771 0.950 . S
C779 C777 1.327 . S
C780 C768 1.349 . S
C780 H774 0.950 . S
C780 C781 1.327 . S
C781 H775 0.950 . S
C781 C780 1.327 . S
C781 C785 1.429 . S
C782 C765 1.574 . S
C782 H776 0.949 . S
C782 C786 1.368 1_455 S
C783 C764 1.429 . S
C783 C777 1.429 . S
C783 C784 1.523 . S
C784 C765 1.368 . S
C784 C778 1.368 1_455 S
C784 C783 1.523 . S
C785 C769 1.429 . S
C785 C781 1.429 . S
C785 C786 1.523 . S
C786 C770 1.368 . S
C786 C782 1.368 1_655 S
C786 C785 1.523 . S
H787 C762 0.950 . S
H788 C764 0.950 . S
H789 C765 0.949 . S
H790 C767 0.950 . S
H791 C769 0.950 . S
C792 C793 1.349 . S
C792 C794 1.327 . S
C792 H817 0.950 . S
C793 C792 1.349 . S
C793 C809 1.349 . S
C794 C792 1.327 . S
C794 C813 1.429 . S
C794 H818 0.950 . S
C795 C812 1.572 . S
C795 C814 1.368 . S
C795 H819 0.949 . S
H796 C800 0.949 . S
C797 C798 1.349 . S
C797 C799 1.327 . S
C797 H820 0.950 . S
C798 C797 1.349 . S
C798 C810 1.349 . S
C799 C797 1.327 . S
C799 C815 1.429 . S
C799 H821 0.950 . S
C800 H796 0.949 . S
C800 C808 1.572 . S
C800 C816 1.368 . S
H801 C809 0.950 . S
H802 C807 0.950 . S
H803 C808 0.946 1_545 S
H804 C810 0.950 . S
H805 C811 0.950 . S
H806 C812 0.946 1_565 S
C807 H802 0.950 . S
C807 C809 1.327 . S
C807 C813 1.429 . S
C808 C800 1.572 . S
C808 H803 0.946 1_565 S
C808 C814 1.369 1_565 S
C809 C793 1.349 . S
C809 H801 0.950 . S
C809 C807 1.327 . S
C810 C798 1.349 . S
C810 H804 0.950 . S
C810 C811 1.327 . S
C811 H805 0.950 . S
C811 C810 1.327 . S
C811 C815 1.429 . S
C812 C795 1.572 . S
C812 H806 0.946 1_545 S
C812 C816 1.369 1_545 S
C813 C794 1.429 . S
C813 C807 1.429 . S
C813 C814 1.523 . S
C814 C795 1.368 . S
C814 C808 1.369 1_545 S
C814 C813 1.523 . S
C815 C799 1.429 . S
C815 C811 1.429 . S
C815 C816 1.523 . S
C816 C800 1.368 . S
C816 C812 1.369 1_565 S
C816 C815 1.523 . S
H817 C792 0.950 . S
H818 C794 0.950 . S
H819 C795 0.949 . S
H820 C797 0.950 . S
H821 C799 0.950 . S
C822 C823 1.349 . S
C822 C824 1.327 . S
C822 H847 0.950 . S
C823 C822 1.349 . S
C823 C839 1.349 . S
C824 C822 1.327 . S
C824 C843 1.429 . S
C824 H848 0.950 . S
C825 C842 1.574 . S
C825 C844 1.368 . S
C825 H849 0.949 . S
H826 C830 0.949 . S
C827 C828 1.349 . S
C827 C829 1.327 . S
C827 H850 0.950 . S
C828 C827 1.349 . S
C828 C840 1.349 . S
C829 C827 1.327 . S
C829 C845 1.429 . S
C829 H851 0.950 . S
C830 H826 0.949 . S
C830 C838 1.574 . S
C830 C846 1.368 . S
H831 C839 0.950 . S
H832 C837 0.950 . S
H833 C838 0.949 . S
H834 C840 0.950 . S
H835 C841 0.950 . S
H836 C842 0.949 . S
C837 H832 0.950 . S
C837 C839 1.327 . S
C837 C843 1.429 . S
C838 C830 1.574 . S
C838 H833 0.949 . S
C838 C844 1.368 . S
C839 C823 1.349 . S
C839 H831 0.950 . S
C839 C837 1.327 . S
C840 C828 1.349 . S
C840 H834 0.950 . S
C840 C841 1.327 . S
C841 H835 0.950 . S
C841 C840 1.327 . S
C841 C845 1.429 . S
C842 C825 1.574 . S
C842 H836 0.949 . S
C842 C846 1.368 . S
C843 C824 1.429 . S
C843 C837 1.429 . S
C843 C844 1.523 . S
C844 C825 1.368 . S
C844 C838 1.368 . S
C844 C843 1.523 . S
C845 C829 1.429 . S
C845 C841 1.429 . S
C845 C846 1.523 . S
C846 C830 1.368 . S
C846 C842 1.368 . S
C846 C845 1.523 . S
H847 C822 0.950 . S
H848 C824 0.950 . S
H849 C825 0.949 . S
H850 C827 0.950 . S
H851 C829 0.950 . S
C852 C853 1.349 . S
C852 C854 1.327 . S
C852 H877 0.950 . S
C853 C852 1.349 . S
C853 C869 1.349 . S
C854 C852 1.327 . S
C854 C873 1.429 . S
C854 H878 0.950 . S
C855 C872 1.573 . S
C855 C874 1.369 1_455 S
C855 H879 0.952 1_455 S
H856 C860 0.952 1_455 S
C857 C858 1.349 . S
C857 C859 1.327 . S
C857 H880 0.950 . S
C858 C857 1.349 . S
C858 C870 1.349 . S
C859 C857 1.327 . S
C859 C875 1.429 . S
C859 H881 0.950 . S
C860 H856 0.952 1_655 S
C860 C868 1.573 . S
C860 C876 1.369 1_655 S
H861 C869 0.950 . S
H862 C867 0.950 . S
H863 C868 0.949 . S
H864 C870 0.950 . S
H865 C871 0.950 . S
H866 C872 0.949 . S
C867 H862 0.950 . S
C867 C869 1.327 . S
C867 C873 1.429 . S
C868 C860 1.573 . S
C868 H863 0.949 . S
C868 C874 1.368 . S
C869 C853 1.349 . S
C869 H861 0.950 . S
C869 C867 1.327 . S
C870 C858 1.349 . S
C870 H864 0.950 . S
C870 C871 1.327 . S
C871 H865 0.950 . S
C871 C870 1.327 . S
C871 C875 1.429 . S
C872 C855 1.573 . S
C872 H866 0.949 . S
C872 C876 1.368 . S
C873 C854 1.429 . S
C873 C867 1.429 . S
C873 C874 1.523 . S
C874 C855 1.369 1_655 S
C874 C868 1.368 . S
C874 C873 1.523 . S
C875 C859 1.429 . S
C875 C871 1.429 . S
C875 C876 1.523 . S
C876 C860 1.369 1_455 S
C876 C872 1.368 . S
C876 C875 1.523 . S
H877 C852 0.950 . S
H878 C854 0.950 . S
H879 C855 0.952 1_655 S
H880 C857 0.950 . S
H881 C859 0.950 . S
C882 C883 1.349 . S
C882 C884 1.327 . S
C882 H907 0.950 . S
C883 C882 1.349 . S
C883 C899 1.349 . S
C884 C882 1.327 . S
C884 C903 1.429 . S
C884 H908 0.950 . S
C885 C902 1.572 . S
C885 C904 1.368 . S
C885 H909 0.949 . S
H886 C890 0.949 . S
C887 C888 1.349 . S
C887 C889 1.327 . S
C887 H910 0.950 . S
C888 C887 1.349 . S
C888 C900 1.349 . S
C889 C887 1.327 . S
C889 C905 1.429 . S
C889 H911 0.950 . S
C890 H886 0.949 . S
C890 C898 1.572 . S
C890 C906 1.368 . S
H891 C899 0.950 . S
H892 C897 0.950 . S
H893 C898 0.946 1_455 S
H894 C900 0.950 . S
H895 C901 0.950 . S
H896 C902 0.946 1_655 S
C897 H892 0.950 . S
C897 C899 1.327 . S
C897 C903 1.429 . S
C898 C890 1.572 . S
C898 H893 0.946 1_655 S
C898 C904 1.369 1_655 S
C899 C883 1.349 . S
C899 H891 0.950 . S
C899 C897 1.327 . S
C900 C888 1.349 . S
C900 H894 0.950 . S
C900 C901 1.327 . S
C901 H895 0.950 . S
C901 C900 1.327 . S
C901 C905 1.429 . S
C902 C885 1.572 . S
C902 H896 0.946 1_455 S
C902 C906 1.369 1_455 S
C903 C884 1.429 . S
C903 C897 1.429 . S
C903 C904 1.523 . S
C904 C885 1.368 . S
C904 C898 1.369 1_455 S
C904 C903 1.523 . S
C905 C889 1.429 . S
C905 C901 1.429 . S
C905 C906 1.523 . S
C906 C890 1.368 . S
C906 C902 1.369 1_655 S
C906 C905 1.523 . S
H907 C882 0.950 . S
H908 C884 0.950 . S
H909 C885 0.949 . S
H910 C887 0.950 . S
H911 C889 0.950 . S
C912 C913 1.349 . S
C912 C914 1.327 . S
C912 H937 0.950 . S
C913 C912 1.349 . S
C913 C929 1.349 . S
C914 C912 1.327 . S
C914 C933 1.429 . S
C914 H938 0.950 . S
C915 C932 1.573 . S
C915 C934 1.368 . S
C915 H939 0.949 . S
H916 C920 0.949 . S
C917 C918 1.349 . S
C917 C919 1.327 . S
C917 H940 0.950 . S
C918 C917 1.349 . S
C918 C930 1.349 . S
C919 C917 1.327 . S
C919 C935 1.429 . S
C919 H941 0.950 . S
C920 H916 0.949 . S
C920 C928 1.573 . S
C920 C936 1.368 . S
H921 C929 0.950 . S
H922 C927 0.950 . S
H923 C928 0.952 1_565 S
H924 C930 0.950 . S
H925 C931 0.950 . S
H926 C932 0.952 1_545 S
C927 H922 0.950 . S
C927 C929 1.327 . S
C927 C933 1.429 . S
C928 C920 1.573 . S
C928 H923 0.952 1_545 S
C928 C934 1.369 1_545 S
C929 C913 1.349 . S
C929 H921 0.950 . S
C929 C927 1.327 . S
C930 C918 1.349 . S
C930 H924 0.950 . S
C930 C931 1.327 . S
C931 H925 0.950 . S
C931 C930 1.327 . S
C931 C935 1.429 . S
C932 C915 1.573 . S
C932 H926 0.952 1_565 S
C932 C936 1.369 1_565 S
C933 C914 1.429 . S
C933 C927 1.429 . S
C933 C934 1.523 . S
C934 C915 1.368 . S
C934 C928 1.369 1_565 S
C934 C933 1.523 . S
C935 C919 1.429 . S
C935 C931 1.429 . S
C935 C936 1.523 . S
C936 C920 1.368 . S
C936 C932 1.369 1_545 S
C936 C935 1.523 . S
H937 C912 0.950 . S
H938 C914 0.950 . S
H939 C915 0.949 . S
H940 C917 0.950 . S
H941 C919 0.950 . S
C942 C943 1.349 . S
C942 C944 1.327 . S
C942 H967 0.950 . S
C943 C942 1.349 . S
C943 C959 1.349 . S
C944 C942 1.327 . S
C944 C963 1.429 . S
C944 H968 0.950 . S
C945 C962 1.574 . S
C945 C964 1.368 . S
C945 H969 0.949 . S
H946 C950 0.949 . S
C947 C948 1.349 . S
C947 C949 1.327 . S
C947 H970 0.950 . S
C948 C947 1.349 . S
C948 C960 1.349 . S
C949 C947 1.327 . S
C949 C965 1.429 . S
C949 H971 0.950 . S
C950 H946 0.949 . S
C950 C958 1.574 . S
C950 C966 1.368 . S
H951 C959 0.950 . S
H952 C957 0.950 . S
H953 C958 0.949 . S
H954 C960 0.950 . S
H955 C961 0.950 . S
H956 C962 0.949 . S
C957 H952 0.950 . S
C957 C959 1.327 . S
C957 C963 1.429 . S
C958 C950 1.574 . S
C958 H953 0.949 . S
C958 C964 1.368 . S
C959 C943 1.349 . S
C959 H951 0.950 . S
C959 C957 1.327 . S
C960 C948 1.349 . S
C960 H954 0.950 . S
C960 C961 1.327 . S
C961 H955 0.950 . S
C961 C960 1.327 . S
C961 C965 1.429 . S
C962 C945 1.574 . S
C962 H956 0.949 . S
C962 C966 1.368 . S
C963 C944 1.429 . S
C963 C957 1.429 . S
C963 C964 1.523 . S
C964 C945 1.368 . S
C964 C958 1.368 . S
C964 C963 1.523 . S
C965 C949 1.429 . S
C965 C961 1.429 . S
C965 C966 1.523 . S
C966 C950 1.368 . S
C966 C962 1.368 . S
C966 C965 1.523 . S
H967 C942 0.950 . S
H968 C944 0.950 . S
H969 C945 0.949 . S
H970 C947 0.950 . S
H971 C949 0.950 . S
C972 C973 1.349 . S
C972 C974 1.327 . S
C972 H997 0.950 . S
C973 C972 1.349 . S
C973 C989 1.349 . S
C974 C972 1.327 . S
C974 C993 1.429 . S
C974 H998 0.950 . S
C975 C992 1.574 . S
C975 C994 1.368 1_545 S
C975 H999 0.949 . S
H976 C980 0.949 . S
C977 C978 1.349 . S
C977 C979 1.327 . S
C977 H1000 0.950 . S
C978 C977 1.349 . S
C978 C990 1.349 . S
C979 C977 1.327 . S
C979 C995 1.429 . S
C979 H1001 0.950 . S
C980 H976 0.949 . S
C980 C988 1.574 . S
C980 C996 1.368 1_565 S
H981 C989 0.950 . S
H982 C987 0.950 . S
H983 C988 0.949 . S
H984 C990 0.950 . S
H985 C991 0.950 . S
H986 C992 0.949 . S
C987 H982 0.950 . S
C987 C989 1.327 . S
C987 C993 1.429 . S
C988 C980 1.574 . S
C988 H983 0.949 . S
C988 C994 1.368 . S
C989 C973 1.349 . S
C989 H981 0.950 . S
C989 C987 1.327 . S
C990 C978 1.349 . S
C990 H984 0.950 . S
C990 C991 1.327 . S
C991 H985 0.950 . S
C991 C990 1.327 . S
C991 C995 1.429 . S
C992 C975 1.574 . S
C992 H986 0.949 . S
C992 C996 1.368 . S
C993 C974 1.429 . S
C993 C987 1.429 . S
C993 C994 1.523 . S
C994 C975 1.368 1_565 S
C994 C988 1.368 . S
C994 C993 1.523 . S
C995 C979 1.429 . S
C995 C991 1.429 . S
C995 C996 1.523 . S
C996 C980 1.368 1_545 S
C996 C992 1.368 . S
C996 C995 1.523 . S
H997 C972 0.950 . S
H998 C974 0.950 . S
H999 C975 0.949 . S
H1000 C977 0.950 . S
H1001 C979 0.950 . S
C1002 C1003 1.349 . S
C1002 C1004 1.327 . S
C1002 H1027 0.950 . S
C1003 C1002 1.349 . S
C1003 C1019 1.349 . S
C1004 C1002 1.327 . S
C1004 C1023 1.429 . S
C1004 H1028 0.950 . S
C1005 C1022 1.574 . S
C1005 C1024 1.368 . S
C1005 H1029 0.949 . S
H1006 C1010 0.949 . S
C1007 C1008 1.349 . S
C1007 C1009 1.327 . S
C1007 H1030 0.950 . S
C1008 C1007 1.349 . S
C1008 C1020 1.349 . S
C1009 C1007 1.327 . S
C1009 C1025 1.429 . S
C1009 H1031 0.950 . S
C1010 H1006 0.949 . S
C1010 C1018 1.574 . S
C1010 C1026 1.368 . S
H1011 C1019 0.950 . S
H1012 C1017 0.950 . S
H1013 C1018 0.949 . S
H1014 C1020 0.950 . S
H1015 C1021 0.950 . S
H1016 C1022 0.949 . S
C1017 H1012 0.950 . S
C1017 C1019 1.327 . S
C1017 C1023 1.429 . S
C1018 C1010 1.574 . S
C1018 H1013 0.949 . S
C1018 C1024 1.368 . S
C1019 C1003 1.349 . S
C1019 H1011 0.950 . S
C1019 C1017 1.327 . S
C1020 C1008 1.349 . S
C1020 H1014 0.950 . S
C1020 C1021 1.327 . S
C1021 H1015 0.950 . S
C1021 C1020 1.327 . S
C1021 C1025 1.429 . S
C1022 C1005 1.574 . S
C1022 H1016 0.949 . S
C1022 C1026 1.368 . S
C1023 C1004 1.429 . S
C1023 C1017 1.429 . S
C1023 C1024 1.523 . S
C1024 C1005 1.368 . S
C1024 C1018 1.368 . S
C1024 C1023 1.523 . S
C1025 C1009 1.429 . S
C1025 C1021 1.429 . S
C1025 C1026 1.523 . S
C1026 C1010 1.368 . S
C1026 C1022 1.368 . S
C1026 C1025 1.523 . S
H1027 C1002 0.950 . S
H1028 C1004 0.950 . S
H1029 C1005 0.949 . S
H1030 C1007 0.950 . S
H1031 C1009 0.950 . S
C1032 C1033 1.349 . S
C1032 C1034 1.327 . S
C1032 H1057 0.950 . S
C1033 C1032 1.349 . S
C1033 C1049 1.349 . S
C1034 C1032 1.327 . S
C1034 C1053 1.429 . S
C1034 H1058 0.950 . S
C1035 C1052 1.574 1_655 S
C1035 C1054 1.368 . S
C1035 H1059 0.949 . S
H1036 C1040 0.949 . S
C1037 C1038 1.349 . S
C1037 C1039 1.327 . S
C1037 H1060 0.950 . S
C1038 C1037 1.349 . S
C1038 C1050 1.349 . S
C1039 C1037 1.327 . S
C1039 C1055 1.429 . S
C1039 H1061 0.950 . S
C1040 H1036 0.949 . S
C1040 C1048 1.574 1_455 S
C1040 C1056 1.368 . S
H1041 C1049 0.950 . S
H1042 C1047 0.950 . S
H1043 C1048 0.949 . S
H1044 C1050 0.950 . S
H1045 C1051 0.950 . S
H1046 C1052 0.949 . S
C1047 H1042 0.950 . S
C1047 C1049 1.327 . S
C1047 C1053 1.429 . S
C1048 C1040 1.574 1_655 S
C1048 H1043 0.949 . S
C1048 C1054 1.368 . S
C1049 C1033 1.349 . S
C1049 H1041 0.950 . S
C1049 C1047 1.327 . S
C1050 C1038 1.349 . S
C1050 H1044 0.950 . S
C1050 C1051 1.327 . S
C1051 H1045 0.950 . S
C1051 C1050 1.327 . S
C1051 C1055 1.429 . S
C1052 C1035 1.574 1_455 S
C1052 H1046 0.949 . S
C1052 C1056 1.368 . S
C1053 C1034 1.429 . S
C1053 C1047 1.429 . S
C1053 C1054 1.523 . S
C1054 C1035 1.368 . S
C1054 C1048 1.368 . S
C1054 C1053 1.523 . S
C1055 C1039 1.429 . S
C1055 C1051 1.429 . S
C1055 C1056 1.523 . S
C1056 C1040 1.368 . S
C1056 C1052 1.368 . S
C1056 C1055 1.523 . S
H1057 C1032 0.950 . S
H1058 C1034 0.950 . S
H1059 C1035 0.949 . S
H1060 C1037 0.950 . S
H1061 C1039 0.950 . S
C1062 C1063 1.349 . S
C1062 C1064 1.327 . S
C1062 H1087 0.950 . S
C1063 C1062 1.349 . S
C1063 C1079 1.349 . S
C1064 C1062 1.327 . S
C1064 C1083 1.429 . S
C1064 H1088 0.950 . S
C1065 C1082 1.574 1_545 S
C1065 C1084 1.368 . S
C1065 H1089 0.949 . S
H1066 C1070 0.949 . S
C1067 C1068 1.349 . S
C1067 C1069 1.327 . S
C1067 H1090 0.950 . S
C1068 C1067 1.349 . S
C1068 C1080 1.349 . S
C1069 C1067 1.327 . S
C1069 C1085 1.429 . S
C1069 H1091 0.950 . S
C1070 H1066 0.949 . S
C1070 C1078 1.574 1_565 S
C1070 C1086 1.368 . S
H1071 C1079 0.950 . S
H1072 C1077 0.950 . S
H1073 C1078 0.949 . S
H1074 C1080 0.950 . S
H1075 C1081 0.950 . S
H1076 C1082 0.949 . S
C1077 H1072 0.950 . S
C1077 C1079 1.327 . S
C1077 C1083 1.429 . S
C1078 C1070 1.574 1_545 S
C1078 H1073 0.949 . S
C1078 C1084 1.368 . S
C1079 C1063 1.349 . S
C1079 H1071 0.950 . S
C1079 C1077 1.327 . S
C1080 C1068 1.349 . S
C1080 H1074 0.950 . S
C1080 C1081 1.327 . S
C1081 H1075 0.950 . S
C1081 C1080 1.327 . S
C1081 C1085 1.429 . S
C1082 C1065 1.574 1_565 S
C1082 H1076 0.949 . S
C1082 C1086 1.368 . S
C1083 C1064 1.429 . S
C1083 C1077 1.429 . S
C1083 C1084 1.523 . S
C1084 C1065 1.368 . S
C1084 C1078 1.368 . S
C1084 C1083 1.523 . S
C1085 C1069 1.429 . S
C1085 C1081 1.429 . S
C1085 C1086 1.523 . S
C1086 C1070 1.368 . S
C1086 C1082 1.368 . S
C1086 C1085 1.523 . S
H1087 C1062 0.950 . S
H1088 C1064 0.950 . S
H1089 C1065 0.949 . S
H1090 C1067 0.950 . S
H1091 C1069 0.950 . S
C1092 C1093 1.349 . S
C1092 C1094 1.327 . S
C1092 H1117 0.950 . S
C1093 C1092 1.349 . S
C1093 C1109 1.349 . S
C1094 C1092 1.327 . S
C1094 C1113 1.429 . S
C1094 H1118 0.950 . S
C1095 C1112 1.574 . S
C1095 C1114 1.368 . S
C1095 H1119 0.949 . S
H1096 C1100 0.949 . S
C1097 C1098 1.349 . S
C1097 C1099 1.327 . S
C1097 H1120 0.950 . S
C1098 C1097 1.349 . S
C1098 C1110 1.349 . S
C1099 C1097 1.327 . S
C1099 C1115 1.429 . S
C1099 H1121 0.950 . S
C1100 H1096 0.949 . S
C1100 C1108 1.574 . S
C1100 C1116 1.368 . S
H1101 C1109 0.950 . S
H1102 C1107 0.950 . S
H1103 C1108 0.949 . S
H1104 C1110 0.950 . S
H1105 C1111 0.950 . S
H1106 C1112 0.949 . S
C1107 H1102 0.950 . S
C1107 C1109 1.327 . S
C1107 C1113 1.429 . S
C1108 C1100 1.574 . S
C1108 H1103 0.949 . S
C1108 C1114 1.368 . S
C1109 C1093 1.349 . S
C1109 H1101 0.950 . S
C1109 C1107 1.327 . S
C1110 C1098 1.349 . S
C1110 H1104 0.950 . S
C1110 C1111 1.327 . S
C1111 H1105 0.950 . S
C1111 C1110 1.327 . S
C1111 C1115 1.429 . S
C1112 C1095 1.574 . S
C1112 H1106 0.949 . S
C1112 C1116 1.368 . S
C1113 C1094 1.429 . S
C1113 C1107 1.429 . S
C1113 C1114 1.523 . S
C1114 C1095 1.368 . S
C1114 C1108 1.368 . S
C1114 C1113 1.523 . S
C1115 C1099 1.429 . S
C1115 C1111 1.429 . S
C1115 C1116 1.523 . S
C1116 C1100 1.368 . S
C1116 C1112 1.368 . S
C1116 C1115 1.523 . S
H1117 C1092 0.950 . S
H1118 C1094 0.950 . S
H1119 C1095 0.949 . S
H1120 C1097 0.950 . S
H1121 C1099 0.950 . S
C1122 C1123 1.349 . S
C1122 C1124 1.327 . S
C1122 H1147 0.950 . S
C1123 C1122 1.349 . S
C1123 C1139 1.349 . S
C1124 C1122 1.327 . S
C1124 C1143 1.429 . S
C1124 H1148 0.950 . S
C1125 C1142 1.574 . S
C1125 C1144 1.368 1_655 S
C1125 H1149 0.949 . S
H1126 C1130 0.949 . S
C1127 C1128 1.349 . S
C1127 C1129 1.327 . S
C1127 H1150 0.950 . S
C1128 C1127 1.349 . S
C1128 C1140 1.349 . S
C1129 C1127 1.327 . S
C1129 C1145 1.429 . S
C1129 H1151 0.950 . S
C1130 H1126 0.949 . S
C1130 C1138 1.574 . S
C1130 C1146 1.368 1_455 S
H1131 C1139 0.950 . S
H1132 C1137 0.950 . S
H1133 C1138 0.949 . S
H1134 C1140 0.950 . S
H1135 C1141 0.950 . S
H1136 C1142 0.949 . S
C1137 H1132 0.950 . S
C1137 C1139 1.327 . S
C1137 C1143 1.429 . S
C1138 C1130 1.574 . S
C1138 H1133 0.949 . S
C1138 C1144 1.368 . S
C1139 C1123 1.349 . S
C1139 H1131 0.950 . S
C1139 C1137 1.327 . S
C1140 C1128 1.349 . S
C1140 H1134 0.950 . S
C1140 C1141 1.327 . S
C1141 H1135 0.950 . S
C1141 C1140 1.327 . S
C1141 C1145 1.429 . S
C1142 C1125 1.574 . S
C1142 H1136 0.949 . S
C1142 C1146 1.368 . S
C1143 C1124 1.429 . S
C1143 C1137 1.429 . S
C1143 C1144 1.523 . S
C1144 C1125 1.368 1_455 S
C1144 C1138 1.368 . S
C1144 C1143 1.523 . S
C1145 C1129 1.429 . S
C1145 C1141 1.429 . S
C1145 C1146 1.523 . S
C1146 C1130 1.368 1_655 S
C1146 C1142 1.368 . S
C1146 C1145 1.523 . S
H1147 C1122 0.950 . S
H1148 C1124 0.950 . S
H1149 C1125 0.949 . S
H1150 C1127 0.950 . S
H1151 C1129 0.950 . S
C1152 C1153 1.349 . S
C1152 C1154 1.327 . S
C1152 H1177 0.950 . S
C1153 C1152 1.349 . S
C1153 C1169 1.349 . S
C1154 C1152 1.327 . S
C1154 C1173 1.429 . S
C1154 H1178 0.950 . S
C1155 C1172 1.574 . S
C1155 C1174 1.368 . S
C1155 H1179 0.949 . S
H1156 C1160 0.949 . S
C1157 C1158 1.349 . S
C1157 C1159 1.327 . S
C1157 H1180 0.950 . S
C1158 C1157 1.349 . S
C1158 C1170 1.349 . S
C1159 C1157 1.327 . S
C1159 C1175 1.429 . S
C1159 H1181 0.950 . S
C1160 H1156 0.949 . S
C1160 C1168 1.574 . S
C1160 C1176 1.368 . S
H1161 C1169 0.950 . S
H1162 C1167 0.950 . S
H1163 C1168 0.949 . S
H1164 C1170 0.950 . S
H1165 C1171 0.950 . S
H1166 C1172 0.949 . S
C1167 H1162 0.950 . S
C1167 C1169 1.327 . S
C1167 C1173 1.429 . S
C1168 C1160 1.574 . S
C1168 H1163 0.949 . S
C1168 C1174 1.368 . S
C1169 C1153 1.349 . S
C1169 H1161 0.950 . S
C1169 C1167 1.327 . S
C1170 C1158 1.349 . S
C1170 H1164 0.950 . S
C1170 C1171 1.327 . S
C1171 H1165 0.950 . S
C1171 C1170 1.327 . S
C1171 C1175 1.429 . S
C1172 C1155 1.574 . S
C1172 H1166 0.949 . S
C1172 C1176 1.368 . S
C1173 C1154 1.429 . S
C1173 C1167 1.429 . S
C1173 C1174 1.523 . S
C1174 C1155 1.368 . S
C1174 C1168 1.368 . S
C1174 C1173 1.523 . S
C1175 C1159 1.429 . S
C1175 C1171 1.429 . S
C1175 C1176 1.523 . S
C1176 C1160 1.368 . S
C1176 C1172 1.368 . S
C1176 C1175 1.523 . S
H1177 C1152 0.950 . S
H1178 C1154 0.950 . S
H1179 C1155 0.949 . S
H1180 C1157 0.950 . S
H1181 C1159 0.950 . S
C1182 C1183 1.349 . S
C1182 C1184 1.327 . S
C1182 H1207 0.950 . S
C1183 C1182 1.349 . S
C1183 C1199 1.349 . S
C1184 C1182 1.327 . S
C1184 C1203 1.429 . S
C1184 H1208 0.950 . S
C1185 C1202 1.574 . S
C1185 C1204 1.368 . S
C1185 H1209 0.949 . S
H1186 C1190 0.949 . S
C1187 C1188 1.349 . S
C1187 C1189 1.327 . S
C1187 H1210 0.950 . S
C1188 C1187 1.349 . S
C1188 C1200 1.349 . S
C1189 C1187 1.327 . S
C1189 C1205 1.429 . S
C1189 H1211 0.950 . S
C1190 H1186 0.949 . S
C1190 C1198 1.574 . S
C1190 C1206 1.368 . S
H1191 C1199 0.950 . S
H1192 C1197 0.950 . S
H1193 C1198 0.949 . S
H1194 C1200 0.950 . S
H1195 C1201 0.950 . S
H1196 C1202 0.949 . S
C1197 H1192 0.950 . S
C1197 C1199 1.327 . S
C1197 C1203 1.429 . S
C1198 C1190 1.574 . S
C1198 H1193 0.949 . S
C1198 C1204 1.368 . S
C1199 C1183 1.349 . S
C1199 H1191 0.950 . S
C1199 C1197 1.327 . S
C1200 C1188 1.349 . S
C1200 H1194 0.950 . S
C1200 C1201 1.327 . S
C1201 H1195 0.950 . S
C1201 C1200 1.327 . S
C1201 C1205 1.429 . S
C1202 C1185 1.574 . S
C1202 H1196 0.949 . S
C1202 C1206 1.368 . S
C1203 C1184 1.429 . S
C1203 C1197 1.429 . S
C1203 C1204 1.523 . S
C1204 C1185 1.368 . S
C1204 C1198 1.368 . S
C1204 C1203 1.523 . S
C1205 C1189 1.429 . S
C1205 C1201 1.429 . S
C1205 C1206 1.523 . S
C1206 C1190 1.368 . S
C1206 C1202 1.368 . S
C1206 C1205 1.523 . S
H1207 C1182 0.950 . S
H1208 C1184 0.950 . S
H1209 C1185 0.949 . S
H1210 C1187 0.950 . S
H1211 C1189 0.950 . S
C1212 C1213 1.349 . S
C1212 C1214 1.327 . S
C1212 H1237 0.934 1_554 S
C1213 C1212 1.349 . S
C1213 C1229 1.349 . S
C1214 C1212 1.327 . S
C1214 C1233 1.429 . S
C1214 H1238 0.950 . S
C1215 C1232 1.574 . S
C1215 C1234 1.368 . S
C1215 H1239 0.949 . S
H1216 C1220 0.949 . S
C1217 C1218 1.349 . S
C1217 C1219 1.327 . S
C1217 H1240 0.950 . S
C1218 C1217 1.349 . S
C1218 C1230 1.349 . S
C1219 C1217 1.327 . S
C1219 C1235 1.429 . S
C1219 H1241 0.950 . S
C1220 H1216 0.949 . S
C1220 C1228 1.574 . S
C1220 C1236 1.368 . S
H1221 C1229 0.950 . S
H1222 C1227 0.950 . S
H1223 C1228 0.949 . S
H1224 C1230 0.950 . S
H1225 C1231 0.950 . S
H1226 C1232 0.949 . S
C1227 H1222 0.950 . S
C1227 C1229 1.327 . S
C1227 C1233 1.429 . S
C1228 C1220 1.574 . S
C1228 H1223 0.949 . S
C1228 C1234 1.368 . S
C1229 C1213 1.349 . S
C1229 H1221 0.950 . S
C1229 C1227 1.327 . S
C1230 C1218 1.349 . S
C1230 H1224 0.950 . S
C1230 C1231 1.327 . S
C1231 H1225 0.950 . S
C1231 C1230 1.327 . S
C1231 C1235 1.429 . S
C1232 C1215 1.574 . S
C1232 H1226 0.949 . S
C1232 C1236 1.368 . S
C1233 C1214 1.429 . S
C1233 C1227 1.429 . S
C1233 C1234 1.523 . S
C1234 C1215 1.368 . S
C1234 C1228 1.368 . S
C1234 C1233 1.523 . S
C1235 C1219 1.429 . S
C1235 C1231 1.429 . S
C1235 C1236 1.523 . S
C1236 C1220 1.368 . S
C1236 C1232 1.368 . S
C1236 C1235 1.523 . S
H1237 C1212 0.934 1_556 S
H1238 C1214 0.950 . S
H1239 C1215 0.949 . S
H1240 C1217 0.950 . S
H1241 C1219 0.950 . S
C1242 C1243 1.349 . S
C1242 C1244 1.327 . S
C1242 H1267 0.950 . S
C1243 C1242 1.349 . S
C1243 C1259 1.349 . S
C1244 C1242 1.327 . S
C1244 C1263 1.429 . S
C1244 H1268 0.950 . S
C1245 C1262 1.574 . S
C1245 C1264 1.368 . S
C1245 H1269 0.949 . S
H1246 C1250 0.949 . S
C1247 C1248 1.349 . S
C1247 C1249 1.327 . S
C1247 H1270 0.950 . S
C1248 C1247 1.349 . S
C1248 C1260 1.349 . S
C1249 C1247 1.327 . S
C1249 C1265 1.429 . S
C1249 H1271 0.950 . S
C1250 H1246 0.949 . S
C1250 C1258 1.574 . S
C1250 C1266 1.368 . S
H1251 C1259 0.950 . S
H1252 C1257 0.950 . S
H1253 C1258 0.949 . S
H1254 C1260 0.950 . S
H1255 C1261 0.950 . S
H1256 C1262 0.949 . S
C1257 H1252 0.950 . S
C1257 C1259 1.327 . S
C1257 C1263 1.429 . S
C1258 C1250 1.574 . S
C1258 H1253 0.949 . S
C1258 C1264 1.368 . S
C1259 C1243 1.349 . S
C1259 H1251 0.950 . S
C1259 C1257 1.327 . S
C1260 C1248 1.349 . S
C1260 H1254 0.950 . S
C1260 C1261 1.327 . S
C1261 H1255 0.950 . S
C1261 C1260 1.327 . S
C1261 C1265 1.429 . S
C1262 C1245 1.574 . S
C1262 H1256 0.949 . S
C1262 C1266 1.368 . S
C1263 C1244 1.429 . S
C1263 C1257 1.429 . S
C1263 C1264 1.523 . S
C1264 C1245 1.368 . S
C1264 C1258 1.368 . S
C1264 C1263 1.523 . S
C1265 C1249 1.429 . S
C1265 C1261 1.429 . S
C1265 C1266 1.523 . S
C1266 C1250 1.368 . S
C1266 C1262 1.368 . S
C1266 C1265 1.523 . S
H1267 C1242 0.950 . S
H1268 C1244 0.950 . S
H1269 C1245 0.949 . S
H1270 C1247 0.950 . S
H1271 C1249 0.950 . S
C1272 C1273 1.349 . S
C1272 C1274 1.327 . S
C1272 H1297 0.950 . S
C1273 C1272 1.349 . S
C1273 C1289 1.349 . S
C1274 C1272 1.327 . S
C1274 C1293 1.429 . S
C1274 H1298 0.950 . S
C1275 C1292 1.574 . S
C1275 C1294 1.368 . S
C1275 H1299 0.949 . S
H1276 C1280 0.949 . S
C1277 C1278 1.349 . S
C1277 C1279 1.327 . S
C1277 H1300 0.950 . S
C1278 C1277 1.349 . S
C1278 C1290 1.349 . S
C1279 C1277 1.327 . S
C1279 C1295 1.429 . S
C1279 H1301 0.950 . S
C1280 H1276 0.949 . S
C1280 C1288 1.574 . S
C1280 C1296 1.368 . S
H1281 C1289 0.950 . S
H1282 C1287 0.950 . S
H1283 C1288 0.949 . S
H1284 C1290 0.950 . S
H1285 C1291 0.950 . S
H1286 C1292 0.949 . S
C1287 H1282 0.950 . S
C1287 C1289 1.327 . S
C1287 C1293 1.429 . S
C1288 C1280 1.574 . S
C1288 H1283 0.949 . S
C1288 C1294 1.368 . S
C1289 C1273 1.349 . S
C1289 H1281 0.950 . S
C1289 C1287 1.327 . S
C1290 C1278 1.349 . S
C1290 H1284 0.950 . S
C1290 C1291 1.327 . S
C1291 H1285 0.950 . S
C1291 C1290 1.327 . S
C1291 C1295 1.429 . S
C1292 C1275 1.574 . S
C1292 H1286 0.949 . S
C1292 C1296 1.368 . S
C1293 C1274 1.429 . S
C1293 C1287 1.429 . S
C1293 C1294 1.523 . S
C1294 C1275 1.368 . S
C1294 C1288 1.368 . S
C1294 C1293 1.523 . S
C1295 C1279 1.429 . S
C1295 C1291 1.429 . S
C1295 C1296 1.523 . S
C1296 C1280 1.368 . S
C1296 C1292 1.368 . S
C1296 C1295 1.523 . S
H1297 C1272 0.950 . S
H1298 C1274 0.950 . S
H1299 C1275 0.949 . S
H1300 C1277 0.950 . S
H1301 C1279 0.950 . S
C1302 C1303 1.349 . S
C1302 C1304 1.327 . S
C1302 H1327 0.950 . S
C1303 C1302 1.349 . S
C1303 C1319 1.349 . S
C1304 C1302 1.327 . S
C1304 C1323 1.429 . S
C1304 H1328 0.950 . S
C1305 C1322 1.574 . S
C1305 C1324 1.368 . S
C1305 H1329 0.949 . S
H1306 C1310 0.949 . S
C1307 C1308 1.349 . S
C1307 C1309 1.327 . S
C1307 H1330 0.950 . S
C1308 C1307 1.349 . S
C1308 C1320 1.349 . S
C1309 C1307 1.327 . S
C1309 C1325 1.429 . S
C1309 H1331 0.950 . S
C1310 H1306 0.949 . S
C1310 C1318 1.574 . S
C1310 C1326 1.368 . S
H1311 C1319 0.950 . S
H1312 C1317 0.950 . S
H1313 C1318 0.949 . S
H1314 C1320 0.950 . S
H1315 C1321 0.950 . S
H1316 C1322 0.949 . S
C1317 H1312 0.950 . S
C1317 C1319 1.327 . S
C1317 C1323 1.429 . S
C1318 C1310 1.574 . S
C1318 H1313 0.949 . S
C1318 C1324 1.368 . S
C1319 C1303 1.349 . S
C1319 H1311 0.950 . S
C1319 C1317 1.327 . S
C1320 C1308 1.349 . S
C1320 H1314 0.950 . S
C1320 C1321 1.327 . S
C1321 H1315 0.950 . S
C1321 C1320 1.327 . S
C1321 C1325 1.429 . S
C1322 C1305 1.574 . S
C1322 H1316 0.949 . S
C1322 C1326 1.368 . S
C1323 C1304 1.429 . S
C1323 C1317 1.429 . S
C1323 C1324 1.523 . S
C1324 C1305 1.368 . S
C1324 C1318 1.368 . S
C1324 C1323 1.523 . S
C1325 C1309 1.429 . S
C1325 C1321 1.429 . S
C1325 C1326 1.523 . S
C1326 C1310 1.368 . S
C1326 C1322 1.368 . S
C1326 C1325 1.523 . S
H1327 C1302 0.950 . S
H1328 C1304 0.950 . S
H1329 C1305 0.949 . S
H1330 C1307 0.950 . S
H1331 C1309 0.950 . S
C253 C13 0.839 . S
C258 C181 0.839 . S
C283 C34 0.839 . S
C288 C202 0.839 . S
C313 C55 0.839 . S
C318 C223 0.839 . S
C343 C244 0.839 . S
C348 C76 0.839 . S
C373 C97 0.839 . S
C378 C139 0.839 . S
C403 C160 0.839 . S
C408 C118 0.839 . S
C433 C227 1.488 . S
C438 C17 1.488 . S
C463 C248 1.488 . S
C468 C38 1.488 . S
C493 C59 1.489 . S
C498 C143 1.489 . S
C523 C164 1.488 . S
C528 C80 1.488 . S
C553 C185 1.488 . S
C558 C101 1.488 . S
C583 C122 1.488 . S
C588 C206 1.488 . S
C613 C162 1.217 . S
C618 C15 1.217 . S
C643 C183 1.217 . S
C648 C36 1.217 . S
C673 C204 1.217 . S
C678 C57 1.217 . S
C703 C78 1.217 . S
C708 C225 1.217 . S
C733 C99 1.217 . S
C738 C246 1.217 . S
C763 C120 1.217 . S
C768 C141 1.217 . S
C793 C16 1.435 . S
C798 C79 1.435 . S
C823 C37 1.435 . S
C828 C100 1.435 . S
C853 C58 1.435 . S
C858 C121 1.435 . S
C883 C205 1.435 . S
C888 C142 1.435 . S
C913 C163 1.435 . S
C918 C226 1.435 . S
C943 C247 1.435 . S
C948 C184 1.435 . S
C973 C165 1.101 . S
C978 C18 1.101 . S
C1003 C186 1.101 . S
C1008 C39 1.101 . S
C1033 C60 1.101 . S
C1038 C207 1.101 . S
C1063 C228 1.101 . S
C1068 C81 1.101 . S
C1093 C249 1.101 . S
C1098 C102 1.101 . S
C1123 C123 1.101 . S
C1128 C144 1.101 . S
C1153 C14 1.338 . S
C1158 C224 1.338 . S
C1183 C35 1.338 . S
C1188 C245 1.338 1_556 S
C1213 C56 1.338 1_554 S
C1218 C140 1.338 . S
C1243 C77 1.338 . S
C1248 C161 1.338 . S
C1273 C98 1.338 . S
C1278 C182 1.338 1_556 S
C1303 C203 1.338 . S
C1308 C119 1.338 1_554 S
