# Generated by pormake.
# Topology snp, (6)-cn, num edge types: 1
# Building blocks:
#     Node 0, Type 0, BuildingBlock: BETFAJ_clean_sbu_0, # of connection points: 6
#     Node 1, Type 0, BuildingBlock: BETFAJ_clean_sbu_0, # of connection points: 6
#     Node 2, Type 0, BuildingBlock: BETFAJ_clean_sbu_0, # of connection points: 6
#     Node 3, Type 0, BuildingBlock: BETFAJ_clean_sbu_0, # of connection points: 6
#     Edge 4, Type (0, 0), BuildingBlock: EZIPEK_clean_linker_0, # of connection points: 2
#     Edge 5, Type (0, 0), BuildingBlock: EZIPEK_clean_linker_0, # of connection points: 2
#     Edge 6, Type (0, 0), BuildingBlock: EZIPEK_clean_linker_0, # of connection points: 2
#     Edge 7, Type (0, 0), BuildingBlock: EZIPEK_clean_linker_0, # of connection points: 2
#     Edge 8, Type (0, 0), BuildingBlock: EZIPEK_clean_linker_0, # of connection points: 2
#     Edge 9, Type (0, 0), BuildingBlock: EZIPEK_clean_linker_0, # of connection points: 2
#     Edge 10, Type (0, 0), BuildingBlock: EZIPEK_clean_linker_0, # of connection points: 2
#     Edge 11, Type (0, 0), BuildingBlock: EZIPEK_clean_linker_0, # of connection points: 2
#     Edge 12, Type (0, 0), BuildingBlock: EZIPEK_clean_linker_0, # of connection points: 2
#     Edge 13, Type (0, 0), BuildingBlock: EZIPEK_clean_linker_0, # of connection points: 2
#     Edge 14, Type (0, 0), BuildingBlock: EZIPEK_clean_linker_0, # of connection points: 2
#     Edge 15, Type (0, 0), BuildingBlock: EZIPEK_clean_linker_0, # of connection points: 2
# Relax obj value: 0.243
# Max RMSD: 0.246
# Mean RMSD: 0.239
data_MOF--net-snp--node1-BETFAJ_clean_sbu_0--edge1-EZIPEK_clean_linker_0
_symmetry_space_group_name_H-M    P1
_symmetry_Int_Tables_number       1
_symmetry_cell_setting            triclinic
loop_
_symmetry_equiv_pos_as_xyz
'x, y, z'
_cell_length_a     18.918912
_cell_length_b     18.94005
_cell_length_c     28.926667
_cell_angle_alpha  80.765375
_cell_angle_beta   106.30248
_cell_angle_gamma 99.519672
loop_
_atom_site_label
_atom_site_type_symbol
_atom_site_fract_x
_atom_site_fract_y
_atom_site_fract_z
_atom_type_partial_charge
Sm0 Sm 0.26777 0.11824 0.14148 0.0
Sm1 Sm 0.25863 -0.01954 0.09426 0.0
C2 C 0.25903 0.21784 0.19425 0.0
C3 C 0.24321 0.2247 0.24036 0.0
C4 C 0.22107 0.16415 0.27056 0.0
C5 C 0.21237 0.17228 0.31601 0.0
C6 C 0.22607 0.24095 0.33178 0.0
C7 C 0.24679 0.30127 0.30111 0.0
C8 C 0.25518 0.29319 0.2558 0.0
C9 C 0.40133 0.08059 0.1385 0.0
C10 C 0.26135 0.9616 0.20683 0.0
C11 C 0.28609 0.87998 0.05018 0.0
C12 C 0.2682 0.86195 1.00057 0.0
C13 C 0.30885 0.81482 0.98907 0.0
C14 C 0.29314 0.79853 0.94152 0.0
C15 C 0.23632 0.829 0.90523 0.0
C16 C 0.19603 0.87654 0.9168 0.0
C17 C 0.21185 0.89294 0.96423 0.0
C18 C 0.12401 0.00235 0.10362 0.0
C19 C 0.24413 0.14166 1.02502 0.0
O20 O 0.20379 0.19426 0.15935 0.0
O21 O 0.32014 0.19143 0.19786 0.0
O22 O 0.34782 0.0385 0.14861 0.0
O23 O 0.38695 0.1468 0.13089 0.0
O24 O 0.2396 0.02609 0.19788 0.0
O25 O 0.28601 0.9356 0.17536 0.0
O26 O 0.33082 0.93965 0.05875 0.0
O27 O 0.2303 0.87187 0.06978 0.0
O28 O 0.17372 0.05137 0.09309 0.0
O29 O 0.14314 0.93954 0.104 0.0
O30 O 0.24842 0.07146 1.02833 0.0
O31 O 0.25041 0.17356 0.0636 0.0
H32 H 0.21179 0.11074 0.25939 0.0
H33 H 0.1966 0.12504 0.33927 0.0
H34 H 0.25784 0.35455 0.3127 0.0
H35 H 0.27269 0.34044 0.23319 0.0
H36 H 0.35294 0.79106 1.01679 0.0
H37 H 0.32526 0.76248 0.93294 0.0
H38 H 0.15266 0.9012 0.88898 0.0
H39 H 0.18047 0.93 0.97252 0.0
Sm40 Sm 0.97798 0.24737 0.74674 0.0
Sm41 Sm 0.11644 0.29736 0.71111 0.0
C42 C 0.8782 0.18454 0.79356 0.0
C43 C 0.86909 0.18147 0.84306 0.0
C44 C 0.8889 0.12225 0.87787 0.0
C45 C 0.87939 0.1185 0.92439 0.0
C46 C 0.8497 0.17368 0.93681 0.0
C47 C 0.83014 0.23305 0.90246 0.0
C48 C 0.83971 0.23695 0.8559 0.0
C49 C 0.00994 0.3954 0.72968 0.0
C50 C 0.14263 0.26006 0.82587 0.0
C51 C 0.21023 0.35623 0.6587 0.0
C52 C 0.21812 0.33951 0.61195 0.0
C53 C 0.20209 0.3893 0.56993 0.0
C54 C 0.20343 0.37167 0.52491 0.0
C55 C 0.2206 0.30381 0.52103 0.0
C56 C 0.23753 0.25433 0.56297 0.0
C57 C 0.23678 0.27209 0.60798 0.0
C58 C 0.07925 0.14992 0.71907 0.0
C59 C 0.95117 0.26839 0.6318 0.0
O60 O 0.9313 0.1517 0.78916 0.0
O61 O 0.8724 0.2463 0.76598 0.0
O62 O 0.05666 0.35177 0.74947 0.0
O63 O 0.94375 0.36021 0.72053 0.0
O64 O 0.0731 0.2297 0.81548 0.0
O65 O 0.17203 0.30077 0.79263 0.0
O66 O 0.15012 0.38368 0.65653 0.0
O67 O 0.22723 0.30806 0.69653 0.0
O68 O 0.03483 0.19605 0.70431 0.0
O69 O 0.14664 0.18188 0.73081 0.0
O70 O 0.01931 0.30341 0.64085 0.0
O71 O 0.92276 0.23434 0.6672 0.0
H72 H 0.91113 0.07846 0.86904 0.0
H73 H 0.89403 0.07194 0.95052 0.0
H74 H 0.80634 0.2756 0.91148 0.0
H75 H 0.8234 0.2831 0.8299 0.0
H76 H 0.18739 0.4415 0.57178 0.0
H77 H 0.19039 0.41069 0.49298 0.0
H78 H 0.25095 0.20174 0.56078 0.0
H79 H 0.24918 0.23215 0.63942 0.0
Sm80 Sm 0.82659 0.07188 0.24175 0.0
Sm81 Sm 0.8177 0.93423 0.19451 0.0
C82 C 0.79877 0.17215 0.28585 0.0
C83 C 0.81663 0.19023 0.33545 0.0
C84 C 0.77493 0.23618 0.34713 0.0
C85 C 0.79051 0.25238 0.39469 0.0
C86 C 0.84822 0.22298 0.43081 0.0
C87 C 0.8896 0.17667 0.41906 0.0
C88 C 0.87393 0.16036 0.37162 0.0
C89 C 0.96131 0.05044 0.23248 0.0
C90 C 0.84145 0.91069 0.311 0.0
C91 C 0.82667 0.83476 0.14172 0.0
C92 C 0.84233 0.82803 0.09553 0.0
C93 C 0.86378 0.88868 0.06515 0.0
C94 C 0.87233 0.88062 1.01964 0.0
C95 C 0.85921 0.81189 1.00401 0.0
C96 C 0.83923 0.75147 1.03487 0.0
C97 C 0.83096 0.75949 0.08022 0.0
C98 C 0.68413 0.97178 0.19779 0.0
C99 C 0.8236 0.09099 0.12915 0.0
O100 O 0.75426 0.11234 0.27734 0.0
O101 O 0.85451 0.1805 0.26619 0.0
O102 O 0.91174 0.00113 0.24288 0.0
O103 O 0.94199 0.11316 0.2321 0.0
O104 O 0.83698 -0.01914 0.3077 0.0
O105 O 0.83529 0.87886 0.27241 0.0
O106 O 0.88195 0.8586 0.17651 0.0
O107 O 0.76542 0.86079 0.13826 0.0
O108 O 0.73753 0.01368 0.18741 0.0
O109 O 0.69858 0.90558 0.20542 0.0
O110 O 0.84538 0.02652 0.13801 0.0
O111 O 0.79904 0.11689 0.1607 0.0
H112 H 0.7301 0.25904 0.31955 0.0
H113 H 0.75754 0.28745 0.40343 0.0
H114 H 0.93368 0.15283 0.44675 0.0
H115 H 0.90612 0.12419 0.36319 0.0
H116 H 0.87262 0.94212 0.07622 0.0
H117 H 0.88754 0.92794 0.99624 0.0
H118 H 0.82863 0.69815 1.02339 0.0
H119 H 0.81401 0.71215 0.10298 0.0
Sm120 Sm 0.96826 0.75384 0.62483 0.0
Sm121 Sm 0.10684 0.80284 0.58948 0.0
C122 C 0.87427 0.69543 0.67719 0.0
C123 C 0.86648 0.71238 0.72392 0.0
C124 C 0.88333 0.66308 0.76614 0.0
C125 C 0.88211 0.68099 0.8111 0.0
C126 C 0.86419 0.74864 0.81475 0.0
C127 C 0.84644 0.79763 0.77262 0.0
C128 C 0.84712 0.7796 0.72767 0.0
C129 C 1.00577 0.90108 0.617 0.0
C130 C 0.13339 0.78245 0.70438 0.0
C131 C 0.20734 0.8641 0.54282 0.0
C132 C 0.21584 0.86796 0.4931 0.0
C133 C 0.19095 0.92479 0.45753 0.0
C134 C 0.20036 0.92919 0.41092 0.0
C135 C 0.23488 0.87703 0.39915 0.0
C136 C 0.25923 0.81989 0.43419 0.0
C137 C 0.24997 0.81546 0.48087 0.0
C138 C 0.07425 0.65492 0.60714 0.0
C139 C 0.94249 0.79134 0.51011 0.0
O140 O 0.93422 0.6677 0.6794 0.0
O141 O 0.85744 0.74357 0.63932 0.0
O142 O 0.05031 0.855 0.63164 0.0
O143 O 0.93834 0.86928 0.60519 0.0
O144 O 0.06508 0.74785 0.69525 0.0
O145 O 0.16213 0.816 0.669 0.0
O146 O 0.15593 0.89832 0.5482 0.0
O147 O 0.21129 0.80144 0.56942 0.0
O148 O 0.02784 0.69864 0.58677 0.0
O149 O 0.14048 0.68999 0.61673 0.0
O150 O 0.01213 0.82135 0.52066 0.0
O151 O 0.91281 0.75071 0.54325 0.0
H152 H 0.89859 0.61104 0.76447 0.0
H153 H 0.8958 0.64235 0.84318 0.0
H154 H 0.83245 0.85006 0.77463 0.0
H155 H 0.83411 0.81919 0.69608 0.0
H156 H 0.16492 0.96633 0.4658 0.0
H157 H 0.18194 0.97401 0.38423 0.0
H158 H 0.28674 0.77973 0.42565 0.0
H159 H 0.2703 0.77132 0.50748 0.0
C160 C 0.02718 0.96979 0.20302 0.0
C161 C 0.01625 0.04048 0.20651 0.0
C162 C 0.05865 0.08327 0.13334 0.0
C163 C 0.0694 0.01253 0.12979 0.0
N164 N 0.03408 0.88469 0.15371 0.0
N165 N 0.05141 0.16833 0.1826 0.0
C166 C 0.04499 0.95484 0.16201 0.0
C167 C 0.04068 0.09819 0.17431 0.0
N168 N 0.02313 0.91536 0.23933 0.0
N169 N 0.06292 0.13776 0.0971 0.0
H170 H 0.04988 0.18491 0.21495 0.0
H171 H 0.04988 0.18491 0.21495 0.0
H172 H 0.06828 0.12939 0.06352 0.0
H173 H 0.06828 0.12939 0.06352 0.0
H174 H 0.0179 0.92382 0.27292 0.0
H175 H 0.0179 0.92382 0.27292 0.0
H176 H 0.03535 0.86806 0.12131 0.0
H177 H 0.03535 0.86806 0.12131 0.0
C178 C 0.04802 0.03196 0.61919 0.0
C179 C 0.02102 0.96555 0.6421 0.0
C180 C 0.03729 0.01897 0.71697 0.0
C181 C 0.06413 0.08541 0.69401 0.0
N182 N 0.08689 0.15973 0.62199 0.0
N183 N 0.99795 0.89125 0.71404 0.0
C184 C 0.06794 0.09311 0.64486 0.0
C185 C 0.01719 0.95785 0.69125 0.0
N186 N 0.05712 0.03564 0.5735 0.0
N187 N 0.02854 0.01523 0.76275 0.0
H188 H 0.97913 0.84546 0.69623 0.0
H189 H 1.00432 0.87977 0.75126 0.0
H190 H 0.046 0.05834 0.7834 0.0
H191 H 1.00063 0.97115 0.77963 0.0
H192 H 0.08526 0.0797 0.55675 0.0
H193 H 0.03983 -0.00748 0.55286 0.0
H194 H 0.08035 0.17111 0.58474 0.0
H195 H 0.10551 0.2056 0.63972 0.0
C196 C 0.56476 -0.00867 0.13535 0.0
C197 C 0.6084 -0.00685 0.18388 0.0
C198 C 0.52063 0.06091 0.20096 0.0
C199 C 0.47703 0.05916 0.15242 0.0
N200 N 0.46469 0.0376 0.07085 0.0
N201 N 0.62059 0.0145 0.26546 0.0
C202 C 0.50094 0.02816 0.11892 0.0
C203 C 0.58443 0.02406 0.21739 0.0
N204 N 0.58246 0.95154 0.10569 0.0
N205 N 0.50289 0.10062 0.23065 0.0
H206 H 0.66679 -0.01314 0.27808 0.0
H207 H 0.60187 0.02838 0.29295 0.0
H208 H 0.45705 0.129 0.21956 0.0
H209 H 0.53653 0.11048 0.2648 0.0
H210 H 0.54876 0.94159 0.07156 0.0
H211 H 0.62836 0.92325 0.11676 0.0
H212 H 0.48337 0.02364 0.04336 0.0
H213 H 0.41846 0.0652 0.05822 0.0
C214 C 0.10144 0.4957 0.70376 0.0
C215 C 0.02726 0.46847 0.70401 0.0
C216 C 0.98237 0.5548 0.63307 0.0
C217 C 0.05658 0.58192 0.6328 0.0
N218 N 0.18309 0.55531 0.65468 0.0
N219 N 0.90068 0.49485 0.68208 0.0
C220 C 0.11535 0.54596 0.66443 0.0
C221 C 0.96844 0.50437 0.67236 0.0
N222 N 0.15851 0.47743 0.74256 0.0
N223 N 0.9253 0.57331 0.59436 0.0
H224 H 0.89163 0.46662 0.71439 0.0
H225 H 0.85743 0.52383 0.66211 0.0
H226 H 0.93428 0.60288 0.56241 0.0
H227 H 0.87036 0.5505 0.59116 0.0
H228 H 0.21341 0.50035 0.74574 0.0
H229 H 0.14951 0.44797 0.77453 0.0
H230 H 0.2263 0.52632 0.6747 0.0
H231 H 0.19214 0.5834 0.62233 0.0
C232 C 0.1532 0.27006 0.43735 0.0
C233 C 0.22118 0.28444 0.47302 0.0
C234 C 0.28993 0.25711 0.41884 0.0
C235 C 0.22296 0.25043 0.3814 0.0
N236 N 0.09127 0.25577 0.35285 0.0
N237 N 0.35508 0.3014 0.49566 0.0
C238 C 0.15456 0.25814 0.39011 0.0
C239 C 0.2898 0.28022 0.46329 0.0
N240 N 0.08738 0.2659 0.44913 0.0
N241 N 0.35355 0.24008 0.41213 0.0
H242 H 0.35746 0.3191 0.52846 0.0
H243 H 0.40672 0.30733 0.48836 0.0
H244 H 0.3559 0.22361 0.37992 0.0
H245 H 0.40229 0.2361 0.43973 0.0
H246 H 0.03603 0.24967 0.42633 0.0
H247 H 0.08421 0.27356 0.48338 0.0
H248 H 0.04108 0.26891 0.35498 0.0
H249 H 0.08992 0.24475 0.31839 0.0
C250 C 0.88488 0.19992 1.02352 0.0
C251 C 0.83403 0.16578 0.98488 0.0
C252 C 0.76448 0.09698 0.04054 0.0
C253 C 0.81738 0.12824 0.07955 0.0
N254 N 0.91471 0.22219 0.1078 0.0
N255 N 0.71567 0.09711 0.9535 0.0
C256 C 0.87314 0.18437 0.07081 0.0
C257 C 0.77041 0.11932 0.99244 0.0
N258 N 0.94592 0.24443 1.01533 0.0
N259 N 0.71019 0.04393 0.04997 0.0
H260 H 0.71865 0.11244 0.91774 0.0
H261 H 0.66472 0.06853 0.95609 0.0
H262 H 0.70153 0.03037 0.08449 0.0
H263 H 0.67576 0.01179 1.02445 0.0
H264 H 0.98948 0.26483 0.04273 0.0
H265 H 0.95491 0.25826 0.98087 0.0
H266 H 0.95276 0.26747 0.10337 0.0
H267 H 0.90637 0.21158 0.14254 0.0
C268 C 0.84577 0.85295 0.44458 0.0
C269 C 0.89969 0.80453 0.45864 0.0
C270 C 0.91052 0.81802 0.37507 0.0
C271 C 0.85613 0.86709 0.36039 0.0
N272 N 0.75474 0.90937 0.37876 0.0
N273 N 0.96556 0.72402 0.43554 0.0
C274 C 0.81847 0.87788 0.39449 0.0
C275 C 0.92569 0.78131 0.42308 0.0
N276 N 0.82283 0.87769 0.47909 0.0
N277 N 0.95187 0.80963 0.34495 0.0
H278 H 0.97711 0.69628 0.47052 0.0
H279 H 0.98004 0.69942 0.41036 0.0
H280 H 0.94437 0.83415 0.30956 0.0
H281 H 0.99832 0.78221 0.35643 0.0
H282 H 0.79105 0.92016 0.47151 0.0
H283 H 0.8392 0.85839 0.51582 0.0
H284 H 0.72147 0.91345 0.40121 0.0
H285 H 0.7305 0.92301 0.34209 0.0
C286 C 0.20129 0.86294 0.76906 0.0
C287 C 0.17202 0.79267 0.75549 0.0
C288 C 0.18662 0.74492 0.84103 0.0
C289 C 0.22027 0.81392 0.85437 0.0
N290 N 0.27887 0.93262 0.83208 0.0
N291 N 0.156 0.66416 0.77932 0.0
C292 C 0.23416 0.87085 0.81865 0.0
C293 C 0.1709 0.73272 0.7918 0.0
N294 N 0.19301 0.92305 0.73579 0.0
N295 N 0.16631 0.69211 0.8747 0.0
H296 H 0.14687 0.65332 0.74371 0.0
H297 H 0.16064 0.61836 0.80476 0.0
H298 H 0.17594 0.69915 0.91108 0.0
H299 H 0.13421 0.64358 0.86566 0.0
H300 H 0.20563 -0.02478 0.74553 0.0
H301 H 0.16646 0.92216 0.69919 0.0
H302 H 0.2966 0.97301 0.80728 0.0
H303 H 0.30444 0.9401 0.86825 0.0
C304 C 0.93059 0.79578 0.94531 0.0
C305 C 0.86211 0.80244 0.95433 0.0
C306 C 0.79505 0.77153 0.87272 0.0
C307 C 0.86369 0.76827 0.8627 0.0
N308 N 0.99743 0.78889 0.88593 0.0
N309 N 0.73108 0.81082 0.9241 0.0
C310 C 0.93175 0.78378 0.89805 0.0
C311 C 0.79492 0.79471 0.91716 0.0
N312 N 0.99417 0.79919 0.98232 0.0
N313 N 0.72981 0.74939 0.84066 0.0
H314 H 0.72875 0.82735 0.95629 0.0
H315 H 0.68204 0.81401 0.89666 0.0
H316 H 0.72744 0.73167 0.80787 0.0
H317 H 0.67829 0.74273 0.84822 0.0
H318 H 0.04457 0.78684 0.97999 0.0
H319 H 0.99563 0.81027 1.01679 0.0
H320 H 0.04871 0.80604 0.90845 0.0
H321 H 1.00044 0.78113 0.85167 0.0
C322 C 0.31957 0.95639 0.29551 0.0
C323 C 0.26742 0.92449 0.25646 0.0
C324 C 0.20043 0.85155 0.31236 0.0
C325 C 0.25058 0.88612 0.35105 0.0
N326 N 0.3674 0.95721 0.38254 0.0
N327 N 0.17116 0.82973 0.22802 0.0
C328 C 0.3135 0.93385 0.34357 0.0
C329 C 0.21219 0.86768 0.2651 0.0
N330 N 0.37324 0.01022 0.28614 0.0
N331 N 0.14006 0.80588 0.32055 0.0
H332 H 0.17941 0.84076 0.19328 0.0
H333 H 0.13356 0.78403 0.23237 0.0
H334 H 0.13137 0.79133 0.35506 0.0
H335 H 0.09676 0.78513 0.29315 0.0
H336 H 0.40695 0.0428 0.31163 0.0
H337 H 0.38214 0.024 0.2517 0.0
H338 H 0.41802 -0.01332 0.38008 0.0
H339 H 0.36414 0.94224 0.41827 0.0
C340 C 0.23951 0.19874 0.89139 0.0
C341 C 0.18567 0.24723 0.87729 0.0
C342 C 0.17528 0.23444 0.96092 0.0
C343 C 0.2295 0.18519 0.97562 0.0
N344 N 0.33062 0.14244 0.95723 0.0
N345 N 0.12024 0.32827 0.90027 0.0
C346 C 0.26695 0.17405 0.9415 0.0
C347 C 0.15997 0.27088 0.91284 0.0
N348 N 0.26225 0.17372 0.8569 0.0
N349 N 0.13419 0.24325 0.9911 0.0
H350 H 0.10858 0.35576 0.86522 0.0
H351 H 0.106 0.35317 0.9254 0.0
H352 H 0.14171 0.21887 1.02652 0.0
H353 H 0.08791 0.27091 0.97964 0.0
H354 H 0.29395 0.13119 0.86453 0.0
H355 H 0.24578 0.19289 0.82015 0.0
H356 H 0.36373 0.13809 0.93475 0.0
H357 H 0.35496 0.12895 0.9939 0.0
C358 C 0.89677 0.30684 0.49519 0.0
C359 C 0.86401 0.23771 0.48171 0.0
C360 C 0.88373 0.18804 0.56695 0.0
C361 C 0.91238 0.25833 0.58068 0.0
N362 N 0.92689 0.38698 0.55725 0.0
N363 N 0.80689 0.11823 0.50377 0.0
C364 C 0.91266 0.31858 0.54452 0.0
C365 C 0.85086 0.1803 0.51734 0.0
N366 N 0.91608 0.36026 0.46152 0.0
N367 N 0.89258 0.12782 0.60008 0.0
H368 H 0.78139 0.11085 0.46758 0.0
H369 H 0.78962 0.07739 0.52849 0.0
H370 H 0.91901 0.12863 0.6367 0.0
H371 H 0.88051 0.07572 0.59022 0.0
H372 H 0.9476 0.40903 0.4706 0.0
H373 H 0.90616 0.35361 0.42505 0.0
H374 H 0.92159 0.43292 0.53197 0.0
H375 H 0.93617 0.39744 0.59296 0.0
loop_
_geom_bond_atom_site_label_1
_geom_bond_atom_site_label_2
_geom_bond_distance
_geom_bond_site_symmetry_2
_ccdc_geom_bond_type
Sm0 C2 2.846 . S
Sm0 O20 2.543 . S
Sm0 O21 2.450 . S
Sm0 O22 2.681 . S
Sm0 O23 2.464 . S
Sm0 O24 2.396 . S
Sm0 O28 2.386 . S
Sm0 O31 2.408 . S
Sm1 C11 2.846 1_544 S
Sm1 O22 2.386 . S
Sm1 O25 2.408 1_545 S
Sm1 O26 2.560 1_545 S
Sm1 O27 2.450 1_544 S
Sm1 O28 2.681 . S
Sm1 O29 2.464 . S
Sm1 O30 2.396 . S
C2 Sm0 2.846 . S
C2 C3 1.506 . S
C2 O20 1.261 . S
C2 O21 1.242 . S
C3 C2 1.506 . S
C3 C4 1.358 . S
C3 C8 1.382 . S
C4 C3 1.358 . S
C4 C5 1.385 . S
C4 H32 0.930 . S
C5 C4 1.385 . S
C5 C6 1.395 . S
C5 H33 0.929 . S
C6 C5 1.395 . S
C6 C7 1.335 . S
C7 C6 1.335 . S
C7 C8 1.398 . S
C7 H34 0.930 . S
C8 C3 1.382 . S
C8 C7 1.398 . S
C8 H35 0.929 . S
C9 O22 1.271 . S
C9 O23 1.251 . S
C10 O24 1.252 . S
C10 O25 1.272 1_545 S
C11 Sm1 2.846 1_566 S
C11 C12 1.506 . S
C11 O26 1.255 1_556 S
C11 O27 1.242 . S
C12 C11 1.506 . S
C12 C13 1.358 . S
C12 C17 1.382 . S
C13 C12 1.358 . S
C13 C14 1.385 . S
C13 H36 0.930 . S
C14 C13 1.385 . S
C14 C15 1.395 . S
C14 H37 0.929 . S
C15 C14 1.395 . S
C15 C16 1.335 . S
C16 C15 1.335 . S
C16 C17 1.398 . S
C16 H38 0.930 . S
C17 C12 1.382 . S
C17 C16 1.398 . S
C17 H39 0.929 . S
C18 O28 1.271 . S
C18 O29 1.251 . S
C19 O30 1.252 . S
C19 O31 1.272 . S
O20 Sm0 2.543 . S
O20 C2 1.261 . S
O21 Sm0 2.450 . S
O21 C2 1.242 . S
O22 Sm0 2.681 . S
O22 Sm1 2.386 . S
O22 C9 1.271 . S
O23 Sm0 2.464 . S
O23 C9 1.251 . S
O24 Sm0 2.396 . S
O24 C10 1.252 . S
O25 Sm1 2.408 1_565 S
O25 C10 1.272 1_565 S
O26 Sm1 2.560 1_565 S
O26 C11 1.255 1_554 S
O27 Sm1 2.450 1_566 S
O27 C11 1.242 . S
O28 Sm0 2.386 . S
O28 Sm1 2.681 . S
O28 C18 1.271 . S
O29 Sm1 2.464 . S
O29 C18 1.251 . S
O30 Sm1 2.396 . S
O30 C19 1.252 . S
O31 Sm0 2.408 . S
O31 C19 1.272 . S
H32 C4 0.930 . S
H33 C5 0.929 . S
H34 C7 0.930 . S
H35 C8 0.929 . S
H36 C13 0.930 . S
H37 C14 0.929 . S
H38 C16 0.930 . S
H39 C17 0.929 . S
Sm40 C42 2.846 . S
Sm40 O60 2.543 . S
Sm40 O61 2.450 . S
Sm40 O62 2.681 1_655 S
Sm40 O63 2.464 . S
Sm40 O64 2.396 1_655 S
Sm40 O68 2.386 1_655 S
Sm40 O71 2.408 . S
Sm41 C51 2.846 . S
Sm41 O62 2.386 . S
Sm41 O65 2.408 . S
Sm41 O66 2.543 . S
Sm41 O67 2.450 . S
Sm41 O68 2.681 . S
Sm41 O69 2.464 . S
Sm41 O70 2.396 . S
C42 Sm40 2.846 . S
C42 C43 1.506 . S
C42 O60 1.261 . S
C42 O61 1.242 . S
C43 C42 1.506 . S
C43 C44 1.358 . S
C43 C48 1.382 . S
C44 C43 1.358 . S
C44 C45 1.385 . S
C44 H72 0.930 . S
C45 C44 1.385 . S
C45 C46 1.395 . S
C45 H73 0.929 . S
C46 C45 1.395 . S
C46 C47 1.335 . S
C47 C46 1.335 . S
C47 C48 1.398 . S
C47 H74 0.930 . S
C48 C43 1.382 . S
C48 C47 1.398 . S
C48 H75 0.929 . S
C49 O62 1.271 . S
C49 O63 1.251 1_455 S
C50 O64 1.252 . S
C50 O65 1.272 . S
C51 Sm41 2.846 . S
C51 C52 1.506 . S
C51 O66 1.261 . S
C51 O67 1.242 . S
C52 C51 1.506 . S
C52 C53 1.358 . S
C52 C57 1.382 . S
C53 C52 1.358 . S
C53 C54 1.385 . S
C53 H76 0.930 . S
C54 C53 1.385 . S
C54 C55 1.395 . S
C54 H77 0.929 . S
C55 C54 1.395 . S
C55 C56 1.335 . S
C56 C55 1.335 . S
C56 C57 1.398 . S
C56 H78 0.930 . S
C57 C52 1.382 . S
C57 C56 1.398 . S
C57 H79 0.929 . S
C58 O68 1.271 . S
C58 O69 1.251 . S
C59 O70 1.252 1_655 S
C59 O71 1.272 . S
O60 Sm40 2.543 . S
O60 C42 1.261 . S
O61 Sm40 2.450 . S
O61 C42 1.242 . S
O62 Sm40 2.681 1_455 S
O62 Sm41 2.386 . S
O62 C49 1.271 . S
O63 Sm40 2.464 . S
O63 C49 1.251 1_655 S
O64 Sm40 2.396 1_455 S
O64 C50 1.252 . S
O65 Sm41 2.408 . S
O65 C50 1.272 . S
O66 Sm41 2.543 . S
O66 C51 1.261 . S
O67 Sm41 2.450 . S
O67 C51 1.242 . S
O68 Sm40 2.386 1_455 S
O68 Sm41 2.681 . S
O68 C58 1.271 . S
O69 Sm41 2.464 . S
O69 C58 1.251 . S
O70 Sm41 2.396 . S
O70 C59 1.252 1_455 S
O71 Sm40 2.408 . S
O71 C59 1.272 . S
H72 C44 0.930 . S
H73 C45 0.929 . S
H74 C47 0.930 . S
H75 C48 0.929 . S
H76 C53 0.930 . S
H77 C54 0.929 . S
H78 C56 0.930 . S
H79 C57 0.929 . S
Sm80 C82 2.846 . S
Sm80 O100 2.543 . S
Sm80 O101 2.450 . S
Sm80 O102 2.681 1_545 S
Sm80 O103 2.464 . S
Sm80 O104 2.396 1_545 S
Sm80 O108 2.386 . S
Sm80 O111 2.408 . S
Sm81 C91 2.846 . S
Sm81 O102 2.386 . S
Sm81 O105 2.408 . S
Sm81 O106 2.543 . S
Sm81 O107 2.450 . S
Sm81 O108 2.681 1_565 S
Sm81 O109 2.464 . S
Sm81 O110 2.396 1_565 S
C82 Sm80 2.846 . S
C82 C83 1.506 . S
C82 O100 1.261 . S
C82 O101 1.242 . S
C83 C82 1.506 . S
C83 C84 1.358 . S
C83 C88 1.382 . S
C84 C83 1.358 . S
C84 C85 1.385 . S
C84 H112 0.930 . S
C85 C84 1.385 . S
C85 C86 1.395 . S
C85 H113 0.929 . S
C86 C85 1.395 . S
C86 C87 1.335 . S
C87 C86 1.335 . S
C87 C88 1.398 . S
C87 H114 0.930 . S
C88 C83 1.382 . S
C88 C87 1.398 . S
C88 H115 0.929 . S
C89 O102 1.271 1_545 S
C89 O103 1.251 . S
C90 O104 1.252 . S
C90 O105 1.272 . S
C91 Sm81 2.846 . S
C91 C92 1.506 . S
C91 O106 1.261 . S
C91 O107 1.242 . S
C92 C91 1.506 . S
C92 C93 1.358 1_554 S
C92 C97 1.382 1_554 S
C93 C92 1.358 1_556 S
C93 C94 1.385 . S
C93 H116 0.930 1_556 S
C94 C93 1.385 . S
C94 C95 1.395 . S
C94 H117 0.929 . S
C95 C94 1.395 . S
C95 C96 1.335 . S
C96 C95 1.335 . S
C96 C97 1.398 . S
C96 H118 0.930 . S
C97 C92 1.382 1_556 S
C97 C96 1.398 . S
C97 H119 0.929 1_556 S
C98 O108 1.271 1_565 S
C98 O109 1.251 . S
C99 O110 1.252 . S
C99 O111 1.272 . S
O100 Sm80 2.543 . S
O100 C82 1.261 . S
O101 Sm80 2.450 . S
O101 C82 1.242 . S
O102 Sm80 2.681 1_565 S
O102 Sm81 2.386 . S
O102 C89 1.271 1_565 S
O103 Sm80 2.464 . S
O103 C89 1.251 . S
O104 Sm80 2.396 1_565 S
O104 C90 1.252 . S
O105 Sm81 2.408 . S
O105 C90 1.272 . S
O106 Sm81 2.543 . S
O106 C91 1.261 . S
O107 Sm81 2.450 . S
O107 C91 1.242 . S
O108 Sm80 2.386 . S
O108 Sm81 2.681 1_545 S
O108 C98 1.271 1_545 S
O109 Sm81 2.464 . S
O109 C98 1.251 . S
O110 Sm81 2.396 1_545 S
O110 C99 1.252 . S
O111 Sm80 2.408 . S
O111 C99 1.272 . S
H112 C84 0.930 . S
H113 C85 0.929 . S
H114 C87 0.930 . S
H115 C88 0.929 . S
H116 C93 0.930 1_554 S
H117 C94 0.929 . S
H118 C96 0.930 . S
H119 C97 0.929 1_554 S
Sm120 C122 2.846 . S
Sm120 O140 2.543 . S
Sm120 O141 2.450 . S
Sm120 O142 2.681 1_655 S
Sm120 O143 2.464 . S
Sm120 O144 2.396 1_655 S
Sm120 O148 2.386 1_655 S
Sm120 O151 2.408 . S
Sm121 C131 2.846 . S
Sm121 O142 2.386 . S
Sm121 O145 2.408 . S
Sm121 O146 2.543 . S
Sm121 O147 2.450 . S
Sm121 O148 2.681 . S
Sm121 O149 2.464 . S
Sm121 O150 2.396 . S
C122 Sm120 2.846 . S
C122 C123 1.506 . S
C122 O140 1.261 . S
C122 O141 1.242 . S
C123 C122 1.506 . S
C123 C124 1.358 . S
C123 C128 1.382 . S
C124 C123 1.358 . S
C124 C125 1.385 . S
C124 H152 0.930 . S
C125 C124 1.385 . S
C125 C126 1.395 . S
C125 H153 0.929 . S
C126 C125 1.395 . S
C126 C127 1.335 . S
C127 C126 1.335 . S
C127 C128 1.398 . S
C127 H154 0.930 . S
C128 C123 1.382 . S
C128 C127 1.398 . S
C128 H155 0.929 . S
C129 O142 1.271 . S
C129 O143 1.251 1_455 S
C130 O144 1.252 . S
C130 O145 1.272 . S
C131 Sm121 2.846 . S
C131 C132 1.506 . S
C131 O146 1.261 . S
C131 O147 1.242 . S
C132 C131 1.506 . S
C132 C133 1.358 . S
C132 C137 1.382 . S
C133 C132 1.358 . S
C133 C134 1.385 . S
C133 H156 0.930 . S
C134 C133 1.385 . S
C134 C135 1.395 . S
C134 H157 0.929 1_565 S
C135 C134 1.395 . S
C135 C136 1.335 . S
C136 C135 1.335 . S
C136 C137 1.398 . S
C136 H158 0.930 . S
C137 C132 1.382 . S
C137 C136 1.398 . S
C137 H159 0.929 . S
C138 O148 1.271 . S
C138 O149 1.251 . S
C139 O150 1.252 1_655 S
C139 O151 1.272 . S
O140 Sm120 2.543 . S
O140 C122 1.261 . S
O141 Sm120 2.450 . S
O141 C122 1.242 . S
O142 Sm120 2.681 1_455 S
O142 Sm121 2.386 . S
O142 C129 1.271 . S
O143 Sm120 2.464 . S
O143 C129 1.251 1_655 S
O144 Sm120 2.396 1_455 S
O144 C130 1.252 . S
O145 Sm121 2.408 . S
O145 C130 1.272 . S
O146 Sm121 2.543 . S
O146 C131 1.261 . S
O147 Sm121 2.450 . S
O147 C131 1.242 . S
O148 Sm120 2.386 1_455 S
O148 Sm121 2.681 . S
O148 C138 1.271 . S
O149 Sm121 2.464 . S
O149 C138 1.251 . S
O150 Sm121 2.396 . S
O150 C139 1.252 1_455 S
O151 Sm120 2.408 . S
O151 C139 1.272 . S
H152 C124 0.930 . S
H153 C125 0.929 . S
H154 C127 0.930 . S
H155 C128 0.929 . S
H156 C133 0.930 . S
H157 C134 0.929 1_545 S
H158 C136 0.930 . S
H159 C137 0.929 . S
C160 C161 1.363 . S
C160 C166 1.379 . S
C160 N168 1.356 1_545 S
C161 C160 1.363 . S
C161 C167 1.363 1_455 S
C162 C163 1.363 . S
C162 C167 1.379 1_455 S
C162 N169 1.356 1_455 S
C163 C162 1.363 . S
C163 C166 1.363 . S
N164 C166 1.356 . S
N164 H176 0.984 . S
N164 H177 0.985 . S
N165 C167 1.356 . S
N165 H170 0.984 . S
N165 H171 0.985 . S
C166 C160 1.379 . S
C166 C163 1.363 . S
C166 N164 1.356 . S
C167 C161 1.363 1_655 S
C167 C162 1.379 1_655 S
C167 N165 1.356 . S
N168 C160 1.356 1_565 S
N168 H174 0.984 . S
N168 H175 0.984 . S
N169 C162 1.356 1_655 S
N169 H172 0.984 1_655 S
N169 H173 0.985 . S
H170 N165 0.984 . S
H171 N165 0.985 . S
H172 N169 0.984 1_455 S
H173 N169 0.985 . S
H174 N168 0.984 . S
H175 N168 0.984 . S
H176 N164 0.984 . S
H177 N164 0.985 . S
C178 C179 1.363 . S
C178 C184 1.379 . S
C178 N186 1.356 . S
C179 C178 1.363 . S
C179 C185 1.363 1_545 S
C180 C181 1.363 . S
C180 C185 1.379 1_545 S
C180 N187 1.361 1_545 S
C181 C180 1.363 . S
C181 C184 1.363 . S
N182 C184 1.356 . S
N182 H194 0.984 . S
N182 H195 0.985 . S
N183 C185 1.356 1_655 S
N183 H188 0.984 . S
N183 H189 0.985 . S
C184 C178 1.379 . S
C184 C181 1.363 . S
C184 N182 1.356 . S
C185 C179 1.363 1_565 S
C185 C180 1.379 1_565 S
C185 N183 1.356 1_455 S
N186 C178 1.356 . S
N186 H192 0.984 . S
N186 H193 0.984 . S
N187 C180 1.361 1_565 S
N187 H190 0.983 1_565 S
N187 H191 0.981 1_455 S
H188 N183 0.984 . S
H189 N183 0.985 . S
H190 N187 0.983 1_545 S
H191 N187 0.981 1_655 S
H192 N186 0.984 . S
H193 N186 0.984 . S
H194 N182 0.984 . S
H195 N182 0.985 . S
C196 C197 1.363 . S
C196 C202 1.379 . S
C196 N204 1.356 1_545 S
C197 C196 1.363 . S
C197 C203 1.363 . S
C198 C199 1.363 . S
C198 C203 1.379 . S
C198 N205 1.356 . S
C199 C198 1.363 . S
C199 C202 1.363 . S
N200 C202 1.356 . S
N200 H212 0.984 . S
N200 H213 0.985 . S
N201 C203 1.356 . S
N201 H206 0.984 . S
N201 H207 0.985 . S
C202 C196 1.379 . S
C202 C199 1.363 . S
C202 N200 1.356 . S
C203 C197 1.363 . S
C203 C198 1.379 . S
C203 N201 1.356 . S
N204 C196 1.356 1_565 S
N204 H210 0.984 . S
N204 H211 0.984 . S
N205 C198 1.356 . S
N205 H208 0.984 . S
N205 H209 0.985 . S
H206 N201 0.984 . S
H207 N201 0.985 . S
H208 N205 0.984 . S
H209 N205 0.985 . S
H210 N204 0.984 . S
H211 N204 0.984 . S
H212 N200 0.984 . S
H213 N200 0.985 . S
C214 C215 1.363 . S
C214 C220 1.379 . S
C214 N222 1.356 . S
C215 C214 1.363 . S
C215 C221 1.363 . S
C216 C217 1.363 1_655 S
C216 C221 1.379 1_655 S
C216 N223 1.356 . S
C217 C216 1.363 1_455 S
C217 C220 1.363 . S
N218 C220 1.356 . S
N218 H230 0.984 . S
N218 H231 0.985 . S
N219 C221 1.356 1_655 S
N219 H224 0.984 1_655 S
N219 H225 0.985 . S
C220 C214 1.379 . S
C220 C217 1.363 . S
C220 N218 1.356 . S
C221 C215 1.363 . S
C221 C216 1.379 1_455 S
C221 N219 1.356 1_455 S
N222 C214 1.356 . S
N222 H228 0.984 . S
N222 H229 0.984 . S
N223 C216 1.356 . S
N223 H226 0.984 . S
N223 H227 0.985 . S
H224 N219 0.984 1_455 S
H225 N219 0.985 . S
H226 N223 0.984 . S
H227 N223 0.985 . S
H228 N222 0.984 . S
H229 N222 0.984 . S
H230 N218 0.984 . S
H231 N218 0.985 . S
C232 C233 1.363 . S
C232 C238 1.379 . S
C232 N240 1.356 . S
C233 C232 1.363 . S
C233 C239 1.363 . S
C234 C235 1.363 . S
C234 C239 1.379 . S
C234 N241 1.356 . S
C235 C234 1.363 . S
C235 C238 1.363 . S
N236 C238 1.356 . S
N236 H248 0.984 . S
N236 H249 0.985 . S
N237 C239 1.356 . S
N237 H242 0.984 . S
N237 H243 0.985 . S
C238 C232 1.379 . S
C238 C235 1.363 . S
C238 N236 1.356 . S
C239 C233 1.363 . S
C239 C234 1.379 . S
C239 N237 1.356 . S
N240 C232 1.356 . S
N240 H246 0.984 . S
N240 H247 0.984 . S
N241 C234 1.356 . S
N241 H244 0.984 . S
N241 H245 0.985 . S
H242 N237 0.984 . S
H243 N237 0.985 . S
H244 N241 0.984 . S
H245 N241 0.985 . S
H246 N240 0.984 . S
H247 N240 0.984 . S
H248 N236 0.984 . S
H249 N236 0.985 . S
C250 C251 1.363 . S
C250 C256 1.379 1_556 S
C250 N258 1.356 . S
C251 C250 1.363 . S
C251 C257 1.363 . S
C252 C253 1.367 . S
C252 C257 1.373 1_554 S
C252 N259 1.360 . S
C253 C252 1.367 . S
C253 C256 1.363 . S
N254 C256 1.356 . S
N254 H266 0.984 . S
N254 H267 0.985 . S
N255 C257 1.356 . S
N255 H260 0.984 . S
N255 H261 0.985 . S
C256 C250 1.379 1_554 S
C256 C253 1.363 . S
C256 N254 1.356 . S
C257 C251 1.363 . S
C257 C252 1.373 1_556 S
C257 N255 1.356 . S
N258 C250 1.356 . S
N258 H264 0.984 . S
N258 H265 0.984 . S
N259 C252 1.360 . S
N259 H262 0.984 . S
N259 H263 0.985 1_554 S
H260 N255 0.984 . S
H261 N255 0.985 . S
H262 N259 0.984 . S
H263 N259 0.985 1_556 S
H264 N258 0.984 . S
H265 N258 0.984 . S
H266 N254 0.984 . S
H267 N254 0.985 . S
C268 C269 1.363 . S
C268 C274 1.379 . S
C268 N276 1.356 . S
C269 C268 1.363 . S
C269 C275 1.363 . S
C270 C271 1.363 . S
C270 C275 1.379 . S
C270 N277 1.356 . S
C271 C270 1.363 . S
C271 C274 1.363 . S
N272 C274 1.356 . S
N272 H284 0.984 1_565 S
N272 H285 0.985 . S
N273 C275 1.356 . S
N273 H278 0.984 . S
N273 H279 0.985 . S
C274 C268 1.379 . S
C274 C271 1.363 . S
C274 N272 1.356 . S
C275 C269 1.363 . S
C275 C270 1.379 . S
C275 N273 1.356 . S
N276 C268 1.356 . S
N276 H282 0.984 . S
N276 H283 0.984 . S
N277 C270 1.356 . S
N277 H280 0.984 . S
N277 H281 0.985 . S
H278 N273 0.984 . S
H279 N273 0.985 . S
H280 N277 0.984 . S
H281 N277 0.985 . S
H282 N276 0.984 . S
H283 N276 0.984 . S
H284 N272 0.984 1_545 S
H285 N272 0.985 . S
C286 C287 1.363 . S
C286 C292 1.379 . S
C286 N294 1.356 . S
C287 C286 1.363 . S
C287 C293 1.363 . S
C288 C289 1.363 . S
C288 C293 1.379 . S
C288 N295 1.356 . S
C289 C288 1.363 . S
C289 C292 1.363 . S
N290 C292 1.356 . S
N290 H302 0.984 1_565 S
N290 H303 0.985 . S
N291 C293 1.356 . S
N291 H296 0.984 . S
N291 H297 0.985 . S
C292 C286 1.379 . S
C292 C289 1.363 . S
C292 N290 1.356 . S
C293 C287 1.363 . S
C293 C288 1.379 . S
C293 N291 1.356 . S
N294 C286 1.356 . S
N294 H300 0.984 . S
N294 H301 0.984 . S
N295 C288 1.356 . S
N295 H298 0.984 . S
N295 H299 0.985 . S
H296 N291 0.984 . S
H297 N291 0.985 . S
H298 N295 0.984 . S
H299 N295 0.985 . S
H300 N294 0.984 . S
H301 N294 0.984 . S
H302 N290 0.984 1_545 S
H303 N290 0.985 . S
C304 C305 1.363 . S
C304 C310 1.379 . S
C304 N312 1.356 . S
C305 C304 1.363 . S
C305 C311 1.363 . S
C306 C307 1.363 . S
C306 C311 1.379 . S
C306 N313 1.356 . S
C307 C306 1.363 . S
C307 C310 1.363 . S
N308 C310 1.356 . S
N308 H320 0.984 . S
N308 H321 0.985 . S
N309 C311 1.356 . S
N309 H314 0.984 . S
N309 H315 0.985 . S
C310 C304 1.379 . S
C310 C307 1.363 . S
C310 N308 1.356 . S
C311 C305 1.363 . S
C311 C306 1.379 . S
C311 N309 1.356 . S
N312 C304 1.356 . S
N312 H318 0.984 . S
N312 H319 0.984 . S
N313 C306 1.356 . S
N313 H316 0.984 . S
N313 H317 0.985 . S
H314 N309 0.984 . S
H315 N309 0.985 . S
H316 N313 0.984 . S
H317 N313 0.985 . S
H318 N312 0.984 . S
H319 N312 0.984 . S
H320 N308 0.984 . S
H321 N308 0.985 . S
C322 C323 1.363 1_545 S
C322 C328 1.379 1_545 S
C322 N330 1.356 . S
C323 C322 1.363 1_565 S
C323 C329 1.363 . S
C324 C325 1.363 . S
C324 C329 1.379 . S
C324 N331 1.356 . S
C325 C324 1.363 . S
C325 C328 1.363 . S
N326 C328 1.356 . S
N326 H338 0.984 1_565 S
N326 H339 0.985 . S
N327 C329 1.356 . S
N327 H332 0.984 . S
N327 H333 0.985 . S
C328 C322 1.379 1_565 S
C328 C325 1.363 . S
C328 N326 1.356 . S
C329 C323 1.363 . S
C329 C324 1.379 . S
C329 N327 1.356 . S
N330 C322 1.356 . S
N330 H336 0.984 . S
N330 H337 0.984 . S
N331 C324 1.356 . S
N331 H334 0.984 . S
N331 H335 0.985 . S
H332 N327 0.984 . S
H333 N327 0.985 . S
H334 N331 0.984 . S
H335 N331 0.985 . S
H336 N330 0.984 . S
H337 N330 0.984 . S
H338 N326 0.984 1_545 S
H339 N326 0.985 . S
C340 C341 1.363 . S
C340 C346 1.379 . S
C340 N348 1.356 . S
C341 C340 1.363 . S
C341 C347 1.363 . S
C342 C343 1.363 . S
C342 C347 1.379 . S
C342 N349 1.356 . S
C343 C342 1.363 . S
C343 C346 1.363 . S
N344 C346 1.356 . S
N344 H356 0.984 . S
N344 H357 0.985 . S
N345 C347 1.356 . S
N345 H350 0.984 . S
N345 H351 0.985 . S
C346 C340 1.379 . S
C346 C343 1.363 . S
C346 N344 1.356 . S
C347 C341 1.363 . S
C347 C342 1.379 . S
C347 N345 1.356 . S
N348 C340 1.356 . S
N348 H354 0.984 . S
N348 H355 0.984 . S
N349 C342 1.356 . S
N349 H352 0.984 . S
N349 H353 0.985 . S
H350 N345 0.984 . S
H351 N345 0.985 . S
H352 N349 0.984 . S
H353 N349 0.985 . S
H354 N348 0.984 . S
H355 N348 0.984 . S
H356 N344 0.984 . S
H357 N344 0.985 . S
C358 C359 1.363 . S
C358 C364 1.379 . S
C358 N366 1.356 . S
C359 C358 1.363 . S
C359 C365 1.363 . S
C360 C361 1.363 . S
C360 C365 1.379 . S
C360 N367 1.356 . S
C361 C360 1.363 . S
C361 C364 1.363 . S
N362 C364 1.356 . S
N362 H374 0.984 . S
N362 H375 0.985 . S
N363 C365 1.356 . S
N363 H368 0.984 . S
N363 H369 0.985 . S
C364 C358 1.379 . S
C364 C361 1.363 . S
C364 N362 1.356 . S
C365 C359 1.363 . S
C365 C360 1.379 . S
C365 N363 1.356 . S
N366 C358 1.356 . S
N366 H372 0.984 . S
N366 H373 0.984 . S
N367 C360 1.356 . S
N367 H370 0.984 . S
N367 H371 0.985 . S
H368 N363 0.984 . S
H369 N363 0.985 . S
H370 N367 0.984 . S
H371 N367 0.985 . S
H372 N366 0.984 . S
H373 N366 0.984 . S
H374 N362 0.984 . S
H375 N362 0.985 . S
C161 C89 1.331 1_455 S
C163 C18 1.331 . S
C179 C129 1.270 1_545 S
C181 C58 1.270 . S
C197 C98 1.315 1_545 S
C199 C9 1.314 . S
C215 C49 1.172 . S
C217 C138 1.172 . S
C233 C55 1.121 . S
C235 C6 1.127 . S
C251 C46 1.623 . S
C253 C99 1.640 . S
C269 C139 2.143 . S
C271 C90 2.074 . S
C287 C130 1.391 . S
C289 C15 1.414 . S
C305 C95 1.127 . S
C307 C126 1.121 . S
C323 C10 1.640 1_565 S
C325 C135 1.623 . S
C341 C50 2.143 . S
C343 C19 2.073 1_556 S
C359 C86 1.414 . S
C361 C59 1.391 . S
