# Generated by pormake.
# Topology uon, (4)-cn, num edge types: 1
# Building blocks:
#     Node 0, Type 0, BuildingBlock: NAWXER_clean_sbu_0, # of connection points: 4
#     Node 1, Type 0, BuildingBlock: NAWXER_clean_sbu_0, # of connection points: 4
#     Node 2, Type 0, BuildingBlock: NAWXER_clean_sbu_0, # of connection points: 4
#     Node 3, Type 0, BuildingBlock: NAWXER_clean_sbu_0, # of connection points: 4
#     Node 4, Type 0, BuildingBlock: NAWXER_clean_sbu_0, # of connection points: 4
#     Node 5, Type 0, BuildingBlock: NAWXER_clean_sbu_0, # of connection points: 4
#     Edge 6, Type (0, 0), BuildingBlock: EZIPEK_clean_linker_0, # of connection points: 2
#     Edge 7, Type (0, 0), BuildingBlock: EZIPEK_clean_linker_0, # of connection points: 2
#     Edge 8, Type (0, 0), BuildingBlock: EZIPEK_clean_linker_0, # of connection points: 2
#     Edge 9, Type (0, 0), BuildingBlock: EZIPEK_clean_linker_0, # of connection points: 2
#     Edge 10, Type (0, 0), BuildingBlock: EZIPEK_clean_linker_0, # of connection points: 2
#     Edge 11, Type (0, 0), BuildingBlock: EZIPEK_clean_linker_0, # of connection points: 2
#     Edge 12, Type (0, 0), BuildingBlock: EZIPEK_clean_linker_0, # of connection points: 2
#     Edge 13, Type (0, 0), BuildingBlock: EZIPEK_clean_linker_0, # of connection points: 2
#     Edge 14, Type (0, 0), BuildingBlock: EZIPEK_clean_linker_0, # of connection points: 2
#     Edge 15, Type (0, 0), BuildingBlock: EZIPEK_clean_linker_0, # of connection points: 2
#     Edge 16, Type (0, 0), BuildingBlock: EZIPEK_clean_linker_0, # of connection points: 2
#     Edge 17, Type (0, 0), BuildingBlock: EZIPEK_clean_linker_0, # of connection points: 2
# Relax obj value: 0.135
# Max RMSD: 0.134
# Mean RMSD: 0.134
data_MOF--net-uon--node1-NAWXER_clean_sbu_0--edge1-EZIPEK_clean_linker_0
_symmetry_space_group_name_H-M    P1
_symmetry_Int_Tables_number       1
_symmetry_cell_setting            triclinic
loop_
_symmetry_equiv_pos_as_xyz
'x, y, z'
_cell_length_a     24.606837
_cell_length_b     24.125986
_cell_length_c     15.292711
_cell_angle_alpha  89.658977
_cell_angle_beta   90.191108
_cell_angle_gamma 120.55035
loop_
_atom_site_label
_atom_site_type_symbol
_atom_site_fract_x
_atom_site_fract_y
_atom_site_fract_z
_atom_type_partial_charge
C0 C 0.11686 0.33922 1.022 0.0
C1 C 0.32545 0.49408 0.89824 0.0
O2 O 0.16147 0.3582 0.07855 0.0
Zn3 Zn 0.26432 0.41931 0.07997 0.0
O4 O 0.13025 0.35719 0.9427 0.0
Zn5 Zn 0.22067 0.41281 0.96017 0.0
O6 O 0.25115 0.34288 0.98006 0.0
O7 O 0.2922 0.36056 0.11138 0.0
O8 O 0.2714 0.46807 0.86255 0.0
O9 O 0.32914 0.47844 0.97756 0.0
O10 O 0.27542 0.48229 0.16705 0.0
O11 O 0.22011 0.48126 0.05315 0.0
C12 C 0.27622 0.32722 0.04232 0.0
C13 C 0.24269 0.50264 0.12956 0.0
C14 C 0.85409 0.17475 0.47378 0.0
C15 C 0.84325 0.35999 0.34283 0.0
O16 O 0.89012 0.23284 0.49864 0.0
Zn17 Zn 0.86246 0.27573 0.41284 0.0
O18 O 0.81872 0.16364 0.40715 0.0
Zn19 Zn 0.79126 0.21011 0.31666 0.0
O20 O 0.82939 0.20622 0.20352 0.0
O21 O 0.90303 0.26793 0.29774 0.0
O22 O 0.80826 0.30394 0.31156 0.0
O23 O 0.88337 0.36766 0.40203 0.0
O24 O 0.76802 0.23334 0.45314 0.0
O25 O 0.70176 0.16863 0.35189 0.0
C26 C 0.88768 0.24311 0.22183 0.0
C27 C 0.71188 0.19431 0.4277 0.0
C28 C 0.72036 0.92468 0.62597 0.0
C29 C 0.5411 0.70964 0.72633 0.0
O30 O 0.71324 0.8704 0.60386 0.0
Zn31 Zn 0.63354 0.81209 0.66878 0.0
O32 O 0.68064 0.92498 0.67921 0.0
Zn33 Zn 0.60074 0.86215 0.7538 0.0
O34 O 0.63485 0.87955 0.87476 0.0
O35 O 0.66859 0.82637 0.79726 0.0
O36 O 0.54497 0.76028 0.75871 0.0
O37 O 0.58214 0.71557 0.67014 0.0
O38 O 0.56843 0.83392 0.60963 0.0
O39 O 0.54014 0.88381 0.70418 0.0
C40 C 0.66684 0.85147 0.86967 0.0
C41 C 0.53653 0.86081 0.628 0.0
C42 C 0.75985 0.72094 0.06704 0.0
C43 C 0.79884 0.5557 0.18719 0.0
O44 O 0.78807 0.70383 1.01189 0.0
Zn45 Zn 0.82376 0.63679 1.00959 0.0
O46 O 0.74816 0.6968 0.14349 0.0
Zn47 Zn 0.77837 0.63845 0.12465 0.0
O48 O 0.87914 0.70542 0.12021 0.0
O49 O 0.91481 0.68987 0.99748 0.0
O50 O 0.769 0.58017 0.22152 0.0
O51 O 0.8202 0.57247 0.10933 0.0
O52 O 0.77638 0.57831 0.91536 0.0
O53 O 0.71532 0.57642 1.02112 0.0
C54 C 0.92609 0.71842 0.07059 0.0
C55 C 0.72115 0.55707 0.94539 0.0
C56 C 0.36021 0.85468 0.37456 0.0
C57 C 0.17552 0.83308 0.21373 0.0
O58 O 0.36474 0.88286 0.30158 0.0
Zn59 Zn 0.27342 0.84974 0.28695 0.0
O60 O 0.30606 0.8186 0.4089 0.0
Zn61 Zn 0.20964 0.78487 0.38943 0.0
O62 O 0.17787 0.69206 0.37535 0.0
O63 O 0.24283 0.7509 0.26962 0.0
O64 O 0.16465 0.80209 0.28576 0.0
O65 O 0.23237 0.86861 0.18823 0.0
O66 O 0.26039 0.89694 0.39419 0.0
O67 O 0.19426 0.82635 0.49016 0.0
C68 C 0.20794 0.69585 0.30555 0.0
C69 C 0.23058 0.88473 0.46663 0.0
C70 C 0.52086 0.34746 0.75419 0.0
C71 C 0.36312 0.12899 0.64347 0.0
O72 O 0.4857 0.33812 0.68768 0.0
Zn73 Zn 0.43893 0.24193 0.6912 0.0
O74 O 0.51668 0.29917 0.79512 0.0
Zn75 Zn 0.46782 0.19784 0.79383 0.0
O76 O 0.53763 0.18311 0.76529 0.0
O77 O 0.51004 0.22263 0.65494 0.0
O78 O 0.39557 0.13105 0.71025 0.0
O79 O 0.3709 0.18152 0.61127 0.0
O80 O 0.39184 0.22614 0.81178 0.0
O81 O 0.42448 0.17997 0.9069 0.0
C82 C 0.54431 0.20123 0.68552 0.0
C83 C 0.39025 0.20422 0.88864 0.0
C84 C 0.34284 0.27562 0.07282 0.0
C85 C 0.29092 0.27421 0.02949 0.0
C86 C 0.28764 0.19385 0.92825 0.0
C87 C 0.34996 0.21198 0.95392 0.0
N88 N 0.43586 0.26674 0.05675 0.0
N89 N 0.19996 0.21325 0.938 0.0
C90 C 0.37674 0.25056 0.02935 0.0
C91 C 0.25856 0.22684 0.96422 0.0
N92 N 0.35792 0.29758 0.15655 0.0
N93 N 0.25725 0.14542 0.86884 0.0
H94 H 0.17457 0.22994 0.97225 0.0
H95 H 0.17572 0.18455 0.8848 0.0
H96 H 0.27768 0.11984 0.84453 0.0
H97 H 0.21109 0.12753 0.84782 0.0
H98 H 0.39296 0.29575 0.19262 0.0
H99 H 0.32894 0.30739 0.19485 0.0
H100 H 0.46065 0.3017 0.10395 0.0
H101 H 0.4618 0.24813 0.02921 0.0
C102 C 0.97885 0.33173 0.13754 0.0
C103 C 0.93931 0.26453 0.1555 0.0
C104 C 1.01329 0.2438 0.07335 0.0
C105 C 0.0509 0.3105 0.05422 0.0
N106 N 0.0595 0.41437 0.04565 0.0
N107 N 0.91426 0.15547 0.12961 0.0
C108 C 1.03002 0.35301 0.07851 0.0
C109 C 0.95467 0.22006 0.11889 0.0
N110 N 0.97033 0.37634 0.18036 0.0
N111 N 0.03479 0.20371 0.05038 0.0
H112 H 0.87283 0.13662 0.16605 0.0
H113 H 0.91955 0.12042 0.09802 0.0
H114 H 0.07572 0.21957 1.01353 0.0
H115 H 1.01395 0.15592 0.07054 0.0
H116 H 1.00295 0.42555 0.17852 0.0
H117 H 0.93415 0.3649 0.22436 0.0
H118 H 0.04199 0.44533 0.05338 0.0
H119 H 0.09768 0.43225 1.00285 0.0
C120 C 0.83654 0.06356 0.47452 0.0
C121 C 0.8443 0.11681 0.52377 0.0
C122 C 0.7955 0.04378 0.64851 0.0
C123 C 0.77265 0.98905 0.59255 0.0
N124 N 0.77027 0.94999 0.44561 0.0
N125 N 0.82724 0.15599 0.66012 0.0
C126 C 0.79397 0.99947 0.50407 0.0
C127 C 0.82401 0.10685 0.61204 0.0
N128 N 0.86875 0.07466 0.39776 0.0
N129 N 0.79036 0.03594 0.73713 0.0
H130 H 0.84951 0.20355 0.6389 0.0
H131 H 0.80417 0.1486 0.71985 0.0
H132 H 0.77054 0.99118 0.76723 0.0
H133 H 0.81194 0.07427 0.7807 0.0
H134 H 0.86949 0.03838 0.36208 0.0
H135 H 0.90011 0.12125 0.37536 0.0
H136 H 0.77901 0.95711 0.37866 0.0
H137 H 0.73762 0.90252 0.4613 0.0
C138 C 0.68025 0.75933 0.05625 0.0
C139 C 0.74153 0.76885 0.03975 0.0
C140 C 0.76175 0.85361 0.9341 0.0
C141 C 0.69926 0.84135 0.9457 0.0
N142 N 0.61011 0.80239 0.04242 0.0
N143 N 0.84775 0.84326 0.99276 0.0
C144 C 0.66266 0.8016 1.01617 0.0
C145 C 0.78471 0.82224 0.98859 0.0
N146 N 0.63705 0.70759 0.10412 0.0
N147 N 0.79822 0.89279 0.86781 0.0
H148 H 0.86611 0.82263 0.03491 0.0
H149 H 0.88211 0.88531 0.96234 0.0
H150 H 0.78389 0.9185 0.82902 0.0
H151 H 0.84072 0.8969 0.84866 0.0
H152 H 0.59048 0.69596 0.11268 0.0
H153 H 0.64538 0.67275 0.13027 0.0
H154 H 0.58418 0.77822 0.09782 0.0
H155 H 0.59668 0.83315 1.01472 0.0
C156 C 0.04509 0.78779 0.04298 0.0
C157 C 0.99292 0.76142 0.10239 0.0
C158 C 0.0691 0.81898 0.21896 0.0
C159 C 0.11926 0.82624 0.16614 0.0
N160 N 0.15339 0.81436 1.02285 0.0
N161 N 0.96325 0.7409 0.25717 0.0
C162 C 0.10727 0.81048 0.07616 0.0
C163 C 1.00658 0.77475 0.19339 0.0
N164 N 0.03628 0.79359 0.95603 0.0
N165 N 0.08136 0.85095 0.29639 0.0
H166 H 0.92106 0.69833 0.24623 0.0
H167 H 0.97431 0.74866 0.32356 0.0
H168 H 0.12738 0.88447 0.31543 0.0
H169 H 0.04573 0.84924 0.33521 0.0
H170 H 0.07371 0.81605 0.91201 0.0
H171 H 0.99326 0.78467 0.93051 0.0
H172 H 0.14426 0.79651 0.95923 0.0
H173 H 0.19956 0.83167 0.04361 0.0
C174 C 0.26026 0.03996 0.57577 0.0
C175 C 0.32469 0.0653 0.59899 0.0
C176 C 0.31408 0.96082 0.56567 0.0
C177 C 0.25377 0.93905 0.5293 0.0
N178 N 0.16919 0.95802 0.49551 0.0
N179 N 0.41646 0.0534 0.59196 0.0
C180 C 0.22659 0.97866 0.53331 0.0
C181 C 0.35246 1.02648 0.58781 0.0
N182 N 0.23072 0.07306 0.59672 0.0
N183 N 0.33526 0.91878 0.57735 0.0
H184 H 0.44703 0.10281 0.59654 0.0
H185 H 0.43945 1.02811 0.57917 0.0
H186 H 0.30739 0.86988 0.56327 0.0
H187 H 0.37707 0.93089 0.61005 0.0
H188 H 0.18244 0.05436 0.58874 0.0
H189 H 0.25365 0.11729 0.62861 0.0
H190 H 0.14973 0.98723 0.48697 0.0
H191 H 0.14229 0.91182 0.46976 0.0
C192 C 0.20471 0.63591 0.17054 0.0
C193 C 0.20546 0.63873 0.26338 0.0
C194 C 0.21516 0.54234 0.26665 0.0
C195 C 0.22826 0.5486 0.17522 0.0
N196 N 0.24809 0.61297 0.04404 0.0
N197 N 0.22335 0.59918 0.40011 0.0
C198 C 0.22613 0.59835 0.1279 0.0
C199 C 0.21362 0.59301 0.31187 0.0
N200 N 0.1828 0.66855 0.12276 0.0
N201 N 0.2014 0.48711 0.31018 0.0
H202 H 0.22514 0.6365 0.43623 0.0
H203 H 0.23602 0.57055 0.43593 0.0
H204 H 0.19681 0.4467 0.27886 0.0
H205 H 0.18658 0.4787 0.37519 0.0
H206 H 0.17672 0.66386 0.05515 0.0
H207 H 0.16366 0.69389 0.15177 0.0
H208 H 0.25224 0.6526 1.01024 0.0
H209 H 0.26942 0.59095 1.01208 0.0
C210 C 0.61744 0.24611 0.55729 0.0
C211 C 0.59004 0.19828 0.62409 0.0
C212 C 0.6451 0.14679 0.56177 0.0
C213 C 0.66099 0.18679 0.48649 0.0
N214 N 0.65496 0.27037 0.40804 0.0
N215 N 0.56947 0.09447 0.67806 0.0
C216 C 0.64386 0.23446 0.48236 0.0
C217 C 0.60156 0.1461 0.62351 0.0
N218 N 0.62238 0.30471 0.56811 0.0
N219 N 0.6732 0.11123 0.57634 0.0
H220 H 0.53414 0.08913 0.72045 0.0
H221 H 0.57362 0.05364 0.67444 0.0
H222 H 0.70326 0.10823 0.53109 0.0
H223 H 0.66919 0.08791 0.6357 0.0
H224 H 0.64651 0.34293 0.52449 0.0
H225 H 0.61007 0.31793 0.62629 0.0
H226 H 0.63867 0.30237 0.39946 0.0
H227 H 0.67508 0.26356 0.35217 0.0
C228 C 0.48909 0.64166 0.85755 0.0
C229 C 0.49239 0.64635 0.76524 0.0
C230 C 0.39256 0.54232 0.75952 0.0
C231 C 0.38354 0.54538 0.85138 0.0
N232 N 0.41981 0.61191 0.98146 0.0
N233 N 0.44249 0.60283 0.6267 0.0
C234 C 0.43106 0.59861 0.89897 0.0
C235 C 0.44291 0.59692 0.71543 0.0
N236 N 0.5418 0.67853 0.90625 0.0
N237 N 0.35507 0.48684 0.71475 0.0
H238 H 0.47883 0.64143 0.59272 0.0
H239 H 0.40404 0.57184 0.58803 0.0
H240 H 0.3208 0.44469 0.74508 0.0
H241 H 0.36302 0.48062 0.64961 0.0
H242 H 0.54272 0.67254 0.97359 0.0
H243 H 0.58579 0.70855 0.87776 0.0
H244 H 0.45196 0.65335 1.01501 0.0
H245 H 0.37578 0.58726 1.01157 0.0
C246 C 0.83141 0.51332 0.31904 0.0
C247 C 0.80667 0.50512 0.23274 0.0
C248 C 0.81761 0.41054 0.2156 0.0
C249 C 0.8354 0.4135 0.30548 0.0
N250 N 0.8423 0.46059 0.44757 0.0
N251 N 0.75751 0.43309 0.11141 0.0
C252 C 0.8378 0.46302 0.35876 0.0
C253 C 0.79409 0.44984 0.18504 0.0
N254 N 0.85067 0.56954 0.36258 0.0
N255 N 0.82487 0.37206 0.15722 0.0
H256 H 0.73675 0.45882 0.08856 0.0
H257 H 0.74159 0.38946 0.07937 0.0
H258 H 0.84307 0.34279 0.17275 0.0
H259 H 0.81903 0.37457 0.09002 0.0
H260 H 0.87536 0.58053 0.4215 0.0
H261 H 0.84694 0.60744 0.33649 0.0
H262 H 0.83787 0.49206 0.48931 0.0
H263 H 0.84327 0.42319 0.48038 0.0
C264 C 0.4642 0.91915 0.45475 0.0
C265 C 0.41494 0.85944 0.42282 0.0
C266 C 0.44334 0.80179 0.52916 0.0
C267 C 0.49369 0.86128 0.55971 0.0
N268 N 0.56357 0.97432 0.53252 0.0
N269 N 0.37104 0.74499 0.41048 0.0
C270 C 0.50761 0.9194 0.51691 0.0
C271 C 0.40905 0.80108 0.45397 0.0
N272 N 0.46808 0.97543 0.42942 0.0
N273 N 0.4268 0.74607 0.57364 0.0
H274 H 0.34716 0.74358 0.35322 0.0
H275 H 0.36874 0.70165 0.42535 0.0
H276 H 0.45004 0.74469 0.63005 0.0
H277 H 0.38651 0.7022 0.55938 0.0
H278 H 0.49931 1.0197 0.45762 0.0
H279 H 0.43751 0.97754 0.38404 0.0
H280 H 0.57958 1.01537 0.49385 0.0
H281 H 0.59642 0.97641 0.57769 0.0
C282 C 0.55548 0.41882 0.8836 0.0
C283 C 0.56318 0.41206 0.79344 0.0
C284 C 0.66502 0.51312 0.79972 0.0
C285 C 0.66415 0.50995 0.8932 0.0
N286 N 0.60785 0.44874 1.02284 0.0
N287 N 0.62762 0.45296 0.66437 0.0
C288 C 0.6088 0.46046 0.93516 0.0
C289 C 0.6184 0.45962 0.75067 0.0
N290 N 0.49699 0.38444 0.92032 0.0
N291 N 0.7084 0.56797 0.75758 0.0
H292 H 0.59354 0.41578 0.62617 0.0
H293 H 0.67039 0.48225 0.63257 0.0
H294 H 0.73952 0.61005 0.7907 0.0
H295 H 0.70792 0.57419 0.69014 0.0
H296 H 0.48762 0.39227 0.98407 0.0
H297 H 0.45703 0.35418 0.88336 0.0
H298 H 0.56994 0.40933 0.05331 0.0
H299 H 0.64687 0.47249 0.06358 0.0
loop_
_geom_bond_atom_site_label_1
_geom_bond_atom_site_label_2
_geom_bond_distance
_geom_bond_site_symmetry_2
_ccdc_geom_bond_type
C0 O2 1.247 . S
C0 O4 1.258 . S
C1 O8 1.247 . S
C1 O9 1.258 1_556 S
O2 C0 1.247 . S
O2 Zn3 2.028 . S
Zn3 O2 2.028 . S
Zn3 O7 2.035 . S
Zn3 O9 2.035 . S
Zn3 O10 2.028 . S
O4 C0 1.258 . S
O4 Zn5 2.035 1_554 S
Zn5 O4 2.035 1_556 S
Zn5 O6 2.028 . S
Zn5 O8 2.028 . S
Zn5 O11 2.035 1_556 S
O6 Zn5 2.028 . S
O6 C12 1.247 . S
O7 Zn3 2.035 . S
O7 C12 1.258 1_554 S
O8 C1 1.247 . S
O8 Zn5 2.028 . S
O9 C1 1.258 1_554 S
O9 Zn3 2.035 . S
O10 Zn3 2.028 . S
O10 C13 1.247 . S
O11 Zn5 2.035 1_554 S
O11 C13 1.258 . S
C12 O6 1.247 . S
C12 O7 1.258 1_556 S
C13 O10 1.247 . S
C13 O11 1.258 . S
C14 O16 1.247 . S
C14 O18 1.258 . S
C15 O22 1.247 . S
C15 O23 1.258 . S
O16 C14 1.247 . S
O16 Zn17 2.028 . S
Zn17 O16 2.028 . S
Zn17 O21 2.035 . S
Zn17 O23 2.035 . S
Zn17 O24 2.028 . S
O18 C14 1.258 . S
O18 Zn19 2.035 . S
Zn19 O18 2.035 . S
Zn19 O20 2.028 . S
Zn19 O22 2.028 . S
Zn19 O25 2.035 . S
O20 Zn19 2.028 . S
O20 C26 1.247 . S
O21 Zn17 2.035 . S
O21 C26 1.258 . S
O22 C15 1.247 . S
O22 Zn19 2.028 . S
O23 C15 1.258 . S
O23 Zn17 2.035 . S
O24 Zn17 2.028 . S
O24 C27 1.247 . S
O25 Zn19 2.035 . S
O25 C27 1.258 . S
C26 O20 1.247 . S
C26 O21 1.258 . S
C27 O24 1.247 . S
C27 O25 1.258 . S
C28 O30 1.247 . S
C28 O32 1.258 . S
C29 O36 1.247 . S
C29 O37 1.258 . S
O30 C28 1.247 . S
O30 Zn31 2.028 . S
Zn31 O30 2.028 . S
Zn31 O35 2.035 . S
Zn31 O37 2.035 . S
Zn31 O38 2.028 . S
O32 C28 1.258 . S
O32 Zn33 2.035 . S
Zn33 O32 2.035 . S
Zn33 O34 2.028 . S
Zn33 O36 2.028 . S
Zn33 O39 2.035 . S
O34 Zn33 2.028 . S
O34 C40 1.247 . S
O35 Zn31 2.035 . S
O35 C40 1.258 . S
O36 C29 1.247 . S
O36 Zn33 2.028 . S
O37 C29 1.258 . S
O37 Zn31 2.035 . S
O38 Zn31 2.028 . S
O38 C41 1.247 . S
O39 Zn33 2.035 . S
O39 C41 1.258 . S
C40 O34 1.247 . S
C40 O35 1.258 . S
C41 O38 1.247 . S
C41 O39 1.258 . S
C42 O44 1.247 . S
C42 O46 1.258 1_556 S
C43 O50 1.247 . S
C43 O51 1.258 . S
O44 C42 1.247 . S
O44 Zn45 2.028 . S
Zn45 O44 2.028 . S
Zn45 O49 2.035 1_556 S
Zn45 O51 2.035 1_556 S
Zn45 O52 2.028 . S
O46 C42 1.258 1_554 S
O46 Zn47 2.035 . S
Zn47 O46 2.035 . S
Zn47 O48 2.028 . S
Zn47 O50 2.028 . S
Zn47 O53 2.035 . S
O48 Zn47 2.028 . S
O48 C54 1.247 . S
O49 Zn45 2.035 1_554 S
O49 C54 1.258 . S
O50 C43 1.247 . S
O50 Zn47 2.028 . S
O51 C43 1.258 . S
O51 Zn45 2.035 1_554 S
O52 Zn45 2.028 . S
O52 C55 1.247 . S
O53 Zn47 2.035 . S
O53 C55 1.258 1_554 S
C54 O48 1.247 . S
C54 O49 1.258 . S
C55 O52 1.247 . S
C55 O53 1.258 1_556 S
C56 O58 1.247 . S
C56 O60 1.258 . S
C57 O64 1.247 . S
C57 O65 1.258 . S
O58 C56 1.247 . S
O58 Zn59 2.028 . S
Zn59 O58 2.028 . S
Zn59 O63 2.035 . S
Zn59 O65 2.035 . S
Zn59 O66 2.028 . S
O60 C56 1.258 . S
O60 Zn61 2.035 . S
Zn61 O60 2.035 . S
Zn61 O62 2.028 . S
Zn61 O64 2.028 . S
Zn61 O67 2.035 . S
O62 Zn61 2.028 . S
O62 C68 1.247 . S
O63 Zn59 2.035 . S
O63 C68 1.258 . S
O64 C57 1.247 . S
O64 Zn61 2.028 . S
O65 C57 1.258 . S
O65 Zn59 2.035 . S
O66 Zn59 2.028 . S
O66 C69 1.247 . S
O67 Zn61 2.035 . S
O67 C69 1.258 . S
C68 O62 1.247 . S
C68 O63 1.258 . S
C69 O66 1.247 . S
C69 O67 1.258 . S
C70 O72 1.247 . S
C70 O74 1.258 . S
C71 O78 1.247 . S
C71 O79 1.258 . S
O72 C70 1.247 . S
O72 Zn73 2.028 . S
Zn73 O72 2.028 . S
Zn73 O77 2.035 . S
Zn73 O79 2.035 . S
Zn73 O80 2.028 . S
O74 C70 1.258 . S
O74 Zn75 2.035 . S
Zn75 O74 2.035 . S
Zn75 O76 2.028 . S
Zn75 O78 2.028 . S
Zn75 O81 2.035 . S
O76 Zn75 2.028 . S
O76 C82 1.247 . S
O77 Zn73 2.035 . S
O77 C82 1.258 . S
O78 C71 1.247 . S
O78 Zn75 2.028 . S
O79 C71 1.258 . S
O79 Zn73 2.035 . S
O80 Zn73 2.028 . S
O80 C83 1.247 . S
O81 Zn75 2.035 . S
O81 C83 1.258 . S
C82 O76 1.247 . S
C82 O77 1.258 . S
C83 O80 1.247 . S
C83 O81 1.258 . S
C84 C85 1.363 . S
C84 C90 1.379 . S
C84 N92 1.356 1_556 S
C85 C84 1.363 . S
C85 C91 1.363 . S
C86 C87 1.363 . S
C86 C91 1.379 . S
C86 N93 1.356 . S
C87 C86 1.363 . S
C87 C90 1.363 . S
N88 C90 1.356 . S
N88 H100 0.984 . S
N88 H101 0.985 . S
N89 C91 1.356 . S
N89 H94 0.984 . S
N89 H95 0.985 . S
C90 C84 1.379 . S
C90 C87 1.363 . S
C90 N88 1.356 . S
C91 C85 1.363 . S
C91 C86 1.379 . S
C91 N89 1.356 . S
N92 C84 1.356 1_554 S
N92 H98 0.984 . S
N92 H99 0.984 . S
N93 C86 1.356 . S
N93 H96 0.984 . S
N93 H97 0.985 . S
H94 N89 0.984 . S
H95 N89 0.985 . S
H96 N93 0.984 . S
H97 N93 0.985 . S
H98 N92 0.984 . S
H99 N92 0.984 . S
H100 N88 0.984 . S
H101 N88 0.985 . S
C102 C103 1.363 . S
C102 C108 1.379 1_655 S
C102 N110 1.356 . S
C103 C102 1.363 . S
C103 C109 1.363 . S
C104 C105 1.363 . S
C104 C109 1.379 1_455 S
C104 N111 1.356 . S
C105 C104 1.363 . S
C105 C108 1.363 . S
N106 C108 1.356 . S
N106 H118 0.984 . S
N106 H119 0.985 . S
N107 C109 1.356 . S
N107 H112 0.984 . S
N107 H113 0.985 . S
C108 C102 1.379 1_455 S
C108 C105 1.363 . S
C108 N106 1.356 . S
C109 C103 1.363 . S
C109 C104 1.379 1_655 S
C109 N107 1.356 . S
N110 C102 1.356 . S
N110 H116 0.984 . S
N110 H117 0.984 . S
N111 C104 1.356 . S
N111 H114 0.984 . S
N111 H115 0.985 . S
H112 N107 0.984 . S
H113 N107 0.985 . S
H114 N111 0.984 . S
H115 N111 0.985 . S
H116 N110 0.984 . S
H117 N110 0.984 . S
H118 N106 0.984 . S
H119 N106 0.985 . S
C120 C121 1.363 . S
C120 C126 1.379 1_545 S
C120 N128 1.356 . S
C121 C120 1.363 . S
C121 C127 1.363 . S
C122 C123 1.363 . S
C122 C127 1.379 1_565 S
C122 N129 1.356 . S
C123 C122 1.363 . S
C123 C126 1.363 . S
N124 C126 1.356 . S
N124 H136 0.984 . S
N124 H137 0.985 . S
N125 C127 1.356 . S
N125 H130 0.984 . S
N125 H131 0.985 . S
C126 C120 1.379 1_565 S
C126 C123 1.363 . S
C126 N124 1.356 . S
C127 C121 1.363 . S
C127 C122 1.379 1_545 S
C127 N125 1.356 . S
N128 C120 1.356 . S
N128 H134 0.984 1_545 S
N128 H135 0.984 . S
N129 C122 1.356 . S
N129 H132 0.984 . S
N129 H133 0.985 1_565 S
H130 N125 0.984 . S
H131 N125 0.985 . S
H132 N129 0.984 . S
H133 N129 0.985 1_545 S
H134 N128 0.984 1_565 S
H135 N128 0.984 . S
H136 N124 0.984 . S
H137 N124 0.985 . S
C138 C139 1.363 . S
C138 C144 1.379 . S
C138 N146 1.356 . S
C139 C138 1.363 . S
C139 C145 1.363 . S
C140 C141 1.363 . S
C140 C145 1.379 . S
C140 N147 1.356 . S
C141 C140 1.363 . S
C141 C144 1.363 . S
N142 C144 1.356 . S
N142 H154 0.984 . S
N142 H155 0.985 . S
N143 C145 1.356 . S
N143 H148 0.984 . S
N143 H149 0.985 . S
C144 C138 1.379 . S
C144 C141 1.363 . S
C144 N142 1.356 . S
C145 C139 1.363 . S
C145 C140 1.379 . S
C145 N143 1.356 . S
N146 C138 1.356 . S
N146 H152 0.984 . S
N146 H153 0.984 . S
N147 C140 1.356 . S
N147 H150 0.984 . S
N147 H151 0.985 . S
H148 N143 0.984 . S
H149 N143 0.985 . S
H150 N147 0.984 . S
H151 N147 0.985 . S
H152 N146 0.984 . S
H153 N146 0.984 . S
H154 N142 0.984 . S
H155 N142 0.985 . S
C156 C157 1.363 . S
C156 C162 1.379 1_655 S
C156 N164 1.356 . S
C157 C156 1.363 . S
C157 C163 1.363 . S
C158 C159 1.363 . S
C158 C163 1.379 1_455 S
C158 N165 1.356 . S
C159 C158 1.363 . S
C159 C162 1.363 . S
N160 C162 1.356 . S
N160 H172 0.984 . S
N160 H173 0.985 . S
N161 C163 1.356 . S
N161 H166 0.984 . S
N161 H167 0.985 . S
C162 C156 1.379 1_455 S
C162 C159 1.363 . S
C162 N160 1.356 . S
C163 C157 1.363 . S
C163 C158 1.379 1_655 S
C163 N161 1.356 . S
N164 C156 1.356 . S
N164 H170 0.984 1_654 S
N164 H171 0.984 . S
N165 C158 1.356 . S
N165 H168 0.984 . S
N165 H169 0.985 1_455 S
H166 N161 0.984 . S
H167 N161 0.985 . S
H168 N165 0.984 . S
H169 N165 0.985 1_655 S
H170 N164 0.984 1_456 S
H171 N164 0.984 . S
H172 N160 0.984 . S
H173 N160 0.985 . S
C174 C175 1.363 . S
C174 C180 1.379 1_545 S
C174 N182 1.356 . S
C175 C174 1.363 . S
C175 C181 1.363 . S
C176 C177 1.363 . S
C176 C181 1.379 1_565 S
C176 N183 1.356 . S
C177 C176 1.363 . S
C177 C180 1.363 . S
N178 C180 1.356 . S
N178 H190 0.984 . S
N178 H191 0.985 . S
N179 C181 1.356 . S
N179 H184 0.984 . S
N179 H185 0.985 . S
C180 C174 1.379 1_565 S
C180 C177 1.363 . S
C180 N178 1.356 . S
C181 C175 1.363 . S
C181 C176 1.379 1_545 S
C181 N179 1.356 . S
N182 C174 1.356 . S
N182 H188 0.984 . S
N182 H189 0.984 . S
N183 C176 1.356 . S
N183 H186 0.984 . S
N183 H187 0.985 . S
H184 N179 0.984 . S
H185 N179 0.985 . S
H186 N183 0.984 . S
H187 N183 0.985 . S
H188 N182 0.984 . S
H189 N182 0.984 . S
H190 N178 0.984 . S
H191 N178 0.985 . S
C192 C193 1.363 . S
C192 C198 1.379 . S
C192 N200 1.356 . S
C193 C192 1.363 . S
C193 C199 1.363 . S
C194 C195 1.363 . S
C194 C199 1.379 . S
C194 N201 1.356 . S
C195 C194 1.363 . S
C195 C198 1.363 . S
N196 C198 1.356 . S
N196 H208 0.984 1_554 S
N196 H209 0.985 . S
N197 C199 1.356 . S
N197 H202 0.984 . S
N197 H203 0.985 . S
C198 C192 1.379 . S
C198 C195 1.363 . S
C198 N196 1.356 . S
C199 C193 1.363 . S
C199 C194 1.379 . S
C199 N197 1.356 . S
N200 C192 1.356 . S
N200 H206 0.984 . S
N200 H207 0.984 . S
N201 C194 1.356 . S
N201 H204 0.984 . S
N201 H205 0.985 . S
H202 N197 0.984 . S
H203 N197 0.985 . S
H204 N201 0.984 . S
H205 N201 0.985 . S
H206 N200 0.984 . S
H207 N200 0.984 . S
H208 N196 0.984 1_556 S
H209 N196 0.985 . S
C210 C211 1.363 . S
C210 C216 1.379 . S
C210 N218 1.356 . S
C211 C210 1.363 . S
C211 C217 1.363 . S
C212 C213 1.363 . S
C212 C217 1.379 . S
C212 N219 1.356 . S
C213 C212 1.363 . S
C213 C216 1.363 . S
N214 C216 1.356 . S
N214 H226 0.984 . S
N214 H227 0.985 . S
N215 C217 1.356 . S
N215 H220 0.984 . S
N215 H221 0.985 . S
C216 C210 1.379 . S
C216 C213 1.363 . S
C216 N214 1.356 . S
C217 C211 1.363 . S
C217 C212 1.379 . S
C217 N215 1.356 . S
N218 C210 1.356 . S
N218 H224 0.984 . S
N218 H225 0.984 . S
N219 C212 1.356 . S
N219 H222 0.984 . S
N219 H223 0.985 . S
H220 N215 0.984 . S
H221 N215 0.985 . S
H222 N219 0.984 . S
H223 N219 0.985 . S
H224 N218 0.984 . S
H225 N218 0.984 . S
H226 N214 0.984 . S
H227 N214 0.985 . S
C228 C229 1.363 . S
C228 C234 1.379 . S
C228 N236 1.356 . S
C229 C228 1.363 . S
C229 C235 1.363 . S
C230 C231 1.363 . S
C230 C235 1.379 . S
C230 N237 1.356 . S
C231 C230 1.363 . S
C231 C234 1.363 . S
N232 C234 1.356 . S
N232 H244 0.984 1_556 S
N232 H245 0.985 1_556 S
N233 C235 1.356 . S
N233 H238 0.984 . S
N233 H239 0.985 . S
C234 C228 1.379 . S
C234 C231 1.363 . S
C234 N232 1.356 . S
C235 C229 1.363 . S
C235 C230 1.379 . S
C235 N233 1.356 . S
N236 C228 1.356 . S
N236 H242 0.984 . S
N236 H243 0.984 . S
N237 C230 1.356 . S
N237 H240 0.984 . S
N237 H241 0.985 . S
H238 N233 0.984 . S
H239 N233 0.985 . S
H240 N237 0.984 . S
H241 N237 0.985 . S
H242 N236 0.984 . S
H243 N236 0.984 . S
H244 N232 0.984 1_554 S
H245 N232 0.985 1_554 S
C246 C247 1.363 . S
C246 C252 1.379 . S
C246 N254 1.356 . S
C247 C246 1.363 . S
C247 C253 1.363 . S
C248 C249 1.363 . S
C248 C253 1.379 . S
C248 N255 1.356 . S
C249 C248 1.363 . S
C249 C252 1.363 . S
N250 C252 1.356 . S
N250 H262 0.984 . S
N250 H263 0.985 . S
N251 C253 1.356 . S
N251 H256 0.984 . S
N251 H257 0.985 . S
C252 C246 1.379 . S
C252 C249 1.363 . S
C252 N250 1.356 . S
C253 C247 1.363 . S
C253 C248 1.379 . S
C253 N251 1.356 . S
N254 C246 1.356 . S
N254 H260 0.984 . S
N254 H261 0.984 . S
N255 C248 1.356 . S
N255 H258 0.984 . S
N255 H259 0.985 . S
H256 N251 0.984 . S
H257 N251 0.985 . S
H258 N255 0.984 . S
H259 N255 0.985 . S
H260 N254 0.984 . S
H261 N254 0.984 . S
H262 N250 0.984 . S
H263 N250 0.985 . S
C264 C265 1.363 . S
C264 C270 1.379 . S
C264 N272 1.356 . S
C265 C264 1.363 . S
C265 C271 1.363 . S
C266 C267 1.363 . S
C266 C271 1.379 . S
C266 N273 1.356 . S
C267 C266 1.363 . S
C267 C270 1.363 . S
N268 C270 1.356 . S
N268 H280 0.984 . S
N268 H281 0.985 . S
N269 C271 1.356 . S
N269 H274 0.984 . S
N269 H275 0.985 . S
C270 C264 1.379 . S
C270 C267 1.363 . S
C270 N268 1.356 . S
C271 C265 1.363 . S
C271 C266 1.379 . S
C271 N269 1.356 . S
N272 C264 1.356 . S
N272 H278 0.984 . S
N272 H279 0.984 . S
N273 C266 1.356 . S
N273 H276 0.984 . S
N273 H277 0.985 . S
H274 N269 0.984 . S
H275 N269 0.985 . S
H276 N273 0.984 . S
H277 N273 0.985 . S
H278 N272 0.984 . S
H279 N272 0.984 . S
H280 N268 0.984 . S
H281 N268 0.985 . S
C282 C283 1.363 . S
C282 C288 1.379 . S
C282 N290 1.356 . S
C283 C282 1.363 . S
C283 C289 1.363 . S
C284 C285 1.363 . S
C284 C289 1.379 . S
C284 N291 1.356 . S
C285 C284 1.363 . S
C285 C288 1.363 . S
N286 C288 1.356 1_554 S
N286 H298 0.984 . S
N286 H299 0.985 . S
N287 C289 1.356 . S
N287 H292 0.984 . S
N287 H293 0.985 . S
C288 C282 1.379 . S
C288 C285 1.363 . S
C288 N286 1.356 1_556 S
C289 C283 1.363 . S
C289 C284 1.379 . S
C289 N287 1.356 . S
N290 C282 1.356 . S
N290 H296 0.984 . S
N290 H297 0.984 . S
N291 C284 1.356 . S
N291 H294 0.984 . S
N291 H295 0.985 . S
H292 N287 0.984 . S
H293 N287 0.985 . S
H294 N291 0.984 . S
H295 N291 0.985 . S
H296 N290 0.984 . S
H297 N290 0.984 . S
H298 N286 0.984 . S
H299 N286 0.985 . S
C85 C12 1.475 . S
C87 C83 1.475 . S
C103 C26 1.475 . S
C105 C0 1.475 . S
C121 C14 1.475 . S
C123 C28 1.475 . S
C139 C42 1.475 . S
C141 C40 1.475 . S
C157 C54 1.475 . S
C159 C57 1.475 . S
C175 C71 1.475 . S
C177 C69 1.475 . S
C193 C68 1.501 . S
C195 C13 1.500 . S
C211 C82 1.501 . S
C213 C27 1.500 . S
C229 C29 1.500 . S
C231 C1 1.500 . S
C247 C43 1.500 . S
C249 C15 1.500 . S
C265 C56 1.501 . S
C267 C41 1.500 . S
C283 C70 1.501 . S
C285 C55 1.500 . S
