# Generated by pormake.
# Topology unn, (4)-cn, num edge types: 1
# Building blocks:
#     Node 0, Type 0, BuildingBlock: ESEHIV_clean_sbu_0, # of connection points: 4
#     Node 1, Type 0, BuildingBlock: ESEHIV_clean_sbu_0, # of connection points: 4
#     Node 2, Type 0, BuildingBlock: ESEHIV_clean_sbu_0, # of connection points: 4
#     Node 3, Type 0, BuildingBlock: ESEHIV_clean_sbu_0, # of connection points: 4
#     Node 4, Type 0, BuildingBlock: ESEHIV_clean_sbu_0, # of connection points: 4
#     Node 5, Type 0, BuildingBlock: ESEHIV_clean_sbu_0, # of connection points: 4
#     Node 6, Type 0, BuildingBlock: ESEHIV_clean_sbu_0, # of connection points: 4
#     Node 7, Type 0, BuildingBlock: ESEHIV_clean_sbu_0, # of connection points: 4
#     Node 8, Type 0, BuildingBlock: ESEHIV_clean_sbu_0, # of connection points: 4
#     Node 9, Type 0, BuildingBlock: ESEHIV_clean_sbu_0, # of connection points: 4
#     Node 10, Type 0, BuildingBlock: ESEHIV_clean_sbu_0, # of connection points: 4
#     Node 11, Type 0, BuildingBlock: ESEHIV_clean_sbu_0, # of connection points: 4
#     Node 12, Type 0, BuildingBlock: ESEHIV_clean_sbu_0, # of connection points: 4
#     Node 13, Type 0, BuildingBlock: ESEHIV_clean_sbu_0, # of connection points: 4
#     Node 14, Type 0, BuildingBlock: ESEHIV_clean_sbu_0, # of connection points: 4
#     Node 15, Type 0, BuildingBlock: ESEHIV_clean_sbu_0, # of connection points: 4
#     Node 16, Type 0, BuildingBlock: ESEHIV_clean_sbu_0, # of connection points: 4
#     Node 17, Type 0, BuildingBlock: ESEHIV_clean_sbu_0, # of connection points: 4
#     Edge 18, Type (0, 0), None
#     Edge 19, Type (0, 0), None
#     Edge 20, Type (0, 0), None
#     Edge 21, Type (0, 0), None
#     Edge 22, Type (0, 0), None
#     Edge 23, Type (0, 0), None
#     Edge 24, Type (0, 0), None
#     Edge 25, Type (0, 0), None
#     Edge 26, Type (0, 0), None
#     Edge 27, Type (0, 0), None
#     Edge 28, Type (0, 0), None
#     Edge 29, Type (0, 0), None
#     Edge 30, Type (0, 0), None
#     Edge 31, Type (0, 0), None
#     Edge 32, Type (0, 0), None
#     Edge 33, Type (0, 0), None
#     Edge 34, Type (0, 0), None
#     Edge 35, Type (0, 0), None
#     Edge 36, Type (0, 0), None
#     Edge 37, Type (0, 0), None
#     Edge 38, Type (0, 0), None
#     Edge 39, Type (0, 0), None
#     Edge 40, Type (0, 0), None
#     Edge 41, Type (0, 0), None
#     Edge 42, Type (0, 0), None
#     Edge 43, Type (0, 0), None
#     Edge 44, Type (0, 0), None
#     Edge 45, Type (0, 0), None
#     Edge 46, Type (0, 0), None
#     Edge 47, Type (0, 0), None
#     Edge 48, Type (0, 0), None
#     Edge 49, Type (0, 0), None
#     Edge 50, Type (0, 0), None
#     Edge 51, Type (0, 0), None
#     Edge 52, Type (0, 0), None
#     Edge 53, Type (0, 0), None
# Relax obj value: 0.018
# Max RMSD: 0.186
# Mean RMSD: 0.184
data_MOF--net-unn--node1-ESEHIV_clean_sbu_0--edge1-none
_symmetry_space_group_name_H-M    P1
_symmetry_Int_Tables_number       1
_symmetry_cell_setting            triclinic
loop_
_symmetry_equiv_pos_as_xyz
'x, y, z'
_cell_length_a     29.46445
_cell_length_b     28.631407
_cell_length_c     18.166915
_cell_angle_alpha  91.438094
_cell_angle_beta   90.381848
_cell_angle_gamma 120.72906
loop_
_atom_site_label
_atom_site_type_symbol
_atom_site_fract_x
_atom_site_fract_y
_atom_site_fract_z
_atom_type_partial_charge
Cu0 Cu 0.03966 0.74408 0.3159 0.0
N1 N 0.10769 0.80366 0.34224 0.0
N2 N 0.19434 0.85182 0.37165 0.0
C3 C 0.1507 0.80159 0.36438 0.0
C4 C 0.17851 0.88669 0.35312 0.0
C5 C 0.12535 0.85693 0.33453 0.0
O6 O 1.00209 0.69402 0.39377 0.0
C7 C 0.05736 0.72285 0.17378 0.0
O8 O 0.05702 0.76785 0.16296 0.0
H9 H 0.15013 0.76408 0.37331 0.0
H10 H 0.10163 0.87308 0.31471 0.0
N11 N 0.9901 0.76085 0.27768 0.0
N12 N 0.91462 0.74441 0.223 0.0
C13 C 0.94766 0.72566 0.23529 0.0
C14 C 0.9831 0.80298 0.29331 0.0
C15 C 0.93662 0.79305 0.25939 0.0
C16 C 0.99413 0.70228 0.46044 0.0
O17 O 0.95633 0.66151 0.4949 0.0
H18 H 0.94015 0.68608 0.21676 0.0
H19 H 1.00852 0.83726 0.32958 0.0
O20 O 0.05101 0.70442 0.2381 0.0
H21 H 0.20369 0.93036 0.35103 0.0
H22 H 0.91961 0.81871 0.26345 0.0
Cu23 Cu 0.31647 0.36423 0.31306 0.0
N24 N 0.31224 0.29859 0.28116 0.0
N25 N 0.34343 0.2441 0.24948 0.0
C26 C 0.34927 0.28508 0.29487 0.0
C27 C 0.30007 0.22981 0.20742 0.0
C28 C 0.28096 0.26352 0.22707 0.0
O29 O 0.33925 0.41798 0.23504 0.0
C30 C 0.35253 0.36272 0.45208 0.0
O31 O 0.31166 0.31301 0.4471 0.0
H32 H 0.38303 0.30883 0.33142 0.0
H33 H 0.24944 0.26552 0.1993 0.0
N34 N 0.25286 0.35525 0.3492 0.0
N35 N 0.19921 0.37525 0.41134 0.0
C36 C 0.24975 0.38991 0.39801 0.0
C37 C 0.2025 0.31742 0.33126 0.0
C38 C 0.1692 0.32974 0.36947 0.0
C39 C 0.36075 0.42278 0.17251 0.0
O40 O 0.36636 0.46178 0.13025 0.0
H41 H 0.28393 0.42591 0.42151 0.0
H42 H 0.19081 0.2839 0.29215 0.0
O43 O 0.36424 0.39337 0.39734 0.0
H44 H 0.28586 0.20049 0.16173 0.0
H45 H 0.12651 0.30743 0.36584 0.0
Cu46 Cu 0.76585 1.0172 0.28748 0.0
N47 N 0.76657 0.95406 0.30497 0.0
N48 N 0.73662 0.86781 0.33068 0.0
C49 C 0.72379 0.90604 0.32051 0.0
C50 C 0.78918 0.89226 0.32113 0.0
C51 C 0.80759 0.94572 0.3047 0.0
O52 O 0.75108 0.04508 0.37727 0.0
C53 C 0.69892 1.03054 0.19158 0.0
O54 O 0.72155 0.07963 0.22205 0.0
H55 H 0.68459 0.89988 0.32631 0.0
H56 H 0.84799 0.97641 0.29406 0.0
N57 N 0.82988 0.07134 0.24936 0.0
N58 N 0.88709 0.14304 0.18576 0.0
C59 C 0.83658 0.10211 0.19058 0.0
C60 C 0.87797 0.09335 0.28191 0.0
C61 C 0.91342 0.13763 0.24283 0.0
C62 C 0.75624 1.03213 0.44209 0.0
O63 O 0.7719 0.99722 0.45188 0.0
H64 H 0.80484 0.09654 0.15449 0.0
H65 H 0.88607 0.07985 0.33279 0.0
O66 O 0.71081 0.99671 0.21456 0.0
H67 H 0.81258 0.87315 0.3264 0.0
H68 H 0.95456 0.16508 0.2575 0.0
Cu69 Cu 0.06303 0.35538 0.80228 0.0
N70 N 1.00419 0.28508 0.78584 0.0
N71 N 0.92308 0.22583 0.7402 0.0
C72 C 0.9555 0.27624 0.76953 0.0
C73 C 0.95203 0.20147 0.73876 0.0
C74 C 1.00224 0.23832 0.76655 0.0
O75 O 0.05071 0.39576 0.72648 0.0
C76 C 0.05087 0.35478 0.96 0.0
O77 O 1.01585 0.30273 0.95212 0.0
H78 H 0.94543 0.30757 0.77441 0.0
H79 H 0.0359 0.23278 0.76733 0.0
N80 N 0.12977 0.36108 0.79727 0.0
N81 N 0.20535 0.37813 0.8533 0.0
C82 C 0.15193 0.35071 0.85535 0.0
C83 C 0.17106 0.39598 0.7569 0.0
C84 C 0.2176 0.40618 0.7909 0.0
C85 C 0.0528 0.38687 0.65752 0.0
O86 O 0.07966 0.36409 0.63621 0.0
H87 H 0.1295 0.32805 0.90181 0.0
H88 H 0.1683 0.41782 0.71105 0.0
O89 O 0.06638 0.38374 0.90295 0.0
H90 H 0.93906 0.16137 0.71532 0.0
H91 H 0.25714 0.43575 0.77461 0.0
Cu92 Cu 0.7286 0.76093 0.84551 0.0
N93 N 0.73074 0.82679 0.87052 0.0
N94 N 0.70695 0.88852 0.89505 0.0
C95 C 0.68988 0.83528 0.88079 0.0
C96 C 0.76006 0.91444 0.89311 0.0
C97 C 0.77449 0.87648 0.87765 0.0
O98 O 0.71057 0.70922 0.92441 0.0
C99 C 0.69587 0.7481 0.70019 0.0
O100 O 0.73913 0.79608 0.69851 0.0
H101 H 0.64882 0.80327 0.87769 0.0
H102 H 0.81433 0.88496 0.87095 0.0
N103 N 0.79322 0.77071 0.81176 0.0
N104 N 0.84793 0.75036 0.75321 0.0
C105 C 0.79754 0.73828 0.76024 0.0
C106 C 0.8426 0.8035 0.83908 0.0
C107 C 0.87655 0.79139 0.8026 0.0
C108 C 0.71201 0.70811 0.99467 0.0
O109 O 0.70546 0.66363 1.02317 0.0
H110 H 0.76413 0.70521 0.73063 0.0
H111 H 0.85298 0.83229 0.8848 0.0
O112 O 0.68033 0.72554 0.7618 0.0
H113 H 0.78666 0.95777 0.90109 0.0
H114 H 0.91848 0.80992 0.8137 0.0
Cu115 Cu 0.32864 1.01736 0.80421 0.0
N116 N 0.32715 0.07895 0.77549 0.0
N117 N 0.36045 0.16275 0.73407 0.0
C118 C 0.37121 0.12509 0.75739 0.0
C119 C 0.30755 0.13983 0.73774 0.0
C120 C 0.28698 0.08773 0.76338 0.0
O121 O 0.36697 1.00258 0.73175 0.0
C122 C 0.34578 0.05077 0.94932 0.0
O123 O 0.30952 0.06296 0.93397 0.0
H124 H 0.41019 0.13023 0.75997 0.0
H125 H 0.24576 0.05811 0.77118 0.0
N126 N 0.26484 0.95287 0.81357 0.0
N127 N 0.21662 0.86739 0.84907 0.0
C128 C 0.26026 0.91616 0.86228 0.0
C129 C 0.22256 0.92632 0.76755 0.0
C130 C 0.19221 0.87322 0.78986 0.0
C131 C 0.35512 1.00495 0.66527 0.0
O132 O 0.31927 1.01779 0.65019 0.0
H133 H 0.29018 0.92431 0.90367 0.0
H134 H 0.216 0.94327 0.71888 0.0
O135 O 0.3626 1.03237 0.89898 0.0
H136 H 0.28535 0.15871 0.7219 0.0
H137 H 0.15634 0.84131 0.7632 0.0
Cu138 Cu 0.72941 0.07712 0.65031 0.0
N139 N 0.66541 0.07372 0.62404 0.0
N140 N 0.58458 0.04154 0.57366 0.0
C141 C 0.62554 1.0333 0.58274 0.0
C142 C 0.59879 0.0886 0.61083 0.0
C143 C 0.64855 0.10823 0.64198 0.0
O144 O 0.74469 0.04102 0.57073 0.0
C145 C 0.70548 0.05721 0.80009 0.0
O146 O 0.66091 0.05661 0.79175 0.0
H147 H 0.62672 0.99869 0.55989 0.0
H148 H 0.67044 0.14471 0.67621 0.0
N149 N 0.79002 0.14664 0.66506 0.0
N150 N 0.87187 0.20545 0.70874 0.0
C151 C 0.8376 0.15385 0.68503 0.0
C152 C 0.79483 0.19574 0.67578 0.0
C153 C 0.84537 0.23218 0.70263 0.0
C154 C 0.74542 0.05719 0.50581 0.0
O155 O 0.73628 0.09694 0.49575 0.0
H156 H 0.84543 0.12089 0.68727 0.0
H157 H 0.76316 0.20396 0.66877 0.0
O158 O 0.72386 0.04448 0.7448 0.0
H159 H 0.57492 0.10723 0.61596 0.0
H160 H 0.86045 0.27424 0.71907 0.0
Cu161 Cu 0.98741 0.70644 0.64028 0.0
N162 N 0.98844 0.642 0.61871 0.0
N163 N 1.01957 0.5868 0.59232 0.0
C164 C 1.03139 0.63891 0.60088 0.0
C165 C 0.96751 0.55592 0.60547 0.0
C166 C 0.94849 0.59009 0.62199 0.0
O167 O 1.02404 0.76212 0.56753 0.0
C168 C 0.9985 0.69772 0.78639 0.0
O169 O 0.95565 0.65074 0.77093 0.0
H170 H 0.07031 0.67412 0.59464 0.0
H171 H 0.90843 0.57795 0.63612 0.0
N172 N 0.92162 0.70007 0.65656 0.0
N173 N 0.86654 0.72297 0.70783 0.0
C174 C 0.91693 0.73495 0.70273 0.0
C175 C 0.87226 0.66485 0.63097 0.0
C176 C 0.83796 0.67893 0.66272 0.0
C177 C 1.02291 0.75628 0.4975 0.0
O178 O 0.04791 0.79978 0.45833 0.0
H179 H 0.95008 0.76827 0.73239 0.0
H180 H 0.86188 0.63127 0.59249 0.0
O181 O 1.02178 0.73074 0.73527 0.0
H182 H 0.94483 0.51196 0.60387 0.0
H183 H 0.79563 0.65821 0.65373 0.0
Cu184 Cu 0.43784 0.36388 0.63909 0.0
N185 N 0.50656 0.41628 0.61332 0.0
N186 N 0.56805 0.49118 0.55944 0.0
C187 C 0.52061 0.44506 0.55136 0.0
C188 C 0.58546 0.49075 0.62815 0.0
C189 C 0.54739 0.44445 0.66118 0.0
O190 O 0.39002 0.34626 0.55579 0.0
C191 C 0.42491 0.38636 0.78695 0.0
O192 O 0.44368 0.35468 0.80167 0.0
H193 H 0.49494 0.43482 0.50358 0.0
H194 H 0.5472 0.43475 0.71838 0.0
N195 N 0.43232 0.29885 0.66751 0.0
N196 N 0.39729 0.21468 0.70825 0.0
C197 C 0.38771 0.25387 0.68782 0.0
C198 C 0.47114 0.28752 0.67512 0.0
C199 C 0.44963 0.23545 0.70037 0.0
C200 C 0.38567 0.38092 0.51886 0.0
O201 O 0.41215 0.43264 0.53895 0.0
H202 H 0.34944 0.2505 0.68873 0.0
H203 H 0.51227 0.31545 0.66398 0.0
O204 O 0.41835 0.39493 0.72041 0.0
H205 H 0.62081 0.52345 0.6548 0.0
H206 H 0.4709 0.21486 0.7123 0.0
Cu207 Cu 0.71761 0.69122 0.17174 0.0
N208 N 0.65346 0.62614 0.14624 0.0
N209 N 0.57198 0.56956 0.09958 0.0
C210 C 0.60885 0.62181 0.11727 0.0
C211 C 0.5938 0.53991 0.11842 0.0
C212 C 0.64392 0.57484 0.14693 0.0
O213 O 0.72357 0.75144 0.11459 0.0
C214 C 0.72428 0.67107 0.31939 0.0
O215 O 0.71009 0.62307 0.29015 0.0
H216 H 0.60434 0.65633 0.10734 0.0
H217 H 0.67196 0.5636 0.16507 0.0
N218 N 0.78045 0.69036 0.15825 0.0
N219 N 0.86435 0.71615 0.18696 0.0
C220 C 0.82643 0.72923 0.19012 0.0
C221 C 0.78984 0.65138 0.13345 0.0
C222 C 0.84179 0.66728 0.15106 0.0
C223 C 0.72245 0.7544 1.04431 0.0
O224 O 0.72861 0.79899 1.01655 0.0
H225 H 0.8306 0.76454 0.21967 0.0
H226 H 0.76044 0.61291 0.10818 0.0
O227 O 0.72307 0.70599 0.2783 0.0
H228 H 0.57553 0.49634 0.11079 0.0
H229 H 0.86053 0.64368 0.14111 0.0
Cu230 Cu 0.42612 0.12897 0.14203 0.0
N231 N 0.49403 0.14554 0.11209 0.0
N232 N 0.55105 0.12738 1.05518 0.0
C233 C 0.50353 0.12367 1.05135 0.0
C234 C 0.57319 0.15375 0.11991 0.0
C235 C 0.53794 0.16481 0.15483 0.0
O236 O 0.38124 0.10635 1.05587 0.0
C237 C 0.419 0.07472 0.27068 0.0
O238 O 0.45438 0.12367 0.29549 0.0
H239 H 0.47483 0.10189 1.00766 0.0
H240 H 0.54223 0.18135 0.2103 0.0
N241 N 0.42033 0.18475 0.19016 0.0
N242 N 0.3814 0.22855 0.23654 0.0
C243 C 0.37553 0.18687 0.19274 0.0
C244 C 0.45563 0.22669 0.23378 0.0
C245 C 0.43173 0.25389 0.26247 0.0
C246 C 0.36955 0.06209 1.02256 0.0
O247 O 0.38559 1.03066 1.04939 0.0
H248 H 0.3392 0.15783 0.16402 0.0
H249 H 0.49564 0.2363 0.24496 0.0
O250 O 0.40033 0.06792 0.20559 0.0
H251 H 0.61032 0.16108 0.1429 0.0
H252 H 0.45007 0.28948 0.29904 0.0
Cu253 Cu 1.00361 0.34825 0.12514 0.0
N254 N 0.9915 0.3991 0.08093 0.0
N255 N 1.01588 0.47888 1.03184 0.0
C256 C 1.03218 0.44752 0.06204 0.0
C257 C 0.96263 0.44972 1.03191 0.0
C258 C 0.94754 0.39994 0.06237 0.0
O259 O 0.07209 0.36496 0.09075 0.0
C260 C 1.02649 0.40211 0.26968 0.0
O261 O 0.04717 0.44857 0.23639 0.0
H262 H 0.0731 0.4599 0.07184 0.0
H263 H 0.90764 0.36708 0.07072 0.0
N264 N 0.95338 0.275 0.10786 0.0
N265 N 0.90612 0.1884 0.14017 0.0
C266 C 0.9508 0.23671 0.15205 0.0
C267 C 0.90887 0.24997 0.06584 0.0
C268 C 0.87941 0.19616 0.08578 0.0
C269 C 0.08755 0.37299 1.02439 0.0
O270 O 0.13837 0.39628 1.01276 0.0
H271 H 0.97926 0.24554 0.19603 0.0
H272 H 0.89709 0.27009 1.02706 0.0
O273 O 1.00729 0.35775 0.23207 0.0
H274 H 0.93674 0.46315 1.01148 0.0
H275 H 0.8404 0.16626 0.06484 0.0
Cu276 Cu 0.3841 0.42 0.99472 0.0
N277 N 0.44141 0.49037 1.01713 0.0
N278 N 0.52176 0.54945 0.065 0.0
C279 C 0.48611 0.49691 1.04815 0.0
C280 C 0.49901 0.57771 1.04352 0.0
C281 C 0.44913 0.54094 1.01387 0.0
O282 O 0.38429 0.3788 0.0781 0.0
C283 C 0.41165 0.41156 0.84755 0.0
O284 O 0.40937 0.4555 0.83698 0.0
H285 H 0.4917 0.46324 0.05933 0.0
H286 H 0.42034 0.55033 0.99297 0.0
N287 N 0.31549 0.40845 0.97568 0.0
N288 N 0.24075 0.38537 0.91191 0.0
C289 C 0.29426 0.41229 0.91113 0.0
C290 C 0.27345 0.37784 1.01767 0.0
C291 C 0.22758 0.36377 0.9789 0.0
C292 C 0.37814 0.38555 0.14623 0.0
O293 O 0.39513 0.36451 0.19425 0.0
H294 H 0.31701 0.43128 0.86316 0.0
H295 H 0.2756 0.36286 0.07081 0.0
O296 O 0.40304 0.39106 0.9108 0.0
H297 H 0.51661 0.62132 1.04951 0.0
H298 H 0.18782 0.33753 0.99747 0.0
Cu299 Cu 0.66968 0.04589 0.97145 0.0
N300 N 0.65604 0.97674 0.93838 0.0
N301 N 0.67639 0.91317 0.90867 0.0
C302 C 0.69498 0.96541 0.93043 0.0
C303 C 0.62348 0.8902 0.90268 0.0
C304 C 0.611 0.92971 0.92109 0.0
O305 O 0.73132 0.09934 0.92121 0.0
C306 C 0.67281 1.0198 0.11967 0.0
O307 O 0.63654 0.9701 0.09889 0.0
H308 H 0.73619 0.99509 0.9413 0.0
H309 H 0.57192 0.92435 0.92241 0.0
N310 N 0.61497 0.0615 0.9697 0.0
N311 N 0.56872 0.09936 1.00904 0.0
C312 C 0.61172 0.09503 1.0203 0.0
C313 C 0.5725 0.04411 0.92458 0.0
C314 C 0.5437 0.06738 0.94887 0.0
C315 C 0.74377 0.0964 0.85509 0.0
O316 O 0.7916 0.13189 0.83456 0.0
H317 H 0.63998 0.11499 0.0653 0.0
H318 H 0.56276 1.01601 0.87808 0.0
O319 O 0.69247 0.0569 0.07302 0.0
H320 H 0.59598 0.84829 0.8863 0.0
H321 H 0.50696 0.06044 0.9249 0.0
Cu322 Cu 0.07999 0.68217 0.96017 0.0
N323 N 0.07852 0.6176 0.97716 0.0
N324 N 0.04898 0.53198 1.0069 0.0
C325 C 0.0359 0.56991 0.99489 0.0
C326 C 0.1014 0.5563 0.99606 0.0
C327 C 0.11952 0.60928 0.97746 0.0
O328 O 0.06073 0.70743 1.04681 0.0
C329 C 1.02449 0.70645 0.85761 0.0
O330 O 0.04864 0.75492 0.89007 0.0
H331 H 0.99676 0.56385 1.00117 0.0
H332 H 0.15985 0.63991 0.96621 0.0
N333 N 0.14653 0.73876 0.93481 0.0
N334 N 0.20103 0.81985 0.88869 0.0
C335 C 0.15654 0.77132 0.87725 0.0
C336 C 0.18718 0.76718 0.98282 0.0
C337 C 0.22105 0.81731 0.95446 0.0
C338 C 0.06595 0.69524 0.11177 0.0
O339 O 0.08219 0.66096 0.123 0.0
H340 H 0.12964 0.76165 0.83106 0.0
H341 H 0.18899 0.7547 1.03795 0.0
O342 O 1.031 0.66899 0.88144 0.0
H343 H 0.12501 0.53748 1.00189 0.0
H344 H 0.25482 0.8507 0.98304 0.0
Cu345 Cu 0.39541 0.97994 0.45566 0.0
N346 N 0.33271 0.91605 0.42323 0.0
N347 N 0.24664 0.86572 0.39116 0.0
C348 C 0.28813 0.91624 0.40561 0.0
C349 C 0.26535 0.83192 0.40039 0.0
C350 C 0.31857 0.86317 0.42047 0.0
O351 O 0.41627 0.03642 0.38519 0.0
C352 C 0.37861 0.99086 0.60529 0.0
O353 O 0.39948 0.96061 0.61673 0.0
H354 H 0.28612 0.95291 0.40526 0.0
H355 H 0.34456 0.84818 0.43396 0.0
N356 N 0.45614 0.97739 0.48286 0.0
N357 N 0.53637 1.00775 0.53414 0.0
C358 C 0.4975 1.01849 0.52092 0.0
C359 C 0.46969 0.93944 0.47114 0.0
C360 C 0.51931 0.9581 0.50284 0.0
C361 C 0.4015 1.02826 0.31795 0.0
O362 O 0.37098 0.97859 0.29102 0.0
H363 H 0.49873 0.05547 0.53869 0.0
H364 H 0.44537 0.90101 0.44174 0.0
O365 O 0.37451 1.00428 0.54071 0.0
H366 H 0.24238 0.78808 0.39406 0.0
H367 H 0.54077 0.93671 0.50309 0.0
Cu368 Cu 0.07197 0.44621 0.49299 0.0
N369 N 0.08139 0.51164 0.53369 0.0
N370 N 0.05408 0.56792 0.57265 0.0
C371 C 0.04017 0.51595 0.55667 0.0
C372 C 0.10622 0.59791 0.55947 0.0
C373 C 0.12299 0.56292 0.53511 0.0
O374 O 1.01143 0.39019 0.54348 0.0
C375 C 1.02922 0.40099 0.35052 0.0
O376 O 1.00873 0.3542 0.38296 0.0
H377 H 1.00019 0.48175 0.55781 0.0
H378 H 0.16201 0.57437 0.51643 0.0
N379 N 0.13 0.43564 0.49554 0.0
N380 N 0.1814 0.40411 0.45527 0.0
C381 C 0.13273 0.39765 0.45331 0.0
C382 C 0.17875 0.46698 0.52571 0.0
C383 C 0.21069 0.44758 0.50089 0.0
C384 C 1.00727 0.37627 0.61045 0.0
O385 O 0.95971 0.34479 0.6355 0.0
H386 H 0.10052 0.3678 0.41856 0.0
H387 H 0.19093 0.50292 0.56031 0.0
O388 O 0.05532 0.44498 0.38865 0.0
H389 H 0.13002 0.64177 0.56442 0.0
H390 H 0.25235 0.4652 0.51334 0.0
Cu391 Cu 0.68843 0.69515 0.47766 0.0
N392 N 0.67785 0.73885 0.41497 0.0
N393 N 0.70321 0.81478 0.35519 0.0
C394 C 0.71898 0.78493 0.39095 0.0
C395 C 0.64997 0.78694 0.35676 0.0
C396 C 0.63427 0.73956 0.39402 0.0
O397 O 0.75233 0.69864 0.44612 0.0
C398 C 0.67364 0.71695 0.63071 0.0
O399 O 0.62609 0.67367 0.6276 0.0
H400 H 0.75973 0.79766 0.40335 0.0
H401 H 0.59437 0.70932 0.4079 0.0
N402 N 0.63462 0.62232 0.47819 0.0
N403 N 0.58815 0.53654 0.51375 0.0
C404 C 0.62983 0.58666 0.52898 0.0
C405 C 0.59513 0.5936 0.42858 0.0
C406 C 0.56602 0.54048 0.45067 0.0
C407 C 0.76291 0.69021 0.38107 0.0
O408 O 0.80848 0.69363 0.36991 0.0
H409 H 0.65604 0.59764 0.5765 0.0
H410 H 0.58802 0.61015 0.37991 0.0
O411 O 0.70329 0.73006 0.57509 0.0
H412 H 0.62458 0.80059 0.33505 0.0
H413 H 0.53107 0.50785 0.42313 0.0
loop_
_geom_bond_atom_site_label_1
_geom_bond_atom_site_label_2
_geom_bond_distance
_geom_bond_site_symmetry_2
_ccdc_geom_bond_type
Cu0 N1 1.999 . S
Cu0 O6 1.974 . S
Cu0 N11 1.985 1_455 S
Cu0 O20 1.959 . S
N1 Cu0 1.999 . S
N1 C3 1.263 . S
N1 C5 1.389 . S
N2 C3 1.358 . S
N2 C4 1.400 . S
C3 N1 1.263 . S
C3 N2 1.358 . S
C3 H9 0.930 . S
C4 N2 1.400 . S
C4 C5 1.351 . S
C4 H21 0.930 . S
C5 N1 1.389 . S
C5 C4 1.351 . S
C5 H10 0.930 . S
O6 Cu0 1.974 . S
O6 C16 1.282 1_455 S
C7 O8 1.261 . S
C7 O20 1.251 . S
O8 C7 1.261 . S
H9 C3 0.930 . S
H10 C5 0.930 . S
N11 Cu0 1.985 1_655 S
N11 C13 1.335 . S
N11 C14 1.390 . S
N12 C13 1.345 . S
N12 C15 1.336 . S
C13 N11 1.335 . S
C13 N12 1.345 . S
C13 H18 0.930 . S
C14 N11 1.390 . S
C14 C15 1.346 . S
C14 H19 0.930 . S
C15 N12 1.336 . S
C15 C14 1.346 . S
C15 H22 0.929 . S
C16 O6 1.282 1_655 S
C16 O17 1.215 1_655 S
O17 C16 1.215 1_455 S
H18 C13 0.930 . S
H19 C14 0.930 . S
O20 Cu0 1.959 . S
O20 C7 1.251 . S
H21 C4 0.930 . S
H22 C15 0.929 . S
Cu23 N24 1.999 . S
Cu23 O29 1.974 . S
Cu23 N34 1.985 . S
Cu23 O43 1.959 . S
N24 Cu23 1.999 . S
N24 C26 1.263 . S
N24 C28 1.389 . S
N25 C26 1.358 . S
N25 C27 1.400 . S
C26 N24 1.263 . S
C26 N25 1.358 . S
C26 H32 0.930 . S
C27 N25 1.400 . S
C27 C28 1.351 . S
C27 H44 0.930 . S
C28 N24 1.389 . S
C28 C27 1.351 . S
C28 H33 0.930 . S
O29 Cu23 1.974 . S
O29 C39 1.282 . S
C30 O31 1.261 . S
C30 O43 1.251 . S
O31 C30 1.261 . S
H32 C26 0.930 . S
H33 C28 0.930 . S
N34 Cu23 1.985 . S
N34 C36 1.335 . S
N34 C37 1.390 . S
N35 C36 1.345 . S
N35 C38 1.336 . S
C36 N34 1.335 . S
C36 N35 1.345 . S
C36 H41 0.930 . S
C37 N34 1.390 . S
C37 C38 1.346 . S
C37 H42 0.930 . S
C38 N35 1.336 . S
C38 C37 1.346 . S
C38 H45 0.929 . S
C39 O29 1.282 . S
C39 O40 1.216 . S
O40 C39 1.216 . S
H41 C36 0.930 . S
H42 C37 0.930 . S
O43 Cu23 1.959 . S
O43 C30 1.251 . S
H44 C27 0.930 . S
H45 C38 0.929 . S
Cu46 N47 1.999 1_545 S
Cu46 O52 1.974 . S
Cu46 N57 1.985 . S
Cu46 O66 1.959 1_545 S
N47 Cu46 1.999 1_565 S
N47 C49 1.263 . S
N47 C51 1.389 . S
N48 C49 1.358 . S
N48 C50 1.400 . S
C49 N47 1.263 . S
C49 N48 1.358 . S
C49 H55 0.930 . S
C50 N48 1.400 . S
C50 C51 1.351 . S
C50 H67 0.930 . S
C51 N47 1.389 . S
C51 C50 1.351 . S
C51 H56 0.930 . S
O52 Cu46 1.974 . S
O52 C62 1.282 . S
C53 O54 1.261 . S
C53 O66 1.251 . S
O54 C53 1.261 . S
H55 C49 0.930 . S
H56 C51 0.930 . S
N57 Cu46 1.985 . S
N57 C59 1.335 . S
N57 C60 1.390 . S
N58 C59 1.345 . S
N58 C61 1.336 . S
C59 N57 1.335 . S
C59 N58 1.345 . S
C59 H64 0.930 . S
C60 N57 1.390 . S
C60 C61 1.346 . S
C60 H65 0.930 . S
C61 N58 1.336 . S
C61 C60 1.346 . S
C61 H68 0.929 . S
C62 O52 1.282 . S
C62 O63 1.216 . S
O63 C62 1.216 . S
H64 C59 0.930 . S
H65 C60 0.930 . S
O66 Cu46 1.959 1_565 S
O66 C53 1.251 . S
H67 C50 0.930 . S
H68 C61 0.929 . S
Cu69 N70 1.999 1_455 S
Cu69 O75 1.974 . S
Cu69 N80 1.985 . S
Cu69 O89 1.959 . S
N70 Cu69 1.999 1_655 S
N70 C72 1.263 . S
N70 C74 1.389 . S
N71 C72 1.358 . S
N71 C73 1.400 . S
C72 N70 1.263 . S
C72 N71 1.358 . S
C72 H78 0.930 . S
C73 N71 1.400 . S
C73 C74 1.351 . S
C73 H90 0.930 . S
C74 N70 1.389 . S
C74 C73 1.351 . S
C74 H79 0.930 . S
O75 Cu69 1.974 . S
O75 C85 1.282 . S
C76 O77 1.261 . S
C76 O89 1.251 1_655 S
O77 C76 1.261 . S
H78 C72 0.930 . S
H79 C74 0.930 . S
N80 Cu69 1.985 . S
N80 C82 1.335 . S
N80 C83 1.390 . S
N81 C82 1.345 . S
N81 C84 1.336 . S
C82 N80 1.335 . S
C82 N81 1.345 . S
C82 H87 0.930 . S
C83 N80 1.390 . S
C83 C84 1.346 . S
C83 H88 0.930 . S
C84 N81 1.336 . S
C84 C83 1.346 . S
C84 H91 0.929 . S
C85 O75 1.282 . S
C85 O86 1.216 . S
O86 C85 1.216 . S
H87 C82 0.930 . S
H88 C83 0.930 . S
O89 Cu69 1.959 . S
O89 C76 1.251 1_455 S
H90 C73 0.930 . S
H91 C84 0.929 . S
Cu92 N93 1.999 . S
Cu92 O98 1.974 . S
Cu92 N103 1.985 . S
Cu92 O112 1.959 . S
N93 Cu92 1.999 . S
N93 C95 1.263 . S
N93 C97 1.389 . S
N94 C95 1.358 . S
N94 C96 1.400 . S
C95 N93 1.263 . S
C95 N94 1.358 . S
C95 H101 0.930 . S
C96 N94 1.400 . S
C96 C97 1.351 . S
C96 H113 0.930 . S
C97 N93 1.389 . S
C97 C96 1.351 . S
C97 H102 0.930 . S
O98 Cu92 1.974 . S
O98 C108 1.282 . S
C99 O100 1.261 . S
C99 O112 1.251 . S
O100 C99 1.261 . S
H101 C95 0.930 . S
H102 C97 0.930 . S
N103 Cu92 1.985 . S
N103 C105 1.335 . S
N103 C106 1.390 . S
N104 C105 1.345 . S
N104 C107 1.336 . S
C105 N103 1.335 . S
C105 N104 1.345 . S
C105 H110 0.930 . S
C106 N103 1.390 . S
C106 C107 1.346 . S
C106 H111 0.930 . S
C107 N104 1.336 . S
C107 C106 1.346 . S
C107 H114 0.929 . S
C108 O98 1.282 . S
C108 O109 1.216 . S
O109 C108 1.216 . S
H110 C105 0.930 . S
H111 C106 0.930 . S
O112 Cu92 1.959 . S
O112 C99 1.251 . S
H113 C96 0.930 . S
H114 C107 0.929 . S
Cu115 N116 1.999 . S
Cu115 O121 1.974 1_545 S
Cu115 N126 1.985 1_545 S
Cu115 O135 1.959 . S
N116 Cu115 1.999 . S
N116 C118 1.263 . S
N116 C120 1.389 . S
N117 C118 1.358 . S
N117 C119 1.400 . S
C118 N116 1.263 . S
C118 N117 1.358 . S
C118 H124 0.930 . S
C119 N117 1.400 . S
C119 C120 1.351 . S
C119 H136 0.930 . S
C120 N116 1.389 . S
C120 C119 1.351 . S
C120 H125 0.930 . S
O121 Cu115 1.974 1_565 S
O121 C131 1.282 . S
C122 O123 1.261 . S
C122 O135 1.251 . S
O123 C122 1.261 . S
H124 C118 0.930 . S
H125 C120 0.930 . S
N126 Cu115 1.985 1_565 S
N126 C128 1.335 . S
N126 C129 1.390 . S
N127 C128 1.345 . S
N127 C130 1.336 . S
C128 N126 1.335 . S
C128 N127 1.345 . S
C128 H133 0.930 . S
C129 N126 1.390 . S
C129 C130 1.346 . S
C129 H134 0.930 . S
C130 N127 1.336 . S
C130 C129 1.346 . S
C130 H137 0.929 . S
C131 O121 1.282 . S
C131 O132 1.216 . S
O132 C131 1.216 . S
H133 C128 0.930 . S
H134 C129 0.930 . S
O135 Cu115 1.959 . S
O135 C122 1.251 . S
H136 C119 0.930 . S
H137 C130 0.929 . S
Cu138 N139 1.999 . S
Cu138 O144 1.974 . S
Cu138 N149 1.985 . S
Cu138 O158 1.959 . S
N139 Cu138 1.999 . S
N139 C141 1.263 . S
N139 C143 1.389 . S
N140 C141 1.358 1_565 S
N140 C142 1.400 1_565 S
C141 N139 1.263 . S
C141 N140 1.358 1_545 S
C141 H147 0.933 . S
C142 N140 1.400 1_545 S
C142 C143 1.351 . S
C142 H159 0.930 . S
C143 N139 1.389 . S
C143 C142 1.351 . S
C143 H148 0.930 . S
O144 Cu138 1.974 . S
O144 C154 1.282 . S
C145 O146 1.261 1_545 S
C145 O158 1.251 . S
O146 C145 1.261 1_565 S
H147 C141 0.933 . S
H148 C143 0.930 . S
N149 Cu138 1.985 . S
N149 C151 1.335 . S
N149 C152 1.390 . S
N150 C151 1.345 . S
N150 C153 1.336 . S
C151 N149 1.335 . S
C151 N150 1.345 . S
C151 H156 0.930 . S
C152 N149 1.390 . S
C152 C153 1.346 . S
C152 H157 0.930 . S
C153 N150 1.336 . S
C153 C152 1.346 . S
C153 H160 0.929 . S
C154 O144 1.282 . S
C154 O155 1.216 . S
O155 C154 1.216 . S
H156 C151 0.930 . S
H157 C152 0.930 . S
O158 Cu138 1.959 . S
O158 C145 1.251 . S
H159 C142 0.930 . S
H160 C153 0.929 . S
Cu161 N162 1.999 . S
Cu161 O167 1.974 . S
Cu161 N172 1.985 . S
Cu161 O181 1.959 . S
N162 Cu161 1.999 . S
N162 C164 1.263 1_655 S
N162 C166 1.389 . S
N163 C164 1.358 . S
N163 C165 1.400 . S
C164 N162 1.263 1_455 S
C164 N163 1.358 . S
C164 H170 0.930 . S
C165 N163 1.400 . S
C165 C166 1.351 1_455 S
C165 H182 0.930 . S
C166 N162 1.389 . S
C166 C165 1.351 1_655 S
C166 H171 0.930 . S
O167 Cu161 1.974 . S
O167 C177 1.282 . S
C168 O169 1.261 1_655 S
C168 O181 1.251 . S
O169 C168 1.261 1_455 S
H170 C164 0.930 . S
H171 C166 0.930 . S
N172 Cu161 1.985 . S
N172 C174 1.335 . S
N172 C175 1.390 . S
N173 C174 1.345 . S
N173 C176 1.336 . S
C174 N172 1.335 . S
C174 N173 1.345 . S
C174 H179 0.930 . S
C175 N172 1.390 . S
C175 C176 1.346 . S
C175 H180 0.930 . S
C176 N173 1.336 . S
C176 C175 1.346 . S
C176 H183 0.929 . S
C177 O167 1.282 . S
C177 O178 1.216 1_655 S
O178 C177 1.216 1_455 S
H179 C174 0.930 . S
H180 C175 0.930 . S
O181 Cu161 1.959 . S
O181 C168 1.251 . S
H182 C165 0.930 . S
H183 C176 0.929 . S
Cu184 N185 1.999 . S
Cu184 O190 1.974 . S
Cu184 N195 1.985 . S
Cu184 O204 1.959 . S
N185 Cu184 1.999 . S
N185 C187 1.263 . S
N185 C189 1.389 . S
N186 C187 1.358 . S
N186 C188 1.400 . S
C187 N185 1.263 . S
C187 N186 1.358 . S
C187 H193 0.930 . S
C188 N186 1.400 . S
C188 C189 1.351 . S
C188 H205 0.930 . S
C189 N185 1.389 . S
C189 C188 1.351 . S
C189 H194 0.930 . S
O190 Cu184 1.974 . S
O190 C200 1.282 . S
C191 O192 1.261 . S
C191 O204 1.251 . S
O192 C191 1.261 . S
H193 C187 0.930 . S
H194 C189 0.930 . S
N195 Cu184 1.985 . S
N195 C197 1.335 . S
N195 C198 1.390 . S
N196 C197 1.345 . S
N196 C199 1.336 . S
C197 N195 1.335 . S
C197 N196 1.345 . S
C197 H202 0.930 . S
C198 N195 1.390 . S
C198 C199 1.346 . S
C198 H203 0.930 . S
C199 N196 1.336 . S
C199 C198 1.346 . S
C199 H206 0.929 . S
C200 O190 1.282 . S
C200 O201 1.216 . S
O201 C200 1.216 . S
H202 C197 0.930 . S
H203 C198 0.930 . S
O204 Cu184 1.959 . S
O204 C191 1.251 . S
H205 C188 0.930 . S
H206 C199 0.929 . S
Cu207 N208 1.999 . S
Cu207 O213 1.974 1_554 S
Cu207 N218 1.985 . S
Cu207 O227 1.959 . S
N208 Cu207 1.999 . S
N208 C210 1.263 . S
N208 C212 1.389 . S
N209 C210 1.358 . S
N209 C211 1.400 . S
C210 N208 1.263 . S
C210 N209 1.358 . S
C210 H216 0.930 1_554 S
C211 N209 1.400 . S
C211 C212 1.351 . S
C211 H228 0.930 . S
C212 N208 1.389 . S
C212 C211 1.351 . S
C212 H217 0.930 . S
O213 Cu207 1.974 1_556 S
O213 C223 1.282 . S
C214 O215 1.261 . S
C214 O227 1.251 . S
O215 C214 1.261 . S
H216 C210 0.930 1_556 S
H217 C212 0.930 . S
N218 Cu207 1.985 . S
N218 C220 1.335 . S
N218 C221 1.390 . S
N219 C220 1.345 . S
N219 C222 1.336 . S
C220 N218 1.335 . S
C220 N219 1.345 . S
C220 H225 0.930 . S
C221 N218 1.390 . S
C221 C222 1.346 . S
C221 H226 0.930 . S
C222 N219 1.336 . S
C222 C221 1.346 . S
C222 H229 0.929 . S
C223 O213 1.282 . S
C223 O224 1.216 . S
O224 C223 1.216 . S
H225 C220 0.930 . S
H226 C221 0.930 . S
O227 Cu207 1.959 . S
O227 C214 1.251 . S
H228 C211 0.930 . S
H229 C222 0.929 . S
Cu230 N231 1.999 . S
Cu230 O236 1.974 1_554 S
Cu230 N241 1.985 . S
Cu230 O250 1.959 . S
N231 Cu230 1.999 . S
N231 C233 1.263 . S
N231 C235 1.389 . S
N232 C233 1.358 1_565 S
N232 C234 1.400 1_565 S
C233 N231 1.263 . S
C233 N232 1.358 1_545 S
C233 H239 0.930 1_554 S
C234 N232 1.400 1_545 S
C234 C235 1.351 . S
C234 H251 0.930 . S
C235 N231 1.389 . S
C235 C234 1.351 . S
C235 H240 0.930 . S
O236 Cu230 1.974 1_556 S
O236 C246 1.282 . S
C237 O238 1.261 1_545 S
C237 O250 1.251 . S
O238 C237 1.261 1_565 S
H239 C233 0.930 1_556 S
H240 C235 0.930 . S
N241 Cu230 1.985 . S
N241 C243 1.335 . S
N241 C244 1.390 . S
N242 C243 1.345 . S
N242 C245 1.336 . S
C243 N241 1.335 . S
C243 N242 1.345 . S
C243 H248 0.930 . S
C244 N241 1.390 . S
C244 C245 1.346 . S
C244 H249 0.930 . S
C245 N242 1.336 . S
C245 C244 1.346 . S
C245 H252 0.929 . S
C246 O236 1.282 . S
C246 O247 1.216 . S
O247 C246 1.216 . S
H248 C243 0.930 . S
H249 C244 0.930 . S
O250 Cu230 1.959 . S
O250 C237 1.251 . S
H251 C234 0.930 . S
H252 C245 0.929 . S
Cu253 N254 1.999 . S
Cu253 O259 1.974 1_554 S
Cu253 N264 1.985 . S
Cu253 O273 1.959 . S
N254 Cu253 1.999 . S
N254 C256 1.263 1_655 S
N254 C258 1.389 . S
N255 C256 1.358 . S
N255 C257 1.400 . S
C256 N254 1.263 1_455 S
C256 N255 1.358 . S
C256 H262 0.930 1_554 S
C257 N255 1.400 . S
C257 C258 1.351 1_455 S
C257 H274 0.930 . S
C258 N254 1.389 . S
C258 C257 1.351 1_655 S
C258 H263 0.930 . S
O259 Cu253 1.974 1_556 S
O259 C269 1.282 . S
C260 O261 1.261 1_655 S
C260 O273 1.251 . S
O261 C260 1.261 1_455 S
H262 C256 0.930 1_556 S
H263 C258 0.930 . S
N264 Cu253 1.985 . S
N264 C266 1.335 . S
N264 C267 1.390 . S
N265 C266 1.345 . S
N265 C268 1.336 . S
C266 N264 1.335 . S
C266 N265 1.345 . S
C266 H271 0.930 . S
C267 N264 1.390 . S
C267 C268 1.346 . S
C267 H272 0.930 . S
C268 N265 1.336 . S
C268 C267 1.346 . S
C268 H275 0.929 . S
C269 O259 1.282 . S
C269 O270 1.216 1_655 S
O270 C269 1.216 1_455 S
H271 C266 0.930 . S
H272 C267 0.930 . S
O273 Cu253 1.959 . S
O273 C260 1.251 . S
H274 C257 0.930 . S
H275 C268 0.929 . S
Cu276 N277 1.999 . S
Cu276 O282 1.974 1_556 S
Cu276 N287 1.985 . S
Cu276 O296 1.959 . S
N277 Cu276 1.999 . S
N277 C279 1.263 . S
N277 C281 1.389 . S
N278 C279 1.358 . S
N278 C280 1.400 . S
C279 N277 1.263 . S
C279 N278 1.358 . S
C279 H285 0.930 1_556 S
C280 N278 1.400 . S
C280 C281 1.351 . S
C280 H297 0.930 . S
C281 N277 1.389 . S
C281 C280 1.351 . S
C281 H286 0.930 . S
O282 Cu276 1.974 1_554 S
O282 C292 1.282 . S
C283 O284 1.261 . S
C283 O296 1.251 . S
O284 C283 1.261 . S
H285 C279 0.930 1_554 S
H286 C281 0.930 . S
N287 Cu276 1.985 . S
N287 C289 1.335 . S
N287 C290 1.390 . S
N288 C289 1.345 . S
N288 C291 1.336 . S
C289 N287 1.335 . S
C289 N288 1.345 . S
C289 H294 0.930 . S
C290 N287 1.390 . S
C290 C291 1.346 . S
C290 H295 0.930 . S
C291 N288 1.336 . S
C291 C290 1.346 . S
C291 H298 0.929 . S
C292 O282 1.282 . S
C292 O293 1.216 . S
O293 C292 1.216 . S
H294 C289 0.930 . S
H295 C290 0.930 . S
O296 Cu276 1.959 . S
O296 C283 1.251 . S
H297 C280 0.930 . S
H298 C291 0.929 . S
Cu299 N300 1.999 . S
Cu299 O305 1.974 . S
Cu299 N310 1.985 . S
Cu299 O319 1.959 1_556 S
N300 Cu299 1.999 . S
N300 C302 1.263 . S
N300 C304 1.389 . S
N301 C302 1.358 . S
N301 C303 1.400 . S
C302 N300 1.263 . S
C302 N301 1.358 . S
C302 H308 0.930 . S
C303 N301 1.400 . S
C303 C304 1.351 . S
C303 H320 0.930 . S
C304 N300 1.389 . S
C304 C303 1.351 . S
C304 H309 0.930 . S
O305 Cu299 1.974 . S
O305 C315 1.282 . S
C306 O307 1.261 1_565 S
C306 O319 1.251 . S
O307 C306 1.261 1_545 S
H308 C302 0.930 . S
H309 C304 0.930 . S
N310 Cu299 1.985 . S
N310 C312 1.335 . S
N310 C313 1.390 1_565 S
N311 C312 1.345 1_545 S
N311 C314 1.336 . S
C312 N310 1.335 . S
C312 N311 1.345 1_565 S
C312 H317 0.930 1_556 S
C313 N310 1.390 1_545 S
C313 C314 1.346 . S
C313 H318 0.930 . S
C314 N311 1.336 . S
C314 C313 1.346 . S
C314 H321 0.929 . S
C315 O305 1.282 . S
C315 O316 1.216 1_565 S
O316 C315 1.216 1_545 S
H317 C312 0.930 1_554 S
H318 C313 0.930 . S
O319 Cu299 1.959 1_554 S
O319 C306 1.251 . S
H320 C303 0.930 . S
H321 C314 0.929 . S
Cu322 N323 1.999 . S
Cu322 O328 1.974 1_556 S
Cu322 N333 1.985 . S
Cu322 O342 1.959 . S
N323 Cu322 1.999 . S
N323 C325 1.263 . S
N323 C327 1.389 . S
N324 C325 1.358 1_655 S
N324 C326 1.400 1_655 S
C325 N323 1.263 . S
C325 N324 1.358 1_455 S
C325 H331 0.930 1_556 S
C326 N324 1.400 1_455 S
C326 C327 1.351 . S
C326 H343 0.930 . S
C327 N323 1.389 . S
C327 C326 1.351 . S
C327 H332 0.930 . S
O328 Cu322 1.974 1_554 S
O328 C338 1.282 . S
C329 O330 1.261 1_455 S
C329 O342 1.251 . S
O330 C329 1.261 1_655 S
H331 C325 0.930 1_554 S
H332 C327 0.930 . S
N333 Cu322 1.985 . S
N333 C335 1.335 . S
N333 C336 1.390 . S
N334 C335 1.345 . S
N334 C337 1.336 . S
C335 N333 1.335 . S
C335 N334 1.345 . S
C335 H340 0.930 . S
C336 N333 1.390 . S
C336 C337 1.346 . S
C336 H341 0.930 . S
C337 N334 1.336 . S
C337 C336 1.346 . S
C337 H344 0.929 . S
C338 O328 1.282 . S
C338 O339 1.216 . S
O339 C338 1.216 . S
H340 C335 0.930 . S
H341 C336 0.930 . S
O342 Cu322 1.959 . S
O342 C329 1.251 . S
H343 C326 0.930 . S
H344 C337 0.929 . S
Cu345 N346 1.999 . S
Cu345 O351 1.974 . S
Cu345 N356 1.985 . S
Cu345 O365 1.959 . S
N346 Cu345 1.999 . S
N346 C348 1.263 . S
N346 C350 1.389 . S
N347 C348 1.358 . S
N347 C349 1.400 . S
C348 N346 1.263 . S
C348 N347 1.358 . S
C348 H354 0.930 . S
C349 N347 1.400 . S
C349 C350 1.351 . S
C349 H366 0.930 . S
C350 N346 1.389 . S
C350 C349 1.351 . S
C350 H355 0.930 . S
O351 Cu345 1.974 . S
O351 C361 1.282 . S
C352 O353 1.261 1_565 S
C352 O365 1.251 . S
O353 C352 1.261 1_545 S
H354 C348 0.930 . S
H355 C350 0.930 . S
N356 Cu345 1.985 . S
N356 C358 1.335 . S
N356 C359 1.390 1_565 S
N357 C358 1.345 1_545 S
N357 C360 1.336 . S
C358 N356 1.335 . S
C358 N357 1.345 1_565 S
C358 H363 0.930 . S
C359 N356 1.390 1_545 S
C359 C360 1.346 . S
C359 H364 0.930 . S
C360 N357 1.336 . S
C360 C359 1.346 . S
C360 H367 0.929 . S
C361 O351 1.282 . S
C361 O362 1.216 1_565 S
O362 C361 1.216 1_545 S
H363 C358 0.930 . S
H364 C359 0.930 . S
O365 Cu345 1.959 . S
O365 C352 1.251 . S
H366 C349 0.930 . S
H367 C360 0.929 . S
Cu368 N369 1.999 . S
Cu368 O374 1.974 . S
Cu368 N379 1.985 . S
Cu368 O388 1.959 . S
N369 Cu368 1.999 . S
N369 C371 1.263 . S
N369 C373 1.389 . S
N370 C371 1.358 1_655 S
N370 C372 1.400 1_655 S
C371 N369 1.263 . S
C371 N370 1.358 1_455 S
C371 H377 0.929 . S
C372 N370 1.400 1_455 S
C372 C373 1.351 . S
C372 H389 0.930 . S
C373 N369 1.389 . S
C373 C372 1.351 . S
C373 H378 0.930 . S
O374 Cu368 1.974 . S
O374 C384 1.282 . S
C375 O376 1.261 1_455 S
C375 O388 1.251 . S
O376 C375 1.261 1_655 S
H377 C371 0.929 . S
H378 C373 0.930 . S
N379 Cu368 1.985 . S
N379 C381 1.335 . S
N379 C382 1.390 . S
N380 C381 1.345 . S
N380 C383 1.336 . S
C381 N379 1.335 . S
C381 N380 1.345 . S
C381 H386 0.930 . S
C382 N379 1.390 . S
C382 C383 1.346 . S
C382 H387 0.930 . S
C383 N380 1.336 . S
C383 C382 1.346 . S
C383 H390 0.929 . S
C384 O374 1.282 . S
C384 O385 1.216 . S
O385 C384 1.216 . S
H386 C381 0.930 . S
H387 C382 0.930 . S
O388 Cu368 1.959 . S
O388 C375 1.251 . S
H389 C372 0.930 . S
H390 C383 0.929 . S
Cu391 N392 1.999 . S
Cu391 O397 1.974 . S
Cu391 N402 1.985 . S
Cu391 O411 1.959 . S
N392 Cu391 1.999 . S
N392 C394 1.263 . S
N392 C396 1.389 . S
N393 C394 1.358 . S
N393 C395 1.400 . S
C394 N392 1.263 . S
C394 N393 1.358 . S
C394 H400 0.930 . S
C395 N393 1.400 . S
C395 C396 1.351 . S
C395 H412 0.930 . S
C396 N392 1.389 . S
C396 C395 1.351 . S
C396 H401 0.930 . S
O397 Cu391 1.974 . S
O397 C407 1.282 . S
C398 O399 1.261 . S
C398 O411 1.251 . S
O399 C398 1.261 . S
H400 C394 0.930 . S
H401 C396 0.930 . S
N402 Cu391 1.985 . S
N402 C404 1.335 . S
N402 C405 1.390 . S
N403 C404 1.345 . S
N403 C406 1.336 . S
C404 N402 1.335 . S
C404 N403 1.345 . S
C404 H409 0.930 . S
C405 N402 1.390 . S
C405 C406 1.346 . S
C405 H410 0.930 . S
C406 N403 1.336 . S
C406 C405 1.346 . S
C406 H413 0.929 . S
C407 O397 1.282 . S
C407 O408 1.216 . S
O408 C407 1.216 . S
H409 C404 0.930 . S
H410 C405 0.930 . S
O411 Cu391 1.959 . S
O411 C398 1.251 . S
H412 C395 0.930 . S
H413 C406 0.929 . S
C7 C338 1.835 . S
C292 C39 1.711 . S
C53 C306 1.958 . S
C154 C62 1.713 . S
C177 C16 1.711 . S
C200 C30 1.819 . S
C76 C269 1.817 . S
C223 C108 1.710 . S
C246 C122 1.819 . S
C131 C352 1.835 . S
C85 C384 1.711 . S
C398 C99 1.958 . S
C283 C191 1.957 . S
C145 C315 1.848 1_545 S
C329 C168 1.956 1_455 S
C407 C214 1.850 . S
C237 C361 1.850 1_545 S
C375 C260 1.957 1_455 S
N347 N2 1.852 . S
N35 N380 2.425 . S
N48 N393 1.881 . S
N58 N265 2.394 . S
N219 N12 2.384 . S
N25 N242 2.140 . S
N150 N71 2.115 . S
N173 N104 2.368 . S
N117 N196 2.125 . S
N127 N334 2.402 . S
N81 N288 2.377 . S
N94 N301 1.836 . S
N186 N403 2.119 . S
N140 N357 2.108 1_565 S
N370 N163 1.887 1_655 S
N278 N209 1.859 1_556 S
N311 N232 2.091 1_546 S
N324 N255 1.869 1_656 S
