# Generated by pormake.
# Topology lcs, (4)-cn, num edge types: 1
# Building blocks:
#     Node 0, Type 0, BuildingBlock: QUQFOY_clean_sbu_1, # of connection points: 4
#     Node 1, Type 0, BuildingBlock: QUQFOY_clean_sbu_1, # of connection points: 4
#     Node 2, Type 0, BuildingBlock: QUQFOY_clean_sbu_1, # of connection points: 4
#     Node 3, Type 0, BuildingBlock: QUQFOY_clean_sbu_1, # of connection points: 4
#     Node 4, Type 0, BuildingBlock: QUQFOY_clean_sbu_1, # of connection points: 4
#     Node 5, Type 0, BuildingBlock: QUQFOY_clean_sbu_1, # of connection points: 4
#     Node 6, Type 0, BuildingBlock: QUQFOY_clean_sbu_1, # of connection points: 4
#     Node 7, Type 0, BuildingBlock: QUQFOY_clean_sbu_1, # of connection points: 4
#     Node 8, Type 0, BuildingBlock: QUQFOY_clean_sbu_1, # of connection points: 4
#     Node 9, Type 0, BuildingBlock: QUQFOY_clean_sbu_1, # of connection points: 4
#     Node 10, Type 0, BuildingBlock: QUQFOY_clean_sbu_1, # of connection points: 4
#     Node 11, Type 0, BuildingBlock: QUQFOY_clean_sbu_1, # of connection points: 4
#     Node 12, Type 0, BuildingBlock: QUQFOY_clean_sbu_1, # of connection points: 4
#     Node 13, Type 0, BuildingBlock: QUQFOY_clean_sbu_1, # of connection points: 4
#     Node 14, Type 0, BuildingBlock: QUQFOY_clean_sbu_1, # of connection points: 4
#     Node 15, Type 0, BuildingBlock: QUQFOY_clean_sbu_1, # of connection points: 4
#     Node 16, Type 0, BuildingBlock: QUQFOY_clean_sbu_1, # of connection points: 4
#     Node 17, Type 0, BuildingBlock: QUQFOY_clean_sbu_1, # of connection points: 4
#     Node 18, Type 0, BuildingBlock: QUQFOY_clean_sbu_1, # of connection points: 4
#     Node 19, Type 0, BuildingBlock: QUQFOY_clean_sbu_1, # of connection points: 4
#     Node 20, Type 0, BuildingBlock: QUQFOY_clean_sbu_1, # of connection points: 4
#     Node 21, Type 0, BuildingBlock: QUQFOY_clean_sbu_1, # of connection points: 4
#     Node 22, Type 0, BuildingBlock: QUQFOY_clean_sbu_1, # of connection points: 4
#     Node 23, Type 0, BuildingBlock: QUQFOY_clean_sbu_1, # of connection points: 4
#     Edge 24, Type (0, 0), BuildingBlock: MIFKUJ_clean_linker_0, # of connection points: 2
#     Edge 25, Type (0, 0), BuildingBlock: MIFKUJ_clean_linker_0, # of connection points: 2
#     Edge 26, Type (0, 0), BuildingBlock: MIFKUJ_clean_linker_0, # of connection points: 2
#     Edge 27, Type (0, 0), BuildingBlock: MIFKUJ_clean_linker_0, # of connection points: 2
#     Edge 28, Type (0, 0), BuildingBlock: MIFKUJ_clean_linker_0, # of connection points: 2
#     Edge 29, Type (0, 0), BuildingBlock: MIFKUJ_clean_linker_0, # of connection points: 2
#     Edge 30, Type (0, 0), BuildingBlock: MIFKUJ_clean_linker_0, # of connection points: 2
#     Edge 31, Type (0, 0), BuildingBlock: MIFKUJ_clean_linker_0, # of connection points: 2
#     Edge 32, Type (0, 0), BuildingBlock: MIFKUJ_clean_linker_0, # of connection points: 2
#     Edge 33, Type (0, 0), BuildingBlock: MIFKUJ_clean_linker_0, # of connection points: 2
#     Edge 34, Type (0, 0), BuildingBlock: MIFKUJ_clean_linker_0, # of connection points: 2
#     Edge 35, Type (0, 0), BuildingBlock: MIFKUJ_clean_linker_0, # of connection points: 2
#     Edge 36, Type (0, 0), BuildingBlock: MIFKUJ_clean_linker_0, # of connection points: 2
#     Edge 37, Type (0, 0), BuildingBlock: MIFKUJ_clean_linker_0, # of connection points: 2
#     Edge 38, Type (0, 0), BuildingBlock: MIFKUJ_clean_linker_0, # of connection points: 2
#     Edge 39, Type (0, 0), BuildingBlock: MIFKUJ_clean_linker_0, # of connection points: 2
#     Edge 40, Type (0, 0), BuildingBlock: MIFKUJ_clean_linker_0, # of connection points: 2
#     Edge 41, Type (0, 0), BuildingBlock: MIFKUJ_clean_linker_0, # of connection points: 2
#     Edge 42, Type (0, 0), BuildingBlock: MIFKUJ_clean_linker_0, # of connection points: 2
#     Edge 43, Type (0, 0), BuildingBlock: MIFKUJ_clean_linker_0, # of connection points: 2
#     Edge 44, Type (0, 0), BuildingBlock: MIFKUJ_clean_linker_0, # of connection points: 2
#     Edge 45, Type (0, 0), BuildingBlock: MIFKUJ_clean_linker_0, # of connection points: 2
#     Edge 46, Type (0, 0), BuildingBlock: MIFKUJ_clean_linker_0, # of connection points: 2
#     Edge 47, Type (0, 0), BuildingBlock: MIFKUJ_clean_linker_0, # of connection points: 2
#     Edge 48, Type (0, 0), BuildingBlock: MIFKUJ_clean_linker_0, # of connection points: 2
#     Edge 49, Type (0, 0), BuildingBlock: MIFKUJ_clean_linker_0, # of connection points: 2
#     Edge 50, Type (0, 0), BuildingBlock: MIFKUJ_clean_linker_0, # of connection points: 2
#     Edge 51, Type (0, 0), BuildingBlock: MIFKUJ_clean_linker_0, # of connection points: 2
#     Edge 52, Type (0, 0), BuildingBlock: MIFKUJ_clean_linker_0, # of connection points: 2
#     Edge 53, Type (0, 0), BuildingBlock: MIFKUJ_clean_linker_0, # of connection points: 2
#     Edge 54, Type (0, 0), BuildingBlock: MIFKUJ_clean_linker_0, # of connection points: 2
#     Edge 55, Type (0, 0), BuildingBlock: MIFKUJ_clean_linker_0, # of connection points: 2
#     Edge 56, Type (0, 0), BuildingBlock: MIFKUJ_clean_linker_0, # of connection points: 2
#     Edge 57, Type (0, 0), BuildingBlock: MIFKUJ_clean_linker_0, # of connection points: 2
#     Edge 58, Type (0, 0), BuildingBlock: MIFKUJ_clean_linker_0, # of connection points: 2
#     Edge 59, Type (0, 0), BuildingBlock: MIFKUJ_clean_linker_0, # of connection points: 2
#     Edge 60, Type (0, 0), BuildingBlock: MIFKUJ_clean_linker_0, # of connection points: 2
#     Edge 61, Type (0, 0), BuildingBlock: MIFKUJ_clean_linker_0, # of connection points: 2
#     Edge 62, Type (0, 0), BuildingBlock: MIFKUJ_clean_linker_0, # of connection points: 2
#     Edge 63, Type (0, 0), BuildingBlock: MIFKUJ_clean_linker_0, # of connection points: 2
#     Edge 64, Type (0, 0), BuildingBlock: MIFKUJ_clean_linker_0, # of connection points: 2
#     Edge 65, Type (0, 0), BuildingBlock: MIFKUJ_clean_linker_0, # of connection points: 2
#     Edge 66, Type (0, 0), BuildingBlock: MIFKUJ_clean_linker_0, # of connection points: 2
#     Edge 67, Type (0, 0), BuildingBlock: MIFKUJ_clean_linker_0, # of connection points: 2
#     Edge 68, Type (0, 0), BuildingBlock: MIFKUJ_clean_linker_0, # of connection points: 2
#     Edge 69, Type (0, 0), BuildingBlock: MIFKUJ_clean_linker_0, # of connection points: 2
#     Edge 70, Type (0, 0), BuildingBlock: MIFKUJ_clean_linker_0, # of connection points: 2
#     Edge 71, Type (0, 0), BuildingBlock: MIFKUJ_clean_linker_0, # of connection points: 2
# Relax obj value: 0.051
# Max RMSD: 0.116
# Mean RMSD: 0.114
data_MOF--net-lcs--node1-QUQFOY_clean_sbu_1--edge1-MIFKUJ_clean_linker_0
_symmetry_space_group_name_H-M    P1
_symmetry_Int_Tables_number       1
_symmetry_cell_setting            triclinic
loop_
_symmetry_equiv_pos_as_xyz
'x, y, z'
_cell_length_a     66.155674
_cell_length_b     66.132014
_cell_length_c     66.095118
_cell_angle_alpha  94.345471
_cell_angle_beta   94.400037
_cell_angle_gamma 94.386563
loop_
_atom_site_label
_atom_site_type_symbol
_atom_site_fract_x
_atom_site_fract_y
_atom_site_fract_z
_atom_type_partial_charge
O0 O 0.04798 0.26032 0.38557 0.0
Cd1 Cd 0.02442 0.26764 0.36588 0.0
Cd2 Cd 0.00319 0.26194 0.39908 0.0
O3 O 0.03202 0.26054 0.4137 0.0
O4 O 0.0377 0.28088 0.34357 0.0
O5 O 0.01837 0.29695 0.36423 0.0
C6 C 0.02982 0.29741 0.34925 0.0
C7 C 0.97823 0.28042 0.41363 0.0
C8 C 0.04816 0.25864 0.40462 0.0
C9 C 0.99373 0.23198 0.36187 0.0
O10 O 0.99151 0.23646 0.38058 0.0
O11 O 0.00542 0.24334 0.35234 0.0
O12 O 0.98388 0.26398 0.42085 0.0
O13 O 0.98752 0.28703 0.39863 0.0
O14 O 0.043 0.72866 0.63033 0.0
Cd15 Cd 0.02234 0.73915 0.64985 0.0
Cd16 Cd 0.01303 0.76096 0.61553 0.0
O17 O 0.03437 0.74382 0.60264 0.0
O18 O 0.02413 0.7204 0.67215 0.0
O19 O 0.99592 0.72242 0.65254 0.0
C20 C 0.00536 0.71414 0.6672 0.0
C21 C 0.98225 0.76678 0.5977 0.0
C22 C 0.04546 0.73198 0.61193 0.0
C23 C 0.02878 0.78484 0.65533 0.0
O24 O 0.02407 0.78467 0.63632 0.0
O25 O 0.0282 0.76834 0.66407 0.0
O26 O 0.99944 0.77499 0.59314 0.0
O27 O 0.98258 0.75424 0.61178 0.0
O28 O 0.54515 0.76014 0.8888 0.0
Cd29 Cd 0.5202 0.76843 0.87139 0.0
Cd30 Cd 0.50277 0.76327 0.90607 0.0
O31 O 0.53248 0.76335 0.91869 0.0
O32 O 0.53078 0.78108 0.84733 0.0
O33 O 0.51606 0.79832 0.87134 0.0
C34 C 0.52507 0.79814 0.85467 0.0
C35 C 0.47817 0.7826 0.92005 0.0
C36 C 0.54734 0.75997 0.90809 0.0
C37 C 0.49033 0.73255 0.87067 0.0
O38 O 0.49123 0.73646 0.88986 0.0
O39 O 0.49911 0.74489 0.85965 0.0
O40 O 0.48449 0.76706 0.92856 0.0
O41 O 0.48665 0.78788 0.90405 0.0
O42 O 0.54595 0.23297 0.13175 0.0
Cd43 Cd 0.52305 0.2426 0.14912 0.0
Cd44 Cd 0.51493 0.2626 0.11393 0.0
O45 O 0.5369 0.24534 0.10258 0.0
O46 O 0.52385 0.22536 0.17272 0.0
O47 O 0.49749 0.22387 0.1499 0.0
C48 C 0.50597 0.21734 0.16616 0.0
C49 C 0.48402 0.26649 0.09545 0.0
C50 C 0.54864 0.23508 0.11312 0.0
C51 C 0.52767 0.2884 0.153 0.0
O52 O 0.52513 0.2874 0.1337 0.0
O53 O 0.52599 0.27233 0.16238 0.0
O54 O 0.501 0.27483 0.09049 0.0
O55 O 0.4847 0.25489 0.11034 0.0
O56 O 0.03878 0.72588 0.1356 0.0
Cd57 Cd 0.02861 0.74849 0.11816 0.0
Cd58 Cd 0.00844 0.75651 0.15348 0.0
O59 O 0.02605 0.73468 0.16464 0.0
O60 O 0.04584 0.74811 0.09458 0.0
O61 O 0.0469 0.77435 0.1175 0.0
C62 C 0.05358 0.76607 0.10125 0.0
C63 C 0.0037 0.78668 0.1729 0.0
C64 C 0.03663 0.72318 0.15421 0.0
C65 C 0.98283 0.74334 0.11427 0.0
O66 O 0.98379 0.74622 0.13354 0.0
O67 O 0.9989 0.74493 0.1049 0.0
O68 O 0.99571 0.7693 0.17718 0.0
O69 O 0.01541 0.78687 0.15812 0.0
O70 O 0.51 0.72553 0.38127 0.0
Cd71 Cd 0.50237 0.74945 0.4005 0.0
Cd72 Cd 0.50917 0.76949 0.36677 0.0
O73 O 0.50978 0.74049 0.35254 0.0
O74 O 0.49 0.73601 0.42324 0.0
O75 O 0.47286 0.75468 0.40274 0.0
C76 C 0.4731 0.74336 0.41785 0.0
C77 C 0.49092 0.79486 0.35263 0.0
C78 C 0.51164 0.72468 0.36218 0.0
C79 C 0.5387 0.77933 0.40402 0.0
O80 O 0.53508 0.78036 0.38497 0.0
O81 O 0.52636 0.76909 0.41391 0.0
O82 O 0.50712 0.78898 0.34513 0.0
O83 O 0.4844 0.78557 0.36769 0.0
O84 O 0.53997 0.22686 0.63956 0.0
Cd85 Cd 0.53053 0.24844 0.6207 0.0
Cd86 Cd 0.50828 0.25834 0.65453 0.0
O87 O 0.52408 0.23549 0.66677 0.0
O88 O 0.54893 0.2476 0.59807 0.0
O89 O 0.54854 0.27447 0.62002 0.0
C90 C 0.55611 0.26582 0.60445 0.0
C91 C 0.504 0.28895 0.6735 0.0
C92 C 0.53586 0.22414 0.6577 0.0
C93 C 0.48473 0.24433 0.61413 0.0
O94 O 0.48444 0.24951 0.633 0.0
O95 O 0.50153 0.24347 0.60607 0.0
O96 O 0.49472 0.27196 0.67725 0.0
O97 O 0.51671 0.28843 0.65959 0.0
O98 O 0.0093 0.22233 0.87574 0.0
Cd99 Cd 0.00316 0.2459 0.89634 0.0
Cd100 Cd 0.00973 0.26728 0.86312 0.0
O101 O 0.01044 0.23881 0.84796 0.0
O102 O 0.9911 0.23213 0.91904 0.0
O103 O 0.97409 0.25206 0.89984 0.0
C104 C 0.97442 0.24029 0.91458 0.0
C105 C 0.99198 0.29329 0.84958 0.0
C106 C 0.01138 0.22238 0.85675 0.0
C107 C 0.04005 0.27521 0.9 0.0
O108 O 0.03576 0.27736 0.88127 0.0
O109 O 0.02805 0.26443 0.90978 0.0
O110 O 0.00843 0.28773 0.84237 0.0
O111 O 0.98489 0.28333 0.86394 0.0
O112 O 0.39301 0.04978 0.26335 0.0
Cd113 Cd 0.37096 0.02759 0.26921 0.0
Cd114 Cd 0.4018 1.00256 0.26077 0.0
O115 O 0.41778 0.03018 0.25704 0.0
O116 O 0.3498 0.04276 0.28243 0.0
O117 O 0.36736 0.02053 0.29802 0.0
C118 C 0.35369 0.03348 0.29857 0.0
C119 C 0.41648 0.97725 0.27879 0.0
C120 C 0.41098 0.0477 0.25838 0.0
C121 C 0.36296 0.99692 0.2329 0.0
O122 O 0.38076 0.99162 0.23715 0.0
O123 O 0.35584 0.01076 0.24404 0.0
O124 O 0.42215 0.98166 0.26132 0.0
O125 O 0.40295 0.98786 0.28659 0.0
O126 O 0.23427 0.13863 0.54547 0.0
Cd127 Cd 0.2437 0.15659 0.52328 0.0
Cd128 Cd 0.26247 0.12113 0.51228 0.0
O129 O 0.24527 0.10937 0.5345 0.0
O130 O 0.22535 0.17922 0.52399 0.0
O131 O 0.22635 0.15764 0.49693 0.0
C132 C 0.21853 0.17305 0.50559 0.0
C133 C 0.26662 0.10191 0.48174 0.0
C134 C 0.23581 0.11978 0.54715 0.0
C135 C 0.28902 0.16016 0.52676 0.0
O136 O 0.28763 0.14113 0.52169 0.0
O137 O 0.27314 0.16977 0.52765 0.0
O138 O 0.27492 0.0975 0.49895 0.0
O139 O 0.25488 0.11666 0.48194 0.0
O140 O 0.13439 0.03477 0.72305 0.0
Cd141 Cd 0.11757 0.02525 0.74635 0.0
Cd142 Cd 0.15318 0.0073 0.7552 0.0
O143 O 0.16452 0.026 0.73425 0.0
O144 O 0.09376 0.04214 0.74565 0.0
O145 O 0.11684 0.04405 0.77184 0.0
C146 C 0.10045 0.05037 0.76343 0.0
C147 C 0.1711 0.00331 0.78645 0.0
C148 C 0.15343 0.03461 0.72145 0.0
C149 C 0.11534 0.97987 0.74153 0.0
O150 O 0.13466 0.98182 0.74378 0.0
O151 O 0.1052 0.99533 0.74383 0.0
O152 O 0.17687 0.9958 0.76947 0.0
O153 O 0.15565 0.01414 0.78565 0.0
O154 O 0.22212 0.88006 0.00664 0.0
Cd155 Cd 0.24453 0.90201 1.00112 0.0
Cd156 Cd 0.26908 0.8708 0.00931 0.0
O157 O 0.2413 0.85479 0.01223 0.0
O158 O 0.22971 0.92336 0.9878 0.0
O159 O 0.25183 0.90554 0.9724 0.0
C160 C 0.23901 0.91932 0.97173 0.0
C161 C 0.29489 0.85633 0.99192 0.0
C162 C 0.22391 0.86186 0.01107 0.0
C163 C 0.27463 0.90927 0.03783 0.0
O164 O 0.27963 0.89138 0.03345 0.0
O165 O 0.26121 0.91683 0.02653 0.0
O166 O 0.28996 0.85043 0.00915 0.0
O167 O 0.28447 0.86992 0.98395 0.0
O168 O 0.26289 0.388 0.04565 0.0
Cd169 Cd 0.27026 0.36884 0.02154 0.0
Cd170 Cd 0.26363 0.40265 1.00186 0.0
O171 O 0.26335 0.41684 0.0309 0.0
O172 O 0.28268 0.346 0.03471 0.0
O173 O 0.29965 0.36654 0.01595 0.0
C174 C 0.29949 0.35137 0.02718 0.0
C175 C 0.28174 0.41671 0.97637 0.0
C176 C 0.26144 0.40712 0.04664 0.0
C177 C 0.23371 0.36575 0.99209 0.0
O178 O 0.23748 0.38478 0.99122 0.0
O179 O 0.24609 0.35563 1.00203 0.0
O180 O 0.2656 0.42426 0.98236 0.0
O181 O 0.28827 0.40163 0.9856 0.0
O182 O 0.7316 0.13994 0.04273 0.0
Cd183 Cd 0.75167 0.11988 0.0324 0.0
Cd184 Cd 0.76217 0.15365 0.00975 0.0
O185 O 0.74 0.16659 0.02592 0.0
O186 O 0.74973 0.09764 0.05122 0.0
O187 O 0.77804 0.11707 0.04921 0.0
C188 C 0.76852 0.10248 0.05752 0.0
C189 C 0.79274 0.17219 0.00444 0.0
C190 C 0.72906 0.15803 0.03838 0.0
C191 C 0.74605 0.1135 0.98659 0.0
O192 O 0.75235 0.1321 0.98623 0.0
O193 O 0.74489 0.10549 0.00341 0.0
O194 O 0.77559 0.17602 0.99554 0.0
O195 O 0.79245 0.15842 0.01731 0.0
O196 O 0.1353 0.54303 0.23019 0.0
Cd197 Cd 0.15424 0.52191 0.2409 0.0
Cd198 Cd 0.11963 0.51313 0.26218 0.0
O199 O 0.10736 0.53478 0.24504 0.0
O200 O 0.17671 0.52311 0.22236 0.0
O201 O 0.15636 0.49535 0.22423 0.0
C202 C 0.17133 0.50441 0.21608 0.0
C203 C 0.101 0.48259 0.26721 0.0
C204 C 0.11692 0.54576 0.23331 0.0
C205 C 0.15932 0.52786 0.28666 0.0
O206 O 0.14024 0.52358 0.28625 0.0
O207 O 0.16822 0.52723 0.27026 0.0
O208 O 0.09672 0.49979 0.27562 0.0
O209 O 0.11536 0.48279 0.25499 0.0
O210 O 0.76111 0.88988 0.55209 0.0
Cd211 Cd 0.76833 0.87124 0.52748 0.0
Cd212 Cd 0.76255 0.90546 0.50885 0.0
O213 O 0.76275 0.91916 0.53815 0.0
O214 O 0.78112 0.84802 0.53964 0.0
O215 O 0.79771 0.86961 0.52161 0.0
C216 C 0.79784 0.854 0.53225 0.0
C217 C 0.7813 0.9189 0.4835 0.0
C218 C 0.76031 0.9091 0.55359 0.0
C219 C 0.73177 0.86955 0.49821 0.0
O220 O 0.73585 0.88863 0.49807 0.0
O221 O 0.74403 0.85883 0.50756 0.0
O222 O 0.7657 0.92733 0.48973 0.0
O223 O 0.78696 0.9033 0.49245 0.0
O224 O 0.87823 0.00415 0.2263 0.0
Cd225 Cd 0.89946 0.99824 0.24914 0.0
Cd226 Cd 0.8677 0.00623 0.27284 0.0
O227 O 0.85234 0.0094 0.24472 0.0
O228 O 0.9212 0.98532 0.23466 0.0
O229 O 0.90288 0.9694 0.25609 0.0
C230 C 0.91698 0.96905 0.24359 0.0
C231 C 0.85292 0.98848 0.29824 0.0
C232 C 0.85996 0.00855 0.22757 0.0
C233 C 0.90608 0.0347 0.27948 0.0
O234 O 0.88806 0.03032 0.28408 0.0
O235 O 0.91392 0.02349 0.26621 0.0
O236 O 0.84692 0.00566 0.29329 0.0
O237 O 0.86672 0.98072 0.28798 0.0
O238 O 0.22806 0.63695 0.53759 0.0
Cd239 Cd 0.24998 0.61868 0.52736 0.0
Cd240 Cd 0.25825 0.65361 0.50657 0.0
O241 O 0.23653 0.66549 0.52383 0.0
O242 O 0.24875 0.59582 0.54551 0.0
O243 O 0.27623 0.61681 0.54473 0.0
C244 C 0.26724 0.60146 0.55235 0.0
C245 C 0.28901 0.67208 0.50198 0.0
C246 C 0.22524 0.65542 0.53491 0.0
C247 C 0.2442 0.61411 0.48161 0.0
O248 O 0.2477 0.63332 0.48226 0.0
O249 O 0.2455 0.60495 0.49785 0.0
O250 O 0.27191 0.67672 0.49361 0.0
O251 O 0.28856 0.65748 0.51393 0.0
O252 O 0.38254 0.5098 0.72352 0.0
Cd253 Cd 0.40121 0.50213 0.7479 0.0
Cd254 Cd 0.36685 0.50739 0.76675 0.0
O255 O 0.35326 0.50766 0.73742 0.0
O256 O 0.42458 0.48996 0.73549 0.0
O257 O 0.40321 0.4726 0.75311 0.0
C258 C 0.41886 0.47298 0.74253 0.0
C259 C 0.35286 0.48865 0.79183 0.0
C260 C 0.36332 0.51048 0.72206 0.0
C261 C 0.40287 0.538 0.77802 0.0
O262 O 0.3838 0.53386 0.77813 0.0
O263 O 0.41353 0.52603 0.76827 0.0
O264 O 0.34478 0.50445 0.78562 0.0
O265 O 0.36839 0.48273 0.78295 0.0
O266 O 0.63146 0.04365 0.73484 0.0
Cd267 Cd 0.65053 0.0232 0.74638 0.0
Cd268 Cd 0.61575 0.01251 0.76596 0.0
O269 O 0.60327 0.03407 0.74861 0.0
O270 O 0.67361 0.02444 0.72854 0.0
O271 O 0.65358 0.99646 0.73039 0.0
C272 C 0.66865 0.00561 0.72247 0.0
C273 C 0.59906 0.9805 0.76867 0.0
C274 C 0.61283 0.04562 0.73735 0.0
C275 C 0.65374 0.02882 0.79225 0.0
O276 O 0.63487 0.02309 0.79123 0.0
O277 O 0.6631 0.02943 0.77615 0.0
O278 O 0.59235 0.99683 0.7766 0.0
O279 O 0.61475 0.98234 0.75825 0.0
O280 O 0.73161 0.63459 0.04351 0.0
Cd281 Cd 0.74225 0.65317 0.02203 0.0
Cd282 Cd 0.76317 0.61859 0.01349 0.0
O283 O 0.74587 0.60637 0.03504 0.0
O284 O 0.72389 0.6758 0.0228 0.0
O285 O 0.72552 0.65493 0.99538 0.0
C286 C 0.71754 0.67015 0.00417 0.0
C287 C 0.76763 0.6004 0.98257 0.0
C288 C 0.73445 0.61613 0.04619 0.0
C289 C 0.78796 0.65805 0.0281 0.0
O290 O 0.78744 0.63891 0.02409 0.0
O291 O 0.77163 0.66705 0.02718 0.0
O292 O 0.7761 0.59564 0.99959 0.0
O293 O 0.75569 0.61498 0.98319 0.0
O294 O 0.88771 0.54631 0.76037 0.0
Cd295 Cd 0.86697 0.52368 0.76773 0.0
Cd296 Cd 0.89934 0.50063 0.76049 0.0
O297 O 0.91476 0.52889 0.75807 0.0
O298 O 0.84547 0.53845 0.78072 0.0
O299 O 0.86442 0.51778 0.79702 0.0
C300 C 0.85022 0.53016 0.79728 0.0
C301 C 0.91448 0.47486 0.77739 0.0
C302 C 0.9064 0.54558 0.75731 0.0
C303 C 0.86062 0.49316 0.73191 0.0
O304 O 0.87903 0.48963 0.73611 0.0
O305 O 0.85216 0.50573 0.74333 0.0
O306 O 0.9199 0.47997 0.76004 0.0
O307 O 0.90109 0.48515 0.78583 0.0
O308 O 0.72377 0.37638 0.50584 0.0
Cd309 Cd 0.74567 0.39829 0.49917 0.0
Cd310 Cd 0.7708 0.36762 0.50727 0.0
O311 O 0.74342 0.35149 0.51146 0.0
O312 O 0.73005 0.41931 0.48628 0.0
O313 O 0.75183 0.40175 0.47007 0.0
C314 C 0.73882 0.41537 0.46985 0.0
C315 C 0.79601 0.353 0.48916 0.0
C316 C 0.72593 0.35838 0.51069 0.0
C317 C 0.7767 0.40653 0.53501 0.0
O318 O 0.78194 0.38872 0.53077 0.0
O319 O 0.76279 0.41365 0.52396 0.0
O320 O 0.79184 0.34747 0.50676 0.0
O321 O 0.78517 0.36632 0.48129 0.0
O322 O 0.63563 0.53947 0.22589 0.0
Cd323 Cd 0.61647 0.52893 0.2469 0.0
Cd324 Cd 0.6508 0.50725 0.25574 0.0
O325 O 0.66336 0.52432 0.23418 0.0
O326 O 0.59428 0.54781 0.24575 0.0
O327 O 0.61446 0.54554 0.27355 0.0
C328 C 0.59967 0.55396 0.26448 0.0
C329 C 0.66903 0.50207 0.28648 0.0
C330 C 0.65397 0.53616 0.2232 0.0
C331 C 0.61093 0.48322 0.24064 0.0
O332 O 0.62998 0.48343 0.24508 0.0
O333 O 0.60219 0.49972 0.2413 0.0
O334 O 0.67347 0.49364 0.26934 0.0
O335 O 0.65477 0.51438 0.2861 0.0
H336 H 0.07085 0.47799 0.29285 0.0
H337 H 0.05653 0.4465 0.30506 0.0
H338 H 0.09375 0.41191 0.26689 0.0
H339 H 0.10812 0.44346 0.25443 0.0
H340 H 0.05496 0.3934 0.26696 0.0
H341 H 0.1084 0.42245 0.31648 0.0
H342 H 0.1266 0.44958 0.34024 0.0
H343 H 0.07414 0.45248 0.37445 0.0
H344 H 0.05552 0.42556 0.35073 0.0
H345 H 0.05297 0.30237 0.31725 0.0
H346 H 0.06237 0.33378 0.30191 0.0
H347 H 0.02686 0.36693 0.34312 0.0
H348 H 0.01756 0.33547 0.3588 0.0
H349 H 0.06356 0.38657 0.34132 0.0
H350 H 0.01043 0.35672 0.29267 0.0
H351 H 0.99205 0.32974 0.26891 0.0
H352 H 0.04349 0.32835 0.23311 0.0
H353 H 0.0623 0.35514 0.25682 0.0
C354 C 0.07586 0.46369 0.28684 0.0
C355 C 0.09075 0.46327 0.27274 0.0
C356 C 0.0677 0.44569 0.29392 0.0
C357 C 0.07431 0.42687 0.28715 0.0
C358 C 0.08849 0.42628 0.27239 0.0
C359 C 0.0967 0.44433 0.26529 0.0
C360 C 0.06698 0.40795 0.29609 0.0
C361 C 0.05704 0.3918 0.28318 0.0
C362 C 0.06926 0.40605 0.31733 0.0
C363 C 0.08049 0.42214 0.3317 0.0
C364 C 0.10069 0.42898 0.32898 0.0
C365 C 0.11109 0.4443 0.34246 0.0
C366 C 0.10151 0.45279 0.35881 0.0
C367 C 0.08153 0.44592 0.36176 0.0
C368 C 0.07105 0.43062 0.34831 0.0
C369 C 0.04701 0.31629 0.32299 0.0
C370 C 0.03447 0.31638 0.33925 0.0
C371 C 0.05234 0.33426 0.31412 0.0
C372 C 0.04517 0.35272 0.32119 0.0
C373 C 0.03255 0.35286 0.33736 0.0
C374 C 0.02719 0.33485 0.34626 0.0
C375 C 0.05152 0.37195 0.3122 0.0
C376 C 0.06135 0.38817 0.3251 0.0
C377 C 0.04912 0.37391 0.29096 0.0
C378 C 0.03784 0.35782 0.27663 0.0
C379 C 0.01788 0.35055 0.27982 0.0
C380 C 0.00738 0.33531 0.26634 0.0
C381 C 0.01661 0.3273 0.24954 0.0
C382 C 0.03636 0.33455 0.24615 0.0
C383 C 0.04694 0.34978 0.25959 0.0
H384 H 0.00845 0.3155 0.23912 0.0
H385 H 0.10956 0.46465 0.36921 0.0
H386 H 0.97741 0.79369 0.5687 0.0
H387 H 0.94593 0.8069 0.55572 0.0
H388 H 0.91164 0.76766 0.59224 0.0
H389 H 0.9432 0.75421 0.6053 0.0
H390 H 0.89243 0.76938 0.55391 0.0
H391 H 0.92283 0.81659 0.60855 0.0
H392 H 0.95038 0.8394 0.6273 0.0
H393 H 0.95318 0.87583 0.57635 0.0
H394 H 0.92582 0.85306 0.55718 0.0
H395 H 0.8023 0.8211 0.55432 0.0
H396 H 0.83342 0.80503 0.56312 0.0
H397 H 0.86719 0.84712 0.52897 0.0
H398 H 0.83604 0.86354 0.52032 0.0
H399 H 0.88693 0.84373 0.56528 0.0
H400 H 0.85578 0.79701 0.51092 0.0
H401 H 0.82824 0.77415 0.49225 0.0
H402 H 0.82674 0.73682 0.5426 0.0
H403 H 0.85411 0.75962 0.5617 0.0
C404 C 0.96318 0.78766 0.57384 0.0
C405 C 0.96286 0.77295 0.58815 0.0
C406 C 0.94518 0.79532 0.56645 0.0
C407 C 0.92645 0.78852 0.57325 0.0
C408 C 0.92594 0.77319 0.58684 0.0
C409 C 0.94399 0.76552 0.5943 0.0
C410 C 0.90757 0.79797 0.5667 0.0
C411 C 0.89112 0.7856 0.55661 0.0
C412 C 0.90602 0.81921 0.56981 0.0
C413 C 0.92241 0.83299 0.58135 0.0
C414 C 0.92943 0.82937 0.60128 0.0
C415 C 0.94499 0.84231 0.612 0.0
C416 C 0.95357 0.85902 0.603 0.0
C417 C 0.94655 0.86286 0.58329 0.0
C418 C 0.931 0.84995 0.5725 0.0
C419 C 0.8163 0.82688 0.54853 0.0
C420 C 0.81664 0.8436 0.53656 0.0
C421 C 0.8341 0.8176 0.55352 0.0
C422 C 0.85266 0.82469 0.54654 0.0
C423 C 0.85306 0.84133 0.53451 0.0
C424 C 0.83522 0.85066 0.52951 0.0
C425 C 0.87172 0.81515 0.55242 0.0
C426 C 0.88823 0.82752 0.56247 0.0
C427 C 0.87329 0.79391 0.54927 0.0
C428 C 0.85688 0.78013 0.53781 0.0
C429 C 0.84948 0.78401 0.51808 0.0
C430 C 0.83391 0.77105 0.50741 0.0
C431 C 0.82571 0.75407 0.51625 0.0
C432 C 0.83309 0.74999 0.53577 0.0
C433 C 0.84865 0.76291 0.54652 0.0
H434 H 0.81366 0.74405 0.50797 0.0
H435 H 0.96562 0.86901 0.61131 0.0
H436 H 0.44334 0.5487 0.78897 0.0
H437 H 0.45868 0.58107 0.80597 0.0
H438 H 0.39925 0.60378 0.8065 0.0
H439 H 0.38385 0.57132 0.79043 0.0
H440 H 0.4616 0.6177 0.79597 0.0
H441 H 0.39582 0.63725 0.84595 0.0
H442 H 0.36964 0.61935 0.86424 0.0
H443 H 0.40612 0.56863 0.86855 0.0
H444 H 0.43263 0.58632 0.85054 0.0
H445 H 0.47723 0.72193 0.83062 0.0
H446 H 0.46239 0.68863 0.81553 0.0
H447 H 0.4673 0.6651 0.87472 0.0
H448 H 0.48113 0.69847 0.88993 0.0
H449 H 0.43403 0.65029 0.8569 0.0
H450 H 0.50186 0.65571 0.83694 0.0
H451 H 0.53172 0.6712 0.82192 0.0
H452 H 0.49774 0.66763 0.76355 0.0
H453 H 0.46758 0.65235 0.7783 0.0
C454 C 0.43356 0.56056 0.79289 0.0
C455 C 0.41237 0.55737 0.78854 0.0
C456 C 0.44234 0.57909 0.80253 0.0
C457 C 0.43012 0.59483 0.80782 0.0
C458 C 0.40899 0.59175 0.80311 0.0
C459 C 0.4002 0.57316 0.79382 0.0
C460 C 0.43938 0.6146 0.81797 0.0
C461 C 0.4556 0.62479 0.80933 0.0
C462 C 0.43191 0.62373 0.83568 0.0
C463 C 0.41612 0.61305 0.84671 0.0
C464 C 0.39829 0.62231 0.85087 0.0
C465 C 0.38339 0.61219 0.86118 0.0
C466 C 0.38619 0.59284 0.8675 0.0
C467 C 0.40394 0.58359 0.86358 0.0
C468 C 0.41889 0.59365 0.8533 0.0
C469 C 0.47498 0.70967 0.8404 0.0
C470 C 0.48036 0.71284 0.86146 0.0
C471 C 0.46665 0.69059 0.83175 0.0
C472 C 0.46405 0.67416 0.8439 0.0
C473 C 0.4691 0.67746 0.86498 0.0
C474 C 0.47704 0.69659 0.87368 0.0
C475 C 0.45611 0.65353 0.83478 0.0
C476 C 0.44009 0.64319 0.84358 0.0
C477 C 0.46431 0.64392 0.81771 0.0
C478 C 0.48241 0.65307 0.80877 0.0
C479 C 0.50071 0.65836 0.82093 0.0
C480 C 0.5177 0.66708 0.81246 0.0
C481 C 0.51661 0.67045 0.79181 0.0
C482 C 0.49855 0.66504 0.77956 0.0
C483 C 0.48151 0.65633 0.78796 0.0
H484 H 0.52977 0.6772 0.78528 0.0
H485 H 0.37463 0.58503 0.87546 0.0
H486 H 0.57368 0.20819 0.1291 0.0
H487 H 0.60443 0.19633 0.11567 0.0
H488 H 0.59514 0.23134 0.06375 0.0
H489 H 0.56398 0.24283 0.07682 0.0
H490 H 0.60811 0.19616 0.05184 0.0
H491 H 0.63011 0.24826 0.10456 0.0
H492 H 0.63208 0.26608 0.13889 0.0
H493 H 0.65613 0.2143 0.16457 0.0
H494 H 0.65404 0.19605 0.13041 0.0
H495 H 0.71029 0.19035 0.02416 0.0
H496 H 0.67998 0.20491 0.03634 0.0
H497 H 0.67927 0.16379 0.08392 0.0
H498 H 0.70933 0.14903 0.07177 0.0
H499 H 0.67215 0.20421 0.09706 0.0
H500 H 0.64859 0.15207 0.04337 0.0
H501 H 0.64732 0.13546 0.00855 0.0
H502 H 0.62706 0.18948 0.98414 0.0
H503 H 0.62852 0.20653 0.01882 0.0
C504 C 0.57807 0.21327 0.11474 0.0
C505 C 0.5664 0.22659 0.10412 0.0
C506 C 0.59575 0.20657 0.10713 0.0
C507 C 0.60241 0.21329 0.0889 0.0
C508 C 0.59041 0.22601 0.07789 0.0
C509 C 0.57258 0.23258 0.0854 0.0
C510 C 0.62201 0.20728 0.08157 0.0
C511 C 0.62215 0.19823 0.06166 0.0
C512 C 0.64039 0.20977 0.09437 0.0
C513 C 0.64175 0.22072 0.11494 0.0
C514 C 0.63568 0.24062 0.11754 0.0
C515 C 0.63684 0.25081 0.13697 0.0
C516 C 0.64418 0.24131 0.1539 0.0
C517 C 0.65043 0.22163 0.15144 0.0
C518 C 0.64928 0.21136 0.13204 0.0
C519 C 0.70384 0.1846 0.03738 0.0
C520 C 0.71218 0.16848 0.04695 0.0
C521 C 0.68647 0.19286 0.04424 0.0
C522 C 0.67729 0.1853 0.06092 0.0
C523 C 0.68609 0.16982 0.07101 0.0
C524 C 0.70325 0.16138 0.06401 0.0
C525 C 0.65812 0.19295 0.06751 0.0
C526 C 0.65809 0.20231 0.08727 0.0
C527 C 0.63994 0.19095 0.0545 0.0
C528 C 0.63889 0.18066 0.03367 0.0
C529 C 0.64403 0.16047 0.03056 0.0
C530 C 0.64325 0.15096 0.01086 0.0
C531 C 0.63718 0.16143 0.99414 0.0
C532 C 0.63181 0.18141 0.9971 0.0
C533 C 0.6326 0.191 0.01678 0.0
H534 H 0.63659 0.15404 0.97889 0.0
H535 H 0.64506 0.24923 0.16893 0.0
H536 H 0.08346 0.56409 0.24505 0.0
H537 H 0.06944 0.59411 0.23196 0.0
H538 H 0.11395 0.59567 0.18753 0.0
H539 H 0.12853 0.56617 0.20112 0.0
H540 H 0.11234 0.63187 0.20357 0.0
H541 H 0.06129 0.57985 0.17549 0.0
H542 H 0.03581 0.55068 0.17594 0.0
H543 H 1.00158 0.58624 0.21593 0.0
H544 H 0.027 0.61556 0.21592 0.0
H545 H 0.06521 0.69964 0.13916 0.0
H546 H 0.07853 0.66974 0.1533 0.0
H547 H 0.04156 0.67703 0.20389 0.0
H548 H 0.02822 0.70708 0.18994 0.0
H549 H 0.03887 0.63696 0.1854 0.0
H550 H 0.09045 0.68934 0.21211 0.0
H551 H 0.11585 0.71826 0.2101 0.0
H552 H 0.14901 0.68119 0.1704 0.0
H553 H 0.12364 0.65211 0.17195 0.0
C554 C 0.09012 0.57068 0.23234 0.0
C555 C 0.10711 0.56272 0.22413 0.0
C556 C 0.08203 0.58785 0.2248 0.0
C557 C 0.09046 0.59713 0.20857 0.0
C558 C 0.10718 0.58889 0.20009 0.0
C559 C 0.11546 0.57195 0.20783 0.0
C560 C 0.08248 0.61588 0.20095 0.0
C561 C 0.0963 0.63281 0.19932 0.0
C562 C 0.06147 0.61743 0.19584 0.0
C563 C 0.04616 0.59983 0.19586 0.0
C564 C 0.04841 0.5814 0.1845 0.0
C565 C 0.03397 0.56485 0.18466 0.0
C566 C 0.01712 0.56659 0.196 0.0
C567 C 0.01465 0.58491 0.20717 0.0
C568 C 0.02906 0.6015 0.20708 0.0
C569 C 0.06 0.695 0.15337 0.0
C570 C 0.04567 0.7058 0.16343 0.0
C571 C 0.06766 0.67791 0.16145 0.0
C572 C 0.06107 0.67119 0.17967 0.0
C573 C 0.04683 0.68196 0.1898 0.0
C574 C 0.03932 0.6992 0.18186 0.0
C575 C 0.06876 0.65269 0.18789 0.0
C576 C 0.05489 0.63589 0.18966 0.0
C577 C 0.08973 0.65115 0.19289 0.0
C578 C 0.10503 0.6686 0.19199 0.0
C579 C 0.10306 0.6874 0.20281 0.0
C580 C 0.11747 0.70381 0.20178 0.0
C581 C 0.134 0.70158 0.19009 0.0
C582 C 0.13618 0.6829 0.17943 0.0
C583 C 0.1218 0.66645 0.1804 0.0
H584 H 0.14514 0.7143 0.18931 0.0
H585 H 0.00595 0.55376 0.19611 0.0
H586 H 0.54853 0.78803 0.44502 0.0
H587 H 0.58068 0.80413 0.4618 0.0
H588 H 0.60485 0.80801 0.40326 0.0
H589 H 0.57261 0.79282 0.38645 0.0
H590 H 0.61737 0.79401 0.46487 0.0
H591 H 0.6384 0.84794 0.40264 0.0
H592 H 0.62108 0.86764 0.37727 0.0
H593 H 0.56946 0.86965 0.41277 0.0
H594 H 0.58657 0.8502 0.43848 0.0
H595 H 0.72149 0.82955 0.48463 0.0
H596 H 0.68847 0.81445 0.46898 0.0
H597 H 0.66424 0.87319 0.4754 0.0
H598 H 0.69736 0.88842 0.4899 0.0
H599 H 0.6505 0.85692 0.44149 0.0
H600 H 0.65423 0.833 0.50796 0.0
H601 H 0.66903 0.81629 0.53709 0.0
H602 H 0.66664 0.75986 0.49995 0.0
H603 H 0.65206 0.7763 0.47052 0.0
C604 C 0.56066 0.79249 0.43574 0.0
C605 C 0.55793 0.78934 0.41439 0.0
C606 C 0.57906 0.80161 0.44535 0.0
C607 C 0.59515 0.80758 0.43381 0.0
C608 C 0.59254 0.80406 0.41251 0.0
C609 C 0.57408 0.79529 0.40291 0.0
C610 C 0.61475 0.81731 0.44395 0.0
C611 C 0.62458 0.80781 0.45979 0.0
C612 C 0.62404 0.83555 0.43768 0.0
C613 C 0.61371 0.84744 0.42238 0.0
C614 C 0.62339 0.85265 0.40507 0.0
C615 C 0.6136 0.86376 0.39062 0.0
C616 C 0.59416 0.86983 0.39338 0.0
C617 C 0.58449 0.86487 0.41062 0.0
C618 C 0.59422 0.85378 0.42512 0.0
C619 C 0.70911 0.83921 0.4826 0.0
C620 C 0.71203 0.86017 0.48845 0.0
C621 C 0.69018 0.83055 0.4738 0.0
C622 C 0.67365 0.84259 0.47127 0.0
C623 C 0.67667 0.86354 0.47708 0.0
C624 C 0.69566 0.87225 0.48541 0.0
C625 C 0.65326 0.83357 0.46237 0.0
C626 C 0.6433 0.84317 0.44666 0.0
C627 C 0.6435 0.81588 0.46933 0.0
C628 C 0.65224 0.80593 0.487 0.0
C629 C 0.65699 0.81706 0.50597 0.0
C630 C 0.66532 0.80763 0.52254 0.0
C631 C 0.66882 0.78704 0.52036 0.0
C632 C 0.66395 0.77582 0.50161 0.0
C633 C 0.65563 0.78517 0.48499 0.0
H634 H 0.67527 0.77977 0.5332 0.0
H635 H 0.5866 0.87842 0.38217 0.0
H636 H 0.51852 0.32778 0.66714 0.0
H637 H 0.50696 0.35977 0.68143 0.0
H638 H 0.46558 0.32615 0.71642 0.0
H639 H 0.47728 0.29428 0.70257 0.0
H640 H 0.47011 0.37281 0.67687 0.0
H641 H 0.45641 0.35419 0.7593 0.0
H642 H 0.47117 0.33441 0.78611 0.0
H643 H 0.52904 0.33984 0.76084 0.0
H644 H 0.51472 0.35988 0.73406 0.0
H645 H 0.40979 0.43426 0.75344 0.0
H646 H 0.42641 0.4035 0.74366 0.0
H647 H 0.46883 0.43913 0.71153 0.0
H648 H 0.45223 0.46977 0.72099 0.0
H649 H 0.46496 0.39211 0.7502 0.0
H650 H 0.47882 0.41171 0.66835 0.0
H651 H 0.46378 0.43128 0.64149 0.0
H652 H 0.40547 0.4234 0.66555 0.0
H653 H 0.4201 0.40356 0.69236 0.0
C654 C 0.50722 0.32723 0.67816 0.0
C655 C 0.49886 0.30845 0.68372 0.0
C656 C 0.50055 0.34553 0.68624 0.0
C657 C 0.48547 0.34544 0.70013 0.0
C658 C 0.47747 0.32671 0.70603 0.0
C659 C 0.48414 0.30845 0.69801 0.0
C660 C 0.47717 0.36476 0.70744 0.0
C661 C 0.46936 0.3772 0.69293 0.0
C662 C 0.47558 0.37025 0.72838 0.0
C663 C 0.48442 0.35838 0.74455 0.0
C664 C 0.47231 0.35123 0.75951 0.0
C665 C 0.48059 0.33996 0.77469 0.0
C666 C 0.50101 0.33581 0.77514 0.0
C667 C 0.5132 0.34299 0.76043 0.0
C668 C 0.505 0.35428 0.74523 0.0
C669 C 0.42273 0.43555 0.74438 0.0
C670 C 0.42958 0.45447 0.73788 0.0
C671 C 0.43224 0.41797 0.73885 0.0
C672 C 0.4487 0.41894 0.72662 0.0
C673 C 0.45595 0.43792 0.72067 0.0
C674 C 0.44646 0.45546 0.72617 0.0
C675 C 0.458 0.4001 0.71962 0.0
C676 C 0.46589 0.38775 0.73416 0.0
C677 C 0.45965 0.39464 0.6987 0.0
C678 C 0.45063 0.40635 0.68249 0.0
C679 C 0.46278 0.4141 0.66786 0.0
C680 C 0.45433 0.42525 0.65265 0.0
C681 C 0.4337 0.42865 0.65186 0.0
C682 C 0.42147 0.42083 0.66623 0.0
C683 C 0.42984 0.40966 0.68145 0.0
H684 H 0.42719 0.43729 0.64009 0.0
H685 H 0.50739 0.32708 0.7869 0.0
H686 H 0.97163 0.21748 0.94713 0.0
H687 H 0.94144 0.20816 0.96446 0.0
H688 H 0.90559 0.2428 0.92461 0.0
H689 H 0.93594 0.25251 0.90731 0.0
H690 H 0.89535 0.24823 0.96342 0.0
H691 H 0.9042 0.19122 0.91655 0.0
H692 H 0.92286 0.16431 0.9004 0.0
H693 H 0.932 0.13843 0.95772 0.0
H694 H 0.91362 0.16536 0.97428 0.0
H695 H 0.79753 0.20157 0.97791 0.0
H696 H 0.82906 0.21523 0.96534 0.0
H697 H 0.86342 0.17918 0.00507 0.0
H698 H 0.83178 0.16514 0.01753 0.0
H699 H 0.87492 0.17495 0.96732 0.0
H700 H 0.86451 0.23154 0.01388 0.0
H701 H 0.84543 0.25839 0.02952 0.0
H702 H 0.83863 0.28498 0.97235 0.0
H703 H 0.85744 0.25812 0.95629 0.0
C704 C 0.95736 0.22323 0.94208 0.0
C705 C 0.95619 0.23564 0.92572 0.0
C706 C 0.94007 0.21781 0.95198 0.0
C707 C 0.92114 0.2245 0.94565 0.0
C708 C 0.92001 0.2374 0.92972 0.0
C709 C 0.93736 0.2429 0.91982 0.0
C710 C 0.90251 0.21759 0.95536 0.0
C711 C 0.89074 0.23221 0.96407 0.0
C712 C 0.89671 0.19668 0.95663 0.0
C713 C 0.90771 0.18043 0.9467 0.0
C714 C 0.91032 0.17988 0.92575 0.0
C715 C 0.92083 0.16461 0.91651 0.0
C716 C 0.92866 0.1497 0.92804 0.0
C717 C 0.92595 0.15 0.94882 0.0
C718 C 0.91548 0.16526 0.95813 0.0
C719 C 0.8118 0.19673 0.98422 0.0
C720 C 0.8121 0.18223 0.99875 0.0
C721 C 0.82986 0.20465 0.97705 0.0
C722 C 0.84869 0.19838 0.98434 0.0
C723 C 0.84909 0.18427 0.99922 0.0
C724 C 0.83099 0.17632 0.0064 0.0
C725 C 0.86773 0.20557 0.97548 0.0
C726 C 0.87957 0.19099 0.96683 0.0
C727 C 0.87351 0.22649 0.97422 0.0
C728 C 0.86223 0.2427 0.98384 0.0
C729 C 0.85881 0.24301 0.0046 0.0
C730 C 0.84807 0.25826 0.01355 0.0
C731 C 0.84078 0.27335 1.00193 0.0
C732 C 0.84427 0.27327 0.98134 0.0
C733 C 0.85499 0.25805 0.97231 0.0
H734 H 0.83247 0.28514 0.00888 0.0
H735 H 0.93678 0.13789 0.92086 0.0
H736 H 0.25591 0.11067 0.44259 0.0
H737 H 0.26856 0.09617 0.41126 0.0
H738 H 0.30229 0.05525 0.44586 0.0
H739 H 0.28995 0.06982 0.47718 0.0
H740 H 0.32602 0.07385 0.42133 0.0
H741 H 0.25978 0.03812 0.41378 0.0
H742 H 0.22231 0.03445 0.4122 0.0
H743 H 0.21913 0.07081 0.36109 0.0
H744 H 0.25661 0.07493 0.36254 0.0
H745 H 0.35898 0.0176 0.33565 0.0
H746 H 0.3422 0.02644 0.36652 0.0
H747 H 0.30785 0.06875 0.3345 0.0
H748 H 0.32428 0.0598 0.3036 0.0
H749 H 0.28404 0.04784 0.35798 0.0
H750 H 0.34991 0.08511 0.36665 0.0
H751 H 0.38737 0.08927 0.3682 0.0
H752 H 0.39112 0.05042 0.41732 0.0
H753 H 0.35364 0.04581 0.41588 0.0
C754 C 0.26574 0.09836 0.44349 0.0
C755 C 0.27193 0.09145 0.46242 0.0
C756 C 0.27295 0.09004 0.42554 0.0
C757 C 0.28637 0.07454 0.42615 0.0
C758 C 0.29202 0.06722 0.44497 0.0
C759 C 0.28487 0.07553 0.46288 0.0
C760 C 0.2955 0.06683 0.40744 0.0
C761 C 0.31681 0.06783 0.4076 0.0
C762 C 0.28355 0.05945 0.38931 0.0
C763 C 0.26101 0.05699 0.38839 0.0
C764 C 0.2511 0.04548 0.40231 0.0
C765 C 0.22986 0.04329 0.40141 0.0
C766 C 0.21835 0.05244 0.38659 0.0
C767 C 0.22806 0.06375 0.37258 0.0
C768 C 0.24931 0.066 0.37342 0.0
C769 C 0.34778 0.0287 0.33516 0.0
C770 C 0.34307 0.03806 0.31717 0.0
C771 C 0.33824 0.0338 0.35284 0.0
C772 C 0.32391 0.04845 0.35293 0.0
C773 C 0.31884 0.05742 0.33484 0.0
C774 C 0.32833 0.05233 0.31719 0.0
C775 C 0.31453 0.05487 0.37192 0.0
C776 C 0.29322 0.0537 0.37178 0.0
C777 C 0.32646 0.06215 0.39008 0.0
C778 C 0.34898 0.06494 0.391 0.0
C779 C 0.35872 0.07732 0.37767 0.0
C780 C 0.37996 0.07978 0.37855 0.0
C781 C 0.39162 0.07007 0.39281 0.0
C782 C 0.38206 0.05791 0.40626 0.0
C783 C 0.36083 0.05538 0.40543 0.0
H784 H 0.40806 0.07199 0.39347 0.0
H785 H 0.2019 0.05072 0.38592 0.0
H786 H 0.19378 0.04429 0.71654 0.0
H787 H 0.20832 0.0589 0.68738 0.0
H788 H 0.14809 0.05882 0.65724 0.0
H789 H 0.13348 0.04508 0.68657 0.0
H790 H 0.20991 0.04683 0.64971 0.0
H791 H 0.14439 0.09676 0.62715 0.0
H792 H 0.11898 0.11625 0.64374 0.0
H793 H 0.15708 0.12273 0.69983 0.0
H794 H 0.18282 0.10353 0.68351 0.0
H795 H 0.22483 0.07937 0.55118 0.0
H796 H 0.21105 0.06459 0.58068 0.0
H797 H 0.21547 0.1243 0.6128 0.0
H798 H 0.22806 0.13912 0.58313 0.0
H799 H 0.18266 0.10704 0.62039 0.0
H800 H 0.25025 0.08582 0.62213 0.0
H801 H 0.27952 0.06969 0.60893 0.0
H802 H 0.24429 0.01196 0.60041 0.0
H803 H 0.21472 0.0278 0.61332 0.0
C804 C 0.18364 0.04754 0.70375 0.0
C805 C 0.16245 0.04371 0.704 0.0
C806 C 0.19198 0.0558 0.68703 0.0
C807 C 0.17933 0.06026 0.67014 0.0
C808 C 0.1582 0.05603 0.67023 0.0
C809 C 0.14984 0.0481 0.68704 0.0
C810 C 0.18814 0.06931 0.65243 0.0
C811 C 0.20397 0.06002 0.64332 0.0
C812 C 0.18075 0.08678 0.64425 0.0
C813 C 0.16543 0.09852 0.65415 0.0
C814 C 0.14737 0.10241 0.643 0.0
C815 C 0.13291 0.11339 0.65237 0.0
C816 C 0.13638 0.12066 0.67284 0.0
C817 C 0.15437 0.11702 0.68399 0.0
C818 C 0.16889 0.10607 0.6747 0.0
C819 C 0.22278 0.0893 0.56454 0.0
C820 C 0.22746 0.11042 0.56478 0.0
C821 C 0.21503 0.08083 0.58148 0.0
C822 C 0.21242 0.09325 0.59921 0.0
C823 C 0.21718 0.11433 0.59937 0.0
C824 C 0.22444 0.12281 0.58235 0.0
C825 C 0.20446 0.08457 0.61754 0.0
C826 C 0.18867 0.09386 0.62674 0.0
C827 C 0.21247 0.06762 0.62626 0.0
C828 C 0.23021 0.05804 0.6185 0.0
C829 C 0.2487 0.06971 0.61731 0.0
C830 C 0.26536 0.06062 0.6099 0.0
C831 C 0.26375 0.03983 0.60378 0.0
C832 C 0.2455 0.02807 0.60512 0.0
C833 C 0.2288 0.03709 0.6125 0.0
H834 H 0.27666 0.03281 0.59805 0.0
H835 H 0.12516 0.12915 0.68007 0.0
H836 H 0.20311 0.9801 0.7923 0.0
H837 H 0.21676 0.96805 0.82415 0.0
H838 H 0.17498 1.00214 0.85707 0.0
H839 H 0.16123 0.01442 0.82515 0.0
H840 H 0.21309 0.00397 0.87789 0.0
H841 H 0.16374 0.95263 0.84509 0.0
H842 H 0.14777 0.9288 0.81684 0.0
H843 H 0.20247 0.89788 0.81545 0.0
H844 H 0.21888 0.92173 0.8435 0.0
H845 H 0.21371 0.94962 0.9667 0.0
H846 H 0.20482 0.96583 0.93564 0.0
H847 H 0.24504 0.9292 0.90325 0.0
H848 H 0.25388 0.91268 0.93434 0.0
H849 H 0.20868 0.92916 0.88204 0.0
H850 H 0.25758 0.98 0.91613 0.0
H851 H 0.273 0.00371 0.94471 0.0
H852 H 0.21876 0.03548 0.94416 0.0
H853 H 0.20289 0.01177 0.91574 0.0
C854 C 0.19695 0.98528 0.80632 0.0
C855 C 0.18096 0.99813 0.80613 0.0
C856 C 0.20474 0.97829 0.82452 0.0
C857 C 0.19668 0.98392 0.84296 0.0
C858 C 0.18138 0.99754 0.84301 0.0
C859 C 0.17353 0.00453 0.82475 0.0
C860 C 0.20357 0.9748 0.86195 0.0
C861 C 0.21193 0.98763 0.8789 0.0
C862 C 0.20243 0.95345 0.86313 0.0
C863 C 0.19261 0.9391 0.84625 0.0
C864 C 0.17243 0.94087 0.83864 0.0
C865 C 0.16329 0.92734 0.82269 0.0
C866 C 0.17412 0.91188 0.81434 0.0
C867 C 0.19411 0.90989 0.82192 0.0
C868 C 0.20334 0.9234 0.83786 0.0
C869 C 0.22081 0.94508 0.95302 0.0
C870 C 0.23453 0.92984 0.95303 0.0
C871 C 0.21577 0.95446 0.93527 0.0
C872 C 0.22441 0.94891 0.91712 0.0
C873 C 0.23821 0.93378 0.91708 0.0
C874 C 0.2433 0.92439 0.93488 0.0
C875 C 0.21832 0.9583 0.89803 0.0
C876 C 0.21001 0.9455 0.88104 0.0
C877 C 0.21946 0.97967 0.89687 0.0
C878 C 0.22898 0.99399 0.91392 0.0
C879 C 0.24888 0.99194 0.9222 0.0
C880 C 0.25771 0.0054 0.93835 0.0
C881 C 0.24685 0.02106 0.94627 0.0
C882 C 0.22715 0.02332 0.93802 0.0
C883 C 0.21823 0.00989 0.92188 0.0
H884 H 0.25372 0.03147 0.95878 0.0
H885 H 0.16702 0.90142 0.80203 0.0
H886 H 0.30685 0.89979 0.0626 0.0
H887 H 0.31943 0.91615 0.09593 0.0
H888 H 0.27508 0.96037 0.09047 0.0
H889 H 0.26256 0.94426 0.05675 0.0
H890 H 0.31112 0.97798 0.10755 0.0
H891 H 0.26674 0.92041 0.11896 0.0
H892 H 0.25299 0.88449 0.11498 0.0
H893 H 0.31009 0.8663 0.13973 0.0
H894 H 0.32429 0.90211 0.14359 0.0
H895 H 0.32816 0.00945 0.21408 0.0
H896 H 0.3106 0.99572 0.18136 0.0
H897 H 0.35352 0.95004 0.17637 0.0
H898 H 0.37108 0.96355 0.20895 0.0
H899 H 0.3143 0.93437 0.16544 0.0
H900 H 0.35911 0.99203 0.1513 0.0
H901 H 0.37256 0.02805 0.15521 0.0
H902 H 0.31363 0.04615 0.13592 0.0
H903 H 0.29976 0.01022 0.13217 0.0
C904 C 0.29984 0.9131 0.06836 0.0
C905 C 0.28356 0.9206 0.05706 0.0
C906 C 0.307 0.92238 0.0875 0.0
C907 C 0.29789 0.93919 0.09591 0.0
C908 C 0.28223 0.94731 0.08433 0.0
C909 C 0.27511 0.93809 0.06506 0.0
C910 C 0.3045 0.94787 0.11698 0.0
C911 C 0.31147 0.96853 0.12028 0.0
C912 C 0.30514 0.93551 0.13357 0.0
C913 C 0.29662 0.91395 0.13142 0.0
C914 C 0.27641 0.90874 0.12342 0.0
C915 C 0.26853 0.8884 0.12121 0.0
C916 C 0.28068 0.87312 0.12706 0.0
C917 C 0.30071 0.87816 0.13519 0.0
C918 C 0.30867 0.89848 0.13742 0.0
C919 C 0.33373 0.99634 0.20613 0.0
C920 C 0.35109 0.98766 0.2141 0.0
C921 C 0.32374 0.98859 0.18738 0.0
C922 C 0.3309 0.972 0.17634 0.0
C923 C 0.34776 0.96288 0.18462 0.0
C924 C 0.35781 0.97067 0.20324 0.0
C925 C 0.3213 0.96434 0.1559 0.0
C926 C 0.31372 0.94386 0.15274 0.0
C927 C 0.32001 0.97689 0.1395 0.0
C928 C 0.32835 0.99847 0.14169 0.0
C929 C 0.34898 0.0037 0.14806 0.0
C930 C 0.35669 0.0241 0.15022 0.0
C931 C 0.34394 0.03939 0.14588 0.0
C932 C 0.32347 0.0343 0.13932 0.0
C933 C 0.31568 0.01392 0.13717 0.0
H934 H 0.34994 0.05517 0.14755 0.0
H935 H 0.27455 0.85738 0.12534 0.0
H936 H 0.33747 0.35852 0.01374 0.0
H937 H 0.36828 0.34191 0.02329 0.0
H938 H 0.33429 0.30379 0.06108 0.0
H939 H 0.30357 0.32033 0.05175 0.0
H940 H 0.36951 0.32031 0.08102 0.0
H941 H 0.34876 0.28464 0.01568 0.0
H942 H 0.33883 0.2817 0.97878 0.0
H943 H 0.39642 0.31164 0.96788 0.0
H944 H 0.4066 0.31501 0.00477 0.0
H945 H 0.44535 0.25415 0.10426 0.0
H946 H 0.41341 0.26621 0.09053 0.0
H947 H 0.44644 0.30308 0.05092 0.0
H948 H 0.4783 0.29086 0.06428 0.0
H949 H 0.41146 0.28663 0.03148 0.0
H950 H 0.43197 0.32386 0.09579 0.0
H951 H 0.44251 0.32819 0.13257 0.0
H952 H 0.38609 0.29706 0.14527 0.0
H953 H 0.37532 0.29232 0.10852 0.0
C954 C 0.33653 0.3465 0.02396 0.0
C955 C 0.31804 0.34077 0.03197 0.0
C956 C 0.35415 0.33697 0.02937 0.0
C957 C 0.35359 0.3215 0.04283 0.0
C958 C 0.33511 0.31568 0.05069 0.0
C959 C 0.31753 0.32513 0.04527 0.0
C960 C 0.37234 0.3118 0.04932 0.0
C961 C 0.3785 0.31266 0.07019 0.0
C962 C 0.38441 0.30233 0.03519 0.0
C963 C 0.37836 0.30025 0.013 0.0
C964 C 0.35924 0.29074 0.00543 0.0
C965 C 0.35358 0.28897 0.98452 0.0
C966 C 0.36696 0.29653 0.971 0.0
C967 C 0.38606 0.30582 0.97837 0.0
C968 C 0.39179 0.30764 0.99928 0.0
C969 C 0.44578 0.26458 0.09241 0.0
C970 C 0.46441 0.27163 0.08548 0.0
C971 C 0.42752 0.27156 0.08465 0.0
C972 C 0.42754 0.28585 0.06993 0.0
C973 C 0.44601 0.29213 0.0623 0.0
C974 C 0.46425 0.28514 0.07001 0.0
C975 C 0.40854 0.29501 0.06319 0.0
C976 C 0.40239 0.29415 0.0423 0.0
C977 C 0.39654 0.30467 0.07729 0.0
C978 C 0.40294 0.30754 0.0994 0.0
C979 C 0.42188 0.3178 0.10642 0.0
C980 C 0.42788 0.32035 0.12726 0.0
C981 C 0.415 0.31285 0.14124 0.0
C982 C 0.39607 0.30283 0.13442 0.0
C983 C 0.39 0.30022 0.11358 0.0
H984 H 0.41968 0.31484 0.15737 0.0
H985 H 0.36255 0.29515 0.95481 0.0
H986 H 0.01537 0.82609 0.16578 0.0
H987 H 1.00268 0.85718 0.18081 0.0
H988 H 0.96647 0.82151 0.2189 0.0
H989 H 0.97891 0.79045 0.20389 0.0
H990 H 0.94407 0.84741 0.19978 0.0
H991 H 0.00841 0.85173 0.23904 0.0
H992 H 0.04572 0.85224 0.24471 0.0
H993 H 0.05256 0.90517 0.21123 0.0
H994 H 0.01527 0.90482 0.20513 0.0
H995 H 0.91018 0.93136 0.25779 0.0
H996 H 0.92679 0.90048 0.2486 0.0
H997 H 0.96423 0.93383 0.20971 0.0
H998 H 0.94792 0.96471 0.21897 0.0
H999 H 0.98632 0.90877 0.23077 0.0
H1000 H 0.92255 0.90348 0.1899 0.0
H1001 H 0.88529 0.90303 0.18352 0.0
H1002 H 0.87756 0.85185 0.21928 0.0
H1003 H 0.91479 0.85218 0.22611 0.0
C1004 C 0.00495 0.8249 0.17758 0.0
C1005 C 0.99814 0.80577 0.18359 0.0
C1006 C 0.99773 0.8427 0.1862 0.0
C1007 C 0.98363 0.84171 0.20104 0.0
C1008 C 0.97728 0.82267 0.20745 0.0
C1009 C 0.9845 0.80491 0.19889 0.0
C1010 C 0.97457 0.86032 0.20903 0.0
C1011 C 0.95331 0.8607 0.20688 0.0
C1012 C 0.98661 0.87787 0.21782 0.0
C1013 C 0.00904 0.87813 0.22146 0.0
C1014 C 0.01787 0.86338 0.23274 0.0
C1015 C 0.03902 0.86366 0.23606 0.0
C1016 C 0.05151 0.8787 0.22829 0.0
C1017 C 0.04287 0.89352 0.21722 0.0
C1018 C 0.02172 0.8933 0.21385 0.0
C1019 C 0.92204 0.93214 0.24739 0.0
C1020 C 0.92763 0.95049 0.23904 0.0
C1021 C 0.93148 0.91446 0.24209 0.0
C1022 C 0.94662 0.91476 0.22827 0.0
C1023 C 0.9526 0.9332 0.22038 0.0
C1024 C 0.94318 0.95084 0.22565 0.0
C1025 C 0.95585 0.89582 0.22152 0.0
C1026 C 0.9771 0.89541 0.22382 0.0
C1027 C 0.94383 0.87823 0.21278 0.0
C1028 C 0.92144 0.87801 0.20871 0.0
C1029 C 0.9129 0.89224 0.19655 0.0
C1030 C 0.89179 0.89199 0.19283 0.0
C1031 C 0.87906 0.87746 0.20104 0.0
C1032 C 0.88743 0.86312 0.21296 0.0
C1033 C 0.90853 0.86332 0.21675 0.0
H1034 H 0.86272 0.87728 0.19814 0.0
H1035 H 0.06788 0.87889 0.23088 0.0
H1036 H 0.20162 0.64077 0.56363 0.0
H1037 H 0.17103 0.6543 0.57574 0.0
H1038 H 0.17796 0.70406 0.53755 0.0
H1039 H 0.20898 0.69091 0.5258 0.0
H1040 H 0.16586 0.71761 0.57248 0.0
H1041 H 0.1434 0.66196 0.52377 0.0
H1042 H 0.14159 0.62685 0.50786 0.0
H1043 H 0.11982 0.6041 0.56204 0.0
H1044 H 0.12178 0.63907 0.5784 0.0
H1045 H 0.06342 0.74408 0.5783 0.0
H1046 H 0.09367 0.73139 0.56412 0.0
H1047 H 0.09616 0.68713 0.6087 0.0
H1048 H 0.06613 0.69982 0.62311 0.0
H1049 H 0.10268 0.67143 0.56873 0.0
H1050 H 0.12647 0.72827 0.61722 0.0
H1051 H 0.12764 0.76384 0.63175 0.0
H1052 H 0.14594 0.78482 0.57548 0.0
H1053 H 0.14459 0.74935 0.56051 0.0
C1054 C 0.19676 0.65469 0.55791 0.0
C1055 C 0.20771 0.66467 0.54362 0.0
C1056 C 0.17915 0.66235 0.56475 0.0
C1057 C 0.17186 0.67996 0.55721 0.0
C1058 C 0.18318 0.69038 0.54352 0.0
C1059 C 0.20094 0.68284 0.53681 0.0
C1060 C 0.15231 0.68728 0.56341 0.0
C1061 C 0.152 0.70756 0.57135 0.0
C1062 C 0.13417 0.67419 0.56217 0.0
C1063 C 0.13292 0.65313 0.55237 0.0
C1064 C 0.13837 0.64946 0.53235 0.0
C1065 C 0.1373 0.62958 0.52324 0.0
C1066 C 0.13064 0.61325 0.53395 0.0
C1067 C 0.125 0.61677 0.55378 0.0
C1068 C 0.12607 0.63662 0.56297 0.0
C1069 C 0.07025 0.73148 0.58493 0.0
C1070 C 0.0624 0.72301 0.60189 0.0
C1071 C 0.08759 0.72433 0.57687 0.0
C1072 C 0.09725 0.70844 0.58548 0.0
C1073 C 0.08896 0.69942 0.60186 0.0
C1074 C 0.07182 0.70673 0.6101 0.0
C1075 C 0.11637 0.70161 0.5779 0.0
C1076 C 0.11656 0.68144 0.56971 0.0
C1077 C 0.1343 0.71486 0.57867 0.0
C1078 C 0.1352 0.73617 0.58768 0.0
C1079 C 0.13057 0.74047 0.60789 0.0
C1080 C 0.1313 0.76061 0.61621 0.0
C1081 C 0.1368 0.77658 0.60453 0.0
C1082 C 0.14164 0.77244 0.5845 0.0
C1083 C 0.14091 0.75232 0.57609 0.0
H1084 H 0.13736 0.79217 0.611 0.0
H1085 H 0.12982 0.59787 0.52687 0.0
H1086 H 0.02354 0.68858 0.69207 0.0
H1087 H 0.00742 0.6606 0.70883 0.0
H1088 H 0.94853 0.67422 0.68334 0.0
H1089 H 0.96461 0.70215 0.66618 0.0
H1090 H 0.95137 0.66762 0.72665 0.0
H1091 H 0.9674 0.63599 0.66208 0.0
H1092 H 0.99027 0.62762 0.63545 0.0
H1093 H 0.0282 0.59883 0.67841 0.0
H1094 H 0.0057 0.6073 0.70538 0.0
H1095 H 0.89071 0.57968 0.74426 0.0
H1096 H 0.9085 0.60865 0.73094 0.0
H1097 H 0.96573 0.58276 0.74293 0.0
H1098 H 0.94773 0.55302 0.75547 0.0
H1099 H 0.96535 0.59628 0.70779 0.0
H1100 H 0.95042 0.62605 0.77217 0.0
H1101 H 0.92949 0.63501 0.8003 0.0
H1102 H 0.89222 0.66804 0.7606 0.0
H1103 H 0.91276 0.65906 0.73215 0.0
C1104 C 0.00714 0.68569 0.69005 0.0
C1105 C 0.99534 0.69758 0.67776 0.0
C1106 C 0.99797 0.66966 0.69961 0.0
C1107 C 0.9768 0.66529 0.69726 0.0
C1108 C 0.9649 0.67736 0.68534 0.0
C1109 C 0.97411 0.69325 0.6755 0.0
C1110 C 0.96718 0.64796 0.70707 0.0
C1111 C 0.95418 0.65198 0.7224 0.0
C1112 C 0.97153 0.62766 0.70202 0.0
C1113 C 0.98499 0.62247 0.68579 0.0
C1114 C 0.98072 0.62803 0.66589 0.0
C1115 C 0.99359 0.62324 0.65073 0.0
C1116 C 0.01071 0.61275 0.65525 0.0
C1117 C 0.01496 0.60698 0.67493 0.0
C1118 C 1.00214 0.61176 0.69016 0.0
C1119 C 0.90712 0.58019 0.74433 0.0
C1120 C 0.9178 0.56402 0.75106 0.0
C1121 C 0.91733 0.59691 0.73677 0.0
C1122 C 0.93857 0.59821 0.73622 0.0
C1123 C 0.94934 0.5822 0.74321 0.0
C1124 C 0.93906 0.56523 0.75047 0.0
C1125 C 0.94926 0.6158 0.72743 0.0
C1126 C 0.96253 0.61188 0.71224 0.0
C1127 C 0.94543 0.63624 0.73289 0.0
C1128 C 0.93305 0.64173 0.74998 0.0
C1129 C 0.93768 0.6351 0.7694 0.0
C1130 C 0.92589 0.64021 0.78541 0.0
C1131 C 0.90951 0.65205 0.78223 0.0
C1132 C 0.9049 0.65886 0.76304 0.0
C1133 C 0.91663 0.65378 0.74697 0.0
H1134 H 0.9004 0.65598 0.79464 0.0
H1135 H 0.02066 0.60906 0.64349 0.0
H1136 H 0.19404 0.19982 0.52258 0.0
H1137 H 0.16583 0.21569 0.50578 0.0
H1138 H 0.17702 0.1852 0.44822 0.0
H1139 H 0.20521 0.16895 0.465 0.0
H1140 H 0.17093 0.22824 0.44749 0.0
H1141 H 0.13933 0.1666 0.47025 0.0
H1142 H 0.13157 0.14243 0.49576 0.0
H1143 H 0.10495 0.18896 0.53124 0.0
H1144 H 0.11283 0.21351 0.50606 0.0
H1145 H 0.08093 0.24321 0.38836 0.0
H1146 H 0.11032 0.23052 0.40611 0.0
H1147 H 0.08769 0.24809 0.46385 0.0
H1148 H 0.05755 0.26001 0.44601 0.0
H1149 H 0.10035 0.21275 0.4657 0.0
H1150 H 0.1304 0.2744 0.44411 0.0
H1151 H 0.13882 0.30009 0.42025 0.0
H1152 H 0.16915 0.25638 0.38486 0.0
H1153 H 0.16068 0.23034 0.40837 0.0
C1154 C 0.19058 0.19651 0.50632 0.0
C1155 C 0.20186 0.18309 0.49512 0.0
C1156 C 0.1744 0.20557 0.49677 0.0
C1157 C 0.16928 0.20155 0.47579 0.0
C1158 C 0.18075 0.18849 0.46445 0.0
C1159 C 0.19679 0.17918 0.47406 0.0
C1160 C 0.15178 0.21081 0.4658 0.0
C1161 C 0.15544 0.2247 0.45124 0.0
C1162 C 0.13171 0.20672 0.47129 0.0
C1163 C 0.12687 0.19195 0.48638 0.0
C1164 C 0.13199 0.17173 0.48358 0.0
C1165 C 0.12753 0.15795 0.49796 0.0
C1166 C 0.11782 0.16417 0.51514 0.0
C1167 C 0.1125 0.18417 0.51794 0.0
C1168 C 0.11694 0.19802 0.50361 0.0
C1169 C 0.08226 0.24463 0.40485 0.0
C1170 C 0.06688 0.25275 0.41576 0.0
C1171 C 0.09921 0.23743 0.41502 0.0
C1172 C 0.10154 0.23863 0.4364 0.0
C1173 C 0.08633 0.247 0.44736 0.0
C1174 C 0.06913 0.2539 0.43715 0.0
C1175 C 0.11934 0.23026 0.44715 0.0
C1176 C 0.11579 0.21648 0.46192 0.0
C1177 C 0.13957 0.23473 0.44208 0.0
C1178 C 0.14475 0.25037 0.42792 0.0
C1179 C 0.13874 0.27022 0.43116 0.0
C1180 C 0.14354 0.28485 0.41771 0.0
C1181 C 0.15447 0.27986 0.40103 0.0
C1182 C 0.16067 0.26022 0.39778 0.0
C1183 C 0.15589 0.24553 0.41118 0.0
H1184 H 0.15817 0.29121 0.39063 0.0
H1185 H 0.11438 0.15348 0.52626 0.0
H1186 H 0.56936 0.47505 0.23506 0.0
H1187 H 0.55042 0.44213 0.22451 0.0
H1188 H 0.60699 0.4142 0.22063 0.0
H1189 H 0.62586 0.44662 0.23169 0.0
H1190 H 0.54802 0.4184 0.19144 0.0
H1191 H 0.60373 0.36628 0.2315 0.0
H1192 H 0.62556 0.36722 0.26358 0.0
H1193 H 0.58891 0.41028 0.29188 0.0
H1194 H 0.56666 0.40936 0.26009 0.0
H1195 H 0.54309 0.32312 0.1382 0.0
H1196 H 0.5525 0.35615 0.15663 0.0
H1197 H 0.53322 0.33269 0.21186 0.0
H1198 H 0.52457 0.29911 0.19355 0.0
H1199 H 0.56628 0.35474 0.22087 0.0
H1200 H 0.50481 0.36632 0.18424 0.0
H1201 H 0.47958 0.36563 0.15468 0.0
H1202 H 0.52094 0.40409 0.12463 0.0
H1203 H 0.54655 0.40476 0.15387 0.0
C1204 C 0.57773 0.46184 0.23209 0.0
C1205 C 0.59913 0.46347 0.23435 0.0
C1206 C 0.56689 0.44304 0.22604 0.0
C1207 C 0.57724 0.42556 0.22211 0.0
C1208 C 0.5986 0.42728 0.2241 0.0
C1209 C 0.6094 0.44593 0.23032 0.0
C1210 C 0.56601 0.40561 0.21507 0.0
C1211 C 0.55188 0.40449 0.19798 0.0
C1212 C 0.57045 0.38748 0.22402 0.0
C1213 C 0.58359 0.38784 0.24333 0.0
C1214 C 0.60024 0.37584 0.2446 0.0
C1215 C 0.61271 0.3764 0.26273 0.0
C1216 C 0.60865 0.38884 0.27974 0.0
C1217 C 0.59207 0.4007 0.27868 0.0
C1218 C 0.57954 0.40018 0.2606 0.0
C1219 C 0.54074 0.32496 0.15426 0.0
C1220 C 0.53299 0.3085 0.1644 0.0
C1221 C 0.546 0.34396 0.16477 0.0
C1222 C 0.54314 0.34714 0.18558 0.0
C1223 C 0.53547 0.33068 0.1958 0.0
C1224 C 0.53052 0.3115 0.18532 0.0
C1225 C 0.54903 0.36745 0.19664 0.0
C1226 C 0.56214 0.36864 0.21451 0.0
C1227 C 0.54308 0.38568 0.18883 0.0
C1228 C 0.52766 0.3855 0.17124 0.0
C1229 C 0.50858 0.37454 0.17129 0.0
C1230 C 0.4942 0.37416 0.15459 0.0
C1231 C 0.49866 0.38479 0.13778 0.0
C1232 C 0.5175 0.39587 0.13766 0.0
C1233 C 0.53195 0.39628 0.15431 0.0
H1234 H 0.48752 0.38447 0.12487 0.0
H1235 H 0.61834 0.38927 0.29375 0.0
H1236 H 0.3118 0.86802 0.95744 0.0
H1237 H 0.34317 0.85727 0.94401 0.0
H1238 H 0.34991 0.81665 0.9917 0.0
H1239 H 0.31884 0.82745 0.00529 0.0
H1240 H 0.38484 0.83849 0.98868 0.0
H1241 H 0.33479 0.79905 0.94195 0.0
H1242 H 0.30506 0.79368 0.91669 0.0
H1243 H 0.33575 0.83172 0.87682 0.0
H1244 H 0.36558 0.83754 0.90198 0.0
H1245 H 0.45813 0.77503 0.95364 0.0
H1246 H 0.42768 0.78971 0.96461 0.0
H1247 H 0.4279 0.82819 0.91476 0.0
H1248 H 0.45838 0.81329 0.90347 0.0
H1249 H 0.3903 0.81045 0.91773 0.0
H1250 H 0.44128 0.84808 0.96369 0.0
H1251 H 0.47105 0.85309 0.98892 0.0
H1252 H 0.43861 0.81843 0.0303 0.0
H1253 H 0.40874 0.81297 0.00521 0.0
C1254 C 0.31984 0.85663 0.96492 0.0
C1255 C 0.31278 0.84861 0.98245 0.0
C1256 C 0.33778 0.85047 0.95721 0.0
C1257 C 0.34894 0.83609 0.96681 0.0
C1258 C 0.34166 0.82782 0.98407 0.0
C1259 C 0.3238 0.83396 0.99177 0.0
C1260 C 0.36854 0.83005 0.95942 0.0
C1261 C 0.38596 0.83216 0.97321 0.0
C1262 C 0.37024 0.82239 0.93907 0.0
C1263 C 0.35232 0.81892 0.92395 0.0
C1264 C 0.33513 0.80642 0.92787 0.0
C1265 C 0.31828 0.80326 0.91356 0.0
C1266 C 0.31849 0.8124 0.89519 0.0
C1267 C 0.33559 0.82468 0.89108 0.0
C1268 C 0.35248 0.8279 0.90535 0.0
C1269 C 0.45188 0.78678 0.9451 0.0
C1270 C 0.46078 0.79302 0.92769 0.0
C1271 C 0.43445 0.79522 0.95144 0.0
C1272 C 0.42553 0.81022 0.94065 0.0
C1273 C 0.43449 0.81666 0.92337 0.0
C1274 C 0.452 0.80821 0.917 0.0
C1275 C 0.4065 0.81857 0.9471 0.0
C1276 C 0.38921 0.81693 0.93315 0.0
C1277 C 0.4049 0.82667 0.96732 0.0
C1278 C 0.42282 0.82998 0.98249 0.0
C1279 C 0.44054 0.84139 0.97811 0.0
C1280 C 0.45743 0.84434 0.9924 0.0
C1281 C 0.45674 0.83605 0.01118 0.0
C1282 C 0.43913 0.82483 0.01574 0.0
C1283 C 0.42221 0.82183 1.0015 0.0
H1284 H 0.46983 0.83835 0.02222 0.0
H1285 H 0.30543 0.80994 0.88413 0.0
H1286 H 0.91368 0.46438 0.81685 0.0
H1287 H 0.92585 0.43363 0.83084 0.0
H1288 H 0.9445 0.41365 0.77204 0.0
H1289 H 0.93296 0.44439 0.75815 0.0
H1290 H 0.91993 0.38321 0.79236 0.0
H1291 H 0.9798 0.43132 0.80309 0.0
H1292 H 0.99859 0.46379 0.81657 0.0
H1293 H 0.98642 0.45098 0.87741 0.0
H1294 H 0.96729 0.41855 0.86422 0.0
H1295 H 0.00846 0.32195 0.82679 0.0
H1296 H 0.99399 0.35282 0.8164 0.0
H1297 H 0.93958 0.33674 0.84553 0.0
H1298 H 0.95417 0.30582 0.85639 0.0
H1299 H 0.98056 0.38538 0.84182 0.0
H1300 H 0.90005 0.35291 0.81206 0.0
H1301 H 0.88182 0.3204 0.79772 0.0
H1302 H 0.93651 0.30176 0.77352 0.0
H1303 H 0.95497 0.33425 0.78747 0.0
C1304 C 0.9205 0.45349 0.80697 0.0
C1305 C 0.92244 0.45688 0.78642 0.0
C1306 C 0.9274 0.43594 0.81496 0.0
C1307 C 0.93598 0.42134 0.80243 0.0
C1308 C 0.93784 0.42468 0.78194 0.0
C1309 C 0.93136 0.44234 0.77407 0.0
C1310 C 0.94322 0.40258 0.81053 0.0
C1311 C 0.93306 0.38369 0.80332 0.0
C1312 C 0.96041 0.4032 0.82473 0.0
C1313 C 0.9719 0.42266 0.83265 0.0
C1314 C 0.98095 0.43553 0.81932 0.0
C1315 C 0.9917 0.4539 0.82691 0.0
C1316 C 0.99364 0.45948 0.84783 0.0
C1317 C 0.98487 0.44666 0.8612 0.0
C1318 C 0.97408 0.42829 0.85368 0.0
C1319 C 0.99336 0.32487 0.83094 0.0
C1320 C 0.98244 0.31136 0.84238 0.0
C1321 C 0.98518 0.34262 0.82509 0.0
C1322 C 0.96575 0.34711 0.83023 0.0
C1323 C 0.95461 0.33355 0.8414 0.0
C1324 C 0.96295 0.31588 0.84756 0.0
C1325 C 0.95726 0.36597 0.82367 0.0
C1326 C 0.96719 0.3849 0.83115 0.0
C1327 C 0.93988 0.36538 0.8097 0.0
C1328 C 0.92892 0.34589 0.80104 0.0
C1329 C 0.90816 0.34188 0.80364 0.0
C1330 C 0.89779 0.32347 0.79558 0.0
C1331 C 0.90803 0.30899 0.78479 0.0
C1332 C 0.92863 0.31294 0.78197 0.0
C1333 C 0.93905 0.33134 0.78998 0.0
H1334 H 0.89998 0.29474 0.77857 0.0
H1335 H 1.00198 0.4737 0.85368 0.0
H1336 H 0.32554 0.14905 0.51519 0.0
H1337 H 0.35934 0.16538 0.5263 0.0
H1338 H 0.33236 0.21121 0.563 0.0
H1339 H 0.29843 0.19547 0.55109 0.0
H1340 H 0.36308 0.2284 0.54749 0.0
H1341 H 0.35328 0.16839 0.58308 0.0
H1342 H 0.34536 0.13187 0.58679 0.0
H1343 H 0.39564 0.1173 0.55253 0.0
H1344 H 0.4037 0.15374 0.54839 0.0
H1345 H 0.44676 0.25393 0.62273 0.0
H1346 H 0.4143 0.24174 0.60393 0.0
H1347 H 0.44598 0.20856 0.55928 0.0
H1348 H 0.47864 0.22095 0.57785 0.0
H1349 H 0.41415 0.18527 0.57683 0.0
H1350 H 0.42495 0.24759 0.54477 0.0
H1351 H 0.43244 0.28462 0.54409 0.0
H1352 H 0.37949 0.29533 0.57578 0.0
H1353 H 0.37184 0.25835 0.57691 0.0
C1354 C 0.32681 0.16271 0.5255 0.0
C1355 C 0.30935 0.17088 0.53242 0.0
C1356 C 0.34616 0.17198 0.53194 0.0
C1357 C 0.34848 0.18926 0.54591 0.0
C1358 C 0.33101 0.19785 0.55228 0.0
C1359 C 0.31161 0.18882 0.5455 0.0
C1360 C 0.36908 0.19797 0.55438 0.0
C1361 C 0.37415 0.21897 0.55407 0.0
C1362 C 0.38374 0.18568 0.56274 0.0
C1363 C 0.37895 0.16377 0.56524 0.0
C1364 C 0.36255 0.15738 0.57621 0.0
C1365 C 0.35806 0.13671 0.57841 0.0
C1366 C 0.36995 0.12227 0.56985 0.0
C1367 C 0.38642 0.1285 0.55912 0.0
C1368 C 0.39097 0.14916 0.55685 0.0
C1369 C 0.44686 0.24422 0.60878 0.0
C1370 C 0.46527 0.23836 0.60179 0.0
C1371 C 0.4283 0.23735 0.59803 0.0
C1372 C 0.42778 0.22431 0.58021 0.0
C1373 C 0.44611 0.21867 0.57299 0.0
C1374 C 0.46473 0.22581 0.58357 0.0
C1375 C 0.408 0.21559 0.56995 0.0
C1376 C 0.4031 0.1946 0.57004 0.0
C1377 C 0.3934 0.22795 0.56181 0.0
C1378 C 0.39792 0.25019 0.56107 0.0
C1379 C 0.415 0.25784 0.55175 0.0
C1380 C 0.41925 0.27882 0.55125 0.0
C1381 C 0.40648 0.29232 0.55993 0.0
C1382 C 0.38939 0.28486 0.56908 0.0
C1383 C 0.38507 0.26388 0.56963 0.0
H1384 H 0.4098 0.30856 0.55953 0.0
H1385 H 0.36645 0.10627 0.57157 0.0
H1386 H 0.51276 0.71505 0.32104 0.0
H1387 H 0.5259 0.68488 0.30443 0.0
H1388 H 0.53798 0.66154 0.36291 0.0
H1389 H 0.52469 0.69134 0.37959 0.0
H1390 H 0.5715 0.66229 0.33855 0.0
H1391 H 0.50006 0.63959 0.33322 0.0
H1392 H 0.46368 0.6422 0.32349 0.0
H1393 H 0.47605 0.64371 0.26077 0.0
H1394 H 0.51257 0.64139 0.27017 0.0
H1395 H 0.60105 0.56528 0.30542 0.0
H1396 H 0.58445 0.5931 0.32211 0.0
H1397 H 0.55951 0.60855 0.26353 0.0
H1398 H 0.57526 0.58026 0.24694 0.0
H1399 H 0.53208 0.61205 0.28816 0.0
H1400 H 0.60243 0.63612 0.29175 0.0
H1401 H 0.63936 0.63535 0.29987 0.0
H1402 H 0.63022 0.63381 0.36338 0.0
H1403 H 0.59318 0.63431 0.3556 0.0
C1404 C 0.51797 0.70338 0.33035 0.0
C1405 C 0.51765 0.70566 0.35166 0.0
C1406 C 0.52546 0.68614 0.32083 0.0
C1407 C 0.53295 0.67099 0.33246 0.0
C1408 C 0.53233 0.67307 0.35366 0.0
C1409 C 0.52461 0.6901 0.36315 0.0
C1410 C 0.54218 0.65334 0.32269 0.0
C1411 C 0.56285 0.65113 0.32772 0.0
C1412 C 0.53103 0.63919 0.3081 0.0
C1413 C 0.50908 0.64053 0.30243 0.0
C1414 C 0.49505 0.64066 0.31738 0.0
C1415 C 0.4744 0.64205 0.31192 0.0
C1416 C 0.46756 0.64318 0.29153 0.0
C1417 C 0.48137 0.64287 0.27656 0.0
C1418 C 0.50204 0.6415 0.28194 0.0
C1419 C 0.59198 0.57459 0.29613 0.0
C1420 C 0.58952 0.57059 0.27486 0.0
C1421 C 0.58257 0.59059 0.30567 0.0
C1422 C 0.57096 0.60326 0.29409 0.0
C1423 C 0.56834 0.59907 0.27286 0.0
C1424 C 0.57742 0.58289 0.26337 0.0
C1425 C 0.56154 0.62087 0.30399 0.0
C1426 C 0.54083 0.62314 0.29898 0.0
C1427 C 0.57276 0.63534 0.31833 0.0
C1428 C 0.59502 0.63504 0.32307 0.0
C1429 C 0.60828 0.63547 0.30743 0.0
C1430 C 0.62923 0.6351 0.31197 0.0
C1431 C 0.63712 0.63447 0.33212 0.0
C1432 C 0.62408 0.63426 0.34777 0.0
C1433 C 0.60311 0.6346 0.34331 0.0
H1434 H 0.65335 0.63419 0.33561 0.0
H1435 H 0.45156 0.64425 0.28733 0.0
H1436 H 0.08052 0.79829 0.11613 0.0
H1437 H 0.10879 0.81376 0.09923 0.0
H1438 H 0.0915 0.773 0.04551 0.0
H1439 H 0.06388 0.75694 0.06267 0.0
H1440 H 0.12981 0.77486 0.05142 0.0
H1441 H 0.0822 0.82559 0.04935 0.0
H1442 H 0.05887 0.84952 0.0631 0.0
H1443 H 0.10848 0.88171 0.101 0.0
H1444 H 0.13207 0.85781 0.08766 0.0
H1445 H 0.18387 0.86742 1.0017 0.0
H1446 H 0.15414 0.84997 0.01448 0.0
H1447 H 0.19328 0.81243 0.04772 0.0
H1448 H 0.22295 0.82924 0.03424 0.0
H1449 H 0.1428 0.84956 0.05009 0.0
H1450 H 0.16873 0.76819 0.057 0.0
H1451 H 0.18925 0.74407 0.03904 0.0
H1452 H 0.17794 0.77279 0.98362 0.0
H1453 H 0.15715 0.79691 1.00117 0.0
C1454 C 0.08269 0.79273 0.10067 0.0
C1455 C 0.06994 0.77642 0.09073 0.0
C1456 C 0.09883 0.80164 0.09096 0.0
C1457 C 0.10224 0.79476 0.07093 0.0
C1458 C 0.08933 0.77859 0.06096 0.0
C1459 C 0.07345 0.76946 0.07077 0.0
C1460 C 0.11943 0.80405 0.06044 0.0
C1461 C 0.1326 0.7912 0.05112 0.0
C1462 C 0.12298 0.82536 0.05961 0.0
C1463 C 0.10886 0.83979 0.06764 0.0
C1464 C 0.0881 0.83769 0.06072 0.0
C1465 C 0.07484 0.85126 0.06843 0.0
C1466 C 0.08218 0.86709 0.08295 0.0
C1467 C 0.10281 0.86942 0.08977 0.0
C1468 C 0.11614 0.85588 0.08213 0.0
C1469 C 0.18611 0.85518 0.01143 0.0
C1470 C 0.20578 0.84966 0.01687 0.0
C1471 C 0.16909 0.84528 0.01885 0.0
C1472 C 0.17133 0.82977 0.03206 0.0
C1473 C 0.19098 0.82402 0.03724 0.0
C1474 C 0.20799 0.83368 0.02953 0.0
C1475 C 0.15323 0.82037 0.04112 0.0
C1476 C 0.13996 0.83321 0.0503 0.0
C1477 C 0.1492 0.79902 0.04121 0.0
C1478 C 0.16156 0.78448 0.03047 0.0
C1479 C 0.17057 0.76931 0.04096 0.0
C1480 C 0.18225 0.75565 0.03086 0.0
C1481 C 0.18495 0.75694 0.01022 0.0
C1482 C 0.1759 0.77186 0.99962 0.0
C1483 C 0.16419 0.78555 0.00965 0.0
H1484 H 0.19401 0.74635 1.00243 0.0
H1485 H 0.07188 0.87758 0.0889 0.0
H1486 H 0.7592 0.9501 0.5638 0.0
H1487 H 0.74582 0.96628 0.59403 0.0
H1488 H 0.73405 0.90749 0.61677 0.0
H1489 H 0.74751 0.89122 0.58684 0.0
H1490 H 0.70046 0.93082 0.61626 0.0
H1491 H 0.77179 0.9385 0.63926 0.0
H1492 H 0.80797 0.94927 0.63679 0.0
H1493 H 0.79369 0.01138 0.63474 0.0
H1494 H 0.75736 1.00094 0.63692 0.0
H1495 H 0.66864 0.96463 0.71214 0.0
H1496 H 0.68626 0.94792 0.68508 0.0
H1497 H 0.71005 0.00659 0.66884 0.0
H1498 H 0.69332 0.02321 0.69643 0.0
H1499 H 0.73815 0.98276 0.66613 0.0
H1500 H 0.66785 0.97673 0.6412 0.0
H1501 H 0.63107 0.96752 0.64174 0.0
H1502 H 0.64225 0.90467 0.64479 0.0
H1503 H 0.67914 0.91355 0.64452 0.0
C1504 C 0.75405 0.94063 0.57537 0.0
C1505 C 0.75444 0.91934 0.57283 0.0
C1506 C 0.74641 0.94991 0.59264 0.0
C1507 C 0.73891 0.93807 0.60764 0.0
C1508 C 0.73971 0.9169 0.60537 0.0
C1509 C 0.74752 0.90765 0.58825 0.0
C1510 C 0.72933 0.94759 0.62522 0.0
C1511 C 0.70876 0.94198 0.62735 0.0
C1512 C 0.73998 0.9626 0.63929 0.0
C1513 C 0.76183 0.96891 0.63806 0.0
C1514 C 0.77634 0.95443 0.63811 0.0
C1515 C 0.79688 0.96048 0.6368 0.0
C1516 C 0.80312 0.98099 0.63556 0.0
C1517 C 0.78883 0.99549 0.63568 0.0
C1518 C 0.76827 0.98952 0.63697 0.0
C1519 C 0.6777 0.97393 0.70283 0.0
C1520 C 0.67953 0.99524 0.7064 0.0
C1521 C 0.68768 0.96438 0.68726 0.0
C1522 C 0.69924 0.97596 0.67456 0.0
C1523 C 0.70127 0.99724 0.67835 0.0
C1524 C 0.69163 0.00675 0.69413 0.0
C1525 C 0.70914 0.96605 0.65726 0.0
C1526 C 0.72978 0.97159 0.65512 0.0
C1527 C 0.69844 0.95123 0.64292 0.0
C1528 C 0.67627 0.94584 0.64306 0.0
C1529 C 0.66247 0.96097 0.64214 0.0
C1530 C 0.64161 0.9558 0.64237 0.0
C1531 C 0.63433 0.93553 0.64336 0.0
C1532 C 0.64791 0.92037 0.64406 0.0
C1533 C 0.6688 0.92546 0.64385 0.0
H1534 H 0.61817 0.93156 0.64353 0.0
H1535 H 0.81903 0.98564 0.63455 0.0
H1536 H 0.82386 1.0016 0.3221 0.0
H1537 H 0.81358 0.98832 0.35352 0.0
H1538 H 0.85436 0.94086 0.34687 0.0
H1539 H 0.86467 0.95401 0.31513 0.0
H1540 H 0.81797 0.92663 0.36021 0.0
H1541 H 0.86834 0.98194 0.37932 0.0
H1542 H 0.88434 0.01686 0.37933 0.0
H1543 H 0.83168 0.04082 0.40316 0.0
H1544 H 0.81523 0.00604 0.40301 0.0
H1545 H 0.81112 0.90156 0.46305 0.0
H1546 H 0.82518 0.9121 0.43186 0.0
H1547 H 0.78788 0.96282 0.43228 0.0
H1548 H 0.77395 0.95253 0.46343 0.0
H1549 H 0.82548 0.97421 0.42259 0.0
H1550 H 0.77429 0.91936 0.40141 0.0
H1551 H 0.75782 0.88458 0.40101 0.0
H1552 H 0.81177 0.8599 0.38101 0.0
H1553 H 0.82867 0.89455 0.38156 0.0
C1554 C 0.83054 0.98821 0.32715 0.0
C1555 C 0.84521 0.97895 0.31612 0.0
C1556 C 0.8247 0.98069 0.34522 0.0
C1557 C 0.83347 0.96381 0.35279 0.0
C1558 C 0.84747 0.95397 0.34139 0.0
C1559 C 0.85335 0.96151 0.32325 0.0
C1560 C 0.82834 0.95693 0.37288 0.0
C1561 C 0.81994 0.93693 0.37392 0.0
C1562 C 0.83059 0.97044 0.39076 0.0
C1563 C 0.84049 0.99138 0.391 0.0
C1564 C 0.86011 0.99466 0.38443 0.0
C1565 C 0.86927 0.01443 0.38447 0.0
C1566 C 0.85902 0.03105 0.3912 0.0
C1567 C 0.8396 0.02793 0.39794 0.0
C1568 C 0.83036 0.00819 0.39789 0.0
C1569 C 0.80608 0.91509 0.45662 0.0
C1570 C 0.79136 0.92616 0.46573 0.0
C1571 C 0.81403 0.92102 0.4387 0.0
C1572 C 0.8074 0.93812 0.42953 0.0
C1573 C 0.79322 0.94956 0.43901 0.0
C1574 C 0.78524 0.94362 0.45684 0.0
C1575 C 0.81482 0.944 0.40988 0.0
C1576 C 0.82368 0.96384 0.40893 0.0
C1577 C 0.81296 0.93035 0.39211 0.0
C1578 C 0.80282 0.90952 0.39176 0.0
C1579 C 0.7827 0.9065 0.39709 0.0
C1580 C 0.77328 0.88682 0.39681 0.0
C1581 C 0.78376 0.87003 0.39105 0.0
C1582 C 0.80368 0.87291 0.38551 0.0
C1583 C 0.81319 0.89257 0.38579 0.0
H1584 H 0.77644 0.85481 0.39084 0.0
H1585 H 0.86613 0.04634 0.39122 0.0
H1586 H 0.80757 0.10956 0.07537 0.0
H1587 H 0.82334 0.09227 0.10332 0.0
H1588 H 0.76752 0.05454 0.10543 0.0
H1589 H 0.75182 0.07146 0.07745 0.0
H1590 H 0.81432 0.08962 0.14189 0.0
H1591 H 0.77801 0.00773 0.11866 0.0
H1592 H 0.76591 0.98602 0.08741 0.0
H1593 H 0.80655 0.02085 0.05315 0.0
H1594 H 0.81908 0.04258 0.08422 0.0
H1595 H 0.82559 0.02932 0.22571 0.0
H1596 H 0.80994 0.04402 0.19601 0.0
H1597 H 0.85294 0.0173 0.15837 0.0
H1598 H 0.86868 1.00261 0.18791 0.0
H1599 H 0.8147 0.01443 0.13884 0.0
H1600 H 0.86166 0.06548 0.17544 0.0
H1601 H 0.87684 0.08736 0.20549 0.0
H1602 H 0.82039 0.11456 0.21076 0.0
H1603 H 0.80478 0.09261 0.18091 0.0
C1604 C 0.79871 0.0975 0.08171 0.0
C1605 C 0.77847 0.09184 0.07409 0.0
C1606 C 0.80771 0.08769 0.09775 0.0
C1607 C 0.7967 0.07196 0.10639 0.0
C1608 C 0.77646 0.06639 0.09884 0.0
C1609 C 0.76748 0.07615 0.08285 0.0
C1610 C 0.80619 0.06149 0.12342 0.0
C1611 C 0.81437 0.07318 0.14121 0.0
C1612 C 0.80659 0.04004 0.12248 0.0
C1613 C 0.79933 0.0269 0.10374 0.0
C1614 C 0.78442 0.0107 0.10447 0.0
C1615 C 0.77748 0.9984 0.08679 0.0
C1616 C 0.78541 1.00209 0.0683 0.0
C1617 C 0.80036 0.01805 0.06746 0.0
C1618 C 0.80736 0.03038 0.0851 0.0
C1619 C 0.8315 0.02626 0.21105 0.0
C1620 C 0.84847 0.01486 0.20923 0.0
C1621 C 0.82262 0.03479 0.19411 0.0
C1622 C 0.83046 0.03198 0.17502 0.0
C1623 C 0.84669 0.01973 0.17295 0.0
C1624 C 0.85568 0.01135 0.18988 0.0
C1625 C 0.82238 0.04253 0.15741 0.0
C1626 C 0.81452 0.03085 0.13953 0.0
C1627 C 0.82264 0.06401 0.15812 0.0
C1628 C 0.83199 0.07725 0.17606 0.0
C1629 C 0.85243 0.076 0.18311 0.0
C1630 C 0.86113 0.08843 0.20009 0.0
C1631 C 0.84958 0.1023 0.21006 0.0
C1632 C 0.82931 0.10379 0.20304 0.0
C1633 C 0.82054 0.09136 0.18609 0.0
H1634 H 0.85634 0.11193 0.22318 0.0
H1635 H 0.78 0.99256 0.05462 0.0
H1636 H 0.69047 0.05113 0.80062 0.0
H1637 H 0.70744 0.06281 0.83409 0.0
H1638 H 0.65901 0.0318 0.86293 0.0
H1639 H 0.64162 0.02077 0.82958 0.0
H1640 H 0.66714 0.06719 0.8814 0.0
H1641 H 0.70812 0.01412 0.86097 0.0
H1642 H 0.72931 0.99496 0.83851 0.0
H1643 H 0.77281 0.04691 0.84105 0.0
H1644 H 0.75174 0.06648 0.86332 0.0
H1645 H 0.71965 0.07921 0.98056 0.0
H1646 H 0.70539 0.06191 0.94785 0.0
H1647 H 0.74241 0.10345 0.91607 0.0
H1648 H 0.75647 0.12101 0.94859 0.0
H1649 H 0.74032 0.06091 0.90024 0.0
H1650 H 0.69713 0.11395 0.91956 0.0
H1651 H 0.67592 0.13186 0.943 0.0
H1652 H 0.63626 0.0774 0.94346 0.0
H1653 H 0.65745 0.05908 0.92025 0.0
C1654 C 0.68351 0.0467 0.8141 0.0
C1655 C 0.66469 0.03505 0.81243 0.0
C1656 C 0.69329 0.05329 0.83325 0.0
C1657 C 0.68467 0.04798 0.85112 0.0
C1658 C 0.66598 0.03614 0.84943 0.0
C1659 C 0.65607 0.02981 0.83032 0.0
C1660 C 0.69464 0.05546 0.87156 0.0
C1661 C 0.68306 0.06546 0.88557 0.0
C1662 C 0.71551 0.05354 0.87704 0.0
C1663 C 0.72825 0.04182 0.86367 0.0
C1664 C 0.72213 0.02151 0.85662 0.0
C1665 C 0.73413 0.01057 0.84394 0.0
C1666 C 0.75237 0.01973 0.83832 0.0
C1667 C 0.75867 0.03984 0.8454 0.0
C1668 C 0.74671 0.05086 0.85807 0.0
C1669 C 0.72496 0.08447 0.96661 0.0
C1670 C 0.73908 0.10155 0.96713 0.0
C1671 C 0.71677 0.07461 0.94797 0.0
C1672 C 0.7228 0.0815 0.92959 0.0
C1673 C 0.7376 0.09791 0.9301 0.0
C1674 C 0.74553 0.10797 0.94869 0.0
C1675 C 0.71277 0.07251 0.90981 0.0
C1676 C 0.72436 0.06236 0.89599 0.0
C1677 C 0.69186 0.07404 0.90457 0.0
C1678 C 0.67901 0.08509 0.91836 0.0
C1679 C 0.68399 0.10575 0.9248 0.0
C1680 C 0.67196 0.11598 0.93802 0.0
C1681 C 0.65479 0.10575 0.94477 0.0
C1682 C 0.64959 0.08529 0.93826 0.0
C1683 C 0.6616 0.07498 0.92506 0.0
H1684 H 0.64549 0.1137 0.95501 0.0
H1685 H 0.76164 0.01123 0.8285 0.0
H1686 H 0.57876 0.74408 0.88949 0.0
H1687 H 0.60879 0.73052 0.90551 0.0
H1688 H 0.58994 0.74825 0.96483 0.0
H1689 H 0.5596 0.7617 0.94892 0.0
H1690 H 0.63297 0.75673 0.9603 0.0
H1691 H 0.58022 0.70153 0.94868 0.0
H1692 H 0.55378 0.67918 0.92775 0.0
H1693 H 0.59843 0.65944 0.88842 0.0
H1694 H 0.6251 0.68193 0.90896 0.0
H1695 H 0.69346 0.6974 0.02099 0.0
H1696 H 0.66599 0.71403 0.0041 0.0
H1697 H 0.67741 0.68376 0.94643 0.0
H1698 H 0.70455 0.66641 0.96348 0.0
H1699 H 0.6386 0.68239 0.9491 0.0
H1700 H 0.69165 0.73605 0.96008 0.0
H1701 H 0.71869 0.75894 0.97952 0.0
H1702 H 0.67499 0.78232 0.01802 0.0
H1703 H 0.64772 0.75937 0.99897 0.0
C1704 C 0.58107 0.74536 0.90595 0.0
C1705 C 0.56667 0.75392 0.91792 0.0
C1706 C 0.59823 0.73752 0.91507 0.0
C1707 C 0.60149 0.73821 0.93634 0.0
C1708 C 0.58768 0.74754 0.94837 0.0
C1709 C 0.57033 0.75518 0.93926 0.0
C1710 C 0.61882 0.72836 0.94594 0.0
C1711 C 0.63414 0.74045 0.95809 0.0
C1712 C 0.62059 0.70721 0.94249 0.0
C1713 C 0.60461 0.69357 0.93023 0.0
C1714 C 0.58437 0.69256 0.93547 0.0
C1715 C 0.56935 0.67984 0.9237 0.0
C1716 C 0.57441 0.66794 0.90673 0.0
C1717 C 0.59453 0.66869 0.90155 0.0
C1718 C 0.6096 0.68141 0.91325 0.0
C1719 C 0.69022 0.69433 0.00468 0.0
C1720 C 0.70127 0.68063 0.99356 0.0
C1721 C 0.67455 0.70397 0.995 0.0
C1722 C 0.66979 0.7005 0.97387 0.0
C1723 C 0.68079 0.68677 0.96272 0.0
C1724 C 0.69635 0.67689 0.97247 0.0
C1725 C 0.65295 0.71072 0.96362 0.0
C1726 C 0.63762 0.69869 0.95131 0.0
C1727 C 0.65132 0.73199 0.96673 0.0
C1728 C 0.66767 0.74585 0.9782 0.0
C1729 C 0.68783 0.74596 0.97278 0.0
C1730 C 0.70319 0.75897 0.98372 0.0
C1731 C 0.69857 0.77204 1.00002 0.0
C1732 C 0.67856 0.77217 0.00539 0.0
C1733 C 0.66313 0.75918 0.99452 0.0
H1734 H 0.71049 0.78209 0.00847 0.0
H1735 H 0.56276 0.6581 0.89764 0.0
H1736 H 0.06414 0.06412 0.75066 0.0
H1737 H 0.04748 0.0926 0.7658 0.0
H1738 H 0.09595 0.10277 0.81383 0.0
H1739 H 0.11283 0.07425 0.79868 0.0
H1740 H 0.03258 0.10021 0.80237 0.0
H1741 H 0.10464 0.15451 0.82535 0.0
H1742 H 0.13932 0.16112 0.81472 0.0
H1743 H 0.11905 0.13671 0.75387 0.0
H1744 H 0.08421 0.13022 0.76407 0.0
H1745 H 0.01274 0.18427 0.87013 0.0
H1746 H 0.02583 0.15451 0.85312 0.0
H1747 H 0.03618 0.18804 0.80089 0.0
H1748 H 0.02322 0.218 0.81786 0.0
H1749 H 0.06921 0.169 0.81254 0.0
H1750 H 0.99785 0.15068 0.79851 0.0
H1751 H 0.96227 0.1446 0.80673 0.0
H1752 H 0.97933 0.0981 0.84511 0.0
H1753 H 0.01507 0.10409 0.83733 0.0
C1754 C 0.07125 0.07233 0.76451 0.0
C1755 C 0.08988 0.06695 0.77341 0.0
C1756 C 0.06164 0.08859 0.77318 0.0
C1757 C 0.07053 0.09995 0.79085 0.0
C1758 C 0.08892 0.09436 0.80006 0.0
C1759 C 0.09851 0.07801 0.79143 0.0
C1760 C 0.06072 0.11792 0.79929 0.0
C1761 C 0.04062 0.11524 0.80466 0.0
C1762 C 0.07103 0.13762 0.80192 0.0
C1763 C 0.09187 0.14169 0.79555 0.0
C1764 C 0.10758 0.15062 0.80969 0.0
C1765 C 0.12726 0.15434 0.80374 0.0
C1766 C 0.1314 0.14927 0.78365 0.0
C1767 C 0.11584 0.14055 0.76945 0.0
C1768 C 0.09613 0.13683 0.77531 0.0
C1769 C 0.01753 0.18528 0.8549 0.0
C1770 C 0.01691 0.20359 0.84539 0.0
C1771 C 0.025 0.1682 0.84518 0.0
C1772 C 0.03197 0.16899 0.8257 0.0
C1773 C 0.03093 0.18708 0.81594 0.0
C1774 C 0.02338 0.20417 0.82563 0.0
C1775 C 0.04116 0.15126 0.81592 0.0
C1776 C 0.06118 0.15397 0.81032 0.0
C1777 C 0.03066 0.13165 0.81282 0.0
C1778 C 0.00917 0.12797 0.81748 0.0
C1779 C 0.99404 0.13927 0.80883 0.0
C1780 C 0.97384 0.13582 0.81339 0.0
C1781 C 0.96855 0.12101 0.82647 0.0
C1782 C 0.98345 0.10958 0.83499 0.0
C1783 C 0.00368 0.11298 0.8305 0.0
H1784 H 0.9529 0.11836 0.82998 0.0
H1785 H 0.14665 0.15215 0.77908 0.0
H1786 H 0.95761 0.31077 0.39748 0.0
H1787 H 0.92637 0.32414 0.40857 0.0
H1788 H 0.92789 0.2858 0.45856 0.0
H1789 H 0.95873 0.2721 0.44731 0.0
H1790 H 0.89127 0.28253 0.44 0.0
H1791 H 0.93967 0.33869 0.46495 0.0
H1792 H 0.96691 0.36574 0.46229 0.0
H1793 H 0.92845 0.39333 0.41883 0.0
H1794 H 0.90105 0.36628 0.42104 0.0
H1795 H 0.82078 0.3247 0.50235 0.0
H1796 H 0.85101 0.31341 0.4875 0.0
H1797 H 0.84147 0.35202 0.43849 0.0
H1798 H 0.81117 0.3637 0.45351 0.0
H1799 H 0.88087 0.35564 0.45351 0.0
H1800 H 0.8317 0.30034 0.43038 0.0
H1801 H 0.80451 0.27341 0.43362 0.0
H1802 H 0.84465 0.24416 0.47412 0.0
H1803 H 0.87201 0.27108 0.47134 0.0
C1804 C 0.95143 0.3054 0.41099 0.0
C1805 C 0.96068 0.29035 0.42149 0.0
C1806 C 0.93356 0.31308 0.41735 0.0
C1807 C 0.92473 0.30605 0.43448 0.0
C1808 C 0.93429 0.29142 0.44525 0.0
C1809 C 0.95202 0.28365 0.43884 0.0
C1810 C 0.90511 0.31318 0.4408 0.0
C1811 C 0.88912 0.29853 0.44317 0.0
C1812 C 0.90195 0.33406 0.44432 0.0
C1813 C 0.9184 0.35034 0.443 0.0
C1814 C 0.93708 0.35043 0.4547 0.0
C1815 C 0.95254 0.36578 0.4533 0.0
C1816 C 0.94943 0.38121 0.44036 0.0
C1817 C 0.93084 0.38135 0.42883 0.0
C1818 C 0.91534 0.36602 0.43016 0.0
C1819 C 0.82495 0.3307 0.4883 0.0
C1820 C 0.81346 0.34507 0.47908 0.0
C1821 C 0.84226 0.32416 0.47978 0.0
C1822 C 0.84846 0.33168 0.46174 0.0
C1823 C 0.83698 0.34596 0.45239 0.0
C1824 C 0.81959 0.35254 0.46094 0.0
C1825 C 0.86724 0.32496 0.45308 0.0
C1826 C 0.88302 0.33967 0.45021 0.0
C1827 C 0.87025 0.3041 0.44914 0.0
C1828 C 0.85386 0.28782 0.45077 0.0
C1829 C 0.83468 0.28825 0.44009 0.0
C1830 C 0.81925 0.27297 0.44183 0.0
C1831 C 0.82284 0.25711 0.4541 0.0
C1832 C 0.84189 0.25646 0.46463 0.0
C1833 C 0.85737 0.27171 0.46296 0.0
H1834 H 0.81087 0.24529 0.45543 0.0
H1835 H 0.96142 0.39308 0.4393 0.0
H1836 H 0.55906 0.96867 0.77146 0.0
H1837 H 0.54482 0.93681 0.78321 0.0
H1838 H 0.60517 0.91618 0.7903 0.0
H1839 H 0.61905 0.94726 0.77684 0.0
H1840 H 0.58273 0.88551 0.78045 0.0
H1841 H 0.57787 0.93929 0.83156 0.0
H1842 H 0.56838 0.97229 0.84627 0.0
H1843 H 0.50514 0.95289 0.83184 0.0
H1844 H 0.51427 0.91985 0.81681 0.0
H1845 H 0.53528 0.8363 0.87284 0.0
H1846 H 0.54712 0.86659 0.85665 0.0
H1847 H 0.53596 0.83305 0.79766 0.0
H1848 H 0.52576 0.8024 0.81406 0.0
H1849 H 0.53416 0.89082 0.83377 0.0
H1850 H 0.56607 0.84963 0.76347 0.0
H1851 H 0.58173 0.81781 0.7545 0.0
H1852 H 0.60171 0.81397 0.81735 0.0
H1853 H 0.5864 0.84588 0.82666 0.0
C1854 C 0.56916 0.95709 0.77515 0.0
C1855 C 0.59012 0.96037 0.77325 0.0
C1856 C 0.56108 0.93897 0.78213 0.0
C1857 C 0.57392 0.92419 0.78836 0.0
C1858 C 0.59482 0.92722 0.7857 0.0
C1859 C 0.60279 0.94502 0.77799 0.0
C1860 C 0.5658 0.90593 0.79819 0.0
C1861 C 0.57211 0.88674 0.79211 0.0
C1862 C 0.55234 0.90735 0.81387 0.0
C1863 C 0.54677 0.92719 0.82287 0.0
C1864 C 0.56195 0.94212 0.8314 0.0
C1865 C 0.55663 0.96082 0.83981 0.0
C1866 C 0.53617 0.96471 0.83994 0.0
C1867 C 0.52098 0.94987 0.8317 0.0
C1868 C 0.52622 0.93115 0.82325 0.0
C1869 C 0.53532 0.83548 0.85641 0.0
C1870 C 0.52978 0.81701 0.8447 0.0
C1871 C 0.54207 0.85281 0.84712 0.0
C1872 C 0.54296 0.85216 0.82586 0.0
C1873 C 0.53622 0.83392 0.8141 0.0
C1874 C 0.53015 0.81642 0.82346 0.0
C1875 C 0.55119 0.87042 0.81612 0.0
C1876 C 0.5448 0.88959 0.82213 0.0
C1877 C 0.56552 0.86916 0.80125 0.0
C1878 C 0.57488 0.85002 0.79577 0.0
C1879 C 0.57385 0.84202 0.77536 0.0
C1880 C 0.58266 0.82397 0.77022 0.0
C1881 C 0.59264 0.81384 0.78535 0.0
C1882 C 0.59391 0.82179 0.80565 0.0
C1883 C 0.58515 0.83984 0.81087 0.0
H1884 H 0.59944 0.79986 0.78135 0.0
H1885 H 0.53209 0.97919 0.84646 0.0
H1886 H 0.96468 0.20648 0.37621 0.0
H1887 H 0.95063 0.17307 0.36115 0.0
H1888 H 0.98634 0.17981 0.30978 0.0
H1889 H 1.00021 0.21355 0.32457 0.0
H1890 H 0.94907 0.16207 0.2976 0.0
H1891 H 1.00199 0.15167 0.34831 0.0
H1892 H 0.02062 0.15571 0.38233 0.0
H1893 H 0.96842 0.12884 0.40821 0.0
H1894 H 0.94937 0.1249 0.37437 0.0
H1895 H 0.93863 0.05581 0.26539 0.0
H1896 H 0.95457 0.08935 0.27871 0.0
H1897 H 0.91477 0.09038 0.32741 0.0
H1898 H 0.89861 0.05704 0.31413 0.0
H1899 H 0.95593 0.10368 0.33991 0.0
H1900 H 0.90285 0.1153 0.28899 0.0
H1901 H 0.8847 0.11076 0.25474 0.0
H1902 H 0.93819 0.13483 0.22894 0.0
H1903 H 0.95677 0.1392 0.26303 0.0
C1904 C 0.96944 0.20098 0.36162 0.0
C1905 C 0.98373 0.21264 0.35169 0.0
C1906 C 0.96145 0.18181 0.35307 0.0
C1907 C 0.96777 0.17374 0.33455 0.0
C1908 C 0.98134 0.18568 0.32414 0.0
C1909 C 0.98926 0.20497 0.33263 0.0
C1910 C 0.96065 0.15262 0.32645 0.0
C1911 C 0.95086 0.14927 0.30674 0.0
C1912 C 0.96275 0.13591 0.33846 0.0
C1913 C 0.9742 0.13816 0.35883 0.0
C1914 C 0.99443 0.14676 0.36128 0.0
C1915 C 0.00508 0.14901 0.38052 0.0
C1916 C 0.99569 0.14258 0.39743 0.0
C1917 C 0.97566 0.13384 0.39511 0.0
C1918 C 0.96494 0.13157 0.37589 0.0
C1919 C 0.93345 0.06306 0.27909 0.0
C1920 C 0.91731 0.05381 0.28867 0.0
C1921 C 0.9425 0.08225 0.2866 0.0
C1922 C 0.9357 0.09237 0.30391 0.0
C1923 C 0.92019 0.08281 0.314 0.0
C1924 C 0.91096 0.06379 0.30636 0.0
C1925 C 0.94423 0.11323 0.31121 0.0
C1926 C 0.95429 0.1165 0.33076 0.0
C1927 C 0.94247 0.1298 0.29901 0.0
C1928 C 0.93128 0.12735 0.27853 0.0
C1929 C 0.91081 0.11945 0.27599 0.0
C1930 C 0.90042 0.11694 0.25661 0.0
C1931 C 0.9103 0.12245 0.23967 0.0
C1932 C 0.93057 0.13054 0.24208 0.0
C1933 C 0.94103 0.13304 0.26143 0.0
H1934 H 0.90223 0.1205 0.22468 0.0
H1935 H 0.00396 0.14434 0.41232 0.0
H1936 H 0.62567 0.06805 0.70703 0.0
H1937 H 0.61138 0.09813 0.69454 0.0
H1938 H 0.5636 0.09234 0.73515 0.0
H1939 H 0.5775 0.06174 0.74729 0.0
H1940 H 0.5486 0.10397 0.70033 0.0
H1941 H 0.606 0.12689 0.74668 0.0
H1942 H 0.64156 0.1286 0.76135 0.0
H1943 H 0.6623 0.14872 0.70566 0.0
H1944 H 0.62686 0.14687 0.69055 0.0
H1945 H 0.52316 0.20676 0.69148 0.0
H1946 H 0.53523 0.17648 0.70622 0.0
H1947 H 0.57911 0.17209 0.66144 0.0
H1948 H 0.5671 0.20215 0.64655 0.0
H1949 H 0.5952 0.16653 0.70086 0.0
H1950 H 0.53668 0.14206 0.65466 0.0
H1951 H 0.50074 0.14092 0.64128 0.0
H1952 H 0.48174 0.12476 0.69903 0.0
H1953 H 0.5176 0.12609 0.71284 0.0
C1954 C 0.612 0.07303 0.71319 0.0
C1955 C 0.60283 0.06256 0.72829 0.0
C1956 C 0.60391 0.09035 0.70612 0.0
C1957 C 0.5867 0.09787 0.71427 0.0
C1958 C 0.57698 0.08695 0.72872 0.0
C1959 C 0.58494 0.06943 0.73564 0.0
C1960 C 0.57923 0.11735 0.708 0.0
C1961 C 0.55874 0.11772 0.70076 0.0
C1962 C 0.59243 0.13533 0.70838 0.0
C1963 C 0.61377 0.13657 0.71743 0.0
C1964 C 0.61815 0.13155 0.73752 0.0
C1965 C 0.63828 0.13256 0.74591 0.0
C1966 C 0.65418 0.13872 0.73443 0.0
C1967 C 0.64997 0.14393 0.71453 0.0
C1968 C 0.62986 0.14292 0.70605 0.0
C1969 C 0.5355 0.19946 0.68489 0.0
C1970 C 0.54412 0.20685 0.66779 0.0
C1971 C 0.5423 0.1821 0.69327 0.0
C1972 C 0.55795 0.17193 0.68481 0.0
C1973 C 0.567 0.17967 0.66818 0.0
C1974 C 0.56007 0.19684 0.65966 0.0
C1975 C 0.56473 0.15301 0.69295 0.0
C1976 C 0.58508 0.15279 0.70058 0.0
C1977 C 0.55135 0.13528 0.69317 0.0
C1978 C 0.52981 0.1344 0.68485 0.0
C1979 C 0.52484 0.13844 0.66456 0.0
C1980 C 0.50448 0.13773 0.65689 0.0
C1981 C 0.48897 0.13284 0.66932 0.0
C1982 C 0.49378 0.12859 0.68943 0.0
C1983 C 0.51411 0.12931 0.69719 0.0
H1984 H 0.47322 0.13229 0.66335 0.0
H1985 H 0.66976 0.13949 0.74095 0.0
H1986 H 0.22396 0.32506 0.98145 0.0
H1987 H 0.19154 0.30882 0.96537 0.0
H1988 H 0.16684 0.3674 0.96601 0.0
H1989 H 0.19933 0.3837 0.98109 0.0
H1990 H 0.15513 0.30449 0.9759 0.0
H1991 H 0.13258 0.37037 0.92732 0.0
H1992 H 0.14927 0.39744 0.90918 0.0
H1993 H 0.20108 0.36273 0.90336 0.0
H1994 H 0.18459 0.33535 0.92121 0.0
H1995 H 0.0506 0.28548 0.9407 0.0
H1996 H 0.08366 0.30038 0.95649 0.0
H1997 H 0.10737 0.299 0.89737 0.0
H1998 H 0.07424 0.28532 0.88156 0.0
H1999 H 0.1207 0.33191 0.91579 0.0
H2000 H 0.1182 0.26353 0.93476 0.0
H2001 H 0.10405 0.23288 0.94951 0.0
H2002 H 0.10681 0.26602 0.00822 0.0
H2003 H 0.12075 0.29695 0.99376 0.0
C2004 C 0.21164 0.33445 0.97799 0.0
C2005 C 0.21429 0.35568 0.98229 0.0
C2006 C 0.19309 0.32516 0.96889 0.0
C2007 C 0.17679 0.33689 0.96414 0.0
C2008 C 0.1793 0.35803 0.96896 0.0
C2009 C 0.19791 0.36735 0.97766 0.0
C2010 C 0.15712 0.32715 0.9542 0.0
C2011 C 0.14762 0.31044 0.96271 0.0
C2012 C 0.14745 0.33459 0.93673 0.0
C2013 C 0.15741 0.35091 0.92579 0.0
C2014 C 0.1475 0.36849 0.9221 0.0
C2015 C 0.15693 0.38389 0.91188 0.0
C2016 C 0.17625 0.38183 0.90518 0.0
C2017 C 0.18615 0.36434 0.90862 0.0
C2018 C 0.17678 0.34888 0.91881 0.0
C2019 C 0.06289 0.28845 0.93113 0.0
C2020 C 0.05981 0.28431 0.9099 0.0
C2021 C 0.08184 0.29682 0.94016 0.0
C2022 C 0.09821 0.30059 0.92819 0.0
C2023 C 0.09505 0.29638 0.90699 0.0
C2024 C 0.07606 0.28851 0.89795 0.0
C2025 C 0.11857 0.30924 0.93749 0.0
C2026 C 0.12818 0.32585 0.92893 0.0
C2027 C 0.12869 0.30116 0.95438 0.0
C2028 C 0.12033 0.2826 0.96313 0.0
C2029 C 0.11565 0.26431 0.95079 0.0
C2030 C 0.10769 0.24689 0.9591 0.0
C2031 C 0.10448 0.24752 0.97978 0.0
C2032 C 0.10928 0.26557 0.9922 0.0
C2033 C 0.11723 0.28304 0.98396 0.0
H2034 H 0.09832 0.23402 0.98619 0.0
H2035 H 0.18354 0.39378 0.89729 0.0
H2036 H 0.43487 0.75617 0.41046 0.0
H2037 H 0.40407 0.74603 0.42682 0.0
H2038 H 0.43852 0.70876 0.46513 0.0
H2039 H 0.46923 0.71867 0.44883 0.0
H2040 H 0.40373 0.6883 0.44844 0.0
H2041 H 0.42305 0.75383 0.48419 0.0
H2042 H 0.43231 0.79083 0.48722 0.0
H2043 H 0.37462 0.80068 0.45678 0.0
H2044 H 0.36512 0.76369 0.45333 0.0
H2045 H 0.32788 0.66387 0.51436 0.0
H2046 H 0.35964 0.67802 0.50228 0.0
H2047 H 0.32593 0.71676 0.46496 0.0
H2048 H 0.29423 0.70296 0.47718 0.0
H2049 H 0.36054 0.73689 0.48167 0.0
H2050 H 0.34143 0.67231 0.44448 0.0
H2051 H 0.33162 0.63541 0.44021 0.0
H2052 H 0.38825 0.62389 0.47174 0.0
H2053 H 0.39829 0.66077 0.47644 0.0
C2054 C 0.43591 0.74594 0.42247 0.0
C2055 C 0.45453 0.73825 0.42833 0.0
C2056 C 0.4183 0.7402 0.43186 0.0
C2057 C 0.41898 0.72671 0.44731 0.0
C2058 C 0.43759 0.71916 0.45325 0.0
C2059 C 0.45517 0.72491 0.44394 0.0
C2060 C 0.40024 0.71987 0.45685 0.0
C2061 C 0.39446 0.69892 0.45598 0.0
C2062 C 0.38781 0.73373 0.4662 0.0
C2063 C 0.39346 0.75597 0.46833 0.0
C2064 C 0.41241 0.76387 0.478 0.0
C2065 C 0.41768 0.78484 0.47982 0.0
C2066 C 0.40408 0.79809 0.47215 0.0
C2067 C 0.38515 0.7904 0.46269 0.0
C2068 C 0.3798 0.76943 0.46082 0.0
C2069 C 0.32725 0.6756 0.5038 0.0
C2070 C 0.30848 0.68218 0.49665 0.0
C2071 C 0.34541 0.6836 0.49681 0.0
C2072 C 0.34516 0.69823 0.48243 0.0
C2073 C 0.32654 0.70546 0.476 0.0
C2074 C 0.3084 0.6975 0.48299 0.0
C2075 C 0.36412 0.70532 0.47337 0.0
C2076 C 0.36988 0.72628 0.47424 0.0
C2077 C 0.37648 0.69149 0.46385 0.0
C2078 C 0.37052 0.66931 0.461 0.0
C2079 C 0.35173 0.66192 0.45065 0.0
C2080 C 0.34613 0.64101 0.44812 0.0
C2081 C 0.35928 0.62732 0.45575 0.0
C2082 C 0.37807 0.63452 0.46587 0.0
C2083 C 0.38373 0.65542 0.46845 0.0
H2084 H 0.35493 0.61114 0.45378 0.0
H2085 H 0.4082 0.81433 0.47357 0.0
H2086 H 0.85759 0.5168 0.83531 0.0
H2087 H 0.84156 0.52682 0.86634 0.0
H2088 H 0.80373 0.56505 0.83258 0.0
H2089 H 0.81979 0.55536 0.80167 0.0
H2090 H 0.82018 0.58493 0.86725 0.0
H2091 H 0.7845 0.51936 0.84789 0.0
H2092 H 0.7815 0.48238 0.8385 0.0
H2093 H 0.81236 0.47237 0.89598 0.0
H2094 H 0.81579 0.50933 0.90561 0.0
H2095 H 0.75485 0.60872 0.94381 0.0
H2096 H 0.76667 0.59476 0.91184 0.0
H2097 H 0.80446 0.55609 0.94508 0.0
H2098 H 0.7925 0.56968 0.97699 0.0
H2099 H 0.78747 0.53602 0.91052 0.0
H2100 H 0.82451 0.60077 0.92957 0.0
H2101 H 0.82862 0.63766 0.93944 0.0
H2102 H 0.79654 0.6491 0.88302 0.0
H2103 H 0.79201 0.61223 0.87293 0.0
C2104 C 0.84576 0.52723 0.83447 0.0
C2105 C 0.83998 0.53527 0.81599 0.0
C2106 C 0.83655 0.5329 0.85222 0.0
C2107 C 0.82131 0.5466 0.85179 0.0
C2108 C 0.81545 0.55449 0.83331 0.0
C2109 C 0.82463 0.54886 0.81562 0.0
C2110 C 0.81191 0.55331 0.87066 0.0
C2111 C 0.81275 0.57423 0.87652 0.0
C2112 C 0.80269 0.53936 0.88311 0.0
C2113 C 0.80057 0.51713 0.87738 0.0
C2114 C 0.79078 0.50928 0.85846 0.0
C2115 C 0.78898 0.48832 0.85311 0.0
C2116 C 0.79678 0.47504 0.86661 0.0
C2117 C 0.80635 0.48268 0.88552 0.0
C2118 C 0.80821 0.50363 0.89094 0.0
C2119 C 0.76546 0.59704 0.94429 0.0
C2120 C 0.77283 0.59043 0.96298 0.0
C2121 C 0.77229 0.58915 0.92601 0.0
C2122 C 0.78673 0.5746 0.92607 0.0
C2123 C 0.79338 0.56732 0.94463 0.0
C2124 C 0.78654 0.57517 0.96289 0.0
C2125 C 0.79563 0.56764 0.90699 0.0
C2126 C 0.79478 0.5467 0.90115 0.0
C2127 C 0.80498 0.58156 0.8946 0.0
C2128 C 0.80773 0.60373 0.9006 0.0
C2129 C 0.81819 0.61114 0.91934 0.0
C2130 C 0.82062 0.63205 0.92497 0.0
C2131 C 0.81279 0.64571 0.9119 0.0
C2132 C 0.80256 0.6385 0.89315 0.0
C2133 C 0.80008 0.6176 0.88746 0.0
H2134 H 0.81468 0.66189 0.91627 0.0
H2135 H 0.79537 0.45882 0.86244 0.0
H2136 H 0.64272 0.56844 0.20273 0.0
H2137 H 0.65705 0.58142 0.17285 0.0
H2138 H 0.70124 0.53671 0.17454 0.0
H2139 H 0.68743 0.52416 0.20498 0.0
H2140 H 0.71868 0.57049 0.16451 0.0
H2141 H 0.65693 0.53078 0.14076 0.0
H2142 H 0.62036 0.51974 0.13939 0.0
H2143 H 0.60549 0.57896 0.12366 0.0
H2144 H 0.64199 0.59044 0.1252 0.0
H2145 H 0.74337 0.58039 0.06207 0.0
H2146 H 0.7301 0.566 0.09194 0.0
H2147 H 0.69174 0.6155 0.09893 0.0
H2148 H 0.70494 0.63003 0.06918 0.0
H2149 H 0.67173 0.57768 0.1037 0.0
H2150 H 0.73477 0.61676 0.1283 0.0
H2151 H 0.77161 0.62625 0.12884 0.0
H2152 H 0.78417 0.56556 0.14171 0.0
H2153 H 0.74738 0.55564 0.14097 0.0
C2154 C 0.6556 0.56147 0.19685 0.0
C2155 C 0.66384 0.54517 0.20617 0.0
C2156 C 0.66371 0.56882 0.17965 0.0
C2157 C 0.67992 0.55973 0.17106 0.0
C2158 C 0.68866 0.54392 0.18077 0.0
C2159 C 0.68075 0.53676 0.1982 0.0
C2160 C 0.68751 0.56651 0.1518 0.0
C2161 C 0.70842 0.57176 0.15114 0.0
C2162 C 0.67417 0.56839 0.13431 0.0
C2163 C 0.6522 0.56152 0.13327 0.0
C2164 C 0.64586 0.54149 0.13714 0.0
C2165 C 0.62515 0.53515 0.13632 0.0
C2166 C 0.61061 0.54866 0.13149 0.0
C2167 C 0.61676 0.56852 0.12742 0.0
C2168 C 0.63746 0.57495 0.12824 0.0
C2169 C 0.73198 0.58813 0.06984 0.0
C2170 C 0.72528 0.60642 0.06325 0.0
C2171 C 0.72449 0.57993 0.08698 0.0
C2172 C 0.71009 0.5898 0.09778 0.0
C2173 C 0.70288 0.60767 0.09085 0.0
C2174 C 0.71049 0.61597 0.07385 0.0
C2175 C 0.70278 0.58179 0.11657 0.0
C2176 C 0.68194 0.5763 0.11709 0.0
C2177 C 0.71621 0.57941 0.13379 0.0
C2178 C 0.73832 0.58541 0.13436 0.0
C2179 C 0.74539 0.6054 0.13108 0.0
C2180 C 0.76626 0.61086 0.13145 0.0
C2181 C 0.78022 0.5965 0.13525 0.0
C2182 C 0.77334 0.57666 0.13874 0.0
C2183 C 0.75248 0.57111 0.13836 0.0
H2184 H 0.79637 0.60076 0.13554 0.0
H2185 H 0.59458 0.54372 0.13086 0.0
H2186 H 0.7527 0.40922 0.43191 0.0
H2187 H 0.7427 0.42584 0.40121 0.0
H2188 H 0.70333 0.462 0.43527 0.0
H2189 H 0.71296 0.4453 0.46582 0.0
H2190 H 0.6841 0.44647 0.4002 0.0
H2191 H 0.74926 0.48241 0.42091 0.0
H2192 H 0.78617 0.48562 0.43069 0.0
H2193 H 0.79701 0.45631 0.37276 0.0
H2194 H 0.76013 0.45269 0.36274 0.0
H2195 H 0.66066 0.51398 0.32543 0.0
H2196 H 0.6745 0.50138 0.35709 0.0
H2197 H 0.71324 0.46436 0.32315 0.0
H2198 H 0.69972 0.47706 0.29154 0.0
H2199 H 0.73319 0.48086 0.35825 0.0
H2200 H 0.66875 0.44368 0.33785 0.0
H2201 H 0.63193 0.43954 0.32764 0.0
H2202 H 0.61988 0.47012 0.38459 0.0
H2203 H 0.65668 0.47466 0.39503 0.0
C2204 C 0.74201 0.4208 0.43288 0.0
C2205 C 0.73364 0.42592 0.45133 0.0
C2206 C 0.73636 0.43035 0.41533 0.0
C2207 C 0.72236 0.44532 0.41593 0.0
C2208 C 0.71412 0.45051 0.43439 0.0
C2209 C 0.71971 0.44096 0.45188 0.0
C2210 C 0.71574 0.45515 0.39727 0.0
C2211 C 0.69484 0.45426 0.39122 0.0
C2212 C 0.72973 0.46486 0.3852 0.0
C2213 C 0.75192 0.46711 0.39116 0.0
C2214 C 0.7595 0.47651 0.41032 0.0
C2215 C 0.78042 0.47843 0.41589 0.0
C2216 C 0.79392 0.47113 0.40237 0.0
C2217 C 0.78653 0.46194 0.38323 0.0
C2218 C 0.76563 0.45997 0.37758 0.0
C2219 C 0.67233 0.50338 0.32473 0.0
C2220 C 0.67897 0.49644 0.30593 0.0
C2221 C 0.68015 0.4961 0.34283 0.0
C2222 C 0.69469 0.48166 0.34247 0.0
C2223 C 0.70201 0.47544 0.32382 0.0
C2224 C 0.6942 0.4827 0.30574 0.0
C2225 C 0.70157 0.47229 0.36132 0.0
C2226 C 0.72247 0.47318 0.36733 0.0
C2227 C 0.68761 0.46246 0.37334 0.0
C2228 C 0.66547 0.4597 0.36713 0.0
C2229 C 0.65826 0.44966 0.34813 0.0
C2230 C 0.63739 0.44722 0.34231 0.0
C2231 C 0.62358 0.45462 0.35543 0.0
C2232 C 0.6306 0.46442 0.37442 0.0
C2233 C 0.65146 0.46692 0.38031 0.0
H2234 H 0.60743 0.45271 0.3509 0.0
H2235 H 0.81011 0.47262 0.40672 0.0
H2236 H 0.87217 0.46222 0.70678 0.0
H2237 H 0.85649 0.44933 0.67325 0.0
H2238 H 0.8091 0.49015 0.67941 0.0
H2239 H 0.82451 0.5029 0.71331 0.0
H2240 H 0.79383 0.45381 0.66129 0.0
H2241 H 0.84889 0.50217 0.65174 0.0
H2242 H 0.88407 0.51802 0.6564 0.0
H2243 H 0.90589 0.46326 0.63018 0.0
H2244 H 0.87086 0.44696 0.62563 0.0
H2245 H 0.7633 0.44042 0.55461 0.0
H2246 H 0.77656 0.45731 0.58778 0.0
H2247 H 0.82385 0.41599 0.59132 0.0
H2248 H 0.81075 0.39905 0.55831 0.0
H2249 H 0.83789 0.45585 0.60384 0.0
H2250 H 0.78246 0.40716 0.6156 0.0
H2251 H 0.74704 0.39195 0.61053 0.0
H2252 H 0.72563 0.44872 0.63207 0.0
H2253 H 0.76094 0.46435 0.63698 0.0
C2254 C 0.8583 0.46834 0.70114 0.0
C2255 C 0.84971 0.48375 0.71267 0.0
C2256 C 0.8494 0.46102 0.6819 0.0
C2257 C 0.83189 0.46912 0.67361 0.0
C2258 C 0.82269 0.48379 0.68545 0.0
C2259 C 0.83152 0.49105 0.70482 0.0
C2260 C 0.82368 0.46267 0.65236 0.0
C2261 C 0.80337 0.45457 0.64868 0.0
C2262 C 0.83616 0.4635 0.63591 0.0
C2263 C 0.85725 0.47329 0.63849 0.0
C2264 C 0.8612 0.49346 0.64709 0.0
C2265 C 0.88112 0.50253 0.6497 0.0
C2266 C 0.89721 0.49164 0.64363 0.0
C2267 C 0.89341 0.47167 0.63489 0.0
C2268 C 0.87353 0.46251 0.63227 0.0
C2269 C 0.77669 0.43511 0.56232 0.0
C2270 C 0.78591 0.41831 0.55387 0.0
C2271 C 0.78417 0.4447 0.58131 0.0
C2272 C 0.80104 0.43773 0.59209 0.0
C2273 C 0.81078 0.42156 0.58327 0.0
C2274 C 0.80323 0.41187 0.56442 0.0
C2275 C 0.80821 0.44669 0.61287 0.0
C2276 C 0.82832 0.45528 0.61644 0.0
C2277 C 0.79551 0.44643 0.62916 0.0
C2278 C 0.77432 0.43698 0.62644 0.0
C2279 C 0.77019 0.41644 0.61911 0.0
C2280 C 0.75013 0.40774 0.61628 0.0
C2281 C 0.73409 0.41938 0.62091 0.0
C2282 C 0.73808 0.43973 0.62845 0.0
C2283 C 0.7581 0.44852 0.63127 0.0
H2284 H 0.71857 0.41262 0.6187 0.0
H2285 H 0.91262 0.4987 0.64566 0.0
H2286 H 0.44218 0.04806 0.23349 0.0
H2287 H 0.4589 0.0775 0.21952 0.0
H2288 H 0.42428 0.11741 0.25536 0.0
H2289 H 0.40681 0.08792 0.26858 0.0
H2290 H 0.42339 0.12944 0.2201 0.0
H2291 H 0.47775 0.11246 0.26579 0.0
H2292 H 0.50193 0.09048 0.28151 0.0
H2293 H 0.527 0.0791 0.22411 0.0
H2294 H 0.50279 0.10082 0.20798 0.0
H2295 H 0.51661 0.2061 0.20412 0.0
H2296 H 0.50086 0.17851 0.22155 0.0
H2297 H 0.4575 0.163 0.16947 0.0
H2298 H 0.47277 0.19118 0.15227 0.0
H2299 H 0.49774 0.14003 0.21481 0.0
H2300 H 0.41351 0.14117 0.18323 0.0
H2301 H 0.38987 0.16591 0.17182 0.0
H2302 H 0.42546 0.21393 0.20895 0.0
H2303 H 0.44916 0.18944 0.22078 0.0
C2304 C 0.43837 0.06313 0.23865 0.0
C2305 C 0.42319 0.06563 0.25219 0.0
C2306 C 0.44799 0.08001 0.23067 0.0
C2307 C 0.44305 0.09983 0.23646 0.0
C2308 C 0.42834 0.10235 0.25051 0.0
C2309 C 0.41843 0.08546 0.25817 0.0
C2310 C 0.45245 0.11784 0.22722 0.0
C2311 C 0.43967 0.13174 0.21903 0.0
C2312 C 0.47373 0.12118 0.226 0.0
C2313 C 0.48833 0.10812 0.23564 0.0
C2314 C 0.48832 0.10516 0.25649 0.0
C2315 C 0.50205 0.09276 0.26548 0.0
C2316 C 0.51596 0.08336 0.25381 0.0
C2317 C 0.5162 0.08637 0.23313 0.0
C2318 C 0.5025 0.09874 0.22406 0.0
C2319 C 0.50361 0.19692 0.19642 0.0
C2320 C 0.49588 0.20091 0.17683 0.0
C2321 C 0.49466 0.18106 0.20639 0.0
C2322 C 0.47784 0.16867 0.19697 0.0
C2323 C 0.47017 0.17254 0.17731 0.0
C2324 C 0.47896 0.18863 0.16743 0.0
C2325 C 0.46866 0.15154 0.20764 0.0
C2326 C 0.48147 0.13775 0.21598 0.0
C2327 C 0.44748 0.14868 0.20961 0.0
C2328 C 0.43322 0.1635 0.20271 0.0
C2329 C 0.41625 0.157 0.18901 0.0
C2330 C 0.40285 0.17098 0.18246 0.0
C2331 C 0.4062 0.19149 0.1896 0.0
C2332 C 0.42293 0.19805 0.20337 0.0
C2333 C 0.43636 0.18413 0.20998 0.0
H2334 H 0.39582 0.20229 0.1845 0.0
H2335 H 0.52657 0.07377 0.26079 0.0
H2336 H 0.03615 0.79267 0.69683 0.0
H2337 H 0.04734 0.82546 0.71571 0.0
H2338 H 0.04815 0.85402 0.65918 0.0
H2339 H 0.0365 0.8217 0.64037 0.0
H2340 H 0.08066 0.84919 0.71601 0.0
H2341 H 0.03729 0.90208 0.66429 0.0
H2342 H 0.00452 0.9011 0.6436 0.0
H2343 H 0.97828 0.85699 0.68052 0.0
H2344 H 0.01079 0.8579 0.70161 0.0
H2345 H 0.13109 0.94678 0.72365 0.0
H2346 H 0.11371 0.91344 0.71302 0.0
H2347 H 0.05852 0.93306 0.73617 0.0
H2348 H 0.07568 0.96693 0.74594 0.0
H2349 H 0.04898 0.91289 0.70218 0.0
H2350 H 0.0903 0.89924 0.76109 0.0
H2351 H 0.12165 0.89907 0.78384 0.0
H2352 H 0.14872 0.8637 0.73755 0.0
H2353 H 0.1177 0.86392 0.71442 0.0
C2354 C 0.03857 0.80598 0.68845 0.0
C2355 C 0.03532 0.80455 0.66709 0.0
C2356 C 0.04499 0.8247 0.69926 0.0
C2357 C 0.04828 0.84231 0.68891 0.0
C2358 C 0.04522 0.84081 0.66758 0.0
C2359 C 0.03866 0.82223 0.65682 0.0
C2360 C 0.05577 0.86213 0.70012 0.0
C2361 C 0.07365 0.86311 0.71314 0.0
C2362 C 0.04634 0.88024 0.69678 0.0
C2363 C 0.02655 0.87998 0.68446 0.0
C2364 C 0.02449 0.89228 0.66809 0.0
C2365 C 0.00597 0.8917 0.65627 0.0
C2366 C 0.98934 0.87895 0.66072 0.0
C2367 C 0.99118 0.86681 0.67705 0.0
C2368 C 0.00967 0.86734 0.68893 0.0
C2369 C 0.11528 0.94399 0.72659 0.0
C2370 C 0.10477 0.95948 0.73572 0.0
C2371 C 0.10537 0.92483 0.72063 0.0
C2372 C 0.08488 0.92049 0.72418 0.0
C2373 C 0.07434 0.93596 0.73332 0.0
C2374 C 0.08416 0.95531 0.73893 0.0
C2375 C 0.07434 0.90008 0.71755 0.0
C2376 C 0.05586 0.89898 0.70536 0.0
C2377 C 0.08297 0.8818 0.72206 0.0
C2378 C 0.10168 0.88168 0.73598 0.0
C2379 C 0.10298 0.89154 0.75571 0.0
C2380 C 0.1207 0.89142 0.76868 0.0
C2381 C 0.13715 0.88138 0.76213 0.0
C2382 C 0.13595 0.87146 0.7426 0.0
C2383 C 0.1183 0.87156 0.72957 0.0
H2384 H 0.15083 0.88123 0.77217 0.0
H2385 H 0.97502 0.8785 0.65153 0.0
H2386 H 0.45892 0.81386 0.36748 0.0
H2387 H 0.44522 0.84509 0.35666 0.0
H2388 H 0.48714 0.84733 0.30986 0.0
H2389 H 0.50104 0.81641 0.32073 0.0
H2390 H 0.48773 0.88348 0.3302 0.0
H2391 H 0.43569 0.83362 0.29888 0.0
H2392 H 0.40954 0.80485 0.298 0.0
H2393 H 0.37618 0.8394 0.3397 0.0
H2394 H 0.40229 0.8683 0.34103 0.0
H2395 H 0.44685 0.95439 0.26708 0.0
H2396 H 0.45848 0.92416 0.28177 0.0
H2397 H 0.41589 0.92986 0.3277 0.0
H2398 H 0.404 0.96023 0.31292 0.0
H2399 H 0.41488 0.89076 0.31079 0.0
H2400 H 0.46615 0.9415 0.34027 0.0
H2401 H 0.49225 0.97023 0.34058 0.0
H2402 H 0.52714 0.93392 0.30195 0.0
H2403 H 0.5011 0.90504 0.30116 0.0
C2404 C 0.46505 0.82087 0.35473 0.0
C2405 C 0.48108 0.8126 0.34498 0.0
C2406 C 0.45718 0.83874 0.34854 0.0
C2407 C 0.46509 0.8486 0.33238 0.0
C2408 C 0.48082 0.8401 0.32241 0.0
C2409 C 0.48869 0.82232 0.3286 0.0
C2410 C 0.4576 0.86814 0.32623 0.0
C2411 C 0.47182 0.88498 0.32574 0.0
C2412 C 0.43676 0.87038 0.32101 0.0
C2413 C 0.42106 0.85303 0.32024 0.0
C2414 C 0.42287 0.83501 0.308 0.0
C2415 C 0.40804 0.8187 0.30739 0.0
C2416 C 0.39124 0.82027 0.31884 0.0
C2417 C 0.38922 0.83819 0.33087 0.0
C2418 C 0.40402 0.85455 0.33155 0.0
C2419 C 0.44005 0.94938 0.28042 0.0
C2420 C 0.42452 0.95982 0.28885 0.0
C2421 C 0.44677 0.93207 0.28885 0.0
C2422 C 0.43819 0.92477 0.30596 0.0
C2423 C 0.42276 0.93521 0.31452 0.0
C2424 C 0.41607 0.95263 0.30612 0.0
C2425 C 0.44507 0.90595 0.31444 0.0
C2426 C 0.43076 0.88929 0.31539 0.0
C2427 C 0.46584 0.90383 0.32005 0.0
C2428 C 0.48158 0.92115 0.32052 0.0
C2429 C 0.47931 0.93968 0.33171 0.0
C2430 C 0.49411 0.95599 0.33199 0.0
C2431 C 0.51132 0.95392 0.32125 0.0
C2432 C 0.51379 0.93551 0.31024 0.0
C2433 C 0.49902 0.91916 0.30989 0.0
H2434 H 0.52276 0.96656 0.3215 0.0
H2435 H 0.37977 0.80763 0.31834 0.0
H2436 H 0.79687 0.69952 0.03141 0.0
H2437 H 0.82997 0.71826 0.04149 0.0
H2438 H 0.85667 0.66156 0.04941 0.0
H2439 H 0.82405 0.64285 0.03875 0.0
H2440 H 0.85306 0.72222 0.07482 0.0
H2441 H 0.90502 0.66328 0.03991 0.0
H2442 H 0.90436 0.6393 0.00937 0.0
H2443 H 0.86238 0.6744 0.97726 0.0
H2444 H 0.86303 0.69877 0.00748 0.0
H2445 H 0.94781 0.7294 0.12955 0.0
H2446 H 0.9149 0.71925 0.11119 0.0
H2447 H 0.93901 0.73469 0.05497 0.0
H2448 H 0.97245 0.74415 0.07328 0.0
H2449 H 0.91692 0.70117 0.04795 0.0
H2450 H 0.90531 0.76498 0.07998 0.0
H2451 H 0.9057 0.79212 0.10776 0.0
H2452 H 0.86667 0.75348 0.14012 0.0
H2453 H 0.86627 0.726 0.11268 0.0
C2454 C 0.80985 0.69107 0.03517 0.0
C2455 C 0.80783 0.66968 0.03415 0.0
C2456 C 0.82875 0.7018 0.04094 0.0
C2457 C 0.84595 0.69134 0.04587 0.0
C2458 C 0.84383 0.67 0.04513 0.0
C2459 C 0.82507 0.6593 0.03915 0.0
C2460 C 0.86597 0.70254 0.05267 0.0
C2461 C 0.867 0.71773 0.06883 0.0
C2462 C 0.88418 0.69723 0.04443 0.0
C2463 C 0.88398 0.68279 0.02605 0.0
C2464 C 0.89575 0.66597 0.0263 0.0
C2465 C 0.89536 0.65229 0.00905 0.0
C2466 C 0.8833 0.6553 0.9914 0.0
C2467 C 0.87167 0.67205 0.99095 0.0
C2468 C 0.87203 0.68579 0.00815 0.0
C2469 C 0.94614 0.73077 0.11329 0.0
C2470 C 0.96276 0.73768 0.10289 0.0
C2471 C 0.92721 0.72508 0.1028 0.0
C2472 C 0.92426 0.72661 0.08172 0.0
C2473 C 0.94085 0.73346 0.07124 0.0
C2474 C 0.95995 0.73888 0.08172 0.0
C2475 C 0.90405 0.72019 0.0707 0.0
C2476 C 0.90297 0.70591 0.05373 0.0
C2477 C 0.88577 0.72685 0.07775 0.0
C2478 C 0.88585 0.74338 0.09429 0.0
C2479 C 0.8969 0.76222 0.09308 0.0
C2480 C 0.89712 0.77767 0.10876 0.0
C2481 C 0.88624 0.77452 0.12571 0.0
C2482 C 0.87509 0.75591 0.12699 0.0
C2483 C 0.87483 0.74039 0.11135 0.0
H2484 H 0.88643 0.7865 0.13784 0.0
H2485 H 0.883 0.64468 0.97807 0.0
H2486 H 0.56583 0.25837 0.56546 0.0
H2487 H 0.59448 0.27377 0.54927 0.0
H2488 H 0.6138 0.31081 0.60502 0.0
H2489 H 0.58435 0.29622 0.62087 0.0
H2490 H 0.6203 0.3325 0.57643 0.0
H2491 H 0.63708 0.26561 0.58839 0.0
H2492 H 0.63237 0.22819 0.58747 0.0
H2493 H 0.62857 0.22401 0.52212 0.0
H2494 H 0.63299 0.26143 0.52264 0.0
H2495 H 0.72616 0.32483 0.53268 0.0
H2496 H 0.69763 0.3086 0.54858 0.0
H2497 H 0.65717 0.34831 0.52027 0.0
H2498 H 0.68568 0.36501 0.50489 0.0
H2499 H 0.6634 0.28798 0.53768 0.0
H2500 H 0.62183 0.36183 0.55114 0.0
H2501 H 0.63051 0.39885 0.55741 0.0
H2502 H 0.69069 0.38835 0.58124 0.0
H2503 H 0.68229 0.35129 0.57535 0.0
C2504 C 0.57612 0.2699 0.57422 0.0
C2505 C 0.57291 0.27603 0.59446 0.0
C2506 C 0.59263 0.27859 0.56499 0.0
C2507 C 0.60674 0.29313 0.57601 0.0
C2508 C 0.60325 0.29959 0.59614 0.0
C2509 C 0.58642 0.29124 0.60522 0.0
C2510 C 0.62504 0.30153 0.56655 0.0
C2511 C 0.62967 0.32271 0.56797 0.0
C2512 C 0.6378 0.28886 0.55595 0.0
C2513 C 0.63519 0.26634 0.55556 0.0
C2514 C 0.6351 0.25672 0.57382 0.0
C2515 C 0.63251 0.2355 0.57337 0.0
C2516 C 0.63013 0.22373 0.55475 0.0
C2517 C 0.6304 0.23315 0.53653 0.0
C2518 C 0.63297 0.25436 0.5369 0.0
C2519 C 0.71114 0.32993 0.52961 0.0
C2520 C 0.70826 0.34636 0.51765 0.0
C2521 C 0.69482 0.32064 0.53875 0.0
C2522 C 0.67528 0.32751 0.53603 0.0
C2523 C 0.67217 0.34308 0.52308 0.0
C2524 C 0.68849 0.35252 0.51415 0.0
C2525 C 0.6583 0.3189 0.54721 0.0
C2526 C 0.65396 0.29772 0.54612 0.0
C2527 C 0.64636 0.3315 0.55887 0.0
C2528 C 0.65148 0.35379 0.56259 0.0
C2529 C 0.63689 0.36743 0.55777 0.0
C2530 C 0.64176 0.38842 0.56125 0.0
C2531 C 0.66116 0.39595 0.56965 0.0
C2532 C 0.6757 0.3825 0.57465 0.0
C2533 C 0.67089 0.36151 0.57122 0.0
H2534 H 0.6649 0.4122 0.57233 0.0
H2535 H 0.62812 0.20731 0.55443 0.0
H2536 H 0.26061 0.44821 0.05651 0.0
H2537 H 0.24725 0.46473 0.08662 0.0
H2538 H 0.23462 0.40618 0.10955 0.0
H2539 H 0.24813 0.38959 0.07982 0.0
H2540 H 0.20112 0.43073 0.10821 0.0
H2541 H 0.27223 0.43551 0.13221 0.0
H2542 H 0.30876 0.44505 0.1303 0.0
H2543 H 0.29686 0.50788 0.1289 0.0
H2544 H 0.2602 0.49867 0.13051 0.0
H2545 H 0.16992 0.46353 0.20463 0.0
H2546 H 0.18699 0.44688 0.17712 0.0
H2547 H 0.21258 0.50542 0.16234 0.0
H2548 H 0.19635 0.52197 0.19033 0.0
H2549 H 0.23998 0.48063 0.15934 0.0
H2550 H 0.17005 0.47763 0.13392 0.0
H2551 H 0.133 0.46977 0.13394 0.0
H2552 H 0.14156 0.40617 0.13539 0.0
H2553 H 0.1787 0.41368 0.13564 0.0
C2554 C 0.25525 0.43887 0.0681 0.0
C2555 C 0.25546 0.41756 0.06571 0.0
C2556 C 0.24763 0.44834 0.08528 0.0
C2557 C 0.23991 0.43665 0.10028 0.0
C2558 C 0.24046 0.41546 0.09813 0.0
C2559 C 0.2483 0.40602 0.08114 0.0
C2560 C 0.23041 0.44636 0.11778 0.0
C2561 C 0.20965 0.44145 0.11957 0.0
C2562 C 0.24141 0.46082 0.13218 0.0
C2563 C 0.26344 0.46637 0.13126 0.0
C2564 C 0.27738 0.45134 0.1313 0.0
C2565 C 0.29811 0.45669 0.13032 0.0
C2566 C 0.30512 0.47705 0.12942 0.0
C2567 C 0.29141 0.49211 0.12957 0.0
C2568 C 0.27065 0.48683 0.13053 0.0
C2569 C 0.17924 0.47282 0.19554 0.0
C2570 C 0.18174 0.49406 0.19963 0.0
C2571 C 0.18891 0.46331 0.17971 0.0
C2572 C 0.20085 0.47489 0.16733 0.0
C2573 C 0.2035 0.49609 0.17161 0.0
C2574 C 0.19415 0.50556 0.18762 0.0
C2575 C 0.21054 0.46503 0.14989 0.0
C2576 C 0.23136 0.46992 0.14805 0.0
C2577 C 0.19949 0.45082 0.13518 0.0
C2578 C 0.17717 0.44624 0.13502 0.0
C2579 C 0.16404 0.46198 0.1344 0.0
C2580 C 0.14303 0.45759 0.13434 0.0
C2581 C 0.13494 0.43749 0.13473 0.0
C2582 C 0.14785 0.42173 0.13512 0.0
C2583 C 0.16888 0.42605 0.13521 0.0
H2584 H 0.11866 0.43412 0.13467 0.0
H2585 H 0.32118 0.48117 0.12867 0.0
H2586 H 0.36879 0.45754 0.81152 0.0
H2587 H 0.35841 0.44409 0.84304 0.0
H2588 H 0.30993 0.48412 0.84403 0.0
H2589 H 0.32031 0.49774 0.81279 0.0
H2590 H 0.33093 0.48637 0.88031 0.0
H2591 H 0.30076 0.43242 0.83166 0.0
H2592 H 0.30072 0.40565 0.80357 0.0
H2593 H 0.3436 0.37462 0.83933 0.0
H2594 H 0.34409 0.40137 0.86754 0.0
H2595 H 0.27013 0.44714 0.9535 0.0
H2596 H 0.28423 0.45815 0.92277 0.0
H2597 H 0.32951 0.41481 0.92792 0.0
H2598 H 0.31512 0.40335 0.95864 0.0
H2599 H 0.31333 0.41358 0.88955 0.0
H2600 H 0.34205 0.46638 0.93898 0.0
H2601 H 0.34215 0.49309 0.96713 0.0
H2602 H 0.30254 0.52639 0.93005 0.0
H2603 H 0.30196 0.49973 0.90176 0.0
C2604 C 0.35575 0.46328 0.8183 0.0
C2605 C 0.3454 0.47874 0.8096 0.0
C2606 C 0.34982 0.45556 0.83634 0.0
C2607 C 0.33335 0.46306 0.84595 0.0
C2608 C 0.32273 0.47814 0.83699 0.0
C2609 C 0.32865 0.48585 0.81903 0.0
C2610 C 0.32756 0.45592 0.86575 0.0
C2611 C 0.32686 0.47047 0.88225 0.0
C2612 C 0.32293 0.4351 0.86856 0.0
C2613 C 0.32263 0.41901 0.85162 0.0
C2614 C 0.31031 0.41998 0.83346 0.0
C2615 C 0.31018 0.40479 0.81754 0.0
C2616 C 0.3222 0.38848 0.81964 0.0
C2617 C 0.33433 0.38729 0.8377 0.0
C2618 C 0.33453 0.40245 0.85367 0.0
C2619 C 0.28322 0.44005 0.94826 0.0
C2620 C 0.29154 0.4244 0.95863 0.0
C2621 C 0.29133 0.44642 0.93067 0.0
C2622 C 0.30812 0.43751 0.92309 0.0
C2623 C 0.31658 0.42197 0.93347 0.0
C2624 C 0.30841 0.41551 0.9511 0.0
C2625 C 0.31632 0.4441 0.90401 0.0
C2626 C 0.31753 0.42946 0.88767 0.0
C2627 C 0.32148 0.46486 0.90133 0.0
C2628 C 0.32184 0.48097 0.9183 0.0
C2629 C 0.33324 0.47933 0.93687 0.0
C2630 C 0.3334 0.49447 0.95285 0.0
C2631 C 0.32233 0.5114 0.95039 0.0
C2632 C 0.3111 0.51325 0.93194 0.0
C2633 C 0.31087 0.49814 0.91592 0.0
H2634 H 0.32247 0.52311 0.96278 0.0
H2635 H 0.32207 0.37673 0.80729 0.0
H2636 H 0.24981 0.57374 0.57564 0.0
H2637 H 0.26609 0.55684 0.60341 0.0
H2638 H 0.32393 0.58789 0.5941 0.0
H2639 H 0.30766 0.60512 0.56631 0.0
H2640 H 0.325 0.54502 0.59913 0.0
H2641 H 0.30066 0.60504 0.6321 0.0
H2642 H 0.27471 0.62864 0.64002 0.0
H2643 H 0.23873 0.58055 0.66385 0.0
H2644 H 0.26434 0.55658 0.65579 0.0
H2645 H 0.38102 0.52701 0.69048 0.0
H2646 H 0.36441 0.54047 0.66086 0.0
H2647 H 0.30569 0.52111 0.68024 0.0
H2648 H 0.32232 0.50836 0.71057 0.0
H2649 H 0.30427 0.5572 0.66929 0.0
H2650 H 0.32749 0.49705 0.63762 0.0
H2651 H 0.352 0.47211 0.62907 0.0
H2652 H 0.38811 0.51784 0.60195 0.0
H2653 H 0.36395 0.54314 0.61059 0.0
C2654 C 0.26601 0.57696 0.57942 0.0
C2655 C 0.27744 0.59084 0.56878 0.0
C2656 C 0.27528 0.5673 0.59534 0.0
C2657 C 0.29619 0.57119 0.60089 0.0
C2658 C 0.30776 0.58469 0.59005 0.0
C2659 C 0.29844 0.59457 0.57424 0.0
C2660 C 0.30582 0.56137 0.61825 0.0
C2661 C 0.3207 0.54784 0.61454 0.0
C2662 C 0.29966 0.56454 0.6382 0.0
C2663 C 0.28432 0.57897 0.64315 0.0
C2664 C 0.28713 0.59945 0.63887 0.0
C2665 C 0.2725 0.61291 0.64341 0.0
C2666 C 0.25506 0.60609 0.65238 0.0
C2667 C 0.25223 0.58581 0.65688 0.0
C2668 C 0.26681 0.57228 0.65234 0.0
C2669 C 0.36457 0.52533 0.68836 0.0
C2670 C 0.35302 0.51652 0.70292 0.0
C2671 C 0.35505 0.53299 0.67128 0.0
C2672 C 0.33373 0.5316 0.66802 0.0
C2673 C 0.32215 0.5224 0.68234 0.0
C2674 C 0.33168 0.51501 0.69964 0.0
C2675 C 0.32361 0.54072 0.65031 0.0
C2676 C 0.3086 0.55419 0.65392 0.0
C2677 C 0.32945 0.53724 0.63021 0.0
C2678 C 0.34399 0.52204 0.62492 0.0
C2679 C 0.34073 0.50183 0.62997 0.0
C2680 C 0.35455 0.48762 0.62508 0.0
C2681 C 0.37163 0.4934 0.61502 0.0
C2682 C 0.37489 0.51339 0.60977 0.0
C2683 C 0.36112 0.52767 0.61463 0.0
H2684 H 0.38231 0.48237 0.61125 0.0
H2685 H 0.24375 0.61653 0.65589 0.0
H2686 H 0.20083 0.53178 0.2954 0.0
H2687 H 0.21959 0.54173 0.32855 0.0
H2688 H 0.16287 0.54834 0.35559 0.0
H2689 H 0.14416 0.53781 0.32294 0.0
H2690 H 0.22319 0.57475 0.35202 0.0
H2691 H 0.16476 0.53811 0.40368 0.0
H2692 H 0.1414 0.50707 0.40268 0.0
H2693 H 0.17723 0.47635 0.36044 0.0
H2694 H 0.20098 0.50708 0.36141 0.0
H2695 H 0.22951 0.62907 0.4467 0.0
H2696 H 0.21936 0.61055 0.41384 0.0
H2697 H 0.23576 0.55469 0.43805 0.0
H2698 H 0.24518 0.57315 0.47146 0.0
H2699 H 0.20247 0.54701 0.41569 0.0
H2700 H 0.26577 0.58032 0.40455 0.0
H2701 H 0.29242 0.60861 0.40533 0.0
H2702 H 0.25339 0.64043 0.36614 0.0
H2703 H 0.22637 0.61248 0.36537 0.0
C2704 C 0.19239 0.53523 0.30847 0.0
C2705 C 0.17099 0.53388 0.30653 0.0
C2706 C 0.20312 0.54092 0.3274 0.0
C2707 C 0.19267 0.54544 0.3447 0.0
C2708 C 0.17132 0.54437 0.34266 0.0
C2709 C 0.16062 0.53847 0.32388 0.0
C2710 C 0.20385 0.55217 0.36476 0.0
C2711 C 0.21878 0.56857 0.36592 0.0
C2712 C 0.19867 0.54366 0.38291 0.0
C2713 C 0.1846 0.52498 0.38254 0.0
C2714 C 0.16774 0.5247 0.39428 0.0
C2715 C 0.15441 0.50716 0.39369 0.0
C2716 C 0.15781 0.48977 0.38147 0.0
C2717 C 0.17458 0.48985 0.36986 0.0
C2718 C 0.18797 0.50733 0.37041 0.0
C2719 C 0.23105 0.61285 0.44506 0.0
C2720 C 0.23827 0.60259 0.46168 0.0
C2721 C 0.22536 0.60227 0.42617 0.0
C2722 C 0.22723 0.58127 0.42325 0.0
C2723 C 0.23428 0.57091 0.43987 0.0
C2724 C 0.23968 0.58147 0.45895 0.0
C2725 C 0.22109 0.57022 0.40298 0.0
C2726 C 0.20713 0.55299 0.40178 0.0
C2727 C 0.22772 0.5775 0.38477 0.0
C2728 C 0.24399 0.59431 0.38499 0.0
C2729 C 0.26282 0.59339 0.39619 0.0
C2730 C 0.278 0.60937 0.39662 0.0
C2731 C 0.27459 0.62631 0.38581 0.0
C2732 C 0.25601 0.62729 0.3745 0.0
C2733 C 0.24076 0.61137 0.37404 0.0
H2734 H 0.28636 0.63867 0.38617 0.0
H2735 H 0.14747 0.47621 0.38103 0.0
loop_
_geom_bond_atom_site_label_1
_geom_bond_atom_site_label_2
_geom_bond_distance
_geom_bond_site_symmetry_2
_ccdc_geom_bond_type
O0 Cd1 2.223 . S
O0 C8 1.315 . S
Cd1 O0 2.223 . S
Cd1 O4 2.297 . S
Cd1 O5 2.439 . S
Cd1 O11 2.240 1_455 S
Cd2 O3 2.240 1_655 S
Cd2 O10 2.223 . S
Cd2 O12 2.297 . S
Cd2 O13 2.439 . S
O3 Cd2 2.240 1_455 S
O3 C8 1.279 . S
O4 Cd1 2.297 . S
O4 C6 1.247 . S
O5 Cd1 2.439 . S
O5 C6 1.208 . S
C6 O4 1.247 . S
C6 O5 1.208 . S
C7 O12 1.247 . S
C7 O13 1.208 . S
C8 O0 1.315 . S
C8 O3 1.279 . S
C9 O10 1.315 . S
C9 O11 1.279 . S
O10 Cd2 2.223 . S
O10 C9 1.315 . S
O11 Cd1 2.240 1_655 S
O11 C9 1.279 . S
O12 Cd2 2.297 . S
O12 C7 1.247 . S
O13 Cd2 2.439 . S
O13 C7 1.208 . S
O14 Cd15 2.223 . S
O14 C22 1.315 . S
Cd15 O14 2.223 . S
Cd15 O18 2.297 . S
Cd15 O19 2.439 1_455 S
Cd15 O25 2.240 . S
Cd16 O17 2.240 . S
Cd16 O24 2.223 . S
Cd16 O26 2.297 1_455 S
Cd16 O27 2.439 1_455 S
O17 Cd16 2.240 . S
O17 C22 1.279 . S
O18 Cd15 2.297 . S
O18 C20 1.247 1_455 S
O19 Cd15 2.439 1_655 S
O19 C20 1.208 . S
C20 O18 1.247 1_655 S
C20 O19 1.208 . S
C21 O26 1.247 . S
C21 O27 1.208 . S
C22 O14 1.315 . S
C22 O17 1.279 . S
C23 O24 1.315 . S
C23 O25 1.279 . S
O24 Cd16 2.223 . S
O24 C23 1.315 . S
O25 Cd15 2.240 . S
O25 C23 1.279 . S
O26 Cd16 2.297 1_655 S
O26 C21 1.247 . S
O27 Cd16 2.439 1_655 S
O27 C21 1.208 . S
O28 Cd29 2.223 . S
O28 C36 1.315 . S
Cd29 O28 2.223 . S
Cd29 O32 2.297 . S
Cd29 O33 2.439 . S
Cd29 O39 2.240 . S
Cd30 O31 2.240 . S
Cd30 O38 2.223 . S
Cd30 O40 2.297 . S
Cd30 O41 2.439 . S
O31 Cd30 2.240 . S
O31 C36 1.279 . S
O32 Cd29 2.297 . S
O32 C34 1.247 . S
O33 Cd29 2.439 . S
O33 C34 1.208 . S
C34 O32 1.247 . S
C34 O33 1.208 . S
C35 O40 1.247 . S
C35 O41 1.208 . S
C36 O28 1.315 . S
C36 O31 1.279 . S
C37 O38 1.315 . S
C37 O39 1.279 . S
O38 Cd30 2.223 . S
O38 C37 1.315 . S
O39 Cd29 2.240 . S
O39 C37 1.279 . S
O40 Cd30 2.297 . S
O40 C35 1.247 . S
O41 Cd30 2.439 . S
O41 C35 1.208 . S
O42 Cd43 2.223 . S
O42 C50 1.315 . S
Cd43 O42 2.223 . S
Cd43 O46 2.297 . S
Cd43 O47 2.439 . S
Cd43 O53 2.240 . S
Cd44 O45 2.240 . S
Cd44 O52 2.223 . S
Cd44 O54 2.297 . S
Cd44 O55 2.439 . S
O45 Cd44 2.240 . S
O45 C50 1.279 . S
O46 Cd43 2.297 . S
O46 C48 1.247 . S
O47 Cd43 2.439 . S
O47 C48 1.208 . S
C48 O46 1.247 . S
C48 O47 1.208 . S
C49 O54 1.247 . S
C49 O55 1.208 . S
C50 O42 1.315 . S
C50 O45 1.279 . S
C51 O52 1.315 . S
C51 O53 1.279 . S
O52 Cd44 2.223 . S
O52 C51 1.315 . S
O53 Cd43 2.240 . S
O53 C51 1.279 . S
O54 Cd44 2.297 . S
O54 C49 1.247 . S
O55 Cd44 2.439 . S
O55 C49 1.208 . S
O56 Cd57 2.223 . S
O56 C64 1.315 . S
Cd57 O56 2.223 . S
Cd57 O60 2.297 . S
Cd57 O61 2.439 . S
Cd57 O67 2.240 1_455 S
Cd58 O59 2.240 . S
Cd58 O66 2.223 1_455 S
Cd58 O68 2.297 1_455 S
Cd58 O69 2.439 . S
O59 Cd58 2.240 . S
O59 C64 1.279 . S
O60 Cd57 2.297 . S
O60 C62 1.247 . S
O61 Cd57 2.439 . S
O61 C62 1.208 . S
C62 O60 1.247 . S
C62 O61 1.208 . S
C63 O68 1.247 . S
C63 O69 1.208 1_655 S
C64 O56 1.315 . S
C64 O59 1.279 . S
C65 O66 1.315 . S
C65 O67 1.279 . S
O66 Cd58 2.223 1_655 S
O66 C65 1.315 . S
O67 Cd57 2.240 1_655 S
O67 C65 1.279 . S
O68 Cd58 2.297 1_655 S
O68 C63 1.247 . S
O69 Cd58 2.439 . S
O69 C63 1.208 1_455 S
O70 Cd71 2.223 . S
O70 C78 1.315 . S
Cd71 O70 2.223 . S
Cd71 O74 2.297 . S
Cd71 O75 2.439 . S
Cd71 O81 2.240 . S
Cd72 O73 2.240 . S
Cd72 O80 2.223 . S
Cd72 O82 2.297 . S
Cd72 O83 2.439 . S
O73 Cd72 2.240 . S
O73 C78 1.279 . S
O74 Cd71 2.297 . S
O74 C76 1.247 . S
O75 Cd71 2.439 . S
O75 C76 1.208 . S
C76 O74 1.247 . S
C76 O75 1.208 . S
C77 O82 1.247 . S
C77 O83 1.208 . S
C78 O70 1.315 . S
C78 O73 1.279 . S
C79 O80 1.315 . S
C79 O81 1.279 . S
O80 Cd72 2.223 . S
O80 C79 1.315 . S
O81 Cd71 2.240 . S
O81 C79 1.279 . S
O82 Cd72 2.297 . S
O82 C77 1.247 . S
O83 Cd72 2.439 . S
O83 C77 1.208 . S
O84 Cd85 2.223 . S
O84 C92 1.315 . S
Cd85 O84 2.223 . S
Cd85 O88 2.297 . S
Cd85 O89 2.439 . S
Cd85 O95 2.240 . S
Cd86 O87 2.240 . S
Cd86 O94 2.223 . S
Cd86 O96 2.297 . S
Cd86 O97 2.439 . S
O87 Cd86 2.240 . S
O87 C92 1.279 . S
O88 Cd85 2.297 . S
O88 C90 1.247 . S
O89 Cd85 2.439 . S
O89 C90 1.208 . S
C90 O88 1.247 . S
C90 O89 1.208 . S
C91 O96 1.247 . S
C91 O97 1.208 . S
C92 O84 1.315 . S
C92 O87 1.279 . S
C93 O94 1.315 . S
C93 O95 1.279 . S
O94 Cd86 2.223 . S
O94 C93 1.315 . S
O95 Cd85 2.240 . S
O95 C93 1.279 . S
O96 Cd86 2.297 . S
O96 C91 1.247 . S
O97 Cd86 2.439 . S
O97 C91 1.208 . S
O98 Cd99 2.223 . S
O98 C106 1.315 . S
Cd99 O98 2.223 . S
Cd99 O102 2.297 1_455 S
Cd99 O103 2.439 1_455 S
Cd99 O109 2.240 . S
Cd100 O101 2.240 . S
Cd100 O108 2.223 . S
Cd100 O110 2.297 . S
Cd100 O111 2.439 1_455 S
O101 Cd100 2.240 . S
O101 C106 1.279 . S
O102 Cd99 2.297 1_655 S
O102 C104 1.247 . S
O103 Cd99 2.439 1_655 S
O103 C104 1.208 . S
C104 O102 1.247 . S
C104 O103 1.208 . S
C105 O110 1.247 1_655 S
C105 O111 1.208 . S
C106 O98 1.315 . S
C106 O101 1.279 . S
C107 O108 1.315 . S
C107 O109 1.279 . S
O108 Cd100 2.223 . S
O108 C107 1.315 . S
O109 Cd99 2.240 . S
O109 C107 1.279 . S
O110 Cd100 2.297 . S
O110 C105 1.247 1_455 S
O111 Cd100 2.439 1_655 S
O111 C105 1.208 . S
O112 Cd113 2.223 . S
O112 C120 1.315 . S
Cd113 O112 2.223 . S
Cd113 O116 2.297 . S
Cd113 O117 2.439 . S
Cd113 O123 2.240 1_545 S
Cd114 O115 2.240 1_565 S
Cd114 O122 2.223 . S
Cd114 O124 2.297 . S
Cd114 O125 2.439 . S
O115 Cd114 2.240 1_545 S
O115 C120 1.279 . S
O116 Cd113 2.297 . S
O116 C118 1.247 . S
O117 Cd113 2.439 . S
O117 C118 1.208 . S
C118 O116 1.247 . S
C118 O117 1.208 . S
C119 O124 1.247 . S
C119 O125 1.208 . S
C120 O112 1.315 . S
C120 O115 1.279 . S
C121 O122 1.315 . S
C121 O123 1.279 . S
O122 Cd114 2.223 . S
O122 C121 1.315 . S
O123 Cd113 2.240 1_565 S
O123 C121 1.279 . S
O124 Cd114 2.297 . S
O124 C119 1.247 . S
O125 Cd114 2.439 . S
O125 C119 1.208 . S
O126 Cd127 2.223 . S
O126 C134 1.315 . S
Cd127 O126 2.223 . S
Cd127 O130 2.297 . S
Cd127 O131 2.439 . S
Cd127 O137 2.240 . S
Cd128 O129 2.240 . S
Cd128 O136 2.223 . S
Cd128 O138 2.297 . S
Cd128 O139 2.439 . S
O129 Cd128 2.240 . S
O129 C134 1.279 . S
O130 Cd127 2.297 . S
O130 C132 1.247 . S
O131 Cd127 2.439 . S
O131 C132 1.208 . S
C132 O130 1.247 . S
C132 O131 1.208 . S
C133 O138 1.247 . S
C133 O139 1.208 . S
C134 O126 1.315 . S
C134 O129 1.279 . S
C135 O136 1.315 . S
C135 O137 1.279 . S
O136 Cd128 2.223 . S
O136 C135 1.315 . S
O137 Cd127 2.240 . S
O137 C135 1.279 . S
O138 Cd128 2.297 . S
O138 C133 1.247 . S
O139 Cd128 2.439 . S
O139 C133 1.208 . S
O140 Cd141 2.223 . S
O140 C148 1.315 . S
Cd141 O140 2.223 . S
Cd141 O144 2.297 . S
Cd141 O145 2.439 . S
Cd141 O151 2.240 1_545 S
Cd142 O143 2.240 . S
Cd142 O150 2.223 1_545 S
Cd142 O152 2.297 1_545 S
Cd142 O153 2.439 . S
O143 Cd142 2.240 . S
O143 C148 1.279 . S
O144 Cd141 2.297 . S
O144 C146 1.247 . S
O145 Cd141 2.439 . S
O145 C146 1.208 . S
C146 O144 1.247 . S
C146 O145 1.208 . S
C147 O152 1.247 . S
C147 O153 1.208 1_565 S
C148 O140 1.315 . S
C148 O143 1.279 . S
C149 O150 1.315 . S
C149 O151 1.279 . S
O150 Cd142 2.223 1_565 S
O150 C149 1.315 . S
O151 Cd141 2.240 1_565 S
O151 C149 1.279 . S
O152 Cd142 2.297 1_565 S
O152 C147 1.247 . S
O153 Cd142 2.439 . S
O153 C147 1.208 1_545 S
O154 Cd155 2.223 . S
O154 C162 1.315 . S
Cd155 O154 2.223 . S
Cd155 O158 2.297 1_554 S
Cd155 O159 2.439 1_554 S
Cd155 O165 2.240 . S
Cd156 O157 2.240 . S
Cd156 O164 2.223 . S
Cd156 O166 2.297 . S
Cd156 O167 2.439 1_554 S
O157 Cd156 2.240 . S
O157 C162 1.279 . S
O158 Cd155 2.297 1_556 S
O158 C160 1.247 . S
O159 Cd155 2.439 1_556 S
O159 C160 1.208 . S
C160 O158 1.247 . S
C160 O159 1.208 . S
C161 O166 1.247 1_556 S
C161 O167 1.208 . S
C162 O154 1.315 . S
C162 O157 1.279 . S
C163 O164 1.315 . S
C163 O165 1.279 . S
O164 Cd156 2.223 . S
O164 C163 1.315 . S
O165 Cd155 2.240 . S
O165 C163 1.279 . S
O166 Cd156 2.297 . S
O166 C161 1.247 1_554 S
O167 Cd156 2.439 1_556 S
O167 C161 1.208 . S
O168 Cd169 2.223 . S
O168 C176 1.315 . S
Cd169 O168 2.223 . S
Cd169 O172 2.297 . S
Cd169 O173 2.439 . S
Cd169 O179 2.240 1_554 S
Cd170 O171 2.240 1_556 S
Cd170 O178 2.223 . S
Cd170 O180 2.297 . S
Cd170 O181 2.439 . S
O171 Cd170 2.240 1_554 S
O171 C176 1.279 . S
O172 Cd169 2.297 . S
O172 C174 1.247 . S
O173 Cd169 2.439 . S
O173 C174 1.208 . S
C174 O172 1.247 . S
C174 O173 1.208 . S
C175 O180 1.247 . S
C175 O181 1.208 . S
C176 O168 1.315 . S
C176 O171 1.279 . S
C177 O178 1.315 . S
C177 O179 1.279 . S
O178 Cd170 2.223 . S
O178 C177 1.315 . S
O179 Cd169 2.240 1_556 S
O179 C177 1.279 . S
O180 Cd170 2.297 . S
O180 C175 1.247 . S
O181 Cd170 2.439 . S
O181 C175 1.208 . S
O182 Cd183 2.223 . S
O182 C190 1.315 . S
Cd183 O182 2.223 . S
Cd183 O186 2.297 . S
Cd183 O187 2.439 . S
Cd183 O193 2.240 1_554 S
Cd184 O185 2.240 . S
Cd184 O192 2.223 1_554 S
Cd184 O194 2.297 1_554 S
Cd184 O195 2.439 . S
O185 Cd184 2.240 . S
O185 C190 1.279 . S
O186 Cd183 2.297 . S
O186 C188 1.247 . S
O187 Cd183 2.439 . S
O187 C188 1.208 . S
C188 O186 1.247 . S
C188 O187 1.208 . S
C189 O194 1.247 . S
C189 O195 1.208 1_556 S
C190 O182 1.315 . S
C190 O185 1.279 . S
C191 O192 1.315 . S
C191 O193 1.279 . S
O192 Cd184 2.223 1_556 S
O192 C191 1.315 . S
O193 Cd183 2.240 1_556 S
O193 C191 1.279 . S
O194 Cd184 2.297 1_556 S
O194 C189 1.247 . S
O195 Cd184 2.439 . S
O195 C189 1.208 1_554 S
O196 Cd197 2.223 . S
O196 C204 1.315 . S
Cd197 O196 2.223 . S
Cd197 O200 2.297 . S
Cd197 O201 2.439 . S
Cd197 O207 2.240 . S
Cd198 O199 2.240 . S
Cd198 O206 2.223 . S
Cd198 O208 2.297 . S
Cd198 O209 2.439 . S
O199 Cd198 2.240 . S
O199 C204 1.279 . S
O200 Cd197 2.297 . S
O200 C202 1.247 . S
O201 Cd197 2.439 . S
O201 C202 1.208 . S
C202 O200 1.247 . S
C202 O201 1.208 . S
C203 O208 1.247 . S
C203 O209 1.208 . S
C204 O196 1.315 . S
C204 O199 1.279 . S
C205 O206 1.315 . S
C205 O207 1.279 . S
O206 Cd198 2.223 . S
O206 C205 1.315 . S
O207 Cd197 2.240 . S
O207 C205 1.279 . S
O208 Cd198 2.297 . S
O208 C203 1.247 . S
O209 Cd198 2.439 . S
O209 C203 1.208 . S
O210 Cd211 2.223 . S
O210 C218 1.315 . S
Cd211 O210 2.223 . S
Cd211 O214 2.297 . S
Cd211 O215 2.439 . S
Cd211 O221 2.240 . S
Cd212 O213 2.240 . S
Cd212 O220 2.223 . S
Cd212 O222 2.297 . S
Cd212 O223 2.439 . S
O213 Cd212 2.240 . S
O213 C218 1.279 . S
O214 Cd211 2.297 . S
O214 C216 1.247 . S
O215 Cd211 2.439 . S
O215 C216 1.208 . S
C216 O214 1.247 . S
C216 O215 1.208 . S
C217 O222 1.247 . S
C217 O223 1.208 . S
C218 O210 1.315 . S
C218 O213 1.279 . S
C219 O220 1.315 . S
C219 O221 1.279 . S
O220 Cd212 2.223 . S
O220 C219 1.315 . S
O221 Cd211 2.240 . S
O221 C219 1.279 . S
O222 Cd212 2.297 . S
O222 C217 1.247 . S
O223 Cd212 2.439 . S
O223 C217 1.208 . S
O224 Cd225 2.223 . S
O224 C232 1.315 . S
Cd225 O224 2.223 . S
Cd225 O228 2.297 1_545 S
Cd225 O229 2.439 1_545 S
Cd225 O235 2.240 . S
Cd226 O227 2.240 . S
Cd226 O234 2.223 . S
Cd226 O236 2.297 . S
Cd226 O237 2.439 1_545 S
O227 Cd226 2.240 . S
O227 C232 1.279 . S
O228 Cd225 2.297 1_565 S
O228 C230 1.247 . S
O229 Cd225 2.439 1_565 S
O229 C230 1.208 . S
C230 O228 1.247 . S
C230 O229 1.208 . S
C231 O236 1.247 1_565 S
C231 O237 1.208 . S
C232 O224 1.315 . S
C232 O227 1.279 . S
C233 O234 1.315 . S
C233 O235 1.279 . S
O234 Cd226 2.223 . S
O234 C233 1.315 . S
O235 Cd225 2.240 . S
O235 C233 1.279 . S
O236 Cd226 2.297 . S
O236 C231 1.247 1_545 S
O237 Cd226 2.439 1_565 S
O237 C231 1.208 . S
O238 Cd239 2.223 . S
O238 C246 1.315 . S
Cd239 O238 2.223 . S
Cd239 O242 2.297 . S
Cd239 O243 2.439 . S
Cd239 O249 2.240 . S
Cd240 O241 2.240 . S
Cd240 O248 2.223 . S
Cd240 O250 2.297 . S
Cd240 O251 2.439 . S
O241 Cd240 2.240 . S
O241 C246 1.279 . S
O242 Cd239 2.297 . S
O242 C244 1.247 . S
O243 Cd239 2.439 . S
O243 C244 1.208 . S
C244 O242 1.247 . S
C244 O243 1.208 . S
C245 O250 1.247 . S
C245 O251 1.208 . S
C246 O238 1.315 . S
C246 O241 1.279 . S
C247 O248 1.315 . S
C247 O249 1.279 . S
O248 Cd240 2.223 . S
O248 C247 1.315 . S
O249 Cd239 2.240 . S
O249 C247 1.279 . S
O250 Cd240 2.297 . S
O250 C245 1.247 . S
O251 Cd240 2.439 . S
O251 C245 1.208 . S
O252 Cd253 2.223 . S
O252 C260 1.315 . S
Cd253 O252 2.223 . S
Cd253 O256 2.297 . S
Cd253 O257 2.439 . S
Cd253 O263 2.240 . S
Cd254 O255 2.240 . S
Cd254 O262 2.223 . S
Cd254 O264 2.297 . S
Cd254 O265 2.439 . S
O255 Cd254 2.240 . S
O255 C260 1.279 . S
O256 Cd253 2.297 . S
O256 C258 1.247 . S
O257 Cd253 2.439 . S
O257 C258 1.208 . S
C258 O256 1.247 . S
C258 O257 1.208 . S
C259 O264 1.247 . S
C259 O265 1.208 . S
C260 O252 1.315 . S
C260 O255 1.279 . S
C261 O262 1.315 . S
C261 O263 1.279 . S
O262 Cd254 2.223 . S
O262 C261 1.315 . S
O263 Cd253 2.240 . S
O263 C261 1.279 . S
O264 Cd254 2.297 . S
O264 C259 1.247 . S
O265 Cd254 2.439 . S
O265 C259 1.208 . S
O266 Cd267 2.223 . S
O266 C274 1.315 . S
Cd267 O266 2.223 . S
Cd267 O270 2.297 . S
Cd267 O271 2.439 1_545 S
Cd267 O277 2.240 . S
Cd268 O269 2.240 . S
Cd268 O276 2.223 . S
Cd268 O278 2.297 1_545 S
Cd268 O279 2.439 1_545 S
O269 Cd268 2.240 . S
O269 C274 1.279 . S
O270 Cd267 2.297 . S
O270 C272 1.247 1_545 S
O271 Cd267 2.439 1_565 S
O271 C272 1.208 . S
C272 O270 1.247 1_565 S
C272 O271 1.208 . S
C273 O278 1.247 . S
C273 O279 1.208 . S
C274 O266 1.315 . S
C274 O269 1.279 . S
C275 O276 1.315 . S
C275 O277 1.279 . S
O276 Cd268 2.223 . S
O276 C275 1.315 . S
O277 Cd267 2.240 . S
O277 C275 1.279 . S
O278 Cd268 2.297 1_565 S
O278 C273 1.247 . S
O279 Cd268 2.439 1_565 S
O279 C273 1.208 . S
O280 Cd281 2.223 . S
O280 C288 1.315 . S
Cd281 O280 2.223 . S
Cd281 O284 2.297 . S
Cd281 O285 2.439 1_554 S
Cd281 O291 2.240 . S
Cd282 O283 2.240 . S
Cd282 O290 2.223 . S
Cd282 O292 2.297 1_554 S
Cd282 O293 2.439 1_554 S
O283 Cd282 2.240 . S
O283 C288 1.279 . S
O284 Cd281 2.297 . S
O284 C286 1.247 1_554 S
O285 Cd281 2.439 1_556 S
O285 C286 1.208 . S
C286 O284 1.247 1_556 S
C286 O285 1.208 . S
C287 O292 1.247 . S
C287 O293 1.208 . S
C288 O280 1.315 . S
C288 O283 1.279 . S
C289 O290 1.315 . S
C289 O291 1.279 . S
O290 Cd282 2.223 . S
O290 C289 1.315 . S
O291 Cd281 2.240 . S
O291 C289 1.279 . S
O292 Cd282 2.297 1_556 S
O292 C287 1.247 . S
O293 Cd282 2.439 1_556 S
O293 C287 1.208 . S
O294 Cd295 2.223 . S
O294 C302 1.315 . S
Cd295 O294 2.223 . S
Cd295 O298 2.297 . S
Cd295 O299 2.439 . S
Cd295 O305 2.240 . S
Cd296 O297 2.240 . S
Cd296 O304 2.223 . S
Cd296 O306 2.297 . S
Cd296 O307 2.439 . S
O297 Cd296 2.240 . S
O297 C302 1.279 . S
O298 Cd295 2.297 . S
O298 C300 1.247 . S
O299 Cd295 2.439 . S
O299 C300 1.208 . S
C300 O298 1.247 . S
C300 O299 1.208 . S
C301 O306 1.247 . S
C301 O307 1.208 . S
C302 O294 1.315 . S
C302 O297 1.279 . S
C303 O304 1.315 . S
C303 O305 1.279 . S
O304 Cd296 2.223 . S
O304 C303 1.315 . S
O305 Cd295 2.240 . S
O305 C303 1.279 . S
O306 Cd296 2.297 . S
O306 C301 1.247 . S
O307 Cd296 2.439 . S
O307 C301 1.208 . S
O308 Cd309 2.223 . S
O308 C316 1.315 . S
Cd309 O308 2.223 . S
Cd309 O312 2.297 . S
Cd309 O313 2.439 . S
Cd309 O319 2.240 . S
Cd310 O311 2.240 . S
Cd310 O318 2.223 . S
Cd310 O320 2.297 . S
Cd310 O321 2.439 . S
O311 Cd310 2.240 . S
O311 C316 1.279 . S
O312 Cd309 2.297 . S
O312 C314 1.247 . S
O313 Cd309 2.439 . S
O313 C314 1.208 . S
C314 O312 1.247 . S
C314 O313 1.208 . S
C315 O320 1.247 . S
C315 O321 1.208 . S
C316 O308 1.315 . S
C316 O311 1.279 . S
C317 O318 1.315 . S
C317 O319 1.279 . S
O318 Cd310 2.223 . S
O318 C317 1.315 . S
O319 Cd309 2.240 . S
O319 C317 1.279 . S
O320 Cd310 2.297 . S
O320 C315 1.247 . S
O321 Cd310 2.439 . S
O321 C315 1.208 . S
O322 Cd323 2.223 . S
O322 C330 1.315 . S
Cd323 O322 2.223 . S
Cd323 O326 2.297 . S
Cd323 O327 2.439 . S
Cd323 O333 2.240 . S
Cd324 O325 2.240 . S
Cd324 O332 2.223 . S
Cd324 O334 2.297 . S
Cd324 O335 2.439 . S
O325 Cd324 2.240 . S
O325 C330 1.279 . S
O326 Cd323 2.297 . S
O326 C328 1.247 . S
O327 Cd323 2.439 . S
O327 C328 1.208 . S
C328 O326 1.247 . S
C328 O327 1.208 . S
C329 O334 1.247 . S
C329 O335 1.208 . S
C330 O322 1.315 . S
C330 O325 1.279 . S
C331 O332 1.315 . S
C331 O333 1.279 . S
O332 Cd324 2.223 . S
O332 C331 1.315 . S
O333 Cd323 2.240 . S
O333 C331 1.279 . S
O334 Cd324 2.297 . S
O334 C329 1.247 . S
O335 Cd324 2.439 . S
O335 C329 1.208 . S
H336 C354 0.951 . S
H337 C356 0.951 . S
H338 C358 0.950 . S
H339 C359 0.950 . S
H340 C361 0.950 . S
H341 C364 0.950 . S
H342 C365 0.950 . S
H343 C367 0.950 . S
H344 C368 0.950 . S
H345 C369 0.951 . S
H346 C371 0.951 . S
H347 C373 0.950 . S
H348 C374 0.950 . S
H349 C376 0.950 . S
H350 C379 0.950 . S
H351 C380 0.950 . S
H352 C382 0.950 . S
H353 C383 0.950 . S
C354 H336 0.951 . S
C354 C355 1.366 . S
C354 C356 1.388 . S
C355 C354 1.366 . S
C355 C359 1.385 . S
C356 H337 0.951 . S
C356 C354 1.388 . S
C356 C357 1.366 . S
C357 C356 1.366 . S
C357 C358 1.414 . S
C357 C360 1.499 . S
C358 H338 0.950 . S
C358 C357 1.414 . S
C358 C359 1.374 . S
C359 H339 0.950 . S
C359 C355 1.385 . S
C359 C358 1.374 . S
C360 C357 1.499 . S
C360 C361 1.373 . S
C360 C362 1.389 . S
C361 H340 0.950 . S
C361 C360 1.373 . S
C361 C377 1.377 . S
C362 C360 1.389 . S
C362 C363 1.524 . S
C362 C376 1.377 . S
C363 C362 1.524 . S
C363 C364 1.397 . S
C363 C368 1.363 . S
C364 H341 0.950 . S
C364 C363 1.397 . S
C364 C365 1.334 . S
C365 H342 0.950 . S
C365 C364 1.334 . S
C365 C366 1.287 . S
C366 C365 1.287 . S
C366 C367 1.524 . S
C366 H385 0.913 . S
C367 H343 0.950 . S
C367 C366 1.524 . S
C367 C368 1.415 . S
C368 H344 0.950 . S
C368 C363 1.363 . S
C368 C367 1.415 . S
C369 H345 0.951 . S
C369 C370 1.366 . S
C369 C371 1.388 . S
C370 C369 1.366 . S
C370 C374 1.385 . S
C371 H346 0.951 . S
C371 C369 1.388 . S
C371 C372 1.366 . S
C372 C371 1.366 . S
C372 C373 1.414 . S
C372 C375 1.499 . S
C373 H347 0.950 . S
C373 C372 1.414 . S
C373 C374 1.374 . S
C374 H348 0.950 . S
C374 C370 1.385 . S
C374 C373 1.374 . S
C375 C372 1.499 . S
C375 C376 1.373 . S
C375 C377 1.389 . S
C376 H349 0.950 . S
C376 C362 1.377 . S
C376 C375 1.373 . S
C377 C361 1.377 . S
C377 C375 1.389 . S
C377 C378 1.524 . S
C378 C377 1.524 . S
C378 C379 1.397 . S
C378 C383 1.363 . S
C379 H350 0.950 . S
C379 C378 1.397 . S
C379 C380 1.334 1_455 S
C380 H351 0.950 . S
C380 C379 1.334 1_655 S
C380 C381 1.287 . S
C381 C380 1.287 . S
C381 C382 1.524 1_655 S
C381 H384 0.999 . S
C382 H352 0.950 . S
C382 C381 1.524 1_455 S
C382 C383 1.415 . S
C383 H353 0.950 . S
C383 C378 1.363 . S
C383 C382 1.415 . S
H384 C381 0.999 . S
H385 C366 0.913 . S
H386 C404 0.951 . S
H387 C406 0.951 . S
H388 C408 0.950 . S
H389 C409 0.950 . S
H390 C411 0.950 . S
H391 C414 0.950 . S
H392 C415 0.950 . S
H393 C417 0.950 . S
H394 C418 0.950 . S
H395 C419 0.951 . S
H396 C421 0.951 . S
H397 C423 0.950 . S
H398 C424 0.950 . S
H399 C426 0.950 . S
H400 C429 0.950 . S
H401 C430 0.950 . S
H402 C432 0.950 . S
H403 C433 0.950 . S
C404 H386 0.951 . S
C404 C405 1.366 . S
C404 C406 1.388 . S
C405 C404 1.366 . S
C405 C409 1.385 . S
C406 H387 0.951 . S
C406 C404 1.388 . S
C406 C407 1.366 . S
C407 C406 1.366 . S
C407 C408 1.414 . S
C407 C410 1.499 . S
C408 H388 0.950 . S
C408 C407 1.414 . S
C408 C409 1.374 . S
C409 H389 0.950 . S
C409 C405 1.385 . S
C409 C408 1.374 . S
C410 C407 1.499 . S
C410 C411 1.373 . S
C410 C412 1.389 . S
C411 H390 0.950 . S
C411 C410 1.373 . S
C411 C427 1.377 . S
C412 C410 1.389 . S
C412 C413 1.524 . S
C412 C426 1.377 . S
C413 C412 1.524 . S
C413 C414 1.397 . S
C413 C418 1.363 . S
C414 H391 0.950 . S
C414 C413 1.397 . S
C414 C415 1.334 . S
C415 H392 0.950 . S
C415 C414 1.334 . S
C415 C416 1.287 . S
C416 C415 1.287 . S
C416 C417 1.524 . S
C416 H435 0.913 . S
C417 H393 0.950 . S
C417 C416 1.524 . S
C417 C418 1.415 . S
C418 H394 0.950 . S
C418 C413 1.363 . S
C418 C417 1.415 . S
C419 H395 0.951 . S
C419 C420 1.366 . S
C419 C421 1.388 . S
C420 C419 1.366 . S
C420 C424 1.385 . S
C421 H396 0.951 . S
C421 C419 1.388 . S
C421 C422 1.366 . S
C422 C421 1.366 . S
C422 C423 1.414 . S
C422 C425 1.499 . S
C423 H397 0.950 . S
C423 C422 1.414 . S
C423 C424 1.374 . S
C424 H398 0.950 . S
C424 C420 1.385 . S
C424 C423 1.374 . S
C425 C422 1.499 . S
C425 C426 1.373 . S
C425 C427 1.389 . S
C426 H399 0.950 . S
C426 C412 1.377 . S
C426 C425 1.373 . S
C427 C411 1.377 . S
C427 C425 1.389 . S
C427 C428 1.524 . S
C428 C427 1.524 . S
C428 C429 1.397 . S
C428 C433 1.363 . S
C429 H400 0.950 . S
C429 C428 1.397 . S
C429 C430 1.334 . S
C430 H401 0.950 . S
C430 C429 1.334 . S
C430 C431 1.287 . S
C431 C430 1.287 . S
C431 C432 1.524 . S
C431 H434 0.999 . S
C432 H402 0.950 . S
C432 C431 1.524 . S
C432 C433 1.415 . S
C433 H403 0.950 . S
C433 C428 1.363 . S
C433 C432 1.415 . S
H434 C431 0.999 . S
H435 C416 0.913 . S
H436 C454 0.951 . S
H437 C456 0.951 . S
H438 C458 0.950 . S
H439 C459 0.950 . S
H440 C461 0.950 . S
H441 C464 0.950 . S
H442 C465 0.950 . S
H443 C467 0.950 . S
H444 C468 0.950 . S
H445 C469 0.951 . S
H446 C471 0.951 . S
H447 C473 0.950 . S
H448 C474 0.950 . S
H449 C476 0.950 . S
H450 C479 0.950 . S
H451 C480 0.950 . S
H452 C482 0.950 . S
H453 C483 0.950 . S
C454 H436 0.951 . S
C454 C455 1.366 . S
C454 C456 1.388 . S
C455 C454 1.366 . S
C455 C459 1.385 . S
C456 H437 0.951 . S
C456 C454 1.388 . S
C456 C457 1.366 . S
C457 C456 1.366 . S
C457 C458 1.414 . S
C457 C460 1.499 . S
C458 H438 0.950 . S
C458 C457 1.414 . S
C458 C459 1.374 . S
C459 H439 0.950 . S
C459 C455 1.385 . S
C459 C458 1.374 . S
C460 C457 1.499 . S
C460 C461 1.373 . S
C460 C462 1.389 . S
C461 H440 0.950 . S
C461 C460 1.373 . S
C461 C477 1.377 . S
C462 C460 1.389 . S
C462 C463 1.524 . S
C462 C476 1.377 . S
C463 C462 1.524 . S
C463 C464 1.397 . S
C463 C468 1.363 . S
C464 H441 0.950 . S
C464 C463 1.397 . S
C464 C465 1.334 . S
C465 H442 0.950 . S
C465 C464 1.334 . S
C465 C466 1.287 . S
C466 C465 1.287 . S
C466 C467 1.524 . S
C466 H485 0.913 . S
C467 H443 0.950 . S
C467 C466 1.524 . S
C467 C468 1.415 . S
C468 H444 0.950 . S
C468 C463 1.363 . S
C468 C467 1.415 . S
C469 H445 0.951 . S
C469 C470 1.366 . S
C469 C471 1.388 . S
C470 C469 1.366 . S
C470 C474 1.385 . S
C471 H446 0.951 . S
C471 C469 1.388 . S
C471 C472 1.366 . S
C472 C471 1.366 . S
C472 C473 1.414 . S
C472 C475 1.499 . S
C473 H447 0.950 . S
C473 C472 1.414 . S
C473 C474 1.374 . S
C474 H448 0.950 . S
C474 C470 1.385 . S
C474 C473 1.374 . S
C475 C472 1.499 . S
C475 C476 1.373 . S
C475 C477 1.389 . S
C476 H449 0.950 . S
C476 C462 1.377 . S
C476 C475 1.373 . S
C477 C461 1.377 . S
C477 C475 1.389 . S
C477 C478 1.524 . S
C478 C477 1.524 . S
C478 C479 1.397 . S
C478 C483 1.363 . S
C479 H450 0.950 . S
C479 C478 1.397 . S
C479 C480 1.334 . S
C480 H451 0.950 . S
C480 C479 1.334 . S
C480 C481 1.287 . S
C481 C480 1.287 . S
C481 C482 1.524 . S
C481 H484 0.999 . S
C482 H452 0.950 . S
C482 C481 1.524 . S
C482 C483 1.415 . S
C483 H453 0.950 . S
C483 C478 1.363 . S
C483 C482 1.415 . S
H484 C481 0.999 . S
H485 C466 0.913 . S
H486 C504 0.951 . S
H487 C506 0.951 . S
H488 C508 0.950 . S
H489 C509 0.950 . S
H490 C511 0.950 . S
H491 C514 0.950 . S
H492 C515 0.950 . S
H493 C517 0.950 . S
H494 C518 0.950 . S
H495 C519 0.951 . S
H496 C521 0.951 . S
H497 C523 0.950 . S
H498 C524 0.950 . S
H499 C526 0.950 . S
H500 C529 0.950 . S
H501 C530 0.950 . S
H502 C532 0.950 1_556 S
H503 C533 0.950 . S
C504 H486 0.951 . S
C504 C505 1.366 . S
C504 C506 1.388 . S
C505 C504 1.366 . S
C505 C509 1.385 . S
C506 H487 0.951 . S
C506 C504 1.388 . S
C506 C507 1.366 . S
C507 C506 1.366 . S
C507 C508 1.414 . S
C507 C510 1.499 . S
C508 H488 0.950 . S
C508 C507 1.414 . S
C508 C509 1.374 . S
C509 H489 0.950 . S
C509 C505 1.385 . S
C509 C508 1.374 . S
C510 C507 1.499 . S
C510 C511 1.373 . S
C510 C512 1.389 . S
C511 H490 0.950 . S
C511 C510 1.373 . S
C511 C527 1.377 . S
C512 C510 1.389 . S
C512 C513 1.524 . S
C512 C526 1.377 . S
C513 C512 1.524 . S
C513 C514 1.397 . S
C513 C518 1.363 . S
C514 H491 0.950 . S
C514 C513 1.397 . S
C514 C515 1.334 . S
C515 H492 0.950 . S
C515 C514 1.334 . S
C515 C516 1.287 . S
C516 C515 1.287 . S
C516 C517 1.524 . S
C516 H535 0.913 . S
C517 H493 0.950 . S
C517 C516 1.524 . S
C517 C518 1.415 . S
C518 H494 0.950 . S
C518 C513 1.363 . S
C518 C517 1.415 . S
C519 H495 0.951 . S
C519 C520 1.366 . S
C519 C521 1.388 . S
C520 C519 1.366 . S
C520 C524 1.385 . S
C521 H496 0.951 . S
C521 C519 1.388 . S
C521 C522 1.366 . S
C522 C521 1.366 . S
C522 C523 1.414 . S
C522 C525 1.499 . S
C523 H497 0.950 . S
C523 C522 1.414 . S
C523 C524 1.374 . S
C524 H498 0.950 . S
C524 C520 1.385 . S
C524 C523 1.374 . S
C525 C522 1.499 . S
C525 C526 1.373 . S
C525 C527 1.389 . S
C526 H499 0.950 . S
C526 C512 1.377 . S
C526 C525 1.373 . S
C527 C511 1.377 . S
C527 C525 1.389 . S
C527 C528 1.524 . S
C528 C527 1.524 . S
C528 C529 1.397 . S
C528 C533 1.363 . S
C529 H500 0.950 . S
C529 C528 1.397 . S
C529 C530 1.334 . S
C530 H501 0.950 . S
C530 C529 1.334 . S
C530 C531 1.287 . S
C531 C530 1.287 . S
C531 C532 1.524 . S
C531 H534 0.999 . S
C532 H502 0.950 1_554 S
C532 C531 1.524 . S
C532 C533 1.415 . S
C533 H503 0.950 . S
C533 C528 1.363 . S
C533 C532 1.415 . S
H534 C531 0.999 . S
H535 C516 0.913 . S
H536 C554 0.951 . S
H537 C556 0.951 . S
H538 C558 0.950 . S
H539 C559 0.950 . S
H540 C561 0.950 . S
H541 C564 0.950 . S
H542 C565 0.950 . S
H543 C567 0.950 . S
H544 C568 0.950 . S
H545 C569 0.951 . S
H546 C571 0.951 . S
H547 C573 0.950 . S
H548 C574 0.950 . S
H549 C576 0.950 . S
H550 C579 0.950 . S
H551 C580 0.950 . S
H552 C582 0.950 . S
H553 C583 0.950 . S
C554 H536 0.951 . S
C554 C555 1.366 . S
C554 C556 1.388 . S
C555 C554 1.366 . S
C555 C559 1.385 . S
C556 H537 0.951 . S
C556 C554 1.388 . S
C556 C557 1.366 . S
C557 C556 1.366 . S
C557 C558 1.414 . S
C557 C560 1.499 . S
C558 H538 0.950 . S
C558 C557 1.414 . S
C558 C559 1.374 . S
C559 H539 0.950 . S
C559 C555 1.385 . S
C559 C558 1.374 . S
C560 C557 1.499 . S
C560 C561 1.373 . S
C560 C562 1.389 . S
C561 H540 0.950 . S
C561 C560 1.373 . S
C561 C577 1.377 . S
C562 C560 1.389 . S
C562 C563 1.524 . S
C562 C576 1.377 . S
C563 C562 1.524 . S
C563 C564 1.397 . S
C563 C568 1.363 . S
C564 H541 0.950 . S
C564 C563 1.397 . S
C564 C565 1.334 . S
C565 H542 0.950 . S
C565 C564 1.334 . S
C565 C566 1.287 . S
C566 C565 1.287 . S
C566 C567 1.524 . S
C566 H585 0.913 . S
C567 H543 0.950 . S
C567 C566 1.524 . S
C567 C568 1.415 . S
C568 H544 0.950 . S
C568 C563 1.363 . S
C568 C567 1.415 . S
C569 H545 0.951 . S
C569 C570 1.366 . S
C569 C571 1.388 . S
C570 C569 1.366 . S
C570 C574 1.385 . S
C571 H546 0.951 . S
C571 C569 1.388 . S
C571 C572 1.366 . S
C572 C571 1.366 . S
C572 C573 1.414 . S
C572 C575 1.499 . S
C573 H547 0.950 . S
C573 C572 1.414 . S
C573 C574 1.374 . S
C574 H548 0.950 . S
C574 C570 1.385 . S
C574 C573 1.374 . S
C575 C572 1.499 . S
C575 C576 1.373 . S
C575 C577 1.389 . S
C576 H549 0.950 . S
C576 C562 1.377 . S
C576 C575 1.373 . S
C577 C561 1.377 . S
C577 C575 1.389 . S
C577 C578 1.524 . S
C578 C577 1.524 . S
C578 C579 1.397 . S
C578 C583 1.363 . S
C579 H550 0.950 . S
C579 C578 1.397 . S
C579 C580 1.334 . S
C580 H551 0.950 . S
C580 C579 1.334 . S
C580 C581 1.287 . S
C581 C580 1.287 . S
C581 C582 1.524 . S
C581 H584 0.999 . S
C582 H552 0.950 . S
C582 C581 1.524 . S
C582 C583 1.415 . S
C583 H553 0.950 . S
C583 C578 1.363 . S
C583 C582 1.415 . S
H584 C581 0.999 . S
H585 C566 0.913 . S
H586 C604 0.951 . S
H587 C606 0.951 . S
H588 C608 0.950 . S
H589 C609 0.950 . S
H590 C611 0.950 . S
H591 C614 0.950 . S
H592 C615 0.950 . S
H593 C617 0.950 . S
H594 C618 0.950 . S
H595 C619 0.951 . S
H596 C621 0.951 . S
H597 C623 0.950 . S
H598 C624 0.950 . S
H599 C626 0.950 . S
H600 C629 0.950 . S
H601 C630 0.950 . S
H602 C632 0.950 . S
H603 C633 0.950 . S
C604 H586 0.951 . S
C604 C605 1.366 . S
C604 C606 1.388 . S
C605 C604 1.366 . S
C605 C609 1.385 . S
C606 H587 0.951 . S
C606 C604 1.388 . S
C606 C607 1.366 . S
C607 C606 1.366 . S
C607 C608 1.414 . S
C607 C610 1.499 . S
C608 H588 0.950 . S
C608 C607 1.414 . S
C608 C609 1.374 . S
C609 H589 0.950 . S
C609 C605 1.385 . S
C609 C608 1.374 . S
C610 C607 1.499 . S
C610 C611 1.373 . S
C610 C612 1.389 . S
C611 H590 0.950 . S
C611 C610 1.373 . S
C611 C627 1.377 . S
C612 C610 1.389 . S
C612 C613 1.524 . S
C612 C626 1.377 . S
C613 C612 1.524 . S
C613 C614 1.397 . S
C613 C618 1.363 . S
C614 H591 0.950 . S
C614 C613 1.397 . S
C614 C615 1.334 . S
C615 H592 0.950 . S
C615 C614 1.334 . S
C615 C616 1.287 . S
C616 C615 1.287 . S
C616 C617 1.524 . S
C616 H635 0.913 . S
C617 H593 0.950 . S
C617 C616 1.524 . S
C617 C618 1.415 . S
C618 H594 0.950 . S
C618 C613 1.363 . S
C618 C617 1.415 . S
C619 H595 0.951 . S
C619 C620 1.366 . S
C619 C621 1.388 . S
C620 C619 1.366 . S
C620 C624 1.385 . S
C621 H596 0.951 . S
C621 C619 1.388 . S
C621 C622 1.366 . S
C622 C621 1.366 . S
C622 C623 1.414 . S
C622 C625 1.499 . S
C623 H597 0.950 . S
C623 C622 1.414 . S
C623 C624 1.374 . S
C624 H598 0.950 . S
C624 C620 1.385 . S
C624 C623 1.374 . S
C625 C622 1.499 . S
C625 C626 1.373 . S
C625 C627 1.389 . S
C626 H599 0.950 . S
C626 C612 1.377 . S
C626 C625 1.373 . S
C627 C611 1.377 . S
C627 C625 1.389 . S
C627 C628 1.524 . S
C628 C627 1.524 . S
C628 C629 1.397 . S
C628 C633 1.363 . S
C629 H600 0.950 . S
C629 C628 1.397 . S
C629 C630 1.334 . S
C630 H601 0.950 . S
C630 C629 1.334 . S
C630 C631 1.287 . S
C631 C630 1.287 . S
C631 C632 1.524 . S
C631 H634 0.999 . S
C632 H602 0.950 . S
C632 C631 1.524 . S
C632 C633 1.415 . S
C633 H603 0.950 . S
C633 C628 1.363 . S
C633 C632 1.415 . S
H634 C631 0.999 . S
H635 C616 0.913 . S
H636 C654 0.951 . S
H637 C656 0.951 . S
H638 C658 0.950 . S
H639 C659 0.950 . S
H640 C661 0.950 . S
H641 C664 0.950 . S
H642 C665 0.950 . S
H643 C667 0.950 . S
H644 C668 0.950 . S
H645 C669 0.951 . S
H646 C671 0.951 . S
H647 C673 0.950 . S
H648 C674 0.950 . S
H649 C676 0.950 . S
H650 C679 0.950 . S
H651 C680 0.950 . S
H652 C682 0.950 . S
H653 C683 0.950 . S
C654 H636 0.951 . S
C654 C655 1.366 . S
C654 C656 1.388 . S
C655 C654 1.366 . S
C655 C659 1.385 . S
C656 H637 0.951 . S
C656 C654 1.388 . S
C656 C657 1.366 . S
C657 C656 1.366 . S
C657 C658 1.414 . S
C657 C660 1.499 . S
C658 H638 0.950 . S
C658 C657 1.414 . S
C658 C659 1.374 . S
C659 H639 0.950 . S
C659 C655 1.385 . S
C659 C658 1.374 . S
C660 C657 1.499 . S
C660 C661 1.373 . S
C660 C662 1.389 . S
C661 H640 0.950 . S
C661 C660 1.373 . S
C661 C677 1.377 . S
C662 C660 1.389 . S
C662 C663 1.524 . S
C662 C676 1.377 . S
C663 C662 1.524 . S
C663 C664 1.397 . S
C663 C668 1.363 . S
C664 H641 0.950 . S
C664 C663 1.397 . S
C664 C665 1.334 . S
C665 H642 0.950 . S
C665 C664 1.334 . S
C665 C666 1.287 . S
C666 C665 1.287 . S
C666 C667 1.524 . S
C666 H685 0.913 . S
C667 H643 0.950 . S
C667 C666 1.524 . S
C667 C668 1.415 . S
C668 H644 0.950 . S
C668 C663 1.363 . S
C668 C667 1.415 . S
C669 H645 0.951 . S
C669 C670 1.366 . S
C669 C671 1.388 . S
C670 C669 1.366 . S
C670 C674 1.385 . S
C671 H646 0.951 . S
C671 C669 1.388 . S
C671 C672 1.366 . S
C672 C671 1.366 . S
C672 C673 1.414 . S
C672 C675 1.499 . S
C673 H647 0.950 . S
C673 C672 1.414 . S
C673 C674 1.374 . S
C674 H648 0.950 . S
C674 C670 1.385 . S
C674 C673 1.374 . S
C675 C672 1.499 . S
C675 C676 1.373 . S
C675 C677 1.389 . S
C676 H649 0.950 . S
C676 C662 1.377 . S
C676 C675 1.373 . S
C677 C661 1.377 . S
C677 C675 1.389 . S
C677 C678 1.524 . S
C678 C677 1.524 . S
C678 C679 1.397 . S
C678 C683 1.363 . S
C679 H650 0.950 . S
C679 C678 1.397 . S
C679 C680 1.334 . S
C680 H651 0.950 . S
C680 C679 1.334 . S
C680 C681 1.287 . S
C681 C680 1.287 . S
C681 C682 1.524 . S
C681 H684 0.999 . S
C682 H652 0.950 . S
C682 C681 1.524 . S
C682 C683 1.415 . S
C683 H653 0.950 . S
C683 C678 1.363 . S
C683 C682 1.415 . S
H684 C681 0.999 . S
H685 C666 0.913 . S
H686 C704 0.951 . S
H687 C706 0.951 . S
H688 C708 0.950 . S
H689 C709 0.950 . S
H690 C711 0.950 . S
H691 C714 0.950 . S
H692 C715 0.950 . S
H693 C717 0.950 . S
H694 C718 0.950 . S
H695 C719 0.951 . S
H696 C721 0.951 . S
H697 C723 0.950 . S
H698 C724 0.924 1_554 S
H699 C726 0.950 . S
H700 C729 0.950 . S
H701 C730 0.950 . S
H702 C732 0.950 . S
H703 C733 0.950 . S
C704 H686 0.951 . S
C704 C705 1.366 . S
C704 C706 1.388 . S
C705 C704 1.366 . S
C705 C709 1.385 . S
C706 H687 0.951 . S
C706 C704 1.388 . S
C706 C707 1.366 . S
C707 C706 1.366 . S
C707 C708 1.414 . S
C707 C710 1.499 . S
C708 H688 0.950 . S
C708 C707 1.414 . S
C708 C709 1.374 . S
C709 H689 0.950 . S
C709 C705 1.385 . S
C709 C708 1.374 . S
C710 C707 1.499 . S
C710 C711 1.373 . S
C710 C712 1.389 . S
C711 H690 0.950 . S
C711 C710 1.373 . S
C711 C727 1.377 . S
C712 C710 1.389 . S
C712 C713 1.524 . S
C712 C726 1.377 . S
C713 C712 1.524 . S
C713 C714 1.397 . S
C713 C718 1.363 . S
C714 H691 0.950 . S
C714 C713 1.397 . S
C714 C715 1.334 . S
C715 H692 0.950 . S
C715 C714 1.334 . S
C715 C716 1.287 . S
C716 C715 1.287 . S
C716 C717 1.524 . S
C716 H735 0.913 . S
C717 H693 0.950 . S
C717 C716 1.524 . S
C717 C718 1.415 . S
C718 H694 0.950 . S
C718 C713 1.363 . S
C718 C717 1.415 . S
C719 H695 0.951 . S
C719 C720 1.366 . S
C719 C721 1.388 . S
C720 C719 1.366 . S
C720 C724 1.385 . S
C721 H696 0.951 . S
C721 C719 1.388 . S
C721 C722 1.366 . S
C722 C721 1.366 . S
C722 C723 1.414 . S
C722 C725 1.499 . S
C723 H697 0.950 . S
C723 C722 1.414 . S
C723 C724 1.374 . S
C724 H698 0.924 1_556 S
C724 C720 1.385 . S
C724 C723 1.374 . S
C725 C722 1.499 . S
C725 C726 1.373 . S
C725 C727 1.389 . S
C726 H699 0.950 . S
C726 C712 1.377 . S
C726 C725 1.373 . S
C727 C711 1.377 . S
C727 C725 1.389 . S
C727 C728 1.524 . S
C728 C727 1.524 . S
C728 C729 1.397 . S
C728 C733 1.363 . S
C729 H700 0.950 . S
C729 C728 1.397 . S
C729 C730 1.334 . S
C730 H701 0.950 . S
C730 C729 1.334 . S
C730 C731 1.287 . S
C731 C730 1.287 . S
C731 C732 1.524 . S
C731 H734 0.999 . S
C732 H702 0.950 . S
C732 C731 1.524 . S
C732 C733 1.415 . S
C733 H703 0.950 . S
C733 C728 1.363 . S
C733 C732 1.415 . S
H734 C731 0.999 . S
H735 C716 0.913 . S
H736 C754 0.951 . S
H737 C756 0.951 . S
H738 C758 0.950 . S
H739 C759 0.950 . S
H740 C761 0.950 . S
H741 C764 0.950 . S
H742 C765 0.950 . S
H743 C767 0.950 . S
H744 C768 0.950 . S
H745 C769 0.951 . S
H746 C771 0.951 . S
H747 C773 0.950 . S
H748 C774 0.950 . S
H749 C776 0.950 . S
H750 C779 0.950 . S
H751 C780 0.950 . S
H752 C782 0.950 . S
H753 C783 0.950 . S
C754 H736 0.951 . S
C754 C755 1.366 . S
C754 C756 1.388 . S
C755 C754 1.366 . S
C755 C759 1.385 . S
C756 H737 0.951 . S
C756 C754 1.388 . S
C756 C757 1.366 . S
C757 C756 1.366 . S
C757 C758 1.414 . S
C757 C760 1.499 . S
C758 H738 0.950 . S
C758 C757 1.414 . S
C758 C759 1.374 . S
C759 H739 0.950 . S
C759 C755 1.385 . S
C759 C758 1.374 . S
C760 C757 1.499 . S
C760 C761 1.373 . S
C760 C762 1.389 . S
C761 H740 0.950 . S
C761 C760 1.373 . S
C761 C777 1.377 . S
C762 C760 1.389 . S
C762 C763 1.524 . S
C762 C776 1.377 . S
C763 C762 1.524 . S
C763 C764 1.397 . S
C763 C768 1.363 . S
C764 H741 0.950 . S
C764 C763 1.397 . S
C764 C765 1.334 . S
C765 H742 0.950 . S
C765 C764 1.334 . S
C765 C766 1.287 . S
C766 C765 1.287 . S
C766 C767 1.524 . S
C766 H785 0.913 . S
C767 H743 0.950 . S
C767 C766 1.524 . S
C767 C768 1.415 . S
C768 H744 0.950 . S
C768 C763 1.363 . S
C768 C767 1.415 . S
C769 H745 0.951 . S
C769 C770 1.366 . S
C769 C771 1.388 . S
C770 C769 1.366 . S
C770 C774 1.385 . S
C771 H746 0.951 . S
C771 C769 1.388 . S
C771 C772 1.366 . S
C772 C771 1.366 . S
C772 C773 1.414 . S
C772 C775 1.499 . S
C773 H747 0.950 . S
C773 C772 1.414 . S
C773 C774 1.374 . S
C774 H748 0.950 . S
C774 C770 1.385 . S
C774 C773 1.374 . S
C775 C772 1.499 . S
C775 C776 1.373 . S
C775 C777 1.389 . S
C776 H749 0.950 . S
C776 C762 1.377 . S
C776 C775 1.373 . S
C777 C761 1.377 . S
C777 C775 1.389 . S
C777 C778 1.524 . S
C778 C777 1.524 . S
C778 C779 1.397 . S
C778 C783 1.363 . S
C779 H750 0.950 . S
C779 C778 1.397 . S
C779 C780 1.334 . S
C780 H751 0.950 . S
C780 C779 1.334 . S
C780 C781 1.287 . S
C781 C780 1.287 . S
C781 C782 1.524 . S
C781 H784 0.999 . S
C782 H752 0.950 . S
C782 C781 1.524 . S
C782 C783 1.415 . S
C783 H753 0.950 . S
C783 C778 1.363 . S
C783 C782 1.415 . S
H784 C781 0.999 . S
H785 C766 0.913 . S
H786 C804 0.951 . S
H787 C806 0.951 . S
H788 C808 0.950 . S
H789 C809 0.950 . S
H790 C811 0.950 . S
H791 C814 0.950 . S
H792 C815 0.950 . S
H793 C817 0.950 . S
H794 C818 0.950 . S
H795 C819 0.951 . S
H796 C821 0.951 . S
H797 C823 0.950 . S
H798 C824 0.950 . S
H799 C826 0.950 . S
H800 C829 0.950 . S
H801 C830 0.950 . S
H802 C832 0.950 . S
H803 C833 0.950 . S
C804 H786 0.951 . S
C804 C805 1.366 . S
C804 C806 1.388 . S
C805 C804 1.366 . S
C805 C809 1.385 . S
C806 H787 0.951 . S
C806 C804 1.388 . S
C806 C807 1.366 . S
C807 C806 1.366 . S
C807 C808 1.414 . S
C807 C810 1.499 . S
C808 H788 0.950 . S
C808 C807 1.414 . S
C808 C809 1.374 . S
C809 H789 0.950 . S
C809 C805 1.385 . S
C809 C808 1.374 . S
C810 C807 1.499 . S
C810 C811 1.373 . S
C810 C812 1.389 . S
C811 H790 0.950 . S
C811 C810 1.373 . S
C811 C827 1.377 . S
C812 C810 1.389 . S
C812 C813 1.524 . S
C812 C826 1.377 . S
C813 C812 1.524 . S
C813 C814 1.397 . S
C813 C818 1.363 . S
C814 H791 0.950 . S
C814 C813 1.397 . S
C814 C815 1.334 . S
C815 H792 0.950 . S
C815 C814 1.334 . S
C815 C816 1.287 . S
C816 C815 1.287 . S
C816 C817 1.524 . S
C816 H835 0.913 . S
C817 H793 0.950 . S
C817 C816 1.524 . S
C817 C818 1.415 . S
C818 H794 0.950 . S
C818 C813 1.363 . S
C818 C817 1.415 . S
C819 H795 0.951 . S
C819 C820 1.366 . S
C819 C821 1.388 . S
C820 C819 1.366 . S
C820 C824 1.385 . S
C821 H796 0.951 . S
C821 C819 1.388 . S
C821 C822 1.366 . S
C822 C821 1.366 . S
C822 C823 1.414 . S
C822 C825 1.499 . S
C823 H797 0.950 . S
C823 C822 1.414 . S
C823 C824 1.374 . S
C824 H798 0.950 . S
C824 C820 1.385 . S
C824 C823 1.374 . S
C825 C822 1.499 . S
C825 C826 1.373 . S
C825 C827 1.389 . S
C826 H799 0.950 . S
C826 C812 1.377 . S
C826 C825 1.373 . S
C827 C811 1.377 . S
C827 C825 1.389 . S
C827 C828 1.524 . S
C828 C827 1.524 . S
C828 C829 1.397 . S
C828 C833 1.363 . S
C829 H800 0.950 . S
C829 C828 1.397 . S
C829 C830 1.334 . S
C830 H801 0.950 . S
C830 C829 1.334 . S
C830 C831 1.287 . S
C831 C830 1.287 . S
C831 C832 1.524 . S
C831 H834 0.999 . S
C832 H802 0.950 . S
C832 C831 1.524 . S
C832 C833 1.415 . S
C833 H803 0.950 . S
C833 C828 1.363 . S
C833 C832 1.415 . S
H834 C831 0.999 . S
H835 C816 0.913 . S
H836 C854 0.951 . S
H837 C856 0.951 . S
H838 C858 0.950 . S
H839 C859 0.950 . S
H840 C861 0.950 . S
H841 C864 0.950 . S
H842 C865 0.950 . S
H843 C867 0.950 . S
H844 C868 0.950 . S
H845 C869 0.951 . S
H846 C871 0.951 . S
H847 C873 0.950 . S
H848 C874 0.950 . S
H849 C876 0.950 . S
H850 C879 0.950 . S
H851 C880 0.950 . S
H852 C882 0.950 1_545 S
H853 C883 0.950 . S
C854 H836 0.951 . S
C854 C855 1.366 . S
C854 C856 1.388 . S
C855 C854 1.366 . S
C855 C859 1.385 . S
C856 H837 0.951 . S
C856 C854 1.388 . S
C856 C857 1.366 . S
C857 C856 1.366 . S
C857 C858 1.414 . S
C857 C860 1.499 . S
C858 H838 0.950 . S
C858 C857 1.414 . S
C858 C859 1.374 . S
C859 H839 0.950 . S
C859 C855 1.385 . S
C859 C858 1.374 . S
C860 C857 1.499 . S
C860 C861 1.373 . S
C860 C862 1.389 . S
C861 H840 0.950 . S
C861 C860 1.373 . S
C861 C877 1.377 . S
C862 C860 1.389 . S
C862 C863 1.524 . S
C862 C876 1.377 . S
C863 C862 1.524 . S
C863 C864 1.397 . S
C863 C868 1.363 . S
C864 H841 0.950 . S
C864 C863 1.397 . S
C864 C865 1.334 . S
C865 H842 0.950 . S
C865 C864 1.334 . S
C865 C866 1.287 . S
C866 C865 1.287 . S
C866 C867 1.524 . S
C866 H885 0.913 . S
C867 H843 0.950 . S
C867 C866 1.524 . S
C867 C868 1.415 . S
C868 H844 0.950 . S
C868 C863 1.363 . S
C868 C867 1.415 . S
C869 H845 0.951 . S
C869 C870 1.366 . S
C869 C871 1.388 . S
C870 C869 1.366 . S
C870 C874 1.385 . S
C871 H846 0.951 . S
C871 C869 1.388 . S
C871 C872 1.366 . S
C872 C871 1.366 . S
C872 C873 1.414 . S
C872 C875 1.499 . S
C873 H847 0.950 . S
C873 C872 1.414 . S
C873 C874 1.374 . S
C874 H848 0.950 . S
C874 C870 1.385 . S
C874 C873 1.374 . S
C875 C872 1.499 . S
C875 C876 1.373 . S
C875 C877 1.389 . S
C876 H849 0.950 . S
C876 C862 1.377 . S
C876 C875 1.373 . S
C877 C861 1.377 . S
C877 C875 1.389 . S
C877 C878 1.524 . S
C878 C877 1.524 . S
C878 C879 1.397 . S
C878 C883 1.363 . S
C879 H850 0.950 . S
C879 C878 1.397 . S
C879 C880 1.334 . S
C880 H851 0.950 . S
C880 C879 1.334 . S
C880 C881 1.287 . S
C881 C880 1.287 . S
C881 C882 1.524 . S
C881 H884 0.999 . S
C882 H852 0.950 1_565 S
C882 C881 1.524 . S
C882 C883 1.415 . S
C883 H853 0.950 . S
C883 C878 1.363 . S
C883 C882 1.415 . S
H884 C881 0.999 . S
H885 C866 0.913 . S
H886 C904 0.951 . S
H887 C906 0.951 . S
H888 C908 0.950 . S
H889 C909 0.950 . S
H890 C911 0.950 . S
H891 C914 0.950 . S
H892 C915 0.950 . S
H893 C917 0.950 . S
H894 C918 0.950 . S
H895 C919 0.951 . S
H896 C921 0.951 . S
H897 C923 0.950 . S
H898 C924 0.950 . S
H899 C926 0.950 . S
H900 C929 0.950 . S
H901 C930 0.950 . S
H902 C932 0.950 . S
H903 C933 0.950 . S
C904 H886 0.951 . S
C904 C905 1.366 . S
C904 C906 1.388 . S
C905 C904 1.366 . S
C905 C909 1.385 . S
C906 H887 0.951 . S
C906 C904 1.388 . S
C906 C907 1.366 . S
C907 C906 1.366 . S
C907 C908 1.414 . S
C907 C910 1.499 . S
C908 H888 0.950 . S
C908 C907 1.414 . S
C908 C909 1.374 . S
C909 H889 0.950 . S
C909 C905 1.385 . S
C909 C908 1.374 . S
C910 C907 1.499 . S
C910 C911 1.373 . S
C910 C912 1.389 . S
C911 H890 0.950 . S
C911 C910 1.373 . S
C911 C927 1.377 . S
C912 C910 1.389 . S
C912 C913 1.524 . S
C912 C926 1.377 . S
C913 C912 1.524 . S
C913 C914 1.397 . S
C913 C918 1.363 . S
C914 H891 0.950 . S
C914 C913 1.397 . S
C914 C915 1.334 . S
C915 H892 0.950 . S
C915 C914 1.334 . S
C915 C916 1.287 . S
C916 C915 1.287 . S
C916 C917 1.524 . S
C916 H935 0.913 . S
C917 H893 0.950 . S
C917 C916 1.524 . S
C917 C918 1.415 . S
C918 H894 0.950 . S
C918 C913 1.363 . S
C918 C917 1.415 . S
C919 H895 0.951 . S
C919 C920 1.366 . S
C919 C921 1.388 . S
C920 C919 1.366 . S
C920 C924 1.385 . S
C921 H896 0.951 . S
C921 C919 1.388 . S
C921 C922 1.366 . S
C922 C921 1.366 . S
C922 C923 1.414 . S
C922 C925 1.499 . S
C923 H897 0.950 . S
C923 C922 1.414 . S
C923 C924 1.374 . S
C924 H898 0.950 . S
C924 C920 1.385 . S
C924 C923 1.374 . S
C925 C922 1.499 . S
C925 C926 1.373 . S
C925 C927 1.389 . S
C926 H899 0.950 . S
C926 C912 1.377 . S
C926 C925 1.373 . S
C927 C911 1.377 . S
C927 C925 1.389 . S
C927 C928 1.524 . S
C928 C927 1.524 . S
C928 C929 1.397 . S
C928 C933 1.363 . S
C929 H900 0.950 . S
C929 C928 1.397 . S
C929 C930 1.334 1_565 S
C930 H901 0.950 . S
C930 C929 1.334 1_545 S
C930 C931 1.287 . S
C931 C930 1.287 . S
C931 C932 1.524 . S
C931 H934 0.999 . S
C932 H902 0.950 . S
C932 C931 1.524 . S
C932 C933 1.415 1_545 S
C933 H903 0.950 . S
C933 C928 1.363 . S
C933 C932 1.415 1_565 S
H934 C931 0.999 . S
H935 C916 0.913 . S
H936 C954 0.951 . S
H937 C956 0.951 . S
H938 C958 0.950 . S
H939 C959 0.950 . S
H940 C961 0.950 . S
H941 C964 0.950 . S
H942 C965 0.950 . S
H943 C967 0.950 . S
H944 C968 0.950 . S
H945 C969 0.951 . S
H946 C971 0.951 . S
H947 C973 0.950 . S
H948 C974 0.950 . S
H949 C976 0.950 . S
H950 C979 0.950 . S
H951 C980 0.950 . S
H952 C982 0.950 . S
H953 C983 0.950 . S
C954 H936 0.951 . S
C954 C955 1.366 . S
C954 C956 1.388 . S
C955 C954 1.366 . S
C955 C959 1.385 . S
C956 H937 0.951 . S
C956 C954 1.388 . S
C956 C957 1.366 . S
C957 C956 1.366 . S
C957 C958 1.414 . S
C957 C960 1.499 . S
C958 H938 0.950 . S
C958 C957 1.414 . S
C958 C959 1.374 . S
C959 H939 0.950 . S
C959 C955 1.385 . S
C959 C958 1.374 . S
C960 C957 1.499 . S
C960 C961 1.373 . S
C960 C962 1.389 . S
C961 H940 0.950 . S
C961 C960 1.373 . S
C961 C977 1.377 . S
C962 C960 1.389 . S
C962 C963 1.524 . S
C962 C976 1.377 . S
C963 C962 1.524 . S
C963 C964 1.397 . S
C963 C968 1.363 . S
C964 H941 0.950 . S
C964 C963 1.397 . S
C964 C965 1.334 1_554 S
C965 H942 0.950 . S
C965 C964 1.334 1_556 S
C965 C966 1.287 . S
C966 C965 1.287 . S
C966 C967 1.524 . S
C966 H985 0.913 . S
C967 H943 0.950 . S
C967 C966 1.524 . S
C967 C968 1.415 1_556 S
C968 H944 0.950 . S
C968 C963 1.363 . S
C968 C967 1.415 1_554 S
C969 H945 0.951 . S
C969 C970 1.366 . S
C969 C971 1.388 . S
C970 C969 1.366 . S
C970 C974 1.385 . S
C971 H946 0.951 . S
C971 C969 1.388 . S
C971 C972 1.366 . S
C972 C971 1.366 . S
C972 C973 1.414 . S
C972 C975 1.499 . S
C973 H947 0.950 . S
C973 C972 1.414 . S
C973 C974 1.374 . S
C974 H948 0.950 . S
C974 C970 1.385 . S
C974 C973 1.374 . S
C975 C972 1.499 . S
C975 C976 1.373 . S
C975 C977 1.389 . S
C976 H949 0.950 . S
C976 C962 1.377 . S
C976 C975 1.373 . S
C977 C961 1.377 . S
C977 C975 1.389 . S
C977 C978 1.524 . S
C978 C977 1.524 . S
C978 C979 1.397 . S
C978 C983 1.363 . S
C979 H950 0.950 . S
C979 C978 1.397 . S
C979 C980 1.334 . S
C980 H951 0.950 . S
C980 C979 1.334 . S
C980 C981 1.287 . S
C981 C980 1.287 . S
C981 C982 1.524 . S
C981 H984 0.999 . S
C982 H952 0.950 . S
C982 C981 1.524 . S
C982 C983 1.415 . S
C983 H953 0.950 . S
C983 C978 1.363 . S
C983 C982 1.415 . S
H984 C981 0.999 . S
H985 C966 0.913 . S
H986 C1004 0.951 1_455 S
H987 C1006 0.951 . S
H988 C1008 0.950 . S
H989 C1009 0.950 . S
H990 C1011 0.950 . S
H991 C1014 0.950 . S
H992 C1015 0.950 . S
H993 C1017 0.950 1_455 S
H994 C1018 0.950 . S
H995 C1019 0.951 . S
H996 C1021 0.951 . S
H997 C1023 0.950 . S
H998 C1024 0.950 . S
H999 C1026 0.950 . S
H1000 C1029 0.950 . S
H1001 C1030 0.950 . S
H1002 C1032 0.950 . S
H1003 C1033 0.950 . S
C1004 H986 0.951 1_655 S
C1004 C1005 1.366 . S
C1004 C1006 1.388 . S
C1005 C1004 1.366 . S
C1005 C1009 1.385 . S
C1006 H987 0.951 . S
C1006 C1004 1.388 . S
C1006 C1007 1.366 . S
C1007 C1006 1.366 . S
C1007 C1008 1.414 . S
C1007 C1010 1.499 . S
C1008 H988 0.950 . S
C1008 C1007 1.414 . S
C1008 C1009 1.374 . S
C1009 H989 0.950 . S
C1009 C1005 1.385 . S
C1009 C1008 1.374 . S
C1010 C1007 1.499 . S
C1010 C1011 1.373 . S
C1010 C1012 1.389 . S
C1011 H990 0.950 . S
C1011 C1010 1.373 . S
C1011 C1027 1.377 . S
C1012 C1010 1.389 . S
C1012 C1013 1.524 . S
C1012 C1026 1.377 . S
C1013 C1012 1.524 . S
C1013 C1014 1.397 . S
C1013 C1018 1.363 . S
C1014 H991 0.950 . S
C1014 C1013 1.397 . S
C1014 C1015 1.334 . S
C1015 H992 0.950 . S
C1015 C1014 1.334 . S
C1015 C1016 1.287 . S
C1016 C1015 1.287 . S
C1016 C1017 1.524 . S
C1016 H1035 0.913 . S
C1017 H993 0.950 1_655 S
C1017 C1016 1.524 . S
C1017 C1018 1.415 . S
C1018 H994 0.950 . S
C1018 C1013 1.363 . S
C1018 C1017 1.415 . S
C1019 H995 0.951 . S
C1019 C1020 1.366 . S
C1019 C1021 1.388 . S
C1020 C1019 1.366 . S
C1020 C1024 1.385 . S
C1021 H996 0.951 . S
C1021 C1019 1.388 . S
C1021 C1022 1.366 . S
C1022 C1021 1.366 . S
C1022 C1023 1.414 . S
C1022 C1025 1.499 . S
C1023 H997 0.950 . S
C1023 C1022 1.414 . S
C1023 C1024 1.374 . S
C1024 H998 0.950 . S
C1024 C1020 1.385 . S
C1024 C1023 1.374 . S
C1025 C1022 1.499 . S
C1025 C1026 1.373 . S
C1025 C1027 1.389 . S
C1026 H999 0.950 . S
C1026 C1012 1.377 . S
C1026 C1025 1.373 . S
C1027 C1011 1.377 . S
C1027 C1025 1.389 . S
C1027 C1028 1.524 . S
C1028 C1027 1.524 . S
C1028 C1029 1.397 . S
C1028 C1033 1.363 . S
C1029 H1000 0.950 . S
C1029 C1028 1.397 . S
C1029 C1030 1.334 . S
C1030 H1001 0.950 . S
C1030 C1029 1.334 . S
C1030 C1031 1.287 . S
C1031 C1030 1.287 . S
C1031 C1032 1.524 . S
C1031 H1034 0.999 . S
C1032 H1002 0.950 . S
C1032 C1031 1.524 . S
C1032 C1033 1.415 . S
C1033 H1003 0.950 . S
C1033 C1028 1.363 . S
C1033 C1032 1.415 . S
H1034 C1031 0.999 . S
H1035 C1016 0.913 . S
H1036 C1054 0.951 . S
H1037 C1056 0.951 . S
H1038 C1058 0.950 . S
H1039 C1059 0.950 . S
H1040 C1061 0.950 . S
H1041 C1064 0.950 . S
H1042 C1065 0.950 . S
H1043 C1067 0.950 . S
H1044 C1068 0.950 . S
H1045 C1069 0.951 . S
H1046 C1071 0.951 . S
H1047 C1073 0.950 . S
H1048 C1074 0.950 . S
H1049 C1076 0.950 . S
H1050 C1079 0.950 . S
H1051 C1080 0.950 . S
H1052 C1082 0.950 . S
H1053 C1083 0.950 . S
C1054 H1036 0.951 . S
C1054 C1055 1.366 . S
C1054 C1056 1.388 . S
C1055 C1054 1.366 . S
C1055 C1059 1.385 . S
C1056 H1037 0.951 . S
C1056 C1054 1.388 . S
C1056 C1057 1.366 . S
C1057 C1056 1.366 . S
C1057 C1058 1.414 . S
C1057 C1060 1.499 . S
C1058 H1038 0.950 . S
C1058 C1057 1.414 . S
C1058 C1059 1.374 . S
C1059 H1039 0.950 . S
C1059 C1055 1.385 . S
C1059 C1058 1.374 . S
C1060 C1057 1.499 . S
C1060 C1061 1.373 . S
C1060 C1062 1.389 . S
C1061 H1040 0.950 . S
C1061 C1060 1.373 . S
C1061 C1077 1.377 . S
C1062 C1060 1.389 . S
C1062 C1063 1.524 . S
C1062 C1076 1.377 . S
C1063 C1062 1.524 . S
C1063 C1064 1.397 . S
C1063 C1068 1.363 . S
C1064 H1041 0.950 . S
C1064 C1063 1.397 . S
C1064 C1065 1.334 . S
C1065 H1042 0.950 . S
C1065 C1064 1.334 . S
C1065 C1066 1.287 . S
C1066 C1065 1.287 . S
C1066 C1067 1.524 . S
C1066 H1085 0.913 . S
C1067 H1043 0.950 . S
C1067 C1066 1.524 . S
C1067 C1068 1.415 . S
C1068 H1044 0.950 . S
C1068 C1063 1.363 . S
C1068 C1067 1.415 . S
C1069 H1045 0.951 . S
C1069 C1070 1.366 . S
C1069 C1071 1.388 . S
C1070 C1069 1.366 . S
C1070 C1074 1.385 . S
C1071 H1046 0.951 . S
C1071 C1069 1.388 . S
C1071 C1072 1.366 . S
C1072 C1071 1.366 . S
C1072 C1073 1.414 . S
C1072 C1075 1.499 . S
C1073 H1047 0.950 . S
C1073 C1072 1.414 . S
C1073 C1074 1.374 . S
C1074 H1048 0.950 . S
C1074 C1070 1.385 . S
C1074 C1073 1.374 . S
C1075 C1072 1.499 . S
C1075 C1076 1.373 . S
C1075 C1077 1.389 . S
C1076 H1049 0.950 . S
C1076 C1062 1.377 . S
C1076 C1075 1.373 . S
C1077 C1061 1.377 . S
C1077 C1075 1.389 . S
C1077 C1078 1.524 . S
C1078 C1077 1.524 . S
C1078 C1079 1.397 . S
C1078 C1083 1.363 . S
C1079 H1050 0.950 . S
C1079 C1078 1.397 . S
C1079 C1080 1.334 . S
C1080 H1051 0.950 . S
C1080 C1079 1.334 . S
C1080 C1081 1.287 . S
C1081 C1080 1.287 . S
C1081 C1082 1.524 . S
C1081 H1084 0.999 . S
C1082 H1052 0.950 . S
C1082 C1081 1.524 . S
C1082 C1083 1.415 . S
C1083 H1053 0.950 . S
C1083 C1078 1.363 . S
C1083 C1082 1.415 . S
H1084 C1081 0.999 . S
H1085 C1066 0.913 . S
H1086 C1104 0.951 1_455 S
H1087 C1106 0.951 . S
H1088 C1108 0.950 . S
H1089 C1109 0.950 . S
H1090 C1111 0.950 . S
H1091 C1114 0.950 . S
H1092 C1115 0.950 . S
H1093 C1117 0.950 . S
H1094 C1118 0.950 . S
H1095 C1119 0.951 . S
H1096 C1121 0.951 . S
H1097 C1123 0.950 . S
H1098 C1124 0.950 . S
H1099 C1126 0.950 . S
H1100 C1129 0.950 . S
H1101 C1130 0.950 . S
H1102 C1132 0.950 . S
H1103 C1133 0.950 . S
C1104 H1086 0.951 1_655 S
C1104 C1105 1.366 . S
C1104 C1106 1.388 . S
C1105 C1104 1.366 . S
C1105 C1109 1.385 . S
C1106 H1087 0.951 . S
C1106 C1104 1.388 . S
C1106 C1107 1.366 . S
C1107 C1106 1.366 . S
C1107 C1108 1.414 . S
C1107 C1110 1.499 . S
C1108 H1088 0.950 . S
C1108 C1107 1.414 . S
C1108 C1109 1.374 . S
C1109 H1089 0.950 . S
C1109 C1105 1.385 . S
C1109 C1108 1.374 . S
C1110 C1107 1.499 . S
C1110 C1111 1.373 . S
C1110 C1112 1.389 . S
C1111 H1090 0.950 . S
C1111 C1110 1.373 . S
C1111 C1127 1.377 . S
C1112 C1110 1.389 . S
C1112 C1113 1.524 . S
C1112 C1126 1.377 . S
C1113 C1112 1.524 . S
C1113 C1114 1.397 . S
C1113 C1118 1.363 1_655 S
C1114 H1091 0.950 . S
C1114 C1113 1.397 . S
C1114 C1115 1.334 1_655 S
C1115 H1092 0.950 . S
C1115 C1114 1.334 1_455 S
C1115 C1116 1.287 . S
C1116 C1115 1.287 . S
C1116 C1117 1.524 . S
C1116 H1135 0.913 . S
C1117 H1093 0.950 . S
C1117 C1116 1.524 . S
C1117 C1118 1.415 . S
C1118 H1094 0.950 . S
C1118 C1113 1.363 1_455 S
C1118 C1117 1.415 . S
C1119 H1095 0.951 . S
C1119 C1120 1.366 . S
C1119 C1121 1.388 . S
C1120 C1119 1.366 . S
C1120 C1124 1.385 . S
C1121 H1096 0.951 . S
C1121 C1119 1.388 . S
C1121 C1122 1.366 . S
C1122 C1121 1.366 . S
C1122 C1123 1.414 . S
C1122 C1125 1.499 . S
C1123 H1097 0.950 . S
C1123 C1122 1.414 . S
C1123 C1124 1.374 . S
C1124 H1098 0.950 . S
C1124 C1120 1.385 . S
C1124 C1123 1.374 . S
C1125 C1122 1.499 . S
C1125 C1126 1.373 . S
C1125 C1127 1.389 . S
C1126 H1099 0.950 . S
C1126 C1112 1.377 . S
C1126 C1125 1.373 . S
C1127 C1111 1.377 . S
C1127 C1125 1.389 . S
C1127 C1128 1.524 . S
C1128 C1127 1.524 . S
C1128 C1129 1.397 . S
C1128 C1133 1.363 . S
C1129 H1100 0.950 . S
C1129 C1128 1.397 . S
C1129 C1130 1.334 . S
C1130 H1101 0.950 . S
C1130 C1129 1.334 . S
C1130 C1131 1.287 . S
C1131 C1130 1.287 . S
C1131 C1132 1.524 . S
C1131 H1134 0.999 . S
C1132 H1102 0.950 . S
C1132 C1131 1.524 . S
C1132 C1133 1.415 . S
C1133 H1103 0.950 . S
C1133 C1128 1.363 . S
C1133 C1132 1.415 . S
H1134 C1131 0.999 . S
H1135 C1116 0.913 . S
H1136 C1154 0.951 . S
H1137 C1156 0.951 . S
H1138 C1158 0.950 . S
H1139 C1159 0.950 . S
H1140 C1161 0.950 . S
H1141 C1164 0.950 . S
H1142 C1165 0.950 . S
H1143 C1167 0.950 . S
H1144 C1168 0.950 . S
H1145 C1169 0.951 . S
H1146 C1171 0.951 . S
H1147 C1173 0.950 . S
H1148 C1174 0.950 . S
H1149 C1176 0.950 . S
H1150 C1179 0.950 . S
H1151 C1180 0.950 . S
H1152 C1182 0.950 . S
H1153 C1183 0.950 . S
C1154 H1136 0.951 . S
C1154 C1155 1.366 . S
C1154 C1156 1.388 . S
C1155 C1154 1.366 . S
C1155 C1159 1.385 . S
C1156 H1137 0.951 . S
C1156 C1154 1.388 . S
C1156 C1157 1.366 . S
C1157 C1156 1.366 . S
C1157 C1158 1.414 . S
C1157 C1160 1.499 . S
C1158 H1138 0.950 . S
C1158 C1157 1.414 . S
C1158 C1159 1.374 . S
C1159 H1139 0.950 . S
C1159 C1155 1.385 . S
C1159 C1158 1.374 . S
C1160 C1157 1.499 . S
C1160 C1161 1.373 . S
C1160 C1162 1.389 . S
C1161 H1140 0.950 . S
C1161 C1160 1.373 . S
C1161 C1177 1.377 . S
C1162 C1160 1.389 . S
C1162 C1163 1.524 . S
C1162 C1176 1.377 . S
C1163 C1162 1.524 . S
C1163 C1164 1.397 . S
C1163 C1168 1.363 . S
C1164 H1141 0.950 . S
C1164 C1163 1.397 . S
C1164 C1165 1.334 . S
C1165 H1142 0.950 . S
C1165 C1164 1.334 . S
C1165 C1166 1.287 . S
C1166 C1165 1.287 . S
C1166 C1167 1.524 . S
C1166 H1185 0.913 . S
C1167 H1143 0.950 . S
C1167 C1166 1.524 . S
C1167 C1168 1.415 . S
C1168 H1144 0.950 . S
C1168 C1163 1.363 . S
C1168 C1167 1.415 . S
C1169 H1145 0.951 . S
C1169 C1170 1.366 . S
C1169 C1171 1.388 . S
C1170 C1169 1.366 . S
C1170 C1174 1.385 . S
C1171 H1146 0.951 . S
C1171 C1169 1.388 . S
C1171 C1172 1.366 . S
C1172 C1171 1.366 . S
C1172 C1173 1.414 . S
C1172 C1175 1.499 . S
C1173 H1147 0.950 . S
C1173 C1172 1.414 . S
C1173 C1174 1.374 . S
C1174 H1148 0.950 . S
C1174 C1170 1.385 . S
C1174 C1173 1.374 . S
C1175 C1172 1.499 . S
C1175 C1176 1.373 . S
C1175 C1177 1.389 . S
C1176 H1149 0.950 . S
C1176 C1162 1.377 . S
C1176 C1175 1.373 . S
C1177 C1161 1.377 . S
C1177 C1175 1.389 . S
C1177 C1178 1.524 . S
C1178 C1177 1.524 . S
C1178 C1179 1.397 . S
C1178 C1183 1.363 . S
C1179 H1150 0.950 . S
C1179 C1178 1.397 . S
C1179 C1180 1.334 . S
C1180 H1151 0.950 . S
C1180 C1179 1.334 . S
C1180 C1181 1.287 . S
C1181 C1180 1.287 . S
C1181 C1182 1.524 . S
C1181 H1184 0.999 . S
C1182 H1152 0.950 . S
C1182 C1181 1.524 . S
C1182 C1183 1.415 . S
C1183 H1153 0.950 . S
C1183 C1178 1.363 . S
C1183 C1182 1.415 . S
H1184 C1181 0.999 . S
H1185 C1166 0.913 . S
H1186 C1204 0.951 . S
H1187 C1206 0.951 . S
H1188 C1208 0.950 . S
H1189 C1209 0.950 . S
H1190 C1211 0.950 . S
H1191 C1214 0.950 . S
H1192 C1215 0.950 . S
H1193 C1217 0.950 . S
H1194 C1218 0.950 . S
H1195 C1219 0.951 . S
H1196 C1221 0.951 . S
H1197 C1223 0.950 . S
H1198 C1224 0.950 . S
H1199 C1226 0.950 . S
H1200 C1229 0.950 . S
H1201 C1230 0.950 . S
H1202 C1232 0.950 . S
H1203 C1233 0.950 . S
C1204 H1186 0.951 . S
C1204 C1205 1.366 . S
C1204 C1206 1.388 . S
C1205 C1204 1.366 . S
C1205 C1209 1.385 . S
C1206 H1187 0.951 . S
C1206 C1204 1.388 . S
C1206 C1207 1.366 . S
C1207 C1206 1.366 . S
C1207 C1208 1.414 . S
C1207 C1210 1.499 . S
C1208 H1188 0.950 . S
C1208 C1207 1.414 . S
C1208 C1209 1.374 . S
C1209 H1189 0.950 . S
C1209 C1205 1.385 . S
C1209 C1208 1.374 . S
C1210 C1207 1.499 . S
C1210 C1211 1.373 . S
C1210 C1212 1.389 . S
C1211 H1190 0.950 . S
C1211 C1210 1.373 . S
C1211 C1227 1.377 . S
C1212 C1210 1.389 . S
C1212 C1213 1.524 . S
C1212 C1226 1.377 . S
C1213 C1212 1.524 . S
C1213 C1214 1.397 . S
C1213 C1218 1.363 . S
C1214 H1191 0.950 . S
C1214 C1213 1.397 . S
C1214 C1215 1.334 . S
C1215 H1192 0.950 . S
C1215 C1214 1.334 . S
C1215 C1216 1.287 . S
C1216 C1215 1.287 . S
C1216 C1217 1.524 . S
C1216 H1235 0.913 . S
C1217 H1193 0.950 . S
C1217 C1216 1.524 . S
C1217 C1218 1.415 . S
C1218 H1194 0.950 . S
C1218 C1213 1.363 . S
C1218 C1217 1.415 . S
C1219 H1195 0.951 . S
C1219 C1220 1.366 . S
C1219 C1221 1.388 . S
C1220 C1219 1.366 . S
C1220 C1224 1.385 . S
C1221 H1196 0.951 . S
C1221 C1219 1.388 . S
C1221 C1222 1.366 . S
C1222 C1221 1.366 . S
C1222 C1223 1.414 . S
C1222 C1225 1.499 . S
C1223 H1197 0.950 . S
C1223 C1222 1.414 . S
C1223 C1224 1.374 . S
C1224 H1198 0.950 . S
C1224 C1220 1.385 . S
C1224 C1223 1.374 . S
C1225 C1222 1.499 . S
C1225 C1226 1.373 . S
C1225 C1227 1.389 . S
C1226 H1199 0.950 . S
C1226 C1212 1.377 . S
C1226 C1225 1.373 . S
C1227 C1211 1.377 . S
C1227 C1225 1.389 . S
C1227 C1228 1.524 . S
C1228 C1227 1.524 . S
C1228 C1229 1.397 . S
C1228 C1233 1.363 . S
C1229 H1200 0.950 . S
C1229 C1228 1.397 . S
C1229 C1230 1.334 . S
C1230 H1201 0.950 . S
C1230 C1229 1.334 . S
C1230 C1231 1.287 . S
C1231 C1230 1.287 . S
C1231 C1232 1.524 . S
C1231 H1234 0.999 . S
C1232 H1202 0.950 . S
C1232 C1231 1.524 . S
C1232 C1233 1.415 . S
C1233 H1203 0.950 . S
C1233 C1228 1.363 . S
C1233 C1232 1.415 . S
H1234 C1231 0.999 . S
H1235 C1216 0.913 . S
H1236 C1254 0.951 . S
H1237 C1256 0.951 . S
H1238 C1258 0.950 . S
H1239 C1259 0.950 1_554 S
H1240 C1261 0.950 . S
H1241 C1264 0.950 . S
H1242 C1265 0.950 . S
H1243 C1267 0.950 . S
H1244 C1268 0.950 . S
H1245 C1269 0.951 . S
H1246 C1271 0.951 . S
H1247 C1273 0.950 . S
H1248 C1274 0.950 . S
H1249 C1276 0.950 . S
H1250 C1279 0.950 . S
H1251 C1280 0.950 . S
H1252 C1282 0.950 . S
H1253 C1283 0.950 1_554 S
C1254 H1236 0.951 . S
C1254 C1255 1.366 . S
C1254 C1256 1.388 . S
C1255 C1254 1.366 . S
C1255 C1259 1.385 . S
C1256 H1237 0.951 . S
C1256 C1254 1.388 . S
C1256 C1257 1.366 . S
C1257 C1256 1.366 . S
C1257 C1258 1.414 . S
C1257 C1260 1.499 . S
C1258 H1238 0.950 . S
C1258 C1257 1.414 . S
C1258 C1259 1.374 . S
C1259 H1239 0.950 1_556 S
C1259 C1255 1.385 . S
C1259 C1258 1.374 . S
C1260 C1257 1.499 . S
C1260 C1261 1.373 . S
C1260 C1262 1.389 . S
C1261 H1240 0.950 . S
C1261 C1260 1.373 . S
C1261 C1277 1.377 . S
C1262 C1260 1.389 . S
C1262 C1263 1.524 . S
C1262 C1276 1.377 . S
C1263 C1262 1.524 . S
C1263 C1264 1.397 . S
C1263 C1268 1.363 . S
C1264 H1241 0.950 . S
C1264 C1263 1.397 . S
C1264 C1265 1.334 . S
C1265 H1242 0.950 . S
C1265 C1264 1.334 . S
C1265 C1266 1.287 . S
C1266 C1265 1.287 . S
C1266 C1267 1.524 . S
C1266 H1285 0.913 . S
C1267 H1243 0.950 . S
C1267 C1266 1.524 . S
C1267 C1268 1.415 . S
C1268 H1244 0.950 . S
C1268 C1263 1.363 . S
C1268 C1267 1.415 . S
C1269 H1245 0.951 . S
C1269 C1270 1.366 . S
C1269 C1271 1.388 . S
C1270 C1269 1.366 . S
C1270 C1274 1.385 . S
C1271 H1246 0.951 . S
C1271 C1269 1.388 . S
C1271 C1272 1.366 . S
C1272 C1271 1.366 . S
C1272 C1273 1.414 . S
C1272 C1275 1.499 . S
C1273 H1247 0.950 . S
C1273 C1272 1.414 . S
C1273 C1274 1.374 . S
C1274 H1248 0.950 . S
C1274 C1270 1.385 . S
C1274 C1273 1.374 . S
C1275 C1272 1.499 . S
C1275 C1276 1.373 . S
C1275 C1277 1.389 . S
C1276 H1249 0.950 . S
C1276 C1262 1.377 . S
C1276 C1275 1.373 . S
C1277 C1261 1.377 . S
C1277 C1275 1.389 . S
C1277 C1278 1.524 . S
C1278 C1277 1.524 . S
C1278 C1279 1.397 . S
C1278 C1283 1.363 . S
C1279 H1250 0.950 . S
C1279 C1278 1.397 . S
C1279 C1280 1.334 . S
C1280 H1251 0.950 . S
C1280 C1279 1.334 . S
C1280 C1281 1.245 1_556 S
C1281 C1280 1.245 1_554 S
C1281 C1282 1.548 . S
C1281 H1284 1.022 . S
C1282 H1252 0.950 . S
C1282 C1281 1.548 . S
C1282 C1283 1.415 1_554 S
C1283 H1253 0.950 1_556 S
C1283 C1278 1.363 . S
C1283 C1282 1.415 1_556 S
H1284 C1281 1.022 . S
H1285 C1266 0.913 . S
H1286 C1304 0.951 . S
H1287 C1306 0.951 . S
H1288 C1308 0.950 . S
H1289 C1309 0.950 . S
H1290 C1311 0.950 . S
H1291 C1314 0.950 . S
H1292 C1315 0.950 . S
H1293 C1317 0.950 . S
H1294 C1318 0.950 . S
H1295 C1319 0.951 . S
H1296 C1321 0.951 . S
H1297 C1323 0.950 . S
H1298 C1324 0.950 . S
H1299 C1326 0.950 . S
H1300 C1329 0.950 . S
H1301 C1330 0.950 . S
H1302 C1332 0.950 . S
H1303 C1333 0.950 . S
C1304 H1286 0.951 . S
C1304 C1305 1.366 . S
C1304 C1306 1.388 . S
C1305 C1304 1.366 . S
C1305 C1309 1.385 . S
C1306 H1287 0.951 . S
C1306 C1304 1.388 . S
C1306 C1307 1.366 . S
C1307 C1306 1.366 . S
C1307 C1308 1.414 . S
C1307 C1310 1.499 . S
C1308 H1288 0.950 . S
C1308 C1307 1.414 . S
C1308 C1309 1.374 . S
C1309 H1289 0.950 . S
C1309 C1305 1.385 . S
C1309 C1308 1.374 . S
C1310 C1307 1.499 . S
C1310 C1311 1.373 . S
C1310 C1312 1.389 . S
C1311 H1290 0.950 . S
C1311 C1310 1.373 . S
C1311 C1327 1.377 . S
C1312 C1310 1.389 . S
C1312 C1313 1.524 . S
C1312 C1326 1.377 . S
C1313 C1312 1.524 . S
C1313 C1314 1.397 . S
C1313 C1318 1.363 . S
C1314 H1291 0.950 . S
C1314 C1313 1.397 . S
C1314 C1315 1.334 . S
C1315 H1292 0.950 . S
C1315 C1314 1.334 . S
C1315 C1316 1.287 1_655 S
C1316 C1315 1.287 1_455 S
C1316 C1317 1.524 . S
C1316 H1335 0.913 . S
C1317 H1293 0.950 . S
C1317 C1316 1.524 . S
C1317 C1318 1.415 1_455 S
C1318 H1294 0.950 . S
C1318 C1313 1.363 . S
C1318 C1317 1.415 1_655 S
C1319 H1295 0.951 . S
C1319 C1320 1.366 . S
C1319 C1321 1.388 . S
C1320 C1319 1.366 . S
C1320 C1324 1.385 . S
C1321 H1296 0.951 . S
C1321 C1319 1.388 . S
C1321 C1322 1.366 . S
C1322 C1321 1.366 . S
C1322 C1323 1.414 . S
C1322 C1325 1.499 . S
C1323 H1297 0.950 . S
C1323 C1322 1.414 . S
C1323 C1324 1.374 . S
C1324 H1298 0.950 . S
C1324 C1320 1.385 . S
C1324 C1323 1.374 . S
C1325 C1322 1.499 . S
C1325 C1326 1.373 . S
C1325 C1327 1.389 . S
C1326 H1299 0.950 . S
C1326 C1312 1.377 . S
C1326 C1325 1.373 . S
C1327 C1311 1.377 . S
C1327 C1325 1.389 . S
C1327 C1328 1.524 . S
C1328 C1327 1.524 . S
C1328 C1329 1.397 . S
C1328 C1333 1.363 . S
C1329 H1300 0.950 . S
C1329 C1328 1.397 . S
C1329 C1330 1.334 . S
C1330 H1301 0.950 . S
C1330 C1329 1.334 . S
C1330 C1331 1.287 . S
C1331 C1330 1.287 . S
C1331 C1332 1.524 . S
C1331 H1334 0.999 . S
C1332 H1302 0.950 . S
C1332 C1331 1.524 . S
C1332 C1333 1.415 . S
C1333 H1303 0.950 . S
C1333 C1328 1.363 . S
C1333 C1332 1.415 . S
H1334 C1331 0.999 . S
H1335 C1316 0.913 . S
H1336 C1354 0.951 . S
H1337 C1356 0.951 . S
H1338 C1358 0.950 . S
H1339 C1359 0.950 . S
H1340 C1361 0.950 . S
H1341 C1364 0.950 . S
H1342 C1365 0.950 . S
H1343 C1367 0.950 . S
H1344 C1368 0.950 . S
H1345 C1369 0.951 . S
H1346 C1371 0.951 . S
H1347 C1373 0.950 . S
H1348 C1374 0.950 . S
H1349 C1376 0.950 . S
H1350 C1379 0.950 . S
H1351 C1380 0.950 . S
H1352 C1382 0.950 . S
H1353 C1383 0.950 . S
C1354 H1336 0.951 . S
C1354 C1355 1.366 . S
C1354 C1356 1.388 . S
C1355 C1354 1.366 . S
C1355 C1359 1.385 . S
C1356 H1337 0.951 . S
C1356 C1354 1.388 . S
C1356 C1357 1.366 . S
C1357 C1356 1.366 . S
C1357 C1358 1.414 . S
C1357 C1360 1.499 . S
C1358 H1338 0.950 . S
C1358 C1357 1.414 . S
C1358 C1359 1.374 . S
C1359 H1339 0.950 . S
C1359 C1355 1.385 . S
C1359 C1358 1.374 . S
C1360 C1357 1.499 . S
C1360 C1361 1.373 . S
C1360 C1362 1.389 . S
C1361 H1340 0.950 . S
C1361 C1360 1.373 . S
C1361 C1377 1.377 . S
C1362 C1360 1.389 . S
C1362 C1363 1.524 . S
C1362 C1376 1.377 . S
C1363 C1362 1.524 . S
C1363 C1364 1.397 . S
C1363 C1368 1.363 . S
C1364 H1341 0.950 . S
C1364 C1363 1.397 . S
C1364 C1365 1.334 . S
C1365 H1342 0.950 . S
C1365 C1364 1.334 . S
C1365 C1366 1.287 . S
C1366 C1365 1.287 . S
C1366 C1367 1.524 . S
C1366 H1385 0.913 . S
C1367 H1343 0.950 . S
C1367 C1366 1.524 . S
C1367 C1368 1.415 . S
C1368 H1344 0.950 . S
C1368 C1363 1.363 . S
C1368 C1367 1.415 . S
C1369 H1345 0.951 . S
C1369 C1370 1.366 . S
C1369 C1371 1.388 . S
C1370 C1369 1.366 . S
C1370 C1374 1.385 . S
C1371 H1346 0.951 . S
C1371 C1369 1.388 . S
C1371 C1372 1.366 . S
C1372 C1371 1.366 . S
C1372 C1373 1.414 . S
C1372 C1375 1.499 . S
C1373 H1347 0.950 . S
C1373 C1372 1.414 . S
C1373 C1374 1.374 . S
C1374 H1348 0.950 . S
C1374 C1370 1.385 . S
C1374 C1373 1.374 . S
C1375 C1372 1.499 . S
C1375 C1376 1.373 . S
C1375 C1377 1.389 . S
C1376 H1349 0.950 . S
C1376 C1362 1.377 . S
C1376 C1375 1.373 . S
C1377 C1361 1.377 . S
C1377 C1375 1.389 . S
C1377 C1378 1.524 . S
C1378 C1377 1.524 . S
C1378 C1379 1.397 . S
C1378 C1383 1.363 . S
C1379 H1350 0.950 . S
C1379 C1378 1.397 . S
C1379 C1380 1.334 . S
C1380 H1351 0.950 . S
C1380 C1379 1.334 . S
C1380 C1381 1.287 . S
C1381 C1380 1.287 . S
C1381 C1382 1.524 . S
C1381 H1384 0.999 . S
C1382 H1352 0.950 . S
C1382 C1381 1.524 . S
C1382 C1383 1.415 . S
C1383 H1353 0.950 . S
C1383 C1378 1.363 . S
C1383 C1382 1.415 . S
H1384 C1381 0.999 . S
H1385 C1366 0.913 . S
H1386 C1404 0.951 . S
H1387 C1406 0.951 . S
H1388 C1408 0.950 . S
H1389 C1409 0.950 . S
H1390 C1411 0.950 . S
H1391 C1414 0.950 . S
H1392 C1415 0.950 . S
H1393 C1417 0.950 . S
H1394 C1418 0.950 . S
H1395 C1419 0.951 . S
H1396 C1421 0.951 . S
H1397 C1423 0.950 . S
H1398 C1424 0.950 . S
H1399 C1426 0.950 . S
H1400 C1429 0.950 . S
H1401 C1430 0.950 . S
H1402 C1432 0.950 . S
H1403 C1433 0.950 . S
C1404 H1386 0.951 . S
C1404 C1405 1.366 . S
C1404 C1406 1.388 . S
C1405 C1404 1.366 . S
C1405 C1409 1.385 . S
C1406 H1387 0.951 . S
C1406 C1404 1.388 . S
C1406 C1407 1.366 . S
C1407 C1406 1.366 . S
C1407 C1408 1.414 . S
C1407 C1410 1.499 . S
C1408 H1388 0.950 . S
C1408 C1407 1.414 . S
C1408 C1409 1.374 . S
C1409 H1389 0.950 . S
C1409 C1405 1.385 . S
C1409 C1408 1.374 . S
C1410 C1407 1.499 . S
C1410 C1411 1.373 . S
C1410 C1412 1.389 . S
C1411 H1390 0.950 . S
C1411 C1410 1.373 . S
C1411 C1427 1.377 . S
C1412 C1410 1.389 . S
C1412 C1413 1.524 . S
C1412 C1426 1.377 . S
C1413 C1412 1.524 . S
C1413 C1414 1.397 . S
C1413 C1418 1.363 . S
C1414 H1391 0.950 . S
C1414 C1413 1.397 . S
C1414 C1415 1.334 . S
C1415 H1392 0.950 . S
C1415 C1414 1.334 . S
C1415 C1416 1.287 . S
C1416 C1415 1.287 . S
C1416 C1417 1.524 . S
C1416 H1435 0.913 . S
C1417 H1393 0.950 . S
C1417 C1416 1.524 . S
C1417 C1418 1.415 . S
C1418 H1394 0.950 . S
C1418 C1413 1.363 . S
C1418 C1417 1.415 . S
C1419 H1395 0.951 . S
C1419 C1420 1.366 . S
C1419 C1421 1.388 . S
C1420 C1419 1.366 . S
C1420 C1424 1.385 . S
C1421 H1396 0.951 . S
C1421 C1419 1.388 . S
C1421 C1422 1.366 . S
C1422 C1421 1.366 . S
C1422 C1423 1.414 . S
C1422 C1425 1.499 . S
C1423 H1397 0.950 . S
C1423 C1422 1.414 . S
C1423 C1424 1.374 . S
C1424 H1398 0.950 . S
C1424 C1420 1.385 . S
C1424 C1423 1.374 . S
C1425 C1422 1.499 . S
C1425 C1426 1.373 . S
C1425 C1427 1.389 . S
C1426 H1399 0.950 . S
C1426 C1412 1.377 . S
C1426 C1425 1.373 . S
C1427 C1411 1.377 . S
C1427 C1425 1.389 . S
C1427 C1428 1.524 . S
C1428 C1427 1.524 . S
C1428 C1429 1.397 . S
C1428 C1433 1.363 . S
C1429 H1400 0.950 . S
C1429 C1428 1.397 . S
C1429 C1430 1.334 . S
C1430 H1401 0.950 . S
C1430 C1429 1.334 . S
C1430 C1431 1.287 . S
C1431 C1430 1.287 . S
C1431 C1432 1.524 . S
C1431 H1434 0.999 . S
C1432 H1402 0.950 . S
C1432 C1431 1.524 . S
C1432 C1433 1.415 . S
C1433 H1403 0.950 . S
C1433 C1428 1.363 . S
C1433 C1432 1.415 . S
H1434 C1431 0.999 . S
H1435 C1416 0.913 . S
H1436 C1454 0.951 . S
H1437 C1456 0.951 . S
H1438 C1458 0.950 . S
H1439 C1459 0.950 . S
H1440 C1461 0.950 . S
H1441 C1464 0.950 . S
H1442 C1465 0.950 . S
H1443 C1467 0.950 . S
H1444 C1468 0.950 . S
H1445 C1469 0.951 . S
H1446 C1471 0.951 . S
H1447 C1473 0.950 . S
H1448 C1474 0.950 . S
H1449 C1476 0.950 . S
H1450 C1479 0.950 . S
H1451 C1480 0.950 . S
H1452 C1482 0.950 1_556 S
H1453 C1483 0.950 . S
C1454 H1436 0.951 . S
C1454 C1455 1.366 . S
C1454 C1456 1.388 . S
C1455 C1454 1.366 . S
C1455 C1459 1.385 . S
C1456 H1437 0.951 . S
C1456 C1454 1.388 . S
C1456 C1457 1.366 . S
C1457 C1456 1.366 . S
C1457 C1458 1.414 . S
C1457 C1460 1.499 . S
C1458 H1438 0.950 . S
C1458 C1457 1.414 . S
C1458 C1459 1.374 . S
C1459 H1439 0.950 . S
C1459 C1455 1.385 . S
C1459 C1458 1.374 . S
C1460 C1457 1.499 . S
C1460 C1461 1.373 . S
C1460 C1462 1.389 . S
C1461 H1440 0.950 . S
C1461 C1460 1.373 . S
C1461 C1477 1.377 . S
C1462 C1460 1.389 . S
C1462 C1463 1.524 . S
C1462 C1476 1.377 . S
C1463 C1462 1.524 . S
C1463 C1464 1.397 . S
C1463 C1468 1.363 . S
C1464 H1441 0.950 . S
C1464 C1463 1.397 . S
C1464 C1465 1.334 . S
C1465 H1442 0.950 . S
C1465 C1464 1.334 . S
C1465 C1466 1.287 . S
C1466 C1465 1.287 . S
C1466 C1467 1.524 . S
C1466 H1485 0.913 . S
C1467 H1443 0.950 . S
C1467 C1466 1.524 . S
C1467 C1468 1.415 . S
C1468 H1444 0.950 . S
C1468 C1463 1.363 . S
C1468 C1467 1.415 . S
C1469 H1445 0.951 . S
C1469 C1470 1.366 . S
C1469 C1471 1.388 . S
C1470 C1469 1.366 . S
C1470 C1474 1.385 . S
C1471 H1446 0.951 . S
C1471 C1469 1.388 . S
C1471 C1472 1.366 . S
C1472 C1471 1.366 . S
C1472 C1473 1.414 . S
C1472 C1475 1.499 . S
C1473 H1447 0.950 . S
C1473 C1472 1.414 . S
C1473 C1474 1.374 . S
C1474 H1448 0.950 . S
C1474 C1470 1.385 . S
C1474 C1473 1.374 . S
C1475 C1472 1.499 . S
C1475 C1476 1.373 . S
C1475 C1477 1.389 . S
C1476 H1449 0.950 . S
C1476 C1462 1.377 . S
C1476 C1475 1.373 . S
C1477 C1461 1.377 . S
C1477 C1475 1.389 . S
C1477 C1478 1.524 . S
C1478 C1477 1.524 . S
C1478 C1479 1.397 . S
C1478 C1483 1.363 . S
C1479 H1450 0.950 . S
C1479 C1478 1.397 . S
C1479 C1480 1.334 . S
C1480 H1451 0.950 . S
C1480 C1479 1.334 . S
C1480 C1481 1.287 . S
C1481 C1480 1.287 . S
C1481 C1482 1.524 . S
C1481 H1484 0.999 . S
C1482 H1452 0.950 1_554 S
C1482 C1481 1.524 . S
C1482 C1483 1.415 . S
C1483 H1453 0.950 . S
C1483 C1478 1.363 . S
C1483 C1482 1.415 . S
H1484 C1481 0.999 . S
H1485 C1466 0.913 . S
H1486 C1504 0.951 . S
H1487 C1506 0.951 . S
H1488 C1508 0.950 . S
H1489 C1509 0.950 . S
H1490 C1511 0.950 . S
H1491 C1514 0.950 . S
H1492 C1515 0.950 . S
H1493 C1517 0.950 . S
H1494 C1518 0.950 . S
H1495 C1519 0.951 . S
H1496 C1521 0.951 . S
H1497 C1523 0.950 . S
H1498 C1524 0.950 1_545 S
H1499 C1526 0.950 . S
H1500 C1529 0.950 . S
H1501 C1530 0.950 . S
H1502 C1532 0.950 . S
H1503 C1533 0.950 . S
C1504 H1486 0.951 . S
C1504 C1505 1.366 . S
C1504 C1506 1.388 . S
C1505 C1504 1.366 . S
C1505 C1509 1.385 . S
C1506 H1487 0.951 . S
C1506 C1504 1.388 . S
C1506 C1507 1.366 . S
C1507 C1506 1.366 . S
C1507 C1508 1.414 . S
C1507 C1510 1.499 . S
C1508 H1488 0.950 . S
C1508 C1507 1.414 . S
C1508 C1509 1.374 . S
C1509 H1489 0.950 . S
C1509 C1505 1.385 . S
C1509 C1508 1.374 . S
C1510 C1507 1.499 . S
C1510 C1511 1.373 . S
C1510 C1512 1.389 . S
C1511 H1490 0.950 . S
C1511 C1510 1.373 . S
C1511 C1527 1.377 . S
C1512 C1510 1.389 . S
C1512 C1513 1.524 . S
C1512 C1526 1.377 . S
C1513 C1512 1.524 . S
C1513 C1514 1.397 . S
C1513 C1518 1.363 . S
C1514 H1491 0.950 . S
C1514 C1513 1.397 . S
C1514 C1515 1.334 . S
C1515 H1492 0.950 . S
C1515 C1514 1.334 . S
C1515 C1516 1.287 1_565 S
C1516 C1515 1.287 1_545 S
C1516 C1517 1.524 . S
C1516 H1535 0.913 . S
C1517 H1493 0.950 . S
C1517 C1516 1.524 . S
C1517 C1518 1.415 1_545 S
C1518 H1494 0.950 . S
C1518 C1513 1.363 . S
C1518 C1517 1.415 1_565 S
C1519 H1495 0.951 . S
C1519 C1520 1.366 . S
C1519 C1521 1.388 . S
C1520 C1519 1.366 . S
C1520 C1524 1.385 . S
C1521 H1496 0.951 . S
C1521 C1519 1.388 . S
C1521 C1522 1.366 . S
C1522 C1521 1.366 . S
C1522 C1523 1.414 . S
C1522 C1525 1.499 . S
C1523 H1497 0.950 . S
C1523 C1522 1.414 . S
C1523 C1524 1.374 . S
C1524 H1498 0.950 1_565 S
C1524 C1520 1.385 . S
C1524 C1523 1.374 . S
C1525 C1522 1.499 . S
C1525 C1526 1.373 . S
C1525 C1527 1.389 . S
C1526 H1499 0.950 . S
C1526 C1512 1.377 . S
C1526 C1525 1.373 . S
C1527 C1511 1.377 . S
C1527 C1525 1.389 . S
C1527 C1528 1.524 . S
C1528 C1527 1.524 . S
C1528 C1529 1.397 . S
C1528 C1533 1.363 . S
C1529 H1500 0.950 . S
C1529 C1528 1.397 . S
C1529 C1530 1.334 . S
C1530 H1501 0.950 . S
C1530 C1529 1.334 . S
C1530 C1531 1.287 . S
C1531 C1530 1.287 . S
C1531 C1532 1.524 . S
C1531 H1534 0.999 . S
C1532 H1502 0.950 . S
C1532 C1531 1.524 . S
C1532 C1533 1.415 . S
C1533 H1503 0.950 . S
C1533 C1528 1.363 . S
C1533 C1532 1.415 . S
H1534 C1531 0.999 . S
H1535 C1516 0.913 . S
H1536 C1554 0.951 1_545 S
H1537 C1556 0.951 . S
H1538 C1558 0.950 . S
H1539 C1559 0.950 . S
H1540 C1561 0.950 . S
H1541 C1564 0.950 . S
H1542 C1565 0.950 . S
H1543 C1567 0.950 1_545 S
H1544 C1568 0.950 . S
H1545 C1569 0.951 . S
H1546 C1571 0.951 . S
H1547 C1573 0.950 . S
H1548 C1574 0.950 . S
H1549 C1576 0.950 . S
H1550 C1579 0.950 . S
H1551 C1580 0.950 . S
H1552 C1582 0.950 . S
H1553 C1583 0.950 . S
C1554 H1536 0.951 1_565 S
C1554 C1555 1.366 . S
C1554 C1556 1.388 . S
C1555 C1554 1.366 . S
C1555 C1559 1.385 . S
C1556 H1537 0.951 . S
C1556 C1554 1.388 . S
C1556 C1557 1.366 . S
C1557 C1556 1.366 . S
C1557 C1558 1.414 . S
C1557 C1560 1.499 . S
C1558 H1538 0.950 . S
C1558 C1557 1.414 . S
C1558 C1559 1.374 . S
C1559 H1539 0.950 . S
C1559 C1555 1.385 . S
C1559 C1558 1.374 . S
C1560 C1557 1.499 . S
C1560 C1561 1.373 . S
C1560 C1562 1.389 . S
C1561 H1540 0.950 . S
C1561 C1560 1.373 . S
C1561 C1577 1.377 . S
C1562 C1560 1.389 . S
C1562 C1563 1.524 . S
C1562 C1576 1.377 . S
C1563 C1562 1.524 . S
C1563 C1564 1.397 . S
C1563 C1568 1.363 . S
C1564 H1541 0.950 . S
C1564 C1563 1.397 . S
C1564 C1565 1.334 . S
C1565 H1542 0.950 . S
C1565 C1564 1.334 . S
C1565 C1566 1.287 . S
C1566 C1565 1.287 . S
C1566 C1567 1.524 . S
C1566 H1585 0.913 . S
C1567 H1543 0.950 1_565 S
C1567 C1566 1.524 . S
C1567 C1568 1.415 . S
C1568 H1544 0.950 . S
C1568 C1563 1.363 . S
C1568 C1567 1.415 . S
C1569 H1545 0.951 . S
C1569 C1570 1.366 . S
C1569 C1571 1.388 . S
C1570 C1569 1.366 . S
C1570 C1574 1.385 . S
C1571 H1546 0.951 . S
C1571 C1569 1.388 . S
C1571 C1572 1.366 . S
C1572 C1571 1.366 . S
C1572 C1573 1.414 . S
C1572 C1575 1.499 . S
C1573 H1547 0.950 . S
C1573 C1572 1.414 . S
C1573 C1574 1.374 . S
C1574 H1548 0.950 . S
C1574 C1570 1.385 . S
C1574 C1573 1.374 . S
C1575 C1572 1.499 . S
C1575 C1576 1.373 . S
C1575 C1577 1.389 . S
C1576 H1549 0.950 . S
C1576 C1562 1.377 . S
C1576 C1575 1.373 . S
C1577 C1561 1.377 . S
C1577 C1575 1.389 . S
C1577 C1578 1.524 . S
C1578 C1577 1.524 . S
C1578 C1579 1.397 . S
C1578 C1583 1.363 . S
C1579 H1550 0.950 . S
C1579 C1578 1.397 . S
C1579 C1580 1.334 . S
C1580 H1551 0.950 . S
C1580 C1579 1.334 . S
C1580 C1581 1.287 . S
C1581 C1580 1.287 . S
C1581 C1582 1.524 . S
C1581 H1584 0.999 . S
C1582 H1552 0.950 . S
C1582 C1581 1.524 . S
C1582 C1583 1.415 . S
C1583 H1553 0.950 . S
C1583 C1578 1.363 . S
C1583 C1582 1.415 . S
H1584 C1581 0.999 . S
H1585 C1566 0.913 . S
H1586 C1604 0.951 . S
H1587 C1606 0.951 . S
H1588 C1608 0.950 . S
H1589 C1609 0.950 . S
H1590 C1611 0.950 . S
H1591 C1614 0.950 . S
H1592 C1615 0.950 . S
H1593 C1617 0.950 . S
H1594 C1618 0.950 . S
H1595 C1619 0.951 . S
H1596 C1621 0.951 . S
H1597 C1623 0.950 . S
H1598 C1624 0.950 . S
H1599 C1626 0.950 . S
H1600 C1629 0.950 . S
H1601 C1630 0.950 . S
H1602 C1632 0.950 . S
H1603 C1633 0.950 . S
C1604 H1586 0.951 . S
C1604 C1605 1.366 . S
C1604 C1606 1.388 . S
C1605 C1604 1.366 . S
C1605 C1609 1.385 . S
C1606 H1587 0.951 . S
C1606 C1604 1.388 . S
C1606 C1607 1.366 . S
C1607 C1606 1.366 . S
C1607 C1608 1.414 . S
C1607 C1610 1.499 . S
C1608 H1588 0.950 . S
C1608 C1607 1.414 . S
C1608 C1609 1.374 . S
C1609 H1589 0.950 . S
C1609 C1605 1.385 . S
C1609 C1608 1.374 . S
C1610 C1607 1.499 . S
C1610 C1611 1.373 . S
C1610 C1612 1.389 . S
C1611 H1590 0.950 . S
C1611 C1610 1.373 . S
C1611 C1627 1.377 . S
C1612 C1610 1.389 . S
C1612 C1613 1.524 . S
C1612 C1626 1.377 . S
C1613 C1612 1.524 . S
C1613 C1614 1.397 . S
C1613 C1618 1.363 . S
C1614 H1591 0.950 . S
C1614 C1613 1.397 . S
C1614 C1615 1.334 . S
C1615 H1592 0.950 . S
C1615 C1614 1.334 . S
C1615 C1616 1.287 . S
C1616 C1615 1.287 . S
C1616 C1617 1.524 . S
C1616 H1635 0.913 . S
C1617 H1593 0.950 . S
C1617 C1616 1.524 . S
C1617 C1618 1.415 . S
C1618 H1594 0.950 . S
C1618 C1613 1.363 . S
C1618 C1617 1.415 . S
C1619 H1595 0.951 . S
C1619 C1620 1.366 . S
C1619 C1621 1.388 . S
C1620 C1619 1.366 . S
C1620 C1624 1.385 . S
C1621 H1596 0.951 . S
C1621 C1619 1.388 . S
C1621 C1622 1.366 . S
C1622 C1621 1.366 . S
C1622 C1623 1.414 . S
C1622 C1625 1.499 . S
C1623 H1597 0.950 . S
C1623 C1622 1.414 . S
C1623 C1624 1.374 . S
C1624 H1598 0.950 . S
C1624 C1620 1.385 . S
C1624 C1623 1.374 . S
C1625 C1622 1.499 . S
C1625 C1626 1.373 . S
C1625 C1627 1.389 . S
C1626 H1599 0.950 . S
C1626 C1612 1.377 . S
C1626 C1625 1.373 . S
C1627 C1611 1.377 . S
C1627 C1625 1.389 . S
C1627 C1628 1.524 . S
C1628 C1627 1.524 . S
C1628 C1629 1.397 . S
C1628 C1633 1.363 . S
C1629 H1600 0.950 . S
C1629 C1628 1.397 . S
C1629 C1630 1.334 . S
C1630 H1601 0.950 . S
C1630 C1629 1.334 . S
C1630 C1631 1.287 . S
C1631 C1630 1.287 . S
C1631 C1632 1.524 . S
C1631 H1634 0.999 . S
C1632 H1602 0.950 . S
C1632 C1631 1.524 . S
C1632 C1633 1.415 . S
C1633 H1603 0.950 . S
C1633 C1628 1.363 . S
C1633 C1632 1.415 . S
H1634 C1631 0.999 . S
H1635 C1616 0.913 . S
H1636 C1654 0.951 . S
H1637 C1656 0.951 . S
H1638 C1658 0.950 . S
H1639 C1659 0.950 . S
H1640 C1661 0.950 . S
H1641 C1664 0.950 . S
H1642 C1665 0.950 1_565 S
H1643 C1667 0.950 . S
H1644 C1668 0.950 . S
H1645 C1669 0.951 . S
H1646 C1671 0.951 . S
H1647 C1673 0.950 . S
H1648 C1674 0.950 . S
H1649 C1676 0.950 . S
H1650 C1679 0.950 . S
H1651 C1680 0.950 . S
H1652 C1682 0.950 . S
H1653 C1683 0.950 . S
C1654 H1636 0.951 . S
C1654 C1655 1.366 . S
C1654 C1656 1.388 . S
C1655 C1654 1.366 . S
C1655 C1659 1.385 . S
C1656 H1637 0.951 . S
C1656 C1654 1.388 . S
C1656 C1657 1.366 . S
C1657 C1656 1.366 . S
C1657 C1658 1.414 . S
C1657 C1660 1.499 . S
C1658 H1638 0.950 . S
C1658 C1657 1.414 . S
C1658 C1659 1.374 . S
C1659 H1639 0.950 . S
C1659 C1655 1.385 . S
C1659 C1658 1.374 . S
C1660 C1657 1.499 . S
C1660 C1661 1.373 . S
C1660 C1662 1.389 . S
C1661 H1640 0.950 . S
C1661 C1660 1.373 . S
C1661 C1677 1.377 . S
C1662 C1660 1.389 . S
C1662 C1663 1.524 . S
C1662 C1676 1.377 . S
C1663 C1662 1.524 . S
C1663 C1664 1.397 . S
C1663 C1668 1.363 . S
C1664 H1641 0.950 . S
C1664 C1663 1.397 . S
C1664 C1665 1.334 . S
C1665 H1642 0.950 1_545 S
C1665 C1664 1.334 . S
C1665 C1666 1.287 . S
C1666 C1665 1.287 . S
C1666 C1667 1.524 . S
C1666 H1685 0.926 . S
C1667 H1643 0.950 . S
C1667 C1666 1.524 . S
C1667 C1668 1.415 . S
C1668 H1644 0.950 . S
C1668 C1663 1.363 . S
C1668 C1667 1.415 . S
C1669 H1645 0.951 . S
C1669 C1670 1.366 . S
C1669 C1671 1.388 . S
C1670 C1669 1.366 . S
C1670 C1674 1.385 . S
C1671 H1646 0.951 . S
C1671 C1669 1.388 . S
C1671 C1672 1.366 . S
C1672 C1671 1.366 . S
C1672 C1673 1.414 . S
C1672 C1675 1.499 . S
C1673 H1647 0.950 . S
C1673 C1672 1.414 . S
C1673 C1674 1.374 . S
C1674 H1648 0.950 . S
C1674 C1670 1.385 . S
C1674 C1673 1.374 . S
C1675 C1672 1.499 . S
C1675 C1676 1.373 . S
C1675 C1677 1.389 . S
C1676 H1649 0.950 . S
C1676 C1662 1.377 . S
C1676 C1675 1.373 . S
C1677 C1661 1.377 . S
C1677 C1675 1.389 . S
C1677 C1678 1.524 . S
C1678 C1677 1.524 . S
C1678 C1679 1.397 . S
C1678 C1683 1.363 . S
C1679 H1650 0.950 . S
C1679 C1678 1.397 . S
C1679 C1680 1.334 . S
C1680 H1651 0.950 . S
C1680 C1679 1.334 . S
C1680 C1681 1.287 . S
C1681 C1680 1.287 . S
C1681 C1682 1.524 . S
C1681 H1684 0.999 . S
C1682 H1652 0.950 . S
C1682 C1681 1.524 . S
C1682 C1683 1.415 . S
C1683 H1653 0.950 . S
C1683 C1678 1.363 . S
C1683 C1682 1.415 . S
H1684 C1681 0.999 . S
H1685 C1666 0.926 . S
H1686 C1704 0.951 . S
H1687 C1706 0.951 . S
H1688 C1708 0.950 . S
H1689 C1709 0.950 . S
H1690 C1711 0.950 . S
H1691 C1714 0.950 . S
H1692 C1715 0.950 . S
H1693 C1717 0.950 . S
H1694 C1718 0.950 . S
H1695 C1719 0.951 1_554 S
H1696 C1721 0.951 . S
H1697 C1723 0.950 . S
H1698 C1724 0.950 . S
H1699 C1726 0.950 . S
H1700 C1729 0.950 . S
H1701 C1730 0.950 . S
H1702 C1732 0.950 . S
H1703 C1733 0.950 . S
C1704 H1686 0.951 . S
C1704 C1705 1.366 . S
C1704 C1706 1.388 . S
C1705 C1704 1.366 . S
C1705 C1709 1.385 . S
C1706 H1687 0.951 . S
C1706 C1704 1.388 . S
C1706 C1707 1.366 . S
C1707 C1706 1.366 . S
C1707 C1708 1.414 . S
C1707 C1710 1.499 . S
C1708 H1688 0.950 . S
C1708 C1707 1.414 . S
C1708 C1709 1.374 . S
C1709 H1689 0.950 . S
C1709 C1705 1.385 . S
C1709 C1708 1.374 . S
C1710 C1707 1.499 . S
C1710 C1711 1.373 . S
C1710 C1712 1.389 . S
C1711 H1690 0.950 . S
C1711 C1710 1.373 . S
C1711 C1727 1.377 . S
C1712 C1710 1.389 . S
C1712 C1713 1.524 . S
C1712 C1726 1.377 . S
C1713 C1712 1.524 . S
C1713 C1714 1.397 . S
C1713 C1718 1.363 . S
C1714 H1691 0.950 . S
C1714 C1713 1.397 . S
C1714 C1715 1.334 . S
C1715 H1692 0.950 . S
C1715 C1714 1.334 . S
C1715 C1716 1.287 . S
C1716 C1715 1.287 . S
C1716 C1717 1.524 . S
C1716 H1735 0.913 . S
C1717 H1693 0.950 . S
C1717 C1716 1.524 . S
C1717 C1718 1.415 . S
C1718 H1694 0.950 . S
C1718 C1713 1.363 . S
C1718 C1717 1.415 . S
C1719 H1695 0.951 1_556 S
C1719 C1720 1.366 . S
C1719 C1721 1.388 . S
C1720 C1719 1.366 . S
C1720 C1724 1.385 . S
C1721 H1696 0.951 . S
C1721 C1719 1.388 . S
C1721 C1722 1.366 . S
C1722 C1721 1.366 . S
C1722 C1723 1.414 . S
C1722 C1725 1.499 . S
C1723 H1697 0.950 . S
C1723 C1722 1.414 . S
C1723 C1724 1.374 . S
C1724 H1698 0.950 . S
C1724 C1720 1.385 . S
C1724 C1723 1.374 . S
C1725 C1722 1.499 . S
C1725 C1726 1.373 . S
C1725 C1727 1.389 . S
C1726 H1699 0.950 . S
C1726 C1712 1.377 . S
C1726 C1725 1.373 . S
C1727 C1711 1.377 . S
C1727 C1725 1.389 . S
C1727 C1728 1.524 . S
C1728 C1727 1.524 . S
C1728 C1729 1.397 . S
C1728 C1733 1.363 . S
C1729 H1700 0.950 . S
C1729 C1728 1.397 . S
C1729 C1730 1.334 . S
C1730 H1701 0.950 . S
C1730 C1729 1.334 . S
C1730 C1731 1.287 . S
C1731 C1730 1.287 . S
C1731 C1732 1.524 . S
C1731 H1734 0.999 . S
C1732 H1702 0.950 . S
C1732 C1731 1.524 . S
C1732 C1733 1.415 . S
C1733 H1703 0.950 . S
C1733 C1728 1.363 . S
C1733 C1732 1.415 . S
H1734 C1731 0.999 . S
H1735 C1716 0.913 . S
H1736 C1754 0.951 . S
H1737 C1756 0.951 . S
H1738 C1758 0.950 . S
H1739 C1759 0.950 . S
H1740 C1761 0.950 . S
H1741 C1764 0.950 . S
H1742 C1765 0.950 . S
H1743 C1767 0.950 . S
H1744 C1768 0.950 . S
H1745 C1769 0.951 . S
H1746 C1771 0.951 . S
H1747 C1773 0.950 . S
H1748 C1774 0.950 . S
H1749 C1776 0.950 . S
H1750 C1779 0.950 . S
H1751 C1780 0.950 . S
H1752 C1782 0.950 . S
H1753 C1783 0.950 . S
C1754 H1736 0.951 . S
C1754 C1755 1.366 . S
C1754 C1756 1.388 . S
C1755 C1754 1.366 . S
C1755 C1759 1.385 . S
C1756 H1737 0.951 . S
C1756 C1754 1.388 . S
C1756 C1757 1.366 . S
C1757 C1756 1.366 . S
C1757 C1758 1.414 . S
C1757 C1760 1.499 . S
C1758 H1738 0.950 . S
C1758 C1757 1.414 . S
C1758 C1759 1.374 . S
C1759 H1739 0.950 . S
C1759 C1755 1.385 . S
C1759 C1758 1.374 . S
C1760 C1757 1.499 . S
C1760 C1761 1.373 . S
C1760 C1762 1.389 . S
C1761 H1740 0.950 . S
C1761 C1760 1.373 . S
C1761 C1777 1.377 . S
C1762 C1760 1.389 . S
C1762 C1763 1.524 . S
C1762 C1776 1.377 . S
C1763 C1762 1.524 . S
C1763 C1764 1.397 . S
C1763 C1768 1.363 . S
C1764 H1741 0.950 . S
C1764 C1763 1.397 . S
C1764 C1765 1.334 . S
C1765 H1742 0.950 . S
C1765 C1764 1.334 . S
C1765 C1766 1.287 . S
C1766 C1765 1.287 . S
C1766 C1767 1.524 . S
C1766 H1785 0.913 . S
C1767 H1743 0.950 . S
C1767 C1766 1.524 . S
C1767 C1768 1.415 . S
C1768 H1744 0.950 . S
C1768 C1763 1.363 . S
C1768 C1767 1.415 . S
C1769 H1745 0.951 . S
C1769 C1770 1.366 . S
C1769 C1771 1.388 . S
C1770 C1769 1.366 . S
C1770 C1774 1.385 . S
C1771 H1746 0.951 . S
C1771 C1769 1.388 . S
C1771 C1772 1.366 . S
C1772 C1771 1.366 . S
C1772 C1773 1.414 . S
C1772 C1775 1.499 . S
C1773 H1747 0.950 . S
C1773 C1772 1.414 . S
C1773 C1774 1.374 . S
C1774 H1748 0.950 . S
C1774 C1770 1.385 . S
C1774 C1773 1.374 . S
C1775 C1772 1.499 . S
C1775 C1776 1.373 . S
C1775 C1777 1.389 . S
C1776 H1749 0.950 . S
C1776 C1762 1.377 . S
C1776 C1775 1.373 . S
C1777 C1761 1.377 . S
C1777 C1775 1.389 . S
C1777 C1778 1.524 . S
C1778 C1777 1.524 . S
C1778 C1779 1.397 . S
C1778 C1783 1.363 . S
C1779 H1750 0.950 . S
C1779 C1778 1.397 . S
C1779 C1780 1.334 1_455 S
C1780 H1751 0.950 . S
C1780 C1779 1.334 1_655 S
C1780 C1781 1.287 . S
C1781 C1780 1.287 . S
C1781 C1782 1.524 . S
C1781 H1784 0.999 . S
C1782 H1752 0.950 . S
C1782 C1781 1.524 . S
C1782 C1783 1.415 1_655 S
C1783 H1753 0.950 . S
C1783 C1778 1.363 . S
C1783 C1782 1.415 1_455 S
H1784 C1781 0.999 . S
H1785 C1766 0.913 . S
H1786 C1804 0.951 . S
H1787 C1806 0.951 . S
H1788 C1808 0.950 . S
H1789 C1809 0.950 . S
H1790 C1811 0.950 . S
H1791 C1814 0.950 . S
H1792 C1815 0.950 . S
H1793 C1817 0.950 . S
H1794 C1818 0.950 . S
H1795 C1819 0.951 . S
H1796 C1821 0.951 . S
H1797 C1823 0.950 . S
H1798 C1824 0.950 . S
H1799 C1826 0.950 . S
H1800 C1829 0.950 . S
H1801 C1830 0.950 . S
H1802 C1832 0.950 . S
H1803 C1833 0.950 . S
C1804 H1786 0.951 . S
C1804 C1805 1.366 . S
C1804 C1806 1.388 . S
C1805 C1804 1.366 . S
C1805 C1809 1.385 . S
C1806 H1787 0.951 . S
C1806 C1804 1.388 . S
C1806 C1807 1.366 . S
C1807 C1806 1.366 . S
C1807 C1808 1.414 . S
C1807 C1810 1.499 . S
C1808 H1788 0.950 . S
C1808 C1807 1.414 . S
C1808 C1809 1.374 . S
C1809 H1789 0.950 . S
C1809 C1805 1.385 . S
C1809 C1808 1.374 . S
C1810 C1807 1.499 . S
C1810 C1811 1.373 . S
C1810 C1812 1.389 . S
C1811 H1790 0.950 . S
C1811 C1810 1.373 . S
C1811 C1827 1.377 . S
C1812 C1810 1.389 . S
C1812 C1813 1.524 . S
C1812 C1826 1.377 . S
C1813 C1812 1.524 . S
C1813 C1814 1.397 . S
C1813 C1818 1.363 . S
C1814 H1791 0.950 . S
C1814 C1813 1.397 . S
C1814 C1815 1.334 . S
C1815 H1792 0.950 . S
C1815 C1814 1.334 . S
C1815 C1816 1.287 . S
C1816 C1815 1.287 . S
C1816 C1817 1.524 . S
C1816 H1835 0.913 . S
C1817 H1793 0.950 . S
C1817 C1816 1.524 . S
C1817 C1818 1.415 . S
C1818 H1794 0.950 . S
C1818 C1813 1.363 . S
C1818 C1817 1.415 . S
C1819 H1795 0.951 . S
C1819 C1820 1.366 . S
C1819 C1821 1.388 . S
C1820 C1819 1.366 . S
C1820 C1824 1.385 . S
C1821 H1796 0.951 . S
C1821 C1819 1.388 . S
C1821 C1822 1.366 . S
C1822 C1821 1.366 . S
C1822 C1823 1.414 . S
C1822 C1825 1.499 . S
C1823 H1797 0.950 . S
C1823 C1822 1.414 . S
C1823 C1824 1.374 . S
C1824 H1798 0.950 . S
C1824 C1820 1.385 . S
C1824 C1823 1.374 . S
C1825 C1822 1.499 . S
C1825 C1826 1.373 . S
C1825 C1827 1.389 . S
C1826 H1799 0.950 . S
C1826 C1812 1.377 . S
C1826 C1825 1.373 . S
C1827 C1811 1.377 . S
C1827 C1825 1.389 . S
C1827 C1828 1.524 . S
C1828 C1827 1.524 . S
C1828 C1829 1.397 . S
C1828 C1833 1.363 . S
C1829 H1800 0.950 . S
C1829 C1828 1.397 . S
C1829 C1830 1.334 . S
C1830 H1801 0.950 . S
C1830 C1829 1.334 . S
C1830 C1831 1.287 . S
C1831 C1830 1.287 . S
C1831 C1832 1.524 . S
C1831 H1834 0.999 . S
C1832 H1802 0.950 . S
C1832 C1831 1.524 . S
C1832 C1833 1.415 . S
C1833 H1803 0.950 . S
C1833 C1828 1.363 . S
C1833 C1832 1.415 . S
H1834 C1831 0.999 . S
H1835 C1816 0.913 . S
H1836 C1854 0.951 . S
H1837 C1856 0.951 . S
H1838 C1858 0.950 . S
H1839 C1859 0.950 . S
H1840 C1861 0.950 . S
H1841 C1864 0.950 . S
H1842 C1865 0.950 . S
H1843 C1867 0.950 . S
H1844 C1868 0.950 . S
H1845 C1869 0.951 . S
H1846 C1871 0.951 . S
H1847 C1873 0.950 . S
H1848 C1874 0.950 . S
H1849 C1876 0.950 . S
H1850 C1879 0.950 . S
H1851 C1880 0.950 . S
H1852 C1882 0.950 . S
H1853 C1883 0.950 . S
C1854 H1836 0.951 . S
C1854 C1855 1.366 . S
C1854 C1856 1.388 . S
C1855 C1854 1.366 . S
C1855 C1859 1.385 . S
C1856 H1837 0.951 . S
C1856 C1854 1.388 . S
C1856 C1857 1.366 . S
C1857 C1856 1.366 . S
C1857 C1858 1.414 . S
C1857 C1860 1.499 . S
C1858 H1838 0.950 . S
C1858 C1857 1.414 . S
C1858 C1859 1.374 . S
C1859 H1839 0.950 . S
C1859 C1855 1.385 . S
C1859 C1858 1.374 . S
C1860 C1857 1.499 . S
C1860 C1861 1.373 . S
C1860 C1862 1.389 . S
C1861 H1840 0.950 . S
C1861 C1860 1.373 . S
C1861 C1877 1.377 . S
C1862 C1860 1.389 . S
C1862 C1863 1.524 . S
C1862 C1876 1.377 . S
C1863 C1862 1.524 . S
C1863 C1864 1.397 . S
C1863 C1868 1.363 . S
C1864 H1841 0.950 . S
C1864 C1863 1.397 . S
C1864 C1865 1.334 . S
C1865 H1842 0.950 . S
C1865 C1864 1.334 . S
C1865 C1866 1.287 . S
C1866 C1865 1.287 . S
C1866 C1867 1.524 . S
C1866 H1885 0.913 . S
C1867 H1843 0.950 . S
C1867 C1866 1.524 . S
C1867 C1868 1.415 . S
C1868 H1844 0.950 . S
C1868 C1863 1.363 . S
C1868 C1867 1.415 . S
C1869 H1845 0.951 . S
C1869 C1870 1.366 . S
C1869 C1871 1.388 . S
C1870 C1869 1.366 . S
C1870 C1874 1.385 . S
C1871 H1846 0.951 . S
C1871 C1869 1.388 . S
C1871 C1872 1.366 . S
C1872 C1871 1.366 . S
C1872 C1873 1.414 . S
C1872 C1875 1.499 . S
C1873 H1847 0.950 . S
C1873 C1872 1.414 . S
C1873 C1874 1.374 . S
C1874 H1848 0.950 . S
C1874 C1870 1.385 . S
C1874 C1873 1.374 . S
C1875 C1872 1.499 . S
C1875 C1876 1.373 . S
C1875 C1877 1.389 . S
C1876 H1849 0.950 . S
C1876 C1862 1.377 . S
C1876 C1875 1.373 . S
C1877 C1861 1.377 . S
C1877 C1875 1.389 . S
C1877 C1878 1.524 . S
C1878 C1877 1.524 . S
C1878 C1879 1.397 . S
C1878 C1883 1.363 . S
C1879 H1850 0.950 . S
C1879 C1878 1.397 . S
C1879 C1880 1.334 . S
C1880 H1851 0.950 . S
C1880 C1879 1.334 . S
C1880 C1881 1.287 . S
C1881 C1880 1.287 . S
C1881 C1882 1.524 . S
C1881 H1884 0.999 . S
C1882 H1852 0.950 . S
C1882 C1881 1.524 . S
C1882 C1883 1.415 . S
C1883 H1853 0.950 . S
C1883 C1878 1.363 . S
C1883 C1882 1.415 . S
H1884 C1881 0.999 . S
H1885 C1866 0.913 . S
H1886 C1904 0.951 . S
H1887 C1906 0.951 . S
H1888 C1908 0.950 . S
H1889 C1909 0.950 . S
H1890 C1911 0.950 . S
H1891 C1914 0.950 . S
H1892 C1915 0.950 . S
H1893 C1917 0.950 . S
H1894 C1918 0.950 . S
H1895 C1919 0.951 . S
H1896 C1921 0.951 . S
H1897 C1923 0.950 . S
H1898 C1924 0.950 . S
H1899 C1926 0.950 . S
H1900 C1929 0.950 . S
H1901 C1930 0.950 . S
H1902 C1932 0.950 . S
H1903 C1933 0.950 . S
C1904 H1886 0.951 . S
C1904 C1905 1.366 . S
C1904 C1906 1.388 . S
C1905 C1904 1.366 . S
C1905 C1909 1.385 . S
C1906 H1887 0.951 . S
C1906 C1904 1.388 . S
C1906 C1907 1.366 . S
C1907 C1906 1.366 . S
C1907 C1908 1.414 . S
C1907 C1910 1.499 . S
C1908 H1888 0.950 . S
C1908 C1907 1.414 . S
C1908 C1909 1.374 . S
C1909 H1889 0.950 . S
C1909 C1905 1.385 . S
C1909 C1908 1.374 . S
C1910 C1907 1.499 . S
C1910 C1911 1.373 . S
C1910 C1912 1.389 . S
C1911 H1890 0.950 . S
C1911 C1910 1.373 . S
C1911 C1927 1.377 . S
C1912 C1910 1.389 . S
C1912 C1913 1.524 . S
C1912 C1926 1.377 . S
C1913 C1912 1.524 . S
C1913 C1914 1.397 . S
C1913 C1918 1.363 . S
C1914 H1891 0.950 . S
C1914 C1913 1.397 . S
C1914 C1915 1.334 . S
C1915 H1892 0.950 . S
C1915 C1914 1.334 . S
C1915 C1916 1.287 . S
C1916 C1915 1.287 . S
C1916 C1917 1.524 . S
C1916 H1935 0.913 . S
C1917 H1893 0.950 . S
C1917 C1916 1.524 . S
C1917 C1918 1.415 . S
C1918 H1894 0.950 . S
C1918 C1913 1.363 . S
C1918 C1917 1.415 . S
C1919 H1895 0.951 . S
C1919 C1920 1.366 . S
C1919 C1921 1.388 . S
C1920 C1919 1.366 . S
C1920 C1924 1.385 . S
C1921 H1896 0.951 . S
C1921 C1919 1.388 . S
C1921 C1922 1.366 . S
C1922 C1921 1.366 . S
C1922 C1923 1.414 . S
C1922 C1925 1.499 . S
C1923 H1897 0.950 . S
C1923 C1922 1.414 . S
C1923 C1924 1.374 . S
C1924 H1898 0.950 . S
C1924 C1920 1.385 . S
C1924 C1923 1.374 . S
C1925 C1922 1.499 . S
C1925 C1926 1.373 . S
C1925 C1927 1.389 . S
C1926 H1899 0.950 . S
C1926 C1912 1.377 . S
C1926 C1925 1.373 . S
C1927 C1911 1.377 . S
C1927 C1925 1.389 . S
C1927 C1928 1.524 . S
C1928 C1927 1.524 . S
C1928 C1929 1.397 . S
C1928 C1933 1.363 . S
C1929 H1900 0.950 . S
C1929 C1928 1.397 . S
C1929 C1930 1.334 . S
C1930 H1901 0.950 . S
C1930 C1929 1.334 . S
C1930 C1931 1.287 . S
C1931 C1930 1.287 . S
C1931 C1932 1.524 . S
C1931 H1934 0.999 . S
C1932 H1902 0.950 . S
C1932 C1931 1.524 . S
C1932 C1933 1.415 . S
C1933 H1903 0.950 . S
C1933 C1928 1.363 . S
C1933 C1932 1.415 . S
H1934 C1931 0.999 . S
H1935 C1916 0.913 . S
H1936 C1954 0.951 . S
H1937 C1956 0.951 . S
H1938 C1958 0.950 . S
H1939 C1959 0.950 . S
H1940 C1961 0.950 . S
H1941 C1964 0.950 . S
H1942 C1965 0.950 . S
H1943 C1967 0.950 . S
H1944 C1968 0.950 . S
H1945 C1969 0.951 . S
H1946 C1971 0.951 . S
H1947 C1973 0.950 . S
H1948 C1974 0.950 . S
H1949 C1976 0.950 . S
H1950 C1979 0.950 . S
H1951 C1980 0.950 . S
H1952 C1982 0.950 . S
H1953 C1983 0.950 . S
C1954 H1936 0.951 . S
C1954 C1955 1.366 . S
C1954 C1956 1.388 . S
C1955 C1954 1.366 . S
C1955 C1959 1.385 . S
C1956 H1937 0.951 . S
C1956 C1954 1.388 . S
C1956 C1957 1.366 . S
C1957 C1956 1.366 . S
C1957 C1958 1.414 . S
C1957 C1960 1.499 . S
C1958 H1938 0.950 . S
C1958 C1957 1.414 . S
C1958 C1959 1.374 . S
C1959 H1939 0.950 . S
C1959 C1955 1.385 . S
C1959 C1958 1.374 . S
C1960 C1957 1.499 . S
C1960 C1961 1.373 . S
C1960 C1962 1.389 . S
C1961 H1940 0.950 . S
C1961 C1960 1.373 . S
C1961 C1977 1.377 . S
C1962 C1960 1.389 . S
C1962 C1963 1.524 . S
C1962 C1976 1.377 . S
C1963 C1962 1.524 . S
C1963 C1964 1.397 . S
C1963 C1968 1.363 . S
C1964 H1941 0.950 . S
C1964 C1963 1.397 . S
C1964 C1965 1.334 . S
C1965 H1942 0.950 . S
C1965 C1964 1.334 . S
C1965 C1966 1.287 . S
C1966 C1965 1.287 . S
C1966 C1967 1.524 . S
C1966 H1985 0.913 . S
C1967 H1943 0.950 . S
C1967 C1966 1.524 . S
C1967 C1968 1.415 . S
C1968 H1944 0.950 . S
C1968 C1963 1.363 . S
C1968 C1967 1.415 . S
C1969 H1945 0.951 . S
C1969 C1970 1.366 . S
C1969 C1971 1.388 . S
C1970 C1969 1.366 . S
C1970 C1974 1.385 . S
C1971 H1946 0.951 . S
C1971 C1969 1.388 . S
C1971 C1972 1.366 . S
C1972 C1971 1.366 . S
C1972 C1973 1.414 . S
C1972 C1975 1.499 . S
C1973 H1947 0.950 . S
C1973 C1972 1.414 . S
C1973 C1974 1.374 . S
C1974 H1948 0.950 . S
C1974 C1970 1.385 . S
C1974 C1973 1.374 . S
C1975 C1972 1.499 . S
C1975 C1976 1.373 . S
C1975 C1977 1.389 . S
C1976 H1949 0.950 . S
C1976 C1962 1.377 . S
C1976 C1975 1.373 . S
C1977 C1961 1.377 . S
C1977 C1975 1.389 . S
C1977 C1978 1.524 . S
C1978 C1977 1.524 . S
C1978 C1979 1.397 . S
C1978 C1983 1.363 . S
C1979 H1950 0.950 . S
C1979 C1978 1.397 . S
C1979 C1980 1.334 . S
C1980 H1951 0.950 . S
C1980 C1979 1.334 . S
C1980 C1981 1.287 . S
C1981 C1980 1.287 . S
C1981 C1982 1.524 . S
C1981 H1984 0.999 . S
C1982 H1952 0.950 . S
C1982 C1981 1.524 . S
C1982 C1983 1.415 . S
C1983 H1953 0.950 . S
C1983 C1978 1.363 . S
C1983 C1982 1.415 . S
H1984 C1981 0.999 . S
H1985 C1966 0.913 . S
H1986 C2004 0.951 . S
H1987 C2006 0.951 . S
H1988 C2008 0.950 . S
H1989 C2009 0.950 . S
H1990 C2011 0.950 . S
H1991 C2014 0.950 . S
H1992 C2015 0.950 . S
H1993 C2017 0.950 . S
H1994 C2018 0.950 . S
H1995 C2019 0.951 . S
H1996 C2021 0.951 . S
H1997 C2023 0.950 . S
H1998 C2024 0.950 . S
H1999 C2026 0.950 . S
H2000 C2029 0.950 . S
H2001 C2030 0.950 . S
H2002 C2032 0.950 1_554 S
H2003 C2033 0.950 . S
C2004 H1986 0.951 . S
C2004 C2005 1.366 . S
C2004 C2006 1.388 . S
C2005 C2004 1.366 . S
C2005 C2009 1.385 . S
C2006 H1987 0.951 . S
C2006 C2004 1.388 . S
C2006 C2007 1.366 . S
C2007 C2006 1.366 . S
C2007 C2008 1.414 . S
C2007 C2010 1.499 . S
C2008 H1988 0.950 . S
C2008 C2007 1.414 . S
C2008 C2009 1.374 . S
C2009 H1989 0.950 . S
C2009 C2005 1.385 . S
C2009 C2008 1.374 . S
C2010 C2007 1.499 . S
C2010 C2011 1.373 . S
C2010 C2012 1.389 . S
C2011 H1990 0.950 . S
C2011 C2010 1.373 . S
C2011 C2027 1.377 . S
C2012 C2010 1.389 . S
C2012 C2013 1.524 . S
C2012 C2026 1.377 . S
C2013 C2012 1.524 . S
C2013 C2014 1.397 . S
C2013 C2018 1.363 . S
C2014 H1991 0.950 . S
C2014 C2013 1.397 . S
C2014 C2015 1.334 . S
C2015 H1992 0.950 . S
C2015 C2014 1.334 . S
C2015 C2016 1.287 . S
C2016 C2015 1.287 . S
C2016 C2017 1.524 . S
C2016 H2035 0.913 . S
C2017 H1993 0.950 . S
C2017 C2016 1.524 . S
C2017 C2018 1.415 . S
C2018 H1994 0.950 . S
C2018 C2013 1.363 . S
C2018 C2017 1.415 . S
C2019 H1995 0.951 . S
C2019 C2020 1.366 . S
C2019 C2021 1.388 . S
C2020 C2019 1.366 . S
C2020 C2024 1.385 . S
C2021 H1996 0.951 . S
C2021 C2019 1.388 . S
C2021 C2022 1.366 . S
C2022 C2021 1.366 . S
C2022 C2023 1.414 . S
C2022 C2025 1.499 . S
C2023 H1997 0.950 . S
C2023 C2022 1.414 . S
C2023 C2024 1.374 . S
C2024 H1998 0.950 . S
C2024 C2020 1.385 . S
C2024 C2023 1.374 . S
C2025 C2022 1.499 . S
C2025 C2026 1.373 . S
C2025 C2027 1.389 . S
C2026 H1999 0.950 . S
C2026 C2012 1.377 . S
C2026 C2025 1.373 . S
C2027 C2011 1.377 . S
C2027 C2025 1.389 . S
C2027 C2028 1.524 . S
C2028 C2027 1.524 . S
C2028 C2029 1.397 . S
C2028 C2033 1.363 . S
C2029 H2000 0.950 . S
C2029 C2028 1.397 . S
C2029 C2030 1.334 . S
C2030 H2001 0.950 . S
C2030 C2029 1.334 . S
C2030 C2031 1.287 . S
C2031 C2030 1.287 . S
C2031 C2032 1.524 . S
C2031 H2034 0.999 . S
C2032 H2002 0.950 1_556 S
C2032 C2031 1.524 . S
C2032 C2033 1.415 . S
C2033 H2003 0.950 . S
C2033 C2028 1.363 . S
C2033 C2032 1.415 . S
H2034 C2031 0.999 . S
H2035 C2016 0.913 . S
H2036 C2054 0.951 . S
H2037 C2056 0.951 . S
H2038 C2058 0.950 . S
H2039 C2059 0.950 . S
H2040 C2061 0.950 . S
H2041 C2064 0.950 . S
H2042 C2065 0.950 . S
H2043 C2067 0.950 . S
H2044 C2068 0.950 . S
H2045 C2069 0.951 . S
H2046 C2071 0.951 . S
H2047 C2073 0.950 . S
H2048 C2074 0.950 . S
H2049 C2076 0.950 . S
H2050 C2079 0.950 . S
H2051 C2080 0.950 . S
H2052 C2082 0.950 . S
H2053 C2083 0.950 . S
C2054 H2036 0.951 . S
C2054 C2055 1.366 . S
C2054 C2056 1.388 . S
C2055 C2054 1.366 . S
C2055 C2059 1.385 . S
C2056 H2037 0.951 . S
C2056 C2054 1.388 . S
C2056 C2057 1.366 . S
C2057 C2056 1.366 . S
C2057 C2058 1.414 . S
C2057 C2060 1.499 . S
C2058 H2038 0.950 . S
C2058 C2057 1.414 . S
C2058 C2059 1.374 . S
C2059 H2039 0.950 . S
C2059 C2055 1.385 . S
C2059 C2058 1.374 . S
C2060 C2057 1.499 . S
C2060 C2061 1.373 . S
C2060 C2062 1.389 . S
C2061 H2040 0.950 . S
C2061 C2060 1.373 . S
C2061 C2077 1.377 . S
C2062 C2060 1.389 . S
C2062 C2063 1.524 . S
C2062 C2076 1.377 . S
C2063 C2062 1.524 . S
C2063 C2064 1.397 . S
C2063 C2068 1.363 . S
C2064 H2041 0.950 . S
C2064 C2063 1.397 . S
C2064 C2065 1.334 . S
C2065 H2042 0.950 . S
C2065 C2064 1.334 . S
C2065 C2066 1.287 . S
C2066 C2065 1.287 . S
C2066 C2067 1.524 . S
C2066 H2085 0.913 . S
C2067 H2043 0.950 . S
C2067 C2066 1.524 . S
C2067 C2068 1.415 . S
C2068 H2044 0.950 . S
C2068 C2063 1.363 . S
C2068 C2067 1.415 . S
C2069 H2045 0.951 . S
C2069 C2070 1.366 . S
C2069 C2071 1.388 . S
C2070 C2069 1.366 . S
C2070 C2074 1.385 . S
C2071 H2046 0.951 . S
C2071 C2069 1.388 . S
C2071 C2072 1.366 . S
C2072 C2071 1.366 . S
C2072 C2073 1.414 . S
C2072 C2075 1.499 . S
C2073 H2047 0.950 . S
C2073 C2072 1.414 . S
C2073 C2074 1.374 . S
C2074 H2048 0.950 . S
C2074 C2070 1.385 . S
C2074 C2073 1.374 . S
C2075 C2072 1.499 . S
C2075 C2076 1.373 . S
C2075 C2077 1.389 . S
C2076 H2049 0.950 . S
C2076 C2062 1.377 . S
C2076 C2075 1.373 . S
C2077 C2061 1.377 . S
C2077 C2075 1.389 . S
C2077 C2078 1.524 . S
C2078 C2077 1.524 . S
C2078 C2079 1.397 . S
C2078 C2083 1.363 . S
C2079 H2050 0.950 . S
C2079 C2078 1.397 . S
C2079 C2080 1.334 . S
C2080 H2051 0.950 . S
C2080 C2079 1.334 . S
C2080 C2081 1.287 . S
C2081 C2080 1.287 . S
C2081 C2082 1.524 . S
C2081 H2084 0.999 . S
C2082 H2052 0.950 . S
C2082 C2081 1.524 . S
C2082 C2083 1.415 . S
C2083 H2053 0.950 . S
C2083 C2078 1.363 . S
C2083 C2082 1.415 . S
H2084 C2081 0.999 . S
H2085 C2066 0.913 . S
H2086 C2104 0.951 . S
H2087 C2106 0.951 . S
H2088 C2108 0.950 . S
H2089 C2109 0.950 . S
H2090 C2111 0.950 . S
H2091 C2114 0.950 . S
H2092 C2115 0.950 . S
H2093 C2117 0.950 . S
H2094 C2118 0.950 . S
H2095 C2119 0.951 . S
H2096 C2121 0.951 . S
H2097 C2123 0.950 . S
H2098 C2124 0.950 . S
H2099 C2126 0.950 . S
H2100 C2129 0.950 . S
H2101 C2130 0.950 . S
H2102 C2132 0.950 . S
H2103 C2133 0.950 . S
C2104 H2086 0.951 . S
C2104 C2105 1.366 . S
C2104 C2106 1.388 . S
C2105 C2104 1.366 . S
C2105 C2109 1.385 . S
C2106 H2087 0.951 . S
C2106 C2104 1.388 . S
C2106 C2107 1.366 . S
C2107 C2106 1.366 . S
C2107 C2108 1.414 . S
C2107 C2110 1.499 . S
C2108 H2088 0.950 . S
C2108 C2107 1.414 . S
C2108 C2109 1.374 . S
C2109 H2089 0.950 . S
C2109 C2105 1.385 . S
C2109 C2108 1.374 . S
C2110 C2107 1.499 . S
C2110 C2111 1.373 . S
C2110 C2112 1.389 . S
C2111 H2090 0.950 . S
C2111 C2110 1.373 . S
C2111 C2127 1.377 . S
C2112 C2110 1.389 . S
C2112 C2113 1.524 . S
C2112 C2126 1.377 . S
C2113 C2112 1.524 . S
C2113 C2114 1.397 . S
C2113 C2118 1.363 . S
C2114 H2091 0.950 . S
C2114 C2113 1.397 . S
C2114 C2115 1.334 . S
C2115 H2092 0.950 . S
C2115 C2114 1.334 . S
C2115 C2116 1.287 . S
C2116 C2115 1.287 . S
C2116 C2117 1.524 . S
C2116 H2135 0.913 . S
C2117 H2093 0.950 . S
C2117 C2116 1.524 . S
C2117 C2118 1.415 . S
C2118 H2094 0.950 . S
C2118 C2113 1.363 . S
C2118 C2117 1.415 . S
C2119 H2095 0.951 . S
C2119 C2120 1.366 . S
C2119 C2121 1.388 . S
C2120 C2119 1.366 . S
C2120 C2124 1.385 . S
C2121 H2096 0.951 . S
C2121 C2119 1.388 . S
C2121 C2122 1.366 . S
C2122 C2121 1.366 . S
C2122 C2123 1.414 . S
C2122 C2125 1.499 . S
C2123 H2097 0.950 . S
C2123 C2122 1.414 . S
C2123 C2124 1.374 . S
C2124 H2098 0.950 . S
C2124 C2120 1.385 . S
C2124 C2123 1.374 . S
C2125 C2122 1.499 . S
C2125 C2126 1.373 . S
C2125 C2127 1.389 . S
C2126 H2099 0.950 . S
C2126 C2112 1.377 . S
C2126 C2125 1.373 . S
C2127 C2111 1.377 . S
C2127 C2125 1.389 . S
C2127 C2128 1.524 . S
C2128 C2127 1.524 . S
C2128 C2129 1.397 . S
C2128 C2133 1.363 . S
C2129 H2100 0.950 . S
C2129 C2128 1.397 . S
C2129 C2130 1.334 . S
C2130 H2101 0.950 . S
C2130 C2129 1.334 . S
C2130 C2131 1.287 . S
C2131 C2130 1.287 . S
C2131 C2132 1.524 . S
C2131 H2134 0.999 . S
C2132 H2102 0.950 . S
C2132 C2131 1.524 . S
C2132 C2133 1.415 . S
C2133 H2103 0.950 . S
C2133 C2128 1.363 . S
C2133 C2132 1.415 . S
H2134 C2131 0.999 . S
H2135 C2116 0.913 . S
H2136 C2154 0.951 . S
H2137 C2156 0.951 . S
H2138 C2158 0.950 . S
H2139 C2159 0.950 . S
H2140 C2161 0.950 . S
H2141 C2164 0.950 . S
H2142 C2165 0.950 . S
H2143 C2167 0.950 . S
H2144 C2168 0.950 . S
H2145 C2169 0.951 . S
H2146 C2171 0.951 . S
H2147 C2173 0.950 . S
H2148 C2174 0.950 . S
H2149 C2176 0.950 . S
H2150 C2179 0.950 . S
H2151 C2180 0.950 . S
H2152 C2182 0.950 . S
H2153 C2183 0.950 . S
C2154 H2136 0.951 . S
C2154 C2155 1.366 . S
C2154 C2156 1.388 . S
C2155 C2154 1.366 . S
C2155 C2159 1.385 . S
C2156 H2137 0.951 . S
C2156 C2154 1.388 . S
C2156 C2157 1.366 . S
C2157 C2156 1.366 . S
C2157 C2158 1.414 . S
C2157 C2160 1.499 . S
C2158 H2138 0.950 . S
C2158 C2157 1.414 . S
C2158 C2159 1.374 . S
C2159 H2139 0.950 . S
C2159 C2155 1.385 . S
C2159 C2158 1.374 . S
C2160 C2157 1.499 . S
C2160 C2161 1.373 . S
C2160 C2162 1.389 . S
C2161 H2140 0.950 . S
C2161 C2160 1.373 . S
C2161 C2177 1.377 . S
C2162 C2160 1.389 . S
C2162 C2163 1.524 . S
C2162 C2176 1.377 . S
C2163 C2162 1.524 . S
C2163 C2164 1.397 . S
C2163 C2168 1.363 . S
C2164 H2141 0.950 . S
C2164 C2163 1.397 . S
C2164 C2165 1.334 . S
C2165 H2142 0.950 . S
C2165 C2164 1.334 . S
C2165 C2166 1.287 . S
C2166 C2165 1.287 . S
C2166 C2167 1.524 . S
C2166 H2185 0.913 . S
C2167 H2143 0.950 . S
C2167 C2166 1.524 . S
C2167 C2168 1.415 . S
C2168 H2144 0.950 . S
C2168 C2163 1.363 . S
C2168 C2167 1.415 . S
C2169 H2145 0.951 . S
C2169 C2170 1.366 . S
C2169 C2171 1.388 . S
C2170 C2169 1.366 . S
C2170 C2174 1.385 . S
C2171 H2146 0.951 . S
C2171 C2169 1.388 . S
C2171 C2172 1.366 . S
C2172 C2171 1.366 . S
C2172 C2173 1.414 . S
C2172 C2175 1.499 . S
C2173 H2147 0.950 . S
C2173 C2172 1.414 . S
C2173 C2174 1.374 . S
C2174 H2148 0.950 . S
C2174 C2170 1.385 . S
C2174 C2173 1.374 . S
C2175 C2172 1.499 . S
C2175 C2176 1.373 . S
C2175 C2177 1.389 . S
C2176 H2149 0.950 . S
C2176 C2162 1.377 . S
C2176 C2175 1.373 . S
C2177 C2161 1.377 . S
C2177 C2175 1.389 . S
C2177 C2178 1.524 . S
C2178 C2177 1.524 . S
C2178 C2179 1.397 . S
C2178 C2183 1.363 . S
C2179 H2150 0.950 . S
C2179 C2178 1.397 . S
C2179 C2180 1.334 . S
C2180 H2151 0.950 . S
C2180 C2179 1.334 . S
C2180 C2181 1.287 . S
C2181 C2180 1.287 . S
C2181 C2182 1.524 . S
C2181 H2184 0.999 . S
C2182 H2152 0.950 . S
C2182 C2181 1.524 . S
C2182 C2183 1.415 . S
C2183 H2153 0.950 . S
C2183 C2178 1.363 . S
C2183 C2182 1.415 . S
H2184 C2181 0.999 . S
H2185 C2166 0.913 . S
H2186 C2204 0.951 . S
H2187 C2206 0.951 . S
H2188 C2208 0.950 . S
H2189 C2209 0.950 . S
H2190 C2211 0.950 . S
H2191 C2214 0.950 . S
H2192 C2215 0.950 . S
H2193 C2217 0.950 . S
H2194 C2218 0.950 . S
H2195 C2219 0.951 . S
H2196 C2221 0.951 . S
H2197 C2223 0.950 . S
H2198 C2224 0.950 . S
H2199 C2226 0.950 . S
H2200 C2229 0.950 . S
H2201 C2230 0.950 . S
H2202 C2232 0.950 . S
H2203 C2233 0.950 . S
C2204 H2186 0.951 . S
C2204 C2205 1.366 . S
C2204 C2206 1.388 . S
C2205 C2204 1.366 . S
C2205 C2209 1.385 . S
C2206 H2187 0.951 . S
C2206 C2204 1.388 . S
C2206 C2207 1.366 . S
C2207 C2206 1.366 . S
C2207 C2208 1.414 . S
C2207 C2210 1.499 . S
C2208 H2188 0.950 . S
C2208 C2207 1.414 . S
C2208 C2209 1.374 . S
C2209 H2189 0.950 . S
C2209 C2205 1.385 . S
C2209 C2208 1.374 . S
C2210 C2207 1.499 . S
C2210 C2211 1.373 . S
C2210 C2212 1.389 . S
C2211 H2190 0.950 . S
C2211 C2210 1.373 . S
C2211 C2227 1.377 . S
C2212 C2210 1.389 . S
C2212 C2213 1.524 . S
C2212 C2226 1.377 . S
C2213 C2212 1.524 . S
C2213 C2214 1.397 . S
C2213 C2218 1.363 . S
C2214 H2191 0.950 . S
C2214 C2213 1.397 . S
C2214 C2215 1.334 . S
C2215 H2192 0.950 . S
C2215 C2214 1.334 . S
C2215 C2216 1.287 . S
C2216 C2215 1.287 . S
C2216 C2217 1.524 . S
C2216 H2235 0.913 . S
C2217 H2193 0.950 . S
C2217 C2216 1.524 . S
C2217 C2218 1.415 . S
C2218 H2194 0.950 . S
C2218 C2213 1.363 . S
C2218 C2217 1.415 . S
C2219 H2195 0.951 . S
C2219 C2220 1.366 . S
C2219 C2221 1.388 . S
C2220 C2219 1.366 . S
C2220 C2224 1.385 . S
C2221 H2196 0.951 . S
C2221 C2219 1.388 . S
C2221 C2222 1.366 . S
C2222 C2221 1.366 . S
C2222 C2223 1.414 . S
C2222 C2225 1.499 . S
C2223 H2197 0.950 . S
C2223 C2222 1.414 . S
C2223 C2224 1.374 . S
C2224 H2198 0.950 . S
C2224 C2220 1.385 . S
C2224 C2223 1.374 . S
C2225 C2222 1.499 . S
C2225 C2226 1.373 . S
C2225 C2227 1.389 . S
C2226 H2199 0.950 . S
C2226 C2212 1.377 . S
C2226 C2225 1.373 . S
C2227 C2211 1.377 . S
C2227 C2225 1.389 . S
C2227 C2228 1.524 . S
C2228 C2227 1.524 . S
C2228 C2229 1.397 . S
C2228 C2233 1.363 . S
C2229 H2200 0.950 . S
C2229 C2228 1.397 . S
C2229 C2230 1.334 . S
C2230 H2201 0.950 . S
C2230 C2229 1.334 . S
C2230 C2231 1.287 . S
C2231 C2230 1.287 . S
C2231 C2232 1.524 . S
C2231 H2234 0.999 . S
C2232 H2202 0.950 . S
C2232 C2231 1.524 . S
C2232 C2233 1.415 . S
C2233 H2203 0.950 . S
C2233 C2228 1.363 . S
C2233 C2232 1.415 . S
H2234 C2231 0.999 . S
H2235 C2216 0.913 . S
H2236 C2254 0.951 . S
H2237 C2256 0.951 . S
H2238 C2258 0.950 . S
H2239 C2259 0.950 . S
H2240 C2261 0.950 . S
H2241 C2264 0.950 . S
H2242 C2265 0.950 . S
H2243 C2267 0.950 . S
H2244 C2268 0.950 . S
H2245 C2269 0.951 . S
H2246 C2271 0.951 . S
H2247 C2273 0.950 . S
H2248 C2274 0.950 . S
H2249 C2276 0.950 . S
H2250 C2279 0.950 . S
H2251 C2280 0.950 . S
H2252 C2282 0.950 . S
H2253 C2283 0.950 . S
C2254 H2236 0.951 . S
C2254 C2255 1.366 . S
C2254 C2256 1.388 . S
C2255 C2254 1.366 . S
C2255 C2259 1.385 . S
C2256 H2237 0.951 . S
C2256 C2254 1.388 . S
C2256 C2257 1.366 . S
C2257 C2256 1.366 . S
C2257 C2258 1.414 . S
C2257 C2260 1.499 . S
C2258 H2238 0.950 . S
C2258 C2257 1.414 . S
C2258 C2259 1.374 . S
C2259 H2239 0.950 . S
C2259 C2255 1.385 . S
C2259 C2258 1.374 . S
C2260 C2257 1.499 . S
C2260 C2261 1.373 . S
C2260 C2262 1.389 . S
C2261 H2240 0.950 . S
C2261 C2260 1.373 . S
C2261 C2277 1.377 . S
C2262 C2260 1.389 . S
C2262 C2263 1.524 . S
C2262 C2276 1.377 . S
C2263 C2262 1.524 . S
C2263 C2264 1.397 . S
C2263 C2268 1.363 . S
C2264 H2241 0.950 . S
C2264 C2263 1.397 . S
C2264 C2265 1.334 . S
C2265 H2242 0.950 . S
C2265 C2264 1.334 . S
C2265 C2266 1.287 . S
C2266 C2265 1.287 . S
C2266 C2267 1.524 . S
C2266 H2285 0.913 . S
C2267 H2243 0.950 . S
C2267 C2266 1.524 . S
C2267 C2268 1.415 . S
C2268 H2244 0.950 . S
C2268 C2263 1.363 . S
C2268 C2267 1.415 . S
C2269 H2245 0.951 . S
C2269 C2270 1.366 . S
C2269 C2271 1.388 . S
C2270 C2269 1.366 . S
C2270 C2274 1.385 . S
C2271 H2246 0.951 . S
C2271 C2269 1.388 . S
C2271 C2272 1.366 . S
C2272 C2271 1.366 . S
C2272 C2273 1.414 . S
C2272 C2275 1.499 . S
C2273 H2247 0.950 . S
C2273 C2272 1.414 . S
C2273 C2274 1.374 . S
C2274 H2248 0.950 . S
C2274 C2270 1.385 . S
C2274 C2273 1.374 . S
C2275 C2272 1.499 . S
C2275 C2276 1.373 . S
C2275 C2277 1.389 . S
C2276 H2249 0.950 . S
C2276 C2262 1.377 . S
C2276 C2275 1.373 . S
C2277 C2261 1.377 . S
C2277 C2275 1.389 . S
C2277 C2278 1.524 . S
C2278 C2277 1.524 . S
C2278 C2279 1.397 . S
C2278 C2283 1.363 . S
C2279 H2250 0.950 . S
C2279 C2278 1.397 . S
C2279 C2280 1.334 . S
C2280 H2251 0.950 . S
C2280 C2279 1.334 . S
C2280 C2281 1.287 . S
C2281 C2280 1.287 . S
C2281 C2282 1.524 . S
C2281 H2284 0.999 . S
C2282 H2252 0.950 . S
C2282 C2281 1.524 . S
C2282 C2283 1.415 . S
C2283 H2253 0.950 . S
C2283 C2278 1.363 . S
C2283 C2282 1.415 . S
H2284 C2281 0.999 . S
H2285 C2266 0.913 . S
H2286 C2304 0.951 . S
H2287 C2306 0.951 . S
H2288 C2308 0.950 . S
H2289 C2309 0.950 . S
H2290 C2311 0.950 . S
H2291 C2314 0.950 . S
H2292 C2315 0.950 . S
H2293 C2317 0.950 . S
H2294 C2318 0.950 . S
H2295 C2319 0.951 . S
H2296 C2321 0.951 . S
H2297 C2323 0.950 . S
H2298 C2324 0.950 . S
H2299 C2326 0.950 . S
H2300 C2329 0.950 . S
H2301 C2330 0.950 . S
H2302 C2332 0.950 . S
H2303 C2333 0.950 . S
C2304 H2286 0.951 . S
C2304 C2305 1.366 . S
C2304 C2306 1.388 . S
C2305 C2304 1.366 . S
C2305 C2309 1.385 . S
C2306 H2287 0.951 . S
C2306 C2304 1.388 . S
C2306 C2307 1.366 . S
C2307 C2306 1.366 . S
C2307 C2308 1.414 . S
C2307 C2310 1.499 . S
C2308 H2288 0.950 . S
C2308 C2307 1.414 . S
C2308 C2309 1.374 . S
C2309 H2289 0.950 . S
C2309 C2305 1.385 . S
C2309 C2308 1.374 . S
C2310 C2307 1.499 . S
C2310 C2311 1.373 . S
C2310 C2312 1.389 . S
C2311 H2290 0.950 . S
C2311 C2310 1.373 . S
C2311 C2327 1.377 . S
C2312 C2310 1.389 . S
C2312 C2313 1.524 . S
C2312 C2326 1.377 . S
C2313 C2312 1.524 . S
C2313 C2314 1.397 . S
C2313 C2318 1.363 . S
C2314 H2291 0.950 . S
C2314 C2313 1.397 . S
C2314 C2315 1.334 . S
C2315 H2292 0.950 . S
C2315 C2314 1.334 . S
C2315 C2316 1.287 . S
C2316 C2315 1.287 . S
C2316 C2317 1.524 . S
C2316 H2335 0.913 . S
C2317 H2293 0.950 . S
C2317 C2316 1.524 . S
C2317 C2318 1.415 . S
C2318 H2294 0.950 . S
C2318 C2313 1.363 . S
C2318 C2317 1.415 . S
C2319 H2295 0.951 . S
C2319 C2320 1.366 . S
C2319 C2321 1.388 . S
C2320 C2319 1.366 . S
C2320 C2324 1.385 . S
C2321 H2296 0.951 . S
C2321 C2319 1.388 . S
C2321 C2322 1.366 . S
C2322 C2321 1.366 . S
C2322 C2323 1.414 . S
C2322 C2325 1.499 . S
C2323 H2297 0.950 . S
C2323 C2322 1.414 . S
C2323 C2324 1.374 . S
C2324 H2298 0.950 . S
C2324 C2320 1.385 . S
C2324 C2323 1.374 . S
C2325 C2322 1.499 . S
C2325 C2326 1.373 . S
C2325 C2327 1.389 . S
C2326 H2299 0.950 . S
C2326 C2312 1.377 . S
C2326 C2325 1.373 . S
C2327 C2311 1.377 . S
C2327 C2325 1.389 . S
C2327 C2328 1.524 . S
C2328 C2327 1.524 . S
C2328 C2329 1.397 . S
C2328 C2333 1.363 . S
C2329 H2300 0.950 . S
C2329 C2328 1.397 . S
C2329 C2330 1.334 . S
C2330 H2301 0.950 . S
C2330 C2329 1.334 . S
C2330 C2331 1.287 . S
C2331 C2330 1.287 . S
C2331 C2332 1.524 . S
C2331 H2334 0.999 . S
C2332 H2302 0.950 . S
C2332 C2331 1.524 . S
C2332 C2333 1.415 . S
C2333 H2303 0.950 . S
C2333 C2328 1.363 . S
C2333 C2332 1.415 . S
H2334 C2331 0.999 . S
H2335 C2316 0.913 . S
H2336 C2354 0.951 . S
H2337 C2356 0.951 . S
H2338 C2358 0.950 . S
H2339 C2359 0.950 . S
H2340 C2361 0.950 . S
H2341 C2364 0.950 . S
H2342 C2365 0.950 1_655 S
H2343 C2367 0.950 1_655 S
H2344 C2368 0.950 . S
H2345 C2369 0.951 . S
H2346 C2371 0.951 . S
H2347 C2373 0.950 . S
H2348 C2374 0.950 . S
H2349 C2376 0.950 . S
H2350 C2379 0.950 . S
H2351 C2380 0.950 . S
H2352 C2382 0.950 . S
H2353 C2383 0.950 . S
C2354 H2336 0.951 . S
C2354 C2355 1.366 . S
C2354 C2356 1.388 . S
C2355 C2354 1.366 . S
C2355 C2359 1.385 . S
C2356 H2337 0.951 . S
C2356 C2354 1.388 . S
C2356 C2357 1.366 . S
C2357 C2356 1.366 . S
C2357 C2358 1.414 . S
C2357 C2360 1.499 . S
C2358 H2338 0.950 . S
C2358 C2357 1.414 . S
C2358 C2359 1.374 . S
C2359 H2339 0.950 . S
C2359 C2355 1.385 . S
C2359 C2358 1.374 . S
C2360 C2357 1.499 . S
C2360 C2361 1.373 . S
C2360 C2362 1.389 . S
C2361 H2340 0.950 . S
C2361 C2360 1.373 . S
C2361 C2377 1.377 . S
C2362 C2360 1.389 . S
C2362 C2363 1.524 . S
C2362 C2376 1.377 . S
C2363 C2362 1.524 . S
C2363 C2364 1.397 . S
C2363 C2368 1.363 . S
C2364 H2341 0.950 . S
C2364 C2363 1.397 . S
C2364 C2365 1.334 . S
C2365 H2342 0.950 1_455 S
C2365 C2364 1.334 . S
C2365 C2366 1.287 1_455 S
C2366 C2365 1.287 1_655 S
C2366 C2367 1.524 1_655 S
C2366 H2385 0.913 . S
C2367 H2343 0.950 1_455 S
C2367 C2366 1.524 1_455 S
C2367 C2368 1.415 . S
C2368 H2344 0.950 . S
C2368 C2363 1.363 . S
C2368 C2367 1.415 . S
C2369 H2345 0.951 . S
C2369 C2370 1.366 . S
C2369 C2371 1.388 . S
C2370 C2369 1.366 . S
C2370 C2374 1.385 . S
C2371 H2346 0.951 . S
C2371 C2369 1.388 . S
C2371 C2372 1.366 . S
C2372 C2371 1.366 . S
C2372 C2373 1.414 . S
C2372 C2375 1.499 . S
C2373 H2347 0.950 . S
C2373 C2372 1.414 . S
C2373 C2374 1.374 . S
C2374 H2348 0.950 . S
C2374 C2370 1.385 . S
C2374 C2373 1.374 . S
C2375 C2372 1.499 . S
C2375 C2376 1.373 . S
C2375 C2377 1.389 . S
C2376 H2349 0.950 . S
C2376 C2362 1.377 . S
C2376 C2375 1.373 . S
C2377 C2361 1.377 . S
C2377 C2375 1.389 . S
C2377 C2378 1.524 . S
C2378 C2377 1.524 . S
C2378 C2379 1.397 . S
C2378 C2383 1.363 . S
C2379 H2350 0.950 . S
C2379 C2378 1.397 . S
C2379 C2380 1.334 . S
C2380 H2351 0.950 . S
C2380 C2379 1.334 . S
C2380 C2381 1.287 . S
C2381 C2380 1.287 . S
C2381 C2382 1.524 . S
C2381 H2384 0.999 . S
C2382 H2352 0.950 . S
C2382 C2381 1.524 . S
C2382 C2383 1.415 . S
C2383 H2353 0.950 . S
C2383 C2378 1.363 . S
C2383 C2382 1.415 . S
H2384 C2381 0.999 . S
H2385 C2366 0.913 . S
H2386 C2404 0.951 . S
H2387 C2406 0.951 . S
H2388 C2408 0.950 . S
H2389 C2409 0.950 . S
H2390 C2411 0.950 . S
H2391 C2414 0.950 . S
H2392 C2415 0.950 . S
H2393 C2417 0.950 . S
H2394 C2418 0.950 . S
H2395 C2419 0.951 . S
H2396 C2421 0.951 . S
H2397 C2423 0.950 . S
H2398 C2424 0.950 . S
H2399 C2426 0.950 . S
H2400 C2429 0.950 . S
H2401 C2430 0.950 . S
H2402 C2432 0.950 . S
H2403 C2433 0.950 . S
C2404 H2386 0.951 . S
C2404 C2405 1.366 . S
C2404 C2406 1.388 . S
C2405 C2404 1.366 . S
C2405 C2409 1.385 . S
C2406 H2387 0.951 . S
C2406 C2404 1.388 . S
C2406 C2407 1.366 . S
C2407 C2406 1.366 . S
C2407 C2408 1.414 . S
C2407 C2410 1.499 . S
C2408 H2388 0.950 . S
C2408 C2407 1.414 . S
C2408 C2409 1.374 . S
C2409 H2389 0.950 . S
C2409 C2405 1.385 . S
C2409 C2408 1.374 . S
C2410 C2407 1.499 . S
C2410 C2411 1.373 . S
C2410 C2412 1.389 . S
C2411 H2390 0.950 . S
C2411 C2410 1.373 . S
C2411 C2427 1.377 . S
C2412 C2410 1.389 . S
C2412 C2413 1.524 . S
C2412 C2426 1.377 . S
C2413 C2412 1.524 . S
C2413 C2414 1.397 . S
C2413 C2418 1.363 . S
C2414 H2391 0.950 . S
C2414 C2413 1.397 . S
C2414 C2415 1.334 . S
C2415 H2392 0.950 . S
C2415 C2414 1.334 . S
C2415 C2416 1.287 . S
C2416 C2415 1.287 . S
C2416 C2417 1.524 . S
C2416 H2435 0.913 . S
C2417 H2393 0.950 . S
C2417 C2416 1.524 . S
C2417 C2418 1.415 . S
C2418 H2394 0.950 . S
C2418 C2413 1.363 . S
C2418 C2417 1.415 . S
C2419 H2395 0.951 . S
C2419 C2420 1.366 . S
C2419 C2421 1.388 . S
C2420 C2419 1.366 . S
C2420 C2424 1.385 . S
C2421 H2396 0.951 . S
C2421 C2419 1.388 . S
C2421 C2422 1.366 . S
C2422 C2421 1.366 . S
C2422 C2423 1.414 . S
C2422 C2425 1.499 . S
C2423 H2397 0.950 . S
C2423 C2422 1.414 . S
C2423 C2424 1.374 . S
C2424 H2398 0.950 . S
C2424 C2420 1.385 . S
C2424 C2423 1.374 . S
C2425 C2422 1.499 . S
C2425 C2426 1.373 . S
C2425 C2427 1.389 . S
C2426 H2399 0.950 . S
C2426 C2412 1.377 . S
C2426 C2425 1.373 . S
C2427 C2411 1.377 . S
C2427 C2425 1.389 . S
C2427 C2428 1.524 . S
C2428 C2427 1.524 . S
C2428 C2429 1.397 . S
C2428 C2433 1.363 . S
C2429 H2400 0.950 . S
C2429 C2428 1.397 . S
C2429 C2430 1.334 . S
C2430 H2401 0.950 . S
C2430 C2429 1.334 . S
C2430 C2431 1.287 . S
C2431 C2430 1.287 . S
C2431 C2432 1.524 . S
C2431 H2434 0.999 . S
C2432 H2402 0.950 . S
C2432 C2431 1.524 . S
C2432 C2433 1.415 . S
C2433 H2403 0.950 . S
C2433 C2428 1.363 . S
C2433 C2432 1.415 . S
H2434 C2431 0.999 . S
H2435 C2416 0.913 . S
H2436 C2454 0.951 . S
H2437 C2456 0.951 . S
H2438 C2458 0.950 . S
H2439 C2459 0.950 . S
H2440 C2461 0.950 . S
H2441 C2464 0.950 . S
H2442 C2465 0.950 . S
H2443 C2467 0.939 1_556 S
H2444 C2468 0.950 . S
H2445 C2469 0.951 . S
H2446 C2471 0.951 . S
H2447 C2473 0.950 . S
H2448 C2474 0.950 . S
H2449 C2476 0.950 . S
H2450 C2479 0.950 . S
H2451 C2480 0.950 . S
H2452 C2482 0.950 . S
H2453 C2483 0.950 . S
C2454 H2436 0.951 . S
C2454 C2455 1.366 . S
C2454 C2456 1.388 . S
C2455 C2454 1.366 . S
C2455 C2459 1.385 . S
C2456 H2437 0.951 . S
C2456 C2454 1.388 . S
C2456 C2457 1.366 . S
C2457 C2456 1.366 . S
C2457 C2458 1.414 . S
C2457 C2460 1.499 . S
C2458 H2438 0.950 . S
C2458 C2457 1.414 . S
C2458 C2459 1.374 . S
C2459 H2439 0.950 . S
C2459 C2455 1.385 . S
C2459 C2458 1.374 . S
C2460 C2457 1.499 . S
C2460 C2461 1.373 . S
C2460 C2462 1.389 . S
C2461 H2440 0.950 . S
C2461 C2460 1.373 . S
C2461 C2477 1.377 . S
C2462 C2460 1.389 . S
C2462 C2463 1.524 . S
C2462 C2476 1.377 . S
C2463 C2462 1.524 . S
C2463 C2464 1.397 . S
C2463 C2468 1.363 . S
C2464 H2441 0.950 . S
C2464 C2463 1.397 . S
C2464 C2465 1.334 . S
C2465 H2442 0.950 . S
C2465 C2464 1.334 . S
C2465 C2466 1.287 1_554 S
C2466 C2465 1.287 1_556 S
C2466 C2467 1.524 1_556 S
C2466 H2485 0.913 . S
C2467 H2443 0.939 1_554 S
C2467 C2466 1.524 1_554 S
C2467 C2468 1.427 . S
C2468 H2444 0.950 . S
C2468 C2463 1.363 . S
C2468 C2467 1.427 . S
C2469 H2445 0.951 . S
C2469 C2470 1.366 . S
C2469 C2471 1.388 . S
C2470 C2469 1.366 . S
C2470 C2474 1.385 . S
C2471 H2446 0.951 . S
C2471 C2469 1.388 . S
C2471 C2472 1.366 . S
C2472 C2471 1.366 . S
C2472 C2473 1.414 . S
C2472 C2475 1.499 . S
C2473 H2447 0.950 . S
C2473 C2472 1.414 . S
C2473 C2474 1.374 . S
C2474 H2448 0.950 . S
C2474 C2470 1.385 . S
C2474 C2473 1.374 . S
C2475 C2472 1.499 . S
C2475 C2476 1.373 . S
C2475 C2477 1.389 . S
C2476 H2449 0.950 . S
C2476 C2462 1.377 . S
C2476 C2475 1.373 . S
C2477 C2461 1.377 . S
C2477 C2475 1.389 . S
C2477 C2478 1.524 . S
C2478 C2477 1.524 . S
C2478 C2479 1.397 . S
C2478 C2483 1.363 . S
C2479 H2450 0.950 . S
C2479 C2478 1.397 . S
C2479 C2480 1.334 . S
C2480 H2451 0.950 . S
C2480 C2479 1.334 . S
C2480 C2481 1.287 . S
C2481 C2480 1.287 . S
C2481 C2482 1.524 . S
C2481 H2484 0.999 . S
C2482 H2452 0.950 . S
C2482 C2481 1.524 . S
C2482 C2483 1.415 . S
C2483 H2453 0.950 . S
C2483 C2478 1.363 . S
C2483 C2482 1.415 . S
H2484 C2481 0.999 . S
H2485 C2466 0.913 . S
H2486 C2504 0.951 . S
H2487 C2506 0.951 . S
H2488 C2508 0.950 . S
H2489 C2509 0.950 . S
H2490 C2511 0.950 . S
H2491 C2514 0.950 . S
H2492 C2515 0.950 . S
H2493 C2517 0.950 . S
H2494 C2518 0.950 . S
H2495 C2519 0.951 . S
H2496 C2521 0.951 . S
H2497 C2523 0.950 . S
H2498 C2524 0.950 . S
H2499 C2526 0.950 . S
H2500 C2529 0.950 . S
H2501 C2530 0.950 . S
H2502 C2532 0.950 . S
H2503 C2533 0.950 . S
C2504 H2486 0.951 . S
C2504 C2505 1.366 . S
C2504 C2506 1.388 . S
C2505 C2504 1.366 . S
C2505 C2509 1.385 . S
C2506 H2487 0.951 . S
C2506 C2504 1.388 . S
C2506 C2507 1.366 . S
C2507 C2506 1.366 . S
C2507 C2508 1.414 . S
C2507 C2510 1.499 . S
C2508 H2488 0.950 . S
C2508 C2507 1.414 . S
C2508 C2509 1.374 . S
C2509 H2489 0.950 . S
C2509 C2505 1.385 . S
C2509 C2508 1.374 . S
C2510 C2507 1.499 . S
C2510 C2511 1.373 . S
C2510 C2512 1.389 . S
C2511 H2490 0.950 . S
C2511 C2510 1.373 . S
C2511 C2527 1.377 . S
C2512 C2510 1.389 . S
C2512 C2513 1.524 . S
C2512 C2526 1.377 . S
C2513 C2512 1.524 . S
C2513 C2514 1.397 . S
C2513 C2518 1.363 . S
C2514 H2491 0.950 . S
C2514 C2513 1.397 . S
C2514 C2515 1.334 . S
C2515 H2492 0.950 . S
C2515 C2514 1.334 . S
C2515 C2516 1.287 . S
C2516 C2515 1.287 . S
C2516 C2517 1.524 . S
C2516 H2535 0.913 . S
C2517 H2493 0.950 . S
C2517 C2516 1.524 . S
C2517 C2518 1.415 . S
C2518 H2494 0.950 . S
C2518 C2513 1.363 . S
C2518 C2517 1.415 . S
C2519 H2495 0.951 . S
C2519 C2520 1.366 . S
C2519 C2521 1.388 . S
C2520 C2519 1.366 . S
C2520 C2524 1.385 . S
C2521 H2496 0.951 . S
C2521 C2519 1.388 . S
C2521 C2522 1.366 . S
C2522 C2521 1.366 . S
C2522 C2523 1.414 . S
C2522 C2525 1.499 . S
C2523 H2497 0.950 . S
C2523 C2522 1.414 . S
C2523 C2524 1.374 . S
C2524 H2498 0.950 . S
C2524 C2520 1.385 . S
C2524 C2523 1.374 . S
C2525 C2522 1.499 . S
C2525 C2526 1.373 . S
C2525 C2527 1.389 . S
C2526 H2499 0.950 . S
C2526 C2512 1.377 . S
C2526 C2525 1.373 . S
C2527 C2511 1.377 . S
C2527 C2525 1.389 . S
C2527 C2528 1.524 . S
C2528 C2527 1.524 . S
C2528 C2529 1.397 . S
C2528 C2533 1.363 . S
C2529 H2500 0.950 . S
C2529 C2528 1.397 . S
C2529 C2530 1.334 . S
C2530 H2501 0.950 . S
C2530 C2529 1.334 . S
C2530 C2531 1.287 . S
C2531 C2530 1.287 . S
C2531 C2532 1.524 . S
C2531 H2534 0.999 . S
C2532 H2502 0.950 . S
C2532 C2531 1.524 . S
C2532 C2533 1.415 . S
C2533 H2503 0.950 . S
C2533 C2528 1.363 . S
C2533 C2532 1.415 . S
H2534 C2531 0.999 . S
H2535 C2516 0.913 . S
H2536 C2554 0.951 . S
H2537 C2556 0.951 . S
H2538 C2558 0.950 . S
H2539 C2559 0.950 . S
H2540 C2561 0.950 . S
H2541 C2564 0.950 . S
H2542 C2565 0.950 . S
H2543 C2567 0.950 . S
H2544 C2568 0.950 . S
H2545 C2569 0.951 . S
H2546 C2571 0.951 . S
H2547 C2573 0.950 . S
H2548 C2574 0.950 . S
H2549 C2576 0.950 . S
H2550 C2579 0.950 . S
H2551 C2580 0.950 . S
H2552 C2582 0.950 . S
H2553 C2583 0.950 . S
C2554 H2536 0.951 . S
C2554 C2555 1.366 . S
C2554 C2556 1.388 . S
C2555 C2554 1.366 . S
C2555 C2559 1.385 . S
C2556 H2537 0.951 . S
C2556 C2554 1.388 . S
C2556 C2557 1.366 . S
C2557 C2556 1.366 . S
C2557 C2558 1.414 . S
C2557 C2560 1.499 . S
C2558 H2538 0.950 . S
C2558 C2557 1.414 . S
C2558 C2559 1.374 . S
C2559 H2539 0.950 . S
C2559 C2555 1.385 . S
C2559 C2558 1.374 . S
C2560 C2557 1.499 . S
C2560 C2561 1.373 . S
C2560 C2562 1.389 . S
C2561 H2540 0.950 . S
C2561 C2560 1.373 . S
C2561 C2577 1.377 . S
C2562 C2560 1.389 . S
C2562 C2563 1.524 . S
C2562 C2576 1.377 . S
C2563 C2562 1.524 . S
C2563 C2564 1.397 . S
C2563 C2568 1.363 . S
C2564 H2541 0.950 . S
C2564 C2563 1.397 . S
C2564 C2565 1.334 . S
C2565 H2542 0.950 . S
C2565 C2564 1.334 . S
C2565 C2566 1.287 . S
C2566 C2565 1.287 . S
C2566 C2567 1.524 . S
C2566 H2585 0.913 . S
C2567 H2543 0.950 . S
C2567 C2566 1.524 . S
C2567 C2568 1.415 . S
C2568 H2544 0.950 . S
C2568 C2563 1.363 . S
C2568 C2567 1.415 . S
C2569 H2545 0.951 . S
C2569 C2570 1.366 . S
C2569 C2571 1.388 . S
C2570 C2569 1.366 . S
C2570 C2574 1.385 . S
C2571 H2546 0.951 . S
C2571 C2569 1.388 . S
C2571 C2572 1.366 . S
C2572 C2571 1.366 . S
C2572 C2573 1.414 . S
C2572 C2575 1.499 . S
C2573 H2547 0.950 . S
C2573 C2572 1.414 . S
C2573 C2574 1.374 . S
C2574 H2548 0.950 . S
C2574 C2570 1.385 . S
C2574 C2573 1.374 . S
C2575 C2572 1.499 . S
C2575 C2576 1.373 . S
C2575 C2577 1.389 . S
C2576 H2549 0.950 . S
C2576 C2562 1.377 . S
C2576 C2575 1.373 . S
C2577 C2561 1.377 . S
C2577 C2575 1.389 . S
C2577 C2578 1.524 . S
C2578 C2577 1.524 . S
C2578 C2579 1.397 . S
C2578 C2583 1.363 . S
C2579 H2550 0.950 . S
C2579 C2578 1.397 . S
C2579 C2580 1.334 . S
C2580 H2551 0.950 . S
C2580 C2579 1.334 . S
C2580 C2581 1.287 . S
C2581 C2580 1.287 . S
C2581 C2582 1.524 . S
C2581 H2584 0.999 . S
C2582 H2552 0.950 . S
C2582 C2581 1.524 . S
C2582 C2583 1.415 . S
C2583 H2553 0.950 . S
C2583 C2578 1.363 . S
C2583 C2582 1.415 . S
H2584 C2581 0.999 . S
H2585 C2566 0.913 . S
H2586 C2604 0.951 . S
H2587 C2606 0.951 . S
H2588 C2608 0.950 . S
H2589 C2609 0.950 . S
H2590 C2611 0.950 . S
H2591 C2614 0.950 . S
H2592 C2615 0.950 . S
H2593 C2617 0.950 . S
H2594 C2618 0.950 . S
H2595 C2619 0.951 . S
H2596 C2621 0.951 . S
H2597 C2623 0.950 . S
H2598 C2624 0.950 . S
H2599 C2626 0.950 . S
H2600 C2629 0.950 . S
H2601 C2630 0.950 . S
H2602 C2632 0.950 . S
H2603 C2633 0.950 . S
C2604 H2586 0.951 . S
C2604 C2605 1.366 . S
C2604 C2606 1.388 . S
C2605 C2604 1.366 . S
C2605 C2609 1.385 . S
C2606 H2587 0.951 . S
C2606 C2604 1.388 . S
C2606 C2607 1.366 . S
C2607 C2606 1.366 . S
C2607 C2608 1.414 . S
C2607 C2610 1.499 . S
C2608 H2588 0.950 . S
C2608 C2607 1.414 . S
C2608 C2609 1.374 . S
C2609 H2589 0.950 . S
C2609 C2605 1.385 . S
C2609 C2608 1.374 . S
C2610 C2607 1.499 . S
C2610 C2611 1.373 . S
C2610 C2612 1.389 . S
C2611 H2590 0.950 . S
C2611 C2610 1.373 . S
C2611 C2627 1.377 . S
C2612 C2610 1.389 . S
C2612 C2613 1.524 . S
C2612 C2626 1.377 . S
C2613 C2612 1.524 . S
C2613 C2614 1.397 . S
C2613 C2618 1.363 . S
C2614 H2591 0.950 . S
C2614 C2613 1.397 . S
C2614 C2615 1.334 . S
C2615 H2592 0.950 . S
C2615 C2614 1.334 . S
C2615 C2616 1.287 . S
C2616 C2615 1.287 . S
C2616 C2617 1.524 . S
C2616 H2635 0.913 . S
C2617 H2593 0.950 . S
C2617 C2616 1.524 . S
C2617 C2618 1.415 . S
C2618 H2594 0.950 . S
C2618 C2613 1.363 . S
C2618 C2617 1.415 . S
C2619 H2595 0.951 . S
C2619 C2620 1.366 . S
C2619 C2621 1.388 . S
C2620 C2619 1.366 . S
C2620 C2624 1.385 . S
C2621 H2596 0.951 . S
C2621 C2619 1.388 . S
C2621 C2622 1.366 . S
C2622 C2621 1.366 . S
C2622 C2623 1.414 . S
C2622 C2625 1.499 . S
C2623 H2597 0.950 . S
C2623 C2622 1.414 . S
C2623 C2624 1.374 . S
C2624 H2598 0.950 . S
C2624 C2620 1.385 . S
C2624 C2623 1.374 . S
C2625 C2622 1.499 . S
C2625 C2626 1.373 . S
C2625 C2627 1.389 . S
C2626 H2599 0.950 . S
C2626 C2612 1.377 . S
C2626 C2625 1.373 . S
C2627 C2611 1.377 . S
C2627 C2625 1.389 . S
C2627 C2628 1.524 . S
C2628 C2627 1.524 . S
C2628 C2629 1.397 . S
C2628 C2633 1.363 . S
C2629 H2600 0.950 . S
C2629 C2628 1.397 . S
C2629 C2630 1.334 . S
C2630 H2601 0.950 . S
C2630 C2629 1.334 . S
C2630 C2631 1.287 . S
C2631 C2630 1.287 . S
C2631 C2632 1.524 . S
C2631 H2634 0.999 . S
C2632 H2602 0.950 . S
C2632 C2631 1.524 . S
C2632 C2633 1.415 . S
C2633 H2603 0.950 . S
C2633 C2628 1.363 . S
C2633 C2632 1.415 . S
H2634 C2631 0.999 . S
H2635 C2616 0.913 . S
H2636 C2654 0.951 . S
H2637 C2656 0.951 . S
H2638 C2658 0.950 . S
H2639 C2659 0.950 . S
H2640 C2661 0.950 . S
H2641 C2664 0.950 . S
H2642 C2665 0.950 . S
H2643 C2667 0.950 . S
H2644 C2668 0.950 . S
H2645 C2669 0.951 . S
H2646 C2671 0.951 . S
H2647 C2673 0.950 . S
H2648 C2674 0.950 . S
H2649 C2676 0.950 . S
H2650 C2679 0.950 . S
H2651 C2680 0.950 . S
H2652 C2682 0.950 . S
H2653 C2683 0.950 . S
C2654 H2636 0.951 . S
C2654 C2655 1.366 . S
C2654 C2656 1.388 . S
C2655 C2654 1.366 . S
C2655 C2659 1.385 . S
C2656 H2637 0.951 . S
C2656 C2654 1.388 . S
C2656 C2657 1.366 . S
C2657 C2656 1.366 . S
C2657 C2658 1.414 . S
C2657 C2660 1.499 . S
C2658 H2638 0.950 . S
C2658 C2657 1.414 . S
C2658 C2659 1.374 . S
C2659 H2639 0.950 . S
C2659 C2655 1.385 . S
C2659 C2658 1.374 . S
C2660 C2657 1.499 . S
C2660 C2661 1.373 . S
C2660 C2662 1.389 . S
C2661 H2640 0.950 . S
C2661 C2660 1.373 . S
C2661 C2677 1.377 . S
C2662 C2660 1.389 . S
C2662 C2663 1.524 . S
C2662 C2676 1.377 . S
C2663 C2662 1.524 . S
C2663 C2664 1.397 . S
C2663 C2668 1.363 . S
C2664 H2641 0.950 . S
C2664 C2663 1.397 . S
C2664 C2665 1.334 . S
C2665 H2642 0.950 . S
C2665 C2664 1.334 . S
C2665 C2666 1.287 . S
C2666 C2665 1.287 . S
C2666 C2667 1.524 . S
C2666 H2685 0.913 . S
C2667 H2643 0.950 . S
C2667 C2666 1.524 . S
C2667 C2668 1.415 . S
C2668 H2644 0.950 . S
C2668 C2663 1.363 . S
C2668 C2667 1.415 . S
C2669 H2645 0.951 . S
C2669 C2670 1.366 . S
C2669 C2671 1.388 . S
C2670 C2669 1.366 . S
C2670 C2674 1.385 . S
C2671 H2646 0.951 . S
C2671 C2669 1.388 . S
C2671 C2672 1.366 . S
C2672 C2671 1.366 . S
C2672 C2673 1.414 . S
C2672 C2675 1.499 . S
C2673 H2647 0.950 . S
C2673 C2672 1.414 . S
C2673 C2674 1.374 . S
C2674 H2648 0.950 . S
C2674 C2670 1.385 . S
C2674 C2673 1.374 . S
C2675 C2672 1.499 . S
C2675 C2676 1.373 . S
C2675 C2677 1.389 . S
C2676 H2649 0.950 . S
C2676 C2662 1.377 . S
C2676 C2675 1.373 . S
C2677 C2661 1.377 . S
C2677 C2675 1.389 . S
C2677 C2678 1.524 . S
C2678 C2677 1.524 . S
C2678 C2679 1.397 . S
C2678 C2683 1.363 . S
C2679 H2650 0.950 . S
C2679 C2678 1.397 . S
C2679 C2680 1.334 . S
C2680 H2651 0.950 . S
C2680 C2679 1.334 . S
C2680 C2681 1.287 . S
C2681 C2680 1.287 . S
C2681 C2682 1.524 . S
C2681 H2684 0.999 . S
C2682 H2652 0.950 . S
C2682 C2681 1.524 . S
C2682 C2683 1.415 . S
C2683 H2653 0.950 . S
C2683 C2678 1.363 . S
C2683 C2682 1.415 . S
H2684 C2681 0.999 . S
H2685 C2666 0.913 . S
H2686 C2704 0.951 . S
H2687 C2706 0.951 . S
H2688 C2708 0.950 . S
H2689 C2709 0.950 . S
H2690 C2711 0.950 . S
H2691 C2714 0.950 . S
H2692 C2715 0.950 . S
H2693 C2717 0.950 . S
H2694 C2718 0.950 . S
H2695 C2719 0.951 . S
H2696 C2721 0.951 . S
H2697 C2723 0.950 . S
H2698 C2724 0.950 . S
H2699 C2726 0.950 . S
H2700 C2729 0.950 . S
H2701 C2730 0.950 . S
H2702 C2732 0.950 . S
H2703 C2733 0.950 . S
C2704 H2686 0.951 . S
C2704 C2705 1.366 . S
C2704 C2706 1.388 . S
C2705 C2704 1.366 . S
C2705 C2709 1.385 . S
C2706 H2687 0.951 . S
C2706 C2704 1.388 . S
C2706 C2707 1.366 . S
C2707 C2706 1.366 . S
C2707 C2708 1.414 . S
C2707 C2710 1.499 . S
C2708 H2688 0.950 . S
C2708 C2707 1.414 . S
C2708 C2709 1.374 . S
C2709 H2689 0.950 . S
C2709 C2705 1.385 . S
C2709 C2708 1.374 . S
C2710 C2707 1.499 . S
C2710 C2711 1.373 . S
C2710 C2712 1.389 . S
C2711 H2690 0.950 . S
C2711 C2710 1.373 . S
C2711 C2727 1.377 . S
C2712 C2710 1.389 . S
C2712 C2713 1.524 . S
C2712 C2726 1.377 . S
C2713 C2712 1.524 . S
C2713 C2714 1.397 . S
C2713 C2718 1.363 . S
C2714 H2691 0.950 . S
C2714 C2713 1.397 . S
C2714 C2715 1.334 . S
C2715 H2692 0.950 . S
C2715 C2714 1.334 . S
C2715 C2716 1.287 . S
C2716 C2715 1.287 . S
C2716 C2717 1.524 . S
C2716 H2735 0.913 . S
C2717 H2693 0.950 . S
C2717 C2716 1.524 . S
C2717 C2718 1.415 . S
C2718 H2694 0.950 . S
C2718 C2713 1.363 . S
C2718 C2717 1.415 . S
C2719 H2695 0.951 . S
C2719 C2720 1.366 . S
C2719 C2721 1.388 . S
C2720 C2719 1.366 . S
C2720 C2724 1.385 . S
C2721 H2696 0.951 . S
C2721 C2719 1.388 . S
C2721 C2722 1.366 . S
C2722 C2721 1.366 . S
C2722 C2723 1.414 . S
C2722 C2725 1.499 . S
C2723 H2697 0.950 . S
C2723 C2722 1.414 . S
C2723 C2724 1.374 . S
C2724 H2698 0.950 . S
C2724 C2720 1.385 . S
C2724 C2723 1.374 . S
C2725 C2722 1.499 . S
C2725 C2726 1.373 . S
C2725 C2727 1.389 . S
C2726 H2699 0.950 . S
C2726 C2712 1.377 . S
C2726 C2725 1.373 . S
C2727 C2711 1.377 . S
C2727 C2725 1.389 . S
C2727 C2728 1.524 . S
C2728 C2727 1.524 . S
C2728 C2729 1.397 . S
C2728 C2733 1.363 . S
C2729 H2700 0.950 . S
C2729 C2728 1.397 . S
C2729 C2730 1.334 . S
C2730 H2701 0.950 . S
C2730 C2729 1.334 . S
C2730 C2731 1.287 . S
C2731 C2730 1.287 . S
C2731 C2732 1.524 . S
C2731 H2734 0.999 . S
C2732 H2702 0.950 . S
C2732 C2731 1.524 . S
C2732 C2733 1.415 . S
C2733 H2703 0.950 . S
C2733 C2728 1.363 . S
C2733 C2732 1.415 . S
H2734 C2731 0.999 . S
H2735 C2716 0.913 . S
C355 C203 1.453 . S
C370 C6 1.441 . S
C405 C21 1.453 . S
C420 C216 1.441 . S
C455 C261 1.712 . S
C470 C37 1.711 . S
C505 C50 2.197 . S
C520 C190 2.198 . S
C555 C204 2.197 . S
C570 C64 2.198 . S
C605 C79 1.712 . S
C620 C219 1.711 . S
C655 C91 1.454 . S
C670 C258 1.441 . S
C705 C104 1.440 . S
C720 C189 1.453 . S
C755 C133 1.453 . S
C770 C118 1.440 . S
C805 C148 2.198 . S
C820 C134 2.197 . S
C855 C147 1.453 . S
C870 C160 1.441 . S
C905 C163 1.712 . S
C920 C121 1.711 . S
C955 C174 1.441 . S
C970 C49 1.453 . S
C1005 C63 1.453 . S
C1020 C230 1.440 . S
C1055 C246 2.197 . S
C1070 C22 2.198 . S
C1105 C20 1.583 . S
C1120 C302 1.602 . S
C1155 C132 1.583 . S
C1170 C8 1.602 . S
C1205 C331 1.798 . S
C1220 C51 1.798 . S
C1255 C161 0.812 . S
C1270 C35 0.812 . S
C1305 C301 0.812 . S
C1320 C105 0.811 . S
C1355 C135 1.798 . S
C1370 C93 1.798 . S
C1405 C78 1.602 . S
C1420 C328 1.582 . S
C1455 C62 1.582 . S
C1470 C162 1.601 . S
C1505 C218 1.602 . S
C1520 C272 1.583 . S
C1555 C231 0.811 . S
C1570 C217 0.812 . S
C1605 C188 1.583 . S
C1620 C232 1.601 . S
C1655 C275 1.797 . S
C1670 C191 1.798 . S
C1705 C36 1.602 . S
C1720 C286 1.583 . S
C1755 C146 1.582 . S
C1770 C106 1.601 . S
C1805 C7 0.811 . S
C1820 C315 0.812 . S
C1855 C273 1.453 . S
C1870 C34 1.440 . S
C1905 C9 1.712 . S
C1920 C233 1.711 . S
C1955 C274 2.198 . S
C1970 C92 2.197 . S
C2005 C177 1.712 . S
C2020 C107 1.711 . S
C2055 C76 1.441 . S
C2070 C245 1.453 . S
C2105 C300 1.440 . S
C2120 C287 1.452 . S
C2155 C330 2.198 . S
C2170 C288 2.197 . S
C2205 C314 1.441 . S
C2220 C329 1.453 . S
C2255 C303 1.711 . S
C2270 C317 1.711 . S
C2305 C120 1.601 . S
C2320 C48 1.583 . S
C2355 C23 1.798 . S
C2370 C149 1.798 . S
C2405 C77 0.812 . S
C2420 C119 0.811 . S
C2455 C289 1.798 . S
C2470 C65 1.798 . S
C2505 C90 1.583 . S
C2520 C316 1.602 . S
C2555 C176 1.602 . S
C2570 C202 1.582 . S
C2605 C259 0.811 . S
C2620 C175 0.812 . S
C2655 C244 1.583 . S
C2670 C260 1.602 . S
C2705 C205 1.798 . S
C2720 C247 1.798 . S
