# Generated by pormake.
# Topology uop, (4)-cn, num edge types: 1
# Building blocks:
#     Node 0, Type 0, BuildingBlock: MUDLON_clean_sbu_0, # of connection points: 4
#     Node 1, Type 0, BuildingBlock: MUDLON_clean_sbu_0, # of connection points: 4
#     Node 2, Type 0, BuildingBlock: MUDLON_clean_sbu_0, # of connection points: 4
#     Node 3, Type 0, BuildingBlock: MUDLON_clean_sbu_0, # of connection points: 4
#     Node 4, Type 0, BuildingBlock: MUDLON_clean_sbu_0, # of connection points: 4
#     Node 5, Type 0, BuildingBlock: MUDLON_clean_sbu_0, # of connection points: 4
#     Node 6, Type 0, BuildingBlock: MUDLON_clean_sbu_0, # of connection points: 4
#     Node 7, Type 0, BuildingBlock: MUDLON_clean_sbu_0, # of connection points: 4
#     Node 8, Type 0, BuildingBlock: MUDLON_clean_sbu_0, # of connection points: 4
#     Node 9, Type 0, BuildingBlock: MUDLON_clean_sbu_0, # of connection points: 4
#     Node 10, Type 0, BuildingBlock: MUDLON_clean_sbu_0, # of connection points: 4
#     Node 11, Type 0, BuildingBlock: MUDLON_clean_sbu_0, # of connection points: 4
#     Edge 12, Type (0, 0), BuildingBlock: ZUJKAS_clean_linker_0, # of connection points: 2
#     Edge 13, Type (0, 0), BuildingBlock: ZUJKAS_clean_linker_0, # of connection points: 2
#     Edge 14, Type (0, 0), BuildingBlock: ZUJKAS_clean_linker_0, # of connection points: 2
#     Edge 15, Type (0, 0), BuildingBlock: ZUJKAS_clean_linker_0, # of connection points: 2
#     Edge 16, Type (0, 0), BuildingBlock: ZUJKAS_clean_linker_0, # of connection points: 2
#     Edge 17, Type (0, 0), BuildingBlock: ZUJKAS_clean_linker_0, # of connection points: 2
#     Edge 18, Type (0, 0), BuildingBlock: ZUJKAS_clean_linker_0, # of connection points: 2
#     Edge 19, Type (0, 0), BuildingBlock: ZUJKAS_clean_linker_0, # of connection points: 2
#     Edge 20, Type (0, 0), BuildingBlock: ZUJKAS_clean_linker_0, # of connection points: 2
#     Edge 21, Type (0, 0), BuildingBlock: ZUJKAS_clean_linker_0, # of connection points: 2
#     Edge 22, Type (0, 0), BuildingBlock: ZUJKAS_clean_linker_0, # of connection points: 2
#     Edge 23, Type (0, 0), BuildingBlock: ZUJKAS_clean_linker_0, # of connection points: 2
#     Edge 24, Type (0, 0), BuildingBlock: ZUJKAS_clean_linker_0, # of connection points: 2
#     Edge 25, Type (0, 0), BuildingBlock: ZUJKAS_clean_linker_0, # of connection points: 2
#     Edge 26, Type (0, 0), BuildingBlock: ZUJKAS_clean_linker_0, # of connection points: 2
#     Edge 27, Type (0, 0), BuildingBlock: ZUJKAS_clean_linker_0, # of connection points: 2
#     Edge 28, Type (0, 0), BuildingBlock: ZUJKAS_clean_linker_0, # of connection points: 2
#     Edge 29, Type (0, 0), BuildingBlock: ZUJKAS_clean_linker_0, # of connection points: 2
#     Edge 30, Type (0, 0), BuildingBlock: ZUJKAS_clean_linker_0, # of connection points: 2
#     Edge 31, Type (0, 0), BuildingBlock: ZUJKAS_clean_linker_0, # of connection points: 2
#     Edge 32, Type (0, 0), BuildingBlock: ZUJKAS_clean_linker_0, # of connection points: 2
#     Edge 33, Type (0, 0), BuildingBlock: ZUJKAS_clean_linker_0, # of connection points: 2
#     Edge 34, Type (0, 0), BuildingBlock: ZUJKAS_clean_linker_0, # of connection points: 2
#     Edge 35, Type (0, 0), BuildingBlock: ZUJKAS_clean_linker_0, # of connection points: 2
# Relax obj value: 0.172
# Max RMSD: 0.294
# Mean RMSD: 0.294
data_MOF--net-uop--node1-MUDLON_clean_sbu_0--edge1-ZUJKAS_clean_linker_0
_symmetry_space_group_name_H-M    P1
_symmetry_Int_Tables_number       1
_symmetry_cell_setting            triclinic
loop_
_symmetry_equiv_pos_as_xyz
'x, y, z'
_cell_length_a     43.925621
_cell_length_b     44.339553
_cell_length_c     61.574351
_cell_angle_alpha  89.951959
_cell_angle_beta   90.092044
_cell_angle_gamma 119.67086
loop_
_atom_site_label
_atom_site_type_symbol
_atom_site_fract_x
_atom_site_fract_y
_atom_site_fract_z
_atom_type_partial_charge
Mg0 Mg 0.26686 0.40354 0.19384 0.0
C1 C 0.27632 0.47072 0.17717 0.0
O2 O 0.28917 0.46076 0.16123 0.0
C3 C 0.26627 0.35811 0.22996 0.0
O4 O 0.24739 0.33498 0.21516 0.0
C5 C 0.19785 0.36714 0.16875 0.0
O6 O 0.21266 0.39653 0.15793 0.0
O7 O 0.21535 0.36228 0.18346 0.0
O8 O 0.26481 0.45165 0.19399 0.0
O9 O 0.3121 0.41377 0.17385 0.0
C10 C 0.33076 0.39991 0.17817 0.0
O11 O 0.3197 0.37529 0.19289 0.0
O12 O 0.27733 0.39004 0.22596 0.0
Mg13 Mg 0.86368 0.25945 0.53195 0.0
C14 C 0.91126 0.33425 0.52577 0.0
O15 O 0.90742 0.3305 0.54691 0.0
C16 C 0.8505 0.18746 0.53013 0.0
O17 O 0.85025 0.19309 0.55106 0.0
C18 C 0.87981 0.2723 0.58115 0.0
O19 O 0.85163 0.27547 0.58175 0.0
O20 O 0.88909 0.26505 0.56326 0.0
O21 O 0.89597 0.30731 0.51387 0.0
O22 O 0.8112 0.25262 0.53372 0.0
C23 C 0.80577 0.2782 0.53494 0.0
O24 O 0.83257 0.30963 0.53726 0.0
O25 O 0.85719 0.21217 0.51701 0.0
Mg26 Mg 0.60638 0.85143 0.86441 0.0
C27 C 0.52967 0.7969 0.86072 0.0
O28 O 0.52683 0.82479 0.85799 0.0
C29 C 0.6513 0.89631 0.90081 0.0
O30 O 0.67498 0.90321 0.88571 0.0
C31 C 0.6425 0.81762 0.84153 0.0
O32 O 0.61003 0.79719 0.83521 0.0
O33 O 0.64941 0.84422 0.85291 0.0
O34 O 0.55967 0.80039 0.8647 0.0
O35 O 0.59383 0.88505 0.8449 0.0
C36 C 0.60944 0.91765 0.84813 0.0
O37 O 0.63637 0.93148 0.86141 0.0
O38 O 0.61952 0.87407 0.8968 0.0
Mg39 Mg 0.76245 0.60307 0.19785 0.0
C40 C 0.78089 0.55017 0.18213 0.0
O41 O 0.79824 0.57557 0.16831 0.0
C42 C 0.75942 0.64548 0.23422 0.0
O43 O 0.77782 0.66926 0.21965 0.0
C44 C 0.82876 0.65699 0.172 0.0
O45 O 0.80953 0.64471 0.15441 0.0
O46 O 0.81516 0.64512 0.19047 0.0
O47 O 0.76348 0.5544 0.19715 0.0
O48 O 0.71874 0.59701 0.17774 0.0
C49 C 0.70155 0.56983 0.16626 0.0
O50 O 0.714 0.54855 0.16383 0.0
O51 O 0.74966 0.6139 0.22997 0.0
Mg52 Mg 0.15765 0.75918 0.52614 0.0
C53 C 0.12655 0.68684 0.5128 0.0
O54 O 0.14983 0.69112 0.52767 0.0
C55 C 0.18472 0.83386 0.52559 0.0
O56 O 0.19568 0.82777 0.54408 0.0
C57 C 0.13889 0.7363 0.57371 0.0
O58 O 0.16223 0.72617 0.57163 0.0
O59 O 0.1334 0.75146 0.55791 0.0
O60 O 0.12312 0.71278 0.50759 0.0
O61 O 0.20893 0.76281 0.52654 0.0
C62 C 0.21823 0.75593 0.50851 0.0
O63 O 0.197 0.74778 0.49177 0.0
O64 O 0.16581 0.80826 0.51328 0.0
Mg65 Mg 0.42336 0.16224 0.86727 0.0
C66 C 0.4771 0.23099 0.85 0.0
O67 O 0.45232 0.22082 0.83524 0.0
C68 C 0.39303 0.10588 0.89982 0.0
O69 O 0.37961 0.08951 0.88147 0.0
C70 C 0.36742 0.17332 0.84243 0.0
O71 O 0.37651 0.16237 0.82511 0.0
O72 O 0.38156 0.17408 0.86062 0.0
O73 O 0.47237 0.21137 0.86623 0.0
O74 O 0.42812 0.12486 0.84642 0.0
C75 C 0.45672 0.13344 0.83655 0.0
O76 O 0.48106 0.16628 0.83615 0.0
O77 O 0.41341 0.13858 0.89934 0.0
Mg78 Mg 0.60812 0.76043 0.45968 0.0
C79 C 0.58028 0.68644 0.4647 0.0
O80 O 0.57038 0.69075 0.44534 0.0
C81 C 0.66188 0.83443 0.45993 0.0
O82 O 0.649 0.82953 0.44015 0.0
C83 C 0.65214 0.75626 0.42473 0.0
O84 O 0.67281 0.76464 0.44177 0.0
O85 O 0.62231 0.75405 0.42686 0.0
O86 O 0.59857 0.71319 0.47631 0.0
O87 O 0.56027 0.76378 0.46099 0.0
C88 C 0.53511 0.74276 0.47302 0.0
O89 O 0.53812 0.71879 0.48377 0.0
O90 O 0.65009 0.80865 0.47282 0.0
Mg91 Mg 0.86908 0.60427 0.79851 0.0
C92 C 0.79995 0.55047 0.81591 0.0
O93 O 0.80924 0.57567 0.83007 0.0
C94 C 0.92387 0.6396 0.76561 0.0
O95 O 0.93889 0.6556 0.78379 0.0
C96 C 0.85636 0.65755 0.8246 0.0
O97 O 0.86566 0.64652 0.84183 0.0
O98 O 0.85709 0.64541 0.80602 0.0
O99 O 0.82023 0.55493 0.80001 0.0
O100 O 0.9082 0.60022 0.81826 0.0
C101 C 0.90064 0.5773 0.83288 0.0
O102 O 0.86785 0.558 0.83886 0.0
O103 O 0.89212 0.6153 0.76623 0.0
Mg104 Mg 0.2688 0.84959 0.12981 0.0
C105 C 0.24906 0.77786 0.14477 0.0
O106 O 0.23303 0.78675 0.15926 0.0
C107 C 0.29569 0.90691 0.09779 0.0
O108 O 0.2999 0.92318 0.11634 0.0
C109 C 0.20385 0.84001 0.15611 0.0
O110 O 0.2237 0.84623 0.17338 0.0
O111 O 0.21666 0.84124 0.1374 0.0
O112 O 0.26604 0.79912 0.12962 0.0
O113 O 0.31246 0.8845 0.15069 0.0
C114 C 0.33035 0.87337 0.16067 0.0
O115 O 0.31899 0.83985 0.16089 0.0
O116 O 0.28243 0.87408 0.098 0.0
Mg117 Mg 0.41876 0.25938 0.46068 0.0
C118 C 0.4601 0.33162 0.47221 0.0
O119 O 0.47681 0.32626 0.45632 0.0
C120 C 0.34822 0.19214 0.46445 0.0
O121 O 0.34173 0.20282 0.44603 0.0
C122 C 0.39747 0.2518 0.41163 0.0
O123 O 0.39601 0.2215 0.41229 0.0
O124 O 0.40631 0.2707 0.42854 0.0
O125 O 0.43182 0.30599 0.47911 0.0
O126 O 0.46579 0.25489 0.46214 0.0
C127 C 0.47687 0.2563 0.48143 0.0
O128 O 0.45908 0.2595 0.49754 0.0
O129 O 0.37683 0.21149 0.47435 0.0
Mg130 Mg 0.16004 0.41009 0.8007 0.0
C131 C 0.23781 0.46414 0.80382 0.0
O132 O 0.24134 0.43641 0.80336 0.0
C133 C 0.1064 0.37095 0.76792 0.0
O134 O 0.09341 0.35337 0.78596 0.0
C135 C 0.18588 0.36752 0.82697 0.0
O136 O 0.19233 0.39073 0.84216 0.0
O137 O 0.17165 0.36906 0.8093 0.0
O138 O 0.20737 0.46063 0.80207 0.0
O139 O 0.12059 0.4139 0.82001 0.0
C140 C 0.12859 0.43751 0.83419 0.0
O141 O 0.1616 0.45707 0.83976 0.0
O142 O 0.13666 0.39782 0.76852 0.0
Mg143 Mg 0.75598 0.15645 0.12847 0.0
C144 C 0.74854 0.21519 0.14527 0.0
O145 O 0.73454 0.19206 0.16085 0.0
C146 C 0.74555 0.10402 0.09538 0.0
O147 O 0.75112 0.09129 0.11327 0.0
C148 C 0.82257 0.18344 0.15569 0.0
O149 O 0.80758 0.198 0.16662 0.0
O150 O 0.80586 0.16297 0.14014 0.0
O151 O 0.76025 0.20756 0.12849 0.0
O152 O 0.70848 0.1231 0.14677 0.0
C153 C 0.69899 0.094 0.15582 0.0
O154 O 0.72053 0.08147 0.15619 0.0
O155 O 0.7469 0.13332 0.09625 0.0
H156 H 0.28198 0.75229 0.11899 0.0
H157 H 0.28508 0.69915 0.12459 0.0
H158 H 0.22169 0.67657 0.18218 0.0
H159 H 0.21794 0.7291 0.17655 0.0
H160 H 0.31271 0.68263 0.16019 0.0
H161 H 0.1723 0.58478 0.14966 0.0
H162 H 0.19024 0.62941 0.14129 0.0
H163 H 0.18003 0.61761 0.16938 0.0
C164 C 0.26836 0.7358 0.1327 0.0
C165 C 0.2496 0.74489 0.14727 0.0
C166 C 0.27022 0.70549 0.13591 0.0
C167 C 0.25321 0.68365 0.15364 0.0
C168 C 0.23436 0.6926 0.16813 0.0
H169 H 0.24511 0.49608 0.20469 0.0
H170 H 0.24043 0.54858 0.19982 0.0
C171 C 0.23243 0.7228 0.16493 0.0
C172 C 0.25653 0.65239 0.15759 0.0
H173 H 0.20925 0.56431 0.16367 0.0
C174 C 0.29012 0.65674 0.16083 0.0
C175 C 0.22698 0.61866 0.15856 0.0
C176 C 0.19037 0.61218 0.15435 0.0
C177 C 0.29493 0.62832 0.16525 0.0
C178 C 0.26541 0.59461 0.16618 0.0
C179 C 0.23181 0.59024 0.16306 0.0
C180 C 0.26898 0.5634 0.1695 0.0
C181 C 0.33154 0.63463 0.16923 0.0
C182 C 0.28634 0.55428 0.15399 0.0
C183 C 0.289 0.52441 0.15669 0.0
C184 C 0.27425 0.50293 0.17494 0.0
C185 C 0.25689 0.51215 0.19051 0.0
C186 C 0.25413 0.54206 0.18774 0.0
H187 H 0.34992 0.66214 0.17353 0.0
H188 H 0.33178 0.61772 0.18246 0.0
H189 H 0.34135 0.62849 0.15422 0.0
H190 H 0.29744 0.57006 0.13961 0.0
H191 H 0.30244 0.51806 0.14433 0.0
H192 H 0.74676 0.21854 0.52262 0.0
H193 H 0.68999 0.21193 0.51232 0.0
H194 H 0.7273 0.31935 0.5282 0.0
H195 H 0.78442 0.32644 0.53803 0.0
H196 H 0.6414 0.22002 0.53439 0.0
H197 H 0.69305 0.31419 0.46651 0.0
H198 H 0.71887 0.29827 0.47992 0.0
H199 H 0.71415 0.33276 0.49187 0.0
C200 C 0.74287 0.24074 0.52404 0.0
C201 C 0.77026 0.27313 0.53096 0.0
C202 C 0.7104 0.23692 0.5181 0.0
C203 C 0.70468 0.26536 0.51898 0.0
C204 C 0.73145 0.29731 0.52679 0.0
H205 H 0.50926 0.26526 0.52051 0.0
H206 H 0.56346 0.26506 0.52844 0.0
C207 C 0.764 0.30123 0.53259 0.0
C208 C 0.67068 0.26157 0.5118 0.0
H209 H 0.63432 0.29577 0.47759 0.0
C210 C 0.63982 0.23641 0.52186 0.0
C211 C 0.66853 0.28242 0.4951 0.0
C212 C 0.70037 0.30817 0.48255 0.0
C213 C 0.60703 0.23239 0.51623 0.0
C214 C 0.60514 0.25467 0.50046 0.0
C215 C 0.63583 0.27897 0.48985 0.0
C216 C 0.57185 0.25418 0.49542 0.0
C217 C 0.57472 0.20413 0.52716 0.0
C218 C 0.55901 0.24923 0.47404 0.0
C219 C 0.52804 0.24976 0.46935 0.0
C220 C 0.5095 0.25535 0.48599 0.0
C221 C 0.52265 0.26053 0.50733 0.0
C222 C 0.55357 0.26018 0.51195 0.0
H223 H 0.57905 0.18287 0.53308 0.0
H224 H 0.56824 0.21518 0.54141 0.0
H225 H 0.55189 0.19295 0.51595 0.0
H226 H 0.57289 0.24486 0.46099 0.0
H227 H 0.51867 0.2458 0.45275 0.0
H228 H 0.46209 0.78049 0.85215 0.0
H229 H 0.41253 0.72345 0.84334 0.0
H230 H 0.47837 0.67746 0.85129 0.0
H231 H 0.52797 0.73428 0.86045 0.0
H232 H 0.40809 0.68163 0.80889 0.0
H233 H 0.39249 0.61286 0.88696 0.0
H234 H 0.41811 0.65948 0.88458 0.0
H235 H 0.43605 0.63272 0.87605 0.0
C236 C 0.46596 0.75819 0.85231 0.0
C237 C 0.499 0.76196 0.85707 0.0
C238 C 0.4376 0.72561 0.84722 0.0
C239 C 0.44163 0.69613 0.84688 0.0
C240 C 0.47445 0.69971 0.85189 0.0
H241 H 0.30561 0.48011 0.81135 0.0
H242 H 0.35541 0.53674 0.82079 0.0
C243 C 0.50283 0.73228 0.85704 0.0
C244 C 0.41197 0.66203 0.84018 0.0
H245 H 0.35991 0.57831 0.8569 0.0
C246 C 0.39742 0.65908 0.81943 0.0
C247 C 0.39819 0.63261 0.85392 0.0
C248 C 0.41176 0.63452 0.8767 0.0
C249 C 0.36978 0.62739 0.81193 0.0
C250 C 0.35602 0.598 0.82567 0.0
C251 C 0.3706 0.60089 0.84639 0.0
C252 C 0.32613 0.56408 0.81898 0.0
C253 C 0.35598 0.62546 0.78922 0.0
C254 C 0.29316 0.5607 0.81484 0.0
C255 C 0.26464 0.52839 0.80942 0.0
C256 C 0.26852 0.49879 0.80814 0.0
C257 C 0.30171 0.50237 0.81211 0.0
C258 C 0.33019 0.53469 0.81757 0.0
H259 H 0.37486 0.64744 0.77899 0.0
H260 H 0.35014 0.60073 0.78121 0.0
H261 H 0.33131 0.62655 0.79002 0.0
H262 H 0.28931 0.58294 0.81621 0.0
H263 H 0.23942 0.52655 0.80661 0.0
H264 H 0.7455 0.49087 0.20649 0.0
H265 H 0.74154 0.43452 0.19998 0.0
H266 H 0.80828 0.47651 0.14391 0.0
H267 H 0.81289 0.53287 0.15047 0.0
H268 H 0.71537 0.39307 0.16336 0.0
H269 H 0.85456 0.43001 0.17652 0.0
H270 H 0.83681 0.45714 0.18501 0.0
H271 H 0.84847 0.45675 0.15707 0.0
C272 C 0.75965 0.48821 0.19292 0.0
C273 C 0.77963 0.51643 0.17906 0.0
C274 C 0.75731 0.45599 0.1892 0.0
C275 C 0.77502 0.45145 0.17164 0.0
C276 C 0.79503 0.4796 0.15784 0.0
H277 H 0.78205 0.27223 0.11868 0.0
H278 H 0.7877 0.32965 0.1241 0.0
C279 C 0.79746 0.51178 0.16156 0.0
C280 C 0.77132 0.41693 0.16714 0.0
H281 H 0.81769 0.37427 0.16126 0.0
C282 C 0.73771 0.38891 0.16301 0.0
C283 C 0.80055 0.41162 0.16655 0.0
C284 C 0.8371 0.44038 0.17172 0.0
C285 C 0.73258 0.3558 0.15809 0.0
C286 C 0.76177 0.35049 0.15758 0.0
C287 C 0.7954 0.37851 0.16156 0.0
C288 C 0.75773 0.31567 0.1539 0.0
C289 C 0.696 0.32685 0.1532 0.0
C290 C 0.73928 0.28901 0.16894 0.0
C291 C 0.73609 0.25637 0.16593 0.0
C292 C 0.75137 0.24971 0.14783 0.0
C293 C 0.76985 0.27648 0.13273 0.0
C294 C 0.77316 0.30927 0.13582 0.0
H295 H 0.67822 0.33699 0.14871 0.0
H296 H 0.69619 0.31022 0.13978 0.0
H297 H 0.68513 0.31037 0.16786 0.0
H298 H 0.72771 0.29358 0.18319 0.0
H299 H 0.72177 0.23641 0.17793 0.0
H300 H 0.47187 0.694 0.48886 0.0
H301 H 0.41989 0.69941 0.49489 0.0
H302 H 0.47508 0.80462 0.47092 0.0
H303 H 0.52684 0.79883 0.464 0.0
H304 H 0.40974 0.74051 0.52095 0.0
H305 H 0.38684 0.76702 0.43625 0.0
H306 H 0.41788 0.75303 0.44296 0.0
H307 H 0.42947 0.79781 0.44624 0.0
C308 C 0.47285 0.71819 0.48467 0.0
C309 C 0.50336 0.74591 0.47581 0.0
C310 C 0.44313 0.72129 0.48819 0.0
C311 C 0.44333 0.75226 0.48312 0.0
C312 C 0.47392 0.78015 0.47444 0.0
H313 H 0.27758 0.79026 0.53342 0.0
H314 H 0.33368 0.79185 0.52802 0.0
C315 C 0.50355 0.77687 0.47057 0.0
C316 C 0.41166 0.75529 0.48743 0.0
H317 H 0.35193 0.77268 0.46345 0.0
C318 C 0.39705 0.74749 0.50836 0.0
C319 C 0.39492 0.76409 0.47096 0.0
C320 C 0.40785 0.77063 0.4478 0.0
C321 C 0.36594 0.74774 0.51322 0.0
C322 C 0.34961 0.75728 0.49687 0.0
C323 C 0.36455 0.7656 0.47603 0.0
C324 C 0.3159 0.75678 0.5005 0.0
C325 C 0.35028 0.73645 0.53557 0.0
C326 C 0.28754 0.73743 0.4865 0.0
C327 C 0.25592 0.73722 0.48923 0.0
C328 C 0.25176 0.75603 0.50619 0.0
C329 C 0.27997 0.77522 0.52036 0.0
C330 C 0.31195 0.77596 0.51735 0.0
H331 H 0.36026 0.7208 0.54387 0.0
H332 H 0.35754 0.75976 0.54567 0.0
H333 H 0.32126 0.72086 0.53479 0.0
H334 H 0.28985 0.72237 0.47341 0.0
H335 H 0.23461 0.72205 0.4781 0.0
H336 H 0.53444 0.26005 0.87697 0.0
H337 H 0.58952 0.31448 0.87151 0.0
H338 H 0.5505 0.33026 0.81073 0.0
H339 H 0.49538 0.27642 0.81616 0.0
H340 H 0.63773 0.33368 0.83759 0.0
H341 H 0.58226 0.42189 0.84243 0.0
H342 H 0.55836 0.37721 0.85117 0.0
H343 H 0.56088 0.38781 0.82279 0.0
C344 C 0.53751 0.27522 0.86251 0.0
C345 C 0.51041 0.264 0.84708 0.0
C346 C 0.56902 0.30625 0.85939 0.0
C347 C 0.57389 0.32665 0.84087 0.0
C348 C 0.54703 0.3153 0.82536 0.0
H349 H 0.77151 0.49269 0.78973 0.0
H350 H 0.717 0.43789 0.79562 0.0
C351 C 0.51557 0.28439 0.82847 0.0
C352 C 0.60721 0.35955 0.83753 0.0
H353 H 0.64099 0.44663 0.82998 0.0
C354 C 0.63852 0.35842 0.83601 0.0
C355 C 0.60818 0.39182 0.83569 0.0
C356 C 0.57569 0.39494 0.83831 0.0
C357 C 0.67075 0.38868 0.83237 0.0
C358 C 0.67154 0.42078 0.82983 0.0
C359 C 0.64028 0.42194 0.83167 0.0
C360 C 0.70464 0.45376 0.82606 0.0
C361 C 0.70372 0.3861 0.83169 0.0
C362 C 0.71531 0.48114 0.84091 0.0
C363 C 0.74615 0.51249 0.83749 0.0
C364 C 0.76701 0.5172 0.81909 0.0
C365 C 0.75614 0.48984 0.80411 0.0
C366 C 0.72513 0.45842 0.80753 0.0
H367 H 0.69985 0.36171 0.83929 0.0
H368 H 0.71145 0.3863 0.81451 0.0
H369 H 0.72563 0.40847 0.84011 0.0
H370 H 0.69982 0.47816 0.85526 0.0
H371 H 0.75368 0.53299 0.84936 0.0
H372 H 0.66262 0.6013 0.17528 0.0
H373 H 0.59911 0.57585 0.17143 0.0
H374 H 0.59321 0.48627 0.14001 0.0
H375 H 0.65662 0.51157 0.14353 0.0
H376 H 0.5462 0.50802 0.12236 0.0
H377 H 0.53796 0.49334 0.21223 0.0
H378 H 0.56555 0.53675 0.20243 0.0
H379 H 0.57736 0.50397 0.19734 0.0
C380 C 0.64797 0.57656 0.16709 0.0
C381 C 0.66471 0.55826 0.16001 0.0
C382 C 0.61163 0.56197 0.16501 0.0
C383 C 0.59139 0.52886 0.15583 0.0
C384 C 0.60831 0.51176 0.14725 0.0
H385 H 0.37777 0.3775 0.18504 0.0
H386 H 0.44037 0.40841 0.17694 0.0
C387 C 0.64461 0.52629 0.14932 0.0
C388 C 0.55254 0.51051 0.1571 0.0
H389 H 0.48499 0.47439 0.19334 0.0
C390 C 0.53273 0.5008 0.13785 0.0
C391 C 0.53509 0.50062 0.17734 0.0
C392 C 0.55496 0.50888 0.19854 0.0
C393 C 0.49586 0.48158 0.13835 0.0
C394 C 0.47849 0.47203 0.15862 0.0
C395 C 0.49836 0.48179 0.17782 0.0
C396 C 0.43974 0.45129 0.16057 0.0
C397 C 0.47582 0.47088 0.11724 0.0
C398 C 0.41837 0.46472 0.15361 0.0
C399 C 0.3824 0.44701 0.15818 0.0
C400 C 0.36725 0.41567 0.16996 0.0
C401 C 0.38851 0.40157 0.17599 0.0
C402 C 0.42436 0.41925 0.1714 0.0
H403 H 0.49298 0.47339 0.10332 0.0
H404 H 0.45404 0.44364 0.11811 0.0
H405 H 0.46431 0.4878 0.11407 0.0
H406 H 0.42973 0.48965 0.14552 0.0
H407 H 0.36686 0.45871 0.15338 0.0
H408 H 0.13325 0.62972 0.51841 0.0
H409 H 0.09269 0.57048 0.50763 0.0
H410 H 0.02754 0.60448 0.47555 0.0
H411 H 0.06813 0.66448 0.48681 0.0
H412 H 0.99031 0.55251 0.50262 0.0
H413 H 0.06969 0.51418 0.45322 0.0
H414 H 0.09287 0.53381 0.47781 0.0
H415 H 0.08346 0.55914 0.45881 0.0
C416 C 0.11064 0.62486 0.50875 0.0
C417 C 0.1038 0.65183 0.50361 0.0
C418 C 0.08763 0.59088 0.50231 0.0
C419 C 0.05737 0.58299 0.49037 0.0
C420 C 0.05097 0.61003 0.48453 0.0
H421 H 0.92191 0.35404 0.48263 0.0
H422 H 0.95272 0.41379 0.46835 0.0
C423 C 0.07413 0.64426 0.491 0.0
C424 C 0.03057 0.54603 0.48695 0.0
H425 H 0.02374 0.46753 0.47558 0.0
C426 C 0.99726 0.53403 0.49606 0.0
C427 C 0.03914 0.52175 0.478 0.0
C428 C 0.07314 0.53303 0.46619 0.0
C429 C 0.97389 0.49842 0.49855 0.0
C430 C 0.98438 0.4743 0.49214 0.0
C431 C 0.01602 0.48609 0.48091 0.0
C432 C 0.96567 0.43801 0.50005 0.0
C433 C 0.93892 0.48697 0.50917 0.0
C434 C 0.9637 0.43198 0.52248 0.0
C435 C 0.94651 0.39828 0.5306 0.0
C436 C 0.93094 0.36964 0.51648 0.0
C437 C 0.93357 0.37558 0.49391 0.0
C438 C 0.95103 0.40961 0.48575 0.0
H439 H 0.92988 0.506 0.50617 0.0
H440 H 0.91867 0.46112 0.50314 0.0
H441 H 0.94157 0.48524 0.52699 0.0
H442 H 0.97561 0.45349 0.53379 0.0
H443 H 0.94529 0.39479 0.54805 0.0
H444 H 0.41979 0.06332 0.84446 0.0
H445 H 0.44113 0.02199 0.84051 0.0
H446 H 0.53581 0.10147 0.81076 0.0
H447 H 0.51472 0.14291 0.81448 0.0
H448 H 0.50765 0.03133 0.79233 0.0
H449 H 0.52304 0.03774 0.88226 0.0
H450 H 0.48015 0.02595 0.87213 0.0
H451 H 0.51614 0.06873 0.86713 0.0
C452 C 0.44476 0.07182 0.83657 0.0
C453 C 0.46576 0.10659 0.83005 0.0
C454 C 0.45697 0.04818 0.83442 0.0
C455 C 0.49029 0.05886 0.82567 0.0
C456 C 0.51008 0.09275 0.81762 0.0
H457 H 0.63536 0.98728 0.85337 0.0
H458 H 0.606 0.02052 0.84535 0.0
C459 C 0.49798 0.11642 0.81982 0.0
C460 C 0.50621 0.0362 0.82704 0.0
H461 H 0.53967 1.00211 0.86347 0.0
C462 C 0.51444 0.02466 0.80786 0.0
C463 C 0.51551 0.02804 0.84733 0.0
C464 C 0.50857 0.0409 0.86843 0.0
C465 C 0.53174 1.00509 0.80848 0.0
C466 C 0.54092 0.99692 0.82879 0.0
C467 C 0.53252 0.00836 0.84792 0.0
C468 C 0.56029 0.97751 0.8308 0.0
C469 C 0.54093 0.9941 0.78746 0.0
C470 C 0.54463 0.94239 0.82488 0.0
C471 C 0.5614 0.9232 0.82945 0.0
C472 C 0.59404 0.93881 0.84014 0.0
C473 C 0.61025 0.97437 0.84517 0.0
C474 C 0.59348 0.99345 0.84062 0.0
H475 H 0.53806 0.00797 0.77326 0.0
H476 H 0.56825 0.9989 0.78798 0.0
H477 H 0.52324 0.96584 0.78507 0.0
H478 H 0.51881 0.92944 0.81756 0.0
H479 H 0.5481 0.89583 0.82544 0.0
H480 H 0.58572 0.66528 0.50599 0.0
H481 H 0.56378 0.60528 0.51847 0.0
H482 H 0.52733 0.56795 0.45363 0.0
H483 H 0.54835 0.62701 0.44125 0.0
H484 H 0.47763 0.53173 0.48546 0.0
H485 H 0.60676 0.54323 0.50545 0.0
H486 H 0.59575 0.57298 0.51833 0.0
H487 H 0.60332 0.57566 0.48959 0.0
C488 C 0.57316 0.64421 0.49443 0.0
C489 C 0.56878 0.6509 0.47264 0.0
C490 C 0.56071 0.61001 0.50157 0.0
C491 C 0.54402 0.58218 0.48694 0.0
C492 C 0.53992 0.58899 0.46522 0.0
H493 H 0.51665 0.39049 0.45773 0.0
H494 H 0.53529 0.45002 0.46787 0.0
C495 C 0.55209 0.62287 0.45816 0.0
C496 C 0.53061 0.54563 0.49364 0.0
H497 H 0.55785 0.48742 0.50509 0.0
C498 C 0.49495 0.52196 0.49022 0.0
C499 C 0.55336 0.53315 0.49988 0.0
C500 C 0.59199 0.5574 0.50346 0.0
C501 C 0.48191 0.486 0.49109 0.0
C502 C 0.50508 0.47342 0.49611 0.0
C503 C 0.54016 0.49716 0.50126 0.0
C504 C 0.49518 0.43663 0.49228 0.0
C505 C 0.44416 0.46197 0.48488 0.0
C506 C 0.46678 0.40903 0.50297 0.0
C507 C 0.45561 0.3746 0.49693 0.0
C508 C 0.47299 0.36735 0.4803 0.0
C509 C 0.50246 0.39504 0.47049 0.0
C510 C 0.51333 0.42921 0.47637 0.0
H511 H 0.43145 0.47623 0.47809 0.0
H512 H 0.44225 0.4427 0.47266 0.0
H513 H 0.42922 0.44763 0.49947 0.0
H514 H 0.45282 0.41411 0.51561 0.0
H515 H 0.43304 0.35379 0.50494 0.0
H516 H 0.89757 0.53693 0.86744 0.0
H517 H 0.93768 0.51503 0.87571 0.0
H518 H 1.00195 0.57187 0.82105 0.0
H519 H 0.96312 0.59508 0.81344 0.0
H520 H 0.95006 0.47393 0.85314 0.0
H521 H 0.07717 0.59314 0.86348 0.0
H522 H 0.03653 0.59393 0.86271 0.0
H523 H 0.05861 0.59457 0.83787 0.0
C524 C 0.92077 0.54546 0.85755 0.0
C525 C 0.92723 0.56791 0.83986 0.0
C526 C 0.94364 0.53281 0.86223 0.0
C527 C 0.97327 0.5421 0.84922 0.0
C528 C 0.98005 0.56511 0.83182 0.0
H529 H 0.06553 0.41881 0.81514 0.0
H530 H 0.02696 0.44242 0.82231 0.0
C531 C 0.9576 0.57824 0.82738 0.0
C532 C 0.99518 0.52533 0.85243 0.0
H533 H 0.07983 0.54193 0.85246 0.0
C534 C 0.97845 0.4889 0.8534 0.0
C535 C 0.03225 0.5446 0.85329 0.0
C536 C 0.05208 0.58372 0.85454 0.0
C537 C 0.99766 0.4713 0.85402 0.0
C538 C 0.0347 0.49052 0.85276 0.0
C539 C 0.05145 0.52698 0.85302 0.0
C540 C 0.05652 0.4736 0.84987 0.0
C541 C 0.97787 0.43227 0.85604 0.0
C542 C 0.08655 0.48353 0.86268 0.0
C543 C 0.10926 0.47064 0.85823 0.0
C544 C 0.10224 0.44729 0.841 0.0
C545 C 0.07149 0.43635 0.82874 0.0
C546 C 0.04919 0.44972 0.83294 0.0
H547 H 0.95306 0.4233 0.86517 0.0
H548 H 0.97083 0.42058 0.83959 0.0
H549 H 0.99368 0.42247 0.86439 0.0
H550 H 0.09292 0.50199 0.87579 0.0
H551 H 0.13277 0.47964 0.86794 0.0
H552 H 0.36785 0.94414 0.15538 0.0
H553 H 0.43086 0.98201 0.16117 0.0
H554 H 0.43829 0.89588 0.18768 0.0
H555 H 0.3755 0.85779 0.18189 0.0
H556 H 0.47772 0.99788 0.19904 0.0
H557 H 0.50248 0.92734 0.13289 0.0
H558 H 0.46018 0.92381 0.13708 0.0
H559 H 0.47461 0.90088 0.15453 0.0
C560 C 0.38271 0.93338 0.16286 0.0
C561 C 0.36667 0.89779 0.16791 0.0
C562 C 0.41874 0.95507 0.16614 0.0
C563 C 0.43929 0.94157 0.17447 0.0
C564 C 0.42296 0.90667 0.1809 0.0
H565 H 0.66634 0.02745 0.17185 0.0
H566 H 0.60391 0.99059 0.17989 0.0
C567 C 0.38701 0.88497 0.17763 0.0
C568 C 0.47806 0.96315 0.17478 0.0
H569 H 0.55179 0.97181 0.15049 0.0
C570 C 0.49399 0.99218 0.18851 0.0
C571 C 0.49918 0.95558 0.16103 0.0
C572 C 0.48338 0.92539 0.1454 0.0
C573 C 0.53061 0.01382 0.18889 0.0
C574 C 0.5517 0.0066 0.17483 0.0
C575 C 0.53569 0.97724 0.16136 0.0
C576 C 0.59014 0.03014 0.17269 0.0
C577 C 0.54634 0.04399 0.20449 0.0
C578 C 0.60327 0.06472 0.16618 0.0
C579 C 0.63889 0.08584 0.16166 0.0
C580 C 0.66219 0.07275 0.1633 0.0
C581 C 0.64919 0.0384 0.17045 0.0
C582 C 0.61348 0.01728 0.17502 0.0
H583 H 0.52884 0.03939 0.2186 0.0
H584 H 0.57223 0.04894 0.21058 0.0
H585 H 0.55002 0.06765 0.19602 0.0
H586 H 0.58575 0.07504 0.16373 0.0
H587 H 0.6479 0.11213 0.15614 0.0
H588 H 0.2527 0.29285 0.24065 0.0
H589 H 0.27497 0.27535 0.27174 0.0
H590 H 0.32846 0.38092 0.29492 0.0
H591 H 0.30629 0.39882 0.26379 0.0
H592 H 0.34856 0.3036 0.28234 0.0
H593 H 0.27281 0.32137 0.3485 0.0
H594 H 0.2598 0.31719 0.32032 0.0
H595 H 0.29533 0.35735 0.33017 0.0
C596 C 0.2689 0.31237 0.25245 0.0
C597 C 0.27767 0.34727 0.24973 0.0
C598 C 0.28168 0.30229 0.27018 0.0
C599 C 0.30316 0.32678 0.28567 0.0
C600 C 0.31155 0.36154 0.28326 0.0
H601 H 0.40457 0.31554 0.40368 0.0
H602 H 0.38319 0.33356 0.37245 0.0
C603 C 0.29892 0.37173 0.26544 0.0
C604 C 0.31783 0.31607 0.30388 0.0
H605 H 0.31613 0.30743 0.359 0.0
C606 C 0.34146 0.30433 0.29912 0.0
C607 C 0.30854 0.31719 0.32569 0.0
C608 C 0.28253 0.32869 0.3316 0.0
C609 C 0.35655 0.29418 0.31568 0.0
C610 C 0.34707 0.29502 0.33754 0.0
C611 C 0.32339 0.30677 0.34225 0.0
C612 C 0.36159 0.28419 0.35585 0.0
C613 C 0.38316 0.28352 0.30963 0.0
C614 C 0.35669 0.25041 0.35692 0.0
C615 C 0.36919 0.24005 0.37474 0.0
C616 C 0.38637 0.26317 0.39195 0.0
C617 C 0.39142 0.29704 0.39073 0.0
C618 C 0.37915 0.3074 0.37289 0.0
H619 H 0.39473 0.29359 0.29338 0.0
H620 H 0.40466 0.29296 0.32177 0.0
H621 H 0.37013 0.25478 0.30905 0.0
H622 H 0.34253 0.23178 0.34421 0.0
H623 H 0.36459 0.21371 0.37526 0.0
H624 H 0.8699 0.29102 0.62187 0.0
H625 H 0.90973 0.30751 0.65301 0.0
H626 H 0.9816 0.28925 0.61521 0.0
H627 H 0.9418 0.27215 0.5842 0.0
H628 H 0.97242 0.26216 0.65611 0.0
H629 H 1.00136 0.39886 0.65948 0.0
H630 H 0.95548 0.36768 0.66096 0.0
H631 H 0.97954 0.37084 0.63665 0.0
C632 C 0.8941 0.29038 0.6202 0.0
C633 C 0.90271 0.28043 0.60049 0.0
C634 C 0.91698 0.30008 0.63796 0.0
C635 C 0.94897 0.30028 0.63628 0.0
C636 C 0.95718 0.28952 0.61682 0.0
H637 H 0.12376 0.40179 0.72767 0.0
H638 H 0.08712 0.38424 0.69489 0.0
C639 C 0.93434 0.27974 0.5991 0.0
C640 C 0.97384 0.31137 0.65482 0.0
H641 H 0.0223 0.37935 0.68892 0.0
C642 C 0.98343 0.28782 0.66324 0.0
C643 C 0.98871 0.3451 0.66383 0.0
C644 C 0.98107 0.37223 0.65466 0.0
C645 C 1.00681 0.29677 0.68076 0.0
C646 C 0.02048 0.32996 0.69039 0.0
C647 C 1.01158 0.35382 0.68163 0.0
C648 C 0.04318 0.34004 0.70995 0.0
C649 C 0.01694 0.27071 0.68866 0.0
C650 C 0.03053 0.32119 0.72929 0.0
C651 C 0.05135 0.33103 0.74794 0.0
C652 C 0.08521 0.36018 0.74774 0.0
C653 C 0.09786 0.37914 0.72835 0.0
C654 C 0.07695 0.3692 0.70963 0.0
H655 H 1.01285 0.25136 0.67588 0.0
H656 H 0.04479 0.28371 0.69388 0.0
H657 H 1.00036 0.25646 0.70278 0.0
H658 H 1.00428 0.29909 0.73006 0.0
H659 H 0.04064 0.31596 0.76261 0.0
H660 H 0.7143 0.95263 0.91103 0.0
H661 H 0.73008 0.98775 0.94395 0.0
H662 H 0.62704 0.92091 0.97013 0.0
H663 H 0.61062 0.88607 0.93685 0.0
H664 H 0.64691 0.98858 0.97582 0.0
H665 H 0.75403 0.96548 0.00271 0.0
H666 H 0.76044 0.98256 0.97565 0.0
H667 H 0.72375 0.94035 0.98145 0.0
C668 C 0.69502 0.94515 0.92384 0.0
C669 C 0.66124 0.91638 0.92135 0.0
C670 C 0.70418 0.96522 0.94273 0.0
C671 C 0.67998 0.95664 0.9597 0.0
C672 C 0.64621 0.92792 0.95728 0.0
H673 H 0.73143 0.03729 0.09052 0.0
H674 H 0.71478 1.00242 0.05752 0.0
C675 C 0.6369 0.90797 0.93828 0.0
C676 C 0.68963 0.97824 0.97968 0.0
H677 H 0.74981 0.01077 0.02071 0.0
C678 C 0.66931 0.9933 0.98571 0.0
C679 C 0.71864 0.9841 0.99271 0.0
C680 C 0.74026 0.96699 0.98795 0.0
C681 C 0.67739 0.01434 0.00427 0.0
C682 C 0.70715 0.02123 0.01685 0.0
C683 C 0.72726 0.00587 0.01092 0.0
C684 C 0.71711 0.04295 0.03679 0.0
C685 C 0.65345 0.02827 0.01049 0.0
C686 C 0.72436 0.07758 0.03615 0.0
C687 C 0.73363 0.09762 0.05514 0.0
C688 C 0.73634 0.08351 0.07503 0.0
C689 C 0.72966 0.04904 0.07549 0.0
C690 C 0.72011 0.02901 0.05661 0.0
H691 H 0.62719 0.01309 0.00286 0.0
H692 H 0.6501 0.02788 0.02838 0.0
H693 H 0.66503 0.05552 0.00484 0.0
H694 H 0.72307 0.0892 0.02095 0.0
H695 H 0.73885 0.12415 0.05421 0.0
H696 H 0.61099 0.72451 0.38913 0.0
H697 H 0.62696 0.7034 0.35673 0.0
H698 H 0.7321 0.74465 0.38138 0.0
H699 H 0.71622 0.76508 0.41394 0.0
H700 H 0.67575 0.73638 0.32533 0.0
H701 H 0.70499 0.64472 0.36936 0.0
H702 H 0.68292 0.66529 0.38201 0.0
H703 H 0.7299 0.68828 0.37939 0.0
C704 C 0.63756 0.72922 0.3876 0.0
C705 C 0.66226 0.74622 0.40419 0.0
C706 C 0.64661 0.71707 0.3691 0.0
C707 C 0.68049 0.72169 0.36688 0.0
C708 C 0.70553 0.73986 0.38303 0.0
H709 H 0.782 0.7108 0.24966 0.0
H710 H 0.76151 0.72774 0.28174 0.0
C711 C 0.69646 0.75179 0.40156 0.0
C712 C 0.68985 0.70786 0.34761 0.0
H713 H 0.72413 0.65669 0.33246 0.0
C714 C 0.6861 0.71877 0.32687 0.0
C715 C 0.7027 0.68431 0.3496 0.0
C716 C 0.70503 0.66966 0.37127 0.0
C717 C 0.69591 0.70769 0.30812 0.0
C718 C 0.71066 0.68575 0.31021 0.0
C719 C 0.71331 0.67391 0.33089 0.0
C720 C 0.72392 0.67519 0.29117 0.0
C721 C 0.69004 0.71935 0.28625 0.0
C722 C 0.71075 0.63993 0.28632 0.0
C723 C 0.72282 0.63009 0.2681 0.0
C724 C 0.74829 0.6554 0.25442 0.0
C725 C 0.7621 0.69065 0.2597 0.0
C726 C 0.75021 0.70041 0.27796 0.0
H727 H 0.66923 0.72665 0.28699 0.0
H728 H 0.71459 0.74256 0.28094 0.0
H729 H 0.68258 0.69872 0.27383 0.0
H730 H 0.69068 0.62001 0.29641 0.0
H731 H 0.71168 0.60273 0.2645 0.0
H732 H 0.14444 0.70593 0.6112 0.0
H733 H 0.10639 0.68943 0.64312 0.0
H734 H 0.0454 0.72987 0.61285 0.0
H735 H 0.0837 0.74716 0.58114 0.0
H736 H 0.05893 0.74904 0.65491 0.0
H737 H 1.00799 0.60743 0.64767 0.0
H738 H 0.05491 0.63214 0.64915 0.0
H739 H 0.03252 0.63753 0.62627 0.0
C740 C 0.12299 0.7114 0.61135 0.0
C741 C 0.11704 0.72772 0.59355 0.0
C742 C 0.10107 0.70168 0.62954 0.0
C743 C 0.07257 0.70772 0.63018 0.0
C744 C 0.06707 0.72471 0.61265 0.0
H745 H 0.90123 0.61411 0.72448 0.0
H746 H 0.93586 0.6311 0.69092 0.0
C747 C 0.08905 0.7346 0.59453 0.0
C748 C 0.04878 0.69694 0.64925 0.0
H749 H 0.99461 0.62696 0.68045 0.0
C750 C 0.04474 0.72231 0.66042 0.0
C751 C 0.02972 0.66195 0.6562 0.0
C752 C 0.03116 0.63312 0.64408 0.0
C753 C 0.02289 0.71384 0.67868 0.0
C754 C 1.00518 0.67915 0.68626 0.0
C755 C 1.00847 0.6536 0.67475 0.0
C756 C 0.98394 0.66909 0.70644 0.0
C757 C 0.01872 0.74209 0.68952 0.0
C758 C 0.99957 0.68446 0.7263 0.0
C759 C 0.9799 0.67497 0.74539 0.0
C760 C 0.94419 0.64957 0.74511 0.0
C761 C 0.92862 0.63384 0.72523 0.0
C762 C 0.94838 0.64348 0.70607 0.0
H763 H 0.02496 0.76393 0.67821 0.0
H764 H 0.99165 0.73197 0.69569 0.0
H765 H 0.03708 0.75257 0.70347 0.0
H766 H 0.02715 0.70363 0.72708 0.0
H767 H 0.99285 0.68742 0.76042 0.0
H768 H 0.32913 0.97725 0.09292 0.0
H769 H 0.34605 0.01052 0.05916 0.0
H770 H 0.30361 0.91556 0.0223 0.0
H771 H 0.28638 0.88185 0.05609 0.0
H772 H 0.39087 0.00974 0.0253 0.0
H773 H 0.25586 0.96858 0.99639 0.0
H774 H 0.26542 0.96348 0.02426 0.0
H775 H 0.26426 0.93412 0.00378 0.0
C776 C 0.32328 0.96333 0.07766 0.0
C777 C 0.30623 0.92684 0.07721 0.0
C778 C 0.33306 0.98245 0.05838 0.0
C779 C 0.32574 0.9655 0.03826 0.0
C780 C 0.30904 0.9291 0.03769 0.0
H781 H 0.35602 0.03566 0.90491 0.0
H782 H 0.34132 1.00256 0.93864 0.0
C783 C 0.29936 0.9099 0.057 0.0
C784 C 0.33587 0.98609 0.01794 0.0
H785 H 0.30233 1.00336 0.97261 0.0
C786 C 0.37157 0.00844 0.01376 0.0
C787 C 0.31058 0.9843 0.00299 0.0
C788 C 0.27184 0.96157 0.00706 0.0
C789 C 0.38273 0.02863 0.99478 0.0
C790 C 0.35742 0.02699 0.97984 0.0
C791 C 0.3217 1.00463 0.98408 0.0
C792 C 0.36732 0.04761 0.95947 0.0
C793 C 0.42152 0.05084 0.99065 0.0
C794 C 0.38668 0.08406 0.95993 0.0
C795 C 0.39537 0.10317 0.94058 0.0
C796 C 0.38445 0.08613 0.92046 0.0
C797 C 0.36484 0.04965 0.92011 0.0
C798 C 0.35637 0.03063 0.9394 0.0
H799 H 0.43703 0.04214 0.00043 0.0
H800 H 0.4277 0.0504 0.97321 0.0
H801 H 0.42999 0.07806 0.99524 0.0
H802 H 0.39473 0.09776 0.97526 0.0
H803 H 0.41029 0.13123 0.94141 0.0
H804 H 0.86627 0.17155 0.1298 0.0
H805 H 0.92979 0.19754 0.13302 0.0
H806 H 0.92785 0.24743 0.19269 0.0
H807 H 0.86443 0.22238 0.18923 0.0
H808 H 0.97546 0.2927 0.16595 0.0
H809 H 0.99297 0.17751 0.16999 0.0
H810 H 0.96829 0.17689 0.1466 0.0
H811 H 0.95078 0.17459 0.17335 0.0
C812 C 0.87924 0.18751 0.14384 0.0
C813 C 0.86021 0.19492 0.15925 0.0
C814 C 0.91564 0.20224 0.14572 0.0
C815 C 0.93372 0.22419 0.16323 0.0
C816 C 0.91455 0.23057 0.17904 0.0
H817 H 0.15542 0.31125 0.19434 0.0
H818 H 0.09155 0.27559 0.19257 0.0
C819 C 0.87823 0.21614 0.17707 0.0
C820 C 0.97274 0.24291 0.16411 0.0
H821 H 0.04445 0.23186 0.16261 0.0
C822 C 0.99048 0.27931 0.16537 0.0
C823 C 0.99248 0.22555 0.16356 0.0
C824 C 0.97516 0.18647 0.16353 0.0
C825 C 0.02722 0.29881 0.16579 0.0
C826 C 0.04699 0.28157 0.16427 0.0
C827 C 0.02933 0.24513 0.16342 0.0
C828 C 0.086 0.30103 0.16406 0.0
C829 C 0.04443 0.33771 0.1683 0.0
C830 C 0.10431 0.32638 0.14816 0.0
C831 C 0.1408 0.347 0.14922 0.0
C832 C 0.15983 0.34236 0.16603 0.0
C833 C 0.14162 0.31559 0.1812 0.0
C834 C 0.10506 0.29517 0.18023 0.0
H835 H 0.02619 0.3456 0.17541 0.0
H836 H 0.06806 0.34787 0.17879 0.0
H837 H 0.05253 0.35009 0.15209 0.0
H838 H 0.09029 0.33075 0.13518 0.0
H839 H 0.15399 0.36711 0.13714 0.0
H840 H 0.83789 0.13105 0.5544 0.0
H841 H 0.81297 0.07101 0.54235 0.0
H842 H 0.81159 0.1027 0.47629 0.0
H843 H 0.83701 0.16314 0.48819 0.0
H844 H 0.74818 0.03433 0.52269 0.0
H845 H 0.85174 0.03715 0.4698 0.0
H846 H 0.8602 0.07133 0.48891 0.0
H847 H 0.83965 0.06932 0.46327 0.0
C848 C 0.83284 0.12542 0.53723 0.0
C849 C 0.83933 0.15191 0.52225 0.0
C850 C 0.81859 0.09104 0.53039 0.0
C851 C 0.81066 0.08239 0.50842 0.0
C852 C 0.81811 0.10887 0.49327 0.0
H853 H 0.69124 0.89389 0.43591 0.0
H854 H 0.72932 0.95318 0.4485 0.0
C855 C 0.83248 0.14339 0.50011 0.0
C856 C 0.79173 0.04538 0.50178 0.0
H857 H 0.79575 0.98594 0.46843 0.0
C858 C 0.75872 0.02364 0.51098 0.0
C859 C 0.8055 0.03159 0.48645 0.0
C860 C 0.84135 0.05343 0.47665 0.0
C861 C 0.73866 0.98869 0.50487 0.0
C862 C 0.75229 0.97491 0.48943 0.0
C863 C 0.78545 0.99655 0.48034 0.0
C864 C 0.73162 0.93856 0.48172 0.0
C865 C 0.70253 0.96715 0.51444 0.0
C866 C 0.72099 0.91054 0.49612 0.0
C867 C 0.69904 0.87649 0.489 0.0
C868 C 0.68751 0.86993 0.4673 0.0
C869 C 0.69942 0.898 0.45276 0.0
C870 C 0.72129 0.93195 0.4599 0.0
H871 H 0.69295 0.98354 0.52216 0.0
H872 H 0.68343 0.9508 0.50179 0.0
H873 H 0.70332 0.9497 0.52708 0.0
H874 H 0.72921 0.91507 0.51296 0.0
H875 H 0.69054 0.85545 0.50057 0.0
H876 H 0.84259 0.68214 0.86209 0.0
H877 H 0.81169 0.71519 0.86556 0.0
H878 H 0.80392 0.71778 0.79586 0.0
H879 H 0.83504 0.68518 0.79219 0.0
H880 H 0.82096 0.78153 0.81635 0.0
H881 H 0.70548 0.66929 0.85406 0.0
H882 H 0.74656 0.68291 0.86755 0.0
H883 H 0.73967 0.66506 0.84063 0.0
C884 C 0.83467 0.69007 0.84749 0.0
C885 C 0.84103 0.68068 0.82687 0.0
C886 C 0.81684 0.70881 0.84951 0.0
C887 C 0.80499 0.71845 0.83098 0.0
C888 C 0.81269 0.71049 0.81038 0.0
H889 H 0.63536 0.76204 0.81833 0.0
H890 H 0.67697 0.74084 0.81541 0.0
C891 C 0.83044 0.69175 0.80834 0.0
C892 C 0.78311 0.73532 0.83292 0.0
H893 H 0.70331 0.7211 0.85042 0.0
C894 C 0.79531 0.76845 0.82389 0.0
C895 C 0.74944 0.71797 0.8425 0.0
C896 C 0.73425 0.68173 0.85159 0.0
C897 C 0.77472 0.78469 0.82421 0.0
C898 C 0.74119 0.76743 0.83397 0.0
C899 C 0.72909 0.73437 0.84304 0.0
C900 C 0.71752 0.78245 0.83434 0.0
C901 C 0.78856 0.8197 0.81356 0.0
C902 C 0.72662 0.81321 0.84574 0.0
C903 C 0.70282 0.82552 0.84741 0.0
C904 C 0.66939 0.80715 0.83781 0.0
C905 C 0.66081 0.77687 0.82593 0.0
C906 C 0.68456 0.76463 0.82428 0.0
H907 H 0.81101 0.82586 0.80264 0.0
H908 H 0.76767 0.82085 0.80403 0.0
H909 H 0.79765 0.84003 0.8263 0.0
H910 H 0.75168 0.82711 0.85393 0.0
H911 H 0.71022 0.84881 0.85678 0.0
H912 H 0.86924 0.68145 0.13528 0.0
H913 H 0.93317 0.71746 0.13332 0.0
H914 H 0.93869 0.72445 0.20317 0.0
H915 H 0.87507 0.68832 0.20535 0.0
H916 H 0.98067 0.78519 0.14962 0.0
H917 H 1.00217 0.68376 0.1879 0.0
H918 H 0.96007 0.67477 0.17748 0.0
H919 H 0.97514 0.69573 0.20336 0.0
C920 C 0.88401 0.69088 0.15022 0.0
C921 C 0.867 0.68165 0.17048 0.0
C922 C 0.92056 0.71146 0.14907 0.0
C923 C 0.94074 0.72308 0.16812 0.0
C924 C 0.92371 0.71517 0.18829 0.0
H925 H 0.16559 0.82758 0.19355 0.0
H926 H 0.10202 0.8025 0.19684 0.0
C927 C 0.88727 0.69461 0.18947 0.0
C928 C 0.97962 0.74254 0.16698 0.0
H929 H 0.05245 0.7382 0.1815 0.0
C930 C 0.99641 0.77494 0.15655 0.0
C931 C 1.0001 0.72912 0.17607 0.0
C932 C 0.98354 0.69381 0.18667 0.0
C933 C 0.03316 0.79449 0.15522 0.0
C934 C 0.05362 0.78097 0.16422 0.0
C935 C 0.03679 0.74865 0.17473 0.0
C936 C 0.09244 0.7991 0.16221 0.0
C937 C 0.04976 0.82967 0.14448 0.0
C938 C 0.10823 0.80568 0.14166 0.0
C939 C 0.14452 0.82003 0.13973 0.0
C940 C 0.16584 0.8279 0.15831 0.0
C941 C 0.15003 0.82194 0.1789 0.0
C942 C 0.11367 0.80755 0.18081 0.0
H943 H 0.03171 0.84048 0.14426 0.0
H944 H 0.07434 0.84834 0.15289 0.0
H945 H 0.05625 0.82715 0.12741 0.0
H946 H 0.09238 0.7987 0.12707 0.0
H947 H 0.15572 0.82411 0.1236 0.0
H948 H 0.2269 0.89279 0.54821 0.0
H949 H 0.24891 0.95277 0.53697 0.0
H950 H 0.19115 0.91765 0.47696 0.0
H951 H 0.16876 0.85708 0.48811 0.0
H952 H 0.2887 0.98186 0.49751 0.0
H953 H 0.16754 0.99217 0.50146 0.0
H954 H 0.1719 0.95903 0.51593 0.0
H955 H 0.16495 0.95559 0.48712 0.0
C956 C 0.21853 0.89766 0.53269 0.0
C957 C 0.19609 0.87008 0.51903 0.0
C958 C 0.23117 0.93202 0.5263 0.0
C959 C 0.22145 0.93962 0.50623 0.0
C960 C 0.19857 0.91227 0.49266 0.0
H961 H 0.2917 0.13994 0.4434 0.0
H962 H 0.2593 0.07847 0.45338 0.0
C963 C 0.18594 0.87772 0.49901 0.0
C964 C 0.23723 0.97626 0.49917 0.0
H965 H 0.21919 0.04171 0.48957 0.0
C966 C 0.27353 0.99496 0.49573 0.0
C967 C 0.21726 0.9931 0.49673 0.0
C968 C 0.17826 0.97416 0.5006 0.0
C969 C 0.29051 0.03017 0.49 0.0
C970 C 0.27076 0.0474 0.48819 0.0
C971 C 0.23429 0.02851 0.49116 0.0
C972 C 0.28779 0.08505 0.48331 0.0
C973 C 0.32942 0.04847 0.48566 0.0
C974 C 0.31362 0.10932 0.49724 0.0
C975 C 0.33229 0.14441 0.49156 0.0
C976 C 0.32523 0.15598 0.47191 0.0
C977 C 0.2979 0.1319 0.45861 0.0
C978 C 0.27934 0.09674 0.46427 0.0
H979 H 0.33859 0.0298 0.4818 0.0
H980 H 0.33649 0.06708 0.47197 0.0
H981 H 0.34366 0.06318 0.50036 0.0
H982 H 0.31997 0.10096 0.51227 0.0
H983 H 0.35292 0.16228 0.50228 0.0
H984 H 0.18419 0.32169 0.79654 0.0
H985 H 0.20981 0.28382 0.79917 0.0
H986 H 0.24284 0.31864 0.86477 0.0
H987 H 0.21727 0.35665 0.86234 0.0
H988 H 0.28216 0.30743 0.80803 0.0
H989 H 0.19468 0.21127 0.86901 0.0
H990 H 0.1824 0.23861 0.85394 0.0
H991 H 0.21201 0.25598 0.87655 0.0
C992 C 0.19648 0.32101 0.81166 0.0
C993 C 0.19864 0.34226 0.82925 0.0
C994 C 0.21117 0.29937 0.81309 0.0
C995 C 0.22795 0.29816 0.83221 0.0
C996 C 0.22953 0.31875 0.84997 0.0
H997 H 0.34949 0.20454 0.87431 0.0
H998 H 0.31432 0.23301 0.87084 0.0
C999 C 0.21501 0.34058 0.84852 0.0
C1000 C 0.2457 0.27707 0.83309 0.0
H1001 H 0.24635 0.20977 0.85972 0.0
C1002 C 0.27419 0.28587 0.81919 0.0
C1003 C 0.23533 0.2491 0.84774 0.0
C1004 C 0.20425 0.23788 0.86256 0.0
C1005 C 0.29326 0.26813 0.81997 0.0
C1006 C 0.28298 0.24015 0.83467 0.0
C1007 C 0.25418 0.23111 0.8484 0.0
C1008 C 0.30273 0.22101 0.83674 0.0
C1009 C 0.32504 0.28042 0.8056 0.0
C1010 C 0.30729 0.20398 0.81885 0.0
C1011 C 0.32768 0.18781 0.82073 0.0
C1012 C 0.34356 0.188 0.84063 0.0
C1013 C 0.33777 0.20393 0.85871 0.0
C1014 C 0.31761 0.22024 0.85677 0.0
H1015 H 0.33459 0.30729 0.79965 0.0
H1016 H 0.34677 0.27966 0.81436 0.0
H1017 H 0.31807 0.26314 0.79123 0.0
H1018 H 0.29535 0.20346 0.80335 0.0
H1019 H 0.33134 0.17556 0.80654 0.0
loop_
_geom_bond_atom_site_label_1
_geom_bond_atom_site_label_2
_geom_bond_distance
_geom_bond_site_symmetry_2
_ccdc_geom_bond_type
Mg0 O7 2.141 . S
Mg0 O8 2.048 . S
Mg0 O9 2.048 . S
Mg0 O12 2.141 . S
C1 O2 1.313 . S
C1 O8 1.195 . S
O2 C1 1.313 . S
C3 O4 1.245 . S
C3 O12 1.289 . S
O4 C3 1.245 . S
C5 O6 1.245 . S
C5 O7 1.289 . S
O6 C5 1.245 . S
O7 Mg0 2.141 . S
O7 C5 1.289 . S
O8 Mg0 2.048 . S
O8 C1 1.195 . S
O9 Mg0 2.048 . S
O9 C10 1.195 . S
C10 O9 1.195 . S
C10 O11 1.313 . S
O11 C10 1.313 . S
O12 Mg0 2.141 . S
O12 C3 1.289 . S
Mg13 O20 2.141 . S
Mg13 O21 2.048 . S
Mg13 O22 2.048 . S
Mg13 O25 2.141 . S
C14 O15 1.313 . S
C14 O21 1.195 . S
O15 C14 1.313 . S
C16 O17 1.245 . S
C16 O25 1.289 . S
O17 C16 1.245 . S
C18 O19 1.245 . S
C18 O20 1.289 . S
O19 C18 1.245 . S
O20 Mg13 2.141 . S
O20 C18 1.289 . S
O21 Mg13 2.048 . S
O21 C14 1.195 . S
O22 Mg13 2.048 . S
O22 C23 1.195 . S
C23 O22 1.195 . S
C23 O24 1.313 . S
O24 C23 1.313 . S
O25 Mg13 2.141 . S
O25 C16 1.289 . S
Mg26 O33 2.141 . S
Mg26 O34 2.048 . S
Mg26 O35 2.048 . S
Mg26 O38 2.141 . S
C27 O28 1.313 . S
C27 O34 1.195 . S
O28 C27 1.313 . S
C29 O30 1.245 . S
C29 O38 1.289 . S
O30 C29 1.245 . S
C31 O32 1.245 . S
C31 O33 1.289 . S
O32 C31 1.245 . S
O33 Mg26 2.141 . S
O33 C31 1.289 . S
O34 Mg26 2.048 . S
O34 C27 1.195 . S
O35 Mg26 2.048 . S
O35 C36 1.195 . S
C36 O35 1.195 . S
C36 O37 1.313 . S
O37 C36 1.313 . S
O38 Mg26 2.141 . S
O38 C29 1.289 . S
Mg39 O46 2.141 . S
Mg39 O47 2.048 . S
Mg39 O48 2.048 . S
Mg39 O51 2.141 . S
C40 O41 1.313 . S
C40 O47 1.195 . S
O41 C40 1.313 . S
C42 O43 1.245 . S
C42 O51 1.289 . S
O43 C42 1.245 . S
C44 O45 1.245 . S
C44 O46 1.289 . S
O45 C44 1.245 . S
O46 Mg39 2.141 . S
O46 C44 1.289 . S
O47 Mg39 2.048 . S
O47 C40 1.195 . S
O48 Mg39 2.048 . S
O48 C49 1.195 . S
C49 O48 1.195 . S
C49 O50 1.313 . S
O50 C49 1.313 . S
O51 Mg39 2.141 . S
O51 C42 1.289 . S
Mg52 O59 2.141 . S
Mg52 O60 2.048 . S
Mg52 O61 2.048 . S
Mg52 O64 2.141 . S
C53 O54 1.313 . S
C53 O60 1.195 . S
O54 C53 1.313 . S
C55 O56 1.245 . S
C55 O64 1.289 . S
O56 C55 1.245 . S
C57 O58 1.245 . S
C57 O59 1.289 . S
O58 C57 1.245 . S
O59 Mg52 2.141 . S
O59 C57 1.289 . S
O60 Mg52 2.048 . S
O60 C53 1.195 . S
O61 Mg52 2.048 . S
O61 C62 1.195 . S
C62 O61 1.195 . S
C62 O63 1.313 . S
O63 C62 1.313 . S
O64 Mg52 2.141 . S
O64 C55 1.289 . S
Mg65 O72 2.141 . S
Mg65 O73 2.048 . S
Mg65 O74 2.048 . S
Mg65 O77 2.141 . S
C66 O67 1.313 . S
C66 O73 1.195 . S
O67 C66 1.313 . S
C68 O69 1.245 . S
C68 O77 1.289 . S
O69 C68 1.245 . S
C70 O71 1.245 . S
C70 O72 1.289 . S
O71 C70 1.245 . S
O72 Mg65 2.141 . S
O72 C70 1.289 . S
O73 Mg65 2.048 . S
O73 C66 1.195 . S
O74 Mg65 2.048 . S
O74 C75 1.195 . S
C75 O74 1.195 . S
C75 O76 1.313 . S
O76 C75 1.313 . S
O77 Mg65 2.141 . S
O77 C68 1.289 . S
Mg78 O85 2.141 . S
Mg78 O86 2.048 . S
Mg78 O87 2.048 . S
Mg78 O90 2.141 . S
C79 O80 1.313 . S
C79 O86 1.195 . S
O80 C79 1.313 . S
C81 O82 1.245 . S
C81 O90 1.289 . S
O82 C81 1.245 . S
C83 O84 1.245 . S
C83 O85 1.289 . S
O84 C83 1.245 . S
O85 Mg78 2.141 . S
O85 C83 1.289 . S
O86 Mg78 2.048 . S
O86 C79 1.195 . S
O87 Mg78 2.048 . S
O87 C88 1.195 . S
C88 O87 1.195 . S
C88 O89 1.313 . S
O89 C88 1.313 . S
O90 Mg78 2.141 . S
O90 C81 1.289 . S
Mg91 O98 2.141 . S
Mg91 O99 2.048 . S
Mg91 O100 2.048 . S
Mg91 O103 2.141 . S
C92 O93 1.313 . S
C92 O99 1.195 . S
O93 C92 1.313 . S
C94 O95 1.245 . S
C94 O103 1.289 . S
O95 C94 1.245 . S
C96 O97 1.245 . S
C96 O98 1.289 . S
O97 C96 1.245 . S
O98 Mg91 2.141 . S
O98 C96 1.289 . S
O99 Mg91 2.048 . S
O99 C92 1.195 . S
O100 Mg91 2.048 . S
O100 C101 1.195 . S
C101 O100 1.195 . S
C101 O102 1.313 . S
O102 C101 1.313 . S
O103 Mg91 2.141 . S
O103 C94 1.289 . S
Mg104 O111 2.141 . S
Mg104 O112 2.048 . S
Mg104 O113 2.048 . S
Mg104 O116 2.141 . S
C105 O106 1.313 . S
C105 O112 1.195 . S
O106 C105 1.313 . S
C107 O108 1.245 . S
C107 O116 1.289 . S
O108 C107 1.245 . S
C109 O110 1.245 . S
C109 O111 1.289 . S
O110 C109 1.245 . S
O111 Mg104 2.141 . S
O111 C109 1.289 . S
O112 Mg104 2.048 . S
O112 C105 1.195 . S
O113 Mg104 2.048 . S
O113 C114 1.195 . S
C114 O113 1.195 . S
C114 O115 1.313 . S
O115 C114 1.313 . S
O116 Mg104 2.141 . S
O116 C107 1.289 . S
Mg117 O124 2.141 . S
Mg117 O125 2.048 . S
Mg117 O126 2.048 . S
Mg117 O129 2.141 . S
C118 O119 1.313 . S
C118 O125 1.195 . S
O119 C118 1.313 . S
C120 O121 1.245 . S
C120 O129 1.289 . S
O121 C120 1.245 . S
C122 O123 1.245 . S
C122 O124 1.289 . S
O123 C122 1.245 . S
O124 Mg117 2.141 . S
O124 C122 1.289 . S
O125 Mg117 2.048 . S
O125 C118 1.195 . S
O126 Mg117 2.048 . S
O126 C127 1.195 . S
C127 O126 1.195 . S
C127 O128 1.313 . S
O128 C127 1.313 . S
O129 Mg117 2.141 . S
O129 C120 1.289 . S
Mg130 O137 2.141 . S
Mg130 O138 2.048 . S
Mg130 O139 2.048 . S
Mg130 O142 2.141 . S
C131 O132 1.313 . S
C131 O138 1.195 . S
O132 C131 1.313 . S
C133 O134 1.245 . S
C133 O142 1.289 . S
O134 C133 1.245 . S
C135 O136 1.245 . S
C135 O137 1.289 . S
O136 C135 1.245 . S
O137 Mg130 2.141 . S
O137 C135 1.289 . S
O138 Mg130 2.048 . S
O138 C131 1.195 . S
O139 Mg130 2.048 . S
O139 C140 1.195 . S
C140 O139 1.195 . S
C140 O141 1.313 . S
O141 C140 1.313 . S
O142 Mg130 2.141 . S
O142 C133 1.289 . S
Mg143 O150 2.141 . S
Mg143 O151 2.048 . S
Mg143 O152 2.048 . S
Mg143 O155 2.141 . S
C144 O145 1.313 . S
C144 O151 1.195 . S
O145 C144 1.313 . S
C146 O147 1.245 . S
C146 O155 1.289 . S
O147 C146 1.245 . S
C148 O149 1.245 . S
C148 O150 1.289 . S
O149 C148 1.245 . S
O150 Mg143 2.141 . S
O150 C148 1.289 . S
O151 Mg143 2.048 . S
O151 C144 1.195 . S
O152 Mg143 2.048 . S
O152 C153 1.195 . S
C153 O152 1.195 . S
C153 O154 1.313 . S
O154 C153 1.313 . S
O155 Mg143 2.141 . S
O155 C146 1.289 . S
H156 C164 0.929 . S
H157 C166 0.930 . S
H158 C168 0.930 . S
H159 C171 0.929 . S
H160 C174 0.930 . S
H161 C176 0.960 . S
H162 C176 0.960 . S
H163 C176 0.960 . S
C164 H156 0.929 . S
C164 C165 1.377 . S
C164 C166 1.384 . S
C165 C164 1.377 . S
C165 C171 1.390 . S
C166 H157 0.930 . S
C166 C164 1.384 . S
C166 C167 1.372 . S
C167 C166 1.372 . S
C167 C168 1.400 . S
C167 C172 1.490 . S
C168 H158 0.930 . S
C168 C167 1.400 . S
C168 C171 1.386 . S
H169 C185 0.930 . S
H170 C186 0.931 . S
C171 H159 0.929 . S
C171 C165 1.390 . S
C171 C168 1.386 . S
C172 C167 1.490 . S
C172 C174 1.395 . S
C172 C175 1.403 . S
H173 C179 0.930 . S
C174 H160 0.930 . S
C174 C172 1.395 . S
C174 C177 1.403 . S
C175 C172 1.403 . S
C175 C176 1.524 . S
C175 C179 1.400 . S
C176 H161 0.960 . S
C176 H162 0.960 . S
C176 H163 0.960 . S
C176 C175 1.524 . S
C177 C174 1.403 . S
C177 C178 1.392 . S
C177 C181 1.495 . S
C178 C177 1.392 . S
C178 C179 1.385 . S
C178 C180 1.478 . S
C179 H173 0.930 . S
C179 C175 1.400 . S
C179 C178 1.385 . S
C180 C178 1.478 . S
C180 C182 1.381 . S
C180 C186 1.383 . S
C181 C177 1.495 . S
C181 H187 0.959 . S
C181 H188 0.961 . S
C181 H189 0.960 . S
C182 C180 1.381 . S
C182 C183 1.394 . S
C182 H190 0.930 . S
C183 C182 1.394 . S
C183 C184 1.383 . S
C183 H191 0.929 . S
C184 C183 1.383 . S
C184 C185 1.377 . S
C185 H169 0.930 . S
C185 C184 1.377 . S
C185 C186 1.379 . S
C186 H170 0.931 . S
C186 C180 1.383 . S
C186 C185 1.379 . S
H187 C181 0.959 . S
H188 C181 0.961 . S
H189 C181 0.960 . S
H190 C182 0.930 . S
H191 C183 0.929 . S
H192 C200 0.929 . S
H193 C202 0.930 . S
H194 C204 0.930 . S
H195 C207 0.929 . S
H196 C210 0.930 . S
H197 C212 0.960 . S
H198 C212 0.960 . S
H199 C212 0.960 . S
C200 H192 0.929 . S
C200 C201 1.377 . S
C200 C202 1.384 . S
C201 C200 1.377 . S
C201 C207 1.390 . S
C202 H193 0.930 . S
C202 C200 1.384 . S
C202 C203 1.372 . S
C203 C202 1.372 . S
C203 C204 1.400 . S
C203 C208 1.490 . S
C204 H194 0.930 . S
C204 C203 1.400 . S
C204 C207 1.386 . S
H205 C221 0.930 . S
H206 C222 0.931 . S
C207 H195 0.929 . S
C207 C201 1.390 . S
C207 C204 1.386 . S
C208 C203 1.490 . S
C208 C210 1.395 . S
C208 C211 1.403 . S
H209 C215 0.930 . S
C210 H196 0.930 . S
C210 C208 1.395 . S
C210 C213 1.403 . S
C211 C208 1.403 . S
C211 C212 1.524 . S
C211 C215 1.400 . S
C212 H197 0.960 . S
C212 H198 0.960 . S
C212 H199 0.960 . S
C212 C211 1.524 . S
C213 C210 1.403 . S
C213 C214 1.392 . S
C213 C217 1.495 . S
C214 C213 1.392 . S
C214 C215 1.385 . S
C214 C216 1.478 . S
C215 H209 0.930 . S
C215 C211 1.400 . S
C215 C214 1.385 . S
C216 C214 1.478 . S
C216 C218 1.381 . S
C216 C222 1.383 . S
C217 C213 1.495 . S
C217 H223 0.959 . S
C217 H224 0.961 . S
C217 H225 0.960 . S
C218 C216 1.381 . S
C218 C219 1.394 . S
C218 H226 0.930 . S
C219 C218 1.394 . S
C219 C220 1.383 . S
C219 H227 0.929 . S
C220 C219 1.383 . S
C220 C221 1.377 . S
C221 H205 0.930 . S
C221 C220 1.377 . S
C221 C222 1.379 . S
C222 H206 0.931 . S
C222 C216 1.383 . S
C222 C221 1.379 . S
H223 C217 0.959 . S
H224 C217 0.961 . S
H225 C217 0.960 . S
H226 C218 0.930 . S
H227 C219 0.929 . S
H228 C236 0.929 . S
H229 C238 0.930 . S
H230 C240 0.930 . S
H231 C243 0.929 . S
H232 C246 0.930 . S
H233 C248 0.960 . S
H234 C248 0.960 . S
H235 C248 0.960 . S
C236 H228 0.929 . S
C236 C237 1.377 . S
C236 C238 1.384 . S
C237 C236 1.377 . S
C237 C243 1.390 . S
C238 H229 0.930 . S
C238 C236 1.384 . S
C238 C239 1.372 . S
C239 C238 1.372 . S
C239 C240 1.400 . S
C239 C244 1.490 . S
C240 H230 0.930 . S
C240 C239 1.400 . S
C240 C243 1.386 . S
H241 C257 0.930 . S
H242 C258 0.931 . S
C243 H231 0.929 . S
C243 C237 1.390 . S
C243 C240 1.386 . S
C244 C239 1.490 . S
C244 C246 1.395 . S
C244 C247 1.403 . S
H245 C251 0.930 . S
C246 H232 0.930 . S
C246 C244 1.395 . S
C246 C249 1.403 . S
C247 C244 1.403 . S
C247 C248 1.524 . S
C247 C251 1.400 . S
C248 H233 0.960 . S
C248 H234 0.960 . S
C248 H235 0.960 . S
C248 C247 1.524 . S
C249 C246 1.403 . S
C249 C250 1.392 . S
C249 C253 1.495 . S
C250 C249 1.392 . S
C250 C251 1.385 . S
C250 C252 1.478 . S
C251 H245 0.930 . S
C251 C247 1.400 . S
C251 C250 1.385 . S
C252 C250 1.478 . S
C252 C254 1.381 . S
C252 C258 1.383 . S
C253 C249 1.495 . S
C253 H259 0.959 . S
C253 H260 0.961 . S
C253 H261 0.960 . S
C254 C252 1.381 . S
C254 C255 1.394 . S
C254 H262 0.930 . S
C255 C254 1.394 . S
C255 C256 1.383 . S
C255 H263 0.929 . S
C256 C255 1.383 . S
C256 C257 1.377 . S
C257 H241 0.930 . S
C257 C256 1.377 . S
C257 C258 1.379 . S
C258 H242 0.931 . S
C258 C252 1.383 . S
C258 C257 1.379 . S
H259 C253 0.959 . S
H260 C253 0.961 . S
H261 C253 0.960 . S
H262 C254 0.930 . S
H263 C255 0.929 . S
H264 C272 0.929 . S
H265 C274 0.930 . S
H266 C276 0.930 . S
H267 C279 0.929 . S
H268 C282 0.930 . S
H269 C284 0.960 . S
H270 C284 0.960 . S
H271 C284 0.960 . S
C272 H264 0.929 . S
C272 C273 1.377 . S
C272 C274 1.384 . S
C273 C272 1.377 . S
C273 C279 1.390 . S
C274 H265 0.930 . S
C274 C272 1.384 . S
C274 C275 1.372 . S
C275 C274 1.372 . S
C275 C276 1.400 . S
C275 C280 1.490 . S
C276 H266 0.930 . S
C276 C275 1.400 . S
C276 C279 1.386 . S
H277 C293 0.930 . S
H278 C294 0.931 . S
C279 H267 0.929 . S
C279 C273 1.390 . S
C279 C276 1.386 . S
C280 C275 1.490 . S
C280 C282 1.395 . S
C280 C283 1.403 . S
H281 C287 0.930 . S
C282 H268 0.930 . S
C282 C280 1.395 . S
C282 C285 1.403 . S
C283 C280 1.403 . S
C283 C284 1.524 . S
C283 C287 1.400 . S
C284 H269 0.960 . S
C284 H270 0.960 . S
C284 H271 0.960 . S
C284 C283 1.524 . S
C285 C282 1.403 . S
C285 C286 1.392 . S
C285 C289 1.495 . S
C286 C285 1.392 . S
C286 C287 1.385 . S
C286 C288 1.478 . S
C287 H281 0.930 . S
C287 C283 1.400 . S
C287 C286 1.385 . S
C288 C286 1.478 . S
C288 C290 1.381 . S
C288 C294 1.383 . S
C289 C285 1.495 . S
C289 H295 0.959 . S
C289 H296 0.961 . S
C289 H297 0.960 . S
C290 C288 1.381 . S
C290 C291 1.394 . S
C290 H298 0.930 . S
C291 C290 1.394 . S
C291 C292 1.383 . S
C291 H299 0.929 . S
C292 C291 1.383 . S
C292 C293 1.377 . S
C293 H277 0.930 . S
C293 C292 1.377 . S
C293 C294 1.379 . S
C294 H278 0.931 . S
C294 C288 1.383 . S
C294 C293 1.379 . S
H295 C289 0.959 . S
H296 C289 0.961 . S
H297 C289 0.960 . S
H298 C290 0.930 . S
H299 C291 0.929 . S
H300 C308 0.929 . S
H301 C310 0.930 . S
H302 C312 0.930 . S
H303 C315 0.929 . S
H304 C318 0.930 . S
H305 C320 0.960 . S
H306 C320 0.960 . S
H307 C320 0.960 . S
C308 H300 0.929 . S
C308 C309 1.377 . S
C308 C310 1.384 . S
C309 C308 1.377 . S
C309 C315 1.390 . S
C310 H301 0.930 . S
C310 C308 1.384 . S
C310 C311 1.372 . S
C311 C310 1.372 . S
C311 C312 1.400 . S
C311 C316 1.490 . S
C312 H302 0.930 . S
C312 C311 1.400 . S
C312 C315 1.386 . S
H313 C329 0.930 . S
H314 C330 0.931 . S
C315 H303 0.929 . S
C315 C309 1.390 . S
C315 C312 1.386 . S
C316 C311 1.490 . S
C316 C318 1.395 . S
C316 C319 1.403 . S
H317 C323 0.930 . S
C318 H304 0.930 . S
C318 C316 1.395 . S
C318 C321 1.403 . S
C319 C316 1.403 . S
C319 C320 1.524 . S
C319 C323 1.400 . S
C320 H305 0.960 . S
C320 H306 0.960 . S
C320 H307 0.960 . S
C320 C319 1.524 . S
C321 C318 1.403 . S
C321 C322 1.392 . S
C321 C325 1.495 . S
C322 C321 1.392 . S
C322 C323 1.385 . S
C322 C324 1.478 . S
C323 H317 0.930 . S
C323 C319 1.400 . S
C323 C322 1.385 . S
C324 C322 1.478 . S
C324 C326 1.381 . S
C324 C330 1.383 . S
C325 C321 1.495 . S
C325 H331 0.959 . S
C325 H332 0.961 . S
C325 H333 0.960 . S
C326 C324 1.381 . S
C326 C327 1.394 . S
C326 H334 0.930 . S
C327 C326 1.394 . S
C327 C328 1.383 . S
C327 H335 0.929 . S
C328 C327 1.383 . S
C328 C329 1.377 . S
C329 H313 0.930 . S
C329 C328 1.377 . S
C329 C330 1.379 . S
C330 H314 0.931 . S
C330 C324 1.383 . S
C330 C329 1.379 . S
H331 C325 0.959 . S
H332 C325 0.961 . S
H333 C325 0.960 . S
H334 C326 0.930 . S
H335 C327 0.929 . S
H336 C344 0.929 . S
H337 C346 0.930 . S
H338 C348 0.930 . S
H339 C351 0.929 . S
H340 C354 0.930 . S
H341 C356 0.960 . S
H342 C356 0.960 . S
H343 C356 0.960 . S
C344 H336 0.929 . S
C344 C345 1.377 . S
C344 C346 1.384 . S
C345 C344 1.377 . S
C345 C351 1.390 . S
C346 H337 0.930 . S
C346 C344 1.384 . S
C346 C347 1.372 . S
C347 C346 1.372 . S
C347 C348 1.400 . S
C347 C352 1.490 . S
C348 H338 0.930 . S
C348 C347 1.400 . S
C348 C351 1.386 . S
H349 C365 0.930 . S
H350 C366 0.931 . S
C351 H339 0.929 . S
C351 C345 1.390 . S
C351 C348 1.386 . S
C352 C347 1.490 . S
C352 C354 1.395 . S
C352 C355 1.403 . S
H353 C359 0.930 . S
C354 H340 0.930 . S
C354 C352 1.395 . S
C354 C357 1.403 . S
C355 C352 1.403 . S
C355 C356 1.524 . S
C355 C359 1.400 . S
C356 H341 0.960 . S
C356 H342 0.960 . S
C356 H343 0.960 . S
C356 C355 1.524 . S
C357 C354 1.403 . S
C357 C358 1.392 . S
C357 C361 1.495 . S
C358 C357 1.392 . S
C358 C359 1.385 . S
C358 C360 1.478 . S
C359 H353 0.930 . S
C359 C355 1.400 . S
C359 C358 1.385 . S
C360 C358 1.478 . S
C360 C362 1.381 . S
C360 C366 1.383 . S
C361 C357 1.495 . S
C361 H367 0.959 . S
C361 H368 0.961 . S
C361 H369 0.960 . S
C362 C360 1.381 . S
C362 C363 1.394 . S
C362 H370 0.930 . S
C363 C362 1.394 . S
C363 C364 1.383 . S
C363 H371 0.929 . S
C364 C363 1.383 . S
C364 C365 1.377 . S
C365 H349 0.930 . S
C365 C364 1.377 . S
C365 C366 1.379 . S
C366 H350 0.931 . S
C366 C360 1.383 . S
C366 C365 1.379 . S
H367 C361 0.959 . S
H368 C361 0.961 . S
H369 C361 0.960 . S
H370 C362 0.930 . S
H371 C363 0.929 . S
H372 C380 0.929 . S
H373 C382 0.930 . S
H374 C384 0.930 . S
H375 C387 0.929 . S
H376 C390 0.930 . S
H377 C392 0.960 . S
H378 C392 0.960 . S
H379 C392 0.960 . S
C380 H372 0.929 . S
C380 C381 1.377 . S
C380 C382 1.384 . S
C381 C380 1.377 . S
C381 C387 1.390 . S
C382 H373 0.930 . S
C382 C380 1.384 . S
C382 C383 1.372 . S
C383 C382 1.372 . S
C383 C384 1.400 . S
C383 C388 1.490 . S
C384 H374 0.930 . S
C384 C383 1.400 . S
C384 C387 1.386 . S
H385 C401 0.930 . S
H386 C402 0.931 . S
C387 H375 0.929 . S
C387 C381 1.390 . S
C387 C384 1.386 . S
C388 C383 1.490 . S
C388 C390 1.395 . S
C388 C391 1.403 . S
H389 C395 0.930 . S
C390 H376 0.930 . S
C390 C388 1.395 . S
C390 C393 1.403 . S
C391 C388 1.403 . S
C391 C392 1.524 . S
C391 C395 1.400 . S
C392 H377 0.960 . S
C392 H378 0.960 . S
C392 H379 0.960 . S
C392 C391 1.524 . S
C393 C390 1.403 . S
C393 C394 1.392 . S
C393 C397 1.495 . S
C394 C393 1.392 . S
C394 C395 1.385 . S
C394 C396 1.478 . S
C395 H389 0.930 . S
C395 C391 1.400 . S
C395 C394 1.385 . S
C396 C394 1.478 . S
C396 C398 1.381 . S
C396 C402 1.383 . S
C397 C393 1.495 . S
C397 H403 0.959 . S
C397 H404 0.961 . S
C397 H405 0.960 . S
C398 C396 1.381 . S
C398 C399 1.394 . S
C398 H406 0.930 . S
C399 C398 1.394 . S
C399 C400 1.383 . S
C399 H407 0.929 . S
C400 C399 1.383 . S
C400 C401 1.377 . S
C401 H385 0.930 . S
C401 C400 1.377 . S
C401 C402 1.379 . S
C402 H386 0.931 . S
C402 C396 1.383 . S
C402 C401 1.379 . S
H403 C397 0.959 . S
H404 C397 0.961 . S
H405 C397 0.960 . S
H406 C398 0.930 . S
H407 C399 0.929 . S
H408 C416 0.929 . S
H409 C418 0.930 . S
H410 C420 0.930 . S
H411 C423 0.929 . S
H412 C426 0.930 . S
H413 C428 0.960 . S
H414 C428 0.960 . S
H415 C428 0.960 . S
C416 H408 0.929 . S
C416 C417 1.377 . S
C416 C418 1.384 . S
C417 C416 1.377 . S
C417 C423 1.390 . S
C418 H409 0.930 . S
C418 C416 1.384 . S
C418 C419 1.372 . S
C419 C418 1.372 . S
C419 C420 1.400 . S
C419 C424 1.490 . S
C420 H410 0.930 . S
C420 C419 1.400 . S
C420 C423 1.386 . S
H421 C437 0.930 . S
H422 C438 0.931 . S
C423 H411 0.929 . S
C423 C417 1.390 . S
C423 C420 1.386 . S
C424 C419 1.490 . S
C424 C426 1.395 1_455 S
C424 C427 1.403 . S
H425 C431 0.930 . S
C426 H412 0.930 . S
C426 C424 1.395 1_655 S
C426 C429 1.403 . S
C427 C424 1.403 . S
C427 C428 1.524 . S
C427 C431 1.400 . S
C428 H413 0.960 . S
C428 H414 0.960 . S
C428 H415 0.960 . S
C428 C427 1.524 . S
C429 C426 1.403 . S
C429 C430 1.392 . S
C429 C433 1.495 . S
C430 C429 1.392 . S
C430 C431 1.385 1_655 S
C430 C432 1.478 . S
C431 H425 0.930 . S
C431 C427 1.400 . S
C431 C430 1.385 1_455 S
C432 C430 1.478 . S
C432 C434 1.381 . S
C432 C438 1.383 . S
C433 C429 1.495 . S
C433 H439 0.959 . S
C433 H440 0.961 . S
C433 H441 0.960 . S
C434 C432 1.381 . S
C434 C435 1.394 . S
C434 H442 0.930 . S
C435 C434 1.394 . S
C435 C436 1.383 . S
C435 H443 0.929 . S
C436 C435 1.383 . S
C436 C437 1.377 . S
C437 H421 0.930 . S
C437 C436 1.377 . S
C437 C438 1.379 . S
C438 H422 0.931 . S
C438 C432 1.383 . S
C438 C437 1.379 . S
H439 C433 0.959 . S
H440 C433 0.961 . S
H441 C433 0.960 . S
H442 C434 0.930 . S
H443 C435 0.929 . S
H444 C452 0.929 . S
H445 C454 0.930 . S
H446 C456 0.930 . S
H447 C459 0.929 . S
H448 C462 0.930 . S
H449 C464 0.960 . S
H450 C464 0.960 . S
H451 C464 0.960 . S
C452 H444 0.929 . S
C452 C453 1.377 . S
C452 C454 1.384 . S
C453 C452 1.377 . S
C453 C459 1.390 . S
C454 H445 0.930 . S
C454 C452 1.384 . S
C454 C455 1.372 . S
C455 C454 1.372 . S
C455 C456 1.400 . S
C455 C460 1.490 . S
C456 H446 0.930 . S
C456 C455 1.400 . S
C456 C459 1.386 . S
H457 C473 0.930 . S
H458 C474 0.931 . S
C459 H447 0.929 . S
C459 C453 1.390 . S
C459 C456 1.386 . S
C460 C455 1.490 . S
C460 C462 1.395 1_545 S
C460 C463 1.403 . S
H461 C467 0.930 . S
C462 H448 0.930 . S
C462 C460 1.395 1_565 S
C462 C465 1.403 . S
C463 C460 1.403 . S
C463 C464 1.524 . S
C463 C467 1.400 . S
C464 H449 0.960 . S
C464 H450 0.960 . S
C464 H451 0.960 . S
C464 C463 1.524 . S
C465 C462 1.403 . S
C465 C466 1.392 . S
C465 C469 1.495 . S
C466 C465 1.392 . S
C466 C467 1.385 1_565 S
C466 C468 1.478 . S
C467 H461 0.930 . S
C467 C463 1.400 . S
C467 C466 1.385 1_545 S
C468 C466 1.478 . S
C468 C470 1.381 . S
C468 C474 1.383 . S
C469 C465 1.495 . S
C469 H475 0.959 . S
C469 H476 0.961 . S
C469 H477 0.960 . S
C470 C468 1.381 . S
C470 C471 1.394 . S
C470 H478 0.930 . S
C471 C470 1.394 . S
C471 C472 1.383 . S
C471 H479 0.929 . S
C472 C471 1.383 . S
C472 C473 1.377 . S
C473 H457 0.930 . S
C473 C472 1.377 . S
C473 C474 1.379 . S
C474 H458 0.931 . S
C474 C468 1.383 . S
C474 C473 1.379 . S
H475 C469 0.959 . S
H476 C469 0.961 . S
H477 C469 0.960 . S
H478 C470 0.930 . S
H479 C471 0.929 . S
H480 C488 0.929 . S
H481 C490 0.930 . S
H482 C492 0.930 . S
H483 C495 0.929 . S
H484 C498 0.930 . S
H485 C500 0.960 . S
H486 C500 0.960 . S
H487 C500 0.960 . S
C488 H480 0.929 . S
C488 C489 1.377 . S
C488 C490 1.384 . S
C489 C488 1.377 . S
C489 C495 1.390 . S
C490 H481 0.930 . S
C490 C488 1.384 . S
C490 C491 1.372 . S
C491 C490 1.372 . S
C491 C492 1.400 . S
C491 C496 1.490 . S
C492 H482 0.930 . S
C492 C491 1.400 . S
C492 C495 1.386 . S
H493 C509 0.930 . S
H494 C510 0.931 . S
C495 H483 0.929 . S
C495 C489 1.390 . S
C495 C492 1.386 . S
C496 C491 1.490 . S
C496 C498 1.395 . S
C496 C499 1.403 . S
H497 C503 0.930 . S
C498 H484 0.930 . S
C498 C496 1.395 . S
C498 C501 1.403 . S
C499 C496 1.403 . S
C499 C500 1.524 . S
C499 C503 1.400 . S
C500 H485 0.960 . S
C500 H486 0.960 . S
C500 H487 0.960 . S
C500 C499 1.524 . S
C501 C498 1.403 . S
C501 C502 1.392 . S
C501 C505 1.495 . S
C502 C501 1.392 . S
C502 C503 1.385 . S
C502 C504 1.478 . S
C503 H497 0.930 . S
C503 C499 1.400 . S
C503 C502 1.385 . S
C504 C502 1.478 . S
C504 C506 1.381 . S
C504 C510 1.383 . S
C505 C501 1.495 . S
C505 H511 0.959 . S
C505 H512 0.961 . S
C505 H513 0.960 . S
C506 C504 1.381 . S
C506 C507 1.394 . S
C506 H514 0.930 . S
C507 C506 1.394 . S
C507 C508 1.383 . S
C507 H515 0.929 . S
C508 C507 1.383 . S
C508 C509 1.377 . S
C509 H493 0.930 . S
C509 C508 1.377 . S
C509 C510 1.379 . S
C510 H494 0.931 . S
C510 C504 1.383 . S
C510 C509 1.379 . S
H511 C505 0.959 . S
H512 C505 0.961 . S
H513 C505 0.960 . S
H514 C506 0.930 . S
H515 C507 0.929 . S
H516 C524 0.929 . S
H517 C526 0.930 . S
H518 C528 0.930 . S
H519 C531 0.929 . S
H520 C534 0.930 . S
H521 C536 0.960 . S
H522 C536 0.960 . S
H523 C536 0.960 . S
C524 H516 0.929 . S
C524 C525 1.377 . S
C524 C526 1.384 . S
C525 C524 1.377 . S
C525 C531 1.390 . S
C526 H517 0.930 . S
C526 C524 1.384 . S
C526 C527 1.372 . S
C527 C526 1.372 . S
C527 C528 1.400 . S
C527 C532 1.490 . S
C528 H518 0.930 . S
C528 C527 1.400 . S
C528 C531 1.386 . S
H529 C545 0.930 . S
H530 C546 0.931 . S
C531 H519 0.929 . S
C531 C525 1.390 . S
C531 C528 1.386 . S
C532 C527 1.490 . S
C532 C534 1.395 . S
C532 C535 1.403 1_655 S
H533 C539 0.930 . S
C534 H520 0.930 . S
C534 C532 1.395 . S
C534 C537 1.403 . S
C535 C532 1.403 1_455 S
C535 C536 1.524 . S
C535 C539 1.400 . S
C536 H521 0.960 . S
C536 H522 0.960 . S
C536 H523 0.960 . S
C536 C535 1.524 . S
C537 C534 1.403 . S
C537 C538 1.392 1_655 S
C537 C541 1.495 . S
C538 C537 1.392 1_455 S
C538 C539 1.385 . S
C538 C540 1.478 . S
C539 H533 0.930 . S
C539 C535 1.400 . S
C539 C538 1.385 . S
C540 C538 1.478 . S
C540 C542 1.381 . S
C540 C546 1.383 . S
C541 C537 1.495 . S
C541 H547 0.959 . S
C541 H548 0.961 . S
C541 H549 0.960 . S
C542 C540 1.381 . S
C542 C543 1.394 . S
C542 H550 0.930 . S
C543 C542 1.394 . S
C543 C544 1.383 . S
C543 H551 0.929 . S
C544 C543 1.383 . S
C544 C545 1.377 . S
C545 H529 0.930 . S
C545 C544 1.377 . S
C545 C546 1.379 . S
C546 H530 0.931 . S
C546 C540 1.383 . S
C546 C545 1.379 . S
H547 C541 0.959 . S
H548 C541 0.961 . S
H549 C541 0.960 . S
H550 C542 0.930 . S
H551 C543 0.929 . S
H552 C560 0.929 . S
H553 C562 0.930 . S
H554 C564 0.930 . S
H555 C567 0.929 . S
H556 C570 0.930 . S
H557 C572 0.960 . S
H558 C572 0.960 . S
H559 C572 0.960 . S
C560 H552 0.929 . S
C560 C561 1.377 . S
C560 C562 1.384 . S
C561 C560 1.377 . S
C561 C567 1.390 . S
C562 H553 0.930 . S
C562 C560 1.384 . S
C562 C563 1.372 . S
C563 C562 1.372 . S
C563 C564 1.400 . S
C563 C568 1.490 . S
C564 H554 0.930 . S
C564 C563 1.400 . S
C564 C567 1.386 . S
H565 C581 0.930 . S
H566 C582 0.931 . S
C567 H555 0.929 . S
C567 C561 1.390 . S
C567 C564 1.386 . S
C568 C563 1.490 . S
C568 C570 1.395 1_565 S
C568 C571 1.403 . S
H569 C575 0.930 . S
C570 H556 0.930 . S
C570 C568 1.395 1_545 S
C570 C573 1.403 . S
C571 C568 1.403 . S
C571 C572 1.524 . S
C571 C575 1.400 . S
C572 H557 0.960 . S
C572 H558 0.960 . S
C572 H559 0.960 . S
C572 C571 1.524 . S
C573 C570 1.403 . S
C573 C574 1.392 . S
C573 C577 1.495 . S
C574 C573 1.392 . S
C574 C575 1.385 1_545 S
C574 C576 1.478 . S
C575 H569 0.930 . S
C575 C571 1.400 . S
C575 C574 1.385 1_565 S
C576 C574 1.478 . S
C576 C578 1.381 . S
C576 C582 1.383 . S
C577 C573 1.495 . S
C577 H583 0.959 . S
C577 H584 0.961 . S
C577 H585 0.960 . S
C578 C576 1.381 . S
C578 C579 1.394 . S
C578 H586 0.930 . S
C579 C578 1.394 . S
C579 C580 1.383 . S
C579 H587 0.929 . S
C580 C579 1.383 . S
C580 C581 1.377 . S
C581 H565 0.930 . S
C581 C580 1.377 . S
C581 C582 1.379 . S
C582 H566 0.931 . S
C582 C576 1.383 . S
C582 C581 1.379 . S
H583 C577 0.959 . S
H584 C577 0.961 . S
H585 C577 0.960 . S
H586 C578 0.930 . S
H587 C579 0.929 . S
H588 C596 0.929 . S
H589 C598 0.930 . S
H590 C600 0.930 . S
H591 C603 0.929 . S
H592 C606 0.930 . S
H593 C608 0.960 . S
H594 C608 0.960 . S
H595 C608 0.960 . S
C596 H588 0.929 . S
C596 C597 1.377 . S
C596 C598 1.384 . S
C597 C596 1.377 . S
C597 C603 1.390 . S
C598 H589 0.930 . S
C598 C596 1.384 . S
C598 C599 1.372 . S
C599 C598 1.372 . S
C599 C600 1.400 . S
C599 C604 1.490 . S
C600 H590 0.930 . S
C600 C599 1.400 . S
C600 C603 1.386 . S
H601 C617 0.930 . S
H602 C618 0.931 . S
C603 H591 0.929 . S
C603 C597 1.390 . S
C603 C600 1.386 . S
C604 C599 1.490 . S
C604 C606 1.395 . S
C604 C607 1.403 . S
H605 C611 0.930 . S
C606 H592 0.930 . S
C606 C604 1.395 . S
C606 C609 1.403 . S
C607 C604 1.403 . S
C607 C608 1.524 . S
C607 C611 1.400 . S
C608 H593 0.960 . S
C608 H594 0.960 . S
C608 H595 0.960 . S
C608 C607 1.524 . S
C609 C606 1.403 . S
C609 C610 1.392 . S
C609 C613 1.495 . S
C610 C609 1.392 . S
C610 C611 1.385 . S
C610 C612 1.478 . S
C611 H605 0.930 . S
C611 C607 1.400 . S
C611 C610 1.385 . S
C612 C610 1.478 . S
C612 C614 1.381 . S
C612 C618 1.383 . S
C613 C609 1.495 . S
C613 H619 0.959 . S
C613 H620 0.961 . S
C613 H621 0.960 . S
C614 C612 1.381 . S
C614 C615 1.394 . S
C614 H622 0.930 . S
C615 C614 1.394 . S
C615 C616 1.383 . S
C615 H623 0.929 . S
C616 C615 1.383 . S
C616 C617 1.377 . S
C617 H601 0.930 . S
C617 C616 1.377 . S
C617 C618 1.379 . S
C618 H602 0.931 . S
C618 C612 1.383 . S
C618 C617 1.379 . S
H619 C613 0.959 . S
H620 C613 0.961 . S
H621 C613 0.960 . S
H622 C614 0.930 . S
H623 C615 0.929 . S
H624 C632 0.929 . S
H625 C634 0.930 . S
H626 C636 0.930 1_455 S
H627 C639 0.929 . S
H628 C642 0.930 . S
H629 C644 0.960 . S
H630 C644 0.960 1_655 S
H631 C644 0.960 . S
C632 H624 0.929 . S
C632 C633 1.377 . S
C632 C634 1.384 . S
C633 C632 1.377 . S
C633 C639 1.390 . S
C634 H625 0.930 . S
C634 C632 1.384 . S
C634 C635 1.372 . S
C635 C634 1.372 . S
C635 C636 1.400 . S
C635 C640 1.490 . S
C636 H626 0.930 1_655 S
C636 C635 1.400 . S
C636 C639 1.386 . S
H637 C653 0.930 . S
H638 C654 0.931 . S
C639 H627 0.929 . S
C639 C633 1.390 . S
C639 C636 1.386 . S
C640 C635 1.490 . S
C640 C642 1.395 . S
C640 C643 1.403 1_655 S
H641 C647 0.930 . S
C642 H628 0.930 . S
C642 C640 1.395 . S
C642 C645 1.403 . S
C643 C640 1.403 1_455 S
C643 C644 1.524 . S
C643 C647 1.400 . S
C644 H629 0.960 . S
C644 H630 0.960 1_455 S
C644 H631 0.960 . S
C644 C643 1.524 . S
C645 C642 1.403 . S
C645 C646 1.392 1_655 S
C645 C649 1.495 . S
C646 C645 1.392 1_455 S
C646 C647 1.385 . S
C646 C648 1.478 . S
C647 H641 0.930 . S
C647 C643 1.400 . S
C647 C646 1.385 . S
C648 C646 1.478 . S
C648 C650 1.381 . S
C648 C654 1.383 . S
C649 C645 1.495 . S
C649 H655 0.959 . S
C649 H656 0.961 . S
C649 H657 0.960 . S
C650 C648 1.381 . S
C650 C651 1.394 . S
C650 H658 0.930 1_455 S
C651 C650 1.394 . S
C651 C652 1.383 . S
C651 H659 0.929 . S
C652 C651 1.383 . S
C652 C653 1.377 . S
C653 H637 0.930 . S
C653 C652 1.377 . S
C653 C654 1.379 . S
C654 H638 0.931 . S
C654 C648 1.383 . S
C654 C653 1.379 . S
H655 C649 0.959 . S
H656 C649 0.961 . S
H657 C649 0.960 . S
H658 C650 0.930 1_655 S
H659 C651 0.929 . S
H660 C668 0.929 . S
H661 C670 0.930 1_545 S
H662 C672 0.930 . S
H663 C675 0.929 . S
H664 C678 0.930 . S
H665 C680 0.960 1_554 S
H666 C680 0.960 . S
H667 C680 0.960 . S
C668 H660 0.929 . S
C668 C669 1.377 . S
C668 C670 1.384 . S
C669 C668 1.377 . S
C669 C675 1.390 . S
C670 H661 0.930 1_565 S
C670 C668 1.384 . S
C670 C671 1.372 . S
C671 C670 1.372 . S
C671 C672 1.400 . S
C671 C676 1.490 . S
C672 H662 0.930 . S
C672 C671 1.400 . S
C672 C675 1.386 . S
H673 C689 0.930 . S
H674 C690 0.931 1_565 S
C675 H663 0.929 . S
C675 C669 1.390 . S
C675 C672 1.386 . S
C676 C671 1.490 . S
C676 C678 1.395 1_565 S
C676 C679 1.403 . S
H677 C683 0.930 . S
C678 H664 0.930 . S
C678 C676 1.395 1_545 S
C678 C681 1.403 1_556 S
C679 C676 1.403 . S
C679 C680 1.524 . S
C679 C683 1.400 1_556 S
C680 H665 0.960 1_556 S
C680 H666 0.960 . S
C680 H667 0.960 . S
C680 C679 1.524 . S
C681 C678 1.403 1_554 S
C681 C682 1.392 . S
C681 C685 1.495 . S
C682 C681 1.392 . S
C682 C683 1.385 1_545 S
C682 C684 1.478 . S
C683 H677 0.930 . S
C683 C679 1.400 1_554 S
C683 C682 1.385 1_565 S
C684 C682 1.478 . S
C684 C686 1.381 . S
C684 C690 1.383 . S
C685 C681 1.495 . S
C685 H691 0.959 1_554 S
C685 H692 0.961 . S
C685 H693 0.960 . S
C686 C684 1.381 . S
C686 C687 1.394 . S
C686 H694 0.930 . S
C687 C686 1.394 . S
C687 C688 1.383 . S
C687 H695 0.929 . S
C688 C687 1.383 . S
C688 C689 1.377 . S
C689 H673 0.930 . S
C689 C688 1.377 . S
C689 C690 1.379 . S
C690 H674 0.931 1_545 S
C690 C684 1.383 . S
C690 C689 1.379 . S
H691 C685 0.959 1_556 S
H692 C685 0.961 . S
H693 C685 0.960 . S
H694 C686 0.930 . S
H695 C687 0.929 . S
H696 C704 0.929 . S
H697 C706 0.930 . S
H698 C708 0.930 . S
H699 C711 0.929 . S
H700 C714 0.930 . S
H701 C716 0.960 . S
H702 C716 0.960 . S
H703 C716 0.960 . S
C704 H696 0.929 . S
C704 C705 1.377 . S
C704 C706 1.384 . S
C705 C704 1.377 . S
C705 C711 1.390 . S
C706 H697 0.930 . S
C706 C704 1.384 . S
C706 C707 1.372 . S
C707 C706 1.372 . S
C707 C708 1.400 . S
C707 C712 1.490 . S
C708 H698 0.930 . S
C708 C707 1.400 . S
C708 C711 1.386 . S
H709 C725 0.930 . S
H710 C726 0.931 . S
C711 H699 0.929 . S
C711 C705 1.390 . S
C711 C708 1.386 . S
C712 C707 1.490 . S
C712 C714 1.395 . S
C712 C715 1.403 . S
H713 C719 0.930 . S
C714 H700 0.930 . S
C714 C712 1.395 . S
C714 C717 1.403 . S
C715 C712 1.403 . S
C715 C716 1.524 . S
C715 C719 1.400 . S
C716 H701 0.960 . S
C716 H702 0.960 . S
C716 H703 0.960 . S
C716 C715 1.524 . S
C717 C714 1.403 . S
C717 C718 1.392 . S
C717 C721 1.495 . S
C718 C717 1.392 . S
C718 C719 1.385 . S
C718 C720 1.478 . S
C719 H713 0.930 . S
C719 C715 1.400 . S
C719 C718 1.385 . S
C720 C718 1.478 . S
C720 C722 1.381 . S
C720 C726 1.383 . S
C721 C717 1.495 . S
C721 H727 0.959 . S
C721 H728 0.961 . S
C721 H729 0.960 . S
C722 C720 1.381 . S
C722 C723 1.394 . S
C722 H730 0.930 . S
C723 C722 1.394 . S
C723 C724 1.383 . S
C723 H731 0.929 . S
C724 C723 1.383 . S
C724 C725 1.377 . S
C725 H709 0.930 . S
C725 C724 1.377 . S
C725 C726 1.379 . S
C726 H710 0.931 . S
C726 C720 1.383 . S
C726 C725 1.379 . S
H727 C721 0.959 . S
H728 C721 0.961 . S
H729 C721 0.960 . S
H730 C722 0.930 . S
H731 C723 0.929 . S
H732 C740 0.929 . S
H733 C742 0.930 . S
H734 C744 0.930 1_655 S
H735 C747 0.929 . S
H736 C750 0.930 . S
H737 C752 0.960 . S
H738 C752 0.960 . S
H739 C752 0.960 . S
C740 H732 0.929 . S
C740 C741 1.377 . S
C740 C742 1.384 . S
C741 C740 1.377 . S
C741 C747 1.390 . S
C742 H733 0.930 . S
C742 C740 1.384 . S
C742 C743 1.372 . S
C743 C742 1.372 . S
C743 C744 1.400 . S
C743 C748 1.490 . S
C744 H734 0.930 1_455 S
C744 C743 1.400 . S
C744 C747 1.386 . S
H745 C761 0.930 . S
H746 C762 0.931 . S
C747 H735 0.929 . S
C747 C741 1.390 . S
C747 C744 1.386 . S
C748 C743 1.490 . S
C748 C750 1.395 . S
C748 C751 1.403 1_455 S
H749 C755 0.930 . S
C750 H736 0.930 . S
C750 C748 1.395 . S
C750 C753 1.403 . S
C751 C748 1.403 1_655 S
C751 C752 1.524 . S
C751 C755 1.400 . S
C752 H737 0.960 . S
C752 H738 0.960 . S
C752 H739 0.960 . S
C752 C751 1.524 . S
C753 C750 1.403 . S
C753 C754 1.392 1_455 S
C753 C757 1.495 . S
C754 C753 1.392 1_655 S
C754 C755 1.385 . S
C754 C756 1.478 . S
C755 H749 0.930 . S
C755 C751 1.400 . S
C755 C754 1.385 . S
C756 C754 1.478 . S
C756 C758 1.381 . S
C756 C762 1.383 . S
C757 C753 1.495 . S
C757 H763 0.959 . S
C757 H764 0.961 . S
C757 H765 0.960 . S
C758 C756 1.381 . S
C758 C759 1.394 . S
C758 H766 0.930 1_655 S
C759 C758 1.394 . S
C759 C760 1.383 . S
C759 H767 0.929 . S
C760 C759 1.383 . S
C760 C761 1.377 . S
C761 H745 0.930 . S
C761 C760 1.377 . S
C761 C762 1.379 . S
C762 H746 0.931 . S
C762 C756 1.383 . S
C762 C761 1.379 . S
H763 C757 0.959 . S
H764 C757 0.961 . S
H765 C757 0.960 . S
H766 C758 0.930 1_455 S
H767 C759 0.929 . S
H768 C776 0.929 . S
H769 C778 0.930 1_545 S
H770 C780 0.930 . S
H771 C783 0.929 . S
H772 C786 0.930 . S
H773 C788 0.960 1_556 S
H774 C788 0.960 . S
H775 C788 0.960 . S
C776 H768 0.929 . S
C776 C777 1.377 . S
C776 C778 1.384 . S
C777 C776 1.377 . S
C777 C783 1.390 . S
C778 H769 0.930 1_565 S
C778 C776 1.384 . S
C778 C779 1.372 . S
C779 C778 1.372 . S
C779 C780 1.400 . S
C779 C784 1.490 . S
C780 H770 0.930 . S
C780 C779 1.400 . S
C780 C783 1.386 . S
H781 C797 0.930 . S
H782 C798 0.931 1_565 S
C783 H771 0.929 . S
C783 C777 1.390 . S
C783 C780 1.386 . S
C784 C779 1.490 . S
C784 C786 1.395 1_565 S
C784 C787 1.403 . S
H785 C791 0.930 . S
C786 H772 0.930 . S
C786 C784 1.395 1_545 S
C786 C789 1.403 1_554 S
C787 C784 1.403 . S
C787 C788 1.524 . S
C787 C791 1.400 1_554 S
C788 H773 0.960 1_554 S
C788 H774 0.960 . S
C788 H775 0.960 . S
C788 C787 1.524 . S
C789 C786 1.403 1_556 S
C789 C790 1.392 . S
C789 C793 1.495 . S
C790 C789 1.392 . S
C790 C791 1.385 1_545 S
C790 C792 1.478 . S
C791 H785 0.930 . S
C791 C787 1.400 1_556 S
C791 C790 1.385 1_565 S
C792 C790 1.478 . S
C792 C794 1.381 . S
C792 C798 1.383 . S
C793 C789 1.495 . S
C793 H799 0.959 1_556 S
C793 H800 0.961 . S
C793 H801 0.960 . S
C794 C792 1.381 . S
C794 C795 1.394 . S
C794 H802 0.930 . S
C795 C794 1.394 . S
C795 C796 1.383 . S
C795 H803 0.929 . S
C796 C795 1.383 . S
C796 C797 1.377 . S
C797 H781 0.930 . S
C797 C796 1.377 . S
C797 C798 1.379 . S
C798 H782 0.931 1_545 S
C798 C792 1.383 . S
C798 C797 1.379 . S
H799 C793 0.959 1_554 S
H800 C793 0.961 . S
H801 C793 0.960 . S
H802 C794 0.930 . S
H803 C795 0.929 . S
H804 C812 0.929 . S
H805 C814 0.930 . S
H806 C816 0.930 . S
H807 C819 0.929 . S
H808 C822 0.930 . S
H809 C824 0.960 . S
H810 C824 0.960 . S
H811 C824 0.960 . S
C812 H804 0.929 . S
C812 C813 1.377 . S
C812 C814 1.384 . S
C813 C812 1.377 . S
C813 C819 1.390 . S
C814 H805 0.930 . S
C814 C812 1.384 . S
C814 C815 1.372 . S
C815 C814 1.372 . S
C815 C816 1.400 . S
C815 C820 1.490 . S
C816 H806 0.930 . S
C816 C815 1.400 . S
C816 C819 1.386 . S
H817 C833 0.930 . S
H818 C834 0.931 . S
C819 H807 0.929 . S
C819 C813 1.390 . S
C819 C816 1.386 . S
C820 C815 1.490 . S
C820 C822 1.395 . S
C820 C823 1.403 . S
H821 C827 0.930 . S
C822 H808 0.930 . S
C822 C820 1.395 . S
C822 C825 1.403 1_655 S
C823 C820 1.403 . S
C823 C824 1.524 . S
C823 C827 1.400 1_655 S
C824 H809 0.960 . S
C824 H810 0.960 . S
C824 H811 0.960 . S
C824 C823 1.524 . S
C825 C822 1.403 1_455 S
C825 C826 1.392 . S
C825 C829 1.495 . S
C826 C825 1.392 . S
C826 C827 1.385 . S
C826 C828 1.478 . S
C827 H821 0.930 . S
C827 C823 1.400 1_455 S
C827 C826 1.385 . S
C828 C826 1.478 . S
C828 C830 1.381 . S
C828 C834 1.383 . S
C829 C825 1.495 . S
C829 H835 0.959 . S
C829 H836 0.961 . S
C829 H837 0.960 . S
C830 C828 1.381 . S
C830 C831 1.394 . S
C830 H838 0.930 . S
C831 C830 1.394 . S
C831 C832 1.383 . S
C831 H839 0.929 . S
C832 C831 1.383 . S
C832 C833 1.377 . S
C833 H817 0.930 . S
C833 C832 1.377 . S
C833 C834 1.379 . S
C834 H818 0.931 . S
C834 C828 1.383 . S
C834 C833 1.379 . S
H835 C829 0.959 . S
H836 C829 0.961 . S
H837 C829 0.960 . S
H838 C830 0.930 . S
H839 C831 0.929 . S
H840 C848 0.929 . S
H841 C850 0.930 . S
H842 C852 0.930 . S
H843 C855 0.929 . S
H844 C858 0.930 . S
H845 C860 0.960 . S
H846 C860 0.960 . S
H847 C860 0.960 . S
C848 H840 0.929 . S
C848 C849 1.377 . S
C848 C850 1.384 . S
C849 C848 1.377 . S
C849 C855 1.390 . S
C850 H841 0.930 . S
C850 C848 1.384 . S
C850 C851 1.372 . S
C851 C850 1.372 . S
C851 C852 1.400 . S
C851 C856 1.490 . S
C852 H842 0.930 . S
C852 C851 1.400 . S
C852 C855 1.386 . S
H853 C869 0.930 . S
H854 C870 0.931 . S
C855 H843 0.929 . S
C855 C849 1.390 . S
C855 C852 1.386 . S
C856 C851 1.490 . S
C856 C858 1.395 . S
C856 C859 1.403 . S
H857 C863 0.930 . S
C858 H844 0.930 . S
C858 C856 1.395 . S
C858 C861 1.403 1_545 S
C859 C856 1.403 . S
C859 C860 1.524 . S
C859 C863 1.400 1_545 S
C860 H845 0.960 . S
C860 H846 0.960 . S
C860 H847 0.960 . S
C860 C859 1.524 . S
C861 C858 1.403 1_565 S
C861 C862 1.392 . S
C861 C865 1.495 . S
C862 C861 1.392 . S
C862 C863 1.385 . S
C862 C864 1.478 . S
C863 H857 0.930 . S
C863 C859 1.400 1_565 S
C863 C862 1.385 . S
C864 C862 1.478 . S
C864 C866 1.381 . S
C864 C870 1.383 . S
C865 C861 1.495 . S
C865 H871 0.959 . S
C865 H872 0.961 . S
C865 H873 0.960 . S
C866 C864 1.381 . S
C866 C867 1.394 . S
C866 H874 0.930 . S
C867 C866 1.394 . S
C867 C868 1.383 . S
C867 H875 0.929 . S
C868 C867 1.383 . S
C868 C869 1.377 . S
C869 H853 0.930 . S
C869 C868 1.377 . S
C869 C870 1.379 . S
C870 H854 0.931 . S
C870 C864 1.383 . S
C870 C869 1.379 . S
H871 C865 0.959 . S
H872 C865 0.961 . S
H873 C865 0.960 . S
H874 C866 0.930 . S
H875 C867 0.929 . S
H876 C884 0.929 . S
H877 C886 0.930 . S
H878 C888 0.930 . S
H879 C891 0.929 . S
H880 C894 0.930 . S
H881 C896 0.960 . S
H882 C896 0.960 . S
H883 C896 0.960 . S
C884 H876 0.929 . S
C884 C885 1.377 . S
C884 C886 1.384 . S
C885 C884 1.377 . S
C885 C891 1.390 . S
C886 H877 0.930 . S
C886 C884 1.384 . S
C886 C887 1.372 . S
C887 C886 1.372 . S
C887 C888 1.400 . S
C887 C892 1.490 . S
C888 H878 0.930 . S
C888 C887 1.400 . S
C888 C891 1.386 . S
H889 C905 0.930 . S
H890 C906 0.931 . S
C891 H879 0.929 . S
C891 C885 1.390 . S
C891 C888 1.386 . S
C892 C887 1.490 . S
C892 C894 1.395 . S
C892 C895 1.403 . S
H893 C899 0.930 . S
C894 H880 0.930 . S
C894 C892 1.395 . S
C894 C897 1.403 . S
C895 C892 1.403 . S
C895 C896 1.524 . S
C895 C899 1.400 . S
C896 H881 0.960 . S
C896 H882 0.960 . S
C896 H883 0.960 . S
C896 C895 1.524 . S
C897 C894 1.403 . S
C897 C898 1.392 . S
C897 C901 1.495 . S
C898 C897 1.392 . S
C898 C899 1.385 . S
C898 C900 1.478 . S
C899 H893 0.930 . S
C899 C895 1.400 . S
C899 C898 1.385 . S
C900 C898 1.478 . S
C900 C902 1.381 . S
C900 C906 1.383 . S
C901 C897 1.495 . S
C901 H907 0.959 . S
C901 H908 0.961 . S
C901 H909 0.960 . S
C902 C900 1.381 . S
C902 C903 1.394 . S
C902 H910 0.930 . S
C903 C902 1.394 . S
C903 C904 1.383 . S
C903 H911 0.929 . S
C904 C903 1.383 . S
C904 C905 1.377 . S
C905 H889 0.930 . S
C905 C904 1.377 . S
C905 C906 1.379 . S
C906 H890 0.931 . S
C906 C900 1.383 . S
C906 C905 1.379 . S
H907 C901 0.959 . S
H908 C901 0.961 . S
H909 C901 0.960 . S
H910 C902 0.930 . S
H911 C903 0.929 . S
H912 C920 0.929 . S
H913 C922 0.930 . S
H914 C924 0.930 . S
H915 C927 0.929 . S
H916 C930 0.930 . S
H917 C932 0.960 . S
H918 C932 0.960 . S
H919 C932 0.960 . S
C920 H912 0.929 . S
C920 C921 1.377 . S
C920 C922 1.384 . S
C921 C920 1.377 . S
C921 C927 1.390 . S
C922 H913 0.930 . S
C922 C920 1.384 . S
C922 C923 1.372 . S
C923 C922 1.372 . S
C923 C924 1.400 . S
C923 C928 1.490 . S
C924 H914 0.930 . S
C924 C923 1.400 . S
C924 C927 1.386 . S
H925 C941 0.930 . S
H926 C942 0.931 . S
C927 H915 0.929 . S
C927 C921 1.390 . S
C927 C924 1.386 . S
C928 C923 1.490 . S
C928 C930 1.395 . S
C928 C931 1.403 . S
H929 C935 0.930 . S
C930 H916 0.930 . S
C930 C928 1.395 . S
C930 C933 1.403 1_655 S
C931 C928 1.403 . S
C931 C932 1.524 . S
C931 C935 1.400 1_655 S
C932 H917 0.960 . S
C932 H918 0.960 . S
C932 H919 0.960 . S
C932 C931 1.524 . S
C933 C930 1.403 1_455 S
C933 C934 1.392 . S
C933 C937 1.495 . S
C934 C933 1.392 . S
C934 C935 1.385 . S
C934 C936 1.478 . S
C935 H929 0.930 . S
C935 C931 1.400 1_455 S
C935 C934 1.385 . S
C936 C934 1.478 . S
C936 C938 1.381 . S
C936 C942 1.383 . S
C937 C933 1.495 . S
C937 H943 0.959 . S
C937 H944 0.961 . S
C937 H945 0.960 . S
C938 C936 1.381 . S
C938 C939 1.394 . S
C938 H946 0.930 . S
C939 C938 1.394 . S
C939 C940 1.383 . S
C939 H947 0.929 . S
C940 C939 1.383 . S
C940 C941 1.377 . S
C941 H925 0.930 . S
C941 C940 1.377 . S
C941 C942 1.379 . S
C942 H926 0.931 . S
C942 C936 1.383 . S
C942 C941 1.379 . S
H943 C937 0.959 . S
H944 C937 0.961 . S
H945 C937 0.960 . S
H946 C938 0.930 . S
H947 C939 0.929 . S
H948 C956 0.929 . S
H949 C958 0.930 . S
H950 C960 0.930 . S
H951 C963 0.929 . S
H952 C966 0.930 . S
H953 C968 0.960 1_545 S
H954 C968 0.960 . S
H955 C968 0.960 . S
C956 H948 0.929 . S
C956 C957 1.377 . S
C956 C958 1.384 . S
C957 C956 1.377 . S
C957 C963 1.390 . S
C958 H949 0.930 . S
C958 C956 1.384 . S
C958 C959 1.372 . S
C959 C958 1.372 . S
C959 C960 1.400 . S
C959 C964 1.490 . S
C960 H950 0.930 . S
C960 C959 1.400 . S
C960 C963 1.386 . S
H961 C977 0.930 . S
H962 C978 0.931 . S
C963 H951 0.929 . S
C963 C957 1.390 . S
C963 C960 1.386 . S
C964 C959 1.490 . S
C964 C966 1.395 . S
C964 C967 1.403 . S
H965 C971 0.930 . S
C966 H952 0.930 . S
C966 C964 1.395 . S
C966 C969 1.403 1_565 S
C967 C964 1.403 . S
C967 C968 1.524 . S
C967 C971 1.400 1_565 S
C968 H953 0.960 1_565 S
C968 H954 0.960 . S
C968 H955 0.960 . S
C968 C967 1.524 . S
C969 C966 1.403 1_545 S
C969 C970 1.392 . S
C969 C973 1.495 . S
C970 C969 1.392 . S
C970 C971 1.385 . S
C970 C972 1.478 . S
C971 H965 0.930 . S
C971 C967 1.400 1_545 S
C971 C970 1.385 . S
C972 C970 1.478 . S
C972 C974 1.381 . S
C972 C978 1.383 . S
C973 C969 1.495 . S
C973 H979 0.962 1_545 S
C973 H980 0.961 . S
C973 H981 0.960 . S
C974 C972 1.381 . S
C974 C975 1.394 . S
C974 H982 0.930 . S
C975 C974 1.394 . S
C975 C976 1.383 . S
C975 H983 0.929 . S
C976 C975 1.383 . S
C976 C977 1.377 . S
C977 H961 0.930 . S
C977 C976 1.377 . S
C977 C978 1.379 . S
C978 H962 0.931 . S
C978 C972 1.383 . S
C978 C977 1.379 . S
H979 C973 0.962 1_565 S
H980 C973 0.961 . S
H981 C973 0.960 . S
H982 C974 0.930 . S
H983 C975 0.929 . S
H984 C992 0.929 . S
H985 C994 0.930 . S
H986 C996 0.930 . S
H987 C999 0.929 . S
H988 C1002 0.930 . S
H989 C1004 0.960 . S
H990 C1004 0.960 . S
H991 C1004 0.960 . S
C992 H984 0.929 . S
C992 C993 1.377 . S
C992 C994 1.384 . S
C993 C992 1.377 . S
C993 C999 1.390 . S
C994 H985 0.930 . S
C994 C992 1.384 . S
C994 C995 1.372 . S
C995 C994 1.372 . S
C995 C996 1.400 . S
C995 C1000 1.490 . S
C996 H986 0.930 . S
C996 C995 1.400 . S
C996 C999 1.386 . S
H997 C1013 0.930 . S
H998 C1014 0.931 . S
C999 H987 0.929 . S
C999 C993 1.390 . S
C999 C996 1.386 . S
C1000 C995 1.490 . S
C1000 C1002 1.395 . S
C1000 C1003 1.403 . S
H1001 C1007 0.930 . S
C1002 H988 0.930 . S
C1002 C1000 1.395 . S
C1002 C1005 1.403 . S
C1003 C1000 1.403 . S
C1003 C1004 1.524 . S
C1003 C1007 1.400 . S
C1004 H989 0.960 . S
C1004 H990 0.960 . S
C1004 H991 0.960 . S
C1004 C1003 1.524 . S
C1005 C1002 1.403 . S
C1005 C1006 1.392 . S
C1005 C1009 1.495 . S
C1006 C1005 1.392 . S
C1006 C1007 1.385 . S
C1006 C1008 1.478 . S
C1007 H1001 0.930 . S
C1007 C1003 1.400 . S
C1007 C1006 1.385 . S
C1008 C1006 1.478 . S
C1008 C1010 1.381 . S
C1008 C1014 1.383 . S
C1009 C1005 1.495 . S
C1009 H1015 0.959 . S
C1009 H1016 0.961 . S
C1009 H1017 0.960 . S
C1010 C1008 1.381 . S
C1010 C1011 1.394 . S
C1010 H1018 0.930 . S
C1011 C1010 1.394 . S
C1011 C1012 1.383 . S
C1011 H1019 0.929 . S
C1012 C1011 1.383 . S
C1012 C1013 1.377 . S
C1013 H997 0.930 . S
C1013 C1012 1.377 . S
C1013 C1014 1.379 . S
C1014 H998 0.931 . S
C1014 C1008 1.383 . S
C1014 C1013 1.379 . S
H1015 C1009 0.959 . S
H1016 C1009 0.961 . S
H1017 C1009 0.960 . S
H1018 C1010 0.930 . S
H1019 C1011 0.929 . S
C165 C105 2.708 . S
C184 C1 2.702 . S
C201 C23 2.593 . S
C220 C127 2.593 . S
C237 C27 2.708 . S
C256 C131 2.693 . S
C273 C40 2.708 . S
C292 C144 2.695 . S
C309 C88 2.586 . S
C328 C62 2.563 . S
C345 C66 2.708 . S
C364 C92 2.702 . S
C381 C49 1.304 . S
C400 C10 1.310 . S
C417 C53 1.312 . S
C436 C14 1.309 . S
C453 C75 1.304 . S
C472 C36 1.308 . S
C489 C79 1.313 . S
C508 C118 1.315 . S
C525 C101 1.298 . S
C544 C140 1.286 . S
C561 C114 1.304 . S
C580 C153 1.306 . S
C597 C3 2.080 . S
C616 C122 1.903 . S
C633 C18 1.930 . S
C652 C133 2.087 . S
C669 C29 2.080 . S
C688 C146 2.059 . S
C705 C83 1.935 . S
C724 C42 2.085 . S
C741 C57 1.930 . S
C760 C94 2.087 . S
C777 C107 2.080 . S
C796 C68 2.058 . S
C813 C148 1.215 . S
C832 C5 1.210 . S
C849 C16 1.237 . S
C868 C81 1.227 . S
C885 C96 1.210 . S
C904 C31 1.210 . S
C921 C44 1.212 . S
C940 C109 1.216 . S
C957 C55 1.236 . S
C976 C120 1.229 . S
C993 C135 1.212 . S
C1012 C70 1.196 . S
