# Generated by pormake.
# Topology zfo, (5)-cn, num edge types: 1
# Building blocks:
#     Node 0, Type 0, BuildingBlock: BEQFEK_clean_sbu_0, # of connection points: 5
#     Node 1, Type 0, BuildingBlock: BEQFEK_clean_sbu_0, # of connection points: 5
#     Node 2, Type 0, BuildingBlock: BEQFEK_clean_sbu_0, # of connection points: 5
#     Node 3, Type 0, BuildingBlock: BEQFEK_clean_sbu_0, # of connection points: 5
#     Node 4, Type 0, BuildingBlock: BEQFEK_clean_sbu_0, # of connection points: 5
#     Node 5, Type 0, BuildingBlock: BEQFEK_clean_sbu_0, # of connection points: 5
#     Node 6, Type 0, BuildingBlock: BEQFEK_clean_sbu_0, # of connection points: 5
#     Node 7, Type 0, BuildingBlock: BEQFEK_clean_sbu_0, # of connection points: 5
#     Node 8, Type 0, BuildingBlock: BEQFEK_clean_sbu_0, # of connection points: 5
#     Node 9, Type 0, BuildingBlock: BEQFEK_clean_sbu_0, # of connection points: 5
#     Node 10, Type 0, BuildingBlock: BEQFEK_clean_sbu_0, # of connection points: 5
#     Node 11, Type 0, BuildingBlock: BEQFEK_clean_sbu_0, # of connection points: 5
#     Node 12, Type 0, BuildingBlock: BEQFEK_clean_sbu_0, # of connection points: 5
#     Node 13, Type 0, BuildingBlock: BEQFEK_clean_sbu_0, # of connection points: 5
#     Node 14, Type 0, BuildingBlock: BEQFEK_clean_sbu_0, # of connection points: 5
#     Node 15, Type 0, BuildingBlock: BEQFEK_clean_sbu_0, # of connection points: 5
#     Edge 16, Type (0, 0), BuildingBlock: MIFKUJ_clean_linker_0, # of connection points: 2
#     Edge 17, Type (0, 0), BuildingBlock: MIFKUJ_clean_linker_0, # of connection points: 2
#     Edge 18, Type (0, 0), BuildingBlock: MIFKUJ_clean_linker_0, # of connection points: 2
#     Edge 19, Type (0, 0), BuildingBlock: MIFKUJ_clean_linker_0, # of connection points: 2
#     Edge 20, Type (0, 0), BuildingBlock: MIFKUJ_clean_linker_0, # of connection points: 2
#     Edge 21, Type (0, 0), BuildingBlock: MIFKUJ_clean_linker_0, # of connection points: 2
#     Edge 22, Type (0, 0), BuildingBlock: MIFKUJ_clean_linker_0, # of connection points: 2
#     Edge 23, Type (0, 0), BuildingBlock: MIFKUJ_clean_linker_0, # of connection points: 2
#     Edge 24, Type (0, 0), BuildingBlock: MIFKUJ_clean_linker_0, # of connection points: 2
#     Edge 25, Type (0, 0), BuildingBlock: MIFKUJ_clean_linker_0, # of connection points: 2
#     Edge 26, Type (0, 0), BuildingBlock: MIFKUJ_clean_linker_0, # of connection points: 2
#     Edge 27, Type (0, 0), BuildingBlock: MIFKUJ_clean_linker_0, # of connection points: 2
#     Edge 28, Type (0, 0), BuildingBlock: MIFKUJ_clean_linker_0, # of connection points: 2
#     Edge 29, Type (0, 0), BuildingBlock: MIFKUJ_clean_linker_0, # of connection points: 2
#     Edge 30, Type (0, 0), BuildingBlock: MIFKUJ_clean_linker_0, # of connection points: 2
#     Edge 31, Type (0, 0), BuildingBlock: MIFKUJ_clean_linker_0, # of connection points: 2
#     Edge 32, Type (0, 0), BuildingBlock: MIFKUJ_clean_linker_0, # of connection points: 2
#     Edge 33, Type (0, 0), BuildingBlock: MIFKUJ_clean_linker_0, # of connection points: 2
#     Edge 34, Type (0, 0), BuildingBlock: MIFKUJ_clean_linker_0, # of connection points: 2
#     Edge 35, Type (0, 0), BuildingBlock: MIFKUJ_clean_linker_0, # of connection points: 2
#     Edge 36, Type (0, 0), BuildingBlock: MIFKUJ_clean_linker_0, # of connection points: 2
#     Edge 37, Type (0, 0), BuildingBlock: MIFKUJ_clean_linker_0, # of connection points: 2
#     Edge 38, Type (0, 0), BuildingBlock: MIFKUJ_clean_linker_0, # of connection points: 2
#     Edge 39, Type (0, 0), BuildingBlock: MIFKUJ_clean_linker_0, # of connection points: 2
#     Edge 40, Type (0, 0), BuildingBlock: MIFKUJ_clean_linker_0, # of connection points: 2
#     Edge 41, Type (0, 0), BuildingBlock: MIFKUJ_clean_linker_0, # of connection points: 2
#     Edge 42, Type (0, 0), BuildingBlock: MIFKUJ_clean_linker_0, # of connection points: 2
#     Edge 43, Type (0, 0), BuildingBlock: MIFKUJ_clean_linker_0, # of connection points: 2
#     Edge 44, Type (0, 0), BuildingBlock: MIFKUJ_clean_linker_0, # of connection points: 2
#     Edge 45, Type (0, 0), BuildingBlock: MIFKUJ_clean_linker_0, # of connection points: 2
#     Edge 46, Type (0, 0), BuildingBlock: MIFKUJ_clean_linker_0, # of connection points: 2
#     Edge 47, Type (0, 0), BuildingBlock: MIFKUJ_clean_linker_0, # of connection points: 2
#     Edge 48, Type (0, 0), BuildingBlock: MIFKUJ_clean_linker_0, # of connection points: 2
#     Edge 49, Type (0, 0), BuildingBlock: MIFKUJ_clean_linker_0, # of connection points: 2
#     Edge 50, Type (0, 0), BuildingBlock: MIFKUJ_clean_linker_0, # of connection points: 2
#     Edge 51, Type (0, 0), BuildingBlock: MIFKUJ_clean_linker_0, # of connection points: 2
#     Edge 52, Type (0, 0), BuildingBlock: MIFKUJ_clean_linker_0, # of connection points: 2
#     Edge 53, Type (0, 0), BuildingBlock: MIFKUJ_clean_linker_0, # of connection points: 2
#     Edge 54, Type (0, 0), BuildingBlock: MIFKUJ_clean_linker_0, # of connection points: 2
#     Edge 55, Type (0, 0), BuildingBlock: MIFKUJ_clean_linker_0, # of connection points: 2
# Relax obj value: 0.164
# Max RMSD: 0.174
# Mean RMSD: 0.165
data_MOF--net-zfo--node1-BEQFEK_clean_sbu_0--edge1-MIFKUJ_clean_linker_0
_symmetry_space_group_name_H-M    P1
_symmetry_Int_Tables_number       1
_symmetry_cell_setting            triclinic
loop_
_symmetry_equiv_pos_as_xyz
'x, y, z'
_cell_length_a     41.249327
_cell_length_b     41.250142
_cell_length_c     83.971059
_cell_angle_alpha  90.019587
_cell_angle_beta   90.007221
_cell_angle_gamma 89.971463
loop_
_atom_site_label
_atom_site_type_symbol
_atom_site_fract_x
_atom_site_fract_y
_atom_site_fract_z
_atom_type_partial_charge
Co0 Co 0.10609 0.21259 0.10362 0.0
Co1 Co 0.10758 0.21249 0.14127 0.0
C2 C 0.06587 0.25881 0.12322 0.0
O3 O 0.07539 0.24735 0.10992 0.0
O4 O 0.07677 0.24789 0.13636 0.0
C5 C 0.10173 0.23589 0.07107 0.0
O6 O 0.08465 0.25957 0.07732 0.0
C7 C 0.12009 0.23609 0.17392 0.0
C8 C 0.12746 0.18998 0.1868 0.0
C9 C 0.12805 0.22335 0.18876 0.0
N10 N 0.11539 0.21133 0.16372 0.0
N11 N 0.11934 0.18387 0.17158 0.0
C12 C 0.12028 0.27093 0.16896 0.0
H13 H 0.12354 0.27299 0.15588 0.0
H14 H 0.1399 0.28434 0.17516 0.0
H15 H 0.09671 0.28213 0.17219 0.0
C16 C 0.17674 0.21662 0.10848 0.0
N17 N 0.14626 0.21679 0.11421 0.0
N18 N 0.14716 0.21709 0.12988 0.0
C19 C 0.17839 0.21731 0.13462 0.0
C20 C 0.19813 0.21688 0.12122 0.0
C21 C 0.18482 0.21258 0.09121 0.0
H22 H 0.17122 0.19162 0.08632 0.0
H23 H 0.17701 0.23455 0.08461 0.0
H24 H 0.2111 0.20856 0.08926 0.0
O25 O 0.08644 0.17029 0.10901 0.0
O26 O 0.08689 0.17061 0.13548 0.0
H27 H 0.18099 0.19517 0.15762 0.0
H28 H 0.21576 0.22005 0.15282 0.0
C29 C 0.1891 0.21772 0.15166 0.0
H30 H 0.17783 0.23861 0.15779 0.0
H31 H 0.11752 0.16095 0.16641 0.0
O32 O 0.11288 0.21377 0.0801 0.0
C33 C 0.08006 0.15685 0.1223 0.0
Co34 Co 0.78142 0.10212 0.59797 0.0
Co35 Co 0.78257 0.10143 0.63558 0.0
C36 C 0.73666 0.05992 0.6167 0.0
O37 O 0.747 0.07048 0.6034 0.0
O38 O 0.74837 0.0701 0.62979 0.0
C39 C 0.75765 0.10119 0.56558 0.0
O40 O 0.73283 0.08576 0.57178 0.0
C41 C 0.75543 0.11432 0.66741 0.0
C42 C 0.79964 0.11663 0.68222 0.0
C43 C 0.76629 0.12055 0.68278 0.0
N44 N 0.78129 0.10789 0.65815 0.0
N45 N 0.80757 0.10884 0.66714 0.0
C46 C 0.72107 0.1139 0.66162 0.0
H47 H 0.70399 0.10916 0.67156 0.0
H48 H 0.71786 0.09505 0.65238 0.0
H49 H 0.71505 0.13764 0.65617 0.0
C50 C 0.77544 0.17245 0.60388 0.0
N51 N 0.77623 0.14162 0.60914 0.0
N52 N 0.7775 0.1416 0.62481 0.0
C53 C 0.77802 0.17253 0.63001 0.0
C54 C 0.77664 0.19303 0.61693 0.0
C55 C 0.7773 0.18173 0.58667 0.0
H56 H 0.79944 0.17098 0.58134 0.0
H57 H 0.75605 0.17159 0.58028 0.0
H58 H 0.77793 0.2084 0.58503 0.0
O59 O 0.82414 0.08274 0.60334 0.0
O60 O 0.82499 0.08209 0.62984 0.0
H61 H 0.80272 0.17026 0.65243 0.0
H62 H 0.78337 0.20886 0.64863 0.0
C63 C 0.78122 0.18227 0.64713 0.0
H64 H 0.75945 0.17433 0.65373 0.0
H65 H 0.83102 0.10503 0.66289 0.0
O66 O 0.78072 0.11025 0.57459 0.0
C67 C 0.83829 0.07605 0.61645 0.0
Co68 Co 0.88826 0.79459 0.1018 0.0
Co69 Co 0.8864 0.79426 0.13939 0.0
C70 C 0.92833 0.74823 0.12083 0.0
O71 O 0.91884 0.7592 0.10745 0.0
O72 O 0.91747 0.75966 0.13385 0.0
C73 C 0.90286 0.78418 0.06871 0.0
O74 O 0.9312 0.77503 0.07427 0.0
C75 C 0.8725 0.76743 0.17134 0.0
C76 C 0.86961 0.81205 0.18583 0.0
C77 C 0.86616 0.77867 0.18664 0.0
N78 N 0.87865 0.79309 0.16189 0.0
N79 N 0.87723 0.81962 0.17069 0.0
C80 C 0.87338 0.73289 0.16583 0.0
H81 H 0.84894 0.72557 0.16167 0.0
H82 H 0.88077 0.71656 0.17569 0.0
H83 H 0.89035 0.72997 0.15575 0.0
C84 C 0.81738 0.79121 0.10659 0.0
N85 N 0.84787 0.79035 0.11233 0.0
N86 N 0.84691 0.79036 0.12799 0.0
C87 C 0.81571 0.79137 0.13273 0.0
C88 C 0.79601 0.79207 0.11933 0.0
C89 C 0.80931 0.79487 0.0893 0.0
H90 H 0.82197 0.81647 0.08448 0.0
H91 H 0.81823 0.77333 0.0827 0.0
H92 H 0.78287 0.79763 0.0873 0.0
O93 O 0.90824 0.83668 0.10764 0.0
O94 O 0.90667 0.83651 0.13413 0.0
H95 H 0.81518 0.81429 0.15561 0.0
H96 H 0.77827 0.79248 0.15099 0.0
C97 C 0.80502 0.79242 0.14977 0.0
H98 H 0.81433 0.77079 0.15604 0.0
H99 H 0.88088 0.84298 0.1663 0.0
O100 O 0.88117 0.79371 0.0784 0.0
C101 C 0.91403 0.8502 0.12101 0.0
Co102 Co 0.20364 0.88597 0.59866 0.0
Co103 Co 0.19899 0.88326 0.6361 0.0
C104 C 0.24616 0.92696 0.61928 0.0
O105 O 0.23737 0.91726 0.60554 0.0
O106 O 0.23327 0.91566 0.63189 0.0
C107 C 0.21735 0.90158 0.56594 0.0
O108 O 0.2265 0.9295 0.57197 0.0
C109 C 0.22371 0.86848 0.66796 0.0
C110 C 0.17866 0.86299 0.68192 0.0
C111 C 0.21212 0.86058 0.683 0.0
N112 N 0.19829 0.87501 0.65847 0.0
N113 N 0.17144 0.87215 0.66694 0.0
C114 C 0.25796 0.86673 0.66216 0.0
H115 H 0.25853 0.86339 0.64904 0.0
H116 H 0.27113 0.84656 0.66806 0.0
H117 H 0.27047 0.88978 0.66508 0.0
C118 C 0.21274 0.81535 0.6033 0.0
N119 N 0.20882 0.84559 0.60907 0.0
N120 N 0.20633 0.84427 0.62468 0.0
C121 C 0.20816 0.81307 0.62933 0.0
C122 C 0.21262 0.79379 0.61597 0.0
C123 C 0.21641 0.80749 0.58601 0.0
H124 H 0.1932 0.81253 0.5798 0.0
H125 H 0.23526 0.82332 0.5807 0.0
H126 H 0.22323 0.78174 0.58415 0.0
O127 O 0.16014 0.90453 0.60345 0.0
O128 O 0.15678 0.902 0.62985 0.0
H129 H 0.18164 0.81514 0.65128 0.0
H130 H 0.19607 0.7753 0.64632 0.0
C131 C 0.20208 0.8015 0.64598 0.0
H132 H 0.22408 0.8056 0.65329 0.0
H133 H 0.14816 0.87536 0.66235 0.0
O134 O 0.20672 0.87965 0.57521 0.0
C135 C 0.14464 0.90942 0.61638 0.0
Co136 Co 0.6114 0.29122 0.90606 0.0
Co137 Co 0.61297 0.2905 0.86846 0.0
C138 C 0.57173 0.24426 0.88721 0.0
O139 O 0.58122 0.25546 0.90055 0.0
O140 O 0.58235 0.25569 0.87415 0.0
C141 C 0.59604 0.28245 0.93908 0.0
O142 O 0.56729 0.27513 0.93339 0.0
C143 C 0.62665 0.26328 0.83655 0.0
C144 C 0.62771 0.30755 0.82177 0.0
C145 C 0.63184 0.27425 0.82111 0.0
N146 N 0.62042 0.28904 0.84593 0.0
N147 N 0.62082 0.31537 0.83696 0.0
C148 C 0.62671 0.22883 0.84221 0.0
H149 H 0.61115 0.22595 0.85283 0.0
H150 H 0.65169 0.22167 0.84558 0.0
H151 H 0.6182 0.21231 0.83264 0.0
C152 C 0.68226 0.28827 0.90116 0.0
N153 N 0.65173 0.28725 0.89547 0.0
N154 N 0.65258 0.28713 0.8798 0.0
C155 C 0.68374 0.28824 0.875 0.0
C156 C 0.70354 0.2891 0.88837 0.0
C157 C 0.69042 0.29204 0.91843 0.0
H158 H 0.67745 0.31344 0.92329 0.0
H159 H 0.68189 0.27037 0.92503 0.0
H160 H 0.71682 0.29519 0.92037 0.0
O161 O 0.59089 0.33308 0.90016 0.0
O162 O 0.59215 0.33252 0.87366 0.0
H163 H 0.68371 0.31081 0.85205 0.0
H164 H 0.72097 0.28956 0.85665 0.0
C165 C 0.69425 0.28917 0.85794 0.0
H166 H 0.68515 0.26733 0.85177 0.0
H167 H 0.61677 0.33875 0.84126 0.0
O168 O 0.61849 0.29041 0.92948 0.0
C169 C 0.58475 0.34632 0.88676 0.0
Co170 Co 0.70839 0.60608 0.40845 0.0
Co171 Co 0.70436 0.60899 0.37098 0.0
C172 C 0.75398 0.56841 0.38832 0.0
O173 O 0.7442 0.57679 0.40209 0.0
O174 O 0.74055 0.57917 0.37575 0.0
C175 C 0.72355 0.59284 0.4413 0.0
O176 O 0.73712 0.56663 0.43543 0.0
C177 C 0.73079 0.62855 0.34007 0.0
C178 C 0.68897 0.6219 0.32397 0.0
C179 C 0.72099 0.63211 0.32433 0.0
N180 N 0.70559 0.61732 0.3486 0.0
N181 N 0.68071 0.61322 0.33889 0.0
C182 C 0.76393 0.6342 0.34683 0.0
H183 H 0.76746 0.62011 0.35791 0.0
H184 H 0.76685 0.6602 0.34983 0.0
H185 H 0.78285 0.62753 0.33801 0.0
C186 C 0.71365 0.67716 0.40392 0.0
N187 N 0.7115 0.64679 0.3981 0.0
N188 N 0.70804 0.64815 0.38253 0.0
C189 C 0.70682 0.67943 0.378 0.0
C190 C 0.71079 0.69882 0.39135 0.0
C191 C 0.71866 0.68499 0.42114 0.0
H192 H 0.73728 0.66859 0.42624 0.0
H193 H 0.72644 0.71051 0.42282 0.0
H194 H 0.69564 0.68092 0.42768 0.0
O195 O 0.66627 0.58513 0.40305 0.0
O196 O 0.6632 0.58742 0.37661 0.0
H197 H 0.68599 0.71492 0.36206 0.0
H198 H 0.71976 0.69261 0.35419 0.0
C199 C 0.69769 0.6907 0.36164 0.0
H200 H 0.68069 0.67333 0.35604 0.0
H201 H 0.65803 0.60472 0.34247 0.0
O202 O 0.70974 0.61269 0.43191 0.0
C203 C 0.65133 0.5793 0.39004 0.0
Co204 Co 0.39104 0.70668 0.90616 0.0
Co205 Co 0.38739 0.70764 0.86848 0.0
C206 C 0.43091 0.75263 0.88681 0.0
O207 O 0.42187 0.74155 0.90025 0.0
O208 O 0.41934 0.74163 0.87383 0.0
C209 C 0.40633 0.71765 0.93928 0.0
O210 O 0.43364 0.72918 0.93358 0.0
C211 C 0.3733 0.7344 0.83637 0.0
C212 C 0.36396 0.68956 0.82276 0.0
C213 C 0.36369 0.72306 0.82146 0.0
N214 N 0.37806 0.70877 0.84605 0.0
N215 N 0.37287 0.68207 0.83774 0.0
C216 C 0.37829 0.7689 0.84137 0.0
H217 H 0.39688 0.7705 0.85079 0.0
H218 H 0.35532 0.77871 0.84627 0.0
H219 H 0.38594 0.78401 0.83111 0.0
C220 C 0.32019 0.71267 0.90221 0.0
N221 N 0.35038 0.71213 0.8961 0.0
N222 N 0.34866 0.71261 0.88045 0.0
C223 C 0.31722 0.71355 0.8761 0.0
C224 C 0.29819 0.71348 0.88972 0.0
C225 C 0.31282 0.70886 0.91956 0.0
H226 H 0.32502 0.68675 0.92412 0.0
H227 H 0.32274 0.72995 0.92617 0.0
H228 H 0.28643 0.70691 0.92186 0.0
O229 O 0.40997 0.66448 0.89989 0.0
O230 O 0.40728 0.66489 0.87342 0.0
H231 H 0.3132 0.69152 0.85312 0.0
H232 H 0.27891 0.71668 0.85839 0.0
C233 C 0.3056 0.71412 0.85921 0.0
H234 H 0.31668 0.73495 0.85296 0.0
H235 H 0.37458 0.6587 0.84241 0.0
O236 O 0.38509 0.70678 0.9297 0.0
C237 C 0.41501 0.65099 0.88645 0.0
Co238 Co 0.28497 0.39432 0.41126 0.0
Co239 Co 0.28777 0.38995 0.37372 0.0
C240 C 0.24199 0.43488 0.39057 0.0
O241 O 0.25189 0.42638 0.40433 0.0
O242 O 0.25363 0.42231 0.37796 0.0
C243 C 0.26376 0.40363 0.44401 0.0
O244 O 0.24305 0.42436 0.43788 0.0
C245 C 0.26206 0.37449 0.34204 0.0
C246 C 0.30676 0.36885 0.32782 0.0
C247 C 0.27328 0.36657 0.32694 0.0
N248 N 0.28773 0.38101 0.35138 0.0
N249 N 0.31436 0.37806 0.34275 0.0
C250 C 0.22793 0.37285 0.34801 0.0
H251 H 0.2276 0.36994 0.36115 0.0
H252 H 0.21474 0.35247 0.34231 0.0
H253 H 0.21528 0.39577 0.34495 0.0
C254 C 0.27483 0.32368 0.40732 0.0
N255 N 0.27861 0.35364 0.40122 0.0
N256 N 0.28071 0.35159 0.3856 0.0
C257 C 0.27884 0.32019 0.38129 0.0
C258 C 0.2748 0.30151 0.39489 0.0
C259 C 0.27146 0.31666 0.42472 0.0
H260 H 0.29503 0.32112 0.4307 0.0
H261 H 0.2533 0.33332 0.43001 0.0
H262 H 0.26383 0.29126 0.42688 0.0
O263 O 0.32866 0.41146 0.40585 0.0
O264 O 0.33024 0.40885 0.37941 0.0
H265 H 0.30482 0.32165 0.35919 0.0
H266 H 0.2909 0.28188 0.36458 0.0
C267 C 0.28464 0.30803 0.36472 0.0
H268 H 0.26244 0.31173 0.3575 0.0
H269 H 0.33774 0.38131 0.34718 0.0
O270 O 0.28332 0.38875 0.43485 0.0
C271 C 0.34336 0.41608 0.39268 0.0
Co272 Co 0.90934 0.77635 0.86933 0.0
Co273 Co 0.8457 0.8174 0.86903 0.0
C274 C 0.86931 0.78513 0.89882 0.0
O275 O 0.8936 0.77348 0.89146 0.0
O276 O 0.84836 0.80245 0.89161 0.0
C277 C 0.95494 0.7266 0.87739 0.0
O278 O 0.93445 0.72005 0.88892 0.0
C279 C 0.77667 0.83066 0.87234 0.0
C280 C 0.77014 0.87422 0.85734 0.0
C281 C 0.75358 0.85261 0.867 0.0
N282 N 0.80548 0.83905 0.86618 0.0
N283 N 0.80154 0.86526 0.85734 0.0
C284 C 0.77133 0.80041 0.88181 0.0
H285 H 0.7907 0.78246 0.87926 0.0
H286 H 0.74732 0.78964 0.87907 0.0
H287 H 0.77218 0.80642 0.89469 0.0
C288 C 0.87725 0.74504 0.84192 0.0
N289 N 0.8769 0.76545 0.85444 0.0
N290 N 0.8501 0.78275 0.85413 0.0
C291 C 0.83257 0.77398 0.84128 0.0
C292 C 0.84918 0.74983 0.83311 0.0
C293 C 0.90586 0.72462 0.8375 0.0
H294 H 0.92747 0.74038 0.8361 0.0
H295 H 0.91102 0.70734 0.8473 0.0
H296 H 0.90174 0.71099 0.82629 0.0
O297 O 0.9251 0.82091 0.86555 0.0
O298 O 0.87989 0.85005 0.86523 0.0
H299 H 0.806 0.81573 0.8337 0.0
H300 H 0.79067 0.77791 0.82577 0.0
C301 C 0.80147 0.7898 0.83637 0.0
H302 H 0.78388 0.78846 0.84631 0.0
H303 H 0.82017 0.87668 0.85109 0.0
O304 O 0.9478 0.74827 0.86724 0.0
C305 C 0.9106 0.84801 0.86421 0.0
Co306 Co 0.22034 0.91343 0.36565 0.0
Co307 Co 0.17933 0.84994 0.36604 0.0
C308 C 0.21195 0.87492 0.39556 0.0
O309 O 0.22347 0.89905 0.38803 0.0
O310 O 0.19471 0.85371 0.3885 0.0
C311 C 0.26953 0.96057 0.37282 0.0
O312 O 0.27874 0.9398 0.38379 0.0
C313 C 0.16793 0.78079 0.36979 0.0
C314 C 0.12146 0.77362 0.35715 0.0
C315 C 0.14516 0.75744 0.36573 0.0
N316 N 0.15799 0.8094 0.36399 0.0
N317 N 0.1301 0.80507 0.35653 0.0
C318 C 0.19981 0.77598 0.37796 0.0
H319 H 0.21697 0.79553 0.37458 0.0
H320 H 0.21031 0.752 0.37487 0.0
H321 H 0.1961 0.77703 0.39103 0.0
C322 C 0.25268 0.87945 0.33897 0.0
N323 N 0.23163 0.88016 0.3512 0.0
N324 N 0.21385 0.85369 0.35098 0.0
C325 C 0.22269 0.83545 0.33836 0.0
C326 C 0.24771 0.85113 0.33031 0.0
C327 C 0.27629 0.90602 0.33546 0.0
H328 H 0.28762 0.91444 0.3467 0.0
H329 H 0.29553 0.8978 0.32715 0.0
H330 H 0.26314 0.92682 0.33012 0.0
O331 O 0.17565 0.9285 0.36137 0.0
O332 O 0.14629 0.88355 0.36197 0.0
H333 H 0.21054 0.79916 0.32056 0.0
H334 H 0.21032 0.78544 0.34099 0.0
C335 C 0.2045 0.806 0.33298 0.0
H336 H 0.17809 0.81067 0.33369 0.0
H337 H 0.11716 0.82351 0.35089 0.0
O338 O 0.24715 0.95265 0.36318 0.0
C339 C 0.14846 0.91412 0.36031 0.0
Co340 Co 0.09264 0.2156 0.8706 0.0
Co341 Co 0.15714 0.17584 0.87209 0.0
C342 C 0.13118 0.20943 0.90093 0.0
O343 O 0.1071 0.22007 0.89302 0.0
O344 O 0.15289 0.19204 0.89434 0.0
C345 C 0.04584 0.26546 0.87726 0.0
O346 O 0.06515 0.2725 0.8892 0.0
C347 C 0.22617 0.16273 0.87647 0.0
C348 C 0.2332 0.11865 0.86189 0.0
C349 C 0.24942 0.14053 0.87155 0.0
N350 N 0.1976 0.15422 0.87006 0.0
N351 N 0.20185 0.12768 0.8615 0.0
C352 C 0.23125 0.19333 0.88572 0.0
H353 H 0.21176 0.21106 0.88303 0.0
H354 H 0.2552 0.20417 0.88291 0.0
H355 H 0.23046 0.18772 0.89864 0.0
C356 C 0.12621 0.24588 0.84332 0.0
N357 N 0.12597 0.22619 0.85611 0.0
N358 N 0.15321 0.20959 0.85661 0.0
C359 C 0.17173 0.21826 0.84408 0.0
C360 C 0.15523 0.24147 0.8352 0.0
C361 C 0.09746 0.26525 0.83805 0.0
H362 H 0.07593 0.24919 0.83734 0.0
H363 H 0.09223 0.28418 0.84709 0.0
H364 H 0.10141 0.27687 0.82631 0.0
O365 O 0.07793 0.17057 0.86682 0.0
O366 O 0.12366 0.14246 0.86835 0.0
H367 H 0.20103 0.1776 0.83755 0.0
H368 H 0.21602 0.21603 0.83018 0.0
C369 C 0.2041 0.2037 0.84035 0.0
H370 H 0.22006 0.20576 0.8509 0.0
H371 H 0.18345 0.11609 0.85513 0.0
O372 O 0.05394 0.24328 0.86753 0.0
C373 C 0.09311 0.14371 0.86637 0.0
Co374 Co 0.77934 0.08818 0.36602 0.0
Co375 Co 0.81586 0.15466 0.36626 0.0
C376 C 0.78462 0.12783 0.39573 0.0
O377 O 0.77402 0.10322 0.38824 0.0
O378 O 0.80137 0.14943 0.38871 0.0
C379 C 0.73003 0.0406 0.37233 0.0
O380 O 0.71856 0.06225 0.38233 0.0
C381 C 0.82619 0.22506 0.36985 0.0
C382 C 0.86845 0.2328 0.35411 0.0
C383 C 0.84676 0.24883 0.36392 0.0
N384 N 0.83499 0.1964 0.36355 0.0
N385 N 0.86044 0.20118 0.35428 0.0
C386 C 0.79926 0.22915 0.38165 0.0
H387 H 0.79925 0.20885 0.39024 0.0
H388 H 0.7757 0.22895 0.37528 0.0
H389 H 0.80168 0.25214 0.3884 0.0
C390 C 0.74659 0.11868 0.3385 0.0
N391 N 0.76654 0.1201 0.35118 0.0
N392 N 0.78143 0.14832 0.35135 0.0
C393 C 0.77117 0.16591 0.33879 0.0
C394 C 0.74887 0.14769 0.33016 0.0
C395 C 0.72918 0.08851 0.3335 0.0
H396 H 0.74618 0.06767 0.33383 0.0
H397 H 0.7094 0.08348 0.34211 0.0
H398 H 0.71884 0.09062 0.32136 0.0
O399 O 0.82507 0.07587 0.36232 0.0
O400 O 0.8508 0.12304 0.36202 0.0
H401 H 0.80914 0.19758 0.3312 0.0
H402 H 0.76904 0.21048 0.32514 0.0
C403 C 0.78333 0.19912 0.33483 0.0
H404 H 0.78172 0.21475 0.34552 0.0
H405 H 0.87213 0.18286 0.3479 0.0
O406 O 0.7543 0.04776 0.3637 0.0
C407 C 0.85102 0.09229 0.36087 0.0
Co408 Co 0.40778 0.7169 0.1397 0.0
Co409 Co 0.34305 0.67743 0.1385 0.0
C410 C 0.36975 0.70931 0.10936 0.0
O411 O 0.39385 0.72008 0.1172 0.0
O412 O 0.34771 0.69267 0.11613 0.0
C413 C 0.45428 0.76659 0.13264 0.0
O414 O 0.43458 0.77335 0.12081 0.0
C415 C 0.27393 0.66539 0.13408 0.0
C416 C 0.26621 0.62095 0.14828 0.0
C417 C 0.25035 0.64333 0.13874 0.0
N418 N 0.30232 0.65631 0.14049 0.0
N419 N 0.29766 0.62958 0.14885 0.0
C420 C 0.2694 0.69626 0.12499 0.0
H421 H 0.28913 0.71362 0.12784 0.0
H422 H 0.24558 0.7074 0.1278 0.0
H423 H 0.27029 0.69094 0.11204 0.0
C424 C 0.37386 0.74871 0.1665 0.0
N425 N 0.3742 0.7284 0.15394 0.0
N426 N 0.34702 0.7117 0.15364 0.0
C427 C 0.32857 0.72075 0.16613 0.0
C428 C 0.34492 0.74451 0.17468 0.0
C429 C 0.40246 0.76849 0.17157 0.0
H430 H 0.42374 0.75234 0.17314 0.0
H431 H 0.40849 0.78608 0.16202 0.0
H432 H 0.39782 0.78173 0.18284 0.0
O433 O 0.42225 0.67193 0.1439 0.0
O434 O 0.37633 0.6441 0.14266 0.0
H435 H 0.30032 0.6794 0.17268 0.0
H436 H 0.28554 0.71723 0.18089 0.0
C437 C 0.29672 0.70561 0.17031 0.0
H438 H 0.27988 0.70804 0.16011 0.0
H439 H 0.31584 0.61753 0.15514 0.0
O440 O 0.44653 0.7446 0.14253 0.0
C441 C 0.4069 0.6452 0.1446 0.0
Co442 Co 0.28756 0.40692 0.64416 0.0
Co443 Co 0.32228 0.33962 0.6423 0.0
C444 C 0.28949 0.36778 0.6138 0.0
O445 O 0.28076 0.39247 0.62184 0.0
O446 O 0.30577 0.34497 0.62018 0.0
C447 C 0.23715 0.45411 0.63946 0.0
O448 O 0.22411 0.43184 0.63029 0.0
C449 C 0.33491 0.27039 0.63676 0.0
C450 C 0.37166 0.25996 0.65525 0.0
C451 C 0.35381 0.24583 0.64314 0.0
N452 N 0.34143 0.29791 0.64469 0.0
N453 N 0.3637 0.2916 0.65558 0.0
C454 C 0.30895 0.26728 0.6244 0.0
H455 H 0.28875 0.2842 0.62707 0.0
H456 H 0.29956 0.24209 0.62378 0.0
H457 H 0.3192 0.27383 0.61262 0.0
C458 C 0.25704 0.37596 0.67226 0.0
N459 N 0.27554 0.37477 0.65905 0.0
N460 N 0.28916 0.34601 0.65795 0.0
C461 C 0.27905 0.32764 0.67026 0.0
C462 C 0.25868 0.34608 0.6799 0.0
C463 C 0.24151 0.40637 0.67831 0.0
H464 H 0.25796 0.42725 0.67635 0.0
H465 H 0.21889 0.41088 0.6715 0.0
H466 H 0.23563 0.40472 0.69116 0.0
O467 O 0.33352 0.41846 0.64716 0.0
O468 O 0.3582 0.37081 0.64568 0.0
H469 H 0.31366 0.29226 0.67779 0.0
H470 H 0.27202 0.28063 0.68114 0.0
C471 C 0.28878 0.29307 0.67281 0.0
H472 H 0.28865 0.27996 0.66129 0.0
H473 H 0.37287 0.30879 0.66353 0.0
O474 O 0.26301 0.44759 0.64703 0.0
C475 C 0.35923 0.40143 0.64744 0.0
Co476 Co 0.58723 0.27635 0.13891 0.0
Co477 Co 0.65145 0.31657 0.13881 0.0
C478 C 0.6272 0.2848 0.10917 0.0
O479 O 0.60286 0.27365 0.11668 0.0
O480 O 0.64867 0.3017 0.11625 0.0
C481 C 0.54151 0.22634 0.13087 0.0
O482 O 0.56151 0.22 0.11911 0.0
C483 C 0.72002 0.33287 0.13482 0.0
C484 C 0.72634 0.37276 0.15214 0.0
C485 C 0.74273 0.35428 0.14097 0.0
N486 N 0.69146 0.33862 0.14194 0.0
N487 N 0.6953 0.36266 0.15218 0.0
C488 C 0.72587 0.3053 0.12358 0.0
H489 H 0.70811 0.28558 0.12575 0.0
H490 H 0.75085 0.29567 0.12492 0.0
H491 H 0.72278 0.31404 0.11118 0.0
C492 C 0.61933 0.24536 0.16642 0.0
N493 N 0.61972 0.26545 0.15379 0.0
N494 N 0.64715 0.28169 0.15361 0.0
C495 C 0.66541 0.27202 0.16606 0.0
C496 C 0.64833 0.24881 0.17468 0.0
C497 C 0.58997 0.22665 0.17146 0.0
H498 H 0.56821 0.24235 0.1706 0.0
H499 H 0.58649 0.2059 0.16323 0.0
H500 H 0.5921 0.21748 0.18383 0.0
O501 O 0.57155 0.32074 0.14283 0.0
O502 O 0.61705 0.34934 0.14262 0.0
H503 H 0.69582 0.31037 0.17438 0.0
H504 H 0.71105 0.27024 0.1788 0.0
C505 C 0.69831 0.28526 0.16981 0.0
H506 H 0.71313 0.28596 0.15882 0.0
H507 H 0.67682 0.37179 0.1594 0.0
O508 O 0.5489 0.24807 0.14097 0.0
C509 C 0.58634 0.34769 0.14393 0.0
Co510 Co 0.72928 0.58308 0.64091 0.0
Co511 Co 0.68618 0.64545 0.64114 0.0
C512 C 0.71968 0.62215 0.61139 0.0
O513 O 0.73252 0.59847 0.61873 0.0
O514 O 0.70132 0.64214 0.61861 0.0
C515 C 0.77799 0.53657 0.63281 0.0
O516 O 0.78401 0.55654 0.621 0.0
C517 C 0.67571 0.71528 0.63936 0.0
C518 C 0.62469 0.72023 0.64706 0.0
C519 C 0.6512 0.73782 0.64179 0.0
N520 N 0.66429 0.68583 0.64318 0.0
N521 N 0.63383 0.68892 0.64783 0.0
C522 C 0.70863 0.72105 0.63239 0.0
H523 H 0.7196 0.69805 0.62823 0.0
H524 H 0.72479 0.73144 0.64162 0.0
H525 H 0.70707 0.73858 0.62238 0.0
C526 C 0.76018 0.61689 0.66804 0.0
N527 N 0.73925 0.61609 0.65574 0.0
N528 N 0.72057 0.64195 0.65624 0.0
C529 C 0.72855 0.6597 0.66916 0.0
C530 C 0.75412 0.64455 0.67701 0.0
C531 C 0.78477 0.59105 0.67127 0.0
H532 H 0.79628 0.58339 0.65994 0.0
H533 H 0.80377 0.59965 0.67962 0.0
H534 H 0.77243 0.56964 0.67648 0.0
O535 O 0.6847 0.5667 0.64452 0.0
O536 O 0.65414 0.61095 0.645 0.0
H537 H 0.71237 0.69143 0.68814 0.0
H538 H 0.71657 0.7101 0.66888 0.0
C539 C 0.70897 0.68774 0.67516 0.0
H540 H 0.68287 0.68357 0.67282 0.0
H541 H 0.6191 0.66959 0.65126 0.0
O542 O 0.75737 0.54458 0.64334 0.0
C543 C 0.65714 0.58031 0.64592 0.0
H544 H 0.06329 0.11927 0.09672 0.0
H545 H 0.03491 0.06739 0.09697 0.0
H546 H 0.03081 0.07029 0.14828 0.0
H547 H 0.05971 0.12199 0.1482 0.0
H548 H 0.04721 0.01101 0.13791 0.0
H549 H 0.96433 0.08883 0.126 0.0
H550 H 0.93904 0.13416 0.11144 0.0
H551 H 0.9406 0.07829 0.06829 0.0
H552 H 0.96632 0.03276 0.08256 0.0
H553 H 0.92939 0.88705 0.14707 0.0
H554 H 0.9573 0.93924 0.14753 0.0
H555 H 0.96368 0.93797 0.09626 0.0
H556 H 0.93539 0.88599 0.09563 0.0
H557 H 0.94555 0.99673 0.10709 0.0
H558 H 0.02911 0.9191 0.11912 0.0
H559 H 0.05422 0.87388 0.13385 0.0
H560 H 0.05096 0.92962 0.17702 0.0
H561 H 0.02541 0.97504 0.16258 0.0
C562 C 0.05644 0.1089 0.10808 0.0
C563 C 0.06366 0.12491 0.12244 0.0
C564 C 0.04007 0.07928 0.10819 0.0
C565 C 0.03033 0.06522 0.12263 0.0
C566 C 0.03803 0.08078 0.137 0.0
C567 C 0.0545 0.11037 0.13692 0.0
C568 C 0.0121 0.03426 0.12273 0.0
C569 C 0.02473 0.00801 0.13136 0.0
C570 C 0.98312 0.03019 0.11392 0.0
C571 C 0.96753 0.05749 0.10532 0.0
C572 C 0.95951 0.0863 0.11338 0.0
C573 C 0.94505 0.11202 0.10519 0.0
C574 C 0.93829 0.10914 0.08894 0.0
C575 C 0.94589 0.0805 0.08087 0.0
C576 C 0.96038 0.05472 0.08901 0.0
C577 C 0.93666 0.89785 0.13587 0.0
C578 C 0.93025 0.88223 0.12131 0.0
C579 C 0.95274 0.92764 0.13617 0.0
C580 C 0.96292 0.94227 0.12194 0.0
C581 C 0.95608 0.92705 0.10738 0.0
C582 C 0.93996 0.89729 0.10706 0.0
C583 C 0.98073 0.97345 0.12221 0.0
C584 C 0.968 -0.00024 0.11366 0.0
C585 C 0.00957 0.97758 0.13112 0.0
C586 C 0.02505 0.95034 0.1398 0.0
C587 C 0.03351 0.92162 0.13178 0.0
C588 C 0.04787 0.89597 0.14007 0.0
C589 C 0.0541 0.89884 0.15637 0.0
C590 C 0.04608 0.92741 0.1644 0.0
C591 C 0.03168 0.95312 0.15617 0.0
H592 H 0.06522 0.87895 0.16276 0.0
H593 H 0.9271 0.12908 0.08262 0.0
H594 H 0.11286 0.9339 0.59035 0.0
H595 H 0.06056 0.96179 0.58982 0.0
H596 H 0.0511 0.94858 0.64056 0.0
H597 H 0.10315 0.92043 0.64122 0.0
H598 H 0.99479 0.93557 0.62515 0.0
H599 H 0.07421 0.02067 0.62583 0.0
H600 H 0.12236 0.05052 0.6165 0.0
H601 H 0.07674 0.06643 0.5712 0.0
H602 H 0.02846 0.03625 0.5802 0.0
H603 H 0.8725 0.05127 0.64159 0.0
H604 H 0.92428 0.02256 0.6408 0.0
H605 H 0.92856 0.03534 0.58987 0.0
H606 H 0.87678 0.06419 0.59051 0.0
H607 H 0.98704 0.04808 0.60456 0.0
H608 H 0.90696 0.96394 0.60424 0.0
H609 H 0.85881 0.93438 0.6138 0.0
H610 H 0.90573 0.91694 0.65863 0.0
H611 H 0.95402 0.94683 0.64943 0.0
C612 C 0.0996 0.93676 0.60139 0.0
C613 C 0.11231 0.92504 0.61584 0.0
C614 C 0.06978 0.95284 0.60108 0.0
C615 C 0.05215 0.95757 0.61519 0.0
C616 C 0.06436 0.94523 0.62955 0.0
C617 C 0.09419 0.92922 0.62989 0.0
C618 C 0.02111 0.97569 0.61505 0.0
C619 C 0.99316 0.9603 0.62082 0.0
C620 C 0.0189 0.0077 0.60907 0.0
C621 C 0.04787 0.02589 0.60363 0.0
C622 C 0.07456 0.03029 0.61384 0.0
C623 C 0.10185 0.04731 0.60861 0.0
C624 C 0.10265 0.06028 0.59325 0.0
C625 C 0.07611 0.05632 0.58309 0.0
C626 C 0.04877 0.03927 0.58825 0.0
C627 C 0.88447 0.04813 0.63021 0.0
C628 C 0.87038 0.05992 0.6161 0.0
C629 C 0.91401 0.03159 0.62979 0.0
C630 C 0.93003 0.02652 0.61526 0.0
C631 C 0.9165 0.03893 0.6012 0.0
C632 C 0.88686 0.05534 0.60159 0.0
C633 C 0.96079 0.00801 0.61474 0.0
C634 C 0.98867 0.02332 0.60884 0.0
C635 C 0.96296 0.97595 0.62063 0.0
C636 C 0.93398 0.95791 0.6262 0.0
C637 C 0.90691 0.95405 0.61619 0.0
C638 C 0.87961 0.93719 0.62153 0.0
C639 C 0.87917 0.92387 0.63683 0.0
C640 C 0.90608 0.92731 0.6468 0.0
C641 C 0.93344 0.94419 0.64152 0.0
H642 H 0.85802 0.91081 0.64094 0.0
H643 H 0.1238 0.07347 0.58923 0.0
H644 H 0.43572 0.61453 0.91168 0.0
H645 H 0.46447 0.56288 0.91093 0.0
H646 H 0.46022 0.56314 0.85961 0.0
H647 H 0.43103 0.61476 0.86021 0.0
H648 H 0.44639 0.50369 0.87178 0.0
H649 H 0.52933 0.58369 0.87813 0.0
H650 H 0.55625 0.63085 0.89039 0.0
H651 H 0.56431 0.57931 0.93464 0.0
H652 H 0.53699 0.53198 0.9227 0.0
H653 H 0.56508 0.38068 0.86058 0.0
H654 H 0.53621 0.43237 0.86004 0.0
H655 H 0.53733 0.43559 0.91137 0.0
H656 H 0.56645 0.38402 0.91207 0.0
H657 H 0.55346 0.49374 0.8983 0.0
H658 H 0.46935 0.41404 0.89183 0.0
H659 H 0.44245 0.36708 0.87936 0.0
H660 H 0.43708 0.41832 0.83494 0.0
H661 H 0.46437 0.46545 0.84709 0.0
C662 C 0.44075 0.60362 0.90021 0.0
C663 C 0.4312 0.61893 0.88599 0.0
C664 C 0.45732 0.57413 0.89981 0.0
C665 C 0.46488 0.55943 0.88521 0.0
C666 C 0.4547 0.57416 0.871 0.0
C667 C 0.43809 0.6037 0.87138 0.0
C668 C 0.48368 0.52882 0.88481 0.0
C669 C 0.47001 0.50161 0.87737 0.0
C670 C 0.51424 0.52602 0.89236 0.0
C671 C 0.53083 0.55439 0.89956 0.0
C672 C 0.53661 0.5825 0.89051 0.0
C673 C 0.55198 0.60925 0.8974 0.0
C674 C 0.56192 0.60811 0.9133 0.0
C675 C 0.55657 0.58017 0.92233 0.0
C676 C 0.54116 0.55336 0.91551 0.0
C677 C 0.55928 0.39236 0.87177 0.0
C678 C 0.56801 0.3781 0.88638 0.0
C679 C 0.54265 0.42186 0.87143 0.0
C680 C 0.53433 0.43761 0.88567 0.0
C681 C 0.54348 0.42377 0.90025 0.0
C682 C 0.56007 0.39425 0.90062 0.0
C683 C 0.51607 0.46854 0.88538 0.0
C684 C 0.52987 0.49583 0.89268 0.0
C685 C 0.4857 0.47142 0.87765 0.0
C686 C 0.46921 0.44314 0.87033 0.0
C687 C 0.46268 0.41519 0.87937 0.0
C688 C 0.44731 0.38856 0.87237 0.0
C689 C 0.43814 0.38968 0.85636 0.0
C690 C 0.44424 0.41747 0.84733 0.0
C691 C 0.45964 0.44415 0.85427 0.0
H692 H 0.42624 0.36904 0.85096 0.0
H693 H 0.57382 0.62884 0.91861 0.0
H694 H 0.61899 0.55643 0.41623 0.0
H695 H 0.56716 0.52786 0.41689 0.0
H696 H 0.56034 0.53476 0.36574 0.0
H697 H 0.61194 0.56369 0.36495 0.0
H698 H 0.50373 0.54996 0.37971 0.0
H699 H 0.58161 0.46405 0.38332 0.0
H700 H 0.62876 0.4348 0.39426 0.0
H701 H 0.58072 0.4263 0.43943 0.0
H702 H 0.53344 0.45592 0.42882 0.0
H703 H 0.37941 0.43495 0.36697 0.0
H704 H 0.43204 0.46195 0.36706 0.0
H705 H 0.43394 0.4585 0.41838 0.0
H706 H 0.38122 0.43132 0.41846 0.0
H707 H 0.49282 0.44155 0.40475 0.0
H708 H 0.41458 0.52739 0.40072 0.0
H709 H 0.36747 0.55603 0.38936 0.0
H710 H 0.41654 0.564 0.34443 0.0
H711 H 0.46379 0.53497 0.35547 0.0
C712 C 0.60649 0.55192 0.40511 0.0
C713 C 0.6197 0.56232 0.39053 0.0
C714 C 0.57693 0.53544 0.40551 0.0
C715 C 0.56009 0.52888 0.39134 0.0
C716 C 0.57298 0.53954 0.3768 0.0
C717 C 0.60254 0.55601 0.37638 0.0
C718 C 0.52883 0.51118 0.39168 0.0
C719 C 0.50144 0.52608 0.385 0.0
C720 C 0.52573 0.48033 0.39891 0.0
C721 C 0.55412 0.46251 0.40532 0.0
C722 C 0.58121 0.45619 0.39563 0.0
C723 C 0.60794 0.4395 0.40176 0.0
C724 C 0.60777 0.42878 0.41754 0.0
C725 C 0.58084 0.43466 0.42721 0.0
C726 C 0.55405 0.45138 0.42114 0.0
C727 C 0.39101 0.43977 0.3783 0.0
C728 C 0.37597 0.43112 0.39273 0.0
C729 C 0.42106 0.4553 0.37831 0.0
C730 C 0.43666 0.46253 0.39273 0.0
C731 C 0.42221 0.45319 0.40713 0.0
C732 C 0.39204 0.43776 0.40715 0.0
C733 C 0.46783 0.48031 0.39274 0.0
C734 C 0.49516 0.46545 0.39949 0.0
C735 C 0.47093 0.51115 0.38553 0.0
C736 C 0.4426 0.52872 0.37888 0.0
C737 C 0.41522 0.53501 0.38838 0.0
C738 C 0.38851 0.55136 0.38201 0.0
C739 C 0.38898 0.56176 0.36617 0.0
C740 C 0.4162 0.5559 0.35669 0.0
C741 C 0.44296 0.53952 0.363 0.0
H742 H 0.36828 0.57442 0.36126 0.0
H743 H 0.62849 0.41585 0.42227 0.0
H744 H 0.0299 0.13679 0.85705 0.0
H745 H -0.0007 0.08645 0.85422 0.0
H746 H 0.084 0.03152 0.86773 0.0
H747 H 0.11506 0.08165 0.87011 0.0
H748 H 0.05329 0.00159 0.84447 0.0
H749 H 0.02263 0.04893 0.89461 0.0
H750 H 0.00247 0.09206 0.91239 0.0
H751 H 0.91216 0.09404 0.88697 0.0
H752 H 0.93195 0.05118 0.86891 0.0
H753 H 0.97591 0.85572 0.86834 0.0
H754 H 0.00697 0.90588 0.86657 0.0
H755 H 0.92034 0.95787 0.85314 0.0
H756 H 0.88885 0.90795 0.8554 0.0
H757 H 0.95147 0.98963 0.87535 0.0
H758 H 0.9827 0.9398 0.82565 0.0
H759 H 0.00336 0.89498 0.80904 0.0
H760 H 0.09316 0.8959 0.83491 0.0
H761 H 0.07295 0.94061 0.85173 0.0
C762 C 0.04208 0.114 0.85935 0.0
C763 C 0.07484 0.11326 0.86395 0.0
C764 C 0.02452 0.08524 0.85777 0.0
C765 C 0.03921 0.05525 0.86104 0.0
C766 C 0.07215 0.05438 0.86518 0.0
C767 C 0.08983 0.08309 0.86659 0.0
C768 C 0.02005 0.02485 0.86066 0.0
C769 C 0.03116 -0.00113 0.85132 0.0
C770 C 0.99092 0.02144 0.86941 0.0
C771 C 0.9789 0.04709 0.88031 0.0
C772 C -0.00144 0.05873 0.89275 0.0
C773 C 0.98719 0.08309 0.90289 0.0
C774 C 0.95609 0.09584 0.90079 0.0
C775 C 0.93626 0.08417 0.88857 0.0
C776 C 0.94753 0.05983 0.87839 0.0
C777 C 0.96349 0.87776 0.86486 0.0
C778 C 0.92988 0.87787 0.86203 0.0
C779 C 0.98134 0.90642 0.86378 0.0
C780 C 0.96606 0.9356 0.85953 0.0
C781 C 0.93262 0.93564 0.85644 0.0
C782 C 0.91468 0.90708 0.85771 0.0
C783 C 0.98457 0.96639 0.8591 0.0
C784 C 0.97341 0.99243 0.86836 0.0
C785 C 0.01373 0.96972 0.85037 0.0
C786 C 0.02624 0.94343 0.84 0.0
C787 C 0.00682 0.93039 0.82781 0.0
C788 C 0.01846 0.90502 0.81836 0.0
C789 C 0.04954 0.89258 0.82093 0.0
C790 C 0.06911 0.90558 0.83292 0.0
C791 C 0.05761 0.931 0.84239 0.0
H792 H 0.05847 0.87288 0.81363 0.0
H793 H 0.94733 0.11471 0.90865 0.0
H794 H 0.14395 0.97883 0.35342 0.0
H795 H 0.09466 0.01109 0.35041 0.0
H796 H 0.03653 0.92572 0.35843 0.0
H797 H 0.08562 0.89311 0.36108 0.0
H798 H 0.01136 0.962 0.3351 0.0
H799 H 0.05221 0.98095 0.38844 0.0
H800 H 0.09352 0.9973 0.40811 0.0
H801 H 0.09812 0.09213 0.38714 0.0
H802 H 0.05709 0.0762 0.36722 0.0
H803 H 0.86217 0.02693 0.36111 0.0
H804 H 0.91392 -0.00092 0.35797 0.0
H805 H 0.962 0.09092 0.35119 0.0
H806 H 0.91037 0.11912 0.35466 0.0
H807 H 0.99432 0.05495 0.37167 0.0
H808 H 0.94991 0.03816 0.3199 0.0
H809 H 0.90872 0.02229 0.30011 0.0
H810 H 0.91095 0.92445 0.31752 0.0
H811 H 0.95184 0.93983 0.33758 0.0
C812 C 0.12069 0.96685 0.35445 0.0
C813 C 0.11873 0.93342 0.35763 0.0
C814 C 0.09254 0.98536 0.35277 0.0
C815 C 0.06195 0.97089 0.35445 0.0
C816 C 0.0599 0.93738 0.35712 0.0
C817 C 0.08801 0.9188 0.35868 0.0
C818 C 0.032 0.9907 0.35397 0.0
C819 C 0.00748 0.98217 0.34317 0.0
C820 C 0.02739 0.01762 0.36419 0.0
C821 C 0.05185 0.02727 0.37625 0.0
C822 C 0.06219 0.00522 0.38796 0.0
C823 C 0.08552 0.01442 0.39916 0.0
C824 C 0.0985 0.04571 0.39885 0.0
C825 C 0.08808 0.06789 0.38736 0.0
C826 C 0.06478 0.0588 0.37612 0.0
C827 C 0.88368 0.04125 0.35883 0.0
C828 C 0.88212 0.07528 0.35817 0.0
C829 C 0.91325 0.02525 0.35695 0.0
C830 C 0.94178 0.0429 0.35415 0.0
C831 C 0.94026 0.07683 0.35331 0.0
C832 C 0.91072 0.09289 0.35529 0.0
C833 C 0.97338 0.02596 0.35295 0.0
C834 C 0.99825 0.03502 0.36345 0.0
C835 C 0.97831 -0.00039 0.34242 0.0
C836 C 0.95377 0.99022 0.33033 0.0
C837 C 0.94145 0.01331 0.31959 0.0
C838 C 0.91818 0.00439 0.30831 0.0
C839 C 0.90718 0.9724 0.30757 0.0
C840 C 0.91948 0.94923 0.3181 0.0
C841 C 0.94273 0.95803 0.32942 0.0
H842 H 0.88916 0.96554 0.29883 0.0
H843 H 0.11657 0.05278 0.40752 0.0
H844 H 0.60929 0.40912 0.14892 0.0
H845 H 0.57784 0.45911 0.15114 0.0
H846 H 0.48916 0.40463 0.1462 0.0
H847 H 0.52034 0.3545 0.14385 0.0
H848 H 0.49089 0.45717 0.12656 0.0
H849 H 0.50997 0.4349 0.1818 0.0
H850 H 0.54293 0.42235 0.2055 0.0
H851 H 0.59563 0.51126 0.19953 0.0
H852 H 0.56327 0.52414 0.17564 0.0
H853 H 0.38259 0.58358 0.14525 0.0
H854 H 0.41287 0.53291 0.14717 0.0
H855 H 0.50228 0.58646 0.15112 0.0
H856 H 0.47221 0.63745 0.14931 0.0
H857 H 0.49965 0.53419 0.17178 0.0
H858 H 0.48229 0.5558 0.11631 0.0
H859 H 0.44976 0.56892 0.09252 0.0
H860 H 0.39475 0.4815 0.09872 0.0
H861 H 0.42664 0.4681 0.1227 0.0
C862 C 0.58309 0.4077 0.14841 0.0
C863 C 0.56735 0.37779 0.14619 0.0
C864 C 0.56516 0.43629 0.14975 0.0
C865 C 0.53119 0.43551 0.14893 0.0
C866 C 0.51538 0.40571 0.14687 0.0
C867 C 0.53326 0.37709 0.14558 0.0
C868 C 0.51224 0.46596 0.14958 0.0
C869 C 0.4924 0.47377 0.13656 0.0
C870 C 0.51495 0.48796 0.16245 0.0
C871 C 0.5344 0.48033 0.17683 0.0
C872 C 0.52877 0.45165 0.18546 0.0
C873 C 0.54731 0.4445 0.19894 0.0
C874 C 0.57142 0.46595 0.20399 0.0
C875 C 0.57698 0.49464 0.19559 0.0
C876 C 0.55852 0.5019 0.18208 0.0
C877 C 0.40867 0.58468 0.14665 0.0
C878 C 0.42501 0.61461 0.14698 0.0
C879 C 0.42592 0.55567 0.14771 0.0
C880 C 0.45981 0.556 0.14907 0.0
C881 C 0.47612 0.58576 0.15004 0.0
C882 C 0.45889 0.61484 0.14894 0.0
C883 C 0.47827 0.52526 0.1488 0.0
C884 C 0.49807 0.51748 0.16183 0.0
C885 C 0.47565 0.5033 0.13592 0.0
C886 C 0.45664 0.51112 0.1214 0.0
C887 C 0.46309 0.5395 0.11267 0.0
C888 C 0.4448 0.54697 0.09914 0.0
C889 C 0.42015 0.5261 0.09414 0.0
C890 C 0.41382 0.49766 0.10262 0.0
C891 C 0.43201 0.49011 0.11618 0.0
H892 H 0.40601 0.53194 0.08366 0.0
H893 H 0.58574 0.46037 0.21444 0.0
H894 H 0.37056 0.46546 0.65364 0.0
H895 H 0.42275 0.49307 0.65483 0.0
H896 H 0.472 0.40244 0.64628 0.0
H897 H 0.4198 0.37437 0.64537 0.0
H898 H 0.50391 0.43832 0.66819 0.0
H899 H 0.4606 0.45472 0.6161 0.0
H900 H 0.41945 0.46981 0.59613 0.0
H901 H 0.41844 0.56733 0.61402 0.0
H902 H 0.45927 0.5527 0.63426 0.0
H903 H 0.65241 0.51412 0.64421 0.0
H904 H 0.60319 0.48137 0.64574 0.0
H905 H 0.54656 0.56775 0.654 0.0
H906 H 0.59545 0.60075 0.65213 0.0
H907 H 0.51995 0.53112 0.63143 0.0
H908 H 0.56309 0.51252 0.6844 0.0
H909 H 0.60605 0.49635 0.70324 0.0
H910 H 0.6096 0.40162 0.6821 0.0
H911 H 0.56678 0.4173 0.66307 0.0
C912 C 0.39246 0.45129 0.65211 0.0
C913 C 0.39097 0.41774 0.64924 0.0
C914 C 0.42228 0.46715 0.65276 0.0
C915 C 0.4512 0.44988 0.65036 0.0
C916 C 0.44994 0.41622 0.6481 0.0
C917 C 0.42007 0.40026 0.64753 0.0
C918 C 0.48254 0.46732 0.64959 0.0
C919 C 0.50758 0.45838 0.66004 0.0
C920 C 0.48725 0.49357 0.639 0.0
C921 C 0.46278 0.50252 0.62679 0.0
C922 C 0.45143 0.47932 0.61586 0.0
C923 C 0.42819 0.4878 0.60448 0.0
C924 C 0.41628 0.51949 0.60383 0.0
C925 C 0.42766 0.54279 0.61455 0.0
C926 C 0.45087 0.53442 0.62597 0.0
C927 C 0.62953 0.52615 0.64649 0.0
C928 C 0.62785 0.56009 0.648 0.0
C929 C 0.60142 0.50735 0.64742 0.0
C930 C 0.57123 0.52212 0.65009 0.0
C931 C 0.56961 0.55589 0.65189 0.0
C932 C 0.5976 0.5747 0.65086 0.0
C933 C 0.54103 0.50271 0.65031 0.0
C934 C 0.51626 0.51113 0.63964 0.0
C935 C 0.53676 0.47585 0.66057 0.0
C936 C 0.5619 0.46615 0.67226 0.0
C937 C 0.57311 0.48827 0.68375 0.0
C938 C 0.59741 0.47919 0.69447 0.0
C939 C 0.61057 0.44799 0.69385 0.0
C940 C 0.59936 0.42576 0.68257 0.0
C941 C 0.57502 0.43471 0.67184 0.0
H942 H 0.62944 0.44103 0.70214 0.0
H943 H 0.39829 0.52601 0.59501 0.0
H944 H 0.07493 0.27451 0.04813 0.0
H945 H 0.08294 0.27139 0.01934 0.0
H946 H 0.14919 0.19152 0.02569 0.0
H947 H 0.14141 0.1945 0.05457 0.0
H948 H 0.17135 0.23685 1.00365 0.0
H949 H 0.07423 0.17606 0.0141 0.0
H950 H 0.01952 0.16714 0.02508 0.0
H951 H 0.98271 0.24609 0.99708 0.0
H952 H 0.03733 0.25578 0.9861 0.0
H953 H 0.17068 0.18074 0.92312 0.0
H954 H 0.16858 0.18708 0.95205 0.0
H955 H 0.09303 0.25874 0.94702 0.0
H956 H 0.09431 0.25185 0.91819 0.0
H957 H 0.07641 0.21708 0.9687 0.0
H958 H 0.17267 0.27842 0.95807 0.0
H959 H 0.22721 0.28837 0.94708 0.0
H960 H 0.26556 0.21034 0.97521 0.0
H961 H 0.21114 0.19964 0.9862 0.0
C962 C 0.09131 0.25633 0.04344 0.0
C963 C 0.10736 0.23461 0.05365 0.0
C964 C 0.09579 0.25454 0.02696 0.0
C965 C 0.11642 0.23102 0.02037 0.0
C966 C 0.13312 0.20982 0.03054 0.0
C967 C 0.12852 0.21146 0.04703 0.0
C968 C 0.11992 0.22815 1.00284 0.0
C969 C 0.1507 0.23214 0.99599 0.0
C970 C 0.09284 0.22271 0.99285 0.0
C971 C 0.05994 0.21684 0.9994 0.0
C972 C 0.05453 0.19169 0.01038 0.0
C973 C 0.02352 0.18646 0.01659 0.0
C974 C 0.99767 0.20609 0.01182 0.0
C975 C 0.00276 0.23093 1.00079 0.0
C976 C 0.03373 0.23629 0.99456 0.0
C977 C 0.15389 0.19814 0.92816 0.0
C978 C 0.13258 0.21569 0.91832 0.0
C979 C 0.15278 0.20183 0.94472 0.0
C980 C 0.13075 0.22354 0.95176 0.0
C981 C 0.11014 0.24174 0.9419 0.0
C982 C 0.11099 0.23784 0.92539 0.0
C983 C 0.12787 0.22613 0.96938 0.0
C984 C 0.09715 0.22192 0.97629 0.0
C985 C 0.15499 0.23157 0.97938 0.0
C986 C 0.18777 0.23803 0.97284 0.0
C987 C 0.19269 0.26323 0.96182 0.0
C988 C 0.22359 0.26903 0.95561 0.0
C989 C 0.24982 0.24994 0.96041 0.0
C990 C 0.24521 0.22508 0.97148 0.0
C991 C 0.21435 0.21916 0.97772 0.0
H992 H 0.27372 0.25447 0.95559 0.0
H993 H 0.97369 0.202 0.01663 0.0
H994 H 0.74169 0.09304 0.4137 0.0
H995 H 0.7355 0.09375 0.44264 0.0
H996 H 0.80879 0.16791 0.44616 0.0
H997 H 0.815 0.16763 0.41715 0.0
H998 H 0.81902 0.11424 0.46641 0.0
H999 H 0.7339 0.18876 0.45295 0.0
H1000 H 0.68492 0.20698 0.43869 0.0
H1001 H 0.63089 0.12768 0.45848 0.0
H1002 H 0.6797 0.1087 0.47268 0.0
H1003 H 0.80094 0.13909 0.54937 0.0
H1004 H 0.80396 0.14796 0.52063 0.0
H1005 H 0.72116 0.08561 0.51377 0.0
H1006 H 0.71748 0.07729 0.54252 0.0
H1007 H 0.7162 0.13644 0.49508 0.0
H1008 H 0.79944 0.05912 0.50682 0.0
H1009 H 0.8477 0.03743 0.5205 0.0
H1010 H 0.90442 0.11741 0.50337 0.0
H1011 H 0.85634 0.13983 0.48976 0.0
C1012 C 0.75627 0.10976 0.42059 0.0
C1013 C 0.7789 0.13023 0.41311 0.0
C1014 C 0.75263 0.1102 0.43713 0.0
C1015 C 0.77164 0.13093 0.44651 0.0
C1016 C 0.79389 0.15175 0.4391 0.0
C1017 C 0.79729 0.15163 0.42253 0.0
C1018 C 0.76938 0.12964 0.46411 0.0
C1019 C 0.79673 0.11967 0.47274 0.0
C1020 C 0.73997 0.13571 0.47224 0.0
C1021 C 0.71055 0.14714 0.46377 0.0
C1022 C 0.71165 0.17504 0.45416 0.0
C1023 C 0.6839 0.18554 0.44611 0.0
C1024 C 0.65483 0.16846 0.44765 0.0
C1025 C 0.65343 0.14087 0.45728 0.0
C1026 C 0.68113 0.13025 0.46535 0.0
C1027 C 0.78333 0.1273 0.54175 0.0
C1028 C 0.7591 0.10729 0.54822 0.0
C1029 C 0.78515 0.13232 0.52531 0.0
C1030 C 0.76308 0.11707 0.515 0.0
C1031 C 0.73847 0.09762 0.52147 0.0
C1032 C 0.73647 0.09281 0.53792 0.0
C1033 C 0.76588 0.12095 0.49745 0.0
C1034 C 0.73861 0.13128 0.48881 0.0
C1035 C 0.79526 0.11474 0.48926 0.0
C1036 C 0.82421 0.10134 0.49743 0.0
C1037 C 0.82214 0.07222 0.50608 0.0
C1038 C 0.84947 0.05977 0.5138 0.0
C1039 C 0.87908 0.07609 0.51284 0.0
C1040 C 0.88144 0.10484 0.50413 0.0
C1041 C 0.85417 0.11742 0.4964 0.0
H1042 H 0.90022 0.0664 0.51882 0.0
H1043 H 0.63337 0.17663 0.44141 0.0
H1044 H 0.82095 0.80509 0.91913 0.0
H1045 H 0.82079 0.80193 0.94826 0.0
H1046 H 0.91309 0.75273 0.94715 0.0
H1047 H 0.91308 0.75499 0.9182 0.0
H1048 H 0.8765 0.72683 0.96921 0.0
H1049 H 0.90649 0.83554 0.95419 0.0
H1050 H 0.89921 0.88829 0.94082 0.0
H1051 H 0.81172 0.90471 0.96734 0.0
H1052 H 0.81828 0.85183 0.98072 0.0
H1053 H 0.9425 0.76176 0.04506 0.0
H1054 H 0.93122 0.75942 0.01653 0.0
H1055 H 0.83676 0.80122 0.02454 0.0
H1056 H 0.84789 0.80383 0.05315 0.0
H1057 H 0.86851 0.82979 0.99954 0.0
H1058 H 0.84329 0.72175 0.01662 0.0
H1059 H 0.8536 0.66967 0.03011 0.0
H1060 H 0.93563 0.65262 0.99976 0.0
H1061 H 0.92609 0.70483 0.98623 0.0
C1062 C 0.84102 0.79325 0.92509 0.0
C1063 C 0.86714 0.78053 0.91631 0.0
C1064 C 0.84097 0.79161 0.94174 0.0
C1065 C 0.86722 0.77759 0.94992 0.0
C1066 C 0.8926 0.76371 0.94114 0.0
C1067 C 0.89257 0.76512 0.92454 0.0
C1068 C 0.86919 0.77845 0.96759 0.0
C1069 C 0.87494 0.74938 0.97582 0.0
C1070 C 0.86658 0.80777 0.97629 0.0
C1071 C 0.86267 0.83959 0.96831 0.0
C1072 C 0.88557 0.8503 0.95708 0.0
C1073 C 0.8816 0.88023 0.94952 0.0
C1074 C 0.85497 0.89979 0.9532 0.0
C1075 C 0.8323 0.8895 0.96448 0.0
C1076 C 0.83614 0.85957 0.97206 0.0
C1077 C 0.9193 0.77044 0.04078 0.0
C1078 C 0.89608 0.78293 0.0514 0.0
C1079 C 0.91283 0.76895 0.02447 0.0
C1080 C 0.883 0.7798 0.01844 0.0
C1081 C 0.85989 0.79262 0.02896 0.0
C1082 C 0.86629 0.79403 0.04531 0.0
C1083 C 0.87626 0.77826 1.00109 0.0
C1084 C 0.86965 0.8072 0.99294 0.0
C1085 C 0.87846 0.74888 0.99245 0.0
C1086 C 0.8841 0.71733 1.00049 0.0
C1087 C 0.86366 0.70701 0.01289 0.0
C1088 C 0.86935 0.67744 0.02054 0.0
C1089 C 0.89529 0.65788 0.01582 0.0
C1090 C 0.91556 0.66781 1.00341 0.0
C1091 C 0.90999 0.69737 0.99573 0.0
H1092 H 0.89966 0.635 0.02175 0.0
H1093 H 0.85193 0.92296 0.94733 0.0
H1094 H 0.24195 0.91912 0.41481 0.0
H1095 H 0.24577 0.91863 0.44373 0.0
H1096 H 0.19727 0.82603 0.44507 0.0
H1097 H 0.19262 0.82666 0.416 0.0
H1098 H 0.17132 0.86596 0.46609 0.0
H1099 H 0.27953 0.83369 0.4534 0.0
H1100 H 0.33253 0.83694 0.43992 0.0
H1101 H 0.34974 0.9301 0.46111 0.0
H1102 H 0.29663 0.92762 0.47456 0.0
H1103 H 0.19807 0.84762 0.54944 0.0
H1104 H 0.2 0.83885 0.52064 0.0
H1105 H 0.24236 0.93353 0.51427 0.0
H1106 H 0.24072 0.94246 0.54304 0.0
H1107 H 0.27264 0.88779 0.49607 0.0
H1108 H 0.16312 0.92176 0.50693 0.0
H1109 H 0.10992 0.91918 0.52026 0.0
H1110 H 0.09543 0.82278 0.50232 0.0
H1111 H 0.14878 0.82463 0.48905 0.0
C1112 C 0.23239 0.89841 0.42119 0.0
C1113 C 0.21693 0.87292 0.41304 0.0
C1114 C 0.23475 0.89811 0.43777 0.0
C1115 C 0.22214 0.87213 0.44661 0.0
C1116 C 0.20722 0.84632 0.43851 0.0
C1117 C 0.20467 0.84668 0.42188 0.0
C1118 C 0.22297 0.87293 0.46431 0.0
C1119 C 0.1936 0.87006 0.47265 0.0
C1120 C 0.2519 0.87907 0.47289 0.0
C1121 C 0.28397 0.88056 0.4649 0.0
C1122 C 0.29451 0.85497 0.45511 0.0
C1123 C 0.32459 0.85666 0.44748 0.0
C1124 C 0.34446 0.88373 0.44963 0.0
C1125 C 0.33432 0.90915 0.45945 0.0
C1126 C 0.30425 0.90759 0.46709 0.0
C1127 C 0.20785 0.86658 0.54192 0.0
C1128 C 0.21907 0.89584 0.54854 0.0
C1129 C 0.20887 0.86154 0.52546 0.0
C1130 C 0.22106 0.88565 0.51529 0.0
C1131 C 0.23286 0.9146 0.52189 0.0
C1132 C 0.23177 0.91971 0.53834 0.0
C1133 C 0.22101 0.88104 0.49776 0.0
C1134 C 0.25048 0.88328 0.48948 0.0
C1135 C 0.1922 0.87432 0.48922 0.0
C1136 C 0.16009 0.8732 0.49715 0.0
C1137 C 0.14871 0.89991 0.50594 0.0
C1138 C 0.11851 0.8986 0.51346 0.0
C1139 C 0.09935 0.87079 0.51218 0.0
C1140 C 0.11032 0.84428 0.50333 0.0
C1141 C 0.14052 0.84545 0.4958 0.0
H1142 H 0.07597 0.86983 0.51801 0.0
H1143 H 0.36773 0.885 0.44372 0.0
H1144 H 0.58101 0.25855 0.08981 0.0
H1145 H 0.58121 0.25523 0.06092 0.0
H1146 H 0.67731 0.29643 0.05973 0.0
H1147 H 0.67692 0.30081 0.08883 0.0
H1148 H 0.64045 0.32533 0.0387 0.0
H1149 H 0.66251 0.21453 0.05095 0.0
H1150 H 0.65465 0.16189 0.0643 0.0
H1151 H 0.55993 0.15355 0.0435 0.0
H1152 H 0.56702 0.20636 0.03019 0.0
H1153 H 0.65219 0.29754 0.95488 0.0
H1154 H 0.66224 0.2951 0.98357 0.0
H1155 H 0.56438 0.2618 0.99124 0.0
H1156 H 0.55417 0.26391 0.9626 0.0
H1157 H 0.60804 0.22703 0.0086 0.0
H1158 H 0.58459 0.3398 0.99843 0.0
H1159 H 0.5922 0.39263 0.98521 0.0
H1160 H 0.6903 0.3967 1.00221 0.0
H1161 H 0.68339 0.34365 0.01536 0.0
C1162 C 0.60244 0.26657 0.08348 0.0
C1163 C 0.62899 0.27995 0.09169 0.0
C1164 C 0.60255 0.26448 0.0669 0.0
C1165 C 0.62945 0.27514 0.0581 0.0
C1166 C 0.6563 0.28797 0.06626 0.0
C1167 C 0.65609 0.29036 0.0829 0.0
C1168 C 0.62853 0.27457 0.04039 0.0
C1169 C 0.63405 0.30362 0.03211 0.0
C1170 C 0.61949 0.24646 0.03176 0.0
C1171 C 0.61523 0.21453 0.03965 0.0
C1172 C 0.63992 0.20157 0.0493 0.0
C1173 C 0.63561 0.17168 0.05685 0.0
C1174 C 0.60679 0.15441 0.05477 0.0
C1175 C 0.58224 0.16696 0.0451 0.0
C1176 C 0.58641 0.19685 0.03753 0.0
C1177 C 0.63279 0.2897 0.96267 0.0
C1178 C 0.60231 0.28105 0.95645 0.0
C1179 C 0.63857 0.28839 0.97907 0.0
C1180 C 0.61398 0.2785 0.98956 0.0
C1181 C 0.5837 0.26947 0.98336 0.0
C1182 C 0.57787 0.27083 0.96698 0.0
C1183 C 0.61957 0.27781 0.00702 0.0
C1184 C 0.61489 0.24855 0.01523 0.0
C1185 C 0.62945 0.30567 0.01557 0.0
C1186 C 0.63359 0.3376 0.00772 0.0
C1187 C 0.60787 0.35184 0.99923 0.0
C1188 C 0.61204 0.38185 0.99178 0.0
C1189 C 0.64175 0.39797 0.99283 0.0
C1190 C 0.66732 0.38415 1.00138 0.0
C1191 C 0.66329 0.35413 0.00885 0.0
H1192 H 0.64493 0.4212 0.98705 0.0
H1193 H 0.6035 0.13128 0.06064 0.0
H1194 H 0.6944 0.66782 0.59109 0.0
H1195 H 0.69754 0.66839 0.56198 0.0
H1196 H 0.75758 0.58278 0.56303 0.0
H1197 H 0.75503 0.58225 0.59202 0.0
H1198 H 0.77876 0.62428 0.5409 0.0
H1199 H 0.67636 0.57754 0.55606 0.0
H1200 H 0.62336 0.57621 0.56964 0.0
H1201 H 0.59299 0.66053 0.54362 0.0
H1202 H 0.64602 0.66261 0.53004 0.0
H1203 H 0.75333 0.55683 0.46438 0.0
H1204 H 0.75482 0.56737 0.49299 0.0
H1205 H 0.69776 0.65391 0.4862 0.0
H1206 H 0.69598 0.64349 0.45751 0.0
H1207 H 0.67538 0.61718 0.51087 0.0
H1208 H 0.7775 0.6601 0.49386 0.0
H1209 H 0.83038 0.65925 0.48017 0.0
H1210 H 0.86128 0.57984 0.50954 0.0
H1211 H 0.80839 0.57991 0.52326 0.0
C1212 C 0.70859 0.64933 0.58514 0.0
C1213 C 0.72422 0.62482 0.59391 0.0
C1214 C 0.71025 0.64962 0.5685 0.0
C1215 C 0.72737 0.62532 0.56032 0.0
C1216 C 0.74416 0.60173 0.56908 0.0
C1217 C 0.74259 0.60144 0.58568 0.0
C1218 C 0.72668 0.62341 0.54267 0.0
C1219 C 0.75617 0.62252 0.53434 0.0
C1220 C 0.69719 0.6217 0.53407 0.0
C1221 C 0.66527 0.62045 0.54218 0.0
C1222 C 0.65847 0.59595 0.55333 0.0
C1223 C 0.62842 0.59503 0.56101 0.0
C1224 C 0.60486 0.61833 0.55753 0.0
C1225 C 0.61128 0.64254 0.54633 0.0
C1226 C 0.64133 0.64359 0.53863 0.0
C1227 C 0.74113 0.57816 0.46894 0.0
C1228 C 0.72455 0.59932 0.45865 0.0
C1229 C 0.74215 0.58423 0.4853 0.0
C1230 C 0.7267 0.61162 0.4917 0.0
C1231 C 0.70992 0.63268 0.48149 0.0
C1232 C 0.70897 0.6267 0.4651 0.0
C1233 C 0.72747 0.61776 0.50912 0.0
C1234 C 0.69797 0.61935 0.5174 0.0
C1235 C 0.75696 0.61986 0.51767 0.0
C1236 C 0.78887 0.61985 0.5095 0.0
C1237 C 0.79548 0.6423 0.49732 0.0
C1238 C 0.82547 0.64198 0.48957 0.0
C1239 C 0.84915 0.61946 0.49396 0.0
C1240 C 0.8429 0.59726 0.50614 0.0
C1241 C 0.81294 0.59745 0.51392 0.0
H1242 H 0.87235 0.61925 0.48795 0.0
H1243 H 0.5816 0.61758 0.56348 0.0
H1244 H 0.32495 0.68631 0.08797 0.0
H1245 H 0.32722 0.68971 0.05889 0.0
H1246 H 0.41519 0.74582 0.06204 0.0
H1247 H 0.41297 0.74294 0.09101 0.0
H1248 H 0.37638 0.76931 0.03924 0.0
H1249 H 0.41801 0.6652 0.05452 0.0
H1250 H 0.41675 0.61198 0.06789 0.0
H1251 H 0.33333 0.58478 0.04038 0.0
H1252 H 0.33382 0.63805 0.027 0.0
H1253 H 0.44443 0.74326 0.96277 0.0
H1254 H 0.4342 0.74343 0.99144 0.0
H1255 H 0.34437 0.69221 0.98392 0.0
H1256 H 0.35441 0.69185 0.95519 0.0
H1257 H 0.38053 0.66648 0.00861 0.0
H1258 H 0.34236 0.77123 0.99207 0.0
H1259 H 0.34629 0.82435 0.97876 0.0
H1260 H 0.42655 0.85015 0.00876 0.0
H1261 H 0.4234 0.79697 0.0221 0.0
C1262 C 0.34458 0.6997 0.08249 0.0
C1263 C 0.36892 0.71412 0.09185 0.0
C1264 C 0.34592 0.70148 0.06586 0.0
C1265 C 0.37166 0.71759 0.05829 0.0
C1266 C 0.39516 0.73319 0.06762 0.0
C1267 C 0.39386 0.73144 0.08421 0.0
C1268 C 0.37495 0.71721 0.04068 0.0
C1269 C 0.37753 0.74683 0.03256 0.0
C1270 C 0.37599 0.68786 0.03193 0.0
C1271 C 0.37573 0.65575 0.03989 0.0
C1272 C 0.39924 0.64797 0.05141 0.0
C1273 C 0.39869 0.61778 0.05898 0.0
C1274 C 0.37491 0.59506 0.05502 0.0
C1275 C 0.35169 0.60244 0.04345 0.0
C1276 C 0.3521 0.63261 0.03587 0.0
C1277 C 0.42248 0.73202 0.96719 0.0
C1278 C 0.40021 0.7176 0.95668 0.0
C1279 C 0.41661 0.73226 0.98358 0.0
C1280 C 0.38837 0.71811 0.9898 0.0
C1281 C 0.36628 0.70332 0.97937 0.0
C1282 C 0.37204 0.70322 0.96295 0.0
C1283 C 0.3821 0.71858 0.0072 0.0
C1284 C 0.37905 0.68897 0.01528 0.0
C1285 C 0.38098 0.74792 0.01594 0.0
C1286 C 0.38281 0.78 0.00799 0.0
C1287 C 0.36101 0.78813 0.99575 0.0
C1288 C 0.36307 0.81827 0.98821 0.0
C1289 C 0.3867 0.84058 0.99289 0.0
C1290 C 0.40828 0.83283 0.00514 0.0
C1291 C 0.40634 0.80271 0.01271 0.0
H1292 H 0.38826 0.86391 0.98703 0.0
H1293 H 0.37453 0.5717 0.06089 0.0
H1294 H 0.2494 0.40784 0.59684 0.0
H1295 H 0.24244 0.41013 0.56797 0.0
H1296 H 0.30749 0.32903 0.56248 0.0
H1297 H 0.31456 0.32642 0.5914 0.0
H1298 H 0.32323 0.3817 0.5432 0.0
H1299 H 0.22918 0.31808 0.55586 0.0
H1300 H 0.17833 0.30551 0.56999 0.0
H1301 H 0.13504 0.39255 0.5517 0.0
H1302 H 0.18581 0.40589 0.53763 0.0
H1303 H 0.301 0.35992 0.46036 0.0
H1304 H 0.30293 0.35111 0.48911 0.0
H1305 H 0.2306 0.4254 0.49591 0.0
H1306 H 0.22812 0.43401 0.46713 0.0
H1307 H 0.21818 0.37474 0.51462 0.0
H1308 H 0.31047 0.44058 0.50321 0.0
H1309 H 0.36101 0.45636 0.48959 0.0
H1310 H 0.40732 0.36941 0.50613 0.0
H1311 H 0.35687 0.35288 0.51967 0.0
C1312 C 0.26194 0.3902 0.58953 0.0
C1313 C 0.28262 0.36698 0.59646 0.0
C1314 C 0.25785 0.39151 0.57302 0.0
C1315 C 0.2744 0.36971 0.56308 0.0
C1316 C 0.29451 0.34608 0.56995 0.0
C1317 C 0.2984 0.34454 0.58648 0.0
C1318 C 0.27204 0.37275 0.54551 0.0
C1319 C 0.30036 0.3796 0.5369 0.0
C1320 C 0.24201 0.37115 0.5374 0.0
C1321 C 0.21141 0.36313 0.5458 0.0
C1322 C 0.20892 0.33468 0.55495 0.0
C1323 C 0.18008 0.32739 0.56293 0.0
C1324 C 0.1535 0.34826 0.56177 0.0
C1325 C 0.15566 0.37643 0.5526 0.0
C1326 C 0.18445 0.38385 0.54461 0.0
C1327 C 0.28547 0.3744 0.46796 0.0
C1328 C 0.26456 0.39784 0.46143 0.0
C1329 C 0.28667 0.36938 0.48441 0.0
C1330 C 0.26722 0.38788 0.49471 0.0
C1331 C 0.24586 0.41086 0.48821 0.0
C1332 C 0.24457 0.41583 0.47174 0.0
C1333 C 0.26944 0.38353 0.51226 0.0
C1334 C 0.2411 0.37661 0.52088 0.0
C1335 C 0.29941 0.38549 0.52044 0.0
C1336 C 0.32978 0.39532 0.5123 0.0
C1337 C 0.33135 0.42469 0.50382 0.0
C1338 C 0.35999 0.43379 0.49614 0.0
C1339 C 0.38733 0.41386 0.49695 0.0
C1340 C 0.3861 0.3848 0.50549 0.0
C1341 C 0.3575 0.37556 0.51317 0.0
H1342 H 0.40949 0.42096 0.491 0.0
H1343 H 0.1312 0.34257 0.56796 0.0
H1344 H 0.1059 0.28089 0.20148 0.0
H1345 H 0.12545 0.30817 0.22556 0.0
H1346 H 0.19435 0.23094 0.23314 0.0
H1347 H 0.17475 0.20358 0.20926 0.0
H1348 H 0.16703 0.24605 0.26017 0.0
H1349 H 0.21598 0.30604 0.21718 0.0
H1350 H 0.21611 0.3384 0.19249 0.0
H1351 H 0.1585 0.41169 0.21529 0.0
H1352 H 0.15764 0.37951 0.24006 0.0
H1353 H 0.28951 0.31669 0.30752 0.0
H1354 H 0.25907 0.29543 0.28478 0.0
H1355 H 0.18535 0.36811 0.29202 0.0
H1356 H 0.21569 0.38939 0.31496 0.0
H1357 H 0.2084 0.35896 0.25887 0.0
H1358 H 0.16525 0.2995 0.30304 0.0
H1359 H 0.16862 0.26683 0.32756 0.0
H1360 H 0.21884 0.19179 0.30209 0.0
H1361 H 0.21627 0.22429 0.27746 0.0
C1362 C 0.12551 0.26999 0.20816 0.0
C1363 C 0.1392 0.24038 0.20331 0.0
C1364 C 0.13657 0.28553 0.22197 0.0
C1365 C 0.16169 0.27184 0.23109 0.0
C1366 C 0.17494 0.242 0.22635 0.0
C1367 C 0.16374 0.2264 0.21267 0.0
C1368 C 0.1745 0.28833 0.24554 0.0
C1369 C 0.17621 0.27068 0.25982 0.0
C1370 C 0.18581 0.32077 0.24526 0.0
C1371 C 0.18642 0.34019 0.2304 0.0
C1372 C 0.20312 0.32893 0.21689 0.0
C1373 C 0.20336 0.34726 0.20289 0.0
C1374 C 0.18724 0.37703 0.2023 0.0
C1375 C 0.17092 0.38859 0.21574 0.0
C1376 C 0.17056 0.37032 0.22977 0.0
C1377 C 0.26683 0.32816 0.30425 0.0
C1378 C 0.25472 0.35439 0.31311 0.0
C1379 C 0.24946 0.31597 0.29131 0.0
C1380 C 0.21989 0.33008 0.28682 0.0
C1381 C 0.20807 0.35683 0.29537 0.0
C1382 C 0.22524 0.36874 0.30852 0.0
C1383 C 0.20145 0.31638 0.27326 0.0
C1384 C 0.19873 0.33452 0.2592 0.0
C1385 C 0.18952 0.28427 0.27367 0.0
C1386 C 0.1908 0.26447 0.28842 0.0
C1387 C 0.17725 0.27616 0.30269 0.0
C1388 C 0.17898 0.25765 0.31661 0.0
C1389 C 0.19399 0.22728 0.31639 0.0
C1390 C 0.20723 0.21533 0.30224 0.0
C1391 C 0.20562 0.23378 0.28829 0.0
H1392 H 0.19531 0.21299 0.32718 0.0
H1393 H 0.18746 0.39119 0.19146 0.0
H1394 H 0.71604 0.16414 0.68306 0.0
H1395 H 0.68865 0.18699 0.70622 0.0
H1396 H 0.74973 0.13026 0.73725 0.0
H1397 H 0.77646 0.10626 0.71399 0.0
H1398 H 0.6873 0.13182 0.74794 0.0
H1399 H 0.767 0.20874 0.72977 0.0
H1400 H 0.79385 0.24377 0.70998 0.0
H1401 H 0.70522 0.2966 0.70313 0.0
H1402 H 0.6777 0.26155 0.72273 0.0
H1403 H 0.67451 0.22333 0.81925 0.0
H1404 H 0.69231 0.19469 0.7954 0.0
H1405 H 0.63125 0.25601 0.76654 0.0
H1406 H 0.6131 0.28469 0.79049 0.0
H1407 H 0.69047 0.25141 0.75417 0.0
H1408 H 0.6113 0.17653 0.77341 0.0
H1409 H 0.58436 0.14156 0.79319 0.0
H1410 H 0.67124 0.08506 0.79806 0.0
H1411 H 0.69889 0.12 0.77847 0.0
C1412 C 0.72294 0.15565 0.69476 0.0
C1413 C 0.74791 0.13278 0.69669 0.0
C1414 C 0.70759 0.16916 0.70802 0.0
C1415 C 0.71731 0.16052 0.72347 0.0
C1416 C 0.74178 0.1372 0.72544 0.0
C1417 C 0.75711 0.12363 0.71216 0.0
C1418 C 0.70303 0.17688 0.73757 0.0
C1419 C 0.68825 0.15794 0.7494 0.0
C1420 C 0.70362 0.21103 0.73927 0.0
C1421 C 0.72021 0.23231 0.7276 0.0
C1422 C 0.75317 0.22767 0.72396 0.0
C1423 C 0.76852 0.24755 0.71279 0.0
C1424 C 0.75122 0.27234 0.70527 0.0
C1425 C 0.71857 0.27736 0.70894 0.0
C1426 C 0.70309 0.25751 0.72009 0.0
C1427 C 0.66407 0.2301 0.80792 0.0
C1428 C 0.64166 0.25567 0.80681 0.0
C1429 C 0.67448 0.21384 0.79425 0.0
C1430 C 0.66271 0.22282 0.77919 0.0
C1431 C 0.64051 0.24853 0.77804 0.0
C1432 C 0.63014 0.26485 0.79172 0.0
C1433 C 0.67477 0.20638 0.76461 0.0
C1434 C 0.68924 0.22531 0.75269 0.0
C1435 C 0.67385 0.17225 0.76284 0.0
C1436 C 0.65726 0.15108 0.77457 0.0
C1437 C 0.62475 0.1568 0.77879 0.0
C1438 C 0.60934 0.13696 0.78995 0.0
C1439 C 0.6261 0.11115 0.7969 0.0
C1440 C 0.6583 0.10508 0.79267 0.0
C1441 C 0.67385 0.12488 0.78153 0.0
H1442 H 0.61412 0.09581 0.80554 0.0
H1443 H 0.76315 0.2877 0.69662 0.0
H1444 H 0.71703 0.61274 0.29343 0.0
H1445 H 0.74525 0.63553 0.27036 0.0
H1446 H 0.79408 0.70377 0.30103 0.0
H1447 H 0.76499 0.68205 0.32394 0.0
H1448 H 0.77081 0.73332 0.2756 0.0
H1449 H 0.83422 0.63809 0.285 0.0
H1450 H 0.84413 0.57979 0.28926 0.0
H1451 H 0.80437 0.55848 0.24318 0.0
H1452 H 0.79378 0.61664 0.23872 0.0
H1453 H 0.88109 0.79115 0.21756 0.0
H1454 H 0.85997 0.76414 0.24135 0.0
H1455 H 0.80452 0.69916 0.21174 0.0
H1456 H 0.825 0.72635 0.18799 0.0
H1457 H 0.83357 0.66735 0.23697 0.0
H1458 H 0.76821 0.76245 0.22828 0.0
H1459 H 0.75858 0.82082 0.22406 0.0
H1460 H 0.80271 0.84219 0.26918 0.0
H1461 H 0.81302 0.78393 0.27356 0.0
C1462 C 0.73397 0.63246 0.29525 0.0
C1463 C 0.73943 0.64498 0.31058 0.0
C1464 C 0.75024 0.64531 0.28208 0.0
C1465 C 0.77226 0.67098 0.284 0.0
C1466 C 0.77751 0.68371 0.29929 0.0
C1467 C 0.76121 0.6709 0.31244 0.0
C1468 C 0.78868 0.68557 0.26999 0.0
C1469 C 0.78499 0.71895 0.26731 0.0
C1470 C 0.80656 0.66672 0.25896 0.0
C1471 C 0.81293 0.63171 0.26159 0.0
C1472 C 0.82734 0.62096 0.27582 0.0
C1473 C 0.83313 0.58793 0.27827 0.0
C1474 C 0.82481 0.56544 0.26651 0.0
C1475 C 0.81076 0.57593 0.25228 0.0
C1476 C 0.80489 0.60893 0.24978 0.0
C1477 C 0.86464 0.77089 0.21613 0.0
C1478 C 0.8553 0.76046 0.20087 0.0
C1479 C 0.85258 0.75551 0.22972 0.0
C1480 C 0.83061 0.72969 0.2283 0.0
C1481 C 0.82172 0.71881 0.21309 0.0
C1482 C 0.83373 0.73422 0.1995 0.0
C1483 C 0.8157 0.71501 0.24266 0.0
C1484 C 0.81957 0.68166 0.24535 0.0
C1485 C 0.79803 0.73386 0.25375 0.0
C1486 C 0.79169 0.76887 0.25117 0.0
C1487 C 0.77609 0.77962 0.23724 0.0
C1488 C 0.77047 0.81268 0.23483 0.0
C1489 C 0.78011 0.83521 0.24632 0.0
C1490 C 0.7953 0.82471 0.26027 0.0
C1491 C 0.80102 0.79168 0.26274 0.0
H1492 H 0.77573 0.86079 0.24443 0.0
H1493 H 0.82932 0.53988 0.26843 0.0
H1494 H 0.36761 0.70432 0.79045 0.0
H1495 H 0.3451 0.73139 0.76709 0.0
H1496 H 0.31171 0.81001 0.79679 0.0
H1497 H 0.33159 0.78184 0.82021 0.0
H1498 H 0.26682 0.79625 0.77804 0.0
H1499 H 0.37902 0.81648 0.76992 0.0
H1500 H 0.43719 0.80358 0.76745 0.0
H1501 H 0.41722 0.74276 0.72712 0.0
H1502 H 0.35886 0.75494 0.72948 0.0
H1503 H 0.27002 0.88281 0.69483 0.0
H1504 H 0.29881 0.86349 0.71853 0.0
H1505 H 0.22399 0.79213 0.72634 0.0
H1506 H 0.19492 0.81185 0.70292 0.0
H1507 H 0.32584 0.80914 0.72697 0.0
H1508 H 0.21159 0.77909 0.76497 0.0
H1509 H 0.15571 0.79919 0.76852 0.0
H1510 H 0.18423 0.89289 0.75124 0.0
H1511 H 0.24034 0.87349 0.74779 0.0
C1512 C 0.3557 0.72752 0.79199 0.0
C1513 C 0.35246 0.74133 0.80723 0.0
C1514 C 0.34308 0.74316 0.77858 0.0
C1515 C 0.3273 0.77321 0.78005 0.0
C1516 C 0.3241 0.78705 0.79525 0.0
C1517 C 0.33619 0.77115 0.8087 0.0
C1518 C 0.31237 0.78922 0.76593 0.0
C1519 C 0.27986 0.79916 0.76691 0.0
C1520 C 0.32942 0.79378 0.75145 0.0
C1521 C 0.36452 0.78643 0.74996 0.0
C1522 C 0.387 0.80017 0.76059 0.0
C1523 C 0.42001 0.79302 0.7592 0.0
C1524 C 0.43088 0.77231 0.74716 0.0
C1525 C 0.40876 0.75878 0.73645 0.0
C1526 C 0.37572 0.76583 0.7378 0.0
C1527 C 0.25993 0.86281 0.70153 0.0
C1528 C 0.23032 0.84873 0.69702 0.0
C1529 C 0.27634 0.85185 0.7151 0.0
C1530 C 0.2634 0.82662 0.72437 0.0
C1531 C 0.23414 0.81211 0.71962 0.0
C1532 C 0.21758 0.82333 0.70621 0.0
C1533 C 0.28022 0.81549 0.73906 0.0
C1534 C 0.31299 0.80641 0.73816 0.0
C1535 C 0.26377 0.81275 0.7538 0.0
C1536 C 0.23011 0.82472 0.75598 0.0
C1537 C 0.20596 0.80402 0.76199 0.0
C1538 C 0.17424 0.81528 0.76397 0.0
C1539 C 0.16641 0.84727 0.76006 0.0
C1540 C 0.1903 0.86809 0.75421 0.0
C1541 C 0.22206 0.85696 0.75222 0.0
H1542 H 0.14184 0.85593 0.7616 0.0
H1543 H 0.45645 0.7668 0.74611 0.0
H1544 H 0.84408 0.78476 0.80595 0.0
H1545 H 0.83104 0.76494 0.77922 0.0
H1546 H 0.82514 0.66722 0.79738 0.0
H1547 H 0.83911 0.68715 0.82414 0.0
H1548 H 0.85455 0.66768 0.76909 0.0
H1549 H 0.75675 0.71221 0.79034 0.0
H1550 H 0.72272 0.75386 0.80317 0.0
H1551 H 0.73998 0.81866 0.76408 0.0
H1552 H 0.7746 0.77759 0.75113 0.0
H1553 H 0.76254 0.60609 0.70315 0.0
H1554 H 0.78225 0.62235 0.72949 0.0
H1555 H 0.79575 0.72012 0.71251 0.0
H1556 H 0.77642 0.70377 0.68608 0.0
H1557 H 0.76208 0.71798 0.74046 0.0
H1558 H 0.86024 0.67179 0.71933 0.0
H1559 H 0.89357 0.62905 0.70692 0.0
H1560 H 0.87358 0.56546 0.74618 0.0
H1561 H 0.83973 0.60767 0.75872 0.0
C1562 C 0.83998 0.75907 0.80417 0.0
C1563 C 0.8421 0.73743 0.817 0.0
C1564 C 0.83251 0.74776 0.78895 0.0
C1565 C 0.82647 0.71466 0.78634 0.0
C1566 C 0.82954 0.69286 0.79912 0.0
C1567 C 0.83736 0.7042 0.81436 0.0
C1568 C 0.81623 0.70309 0.77036 0.0
C1569 C 0.83406 0.67836 0.76291 0.0
C1570 C 0.78974 0.71732 0.7622 0.0
C1571 C 0.7685 0.74191 0.76983 0.0
C1572 C 0.75345 0.73542 0.78452 0.0
C1573 C 0.73405 0.75892 0.79182 0.0
C1574 C 0.72925 0.78891 0.78446 0.0
C1575 C 0.74376 0.79543 0.76977 0.0
C1576 C 0.76326 0.77203 0.76244 0.0
C1577 C 0.77039 0.63086 0.70497 0.0
C1578 C 0.7682 0.65368 0.6926 0.0
C1579 C 0.78152 0.64015 0.72002 0.0
C1580 C 0.79064 0.67241 0.72294 0.0
C1581 C 0.78881 0.69512 0.71052 0.0
C1582 C 0.77781 0.68579 0.69546 0.0
C1583 C 0.80062 0.68286 0.73912 0.0
C1584 C 0.78259 0.70731 0.74663 0.0
C1585 C 0.82668 0.66813 0.74736 0.0
C1586 C 0.84718 0.64279 0.73988 0.0
C1587 C 0.86273 0.6486 0.72525 0.0
C1588 C 0.88176 0.62448 0.71821 0.0
C1589 C 0.88562 0.59453 0.72573 0.0
C1590 C 0.87054 0.58866 0.74035 0.0
C1591 C 0.85145 0.61268 0.74744 0.0
H1592 H 0.90037 0.57589 0.72026 0.0
H1593 H 0.71423 0.80708 0.79012 0.0
H1594 H 0.25394 0.88946 0.30403 0.0
H1595 H 0.27427 0.87401 0.27775 0.0
H1596 H 0.29164 0.7768 0.29474 0.0
H1597 H 0.27281 0.79276 0.32132 0.0
H1598 H 0.33929 0.79472 0.27573 0.0
H1599 H 0.22309 0.79712 0.27298 0.0
H1600 H 0.1687 0.82125 0.27586 0.0
H1601 H 0.19382 0.89581 0.24239 0.0
H1602 H 0.24856 0.87237 0.23949 0.0
H1603 H 0.33636 0.71021 0.2019 0.0
H1604 H 0.32299 0.73119 0.22844 0.0
H1605 H 0.32151 0.82858 0.20972 0.0
H1606 H 0.33515 0.8075 0.18312 0.0
H1607 H 0.26756 0.81311 0.22914 0.0
H1608 H 0.38351 0.80733 0.23096 0.0
H1609 H 0.43684 0.78104 0.22796 0.0
H1610 H 0.41073 0.71014 0.26312 0.0
H1611 H 0.357 0.7357 0.26614 0.0
C1612 C 0.26273 0.86499 0.30224 0.0
C1613 C 0.26181 0.84226 0.31468 0.0
C1614 C 0.27398 0.85606 0.28717 0.0
C1615 C 0.28394 0.82406 0.28416 0.0
C1616 C 0.28397 0.80159 0.29674 0.0
C1617 C 0.27304 0.81063 0.31187 0.0
C1618 C 0.29336 0.81375 0.26783 0.0
C1619 C 0.32344 0.79846 0.26558 0.0
C1620 C 0.27299 0.81916 0.25449 0.0
C1621 C 0.24003 0.83318 0.25614 0.0
C1622 C 0.21709 0.81879 0.26632 0.0
C1623 C 0.18619 0.83233 0.26794 0.0
C1624 C 0.17784 0.86009 0.25934 0.0
C1625 C 0.20035 0.87433 0.24906 0.0
C1626 C 0.23131 0.86092 0.24742 0.0
C1627 C 0.33309 0.73607 0.2035 0.0
C1628 C 0.33657 0.75734 0.19058 0.0
C1629 C 0.32564 0.74803 0.21863 0.0
C1630 C 0.32146 0.78145 0.22105 0.0
C1631 C 0.32468 0.80272 0.20809 0.0
C1632 C 0.33249 0.79075 0.19296 0.0
C1633 C 0.3133 0.79398 0.23711 0.0
C1634 C 0.28345 0.80961 0.23929 0.0
C1635 C 0.33372 0.78859 0.25039 0.0
C1636 C 0.3661 0.77327 0.24867 0.0
C1637 C 0.38902 0.78597 0.23795 0.0
C1638 C 0.41935 0.77122 0.23627 0.0
C1639 C 0.42715 0.7439 0.24532 0.0
C1640 C 0.40465 0.7313 0.2561 0.0
C1641 C 0.37426 0.74592 0.25781 0.0
H1642 H 0.45064 0.73252 0.244 0.0
H1643 H 0.1539 0.87054 0.26061 0.0
H1644 H 0.16933 0.20652 0.80869 0.0
H1645 H 0.18453 0.22698 0.78233 0.0
H1646 H 0.17479 0.3252 0.79939 0.0
H1647 H 0.15999 0.30461 0.82589 0.0
H1648 H 0.15321 0.26436 0.76086 0.0
H1649 H 0.23454 0.3708 0.78103 0.0
H1650 H 0.26849 0.38631 0.804 0.0
H1651 H 0.28367 0.28592 0.81528 0.0
H1652 H 0.25034 0.26983 0.79223 0.0
H1653 H 0.19741 0.3547 0.69169 0.0
H1654 H 0.17745 0.34056 0.71834 0.0
H1655 H 0.27204 0.30331 0.73058 0.0
H1656 H 0.29228 0.31894 0.70437 0.0
H1657 H 0.24938 0.33542 0.75464 0.0
H1658 H 0.20694 0.25322 0.71949 0.0
H1659 H 0.1763 0.23285 0.69634 0.0
H1660 H 0.08918 0.27598 0.71467 0.0
H1661 H 0.11942 0.29697 0.73784 0.0
C1662 C 0.17062 0.23246 0.80679 0.0
C1663 C 0.16391 0.25407 0.81927 0.0
C1664 C 0.179 0.24412 0.79173 0.0
C1665 C 0.18098 0.27761 0.78891 0.0
C1666 C 0.17371 0.29927 0.80134 0.0
C1667 C 0.16522 0.28756 0.81642 0.0
C1668 C 0.19154 0.28965 0.77307 0.0
C1669 C 0.17412 0.28006 0.7595 0.0
C1670 C 0.21908 0.30975 0.77127 0.0
C1671 C 0.2396 0.31916 0.78502 0.0
C1672 C 0.24523 0.35205 0.78838 0.0
C1673 C 0.26437 0.36094 0.80141 0.0
C1674 C 0.27814 0.33712 0.81113 0.0
C1675 C 0.27292 0.30435 0.80778 0.0
C1676 C 0.25388 0.29534 0.79474 0.0
C1677 C 0.21389 0.34371 0.70015 0.0
C1678 C 0.24625 0.33752 0.69592 0.0
C1679 C 0.20246 0.33542 0.71532 0.0
C1680 C 0.22311 0.32042 0.72643 0.0
C1681 C 0.25558 0.31477 0.72224 0.0
C1682 C 0.26704 0.32333 0.70718 0.0
C1683 C 0.2111 0.3101 0.74236 0.0
C1684 C 0.22822 0.32005 0.75598 0.0
C1685 C 0.18373 0.28971 0.74417 0.0
C1686 C 0.1655 0.27693 0.73031 0.0
C1687 C 0.18129 0.25853 0.71853 0.0
C1688 C 0.16399 0.24686 0.70541 0.0
C1689 C 0.13083 0.25319 0.70401 0.0
C1690 C 0.11488 0.27114 0.71575 0.0
C1691 C 0.13208 0.28291 0.72889 0.0
H1692 H 0.11748 0.24413 0.69384 0.0
H1693 H 0.29291 0.34405 0.82122 0.0
H1694 H 0.68562 0.14542 0.32069 0.0
H1695 H 0.66385 0.157 0.29402 0.0
H1696 H 0.76046 0.17859 0.27738 0.0
H1697 H 0.78217 0.16607 0.30377 0.0
H1698 H 0.66324 0.21042 0.27666 0.0
H1699 H 0.76948 0.1564 0.23922 0.0
H1700 H 0.80833 0.11105 0.24086 0.0
H1701 H 0.74327 0.05921 0.27157 0.0
H1702 H 0.70383 0.104 0.26992 0.0
H1703 H 0.66821 0.28177 0.20099 0.0
H1704 H 0.68121 0.25979 0.22725 0.0
H1705 H 0.65829 0.16349 0.21058 0.0
H1706 H 0.64658 0.18545 0.18401 0.0
H1707 H 0.71083 0.16141 0.228 0.0
H1708 H 0.60569 0.20562 0.23476 0.0
H1709 H 0.56235 0.24667 0.23313 0.0
H1710 H 0.61658 0.3098 0.26384 0.0
H1711 H 0.66049 0.26932 0.26547 0.0
C1712 C 0.70208 0.15248 0.31126 0.0
C1713 C 0.73547 0.15504 0.31422 0.0
C1714 C 0.68968 0.15919 0.29609 0.0
C1715 C 0.71055 0.16834 0.28365 0.0
C1716 C 0.74392 0.17108 0.2867 0.0
C1717 C 0.75627 0.16428 0.30181 0.0
C1718 C 0.69763 0.17578 0.26754 0.0
C1719 C 0.67354 0.19961 0.26603 0.0
C1720 C 0.71037 0.16099 0.25366 0.0
C1721 C 0.7338 0.13372 0.25454 0.0
C1722 C 0.76338 0.13526 0.24625 0.0
C1723 C 0.78553 0.10965 0.2472 0.0
C1724 C 0.77831 0.0823 0.25635 0.0
C1725 C 0.74888 0.08045 0.26453 0.0
C1726 C 0.72664 0.10596 0.26361 0.0
C1727 C 0.66637 0.25587 0.20289 0.0
C1728 C 0.6566 0.23523 0.19049 0.0
C1729 C 0.67339 0.24336 0.21794 0.0
C1730 C 0.67023 0.21003 0.22099 0.0
C1731 C 0.66077 0.1893 0.20854 0.0
C1732 C 0.65397 0.20182 0.19342 0.0
C1733 C 0.67735 0.19696 0.23711 0.0
C1734 C 0.70033 0.17204 0.23863 0.0
C1735 C 0.66293 0.21011 0.251 0.0
C1736 C 0.63649 0.2345 0.25014 0.0
C1737 C 0.60848 0.22834 0.24108 0.0
C1738 C 0.5838 0.2515 0.24017 0.0
C1739 C 0.58673 0.28085 0.24836 0.0
C1740 C 0.61434 0.28706 0.2575 0.0
C1741 C 0.63912 0.264 0.25844 0.0
H1742 H 0.5676 0.29875 0.24763 0.0
H1743 H 0.7955 0.06253 0.25707 0.0
H1744 H 0.51021 0.19668 0.10614 0.0
H1745 H 0.45174 0.18834 0.10366 0.0
H1746 H 0.43859 0.21947 0.15228 0.0
H1747 H 0.49687 0.22849 0.15477 0.0
H1748 H 0.40216 0.15569 0.11798 0.0
H1749 H 0.37769 0.27403 0.15316 0.0
H1750 H 0.40621 0.32476 0.15998 0.0
H1751 H 0.46447 0.31608 0.11782 0.0
H1752 H 0.43593 0.26564 0.11062 0.0
H1753 H 0.23524 0.17178 0.13619 0.0
H1754 H 0.29444 0.1681 0.13648 0.0
H1755 H 0.30009 0.25025 0.10474 0.0
H1756 H 0.24078 0.25475 0.10503 0.0
H1757 H 0.34119 0.25753 0.12788 0.0
H1758 H 0.31593 0.17211 0.09186 0.0
H1759 H 0.28847 0.12265 0.0824 0.0
H1760 H 0.33042 0.06824 0.12081 0.0
H1761 H 0.35778 0.1175 0.13065 0.0
C1762 C 0.49497 0.20095 0.11643 0.0
C1763 C 0.508 0.21388 0.13055 0.0
C1764 C 0.46157 0.19614 0.11499 0.0
C1765 C 0.44086 0.20406 0.12766 0.0
C1766 C 0.45418 0.21387 0.14226 0.0
C1767 C 0.48746 0.21896 0.14367 0.0
C1768 C 0.40542 0.20572 0.1251 0.0
C1769 C 0.38873 0.17787 0.12018 0.0
C1770 C 0.38819 0.23502 0.12745 0.0
C1771 C 0.40487 0.26588 0.13145 0.0
C1772 C 0.39645 0.28306 0.14531 0.0
C1773 C 0.41264 0.31175 0.14924 0.0
C1774 C 0.43721 0.32358 0.13937 0.0
C1775 C 0.44551 0.30685 0.12549 0.0
C1776 C 0.42934 0.2782 0.12148 0.0
C1777 C 0.24923 0.18908 0.12934 0.0
C1778 C 0.23372 0.21373 0.12071 0.0
C1779 C 0.28296 0.18675 0.12935 0.0
C1780 C 0.30169 0.2087 0.1205 0.0
C1781 C 0.2861 0.23305 0.11165 0.0
C1782 C 0.25234 0.23553 0.11175 0.0
C1783 C 0.33756 0.20724 0.12113 0.0
C1784 C 0.35446 0.23526 0.12567 0.0
C1785 C 0.35498 0.17832 0.11799 0.0
C1786 C 0.3387 0.14858 0.11207 0.0
C1787 C 0.31912 0.14965 0.09836 0.0
C1788 C 0.3036 0.12164 0.09292 0.0
C1789 C 0.30764 0.09234 0.10102 0.0
C1790 C 0.32729 0.09097 0.11456 0.0
C1791 C 0.34284 0.11892 0.12006 0.0
H1792 H 0.29561 0.07068 0.09679 0.0
H1793 H 0.44978 0.34574 0.14246 0.0
H1794 H 0.73451 0.23731 0.60488 0.0
H1795 H 0.73905 0.29665 0.60611 0.0
H1796 H 0.83066 0.28735 0.63057 0.0
H1797 H 0.82653 0.22824 0.62887 0.0
H1798 H 0.74033 0.33512 0.63108 0.0
H1799 H 0.87938 0.35063 0.6216 0.0
H1800 H 0.92359 0.32451 0.60651 0.0
H1801 H 0.85478 0.28787 0.57262 0.0
H1802 H 0.81025 0.31415 0.58735 0.0
H1803 H 0.77804 0.49135 0.65654 0.0
H1804 H 0.78376 0.4327 0.65335 0.0
H1805 H 0.80504 0.44592 0.60345 0.0
H1806 H 0.80064 0.50451 0.60669 0.0
H1807 H 0.83763 0.39663 0.61392 0.0
H1808 H 0.727 0.43143 0.61697 0.0
H1809 H 0.67956 0.45874 0.62882 0.0
H1810 H 0.68527 0.39638 0.66965 0.0
H1811 H 0.7331 0.36903 0.65816 0.0
C1812 C 0.75572 0.24814 0.61032 0.0
C1813 C 0.78007 0.22856 0.61688 0.0
C1814 C 0.75823 0.28188 0.61111 0.0
C1815 C 0.78525 0.29641 0.61839 0.0
C1816 C 0.80982 0.2767 0.62472 0.0
C1817 C 0.80736 0.24303 0.62386 0.0
C1818 C 0.78726 0.33213 0.61991 0.0
C1819 C 0.76158 0.34858 0.62731 0.0
C1820 C 0.81474 0.34974 0.61473 0.0
C1821 C 0.84145 0.3341 0.60569 0.0
C1822 C 0.87371 0.3371 0.61089 0.0
C1823 C 0.89882 0.32225 0.60241 0.0
C1824 C 0.89199 0.30445 0.58865 0.0
C1825 C 0.86003 0.30156 0.58332 0.0
C1826 C 0.83484 0.31639 0.59174 0.0
C1827 C 0.78475 0.48176 0.64499 0.0
C1828 C 0.78844 0.50244 0.63182 0.0
C1829 C 0.7878 0.44827 0.64315 0.0
C1830 C 0.79382 0.43492 0.62805 0.0
C1831 C 0.80011 0.45568 0.61518 0.0
C1832 C 0.79761 0.4892 0.61707 0.0
C1833 C 0.79096 0.39953 0.62536 0.0
C1834 C 0.81643 0.38315 0.61773 0.0
C1835 C 0.76279 0.38213 0.62986 0.0
C1836 C 0.73385 0.39839 0.63677 0.0
C1837 C 0.71828 0.42369 0.62852 0.0
C1838 C 0.69131 0.43917 0.63517 0.0
C1839 C 0.67946 0.42936 0.65 0.0
C1840 C 0.69452 0.40399 0.65818 0.0
C1841 C 0.72156 0.38848 0.6516 0.0
H1842 H 0.65857 0.44137 0.65512 0.0
H1843 H 0.91146 0.29296 0.58211 0.0
H1844 H 0.49801 0.76463 0.15701 0.0
H1845 H 0.55562 0.77806 0.15571 0.0
H1846 H 0.54369 0.81 0.10712 0.0
H1847 H 0.48594 0.79765 0.10852 0.0
H1848 H 0.59736 0.74913 0.13818 0.0
H1849 H 0.60341 0.86168 0.09634 0.0
H1850 H 0.57277 0.912 0.09129 0.0
H1851 H 0.53457 0.90922 0.13883 0.0
H1852 H 0.56531 0.85915 0.14424 0.0
H1853 H 0.75209 0.75336 0.1045 0.0
H1854 H 0.6928 0.75665 0.10633 0.0
H1855 H 0.70125 0.84246 0.13548 0.0
H1856 H 0.7604 0.83983 0.13312 0.0
H1857 H 0.65019 0.84757 0.11634 0.0
H1858 H 0.69241 0.76886 0.15259 0.0
H1859 H 0.72447 0.72106 0.16053 0.0
H1860 H 0.66695 0.66073 0.12989 0.0
H1861 H 0.63486 0.70831 0.12157 0.0
C1862 C 0.50754 0.77522 0.14617 0.0
C1863 C 0.48752 0.77986 0.13283 0.0
C1864 C 0.54048 0.7828 0.14543 0.0
C1865 C 0.55406 0.79496 0.13131 0.0
C1866 C 0.53376 0.80111 0.11823 0.0
C1867 C 0.50071 0.79392 0.11903 0.0
C1868 C 0.58977 0.79793 0.12972 0.0
C1869 C 0.60882 0.77077 0.13347 0.0
C1870 C 0.60491 0.82623 0.12375 0.0
C1871 C 0.58645 0.85646 0.12063 0.0
C1872 C 0.58857 0.87186 0.10573 0.0
C1873 C 0.57116 0.90034 0.1028 0.0
C1874 C 0.55166 0.91374 0.11471 0.0
C1875 C 0.54958 0.89874 0.12959 0.0
C1876 C 0.56695 0.87028 0.13259 0.0
C1877 C 0.74112 0.77321 0.11102 0.0
C1878 C 0.7605 0.79602 0.11891 0.0
C1879 C 0.70739 0.77501 0.11214 0.0
C1880 C 0.69268 0.79943 0.12132 0.0
C1881 C 0.71208 0.82333 0.12841 0.0
C1882 C 0.74577 0.82168 0.12717 0.0
C1883 C 0.65739 0.79864 0.12454 0.0
C1884 C 0.63853 0.82607 0.12108 0.0
C1885 C 0.64244 0.77094 0.13123 0.0
C1886 C 0.66142 0.74219 0.13636 0.0
C1887 C 0.68672 0.74543 0.14747 0.0
C1888 C 0.7049 0.71838 0.15205 0.0
C1889 C 0.69779 0.68789 0.1457 0.0
C1890 C 0.67244 0.68438 0.13479 0.0
C1891 C 0.65424 0.71137 0.13014 0.0
H1892 H 0.71189 0.66697 0.14925 0.0
H1893 H 0.5382 0.93578 0.11242 0.0
H1894 H 0.1876 0.47907 0.62146 0.0
H1895 H 0.17501 0.53642 0.61723 0.0
H1896 H 0.24864 0.56305 0.6513 0.0
H1897 H 0.26079 0.50604 0.65587 0.0
H1898 H 0.19809 0.60276 0.65364 0.0
H1899 H 0.26464 0.55928 0.61101 0.0
H1900 H 0.27686 0.52151 0.58904 0.0
H1901 H 0.19132 0.55281 0.56426 0.0
H1902 H 0.17838 0.59048 0.58621 0.0
H1903 H 0.25405 0.75553 0.63234 0.0
H1904 H 0.25157 0.69655 0.63527 0.0
H1905 H 0.17152 0.69295 0.60223 0.0
H1906 H 0.17411 0.75222 0.59924 0.0
H1907 H 0.21596 0.64173 0.59839 0.0
H1908 H 0.15468 0.69168 0.64011 0.0
H1909 H 0.14618 0.73117 0.66176 0.0
H1910 H 0.22431 0.68854 0.68828 0.0
H1911 H 0.23369 0.64914 0.66665 0.0
C1912 C 0.20064 0.49712 0.62829 0.0
C1913 C 0.22554 0.48801 0.63883 0.0
C1914 C 0.19352 0.52988 0.6258 0.0
C1915 C 0.21138 0.55401 0.6337 0.0
C1916 C 0.23466 0.54486 0.64501 0.0
C1917 C 0.24167 0.5122 0.64757 0.0
C1918 C 0.20792 0.58869 0.6294 0.0
C1919 C 0.20202 0.61127 0.64157 0.0
C1920 C 0.21242 0.59977 0.61358 0.0
C1921 C 0.22034 0.57738 0.60033 0.0
C1922 C 0.24833 0.55794 0.60092 0.0
C1923 C 0.2554 0.53657 0.58847 0.0
C1924 C 0.23482 0.53468 0.57528 0.0
C1925 C 0.20719 0.55425 0.5745 0.0
C1926 C 0.19999 0.57561 0.58694 0.0
C1927 C 0.23631 0.742 0.62552 0.0
C1928 C 0.21417 0.75813 0.61565 0.0
C1929 C 0.23482 0.70845 0.62723 0.0
C1930 C 0.21095 0.69056 0.61919 0.0
C1931 C 0.19 0.70642 0.60857 0.0
C1932 C 0.19154 0.74011 0.60684 0.0
C1933 C 0.20695 0.65566 0.62269 0.0
C1934 C 0.2114 0.63314 0.61039 0.0
C1935 C 0.20132 0.64463 0.63841 0.0
C1936 C 0.19499 0.66754 0.65171 0.0
C1937 C 0.17013 0.69079 0.65053 0.0
C1938 C 0.16516 0.71317 0.6628 0.0
C1939 C 0.18472 0.7124 0.67638 0.0
C1940 C 0.20918 0.68912 0.67775 0.0
C1941 C 0.21431 0.66672 0.6655 0.0
H1942 H 0.1809 0.72981 0.68584 0.0
H1943 H 0.24032 0.51812 0.56566 0.0
H1944 H 0.003 0.26307 0.85253 0.0
H1945 H 0.94525 0.27611 0.85333 0.0
H1946 H 0.9553 0.30863 0.90194 0.0
H1947 H 0.01318 0.29665 0.90104 0.0
H1948 H 0.90335 0.24687 0.87069 0.0
H1949 H 0.89459 0.35989 0.91208 0.0
H1950 H 0.92454 0.41054 0.91728 0.0
H1951 H 0.96447 0.4076 0.87008 0.0
H1952 H 0.93444 0.35719 0.86452 0.0
H1953 H 0.74743 0.25054 0.90332 0.0
H1954 H 0.80672 0.25397 0.90168 0.0
H1955 H 0.79837 0.33932 0.87222 0.0
H1956 H 0.73919 0.33657 0.8744 0.0
H1957 H 0.84869 0.34515 0.89169 0.0
H1958 H 0.80838 0.26515 0.85554 0.0
H1959 H 0.77732 0.21673 0.84756 0.0
H1960 H 0.83499 0.15778 0.87878 0.0
H1961 H 0.86605 0.20597 0.88714 0.0
C1962 C 0.99303 0.27371 0.86326 0.0
C1963 C 0.01255 0.2786 0.87676 0.0
C1964 C 0.96002 0.28107 0.86372 0.0
C1965 C 0.94587 0.29326 0.87771 0.0
C1966 C 0.96568 0.29971 0.89094 0.0
C1967 C -0.0012 0.29273 0.89042 0.0
C1968 C 0.91009 0.29589 0.87901 0.0
C1969 C 0.89147 0.26847 0.87521 0.0
C1970 C 0.89445 0.32413 0.88475 0.0
C1971 C 0.91248 0.35457 0.88795 0.0
C1972 C 0.90967 0.37011 0.90279 0.0
C1973 C 0.92667 0.39877 0.90581 0.0
C1974 C 0.94647 0.41223 0.89404 0.0
C1975 C 0.94923 0.39709 0.87921 0.0
C1976 C 0.93226 0.36843 0.87613 0.0
C1977 C 0.75841 0.27029 0.89675 0.0
C1978 C 0.73905 0.29297 0.88875 0.0
C1979 C 0.79214 0.27217 0.89574 0.0
C1980 C 0.8069 0.29652 0.88655 0.0
C1981 C 0.7875 0.32024 0.87929 0.0
C1982 C 0.7538 0.31851 0.88043 0.0
C1983 C 0.8423 0.296 0.88361 0.0
C1984 C 0.86074 0.32369 0.88713 0.0
C1985 C 0.85778 0.26832 0.87719 0.0
C1986 C 0.83935 0.23922 0.87207 0.0
C1987 C 0.81429 0.2419 0.86078 0.0
C1988 C 0.7967 0.21449 0.85618 0.0
C1989 C 0.80413 0.18421 0.86268 0.0
C1990 C 0.82923 0.18126 0.87377 0.0
C1991 C 0.84685 0.20861 0.87844 0.0
H1992 H 0.79049 0.16302 0.85911 0.0
H1993 H 0.95962 0.43441 0.8964 0.0
H1994 H 0.74657 0.73846 0.37276 0.0
H1995 H 0.74504 0.79759 0.37171 0.0
H1996 H 0.67462 0.7989 0.40972 0.0
H1997 H 0.67549 0.73929 0.41048 0.0
H1998 H 0.65763 0.83961 0.38559 0.0
H1999 H 0.75092 0.82148 0.41743 0.0
H2000 H 0.80302 0.7968 0.42517 0.0
H2001 H 0.84784 0.83536 0.3831 0.0
H2002 H 0.79587 0.85987 0.37497 0.0
H2003 H 0.68634 0.01358 0.39307 0.0
H2004 H 0.67728 0.95563 0.39769 0.0
H2005 H 0.74118 0.93259 0.35864 0.0
H2006 H 0.75029 0.99014 0.35389 0.0
H2007 H 0.75897 0.9042 0.38752 0.0
H2008 H 0.66299 0.91844 0.35504 0.0
H2009 H 0.61043 0.94301 0.34796 0.0
H2010 H 0.57055 0.91256 0.39275 0.0
H2011 H 0.62305 0.88818 0.4002 0.0
C2012 C 0.73085 0.75142 0.38092 0.0
C2013 C 0.71127 0.73454 0.39174 0.0
C2014 C 0.73011 0.78513 0.38038 0.0
C2015 C 0.70998 0.80262 0.39077 0.0
C2016 C 0.69041 0.78581 0.40166 0.0
C2017 C 0.69114 0.75192 0.40219 0.0
C2018 C 0.70917 0.83843 0.38982 0.0
C2019 C 0.67967 0.85388 0.38633 0.0
C2020 C 0.73797 0.85692 0.39067 0.0
C2021 C 0.7694 0.84235 0.39554 0.0
C2022 C 0.77182 0.82451 0.40977 0.0
C2023 C 0.80134 0.81057 0.41423 0.0
C2024 C 0.82871 0.81447 0.40462 0.0
C2025 C 0.82662 0.83236 0.39053 0.0
C2026 C 0.79713 0.84632 0.386 0.0
C2027 C 0.69786 0.99619 0.38523 0.0
C2028 C 0.71938 0.00644 0.37325 0.0
C2029 C 0.69266 0.96312 0.3879 0.0
C2030 C 0.70883 0.93995 0.37859 0.0
C2031 C 0.7287 0.95017 0.36602 0.0
C2032 C 0.73381 0.98309 0.36331 0.0
C2033 C 0.70768 0.90516 0.38274 0.0
C2034 C 0.73687 0.88998 0.38696 0.0
C2035 C 0.67857 0.8871 0.38272 0.0
C2036 C 0.64707 0.90185 0.37826 0.0
C2037 C 0.64312 0.91728 0.36345 0.0
C2038 C 0.61331 0.9311 0.35936 0.0
C2039 C 0.5872 0.92945 0.36992 0.0
C2040 C 0.59082 0.91388 0.38459 0.0
C2041 C 0.62059 0.90004 0.38875 0.0
H2042 H 0.56414 0.94015 0.36672 0.0
H2043 H 0.85155 0.80366 0.4081 0.0
H2044 H 0.98541 0.69832 0.9027 0.0
H2045 H 0.04379 0.69075 0.90595 0.0
H2046 H 0.059 0.72026 0.85723 0.0
H2047 H 0.00075 0.72872 0.85401 0.0
H2048 H 0.09282 0.65763 0.89313 0.0
H2049 H 0.12254 0.77198 0.85573 0.0
H2050 H 0.0959 0.82276 0.84729 0.0
H2051 H 0.03421 0.81941 0.88843 0.0
H2052 H 0.06082 0.76895 0.89725 0.0
H2053 H 0.26023 0.66804 0.87571 0.0
H2054 H 0.20097 0.66583 0.87533 0.0
H2055 H 0.197 0.7502 0.90572 0.0
H2056 H 0.25648 0.75304 0.9056 0.0
H2057 H 0.15673 0.75691 0.88177 0.0
H2058 H 0.17818 0.67435 0.91991 0.0
H2059 H 0.20396 0.62515 0.93076 0.0
H2060 H 0.16235 0.56829 0.89311 0.0
H2061 H 0.13669 0.61725 0.8819 0.0
C2062 C 0.0011 0.70247 0.89256 0.0
C2063 C 0.98862 0.7147 0.87819 0.0
C2064 C 0.03446 0.69814 0.89445 0.0
C2065 C 0.05571 0.70579 0.88196 0.0
C2066 C 0.04301 0.715 0.86713 0.0
C2067 C 0.00974 0.71969 0.86529 0.0
C2068 C 0.09108 0.70701 0.88486 0.0
C2069 C 0.10686 0.67927 0.89062 0.0
C2070 C 0.10914 0.73565 0.88205 0.0
C2071 C 0.09349 0.76648 0.87706 0.0
C2072 C 0.10341 0.78218 0.86302 0.0
C2073 C 0.0883 0.8109 0.85817 0.0
C2074 C 0.06331 0.82424 0.86729 0.0
C2075 C 0.0535 0.809 0.88135 0.0
C2076 C 0.06859 0.78033 0.88627 0.0
C2077 C 0.24659 0.68603 0.88231 0.0
C2078 C 0.26261 0.71087 0.89058 0.0
C2079 C 0.21283 0.6846 0.88221 0.0
C2080 C 0.19457 0.7077 0.8906 0.0
C2081 C 0.21065 0.73215 0.89917 0.0
C2082 C 0.24448 0.73368 0.89917 0.0
C2083 C 0.15871 0.70726 0.8897 0.0
C2084 C 0.14277 0.73523 0.88431 0.0
C2085 C 0.14046 0.67911 0.89324 0.0
C2086 C 0.15571 0.64954 0.89999 0.0
C2087 C 0.17471 0.6514 0.91388 0.0
C2088 C 0.18928 0.62354 0.9201 0.0
C2089 C 0.18485 0.59362 0.91261 0.0
C2090 C 0.16577 0.59149 0.8989 0.0
C2091 C 0.15118 0.61928 0.89261 0.0
H2092 H 0.19614 0.57208 0.91745 0.0
H2093 H 0.05159 0.84643 0.86349 0.0
H2094 H 0.23552 0.2612 0.37832 0.0
H2095 H 0.23831 0.20208 0.37702 0.0
H2096 H 0.31502 0.20237 0.41201 0.0
H2097 H 0.31291 0.26184 0.41289 0.0
H2098 H 0.33079 0.16476 0.38774 0.0
H2099 H 0.23917 0.17483 0.42133 0.0
H2100 H 0.18603 0.19435 0.43072 0.0
H2101 H 0.14019 0.15373 0.38937 0.0
H2102 H 0.19315 0.13449 0.37956 0.0
H2103 H 0.31133 0.98862 0.39418 0.0
H2104 H 0.31754 0.04676 0.39941 0.0
H2105 H 0.2548 0.06836 0.35974 0.0
H2106 H 0.24877 0.01067 0.35427 0.0
H2107 H 0.23442 0.0931 0.39027 0.0
H2108 H 0.32891 0.08775 0.35609 0.0
H2109 H 0.38253 0.06724 0.3479 0.0
H2110 H 0.423 0.09743 0.39262 0.0
H2111 H 0.36947 0.11772 0.40118 0.0
C2112 C 0.25268 0.24853 0.38585 0.0
C2113 C 0.27393 0.26583 0.39572 0.0
C2114 C 0.25417 0.21481 0.38518 0.0
C2115 C 0.27667 0.19777 0.39455 0.0
C2116 C 0.29742 0.21504 0.40473 0.0
C2117 C 0.29601 0.24888 0.40534 0.0
C2118 C 0.2796 0.16214 0.39287 0.0
C2119 C 0.30983 0.14898 0.38862 0.0
C2120 C 0.25221 0.14161 0.39387 0.0
C2121 C 0.22025 0.15343 0.39964 0.0
C2122 C 0.21783 0.17033 0.41415 0.0
C2123 C 0.18771 0.18131 0.41956 0.0
C2124 C 0.15976 0.17535 0.41063 0.0
C2125 C 0.16187 0.15837 0.39627 0.0
C2126 C 0.19194 0.14741 0.39078 0.0
C2127 C 0.29954 0.00576 0.38632 0.0
C2128 C 0.27919 0.99501 0.37395 0.0
C2129 C 0.3031 0.03893 0.38934 0.0
C2130 C 0.2863 0.06165 0.38005 0.0
C2131 C 0.26774 0.05107 0.36709 0.0
C2132 C 0.26442 0.01807 0.36396 0.0
C2133 C 0.28524 0.09615 0.38468 0.0
C2134 C 0.25537 0.10894 0.38959 0.0
C2135 C 0.31297 0.11617 0.38447 0.0
C2136 C 0.3451 0.10386 0.37936 0.0
C2137 C 0.34916 0.08969 0.36425 0.0
C2138 C 0.37956 0.07818 0.35952 0.0
C2139 C 0.40613 0.08092 0.36975 0.0
C2140 C 0.40238 0.09526 0.38472 0.0
C2141 C 0.37203 0.10678 0.38951 0.0
H2142 H 0.42965 0.07202 0.36607 0.0
H2143 H 0.13647 0.18384 0.41485 0.0
H2144 H 0.44991 0.78939 0.86141 0.0
H2145 H 0.50091 0.8187 0.85851 0.0
H2146 H 0.52539 0.79661 0.90726 0.0
H2147 H 0.47398 0.76796 0.91041 0.0
H2148 H 0.54931 0.85546 0.89854 0.0
H2149 H 0.54914 0.74638 0.87798 0.0
H2150 H 0.52882 0.70124 0.86151 0.0
H2151 H 0.54568 0.75702 0.81914 0.0
H2152 H 0.56571 0.80268 0.8354 0.0
H2153 H 0.72106 0.83884 0.89459 0.0
H2154 H 0.66247 0.83319 0.89804 0.0
H2155 H 0.6477 0.86088 0.84902 0.0
H2156 H 0.70641 0.86589 0.84543 0.0
H2157 H 0.61721 0.80449 0.85663 0.0
H2158 H 0.62518 0.9114 0.87834 0.0
H2159 H 0.64701 0.9542 0.8958 0.0
H2160 H 0.6178 0.90019 0.93707 0.0
H2161 H 0.59619 0.85681 0.91986 0.0
C2162 C 0.46575 0.79141 0.87164 0.0
C2163 C 0.45817 0.77582 0.88605 0.0
C2164 C 0.49491 0.80817 0.86996 0.0
C2165 C 0.51724 0.80911 0.88256 0.0
C2166 C 0.50855 0.79601 0.89737 0.0
C2167 C 0.47917 0.77955 0.89913 0.0
C2168 C 0.55095 0.81999 0.87973 0.0
C2169 C 0.56425 0.8443 0.88943 0.0
C2170 C 0.57028 0.80559 0.86772 0.0
C2171 C 0.55856 0.77806 0.85791 0.0
C2172 C 0.5483 0.74909 0.86516 0.0
C2173 C 0.53686 0.72341 0.85586 0.0
C2174 C 0.53586 0.7263 0.83929 0.0
C2175 C 0.54641 0.75484 0.83198 0.0
C2176 C 0.55782 0.78063 0.84123 0.0
C2177 C 0.70532 0.84359 0.88455 0.0
C2178 C 0.71822 0.85201 0.86964 0.0
C2179 C 0.67185 0.84084 0.88659 0.0
C2180 C 0.65078 0.84672 0.87379 0.0
C2181 C 0.66359 0.85628 0.85905 0.0
C2182 C 0.69705 0.85918 0.85702 0.0
C2183 C 0.6157 0.84004 0.87541 0.0
C2184 C 0.60218 0.81619 0.86555 0.0
C2185 C 0.59645 0.85459 0.8874 0.0
C2186 C 0.60927 0.88072 0.89779 0.0
C2187 C 0.62362 0.90852 0.89114 0.0
C2188 C 0.63592 0.93291 0.90099 0.0
C2189 C 0.63385 0.92989 0.91753 0.0
C2190 C 0.6194 0.90249 0.92425 0.0
C2191 C 0.60708 0.87801 0.91445 0.0
H2192 H 0.64339 0.9488 0.92514 0.0
H2193 H 0.52699 0.70639 0.83211 0.0
H2194 H 0.22575 0.47964 0.41323 0.0
H2195 H 0.19739 0.53078 0.409 0.0
H2196 H 0.17855 0.50386 0.36019 0.0
H2197 H 0.20771 0.453 0.36422 0.0
H2198 H 0.20664 0.56003 0.36117 0.0
H2199 H 0.11638 0.51351 0.38811 0.0
H2200 H 0.08747 0.48435 0.40943 0.0
H2201 H 0.11498 0.55777 0.44307 0.0
H2202 H 0.14446 0.58716 0.422 0.0
H2203 H 0.12776 0.70889 0.34566 0.0
H2204 H 0.13296 0.6504 0.35011 0.0
H2205 H 0.16913 0.66845 0.39749 0.0
H2206 H 0.1635 0.72687 0.39319 0.0
H2207 H 0.12605 0.61516 0.39569 0.0
H2208 H 0.22166 0.65694 0.3694 0.0
H2209 H 0.25055 0.68639 0.34816 0.0
H2210 H 0.21222 0.62068 0.31324 0.0
H2211 H 0.18265 0.59116 0.33427 0.0
C2212 C 0.21488 0.48421 0.40171 0.0
C2213 C 0.21933 0.46245 0.38901 0.0
C2214 C 0.19851 0.51346 0.39932 0.0
C2215 C 0.18579 0.52118 0.38427 0.0
C2216 C 0.1883 0.49847 0.37188 0.0
C2217 C 0.20496 0.4694 0.37421 0.0
C2218 C 0.17371 0.55437 0.38094 0.0
C2219 C 0.1884 0.57173 0.3685 0.0
C2220 C 0.15057 0.57002 0.39075 0.0
C2221 C 0.13284 0.55243 0.40348 0.0
C2222 C 0.11649 0.52332 0.40008 0.0
C2223 C 0.09995 0.50677 0.41212 0.0
C2224 C 0.09944 0.51917 0.4276 0.0
C2225 C 0.11541 0.54819 0.43107 0.0
C2226 C 0.132 0.56483 0.41908 0.0
C2227 C 0.13648 0.70032 0.35707 0.0
C2228 C 0.14612 0.72231 0.36893 0.0
C2229 C 0.13941 0.667 0.3596 0.0
C2230 C 0.15177 0.65524 0.37406 0.0
C2231 C 0.15969 0.67712 0.38623 0.0
C2232 C 0.15694 0.71044 0.38367 0.0
C2233 C 0.15907 0.6204 0.37602 0.0
C2234 C 0.14374 0.60299 0.38822 0.0
C2235 C 0.1816 0.60457 0.36601 0.0
C2236 C 0.19964 0.62209 0.35338 0.0
C2237 C 0.21918 0.64894 0.35718 0.0
C2238 C 0.23571 0.66562 0.34518 0.0
C2239 C 0.23315 0.65547 0.32935 0.0
C2240 C 0.21413 0.62856 0.3255 0.0
C2241 C 0.19748 0.61184 0.33745 0.0
H2242 H 0.24597 0.66841 0.32008 0.0
H2243 H 0.08662 0.50632 0.4369 0.0
H2244 H 0.53233 0.22508 0.91171 0.0
H2245 H 0.48134 0.19545 0.90944 0.0
H2246 H 0.49909 0.18027 0.85935 0.0
H2247 H 0.54981 0.21034 0.86144 0.0
H2248 H 0.44284 0.20909 0.86394 0.0
H2249 H 0.49599 0.11642 0.88568 0.0
H2250 H 0.52944 0.08554 0.90471 0.0
H2251 H 0.46189 0.10698 0.94216 0.0
H2252 H 0.42825 0.1384 0.92341 0.0
H2253 H 0.29669 0.12657 0.85019 0.0
H2254 H 0.35525 0.13311 0.8536 0.0
H2255 H 0.34041 0.16259 0.90235 0.0
H2256 H 0.28179 0.1556 0.89908 0.0
H2257 H 0.39608 0.12213 0.89766 0.0
H2258 H 0.34668 0.21904 0.87659 0.0
H2259 H 0.31285 0.24994 0.85773 0.0
H2260 H 0.37441 0.22054 0.81909 0.0
H2261 H 0.40829 0.18895 0.83771 0.0
C2262 C 0.52584 0.21471 0.90029 0.0
C2263 C 0.5449 0.2205 0.8867 0.0
C2264 C 0.49669 0.19764 0.89903 0.0
C2265 C 0.48635 0.18575 0.8842 0.0
C2266 C 0.50654 0.18942 0.87088 0.0
C2267 C 0.53554 0.20661 0.87211 0.0
C2268 C 0.4528 0.17358 0.88215 0.0
C2269 C 0.43291 0.18955 0.87108 0.0
C2270 C 0.43952 0.14882 0.89182 0.0
C2271 C 0.45973 0.13002 0.90315 0.0
C2272 C 0.48841 0.11481 0.89801 0.0
C2273 C 0.50737 0.09715 0.90874 0.0
C2274 C 0.49784 0.09436 0.92464 0.0
C2275 C 0.46927 0.10918 0.92984 0.0
C2276 C 0.45022 0.12689 0.91916 0.0
C2277 C 0.30597 0.13397 0.8617 0.0
C2278 C 0.28474 0.14147 0.87425 0.0
C2279 C 0.33935 0.13768 0.86363 0.0
C2280 C 0.35199 0.1487 0.87816 0.0
C2281 C 0.33102 0.1542 0.89103 0.0
C2282 C 0.29758 0.15067 0.88907 0.0
C2283 C 0.3866 0.15755 0.87942 0.0
C2284 C 0.40641 0.14125 0.89039 0.0
C2285 C 0.39996 0.18209 0.8697 0.0
C2286 C 0.37979 0.20132 0.85851 0.0
C2287 C 0.35284 0.21893 0.86405 0.0
C2288 C 0.33368 0.2366 0.85341 0.0
C2289 C 0.34143 0.23713 0.83722 0.0
C2290 C 0.3684 0.22005 0.83164 0.0
C2291 C 0.38759 0.20226 0.84223 0.0
H2292 H 0.32659 0.25083 0.82899 0.0
H2293 H 0.51255 0.08067 0.93293 0.0
H2294 H 0.79276 0.28701 0.36537 0.0
H2295 H 0.79035 0.34549 0.369 0.0
H2296 H 0.89487 0.35 0.36954 0.0
H2297 H 0.89737 0.29078 0.36676 0.0
H2298 H 0.87009 0.38931 0.39178 0.0
H2299 H 0.85406 0.373 0.33654 0.0
H2300 H 0.83083 0.34812 0.3124 0.0
H2301 H 0.73624 0.38245 0.32551 0.0
H2302 H 0.75881 0.40713 0.34985 0.0
H2303 H 0.79279 0.55644 0.36271 0.0
H2304 H 0.82512 0.5078 0.3579 0.0
H2305 H 0.80152 0.47295 0.40497 0.0
H2306 H 0.7704 0.52209 0.41006 0.0
H2307 H 0.80005 0.45258 0.35517 0.0
H2308 H 0.85114 0.41508 0.41768 0.0
H2309 H 0.87852 0.44094 0.44048 0.0
H2310 H 0.91178 0.51782 0.41016 0.0
H2311 H 0.88502 0.49221 0.38712 0.0
C2312 C 0.81524 0.30025 0.36672 0.0
C2313 C 0.84525 0.28426 0.36626 0.0
C2314 C 0.81385 0.33379 0.3685 0.0
C2315 C 0.84245 0.35214 0.36937 0.0
C2316 C 0.87253 0.33628 0.3689 0.0
C2317 C 0.87392 0.30256 0.36724 0.0
C2318 C 0.84048 0.38788 0.37067 0.0
C2319 C 0.85503 0.40333 0.38374 0.0
C2320 C 0.82185 0.4063 0.35981 0.0
C2321 C 0.80815 0.39182 0.34506 0.0
C2322 C 0.82828 0.37511 0.33432 0.0
C2323 C 0.81522 0.36105 0.32059 0.0
C2324 C 0.78207 0.36368 0.31743 0.0
C2325 C 0.76192 0.38045 0.32797 0.0
C2326 C 0.77484 0.39453 0.34172 0.0
C2327 C 0.79533 0.53882 0.3722 0.0
C2328 C 0.77879 0.54284 0.3867 0.0
C2329 C 0.81379 0.51103 0.36943 0.0
C2330 C 0.81572 0.48658 0.38103 0.0
C2331 C 0.80098 0.49163 0.39592 0.0
C2332 C 0.78298 0.51971 0.3988 0.0
C2333 C 0.8284 0.45402 0.37677 0.0
C2334 C 0.81577 0.439 0.3631 0.0
C2335 C 0.84947 0.43635 0.38686 0.0
C2336 C 0.86587 0.45177 0.40067 0.0
C2337 C 0.86445 0.43739 0.41584 0.0
C2338 C 0.87983 0.45204 0.42882 0.0
C2339 C 0.89683 0.48103 0.42677 0.0
C2340 C 0.89853 0.49541 0.41174 0.0
C2341 C 0.8832 0.48087 0.39872 0.0
H2342 H 0.90871 0.49233 0.43684 0.0
H2343 H 0.77201 0.35276 0.3068 0.0
H2344 H 0.9694 0.73072 0.0967 0.0
H2345 H 0.02037 0.70116 0.09929 0.0
H2346 H -0.00031 0.683 0.14886 0.0
H2347 H 0.94906 0.7132 0.14648 0.0
H2348 H 0.0561 0.71097 0.14582 0.0
H2349 H 0.00431 0.62072 0.12101 0.0
H2350 H 0.97209 0.59196 0.10072 0.0
H2351 H 0.04211 0.61688 0.06494 0.0
H2352 H 0.07455 0.6462 0.08497 0.0
H2353 H 0.20232 0.62816 0.15951 0.0
H2354 H 0.14387 0.63482 0.1557 0.0
H2355 H 0.16035 0.66739 0.10757 0.0
H2356 H 0.21881 0.6601 0.1112 0.0
H2357 H 0.10497 0.62732 0.11078 0.0
H2358 H 0.15283 0.72208 0.13491 0.0
H2359 H 0.18548 0.75092 0.15502 0.0
H2360 H 0.12179 0.71743 0.19196 0.0
H2361 H 0.08907 0.6879 0.17208 0.0
C2362 C 0.97527 0.71973 0.10806 0.0
C2363 C 0.95537 0.72469 0.12144 0.0
C2364 C 0.00441 0.70269 0.1095 0.0
C2365 C 0.0139 0.68989 0.12428 0.0
C2366 C 0.99293 0.69283 0.13736 0.0
C2367 C 0.96397 0.71008 0.13597 0.0
C2368 C 0.04728 0.67736 0.12661 0.0
C2369 C 0.06646 0.69212 0.13838 0.0
C2370 C 0.06119 0.6535 0.11659 0.0
C2371 C 0.04174 0.6359 0.10449 0.0
C2372 C 0.01271 0.62031 0.1088 0.0
C2373 C 0.99443 0.60385 0.09734 0.0
C2374 C 0.00501 0.60265 0.08155 0.0
C2375 C 0.03393 0.61785 0.07718 0.0
C2376 C 0.0523 0.63435 0.08859 0.0
C2377 C 0.19343 0.6363 0.14805 0.0
C2378 C 0.21508 0.64456 0.1358 0.0
C2379 C 0.1601 0.64009 0.1459 0.0
C2380 C 0.14792 0.65203 0.13144 0.0
C2381 C 0.16935 0.65833 0.11885 0.0
C2382 C 0.20272 0.65465 0.12102 0.0
C2383 C 0.11331 0.66087 0.12998 0.0
C2384 C 0.09418 0.64571 0.11835 0.0
C2385 C 0.0993 0.68443 0.14009 0.0
C2386 C 0.11872 0.70249 0.15203 0.0
C2387 C 0.14594 0.72065 0.14734 0.0
C2388 C 0.16444 0.73715 0.15869 0.0
C2389 C 0.15577 0.73594 0.17476 0.0
C2390 C 0.12852 0.7183 0.17951 0.0
C2391 C 0.10998 0.70168 0.1682 0.0
H2392 H 0.17012 0.74873 0.18354 0.0
H2393 H 0.99082 0.5899 0.0727 0.0
H2394 H 0.36041 0.21736 0.61406 0.0
H2395 H 0.35515 0.15954 0.60776 0.0
H2396 H 0.33783 0.13894 0.65747 0.0
H2397 H 0.34503 0.19636 0.66381 0.0
H2398 H 0.37122 0.09215 0.64558 0.0
H2399 H 0.27512 0.15084 0.62831 0.0
H2400 H 0.24643 0.19283 0.61283 0.0
H2401 H 0.28203 0.15135 0.5693 0.0
H2402 H 0.31133 0.1094 0.58454 0.0
H2403 H 0.2647 0.95887 0.6463 0.0
H2404 H 0.29505 0.00926 0.64806 0.0
H2405 H 0.31055 0.00775 0.59724 0.0
H2406 H 0.27926 0.95758 0.59528 0.0
H2407 H 0.28653 0.06369 0.60606 0.0
H2408 H 0.37448 0.99827 0.62444 0.0
H2409 H 0.40118 0.95641 0.6408 0.0
H2410 H 0.37854 0.00989 0.68324 0.0
H2411 H 0.35132 0.05187 0.66717 0.0
C2412 C 0.3558 0.20029 0.62359 0.0
C2413 C 0.35267 0.21106 0.63936 0.0
C2414 C 0.35272 0.16735 0.62001 0.0
C2415 C 0.34532 0.14493 0.63209 0.0
C2416 C 0.34348 0.15571 0.64794 0.0
C2417 C 0.34743 0.18848 0.65156 0.0
C2418 C 0.33742 0.11067 0.62827 0.0
C2419 C 0.35262 0.0859 0.63698 0.0
C2420 C 0.3138 0.10238 0.61672 0.0
C2421 C 0.29566 0.12722 0.60756 0.0
C2422 C 0.27693 0.15078 0.61544 0.0
C2423 C 0.26058 0.17457 0.60671 0.0
C2424 C 0.26247 0.17481 0.59009 0.0
C2425 C 0.28063 0.15118 0.58217 0.0
C2426 C 0.29711 0.12739 0.59084 0.0
C2427 C 0.27506 0.96884 0.6355 0.0
C2428 C 0.26924 0.95431 0.62062 0.0
C2429 C 0.29266 0.99763 0.63656 0.0
C2430 C 0.30532 0.01222 0.6228 0.0
C2431 C 0.301 0.9969 0.60802 0.0
C2432 C 0.28315 0.96819 0.60693 0.0
C2433 C 0.31967 0.04515 0.6237 0.0
C2434 C 0.30563 0.06975 0.61443 0.0
C2435 C 0.34405 0.05324 0.63488 0.0
C2436 C 0.36072 0.02817 0.64458 0.0
C2437 C 0.37503 0.00102 0.63727 0.0
C2438 C 0.39028 0.97728 0.64649 0.0
C2439 C 0.39152 0.98047 0.66305 0.0
C2440 C 0.37758 0.00746 0.67041 0.0
C2441 C 0.36229 0.03127 0.66125 0.0
H2442 H 0.40332 0.96205 0.67016 0.0
H2443 H 0.24982 0.19326 0.58336 0.0
H2444 H 0.7725 0.35232 0.11199 0.0
H2445 H 0.83076 0.3485 0.10677 0.0
H2446 H 0.84995 0.35518 0.1572 0.0
H2447 H 0.79169 0.35981 0.16239 0.0
H2448 H 0.89619 0.38592 0.1407 0.0
H2449 H 0.84341 0.28185 0.13866 0.0
H2450 H 0.8025 0.24274 0.1292 0.0
H2451 H 0.83867 0.25189 0.08147 0.0
H2452 H 0.87946 0.29152 0.09061 0.0
H2453 H 0.03758 0.28758 0.14914 0.0
H2454 H 0.98602 0.31661 0.14973 0.0
H2455 H 0.98039 0.31155 0.0985 0.0
H2456 H 0.03179 0.28233 0.09776 0.0
H2457 H 0.92823 0.28475 0.11286 0.0
H2458 H 0.98698 0.38419 0.1167 0.0
H2459 H 0.02779 0.42204 0.12737 0.0
H2460 H 0.98151 0.41943 0.17315 0.0
H2461 H 0.94066 0.38119 0.16282 0.0
C2462 C 0.78922 0.35314 0.12192 0.0
C2463 C 0.77776 0.35549 0.13761 0.0
C2464 C 0.82244 0.35113 0.11894 0.0
C2465 C 0.84463 0.35083 0.13163 0.0
C2466 C 0.83326 0.35524 0.14724 0.0
C2467 C 0.80003 0.35774 0.1502 0.0
C2468 C 0.87919 0.34287 0.12882 0.0
C2469 C 0.90328 0.36376 0.13468 0.0
C2470 C 0.88837 0.31416 0.12075 0.0
C2471 C 0.86424 0.28991 0.11528 0.0
C2472 C 0.8425 0.27567 0.12613 0.0
C2473 C 0.81935 0.25341 0.12083 0.0
C2474 C 0.81793 0.2449 0.10474 0.0
C2475 C 0.83975 0.25855 0.09392 0.0
C2476 C 0.86289 0.28091 0.09915 0.0
C2477 C 0.02581 0.29331 0.13796 0.0
C2478 C 0.0386 0.28217 0.12342 0.0
C2479 C 0.99639 0.31008 0.13832 0.0
C2480 C 0.97935 0.31614 0.12416 0.0
C2481 C 0.99315 0.30704 0.10956 0.0
C2482 C 0.02258 0.29035 0.10918 0.0
C2483 C 0.9454 0.32774 0.12477 0.0
C2484 C 0.9213 0.30728 0.11861 0.0
C2485 C 0.93635 0.35657 0.13274 0.0
C2486 C 0.96088 0.3796 0.13901 0.0
C2487 C 0.98565 0.39146 0.12908 0.0
C2488 C 0.00876 0.41304 0.13506 0.0
C2489 C 0.00729 0.42309 0.15094 0.0
C2490 C 0.98264 0.41162 0.16086 0.0
C2491 C 0.95946 0.39002 0.15494 0.0
H2492 H 0.02521 0.4398 0.15555 0.0
H2493 H 0.79997 0.22767 0.10065 0.0
H2494 H 0.71172 0.02631 0.59133 0.0
H2495 H 0.68253 0.97481 0.59228 0.0
H2496 H 0.6812 0.97941 0.64361 0.0
H2497 H 0.70971 0.03098 0.64279 0.0
H2498 H 0.70864 0.92268 0.60439 0.0
H2499 H 0.62159 0.93449 0.65904 0.0
H2500 H 0.58375 0.97466 0.67034 0.0
H2501 H 0.57276 0.01879 0.62436 0.0
H2502 H 0.61015 0.97862 0.61272 0.0
H2503 H 0.69991 0.78066 0.64822 0.0
H2504 H 0.70252 0.83775 0.6408 0.0
H2505 H 0.60581 0.83217 0.62145 0.0
H2506 H 0.60327 0.77453 0.62867 0.0
H2507 H 0.61667 0.88883 0.63865 0.0
H2508 H 0.66584 0.8303 0.59618 0.0
H2509 H 0.70215 0.78949 0.58425 0.0
H2510 H 0.78493 0.83931 0.60327 0.0
H2511 H 0.74908 0.88012 0.61556 0.0
C2512 C 0.70443 0.01682 0.60281 0.0
C2513 C 0.7135 0.03253 0.617 0.0
C2514 C 0.68777 0.98735 0.60332 0.0
C2515 C 0.6797 0.97323 0.618 0.0
C2516 C 0.68673 0.99001 0.63212 0.0
C2517 C 0.70332 0.01945 0.63163 0.0
C2518 C 0.66858 0.93911 0.61879 0.0
C2519 C 0.68821 0.91536 0.61169 0.0
C2520 C 0.64166 0.92951 0.62813 0.0
C2521 C 0.61885 0.95359 0.63502 0.0
C2522 C 0.61096 0.95262 0.65131 0.0
C2523 C 0.58962 0.97544 0.65779 0.0
C2524 C 0.57591 -0.0007 0.64808 0.0
C2525 C 0.58347 0.00036 0.63187 0.0
C2526 C 0.60479 0.9776 0.62534 0.0
C2527 C 0.67942 0.79139 0.64216 0.0
C2528 C 0.65185 0.77294 0.6385 0.0
C2529 C 0.6808 0.82408 0.63807 0.0
C2530 C 0.65462 0.83892 0.63028 0.0
C2531 C 0.62634 0.82103 0.62735 0.0
C2532 C 0.62495 0.7882 0.63145 0.0
C2533 C 0.6576 0.87285 0.62482 0.0
C2534 C 0.63656 0.89636 0.63106 0.0
C2535 C 0.68296 0.88234 0.6145 0.0
C2536 C 0.70472 0.85821 0.60685 0.0
C2537 C 0.69177 0.83247 0.59789 0.0
C2538 C 0.71228 0.80933 0.59106 0.0
C2539 C 0.74582 0.81179 0.59301 0.0
C2540 C 0.75894 0.83744 0.60176 0.0
C2541 C 0.73853 0.86061 0.60865 0.0
H2542 H 0.76166 0.79383 0.58773 0.0
H2543 H 0.5594 0.01694 0.65312 0.0
loop_
_geom_bond_atom_site_label_1
_geom_bond_atom_site_label_2
_geom_bond_distance
_geom_bond_site_symmetry_2
_ccdc_geom_bond_type
Co0 O3 1.970 . S
Co0 N17 1.989 . S
Co0 O25 1.967 . S
Co0 O32 1.920 . S
Co1 O4 1.966 . S
Co1 N10 2.022 . S
Co1 N18 1.993 . S
Co1 O26 1.941 . S
C2 O3 1.258 . S
C2 O4 1.263 . S
O3 Co0 1.970 . S
O3 C2 1.258 . S
O4 Co1 1.966 . S
O4 C2 1.263 . S
C5 O6 1.235 . S
C5 O32 1.289 . S
O6 C5 1.235 . S
C7 C9 1.400 . S
C7 N10 1.351 . S
C7 C12 1.501 . S
C8 C9 1.387 . S
C8 N11 1.341 . S
C9 C7 1.400 . S
C9 C8 1.387 . S
N10 Co1 2.022 . S
N10 C7 1.351 . S
N10 N11 1.365 . S
N11 C8 1.341 . S
N11 N10 1.365 . S
N11 H31 0.862 . S
C12 C7 1.501 . S
C12 H13 0.961 . S
C12 H14 0.961 . S
C12 H15 0.960 . S
H13 C12 0.961 . S
H14 C12 0.961 . S
H15 C12 0.960 . S
C16 N17 1.342 . S
C16 C20 1.401 . S
C16 C21 1.499 . S
N17 Co0 1.989 . S
N17 C16 1.342 . S
N17 N18 1.388 . S
N18 Co1 1.993 . S
N18 N17 1.388 . S
N18 C19 1.346 . S
C19 N18 1.346 . S
C19 C20 1.396 . S
C19 C29 1.510 . S
C20 C16 1.401 . S
C20 C19 1.396 . S
C21 C16 1.499 . S
C21 H22 0.959 . S
C21 H23 0.960 . S
C21 H24 0.961 . S
H22 C21 0.959 . S
H23 C21 0.960 . S
H24 C21 0.961 . S
O25 Co0 1.967 . S
O25 C33 1.258 . S
O26 Co1 1.941 . S
O26 C33 1.266 . S
H27 C29 0.959 . S
H28 C29 0.961 . S
C29 C19 1.510 . S
C29 H27 0.959 . S
C29 H28 0.961 . S
C29 H30 0.960 . S
H30 C29 0.960 . S
H31 N11 0.862 . S
O32 Co0 1.920 . S
O32 C5 1.289 . S
C33 O25 1.258 . S
C33 O26 1.266 . S
Co34 O37 1.970 . S
Co34 N51 1.989 . S
Co34 O59 1.967 . S
Co34 O66 1.920 . S
Co35 O38 1.966 . S
Co35 N44 2.022 . S
Co35 N52 1.993 . S
Co35 O60 1.941 . S
C36 O37 1.258 . S
C36 O38 1.263 . S
O37 Co34 1.970 . S
O37 C36 1.258 . S
O38 Co35 1.966 . S
O38 C36 1.263 . S
C39 O40 1.235 . S
C39 O66 1.289 . S
O40 C39 1.235 . S
C41 C43 1.400 . S
C41 N44 1.351 . S
C41 C46 1.501 . S
C42 C43 1.387 . S
C42 N45 1.341 . S
C43 C41 1.400 . S
C43 C42 1.387 . S
N44 Co35 2.022 . S
N44 C41 1.351 . S
N44 N45 1.365 . S
N45 C42 1.341 . S
N45 N44 1.365 . S
N45 H65 0.862 . S
C46 C41 1.501 . S
C46 H47 0.961 . S
C46 H48 0.961 . S
C46 H49 0.960 . S
H47 C46 0.961 . S
H48 C46 0.961 . S
H49 C46 0.960 . S
C50 N51 1.342 . S
C50 C54 1.401 . S
C50 C55 1.499 . S
N51 Co34 1.989 . S
N51 C50 1.342 . S
N51 N52 1.388 . S
N52 Co35 1.993 . S
N52 N51 1.388 . S
N52 C53 1.346 . S
C53 N52 1.346 . S
C53 C54 1.396 . S
C53 C63 1.510 . S
C54 C50 1.401 . S
C54 C53 1.396 . S
C55 C50 1.499 . S
C55 H56 0.959 . S
C55 H57 0.960 . S
C55 H58 0.961 . S
H56 C55 0.959 . S
H57 C55 0.960 . S
H58 C55 0.961 . S
O59 Co34 1.967 . S
O59 C67 1.258 . S
O60 Co35 1.941 . S
O60 C67 1.266 . S
H61 C63 0.959 . S
H62 C63 0.961 . S
C63 C53 1.510 . S
C63 H61 0.959 . S
C63 H62 0.961 . S
C63 H64 0.960 . S
H64 C63 0.960 . S
H65 N45 0.862 . S
O66 Co34 1.920 . S
O66 C39 1.289 . S
C67 O59 1.258 . S
C67 O60 1.266 . S
Co68 O71 1.970 . S
Co68 N85 1.989 . S
Co68 O93 1.967 . S
Co68 O100 1.920 . S
Co69 O72 1.966 . S
Co69 N78 2.022 . S
Co69 N86 1.993 . S
Co69 O94 1.941 . S
C70 O71 1.258 . S
C70 O72 1.263 . S
O71 Co68 1.970 . S
O71 C70 1.258 . S
O72 Co69 1.966 . S
O72 C70 1.263 . S
C73 O74 1.235 . S
C73 O100 1.289 . S
O74 C73 1.235 . S
C75 C77 1.400 . S
C75 N78 1.351 . S
C75 C80 1.501 . S
C76 C77 1.387 . S
C76 N79 1.341 . S
C77 C75 1.400 . S
C77 C76 1.387 . S
N78 Co69 2.022 . S
N78 C75 1.351 . S
N78 N79 1.365 . S
N79 C76 1.341 . S
N79 N78 1.365 . S
N79 H99 0.862 . S
C80 C75 1.501 . S
C80 H81 0.961 . S
C80 H82 0.961 . S
C80 H83 0.960 . S
H81 C80 0.961 . S
H82 C80 0.961 . S
H83 C80 0.960 . S
C84 N85 1.342 . S
C84 C88 1.401 . S
C84 C89 1.499 . S
N85 Co68 1.989 . S
N85 C84 1.342 . S
N85 N86 1.388 . S
N86 Co69 1.993 . S
N86 N85 1.388 . S
N86 C87 1.346 . S
C87 N86 1.346 . S
C87 C88 1.396 . S
C87 C97 1.510 . S
C88 C84 1.401 . S
C88 C87 1.396 . S
C89 C84 1.499 . S
C89 H90 0.959 . S
C89 H91 0.960 . S
C89 H92 0.961 . S
H90 C89 0.959 . S
H91 C89 0.960 . S
H92 C89 0.961 . S
O93 Co68 1.967 . S
O93 C101 1.258 . S
O94 Co69 1.941 . S
O94 C101 1.266 . S
H95 C97 0.959 . S
H96 C97 0.961 . S
C97 C87 1.510 . S
C97 H95 0.959 . S
C97 H96 0.961 . S
C97 H98 0.960 . S
H98 C97 0.960 . S
H99 N79 0.862 . S
O100 Co68 1.920 . S
O100 C73 1.289 . S
C101 O93 1.258 . S
C101 O94 1.266 . S
Co102 O105 1.970 . S
Co102 N119 1.989 . S
Co102 O127 1.967 . S
Co102 O134 1.920 . S
Co103 O106 1.966 . S
Co103 N112 2.022 . S
Co103 N120 1.993 . S
Co103 O128 1.941 . S
C104 O105 1.258 . S
C104 O106 1.263 . S
O105 Co102 1.970 . S
O105 C104 1.258 . S
O106 Co103 1.966 . S
O106 C104 1.263 . S
C107 O108 1.235 . S
C107 O134 1.289 . S
O108 C107 1.235 . S
C109 C111 1.400 . S
C109 N112 1.351 . S
C109 C114 1.501 . S
C110 C111 1.387 . S
C110 N113 1.341 . S
C111 C109 1.400 . S
C111 C110 1.387 . S
N112 Co103 2.022 . S
N112 C109 1.351 . S
N112 N113 1.365 . S
N113 C110 1.341 . S
N113 N112 1.365 . S
N113 H133 0.862 . S
C114 C109 1.501 . S
C114 H115 0.961 . S
C114 H116 0.961 . S
C114 H117 0.960 . S
H115 C114 0.961 . S
H116 C114 0.961 . S
H117 C114 0.960 . S
C118 N119 1.342 . S
C118 C122 1.401 . S
C118 C123 1.499 . S
N119 Co102 1.989 . S
N119 C118 1.342 . S
N119 N120 1.388 . S
N120 Co103 1.993 . S
N120 N119 1.388 . S
N120 C121 1.346 . S
C121 N120 1.346 . S
C121 C122 1.396 . S
C121 C131 1.510 . S
C122 C118 1.401 . S
C122 C121 1.396 . S
C123 C118 1.499 . S
C123 H124 0.959 . S
C123 H125 0.960 . S
C123 H126 0.961 . S
H124 C123 0.959 . S
H125 C123 0.960 . S
H126 C123 0.961 . S
O127 Co102 1.967 . S
O127 C135 1.258 . S
O128 Co103 1.941 . S
O128 C135 1.266 . S
H129 C131 0.959 . S
H130 C131 0.961 . S
C131 C121 1.510 . S
C131 H129 0.959 . S
C131 H130 0.961 . S
C131 H132 0.960 . S
H132 C131 0.960 . S
H133 N113 0.862 . S
O134 Co102 1.920 . S
O134 C107 1.289 . S
C135 O127 1.258 . S
C135 O128 1.266 . S
Co136 O139 1.970 . S
Co136 N153 1.989 . S
Co136 O161 1.967 . S
Co136 O168 1.920 . S
Co137 O140 1.966 . S
Co137 N146 2.022 . S
Co137 N154 1.993 . S
Co137 O162 1.941 . S
C138 O139 1.258 . S
C138 O140 1.263 . S
O139 Co136 1.970 . S
O139 C138 1.258 . S
O140 Co137 1.966 . S
O140 C138 1.263 . S
C141 O142 1.235 . S
C141 O168 1.289 . S
O142 C141 1.235 . S
C143 C145 1.400 . S
C143 N146 1.351 . S
C143 C148 1.501 . S
C144 C145 1.387 . S
C144 N147 1.341 . S
C145 C143 1.400 . S
C145 C144 1.387 . S
N146 Co137 2.022 . S
N146 C143 1.351 . S
N146 N147 1.365 . S
N147 C144 1.341 . S
N147 N146 1.365 . S
N147 H167 0.862 . S
C148 C143 1.501 . S
C148 H149 0.961 . S
C148 H150 0.961 . S
C148 H151 0.960 . S
H149 C148 0.961 . S
H150 C148 0.961 . S
H151 C148 0.960 . S
C152 N153 1.342 . S
C152 C156 1.401 . S
C152 C157 1.499 . S
N153 Co136 1.989 . S
N153 C152 1.342 . S
N153 N154 1.388 . S
N154 Co137 1.993 . S
N154 N153 1.388 . S
N154 C155 1.346 . S
C155 N154 1.346 . S
C155 C156 1.396 . S
C155 C165 1.510 . S
C156 C152 1.401 . S
C156 C155 1.396 . S
C157 C152 1.499 . S
C157 H158 0.959 . S
C157 H159 0.960 . S
C157 H160 0.961 . S
H158 C157 0.959 . S
H159 C157 0.960 . S
H160 C157 0.961 . S
O161 Co136 1.967 . S
O161 C169 1.258 . S
O162 Co137 1.941 . S
O162 C169 1.266 . S
H163 C165 0.959 . S
H164 C165 0.961 . S
C165 C155 1.510 . S
C165 H163 0.959 . S
C165 H164 0.961 . S
C165 H166 0.960 . S
H166 C165 0.960 . S
H167 N147 0.862 . S
O168 Co136 1.920 . S
O168 C141 1.289 . S
C169 O161 1.258 . S
C169 O162 1.266 . S
Co170 O173 1.970 . S
Co170 N187 1.989 . S
Co170 O195 1.967 . S
Co170 O202 1.920 . S
Co171 O174 1.966 . S
Co171 N180 2.022 . S
Co171 N188 1.993 . S
Co171 O196 1.941 . S
C172 O173 1.258 . S
C172 O174 1.263 . S
O173 Co170 1.970 . S
O173 C172 1.258 . S
O174 Co171 1.966 . S
O174 C172 1.263 . S
C175 O176 1.235 . S
C175 O202 1.289 . S
O176 C175 1.235 . S
C177 C179 1.400 . S
C177 N180 1.351 . S
C177 C182 1.501 . S
C178 C179 1.387 . S
C178 N181 1.341 . S
C179 C177 1.400 . S
C179 C178 1.387 . S
N180 Co171 2.022 . S
N180 C177 1.351 . S
N180 N181 1.365 . S
N181 C178 1.341 . S
N181 N180 1.365 . S
N181 H201 0.862 . S
C182 C177 1.501 . S
C182 H183 0.961 . S
C182 H184 0.961 . S
C182 H185 0.960 . S
H183 C182 0.961 . S
H184 C182 0.961 . S
H185 C182 0.960 . S
C186 N187 1.342 . S
C186 C190 1.401 . S
C186 C191 1.499 . S
N187 Co170 1.989 . S
N187 C186 1.342 . S
N187 N188 1.388 . S
N188 Co171 1.993 . S
N188 N187 1.388 . S
N188 C189 1.346 . S
C189 N188 1.346 . S
C189 C190 1.396 . S
C189 C199 1.510 . S
C190 C186 1.401 . S
C190 C189 1.396 . S
C191 C186 1.499 . S
C191 H192 0.959 . S
C191 H193 0.960 . S
C191 H194 0.961 . S
H192 C191 0.959 . S
H193 C191 0.960 . S
H194 C191 0.961 . S
O195 Co170 1.967 . S
O195 C203 1.258 . S
O196 Co171 1.941 . S
O196 C203 1.266 . S
H197 C199 0.959 . S
H198 C199 0.961 . S
C199 C189 1.510 . S
C199 H197 0.959 . S
C199 H198 0.961 . S
C199 H200 0.960 . S
H200 C199 0.960 . S
H201 N181 0.862 . S
O202 Co170 1.920 . S
O202 C175 1.289 . S
C203 O195 1.258 . S
C203 O196 1.266 . S
Co204 O207 1.970 . S
Co204 N221 1.989 . S
Co204 O229 1.967 . S
Co204 O236 1.920 . S
Co205 O208 1.966 . S
Co205 N214 2.022 . S
Co205 N222 1.993 . S
Co205 O230 1.941 . S
C206 O207 1.258 . S
C206 O208 1.263 . S
O207 Co204 1.970 . S
O207 C206 1.258 . S
O208 Co205 1.966 . S
O208 C206 1.263 . S
C209 O210 1.235 . S
C209 O236 1.289 . S
O210 C209 1.235 . S
C211 C213 1.400 . S
C211 N214 1.351 . S
C211 C216 1.501 . S
C212 C213 1.387 . S
C212 N215 1.341 . S
C213 C211 1.400 . S
C213 C212 1.387 . S
N214 Co205 2.022 . S
N214 C211 1.351 . S
N214 N215 1.365 . S
N215 C212 1.341 . S
N215 N214 1.365 . S
N215 H235 0.862 . S
C216 C211 1.501 . S
C216 H217 0.961 . S
C216 H218 0.961 . S
C216 H219 0.960 . S
H217 C216 0.961 . S
H218 C216 0.961 . S
H219 C216 0.960 . S
C220 N221 1.342 . S
C220 C224 1.401 . S
C220 C225 1.499 . S
N221 Co204 1.989 . S
N221 C220 1.342 . S
N221 N222 1.388 . S
N222 Co205 1.993 . S
N222 N221 1.388 . S
N222 C223 1.346 . S
C223 N222 1.346 . S
C223 C224 1.396 . S
C223 C233 1.510 . S
C224 C220 1.401 . S
C224 C223 1.396 . S
C225 C220 1.499 . S
C225 H226 0.959 . S
C225 H227 0.960 . S
C225 H228 0.961 . S
H226 C225 0.959 . S
H227 C225 0.960 . S
H228 C225 0.961 . S
O229 Co204 1.967 . S
O229 C237 1.258 . S
O230 Co205 1.941 . S
O230 C237 1.266 . S
H231 C233 0.959 . S
H232 C233 0.961 . S
C233 C223 1.510 . S
C233 H231 0.959 . S
C233 H232 0.961 . S
C233 H234 0.960 . S
H234 C233 0.960 . S
H235 N215 0.862 . S
O236 Co204 1.920 . S
O236 C209 1.289 . S
C237 O229 1.258 . S
C237 O230 1.266 . S
Co238 O241 1.970 . S
Co238 N255 1.989 . S
Co238 O263 1.967 . S
Co238 O270 1.920 . S
Co239 O242 1.966 . S
Co239 N248 2.022 . S
Co239 N256 1.993 . S
Co239 O264 1.941 . S
C240 O241 1.258 . S
C240 O242 1.263 . S
O241 Co238 1.970 . S
O241 C240 1.258 . S
O242 Co239 1.966 . S
O242 C240 1.263 . S
C243 O244 1.235 . S
C243 O270 1.289 . S
O244 C243 1.235 . S
C245 C247 1.400 . S
C245 N248 1.351 . S
C245 C250 1.501 . S
C246 C247 1.387 . S
C246 N249 1.341 . S
C247 C245 1.400 . S
C247 C246 1.387 . S
N248 Co239 2.022 . S
N248 C245 1.351 . S
N248 N249 1.365 . S
N249 C246 1.341 . S
N249 N248 1.365 . S
N249 H269 0.862 . S
C250 C245 1.501 . S
C250 H251 0.961 . S
C250 H252 0.961 . S
C250 H253 0.960 . S
H251 C250 0.961 . S
H252 C250 0.961 . S
H253 C250 0.960 . S
C254 N255 1.342 . S
C254 C258 1.401 . S
C254 C259 1.499 . S
N255 Co238 1.989 . S
N255 C254 1.342 . S
N255 N256 1.388 . S
N256 Co239 1.993 . S
N256 N255 1.388 . S
N256 C257 1.346 . S
C257 N256 1.346 . S
C257 C258 1.396 . S
C257 C267 1.510 . S
C258 C254 1.401 . S
C258 C257 1.396 . S
C259 C254 1.499 . S
C259 H260 0.959 . S
C259 H261 0.960 . S
C259 H262 0.961 . S
H260 C259 0.959 . S
H261 C259 0.960 . S
H262 C259 0.961 . S
O263 Co238 1.967 . S
O263 C271 1.258 . S
O264 Co239 1.941 . S
O264 C271 1.266 . S
H265 C267 0.959 . S
H266 C267 0.961 . S
C267 C257 1.510 . S
C267 H265 0.959 . S
C267 H266 0.961 . S
C267 H268 0.960 . S
H268 C267 0.960 . S
H269 N249 0.862 . S
O270 Co238 1.920 . S
O270 C243 1.289 . S
C271 O263 1.258 . S
C271 O264 1.266 . S
Co272 O275 1.970 . S
Co272 N289 1.989 . S
Co272 O297 1.967 . S
Co272 O304 1.920 1_655 S
Co273 O276 1.966 . S
Co273 N282 2.022 . S
Co273 N290 1.993 . S
Co273 O298 1.941 . S
C274 O275 1.258 . S
C274 O276 1.263 . S
O275 Co272 1.970 . S
O275 C274 1.258 . S
O276 Co273 1.966 . S
O276 C274 1.263 . S
C277 O278 1.252 . S
C277 O304 1.289 . S
O278 C277 1.252 . S
C279 C281 1.400 . S
C279 N282 1.351 . S
C279 C284 1.501 . S
C280 C281 1.387 . S
C280 N283 1.341 . S
C281 C279 1.400 . S
C281 C280 1.387 . S
N282 Co273 2.022 . S
N282 C279 1.351 . S
N282 N283 1.365 . S
N283 C280 1.341 . S
N283 N282 1.365 . S
N283 H303 0.862 . S
C284 C279 1.501 . S
C284 H285 0.961 . S
C284 H286 0.961 . S
C284 H287 0.960 . S
H285 C284 0.961 . S
H286 C284 0.961 . S
H287 C284 0.960 . S
C288 N289 1.342 . S
C288 C292 1.401 . S
C288 C293 1.499 . S
N289 Co272 1.989 . S
N289 C288 1.342 . S
N289 N290 1.388 . S
N290 Co273 1.993 . S
N290 N289 1.388 . S
N290 C291 1.346 . S
C291 N290 1.346 . S
C291 C292 1.396 . S
C291 C301 1.510 . S
C292 C288 1.401 . S
C292 C291 1.396 . S
C293 C288 1.499 . S
C293 H294 0.959 . S
C293 H295 0.960 . S
C293 H296 0.961 . S
H294 C293 0.959 . S
H295 C293 0.960 . S
H296 C293 0.961 . S
O297 Co272 1.967 . S
O297 C305 1.258 . S
O298 Co273 1.941 . S
O298 C305 1.266 . S
H299 C301 0.959 . S
H300 C301 0.961 . S
C301 C291 1.510 . S
C301 H299 0.959 . S
C301 H300 0.961 . S
C301 H302 0.960 . S
H302 C301 0.960 . S
H303 N283 0.862 . S
O304 Co272 1.920 1_455 S
O304 C277 1.289 . S
C305 O297 1.258 . S
C305 O298 1.266 . S
Co306 O309 1.970 . S
Co306 N323 1.989 . S
Co306 O331 1.967 . S
Co306 O338 1.920 1_565 S
Co307 O310 1.966 . S
Co307 N316 2.022 . S
Co307 N324 1.993 . S
Co307 O332 1.941 . S
C308 O309 1.258 . S
C308 O310 1.263 . S
O309 Co306 1.970 . S
O309 C308 1.258 . S
O310 Co307 1.966 . S
O310 C308 1.263 . S
C311 O312 1.252 . S
C311 O338 1.289 . S
O312 C311 1.252 . S
C313 C315 1.400 . S
C313 N316 1.351 . S
C313 C318 1.501 . S
C314 C315 1.387 . S
C314 N317 1.341 . S
C315 C313 1.400 . S
C315 C314 1.387 . S
N316 Co307 2.022 . S
N316 C313 1.351 . S
N316 N317 1.365 . S
N317 C314 1.341 . S
N317 N316 1.365 . S
N317 H337 0.862 . S
C318 C313 1.501 . S
C318 H319 0.961 . S
C318 H320 0.961 . S
C318 H321 0.960 . S
H319 C318 0.961 . S
H320 C318 0.961 . S
H321 C318 0.960 . S
C322 N323 1.342 . S
C322 C326 1.401 . S
C322 C327 1.499 . S
N323 Co306 1.989 . S
N323 C322 1.342 . S
N323 N324 1.388 . S
N324 Co307 1.993 . S
N324 N323 1.388 . S
N324 C325 1.346 . S
C325 N324 1.346 . S
C325 C326 1.396 . S
C325 C335 1.510 . S
C326 C322 1.401 . S
C326 C325 1.396 . S
C327 C322 1.499 . S
C327 H328 0.959 . S
C327 H329 0.960 . S
C327 H330 0.961 . S
H328 C327 0.959 . S
H329 C327 0.960 . S
H330 C327 0.961 . S
O331 Co306 1.967 . S
O331 C339 1.258 . S
O332 Co307 1.941 . S
O332 C339 1.266 . S
H333 C335 0.959 . S
H334 C335 0.961 . S
C335 C325 1.510 . S
C335 H333 0.959 . S
C335 H334 0.961 . S
C335 H336 0.960 . S
H336 C335 0.960 . S
H337 N317 0.862 . S
O338 Co306 1.920 1_545 S
O338 C311 1.289 . S
C339 O331 1.258 . S
C339 O332 1.266 . S
Co340 O343 1.970 . S
Co340 N357 1.989 . S
Co340 O365 1.967 . S
Co340 O372 1.920 1_455 S
Co341 O344 1.966 . S
Co341 N350 2.022 . S
Co341 N358 1.993 . S
Co341 O366 1.941 . S
C342 O343 1.258 . S
C342 O344 1.263 . S
O343 Co340 1.970 . S
O343 C342 1.258 . S
O344 Co341 1.966 . S
O344 C342 1.263 . S
C345 O346 1.252 . S
C345 O372 1.289 . S
O346 C345 1.252 . S
C347 C349 1.400 . S
C347 N350 1.351 . S
C347 C352 1.501 . S
C348 C349 1.387 . S
C348 N351 1.341 . S
C349 C347 1.400 . S
C349 C348 1.387 . S
N350 Co341 2.022 . S
N350 C347 1.351 . S
N350 N351 1.365 . S
N351 C348 1.341 . S
N351 N350 1.365 . S
N351 H371 0.862 . S
C352 C347 1.501 . S
C352 H353 0.961 . S
C352 H354 0.961 . S
C352 H355 0.960 . S
H353 C352 0.961 . S
H354 C352 0.961 . S
H355 C352 0.960 . S
C356 N357 1.342 . S
C356 C360 1.401 . S
C356 C361 1.499 . S
N357 Co340 1.989 . S
N357 C356 1.342 . S
N357 N358 1.388 . S
N358 Co341 1.993 . S
N358 N357 1.388 . S
N358 C359 1.346 . S
C359 N358 1.346 . S
C359 C360 1.396 . S
C359 C369 1.510 . S
C360 C356 1.401 . S
C360 C359 1.396 . S
C361 C356 1.499 . S
C361 H362 0.959 . S
C361 H363 0.960 . S
C361 H364 0.961 . S
H362 C361 0.959 . S
H363 C361 0.960 . S
H364 C361 0.961 . S
O365 Co340 1.967 . S
O365 C373 1.258 . S
O366 Co341 1.941 . S
O366 C373 1.266 . S
H367 C369 0.959 . S
H368 C369 0.961 . S
C369 C359 1.510 . S
C369 H367 0.959 . S
C369 H368 0.961 . S
C369 H370 0.960 . S
H370 C369 0.960 . S
H371 N351 0.862 . S
O372 Co340 1.920 1_655 S
O372 C345 1.289 . S
C373 O365 1.258 . S
C373 O366 1.266 . S
Co374 O377 1.970 . S
Co374 N391 1.989 . S
Co374 O399 1.967 . S
Co374 O406 1.920 1_545 S
Co375 O378 1.966 . S
Co375 N384 2.022 . S
Co375 N392 1.993 . S
Co375 O400 1.941 . S
C376 O377 1.258 . S
C376 O378 1.263 . S
O377 Co374 1.970 . S
O377 C376 1.258 . S
O378 Co375 1.966 . S
O378 C376 1.263 . S
C379 O380 1.252 . S
C379 O406 1.289 . S
O380 C379 1.252 . S
C381 C383 1.400 . S
C381 N384 1.351 . S
C381 C386 1.501 . S
C382 C383 1.387 . S
C382 N385 1.341 . S
C383 C381 1.400 . S
C383 C382 1.387 . S
N384 Co375 2.022 . S
N384 C381 1.351 . S
N384 N385 1.365 . S
N385 C382 1.341 . S
N385 N384 1.365 . S
N385 H405 0.862 . S
C386 C381 1.501 . S
C386 H387 0.961 . S
C386 H388 0.961 . S
C386 H389 0.960 . S
H387 C386 0.961 . S
H388 C386 0.961 . S
H389 C386 0.960 . S
C390 N391 1.342 . S
C390 C394 1.401 . S
C390 C395 1.499 . S
N391 Co374 1.989 . S
N391 C390 1.342 . S
N391 N392 1.388 . S
N392 Co375 1.993 . S
N392 N391 1.388 . S
N392 C393 1.346 . S
C393 N392 1.346 . S
C393 C394 1.396 . S
C393 C403 1.510 . S
C394 C390 1.401 . S
C394 C393 1.396 . S
C395 C390 1.499 . S
C395 H396 0.959 . S
C395 H397 0.960 . S
C395 H398 0.961 . S
H396 C395 0.959 . S
H397 C395 0.960 . S
H398 C395 0.961 . S
O399 Co374 1.967 . S
O399 C407 1.258 . S
O400 Co375 1.941 . S
O400 C407 1.266 . S
H401 C403 0.959 . S
H402 C403 0.961 . S
C403 C393 1.510 . S
C403 H401 0.959 . S
C403 H402 0.961 . S
C403 H404 0.960 . S
H404 C403 0.960 . S
H405 N385 0.862 . S
O406 Co374 1.920 1_565 S
O406 C379 1.289 . S
C407 O399 1.258 . S
C407 O400 1.266 . S
Co408 O411 1.970 . S
Co408 N425 1.989 . S
Co408 O433 1.967 . S
Co408 O440 1.920 . S
Co409 O412 1.966 . S
Co409 N418 2.022 . S
Co409 N426 1.993 . S
Co409 O434 1.941 . S
C410 O411 1.258 . S
C410 O412 1.263 . S
O411 Co408 1.970 . S
O411 C410 1.258 . S
O412 Co409 1.966 . S
O412 C410 1.263 . S
C413 O414 1.235 . S
C413 O440 1.289 . S
O414 C413 1.235 . S
C415 C417 1.400 . S
C415 N418 1.351 . S
C415 C420 1.501 . S
C416 C417 1.387 . S
C416 N419 1.341 . S
C417 C415 1.400 . S
C417 C416 1.387 . S
N418 Co409 2.022 . S
N418 C415 1.351 . S
N418 N419 1.365 . S
N419 C416 1.341 . S
N419 N418 1.365 . S
N419 H439 0.862 . S
C420 C415 1.501 . S
C420 H421 0.961 . S
C420 H422 0.961 . S
C420 H423 0.960 . S
H421 C420 0.961 . S
H422 C420 0.961 . S
H423 C420 0.960 . S
C424 N425 1.342 . S
C424 C428 1.401 . S
C424 C429 1.499 . S
N425 Co408 1.989 . S
N425 C424 1.342 . S
N425 N426 1.388 . S
N426 Co409 1.993 . S
N426 N425 1.388 . S
N426 C427 1.346 . S
C427 N426 1.346 . S
C427 C428 1.396 . S
C427 C437 1.510 . S
C428 C424 1.401 . S
C428 C427 1.396 . S
C429 C424 1.499 . S
C429 H430 0.959 . S
C429 H431 0.960 . S
C429 H432 0.961 . S
H430 C429 0.959 . S
H431 C429 0.960 . S
H432 C429 0.961 . S
O433 Co408 1.967 . S
O433 C441 1.258 . S
O434 Co409 1.941 . S
O434 C441 1.266 . S
H435 C437 0.959 . S
H436 C437 0.961 . S
C437 C427 1.510 . S
C437 H435 0.959 . S
C437 H436 0.961 . S
C437 H438 0.960 . S
H438 C437 0.960 . S
H439 N419 0.862 . S
O440 Co408 1.920 . S
O440 C413 1.289 . S
C441 O433 1.258 . S
C441 O434 1.266 . S
Co442 O445 1.970 . S
Co442 N459 1.989 . S
Co442 O467 1.967 . S
Co442 O474 1.920 . S
Co443 O446 1.966 . S
Co443 N452 2.022 . S
Co443 N460 1.993 . S
Co443 O468 1.941 . S
C444 O445 1.258 . S
C444 O446 1.263 . S
O445 Co442 1.970 . S
O445 C444 1.258 . S
O446 Co443 1.966 . S
O446 C444 1.263 . S
C447 O448 1.235 . S
C447 O474 1.289 . S
O448 C447 1.235 . S
C449 C451 1.400 . S
C449 N452 1.351 . S
C449 C454 1.501 . S
C450 C451 1.387 . S
C450 N453 1.341 . S
C451 C449 1.400 . S
C451 C450 1.387 . S
N452 Co443 2.022 . S
N452 C449 1.351 . S
N452 N453 1.365 . S
N453 C450 1.341 . S
N453 N452 1.365 . S
N453 H473 0.862 . S
C454 C449 1.501 . S
C454 H455 0.961 . S
C454 H456 0.961 . S
C454 H457 0.960 . S
H455 C454 0.961 . S
H456 C454 0.961 . S
H457 C454 0.960 . S
C458 N459 1.342 . S
C458 C462 1.401 . S
C458 C463 1.499 . S
N459 Co442 1.989 . S
N459 C458 1.342 . S
N459 N460 1.388 . S
N460 Co443 1.993 . S
N460 N459 1.388 . S
N460 C461 1.346 . S
C461 N460 1.346 . S
C461 C462 1.396 . S
C461 C471 1.510 . S
C462 C458 1.401 . S
C462 C461 1.396 . S
C463 C458 1.499 . S
C463 H464 0.959 . S
C463 H465 0.960 . S
C463 H466 0.961 . S
H464 C463 0.959 . S
H465 C463 0.960 . S
H466 C463 0.961 . S
O467 Co442 1.967 . S
O467 C475 1.258 . S
O468 Co443 1.941 . S
O468 C475 1.266 . S
H469 C471 0.959 . S
H470 C471 0.961 . S
C471 C461 1.510 . S
C471 H469 0.959 . S
C471 H470 0.961 . S
C471 H472 0.960 . S
H472 C471 0.960 . S
H473 N453 0.862 . S
O474 Co442 1.920 . S
O474 C447 1.289 . S
C475 O467 1.258 . S
C475 O468 1.266 . S
Co476 O479 1.970 . S
Co476 N493 1.989 . S
Co476 O501 1.967 . S
Co476 O508 1.920 . S
Co477 O480 1.966 . S
Co477 N486 2.022 . S
Co477 N494 1.993 . S
Co477 O502 1.941 . S
C478 O479 1.258 . S
C478 O480 1.263 . S
O479 Co476 1.970 . S
O479 C478 1.258 . S
O480 Co477 1.966 . S
O480 C478 1.263 . S
C481 O482 1.235 . S
C481 O508 1.289 . S
O482 C481 1.235 . S
C483 C485 1.400 . S
C483 N486 1.351 . S
C483 C488 1.501 . S
C484 C485 1.387 . S
C484 N487 1.341 . S
C485 C483 1.400 . S
C485 C484 1.387 . S
N486 Co477 2.022 . S
N486 C483 1.351 . S
N486 N487 1.365 . S
N487 C484 1.341 . S
N487 N486 1.365 . S
N487 H507 0.862 . S
C488 C483 1.501 . S
C488 H489 0.961 . S
C488 H490 0.961 . S
C488 H491 0.960 . S
H489 C488 0.961 . S
H490 C488 0.961 . S
H491 C488 0.960 . S
C492 N493 1.342 . S
C492 C496 1.401 . S
C492 C497 1.499 . S
N493 Co476 1.989 . S
N493 C492 1.342 . S
N493 N494 1.388 . S
N494 Co477 1.993 . S
N494 N493 1.388 . S
N494 C495 1.346 . S
C495 N494 1.346 . S
C495 C496 1.396 . S
C495 C505 1.510 . S
C496 C492 1.401 . S
C496 C495 1.396 . S
C497 C492 1.499 . S
C497 H498 0.959 . S
C497 H499 0.960 . S
C497 H500 0.961 . S
H498 C497 0.959 . S
H499 C497 0.960 . S
H500 C497 0.961 . S
O501 Co476 1.967 . S
O501 C509 1.258 . S
O502 Co477 1.941 . S
O502 C509 1.266 . S
H503 C505 0.959 . S
H504 C505 0.961 . S
C505 C495 1.510 . S
C505 H503 0.959 . S
C505 H504 0.961 . S
C505 H506 0.960 . S
H506 C505 0.960 . S
H507 N487 0.862 . S
O508 Co476 1.920 . S
O508 C481 1.289 . S
C509 O501 1.258 . S
C509 O502 1.266 . S
Co510 O513 1.970 . S
Co510 N527 1.989 . S
Co510 O535 1.967 . S
Co510 O542 1.920 . S
Co511 O514 1.966 . S
Co511 N520 2.022 . S
Co511 N528 1.993 . S
Co511 O536 1.941 . S
C512 O513 1.258 . S
C512 O514 1.263 . S
O513 Co510 1.970 . S
O513 C512 1.258 . S
O514 Co511 1.966 . S
O514 C512 1.263 . S
C515 O516 1.235 . S
C515 O542 1.289 . S
O516 C515 1.235 . S
C517 C519 1.400 . S
C517 N520 1.351 . S
C517 C522 1.501 . S
C518 C519 1.387 . S
C518 N521 1.341 . S
C519 C517 1.400 . S
C519 C518 1.387 . S
N520 Co511 2.022 . S
N520 C517 1.351 . S
N520 N521 1.365 . S
N521 C518 1.341 . S
N521 N520 1.365 . S
N521 H541 0.862 . S
C522 C517 1.501 . S
C522 H523 0.961 . S
C522 H524 0.961 . S
C522 H525 0.960 . S
H523 C522 0.961 . S
H524 C522 0.961 . S
H525 C522 0.960 . S
C526 N527 1.342 . S
C526 C530 1.401 . S
C526 C531 1.499 . S
N527 Co510 1.989 . S
N527 C526 1.342 . S
N527 N528 1.388 . S
N528 Co511 1.993 . S
N528 N527 1.388 . S
N528 C529 1.346 . S
C529 N528 1.346 . S
C529 C530 1.396 . S
C529 C539 1.510 . S
C530 C526 1.401 . S
C530 C529 1.396 . S
C531 C526 1.499 . S
C531 H532 0.959 . S
C531 H533 0.960 . S
C531 H534 0.961 . S
H532 C531 0.959 . S
H533 C531 0.960 . S
H534 C531 0.961 . S
O535 Co510 1.967 . S
O535 C543 1.258 . S
O536 Co511 1.941 . S
O536 C543 1.266 . S
H537 C539 0.959 . S
H538 C539 0.961 . S
C539 C529 1.510 . S
C539 H537 0.959 . S
C539 H538 0.961 . S
C539 H540 0.960 . S
H540 C539 0.960 . S
H541 N521 0.862 . S
O542 Co510 1.920 . S
O542 C515 1.289 . S
C543 O535 1.258 . S
C543 O536 1.266 . S
H544 C562 0.951 . S
H545 C564 0.951 . S
H546 C566 0.976 . S
H547 C567 0.950 . S
H548 C569 0.950 . S
H549 C572 0.950 . S
H550 C573 0.950 . S
H551 C575 0.950 . S
H552 C576 0.973 . S
H553 C577 0.951 . S
H554 C579 0.951 . S
H555 C581 0.976 . S
H556 C582 0.950 . S
H557 C584 0.950 . S
H558 C587 0.950 . S
H559 C588 0.950 . S
H560 C590 0.950 . S
H561 C591 0.973 . S
C562 H544 0.951 . S
C562 C563 1.366 . S
C562 C564 1.388 . S
C563 C562 1.366 . S
C563 C567 1.385 . S
C564 H545 0.951 . S
C564 C562 1.388 . S
C564 C565 1.366 . S
C565 C564 1.366 . S
C565 C566 1.414 . S
C565 C568 1.499 . S
C566 H546 0.976 . S
C566 C565 1.414 . S
C566 C567 1.374 . S
C567 H547 0.950 . S
C567 C563 1.385 . S
C567 C566 1.374 . S
C568 C565 1.499 . S
C568 C569 1.373 . S
C568 C570 1.392 . S
C569 H548 0.950 . S
C569 C568 1.373 . S
C569 C585 1.374 1_445 S
C570 C568 1.392 . S
C570 C571 1.524 1_455 S
C570 C584 1.374 1_445 S
C571 C570 1.524 1_655 S
C571 C572 1.397 . S
C571 C576 1.363 1_655 S
C572 H549 0.950 . S
C572 C571 1.397 . S
C572 C573 1.334 . S
C573 H550 0.950 . S
C573 C572 1.334 . S
C573 C574 1.287 . S
C574 C573 1.287 . S
C574 C575 1.524 1_655 S
C574 H593 0.913 . S
C575 H551 0.950 . S
C575 C574 1.524 1_455 S
C575 C576 1.415 . S
C576 H552 0.973 . S
C576 C571 1.363 1_455 S
C576 C575 1.415 . S
C577 H553 0.951 . S
C577 C578 1.366 . S
C577 C579 1.388 . S
C578 C577 1.366 . S
C578 C582 1.385 . S
C579 H554 0.951 . S
C579 C577 1.388 . S
C579 C580 1.366 . S
C580 C579 1.366 . S
C580 C581 1.414 . S
C580 C583 1.499 . S
C581 H555 0.976 . S
C581 C580 1.414 . S
C581 C582 1.374 . S
C582 H556 0.950 . S
C582 C578 1.385 . S
C582 C581 1.374 . S
C583 C580 1.499 . S
C583 C584 1.373 . S
C583 C585 1.392 . S
C584 H557 0.950 . S
C584 C570 1.374 1_665 S
C584 C583 1.373 . S
C585 C569 1.374 1_665 S
C585 C583 1.392 . S
C585 C586 1.524 1_655 S
C586 C585 1.524 1_455 S
C586 C587 1.397 . S
C586 C591 1.363 1_455 S
C587 H558 0.950 . S
C587 C586 1.397 . S
C587 C588 1.334 . S
C588 H559 0.950 . S
C588 C587 1.334 . S
C588 C589 1.287 . S
C589 C588 1.287 . S
C589 C590 1.524 1_455 S
C589 H592 0.999 . S
C590 H560 0.950 . S
C590 C589 1.524 1_655 S
C590 C591 1.415 . S
C591 H561 0.973 . S
C591 C586 1.363 1_655 S
C591 C590 1.415 . S
H592 C589 0.999 . S
H593 C574 0.913 . S
H594 C612 0.951 . S
H595 C614 0.951 1_545 S
H596 C616 0.950 . S
H597 C617 0.950 . S
H598 C619 0.950 . S
H599 C622 0.950 . S
H600 C623 0.950 . S
H601 C625 0.950 . S
H602 C626 0.950 . S
H603 C627 0.951 . S
H604 C629 0.951 1_565 S
H605 C631 0.950 . S
H606 C632 0.950 . S
H607 C634 0.950 . S
H608 C637 0.950 . S
H609 C638 0.950 . S
H610 C640 0.950 . S
H611 C641 0.950 . S
C612 H594 0.951 . S
C612 C613 1.366 . S
C612 C614 1.388 . S
C613 C612 1.366 . S
C613 C617 1.385 . S
C614 H595 0.951 1_565 S
C614 C612 1.388 . S
C614 C615 1.366 . S
C615 C614 1.366 . S
C615 C616 1.414 . S
C615 C618 1.499 . S
C616 H596 0.950 . S
C616 C615 1.414 . S
C616 C617 1.374 . S
C617 H597 0.950 . S
C617 C613 1.385 . S
C617 C616 1.374 . S
C618 C615 1.499 . S
C618 C619 1.373 . S
C618 C620 1.389 1_565 S
C619 H598 0.950 . S
C619 C618 1.373 . S
C619 C635 1.377 1_455 S
C620 C618 1.389 1_545 S
C620 C621 1.524 . S
C620 C634 1.377 1_455 S
C621 C620 1.524 . S
C621 C622 1.397 . S
C621 C626 1.363 . S
C622 H599 0.950 . S
C622 C621 1.397 . S
C622 C623 1.334 . S
C623 H600 0.950 . S
C623 C622 1.334 . S
C623 C624 1.287 . S
C624 C623 1.287 . S
C624 C625 1.524 . S
C624 H643 0.913 . S
C625 H601 0.950 . S
C625 C624 1.524 . S
C625 C626 1.415 . S
C626 H602 0.950 . S
C626 C621 1.363 . S
C626 C625 1.415 . S
C627 H603 0.951 . S
C627 C628 1.366 . S
C627 C629 1.388 . S
C628 C627 1.366 . S
C628 C632 1.385 . S
C629 H604 0.951 1_545 S
C629 C627 1.388 . S
C629 C630 1.366 . S
C630 C629 1.366 . S
C630 C631 1.414 . S
C630 C633 1.499 . S
C631 H605 0.950 . S
C631 C630 1.414 . S
C631 C632 1.374 . S
C632 H606 0.950 . S
C632 C628 1.385 . S
C632 C631 1.374 . S
C633 C630 1.499 . S
C633 C634 1.373 . S
C633 C635 1.389 1_545 S
C634 H607 0.950 . S
C634 C620 1.377 1_655 S
C634 C633 1.373 . S
C635 C619 1.377 1_655 S
C635 C633 1.389 1_565 S
C635 C636 1.524 . S
C636 C635 1.524 . S
C636 C637 1.397 . S
C636 C641 1.363 . S
C637 H608 0.950 . S
C637 C636 1.397 . S
C637 C638 1.334 . S
C638 H609 0.950 . S
C638 C637 1.334 . S
C638 C639 1.287 . S
C639 C638 1.287 . S
C639 C640 1.524 . S
C639 H642 0.999 . S
C640 H610 0.950 . S
C640 C639 1.524 . S
C640 C641 1.415 . S
C641 H611 0.950 . S
C641 C636 1.363 . S
C641 C640 1.415 . S
H642 C639 0.999 . S
H643 C624 0.913 . S
H644 C662 0.951 . S
H645 C664 0.951 . S
H646 C666 0.950 . S
H647 C667 0.950 . S
H648 C669 0.950 . S
H649 C672 0.950 . S
H650 C673 0.950 . S
H651 C675 0.950 . S
H652 C676 0.950 . S
H653 C677 0.951 . S
H654 C679 0.951 . S
H655 C681 0.950 . S
H656 C682 0.950 . S
H657 C684 0.950 . S
H658 C687 0.950 . S
H659 C688 0.950 . S
H660 C690 0.950 . S
H661 C691 0.950 . S
C662 H644 0.951 . S
C662 C663 1.366 . S
C662 C664 1.388 . S
C663 C662 1.366 . S
C663 C667 1.385 . S
C664 H645 0.951 . S
C664 C662 1.388 . S
C664 C665 1.366 . S
C665 C664 1.366 . S
C665 C666 1.414 . S
C665 C668 1.499 . S
C666 H646 0.950 . S
C666 C665 1.414 . S
C666 C667 1.374 . S
C667 H647 0.950 . S
C667 C663 1.385 . S
C667 C666 1.374 . S
C668 C665 1.499 . S
C668 C669 1.373 . S
C668 C670 1.389 . S
C669 H648 0.950 . S
C669 C668 1.373 . S
C669 C685 1.377 . S
C670 C668 1.389 . S
C670 C671 1.524 . S
C670 C684 1.377 . S
C671 C670 1.524 . S
C671 C672 1.397 . S
C671 C676 1.363 . S
C672 H649 0.950 . S
C672 C671 1.397 . S
C672 C673 1.334 . S
C673 H650 0.950 . S
C673 C672 1.334 . S
C673 C674 1.287 . S
C674 C673 1.287 . S
C674 C675 1.524 . S
C674 H693 0.913 . S
C675 H651 0.950 . S
C675 C674 1.524 . S
C675 C676 1.415 . S
C676 H652 0.950 . S
C676 C671 1.363 . S
C676 C675 1.415 . S
C677 H653 0.951 . S
C677 C678 1.366 . S
C677 C679 1.388 . S
C678 C677 1.366 . S
C678 C682 1.385 . S
C679 H654 0.951 . S
C679 C677 1.388 . S
C679 C680 1.366 . S
C680 C679 1.366 . S
C680 C681 1.414 . S
C680 C683 1.499 . S
C681 H655 0.950 . S
C681 C680 1.414 . S
C681 C682 1.374 . S
C682 H656 0.950 . S
C682 C678 1.385 . S
C682 C681 1.374 . S
C683 C680 1.499 . S
C683 C684 1.373 . S
C683 C685 1.389 . S
C684 H657 0.950 . S
C684 C670 1.377 . S
C684 C683 1.373 . S
C685 C669 1.377 . S
C685 C683 1.389 . S
C685 C686 1.524 . S
C686 C685 1.524 . S
C686 C687 1.397 . S
C686 C691 1.363 . S
C687 H658 0.950 . S
C687 C686 1.397 . S
C687 C688 1.334 . S
C688 H659 0.950 . S
C688 C687 1.334 . S
C688 C689 1.287 . S
C689 C688 1.287 . S
C689 C690 1.524 . S
C689 H692 0.999 . S
C690 H660 0.950 . S
C690 C689 1.524 . S
C690 C691 1.415 . S
C691 H661 0.950 . S
C691 C686 1.363 . S
C691 C690 1.415 . S
H692 C689 0.999 . S
H693 C674 0.913 . S
H694 C712 0.951 . S
H695 C714 0.951 . S
H696 C716 0.950 . S
H697 C717 0.950 . S
H698 C719 0.950 . S
H699 C722 0.950 . S
H700 C723 0.950 . S
H701 C725 0.950 . S
H702 C726 0.950 . S
H703 C727 0.951 . S
H704 C729 0.951 . S
H705 C731 0.950 . S
H706 C732 0.950 . S
H707 C734 0.950 . S
H708 C737 0.950 . S
H709 C738 0.950 . S
H710 C740 0.950 . S
H711 C741 0.950 . S
C712 H694 0.951 . S
C712 C713 1.366 . S
C712 C714 1.388 . S
C713 C712 1.366 . S
C713 C717 1.385 . S
C714 H695 0.951 . S
C714 C712 1.388 . S
C714 C715 1.366 . S
C715 C714 1.366 . S
C715 C716 1.414 . S
C715 C718 1.499 . S
C716 H696 0.950 . S
C716 C715 1.414 . S
C716 C717 1.374 . S
C717 H697 0.950 . S
C717 C713 1.385 . S
C717 C716 1.374 . S
C718 C715 1.499 . S
C718 C719 1.373 . S
C718 C720 1.389 . S
C719 H698 0.950 . S
C719 C718 1.373 . S
C719 C735 1.377 . S
C720 C718 1.389 . S
C720 C721 1.524 . S
C720 C734 1.377 . S
C721 C720 1.524 . S
C721 C722 1.397 . S
C721 C726 1.363 . S
C722 H699 0.950 . S
C722 C721 1.397 . S
C722 C723 1.334 . S
C723 H700 0.950 . S
C723 C722 1.334 . S
C723 C724 1.287 . S
C724 C723 1.287 . S
C724 C725 1.524 . S
C724 H743 0.913 . S
C725 H701 0.950 . S
C725 C724 1.524 . S
C725 C726 1.415 . S
C726 H702 0.950 . S
C726 C721 1.363 . S
C726 C725 1.415 . S
C727 H703 0.951 . S
C727 C728 1.366 . S
C727 C729 1.388 . S
C728 C727 1.366 . S
C728 C732 1.385 . S
C729 H704 0.951 . S
C729 C727 1.388 . S
C729 C730 1.366 . S
C730 C729 1.366 . S
C730 C731 1.414 . S
C730 C733 1.499 . S
C731 H705 0.950 . S
C731 C730 1.414 . S
C731 C732 1.374 . S
C732 H706 0.950 . S
C732 C728 1.385 . S
C732 C731 1.374 . S
C733 C730 1.499 . S
C733 C734 1.373 . S
C733 C735 1.389 . S
C734 H707 0.950 . S
C734 C720 1.377 . S
C734 C733 1.373 . S
C735 C719 1.377 . S
C735 C733 1.389 . S
C735 C736 1.524 . S
C736 C735 1.524 . S
C736 C737 1.397 . S
C736 C741 1.363 . S
C737 H708 0.950 . S
C737 C736 1.397 . S
C737 C738 1.334 . S
C738 H709 0.950 . S
C738 C737 1.334 . S
C738 C739 1.287 . S
C739 C738 1.287 . S
C739 C740 1.524 . S
C739 H742 0.999 . S
C740 H710 0.950 . S
C740 C739 1.524 . S
C740 C741 1.415 . S
C741 H711 0.950 . S
C741 C736 1.363 . S
C741 C740 1.415 . S
H742 C739 0.999 . S
H743 C724 0.913 . S
H744 C762 0.951 . S
H745 C764 0.951 1_655 S
H746 C766 0.950 . S
H747 C767 0.950 . S
H748 C769 0.950 . S
H749 C772 0.950 . S
H750 C773 0.950 . S
H751 C775 0.950 . S
H752 C776 0.950 . S
H753 C777 0.951 . S
H754 C779 0.951 1_455 S
H755 C781 0.950 . S
H756 C782 0.950 . S
H757 C784 0.950 . S
H758 C787 0.950 . S
H759 C788 0.950 . S
H760 C790 0.950 . S
H761 C791 0.950 . S
C762 H744 0.951 . S
C762 C763 1.366 . S
C762 C764 1.388 . S
C763 C762 1.366 . S
C763 C767 1.385 . S
C764 H745 0.951 1_455 S
C764 C762 1.388 . S
C764 C765 1.366 . S
C765 C764 1.366 . S
C765 C766 1.414 . S
C765 C768 1.499 . S
C766 H746 0.950 . S
C766 C765 1.414 . S
C766 C767 1.374 . S
C767 H747 0.950 . S
C767 C763 1.385 . S
C767 C766 1.374 . S
C768 C765 1.499 . S
C768 C769 1.373 . S
C768 C770 1.389 1_455 S
C769 H748 0.950 . S
C769 C768 1.373 . S
C769 C785 1.377 1_545 S
C770 C768 1.389 1_655 S
C770 C771 1.524 . S
C770 C784 1.377 1_545 S
C771 C770 1.524 . S
C771 C772 1.397 . S
C771 C776 1.363 . S
C772 H749 0.950 . S
C772 C771 1.397 . S
C772 C773 1.334 . S
C773 H750 0.950 . S
C773 C772 1.334 . S
C773 C774 1.287 . S
C774 C773 1.287 . S
C774 C775 1.524 . S
C774 H793 0.913 . S
C775 H751 0.950 . S
C775 C774 1.524 . S
C775 C776 1.415 . S
C776 H752 0.950 . S
C776 C771 1.363 . S
C776 C775 1.415 . S
C777 H753 0.951 . S
C777 C778 1.366 . S
C777 C779 1.388 . S
C778 C777 1.366 . S
C778 C782 1.385 . S
C779 H754 0.951 1_655 S
C779 C777 1.388 . S
C779 C780 1.366 . S
C780 C779 1.366 . S
C780 C781 1.414 . S
C780 C783 1.499 . S
C781 H755 0.950 . S
C781 C780 1.414 . S
C781 C782 1.374 . S
C782 H756 0.950 . S
C782 C778 1.385 . S
C782 C781 1.374 . S
C783 C780 1.499 . S
C783 C784 1.373 . S
C783 C785 1.389 1_655 S
C784 H757 0.950 . S
C784 C770 1.377 1_565 S
C784 C783 1.373 . S
C785 C769 1.377 1_565 S
C785 C783 1.389 1_455 S
C785 C786 1.524 . S
C786 C785 1.524 . S
C786 C787 1.397 . S
C786 C791 1.363 . S
C787 H758 0.950 . S
C787 C786 1.397 . S
C787 C788 1.334 . S
C788 H759 0.950 . S
C788 C787 1.334 . S
C788 C789 1.287 . S
C789 C788 1.287 . S
C789 C790 1.524 . S
C789 H792 0.999 . S
C790 H760 0.950 . S
C790 C789 1.524 . S
C790 C791 1.415 . S
C791 H761 0.950 . S
C791 C786 1.363 . S
C791 C790 1.415 . S
H792 C789 0.999 . S
H793 C774 0.913 . S
H794 C812 0.951 . S
H795 C814 0.951 1_545 S
H796 C816 0.950 . S
H797 C817 0.950 . S
H798 C819 0.950 . S
H799 C822 0.950 1_565 S
H800 C823 0.950 . S
H801 C825 0.950 . S
H802 C826 0.950 . S
H803 C827 0.951 . S
H804 C829 0.951 1_565 S
H805 C831 0.950 . S
H806 C832 0.950 . S
H807 C834 0.950 . S
H808 C837 0.950 1_545 S
H809 C838 0.950 . S
H810 C840 0.950 . S
H811 C841 0.950 . S
C812 H794 0.951 . S
C812 C813 1.366 . S
C812 C814 1.388 . S
C813 C812 1.366 . S
C813 C817 1.385 . S
C814 H795 0.951 1_565 S
C814 C812 1.388 . S
C814 C815 1.366 . S
C815 C814 1.366 . S
C815 C816 1.414 . S
C815 C818 1.499 . S
C816 H796 0.950 . S
C816 C815 1.414 . S
C816 C817 1.374 . S
C817 H797 0.950 . S
C817 C813 1.385 . S
C817 C816 1.374 . S
C818 C815 1.499 . S
C818 C819 1.373 . S
C818 C820 1.389 1_565 S
C819 H798 0.950 . S
C819 C818 1.373 . S
C819 C835 1.377 1_455 S
C820 C818 1.389 1_545 S
C820 C821 1.524 . S
C820 C834 1.377 1_455 S
C821 C820 1.524 . S
C821 C822 1.397 . S
C821 C826 1.363 . S
C822 H799 0.950 1_545 S
C822 C821 1.397 . S
C822 C823 1.334 . S
C823 H800 0.950 . S
C823 C822 1.334 . S
C823 C824 1.287 . S
C824 C823 1.287 . S
C824 C825 1.524 . S
C824 H843 0.913 . S
C825 H801 0.950 . S
C825 C824 1.524 . S
C825 C826 1.415 . S
C826 H802 0.950 . S
C826 C821 1.363 . S
C826 C825 1.415 . S
C827 H803 0.951 . S
C827 C828 1.366 . S
C827 C829 1.388 . S
C828 C827 1.366 . S
C828 C832 1.385 . S
C829 H804 0.951 1_545 S
C829 C827 1.388 . S
C829 C830 1.366 . S
C830 C829 1.366 . S
C830 C831 1.414 . S
C830 C833 1.499 . S
C831 H805 0.950 . S
C831 C830 1.414 . S
C831 C832 1.374 . S
C832 H806 0.950 . S
C832 C828 1.385 . S
C832 C831 1.374 . S
C833 C830 1.499 . S
C833 C834 1.373 . S
C833 C835 1.389 1_545 S
C834 H807 0.950 . S
C834 C820 1.377 1_655 S
C834 C833 1.373 . S
C835 C819 1.377 1_655 S
C835 C833 1.389 1_565 S
C835 C836 1.524 . S
C836 C835 1.524 . S
C836 C837 1.397 . S
C836 C841 1.363 . S
C837 H808 0.950 1_565 S
C837 C836 1.397 . S
C837 C838 1.334 . S
C838 H809 0.950 . S
C838 C837 1.334 . S
C838 C839 1.287 . S
C839 C838 1.287 . S
C839 C840 1.524 . S
C839 H842 0.999 . S
C840 H810 0.950 . S
C840 C839 1.524 . S
C840 C841 1.415 . S
C841 H811 0.950 . S
C841 C836 1.363 . S
C841 C840 1.415 . S
H842 C839 0.999 . S
H843 C824 0.913 . S
H844 C862 0.951 . S
H845 C864 0.951 . S
H846 C866 0.950 . S
H847 C867 0.950 . S
H848 C869 0.950 . S
H849 C872 0.950 . S
H850 C873 0.950 . S
H851 C875 0.950 . S
H852 C876 0.950 . S
H853 C877 0.951 . S
H854 C879 0.951 . S
H855 C881 0.950 . S
H856 C882 0.950 . S
H857 C884 0.950 . S
H858 C887 0.950 . S
H859 C888 0.950 . S
H860 C890 0.950 . S
H861 C891 0.950 . S
C862 H844 0.951 . S
C862 C863 1.366 . S
C862 C864 1.388 . S
C863 C862 1.366 . S
C863 C867 1.385 . S
C864 H845 0.951 . S
C864 C862 1.388 . S
C864 C865 1.366 . S
C865 C864 1.366 . S
C865 C866 1.414 . S
C865 C868 1.499 . S
C866 H846 0.950 . S
C866 C865 1.414 . S
C866 C867 1.374 . S
C867 H847 0.950 . S
C867 C863 1.385 . S
C867 C866 1.374 . S
C868 C865 1.499 . S
C868 C869 1.373 . S
C868 C870 1.389 . S
C869 H848 0.950 . S
C869 C868 1.373 . S
C869 C885 1.377 . S
C870 C868 1.389 . S
C870 C871 1.524 . S
C870 C884 1.377 . S
C871 C870 1.524 . S
C871 C872 1.397 . S
C871 C876 1.363 . S
C872 H849 0.950 . S
C872 C871 1.397 . S
C872 C873 1.334 . S
C873 H850 0.950 . S
C873 C872 1.334 . S
C873 C874 1.287 . S
C874 C873 1.287 . S
C874 C875 1.524 . S
C874 H893 0.913 . S
C875 H851 0.950 . S
C875 C874 1.524 . S
C875 C876 1.415 . S
C876 H852 0.950 . S
C876 C871 1.363 . S
C876 C875 1.415 . S
C877 H853 0.951 . S
C877 C878 1.366 . S
C877 C879 1.388 . S
C878 C877 1.366 . S
C878 C882 1.385 . S
C879 H854 0.951 . S
C879 C877 1.388 . S
C879 C880 1.366 . S
C880 C879 1.366 . S
C880 C881 1.414 . S
C880 C883 1.499 . S
C881 H855 0.950 . S
C881 C880 1.414 . S
C881 C882 1.374 . S
C882 H856 0.950 . S
C882 C878 1.385 . S
C882 C881 1.374 . S
C883 C880 1.499 . S
C883 C884 1.373 . S
C883 C885 1.389 . S
C884 H857 0.950 . S
C884 C870 1.377 . S
C884 C883 1.373 . S
C885 C869 1.377 . S
C885 C883 1.389 . S
C885 C886 1.524 . S
C886 C885 1.524 . S
C886 C887 1.397 . S
C886 C891 1.363 . S
C887 H858 0.950 . S
C887 C886 1.397 . S
C887 C888 1.334 . S
C888 H859 0.950 . S
C888 C887 1.334 . S
C888 C889 1.287 . S
C889 C888 1.287 . S
C889 C890 1.524 . S
C889 H892 0.999 . S
C890 H860 0.950 . S
C890 C889 1.524 . S
C890 C891 1.415 . S
C891 H861 0.950 . S
C891 C886 1.363 . S
C891 C890 1.415 . S
H892 C889 0.999 . S
H893 C874 0.913 . S
H894 C912 0.951 . S
H895 C914 0.951 . S
H896 C916 0.950 . S
H897 C917 0.950 . S
H898 C919 0.950 . S
H899 C922 0.950 . S
H900 C923 0.950 . S
H901 C925 0.950 . S
H902 C926 0.950 . S
H903 C927 0.951 . S
H904 C929 0.951 . S
H905 C931 0.950 . S
H906 C932 0.950 . S
H907 C934 0.950 . S
H908 C937 0.950 . S
H909 C938 0.950 . S
H910 C940 0.950 . S
H911 C941 0.950 . S
C912 H894 0.951 . S
C912 C913 1.366 . S
C912 C914 1.388 . S
C913 C912 1.366 . S
C913 C917 1.385 . S
C914 H895 0.951 . S
C914 C912 1.388 . S
C914 C915 1.366 . S
C915 C914 1.366 . S
C915 C916 1.414 . S
C915 C918 1.499 . S
C916 H896 0.950 . S
C916 C915 1.414 . S
C916 C917 1.374 . S
C917 H897 0.950 . S
C917 C913 1.385 . S
C917 C916 1.374 . S
C918 C915 1.499 . S
C918 C919 1.373 . S
C918 C920 1.389 . S
C919 H898 0.950 . S
C919 C918 1.373 . S
C919 C935 1.377 . S
C920 C918 1.389 . S
C920 C921 1.524 . S
C920 C934 1.377 . S
C921 C920 1.524 . S
C921 C922 1.397 . S
C921 C926 1.363 . S
C922 H899 0.950 . S
C922 C921 1.397 . S
C922 C923 1.334 . S
C923 H900 0.950 . S
C923 C922 1.334 . S
C923 C924 1.287 . S
C924 C923 1.287 . S
C924 C925 1.524 . S
C924 H943 0.913 . S
C925 H901 0.950 . S
C925 C924 1.524 . S
C925 C926 1.415 . S
C926 H902 0.950 . S
C926 C921 1.363 . S
C926 C925 1.415 . S
C927 H903 0.951 . S
C927 C928 1.366 . S
C927 C929 1.388 . S
C928 C927 1.366 . S
C928 C932 1.385 . S
C929 H904 0.951 . S
C929 C927 1.388 . S
C929 C930 1.366 . S
C930 C929 1.366 . S
C930 C931 1.414 . S
C930 C933 1.499 . S
C931 H905 0.950 . S
C931 C930 1.414 . S
C931 C932 1.374 . S
C932 H906 0.950 . S
C932 C928 1.385 . S
C932 C931 1.374 . S
C933 C930 1.499 . S
C933 C934 1.373 . S
C933 C935 1.389 . S
C934 H907 0.950 . S
C934 C920 1.377 . S
C934 C933 1.373 . S
C935 C919 1.377 . S
C935 C933 1.389 . S
C935 C936 1.524 . S
C936 C935 1.524 . S
C936 C937 1.397 . S
C936 C941 1.363 . S
C937 H908 0.950 . S
C937 C936 1.397 . S
C937 C938 1.334 . S
C938 H909 0.950 . S
C938 C937 1.334 . S
C938 C939 1.287 . S
C939 C938 1.287 . S
C939 C940 1.524 . S
C939 H942 0.999 . S
C940 H910 0.950 . S
C940 C939 1.524 . S
C940 C941 1.415 . S
C941 H911 0.950 . S
C941 C936 1.363 . S
C941 C940 1.415 . S
H942 C939 0.999 . S
H943 C924 0.913 . S
H944 C962 0.951 . S
H945 C964 0.951 . S
H946 C966 0.950 . S
H947 C967 0.950 . S
H948 C969 0.950 . S
H949 C972 0.950 . S
H950 C973 0.950 . S
H951 C975 0.958 . S
H952 C976 0.950 . S
H953 C977 0.951 . S
H954 C979 0.951 . S
H955 C981 0.950 . S
H956 C982 0.950 . S
H957 C984 0.950 . S
H958 C987 0.950 . S
H959 C988 0.950 . S
H960 C990 0.950 . S
H961 C991 0.950 . S
C962 H944 0.951 . S
C962 C963 1.366 . S
C962 C964 1.388 . S
C963 C962 1.366 . S
C963 C967 1.385 . S
C964 H945 0.951 . S
C964 C962 1.388 . S
C964 C965 1.366 . S
C965 C964 1.366 . S
C965 C966 1.414 . S
C965 C968 1.499 1_554 S
C966 H946 0.950 . S
C966 C965 1.414 . S
C966 C967 1.374 . S
C967 H947 0.950 . S
C967 C963 1.385 . S
C967 C966 1.374 . S
C968 C965 1.499 1_556 S
C968 C969 1.373 . S
C968 C970 1.389 . S
C969 H948 0.950 . S
C969 C968 1.373 . S
C969 C985 1.377 . S
C970 C968 1.389 . S
C970 C971 1.524 . S
C970 C984 1.377 . S
C971 C970 1.524 . S
C971 C972 1.397 1_556 S
C971 C976 1.363 . S
C972 H949 0.950 . S
C972 C971 1.397 1_554 S
C972 C973 1.334 1_455 S
C973 H950 0.950 . S
C973 C972 1.334 1_655 S
C973 C974 1.287 . S
C974 C973 1.287 . S
C974 C975 1.498 1_554 S
C974 H993 0.913 . S
C975 H951 0.958 . S
C975 C974 1.498 1_556 S
C975 C976 1.434 1_655 S
C976 H952 0.950 . S
C976 C971 1.363 . S
C976 C975 1.434 1_455 S
C977 H953 0.951 . S
C977 C978 1.366 . S
C977 C979 1.388 . S
C978 C977 1.366 . S
C978 C982 1.385 . S
C979 H954 0.951 . S
C979 C977 1.388 . S
C979 C980 1.366 . S
C980 C979 1.366 . S
C980 C981 1.414 . S
C980 C983 1.499 . S
C981 H955 0.950 . S
C981 C980 1.414 . S
C981 C982 1.374 . S
C982 H956 0.950 . S
C982 C978 1.385 . S
C982 C981 1.374 . S
C983 C980 1.499 . S
C983 C984 1.373 . S
C983 C985 1.389 . S
C984 H957 0.950 . S
C984 C970 1.377 . S
C984 C983 1.373 . S
C985 C969 1.377 . S
C985 C983 1.389 . S
C985 C986 1.524 . S
C986 C985 1.524 . S
C986 C987 1.397 . S
C986 C991 1.363 . S
C987 H958 0.950 . S
C987 C986 1.397 . S
C987 C988 1.334 . S
C988 H959 0.950 . S
C988 C987 1.334 . S
C988 C989 1.287 . S
C989 C988 1.287 . S
C989 C990 1.524 . S
C989 H992 0.999 . S
C990 H960 0.950 . S
C990 C989 1.524 . S
C990 C991 1.415 . S
C991 H961 0.950 . S
C991 C986 1.363 . S
C991 C990 1.415 . S
H992 C989 0.999 . S
H993 C974 0.913 . S
H994 C1012 0.951 . S
H995 C1014 0.951 . S
H996 C1016 0.950 . S
H997 C1017 0.950 . S
H998 C1019 0.950 . S
H999 C1022 0.950 . S
H1000 C1023 0.950 . S
H1001 C1025 0.950 . S
H1002 C1026 0.950 . S
H1003 C1027 0.951 . S
H1004 C1029 0.951 . S
H1005 C1031 0.950 . S
H1006 C1032 0.950 . S
H1007 C1034 0.950 . S
H1008 C1037 0.950 . S
H1009 C1038 0.950 . S
H1010 C1040 0.952 . S
H1011 C1041 0.950 . S
C1012 H994 0.951 . S
C1012 C1013 1.366 . S
C1012 C1014 1.388 . S
C1013 C1012 1.366 . S
C1013 C1017 1.385 . S
C1014 H995 0.951 . S
C1014 C1012 1.388 . S
C1014 C1015 1.366 . S
C1015 C1014 1.366 . S
C1015 C1016 1.414 . S
C1015 C1018 1.499 . S
C1016 H996 0.950 . S
C1016 C1015 1.414 . S
C1016 C1017 1.374 . S
C1017 H997 0.950 . S
C1017 C1013 1.385 . S
C1017 C1016 1.374 . S
C1018 C1015 1.499 . S
C1018 C1019 1.373 . S
C1018 C1020 1.389 . S
C1019 H998 0.950 . S
C1019 C1018 1.373 . S
C1019 C1035 1.377 . S
C1020 C1018 1.389 . S
C1020 C1021 1.524 . S
C1020 C1034 1.377 . S
C1021 C1020 1.524 . S
C1021 C1022 1.397 . S
C1021 C1026 1.363 . S
C1022 H999 0.950 . S
C1022 C1021 1.397 . S
C1022 C1023 1.334 . S
C1023 H1000 0.950 . S
C1023 C1022 1.334 . S
C1023 C1024 1.287 . S
C1024 C1023 1.287 . S
C1024 C1025 1.524 . S
C1024 H1043 0.913 . S
C1025 H1001 0.950 . S
C1025 C1024 1.524 . S
C1025 C1026 1.415 . S
C1026 H1002 0.950 . S
C1026 C1021 1.363 . S
C1026 C1025 1.415 . S
C1027 H1003 0.951 . S
C1027 C1028 1.366 . S
C1027 C1029 1.388 . S
C1028 C1027 1.366 . S
C1028 C1032 1.385 . S
C1029 H1004 0.951 . S
C1029 C1027 1.388 . S
C1029 C1030 1.366 . S
C1030 C1029 1.366 . S
C1030 C1031 1.414 . S
C1030 C1033 1.499 . S
C1031 H1005 0.950 . S
C1031 C1030 1.414 . S
C1031 C1032 1.374 . S
C1032 H1006 0.950 . S
C1032 C1028 1.385 . S
C1032 C1031 1.374 . S
C1033 C1030 1.499 . S
C1033 C1034 1.373 . S
C1033 C1035 1.389 . S
C1034 H1007 0.950 . S
C1034 C1020 1.377 . S
C1034 C1033 1.373 . S
C1035 C1019 1.377 . S
C1035 C1033 1.389 . S
C1035 C1036 1.524 . S
C1036 C1035 1.524 . S
C1036 C1037 1.397 . S
C1036 C1041 1.363 . S
C1037 H1008 0.950 . S
C1037 C1036 1.397 . S
C1037 C1038 1.334 1_545 S
C1038 H1009 0.950 . S
C1038 C1037 1.334 1_565 S
C1038 C1039 1.287 . S
C1039 C1038 1.287 . S
C1039 C1040 1.524 1_565 S
C1039 H1042 0.999 . S
C1040 H1010 0.952 . S
C1040 C1039 1.524 1_545 S
C1040 C1041 1.415 . S
C1041 H1011 0.950 . S
C1041 C1036 1.363 . S
C1041 C1040 1.415 . S
H1042 C1039 0.999 . S
H1043 C1024 0.913 . S
H1044 C1062 0.951 . S
H1045 C1064 0.951 . S
H1046 C1066 0.950 . S
H1047 C1067 0.950 . S
H1048 C1069 0.950 . S
H1049 C1072 0.950 . S
H1050 C1073 0.950 . S
H1051 C1075 0.950 . S
H1052 C1076 0.950 . S
H1053 C1077 0.951 . S
H1054 C1079 0.951 . S
H1055 C1081 0.950 . S
H1056 C1082 0.950 . S
H1057 C1084 0.950 . S
H1058 C1087 0.950 . S
H1059 C1088 0.950 . S
H1060 C1090 0.949 1_455 S
H1061 C1091 0.950 . S
C1062 H1044 0.951 . S
C1062 C1063 1.366 . S
C1062 C1064 1.388 . S
C1063 C1062 1.366 . S
C1063 C1067 1.385 . S
C1064 H1045 0.951 . S
C1064 C1062 1.388 . S
C1064 C1065 1.366 . S
C1065 C1064 1.366 . S
C1065 C1066 1.414 . S
C1065 C1068 1.499 . S
C1066 H1046 0.950 . S
C1066 C1065 1.414 . S
C1066 C1067 1.374 . S
C1067 H1047 0.950 . S
C1067 C1063 1.385 . S
C1067 C1066 1.374 . S
C1068 C1065 1.499 . S
C1068 C1069 1.373 . S
C1068 C1070 1.389 . S
C1069 H1048 0.950 . S
C1069 C1068 1.373 . S
C1069 C1085 1.377 . S
C1070 C1068 1.389 . S
C1070 C1071 1.524 . S
C1070 C1084 1.377 . S
C1071 C1070 1.524 . S
C1071 C1072 1.397 . S
C1071 C1076 1.363 . S
C1072 H1049 0.950 . S
C1072 C1071 1.397 . S
C1072 C1073 1.334 . S
C1073 H1050 0.950 . S
C1073 C1072 1.334 . S
C1073 C1074 1.287 . S
C1074 C1073 1.287 . S
C1074 C1075 1.524 . S
C1074 H1093 0.913 . S
C1075 H1051 0.950 . S
C1075 C1074 1.524 . S
C1075 C1076 1.415 . S
C1076 H1052 0.950 . S
C1076 C1071 1.363 . S
C1076 C1075 1.415 . S
C1077 H1053 0.951 . S
C1077 C1078 1.366 . S
C1077 C1079 1.388 . S
C1078 C1077 1.366 . S
C1078 C1082 1.385 . S
C1079 H1054 0.951 . S
C1079 C1077 1.388 . S
C1079 C1080 1.366 . S
C1080 C1079 1.366 . S
C1080 C1081 1.414 . S
C1080 C1083 1.499 1_554 S
C1081 H1055 0.950 . S
C1081 C1080 1.414 . S
C1081 C1082 1.374 . S
C1082 H1056 0.950 . S
C1082 C1078 1.385 . S
C1082 C1081 1.374 . S
C1083 C1080 1.499 1_556 S
C1083 C1084 1.373 . S
C1083 C1085 1.389 . S
C1084 H1057 0.950 . S
C1084 C1070 1.377 . S
C1084 C1083 1.373 . S
C1085 C1069 1.377 . S
C1085 C1083 1.389 . S
C1085 C1086 1.524 . S
C1086 C1085 1.524 . S
C1086 C1087 1.397 1_556 S
C1086 C1091 1.363 . S
C1087 H1058 0.950 . S
C1087 C1086 1.397 1_554 S
C1087 C1088 1.334 . S
C1088 H1059 0.950 . S
C1088 C1087 1.334 . S
C1088 C1089 1.287 . S
C1089 C1088 1.287 . S
C1089 C1090 1.526 1_554 S
C1089 H1092 0.999 . S
C1090 H1060 0.949 1_655 S
C1090 C1089 1.526 1_556 S
C1090 C1091 1.414 . S
C1091 H1061 0.950 . S
C1091 C1086 1.363 . S
C1091 C1090 1.414 . S
H1092 C1089 0.999 . S
H1093 C1074 0.913 . S
H1094 C1112 0.951 . S
H1095 C1114 0.951 . S
H1096 C1116 0.950 . S
H1097 C1117 0.950 . S
H1098 C1119 0.950 . S
H1099 C1122 0.950 . S
H1100 C1123 0.950 . S
H1101 C1125 0.950 . S
H1102 C1126 0.950 . S
H1103 C1127 0.951 . S
H1104 C1129 0.951 . S
H1105 C1131 0.950 . S
H1106 C1132 0.950 . S
H1107 C1134 0.950 . S
H1108 C1137 0.950 . S
H1109 C1138 0.950 . S
H1110 C1140 0.950 . S
H1111 C1141 0.950 . S
C1112 H1094 0.951 . S
C1112 C1113 1.366 . S
C1112 C1114 1.388 . S
C1113 C1112 1.366 . S
C1113 C1117 1.385 . S
C1114 H1095 0.951 . S
C1114 C1112 1.388 . S
C1114 C1115 1.366 . S
C1115 C1114 1.366 . S
C1115 C1116 1.414 . S
C1115 C1118 1.499 . S
C1116 H1096 0.950 . S
C1116 C1115 1.414 . S
C1116 C1117 1.374 . S
C1117 H1097 0.950 . S
C1117 C1113 1.385 . S
C1117 C1116 1.374 . S
C1118 C1115 1.499 . S
C1118 C1119 1.373 . S
C1118 C1120 1.389 . S
C1119 H1098 0.950 . S
C1119 C1118 1.373 . S
C1119 C1135 1.377 . S
C1120 C1118 1.389 . S
C1120 C1121 1.524 . S
C1120 C1134 1.377 . S
C1121 C1120 1.524 . S
C1121 C1122 1.397 . S
C1121 C1126 1.363 . S
C1122 H1099 0.950 . S
C1122 C1121 1.397 . S
C1122 C1123 1.334 . S
C1123 H1100 0.950 . S
C1123 C1122 1.334 . S
C1123 C1124 1.287 . S
C1124 C1123 1.287 . S
C1124 C1125 1.524 . S
C1124 H1143 0.913 . S
C1125 H1101 0.950 . S
C1125 C1124 1.524 . S
C1125 C1126 1.415 . S
C1126 H1102 0.950 . S
C1126 C1121 1.363 . S
C1126 C1125 1.415 . S
C1127 H1103 0.951 . S
C1127 C1128 1.366 . S
C1127 C1129 1.388 . S
C1128 C1127 1.366 . S
C1128 C1132 1.385 . S
C1129 H1104 0.951 . S
C1129 C1127 1.388 . S
C1129 C1130 1.366 . S
C1130 C1129 1.366 . S
C1130 C1131 1.414 . S
C1130 C1133 1.499 . S
C1131 H1105 0.950 . S
C1131 C1130 1.414 . S
C1131 C1132 1.374 . S
C1132 H1106 0.950 . S
C1132 C1128 1.385 . S
C1132 C1131 1.374 . S
C1133 C1130 1.499 . S
C1133 C1134 1.373 . S
C1133 C1135 1.389 . S
C1134 H1107 0.950 . S
C1134 C1120 1.377 . S
C1134 C1133 1.373 . S
C1135 C1119 1.377 . S
C1135 C1133 1.389 . S
C1135 C1136 1.524 . S
C1136 C1135 1.524 . S
C1136 C1137 1.397 . S
C1136 C1141 1.363 . S
C1137 H1108 0.950 . S
C1137 C1136 1.397 . S
C1137 C1138 1.334 . S
C1138 H1109 0.950 . S
C1138 C1137 1.334 . S
C1138 C1139 1.287 . S
C1139 C1138 1.287 . S
C1139 C1140 1.524 . S
C1139 H1142 0.999 . S
C1140 H1110 0.950 . S
C1140 C1139 1.524 . S
C1140 C1141 1.415 . S
C1141 H1111 0.950 . S
C1141 C1136 1.363 . S
C1141 C1140 1.415 . S
H1142 C1139 0.999 . S
H1143 C1124 0.913 . S
H1144 C1162 0.951 . S
H1145 C1164 0.951 . S
H1146 C1166 0.950 . S
H1147 C1167 0.950 . S
H1148 C1169 0.950 . S
H1149 C1172 0.950 . S
H1150 C1173 0.950 . S
H1151 C1175 0.950 . S
H1152 C1176 0.950 . S
H1153 C1177 0.951 . S
H1154 C1179 0.951 . S
H1155 C1181 0.950 . S
H1156 C1182 0.950 . S
H1157 C1184 0.950 . S
H1158 C1187 0.950 . S
H1159 C1188 0.950 . S
H1160 C1190 0.950 . S
H1161 C1191 0.950 . S
C1162 H1144 0.951 . S
C1162 C1163 1.366 . S
C1162 C1164 1.388 . S
C1163 C1162 1.366 . S
C1163 C1167 1.385 . S
C1164 H1145 0.951 . S
C1164 C1162 1.388 . S
C1164 C1165 1.366 . S
C1165 C1164 1.366 . S
C1165 C1166 1.414 . S
C1165 C1168 1.499 . S
C1166 H1146 0.950 . S
C1166 C1165 1.414 . S
C1166 C1167 1.374 . S
C1167 H1147 0.950 . S
C1167 C1163 1.385 . S
C1167 C1166 1.374 . S
C1168 C1165 1.499 . S
C1168 C1169 1.373 . S
C1168 C1170 1.389 . S
C1169 H1148 0.950 . S
C1169 C1168 1.373 . S
C1169 C1185 1.377 . S
C1170 C1168 1.389 . S
C1170 C1171 1.524 . S
C1170 C1184 1.377 . S
C1171 C1170 1.524 . S
C1171 C1172 1.397 . S
C1171 C1176 1.363 . S
C1172 H1149 0.950 . S
C1172 C1171 1.397 . S
C1172 C1173 1.334 . S
C1173 H1150 0.950 . S
C1173 C1172 1.334 . S
C1173 C1174 1.287 . S
C1174 C1173 1.287 . S
C1174 C1175 1.524 . S
C1174 H1193 0.913 . S
C1175 H1151 0.950 . S
C1175 C1174 1.524 . S
C1175 C1176 1.415 . S
C1176 H1152 0.950 . S
C1176 C1171 1.363 . S
C1176 C1175 1.415 . S
C1177 H1153 0.951 . S
C1177 C1178 1.366 . S
C1177 C1179 1.388 . S
C1178 C1177 1.366 . S
C1178 C1182 1.385 . S
C1179 H1154 0.951 . S
C1179 C1177 1.388 . S
C1179 C1180 1.366 . S
C1180 C1179 1.366 . S
C1180 C1181 1.414 . S
C1180 C1183 1.499 1_556 S
C1181 H1155 0.950 . S
C1181 C1180 1.414 . S
C1181 C1182 1.374 . S
C1182 H1156 0.950 . S
C1182 C1178 1.385 . S
C1182 C1181 1.374 . S
C1183 C1180 1.499 1_554 S
C1183 C1184 1.373 . S
C1183 C1185 1.389 . S
C1184 H1157 0.950 . S
C1184 C1170 1.377 . S
C1184 C1183 1.373 . S
C1185 C1169 1.377 . S
C1185 C1183 1.389 . S
C1185 C1186 1.524 . S
C1186 C1185 1.524 . S
C1186 C1187 1.397 1_554 S
C1186 C1191 1.363 . S
C1187 H1158 0.950 . S
C1187 C1186 1.397 1_556 S
C1187 C1188 1.334 . S
C1188 H1159 0.950 . S
C1188 C1187 1.334 . S
C1188 C1189 1.287 . S
C1189 C1188 1.287 . S
C1189 C1190 1.524 1_556 S
C1189 H1192 0.999 . S
C1190 H1160 0.950 . S
C1190 C1189 1.524 1_554 S
C1190 C1191 1.415 . S
C1191 H1161 0.950 . S
C1191 C1186 1.363 . S
C1191 C1190 1.415 . S
H1192 C1189 0.999 . S
H1193 C1174 0.913 . S
H1194 C1212 0.951 . S
H1195 C1214 0.951 . S
H1196 C1216 0.950 . S
H1197 C1217 0.950 . S
H1198 C1219 0.950 . S
H1199 C1222 0.950 . S
H1200 C1223 0.950 . S
H1201 C1225 0.950 . S
H1202 C1226 0.950 . S
H1203 C1227 0.951 . S
H1204 C1229 0.951 . S
H1205 C1231 0.950 . S
H1206 C1232 0.950 . S
H1207 C1234 0.950 . S
H1208 C1237 0.950 . S
H1209 C1238 0.950 . S
H1210 C1240 0.950 . S
H1211 C1241 0.950 . S
C1212 H1194 0.951 . S
C1212 C1213 1.366 . S
C1212 C1214 1.388 . S
C1213 C1212 1.366 . S
C1213 C1217 1.385 . S
C1214 H1195 0.951 . S
C1214 C1212 1.388 . S
C1214 C1215 1.366 . S
C1215 C1214 1.366 . S
C1215 C1216 1.414 . S
C1215 C1218 1.499 . S
C1216 H1196 0.950 . S
C1216 C1215 1.414 . S
C1216 C1217 1.374 . S
C1217 H1197 0.950 . S
C1217 C1213 1.385 . S
C1217 C1216 1.374 . S
C1218 C1215 1.499 . S
C1218 C1219 1.373 . S
C1218 C1220 1.389 . S
C1219 H1198 0.950 . S
C1219 C1218 1.373 . S
C1219 C1235 1.377 . S
C1220 C1218 1.389 . S
C1220 C1221 1.524 . S
C1220 C1234 1.377 . S
C1221 C1220 1.524 . S
C1221 C1222 1.397 . S
C1221 C1226 1.363 . S
C1222 H1199 0.950 . S
C1222 C1221 1.397 . S
C1222 C1223 1.334 . S
C1223 H1200 0.950 . S
C1223 C1222 1.334 . S
C1223 C1224 1.287 . S
C1224 C1223 1.287 . S
C1224 C1225 1.524 . S
C1224 H1243 0.913 . S
C1225 H1201 0.950 . S
C1225 C1224 1.524 . S
C1225 C1226 1.415 . S
C1226 H1202 0.950 . S
C1226 C1221 1.363 . S
C1226 C1225 1.415 . S
C1227 H1203 0.951 . S
C1227 C1228 1.366 . S
C1227 C1229 1.388 . S
C1228 C1227 1.366 . S
C1228 C1232 1.385 . S
C1229 H1204 0.951 . S
C1229 C1227 1.388 . S
C1229 C1230 1.366 . S
C1230 C1229 1.366 . S
C1230 C1231 1.414 . S
C1230 C1233 1.499 . S
C1231 H1205 0.950 . S
C1231 C1230 1.414 . S
C1231 C1232 1.374 . S
C1232 H1206 0.950 . S
C1232 C1228 1.385 . S
C1232 C1231 1.374 . S
C1233 C1230 1.499 . S
C1233 C1234 1.373 . S
C1233 C1235 1.389 . S
C1234 H1207 0.950 . S
C1234 C1220 1.377 . S
C1234 C1233 1.373 . S
C1235 C1219 1.377 . S
C1235 C1233 1.389 . S
C1235 C1236 1.524 . S
C1236 C1235 1.524 . S
C1236 C1237 1.397 . S
C1236 C1241 1.363 . S
C1237 H1208 0.950 . S
C1237 C1236 1.397 . S
C1237 C1238 1.334 . S
C1238 H1209 0.950 . S
C1238 C1237 1.334 . S
C1238 C1239 1.287 . S
C1239 C1238 1.287 . S
C1239 C1240 1.524 . S
C1239 H1242 0.999 . S
C1240 H1210 0.950 . S
C1240 C1239 1.524 . S
C1240 C1241 1.415 . S
C1241 H1211 0.950 . S
C1241 C1236 1.363 . S
C1241 C1240 1.415 . S
H1242 C1239 0.999 . S
H1243 C1224 0.913 . S
H1244 C1262 0.951 . S
H1245 C1264 0.951 . S
H1246 C1266 0.950 . S
H1247 C1267 0.950 . S
H1248 C1269 0.950 . S
H1249 C1272 0.950 . S
H1250 C1273 0.950 . S
H1251 C1275 0.950 . S
H1252 C1276 0.950 . S
H1253 C1277 0.951 . S
H1254 C1279 0.951 . S
H1255 C1281 0.950 . S
H1256 C1282 0.950 . S
H1257 C1284 0.950 . S
H1258 C1287 0.950 . S
H1259 C1288 0.950 . S
H1260 C1290 0.948 1_554 S
H1261 C1291 0.950 . S
C1262 H1244 0.951 . S
C1262 C1263 1.366 . S
C1262 C1264 1.388 . S
C1263 C1262 1.366 . S
C1263 C1267 1.385 . S
C1264 H1245 0.951 . S
C1264 C1262 1.388 . S
C1264 C1265 1.366 . S
C1265 C1264 1.366 . S
C1265 C1266 1.414 . S
C1265 C1268 1.499 . S
C1266 H1246 0.950 . S
C1266 C1265 1.414 . S
C1266 C1267 1.374 . S
C1267 H1247 0.950 . S
C1267 C1263 1.385 . S
C1267 C1266 1.374 . S
C1268 C1265 1.499 . S
C1268 C1269 1.373 . S
C1268 C1270 1.389 . S
C1269 H1248 0.950 . S
C1269 C1268 1.373 . S
C1269 C1285 1.377 . S
C1270 C1268 1.389 . S
C1270 C1271 1.524 . S
C1270 C1284 1.377 . S
C1271 C1270 1.524 . S
C1271 C1272 1.397 . S
C1271 C1276 1.363 . S
C1272 H1249 0.950 . S
C1272 C1271 1.397 . S
C1272 C1273 1.334 . S
C1273 H1250 0.950 . S
C1273 C1272 1.334 . S
C1273 C1274 1.287 . S
C1274 C1273 1.287 . S
C1274 C1275 1.524 . S
C1274 H1293 0.913 . S
C1275 H1251 0.950 . S
C1275 C1274 1.524 . S
C1275 C1276 1.415 . S
C1276 H1252 0.950 . S
C1276 C1271 1.363 . S
C1276 C1275 1.415 . S
C1277 H1253 0.951 . S
C1277 C1278 1.366 . S
C1277 C1279 1.388 . S
C1278 C1277 1.366 . S
C1278 C1282 1.385 . S
C1279 H1254 0.951 . S
C1279 C1277 1.388 . S
C1279 C1280 1.366 . S
C1280 C1279 1.366 . S
C1280 C1281 1.414 . S
C1280 C1283 1.499 1_556 S
C1281 H1255 0.950 . S
C1281 C1280 1.414 . S
C1281 C1282 1.374 . S
C1282 H1256 0.950 . S
C1282 C1278 1.385 . S
C1282 C1281 1.374 . S
C1283 C1280 1.499 1_554 S
C1283 C1284 1.373 . S
C1283 C1285 1.389 . S
C1284 H1257 0.950 . S
C1284 C1270 1.377 . S
C1284 C1283 1.373 . S
C1285 C1269 1.377 . S
C1285 C1283 1.389 . S
C1285 C1286 1.524 . S
C1286 C1285 1.524 . S
C1286 C1287 1.397 1_554 S
C1286 C1291 1.363 . S
C1287 H1258 0.950 . S
C1287 C1286 1.397 1_556 S
C1287 C1288 1.334 . S
C1288 H1259 0.950 . S
C1288 C1287 1.334 . S
C1288 C1289 1.287 . S
C1289 C1288 1.287 . S
C1289 C1290 1.529 . S
C1289 H1292 0.999 . S
C1290 H1260 0.948 1_556 S
C1290 C1289 1.529 . S
C1290 C1291 1.411 1_556 S
C1291 H1261 0.950 . S
C1291 C1286 1.363 . S
C1291 C1290 1.411 1_554 S
H1292 C1289 0.999 . S
H1293 C1274 0.913 . S
H1294 C1312 0.951 . S
H1295 C1314 0.951 . S
H1296 C1316 0.950 . S
H1297 C1317 0.950 . S
H1298 C1319 0.950 . S
H1299 C1322 0.950 . S
H1300 C1323 0.950 . S
H1301 C1325 0.950 . S
H1302 C1326 0.950 . S
H1303 C1327 0.951 . S
H1304 C1329 0.951 . S
H1305 C1331 0.950 . S
H1306 C1332 0.950 . S
H1307 C1334 0.950 . S
H1308 C1337 0.950 . S
H1309 C1338 0.950 . S
H1310 C1340 0.950 . S
H1311 C1341 0.950 . S
C1312 H1294 0.951 . S
C1312 C1313 1.366 . S
C1312 C1314 1.388 . S
C1313 C1312 1.366 . S
C1313 C1317 1.385 . S
C1314 H1295 0.951 . S
C1314 C1312 1.388 . S
C1314 C1315 1.366 . S
C1315 C1314 1.366 . S
C1315 C1316 1.414 . S
C1315 C1318 1.499 . S
C1316 H1296 0.950 . S
C1316 C1315 1.414 . S
C1316 C1317 1.374 . S
C1317 H1297 0.950 . S
C1317 C1313 1.385 . S
C1317 C1316 1.374 . S
C1318 C1315 1.499 . S
C1318 C1319 1.373 . S
C1318 C1320 1.389 . S
C1319 H1298 0.950 . S
C1319 C1318 1.373 . S
C1319 C1335 1.377 . S
C1320 C1318 1.389 . S
C1320 C1321 1.524 . S
C1320 C1334 1.377 . S
C1321 C1320 1.524 . S
C1321 C1322 1.397 . S
C1321 C1326 1.363 . S
C1322 H1299 0.950 . S
C1322 C1321 1.397 . S
C1322 C1323 1.334 . S
C1323 H1300 0.950 . S
C1323 C1322 1.334 . S
C1323 C1324 1.287 . S
C1324 C1323 1.287 . S
C1324 C1325 1.524 . S
C1324 H1343 0.913 . S
C1325 H1301 0.950 . S
C1325 C1324 1.524 . S
C1325 C1326 1.415 . S
C1326 H1302 0.950 . S
C1326 C1321 1.363 . S
C1326 C1325 1.415 . S
C1327 H1303 0.951 . S
C1327 C1328 1.366 . S
C1327 C1329 1.388 . S
C1328 C1327 1.366 . S
C1328 C1332 1.385 . S
C1329 H1304 0.951 . S
C1329 C1327 1.388 . S
C1329 C1330 1.366 . S
C1330 C1329 1.366 . S
C1330 C1331 1.414 . S
C1330 C1333 1.499 . S
C1331 H1305 0.950 . S
C1331 C1330 1.414 . S
C1331 C1332 1.374 . S
C1332 H1306 0.950 . S
C1332 C1328 1.385 . S
C1332 C1331 1.374 . S
C1333 C1330 1.499 . S
C1333 C1334 1.373 . S
C1333 C1335 1.389 . S
C1334 H1307 0.950 . S
C1334 C1320 1.377 . S
C1334 C1333 1.373 . S
C1335 C1319 1.377 . S
C1335 C1333 1.389 . S
C1335 C1336 1.524 . S
C1336 C1335 1.524 . S
C1336 C1337 1.397 . S
C1336 C1341 1.363 . S
C1337 H1308 0.950 . S
C1337 C1336 1.397 . S
C1337 C1338 1.334 . S
C1338 H1309 0.950 . S
C1338 C1337 1.334 . S
C1338 C1339 1.287 . S
C1339 C1338 1.287 . S
C1339 C1340 1.524 . S
C1339 H1342 0.999 . S
C1340 H1310 0.950 . S
C1340 C1339 1.524 . S
C1340 C1341 1.415 . S
C1341 H1311 0.950 . S
C1341 C1336 1.363 . S
C1341 C1340 1.415 . S
H1342 C1339 0.999 . S
H1343 C1324 0.913 . S
H1344 C1362 0.951 . S
H1345 C1364 0.951 . S
H1346 C1366 0.950 . S
H1347 C1367 0.950 . S
H1348 C1369 0.950 . S
H1349 C1372 0.950 . S
H1350 C1373 0.950 . S
H1351 C1375 0.950 . S
H1352 C1376 0.950 . S
H1353 C1377 0.951 . S
H1354 C1379 0.951 . S
H1355 C1381 0.950 . S
H1356 C1382 0.950 . S
H1357 C1384 0.950 . S
H1358 C1387 0.950 . S
H1359 C1388 0.950 . S
H1360 C1390 0.950 . S
H1361 C1391 0.950 . S
C1362 H1344 0.951 . S
C1362 C1363 1.366 . S
C1362 C1364 1.388 . S
C1363 C1362 1.366 . S
C1363 C1367 1.385 . S
C1364 H1345 0.951 . S
C1364 C1362 1.388 . S
C1364 C1365 1.366 . S
C1365 C1364 1.366 . S
C1365 C1366 1.414 . S
C1365 C1368 1.499 . S
C1366 H1346 0.950 . S
C1366 C1365 1.414 . S
C1366 C1367 1.374 . S
C1367 H1347 0.950 . S
C1367 C1363 1.385 . S
C1367 C1366 1.374 . S
C1368 C1365 1.499 . S
C1368 C1369 1.373 . S
C1368 C1370 1.389 . S
C1369 H1348 0.950 . S
C1369 C1368 1.373 . S
C1369 C1385 1.377 . S
C1370 C1368 1.389 . S
C1370 C1371 1.524 . S
C1370 C1384 1.377 . S
C1371 C1370 1.524 . S
C1371 C1372 1.397 . S
C1371 C1376 1.363 . S
C1372 H1349 0.950 . S
C1372 C1371 1.397 . S
C1372 C1373 1.334 . S
C1373 H1350 0.950 . S
C1373 C1372 1.334 . S
C1373 C1374 1.287 . S
C1374 C1373 1.287 . S
C1374 C1375 1.524 . S
C1374 H1393 0.913 . S
C1375 H1351 0.950 . S
C1375 C1374 1.524 . S
C1375 C1376 1.415 . S
C1376 H1352 0.950 . S
C1376 C1371 1.363 . S
C1376 C1375 1.415 . S
C1377 H1353 0.951 . S
C1377 C1378 1.366 . S
C1377 C1379 1.388 . S
C1378 C1377 1.366 . S
C1378 C1382 1.385 . S
C1379 H1354 0.951 . S
C1379 C1377 1.388 . S
C1379 C1380 1.366 . S
C1380 C1379 1.366 . S
C1380 C1381 1.414 . S
C1380 C1383 1.499 . S
C1381 H1355 0.950 . S
C1381 C1380 1.414 . S
C1381 C1382 1.374 . S
C1382 H1356 0.950 . S
C1382 C1378 1.385 . S
C1382 C1381 1.374 . S
C1383 C1380 1.499 . S
C1383 C1384 1.373 . S
C1383 C1385 1.389 . S
C1384 H1357 0.950 . S
C1384 C1370 1.377 . S
C1384 C1383 1.373 . S
C1385 C1369 1.377 . S
C1385 C1383 1.389 . S
C1385 C1386 1.524 . S
C1386 C1385 1.524 . S
C1386 C1387 1.397 . S
C1386 C1391 1.363 . S
C1387 H1358 0.950 . S
C1387 C1386 1.397 . S
C1387 C1388 1.334 . S
C1388 H1359 0.950 . S
C1388 C1387 1.334 . S
C1388 C1389 1.287 . S
C1389 C1388 1.287 . S
C1389 C1390 1.524 . S
C1389 H1392 0.999 . S
C1390 H1360 0.950 . S
C1390 C1389 1.524 . S
C1390 C1391 1.415 . S
C1391 H1361 0.950 . S
C1391 C1386 1.363 . S
C1391 C1390 1.415 . S
H1392 C1389 0.999 . S
H1393 C1374 0.913 . S
H1394 C1412 0.951 . S
H1395 C1414 0.951 . S
H1396 C1416 0.950 . S
H1397 C1417 0.950 . S
H1398 C1419 0.950 . S
H1399 C1422 0.950 . S
H1400 C1423 0.950 . S
H1401 C1425 0.950 . S
H1402 C1426 0.950 . S
H1403 C1427 0.951 . S
H1404 C1429 0.951 . S
H1405 C1431 0.950 . S
H1406 C1432 0.950 . S
H1407 C1434 0.950 . S
H1408 C1437 0.950 . S
H1409 C1438 0.950 . S
H1410 C1440 0.950 . S
H1411 C1441 0.950 . S
C1412 H1394 0.951 . S
C1412 C1413 1.366 . S
C1412 C1414 1.388 . S
C1413 C1412 1.366 . S
C1413 C1417 1.385 . S
C1414 H1395 0.951 . S
C1414 C1412 1.388 . S
C1414 C1415 1.366 . S
C1415 C1414 1.366 . S
C1415 C1416 1.414 . S
C1415 C1418 1.499 . S
C1416 H1396 0.950 . S
C1416 C1415 1.414 . S
C1416 C1417 1.374 . S
C1417 H1397 0.950 . S
C1417 C1413 1.385 . S
C1417 C1416 1.374 . S
C1418 C1415 1.499 . S
C1418 C1419 1.373 . S
C1418 C1420 1.389 . S
C1419 H1398 0.950 . S
C1419 C1418 1.373 . S
C1419 C1435 1.377 . S
C1420 C1418 1.389 . S
C1420 C1421 1.524 . S
C1420 C1434 1.377 . S
C1421 C1420 1.524 . S
C1421 C1422 1.397 . S
C1421 C1426 1.363 . S
C1422 H1399 0.950 . S
C1422 C1421 1.397 . S
C1422 C1423 1.334 . S
C1423 H1400 0.950 . S
C1423 C1422 1.334 . S
C1423 C1424 1.287 . S
C1424 C1423 1.287 . S
C1424 C1425 1.524 . S
C1424 H1443 0.913 . S
C1425 H1401 0.950 . S
C1425 C1424 1.524 . S
C1425 C1426 1.415 . S
C1426 H1402 0.950 . S
C1426 C1421 1.363 . S
C1426 C1425 1.415 . S
C1427 H1403 0.951 . S
C1427 C1428 1.366 . S
C1427 C1429 1.388 . S
C1428 C1427 1.366 . S
C1428 C1432 1.385 . S
C1429 H1404 0.951 . S
C1429 C1427 1.388 . S
C1429 C1430 1.366 . S
C1430 C1429 1.366 . S
C1430 C1431 1.414 . S
C1430 C1433 1.499 . S
C1431 H1405 0.950 . S
C1431 C1430 1.414 . S
C1431 C1432 1.374 . S
C1432 H1406 0.950 . S
C1432 C1428 1.385 . S
C1432 C1431 1.374 . S
C1433 C1430 1.499 . S
C1433 C1434 1.373 . S
C1433 C1435 1.389 . S
C1434 H1407 0.950 . S
C1434 C1420 1.377 . S
C1434 C1433 1.373 . S
C1435 C1419 1.377 . S
C1435 C1433 1.389 . S
C1435 C1436 1.524 . S
C1436 C1435 1.524 . S
C1436 C1437 1.397 . S
C1436 C1441 1.363 . S
C1437 H1408 0.950 . S
C1437 C1436 1.397 . S
C1437 C1438 1.334 . S
C1438 H1409 0.950 . S
C1438 C1437 1.334 . S
C1438 C1439 1.287 . S
C1439 C1438 1.287 . S
C1439 C1440 1.524 . S
C1439 H1442 0.999 . S
C1440 H1410 0.950 . S
C1440 C1439 1.524 . S
C1440 C1441 1.415 . S
C1441 H1411 0.950 . S
C1441 C1436 1.363 . S
C1441 C1440 1.415 . S
H1442 C1439 0.999 . S
H1443 C1424 0.913 . S
H1444 C1462 0.951 . S
H1445 C1464 0.951 . S
H1446 C1466 0.950 . S
H1447 C1467 0.950 . S
H1448 C1469 0.950 . S
H1449 C1472 0.950 . S
H1450 C1473 0.950 . S
H1451 C1475 0.950 . S
H1452 C1476 0.950 . S
H1453 C1477 0.951 . S
H1454 C1479 0.951 . S
H1455 C1481 0.950 . S
H1456 C1482 0.950 . S
H1457 C1484 0.950 . S
H1458 C1487 0.950 . S
H1459 C1488 0.950 . S
H1460 C1490 0.950 . S
H1461 C1491 0.950 . S
C1462 H1444 0.951 . S
C1462 C1463 1.366 . S
C1462 C1464 1.388 . S
C1463 C1462 1.366 . S
C1463 C1467 1.385 . S
C1464 H1445 0.951 . S
C1464 C1462 1.388 . S
C1464 C1465 1.366 . S
C1465 C1464 1.366 . S
C1465 C1466 1.414 . S
C1465 C1468 1.499 . S
C1466 H1446 0.950 . S
C1466 C1465 1.414 . S
C1466 C1467 1.374 . S
C1467 H1447 0.950 . S
C1467 C1463 1.385 . S
C1467 C1466 1.374 . S
C1468 C1465 1.499 . S
C1468 C1469 1.373 . S
C1468 C1470 1.389 . S
C1469 H1448 0.950 . S
C1469 C1468 1.373 . S
C1469 C1485 1.377 . S
C1470 C1468 1.389 . S
C1470 C1471 1.524 . S
C1470 C1484 1.377 . S
C1471 C1470 1.524 . S
C1471 C1472 1.397 . S
C1471 C1476 1.363 . S
C1472 H1449 0.950 . S
C1472 C1471 1.397 . S
C1472 C1473 1.334 . S
C1473 H1450 0.950 . S
C1473 C1472 1.334 . S
C1473 C1474 1.287 . S
C1474 C1473 1.287 . S
C1474 C1475 1.524 . S
C1474 H1493 0.913 . S
C1475 H1451 0.950 . S
C1475 C1474 1.524 . S
C1475 C1476 1.415 . S
C1476 H1452 0.950 . S
C1476 C1471 1.363 . S
C1476 C1475 1.415 . S
C1477 H1453 0.951 . S
C1477 C1478 1.366 . S
C1477 C1479 1.388 . S
C1478 C1477 1.366 . S
C1478 C1482 1.385 . S
C1479 H1454 0.951 . S
C1479 C1477 1.388 . S
C1479 C1480 1.366 . S
C1480 C1479 1.366 . S
C1480 C1481 1.414 . S
C1480 C1483 1.499 . S
C1481 H1455 0.950 . S
C1481 C1480 1.414 . S
C1481 C1482 1.374 . S
C1482 H1456 0.950 . S
C1482 C1478 1.385 . S
C1482 C1481 1.374 . S
C1483 C1480 1.499 . S
C1483 C1484 1.373 . S
C1483 C1485 1.389 . S
C1484 H1457 0.950 . S
C1484 C1470 1.377 . S
C1484 C1483 1.373 . S
C1485 C1469 1.377 . S
C1485 C1483 1.389 . S
C1485 C1486 1.524 . S
C1486 C1485 1.524 . S
C1486 C1487 1.397 . S
C1486 C1491 1.363 . S
C1487 H1458 0.950 . S
C1487 C1486 1.397 . S
C1487 C1488 1.334 . S
C1488 H1459 0.950 . S
C1488 C1487 1.334 . S
C1488 C1489 1.287 . S
C1489 C1488 1.287 . S
C1489 C1490 1.524 . S
C1489 H1492 0.999 . S
C1490 H1460 0.950 . S
C1490 C1489 1.524 . S
C1490 C1491 1.415 . S
C1491 H1461 0.950 . S
C1491 C1486 1.363 . S
C1491 C1490 1.415 . S
H1492 C1489 0.999 . S
H1493 C1474 0.913 . S
H1494 C1512 0.951 . S
H1495 C1514 0.951 . S
H1496 C1516 0.950 . S
H1497 C1517 0.950 . S
H1498 C1519 0.950 . S
H1499 C1522 0.950 . S
H1500 C1523 0.950 . S
H1501 C1525 0.950 . S
H1502 C1526 0.950 . S
H1503 C1527 0.951 . S
H1504 C1529 0.951 . S
H1505 C1531 0.950 . S
H1506 C1532 0.950 . S
H1507 C1534 0.950 . S
H1508 C1537 0.950 . S
H1509 C1538 0.950 . S
H1510 C1540 0.950 . S
H1511 C1541 0.950 . S
C1512 H1494 0.951 . S
C1512 C1513 1.366 . S
C1512 C1514 1.388 . S
C1513 C1512 1.366 . S
C1513 C1517 1.385 . S
C1514 H1495 0.951 . S
C1514 C1512 1.388 . S
C1514 C1515 1.366 . S
C1515 C1514 1.366 . S
C1515 C1516 1.414 . S
C1515 C1518 1.499 . S
C1516 H1496 0.950 . S
C1516 C1515 1.414 . S
C1516 C1517 1.374 . S
C1517 H1497 0.950 . S
C1517 C1513 1.385 . S
C1517 C1516 1.374 . S
C1518 C1515 1.499 . S
C1518 C1519 1.373 . S
C1518 C1520 1.389 . S
C1519 H1498 0.950 . S
C1519 C1518 1.373 . S
C1519 C1535 1.377 . S
C1520 C1518 1.389 . S
C1520 C1521 1.524 . S
C1520 C1534 1.377 . S
C1521 C1520 1.524 . S
C1521 C1522 1.397 . S
C1521 C1526 1.363 . S
C1522 H1499 0.950 . S
C1522 C1521 1.397 . S
C1522 C1523 1.334 . S
C1523 H1500 0.950 . S
C1523 C1522 1.334 . S
C1523 C1524 1.287 . S
C1524 C1523 1.287 . S
C1524 C1525 1.524 . S
C1524 H1543 0.913 . S
C1525 H1501 0.950 . S
C1525 C1524 1.524 . S
C1525 C1526 1.415 . S
C1526 H1502 0.950 . S
C1526 C1521 1.363 . S
C1526 C1525 1.415 . S
C1527 H1503 0.951 . S
C1527 C1528 1.366 . S
C1527 C1529 1.388 . S
C1528 C1527 1.366 . S
C1528 C1532 1.385 . S
C1529 H1504 0.951 . S
C1529 C1527 1.388 . S
C1529 C1530 1.366 . S
C1530 C1529 1.366 . S
C1530 C1531 1.414 . S
C1530 C1533 1.499 . S
C1531 H1505 0.950 . S
C1531 C1530 1.414 . S
C1531 C1532 1.374 . S
C1532 H1506 0.950 . S
C1532 C1528 1.385 . S
C1532 C1531 1.374 . S
C1533 C1530 1.499 . S
C1533 C1534 1.373 . S
C1533 C1535 1.389 . S
C1534 H1507 0.950 . S
C1534 C1520 1.377 . S
C1534 C1533 1.373 . S
C1535 C1519 1.377 . S
C1535 C1533 1.389 . S
C1535 C1536 1.524 . S
C1536 C1535 1.524 . S
C1536 C1537 1.397 . S
C1536 C1541 1.363 . S
C1537 H1508 0.950 . S
C1537 C1536 1.397 . S
C1537 C1538 1.334 . S
C1538 H1509 0.950 . S
C1538 C1537 1.334 . S
C1538 C1539 1.287 . S
C1539 C1538 1.287 . S
C1539 C1540 1.524 . S
C1539 H1542 0.999 . S
C1540 H1510 0.950 . S
C1540 C1539 1.524 . S
C1540 C1541 1.415 . S
C1541 H1511 0.950 . S
C1541 C1536 1.363 . S
C1541 C1540 1.415 . S
H1542 C1539 0.999 . S
H1543 C1524 0.913 . S
H1544 C1562 0.951 . S
H1545 C1564 0.951 . S
H1546 C1566 0.950 . S
H1547 C1567 0.950 . S
H1548 C1569 0.950 . S
H1549 C1572 0.950 . S
H1550 C1573 0.950 . S
H1551 C1575 0.950 . S
H1552 C1576 0.950 . S
H1553 C1577 0.951 . S
H1554 C1579 0.951 . S
H1555 C1581 0.950 . S
H1556 C1582 0.950 . S
H1557 C1584 0.950 . S
H1558 C1587 0.950 . S
H1559 C1588 0.950 . S
H1560 C1590 0.950 . S
H1561 C1591 0.950 . S
C1562 H1544 0.951 . S
C1562 C1563 1.366 . S
C1562 C1564 1.388 . S
C1563 C1562 1.366 . S
C1563 C1567 1.385 . S
C1564 H1545 0.951 . S
C1564 C1562 1.388 . S
C1564 C1565 1.366 . S
C1565 C1564 1.366 . S
C1565 C1566 1.414 . S
C1565 C1568 1.499 . S
C1566 H1546 0.950 . S
C1566 C1565 1.414 . S
C1566 C1567 1.374 . S
C1567 H1547 0.950 . S
C1567 C1563 1.385 . S
C1567 C1566 1.374 . S
C1568 C1565 1.499 . S
C1568 C1569 1.373 . S
C1568 C1570 1.389 . S
C1569 H1548 0.950 . S
C1569 C1568 1.373 . S
C1569 C1585 1.377 . S
C1570 C1568 1.389 . S
C1570 C1571 1.524 . S
C1570 C1584 1.377 . S
C1571 C1570 1.524 . S
C1571 C1572 1.397 . S
C1571 C1576 1.363 . S
C1572 H1549 0.950 . S
C1572 C1571 1.397 . S
C1572 C1573 1.334 . S
C1573 H1550 0.950 . S
C1573 C1572 1.334 . S
C1573 C1574 1.287 . S
C1574 C1573 1.287 . S
C1574 C1575 1.524 . S
C1574 H1593 0.913 . S
C1575 H1551 0.950 . S
C1575 C1574 1.524 . S
C1575 C1576 1.415 . S
C1576 H1552 0.950 . S
C1576 C1571 1.363 . S
C1576 C1575 1.415 . S
C1577 H1553 0.951 . S
C1577 C1578 1.366 . S
C1577 C1579 1.388 . S
C1578 C1577 1.366 . S
C1578 C1582 1.385 . S
C1579 H1554 0.951 . S
C1579 C1577 1.388 . S
C1579 C1580 1.366 . S
C1580 C1579 1.366 . S
C1580 C1581 1.414 . S
C1580 C1583 1.499 . S
C1581 H1555 0.950 . S
C1581 C1580 1.414 . S
C1581 C1582 1.374 . S
C1582 H1556 0.950 . S
C1582 C1578 1.385 . S
C1582 C1581 1.374 . S
C1583 C1580 1.499 . S
C1583 C1584 1.373 . S
C1583 C1585 1.389 . S
C1584 H1557 0.950 . S
C1584 C1570 1.377 . S
C1584 C1583 1.373 . S
C1585 C1569 1.377 . S
C1585 C1583 1.389 . S
C1585 C1586 1.524 . S
C1586 C1585 1.524 . S
C1586 C1587 1.397 . S
C1586 C1591 1.363 . S
C1587 H1558 0.950 . S
C1587 C1586 1.397 . S
C1587 C1588 1.334 . S
C1588 H1559 0.950 . S
C1588 C1587 1.334 . S
C1588 C1589 1.287 . S
C1589 C1588 1.287 . S
C1589 C1590 1.524 . S
C1589 H1592 0.999 . S
C1590 H1560 0.950 . S
C1590 C1589 1.524 . S
C1590 C1591 1.415 . S
C1591 H1561 0.950 . S
C1591 C1586 1.363 . S
C1591 C1590 1.415 . S
H1592 C1589 0.999 . S
H1593 C1574 0.913 . S
H1594 C1612 0.951 . S
H1595 C1614 0.951 . S
H1596 C1616 0.950 . S
H1597 C1617 0.950 . S
H1598 C1619 0.950 . S
H1599 C1622 0.950 . S
H1600 C1623 0.950 . S
H1601 C1625 0.950 . S
H1602 C1626 0.950 . S
H1603 C1627 0.951 . S
H1604 C1629 0.951 . S
H1605 C1631 0.950 . S
H1606 C1632 0.950 . S
H1607 C1634 0.950 . S
H1608 C1637 0.950 . S
H1609 C1638 0.950 . S
H1610 C1640 0.950 . S
H1611 C1641 0.950 . S
C1612 H1594 0.951 . S
C1612 C1613 1.366 . S
C1612 C1614 1.388 . S
C1613 C1612 1.366 . S
C1613 C1617 1.385 . S
C1614 H1595 0.951 . S
C1614 C1612 1.388 . S
C1614 C1615 1.366 . S
C1615 C1614 1.366 . S
C1615 C1616 1.414 . S
C1615 C1618 1.499 . S
C1616 H1596 0.950 . S
C1616 C1615 1.414 . S
C1616 C1617 1.374 . S
C1617 H1597 0.950 . S
C1617 C1613 1.385 . S
C1617 C1616 1.374 . S
C1618 C1615 1.499 . S
C1618 C1619 1.373 . S
C1618 C1620 1.389 . S
C1619 H1598 0.950 . S
C1619 C1618 1.373 . S
C1619 C1635 1.377 . S
C1620 C1618 1.389 . S
C1620 C1621 1.524 . S
C1620 C1634 1.377 . S
C1621 C1620 1.524 . S
C1621 C1622 1.397 . S
C1621 C1626 1.363 . S
C1622 H1599 0.950 . S
C1622 C1621 1.397 . S
C1622 C1623 1.334 . S
C1623 H1600 0.950 . S
C1623 C1622 1.334 . S
C1623 C1624 1.287 . S
C1624 C1623 1.287 . S
C1624 C1625 1.524 . S
C1624 H1643 0.913 . S
C1625 H1601 0.950 . S
C1625 C1624 1.524 . S
C1625 C1626 1.415 . S
C1626 H1602 0.950 . S
C1626 C1621 1.363 . S
C1626 C1625 1.415 . S
C1627 H1603 0.951 . S
C1627 C1628 1.366 . S
C1627 C1629 1.388 . S
C1628 C1627 1.366 . S
C1628 C1632 1.385 . S
C1629 H1604 0.951 . S
C1629 C1627 1.388 . S
C1629 C1630 1.366 . S
C1630 C1629 1.366 . S
C1630 C1631 1.414 . S
C1630 C1633 1.499 . S
C1631 H1605 0.950 . S
C1631 C1630 1.414 . S
C1631 C1632 1.374 . S
C1632 H1606 0.950 . S
C1632 C1628 1.385 . S
C1632 C1631 1.374 . S
C1633 C1630 1.499 . S
C1633 C1634 1.373 . S
C1633 C1635 1.389 . S
C1634 H1607 0.950 . S
C1634 C1620 1.377 . S
C1634 C1633 1.373 . S
C1635 C1619 1.377 . S
C1635 C1633 1.389 . S
C1635 C1636 1.524 . S
C1636 C1635 1.524 . S
C1636 C1637 1.397 . S
C1636 C1641 1.363 . S
C1637 H1608 0.950 . S
C1637 C1636 1.397 . S
C1637 C1638 1.334 . S
C1638 H1609 0.950 . S
C1638 C1637 1.334 . S
C1638 C1639 1.287 . S
C1639 C1638 1.287 . S
C1639 C1640 1.524 . S
C1639 H1642 0.999 . S
C1640 H1610 0.950 . S
C1640 C1639 1.524 . S
C1640 C1641 1.415 . S
C1641 H1611 0.950 . S
C1641 C1636 1.363 . S
C1641 C1640 1.415 . S
H1642 C1639 0.999 . S
H1643 C1624 0.913 . S
H1644 C1662 0.951 . S
H1645 C1664 0.951 . S
H1646 C1666 0.950 . S
H1647 C1667 0.950 . S
H1648 C1669 0.950 . S
H1649 C1672 0.950 . S
H1650 C1673 0.950 . S
H1651 C1675 0.950 . S
H1652 C1676 0.950 . S
H1653 C1677 0.951 . S
H1654 C1679 0.951 . S
H1655 C1681 0.950 . S
H1656 C1682 0.950 . S
H1657 C1684 0.950 . S
H1658 C1687 0.950 . S
H1659 C1688 0.950 . S
H1660 C1690 0.950 . S
H1661 C1691 0.950 . S
C1662 H1644 0.951 . S
C1662 C1663 1.366 . S
C1662 C1664 1.388 . S
C1663 C1662 1.366 . S
C1663 C1667 1.385 . S
C1664 H1645 0.951 . S
C1664 C1662 1.388 . S
C1664 C1665 1.366 . S
C1665 C1664 1.366 . S
C1665 C1666 1.414 . S
C1665 C1668 1.499 . S
C1666 H1646 0.950 . S
C1666 C1665 1.414 . S
C1666 C1667 1.374 . S
C1667 H1647 0.950 . S
C1667 C1663 1.385 . S
C1667 C1666 1.374 . S
C1668 C1665 1.499 . S
C1668 C1669 1.373 . S
C1668 C1670 1.389 . S
C1669 H1648 0.950 . S
C1669 C1668 1.373 . S
C1669 C1685 1.377 . S
C1670 C1668 1.389 . S
C1670 C1671 1.524 . S
C1670 C1684 1.377 . S
C1671 C1670 1.524 . S
C1671 C1672 1.397 . S
C1671 C1676 1.363 . S
C1672 H1649 0.950 . S
C1672 C1671 1.397 . S
C1672 C1673 1.334 . S
C1673 H1650 0.950 . S
C1673 C1672 1.334 . S
C1673 C1674 1.287 . S
C1674 C1673 1.287 . S
C1674 C1675 1.524 . S
C1674 H1693 0.913 . S
C1675 H1651 0.950 . S
C1675 C1674 1.524 . S
C1675 C1676 1.415 . S
C1676 H1652 0.950 . S
C1676 C1671 1.363 . S
C1676 C1675 1.415 . S
C1677 H1653 0.951 . S
C1677 C1678 1.366 . S
C1677 C1679 1.388 . S
C1678 C1677 1.366 . S
C1678 C1682 1.385 . S
C1679 H1654 0.951 . S
C1679 C1677 1.388 . S
C1679 C1680 1.366 . S
C1680 C1679 1.366 . S
C1680 C1681 1.414 . S
C1680 C1683 1.499 . S
C1681 H1655 0.950 . S
C1681 C1680 1.414 . S
C1681 C1682 1.374 . S
C1682 H1656 0.950 . S
C1682 C1678 1.385 . S
C1682 C1681 1.374 . S
C1683 C1680 1.499 . S
C1683 C1684 1.373 . S
C1683 C1685 1.389 . S
C1684 H1657 0.950 . S
C1684 C1670 1.377 . S
C1684 C1683 1.373 . S
C1685 C1669 1.377 . S
C1685 C1683 1.389 . S
C1685 C1686 1.524 . S
C1686 C1685 1.524 . S
C1686 C1687 1.397 . S
C1686 C1691 1.363 . S
C1687 H1658 0.950 . S
C1687 C1686 1.397 . S
C1687 C1688 1.334 . S
C1688 H1659 0.950 . S
C1688 C1687 1.334 . S
C1688 C1689 1.287 . S
C1689 C1688 1.287 . S
C1689 C1690 1.524 . S
C1689 H1692 0.999 . S
C1690 H1660 0.950 . S
C1690 C1689 1.524 . S
C1690 C1691 1.415 . S
C1691 H1661 0.950 . S
C1691 C1686 1.363 . S
C1691 C1690 1.415 . S
H1692 C1689 0.999 . S
H1693 C1674 0.913 . S
H1694 C1712 0.951 . S
H1695 C1714 0.951 . S
H1696 C1716 0.950 . S
H1697 C1717 0.950 . S
H1698 C1719 0.950 . S
H1699 C1722 0.950 . S
H1700 C1723 0.950 . S
H1701 C1725 0.950 . S
H1702 C1726 0.950 . S
H1703 C1727 0.951 . S
H1704 C1729 0.951 . S
H1705 C1731 0.950 . S
H1706 C1732 0.950 . S
H1707 C1734 0.950 . S
H1708 C1737 0.950 . S
H1709 C1738 0.950 . S
H1710 C1740 0.950 . S
H1711 C1741 0.950 . S
C1712 H1694 0.951 . S
C1712 C1713 1.366 . S
C1712 C1714 1.388 . S
C1713 C1712 1.366 . S
C1713 C1717 1.385 . S
C1714 H1695 0.951 . S
C1714 C1712 1.388 . S
C1714 C1715 1.366 . S
C1715 C1714 1.366 . S
C1715 C1716 1.414 . S
C1715 C1718 1.499 . S
C1716 H1696 0.950 . S
C1716 C1715 1.414 . S
C1716 C1717 1.374 . S
C1717 H1697 0.950 . S
C1717 C1713 1.385 . S
C1717 C1716 1.374 . S
C1718 C1715 1.499 . S
C1718 C1719 1.373 . S
C1718 C1720 1.389 . S
C1719 H1698 0.950 . S
C1719 C1718 1.373 . S
C1719 C1735 1.377 . S
C1720 C1718 1.389 . S
C1720 C1721 1.524 . S
C1720 C1734 1.377 . S
C1721 C1720 1.524 . S
C1721 C1722 1.397 . S
C1721 C1726 1.363 . S
C1722 H1699 0.950 . S
C1722 C1721 1.397 . S
C1722 C1723 1.334 . S
C1723 H1700 0.950 . S
C1723 C1722 1.334 . S
C1723 C1724 1.287 . S
C1724 C1723 1.287 . S
C1724 C1725 1.524 . S
C1724 H1743 0.913 . S
C1725 H1701 0.950 . S
C1725 C1724 1.524 . S
C1725 C1726 1.415 . S
C1726 H1702 0.950 . S
C1726 C1721 1.363 . S
C1726 C1725 1.415 . S
C1727 H1703 0.951 . S
C1727 C1728 1.366 . S
C1727 C1729 1.388 . S
C1728 C1727 1.366 . S
C1728 C1732 1.385 . S
C1729 H1704 0.951 . S
C1729 C1727 1.388 . S
C1729 C1730 1.366 . S
C1730 C1729 1.366 . S
C1730 C1731 1.414 . S
C1730 C1733 1.499 . S
C1731 H1705 0.950 . S
C1731 C1730 1.414 . S
C1731 C1732 1.374 . S
C1732 H1706 0.950 . S
C1732 C1728 1.385 . S
C1732 C1731 1.374 . S
C1733 C1730 1.499 . S
C1733 C1734 1.373 . S
C1733 C1735 1.389 . S
C1734 H1707 0.950 . S
C1734 C1720 1.377 . S
C1734 C1733 1.373 . S
C1735 C1719 1.377 . S
C1735 C1733 1.389 . S
C1735 C1736 1.524 . S
C1736 C1735 1.524 . S
C1736 C1737 1.397 . S
C1736 C1741 1.363 . S
C1737 H1708 0.950 . S
C1737 C1736 1.397 . S
C1737 C1738 1.334 . S
C1738 H1709 0.950 . S
C1738 C1737 1.334 . S
C1738 C1739 1.287 . S
C1739 C1738 1.287 . S
C1739 C1740 1.524 . S
C1739 H1742 0.999 . S
C1740 H1710 0.950 . S
C1740 C1739 1.524 . S
C1740 C1741 1.415 . S
C1741 H1711 0.950 . S
C1741 C1736 1.363 . S
C1741 C1740 1.415 . S
H1742 C1739 0.999 . S
H1743 C1724 0.913 . S
H1744 C1762 0.951 . S
H1745 C1764 0.951 . S
H1746 C1766 0.950 . S
H1747 C1767 0.950 . S
H1748 C1769 0.950 . S
H1749 C1772 0.950 . S
H1750 C1773 0.950 . S
H1751 C1775 0.950 . S
H1752 C1776 0.950 . S
H1753 C1777 0.951 . S
H1754 C1779 0.951 . S
H1755 C1781 0.950 . S
H1756 C1782 0.950 . S
H1757 C1784 0.950 . S
H1758 C1787 0.950 . S
H1759 C1788 0.950 . S
H1760 C1790 0.950 . S
H1761 C1791 0.950 . S
C1762 H1744 0.951 . S
C1762 C1763 1.366 . S
C1762 C1764 1.388 . S
C1763 C1762 1.366 . S
C1763 C1767 1.385 . S
C1764 H1745 0.951 . S
C1764 C1762 1.388 . S
C1764 C1765 1.366 . S
C1765 C1764 1.366 . S
C1765 C1766 1.414 . S
C1765 C1768 1.499 . S
C1766 H1746 0.950 . S
C1766 C1765 1.414 . S
C1766 C1767 1.374 . S
C1767 H1747 0.950 . S
C1767 C1763 1.385 . S
C1767 C1766 1.374 . S
C1768 C1765 1.499 . S
C1768 C1769 1.373 . S
C1768 C1770 1.389 . S
C1769 H1748 0.950 . S
C1769 C1768 1.373 . S
C1769 C1785 1.377 . S
C1770 C1768 1.389 . S
C1770 C1771 1.524 . S
C1770 C1784 1.377 . S
C1771 C1770 1.524 . S
C1771 C1772 1.397 . S
C1771 C1776 1.363 . S
C1772 H1749 0.950 . S
C1772 C1771 1.397 . S
C1772 C1773 1.334 . S
C1773 H1750 0.950 . S
C1773 C1772 1.334 . S
C1773 C1774 1.287 . S
C1774 C1773 1.287 . S
C1774 C1775 1.524 . S
C1774 H1793 0.913 . S
C1775 H1751 0.950 . S
C1775 C1774 1.524 . S
C1775 C1776 1.415 . S
C1776 H1752 0.950 . S
C1776 C1771 1.363 . S
C1776 C1775 1.415 . S
C1777 H1753 0.951 . S
C1777 C1778 1.366 . S
C1777 C1779 1.388 . S
C1778 C1777 1.366 . S
C1778 C1782 1.385 . S
C1779 H1754 0.951 . S
C1779 C1777 1.388 . S
C1779 C1780 1.366 . S
C1780 C1779 1.366 . S
C1780 C1781 1.414 . S
C1780 C1783 1.499 . S
C1781 H1755 0.950 . S
C1781 C1780 1.414 . S
C1781 C1782 1.374 . S
C1782 H1756 0.950 . S
C1782 C1778 1.385 . S
C1782 C1781 1.374 . S
C1783 C1780 1.499 . S
C1783 C1784 1.373 . S
C1783 C1785 1.389 . S
C1784 H1757 0.950 . S
C1784 C1770 1.377 . S
C1784 C1783 1.373 . S
C1785 C1769 1.377 . S
C1785 C1783 1.389 . S
C1785 C1786 1.524 . S
C1786 C1785 1.524 . S
C1786 C1787 1.397 . S
C1786 C1791 1.363 . S
C1787 H1758 0.950 . S
C1787 C1786 1.397 . S
C1787 C1788 1.334 . S
C1788 H1759 0.950 . S
C1788 C1787 1.334 . S
C1788 C1789 1.287 . S
C1789 C1788 1.287 . S
C1789 C1790 1.524 . S
C1789 H1792 0.999 . S
C1790 H1760 0.950 . S
C1790 C1789 1.524 . S
C1790 C1791 1.415 . S
C1791 H1761 0.950 . S
C1791 C1786 1.363 . S
C1791 C1790 1.415 . S
H1792 C1789 0.999 . S
H1793 C1774 0.913 . S
H1794 C1812 0.951 . S
H1795 C1814 0.951 . S
H1796 C1816 0.950 . S
H1797 C1817 0.950 . S
H1798 C1819 0.950 . S
H1799 C1822 0.950 . S
H1800 C1823 0.950 . S
H1801 C1825 0.950 . S
H1802 C1826 0.950 . S
H1803 C1827 0.951 . S
H1804 C1829 0.951 . S
H1805 C1831 0.950 . S
H1806 C1832 0.950 . S
H1807 C1834 0.950 . S
H1808 C1837 0.950 . S
H1809 C1838 0.950 . S
H1810 C1840 0.950 . S
H1811 C1841 0.950 . S
C1812 H1794 0.951 . S
C1812 C1813 1.366 . S
C1812 C1814 1.388 . S
C1813 C1812 1.366 . S
C1813 C1817 1.385 . S
C1814 H1795 0.951 . S
C1814 C1812 1.388 . S
C1814 C1815 1.366 . S
C1815 C1814 1.366 . S
C1815 C1816 1.414 . S
C1815 C1818 1.499 . S
C1816 H1796 0.950 . S
C1816 C1815 1.414 . S
C1816 C1817 1.374 . S
C1817 H1797 0.950 . S
C1817 C1813 1.385 . S
C1817 C1816 1.374 . S
C1818 C1815 1.499 . S
C1818 C1819 1.373 . S
C1818 C1820 1.389 . S
C1819 H1798 0.950 . S
C1819 C1818 1.373 . S
C1819 C1835 1.377 . S
C1820 C1818 1.389 . S
C1820 C1821 1.524 . S
C1820 C1834 1.377 . S
C1821 C1820 1.524 . S
C1821 C1822 1.397 . S
C1821 C1826 1.363 . S
C1822 H1799 0.950 . S
C1822 C1821 1.397 . S
C1822 C1823 1.334 . S
C1823 H1800 0.950 . S
C1823 C1822 1.334 . S
C1823 C1824 1.287 . S
C1824 C1823 1.287 . S
C1824 C1825 1.524 . S
C1824 H1843 0.913 . S
C1825 H1801 0.950 . S
C1825 C1824 1.524 . S
C1825 C1826 1.415 . S
C1826 H1802 0.950 . S
C1826 C1821 1.363 . S
C1826 C1825 1.415 . S
C1827 H1803 0.951 . S
C1827 C1828 1.366 . S
C1827 C1829 1.388 . S
C1828 C1827 1.366 . S
C1828 C1832 1.385 . S
C1829 H1804 0.951 . S
C1829 C1827 1.388 . S
C1829 C1830 1.366 . S
C1830 C1829 1.366 . S
C1830 C1831 1.414 . S
C1830 C1833 1.499 . S
C1831 H1805 0.950 . S
C1831 C1830 1.414 . S
C1831 C1832 1.374 . S
C1832 H1806 0.950 . S
C1832 C1828 1.385 . S
C1832 C1831 1.374 . S
C1833 C1830 1.499 . S
C1833 C1834 1.373 . S
C1833 C1835 1.389 . S
C1834 H1807 0.950 . S
C1834 C1820 1.377 . S
C1834 C1833 1.373 . S
C1835 C1819 1.377 . S
C1835 C1833 1.389 . S
C1835 C1836 1.524 . S
C1836 C1835 1.524 . S
C1836 C1837 1.397 . S
C1836 C1841 1.363 . S
C1837 H1808 0.950 . S
C1837 C1836 1.397 . S
C1837 C1838 1.334 . S
C1838 H1809 0.950 . S
C1838 C1837 1.334 . S
C1838 C1839 1.287 . S
C1839 C1838 1.287 . S
C1839 C1840 1.524 . S
C1839 H1842 0.999 . S
C1840 H1810 0.950 . S
C1840 C1839 1.524 . S
C1840 C1841 1.415 . S
C1841 H1811 0.950 . S
C1841 C1836 1.363 . S
C1841 C1840 1.415 . S
H1842 C1839 0.999 . S
H1843 C1824 0.913 . S
H1844 C1862 0.951 . S
H1845 C1864 0.951 . S
H1846 C1866 0.950 . S
H1847 C1867 0.950 . S
H1848 C1869 0.950 . S
H1849 C1872 0.950 . S
H1850 C1873 0.950 . S
H1851 C1875 0.950 . S
H1852 C1876 0.950 . S
H1853 C1877 0.951 . S
H1854 C1879 0.951 . S
H1855 C1881 0.950 . S
H1856 C1882 0.950 . S
H1857 C1884 0.950 . S
H1858 C1887 0.950 . S
H1859 C1888 0.950 . S
H1860 C1890 0.950 . S
H1861 C1891 0.950 . S
C1862 H1844 0.951 . S
C1862 C1863 1.366 . S
C1862 C1864 1.388 . S
C1863 C1862 1.366 . S
C1863 C1867 1.385 . S
C1864 H1845 0.951 . S
C1864 C1862 1.388 . S
C1864 C1865 1.366 . S
C1865 C1864 1.366 . S
C1865 C1866 1.414 . S
C1865 C1868 1.499 . S
C1866 H1846 0.950 . S
C1866 C1865 1.414 . S
C1866 C1867 1.374 . S
C1867 H1847 0.950 . S
C1867 C1863 1.385 . S
C1867 C1866 1.374 . S
C1868 C1865 1.499 . S
C1868 C1869 1.373 . S
C1868 C1870 1.389 . S
C1869 H1848 0.950 . S
C1869 C1868 1.373 . S
C1869 C1885 1.377 . S
C1870 C1868 1.389 . S
C1870 C1871 1.524 . S
C1870 C1884 1.377 . S
C1871 C1870 1.524 . S
C1871 C1872 1.397 . S
C1871 C1876 1.363 . S
C1872 H1849 0.950 . S
C1872 C1871 1.397 . S
C1872 C1873 1.334 . S
C1873 H1850 0.950 . S
C1873 C1872 1.334 . S
C1873 C1874 1.287 . S
C1874 C1873 1.287 . S
C1874 C1875 1.524 . S
C1874 H1893 0.913 . S
C1875 H1851 0.950 . S
C1875 C1874 1.524 . S
C1875 C1876 1.415 . S
C1876 H1852 0.950 . S
C1876 C1871 1.363 . S
C1876 C1875 1.415 . S
C1877 H1853 0.951 . S
C1877 C1878 1.366 . S
C1877 C1879 1.388 . S
C1878 C1877 1.366 . S
C1878 C1882 1.385 . S
C1879 H1854 0.951 . S
C1879 C1877 1.388 . S
C1879 C1880 1.366 . S
C1880 C1879 1.366 . S
C1880 C1881 1.414 . S
C1880 C1883 1.499 . S
C1881 H1855 0.950 . S
C1881 C1880 1.414 . S
C1881 C1882 1.374 . S
C1882 H1856 0.950 . S
C1882 C1878 1.385 . S
C1882 C1881 1.374 . S
C1883 C1880 1.499 . S
C1883 C1884 1.373 . S
C1883 C1885 1.389 . S
C1884 H1857 0.950 . S
C1884 C1870 1.377 . S
C1884 C1883 1.373 . S
C1885 C1869 1.377 . S
C1885 C1883 1.389 . S
C1885 C1886 1.524 . S
C1886 C1885 1.524 . S
C1886 C1887 1.397 . S
C1886 C1891 1.363 . S
C1887 H1858 0.950 . S
C1887 C1886 1.397 . S
C1887 C1888 1.334 . S
C1888 H1859 0.950 . S
C1888 C1887 1.334 . S
C1888 C1889 1.287 . S
C1889 C1888 1.287 . S
C1889 C1890 1.524 . S
C1889 H1892 0.999 . S
C1890 H1860 0.950 . S
C1890 C1889 1.524 . S
C1890 C1891 1.415 . S
C1891 H1861 0.950 . S
C1891 C1886 1.363 . S
C1891 C1890 1.415 . S
H1892 C1889 0.999 . S
H1893 C1874 0.913 . S
H1894 C1912 0.951 . S
H1895 C1914 0.951 . S
H1896 C1916 0.950 . S
H1897 C1917 0.950 . S
H1898 C1919 0.950 . S
H1899 C1922 0.950 . S
H1900 C1923 0.950 . S
H1901 C1925 0.950 . S
H1902 C1926 0.950 . S
H1903 C1927 0.951 . S
H1904 C1929 0.951 . S
H1905 C1931 0.950 . S
H1906 C1932 0.950 . S
H1907 C1934 0.950 . S
H1908 C1937 0.950 . S
H1909 C1938 0.950 . S
H1910 C1940 0.950 . S
H1911 C1941 0.950 . S
C1912 H1894 0.951 . S
C1912 C1913 1.366 . S
C1912 C1914 1.388 . S
C1913 C1912 1.366 . S
C1913 C1917 1.385 . S
C1914 H1895 0.951 . S
C1914 C1912 1.388 . S
C1914 C1915 1.366 . S
C1915 C1914 1.366 . S
C1915 C1916 1.414 . S
C1915 C1918 1.499 . S
C1916 H1896 0.950 . S
C1916 C1915 1.414 . S
C1916 C1917 1.374 . S
C1917 H1897 0.950 . S
C1917 C1913 1.385 . S
C1917 C1916 1.374 . S
C1918 C1915 1.499 . S
C1918 C1919 1.373 . S
C1918 C1920 1.389 . S
C1919 H1898 0.950 . S
C1919 C1918 1.373 . S
C1919 C1935 1.377 . S
C1920 C1918 1.389 . S
C1920 C1921 1.524 . S
C1920 C1934 1.377 . S
C1921 C1920 1.524 . S
C1921 C1922 1.397 . S
C1921 C1926 1.363 . S
C1922 H1899 0.950 . S
C1922 C1921 1.397 . S
C1922 C1923 1.334 . S
C1923 H1900 0.950 . S
C1923 C1922 1.334 . S
C1923 C1924 1.287 . S
C1924 C1923 1.287 . S
C1924 C1925 1.524 . S
C1924 H1943 0.913 . S
C1925 H1901 0.950 . S
C1925 C1924 1.524 . S
C1925 C1926 1.415 . S
C1926 H1902 0.950 . S
C1926 C1921 1.363 . S
C1926 C1925 1.415 . S
C1927 H1903 0.951 . S
C1927 C1928 1.366 . S
C1927 C1929 1.388 . S
C1928 C1927 1.366 . S
C1928 C1932 1.385 . S
C1929 H1904 0.951 . S
C1929 C1927 1.388 . S
C1929 C1930 1.366 . S
C1930 C1929 1.366 . S
C1930 C1931 1.414 . S
C1930 C1933 1.499 . S
C1931 H1905 0.950 . S
C1931 C1930 1.414 . S
C1931 C1932 1.374 . S
C1932 H1906 0.950 . S
C1932 C1928 1.385 . S
C1932 C1931 1.374 . S
C1933 C1930 1.499 . S
C1933 C1934 1.373 . S
C1933 C1935 1.389 . S
C1934 H1907 0.950 . S
C1934 C1920 1.377 . S
C1934 C1933 1.373 . S
C1935 C1919 1.377 . S
C1935 C1933 1.389 . S
C1935 C1936 1.524 . S
C1936 C1935 1.524 . S
C1936 C1937 1.397 . S
C1936 C1941 1.363 . S
C1937 H1908 0.950 . S
C1937 C1936 1.397 . S
C1937 C1938 1.334 . S
C1938 H1909 0.950 . S
C1938 C1937 1.334 . S
C1938 C1939 1.287 . S
C1939 C1938 1.287 . S
C1939 C1940 1.524 . S
C1939 H1942 0.999 . S
C1940 H1910 0.950 . S
C1940 C1939 1.524 . S
C1940 C1941 1.415 . S
C1941 H1911 0.950 . S
C1941 C1936 1.363 . S
C1941 C1940 1.415 . S
H1942 C1939 0.999 . S
H1943 C1924 0.913 . S
H1944 C1962 0.951 . S
H1945 C1964 0.951 . S
H1946 C1966 0.950 . S
H1947 C1967 0.950 . S
H1948 C1969 0.950 . S
H1949 C1972 0.950 . S
H1950 C1973 0.950 . S
H1951 C1975 0.950 . S
H1952 C1976 0.950 . S
H1953 C1977 0.951 . S
H1954 C1979 0.951 . S
H1955 C1981 0.950 . S
H1956 C1982 0.950 . S
H1957 C1984 0.950 . S
H1958 C1987 0.950 . S
H1959 C1988 0.950 . S
H1960 C1990 0.950 . S
H1961 C1991 0.950 . S
C1962 H1944 0.951 . S
C1962 C1963 1.366 . S
C1962 C1964 1.388 . S
C1963 C1962 1.366 . S
C1963 C1967 1.385 . S
C1964 H1945 0.951 . S
C1964 C1962 1.388 . S
C1964 C1965 1.366 . S
C1965 C1964 1.366 . S
C1965 C1966 1.414 . S
C1965 C1968 1.499 . S
C1966 H1946 0.950 . S
C1966 C1965 1.414 . S
C1966 C1967 1.374 . S
C1967 H1947 0.950 . S
C1967 C1963 1.385 . S
C1967 C1966 1.374 . S
C1968 C1965 1.499 . S
C1968 C1969 1.373 . S
C1968 C1970 1.389 . S
C1969 H1948 0.950 . S
C1969 C1968 1.373 . S
C1969 C1985 1.377 . S
C1970 C1968 1.389 . S
C1970 C1971 1.524 . S
C1970 C1984 1.377 . S
C1971 C1970 1.524 . S
C1971 C1972 1.397 . S
C1971 C1976 1.363 . S
C1972 H1949 0.950 . S
C1972 C1971 1.397 . S
C1972 C1973 1.334 . S
C1973 H1950 0.950 . S
C1973 C1972 1.334 . S
C1973 C1974 1.287 . S
C1974 C1973 1.287 . S
C1974 C1975 1.524 . S
C1974 H1993 0.913 . S
C1975 H1951 0.950 . S
C1975 C1974 1.524 . S
C1975 C1976 1.415 . S
C1976 H1952 0.950 . S
C1976 C1971 1.363 . S
C1976 C1975 1.415 . S
C1977 H1953 0.951 . S
C1977 C1978 1.366 . S
C1977 C1979 1.388 . S
C1978 C1977 1.366 . S
C1978 C1982 1.385 . S
C1979 H1954 0.951 . S
C1979 C1977 1.388 . S
C1979 C1980 1.366 . S
C1980 C1979 1.366 . S
C1980 C1981 1.414 . S
C1980 C1983 1.499 . S
C1981 H1955 0.950 . S
C1981 C1980 1.414 . S
C1981 C1982 1.374 . S
C1982 H1956 0.950 . S
C1982 C1978 1.385 . S
C1982 C1981 1.374 . S
C1983 C1980 1.499 . S
C1983 C1984 1.373 . S
C1983 C1985 1.389 . S
C1984 H1957 0.950 . S
C1984 C1970 1.377 . S
C1984 C1983 1.373 . S
C1985 C1969 1.377 . S
C1985 C1983 1.389 . S
C1985 C1986 1.524 . S
C1986 C1985 1.524 . S
C1986 C1987 1.397 . S
C1986 C1991 1.363 . S
C1987 H1958 0.950 . S
C1987 C1986 1.397 . S
C1987 C1988 1.334 . S
C1988 H1959 0.950 . S
C1988 C1987 1.334 . S
C1988 C1989 1.287 . S
C1989 C1988 1.287 . S
C1989 C1990 1.524 . S
C1989 H1992 0.999 . S
C1990 H1960 0.950 . S
C1990 C1989 1.524 . S
C1990 C1991 1.415 . S
C1991 H1961 0.950 . S
C1991 C1986 1.363 . S
C1991 C1990 1.415 . S
H1992 C1989 0.999 . S
H1993 C1974 0.913 . S
H1994 C2012 0.951 . S
H1995 C2014 0.951 . S
H1996 C2016 0.950 . S
H1997 C2017 0.950 . S
H1998 C2019 0.950 . S
H1999 C2022 0.950 . S
H2000 C2023 0.950 . S
H2001 C2025 0.950 . S
H2002 C2026 0.950 . S
H2003 C2027 0.951 . S
H2004 C2029 0.951 . S
H2005 C2031 0.950 . S
H2006 C2032 0.950 . S
H2007 C2034 0.950 . S
H2008 C2037 0.950 . S
H2009 C2038 0.950 . S
H2010 C2040 0.950 . S
H2011 C2041 0.950 . S
C2012 H1994 0.951 . S
C2012 C2013 1.366 . S
C2012 C2014 1.388 . S
C2013 C2012 1.366 . S
C2013 C2017 1.385 . S
C2014 H1995 0.951 . S
C2014 C2012 1.388 . S
C2014 C2015 1.366 . S
C2015 C2014 1.366 . S
C2015 C2016 1.414 . S
C2015 C2018 1.499 . S
C2016 H1996 0.950 . S
C2016 C2015 1.414 . S
C2016 C2017 1.374 . S
C2017 H1997 0.950 . S
C2017 C2013 1.385 . S
C2017 C2016 1.374 . S
C2018 C2015 1.499 . S
C2018 C2019 1.373 . S
C2018 C2020 1.389 . S
C2019 H1998 0.950 . S
C2019 C2018 1.373 . S
C2019 C2035 1.377 . S
C2020 C2018 1.389 . S
C2020 C2021 1.524 . S
C2020 C2034 1.377 . S
C2021 C2020 1.524 . S
C2021 C2022 1.397 . S
C2021 C2026 1.363 . S
C2022 H1999 0.950 . S
C2022 C2021 1.397 . S
C2022 C2023 1.334 . S
C2023 H2000 0.950 . S
C2023 C2022 1.334 . S
C2023 C2024 1.287 . S
C2024 C2023 1.287 . S
C2024 C2025 1.524 . S
C2024 H2043 0.913 . S
C2025 H2001 0.950 . S
C2025 C2024 1.524 . S
C2025 C2026 1.415 . S
C2026 H2002 0.950 . S
C2026 C2021 1.363 . S
C2026 C2025 1.415 . S
C2027 H2003 0.951 . S
C2027 C2028 1.366 . S
C2027 C2029 1.388 . S
C2028 C2027 1.366 . S
C2028 C2032 1.385 . S
C2029 H2004 0.951 . S
C2029 C2027 1.388 . S
C2029 C2030 1.366 . S
C2030 C2029 1.366 . S
C2030 C2031 1.414 . S
C2030 C2033 1.499 . S
C2031 H2005 0.950 . S
C2031 C2030 1.414 . S
C2031 C2032 1.374 . S
C2032 H2006 0.950 . S
C2032 C2028 1.385 . S
C2032 C2031 1.374 . S
C2033 C2030 1.499 . S
C2033 C2034 1.373 . S
C2033 C2035 1.389 . S
C2034 H2007 0.950 . S
C2034 C2020 1.377 . S
C2034 C2033 1.373 . S
C2035 C2019 1.377 . S
C2035 C2033 1.389 . S
C2035 C2036 1.524 . S
C2036 C2035 1.524 . S
C2036 C2037 1.397 . S
C2036 C2041 1.363 . S
C2037 H2008 0.950 . S
C2037 C2036 1.397 . S
C2037 C2038 1.334 . S
C2038 H2009 0.950 . S
C2038 C2037 1.334 . S
C2038 C2039 1.287 . S
C2039 C2038 1.287 . S
C2039 C2040 1.524 . S
C2039 H2042 0.999 . S
C2040 H2010 0.950 . S
C2040 C2039 1.524 . S
C2040 C2041 1.415 . S
C2041 H2011 0.950 . S
C2041 C2036 1.363 . S
C2041 C2040 1.415 . S
H2042 C2039 0.999 . S
H2043 C2024 0.913 . S
H2044 C2062 0.951 . S
H2045 C2064 0.951 . S
H2046 C2066 0.950 . S
H2047 C2067 0.950 . S
H2048 C2069 0.950 . S
H2049 C2072 0.950 . S
H2050 C2073 0.950 . S
H2051 C2075 0.950 . S
H2052 C2076 0.950 . S
H2053 C2077 0.951 . S
H2054 C2079 0.951 . S
H2055 C2081 0.950 . S
H2056 C2082 0.950 . S
H2057 C2084 0.950 . S
H2058 C2087 0.950 . S
H2059 C2088 0.950 . S
H2060 C2090 0.950 . S
H2061 C2091 0.950 . S
C2062 H2044 0.951 . S
C2062 C2063 1.366 . S
C2062 C2064 1.388 . S
C2063 C2062 1.366 . S
C2063 C2067 1.385 . S
C2064 H2045 0.951 . S
C2064 C2062 1.388 . S
C2064 C2065 1.366 . S
C2065 C2064 1.366 . S
C2065 C2066 1.414 . S
C2065 C2068 1.499 . S
C2066 H2046 0.950 . S
C2066 C2065 1.414 . S
C2066 C2067 1.374 . S
C2067 H2047 0.950 . S
C2067 C2063 1.385 . S
C2067 C2066 1.374 . S
C2068 C2065 1.499 . S
C2068 C2069 1.373 . S
C2068 C2070 1.389 . S
C2069 H2048 0.950 . S
C2069 C2068 1.373 . S
C2069 C2085 1.377 . S
C2070 C2068 1.389 . S
C2070 C2071 1.524 . S
C2070 C2084 1.377 . S
C2071 C2070 1.524 . S
C2071 C2072 1.397 . S
C2071 C2076 1.363 . S
C2072 H2049 0.950 . S
C2072 C2071 1.397 . S
C2072 C2073 1.334 . S
C2073 H2050 0.950 . S
C2073 C2072 1.334 . S
C2073 C2074 1.287 . S
C2074 C2073 1.287 . S
C2074 C2075 1.524 . S
C2074 H2093 0.913 . S
C2075 H2051 0.950 . S
C2075 C2074 1.524 . S
C2075 C2076 1.415 . S
C2076 H2052 0.950 . S
C2076 C2071 1.363 . S
C2076 C2075 1.415 . S
C2077 H2053 0.951 . S
C2077 C2078 1.366 . S
C2077 C2079 1.388 . S
C2078 C2077 1.366 . S
C2078 C2082 1.385 . S
C2079 H2054 0.951 . S
C2079 C2077 1.388 . S
C2079 C2080 1.366 . S
C2080 C2079 1.366 . S
C2080 C2081 1.414 . S
C2080 C2083 1.499 . S
C2081 H2055 0.950 . S
C2081 C2080 1.414 . S
C2081 C2082 1.374 . S
C2082 H2056 0.950 . S
C2082 C2078 1.385 . S
C2082 C2081 1.374 . S
C2083 C2080 1.499 . S
C2083 C2084 1.373 . S
C2083 C2085 1.389 . S
C2084 H2057 0.950 . S
C2084 C2070 1.377 . S
C2084 C2083 1.373 . S
C2085 C2069 1.377 . S
C2085 C2083 1.389 . S
C2085 C2086 1.524 . S
C2086 C2085 1.524 . S
C2086 C2087 1.397 . S
C2086 C2091 1.363 . S
C2087 H2058 0.950 . S
C2087 C2086 1.397 . S
C2087 C2088 1.334 . S
C2088 H2059 0.950 . S
C2088 C2087 1.334 . S
C2088 C2089 1.287 . S
C2089 C2088 1.287 . S
C2089 C2090 1.524 . S
C2089 H2092 0.999 . S
C2090 H2060 0.950 . S
C2090 C2089 1.524 . S
C2090 C2091 1.415 . S
C2091 H2061 0.950 . S
C2091 C2086 1.363 . S
C2091 C2090 1.415 . S
H2092 C2089 0.999 . S
H2093 C2074 0.913 . S
H2094 C2112 0.951 . S
H2095 C2114 0.951 . S
H2096 C2116 0.950 . S
H2097 C2117 0.950 . S
H2098 C2119 0.950 . S
H2099 C2122 0.950 . S
H2100 C2123 0.950 . S
H2101 C2125 0.950 . S
H2102 C2126 0.950 . S
H2103 C2127 0.951 . S
H2104 C2129 0.951 . S
H2105 C2131 0.950 . S
H2106 C2132 0.950 . S
H2107 C2134 0.950 . S
H2108 C2137 0.950 . S
H2109 C2138 0.950 . S
H2110 C2140 0.950 . S
H2111 C2141 0.950 . S
C2112 H2094 0.951 . S
C2112 C2113 1.366 . S
C2112 C2114 1.388 . S
C2113 C2112 1.366 . S
C2113 C2117 1.385 . S
C2114 H2095 0.951 . S
C2114 C2112 1.388 . S
C2114 C2115 1.366 . S
C2115 C2114 1.366 . S
C2115 C2116 1.414 . S
C2115 C2118 1.499 . S
C2116 H2096 0.950 . S
C2116 C2115 1.414 . S
C2116 C2117 1.374 . S
C2117 H2097 0.950 . S
C2117 C2113 1.385 . S
C2117 C2116 1.374 . S
C2118 C2115 1.499 . S
C2118 C2119 1.373 . S
C2118 C2120 1.389 . S
C2119 H2098 0.950 . S
C2119 C2118 1.373 . S
C2119 C2135 1.377 . S
C2120 C2118 1.389 . S
C2120 C2121 1.524 . S
C2120 C2134 1.377 . S
C2121 C2120 1.524 . S
C2121 C2122 1.397 . S
C2121 C2126 1.363 . S
C2122 H2099 0.950 . S
C2122 C2121 1.397 . S
C2122 C2123 1.334 . S
C2123 H2100 0.950 . S
C2123 C2122 1.334 . S
C2123 C2124 1.287 . S
C2124 C2123 1.287 . S
C2124 C2125 1.524 . S
C2124 H2143 0.913 . S
C2125 H2101 0.950 . S
C2125 C2124 1.524 . S
C2125 C2126 1.415 . S
C2126 H2102 0.950 . S
C2126 C2121 1.363 . S
C2126 C2125 1.415 . S
C2127 H2103 0.951 . S
C2127 C2128 1.366 . S
C2127 C2129 1.388 . S
C2128 C2127 1.366 . S
C2128 C2132 1.385 . S
C2129 H2104 0.951 . S
C2129 C2127 1.388 . S
C2129 C2130 1.366 . S
C2130 C2129 1.366 . S
C2130 C2131 1.414 . S
C2130 C2133 1.499 . S
C2131 H2105 0.950 . S
C2131 C2130 1.414 . S
C2131 C2132 1.374 . S
C2132 H2106 0.950 . S
C2132 C2128 1.385 . S
C2132 C2131 1.374 . S
C2133 C2130 1.499 . S
C2133 C2134 1.373 . S
C2133 C2135 1.389 . S
C2134 H2107 0.950 . S
C2134 C2120 1.377 . S
C2134 C2133 1.373 . S
C2135 C2119 1.377 . S
C2135 C2133 1.389 . S
C2135 C2136 1.524 . S
C2136 C2135 1.524 . S
C2136 C2137 1.397 . S
C2136 C2141 1.363 . S
C2137 H2108 0.950 . S
C2137 C2136 1.397 . S
C2137 C2138 1.334 . S
C2138 H2109 0.950 . S
C2138 C2137 1.334 . S
C2138 C2139 1.287 . S
C2139 C2138 1.287 . S
C2139 C2140 1.524 . S
C2139 H2142 0.999 . S
C2140 H2110 0.950 . S
C2140 C2139 1.524 . S
C2140 C2141 1.415 . S
C2141 H2111 0.950 . S
C2141 C2136 1.363 . S
C2141 C2140 1.415 . S
H2142 C2139 0.999 . S
H2143 C2124 0.913 . S
H2144 C2162 0.951 . S
H2145 C2164 0.951 . S
H2146 C2166 0.950 . S
H2147 C2167 0.950 . S
H2148 C2169 0.950 . S
H2149 C2172 0.950 . S
H2150 C2173 0.950 . S
H2151 C2175 0.950 . S
H2152 C2176 0.950 . S
H2153 C2177 0.951 . S
H2154 C2179 0.951 . S
H2155 C2181 0.950 . S
H2156 C2182 0.950 . S
H2157 C2184 0.950 . S
H2158 C2187 0.950 . S
H2159 C2188 0.950 . S
H2160 C2190 0.950 . S
H2161 C2191 0.950 . S
C2162 H2144 0.951 . S
C2162 C2163 1.366 . S
C2162 C2164 1.388 . S
C2163 C2162 1.366 . S
C2163 C2167 1.385 . S
C2164 H2145 0.951 . S
C2164 C2162 1.388 . S
C2164 C2165 1.366 . S
C2165 C2164 1.366 . S
C2165 C2166 1.414 . S
C2165 C2168 1.499 . S
C2166 H2146 0.950 . S
C2166 C2165 1.414 . S
C2166 C2167 1.374 . S
C2167 H2147 0.950 . S
C2167 C2163 1.385 . S
C2167 C2166 1.374 . S
C2168 C2165 1.499 . S
C2168 C2169 1.373 . S
C2168 C2170 1.389 . S
C2169 H2148 0.950 . S
C2169 C2168 1.373 . S
C2169 C2185 1.377 . S
C2170 C2168 1.389 . S
C2170 C2171 1.524 . S
C2170 C2184 1.377 . S
C2171 C2170 1.524 . S
C2171 C2172 1.397 . S
C2171 C2176 1.363 . S
C2172 H2149 0.950 . S
C2172 C2171 1.397 . S
C2172 C2173 1.334 . S
C2173 H2150 0.950 . S
C2173 C2172 1.334 . S
C2173 C2174 1.287 . S
C2174 C2173 1.287 . S
C2174 C2175 1.524 . S
C2174 H2193 0.913 . S
C2175 H2151 0.950 . S
C2175 C2174 1.524 . S
C2175 C2176 1.415 . S
C2176 H2152 0.950 . S
C2176 C2171 1.363 . S
C2176 C2175 1.415 . S
C2177 H2153 0.951 . S
C2177 C2178 1.366 . S
C2177 C2179 1.388 . S
C2178 C2177 1.366 . S
C2178 C2182 1.385 . S
C2179 H2154 0.951 . S
C2179 C2177 1.388 . S
C2179 C2180 1.366 . S
C2180 C2179 1.366 . S
C2180 C2181 1.414 . S
C2180 C2183 1.499 . S
C2181 H2155 0.950 . S
C2181 C2180 1.414 . S
C2181 C2182 1.374 . S
C2182 H2156 0.950 . S
C2182 C2178 1.385 . S
C2182 C2181 1.374 . S
C2183 C2180 1.499 . S
C2183 C2184 1.373 . S
C2183 C2185 1.389 . S
C2184 H2157 0.950 . S
C2184 C2170 1.377 . S
C2184 C2183 1.373 . S
C2185 C2169 1.377 . S
C2185 C2183 1.389 . S
C2185 C2186 1.524 . S
C2186 C2185 1.524 . S
C2186 C2187 1.397 . S
C2186 C2191 1.363 . S
C2187 H2158 0.950 . S
C2187 C2186 1.397 . S
C2187 C2188 1.334 . S
C2188 H2159 0.950 . S
C2188 C2187 1.334 . S
C2188 C2189 1.287 . S
C2189 C2188 1.287 . S
C2189 C2190 1.524 . S
C2189 H2192 0.999 . S
C2190 H2160 0.950 . S
C2190 C2189 1.524 . S
C2190 C2191 1.415 . S
C2191 H2161 0.950 . S
C2191 C2186 1.363 . S
C2191 C2190 1.415 . S
H2192 C2189 0.999 . S
H2193 C2174 0.913 . S
H2194 C2212 0.951 . S
H2195 C2214 0.951 . S
H2196 C2216 0.950 . S
H2197 C2217 0.950 . S
H2198 C2219 0.950 . S
H2199 C2222 0.950 . S
H2200 C2223 0.950 . S
H2201 C2225 0.950 . S
H2202 C2226 0.950 . S
H2203 C2227 0.951 . S
H2204 C2229 0.951 . S
H2205 C2231 0.950 . S
H2206 C2232 0.950 . S
H2207 C2234 0.950 . S
H2208 C2237 0.950 . S
H2209 C2238 0.950 . S
H2210 C2240 0.950 . S
H2211 C2241 0.950 . S
C2212 H2194 0.951 . S
C2212 C2213 1.366 . S
C2212 C2214 1.388 . S
C2213 C2212 1.366 . S
C2213 C2217 1.385 . S
C2214 H2195 0.951 . S
C2214 C2212 1.388 . S
C2214 C2215 1.366 . S
C2215 C2214 1.366 . S
C2215 C2216 1.414 . S
C2215 C2218 1.499 . S
C2216 H2196 0.950 . S
C2216 C2215 1.414 . S
C2216 C2217 1.374 . S
C2217 H2197 0.950 . S
C2217 C2213 1.385 . S
C2217 C2216 1.374 . S
C2218 C2215 1.499 . S
C2218 C2219 1.373 . S
C2218 C2220 1.389 . S
C2219 H2198 0.950 . S
C2219 C2218 1.373 . S
C2219 C2235 1.377 . S
C2220 C2218 1.389 . S
C2220 C2221 1.524 . S
C2220 C2234 1.377 . S
C2221 C2220 1.524 . S
C2221 C2222 1.397 . S
C2221 C2226 1.363 . S
C2222 H2199 0.950 . S
C2222 C2221 1.397 . S
C2222 C2223 1.334 . S
C2223 H2200 0.950 . S
C2223 C2222 1.334 . S
C2223 C2224 1.287 . S
C2224 C2223 1.287 . S
C2224 C2225 1.524 . S
C2224 H2243 0.913 . S
C2225 H2201 0.950 . S
C2225 C2224 1.524 . S
C2225 C2226 1.415 . S
C2226 H2202 0.950 . S
C2226 C2221 1.363 . S
C2226 C2225 1.415 . S
C2227 H2203 0.951 . S
C2227 C2228 1.366 . S
C2227 C2229 1.388 . S
C2228 C2227 1.366 . S
C2228 C2232 1.385 . S
C2229 H2204 0.951 . S
C2229 C2227 1.388 . S
C2229 C2230 1.366 . S
C2230 C2229 1.366 . S
C2230 C2231 1.414 . S
C2230 C2233 1.499 . S
C2231 H2205 0.950 . S
C2231 C2230 1.414 . S
C2231 C2232 1.374 . S
C2232 H2206 0.950 . S
C2232 C2228 1.385 . S
C2232 C2231 1.374 . S
C2233 C2230 1.499 . S
C2233 C2234 1.373 . S
C2233 C2235 1.389 . S
C2234 H2207 0.950 . S
C2234 C2220 1.377 . S
C2234 C2233 1.373 . S
C2235 C2219 1.377 . S
C2235 C2233 1.389 . S
C2235 C2236 1.524 . S
C2236 C2235 1.524 . S
C2236 C2237 1.397 . S
C2236 C2241 1.363 . S
C2237 H2208 0.950 . S
C2237 C2236 1.397 . S
C2237 C2238 1.334 . S
C2238 H2209 0.950 . S
C2238 C2237 1.334 . S
C2238 C2239 1.287 . S
C2239 C2238 1.287 . S
C2239 C2240 1.524 . S
C2239 H2242 0.999 . S
C2240 H2210 0.950 . S
C2240 C2239 1.524 . S
C2240 C2241 1.415 . S
C2241 H2211 0.950 . S
C2241 C2236 1.363 . S
C2241 C2240 1.415 . S
H2242 C2239 0.999 . S
H2243 C2224 0.913 . S
H2244 C2262 0.951 . S
H2245 C2264 0.951 . S
H2246 C2266 0.950 . S
H2247 C2267 0.950 . S
H2248 C2269 0.950 . S
H2249 C2272 0.950 . S
H2250 C2273 0.950 . S
H2251 C2275 0.950 . S
H2252 C2276 0.950 . S
H2253 C2277 0.951 . S
H2254 C2279 0.951 . S
H2255 C2281 0.950 . S
H2256 C2282 0.950 . S
H2257 C2284 0.950 . S
H2258 C2287 0.950 . S
H2259 C2288 0.950 . S
H2260 C2290 0.950 . S
H2261 C2291 0.950 . S
C2262 H2244 0.951 . S
C2262 C2263 1.366 . S
C2262 C2264 1.388 . S
C2263 C2262 1.366 . S
C2263 C2267 1.385 . S
C2264 H2245 0.951 . S
C2264 C2262 1.388 . S
C2264 C2265 1.366 . S
C2265 C2264 1.366 . S
C2265 C2266 1.414 . S
C2265 C2268 1.499 . S
C2266 H2246 0.950 . S
C2266 C2265 1.414 . S
C2266 C2267 1.374 . S
C2267 H2247 0.950 . S
C2267 C2263 1.385 . S
C2267 C2266 1.374 . S
C2268 C2265 1.499 . S
C2268 C2269 1.373 . S
C2268 C2270 1.389 . S
C2269 H2248 0.950 . S
C2269 C2268 1.373 . S
C2269 C2285 1.377 . S
C2270 C2268 1.389 . S
C2270 C2271 1.524 . S
C2270 C2284 1.377 . S
C2271 C2270 1.524 . S
C2271 C2272 1.397 . S
C2271 C2276 1.363 . S
C2272 H2249 0.950 . S
C2272 C2271 1.397 . S
C2272 C2273 1.334 . S
C2273 H2250 0.950 . S
C2273 C2272 1.334 . S
C2273 C2274 1.287 . S
C2274 C2273 1.287 . S
C2274 C2275 1.524 . S
C2274 H2293 0.913 . S
C2275 H2251 0.950 . S
C2275 C2274 1.524 . S
C2275 C2276 1.415 . S
C2276 H2252 0.950 . S
C2276 C2271 1.363 . S
C2276 C2275 1.415 . S
C2277 H2253 0.951 . S
C2277 C2278 1.366 . S
C2277 C2279 1.388 . S
C2278 C2277 1.366 . S
C2278 C2282 1.385 . S
C2279 H2254 0.951 . S
C2279 C2277 1.388 . S
C2279 C2280 1.366 . S
C2280 C2279 1.366 . S
C2280 C2281 1.414 . S
C2280 C2283 1.499 . S
C2281 H2255 0.950 . S
C2281 C2280 1.414 . S
C2281 C2282 1.374 . S
C2282 H2256 0.950 . S
C2282 C2278 1.385 . S
C2282 C2281 1.374 . S
C2283 C2280 1.499 . S
C2283 C2284 1.373 . S
C2283 C2285 1.389 . S
C2284 H2257 0.950 . S
C2284 C2270 1.377 . S
C2284 C2283 1.373 . S
C2285 C2269 1.377 . S
C2285 C2283 1.389 . S
C2285 C2286 1.524 . S
C2286 C2285 1.524 . S
C2286 C2287 1.397 . S
C2286 C2291 1.363 . S
C2287 H2258 0.950 . S
C2287 C2286 1.397 . S
C2287 C2288 1.334 . S
C2288 H2259 0.950 . S
C2288 C2287 1.334 . S
C2288 C2289 1.287 . S
C2289 C2288 1.287 . S
C2289 C2290 1.524 . S
C2289 H2292 0.999 . S
C2290 H2260 0.950 . S
C2290 C2289 1.524 . S
C2290 C2291 1.415 . S
C2291 H2261 0.950 . S
C2291 C2286 1.363 . S
C2291 C2290 1.415 . S
H2292 C2289 0.999 . S
H2293 C2274 0.913 . S
H2294 C2312 0.951 . S
H2295 C2314 0.951 . S
H2296 C2316 0.950 . S
H2297 C2317 0.950 . S
H2298 C2319 0.950 . S
H2299 C2322 0.950 . S
H2300 C2323 0.950 . S
H2301 C2325 0.950 . S
H2302 C2326 0.950 . S
H2303 C2327 0.951 . S
H2304 C2329 0.951 . S
H2305 C2331 0.950 . S
H2306 C2332 0.950 . S
H2307 C2334 0.950 . S
H2308 C2337 0.950 . S
H2309 C2338 0.950 . S
H2310 C2340 0.950 . S
H2311 C2341 0.950 . S
C2312 H2294 0.951 . S
C2312 C2313 1.366 . S
C2312 C2314 1.388 . S
C2313 C2312 1.366 . S
C2313 C2317 1.385 . S
C2314 H2295 0.951 . S
C2314 C2312 1.388 . S
C2314 C2315 1.366 . S
C2315 C2314 1.366 . S
C2315 C2316 1.414 . S
C2315 C2318 1.499 . S
C2316 H2296 0.950 . S
C2316 C2315 1.414 . S
C2316 C2317 1.374 . S
C2317 H2297 0.950 . S
C2317 C2313 1.385 . S
C2317 C2316 1.374 . S
C2318 C2315 1.499 . S
C2318 C2319 1.373 . S
C2318 C2320 1.389 . S
C2319 H2298 0.950 . S
C2319 C2318 1.373 . S
C2319 C2335 1.377 . S
C2320 C2318 1.389 . S
C2320 C2321 1.524 . S
C2320 C2334 1.377 . S
C2321 C2320 1.524 . S
C2321 C2322 1.397 . S
C2321 C2326 1.363 . S
C2322 H2299 0.950 . S
C2322 C2321 1.397 . S
C2322 C2323 1.334 . S
C2323 H2300 0.950 . S
C2323 C2322 1.334 . S
C2323 C2324 1.287 . S
C2324 C2323 1.287 . S
C2324 C2325 1.524 . S
C2324 H2343 0.913 . S
C2325 H2301 0.950 . S
C2325 C2324 1.524 . S
C2325 C2326 1.415 . S
C2326 H2302 0.950 . S
C2326 C2321 1.363 . S
C2326 C2325 1.415 . S
C2327 H2303 0.951 . S
C2327 C2328 1.366 . S
C2327 C2329 1.388 . S
C2328 C2327 1.366 . S
C2328 C2332 1.385 . S
C2329 H2304 0.951 . S
C2329 C2327 1.388 . S
C2329 C2330 1.366 . S
C2330 C2329 1.366 . S
C2330 C2331 1.414 . S
C2330 C2333 1.499 . S
C2331 H2305 0.950 . S
C2331 C2330 1.414 . S
C2331 C2332 1.374 . S
C2332 H2306 0.950 . S
C2332 C2328 1.385 . S
C2332 C2331 1.374 . S
C2333 C2330 1.499 . S
C2333 C2334 1.373 . S
C2333 C2335 1.389 . S
C2334 H2307 0.950 . S
C2334 C2320 1.377 . S
C2334 C2333 1.373 . S
C2335 C2319 1.377 . S
C2335 C2333 1.389 . S
C2335 C2336 1.524 . S
C2336 C2335 1.524 . S
C2336 C2337 1.397 . S
C2336 C2341 1.363 . S
C2337 H2308 0.950 . S
C2337 C2336 1.397 . S
C2337 C2338 1.334 . S
C2338 H2309 0.950 . S
C2338 C2337 1.334 . S
C2338 C2339 1.287 . S
C2339 C2338 1.287 . S
C2339 C2340 1.524 . S
C2339 H2342 0.999 . S
C2340 H2310 0.950 . S
C2340 C2339 1.524 . S
C2340 C2341 1.415 . S
C2341 H2311 0.950 . S
C2341 C2336 1.363 . S
C2341 C2340 1.415 . S
H2342 C2339 0.999 . S
H2343 C2324 0.913 . S
H2344 C2362 0.951 1_655 S
H2345 C2364 0.951 . S
H2346 C2366 0.950 . S
H2347 C2367 0.950 1_655 S
H2348 C2369 0.950 . S
H2349 C2372 0.950 . S
H2350 C2373 0.950 . S
H2351 C2375 0.950 . S
H2352 C2376 0.950 . S
H2353 C2377 0.951 . S
H2354 C2379 0.951 . S
H2355 C2381 0.950 . S
H2356 C2382 0.950 . S
H2357 C2384 0.950 . S
H2358 C2387 0.950 . S
H2359 C2388 0.950 . S
H2360 C2390 0.950 . S
H2361 C2391 0.950 . S
C2362 H2344 0.951 1_455 S
C2362 C2363 1.366 1_455 S
C2362 C2364 1.388 . S
C2363 C2362 1.366 1_655 S
C2363 C2367 1.385 1_655 S
C2364 H2345 0.951 . S
C2364 C2362 1.388 . S
C2364 C2365 1.366 . S
C2365 C2364 1.366 . S
C2365 C2366 1.414 . S
C2365 C2368 1.499 . S
C2366 H2346 0.950 . S
C2366 C2365 1.414 . S
C2366 C2367 1.374 . S
C2367 H2347 0.950 1_455 S
C2367 C2363 1.385 1_455 S
C2367 C2366 1.374 . S
C2368 C2365 1.499 . S
C2368 C2369 1.373 . S
C2368 C2370 1.389 . S
C2369 H2348 0.950 . S
C2369 C2368 1.373 . S
C2369 C2385 1.377 . S
C2370 C2368 1.389 . S
C2370 C2371 1.524 . S
C2370 C2384 1.377 . S
C2371 C2370 1.524 . S
C2371 C2372 1.397 . S
C2371 C2376 1.363 . S
C2372 H2349 0.950 . S
C2372 C2371 1.397 . S
C2372 C2373 1.334 . S
C2373 H2350 0.950 . S
C2373 C2372 1.334 . S
C2373 C2374 1.287 . S
C2374 C2373 1.287 . S
C2374 C2375 1.524 . S
C2374 H2393 0.913 . S
C2375 H2351 0.950 . S
C2375 C2374 1.524 . S
C2375 C2376 1.415 . S
C2376 H2352 0.950 . S
C2376 C2371 1.363 . S
C2376 C2375 1.415 . S
C2377 H2353 0.951 . S
C2377 C2378 1.366 . S
C2377 C2379 1.388 . S
C2378 C2377 1.366 . S
C2378 C2382 1.385 . S
C2379 H2354 0.951 . S
C2379 C2377 1.388 . S
C2379 C2380 1.366 . S
C2380 C2379 1.366 . S
C2380 C2381 1.414 . S
C2380 C2383 1.499 . S
C2381 H2355 0.950 . S
C2381 C2380 1.414 . S
C2381 C2382 1.374 . S
C2382 H2356 0.950 . S
C2382 C2378 1.385 . S
C2382 C2381 1.374 . S
C2383 C2380 1.499 . S
C2383 C2384 1.373 . S
C2383 C2385 1.389 . S
C2384 H2357 0.950 . S
C2384 C2370 1.377 . S
C2384 C2383 1.373 . S
C2385 C2369 1.377 . S
C2385 C2383 1.389 . S
C2385 C2386 1.524 . S
C2386 C2385 1.524 . S
C2386 C2387 1.397 . S
C2386 C2391 1.363 . S
C2387 H2358 0.950 . S
C2387 C2386 1.397 . S
C2387 C2388 1.334 . S
C2388 H2359 0.950 . S
C2388 C2387 1.334 . S
C2388 C2389 1.287 . S
C2389 C2388 1.287 . S
C2389 C2390 1.524 . S
C2389 H2392 0.999 . S
C2390 H2360 0.950 . S
C2390 C2389 1.524 . S
C2390 C2391 1.415 . S
C2391 H2361 0.950 . S
C2391 C2386 1.363 . S
C2391 C2390 1.415 . S
H2392 C2389 0.999 . S
H2393 C2374 0.913 . S
H2394 C2412 0.951 . S
H2395 C2414 0.951 . S
H2396 C2416 0.950 . S
H2397 C2417 0.950 . S
H2398 C2419 0.950 . S
H2399 C2422 0.950 . S
H2400 C2423 0.950 . S
H2401 C2425 0.950 . S
H2402 C2426 0.950 . S
H2403 C2427 0.951 1_565 S
H2404 C2429 0.951 . S
H2405 C2431 0.950 . S
H2406 C2432 0.950 1_565 S
H2407 C2434 0.950 . S
H2408 C2437 0.950 . S
H2409 C2438 0.950 . S
H2410 C2440 0.950 . S
H2411 C2441 0.950 . S
C2412 H2394 0.951 . S
C2412 C2413 1.366 . S
C2412 C2414 1.388 . S
C2413 C2412 1.366 . S
C2413 C2417 1.385 . S
C2414 H2395 0.951 . S
C2414 C2412 1.388 . S
C2414 C2415 1.366 . S
C2415 C2414 1.366 . S
C2415 C2416 1.414 . S
C2415 C2418 1.499 . S
C2416 H2396 0.950 . S
C2416 C2415 1.414 . S
C2416 C2417 1.374 . S
C2417 H2397 0.950 . S
C2417 C2413 1.385 . S
C2417 C2416 1.374 . S
C2418 C2415 1.499 . S
C2418 C2419 1.373 . S
C2418 C2420 1.389 . S
C2419 H2398 0.950 . S
C2419 C2418 1.373 . S
C2419 C2435 1.377 . S
C2420 C2418 1.389 . S
C2420 C2421 1.524 . S
C2420 C2434 1.377 . S
C2421 C2420 1.524 . S
C2421 C2422 1.397 . S
C2421 C2426 1.363 . S
C2422 H2399 0.950 . S
C2422 C2421 1.397 . S
C2422 C2423 1.334 . S
C2423 H2400 0.950 . S
C2423 C2422 1.334 . S
C2423 C2424 1.287 . S
C2424 C2423 1.287 . S
C2424 C2425 1.524 . S
C2424 H2443 0.913 . S
C2425 H2401 0.950 . S
C2425 C2424 1.524 . S
C2425 C2426 1.415 . S
C2426 H2402 0.950 . S
C2426 C2421 1.363 . S
C2426 C2425 1.415 . S
C2427 H2403 0.951 1_545 S
C2427 C2428 1.366 1_545 S
C2427 C2429 1.388 . S
C2428 C2427 1.366 1_565 S
C2428 C2432 1.385 1_565 S
C2429 H2404 0.951 . S
C2429 C2427 1.388 . S
C2429 C2430 1.366 . S
C2430 C2429 1.366 . S
C2430 C2431 1.414 . S
C2430 C2433 1.499 . S
C2431 H2405 0.950 . S
C2431 C2430 1.414 . S
C2431 C2432 1.374 . S
C2432 H2406 0.950 1_545 S
C2432 C2428 1.385 1_545 S
C2432 C2431 1.374 . S
C2433 C2430 1.499 . S
C2433 C2434 1.373 . S
C2433 C2435 1.389 . S
C2434 H2407 0.950 . S
C2434 C2420 1.377 . S
C2434 C2433 1.373 . S
C2435 C2419 1.377 . S
C2435 C2433 1.389 . S
C2435 C2436 1.524 . S
C2436 C2435 1.524 . S
C2436 C2437 1.397 . S
C2436 C2441 1.363 . S
C2437 H2408 0.950 . S
C2437 C2436 1.397 . S
C2437 C2438 1.334 . S
C2438 H2409 0.950 . S
C2438 C2437 1.334 . S
C2438 C2439 1.287 . S
C2439 C2438 1.287 . S
C2439 C2440 1.524 . S
C2439 H2442 0.999 . S
C2440 H2410 0.950 . S
C2440 C2439 1.524 . S
C2440 C2441 1.415 . S
C2441 H2411 0.950 . S
C2441 C2436 1.363 . S
C2441 C2440 1.415 . S
H2442 C2439 0.999 . S
H2443 C2424 0.913 . S
H2444 C2462 0.951 . S
H2445 C2464 0.951 . S
H2446 C2466 0.950 . S
H2447 C2467 0.950 . S
H2448 C2469 0.950 . S
H2449 C2472 0.950 . S
H2450 C2473 0.950 . S
H2451 C2475 0.950 . S
H2452 C2476 0.950 . S
H2453 C2477 0.951 1_455 S
H2454 C2479 0.951 . S
H2455 C2481 0.950 . S
H2456 C2482 0.950 1_455 S
H2457 C2484 0.950 . S
H2458 C2487 0.950 . S
H2459 C2488 0.950 . S
H2460 C2490 0.950 . S
H2461 C2491 0.950 . S
C2462 H2444 0.951 . S
C2462 C2463 1.366 . S
C2462 C2464 1.388 . S
C2463 C2462 1.366 . S
C2463 C2467 1.385 . S
C2464 H2445 0.951 . S
C2464 C2462 1.388 . S
C2464 C2465 1.366 . S
C2465 C2464 1.366 . S
C2465 C2466 1.414 . S
C2465 C2468 1.499 . S
C2466 H2446 0.950 . S
C2466 C2465 1.414 . S
C2466 C2467 1.374 . S
C2467 H2447 0.950 . S
C2467 C2463 1.385 . S
C2467 C2466 1.374 . S
C2468 C2465 1.499 . S
C2468 C2469 1.373 . S
C2468 C2470 1.389 . S
C2469 H2448 0.950 . S
C2469 C2468 1.373 . S
C2469 C2485 1.377 . S
C2470 C2468 1.389 . S
C2470 C2471 1.524 . S
C2470 C2484 1.377 . S
C2471 C2470 1.524 . S
C2471 C2472 1.397 . S
C2471 C2476 1.363 . S
C2472 H2449 0.950 . S
C2472 C2471 1.397 . S
C2472 C2473 1.334 . S
C2473 H2450 0.950 . S
C2473 C2472 1.334 . S
C2473 C2474 1.287 . S
C2474 C2473 1.287 . S
C2474 C2475 1.524 . S
C2474 H2493 0.913 . S
C2475 H2451 0.950 . S
C2475 C2474 1.524 . S
C2475 C2476 1.415 . S
C2476 H2452 0.950 . S
C2476 C2471 1.363 . S
C2476 C2475 1.415 . S
C2477 H2453 0.951 1_655 S
C2477 C2478 1.366 1_655 S
C2477 C2479 1.388 . S
C2478 C2477 1.366 1_455 S
C2478 C2482 1.385 1_455 S
C2479 H2454 0.951 . S
C2479 C2477 1.388 . S
C2479 C2480 1.366 . S
C2480 C2479 1.366 . S
C2480 C2481 1.414 . S
C2480 C2483 1.499 . S
C2481 H2455 0.950 . S
C2481 C2480 1.414 . S
C2481 C2482 1.374 . S
C2482 H2456 0.950 1_655 S
C2482 C2478 1.385 1_655 S
C2482 C2481 1.374 . S
C2483 C2480 1.499 . S
C2483 C2484 1.373 . S
C2483 C2485 1.389 . S
C2484 H2457 0.950 . S
C2484 C2470 1.377 . S
C2484 C2483 1.373 . S
C2485 C2469 1.377 . S
C2485 C2483 1.389 . S
C2485 C2486 1.524 . S
C2486 C2485 1.524 . S
C2486 C2487 1.397 . S
C2486 C2491 1.363 . S
C2487 H2458 0.950 . S
C2487 C2486 1.397 . S
C2487 C2488 1.334 . S
C2488 H2459 0.950 . S
C2488 C2487 1.334 . S
C2488 C2489 1.287 . S
C2489 C2488 1.287 . S
C2489 C2490 1.524 . S
C2489 H2492 0.999 . S
C2490 H2460 0.950 . S
C2490 C2489 1.524 . S
C2490 C2491 1.415 . S
C2491 H2461 0.950 . S
C2491 C2486 1.363 . S
C2491 C2490 1.415 . S
H2492 C2489 0.999 . S
H2493 C2474 0.913 . S
H2494 C2512 0.951 1_545 S
H2495 C2514 0.951 . S
H2496 C2516 0.950 . S
H2497 C2517 0.950 1_545 S
H2498 C2519 0.950 . S
H2499 C2522 0.950 . S
H2500 C2523 0.950 . S
H2501 C2525 0.950 . S
H2502 C2526 0.950 . S
H2503 C2527 0.951 . S
H2504 C2529 0.951 . S
H2505 C2531 0.950 . S
H2506 C2532 0.950 . S
H2507 C2534 0.950 . S
H2508 C2537 0.950 . S
H2509 C2538 0.950 . S
H2510 C2540 0.950 . S
H2511 C2541 0.950 . S
C2512 H2494 0.951 1_565 S
C2512 C2513 1.366 1_565 S
C2512 C2514 1.388 . S
C2513 C2512 1.366 1_545 S
C2513 C2517 1.385 1_545 S
C2514 H2495 0.951 . S
C2514 C2512 1.388 . S
C2514 C2515 1.366 . S
C2515 C2514 1.366 . S
C2515 C2516 1.414 . S
C2515 C2518 1.499 . S
C2516 H2496 0.950 . S
C2516 C2515 1.414 . S
C2516 C2517 1.374 . S
C2517 H2497 0.950 1_565 S
C2517 C2513 1.385 1_565 S
C2517 C2516 1.374 . S
C2518 C2515 1.499 . S
C2518 C2519 1.373 . S
C2518 C2520 1.389 . S
C2519 H2498 0.950 . S
C2519 C2518 1.373 . S
C2519 C2535 1.377 . S
C2520 C2518 1.389 . S
C2520 C2521 1.524 . S
C2520 C2534 1.377 . S
C2521 C2520 1.524 . S
C2521 C2522 1.397 . S
C2521 C2526 1.363 . S
C2522 H2499 0.950 . S
C2522 C2521 1.397 . S
C2522 C2523 1.334 . S
C2523 H2500 0.950 . S
C2523 C2522 1.334 . S
C2523 C2524 1.287 . S
C2524 C2523 1.287 . S
C2524 C2525 1.524 . S
C2524 H2543 0.913 . S
C2525 H2501 0.950 . S
C2525 C2524 1.524 . S
C2525 C2526 1.415 . S
C2526 H2502 0.950 . S
C2526 C2521 1.363 . S
C2526 C2525 1.415 . S
C2527 H2503 0.951 . S
C2527 C2528 1.366 . S
C2527 C2529 1.388 . S
C2528 C2527 1.366 . S
C2528 C2532 1.385 . S
C2529 H2504 0.951 . S
C2529 C2527 1.388 . S
C2529 C2530 1.366 . S
C2530 C2529 1.366 . S
C2530 C2531 1.414 . S
C2530 C2533 1.499 . S
C2531 H2505 0.950 . S
C2531 C2530 1.414 . S
C2531 C2532 1.374 . S
C2532 H2506 0.950 . S
C2532 C2528 1.385 . S
C2532 C2531 1.374 . S
C2533 C2530 1.499 . S
C2533 C2534 1.373 . S
C2533 C2535 1.389 . S
C2534 H2507 0.950 . S
C2534 C2520 1.377 . S
C2534 C2533 1.373 . S
C2535 C2519 1.377 . S
C2535 C2533 1.389 . S
C2535 C2536 1.524 . S
C2536 C2535 1.524 . S
C2536 C2537 1.397 . S
C2536 C2541 1.363 . S
C2537 H2508 0.950 . S
C2537 C2536 1.397 . S
C2537 C2538 1.334 . S
C2538 H2509 0.950 . S
C2538 C2537 1.334 . S
C2538 C2539 1.287 . S
C2539 C2538 1.287 . S
C2539 C2540 1.524 . S
C2539 H2542 0.999 . S
C2540 H2510 0.950 . S
C2540 C2539 1.524 . S
C2540 C2541 1.415 . S
C2541 H2511 0.950 . S
C2541 C2536 1.363 . S
C2541 C2540 1.415 . S
H2542 C2539 0.999 . S
H2543 C2524 0.913 . S
C563 C33 1.735 . S
C578 C101 1.735 . S
C613 C135 1.735 . S
C628 C67 1.735 . S
C663 C237 1.735 . S
C678 C169 1.736 . S
C713 C203 1.736 . S
C728 C271 1.735 . S
C763 C373 1.706 . S
C778 C305 1.706 . S
C813 C339 1.706 . S
C828 C407 1.706 . S
C863 C509 1.706 . S
C878 C441 1.706 . S
C913 C475 1.706 . S
C928 C543 1.706 . S
C963 C5 1.524 . S
C978 C342 1.536 . S
C1013 C376 1.536 . S
C1028 C39 1.524 . S
C1063 C274 1.536 . S
C1078 C73 1.525 . S
C1113 C308 1.536 . S
C1128 C107 1.524 . S
C1163 C478 1.536 . S
C1178 C141 1.524 . S
C1213 C512 1.536 . S
C1228 C175 1.525 . S
C1263 C410 1.536 . S
C1278 C209 1.525 . S
C1313 C444 1.536 . S
C1328 C243 1.524 . S
C1363 C9 1.333 . S
C1378 C247 1.333 . S
C1413 C43 1.334 . S
C1428 C145 1.333 . S
C1463 C179 1.332 . S
C1478 C77 1.334 . S
C1513 C213 1.333 . S
C1528 C111 1.333 . S
C1563 C292 2.092 . S
C1578 C530 2.092 . S
C1613 C326 2.092 . S
C1628 C428 2.092 . S
C1663 C360 2.093 . S
C1678 C462 2.092 . S
C1713 C394 2.092 . S
C1728 C496 2.092 . S
C1763 C481 0.822 . S
C1778 C20 0.822 . S
C1813 C54 0.822 . S
C1828 C515 0.822 . S
C1863 C413 0.822 . S
C1878 C88 0.821 . S
C1913 C447 0.823 . S
C1928 C122 0.822 . S
C1963 C345 0.822 . S
C1978 C156 0.822 . S
C2013 C190 0.821 . S
C2028 C379 0.822 . S
C2063 C277 0.822 . S
C2078 C224 0.822 . S
C2113 C258 0.821 . S
C2128 C311 0.822 . S
C2163 C206 0.794 . S
C2178 C281 0.791 . S
C2213 C240 0.793 . S
C2228 C315 0.790 . S
C2263 C138 0.793 . S
C2278 C349 0.789 . S
C2313 C383 0.790 . S
C2328 C172 0.793 . S
C2363 C70 0.793 . S
C2378 C417 0.789 . S
C2413 C451 0.789 . S
C2428 C104 0.793 . S
C2463 C485 0.789 . S
C2478 C2 0.793 . S
C2513 C36 0.793 . S
C2528 C519 0.789 . S
