# Generated by pormake.
# Topology umu, (4)-cn, num edge types: 1
# Building blocks:
#     Node 0, Type 0, BuildingBlock: UXUYUI_clean_sbu_0, # of connection points: 4
#     Node 1, Type 0, BuildingBlock: UXUYUI_clean_sbu_0, # of connection points: 4
#     Node 2, Type 0, BuildingBlock: UXUYUI_clean_sbu_0, # of connection points: 4
#     Node 3, Type 0, BuildingBlock: UXUYUI_clean_sbu_0, # of connection points: 4
#     Node 4, Type 0, BuildingBlock: UXUYUI_clean_sbu_0, # of connection points: 4
#     Node 5, Type 0, BuildingBlock: UXUYUI_clean_sbu_0, # of connection points: 4
#     Node 6, Type 0, BuildingBlock: UXUYUI_clean_sbu_0, # of connection points: 4
#     Node 7, Type 0, BuildingBlock: UXUYUI_clean_sbu_0, # of connection points: 4
#     Node 8, Type 0, BuildingBlock: UXUYUI_clean_sbu_0, # of connection points: 4
#     Node 9, Type 0, BuildingBlock: UXUYUI_clean_sbu_0, # of connection points: 4
#     Node 10, Type 0, BuildingBlock: UXUYUI_clean_sbu_0, # of connection points: 4
#     Node 11, Type 0, BuildingBlock: UXUYUI_clean_sbu_0, # of connection points: 4
#     Node 12, Type 0, BuildingBlock: UXUYUI_clean_sbu_0, # of connection points: 4
#     Node 13, Type 0, BuildingBlock: UXUYUI_clean_sbu_0, # of connection points: 4
#     Node 14, Type 0, BuildingBlock: UXUYUI_clean_sbu_0, # of connection points: 4
#     Node 15, Type 0, BuildingBlock: UXUYUI_clean_sbu_0, # of connection points: 4
#     Node 16, Type 0, BuildingBlock: UXUYUI_clean_sbu_0, # of connection points: 4
#     Node 17, Type 0, BuildingBlock: UXUYUI_clean_sbu_0, # of connection points: 4
#     Node 18, Type 0, BuildingBlock: UXUYUI_clean_sbu_0, # of connection points: 4
#     Node 19, Type 0, BuildingBlock: UXUYUI_clean_sbu_0, # of connection points: 4
#     Node 20, Type 0, BuildingBlock: UXUYUI_clean_sbu_0, # of connection points: 4
#     Node 21, Type 0, BuildingBlock: UXUYUI_clean_sbu_0, # of connection points: 4
#     Node 22, Type 0, BuildingBlock: UXUYUI_clean_sbu_0, # of connection points: 4
#     Node 23, Type 0, BuildingBlock: UXUYUI_clean_sbu_0, # of connection points: 4
#     Node 24, Type 0, BuildingBlock: UXUYUI_clean_sbu_0, # of connection points: 4
#     Node 25, Type 0, BuildingBlock: UXUYUI_clean_sbu_0, # of connection points: 4
#     Node 26, Type 0, BuildingBlock: UXUYUI_clean_sbu_0, # of connection points: 4
#     Node 27, Type 0, BuildingBlock: UXUYUI_clean_sbu_0, # of connection points: 4
#     Node 28, Type 0, BuildingBlock: UXUYUI_clean_sbu_0, # of connection points: 4
#     Node 29, Type 0, BuildingBlock: UXUYUI_clean_sbu_0, # of connection points: 4
#     Node 30, Type 0, BuildingBlock: UXUYUI_clean_sbu_0, # of connection points: 4
#     Node 31, Type 0, BuildingBlock: UXUYUI_clean_sbu_0, # of connection points: 4
#     Edge 32, Type (0, 0), BuildingBlock: CIFDUS_clean_linker_0, # of connection points: 2
#     Edge 33, Type (0, 0), BuildingBlock: CIFDUS_clean_linker_0, # of connection points: 2
#     Edge 34, Type (0, 0), BuildingBlock: CIFDUS_clean_linker_0, # of connection points: 2
#     Edge 35, Type (0, 0), BuildingBlock: CIFDUS_clean_linker_0, # of connection points: 2
#     Edge 36, Type (0, 0), BuildingBlock: CIFDUS_clean_linker_0, # of connection points: 2
#     Edge 37, Type (0, 0), BuildingBlock: CIFDUS_clean_linker_0, # of connection points: 2
#     Edge 38, Type (0, 0), BuildingBlock: CIFDUS_clean_linker_0, # of connection points: 2
#     Edge 39, Type (0, 0), BuildingBlock: CIFDUS_clean_linker_0, # of connection points: 2
#     Edge 40, Type (0, 0), BuildingBlock: CIFDUS_clean_linker_0, # of connection points: 2
#     Edge 41, Type (0, 0), BuildingBlock: CIFDUS_clean_linker_0, # of connection points: 2
#     Edge 42, Type (0, 0), BuildingBlock: CIFDUS_clean_linker_0, # of connection points: 2
#     Edge 43, Type (0, 0), BuildingBlock: CIFDUS_clean_linker_0, # of connection points: 2
#     Edge 44, Type (0, 0), BuildingBlock: CIFDUS_clean_linker_0, # of connection points: 2
#     Edge 45, Type (0, 0), BuildingBlock: CIFDUS_clean_linker_0, # of connection points: 2
#     Edge 46, Type (0, 0), BuildingBlock: CIFDUS_clean_linker_0, # of connection points: 2
#     Edge 47, Type (0, 0), BuildingBlock: CIFDUS_clean_linker_0, # of connection points: 2
#     Edge 48, Type (0, 0), BuildingBlock: CIFDUS_clean_linker_0, # of connection points: 2
#     Edge 49, Type (0, 0), BuildingBlock: CIFDUS_clean_linker_0, # of connection points: 2
#     Edge 50, Type (0, 0), BuildingBlock: CIFDUS_clean_linker_0, # of connection points: 2
#     Edge 51, Type (0, 0), BuildingBlock: CIFDUS_clean_linker_0, # of connection points: 2
#     Edge 52, Type (0, 0), BuildingBlock: CIFDUS_clean_linker_0, # of connection points: 2
#     Edge 53, Type (0, 0), BuildingBlock: CIFDUS_clean_linker_0, # of connection points: 2
#     Edge 54, Type (0, 0), BuildingBlock: CIFDUS_clean_linker_0, # of connection points: 2
#     Edge 55, Type (0, 0), BuildingBlock: CIFDUS_clean_linker_0, # of connection points: 2
#     Edge 56, Type (0, 0), BuildingBlock: CIFDUS_clean_linker_0, # of connection points: 2
#     Edge 57, Type (0, 0), BuildingBlock: CIFDUS_clean_linker_0, # of connection points: 2
#     Edge 58, Type (0, 0), BuildingBlock: CIFDUS_clean_linker_0, # of connection points: 2
#     Edge 59, Type (0, 0), BuildingBlock: CIFDUS_clean_linker_0, # of connection points: 2
#     Edge 60, Type (0, 0), BuildingBlock: CIFDUS_clean_linker_0, # of connection points: 2
#     Edge 61, Type (0, 0), BuildingBlock: CIFDUS_clean_linker_0, # of connection points: 2
#     Edge 62, Type (0, 0), BuildingBlock: CIFDUS_clean_linker_0, # of connection points: 2
#     Edge 63, Type (0, 0), BuildingBlock: CIFDUS_clean_linker_0, # of connection points: 2
#     Edge 64, Type (0, 0), BuildingBlock: CIFDUS_clean_linker_0, # of connection points: 2
#     Edge 65, Type (0, 0), BuildingBlock: CIFDUS_clean_linker_0, # of connection points: 2
#     Edge 66, Type (0, 0), BuildingBlock: CIFDUS_clean_linker_0, # of connection points: 2
#     Edge 67, Type (0, 0), BuildingBlock: CIFDUS_clean_linker_0, # of connection points: 2
#     Edge 68, Type (0, 0), BuildingBlock: CIFDUS_clean_linker_0, # of connection points: 2
#     Edge 69, Type (0, 0), BuildingBlock: CIFDUS_clean_linker_0, # of connection points: 2
#     Edge 70, Type (0, 0), BuildingBlock: CIFDUS_clean_linker_0, # of connection points: 2
#     Edge 71, Type (0, 0), BuildingBlock: CIFDUS_clean_linker_0, # of connection points: 2
#     Edge 72, Type (0, 0), BuildingBlock: CIFDUS_clean_linker_0, # of connection points: 2
#     Edge 73, Type (0, 0), BuildingBlock: CIFDUS_clean_linker_0, # of connection points: 2
#     Edge 74, Type (0, 0), BuildingBlock: CIFDUS_clean_linker_0, # of connection points: 2
#     Edge 75, Type (0, 0), BuildingBlock: CIFDUS_clean_linker_0, # of connection points: 2
#     Edge 76, Type (0, 0), BuildingBlock: CIFDUS_clean_linker_0, # of connection points: 2
#     Edge 77, Type (0, 0), BuildingBlock: CIFDUS_clean_linker_0, # of connection points: 2
#     Edge 78, Type (0, 0), BuildingBlock: CIFDUS_clean_linker_0, # of connection points: 2
#     Edge 79, Type (0, 0), BuildingBlock: CIFDUS_clean_linker_0, # of connection points: 2
#     Edge 80, Type (0, 0), BuildingBlock: CIFDUS_clean_linker_0, # of connection points: 2
#     Edge 81, Type (0, 0), BuildingBlock: CIFDUS_clean_linker_0, # of connection points: 2
#     Edge 82, Type (0, 0), BuildingBlock: CIFDUS_clean_linker_0, # of connection points: 2
#     Edge 83, Type (0, 0), BuildingBlock: CIFDUS_clean_linker_0, # of connection points: 2
#     Edge 84, Type (0, 0), BuildingBlock: CIFDUS_clean_linker_0, # of connection points: 2
#     Edge 85, Type (0, 0), BuildingBlock: CIFDUS_clean_linker_0, # of connection points: 2
#     Edge 86, Type (0, 0), BuildingBlock: CIFDUS_clean_linker_0, # of connection points: 2
#     Edge 87, Type (0, 0), BuildingBlock: CIFDUS_clean_linker_0, # of connection points: 2
#     Edge 88, Type (0, 0), BuildingBlock: CIFDUS_clean_linker_0, # of connection points: 2
#     Edge 89, Type (0, 0), BuildingBlock: CIFDUS_clean_linker_0, # of connection points: 2
#     Edge 90, Type (0, 0), BuildingBlock: CIFDUS_clean_linker_0, # of connection points: 2
#     Edge 91, Type (0, 0), BuildingBlock: CIFDUS_clean_linker_0, # of connection points: 2
#     Edge 92, Type (0, 0), BuildingBlock: CIFDUS_clean_linker_0, # of connection points: 2
#     Edge 93, Type (0, 0), BuildingBlock: CIFDUS_clean_linker_0, # of connection points: 2
#     Edge 94, Type (0, 0), BuildingBlock: CIFDUS_clean_linker_0, # of connection points: 2
#     Edge 95, Type (0, 0), BuildingBlock: CIFDUS_clean_linker_0, # of connection points: 2
# Relax obj value: 0.234
# Max RMSD: 0.144
# Mean RMSD: 0.144
data_MOF--net-umu--node1-UXUYUI_clean_sbu_0--edge1-CIFDUS_clean_linker_0
_symmetry_space_group_name_H-M    P1
_symmetry_Int_Tables_number       1
_symmetry_cell_setting            triclinic
loop_
_symmetry_equiv_pos_as_xyz
'x, y, z'
_cell_length_a     115.95642
_cell_length_b     115.9331
_cell_length_c     32.172908
_cell_angle_alpha  90.018022
_cell_angle_beta   89.991155
_cell_angle_gamma 90.000432
loop_
_atom_site_label
_atom_site_type_symbol
_atom_site_fract_x
_atom_site_fract_y
_atom_site_fract_z
_atom_type_partial_charge
Li0 Li 0.20304 0.1611 0.08587 0.0
Li1 Li 0.18915 0.15542 0.03383 0.0
Li2 Li 0.2072 0.16412 0.01347 0.0
Li3 Li 0.19254 0.17559 0.04762 0.0
C4 C 0.21528 0.14367 0.04668 0.0
N5 N 0.23613 0.13244 0.05636 0.0
C6 C 0.21606 0.1318 0.03974 0.0
C7 C 0.2251 0.14983 0.05862 0.0
C8 C 0.22668 0.12628 0.04477 0.0
C9 C 0.23556 0.144 0.06334 0.0
C10 C 0.18102 0.15666 0.11505 0.0
C11 C 0.16832 0.15344 0.17328 0.0
N12 N 0.17095 0.14201 0.17225 0.0
C13 C 0.18359 0.14488 0.11453 0.0
C14 C 0.17332 0.16098 0.14461 0.0
C15 C 0.17842 0.13762 0.14372 0.0
C16 C 0.21512 0.1672 0.15698 0.0
N17 N 0.21035 0.15792 0.1379 0.0
C18 C 0.21885 0.14524 0.18795 0.0
C19 C 0.21191 0.14707 0.15294 0.0
C20 C 0.2244 0.15465 0.20724 0.0
C21 C 0.22228 0.16577 0.19143 0.0
H22 H 0.21371 0.17572 0.14443 0.0
H23 H 0.20811 0.13979 0.13699 0.0
C24 C 0.18309 0.13579 0.98982 0.0
N25 N 0.17841 0.14415 0.01416 0.0
C26 C 0.17605 0.12763 0.97052 0.0
C27 C 0.15943 0.13686 0.00133 0.0
C28 C 0.16683 0.14478 0.02059 0.0
C29 C 0.16404 0.12816 0.9758 0.0
H30 H 0.1923 0.13562 0.98464 0.0
H31 H 0.16332 0.15156 0.03993 0.0
C32 C 0.21423 0.18525 0.04488 0.0
N33 N 0.22395 0.20548 0.01567 0.0
C34 C 0.21194 0.18904 0.00444 0.0
C35 C 0.22154 0.19175 0.07033 0.0
C36 C 0.21691 0.19928 0.99029 0.0
C37 C 0.22635 0.20195 0.05503 0.0
C38 C 0.18143 0.17021 0.97287 0.0
C39 C 0.18092 0.17013 0.92949 0.0
C40 C 0.17147 0.17257 0.99587 0.0
C41 C 0.17044 0.17241 0.90976 0.0
C42 C 0.16115 0.1748 0.97499 0.0
N43 N 0.16085 0.17468 0.93273 0.0
C44 C 0.21553 0.1584 0.93517 0.0
C45 C 0.22933 0.16817 0.97657 0.0
C46 C 0.22325 0.15788 0.90199 0.0
N47 N 0.21864 0.16359 0.9713 0.0
C48 C 0.23729 0.16796 0.94403 0.0
C49 C 0.23426 0.16284 0.90593 0.0
H50 H 0.207 0.1547 0.93217 0.0
H51 H 0.23166 0.17212 0.00581 0.0
C52 C 0.18464 0.19511 0.09095 0.0
N53 N 0.1865 0.19089 0.05213 0.0
C54 C 0.18218 0.20681 0.09673 0.0
C55 C 0.18328 0.2095 0.02237 0.0
C56 C 0.18559 0.19774 0.01801 0.0
C57 C 0.18181 0.21427 0.06225 0.0
H58 H 0.18551 0.18948 0.11755 0.0
H59 H 0.18725 0.19422 0.98748 0.0
O60 O 0.20489 0.14913 0.04209 0.0
O61 O 0.18594 0.16401 0.0869 0.0
O62 O 0.20939 0.17527 0.0597 0.0
O63 O 0.19163 0.16788 0.99248 0.0
H64 H 0.20853 0.12689 0.03067 0.0
H65 H 0.22468 0.159 0.06447 0.0
H66 H 0.22741 0.11709 0.0395 0.0
H67 H 0.24322 0.14866 0.07262 0.0
H68 H 0.16235 0.15667 0.19634 0.0
H69 H 0.1895 0.14134 0.09193 0.0
H70 H 0.17124 0.17008 0.14537 0.0
H71 H 0.18034 0.12848 0.14369 0.0
H72 H 0.22001 0.13652 0.19922 0.0
H73 H 0.22644 0.17331 0.2043 0.0
H74 H 0.17995 0.12116 0.9507 0.0
H75 H 0.15022 0.13751 0.00637 0.0
H76 H 0.2064 0.18414 0.98403 0.0
H77 H 0.22351 0.18896 0.10159 0.0
H78 H 0.21518 0.2023 0.9591 0.0
H79 H 0.232 0.20705 0.07446 0.0
H80 H 0.18856 0.16831 0.91128 0.0
H81 H 0.17168 0.17262 0.02947 0.0
H82 H 0.16992 0.17237 0.87619 0.0
H83 H 0.15338 0.17662 0.99239 0.0
H84 H 0.22061 0.15361 0.87362 0.0
H85 H 0.24562 0.172 0.94846 0.0
H86 H 0.18092 0.21002 0.12801 0.0
H87 H 0.18328 0.21487 0.99485 0.0
Li88 Li 0.09321 0.9403 0.26806 0.0
Li89 Li 0.08927 0.95498 0.31953 0.0
Li90 Li 0.07297 0.94451 0.28247 0.0
Li91 Li 0.0859 0.9589 0.245 0.0
C92 C 0.08988 0.92969 0.34409 0.0
N93 N 0.1005 0.91229 0.38848 0.0
C94 C 0.10039 0.93174 0.36396 0.0
C95 C 0.08468 0.91885 0.34724 0.0
C96 C 0.10565 0.92282 0.38612 0.0
C97 C 0.09021 0.91015 0.36971 0.0
C98 C 0.11132 0.95914 0.28353 0.0
C99 C 0.12555 0.9742 0.28997 0.0
N100 N 0.13325 0.96635 0.30472 0.0
C101 C 0.1194 0.9512 0.29841 0.0
C102 C 0.11443 0.97071 0.2789 0.0
C103 C 0.13043 0.95503 0.30907 0.0
C104 C 0.11127 0.93284 0.21872 0.0
N105 N 0.10357 0.9287 0.24692 0.0
C106 C 0.10958 0.90933 0.23258 0.0
C107 C 0.10263 0.91718 0.25426 0.0
C108 C 0.11738 0.9134 0.20252 0.0
C109 C 0.11826 0.92534 0.19608 0.0
H110 H 0.11165 0.94201 0.2126 0.0
H111 H 0.09617 0.914 0.27549 0.0
C112 C 0.08307 0.96685 0.39142 0.0
N113 N 0.09254 0.96288 0.37099 0.0
C114 C 0.08423 0.97415 0.42564 0.0
C115 C 0.10491 0.97252 0.41951 0.0
C116 C 0.10335 0.96535 0.38492 0.0
C117 C 0.09526 0.97726 0.43963 0.0
H118 H 0.07456 0.96463 0.38024 0.0
H119 H 0.11079 0.96203 0.36885 0.0
C120 C 0.08154 0.93479 0.19965 0.0
N121 N 0.08469 0.91684 0.14439 0.0
C122 C 0.08771 0.93657 0.1629 0.0
C123 C 0.07687 0.92393 0.20816 0.0
C124 C 0.08924 0.92736 0.1354 0.0
C125 C 0.07857 0.91496 0.17983 0.0
C126 C 0.07223 0.97271 0.29685 0.0
C127 C 0.06063 0.97593 0.29756 0.0
C128 C 0.0808 0.98112 0.3006 0.0
C129 C 0.05777 0.98758 0.30198 0.0
C130 C 0.07759 0.99267 0.30504 0.0
N131 N 0.06624 0.99563 0.30561 0.0
C132 C 0.05261 0.93265 0.31244 0.0
C133 C 0.05074 0.94512 0.25447 0.0
C134 C 0.04076 0.93029 0.3116 0.0
N135 N 0.0573 0.93997 0.28408 0.0
C136 C 0.03892 0.94306 0.25258 0.0
C137 C 0.03373 0.93556 0.28136 0.0
H138 H 0.05804 0.92874 0.33587 0.0
H139 H 0.05473 0.95101 0.23266 0.0
C140 C 0.09598 0.97182 0.18086 0.0
N141 N 0.08603 0.96997 0.20213 0.0
C142 C 0.09617 0.97952 0.1475 0.0
C143 C 0.0759 0.98331 0.15902 0.0
C144 C 0.07608 0.97545 0.19184 0.0
C145 C 0.08603 0.98535 0.13624 0.0
H146 H 0.10371 0.96719 0.18948 0.0
H147 H 0.06823 0.97359 0.20868 0.0
O148 O 0.08458 0.93831 0.3223 0.0
O149 O 0.1005 0.95557 0.27255 0.0
O150 O 0.08032 0.94355 0.22768 0.0
O151 O 0.07518 0.96136 0.29232 0.0
H152 H 0.10442 0.94013 0.36237 0.0
H153 H 0.07652 0.91715 0.33207 0.0
H154 H 0.11382 0.92426 0.40151 0.0
H155 H 0.08633 0.9017 0.37218 0.0
H156 H 0.12806 0.98314 0.28673 0.0
H157 H 0.11719 0.94219 0.30179 0.0
H158 H 0.10835 0.97694 0.26681 0.0
H159 H 0.13676 0.94899 0.3208 0.0
H160 H 0.10855 0.90018 0.23806 0.0
H161 H 0.12421 0.92883 0.17339 0.0
H162 H 0.07656 0.97745 0.44076 0.0
H163 H 0.11357 0.97468 0.42942 0.0
H164 H 0.09141 0.94493 0.15602 0.0
H165 H 0.07212 0.92243 0.23663 0.0
H166 H 0.09409 0.92857 0.10701 0.0
H167 H 0.07509 0.90648 0.18612 0.0
H168 H 0.0539 0.9695 0.29465 0.0
H169 H 0.08981 0.97874 0.30023 0.0
H170 H 0.04882 0.99021 0.30254 0.0
H171 H 0.08413 0.99928 0.30803 0.0
H172 H 0.03715 0.9244 0.33425 0.0
H173 H 0.03387 0.94754 0.22934 0.0
H174 H 0.10415 0.9809 0.13074 0.0
H175 H 0.06787 0.9875 0.15084 0.0
Li176 Li 0.31127 0.84521 0.52915 0.0
Li177 Li 0.29681 0.83821 0.57533 0.0
Li178 Li 0.30935 0.82468 0.53879 0.0
Li179 Li 0.29471 0.83607 0.50046 0.0
C180 C 0.31772 0.84354 0.6122 0.0
N181 N 0.32527 0.85809 0.67458 0.0
C182 C 0.31392 0.85498 0.61365 0.0
C183 C 0.32537 0.83951 0.64246 0.0
C184 C 0.31783 0.86219 0.64544 0.0
C185 C 0.32908 0.847 0.67374 0.0
C186 C 0.28422 0.85508 0.5348 0.0
C187 C 0.26367 0.85274 0.54295 0.0
N188 N 0.26229 0.86434 0.53896 0.0
C189 C 0.2826 0.86697 0.53075 0.0
C190 C 0.27469 0.84789 0.54093 0.0
C191 C 0.27144 0.87149 0.53295 0.0
C192 C 0.31709 0.86481 0.48564 0.0
N193 N 0.32153 0.85747 0.51435 0.0
C194 C 0.34002 0.86651 0.50899 0.0
C195 C 0.33272 0.85825 0.5268 0.0
C196 C 0.33572 0.87404 0.47836 0.0
C197 C 0.32404 0.87319 0.46724 0.0
H198 H 0.30823 0.86384 0.47579 0.0
H199 H 0.33608 0.85218 0.54929 0.0
C200 C 0.28575 0.82999 0.64606 0.0
N201 N 0.28841 0.83997 0.62615 0.0
C202 C 0.27905 0.83016 0.68208 0.0
C203 C 0.27811 0.85093 0.67718 0.0
C204 C 0.28483 0.85036 0.64106 0.0
C205 C 0.27507 0.84072 0.69814 0.0
H206 H 0.28872 0.82186 0.63354 0.0
H207 H 0.2871 0.85819 0.62474 0.0
C208 C 0.32107 0.83504 0.46535 0.0
N209 N 0.34166 0.84009 0.42604 0.0
C210 C 0.32106 0.84009 0.42591 0.0
C211 C 0.33157 0.83249 0.48468 0.0
C212 C 0.33155 0.84261 0.4066 0.0
C213 C 0.34188 0.83511 0.4643 0.0
C214 C 0.28812 0.81398 0.52921 0.0
C215 C 0.29211 0.80972 0.49115 0.0
C216 C 0.28012 0.80759 0.55213 0.0
C217 C 0.28805 0.7991 0.47674 0.0
C218 C 0.27625 0.79702 0.5366 0.0
N219 N 0.28027 0.79303 0.49958 0.0
C220 C 0.31309 0.80308 0.57566 0.0
C221 C 0.32087 0.80477 0.50783 0.0
C222 C 0.31521 0.79121 0.57576 0.0
N223 N 0.31572 0.80953 0.5417 0.0
C224 C 0.32325 0.79297 0.50676 0.0
C225 C 0.32008 0.78593 0.54049 0.0
H226 H 0.30869 0.80704 0.60166 0.0
H227 H 0.32253 0.80997 0.48064 0.0
C228 C 0.28744 0.84423 0.42409 0.0
N229 N 0.28452 0.83655 0.45416 0.0
C230 C 0.28103 0.84492 0.38752 0.0
C231 C 0.26836 0.83012 0.41433 0.0
C232 C 0.27501 0.82977 0.45051 0.0
C233 C 0.27145 0.83766 0.38194 0.0
H234 H 0.29482 0.84979 0.42854 0.0
H235 H 0.2726 0.824 0.47538 0.0
O236 O 0.31403 0.83624 0.58154 0.0
O237 O 0.29514 0.85062 0.53274 0.0
O238 O 0.3109 0.83287 0.4855 0.0
O239 O 0.29222 0.82419 0.54466 0.0
H240 H 0.30803 0.8583 0.59056 0.0
H241 H 0.32839 0.83068 0.64176 0.0
H242 H 0.31495 0.87106 0.64693 0.0
H243 H 0.335 0.84399 0.69737 0.0
H244 H 0.25622 0.84729 0.54772 0.0
H245 H 0.2899 0.87264 0.526 0.0
H246 H 0.27573 0.83868 0.54422 0.0
H247 H 0.27006 0.88068 0.5299 0.0
H248 H 0.34895 0.86692 0.5187 0.0
H249 H 0.32038 0.87865 0.44333 0.0
H250 H 0.27681 0.82205 0.69666 0.0
H251 H 0.27537 0.85928 0.68863 0.0
H252 H 0.31304 0.84209 0.41037 0.0
H253 H 0.33174 0.82871 0.51543 0.0
H254 H 0.33167 0.84657 0.37617 0.0
H255 H 0.35006 0.83325 0.47903 0.0
H256 H 0.29828 0.81453 0.47291 0.0
H257 H 0.27695 0.81075 0.58164 0.0
H258 H 0.29109 0.7957 0.44742 0.0
H259 H 0.27007 0.79198 0.55404 0.0
H260 H 0.31243 0.78615 0.6022 0.0
H261 H 0.32713 0.78933 0.4791 0.0
H262 H 0.28354 0.85108 0.36392 0.0
H263 H 0.26106 0.82436 0.41143 0.0
Li264 Li 0.40647 0.06135 0.77746 0.0
Li265 Li 0.41313 0.04561 0.82444 0.0
Li266 Li 0.42694 0.0568 0.78319 0.0
Li267 Li 0.41405 0.04381 0.75024 0.0
C268 C 0.41095 0.06733 0.86148 0.0
N269 N 0.39943 0.07657 0.92891 0.0
C270 C 0.39946 0.06435 0.86913 0.0
C271 C 0.41658 0.075 0.88814 0.0
C272 C 0.39379 0.06911 0.90338 0.0
C273 C 0.41061 0.07959 0.92205 0.0
C274 C 0.39343 0.03685 0.77037 0.0
C275 C 0.38854 0.01664 0.76871 0.0
N276 N 0.38074 0.01878 0.7381 0.0
C277 C 0.38533 0.03887 0.73906 0.0
C278 C 0.39504 0.02566 0.78545 0.0
C279 C 0.37901 0.02961 0.72309 0.0
C280 C 0.3915 0.07185 0.72377 0.0
N281 N 0.3954 0.073 0.76342 0.0
C282 C 0.38409 0.0901 0.77237 0.0
C283 C 0.39196 0.08199 0.78772 0.0
C284 C 0.38 0.0891 0.7314 0.0
C285 C 0.38383 0.07985 0.707 0.0
H286 H 0.39452 0.06475 0.70487 0.0
H287 H 0.39542 0.083 0.81866 0.0
C288 C 0.42064 0.03269 0.89282 0.0
N289 N 0.41104 0.03726 0.87506 0.0
C290 C 0.41971 0.02548 0.92742 0.0
C291 C 0.39905 0.02815 0.92592 0.0
C292 C 0.40036 0.0352 0.89095 0.0
C293 C 0.4088 0.02304 0.94417 0.0
H294 H 0.42902 0.03448 0.87952 0.0
H295 H 0.39284 0.03876 0.87582 0.0
C296 C 0.42022 0.07025 0.71629 0.0
N297 N 0.42482 0.0919 0.68442 0.0
C298 C 0.42086 0.07191 0.67334 0.0
C299 C 0.42189 0.07961 0.74306 0.0
C300 C 0.42321 0.08292 0.65783 0.0
C301 C 0.42421 0.09048 0.72632 0.0
C302 C 0.43545 0.03481 0.77182 0.0
C303 C 0.43873 0.03817 0.73177 0.0
C304 C 0.44181 0.02638 0.79267 0.0
C305 C 0.44837 0.03306 0.71336 0.0
C306 C 0.4514 0.02146 0.77317 0.0
N307 N 0.45445 0.02488 0.73427 0.0
C308 C 0.44893 0.06084 0.81819 0.0
C309 C 0.4477 0.06536 0.74655 0.0
C310 C 0.46086 0.06268 0.81771 0.0
N311 N 0.44265 0.06204 0.78277 0.0
C312 C 0.45953 0.06743 0.7448 0.0
C313 C 0.46637 0.06579 0.78037 0.0
H314 H 0.44475 0.05793 0.84636 0.0
H315 H 0.44271 0.06588 0.71835 0.0
C316 C 0.40896 0.03761 0.66817 0.0
N317 N 0.41238 0.03331 0.70544 0.0
C318 C 0.40789 0.03034 0.63386 0.0
C319 C 0.41364 0.0143 0.67726 0.0
C320 C 0.41467 0.0219 0.71068 0.0
C321 C 0.41031 0.01853 0.63814 0.0
H322 H 0.40711 0.04671 0.66514 0.0
H323 H 0.41735 0.01874 0.74078 0.0
O324 O 0.4168 0.06265 0.82862 0.0
O325 O 0.39993 0.04574 0.78565 0.0
O326 O 0.41772 0.05952 0.73169 0.0
O327 O 0.42611 0.03976 0.79082 0.0
H328 H 0.39492 0.05853 0.84866 0.0
H329 H 0.42549 0.07736 0.8827 0.0
H330 H 0.38489 0.0669 0.90961 0.0
H331 H 0.41486 0.08554 0.94293 0.0
H332 H 0.38975 0.00792 0.77988 0.0
H333 H 0.38397 0.04747 0.72706 0.0
H334 H 0.40138 0.02392 0.80929 0.0
H335 H 0.37275 0.03103 0.69871 0.0
H336 H 0.3814 0.09722 0.79195 0.0
H337 H 0.38084 0.07874 0.67535 0.0
H338 H 0.42745 0.0218 0.94086 0.0
H339 H 0.39047 0.0264 0.93771 0.0
H340 H 0.41956 0.06477 0.6522 0.0
H341 H 0.42139 0.07855 0.77636 0.0
H342 H 0.42374 0.08433 0.62465 0.0
H343 H 0.42552 0.0978 0.74666 0.0
H344 H 0.43392 0.04465 0.71501 0.0
H345 H 0.43938 0.02365 0.82361 0.0
H346 H 0.45101 0.0356 0.68244 0.0
H347 H 0.45641 0.01493 0.78899 0.0
H348 H 0.46577 0.06114 0.84579 0.0
H349 H 0.46332 0.06996 0.71543 0.0
H350 H 0.40516 0.0339 0.60434 0.0
H351 H 0.41568 0.00527 0.68174 0.0
Li352 Li 0.2055 0.83523 0.06846 0.0
Li353 Li 0.19224 0.82385 0.02464 0.0
Li354 Li 0.20396 0.839 0.9943 0.0
Li355 Li 0.18851 0.8438 0.04038 0.0
C356 C 0.21406 0.81452 0.03487 0.0
N357 N 0.22315 0.79368 0.06063 0.0
C358 C 0.21039 0.80952 0.07215 0.0
C359 C 0.22239 0.80892 0.01078 0.0
C360 C 0.21508 0.79898 0.08461 0.0
C361 C 0.22687 0.79839 0.02433 0.0
C362 C 0.17876 0.83056 0.09775 0.0
C363 C 0.15816 0.8281 0.09245 0.0
N364 N 0.15701 0.83152 0.13268 0.0
C365 C 0.17739 0.834 0.1391 0.0
C366 C 0.16908 0.82756 0.07422 0.0
C367 C 0.16632 0.83445 0.15616 0.0
C368 C 0.21092 0.84139 0.14914 0.0
N369 N 0.21515 0.83542 0.11618 0.0
C370 C 0.23207 0.83039 0.15444 0.0
C371 C 0.22561 0.83015 0.11781 0.0
C372 C 0.22777 0.83624 0.18946 0.0
C373 C 0.21709 0.8419 0.18628 0.0
H374 H 0.20274 0.8458 0.14645 0.0
H375 H 0.22894 0.8257 0.09083 0.0
C376 C 0.18891 0.80405 0.97672 0.0
N377 N 0.18708 0.80849 0.01522 0.0
C378 C 0.18786 0.7922 0.96986 0.0
C379 C 0.18253 0.78981 0.04199 0.0
C380 C 0.18368 0.80171 0.04745 0.0
C381 C 0.18499 0.78486 0.00308 0.0
H382 H 0.19182 0.80964 0.95191 0.0
H383 H 0.1826 0.80542 0.07804 0.0
C384 C 0.21472 0.85583 0.0417 0.0
N385 N 0.23582 0.86689 0.04396 0.0
C386 C 0.21532 0.86761 0.0506 0.0
C387 C 0.22487 0.84966 0.03399 0.0
C388 C 0.22606 0.87305 0.05158 0.0
C389 C 0.23545 0.85542 0.03527 0.0
C390 C 0.18307 0.84373 0.95624 0.0
C391 C 0.18604 0.8554 0.95885 0.0
C392 C 0.17598 0.83993 0.92387 0.0
C393 C 0.18186 0.86307 0.92896 0.0
C394 C 0.17198 0.84788 0.89459 0.0
N395 N 0.17498 0.85919 0.89772 0.0
C396 C 0.21644 0.83295 0.92418 0.0
C397 C 0.21579 0.85322 0.93349 0.0
C398 C 0.22382 0.83415 0.89021 0.0
N399 N 0.21276 0.84237 0.94547 0.0
C400 C 0.22311 0.85483 0.89929 0.0
C401 C 0.22738 0.84519 0.87765 0.0
H402 H 0.21377 0.82445 0.93407 0.0
H403 H 0.21275 0.86059 0.95095 0.0
C404 C 0.18046 0.86051 0.09303 0.0
N405 N 0.17715 0.85466 0.05844 0.0
C406 C 0.17264 0.86745 0.11434 0.0
C407 C 0.15819 0.86273 0.0629 0.0
C408 C 0.1663 0.8557 0.04276 0.0
C409 C 0.16129 0.8685 0.09972 0.0
H410 H 0.1891 0.85939 0.10501 0.0
H411 H 0.16382 0.85077 0.01566 0.0
O412 O 0.2094 0.82471 0.02142 0.0
O413 O 0.18947 0.83053 0.07983 0.0
O414 O 0.20422 0.85046 0.04071 0.0
O415 O 0.18703 0.83598 0.98494 0.0
H416 H 0.20398 0.81371 0.09132 0.0
H417 H 0.22535 0.81266 0.98189 0.0
H418 H 0.2123 0.79501 0.11333 0.0
H419 H 0.23331 0.79396 0.00595 0.0
H420 H 0.15059 0.82587 0.07453 0.0
H421 H 0.18477 0.83636 0.15778 0.0
H422 H 0.16998 0.82502 0.04201 0.0
H423 H 0.16512 0.83716 0.18805 0.0
H424 H 0.24024 0.82588 0.1555 0.0
H425 H 0.21357 0.84676 0.2121 0.0
H426 H 0.18972 0.78877 0.93927 0.0
H427 H 0.18048 0.78448 0.06862 0.0
H428 H 0.20754 0.87249 0.05666 0.0
H429 H 0.22463 0.84056 0.02697 0.0
H430 H 0.22665 0.88217 0.05841 0.0
H431 H 0.24336 0.85076 0.02932 0.0
H432 H 0.19147 0.85855 0.98364 0.0
H433 H 0.17361 0.83093 0.92142 0.0
H434 H 0.1841 0.87212 0.93062 0.0
H435 H 0.1665 0.84506 0.86937 0.0
H436 H 0.22673 0.82651 0.87394 0.0
H437 H 0.22566 0.86349 0.89065 0.0
H438 H 0.17539 0.87184 0.14236 0.0
H439 H 0.14949 0.86329 0.05083 0.0
Li440 Li 0.4284 0.9418 0.2814 0.0
Li441 Li 0.41532 0.95633 0.31817 0.0
Li442 Li 0.40794 0.93796 0.29277 0.0
Li443 Li 0.41289 0.95262 0.24301 0.0
C444 C 0.41766 0.93266 0.36496 0.0
N445 N 0.41136 0.91631 0.42314 0.0
C446 C 0.41207 0.93601 0.40152 0.0
C447 C 0.42013 0.92101 0.35813 0.0
C448 C 0.40894 0.92761 0.43053 0.0
C449 C 0.41684 0.91287 0.38788 0.0
C450 C 0.42864 0.97007 0.26201 0.0
C451 C 0.42176 0.9895 0.25204 0.0
N452 N 0.43242 0.99266 0.23853 0.0
C453 C 0.43951 0.9735 0.24805 0.0
C454 C 0.41968 0.97811 0.26406 0.0
C455 C 0.44126 0.98497 0.23633 0.0
C456 C 0.45059 0.9407 0.24684 0.0
N457 N 0.44399 0.93686 0.27888 0.0
C458 C 0.4605 0.92872 0.31219 0.0
C459 C 0.44865 0.93083 0.31093 0.0
C460 C 0.46766 0.93305 0.28054 0.0
C461 C 0.4625 0.9389 0.24704 0.0
H462 H 0.44665 0.94563 0.22207 0.0
H463 H 0.44325 0.92804 0.33638 0.0
C464 C 0.40479 0.96892 0.38219 0.0
N465 N 0.41479 0.96744 0.36086 0.0
C466 C 0.40425 0.97679 0.41497 0.0
C467 C 0.42428 0.98155 0.40264 0.0
C468 C 0.42445 0.97353 0.37032 0.0
C469 C 0.41411 0.9832 0.42559 0.0
H470 H 0.39727 0.96387 0.37401 0.0
H471 H 0.43231 0.97205 0.35303 0.0
C472 C 0.41278 0.92762 0.2151 0.0
N473 N 0.40413 0.91068 0.16343 0.0
C474 C 0.40318 0.92988 0.19014 0.0
C475 C 0.41813 0.91684 0.21319 0.0
C476 C 0.3989 0.92117 0.1644 0.0
C477 C 0.41359 0.90836 0.18703 0.0
C478 C 0.39011 0.95619 0.27575 0.0
C479 C 0.38323 0.94805 0.25541 0.0
C480 C 0.38565 0.96713 0.28443 0.0
C481 C 0.37204 0.95106 0.24356 0.0
C482 C 0.37442 0.96981 0.27205 0.0
N483 N 0.36791 0.96179 0.25201 0.0
C484 C 0.38945 0.93041 0.34 0.0
C485 C 0.39722 0.91519 0.29969 0.0
C486 C 0.38207 0.92279 0.36047 0.0
N487 N 0.39695 0.92652 0.31068 0.0
C488 C 0.38988 0.90726 0.31915 0.0
C489 C 0.38229 0.91098 0.35055 0.0
H490 H 0.38958 0.93941 0.34886 0.0
H491 H 0.40339 0.91219 0.27711 0.0
C492 C 0.42039 0.96117 0.16748 0.0
N493 N 0.41069 0.96045 0.19104 0.0
C494 C 0.42055 0.96788 0.13148 0.0
C495 C 0.40055 0.97265 0.1434 0.0
C496 C 0.40081 0.96591 0.17948 0.0
C497 C 0.41057 0.97386 0.11913 0.0
H498 H 0.42816 0.95685 0.17762 0.0
H499 H 0.39318 0.96528 0.19849 0.0
O500 O 0.42047 0.94072 0.33563 0.0
O501 O 0.42671 0.95882 0.27277 0.0
O502 O 0.41718 0.93604 0.24021 0.0
O503 O 0.40107 0.95344 0.28785 0.0
H504 H 0.41008 0.94499 0.40724 0.0
H505 H 0.42431 0.91826 0.32972 0.0
H506 H 0.40455 0.93006 0.45885 0.0
H507 H 0.41859 0.90381 0.38281 0.0
H508 H 0.4149 0.99581 0.25336 0.0
H509 H 0.44653 0.96736 0.24618 0.0
H510 H 0.41119 0.97556 0.27453 0.0
H511 H 0.44963 0.98776 0.22542 0.0
H512 H 0.46404 0.92402 0.33833 0.0
H513 H 0.46765 0.94255 0.22226 0.0
H514 H 0.39623 0.97787 0.43174 0.0
H515 H 0.4321 0.98621 0.41022 0.0
H516 H 0.39914 0.93829 0.1904 0.0
H517 H 0.42566 0.91502 0.23201 0.0
H518 H 0.39144 0.92278 0.14506 0.0
H519 H 0.41758 0.89993 0.18548 0.0
H520 H 0.38645 0.93949 0.24906 0.0
H521 H 0.39083 0.9735 0.30044 0.0
H522 H 0.36662 0.94486 0.22773 0.0
H523 H 0.37088 0.97826 0.27839 0.0
H524 H 0.37659 0.92609 0.38495 0.0
H525 H 0.39029 0.89827 0.31006 0.0
H526 H 0.42854 0.96867 0.11434 0.0
H527 H 0.3926 0.97693 0.13486 0.0
Li528 Li 0.29413 0.16622 0.57723 0.0
Li529 Li 0.30704 0.17829 0.5342 0.0
Li530 Li 0.29543 0.163 0.50423 0.0
Li531 Li 0.31177 0.15811 0.5505 0.0
C532 C 0.28128 0.18129 0.50922 0.0
N533 N 0.26371 0.18919 0.45858 0.0
C534 C 0.28309 0.19075 0.48309 0.0
C535 C 0.27046 0.17598 0.51006 0.0
C536 C 0.27411 0.1946 0.45765 0.0
C537 C 0.26171 0.18005 0.48406 0.0
C538 C 0.32073 0.175 0.60279 0.0
C539 C 0.34074 0.17921 0.58914 0.0
N540 N 0.34211 0.18248 0.62945 0.0
C541 C 0.32232 0.17841 0.64405 0.0
C542 C 0.33001 0.17541 0.57505 0.0
C543 C 0.3332 0.18216 0.65694 0.0
C544 C 0.28683 0.15932 0.65705 0.0
N545 N 0.28434 0.16634 0.62443 0.0
C546 C 0.26747 0.17331 0.65867 0.0
C547 C 0.27499 0.17339 0.62485 0.0
C548 C 0.26956 0.16586 0.69233 0.0
C549 C 0.27945 0.15884 0.69127 0.0
H550 H 0.29445 0.15395 0.65613 0.0
H551 H 0.27338 0.17909 0.59895 0.0
C552 C 0.31521 0.19713 0.48677 0.0
N553 N 0.31257 0.19353 0.52584 0.0
C554 C 0.31752 0.20878 0.47918 0.0
C555 C 0.31514 0.21258 0.5526 0.0
C556 C 0.31265 0.20092 0.55864 0.0
C557 C 0.3173 0.21668 0.51229 0.0
H558 H 0.31494 0.19106 0.46124 0.0
H559 H 0.31034 0.19784 0.58925 0.0
C560 C 0.28992 0.14359 0.57176 0.0
N561 N 0.27728 0.1286 0.62063 0.0
C562 C 0.29552 0.13526 0.59582 0.0
C563 C 0.27788 0.14415 0.572 0.0
C564 C 0.28898 0.12779 0.62044 0.0
C565 C 0.27165 0.13654 0.59709 0.0
C566 C 0.31691 0.15902 0.46537 0.0
C567 C 0.31194 0.14823 0.45772 0.0
C568 C 0.32655 0.16249 0.44256 0.0
C569 C 0.31674 0.14109 0.42733 0.0
C570 C 0.33112 0.15508 0.41252 0.0
N571 N 0.32615 0.14462 0.40558 0.0
C572 C 0.28712 0.16729 0.4239 0.0
C573 C 0.2787 0.15081 0.45526 0.0
C574 C 0.27908 0.16694 0.39168 0.0
N575 N 0.28649 0.15959 0.45566 0.0
C576 C 0.27063 0.14998 0.42308 0.0
C577 C 0.27054 0.15837 0.39167 0.0
H578 H 0.29343 0.17416 0.42502 0.0
H579 H 0.27841 0.14478 0.48084 0.0
C580 C 0.32499 0.1471 0.61008 0.0
N581 N 0.32382 0.14774 0.56809 0.0
C582 C 0.33329 0.13997 0.62799 0.0
C583 C 0.33892 0.13385 0.55922 0.0
C584 C 0.33063 0.14133 0.54254 0.0
C585 C 0.34037 0.13308 0.60264 0.0
H586 H 0.31937 0.15211 0.62991 0.0
H587 H 0.32963 0.14188 0.5093 0.0
O588 O 0.29006 0.17724 0.53369 0.0
O589 O 0.31011 0.17129 0.58989 0.0
O590 O 0.2962 0.15106 0.54781 0.0
O591 O 0.31229 0.1663 0.49439 0.0
H592 H 0.29135 0.19505 0.48217 0.0
H593 H 0.26885 0.16873 0.53027 0.0
H594 H 0.27543 0.20186 0.43707 0.0
H595 H 0.25334 0.17593 0.4841 0.0
H596 H 0.348 0.17957 0.56803 0.0
H597 H 0.31522 0.17813 0.66589 0.0
H598 H 0.32896 0.1728 0.54301 0.0
H599 H 0.33456 0.18482 0.6888 0.0
H600 H 0.26014 0.1791 0.65851 0.0
H601 H 0.28138 0.15289 0.71623 0.0
H602 H 0.31914 0.21164 0.44767 0.0
H603 H 0.31474 0.21844 0.57879 0.0
H604 H 0.30481 0.13453 0.59548 0.0
H605 H 0.27339 0.15046 0.5534 0.0
H606 H 0.29321 0.12135 0.63937 0.0
H607 H 0.26233 0.13697 0.59787 0.0
H608 H 0.30452 0.14534 0.47517 0.0
H609 H 0.33047 0.17083 0.44805 0.0
H610 H 0.313 0.13271 0.42114 0.0
H611 H 0.3386 0.15765 0.39467 0.0
H612 H 0.27926 0.17352 0.36779 0.0
H613 H 0.26413 0.14327 0.42397 0.0
H614 H 0.33415 0.13995 0.66148 0.0
H615 H 0.34399 0.12862 0.53819 0.0
Li616 Li 0.07388 0.05852 0.77442 0.0
Li617 Li 0.08609 0.04532 0.80988 0.0
Li618 Li 0.09397 0.06308 0.78702 0.0
Li619 Li 0.08855 0.04786 0.73608 0.0
C620 C 0.07854 0.07132 0.84465 0.0
N621 N 0.07252 0.09252 0.87734 0.0
C622 C 0.07681 0.07257 0.88739 0.0
C623 C 0.07721 0.08086 0.81851 0.0
C624 C 0.07377 0.08336 0.90333 0.0
C625 C 0.07417 0.09151 0.83565 0.0
C626 C 0.06526 0.03636 0.77978 0.0
C627 C 0.0492 0.02349 0.76881 0.0
N628 N 0.0453 0.02589 0.80773 0.0
C629 C 0.06109 0.0387 0.81969 0.0
C630 C 0.05928 0.02869 0.75412 0.0
C631 C 0.05099 0.03332 0.83324 0.0
C632 C 0.05384 0.0642 0.73034 0.0
N633 N 0.05833 0.0637 0.7693 0.0
C634 C 0.03977 0.06719 0.79916 0.0
C635 C 0.05162 0.06534 0.80346 0.0
C636 C 0.03479 0.06728 0.75934 0.0
C637 C 0.04204 0.06602 0.7246 0.0
H638 H 0.05937 0.0627 0.70379 0.0
H639 H 0.05533 0.06463 0.83416 0.0
C640 C 0.0903 0.03893 0.8918 0.0
N641 N 0.08704 0.03462 0.85435 0.0
C642 C 0.09116 0.03169 0.92622 0.0
C643 C 0.08547 0.01566 0.88266 0.0
C644 C 0.08465 0.02324 0.84909 0.0
C645 C 0.08869 0.01989 0.9219 0.0
H646 H 0.09226 0.04802 0.89483 0.0
H647 H 0.0821 0.02006 0.81884 0.0
C648 C 0.09175 0.07001 0.70367 0.0
N649 N 0.10524 0.08044 0.64369 0.0
C650 C 0.10318 0.06652 0.69788 0.0
C651 C 0.08718 0.0788 0.67894 0.0
C652 C 0.10985 0.0719 0.6674 0.0
C653 C 0.09414 0.08397 0.64879 0.0
C654 C 0.10692 0.03823 0.79284 0.0
C655 C 0.11521 0.03957 0.82399 0.0
C656 C 0.10463 0.02725 0.77691 0.0
C657 C 0.12103 0.02987 0.83892 0.0
C658 C 0.11064 0.01776 0.79262 0.0
N659 N 0.11864 0.01925 0.82307 0.0
C660 C 0.10887 0.07241 0.84381 0.0
C661 C 0.10696 0.08476 0.78557 0.0
C662 C 0.1161 0.08029 0.86359 0.0
N663 N 0.10453 0.07469 0.80547 0.0
C664 C 0.11417 0.09295 0.80436 0.0
C665 C 0.11885 0.09075 0.84396 0.0
H666 H 0.10645 0.06453 0.85954 0.0
H667 H 0.10316 0.08655 0.7556 0.0
C668 C 0.08118 0.03814 0.66249 0.0
N669 N 0.09097 0.04016 0.68444 0.0
C670 C 0.08149 0.0315 0.62636 0.0
C671 C 0.10208 0.02935 0.63526 0.0
C672 C 0.10135 0.03606 0.67141 0.0
C673 C 0.09202 0.02688 0.61242 0.0
H674 H 0.07304 0.04145 0.67381 0.0
H675 H 0.10902 0.03776 0.6896 0.0
O676 O 0.08164 0.06079 0.82891 0.0
O677 O 0.07505 0.04162 0.76547 0.0
O678 O 0.08497 0.06492 0.73325 0.0
O679 O 0.10091 0.04758 0.77852 0.0
H680 H 0.07781 0.06527 0.90805 0.0
H681 H 0.07852 0.08011 0.78538 0.0
H682 H 0.0724 0.08445 0.93636 0.0
H683 H 0.07313 0.09896 0.8158 0.0
H684 H 0.04448 0.01754 0.74926 0.0
H685 H 0.06556 0.04463 0.83998 0.0
H686 H 0.06238 0.0268 0.72313 0.0
H687 H 0.04766 0.03507 0.86401 0.0
H688 H 0.03451 0.06792 0.82684 0.0
H689 H 0.03858 0.06613 0.69334 0.0
H690 H 0.09382 0.03526 0.95583 0.0
H691 H 0.08341 0.00663 0.87817 0.0
H692 H 0.1069 0.05977 0.7167 0.0
H693 H 0.07835 0.0816 0.68306 0.0
H694 H 0.11871 0.06929 0.6626 0.0
H695 H 0.09072 0.09079 0.62945 0.0
H696 H 0.11714 0.048 0.83656 0.0
H697 H 0.09811 0.02603 0.75328 0.0
H698 H 0.12744 0.03077 0.86312 0.0
H699 H 0.10889 0.00921 0.78079 0.0
H700 H 0.11925 0.07834 0.89448 0.0
H701 H 0.11605 0.10091 0.7881 0.0
H702 H 0.07349 0.0297 0.61031 0.0
H703 H 0.11039 0.02607 0.62549 0.0
Li704 Li 0.812 0.84265 0.0447 0.0
Li705 Li 0.79397 0.83451 0.06958 0.0
Li706 Li 0.80741 0.82291 0.02733 0.0
Li707 Li 0.79592 0.83848 0.99602 0.0
C708 C 0.81759 0.8313 0.11347 0.0
N709 N 0.83377 0.83636 0.17379 0.0
C710 C 0.81424 0.83678 0.15023 0.0
C711 C 0.82914 0.82827 0.10756 0.0
C712 C 0.82255 0.83929 0.18033 0.0
C713 C 0.8372 0.83095 0.13837 0.0
C714 C 0.79207 0.85935 0.02535 0.0
C715 C 0.77603 0.87047 0.99936 0.0
N716 N 0.78348 0.87882 0.98671 0.0
C717 C 0.79957 0.86804 0.01209 0.0
C718 C 0.7802 0.86057 0.01901 0.0
C719 C 0.79506 0.87783 0.99265 0.0
C720 C 0.83468 0.85306 0.04845 0.0
N721 N 0.82369 0.85311 0.0631 0.0
C722 C 0.82866 0.86694 0.11524 0.0
C723 C 0.82054 0.86001 0.09529 0.0
C724 C 0.84019 0.86694 0.10162 0.0
C725 C 0.8431 0.85998 0.06722 0.0
H726 H 0.83698 0.84744 0.02291 0.0
H727 H 0.81175 0.85978 0.10655 0.0
C728 C 0.78317 0.82487 0.14028 0.0
N729 N 0.78377 0.83436 0.11562 0.0
C730 C 0.77579 0.82472 0.17456 0.0
C731 C 0.77002 0.84422 0.15783 0.0
C732 C 0.77746 0.84396 0.1238 0.0
C733 C 0.76909 0.83451 0.18373 0.0
H734 H 0.78843 0.81741 0.13329 0.0
H735 H 0.7783 0.85147 0.10416 0.0
C736 C 0.81929 0.82958 0.96078 0.0
N737 N 0.83222 0.81701 0.90468 0.0
C738 C 0.81518 0.82772 0.92051 0.0
C739 C 0.83003 0.82516 0.97243 0.0
C740 C 0.82184 0.82132 0.89261 0.0
C741 C 0.83642 0.81879 0.94365 0.0
C742 C 0.78123 0.81828 0.03759 0.0
C743 C 0.78256 0.807 0.05213 0.0
C744 C 0.77044 0.82363 0.04008 0.0
C745 C 0.77308 0.80127 0.06918 0.0
C746 C 0.76118 0.81762 0.05743 0.0
N747 N 0.76268 0.80666 0.07151 0.0
C748 C 0.81689 0.80109 0.04924 0.0
C749 C 0.80949 0.80258 0.98082 0.0
C750 C 0.81838 0.78919 0.04449 0.0
N751 N 0.81234 0.80746 0.01781 0.0
C752 C 0.81101 0.79078 0.97448 0.0
C753 C 0.81516 0.78381 0.00699 0.0
H754 H 0.81875 0.80513 0.07878 0.0
H755 H 0.80553 0.80776 0.95685 0.0
C756 C 0.7894 0.85175 0.92269 0.0
N757 N 0.78728 0.84237 0.94698 0.0
C758 C 0.7824 0.85407 0.88812 0.0
C759 C 0.77148 0.83686 0.9036 0.0
C760 C 0.77865 0.83489 0.93755 0.0
C761 C 0.7732 0.84661 0.87855 0.0
H762 H 0.79647 0.85746 0.93022 0.0
H763 H 0.77733 0.82729 0.95627 0.0
O764 O 0.80964 0.82907 0.08313 0.0
O765 O 0.79631 0.84967 0.04419 0.0
O766 O 0.81286 0.83575 0.9886 0.0
O767 O 0.79045 0.82413 0.02144 0.0
H768 H 0.80534 0.83922 0.15522 0.0
H769 H 0.83187 0.82401 0.0793 0.0
H770 H 0.8201 0.8436 0.20879 0.0
H771 H 0.84619 0.82874 0.13409 0.0
H772 H 0.76688 0.87149 0.99406 0.0
H773 H 0.80878 0.86721 0.01646 0.0
H774 H 0.77429 0.85387 0.02874 0.0
H775 H 0.80076 0.88461 0.98215 0.0
H776 H 0.82598 0.87192 0.142 0.0
H777 H 0.85181 0.85981 0.05512 0.0
H778 H 0.77527 0.81701 0.19345 0.0
H779 H 0.76522 0.85204 0.16418 0.0
H780 H 0.80689 0.83111 0.91098 0.0
H781 H 0.83333 0.82654 0.00346 0.0
H782 H 0.81874 0.81976 0.8614 0.0
H783 H 0.84471 0.81525 0.9523 0.0
H784 H 0.79084 0.80273 0.05058 0.0
H785 H 0.76928 0.83238 0.02918 0.0
H786 H 0.77399 0.79256 0.0807 0.0
H787 H 0.7528 0.82168 0.05981 0.0
H788 H 0.82141 0.78419 0.07073 0.0
H789 H 0.80857 0.7871 0.94482 0.0
H790 H 0.78407 0.86166 0.86949 0.0
H791 H 0.76474 0.83068 0.89673 0.0
Li792 Li 0.907 0.06319 0.797 0.0
Li793 Li 0.91538 0.04609 0.82577 0.0
Li794 Li 0.92762 0.05919 0.78723 0.0
Li795 Li 0.91291 0.04672 0.75064 0.0
C796 C 0.91549 0.06615 0.87706 0.0
N797 N 0.9073 0.07432 0.95215 0.0
C798 C 0.90531 0.06171 0.8939 0.0
C799 C 0.92153 0.07473 0.89844 0.0
C800 C 0.90131 0.06595 0.93188 0.0
C801 C 0.91724 0.07875 0.93637 0.0
C802 C 0.89251 0.03922 0.80269 0.0
C803 C 0.88409 0.0204 0.79205 0.0
N804 N 0.87561 0.02306 0.81962 0.0
C805 C 0.88363 0.04179 0.83061 0.0
C806 C 0.89268 0.02846 0.78297 0.0
C807 C 0.8752 0.0335 0.8389 0.0
C808 C 0.88438 0.07247 0.80114 0.0
N809 N 0.89568 0.07486 0.80833 0.0
C810 C 0.89057 0.09188 0.8462 0.0
C811 C 0.89889 0.08456 0.82908 0.0
C812 C 0.87879 0.08929 0.84152 0.0
C813 C 0.87576 0.07962 0.81735 0.0
H814 H 0.88204 0.06472 0.78445 0.0
H815 H 0.90791 0.0863 0.83452 0.0
C816 C 0.92315 0.03925 0.90486 0.0
N817 N 0.91596 0.03606 0.87349 0.0
C818 C 0.9242 0.03245 0.94041 0.0
C819 C 0.91079 0.0189 0.91023 0.0
C820 C 0.90996 0.026 0.87539 0.0
C821 C 0.91792 0.02213 0.94354 0.0
H822 H 0.92816 0.04708 0.90219 0.0
H823 H 0.90471 0.02329 0.84964 0.0
C824 C 0.91728 0.0751 0.73163 0.0
N825 N 0.91974 0.09788 0.70808 0.0
C826 C 0.91381 0.07865 0.69208 0.0
C827 C 0.92202 0.08313 0.75921 0.0
C828 C 0.91512 0.09021 0.68075 0.0
C829 C 0.92318 0.09461 0.74672 0.0
C830 C 0.93211 0.03292 0.79971 0.0
C831 C 0.94183 0.03443 0.82478 0.0
C832 C 0.92755 0.02187 0.79397 0.0
C833 C 0.9468 0.02483 0.844 0.0
C834 C 0.93278 0.0125 0.81371 0.0
N835 N 0.9422 0.01416 0.83815 0.0
C836 C 0.94877 0.06735 0.81836 0.0
C837 C 0.94801 0.06575 0.74496 0.0
C838 C 0.96045 0.07023 0.81673 0.0
N839 N 0.94288 0.06501 0.78285 0.0
C840 C 0.95968 0.06864 0.74186 0.0
C841 C 0.96613 0.0707 0.77814 0.0
H842 H 0.94451 0.06648 0.84809 0.0
H843 H 0.9431 0.06377 0.71726 0.0
C844 C 0.90019 0.03698 0.68157 0.0
N845 N 0.91047 0.03759 0.70188 0.0
C846 C 0.89861 0.02892 0.64953 0.0
C847 C 0.91828 0.02259 0.6594 0.0
C848 C 0.91952 0.03082 0.69065 0.0
C849 C 0.90766 0.02141 0.63895 0.0
H850 H 0.89311 0.04242 0.69129 0.0
H851 H 0.92764 0.03156 0.70694 0.0
O852 O 0.91947 0.06229 0.83949 0.0
O853 O 0.90071 0.04734 0.79345 0.0
O854 O 0.91602 0.06382 0.74315 0.0
O855 O 0.9269 0.04226 0.78171 0.0
H856 H 0.90059 0.05505 0.87785 0.0
H857 H 0.92938 0.07832 0.88569 0.0
H858 H 0.89343 0.06259 0.94523 0.0
H859 H 0.9218 0.08542 0.9532 0.0
H860 H 0.88419 0.01202 0.77727 0.0
H861 H 0.88318 0.05013 0.84561 0.0
H862 H 0.89949 0.02624 0.76154 0.0
H863 H 0.86831 0.03537 0.86053 0.0
H864 H 0.8934 0.09912 0.86482 0.0
H865 H 0.86681 0.0774 0.812 0.0
H866 H 0.9298 0.03531 0.96531 0.0
H867 H 0.90604 0.01086 0.91073 0.0
H868 H 0.91012 0.07253 0.67039 0.0
H869 H 0.92475 0.08055 0.78997 0.0
H870 H 0.91246 0.09309 0.65023 0.0
H871 H 0.92682 0.10091 0.76777 0.0
H872 H 0.94542 0.04292 0.82976 0.0
H873 H 0.91997 0.02056 0.77496 0.0
H874 H 0.95429 0.02588 0.86371 0.0
H875 H 0.9293 0.00391 0.80977 0.0
H876 H 0.96509 0.07157 0.84554 0.0
H877 H 0.96366 0.06904 0.71144 0.0
H878 H 0.89029 0.02824 0.63443 0.0
H879 H 0.92551 0.01707 0.65169 0.0
Li880 Li 0.68753 0.15808 0.54762 0.0
Li881 Li 0.70563 0.16552 0.57115 0.0
Li882 Li 0.69247 0.17803 0.53335 0.0
Li883 Li 0.70313 0.16222 0.49734 0.0
C884 C 0.68426 0.16829 0.62328 0.0
N885 N 0.67204 0.16296 0.69453 0.0
C886 C 0.68883 0.16058 0.65236 0.0
C887 C 0.67354 0.1734 0.63078 0.0
C888 C 0.6825 0.15797 0.68809 0.0
C889 C 0.66748 0.17056 0.66688 0.0
C890 C 0.70193 0.13982 0.5268 0.0
C891 C 0.70606 0.11943 0.52855 0.0
N892 N 0.69945 0.11791 0.49407 0.0
C893 C 0.69515 0.13805 0.49143 0.0
C894 C 0.70742 0.13043 0.54556 0.0
C895 C 0.69402 0.12691 0.47534 0.0
C896 C 0.66477 0.1473 0.55026 0.0
N897 N 0.67578 0.14734 0.56484 0.0
C898 C 0.67119 0.13248 0.61372 0.0
C899 C 0.67913 0.1399 0.59517 0.0
C900 C 0.65965 0.13248 0.60043 0.0
C901 C 0.65653 0.13991 0.56769 0.0
H902 H 0.66231 0.15306 0.52544 0.0
H903 H 0.68797 0.13996 0.60586 0.0
C904 C 0.71614 0.17384 0.64398 0.0
N905 N 0.71637 0.16518 0.61554 0.0
C906 C 0.72323 0.17337 0.67896 0.0
C907 C 0.73071 0.15511 0.65449 0.0
C908 C 0.72354 0.15598 0.61978 0.0
C909 C 0.73051 0.16382 0.68483 0.0
H910 H 0.71023 0.18097 0.63994 0.0
H911 H 0.72351 0.14923 0.59658 0.0
C912 C 0.67649 0.17178 0.47891 0.0
N913 N 0.65741 0.18394 0.45172 0.0
C914 C 0.67517 0.17436 0.43672 0.0
C915 C 0.66807 0.17537 0.50715 0.0
C916 C 0.66548 0.18052 0.4236 0.0
C917 C 0.6585 0.1815 0.49287 0.0
C918 C 0.71893 0.18138 0.53922 0.0
C919 C 0.7182 0.19204 0.5593 0.0
C920 C 0.7296 0.17586 0.5357 0.0
C921 C 0.72818 0.19699 0.57586 0.0
C922 C 0.73938 0.18108 0.55273 0.0
N923 N 0.73847 0.19144 0.57231 0.0
C924 C 0.68493 0.19932 0.56509 0.0
C925 C 0.68733 0.19918 0.49196 0.0
C926 C 0.68238 0.21108 0.56451 0.0
N927 N 0.68744 0.19366 0.52922 0.0
C928 C 0.68473 0.21094 0.48988 0.0
C929 C 0.68238 0.21712 0.5266 0.0
H930 H 0.68535 0.19478 0.59439 0.0
H931 H 0.68954 0.19451 0.46396 0.0
C932 C 0.70814 0.16145 0.4102 0.0
N933 N 0.71158 0.15792 0.44852 0.0
C934 C 0.715 0.15923 0.37533 0.0
C935 C 0.72882 0.14977 0.41996 0.0
C936 C 0.72162 0.15204 0.45387 0.0
C937 C 0.72559 0.1535 0.38008 0.0
H938 H 0.70027 0.16629 0.40685 0.0
H939 H 0.72418 0.14936 0.48472 0.0
O940 O 0.69027 0.1709 0.58784 0.0
O941 O 0.70313 0.15061 0.54352 0.0
O942 O 0.68611 0.16612 0.49282 0.0
O943 O 0.70921 0.17626 0.52378 0.0
H944 H 0.69706 0.15647 0.64711 0.0
H945 H 0.66992 0.17953 0.60907 0.0
H946 H 0.68589 0.15193 0.71062 0.0
H947 H 0.65915 0.17442 0.67295 0.0
H948 H 0.71026 0.11209 0.54279 0.0
H949 H 0.6908 0.14516 0.47644 0.0
H950 H 0.71264 0.13163 0.57312 0.0
H951 H 0.68881 0.12543 0.44797 0.0
H952 H 0.67405 0.12705 0.63907 0.0
H953 H 0.64781 0.14004 0.55568 0.0
H954 H 0.72274 0.1802 0.70186 0.0
H955 H 0.73629 0.14767 0.65771 0.0
H956 H 0.68155 0.17167 0.41427 0.0
H957 H 0.66897 0.17347 0.53983 0.0
H958 H 0.66437 0.18259 0.39107 0.0
H959 H 0.65195 0.18435 0.51451 0.0
H960 H 0.71001 0.19641 0.56241 0.0
H961 H 0.7303 0.16758 0.52047 0.0
H962 H 0.72774 0.20521 0.59167 0.0
H963 H 0.74769 0.17688 0.55049 0.0
H964 H 0.68088 0.21547 0.59372 0.0
H965 H 0.68471 0.21517 0.45988 0.0
H966 H 0.71226 0.16238 0.34522 0.0
H967 H 0.73689 0.14527 0.42492 0.0
Li968 Li 0.58847 0.95635 0.31393 0.0
Li969 Li 0.59638 0.93807 0.29271 0.0
Li970 Li 0.59187 0.95368 0.2419 0.0
Li971 Li 0.57583 0.94335 0.2743 0.0
C972 C 0.61108 0.96037 0.30825 0.0
N973 N 0.62605 0.9743 0.35249 0.0
C974 C 0.61948 0.95546 0.33395 0.0
C975 C 0.61033 0.97237 0.30501 0.0
C976 C 0.62696 0.96265 0.35605 0.0
C977 C 0.61796 0.97926 0.32766 0.0
C978 C 0.58211 0.94106 0.372 0.0
C979 C 0.57075 0.94408 0.43388 0.0
N980 N 0.58034 0.94254 0.45754 0.0
C981 C 0.59185 0.93947 0.39696 0.0
C982 C 0.57146 0.94334 0.39061 0.0
C983 C 0.59078 0.94025 0.44012 0.0
C984 C 0.57877 0.97484 0.35869 0.0
N985 N 0.58773 0.96727 0.35868 0.0
C986 C 0.59436 0.97459 0.42386 0.0
C987 C 0.59546 0.96703 0.39044 0.0
C988 C 0.58516 0.98245 0.42489 0.0
C989 C 0.57734 0.98259 0.39157 0.0
H990 H 0.57261 0.97474 0.33349 0.0
H991 H 0.60241 0.96086 0.39031 0.0
C992 C 0.6175 0.92577 0.29338 0.0
N993 N 0.60652 0.92577 0.30805 0.0
C994 C 0.62561 0.91802 0.30931 0.0
C995 C 0.61076 0.90995 0.35322 0.0
C996 C 0.60295 0.91785 0.33643 0.0
C997 C 0.62235 0.91017 0.34053 0.0
H998 H 0.6201 0.93215 0.27069 0.0
H999 H 0.59415 0.91801 0.34757 0.0
C1000 C 0.57416 0.96798 0.24043 0.0
N1001 N 0.56726 0.98379 0.1812 0.0
C1002 C 0.56609 0.96486 0.21019 0.0
C1003 C 0.57862 0.97918 0.24086 0.0
C1004 C 0.56272 0.97297 0.18047 0.0
C1005 C 0.57506 0.98703 0.21054 0.0
C1006 C 0.58633 0.92548 0.22769 0.0
C1007 C 0.58867 0.92134 0.18779 0.0
C1008 C 0.58229 0.91792 0.25824 0.0
C1009 C 0.5869 0.90966 0.17905 0.0
C1010 C 0.58064 0.9063 0.24828 0.0
N1011 N 0.58296 0.90245 0.20923 0.0
C1012 C 0.60389 0.96964 0.18968 0.0
C1013 C 0.58954 0.95835 0.15668 0.0
C1014 C 0.60533 0.97626 0.15376 0.0
N1015 N 0.59589 0.96108 0.19079 0.0
C1016 C 0.59067 0.96475 0.12017 0.0
C1017 C 0.59848 0.97402 0.11863 0.0
H1018 H 0.60893 0.97157 0.21699 0.0
H1019 H 0.58319 0.95152 0.15852 0.0
C1020 C 0.55264 0.94541 0.29066 0.0
N1021 N 0.56006 0.93888 0.26798 0.0
C1022 C 0.54079 0.94354 0.28834 0.0
C1023 C 0.54429 0.92836 0.23844 0.0
C1024 C 0.55613 0.93056 0.24167 0.0
C1025 C 0.53644 0.93488 0.26211 0.0
H1026 H 0.55597 0.95228 0.30999 0.0
H1027 H 0.56209 0.92574 0.22266 0.0
O1028 O 0.60372 0.95346 0.28619 0.0
O1029 O 0.58301 0.94044 0.32962 0.0
O1030 O 0.57781 0.96007 0.26907 0.0
O1031 O 0.5882 0.93685 0.23675 0.0
H1032 H 0.62014 0.94621 0.33724 0.0
H1033 H 0.60381 0.97633 0.28577 0.0
H1034 H 0.63346 0.95896 0.37615 0.0
H1035 H 0.61742 0.98856 0.32562 0.0
H1036 H 0.56256 0.94588 0.44866 0.0
H1037 H 0.60022 0.93794 0.38317 0.0
H1038 H 0.56382 0.94453 0.37193 0.0
H1039 H 0.59827 0.93913 0.45975 0.0
H1040 H 0.60067 0.97428 0.44864 0.0
H1041 H 0.57004 0.98841 0.39138 0.0
H1042 H 0.63441 0.91836 0.29804 0.0
H1043 H 0.60785 0.90414 0.37738 0.0
H1044 H 0.56259 0.95621 0.20922 0.0
H1045 H 0.58481 0.98176 0.26419 0.0
H1046 H 0.55655 0.97065 0.15668 0.0
H1047 H 0.5785 0.9957 0.2103 0.0
H1048 H 0.59183 0.92709 0.16385 0.0
H1049 H 0.58033 0.92098 0.28916 0.0
H1050 H 0.58867 0.90633 0.14829 0.0
H1051 H 0.5775 0.90036 0.27159 0.0
H1052 H 0.61161 0.98318 0.15374 0.0
H1053 H 0.58511 0.96278 0.09409 0.0
H1054 H 0.53508 0.94901 0.30623 0.0
H1055 H 0.54133 0.92163 0.21769 0.0
Li1056 Li 0.80749 0.17685 0.05138 0.0
Li1057 Li 0.79565 0.16133 0.08223 0.0
Li1058 Li 0.81109 0.15753 0.02997 0.0
Li1059 Li 0.79344 0.16628 0.00635 0.0
C1060 C 0.82022 0.16901 0.11387 0.0
N1061 N 0.83522 0.18022 0.16704 0.0
C1062 C 0.81796 0.16935 0.15653 0.0
C1063 C 0.83021 0.17419 0.09839 0.0
C1064 C 0.82562 0.1751 0.18288 0.0
C1065 C 0.83765 0.17988 0.12571 0.0
C1066 C 0.78304 0.18469 0.06071 0.0
C1067 C 0.76556 0.19283 0.08886 0.0
N1068 N 0.76806 0.20305 0.07018 0.0
C1069 C 0.78539 0.19526 0.04156 0.0
C1070 C 0.77301 0.18345 0.0844 0.0
C1071 C 0.77773 0.20444 0.04681 0.0
C1072 C 0.81712 0.19882 0.03315 0.0
N1073 N 0.8127 0.19209 0.06384 0.0
C1074 C 0.81205 0.20816 0.1103 0.0
C1075 C 0.81031 0.19647 0.10208 0.0
C1076 C 0.81612 0.21547 0.07865 0.0
C1077 C 0.81894 0.21058 0.03994 0.0
H1078 H 0.81857 0.19522 0.00261 0.0
H1079 H 0.80654 0.19098 0.12561 0.0
C1080 C 0.78193 0.14755 0.13984 0.0
N1081 N 0.78734 0.15775 0.13221 0.0
C1082 C 0.77519 0.14618 0.17568 0.0
C1083 C 0.78016 0.16563 0.1959 0.0
C1084 C 0.78661 0.16668 0.1595 0.0
C1085 C 0.77424 0.15532 0.20417 0.0
H1086 H 0.78267 0.14052 0.11795 0.0
H1087 H 0.7909 0.17474 0.15249 0.0
C1088 C 0.81743 0.16922 0.96391 0.0
N1089 N 0.83401 0.16391 0.90514 0.0
C1090 C 0.81457 0.16255 0.92922 0.0
C1091 C 0.8287 0.17333 0.96838 0.0
C1092 C 0.82307 0.15992 0.89996 0.0
C1093 C 0.83696 0.17052 0.93841 0.0
C1094 C 0.78485 0.14495 0.0323 0.0
C1095 C 0.78459 0.13299 0.02683 0.0
C1096 C 0.77452 0.15099 0.03785 0.0
C1097 C 0.774 0.12726 0.02723 0.0
C1098 C 0.76411 0.14494 0.03807 0.0
N1099 N 0.76406 0.1333 0.03282 0.0
C1100 C 0.83388 0.1484 0.01776 0.0
C1101 C 0.81871 0.13849 0.98369 0.0
C1102 C 0.84209 0.14168 0.99704 0.0
N1103 N 0.82245 0.14684 0.01012 0.0
C1104 C 0.82661 0.13154 0.96249 0.0
C1105 C 0.8385 0.13325 0.9684 0.0
H1106 H 0.83664 0.15515 0.03861 0.0
H1107 H 0.80958 0.13759 0.97756 0.0
C1108 C 0.77714 0.17719 0.95248 0.0
N1109 N 0.78296 0.16728 0.96074 0.0
C1110 C 0.77019 0.17803 0.91718 0.0
C1111 C 0.77532 0.15843 0.89951 0.0
C1112 C 0.78206 0.15794 0.93541 0.0
C1113 C 0.76934 0.16863 0.88971 0.0
H1114 H 0.77801 0.18452 0.97276 0.0
H1115 H 0.78685 0.15018 0.94249 0.0
O1116 O 0.81275 0.16351 0.08754 0.0
O1117 O 0.79057 0.17565 0.05684 0.0
O1118 O 0.80929 0.17156 0.99359 0.0
O1119 O 0.79518 0.15065 0.03186 0.0
H1120 H 0.81042 0.16516 0.16925 0.0
H1121 H 0.83212 0.17399 0.06556 0.0
H1122 H 0.82395 0.17548 0.21593 0.0
H1123 H 0.84536 0.18403 0.11405 0.0
H1124 H 0.75777 0.19199 0.10716 0.0
H1125 H 0.79295 0.19632 0.02228 0.0
H1126 H 0.77097 0.17531 0.09909 0.0
H1127 H 0.77946 0.21266 0.03217 0.0
H1128 H 0.80987 0.21151 0.14072 0.0
H1129 H 0.82187 0.21589 0.01436 0.0
H1130 H 0.77081 0.13807 0.18113 0.0
H1131 H 0.77955 0.17293 0.21681 0.0
H1132 H 0.80592 0.15927 0.92525 0.0
H1133 H 0.83109 0.17853 0.99484 0.0
H1134 H 0.82099 0.15466 0.87321 0.0
H1135 H 0.84573 0.17357 0.94168 0.0
H1136 H 0.79251 0.1282 0.0224 0.0
H1137 H 0.77452 0.16023 0.04189 0.0
H1138 H 0.77367 0.118 0.02311 0.0
H1139 H 0.75606 0.1495 0.04239 0.0
H1140 H 0.85116 0.1432 0.00288 0.0
H1141 H 0.82345 0.12526 0.94036 0.0
H1142 H 0.76559 0.186 0.9114 0.0
H1143 H 0.77509 0.15102 0.87909 0.0
Li1144 Li 0.58765 0.04503 0.82473 0.0
Li1145 Li 0.57339 0.05725 0.79026 0.0
Li1146 Li 0.58443 0.04275 0.75116 0.0
Li1147 Li 0.59356 0.06036 0.77565 0.0
C1148 C 0.56677 0.03169 0.78 0.0
N1149 N 0.55401 0.01451 0.7421 0.0
C1150 C 0.55595 0.03419 0.76308 0.0
C1151 C 0.57108 0.02044 0.7777 0.0
C1152 C 0.54963 0.02538 0.74409 0.0
C1153 C 0.56451 0.01188 0.75835 0.0
C1154 C 0.57981 0.06919 0.85598 0.0
C1155 C 0.56981 0.08708 0.86862 0.0
N1156 N 0.56695 0.0833 0.9073 0.0
C1157 C 0.57683 0.0655 0.8959 0.0
C1158 C 0.57635 0.08008 0.84225 0.0
C1159 C 0.5703 0.07276 0.92137 0.0
C1160 C 0.59933 0.03974 0.90181 0.0
N1161 N 0.59084 0.03664 0.87482 0.0
C1162 C 0.58626 0.02013 0.91605 0.0
C1163 C 0.58422 0.02717 0.88175 0.0
C1164 C 0.59513 0.0229 0.94396 0.0
C1165 C 0.60164 0.03295 0.93684 0.0
H1166 H 0.60439 0.04741 0.89587 0.0
H1167 H 0.57734 0.02504 0.86062 0.0
C1168 C 0.55305 0.069 0.76465 0.0
N1169 N 0.5583 0.06351 0.79684 0.0
C1170 C 0.54134 0.07178 0.76695 0.0
C1171 C 0.54078 0.06362 0.83605 0.0
C1172 C 0.55245 0.06088 0.83223 0.0
C1173 C 0.53501 0.06888 0.80271 0.0
H1174 H 0.55781 0.07071 0.73643 0.0
H1175 H 0.55673 0.05613 0.85671 0.0
C1176 C 0.60832 0.03939 0.80039 0.0
N1177 N 0.62608 0.02971 0.84584 0.0
C1178 C 0.61723 0.04633 0.81568 0.0
C1179 C 0.60844 0.02753 0.8083 0.0
C1180 C 0.62614 0.04127 0.83851 0.0
C1181 C 0.61749 0.02281 0.83137 0.0
C1182 C 0.58391 0.06605 0.70458 0.0
C1183 C 0.59013 0.06184 0.67061 0.0
C1184 C 0.58158 0.07785 0.70757 0.0
C1185 C 0.59402 0.06954 0.64029 0.0
C1186 C 0.58562 0.08527 0.67663 0.0
N1187 N 0.59171 0.081 0.64393 0.0
C1188 C 0.57525 0.03293 0.67787 0.0
C1189 C 0.59262 0.02441 0.70177 0.0
C1190 C 0.57486 0.02533 0.64421 0.0
N1191 N 0.58402 0.03228 0.70584 0.0
C1192 C 0.59255 0.01662 0.66877 0.0
C1193 C 0.58358 0.01703 0.63945 0.0
H1194 H 0.56858 0.03936 0.68177 0.0
H1195 H 0.59959 0.02424 0.72398 0.0
C1196 C 0.60522 0.08245 0.76817 0.0
N1197 N 0.60517 0.07106 0.75808 0.0
C1198 C 0.61331 0.0899 0.75005 0.0
C1199 C 0.62118 0.0737 0.71228 0.0
C1200 C 0.61298 0.06661 0.73097 0.0
C1201 C 0.6214 0.08554 0.72147 0.0
H1202 H 0.59884 0.0858 0.78947 0.0
H1203 H 0.61261 0.05755 0.72294 0.0
O1204 O 0.57322 0.04025 0.79795 0.0
O1205 O 0.58609 0.06216 0.83044 0.0
O1206 O 0.59942 0.04421 0.77854 0.0
O1207 O 0.58035 0.0587 0.73525 0.0
H1208 H 0.55248 0.04283 0.76425 0.0
H1209 H 0.57952 0.01837 0.79 0.0
H1210 H 0.54126 0.02721 0.73078 0.0
H1211 H 0.56779 0.00317 0.75608 0.0
H1212 H 0.567 0.0955 0.85832 0.0
H1213 H 0.57944 0.05708 0.90698 0.0
H1214 H 0.57855 0.08304 0.81137 0.0
H1215 H 0.56788 0.07 0.95228 0.0
H1216 H 0.58084 0.01264 0.9209 0.0
H1217 H 0.60855 0.03541 0.95768 0.0
H1218 H 0.53719 0.07584 0.74057 0.0
H1219 H 0.53617 0.06104 0.86382 0.0
H1220 H 0.61721 0.05554 0.81041 0.0
H1221 H 0.60151 0.02206 0.79744 0.0
H1222 H 0.63307 0.04653 0.85059 0.0
H1223 H 0.61764 0.01366 0.83795 0.0
H1224 H 0.5921 0.05275 0.66798 0.0
H1225 H 0.57684 0.08126 0.73381 0.0
H1226 H 0.59891 0.06642 0.61398 0.0
H1227 H 0.58396 0.09444 0.67871 0.0
H1228 H 0.56778 0.02589 0.62237 0.0
H1229 H 0.59954 0.01049 0.66579 0.0
H1230 H 0.61321 0.09896 0.75827 0.0
H1231 H 0.62709 0.06997 0.68992 0.0
Li1232 Li 0.70419 0.83795 0.5798 0.0
Li1233 Li 0.69413 0.82186 0.54739 0.0
Li1234 Li 0.70822 0.83356 0.50675 0.0
Li1235 Li 0.68956 0.84099 0.52588 0.0
C1236 C 0.72206 0.82274 0.56908 0.0
N1237 N 0.74451 0.82093 0.59697 0.0
C1238 C 0.72557 0.81298 0.59115 0.0
C1239 C 0.72994 0.83161 0.5613 0.0
C1240 C 0.73697 0.81221 0.60494 0.0
C1241 C 0.74126 0.83052 0.57564 0.0
C1242 C 0.67919 0.82873 0.60508 0.0
C1243 C 0.6619 0.8172 0.60843 0.0
N1244 N 0.66285 0.81681 0.65054 0.0
C1245 C 0.67991 0.82834 0.64842 0.0
C1246 C 0.67003 0.82325 0.58496 0.0
C1247 C 0.6716 0.82223 0.67083 0.0
C1248 C 0.71873 0.85169 0.63353 0.0
N1249 N 0.71189 0.84219 0.63021 0.0
C1250 C 0.71774 0.83575 0.69756 0.0
C1251 C 0.71138 0.83424 0.66117 0.0
C1252 C 0.72489 0.84546 0.70196 0.0
C1253 C 0.72532 0.85352 0.66939 0.0
H1254 H 0.7194 0.85768 0.60794 0.0
H1255 H 0.70633 0.82649 0.6569 0.0
C1256 C 0.68636 0.79977 0.52334 0.0
N1257 N 0.68953 0.80631 0.55648 0.0
C1258 C 0.68446 0.78795 0.52811 0.0
C1259 C 0.68877 0.78989 0.60128 0.0
C1260 C 0.69067 0.80166 0.59503 0.0
C1261 C 0.68586 0.7828 0.56737 0.0
H1262 H 0.68579 0.80364 0.49285 0.0
H1263 H 0.69341 0.80704 0.62068 0.0
C1264 C 0.70372 0.85996 0.54425 0.0
N1265 N 0.70118 0.88254 0.5703 0.0
C1266 C 0.69552 0.86276 0.57453 0.0
C1267 C 0.71061 0.86865 0.52722 0.0
C1268 C 0.69438 0.87422 0.58727 0.0
C1269 C 0.7092 0.88001 0.54081 0.0
C1270 C 0.68601 0.82944 0.4562 0.0
C1271 C 0.6901 0.83578 0.42233 0.0
C1272 C 0.67468 0.82531 0.45585 0.0
C1273 C 0.68272 0.83808 0.38902 0.0
C1274 C 0.66757 0.8278 0.42199 0.0
N1275 N 0.67169 0.8341 0.38958 0.0
C1276 C 0.72498 0.82285 0.45638 0.0
C1277 C 0.72194 0.84275 0.44314 0.0
C1278 C 0.73289 0.82217 0.42374 0.0
N1279 N 0.71965 0.833 0.46506 0.0
C1280 C 0.72969 0.84244 0.41002 0.0
C1281 C 0.73518 0.83203 0.39972 0.0
H1282 H 0.72292 0.81523 0.47435 0.0
H1283 H 0.7175 0.85067 0.45074 0.0
C1284 C 0.66664 0.85024 0.51563 0.0
N1285 N 0.6779 0.851 0.50413 0.0
C1286 C 0.65831 0.85705 0.49594 0.0
C1287 C 0.67335 0.86541 0.45357 0.0
C1288 C 0.68137 0.85849 0.47415 0.0
C1289 C 0.66161 0.8647 0.4641 0.0
H1290 H 0.6641 0.84423 0.53959 0.0
H1291 H 0.69036 0.85884 0.46529 0.0
O1292 O 0.71086 0.82375 0.55634 0.0
O1293 O 0.68732 0.83459 0.58257 0.0
O1294 O 0.705 0.84882 0.53092 0.0
O1295 O 0.69303 0.82737 0.4896 0.0
H1296 H 0.71953 0.80609 0.59769 0.0
H1297 H 0.72732 0.83931 0.54482 0.0
H1298 H 0.73982 0.80471 0.62206 0.0
H1299 H 0.74745 0.83733 0.56996 0.0
H1300 H 0.65483 0.81283 0.59318 0.0
H1301 H 0.68675 0.8328 0.66465 0.0
H1302 H 0.66928 0.82355 0.55155 0.0
H1303 H 0.67209 0.82182 0.70438 0.0
H1304 H 0.71738 0.82917 0.72139 0.0
H1305 H 0.73076 0.86109 0.67144 0.0
H1306 H 0.68245 0.78283 0.50091 0.0
H1307 H 0.68984 0.78635 0.63218 0.0
H1308 H 0.69009 0.8562 0.5881 0.0
H1309 H 0.71699 0.86663 0.5038 0.0
H1310 H 0.68808 0.87651 0.61066 0.0
H1311 H 0.71448 0.88682 0.52792 0.0
H1312 H 0.69882 0.83905 0.42198 0.0
H1313 H 0.6714 0.82024 0.48141 0.0
H1314 H 0.68575 0.84307 0.3628 0.0
H1315 H 0.65876 0.82472 0.42147 0.0
H1316 H 0.73689 0.81397 0.41652 0.0
H1317 H 0.73132 0.85024 0.39246 0.0
H1318 H 0.64939 0.85632 0.50552 0.0
H1319 H 0.67631 0.871 0.42884 0.0
Li1320 Li 0.9103 0.95486 0.33043 0.0
Li1321 Li 0.92593 0.94395 0.30012 0.0
Li1322 Li 0.91394 0.95654 0.25683 0.0
Li1323 Li 0.9062 0.93787 0.2826 0.0
C1324 C 0.92799 0.96942 0.32804 0.0
N1325 N 0.93497 0.98654 0.38229 0.0
C1326 C 0.93711 0.96744 0.35554 0.0
C1327 C 0.92247 0.98015 0.32799 0.0
C1328 C 0.94051 0.9762 0.38271 0.0
C1329 C 0.9261 0.98867 0.35574 0.0
C1330 C 0.91695 0.92821 0.35895 0.0
C1331 C 0.92015 0.90765 0.3592 0.0
N1332 N 0.92329 0.90824 0.39987 0.0
C1333 C 0.92014 0.9286 0.40083 0.0
C1334 C 0.91688 0.91764 0.338 0.0
C1335 C 0.92335 0.91841 0.42093 0.0
C1336 C 0.89649 0.97044 0.37849 0.0
N1337 N 0.90585 0.96338 0.37901 0.0
C1338 C 0.91163 0.97086 0.44505 0.0
C1339 C 0.91316 0.96321 0.412 0.0
C1340 C 0.90235 0.97868 0.44463 0.0
C1341 C 0.89454 0.97817 0.41117 0.0
H1342 H 0.89073 0.97035 0.3521 0.0
H1343 H 0.92058 0.95758 0.41154 0.0
C1344 C 0.94914 0.94629 0.28433 0.0
N1345 N 0.94183 0.93947 0.30648 0.0
C1346 C 0.96099 0.94433 0.28516 0.0
C1347 C 0.95778 0.92855 0.33277 0.0
C1348 C 0.94591 0.93069 0.33043 0.0
C1349 C 0.96545 0.9354 0.30972 0.0
H1350 H 0.94572 0.95333 0.26609 0.0
H1351 H 0.94007 0.92535 0.34789 0.0
C1352 C 0.8914 0.9595 0.25982 0.0
N1353 N 0.87697 0.97158 0.20711 0.0
C1354 C 0.88433 0.95359 0.23176 0.0
C1355 C 0.89107 0.97155 0.26121 0.0
C1356 C 0.8771 0.95986 0.20537 0.0
C1357 C 0.88374 0.9775 0.23424 0.0
C1358 C 0.9283 0.93649 0.22226 0.0
C1359 C 0.9343 0.94364 0.19472 0.0
C1360 C 0.93198 0.92513 0.22822 0.0
C1361 C 0.94395 0.93932 0.17389 0.0
C1362 C 0.94169 0.92114 0.20687 0.0
N1363 N 0.94742 0.92826 0.18039 0.0
C1364 C 0.919 0.97678 0.21032 0.0
C1365 C 0.90788 0.96258 0.17551 0.0
C1366 C 0.91847 0.98401 0.17568 0.0
N1367 N 0.91362 0.96636 0.20972 0.0
C1368 C 0.90703 0.96957 0.14039 0.0
C1369 C 0.91234 0.98045 0.14029 0.0
H1370 H 0.92369 0.97947 0.23764 0.0
H1371 H 0.90391 0.95414 0.17567 0.0
C1372 C 0.88558 0.92432 0.28502 0.0
N1373 N 0.89596 0.9258 0.2661 0.0
C1374 C 0.87742 0.91677 0.26804 0.0
C1375 C 0.89098 0.91207 0.21357 0.0
C1376 C 0.89882 0.91976 0.23136 0.0
C1377 C 0.88001 0.91067 0.23137 0.0
H1378 H 0.88346 0.92938 0.31224 0.0
H1379 H 0.90701 0.92127 0.21639 0.0
O1380 O 0.92438 0.96087 0.30172 0.0
O1381 O 0.9137 0.93809 0.33893 0.0
O1382 O 0.89871 0.95352 0.28533 0.0
O1383 O 0.91899 0.94065 0.2437 0.0
H1384 H 0.94142 0.95917 0.35639 0.0
H1385 H 0.91535 0.98181 0.30718 0.0
H1386 H 0.94752 0.97476 0.40431 0.0
H1387 H 0.92184 0.99697 0.35627 0.0
H1388 H 0.92018 0.89942 0.34331 0.0
H1389 H 0.92016 0.93668 0.41762 0.0
H1390 H 0.91438 0.91716 0.30574 0.0
H1391 H 0.92588 0.91859 0.45329 0.0
H1392 H 0.918 0.97099 0.46963 0.0
H1393 H 0.88714 0.98384 0.40977 0.0
H1394 H 0.96663 0.94992 0.26743 0.0
H1395 H 0.96093 0.92157 0.35206 0.0
H1396 H 0.8845 0.94429 0.22999 0.0
H1397 H 0.89654 0.97627 0.28243 0.0
H1398 H 0.87162 0.9554 0.18338 0.0
H1399 H 0.88347 0.98682 0.23478 0.0
H1400 H 0.93164 0.95247 0.18983 0.0
H1401 H 0.92748 0.91948 0.24944 0.0
H1402 H 0.94871 0.94477 0.15269 0.0
H1403 H 0.94467 0.91239 0.21143 0.0
H1404 H 0.92266 0.99235 0.17679 0.0
H1405 H 0.90239 0.96644 0.11343 0.0
H1406 H 0.86909 0.91589 0.28292 0.0
H1407 H 0.89329 0.9077 0.18499 0.0
Li1408 Li 0.70301 0.66224 0.57857 0.0
Li1409 Li 0.6882 0.65536 0.52849 0.0
Li1410 Li 0.70555 0.66422 0.50458 0.0
Li1411 Li 0.69137 0.6758 0.5384 0.0
C1412 C 0.71398 0.64406 0.52514 0.0
N1413 N 0.73396 0.63343 0.49831 0.0
C1414 C 0.7134 0.63478 0.49751 0.0
C1415 C 0.72471 0.6479 0.5393 0.0
C1416 C 0.72361 0.62953 0.48427 0.0
C1417 C 0.73471 0.64242 0.52534 0.0
C1418 C 0.68126 0.65802 0.61197 0.0
C1419 C 0.66836 0.65571 0.67018 0.0
N1420 N 0.67204 0.64465 0.67479 0.0
C1421 C 0.68493 0.64663 0.6173 0.0
C1422 C 0.67293 0.66261 0.63862 0.0
C1423 C 0.68016 0.64001 0.64924 0.0
C1424 C 0.71261 0.67039 0.65181 0.0
N1425 N 0.71083 0.66048 0.63028 0.0
C1426 C 0.72187 0.64979 0.67992 0.0
C1427 C 0.71517 0.65024 0.64372 0.0
C1428 C 0.72411 0.65998 0.70235 0.0
C1429 C 0.71926 0.67035 0.68794 0.0
H1430 H 0.70909 0.67841 0.64021 0.0
H1431 H 0.71365 0.64248 0.62588 0.0
C1432 C 0.67938 0.63848 0.47631 0.0
N1433 N 0.67696 0.64412 0.51231 0.0
C1434 C 0.6713 0.63104 0.4585 0.0
C1435 C 0.65829 0.63534 0.51509 0.0
C1436 C 0.66664 0.64272 0.53182 0.0
C1437 C 0.66053 0.62945 0.47768 0.0
H1438 H 0.68749 0.64005 0.46073 0.0
H1439 H 0.66472 0.64761 0.55956 0.0
C1440 C 0.71264 0.68612 0.53334 0.0
N1441 N 0.7211 0.70697 0.505 0.0
C1442 C 0.71006 0.6899 0.49312 0.0
C1443 C 0.71952 0.69296 0.55913 0.0
C1444 C 0.71442 0.70046 0.47938 0.0
C1445 C 0.72372 0.70347 0.54423 0.0
C1446 C 0.67921 0.66935 0.46788 0.0
C1447 C 0.67796 0.66968 0.42472 0.0
C1448 C 0.66954 0.67085 0.49332 0.0
C1449 C 0.66704 0.67155 0.40764 0.0
C1450 C 0.65877 0.6727 0.47504 0.0
N1451 N 0.65775 0.673 0.43294 0.0
C1452 C 0.71355 0.6576 0.42614 0.0
C1453 C 0.72714 0.66851 0.46462 0.0
C1454 C 0.72122 0.65669 0.39287 0.0
N1455 N 0.7166 0.66349 0.46092 0.0
C1456 C 0.73498 0.66804 0.43179 0.0
C1457 C 0.73208 0.6621 0.3951 0.0
H1458 H 0.70517 0.65354 0.42442 0.0
H1459 H 0.72945 0.67294 0.49298 0.0
C1460 C 0.68484 0.696 0.57968 0.0
N1461 N 0.68514 0.69101 0.54148 0.0
C1462 C 0.68224 0.70771 0.58374 0.0
C1463 C 0.6799 0.70882 0.5092 0.0
C1464 C 0.6826 0.6971 0.50655 0.0
C1465 C 0.67995 0.71433 0.54809 0.0
H1466 H 0.68709 0.69098 0.60683 0.0
H1467 H 0.68323 0.69304 0.47641 0.0
O1468 O 0.70412 0.64955 0.53755 0.0
O1469 O 0.68579 0.66475 0.58107 0.0
O1470 O 0.70826 0.67594 0.54791 0.0
O1471 O 0.68983 0.6673 0.48482 0.0
H1472 H 0.70518 0.63167 0.48632 0.0
H1473 H 0.72532 0.65518 0.56025 0.0
H1474 H 0.7233 0.62235 0.46278 0.0
H1475 H 0.74308 0.64536 0.5358 0.0
H1476 H 0.6619 0.65915 0.69101 0.0
H1477 H 0.69134 0.64289 0.59701 0.0
H1478 H 0.67001 0.67143 0.6349 0.0
H1479 H 0.68291 0.63118 0.65369 0.0
H1480 H 0.72531 0.64157 0.69006 0.0
H1481 H 0.72087 0.67845 0.70365 0.0
H1482 H 0.67346 0.62664 0.42986 0.0
H1483 H 0.65004 0.63455 0.53058 0.0
H1484 H 0.7047 0.68476 0.47276 0.0
H1485 H 0.72157 0.69019 0.59038 0.0
H1486 H 0.71247 0.70349 0.44837 0.0
H1487 H 0.72904 0.70885 0.56387 0.0
H1488 H 0.68535 0.66847 0.40464 0.0
H1489 H 0.67031 0.67058 0.52678 0.0
H1490 H 0.66594 0.67182 0.37426 0.0
H1491 H 0.65122 0.67387 0.49433 0.0
H1492 H 0.71866 0.65175 0.36586 0.0
H1493 H 0.74314 0.67248 0.43501 0.0
H1494 H 0.6823 0.71161 0.61434 0.0
H1495 H 0.67839 0.71363 0.48086 0.0
Li1496 Li 0.59347 0.43768 0.78408 0.0
Li1497 Li 0.58756 0.4536 0.83152 0.0
Li1498 Li 0.57322 0.4418 0.79606 0.0
Li1499 Li 0.58499 0.45475 0.75723 0.0
C1500 C 0.59147 0.43216 0.86898 0.0
N1501 N 0.60519 0.42336 0.93159 0.0
C1502 C 0.60293 0.43575 0.87285 0.0
C1503 C 0.58699 0.42411 0.89696 0.0
C1504 C 0.60973 0.4312 0.90472 0.0
C1505 C 0.59407 0.41975 0.92839 0.0
C1506 C 0.60545 0.46284 0.77246 0.0
C1507 C 0.60811 0.48343 0.76751 0.0
N1508 N 0.61618 0.48176 0.73739 0.0
C1509 C 0.6138 0.46132 0.74162 0.0
C1510 C 0.6026 0.47397 0.78566 0.0
C1511 C 0.61911 0.471 0.72422 0.0
C1512 C 0.60817 0.42782 0.72816 0.0
N1513 N 0.60439 0.42615 0.76765 0.0
C1514 C 0.61504 0.40849 0.77216 0.0
C1515 C 0.60759 0.41668 0.7898 0.0
C1516 C 0.61909 0.41001 0.73122 0.0
C1517 C 0.61551 0.41986 0.70929 0.0
H1518 H 0.60523 0.43524 0.71086 0.0
H1519 H 0.60425 0.41534 0.82078 0.0
C1520 C 0.57991 0.46503 0.90144 0.0
N1521 N 0.58983 0.4621 0.88168 0.0
C1522 C 0.58018 0.47186 0.93709 0.0
C1523 C 0.60097 0.4723 0.93248 0.0
C1524 C 0.60028 0.46554 0.89639 0.0
C1525 C 0.59081 0.47562 0.95331 0.0
H1526 H 0.57173 0.46218 0.88899 0.0
H1527 H 0.60805 0.46313 0.87996 0.0
C1528 C 0.57826 0.42802 0.72848 0.0
N1529 N 0.573 0.40616 0.69995 0.0
C1530 C 0.57674 0.42604 0.68599 0.0
C1531 C 0.57711 0.41887 0.7565 0.0
C1532 C 0.57408 0.41494 0.67217 0.0
C1533 C 0.57445 0.40788 0.74144 0.0
C1534 C 0.56387 0.46352 0.78514 0.0
C1535 C 0.55975 0.46009 0.74621 0.0
C1536 C 0.55769 0.47164 0.8083 0.0
C1537 C 0.54949 0.46482 0.73115 0.0
C1538 C 0.54747 0.47617 0.79215 0.0
N1539 N 0.54361 0.47269 0.75424 0.0
C1540 C 0.55348 0.43651 0.84206 0.0
C1541 C 0.55106 0.43388 0.76953 0.0
C1542 C 0.54171 0.43476 0.84874 0.0
N1543 N 0.55785 0.43627 0.80289 0.0
C1544 C 0.53923 0.43212 0.77476 0.0
C1545 C 0.53434 0.43286 0.81468 0.0
H1546 H 0.55907 0.4386 0.86792 0.0
H1547 H 0.55467 0.434 0.73858 0.0
C1548 C 0.59049 0.4597 0.67521 0.0
N1549 N 0.58568 0.46447 0.70962 0.0
C1550 C 0.5912 0.46596 0.63835 0.0
C1551 C 0.5819 0.48197 0.67293 0.0
C1552 C 0.58156 0.47545 0.70941 0.0
C1553 C 0.58672 0.47722 0.63656 0.0
H1554 H 0.59379 0.45098 0.67649 0.0
H1555 H 0.57788 0.47908 0.73737 0.0
O1556 O 0.58457 0.4365 0.83824 0.0
O1557 O 0.59988 0.45352 0.78899 0.0
O1558 O 0.58101 0.43885 0.74215 0.0
O1559 O 0.57381 0.45889 0.80094 0.0
H1560 H 0.6066 0.44192 0.85147 0.0
H1561 H 0.57813 0.42126 0.89438 0.0
H1562 H 0.61861 0.43388 0.90805 0.0
H1563 H 0.59071 0.41351 0.95026 0.0
H1564 H 0.60594 0.49209 0.77722 0.0
H1565 H 0.61611 0.45277 0.73106 0.0
H1566 H 0.59606 0.4753 0.80919 0.0
H1567 H 0.62555 0.46996 0.70018 0.0
H1568 H 0.61758 0.40107 0.79038 0.0
H1569 H 0.61809 0.4213 0.67737 0.0
H1570 H 0.57208 0.47435 0.95121 0.0
H1571 H 0.60937 0.47485 0.94391 0.0
H1572 H 0.57764 0.43304 0.66392 0.0
H1573 H 0.57828 0.42018 0.78947 0.0
H1574 H 0.57289 0.41329 0.63936 0.0
H1575 H 0.57354 0.40072 0.76275 0.0
H1576 H 0.56439 0.45383 0.72777 0.0
H1577 H 0.56076 0.47441 0.83845 0.0
H1578 H 0.5462 0.46222 0.70111 0.0
H1579 H 0.5426 0.48245 0.80977 0.0
H1580 H 0.53835 0.43527 0.8801 0.0
H1581 H 0.53389 0.43086 0.74752 0.0
H1582 H 0.59526 0.462 0.61161 0.0
H1583 H 0.5782 0.49054 0.67312 0.0
Li1584 Li 0.8136 0.34284 0.03487 0.0
Li1585 Li 0.79716 0.33827 0.0765 0.0
Li1586 Li 0.81009 0.32238 0.04891 0.0
Li1587 Li 0.79691 0.33411 0.00331 0.0
C1588 C 0.82391 0.33766 0.10819 0.0
N1589 N 0.84458 0.34341 0.14557 0.0
C1590 C 0.82524 0.3484 0.12738 0.0
C1591 C 0.83306 0.32981 0.10831 0.0
C1592 C 0.83577 0.35116 0.14597 0.0
C1593 C 0.84345 0.33288 0.12734 0.0
C1594 C 0.79295 0.35866 0.04848 0.0
C1595 C 0.77602 0.36961 0.06699 0.0
N1596 N 0.78273 0.37702 0.08908 0.0
C1597 C 0.79968 0.36641 0.07121 0.0
C1598 C 0.78102 0.36029 0.04618 0.0
C1599 C 0.79436 0.37563 0.09155 0.0
C1600 C 0.82184 0.36237 0.99403 0.0
N1601 N 0.82544 0.35383 0.01993 0.0
C1602 C 0.84507 0.35982 0.01156 0.0
C1603 C 0.83683 0.35245 0.02894 0.0
C1604 C 0.84158 0.36851 0.98389 0.0
C1605 C 0.82978 0.36982 0.97552 0.0
H1606 H 0.81279 0.36312 0.98633 0.0
H1607 H 0.83964 0.34532 0.04785 0.0
C1608 C 0.77594 0.34117 0.1182 0.0
N1609 N 0.78753 0.34217 0.12307 0.0
C1610 C 0.76848 0.34333 0.15132 0.0
C1611 C 0.78501 0.34756 0.19435 0.0
C1612 C 0.79217 0.34535 0.16018 0.0
C1613 C 0.77298 0.34644 0.19028 0.0
H1614 H 0.77244 0.33867 0.08854 0.0
H1615 H 0.80142 0.34596 0.16351 0.0
C1616 C 0.82172 0.33219 0.96784 0.0
N1617 N 0.83936 0.33838 0.91465 0.0
C1618 C 0.81941 0.33902 0.93305 0.0
C1619 C 0.83297 0.32842 0.97544 0.0
C1620 C 0.82846 0.34209 0.90659 0.0
C1621 C 0.84178 0.33165 0.94818 0.0
C1622 C 0.78445 0.31664 0.03205 0.0
C1623 C 0.78656 0.30494 0.02474 0.0
C1624 C 0.77384 0.3214 0.0205 0.0
C1625 C 0.77805 0.29822 0.00576 0.0
C1626 C 0.76557 0.3144 0.0015 0.0
N1627 N 0.76783 0.30305 0.99459 0.0
C1628 C 0.81462 0.30219 0.09523 0.0
C1629 C 0.82015 0.30138 0.02434 0.0
C1630 C 0.81731 0.29053 0.10041 0.0
N1631 N 0.81592 0.30728 0.05749 0.0
C1632 C 0.82299 0.28972 0.02815 0.0
C1633 C 0.82135 0.28408 0.06636 0.0
H1634 H 0.8111 0.30709 0.12088 0.0
H1635 H 0.82085 0.30559 0.99446 0.0
C1636 C 0.78184 0.34262 0.94178 0.0
N1637 N 0.78809 0.3333 0.95382 0.0
C1638 C 0.77496 0.34207 0.90629 0.0
C1639 C 0.78134 0.32242 0.89567 0.0
C1640 C 0.78815 0.32338 0.93128 0.0
C1641 C 0.77458 0.33183 0.88294 0.0
H1642 H 0.78214 0.35046 0.95987 0.0
H1643 H 0.79336 0.31617 0.94136 0.0
O1644 O 0.81364 0.33473 0.09021 0.0
O1645 O 0.79797 0.34941 0.02926 0.0
O1646 O 0.81305 0.32944 0.99487 0.0
O1647 O 0.79274 0.32338 0.05028 0.0
H1648 H 0.81822 0.35454 0.12787 0.0
H1649 H 0.83219 0.32146 0.09365 0.0
H1650 H 0.83693 0.35946 0.16077 0.0
H1651 H 0.85062 0.32691 0.12752 0.0
H1652 H 0.76678 0.37092 0.06575 0.0
H1653 H 0.80892 0.3653 0.07325 0.0
H1654 H 0.77564 0.3543 0.02916 0.0
H1655 H 0.79947 0.38167 0.10937 0.0
H1656 H 0.85412 0.35843 0.01827 0.0
H1657 H 0.82674 0.37644 0.95445 0.0
H1658 H 0.75928 0.34256 0.14641 0.0
H1659 H 0.78889 0.3498 0.22389 0.0
H1660 H 0.81075 0.34206 0.92691 0.0
H1661 H 0.8349 0.32321 0.00247 0.0
H1662 H 0.82683 0.34746 0.87974 0.0
H1663 H 0.85054 0.32887 0.95382 0.0
H1664 H 0.79465 0.30105 0.03359 0.0
H1665 H 0.77212 0.33048 0.02484 0.0
H1666 H 0.77959 0.28916 0.99988 0.0
H1667 H 0.75738 0.31801 0.99195 0.0
H1668 H 0.816 0.28654 0.13048 0.0
H1669 H 0.82589 0.28505 0.00092 0.0
H1670 H 0.76983 0.3495 0.89769 0.0
H1671 H 0.78142 0.31444 0.87819 0.0
Li1672 Li 0.90615 0.56041 0.27501 0.0
Li1673 Li 0.91087 0.54483 0.32426 0.0
Li1674 Li 0.9261 0.55526 0.28665 0.0
Li1675 Li 0.91323 0.54167 0.25067 0.0
C1676 C 0.91003 0.57082 0.34575 0.0
N1677 N 0.89894 0.58975 0.37916 0.0
C1678 C 0.90145 0.56932 0.37574 0.0
C1679 C 0.91304 0.58193 0.33291 0.0
C1680 C 0.89593 0.579 0.39225 0.0
C1681 C 0.9073 0.5914 0.3501 0.0
C1682 C 0.8908 0.53887 0.25928 0.0
C1683 C 0.88307 0.52061 0.23641 0.0
N1684 N 0.87537 0.5263 0.21199 0.0
C1685 C 0.88279 0.54453 0.23399 0.0
C1686 C 0.89092 0.52681 0.2606 0.0
C1687 C 0.87506 0.53802 0.21033 0.0
C1688 C 0.8978 0.57794 0.22291 0.0
N1689 N 0.89568 0.57248 0.25951 0.0
C1690 C 0.87755 0.58221 0.26576 0.0
C1691 C 0.88582 0.57453 0.28124 0.0
C1692 C 0.87939 0.58774 0.22738 0.0
C1693 C 0.88979 0.58564 0.20631 0.0
H1694 H 0.90551 0.57595 0.20555 0.0
H1695 H 0.88418 0.56988 0.30973 0.0
C1696 C 0.91458 0.53934 0.40864 0.0
N1697 N 0.90765 0.53708 0.37555 0.0
C1698 C 0.91431 0.5322 0.44362 0.0
C1699 C 0.89926 0.521 0.41094 0.0
C1700 C 0.89981 0.52837 0.37662 0.0
C1701 C 0.90683 0.52265 0.44455 0.0
H1702 H 0.92076 0.54631 0.40689 0.0
H1703 H 0.89439 0.52676 0.34999 0.0
C1704 C 0.92622 0.5618 0.2077 0.0
N1705 N 0.94361 0.57084 0.15887 0.0
C1706 C 0.93137 0.55504 0.1769 0.0
C1707 C 0.92984 0.57319 0.21344 0.0
C1708 C 0.94016 0.55976 0.15257 0.0
C1709 C 0.93867 0.57759 0.18853 0.0
C1710 C 0.92885 0.53078 0.32229 0.0
C1711 C 0.93782 0.5341 0.34875 0.0
C1712 C 0.92407 0.51976 0.32602 0.0
C1713 C 0.94179 0.52635 0.37877 0.0
C1714 C 0.92826 0.51228 0.35652 0.0
N1715 N 0.93695 0.5157 0.38205 0.0
C1716 C 0.94564 0.56864 0.31396 0.0
C1717 C 0.94911 0.55434 0.26271 0.0
C1718 C 0.95734 0.57163 0.31428 0.0
N1719 N 0.9418 0.56014 0.28826 0.0
C1720 C 0.96076 0.55724 0.26126 0.0
C1721 C 0.96499 0.56594 0.28735 0.0
H1722 H 0.93964 0.573 0.33438 0.0
H1723 H 0.94586 0.54742 0.24344 0.0
C1724 C 0.90584 0.53352 0.17282 0.0
N1725 N 0.91256 0.53099 0.20619 0.0
C1726 C 0.90528 0.52595 0.13921 0.0
C1727 C 0.91887 0.51349 0.17434 0.0
C1728 C 0.91907 0.52125 0.20749 0.0
C1729 C 0.91189 0.51579 0.13956 0.0
H1730 H 0.90094 0.54145 0.17234 0.0
H1731 H 0.92455 0.51961 0.23396 0.0
O1732 O 0.91541 0.56145 0.3288 0.0
O1733 O 0.89851 0.54509 0.28239 0.0
O1734 O 0.91773 0.55728 0.23235 0.0
O1735 O 0.9246 0.53836 0.29357 0.0
H1736 H 0.89901 0.56076 0.3859 0.0
H1737 H 0.91968 0.58322 0.30973 0.0
H1738 H 0.88924 0.57798 0.41537 0.0
H1739 H 0.90949 0.60005 0.34033 0.0
H1740 H 0.88314 0.51128 0.23687 0.0
H1741 H 0.88258 0.55383 0.23238 0.0
H1742 H 0.89719 0.52227 0.27937 0.0
H1743 H 0.86884 0.54229 0.19055 0.0
H1744 H 0.86969 0.58362 0.28326 0.0
H1745 H 0.89152 0.58948 0.17627 0.0
H1746 H 0.92016 0.53394 0.4691 0.0
H1747 H 0.89341 0.51373 0.41008 0.0
H1748 H 0.9287 0.5462 0.17206 0.0
H1749 H 0.92595 0.57853 0.23721 0.0
H1750 H 0.94427 0.55461 0.12875 0.0
H1751 H 0.94161 0.58636 0.19283 0.0
H1752 H 0.94157 0.54262 0.34655 0.0
H1753 H 0.91705 0.51708 0.30606 0.0
H1754 H 0.94868 0.52883 0.39962 0.0
H1755 H 0.92455 0.50377 0.36003 0.0
H1756 H 0.96038 0.57834 0.33499 0.0
H1757 H 0.96647 0.55257 0.24057 0.0
H1758 H 0.89968 0.52803 0.11333 0.0
H1759 H 0.9243 0.50591 0.17563 0.0
Li1760 Li 0.70881 0.33752 0.5714 0.0
Li1761 Li 0.69421 0.32497 0.52955 0.0
Li1762 Li 0.70537 0.34077 0.49791 0.0
Li1763 Li 0.69051 0.34526 0.54457 0.0
C1764 C 0.72013 0.32284 0.50041 0.0
N1765 N 0.73778 0.31596 0.44825 0.0
C1766 C 0.71763 0.31721 0.46307 0.0
C1767 C 0.73161 0.3249 0.51138 0.0
C1768 C 0.72667 0.31383 0.43705 0.0
C1769 C 0.74041 0.32136 0.48458 0.0
C1770 C 0.68436 0.3343 0.61378 0.0
C1771 C 0.66514 0.33106 0.63985 0.0
N1772 N 0.66703 0.33903 0.67013 0.0
C1773 C 0.68616 0.34238 0.64535 0.0
C1774 C 0.6738 0.32853 0.61105 0.0
C1775 C 0.67726 0.34469 0.67345 0.0
C1776 C 0.7207 0.34747 0.63775 0.0
N1777 N 0.7194 0.33757 0.61573 0.0
C1778 C 0.73341 0.328 0.65773 0.0
C1779 C 0.72547 0.32789 0.62512 0.0
C1780 C 0.73503 0.33815 0.68092 0.0
C1781 C 0.72852 0.34797 0.67063 0.0
H1782 H 0.71565 0.35499 0.6297 0.0
H1783 H 0.72418 0.32012 0.60706 0.0
C1784 C 0.68758 0.30516 0.48427 0.0
N1785 N 0.68921 0.30946 0.52313 0.0
C1786 C 0.68582 0.29334 0.47843 0.0
C1787 C 0.68683 0.29072 0.55289 0.0
C1788 C 0.68869 0.30257 0.55726 0.0
C1789 C 0.68567 0.28593 0.51297 0.0
H1790 H 0.68808 0.31085 0.45769 0.0
H1791 H 0.69019 0.30622 0.58774 0.0
C1792 C 0.71146 0.36142 0.52584 0.0
N1793 N 0.72255 0.37992 0.48939 0.0
C1794 C 0.70572 0.3682 0.49651 0.0
C1795 C 0.72279 0.36412 0.53704 0.0
C1796 C 0.71149 0.37749 0.47831 0.0
C1797 C 0.72826 0.37349 0.51815 0.0
C1798 C 0.67785 0.33947 0.47839 0.0
C1799 C 0.67547 0.34983 0.45795 0.0
C1800 C 0.66892 0.33167 0.48627 0.0
C1801 C 0.66413 0.3523 0.44626 0.0
C1802 C 0.6577 0.33444 0.47398 0.0
N1803 N 0.65556 0.34463 0.45446 0.0
C1804 C 0.70829 0.34282 0.41051 0.0
C1805 C 0.72507 0.34692 0.4498 0.0
C1806 C 0.7146 0.34343 0.37352 0.0
N1807 N 0.71364 0.34435 0.4477 0.0
C1808 C 0.7317 0.34761 0.41368 0.0
C1809 C 0.72654 0.34559 0.37486 0.0
H1810 H 0.69922 0.34064 0.40968 0.0
H1811 H 0.72921 0.3478 0.47967 0.0
C1812 C 0.68319 0.36638 0.57734 0.0
N1813 N 0.67894 0.35628 0.56228 0.0
C1814 C 0.67589 0.37448 0.59567 0.0
C1815 C 0.65983 0.36172 0.58296 0.0
C1816 C 0.66746 0.35385 0.56466 0.0
C1817 C 0.66404 0.37219 0.59902 0.0
H1818 H 0.69235 0.36803 0.57653 0.0
H1819 H 0.66426 0.34566 0.5538 0.0
O1820 O 0.71139 0.32647 0.5258 0.0
O1821 O 0.69283 0.33216 0.58531 0.0
O1822 O 0.70596 0.35227 0.54389 0.0
O1823 O 0.68889 0.33687 0.48989 0.0
H1824 H 0.7088 0.31565 0.45391 0.0
H1825 H 0.73371 0.32936 0.53994 0.0
H1826 H 0.72485 0.30957 0.40787 0.0
H1827 H 0.74933 0.32297 0.49253 0.0
H1828 H 0.6569 0.32672 0.63799 0.0
H1829 H 0.69427 0.34694 0.64773 0.0
H1830 H 0.67228 0.32228 0.58666 0.0
H1831 H 0.67848 0.351 0.69782 0.0
H1832 H 0.73832 0.32027 0.66436 0.0
H1833 H 0.72935 0.35591 0.68811 0.0
H1834 H 0.68487 0.29 0.44718 0.0
H1835 H 0.6869 0.28529 0.58028 0.0
H1836 H 0.69691 0.36629 0.48791 0.0
H1837 H 0.72735 0.35895 0.55968 0.0
H1838 H 0.70717 0.38278 0.45541 0.0
H1839 H 0.73705 0.37563 0.52628 0.0
H1840 H 0.68231 0.35588 0.45109 0.0
H1841 H 0.6706 0.32362 0.5021 0.0
H1842 H 0.66216 0.36032 0.43057 0.0
H1843 H 0.65069 0.32852 0.48009 0.0
H1844 H 0.71023 0.34194 0.34427 0.0
H1845 H 0.74089 0.34908 0.41642 0.0
H1846 H 0.67958 0.38231 0.60836 0.0
H1847 H 0.65075 0.35959 0.58478 0.0
Li1848 Li 0.91292 0.45552 0.81252 0.0
Li1849 Li 0.9259 0.44289 0.77324 0.0
Li1850 Li 0.90935 0.4523 0.73935 0.0
Li1851 Li 0.90671 0.43647 0.78921 0.0
C1852 C 0.92619 0.46776 0.73793 0.0
N1853 N 0.93196 0.48384 0.67801 0.0
C1854 C 0.93489 0.46536 0.70912 0.0
C1855 C 0.92045 0.47836 0.73633 0.0
C1856 C 0.93769 0.47361 0.67911 0.0
C1857 C 0.92347 0.48636 0.70574 0.0
C1858 C 0.92854 0.437 0.8507 0.0
C1859 C 0.94322 0.42293 0.8666 0.0
N1860 N 0.94855 0.43075 0.89159 0.0
C1861 C 0.93416 0.44489 0.8766 0.0
C1862 C 0.93309 0.42591 0.84572 0.0
C1863 C 0.94426 0.44156 0.897 0.0
C1864 C 0.9065 0.46302 0.89225 0.0
N1865 N 0.91226 0.46615 0.85726 0.0
C1866 C 0.91759 0.48414 0.88781 0.0
C1867 C 0.91785 0.47642 0.85454 0.0
C1868 C 0.91154 0.48125 0.92421 0.0
C1869 C 0.90591 0.47052 0.92606 0.0
H1870 H 0.90238 0.45467 0.89387 0.0
H1871 H 0.92265 0.47854 0.82683 0.0
C1872 C 0.94614 0.4294 0.75159 0.0
N1873 N 0.94191 0.43932 0.76827 0.0
C1874 C 0.95808 0.42753 0.74998 0.0
C1875 C 0.96094 0.44613 0.78237 0.0
C1876 C 0.94904 0.44758 0.78372 0.0
C1877 C 0.96562 0.43604 0.76516 0.0
H1878 H 0.94027 0.42295 0.7397 0.0
H1879 H 0.94542 0.45533 0.79717 0.0
C1880 C 0.89038 0.45719 0.809 0.0
N1881 N 0.8754 0.4693 0.85969 0.0
C1882 C 0.88348 0.45134 0.83775 0.0
C1883 C 0.88964 0.4692 0.80607 0.0
C1884 C 0.87595 0.45762 0.86305 0.0
C1885 C 0.88203 0.47516 0.83199 0.0
C1886 C 0.90956 0.42638 0.71864 0.0
C1887 C 0.9001 0.42741 0.69199 0.0
C1888 C 0.91329 0.41545 0.73106 0.0
C1889 C 0.89449 0.41745 0.67828 0.0
C1890 C 0.90744 0.4057 0.71673 0.0
N1891 N 0.89823 0.40689 0.69086 0.0
C1892 C 0.91147 0.45872 0.6551 0.0
C1893 C 0.89558 0.4673 0.68958 0.0
C1894 C 0.90989 0.46594 0.62079 0.0
N1895 N 0.90462 0.45983 0.68916 0.0
C1896 C 0.89364 0.47464 0.65584 0.0
C1897 C 0.90109 0.47427 0.62139 0.0
H1898 H 0.91857 0.45267 0.65554 0.0
H1899 H 0.89018 0.46794 0.7168 0.0
C1900 C 0.90099 0.41662 0.83607 0.0
N1901 N 0.89716 0.42376 0.80555 0.0
C1902 C 0.89369 0.40827 0.85301 0.0
C1903 C 0.87866 0.41463 0.8064 0.0
C1904 C 0.8863 0.42278 0.79 0.0
C1905 C 0.88224 0.40737 0.83901 0.0
H1906 H 0.90958 0.41766 0.84833 0.0
H1907 H 0.88341 0.42871 0.76622 0.0
O1908 O 0.9231 0.45967 0.76688 0.0
O1909 O 0.9188 0.44019 0.82956 0.0
O1910 O 0.89792 0.45121 0.78429 0.0
O1911 O 0.91497 0.43603 0.7332 0.0
H1912 H 0.93931 0.45715 0.70939 0.0
H1913 H 0.91361 0.48032 0.75806 0.0
H1914 H 0.94437 0.47185 0.65649 0.0
H1915 H 0.91903 0.49455 0.70394 0.0
H1916 H 0.94689 0.41442 0.86273 0.0
H1917 H 0.93084 0.45353 0.88063 0.0
H1918 H 0.92899 0.41976 0.82521 0.0
H1919 H 0.94871 0.4476 0.91701 0.0
H1920 H 0.92229 0.49219 0.88531 0.0
H1921 H 0.90104 0.46794 0.95325 0.0
H1922 H 0.96137 0.41964 0.73644 0.0
H1923 H 0.96645 0.45281 0.79502 0.0
H1924 H 0.88401 0.44209 0.84097 0.0
H1925 H 0.89505 0.47391 0.78461 0.0
H1926 H 0.8706 0.4532 0.88551 0.0
H1927 H 0.88144 0.48446 0.83022 0.0
H1928 H 0.89707 0.43582 0.6823 0.0
H1929 H 0.92054 0.41452 0.75198 0.0
H1930 H 0.88713 0.41811 0.65777 0.0
H1931 H 0.91018 0.39719 0.72627 0.0
H1932 H 0.91571 0.46522 0.59457 0.0
H1933 H 0.88676 0.48093 0.65767 0.0
H1934 H 0.89696 0.40274 0.87743 0.0
H1935 H 0.86989 0.4144 0.79486 0.0
Li1936 Li 0.80744 0.67666 0.03475 0.0
Li1937 Li 0.79344 0.66521 0.07012 0.0
Li1938 Li 0.8108 0.65625 0.04596 0.0
Li1939 Li 0.79571 0.66275 0.9965 0.0
C1940 C 0.81991 0.67053 0.10527 0.0
N1941 N 0.84145 0.67428 0.1394 0.0
C1942 C 0.82124 0.67114 0.14837 0.0
C1943 C 0.82954 0.67179 0.0795 0.0
C1944 C 0.8322 0.67306 0.16503 0.0
C1945 C 0.84035 0.67368 0.09737 0.0
C1946 C 0.78609 0.68678 0.04202 0.0
C1947 C 0.7742 0.70374 0.03474 0.0
N1948 N 0.77752 0.70728 0.07322 0.0
C1949 C 0.78937 0.69059 0.08155 0.0
C1950 C 0.77844 0.6934 0.01843 0.0
C1951 C 0.78495 0.70097 0.09675 0.0
C1952 C 0.81348 0.69696 0.99273 0.0
N1953 N 0.81372 0.69188 0.03079 0.0
C1954 C 0.81987 0.70953 0.06232 0.0
C1955 C 0.81692 0.69788 0.06528 0.0
C1956 C 0.81932 0.7151 0.02365 0.0
C1957 C 0.81625 0.70863 0.98842 0.0
H1958 H 0.8107 0.69203 0.96597 0.0
H1959 H 0.81667 0.69381 0.09545 0.0
C1960 C 0.78584 0.65877 0.14918 0.0
N1961 N 0.78259 0.66454 0.11438 0.0
C1962 C 0.77826 0.65772 0.18264 0.0
C1963 C 0.76418 0.66873 0.14397 0.0
C1964 C 0.77194 0.66934 0.11093 0.0
C1965 C 0.76727 0.66285 0.18059 0.0
H1966 H 0.79431 0.65487 0.15069 0.0
H1967 H 0.76947 0.67366 0.08255 0.0
C1968 C 0.81726 0.65848 0.9617 0.0
N1969 N 0.82599 0.64482 0.89871 0.0
C1970 C 0.81427 0.64681 0.95935 0.0
C1971 C 0.82468 0.6632 0.93201 0.0
C1972 C 0.81877 0.64006 0.92727 0.0
C1973 C 0.82901 0.65615 0.9004 0.0
C1974 C 0.78517 0.64474 0.05128 0.0
C1975 C 0.78595 0.63561 0.07947 0.0
C1976 C 0.77436 0.64828 0.0369 0.0
C1977 C 0.77587 0.63019 0.09304 0.0
C1978 C 0.76448 0.64264 0.05122 0.0
N1979 N 0.76543 0.6338 0.07878 0.0
C1980 C 0.81974 0.64016 0.10026 0.0
C1981 C 0.83229 0.64338 0.04332 0.0
C1982 C 0.82787 0.63305 0.11942 0.0
N1983 N 0.82206 0.64516 0.063 0.0
C1984 C 0.84068 0.63627 0.06133 0.0
C1985 C 0.83858 0.63109 0.1002 0.0
H1986 H 0.81173 0.64209 0.11596 0.0
H1987 H 0.83412 0.64775 0.01441 0.0
C1988 C 0.78349 0.66957 0.92581 0.0
N1989 N 0.78751 0.66009 0.94598 0.0
C1990 C 0.77622 0.66838 0.89148 0.0
C1991 C 0.77776 0.64767 0.89805 0.0
C1992 C 0.7849 0.64926 0.93266 0.0
C1993 C 0.77314 0.65732 0.87752 0.0
H1994 H 0.78573 0.67806 0.93706 0.0
H1995 H 0.78809 0.64186 0.94963 0.0
O1996 O 0.80925 0.66841 0.08874 0.0
O1997 O 0.79045 0.67674 0.02603 0.0
O1998 O 0.81293 0.66535 0.99255 0.0
O1999 O 0.7949 0.65039 0.03856 0.0
H2000 H 0.81387 0.67012 0.16872 0.0
H2001 H 0.82871 0.67128 0.04609 0.0
H2002 H 0.83335 0.67356 0.19835 0.0
H2003 H 0.84788 0.67466 0.07781 0.0
H2004 H 0.76828 0.70894 0.01679 0.0
H2005 H 0.79526 0.68561 0.10037 0.0
H2006 H 0.7758 0.69059 0.9878 0.0
H2007 H 0.78743 0.70402 0.12724 0.0
H2008 H 0.82199 0.71425 0.09034 0.0
H2009 H 0.81574 0.71262 0.95803 0.0
H2010 H 0.78097 0.65285 0.2096 0.0
H2011 H 0.7559 0.67296 0.14088 0.0
H2012 H 0.8086 0.64297 0.9821 0.0
H2013 H 0.82706 0.67222 0.93338 0.0
H2014 H 0.81654 0.63102 0.92511 0.0
H2015 H 0.83476 0.65969 0.87721 0.0
H2016 H 0.79425 0.63275 0.09086 0.0
H2017 H 0.77358 0.65543 0.01551 0.0
H2018 H 0.77634 0.62314 0.11497 0.0
H2019 H 0.75605 0.64534 0.04058 0.0
H2020 H 0.82594 0.62951 0.14977 0.0
H2021 H 0.84877 0.63497 0.04522 0.0
H2022 H 0.77297 0.67604 0.87618 0.0
H2023 H 0.77553 0.639 0.88839 0.0
Li2024 Li 0.5724 0.55545 0.28375 0.0
Li2025 Li 0.58611 0.54372 0.32404 0.0
Li2026 Li 0.59163 0.56254 0.29599 0.0
Li2027 Li 0.58874 0.54584 0.24941 0.0
C2028 C 0.57041 0.56281 0.35947 0.0
N2029 N 0.5507 0.56997 0.40029 0.0
C2030 C 0.56487 0.55543 0.38742 0.0
C2031 C 0.56596 0.57385 0.35242 0.0
C2032 C 0.55491 0.55921 0.40774 0.0
C2033 C 0.55598 0.5773 0.3733 0.0
C2034 C 0.57247 0.52951 0.25636 0.0
C2035 C 0.57571 0.51008 0.23217 0.0
N2036 N 0.56668 0.51119 0.20548 0.0
C2037 C 0.56319 0.53044 0.22886 0.0
C2038 C 0.57874 0.51922 0.25826 0.0
C2039 C 0.5604 0.52108 0.20336 0.0
C2040 C 0.55189 0.56768 0.25757 0.0
N2041 N 0.55628 0.55855 0.27888 0.0
C2042 C 0.53736 0.55146 0.29317 0.0
C2043 C 0.54929 0.55061 0.29701 0.0
C2044 C 0.53253 0.56061 0.27055 0.0
C2045 C 0.53992 0.56893 0.25323 0.0
H2046 H 0.55765 0.57386 0.24337 0.0
H2047 H 0.55304 0.54345 0.31381 0.0
C2048 C 0.59421 0.53774 0.40337 0.0
N2049 N 0.58746 0.53408 0.37148 0.0
C2050 C 0.59492 0.53134 0.43995 0.0
C2051 C 0.5813 0.51776 0.41096 0.0
C2052 C 0.58103 0.52432 0.37456 0.0
C2053 C 0.58831 0.52125 0.44443 0.0
H2054 H 0.5989 0.54575 0.40064 0.0
H2055 H 0.57544 0.52182 0.34926 0.0
C2056 C 0.5878 0.57137 0.22322 0.0
N2057 N 0.59817 0.59045 0.18802 0.0
C2058 C 0.59665 0.56997 0.19418 0.0
C2059 C 0.58417 0.58245 0.23424 0.0
C2060 C 0.60179 0.57973 0.17673 0.0
C2061 C 0.58955 0.59199 0.21615 0.0
C2062 C 0.60894 0.5425 0.31531 0.0
C2063 C 0.61619 0.54892 0.34123 0.0
C2064 C 0.61024 0.53053 0.3131 0.0
C2065 C 0.62456 0.54323 0.36478 0.0
C2066 C 0.6187 0.52516 0.33719 0.0
N2067 N 0.62562 0.53156 0.36232 0.0
C2068 C 0.59819 0.58173 0.34407 0.0
C2069 C 0.61129 0.57743 0.28973 0.0
C2070 C 0.6057 0.59002 0.36015 0.0
N2071 N 0.60114 0.57553 0.30982 0.0
C2072 C 0.61907 0.58566 0.30477 0.0
C2073 C 0.61643 0.59191 0.34106 0.0
H2074 H 0.5902 0.57992 0.36004 0.0
H2075 H 0.61358 0.57216 0.26325 0.0
C2076 C 0.58499 0.53765 0.16849 0.0
N2077 N 0.59293 0.53778 0.19959 0.0
C2078 C 0.58645 0.53042 0.1342 0.0
C2079 C 0.60479 0.52437 0.16248 0.0
C2080 C 0.60284 0.53153 0.19682 0.0
C2081 C 0.59637 0.52355 0.13131 0.0
H2082 H 0.57725 0.54281 0.17126 0.0
H2083 H 0.60906 0.53185 0.22178 0.0
O2084 O 0.57998 0.55917 0.33839 0.0
O2085 O 0.57552 0.53867 0.28084 0.0
O2086 O 0.5828 0.56193 0.2412 0.0
O2087 O 0.6006 0.5479 0.29234 0.0
H2088 H 0.56814 0.54685 0.3931 0.0
H2089 H 0.57009 0.57962 0.33058 0.0
H2090 H 0.5505 0.55358 0.42933 0.0
H2091 H 0.5524 0.58578 0.36793 0.0
H2092 H 0.58054 0.5021 0.23311 0.0
H2093 H 0.55831 0.53836 0.22661 0.0
H2094 H 0.58592 0.51834 0.27943 0.0
H2095 H 0.5533 0.52171 0.18171 0.0
H2096 H 0.53196 0.54495 0.30749 0.0
H2097 H 0.53652 0.57609 0.23544 0.0
H2098 H 0.60055 0.53434 0.4645 0.0
H2099 H 0.57581 0.51023 0.41315 0.0
H2100 H 0.59957 0.56144 0.18545 0.0
H2101 H 0.57736 0.58366 0.25683 0.0
H2102 H 0.60868 0.57879 0.15431 0.0
H2103 H 0.58688 0.60063 0.22454 0.0
H2104 H 0.61528 0.55817 0.34358 0.0
H2105 H 0.60471 0.52543 0.29328 0.0
H2106 H 0.63018 0.54808 0.38512 0.0
H2107 H 0.61975 0.51589 0.33594 0.0
H2108 H 0.60322 0.59473 0.38783 0.0
H2109 H 0.6273 0.58672 0.2893 0.0
H2110 H 0.57983 0.53004 0.11051 0.0
H2111 H 0.61254 0.51917 0.16109 0.0
Li2112 Li 0.29543 0.33511 0.56743 0.0
Li2113 Li 0.31253 0.34425 0.53874 0.0
Li2114 Li 0.29642 0.33789 0.49349 0.0
Li2115 Li 0.30936 0.32378 0.52648 0.0
C2116 C 0.29126 0.35877 0.517 0.0
N2117 N 0.2811 0.37622 0.47143 0.0
C2118 C 0.29806 0.3674 0.49911 0.0
C2119 C 0.27929 0.35901 0.51171 0.0
C2120 C 0.29275 0.37616 0.47624 0.0
C2121 C 0.27432 0.3679 0.48852 0.0
C2122 C 0.31954 0.33448 0.60908 0.0
C2123 C 0.33913 0.33483 0.63417 0.0
N2124 N 0.33576 0.34161 0.66648 0.0
C2125 C 0.31625 0.34138 0.64266 0.0
C2126 C 0.33105 0.33111 0.60486 0.0
C2127 C 0.32458 0.34492 0.67132 0.0
C2128 C 0.2883 0.32637 0.64435 0.0
N2129 N 0.2861 0.3347 0.61572 0.0
C2130 C 0.2711 0.34254 0.65795 0.0
C2131 C 0.27774 0.34274 0.62178 0.0
C2132 C 0.27322 0.33407 0.68824 0.0
C2133 C 0.28194 0.3259 0.6811 0.0
H2134 H 0.29506 0.32014 0.63864 0.0
H2135 H 0.2763 0.34934 0.59871 0.0
C2136 C 0.33513 0.35437 0.5454 0.0
N2137 N 0.32374 0.35561 0.55433 0.0
C2138 C 0.34333 0.36123 0.56557 0.0
C2139 C 0.32788 0.37092 0.60189 0.0
C2140 C 0.32 0.36386 0.58118 0.0
C2141 C 0.33975 0.36945 0.59509 0.0
H2142 H 0.3379 0.34765 0.52442 0.0
H2143 H 0.31091 0.36448 0.58847 0.0
C2144 C 0.28392 0.31734 0.54269 0.0
N2145 N 0.26724 0.30516 0.58559 0.0
C2146 C 0.28647 0.30652 0.55946 0.0
C2147 C 0.27284 0.32193 0.54752 0.0
C2148 C 0.27793 0.3005 0.58106 0.0
C2149 C 0.26454 0.31565 0.5694 0.0
C2150 C 0.32037 0.33045 0.45725 0.0
C2151 C 0.31649 0.32814 0.41696 0.0
C2152 C 0.33134 0.3268 0.46948 0.0
C2153 C 0.32366 0.32212 0.3896 0.0
C2154 C 0.33824 0.32078 0.44123 0.0
N2155 N 0.33429 0.31859 0.4022 0.0
C2156 C 0.28964 0.34874 0.41581 0.0
C2157 C 0.27782 0.33356 0.44041 0.0
C2158 C 0.28243 0.35026 0.38124 0.0
N2159 N 0.28717 0.34052 0.44468 0.0
C2160 C 0.27039 0.33481 0.40668 0.0
C2161 C 0.27264 0.34321 0.3763 0.0
H2162 H 0.29722 0.35408 0.41954 0.0
H2163 H 0.2761 0.32697 0.46321 0.0
C2164 C 0.31974 0.30344 0.55649 0.0
N2165 N 0.31581 0.30869 0.52149 0.0
C2166 C 0.32269 0.29176 0.55591 0.0
C2167 C 0.31807 0.29123 0.48273 0.0
C2168 C 0.31494 0.30285 0.48498 0.0
C2169 C 0.32168 0.28539 0.51881 0.0
H2170 H 0.31997 0.30816 0.58546 0.0
H2171 H 0.31143 0.30708 0.45791 0.0
O2172 O 0.2963 0.35001 0.53893 0.0
O2173 O 0.31158 0.33126 0.57991 0.0
O2174 O 0.29225 0.32351 0.5223 0.0
O2175 O 0.31347 0.33632 0.48445 0.0
H2176 H 0.30734 0.36727 0.50246 0.0
H2177 H 0.27392 0.3523 0.52478 0.0
H2178 H 0.2979 0.38288 0.46214 0.0
H2179 H 0.26508 0.36815 0.48395 0.0
H2180 H 0.34809 0.33238 0.63111 0.0
H2181 H 0.30739 0.34415 0.64619 0.0
H2182 H 0.33375 0.32582 0.57892 0.0
H2183 H 0.32218 0.35034 0.69727 0.0
H2184 H 0.26455 0.34907 0.66257 0.0
H2185 H 0.28376 0.31919 0.70356 0.0
H2186 H 0.35239 0.35989 0.55903 0.0
H2187 H 0.32472 0.37701 0.62473 0.0
H2188 H 0.29497 0.30281 0.55605 0.0
H2189 H 0.27073 0.33036 0.53521 0.0
H2190 H 0.27981 0.29214 0.59431 0.0
H2191 H 0.25597 0.31915 0.57369 0.0
H2192 H 0.30803 0.3309 0.407 0.0
H2193 H 0.33442 0.32842 0.50066 0.0
H2194 H 0.32077 0.32024 0.35836 0.0
H2195 H 0.34672 0.31783 0.45036 0.0
H2196 H 0.2846 0.35677 0.3584 0.0
H2197 H 0.26288 0.32928 0.40477 0.0
H2198 H 0.32516 0.28768 0.58481 0.0
H2199 H 0.31731 0.28683 0.4532 0.0
Li2200 Li 0.4062 0.5629 0.29876 0.0
Li2201 Li 0.41581 0.54578 0.32376 0.0
Li2202 Li 0.42578 0.56026 0.28027 0.0
Li2203 Li 0.41165 0.54748 0.24849 0.0
C2204 C 0.41717 0.57071 0.36439 0.0
N2205 N 0.41127 0.58837 0.41817 0.0
C2206 C 0.41253 0.56822 0.40346 0.0
C2207 C 0.41901 0.5822 0.35306 0.0
C2208 C 0.40954 0.57725 0.43011 0.0
C2209 C 0.41592 0.59101 0.38056 0.0
C2210 C 0.39535 0.53607 0.29643 0.0
C2211 C 0.39623 0.51537 0.28936 0.0
N2212 N 0.38469 0.51475 0.29656 0.0
C2213 C 0.38351 0.53522 0.30387 0.0
C2214 C 0.40178 0.52606 0.28922 0.0
C2215 C 0.37827 0.52437 0.30377 0.0
C2216 C 0.39346 0.58444 0.30641 0.0
N2217 N 0.39434 0.57316 0.31762 0.0
C2218 C 0.37908 0.57534 0.36696 0.0
C2219 C 0.3873 0.56854 0.347 0.0
C2220 C 0.37805 0.58707 0.35674 0.0
C2221 C 0.38534 0.59161 0.32582 0.0
H2222 H 0.39924 0.58794 0.28329 0.0
H2223 H 0.38834 0.5596 0.35589 0.0
C2224 C 0.42417 0.52708 0.3758 0.0
N2225 N 0.41599 0.53531 0.3696 0.0
C2226 C 0.42392 0.52026 0.41157 0.0
C2227 C 0.40648 0.53004 0.43269 0.0
C2228 C 0.40706 0.53664 0.39654 0.0
C2229 C 0.4151 0.52187 0.44094 0.0
H2230 H 0.43094 0.52578 0.35336 0.0
H2231 H 0.40044 0.54297 0.39012 0.0
C2232 C 0.41865 0.57141 0.2142 0.0
N2233 N 0.43097 0.58491 0.15904 0.0
C2234 C 0.42191 0.56698 0.17553 0.0
C2235 C 0.42147 0.58278 0.22446 0.0
C2236 C 0.42818 0.57392 0.14816 0.0
C2237 C 0.42776 0.58944 0.19628 0.0
C2238 C 0.43682 0.53874 0.28576 0.0
C2239 C 0.44299 0.54343 0.3191 0.0
C2240 C 0.44168 0.52981 0.26242 0.0
C2241 C 0.45396 0.53917 0.32826 0.0
C2242 C 0.45266 0.52575 0.27267 0.0
N2243 N 0.45853 0.53049 0.30505 0.0
C2244 C 0.44631 0.57296 0.29946 0.0
C2245 C 0.44654 0.56248 0.23621 0.0
C2246 C 0.45812 0.5752 0.296 0.0
N2247 N 0.44084 0.56652 0.27015 0.0
C2248 C 0.45834 0.56447 0.23161 0.0
C2249 C 0.46436 0.57062 0.26238 0.0
H2250 H 0.44173 0.57569 0.32696 0.0
H2251 H 0.44208 0.55708 0.21404 0.0
C2252 C 0.39732 0.53505 0.19002 0.0
N2253 N 0.40821 0.53834 0.2004 0.0
C2254 C 0.39551 0.52734 0.15713 0.0
C2255 C 0.41609 0.52689 0.1455 0.0
C2256 C 0.4175 0.53451 0.17865 0.0
C2257 C 0.40499 0.52308 0.13455 0.0
H2258 H 0.39006 0.53821 0.20782 0.0
H2259 H 0.42605 0.53729 0.18749 0.0
O2260 O 0.41981 0.56198 0.33727 0.0
O2261 O 0.40056 0.54665 0.2965 0.0
O2262 O 0.41266 0.56467 0.24169 0.0
O2263 O 0.42624 0.54309 0.27515 0.0
H2264 H 0.41123 0.55941 0.41323 0.0
H2265 H 0.42267 0.58432 0.32319 0.0
H2266 H 0.40586 0.57543 0.46029 0.0
H2267 H 0.4172 0.59993 0.37194 0.0
H2268 H 0.4011 0.50757 0.28373 0.0
H2269 H 0.37841 0.54289 0.30959 0.0
H2270 H 0.41096 0.52652 0.28349 0.0
H2271 H 0.36911 0.52359 0.30941 0.0
H2272 H 0.3738 0.57151 0.39104 0.0
H2273 H 0.3848 0.60059 0.3168 0.0
H2274 H 0.43072 0.51401 0.41664 0.0
H2275 H 0.39936 0.53134 0.45397 0.0
H2276 H 0.41967 0.55828 0.16677 0.0
H2277 H 0.41885 0.58643 0.25384 0.0
H2278 H 0.43083 0.57057 0.11826 0.0
H2279 H 0.43007 0.59823 0.20398 0.0
H2280 H 0.43936 0.55029 0.33773 0.0
H2281 H 0.43702 0.52603 0.23667 0.0
H2282 H 0.45884 0.54275 0.35383 0.0
H2283 H 0.45653 0.51885 0.25484 0.0
H2284 H 0.46245 0.57981 0.32077 0.0
H2285 H 0.46281 0.56082 0.20512 0.0
H2286 H 0.3868 0.52471 0.14953 0.0
H2287 H 0.42366 0.52374 0.12939 0.0
Li2288 Li 0.2085 0.66412 0.07104 0.0
Li2289 Li 0.19013 0.6568 0.05337 0.0
Li2290 Li 0.20503 0.66003 0.99981 0.0
Li2291 Li 0.19543 0.67707 0.03325 0.0
C2292 C 0.21253 0.64177 0.06705 0.0
N2293 N 0.2277 0.62788 0.11054 0.0
C2294 C 0.20837 0.63365 0.09551 0.0
C2295 C 0.22441 0.64279 0.06074 0.0
C2296 C 0.21618 0.62671 0.11716 0.0
C2297 C 0.23194 0.63571 0.08304 0.0
C2298 C 0.19494 0.67352 0.12877 0.0
C2299 C 0.20275 0.68705 0.17829 0.0
N2300 N 0.19942 0.67998 0.20983 0.0
C2301 C 0.19154 0.66642 0.16166 0.0
C2302 C 0.20053 0.68395 0.13709 0.0
C2303 C 0.1939 0.66984 0.20244 0.0
C2304 C 0.22842 0.67237 0.11263 0.0
N2305 N 0.21968 0.66458 0.1148 0.0
C2306 C 0.226 0.65833 0.18174 0.0
C2307 C 0.21833 0.65766 0.14853 0.0
C2308 C 0.23508 0.66635 0.18063 0.0
C2309 C 0.23628 0.67339 0.14533 0.0
H2310 H 0.22914 0.67798 0.08594 0.0
H2311 H 0.21116 0.65174 0.15005 0.0
C2312 C 0.17811 0.63577 0.06475 0.0
N2313 N 0.17773 0.64729 0.07236 0.0
C2314 C 0.17051 0.62832 0.08508 0.0
C2315 C 0.16153 0.64484 0.11757 0.0
C2316 C 0.16944 0.65196 0.09713 0.0
C2317 C 0.16229 0.63283 0.11275 0.0
H2318 H 0.18473 0.63231 0.04459 0.0
H2319 H 0.16934 0.66117 0.10259 0.0
C2320 C 0.21968 0.67753 0.99407 0.0
N2321 N 0.23471 0.68345 0.93087 0.0
C2322 C 0.21611 0.68497 0.96239 0.0
C2323 C 0.23093 0.67318 0.99377 0.0
C2324 C 0.22384 0.68786 0.93073 0.0
C2325 C 0.23838 0.67624 0.96147 0.0
C2326 C 0.17922 0.65867 0.98305 0.0
C2327 C 0.18094 0.64854 0.96031 0.0
C2328 C 0.16802 0.66215 0.99308 0.0
C2329 C 0.17139 0.64207 0.9478 0.0
C2330 C 0.1587 0.65543 0.98005 0.0
N2331 N 0.16056 0.64561 0.95786 0.0
C2332 C 0.22033 0.64741 0.9465 0.0
C2333 C 0.20889 0.66164 0.91355 0.0
C2334 C 0.22678 0.64583 0.91022 0.0
N2335 N 0.21184 0.65549 0.94791 0.0
C2336 C 0.21512 0.66037 0.87667 0.0
C2337 C 0.22443 0.6526 0.87498 0.0
H2338 H 0.22238 0.64245 0.97385 0.0
H2339 H 0.20209 0.668 0.9155 0.0
C2340 C 0.19935 0.70073 0.03278 0.0
N2341 N 0.19087 0.69278 0.02721 0.0
C2342 C 0.19695 0.71247 0.02928 0.0
C2343 C 0.17703 0.70773 0.0152 0.0
C2344 C 0.17985 0.69602 0.01865 0.0
C2345 C 0.18567 0.71612 0.02031 0.0
H2346 H 0.20801 0.69793 0.04009 0.0
H2347 H 0.17325 0.68953 0.01461 0.0
O2348 O 0.20501 0.64866 0.04549 0.0
O2349 O 0.19296 0.67021 0.0886 0.0
O2350 O 0.21214 0.67432 0.02472 0.0
O2351 O 0.18848 0.6649 0.99677 0.0
H2352 H 0.19925 0.63281 0.10142 0.0
H2353 H 0.22781 0.64912 0.03941 0.0
H2354 H 0.21307 0.62044 0.13939 0.0
H2355 H 0.24116 0.63647 0.07859 0.0
H2356 H 0.20716 0.69504 0.18517 0.0
H2357 H 0.1873 0.65827 0.15577 0.0
H2358 H 0.20328 0.6895 0.112 0.0
H2359 H 0.19139 0.66439 0.2282 0.0
H2360 H 0.2248 0.65264 0.20806 0.0
H2361 H 0.24304 0.67982 0.14344 0.0
H2362 H 0.17127 0.6191 0.08028 0.0
H2363 H 0.15532 0.64862 0.13873 0.0
H2364 H 0.2074 0.68828 0.96171 0.0
H2365 H 0.23387 0.66747 0.01808 0.0
H2366 H 0.22116 0.69353 0.90584 0.0
H2367 H 0.24708 0.67288 0.96071 0.0
H2368 H 0.18956 0.64565 0.95275 0.0
H2369 H 0.16655 0.66985 0.01128 0.0
H2370 H 0.17259 0.6342 0.93025 0.0
H2371 H 0.14998 0.65799 0.98774 0.0
H2372 H 0.23369 0.63955 0.91008 0.0
H2373 H 0.21303 0.66585 0.85049 0.0
H2374 H 0.20383 0.71864 0.03421 0.0
H2375 H 0.16823 0.71019 0.00816 0.0
Li2376 Li 0.08712 0.45807 0.82242 0.0
Li2377 Li 0.0934 0.43868 0.79711 0.0
Li2378 Li 0.09078 0.45596 0.74914 0.0
Li2379 Li 0.07438 0.44664 0.77918 0.0
C2380 C 0.10971 0.45892 0.82167 0.0
N2381 N 0.1246 0.46942 0.87704 0.0
C2382 C 0.11635 0.45224 0.8488 0.0
C2383 C 0.11072 0.47093 0.82249 0.0
C2384 C 0.12382 0.45772 0.87659 0.0
C2385 C 0.11826 0.47608 0.85079 0.0
C2386 C 0.07133 0.43814 0.85381 0.0
C2387 C 0.05867 0.42207 0.86703 0.0
N2388 N 0.05164 0.42912 0.88945 0.0
C2389 C 0.06403 0.44522 0.8771 0.0
C2390 C 0.06868 0.42647 0.84878 0.0
C2391 C 0.0541 0.4405 0.89483 0.0
C2392 C 0.08289 0.47815 0.87088 0.0
N2393 N 0.08763 0.46744 0.87066 0.0
C2394 C 0.09251 0.469 0.94254 0.0
C2395 C 0.09232 0.46276 0.90548 0.0
C2396 C 0.08771 0.48011 0.94379 0.0
C2397 C 0.08289 0.48471 0.90728 0.0
H2398 H 0.07891 0.48152 0.84309 0.0
H2399 H 0.09584 0.45412 0.90447 0.0
C2400 C 0.11087 0.42115 0.79032 0.0
N2401 N 0.10245 0.42579 0.81453 0.0
C2402 C 0.11804 0.41248 0.80612 0.0
C2403 C 0.10766 0.41348 0.87115 0.0
C2404 C 0.1007 0.42209 0.85414 0.0
C2405 C 0.11657 0.40863 0.8473 0.0
H2406 H 0.11218 0.42438 0.75913 0.0
H2407 H 0.09408 0.42605 0.87298 0.0
C2408 C 0.07498 0.47214 0.74987 0.0
N2409 N 0.07058 0.48972 0.69398 0.0
C2410 C 0.06666 0.4707 0.71883 0.0
C2411 C 0.08106 0.48254 0.75244 0.0
C2412 C 0.06454 0.4797 0.69096 0.0
C2413 C 0.07873 0.4913 0.72385 0.0
C2414 C 0.08019 0.43065 0.72111 0.0
C2415 C 0.07313 0.43297 0.68689 0.0
C2416 C 0.08149 0.41928 0.73484 0.0
C2417 C 0.06748 0.42387 0.66699 0.0
C2418 C 0.07569 0.41042 0.7141 0.0
N2419 N 0.06886 0.41288 0.68088 0.0
C2420 C 0.10542 0.47138 0.70322 0.0
C2421 C 0.08954 0.46375 0.66613 0.0
C2422 C 0.10778 0.47909 0.6708 0.0
N2423 N 0.09621 0.46415 0.7008 0.0
C2424 C 0.09148 0.47138 0.63332 0.0
C2425 C 0.10055 0.47941 0.63567 0.0
H2426 H 0.11065 0.47152 0.73098 0.0
H2427 H 0.0822 0.45806 0.66507 0.0
C2428 C 0.05146 0.45275 0.78472 0.0
N2429 N 0.05806 0.44356 0.77367 0.0
C2430 C 0.03951 0.45234 0.7809 0.0
C2431 C 0.0411 0.43268 0.75688 0.0
C2432 C 0.0531 0.43347 0.76135 0.0
C2433 C 0.03417 0.44232 0.76581 0.0
H2434 H 0.05551 0.46051 0.79627 0.0
H2435 H 0.05838 0.42603 0.75488 0.0
O2436 O 0.10217 0.45372 0.79479 0.0
O2437 O 0.0809 0.44268 0.83515 0.0
O2438 O 0.07733 0.46335 0.77705 0.0
O2439 O 0.08601 0.4394 0.7405 0.0
H2440 H 0.11572 0.44294 0.84859 0.0
H2441 H 0.10559 0.47624 0.80198 0.0
H2442 H 0.12898 0.45266 0.89786 0.0
H2443 H 0.11905 0.48537 0.85198 0.0
H2444 H 0.05646 0.41307 0.86322 0.0
H2445 H 0.06595 0.4543 0.88102 0.0
H2446 H 0.07422 0.4209 0.83058 0.0
H2447 H 0.04833 0.44588 0.91276 0.0
H2448 H 0.09637 0.46516 0.96989 0.0
H2449 H 0.0789 0.49315 0.9071 0.0
H2450 H 0.12488 0.40908 0.78676 0.0
H2451 H 0.1061 0.4107 0.90279 0.0
H2452 H 0.06204 0.46265 0.71566 0.0
H2453 H 0.08763 0.48377 0.77583 0.0
H2454 H 0.05817 0.47867 0.66668 0.0
H2455 H 0.08343 0.49935 0.72531 0.0
H2456 H 0.07187 0.4417 0.67613 0.0
H2457 H 0.08687 0.41729 0.76128 0.0
H2458 H 0.06195 0.42555 0.6406 0.0
H2459 H 0.0766 0.40159 0.72445 0.0
H2460 H 0.11502 0.48493 0.6738 0.0
H2461 H 0.0855 0.47135 0.6075 0.0
H2462 H 0.03451 0.45985 0.78964 0.0
H2463 H 0.03733 0.42471 0.7457 0.0
Li2464 Li 0.30833 0.67875 0.54965 0.0
Li2465 Li 0.29619 0.66411 0.5828 0.0
Li2466 Li 0.31219 0.65866 0.53567 0.0
Li2467 Li 0.29455 0.66726 0.50902 0.0
C2468 C 0.31954 0.67288 0.6173 0.0
N2469 N 0.33219 0.68656 0.67079 0.0
C2470 C 0.31498 0.67601 0.65591 0.0
C2471 C 0.33055 0.67663 0.606 0.0
C2472 C 0.32151 0.68295 0.6825 0.0
C2473 C 0.3368 0.68357 0.63343 0.0
C2474 C 0.28277 0.6846 0.5361 0.0
C2475 C 0.2631 0.68642 0.5125 0.0
N2476 N 0.26572 0.69679 0.49514 0.0
C2477 C 0.28526 0.69528 0.518 0.0
C2478 C 0.27159 0.68014 0.53339 0.0
C2479 C 0.27652 0.70131 0.49748 0.0
C2480 C 0.32059 0.69907 0.52631 0.0
N2481 N 0.31423 0.69401 0.55674 0.0
C2482 C 0.31355 0.71167 0.59502 0.0
C2483 C 0.31074 0.70002 0.59077 0.0
C2484 C 0.31984 0.71724 0.56357 0.0
C2485 C 0.32353 0.71074 0.52915 0.0
H2486 H 0.323 0.69419 0.49906 0.0
H2487 H 0.30537 0.69588 0.61383 0.0
C2488 C 0.29047 0.65222 0.65909 0.0
N2489 N 0.28743 0.66071 0.63202 0.0
C2490 C 0.28353 0.64982 0.69371 0.0
C2491 C 0.27067 0.66509 0.67232 0.0
C2492 C 0.27785 0.66722 0.63843 0.0
C2493 C 0.27341 0.65624 0.7004 0.0
H2494 H 0.29821 0.64724 0.65361 0.0
H2495 H 0.27577 0.67412 0.61728 0.0
C2496 C 0.31833 0.6686 0.4653 0.0
N2497 N 0.33422 0.66154 0.40657 0.0
C2498 C 0.31468 0.6627 0.42975 0.0
C2499 C 0.33005 0.67097 0.47086 0.0
C2500 C 0.32285 0.6592 0.40042 0.0
C2501 C 0.33795 0.6673 0.44086 0.0
C2502 C 0.29168 0.64313 0.55784 0.0
C2503 C 0.2989 0.6344 0.57269 0.0
C2504 C 0.27982 0.64255 0.56548 0.0
C2505 C 0.29412 0.62521 0.59486 0.0
C2506 C 0.27538 0.63323 0.58787 0.0
N2507 N 0.28256 0.62482 0.60195 0.0
C2508 C 0.33468 0.6478 0.53288 0.0
C2509 C 0.32013 0.64006 0.48937 0.0
C2510 C 0.34294 0.64052 0.51482 0.0
N2511 N 0.32357 0.64754 0.51943 0.0
C2512 C 0.32807 0.63271 0.47039 0.0
C2513 C 0.33971 0.63296 0.48258 0.0
H2514 H 0.33722 0.65389 0.5566 0.0
H2515 H 0.31127 0.64016 0.47887 0.0
C2516 C 0.28559 0.6759 0.43362 0.0
N2517 N 0.28442 0.66747 0.46268 0.0
C2518 C 0.27819 0.67626 0.39943 0.0
C2519 C 0.26853 0.6593 0.42593 0.0
C2520 C 0.27618 0.6592 0.45933 0.0
C2521 C 0.26949 0.66791 0.39546 0.0
H2522 H 0.29227 0.68234 0.43712 0.0
H2523 H 0.27556 0.65252 0.48257 0.0
O2524 O 0.31321 0.66624 0.5906 0.0
O2525 O 0.29128 0.67841 0.55541 0.0
O2526 O 0.3105 0.6718 0.49497 0.0
O2527 O 0.2962 0.65229 0.53653 0.0
H2528 H 0.30646 0.6732 0.6651 0.0
H2529 H 0.33418 0.67432 0.57615 0.0
H2530 H 0.31808 0.68549 0.7124 0.0
H2531 H 0.34531 0.6866 0.62498 0.0
H2532 H 0.25444 0.68302 0.50989 0.0
H2533 H 0.29386 0.69884 0.51936 0.0
H2534 H 0.26954 0.67179 0.54651 0.0
H2535 H 0.27834 0.70956 0.48323 0.0
H2536 H 0.31034 0.7164 0.62167 0.0
H2537 H 0.32842 0.71469 0.50426 0.0
H2538 H 0.28598 0.64293 0.71464 0.0
H2539 H 0.26312 0.67045 0.67682 0.0
H2540 H 0.30567 0.66068 0.42512 0.0
H2541 H 0.33303 0.67541 0.4984 0.0
H2542 H 0.32017 0.65457 0.3729 0.0
H2543 H 0.34706 0.66898 0.44495 0.0
H2544 H 0.3081 0.63476 0.56752 0.0
H2545 H 0.27412 0.64934 0.555 0.0
H2546 H 0.29961 0.6184 0.60659 0.0
H2547 H 0.26623 0.63272 0.59425 0.0
H2548 H 0.35177 0.64093 0.52565 0.0
H2549 H 0.32516 0.62721 0.44526 0.0
H2550 H 0.27916 0.68307 0.37664 0.0
H2551 H 0.26204 0.65261 0.42361 0.0
Li2552 Li 0.08913 0.54744 0.33076 0.0
Li2553 Li 0.07276 0.55925 0.295 0.0
Li2554 Li 0.08649 0.54707 0.25539 0.0
Li2555 Li 0.0929 0.56418 0.28494 0.0
C2556 C 0.07158 0.53177 0.28418 0.0
N2557 N 0.06423 0.51086 0.25244 0.0
C2558 C 0.0622 0.53133 0.25697 0.0
C2559 C 0.07722 0.52156 0.29528 0.0
C2560 C 0.05863 0.52068 0.24121 0.0
C2561 C 0.07337 0.51108 0.27894 0.0
C2562 C 0.08856 0.57332 0.35849 0.0
C2563 C 0.08727 0.59313 0.38073 0.0
N2564 N 0.09812 0.5924 0.39661 0.0
C2565 C 0.09966 0.57272 0.37521 0.0
C2566 C 0.08227 0.58357 0.36137 0.0
C2567 C 0.10436 0.58248 0.39428 0.0
C2568 C 0.10273 0.53754 0.39747 0.0
N2569 N 0.09214 0.53845 0.37946 0.0
C2570 C 0.0845 0.52407 0.42497 0.0
C2571 C 0.08302 0.53221 0.39355 0.0
C2572 C 0.09542 0.52253 0.44284 0.0
C2573 C 0.10456 0.5296 0.4297 0.0
H2574 H 0.10984 0.54263 0.38578 0.0
H2575 H 0.07466 0.53322 0.37915 0.0
C2576 C 0.05016 0.56231 0.26651 0.0
N2577 N 0.05706 0.5637 0.30023 0.0
C2578 C 0.03829 0.56407 0.2697 0.0
C2579 C 0.04091 0.56937 0.34172 0.0
C2580 C 0.05274 0.5673 0.33729 0.0
C2581 C 0.03343 0.5675 0.30787 0.0
H2582 H 0.05386 0.55945 0.2374 0.0
H2583 H 0.05843 0.5683 0.36367 0.0
C2584 C 0.10847 0.54171 0.26823 0.0
N2585 N 0.12341 0.52661 0.22917 0.0
C2586 C 0.11265 0.54417 0.22841 0.0
C2587 C 0.11193 0.53157 0.28819 0.0
C2588 C 0.12018 0.53642 0.20918 0.0
C2589 C 0.11949 0.52405 0.26792 0.0
C2590 C 0.08167 0.57211 0.21852 0.0
C2591 C 0.09026 0.57267 0.18809 0.0
C2592 C 0.07426 0.58148 0.22433 0.0
C2593 C 0.09142 0.5827 0.1644 0.0
C2594 C 0.07567 0.59134 0.1999 0.0
N2595 N 0.08417 0.59175 0.17076 0.0
C2596 C 0.08259 0.54187 0.17132 0.0
C2597 C 0.09145 0.52651 0.2078 0.0
C2598 C 0.0829 0.53557 0.1344 0.0
N2599 N 0.08698 0.53736 0.20695 0.0
C2600 C 0.09195 0.5199 0.17158 0.0
C2601 C 0.08772 0.52446 0.13413 0.0
H2602 H 0.07882 0.55039 0.17148 0.0
H2603 H 0.09475 0.52299 0.23644 0.0
C2604 C 0.11391 0.57445 0.26124 0.0
N2605 N 0.10307 0.57709 0.27413 0.0
C2606 C 0.12096 0.58288 0.24354 0.0
C2607 C 0.10605 0.59694 0.25648 0.0
C2608 C 0.09919 0.58817 0.27326 0.0
C2609 C 0.11697 0.5943 0.23986 0.0
H2610 H 0.11692 0.56567 0.26278 0.0
H2611 H 0.09054 0.59012 0.28344 0.0
O2612 O 0.07533 0.54214 0.29943 0.0
O2613 O 0.08389 0.56391 0.33925 0.0
O2614 O 0.10117 0.54924 0.2878 0.0
O2615 O 0.08048 0.56242 0.24239 0.0
H2616 H 0.05778 0.53913 0.24782 0.0
H2617 H 0.08465 0.52173 0.31556 0.0
H2618 H 0.05141 0.52023 0.21999 0.0
H2619 H 0.0777 0.50313 0.28708 0.0
H2620 H 0.08254 0.60115 0.383 0.0
H2621 H 0.10463 0.56484 0.37311 0.0
H2622 H 0.07368 0.58417 0.34838 0.0
H2623 H 0.11297 0.58218 0.40717 0.0
H2624 H 0.07723 0.51886 0.4347 0.0
H2625 H 0.11309 0.52863 0.4429 0.0
H2626 H 0.03296 0.56229 0.24283 0.0
H2627 H 0.03767 0.57221 0.37156 0.0
H2628 H 0.11 0.55191 0.21228 0.0
H2629 H 0.10874 0.52946 0.31878 0.0
H2630 H 0.12342 0.53819 0.1783 0.0
H2631 H 0.12219 0.51616 0.28296 0.0
H2632 H 0.09603 0.56547 0.18311 0.0
H2633 H 0.06757 0.58119 0.24777 0.0
H2634 H 0.0981 0.58329 0.14103 0.0
H2635 H 0.07005 0.59869 0.20422 0.0
H2636 H 0.0793 0.53933 0.10644 0.0
H2637 H 0.09581 0.5114 0.17279 0.0
H2638 H 0.12921 0.58026 0.23101 0.0
H2639 H 0.10264 0.60563 0.25543 0.0
Li2640 Li 0.19244 0.32133 0.03631 0.0
Li2641 Li 0.20394 0.33601 0.07076 0.0
Li2642 Li 0.18783 0.34224 0.02449 0.0
Li2643 Li 0.20602 0.33417 0.99752 0.0
C2644 C 0.17558 0.33137 0.08833 0.0
N2645 N 0.15263 0.32842 0.10874 0.0
C2646 C 0.17164 0.33429 0.128 0.0
C2647 C 0.16787 0.32692 0.05909 0.0
C2648 C 0.15999 0.33274 0.13771 0.0
C2649 C 0.15629 0.32549 0.06998 0.0
C2650 C 0.21748 0.31779 0.06578 0.0
C2651 C 0.2367 0.31768 0.09452 0.0
N2652 N 0.23341 0.30944 0.12216 0.0
C2653 C 0.21432 0.30925 0.09423 0.0
C2654 C 0.22879 0.32198 0.06565 0.0
C2655 C 0.22249 0.30516 0.12254 0.0
C2656 C 0.18787 0.29923 0.00433 0.0
N2657 N 0.18656 0.3059 0.03875 0.0
C2658 C 0.17895 0.28983 0.07666 0.0
C2659 C 0.18214 0.30147 0.07455 0.0
C2660 C 0.18023 0.28278 0.04145 0.0
C2661 C 0.18462 0.28765 0.00483 0.0
H2662 H 0.1918 0.30279 0.97683 0.0
H2663 H 0.18142 0.30687 0.10184 0.0
C2664 C 0.22149 0.34604 0.1218 0.0
N2665 N 0.21231 0.33872 0.12122 0.0
C2666 C 0.22888 0.34633 0.15614 0.0
C2667 C 0.2169 0.33201 0.18948 0.0
C2668 C 0.20972 0.33203 0.15461 0.0
C2669 C 0.22681 0.339 0.1901 0.0
H2670 H 0.22338 0.35126 0.0949 0.0
H2671 H 0.20239 0.32627 0.15327 0.0
C2672 C 0.18528 0.32582 0.94804 0.0
N2673 N 0.17578 0.31768 0.87488 0.0
C2674 C 0.19208 0.31972 0.91963 0.0
C2675 C 0.17365 0.3278 0.93909 0.0
C2676 C 0.18712 0.31566 0.88288 0.0
C2677 C 0.16901 0.32361 0.90199 0.0
C2678 C 0.21054 0.35643 0.00898 0.0
C2679 C 0.20568 0.36602 0.98931 0.0
C2680 C 0.22246 0.3547 0.00701 0.0
C2681 C 0.2128 0.37358 0.96725 0.0
C2682 C 0.22929 0.36244 0.98459 0.0
N2683 N 0.22435 0.37163 0.9653 0.0
C2684 C 0.16771 0.35709 0.03387 0.0
C2685 C 0.17664 0.35606 0.96775 0.0
C2686 C 0.15941 0.36476 0.01838 0.0
N2687 N 0.17608 0.35291 0.00838 0.0
C2688 C 0.1686 0.3637 0.95107 0.0
C2689 C 0.15978 0.36816 0.97635 0.0
H2690 H 0.16744 0.35448 0.06611 0.0
H2691 H 0.18344 0.35266 0.94827 0.0
C2692 C 0.22477 0.32758 0.94626 0.0
N2693 N 0.21558 0.33478 0.94982 0.0
C2694 C 0.23141 0.32761 0.91007 0.0
C2695 C 0.21901 0.34249 0.88218 0.0
C2696 C 0.21257 0.34211 0.91873 0.0
C2697 C 0.22854 0.33512 0.87734 0.0
H2698 H 0.22679 0.32166 0.97115 0.0
H2699 H 0.20509 0.3476 0.92229 0.0
O2700 O 0.18694 0.33295 0.07837 0.0
O2701 O 0.2095 0.32216 0.03868 0.0
O2702 O 0.19004 0.33006 0.98392 0.0
O2703 O 0.20368 0.34886 0.0303 0.0
H2704 H 0.17752 0.33775 0.15099 0.0
H2705 H 0.17079 0.3245 0.02846 0.0
H2706 H 0.15682 0.33499 0.16828 0.0
H2707 H 0.15023 0.32204 0.04764 0.0
H2708 H 0.24544 0.32092 0.09502 0.0
H2709 H 0.20562 0.30593 0.09489 0.0
H2710 H 0.23141 0.32855 0.04382 0.0
H2711 H 0.22013 0.29862 0.14496 0.0
H2712 H 0.17564 0.28636 0.10554 0.0
H2713 H 0.18599 0.28244 0.9773 0.0
H2714 H 0.23644 0.3518 0.15518 0.0
H2715 H 0.21488 0.32634 0.21523 0.0
H2716 H 0.20106 0.31799 0.92609 0.0
H2717 H 0.16824 0.33256 0.96046 0.0
H2718 H 0.19227 0.3109 0.86074 0.0
H2719 H 0.16002 0.32508 0.89471 0.0
H2720 H 0.19653 0.36766 0.99124 0.0
H2721 H 0.22638 0.34734 0.02196 0.0
H2722 H 0.20914 0.381 0.95175 0.0
H2723 H 0.2385 0.36111 0.98244 0.0
H2724 H 0.15273 0.3679 0.03898 0.0
H2725 H 0.16941 0.36622 0.9188 0.0
H2726 H 0.23854 0.32163 0.90742 0.0
H2727 H 0.21655 0.34852 0.85803 0.0
Li2728 Li 0.42709 0.44213 0.79105 0.0
Li2729 Li 0.4124 0.45422 0.82898 0.0
Li2730 Li 0.40657 0.43803 0.78131 0.0
Li2731 Li 0.41472 0.45541 0.75384 0.0
C2732 C 0.41705 0.42577 0.84538 0.0
N2733 N 0.41985 0.40286 0.86684 0.0
C2734 C 0.41379 0.42192 0.88481 0.0
C2735 C 0.42176 0.41798 0.81688 0.0
C2736 C 0.41527 0.4103 0.89507 0.0
C2737 C 0.4231 0.40643 0.8283 0.0
C2738 C 0.43179 0.46837 0.78164 0.0
C2739 C 0.43301 0.48891 0.77061 0.0
N2740 N 0.44272 0.48731 0.74755 0.0
C2741 C 0.44182 0.46694 0.75814 0.0
C2742 C 0.42738 0.47944 0.78822 0.0
C2743 C 0.4472 0.47662 0.74105 0.0
C2744 C 0.44813 0.43369 0.75944 0.0
N2745 N 0.44238 0.43636 0.79495 0.0
C2746 C 0.45929 0.43293 0.83555 0.0
C2747 C 0.44763 0.4359 0.83266 0.0
C2748 C 0.46558 0.43046 0.79924 0.0
C2749 C 0.45978 0.43067 0.76086 0.0
H2750 H 0.44377 0.43433 0.72984 0.0
H2751 H 0.44284 0.43815 0.86035 0.0
C2752 C 0.40004 0.46563 0.89632 0.0
N2753 N 0.41041 0.46309 0.87869 0.0
C2754 C 0.39937 0.47375 0.92861 0.0
C2755 C 0.42008 0.47587 0.92537 0.0
C2756 C 0.42034 0.4678 0.89328 0.0
C2757 C 0.40947 0.47922 0.94274 0.0
H2758 H 0.39225 0.46179 0.88404 0.0
H2759 H 0.42847 0.46557 0.87892 0.0
C2760 C 0.41463 0.43648 0.70016 0.0
N2761 N 0.40592 0.43041 0.62324 0.0
C2762 C 0.404 0.44081 0.68695 0.0
C2763 C 0.42084 0.42907 0.67421 0.0
C2764 C 0.39974 0.43764 0.64799 0.0
C2765 C 0.41629 0.4261 0.63544 0.0
C2766 C 0.39186 0.46208 0.77972 0.0
C2767 C 0.38219 0.45961 0.75529 0.0
C2768 C 0.39291 0.47297 0.79804 0.0
C2769 C 0.37379 0.46809 0.74944 0.0
C2770 C 0.38431 0.48121 0.79152 0.0
N2771 N 0.37501 0.47862 0.76754 0.0
C2772 C 0.38412 0.42815 0.77654 0.0
C2773 C 0.39895 0.417 0.74576 0.0
C2774 C 0.3757 0.42107 0.75868 0.0
N2775 N 0.39548 0.42623 0.76867 0.0
C2776 C 0.39084 0.40978 0.727 0.0
C2777 C 0.379 0.41197 0.73221 0.0
H2778 H 0.38158 0.43553 0.79496 0.0
H2779 H 0.40801 0.41565 0.73971 0.0
C2780 C 0.42377 0.46317 0.67856 0.0
N2781 N 0.41516 0.46543 0.70614 0.0
C2782 C 0.42469 0.46947 0.64178 0.0
C2783 C 0.40793 0.48044 0.66242 0.0
C2784 C 0.40738 0.47396 0.69887 0.0
C2785 C 0.41664 0.4782 0.63315 0.0
H2786 H 0.4299 0.45637 0.68505 0.0
H2787 H 0.40063 0.47572 0.72078 0.0
O2788 O 0.41564 0.43711 0.83494 0.0
O2789 O 0.42626 0.45897 0.79784 0.0
O2790 O 0.41894 0.43937 0.73841 0.0
O2791 O 0.40007 0.4538 0.78637 0.0
H2792 H 0.41013 0.42785 0.90723 0.0
H2793 H 0.42435 0.4208 0.78623 0.0
H2794 H 0.41277 0.4072 0.92547 0.0
H2795 H 0.42672 0.40031 0.80653 0.0
H2796 H 0.42967 0.49752 0.77527 0.0
H2797 H 0.44535 0.45844 0.75273 0.0
H2798 H 0.41969 0.48072 0.80662 0.0
H2799 H 0.45493 0.47564 0.72254 0.0
H2800 H 0.46338 0.43276 0.86581 0.0
H2801 H 0.46431 0.42903 0.73203 0.0
H2802 H 0.39101 0.47608 0.94103 0.0
H2803 H 0.42811 0.47963 0.9359 0.0
H2804 H 0.39909 0.44655 0.70654 0.0
H2805 H 0.42905 0.42558 0.68402 0.0
H2806 H 0.39151 0.44093 0.63743 0.0
H2807 H 0.42099 0.42036 0.61508 0.0
H2808 H 0.38116 0.45124 0.74091 0.0
H2809 H 0.40036 0.47512 0.81657 0.0
H2810 H 0.36628 0.46629 0.73055 0.0
H2811 H 0.38506 0.48968 0.8054 0.0
H2812 H 0.3667 0.42295 0.76447 0.0
H2813 H 0.39386 0.40298 0.70665 0.0
H2814 H 0.43165 0.46755 0.62043 0.0
H2815 H 0.40145 0.48698 0.65688 0.0
H2816 H 0.13839 0.08664 0.8884 0.0
H2817 H 0.11605 0.11421 0.84809 0.0
H2818 H 0.12786 0.12818 0.88597 0.0
H2819 H 0.14451 0.13255 0.93127 0.0
H2820 H 0.16673 0.10486 0.9712 0.0
H2821 H 0.15491 0.09095 0.9333 0.0
C2822 C 0.13605 0.0957 0.88809 0.0
C2823 C 0.12632 0.09935 0.86546 0.0
C2824 C 0.14283 0.10367 0.91011 0.0
C2825 C 0.12356 0.11116 0.86482 0.0
C2826 C 0.13026 0.11915 0.88676 0.0
C2827 C 0.14668 0.12346 0.93196 0.0
C2828 C 0.15647 0.11974 0.95411 0.0
C2829 C 0.13989 0.1155 0.90969 0.0
C2830 C 0.15928 0.10795 0.95419 0.0
C2831 C 0.15252 0.09999 0.93257 0.0
H2832 H 0.13005 0.89507 0.2292 0.0
H2833 H 0.1204 0.91366 0.11851 0.0
H2834 H 0.13261 0.90104 0.0764 0.0
H2835 H 0.14672 0.88517 0.07138 0.0
H2836 H 0.15684 0.86704 0.18251 0.0
H2837 H 0.14375 0.87891 0.22396 0.0
C2838 C 0.13054 0.89627 0.19581 0.0
C2839 C 0.12438 0.90531 0.17704 0.0
C2840 C 0.1377 0.88907 0.17185 0.0
C2841 C 0.12518 0.90684 0.13376 0.0
C2842 C 0.13212 0.89961 0.10964 0.0
C2843 C 0.14594 0.88377 0.10459 0.0
C2844 C 0.15276 0.87529 0.1239 0.0
C2845 C 0.13853 0.89076 0.12838 0.0
C2846 C 0.15176 0.87361 0.16704 0.0
C2847 C 0.14426 0.88037 0.19074 0.0
H2848 H 0.36034 0.91415 0.37936 0.0
H2849 H 0.38775 0.88897 0.37515 0.0
H2850 H 0.37591 0.87544 0.41458 0.0
H2851 H 0.35772 0.87071 0.45034 0.0
H2852 H 0.33078 0.89633 0.45731 0.0
H2853 H 0.34259 0.90978 0.41744 0.0
C2854 C 0.36381 0.90577 0.3874 0.0
C2855 C 0.37495 0.90263 0.37398 0.0
C2856 C 0.35705 0.89809 0.41085 0.0
C2857 C 0.37915 0.89159 0.38422 0.0
C2858 C 0.37242 0.88387 0.4072 0.0
C2859 C 0.3545 0.87929 0.44368 0.0
C2860 C 0.34335 0.88247 0.45677 0.0
C2861 C 0.36136 0.88703 0.42075 0.0
C2862 C 0.33926 0.89359 0.44722 0.0
C2863 C 0.34602 0.9013 0.42449 0.0
H2864 H 0.38166 0.10062 0.65821 0.0
H2865 H 0.35977 0.09642 0.76545 0.0
H2866 H 0.34549 0.10944 0.73479 0.0
H2867 H 0.33898 0.12137 0.67657 0.0
H2868 H 0.36159 0.12681 0.57153 0.0
H2869 H 0.37565 0.11365 0.60173 0.0
C2870 C 0.37376 0.10259 0.67481 0.0
C2871 C 0.37172 0.09755 0.71391 0.0
C2872 C 0.36566 0.11017 0.65718 0.0
C2873 C 0.36154 0.10026 0.73542 0.0
C2874 C 0.35336 0.10765 0.71779 0.0
C2875 C 0.34705 0.1199 0.66042 0.0
C2876 C 0.34909 0.12514 0.62149 0.0
C2877 C 0.3553 0.1126 0.67858 0.0
C2878 C 0.35957 0.12278 0.60098 0.0
C2879 C 0.36771 0.11532 0.61845 0.0
H2880 H 0.8377 0.88814 0.13802 0.0
H2881 H 0.86281 0.86127 0.11663 0.0
H2882 H 0.87724 0.87233 0.15474 0.0
H2883 H 0.88271 0.88951 0.19526 0.0
H2884 H 0.85734 0.91595 0.21876 0.0
H2885 H 0.84294 0.90493 0.18018 0.0
C2886 C 0.84627 0.88459 0.14202 0.0
C2887 C 0.8491 0.87385 0.12413 0.0
C2888 C 0.85448 0.89086 0.16491 0.0
C2889 C 0.86038 0.86959 0.12918 0.0
C2890 C 0.86864 0.87586 0.15141 0.0
C2891 C 0.87403 0.89286 0.1919 0.0
C2892 C 0.87112 0.90353 0.21003 0.0
C2893 C 0.86578 0.8865 0.16948 0.0
C2894 C 0.85979 0.90769 0.20572 0.0
C2895 C 0.85157 0.90144 0.18332 0.0
H2896 H 0.87844 0.11256 0.85695 0.0
H2897 H 0.859 0.08133 0.87819 0.0
H2898 H 0.84482 0.09213 0.91822 0.0
H2899 H 0.83822 0.11029 0.94965 0.0
H2900 H 0.85796 0.14139 0.93054 0.0
H2901 H 0.87189 0.13071 0.88857 0.0
C2902 C 0.87115 0.10807 0.87051 0.0
C2903 C 0.86984 0.09611 0.86416 0.0
C2904 C 0.86313 0.11429 0.89448 0.0
C2905 C 0.86018 0.09055 0.88161 0.0
C2906 C 0.8521 0.0967 0.905 0.0
C2907 C 0.84554 0.11475 0.9361 0.0
C2908 C 0.84706 0.12662 0.94347 0.0
C2909 C 0.85352 0.10855 0.91188 0.0
C2910 C 0.85667 0.13222 0.926 0.0
C2911 C 0.8646 0.12613 0.90169 0.0
H2912 H 0.66267 0.11065 0.63059 0.0
H2913 H 0.63697 0.13737 0.61787 0.0
H2914 H 0.62294 0.12531 0.65404 0.0
H2915 H 0.61797 0.1072 0.69005 0.0
H2916 H 0.64411 0.08105 0.70579 0.0
H2917 H 0.65797 0.09297 0.66838 0.0
C2918 C 0.65405 0.11394 0.63609 0.0
C2919 C 0.65095 0.12495 0.62137 0.0
C2920 C 0.64608 0.10706 0.6577 0.0
C2921 C 0.63961 0.12888 0.62812 0.0
C2922 C 0.63158 0.12202 0.64922 0.0
C2923 C 0.62674 0.10417 0.68577 0.0
C2924 C 0.62995 0.0932 0.70064 0.0
C2925 C 0.63473 0.11111 0.66433 0.0
C2926 C 0.64133 0.08937 0.69421 0.0
C2927 C 0.64929 0.0962 0.67292 0.0
H2928 H 0.62024 0.88773 0.36584 0.0
H2929 H 0.64414 0.91628 0.36405 0.0
H2930 H 0.65827 0.90481 0.40192 0.0
H2931 H 0.66367 0.88694 0.43747 0.0
H2932 H 0.63994 0.85826 0.43913 0.0
H2933 H 0.6258 0.86966 0.40074 0.0
C2934 C 0.62853 0.89146 0.37385 0.0
C2935 C 0.63111 0.90286 0.36183 0.0
C2936 C 0.6366 0.88485 0.39615 0.0
C2937 C 0.64196 0.90748 0.37213 0.0
C2938 C 0.65002 0.90096 0.39418 0.0
C2939 C 0.65546 0.88312 0.42911 0.0
C2940 C 0.6529 0.87174 0.44135 0.0
C2941 C 0.64742 0.88966 0.40651 0.0
C2942 C 0.6421 0.86704 0.43079 0.0
C2943 C 0.63403 0.87353 0.40848 0.0
H2944 H 0.65503 0.62751 0.39539 0.0
H2945 H 0.64596 0.61431 0.51651 0.0
H2946 H 0.63142 0.60182 0.48508 0.0
H2947 H 0.62161 0.59428 0.4232 0.0
H2948 H 0.6307 0.60733 0.30194 0.0
H2949 H 0.6451 0.62003 0.3334 0.0
C2950 C 0.64995 0.62183 0.41492 0.0
C2951 C 0.65163 0.62186 0.45833 0.0
C2952 C 0.64165 0.61459 0.3966 0.0
C2953 C 0.64479 0.61458 0.48312 0.0
C2954 C 0.63651 0.60738 0.46514 0.0
C2955 C 0.62663 0.60001 0.40363 0.0
C2956 C 0.62502 0.59987 0.36021 0.0
C2957 C 0.63487 0.6073 0.42193 0.0
C2958 C 0.63181 0.60718 0.33536 0.0
C2959 C 0.64001 0.61448 0.35336 0.0
H2960 H 0.637 0.4141 0.67823 0.0
H2961 H 0.61851 0.38637 0.73803 0.0
H2962 H 0.63068 0.37226 0.70253 0.0
H2963 H 0.64648 0.36777 0.65367 0.0
H2964 H 0.6642 0.39564 0.59174 0.0
H2965 H 0.65228 0.40967 0.62838 0.0
C2966 C 0.63551 0.40497 0.68325 0.0
C2967 C 0.62678 0.40136 0.71083 0.0
C2968 C 0.64238 0.3969 0.66213 0.0
C2969 C 0.62523 0.38946 0.71751 0.0
C2970 C 0.63213 0.38136 0.69689 0.0
C2971 C 0.64764 0.37691 0.6478 0.0
C2972 C 0.65627 0.38062 0.61999 0.0
C2973 C 0.6407 0.38498 0.66893 0.0
C2974 C 0.65774 0.39252 0.61332 0.0
C2975 C 0.6509 0.40057 0.63418 0.0
H2976 H 0.88091 0.40195 0.92153 0.0
H2977 H 0.86478 0.39475 0.80332 0.0
H2978 H 0.85071 0.38237 0.83778 0.0
H2979 H 0.84293 0.37354 0.90156 0.0
H2980 H 0.85963 0.38003 0.019 0.0
H2981 H 0.87373 0.3925 0.98454 0.0
C2982 C 0.87447 0.39753 0.90303 0.0
C2983 C 0.87396 0.39935 0.85973 0.0
C2984 C 0.86649 0.39027 0.92295 0.0
C2985 C 0.86532 0.3937 0.8367 0.0
C2986 C 0.85729 0.38654 0.85637 0.0
C2987 C 0.84963 0.37774 0.91957 0.0
C2988 C 0.85021 0.37595 0.96279 0.0
C2989 C 0.85776 0.38481 0.89949 0.0
C2990 C 0.85905 0.38126 0.98569 0.0
C2991 C 0.86707 0.38841 0.96602 0.0
H2992 H 0.83573 0.61145 0.14606 0.0
H2993 H 0.86184 0.63515 0.10301 0.0
H2994 H 0.87664 0.62406 0.13915 0.0
H2995 H 0.88219 0.60776 0.18361 0.0
H2996 H 0.85607 0.58406 0.22662 0.0
H2997 H 0.84124 0.59531 0.19129 0.0
C2998 C 0.84464 0.61427 0.14482 0.0
C2999 C 0.84762 0.62412 0.12156 0.0
C3000 C 0.85311 0.60793 0.16618 0.0
C3001 C 0.85927 0.6275 0.11993 0.0
C3002 C 0.86775 0.62122 0.14096 0.0
C3003 C 0.87326 0.60501 0.18514 0.0
C3004 C 0.87029 0.59506 0.2079 0.0
C3005 C 0.86477 0.61142 0.16417 0.0
C3006 C 0.85863 0.59177 0.20999 0.0
C3007 C 0.85013 0.59814 0.18941 0.0
H3008 H 0.33915 0.39212 0.618 0.0
H3009 H 0.35949 0.36115 0.63062 0.0
H3010 H 0.37317 0.37138 0.67498 0.0
H3011 H 0.37923 0.38904 0.71111 0.0
H3012 H 0.3591 0.42014 0.69699 0.0
H3013 H 0.34528 0.40981 0.65381 0.0
C3014 C 0.34655 0.3876 0.63058 0.0
C3015 C 0.3483 0.37589 0.62069 0.0
C3016 C 0.35436 0.39351 0.6564 0.0
C3017 C 0.35802 0.37021 0.637 0.0
C3018 C 0.3658 0.37603 0.66274 0.0
C3019 C 0.37187 0.39361 0.69843 0.0
C3020 C 0.37025 0.40538 0.70771 0.0
C3021 C 0.36405 0.38768 0.67269 0.0
C3022 C 0.36051 0.41104 0.69132 0.0
C3023 C 0.35264 0.40517 0.66612 0.0
H3024 H 0.33712 0.61092 0.45406 0.0
H3025 H 0.3619 0.63865 0.46102 0.0
H3026 H 0.37587 0.62702 0.42271 0.0
H3027 H 0.38103 0.60899 0.38639 0.0
H3028 H 0.35586 0.58169 0.37728 0.0
H3029 H 0.34205 0.59321 0.41661 0.0
C3030 C 0.34554 0.61449 0.44693 0.0
C3031 C 0.3484 0.62568 0.46059 0.0
C3032 C 0.35347 0.60784 0.42423 0.0
C3033 C 0.35947 0.63002 0.45161 0.0
C3034 C 0.36745 0.6234 0.4293 0.0
C3035 C 0.37248 0.60562 0.39259 0.0
C3036 C 0.36952 0.59446 0.37891 0.0
C3037 C 0.36453 0.61232 0.41526 0.0
C3038 C 0.35844 0.59018 0.38782 0.0
C3039 C 0.35051 0.59678 0.41023 0.0
H3040 H 0.1405 0.59628 0.23467 0.0
H3041 H 0.10901 0.6122 0.19147 0.0
H3042 H 0.12017 0.62584 0.15032 0.0
H3043 H 0.13894 0.63275 0.12351 0.0
H3044 H 0.17012 0.61548 0.16156 0.0
H3045 H 0.159 0.60265 0.20655 0.0
C3046 C 0.136 0.60261 0.21595 0.0
C3047 C 0.12386 0.60311 0.21658 0.0
C3048 C 0.14245 0.61014 0.19083 0.0
C3049 C 0.11833 0.61167 0.19265 0.0
C3050 C 0.12471 0.61942 0.16854 0.0
C3051 C 0.14325 0.62617 0.14172 0.0
C3052 C 0.1553 0.625 0.13911 0.0
C3053 C 0.13677 0.61867 0.16702 0.0
C3054 C 0.16083 0.61643 0.1627 0.0
C3055 C 0.15448 0.60914 0.18859 0.0
H3056 H 0.12585 0.4085 0.92516 0.0
H3057 H 0.12503 0.38901 0.81089 0.0
H3058 H 0.13806 0.3747 0.84098 0.0
H3059 H 0.14964 0.3677 0.89971 0.0
H3060 H 0.15069 0.38739 0.01358 0.0
H3061 H 0.13729 0.40141 0.9841 0.0
C3062 C 0.12841 0.40106 0.90695 0.0
C3063 C 0.12444 0.39985 0.86577 0.0
C3064 C 0.13587 0.39284 0.92449 0.0
C3065 C 0.12804 0.39024 0.84244 0.0
C3066 C 0.13544 0.38201 0.85973 0.0
C3067 C 0.14702 0.3751 0.91805 0.0
C3068 C 0.15122 0.37646 0.95888 0.0
C3069 C 0.13944 0.38324 0.90067 0.0
C3070 C 0.14751 0.386 0.98233 0.0
C3071 C 0.13991 0.39409 0.96535 0.0
H3072 H 0.22919 0.16579 0.82399 0.0
H3073 H 0.25777 0.16008 0.90756 0.0
H3074 H 0.27117 0.16081 0.84918 0.0
H3075 H 0.27479 0.16321 0.77457 0.0
H3076 H 0.24601 0.16743 0.69069 0.0
H3077 H 0.23269 0.16711 0.74922 0.0
C3078 C 0.23832 0.16451 0.82949 0.0
C3079 C 0.24242 0.1629 0.87026 0.0
C3080 C 0.24597 0.16473 0.79575 0.0
C3081 C 0.25435 0.16152 0.87668 0.0
C3082 C 0.26203 0.16186 0.84325 0.0
C3083 C 0.2656 0.1639 0.76893 0.0
C3084 C 0.26146 0.16542 0.72815 0.0
C3085 C 0.25794 0.16348 0.80267 0.0
C3086 C 0.2495 0.16649 0.72172 0.0
C3087 C 0.24185 0.16622 0.75517 0.0
H3088 H 0.09504 0.9816 0.05958 0.0
H3089 H 0.07657 0.00684 0.13224 0.0
H3090 H 0.07584 0.01979 0.07234 0.0
H3091 H 0.08023 0.02381 0.99916 0.0
H3092 H 0.09851 0.99852 0.92611 0.0
H3093 H 0.09952 0.98567 0.98632 0.0
C3094 C 0.09096 0.98999 0.06234 0.0
C3095 C 0.0859 0.9933 0.10022 0.0
C3096 C 0.0905 0.99733 0.02772 0.0
C3097 C 0.08046 0.00409 0.10327 0.0
C3098 C 0.08007 0.0115 0.06911 0.0
C3099 C 0.08452 0.01552 0.99656 0.0
C3100 C 0.08932 0.01212 0.95835 0.0
C3101 C 0.08503 0.00819 0.03117 0.0
C3102 C 0.09467 0.00128 0.95515 0.0
C3103 C 0.0953 0.99397 0.98958 0.0
H3104 H 0.25096 0.83866 0.19999 0.0
H3105 H 0.21923 0.83419 0.26833 0.0
H3106 H 0.22986 0.83457 0.33372 0.0
H3107 H 0.24817 0.83605 0.37155 0.0
H3108 H 0.27999 0.83956 0.30302 0.0
H3109 H 0.2693 0.8397 0.23775 0.0
C3110 C 0.24638 0.83764 0.22915 0.0
C3111 C 0.23431 0.83641 0.22917 0.0
C3112 C 0.25255 0.83774 0.26667 0.0
C3113 C 0.2285 0.83532 0.26736 0.0
C3114 C 0.23458 0.83546 0.3048 0.0
C3115 C 0.25278 0.83673 0.34234 0.0
C3116 C 0.26487 0.83781 0.34231 0.0
C3117 C 0.24661 0.83665 0.30482 0.0
C3118 C 0.27068 0.8389 0.3041 0.0
C3119 C 0.26458 0.83889 0.26668 0.0
H3120 H 0.41853 0.02246 0.56052 0.0
H3121 H 0.40071 0.99704 0.63444 0.0
H3122 H 0.40009 0.98395 0.57486 0.0
H3123 H 0.40496 0.97962 0.50218 0.0
H3124 H 0.42286 0.00503 0.42847 0.0
H3125 H 0.42307 0.01828 0.48757 0.0
C3126 C 0.41439 0.0141 0.56342 0.0
C3127 C 0.40966 0.01072 0.60176 0.0
C3128 C 0.41412 0.00662 0.52917 0.0
C3129 C 0.40451 0.99979 0.60532 0.0
C3130 C 0.40411 0.99233 0.57126 0.0
C3131 C 0.40879 0.98811 0.49896 0.0
C3132 C 0.41388 0.99135 0.46105 0.0
C3133 C 0.40893 0.99564 0.53309 0.0
C3134 C 0.41898 0.0023 0.45748 0.0
C3135 C 0.41907 0.00989 0.49118 0.0
H3136 H 0.77313 0.82567 0.2609 0.0
H3137 H 0.74747 0.84378 0.1888 0.0
H3138 H 0.73488 0.84478 0.24942 0.0
H3139 H 0.73112 0.8405 0.32277 0.0
H3140 H 0.75642 0.82192 0.39461 0.0
H3141 H 0.76911 0.82089 0.3339 0.0
C3142 C 0.76473 0.82971 0.25827 0.0
C3143 C 0.76129 0.83469 0.22035 0.0
C3144 C 0.75747 0.83015 0.29316 0.0
C3145 C 0.75042 0.84004 0.21775 0.0
C3146 C 0.74319 0.84056 0.25234 0.0
C3147 C 0.73945 0.83631 0.32517 0.0
C3148 C 0.74288 0.83137 0.36309 0.0
C3149 C 0.74664 0.8357 0.29021 0.0
C3150 C 0.75359 0.82575 0.36564 0.0
C3151 C 0.76085 0.82519 0.33102 0.0
H3152 H 0.90064 0.01056 0.98263 0.0
H3153 H 0.93724 0.01714 0.98909 0.0
H3154 H 0.93866 0.00513 0.05117 0.0
H3155 H 0.92958 0.99243 0.10286 0.0
H3156 H 0.89312 0.9854 0.09499 0.0
H3157 H 0.89162 0.99771 0.03359 0.0
C3158 C 0.90896 0.00927 0.99731 0.0
C3159 C 0.91881 0.01477 0.98118 0.0
C3160 C 0.90975 0.00223 0.03262 0.0
C3161 C 0.92948 0.01316 0.00113 0.0
C3162 C 0.93032 0.00623 0.0365 0.0
C3163 C 0.9213 0.99367 0.08784 0.0
C3164 C 0.91148 0.98803 0.10336 0.0
C3165 C 0.92052 0.00072 0.05249 0.0
C3166 C 0.90082 0.98957 0.08332 0.0
C3167 C 0.89995 0.99665 0.04836 0.0
H3168 H 0.75618 0.15204 0.85247 0.0
H3169 H 0.76734 0.18737 0.83836 0.0
H3170 H 0.75627 0.18902 0.77429 0.0
H3171 H 0.74359 0.18039 0.7216 0.0
H3172 H 0.73304 0.14489 0.73422 0.0
H3173 H 0.744 0.14325 0.7988 0.0
C3174 C 0.75631 0.16007 0.83521 0.0
C3175 C 0.76255 0.16958 0.85057 0.0
C3176 C 0.75011 0.1609 0.79785 0.0
C3177 C 0.76244 0.17996 0.82791 0.0
C3178 C 0.75619 0.1809 0.79098 0.0
C3179 C 0.74367 0.17231 0.73861 0.0
C3180 C 0.73752 0.16278 0.7232 0.0
C3181 C 0.74999 0.17143 0.77568 0.0
C3182 C 0.73781 0.15231 0.74522 0.0
C3183 C 0.74402 0.15139 0.78227 0.0
H3184 H 0.57915 0.02198 0.55839 0.0
H3185 H 0.58795 0.99393 0.64057 0.0
H3186 H 0.58893 0.98072 0.58152 0.0
H3187 H 0.58769 0.97724 0.5066 0.0
H3188 H 0.57925 0.00531 0.42394 0.0
H3189 H 0.57744 0.01837 0.48327 0.0
C3190 C 0.58114 0.01295 0.56338 0.0
C3191 C 0.58352 0.00894 0.60374 0.0
C3192 C 0.58173 0.00542 0.52927 0.0
C3193 C 0.58623 0.99725 0.60972 0.0
C3194 C 0.58675 0.98969 0.57602 0.0
C3195 C 0.58553 0.98624 0.50152 0.0
C3196 C 0.58369 0.99031 0.4609 0.0
C3197 C 0.58464 0.99371 0.53565 0.0
C3198 C 0.58064 0.00193 0.45493 0.0
C3199 C 0.57967 0.00942 0.4888 0.0
H3200 H 0.72684 0.66207 0.31223 0.0
H3201 H 0.75577 0.66125 0.3969 0.0
H3202 H 0.76907 0.66175 0.33838 0.0
H3203 H 0.77251 0.66282 0.26348 0.0
H3204 H 0.74361 0.66135 0.1788 0.0
H3205 H 0.73032 0.6613 0.23732 0.0
C3206 C 0.73604 0.66177 0.31812 0.0
C3207 C 0.74022 0.66173 0.35924 0.0
C3208 C 0.74368 0.66171 0.28429 0.0
C3209 C 0.75223 0.66156 0.3658 0.0
C3210 C 0.75987 0.66175 0.33228 0.0
C3211 C 0.76333 0.66226 0.25759 0.0
C3212 C 0.75915 0.66221 0.21646 0.0
C3213 C 0.75569 0.66188 0.29141 0.0
C3214 C 0.74715 0.6617 0.2099 0.0
C3215 C 0.73951 0.66157 0.24342 0.0
H3216 H 0.5866 0.4979 0.45476 0.0
H3217 H 0.59027 0.52964 0.52397 0.0
H3218 H 0.59067 0.51884 0.58877 0.0
H3219 H 0.58979 0.50044 0.62606 0.0
H3220 H 0.584 0.46895 0.55726 0.0
H3221 H 0.5846 0.47965 0.49225 0.0
C3222 C 0.58732 0.50251 0.48396 0.0
C3223 C 0.58847 0.5146 0.4841 0.0
C3224 C 0.5872 0.49629 0.52137 0.0
C3225 C 0.58963 0.52033 0.5225 0.0
C3226 C 0.58975 0.51417 0.55976 0.0
C3227 C 0.58849 0.4959 0.59698 0.0
C3228 C 0.58693 0.48386 0.59689 0.0
C3229 C 0.58851 0.50214 0.55958 0.0
C3230 C 0.58548 0.47817 0.55855 0.0
C3231 C 0.58572 0.48429 0.52122 0.0
H3232 H 0.73889 0.32164 0.73946 0.0
H3233 H 0.74998 0.35552 0.70073 0.0
H3234 H 0.76327 0.35648 0.75943 0.0
H3235 H 0.77162 0.34779 0.82207 0.0
H3236 H 0.76059 0.31391 0.8608 0.0
H3237 H 0.74763 0.31273 0.80107 0.0
C3238 C 0.74432 0.32918 0.74355 0.0
C3239 C 0.74339 0.33851 0.71583 0.0
C3240 C 0.75199 0.32965 0.77724 0.0
C3241 C 0.75038 0.34828 0.72196 0.0
C3242 C 0.75803 0.34882 0.75538 0.0
C3243 C 0.76633 0.34017 0.81753 0.0
C3244 C 0.76704 0.33097 0.84586 0.0
C3245 C 0.75885 0.33959 0.78335 0.0
C3246 C 0.76029 0.32107 0.83919 0.0
C3247 C 0.75283 0.32041 0.80521 0.0
H3248 H 0.91098 0.52129 0.05729 0.0
H3249 H 0.91242 0.49217 0.14081 0.0
H3250 H 0.91266 0.479 0.08169 0.0
H3251 H 0.91265 0.47575 0.00648 0.0
H3252 H 0.90988 0.50481 0.92311 0.0
H3253 H 0.90996 0.518 0.98219 0.0
C3254 C 0.91117 0.51206 0.06268 0.0
C3255 C 0.91171 0.50776 0.10354 0.0
C3256 C 0.91112 0.50452 0.02859 0.0
C3257 C 0.91219 0.49575 0.10974 0.0
C3258 C 0.91225 0.4882 0.07595 0.0
C3259 C 0.91188 0.48496 0.00115 0.0
C3260 C 0.91129 0.48926 0.96029 0.0
C3261 C 0.91174 0.49249 0.03526 0.0
C3262 C 0.91055 0.50125 0.95412 0.0
C3263 C 0.91051 0.5088 0.98791 0.0
H3264 H 0.25004 0.33617 0.69685 0.0
H3265 H 0.28136 0.33154 0.76723 0.0
H3266 H 0.27032 0.33147 0.83195 0.0
H3267 H 0.25182 0.33309 0.86849 0.0
H3268 H 0.22042 0.3371 0.7978 0.0
H3269 H 0.23148 0.33733 0.73334 0.0
C3270 C 0.25444 0.33521 0.72641 0.0
C3271 C 0.26648 0.33388 0.72733 0.0
C3272 C 0.24804 0.33515 0.76342 0.0
C3273 C 0.27207 0.33247 0.76574 0.0
C3274 C 0.26578 0.33249 0.80274 0.0
C3275 C 0.24737 0.33389 0.83898 0.0
C3276 C 0.23531 0.33513 0.83812 0.0
C3277 C 0.25376 0.33383 0.80194 0.0
C3278 C 0.22972 0.33634 0.79953 0.0
C3279 C 0.23602 0.33638 0.76258 0.0
H3280 H 0.41953 0.49899 0.45182 0.0
H3281 H 0.41052 0.52997 0.51875 0.0
H3282 H 0.41034 0.51925 0.58398 0.0
H3283 H 0.41289 0.50115 0.62209 0.0
H3284 H 0.42156 0.47004 0.55529 0.0
H3285 H 0.42207 0.48082 0.49013 0.0
C3286 C 0.41761 0.5034 0.48074 0.0
C3287 C 0.41501 0.51525 0.48039 0.0
C3288 C 0.41756 0.49719 0.51819 0.0
C3289 C 0.4124 0.52082 0.51806 0.0
C3290 C 0.41236 0.51472 0.55542 0.0
C3291 C 0.41479 0.4967 0.59325 0.0
C3292 C 0.41717 0.4848 0.59365 0.0
C3293 C 0.4149 0.5029 0.55583 0.0
C3294 C 0.41984 0.47922 0.55602 0.0
C3295 C 0.42005 0.48536 0.51867 0.0
H3296 H 0.27495 0.67043 0.31387 0.0
H3297 H 0.24614 0.66562 0.39689 0.0
H3298 H 0.23293 0.66505 0.33775 0.0
H3299 H 0.22962 0.66565 0.26271 0.0
H3300 H 0.25847 0.66967 0.17914 0.0
H3301 H 0.27159 0.67112 0.23833 0.0
C3302 C 0.26577 0.66937 0.31894 0.0
C3303 C 0.26151 0.66805 0.35958 0.0
C3304 C 0.25824 0.66894 0.28479 0.0
C3305 C 0.24961 0.66654 0.3658 0.0
C3306 C 0.24206 0.66625 0.33206 0.0
C3307 C 0.23879 0.66672 0.25736 0.0
C3308 C 0.24305 0.66748 0.21651 0.0
C3309 C 0.2463 0.66734 0.29144 0.0
C3310 C 0.25494 0.66916 0.21025 0.0
C3311 C 0.26246 0.66992 0.24408 0.0
H3312 H 0.08353 0.50154 0.12362 0.0
H3313 H 0.09339 0.53225 0.05662 0.0
H3314 H 0.09423 0.52127 0.99196 0.0
H3315 H 0.09229 0.50292 0.95448 0.0
H3316 H 0.08253 0.47221 0.02155 0.0
H3317 H 0.08184 0.48316 0.08633 0.0
C3318 C 0.08598 0.50581 0.09496 0.0
C3319 C 0.08836 0.51771 0.09499 0.0
C3320 C 0.08654 0.49943 0.05794 0.0
C3321 C 0.09135 0.52313 0.0574 0.0
C3322 C 0.0919 0.51685 0.02044 0.0
C3323 C 0.08993 0.49865 0.98324 0.0
C3324 C 0.08746 0.48677 0.98317 0.0
C3325 C 0.08948 0.505 0.02033 0.0
C3326 C 0.08461 0.48131 0.02081 0.0
C3327 C 0.08414 0.48758 0.05783 0.0
H3328 H 0.17056 0.22985 0.01276 0.0
H3329 H 0.19123 0.2275 0.12415 0.0
H3330 H 0.1914 0.24843 0.13001 0.0
H3331 H 0.18732 0.2675 0.10002 0.0
H3332 H 0.16791 0.2699 0.98607 0.0
H3333 H 0.16578 0.24891 0.98437 0.0
C3334 C 0.17513 0.23389 0.03832 0.0
C3335 C 0.18089 0.22702 0.06784 0.0
C3336 C 0.17552 0.24599 0.04086 0.0
C3337 C 0.18655 0.23248 0.10121 0.0
C3338 C 0.18676 0.2445 0.10442 0.0
C3339 C 0.18244 0.26343 0.07527 0.0
C3340 C 0.17778 0.27022 0.0432 0.0
C3341 C 0.18147 0.25134 0.07401 0.0
C3342 C 0.17163 0.26483 0.01095 0.0
C3343 C 0.17042 0.25284 0.00998 0.0
H3344 H 0.01881 0.93368 0.34699 0.0
H3345 H 0.02001 0.93311 0.21284 0.0
H3346 H 0.99903 0.93247 0.20994 0.0
H3347 H 0.98029 0.93341 0.24519 0.0
H3348 H 0.97888 0.9334 0.37904 0.0
H3349 H 0.99998 0.93263 0.38241 0.0
C3350 C 0.01451 0.93318 0.31712 0.0
C3351 C 0.02103 0.93366 0.28019 0.0
C3352 C 0.00239 0.93273 0.31561 0.0
C3353 C 0.01524 0.93306 0.24178 0.0
C3354 C 0.00323 0.93263 0.24004 0.0
C3355 C 0.98463 0.93315 0.27507 0.0
C3356 C 0.97809 0.93357 0.3118 0.0
C3357 C 0.99671 0.93273 0.2767 0.0
C3358 C 0.98376 0.93306 0.35035 0.0
C3359 C 0.99581 0.93268 0.35226 0.0
H3360 H 0.32587 0.77045 0.6014 0.0
H3361 H 0.31567 0.77251 0.47251 0.0
H3362 H 0.31562 0.75158 0.46764 0.0
H3363 H 0.31713 0.73265 0.50086 0.0
H3364 H 0.32651 0.73033 0.63031 0.0
H3365 H 0.32799 0.75136 0.63423 0.0
C3366 C 0.32363 0.76632 0.57225 0.0
C3367 C 0.32084 0.77312 0.53737 0.0
C3368 C 0.32336 0.75421 0.56981 0.0
C3369 C 0.31809 0.76758 0.49971 0.0
C3370 C 0.31794 0.75557 0.49694 0.0
C3371 C 0.31971 0.73672 0.52975 0.0
C3372 C 0.32172 0.72992 0.56521 0.0
C3373 C 0.32043 0.7488 0.53188 0.0
C3374 C 0.32482 0.73537 0.60263 0.0
C3375 C 0.3257 0.74739 0.60487 0.0
H3376 H 0.48162 0.07425 0.83807 0.0
H3377 H 0.48006 0.05857 0.71637 0.0
H3378 H 0.50097 0.05907 0.71142 0.0
H3379 H 0.51978 0.06294 0.74275 0.0
H3380 H 0.52171 0.07757 0.86575 0.0
H3381 H 0.50062 0.07834 0.86933 0.0
C3382 C 0.48584 0.0709 0.81053 0.0
C3383 C 0.47919 0.06648 0.77753 0.0
C3384 C 0.49797 0.07097 0.80816 0.0
C3385 C 0.48487 0.06228 0.74193 0.0
C3386 C 0.49687 0.06246 0.73915 0.0
C3387 C 0.51559 0.06648 0.77006 0.0
C3388 C 0.52229 0.07027 0.80381 0.0
C3389 C 0.5035 0.06671 0.77214 0.0
C3390 C 0.51672 0.07459 0.83939 0.0
C3391 C 0.50468 0.07502 0.84143 0.0
H3392 H 0.17049 0.76838 0.03453 0.0
H3393 H 0.20149 0.77267 0.96178 0.0
H3394 H 0.20396 0.75183 0.95844 0.0
H3395 H 0.19805 0.73243 0.97953 0.0
H3396 H 0.16742 0.72789 0.05382 0.0
H3397 H 0.16405 0.74873 0.05303 0.0
C3398 C 0.17776 0.76474 0.01786 0.0
C3399 C 0.18577 0.77211 0.99838 0.0
C3400 C 0.17923 0.7527 0.01646 0.0
C3401 C 0.19508 0.76724 0.9765 0.0
C3402 C 0.19657 0.7553 0.97487 0.0
C3403 C 0.19063 0.73601 0.99556 0.0
C3404 C 0.18306 0.72863 0.01701 0.0
C3405 C 0.18881 0.74797 0.99523 0.0
C3406 C 0.17336 0.73337 0.03691 0.0
C3407 C 0.17146 0.7453 0.03667 0.0
H3408 H 0.4835 0.92943 0.21862 0.0
H3409 H 0.4807 0.9353 0.35084 0.0
H3410 H 0.5016 0.93547 0.357 0.0
H3411 H 0.52068 0.93506 0.32472 0.0
H3412 H 0.52369 0.93044 0.19206 0.0
H3413 H 0.50276 0.92863 0.18636 0.0
C3414 C 0.48745 0.93077 0.24878 0.0
C3415 C 0.48046 0.93233 0.28417 0.0
C3416 C 0.49955 0.93112 0.25208 0.0
C3417 C 0.48579 0.93387 0.3231 0.0
C3418 C 0.49778 0.93408 0.32666 0.0
C3419 C 0.51677 0.93371 0.29449 0.0
C3420 C 0.52378 0.93298 0.25887 0.0
C3421 C 0.50473 0.93288 0.29132 0.0
C3422 C 0.51855 0.93094 0.22009 0.0
C3423 C 0.50655 0.92999 0.21674 0.0
H3424 H 0.33105 0.23232 0.55152 0.0
H3425 H 0.3051 0.22917 0.4562 0.0
H3426 H 0.30456 0.25012 0.44835 0.0
H3427 H 0.31022 0.26923 0.47267 0.0
H3428 H 0.33709 0.27259 0.56493 0.0
H3429 H 0.33834 0.25165 0.57037 0.0
C3430 C 0.32538 0.23625 0.52877 0.0
C3431 C 0.31811 0.22925 0.50455 0.0
C3432 C 0.32515 0.24832 0.52427 0.0
C3433 C 0.31085 0.2344 0.47493 0.0
C3434 C 0.31048 0.24637 0.47064 0.0
C3435 C 0.31659 0.26548 0.49323 0.0
C3436 C 0.32345 0.27262 0.51866 0.0
C3437 C 0.31745 0.25342 0.49563 0.0
C3438 C 0.33147 0.2674 0.54564 0.0
C3439 C 0.33226 0.25539 0.54861 0.0
H3440 H 0.9816 0.05968 0.72842 0.0
H3441 H 0.97928 0.08571 0.82399 0.0
H3442 H 1.00028 0.08735 0.82532 0.0
H3443 H 0.01936 0.08074 0.80153 0.0
H3444 H 0.0215 0.05455 0.70647 0.0
H3445 H 0.00053 0.05391 0.70189 0.0
C3446 C 0.98565 0.06589 0.74898 0.0
C3447 C 0.97883 0.07253 0.77618 0.0
C3448 C 0.99773 0.06678 0.74964 0.0
C3449 C 0.9843 0.08037 0.80312 0.0
C3450 C 0.99632 0.08135 0.8038 0.0
C3451 C 0.01524 0.07491 0.77977 0.0
C3452 C 0.02203 0.06771 0.75441 0.0
C3453 C 0.00313 0.07446 0.77766 0.0
C3454 C 0.01653 0.06031 0.72597 0.0
C3455 C 0.00451 0.05987 0.72355 0.0
H3456 H 0.80578 0.7305 0.98347 0.0
H3457 H 0.83647 0.72813 0.0586 0.0
H3458 H 0.83829 0.74918 0.05834 0.0
H3459 H 0.83071 0.76828 0.03874 0.0
H3460 H 0.79927 0.77035 0.96706 0.0
H3461 H 0.79842 0.74945 0.96302 0.0
C3462 C 0.81298 0.73459 0.99919 0.0
C3463 C 0.821 0.72778 0.02086 0.0
C3464 C 0.81386 0.74666 0.99945 0.0
C3465 C 0.83015 0.7332 0.04184 0.0
C3466 C 0.8312 0.74523 0.04165 0.0
C3467 C 0.82365 0.76417 0.02233 0.0
C3468 C 0.81512 0.77099 0.00302 0.0
C3469 C 0.82301 0.75206 0.02101 0.0
C3470 C 0.80612 0.76543 0.98148 0.0
C3471 C 0.80554 0.75343 0.97946 0.0
H3472 H 0.69332 0.23298 0.47782 0.0
H3473 H 0.66756 0.23005 0.57417 0.0
H3474 H 0.66606 0.25102 0.57776 0.0
H3475 H 0.67268 0.27027 0.5556 0.0
H3476 H 0.69803 0.27305 0.458 0.0
H3477 H 0.69881 0.25208 0.45206 0.0
C3478 C 0.68719 0.23688 0.49904 0.0
C3479 C 0.68064 0.22987 0.52591 0.0
C3480 C 0.68628 0.24895 0.50072 0.0
C3481 C 0.67289 0.23518 0.55364 0.0
C3482 C 0.67197 0.24719 0.55559 0.0
C3483 C 0.67833 0.26627 0.53293 0.0
C3484 C 0.6853 0.27321 0.50734 0.0
C3485 C 0.67876 0.25417 0.52973 0.0
C3486 C 0.69249 0.26791 0.47778 0.0
C3487 C 0.693 0.25591 0.47455 0.0
H3488 H 0.80732 0.26868 0.10491 0.0
H3489 H 0.83884 0.27093 0.03412 0.0
H3490 H 0.8404 0.24989 0.03369 0.0
H3491 H 0.83226 0.23083 0.05055 0.0
H3492 H 0.80035 0.22882 0.11939 0.0
H3493 H 0.79972 0.24976 0.12456 0.0
C3494 C 0.81466 0.26459 0.09009 0.0
C3495 C 0.82295 0.27138 0.06955 0.0
C3496 C 0.81545 0.25251 0.08967 0.0
C3497 C 0.83228 0.2659 0.04981 0.0
C3498 C 0.83319 0.25387 0.04964 0.0
C3499 C 0.82518 0.23497 0.06672 0.0
C3500 C 0.81639 0.22821 0.08459 0.0
C3501 C 0.82472 0.24708 0.06889 0.0
C3502 C 0.80735 0.23375 0.10592 0.0
C3503 C 0.80691 0.24575 0.10858 0.0
H3504 H 0.69259 0.72928 0.59435 0.0
H3505 H 0.6643 0.72797 0.50741 0.0
H3506 H 0.66317 0.74904 0.50752 0.0
H3507 H 0.67081 0.76785 0.53 0.0
H3508 H 0.69963 0.76894 0.61493 0.0
H3509 H 0.69969 0.74797 0.61892 0.0
C3510 C 0.68603 0.73359 0.57602 0.0
C3511 C 0.67854 0.72705 0.55092 0.0
C3512 C 0.6855 0.74569 0.57593 0.0
C3513 C 0.67024 0.7328 0.52673 0.0
C3514 C 0.66957 0.74485 0.52685 0.0
C3515 C 0.67712 0.76351 0.54936 0.0
C3516 C 0.6852 0.77003 0.5721 0.0
C3517 C 0.67728 0.75138 0.55085 0.0
C3518 C 0.69318 0.76421 0.59755 0.0
C3519 C 0.6933 0.75219 0.59959 0.0
H3520 H 0.51853 0.41908 0.77562 0.0
H3521 H 0.52143 0.44657 0.8656 0.0
H3522 H 0.50051 0.44763 0.87092 0.0
H3523 H 0.48139 0.44184 0.8463 0.0
H3524 H 0.47829 0.41467 0.75528 0.0
H3525 H 0.49926 0.41258 0.75352 0.0
C3526 C 0.51458 0.42529 0.79643 0.0
C3527 C 0.52159 0.43272 0.82018 0.0
C3528 C 0.5025 0.42602 0.79885 0.0
C3529 C 0.5163 0.44061 0.84741 0.0
C3530 C 0.50431 0.44131 0.85022 0.0
C3531 C 0.48527 0.4353 0.82665 0.0
C3532 C 0.47825 0.42845 0.80088 0.0
C3533 C 0.49732 0.43417 0.82567 0.0
C3534 C 0.48348 0.42016 0.77506 0.0
C3535 C 0.49547 0.41893 0.77414 0.0
H3536 H 0.98023 0.56368 0.35053 0.0
H3537 H 0.97749 0.57399 0.22231 0.0
H3538 H 0.99844 0.57655 0.2185 0.0
H3539 H 0.01753 0.57463 0.25033 0.0
H3540 H 0.02036 0.56222 0.37656 0.0
H3541 H 0.99945 0.56207 0.38285 0.0
C3542 C 0.98426 0.56666 0.32206 0.0
C3543 C 0.97742 0.56872 0.28681 0.0
C3544 C 0.99632 0.56773 0.31975 0.0
C3545 C 0.98266 0.5724 0.24979 0.0
C3546 C 0.9946 0.57383 0.24762 0.0
C3547 C 0.01362 0.57181 0.2792 0.0
C3548 C 0.02064 0.56839 0.31278 0.0
C3549 C 0.00154 0.57129 0.28216 0.0
C3550 C 0.01529 0.56508 0.35025 0.0
C3551 C 0.00328 0.56487 0.35382 0.0
H3552 H 0.98117 0.45164 0.73798 0.0
H3553 H 0.97851 0.41725 0.78783 0.0
H3554 H 0.99961 0.4158 0.79046 0.0
H3555 H 0.01879 0.42498 0.78317 0.0
H3556 H 0.02102 0.45939 0.73245 0.0
H3557 H 1.00013 0.46021 0.72612 0.0
C3558 C 0.98522 0.44382 0.74935 0.0
C3559 C 0.97832 0.43462 0.76311 0.0
C3560 C 0.99728 0.4431 0.75102 0.0
C3561 C 0.98366 0.42444 0.77698 0.0
C3562 C 0.99571 0.42364 0.77871 0.0
C3563 C 0.01471 0.43258 0.7702 0.0
C3564 C 0.02148 0.44218 0.759 0.0
C3565 C 0.00261 0.433 0.76643 0.0
C3566 C 0.01602 0.45198 0.74231 0.0
C3567 C 0.00407 0.45245 0.73841 0.0
H3568 H 0.47913 0.55317 0.24541 0.0
H3569 H 0.47833 0.58915 0.27938 0.0
H3570 H 0.49944 0.58944 0.28315 0.0
H3571 H 0.51813 0.57914 0.27953 0.0
H3572 H 0.51852 0.54306 0.24672 0.0
H3573 H 0.49759 0.54316 0.23935 0.0
C3574 C 0.48357 0.56114 0.25287 0.0
C3575 C 0.47717 0.57114 0.26179 0.0
C3576 C 0.49565 0.5612 0.25544 0.0
C3577 C 0.48307 0.58132 0.27249 0.0
C3578 C 0.49513 0.58149 0.27459 0.0
C3579 C 0.51362 0.57135 0.27034 0.0
C3580 C 0.51986 0.56108 0.26398 0.0
C3581 C 0.50152 0.57144 0.26654 0.0
C3582 C 0.5139 0.55102 0.25239 0.0
C3583 C 0.50193 0.55109 0.24801 0.0
H3584 H 0.22881 0.16908 0.27279 0.0
H3585 H 0.23912 0.13634 0.22036 0.0
H3586 H 0.25367 0.13419 0.2744 0.0
H3587 H 0.26442 0.14217 0.33439 0.0
H3588 H 0.25536 0.17579 0.38131 0.0
H3589 H 0.23963 0.17718 0.33093 0.0
C3590 C 0.23429 0.16151 0.27263 0.0
C3591 C 0.23278 0.15293 0.24206 0.0
C3592 C 0.24301 0.16054 0.30272 0.0
C3593 C 0.23985 0.14304 0.24363 0.0
C3594 C 0.24831 0.14185 0.27435 0.0
C3595 C 0.25894 0.14975 0.33348 0.0
C3596 C 0.26101 0.15889 0.36123 0.0
C3597 C 0.25008 0.15061 0.30371 0.0
C3598 C 0.25394 0.16871 0.3599 0.0
C3599 C 0.24494 0.16948 0.33124 0.0
H3600 H 0.08438 0.99779 0.44844 0.0
H3601 H 0.10929 0.97566 0.50785 0.0
H3602 H 0.11094 0.9893 0.56573 0.0
H3603 H 0.10455 0.00711 0.60094 0.0
H3604 H 0.08002 0.02941 0.53984 0.0
H3605 H 0.07891 0.01607 0.48142 0.0
C3606 C 0.09014 0.99595 0.47416 0.0
C3607 C 0.09661 0.98568 0.47413 0.0
C3608 C 0.09109 0.00384 0.50711 0.0
C3609 C 0.10422 0.98351 0.50718 0.0
C3610 C 0.10515 0.99129 0.54031 0.0
C3611 C 0.09911 0.00916 0.57456 0.0
C3612 C 0.09229 0.01922 0.57516 0.0
C3613 C 0.09855 0.00145 0.54077 0.0
C3614 C 0.08519 0.02163 0.54074 0.0
C3615 C 0.08458 0.01403 0.50716 0.0
H3616 H 0.24707 0.83311 0.8646 0.0
H3617 H 0.22627 0.86029 0.81224 0.0
H3618 H 0.23943 0.86169 0.75285 0.0
H3619 H 0.25632 0.85443 0.71412 0.0
H3620 H 0.27725 0.82751 0.76807 0.0
H3621 H 0.26447 0.82666 0.8281 0.0
C3622 C 0.2454 0.83932 0.84011 0.0
C3623 C 0.23565 0.84651 0.84262 0.0
C3624 C 0.25299 0.84007 0.80617 0.0
C3625 C 0.23374 0.85468 0.8111 0.0
C3626 C 0.24123 0.85544 0.77706 0.0
C3627 C 0.25819 0.8485 0.73926 0.0
C3628 C 0.26769 0.84095 0.73615 0.0
C3629 C 0.25083 0.8481 0.77406 0.0
C3630 C 0.26989 0.83325 0.76904 0.0
C3631 C 0.26261 0.8328 0.80358 0.0
H3632 H 0.41865 0.00194 0.95286 0.0
H3633 H 0.39615 0.026 0.01506 0.0
H3634 H 0.39445 0.01283 0.07423 0.0
H3635 H 0.39992 0.99475 0.10915 0.0
H3636 H 0.4218 0.97037 0.04521 0.0
H3637 H 0.42331 0.98347 0.98624 0.0
C3638 C 0.41342 0.00431 0.97949 0.0
C3639 C 0.4076 0.01496 0.97977 0.0
C3640 C 0.41241 0.99666 0.01316 0.0
C3641 C 0.40068 0.01784 0.01409 0.0
C3642 C 0.39974 0.01032 0.04795 0.0
C3643 C 0.40487 0.9922 0.08209 0.0
C3644 C 0.4108 0.98158 0.08199 0.0
C3645 C 0.4056 0.99972 0.0479 0.0
C3646 C 0.41731 0.97855 0.0467 0.0
C3647 C 0.41814 0.98602 0.01276 0.0
H3648 H 0.74992 0.84429 0.8759 0.0
H3649 H 0.77912 0.85356 0.79985 0.0
H3650 H 0.76657 0.85492 0.73887 0.0
H3651 H 0.74755 0.85181 0.70615 0.0
H3652 H 0.71858 0.84202 0.78262 0.0
H3653 H 0.73083 0.84235 0.84429 0.0
C3654 C 0.75355 0.84661 0.84597 0.0
C3655 C 0.76547 0.84868 0.84238 0.0
C3656 C 0.74633 0.84716 0.81102 0.0
C3657 C 0.76997 0.85196 0.80356 0.0
C3658 C 0.76281 0.85265 0.76861 0.0
C3659 C 0.74388 0.84994 0.73642 0.0
C3660 C 0.73217 0.84681 0.73971 0.0
C3661 C 0.75101 0.85006 0.77182 0.0
C3662 C 0.72759 0.84429 0.77913 0.0
C3663 C 0.73458 0.84451 0.81443 0.0
H3664 H 0.89926 0.02299 0.55989 0.0
H3665 H 0.91257 0.99873 0.64937 0.0
H3666 H 0.91129 0.98321 0.59824 0.0
H3667 H 0.90721 0.97668 0.52746 0.0
H3668 H 0.89521 0.00115 0.43601 0.0
H3669 H 0.89483 0.01628 0.48865 0.0
C3670 C 0.90175 0.01427 0.56817 0.0
C3671 C 0.90606 0.012 0.6082 0.0
C3672 C 0.9012 0.0054 0.53829 0.0
C3673 C 0.90934 0.00069 0.61857 0.0
C3674 C 0.90859 0.99181 0.5894 0.0
C3675 C 0.90456 0.98533 0.51885 0.0
C3676 C 0.90128 0.9877 0.47759 0.0
C3677 C 0.9047 0.9941 0.54898 0.0
C3678 C 0.89763 0.99895 0.46752 0.0
C3679 C 0.89752 0.00768 0.49758 0.0
H3680 H 0.75203 0.14781 0.2091 0.0
H3681 H 0.78 0.16092 0.28372 0.0
H3682 H 0.7676 0.16086 0.3452 0.0
H3683 H 0.74854 0.1581 0.37698 0.0
H3684 H 0.72028 0.14578 0.30206 0.0
H3685 H 0.73302 0.14449 0.24155 0.0
C3686 C 0.75543 0.15049 0.23898 0.0
C3687 C 0.76691 0.15436 0.2419 0.0
C3688 C 0.74818 0.15065 0.27407 0.0
C3689 C 0.77117 0.15798 0.28066 0.0
C3690 C 0.76409 0.15794 0.31582 0.0
C3691 C 0.74522 0.15497 0.34755 0.0
C3692 C 0.73349 0.15202 0.34403 0.0
C3693 C 0.75254 0.15444 0.31278 0.0
C3694 C 0.72926 0.14818 0.30548 0.0
C3695 C 0.73655 0.14741 0.27092 0.0
H3696 H 0.60047 0.99747 0.11647 0.0
H3697 H 0.59763 0.96764 0.03677 0.0
H3698 H 0.59685 0.98013 0.97579 0.0
H3699 H 0.59615 0.99951 0.94528 0.0
H3700 H 0.59903 0.02937 0.02458 0.0
H3701 H 0.601 0.01686 0.08543 0.0
C3702 C 0.5999 0.99368 0.08573 0.0
C3703 C 0.59903 0.98161 0.08134 0.0
C3704 C 0.59948 0.00092 0.05071 0.0
C3705 C 0.59812 0.97689 0.0412 0.0
C3706 C 0.59772 0.98402 0.00626 0.0
C3707 C 0.59721 0.00328 0.97591 0.0
C3708 C 0.59734 0.01535 0.98044 0.0
C3709 C 0.59822 0.99605 0.0107 0.0
C3710 C 0.59896 0.02011 0.0202 0.0
C3711 C 0.60001 0.01296 0.05503 0.0
H3712 H 0.75269 0.66828 0.86716 0.0
H3713 H 0.77501 0.64315 0.80979 0.0
H3714 H 0.76161 0.64137 0.75124 0.0
H3715 H 0.74396 0.64764 0.71501 0.0
H3716 H 0.72141 0.67234 0.77417 0.0
H3717 H 0.73456 0.67369 0.83302 0.0
C3718 C 0.75463 0.66244 0.84173 0.0
C3719 C 0.76487 0.65594 0.84257 0.0
C3720 C 0.74688 0.66142 0.8084 0.0
C3721 C 0.76717 0.64824 0.80986 0.0
C3722 C 0.75953 0.64725 0.77635 0.0
C3723 C 0.74181 0.65318 0.74105 0.0
C3724 C 0.73172 0.65997 0.73976 0.0
C3725 C 0.74939 0.65386 0.77514 0.0
C3726 C 0.7292 0.66719 0.77375 0.0
C3727 C 0.73669 0.66793 0.8076 0.0
H3728 H 0.58274 0.50521 0.1163 0.0
H3729 H 0.61265 0.52309 0.07011 0.0
H3730 H 0.61385 0.50966 0.01118 0.0
H3731 H 0.60572 0.49339 0.97134 0.0
H3732 H 0.5766 0.47471 0.02136 0.0
H3733 H 0.57571 0.48794 0.07993 0.0
C3734 C 0.58953 0.5061 0.0933 0.0
C3735 C 0.59753 0.51513 0.09702 0.0
C3736 C 0.59025 0.49827 0.0601 0.0
C3737 C 0.6064 0.51618 0.06759 0.0
C3738 C 0.60706 0.50853 0.03396 0.0
C3739 C 0.5993 0.49205 0.99533 0.0
C3740 C 0.5911 0.48312 0.99116 0.0
C3741 C 0.59896 0.49958 0.0297 0.0
C3742 C 0.58282 0.48167 0.02277 0.0
C3743 C 0.58234 0.48919 0.0566 0.0
H3744 H 0.74475 0.35927 0.35249 0.0
H3745 H 0.72469 0.33003 0.31149 0.0
H3746 H 0.73707 0.32793 0.25075 0.0
H3747 H 0.75406 0.33377 0.21084 0.0
H3748 H 0.77433 0.36289 0.25147 0.0
H3749 H 0.7616 0.36542 0.3114 0.0
C3750 C 0.74309 0.35242 0.33031 0.0
C3751 C 0.73374 0.34486 0.3366 0.0
C3752 C 0.75037 0.35114 0.29561 0.0
C3753 C 0.73167 0.33612 0.30719 0.0
C3754 C 0.73882 0.33483 0.27258 0.0
C3755 C 0.75562 0.34078 0.23244 0.0
C3756 C 0.76515 0.34813 0.22651 0.0
C3757 C 0.74824 0.34223 0.26664 0.0
C3758 C 0.76715 0.35701 0.25545 0.0
C3759 C 0.75983 0.35851 0.28961 0.0
H3760 H 0.91849 0.48605 0.5841 0.0
H3761 H 0.88148 0.48225 0.58346 0.0
H3762 H 0.87993 0.4971 0.5297 0.0
H3763 H 0.88912 0.51118 0.48286 0.0
H3764 H 0.92621 0.51445 0.48262 0.0
H3765 H 0.92766 0.49987 0.53689 0.0
C3766 C 0.91009 0.48835 0.57181 0.0
C3767 C 0.90012 0.48298 0.58759 0.0
C3768 C 0.90926 0.49689 0.54098 0.0
C3769 C 0.88929 0.48628 0.572 0.0
C3770 C 0.88839 0.49475 0.54119 0.0
C3771 C 0.89752 0.50867 0.49452 0.0
C3772 C 0.90753 0.51401 0.47877 0.0
C3773 C 0.89833 0.50013 0.52547 0.0
C3774 C 0.91834 0.5107 0.49466 0.0
C3775 C 0.91919 0.50226 0.52547 0.0
H3776 H 0.23832 0.35639 0.23018 0.0
H3777 H 0.2346 0.31936 0.22695 0.0
H3778 H 0.24862 0.31743 0.28295 0.0
H3779 H 0.26196 0.32614 0.33263 0.0
H3780 H 0.2655 0.36317 0.33796 0.0
H3781 H 0.25186 0.36518 0.28046 0.0
C3782 C 0.24062 0.34791 0.24165 0.0
C3783 C 0.23531 0.33805 0.22462 0.0
C3784 C 0.24875 0.34684 0.27395 0.0
C3785 C 0.23836 0.32711 0.24001 0.0
C3786 C 0.24646 0.32598 0.27183 0.0
C3787 C 0.25968 0.33468 0.3216 0.0
C3788 C 0.26474 0.34448 0.33995 0.0
C3789 C 0.25167 0.33578 0.28913 0.0
C3790 C 0.26187 0.35545 0.32429 0.0
C3791 C 0.25398 0.35661 0.29158 0.0
H3792 H 0.39643 0.48073 0.01378 0.0
H3793 H 0.42154 0.49936 0.94097 0.0
H3794 H 0.42199 0.51467 0.99271 0.0
H3795 H 0.41582 0.52256 0.0596 0.0
H3796 H 0.3908 0.50415 0.13335 0.0
H3797 H 0.38951 0.4892 0.07987 0.0
C3798 C 0.4019 0.48819 0.00907 0.0
C3799 C 0.40908 0.48876 0.97377 0.0
C3800 C 0.40211 0.49706 0.03906 0.0
C3801 C 0.41614 0.49852 0.96826 0.0
C3802 C 0.41635 0.50735 0.99773 0.0
C3803 C 0.41009 0.51527 0.06406 0.0
C3804 C 0.40348 0.51446 0.10061 0.0
C3805 C 0.4095 0.50664 0.03348 0.0
C3806 C 0.39593 0.50505 0.10541 0.0
C3807 C 0.39525 0.49644 0.07495 0.0
H3808 H 0.24787 0.65068 0.8727 0.0
H3809 H 0.21806 0.65353 0.79302 0.0
H3810 H 0.23057 0.65445 0.73207 0.0
H3811 H 0.24997 0.65524 0.70158 0.0
H3812 H 0.27979 0.65232 0.78105 0.0
H3813 H 0.26726 0.65026 0.84175 0.0
C3814 C 0.24408 0.65128 0.84198 0.0
C3815 C 0.23201 0.6521 0.8376 0.0
C3816 C 0.25133 0.65177 0.80698 0.0
C3817 C 0.2273 0.65306 0.79746 0.0
C3818 C 0.23445 0.65354 0.76253 0.0
C3819 C 0.25373 0.65415 0.73221 0.0
C3820 C 0.26581 0.65402 0.73679 0.0
C3821 C 0.24648 0.65307 0.76698 0.0
C3822 C 0.27053 0.65238 0.77658 0.0
C3823 C 0.26337 0.65128 0.81135 0.0
H3824 H 0.10356 0.52409 0.52221 0.0
H3825 H 0.09116 0.49984 0.43103 0.0
H3826 H 0.09271 0.48414 0.48144 0.0
H3827 H 0.09662 0.47749 0.55209 0.0
H3828 H 0.10728 0.502 0.64566 0.0
H3829 H 0.10773 0.51726 0.59358 0.0
C3830 C 0.10133 0.51533 0.51346 0.0
C3831 C 0.09723 0.51308 0.47313 0.0
C3832 C 0.10196 0.50638 0.54299 0.0
C3833 C 0.09427 0.50174 0.46205 0.0
C3834 C 0.09516 0.49278 0.49082 0.0
C3835 C 0.09898 0.48617 0.56134 0.0
C3836 C 0.10186 0.4885 0.60304 0.0
C3837 C 0.0988 0.49503 0.53157 0.0
C3838 C 0.10518 0.49981 0.61384 0.0
C3839 C 0.10532 0.50862 0.58409 0.0
loop_
_geom_bond_atom_site_label_1
_geom_bond_atom_site_label_2
_geom_bond_distance
_geom_bond_site_symmetry_2
_ccdc_geom_bond_type
Li0 N17 1.990 . S
Li0 O60 1.956 . S
Li0 O61 1.970 . S
Li0 O62 1.961 . S
Li1 N25 1.990 . S
Li1 O60 1.970 . S
Li1 O61 1.956 . S
Li1 O63 1.961 1_554 S
Li2 N47 1.990 . S
Li2 O60 1.961 1_556 S
Li2 O62 1.956 1_556 S
Li2 O63 1.970 . S
Li3 N53 1.990 . S
Li3 O61 1.961 . S
Li3 O62 1.970 . S
Li3 O63 1.956 1_554 S
C4 C6 1.348 . S
C4 C7 1.356 . S
C4 O60 1.325 . S
N5 C8 1.314 . S
N5 C9 1.279 . S
C6 C4 1.348 . S
C6 C8 1.353 . S
C6 H64 0.929 . S
C7 C4 1.356 . S
C7 C9 1.358 . S
C7 H65 0.930 . S
C8 N5 1.314 . S
C8 C6 1.353 . S
C8 H66 0.930 . S
C9 N5 1.279 . S
C9 C7 1.358 . S
C9 H67 0.930 . S
C10 C13 1.348 . S
C10 C14 1.356 . S
C10 O61 1.325 . S
C11 N12 1.279 . S
C11 C14 1.358 . S
C11 H68 0.930 . S
N12 C11 1.279 . S
N12 C15 1.314 . S
C13 C10 1.348 . S
C13 C15 1.353 . S
C13 H69 0.929 . S
C14 C10 1.356 . S
C14 C11 1.358 . S
C14 H70 0.930 . S
C15 N12 1.314 . S
C15 C13 1.353 . S
C15 H71 0.930 . S
C16 N17 1.314 . S
C16 C21 1.353 . S
C16 H22 0.930 . S
N17 Li0 1.990 . S
N17 C16 1.314 . S
N17 C19 1.279 . S
C18 C19 1.358 . S
C18 C20 1.356 . S
C18 H72 0.930 . S
C19 N17 1.279 . S
C19 C18 1.358 . S
C19 H23 0.930 . S
C20 C18 1.356 . S
C20 C21 1.348 . S
C21 C16 1.353 . S
C21 C20 1.348 . S
C21 H73 0.929 . S
H22 C16 0.930 . S
H23 C19 0.930 . S
C24 N25 1.314 1_556 S
C24 C26 1.353 . S
C24 H30 0.930 . S
N25 Li1 1.990 . S
N25 C24 1.314 1_554 S
N25 C28 1.279 . S
C26 C24 1.353 . S
C26 C29 1.348 . S
C26 H74 0.929 . S
C27 C28 1.358 . S
C27 C29 1.356 1_554 S
C27 H75 0.930 . S
C28 N25 1.279 . S
C28 C27 1.358 . S
C28 H31 0.930 . S
C29 C26 1.348 . S
C29 C27 1.356 1_556 S
H30 C24 0.930 . S
H31 C28 0.930 . S
C32 C34 1.348 . S
C32 C35 1.356 . S
C32 O62 1.325 . S
N33 C36 1.314 . S
N33 C37 1.279 . S
C34 C32 1.348 . S
C34 C36 1.353 . S
C34 H76 0.929 . S
C35 C32 1.356 . S
C35 C37 1.358 . S
C35 H77 0.930 . S
C36 N33 1.314 . S
C36 C34 1.353 . S
C36 H78 0.930 . S
C37 N33 1.279 . S
C37 C35 1.358 . S
C37 H79 0.930 . S
C38 C39 1.348 . S
C38 C40 1.356 . S
C38 O63 1.325 . S
C39 C38 1.348 . S
C39 C41 1.353 . S
C39 H80 0.929 . S
C40 C38 1.356 . S
C40 C42 1.358 . S
C40 H81 0.930 . S
C41 C39 1.353 . S
C41 N43 1.314 . S
C41 H82 0.930 . S
C42 C40 1.358 . S
C42 N43 1.279 . S
C42 H83 0.930 . S
N43 C41 1.314 . S
N43 C42 1.279 . S
C44 C46 1.353 . S
C44 N47 1.314 . S
C44 H50 0.930 . S
C45 N47 1.279 . S
C45 C48 1.358 . S
C45 H51 0.930 . S
C46 C44 1.353 . S
C46 C49 1.348 . S
C46 H84 0.929 . S
N47 Li2 1.990 . S
N47 C44 1.314 . S
N47 C45 1.279 . S
C48 C45 1.358 . S
C48 C49 1.356 . S
C48 H85 0.930 . S
C49 C46 1.348 . S
C49 C48 1.356 . S
H50 C44 0.930 . S
H51 C45 0.930 . S
C52 N53 1.314 . S
C52 C54 1.353 . S
C52 H58 0.930 . S
N53 Li3 1.990 . S
N53 C52 1.314 . S
N53 C56 1.279 1_554 S
C54 C52 1.353 . S
C54 C57 1.348 . S
C54 H86 0.929 . S
C55 C56 1.358 . S
C55 C57 1.356 1_556 S
C55 H87 0.930 . S
C56 N53 1.279 1_556 S
C56 C55 1.358 . S
C56 H59 0.930 . S
C57 C54 1.348 . S
C57 C55 1.356 1_554 S
H58 C52 0.930 . S
H59 C56 0.930 . S
O60 Li0 1.956 . S
O60 Li1 1.970 . S
O60 Li2 1.961 1_554 S
O60 C4 1.325 . S
O61 Li0 1.970 . S
O61 Li1 1.956 . S
O61 Li3 1.961 . S
O61 C10 1.325 . S
O62 Li0 1.961 . S
O62 Li2 1.956 1_554 S
O62 Li3 1.970 . S
O62 C32 1.325 . S
O63 Li1 1.961 1_556 S
O63 Li2 1.970 . S
O63 Li3 1.956 1_556 S
O63 C38 1.325 . S
H64 C6 0.929 . S
H65 C7 0.930 . S
H66 C8 0.930 . S
H67 C9 0.930 . S
H68 C11 0.930 . S
H69 C13 0.929 . S
H70 C14 0.930 . S
H71 C15 0.930 . S
H72 C18 0.930 . S
H73 C21 0.929 . S
H74 C26 0.929 . S
H75 C27 0.930 . S
H76 C34 0.929 . S
H77 C35 0.930 . S
H78 C36 0.930 . S
H79 C37 0.930 . S
H80 C39 0.929 . S
H81 C40 0.930 . S
H82 C41 0.930 . S
H83 C42 0.930 . S
H84 C46 0.929 . S
H85 C48 0.930 . S
H86 C54 0.929 . S
H87 C55 0.930 . S
Li88 N105 1.990 . S
Li88 O148 1.956 . S
Li88 O149 1.970 . S
Li88 O150 1.961 . S
Li89 N113 1.990 . S
Li89 O148 1.970 . S
Li89 O149 1.956 . S
Li89 O151 1.961 . S
Li90 N135 1.990 . S
Li90 O148 1.961 . S
Li90 O150 1.956 . S
Li90 O151 1.970 . S
Li91 N141 1.990 . S
Li91 O149 1.961 . S
Li91 O150 1.970 . S
Li91 O151 1.956 . S
C92 C94 1.348 . S
C92 C95 1.356 . S
C92 O148 1.325 . S
N93 C96 1.314 . S
N93 C97 1.279 . S
C94 C92 1.348 . S
C94 C96 1.353 . S
C94 H152 0.929 . S
C95 C92 1.356 . S
C95 C97 1.358 . S
C95 H153 0.930 . S
C96 N93 1.314 . S
C96 C94 1.353 . S
C96 H154 0.930 . S
C97 N93 1.279 . S
C97 C95 1.358 . S
C97 H155 0.930 . S
C98 C101 1.348 . S
C98 C102 1.356 . S
C98 O149 1.325 . S
C99 N100 1.279 . S
C99 C102 1.358 . S
C99 H156 0.930 . S
N100 C99 1.279 . S
N100 C103 1.314 . S
C101 C98 1.348 . S
C101 C103 1.353 . S
C101 H157 0.929 . S
C102 C98 1.356 . S
C102 C99 1.358 . S
C102 H158 0.930 . S
C103 N100 1.314 . S
C103 C101 1.353 . S
C103 H159 0.930 . S
C104 N105 1.314 . S
C104 C109 1.353 . S
C104 H110 0.930 . S
N105 Li88 1.990 . S
N105 C104 1.314 . S
N105 C107 1.279 . S
C106 C107 1.358 . S
C106 C108 1.356 . S
C106 H160 0.930 . S
C107 N105 1.279 . S
C107 C106 1.358 . S
C107 H111 0.930 . S
C108 C106 1.356 . S
C108 C109 1.348 . S
C109 C104 1.353 . S
C109 C108 1.348 . S
C109 H161 0.929 . S
H110 C104 0.930 . S
H111 C107 0.930 . S
C112 N113 1.314 . S
C112 C114 1.353 . S
C112 H118 0.930 . S
N113 Li89 1.990 . S
N113 C112 1.314 . S
N113 C116 1.279 . S
C114 C112 1.353 . S
C114 C117 1.348 . S
C114 H162 0.929 . S
C115 C116 1.358 . S
C115 C117 1.356 . S
C115 H163 0.930 . S
C116 N113 1.279 . S
C116 C115 1.358 . S
C116 H119 0.930 . S
C117 C114 1.348 . S
C117 C115 1.356 . S
H118 C112 0.930 . S
H119 C116 0.930 . S
C120 C122 1.348 . S
C120 C123 1.356 . S
C120 O150 1.325 . S
N121 C124 1.314 . S
N121 C125 1.279 . S
C122 C120 1.348 . S
C122 C124 1.353 . S
C122 H164 0.929 . S
C123 C120 1.356 . S
C123 C125 1.358 . S
C123 H165 0.930 . S
C124 N121 1.314 . S
C124 C122 1.353 . S
C124 H166 0.930 . S
C125 N121 1.279 . S
C125 C123 1.358 . S
C125 H167 0.930 . S
C126 C127 1.348 . S
C126 C128 1.356 . S
C126 O151 1.325 . S
C127 C126 1.348 . S
C127 C129 1.353 . S
C127 H168 0.929 . S
C128 C126 1.356 . S
C128 C130 1.358 . S
C128 H169 0.930 . S
C129 C127 1.353 . S
C129 N131 1.314 . S
C129 H170 0.930 . S
C130 C128 1.358 . S
C130 N131 1.279 . S
C130 H171 0.930 . S
N131 C129 1.314 . S
N131 C130 1.279 . S
C132 C134 1.353 . S
C132 N135 1.314 . S
C132 H138 0.930 . S
C133 N135 1.279 . S
C133 C136 1.358 . S
C133 H139 0.930 . S
C134 C132 1.353 . S
C134 C137 1.348 . S
C134 H172 0.929 . S
N135 Li90 1.990 . S
N135 C132 1.314 . S
N135 C133 1.279 . S
C136 C133 1.358 . S
C136 C137 1.356 . S
C136 H173 0.930 . S
C137 C134 1.348 . S
C137 C136 1.356 . S
H138 C132 0.930 . S
H139 C133 0.930 . S
C140 N141 1.314 . S
C140 C142 1.353 . S
C140 H146 0.930 . S
N141 Li91 1.990 . S
N141 C140 1.314 . S
N141 C144 1.279 . S
C142 C140 1.353 . S
C142 C145 1.348 . S
C142 H174 0.929 . S
C143 C144 1.358 . S
C143 C145 1.356 . S
C143 H175 0.930 . S
C144 N141 1.279 . S
C144 C143 1.358 . S
C144 H147 0.930 . S
C145 C142 1.348 . S
C145 C143 1.356 . S
H146 C140 0.930 . S
H147 C144 0.930 . S
O148 Li88 1.956 . S
O148 Li89 1.970 . S
O148 Li90 1.961 . S
O148 C92 1.325 . S
O149 Li88 1.970 . S
O149 Li89 1.956 . S
O149 Li91 1.961 . S
O149 C98 1.325 . S
O150 Li88 1.961 . S
O150 Li90 1.956 . S
O150 Li91 1.970 . S
O150 C120 1.325 . S
O151 Li89 1.961 . S
O151 Li90 1.970 . S
O151 Li91 1.956 . S
O151 C126 1.325 . S
H152 C94 0.929 . S
H153 C95 0.930 . S
H154 C96 0.930 . S
H155 C97 0.930 . S
H156 C99 0.930 . S
H157 C101 0.929 . S
H158 C102 0.930 . S
H159 C103 0.930 . S
H160 C106 0.930 . S
H161 C109 0.929 . S
H162 C114 0.929 . S
H163 C115 0.930 . S
H164 C122 0.929 . S
H165 C123 0.930 . S
H166 C124 0.930 . S
H167 C125 0.930 . S
H168 C127 0.929 . S
H169 C128 0.930 . S
H170 C129 0.930 . S
H171 C130 0.930 . S
H172 C134 0.929 . S
H173 C136 0.930 . S
H174 C142 0.929 . S
H175 C143 0.930 . S
Li176 N193 1.990 . S
Li176 O236 1.956 . S
Li176 O237 1.970 . S
Li176 O238 1.961 . S
Li177 N201 1.990 . S
Li177 O236 1.970 . S
Li177 O237 1.956 . S
Li177 O239 1.961 . S
Li178 N223 1.990 . S
Li178 O236 1.961 . S
Li178 O238 1.956 . S
Li178 O239 1.970 . S
Li179 N229 1.990 . S
Li179 O237 1.961 . S
Li179 O238 1.970 . S
Li179 O239 1.956 . S
C180 C182 1.348 . S
C180 C183 1.356 . S
C180 O236 1.325 . S
N181 C184 1.314 . S
N181 C185 1.279 . S
C182 C180 1.348 . S
C182 C184 1.353 . S
C182 H240 0.929 . S
C183 C180 1.356 . S
C183 C185 1.358 . S
C183 H241 0.930 . S
C184 N181 1.314 . S
C184 C182 1.353 . S
C184 H242 0.930 . S
C185 N181 1.279 . S
C185 C183 1.358 . S
C185 H243 0.930 . S
C186 C189 1.348 . S
C186 C190 1.356 . S
C186 O237 1.325 . S
C187 N188 1.279 . S
C187 C190 1.358 . S
C187 H244 0.930 . S
N188 C187 1.279 . S
N188 C191 1.314 . S
C189 C186 1.348 . S
C189 C191 1.353 . S
C189 H245 0.929 . S
C190 C186 1.356 . S
C190 C187 1.358 . S
C190 H246 0.930 . S
C191 N188 1.314 . S
C191 C189 1.353 . S
C191 H247 0.930 . S
C192 N193 1.314 . S
C192 C197 1.353 . S
C192 H198 0.930 . S
N193 Li176 1.990 . S
N193 C192 1.314 . S
N193 C195 1.279 . S
C194 C195 1.358 . S
C194 C196 1.356 . S
C194 H248 0.930 . S
C195 N193 1.279 . S
C195 C194 1.358 . S
C195 H199 0.930 . S
C196 C194 1.356 . S
C196 C197 1.348 . S
C197 C192 1.353 . S
C197 C196 1.348 . S
C197 H249 0.929 . S
H198 C192 0.930 . S
H199 C195 0.930 . S
C200 N201 1.314 . S
C200 C202 1.353 . S
C200 H206 0.930 . S
N201 Li177 1.990 . S
N201 C200 1.314 . S
N201 C204 1.279 . S
C202 C200 1.353 . S
C202 C205 1.348 . S
C202 H250 0.929 . S
C203 C204 1.358 . S
C203 C205 1.356 . S
C203 H251 0.930 . S
C204 N201 1.279 . S
C204 C203 1.358 . S
C204 H207 0.930 . S
C205 C202 1.348 . S
C205 C203 1.356 . S
H206 C200 0.930 . S
H207 C204 0.930 . S
C208 C210 1.348 . S
C208 C211 1.356 . S
C208 O238 1.325 . S
N209 C212 1.314 . S
N209 C213 1.279 . S
C210 C208 1.348 . S
C210 C212 1.353 . S
C210 H252 0.929 . S
C211 C208 1.356 . S
C211 C213 1.358 . S
C211 H253 0.930 . S
C212 N209 1.314 . S
C212 C210 1.353 . S
C212 H254 0.930 . S
C213 N209 1.279 . S
C213 C211 1.358 . S
C213 H255 0.930 . S
C214 C215 1.348 . S
C214 C216 1.356 . S
C214 O239 1.325 . S
C215 C214 1.348 . S
C215 C217 1.353 . S
C215 H256 0.929 . S
C216 C214 1.356 . S
C216 C218 1.358 . S
C216 H257 0.930 . S
C217 C215 1.353 . S
C217 N219 1.314 . S
C217 H258 0.930 . S
C218 C216 1.358 . S
C218 N219 1.279 . S
C218 H259 0.930 . S
N219 C217 1.314 . S
N219 C218 1.279 . S
C220 C222 1.353 . S
C220 N223 1.314 . S
C220 H226 0.930 . S
C221 N223 1.279 . S
C221 C224 1.358 . S
C221 H227 0.930 . S
C222 C220 1.353 . S
C222 C225 1.348 . S
C222 H260 0.929 . S
N223 Li178 1.990 . S
N223 C220 1.314 . S
N223 C221 1.279 . S
C224 C221 1.358 . S
C224 C225 1.356 . S
C224 H261 0.930 . S
C225 C222 1.348 . S
C225 C224 1.356 . S
H226 C220 0.930 . S
H227 C221 0.930 . S
C228 N229 1.314 . S
C228 C230 1.353 . S
C228 H234 0.930 . S
N229 Li179 1.990 . S
N229 C228 1.314 . S
N229 C232 1.279 . S
C230 C228 1.353 . S
C230 C233 1.348 . S
C230 H262 0.929 . S
C231 C232 1.358 . S
C231 C233 1.356 . S
C231 H263 0.930 . S
C232 N229 1.279 . S
C232 C231 1.358 . S
C232 H235 0.930 . S
C233 C230 1.348 . S
C233 C231 1.356 . S
H234 C228 0.930 . S
H235 C232 0.930 . S
O236 Li176 1.956 . S
O236 Li177 1.970 . S
O236 Li178 1.961 . S
O236 C180 1.325 . S
O237 Li176 1.970 . S
O237 Li177 1.956 . S
O237 Li179 1.961 . S
O237 C186 1.325 . S
O238 Li176 1.961 . S
O238 Li178 1.956 . S
O238 Li179 1.970 . S
O238 C208 1.325 . S
O239 Li177 1.961 . S
O239 Li178 1.970 . S
O239 Li179 1.956 . S
O239 C214 1.325 . S
H240 C182 0.929 . S
H241 C183 0.930 . S
H242 C184 0.930 . S
H243 C185 0.930 . S
H244 C187 0.930 . S
H245 C189 0.929 . S
H246 C190 0.930 . S
H247 C191 0.930 . S
H248 C194 0.930 . S
H249 C197 0.929 . S
H250 C202 0.929 . S
H251 C203 0.930 . S
H252 C210 0.929 . S
H253 C211 0.930 . S
H254 C212 0.930 . S
H255 C213 0.930 . S
H256 C215 0.929 . S
H257 C216 0.930 . S
H258 C217 0.930 . S
H259 C218 0.930 . S
H260 C222 0.929 . S
H261 C224 0.930 . S
H262 C230 0.929 . S
H263 C231 0.930 . S
Li264 N281 1.990 . S
Li264 O324 1.956 . S
Li264 O325 1.970 . S
Li264 O326 1.961 . S
Li265 N289 1.990 . S
Li265 O324 1.970 . S
Li265 O325 1.956 . S
Li265 O327 1.961 . S
Li266 N311 1.990 . S
Li266 O324 1.961 . S
Li266 O326 1.956 . S
Li266 O327 1.970 . S
Li267 N317 1.990 . S
Li267 O325 1.961 . S
Li267 O326 1.970 . S
Li267 O327 1.956 . S
C268 C270 1.348 . S
C268 C271 1.356 . S
C268 O324 1.325 . S
N269 C272 1.314 . S
N269 C273 1.279 . S
C270 C268 1.348 . S
C270 C272 1.353 . S
C270 H328 0.929 . S
C271 C268 1.356 . S
C271 C273 1.358 . S
C271 H329 0.930 . S
C272 N269 1.314 . S
C272 C270 1.353 . S
C272 H330 0.930 . S
C273 N269 1.279 . S
C273 C271 1.358 . S
C273 H331 0.930 . S
C274 C277 1.348 . S
C274 C278 1.356 . S
C274 O325 1.325 . S
C275 N276 1.279 . S
C275 C278 1.358 . S
C275 H332 0.930 . S
N276 C275 1.279 . S
N276 C279 1.314 . S
C277 C274 1.348 . S
C277 C279 1.353 . S
C277 H333 0.929 . S
C278 C274 1.356 . S
C278 C275 1.358 . S
C278 H334 0.930 . S
C279 N276 1.314 . S
C279 C277 1.353 . S
C279 H335 0.930 . S
C280 N281 1.314 . S
C280 C285 1.353 . S
C280 H286 0.930 . S
N281 Li264 1.990 . S
N281 C280 1.314 . S
N281 C283 1.279 . S
C282 C283 1.358 . S
C282 C284 1.356 . S
C282 H336 0.930 . S
C283 N281 1.279 . S
C283 C282 1.358 . S
C283 H287 0.930 . S
C284 C282 1.356 . S
C284 C285 1.348 . S
C285 C280 1.353 . S
C285 C284 1.348 . S
C285 H337 0.929 . S
H286 C280 0.930 . S
H287 C283 0.930 . S
C288 N289 1.314 . S
C288 C290 1.353 . S
C288 H294 0.930 . S
N289 Li265 1.990 . S
N289 C288 1.314 . S
N289 C292 1.279 . S
C290 C288 1.353 . S
C290 C293 1.348 . S
C290 H338 0.929 . S
C291 C292 1.358 . S
C291 C293 1.356 . S
C291 H339 0.930 . S
C292 N289 1.279 . S
C292 C291 1.358 . S
C292 H295 0.930 . S
C293 C290 1.348 . S
C293 C291 1.356 . S
H294 C288 0.930 . S
H295 C292 0.930 . S
C296 C298 1.348 . S
C296 C299 1.356 . S
C296 O326 1.325 . S
N297 C300 1.314 . S
N297 C301 1.279 . S
C298 C296 1.348 . S
C298 C300 1.353 . S
C298 H340 0.929 . S
C299 C296 1.356 . S
C299 C301 1.358 . S
C299 H341 0.930 . S
C300 N297 1.314 . S
C300 C298 1.353 . S
C300 H342 0.930 . S
C301 N297 1.279 . S
C301 C299 1.358 . S
C301 H343 0.930 . S
C302 C303 1.348 . S
C302 C304 1.356 . S
C302 O327 1.325 . S
C303 C302 1.348 . S
C303 C305 1.353 . S
C303 H344 0.929 . S
C304 C302 1.356 . S
C304 C306 1.358 . S
C304 H345 0.930 . S
C305 C303 1.353 . S
C305 N307 1.314 . S
C305 H346 0.930 . S
C306 C304 1.358 . S
C306 N307 1.279 . S
C306 H347 0.930 . S
N307 C305 1.314 . S
N307 C306 1.279 . S
C308 C310 1.353 . S
C308 N311 1.314 . S
C308 H314 0.930 . S
C309 N311 1.279 . S
C309 C312 1.358 . S
C309 H315 0.930 . S
C310 C308 1.353 . S
C310 C313 1.348 . S
C310 H348 0.929 . S
N311 Li266 1.990 . S
N311 C308 1.314 . S
N311 C309 1.279 . S
C312 C309 1.358 . S
C312 C313 1.356 . S
C312 H349 0.930 . S
C313 C310 1.348 . S
C313 C312 1.356 . S
H314 C308 0.930 . S
H315 C309 0.930 . S
C316 N317 1.314 . S
C316 C318 1.353 . S
C316 H322 0.930 . S
N317 Li267 1.990 . S
N317 C316 1.314 . S
N317 C320 1.279 . S
C318 C316 1.353 . S
C318 C321 1.348 . S
C318 H350 0.929 . S
C319 C320 1.358 . S
C319 C321 1.356 . S
C319 H351 0.930 . S
C320 N317 1.279 . S
C320 C319 1.358 . S
C320 H323 0.930 . S
C321 C318 1.348 . S
C321 C319 1.356 . S
H322 C316 0.930 . S
H323 C320 0.930 . S
O324 Li264 1.956 . S
O324 Li265 1.970 . S
O324 Li266 1.961 . S
O324 C268 1.325 . S
O325 Li264 1.970 . S
O325 Li265 1.956 . S
O325 Li267 1.961 . S
O325 C274 1.325 . S
O326 Li264 1.961 . S
O326 Li266 1.956 . S
O326 Li267 1.970 . S
O326 C296 1.325 . S
O327 Li265 1.961 . S
O327 Li266 1.970 . S
O327 Li267 1.956 . S
O327 C302 1.325 . S
H328 C270 0.929 . S
H329 C271 0.930 . S
H330 C272 0.930 . S
H331 C273 0.930 . S
H332 C275 0.930 . S
H333 C277 0.929 . S
H334 C278 0.930 . S
H335 C279 0.930 . S
H336 C282 0.930 . S
H337 C285 0.929 . S
H338 C290 0.929 . S
H339 C291 0.930 . S
H340 C298 0.929 . S
H341 C299 0.930 . S
H342 C300 0.930 . S
H343 C301 0.930 . S
H344 C303 0.929 . S
H345 C304 0.930 . S
H346 C305 0.930 . S
H347 C306 0.930 . S
H348 C310 0.929 . S
H349 C312 0.930 . S
H350 C318 0.929 . S
H351 C319 0.930 . S
Li352 N369 1.990 . S
Li352 O412 1.956 . S
Li352 O413 1.970 . S
Li352 O414 1.961 . S
Li353 N377 1.990 . S
Li353 O412 1.970 . S
Li353 O413 1.956 . S
Li353 O415 1.961 . S
Li354 N399 1.990 1_554 S
Li354 O412 1.961 . S
Li354 O414 1.956 . S
Li354 O415 1.970 . S
Li355 N405 1.990 . S
Li355 O413 1.961 . S
Li355 O414 1.970 . S
Li355 O415 1.956 . S
C356 C358 1.348 . S
C356 C359 1.356 . S
C356 O412 1.325 . S
N357 C360 1.314 . S
N357 C361 1.279 . S
C358 C356 1.348 . S
C358 C360 1.353 . S
C358 H416 0.929 . S
C359 C356 1.356 . S
C359 C361 1.358 . S
C359 H417 0.930 . S
C360 N357 1.314 . S
C360 C358 1.353 . S
C360 H418 0.930 . S
C361 N357 1.279 . S
C361 C359 1.358 . S
C361 H419 0.930 . S
C362 C365 1.348 . S
C362 C366 1.356 . S
C362 O413 1.325 . S
C363 N364 1.279 . S
C363 C366 1.358 . S
C363 H420 0.930 . S
N364 C363 1.279 . S
N364 C367 1.314 . S
C365 C362 1.348 . S
C365 C367 1.353 . S
C365 H421 0.929 . S
C366 C362 1.356 . S
C366 C363 1.358 . S
C366 H422 0.930 . S
C367 N364 1.314 . S
C367 C365 1.353 . S
C367 H423 0.930 . S
C368 N369 1.314 . S
C368 C373 1.353 . S
C368 H374 0.930 . S
N369 Li352 1.990 . S
N369 C368 1.314 . S
N369 C371 1.279 . S
C370 C371 1.358 . S
C370 C372 1.356 . S
C370 H424 0.930 . S
C371 N369 1.279 . S
C371 C370 1.358 . S
C371 H375 0.930 . S
C372 C370 1.356 . S
C372 C373 1.348 . S
C373 C368 1.353 . S
C373 C372 1.348 . S
C373 H425 0.929 . S
H374 C368 0.930 . S
H375 C371 0.930 . S
C376 N377 1.314 . S
C376 C378 1.353 . S
C376 H382 0.930 1_554 S
N377 Li353 1.990 . S
N377 C376 1.314 . S
N377 C380 1.279 . S
C378 C376 1.353 . S
C378 C381 1.348 . S
C378 H426 0.929 1_554 S
C379 C380 1.358 . S
C379 C381 1.356 . S
C379 H427 0.930 . S
C380 N377 1.279 . S
C380 C379 1.358 . S
C380 H383 0.930 . S
C381 C378 1.348 . S
C381 C379 1.356 . S
H382 C376 0.930 1_556 S
H383 C380 0.930 . S
C384 C386 1.348 . S
C384 C387 1.356 . S
C384 O414 1.325 . S
N385 C388 1.314 . S
N385 C389 1.279 . S
C386 C384 1.348 . S
C386 C388 1.353 . S
C386 H428 0.929 . S
C387 C384 1.356 . S
C387 C389 1.358 . S
C387 H429 0.930 . S
C388 N385 1.314 . S
C388 C386 1.353 . S
C388 H430 0.930 . S
C389 N385 1.279 . S
C389 C387 1.358 . S
C389 H431 0.930 . S
C390 C391 1.348 . S
C390 C392 1.356 . S
C390 O415 1.325 1_556 S
C391 C390 1.348 . S
C391 C393 1.353 . S
C391 H432 0.929 . S
C392 C390 1.356 . S
C392 C394 1.358 . S
C392 H433 0.930 1_556 S
C393 C391 1.353 . S
C393 N395 1.314 . S
C393 H434 0.930 . S
C394 C392 1.358 . S
C394 N395 1.279 . S
C394 H435 0.930 . S
N395 C393 1.314 . S
N395 C394 1.279 . S
C396 C398 1.353 . S
C396 N399 1.314 . S
C396 H402 0.930 . S
C397 N399 1.279 . S
C397 C400 1.358 . S
C397 H403 0.930 . S
C398 C396 1.353 . S
C398 C401 1.348 . S
C398 H436 0.929 . S
N399 Li354 1.990 1_556 S
N399 C396 1.314 . S
N399 C397 1.279 . S
C400 C397 1.358 . S
C400 C401 1.356 . S
C400 H437 0.930 . S
C401 C398 1.348 . S
C401 C400 1.356 . S
H402 C396 0.930 . S
H403 C397 0.930 . S
C404 N405 1.314 . S
C404 C406 1.353 . S
C404 H410 0.930 . S
N405 Li355 1.990 . S
N405 C404 1.314 . S
N405 C408 1.279 . S
C406 C404 1.353 . S
C406 C409 1.348 . S
C406 H438 0.929 . S
C407 C408 1.358 . S
C407 C409 1.356 . S
C407 H439 0.930 . S
C408 N405 1.279 . S
C408 C407 1.358 . S
C408 H411 0.930 . S
C409 C406 1.348 . S
C409 C407 1.356 . S
H410 C404 0.930 . S
H411 C408 0.930 . S
O412 Li352 1.956 . S
O412 Li353 1.970 . S
O412 Li354 1.961 . S
O412 C356 1.325 . S
O413 Li352 1.970 . S
O413 Li353 1.956 . S
O413 Li355 1.961 . S
O413 C362 1.325 . S
O414 Li352 1.961 . S
O414 Li354 1.956 . S
O414 Li355 1.970 . S
O414 C384 1.325 . S
O415 Li353 1.961 . S
O415 Li354 1.970 . S
O415 Li355 1.956 . S
O415 C390 1.325 1_554 S
H416 C358 0.929 . S
H417 C359 0.930 . S
H418 C360 0.930 . S
H419 C361 0.930 . S
H420 C363 0.930 . S
H421 C365 0.929 . S
H422 C366 0.930 . S
H423 C367 0.930 . S
H424 C370 0.930 . S
H425 C373 0.929 . S
H426 C378 0.929 1_556 S
H427 C379 0.930 . S
H428 C386 0.929 . S
H429 C387 0.930 . S
H430 C388 0.930 . S
H431 C389 0.930 . S
H432 C391 0.929 . S
H433 C392 0.930 1_554 S
H434 C393 0.930 . S
H435 C394 0.930 . S
H436 C398 0.929 . S
H437 C400 0.930 . S
H438 C406 0.929 . S
H439 C407 0.930 . S
Li440 N457 1.990 . S
Li440 O500 1.956 . S
Li440 O501 1.970 . S
Li440 O502 1.961 . S
Li441 N465 1.990 . S
Li441 O500 1.970 . S
Li441 O501 1.956 . S
Li441 O503 1.961 . S
Li442 N487 1.990 . S
Li442 O500 1.961 . S
Li442 O502 1.956 . S
Li442 O503 1.970 . S
Li443 N493 1.990 . S
Li443 O501 1.961 . S
Li443 O502 1.970 . S
Li443 O503 1.956 . S
C444 C446 1.348 . S
C444 C447 1.356 . S
C444 O500 1.325 . S
N445 C448 1.314 . S
N445 C449 1.279 . S
C446 C444 1.348 . S
C446 C448 1.353 . S
C446 H504 0.929 . S
C447 C444 1.356 . S
C447 C449 1.358 . S
C447 H505 0.930 . S
C448 N445 1.314 . S
C448 C446 1.353 . S
C448 H506 0.930 . S
C449 N445 1.279 . S
C449 C447 1.358 . S
C449 H507 0.930 . S
C450 C453 1.348 . S
C450 C454 1.356 . S
C450 O501 1.325 . S
C451 N452 1.279 . S
C451 C454 1.358 . S
C451 H508 0.930 . S
N452 C451 1.279 . S
N452 C455 1.314 . S
C453 C450 1.348 . S
C453 C455 1.353 . S
C453 H509 0.929 . S
C454 C450 1.356 . S
C454 C451 1.358 . S
C454 H510 0.930 . S
C455 N452 1.314 . S
C455 C453 1.353 . S
C455 H511 0.930 . S
C456 N457 1.314 . S
C456 C461 1.353 . S
C456 H462 0.930 . S
N457 Li440 1.990 . S
N457 C456 1.314 . S
N457 C459 1.279 . S
C458 C459 1.358 . S
C458 C460 1.356 . S
C458 H512 0.930 . S
C459 N457 1.279 . S
C459 C458 1.358 . S
C459 H463 0.930 . S
C460 C458 1.356 . S
C460 C461 1.348 . S
C461 C456 1.353 . S
C461 C460 1.348 . S
C461 H513 0.929 . S
H462 C456 0.930 . S
H463 C459 0.930 . S
C464 N465 1.314 . S
C464 C466 1.353 . S
C464 H470 0.930 . S
N465 Li441 1.990 . S
N465 C464 1.314 . S
N465 C468 1.279 . S
C466 C464 1.353 . S
C466 C469 1.348 . S
C466 H514 0.929 . S
C467 C468 1.358 . S
C467 C469 1.356 . S
C467 H515 0.930 . S
C468 N465 1.279 . S
C468 C467 1.358 . S
C468 H471 0.930 . S
C469 C466 1.348 . S
C469 C467 1.356 . S
H470 C464 0.930 . S
H471 C468 0.930 . S
C472 C474 1.348 . S
C472 C475 1.356 . S
C472 O502 1.325 . S
N473 C476 1.314 . S
N473 C477 1.279 . S
C474 C472 1.348 . S
C474 C476 1.353 . S
C474 H516 0.929 . S
C475 C472 1.356 . S
C475 C477 1.358 . S
C475 H517 0.930 . S
C476 N473 1.314 . S
C476 C474 1.353 . S
C476 H518 0.930 . S
C477 N473 1.279 . S
C477 C475 1.358 . S
C477 H519 0.930 . S
C478 C479 1.348 . S
C478 C480 1.356 . S
C478 O503 1.325 . S
C479 C478 1.348 . S
C479 C481 1.353 . S
C479 H520 0.929 . S
C480 C478 1.356 . S
C480 C482 1.358 . S
C480 H521 0.930 . S
C481 C479 1.353 . S
C481 N483 1.314 . S
C481 H522 0.930 . S
C482 C480 1.358 . S
C482 N483 1.279 . S
C482 H523 0.930 . S
N483 C481 1.314 . S
N483 C482 1.279 . S
C484 C486 1.353 . S
C484 N487 1.314 . S
C484 H490 0.930 . S
C485 N487 1.279 . S
C485 C488 1.358 . S
C485 H491 0.930 . S
C486 C484 1.353 . S
C486 C489 1.348 . S
C486 H524 0.929 . S
N487 Li442 1.990 . S
N487 C484 1.314 . S
N487 C485 1.279 . S
C488 C485 1.358 . S
C488 C489 1.356 . S
C488 H525 0.930 . S
C489 C486 1.348 . S
C489 C488 1.356 . S
H490 C484 0.930 . S
H491 C485 0.930 . S
C492 N493 1.314 . S
C492 C494 1.353 . S
C492 H498 0.930 . S
N493 Li443 1.990 . S
N493 C492 1.314 . S
N493 C496 1.279 . S
C494 C492 1.353 . S
C494 C497 1.348 . S
C494 H526 0.929 . S
C495 C496 1.358 . S
C495 C497 1.356 . S
C495 H527 0.930 . S
C496 N493 1.279 . S
C496 C495 1.358 . S
C496 H499 0.930 . S
C497 C494 1.348 . S
C497 C495 1.356 . S
H498 C492 0.930 . S
H499 C496 0.930 . S
O500 Li440 1.956 . S
O500 Li441 1.970 . S
O500 Li442 1.961 . S
O500 C444 1.325 . S
O501 Li440 1.970 . S
O501 Li441 1.956 . S
O501 Li443 1.961 . S
O501 C450 1.325 . S
O502 Li440 1.961 . S
O502 Li442 1.956 . S
O502 Li443 1.970 . S
O502 C472 1.325 . S
O503 Li441 1.961 . S
O503 Li442 1.970 . S
O503 Li443 1.956 . S
O503 C478 1.325 . S
H504 C446 0.929 . S
H505 C447 0.930 . S
H506 C448 0.930 . S
H507 C449 0.930 . S
H508 C451 0.930 . S
H509 C453 0.929 . S
H510 C454 0.930 . S
H511 C455 0.930 . S
H512 C458 0.930 . S
H513 C461 0.929 . S
H514 C466 0.929 . S
H515 C467 0.930 . S
H516 C474 0.929 . S
H517 C475 0.930 . S
H518 C476 0.930 . S
H519 C477 0.930 . S
H520 C479 0.929 . S
H521 C480 0.930 . S
H522 C481 0.930 . S
H523 C482 0.930 . S
H524 C486 0.929 . S
H525 C488 0.930 . S
H526 C494 0.929 . S
H527 C495 0.930 . S
Li528 N545 1.990 . S
Li528 O588 1.956 . S
Li528 O589 1.970 . S
Li528 O590 1.961 . S
Li529 N553 1.990 . S
Li529 O588 1.970 . S
Li529 O589 1.956 . S
Li529 O591 1.961 . S
Li530 N575 1.990 . S
Li530 O588 1.961 . S
Li530 O590 1.956 . S
Li530 O591 1.970 . S
Li531 N581 1.990 . S
Li531 O589 1.961 . S
Li531 O590 1.970 . S
Li531 O591 1.956 . S
C532 C534 1.348 . S
C532 C535 1.356 . S
C532 O588 1.325 . S
N533 C536 1.314 . S
N533 C537 1.279 . S
C534 C532 1.348 . S
C534 C536 1.353 . S
C534 H592 0.929 . S
C535 C532 1.356 . S
C535 C537 1.358 . S
C535 H593 0.930 . S
C536 N533 1.314 . S
C536 C534 1.353 . S
C536 H594 0.930 . S
C537 N533 1.279 . S
C537 C535 1.358 . S
C537 H595 0.930 . S
C538 C541 1.348 . S
C538 C542 1.356 . S
C538 O589 1.325 . S
C539 N540 1.279 . S
C539 C542 1.358 . S
C539 H596 0.930 . S
N540 C539 1.279 . S
N540 C543 1.314 . S
C541 C538 1.348 . S
C541 C543 1.353 . S
C541 H597 0.929 . S
C542 C538 1.356 . S
C542 C539 1.358 . S
C542 H598 0.930 . S
C543 N540 1.314 . S
C543 C541 1.353 . S
C543 H599 0.930 . S
C544 N545 1.314 . S
C544 C549 1.353 . S
C544 H550 0.930 . S
N545 Li528 1.990 . S
N545 C544 1.314 . S
N545 C547 1.279 . S
C546 C547 1.358 . S
C546 C548 1.356 . S
C546 H600 0.930 . S
C547 N545 1.279 . S
C547 C546 1.358 . S
C547 H551 0.930 . S
C548 C546 1.356 . S
C548 C549 1.348 . S
C549 C544 1.353 . S
C549 C548 1.348 . S
C549 H601 0.929 . S
H550 C544 0.930 . S
H551 C547 0.930 . S
C552 N553 1.314 . S
C552 C554 1.353 . S
C552 H558 0.930 . S
N553 Li529 1.990 . S
N553 C552 1.314 . S
N553 C556 1.279 . S
C554 C552 1.353 . S
C554 C557 1.348 . S
C554 H602 0.929 . S
C555 C556 1.358 . S
C555 C557 1.356 . S
C555 H603 0.930 . S
C556 N553 1.279 . S
C556 C555 1.358 . S
C556 H559 0.930 . S
C557 C554 1.348 . S
C557 C555 1.356 . S
H558 C552 0.930 . S
H559 C556 0.930 . S
C560 C562 1.348 . S
C560 C563 1.356 . S
C560 O590 1.325 . S
N561 C564 1.314 . S
N561 C565 1.279 . S
C562 C560 1.348 . S
C562 C564 1.353 . S
C562 H604 0.929 . S
C563 C560 1.356 . S
C563 C565 1.358 . S
C563 H605 0.930 . S
C564 N561 1.314 . S
C564 C562 1.353 . S
C564 H606 0.930 . S
C565 N561 1.279 . S
C565 C563 1.358 . S
C565 H607 0.930 . S
C566 C567 1.348 . S
C566 C568 1.356 . S
C566 O591 1.325 . S
C567 C566 1.348 . S
C567 C569 1.353 . S
C567 H608 0.929 . S
C568 C566 1.356 . S
C568 C570 1.358 . S
C568 H609 0.930 . S
C569 C567 1.353 . S
C569 N571 1.314 . S
C569 H610 0.930 . S
C570 C568 1.358 . S
C570 N571 1.279 . S
C570 H611 0.930 . S
N571 C569 1.314 . S
N571 C570 1.279 . S
C572 C574 1.353 . S
C572 N575 1.314 . S
C572 H578 0.930 . S
C573 N575 1.279 . S
C573 C576 1.358 . S
C573 H579 0.930 . S
C574 C572 1.353 . S
C574 C577 1.348 . S
C574 H612 0.929 . S
N575 Li530 1.990 . S
N575 C572 1.314 . S
N575 C573 1.279 . S
C576 C573 1.358 . S
C576 C577 1.356 . S
C576 H613 0.930 . S
C577 C574 1.348 . S
C577 C576 1.356 . S
H578 C572 0.930 . S
H579 C573 0.930 . S
C580 N581 1.314 . S
C580 C582 1.353 . S
C580 H586 0.930 . S
N581 Li531 1.990 . S
N581 C580 1.314 . S
N581 C584 1.279 . S
C582 C580 1.353 . S
C582 C585 1.348 . S
C582 H614 0.929 . S
C583 C584 1.358 . S
C583 C585 1.356 . S
C583 H615 0.930 . S
C584 N581 1.279 . S
C584 C583 1.358 . S
C584 H587 0.930 . S
C585 C582 1.348 . S
C585 C583 1.356 . S
H586 C580 0.930 . S
H587 C584 0.930 . S
O588 Li528 1.956 . S
O588 Li529 1.970 . S
O588 Li530 1.961 . S
O588 C532 1.325 . S
O589 Li528 1.970 . S
O589 Li529 1.956 . S
O589 Li531 1.961 . S
O589 C538 1.325 . S
O590 Li528 1.961 . S
O590 Li530 1.956 . S
O590 Li531 1.970 . S
O590 C560 1.325 . S
O591 Li529 1.961 . S
O591 Li530 1.970 . S
O591 Li531 1.956 . S
O591 C566 1.325 . S
H592 C534 0.929 . S
H593 C535 0.930 . S
H594 C536 0.930 . S
H595 C537 0.930 . S
H596 C539 0.930 . S
H597 C541 0.929 . S
H598 C542 0.930 . S
H599 C543 0.930 . S
H600 C546 0.930 . S
H601 C549 0.929 . S
H602 C554 0.929 . S
H603 C555 0.930 . S
H604 C562 0.929 . S
H605 C563 0.930 . S
H606 C564 0.930 . S
H607 C565 0.930 . S
H608 C567 0.929 . S
H609 C568 0.930 . S
H610 C569 0.930 . S
H611 C570 0.930 . S
H612 C574 0.929 . S
H613 C576 0.930 . S
H614 C582 0.929 . S
H615 C583 0.930 . S
Li616 N633 1.990 . S
Li616 O676 1.956 . S
Li616 O677 1.970 . S
Li616 O678 1.961 . S
Li617 N641 1.990 . S
Li617 O676 1.970 . S
Li617 O677 1.956 . S
Li617 O679 1.961 . S
Li618 N663 1.990 . S
Li618 O676 1.961 . S
Li618 O678 1.956 . S
Li618 O679 1.970 . S
Li619 N669 1.990 . S
Li619 O677 1.961 . S
Li619 O678 1.970 . S
Li619 O679 1.956 . S
C620 C622 1.348 . S
C620 C623 1.356 . S
C620 O676 1.325 . S
N621 C624 1.314 . S
N621 C625 1.279 . S
C622 C620 1.348 . S
C622 C624 1.353 . S
C622 H680 0.929 . S
C623 C620 1.356 . S
C623 C625 1.358 . S
C623 H681 0.930 . S
C624 N621 1.314 . S
C624 C622 1.353 . S
C624 H682 0.930 . S
C625 N621 1.279 . S
C625 C623 1.358 . S
C625 H683 0.930 . S
C626 C629 1.348 . S
C626 C630 1.356 . S
C626 O677 1.325 . S
C627 N628 1.279 . S
C627 C630 1.358 . S
C627 H684 0.930 . S
N628 C627 1.279 . S
N628 C631 1.314 . S
C629 C626 1.348 . S
C629 C631 1.353 . S
C629 H685 0.929 . S
C630 C626 1.356 . S
C630 C627 1.358 . S
C630 H686 0.930 . S
C631 N628 1.314 . S
C631 C629 1.353 . S
C631 H687 0.930 . S
C632 N633 1.314 . S
C632 C637 1.353 . S
C632 H638 0.930 . S
N633 Li616 1.990 . S
N633 C632 1.314 . S
N633 C635 1.279 . S
C634 C635 1.358 . S
C634 C636 1.356 . S
C634 H688 0.930 . S
C635 N633 1.279 . S
C635 C634 1.358 . S
C635 H639 0.930 . S
C636 C634 1.356 . S
C636 C637 1.348 . S
C637 C632 1.353 . S
C637 C636 1.348 . S
C637 H689 0.929 . S
H638 C632 0.930 . S
H639 C635 0.930 . S
C640 N641 1.314 . S
C640 C642 1.353 . S
C640 H646 0.930 . S
N641 Li617 1.990 . S
N641 C640 1.314 . S
N641 C644 1.279 . S
C642 C640 1.353 . S
C642 C645 1.348 . S
C642 H690 0.929 . S
C643 C644 1.358 . S
C643 C645 1.356 . S
C643 H691 0.930 . S
C644 N641 1.279 . S
C644 C643 1.358 . S
C644 H647 0.930 . S
C645 C642 1.348 . S
C645 C643 1.356 . S
H646 C640 0.930 . S
H647 C644 0.930 . S
C648 C650 1.348 . S
C648 C651 1.356 . S
C648 O678 1.325 . S
N649 C652 1.314 . S
N649 C653 1.279 . S
C650 C648 1.348 . S
C650 C652 1.353 . S
C650 H692 0.929 . S
C651 C648 1.356 . S
C651 C653 1.358 . S
C651 H693 0.930 . S
C652 N649 1.314 . S
C652 C650 1.353 . S
C652 H694 0.930 . S
C653 N649 1.279 . S
C653 C651 1.358 . S
C653 H695 0.930 . S
C654 C655 1.348 . S
C654 C656 1.356 . S
C654 O679 1.325 . S
C655 C654 1.348 . S
C655 C657 1.353 . S
C655 H696 0.929 . S
C656 C654 1.356 . S
C656 C658 1.358 . S
C656 H697 0.930 . S
C657 C655 1.353 . S
C657 N659 1.314 . S
C657 H698 0.930 . S
C658 C656 1.358 . S
C658 N659 1.279 . S
C658 H699 0.930 . S
N659 C657 1.314 . S
N659 C658 1.279 . S
C660 C662 1.353 . S
C660 N663 1.314 . S
C660 H666 0.930 . S
C661 N663 1.279 . S
C661 C664 1.358 . S
C661 H667 0.930 . S
C662 C660 1.353 . S
C662 C665 1.348 . S
C662 H700 0.929 . S
N663 Li618 1.990 . S
N663 C660 1.314 . S
N663 C661 1.279 . S
C664 C661 1.358 . S
C664 C665 1.356 . S
C664 H701 0.930 . S
C665 C662 1.348 . S
C665 C664 1.356 . S
H666 C660 0.930 . S
H667 C661 0.930 . S
C668 N669 1.314 . S
C668 C670 1.353 . S
C668 H674 0.930 . S
N669 Li619 1.990 . S
N669 C668 1.314 . S
N669 C672 1.279 . S
C670 C668 1.353 . S
C670 C673 1.348 . S
C670 H702 0.929 . S
C671 C672 1.358 . S
C671 C673 1.356 . S
C671 H703 0.930 . S
C672 N669 1.279 . S
C672 C671 1.358 . S
C672 H675 0.930 . S
C673 C670 1.348 . S
C673 C671 1.356 . S
H674 C668 0.930 . S
H675 C672 0.930 . S
O676 Li616 1.956 . S
O676 Li617 1.970 . S
O676 Li618 1.961 . S
O676 C620 1.325 . S
O677 Li616 1.970 . S
O677 Li617 1.956 . S
O677 Li619 1.961 . S
O677 C626 1.325 . S
O678 Li616 1.961 . S
O678 Li618 1.956 . S
O678 Li619 1.970 . S
O678 C648 1.325 . S
O679 Li617 1.961 . S
O679 Li618 1.970 . S
O679 Li619 1.956 . S
O679 C654 1.325 . S
H680 C622 0.929 . S
H681 C623 0.930 . S
H682 C624 0.930 . S
H683 C625 0.930 . S
H684 C627 0.930 . S
H685 C629 0.929 . S
H686 C630 0.930 . S
H687 C631 0.930 . S
H688 C634 0.930 . S
H689 C637 0.929 . S
H690 C642 0.929 . S
H691 C643 0.930 . S
H692 C650 0.929 . S
H693 C651 0.930 . S
H694 C652 0.930 . S
H695 C653 0.930 . S
H696 C655 0.929 . S
H697 C656 0.930 . S
H698 C657 0.930 . S
H699 C658 0.930 . S
H700 C662 0.929 . S
H701 C664 0.930 . S
H702 C670 0.929 . S
H703 C671 0.930 . S
Li704 N721 1.990 . S
Li704 O764 1.956 . S
Li704 O765 1.970 . S
Li704 O766 1.961 . S
Li705 N729 1.990 . S
Li705 O764 1.970 . S
Li705 O765 1.956 . S
Li705 O767 1.961 . S
Li706 N751 1.990 . S
Li706 O764 1.961 . S
Li706 O766 1.956 . S
Li706 O767 1.970 . S
Li707 N757 1.990 1_554 S
Li707 O765 1.961 . S
Li707 O766 1.970 . S
Li707 O767 1.956 . S
C708 C710 1.348 . S
C708 C711 1.356 . S
C708 O764 1.325 . S
N709 C712 1.314 . S
N709 C713 1.279 . S
C710 C708 1.348 . S
C710 C712 1.353 . S
C710 H768 0.929 . S
C711 C708 1.356 . S
C711 C713 1.358 . S
C711 H769 0.930 . S
C712 N709 1.314 . S
C712 C710 1.353 . S
C712 H770 0.930 . S
C713 N709 1.279 . S
C713 C711 1.358 . S
C713 H771 0.930 . S
C714 C717 1.348 . S
C714 C718 1.356 . S
C714 O765 1.325 . S
C715 N716 1.279 . S
C715 C718 1.358 . S
C715 H772 0.930 . S
N716 C715 1.279 . S
N716 C719 1.314 . S
C717 C714 1.348 . S
C717 C719 1.353 . S
C717 H773 0.929 . S
C718 C714 1.356 . S
C718 C715 1.358 . S
C718 H774 0.930 . S
C719 N716 1.314 . S
C719 C717 1.353 . S
C719 H775 0.930 . S
C720 N721 1.314 . S
C720 C725 1.353 . S
C720 H726 0.930 . S
N721 Li704 1.990 . S
N721 C720 1.314 . S
N721 C723 1.279 . S
C722 C723 1.358 . S
C722 C724 1.356 . S
C722 H776 0.930 . S
C723 N721 1.279 . S
C723 C722 1.358 . S
C723 H727 0.930 . S
C724 C722 1.356 . S
C724 C725 1.348 . S
C725 C720 1.353 . S
C725 C724 1.348 . S
C725 H777 0.929 . S
H726 C720 0.930 . S
H727 C723 0.930 . S
C728 N729 1.314 . S
C728 C730 1.353 . S
C728 H734 0.930 . S
N729 Li705 1.990 . S
N729 C728 1.314 . S
N729 C732 1.279 . S
C730 C728 1.353 . S
C730 C733 1.348 . S
C730 H778 0.929 . S
C731 C732 1.358 . S
C731 C733 1.356 . S
C731 H779 0.930 . S
C732 N729 1.279 . S
C732 C731 1.358 . S
C732 H735 0.930 . S
C733 C730 1.348 . S
C733 C731 1.356 . S
H734 C728 0.930 . S
H735 C732 0.930 . S
C736 C738 1.348 . S
C736 C739 1.356 . S
C736 O766 1.325 1_556 S
N737 C740 1.314 . S
N737 C741 1.279 . S
C738 C736 1.348 . S
C738 C740 1.353 . S
C738 H780 0.929 . S
C739 C736 1.356 . S
C739 C741 1.358 . S
C739 H781 0.930 1_556 S
C740 N737 1.314 . S
C740 C738 1.353 . S
C740 H782 0.930 . S
C741 N737 1.279 . S
C741 C739 1.358 . S
C741 H783 0.930 . S
C742 C743 1.348 . S
C742 C744 1.356 . S
C742 O767 1.325 . S
C743 C742 1.348 . S
C743 C745 1.353 . S
C743 H784 0.929 . S
C744 C742 1.356 . S
C744 C746 1.358 . S
C744 H785 0.930 . S
C745 C743 1.353 . S
C745 N747 1.314 . S
C745 H786 0.930 . S
C746 C744 1.358 . S
C746 N747 1.279 . S
C746 H787 0.930 . S
N747 C745 1.314 . S
N747 C746 1.279 . S
C748 C750 1.353 . S
C748 N751 1.314 . S
C748 H754 0.930 . S
C749 N751 1.279 . S
C749 C752 1.358 . S
C749 H755 0.930 1_554 S
C750 C748 1.353 . S
C750 C753 1.348 . S
C750 H788 0.929 . S
N751 Li706 1.990 . S
N751 C748 1.314 . S
N751 C749 1.279 . S
C752 C749 1.358 . S
C752 C753 1.356 . S
C752 H789 0.930 1_554 S
C753 C750 1.348 . S
C753 C752 1.356 . S
H754 C748 0.930 . S
H755 C749 0.930 1_556 S
C756 N757 1.314 . S
C756 C758 1.353 . S
C756 H762 0.930 . S
N757 Li707 1.990 1_556 S
N757 C756 1.314 . S
N757 C760 1.279 . S
C758 C756 1.353 . S
C758 C761 1.348 . S
C758 H790 0.929 . S
C759 C760 1.358 . S
C759 C761 1.356 . S
C759 H791 0.930 . S
C760 N757 1.279 . S
C760 C759 1.358 . S
C760 H763 0.930 . S
C761 C758 1.348 . S
C761 C759 1.356 . S
H762 C756 0.930 . S
H763 C760 0.930 . S
O764 Li704 1.956 . S
O764 Li705 1.970 . S
O764 Li706 1.961 . S
O764 C708 1.325 . S
O765 Li704 1.970 . S
O765 Li705 1.956 . S
O765 Li707 1.961 . S
O765 C714 1.325 . S
O766 Li704 1.961 . S
O766 Li706 1.956 . S
O766 Li707 1.970 . S
O766 C736 1.325 1_554 S
O767 Li705 1.961 . S
O767 Li706 1.970 . S
O767 Li707 1.956 . S
O767 C742 1.325 . S
H768 C710 0.929 . S
H769 C711 0.930 . S
H770 C712 0.930 . S
H771 C713 0.930 . S
H772 C715 0.930 . S
H773 C717 0.929 . S
H774 C718 0.930 . S
H775 C719 0.930 . S
H776 C722 0.930 . S
H777 C725 0.929 . S
H778 C730 0.929 . S
H779 C731 0.930 . S
H780 C738 0.929 . S
H781 C739 0.930 1_554 S
H782 C740 0.930 . S
H783 C741 0.930 . S
H784 C743 0.929 . S
H785 C744 0.930 . S
H786 C745 0.930 . S
H787 C746 0.930 . S
H788 C750 0.929 . S
H789 C752 0.930 1_556 S
H790 C758 0.929 . S
H791 C759 0.930 . S
Li792 N809 1.990 . S
Li792 O852 1.956 . S
Li792 O853 1.970 . S
Li792 O854 1.961 . S
Li793 N817 1.990 . S
Li793 O852 1.970 . S
Li793 O853 1.956 . S
Li793 O855 1.961 . S
Li794 N839 1.990 . S
Li794 O852 1.961 . S
Li794 O854 1.956 . S
Li794 O855 1.970 . S
Li795 N845 1.990 . S
Li795 O853 1.961 . S
Li795 O854 1.970 . S
Li795 O855 1.956 . S
C796 C798 1.348 . S
C796 C799 1.356 . S
C796 O852 1.325 . S
N797 C800 1.314 . S
N797 C801 1.279 . S
C798 C796 1.348 . S
C798 C800 1.353 . S
C798 H856 0.929 . S
C799 C796 1.356 . S
C799 C801 1.358 . S
C799 H857 0.930 . S
C800 N797 1.314 . S
C800 C798 1.353 . S
C800 H858 0.930 . S
C801 N797 1.279 . S
C801 C799 1.358 . S
C801 H859 0.930 . S
C802 C805 1.348 . S
C802 C806 1.356 . S
C802 O853 1.325 . S
C803 N804 1.279 . S
C803 C806 1.358 . S
C803 H860 0.930 . S
N804 C803 1.279 . S
N804 C807 1.314 . S
C805 C802 1.348 . S
C805 C807 1.353 . S
C805 H861 0.929 . S
C806 C802 1.356 . S
C806 C803 1.358 . S
C806 H862 0.930 . S
C807 N804 1.314 . S
C807 C805 1.353 . S
C807 H863 0.930 . S
C808 N809 1.314 . S
C808 C813 1.353 . S
C808 H814 0.930 . S
N809 Li792 1.990 . S
N809 C808 1.314 . S
N809 C811 1.279 . S
C810 C811 1.358 . S
C810 C812 1.356 . S
C810 H864 0.930 . S
C811 N809 1.279 . S
C811 C810 1.358 . S
C811 H815 0.930 . S
C812 C810 1.356 . S
C812 C813 1.348 . S
C813 C808 1.353 . S
C813 C812 1.348 . S
C813 H865 0.929 . S
H814 C808 0.930 . S
H815 C811 0.930 . S
C816 N817 1.314 . S
C816 C818 1.353 . S
C816 H822 0.930 . S
N817 Li793 1.990 . S
N817 C816 1.314 . S
N817 C820 1.279 . S
C818 C816 1.353 . S
C818 C821 1.348 . S
C818 H866 0.929 . S
C819 C820 1.358 . S
C819 C821 1.356 . S
C819 H867 0.930 . S
C820 N817 1.279 . S
C820 C819 1.358 . S
C820 H823 0.930 . S
C821 C818 1.348 . S
C821 C819 1.356 . S
H822 C816 0.930 . S
H823 C820 0.930 . S
C824 C826 1.348 . S
C824 C827 1.356 . S
C824 O854 1.325 . S
N825 C828 1.314 . S
N825 C829 1.279 . S
C826 C824 1.348 . S
C826 C828 1.353 . S
C826 H868 0.929 . S
C827 C824 1.356 . S
C827 C829 1.358 . S
C827 H869 0.930 . S
C828 N825 1.314 . S
C828 C826 1.353 . S
C828 H870 0.930 . S
C829 N825 1.279 . S
C829 C827 1.358 . S
C829 H871 0.930 . S
C830 C831 1.348 . S
C830 C832 1.356 . S
C830 O855 1.325 . S
C831 C830 1.348 . S
C831 C833 1.353 . S
C831 H872 0.929 . S
C832 C830 1.356 . S
C832 C834 1.358 . S
C832 H873 0.930 . S
C833 C831 1.353 . S
C833 N835 1.314 . S
C833 H874 0.930 . S
C834 C832 1.358 . S
C834 N835 1.279 . S
C834 H875 0.930 . S
N835 C833 1.314 . S
N835 C834 1.279 . S
C836 C838 1.353 . S
C836 N839 1.314 . S
C836 H842 0.930 . S
C837 N839 1.279 . S
C837 C840 1.358 . S
C837 H843 0.930 . S
C838 C836 1.353 . S
C838 C841 1.348 . S
C838 H876 0.929 . S
N839 Li794 1.990 . S
N839 C836 1.314 . S
N839 C837 1.279 . S
C840 C837 1.358 . S
C840 C841 1.356 . S
C840 H877 0.930 . S
C841 C838 1.348 . S
C841 C840 1.356 . S
H842 C836 0.930 . S
H843 C837 0.930 . S
C844 N845 1.314 . S
C844 C846 1.353 . S
C844 H850 0.930 . S
N845 Li795 1.990 . S
N845 C844 1.314 . S
N845 C848 1.279 . S
C846 C844 1.353 . S
C846 C849 1.348 . S
C846 H878 0.929 . S
C847 C848 1.358 . S
C847 C849 1.356 . S
C847 H879 0.930 . S
C848 N845 1.279 . S
C848 C847 1.358 . S
C848 H851 0.930 . S
C849 C846 1.348 . S
C849 C847 1.356 . S
H850 C844 0.930 . S
H851 C848 0.930 . S
O852 Li792 1.956 . S
O852 Li793 1.970 . S
O852 Li794 1.961 . S
O852 C796 1.325 . S
O853 Li792 1.970 . S
O853 Li793 1.956 . S
O853 Li795 1.961 . S
O853 C802 1.325 . S
O854 Li792 1.961 . S
O854 Li794 1.956 . S
O854 Li795 1.970 . S
O854 C824 1.325 . S
O855 Li793 1.961 . S
O855 Li794 1.970 . S
O855 Li795 1.956 . S
O855 C830 1.325 . S
H856 C798 0.929 . S
H857 C799 0.930 . S
H858 C800 0.930 . S
H859 C801 0.930 . S
H860 C803 0.930 . S
H861 C805 0.929 . S
H862 C806 0.930 . S
H863 C807 0.930 . S
H864 C810 0.930 . S
H865 C813 0.929 . S
H866 C818 0.929 . S
H867 C819 0.930 . S
H868 C826 0.929 . S
H869 C827 0.930 . S
H870 C828 0.930 . S
H871 C829 0.930 . S
H872 C831 0.929 . S
H873 C832 0.930 . S
H874 C833 0.930 . S
H875 C834 0.930 . S
H876 C838 0.929 . S
H877 C840 0.930 . S
H878 C846 0.929 . S
H879 C847 0.930 . S
Li880 N897 1.990 . S
Li880 O940 1.956 . S
Li880 O941 1.970 . S
Li880 O942 1.961 . S
Li881 N905 1.990 . S
Li881 O940 1.970 . S
Li881 O941 1.956 . S
Li881 O943 1.961 . S
Li882 N927 1.990 . S
Li882 O940 1.961 . S
Li882 O942 1.956 . S
Li882 O943 1.970 . S
Li883 N933 1.990 . S
Li883 O941 1.961 . S
Li883 O942 1.970 . S
Li883 O943 1.956 . S
C884 C886 1.348 . S
C884 C887 1.356 . S
C884 O940 1.325 . S
N885 C888 1.314 . S
N885 C889 1.279 . S
C886 C884 1.348 . S
C886 C888 1.353 . S
C886 H944 0.929 . S
C887 C884 1.356 . S
C887 C889 1.358 . S
C887 H945 0.930 . S
C888 N885 1.314 . S
C888 C886 1.353 . S
C888 H946 0.930 . S
C889 N885 1.279 . S
C889 C887 1.358 . S
C889 H947 0.930 . S
C890 C893 1.348 . S
C890 C894 1.356 . S
C890 O941 1.325 . S
C891 N892 1.279 . S
C891 C894 1.358 . S
C891 H948 0.930 . S
N892 C891 1.279 . S
N892 C895 1.314 . S
C893 C890 1.348 . S
C893 C895 1.353 . S
C893 H949 0.929 . S
C894 C890 1.356 . S
C894 C891 1.358 . S
C894 H950 0.930 . S
C895 N892 1.314 . S
C895 C893 1.353 . S
C895 H951 0.930 . S
C896 N897 1.314 . S
C896 C901 1.353 . S
C896 H902 0.930 . S
N897 Li880 1.990 . S
N897 C896 1.314 . S
N897 C899 1.279 . S
C898 C899 1.358 . S
C898 C900 1.356 . S
C898 H952 0.930 . S
C899 N897 1.279 . S
C899 C898 1.358 . S
C899 H903 0.930 . S
C900 C898 1.356 . S
C900 C901 1.348 . S
C901 C896 1.353 . S
C901 C900 1.348 . S
C901 H953 0.929 . S
H902 C896 0.930 . S
H903 C899 0.930 . S
C904 N905 1.314 . S
C904 C906 1.353 . S
C904 H910 0.930 . S
N905 Li881 1.990 . S
N905 C904 1.314 . S
N905 C908 1.279 . S
C906 C904 1.353 . S
C906 C909 1.348 . S
C906 H954 0.929 . S
C907 C908 1.358 . S
C907 C909 1.356 . S
C907 H955 0.930 . S
C908 N905 1.279 . S
C908 C907 1.358 . S
C908 H911 0.930 . S
C909 C906 1.348 . S
C909 C907 1.356 . S
H910 C904 0.930 . S
H911 C908 0.930 . S
C912 C914 1.348 . S
C912 C915 1.356 . S
C912 O942 1.325 . S
N913 C916 1.314 . S
N913 C917 1.279 . S
C914 C912 1.348 . S
C914 C916 1.353 . S
C914 H956 0.929 . S
C915 C912 1.356 . S
C915 C917 1.358 . S
C915 H957 0.930 . S
C916 N913 1.314 . S
C916 C914 1.353 . S
C916 H958 0.930 . S
C917 N913 1.279 . S
C917 C915 1.358 . S
C917 H959 0.930 . S
C918 C919 1.348 . S
C918 C920 1.356 . S
C918 O943 1.325 . S
C919 C918 1.348 . S
C919 C921 1.353 . S
C919 H960 0.929 . S
C920 C918 1.356 . S
C920 C922 1.358 . S
C920 H961 0.930 . S
C921 C919 1.353 . S
C921 N923 1.314 . S
C921 H962 0.930 . S
C922 C920 1.358 . S
C922 N923 1.279 . S
C922 H963 0.930 . S
N923 C921 1.314 . S
N923 C922 1.279 . S
C924 C926 1.353 . S
C924 N927 1.314 . S
C924 H930 0.930 . S
C925 N927 1.279 . S
C925 C928 1.358 . S
C925 H931 0.930 . S
C926 C924 1.353 . S
C926 C929 1.348 . S
C926 H964 0.929 . S
N927 Li882 1.990 . S
N927 C924 1.314 . S
N927 C925 1.279 . S
C928 C925 1.358 . S
C928 C929 1.356 . S
C928 H965 0.930 . S
C929 C926 1.348 . S
C929 C928 1.356 . S
H930 C924 0.930 . S
H931 C925 0.930 . S
C932 N933 1.314 . S
C932 C934 1.353 . S
C932 H938 0.930 . S
N933 Li883 1.990 . S
N933 C932 1.314 . S
N933 C936 1.279 . S
C934 C932 1.353 . S
C934 C937 1.348 . S
C934 H966 0.929 . S
C935 C936 1.358 . S
C935 C937 1.356 . S
C935 H967 0.930 . S
C936 N933 1.279 . S
C936 C935 1.358 . S
C936 H939 0.930 . S
C937 C934 1.348 . S
C937 C935 1.356 . S
H938 C932 0.930 . S
H939 C936 0.930 . S
O940 Li880 1.956 . S
O940 Li881 1.970 . S
O940 Li882 1.961 . S
O940 C884 1.325 . S
O941 Li880 1.970 . S
O941 Li881 1.956 . S
O941 Li883 1.961 . S
O941 C890 1.325 . S
O942 Li880 1.961 . S
O942 Li882 1.956 . S
O942 Li883 1.970 . S
O942 C912 1.325 . S
O943 Li881 1.961 . S
O943 Li882 1.970 . S
O943 Li883 1.956 . S
O943 C918 1.325 . S
H944 C886 0.929 . S
H945 C887 0.930 . S
H946 C888 0.930 . S
H947 C889 0.930 . S
H948 C891 0.930 . S
H949 C893 0.929 . S
H950 C894 0.930 . S
H951 C895 0.930 . S
H952 C898 0.930 . S
H953 C901 0.929 . S
H954 C906 0.929 . S
H955 C907 0.930 . S
H956 C914 0.929 . S
H957 C915 0.930 . S
H958 C916 0.930 . S
H959 C917 0.930 . S
H960 C919 0.929 . S
H961 C920 0.930 . S
H962 C921 0.930 . S
H963 C922 0.930 . S
H964 C926 0.929 . S
H965 C928 0.930 . S
H966 C934 0.929 . S
H967 C935 0.930 . S
Li968 N985 1.990 . S
Li968 O1028 1.956 . S
Li968 O1029 1.970 . S
Li968 O1030 1.961 . S
Li969 N993 1.990 . S
Li969 O1028 1.970 . S
Li969 O1029 1.956 . S
Li969 O1031 1.961 . S
Li970 N1015 1.990 . S
Li970 O1028 1.961 . S
Li970 O1030 1.956 . S
Li970 O1031 1.970 . S
Li971 N1021 1.990 . S
Li971 O1029 1.961 . S
Li971 O1030 1.970 . S
Li971 O1031 1.956 . S
C972 C974 1.348 . S
C972 C975 1.356 . S
C972 O1028 1.325 . S
N973 C976 1.314 . S
N973 C977 1.279 . S
C974 C972 1.348 . S
C974 C976 1.353 . S
C974 H1032 0.929 . S
C975 C972 1.356 . S
C975 C977 1.358 . S
C975 H1033 0.930 . S
C976 N973 1.314 . S
C976 C974 1.353 . S
C976 H1034 0.930 . S
C977 N973 1.279 . S
C977 C975 1.358 . S
C977 H1035 0.930 . S
C978 C981 1.348 . S
C978 C982 1.356 . S
C978 O1029 1.325 . S
C979 N980 1.279 . S
C979 C982 1.358 . S
C979 H1036 0.930 . S
N980 C979 1.279 . S
N980 C983 1.314 . S
C981 C978 1.348 . S
C981 C983 1.353 . S
C981 H1037 0.929 . S
C982 C978 1.356 . S
C982 C979 1.358 . S
C982 H1038 0.930 . S
C983 N980 1.314 . S
C983 C981 1.353 . S
C983 H1039 0.930 . S
C984 N985 1.314 . S
C984 C989 1.353 . S
C984 H990 0.930 . S
N985 Li968 1.990 . S
N985 C984 1.314 . S
N985 C987 1.279 . S
C986 C987 1.358 . S
C986 C988 1.356 . S
C986 H1040 0.930 . S
C987 N985 1.279 . S
C987 C986 1.358 . S
C987 H991 0.930 . S
C988 C986 1.356 . S
C988 C989 1.348 . S
C989 C984 1.353 . S
C989 C988 1.348 . S
C989 H1041 0.929 . S
H990 C984 0.930 . S
H991 C987 0.930 . S
C992 N993 1.314 . S
C992 C994 1.353 . S
C992 H998 0.930 . S
N993 Li969 1.990 . S
N993 C992 1.314 . S
N993 C996 1.279 . S
C994 C992 1.353 . S
C994 C997 1.348 . S
C994 H1042 0.929 . S
C995 C996 1.358 . S
C995 C997 1.356 . S
C995 H1043 0.930 . S
C996 N993 1.279 . S
C996 C995 1.358 . S
C996 H999 0.930 . S
C997 C994 1.348 . S
C997 C995 1.356 . S
H998 C992 0.930 . S
H999 C996 0.930 . S
C1000 C1002 1.348 . S
C1000 C1003 1.356 . S
C1000 O1030 1.325 . S
N1001 C1004 1.314 . S
N1001 C1005 1.279 . S
C1002 C1000 1.348 . S
C1002 C1004 1.353 . S
C1002 H1044 0.929 . S
C1003 C1000 1.356 . S
C1003 C1005 1.358 . S
C1003 H1045 0.930 . S
C1004 N1001 1.314 . S
C1004 C1002 1.353 . S
C1004 H1046 0.930 . S
C1005 N1001 1.279 . S
C1005 C1003 1.358 . S
C1005 H1047 0.930 . S
C1006 C1007 1.348 . S
C1006 C1008 1.356 . S
C1006 O1031 1.325 . S
C1007 C1006 1.348 . S
C1007 C1009 1.353 . S
C1007 H1048 0.929 . S
C1008 C1006 1.356 . S
C1008 C1010 1.358 . S
C1008 H1049 0.930 . S
C1009 C1007 1.353 . S
C1009 N1011 1.314 . S
C1009 H1050 0.930 . S
C1010 C1008 1.358 . S
C1010 N1011 1.279 . S
C1010 H1051 0.930 . S
N1011 C1009 1.314 . S
N1011 C1010 1.279 . S
C1012 C1014 1.353 . S
C1012 N1015 1.314 . S
C1012 H1018 0.930 . S
C1013 N1015 1.279 . S
C1013 C1016 1.358 . S
C1013 H1019 0.930 . S
C1014 C1012 1.353 . S
C1014 C1017 1.348 . S
C1014 H1052 0.929 . S
N1015 Li970 1.990 . S
N1015 C1012 1.314 . S
N1015 C1013 1.279 . S
C1016 C1013 1.358 . S
C1016 C1017 1.356 . S
C1016 H1053 0.930 . S
C1017 C1014 1.348 . S
C1017 C1016 1.356 . S
H1018 C1012 0.930 . S
H1019 C1013 0.930 . S
C1020 N1021 1.314 . S
C1020 C1022 1.353 . S
C1020 H1026 0.930 . S
N1021 Li971 1.990 . S
N1021 C1020 1.314 . S
N1021 C1024 1.279 . S
C1022 C1020 1.353 . S
C1022 C1025 1.348 . S
C1022 H1054 0.929 . S
C1023 C1024 1.358 . S
C1023 C1025 1.356 . S
C1023 H1055 0.930 . S
C1024 N1021 1.279 . S
C1024 C1023 1.358 . S
C1024 H1027 0.930 . S
C1025 C1022 1.348 . S
C1025 C1023 1.356 . S
H1026 C1020 0.930 . S
H1027 C1024 0.930 . S
O1028 Li968 1.956 . S
O1028 Li969 1.970 . S
O1028 Li970 1.961 . S
O1028 C972 1.325 . S
O1029 Li968 1.970 . S
O1029 Li969 1.956 . S
O1029 Li971 1.961 . S
O1029 C978 1.325 . S
O1030 Li968 1.961 . S
O1030 Li970 1.956 . S
O1030 Li971 1.970 . S
O1030 C1000 1.325 . S
O1031 Li969 1.961 . S
O1031 Li970 1.970 . S
O1031 Li971 1.956 . S
O1031 C1006 1.325 . S
H1032 C974 0.929 . S
H1033 C975 0.930 . S
H1034 C976 0.930 . S
H1035 C977 0.930 . S
H1036 C979 0.930 . S
H1037 C981 0.929 . S
H1038 C982 0.930 . S
H1039 C983 0.930 . S
H1040 C986 0.930 . S
H1041 C989 0.929 . S
H1042 C994 0.929 . S
H1043 C995 0.930 . S
H1044 C1002 0.929 . S
H1045 C1003 0.930 . S
H1046 C1004 0.930 . S
H1047 C1005 0.930 . S
H1048 C1007 0.929 . S
H1049 C1008 0.930 . S
H1050 C1009 0.930 . S
H1051 C1010 0.930 . S
H1052 C1014 0.929 . S
H1053 C1016 0.930 . S
H1054 C1022 0.929 . S
H1055 C1023 0.930 . S
Li1056 N1073 1.990 . S
Li1056 O1116 1.956 . S
Li1056 O1117 1.970 . S
Li1056 O1118 1.961 1_554 S
Li1057 N1081 1.990 . S
Li1057 O1116 1.970 . S
Li1057 O1117 1.956 . S
Li1057 O1119 1.961 . S
Li1058 N1103 1.991 . S
Li1058 O1116 1.961 . S
Li1058 O1118 1.956 1_554 S
Li1058 O1119 1.970 . S
Li1059 N1109 1.990 . S
Li1059 O1117 1.961 1_556 S
Li1059 O1118 1.970 . S
Li1059 O1119 1.956 1_556 S
C1060 C1062 1.348 . S
C1060 C1063 1.356 . S
C1060 O1116 1.325 . S
N1061 C1064 1.314 . S
N1061 C1065 1.279 . S
C1062 C1060 1.348 . S
C1062 C1064 1.353 . S
C1062 H1120 0.929 . S
C1063 C1060 1.356 . S
C1063 C1065 1.358 . S
C1063 H1121 0.930 . S
C1064 N1061 1.314 . S
C1064 C1062 1.353 . S
C1064 H1122 0.930 . S
C1065 N1061 1.279 . S
C1065 C1063 1.358 . S
C1065 H1123 0.930 . S
C1066 C1069 1.348 . S
C1066 C1070 1.356 . S
C1066 O1117 1.325 . S
C1067 N1068 1.279 . S
C1067 C1070 1.358 . S
C1067 H1124 0.930 . S
N1068 C1067 1.279 . S
N1068 C1071 1.314 . S
C1069 C1066 1.348 . S
C1069 C1071 1.353 . S
C1069 H1125 0.929 . S
C1070 C1066 1.356 . S
C1070 C1067 1.358 . S
C1070 H1126 0.930 . S
C1071 N1068 1.314 . S
C1071 C1069 1.353 . S
C1071 H1127 0.930 . S
C1072 N1073 1.314 1_556 S
C1072 C1077 1.353 . S
C1072 H1078 0.930 . S
N1073 Li1056 1.990 . S
N1073 C1072 1.314 1_554 S
N1073 C1075 1.279 . S
C1074 C1075 1.358 . S
C1074 C1076 1.356 . S
C1074 H1128 0.930 . S
C1075 N1073 1.279 . S
C1075 C1074 1.358 . S
C1075 H1079 0.930 . S
C1076 C1074 1.356 . S
C1076 C1077 1.348 1_554 S
C1077 C1072 1.353 . S
C1077 C1076 1.348 1_556 S
C1077 H1129 0.929 . S
H1078 C1072 0.930 . S
H1079 C1075 0.930 . S
C1080 N1081 1.314 . S
C1080 C1082 1.353 . S
C1080 H1086 0.930 . S
N1081 Li1057 1.990 . S
N1081 C1080 1.314 . S
N1081 C1084 1.279 . S
C1082 C1080 1.353 . S
C1082 C1085 1.348 . S
C1082 H1130 0.929 . S
C1083 C1084 1.358 . S
C1083 C1085 1.356 . S
C1083 H1131 0.930 . S
C1084 N1081 1.279 . S
C1084 C1083 1.358 . S
C1084 H1087 0.930 . S
C1085 C1082 1.348 . S
C1085 C1083 1.356 . S
H1086 C1080 0.930 . S
H1087 C1084 0.930 . S
C1088 C1090 1.348 . S
C1088 C1091 1.356 . S
C1088 O1118 1.325 . S
N1089 C1092 1.314 . S
N1089 C1093 1.279 . S
C1090 C1088 1.348 . S
C1090 C1092 1.353 . S
C1090 H1132 0.929 . S
C1091 C1088 1.356 . S
C1091 C1093 1.358 . S
C1091 H1133 0.930 . S
C1092 N1089 1.314 . S
C1092 C1090 1.353 . S
C1092 H1134 0.930 . S
C1093 N1089 1.279 . S
C1093 C1091 1.358 . S
C1093 H1135 0.930 . S
C1094 C1095 1.348 1_554 S
C1094 C1096 1.356 . S
C1094 O1119 1.325 . S
C1095 C1094 1.348 1_556 S
C1095 C1097 1.353 . S
C1095 H1136 0.929 . S
C1096 C1094 1.356 . S
C1096 C1098 1.358 . S
C1096 H1137 0.930 . S
C1097 C1095 1.353 . S
C1097 N1099 1.314 1_556 S
C1097 H1138 0.930 . S
C1098 C1096 1.358 . S
C1098 N1099 1.279 . S
C1098 H1139 0.930 . S
N1099 C1097 1.314 1_554 S
N1099 C1098 1.279 . S
C1100 C1102 1.353 . S
C1100 N1103 1.318 . S
C1100 H1106 0.930 . S
C1101 N1103 1.275 1_556 S
C1101 C1104 1.358 . S
C1101 H1107 0.930 . S
C1102 C1100 1.353 . S
C1102 C1105 1.348 1_554 S
C1102 H1140 0.929 . S
N1103 Li1058 1.991 . S
N1103 C1100 1.318 . S
N1103 C1101 1.275 1_554 S
C1104 C1101 1.358 . S
C1104 C1105 1.356 . S
C1104 H1141 0.930 . S
C1105 C1102 1.348 1_556 S
C1105 C1104 1.356 . S
H1106 C1100 0.930 . S
H1107 C1101 0.930 . S
C1108 N1109 1.314 . S
C1108 C1110 1.353 . S
C1108 H1114 0.930 . S
N1109 Li1059 1.990 . S
N1109 C1108 1.314 . S
N1109 C1112 1.279 . S
C1110 C1108 1.353 . S
C1110 C1113 1.348 . S
C1110 H1142 0.929 . S
C1111 C1112 1.358 . S
C1111 C1113 1.356 . S
C1111 H1143 0.930 . S
C1112 N1109 1.279 . S
C1112 C1111 1.358 . S
C1112 H1115 0.930 . S
C1113 C1110 1.348 . S
C1113 C1111 1.356 . S
H1114 C1108 0.930 . S
H1115 C1112 0.930 . S
O1116 Li1056 1.956 . S
O1116 Li1057 1.970 . S
O1116 Li1058 1.961 . S
O1116 C1060 1.325 . S
O1117 Li1056 1.970 . S
O1117 Li1057 1.956 . S
O1117 Li1059 1.961 1_554 S
O1117 C1066 1.325 . S
O1118 Li1056 1.961 1_556 S
O1118 Li1058 1.956 1_556 S
O1118 Li1059 1.970 . S
O1118 C1088 1.325 . S
O1119 Li1057 1.961 . S
O1119 Li1058 1.970 . S
O1119 Li1059 1.956 1_554 S
O1119 C1094 1.325 . S
H1120 C1062 0.929 . S
H1121 C1063 0.930 . S
H1122 C1064 0.930 . S
H1123 C1065 0.930 . S
H1124 C1067 0.930 . S
H1125 C1069 0.929 . S
H1126 C1070 0.930 . S
H1127 C1071 0.930 . S
H1128 C1074 0.930 . S
H1129 C1077 0.929 . S
H1130 C1082 0.929 . S
H1131 C1083 0.930 . S
H1132 C1090 0.929 . S
H1133 C1091 0.930 . S
H1134 C1092 0.930 . S
H1135 C1093 0.930 . S
H1136 C1095 0.929 . S
H1137 C1096 0.930 . S
H1138 C1097 0.930 . S
H1139 C1098 0.930 . S
H1140 C1102 0.929 . S
H1141 C1104 0.930 . S
H1142 C1110 0.929 . S
H1143 C1111 0.930 . S
Li1144 N1161 1.990 . S
Li1144 O1204 1.956 . S
Li1144 O1205 1.970 . S
Li1144 O1206 1.961 . S
Li1145 N1169 1.990 . S
Li1145 O1204 1.970 . S
Li1145 O1205 1.956 . S
Li1145 O1207 1.961 . S
Li1146 N1191 1.990 . S
Li1146 O1204 1.961 . S
Li1146 O1206 1.956 . S
Li1146 O1207 1.970 . S
Li1147 N1197 1.990 . S
Li1147 O1205 1.961 . S
Li1147 O1206 1.970 . S
Li1147 O1207 1.956 . S
C1148 C1150 1.348 . S
C1148 C1151 1.356 . S
C1148 O1204 1.325 . S
N1149 C1152 1.314 . S
N1149 C1153 1.279 . S
C1150 C1148 1.348 . S
C1150 C1152 1.353 . S
C1150 H1208 0.929 . S
C1151 C1148 1.356 . S
C1151 C1153 1.358 . S
C1151 H1209 0.930 . S
C1152 N1149 1.314 . S
C1152 C1150 1.353 . S
C1152 H1210 0.930 . S
C1153 N1149 1.279 . S
C1153 C1151 1.358 . S
C1153 H1211 0.930 . S
C1154 C1157 1.348 . S
C1154 C1158 1.356 . S
C1154 O1205 1.325 . S
C1155 N1156 1.279 . S
C1155 C1158 1.358 . S
C1155 H1212 0.930 . S
N1156 C1155 1.279 . S
N1156 C1159 1.314 . S
C1157 C1154 1.348 . S
C1157 C1159 1.353 . S
C1157 H1213 0.929 . S
C1158 C1154 1.356 . S
C1158 C1155 1.358 . S
C1158 H1214 0.930 . S
C1159 N1156 1.314 . S
C1159 C1157 1.353 . S
C1159 H1215 0.930 . S
C1160 N1161 1.314 . S
C1160 C1165 1.353 . S
C1160 H1166 0.930 . S
N1161 Li1144 1.990 . S
N1161 C1160 1.314 . S
N1161 C1163 1.279 . S
C1162 C1163 1.358 . S
C1162 C1164 1.356 . S
C1162 H1216 0.930 . S
C1163 N1161 1.279 . S
C1163 C1162 1.358 . S
C1163 H1167 0.930 . S
C1164 C1162 1.356 . S
C1164 C1165 1.348 . S
C1165 C1160 1.353 . S
C1165 C1164 1.348 . S
C1165 H1217 0.929 . S
H1166 C1160 0.930 . S
H1167 C1163 0.930 . S
C1168 N1169 1.314 . S
C1168 C1170 1.353 . S
C1168 H1174 0.930 . S
N1169 Li1145 1.990 . S
N1169 C1168 1.314 . S
N1169 C1172 1.279 . S
C1170 C1168 1.353 . S
C1170 C1173 1.348 . S
C1170 H1218 0.929 . S
C1171 C1172 1.358 . S
C1171 C1173 1.356 . S
C1171 H1219 0.930 . S
C1172 N1169 1.279 . S
C1172 C1171 1.358 . S
C1172 H1175 0.930 . S
C1173 C1170 1.348 . S
C1173 C1171 1.356 . S
H1174 C1168 0.930 . S
H1175 C1172 0.930 . S
C1176 C1178 1.348 . S
C1176 C1179 1.356 . S
C1176 O1206 1.325 . S
N1177 C1180 1.314 . S
N1177 C1181 1.279 . S
C1178 C1176 1.348 . S
C1178 C1180 1.353 . S
C1178 H1220 0.929 . S
C1179 C1176 1.356 . S
C1179 C1181 1.358 . S
C1179 H1221 0.930 . S
C1180 N1177 1.314 . S
C1180 C1178 1.353 . S
C1180 H1222 0.930 . S
C1181 N1177 1.279 . S
C1181 C1179 1.358 . S
C1181 H1223 0.930 . S
C1182 C1183 1.348 . S
C1182 C1184 1.356 . S
C1182 O1207 1.325 . S
C1183 C1182 1.348 . S
C1183 C1185 1.353 . S
C1183 H1224 0.929 . S
C1184 C1182 1.356 . S
C1184 C1186 1.358 . S
C1184 H1225 0.930 . S
C1185 C1183 1.353 . S
C1185 N1187 1.314 . S
C1185 H1226 0.930 . S
C1186 C1184 1.358 . S
C1186 N1187 1.279 . S
C1186 H1227 0.930 . S
N1187 C1185 1.314 . S
N1187 C1186 1.279 . S
C1188 C1190 1.353 . S
C1188 N1191 1.314 . S
C1188 H1194 0.930 . S
C1189 N1191 1.279 . S
C1189 C1192 1.358 . S
C1189 H1195 0.930 . S
C1190 C1188 1.353 . S
C1190 C1193 1.348 . S
C1190 H1228 0.929 . S
N1191 Li1146 1.990 . S
N1191 C1188 1.314 . S
N1191 C1189 1.279 . S
C1192 C1189 1.358 . S
C1192 C1193 1.356 . S
C1192 H1229 0.930 . S
C1193 C1190 1.348 . S
C1193 C1192 1.356 . S
H1194 C1188 0.930 . S
H1195 C1189 0.930 . S
C1196 N1197 1.314 . S
C1196 C1198 1.353 . S
C1196 H1202 0.930 . S
N1197 Li1147 1.990 . S
N1197 C1196 1.314 . S
N1197 C1200 1.279 . S
C1198 C1196 1.353 . S
C1198 C1201 1.348 . S
C1198 H1230 0.929 . S
C1199 C1200 1.358 . S
C1199 C1201 1.356 . S
C1199 H1231 0.930 . S
C1200 N1197 1.279 . S
C1200 C1199 1.358 . S
C1200 H1203 0.930 . S
C1201 C1198 1.348 . S
C1201 C1199 1.356 . S
H1202 C1196 0.930 . S
H1203 C1200 0.930 . S
O1204 Li1144 1.956 . S
O1204 Li1145 1.970 . S
O1204 Li1146 1.961 . S
O1204 C1148 1.325 . S
O1205 Li1144 1.970 . S
O1205 Li1145 1.956 . S
O1205 Li1147 1.961 . S
O1205 C1154 1.325 . S
O1206 Li1144 1.961 . S
O1206 Li1146 1.956 . S
O1206 Li1147 1.970 . S
O1206 C1176 1.325 . S
O1207 Li1145 1.961 . S
O1207 Li1146 1.970 . S
O1207 Li1147 1.956 . S
O1207 C1182 1.325 . S
H1208 C1150 0.929 . S
H1209 C1151 0.930 . S
H1210 C1152 0.930 . S
H1211 C1153 0.930 . S
H1212 C1155 0.930 . S
H1213 C1157 0.929 . S
H1214 C1158 0.930 . S
H1215 C1159 0.930 . S
H1216 C1162 0.930 . S
H1217 C1165 0.929 . S
H1218 C1170 0.929 . S
H1219 C1171 0.930 . S
H1220 C1178 0.929 . S
H1221 C1179 0.930 . S
H1222 C1180 0.930 . S
H1223 C1181 0.930 . S
H1224 C1183 0.929 . S
H1225 C1184 0.930 . S
H1226 C1185 0.930 . S
H1227 C1186 0.930 . S
H1228 C1190 0.929 . S
H1229 C1192 0.930 . S
H1230 C1198 0.929 . S
H1231 C1199 0.930 . S
Li1232 N1249 1.990 . S
Li1232 O1292 1.956 . S
Li1232 O1293 1.970 . S
Li1232 O1294 1.961 . S
Li1233 N1257 1.990 . S
Li1233 O1292 1.970 . S
Li1233 O1293 1.956 . S
Li1233 O1295 1.961 . S
Li1234 N1279 1.990 . S
Li1234 O1292 1.961 . S
Li1234 O1294 1.956 . S
Li1234 O1295 1.970 . S
Li1235 N1285 1.990 . S
Li1235 O1293 1.961 . S
Li1235 O1294 1.970 . S
Li1235 O1295 1.956 . S
C1236 C1238 1.348 . S
C1236 C1239 1.356 . S
C1236 O1292 1.325 . S
N1237 C1240 1.314 . S
N1237 C1241 1.279 . S
C1238 C1236 1.348 . S
C1238 C1240 1.353 . S
C1238 H1296 0.929 . S
C1239 C1236 1.356 . S
C1239 C1241 1.358 . S
C1239 H1297 0.930 . S
C1240 N1237 1.314 . S
C1240 C1238 1.353 . S
C1240 H1298 0.930 . S
C1241 N1237 1.279 . S
C1241 C1239 1.358 . S
C1241 H1299 0.930 . S
C1242 C1245 1.348 . S
C1242 C1246 1.356 . S
C1242 O1293 1.325 . S
C1243 N1244 1.279 . S
C1243 C1246 1.358 . S
C1243 H1300 0.930 . S
N1244 C1243 1.279 . S
N1244 C1247 1.314 . S
C1245 C1242 1.348 . S
C1245 C1247 1.353 . S
C1245 H1301 0.929 . S
C1246 C1242 1.356 . S
C1246 C1243 1.358 . S
C1246 H1302 0.930 . S
C1247 N1244 1.314 . S
C1247 C1245 1.353 . S
C1247 H1303 0.930 . S
C1248 N1249 1.314 . S
C1248 C1253 1.353 . S
C1248 H1254 0.930 . S
N1249 Li1232 1.990 . S
N1249 C1248 1.314 . S
N1249 C1251 1.279 . S
C1250 C1251 1.358 . S
C1250 C1252 1.356 . S
C1250 H1304 0.930 . S
C1251 N1249 1.279 . S
C1251 C1250 1.358 . S
C1251 H1255 0.930 . S
C1252 C1250 1.356 . S
C1252 C1253 1.348 . S
C1253 C1248 1.353 . S
C1253 C1252 1.348 . S
C1253 H1305 0.929 . S
H1254 C1248 0.930 . S
H1255 C1251 0.930 . S
C1256 N1257 1.314 . S
C1256 C1258 1.353 . S
C1256 H1262 0.930 . S
N1257 Li1233 1.990 . S
N1257 C1256 1.314 . S
N1257 C1260 1.279 . S
C1258 C1256 1.353 . S
C1258 C1261 1.348 . S
C1258 H1306 0.929 . S
C1259 C1260 1.358 . S
C1259 C1261 1.356 . S
C1259 H1307 0.930 . S
C1260 N1257 1.279 . S
C1260 C1259 1.358 . S
C1260 H1263 0.930 . S
C1261 C1258 1.348 . S
C1261 C1259 1.356 . S
H1262 C1256 0.930 . S
H1263 C1260 0.930 . S
C1264 C1266 1.348 . S
C1264 C1267 1.356 . S
C1264 O1294 1.325 . S
N1265 C1268 1.314 . S
N1265 C1269 1.279 . S
C1266 C1264 1.348 . S
C1266 C1268 1.353 . S
C1266 H1308 0.929 . S
C1267 C1264 1.356 . S
C1267 C1269 1.358 . S
C1267 H1309 0.930 . S
C1268 N1265 1.314 . S
C1268 C1266 1.353 . S
C1268 H1310 0.930 . S
C1269 N1265 1.279 . S
C1269 C1267 1.358 . S
C1269 H1311 0.930 . S
C1270 C1271 1.348 . S
C1270 C1272 1.356 . S
C1270 O1295 1.325 . S
C1271 C1270 1.348 . S
C1271 C1273 1.353 . S
C1271 H1312 0.929 . S
C1272 C1270 1.356 . S
C1272 C1274 1.358 . S
C1272 H1313 0.930 . S
C1273 C1271 1.353 . S
C1273 N1275 1.314 . S
C1273 H1314 0.930 . S
C1274 C1272 1.358 . S
C1274 N1275 1.279 . S
C1274 H1315 0.930 . S
N1275 C1273 1.314 . S
N1275 C1274 1.279 . S
C1276 C1278 1.353 . S
C1276 N1279 1.314 . S
C1276 H1282 0.930 . S
C1277 N1279 1.279 . S
C1277 C1280 1.358 . S
C1277 H1283 0.930 . S
C1278 C1276 1.353 . S
C1278 C1281 1.348 . S
C1278 H1316 0.929 . S
N1279 Li1234 1.990 . S
N1279 C1276 1.314 . S
N1279 C1277 1.279 . S
C1280 C1277 1.358 . S
C1280 C1281 1.356 . S
C1280 H1317 0.930 . S
C1281 C1278 1.348 . S
C1281 C1280 1.356 . S
H1282 C1276 0.930 . S
H1283 C1277 0.930 . S
C1284 N1285 1.314 . S
C1284 C1286 1.353 . S
C1284 H1290 0.930 . S
N1285 Li1235 1.990 . S
N1285 C1284 1.314 . S
N1285 C1288 1.279 . S
C1286 C1284 1.353 . S
C1286 C1289 1.348 . S
C1286 H1318 0.929 . S
C1287 C1288 1.358 . S
C1287 C1289 1.356 . S
C1287 H1319 0.930 . S
C1288 N1285 1.279 . S
C1288 C1287 1.358 . S
C1288 H1291 0.930 . S
C1289 C1286 1.348 . S
C1289 C1287 1.356 . S
H1290 C1284 0.930 . S
H1291 C1288 0.930 . S
O1292 Li1232 1.956 . S
O1292 Li1233 1.970 . S
O1292 Li1234 1.961 . S
O1292 C1236 1.325 . S
O1293 Li1232 1.970 . S
O1293 Li1233 1.956 . S
O1293 Li1235 1.961 . S
O1293 C1242 1.325 . S
O1294 Li1232 1.961 . S
O1294 Li1234 1.956 . S
O1294 Li1235 1.970 . S
O1294 C1264 1.325 . S
O1295 Li1233 1.961 . S
O1295 Li1234 1.970 . S
O1295 Li1235 1.956 . S
O1295 C1270 1.325 . S
H1296 C1238 0.929 . S
H1297 C1239 0.930 . S
H1298 C1240 0.930 . S
H1299 C1241 0.930 . S
H1300 C1243 0.930 . S
H1301 C1245 0.929 . S
H1302 C1246 0.930 . S
H1303 C1247 0.930 . S
H1304 C1250 0.930 . S
H1305 C1253 0.929 . S
H1306 C1258 0.929 . S
H1307 C1259 0.930 . S
H1308 C1266 0.929 . S
H1309 C1267 0.930 . S
H1310 C1268 0.930 . S
H1311 C1269 0.930 . S
H1312 C1271 0.929 . S
H1313 C1272 0.930 . S
H1314 C1273 0.930 . S
H1315 C1274 0.930 . S
H1316 C1278 0.929 . S
H1317 C1280 0.930 . S
H1318 C1286 0.929 . S
H1319 C1287 0.930 . S
Li1320 N1337 1.990 . S
Li1320 O1380 1.956 . S
Li1320 O1381 1.970 . S
Li1320 O1382 1.961 . S
Li1321 N1345 1.990 . S
Li1321 O1380 1.970 . S
Li1321 O1381 1.956 . S
Li1321 O1383 1.961 . S
Li1322 N1367 1.990 . S
Li1322 O1380 1.961 . S
Li1322 O1382 1.956 . S
Li1322 O1383 1.970 . S
Li1323 N1373 1.990 . S
Li1323 O1381 1.961 . S
Li1323 O1382 1.970 . S
Li1323 O1383 1.956 . S
C1324 C1326 1.348 . S
C1324 C1327 1.356 . S
C1324 O1380 1.325 . S
N1325 C1328 1.314 . S
N1325 C1329 1.279 . S
C1326 C1324 1.348 . S
C1326 C1328 1.353 . S
C1326 H1384 0.929 . S
C1327 C1324 1.356 . S
C1327 C1329 1.358 . S
C1327 H1385 0.930 . S
C1328 N1325 1.314 . S
C1328 C1326 1.353 . S
C1328 H1386 0.930 . S
C1329 N1325 1.279 . S
C1329 C1327 1.358 . S
C1329 H1387 0.930 . S
C1330 C1333 1.348 . S
C1330 C1334 1.356 . S
C1330 O1381 1.325 . S
C1331 N1332 1.279 . S
C1331 C1334 1.358 . S
C1331 H1388 0.930 . S
N1332 C1331 1.279 . S
N1332 C1335 1.314 . S
C1333 C1330 1.348 . S
C1333 C1335 1.353 . S
C1333 H1389 0.929 . S
C1334 C1330 1.356 . S
C1334 C1331 1.358 . S
C1334 H1390 0.930 . S
C1335 N1332 1.314 . S
C1335 C1333 1.353 . S
C1335 H1391 0.930 . S
C1336 N1337 1.314 . S
C1336 C1341 1.353 . S
C1336 H1342 0.930 . S
N1337 Li1320 1.990 . S
N1337 C1336 1.314 . S
N1337 C1339 1.279 . S
C1338 C1339 1.358 . S
C1338 C1340 1.356 . S
C1338 H1392 0.930 . S
C1339 N1337 1.279 . S
C1339 C1338 1.358 . S
C1339 H1343 0.930 . S
C1340 C1338 1.356 . S
C1340 C1341 1.348 . S
C1341 C1336 1.353 . S
C1341 C1340 1.348 . S
C1341 H1393 0.929 . S
H1342 C1336 0.930 . S
H1343 C1339 0.930 . S
C1344 N1345 1.314 . S
C1344 C1346 1.353 . S
C1344 H1350 0.930 . S
N1345 Li1321 1.990 . S
N1345 C1344 1.314 . S
N1345 C1348 1.279 . S
C1346 C1344 1.353 . S
C1346 C1349 1.348 . S
C1346 H1394 0.929 . S
C1347 C1348 1.358 . S
C1347 C1349 1.356 . S
C1347 H1395 0.930 . S
C1348 N1345 1.279 . S
C1348 C1347 1.358 . S
C1348 H1351 0.930 . S
C1349 C1346 1.348 . S
C1349 C1347 1.356 . S
H1350 C1344 0.930 . S
H1351 C1348 0.930 . S
C1352 C1354 1.348 . S
C1352 C1355 1.356 . S
C1352 O1382 1.325 . S
N1353 C1356 1.314 . S
N1353 C1357 1.279 . S
C1354 C1352 1.348 . S
C1354 C1356 1.353 . S
C1354 H1396 0.929 . S
C1355 C1352 1.356 . S
C1355 C1357 1.358 . S
C1355 H1397 0.930 . S
C1356 N1353 1.314 . S
C1356 C1354 1.353 . S
C1356 H1398 0.930 . S
C1357 N1353 1.279 . S
C1357 C1355 1.358 . S
C1357 H1399 0.930 . S
C1358 C1359 1.348 . S
C1358 C1360 1.356 . S
C1358 O1383 1.325 . S
C1359 C1358 1.348 . S
C1359 C1361 1.353 . S
C1359 H1400 0.929 . S
C1360 C1358 1.356 . S
C1360 C1362 1.358 . S
C1360 H1401 0.930 . S
C1361 C1359 1.353 . S
C1361 N1363 1.314 . S
C1361 H1402 0.930 . S
C1362 C1360 1.358 . S
C1362 N1363 1.279 . S
C1362 H1403 0.930 . S
N1363 C1361 1.314 . S
N1363 C1362 1.279 . S
C1364 C1366 1.353 . S
C1364 N1367 1.314 . S
C1364 H1370 0.930 . S
C1365 N1367 1.279 . S
C1365 C1368 1.358 . S
C1365 H1371 0.930 . S
C1366 C1364 1.353 . S
C1366 C1369 1.348 . S
C1366 H1404 0.929 . S
N1367 Li1322 1.990 . S
N1367 C1364 1.314 . S
N1367 C1365 1.279 . S
C1368 C1365 1.358 . S
C1368 C1369 1.356 . S
C1368 H1405 0.930 . S
C1369 C1366 1.348 . S
C1369 C1368 1.356 . S
H1370 C1364 0.930 . S
H1371 C1365 0.930 . S
C1372 N1373 1.314 . S
C1372 C1374 1.353 . S
C1372 H1378 0.930 . S
N1373 Li1323 1.990 . S
N1373 C1372 1.314 . S
N1373 C1376 1.279 . S
C1374 C1372 1.353 . S
C1374 C1377 1.348 . S
C1374 H1406 0.929 . S
C1375 C1376 1.358 . S
C1375 C1377 1.356 . S
C1375 H1407 0.930 . S
C1376 N1373 1.279 . S
C1376 C1375 1.358 . S
C1376 H1379 0.930 . S
C1377 C1374 1.348 . S
C1377 C1375 1.356 . S
H1378 C1372 0.930 . S
H1379 C1376 0.930 . S
O1380 Li1320 1.956 . S
O1380 Li1321 1.970 . S
O1380 Li1322 1.961 . S
O1380 C1324 1.325 . S
O1381 Li1320 1.970 . S
O1381 Li1321 1.956 . S
O1381 Li1323 1.961 . S
O1381 C1330 1.325 . S
O1382 Li1320 1.961 . S
O1382 Li1322 1.956 . S
O1382 Li1323 1.970 . S
O1382 C1352 1.325 . S
O1383 Li1321 1.961 . S
O1383 Li1322 1.970 . S
O1383 Li1323 1.956 . S
O1383 C1358 1.325 . S
H1384 C1326 0.929 . S
H1385 C1327 0.930 . S
H1386 C1328 0.930 . S
H1387 C1329 0.930 . S
H1388 C1331 0.930 . S
H1389 C1333 0.929 . S
H1390 C1334 0.930 . S
H1391 C1335 0.930 . S
H1392 C1338 0.930 . S
H1393 C1341 0.929 . S
H1394 C1346 0.929 . S
H1395 C1347 0.930 . S
H1396 C1354 0.929 . S
H1397 C1355 0.930 . S
H1398 C1356 0.930 . S
H1399 C1357 0.930 . S
H1400 C1359 0.929 . S
H1401 C1360 0.930 . S
H1402 C1361 0.930 . S
H1403 C1362 0.930 . S
H1404 C1366 0.929 . S
H1405 C1368 0.930 . S
H1406 C1374 0.929 . S
H1407 C1375 0.930 . S
Li1408 N1425 1.990 . S
Li1408 O1468 1.956 . S
Li1408 O1469 1.970 . S
Li1408 O1470 1.961 . S
Li1409 N1433 1.990 . S
Li1409 O1468 1.970 . S
Li1409 O1469 1.956 . S
Li1409 O1471 1.961 . S
Li1410 N1455 1.990 . S
Li1410 O1468 1.961 . S
Li1410 O1470 1.956 . S
Li1410 O1471 1.970 . S
Li1411 N1461 1.990 . S
Li1411 O1469 1.961 . S
Li1411 O1470 1.970 . S
Li1411 O1471 1.956 . S
C1412 C1414 1.348 . S
C1412 C1415 1.356 . S
C1412 O1468 1.325 . S
N1413 C1416 1.314 . S
N1413 C1417 1.279 . S
C1414 C1412 1.348 . S
C1414 C1416 1.353 . S
C1414 H1472 0.929 . S
C1415 C1412 1.356 . S
C1415 C1417 1.358 . S
C1415 H1473 0.930 . S
C1416 N1413 1.314 . S
C1416 C1414 1.353 . S
C1416 H1474 0.930 . S
C1417 N1413 1.279 . S
C1417 C1415 1.358 . S
C1417 H1475 0.930 . S
C1418 C1421 1.348 . S
C1418 C1422 1.356 . S
C1418 O1469 1.325 . S
C1419 N1420 1.279 . S
C1419 C1422 1.358 . S
C1419 H1476 0.930 . S
N1420 C1419 1.279 . S
N1420 C1423 1.314 . S
C1421 C1418 1.348 . S
C1421 C1423 1.353 . S
C1421 H1477 0.929 . S
C1422 C1418 1.356 . S
C1422 C1419 1.358 . S
C1422 H1478 0.930 . S
C1423 N1420 1.314 . S
C1423 C1421 1.353 . S
C1423 H1479 0.930 . S
C1424 N1425 1.314 . S
C1424 C1429 1.353 . S
C1424 H1430 0.930 . S
N1425 Li1408 1.990 . S
N1425 C1424 1.314 . S
N1425 C1427 1.279 . S
C1426 C1427 1.358 . S
C1426 C1428 1.356 . S
C1426 H1480 0.930 . S
C1427 N1425 1.279 . S
C1427 C1426 1.358 . S
C1427 H1431 0.930 . S
C1428 C1426 1.356 . S
C1428 C1429 1.348 . S
C1429 C1424 1.353 . S
C1429 C1428 1.348 . S
C1429 H1481 0.929 . S
H1430 C1424 0.930 . S
H1431 C1427 0.930 . S
C1432 N1433 1.314 . S
C1432 C1434 1.353 . S
C1432 H1438 0.930 . S
N1433 Li1409 1.990 . S
N1433 C1432 1.314 . S
N1433 C1436 1.279 . S
C1434 C1432 1.353 . S
C1434 C1437 1.348 . S
C1434 H1482 0.929 . S
C1435 C1436 1.358 . S
C1435 C1437 1.356 . S
C1435 H1483 0.930 . S
C1436 N1433 1.279 . S
C1436 C1435 1.358 . S
C1436 H1439 0.930 . S
C1437 C1434 1.348 . S
C1437 C1435 1.356 . S
H1438 C1432 0.930 . S
H1439 C1436 0.930 . S
C1440 C1442 1.348 . S
C1440 C1443 1.356 . S
C1440 O1470 1.325 . S
N1441 C1444 1.314 . S
N1441 C1445 1.279 . S
C1442 C1440 1.348 . S
C1442 C1444 1.353 . S
C1442 H1484 0.929 . S
C1443 C1440 1.356 . S
C1443 C1445 1.358 . S
C1443 H1485 0.930 . S
C1444 N1441 1.314 . S
C1444 C1442 1.353 . S
C1444 H1486 0.930 . S
C1445 N1441 1.279 . S
C1445 C1443 1.358 . S
C1445 H1487 0.930 . S
C1446 C1447 1.348 . S
C1446 C1448 1.356 . S
C1446 O1471 1.325 . S
C1447 C1446 1.348 . S
C1447 C1449 1.353 . S
C1447 H1488 0.929 . S
C1448 C1446 1.356 . S
C1448 C1450 1.358 . S
C1448 H1489 0.930 . S
C1449 C1447 1.353 . S
C1449 N1451 1.314 . S
C1449 H1490 0.930 . S
C1450 C1448 1.358 . S
C1450 N1451 1.279 . S
C1450 H1491 0.930 . S
N1451 C1449 1.314 . S
N1451 C1450 1.279 . S
C1452 C1454 1.353 . S
C1452 N1455 1.314 . S
C1452 H1458 0.930 . S
C1453 N1455 1.279 . S
C1453 C1456 1.358 . S
C1453 H1459 0.930 . S
C1454 C1452 1.353 . S
C1454 C1457 1.348 . S
C1454 H1492 0.929 . S
N1455 Li1410 1.990 . S
N1455 C1452 1.314 . S
N1455 C1453 1.279 . S
C1456 C1453 1.358 . S
C1456 C1457 1.356 . S
C1456 H1493 0.930 . S
C1457 C1454 1.348 . S
C1457 C1456 1.356 . S
H1458 C1452 0.930 . S
H1459 C1453 0.930 . S
C1460 N1461 1.314 . S
C1460 C1462 1.353 . S
C1460 H1466 0.930 . S
N1461 Li1411 1.990 . S
N1461 C1460 1.314 . S
N1461 C1464 1.279 . S
C1462 C1460 1.353 . S
C1462 C1465 1.348 . S
C1462 H1494 0.929 . S
C1463 C1464 1.358 . S
C1463 C1465 1.356 . S
C1463 H1495 0.930 . S
C1464 N1461 1.279 . S
C1464 C1463 1.358 . S
C1464 H1467 0.930 . S
C1465 C1462 1.348 . S
C1465 C1463 1.356 . S
H1466 C1460 0.930 . S
H1467 C1464 0.930 . S
O1468 Li1408 1.956 . S
O1468 Li1409 1.970 . S
O1468 Li1410 1.961 . S
O1468 C1412 1.325 . S
O1469 Li1408 1.970 . S
O1469 Li1409 1.956 . S
O1469 Li1411 1.961 . S
O1469 C1418 1.325 . S
O1470 Li1408 1.961 . S
O1470 Li1410 1.956 . S
O1470 Li1411 1.970 . S
O1470 C1440 1.325 . S
O1471 Li1409 1.961 . S
O1471 Li1410 1.970 . S
O1471 Li1411 1.956 . S
O1471 C1446 1.325 . S
H1472 C1414 0.929 . S
H1473 C1415 0.930 . S
H1474 C1416 0.930 . S
H1475 C1417 0.930 . S
H1476 C1419 0.930 . S
H1477 C1421 0.929 . S
H1478 C1422 0.930 . S
H1479 C1423 0.930 . S
H1480 C1426 0.930 . S
H1481 C1429 0.929 . S
H1482 C1434 0.929 . S
H1483 C1435 0.930 . S
H1484 C1442 0.929 . S
H1485 C1443 0.930 . S
H1486 C1444 0.930 . S
H1487 C1445 0.930 . S
H1488 C1447 0.929 . S
H1489 C1448 0.930 . S
H1490 C1449 0.930 . S
H1491 C1450 0.930 . S
H1492 C1454 0.929 . S
H1493 C1456 0.930 . S
H1494 C1462 0.929 . S
H1495 C1463 0.930 . S
Li1496 N1513 1.990 . S
Li1496 O1556 1.956 . S
Li1496 O1557 1.970 . S
Li1496 O1558 1.961 . S
Li1497 N1521 1.990 . S
Li1497 O1556 1.970 . S
Li1497 O1557 1.956 . S
Li1497 O1559 1.961 . S
Li1498 N1543 1.990 . S
Li1498 O1556 1.961 . S
Li1498 O1558 1.956 . S
Li1498 O1559 1.970 . S
Li1499 N1549 1.990 . S
Li1499 O1557 1.961 . S
Li1499 O1558 1.970 . S
Li1499 O1559 1.956 . S
C1500 C1502 1.348 . S
C1500 C1503 1.356 . S
C1500 O1556 1.325 . S
N1501 C1504 1.314 . S
N1501 C1505 1.279 . S
C1502 C1500 1.348 . S
C1502 C1504 1.353 . S
C1502 H1560 0.929 . S
C1503 C1500 1.356 . S
C1503 C1505 1.358 . S
C1503 H1561 0.930 . S
C1504 N1501 1.314 . S
C1504 C1502 1.353 . S
C1504 H1562 0.930 . S
C1505 N1501 1.279 . S
C1505 C1503 1.358 . S
C1505 H1563 0.930 . S
C1506 C1509 1.348 . S
C1506 C1510 1.356 . S
C1506 O1557 1.325 . S
C1507 N1508 1.279 . S
C1507 C1510 1.358 . S
C1507 H1564 0.930 . S
N1508 C1507 1.279 . S
N1508 C1511 1.314 . S
C1509 C1506 1.348 . S
C1509 C1511 1.353 . S
C1509 H1565 0.929 . S
C1510 C1506 1.356 . S
C1510 C1507 1.358 . S
C1510 H1566 0.930 . S
C1511 N1508 1.314 . S
C1511 C1509 1.353 . S
C1511 H1567 0.930 . S
C1512 N1513 1.314 . S
C1512 C1517 1.353 . S
C1512 H1518 0.930 . S
N1513 Li1496 1.990 . S
N1513 C1512 1.314 . S
N1513 C1515 1.279 . S
C1514 C1515 1.358 . S
C1514 C1516 1.356 . S
C1514 H1568 0.930 . S
C1515 N1513 1.279 . S
C1515 C1514 1.358 . S
C1515 H1519 0.930 . S
C1516 C1514 1.356 . S
C1516 C1517 1.348 . S
C1517 C1512 1.353 . S
C1517 C1516 1.348 . S
C1517 H1569 0.929 . S
H1518 C1512 0.930 . S
H1519 C1515 0.930 . S
C1520 N1521 1.314 . S
C1520 C1522 1.353 . S
C1520 H1526 0.930 . S
N1521 Li1497 1.990 . S
N1521 C1520 1.314 . S
N1521 C1524 1.279 . S
C1522 C1520 1.353 . S
C1522 C1525 1.348 . S
C1522 H1570 0.929 . S
C1523 C1524 1.358 . S
C1523 C1525 1.356 . S
C1523 H1571 0.930 . S
C1524 N1521 1.279 . S
C1524 C1523 1.358 . S
C1524 H1527 0.930 . S
C1525 C1522 1.348 . S
C1525 C1523 1.356 . S
H1526 C1520 0.930 . S
H1527 C1524 0.930 . S
C1528 C1530 1.348 . S
C1528 C1531 1.356 . S
C1528 O1558 1.325 . S
N1529 C1532 1.314 . S
N1529 C1533 1.279 . S
C1530 C1528 1.348 . S
C1530 C1532 1.353 . S
C1530 H1572 0.929 . S
C1531 C1528 1.356 . S
C1531 C1533 1.358 . S
C1531 H1573 0.930 . S
C1532 N1529 1.314 . S
C1532 C1530 1.353 . S
C1532 H1574 0.930 . S
C1533 N1529 1.279 . S
C1533 C1531 1.358 . S
C1533 H1575 0.930 . S
C1534 C1535 1.348 . S
C1534 C1536 1.356 . S
C1534 O1559 1.325 . S
C1535 C1534 1.348 . S
C1535 C1537 1.353 . S
C1535 H1576 0.929 . S
C1536 C1534 1.356 . S
C1536 C1538 1.358 . S
C1536 H1577 0.930 . S
C1537 C1535 1.353 . S
C1537 N1539 1.314 . S
C1537 H1578 0.930 . S
C1538 C1536 1.358 . S
C1538 N1539 1.279 . S
C1538 H1579 0.930 . S
N1539 C1537 1.314 . S
N1539 C1538 1.279 . S
C1540 C1542 1.353 . S
C1540 N1543 1.314 . S
C1540 H1546 0.930 . S
C1541 N1543 1.279 . S
C1541 C1544 1.358 . S
C1541 H1547 0.930 . S
C1542 C1540 1.353 . S
C1542 C1545 1.348 . S
C1542 H1580 0.929 . S
N1543 Li1498 1.990 . S
N1543 C1540 1.314 . S
N1543 C1541 1.279 . S
C1544 C1541 1.358 . S
C1544 C1545 1.356 . S
C1544 H1581 0.930 . S
C1545 C1542 1.348 . S
C1545 C1544 1.356 . S
H1546 C1540 0.930 . S
H1547 C1541 0.930 . S
C1548 N1549 1.314 . S
C1548 C1550 1.353 . S
C1548 H1554 0.930 . S
N1549 Li1499 1.990 . S
N1549 C1548 1.314 . S
N1549 C1552 1.279 . S
C1550 C1548 1.353 . S
C1550 C1553 1.348 . S
C1550 H1582 0.929 . S
C1551 C1552 1.358 . S
C1551 C1553 1.356 . S
C1551 H1583 0.930 . S
C1552 N1549 1.279 . S
C1552 C1551 1.358 . S
C1552 H1555 0.930 . S
C1553 C1550 1.348 . S
C1553 C1551 1.356 . S
H1554 C1548 0.930 . S
H1555 C1552 0.930 . S
O1556 Li1496 1.956 . S
O1556 Li1497 1.970 . S
O1556 Li1498 1.961 . S
O1556 C1500 1.325 . S
O1557 Li1496 1.970 . S
O1557 Li1497 1.956 . S
O1557 Li1499 1.961 . S
O1557 C1506 1.325 . S
O1558 Li1496 1.961 . S
O1558 Li1498 1.956 . S
O1558 Li1499 1.970 . S
O1558 C1528 1.325 . S
O1559 Li1497 1.961 . S
O1559 Li1498 1.970 . S
O1559 Li1499 1.956 . S
O1559 C1534 1.325 . S
H1560 C1502 0.929 . S
H1561 C1503 0.930 . S
H1562 C1504 0.930 . S
H1563 C1505 0.930 . S
H1564 C1507 0.930 . S
H1565 C1509 0.929 . S
H1566 C1510 0.930 . S
H1567 C1511 0.930 . S
H1568 C1514 0.930 . S
H1569 C1517 0.929 . S
H1570 C1522 0.929 . S
H1571 C1523 0.930 . S
H1572 C1530 0.929 . S
H1573 C1531 0.930 . S
H1574 C1532 0.930 . S
H1575 C1533 0.930 . S
H1576 C1535 0.929 . S
H1577 C1536 0.930 . S
H1578 C1537 0.930 . S
H1579 C1538 0.930 . S
H1580 C1542 0.929 . S
H1581 C1544 0.930 . S
H1582 C1550 0.929 . S
H1583 C1551 0.930 . S
Li1584 N1601 1.990 . S
Li1584 O1644 1.956 . S
Li1584 O1645 1.970 . S
Li1584 O1646 1.961 1_554 S
Li1585 N1609 1.990 . S
Li1585 O1644 1.970 . S
Li1585 O1645 1.956 . S
Li1585 O1647 1.961 . S
Li1586 N1631 1.990 . S
Li1586 O1644 1.961 . S
Li1586 O1646 1.956 1_554 S
Li1586 O1647 1.970 . S
Li1587 N1637 1.990 . S
Li1587 O1645 1.961 1_556 S
Li1587 O1646 1.970 . S
Li1587 O1647 1.956 1_556 S
C1588 C1590 1.348 . S
C1588 C1591 1.356 . S
C1588 O1644 1.325 . S
N1589 C1592 1.314 . S
N1589 C1593 1.279 . S
C1590 C1588 1.348 . S
C1590 C1592 1.353 . S
C1590 H1648 0.929 . S
C1591 C1588 1.356 . S
C1591 C1593 1.358 . S
C1591 H1649 0.930 . S
C1592 N1589 1.314 . S
C1592 C1590 1.353 . S
C1592 H1650 0.930 . S
C1593 N1589 1.279 . S
C1593 C1591 1.358 . S
C1593 H1651 0.930 . S
C1594 C1597 1.348 . S
C1594 C1598 1.356 . S
C1594 O1645 1.325 . S
C1595 N1596 1.279 . S
C1595 C1598 1.358 . S
C1595 H1652 0.930 . S
N1596 C1595 1.279 . S
N1596 C1599 1.314 . S
C1597 C1594 1.348 . S
C1597 C1599 1.353 . S
C1597 H1653 0.929 . S
C1598 C1594 1.356 . S
C1598 C1595 1.358 . S
C1598 H1654 0.930 . S
C1599 N1596 1.314 . S
C1599 C1597 1.353 . S
C1599 H1655 0.930 . S
C1600 N1601 1.314 1_556 S
C1600 C1605 1.353 . S
C1600 H1606 0.930 . S
N1601 Li1584 1.990 . S
N1601 C1600 1.314 1_554 S
N1601 C1603 1.279 . S
C1602 C1603 1.358 . S
C1602 C1604 1.356 1_554 S
C1602 H1656 0.930 . S
C1603 N1601 1.279 . S
C1603 C1602 1.358 . S
C1603 H1607 0.930 . S
C1604 C1602 1.356 1_556 S
C1604 C1605 1.348 . S
C1605 C1600 1.353 . S
C1605 C1604 1.348 . S
C1605 H1657 0.929 . S
H1606 C1600 0.930 . S
H1607 C1603 0.930 . S
C1608 N1609 1.314 . S
C1608 C1610 1.353 . S
C1608 H1614 0.930 . S
N1609 Li1585 1.990 . S
N1609 C1608 1.314 . S
N1609 C1612 1.279 . S
C1610 C1608 1.353 . S
C1610 C1613 1.348 . S
C1610 H1658 0.929 . S
C1611 C1612 1.358 . S
C1611 C1613 1.356 . S
C1611 H1659 0.930 . S
C1612 N1609 1.279 . S
C1612 C1611 1.358 . S
C1612 H1615 0.930 . S
C1613 C1610 1.348 . S
C1613 C1611 1.356 . S
H1614 C1608 0.930 . S
H1615 C1612 0.930 . S
C1616 C1618 1.348 . S
C1616 C1619 1.356 . S
C1616 O1646 1.325 . S
N1617 C1620 1.314 . S
N1617 C1621 1.279 . S
C1618 C1616 1.348 . S
C1618 C1620 1.353 . S
C1618 H1660 0.929 . S
C1619 C1616 1.356 . S
C1619 C1621 1.358 . S
C1619 H1661 0.930 . S
C1620 N1617 1.314 . S
C1620 C1618 1.353 . S
C1620 H1662 0.930 . S
C1621 N1617 1.279 . S
C1621 C1619 1.358 . S
C1621 H1663 0.930 . S
C1622 C1623 1.348 . S
C1622 C1624 1.356 . S
C1622 O1647 1.325 . S
C1623 C1622 1.348 . S
C1623 C1625 1.353 . S
C1623 H1664 0.929 . S
C1624 C1622 1.356 . S
C1624 C1626 1.358 . S
C1624 H1665 0.930 . S
C1625 C1623 1.353 . S
C1625 N1627 1.314 . S
C1625 H1666 0.930 . S
C1626 C1624 1.358 . S
C1626 N1627 1.279 . S
C1626 H1667 0.930 . S
N1627 C1625 1.314 . S
N1627 C1626 1.279 . S
C1628 C1630 1.353 . S
C1628 N1631 1.314 . S
C1628 H1634 0.930 . S
C1629 N1631 1.279 1_556 S
C1629 C1632 1.358 . S
C1629 H1635 0.930 . S
C1630 C1628 1.353 . S
C1630 C1633 1.348 . S
C1630 H1668 0.929 . S
N1631 Li1586 1.990 . S
N1631 C1628 1.314 . S
N1631 C1629 1.279 1_554 S
C1632 C1629 1.358 . S
C1632 C1633 1.356 1_556 S
C1632 H1669 0.930 . S
C1633 C1630 1.348 . S
C1633 C1632 1.356 1_554 S
H1634 C1628 0.930 . S
H1635 C1629 0.930 . S
C1636 N1637 1.314 . S
C1636 C1638 1.353 . S
C1636 H1642 0.930 . S
N1637 Li1587 1.990 . S
N1637 C1636 1.314 . S
N1637 C1640 1.279 . S
C1638 C1636 1.353 . S
C1638 C1641 1.348 . S
C1638 H1670 0.929 . S
C1639 C1640 1.358 . S
C1639 C1641 1.356 . S
C1639 H1671 0.930 . S
C1640 N1637 1.279 . S
C1640 C1639 1.358 . S
C1640 H1643 0.930 . S
C1641 C1638 1.348 . S
C1641 C1639 1.356 . S
H1642 C1636 0.930 . S
H1643 C1640 0.930 . S
O1644 Li1584 1.956 . S
O1644 Li1585 1.970 . S
O1644 Li1586 1.961 . S
O1644 C1588 1.325 . S
O1645 Li1584 1.970 . S
O1645 Li1585 1.956 . S
O1645 Li1587 1.961 1_554 S
O1645 C1594 1.325 . S
O1646 Li1584 1.961 1_556 S
O1646 Li1586 1.956 1_556 S
O1646 Li1587 1.970 . S
O1646 C1616 1.325 . S
O1647 Li1585 1.961 . S
O1647 Li1586 1.970 . S
O1647 Li1587 1.956 1_554 S
O1647 C1622 1.325 . S
H1648 C1590 0.929 . S
H1649 C1591 0.930 . S
H1650 C1592 0.930 . S
H1651 C1593 0.930 . S
H1652 C1595 0.930 . S
H1653 C1597 0.929 . S
H1654 C1598 0.930 . S
H1655 C1599 0.930 . S
H1656 C1602 0.930 . S
H1657 C1605 0.929 . S
H1658 C1610 0.929 . S
H1659 C1611 0.930 . S
H1660 C1618 0.929 . S
H1661 C1619 0.930 . S
H1662 C1620 0.930 . S
H1663 C1621 0.930 . S
H1664 C1623 0.929 . S
H1665 C1624 0.930 . S
H1666 C1625 0.930 . S
H1667 C1626 0.930 . S
H1668 C1630 0.929 . S
H1669 C1632 0.930 . S
H1670 C1638 0.929 . S
H1671 C1639 0.930 . S
Li1672 N1689 1.990 . S
Li1672 O1732 1.956 . S
Li1672 O1733 1.970 . S
Li1672 O1734 1.961 . S
Li1673 N1697 1.990 . S
Li1673 O1732 1.970 . S
Li1673 O1733 1.956 . S
Li1673 O1735 1.961 . S
Li1674 N1719 1.990 . S
Li1674 O1732 1.961 . S
Li1674 O1734 1.956 . S
Li1674 O1735 1.970 . S
Li1675 N1725 1.990 . S
Li1675 O1733 1.961 . S
Li1675 O1734 1.970 . S
Li1675 O1735 1.956 . S
C1676 C1678 1.348 . S
C1676 C1679 1.356 . S
C1676 O1732 1.325 . S
N1677 C1680 1.314 . S
N1677 C1681 1.279 . S
C1678 C1676 1.348 . S
C1678 C1680 1.353 . S
C1678 H1736 0.929 . S
C1679 C1676 1.356 . S
C1679 C1681 1.358 . S
C1679 H1737 0.930 . S
C1680 N1677 1.314 . S
C1680 C1678 1.353 . S
C1680 H1738 0.930 . S
C1681 N1677 1.279 . S
C1681 C1679 1.358 . S
C1681 H1739 0.930 . S
C1682 C1685 1.348 . S
C1682 C1686 1.356 . S
C1682 O1733 1.325 . S
C1683 N1684 1.279 . S
C1683 C1686 1.358 . S
C1683 H1740 0.930 . S
N1684 C1683 1.279 . S
N1684 C1687 1.314 . S
C1685 C1682 1.348 . S
C1685 C1687 1.353 . S
C1685 H1741 0.929 . S
C1686 C1682 1.356 . S
C1686 C1683 1.358 . S
C1686 H1742 0.930 . S
C1687 N1684 1.314 . S
C1687 C1685 1.353 . S
C1687 H1743 0.930 . S
C1688 N1689 1.314 . S
C1688 C1693 1.353 . S
C1688 H1694 0.930 . S
N1689 Li1672 1.990 . S
N1689 C1688 1.314 . S
N1689 C1691 1.279 . S
C1690 C1691 1.358 . S
C1690 C1692 1.356 . S
C1690 H1744 0.930 . S
C1691 N1689 1.279 . S
C1691 C1690 1.358 . S
C1691 H1695 0.930 . S
C1692 C1690 1.356 . S
C1692 C1693 1.348 . S
C1693 C1688 1.353 . S
C1693 C1692 1.348 . S
C1693 H1745 0.929 . S
H1694 C1688 0.930 . S
H1695 C1691 0.930 . S
C1696 N1697 1.314 . S
C1696 C1698 1.353 . S
C1696 H1702 0.930 . S
N1697 Li1673 1.990 . S
N1697 C1696 1.314 . S
N1697 C1700 1.279 . S
C1698 C1696 1.353 . S
C1698 C1701 1.348 . S
C1698 H1746 0.929 . S
C1699 C1700 1.358 . S
C1699 C1701 1.356 . S
C1699 H1747 0.930 . S
C1700 N1697 1.279 . S
C1700 C1699 1.358 . S
C1700 H1703 0.930 . S
C1701 C1698 1.348 . S
C1701 C1699 1.356 . S
H1702 C1696 0.930 . S
H1703 C1700 0.930 . S
C1704 C1706 1.348 . S
C1704 C1707 1.356 . S
C1704 O1734 1.325 . S
N1705 C1708 1.314 . S
N1705 C1709 1.279 . S
C1706 C1704 1.348 . S
C1706 C1708 1.353 . S
C1706 H1748 0.929 . S
C1707 C1704 1.356 . S
C1707 C1709 1.358 . S
C1707 H1749 0.930 . S
C1708 N1705 1.314 . S
C1708 C1706 1.353 . S
C1708 H1750 0.930 . S
C1709 N1705 1.279 . S
C1709 C1707 1.358 . S
C1709 H1751 0.930 . S
C1710 C1711 1.348 . S
C1710 C1712 1.356 . S
C1710 O1735 1.325 . S
C1711 C1710 1.348 . S
C1711 C1713 1.353 . S
C1711 H1752 0.929 . S
C1712 C1710 1.356 . S
C1712 C1714 1.358 . S
C1712 H1753 0.930 . S
C1713 C1711 1.353 . S
C1713 N1715 1.314 . S
C1713 H1754 0.930 . S
C1714 C1712 1.358 . S
C1714 N1715 1.279 . S
C1714 H1755 0.930 . S
N1715 C1713 1.314 . S
N1715 C1714 1.279 . S
C1716 C1718 1.353 . S
C1716 N1719 1.314 . S
C1716 H1722 0.930 . S
C1717 N1719 1.279 . S
C1717 C1720 1.358 . S
C1717 H1723 0.930 . S
C1718 C1716 1.353 . S
C1718 C1721 1.348 . S
C1718 H1756 0.929 . S
N1719 Li1674 1.990 . S
N1719 C1716 1.314 . S
N1719 C1717 1.279 . S
C1720 C1717 1.358 . S
C1720 C1721 1.356 . S
C1720 H1757 0.930 . S
C1721 C1718 1.348 . S
C1721 C1720 1.356 . S
H1722 C1716 0.930 . S
H1723 C1717 0.930 . S
C1724 N1725 1.314 . S
C1724 C1726 1.353 . S
C1724 H1730 0.930 . S
N1725 Li1675 1.990 . S
N1725 C1724 1.314 . S
N1725 C1728 1.279 . S
C1726 C1724 1.353 . S
C1726 C1729 1.348 . S
C1726 H1758 0.929 . S
C1727 C1728 1.358 . S
C1727 C1729 1.356 . S
C1727 H1759 0.930 . S
C1728 N1725 1.279 . S
C1728 C1727 1.358 . S
C1728 H1731 0.930 . S
C1729 C1726 1.348 . S
C1729 C1727 1.356 . S
H1730 C1724 0.930 . S
H1731 C1728 0.930 . S
O1732 Li1672 1.956 . S
O1732 Li1673 1.970 . S
O1732 Li1674 1.961 . S
O1732 C1676 1.325 . S
O1733 Li1672 1.970 . S
O1733 Li1673 1.956 . S
O1733 Li1675 1.961 . S
O1733 C1682 1.325 . S
O1734 Li1672 1.961 . S
O1734 Li1674 1.956 . S
O1734 Li1675 1.970 . S
O1734 C1704 1.325 . S
O1735 Li1673 1.961 . S
O1735 Li1674 1.970 . S
O1735 Li1675 1.956 . S
O1735 C1710 1.325 . S
H1736 C1678 0.929 . S
H1737 C1679 0.930 . S
H1738 C1680 0.930 . S
H1739 C1681 0.930 . S
H1740 C1683 0.930 . S
H1741 C1685 0.929 . S
H1742 C1686 0.930 . S
H1743 C1687 0.930 . S
H1744 C1690 0.930 . S
H1745 C1693 0.929 . S
H1746 C1698 0.929 . S
H1747 C1699 0.930 . S
H1748 C1706 0.929 . S
H1749 C1707 0.930 . S
H1750 C1708 0.930 . S
H1751 C1709 0.930 . S
H1752 C1711 0.929 . S
H1753 C1712 0.930 . S
H1754 C1713 0.930 . S
H1755 C1714 0.930 . S
H1756 C1718 0.929 . S
H1757 C1720 0.930 . S
H1758 C1726 0.929 . S
H1759 C1727 0.930 . S
Li1760 N1777 1.990 . S
Li1760 O1820 1.956 . S
Li1760 O1821 1.970 . S
Li1760 O1822 1.961 . S
Li1761 N1785 1.990 . S
Li1761 O1820 1.970 . S
Li1761 O1821 1.956 . S
Li1761 O1823 1.961 . S
Li1762 N1807 1.990 . S
Li1762 O1820 1.961 . S
Li1762 O1822 1.956 . S
Li1762 O1823 1.970 . S
Li1763 N1813 1.990 . S
Li1763 O1821 1.961 . S
Li1763 O1822 1.970 . S
Li1763 O1823 1.956 . S
C1764 C1766 1.348 . S
C1764 C1767 1.356 . S
C1764 O1820 1.325 . S
N1765 C1768 1.314 . S
N1765 C1769 1.279 . S
C1766 C1764 1.348 . S
C1766 C1768 1.353 . S
C1766 H1824 0.929 . S
C1767 C1764 1.356 . S
C1767 C1769 1.358 . S
C1767 H1825 0.930 . S
C1768 N1765 1.314 . S
C1768 C1766 1.353 . S
C1768 H1826 0.930 . S
C1769 N1765 1.279 . S
C1769 C1767 1.358 . S
C1769 H1827 0.930 . S
C1770 C1773 1.348 . S
C1770 C1774 1.356 . S
C1770 O1821 1.325 . S
C1771 N1772 1.279 . S
C1771 C1774 1.358 . S
C1771 H1828 0.930 . S
N1772 C1771 1.279 . S
N1772 C1775 1.314 . S
C1773 C1770 1.348 . S
C1773 C1775 1.353 . S
C1773 H1829 0.929 . S
C1774 C1770 1.356 . S
C1774 C1771 1.358 . S
C1774 H1830 0.930 . S
C1775 N1772 1.314 . S
C1775 C1773 1.353 . S
C1775 H1831 0.930 . S
C1776 N1777 1.314 . S
C1776 C1781 1.353 . S
C1776 H1782 0.930 . S
N1777 Li1760 1.990 . S
N1777 C1776 1.314 . S
N1777 C1779 1.279 . S
C1778 C1779 1.358 . S
C1778 C1780 1.356 . S
C1778 H1832 0.930 . S
C1779 N1777 1.279 . S
C1779 C1778 1.358 . S
C1779 H1783 0.930 . S
C1780 C1778 1.356 . S
C1780 C1781 1.348 . S
C1781 C1776 1.353 . S
C1781 C1780 1.348 . S
C1781 H1833 0.929 . S
H1782 C1776 0.930 . S
H1783 C1779 0.930 . S
C1784 N1785 1.314 . S
C1784 C1786 1.353 . S
C1784 H1790 0.930 . S
N1785 Li1761 1.990 . S
N1785 C1784 1.314 . S
N1785 C1788 1.279 . S
C1786 C1784 1.353 . S
C1786 C1789 1.348 . S
C1786 H1834 0.929 . S
C1787 C1788 1.358 . S
C1787 C1789 1.356 . S
C1787 H1835 0.930 . S
C1788 N1785 1.279 . S
C1788 C1787 1.358 . S
C1788 H1791 0.930 . S
C1789 C1786 1.348 . S
C1789 C1787 1.356 . S
H1790 C1784 0.930 . S
H1791 C1788 0.930 . S
C1792 C1794 1.348 . S
C1792 C1795 1.356 . S
C1792 O1822 1.325 . S
N1793 C1796 1.314 . S
N1793 C1797 1.279 . S
C1794 C1792 1.348 . S
C1794 C1796 1.353 . S
C1794 H1836 0.929 . S
C1795 C1792 1.356 . S
C1795 C1797 1.358 . S
C1795 H1837 0.930 . S
C1796 N1793 1.314 . S
C1796 C1794 1.353 . S
C1796 H1838 0.930 . S
C1797 N1793 1.279 . S
C1797 C1795 1.358 . S
C1797 H1839 0.930 . S
C1798 C1799 1.348 . S
C1798 C1800 1.356 . S
C1798 O1823 1.325 . S
C1799 C1798 1.348 . S
C1799 C1801 1.353 . S
C1799 H1840 0.929 . S
C1800 C1798 1.356 . S
C1800 C1802 1.358 . S
C1800 H1841 0.930 . S
C1801 C1799 1.353 . S
C1801 N1803 1.314 . S
C1801 H1842 0.930 . S
C1802 C1800 1.358 . S
C1802 N1803 1.279 . S
C1802 H1843 0.930 . S
N1803 C1801 1.314 . S
N1803 C1802 1.279 . S
C1804 C1806 1.353 . S
C1804 N1807 1.314 . S
C1804 H1810 0.930 . S
C1805 N1807 1.279 . S
C1805 C1808 1.358 . S
C1805 H1811 0.930 . S
C1806 C1804 1.353 . S
C1806 C1809 1.348 . S
C1806 H1844 0.929 . S
N1807 Li1762 1.990 . S
N1807 C1804 1.314 . S
N1807 C1805 1.279 . S
C1808 C1805 1.358 . S
C1808 C1809 1.356 . S
C1808 H1845 0.930 . S
C1809 C1806 1.348 . S
C1809 C1808 1.356 . S
H1810 C1804 0.930 . S
H1811 C1805 0.930 . S
C1812 N1813 1.314 . S
C1812 C1814 1.353 . S
C1812 H1818 0.930 . S
N1813 Li1763 1.990 . S
N1813 C1812 1.314 . S
N1813 C1816 1.279 . S
C1814 C1812 1.353 . S
C1814 C1817 1.348 . S
C1814 H1846 0.929 . S
C1815 C1816 1.358 . S
C1815 C1817 1.356 . S
C1815 H1847 0.930 . S
C1816 N1813 1.279 . S
C1816 C1815 1.358 . S
C1816 H1819 0.930 . S
C1817 C1814 1.348 . S
C1817 C1815 1.356 . S
H1818 C1812 0.930 . S
H1819 C1816 0.930 . S
O1820 Li1760 1.956 . S
O1820 Li1761 1.970 . S
O1820 Li1762 1.961 . S
O1820 C1764 1.325 . S
O1821 Li1760 1.970 . S
O1821 Li1761 1.956 . S
O1821 Li1763 1.961 . S
O1821 C1770 1.325 . S
O1822 Li1760 1.961 . S
O1822 Li1762 1.956 . S
O1822 Li1763 1.970 . S
O1822 C1792 1.325 . S
O1823 Li1761 1.961 . S
O1823 Li1762 1.970 . S
O1823 Li1763 1.956 . S
O1823 C1798 1.325 . S
H1824 C1766 0.929 . S
H1825 C1767 0.930 . S
H1826 C1768 0.930 . S
H1827 C1769 0.930 . S
H1828 C1771 0.930 . S
H1829 C1773 0.929 . S
H1830 C1774 0.930 . S
H1831 C1775 0.930 . S
H1832 C1778 0.930 . S
H1833 C1781 0.929 . S
H1834 C1786 0.929 . S
H1835 C1787 0.930 . S
H1836 C1794 0.929 . S
H1837 C1795 0.930 . S
H1838 C1796 0.930 . S
H1839 C1797 0.930 . S
H1840 C1799 0.929 . S
H1841 C1800 0.930 . S
H1842 C1801 0.930 . S
H1843 C1802 0.930 . S
H1844 C1806 0.929 . S
H1845 C1808 0.930 . S
H1846 C1814 0.929 . S
H1847 C1815 0.930 . S
Li1848 N1865 1.990 . S
Li1848 O1908 1.956 . S
Li1848 O1909 1.970 . S
Li1848 O1910 1.961 . S
Li1849 N1873 1.990 . S
Li1849 O1908 1.970 . S
Li1849 O1909 1.956 . S
Li1849 O1911 1.961 . S
Li1850 N1895 1.990 . S
Li1850 O1908 1.961 . S
Li1850 O1910 1.956 . S
Li1850 O1911 1.970 . S
Li1851 N1901 1.990 . S
Li1851 O1909 1.961 . S
Li1851 O1910 1.970 . S
Li1851 O1911 1.956 . S
C1852 C1854 1.348 . S
C1852 C1855 1.356 . S
C1852 O1908 1.325 . S
N1853 C1856 1.314 . S
N1853 C1857 1.279 . S
C1854 C1852 1.348 . S
C1854 C1856 1.353 . S
C1854 H1912 0.929 . S
C1855 C1852 1.356 . S
C1855 C1857 1.358 . S
C1855 H1913 0.930 . S
C1856 N1853 1.314 . S
C1856 C1854 1.353 . S
C1856 H1914 0.930 . S
C1857 N1853 1.279 . S
C1857 C1855 1.358 . S
C1857 H1915 0.930 . S
C1858 C1861 1.348 . S
C1858 C1862 1.356 . S
C1858 O1909 1.325 . S
C1859 N1860 1.279 . S
C1859 C1862 1.358 . S
C1859 H1916 0.930 . S
N1860 C1859 1.279 . S
N1860 C1863 1.314 . S
C1861 C1858 1.348 . S
C1861 C1863 1.353 . S
C1861 H1917 0.929 . S
C1862 C1858 1.356 . S
C1862 C1859 1.358 . S
C1862 H1918 0.930 . S
C1863 N1860 1.314 . S
C1863 C1861 1.353 . S
C1863 H1919 0.930 . S
C1864 N1865 1.314 . S
C1864 C1869 1.353 . S
C1864 H1870 0.930 . S
N1865 Li1848 1.990 . S
N1865 C1864 1.314 . S
N1865 C1867 1.279 . S
C1866 C1867 1.358 . S
C1866 C1868 1.356 . S
C1866 H1920 0.930 . S
C1867 N1865 1.279 . S
C1867 C1866 1.358 . S
C1867 H1871 0.930 . S
C1868 C1866 1.356 . S
C1868 C1869 1.348 . S
C1869 C1864 1.353 . S
C1869 C1868 1.348 . S
C1869 H1921 0.929 . S
H1870 C1864 0.930 . S
H1871 C1867 0.930 . S
C1872 N1873 1.314 . S
C1872 C1874 1.353 . S
C1872 H1878 0.930 . S
N1873 Li1849 1.990 . S
N1873 C1872 1.314 . S
N1873 C1876 1.279 . S
C1874 C1872 1.353 . S
C1874 C1877 1.348 . S
C1874 H1922 0.929 . S
C1875 C1876 1.358 . S
C1875 C1877 1.356 . S
C1875 H1923 0.930 . S
C1876 N1873 1.279 . S
C1876 C1875 1.358 . S
C1876 H1879 0.930 . S
C1877 C1874 1.348 . S
C1877 C1875 1.356 . S
H1878 C1872 0.930 . S
H1879 C1876 0.930 . S
C1880 C1882 1.348 . S
C1880 C1883 1.356 . S
C1880 O1910 1.325 . S
N1881 C1884 1.314 . S
N1881 C1885 1.279 . S
C1882 C1880 1.348 . S
C1882 C1884 1.353 . S
C1882 H1924 0.929 . S
C1883 C1880 1.356 . S
C1883 C1885 1.358 . S
C1883 H1925 0.930 . S
C1884 N1881 1.314 . S
C1884 C1882 1.353 . S
C1884 H1926 0.930 . S
C1885 N1881 1.279 . S
C1885 C1883 1.358 . S
C1885 H1927 0.930 . S
C1886 C1887 1.348 . S
C1886 C1888 1.356 . S
C1886 O1911 1.325 . S
C1887 C1886 1.348 . S
C1887 C1889 1.353 . S
C1887 H1928 0.929 . S
C1888 C1886 1.356 . S
C1888 C1890 1.358 . S
C1888 H1929 0.930 . S
C1889 C1887 1.353 . S
C1889 N1891 1.314 . S
C1889 H1930 0.930 . S
C1890 C1888 1.358 . S
C1890 N1891 1.279 . S
C1890 H1931 0.930 . S
N1891 C1889 1.314 . S
N1891 C1890 1.279 . S
C1892 C1894 1.353 . S
C1892 N1895 1.314 . S
C1892 H1898 0.930 . S
C1893 N1895 1.279 . S
C1893 C1896 1.358 . S
C1893 H1899 0.930 . S
C1894 C1892 1.353 . S
C1894 C1897 1.348 . S
C1894 H1932 0.929 . S
N1895 Li1850 1.990 . S
N1895 C1892 1.314 . S
N1895 C1893 1.279 . S
C1896 C1893 1.358 . S
C1896 C1897 1.356 . S
C1896 H1933 0.930 . S
C1897 C1894 1.348 . S
C1897 C1896 1.356 . S
H1898 C1892 0.930 . S
H1899 C1893 0.930 . S
C1900 N1901 1.314 . S
C1900 C1902 1.353 . S
C1900 H1906 0.930 . S
N1901 Li1851 1.990 . S
N1901 C1900 1.314 . S
N1901 C1904 1.279 . S
C1902 C1900 1.353 . S
C1902 C1905 1.348 . S
C1902 H1934 0.929 . S
C1903 C1904 1.358 . S
C1903 C1905 1.356 . S
C1903 H1935 0.930 . S
C1904 N1901 1.279 . S
C1904 C1903 1.358 . S
C1904 H1907 0.930 . S
C1905 C1902 1.348 . S
C1905 C1903 1.356 . S
H1906 C1900 0.930 . S
H1907 C1904 0.930 . S
O1908 Li1848 1.956 . S
O1908 Li1849 1.970 . S
O1908 Li1850 1.961 . S
O1908 C1852 1.325 . S
O1909 Li1848 1.970 . S
O1909 Li1849 1.956 . S
O1909 Li1851 1.961 . S
O1909 C1858 1.325 . S
O1910 Li1848 1.961 . S
O1910 Li1850 1.956 . S
O1910 Li1851 1.970 . S
O1910 C1880 1.325 . S
O1911 Li1849 1.961 . S
O1911 Li1850 1.970 . S
O1911 Li1851 1.956 . S
O1911 C1886 1.325 . S
H1912 C1854 0.929 . S
H1913 C1855 0.930 . S
H1914 C1856 0.930 . S
H1915 C1857 0.930 . S
H1916 C1859 0.930 . S
H1917 C1861 0.929 . S
H1918 C1862 0.930 . S
H1919 C1863 0.930 . S
H1920 C1866 0.930 . S
H1921 C1869 0.929 . S
H1922 C1874 0.929 . S
H1923 C1875 0.930 . S
H1924 C1882 0.929 . S
H1925 C1883 0.930 . S
H1926 C1884 0.930 . S
H1927 C1885 0.930 . S
H1928 C1887 0.929 . S
H1929 C1888 0.930 . S
H1930 C1889 0.930 . S
H1931 C1890 0.930 . S
H1932 C1894 0.929 . S
H1933 C1896 0.930 . S
H1934 C1902 0.929 . S
H1935 C1903 0.930 . S
Li1936 N1953 1.990 . S
Li1936 O1996 1.956 . S
Li1936 O1997 1.970 . S
Li1936 O1998 1.961 . S
Li1937 N1961 1.990 . S
Li1937 O1996 1.970 . S
Li1937 O1997 1.956 . S
Li1937 O1999 1.961 . S
Li1938 N1983 1.990 . S
Li1938 O1996 1.961 . S
Li1938 O1998 1.956 . S
Li1938 O1999 1.970 . S
Li1939 N1989 1.990 1_554 S
Li1939 O1997 1.961 . S
Li1939 O1998 1.970 . S
Li1939 O1999 1.956 . S
C1940 C1942 1.348 . S
C1940 C1943 1.356 . S
C1940 O1996 1.325 . S
N1941 C1944 1.314 . S
N1941 C1945 1.279 . S
C1942 C1940 1.348 . S
C1942 C1944 1.353 . S
C1942 H2000 0.929 . S
C1943 C1940 1.356 . S
C1943 C1945 1.358 . S
C1943 H2001 0.930 . S
C1944 N1941 1.314 . S
C1944 C1942 1.353 . S
C1944 H2002 0.930 . S
C1945 N1941 1.279 . S
C1945 C1943 1.358 . S
C1945 H2003 0.930 . S
C1946 C1949 1.348 . S
C1946 C1950 1.356 . S
C1946 O1997 1.325 . S
C1947 N1948 1.279 . S
C1947 C1950 1.358 . S
C1947 H2004 0.930 . S
N1948 C1947 1.279 . S
N1948 C1951 1.314 . S
C1949 C1946 1.348 . S
C1949 C1951 1.353 . S
C1949 H2005 0.929 . S
C1950 C1946 1.356 . S
C1950 C1947 1.358 . S
C1950 H2006 0.930 . S
C1951 N1948 1.314 . S
C1951 C1949 1.353 . S
C1951 H2007 0.930 . S
C1952 N1953 1.314 . S
C1952 C1957 1.353 . S
C1952 H1958 0.930 1_554 S
N1953 Li1936 1.990 . S
N1953 C1952 1.314 . S
N1953 C1955 1.279 . S
C1954 C1955 1.358 . S
C1954 C1956 1.356 . S
C1954 H2008 0.930 . S
C1955 N1953 1.279 . S
C1955 C1954 1.358 . S
C1955 H1959 0.930 . S
C1956 C1954 1.356 . S
C1956 C1957 1.348 . S
C1957 C1952 1.353 . S
C1957 C1956 1.348 . S
C1957 H2009 0.929 1_554 S
H1958 C1952 0.930 1_556 S
H1959 C1955 0.930 . S
C1960 N1961 1.314 . S
C1960 C1962 1.353 . S
C1960 H1966 0.930 . S
N1961 Li1937 1.990 . S
N1961 C1960 1.314 . S
N1961 C1964 1.279 . S
C1962 C1960 1.353 . S
C1962 C1965 1.348 . S
C1962 H2010 0.929 . S
C1963 C1964 1.358 . S
C1963 C1965 1.356 . S
C1963 H2011 0.930 . S
C1964 N1961 1.279 . S
C1964 C1963 1.358 . S
C1964 H1967 0.930 . S
C1965 C1962 1.348 . S
C1965 C1963 1.356 . S
H1966 C1960 0.930 . S
H1967 C1964 0.930 . S
C1968 C1970 1.348 . S
C1968 C1971 1.356 . S
C1968 O1998 1.325 1_556 S
N1969 C1972 1.314 . S
N1969 C1973 1.279 . S
C1970 C1968 1.348 . S
C1970 C1972 1.353 . S
C1970 H2012 0.929 . S
C1971 C1968 1.356 . S
C1971 C1973 1.358 . S
C1971 H2013 0.930 1_556 S
C1972 N1969 1.314 . S
C1972 C1970 1.353 . S
C1972 H2014 0.930 . S
C1973 N1969 1.279 . S
C1973 C1971 1.358 . S
C1973 H2015 0.930 . S
C1974 C1975 1.348 . S
C1974 C1976 1.356 . S
C1974 O1999 1.325 . S
C1975 C1974 1.348 . S
C1975 C1977 1.353 . S
C1975 H2016 0.929 . S
C1976 C1974 1.356 . S
C1976 C1978 1.358 . S
C1976 H2017 0.930 . S
C1977 C1975 1.353 . S
C1977 N1979 1.314 . S
C1977 H2018 0.930 . S
C1978 C1976 1.358 . S
C1978 N1979 1.279 . S
C1978 H2019 0.930 . S
N1979 C1977 1.314 . S
N1979 C1978 1.279 . S
C1980 C1982 1.353 . S
C1980 N1983 1.314 . S
C1980 H1986 0.930 . S
C1981 N1983 1.279 . S
C1981 C1984 1.358 . S
C1981 H1987 0.930 . S
C1982 C1980 1.353 . S
C1982 C1985 1.348 . S
C1982 H2020 0.929 . S
N1983 Li1938 1.990 . S
N1983 C1980 1.314 . S
N1983 C1981 1.279 . S
C1984 C1981 1.358 . S
C1984 C1985 1.356 . S
C1984 H2021 0.930 . S
C1985 C1982 1.348 . S
C1985 C1984 1.356 . S
H1986 C1980 0.930 . S
H1987 C1981 0.930 . S
C1988 N1989 1.314 . S
C1988 C1990 1.353 . S
C1988 H1994 0.930 . S
N1989 Li1939 1.990 1_556 S
N1989 C1988 1.314 . S
N1989 C1992 1.279 . S
C1990 C1988 1.353 . S
C1990 C1993 1.348 . S
C1990 H2022 0.929 . S
C1991 C1992 1.358 . S
C1991 C1993 1.356 . S
C1991 H2023 0.930 . S
C1992 N1989 1.279 . S
C1992 C1991 1.358 . S
C1992 H1995 0.930 . S
C1993 C1990 1.348 . S
C1993 C1991 1.356 . S
H1994 C1988 0.930 . S
H1995 C1992 0.930 . S
O1996 Li1936 1.956 . S
O1996 Li1937 1.970 . S
O1996 Li1938 1.961 . S
O1996 C1940 1.325 . S
O1997 Li1936 1.970 . S
O1997 Li1937 1.956 . S
O1997 Li1939 1.961 . S
O1997 C1946 1.325 . S
O1998 Li1936 1.961 . S
O1998 Li1938 1.956 . S
O1998 Li1939 1.970 . S
O1998 C1968 1.325 1_554 S
O1999 Li1937 1.961 . S
O1999 Li1938 1.970 . S
O1999 Li1939 1.956 . S
O1999 C1974 1.325 . S
H2000 C1942 0.929 . S
H2001 C1943 0.930 . S
H2002 C1944 0.930 . S
H2003 C1945 0.930 . S
H2004 C1947 0.930 . S
H2005 C1949 0.929 . S
H2006 C1950 0.930 . S
H2007 C1951 0.930 . S
H2008 C1954 0.930 . S
H2009 C1957 0.929 1_556 S
H2010 C1962 0.929 . S
H2011 C1963 0.930 . S
H2012 C1970 0.929 . S
H2013 C1971 0.930 1_554 S
H2014 C1972 0.930 . S
H2015 C1973 0.930 . S
H2016 C1975 0.929 . S
H2017 C1976 0.930 . S
H2018 C1977 0.930 . S
H2019 C1978 0.930 . S
H2020 C1982 0.929 . S
H2021 C1984 0.930 . S
H2022 C1990 0.929 . S
H2023 C1991 0.930 . S
Li2024 N2041 1.990 . S
Li2024 O2084 1.956 . S
Li2024 O2085 1.970 . S
Li2024 O2086 1.961 . S
Li2025 N2049 1.990 . S
Li2025 O2084 1.970 . S
Li2025 O2085 1.956 . S
Li2025 O2087 1.961 . S
Li2026 N2071 1.990 . S
Li2026 O2084 1.961 . S
Li2026 O2086 1.956 . S
Li2026 O2087 1.970 . S
Li2027 N2077 1.990 . S
Li2027 O2085 1.961 . S
Li2027 O2086 1.970 . S
Li2027 O2087 1.956 . S
C2028 C2030 1.348 . S
C2028 C2031 1.356 . S
C2028 O2084 1.325 . S
N2029 C2032 1.314 . S
N2029 C2033 1.279 . S
C2030 C2028 1.348 . S
C2030 C2032 1.353 . S
C2030 H2088 0.929 . S
C2031 C2028 1.356 . S
C2031 C2033 1.358 . S
C2031 H2089 0.930 . S
C2032 N2029 1.314 . S
C2032 C2030 1.353 . S
C2032 H2090 0.930 . S
C2033 N2029 1.279 . S
C2033 C2031 1.358 . S
C2033 H2091 0.930 . S
C2034 C2037 1.348 . S
C2034 C2038 1.356 . S
C2034 O2085 1.325 . S
C2035 N2036 1.279 . S
C2035 C2038 1.358 . S
C2035 H2092 0.930 . S
N2036 C2035 1.279 . S
N2036 C2039 1.314 . S
C2037 C2034 1.348 . S
C2037 C2039 1.353 . S
C2037 H2093 0.929 . S
C2038 C2034 1.356 . S
C2038 C2035 1.358 . S
C2038 H2094 0.930 . S
C2039 N2036 1.314 . S
C2039 C2037 1.353 . S
C2039 H2095 0.930 . S
C2040 N2041 1.314 . S
C2040 C2045 1.353 . S
C2040 H2046 0.930 . S
N2041 Li2024 1.990 . S
N2041 C2040 1.314 . S
N2041 C2043 1.279 . S
C2042 C2043 1.358 . S
C2042 C2044 1.356 . S
C2042 H2096 0.930 . S
C2043 N2041 1.279 . S
C2043 C2042 1.358 . S
C2043 H2047 0.930 . S
C2044 C2042 1.356 . S
C2044 C2045 1.348 . S
C2045 C2040 1.353 . S
C2045 C2044 1.348 . S
C2045 H2097 0.929 . S
H2046 C2040 0.930 . S
H2047 C2043 0.930 . S
C2048 N2049 1.314 . S
C2048 C2050 1.353 . S
C2048 H2054 0.930 . S
N2049 Li2025 1.990 . S
N2049 C2048 1.314 . S
N2049 C2052 1.279 . S
C2050 C2048 1.353 . S
C2050 C2053 1.348 . S
C2050 H2098 0.929 . S
C2051 C2052 1.358 . S
C2051 C2053 1.356 . S
C2051 H2099 0.930 . S
C2052 N2049 1.279 . S
C2052 C2051 1.358 . S
C2052 H2055 0.930 . S
C2053 C2050 1.348 . S
C2053 C2051 1.356 . S
H2054 C2048 0.930 . S
H2055 C2052 0.930 . S
C2056 C2058 1.348 . S
C2056 C2059 1.356 . S
C2056 O2086 1.325 . S
N2057 C2060 1.314 . S
N2057 C2061 1.279 . S
C2058 C2056 1.348 . S
C2058 C2060 1.353 . S
C2058 H2100 0.929 . S
C2059 C2056 1.356 . S
C2059 C2061 1.358 . S
C2059 H2101 0.930 . S
C2060 N2057 1.314 . S
C2060 C2058 1.353 . S
C2060 H2102 0.930 . S
C2061 N2057 1.279 . S
C2061 C2059 1.358 . S
C2061 H2103 0.930 . S
C2062 C2063 1.348 . S
C2062 C2064 1.356 . S
C2062 O2087 1.325 . S
C2063 C2062 1.348 . S
C2063 C2065 1.353 . S
C2063 H2104 0.929 . S
C2064 C2062 1.356 . S
C2064 C2066 1.358 . S
C2064 H2105 0.930 . S
C2065 C2063 1.353 . S
C2065 N2067 1.314 . S
C2065 H2106 0.930 . S
C2066 C2064 1.358 . S
C2066 N2067 1.279 . S
C2066 H2107 0.930 . S
N2067 C2065 1.314 . S
N2067 C2066 1.279 . S
C2068 C2070 1.353 . S
C2068 N2071 1.314 . S
C2068 H2074 0.930 . S
C2069 N2071 1.279 . S
C2069 C2072 1.358 . S
C2069 H2075 0.930 . S
C2070 C2068 1.353 . S
C2070 C2073 1.348 . S
C2070 H2108 0.929 . S
N2071 Li2026 1.990 . S
N2071 C2068 1.314 . S
N2071 C2069 1.279 . S
C2072 C2069 1.358 . S
C2072 C2073 1.356 . S
C2072 H2109 0.930 . S
C2073 C2070 1.348 . S
C2073 C2072 1.356 . S
H2074 C2068 0.930 . S
H2075 C2069 0.930 . S
C2076 N2077 1.314 . S
C2076 C2078 1.353 . S
C2076 H2082 0.930 . S
N2077 Li2027 1.990 . S
N2077 C2076 1.314 . S
N2077 C2080 1.279 . S
C2078 C2076 1.353 . S
C2078 C2081 1.348 . S
C2078 H2110 0.929 . S
C2079 C2080 1.358 . S
C2079 C2081 1.356 . S
C2079 H2111 0.930 . S
C2080 N2077 1.279 . S
C2080 C2079 1.358 . S
C2080 H2083 0.930 . S
C2081 C2078 1.348 . S
C2081 C2079 1.356 . S
H2082 C2076 0.930 . S
H2083 C2080 0.930 . S
O2084 Li2024 1.956 . S
O2084 Li2025 1.970 . S
O2084 Li2026 1.961 . S
O2084 C2028 1.325 . S
O2085 Li2024 1.970 . S
O2085 Li2025 1.956 . S
O2085 Li2027 1.961 . S
O2085 C2034 1.325 . S
O2086 Li2024 1.961 . S
O2086 Li2026 1.956 . S
O2086 Li2027 1.970 . S
O2086 C2056 1.325 . S
O2087 Li2025 1.961 . S
O2087 Li2026 1.970 . S
O2087 Li2027 1.956 . S
O2087 C2062 1.325 . S
H2088 C2030 0.929 . S
H2089 C2031 0.930 . S
H2090 C2032 0.930 . S
H2091 C2033 0.930 . S
H2092 C2035 0.930 . S
H2093 C2037 0.929 . S
H2094 C2038 0.930 . S
H2095 C2039 0.930 . S
H2096 C2042 0.930 . S
H2097 C2045 0.929 . S
H2098 C2050 0.929 . S
H2099 C2051 0.930 . S
H2100 C2058 0.929 . S
H2101 C2059 0.930 . S
H2102 C2060 0.930 . S
H2103 C2061 0.930 . S
H2104 C2063 0.929 . S
H2105 C2064 0.930 . S
H2106 C2065 0.930 . S
H2107 C2066 0.930 . S
H2108 C2070 0.929 . S
H2109 C2072 0.930 . S
H2110 C2078 0.929 . S
H2111 C2079 0.930 . S
Li2112 N2129 1.990 . S
Li2112 O2172 1.956 . S
Li2112 O2173 1.970 . S
Li2112 O2174 1.961 . S
Li2113 N2137 1.990 . S
Li2113 O2172 1.970 . S
Li2113 O2173 1.956 . S
Li2113 O2175 1.961 . S
Li2114 N2159 1.990 . S
Li2114 O2172 1.961 . S
Li2114 O2174 1.956 . S
Li2114 O2175 1.970 . S
Li2115 N2165 1.990 . S
Li2115 O2173 1.961 . S
Li2115 O2174 1.970 . S
Li2115 O2175 1.956 . S
C2116 C2118 1.348 . S
C2116 C2119 1.356 . S
C2116 O2172 1.325 . S
N2117 C2120 1.314 . S
N2117 C2121 1.279 . S
C2118 C2116 1.348 . S
C2118 C2120 1.353 . S
C2118 H2176 0.929 . S
C2119 C2116 1.356 . S
C2119 C2121 1.358 . S
C2119 H2177 0.930 . S
C2120 N2117 1.314 . S
C2120 C2118 1.353 . S
C2120 H2178 0.930 . S
C2121 N2117 1.279 . S
C2121 C2119 1.358 . S
C2121 H2179 0.930 . S
C2122 C2125 1.348 . S
C2122 C2126 1.356 . S
C2122 O2173 1.325 . S
C2123 N2124 1.279 . S
C2123 C2126 1.358 . S
C2123 H2180 0.930 . S
N2124 C2123 1.279 . S
N2124 C2127 1.314 . S
C2125 C2122 1.348 . S
C2125 C2127 1.353 . S
C2125 H2181 0.929 . S
C2126 C2122 1.356 . S
C2126 C2123 1.358 . S
C2126 H2182 0.930 . S
C2127 N2124 1.314 . S
C2127 C2125 1.353 . S
C2127 H2183 0.930 . S
C2128 N2129 1.314 . S
C2128 C2133 1.353 . S
C2128 H2134 0.930 . S
N2129 Li2112 1.990 . S
N2129 C2128 1.314 . S
N2129 C2131 1.279 . S
C2130 C2131 1.358 . S
C2130 C2132 1.356 . S
C2130 H2184 0.930 . S
C2131 N2129 1.279 . S
C2131 C2130 1.358 . S
C2131 H2135 0.930 . S
C2132 C2130 1.356 . S
C2132 C2133 1.348 . S
C2133 C2128 1.353 . S
C2133 C2132 1.348 . S
C2133 H2185 0.929 . S
H2134 C2128 0.930 . S
H2135 C2131 0.930 . S
C2136 N2137 1.314 . S
C2136 C2138 1.353 . S
C2136 H2142 0.930 . S
N2137 Li2113 1.990 . S
N2137 C2136 1.314 . S
N2137 C2140 1.279 . S
C2138 C2136 1.353 . S
C2138 C2141 1.348 . S
C2138 H2186 0.929 . S
C2139 C2140 1.358 . S
C2139 C2141 1.356 . S
C2139 H2187 0.930 . S
C2140 N2137 1.279 . S
C2140 C2139 1.358 . S
C2140 H2143 0.930 . S
C2141 C2138 1.348 . S
C2141 C2139 1.356 . S
H2142 C2136 0.930 . S
H2143 C2140 0.930 . S
C2144 C2146 1.348 . S
C2144 C2147 1.356 . S
C2144 O2174 1.325 . S
N2145 C2148 1.314 . S
N2145 C2149 1.279 . S
C2146 C2144 1.348 . S
C2146 C2148 1.353 . S
C2146 H2188 0.929 . S
C2147 C2144 1.356 . S
C2147 C2149 1.358 . S
C2147 H2189 0.930 . S
C2148 N2145 1.314 . S
C2148 C2146 1.353 . S
C2148 H2190 0.930 . S
C2149 N2145 1.279 . S
C2149 C2147 1.358 . S
C2149 H2191 0.930 . S
C2150 C2151 1.348 . S
C2150 C2152 1.356 . S
C2150 O2175 1.325 . S
C2151 C2150 1.348 . S
C2151 C2153 1.353 . S
C2151 H2192 0.929 . S
C2152 C2150 1.356 . S
C2152 C2154 1.358 . S
C2152 H2193 0.930 . S
C2153 C2151 1.353 . S
C2153 N2155 1.314 . S
C2153 H2194 0.930 . S
C2154 C2152 1.358 . S
C2154 N2155 1.279 . S
C2154 H2195 0.930 . S
N2155 C2153 1.314 . S
N2155 C2154 1.279 . S
C2156 C2158 1.353 . S
C2156 N2159 1.314 . S
C2156 H2162 0.930 . S
C2157 N2159 1.279 . S
C2157 C2160 1.358 . S
C2157 H2163 0.930 . S
C2158 C2156 1.353 . S
C2158 C2161 1.348 . S
C2158 H2196 0.929 . S
N2159 Li2114 1.990 . S
N2159 C2156 1.314 . S
N2159 C2157 1.279 . S
C2160 C2157 1.358 . S
C2160 C2161 1.356 . S
C2160 H2197 0.930 . S
C2161 C2158 1.348 . S
C2161 C2160 1.356 . S
H2162 C2156 0.930 . S
H2163 C2157 0.930 . S
C2164 N2165 1.314 . S
C2164 C2166 1.353 . S
C2164 H2170 0.930 . S
N2165 Li2115 1.990 . S
N2165 C2164 1.314 . S
N2165 C2168 1.279 . S
C2166 C2164 1.353 . S
C2166 C2169 1.348 . S
C2166 H2198 0.929 . S
C2167 C2168 1.358 . S
C2167 C2169 1.356 . S
C2167 H2199 0.930 . S
C2168 N2165 1.279 . S
C2168 C2167 1.358 . S
C2168 H2171 0.930 . S
C2169 C2166 1.348 . S
C2169 C2167 1.356 . S
H2170 C2164 0.930 . S
H2171 C2168 0.930 . S
O2172 Li2112 1.956 . S
O2172 Li2113 1.970 . S
O2172 Li2114 1.961 . S
O2172 C2116 1.325 . S
O2173 Li2112 1.970 . S
O2173 Li2113 1.956 . S
O2173 Li2115 1.961 . S
O2173 C2122 1.325 . S
O2174 Li2112 1.961 . S
O2174 Li2114 1.956 . S
O2174 Li2115 1.970 . S
O2174 C2144 1.325 . S
O2175 Li2113 1.961 . S
O2175 Li2114 1.970 . S
O2175 Li2115 1.956 . S
O2175 C2150 1.325 . S
H2176 C2118 0.929 . S
H2177 C2119 0.930 . S
H2178 C2120 0.930 . S
H2179 C2121 0.930 . S
H2180 C2123 0.930 . S
H2181 C2125 0.929 . S
H2182 C2126 0.930 . S
H2183 C2127 0.930 . S
H2184 C2130 0.930 . S
H2185 C2133 0.929 . S
H2186 C2138 0.929 . S
H2187 C2139 0.930 . S
H2188 C2146 0.929 . S
H2189 C2147 0.930 . S
H2190 C2148 0.930 . S
H2191 C2149 0.930 . S
H2192 C2151 0.929 . S
H2193 C2152 0.930 . S
H2194 C2153 0.930 . S
H2195 C2154 0.930 . S
H2196 C2158 0.929 . S
H2197 C2160 0.930 . S
H2198 C2166 0.929 . S
H2199 C2167 0.930 . S
Li2200 N2217 1.990 . S
Li2200 O2260 1.956 . S
Li2200 O2261 1.970 . S
Li2200 O2262 1.961 . S
Li2201 N2225 1.990 . S
Li2201 O2260 1.970 . S
Li2201 O2261 1.956 . S
Li2201 O2263 1.961 . S
Li2202 N2247 1.990 . S
Li2202 O2260 1.961 . S
Li2202 O2262 1.956 . S
Li2202 O2263 1.970 . S
Li2203 N2253 1.990 . S
Li2203 O2261 1.961 . S
Li2203 O2262 1.970 . S
Li2203 O2263 1.956 . S
C2204 C2206 1.348 . S
C2204 C2207 1.356 . S
C2204 O2260 1.325 . S
N2205 C2208 1.314 . S
N2205 C2209 1.279 . S
C2206 C2204 1.348 . S
C2206 C2208 1.353 . S
C2206 H2264 0.929 . S
C2207 C2204 1.356 . S
C2207 C2209 1.358 . S
C2207 H2265 0.930 . S
C2208 N2205 1.314 . S
C2208 C2206 1.353 . S
C2208 H2266 0.930 . S
C2209 N2205 1.279 . S
C2209 C2207 1.358 . S
C2209 H2267 0.930 . S
C2210 C2213 1.348 . S
C2210 C2214 1.356 . S
C2210 O2261 1.325 . S
C2211 N2212 1.279 . S
C2211 C2214 1.358 . S
C2211 H2268 0.930 . S
N2212 C2211 1.279 . S
N2212 C2215 1.314 . S
C2213 C2210 1.348 . S
C2213 C2215 1.353 . S
C2213 H2269 0.929 . S
C2214 C2210 1.356 . S
C2214 C2211 1.358 . S
C2214 H2270 0.930 . S
C2215 N2212 1.314 . S
C2215 C2213 1.353 . S
C2215 H2271 0.930 . S
C2216 N2217 1.314 . S
C2216 C2221 1.353 . S
C2216 H2222 0.930 . S
N2217 Li2200 1.990 . S
N2217 C2216 1.314 . S
N2217 C2219 1.279 . S
C2218 C2219 1.358 . S
C2218 C2220 1.356 . S
C2218 H2272 0.930 . S
C2219 N2217 1.279 . S
C2219 C2218 1.358 . S
C2219 H2223 0.930 . S
C2220 C2218 1.356 . S
C2220 C2221 1.348 . S
C2221 C2216 1.353 . S
C2221 C2220 1.348 . S
C2221 H2273 0.929 . S
H2222 C2216 0.930 . S
H2223 C2219 0.930 . S
C2224 N2225 1.314 . S
C2224 C2226 1.353 . S
C2224 H2230 0.930 . S
N2225 Li2201 1.990 . S
N2225 C2224 1.314 . S
N2225 C2228 1.279 . S
C2226 C2224 1.353 . S
C2226 C2229 1.348 . S
C2226 H2274 0.929 . S
C2227 C2228 1.358 . S
C2227 C2229 1.356 . S
C2227 H2275 0.930 . S
C2228 N2225 1.279 . S
C2228 C2227 1.358 . S
C2228 H2231 0.930 . S
C2229 C2226 1.348 . S
C2229 C2227 1.356 . S
H2230 C2224 0.930 . S
H2231 C2228 0.930 . S
C2232 C2234 1.348 . S
C2232 C2235 1.356 . S
C2232 O2262 1.325 . S
N2233 C2236 1.314 . S
N2233 C2237 1.279 . S
C2234 C2232 1.348 . S
C2234 C2236 1.353 . S
C2234 H2276 0.929 . S
C2235 C2232 1.356 . S
C2235 C2237 1.358 . S
C2235 H2277 0.930 . S
C2236 N2233 1.314 . S
C2236 C2234 1.353 . S
C2236 H2278 0.930 . S
C2237 N2233 1.279 . S
C2237 C2235 1.358 . S
C2237 H2279 0.930 . S
C2238 C2239 1.348 . S
C2238 C2240 1.356 . S
C2238 O2263 1.325 . S
C2239 C2238 1.348 . S
C2239 C2241 1.353 . S
C2239 H2280 0.929 . S
C2240 C2238 1.356 . S
C2240 C2242 1.358 . S
C2240 H2281 0.930 . S
C2241 C2239 1.353 . S
C2241 N2243 1.314 . S
C2241 H2282 0.930 . S
C2242 C2240 1.358 . S
C2242 N2243 1.279 . S
C2242 H2283 0.930 . S
N2243 C2241 1.314 . S
N2243 C2242 1.279 . S
C2244 C2246 1.353 . S
C2244 N2247 1.314 . S
C2244 H2250 0.930 . S
C2245 N2247 1.279 . S
C2245 C2248 1.358 . S
C2245 H2251 0.930 . S
C2246 C2244 1.353 . S
C2246 C2249 1.348 . S
C2246 H2284 0.929 . S
N2247 Li2202 1.990 . S
N2247 C2244 1.314 . S
N2247 C2245 1.279 . S
C2248 C2245 1.358 . S
C2248 C2249 1.356 . S
C2248 H2285 0.930 . S
C2249 C2246 1.348 . S
C2249 C2248 1.356 . S
H2250 C2244 0.930 . S
H2251 C2245 0.930 . S
C2252 N2253 1.314 . S
C2252 C2254 1.353 . S
C2252 H2258 0.930 . S
N2253 Li2203 1.990 . S
N2253 C2252 1.314 . S
N2253 C2256 1.279 . S
C2254 C2252 1.353 . S
C2254 C2257 1.348 . S
C2254 H2286 0.929 . S
C2255 C2256 1.358 . S
C2255 C2257 1.356 . S
C2255 H2287 0.930 . S
C2256 N2253 1.279 . S
C2256 C2255 1.358 . S
C2256 H2259 0.930 . S
C2257 C2254 1.348 . S
C2257 C2255 1.356 . S
H2258 C2252 0.930 . S
H2259 C2256 0.930 . S
O2260 Li2200 1.956 . S
O2260 Li2201 1.970 . S
O2260 Li2202 1.961 . S
O2260 C2204 1.325 . S
O2261 Li2200 1.970 . S
O2261 Li2201 1.956 . S
O2261 Li2203 1.961 . S
O2261 C2210 1.325 . S
O2262 Li2200 1.961 . S
O2262 Li2202 1.956 . S
O2262 Li2203 1.970 . S
O2262 C2232 1.325 . S
O2263 Li2201 1.961 . S
O2263 Li2202 1.970 . S
O2263 Li2203 1.956 . S
O2263 C2238 1.325 . S
H2264 C2206 0.929 . S
H2265 C2207 0.930 . S
H2266 C2208 0.930 . S
H2267 C2209 0.930 . S
H2268 C2211 0.930 . S
H2269 C2213 0.929 . S
H2270 C2214 0.930 . S
H2271 C2215 0.930 . S
H2272 C2218 0.930 . S
H2273 C2221 0.929 . S
H2274 C2226 0.929 . S
H2275 C2227 0.930 . S
H2276 C2234 0.929 . S
H2277 C2235 0.930 . S
H2278 C2236 0.930 . S
H2279 C2237 0.930 . S
H2280 C2239 0.929 . S
H2281 C2240 0.930 . S
H2282 C2241 0.930 . S
H2283 C2242 0.930 . S
H2284 C2246 0.929 . S
H2285 C2248 0.930 . S
H2286 C2254 0.929 . S
H2287 C2255 0.930 . S
Li2288 N2305 1.990 . S
Li2288 O2348 1.956 . S
Li2288 O2349 1.970 . S
Li2288 O2350 1.961 . S
Li2289 N2313 1.990 . S
Li2289 O2348 1.970 . S
Li2289 O2349 1.956 . S
Li2289 O2351 1.961 . S
Li2290 N2335 1.990 1_554 S
Li2290 O2348 1.961 . S
Li2290 O2350 1.956 . S
Li2290 O2351 1.970 . S
Li2291 N2341 1.990 . S
Li2291 O2349 1.961 . S
Li2291 O2350 1.970 . S
Li2291 O2351 1.956 . S
C2292 C2294 1.348 . S
C2292 C2295 1.356 . S
C2292 O2348 1.325 . S
N2293 C2296 1.314 . S
N2293 C2297 1.279 . S
C2294 C2292 1.348 . S
C2294 C2296 1.353 . S
C2294 H2352 0.929 . S
C2295 C2292 1.356 . S
C2295 C2297 1.358 . S
C2295 H2353 0.930 . S
C2296 N2293 1.314 . S
C2296 C2294 1.353 . S
C2296 H2354 0.930 . S
C2297 N2293 1.279 . S
C2297 C2295 1.358 . S
C2297 H2355 0.930 . S
C2298 C2301 1.348 . S
C2298 C2302 1.356 . S
C2298 O2349 1.325 . S
C2299 N2300 1.279 . S
C2299 C2302 1.358 . S
C2299 H2356 0.930 . S
N2300 C2299 1.279 . S
N2300 C2303 1.314 . S
C2301 C2298 1.348 . S
C2301 C2303 1.353 . S
C2301 H2357 0.929 . S
C2302 C2298 1.356 . S
C2302 C2299 1.358 . S
C2302 H2358 0.930 . S
C2303 N2300 1.314 . S
C2303 C2301 1.353 . S
C2303 H2359 0.930 . S
C2304 N2305 1.314 . S
C2304 C2309 1.353 . S
C2304 H2310 0.930 . S
N2305 Li2288 1.990 . S
N2305 C2304 1.314 . S
N2305 C2307 1.279 . S
C2306 C2307 1.358 . S
C2306 C2308 1.356 . S
C2306 H2360 0.930 . S
C2307 N2305 1.279 . S
C2307 C2306 1.358 . S
C2307 H2311 0.930 . S
C2308 C2306 1.356 . S
C2308 C2309 1.348 . S
C2309 C2304 1.353 . S
C2309 C2308 1.348 . S
C2309 H2361 0.929 . S
H2310 C2304 0.930 . S
H2311 C2307 0.930 . S
C2312 N2313 1.314 . S
C2312 C2314 1.353 . S
C2312 H2318 0.930 . S
N2313 Li2289 1.990 . S
N2313 C2312 1.314 . S
N2313 C2316 1.279 . S
C2314 C2312 1.353 . S
C2314 C2317 1.348 . S
C2314 H2362 0.929 . S
C2315 C2316 1.358 . S
C2315 C2317 1.356 . S
C2315 H2363 0.930 . S
C2316 N2313 1.279 . S
C2316 C2315 1.358 . S
C2316 H2319 0.930 . S
C2317 C2314 1.348 . S
C2317 C2315 1.356 . S
H2318 C2312 0.930 . S
H2319 C2316 0.930 . S
C2320 C2322 1.348 . S
C2320 C2323 1.356 . S
C2320 O2350 1.325 . S
N2321 C2324 1.314 . S
N2321 C2325 1.279 . S
C2322 C2320 1.348 . S
C2322 C2324 1.353 . S
C2322 H2364 0.929 . S
C2323 C2320 1.356 . S
C2323 C2325 1.358 . S
C2323 H2365 0.930 . S
C2324 N2321 1.314 . S
C2324 C2322 1.353 . S
C2324 H2366 0.930 . S
C2325 N2321 1.279 . S
C2325 C2323 1.358 . S
C2325 H2367 0.930 . S
C2326 C2327 1.348 . S
C2326 C2328 1.356 . S
C2326 O2351 1.325 1_556 S
C2327 C2326 1.348 . S
C2327 C2329 1.353 . S
C2327 H2368 0.929 . S
C2328 C2326 1.356 . S
C2328 C2330 1.358 . S
C2328 H2369 0.930 1_556 S
C2329 C2327 1.353 . S
C2329 N2331 1.314 . S
C2329 H2370 0.930 . S
C2330 C2328 1.358 . S
C2330 N2331 1.279 . S
C2330 H2371 0.930 . S
N2331 C2329 1.314 . S
N2331 C2330 1.279 . S
C2332 C2334 1.353 . S
C2332 N2335 1.314 . S
C2332 H2338 0.930 . S
C2333 N2335 1.279 . S
C2333 C2336 1.358 . S
C2333 H2339 0.930 . S
C2334 C2332 1.353 . S
C2334 C2337 1.348 . S
C2334 H2372 0.929 . S
N2335 Li2290 1.990 1_556 S
N2335 C2332 1.314 . S
N2335 C2333 1.279 . S
C2336 C2333 1.358 . S
C2336 C2337 1.356 . S
C2336 H2373 0.930 . S
C2337 C2334 1.348 . S
C2337 C2336 1.356 . S
H2338 C2332 0.930 . S
H2339 C2333 0.930 . S
C2340 N2341 1.314 . S
C2340 C2342 1.353 . S
C2340 H2346 0.930 . S
N2341 Li2291 1.990 . S
N2341 C2340 1.314 . S
N2341 C2344 1.279 . S
C2342 C2340 1.353 . S
C2342 C2345 1.348 . S
C2342 H2374 0.929 . S
C2343 C2344 1.358 . S
C2343 C2345 1.356 . S
C2343 H2375 0.930 1_554 S
C2344 N2341 1.279 . S
C2344 C2343 1.358 . S
C2344 H2347 0.930 1_554 S
C2345 C2342 1.348 . S
C2345 C2343 1.356 . S
H2346 C2340 0.930 . S
H2347 C2344 0.930 1_556 S
O2348 Li2288 1.956 . S
O2348 Li2289 1.970 . S
O2348 Li2290 1.961 . S
O2348 C2292 1.325 . S
O2349 Li2288 1.970 . S
O2349 Li2289 1.956 . S
O2349 Li2291 1.961 . S
O2349 C2298 1.325 . S
O2350 Li2288 1.961 . S
O2350 Li2290 1.956 . S
O2350 Li2291 1.970 . S
O2350 C2320 1.325 . S
O2351 Li2289 1.961 . S
O2351 Li2290 1.970 . S
O2351 Li2291 1.956 . S
O2351 C2326 1.325 1_554 S
H2352 C2294 0.929 . S
H2353 C2295 0.930 . S
H2354 C2296 0.930 . S
H2355 C2297 0.930 . S
H2356 C2299 0.930 . S
H2357 C2301 0.929 . S
H2358 C2302 0.930 . S
H2359 C2303 0.930 . S
H2360 C2306 0.930 . S
H2361 C2309 0.929 . S
H2362 C2314 0.929 . S
H2363 C2315 0.930 . S
H2364 C2322 0.929 . S
H2365 C2323 0.930 . S
H2366 C2324 0.930 . S
H2367 C2325 0.930 . S
H2368 C2327 0.929 . S
H2369 C2328 0.930 1_554 S
H2370 C2329 0.930 . S
H2371 C2330 0.930 . S
H2372 C2334 0.929 . S
H2373 C2336 0.930 . S
H2374 C2342 0.929 . S
H2375 C2343 0.930 1_556 S
Li2376 N2393 1.990 . S
Li2376 O2436 1.956 . S
Li2376 O2437 1.970 . S
Li2376 O2438 1.961 . S
Li2377 N2401 1.990 . S
Li2377 O2436 1.970 . S
Li2377 O2437 1.956 . S
Li2377 O2439 1.961 . S
Li2378 N2423 1.990 . S
Li2378 O2436 1.961 . S
Li2378 O2438 1.956 . S
Li2378 O2439 1.970 . S
Li2379 N2429 1.990 . S
Li2379 O2437 1.961 . S
Li2379 O2438 1.970 . S
Li2379 O2439 1.956 . S
C2380 C2382 1.348 . S
C2380 C2383 1.356 . S
C2380 O2436 1.325 . S
N2381 C2384 1.314 . S
N2381 C2385 1.279 . S
C2382 C2380 1.348 . S
C2382 C2384 1.353 . S
C2382 H2440 0.929 . S
C2383 C2380 1.356 . S
C2383 C2385 1.358 . S
C2383 H2441 0.930 . S
C2384 N2381 1.314 . S
C2384 C2382 1.353 . S
C2384 H2442 0.930 . S
C2385 N2381 1.279 . S
C2385 C2383 1.358 . S
C2385 H2443 0.930 . S
C2386 C2389 1.348 . S
C2386 C2390 1.356 . S
C2386 O2437 1.325 . S
C2387 N2388 1.279 . S
C2387 C2390 1.358 . S
C2387 H2444 0.930 . S
N2388 C2387 1.279 . S
N2388 C2391 1.314 . S
C2389 C2386 1.348 . S
C2389 C2391 1.353 . S
C2389 H2445 0.929 . S
C2390 C2386 1.356 . S
C2390 C2387 1.358 . S
C2390 H2446 0.930 . S
C2391 N2388 1.314 . S
C2391 C2389 1.353 . S
C2391 H2447 0.930 . S
C2392 N2393 1.314 . S
C2392 C2397 1.353 . S
C2392 H2398 0.930 . S
N2393 Li2376 1.990 . S
N2393 C2392 1.314 . S
N2393 C2395 1.279 . S
C2394 C2395 1.358 . S
C2394 C2396 1.356 . S
C2394 H2448 0.930 . S
C2395 N2393 1.279 . S
C2395 C2394 1.358 . S
C2395 H2399 0.930 . S
C2396 C2394 1.356 . S
C2396 C2397 1.348 . S
C2397 C2392 1.353 . S
C2397 C2396 1.348 . S
C2397 H2449 0.929 . S
H2398 C2392 0.930 . S
H2399 C2395 0.930 . S
C2400 N2401 1.314 . S
C2400 C2402 1.353 . S
C2400 H2406 0.930 . S
N2401 Li2377 1.990 . S
N2401 C2400 1.314 . S
N2401 C2404 1.279 . S
C2402 C2400 1.353 . S
C2402 C2405 1.348 . S
C2402 H2450 0.929 . S
C2403 C2404 1.358 . S
C2403 C2405 1.356 . S
C2403 H2451 0.930 . S
C2404 N2401 1.279 . S
C2404 C2403 1.358 . S
C2404 H2407 0.930 . S
C2405 C2402 1.348 . S
C2405 C2403 1.356 . S
H2406 C2400 0.930 . S
H2407 C2404 0.930 . S
C2408 C2410 1.348 . S
C2408 C2411 1.356 . S
C2408 O2438 1.325 . S
N2409 C2412 1.314 . S
N2409 C2413 1.279 . S
C2410 C2408 1.348 . S
C2410 C2412 1.353 . S
C2410 H2452 0.929 . S
C2411 C2408 1.356 . S
C2411 C2413 1.358 . S
C2411 H2453 0.930 . S
C2412 N2409 1.314 . S
C2412 C2410 1.353 . S
C2412 H2454 0.930 . S
C2413 N2409 1.279 . S
C2413 C2411 1.358 . S
C2413 H2455 0.930 . S
C2414 C2415 1.348 . S
C2414 C2416 1.356 . S
C2414 O2439 1.325 . S
C2415 C2414 1.348 . S
C2415 C2417 1.353 . S
C2415 H2456 0.929 . S
C2416 C2414 1.356 . S
C2416 C2418 1.358 . S
C2416 H2457 0.930 . S
C2417 C2415 1.353 . S
C2417 N2419 1.314 . S
C2417 H2458 0.930 . S
C2418 C2416 1.358 . S
C2418 N2419 1.279 . S
C2418 H2459 0.930 . S
N2419 C2417 1.314 . S
N2419 C2418 1.279 . S
C2420 C2422 1.353 . S
C2420 N2423 1.314 . S
C2420 H2426 0.930 . S
C2421 N2423 1.279 . S
C2421 C2424 1.358 . S
C2421 H2427 0.930 . S
C2422 C2420 1.353 . S
C2422 C2425 1.348 . S
C2422 H2460 0.929 . S
N2423 Li2378 1.990 . S
N2423 C2420 1.314 . S
N2423 C2421 1.279 . S
C2424 C2421 1.358 . S
C2424 C2425 1.356 . S
C2424 H2461 0.930 . S
C2425 C2422 1.348 . S
C2425 C2424 1.356 . S
H2426 C2420 0.930 . S
H2427 C2421 0.930 . S
C2428 N2429 1.314 . S
C2428 C2430 1.353 . S
C2428 H2434 0.930 . S
N2429 Li2379 1.990 . S
N2429 C2428 1.314 . S
N2429 C2432 1.279 . S
C2430 C2428 1.353 . S
C2430 C2433 1.348 . S
C2430 H2462 0.929 . S
C2431 C2432 1.358 . S
C2431 C2433 1.356 . S
C2431 H2463 0.930 . S
C2432 N2429 1.279 . S
C2432 C2431 1.358 . S
C2432 H2435 0.930 . S
C2433 C2430 1.348 . S
C2433 C2431 1.356 . S
H2434 C2428 0.930 . S
H2435 C2432 0.930 . S
O2436 Li2376 1.956 . S
O2436 Li2377 1.970 . S
O2436 Li2378 1.961 . S
O2436 C2380 1.325 . S
O2437 Li2376 1.970 . S
O2437 Li2377 1.956 . S
O2437 Li2379 1.961 . S
O2437 C2386 1.325 . S
O2438 Li2376 1.961 . S
O2438 Li2378 1.956 . S
O2438 Li2379 1.970 . S
O2438 C2408 1.325 . S
O2439 Li2377 1.961 . S
O2439 Li2378 1.970 . S
O2439 Li2379 1.956 . S
O2439 C2414 1.325 . S
H2440 C2382 0.929 . S
H2441 C2383 0.930 . S
H2442 C2384 0.930 . S
H2443 C2385 0.930 . S
H2444 C2387 0.930 . S
H2445 C2389 0.929 . S
H2446 C2390 0.930 . S
H2447 C2391 0.930 . S
H2448 C2394 0.930 . S
H2449 C2397 0.929 . S
H2450 C2402 0.929 . S
H2451 C2403 0.930 . S
H2452 C2410 0.929 . S
H2453 C2411 0.930 . S
H2454 C2412 0.930 . S
H2455 C2413 0.930 . S
H2456 C2415 0.929 . S
H2457 C2416 0.930 . S
H2458 C2417 0.930 . S
H2459 C2418 0.930 . S
H2460 C2422 0.929 . S
H2461 C2424 0.930 . S
H2462 C2430 0.929 . S
H2463 C2431 0.930 . S
Li2464 N2481 1.990 . S
Li2464 O2524 1.956 . S
Li2464 O2525 1.970 . S
Li2464 O2526 1.961 . S
Li2465 N2489 1.990 . S
Li2465 O2524 1.970 . S
Li2465 O2525 1.956 . S
Li2465 O2527 1.961 . S
Li2466 N2511 1.990 . S
Li2466 O2524 1.961 . S
Li2466 O2526 1.956 . S
Li2466 O2527 1.970 . S
Li2467 N2517 1.990 . S
Li2467 O2525 1.961 . S
Li2467 O2526 1.970 . S
Li2467 O2527 1.956 . S
C2468 C2470 1.348 . S
C2468 C2471 1.356 . S
C2468 O2524 1.325 . S
N2469 C2472 1.314 . S
N2469 C2473 1.279 . S
C2470 C2468 1.348 . S
C2470 C2472 1.353 . S
C2470 H2528 0.929 . S
C2471 C2468 1.356 . S
C2471 C2473 1.358 . S
C2471 H2529 0.930 . S
C2472 N2469 1.314 . S
C2472 C2470 1.353 . S
C2472 H2530 0.930 . S
C2473 N2469 1.279 . S
C2473 C2471 1.358 . S
C2473 H2531 0.930 . S
C2474 C2477 1.348 . S
C2474 C2478 1.356 . S
C2474 O2525 1.325 . S
C2475 N2476 1.279 . S
C2475 C2478 1.358 . S
C2475 H2532 0.930 . S
N2476 C2475 1.279 . S
N2476 C2479 1.314 . S
C2477 C2474 1.348 . S
C2477 C2479 1.353 . S
C2477 H2533 0.929 . S
C2478 C2474 1.356 . S
C2478 C2475 1.358 . S
C2478 H2534 0.930 . S
C2479 N2476 1.314 . S
C2479 C2477 1.353 . S
C2479 H2535 0.930 . S
C2480 N2481 1.314 . S
C2480 C2485 1.353 . S
C2480 H2486 0.930 . S
N2481 Li2464 1.990 . S
N2481 C2480 1.314 . S
N2481 C2483 1.279 . S
C2482 C2483 1.358 . S
C2482 C2484 1.356 . S
C2482 H2536 0.930 . S
C2483 N2481 1.279 . S
C2483 C2482 1.358 . S
C2483 H2487 0.930 . S
C2484 C2482 1.356 . S
C2484 C2485 1.348 . S
C2485 C2480 1.353 . S
C2485 C2484 1.348 . S
C2485 H2537 0.929 . S
H2486 C2480 0.930 . S
H2487 C2483 0.930 . S
C2488 N2489 1.314 . S
C2488 C2490 1.353 . S
C2488 H2494 0.930 . S
N2489 Li2465 1.990 . S
N2489 C2488 1.314 . S
N2489 C2492 1.279 . S
C2490 C2488 1.353 . S
C2490 C2493 1.348 . S
C2490 H2538 0.929 . S
C2491 C2492 1.358 . S
C2491 C2493 1.356 . S
C2491 H2539 0.930 . S
C2492 N2489 1.279 . S
C2492 C2491 1.358 . S
C2492 H2495 0.930 . S
C2493 C2490 1.348 . S
C2493 C2491 1.356 . S
H2494 C2488 0.930 . S
H2495 C2492 0.930 . S
C2496 C2498 1.348 . S
C2496 C2499 1.356 . S
C2496 O2526 1.325 . S
N2497 C2500 1.314 . S
N2497 C2501 1.279 . S
C2498 C2496 1.348 . S
C2498 C2500 1.353 . S
C2498 H2540 0.929 . S
C2499 C2496 1.356 . S
C2499 C2501 1.358 . S
C2499 H2541 0.930 . S
C2500 N2497 1.314 . S
C2500 C2498 1.353 . S
C2500 H2542 0.930 . S
C2501 N2497 1.279 . S
C2501 C2499 1.358 . S
C2501 H2543 0.930 . S
C2502 C2503 1.348 . S
C2502 C2504 1.356 . S
C2502 O2527 1.325 . S
C2503 C2502 1.348 . S
C2503 C2505 1.353 . S
C2503 H2544 0.929 . S
C2504 C2502 1.356 . S
C2504 C2506 1.358 . S
C2504 H2545 0.930 . S
C2505 C2503 1.353 . S
C2505 N2507 1.314 . S
C2505 H2546 0.930 . S
C2506 C2504 1.358 . S
C2506 N2507 1.279 . S
C2506 H2547 0.930 . S
N2507 C2505 1.314 . S
N2507 C2506 1.279 . S
C2508 C2510 1.353 . S
C2508 N2511 1.314 . S
C2508 H2514 0.930 . S
C2509 N2511 1.279 . S
C2509 C2512 1.358 . S
C2509 H2515 0.930 . S
C2510 C2508 1.353 . S
C2510 C2513 1.348 . S
C2510 H2548 0.929 . S
N2511 Li2466 1.990 . S
N2511 C2508 1.314 . S
N2511 C2509 1.279 . S
C2512 C2509 1.358 . S
C2512 C2513 1.356 . S
C2512 H2549 0.930 . S
C2513 C2510 1.348 . S
C2513 C2512 1.356 . S
H2514 C2508 0.930 . S
H2515 C2509 0.930 . S
C2516 N2517 1.314 . S
C2516 C2518 1.353 . S
C2516 H2522 0.930 . S
N2517 Li2467 1.990 . S
N2517 C2516 1.314 . S
N2517 C2520 1.279 . S
C2518 C2516 1.353 . S
C2518 C2521 1.348 . S
C2518 H2550 0.929 . S
C2519 C2520 1.358 . S
C2519 C2521 1.356 . S
C2519 H2551 0.930 . S
C2520 N2517 1.279 . S
C2520 C2519 1.358 . S
C2520 H2523 0.930 . S
C2521 C2518 1.348 . S
C2521 C2519 1.356 . S
H2522 C2516 0.930 . S
H2523 C2520 0.930 . S
O2524 Li2464 1.956 . S
O2524 Li2465 1.970 . S
O2524 Li2466 1.961 . S
O2524 C2468 1.325 . S
O2525 Li2464 1.970 . S
O2525 Li2465 1.956 . S
O2525 Li2467 1.961 . S
O2525 C2474 1.325 . S
O2526 Li2464 1.961 . S
O2526 Li2466 1.956 . S
O2526 Li2467 1.970 . S
O2526 C2496 1.325 . S
O2527 Li2465 1.961 . S
O2527 Li2466 1.970 . S
O2527 Li2467 1.956 . S
O2527 C2502 1.325 . S
H2528 C2470 0.929 . S
H2529 C2471 0.930 . S
H2530 C2472 0.930 . S
H2531 C2473 0.930 . S
H2532 C2475 0.930 . S
H2533 C2477 0.929 . S
H2534 C2478 0.930 . S
H2535 C2479 0.930 . S
H2536 C2482 0.930 . S
H2537 C2485 0.929 . S
H2538 C2490 0.929 . S
H2539 C2491 0.930 . S
H2540 C2498 0.929 . S
H2541 C2499 0.930 . S
H2542 C2500 0.930 . S
H2543 C2501 0.930 . S
H2544 C2503 0.929 . S
H2545 C2504 0.930 . S
H2546 C2505 0.930 . S
H2547 C2506 0.930 . S
H2548 C2510 0.929 . S
H2549 C2512 0.930 . S
H2550 C2518 0.929 . S
H2551 C2519 0.930 . S
Li2552 N2569 1.990 . S
Li2552 O2612 1.956 . S
Li2552 O2613 1.970 . S
Li2552 O2614 1.961 . S
Li2553 N2577 1.990 . S
Li2553 O2612 1.970 . S
Li2553 O2613 1.956 . S
Li2553 O2615 1.961 . S
Li2554 N2599 1.990 . S
Li2554 O2612 1.961 . S
Li2554 O2614 1.956 . S
Li2554 O2615 1.970 . S
Li2555 N2605 1.990 . S
Li2555 O2613 1.961 . S
Li2555 O2614 1.970 . S
Li2555 O2615 1.956 . S
C2556 C2558 1.348 . S
C2556 C2559 1.356 . S
C2556 O2612 1.325 . S
N2557 C2560 1.314 . S
N2557 C2561 1.279 . S
C2558 C2556 1.348 . S
C2558 C2560 1.353 . S
C2558 H2616 0.929 . S
C2559 C2556 1.356 . S
C2559 C2561 1.358 . S
C2559 H2617 0.930 . S
C2560 N2557 1.314 . S
C2560 C2558 1.353 . S
C2560 H2618 0.930 . S
C2561 N2557 1.279 . S
C2561 C2559 1.358 . S
C2561 H2619 0.930 . S
C2562 C2565 1.348 . S
C2562 C2566 1.356 . S
C2562 O2613 1.325 . S
C2563 N2564 1.279 . S
C2563 C2566 1.358 . S
C2563 H2620 0.930 . S
N2564 C2563 1.279 . S
N2564 C2567 1.314 . S
C2565 C2562 1.348 . S
C2565 C2567 1.353 . S
C2565 H2621 0.929 . S
C2566 C2562 1.356 . S
C2566 C2563 1.358 . S
C2566 H2622 0.930 . S
C2567 N2564 1.314 . S
C2567 C2565 1.353 . S
C2567 H2623 0.930 . S
C2568 N2569 1.314 . S
C2568 C2573 1.353 . S
C2568 H2574 0.930 . S
N2569 Li2552 1.990 . S
N2569 C2568 1.314 . S
N2569 C2571 1.279 . S
C2570 C2571 1.358 . S
C2570 C2572 1.356 . S
C2570 H2624 0.930 . S
C2571 N2569 1.279 . S
C2571 C2570 1.358 . S
C2571 H2575 0.930 . S
C2572 C2570 1.356 . S
C2572 C2573 1.348 . S
C2573 C2568 1.353 . S
C2573 C2572 1.348 . S
C2573 H2625 0.929 . S
H2574 C2568 0.930 . S
H2575 C2571 0.930 . S
C2576 N2577 1.314 . S
C2576 C2578 1.353 . S
C2576 H2582 0.930 . S
N2577 Li2553 1.990 . S
N2577 C2576 1.314 . S
N2577 C2580 1.279 . S
C2578 C2576 1.353 . S
C2578 C2581 1.348 . S
C2578 H2626 0.929 . S
C2579 C2580 1.358 . S
C2579 C2581 1.356 . S
C2579 H2627 0.930 . S
C2580 N2577 1.279 . S
C2580 C2579 1.358 . S
C2580 H2583 0.930 . S
C2581 C2578 1.348 . S
C2581 C2579 1.356 . S
H2582 C2576 0.930 . S
H2583 C2580 0.930 . S
C2584 C2586 1.348 . S
C2584 C2587 1.356 . S
C2584 O2614 1.325 . S
N2585 C2588 1.314 . S
N2585 C2589 1.279 . S
C2586 C2584 1.348 . S
C2586 C2588 1.353 . S
C2586 H2628 0.929 . S
C2587 C2584 1.356 . S
C2587 C2589 1.358 . S
C2587 H2629 0.930 . S
C2588 N2585 1.314 . S
C2588 C2586 1.353 . S
C2588 H2630 0.930 . S
C2589 N2585 1.279 . S
C2589 C2587 1.358 . S
C2589 H2631 0.930 . S
C2590 C2591 1.348 . S
C2590 C2592 1.356 . S
C2590 O2615 1.325 . S
C2591 C2590 1.348 . S
C2591 C2593 1.353 . S
C2591 H2632 0.929 . S
C2592 C2590 1.356 . S
C2592 C2594 1.358 . S
C2592 H2633 0.930 . S
C2593 C2591 1.353 . S
C2593 N2595 1.314 . S
C2593 H2634 0.930 . S
C2594 C2592 1.358 . S
C2594 N2595 1.279 . S
C2594 H2635 0.930 . S
N2595 C2593 1.314 . S
N2595 C2594 1.279 . S
C2596 C2598 1.353 . S
C2596 N2599 1.314 . S
C2596 H2602 0.930 . S
C2597 N2599 1.279 . S
C2597 C2600 1.358 . S
C2597 H2603 0.930 . S
C2598 C2596 1.353 . S
C2598 C2601 1.348 . S
C2598 H2636 0.929 . S
N2599 Li2554 1.990 . S
N2599 C2596 1.314 . S
N2599 C2597 1.279 . S
C2600 C2597 1.358 . S
C2600 C2601 1.356 . S
C2600 H2637 0.930 . S
C2601 C2598 1.348 . S
C2601 C2600 1.356 . S
H2602 C2596 0.930 . S
H2603 C2597 0.930 . S
C2604 N2605 1.314 . S
C2604 C2606 1.353 . S
C2604 H2610 0.930 . S
N2605 Li2555 1.990 . S
N2605 C2604 1.314 . S
N2605 C2608 1.279 . S
C2606 C2604 1.353 . S
C2606 C2609 1.348 . S
C2606 H2638 0.929 . S
C2607 C2608 1.358 . S
C2607 C2609 1.356 . S
C2607 H2639 0.930 . S
C2608 N2605 1.279 . S
C2608 C2607 1.358 . S
C2608 H2611 0.930 . S
C2609 C2606 1.348 . S
C2609 C2607 1.356 . S
H2610 C2604 0.930 . S
H2611 C2608 0.930 . S
O2612 Li2552 1.956 . S
O2612 Li2553 1.970 . S
O2612 Li2554 1.961 . S
O2612 C2556 1.325 . S
O2613 Li2552 1.970 . S
O2613 Li2553 1.956 . S
O2613 Li2555 1.961 . S
O2613 C2562 1.325 . S
O2614 Li2552 1.961 . S
O2614 Li2554 1.956 . S
O2614 Li2555 1.970 . S
O2614 C2584 1.325 . S
O2615 Li2553 1.961 . S
O2615 Li2554 1.970 . S
O2615 Li2555 1.956 . S
O2615 C2590 1.325 . S
H2616 C2558 0.929 . S
H2617 C2559 0.930 . S
H2618 C2560 0.930 . S
H2619 C2561 0.930 . S
H2620 C2563 0.930 . S
H2621 C2565 0.929 . S
H2622 C2566 0.930 . S
H2623 C2567 0.930 . S
H2624 C2570 0.930 . S
H2625 C2573 0.929 . S
H2626 C2578 0.929 . S
H2627 C2579 0.930 . S
H2628 C2586 0.929 . S
H2629 C2587 0.930 . S
H2630 C2588 0.930 . S
H2631 C2589 0.930 . S
H2632 C2591 0.929 . S
H2633 C2592 0.930 . S
H2634 C2593 0.930 . S
H2635 C2594 0.930 . S
H2636 C2598 0.929 . S
H2637 C2600 0.930 . S
H2638 C2606 0.929 . S
H2639 C2607 0.930 . S
Li2640 N2657 1.990 . S
Li2640 O2700 1.956 . S
Li2640 O2701 1.970 . S
Li2640 O2702 1.961 1_554 S
Li2641 N2665 1.990 . S
Li2641 O2700 1.970 . S
Li2641 O2701 1.956 . S
Li2641 O2703 1.961 . S
Li2642 N2687 1.991 . S
Li2642 O2700 1.961 . S
Li2642 O2702 1.956 1_554 S
Li2642 O2703 1.970 . S
Li2643 N2693 1.990 . S
Li2643 O2701 1.961 1_556 S
Li2643 O2702 1.970 . S
Li2643 O2703 1.956 1_556 S
C2644 C2646 1.348 . S
C2644 C2647 1.356 . S
C2644 O2700 1.325 . S
N2645 C2648 1.314 . S
N2645 C2649 1.279 . S
C2646 C2644 1.348 . S
C2646 C2648 1.353 . S
C2646 H2704 0.929 . S
C2647 C2644 1.356 . S
C2647 C2649 1.358 . S
C2647 H2705 0.930 . S
C2648 N2645 1.314 . S
C2648 C2646 1.353 . S
C2648 H2706 0.930 . S
C2649 N2645 1.279 . S
C2649 C2647 1.358 . S
C2649 H2707 0.930 . S
C2650 C2653 1.348 . S
C2650 C2654 1.356 . S
C2650 O2701 1.325 . S
C2651 N2652 1.279 . S
C2651 C2654 1.358 . S
C2651 H2708 0.930 . S
N2652 C2651 1.279 . S
N2652 C2655 1.314 . S
C2653 C2650 1.348 . S
C2653 C2655 1.353 . S
C2653 H2709 0.929 . S
C2654 C2650 1.356 . S
C2654 C2651 1.358 . S
C2654 H2710 0.930 . S
C2655 N2652 1.314 . S
C2655 C2653 1.353 . S
C2655 H2711 0.930 . S
C2656 N2657 1.314 1_556 S
C2656 C2661 1.353 . S
C2656 H2662 0.930 . S
N2657 Li2640 1.990 . S
N2657 C2656 1.314 1_554 S
N2657 C2659 1.279 . S
C2658 C2659 1.358 . S
C2658 C2660 1.356 . S
C2658 H2712 0.930 . S
C2659 N2657 1.279 . S
C2659 C2658 1.358 . S
C2659 H2663 0.930 . S
C2660 C2658 1.356 . S
C2660 C2661 1.348 1_554 S
C2661 C2656 1.353 . S
C2661 C2660 1.348 1_556 S
C2661 H2713 0.929 . S
H2662 C2656 0.930 . S
H2663 C2659 0.930 . S
C2664 N2665 1.314 . S
C2664 C2666 1.353 . S
C2664 H2670 0.930 . S
N2665 Li2641 1.990 . S
N2665 C2664 1.314 . S
N2665 C2668 1.279 . S
C2666 C2664 1.353 . S
C2666 C2669 1.348 . S
C2666 H2714 0.929 . S
C2667 C2668 1.358 . S
C2667 C2669 1.356 . S
C2667 H2715 0.930 . S
C2668 N2665 1.279 . S
C2668 C2667 1.358 . S
C2668 H2671 0.930 . S
C2669 C2666 1.348 . S
C2669 C2667 1.356 . S
H2670 C2664 0.930 . S
H2671 C2668 0.930 . S
C2672 C2674 1.348 . S
C2672 C2675 1.356 . S
C2672 O2702 1.325 . S
N2673 C2676 1.314 . S
N2673 C2677 1.279 . S
C2674 C2672 1.348 . S
C2674 C2676 1.353 . S
C2674 H2716 0.929 . S
C2675 C2672 1.356 . S
C2675 C2677 1.358 . S
C2675 H2717 0.930 . S
C2676 N2673 1.314 . S
C2676 C2674 1.353 . S
C2676 H2718 0.930 . S
C2677 N2673 1.279 . S
C2677 C2675 1.358 . S
C2677 H2719 0.930 . S
C2678 C2679 1.348 1_554 S
C2678 C2680 1.356 . S
C2678 O2703 1.325 . S
C2679 C2678 1.348 1_556 S
C2679 C2681 1.353 . S
C2679 H2720 0.929 . S
C2680 C2678 1.356 . S
C2680 C2682 1.358 . S
C2680 H2721 0.930 . S
C2681 C2679 1.353 . S
C2681 N2683 1.314 1_556 S
C2681 H2722 0.930 . S
C2682 C2680 1.358 . S
C2682 N2683 1.279 . S
C2682 H2723 0.930 . S
N2683 C2681 1.314 1_554 S
N2683 C2682 1.279 . S
C2684 C2686 1.353 . S
C2684 N2687 1.318 . S
C2684 H2690 0.930 . S
C2685 N2687 1.275 1_556 S
C2685 C2688 1.358 . S
C2685 H2691 0.930 . S
C2686 C2684 1.353 . S
C2686 C2689 1.348 1_554 S
C2686 H2724 0.929 . S
N2687 Li2642 1.991 . S
N2687 C2684 1.318 . S
N2687 C2685 1.275 1_554 S
C2688 C2685 1.358 . S
C2688 C2689 1.356 . S
C2688 H2725 0.930 . S
C2689 C2686 1.348 1_556 S
C2689 C2688 1.356 . S
H2690 C2684 0.930 . S
H2691 C2685 0.930 . S
C2692 N2693 1.314 . S
C2692 C2694 1.353 . S
C2692 H2698 0.930 . S
N2693 Li2643 1.990 . S
N2693 C2692 1.314 . S
N2693 C2696 1.279 . S
C2694 C2692 1.353 . S
C2694 C2697 1.348 . S
C2694 H2726 0.929 . S
C2695 C2696 1.358 . S
C2695 C2697 1.356 . S
C2695 H2727 0.930 . S
C2696 N2693 1.279 . S
C2696 C2695 1.358 . S
C2696 H2699 0.930 . S
C2697 C2694 1.348 . S
C2697 C2695 1.356 . S
H2698 C2692 0.930 . S
H2699 C2696 0.930 . S
O2700 Li2640 1.956 . S
O2700 Li2641 1.970 . S
O2700 Li2642 1.961 . S
O2700 C2644 1.325 . S
O2701 Li2640 1.970 . S
O2701 Li2641 1.956 . S
O2701 Li2643 1.961 1_554 S
O2701 C2650 1.325 . S
O2702 Li2640 1.961 1_556 S
O2702 Li2642 1.956 1_556 S
O2702 Li2643 1.970 . S
O2702 C2672 1.325 . S
O2703 Li2641 1.961 . S
O2703 Li2642 1.970 . S
O2703 Li2643 1.956 1_554 S
O2703 C2678 1.325 . S
H2704 C2646 0.929 . S
H2705 C2647 0.930 . S
H2706 C2648 0.930 . S
H2707 C2649 0.930 . S
H2708 C2651 0.930 . S
H2709 C2653 0.929 . S
H2710 C2654 0.930 . S
H2711 C2655 0.930 . S
H2712 C2658 0.930 . S
H2713 C2661 0.929 . S
H2714 C2666 0.929 . S
H2715 C2667 0.930 . S
H2716 C2674 0.929 . S
H2717 C2675 0.930 . S
H2718 C2676 0.930 . S
H2719 C2677 0.930 . S
H2720 C2679 0.929 . S
H2721 C2680 0.930 . S
H2722 C2681 0.930 . S
H2723 C2682 0.930 . S
H2724 C2686 0.929 . S
H2725 C2688 0.930 . S
H2726 C2694 0.929 . S
H2727 C2695 0.930 . S
Li2728 N2745 1.990 . S
Li2728 O2788 1.956 . S
Li2728 O2789 1.970 . S
Li2728 O2790 1.961 . S
Li2729 N2753 1.990 . S
Li2729 O2788 1.970 . S
Li2729 O2789 1.956 . S
Li2729 O2791 1.961 . S
Li2730 N2775 1.990 . S
Li2730 O2788 1.961 . S
Li2730 O2790 1.956 . S
Li2730 O2791 1.970 . S
Li2731 N2781 1.990 . S
Li2731 O2789 1.961 . S
Li2731 O2790 1.970 . S
Li2731 O2791 1.956 . S
C2732 C2734 1.348 . S
C2732 C2735 1.356 . S
C2732 O2788 1.325 . S
N2733 C2736 1.314 . S
N2733 C2737 1.279 . S
C2734 C2732 1.348 . S
C2734 C2736 1.353 . S
C2734 H2792 0.929 . S
C2735 C2732 1.356 . S
C2735 C2737 1.358 . S
C2735 H2793 0.930 . S
C2736 N2733 1.314 . S
C2736 C2734 1.353 . S
C2736 H2794 0.930 . S
C2737 N2733 1.279 . S
C2737 C2735 1.358 . S
C2737 H2795 0.930 . S
C2738 C2741 1.348 . S
C2738 C2742 1.356 . S
C2738 O2789 1.325 . S
C2739 N2740 1.279 . S
C2739 C2742 1.358 . S
C2739 H2796 0.930 . S
N2740 C2739 1.279 . S
N2740 C2743 1.314 . S
C2741 C2738 1.348 . S
C2741 C2743 1.353 . S
C2741 H2797 0.929 . S
C2742 C2738 1.356 . S
C2742 C2739 1.358 . S
C2742 H2798 0.930 . S
C2743 N2740 1.314 . S
C2743 C2741 1.353 . S
C2743 H2799 0.930 . S
C2744 N2745 1.314 . S
C2744 C2749 1.353 . S
C2744 H2750 0.930 . S
N2745 Li2728 1.990 . S
N2745 C2744 1.314 . S
N2745 C2747 1.279 . S
C2746 C2747 1.358 . S
C2746 C2748 1.356 . S
C2746 H2800 0.930 . S
C2747 N2745 1.279 . S
C2747 C2746 1.358 . S
C2747 H2751 0.930 . S
C2748 C2746 1.356 . S
C2748 C2749 1.348 . S
C2749 C2744 1.353 . S
C2749 C2748 1.348 . S
C2749 H2801 0.929 . S
H2750 C2744 0.930 . S
H2751 C2747 0.930 . S
C2752 N2753 1.314 . S
C2752 C2754 1.353 . S
C2752 H2758 0.930 . S
N2753 Li2729 1.990 . S
N2753 C2752 1.314 . S
N2753 C2756 1.279 . S
C2754 C2752 1.353 . S
C2754 C2757 1.348 . S
C2754 H2802 0.929 . S
C2755 C2756 1.358 . S
C2755 C2757 1.356 . S
C2755 H2803 0.930 . S
C2756 N2753 1.279 . S
C2756 C2755 1.358 . S
C2756 H2759 0.930 . S
C2757 C2754 1.348 . S
C2757 C2755 1.356 . S
H2758 C2752 0.930 . S
H2759 C2756 0.930 . S
C2760 C2762 1.348 . S
C2760 C2763 1.356 . S
C2760 O2790 1.325 . S
N2761 C2764 1.314 . S
N2761 C2765 1.279 . S
C2762 C2760 1.348 . S
C2762 C2764 1.353 . S
C2762 H2804 0.929 . S
C2763 C2760 1.356 . S
C2763 C2765 1.358 . S
C2763 H2805 0.930 . S
C2764 N2761 1.314 . S
C2764 C2762 1.353 . S
C2764 H2806 0.930 . S
C2765 N2761 1.279 . S
C2765 C2763 1.358 . S
C2765 H2807 0.930 . S
C2766 C2767 1.348 . S
C2766 C2768 1.356 . S
C2766 O2791 1.325 . S
C2767 C2766 1.348 . S
C2767 C2769 1.353 . S
C2767 H2808 0.929 . S
C2768 C2766 1.356 . S
C2768 C2770 1.358 . S
C2768 H2809 0.930 . S
C2769 C2767 1.353 . S
C2769 N2771 1.314 . S
C2769 H2810 0.930 . S
C2770 C2768 1.358 . S
C2770 N2771 1.279 . S
C2770 H2811 0.930 . S
N2771 C2769 1.314 . S
N2771 C2770 1.279 . S
C2772 C2774 1.353 . S
C2772 N2775 1.314 . S
C2772 H2778 0.930 . S
C2773 N2775 1.279 . S
C2773 C2776 1.358 . S
C2773 H2779 0.930 . S
C2774 C2772 1.353 . S
C2774 C2777 1.348 . S
C2774 H2812 0.929 . S
N2775 Li2730 1.990 . S
N2775 C2772 1.314 . S
N2775 C2773 1.279 . S
C2776 C2773 1.358 . S
C2776 C2777 1.356 . S
C2776 H2813 0.930 . S
C2777 C2774 1.348 . S
C2777 C2776 1.356 . S
H2778 C2772 0.930 . S
H2779 C2773 0.930 . S
C2780 N2781 1.314 . S
C2780 C2782 1.353 . S
C2780 H2786 0.930 . S
N2781 Li2731 1.990 . S
N2781 C2780 1.314 . S
N2781 C2784 1.279 . S
C2782 C2780 1.353 . S
C2782 C2785 1.348 . S
C2782 H2814 0.929 . S
C2783 C2784 1.358 . S
C2783 C2785 1.356 . S
C2783 H2815 0.930 . S
C2784 N2781 1.279 . S
C2784 C2783 1.358 . S
C2784 H2787 0.930 . S
C2785 C2782 1.348 . S
C2785 C2783 1.356 . S
H2786 C2780 0.930 . S
H2787 C2784 0.930 . S
O2788 Li2728 1.956 . S
O2788 Li2729 1.970 . S
O2788 Li2730 1.961 . S
O2788 C2732 1.325 . S
O2789 Li2728 1.970 . S
O2789 Li2729 1.956 . S
O2789 Li2731 1.961 . S
O2789 C2738 1.325 . S
O2790 Li2728 1.961 . S
O2790 Li2730 1.956 . S
O2790 Li2731 1.970 . S
O2790 C2760 1.325 . S
O2791 Li2729 1.961 . S
O2791 Li2730 1.970 . S
O2791 Li2731 1.956 . S
O2791 C2766 1.325 . S
H2792 C2734 0.929 . S
H2793 C2735 0.930 . S
H2794 C2736 0.930 . S
H2795 C2737 0.930 . S
H2796 C2739 0.930 . S
H2797 C2741 0.929 . S
H2798 C2742 0.930 . S
H2799 C2743 0.930 . S
H2800 C2746 0.930 . S
H2801 C2749 0.929 . S
H2802 C2754 0.929 . S
H2803 C2755 0.930 . S
H2804 C2762 0.929 . S
H2805 C2763 0.930 . S
H2806 C2764 0.930 . S
H2807 C2765 0.930 . S
H2808 C2767 0.929 . S
H2809 C2768 0.930 . S
H2810 C2769 0.930 . S
H2811 C2770 0.930 . S
H2812 C2774 0.929 . S
H2813 C2776 0.930 . S
H2814 C2782 0.929 . S
H2815 C2783 0.930 . S
H2816 C2822 0.930 . S
H2817 C2825 0.930 . S
H2818 C2826 0.930 . S
H2819 C2827 0.930 . S
H2820 C2830 0.930 . S
H2821 C2831 0.930 . S
C2822 H2816 0.930 . S
C2822 C2823 1.355 . S
C2822 C2824 1.415 . S
C2823 C2822 1.355 . S
C2823 C2825 1.419 . S
C2824 C2822 1.415 . S
C2824 C2829 1.425 . S
C2824 C2831 1.409 . S
C2825 H2817 0.930 . S
C2825 C2823 1.419 . S
C2825 C2826 1.362 . S
C2826 H2818 0.930 . S
C2826 C2825 1.362 . S
C2826 C2829 1.409 . S
C2827 H2819 0.930 . S
C2827 C2828 1.355 . S
C2827 C2829 1.415 . S
C2828 C2827 1.355 . S
C2828 C2830 1.419 . S
C2829 C2824 1.425 . S
C2829 C2826 1.409 . S
C2829 C2827 1.415 . S
C2830 H2820 0.930 . S
C2830 C2828 1.419 . S
C2830 C2831 1.362 . S
C2831 H2821 0.930 . S
C2831 C2824 1.409 . S
C2831 C2830 1.362 . S
H2832 C2838 0.930 . S
H2833 C2841 0.930 . S
H2834 C2842 0.930 . S
H2835 C2843 0.930 . S
H2836 C2846 0.930 . S
H2837 C2847 0.930 . S
C2838 H2832 0.930 . S
C2838 C2839 1.355 . S
C2838 C2840 1.415 . S
C2839 C2838 1.355 . S
C2839 C2841 1.419 . S
C2840 C2838 1.415 . S
C2840 C2845 1.425 . S
C2840 C2847 1.409 . S
C2841 H2833 0.930 . S
C2841 C2839 1.419 . S
C2841 C2842 1.362 . S
C2842 H2834 0.930 . S
C2842 C2841 1.362 . S
C2842 C2845 1.409 . S
C2843 H2835 0.930 . S
C2843 C2844 1.355 . S
C2843 C2845 1.415 . S
C2844 C2843 1.355 . S
C2844 C2846 1.419 . S
C2845 C2840 1.425 . S
C2845 C2842 1.409 . S
C2845 C2843 1.415 . S
C2846 H2836 0.930 . S
C2846 C2844 1.419 . S
C2846 C2847 1.362 . S
C2847 H2837 0.930 . S
C2847 C2840 1.409 . S
C2847 C2846 1.362 . S
H2848 C2854 0.930 . S
H2849 C2857 0.930 . S
H2850 C2858 0.930 . S
H2851 C2859 0.930 . S
H2852 C2862 0.930 . S
H2853 C2863 0.930 . S
C2854 H2848 0.930 . S
C2854 C2855 1.355 . S
C2854 C2856 1.415 . S
C2855 C2854 1.355 . S
C2855 C2857 1.419 . S
C2856 C2854 1.415 . S
C2856 C2861 1.425 . S
C2856 C2863 1.409 . S
C2857 H2849 0.930 . S
C2857 C2855 1.419 . S
C2857 C2858 1.362 . S
C2858 H2850 0.930 . S
C2858 C2857 1.362 . S
C2858 C2861 1.409 . S
C2859 H2851 0.930 . S
C2859 C2860 1.355 . S
C2859 C2861 1.415 . S
C2860 C2859 1.355 . S
C2860 C2862 1.419 . S
C2861 C2856 1.425 . S
C2861 C2858 1.409 . S
C2861 C2859 1.415 . S
C2862 H2852 0.930 . S
C2862 C2860 1.419 . S
C2862 C2863 1.362 . S
C2863 H2853 0.930 . S
C2863 C2856 1.409 . S
C2863 C2862 1.362 . S
H2864 C2870 0.930 . S
H2865 C2873 0.930 . S
H2866 C2874 0.930 . S
H2867 C2875 0.930 . S
H2868 C2878 0.930 . S
H2869 C2879 0.930 . S
C2870 H2864 0.930 . S
C2870 C2871 1.355 . S
C2870 C2872 1.415 . S
C2871 C2870 1.355 . S
C2871 C2873 1.419 . S
C2872 C2870 1.415 . S
C2872 C2877 1.425 . S
C2872 C2879 1.409 . S
C2873 H2865 0.930 . S
C2873 C2871 1.419 . S
C2873 C2874 1.362 . S
C2874 H2866 0.930 . S
C2874 C2873 1.362 . S
C2874 C2877 1.409 . S
C2875 H2867 0.930 . S
C2875 C2876 1.355 . S
C2875 C2877 1.415 . S
C2876 C2875 1.355 . S
C2876 C2878 1.419 . S
C2877 C2872 1.425 . S
C2877 C2874 1.409 . S
C2877 C2875 1.415 . S
C2878 H2868 0.930 . S
C2878 C2876 1.419 . S
C2878 C2879 1.362 . S
C2879 H2869 0.930 . S
C2879 C2872 1.409 . S
C2879 C2878 1.362 . S
H2880 C2886 0.930 . S
H2881 C2889 0.930 . S
H2882 C2890 0.930 . S
H2883 C2891 0.930 . S
H2884 C2894 0.930 . S
H2885 C2895 0.930 . S
C2886 H2880 0.930 . S
C2886 C2887 1.355 . S
C2886 C2888 1.415 . S
C2887 C2886 1.355 . S
C2887 C2889 1.419 . S
C2888 C2886 1.415 . S
C2888 C2893 1.425 . S
C2888 C2895 1.409 . S
C2889 H2881 0.930 . S
C2889 C2887 1.419 . S
C2889 C2890 1.362 . S
C2890 H2882 0.930 . S
C2890 C2889 1.362 . S
C2890 C2893 1.409 . S
C2891 H2883 0.930 . S
C2891 C2892 1.355 . S
C2891 C2893 1.415 . S
C2892 C2891 1.355 . S
C2892 C2894 1.419 . S
C2893 C2888 1.425 . S
C2893 C2890 1.409 . S
C2893 C2891 1.415 . S
C2894 H2884 0.930 . S
C2894 C2892 1.419 . S
C2894 C2895 1.362 . S
C2895 H2885 0.930 . S
C2895 C2888 1.409 . S
C2895 C2894 1.362 . S
H2896 C2902 0.930 . S
H2897 C2905 0.930 . S
H2898 C2906 0.930 . S
H2899 C2907 0.930 . S
H2900 C2910 0.930 . S
H2901 C2911 0.930 . S
C2902 H2896 0.930 . S
C2902 C2903 1.355 . S
C2902 C2904 1.415 . S
C2903 C2902 1.355 . S
C2903 C2905 1.419 . S
C2904 C2902 1.415 . S
C2904 C2909 1.425 . S
C2904 C2911 1.409 . S
C2905 H2897 0.930 . S
C2905 C2903 1.419 . S
C2905 C2906 1.362 . S
C2906 H2898 0.930 . S
C2906 C2905 1.362 . S
C2906 C2909 1.409 . S
C2907 H2899 0.930 . S
C2907 C2908 1.355 . S
C2907 C2909 1.415 . S
C2908 C2907 1.355 . S
C2908 C2910 1.419 . S
C2909 C2904 1.425 . S
C2909 C2906 1.409 . S
C2909 C2907 1.415 . S
C2910 H2900 0.930 . S
C2910 C2908 1.419 . S
C2910 C2911 1.362 . S
C2911 H2901 0.930 . S
C2911 C2904 1.409 . S
C2911 C2910 1.362 . S
H2912 C2918 0.930 . S
H2913 C2921 0.930 . S
H2914 C2922 0.930 . S
H2915 C2923 0.930 . S
H2916 C2926 0.930 . S
H2917 C2927 0.930 . S
C2918 H2912 0.930 . S
C2918 C2919 1.355 . S
C2918 C2920 1.415 . S
C2919 C2918 1.355 . S
C2919 C2921 1.419 . S
C2920 C2918 1.415 . S
C2920 C2925 1.425 . S
C2920 C2927 1.409 . S
C2921 H2913 0.930 . S
C2921 C2919 1.419 . S
C2921 C2922 1.362 . S
C2922 H2914 0.930 . S
C2922 C2921 1.362 . S
C2922 C2925 1.409 . S
C2923 H2915 0.930 . S
C2923 C2924 1.355 . S
C2923 C2925 1.415 . S
C2924 C2923 1.355 . S
C2924 C2926 1.419 . S
C2925 C2920 1.425 . S
C2925 C2922 1.409 . S
C2925 C2923 1.415 . S
C2926 H2916 0.930 . S
C2926 C2924 1.419 . S
C2926 C2927 1.362 . S
C2927 H2917 0.930 . S
C2927 C2920 1.409 . S
C2927 C2926 1.362 . S
H2928 C2934 0.930 . S
H2929 C2937 0.930 . S
H2930 C2938 0.930 . S
H2931 C2939 0.930 . S
H2932 C2942 0.930 . S
H2933 C2943 0.930 . S
C2934 H2928 0.930 . S
C2934 C2935 1.355 . S
C2934 C2936 1.415 . S
C2935 C2934 1.355 . S
C2935 C2937 1.419 . S
C2936 C2934 1.415 . S
C2936 C2941 1.425 . S
C2936 C2943 1.409 . S
C2937 H2929 0.930 . S
C2937 C2935 1.419 . S
C2937 C2938 1.362 . S
C2938 H2930 0.930 . S
C2938 C2937 1.362 . S
C2938 C2941 1.409 . S
C2939 H2931 0.930 . S
C2939 C2940 1.355 . S
C2939 C2941 1.415 . S
C2940 C2939 1.355 . S
C2940 C2942 1.419 . S
C2941 C2936 1.425 . S
C2941 C2938 1.409 . S
C2941 C2939 1.415 . S
C2942 H2932 0.930 . S
C2942 C2940 1.419 . S
C2942 C2943 1.362 . S
C2943 H2933 0.930 . S
C2943 C2936 1.409 . S
C2943 C2942 1.362 . S
H2944 C2950 0.930 . S
H2945 C2953 0.930 . S
H2946 C2954 0.930 . S
H2947 C2955 0.930 . S
H2948 C2958 0.930 . S
H2949 C2959 0.930 . S
C2950 H2944 0.930 . S
C2950 C2951 1.355 . S
C2950 C2952 1.415 . S
C2951 C2950 1.355 . S
C2951 C2953 1.419 . S
C2952 C2950 1.415 . S
C2952 C2957 1.425 . S
C2952 C2959 1.409 . S
C2953 H2945 0.930 . S
C2953 C2951 1.419 . S
C2953 C2954 1.362 . S
C2954 H2946 0.930 . S
C2954 C2953 1.362 . S
C2954 C2957 1.409 . S
C2955 H2947 0.930 . S
C2955 C2956 1.355 . S
C2955 C2957 1.415 . S
C2956 C2955 1.355 . S
C2956 C2958 1.419 . S
C2957 C2952 1.425 . S
C2957 C2954 1.409 . S
C2957 C2955 1.415 . S
C2958 H2948 0.930 . S
C2958 C2956 1.419 . S
C2958 C2959 1.362 . S
C2959 H2949 0.930 . S
C2959 C2952 1.409 . S
C2959 C2958 1.362 . S
H2960 C2966 0.930 . S
H2961 C2969 0.930 . S
H2962 C2970 0.930 . S
H2963 C2971 0.930 . S
H2964 C2974 0.930 . S
H2965 C2975 0.930 . S
C2966 H2960 0.930 . S
C2966 C2967 1.355 . S
C2966 C2968 1.415 . S
C2967 C2966 1.355 . S
C2967 C2969 1.419 . S
C2968 C2966 1.415 . S
C2968 C2973 1.425 . S
C2968 C2975 1.409 . S
C2969 H2961 0.930 . S
C2969 C2967 1.419 . S
C2969 C2970 1.362 . S
C2970 H2962 0.930 . S
C2970 C2969 1.362 . S
C2970 C2973 1.409 . S
C2971 H2963 0.930 . S
C2971 C2972 1.355 . S
C2971 C2973 1.415 . S
C2972 C2971 1.355 . S
C2972 C2974 1.419 . S
C2973 C2968 1.425 . S
C2973 C2970 1.409 . S
C2973 C2971 1.415 . S
C2974 H2964 0.930 . S
C2974 C2972 1.419 . S
C2974 C2975 1.362 . S
C2975 H2965 0.930 . S
C2975 C2968 1.409 . S
C2975 C2974 1.362 . S
H2976 C2982 0.930 . S
H2977 C2985 0.930 . S
H2978 C2986 0.930 . S
H2979 C2987 0.930 . S
H2980 C2990 0.930 . S
H2981 C2991 0.930 . S
C2982 H2976 0.930 . S
C2982 C2983 1.355 . S
C2982 C2984 1.415 . S
C2983 C2982 1.355 . S
C2983 C2985 1.419 . S
C2984 C2982 1.415 . S
C2984 C2989 1.425 . S
C2984 C2991 1.409 . S
C2985 H2977 0.930 . S
C2985 C2983 1.419 . S
C2985 C2986 1.362 . S
C2986 H2978 0.930 . S
C2986 C2985 1.362 . S
C2986 C2989 1.409 . S
C2987 H2979 0.930 . S
C2987 C2988 1.355 . S
C2987 C2989 1.415 . S
C2988 C2987 1.355 . S
C2988 C2990 1.419 . S
C2989 C2984 1.425 . S
C2989 C2986 1.409 . S
C2989 C2987 1.415 . S
C2990 H2980 0.930 . S
C2990 C2988 1.419 . S
C2990 C2991 1.362 . S
C2991 H2981 0.930 . S
C2991 C2984 1.409 . S
C2991 C2990 1.362 . S
H2992 C2998 0.930 . S
H2993 C3001 0.930 . S
H2994 C3002 0.930 . S
H2995 C3003 0.930 . S
H2996 C3006 0.930 . S
H2997 C3007 0.930 . S
C2998 H2992 0.930 . S
C2998 C2999 1.355 . S
C2998 C3000 1.415 . S
C2999 C2998 1.355 . S
C2999 C3001 1.419 . S
C3000 C2998 1.415 . S
C3000 C3005 1.425 . S
C3000 C3007 1.409 . S
C3001 H2993 0.930 . S
C3001 C2999 1.419 . S
C3001 C3002 1.362 . S
C3002 H2994 0.930 . S
C3002 C3001 1.362 . S
C3002 C3005 1.409 . S
C3003 H2995 0.930 . S
C3003 C3004 1.355 . S
C3003 C3005 1.415 . S
C3004 C3003 1.355 . S
C3004 C3006 1.419 . S
C3005 C3000 1.425 . S
C3005 C3002 1.409 . S
C3005 C3003 1.415 . S
C3006 H2996 0.930 . S
C3006 C3004 1.419 . S
C3006 C3007 1.362 . S
C3007 H2997 0.930 . S
C3007 C3000 1.409 . S
C3007 C3006 1.362 . S
H3008 C3014 0.930 . S
H3009 C3017 0.930 . S
H3010 C3018 0.930 . S
H3011 C3019 0.930 . S
H3012 C3022 0.930 . S
H3013 C3023 0.930 . S
C3014 H3008 0.930 . S
C3014 C3015 1.355 . S
C3014 C3016 1.415 . S
C3015 C3014 1.355 . S
C3015 C3017 1.419 . S
C3016 C3014 1.415 . S
C3016 C3021 1.425 . S
C3016 C3023 1.409 . S
C3017 H3009 0.930 . S
C3017 C3015 1.419 . S
C3017 C3018 1.362 . S
C3018 H3010 0.930 . S
C3018 C3017 1.362 . S
C3018 C3021 1.409 . S
C3019 H3011 0.930 . S
C3019 C3020 1.355 . S
C3019 C3021 1.415 . S
C3020 C3019 1.355 . S
C3020 C3022 1.419 . S
C3021 C3016 1.425 . S
C3021 C3018 1.409 . S
C3021 C3019 1.415 . S
C3022 H3012 0.930 . S
C3022 C3020 1.419 . S
C3022 C3023 1.362 . S
C3023 H3013 0.930 . S
C3023 C3016 1.409 . S
C3023 C3022 1.362 . S
H3024 C3030 0.930 . S
H3025 C3033 0.930 . S
H3026 C3034 0.930 . S
H3027 C3035 0.930 . S
H3028 C3038 0.930 . S
H3029 C3039 0.930 . S
C3030 H3024 0.930 . S
C3030 C3031 1.355 . S
C3030 C3032 1.415 . S
C3031 C3030 1.355 . S
C3031 C3033 1.419 . S
C3032 C3030 1.415 . S
C3032 C3037 1.425 . S
C3032 C3039 1.409 . S
C3033 H3025 0.930 . S
C3033 C3031 1.419 . S
C3033 C3034 1.362 . S
C3034 H3026 0.930 . S
C3034 C3033 1.362 . S
C3034 C3037 1.409 . S
C3035 H3027 0.930 . S
C3035 C3036 1.355 . S
C3035 C3037 1.415 . S
C3036 C3035 1.355 . S
C3036 C3038 1.419 . S
C3037 C3032 1.425 . S
C3037 C3034 1.409 . S
C3037 C3035 1.415 . S
C3038 H3028 0.930 . S
C3038 C3036 1.419 . S
C3038 C3039 1.362 . S
C3039 H3029 0.930 . S
C3039 C3032 1.409 . S
C3039 C3038 1.362 . S
H3040 C3046 0.930 . S
H3041 C3049 0.930 . S
H3042 C3050 0.930 . S
H3043 C3051 0.930 . S
H3044 C3054 0.930 . S
H3045 C3055 0.930 . S
C3046 H3040 0.930 . S
C3046 C3047 1.355 . S
C3046 C3048 1.415 . S
C3047 C3046 1.355 . S
C3047 C3049 1.419 . S
C3048 C3046 1.415 . S
C3048 C3053 1.425 . S
C3048 C3055 1.409 . S
C3049 H3041 0.930 . S
C3049 C3047 1.419 . S
C3049 C3050 1.362 . S
C3050 H3042 0.930 . S
C3050 C3049 1.362 . S
C3050 C3053 1.409 . S
C3051 H3043 0.930 . S
C3051 C3052 1.355 . S
C3051 C3053 1.415 . S
C3052 C3051 1.355 . S
C3052 C3054 1.419 . S
C3053 C3048 1.425 . S
C3053 C3050 1.409 . S
C3053 C3051 1.415 . S
C3054 H3044 0.930 . S
C3054 C3052 1.419 . S
C3054 C3055 1.362 . S
C3055 H3045 0.930 . S
C3055 C3048 1.409 . S
C3055 C3054 1.362 . S
H3056 C3062 0.930 . S
H3057 C3065 0.930 . S
H3058 C3066 0.930 . S
H3059 C3067 0.930 . S
H3060 C3070 0.930 . S
H3061 C3071 0.930 . S
C3062 H3056 0.930 . S
C3062 C3063 1.355 . S
C3062 C3064 1.415 . S
C3063 C3062 1.355 . S
C3063 C3065 1.419 . S
C3064 C3062 1.415 . S
C3064 C3069 1.425 . S
C3064 C3071 1.409 . S
C3065 H3057 0.930 . S
C3065 C3063 1.419 . S
C3065 C3066 1.362 . S
C3066 H3058 0.930 . S
C3066 C3065 1.362 . S
C3066 C3069 1.409 . S
C3067 H3059 0.930 . S
C3067 C3068 1.355 . S
C3067 C3069 1.415 . S
C3068 C3067 1.355 . S
C3068 C3070 1.419 . S
C3069 C3064 1.425 . S
C3069 C3066 1.409 . S
C3069 C3067 1.415 . S
C3070 H3060 0.930 . S
C3070 C3068 1.419 . S
C3070 C3071 1.362 . S
C3071 H3061 0.930 . S
C3071 C3064 1.409 . S
C3071 C3070 1.362 . S
H3072 C3078 0.930 . S
H3073 C3081 0.930 . S
H3074 C3082 0.930 . S
H3075 C3083 0.930 . S
H3076 C3086 0.930 . S
H3077 C3087 0.930 . S
C3078 H3072 0.930 . S
C3078 C3079 1.355 . S
C3078 C3080 1.415 . S
C3079 C3078 1.355 . S
C3079 C3081 1.419 . S
C3080 C3078 1.415 . S
C3080 C3085 1.425 . S
C3080 C3087 1.409 . S
C3081 H3073 0.930 . S
C3081 C3079 1.419 . S
C3081 C3082 1.362 . S
C3082 H3074 0.930 . S
C3082 C3081 1.362 . S
C3082 C3085 1.409 . S
C3083 H3075 0.930 . S
C3083 C3084 1.355 . S
C3083 C3085 1.415 . S
C3084 C3083 1.355 . S
C3084 C3086 1.419 . S
C3085 C3080 1.425 . S
C3085 C3082 1.409 . S
C3085 C3083 1.415 . S
C3086 H3076 0.930 . S
C3086 C3084 1.419 . S
C3086 C3087 1.362 . S
C3087 H3077 0.930 . S
C3087 C3080 1.409 . S
C3087 C3086 1.362 . S
H3088 C3094 0.930 . S
H3089 C3097 0.913 1_545 S
H3090 C3098 0.930 . S
H3091 C3099 0.930 . S
H3092 C3102 0.913 1_565 S
H3093 C3103 0.930 . S
C3094 H3088 0.930 . S
C3094 C3095 1.355 . S
C3094 C3096 1.415 . S
C3095 C3094 1.355 . S
C3095 C3097 1.480 . S
C3096 C3094 1.415 . S
C3096 C3101 1.425 1_565 S
C3096 C3103 1.409 1_554 S
C3097 H3089 0.913 1_565 S
C3097 C3095 1.480 . S
C3097 C3098 1.315 1_565 S
C3098 H3090 0.930 . S
C3098 C3097 1.315 1_545 S
C3098 C3101 1.409 . S
C3099 H3091 0.930 . S
C3099 C3100 1.355 1_554 S
C3099 C3101 1.415 . S
C3100 C3099 1.355 1_556 S
C3100 C3102 1.479 . S
C3101 C3096 1.425 1_545 S
C3101 C3098 1.409 . S
C3101 C3099 1.415 . S
C3102 H3092 0.913 1_545 S
C3102 C3100 1.479 . S
C3102 C3103 1.316 1_545 S
C3103 H3093 0.930 . S
C3103 C3096 1.409 1_556 S
C3103 C3102 1.316 1_565 S
H3104 C3110 0.930 . S
H3105 C3113 0.930 . S
H3106 C3114 0.930 . S
H3107 C3115 0.930 . S
H3108 C3118 0.930 . S
H3109 C3119 0.930 . S
C3110 H3104 0.930 . S
C3110 C3111 1.355 . S
C3110 C3112 1.415 . S
C3111 C3110 1.355 . S
C3111 C3113 1.419 . S
C3112 C3110 1.415 . S
C3112 C3117 1.425 . S
C3112 C3119 1.409 . S
C3113 H3105 0.930 . S
C3113 C3111 1.419 . S
C3113 C3114 1.362 . S
C3114 H3106 0.930 . S
C3114 C3113 1.362 . S
C3114 C3117 1.409 . S
C3115 H3107 0.930 . S
C3115 C3116 1.355 . S
C3115 C3117 1.415 . S
C3116 C3115 1.355 . S
C3116 C3118 1.419 . S
C3117 C3112 1.425 . S
C3117 C3114 1.409 . S
C3117 C3115 1.415 . S
C3118 H3108 0.930 . S
C3118 C3116 1.419 . S
C3118 C3119 1.362 . S
C3119 H3109 0.930 . S
C3119 C3112 1.409 . S
C3119 C3118 1.362 . S
H3120 C3126 0.930 . S
H3121 C3129 0.924 1_565 S
H3122 C3130 0.930 . S
H3123 C3131 0.930 . S
H3124 C3134 0.924 1_545 S
H3125 C3135 0.930 . S
C3126 H3120 0.930 . S
C3126 C3127 1.355 . S
C3126 C3128 1.415 . S
C3127 C3126 1.355 . S
C3127 C3129 1.419 . S
C3128 C3126 1.415 . S
C3128 C3133 1.425 1_545 S
C3128 C3135 1.409 . S
C3129 H3121 0.924 1_545 S
C3129 C3127 1.419 . S
C3129 C3130 1.362 1_545 S
C3130 H3122 0.930 . S
C3130 C3129 1.362 1_565 S
C3130 C3133 1.409 . S
C3131 H3123 0.930 . S
C3131 C3132 1.355 . S
C3131 C3133 1.415 . S
C3132 C3131 1.355 . S
C3132 C3134 1.419 . S
C3133 C3128 1.425 1_565 S
C3133 C3130 1.409 . S
C3133 C3131 1.415 . S
C3134 H3124 0.924 1_565 S
C3134 C3132 1.419 . S
C3134 C3135 1.362 1_565 S
C3135 H3125 0.930 . S
C3135 C3128 1.409 . S
C3135 C3134 1.362 1_545 S
H3136 C3142 0.930 . S
H3137 C3145 0.930 . S
H3138 C3146 0.930 . S
H3139 C3147 0.930 . S
H3140 C3150 0.930 . S
H3141 C3151 0.930 . S
C3142 H3136 0.930 . S
C3142 C3143 1.355 . S
C3142 C3144 1.415 . S
C3143 C3142 1.355 . S
C3143 C3145 1.419 . S
C3144 C3142 1.415 . S
C3144 C3149 1.425 . S
C3144 C3151 1.409 . S
C3145 H3137 0.930 . S
C3145 C3143 1.419 . S
C3145 C3146 1.362 . S
C3146 H3138 0.930 . S
C3146 C3145 1.362 . S
C3146 C3149 1.409 . S
C3147 H3139 0.930 . S
C3147 C3148 1.355 . S
C3147 C3149 1.415 . S
C3148 C3147 1.355 . S
C3148 C3150 1.419 . S
C3149 C3144 1.425 . S
C3149 C3146 1.409 . S
C3149 C3147 1.415 . S
C3150 H3140 0.930 . S
C3150 C3148 1.419 . S
C3150 C3151 1.362 . S
C3151 H3141 0.930 . S
C3151 C3144 1.409 . S
C3151 C3150 1.362 . S
H3152 C3158 0.930 . S
H3153 C3161 0.930 . S
H3154 C3162 0.954 . S
H3155 C3163 0.930 . S
H3156 C3166 0.930 . S
H3157 C3167 0.954 . S
C3158 H3152 0.930 . S
C3158 C3159 1.355 . S
C3158 C3160 1.415 1_556 S
C3159 C3158 1.355 . S
C3159 C3161 1.419 . S
C3160 C3158 1.415 1_554 S
C3160 C3165 1.425 1_545 S
C3160 C3167 1.409 1_545 S
C3161 H3153 0.930 . S
C3161 C3159 1.419 . S
C3161 C3162 1.362 1_556 S
C3162 H3154 0.954 . S
C3162 C3161 1.362 1_554 S
C3162 C3165 1.409 1_545 S
C3163 H3155 0.930 . S
C3163 C3164 1.355 . S
C3163 C3165 1.415 . S
C3164 C3163 1.355 . S
C3164 C3166 1.419 . S
C3165 C3160 1.425 1_565 S
C3165 C3162 1.409 1_565 S
C3165 C3163 1.415 . S
C3166 H3156 0.930 . S
C3166 C3164 1.419 . S
C3166 C3167 1.362 . S
C3167 H3157 0.954 . S
C3167 C3160 1.409 1_565 S
C3167 C3166 1.362 . S
H3168 C3174 0.930 . S
H3169 C3177 0.930 . S
H3170 C3178 0.930 . S
H3171 C3179 0.930 . S
H3172 C3182 0.930 . S
H3173 C3183 0.930 . S
C3174 H3168 0.930 . S
C3174 C3175 1.355 . S
C3174 C3176 1.415 . S
C3175 C3174 1.355 . S
C3175 C3177 1.419 . S
C3176 C3174 1.415 . S
C3176 C3181 1.425 . S
C3176 C3183 1.409 . S
C3177 H3169 0.930 . S
C3177 C3175 1.419 . S
C3177 C3178 1.362 . S
C3178 H3170 0.930 . S
C3178 C3177 1.362 . S
C3178 C3181 1.409 . S
C3179 H3171 0.930 . S
C3179 C3180 1.355 . S
C3179 C3181 1.415 . S
C3180 C3179 1.355 . S
C3180 C3182 1.419 . S
C3181 C3176 1.425 . S
C3181 C3178 1.409 . S
C3181 C3179 1.415 . S
C3182 H3172 0.930 . S
C3182 C3180 1.419 . S
C3182 C3183 1.362 . S
C3183 H3173 0.930 . S
C3183 C3176 1.409 . S
C3183 C3182 1.362 . S
H3184 C3190 0.930 . S
H3185 C3193 0.930 . S
H3186 C3194 0.930 . S
H3187 C3195 0.930 . S
H3188 C3198 0.930 . S
H3189 C3199 0.930 . S
C3190 H3184 0.930 . S
C3190 C3191 1.355 . S
C3190 C3192 1.415 . S
C3191 C3190 1.355 . S
C3191 C3193 1.419 . S
C3192 C3190 1.415 . S
C3192 C3197 1.425 1_545 S
C3192 C3199 1.409 . S
C3193 H3185 0.930 . S
C3193 C3191 1.419 . S
C3193 C3194 1.362 1_545 S
C3194 H3186 0.930 . S
C3194 C3193 1.362 1_565 S
C3194 C3197 1.409 . S
C3195 H3187 0.930 . S
C3195 C3196 1.355 . S
C3195 C3197 1.415 . S
C3196 C3195 1.355 . S
C3196 C3198 1.419 . S
C3197 C3192 1.425 1_565 S
C3197 C3194 1.409 . S
C3197 C3195 1.415 . S
C3198 H3188 0.930 . S
C3198 C3196 1.419 . S
C3198 C3199 1.362 1_565 S
C3199 H3189 0.930 . S
C3199 C3192 1.409 . S
C3199 C3198 1.362 1_545 S
H3200 C3206 0.930 . S
H3201 C3209 0.930 . S
H3202 C3210 0.930 . S
H3203 C3211 0.930 . S
H3204 C3214 0.930 . S
H3205 C3215 0.930 . S
C3206 H3200 0.930 . S
C3206 C3207 1.355 . S
C3206 C3208 1.415 . S
C3207 C3206 1.355 . S
C3207 C3209 1.419 . S
C3208 C3206 1.415 . S
C3208 C3213 1.425 . S
C3208 C3215 1.409 . S
C3209 H3201 0.930 . S
C3209 C3207 1.419 . S
C3209 C3210 1.362 . S
C3210 H3202 0.930 . S
C3210 C3209 1.362 . S
C3210 C3213 1.409 . S
C3211 H3203 0.930 . S
C3211 C3212 1.355 . S
C3211 C3213 1.415 . S
C3212 C3211 1.355 . S
C3212 C3214 1.419 . S
C3213 C3208 1.425 . S
C3213 C3210 1.409 . S
C3213 C3211 1.415 . S
C3214 H3204 0.930 . S
C3214 C3212 1.419 . S
C3214 C3215 1.362 . S
C3215 H3205 0.930 . S
C3215 C3208 1.409 . S
C3215 C3214 1.362 . S
H3216 C3222 0.930 . S
H3217 C3225 0.930 . S
H3218 C3226 0.930 . S
H3219 C3227 0.930 . S
H3220 C3230 0.930 . S
H3221 C3231 0.930 . S
C3222 H3216 0.930 . S
C3222 C3223 1.355 . S
C3222 C3224 1.415 . S
C3223 C3222 1.355 . S
C3223 C3225 1.419 . S
C3224 C3222 1.415 . S
C3224 C3229 1.425 . S
C3224 C3231 1.409 . S
C3225 H3217 0.930 . S
C3225 C3223 1.419 . S
C3225 C3226 1.362 . S
C3226 H3218 0.930 . S
C3226 C3225 1.362 . S
C3226 C3229 1.409 . S
C3227 H3219 0.930 . S
C3227 C3228 1.355 . S
C3227 C3229 1.415 . S
C3228 C3227 1.355 . S
C3228 C3230 1.419 . S
C3229 C3224 1.425 . S
C3229 C3226 1.409 . S
C3229 C3227 1.415 . S
C3230 H3220 0.930 . S
C3230 C3228 1.419 . S
C3230 C3231 1.362 . S
C3231 H3221 0.930 . S
C3231 C3224 1.409 . S
C3231 C3230 1.362 . S
H3232 C3238 0.930 . S
H3233 C3241 0.930 . S
H3234 C3242 0.930 . S
H3235 C3243 0.930 . S
H3236 C3246 0.930 . S
H3237 C3247 0.930 . S
C3238 H3232 0.930 . S
C3238 C3239 1.355 . S
C3238 C3240 1.415 . S
C3239 C3238 1.355 . S
C3239 C3241 1.419 . S
C3240 C3238 1.415 . S
C3240 C3245 1.425 . S
C3240 C3247 1.409 . S
C3241 H3233 0.930 . S
C3241 C3239 1.419 . S
C3241 C3242 1.362 . S
C3242 H3234 0.930 . S
C3242 C3241 1.362 . S
C3242 C3245 1.409 . S
C3243 H3235 0.930 . S
C3243 C3244 1.355 . S
C3243 C3245 1.415 . S
C3244 C3243 1.355 . S
C3244 C3246 1.419 . S
C3245 C3240 1.425 . S
C3245 C3242 1.409 . S
C3245 C3243 1.415 . S
C3246 H3236 0.930 . S
C3246 C3244 1.419 . S
C3246 C3247 1.362 . S
C3247 H3237 0.930 . S
C3247 C3240 1.409 . S
C3247 C3246 1.362 . S
H3248 C3254 0.930 . S
H3249 C3257 0.930 . S
H3250 C3258 0.930 . S
H3251 C3259 0.930 . S
H3252 C3262 0.930 . S
H3253 C3263 0.930 . S
C3254 H3248 0.930 . S
C3254 C3255 1.355 . S
C3254 C3256 1.415 . S
C3255 C3254 1.355 . S
C3255 C3257 1.419 . S
C3256 C3254 1.415 . S
C3256 C3261 1.425 . S
C3256 C3263 1.409 1_554 S
C3257 H3249 0.930 . S
C3257 C3255 1.419 . S
C3257 C3258 1.362 . S
C3258 H3250 0.930 . S
C3258 C3257 1.362 . S
C3258 C3261 1.409 . S
C3259 H3251 0.930 . S
C3259 C3260 1.355 1_554 S
C3259 C3261 1.415 . S
C3260 C3259 1.355 1_556 S
C3260 C3262 1.419 . S
C3261 C3256 1.425 . S
C3261 C3258 1.409 . S
C3261 C3259 1.415 . S
C3262 H3252 0.930 . S
C3262 C3260 1.419 . S
C3262 C3263 1.362 . S
C3263 H3253 0.930 . S
C3263 C3256 1.409 1_556 S
C3263 C3262 1.362 . S
H3264 C3270 0.930 . S
H3265 C3273 0.930 . S
H3266 C3274 0.930 . S
H3267 C3275 0.930 . S
H3268 C3278 0.930 . S
H3269 C3279 0.930 . S
C3270 H3264 0.930 . S
C3270 C3271 1.355 . S
C3270 C3272 1.415 . S
C3271 C3270 1.355 . S
C3271 C3273 1.419 . S
C3272 C3270 1.415 . S
C3272 C3277 1.425 . S
C3272 C3279 1.409 . S
C3273 H3265 0.930 . S
C3273 C3271 1.419 . S
C3273 C3274 1.362 . S
C3274 H3266 0.930 . S
C3274 C3273 1.362 . S
C3274 C3277 1.409 . S
C3275 H3267 0.930 . S
C3275 C3276 1.355 . S
C3275 C3277 1.415 . S
C3276 C3275 1.355 . S
C3276 C3278 1.419 . S
C3277 C3272 1.425 . S
C3277 C3274 1.409 . S
C3277 C3275 1.415 . S
C3278 H3268 0.930 . S
C3278 C3276 1.419 . S
C3278 C3279 1.362 . S
C3279 H3269 0.930 . S
C3279 C3272 1.409 . S
C3279 C3278 1.362 . S
H3280 C3286 0.930 . S
H3281 C3289 0.930 . S
H3282 C3290 0.930 . S
H3283 C3291 0.930 . S
H3284 C3294 0.930 . S
H3285 C3295 0.930 . S
C3286 H3280 0.930 . S
C3286 C3287 1.355 . S
C3286 C3288 1.415 . S
C3287 C3286 1.355 . S
C3287 C3289 1.419 . S
C3288 C3286 1.415 . S
C3288 C3293 1.425 . S
C3288 C3295 1.409 . S
C3289 H3281 0.930 . S
C3289 C3287 1.419 . S
C3289 C3290 1.362 . S
C3290 H3282 0.930 . S
C3290 C3289 1.362 . S
C3290 C3293 1.409 . S
C3291 H3283 0.930 . S
C3291 C3292 1.355 . S
C3291 C3293 1.415 . S
C3292 C3291 1.355 . S
C3292 C3294 1.419 . S
C3293 C3288 1.425 . S
C3293 C3290 1.409 . S
C3293 C3291 1.415 . S
C3294 H3284 0.930 . S
C3294 C3292 1.419 . S
C3294 C3295 1.362 . S
C3295 H3285 0.930 . S
C3295 C3288 1.409 . S
C3295 C3294 1.362 . S
H3296 C3302 0.930 . S
H3297 C3305 0.930 . S
H3298 C3306 0.930 . S
H3299 C3307 0.930 . S
H3300 C3310 0.930 . S
H3301 C3311 0.930 . S
C3302 H3296 0.930 . S
C3302 C3303 1.355 . S
C3302 C3304 1.415 . S
C3303 C3302 1.355 . S
C3303 C3305 1.419 . S
C3304 C3302 1.415 . S
C3304 C3309 1.425 . S
C3304 C3311 1.409 . S
C3305 H3297 0.930 . S
C3305 C3303 1.419 . S
C3305 C3306 1.362 . S
C3306 H3298 0.930 . S
C3306 C3305 1.362 . S
C3306 C3309 1.409 . S
C3307 H3299 0.930 . S
C3307 C3308 1.355 . S
C3307 C3309 1.415 . S
C3308 C3307 1.355 . S
C3308 C3310 1.419 . S
C3309 C3304 1.425 . S
C3309 C3306 1.409 . S
C3309 C3307 1.415 . S
C3310 H3300 0.930 . S
C3310 C3308 1.419 . S
C3310 C3311 1.362 . S
C3311 H3301 0.930 . S
C3311 C3304 1.409 . S
C3311 C3310 1.362 . S
H3312 C3318 0.930 . S
H3313 C3321 0.930 . S
H3314 C3322 0.919 1_556 S
H3315 C3323 0.930 . S
H3316 C3326 0.930 . S
H3317 C3327 0.930 . S
C3318 H3312 0.930 . S
C3318 C3319 1.355 . S
C3318 C3320 1.415 . S
C3319 C3318 1.355 . S
C3319 C3321 1.419 . S
C3320 C3318 1.415 . S
C3320 C3325 1.425 . S
C3320 C3327 1.409 . S
C3321 H3313 0.930 . S
C3321 C3319 1.419 . S
C3321 C3322 1.362 . S
C3322 H3314 0.919 1_554 S
C3322 C3321 1.362 . S
C3322 C3325 1.409 . S
C3323 H3315 0.930 . S
C3323 C3324 1.355 . S
C3323 C3325 1.415 1_556 S
C3324 C3323 1.355 . S
C3324 C3326 1.419 1_556 S
C3325 C3320 1.425 . S
C3325 C3322 1.409 . S
C3325 C3323 1.415 1_554 S
C3326 H3316 0.930 . S
C3326 C3324 1.419 1_554 S
C3326 C3327 1.362 . S
C3327 H3317 0.930 . S
C3327 C3320 1.409 . S
C3327 C3326 1.362 . S
H3328 C3334 0.930 . S
H3329 C3337 0.930 . S
H3330 C3338 0.930 . S
H3331 C3339 0.930 . S
H3332 C3342 0.930 . S
H3333 C3343 0.930 . S
C3334 H3328 0.930 . S
C3334 C3335 1.355 1_556 S
C3334 C3336 1.415 1_556 S
C3335 C3334 1.355 1_554 S
C3335 C3337 1.419 . S
C3336 C3334 1.415 1_554 S
C3336 C3341 1.425 . S
C3336 C3343 1.409 1_554 S
C3337 H3329 0.930 . S
C3337 C3335 1.419 . S
C3337 C3338 1.362 . S
C3338 H3330 0.930 . S
C3338 C3337 1.362 . S
C3338 C3341 1.409 . S
C3339 H3331 0.930 . S
C3339 C3340 1.355 . S
C3339 C3341 1.415 . S
C3340 C3339 1.355 . S
C3340 C3342 1.419 1_554 S
C3341 C3336 1.425 . S
C3341 C3338 1.409 . S
C3341 C3339 1.415 . S
C3342 H3332 0.930 . S
C3342 C3340 1.419 1_556 S
C3342 C3343 1.362 . S
C3343 H3333 0.930 . S
C3343 C3336 1.409 1_556 S
C3343 C3342 1.362 . S
H3344 C3350 0.930 . S
H3345 C3353 0.930 . S
H3346 C3354 0.930 . S
H3347 C3355 0.930 . S
H3348 C3358 0.930 . S
H3349 C3359 0.930 . S
C3350 H3344 0.930 . S
C3350 C3351 1.355 . S
C3350 C3352 1.415 . S
C3351 C3350 1.355 . S
C3351 C3353 1.419 . S
C3352 C3350 1.415 . S
C3352 C3357 1.425 1_455 S
C3352 C3359 1.409 1_455 S
C3353 H3345 0.930 . S
C3353 C3351 1.419 . S
C3353 C3354 1.362 . S
C3354 H3346 0.930 . S
C3354 C3353 1.362 . S
C3354 C3357 1.409 1_455 S
C3355 H3347 0.930 . S
C3355 C3356 1.355 . S
C3355 C3357 1.415 . S
C3356 C3355 1.355 . S
C3356 C3358 1.419 . S
C3357 C3352 1.425 1_655 S
C3357 C3354 1.409 1_655 S
C3357 C3355 1.415 . S
C3358 H3348 0.930 . S
C3358 C3356 1.419 . S
C3358 C3359 1.362 . S
C3359 H3349 0.930 . S
C3359 C3352 1.409 1_655 S
C3359 C3358 1.362 . S
H3360 C3366 0.930 . S
H3361 C3369 0.930 . S
H3362 C3370 0.930 . S
H3363 C3371 0.930 . S
H3364 C3374 0.930 . S
H3365 C3375 0.930 . S
C3366 H3360 0.930 . S
C3366 C3367 1.355 . S
C3366 C3368 1.415 . S
C3367 C3366 1.355 . S
C3367 C3369 1.419 . S
C3368 C3366 1.415 . S
C3368 C3373 1.425 . S
C3368 C3375 1.409 . S
C3369 H3361 0.930 . S
C3369 C3367 1.419 . S
C3369 C3370 1.362 . S
C3370 H3362 0.930 . S
C3370 C3369 1.362 . S
C3370 C3373 1.409 . S
C3371 H3363 0.930 . S
C3371 C3372 1.355 . S
C3371 C3373 1.415 . S
C3372 C3371 1.355 . S
C3372 C3374 1.419 . S
C3373 C3368 1.425 . S
C3373 C3370 1.409 . S
C3373 C3371 1.415 . S
C3374 H3364 0.930 . S
C3374 C3372 1.419 . S
C3374 C3375 1.362 . S
C3375 H3365 0.930 . S
C3375 C3368 1.409 . S
C3375 C3374 1.362 . S
H3376 C3382 0.930 . S
H3377 C3385 0.930 . S
H3378 C3386 0.930 . S
H3379 C3387 0.930 . S
H3380 C3390 0.930 . S
H3381 C3391 0.930 . S
C3382 H3376 0.930 . S
C3382 C3383 1.355 . S
C3382 C3384 1.415 . S
C3383 C3382 1.355 . S
C3383 C3385 1.419 . S
C3384 C3382 1.415 . S
C3384 C3389 1.425 . S
C3384 C3391 1.409 . S
C3385 H3377 0.930 . S
C3385 C3383 1.419 . S
C3385 C3386 1.362 . S
C3386 H3378 0.930 . S
C3386 C3385 1.362 . S
C3386 C3389 1.409 . S
C3387 H3379 0.930 . S
C3387 C3388 1.355 . S
C3387 C3389 1.415 . S
C3388 C3387 1.355 . S
C3388 C3390 1.419 . S
C3389 C3384 1.425 . S
C3389 C3386 1.409 . S
C3389 C3387 1.415 . S
C3390 H3380 0.930 . S
C3390 C3388 1.419 . S
C3390 C3391 1.362 . S
C3391 H3381 0.930 . S
C3391 C3384 1.409 . S
C3391 C3390 1.362 . S
H3392 C3398 0.930 . S
H3393 C3401 0.930 . S
H3394 C3402 0.930 . S
H3395 C3403 0.930 . S
H3396 C3406 0.930 . S
H3397 C3407 0.930 . S
C3398 H3392 0.930 . S
C3398 C3399 1.355 . S
C3398 C3400 1.415 . S
C3399 C3398 1.355 . S
C3399 C3401 1.419 . S
C3400 C3398 1.415 . S
C3400 C3405 1.425 . S
C3400 C3407 1.409 . S
C3401 H3393 0.930 . S
C3401 C3399 1.419 . S
C3401 C3402 1.362 . S
C3402 H3394 0.930 . S
C3402 C3401 1.362 . S
C3402 C3405 1.409 . S
C3403 H3395 0.930 . S
C3403 C3404 1.355 . S
C3403 C3405 1.415 . S
C3404 C3403 1.355 . S
C3404 C3406 1.419 . S
C3405 C3400 1.425 . S
C3405 C3402 1.409 . S
C3405 C3403 1.415 . S
C3406 H3396 0.930 . S
C3406 C3404 1.419 . S
C3406 C3407 1.362 . S
C3407 H3397 0.930 . S
C3407 C3400 1.409 . S
C3407 C3406 1.362 . S
H3408 C3414 0.930 . S
H3409 C3417 0.930 . S
H3410 C3418 0.930 . S
H3411 C3419 0.930 . S
H3412 C3422 0.930 . S
H3413 C3423 0.930 . S
C3414 H3408 0.930 . S
C3414 C3415 1.355 . S
C3414 C3416 1.415 . S
C3415 C3414 1.355 . S
C3415 C3417 1.419 . S
C3416 C3414 1.415 . S
C3416 C3421 1.425 . S
C3416 C3423 1.409 . S
C3417 H3409 0.930 . S
C3417 C3415 1.419 . S
C3417 C3418 1.362 . S
C3418 H3410 0.930 . S
C3418 C3417 1.362 . S
C3418 C3421 1.409 . S
C3419 H3411 0.930 . S
C3419 C3420 1.355 . S
C3419 C3421 1.415 . S
C3420 C3419 1.355 . S
C3420 C3422 1.419 . S
C3421 C3416 1.425 . S
C3421 C3418 1.409 . S
C3421 C3419 1.415 . S
C3422 H3412 0.930 . S
C3422 C3420 1.419 . S
C3422 C3423 1.362 . S
C3423 H3413 0.930 . S
C3423 C3416 1.409 . S
C3423 C3422 1.362 . S
H3424 C3430 0.930 . S
H3425 C3433 0.930 . S
H3426 C3434 0.930 . S
H3427 C3435 0.930 . S
H3428 C3438 0.930 . S
H3429 C3439 0.930 . S
C3430 H3424 0.930 . S
C3430 C3431 1.355 . S
C3430 C3432 1.415 . S
C3431 C3430 1.355 . S
C3431 C3433 1.419 . S
C3432 C3430 1.415 . S
C3432 C3437 1.425 . S
C3432 C3439 1.409 . S
C3433 H3425 0.930 . S
C3433 C3431 1.419 . S
C3433 C3434 1.362 . S
C3434 H3426 0.930 . S
C3434 C3433 1.362 . S
C3434 C3437 1.409 . S
C3435 H3427 0.930 . S
C3435 C3436 1.355 . S
C3435 C3437 1.415 . S
C3436 C3435 1.355 . S
C3436 C3438 1.419 . S
C3437 C3432 1.425 . S
C3437 C3434 1.409 . S
C3437 C3435 1.415 . S
C3438 H3428 0.930 . S
C3438 C3436 1.419 . S
C3438 C3439 1.362 . S
C3439 H3429 0.930 . S
C3439 C3432 1.409 . S
C3439 C3438 1.362 . S
H3440 C3446 0.930 . S
H3441 C3449 0.930 . S
H3442 C3450 0.930 . S
H3443 C3451 0.930 . S
H3444 C3454 0.930 . S
H3445 C3455 0.930 . S
C3446 H3440 0.930 . S
C3446 C3447 1.355 . S
C3446 C3448 1.415 . S
C3447 C3446 1.355 . S
C3447 C3449 1.419 . S
C3448 C3446 1.415 . S
C3448 C3453 1.425 1_655 S
C3448 C3455 1.409 1_655 S
C3449 H3441 0.930 . S
C3449 C3447 1.419 . S
C3449 C3450 1.362 . S
C3450 H3442 0.930 . S
C3450 C3449 1.362 . S
C3450 C3453 1.409 1_655 S
C3451 H3443 0.930 . S
C3451 C3452 1.355 . S
C3451 C3453 1.415 . S
C3452 C3451 1.355 . S
C3452 C3454 1.419 . S
C3453 C3448 1.425 1_455 S
C3453 C3450 1.409 1_455 S
C3453 C3451 1.415 . S
C3454 H3444 0.930 . S
C3454 C3452 1.419 . S
C3454 C3455 1.362 . S
C3455 H3445 0.930 . S
C3455 C3448 1.409 1_455 S
C3455 C3454 1.362 . S
H3456 C3462 0.930 . S
H3457 C3465 0.930 . S
H3458 C3466 0.930 . S
H3459 C3467 0.930 . S
H3460 C3470 0.930 1_556 S
H3461 C3471 0.930 1_556 S
C3462 H3456 0.930 . S
C3462 C3463 1.355 . S
C3462 C3464 1.415 . S
C3463 C3462 1.355 . S
C3463 C3465 1.419 . S
C3464 C3462 1.415 . S
C3464 C3469 1.425 . S
C3464 C3471 1.409 . S
C3465 H3457 0.930 . S
C3465 C3463 1.419 . S
C3465 C3466 1.362 . S
C3466 H3458 0.930 . S
C3466 C3465 1.362 . S
C3466 C3469 1.409 . S
C3467 H3459 0.930 . S
C3467 C3468 1.355 . S
C3467 C3469 1.415 . S
C3468 C3467 1.355 . S
C3468 C3470 1.419 . S
C3469 C3464 1.425 . S
C3469 C3466 1.409 . S
C3469 C3467 1.415 . S
C3470 H3460 0.930 1_554 S
C3470 C3468 1.419 . S
C3470 C3471 1.362 . S
C3471 H3461 0.930 1_554 S
C3471 C3464 1.409 . S
C3471 C3470 1.362 . S
H3472 C3478 0.930 . S
H3473 C3481 0.930 . S
H3474 C3482 0.930 . S
H3475 C3483 0.930 . S
H3476 C3486 0.930 . S
H3477 C3487 0.930 . S
C3478 H3472 0.930 . S
C3478 C3479 1.355 . S
C3478 C3480 1.415 . S
C3479 C3478 1.355 . S
C3479 C3481 1.419 . S
C3480 C3478 1.415 . S
C3480 C3485 1.425 . S
C3480 C3487 1.409 . S
C3481 H3473 0.930 . S
C3481 C3479 1.419 . S
C3481 C3482 1.362 . S
C3482 H3474 0.930 . S
C3482 C3481 1.362 . S
C3482 C3485 1.409 . S
C3483 H3475 0.930 . S
C3483 C3484 1.355 . S
C3483 C3485 1.415 . S
C3484 C3483 1.355 . S
C3484 C3486 1.419 . S
C3485 C3480 1.425 . S
C3485 C3482 1.409 . S
C3485 C3483 1.415 . S
C3486 H3476 0.930 . S
C3486 C3484 1.419 . S
C3486 C3487 1.362 . S
C3487 H3477 0.930 . S
C3487 C3480 1.409 . S
C3487 C3486 1.362 . S
H3488 C3494 0.930 . S
H3489 C3497 0.930 . S
H3490 C3498 0.930 . S
H3491 C3499 0.930 . S
H3492 C3502 0.930 . S
H3493 C3503 0.930 . S
C3494 H3488 0.930 . S
C3494 C3495 1.355 . S
C3494 C3496 1.415 . S
C3495 C3494 1.355 . S
C3495 C3497 1.419 . S
C3496 C3494 1.415 . S
C3496 C3501 1.425 . S
C3496 C3503 1.409 . S
C3497 H3489 0.930 . S
C3497 C3495 1.419 . S
C3497 C3498 1.362 . S
C3498 H3490 0.930 . S
C3498 C3497 1.362 . S
C3498 C3501 1.409 . S
C3499 H3491 0.930 . S
C3499 C3500 1.355 . S
C3499 C3501 1.415 . S
C3500 C3499 1.355 . S
C3500 C3502 1.419 . S
C3501 C3496 1.425 . S
C3501 C3498 1.409 . S
C3501 C3499 1.415 . S
C3502 H3492 0.930 . S
C3502 C3500 1.419 . S
C3502 C3503 1.362 . S
C3503 H3493 0.930 . S
C3503 C3496 1.409 . S
C3503 C3502 1.362 . S
H3504 C3510 0.930 . S
H3505 C3513 0.930 . S
H3506 C3514 0.930 . S
H3507 C3515 0.930 . S
H3508 C3518 0.930 . S
H3509 C3519 0.930 . S
C3510 H3504 0.930 . S
C3510 C3511 1.355 . S
C3510 C3512 1.415 . S
C3511 C3510 1.355 . S
C3511 C3513 1.419 . S
C3512 C3510 1.415 . S
C3512 C3517 1.425 . S
C3512 C3519 1.409 . S
C3513 H3505 0.930 . S
C3513 C3511 1.419 . S
C3513 C3514 1.362 . S
C3514 H3506 0.930 . S
C3514 C3513 1.362 . S
C3514 C3517 1.409 . S
C3515 H3507 0.930 . S
C3515 C3516 1.355 . S
C3515 C3517 1.415 . S
C3516 C3515 1.355 . S
C3516 C3518 1.419 . S
C3517 C3512 1.425 . S
C3517 C3514 1.409 . S
C3517 C3515 1.415 . S
C3518 H3508 0.930 . S
C3518 C3516 1.419 . S
C3518 C3519 1.362 . S
C3519 H3509 0.930 . S
C3519 C3512 1.409 . S
C3519 C3518 1.362 . S
H3520 C3526 0.930 . S
H3521 C3529 0.930 . S
H3522 C3530 0.930 . S
H3523 C3531 0.930 . S
H3524 C3534 0.930 . S
H3525 C3535 0.930 . S
C3526 H3520 0.930 . S
C3526 C3527 1.355 . S
C3526 C3528 1.415 . S
C3527 C3526 1.355 . S
C3527 C3529 1.419 . S
C3528 C3526 1.415 . S
C3528 C3533 1.425 . S
C3528 C3535 1.409 . S
C3529 H3521 0.930 . S
C3529 C3527 1.419 . S
C3529 C3530 1.362 . S
C3530 H3522 0.930 . S
C3530 C3529 1.362 . S
C3530 C3533 1.409 . S
C3531 H3523 0.930 . S
C3531 C3532 1.355 . S
C3531 C3533 1.415 . S
C3532 C3531 1.355 . S
C3532 C3534 1.419 . S
C3533 C3528 1.425 . S
C3533 C3530 1.409 . S
C3533 C3531 1.415 . S
C3534 H3524 0.930 . S
C3534 C3532 1.419 . S
C3534 C3535 1.362 . S
C3535 H3525 0.930 . S
C3535 C3528 1.409 . S
C3535 C3534 1.362 . S
H3536 C3542 0.930 . S
H3537 C3545 0.930 . S
H3538 C3546 0.930 . S
H3539 C3547 0.930 . S
H3540 C3550 0.930 . S
H3541 C3551 0.930 . S
C3542 H3536 0.930 . S
C3542 C3543 1.355 . S
C3542 C3544 1.415 . S
C3543 C3542 1.355 . S
C3543 C3545 1.419 . S
C3544 C3542 1.415 . S
C3544 C3549 1.425 1_655 S
C3544 C3551 1.409 1_655 S
C3545 H3537 0.930 . S
C3545 C3543 1.419 . S
C3545 C3546 1.362 . S
C3546 H3538 0.930 . S
C3546 C3545 1.362 . S
C3546 C3549 1.409 1_655 S
C3547 H3539 0.930 . S
C3547 C3548 1.355 . S
C3547 C3549 1.415 . S
C3548 C3547 1.355 . S
C3548 C3550 1.419 . S
C3549 C3544 1.425 1_455 S
C3549 C3546 1.409 1_455 S
C3549 C3547 1.415 . S
C3550 H3540 0.930 . S
C3550 C3548 1.419 . S
C3550 C3551 1.362 . S
C3551 H3541 0.930 . S
C3551 C3544 1.409 1_455 S
C3551 C3550 1.362 . S
H3552 C3558 0.930 . S
H3553 C3561 0.930 . S
H3554 C3562 0.930 . S
H3555 C3563 0.930 . S
H3556 C3566 0.930 . S
H3557 C3567 0.930 . S
C3558 H3552 0.930 . S
C3558 C3559 1.355 . S
C3558 C3560 1.415 . S
C3559 C3558 1.355 . S
C3559 C3561 1.419 . S
C3560 C3558 1.415 . S
C3560 C3565 1.425 1_655 S
C3560 C3567 1.409 1_655 S
C3561 H3553 0.930 . S
C3561 C3559 1.419 . S
C3561 C3562 1.362 . S
C3562 H3554 0.930 . S
C3562 C3561 1.362 . S
C3562 C3565 1.409 1_655 S
C3563 H3555 0.930 . S
C3563 C3564 1.355 . S
C3563 C3565 1.415 . S
C3564 C3563 1.355 . S
C3564 C3566 1.419 . S
C3565 C3560 1.425 1_455 S
C3565 C3562 1.409 1_455 S
C3565 C3563 1.415 . S
C3566 H3556 0.930 . S
C3566 C3564 1.419 . S
C3566 C3567 1.362 . S
C3567 H3557 0.930 . S
C3567 C3560 1.409 1_455 S
C3567 C3566 1.362 . S
H3568 C3574 0.930 . S
H3569 C3577 0.930 . S
H3570 C3578 0.930 . S
H3571 C3579 0.930 . S
H3572 C3582 0.930 . S
H3573 C3583 0.930 . S
C3574 H3568 0.930 . S
C3574 C3575 1.355 . S
C3574 C3576 1.415 . S
C3575 C3574 1.355 . S
C3575 C3577 1.419 . S
C3576 C3574 1.415 . S
C3576 C3581 1.425 . S
C3576 C3583 1.409 . S
C3577 H3569 0.930 . S
C3577 C3575 1.419 . S
C3577 C3578 1.362 . S
C3578 H3570 0.930 . S
C3578 C3577 1.362 . S
C3578 C3581 1.409 . S
C3579 H3571 0.930 . S
C3579 C3580 1.355 . S
C3579 C3581 1.415 . S
C3580 C3579 1.355 . S
C3580 C3582 1.419 . S
C3581 C3576 1.425 . S
C3581 C3578 1.409 . S
C3581 C3579 1.415 . S
C3582 H3572 0.930 . S
C3582 C3580 1.419 . S
C3582 C3583 1.362 . S
C3583 H3573 0.930 . S
C3583 C3576 1.409 . S
C3583 C3582 1.362 . S
H3584 C3590 0.930 . S
H3585 C3593 0.930 . S
H3586 C3594 0.930 . S
H3587 C3595 0.930 . S
H3588 C3598 0.930 . S
H3589 C3599 0.930 . S
C3590 H3584 0.930 . S
C3590 C3591 1.355 . S
C3590 C3592 1.415 . S
C3591 C3590 1.355 . S
C3591 C3593 1.419 . S
C3592 C3590 1.415 . S
C3592 C3597 1.425 . S
C3592 C3599 1.409 . S
C3593 H3585 0.930 . S
C3593 C3591 1.419 . S
C3593 C3594 1.362 . S
C3594 H3586 0.930 . S
C3594 C3593 1.362 . S
C3594 C3597 1.409 . S
C3595 H3587 0.930 . S
C3595 C3596 1.355 . S
C3595 C3597 1.415 . S
C3596 C3595 1.355 . S
C3596 C3598 1.419 . S
C3597 C3592 1.425 . S
C3597 C3594 1.409 . S
C3597 C3595 1.415 . S
C3598 H3588 0.930 . S
C3598 C3596 1.419 . S
C3598 C3599 1.362 . S
C3599 H3589 0.930 . S
C3599 C3592 1.409 . S
C3599 C3598 1.362 . S
H3600 C3606 0.930 . S
H3601 C3609 0.930 . S
H3602 C3610 0.930 . S
H3603 C3611 0.930 . S
H3604 C3614 0.930 . S
H3605 C3615 0.930 . S
C3606 H3600 0.930 . S
C3606 C3607 1.355 . S
C3606 C3608 1.372 1_565 S
C3607 C3606 1.355 . S
C3607 C3609 1.419 . S
C3608 C3606 1.372 1_545 S
C3608 C3613 1.417 1_545 S
C3608 C3615 1.461 . S
C3609 H3601 0.930 . S
C3609 C3607 1.419 . S
C3609 C3610 1.362 . S
C3610 H3602 0.930 . S
C3610 C3609 1.362 . S
C3610 C3613 1.461 . S
C3611 H3603 0.930 . S
C3611 C3612 1.355 . S
C3611 C3613 1.372 1_545 S
C3612 C3611 1.355 . S
C3612 C3614 1.419 . S
C3613 C3608 1.417 1_565 S
C3613 C3610 1.461 . S
C3613 C3611 1.372 1_565 S
C3614 H3604 0.930 . S
C3614 C3612 1.419 . S
C3614 C3615 1.362 . S
C3615 H3605 0.930 . S
C3615 C3608 1.461 . S
C3615 C3614 1.362 . S
H3616 C3622 0.930 . S
H3617 C3625 0.930 . S
H3618 C3626 0.930 . S
H3619 C3627 0.930 . S
H3620 C3630 0.930 . S
H3621 C3631 0.930 . S
C3622 H3616 0.930 . S
C3622 C3623 1.355 . S
C3622 C3624 1.415 . S
C3623 C3622 1.355 . S
C3623 C3625 1.419 . S
C3624 C3622 1.415 . S
C3624 C3629 1.425 . S
C3624 C3631 1.409 . S
C3625 H3617 0.930 . S
C3625 C3623 1.419 . S
C3625 C3626 1.362 . S
C3626 H3618 0.930 . S
C3626 C3625 1.362 . S
C3626 C3629 1.409 . S
C3627 H3619 0.930 . S
C3627 C3628 1.355 . S
C3627 C3629 1.415 . S
C3628 C3627 1.355 . S
C3628 C3630 1.419 . S
C3629 C3624 1.425 . S
C3629 C3626 1.409 . S
C3629 C3627 1.415 . S
C3630 H3620 0.930 . S
C3630 C3628 1.419 . S
C3630 C3631 1.362 . S
C3631 H3621 0.930 . S
C3631 C3624 1.409 . S
C3631 C3630 1.362 . S
H3632 C3638 0.929 1_556 S
H3633 C3641 0.930 . S
H3634 C3642 0.930 . S
H3635 C3643 0.930 . S
H3636 C3646 0.930 . S
H3637 C3647 0.930 . S
C3638 H3632 0.929 1_554 S
C3638 C3639 1.354 1_554 S
C3638 C3640 1.416 . S
C3639 C3638 1.354 1_556 S
C3639 C3641 1.419 . S
C3640 C3638 1.416 . S
C3640 C3645 1.425 1_545 S
C3640 C3647 1.409 1_545 S
C3641 H3633 0.930 . S
C3641 C3639 1.419 . S
C3641 C3642 1.362 1_556 S
C3642 H3634 0.930 . S
C3642 C3641 1.362 1_554 S
C3642 C3645 1.409 1_545 S
C3643 H3635 0.930 . S
C3643 C3644 1.355 . S
C3643 C3645 1.415 . S
C3644 C3643 1.355 . S
C3644 C3646 1.419 . S
C3645 C3640 1.425 1_565 S
C3645 C3642 1.409 1_565 S
C3645 C3643 1.415 . S
C3646 H3636 0.930 . S
C3646 C3644 1.419 . S
C3646 C3647 1.362 . S
C3647 H3637 0.930 . S
C3647 C3640 1.409 1_565 S
C3647 C3646 1.362 . S
H3648 C3654 0.930 . S
H3649 C3657 0.930 . S
H3650 C3658 0.930 . S
H3651 C3659 0.930 . S
H3652 C3662 0.930 . S
H3653 C3663 0.930 . S
C3654 H3648 0.930 . S
C3654 C3655 1.355 . S
C3654 C3656 1.415 . S
C3655 C3654 1.355 . S
C3655 C3657 1.419 . S
C3656 C3654 1.415 . S
C3656 C3661 1.425 . S
C3656 C3663 1.409 . S
C3657 H3649 0.930 . S
C3657 C3655 1.419 . S
C3657 C3658 1.362 . S
C3658 H3650 0.930 . S
C3658 C3657 1.362 . S
C3658 C3661 1.409 . S
C3659 H3651 0.930 . S
C3659 C3660 1.355 . S
C3659 C3661 1.415 . S
C3660 C3659 1.355 . S
C3660 C3662 1.419 . S
C3661 C3656 1.425 . S
C3661 C3658 1.409 . S
C3661 C3659 1.415 . S
C3662 H3652 0.930 . S
C3662 C3660 1.419 . S
C3662 C3663 1.362 . S
C3663 H3653 0.930 . S
C3663 C3656 1.409 . S
C3663 C3662 1.362 . S
H3664 C3670 0.930 . S
H3665 C3673 0.930 . S
H3666 C3674 0.930 . S
H3667 C3675 0.930 . S
H3668 C3678 0.930 . S
H3669 C3679 0.930 . S
C3670 H3664 0.930 . S
C3670 C3671 1.355 . S
C3670 C3672 1.415 . S
C3671 C3670 1.355 . S
C3671 C3673 1.419 . S
C3672 C3670 1.415 . S
C3672 C3677 1.425 1_545 S
C3672 C3679 1.409 . S
C3673 H3665 0.930 . S
C3673 C3671 1.419 . S
C3673 C3674 1.362 1_545 S
C3674 H3666 0.930 . S
C3674 C3673 1.362 1_565 S
C3674 C3677 1.409 . S
C3675 H3667 0.930 . S
C3675 C3676 1.355 . S
C3675 C3677 1.415 . S
C3676 C3675 1.355 . S
C3676 C3678 1.419 . S
C3677 C3672 1.425 1_565 S
C3677 C3674 1.409 . S
C3677 C3675 1.415 . S
C3678 H3668 0.930 . S
C3678 C3676 1.419 . S
C3678 C3679 1.362 1_565 S
C3679 H3669 0.930 . S
C3679 C3672 1.409 . S
C3679 C3678 1.362 1_545 S
H3680 C3686 0.930 . S
H3681 C3689 0.930 . S
H3682 C3690 0.930 . S
H3683 C3691 0.930 . S
H3684 C3694 0.930 . S
H3685 C3695 0.930 . S
C3686 H3680 0.930 . S
C3686 C3687 1.355 . S
C3686 C3688 1.415 . S
C3687 C3686 1.355 . S
C3687 C3689 1.419 . S
C3688 C3686 1.415 . S
C3688 C3693 1.425 . S
C3688 C3695 1.409 . S
C3689 H3681 0.930 . S
C3689 C3687 1.419 . S
C3689 C3690 1.362 . S
C3690 H3682 0.930 . S
C3690 C3689 1.362 . S
C3690 C3693 1.409 . S
C3691 H3683 0.930 . S
C3691 C3692 1.355 . S
C3691 C3693 1.415 . S
C3692 C3691 1.355 . S
C3692 C3694 1.419 . S
C3693 C3688 1.425 . S
C3693 C3690 1.409 . S
C3693 C3691 1.415 . S
C3694 H3684 0.930 . S
C3694 C3692 1.419 . S
C3694 C3695 1.362 . S
C3695 H3685 0.930 . S
C3695 C3688 1.409 . S
C3695 C3694 1.362 . S
H3696 C3702 0.930 . S
H3697 C3705 0.930 . S
H3698 C3706 0.930 . S
H3699 C3707 0.930 . S
H3700 C3710 0.930 . S
H3701 C3711 0.930 . S
C3702 H3696 0.930 . S
C3702 C3703 1.355 . S
C3702 C3704 1.359 1_565 S
C3703 C3702 1.355 . S
C3703 C3705 1.419 . S
C3704 C3702 1.359 1_545 S
C3704 C3709 1.412 1_545 S
C3704 C3711 1.479 . S
C3705 H3697 0.930 . S
C3705 C3703 1.419 . S
C3705 C3706 1.362 . S
C3706 H3698 0.930 . S
C3706 C3705 1.362 . S
C3706 C3709 1.480 . S
C3707 H3699 0.930 . S
C3707 C3708 1.355 . S
C3707 C3709 1.358 1_546 S
C3708 C3707 1.355 . S
C3708 C3710 1.419 1_556 S
C3709 C3704 1.412 1_565 S
C3709 C3706 1.480 . S
C3709 C3707 1.358 1_564 S
C3710 H3700 0.930 . S
C3710 C3708 1.419 1_554 S
C3710 C3711 1.362 . S
C3711 H3701 0.930 . S
C3711 C3704 1.479 . S
C3711 C3710 1.362 . S
H3712 C3718 0.930 . S
H3713 C3721 0.930 . S
H3714 C3722 0.930 . S
H3715 C3723 0.930 . S
H3716 C3726 0.930 . S
H3717 C3727 0.930 . S
C3718 H3712 0.930 . S
C3718 C3719 1.355 . S
C3718 C3720 1.415 . S
C3719 C3718 1.355 . S
C3719 C3721 1.419 . S
C3720 C3718 1.415 . S
C3720 C3725 1.425 . S
C3720 C3727 1.409 . S
C3721 H3713 0.930 . S
C3721 C3719 1.419 . S
C3721 C3722 1.362 . S
C3722 H3714 0.930 . S
C3722 C3721 1.362 . S
C3722 C3725 1.409 . S
C3723 H3715 0.930 . S
C3723 C3724 1.355 . S
C3723 C3725 1.415 . S
C3724 C3723 1.355 . S
C3724 C3726 1.419 . S
C3725 C3720 1.425 . S
C3725 C3722 1.409 . S
C3725 C3723 1.415 . S
C3726 H3716 0.930 . S
C3726 C3724 1.419 . S
C3726 C3727 1.362 . S
C3727 H3717 0.930 . S
C3727 C3720 1.409 . S
C3727 C3726 1.362 . S
H3728 C3734 0.930 . S
H3729 C3737 0.930 . S
H3730 C3738 0.930 1_556 S
H3731 C3739 0.930 . S
H3732 C3742 0.930 . S
H3733 C3743 0.930 . S
C3734 H3728 0.930 . S
C3734 C3735 1.355 . S
C3734 C3736 1.415 . S
C3735 C3734 1.355 . S
C3735 C3737 1.419 . S
C3736 C3734 1.415 . S
C3736 C3741 1.425 . S
C3736 C3743 1.409 . S
C3737 H3729 0.930 . S
C3737 C3735 1.419 . S
C3737 C3738 1.362 . S
C3738 H3730 0.930 1_554 S
C3738 C3737 1.362 . S
C3738 C3741 1.409 . S
C3739 H3731 0.930 . S
C3739 C3740 1.355 . S
C3739 C3741 1.415 1_556 S
C3740 C3739 1.355 . S
C3740 C3742 1.419 1_556 S
C3741 C3736 1.425 . S
C3741 C3738 1.409 . S
C3741 C3739 1.415 1_554 S
C3742 H3732 0.930 . S
C3742 C3740 1.419 1_554 S
C3742 C3743 1.362 . S
C3743 H3733 0.930 . S
C3743 C3736 1.409 . S
C3743 C3742 1.362 . S
H3744 C3750 0.930 . S
H3745 C3753 0.930 . S
H3746 C3754 0.930 . S
H3747 C3755 0.930 . S
H3748 C3758 0.930 . S
H3749 C3759 0.930 . S
C3750 H3744 0.930 . S
C3750 C3751 1.355 . S
C3750 C3752 1.415 . S
C3751 C3750 1.355 . S
C3751 C3753 1.419 . S
C3752 C3750 1.415 . S
C3752 C3757 1.425 . S
C3752 C3759 1.409 . S
C3753 H3745 0.930 . S
C3753 C3751 1.419 . S
C3753 C3754 1.362 . S
C3754 H3746 0.930 . S
C3754 C3753 1.362 . S
C3754 C3757 1.409 . S
C3755 H3747 0.930 . S
C3755 C3756 1.355 . S
C3755 C3757 1.415 . S
C3756 C3755 1.355 . S
C3756 C3758 1.419 . S
C3757 C3752 1.425 . S
C3757 C3754 1.409 . S
C3757 C3755 1.415 . S
C3758 H3748 0.930 . S
C3758 C3756 1.419 . S
C3758 C3759 1.362 . S
C3759 H3749 0.930 . S
C3759 C3752 1.409 . S
C3759 C3758 1.362 . S
H3760 C3766 0.930 . S
H3761 C3769 0.930 . S
H3762 C3770 0.930 . S
H3763 C3771 0.930 . S
H3764 C3774 0.930 . S
H3765 C3775 0.930 . S
C3766 H3760 0.930 . S
C3766 C3767 1.355 . S
C3766 C3768 1.415 . S
C3767 C3766 1.355 . S
C3767 C3769 1.419 . S
C3768 C3766 1.415 . S
C3768 C3773 1.425 . S
C3768 C3775 1.409 . S
C3769 H3761 0.930 . S
C3769 C3767 1.419 . S
C3769 C3770 1.362 . S
C3770 H3762 0.930 . S
C3770 C3769 1.362 . S
C3770 C3773 1.409 . S
C3771 H3763 0.930 . S
C3771 C3772 1.355 . S
C3771 C3773 1.415 . S
C3772 C3771 1.355 . S
C3772 C3774 1.419 . S
C3773 C3768 1.425 . S
C3773 C3770 1.409 . S
C3773 C3771 1.415 . S
C3774 H3764 0.930 . S
C3774 C3772 1.419 . S
C3774 C3775 1.362 . S
C3775 H3765 0.930 . S
C3775 C3768 1.409 . S
C3775 C3774 1.362 . S
H3776 C3782 0.930 . S
H3777 C3785 0.930 . S
H3778 C3786 0.930 . S
H3779 C3787 0.930 . S
H3780 C3790 0.930 . S
H3781 C3791 0.930 . S
C3782 H3776 0.930 . S
C3782 C3783 1.355 . S
C3782 C3784 1.415 . S
C3783 C3782 1.355 . S
C3783 C3785 1.419 . S
C3784 C3782 1.415 . S
C3784 C3789 1.425 . S
C3784 C3791 1.409 . S
C3785 H3777 0.930 . S
C3785 C3783 1.419 . S
C3785 C3786 1.362 . S
C3786 H3778 0.930 . S
C3786 C3785 1.362 . S
C3786 C3789 1.409 . S
C3787 H3779 0.930 . S
C3787 C3788 1.355 . S
C3787 C3789 1.415 . S
C3788 C3787 1.355 . S
C3788 C3790 1.419 . S
C3789 C3784 1.425 . S
C3789 C3786 1.409 . S
C3789 C3787 1.415 . S
C3790 H3780 0.930 . S
C3790 C3788 1.419 . S
C3790 C3791 1.362 . S
C3791 H3781 0.930 . S
C3791 C3784 1.409 . S
C3791 C3790 1.362 . S
H3792 C3798 0.930 . S
H3793 C3801 0.930 . S
H3794 C3802 0.930 . S
H3795 C3803 0.930 . S
H3796 C3806 0.930 . S
H3797 C3807 0.930 . S
C3798 H3792 0.930 . S
C3798 C3799 1.355 1_554 S
C3798 C3800 1.415 . S
C3799 C3798 1.355 1_556 S
C3799 C3801 1.419 . S
C3800 C3798 1.415 . S
C3800 C3805 1.425 . S
C3800 C3807 1.409 . S
C3801 H3793 0.930 . S
C3801 C3799 1.419 . S
C3801 C3802 1.362 . S
C3802 H3794 0.930 . S
C3802 C3801 1.362 . S
C3802 C3805 1.409 1_556 S
C3803 H3795 0.930 . S
C3803 C3804 1.355 . S
C3803 C3805 1.415 . S
C3804 C3803 1.355 . S
C3804 C3806 1.419 . S
C3805 C3800 1.425 . S
C3805 C3802 1.409 1_554 S
C3805 C3803 1.415 . S
C3806 H3796 0.930 . S
C3806 C3804 1.419 . S
C3806 C3807 1.362 . S
C3807 H3797 0.930 . S
C3807 C3800 1.409 . S
C3807 C3806 1.362 . S
H3808 C3814 0.930 . S
H3809 C3817 0.930 . S
H3810 C3818 0.930 . S
H3811 C3819 0.930 . S
H3812 C3822 0.930 . S
H3813 C3823 0.930 . S
C3814 H3808 0.930 . S
C3814 C3815 1.355 . S
C3814 C3816 1.415 . S
C3815 C3814 1.355 . S
C3815 C3817 1.419 . S
C3816 C3814 1.415 . S
C3816 C3821 1.425 . S
C3816 C3823 1.409 . S
C3817 H3809 0.930 . S
C3817 C3815 1.419 . S
C3817 C3818 1.362 . S
C3818 H3810 0.930 . S
C3818 C3817 1.362 . S
C3818 C3821 1.409 . S
C3819 H3811 0.930 . S
C3819 C3820 1.355 . S
C3819 C3821 1.415 . S
C3820 C3819 1.355 . S
C3820 C3822 1.419 . S
C3821 C3816 1.425 . S
C3821 C3818 1.409 . S
C3821 C3819 1.415 . S
C3822 H3812 0.930 . S
C3822 C3820 1.419 . S
C3822 C3823 1.362 . S
C3823 H3813 0.930 . S
C3823 C3816 1.409 . S
C3823 C3822 1.362 . S
H3824 C3830 0.930 . S
H3825 C3833 0.930 . S
H3826 C3834 0.930 . S
H3827 C3835 0.930 . S
H3828 C3838 0.930 . S
H3829 C3839 0.930 . S
C3830 H3824 0.930 . S
C3830 C3831 1.355 . S
C3830 C3832 1.415 . S
C3831 C3830 1.355 . S
C3831 C3833 1.419 . S
C3832 C3830 1.415 . S
C3832 C3837 1.425 . S
C3832 C3839 1.409 . S
C3833 H3825 0.930 . S
C3833 C3831 1.419 . S
C3833 C3834 1.362 . S
C3834 H3826 0.930 . S
C3834 C3833 1.362 . S
C3834 C3837 1.409 . S
C3835 H3827 0.930 . S
C3835 C3836 1.355 . S
C3835 C3837 1.415 . S
C3836 C3835 1.355 . S
C3836 C3838 1.419 . S
C3837 C3832 1.425 . S
C3837 C3834 1.409 . S
C3837 C3835 1.415 . S
C3838 H3828 0.930 . S
C3838 C3836 1.419 . S
C3838 C3839 1.362 . S
C3839 H3829 0.930 . S
C3839 C3832 1.409 . S
C3839 C3838 1.362 . S
C2823 C665 1.350 . S
C2828 C29 1.343 . S
C2839 C108 1.338 . S
C2844 C409 1.343 . S
C2855 C489 1.351 . S
C2860 C196 1.343 . S
C2871 C284 1.403 . S
C2876 C585 1.415 . S
C2887 C724 1.388 . S
C2892 C1377 1.374 . S
C2903 C812 1.355 . S
C2908 C1105 1.367 . S
C2919 C900 1.412 . S
C2924 C1201 1.400 . S
C2935 C997 1.339 . S
C2940 C1289 1.345 . S
C2951 C1437 1.425 . S
C2956 C2073 1.431 . S
C2967 C1516 1.369 . S
C2972 C1817 1.357 . S
C2983 C1905 1.399 . S
C2988 C1604 1.386 . S
C2999 C1985 1.424 . S
C3004 C1692 1.415 . S
C3015 C2141 1.402 . S
C3020 C2777 1.388 . S
C3031 C2513 1.435 . S
C3036 C2220 1.436 . S
C3047 C2609 1.338 . S
C3052 C2317 1.336 . S
C3063 C2405 1.400 . S
C3068 C2689 1.387 . S
C3079 C49 0.696 . S
C3084 C548 0.673 . S
C3095 C145 0.685 . S
C3100 C645 0.685 . S
C3111 C372 0.666 . S
C3116 C233 0.685 . S
C3127 C321 0.697 . S
C3132 C469 0.671 . S
C3143 C733 0.693 . S
C3148 C1281 0.675 . S
C3159 C821 0.661 . S
C3164 C1369 0.691 . S
C3175 C1113 0.662 . S
C3180 C909 0.690 . S
C3191 C1193 0.690 . S
C3196 C988 0.680 . S
C3207 C1457 0.695 . S
C3212 C1965 0.674 . S
C3223 C2053 0.670 . S
C3228 C1553 0.680 . S
C3239 C1780 0.700 . S
C3244 C1641 0.663 . S
C3255 C1729 0.691 . S
C3260 C1868 0.678 . S
C3271 C2132 0.669 . S
C3276 C2697 0.674 . S
C3287 C2229 0.681 . S
C3292 C2785 0.664 . S
C3303 C2521 0.688 . S
C3308 C2308 0.682 . S
C3319 C2601 0.674 . S
C3324 C2396 0.669 . S
C3335 C57 1.367 . S
C3340 C2660 1.396 . S
C3351 C137 1.391 . S
C3356 C1349 1.367 . S
C3367 C225 1.372 . S
C3372 C2484 1.385 . S
C3383 C313 1.376 . S
C3388 C1173 1.381 . S
C3399 C381 1.359 . S
C3404 C2345 1.400 . S
C3415 C460 1.381 . S
C3420 C1025 1.376 . S
C3431 C557 1.361 . S
C3436 C2169 1.399 . S
C3447 C841 1.393 . S
C3452 C636 1.370 . S
C3463 C1956 1.394 . S
C3468 C753 1.365 . S
C3479 C929 1.392 . S
C3484 C1789 1.369 . S
C3495 C1633 1.401 . S
C3500 C1076 1.361 . S
C3511 C1465 1.398 . S
C3516 C1261 1.360 . S
C3527 C1545 1.366 . S
C3532 C2748 1.395 . S
C3543 C1721 1.392 . S
C3548 C2581 1.366 . S
C3559 C1877 1.397 . S
C3564 C2433 1.366 . S
C3575 C2249 1.384 . S
C3580 C2044 1.378 . S
C3591 C20 1.899 . S
C3596 C577 1.904 . S
C3607 C117 1.938 . S
C3612 C673 1.917 . S
C3623 C401 1.944 . S
C3628 C205 1.935 . S
C3639 C293 1.926 . S
C3644 C497 1.906 . S
C3655 C761 1.944 . S
C3660 C1252 1.938 . S
C3671 C849 1.900 . S
C3676 C1340 1.903 . S
C3687 C1085 1.904 . S
C3692 C937 1.928 . S
C3703 C1017 1.917 . S
C3708 C1164 1.940 . S
C3719 C1993 1.943 . S
C3724 C1428 1.927 . S
C3735 C2081 1.944 . S
C3740 C1525 1.930 . S
C3751 C1809 1.899 . S
C3756 C1613 1.908 . S
C3767 C1897 1.924 . S
C3772 C1701 1.904 . S
C3783 C2669 1.904 . S
C3788 C2161 1.900 . S
C3799 C2757 1.901 . S
C3804 C2257 1.901 . S
C3815 C2337 1.928 . S
C3820 C2493 1.945 . S
C3831 C2572 1.898 . S
C3836 C2425 1.910 . S
