# Generated by pormake.
# Topology zfn, (5)-cn, num edge types: 1
# Building blocks:
#     Node 0, Type 0, BuildingBlock: XOMCOT_clean_sbu_0, # of connection points: 5
#     Node 1, Type 0, BuildingBlock: XOMCOT_clean_sbu_0, # of connection points: 5
#     Node 2, Type 0, BuildingBlock: XOMCOT_clean_sbu_0, # of connection points: 5
#     Node 3, Type 0, BuildingBlock: XOMCOT_clean_sbu_0, # of connection points: 5
#     Node 4, Type 0, BuildingBlock: XOMCOT_clean_sbu_0, # of connection points: 5
#     Node 5, Type 0, BuildingBlock: XOMCOT_clean_sbu_0, # of connection points: 5
#     Node 6, Type 0, BuildingBlock: XOMCOT_clean_sbu_0, # of connection points: 5
#     Node 7, Type 0, BuildingBlock: XOMCOT_clean_sbu_0, # of connection points: 5
#     Node 8, Type 0, BuildingBlock: XOMCOT_clean_sbu_0, # of connection points: 5
#     Node 9, Type 0, BuildingBlock: XOMCOT_clean_sbu_0, # of connection points: 5
#     Node 10, Type 0, BuildingBlock: XOMCOT_clean_sbu_0, # of connection points: 5
#     Node 11, Type 0, BuildingBlock: XOMCOT_clean_sbu_0, # of connection points: 5
#     Node 12, Type 0, BuildingBlock: XOMCOT_clean_sbu_0, # of connection points: 5
#     Node 13, Type 0, BuildingBlock: XOMCOT_clean_sbu_0, # of connection points: 5
#     Node 14, Type 0, BuildingBlock: XOMCOT_clean_sbu_0, # of connection points: 5
#     Node 15, Type 0, BuildingBlock: XOMCOT_clean_sbu_0, # of connection points: 5
#     Edge 16, Type (0, 0), BuildingBlock: MIFKUJ_clean_linker_0, # of connection points: 2
#     Edge 17, Type (0, 0), BuildingBlock: MIFKUJ_clean_linker_0, # of connection points: 2
#     Edge 18, Type (0, 0), BuildingBlock: MIFKUJ_clean_linker_0, # of connection points: 2
#     Edge 19, Type (0, 0), BuildingBlock: MIFKUJ_clean_linker_0, # of connection points: 2
#     Edge 20, Type (0, 0), BuildingBlock: MIFKUJ_clean_linker_0, # of connection points: 2
#     Edge 21, Type (0, 0), BuildingBlock: MIFKUJ_clean_linker_0, # of connection points: 2
#     Edge 22, Type (0, 0), BuildingBlock: MIFKUJ_clean_linker_0, # of connection points: 2
#     Edge 23, Type (0, 0), BuildingBlock: MIFKUJ_clean_linker_0, # of connection points: 2
#     Edge 24, Type (0, 0), BuildingBlock: MIFKUJ_clean_linker_0, # of connection points: 2
#     Edge 25, Type (0, 0), BuildingBlock: MIFKUJ_clean_linker_0, # of connection points: 2
#     Edge 26, Type (0, 0), BuildingBlock: MIFKUJ_clean_linker_0, # of connection points: 2
#     Edge 27, Type (0, 0), BuildingBlock: MIFKUJ_clean_linker_0, # of connection points: 2
#     Edge 28, Type (0, 0), BuildingBlock: MIFKUJ_clean_linker_0, # of connection points: 2
#     Edge 29, Type (0, 0), BuildingBlock: MIFKUJ_clean_linker_0, # of connection points: 2
#     Edge 30, Type (0, 0), BuildingBlock: MIFKUJ_clean_linker_0, # of connection points: 2
#     Edge 31, Type (0, 0), BuildingBlock: MIFKUJ_clean_linker_0, # of connection points: 2
#     Edge 32, Type (0, 0), BuildingBlock: MIFKUJ_clean_linker_0, # of connection points: 2
#     Edge 33, Type (0, 0), BuildingBlock: MIFKUJ_clean_linker_0, # of connection points: 2
#     Edge 34, Type (0, 0), BuildingBlock: MIFKUJ_clean_linker_0, # of connection points: 2
#     Edge 35, Type (0, 0), BuildingBlock: MIFKUJ_clean_linker_0, # of connection points: 2
#     Edge 36, Type (0, 0), BuildingBlock: MIFKUJ_clean_linker_0, # of connection points: 2
#     Edge 37, Type (0, 0), BuildingBlock: MIFKUJ_clean_linker_0, # of connection points: 2
#     Edge 38, Type (0, 0), BuildingBlock: MIFKUJ_clean_linker_0, # of connection points: 2
#     Edge 39, Type (0, 0), BuildingBlock: MIFKUJ_clean_linker_0, # of connection points: 2
#     Edge 40, Type (0, 0), BuildingBlock: MIFKUJ_clean_linker_0, # of connection points: 2
#     Edge 41, Type (0, 0), BuildingBlock: MIFKUJ_clean_linker_0, # of connection points: 2
#     Edge 42, Type (0, 0), BuildingBlock: MIFKUJ_clean_linker_0, # of connection points: 2
#     Edge 43, Type (0, 0), BuildingBlock: MIFKUJ_clean_linker_0, # of connection points: 2
#     Edge 44, Type (0, 0), BuildingBlock: MIFKUJ_clean_linker_0, # of connection points: 2
#     Edge 45, Type (0, 0), BuildingBlock: MIFKUJ_clean_linker_0, # of connection points: 2
#     Edge 46, Type (0, 0), BuildingBlock: MIFKUJ_clean_linker_0, # of connection points: 2
#     Edge 47, Type (0, 0), BuildingBlock: MIFKUJ_clean_linker_0, # of connection points: 2
#     Edge 48, Type (0, 0), BuildingBlock: MIFKUJ_clean_linker_0, # of connection points: 2
#     Edge 49, Type (0, 0), BuildingBlock: MIFKUJ_clean_linker_0, # of connection points: 2
#     Edge 50, Type (0, 0), BuildingBlock: MIFKUJ_clean_linker_0, # of connection points: 2
#     Edge 51, Type (0, 0), BuildingBlock: MIFKUJ_clean_linker_0, # of connection points: 2
#     Edge 52, Type (0, 0), BuildingBlock: MIFKUJ_clean_linker_0, # of connection points: 2
#     Edge 53, Type (0, 0), BuildingBlock: MIFKUJ_clean_linker_0, # of connection points: 2
#     Edge 54, Type (0, 0), BuildingBlock: MIFKUJ_clean_linker_0, # of connection points: 2
#     Edge 55, Type (0, 0), BuildingBlock: MIFKUJ_clean_linker_0, # of connection points: 2
# Relax obj value: 0.134
# Max RMSD: 0.139
# Mean RMSD: 0.139
data_MOF--net-zfn--node1-XOMCOT_clean_sbu_0--edge1-MIFKUJ_clean_linker_0
_symmetry_space_group_name_H-M    P1
_symmetry_Int_Tables_number       1
_symmetry_cell_setting            triclinic
loop_
_symmetry_equiv_pos_as_xyz
'x, y, z'
_cell_length_a     95.558483
_cell_length_b     95.487096
_cell_length_c     22.157183
_cell_angle_alpha  89.971792
_cell_angle_beta   90.009383
_cell_angle_gamma 89.985621
loop_
_atom_site_label
_atom_site_type_symbol
_atom_site_fract_x
_atom_site_fract_y
_atom_site_fract_z
_atom_type_partial_charge
Co0 Co 0.01478 0.34068 0.1487 0.0
C1 C 0.01702 0.34222 0.28403 0.0
C2 C 0.03574 0.34872 0.23927 0.0
C3 C 0.03816 0.34875 0.3004 0.0
N4 N 0.02232 0.34509 0.2286 0.0
N5 N 0.02637 0.34466 0.32876 0.0
H6 H 0.00689 0.33765 0.29175 0.0
H7 H 0.04354 0.35054 0.2048 0.0
C8 C 0.02823 0.36831 0.13133 0.0
O9 O 0.0214 0.37236 0.17979 0.0
N10 N 0.00775 0.33582 0.06952 0.0
C11 C 0.9948 0.33112 0.05701 0.0
C12 C 0.99368 0.3292 0.99567 0.0
C13 C 0.01439 0.33662 0.01581 0.0
N14 N 0.00599 0.33264 0.96956 0.0
C15 C 0.98963 0.35176 0.20282 0.0
C16 C 0.98552 0.37281 0.11905 0.0
C17 C 0.97647 0.37184 0.16853 0.0
C18 C 0.97846 0.36101 0.21021 0.0
C19 C 0.99665 0.36344 0.11389 0.0
N20 N -0.0009 0.35358 0.15743 0.0
H21 H 0.99032 0.3429 0.23246 0.0
H22 H 0.00332 0.36415 0.07468 0.0
H23 H 0.98666 0.32947 0.09016 0.0
H24 H 0.02512 0.34004 0.0109 0.0
O25 O 0.0062 0.32416 0.18128 0.0
O26 O 0.02785 0.32531 0.14486 0.0
O27 O 0.02684 0.35578 0.11179 0.0
C28 C 0.01803 0.3179 0.17028 0.0
H29 H 0.04809 0.3509 0.32191 0.0
H30 H 0.98433 0.32588 0.97218 0.0
H31 H 0.98414 0.38084 0.08504 0.0
H32 H 0.97125 0.35951 0.24741 0.0
Co33 Co 0.15357 0.01354 0.66001 0.0
C34 C 0.15194 0.01568 0.79343 0.0
C35 C 0.14537 0.03469 0.74999 0.0
C36 C 0.14459 0.03654 0.81155 0.0
N37 N 0.14986 0.02159 0.7387 0.0
N38 N 0.14876 0.0246 0.83886 0.0
H39 H 0.15568 0.00508 0.79976 0.0
H40 H 0.14305 0.04246 0.71592 0.0
C41 C 0.12867 0.02237 0.58846 0.0
O42 O 0.12727 0.00927 0.57121 0.0
N43 N 0.15785 0.0058 0.58006 0.0
C44 C 0.1656 0.99432 0.56751 0.0
C45 C 0.16745 0.99328 0.50615 0.0
C46 C 0.15589 0.01198 0.52556 0.0
N47 N 0.16127 0.00436 0.4796 0.0
C48 C 0.14385 0.98513 0.67527 0.0
C49 C 0.11713 0.99213 0.71197 0.0
C50 C 0.12053 0.97795 0.70457 0.0
C51 C 0.13421 0.97452 0.68704 0.0
C52 C 0.12705 0.0024 0.69897 0.0
N53 N 0.14002 -0.00112 0.67784 0.0
H54 H 0.15443 0.98222 0.66518 0.0
H55 H 0.12425 0.01325 0.70558 0.0
H56 H 0.17038 0.98748 0.60034 0.0
H57 H 0.15118 0.02218 0.51955 0.0
O58 O 0.17003 0.00474 0.69207 0.0
O59 O 0.16925 0.02603 0.65131 0.0
O60 O 0.13864 0.02587 0.62383 0.0
C61 C 0.17654 0.01619 0.67722 0.0
H62 H 0.14157 0.04609 0.83444 0.0
H63 H 0.17307 0.98503 0.4831 0.0
H64 H 0.1069 0.99531 0.7279 0.0
H65 H 0.13746 0.96373 0.68165 0.0
Co66 Co 0.47857 0.15623 0.13515 0.0
C67 C 0.47568 0.15631 0.26845 0.0
C68 C 0.45621 0.15185 0.224 0.0
C69 C 0.45401 0.15175 0.28542 0.0
N70 N 0.46978 0.15467 0.21348 0.0
N71 N 0.46625 0.15457 0.31352 0.0
H72 H 0.48659 0.1589 0.27507 0.0
H73 H 0.44844 0.15 0.18941 0.0
C74 C 0.46928 0.13028 0.07079 0.0
O75 O 0.48215 0.12836 0.05152 0.0
N76 N 0.48715 0.15808 0.05546 0.0
C77 C 0.50022 0.16243 0.04206 0.0
C78 C 0.50171 0.16311 0.98044 0.0
C79 C 0.48071 0.15681 1.00121 0.0
N80 N 0.48947 0.15949 0.95456 0.0
C81 C 0.50629 0.14807 0.17227 0.0
C82 C 0.50004 0.12036 0.19568 0.0
C83 C 0.51396 0.1248 0.19897 0.0
C84 C 0.51699 0.13896 0.18947 0.0
C85 C 0.48964 0.12991 0.17954 0.0
N86 N 0.493 0.14328 0.16279 0.0
H87 H 0.5087 0.15903 0.16732 0.0
H88 H 0.4789 0.12647 0.18049 0.0
H89 H 0.50808 0.16558 0.07403 0.0
H90 H 0.46982 0.15396 0.99605 0.0
O91 O 0.48704 0.17364 0.15941 0.0
O92 O 0.46622 0.17151 0.11562 0.0
O93 O 0.46631 0.14065 0.10478 0.0
C94 C 0.47575 0.1796 0.1389 0.0
H95 H 0.44416 0.14956 0.30752 0.0
H96 H 0.511 0.1665 0.95664 0.0
H97 H 0.49722 0.10962 0.20566 0.0
H98 H 0.52758 0.14288 0.19388 0.0
Co99 Co 0.34567 0.47509 0.72293 0.0
C100 C 0.3475 0.47308 0.85601 0.0
C101 C 0.35535 0.45451 0.81307 0.0
C102 C 0.35641 0.45287 0.87473 0.0
N103 N 0.34985 0.46721 0.80146 0.0
N104 N 0.35144 0.46454 0.9017 0.0
H105 H 0.34308 0.48342 0.86201 0.0
H106 H 0.35824 0.44689 0.7792 0.0
C107 C 0.37114 0.46786 0.65106 0.0
O108 O 0.37176 0.48099 0.63346 0.0
N109 N 0.34101 0.48274 0.64316 0.0
C110 C 0.33284 0.49394 0.63088 0.0
C111 C 0.33094 0.49499 0.56952 0.0
C112 C 0.34326 0.47674 0.5885 0.0
N113 N 0.33756 0.48421 0.54269 0.0
C114 C 0.35301 0.50397 0.74206 0.0
C115 C 0.38078 0.49927 0.77023 0.0
C116 C 0.37602 0.5131 0.76445 0.0
C117 C 0.36182 0.51536 0.75217 0.0
C118 C 0.37156 0.48819 0.75985 0.0
N119 N 0.35811 0.49064 0.74169 0.0
H120 H 0.34205 0.50594 0.73546 0.0
H121 H 0.37537 0.4776 0.76506 0.0
H122 H 0.32782 0.50055 0.66382 0.0
H123 H 0.34843 0.46679 0.58227 0.0
O124 O 0.32858 0.48259 0.75516 0.0
O125 O 0.33083 0.46163 0.71254 0.0
O126 O 0.36142 0.46381 0.68662 0.0
C127 C 0.32282 0.47086 0.73865 0.0
H128 H 0.36023 0.44365 0.89792 0.0
H129 H 0.32498 0.50304 0.54663 0.0
H130 H 0.39161 0.497 0.78087 0.0
H131 H 0.35754 0.52586 0.75044 0.0
Co132 Co 0.02065 0.15247 0.34499 0.0
C133 C 0.02349 0.15219 0.20891 0.0
C134 C 0.04303 0.15393 0.25575 0.0
C135 C 0.04569 0.1538 0.19481 0.0
N136 N 0.02913 0.15275 0.26494 0.0
N137 N 0.03341 0.15269 0.16536 0.0
H138 H 0.0125 0.15127 0.19936 0.0
H139 H 0.05076 0.15473 0.29126 0.0
C140 C 0.03742 0.12645 0.33646 0.0
O141 O 0.0319 0.12444 0.28283 0.0
N142 N 0.01265 0.15246 0.42501 0.0
C143 C -0.00095 0.15426 0.43853 0.0
C144 C -0.00244 0.15402 0.5002 0.0
C145 C 0.01931 0.15123 0.47851 0.0
N146 N 0.01029 0.15218 0.52552 0.0
C147 C 0.99538 0.1442 0.28405 0.0
C148 C 0.99419 0.11738 0.33064 0.0
C149 C 0.98382 0.12177 0.29035 0.0
C150 C 0.98428 0.13545 0.26792 0.0
C151 C 0.00491 0.12657 0.34654 0.0
N152 N 0.00595 0.13949 0.32031 0.0
H153 H 0.99538 0.15486 0.26778 0.0
H154 H 0.01212 0.12333 0.38127 0.0
H155 H 0.99079 0.15574 0.40579 0.0
H156 H 0.03052 0.15003 0.48276 0.0
O157 O 0.01131 0.16993 0.32814 0.0
O158 O 0.03262 0.16787 0.36717 0.0
O159 O 0.03368 0.13689 0.36869 0.0
C160 C 0.02258 0.17597 0.34835 0.0
H161 H 0.05588 0.15465 0.17384 0.0
H162 H 0.98777 0.15508 0.52434 0.0
H163 H 0.99377 0.10709 0.35118 0.0
H164 H 0.97616 0.13933 0.23816 0.0
Co165 Co 0.33965 0.01354 0.89946 0.0
C166 C 0.33977 0.01639 0.76323 0.0
C167 C 0.34131 0.03594 0.80998 0.0
C168 C 0.34098 0.03862 0.74908 0.0
N169 N 0.3409 0.02197 0.81923 0.0
N170 N 0.34002 0.02632 0.71965 0.0
H171 H 0.33852 0.00543 0.75375 0.0
H172 H 0.34159 0.04371 0.84546 0.0
C173 C 0.36603 0.02954 0.89904 0.0
O174 O 0.36851 0.02354 0.84673 0.0
N175 N 0.33791 0.00568 0.97942 0.0
C176 C 0.33519 0.99219 0.99261 0.0
C177 C 0.33418 0.99083 0.05425 0.0
C178 C 0.33845 0.01238 0.03298 0.0
N179 N 0.33619 0.00352 0.07973 0.0
C180 C 0.35003 0.98885 0.8391 0.0
C181 C 0.37473 0.98709 0.90328 0.0
C182 C 0.37237 0.97758 0.85621 0.0
C183 C 0.35964 0.97834 0.82486 0.0
C184 C 0.36491 0.99749 0.91543 0.0
N185 N 0.35317 -0.00111 0.88074 0.0
H186 H 0.33992 0.98866 0.81764 0.0
H187 H 0.36671 0.0043 0.9535 0.0
H188 H 0.33398 0.98394 0.9596 0.0
H189 H 0.34017 0.02353 0.03739 0.0
O190 O 0.32285 0.00404 0.87569 0.0
O191 O 0.32374 0.02546 0.91468 0.0
O192 O 0.35491 0.02653 0.92846 0.0
C193 C 0.31625 0.01531 0.8923 0.0
H194 H 0.34103 0.04887 0.7282 0.0
H195 H 0.33224 0.98116 0.07833 0.0
H196 H 0.38399 0.98641 0.93131 0.0
H197 H 0.3571 0.97093 0.78956 0.0
Co198 Co 0.48035 0.34187 0.36776 0.0
C199 C 0.47847 0.3439 0.23253 0.0
C200 C 0.45917 0.34876 0.27671 0.0
C201 C 0.45693 0.34894 0.21546 0.0
N202 N 0.47278 0.34601 0.2878 0.0
N203 N 0.46908 0.34586 0.18757 0.0
H204 H 0.48899 0.34032 0.22489 0.0
H205 H 0.4512 0.34992 0.31098 0.0
C206 C 0.46599 0.36911 0.38305 0.0
O207 O 0.47267 0.37326 0.33434 0.0
N208 N 0.48748 0.33732 0.44704 0.0
C209 C 0.50048 0.33271 0.45927 0.0
C210 C 0.5018 0.33108 0.52066 0.0
C211 C 0.48101 0.3384 0.50104 0.0
N212 N 0.48956 0.33464 0.5471 0.0
C213 C 0.50582 0.3526 0.31568 0.0
C214 C 0.50864 0.37502 0.39345 0.0
C215 C 0.51823 0.37348 0.34616 0.0
C216 C 0.51697 0.36188 0.30795 0.0
C217 C 0.49773 0.36545 0.39972 0.0
N218 N 0.49583 0.35497 0.35847 0.0
H219 H 0.50552 0.34332 0.28829 0.0
H220 H 0.49083 0.36647 0.43804 0.0
H221 H 0.50853 0.33093 0.42584 0.0
H222 H 0.4703 0.34186 0.50635 0.0
O223 O 0.48917 0.32541 0.33577 0.0
O224 O 0.46751 0.32632 0.3721 0.0
O225 O 0.46792 0.35676 0.40379 0.0
C226 C 0.47742 0.31903 0.34665 0.0
H227 H 0.44695 0.35049 0.19339 0.0
H228 H 0.51122 0.32787 0.54397 0.0
H229 H 0.50965 0.38346 0.42584 0.0
H230 H 0.52446 0.36002 0.27215 0.0
Co231 Co 0.15121 0.47525 0.81719 0.0
C232 C 0.14965 0.47275 0.68398 0.0
C233 C 0.14306 0.45386 0.72827 0.0
C234 C 0.1424 0.45184 0.6668 0.0
N235 N 0.14756 0.46697 0.73895 0.0
N236 N 0.14659 0.4637 0.63874 0.0
H237 H 0.15363 0.48325 0.67753 0.0
H238 H 0.1406 0.44623 0.76272 0.0
C239 C 0.12571 0.46747 0.88766 0.0
O240 O 0.12478 0.48056 0.90548 0.0
N241 N 0.15533 0.48327 0.89682 0.0
C242 C 0.16283 0.49492 0.90908 0.0
C243 C 0.16423 0.49633 0.97054 0.0
C244 C 0.15312 0.47734 0.95168 0.0
N245 N 0.15802 0.48532 0.99751 0.0
C246 C 0.14301 0.50385 0.79591 0.0
C247 C 0.11545 0.49821 0.76723 0.0
C248 C 0.11973 0.51218 0.77306 0.0
C249 C 0.13383 0.51494 0.78553 0.0
C250 C 0.12502 0.48745 0.7781 0.0
N251 N 0.13835 0.49036 0.79668 0.0
H252 H 0.15389 0.50618 0.80254 0.0
H253 H 0.12158 0.47673 0.77302 0.0
H254 H 0.16776 0.50161 0.87619 0.0
H255 H 0.14816 0.46728 0.95813 0.0
O256 O 0.16815 0.48319 0.7854 0.0
O257 O 0.16644 0.4623 0.82933 0.0
O258 O 0.13566 0.46363 0.85286 0.0
C259 C 0.1742 0.47165 0.80267 0.0
H260 H 0.13902 0.44232 0.64472 0.0
H261 H 0.16989 0.50459 0.99344 0.0
H262 H 0.10472 0.49559 0.75631 0.0
H263 H 0.13773 0.52558 0.7873 0.0
Co264 Co 0.97851 0.65248 0.83586 0.0
C265 C 0.97649 0.65072 0.70034 0.0
C266 C 0.95707 0.64649 0.7448 0.0
C267 C 0.95485 0.64604 0.68356 0.0
N268 N 0.97074 0.64897 0.75572 0.0
N269 N 0.96707 0.64871 0.65558 0.0
H270 H 0.98711 0.65393 0.69227 0.0
H271 H 0.9491 0.64551 0.77918 0.0
C272 C 0.96372 0.62538 0.84816 0.0
O273 O 0.97028 0.62149 0.79878 0.0
N274 N 0.98581 0.65637 0.91545 0.0
C275 C -0.00117 0.66084 0.92808 0.0
C276 C 0.00016 0.66216 0.98963 0.0
C277 C 0.97934 0.65502 0.96932 0.0
N278 N 0.98791 0.6585 0.01564 0.0
C279 C 0.00365 0.64118 0.78179 0.0
C280 C 0.00581 0.61841 0.85822 0.0
C281 C 0.01521 0.61959 0.81002 0.0
C282 C 0.01433 0.6314 0.77258 0.0
C283 C 0.99537 0.62843 0.86572 0.0
N284 N 0.9937 0.63907 0.82501 0.0
H285 H 0.00364 0.65059 0.75514 0.0
H286 H 0.98856 0.62756 0.90445 0.0
H287 H 0.00688 0.66281 0.8948 0.0
H288 H 0.9686 0.65164 0.97438 0.0
O289 O 0.98757 0.66905 0.80567 0.0
O290 O 0.96599 0.66822 0.84273 0.0
O291 O 0.96585 0.63756 0.87037 0.0
C292 C 0.976 0.67559 0.81864 0.0
H293 H 0.94488 0.64446 0.6614 0.0
H294 H 0.00956 0.66526 0.01338 0.0
H295 H 0.0066 0.60989 0.89032 0.0
H296 H 0.02172 0.63303 0.7362 0.0
Co297 Co 0.84377 0.98359 0.31834 0.0
C298 C 0.84465 0.98068 0.18503 0.0
C299 C 0.8505 0.96161 0.22985 0.0
C300 C 0.8509 0.95942 0.1684 0.0
N301 N 0.84661 0.97493 0.2402 0.0
N302 N 0.84719 0.9714 0.14002 0.0
H303 H 0.84117 0.99134 0.17826 0.0
H304 H 0.85278 0.95398 0.26454 0.0
C305 C 0.8688 0.97519 0.39062 0.0
O306 O 0.87003 0.98831 0.40785 0.0
N307 N 0.84055 0.99205 0.39768 0.0
C308 C 0.83553 0.00493 0.41019 0.0
C309 C 0.83412 0.00637 0.47164 0.0
C310 C 0.84143 0.98563 0.45221 0.0
N311 N 0.83796 0.99427 0.49834 0.0
C312 C 0.85192 0.01153 0.28451 0.0
C313 C 0.87984 0.00565 0.26484 0.0
C314 C 0.8753 0.0196 0.2607 0.0
C315 C 0.861 0.02236 0.26868 0.0
C316 C 0.87033 0.99513 0.27984 0.0
N317 N 0.85679 -0.00171 0.29435 0.0
H318 H 0.84091 0.01379 0.28746 0.0
H319 H 0.87394 0.98442 0.28002 0.0
H320 H 0.83244 0.01269 0.37758 0.0
H321 H 0.84464 0.97485 0.45796 0.0
O322 O 0.82663 0.99181 0.28945 0.0
O323 O 0.82841 0.971 0.33361 0.0
O324 O 0.85917 0.97165 0.3536 0.0
C325 C 0.82051 0.98049 0.30871 0.0
H326 H 0.85382 0.94973 0.14653 0.0
H327 H 0.83017 0.01555 0.49464 0.0
H328 H 0.89068 0.00284 0.25777 0.0
H329 H 0.85681 0.0328 0.26235 0.0
Co330 Co 0.51967 0.84547 0.8207 0.0
C331 C 0.52158 0.84764 0.68755 0.0
C332 C 0.54034 0.85494 0.73062 0.0
C333 C 0.54201 0.85597 0.66897 0.0
N334 N 0.5275 0.8498 0.74217 0.0
N335 N 0.53022 0.85134 0.64185 0.0
H336 H 0.51114 0.84346 0.68155 0.0
H337 H 0.54805 0.85754 0.76456 0.0
C338 C 0.52694 0.87053 0.89449 0.0
O339 O 0.51371 0.87107 0.91059 0.0
N340 N 0.51208 0.84053 0.90036 0.0
C341 C 0.501 0.83218 0.91225 0.0
C342 C 0.49988 0.83021 0.97353 0.0
C343 C 0.51802 0.84271 0.95519 0.0
N344 N 0.51055 0.83692 1.00071 0.0
C345 C 0.49081 0.85368 0.80598 0.0
C346 C 0.49627 0.88107 0.77346 0.0
C347 C 0.48233 0.87693 0.78239 0.0
C348 C 0.47968 0.8629 0.79717 0.0
C349 C 0.50708 0.87153 0.78354 0.0
N350 N 0.50431 0.85826 0.80331 0.0
H351 H 0.4885 0.84288 0.81454 0.0
H352 H 0.51775 0.87493 0.77668 0.0
H353 H 0.49449 0.82711 0.87903 0.0
H354 H 0.52794 0.84791 0.96178 0.0
O355 O 0.5118 0.82862 0.78787 0.0
O356 O 0.53294 0.83038 0.82918 0.0
O357 O 0.53115 0.861 0.85819 0.0
C358 C 0.52347 0.82259 0.80347 0.0
H359 H 0.55136 0.85947 0.64593 0.0
H360 H 0.49186 0.82416 0.99608 0.0
H361 H 0.49884 0.89162 0.75941 0.0
H362 H 0.46912 0.85907 0.80345 0.0
Co363 Co 0.65192 0.51981 0.34318 0.0
C364 C 0.65044 0.52232 0.20754 0.0
C365 C 0.65045 0.54212 0.2529 0.0
C366 C 0.65023 0.54452 0.19171 0.0
N367 N 0.65029 0.52819 0.26315 0.0
N368 N 0.65025 0.53206 0.16322 0.0
H369 H 0.65088 0.51125 0.19887 0.0
H370 H 0.65088 0.55002 0.28781 0.0
C371 C 0.62574 0.53649 0.34596 0.0
O372 O 0.62301 0.53173 0.29159 0.0
N373 N 0.65396 0.51184 0.42284 0.0
C374 C 0.65693 0.49839 0.4355 0.0
C375 C 0.65762 0.49683 0.49714 0.0
C376 C 0.65295 0.51835 0.47674 0.0
N377 N 0.65515 0.50938 0.5232 0.0
C378 C 0.64217 0.49448 0.28644 0.0
C379 C 0.61722 0.4929 0.34893 0.0
C380 C 0.62039 0.48247 0.30672 0.0
C381 C 0.63315 0.48323 0.27578 0.0
C382 C 0.62653 0.5039 0.35821 0.0
N383 N 0.63851 0.50504 0.32488 0.0
H384 H 0.65233 0.4944 0.26524 0.0
H385 H 0.62429 0.51112 0.39433 0.0
H386 H 0.65843 0.49025 0.40217 0.0
H387 H 0.65085 0.52942 0.48163 0.0
O388 O 0.66886 0.51059 0.31827 0.0
O389 O 0.66768 0.53191 0.35807 0.0
O390 O 0.63675 0.53258 0.37407 0.0
C391 C 0.6753 0.52193 0.3353 0.0
H392 H 0.65049 0.55467 0.16991 0.0
H393 H 0.65962 0.48712 0.52078 0.0
H394 H 0.60786 0.49231 0.37642 0.0
H395 H 0.63622 0.47515 0.2442 0.0
Co396 Co 0.97454 0.84358 0.65146 0.0
C397 C 0.97208 0.84386 0.78689 0.0
C398 C 0.95275 0.84836 0.74223 0.0
C399 C 0.95037 0.84816 0.80339 0.0
N400 N 0.96647 0.84608 0.73163 0.0
N401 N 0.96255 0.84533 0.83156 0.0
H402 H 0.98263 0.84038 0.79477 0.0
H403 H 0.9449 0.84981 0.70762 0.0
C404 C 0.96006 0.87094 0.64506 0.0
O405 O 0.96653 0.87407 0.69567 0.0
N406 N 0.98219 0.84069 0.57172 0.0
C407 C 0.99528 0.83636 0.5595 0.0
C408 C 0.99696 0.83578 0.49796 0.0
C409 C 0.976 0.84263 0.51756 0.0
N410 N 0.98487 0.83976 0.47148 0.0
C411 C -0.00032 0.8535 0.70943 0.0
C412 C 0.00293 0.87705 0.63846 0.0
C413 C 0.01241 0.87471 0.6857 0.0
C414 C 0.01083 0.86258 0.72071 0.0
C415 C 0.99191 0.86775 0.62916 0.0
N416 N 0.98983 0.85661 0.66692 0.0
H417 H -0.00066 0.84373 0.73349 0.0
H418 H 0.98514 0.86944 0.5908 0.0
H419 H 0.0031 0.83385 0.59314 0.0
H420 H 0.96536 0.84628 0.5121 0.0
O421 O 0.98344 0.82661 0.67789 0.0
O422 O 0.96196 0.82798 0.63989 0.0
O423 O 0.96212 0.85907 0.61984 0.0
C424 C 0.97195 0.82029 0.66235 0.0
H425 H 0.94039 0.84989 0.82519 0.0
H426 H 0.00636 0.83251 0.47462 0.0
H427 H 0.00417 0.88584 0.60802 0.0
H428 H 0.01814 0.86005 0.75643 0.0
Co429 Co 0.64905 0.9792 0.20883 0.0
C430 C 0.64597 0.97728 0.34411 0.0
C431 C 0.64484 0.95742 0.29953 0.0
C432 C 0.6439 0.9552 0.36066 0.0
N433 N 0.64584 0.97128 0.28874 0.0
N434 N 0.64462 0.96769 0.38875 0.0
H435 H 0.64735 0.9883 0.35231 0.0
H436 H 0.64512 0.94939 0.26511 0.0
C437 C 0.62262 0.96307 0.19637 0.0
O438 O 0.61844 0.96891 0.24697 0.0
N439 N 0.65252 0.98665 0.12914 0.0
C440 C 0.65631 -0.00014 0.11602 0.0
C441 C 0.65701 0.00128 0.0543 0.0
C442 C 0.651 0.98015 0.07544 0.0
N443 N 0.65366 0.98888 0.02865 0.0
C444 C 0.63837 0.00479 0.2596 0.0
C445 C 0.61498 0.0066 0.18681 0.0
C446 C 0.61756 0.01737 0.22838 0.0
C447 C 0.62952 0.01637 0.26483 0.0
C448 C 0.62422 0.99537 0.18238 0.0
N449 N 0.63538 0.99413 0.22063 0.0
H450 H 0.64801 0.00481 0.2848 0.0
H451 H 0.62259 0.98794 0.1464 0.0
H452 H 0.65814 0.008 0.14905 0.0
H453 H 0.64798 0.96928 0.07086 0.0
O454 O 0.66546 0.98867 0.2383 0.0
O455 O 0.66512 0.96709 0.20102 0.0
O456 O 0.63457 0.96615 0.17422 0.0
C457 C 0.67228 0.97733 0.22447 0.0
H458 H 0.64329 0.94511 0.38278 0.0
H459 H 0.65941 0.01085 0.03033 0.0
H460 H 0.60602 0.00689 0.15697 0.0
H461 H 0.63237 0.02473 0.2955 0.0
Co462 Co 0.51617 0.65282 0.68344 0.0
C463 C 0.51892 0.6512 0.81678 0.0
C464 C 0.53766 0.64456 0.77173 0.0
C465 C 0.53976 0.6437 0.83313 0.0
N466 N 0.52459 0.64921 0.76155 0.0
N467 N 0.52799 0.64791 0.86169 0.0
H468 H 0.50845 0.65521 0.82364 0.0
H469 H 0.54519 0.64203 0.73697 0.0
C470 C 0.52347 0.6271 0.61411 0.0
O471 O 0.51018 0.62581 0.59986 0.0
N472 N 0.50808 0.65689 0.60386 0.0
C473 C 0.49662 0.66465 0.59139 0.0
C474 C 0.4952 0.66597 0.52985 0.0
C475 C 0.51391 0.6544 0.54903 0.0
N476 N 0.50605 0.65944 0.50306 0.0
C477 C 0.48756 0.64453 0.70469 0.0
C478 C 0.49356 0.61743 0.73998 0.0
C479 C 0.47953 0.62153 0.73455 0.0
C480 C 0.4766 0.6354 0.7182 0.0
C481 C 0.50417 0.62691 0.72599 0.0
N482 N 0.50109 0.64001 0.70482 0.0
H483 H 0.4851 0.65529 0.69541 0.0
H484 H 0.51492 0.6236 0.73101 0.0
H485 H 0.49008 0.66982 0.62419 0.0
H486 H 0.52385 0.64924 0.54267 0.0
O487 O 0.50831 0.66986 0.71472 0.0
O488 O 0.52918 0.66796 0.67114 0.0
O489 O 0.52763 0.63725 0.64715 0.0
C490 C 0.51987 0.67584 0.6974 0.0
H491 H 0.54926 0.64013 0.85477 0.0
H492 H 0.4871 0.67181 0.50676 0.0
H493 H 0.49634 0.60688 0.75343 0.0
H494 H 0.46593 0.63921 0.71635 0.0
Co495 Co 0.84321 0.51879 0.1779 0.0
C496 C 0.84534 0.52098 0.31142 0.0
C497 C 0.85334 0.53925 0.26674 0.0
C498 C 0.85432 0.54123 0.32809 0.0
N499 N 0.84778 0.52654 0.2563 0.0
N500 N 0.84922 0.52978 0.35645 0.0
H501 H 0.8405 0.51086 0.31812 0.0
H502 H 0.8563 0.54669 0.23223 0.0
C503 C 0.86871 0.52592 0.10624 0.0
O504 O 0.86935 0.51276 0.08893 0.0
N505 N 0.83815 0.51143 0.098 0.0
C506 C 0.82939 0.50068 0.08579 0.0
C507 C 0.82771 0.4995 0.02439 0.0
C508 C 0.84085 0.51716 0.04315 0.0
N509 N 0.83501 0.50981 0.9974 0.0
C510 C 0.8507 0.48977 0.19066 0.0
C511 C 0.87827 0.49428 0.22291 0.0
C512 C 0.87367 0.48057 0.21248 0.0
C513 C 0.8596 0.47834 0.19806 0.0
C514 C 0.869 0.50543 0.21454 0.0
N515 N 0.85566 0.50312 0.19459 0.0
H516 H 0.83983 0.48779 0.18224 0.0
H517 H 0.87271 0.51597 0.22218 0.0
H518 H 0.82389 0.49447 0.11884 0.0
H519 H 0.84674 0.52668 0.03656 0.0
O520 O 0.82634 0.51111 0.21086 0.0
O521 O 0.82831 0.53232 0.1702 0.0
O522 O 0.85886 0.53004 0.14102 0.0
C523 C 0.82046 0.5229 0.19602 0.0
H524 H 0.85848 0.55047 0.3498 0.0
H525 H 0.82116 0.49192 1.00161 0.0
H526 H 0.88902 0.49642 0.23527 0.0
H527 H 0.8555 0.46784 0.19238 0.0
H528 H 0.9696 0.38611 0.27061 0.0
H529 H 0.95149 0.40401 0.28241 0.0
H530 H 0.93931 0.39831 0.09637 0.0
H531 H 0.95767 0.38068 0.08407 0.0
H532 H 0.94122 0.42478 0.11943 0.0
H533 H 0.91925 0.38595 0.21751 0.0
H534 H 0.91717 0.36634 0.28937 0.0
H535 H 0.9216 0.39485 0.43793 0.0
H536 H 0.92391 0.41463 0.3669 0.0
H537 H 0.87629 0.46 0.12883 0.0
H538 H 0.8934 0.44097 0.12684 0.0
H539 H 0.91063 0.45532 0.29576 0.0
H540 H 0.89347 0.4745 0.29802 0.0
H541 H 0.90614 0.42489 0.28455 0.0
H542 H 0.92774 0.46379 0.1812 0.0
H543 H 0.92853 0.48284 0.10611 0.0
H544 H 0.92332 0.45299 0.96297 0.0
H545 H 0.92226 0.43377 0.03734 0.0
C546 C 0.96294 0.38859 0.2325 0.0
C547 C 0.965 0.38205 0.17644 0.0
C548 C 0.95258 0.39878 0.23929 0.0
C549 C 0.94394 0.4024 0.19045 0.0
C550 C 0.94588 0.39571 0.13463 0.0
C551 C 0.95635 0.38566 0.12762 0.0
C552 C 0.93326 0.41357 0.19668 0.0
C553 C 0.93345 0.42467 0.1551 0.0
C554 C 0.92329 0.41362 0.244 0.0
C555 C 0.9219 0.40175 0.28685 0.0
C556 C 0.9199 0.38803 0.26549 0.0
C557 C 0.91866 0.37688 0.30608 0.0
C558 C 0.91929 0.37934 0.36817 0.0
C559 C 0.92114 0.39296 0.38982 0.0
C560 C 0.9224 0.40414 0.34942 0.0
C561 C 0.88361 0.45899 0.16594 0.0
C562 C 0.88359 0.46869 0.2136 0.0
C563 C 0.89339 0.44818 0.16458 0.0
C564 C 0.90326 0.44684 0.211 0.0
C565 C 0.90305 0.45624 0.25959 0.0
C566 C 0.89335 0.4672 0.26063 0.0
C567 C 0.91413 0.4359 0.20714 0.0
C568 C 0.91397 0.42492 0.2491 0.0
C569 C 0.92401 0.43583 0.15973 0.0
C570 C 0.92479 0.44736 0.11489 0.0
C571 C 0.92664 0.4613 0.13375 0.0
C572 C 0.92716 0.47212 0.09131 0.0
C573 C 0.92594 0.46913 0.02982 0.0
C574 C 0.92424 0.4553 0.01063 0.0
C575 C 0.9237 0.44443 0.0529 0.0
H576 H 0.92634 0.47753 0.99703 0.0
H577 H 0.91832 0.3707 0.39952 0.0
H578 H 0.09267 0.979 0.67645 0.0
H579 H 0.07525 0.96055 0.68791 0.0
H580 H 0.10664 0.93304 0.76197 0.0
H581 H 0.12411 0.95165 0.75321 0.0
H582 H 0.09052 0.92146 0.66539 0.0
H583 H 0.08379 0.9445 0.85473 0.0
H584 H 0.08006 0.9647 0.92208 0.0
H585 H 0.04106 0.97365 0.83382 0.0
H586 H 0.04465 0.95362 0.76528 0.0
H587 H 0.03954 0.86878 0.71815 0.0
H588 H 0.05861 0.88536 0.73472 0.0
H589 H 0.03089 0.91967 0.69241 0.0
H590 H 0.0116 0.90326 0.67912 0.0
H591 H 0.04679 0.92644 0.78425 0.0
H592 H 0.05439 0.90597 0.58808 0.0
H593 H 0.05792 0.88669 0.51562 0.0
H594 H 0.09491 0.87388 0.6109 0.0
H595 H 0.09149 0.89299 0.68442 0.0
C596 C 0.09586 0.96916 0.69648 0.0
C597 C 0.10983 0.96685 0.71395 0.0
C598 C 0.08589 0.9586 0.70265 0.0
C599 C 0.08968 0.94549 0.72599 0.0
C600 C 0.10355 0.94311 0.74376 0.0
C601 C 0.11352 0.95373 0.73832 0.0
C602 C 0.0792 0.93415 0.72914 0.0
C603 C 0.08107 0.92237 0.69231 0.0
C604 C 0.06679 0.93559 0.76321 0.0
C605 C 0.06455 0.94761 0.80455 0.0
C606 C 0.07447 0.95084 0.84934 0.0
C607 C 0.07237 0.96225 0.8878 0.0
C608 C 0.06034 0.97047 0.88216 0.0
C609 C 0.05037 0.96728 0.83811 0.0
C610 C 0.05243 0.95589 0.79949 0.0
C611 C 0.03743 0.87987 0.71335 0.0
C612 C 0.02404 0.88468 0.69694 0.0
C613 C 0.04839 0.88932 0.7222 0.0
C614 C 0.04623 0.90374 0.71393 0.0
C615 C 0.03282 0.90859 0.69885 0.0
C616 C 0.02183 0.89917 0.69056 0.0
C617 C 0.05794 0.91382 0.71951 0.0
C618 C 0.05631 0.92539 0.75796 0.0
C619 C 0.07051 0.91228 0.6863 0.0
C620 C 0.07259 0.9008 0.64214 0.0
C621 C 0.06321 0.89897 0.59385 0.0
C622 C 0.0652 0.88809 0.55255 0.0
C623 C 0.0766 0.87904 0.55877 0.0
C624 C 0.08606 0.88088 0.60622 0.0
C625 C 0.08411 0.89173 0.6477 0.0
H626 H 0.07813 0.87062 0.52673 0.0
H627 H 0.05873 0.9793 0.91198 0.0
H628 H 0.60378 0.03032 0.13515 0.0
H629 H 0.58773 0.04995 0.14032 0.0
H630 H 0.59488 0.05333 0.33209 0.0
H631 H 0.61015 0.03282 0.32819 0.0
H632 H 0.56879 0.05657 0.31305 0.0
H633 H 0.60894 0.07742 0.22677 0.0
H634 H 0.62904 0.08018 0.15808 0.0
H635 H 0.60115 0.08293 1.00658 0.0
H636 H 0.58088 0.07999 0.07422 0.0
H637 H 0.53458 0.12596 0.28455 0.0
H638 H 0.55377 0.10908 0.29961 0.0
H639 H 0.53825 0.08432 0.15136 0.0
H640 H 0.51891 0.10087 0.13722 0.0
H641 H 0.57063 0.09476 0.16124 0.0
H642 H 0.53106 0.06949 0.25621 0.0
H643 H 0.51188 0.06825 0.33055 0.0
H644 H 0.54098 0.07641 0.47402 0.0
H645 H 0.56029 0.07791 0.40025 0.0
C646 C 0.60182 0.03504 0.17874 0.0
C647 C 0.60823 0.02984 0.23136 0.0
C648 C 0.59282 0.0465 0.18141 0.0
C649 C 0.5903 0.05335 0.23639 0.0
C650 C 0.59673 0.04828 0.28904 0.0
C651 C 0.60557 0.03662 0.2866 0.0
C652 C 0.58047 0.06539 0.23875 0.0
C653 C 0.5694 0.06504 0.28052 0.0
C654 C 0.58121 0.07656 0.19663 0.0
C655 C 0.59338 0.07839 0.15562 0.0
C656 C 0.60709 0.07852 0.17877 0.0
C657 C 0.61852 0.08013 0.14001 0.0
C658 C 0.61638 0.08171 0.078 0.0
C659 C 0.6028 0.08171 0.05463 0.0
C660 C 0.59133 0.08009 0.09318 0.0
C661 C 0.53527 0.11686 0.25554 0.0
C662 C 0.52529 0.11461 0.20997 0.0
C663 C 0.54617 0.10728 0.26415 0.0
C664 C 0.54733 0.09554 0.22652 0.0
C665 C 0.53744 0.09335 0.18079 0.0
C666 C 0.52641 0.10272 0.17301 0.0
C667 C 0.55893 0.08552 0.2339 0.0
C668 C 0.57028 0.08635 0.19415 0.0
C669 C 0.55864 0.075 0.27858 0.0
C670 C 0.54706 0.074 0.32273 0.0
C671 C 0.53333 0.07118 0.30353 0.0
C672 C 0.52245 0.07038 0.34556 0.0
C673 C 0.5252 0.0723 0.40696 0.0
C674 C 0.53886 0.07496 0.42645 0.0
C675 C 0.54977 0.07578 0.38456 0.0
H676 H 0.51677 0.07168 0.43944 0.0
H677 H 0.62524 0.08295 0.04807 0.0
H678 H 0.37675 0.53637 0.69335 0.0
H679 H 0.39374 0.55541 0.69546 0.0
H680 H 0.41489 0.53581 0.84532 0.0
H681 H 0.39762 0.51682 0.84466 0.0
H682 H 0.41272 0.56466 0.85825 0.0
H683 H 0.4278 0.53171 0.70826 0.0
H684 H 0.42511 0.51658 0.61888 0.0
H685 H 0.41586 0.55256 0.50962 0.0
H686 H 0.41828 0.5679 0.59861 0.0
H687 H 0.47739 0.60151 0.82289 0.0
H688 H 0.45914 0.58371 0.83376 0.0
H689 H 0.43747 0.60082 0.67962 0.0
H690 H 0.45584 0.61837 0.66744 0.0
H691 H 0.44018 0.57287 0.67145 0.0
H692 H 0.42503 0.60588 0.82089 0.0
H693 H 0.42753 0.6211 0.9101 0.0
H694 H 0.43691 0.58525 0.02004 0.0
H695 H 0.43465 0.56983 0.93124 0.0
C696 C 0.38485 0.53621 0.72751 0.0
C697 C 0.38587 0.52506 0.76872 0.0
C698 C 0.39462 0.54705 0.72831 0.0
C699 C 0.40566 0.5469 0.77001 0.0
C700 C 0.40647 0.53606 0.81262 0.0
C701 C 0.39668 0.52518 0.81184 0.0
C702 C 0.41665 0.55779 0.76726 0.0
C703 C 0.41888 0.56636 0.81776 0.0
C704 C 0.42446 0.56012 0.71395 0.0
C705 C 0.4231 0.55094 0.66024 0.0
C706 C 0.42509 0.53639 0.66528 0.0
C707 C 0.42363 0.52777 0.61467 0.0
C708 C 0.42028 0.5336 0.55863 0.0
C709 C 0.41843 0.54806 0.55307 0.0
C710 C 0.41986 0.55672 0.60357 0.0
C711 C 0.46873 0.60147 0.79133 0.0
C712 C 0.46805 0.61134 0.74426 0.0
C713 C 0.45826 0.59138 0.79793 0.0
C714 C 0.44691 0.59102 0.75772 0.0
C715 C 0.44612 0.60095 0.71121 0.0
C716 C 0.45657 0.61104 0.70462 0.0
C717 C 0.43619 0.57988 0.76224 0.0
C718 C 0.43404 0.57121 0.71202 0.0
C719 C 0.42847 0.57748 0.81578 0.0
C720 C 0.42981 0.58672 0.86927 0.0
C721 C 0.42774 0.60125 0.86398 0.0
C722 C 0.42909 0.60991 0.91449 0.0
C723 C 0.43241 0.60415 0.97067 0.0
C724 C 0.43435 0.58971 0.97648 0.0
C725 C 0.43303 0.581 0.92608 0.0
H726 H 0.43345 0.61087 0.00974 0.0
H727 H 0.41916 0.52692 0.5195 0.0
H728 H 0.89894 0.01933 0.1896 0.0
H729 H 0.91689 0.03747 0.1823 0.0
H730 H 0.89243 0.06443 0.29713 0.0
H731 H 0.87473 0.04617 0.30736 0.0
H732 H 0.90585 0.07788 0.19091 0.0
H733 H 0.91573 0.048 0.36362 0.0
H734 H 0.91963 0.02509 0.41224 0.0
H735 H 0.95441 0.01729 0.29427 0.0
H736 H 0.95056 0.04008 0.24428 0.0
H737 H 0.95584 0.12628 0.3028 0.0
H738 H 0.9369 0.10954 0.28476 0.0
H739 H 0.96702 0.07914 0.22179 0.0
H740 H 0.98598 0.09566 0.24286 0.0
H741 H 0.95066 0.06696 0.2939 0.0
H742 H 0.94277 0.09706 0.12545 0.0
H743 H 0.93902 0.11939 0.07184 0.0
H744 H 0.90125 0.12633 0.17243 0.0
H745 H 0.90487 0.10414 0.22727 0.0
C746 C 0.89735 0.02908 0.21354 0.0
C747 C 0.88543 0.03117 0.24977 0.0
C748 C 0.90756 0.03948 0.20872 0.0
C749 C 0.90595 0.05222 0.23935 0.0
C750 C 0.89377 0.05467 0.27286 0.0
C751 C 0.88365 0.04421 0.27845 0.0
C752 C 0.9175 0.06249 0.2409 0.0
C753 C 0.91564 0.0756 0.21366 0.0
C754 C 0.93034 0.05928 0.26929 0.0
C755 C 0.93276 0.04566 0.29979 0.0
C756 C 0.92413 0.04134 0.34771 0.0
C757 C 0.92634 0.02839 0.37557 0.0
C758 C 0.93723 0.01972 0.35624 0.0
C759 C 0.94596 0.02401 0.30912 0.0
C760 C 0.94377 0.03694 0.28103 0.0
C761 C 0.95833 0.11607 0.2844 0.0
C762 C 0.9723 0.1122 0.27415 0.0
C763 C 0.94753 0.10654 0.27374 0.0
C764 C 0.95048 0.0931 0.25108 0.0
C765 C 0.96446 0.08941 0.23934 0.0
C766 C 0.97527 0.09883 0.25123 0.0
C767 C 0.93916 0.08256 0.24366 0.0
C768 C 0.941 0.06933 0.27025 0.0
C769 C 0.9264 0.08564 0.21383 0.0
C770 C 0.92416 0.09898 0.18084 0.0
C771 C 0.93372 0.1034 0.13646 0.0
C772 C 0.93161 0.11602 0.1058 0.0
C773 C 0.91992 0.12429 0.11882 0.0
C774 C 0.9103 0.11993 0.16243 0.0
C775 C 0.91237 0.10731 0.19327 0.0
H776 H 0.91831 0.13406 0.09503 0.0
H777 H 0.93893 0.0097 0.37786 0.0
H778 H 0.48281 0.90431 0.81856 0.0
H779 H 0.46341 0.92075 0.82221 0.0
H780 H 0.43585 0.88941 0.74784 0.0
H781 H 0.45548 0.8731 0.74007 0.0
H782 H 0.42934 0.91422 0.70355 0.0
H783 H 0.43683 0.89571 0.9003 0.0
H784 H 0.45027 0.88909 0.99093 0.0
H785 H 0.4609 0.9322 0.02128 0.0
H786 H 0.4477 0.93907 0.93028 0.0
H787 H 0.36826 0.95016 0.82202 0.0
H788 H 0.38618 0.93249 0.80088 0.0
H789 H 0.4185 0.96282 0.8375 0.0
H790 H 0.40078 0.98067 0.85629 0.0
H791 H 0.42093 0.93689 0.90179 0.0
H792 H 0.41317 0.95453 0.69915 0.0
H793 H 0.3986 0.9601 0.61048 0.0
H794 H 0.38668 0.91688 0.59542 0.0
H795 H 0.40103 0.9111 0.68461 0.0
C796 C 0.47273 0.90096 0.80145 0.0
C797 C 0.47073 0.88729 0.77949 0.0
C798 C 0.46158 0.91034 0.80441 0.0
C799 C 0.4481 0.90619 0.7868 0.0
C800 C 0.44614 0.89279 0.76231 0.0
C801 C 0.45736 0.88343 0.75853 0.0
C802 C 0.43604 0.91569 0.79625 0.0
C803 C 0.42738 0.91902 0.7471 0.0
C804 C 0.43347 0.92196 0.85312 0.0
C805 C 0.44137 0.91789 0.90815 0.0
C806 C 0.44212 0.90377 0.92605 0.0
C807 C 0.44968 0.89998 0.97753 0.0
C808 C 0.45646 0.91022 0.01177 0.0
C809 C 0.45566 0.92428 0.99468 0.0
C810 C 0.44812 0.92813 0.94318 0.0
C811 C 0.37917 0.95315 0.82451 0.0
C812 C 0.38307 0.96683 0.84126 0.0
C813 C 0.38938 0.94302 0.8127 0.0
C814 C 0.40361 0.9464 0.81779 0.0
C815 C 0.40754 0.96003 0.83374 0.0
C816 C 0.39739 0.97018 0.84485 0.0
C817 C 0.41451 0.93564 0.80886 0.0
C818 C 0.42288 0.93202 0.85835 0.0
C819 C 0.41662 0.92894 0.75272 0.0
C820 C 0.40805 0.93241 0.69896 0.0
C821 C 0.40734 0.94624 0.67728 0.0
C822 C 0.39914 0.94943 0.62685 0.0
C823 C 0.39168 0.93886 0.59744 0.0
C824 C 0.39244 0.92507 0.6183 0.0
C825 C 0.40062 0.92182 0.66876 0.0
H826 H 0.38534 0.94135 0.5584 0.0
H827 H 0.46232 0.90725 0.05161 0.0
H828 H 0.59196 0.48328 0.29846 0.0
H829 H 0.5758 0.46348 0.29861 0.0
H830 H 0.61065 0.43478 0.29628 0.0
H831 H 0.62696 0.45459 0.29705 0.0
H832 H 0.58763 0.4266 0.22113 0.0
H833 H 0.59687 0.44073 0.4251 0.0
H834 H 0.59909 0.45768 0.50848 0.0
H835 H 0.55567 0.46849 0.49046 0.0
H836 H 0.55325 0.45177 0.40626 0.0
H837 H 0.54598 0.36869 0.32295 0.0
H838 H 0.56449 0.38619 0.30997 0.0
H839 H 0.53424 0.41924 0.33549 0.0
H840 H 0.5158 0.40183 0.34913 0.0
H841 H 0.55675 0.42395 0.40089 0.0
H842 H 0.54754 0.4107 0.19467 0.0
H843 H 0.5452 0.39421 0.10964 0.0
H844 H 0.58816 0.38193 0.13058 0.0
H845 H 0.5907 0.39822 0.21631 0.0
C846 C 0.59619 0.47276 0.29764 0.0
C847 C 0.61072 0.47049 0.29855 0.0
C848 C 0.58696 0.46148 0.29746 0.0
C849 C 0.59207 0.44771 0.2983 0.0
C850 C 0.60654 0.44536 0.29567 0.0
C851 C 0.61582 0.45668 0.29597 0.0
C852 C 0.58226 0.43592 0.30647 0.0
C853 C 0.581 0.42586 0.26074 0.0
C854 C 0.57354 0.43513 0.35791 0.0
C855 C 0.57492 0.44508 0.40903 0.0
C856 C 0.58783 0.4468 0.43861 0.0
C857 C 0.58912 0.45635 0.48606 0.0
C858 C 0.57754 0.46418 0.50467 0.0
C859 C 0.56464 0.46244 0.47596 0.0
C860 C 0.5633 0.45291 0.4284 0.0
C861 C 0.54329 0.3797 0.32526 0.0
C862 C 0.52948 0.38393 0.33719 0.0
C863 C 0.55386 0.38967 0.31778 0.0
C864 C 0.55072 0.40402 0.32129 0.0
C865 C 0.5369 0.40822 0.33282 0.0
C866 C 0.52639 0.39828 0.34075 0.0
C867 C 0.56181 0.41474 0.31482 0.0
C868 C 0.56339 0.4246 0.36125 0.0
C869 C 0.57077 0.41533 0.26394 0.0
C870 C 0.56926 0.40557 0.21231 0.0
C871 C 0.55645 0.4044 0.18145 0.0
C872 C 0.5551 0.39511 0.13307 0.0
C873 C 0.56651 0.387 0.11483 0.0
C874 C 0.57932 0.3882 0.14482 0.0
C875 C 0.58073 0.39747 0.19328 0.0
H876 H 0.56544 0.37981 0.07736 0.0
H877 H 0.57856 0.47157 0.54141 0.0
H878 H 0.04289 0.62293 0.78021 0.0
H879 H 0.06045 0.60454 0.7661 0.0
H880 H 0.02919 0.57306 0.80258 0.0
H881 H 0.01161 0.59134 0.8165 0.0
H882 H 0.05235 0.56808 0.86525 0.0
H883 H 0.0408 0.5787 0.65988 0.0
H884 H 0.03733 0.59398 0.57137 0.0
H885 H 0.08062 0.60595 0.57696 0.0
H886 H 0.0843 0.59088 0.66608 0.0
H887 H 0.09844 0.51551 0.69114 0.0
H888 H 0.08048 0.53388 0.69042 0.0
H889 H 0.10001 0.55336 0.84447 0.0
H890 H 0.11779 0.535 0.84616 0.0
H891 H 0.08172 0.56322 0.68166 0.0
H892 H 0.07382 0.56304 0.94043 0.0
H893 H 0.07619 0.54672 0.02622 0.0
H894 H 0.06937 0.51181 0.90773 0.0
H895 H 0.06676 0.52792 0.82146 0.0
C896 C 0.03973 0.61209 0.78449 0.0
C897 C 0.02588 0.60858 0.79967 0.0
C898 C 0.04977 0.6016 0.77647 0.0
C899 C 0.04609 0.58744 0.78299 0.0
C900 C 0.03226 0.58393 0.79761 0.0
C901 C 0.02225 0.59438 0.80574 0.0
C902 C 0.05673 0.57626 0.77656 0.0
C903 C 0.05876 0.56703 0.82508 0.0
C904 C 0.06495 0.57476 0.7238 0.0
C905 C 0.06279 0.58376 0.66998 0.0
C906 C 0.04955 0.58467 0.64251 0.0
C907 C 0.04755 0.59328 0.59218 0.0
C908 C 0.05874 0.60095 0.56864 0.0
C909 C 0.07196 0.60001 0.59529 0.0
C910 C 0.07401 0.59142 0.64567 0.0
C911 C 0.0989 0.52374 0.72472 0.0
C912 C 0.10948 0.52379 0.76886 0.0
C913 C 0.08873 0.53426 0.72394 0.0
C914 C 0.08889 0.54488 0.76768 0.0
C915 C 0.09967 0.54519 0.81059 0.0
C916 C 0.10987 0.53474 0.81122 0.0
C917 C 0.07743 0.55525 0.77068 0.0
C918 C 0.07528 0.56431 0.72171 0.0
C919 C 0.06891 0.55646 0.82261 0.0
C920 C 0.07023 0.54669 0.87441 0.0
C921 C 0.07277 0.55188 0.93275 0.0
C922 C 0.07416 0.54267 0.98145 0.0
C923 C 0.07298 0.52823 0.9724 0.0
C924 C 0.07034 0.52298 0.91465 0.0
C925 C 0.06892 0.53215 0.86583 0.0
H926 H 0.07407 0.52112 0.01014 0.0
H927 H 0.05717 0.60761 0.52968 0.0
H928 H 0.04598 0.36312 0.03679 0.0
H929 H 0.06203 0.37967 0.98835 0.0
H930 H 0.04755 0.41249 0.10658 0.0
H931 H 0.0315 0.39611 0.15504 0.0
H932 H 0.05012 0.42136 0.98887 0.0
H933 H 0.07743 0.3964 0.13711 0.0
H934 H 0.08708 0.37534 0.18628 0.0
H935 H 0.10742 0.36363 0.02103 0.0
H936 H 0.09772 0.38455 0.97062 0.0
H937 H 0.10448 0.47133 0.96863 0.0
H938 H 0.08746 0.45403 1.00328 0.0
H939 H 0.10623 0.42289 0.88773 0.0
H940 H 0.12346 0.44005 0.85365 0.0
H941 H 0.10125 0.41242 0.99714 0.0
H942 H 0.07514 0.43829 0.85028 0.0
H943 H 0.06565 0.45952 0.80181 0.0
H944 H 0.04307 0.46958 0.9636 0.0
H945 H 0.05258 0.44851 0.01337 0.0
C946 C 0.04618 0.37388 0.05229 0.0
C947 C 0.03756 0.37829 0.10008 0.0
C948 C 0.05536 0.3833 0.02465 0.0
C949 C 0.05603 0.39726 0.0443 0.0
C950 C 0.04717 0.40176 0.0908 0.0
C951 C 0.03806 0.39236 0.11862 0.0
C952 C 0.06627 0.40713 0.01788 0.0
C953 C 0.06131 0.41948 0.99101 0.0
C954 C 0.08082 0.40449 0.01962 0.0
C955 C 0.08672 0.39195 0.04992 0.0
C956 C 0.08386 0.38927 0.11112 0.0
C957 C 0.08936 0.37737 0.13924 0.0
C958 C 0.09782 0.36813 0.10675 0.0
C959 C 0.10084 0.37079 0.04611 0.0
C960 C 0.09535 0.38267 0.01775 0.0
C961 C 0.10497 0.46081 0.95044 0.0
C962 C 0.1153 0.45707 0.90828 0.0
C963 C 0.0952 0.45095 0.9701 0.0
C964 C 0.09547 0.43722 0.94746 0.0
C965 C 0.10582 0.43344 0.90566 0.0
C966 C 0.11564 0.44327 0.88617 0.0
C967 C 0.08512 0.42674 0.96839 0.0
C968 C 0.09006 0.41427 0.99436 0.0
C969 C 0.07054 0.42927 0.96574 0.0
C970 C 0.06467 0.44188 0.93572 0.0
C971 C 0.06822 0.44508 0.87567 0.0
C972 C 0.06283 0.45708 0.84794 0.0
C973 C 0.05379 0.46591 0.87965 0.0
C974 C 0.05008 0.46274 0.93911 0.0
C975 C 0.05546 0.45076 0.96708 0.0
H976 H 0.04963 0.4752 0.85812 0.0
H977 H 0.10207 0.35892 0.1286 0.0
H978 H 0.10833 0.01923 0.50285 0.0
H979 H 0.0933 0.0374 0.4601 0.0
H980 H 0.1128 0.06824 0.5748 0.0
H981 H 0.12778 0.05012 0.6183 0.0
H982 H 0.08473 0.07126 0.57325 0.0
H983 H 0.12149 0.06584 0.42813 0.0
H984 H 0.13703 0.05419 0.35483 0.0
H985 H 0.10144 0.04183 0.24935 0.0
H986 H 0.08565 0.05315 0.32259 0.0
H987 H 0.05678 0.13059 0.42473 0.0
H988 H 0.07309 0.11342 0.46644 0.0
H989 H 0.05631 0.08183 0.34737 0.0
H990 H 0.04046 0.09915 0.30347 0.0
H991 H 0.08358 0.07975 0.35235 0.0
H992 H 0.04674 0.0846 0.50122 0.0
H993 H 0.03176 0.09933 0.56603 0.0
H994 H 0.06799 0.11401 0.66146 0.0
H995 H 0.08322 0.09951 0.59669 0.0
C996 C 0.10939 0.02986 0.51918 0.0
C997 C 0.11928 0.03324 0.56385 0.0
C998 C 0.10085 0.04024 0.49446 0.0
C999 C 0.10206 0.05418 0.51383 0.0
C1000 C 0.11173 0.05755 0.55918 0.0
C1001 C 0.1203 0.04718 0.58384 0.0
C1002 C 0.09321 0.06525 0.48685 0.0
C1003 C 0.08457 0.0732 0.525 0.0
C1004 C 0.09289 0.06765 0.42382 0.0
C1005 C 0.10236 0.06025 0.38123 0.0
C1006 C 0.11695 0.06047 0.38979 0.0
C1007 C 0.12581 0.05396 0.34812 0.0
C1008 C 0.12022 0.04731 0.2974 0.0
C1009 C 0.10575 0.047 0.28861 0.0
C1010 C 0.09684 0.05345 0.33021 0.0
C1011 C 0.0566 0.11998 0.40744 0.0
C1012 C 0.04732 0.11615 0.36119 0.0
C1013 C 0.06588 0.11017 0.43144 0.0
C1014 C 0.06572 0.09626 0.4109 0.0
C1015 C 0.05659 0.09249 0.36401 0.0
C1016 C 0.04752 0.10238 0.33908 0.0
C1017 C 0.07496 0.08557 0.43849 0.0
C1018 C 0.08368 0.07772 0.40054 0.0
C1019 C 0.07535 0.08326 0.5016 0.0
C1020 C 0.06613 0.09107 0.54374 0.0
C1021 C 0.05151 0.09094 0.53613 0.0
C1022 C 0.04298 0.09928 0.57271 0.0
C1023 C 0.04895 0.10769 0.6174 0.0
C1024 C 0.06341 0.10755 0.62655 0.0
C1025 C 0.07199 0.09925 0.59002 0.0
H1026 H 0.04236 0.11434 0.64486 0.0
H1027 H 0.12709 0.04245 0.26472 0.0
H1028 H 0.44122 0.13315 0.08845 0.0
H1029 H 0.42289 0.11605 0.06713 0.0
H1030 H 0.45386 0.08712 1.00005 0.0
H1031 H 0.47235 0.10421 0.02109 0.0
H1032 H 0.41558 0.10412 0.9579 0.0
H1033 H 0.44287 0.05393 0.04463 0.0
H1034 H 0.46039 0.04707 0.12092 0.0
H1035 H 0.44954 0.08286 0.22843 0.0
H1036 H 0.43182 0.08981 0.15329 0.0
H1037 H 0.38709 0.04224 0.83765 0.0
H1038 H 0.40364 0.05958 0.87531 0.0
H1039 H 0.38466 0.05739 0.05163 0.0
H1040 H 0.36785 0.03998 0.01408 0.0
H1041 H 0.41512 0.0567 0.04993 0.0
H1042 H 0.37658 0.08392 0.97527 0.0
H1043 H 0.3588 0.09086 0.90035 0.0
H1044 H 0.3912 0.10173 0.77452 0.0
H1045 H 0.40918 0.09464 0.84839 0.0
C1046 C 0.44416 0.12315 0.06915 0.0
C1047 C 0.45824 0.12001 0.05647 0.0
C1048 C 0.43366 0.11342 0.05693 0.0
C1049 C 0.43706 0.10032 0.03255 0.0
C1050 C 0.45108 0.09714 0.0195 0.0
C1051 C 0.4616 0.10693 0.03122 0.0
C1052 C 0.42587 0.09008 0.01978 0.0
C1053 C 0.41545 0.09377 0.97814 0.0
C1054 C 0.42564 0.07667 0.04696 0.0
C1055 C 0.43611 0.07246 0.09299 0.0
C1056 C 0.44418 0.0603 0.08468 0.0
C1057 C 0.45415 0.0564 0.12771 0.0
C1058 C 0.45611 0.06455 0.17939 0.0
C1059 C 0.44805 0.07659 0.18827 0.0
C1060 C 0.43806 0.08052 0.14543 0.0
C1061 C 0.38643 0.04538 0.88454 0.0
C1062 C 0.37614 0.03979 0.92291 0.0
C1063 C 0.39588 0.0553 0.90587 0.0
C1064 C 0.39528 0.05977 0.96602 0.0
C1065 C 0.38523 0.05403 1.005 0.0
C1066 C 0.37563 0.04417 0.98345 0.0
C1067 C 0.40505 0.07067 0.9872 0.0
C1068 C 0.41521 0.0671 0.03016 0.0
C1069 C 0.40501 0.08423 0.96156 0.0
C1070 C 0.39422 0.08864 0.91723 0.0
C1071 C 0.37991 0.08769 0.93146 0.0
C1072 C 0.3698 0.09167 0.88921 0.0
C1073 C 0.37387 0.09671 0.83266 0.0
C1074 C 0.38807 0.09782 0.81832 0.0
C1075 C 0.39822 0.09383 0.8604 0.0
H1076 H 0.36602 0.09978 0.80001 0.0
H1077 H 0.46385 0.06152 0.21261 0.0
H1078 H 0.39347 0.47276 0.57688 0.0
H1079 H 0.40972 0.45557 0.53503 0.0
H1080 H 0.38796 0.42249 0.62882 0.0
H1081 H 0.37183 0.43964 0.67184 0.0
H1082 H 0.41554 0.41874 0.63603 0.0
H1083 H 0.38249 0.429 0.48061 0.0
H1084 H 0.36892 0.4435 0.40992 0.0
H1085 H 0.40688 0.45706 0.32414 0.0
H1086 H 0.42074 0.44302 0.39598 0.0
H1087 H 0.44564 0.36286 0.46552 0.0
H1088 H 0.42935 0.37916 0.51379 0.0
H1089 H 0.44887 0.41367 0.42018 0.0
H1090 H 0.46477 0.39741 0.37016 0.0
H1091 H 0.42171 0.41595 0.41408 0.0
H1092 H 0.45476 0.40568 0.57391 0.0
H1093 H 0.46764 0.38946 0.64047 0.0
H1094 H 0.42888 0.37464 0.71472 0.0
H1095 H 0.41574 0.39055 0.64766 0.0
C1096 C 0.39217 0.46184 0.58883 0.0
C1097 C 0.3813 0.45756 0.6274 0.0
C1098 C 0.40144 0.45202 0.56472 0.0
C1099 C 0.39993 0.43773 0.57816 0.0
C1100 C 0.3893 0.43347 0.61779 0.0
C1101 C 0.38006 0.44328 0.64216 0.0
C1102 C 0.40926 0.42719 0.54999 0.0
C1103 C 0.4168 0.41804 0.58746 0.0
C1104 C 0.41099 0.42637 0.48664 0.0
C1105 C 0.40267 0.43505 0.44414 0.0
C1106 C 0.38797 0.43521 0.44722 0.0
C1107 C 0.38022 0.44333 0.40679 0.0
C1108 C 0.38703 0.45115 0.36228 0.0
C1109 C 0.40161 0.45098 0.35858 0.0
C1110 C 0.40943 0.44298 0.39929 0.0
C1111 C 0.44646 0.37394 0.45546 0.0
C1112 C 0.45645 0.37888 0.41407 0.0
C1113 C 0.4372 0.38324 0.48324 0.0
C1114 C 0.438 0.39767 0.47119 0.0
C1115 C 0.44804 0.40259 0.43012 0.0
C1116 C 0.45714 0.39328 0.40164 0.0
C1117 C 0.42823 0.4077 0.50006 0.0
C1118 C 0.42053 0.41672 0.46267 0.0
C1119 C 0.42633 0.40835 0.56337 0.0
C1120 C 0.43427 0.39921 0.60537 0.0
C1121 C 0.44899 0.39893 0.60429 0.0
C1122 C 0.45633 0.38978 0.64205 0.0
C1123 C 0.44907 0.381 0.68163 0.0
C1124 C 0.43447 0.38143 0.68391 0.0
C1125 C 0.42708 0.3905 0.64605 0.0
H1126 H 0.45474 0.37388 0.71058 0.0
H1127 H 0.38103 0.45732 0.33047 0.0
H1128 H 0.86924 0.55413 0.1261 0.0
H1129 H 0.88566 0.57119 0.08465 0.0
H1130 H 0.90753 0.53812 0.99142 0.0
H1131 H 0.89117 0.52092 0.03285 0.0
H1132 H 0.92545 0.55668 0.04804 0.0
H1133 H 0.88619 0.55774 0.91678 0.0
H1134 H 0.86139 0.5596 0.88749 0.0
H1135 H 0.86003 0.60166 0.95581 0.0
H1136 H 0.88481 0.59995 0.98621 0.0
H1137 H 0.96185 0.59726 0.83011 0.0
H1138 H 0.94587 0.58081 0.87881 0.0
H1139 H 0.92789 0.61455 0.98232 0.0
H1140 H 0.94402 0.63115 0.93423 0.0
H1141 H 0.90804 0.59609 0.92257 0.0
H1142 H 0.94805 0.59433 0.05397 0.0
H1143 H 0.97314 0.59187 0.0777 0.0
H1144 H 0.97312 0.55038 1.00301 0.0
H1145 H 0.94806 0.55268 0.97797 0.0
C1146 C 0.87757 0.55045 0.09696 0.0
C1147 C 0.87888 0.53617 0.0826 0.0
C1148 C 0.88691 0.56023 0.07324 0.0
C1149 C 0.89772 0.5559 0.03474 0.0
C1150 C 0.89925 0.54164 0.02118 0.0
C1151 C 0.88986 0.53184 0.04471 0.0
C1152 C 0.90731 0.56633 0.00794 0.0
C1153 C 0.92167 0.56521 0.02011 0.0
C1154 C 0.90228 0.57756 0.97231 0.0
C1155 C 0.88735 0.57866 0.95426 0.0
C1156 C 0.88058 0.56734 0.92595 0.0
C1157 C 0.86653 0.56838 0.90908 0.0
C1158 C 0.85912 0.58074 0.91991 0.0
C1159 C 0.86577 0.59209 0.94752 0.0
C1160 C 0.87984 0.59109 0.96454 0.0
C1161 C 0.95451 0.60121 0.86326 0.0
C1162 C 0.95417 0.6155 0.87836 0.0
C1163 C 0.94543 0.59179 0.89111 0.0
C1164 C 0.93578 0.5965 0.93414 0.0
C1165 C 0.9353 0.61077 0.94913 0.0
C1166 C 0.94454 0.62019 0.92184 0.0
C1167 C 0.92613 0.58646 0.96298 0.0
C1168 C 0.91177 0.58762 0.95095 0.0
C1169 C 0.93116 0.57518 0.99821 0.0
C1170 C 0.9462 0.57373 0.01358 0.0
C1171 C 0.95342 0.58473 0.04212 0.0
C1172 C 0.96763 0.58335 0.0559 0.0
C1173 C 0.97472 0.57099 0.04173 0.0
C1174 C 0.96761 0.55996 0.01389 0.0
C1175 C 0.9534 0.56129 0.99995 0.0
H1176 H 0.98573 0.56994 0.05244 0.0
H1177 H 0.84824 0.58153 0.90681 0.0
H1178 H 0.93968 0.8665 0.56046 0.0
H1179 H 0.92374 0.88388 0.51716 0.0
H1180 H 0.94374 0.91632 0.62189 0.0
H1181 H 0.95925 0.89894 0.66702 0.0
H1182 H 0.91713 0.91986 0.62676 0.0
H1183 H 0.94973 0.91108 0.46647 0.0
H1184 H 0.96285 0.89642 0.39456 0.0
H1185 H 0.92434 0.88285 0.31364 0.0
H1186 H 0.91096 0.89721 0.386 0.0
H1187 H 0.89086 0.97899 0.46763 0.0
H1188 H 0.90608 0.96102 0.51085 0.0
H1189 H 0.88321 0.92907 0.41485 0.0
H1190 H 0.86812 0.94697 0.37051 0.0
H1191 H 0.9107 0.92497 0.40576 0.0
H1192 H 0.87838 0.93555 0.5676 0.0
H1193 H 0.86631 0.95046 0.64226 0.0
H1194 H 0.90581 0.96171 0.72078 0.0
H1195 H 0.91813 0.94712 0.64599 0.0
C1196 C 0.94068 0.87735 0.57406 0.0
C1197 C 0.95069 0.88137 0.61709 0.0
C1198 C 0.9316 0.88728 0.54914 0.0
C1199 C 0.93264 0.90146 0.5657 0.0
C1200 C 0.9427 0.90545 0.60851 0.0
C1201 C 0.95158 0.89551 0.63417 0.0
C1202 C 0.92319 0.91217 0.53919 0.0
C1203 C 0.91586 0.92109 0.57838 0.0
C1204 C 0.92131 0.9136 0.47611 0.0
C1205 C 0.92934 0.90511 0.43204 0.0
C1206 C 0.94405 0.9049 0.4336 0.0
C1207 C 0.95154 0.89665 0.39273 0.0
C1208 C 0.94443 0.8887 0.34959 0.0
C1209 C 0.92982 0.889 0.34715 0.0
C1210 C 0.92228 0.89719 0.38809 0.0
C1211 C 0.88908 0.96814 0.45561 0.0
C1212 C 0.87826 0.96441 0.4157 0.0
C1213 C 0.89773 0.95787 0.48067 0.0
C1214 C 0.89564 0.94368 0.46678 0.0
C1215 C 0.88497 0.93996 0.42634 0.0
C1216 C 0.87635 0.95021 0.40107 0.0
C1217 C 0.90473 0.93272 0.49336 0.0
C1218 C 0.91196 0.92373 0.45413 0.0
C1219 C 0.90668 0.93136 0.55644 0.0
C1220 C 0.8992 0.94033 0.60074 0.0
C1221 C 0.88451 0.94132 0.60036 0.0
C1222 C 0.87762 0.94969 0.6428 0.0
C1223 C 0.88531 0.95703 0.68612 0.0
C1224 C 0.89988 0.95603 0.68712 0.0
C1225 C 0.90682 0.94772 0.64473 0.0
H1226 H 0.88002 0.96348 0.71905 0.0
H1227 H 0.95022 0.88232 0.31799 0.0
H1228 H 0.62886 0.94655 0.09925 0.0
H1229 H 0.61308 0.93087 0.04474 0.0
H1230 H 0.5791 0.94318 0.16161 0.0
H1231 H 0.59489 0.9585 0.21745 0.0
H1232 H 0.5795 0.91615 0.14992 0.0
H1233 H 0.58229 0.95495 0.01238 0.0
H1234 H 0.59444 0.97229 0.9487 0.0
H1235 H 0.61232 0.93917 0.84279 0.0
H1236 H 0.60041 0.9216 0.90638 0.0
H1237 H 0.52211 0.88938 0.98471 0.0
H1238 H 0.53902 0.9047 0.03414 0.0
H1239 H 0.57176 0.88869 0.91926 0.0
H1240 H 0.55485 0.87336 0.86904 0.0
H1241 H 0.57293 0.91689 0.92796 0.0
H1242 H 0.56899 0.87819 0.0661 0.0
H1243 H 0.55878 0.86128 0.1379 0.0
H1244 H 0.54321 0.89512 0.24634 0.0
H1245 H 0.55307 0.9122 0.17476 0.0
C1246 C 0.61802 0.94592 0.11327 0.0
C1247 C 0.61312 0.95371 0.16281 0.0
C1248 C 0.60899 0.93703 0.08179 0.0
C1249 C 0.59487 0.93597 0.09861 0.0
C1250 C 0.58997 0.94382 0.14784 0.0
C1251 C 0.59901 0.95257 0.17975 0.0
C1252 C 0.58526 0.92627 0.06681 0.0
C1253 C 0.57787 0.91647 0.10147 0.0
C1254 C 0.58353 0.9264 1.00336 0.0
C1255 C 0.59055 0.93695 0.9645 0.0
C1256 C 0.58888 0.95135 0.97575 0.0
C1257 C 0.59572 0.96123 0.93964 0.0
C1258 C 0.60416 0.95683 0.8918 0.0
C1259 C 0.60577 0.94255 0.87989 0.0
C1260 C 0.59897 0.93263 0.91591 0.0
C1261 C 0.53289 0.88913 0.96973 0.0
C1262 C 0.53714 0.88014 0.92292 0.0
C1263 C 0.54257 0.89783 0.99838 0.0
C1264 C 0.55668 0.8977 0.98093 0.0
C1265 C 0.56092 0.88891 0.93357 0.0
C1266 C 0.55125 0.88015 0.90497 0.0
C1267 C 0.56693 0.90695 0.01142 0.0
C1268 C 0.5745 0.91662 0.97644 0.0
C1269 C 0.56874 0.90681 0.07483 0.0
C1270 C 0.56171 0.89649 0.11478 0.0
C1271 C 0.56318 0.88202 0.10467 0.0
C1272 C 0.55752 0.8724 0.14556 0.0
C1273 C 0.55045 0.87713 0.19691 0.0
C1274 C 0.54874 0.89146 0.20676 0.0
C1275 C 0.55434 0.90111 0.166 0.0
H1276 H 0.54632 0.86968 0.22917 0.0
H1277 H 0.60942 0.9645 0.86386 0.0
H1278 H 0.61956 0.53747 0.4658 0.0
H1279 H 0.60148 0.55163 0.51472 0.0
H1280 H 0.59157 0.57076 0.34318 0.0
H1281 H 0.60895 0.55591 0.29383 0.0
H1282 H 0.59757 0.57698 0.53422 0.0
H1283 H 0.55881 0.58075 0.33195 0.0
H1284 H 0.551 0.56635 0.24592 0.0
H1285 H 0.5631 0.52899 0.34046 0.0
H1286 H 0.57077 0.54315 0.42741 0.0
H1287 H 0.55088 0.63211 0.58973 0.0
H1288 H 0.56788 0.61592 0.54627 0.0
H1289 H 0.5364 0.58349 0.54124 0.0
H1290 H 0.51915 0.59997 0.5815 0.0
H1291 H 0.55018 0.58188 0.44522 0.0
H1292 H 0.56357 0.58476 0.65114 0.0
H1293 H 0.5699 0.59616 0.74717 0.0
H1294 H 0.6061 0.61444 0.66365 0.0
H1295 H 0.59988 0.60331 0.56684 0.0
C1296 C 0.61346 0.54469 0.43872 0.0
C1297 C 0.61549 0.54556 0.37611 0.0
C1298 C 0.60316 0.55279 0.46663 0.0
C1299 C 0.59492 0.56209 0.43253 0.0
C1300 C 0.59741 0.56334 0.37024 0.0
C1301 C 0.60741 0.55495 0.3421 0.0
C1302 C 0.58385 0.57058 0.46208 0.0
C1303 C 0.58719 0.57799 0.51486 0.0
C1304 C 0.57016 0.57165 0.43792 0.0
C1305 C 0.56545 0.56303 0.38601 0.0
C1306 C 0.55972 0.56946 0.33453 0.0
C1307 C 0.55533 0.56134 0.28557 0.0
C1308 C 0.55658 0.54676 0.28767 0.0
C1309 C 0.56217 0.54028 0.33882 0.0
C1310 C 0.56655 0.54835 0.38793 0.0
C1311 C 0.54762 0.62151 0.57949 0.0
C1312 C 0.53376 0.61722 0.58927 0.0
C1313 C 0.55736 0.61224 0.55494 0.0
C1314 C 0.55353 0.59837 0.54165 0.0
C1315 C 0.53962 0.59412 0.55119 0.0
C1316 C 0.52979 0.60351 0.57434 0.0
C1317 C 0.56396 0.5884 0.51691 0.0
C1318 C 0.56052 0.58077 0.46487 0.0
C1319 C 0.57735 0.58663 0.54336 0.0
C1320 C 0.58119 0.59329 0.60159 0.0
C1321 C 0.57283 0.59128 0.65314 0.0
C1322 C 0.57641 0.59769 0.70773 0.0
C1323 C 0.58838 0.60604 0.71147 0.0
C1324 C 0.59682 0.60798 0.66066 0.0
C1325 C 0.59328 0.60161 0.60593 0.0
H1326 H 0.59113 0.611 0.75377 0.0
H1327 H 0.5532 0.5405 0.24969 0.0
H1328 H 0.04247 0.30297 0.16728 0.0
H1329 H 0.04646 0.27937 0.20735 0.0
H1330 H 0.00293 0.27663 0.25791 0.0
H1331 H -0.00107 0.30016 0.21904 0.0
H1332 H 0.01952 0.26816 0.34801 0.0
H1333 H 0.01569 0.25994 0.13298 0.0
H1334 H 0.02213 0.26287 0.02593 0.0
H1335 H 0.0638 0.24858 0.06433 0.0
H1336 H 0.05765 0.24574 0.17183 0.0
H1337 H 0.002 0.19563 0.34489 0.0
H1338 H 0.00482 0.22087 0.3295 0.0
H1339 H 0.04968 0.21592 0.32839 0.0
H1340 H 0.04695 0.19069 0.34543 0.0
H1341 H 0.03704 0.22892 0.22241 0.0
H1342 H 0.03878 0.23315 0.43552 0.0
H1343 H 0.03175 0.23017 0.54173 0.0
H1344 H 0.9932 0.25179 0.50665 0.0
H1345 H -0.00015 0.25465 0.39987 0.0
C1346 C 0.03374 0.29727 0.18652 0.0
C1347 C 0.02038 0.30337 0.18995 0.0
C1348 C 0.03604 0.28381 0.20939 0.0
C1349 C 0.02498 0.27627 0.23551 0.0
C1350 C 0.01162 0.28232 0.23828 0.0
C1351 C 0.00934 0.29573 0.21571 0.0
C1352 C 0.02715 0.26207 0.26039 0.0
C1353 C 0.02326 0.25954 0.3205 0.0
C1354 C 0.03253 0.25098 0.22501 0.0
C1355 C 0.03627 0.25281 0.16054 0.0
C1356 C 0.02626 0.25756 0.11869 0.0
C1357 C 0.02985 0.25917 0.05792 0.0
C1358 C 0.04338 0.25596 0.03838 0.0
C1359 C 0.05334 0.2511 0.07956 0.0
C1360 C 0.04981 0.24948 0.1404 0.0
C1361 C 0.01246 0.19997 0.34251 0.0
C1362 C 0.02426 0.19126 0.34607 0.0
C1363 C 0.01406 0.21437 0.33409 0.0
C1364 C 0.02746 0.22019 0.32813 0.0
C1365 C 0.03927 0.21157 0.33336 0.0
C1366 C 0.03769 0.19721 0.34309 0.0
C1367 C 0.02891 0.23492 0.30929 0.0
C1368 C 0.03352 0.23757 0.25028 0.0
C1369 C 0.02403 0.24607 0.3455 0.0
C1370 C 0.01976 0.24397 0.40934 0.0
C1371 C 0.02871 0.23709 0.45015 0.0
C1372 C 0.02481 0.23546 0.51056 0.0
C1373 C 0.01202 0.24075 0.53088 0.0
C1374 C 0.00309 0.24767 0.49081 0.0
C1375 C 0.00692 0.24929 0.43032 0.0
H1376 H 0.00904 0.23952 0.57772 0.0
H1377 H 0.04613 0.2572 0.9913 0.0
H1378 H 0.298 0.99503 0.85844 0.0
H1379 H 0.27409 -0.00181 0.82269 0.0
H1380 H 0.27662 0.04241 0.86098 0.0
H1381 H 0.30064 0.03929 0.89781 0.0
H1382 H 0.25029 0.03066 0.88796 0.0
H1383 H 0.2826 0.03259 0.72406 0.0
H1384 H 0.30272 0.02443 0.66401 0.0
H1385 H 0.28079 0.98648 0.62124 0.0
H1386 H 0.26066 0.99424 0.68234 0.0
H1387 H 0.19058 0.04075 0.69373 0.0
H1388 H 0.21482 0.04354 0.72873 0.0
H1389 H 0.22004 -0.00133 0.72828 0.0
H1390 H 0.19583 0.9958 0.69473 0.0
H1391 H 0.24307 0.01502 0.67644 0.0
H1392 H 0.21301 0.01152 0.85335 0.0
H1393 H 0.19305 0.01895 0.91622 0.0
H1394 H 0.21081 0.06008 0.93247 0.0
H1395 H 0.2308 0.05293 0.8689 0.0
C1396 C 0.29341 0.00539 0.86023 0.0
C1397 C 0.30121 0.01695 0.88018 0.0
C1398 C 0.27977 0.00718 0.83969 0.0
C1399 C 0.27376 0.02058 0.83807 0.0
C1400 C 0.28116 0.03201 0.86162 0.0
C1401 C 0.29484 0.03021 0.88256 0.0
C1402 C 0.26016 0.0226 0.8077 0.0
C1403 C 0.24875 0.02753 0.84137 0.0
C1404 C 0.25822 0.01846 0.74689 0.0
C1405 C 0.27014 0.01396 0.70833 0.0
C1406 C 0.2821 0.02246 0.70228 0.0
C1407 C 0.29353 0.01788 0.66821 0.0
C1408 C 0.29307 0.00489 0.63927 0.0
C1409 C 0.28115 0.9965 0.644 0.0
C1410 C 0.26973 0.00099 0.67834 0.0
C1411 C 0.19699 0.03152 0.70036 0.0
C1412 C 0.1914 0.01806 0.6919 0.0
C1413 C 0.21076 0.03313 0.7204 0.0
C1414 C 0.2191 0.0213 0.73108 0.0
C1415 C 0.21371 0.0079 0.72007 0.0
C1416 C 0.19991 0.00628 0.70122 0.0
C1417 C 0.2332 0.0227 0.75721 0.0
C1418 C 0.2447 0.01844 0.72261 0.0
C1419 C 0.23522 0.02749 0.81694 0.0
C1420 C 0.2233 0.03175 0.85574 0.0
C1421 C 0.21259 0.02219 0.86987 0.0
C1422 C 0.20129 0.02634 0.9057 0.0
C1423 C 0.20063 0.03999 0.92811 0.0
C1424 C 0.21131 0.04951 0.91494 0.0
C1425 C 0.22264 0.04541 0.87904 0.0
H1426 H 0.19186 0.04318 0.95582 0.0
H1427 H 0.30189 0.00139 0.6126 0.0
H1428 H 0.45278 0.30446 0.34304 0.0
H1429 H 0.44886 0.28137 0.29781 0.0
H1430 H 0.49291 0.27819 0.257 0.0
H1431 H 0.49684 0.30124 0.30097 0.0
H1432 H 0.47723 0.27139 0.16107 0.0
H1433 H 0.47803 0.2604 0.3752 0.0
H1434 H 0.46994 0.26235 0.48057 0.0
H1435 H 0.42873 0.24939 0.42723 0.0
H1436 H 0.43654 0.24754 0.32135 0.0
H1437 H 0.49563 0.1997 0.15162 0.0
H1438 H 0.49191 0.22459 0.17242 0.0
H1439 H 0.44724 0.21846 0.16347 0.0
H1440 H 0.45089 0.19356 0.14109 0.0
H1441 H 0.45793 0.23083 0.27351 0.0
H1442 H 0.45893 0.23763 0.06176 0.0
H1443 H 0.46734 0.2357 0.95694 0.0
H1444 H 0.50558 0.25638 1.00575 0.0
H1445 H 0.49752 0.25824 0.11111 0.0
C1446 C 0.46163 0.29874 0.32503 0.0
C1447 C 0.47512 0.30461 0.32556 0.0
C1448 C 0.45937 0.28559 0.29913 0.0
C1449 C 0.4706 0.27811 0.27402 0.0
C1450 C 0.48409 0.28386 0.27572 0.0
C1451 C 0.48634 0.29698 0.30122 0.0
C1452 C 0.46846 0.26431 0.24531 0.0
C1453 C 0.47308 0.26248 0.18569 0.0
C1454 C 0.46251 0.25288 0.27673 0.0
C1455 C 0.45782 0.25401 0.3403 0.0
C1456 C 0.46721 0.25809 0.38588 0.0
C1457 C 0.46268 0.25915 0.4457 0.0
C1458 C 0.44882 0.25604 0.46056 0.0
C1459 C 0.43946 0.25183 0.41564 0.0
C1460 C 0.44393 0.25077 0.35573 0.0
C1461 C 0.48503 0.20372 0.15307 0.0
C1462 C 0.47354 0.19476 0.14504 0.0
C1463 C 0.48292 0.21792 0.16457 0.0
C1464 C 0.46931 0.2233 0.16914 0.0
C1465 C 0.45781 0.21446 0.15966 0.0
C1466 C 0.45992 0.20029 0.14688 0.0
C1467 C 0.46728 0.2378 0.19028 0.0
C1468 C 0.46183 0.23978 0.24843 0.0
C1469 C 0.47258 0.24934 0.15767 0.0
C1470 C 0.47766 0.24795 0.0946 0.0
C1471 C 0.46921 0.24161 0.05037 0.0
C1472 C 0.4739 0.24057 0.99077 0.0
C1473 C 0.487 0.24588 0.97473 0.0
C1474 C 0.49545 0.25224 0.01827 0.0
C1475 C 0.49081 0.25331 0.07793 0.0
H1476 H 0.4906 0.2451 0.92853 0.0
H1477 H 0.44533 0.25687 0.5069 0.0
H1478 H 0.30602 0.45232 0.67914 0.0
H1479 H 0.2805 0.45035 0.68687 0.0
H1480 H 0.28041 0.48161 0.82753 0.0
H1481 H 0.30575 0.484 0.81827 0.0
H1482 H 0.26178 0.44368 0.76902 0.0
H1483 H 0.25347 0.50324 0.81215 0.0
H1484 H 0.26509 0.52561 0.78781 0.0
H1485 H 0.28419 0.50684 0.6322 0.0
H1486 H 0.27252 0.48444 0.65505 0.0
H1487 H 0.19235 0.45615 0.8701 0.0
H1488 H 0.21765 0.45393 0.85538 0.0
H1489 H 0.21475 0.47921 0.69406 0.0
H1490 H 0.18968 0.48213 0.711 0.0
H1491 H 0.23497 0.48802 0.75266 0.0
H1492 H 0.22109 0.44212 0.69436 0.0
H1493 H 0.20936 0.41922 0.70346 0.0
H1494 H 0.2339 0.40969 0.86055 0.0
H1495 H 0.24566 0.43262 0.85288 0.0
C1496 C 0.30053 0.45867 0.71201 0.0
C1497 C 0.30776 0.46846 0.74749 0.0
C1498 C 0.28598 0.45751 0.71651 0.0
C1499 C 0.27854 0.46604 0.75691 0.0
C1500 C 0.28591 0.47518 0.79498 0.0
C1501 C 0.30037 0.47652 0.78974 0.0
C1502 C 0.26304 0.46603 0.75716 0.0
C1503 C 0.25587 0.45334 0.76536 0.0
C1504 C 0.25535 0.4786 0.75041 0.0
C1505 C 0.26221 0.49213 0.73569 0.0
C1506 C 0.26009 0.50391 0.77257 0.0
C1507 C 0.2667 0.5166 0.75905 0.0
C1508 C 0.27541 0.51764 0.70859 0.0
C1509 C 0.27748 0.50601 0.67138 0.0
C1510 C 0.27088 0.49332 0.68461 0.0
C1511 C 0.19716 0.46113 0.83136 0.0
C1512 C 0.18918 0.46937 0.79183 0.0
C1513 C 0.21159 0.45978 0.82267 0.0
C1514 C 0.21814 0.46628 0.77319 0.0
C1515 C 0.20999 0.47416 0.73277 0.0
C1516 C 0.19568 0.47582 0.74238 0.0
C1517 C 0.23356 0.46566 0.76544 0.0
C1518 C 0.24077 0.47828 0.75599 0.0
C1519 C 0.2412 0.45296 0.76859 0.0
C1520 C 0.23417 0.43914 0.77332 0.0
C1521 C 0.22392 0.43518 0.7311 0.0
C1522 C 0.21727 0.42219 0.73597 0.0
C1523 C 0.22086 0.41302 0.78264 0.0
C1524 C 0.23112 0.41681 0.82446 0.0
C1525 C 0.2378 0.4298 0.81983 0.0
H1526 H 0.2157 0.40296 0.78632 0.0
H1527 H 0.28053 0.52746 0.69827 0.0
H1528 H 0.99271 0.80114 0.6731 0.0
H1529 H 0.99038 0.77611 0.69377 0.0
H1530 H 0.94543 0.78019 0.69491 0.0
H1531 H 0.94768 0.80534 0.67286 0.0
H1532 H 0.95855 0.76589 0.79962 0.0
H1533 H 0.9567 0.76436 0.58398 0.0
H1534 H 0.96435 0.76998 0.48053 0.0
H1535 H 0.004 0.7503 0.51419 0.0
H1536 H 0.99667 0.74475 0.61822 0.0
H1537 H 0.95218 0.69129 0.82841 0.0
H1538 H 0.94899 0.71577 0.79863 0.0
H1539 H 0.99247 0.71806 0.74688 0.0
H1540 H 0.99565 0.69358 0.77533 0.0
H1541 H 0.97649 0.72904 0.66209 0.0
H1542 H 0.98012 0.73286 0.87803 0.0
H1543 H 0.9739 0.72812 0.98407 0.0
H1544 H 0.93252 0.74414 0.95318 0.0
H1545 H 0.93844 0.74878 0.84663 0.0
C1546 C 0.98232 0.79669 0.67728 0.0
C1547 C 0.97036 0.80512 0.6714 0.0
C1548 C 0.98101 0.78241 0.68891 0.0
C1549 C 0.96774 0.77637 0.69563 0.0
C1550 C 0.95575 0.78473 0.68965 0.0
C1551 C 0.95705 0.79902 0.67685 0.0
C1552 C 0.96663 0.76139 0.71108 0.0
C1553 C 0.96215 0.75774 0.76923 0.0
C1554 C 0.97171 0.75093 0.67171 0.0
C1555 C 0.97616 0.75424 0.60911 0.0
C1556 C 0.9671 0.76134 0.56953 0.0
C1557 C 0.97137 0.76449 0.51073 0.0
C1558 C 0.98467 0.76053 0.49084 0.0
C1559 C 0.99371 0.75338 0.52968 0.0
C1560 C 0.98949 0.75021 0.58855 0.0
C1561 C 0.96107 0.69705 0.81104 0.0
C1562 C 0.97417 0.69054 0.80416 0.0
C1563 C 0.95924 0.71104 0.79418 0.0
C1564 C 0.97051 0.71875 0.77079 0.0
C1565 C 0.98362 0.71228 0.76459 0.0
C1566 C 0.98544 0.69831 0.78108 0.0
C1567 C 0.96869 0.73348 0.75134 0.0
C1568 C 0.97265 0.7371 0.69234 0.0
C1569 C 0.96329 0.74392 0.79027 0.0
C1570 C 0.95967 0.74099 0.85413 0.0
C1571 C 0.96965 0.73523 0.89366 0.0
C1572 C 0.96619 0.73259 0.9539 0.0
C1573 C 0.95281 0.73578 0.9753 0.0
C1574 C 0.94287 0.74164 0.93651 0.0
C1575 C 0.94627 0.74427 0.87619 0.0
H1576 H 0.95015 0.73374 0.02197 0.0
H1577 H 0.98795 0.76297 0.44529 0.0
H1578 H 0.80111 0.00063 0.28641 0.0
H1579 H 0.77576 0.99772 0.27798 0.0
H1580 H 0.78015 0.95334 0.30886 0.0
H1581 H 0.80559 0.9562 0.31843 0.0
H1582 H 0.76248 0.96186 0.20595 0.0
H1583 H 0.76836 0.96967 0.41827 0.0
H1584 H 0.77739 0.98196 0.50801 0.0
H1585 H 0.75577 0.01938 0.45441 0.0
H1586 H 0.7468 0.00738 0.36376 0.0
H1587 H 0.68835 0.95365 0.22523 0.0
H1588 H 0.71351 0.952 0.24494 0.0
H1589 H 0.71554 0.99691 0.26572 0.0
H1590 H 0.69038 -0.00147 0.2484 0.0
H1591 H 0.73026 0.98527 0.34969 0.0
H1592 H 0.72647 0.9792 0.13415 0.0
H1593 H 0.7181 0.96815 0.04027 0.0
H1594 H 0.73616 0.92896 0.09492 0.0
H1595 H 0.74449 0.93975 0.18954 0.0
C1596 C 0.79668 0.99025 0.29139 0.0
C1597 C 0.80528 0.97864 0.30314 0.0
C1598 C 0.78223 0.98862 0.28674 0.0
C1599 C 0.77616 0.97533 0.2931 0.0
C1600 C 0.7847 0.96367 0.30395 0.0
C1601 C 0.79918 0.96533 0.30957 0.0
C1602 C 0.76084 0.97377 0.28806 0.0
C1603 C 0.75537 0.96673 0.23788 0.0
C1604 C 0.75171 0.98042 0.32917 0.0
C1605 C 0.757 0.98765 0.38393 0.0
C1606 C 0.76563 0.98055 0.42533 0.0
C1607 C 0.77072 0.98747 0.47642 0.0
C1608 C 0.76718 0.00145 0.48684 0.0
C1609 C 0.75852 0.00855 0.44625 0.0
C1610 C 0.75341 0.00169 0.39504 0.0
C1611 C 0.69419 0.96315 0.23396 0.0
C1612 C 0.68745 0.97622 0.23517 0.0
C1613 C 0.70857 0.96221 0.24501 0.0
C1614 C 0.71646 0.97435 0.25614 0.0
C1615 C 0.70968 0.98739 0.25744 0.0
C1616 C 0.69531 0.98831 0.24733 0.0
C1617 C 0.73177 0.97361 0.26658 0.0
C1618 C 0.73728 0.98023 0.31795 0.0
C1619 C 0.74095 0.96673 0.22605 0.0
C1620 C 0.73595 0.96024 0.16921 0.0
C1621 C 0.72855 0.9682 0.12636 0.0
C1622 C 0.72384 0.96199 0.07298 0.0
C1623 C 0.72656 0.94785 0.06173 0.0
C1624 C 0.73404 0.9399 0.10376 0.0
C1625 C 0.73876 0.94606 0.15725 0.0
H1626 H 0.7229 0.94306 0.02037 0.0
H1627 H 0.77114 0.00679 0.52642 0.0
H1628 H 0.50343 0.80314 0.78232 0.0
H1629 H 0.50655 0.77795 0.76908 0.0
H1630 H 0.55118 0.78268 0.78916 0.0
H1631 H 0.54813 0.80803 0.80376 0.0
H1632 H 0.54011 0.76532 0.68385 0.0
H1633 H 0.53848 0.76977 0.89926 0.0
H1634 H 0.52902 0.77844 0.99578 0.0
H1635 H 0.4899 0.75799 0.95973 0.0
H1636 H 0.49904 0.74939 0.86246 0.0
H1637 H 0.54449 0.69025 0.68756 0.0
H1638 H 0.54847 0.71507 0.70962 0.0
H1639 H 0.50468 0.72002 0.75249 0.0
H1640 H 0.50076 0.69523 0.73241 0.0
H1641 H 0.51984 0.73253 0.83402 0.0
H1642 H 0.5194 0.73102 0.61578 0.0
H1643 H 0.52731 0.7232 0.51534 0.0
H1644 H 0.56864 0.7386 0.55255 0.0
H1645 H 0.56101 0.74635 0.65358 0.0
C1646 C 0.51392 0.79884 0.78376 0.0
C1647 C 0.52555 0.8075 0.7941 0.0
C1648 C 0.51567 0.78447 0.77635 0.0
C1649 C 0.52907 0.77854 0.77844 0.0
C1650 C 0.54077 0.78715 0.78754 0.0
C1651 C 0.539 0.80155 0.79603 0.0
C1652 C 0.5306 0.76328 0.77143 0.0
C1653 C 0.536 0.75807 0.71713 0.0
C1654 C 0.52494 0.75398 0.81454 0.0
C1655 C 0.51943 0.75903 0.8733 0.0
C1656 C 0.52782 0.76722 0.91165 0.0
C1657 C 0.52252 0.77211 0.96655 0.0
C1658 C 0.50886 0.76879 0.98382 0.0
C1659 C 0.50048 0.76055 0.94628 0.0
C1660 C 0.50572 0.75566 0.89128 0.0
C1661 C 0.53573 0.69667 0.70152 0.0
C1662 C 0.52232 0.69085 0.70827 0.0
C1663 C 0.53801 0.71084 0.71397 0.0
C1664 C 0.52685 0.71942 0.73233 0.0
C1665 C 0.51345 0.71358 0.7387 0.0
C1666 C 0.51121 0.69943 0.72699 0.0
C1667 C 0.52897 0.73448 0.74542 0.0
C1668 C 0.52424 0.73968 0.80105 0.0
C1669 C 0.53509 0.74377 0.70312 0.0
C1670 C 0.53968 0.73909 0.64248 0.0
C1671 C 0.53021 0.73263 0.60273 0.0
C1672 C 0.53463 0.72823 0.54567 0.0
C1673 C 0.54849 0.73036 0.52766 0.0
C1674 C 0.55793 0.73692 0.56662 0.0
C1675 C 0.55355 0.74132 0.62377 0.0
H1676 H 0.55189 0.72695 0.48345 0.0
H1677 H 0.50477 0.77258 0.02634 0.0
H1678 H 0.80085 0.50304 0.21628 0.0
H1679 H 0.77599 0.50646 0.2366 0.0
H1680 H 0.78133 0.5512 0.22331 0.0
H1681 H 0.80638 0.54784 0.20167 0.0
H1682 H 0.76575 0.53956 0.33165 0.0
H1683 H 0.76599 0.53954 0.11545 0.0
H1684 H 0.77254 0.53081 0.01465 0.0
H1685 H 0.75234 0.4916 0.05223 0.0
H1686 H 0.74586 0.50002 0.15369 0.0
H1687 H 0.69076 0.54582 0.34723 0.0
H1688 H 0.71552 0.54899 0.32229 0.0
H1689 H 0.71865 0.50515 0.27684 0.0
H1690 H 0.69391 0.502 0.30027 0.0
H1691 H 0.72993 0.52068 0.19139 0.0
H1692 H 0.73234 0.51872 0.40876 0.0
H1693 H 0.7266 0.52594 0.5127 0.0
H1694 H 0.74229 0.56724 0.47652 0.0
H1695 H 0.74796 0.5603 0.37204 0.0
C1696 C 0.79675 0.51362 0.2176 0.0
C1697 C 0.80549 0.52519 0.20743 0.0
C1698 C 0.78257 0.51554 0.22906 0.0
C1699 C 0.77692 0.52906 0.2312 0.0
C1700 C 0.78559 0.5407 0.22168 0.0
C1701 C 0.79981 0.53876 0.20914 0.0
C1702 C 0.76189 0.53076 0.2438 0.0
C1703 C 0.75782 0.53577 0.30059 0.0
C1704 C 0.75173 0.52547 0.20356 0.0
C1705 C 0.75552 0.52039 0.14238 0.0
C1706 C 0.76304 0.52902 0.10244 0.0
C1707 C 0.76673 0.52413 0.04513 0.0
C1708 C 0.76288 0.51065 0.02709 0.0
C1709 C 0.75532 0.50204 0.06628 0.0
C1710 C 0.75162 0.50687 0.12367 0.0
C1711 C 0.69678 0.53684 0.33248 0.0
C1712 C 0.69043 0.52366 0.32555 0.0
C1713 C 0.71091 0.53866 0.31835 0.0
C1714 C 0.71892 0.5273 0.29784 0.0
C1715 C 0.71264 0.51408 0.29225 0.0
C1716 C 0.69852 0.51228 0.30587 0.0
C1717 C 0.73373 0.52913 0.28013 0.0
C1718 C 0.73776 0.52476 0.22221 0.0
C1719 C 0.74386 0.53486 0.31968 0.0
C1720 C 0.7404 0.53905 0.38237 0.0
C1721 C 0.73445 0.52938 0.42279 0.0
C1722 C 0.73123 0.53341 0.48184 0.0
C1723 C 0.73404 0.54705 0.50114 0.0
C1724 C 0.7401 0.55668 0.46147 0.0
C1725 C 0.74332 0.55271 0.40235 0.0
H1726 H 0.73155 0.55015 0.54687 0.0
H1727 H 0.76574 0.50689 0.9827 0.0
H1728 H 0.02655 0.34711 0.91112 0.0
H1729 H 0.03083 0.34791 0.80259 0.0
H1730 H 0.99646 0.31947 0.77297 0.0
H1731 H 0.99256 0.31804 0.88138 0.0
H1732 H 0.01688 0.31308 0.69909 0.0
H1733 H 0.99312 0.35555 0.75271 0.0
H1734 H 0.98933 0.37742 0.80955 0.0
H1735 H 0.0287 0.39337 0.74632 0.0
H1736 H 0.03281 0.3715 0.68969 0.0
H1737 H 0.00705 0.32824 0.38611 0.0
H1738 H 0.00395 0.3254 0.49473 0.0
H1739 H 0.03865 0.35327 0.52704 0.0
H1740 H 0.0414 0.35671 0.41882 0.0
H1741 H 0.01794 0.35958 0.59937 0.0
H1742 H 0.04095 0.31661 0.54174 0.0
H1743 H 0.04374 0.29472 0.48394 0.0
H1744 H 0.0046 0.27959 0.55317 0.0
H1745 H 0.00147 0.30149 0.61072 0.0
C1746 C 0.02002 0.34084 0.88183 0.0
C1747 C 0.00908 0.33264 0.90553 0.0
C1748 C 0.0224 0.34143 0.81947 0.0
C1749 C 0.01379 0.33397 0.77923 0.0
C1750 C 0.0032 0.3254 0.80285 0.0
C1751 C 0.00088 0.32473 0.86512 0.0
C1752 C 0.01554 0.33538 0.71257 0.0
C1753 C 0.01697 0.32324 0.67721 0.0
C1754 C 0.01582 0.34863 0.68382 0.0
C1755 C 0.01333 0.36183 0.71747 0.0
C1756 C 0.00101 0.36368 0.75126 0.0
C1757 C -0.0012 0.37608 0.78339 0.0
C1758 C 0.00878 0.38676 0.78168 0.0
C1759 C 0.02098 0.38508 0.74767 0.0
C1760 C 0.02325 0.37269 0.71551 0.0
C1761 C 0.01397 0.33388 0.41608 0.0
C1762 C 0.02453 0.34269 0.39312 0.0
C1763 C 0.01228 0.3321 0.47844 0.0
C1764 C 0.0212 0.33895 0.51932 0.0
C1765 C 0.03168 0.3478 0.49657 0.0
C1766 C 0.03332 0.34965 0.43439 0.0
C1767 C 0.01944 0.33729 0.58582 0.0
C1768 C 0.01793 0.3494 0.62118 0.0
C1769 C 0.01897 0.324 0.61434 0.0
C1770 C 0.02091 0.31077 0.58011 0.0
C1771 C 0.03289 0.30866 0.54432 0.0
C1772 C 0.03453 0.29624 0.51163 0.0
C1773 C 0.02433 0.28578 0.51474 0.0
C1774 C 0.01248 0.28771 0.55072 0.0
C1775 C 0.01077 0.30012 0.58342 0.0
H1776 H 0.02562 0.27618 0.48939 0.0
H1777 H 0.00706 0.39636 0.80659 0.0
H1778 H 0.13281 0.03606 0.92688 0.0
H1779 H 0.13522 0.03279 0.0357 0.0
H1780 H 0.1699 0.00469 1.00608 0.0
H1781 H 0.16735 0.00778 0.89678 0.0
H1782 H 0.15359 0.99454 0.09128 0.0
H1783 H 0.17466 0.03907 0.05439 0.0
H1784 H 0.17616 0.0632 0.01523 0.0
H1785 H 0.14122 0.07526 0.12546 0.0
H1786 H 0.13938 0.05114 0.16465 0.0
H1787 H 0.1791 0.99541 0.39207 0.0
H1788 H 0.1769 -0.00101 0.28343 0.0
H1789 H 0.13957 0.0234 0.31192 0.0
H1790 H 0.14162 0.01985 0.4209 0.0
H1791 H 0.15736 0.03553 0.22794 0.0
H1792 H 0.13677 0.99042 0.26449 0.0
H1793 H 0.13609 0.96627 0.30386 0.0
H1794 H 0.17146 0.95537 0.19398 0.0
H1795 H 0.17248 0.97953 0.15458 0.0
C1796 C 0.141 0.02923 0.94351 0.0
C1797 C 0.14994 0.02224 0.90309 0.0
C1798 C 0.14238 0.02739 1.00585 0.0
C1799 C 0.1529 0.01868 0.02946 0.0
C1800 C 0.16171 0.01148 0.98915 0.0
C1801 C 0.16022 0.01322 0.92663 0.0
C1802 C 0.15463 0.01705 0.09609 0.0
C1803 C 0.15464 0.00351 0.12095 0.0
C1804 C 0.1557 0.02873 0.13533 0.0
C1805 C 0.1568 0.04326 0.11203 0.0
C1806 C 0.16723 0.04684 0.06994 0.0
C1807 C 0.16815 0.06052 0.04779 0.0
C1808 C 0.15877 0.07075 0.06773 0.0
C1809 C 0.14847 0.06732 0.11 0.0
C1810 C 0.14749 0.05365 0.13225 0.0
C1811 C 0.17038 0.00151 0.37544 0.0
C1812 C 0.16049 0.00726 0.41556 0.0
C1813 C 0.16916 0.00357 0.31315 0.0
C1814 C 0.158 0.01138 0.28934 0.0
C1815 C 0.14831 0.01743 0.32921 0.0
C1816 C 0.14952 0.0154 0.39163 0.0
C1817 C 0.15637 0.01305 0.22283 0.0
C1818 C 0.15635 0.02658 0.1981 0.0
C1819 C 0.15542 0.00136 0.18366 0.0
C1820 C 0.15478 0.98682 0.20704 0.0
C1821 C 0.14447 0.9829 0.24908 0.0
C1822 C 0.14401 0.96921 0.27134 0.0
C1823 C 0.15374 0.9593 0.25155 0.0
C1824 C 0.16394 0.96306 0.20933 0.0
C1825 C 0.16445 0.97675 0.18698 0.0
H1826 H 0.15337 0.94871 0.26883 0.0
H1827 H 0.15949 0.08133 0.05052 0.0
H1828 H 0.50819 0.15475 0.86497 0.0
H1829 H 0.50375 0.1542 0.75677 0.0
H1830 H 0.45988 0.16165 0.78894 0.0
H1831 H 0.46427 0.16225 0.89796 0.0
H1832 H 0.46354 0.14188 0.70343 0.0
H1833 H 0.48125 0.18798 0.73918 0.0
H1834 H 0.49778 0.20565 0.77788 0.0
H1835 H 0.53045 0.1884 0.6676 0.0
H1836 H 0.51416 0.17049 0.62884 0.0
H1837 H 0.44695 0.15994 0.4007 0.0
H1838 H 0.45067 0.16061 0.50945 0.0
H1839 H 0.49456 0.15216 0.48304 0.0
H1840 H 0.4909 0.15127 0.3738 0.0
H1841 H 0.49046 0.1728 0.56581 0.0
H1842 H 0.47267 0.12653 0.53097 0.0
H1843 H 0.45604 0.10894 0.49237 0.0
H1844 H 0.42334 0.12671 0.60096 0.0
H1845 H 0.43973 0.14454 0.63958 0.0
C1846 C 0.4976 0.15642 0.84927 0.0
C1847 C 0.48662 0.15873 0.89047 0.0
C1848 C 0.49507 0.15607 0.78717 0.0
C1849 C 0.48152 0.15813 0.76442 0.0
C1850 C 0.47044 0.16008 0.80534 0.0
C1851 C 0.47296 0.1604 0.86773 0.0
C1852 C 0.479 0.15822 0.69798 0.0
C1853 C 0.46927 0.1488 0.67346 0.0
C1854 C 0.48669 0.16702 0.65851 0.0
C1855 C 0.49651 0.17782 0.68152 0.0
C1856 C 0.49198 0.18789 0.72352 0.0
C1857 C 0.50131 0.19796 0.74541 0.0
C1858 C 0.51516 0.19813 0.72532 0.0
C1859 C 0.51972 0.18825 0.68317 0.0
C1860 C 0.51044 0.17814 0.66118 0.0
C1861 C 0.45739 0.15807 0.41773 0.0
C1862 C 0.46859 0.15542 0.37801 0.0
C1863 C 0.4595 0.1585 0.48017 0.0
C1864 C 0.47287 0.15625 0.50465 0.0
C1865 C 0.48415 0.1539 0.46526 0.0
C1866 C 0.48204 0.15345 0.40266 0.0
C1867 C 0.47504 0.15642 0.57128 0.0
C1868 C 0.48471 0.1659 0.59581 0.0
C1869 C 0.46727 0.14769 0.61073 0.0
C1870 C 0.4574 0.13696 0.58769 0.0
C1871 C 0.4619 0.12676 0.54624 0.0
C1872 C 0.45253 0.11673 0.52443 0.0
C1873 C 0.43863 0.11673 0.54408 0.0
C1874 C 0.4341 0.12674 0.58571 0.0
C1875 C 0.44343 0.1368 0.60761 0.0
H1876 H 0.43139 0.10895 0.52715 0.0
H1877 H 0.52237 0.20593 0.74232 0.0
H1878 H 0.33181 0.48016 0.95931 0.0
H1879 H 0.32931 0.48352 0.06826 0.0
H1880 H 0.36593 0.45803 0.09868 0.0
H1881 H 0.36828 0.45444 0.98994 0.0
H1882 H 0.3468 0.45082 0.17521 0.0
H1883 H 0.36593 0.49487 0.11297 0.0
H1884 H 0.36729 0.51661 0.05314 0.0
H1885 H 0.32706 0.52931 0.11983 0.0
H1886 H 0.32536 0.50755 0.17946 0.0
H1887 H 0.35801 0.46995 0.48345 0.0
H1888 H 0.36008 0.46653 0.37442 0.0
H1889 H 0.32149 0.48888 0.34663 0.0
H1890 H 0.31927 0.49238 0.4554 0.0
H1891 H 0.34146 0.49764 0.26916 0.0
H1892 H 0.32351 0.45343 0.33674 0.0
H1893 H 0.32296 0.4316 0.39602 0.0
H1894 H 0.36213 0.41894 0.31842 0.0
H1895 H 0.36312 0.44087 0.25978 0.0
C1896 C 0.33941 0.4754 0.98919 0.0
C1897 C 0.35025 0.46704 0.96585 0.0
C1898 C 0.33798 0.47734 0.0516 0.0
C1899 C 0.34752 0.47116 0.09207 0.0
C1900 C 0.35839 0.46287 0.06868 0.0
C1901 C 0.35973 0.46082 1.0064 0.0
C1902 C 0.34602 0.47303 0.15874 0.0
C1903 C 0.34585 0.46108 0.19579 0.0
C1904 C 0.34445 0.48639 0.1858 0.0
C1905 C 0.34546 0.49951 0.15022 0.0
C1906 C 0.35732 0.50225 0.11454 0.0
C1907 C 0.35816 0.51459 0.08072 0.0
C1908 C 0.34725 0.52432 0.08256 0.0
C1909 C 0.33549 0.52176 0.11838 0.0
C1910 C 0.33459 0.50943 0.15224 0.0
C1911 C 0.34984 0.47397 0.45435 0.0
C1912 C 0.33846 0.48145 0.47855 0.0
C1913 C 0.35107 0.472 0.39191 0.0
C1914 C 0.34091 0.47731 0.35219 0.0
C1915 C 0.3295 0.4847 0.37621 0.0
C1916 C 0.32827 0.48672 0.43857 0.0
C1917 C 0.34231 0.47542 0.28559 0.0
C1918 C 0.34244 0.48738 0.24857 0.0
C1919 C 0.34401 0.46207 0.25866 0.0
C1920 C 0.34348 0.44892 0.29443 0.0
C1921 C 0.3321 0.44609 0.33286 0.0
C1922 C 0.3317 0.43368 0.36629 0.0
C1923 C 0.34252 0.42391 0.36114 0.0
C1924 C 0.35375 0.42651 0.32237 0.0
C1925 C 0.35425 0.43895 0.28912 0.0
H1926 H 0.34219 0.4143 0.38705 0.0
H1927 H 0.34792 0.53386 0.05634 0.0
H1928 H 0.03301 0.1405 0.58068 0.0
H1929 H 0.0381 0.14019 0.68903 0.0
H1930 H -0.00042 0.16232 0.72379 0.0
H1931 H 0.99479 0.16327 0.61627 0.0
H1932 H 0.01939 0.17327 0.78812 0.0
H1933 H 0.00395 0.12638 0.74632 0.0
H1934 H 0.00411 0.10306 0.69859 0.0
H1935 H 0.04535 0.09538 0.76812 0.0
H1936 H 0.04559 0.1188 0.81503 0.0
H1937 H 0.01075 0.16146 0.10174 0.0
H1938 H 0.00771 0.16085 0.99209 0.0
H1939 H 0.04855 0.14216 0.97264 0.0
H1940 H 0.05153 0.14247 0.08222 0.0
H1941 H 0.02914 0.12943 0.90059 0.0
H1942 H 0.04421 0.17632 0.94338 0.0
H1943 H 0.04341 0.19923 0.99464 0.0
H1944 H 0.00205 0.2064 0.9254 0.0
H1945 H 0.00253 0.18343 0.87439 0.0
C1946 C 0.02569 0.14541 0.61131 0.0
C1947 C 0.01344 0.15185 0.58938 0.0
C1948 C 0.02854 0.14509 0.6734 0.0
C1949 C 0.01914 0.15109 0.71483 0.0
C1950 C 0.00699 0.15759 0.69292 0.0
C1951 C 0.00418 0.15798 0.63114 0.0
C1952 C 0.0219 0.1509 0.781 0.0
C1953 C 0.02138 0.16364 0.81266 0.0
C1954 C 0.02486 0.13839 0.81312 0.0
C1955 C 0.02486 0.12444 0.78358 0.0
C1956 C 0.01313 0.1198 0.7508 0.0
C1957 C 0.01313 0.10654 0.72401 0.0
C1958 C 0.02472 0.09774 0.73036 0.0
C1959 C 0.03636 0.10219 0.76338 0.0
C1960 C 0.03645 0.11548 0.78987 0.0
C1961 C 0.01902 0.1571 0.07421 0.0
C1962 C 0.03142 0.15209 0.10081 0.0
C1963 C 0.01732 0.15686 0.01149 0.0
C1964 C 0.02798 0.15161 0.97409 0.0
C1965 C 0.04022 0.14632 1.00056 0.0
C1966 C 0.04195 0.14662 0.06321 0.0
C1967 C 0.0264 0.15174 0.90735 0.0
C1968 C 0.02721 0.13903 0.87574 0.0
C1969 C 0.02364 0.16424 0.8752 0.0
C1970 C 0.02336 0.1781 0.9055 0.0
C1971 C 0.0349 0.18274 0.93945 0.0
C1972 C 0.03451 0.19574 0.9684 0.0
C1973 C 0.02267 0.20425 0.96339 0.0
C1974 C 0.01121 0.19979 0.92929 0.0
C1975 C 0.01154 0.18679 0.9003 0.0
H1976 H 0.02239 0.21431 0.98584 0.0
H1977 H 0.02471 0.08749 0.70958 0.0
H1978 H 0.3489 0.02528 0.13712 0.0
H1979 H 0.34887 0.03012 0.24556 0.0
H1980 H 0.32307 0.99373 0.27594 0.0
H1981 H 0.32261 0.98915 0.16779 0.0
H1982 H 0.31428 0.01484 0.34395 0.0
H1983 H 0.35869 0.99319 0.30182 0.0
H1984 H 0.38136 0.99055 0.24987 0.0
H1985 H 0.39402 0.0312 0.31218 0.0
H1986 H 0.37134 0.03415 0.36388 0.0
H1987 H 0.32714 0.0052 0.65895 0.0
H1988 H 0.32586 0.00214 0.54931 0.0
H1989 H 0.34977 0.03999 0.5242 0.0
H1990 H 0.35124 0.043 0.63351 0.0
H1991 H 0.35938 0.01884 0.45351 0.0
H1992 H 0.31529 0.04012 0.49893 0.0
H1993 H 0.29241 0.04303 0.54877 0.0
H1994 H 0.27905 0.00316 0.4804 0.0
H1995 H 0.30194 -0.0001 0.43084 0.0
C1996 C 0.34308 0.0184 0.16672 0.0
C1997 C 0.33587 0.00674 0.1435 0.0
C1998 C 0.34318 0.02111 0.22887 0.0
C1999 C 0.33614 0.01216 0.26915 0.0
C2000 C 0.32864 0.00075 0.24592 0.0
C2001 C 0.32851 -0.00194 0.18393 0.0
C2002 C 0.33674 0.0145 0.33557 0.0
C2003 C 0.32414 0.01554 0.36801 0.0
C2004 C 0.3496 0.01573 0.36693 0.0
C2005 C 0.36327 0.01394 0.33618 0.0
C2006 C 0.36627 0.0016 0.30407 0.0
C2007 C 0.37913 5e-05 0.27473 0.0
C2008 C 0.38911 0.01072 0.27758 0.0
C2009 C 0.38627 0.02295 0.30993 0.0
C2010 C 0.37342 0.02456 0.3393 0.0
C2011 C 0.33219 0.01282 0.63012 0.0
C2012 C 0.33925 0.02438 0.65508 0.0
C2013 C 0.33134 0.01113 0.56743 0.0
C2014 C 0.3376 0.02091 0.52849 0.0
C2015 C 0.3448 0.03235 0.55331 0.0
C2016 C 0.34555 0.0341 0.61585 0.0
C2017 C 0.33693 0.01911 0.4619 0.0
C2018 C 0.34951 0.01815 0.42946 0.0
C2019 C 0.32406 0.01793 0.43064 0.0
C2020 C 0.31039 0.01971 0.46156 0.0
C2021 C 0.30753 0.0319 0.49498 0.0
C2022 C 0.29453 0.03365 0.52294 0.0
C2023 C 0.28426 0.02332 0.51747 0.0
C2024 C 0.28699 0.01119 0.48431 0.0
C2025 C 0.29998 0.00938 0.45631 0.0
H2026 H 0.27422 0.02468 0.5393 0.0
H2027 H 0.39906 0.00949 0.25483 0.0
H2028 H 0.46968 0.34989 0.60615 0.0
H2029 H 0.46573 0.35087 0.7151 0.0
H2030 H 0.49924 0.32135 0.74328 0.0
H2031 H 0.5028 0.31975 0.6347 0.0
H2032 H 0.47865 0.31546 0.81668 0.0
H2033 H 0.50343 0.35672 0.76119 0.0
H2034 H 0.50838 0.37874 0.70727 0.0
H2035 H 0.47115 0.39717 0.78113 0.0
H2036 H 0.46576 0.37513 0.83429 0.0
H2037 H 0.48874 0.32987 0.13076 0.0
H2038 H 0.49213 0.32733 0.02197 0.0
H2039 H 0.45743 0.3552 0.98935 0.0
H2040 H 0.4543 0.35821 0.0978 0.0
H2041 H 0.4791 0.36164 0.9189 0.0
H2042 H 0.45477 0.31903 0.97414 0.0
H2043 H 0.45162 0.29705 0.03113 0.0
H2044 H 0.4905 0.28141 0.96131 0.0
H2045 H 0.494 0.30338 0.90464 0.0
C2046 C 0.47609 0.34345 0.6353 0.0
C2047 C 0.48668 0.33485 0.61124 0.0
C2048 C 0.47391 0.34415 0.69778 0.0
C2049 C 0.48237 0.33641 0.73764 0.0
C2050 C 0.49263 0.3275 0.71365 0.0
C2051 C 0.49475 0.32672 0.65133 0.0
C2052 C 0.48073 0.33775 0.80431 0.0
C2053 C 0.47888 0.32556 0.83904 0.0
C2054 C 0.48095 0.35093 0.83372 0.0
C2055 C 0.48407 0.36416 0.80106 0.0
C2056 C 0.49619 0.36539 0.76534 0.0
C2057 C 0.49909 0.3779 0.73499 0.0
C2058 C 0.49007 0.38933 0.74064 0.0
C2059 C 0.47814 0.3883 0.7768 0.0
C2060 C 0.47514 0.37579 0.80695 0.0
C2061 C 0.4819 0.33557 0.10058 0.0
C2062 C 0.47121 0.34424 0.12333 0.0
C2063 C 0.48376 0.33397 0.03824 0.0
C2064 C 0.47492 0.34093 0.99735 0.0
C2065 C 0.46434 0.34967 0.01993 0.0
C2066 C 0.46249 0.35129 0.08209 0.0
C2067 C 0.4768 0.3394 0.93097 0.0
C2068 C 0.47878 0.35156 0.89637 0.0
C2069 C 0.47691 0.32619 0.90189 0.0
C2070 C 0.47471 0.31292 0.93557 0.0
C2071 C 0.4627 0.31095 0.97128 0.0
C2072 C 0.46085 0.29848 1.0035 0.0
C2073 C 0.47087 0.28785 1.0 0.0
C2074 C 0.48275 0.28965 0.96409 0.0
C2075 C 0.48467 0.30211 0.93188 0.0
H2076 H 0.46942 0.27822 0.025 0.0
H2077 H 0.49233 0.399 0.7171 0.0
H2078 H 0.15783 0.50484 0.08628 0.0
H2079 H 0.15604 0.50091 0.19467 0.0
H2080 H 0.15358 0.45637 0.16447 0.0
H2081 H 0.15531 0.46025 0.05541 0.0
H2082 H 0.13507 0.46399 0.2474 0.0
H2083 H 0.18394 0.47226 0.21721 0.0
H2084 H 0.20482 0.48491 0.18114 0.0
H2085 H 0.19369 0.52045 0.28966 0.0
H2086 H 0.17262 0.50808 0.32576 0.0
H2087 H 0.14855 0.44388 0.5507 0.0
H2088 H 0.15022 0.44762 0.44228 0.0
H2089 H 0.1496 0.49229 0.46996 0.0
H2090 H 0.14765 0.48867 0.57892 0.0
H2091 H 0.1698 0.4844 0.3887 0.0
H2092 H 0.12083 0.47578 0.41875 0.0
H2093 H 0.10024 0.46274 0.45535 0.0
H2094 H 0.11201 0.42732 0.34734 0.0
H2095 H 0.1328 0.44008 0.31074 0.0
C2096 C 0.15707 0.49418 0.10252 0.0
C2097 C 0.15687 0.48286 0.06182 0.0
C2098 C 0.15603 0.49195 0.16474 0.0
C2099 C 0.15492 0.47832 0.18815 0.0
C2100 C 0.15447 0.46699 0.14768 0.0
C2101 C 0.15544 0.46922 0.08521 0.0
C2102 C 0.15408 0.47598 0.25472 0.0
C2103 C 0.14279 0.46828 0.27814 0.0
C2104 C 0.16396 0.48183 0.2953 0.0
C2105 C 0.17663 0.48929 0.27374 0.0
C2106 C 0.18588 0.48282 0.23302 0.0
C2107 C 0.19776 0.48993 0.21263 0.0
C2108 C 0.20056 0.50349 0.23297 0.0
C2109 C 0.1915 0.50995 0.27387 0.0
C2110 C 0.17959 0.50289 0.29436 0.0
C2111 C 0.14858 0.45452 0.53413 0.0
C2112 C 0.14784 0.46596 0.57423 0.0
C2113 C 0.14959 0.45664 0.4718 0.0
C2114 C 0.14988 0.47023 0.44773 0.0
C2115 C 0.14939 0.48169 0.48742 0.0
C2116 C 0.14831 0.47959 0.54991 0.0
C2117 C 0.15079 0.47244 0.38121 0.0
C2118 C 0.16209 0.48011 0.35786 0.0
C2119 C 0.14097 0.46651 0.34071 0.0
C2120 C 0.12845 0.45884 0.36247 0.0
C2121 C 0.11909 0.46517 0.40318 0.0
C2122 C 0.10737 0.45784 0.42386 0.0
C2123 C 0.10484 0.4442 0.40381 0.0
C2124 C 0.114 0.43788 0.3629 0.0
C2125 C 0.12574 0.44516 0.34213 0.0
H2126 H 0.09575 0.43854 0.41986 0.0
H2127 H 0.20976 0.50898 0.21714 0.0
H2128 H 0.9531 0.63478 0.56804 0.0
H2129 H 0.95647 0.63671 0.45906 0.0
H2130 H 0.98959 0.66664 0.48758 0.0
H2131 H 0.98608 0.66496 0.59688 0.0
H2132 H 0.97156 0.67499 0.39837 0.0
H2133 H -0.00255 0.63365 0.44876 0.0
H2134 H 0.00116 0.61035 0.49395 0.0
H2135 H 0.96874 0.59323 0.3819 0.0
H2136 H 0.96469 0.6165 0.3366 0.0
H2137 H 0.00034 0.6738 0.10373 0.0
H2138 H 0.99635 0.67219 0.21214 0.0
H2139 H 0.96457 0.64089 0.18225 0.0
H2140 H 0.96885 0.6421 0.0734 0.0
H2141 H 0.98168 0.63325 0.27237 0.0
H2142 H 0.95601 0.67466 0.22089 0.0
H2143 H 0.95234 0.69802 0.17614 0.0
H2144 H 0.98434 0.7151 0.29052 0.0
H2145 H 0.98835 0.69179 0.33536 0.0
C2146 C 0.96105 0.64183 0.55118 0.0
C2147 C 0.96932 0.6497 0.59127 0.0
C2148 C 0.96304 0.64284 0.48884 0.0
C2149 C 0.97337 0.65173 0.46511 0.0
C2150 C 0.98159 0.65968 0.5049 0.0
C2151 C 0.97965 0.65862 0.56739 0.0
C2152 C 0.97545 0.65278 0.39875 0.0
C2153 C 0.97397 0.6659 0.37088 0.0
C2154 C 0.97824 0.64087 0.3627 0.0
C2155 C 0.98067 0.62685 0.38972 0.0
C2156 C 0.99103 0.62495 0.4341 0.0
C2157 C 0.99321 0.61174 0.45968 0.0
C2158 C 0.98517 0.60032 0.44093 0.0
C2159 C 0.97495 0.60209 0.39644 0.0
C2160 C 0.97272 0.61528 0.37076 0.0
C2161 C 0.99254 0.66651 0.12003 0.0
C2162 C 0.98495 0.65805 0.0796 0.0
C2163 C 0.99017 0.66571 0.18217 0.0
C2164 C 0.98005 0.65652 0.20547 0.0
C2165 C 0.9724 0.64809 0.16534 0.0
C2166 C 0.97477 0.64889 0.10302 0.0
C2167 C 0.97778 0.65547 0.27181 0.0
C2168 C 0.97924 0.64235 0.29975 0.0
C2169 C 0.97498 0.6674 0.30792 0.0
C2170 C 0.97258 0.68144 0.28107 0.0
C2171 C 0.96235 0.68337 0.23616 0.0
C2172 C 0.96019 0.69661 0.21083 0.0
C2173 C 0.96813 0.70803 0.23036 0.0
C2174 C 0.97821 0.70624 0.27537 0.0
C2175 C 0.98043 0.69302 0.3008 0.0
H2176 H 0.96644 0.71827 0.2107 0.0
H2177 H 0.98687 0.59011 0.46077 0.0
H2178 H 0.84365 0.95158 0.05295 0.0
H2179 H 0.84206 0.95516 0.94432 0.0
H2180 H 0.84614 -0.00027 0.96994 0.0
H2181 H 0.84791 0.99622 0.07906 0.0
H2182 H 0.82579 0.99406 0.89032 0.0
H2183 H 0.87324 0.97961 0.91817 0.0
H2184 H 0.89289 0.96465 0.95041 0.0
H2185 H 0.87758 0.93119 0.83915 0.0
H2186 H 0.85767 0.94585 0.80714 0.0
H2187 H 0.8404 0.01333 0.58867 0.0
H2188 H 0.8412 0.0089 0.69671 0.0
H2189 H 0.83791 0.96451 0.66397 0.0
H2190 H 0.83706 0.96888 0.55512 0.0
H2191 H 0.85707 0.96945 0.74681 0.0
H2192 H 0.80986 0.98407 0.71837 0.0
H2193 H 0.79077 -0.00061 0.683 0.0
H2194 H 0.80636 0.03293 0.79308 0.0
H2195 H 0.82568 0.01787 0.82845 0.0
C2196 C 0.84439 0.96215 0.0358 0.0
C2197 C 0.84602 0.97359 0.07539 0.0
C2198 C 0.84344 0.96419 0.97334 0.0
C2199 C 0.84415 0.9777 0.94855 0.0
C2200 C 0.84557 0.98918 0.98782 0.0
C2201 C 0.84654 0.98716 0.05042 0.0
C2202 C 0.84319 0.97986 0.88185 0.0
C2203 C 0.8328 0.98884 0.85906 0.0
C2204 C 0.85204 0.97275 0.84059 0.0
C2205 C 0.86382 0.96378 0.86098 0.0
C2206 C 0.87394 0.969 0.90122 0.0
C2207 C 0.88515 0.96058 0.91933 0.0
C2208 C 0.88645 0.94696 0.89705 0.0
C2209 C 0.87654 0.94173 0.85656 0.0
C2210 C 0.86528 0.95008 0.83848 0.0
C2211 C 0.83962 0.00262 0.60412 0.0
C2212 C 0.83848 0.99149 0.56265 0.0
C2213 C 0.8401 9e-05 0.66626 0.0
C2214 C 0.83933 0.98638 0.68892 0.0
C2215 C 0.83843 0.9752 0.64778 0.0
C2216 C 0.83798 0.97772 0.58537 0.0
C2217 C 0.83987 0.98377 0.75541 0.0
C2218 C 0.85013 0.97468 0.77816 0.0
C2219 C 0.83094 0.9908 0.79658 0.0
C2220 C 0.81929 -0.00013 0.77565 0.0
C2221 C 0.80928 0.99474 0.7347 0.0
C2222 C 0.79841 0.00337 0.7147 0.0
C2223 C 0.79737 0.01713 0.73568 0.0
C2224 C 0.80719 0.02227 0.77683 0.0
C2225 C 0.81809 0.01369 0.79691 0.0
H2226 H 0.78894 0.0238 0.72015 0.0
H2227 H 0.89516 0.94047 0.911 0.0
H2228 H 0.54161 0.86718 0.5528 0.0
H2229 H 0.53819 0.86462 0.44405 0.0
H2230 H 0.50975 0.83033 0.47544 0.0
H2231 H 0.51334 0.83268 0.58448 0.0
H2232 H 0.52876 0.82441 0.38569 0.0
H2233 H 0.49742 0.86226 0.43526 0.0
H2234 H 0.49107 0.8852 0.47846 0.0
H2235 H 0.52067 0.90549 0.36177 0.0
H2236 H 0.52733 0.88263 0.31853 0.0
H2237 H 0.50187 0.81901 0.08873 0.0
H2238 H 0.50499 0.82159 0.1973 0.0
H2239 H 0.52821 0.85967 0.16806 0.0
H2240 H 0.52479 0.85741 0.05952 0.0
H2241 H 0.51209 0.86364 0.25765 0.0
H2242 H 0.54404 0.8269 0.2086 0.0
H2243 H 0.55162 0.80438 0.16498 0.0
H2244 H 0.52281 0.78242 0.27975 0.0
H2245 H 0.51492 0.80483 0.3235 0.0
C2246 C 0.53466 0.85906 0.53668 0.0
C2247 C 0.52775 0.85014 0.5776 0.0
C2248 C 0.53263 0.85767 0.47438 0.0
C2249 C 0.52362 0.84734 0.4514 0.0
C2250 C 0.51672 0.8384 0.49204 0.0
C2251 C 0.51869 0.83983 0.55445 0.0
C2252 C 0.52158 0.84576 0.38498 0.0
C2253 C 0.52492 0.83291 0.35777 0.0
C2254 C 0.51701 0.85699 0.34814 0.0
C2255 C 0.51296 0.87073 0.37403 0.0
C2256 C 0.50265 0.8716 0.41916 0.0
C2257 C 0.49898 0.88459 0.4436 0.0
C2258 C 0.50549 0.89679 0.42298 0.0
C2259 C 0.51565 0.89604 0.37776 0.0
C2260 C 0.51937 0.88307 0.35323 0.0
C2261 C 0.50767 0.82795 0.10523 0.0
C2262 C 0.51315 0.83796 0.06493 0.0
C2263 C 0.50958 0.82933 0.1676 0.0
C2264 C 0.51718 0.84066 0.19137 0.0
C2265 C 0.52256 0.8507 0.1512 0.0
C2266 C 0.52066 0.84934 0.08883 0.0
C2267 C 0.51924 0.84223 0.25799 0.0
C2268 C 0.51593 0.85509 0.28535 0.0
C2269 C 0.52402 0.83106 0.29487 0.0
C2270 C 0.5288 0.81755 0.2689 0.0
C2271 C 0.53925 0.81727 0.22424 0.0
C2272 C 0.54361 0.80453 0.19953 0.0
C2273 C 0.53767 0.79198 0.21946 0.0
C2274 C 0.52739 0.79215 0.26429 0.0
C2275 C 0.52298 0.80487 0.2891 0.0
H2276 H 0.54106 0.78213 0.20027 0.0
H2277 H 0.50263 0.90684 0.44196 0.0
H2278 H 0.63906 0.54871 0.07681 0.0
H2279 H 0.63993 0.54519 0.96757 0.0
H2280 H 0.66273 0.50668 0.9938 0.0
H2281 H 0.66209 0.51027 0.10322 0.0
H2282 H 0.67432 0.52313 0.90493 0.0
H2283 H 0.62877 0.50564 0.95702 0.0
H2284 H 0.6053 0.50671 1.00298 0.0
H2285 H 0.59481 0.54184 0.8907 0.0
H2286 H 0.61831 0.54111 0.84465 0.0
H2287 H 0.66796 0.49466 0.61247 0.0
H2288 H 0.66693 0.49908 0.72047 0.0
H2289 H 0.64139 0.53559 0.68875 0.0
H2290 H 0.64186 0.53088 0.58019 0.0
H2291 H 0.63121 0.52086 0.78043 0.0
H2292 H 0.67643 0.53827 0.72673 0.0
H2293 H 0.69995 0.53756 0.68111 0.0
H2294 H 0.71121 0.50321 0.79644 0.0
H2295 H 0.68768 0.50357 0.84217 0.0
C2296 C 0.64431 0.53952 0.05936 0.0
C2297 C 0.65049 0.52977 0.09881 0.0
C2298 C 0.64471 0.53747 0.9969 0.0
C2299 C 0.6513 0.52562 0.97248 0.0
C2300 C 0.65755 0.51589 0.01166 0.0
C2301 C 0.65708 0.51789 0.07422 0.0
C2302 C 0.6518 0.52347 0.90604 0.0
C2303 C 0.66489 0.52244 0.87776 0.0
C2304 C 0.63951 0.52299 0.8704 0.0
C2305 C 0.62535 0.52341 0.89782 0.0
C2306 C 0.6215 0.51367 0.94248 0.0
C2307 C 0.60819 0.5142 0.96848 0.0
C2308 C 0.59858 0.52436 0.94988 0.0
C2309 C 0.60227 0.53399 0.90512 0.0
C2310 C 0.61558 0.53352 0.87901 0.0
C2311 C 0.66201 0.50358 0.62816 0.0
C2312 C 0.65496 0.51239 0.5872 0.0
C2313 C 0.66158 0.50619 0.69016 0.0
C2314 C 0.65425 0.51779 0.7129 0.0
C2315 C 0.64718 0.52661 0.67231 0.0
C2316 C 0.64756 0.52397 0.61011 0.0
C2317 C 0.65375 0.52046 0.77911 0.0
C2318 C 0.64065 0.52159 0.80744 0.0
C2319 C 0.66605 0.52109 0.81479 0.0
C2320 C 0.68023 0.52087 0.78749 0.0
C2321 C 0.68388 0.53049 0.74204 0.0
C2322 C 0.69722 0.53016 0.71621 0.0
C2323 C 0.70706 0.52032 0.73576 0.0
C2324 C 0.70358 0.51081 0.78129 0.0
C2325 C 0.69024 0.51108 0.80722 0.0
H2326 H 0.71738 0.52009 0.71571 0.0
H2327 H 0.58828 0.52475 0.97007 0.0
H2328 H 0.00399 0.84395 0.38287 0.0
H2329 H -0.00018 0.84462 0.2745 0.0
H2330 H 0.95561 0.83895 0.30493 0.0
H2331 H 0.95977 0.83782 0.41398 0.0
H2332 H 0.96526 0.82207 0.21464 0.0
H2333 H 0.96889 0.87068 0.26702 0.0
H2334 H 0.97976 0.89175 0.31125 0.0
H2335 H 0.0154 0.88668 0.19536 0.0
H2336 H 0.00478 0.86552 0.15089 0.0
H2337 H 0.94321 0.83926 0.91788 0.0
H2338 H 0.94693 0.83814 0.02656 0.0
H2339 H 0.99084 0.84671 1.0007 0.0
H2340 H 0.98709 0.84848 0.892 0.0
H2341 H 0.98112 0.86207 0.08916 0.0
H2342 H 0.97869 0.81361 0.03789 0.0
H2343 H 0.96869 0.79224 0.99275 0.0
H2344 H 0.93231 0.79619 0.10518 0.0
H2345 H 0.942 0.81771 0.15044 0.0
C2346 C 0.99338 0.84273 0.36676 0.0
C2347 C 0.98222 0.84076 0.4074 0.0
C2348 C 0.99099 0.84326 0.30462 0.0
C2349 C 0.97739 0.84195 0.28151 0.0
C2350 C 0.9662 0.84001 0.32178 0.0
C2351 C 0.96858 0.83948 0.38414 0.0
C2352 C 0.97494 0.84243 0.21526 0.0
C2353 C 0.96852 0.83091 0.18727 0.0
C2354 C 0.97963 0.85376 0.17927 0.0
C2355 C 0.98607 0.86646 0.20604 0.0
C2356 C 0.97908 0.87402 0.25132 0.0
C2357 C 0.98519 0.88598 0.27636 0.0
C2358 C -0.00172 0.89053 0.25626 0.0
C2359 C 0.00526 0.88314 0.21095 0.0
C2360 C -0.00081 0.87117 0.18575 0.0
C2361 C 0.95366 0.841 0.9351 0.0
C2362 C 0.96485 0.84398 0.8958 0.0
C2363 C 0.9558 0.84018 0.99742 0.0
C2364 C 0.9692 0.84217 0.02193 0.0
C2365 C 0.98041 0.84509 0.9829 0.0
C2366 C 0.97826 0.84597 0.92056 0.0
C2367 C 0.97145 0.8417 0.08837 0.0
C2368 C 0.97784 0.85322 0.11643 0.0
C2369 C 0.96689 0.8303 0.12427 0.0
C2370 C 0.96101 0.81736 0.09712 0.0
C2371 C 0.9685 0.80999 0.05264 0.0
C2372 C 0.9629 0.79784 0.02709 0.0
C2373 C 0.94986 0.79288 0.04597 0.0
C2374 C 0.94241 0.80006 0.09054 0.0
C2375 C 0.94795 0.81223 0.11619 0.0
H2376 H 0.94554 0.78346 0.02615 0.0
H2377 H 0.00299 0.89979 0.27571 0.0
H2378 H 0.6664 0.0029 0.93724 0.0
H2379 H 0.66379 -0.00116 0.82937 0.0
H2380 H 0.63648 0.9639 0.86535 0.0
H2381 H 0.63871 0.9681 0.97389 0.0
H2382 H 0.65593 0.9581 0.77623 0.0
H2383 H 0.62251 0.99394 0.81994 0.0
H2384 H 0.61426 0.01637 0.86201 0.0
H2385 H 0.643 0.03873 0.74839 0.0
H2386 H 0.65158 0.01641 0.70625 0.0
H2387 H 0.63202 0.95181 0.4742 0.0
H2388 H 0.63291 0.95504 0.58344 0.0
H2389 H 0.65821 0.99203 0.55943 0.0
H2390 H 0.65732 0.98886 0.4499 0.0
H2391 H 0.63868 0.99632 0.64376 0.0
H2392 H 0.67268 0.96048 0.6026 0.0
H2393 H 0.68115 0.93806 0.56118 0.0
H2394 H 0.65149 0.9157 0.67029 0.0
H2395 H 0.6427 0.93801 0.71178 0.0
C2396 C 0.6597 0.99443 0.92257 0.0
C2397 C 0.65265 0.98594 0.96473 0.0
C2398 C 0.65826 0.99209 0.86066 0.0
C2399 C 0.64976 0.98121 0.83923 0.0
C2400 C 0.64303 0.97241 0.88093 0.0
C2401 C 0.64439 0.9748 0.94307 0.0
C2402 C 0.64789 0.97915 0.7732 0.0
C2403 C 0.65195 0.96637 0.74734 0.0
C2404 C 0.64297 0.99004 0.73536 0.0
C2405 C 0.63778 0.00349 0.76032 0.0
C2406 C 0.62715 0.00364 0.80425 0.0
C2407 C 0.6224 0.01633 0.82806 0.0
C2408 C 0.62812 0.02896 0.80799 0.0
C2409 C 0.63859 0.02893 0.76394 0.0
C2410 C 0.64339 0.01626 0.74003 0.0
C2411 C 0.63784 0.96059 0.49211 0.0
C2412 C 0.64468 0.97001 0.45318 0.0
C2413 C 0.63834 0.96243 0.55466 0.0
C2414 C 0.64582 0.97365 0.57984 0.0
C2415 C 0.65239 0.98328 0.5411 0.0
C2416 C 0.65183 0.98148 0.47842 0.0
C2417 C 0.64685 0.97531 0.64652 0.0
C2418 C 0.64262 0.98802 0.67258 0.0
C2419 C 0.65163 0.96435 0.68451 0.0
C2420 C 0.65694 0.95092 0.65982 0.0
C2421 C 0.66789 0.95079 0.61742 0.0
C2422 C 0.67276 0.9381 0.59398 0.0
C2423 C 0.66684 0.92547 0.61297 0.0
C2424 C 0.65606 0.92549 0.65556 0.0
C2425 C 0.65113 0.93815 0.67908 0.0
H2426 H 0.67063 0.91566 0.59477 0.0
H2427 H 0.62443 0.03878 0.82648 0.0
H2428 H 0.5031 0.6491 0.92198 0.0
H2429 H 0.49959 0.65092 0.03093 0.0
H2430 H 0.54424 0.65049 0.05842 0.0
H2431 H 0.54789 0.64894 0.94985 0.0
H2432 H 0.53094 0.6334 0.13903 0.0
H2433 H 0.52642 0.68074 0.06819 0.0
H2434 H 0.51692 0.69968 1.00452 0.0
H2435 H 0.47568 0.69176 0.07346 0.0
H2436 H 0.48491 0.67262 0.13695 0.0
H2437 H 0.5311 0.6562 0.4458 0.0
H2438 H 0.53506 0.65403 0.3371 0.0
H2439 H 0.49066 0.65751 0.30544 0.0
H2440 H 0.48666 0.65977 0.41372 0.0
H2441 H 0.50413 0.67297 0.22661 0.0
H2442 H 0.50848 0.62574 0.29812 0.0
H2443 H 0.5179 0.60698 0.36304 0.0
H2444 H 0.55915 0.61439 0.29329 0.0
H2445 H 0.55002 0.63337 0.22863 0.0
C2446 C 0.5122 0.64952 0.9509 0.0
C2447 C 0.52579 0.64889 0.92638 0.0
C2448 C 0.51017 0.65051 0.01344 0.0
C2449 C 0.52166 0.65092 0.05306 0.0
C2450 C 0.5352 0.65012 0.02893 0.0
C2451 C 0.53726 0.6492 0.96649 0.0
C2452 C 0.51959 0.65236 0.11954 0.0
C2453 C 0.52521 0.64214 0.15825 0.0
C2454 C 0.5119 0.66361 0.14474 0.0
C2455 C 0.50633 0.67516 0.10687 0.0
C2456 C 0.51531 0.68296 0.06942 0.0
C2457 C 0.50997 0.69375 0.03343 0.0
C2458 C 0.4957 0.6969 0.03483 0.0
C2459 C 0.48673 0.68929 0.07236 0.0
C2460 C 0.49201 0.67848 0.1084 0.0
C2461 C 0.52217 0.65641 0.41581 0.0
C2462 C 0.50855 0.65818 0.43881 0.0
C2463 C 0.52445 0.65516 0.3535 0.0
C2464 C 0.51315 0.65546 0.31277 0.0
C2465 C 0.49957 0.6573 0.33567 0.0
C2466 C 0.4973 0.65862 0.39779 0.0
C2467 C 0.5154 0.65396 0.24633 0.0
C2468 C 0.50983 0.6642 0.20754 0.0
C2469 C 0.5231 0.64269 0.22112 0.0
C2470 C 0.52858 0.63109 0.259 0.0
C2471 C 0.51957 0.62343 0.29689 0.0
C2472 C 0.52486 0.61276 0.33363 0.0
C2473 C 0.53912 0.60954 0.33247 0.0
C2474 C 0.54811 0.61692 0.29425 0.0
C2475 C 0.54288 0.62764 0.25751 0.0
H2476 H 0.54319 0.60131 0.36115 0.0
H2477 H 0.49159 0.70525 1.00693 0.0
H2478 H 0.84548 0.50515 0.41709 0.0
H2479 H 0.84296 0.50198 0.52603 0.0
H2480 H 0.84747 0.54646 0.55251 0.0
H2481 H 0.84967 0.54982 0.44413 0.0
H2482 H 0.86336 0.53139 0.63302 0.0
H2483 H 0.81582 0.53185 0.56168 0.0
H2484 H 0.79607 0.52421 0.49805 0.0
H2485 H 0.79961 0.48251 0.56902 0.0
H2486 H 0.81952 0.48986 0.6325 0.0
H2487 H 0.84091 0.53439 0.93981 0.0
H2488 H 0.84344 0.53803 0.83109 0.0
H2489 H 0.83503 0.49425 0.80001 0.0
H2490 H 0.83246 0.49055 0.90822 0.0
H2491 H 0.82111 0.50925 0.72133 0.0
H2492 H 0.86848 0.50816 0.79152 0.0
H2493 H 0.88873 0.51508 0.85369 0.0
H2494 H 0.88615 0.557 0.78443 0.0
H2495 H 0.86572 0.55039 0.72253 0.0
C2496 C 0.84581 0.5143 0.44578 0.0
C2497 C 0.8478 0.52776 0.42106 0.0
C2498 C 0.84441 0.51246 0.50828 0.0
C2499 C 0.84497 0.524 0.54754 0.0
C2500 C 0.84708 0.53739 0.52322 0.0
C2501 C 0.84839 0.53926 0.46087 0.0
C2502 C 0.84328 0.52218 0.61393 0.0
C2503 C 0.85404 0.52671 0.65243 0.0
C2504 C 0.83127 0.5158 0.63925 0.0
C2505 C 0.81925 0.51138 0.60139 0.0
C2506 C 0.81246 0.52103 0.56337 0.0
C2507 C 0.80122 0.51675 0.52739 0.0
C2508 C 0.79661 0.50288 0.52937 0.0
C2509 C 0.80321 0.49325 0.56747 0.0
C2510 C 0.81446 0.49747 0.6035 0.0
C2511 C 0.83967 0.52551 0.90997 0.0
C2512 C 0.83642 0.51217 0.93312 0.0
C2513 C 0.84113 0.52761 0.84764 0.0
C2514 C 0.83954 0.51639 0.8071 0.0
C2515 C 0.83624 0.5031 0.83013 0.0
C2516 C 0.83472 0.50101 0.89224 0.0
C2517 C 0.84122 0.51841 0.74069 0.0
C2518 C 0.83044 0.51394 0.70209 0.0
C2519 C 0.85327 0.52476 0.71529 0.0
C2520 C 0.86549 0.52881 0.75277 0.0
C2521 C 0.87215 0.51889 0.78992 0.0
C2522 C 0.88368 0.52274 0.82503 0.0
C2523 C 0.88873 0.53646 0.82294 0.0
C2524 C 0.88224 0.54637 0.78587 0.0
C2525 C 0.87068 0.54258 0.7508 0.0
H2526 H 0.89769 0.53941 0.85002 0.0
H2527 H 0.78791 0.49959 0.50149 0.0
loop_
_geom_bond_atom_site_label_1
_geom_bond_atom_site_label_2
_geom_bond_distance
_geom_bond_site_symmetry_2
_ccdc_geom_bond_type
Co0 N4 2.148 . S
Co0 N10 2.128 . S
Co0 N20 2.194 . S
Co0 O25 2.351 . S
Co0 O26 2.155 . S
Co0 O27 2.096 . S
C1 N4 1.301 . S
C1 N5 1.328 . S
C1 H6 0.930 . S
C2 C3 1.333 . S
C2 N4 1.317 . S
C2 H7 0.930 . S
C3 C2 1.333 . S
C3 N5 1.350 . S
C3 H29 0.931 . S
N4 Co0 2.148 . S
N4 C1 1.301 . S
N4 C2 1.317 . S
N5 C1 1.328 . S
N5 C3 1.350 . S
H6 C1 0.930 . S
H7 C2 0.930 . S
C8 O9 1.224 . S
C8 O27 1.247 . S
O9 C8 1.224 . S
N10 Co0 2.128 . S
N10 C11 1.355 . S
N10 C13 1.311 1_554 S
C11 N10 1.355 . S
C11 C12 1.363 1_554 S
C11 H23 0.929 1_455 S
C12 C11 1.363 1_556 S
C12 N14 1.375 . S
C12 H30 0.931 1_455 S
C13 N10 1.311 1_556 S
C13 N14 1.347 . S
C13 H24 0.929 . S
N14 C12 1.375 . S
N14 C13 1.347 . S
C15 C18 1.365 . S
C15 N20 1.328 1_655 S
C15 H21 0.929 . S
C16 C17 1.362 . S
C16 C19 1.378 1_655 S
C16 H31 0.929 . S
C17 C16 1.362 . S
C17 C18 1.366 . S
C18 C15 1.365 . S
C18 C17 1.366 . S
C18 H32 0.930 . S
C19 C16 1.378 1_455 S
C19 N20 1.315 . S
C19 H22 0.930 . S
N20 Co0 2.194 . S
N20 C15 1.328 1_455 S
N20 C19 1.315 . S
H21 C15 0.929 . S
H22 C19 0.930 . S
H23 C11 0.929 1_655 S
H24 C13 0.929 . S
O25 Co0 2.351 . S
O25 C28 1.244 . S
O26 Co0 2.155 . S
O26 C28 1.240 . S
O27 Co0 2.096 . S
O27 C8 1.247 . S
C28 O25 1.244 . S
C28 O26 1.240 . S
H29 C3 0.931 . S
H30 C12 0.931 1_655 S
H31 C16 0.929 . S
H32 C18 0.930 . S
Co33 N37 2.148 . S
Co33 N43 2.128 . S
Co33 N53 2.194 . S
Co33 O58 2.351 . S
Co33 O59 2.155 . S
Co33 O60 2.096 . S
C34 N37 1.301 . S
C34 N38 1.328 . S
C34 H39 0.930 . S
C35 C36 1.333 . S
C35 N37 1.317 . S
C35 H40 0.930 . S
C36 C35 1.333 . S
C36 N38 1.350 . S
C36 H62 0.931 . S
N37 Co33 2.148 . S
N37 C34 1.301 . S
N37 C35 1.317 . S
N38 C34 1.328 . S
N38 C36 1.350 . S
H39 C34 0.930 . S
H40 C35 0.930 . S
C41 O42 1.224 . S
C41 O60 1.247 . S
O42 C41 1.224 . S
N43 Co33 2.128 . S
N43 C44 1.355 . S
N43 C46 1.311 . S
C44 N43 1.355 . S
C44 C45 1.363 . S
C44 H56 0.929 1_545 S
C45 C44 1.363 . S
C45 N47 1.375 . S
C45 H63 0.931 1_545 S
C46 N43 1.311 . S
C46 N47 1.347 . S
C46 H57 0.929 . S
N47 C45 1.375 . S
N47 C46 1.347 . S
C48 C51 1.365 . S
C48 N53 1.328 1_565 S
C48 H54 0.929 . S
C49 C50 1.362 . S
C49 C52 1.378 1_565 S
C49 H64 0.929 . S
C50 C49 1.362 . S
C50 C51 1.366 . S
C51 C48 1.365 . S
C51 C50 1.366 . S
C51 H65 0.930 . S
C52 C49 1.378 1_545 S
C52 N53 1.315 . S
C52 H55 0.930 . S
N53 Co33 2.194 . S
N53 C48 1.328 1_545 S
N53 C52 1.315 . S
H54 C48 0.929 . S
H55 C52 0.930 . S
H56 C44 0.929 1_565 S
H57 C46 0.929 . S
O58 Co33 2.351 . S
O58 C61 1.244 . S
O59 Co33 2.155 . S
O59 C61 1.240 . S
O60 Co33 2.096 . S
O60 C41 1.247 . S
C61 O58 1.244 . S
C61 O59 1.240 . S
H62 C36 0.931 . S
H63 C45 0.931 1_565 S
H64 C49 0.929 . S
H65 C51 0.930 . S
Co66 N70 2.148 . S
Co66 N76 2.128 . S
Co66 N86 2.194 . S
Co66 O91 2.351 . S
Co66 O92 2.155 . S
Co66 O93 2.096 . S
C67 N70 1.301 . S
C67 N71 1.328 . S
C67 H72 0.930 . S
C68 C69 1.333 . S
C68 N70 1.317 . S
C68 H73 0.930 . S
C69 C68 1.333 . S
C69 N71 1.350 . S
C69 H95 0.931 . S
N70 Co66 2.148 . S
N70 C67 1.301 . S
N70 C68 1.317 . S
N71 C67 1.328 . S
N71 C69 1.350 . S
H72 C67 0.930 . S
H73 C68 0.930 . S
C74 O75 1.224 . S
C74 O93 1.247 . S
O75 C74 1.224 . S
N76 Co66 2.128 . S
N76 C77 1.355 . S
N76 C79 1.311 1_554 S
C77 N76 1.355 . S
C77 C78 1.363 1_554 S
C77 H89 0.929 . S
C78 C77 1.363 1_556 S
C78 N80 1.375 . S
C78 H96 0.931 . S
C79 N76 1.311 1_556 S
C79 N80 1.347 . S
C79 H90 0.929 1_556 S
N80 C78 1.375 . S
N80 C79 1.347 . S
C81 C84 1.365 . S
C81 N86 1.328 . S
C81 H87 0.929 . S
C82 C83 1.362 . S
C82 C85 1.378 . S
C82 H97 0.929 . S
C83 C82 1.362 . S
C83 C84 1.366 . S
C84 C81 1.365 . S
C84 C83 1.366 . S
C84 H98 0.930 . S
C85 C82 1.378 . S
C85 N86 1.315 . S
C85 H88 0.930 . S
N86 Co66 2.194 . S
N86 C81 1.328 . S
N86 C85 1.315 . S
H87 C81 0.929 . S
H88 C85 0.930 . S
H89 C77 0.929 . S
H90 C79 0.929 1_554 S
O91 Co66 2.351 . S
O91 C94 1.244 . S
O92 Co66 2.155 . S
O92 C94 1.240 . S
O93 Co66 2.096 . S
O93 C74 1.247 . S
C94 O91 1.244 . S
C94 O92 1.240 . S
H95 C69 0.931 . S
H96 C78 0.931 . S
H97 C82 0.929 . S
H98 C84 0.930 . S
Co99 N103 2.148 . S
Co99 N109 2.128 . S
Co99 N119 2.194 . S
Co99 O124 2.351 . S
Co99 O125 2.155 . S
Co99 O126 2.096 . S
C100 N103 1.301 . S
C100 N104 1.328 . S
C100 H105 0.930 . S
C101 C102 1.333 . S
C101 N103 1.317 . S
C101 H106 0.930 . S
C102 C101 1.333 . S
C102 N104 1.350 . S
C102 H128 0.931 . S
N103 Co99 2.148 . S
N103 C100 1.301 . S
N103 C101 1.317 . S
N104 C100 1.328 . S
N104 C102 1.350 . S
H105 C100 0.930 . S
H106 C101 0.930 . S
C107 O108 1.224 . S
C107 O126 1.247 . S
O108 C107 1.224 . S
N109 Co99 2.128 . S
N109 C110 1.355 . S
N109 C112 1.311 . S
C110 N109 1.355 . S
C110 C111 1.363 . S
C110 H122 0.929 . S
C111 C110 1.363 . S
C111 N113 1.375 . S
C111 H129 0.931 . S
C112 N109 1.311 . S
C112 N113 1.347 . S
C112 H123 0.929 . S
N113 C111 1.375 . S
N113 C112 1.347 . S
C114 C117 1.365 . S
C114 N119 1.328 . S
C114 H120 0.929 . S
C115 C116 1.362 . S
C115 C118 1.378 . S
C115 H130 0.929 . S
C116 C115 1.362 . S
C116 C117 1.366 . S
C117 C114 1.365 . S
C117 C116 1.366 . S
C117 H131 0.930 . S
C118 C115 1.378 . S
C118 N119 1.315 . S
C118 H121 0.930 . S
N119 Co99 2.194 . S
N119 C114 1.328 . S
N119 C118 1.315 . S
H120 C114 0.929 . S
H121 C118 0.930 . S
H122 C110 0.929 . S
H123 C112 0.929 . S
O124 Co99 2.351 . S
O124 C127 1.244 . S
O125 Co99 2.155 . S
O125 C127 1.240 . S
O126 Co99 2.096 . S
O126 C107 1.247 . S
C127 O124 1.244 . S
C127 O125 1.240 . S
H128 C102 0.931 . S
H129 C111 0.931 . S
H130 C115 0.929 . S
H131 C117 0.930 . S
Co132 N136 2.148 . S
Co132 N142 2.128 . S
Co132 N152 2.194 . S
Co132 O157 2.351 . S
Co132 O158 2.155 . S
Co132 O159 2.096 . S
C133 N136 1.301 . S
C133 N137 1.328 . S
C133 H138 0.930 . S
C134 C135 1.333 . S
C134 N136 1.317 . S
C134 H139 0.930 . S
C135 C134 1.333 . S
C135 N137 1.350 . S
C135 H161 0.931 . S
N136 Co132 2.148 . S
N136 C133 1.301 . S
N136 C134 1.317 . S
N137 C133 1.328 . S
N137 C135 1.350 . S
H138 C133 0.930 . S
H139 C134 0.930 . S
C140 O141 1.224 . S
C140 O159 1.247 . S
O141 C140 1.224 . S
N142 Co132 2.128 . S
N142 C143 1.355 . S
N142 C145 1.311 . S
C143 N142 1.355 . S
C143 C144 1.363 . S
C143 H155 0.929 1_455 S
C144 C143 1.363 . S
C144 N146 1.375 . S
C144 H162 0.931 1_455 S
C145 N142 1.311 . S
C145 N146 1.347 . S
C145 H156 0.929 . S
N146 C144 1.375 . S
N146 C145 1.347 . S
C147 C150 1.365 . S
C147 N152 1.328 1_655 S
C147 H153 0.929 . S
C148 C149 1.362 . S
C148 C151 1.378 1_655 S
C148 H163 0.929 . S
C149 C148 1.362 . S
C149 C150 1.366 . S
C150 C147 1.365 . S
C150 C149 1.366 . S
C150 H164 0.930 . S
C151 C148 1.378 1_455 S
C151 N152 1.315 . S
C151 H154 0.930 . S
N152 Co132 2.194 . S
N152 C147 1.328 1_455 S
N152 C151 1.315 . S
H153 C147 0.929 . S
H154 C151 0.930 . S
H155 C143 0.929 1_655 S
H156 C145 0.929 . S
O157 Co132 2.351 . S
O157 C160 1.244 . S
O158 Co132 2.155 . S
O158 C160 1.240 . S
O159 Co132 2.096 . S
O159 C140 1.247 . S
C160 O157 1.244 . S
C160 O158 1.240 . S
H161 C135 0.931 . S
H162 C144 0.931 1_655 S
H163 C148 0.929 . S
H164 C150 0.930 . S
Co165 N169 2.148 . S
Co165 N175 2.128 . S
Co165 N185 2.194 . S
Co165 O190 2.351 . S
Co165 O191 2.155 . S
Co165 O192 2.096 . S
C166 N169 1.301 . S
C166 N170 1.328 . S
C166 H171 0.930 . S
C167 C168 1.333 . S
C167 N169 1.317 . S
C167 H172 0.930 . S
C168 C167 1.333 . S
C168 N170 1.350 . S
C168 H194 0.931 . S
N169 Co165 2.148 . S
N169 C166 1.301 . S
N169 C167 1.317 . S
N170 C166 1.328 . S
N170 C168 1.350 . S
H171 C166 0.930 . S
H172 C167 0.930 . S
C173 O174 1.224 . S
C173 O192 1.247 . S
O174 C173 1.224 . S
N175 Co165 2.128 . S
N175 C176 1.355 . S
N175 C178 1.311 1_556 S
C176 N175 1.355 . S
C176 C177 1.363 1_556 S
C176 H188 0.929 1_545 S
C177 C176 1.363 1_554 S
C177 N179 1.375 . S
C177 H195 0.931 1_545 S
C178 N175 1.311 1_554 S
C178 N179 1.347 . S
C178 H189 0.929 . S
N179 C177 1.375 . S
N179 C178 1.347 . S
C180 C183 1.365 . S
C180 N185 1.328 1_565 S
C180 H186 0.929 . S
C181 C182 1.362 . S
C181 C184 1.378 1_565 S
C181 H196 0.929 . S
C182 C181 1.362 . S
C182 C183 1.366 . S
C183 C180 1.365 . S
C183 C182 1.366 . S
C183 H197 0.930 . S
C184 C181 1.378 1_545 S
C184 N185 1.315 . S
C184 H187 0.930 . S
N185 Co165 2.194 . S
N185 C180 1.328 1_545 S
N185 C184 1.315 . S
H186 C180 0.929 . S
H187 C184 0.930 . S
H188 C176 0.929 1_565 S
H189 C178 0.929 . S
O190 Co165 2.351 . S
O190 C193 1.244 . S
O191 Co165 2.155 . S
O191 C193 1.240 . S
O192 Co165 2.096 . S
O192 C173 1.247 . S
C193 O190 1.244 . S
C193 O191 1.240 . S
H194 C168 0.931 . S
H195 C177 0.931 1_565 S
H196 C181 0.929 . S
H197 C183 0.930 . S
Co198 N202 2.148 . S
Co198 N208 2.128 . S
Co198 N218 2.194 . S
Co198 O223 2.351 . S
Co198 O224 2.155 . S
Co198 O225 2.096 . S
C199 N202 1.301 . S
C199 N203 1.328 . S
C199 H204 0.930 . S
C200 C201 1.333 . S
C200 N202 1.317 . S
C200 H205 0.930 . S
C201 C200 1.333 . S
C201 N203 1.350 . S
C201 H227 0.931 . S
N202 Co198 2.148 . S
N202 C199 1.301 . S
N202 C200 1.317 . S
N203 C199 1.328 . S
N203 C201 1.350 . S
H204 C199 0.930 . S
H205 C200 0.930 . S
C206 O207 1.224 . S
C206 O225 1.247 . S
O207 C206 1.224 . S
N208 Co198 2.128 . S
N208 C209 1.355 . S
N208 C211 1.311 . S
C209 N208 1.355 . S
C209 C210 1.363 . S
C209 H221 0.929 . S
C210 C209 1.363 . S
C210 N212 1.375 . S
C210 H228 0.931 . S
C211 N208 1.311 . S
C211 N212 1.347 . S
C211 H222 0.929 . S
N212 C210 1.375 . S
N212 C211 1.347 . S
C213 C216 1.365 . S
C213 N218 1.328 . S
C213 H219 0.929 . S
C214 C215 1.362 . S
C214 C217 1.378 . S
C214 H229 0.929 . S
C215 C214 1.362 . S
C215 C216 1.366 . S
C216 C213 1.365 . S
C216 C215 1.366 . S
C216 H230 0.930 . S
C217 C214 1.378 . S
C217 N218 1.315 . S
C217 H220 0.930 . S
N218 Co198 2.194 . S
N218 C213 1.328 . S
N218 C217 1.315 . S
H219 C213 0.929 . S
H220 C217 0.930 . S
H221 C209 0.929 . S
H222 C211 0.929 . S
O223 Co198 2.351 . S
O223 C226 1.244 . S
O224 Co198 2.155 . S
O224 C226 1.240 . S
O225 Co198 2.096 . S
O225 C206 1.247 . S
C226 O223 1.244 . S
C226 O224 1.240 . S
H227 C201 0.931 . S
H228 C210 0.931 . S
H229 C214 0.929 . S
H230 C216 0.930 . S
Co231 N235 2.148 . S
Co231 N241 2.128 . S
Co231 N251 2.194 . S
Co231 O256 2.351 . S
Co231 O257 2.155 . S
Co231 O258 2.096 . S
C232 N235 1.301 . S
C232 N236 1.328 . S
C232 H237 0.930 . S
C233 C234 1.333 . S
C233 N235 1.317 . S
C233 H238 0.930 . S
C234 C233 1.333 . S
C234 N236 1.350 . S
C234 H260 0.931 . S
N235 Co231 2.148 . S
N235 C232 1.301 . S
N235 C233 1.317 . S
N236 C232 1.328 . S
N236 C234 1.350 . S
H237 C232 0.930 . S
H238 C233 0.930 . S
C239 O240 1.224 . S
C239 O258 1.247 . S
O240 C239 1.224 . S
N241 Co231 2.128 . S
N241 C242 1.355 . S
N241 C244 1.311 1_556 S
C242 N241 1.355 . S
C242 C243 1.363 1_556 S
C242 H254 0.929 . S
C243 C242 1.363 1_554 S
C243 N245 1.375 . S
C243 H261 0.931 . S
C244 N241 1.311 1_554 S
C244 N245 1.347 . S
C244 H255 0.929 1_554 S
N245 C243 1.375 . S
N245 C244 1.347 . S
C246 C249 1.365 . S
C246 N251 1.328 . S
C246 H252 0.929 . S
C247 C248 1.362 . S
C247 C250 1.378 . S
C247 H262 0.929 . S
C248 C247 1.362 . S
C248 C249 1.366 . S
C249 C246 1.365 . S
C249 C248 1.366 . S
C249 H263 0.930 . S
C250 C247 1.378 . S
C250 N251 1.315 . S
C250 H253 0.930 . S
N251 Co231 2.194 . S
N251 C246 1.328 . S
N251 C250 1.315 . S
H252 C246 0.929 . S
H253 C250 0.930 . S
H254 C242 0.929 . S
H255 C244 0.929 1_556 S
O256 Co231 2.351 . S
O256 C259 1.244 . S
O257 Co231 2.155 . S
O257 C259 1.240 . S
O258 Co231 2.096 . S
O258 C239 1.247 . S
C259 O256 1.244 . S
C259 O257 1.240 . S
H260 C234 0.931 . S
H261 C243 0.931 . S
H262 C247 0.929 . S
H263 C249 0.930 . S
Co264 N268 2.148 . S
Co264 N274 2.128 . S
Co264 N284 2.194 . S
Co264 O289 2.351 . S
Co264 O290 2.155 . S
Co264 O291 2.096 . S
C265 N268 1.301 . S
C265 N269 1.328 . S
C265 H270 0.930 . S
C266 C267 1.333 . S
C266 N268 1.317 . S
C266 H271 0.930 . S
C267 C266 1.333 . S
C267 N269 1.350 . S
C267 H293 0.931 . S
N268 Co264 2.148 . S
N268 C265 1.301 . S
N268 C266 1.317 . S
N269 C265 1.328 . S
N269 C267 1.350 . S
H270 C265 0.930 . S
H271 C266 0.930 . S
C272 O273 1.224 . S
C272 O291 1.247 . S
O273 C272 1.224 . S
N274 Co264 2.128 . S
N274 C275 1.355 . S
N274 C277 1.311 1_556 S
C275 N274 1.355 . S
C275 C276 1.363 1_556 S
C275 H287 0.929 1_655 S
C276 C275 1.363 1_554 S
C276 N278 1.375 . S
C276 H294 0.931 1_655 S
C277 N274 1.311 1_554 S
C277 N278 1.347 . S
C277 H288 0.929 . S
N278 C276 1.375 . S
N278 C277 1.347 . S
C279 C282 1.365 . S
C279 N284 1.328 1_455 S
C279 H285 0.929 . S
C280 C281 1.362 . S
C280 C283 1.378 1_455 S
C280 H295 0.929 . S
C281 C280 1.362 . S
C281 C282 1.366 . S
C282 C279 1.365 . S
C282 C281 1.366 . S
C282 H296 0.930 . S
C283 C280 1.378 1_655 S
C283 N284 1.315 . S
C283 H286 0.930 . S
N284 Co264 2.194 . S
N284 C279 1.328 1_655 S
N284 C283 1.315 . S
H285 C279 0.929 . S
H286 C283 0.930 . S
H287 C275 0.929 1_455 S
H288 C277 0.929 . S
O289 Co264 2.351 . S
O289 C292 1.244 . S
O290 Co264 2.155 . S
O290 C292 1.240 . S
O291 Co264 2.096 . S
O291 C272 1.247 . S
C292 O289 1.244 . S
C292 O290 1.240 . S
H293 C267 0.931 . S
H294 C276 0.931 1_455 S
H295 C280 0.929 . S
H296 C282 0.930 . S
Co297 N301 2.148 . S
Co297 N307 2.128 . S
Co297 N317 2.194 . S
Co297 O322 2.351 . S
Co297 O323 2.155 . S
Co297 O324 2.096 . S
C298 N301 1.301 . S
C298 N302 1.328 . S
C298 H303 0.930 . S
C299 C300 1.333 . S
C299 N301 1.317 . S
C299 H304 0.930 . S
C300 C299 1.333 . S
C300 N302 1.350 . S
C300 H326 0.931 . S
N301 Co297 2.148 . S
N301 C298 1.301 . S
N301 C299 1.317 . S
N302 C298 1.328 . S
N302 C300 1.350 . S
H303 C298 0.930 . S
H304 C299 0.930 . S
C305 O306 1.224 . S
C305 O324 1.247 . S
O306 C305 1.224 . S
N307 Co297 2.128 . S
N307 C308 1.355 . S
N307 C310 1.311 . S
C308 N307 1.355 . S
C308 C309 1.363 . S
C308 H320 0.929 1_565 S
C309 C308 1.363 . S
C309 N311 1.375 . S
C309 H327 0.931 1_565 S
C310 N307 1.311 . S
C310 N311 1.347 . S
C310 H321 0.929 . S
N311 C309 1.375 . S
N311 C310 1.347 . S
C312 C315 1.365 . S
C312 N317 1.328 1_545 S
C312 H318 0.929 . S
C313 C314 1.362 . S
C313 C316 1.378 1_545 S
C313 H328 0.929 . S
C314 C313 1.362 . S
C314 C315 1.366 . S
C315 C312 1.365 . S
C315 C314 1.366 . S
C315 H329 0.930 . S
C316 C313 1.378 1_565 S
C316 N317 1.315 . S
C316 H319 0.930 . S
N317 Co297 2.194 . S
N317 C312 1.328 1_565 S
N317 C316 1.315 . S
H318 C312 0.929 . S
H319 C316 0.930 . S
H320 C308 0.929 1_545 S
H321 C310 0.929 . S
O322 Co297 2.351 . S
O322 C325 1.244 . S
O323 Co297 2.155 . S
O323 C325 1.240 . S
O324 Co297 2.096 . S
O324 C305 1.247 . S
C325 O322 1.244 . S
C325 O323 1.240 . S
H326 C300 0.931 . S
H327 C309 0.931 1_545 S
H328 C313 0.929 . S
H329 C315 0.930 . S
Co330 N334 2.148 . S
Co330 N340 2.128 . S
Co330 N350 2.194 . S
Co330 O355 2.351 . S
Co330 O356 2.155 . S
Co330 O357 2.096 . S
C331 N334 1.301 . S
C331 N335 1.328 . S
C331 H336 0.930 . S
C332 C333 1.333 . S
C332 N334 1.317 . S
C332 H337 0.930 . S
C333 C332 1.333 . S
C333 N335 1.350 . S
C333 H359 0.931 . S
N334 Co330 2.148 . S
N334 C331 1.301 . S
N334 C332 1.317 . S
N335 C331 1.328 . S
N335 C333 1.350 . S
H336 C331 0.930 . S
H337 C332 0.930 . S
C338 O339 1.224 . S
C338 O357 1.247 . S
O339 C338 1.224 . S
N340 Co330 2.128 . S
N340 C341 1.355 . S
N340 C343 1.311 1_556 S
C341 N340 1.355 . S
C341 C342 1.363 1_556 S
C341 H353 0.929 . S
C342 C341 1.363 1_554 S
C342 N344 1.375 . S
C342 H360 0.931 . S
C343 N340 1.311 1_554 S
C343 N344 1.347 . S
C343 H354 0.929 1_554 S
N344 C342 1.375 . S
N344 C343 1.347 . S
C345 C348 1.365 . S
C345 N350 1.328 . S
C345 H351 0.929 . S
C346 C347 1.362 . S
C346 C349 1.378 . S
C346 H361 0.929 . S
C347 C346 1.362 . S
C347 C348 1.366 . S
C348 C345 1.365 . S
C348 C347 1.366 . S
C348 H362 0.930 . S
C349 C346 1.378 . S
C349 N350 1.315 . S
C349 H352 0.930 . S
N350 Co330 2.194 . S
N350 C345 1.328 . S
N350 C349 1.315 . S
H351 C345 0.929 . S
H352 C349 0.930 . S
H353 C341 0.929 . S
H354 C343 0.929 1_556 S
O355 Co330 2.351 . S
O355 C358 1.244 . S
O356 Co330 2.155 . S
O356 C358 1.240 . S
O357 Co330 2.096 . S
O357 C338 1.247 . S
C358 O355 1.244 . S
C358 O356 1.240 . S
H359 C333 0.931 . S
H360 C342 0.931 . S
H361 C346 0.929 . S
H362 C348 0.930 . S
Co363 N367 2.148 . S
Co363 N373 2.128 . S
Co363 N383 2.194 . S
Co363 O388 2.351 . S
Co363 O389 2.155 . S
Co363 O390 2.096 . S
C364 N367 1.301 . S
C364 N368 1.328 . S
C364 H369 0.930 . S
C365 C366 1.333 . S
C365 N367 1.317 . S
C365 H370 0.930 . S
C366 C365 1.333 . S
C366 N368 1.350 . S
C366 H392 0.931 . S
N367 Co363 2.148 . S
N367 C364 1.301 . S
N367 C365 1.317 . S
N368 C364 1.328 . S
N368 C366 1.350 . S
H369 C364 0.930 . S
H370 C365 0.930 . S
C371 O372 1.224 . S
C371 O390 1.247 . S
O372 C371 1.224 . S
N373 Co363 2.128 . S
N373 C374 1.355 . S
N373 C376 1.311 . S
C374 N373 1.355 . S
C374 C375 1.363 . S
C374 H386 0.929 . S
C375 C374 1.363 . S
C375 N377 1.375 . S
C375 H393 0.931 . S
C376 N373 1.311 . S
C376 N377 1.347 . S
C376 H387 0.929 . S
N377 C375 1.375 . S
N377 C376 1.347 . S
C378 C381 1.365 . S
C378 N383 1.328 . S
C378 H384 0.929 . S
C379 C380 1.362 . S
C379 C382 1.378 . S
C379 H394 0.929 . S
C380 C379 1.362 . S
C380 C381 1.366 . S
C381 C378 1.365 . S
C381 C380 1.366 . S
C381 H395 0.930 . S
C382 C379 1.378 . S
C382 N383 1.315 . S
C382 H385 0.930 . S
N383 Co363 2.194 . S
N383 C378 1.328 . S
N383 C382 1.315 . S
H384 C378 0.929 . S
H385 C382 0.930 . S
H386 C374 0.929 . S
H387 C376 0.929 . S
O388 Co363 2.351 . S
O388 C391 1.244 . S
O389 Co363 2.155 . S
O389 C391 1.240 . S
O390 Co363 2.096 . S
O390 C371 1.247 . S
C391 O388 1.244 . S
C391 O389 1.240 . S
H392 C366 0.931 . S
H393 C375 0.931 . S
H394 C379 0.929 . S
H395 C381 0.930 . S
Co396 N400 2.148 . S
Co396 N406 2.128 . S
Co396 N416 2.194 . S
Co396 O421 2.351 . S
Co396 O422 2.155 . S
Co396 O423 2.096 . S
C397 N400 1.301 . S
C397 N401 1.328 . S
C397 H402 0.930 . S
C398 C399 1.333 . S
C398 N400 1.317 . S
C398 H403 0.930 . S
C399 C398 1.333 . S
C399 N401 1.350 . S
C399 H425 0.931 . S
N400 Co396 2.148 . S
N400 C397 1.301 . S
N400 C398 1.317 . S
N401 C397 1.328 . S
N401 C399 1.350 . S
H402 C397 0.930 . S
H403 C398 0.930 . S
C404 O405 1.224 . S
C404 O423 1.247 . S
O405 C404 1.224 . S
N406 Co396 2.128 . S
N406 C407 1.355 . S
N406 C409 1.311 . S
C407 N406 1.355 . S
C407 C408 1.363 . S
C407 H419 0.929 1_655 S
C408 C407 1.363 . S
C408 N410 1.375 . S
C408 H426 0.931 1_655 S
C409 N406 1.311 . S
C409 N410 1.347 . S
C409 H420 0.929 . S
N410 C408 1.375 . S
N410 C409 1.347 . S
C411 C414 1.365 . S
C411 N416 1.328 1_455 S
C411 H417 0.929 . S
C412 C413 1.362 . S
C412 C415 1.378 1_455 S
C412 H427 0.929 . S
C413 C412 1.362 . S
C413 C414 1.366 . S
C414 C411 1.365 . S
C414 C413 1.366 . S
C414 H428 0.930 . S
C415 C412 1.378 1_655 S
C415 N416 1.315 . S
C415 H418 0.930 . S
N416 Co396 2.194 . S
N416 C411 1.328 1_655 S
N416 C415 1.315 . S
H417 C411 0.929 . S
H418 C415 0.930 . S
H419 C407 0.929 1_455 S
H420 C409 0.929 . S
O421 Co396 2.351 . S
O421 C424 1.244 . S
O422 Co396 2.155 . S
O422 C424 1.240 . S
O423 Co396 2.096 . S
O423 C404 1.247 . S
C424 O421 1.244 . S
C424 O422 1.240 . S
H425 C399 0.931 . S
H426 C408 0.931 1_455 S
H427 C412 0.929 . S
H428 C414 0.930 . S
Co429 N433 2.148 . S
Co429 N439 2.128 . S
Co429 N449 2.194 . S
Co429 O454 2.351 . S
Co429 O455 2.155 . S
Co429 O456 2.096 . S
C430 N433 1.301 . S
C430 N434 1.328 . S
C430 H435 0.930 . S
C431 C432 1.333 . S
C431 N433 1.317 . S
C431 H436 0.930 . S
C432 C431 1.333 . S
C432 N434 1.350 . S
C432 H458 0.931 . S
N433 Co429 2.148 . S
N433 C430 1.301 . S
N433 C431 1.317 . S
N434 C430 1.328 . S
N434 C432 1.350 . S
H435 C430 0.930 . S
H436 C431 0.930 . S
C437 O438 1.224 . S
C437 O456 1.247 . S
O438 C437 1.224 . S
N439 Co429 2.128 . S
N439 C440 1.355 . S
N439 C442 1.311 1_554 S
C440 N439 1.355 . S
C440 C441 1.363 1_554 S
C440 H452 0.929 1_565 S
C441 C440 1.363 1_556 S
C441 N443 1.375 . S
C441 H459 0.931 1_565 S
C442 N439 1.311 1_556 S
C442 N443 1.347 . S
C442 H453 0.929 . S
N443 C441 1.375 . S
N443 C442 1.347 . S
C444 C447 1.365 . S
C444 N449 1.328 1_545 S
C444 H450 0.929 . S
C445 C446 1.362 . S
C445 C448 1.378 1_545 S
C445 H460 0.929 . S
C446 C445 1.362 . S
C446 C447 1.366 . S
C447 C444 1.365 . S
C447 C446 1.366 . S
C447 H461 0.930 . S
C448 C445 1.378 1_565 S
C448 N449 1.315 . S
C448 H451 0.930 . S
N449 Co429 2.194 . S
N449 C444 1.328 1_565 S
N449 C448 1.315 . S
H450 C444 0.929 . S
H451 C448 0.930 . S
H452 C440 0.929 1_545 S
H453 C442 0.929 . S
O454 Co429 2.351 . S
O454 C457 1.244 . S
O455 Co429 2.155 . S
O455 C457 1.240 . S
O456 Co429 2.096 . S
O456 C437 1.247 . S
C457 O454 1.244 . S
C457 O455 1.240 . S
H458 C432 0.931 . S
H459 C441 0.931 1_545 S
H460 C445 0.929 . S
H461 C447 0.930 . S
Co462 N466 2.148 . S
Co462 N472 2.128 . S
Co462 N482 2.194 . S
Co462 O487 2.351 . S
Co462 O488 2.155 . S
Co462 O489 2.096 . S
C463 N466 1.301 . S
C463 N467 1.328 . S
C463 H468 0.930 . S
C464 C465 1.333 . S
C464 N466 1.317 . S
C464 H469 0.930 . S
C465 C464 1.333 . S
C465 N467 1.350 . S
C465 H491 0.931 . S
N466 Co462 2.148 . S
N466 C463 1.301 . S
N466 C464 1.317 . S
N467 C463 1.328 . S
N467 C465 1.350 . S
H468 C463 0.930 . S
H469 C464 0.930 . S
C470 O471 1.224 . S
C470 O489 1.247 . S
O471 C470 1.224 . S
N472 Co462 2.128 . S
N472 C473 1.355 . S
N472 C475 1.311 . S
C473 N472 1.355 . S
C473 C474 1.363 . S
C473 H485 0.929 . S
C474 C473 1.363 . S
C474 N476 1.375 . S
C474 H492 0.931 . S
C475 N472 1.311 . S
C475 N476 1.347 . S
C475 H486 0.929 . S
N476 C474 1.375 . S
N476 C475 1.347 . S
C477 C480 1.365 . S
C477 N482 1.328 . S
C477 H483 0.929 . S
C478 C479 1.362 . S
C478 C481 1.378 . S
C478 H493 0.929 . S
C479 C478 1.362 . S
C479 C480 1.366 . S
C480 C477 1.365 . S
C480 C479 1.366 . S
C480 H494 0.930 . S
C481 C478 1.378 . S
C481 N482 1.315 . S
C481 H484 0.930 . S
N482 Co462 2.194 . S
N482 C477 1.328 . S
N482 C481 1.315 . S
H483 C477 0.929 . S
H484 C481 0.930 . S
H485 C473 0.929 . S
H486 C475 0.929 . S
O487 Co462 2.351 . S
O487 C490 1.244 . S
O488 Co462 2.155 . S
O488 C490 1.240 . S
O489 Co462 2.096 . S
O489 C470 1.247 . S
C490 O487 1.244 . S
C490 O488 1.240 . S
H491 C465 0.931 . S
H492 C474 0.931 . S
H493 C478 0.929 . S
H494 C480 0.930 . S
Co495 N499 2.148 . S
Co495 N505 2.128 . S
Co495 N515 2.194 . S
Co495 O520 2.351 . S
Co495 O521 2.155 . S
Co495 O522 2.096 . S
C496 N499 1.301 . S
C496 N500 1.328 . S
C496 H501 0.930 . S
C497 C498 1.333 . S
C497 N499 1.317 . S
C497 H502 0.930 . S
C498 C497 1.333 . S
C498 N500 1.350 . S
C498 H524 0.931 . S
N499 Co495 2.148 . S
N499 C496 1.301 . S
N499 C497 1.317 . S
N500 C496 1.328 . S
N500 C498 1.350 . S
H501 C496 0.930 . S
H502 C497 0.930 . S
C503 O504 1.224 . S
C503 O522 1.247 . S
O504 C503 1.224 . S
N505 Co495 2.128 . S
N505 C506 1.355 . S
N505 C508 1.311 1_554 S
C506 N505 1.355 . S
C506 C507 1.363 1_554 S
C506 H518 0.929 . S
C507 C506 1.363 1_556 S
C507 N509 1.375 . S
C507 H525 0.931 . S
C508 N505 1.311 1_556 S
C508 N509 1.347 . S
C508 H519 0.929 1_556 S
N509 C507 1.375 . S
N509 C508 1.347 . S
C510 C513 1.365 . S
C510 N515 1.328 . S
C510 H516 0.929 . S
C511 C512 1.362 . S
C511 C514 1.378 . S
C511 H526 0.929 . S
C512 C511 1.362 . S
C512 C513 1.366 . S
C513 C510 1.365 . S
C513 C512 1.366 . S
C513 H527 0.930 . S
C514 C511 1.378 . S
C514 N515 1.315 . S
C514 H517 0.930 . S
N515 Co495 2.194 . S
N515 C510 1.328 . S
N515 C514 1.315 . S
H516 C510 0.929 . S
H517 C514 0.930 . S
H518 C506 0.929 . S
H519 C508 0.929 1_554 S
O520 Co495 2.351 . S
O520 C523 1.244 . S
O521 Co495 2.155 . S
O521 C523 1.240 . S
O522 Co495 2.096 . S
O522 C503 1.247 . S
C523 O520 1.244 . S
C523 O521 1.240 . S
H524 C498 0.931 . S
H525 C507 0.931 . S
H526 C511 0.929 . S
H527 C513 0.930 . S
H528 C546 0.951 . S
H529 C548 0.951 . S
H530 C550 0.950 . S
H531 C551 0.950 . S
H532 C553 0.950 . S
H533 C556 0.950 . S
H534 C557 0.950 . S
H535 C559 0.950 . S
H536 C560 0.950 . S
H537 C561 0.951 . S
H538 C563 0.951 . S
H539 C565 0.950 . S
H540 C566 0.950 . S
H541 C568 0.950 . S
H542 C571 0.950 . S
H543 C572 0.950 . S
H544 C574 0.950 . S
H545 C575 0.950 1_556 S
C546 H528 0.951 . S
C546 C547 1.366 . S
C546 C548 1.388 . S
C547 C546 1.366 . S
C547 C551 1.385 . S
C548 H529 0.951 . S
C548 C546 1.388 . S
C548 C549 1.366 . S
C549 C548 1.366 . S
C549 C550 1.414 . S
C549 C552 1.499 . S
C550 H530 0.950 . S
C550 C549 1.414 . S
C550 C551 1.374 . S
C551 H531 0.950 . S
C551 C547 1.385 . S
C551 C550 1.374 . S
C552 C549 1.499 . S
C552 C553 1.373 . S
C552 C554 1.389 . S
C553 H532 0.950 . S
C553 C552 1.373 . S
C553 C569 1.377 . S
C554 C552 1.389 . S
C554 C555 1.524 . S
C554 C568 1.377 . S
C555 C554 1.524 . S
C555 C556 1.397 . S
C555 C560 1.363 . S
C556 H533 0.950 . S
C556 C555 1.397 . S
C556 C557 1.334 . S
C557 H534 0.950 . S
C557 C556 1.334 . S
C557 C558 1.287 . S
C558 C557 1.287 . S
C558 C559 1.524 . S
C558 H577 0.913 . S
C559 H535 0.950 . S
C559 C558 1.524 . S
C559 C560 1.415 . S
C560 H536 0.950 . S
C560 C555 1.363 . S
C560 C559 1.415 . S
C561 H537 0.951 . S
C561 C562 1.366 . S
C561 C563 1.388 . S
C562 C561 1.366 . S
C562 C566 1.385 . S
C563 H538 0.951 . S
C563 C561 1.388 . S
C563 C564 1.366 . S
C564 C563 1.366 . S
C564 C565 1.414 . S
C564 C567 1.499 . S
C565 H539 0.950 . S
C565 C564 1.414 . S
C565 C566 1.374 . S
C566 H540 0.950 . S
C566 C562 1.385 . S
C566 C565 1.374 . S
C567 C564 1.499 . S
C567 C568 1.373 . S
C567 C569 1.389 . S
C568 H541 0.950 . S
C568 C554 1.377 . S
C568 C567 1.373 . S
C569 C553 1.377 . S
C569 C567 1.389 . S
C569 C570 1.524 . S
C570 C569 1.524 . S
C570 C571 1.397 . S
C570 C575 1.363 . S
C571 H542 0.950 . S
C571 C570 1.397 . S
C571 C572 1.334 . S
C572 H543 0.950 . S
C572 C571 1.334 . S
C572 C573 1.287 . S
C573 C572 1.287 . S
C573 C574 1.524 1_554 S
C573 H576 0.999 1_554 S
C574 H544 0.950 . S
C574 C573 1.524 1_556 S
C574 C575 1.415 1_556 S
C575 H545 0.950 1_554 S
C575 C570 1.363 . S
C575 C574 1.415 1_554 S
H576 C573 0.999 1_556 S
H577 C558 0.913 . S
H578 C596 0.951 . S
H579 C598 0.951 . S
H580 C600 0.950 . S
H581 C601 0.950 . S
H582 C603 0.950 . S
H583 C606 0.950 . S
H584 C607 0.950 . S
H585 C609 0.950 . S
H586 C610 0.950 . S
H587 C611 0.951 . S
H588 C613 0.951 . S
H589 C615 0.950 . S
H590 C616 0.950 . S
H591 C618 0.950 . S
H592 C621 0.950 . S
H593 C622 0.950 . S
H594 C624 0.950 . S
H595 C625 0.950 . S
C596 H578 0.951 . S
C596 C597 1.366 . S
C596 C598 1.388 . S
C597 C596 1.366 . S
C597 C601 1.385 . S
C598 H579 0.951 . S
C598 C596 1.388 . S
C598 C599 1.366 . S
C599 C598 1.366 . S
C599 C600 1.414 . S
C599 C602 1.499 . S
C600 H580 0.950 . S
C600 C599 1.414 . S
C600 C601 1.374 . S
C601 H581 0.950 . S
C601 C597 1.385 . S
C601 C600 1.374 . S
C602 C599 1.499 . S
C602 C603 1.373 . S
C602 C604 1.389 . S
C603 H582 0.950 . S
C603 C602 1.373 . S
C603 C619 1.377 . S
C604 C602 1.389 . S
C604 C605 1.524 . S
C604 C618 1.377 . S
C605 C604 1.524 . S
C605 C606 1.397 . S
C605 C610 1.363 . S
C606 H583 0.950 . S
C606 C605 1.397 . S
C606 C607 1.334 . S
C607 H584 0.950 . S
C607 C606 1.334 . S
C607 C608 1.287 . S
C608 C607 1.287 . S
C608 C609 1.524 . S
C608 H627 0.913 . S
C609 H585 0.950 . S
C609 C608 1.524 . S
C609 C610 1.415 . S
C610 H586 0.950 . S
C610 C605 1.363 . S
C610 C609 1.415 . S
C611 H587 0.951 . S
C611 C612 1.366 . S
C611 C613 1.388 . S
C612 C611 1.366 . S
C612 C616 1.385 . S
C613 H588 0.951 . S
C613 C611 1.388 . S
C613 C614 1.366 . S
C614 C613 1.366 . S
C614 C615 1.414 . S
C614 C617 1.499 . S
C615 H589 0.950 . S
C615 C614 1.414 . S
C615 C616 1.374 . S
C616 H590 0.950 . S
C616 C612 1.385 . S
C616 C615 1.374 . S
C617 C614 1.499 . S
C617 C618 1.373 . S
C617 C619 1.389 . S
C618 H591 0.950 . S
C618 C604 1.377 . S
C618 C617 1.373 . S
C619 C603 1.377 . S
C619 C617 1.389 . S
C619 C620 1.524 . S
C620 C619 1.524 . S
C620 C621 1.397 . S
C620 C625 1.363 . S
C621 H592 0.950 . S
C621 C620 1.397 . S
C621 C622 1.334 . S
C622 H593 0.950 . S
C622 C621 1.334 . S
C622 C623 1.287 . S
C623 C622 1.287 . S
C623 C624 1.524 . S
C623 H626 0.999 . S
C624 H594 0.950 . S
C624 C623 1.524 . S
C624 C625 1.415 . S
C625 H595 0.950 . S
C625 C620 1.363 . S
C625 C624 1.415 . S
H626 C623 0.999 . S
H627 C608 0.913 . S
H628 C646 0.951 . S
H629 C648 0.951 . S
H630 C650 0.950 . S
H631 C651 0.950 . S
H632 C653 0.950 . S
H633 C656 0.950 . S
H634 C657 0.950 . S
H635 C659 0.950 . S
H636 C660 0.950 . S
H637 C661 0.951 . S
H638 C663 0.951 . S
H639 C665 0.950 . S
H640 C666 0.950 . S
H641 C668 0.950 . S
H642 C671 0.950 . S
H643 C672 0.950 . S
H644 C674 0.950 . S
H645 C675 0.950 . S
C646 H628 0.951 . S
C646 C647 1.366 . S
C646 C648 1.388 . S
C647 C646 1.366 . S
C647 C651 1.385 . S
C648 H629 0.951 . S
C648 C646 1.388 . S
C648 C649 1.366 . S
C649 C648 1.366 . S
C649 C650 1.414 . S
C649 C652 1.499 . S
C650 H630 0.950 . S
C650 C649 1.414 . S
C650 C651 1.374 . S
C651 H631 0.950 . S
C651 C647 1.385 . S
C651 C650 1.374 . S
C652 C649 1.499 . S
C652 C653 1.373 . S
C652 C654 1.389 . S
C653 H632 0.950 . S
C653 C652 1.373 . S
C653 C669 1.377 . S
C654 C652 1.389 . S
C654 C655 1.524 . S
C654 C668 1.377 . S
C655 C654 1.524 . S
C655 C656 1.397 . S
C655 C660 1.363 1_554 S
C656 H633 0.950 . S
C656 C655 1.397 . S
C656 C657 1.334 1_554 S
C657 H634 0.950 . S
C657 C656 1.334 1_556 S
C657 C658 1.287 . S
C658 C657 1.287 . S
C658 C659 1.524 . S
C658 H677 0.913 . S
C659 H635 0.950 . S
C659 C658 1.524 . S
C659 C660 1.415 . S
C660 H636 0.950 . S
C660 C655 1.363 1_556 S
C660 C659 1.415 . S
C661 H637 0.951 . S
C661 C662 1.366 . S
C661 C663 1.388 . S
C662 C661 1.366 . S
C662 C666 1.385 . S
C663 H638 0.951 . S
C663 C661 1.388 . S
C663 C664 1.366 . S
C664 C663 1.366 . S
C664 C665 1.414 . S
C664 C667 1.499 . S
C665 H639 0.950 . S
C665 C664 1.414 . S
C665 C666 1.374 . S
C666 H640 0.950 . S
C666 C662 1.385 . S
C666 C665 1.374 . S
C667 C664 1.499 . S
C667 C668 1.373 . S
C667 C669 1.389 . S
C668 H641 0.950 . S
C668 C654 1.377 . S
C668 C667 1.373 . S
C669 C653 1.377 . S
C669 C667 1.389 . S
C669 C670 1.524 . S
C670 C669 1.524 . S
C670 C671 1.397 . S
C670 C675 1.363 . S
C671 H642 0.950 . S
C671 C670 1.397 . S
C671 C672 1.334 . S
C672 H643 0.950 . S
C672 C671 1.334 . S
C672 C673 1.287 . S
C673 C672 1.287 . S
C673 C674 1.524 . S
C673 H676 0.999 . S
C674 H644 0.950 . S
C674 C673 1.524 . S
C674 C675 1.415 . S
C675 H645 0.950 . S
C675 C670 1.363 . S
C675 C674 1.415 . S
H676 C673 0.999 . S
H677 C658 0.913 . S
H678 C696 0.951 . S
H679 C698 0.951 . S
H680 C700 0.950 . S
H681 C701 0.950 . S
H682 C703 0.950 . S
H683 C706 0.950 . S
H684 C707 0.950 . S
H685 C709 0.950 . S
H686 C710 0.950 . S
H687 C711 0.951 . S
H688 C713 0.951 . S
H689 C715 0.950 . S
H690 C716 0.950 . S
H691 C718 0.950 . S
H692 C721 0.950 . S
H693 C722 0.950 . S
H694 C724 0.950 . S
H695 C725 0.950 . S
C696 H678 0.951 . S
C696 C697 1.366 . S
C696 C698 1.388 . S
C697 C696 1.366 . S
C697 C701 1.385 . S
C698 H679 0.951 . S
C698 C696 1.388 . S
C698 C699 1.366 . S
C699 C698 1.366 . S
C699 C700 1.414 . S
C699 C702 1.499 . S
C700 H680 0.950 . S
C700 C699 1.414 . S
C700 C701 1.374 . S
C701 H681 0.950 . S
C701 C697 1.385 . S
C701 C700 1.374 . S
C702 C699 1.499 . S
C702 C703 1.373 . S
C702 C704 1.389 . S
C703 H682 0.950 . S
C703 C702 1.373 . S
C703 C719 1.377 . S
C704 C702 1.389 . S
C704 C705 1.524 . S
C704 C718 1.377 . S
C705 C704 1.524 . S
C705 C706 1.397 . S
C705 C710 1.363 . S
C706 H683 0.950 . S
C706 C705 1.397 . S
C706 C707 1.334 . S
C707 H684 0.950 . S
C707 C706 1.334 . S
C707 C708 1.287 . S
C708 C707 1.287 . S
C708 C709 1.524 . S
C708 H727 0.913 . S
C709 H685 0.950 . S
C709 C708 1.524 . S
C709 C710 1.415 . S
C710 H686 0.950 . S
C710 C705 1.363 . S
C710 C709 1.415 . S
C711 H687 0.951 . S
C711 C712 1.366 . S
C711 C713 1.388 . S
C712 C711 1.366 . S
C712 C716 1.385 . S
C713 H688 0.951 . S
C713 C711 1.388 . S
C713 C714 1.366 . S
C714 C713 1.366 . S
C714 C715 1.414 . S
C714 C717 1.499 . S
C715 H689 0.950 . S
C715 C714 1.414 . S
C715 C716 1.374 . S
C716 H690 0.950 . S
C716 C712 1.385 . S
C716 C715 1.374 . S
C717 C714 1.499 . S
C717 C718 1.373 . S
C717 C719 1.389 . S
C718 H691 0.950 . S
C718 C704 1.377 . S
C718 C717 1.373 . S
C719 C703 1.377 . S
C719 C717 1.389 . S
C719 C720 1.524 . S
C720 C719 1.524 . S
C720 C721 1.397 . S
C720 C725 1.363 . S
C721 H692 0.950 . S
C721 C720 1.397 . S
C721 C722 1.334 . S
C722 H693 0.950 . S
C722 C721 1.334 . S
C722 C723 1.287 . S
C723 C722 1.287 . S
C723 C724 1.524 . S
C723 H726 0.999 . S
C724 H694 0.950 . S
C724 C723 1.524 . S
C724 C725 1.415 . S
C725 H695 0.950 . S
C725 C720 1.363 . S
C725 C724 1.415 . S
H726 C723 0.999 . S
H727 C708 0.913 . S
H728 C746 0.951 . S
H729 C748 0.951 . S
H730 C750 0.950 . S
H731 C751 0.950 . S
H732 C753 0.950 . S
H733 C756 0.950 . S
H734 C757 0.950 . S
H735 C759 0.950 . S
H736 C760 0.950 . S
H737 C761 0.951 . S
H738 C763 0.951 . S
H739 C765 0.950 . S
H740 C766 0.950 . S
H741 C768 0.950 . S
H742 C771 0.950 . S
H743 C772 0.950 . S
H744 C774 0.950 . S
H745 C775 0.950 . S
C746 H728 0.951 . S
C746 C747 1.366 . S
C746 C748 1.388 . S
C747 C746 1.366 . S
C747 C751 1.385 . S
C748 H729 0.951 . S
C748 C746 1.388 . S
C748 C749 1.366 . S
C749 C748 1.366 . S
C749 C750 1.414 . S
C749 C752 1.499 . S
C750 H730 0.950 . S
C750 C749 1.414 . S
C750 C751 1.374 . S
C751 H731 0.950 . S
C751 C747 1.385 . S
C751 C750 1.374 . S
C752 C749 1.499 . S
C752 C753 1.373 . S
C752 C754 1.389 . S
C753 H732 0.950 . S
C753 C752 1.373 . S
C753 C769 1.377 . S
C754 C752 1.389 . S
C754 C755 1.524 . S
C754 C768 1.377 . S
C755 C754 1.524 . S
C755 C756 1.397 . S
C755 C760 1.363 . S
C756 H733 0.950 . S
C756 C755 1.397 . S
C756 C757 1.334 . S
C757 H734 0.950 . S
C757 C756 1.334 . S
C757 C758 1.287 . S
C758 C757 1.287 . S
C758 C759 1.524 . S
C758 H777 0.913 . S
C759 H735 0.950 . S
C759 C758 1.524 . S
C759 C760 1.415 . S
C760 H736 0.950 . S
C760 C755 1.363 . S
C760 C759 1.415 . S
C761 H737 0.951 . S
C761 C762 1.366 . S
C761 C763 1.388 . S
C762 C761 1.366 . S
C762 C766 1.385 . S
C763 H738 0.951 . S
C763 C761 1.388 . S
C763 C764 1.366 . S
C764 C763 1.366 . S
C764 C765 1.414 . S
C764 C767 1.499 . S
C765 H739 0.950 . S
C765 C764 1.414 . S
C765 C766 1.374 . S
C766 H740 0.950 . S
C766 C762 1.385 . S
C766 C765 1.374 . S
C767 C764 1.499 . S
C767 C768 1.373 . S
C767 C769 1.389 . S
C768 H741 0.950 . S
C768 C754 1.377 . S
C768 C767 1.373 . S
C769 C753 1.377 . S
C769 C767 1.389 . S
C769 C770 1.524 . S
C770 C769 1.524 . S
C770 C771 1.397 . S
C770 C775 1.363 . S
C771 H742 0.950 . S
C771 C770 1.397 . S
C771 C772 1.334 . S
C772 H743 0.950 . S
C772 C771 1.334 . S
C772 C773 1.287 . S
C773 C772 1.287 . S
C773 C774 1.524 . S
C773 H776 0.999 . S
C774 H744 0.950 . S
C774 C773 1.524 . S
C774 C775 1.415 . S
C775 H745 0.950 . S
C775 C770 1.363 . S
C775 C774 1.415 . S
H776 C773 0.999 . S
H777 C758 0.913 . S
H778 C796 0.951 . S
H779 C798 0.951 . S
H780 C800 0.950 . S
H781 C801 0.950 . S
H782 C803 0.950 . S
H783 C806 0.950 . S
H784 C807 0.950 . S
H785 C809 0.950 . S
H786 C810 0.950 . S
H787 C811 0.951 . S
H788 C813 0.951 . S
H789 C815 0.950 . S
H790 C816 0.950 . S
H791 C818 0.950 . S
H792 C821 0.950 . S
H793 C822 0.950 . S
H794 C824 0.950 . S
H795 C825 0.950 . S
C796 H778 0.951 . S
C796 C797 1.366 . S
C796 C798 1.388 . S
C797 C796 1.366 . S
C797 C801 1.385 . S
C798 H779 0.951 . S
C798 C796 1.388 . S
C798 C799 1.366 . S
C799 C798 1.366 . S
C799 C800 1.414 . S
C799 C802 1.499 . S
C800 H780 0.950 . S
C800 C799 1.414 . S
C800 C801 1.374 . S
C801 H781 0.950 . S
C801 C797 1.385 . S
C801 C800 1.374 . S
C802 C799 1.499 . S
C802 C803 1.373 . S
C802 C804 1.389 . S
C803 H782 0.950 . S
C803 C802 1.373 . S
C803 C819 1.377 . S
C804 C802 1.389 . S
C804 C805 1.524 . S
C804 C818 1.377 . S
C805 C804 1.524 . S
C805 C806 1.397 . S
C805 C810 1.363 . S
C806 H783 0.950 . S
C806 C805 1.397 . S
C806 C807 1.334 1_556 S
C807 H784 0.950 . S
C807 C806 1.334 1_554 S
C807 C808 1.287 . S
C808 C807 1.287 . S
C808 C809 1.524 . S
C808 H827 0.913 . S
C809 H785 0.950 . S
C809 C808 1.524 . S
C809 C810 1.415 1_554 S
C810 H786 0.950 . S
C810 C805 1.363 . S
C810 C809 1.415 1_556 S
C811 H787 0.951 . S
C811 C812 1.366 . S
C811 C813 1.388 . S
C812 C811 1.366 . S
C812 C816 1.385 . S
C813 H788 0.951 . S
C813 C811 1.388 . S
C813 C814 1.366 . S
C814 C813 1.366 . S
C814 C815 1.414 . S
C814 C817 1.499 . S
C815 H789 0.950 . S
C815 C814 1.414 . S
C815 C816 1.374 . S
C816 H790 0.950 . S
C816 C812 1.385 . S
C816 C815 1.374 . S
C817 C814 1.499 . S
C817 C818 1.373 . S
C817 C819 1.389 . S
C818 H791 0.950 . S
C818 C804 1.377 . S
C818 C817 1.373 . S
C819 C803 1.377 . S
C819 C817 1.389 . S
C819 C820 1.524 . S
C820 C819 1.524 . S
C820 C821 1.397 . S
C820 C825 1.363 . S
C821 H792 0.950 . S
C821 C820 1.397 . S
C821 C822 1.334 . S
C822 H793 0.950 . S
C822 C821 1.334 . S
C822 C823 1.287 . S
C823 C822 1.287 . S
C823 C824 1.524 . S
C823 H826 0.999 . S
C824 H794 0.950 . S
C824 C823 1.524 . S
C824 C825 1.415 . S
C825 H795 0.950 . S
C825 C820 1.363 . S
C825 C824 1.415 . S
H826 C823 0.999 . S
H827 C808 0.913 . S
H828 C846 0.951 . S
H829 C848 0.951 . S
H830 C850 0.950 . S
H831 C851 0.950 . S
H832 C853 0.950 . S
H833 C856 0.950 . S
H834 C857 0.950 . S
H835 C859 0.950 . S
H836 C860 0.950 . S
H837 C861 0.951 . S
H838 C863 0.951 . S
H839 C865 0.950 . S
H840 C866 0.950 . S
H841 C868 0.950 . S
H842 C871 0.950 . S
H843 C872 0.950 . S
H844 C874 0.950 . S
H845 C875 0.950 . S
C846 H828 0.951 . S
C846 C847 1.366 . S
C846 C848 1.388 . S
C847 C846 1.366 . S
C847 C851 1.385 . S
C848 H829 0.951 . S
C848 C846 1.388 . S
C848 C849 1.366 . S
C849 C848 1.366 . S
C849 C850 1.414 . S
C849 C852 1.499 . S
C850 H830 0.950 . S
C850 C849 1.414 . S
C850 C851 1.374 . S
C851 H831 0.950 . S
C851 C847 1.385 . S
C851 C850 1.374 . S
C852 C849 1.499 . S
C852 C853 1.373 . S
C852 C854 1.389 . S
C853 H832 0.950 . S
C853 C852 1.373 . S
C853 C869 1.377 . S
C854 C852 1.389 . S
C854 C855 1.524 . S
C854 C868 1.377 . S
C855 C854 1.524 . S
C855 C856 1.397 . S
C855 C860 1.363 . S
C856 H833 0.950 . S
C856 C855 1.397 . S
C856 C857 1.334 . S
C857 H834 0.950 . S
C857 C856 1.334 . S
C857 C858 1.287 . S
C858 C857 1.287 . S
C858 C859 1.524 . S
C858 H877 0.913 . S
C859 H835 0.950 . S
C859 C858 1.524 . S
C859 C860 1.415 . S
C860 H836 0.950 . S
C860 C855 1.363 . S
C860 C859 1.415 . S
C861 H837 0.951 . S
C861 C862 1.366 . S
C861 C863 1.388 . S
C862 C861 1.366 . S
C862 C866 1.385 . S
C863 H838 0.951 . S
C863 C861 1.388 . S
C863 C864 1.366 . S
C864 C863 1.366 . S
C864 C865 1.414 . S
C864 C867 1.499 . S
C865 H839 0.950 . S
C865 C864 1.414 . S
C865 C866 1.374 . S
C866 H840 0.950 . S
C866 C862 1.385 . S
C866 C865 1.374 . S
C867 C864 1.499 . S
C867 C868 1.373 . S
C867 C869 1.389 . S
C868 H841 0.950 . S
C868 C854 1.377 . S
C868 C867 1.373 . S
C869 C853 1.377 . S
C869 C867 1.389 . S
C869 C870 1.524 . S
C870 C869 1.524 . S
C870 C871 1.397 . S
C870 C875 1.363 . S
C871 H842 0.950 . S
C871 C870 1.397 . S
C871 C872 1.334 . S
C872 H843 0.950 . S
C872 C871 1.334 . S
C872 C873 1.287 . S
C873 C872 1.287 . S
C873 C874 1.524 . S
C873 H876 0.999 . S
C874 H844 0.950 . S
C874 C873 1.524 . S
C874 C875 1.415 . S
C875 H845 0.950 . S
C875 C870 1.363 . S
C875 C874 1.415 . S
H876 C873 0.999 . S
H877 C858 0.913 . S
H878 C896 0.951 . S
H879 C898 0.951 . S
H880 C900 0.950 . S
H881 C901 0.950 . S
H882 C903 0.950 . S
H883 C906 0.950 . S
H884 C907 0.950 . S
H885 C909 0.950 . S
H886 C910 0.950 . S
H887 C911 0.951 . S
H888 C913 0.951 . S
H889 C915 0.950 . S
H890 C916 0.950 . S
H891 C918 0.950 . S
H892 C921 0.950 . S
H893 C922 0.950 . S
H894 C924 0.950 . S
H895 C925 0.950 . S
C896 H878 0.951 . S
C896 C897 1.366 . S
C896 C898 1.388 . S
C897 C896 1.366 . S
C897 C901 1.385 . S
C898 H879 0.951 . S
C898 C896 1.388 . S
C898 C899 1.366 . S
C899 C898 1.366 . S
C899 C900 1.414 . S
C899 C902 1.499 . S
C900 H880 0.950 . S
C900 C899 1.414 . S
C900 C901 1.374 . S
C901 H881 0.950 . S
C901 C897 1.385 . S
C901 C900 1.374 . S
C902 C899 1.499 . S
C902 C903 1.373 . S
C902 C904 1.389 . S
C903 H882 0.950 . S
C903 C902 1.373 . S
C903 C919 1.377 . S
C904 C902 1.389 . S
C904 C905 1.524 . S
C904 C918 1.377 . S
C905 C904 1.524 . S
C905 C906 1.397 . S
C905 C910 1.363 . S
C906 H883 0.950 . S
C906 C905 1.397 . S
C906 C907 1.334 . S
C907 H884 0.950 . S
C907 C906 1.334 . S
C907 C908 1.287 . S
C908 C907 1.287 . S
C908 C909 1.524 . S
C908 H927 0.913 . S
C909 H885 0.950 . S
C909 C908 1.524 . S
C909 C910 1.415 . S
C910 H886 0.950 . S
C910 C905 1.363 . S
C910 C909 1.415 . S
C911 H887 0.951 . S
C911 C912 1.366 . S
C911 C913 1.388 . S
C912 C911 1.366 . S
C912 C916 1.385 . S
C913 H888 0.951 . S
C913 C911 1.388 . S
C913 C914 1.366 . S
C914 C913 1.366 . S
C914 C915 1.414 . S
C914 C917 1.499 . S
C915 H889 0.950 . S
C915 C914 1.414 . S
C915 C916 1.374 . S
C916 H890 0.950 . S
C916 C912 1.385 . S
C916 C915 1.374 . S
C917 C914 1.499 . S
C917 C918 1.373 . S
C917 C919 1.389 . S
C918 H891 0.950 . S
C918 C904 1.377 . S
C918 C917 1.373 . S
C919 C903 1.377 . S
C919 C917 1.389 . S
C919 C920 1.524 . S
C920 C919 1.524 . S
C920 C921 1.397 . S
C920 C925 1.363 . S
C921 H892 0.950 . S
C921 C920 1.397 . S
C921 C922 1.334 1_556 S
C922 H893 0.950 . S
C922 C921 1.334 1_554 S
C922 C923 1.287 . S
C923 C922 1.287 . S
C923 C924 1.524 . S
C923 H926 0.999 . S
C924 H894 0.950 . S
C924 C923 1.524 . S
C924 C925 1.415 1_554 S
C925 H895 0.950 . S
C925 C920 1.363 . S
C925 C924 1.415 1_556 S
H926 C923 0.999 . S
H927 C908 0.913 . S
H928 C946 0.951 . S
H929 C948 0.951 . S
H930 C950 0.950 . S
H931 C951 0.950 . S
H932 C953 0.950 . S
H933 C956 0.950 . S
H934 C957 0.950 . S
H935 C959 0.950 . S
H936 C960 0.950 . S
H937 C961 0.951 . S
H938 C963 0.951 . S
H939 C965 0.950 . S
H940 C966 0.950 . S
H941 C968 0.950 . S
H942 C971 0.950 . S
H943 C972 0.950 . S
H944 C974 0.950 . S
H945 C975 0.950 . S
C946 H928 0.951 . S
C946 C947 1.366 . S
C946 C948 1.388 . S
C947 C946 1.366 . S
C947 C951 1.385 . S
C948 H929 0.951 . S
C948 C946 1.388 . S
C948 C949 1.366 . S
C949 C948 1.366 . S
C949 C950 1.414 . S
C949 C952 1.499 . S
C950 H930 0.950 . S
C950 C949 1.414 . S
C950 C951 1.374 . S
C951 H931 0.950 . S
C951 C947 1.385 . S
C951 C950 1.374 . S
C952 C949 1.499 . S
C952 C953 1.373 1_554 S
C952 C954 1.389 . S
C953 H932 0.950 . S
C953 C952 1.373 1_556 S
C953 C969 1.377 . S
C954 C952 1.389 . S
C954 C955 1.524 . S
C954 C968 1.377 . S
C955 C954 1.524 . S
C955 C956 1.397 . S
C955 C960 1.363 . S
C956 H933 0.950 . S
C956 C955 1.397 . S
C956 C957 1.334 . S
C957 H934 0.950 . S
C957 C956 1.334 . S
C957 C958 1.287 . S
C958 C957 1.287 . S
C958 C959 1.524 . S
C958 H977 0.913 . S
C959 H935 0.950 . S
C959 C958 1.524 . S
C959 C960 1.415 . S
C960 H936 0.950 . S
C960 C955 1.363 . S
C960 C959 1.415 . S
C961 H937 0.951 . S
C961 C962 1.366 . S
C961 C963 1.388 . S
C962 C961 1.366 . S
C962 C966 1.385 . S
C963 H938 0.951 . S
C963 C961 1.388 . S
C963 C964 1.366 . S
C964 C963 1.366 . S
C964 C965 1.414 . S
C964 C967 1.499 . S
C965 H939 0.950 . S
C965 C964 1.414 . S
C965 C966 1.374 . S
C966 H940 0.950 . S
C966 C962 1.385 . S
C966 C965 1.374 . S
C967 C964 1.499 . S
C967 C968 1.373 1_556 S
C967 C969 1.389 . S
C968 H941 0.950 . S
C968 C954 1.377 . S
C968 C967 1.373 1_554 S
C969 C953 1.377 . S
C969 C967 1.389 . S
C969 C970 1.524 . S
C970 C969 1.524 . S
C970 C971 1.397 . S
C970 C975 1.363 . S
C971 H942 0.950 . S
C971 C970 1.397 . S
C971 C972 1.334 . S
C972 H943 0.950 . S
C972 C971 1.334 . S
C972 C973 1.287 . S
C973 C972 1.287 . S
C973 C974 1.524 . S
C973 H976 0.999 . S
C974 H944 0.950 . S
C974 C973 1.524 . S
C974 C975 1.415 . S
C975 H945 0.950 . S
C975 C970 1.363 . S
C975 C974 1.415 . S
H976 C973 0.999 . S
H977 C958 0.913 . S
H978 C996 0.951 . S
H979 C998 0.951 . S
H980 C1000 0.950 . S
H981 C1001 0.950 . S
H982 C1003 0.950 . S
H983 C1006 0.950 . S
H984 C1007 0.950 . S
H985 C1009 0.950 . S
H986 C1010 0.950 . S
H987 C1011 0.951 . S
H988 C1013 0.951 . S
H989 C1015 0.950 . S
H990 C1016 0.950 . S
H991 C1018 0.950 . S
H992 C1021 0.950 . S
H993 C1022 0.950 . S
H994 C1024 0.950 . S
H995 C1025 0.950 . S
C996 H978 0.951 . S
C996 C997 1.366 . S
C996 C998 1.388 . S
C997 C996 1.366 . S
C997 C1001 1.385 . S
C998 H979 0.951 . S
C998 C996 1.388 . S
C998 C999 1.366 . S
C999 C998 1.366 . S
C999 C1000 1.414 . S
C999 C1002 1.499 . S
C1000 H980 0.950 . S
C1000 C999 1.414 . S
C1000 C1001 1.374 . S
C1001 H981 0.950 . S
C1001 C997 1.385 . S
C1001 C1000 1.374 . S
C1002 C999 1.499 . S
C1002 C1003 1.373 . S
C1002 C1004 1.389 . S
C1003 H982 0.950 . S
C1003 C1002 1.373 . S
C1003 C1019 1.377 . S
C1004 C1002 1.389 . S
C1004 C1005 1.524 . S
C1004 C1018 1.377 . S
C1005 C1004 1.524 . S
C1005 C1006 1.397 . S
C1005 C1010 1.363 . S
C1006 H983 0.950 . S
C1006 C1005 1.397 . S
C1006 C1007 1.334 . S
C1007 H984 0.950 . S
C1007 C1006 1.334 . S
C1007 C1008 1.287 . S
C1008 C1007 1.287 . S
C1008 C1009 1.524 . S
C1008 H1027 0.913 . S
C1009 H985 0.950 . S
C1009 C1008 1.524 . S
C1009 C1010 1.415 . S
C1010 H986 0.950 . S
C1010 C1005 1.363 . S
C1010 C1009 1.415 . S
C1011 H987 0.951 . S
C1011 C1012 1.366 . S
C1011 C1013 1.388 . S
C1012 C1011 1.366 . S
C1012 C1016 1.385 . S
C1013 H988 0.951 . S
C1013 C1011 1.388 . S
C1013 C1014 1.366 . S
C1014 C1013 1.366 . S
C1014 C1015 1.414 . S
C1014 C1017 1.499 . S
C1015 H989 0.950 . S
C1015 C1014 1.414 . S
C1015 C1016 1.374 . S
C1016 H990 0.950 . S
C1016 C1012 1.385 . S
C1016 C1015 1.374 . S
C1017 C1014 1.499 . S
C1017 C1018 1.373 . S
C1017 C1019 1.389 . S
C1018 H991 0.950 . S
C1018 C1004 1.377 . S
C1018 C1017 1.373 . S
C1019 C1003 1.377 . S
C1019 C1017 1.389 . S
C1019 C1020 1.524 . S
C1020 C1019 1.524 . S
C1020 C1021 1.397 . S
C1020 C1025 1.363 . S
C1021 H992 0.950 . S
C1021 C1020 1.397 . S
C1021 C1022 1.334 . S
C1022 H993 0.950 . S
C1022 C1021 1.334 . S
C1022 C1023 1.287 . S
C1023 C1022 1.287 . S
C1023 C1024 1.524 . S
C1023 H1026 0.999 . S
C1024 H994 0.950 . S
C1024 C1023 1.524 . S
C1024 C1025 1.415 . S
C1025 H995 0.950 . S
C1025 C1020 1.363 . S
C1025 C1024 1.415 . S
H1026 C1023 0.999 . S
H1027 C1008 0.913 . S
H1028 C1046 0.951 . S
H1029 C1048 0.951 . S
H1030 C1050 0.950 1_556 S
H1031 C1051 0.950 . S
H1032 C1053 0.950 . S
H1033 C1056 0.950 . S
H1034 C1057 0.950 . S
H1035 C1059 0.950 . S
H1036 C1060 0.950 . S
H1037 C1061 0.951 . S
H1038 C1063 0.951 . S
H1039 C1065 0.950 1_554 S
H1040 C1066 0.950 . S
H1041 C1068 0.950 . S
H1042 C1071 0.950 . S
H1043 C1072 0.950 . S
H1044 C1074 0.950 . S
H1045 C1075 0.950 . S
C1046 H1028 0.951 . S
C1046 C1047 1.366 . S
C1046 C1048 1.388 . S
C1047 C1046 1.366 . S
C1047 C1051 1.385 . S
C1048 H1029 0.951 . S
C1048 C1046 1.388 . S
C1048 C1049 1.366 . S
C1049 C1048 1.366 . S
C1049 C1050 1.414 . S
C1049 C1052 1.499 . S
C1050 H1030 0.950 1_554 S
C1050 C1049 1.414 . S
C1050 C1051 1.374 . S
C1051 H1031 0.950 . S
C1051 C1047 1.385 . S
C1051 C1050 1.374 . S
C1052 C1049 1.499 . S
C1052 C1053 1.373 . S
C1052 C1054 1.389 . S
C1053 H1032 0.950 . S
C1053 C1052 1.373 . S
C1053 C1069 1.377 1_554 S
C1054 C1052 1.389 . S
C1054 C1055 1.524 . S
C1054 C1068 1.377 1_554 S
C1055 C1054 1.524 . S
C1055 C1056 1.397 1_554 S
C1055 C1060 1.363 . S
C1056 H1033 0.950 . S
C1056 C1055 1.397 1_556 S
C1056 C1057 1.334 . S
C1057 H1034 0.950 . S
C1057 C1056 1.334 . S
C1057 C1058 1.287 1_556 S
C1058 C1057 1.287 1_554 S
C1058 C1059 1.524 . S
C1058 H1077 0.913 . S
C1059 H1035 0.950 . S
C1059 C1058 1.524 . S
C1059 C1060 1.415 . S
C1060 H1036 0.950 . S
C1060 C1055 1.363 . S
C1060 C1059 1.415 . S
C1061 H1037 0.951 . S
C1061 C1062 1.366 . S
C1061 C1063 1.388 . S
C1062 C1061 1.366 . S
C1062 C1066 1.385 . S
C1063 H1038 0.951 . S
C1063 C1061 1.388 . S
C1063 C1064 1.366 . S
C1064 C1063 1.366 . S
C1064 C1065 1.414 . S
C1064 C1067 1.499 . S
C1065 H1039 0.950 1_556 S
C1065 C1064 1.414 . S
C1065 C1066 1.374 . S
C1066 H1040 0.950 . S
C1066 C1062 1.385 . S
C1066 C1065 1.374 . S
C1067 C1064 1.499 . S
C1067 C1068 1.373 . S
C1067 C1069 1.389 . S
C1068 H1041 0.950 . S
C1068 C1054 1.377 1_556 S
C1068 C1067 1.373 . S
C1069 C1053 1.377 1_556 S
C1069 C1067 1.389 . S
C1069 C1070 1.524 . S
C1070 C1069 1.524 . S
C1070 C1071 1.397 1_556 S
C1070 C1075 1.363 . S
C1071 H1042 0.950 . S
C1071 C1070 1.397 1_554 S
C1071 C1072 1.334 . S
C1072 H1043 0.950 . S
C1072 C1071 1.334 . S
C1072 C1073 1.287 1_554 S
C1073 C1072 1.287 1_556 S
C1073 C1074 1.524 . S
C1073 H1076 0.999 . S
C1074 H1044 0.950 . S
C1074 C1073 1.524 . S
C1074 C1075 1.415 . S
C1075 H1045 0.950 . S
C1075 C1070 1.363 . S
C1075 C1074 1.415 . S
H1076 C1073 0.999 . S
H1077 C1058 0.913 . S
H1078 C1096 0.951 . S
H1079 C1098 0.951 . S
H1080 C1100 0.950 . S
H1081 C1101 0.950 . S
H1082 C1103 0.950 . S
H1083 C1106 0.950 . S
H1084 C1107 0.950 . S
H1085 C1109 0.950 . S
H1086 C1110 0.950 . S
H1087 C1111 0.951 . S
H1088 C1113 0.951 . S
H1089 C1115 0.950 . S
H1090 C1116 0.950 . S
H1091 C1118 0.950 . S
H1092 C1121 0.950 . S
H1093 C1122 0.950 . S
H1094 C1124 0.950 . S
H1095 C1125 0.950 . S
C1096 H1078 0.951 . S
C1096 C1097 1.366 . S
C1096 C1098 1.388 . S
C1097 C1096 1.366 . S
C1097 C1101 1.385 . S
C1098 H1079 0.951 . S
C1098 C1096 1.388 . S
C1098 C1099 1.366 . S
C1099 C1098 1.366 . S
C1099 C1100 1.414 . S
C1099 C1102 1.499 . S
C1100 H1080 0.950 . S
C1100 C1099 1.414 . S
C1100 C1101 1.374 . S
C1101 H1081 0.950 . S
C1101 C1097 1.385 . S
C1101 C1100 1.374 . S
C1102 C1099 1.499 . S
C1102 C1103 1.373 . S
C1102 C1104 1.389 . S
C1103 H1082 0.950 . S
C1103 C1102 1.373 . S
C1103 C1119 1.377 . S
C1104 C1102 1.389 . S
C1104 C1105 1.524 . S
C1104 C1118 1.377 . S
C1105 C1104 1.524 . S
C1105 C1106 1.397 . S
C1105 C1110 1.363 . S
C1106 H1083 0.950 . S
C1106 C1105 1.397 . S
C1106 C1107 1.334 . S
C1107 H1084 0.950 . S
C1107 C1106 1.334 . S
C1107 C1108 1.287 . S
C1108 C1107 1.287 . S
C1108 C1109 1.524 . S
C1108 H1127 0.913 . S
C1109 H1085 0.950 . S
C1109 C1108 1.524 . S
C1109 C1110 1.415 . S
C1110 H1086 0.950 . S
C1110 C1105 1.363 . S
C1110 C1109 1.415 . S
C1111 H1087 0.951 . S
C1111 C1112 1.366 . S
C1111 C1113 1.388 . S
C1112 C1111 1.366 . S
C1112 C1116 1.385 . S
C1113 H1088 0.951 . S
C1113 C1111 1.388 . S
C1113 C1114 1.366 . S
C1114 C1113 1.366 . S
C1114 C1115 1.414 . S
C1114 C1117 1.499 . S
C1115 H1089 0.950 . S
C1115 C1114 1.414 . S
C1115 C1116 1.374 . S
C1116 H1090 0.950 . S
C1116 C1112 1.385 . S
C1116 C1115 1.374 . S
C1117 C1114 1.499 . S
C1117 C1118 1.373 . S
C1117 C1119 1.389 . S
C1118 H1091 0.950 . S
C1118 C1104 1.377 . S
C1118 C1117 1.373 . S
C1119 C1103 1.377 . S
C1119 C1117 1.389 . S
C1119 C1120 1.524 . S
C1120 C1119 1.524 . S
C1120 C1121 1.397 . S
C1120 C1125 1.363 . S
C1121 H1092 0.950 . S
C1121 C1120 1.397 . S
C1121 C1122 1.334 . S
C1122 H1093 0.950 . S
C1122 C1121 1.334 . S
C1122 C1123 1.287 . S
C1123 C1122 1.287 . S
C1123 C1124 1.524 . S
C1123 H1126 0.999 . S
C1124 H1094 0.950 . S
C1124 C1123 1.524 . S
C1124 C1125 1.415 . S
C1125 H1095 0.950 . S
C1125 C1120 1.363 . S
C1125 C1124 1.415 . S
H1126 C1123 0.999 . S
H1127 C1108 0.913 . S
H1128 C1146 0.951 . S
H1129 C1148 0.951 . S
H1130 C1150 0.950 . S
H1131 C1151 0.950 . S
H1132 C1153 0.950 . S
H1133 C1156 0.950 . S
H1134 C1157 0.950 . S
H1135 C1159 0.950 . S
H1136 C1160 0.950 . S
H1137 C1161 0.951 . S
H1138 C1163 0.951 . S
H1139 C1165 0.950 . S
H1140 C1166 0.950 . S
H1141 C1168 0.950 . S
H1142 C1171 0.950 . S
H1143 C1172 0.950 . S
H1144 C1174 0.950 . S
H1145 C1175 0.950 . S
C1146 H1128 0.951 . S
C1146 C1147 1.366 . S
C1146 C1148 1.388 . S
C1147 C1146 1.366 . S
C1147 C1151 1.385 . S
C1148 H1129 0.951 . S
C1148 C1146 1.388 . S
C1148 C1149 1.366 . S
C1149 C1148 1.366 . S
C1149 C1150 1.414 . S
C1149 C1152 1.499 . S
C1150 H1130 0.950 . S
C1150 C1149 1.414 . S
C1150 C1151 1.374 . S
C1151 H1131 0.950 . S
C1151 C1147 1.385 . S
C1151 C1150 1.374 . S
C1152 C1149 1.499 . S
C1152 C1153 1.373 . S
C1152 C1154 1.389 1_554 S
C1153 H1132 0.950 . S
C1153 C1152 1.373 . S
C1153 C1169 1.377 . S
C1154 C1152 1.389 1_556 S
C1154 C1155 1.524 . S
C1154 C1168 1.377 . S
C1155 C1154 1.524 . S
C1155 C1156 1.397 . S
C1155 C1160 1.363 . S
C1156 H1133 0.950 . S
C1156 C1155 1.397 . S
C1156 C1157 1.334 . S
C1157 H1134 0.950 . S
C1157 C1156 1.334 . S
C1157 C1158 1.287 . S
C1158 C1157 1.287 . S
C1158 C1159 1.524 . S
C1158 H1177 0.913 . S
C1159 H1135 0.950 . S
C1159 C1158 1.524 . S
C1159 C1160 1.415 . S
C1160 H1136 0.950 . S
C1160 C1155 1.363 . S
C1160 C1159 1.415 . S
C1161 H1137 0.951 . S
C1161 C1162 1.366 . S
C1161 C1163 1.388 . S
C1162 C1161 1.366 . S
C1162 C1166 1.385 . S
C1163 H1138 0.951 . S
C1163 C1161 1.388 . S
C1163 C1164 1.366 . S
C1164 C1163 1.366 . S
C1164 C1165 1.414 . S
C1164 C1167 1.499 . S
C1165 H1139 0.950 . S
C1165 C1164 1.414 . S
C1165 C1166 1.374 . S
C1166 H1140 0.950 . S
C1166 C1162 1.385 . S
C1166 C1165 1.374 . S
C1167 C1164 1.499 . S
C1167 C1168 1.373 . S
C1167 C1169 1.389 1_556 S
C1168 H1141 0.950 . S
C1168 C1154 1.377 . S
C1168 C1167 1.373 . S
C1169 C1153 1.377 . S
C1169 C1167 1.389 1_554 S
C1169 C1170 1.524 . S
C1170 C1169 1.524 . S
C1170 C1171 1.397 . S
C1170 C1175 1.363 . S
C1171 H1142 0.950 . S
C1171 C1170 1.397 . S
C1171 C1172 1.334 . S
C1172 H1143 0.950 . S
C1172 C1171 1.334 . S
C1172 C1173 1.287 . S
C1173 C1172 1.287 . S
C1173 C1174 1.524 . S
C1173 H1176 0.999 . S
C1174 H1144 0.950 . S
C1174 C1173 1.524 . S
C1174 C1175 1.415 . S
C1175 H1145 0.950 . S
C1175 C1170 1.363 . S
C1175 C1174 1.415 . S
H1176 C1173 0.999 . S
H1177 C1158 0.913 . S
H1178 C1196 0.951 . S
H1179 C1198 0.951 . S
H1180 C1200 0.950 . S
H1181 C1201 0.950 . S
H1182 C1203 0.950 . S
H1183 C1206 0.950 . S
H1184 C1207 0.950 . S
H1185 C1209 0.950 . S
H1186 C1210 0.950 . S
H1187 C1211 0.951 . S
H1188 C1213 0.951 . S
H1189 C1215 0.950 . S
H1190 C1216 0.950 . S
H1191 C1218 0.950 . S
H1192 C1221 0.950 . S
H1193 C1222 0.950 . S
H1194 C1224 0.950 . S
H1195 C1225 0.950 . S
C1196 H1178 0.951 . S
C1196 C1197 1.366 . S
C1196 C1198 1.388 . S
C1197 C1196 1.366 . S
C1197 C1201 1.385 . S
C1198 H1179 0.951 . S
C1198 C1196 1.388 . S
C1198 C1199 1.366 . S
C1199 C1198 1.366 . S
C1199 C1200 1.414 . S
C1199 C1202 1.499 . S
C1200 H1180 0.950 . S
C1200 C1199 1.414 . S
C1200 C1201 1.374 . S
C1201 H1181 0.950 . S
C1201 C1197 1.385 . S
C1201 C1200 1.374 . S
C1202 C1199 1.499 . S
C1202 C1203 1.373 . S
C1202 C1204 1.389 . S
C1203 H1182 0.950 . S
C1203 C1202 1.373 . S
C1203 C1219 1.377 . S
C1204 C1202 1.389 . S
C1204 C1205 1.524 . S
C1204 C1218 1.377 . S
C1205 C1204 1.524 . S
C1205 C1206 1.397 . S
C1205 C1210 1.363 . S
C1206 H1183 0.950 . S
C1206 C1205 1.397 . S
C1206 C1207 1.334 . S
C1207 H1184 0.950 . S
C1207 C1206 1.334 . S
C1207 C1208 1.287 . S
C1208 C1207 1.287 . S
C1208 C1209 1.524 . S
C1208 H1227 0.913 . S
C1209 H1185 0.950 . S
C1209 C1208 1.524 . S
C1209 C1210 1.415 . S
C1210 H1186 0.950 . S
C1210 C1205 1.363 . S
C1210 C1209 1.415 . S
C1211 H1187 0.951 . S
C1211 C1212 1.366 . S
C1211 C1213 1.388 . S
C1212 C1211 1.366 . S
C1212 C1216 1.385 . S
C1213 H1188 0.951 . S
C1213 C1211 1.388 . S
C1213 C1214 1.366 . S
C1214 C1213 1.366 . S
C1214 C1215 1.414 . S
C1214 C1217 1.499 . S
C1215 H1189 0.950 . S
C1215 C1214 1.414 . S
C1215 C1216 1.374 . S
C1216 H1190 0.950 . S
C1216 C1212 1.385 . S
C1216 C1215 1.374 . S
C1217 C1214 1.499 . S
C1217 C1218 1.373 . S
C1217 C1219 1.389 . S
C1218 H1191 0.950 . S
C1218 C1204 1.377 . S
C1218 C1217 1.373 . S
C1219 C1203 1.377 . S
C1219 C1217 1.389 . S
C1219 C1220 1.524 . S
C1220 C1219 1.524 . S
C1220 C1221 1.397 . S
C1220 C1225 1.363 . S
C1221 H1192 0.950 . S
C1221 C1220 1.397 . S
C1221 C1222 1.334 . S
C1222 H1193 0.950 . S
C1222 C1221 1.334 . S
C1222 C1223 1.287 . S
C1223 C1222 1.287 . S
C1223 C1224 1.524 . S
C1223 H1226 0.999 . S
C1224 H1194 0.950 . S
C1224 C1223 1.524 . S
C1224 C1225 1.415 . S
C1225 H1195 0.950 . S
C1225 C1220 1.363 . S
C1225 C1224 1.415 . S
H1226 C1223 0.999 . S
H1227 C1208 0.913 . S
H1228 C1246 0.951 . S
H1229 C1248 0.951 . S
H1230 C1250 0.950 . S
H1231 C1251 0.950 . S
H1232 C1253 0.950 . S
H1233 C1256 0.950 . S
H1234 C1257 0.950 . S
H1235 C1259 0.950 . S
H1236 C1260 0.950 . S
H1237 C1261 0.951 . S
H1238 C1263 0.951 . S
H1239 C1265 0.950 . S
H1240 C1266 0.950 . S
H1241 C1268 0.950 . S
H1242 C1271 0.950 . S
H1243 C1272 0.950 . S
H1244 C1274 0.950 . S
H1245 C1275 0.950 . S
C1246 H1228 0.951 . S
C1246 C1247 1.366 . S
C1246 C1248 1.388 . S
C1247 C1246 1.366 . S
C1247 C1251 1.385 . S
C1248 H1229 0.951 . S
C1248 C1246 1.388 . S
C1248 C1249 1.366 . S
C1249 C1248 1.366 . S
C1249 C1250 1.414 . S
C1249 C1252 1.499 . S
C1250 H1230 0.950 . S
C1250 C1249 1.414 . S
C1250 C1251 1.374 . S
C1251 H1231 0.950 . S
C1251 C1247 1.385 . S
C1251 C1250 1.374 . S
C1252 C1249 1.499 . S
C1252 C1253 1.373 . S
C1252 C1254 1.389 1_554 S
C1253 H1232 0.950 . S
C1253 C1252 1.373 . S
C1253 C1269 1.377 . S
C1254 C1252 1.389 1_556 S
C1254 C1255 1.524 . S
C1254 C1268 1.377 . S
C1255 C1254 1.524 . S
C1255 C1256 1.397 . S
C1255 C1260 1.363 . S
C1256 H1233 0.950 . S
C1256 C1255 1.397 . S
C1256 C1257 1.334 . S
C1257 H1234 0.950 . S
C1257 C1256 1.334 . S
C1257 C1258 1.287 . S
C1258 C1257 1.287 . S
C1258 C1259 1.524 . S
C1258 H1277 0.913 . S
C1259 H1235 0.950 . S
C1259 C1258 1.524 . S
C1259 C1260 1.415 . S
C1260 H1236 0.950 . S
C1260 C1255 1.363 . S
C1260 C1259 1.415 . S
C1261 H1237 0.951 . S
C1261 C1262 1.366 . S
C1261 C1263 1.388 . S
C1262 C1261 1.366 . S
C1262 C1266 1.385 . S
C1263 H1238 0.951 . S
C1263 C1261 1.388 . S
C1263 C1264 1.366 . S
C1264 C1263 1.366 . S
C1264 C1265 1.414 . S
C1264 C1267 1.499 . S
C1265 H1239 0.950 . S
C1265 C1264 1.414 . S
C1265 C1266 1.374 . S
C1266 H1240 0.950 . S
C1266 C1262 1.385 . S
C1266 C1265 1.374 . S
C1267 C1264 1.499 . S
C1267 C1268 1.373 . S
C1267 C1269 1.389 1_556 S
C1268 H1241 0.950 . S
C1268 C1254 1.377 . S
C1268 C1267 1.373 . S
C1269 C1253 1.377 . S
C1269 C1267 1.389 1_554 S
C1269 C1270 1.524 . S
C1270 C1269 1.524 . S
C1270 C1271 1.397 . S
C1270 C1275 1.363 . S
C1271 H1242 0.950 . S
C1271 C1270 1.397 . S
C1271 C1272 1.334 . S
C1272 H1243 0.950 . S
C1272 C1271 1.334 . S
C1272 C1273 1.287 . S
C1273 C1272 1.287 . S
C1273 C1274 1.524 . S
C1273 H1276 0.999 . S
C1274 H1244 0.950 . S
C1274 C1273 1.524 . S
C1274 C1275 1.415 . S
C1275 H1245 0.950 . S
C1275 C1270 1.363 . S
C1275 C1274 1.415 . S
H1276 C1273 0.999 . S
H1277 C1258 0.913 . S
H1278 C1296 0.951 . S
H1279 C1298 0.951 . S
H1280 C1300 0.950 . S
H1281 C1301 0.950 . S
H1282 C1303 0.950 . S
H1283 C1306 0.950 . S
H1284 C1307 0.950 . S
H1285 C1309 0.950 . S
H1286 C1310 0.950 . S
H1287 C1311 0.951 . S
H1288 C1313 0.951 . S
H1289 C1315 0.950 . S
H1290 C1316 0.950 . S
H1291 C1318 0.950 . S
H1292 C1321 0.950 . S
H1293 C1322 0.950 . S
H1294 C1324 0.950 . S
H1295 C1325 0.950 . S
C1296 H1278 0.951 . S
C1296 C1297 1.366 . S
C1296 C1298 1.388 . S
C1297 C1296 1.366 . S
C1297 C1301 1.385 . S
C1298 H1279 0.951 . S
C1298 C1296 1.388 . S
C1298 C1299 1.366 . S
C1299 C1298 1.366 . S
C1299 C1300 1.414 . S
C1299 C1302 1.499 . S
C1300 H1280 0.950 . S
C1300 C1299 1.414 . S
C1300 C1301 1.374 . S
C1301 H1281 0.950 . S
C1301 C1297 1.385 . S
C1301 C1300 1.374 . S
C1302 C1299 1.499 . S
C1302 C1303 1.373 . S
C1302 C1304 1.389 . S
C1303 H1282 0.950 . S
C1303 C1302 1.373 . S
C1303 C1319 1.377 . S
C1304 C1302 1.389 . S
C1304 C1305 1.524 . S
C1304 C1318 1.377 . S
C1305 C1304 1.524 . S
C1305 C1306 1.397 . S
C1305 C1310 1.363 . S
C1306 H1283 0.950 . S
C1306 C1305 1.397 . S
C1306 C1307 1.334 . S
C1307 H1284 0.950 . S
C1307 C1306 1.334 . S
C1307 C1308 1.287 . S
C1308 C1307 1.287 . S
C1308 C1309 1.524 . S
C1308 H1327 0.913 . S
C1309 H1285 0.950 . S
C1309 C1308 1.524 . S
C1309 C1310 1.415 . S
C1310 H1286 0.950 . S
C1310 C1305 1.363 . S
C1310 C1309 1.415 . S
C1311 H1287 0.951 . S
C1311 C1312 1.366 . S
C1311 C1313 1.388 . S
C1312 C1311 1.366 . S
C1312 C1316 1.385 . S
C1313 H1288 0.951 . S
C1313 C1311 1.388 . S
C1313 C1314 1.366 . S
C1314 C1313 1.366 . S
C1314 C1315 1.414 . S
C1314 C1317 1.499 . S
C1315 H1289 0.950 . S
C1315 C1314 1.414 . S
C1315 C1316 1.374 . S
C1316 H1290 0.950 . S
C1316 C1312 1.385 . S
C1316 C1315 1.374 . S
C1317 C1314 1.499 . S
C1317 C1318 1.373 . S
C1317 C1319 1.389 . S
C1318 H1291 0.950 . S
C1318 C1304 1.377 . S
C1318 C1317 1.373 . S
C1319 C1303 1.377 . S
C1319 C1317 1.389 . S
C1319 C1320 1.524 . S
C1320 C1319 1.524 . S
C1320 C1321 1.397 . S
C1320 C1325 1.363 . S
C1321 H1292 0.950 . S
C1321 C1320 1.397 . S
C1321 C1322 1.334 . S
C1322 H1293 0.950 . S
C1322 C1321 1.334 . S
C1322 C1323 1.287 . S
C1323 C1322 1.287 . S
C1323 C1324 1.524 . S
C1323 H1326 0.999 . S
C1324 H1294 0.950 . S
C1324 C1323 1.524 . S
C1324 C1325 1.415 . S
C1325 H1295 0.950 . S
C1325 C1320 1.363 . S
C1325 C1324 1.415 . S
H1326 C1323 0.999 . S
H1327 C1308 0.913 . S
H1328 C1346 0.951 . S
H1329 C1348 0.951 . S
H1330 C1350 0.950 . S
H1331 C1351 0.950 . S
H1332 C1353 0.950 . S
H1333 C1356 0.950 . S
H1334 C1357 0.950 . S
H1335 C1359 0.950 1_556 S
H1336 C1360 0.950 . S
H1337 C1361 0.951 . S
H1338 C1363 0.951 . S
H1339 C1365 0.950 . S
H1340 C1366 0.950 . S
H1341 C1368 0.950 . S
H1342 C1371 0.950 . S
H1343 C1372 0.950 . S
H1344 C1374 0.950 . S
H1345 C1375 0.950 . S
C1346 H1328 0.951 . S
C1346 C1347 1.366 . S
C1346 C1348 1.388 . S
C1347 C1346 1.366 . S
C1347 C1351 1.385 . S
C1348 H1329 0.951 . S
C1348 C1346 1.388 . S
C1348 C1349 1.366 . S
C1349 C1348 1.366 . S
C1349 C1350 1.414 . S
C1349 C1352 1.499 . S
C1350 H1330 0.950 . S
C1350 C1349 1.414 . S
C1350 C1351 1.374 . S
C1351 H1331 0.950 . S
C1351 C1347 1.385 . S
C1351 C1350 1.374 . S
C1352 C1349 1.499 . S
C1352 C1353 1.373 . S
C1352 C1354 1.389 . S
C1353 H1332 0.950 . S
C1353 C1352 1.373 . S
C1353 C1369 1.377 . S
C1354 C1352 1.389 . S
C1354 C1355 1.524 . S
C1354 C1368 1.377 . S
C1355 C1354 1.524 . S
C1355 C1356 1.397 1_455 S
C1355 C1360 1.363 . S
C1356 H1333 0.950 . S
C1356 C1355 1.397 1_655 S
C1356 C1357 1.334 . S
C1357 H1334 0.950 . S
C1357 C1356 1.334 . S
C1357 C1358 1.287 . S
C1358 C1357 1.287 . S
C1358 C1359 1.524 1_655 S
C1358 H1377 0.913 1_554 S
C1359 H1335 0.950 1_554 S
C1359 C1358 1.524 1_455 S
C1359 C1360 1.415 . S
C1360 H1336 0.950 . S
C1360 C1355 1.363 . S
C1360 C1359 1.415 . S
C1361 H1337 0.951 . S
C1361 C1362 1.366 . S
C1361 C1363 1.388 . S
C1362 C1361 1.366 . S
C1362 C1366 1.385 . S
C1363 H1338 0.951 . S
C1363 C1361 1.388 . S
C1363 C1364 1.366 . S
C1364 C1363 1.366 . S
C1364 C1365 1.414 . S
C1364 C1367 1.499 . S
C1365 H1339 0.950 . S
C1365 C1364 1.414 . S
C1365 C1366 1.374 . S
C1366 H1340 0.950 . S
C1366 C1362 1.385 . S
C1366 C1365 1.374 . S
C1367 C1364 1.499 . S
C1367 C1368 1.373 . S
C1367 C1369 1.389 . S
C1368 H1341 0.950 . S
C1368 C1354 1.377 . S
C1368 C1367 1.373 . S
C1369 C1353 1.377 . S
C1369 C1367 1.389 . S
C1369 C1370 1.524 . S
C1370 C1369 1.524 . S
C1370 C1371 1.397 . S
C1370 C1375 1.363 . S
C1371 H1342 0.950 . S
C1371 C1370 1.397 . S
C1371 C1372 1.334 . S
C1372 H1343 0.950 . S
C1372 C1371 1.334 . S
C1372 C1373 1.287 . S
C1373 C1372 1.287 . S
C1373 C1374 1.524 . S
C1373 H1376 0.999 . S
C1374 H1344 0.950 . S
C1374 C1373 1.524 . S
C1374 C1375 1.415 . S
C1375 H1345 0.950 . S
C1375 C1370 1.363 . S
C1375 C1374 1.415 . S
H1376 C1373 0.999 . S
H1377 C1358 0.913 1_556 S
H1378 C1396 0.951 . S
H1379 C1398 0.951 . S
H1380 C1400 0.950 . S
H1381 C1401 0.950 . S
H1382 C1403 0.950 . S
H1383 C1406 0.950 . S
H1384 C1407 0.950 . S
H1385 C1409 0.950 . S
H1386 C1410 0.950 . S
H1387 C1411 0.951 . S
H1388 C1413 0.951 . S
H1389 C1415 0.950 . S
H1390 C1416 0.950 . S
H1391 C1418 0.950 . S
H1392 C1421 0.950 . S
H1393 C1422 0.950 . S
H1394 C1424 0.950 . S
H1395 C1425 0.950 1_545 S
C1396 H1378 0.951 . S
C1396 C1397 1.366 . S
C1396 C1398 1.388 . S
C1397 C1396 1.366 . S
C1397 C1401 1.385 . S
C1398 H1379 0.951 . S
C1398 C1396 1.388 . S
C1398 C1399 1.366 . S
C1399 C1398 1.366 . S
C1399 C1400 1.414 . S
C1399 C1402 1.499 . S
C1400 H1380 0.950 . S
C1400 C1399 1.414 . S
C1400 C1401 1.374 . S
C1401 H1381 0.950 . S
C1401 C1397 1.385 . S
C1401 C1400 1.374 . S
C1402 C1399 1.499 . S
C1402 C1403 1.373 . S
C1402 C1404 1.389 . S
C1403 H1382 0.950 . S
C1403 C1402 1.373 . S
C1403 C1419 1.377 . S
C1404 C1402 1.389 . S
C1404 C1405 1.524 . S
C1404 C1418 1.377 . S
C1405 C1404 1.524 . S
C1405 C1406 1.397 . S
C1405 C1410 1.363 . S
C1406 H1383 0.950 . S
C1406 C1405 1.397 . S
C1406 C1407 1.334 . S
C1407 H1384 0.950 . S
C1407 C1406 1.334 . S
C1407 C1408 1.287 . S
C1408 C1407 1.287 . S
C1408 C1409 1.524 . S
C1408 H1427 0.913 . S
C1409 H1385 0.950 . S
C1409 C1408 1.524 . S
C1409 C1410 1.415 . S
C1410 H1386 0.950 . S
C1410 C1405 1.363 . S
C1410 C1409 1.415 . S
C1411 H1387 0.951 . S
C1411 C1412 1.366 . S
C1411 C1413 1.388 . S
C1412 C1411 1.366 . S
C1412 C1416 1.385 . S
C1413 H1388 0.951 . S
C1413 C1411 1.388 . S
C1413 C1414 1.366 . S
C1414 C1413 1.366 . S
C1414 C1415 1.414 . S
C1414 C1417 1.499 . S
C1415 H1389 0.950 . S
C1415 C1414 1.414 . S
C1415 C1416 1.374 . S
C1416 H1390 0.950 . S
C1416 C1412 1.385 . S
C1416 C1415 1.374 . S
C1417 C1414 1.499 . S
C1417 C1418 1.373 . S
C1417 C1419 1.389 . S
C1418 H1391 0.950 . S
C1418 C1404 1.377 . S
C1418 C1417 1.373 . S
C1419 C1403 1.377 . S
C1419 C1417 1.389 . S
C1419 C1420 1.524 1_545 S
C1420 C1419 1.524 1_565 S
C1420 C1421 1.397 . S
C1420 C1425 1.363 . S
C1421 H1392 0.950 . S
C1421 C1420 1.397 . S
C1421 C1422 1.334 . S
C1422 H1393 0.950 . S
C1422 C1421 1.334 . S
C1422 C1423 1.287 . S
C1423 C1422 1.287 . S
C1423 C1424 1.524 . S
C1423 H1426 0.999 . S
C1424 H1394 0.950 . S
C1424 C1423 1.524 . S
C1424 C1425 1.415 . S
C1425 H1395 0.950 1_565 S
C1425 C1420 1.363 . S
C1425 C1424 1.415 . S
H1426 C1423 0.999 . S
H1427 C1408 0.913 . S
H1428 C1446 0.951 . S
H1429 C1448 0.951 . S
H1430 C1450 0.950 . S
H1431 C1451 0.950 . S
H1432 C1453 0.950 . S
H1433 C1456 0.950 . S
H1434 C1457 0.950 . S
H1435 C1459 0.950 . S
H1436 C1460 0.950 . S
H1437 C1461 0.951 . S
H1438 C1463 0.951 . S
H1439 C1465 0.950 . S
H1440 C1466 0.950 . S
H1441 C1468 0.950 . S
H1442 C1471 0.950 . S
H1443 C1472 0.950 . S
H1444 C1474 0.950 1_556 S
H1445 C1475 0.950 . S
C1446 H1428 0.951 . S
C1446 C1447 1.366 . S
C1446 C1448 1.388 . S
C1447 C1446 1.366 . S
C1447 C1451 1.385 . S
C1448 H1429 0.951 . S
C1448 C1446 1.388 . S
C1448 C1449 1.366 . S
C1449 C1448 1.366 . S
C1449 C1450 1.414 . S
C1449 C1452 1.499 . S
C1450 H1430 0.950 . S
C1450 C1449 1.414 . S
C1450 C1451 1.374 . S
C1451 H1431 0.950 . S
C1451 C1447 1.385 . S
C1451 C1450 1.374 . S
C1452 C1449 1.499 . S
C1452 C1453 1.373 . S
C1452 C1454 1.389 . S
C1453 H1432 0.950 . S
C1453 C1452 1.373 . S
C1453 C1469 1.377 . S
C1454 C1452 1.389 . S
C1454 C1455 1.524 . S
C1454 C1468 1.377 . S
C1455 C1454 1.524 . S
C1455 C1456 1.397 . S
C1455 C1460 1.363 . S
C1456 H1433 0.950 . S
C1456 C1455 1.397 . S
C1456 C1457 1.334 . S
C1457 H1434 0.950 . S
C1457 C1456 1.334 . S
C1457 C1458 1.287 . S
C1458 C1457 1.287 . S
C1458 C1459 1.524 . S
C1458 H1477 0.913 . S
C1459 H1435 0.950 . S
C1459 C1458 1.524 . S
C1459 C1460 1.415 . S
C1460 H1436 0.950 . S
C1460 C1455 1.363 . S
C1460 C1459 1.415 . S
C1461 H1437 0.951 . S
C1461 C1462 1.366 . S
C1461 C1463 1.388 . S
C1462 C1461 1.366 . S
C1462 C1466 1.385 . S
C1463 H1438 0.951 . S
C1463 C1461 1.388 . S
C1463 C1464 1.366 . S
C1464 C1463 1.366 . S
C1464 C1465 1.414 . S
C1464 C1467 1.499 . S
C1465 H1439 0.950 . S
C1465 C1464 1.414 . S
C1465 C1466 1.374 . S
C1466 H1440 0.950 . S
C1466 C1462 1.385 . S
C1466 C1465 1.374 . S
C1467 C1464 1.499 . S
C1467 C1468 1.373 . S
C1467 C1469 1.389 . S
C1468 H1441 0.950 . S
C1468 C1454 1.377 . S
C1468 C1467 1.373 . S
C1469 C1453 1.377 . S
C1469 C1467 1.389 . S
C1469 C1470 1.524 . S
C1470 C1469 1.524 . S
C1470 C1471 1.397 . S
C1470 C1475 1.363 . S
C1471 H1442 0.950 . S
C1471 C1470 1.397 . S
C1471 C1472 1.334 . S
C1472 H1443 0.950 . S
C1472 C1471 1.334 . S
C1472 C1473 1.287 . S
C1473 C1472 1.287 . S
C1473 C1474 1.524 . S
C1473 H1476 0.999 1_554 S
C1474 H1444 0.950 1_554 S
C1474 C1473 1.524 . S
C1474 C1475 1.415 . S
C1475 H1445 0.950 . S
C1475 C1470 1.363 . S
C1475 C1474 1.415 . S
H1476 C1473 0.999 1_556 S
H1477 C1458 0.913 . S
H1478 C1496 0.951 . S
H1479 C1498 0.951 . S
H1480 C1500 0.950 . S
H1481 C1501 0.950 . S
H1482 C1503 0.950 . S
H1483 C1506 0.950 . S
H1484 C1507 0.950 . S
H1485 C1509 0.950 . S
H1486 C1510 0.950 . S
H1487 C1511 0.951 . S
H1488 C1513 0.951 . S
H1489 C1515 0.950 . S
H1490 C1516 0.950 . S
H1491 C1518 0.950 . S
H1492 C1521 0.950 . S
H1493 C1522 0.950 . S
H1494 C1524 0.950 . S
H1495 C1525 0.950 . S
C1496 H1478 0.951 . S
C1496 C1497 1.366 . S
C1496 C1498 1.388 . S
C1497 C1496 1.366 . S
C1497 C1501 1.385 . S
C1498 H1479 0.951 . S
C1498 C1496 1.388 . S
C1498 C1499 1.366 . S
C1499 C1498 1.366 . S
C1499 C1500 1.414 . S
C1499 C1502 1.499 . S
C1500 H1480 0.950 . S
C1500 C1499 1.414 . S
C1500 C1501 1.374 . S
C1501 H1481 0.950 . S
C1501 C1497 1.385 . S
C1501 C1500 1.374 . S
C1502 C1499 1.499 . S
C1502 C1503 1.373 . S
C1502 C1504 1.389 . S
C1503 H1482 0.950 . S
C1503 C1502 1.373 . S
C1503 C1519 1.377 . S
C1504 C1502 1.389 . S
C1504 C1505 1.524 . S
C1504 C1518 1.377 . S
C1505 C1504 1.524 . S
C1505 C1506 1.397 . S
C1505 C1510 1.363 . S
C1506 H1483 0.950 . S
C1506 C1505 1.397 . S
C1506 C1507 1.334 . S
C1507 H1484 0.950 . S
C1507 C1506 1.334 . S
C1507 C1508 1.287 . S
C1508 C1507 1.287 . S
C1508 C1509 1.524 . S
C1508 H1527 0.913 . S
C1509 H1485 0.950 . S
C1509 C1508 1.524 . S
C1509 C1510 1.415 . S
C1510 H1486 0.950 . S
C1510 C1505 1.363 . S
C1510 C1509 1.415 . S
C1511 H1487 0.951 . S
C1511 C1512 1.366 . S
C1511 C1513 1.388 . S
C1512 C1511 1.366 . S
C1512 C1516 1.385 . S
C1513 H1488 0.951 . S
C1513 C1511 1.388 . S
C1513 C1514 1.366 . S
C1514 C1513 1.366 . S
C1514 C1515 1.414 . S
C1514 C1517 1.499 . S
C1515 H1489 0.950 . S
C1515 C1514 1.414 . S
C1515 C1516 1.374 . S
C1516 H1490 0.950 . S
C1516 C1512 1.385 . S
C1516 C1515 1.374 . S
C1517 C1514 1.499 . S
C1517 C1518 1.373 . S
C1517 C1519 1.389 . S
C1518 H1491 0.950 . S
C1518 C1504 1.377 . S
C1518 C1517 1.373 . S
C1519 C1503 1.377 . S
C1519 C1517 1.389 . S
C1519 C1520 1.524 . S
C1520 C1519 1.524 . S
C1520 C1521 1.397 . S
C1520 C1525 1.363 . S
C1521 H1492 0.950 . S
C1521 C1520 1.397 . S
C1521 C1522 1.334 . S
C1522 H1493 0.950 . S
C1522 C1521 1.334 . S
C1522 C1523 1.287 . S
C1523 C1522 1.287 . S
C1523 C1524 1.524 . S
C1523 H1526 0.999 . S
C1524 H1494 0.950 . S
C1524 C1523 1.524 . S
C1524 C1525 1.415 . S
C1525 H1495 0.950 . S
C1525 C1520 1.363 . S
C1525 C1524 1.415 . S
H1526 C1523 0.999 . S
H1527 C1508 0.913 . S
H1528 C1546 0.951 . S
H1529 C1548 0.951 . S
H1530 C1550 0.950 . S
H1531 C1551 0.950 . S
H1532 C1553 0.950 . S
H1533 C1556 0.950 . S
H1534 C1557 0.950 . S
H1535 C1559 0.950 . S
H1536 C1560 0.950 . S
H1537 C1561 0.951 . S
H1538 C1563 0.951 . S
H1539 C1565 0.950 . S
H1540 C1566 0.950 . S
H1541 C1568 0.950 . S
H1542 C1571 0.950 . S
H1543 C1572 0.950 . S
H1544 C1574 0.950 . S
H1545 C1575 0.967 . S
C1546 H1528 0.951 . S
C1546 C1547 1.366 . S
C1546 C1548 1.388 . S
C1547 C1546 1.366 . S
C1547 C1551 1.385 . S
C1548 H1529 0.951 . S
C1548 C1546 1.388 . S
C1548 C1549 1.366 . S
C1549 C1548 1.366 . S
C1549 C1550 1.414 . S
C1549 C1552 1.499 . S
C1550 H1530 0.950 . S
C1550 C1549 1.414 . S
C1550 C1551 1.374 . S
C1551 H1531 0.950 . S
C1551 C1547 1.385 . S
C1551 C1550 1.374 . S
C1552 C1549 1.499 . S
C1552 C1553 1.373 . S
C1552 C1554 1.389 . S
C1553 H1532 0.950 . S
C1553 C1552 1.373 . S
C1553 C1569 1.377 . S
C1554 C1552 1.389 . S
C1554 C1555 1.524 . S
C1554 C1568 1.377 . S
C1555 C1554 1.524 . S
C1555 C1556 1.397 . S
C1555 C1560 1.363 . S
C1556 H1533 0.950 . S
C1556 C1555 1.397 . S
C1556 C1557 1.334 . S
C1557 H1534 0.950 . S
C1557 C1556 1.334 . S
C1557 C1558 1.287 . S
C1558 C1557 1.287 . S
C1558 C1559 1.524 . S
C1558 H1577 0.913 . S
C1559 H1535 0.950 . S
C1559 C1558 1.524 . S
C1559 C1560 1.415 . S
C1560 H1536 0.950 . S
C1560 C1555 1.363 . S
C1560 C1559 1.415 . S
C1561 H1537 0.951 . S
C1561 C1562 1.366 . S
C1561 C1563 1.388 . S
C1562 C1561 1.366 . S
C1562 C1566 1.385 . S
C1563 H1538 0.951 . S
C1563 C1561 1.388 . S
C1563 C1564 1.366 . S
C1564 C1563 1.366 . S
C1564 C1565 1.414 . S
C1564 C1567 1.499 . S
C1565 H1539 0.950 . S
C1565 C1564 1.414 . S
C1565 C1566 1.374 . S
C1566 H1540 0.950 . S
C1566 C1562 1.385 . S
C1566 C1565 1.374 . S
C1567 C1564 1.499 . S
C1567 C1568 1.373 . S
C1567 C1569 1.389 . S
C1568 H1541 0.950 . S
C1568 C1554 1.377 . S
C1568 C1567 1.373 . S
C1569 C1553 1.377 . S
C1569 C1567 1.389 . S
C1569 C1570 1.491 1_655 S
C1570 C1569 1.491 1_455 S
C1570 C1571 1.439 . S
C1570 C1575 1.359 1_455 S
C1571 H1542 0.950 . S
C1571 C1570 1.439 . S
C1571 C1572 1.334 . S
C1572 H1543 0.950 . S
C1572 C1571 1.334 . S
C1572 C1573 1.287 . S
C1573 C1572 1.287 . S
C1573 C1574 1.524 . S
C1573 H1576 0.999 . S
C1574 H1544 0.950 . S
C1574 C1573 1.524 . S
C1574 C1575 1.400 1_455 S
C1575 H1545 0.967 . S
C1575 C1570 1.359 1_655 S
C1575 C1574 1.400 1_655 S
H1576 C1573 0.999 . S
H1577 C1558 0.913 . S
H1578 C1596 0.951 . S
H1579 C1598 0.951 . S
H1580 C1600 0.950 . S
H1581 C1601 0.950 . S
H1582 C1603 0.950 . S
H1583 C1606 0.950 . S
H1584 C1607 0.950 . S
H1585 C1609 0.950 . S
H1586 C1610 0.950 . S
H1587 C1611 0.951 . S
H1588 C1613 0.951 . S
H1589 C1615 0.950 . S
H1590 C1616 0.950 . S
H1591 C1618 0.950 1_545 S
H1592 C1621 0.950 . S
H1593 C1622 0.950 . S
H1594 C1624 0.950 . S
H1595 C1625 0.950 . S
C1596 H1578 0.951 . S
C1596 C1597 1.366 . S
C1596 C1598 1.388 . S
C1597 C1596 1.366 . S
C1597 C1601 1.385 . S
C1598 H1579 0.951 . S
C1598 C1596 1.388 . S
C1598 C1599 1.366 . S
C1599 C1598 1.366 . S
C1599 C1600 1.414 . S
C1599 C1602 1.499 . S
C1600 H1580 0.950 . S
C1600 C1599 1.414 . S
C1600 C1601 1.374 . S
C1601 H1581 0.950 . S
C1601 C1597 1.385 . S
C1601 C1600 1.374 . S
C1602 C1599 1.499 . S
C1602 C1603 1.373 . S
C1602 C1604 1.389 . S
C1603 H1582 0.950 . S
C1603 C1602 1.373 . S
C1603 C1619 1.377 . S
C1604 C1602 1.389 . S
C1604 C1605 1.524 1_565 S
C1604 C1618 1.377 . S
C1605 C1604 1.524 1_545 S
C1605 C1606 1.397 . S
C1605 C1610 1.363 . S
C1606 H1583 0.950 . S
C1606 C1605 1.397 . S
C1606 C1607 1.334 . S
C1607 H1584 0.950 . S
C1607 C1606 1.334 . S
C1607 C1608 1.287 . S
C1608 C1607 1.287 . S
C1608 C1609 1.524 . S
C1608 H1627 0.913 . S
C1609 H1585 0.950 . S
C1609 C1608 1.524 . S
C1609 C1610 1.415 . S
C1610 H1586 0.950 . S
C1610 C1605 1.363 . S
C1610 C1609 1.415 . S
C1611 H1587 0.951 . S
C1611 C1612 1.366 . S
C1611 C1613 1.388 . S
C1612 C1611 1.366 . S
C1612 C1616 1.385 . S
C1613 H1588 0.951 . S
C1613 C1611 1.388 . S
C1613 C1614 1.366 . S
C1614 C1613 1.366 . S
C1614 C1615 1.414 . S
C1614 C1617 1.499 . S
C1615 H1589 0.950 . S
C1615 C1614 1.414 . S
C1615 C1616 1.374 . S
C1616 H1590 0.950 . S
C1616 C1612 1.385 . S
C1616 C1615 1.374 . S
C1617 C1614 1.499 . S
C1617 C1618 1.373 . S
C1617 C1619 1.389 . S
C1618 H1591 0.950 1_565 S
C1618 C1604 1.377 . S
C1618 C1617 1.373 . S
C1619 C1603 1.377 . S
C1619 C1617 1.389 . S
C1619 C1620 1.524 . S
C1620 C1619 1.524 . S
C1620 C1621 1.397 . S
C1620 C1625 1.363 . S
C1621 H1592 0.950 . S
C1621 C1620 1.397 . S
C1621 C1622 1.334 . S
C1622 H1593 0.950 . S
C1622 C1621 1.334 . S
C1622 C1623 1.287 . S
C1623 C1622 1.287 . S
C1623 C1624 1.524 . S
C1623 H1626 0.999 . S
C1624 H1594 0.950 . S
C1624 C1623 1.524 . S
C1624 C1625 1.415 . S
C1625 H1595 0.950 . S
C1625 C1620 1.363 . S
C1625 C1624 1.415 . S
H1626 C1623 0.999 . S
H1627 C1608 0.913 . S
H1628 C1646 0.951 . S
H1629 C1648 0.951 . S
H1630 C1650 0.950 . S
H1631 C1651 0.950 . S
H1632 C1653 0.950 . S
H1633 C1656 0.950 . S
H1634 C1657 0.950 . S
H1635 C1659 0.950 . S
H1636 C1660 0.950 . S
H1637 C1661 0.951 . S
H1638 C1663 0.951 . S
H1639 C1665 0.950 . S
H1640 C1666 0.950 . S
H1641 C1668 0.950 . S
H1642 C1671 0.950 . S
H1643 C1672 0.950 . S
H1644 C1674 0.950 . S
H1645 C1675 0.950 . S
C1646 H1628 0.951 . S
C1646 C1647 1.366 . S
C1646 C1648 1.388 . S
C1647 C1646 1.366 . S
C1647 C1651 1.385 . S
C1648 H1629 0.951 . S
C1648 C1646 1.388 . S
C1648 C1649 1.366 . S
C1649 C1648 1.366 . S
C1649 C1650 1.414 . S
C1649 C1652 1.499 . S
C1650 H1630 0.950 . S
C1650 C1649 1.414 . S
C1650 C1651 1.374 . S
C1651 H1631 0.950 . S
C1651 C1647 1.385 . S
C1651 C1650 1.374 . S
C1652 C1649 1.499 . S
C1652 C1653 1.373 . S
C1652 C1654 1.389 . S
C1653 H1632 0.950 . S
C1653 C1652 1.373 . S
C1653 C1669 1.377 . S
C1654 C1652 1.389 . S
C1654 C1655 1.524 . S
C1654 C1668 1.377 . S
C1655 C1654 1.524 . S
C1655 C1656 1.397 . S
C1655 C1660 1.363 . S
C1656 H1633 0.950 . S
C1656 C1655 1.397 . S
C1656 C1657 1.334 . S
C1657 H1634 0.950 . S
C1657 C1656 1.334 . S
C1657 C1658 1.287 . S
C1658 C1657 1.287 . S
C1658 C1659 1.524 . S
C1658 H1677 0.913 . S
C1659 H1635 0.950 . S
C1659 C1658 1.524 . S
C1659 C1660 1.415 . S
C1660 H1636 0.950 . S
C1660 C1655 1.363 . S
C1660 C1659 1.415 . S
C1661 H1637 0.951 . S
C1661 C1662 1.366 . S
C1661 C1663 1.388 . S
C1662 C1661 1.366 . S
C1662 C1666 1.385 . S
C1663 H1638 0.951 . S
C1663 C1661 1.388 . S
C1663 C1664 1.366 . S
C1664 C1663 1.366 . S
C1664 C1665 1.414 . S
C1664 C1667 1.499 . S
C1665 H1639 0.950 . S
C1665 C1664 1.414 . S
C1665 C1666 1.374 . S
C1666 H1640 0.950 . S
C1666 C1662 1.385 . S
C1666 C1665 1.374 . S
C1667 C1664 1.499 . S
C1667 C1668 1.373 . S
C1667 C1669 1.389 . S
C1668 H1641 0.950 . S
C1668 C1654 1.377 . S
C1668 C1667 1.373 . S
C1669 C1653 1.377 . S
C1669 C1667 1.389 . S
C1669 C1670 1.524 . S
C1670 C1669 1.524 . S
C1670 C1671 1.397 . S
C1670 C1675 1.363 . S
C1671 H1642 0.950 . S
C1671 C1670 1.397 . S
C1671 C1672 1.334 . S
C1672 H1643 0.950 . S
C1672 C1671 1.334 . S
C1672 C1673 1.287 . S
C1673 C1672 1.287 . S
C1673 C1674 1.524 . S
C1673 H1676 0.999 . S
C1674 H1644 0.950 . S
C1674 C1673 1.524 . S
C1674 C1675 1.415 . S
C1675 H1645 0.950 . S
C1675 C1670 1.363 . S
C1675 C1674 1.415 . S
H1676 C1673 0.999 . S
H1677 C1658 0.913 . S
H1678 C1696 0.951 . S
H1679 C1698 0.951 . S
H1680 C1700 0.950 . S
H1681 C1701 0.950 . S
H1682 C1703 0.950 . S
H1683 C1706 0.950 . S
H1684 C1707 0.950 . S
H1685 C1709 0.950 . S
H1686 C1710 0.950 . S
H1687 C1711 0.951 . S
H1688 C1713 0.951 . S
H1689 C1715 0.950 . S
H1690 C1716 0.950 . S
H1691 C1718 0.950 . S
H1692 C1721 0.950 . S
H1693 C1722 0.950 . S
H1694 C1724 0.950 . S
H1695 C1725 0.950 . S
C1696 H1678 0.951 . S
C1696 C1697 1.366 . S
C1696 C1698 1.388 . S
C1697 C1696 1.366 . S
C1697 C1701 1.385 . S
C1698 H1679 0.951 . S
C1698 C1696 1.388 . S
C1698 C1699 1.366 . S
C1699 C1698 1.366 . S
C1699 C1700 1.414 . S
C1699 C1702 1.499 . S
C1700 H1680 0.950 . S
C1700 C1699 1.414 . S
C1700 C1701 1.374 . S
C1701 H1681 0.950 . S
C1701 C1697 1.385 . S
C1701 C1700 1.374 . S
C1702 C1699 1.499 . S
C1702 C1703 1.373 . S
C1702 C1704 1.389 . S
C1703 H1682 0.950 . S
C1703 C1702 1.373 . S
C1703 C1719 1.377 . S
C1704 C1702 1.389 . S
C1704 C1705 1.524 . S
C1704 C1718 1.377 . S
C1705 C1704 1.524 . S
C1705 C1706 1.397 . S
C1705 C1710 1.363 . S
C1706 H1683 0.950 . S
C1706 C1705 1.397 . S
C1706 C1707 1.334 . S
C1707 H1684 0.950 . S
C1707 C1706 1.334 . S
C1707 C1708 1.287 . S
C1708 C1707 1.287 . S
C1708 C1709 1.524 . S
C1708 H1727 0.913 1_554 S
C1709 H1685 0.950 . S
C1709 C1708 1.524 . S
C1709 C1710 1.415 . S
C1710 H1686 0.950 . S
C1710 C1705 1.363 . S
C1710 C1709 1.415 . S
C1711 H1687 0.951 . S
C1711 C1712 1.366 . S
C1711 C1713 1.388 . S
C1712 C1711 1.366 . S
C1712 C1716 1.385 . S
C1713 H1688 0.951 . S
C1713 C1711 1.388 . S
C1713 C1714 1.366 . S
C1714 C1713 1.366 . S
C1714 C1715 1.414 . S
C1714 C1717 1.499 . S
C1715 H1689 0.950 . S
C1715 C1714 1.414 . S
C1715 C1716 1.374 . S
C1716 H1690 0.950 . S
C1716 C1712 1.385 . S
C1716 C1715 1.374 . S
C1717 C1714 1.499 . S
C1717 C1718 1.373 . S
C1717 C1719 1.389 . S
C1718 H1691 0.950 . S
C1718 C1704 1.377 . S
C1718 C1717 1.373 . S
C1719 C1703 1.377 . S
C1719 C1717 1.389 . S
C1719 C1720 1.524 . S
C1720 C1719 1.524 . S
C1720 C1721 1.397 . S
C1720 C1725 1.363 . S
C1721 H1692 0.950 . S
C1721 C1720 1.397 . S
C1721 C1722 1.334 . S
C1722 H1693 0.950 . S
C1722 C1721 1.334 . S
C1722 C1723 1.287 . S
C1723 C1722 1.287 . S
C1723 C1724 1.524 . S
C1723 H1726 0.999 . S
C1724 H1694 0.950 . S
C1724 C1723 1.524 . S
C1724 C1725 1.415 . S
C1725 H1695 0.950 . S
C1725 C1720 1.363 . S
C1725 C1724 1.415 . S
H1726 C1723 0.999 . S
H1727 C1708 0.913 1_556 S
H1728 C1746 0.951 . S
H1729 C1748 0.951 . S
H1730 C1750 0.950 . S
H1731 C1751 0.950 . S
H1732 C1753 0.950 . S
H1733 C1756 0.950 . S
H1734 C1757 0.950 . S
H1735 C1759 0.950 . S
H1736 C1760 0.950 1_455 S
H1737 C1761 0.951 . S
H1738 C1763 0.951 . S
H1739 C1765 0.950 . S
H1740 C1766 0.950 . S
H1741 C1768 0.950 . S
H1742 C1771 0.950 . S
H1743 C1772 0.950 . S
H1744 C1774 0.950 . S
H1745 C1775 0.950 . S
C1746 H1728 0.951 . S
C1746 C1747 1.366 . S
C1746 C1748 1.388 . S
C1747 C1746 1.366 . S
C1747 C1751 1.385 . S
C1748 H1729 0.951 . S
C1748 C1746 1.388 . S
C1748 C1749 1.366 . S
C1749 C1748 1.366 . S
C1749 C1750 1.414 . S
C1749 C1752 1.499 . S
C1750 H1730 0.950 . S
C1750 C1749 1.414 . S
C1750 C1751 1.374 . S
C1751 H1731 0.950 . S
C1751 C1747 1.385 . S
C1751 C1750 1.374 . S
C1752 C1749 1.499 . S
C1752 C1753 1.373 . S
C1752 C1754 1.389 . S
C1753 H1732 0.950 . S
C1753 C1752 1.373 . S
C1753 C1769 1.377 . S
C1754 C1752 1.389 . S
C1754 C1755 1.524 1_455 S
C1754 C1768 1.377 . S
C1755 C1754 1.524 1_655 S
C1755 C1756 1.397 . S
C1755 C1760 1.363 . S
C1756 H1733 0.950 . S
C1756 C1755 1.397 . S
C1756 C1757 1.334 . S
C1757 H1734 0.950 . S
C1757 C1756 1.334 . S
C1757 C1758 1.287 . S
C1758 C1757 1.287 . S
C1758 C1759 1.524 . S
C1758 H1777 0.913 . S
C1759 H1735 0.950 . S
C1759 C1758 1.524 . S
C1759 C1760 1.415 . S
C1760 H1736 0.950 1_655 S
C1760 C1755 1.363 . S
C1760 C1759 1.415 . S
C1761 H1737 0.951 . S
C1761 C1762 1.366 . S
C1761 C1763 1.388 . S
C1762 C1761 1.366 . S
C1762 C1766 1.385 . S
C1763 H1738 0.951 . S
C1763 C1761 1.388 . S
C1763 C1764 1.366 . S
C1764 C1763 1.366 . S
C1764 C1765 1.414 . S
C1764 C1767 1.499 . S
C1765 H1739 0.950 . S
C1765 C1764 1.414 . S
C1765 C1766 1.374 . S
C1766 H1740 0.950 . S
C1766 C1762 1.385 . S
C1766 C1765 1.374 . S
C1767 C1764 1.499 . S
C1767 C1768 1.373 . S
C1767 C1769 1.389 . S
C1768 H1741 0.950 . S
C1768 C1754 1.377 . S
C1768 C1767 1.373 . S
C1769 C1753 1.377 . S
C1769 C1767 1.389 . S
C1769 C1770 1.524 . S
C1770 C1769 1.524 . S
C1770 C1771 1.397 . S
C1770 C1775 1.363 . S
C1771 H1742 0.950 . S
C1771 C1770 1.397 . S
C1771 C1772 1.334 . S
C1772 H1743 0.950 . S
C1772 C1771 1.334 . S
C1772 C1773 1.287 . S
C1773 C1772 1.287 . S
C1773 C1774 1.524 . S
C1773 H1776 0.999 . S
C1774 H1744 0.950 . S
C1774 C1773 1.524 . S
C1774 C1775 1.415 . S
C1775 H1745 0.950 . S
C1775 C1770 1.363 . S
C1775 C1774 1.415 . S
H1776 C1773 0.999 . S
H1777 C1758 0.913 . S
H1778 C1796 0.951 . S
H1779 C1798 0.954 . S
H1780 C1800 0.950 . S
H1781 C1801 0.950 . S
H1782 C1803 0.950 . S
H1783 C1806 0.950 . S
H1784 C1807 0.942 1_556 S
H1785 C1809 0.950 . S
H1786 C1810 0.950 . S
H1787 C1811 0.951 . S
H1788 C1813 0.951 . S
H1789 C1815 0.950 . S
H1790 C1816 0.950 . S
H1791 C1818 0.950 . S
H1792 C1821 0.950 . S
H1793 C1822 0.950 . S
H1794 C1824 0.950 . S
H1795 C1825 0.950 . S
C1796 H1778 0.951 . S
C1796 C1797 1.366 . S
C1796 C1798 1.388 . S
C1797 C1796 1.366 . S
C1797 C1801 1.385 . S
C1798 H1779 0.954 . S
C1798 C1796 1.388 . S
C1798 C1799 1.366 1_556 S
C1799 C1798 1.366 1_554 S
C1799 C1800 1.414 1_554 S
C1799 C1802 1.499 . S
C1800 H1780 0.950 . S
C1800 C1799 1.414 1_556 S
C1800 C1801 1.374 . S
C1801 H1781 0.950 . S
C1801 C1797 1.385 . S
C1801 C1800 1.374 . S
C1802 C1799 1.499 . S
C1802 C1803 1.373 . S
C1802 C1804 1.389 . S
C1803 H1782 0.950 . S
C1803 C1802 1.373 . S
C1803 C1819 1.377 . S
C1804 C1802 1.389 . S
C1804 C1805 1.524 . S
C1804 C1818 1.377 . S
C1805 C1804 1.524 . S
C1805 C1806 1.397 . S
C1805 C1810 1.363 . S
C1806 H1783 0.950 . S
C1806 C1805 1.397 . S
C1806 C1807 1.334 . S
C1807 H1784 0.942 1_554 S
C1807 C1806 1.334 . S
C1807 C1808 1.287 . S
C1808 C1807 1.287 . S
C1808 C1809 1.524 . S
C1808 H1827 0.913 . S
C1809 H1785 0.950 . S
C1809 C1808 1.524 . S
C1809 C1810 1.415 . S
C1810 H1786 0.950 . S
C1810 C1805 1.363 . S
C1810 C1809 1.415 . S
C1811 H1787 0.951 . S
C1811 C1812 1.366 . S
C1811 C1813 1.388 . S
C1812 C1811 1.366 . S
C1812 C1816 1.385 . S
C1813 H1788 0.951 . S
C1813 C1811 1.388 . S
C1813 C1814 1.366 . S
C1814 C1813 1.366 . S
C1814 C1815 1.414 . S
C1814 C1817 1.499 . S
C1815 H1789 0.950 . S
C1815 C1814 1.414 . S
C1815 C1816 1.374 . S
C1816 H1790 0.950 . S
C1816 C1812 1.385 . S
C1816 C1815 1.374 . S
C1817 C1814 1.499 . S
C1817 C1818 1.373 . S
C1817 C1819 1.389 . S
C1818 H1791 0.950 . S
C1818 C1804 1.377 . S
C1818 C1817 1.373 . S
C1819 C1803 1.377 . S
C1819 C1817 1.389 . S
C1819 C1820 1.524 . S
C1820 C1819 1.524 . S
C1820 C1821 1.397 1_545 S
C1820 C1825 1.363 . S
C1821 H1792 0.950 . S
C1821 C1820 1.397 1_565 S
C1821 C1822 1.334 . S
C1822 H1793 0.950 . S
C1822 C1821 1.334 . S
C1822 C1823 1.287 . S
C1823 C1822 1.287 . S
C1823 C1824 1.524 . S
C1823 H1826 0.999 . S
C1824 H1794 0.950 . S
C1824 C1823 1.524 . S
C1824 C1825 1.415 1_565 S
C1825 H1795 0.950 . S
C1825 C1820 1.363 . S
C1825 C1824 1.415 1_545 S
H1826 C1823 0.999 . S
H1827 C1808 0.913 . S
H1828 C1846 0.951 . S
H1829 C1848 0.951 . S
H1830 C1850 0.950 . S
H1831 C1851 0.950 . S
H1832 C1853 0.950 . S
H1833 C1856 0.950 . S
H1834 C1857 0.950 . S
H1835 C1859 0.950 . S
H1836 C1860 0.950 . S
H1837 C1861 0.951 . S
H1838 C1863 0.951 . S
H1839 C1865 0.950 . S
H1840 C1866 0.950 . S
H1841 C1868 0.950 . S
H1842 C1871 0.950 . S
H1843 C1872 0.950 . S
H1844 C1874 0.950 . S
H1845 C1875 0.950 . S
C1846 H1828 0.951 . S
C1846 C1847 1.366 . S
C1846 C1848 1.388 . S
C1847 C1846 1.366 . S
C1847 C1851 1.385 . S
C1848 H1829 0.951 . S
C1848 C1846 1.388 . S
C1848 C1849 1.366 . S
C1849 C1848 1.366 . S
C1849 C1850 1.414 . S
C1849 C1852 1.499 . S
C1850 H1830 0.950 . S
C1850 C1849 1.414 . S
C1850 C1851 1.374 . S
C1851 H1831 0.950 . S
C1851 C1847 1.385 . S
C1851 C1850 1.374 . S
C1852 C1849 1.499 . S
C1852 C1853 1.373 . S
C1852 C1854 1.389 . S
C1853 H1832 0.950 . S
C1853 C1852 1.373 . S
C1853 C1869 1.377 . S
C1854 C1852 1.389 . S
C1854 C1855 1.524 . S
C1854 C1868 1.377 . S
C1855 C1854 1.524 . S
C1855 C1856 1.397 . S
C1855 C1860 1.363 . S
C1856 H1833 0.950 . S
C1856 C1855 1.397 . S
C1856 C1857 1.334 . S
C1857 H1834 0.950 . S
C1857 C1856 1.334 . S
C1857 C1858 1.287 . S
C1858 C1857 1.287 . S
C1858 C1859 1.524 . S
C1858 H1877 0.913 . S
C1859 H1835 0.950 . S
C1859 C1858 1.524 . S
C1859 C1860 1.415 . S
C1860 H1836 0.950 . S
C1860 C1855 1.363 . S
C1860 C1859 1.415 . S
C1861 H1837 0.951 . S
C1861 C1862 1.366 . S
C1861 C1863 1.388 . S
C1862 C1861 1.366 . S
C1862 C1866 1.385 . S
C1863 H1838 0.951 . S
C1863 C1861 1.388 . S
C1863 C1864 1.366 . S
C1864 C1863 1.366 . S
C1864 C1865 1.414 . S
C1864 C1867 1.499 . S
C1865 H1839 0.950 . S
C1865 C1864 1.414 . S
C1865 C1866 1.374 . S
C1866 H1840 0.950 . S
C1866 C1862 1.385 . S
C1866 C1865 1.374 . S
C1867 C1864 1.499 . S
C1867 C1868 1.373 . S
C1867 C1869 1.389 . S
C1868 H1841 0.950 . S
C1868 C1854 1.377 . S
C1868 C1867 1.373 . S
C1869 C1853 1.377 . S
C1869 C1867 1.389 . S
C1869 C1870 1.524 . S
C1870 C1869 1.524 . S
C1870 C1871 1.397 . S
C1870 C1875 1.363 . S
C1871 H1842 0.950 . S
C1871 C1870 1.397 . S
C1871 C1872 1.334 . S
C1872 H1843 0.950 . S
C1872 C1871 1.334 . S
C1872 C1873 1.287 . S
C1873 C1872 1.287 . S
C1873 C1874 1.524 . S
C1873 H1876 0.999 . S
C1874 H1844 0.950 . S
C1874 C1873 1.524 . S
C1874 C1875 1.415 . S
C1875 H1845 0.950 . S
C1875 C1870 1.363 . S
C1875 C1874 1.415 . S
H1876 C1873 0.999 . S
H1877 C1858 0.913 . S
H1878 C1896 0.951 . S
H1879 C1898 0.951 . S
H1880 C1900 0.958 . S
H1881 C1901 0.950 . S
H1882 C1903 0.950 . S
H1883 C1906 0.950 . S
H1884 C1907 0.950 1_556 S
H1885 C1909 0.950 . S
H1886 C1910 0.950 . S
H1887 C1911 0.951 . S
H1888 C1913 0.951 . S
H1889 C1915 0.950 . S
H1890 C1916 0.950 . S
H1891 C1918 0.950 . S
H1892 C1921 0.950 . S
H1893 C1922 0.950 . S
H1894 C1924 0.950 . S
H1895 C1925 0.950 . S
C1896 H1878 0.951 . S
C1896 C1897 1.366 . S
C1896 C1898 1.388 . S
C1897 C1896 1.366 . S
C1897 C1901 1.385 . S
C1898 H1879 0.951 . S
C1898 C1896 1.388 . S
C1898 C1899 1.366 1_556 S
C1899 C1898 1.366 1_554 S
C1899 C1900 1.414 1_554 S
C1899 C1902 1.499 . S
C1900 H1880 0.958 . S
C1900 C1899 1.414 1_556 S
C1900 C1901 1.374 . S
C1901 H1881 0.950 . S
C1901 C1897 1.385 . S
C1901 C1900 1.374 . S
C1902 C1899 1.499 . S
C1902 C1903 1.373 . S
C1902 C1904 1.389 . S
C1903 H1882 0.950 . S
C1903 C1902 1.373 . S
C1903 C1919 1.377 . S
C1904 C1902 1.389 . S
C1904 C1905 1.524 . S
C1904 C1918 1.377 . S
C1905 C1904 1.524 . S
C1905 C1906 1.397 . S
C1905 C1910 1.363 . S
C1906 H1883 0.950 . S
C1906 C1905 1.397 . S
C1906 C1907 1.334 . S
C1907 H1884 0.950 1_554 S
C1907 C1906 1.334 . S
C1907 C1908 1.287 . S
C1908 C1907 1.287 . S
C1908 C1909 1.524 . S
C1908 H1927 0.913 . S
C1909 H1885 0.950 . S
C1909 C1908 1.524 . S
C1909 C1910 1.415 . S
C1910 H1886 0.950 . S
C1910 C1905 1.363 . S
C1910 C1909 1.415 . S
C1911 H1887 0.951 . S
C1911 C1912 1.366 . S
C1911 C1913 1.388 . S
C1912 C1911 1.366 . S
C1912 C1916 1.385 . S
C1913 H1888 0.951 . S
C1913 C1911 1.388 . S
C1913 C1914 1.366 . S
C1914 C1913 1.366 . S
C1914 C1915 1.414 . S
C1914 C1917 1.499 . S
C1915 H1889 0.950 . S
C1915 C1914 1.414 . S
C1915 C1916 1.374 . S
C1916 H1890 0.950 . S
C1916 C1912 1.385 . S
C1916 C1915 1.374 . S
C1917 C1914 1.499 . S
C1917 C1918 1.373 . S
C1917 C1919 1.389 . S
C1918 H1891 0.950 . S
C1918 C1904 1.377 . S
C1918 C1917 1.373 . S
C1919 C1903 1.377 . S
C1919 C1917 1.389 . S
C1919 C1920 1.524 . S
C1920 C1919 1.524 . S
C1920 C1921 1.397 . S
C1920 C1925 1.363 . S
C1921 H1892 0.950 . S
C1921 C1920 1.397 . S
C1921 C1922 1.334 . S
C1922 H1893 0.950 . S
C1922 C1921 1.334 . S
C1922 C1923 1.287 . S
C1923 C1922 1.287 . S
C1923 C1924 1.524 . S
C1923 H1926 0.999 . S
C1924 H1894 0.950 . S
C1924 C1923 1.524 . S
C1924 C1925 1.415 . S
C1925 H1895 0.950 . S
C1925 C1920 1.363 . S
C1925 C1924 1.415 . S
H1926 C1923 0.999 . S
H1927 C1908 0.913 . S
H1928 C1946 0.951 . S
H1929 C1948 0.951 . S
H1930 C1950 0.950 1_655 S
H1931 C1951 0.950 1_655 S
H1932 C1953 0.950 . S
H1933 C1956 0.950 . S
H1934 C1957 0.950 . S
H1935 C1959 0.950 . S
H1936 C1960 0.950 . S
H1937 C1961 0.951 . S
H1938 C1963 0.985 . S
H1939 C1965 0.950 . S
H1940 C1966 0.950 . S
H1941 C1968 0.950 . S
H1942 C1971 0.950 . S
H1943 C1972 0.950 1_554 S
H1944 C1974 0.950 . S
H1945 C1975 0.950 . S
C1946 H1928 0.951 . S
C1946 C1947 1.366 . S
C1946 C1948 1.388 . S
C1947 C1946 1.366 . S
C1947 C1951 1.385 . S
C1948 H1929 0.951 . S
C1948 C1946 1.388 . S
C1948 C1949 1.366 . S
C1949 C1948 1.366 . S
C1949 C1950 1.414 . S
C1949 C1952 1.499 . S
C1950 H1930 0.950 1_455 S
C1950 C1949 1.414 . S
C1950 C1951 1.374 . S
C1951 H1931 0.950 1_455 S
C1951 C1947 1.385 . S
C1951 C1950 1.374 . S
C1952 C1949 1.499 . S
C1952 C1953 1.373 . S
C1952 C1954 1.389 . S
C1953 H1932 0.950 . S
C1953 C1952 1.373 . S
C1953 C1969 1.377 . S
C1954 C1952 1.389 . S
C1954 C1955 1.524 . S
C1954 C1968 1.377 . S
C1955 C1954 1.524 . S
C1955 C1956 1.397 . S
C1955 C1960 1.363 . S
C1956 H1933 0.950 . S
C1956 C1955 1.397 . S
C1956 C1957 1.334 . S
C1957 H1934 0.950 . S
C1957 C1956 1.334 . S
C1957 C1958 1.287 . S
C1958 C1957 1.287 . S
C1958 C1959 1.524 . S
C1958 H1977 0.913 . S
C1959 H1935 0.950 . S
C1959 C1958 1.524 . S
C1959 C1960 1.415 . S
C1960 H1936 0.950 . S
C1960 C1955 1.363 . S
C1960 C1959 1.415 . S
C1961 H1937 0.951 . S
C1961 C1962 1.366 . S
C1961 C1963 1.388 . S
C1962 C1961 1.366 . S
C1962 C1966 1.385 . S
C1963 H1938 0.985 . S
C1963 C1961 1.388 . S
C1963 C1964 1.366 1_554 S
C1964 C1963 1.366 1_556 S
C1964 C1965 1.414 1_556 S
C1964 C1967 1.499 . S
C1965 H1939 0.950 . S
C1965 C1964 1.414 1_554 S
C1965 C1966 1.374 . S
C1966 H1940 0.950 . S
C1966 C1962 1.385 . S
C1966 C1965 1.374 . S
C1967 C1964 1.499 . S
C1967 C1968 1.373 . S
C1967 C1969 1.389 . S
C1968 H1941 0.950 . S
C1968 C1954 1.377 . S
C1968 C1967 1.373 . S
C1969 C1953 1.377 . S
C1969 C1967 1.389 . S
C1969 C1970 1.524 . S
C1970 C1969 1.524 . S
C1970 C1971 1.397 . S
C1970 C1975 1.363 1_455 S
C1971 H1942 0.950 . S
C1971 C1970 1.397 . S
C1971 C1972 1.334 . S
C1972 H1943 0.950 1_556 S
C1972 C1971 1.334 . S
C1972 C1973 1.287 1_455 S
C1973 C1972 1.287 1_655 S
C1973 C1974 1.524 . S
C1973 H1976 0.999 . S
C1974 H1944 0.950 . S
C1974 C1973 1.524 . S
C1974 C1975 1.415 . S
C1975 H1945 0.950 . S
C1975 C1970 1.363 1_655 S
C1975 C1974 1.415 . S
H1976 C1973 0.999 . S
H1977 C1958 0.913 . S
H1978 C1996 0.951 . S
H1979 C1998 0.951 . S
H1980 C2000 0.950 . S
H1981 C2001 0.950 . S
H1982 C2003 0.950 . S
H1983 C2006 0.950 . S
H1984 C2007 0.950 . S
H1985 C2009 0.950 . S
H1986 C2010 0.950 1_545 S
H1987 C2011 0.951 . S
H1988 C2013 0.951 . S
H1989 C2015 0.950 . S
H1990 C2016 0.950 . S
H1991 C2018 0.950 . S
H1992 C2021 0.950 . S
H1993 C2022 0.950 . S
H1994 C2024 0.950 . S
H1995 C2025 0.950 . S
C1996 H1978 0.951 . S
C1996 C1997 1.366 . S
C1996 C1998 1.388 . S
C1997 C1996 1.366 . S
C1997 C2001 1.385 . S
C1998 H1979 0.951 . S
C1998 C1996 1.388 . S
C1998 C1999 1.366 . S
C1999 C1998 1.366 . S
C1999 C2000 1.414 . S
C1999 C2002 1.499 . S
C2000 H1980 0.950 . S
C2000 C1999 1.414 . S
C2000 C2001 1.374 . S
C2001 H1981 0.950 . S
C2001 C1997 1.385 . S
C2001 C2000 1.374 . S
C2002 C1999 1.499 . S
C2002 C2003 1.373 . S
C2002 C2004 1.389 . S
C2003 H1982 0.950 . S
C2003 C2002 1.373 . S
C2003 C2019 1.377 . S
C2004 C2002 1.389 . S
C2004 C2005 1.516 1_545 S
C2004 C2018 1.377 . S
C2005 C2004 1.516 1_565 S
C2005 C2006 1.405 . S
C2005 C2010 1.364 . S
C2006 H1983 0.950 . S
C2006 C2005 1.405 . S
C2006 C2007 1.334 . S
C2007 H1984 0.950 . S
C2007 C2006 1.334 . S
C2007 C2008 1.287 . S
C2008 C2007 1.287 . S
C2008 C2009 1.524 . S
C2008 H2027 0.913 . S
C2009 H1985 0.950 . S
C2009 C2008 1.524 . S
C2009 C2010 1.415 . S
C2010 H1986 0.950 1_565 S
C2010 C2005 1.364 . S
C2010 C2009 1.415 . S
C2011 H1987 0.951 . S
C2011 C2012 1.366 . S
C2011 C2013 1.388 . S
C2012 C2011 1.366 . S
C2012 C2016 1.385 . S
C2013 H1988 0.951 . S
C2013 C2011 1.388 . S
C2013 C2014 1.366 . S
C2014 C2013 1.366 . S
C2014 C2015 1.414 . S
C2014 C2017 1.499 . S
C2015 H1989 0.950 . S
C2015 C2014 1.414 . S
C2015 C2016 1.374 . S
C2016 H1990 0.950 . S
C2016 C2012 1.385 . S
C2016 C2015 1.374 . S
C2017 C2014 1.499 . S
C2017 C2018 1.373 . S
C2017 C2019 1.389 . S
C2018 H1991 0.950 . S
C2018 C2004 1.377 . S
C2018 C2017 1.373 . S
C2019 C2003 1.377 . S
C2019 C2017 1.389 . S
C2019 C2020 1.524 . S
C2020 C2019 1.524 . S
C2020 C2021 1.397 . S
C2020 C2025 1.363 . S
C2021 H1992 0.950 . S
C2021 C2020 1.397 . S
C2021 C2022 1.334 . S
C2022 H1993 0.950 . S
C2022 C2021 1.334 . S
C2022 C2023 1.287 . S
C2023 C2022 1.287 . S
C2023 C2024 1.524 . S
C2023 H2026 0.999 . S
C2024 H1994 0.950 . S
C2024 C2023 1.524 . S
C2024 C2025 1.415 . S
C2025 H1995 0.950 . S
C2025 C2020 1.363 . S
C2025 C2024 1.415 . S
H2026 C2023 0.999 . S
H2027 C2008 0.913 . S
H2028 C2046 0.951 . S
H2029 C2048 0.951 . S
H2030 C2050 0.950 . S
H2031 C2051 0.950 . S
H2032 C2053 0.950 . S
H2033 C2056 0.950 . S
H2034 C2057 0.950 . S
H2035 C2059 0.950 . S
H2036 C2060 0.950 . S
H2037 C2061 0.951 . S
H2038 C2063 0.951 . S
H2039 C2065 0.960 . S
H2040 C2066 0.950 . S
H2041 C2068 0.950 . S
H2042 C2071 0.950 . S
H2043 C2072 0.950 1_554 S
H2044 C2074 0.950 . S
H2045 C2075 0.950 . S
C2046 H2028 0.951 . S
C2046 C2047 1.366 . S
C2046 C2048 1.388 . S
C2047 C2046 1.366 . S
C2047 C2051 1.385 . S
C2048 H2029 0.951 . S
C2048 C2046 1.388 . S
C2048 C2049 1.366 . S
C2049 C2048 1.366 . S
C2049 C2050 1.414 . S
C2049 C2052 1.499 . S
C2050 H2030 0.950 . S
C2050 C2049 1.414 . S
C2050 C2051 1.374 . S
C2051 H2031 0.950 . S
C2051 C2047 1.385 . S
C2051 C2050 1.374 . S
C2052 C2049 1.499 . S
C2052 C2053 1.373 . S
C2052 C2054 1.389 . S
C2053 H2032 0.950 . S
C2053 C2052 1.373 . S
C2053 C2069 1.377 . S
C2054 C2052 1.389 . S
C2054 C2055 1.524 . S
C2054 C2068 1.377 . S
C2055 C2054 1.524 . S
C2055 C2056 1.397 . S
C2055 C2060 1.363 . S
C2056 H2033 0.950 . S
C2056 C2055 1.397 . S
C2056 C2057 1.334 . S
C2057 H2034 0.950 . S
C2057 C2056 1.334 . S
C2057 C2058 1.287 . S
C2058 C2057 1.287 . S
C2058 C2059 1.524 . S
C2058 H2077 0.913 . S
C2059 H2035 0.950 . S
C2059 C2058 1.524 . S
C2059 C2060 1.415 . S
C2060 H2036 0.950 . S
C2060 C2055 1.363 . S
C2060 C2059 1.415 . S
C2061 H2037 0.951 . S
C2061 C2062 1.366 . S
C2061 C2063 1.388 . S
C2062 C2061 1.366 . S
C2062 C2066 1.385 . S
C2063 H2038 0.951 . S
C2063 C2061 1.388 . S
C2063 C2064 1.366 1_554 S
C2064 C2063 1.366 1_556 S
C2064 C2065 1.414 1_556 S
C2064 C2067 1.499 . S
C2065 H2039 0.960 . S
C2065 C2064 1.414 1_554 S
C2065 C2066 1.374 . S
C2066 H2040 0.950 . S
C2066 C2062 1.385 . S
C2066 C2065 1.374 . S
C2067 C2064 1.499 . S
C2067 C2068 1.373 . S
C2067 C2069 1.389 . S
C2068 H2041 0.950 . S
C2068 C2054 1.377 . S
C2068 C2067 1.373 . S
C2069 C2053 1.377 . S
C2069 C2067 1.389 . S
C2069 C2070 1.524 . S
C2070 C2069 1.524 . S
C2070 C2071 1.397 . S
C2070 C2075 1.363 . S
C2071 H2042 0.950 . S
C2071 C2070 1.397 . S
C2071 C2072 1.334 . S
C2072 H2043 0.950 1_556 S
C2072 C2071 1.334 . S
C2072 C2073 1.287 . S
C2073 C2072 1.287 . S
C2073 C2074 1.524 . S
C2073 H2076 0.999 . S
C2074 H2044 0.950 . S
C2074 C2073 1.524 . S
C2074 C2075 1.415 . S
C2075 H2045 0.950 . S
C2075 C2070 1.363 . S
C2075 C2074 1.415 . S
H2076 C2073 0.999 . S
H2077 C2058 0.913 . S
H2078 C2096 0.951 . S
H2079 C2098 0.951 . S
H2080 C2100 0.950 . S
H2081 C2101 0.950 . S
H2082 C2103 0.950 . S
H2083 C2106 0.950 . S
H2084 C2107 0.950 . S
H2085 C2109 0.950 . S
H2086 C2110 0.950 . S
H2087 C2111 0.951 . S
H2088 C2113 0.951 . S
H2089 C2115 0.950 . S
H2090 C2116 0.950 . S
H2091 C2118 0.950 . S
H2092 C2121 0.950 . S
H2093 C2122 0.950 . S
H2094 C2124 0.950 . S
H2095 C2125 0.950 . S
C2096 H2078 0.951 . S
C2096 C2097 1.366 . S
C2096 C2098 1.388 . S
C2097 C2096 1.366 . S
C2097 C2101 1.385 . S
C2098 H2079 0.951 . S
C2098 C2096 1.388 . S
C2098 C2099 1.366 . S
C2099 C2098 1.366 . S
C2099 C2100 1.414 . S
C2099 C2102 1.499 . S
C2100 H2080 0.950 . S
C2100 C2099 1.414 . S
C2100 C2101 1.374 . S
C2101 H2081 0.950 . S
C2101 C2097 1.385 . S
C2101 C2100 1.374 . S
C2102 C2099 1.499 . S
C2102 C2103 1.373 . S
C2102 C2104 1.389 . S
C2103 H2082 0.950 . S
C2103 C2102 1.373 . S
C2103 C2119 1.377 . S
C2104 C2102 1.389 . S
C2104 C2105 1.524 . S
C2104 C2118 1.377 . S
C2105 C2104 1.524 . S
C2105 C2106 1.397 . S
C2105 C2110 1.363 . S
C2106 H2083 0.950 . S
C2106 C2105 1.397 . S
C2106 C2107 1.334 . S
C2107 H2084 0.950 . S
C2107 C2106 1.334 . S
C2107 C2108 1.287 . S
C2108 C2107 1.287 . S
C2108 C2109 1.524 . S
C2108 H2127 0.913 . S
C2109 H2085 0.950 . S
C2109 C2108 1.524 . S
C2109 C2110 1.415 . S
C2110 H2086 0.950 . S
C2110 C2105 1.363 . S
C2110 C2109 1.415 . S
C2111 H2087 0.951 . S
C2111 C2112 1.366 . S
C2111 C2113 1.388 . S
C2112 C2111 1.366 . S
C2112 C2116 1.385 . S
C2113 H2088 0.951 . S
C2113 C2111 1.388 . S
C2113 C2114 1.366 . S
C2114 C2113 1.366 . S
C2114 C2115 1.414 . S
C2114 C2117 1.499 . S
C2115 H2089 0.950 . S
C2115 C2114 1.414 . S
C2115 C2116 1.374 . S
C2116 H2090 0.950 . S
C2116 C2112 1.385 . S
C2116 C2115 1.374 . S
C2117 C2114 1.499 . S
C2117 C2118 1.373 . S
C2117 C2119 1.389 . S
C2118 H2091 0.950 . S
C2118 C2104 1.377 . S
C2118 C2117 1.373 . S
C2119 C2103 1.377 . S
C2119 C2117 1.389 . S
C2119 C2120 1.524 . S
C2120 C2119 1.524 . S
C2120 C2121 1.397 . S
C2120 C2125 1.363 . S
C2121 H2092 0.950 . S
C2121 C2120 1.397 . S
C2121 C2122 1.334 . S
C2122 H2093 0.950 . S
C2122 C2121 1.334 . S
C2122 C2123 1.287 . S
C2123 C2122 1.287 . S
C2123 C2124 1.524 . S
C2123 H2126 0.999 . S
C2124 H2094 0.950 . S
C2124 C2123 1.524 . S
C2124 C2125 1.415 . S
C2125 H2095 0.950 . S
C2125 C2120 1.363 . S
C2125 C2124 1.415 . S
H2126 C2123 0.999 . S
H2127 C2108 0.913 . S
H2128 C2146 0.951 . S
H2129 C2148 0.951 . S
H2130 C2150 0.950 . S
H2131 C2151 0.950 . S
H2132 C2153 0.950 . S
H2133 C2156 0.950 . S
H2134 C2157 0.950 . S
H2135 C2159 0.942 1_655 S
H2136 C2160 0.950 . S
H2137 C2161 0.951 . S
H2138 C2163 0.951 . S
H2139 C2165 0.950 . S
H2140 C2166 0.950 . S
H2141 C2168 0.950 . S
H2142 C2171 0.950 . S
H2143 C2172 0.950 . S
H2144 C2174 0.950 . S
H2145 C2175 0.950 . S
C2146 H2128 0.951 . S
C2146 C2147 1.366 . S
C2146 C2148 1.388 . S
C2147 C2146 1.366 . S
C2147 C2151 1.385 . S
C2148 H2129 0.951 . S
C2148 C2146 1.388 . S
C2148 C2149 1.366 . S
C2149 C2148 1.366 . S
C2149 C2150 1.414 . S
C2149 C2152 1.499 . S
C2150 H2130 0.950 . S
C2150 C2149 1.414 . S
C2150 C2151 1.374 . S
C2151 H2131 0.950 . S
C2151 C2147 1.385 . S
C2151 C2150 1.374 . S
C2152 C2149 1.499 . S
C2152 C2153 1.373 . S
C2152 C2154 1.389 . S
C2153 H2132 0.950 . S
C2153 C2152 1.373 . S
C2153 C2169 1.377 . S
C2154 C2152 1.389 . S
C2154 C2155 1.524 . S
C2154 C2168 1.377 . S
C2155 C2154 1.524 . S
C2155 C2156 1.397 1_655 S
C2155 C2160 1.363 . S
C2156 H2133 0.950 . S
C2156 C2155 1.397 1_455 S
C2156 C2157 1.334 . S
C2157 H2134 0.950 . S
C2157 C2156 1.334 . S
C2157 C2158 1.287 . S
C2158 C2157 1.287 . S
C2158 C2159 1.586 . S
C2158 H2177 0.913 . S
C2159 H2135 0.942 1_455 S
C2159 C2158 1.586 . S
C2159 C2160 1.368 1_455 S
C2160 H2136 0.950 . S
C2160 C2155 1.363 . S
C2160 C2159 1.368 1_655 S
C2161 H2137 0.951 . S
C2161 C2162 1.366 . S
C2161 C2163 1.388 . S
C2162 C2161 1.366 . S
C2162 C2166 1.385 . S
C2163 H2138 0.951 . S
C2163 C2161 1.388 . S
C2163 C2164 1.366 . S
C2164 C2163 1.366 . S
C2164 C2165 1.414 . S
C2164 C2167 1.499 . S
C2165 H2139 0.950 . S
C2165 C2164 1.414 . S
C2165 C2166 1.374 . S
C2166 H2140 0.950 . S
C2166 C2162 1.385 . S
C2166 C2165 1.374 . S
C2167 C2164 1.499 . S
C2167 C2168 1.373 . S
C2167 C2169 1.389 . S
C2168 H2141 0.950 . S
C2168 C2154 1.377 . S
C2168 C2167 1.373 . S
C2169 C2153 1.377 . S
C2169 C2167 1.389 . S
C2169 C2170 1.524 . S
C2170 C2169 1.524 . S
C2170 C2171 1.397 . S
C2170 C2175 1.363 . S
C2171 H2142 0.950 . S
C2171 C2170 1.397 . S
C2171 C2172 1.334 . S
C2172 H2143 0.950 . S
C2172 C2171 1.334 . S
C2172 C2173 1.287 . S
C2173 C2172 1.287 . S
C2173 C2174 1.524 . S
C2173 H2176 0.999 . S
C2174 H2144 0.950 . S
C2174 C2173 1.524 . S
C2174 C2175 1.415 . S
C2175 H2145 0.950 . S
C2175 C2170 1.363 . S
C2175 C2174 1.415 . S
H2176 C2173 0.999 . S
H2177 C2158 0.913 . S
H2178 C2196 0.951 . S
H2179 C2198 0.951 . S
H2180 C2200 0.950 . S
H2181 C2201 0.950 . S
H2182 C2203 0.950 . S
H2183 C2206 0.950 . S
H2184 C2207 0.950 1_554 S
H2185 C2209 0.950 . S
H2186 C2210 0.950 . S
H2187 C2211 0.951 . S
H2188 C2213 0.951 . S
H2189 C2215 0.950 . S
H2190 C2216 0.950 . S
H2191 C2218 0.950 . S
H2192 C2221 0.950 . S
H2193 C2222 0.950 . S
H2194 C2224 0.950 . S
H2195 C2225 0.950 . S
C2196 H2178 0.951 . S
C2196 C2197 1.366 . S
C2196 C2198 1.388 . S
C2197 C2196 1.366 . S
C2197 C2201 1.385 . S
C2198 H2179 0.951 . S
C2198 C2196 1.388 . S
C2198 C2199 1.366 1_554 S
C2199 C2198 1.366 1_556 S
C2199 C2200 1.414 1_556 S
C2199 C2202 1.499 . S
C2200 H2180 0.950 . S
C2200 C2199 1.414 1_554 S
C2200 C2201 1.374 . S
C2201 H2181 0.950 . S
C2201 C2197 1.385 . S
C2201 C2200 1.374 . S
C2202 C2199 1.499 . S
C2202 C2203 1.373 . S
C2202 C2204 1.389 . S
C2203 H2182 0.950 . S
C2203 C2202 1.373 . S
C2203 C2219 1.377 . S
C2204 C2202 1.389 . S
C2204 C2205 1.524 . S
C2204 C2218 1.377 . S
C2205 C2204 1.524 . S
C2205 C2206 1.397 . S
C2205 C2210 1.363 . S
C2206 H2183 0.950 . S
C2206 C2205 1.397 . S
C2206 C2207 1.334 . S
C2207 H2184 0.950 1_556 S
C2207 C2206 1.334 . S
C2207 C2208 1.287 . S
C2208 C2207 1.287 . S
C2208 C2209 1.524 . S
C2208 H2227 0.913 . S
C2209 H2185 0.950 . S
C2209 C2208 1.524 . S
C2209 C2210 1.415 . S
C2210 H2186 0.950 . S
C2210 C2205 1.363 . S
C2210 C2209 1.415 . S
C2211 H2187 0.951 . S
C2211 C2212 1.366 . S
C2211 C2213 1.388 . S
C2212 C2211 1.366 . S
C2212 C2216 1.385 . S
C2213 H2188 0.951 . S
C2213 C2211 1.388 . S
C2213 C2214 1.366 . S
C2214 C2213 1.366 . S
C2214 C2215 1.414 . S
C2214 C2217 1.499 . S
C2215 H2189 0.950 . S
C2215 C2214 1.414 . S
C2215 C2216 1.374 . S
C2216 H2190 0.950 . S
C2216 C2212 1.385 . S
C2216 C2215 1.374 . S
C2217 C2214 1.499 . S
C2217 C2218 1.373 . S
C2217 C2219 1.389 . S
C2218 H2191 0.950 . S
C2218 C2204 1.377 . S
C2218 C2217 1.373 . S
C2219 C2203 1.377 . S
C2219 C2217 1.389 . S
C2219 C2220 1.524 1_565 S
C2220 C2219 1.524 1_545 S
C2220 C2221 1.397 . S
C2220 C2225 1.363 . S
C2221 H2192 0.950 . S
C2221 C2220 1.397 . S
C2221 C2222 1.334 . S
C2222 H2193 0.950 . S
C2222 C2221 1.334 . S
C2222 C2223 1.287 . S
C2223 C2222 1.287 . S
C2223 C2224 1.524 . S
C2223 H2226 0.999 . S
C2224 H2194 0.950 . S
C2224 C2223 1.524 . S
C2224 C2225 1.415 . S
C2225 H2195 0.950 . S
C2225 C2220 1.363 . S
C2225 C2224 1.415 . S
H2226 C2223 0.999 . S
H2227 C2208 0.913 . S
H2228 C2246 0.951 . S
H2229 C2248 0.951 . S
H2230 C2250 0.950 . S
H2231 C2251 0.950 . S
H2232 C2253 0.950 . S
H2233 C2256 0.950 . S
H2234 C2257 0.950 . S
H2235 C2259 0.950 . S
H2236 C2260 0.950 . S
H2237 C2261 0.951 . S
H2238 C2263 0.951 . S
H2239 C2265 0.950 . S
H2240 C2266 0.950 . S
H2241 C2268 0.950 . S
H2242 C2271 0.950 . S
H2243 C2272 0.950 . S
H2244 C2274 0.950 . S
H2245 C2275 0.950 . S
C2246 H2228 0.951 . S
C2246 C2247 1.366 . S
C2246 C2248 1.388 . S
C2247 C2246 1.366 . S
C2247 C2251 1.385 . S
C2248 H2229 0.951 . S
C2248 C2246 1.388 . S
C2248 C2249 1.366 . S
C2249 C2248 1.366 . S
C2249 C2250 1.414 . S
C2249 C2252 1.499 . S
C2250 H2230 0.950 . S
C2250 C2249 1.414 . S
C2250 C2251 1.374 . S
C2251 H2231 0.950 . S
C2251 C2247 1.385 . S
C2251 C2250 1.374 . S
C2252 C2249 1.499 . S
C2252 C2253 1.373 . S
C2252 C2254 1.389 . S
C2253 H2232 0.950 . S
C2253 C2252 1.373 . S
C2253 C2269 1.377 . S
C2254 C2252 1.389 . S
C2254 C2255 1.524 . S
C2254 C2268 1.377 . S
C2255 C2254 1.524 . S
C2255 C2256 1.397 . S
C2255 C2260 1.363 . S
C2256 H2233 0.950 . S
C2256 C2255 1.397 . S
C2256 C2257 1.334 . S
C2257 H2234 0.950 . S
C2257 C2256 1.334 . S
C2257 C2258 1.287 . S
C2258 C2257 1.287 . S
C2258 C2259 1.524 . S
C2258 H2277 0.913 . S
C2259 H2235 0.950 . S
C2259 C2258 1.524 . S
C2259 C2260 1.415 . S
C2260 H2236 0.950 . S
C2260 C2255 1.363 . S
C2260 C2259 1.415 . S
C2261 H2237 0.951 . S
C2261 C2262 1.366 . S
C2261 C2263 1.388 . S
C2262 C2261 1.366 . S
C2262 C2266 1.385 . S
C2263 H2238 0.951 . S
C2263 C2261 1.388 . S
C2263 C2264 1.366 . S
C2264 C2263 1.366 . S
C2264 C2265 1.414 . S
C2264 C2267 1.499 . S
C2265 H2239 0.950 . S
C2265 C2264 1.414 . S
C2265 C2266 1.374 . S
C2266 H2240 0.950 . S
C2266 C2262 1.385 . S
C2266 C2265 1.374 . S
C2267 C2264 1.499 . S
C2267 C2268 1.373 . S
C2267 C2269 1.389 . S
C2268 H2241 0.950 . S
C2268 C2254 1.377 . S
C2268 C2267 1.373 . S
C2269 C2253 1.377 . S
C2269 C2267 1.389 . S
C2269 C2270 1.524 . S
C2270 C2269 1.524 . S
C2270 C2271 1.397 . S
C2270 C2275 1.363 . S
C2271 H2242 0.950 . S
C2271 C2270 1.397 . S
C2271 C2272 1.334 . S
C2272 H2243 0.950 . S
C2272 C2271 1.334 . S
C2272 C2273 1.287 . S
C2273 C2272 1.287 . S
C2273 C2274 1.524 . S
C2273 H2276 0.999 . S
C2274 H2244 0.950 . S
C2274 C2273 1.524 . S
C2274 C2275 1.415 . S
C2275 H2245 0.950 . S
C2275 C2270 1.363 . S
C2275 C2274 1.415 . S
H2276 C2273 0.999 . S
H2277 C2258 0.913 . S
H2278 C2296 0.951 . S
H2279 C2298 0.951 1_556 S
H2280 C2300 0.950 . S
H2281 C2301 0.950 . S
H2282 C2303 0.950 . S
H2283 C2306 0.950 . S
H2284 C2307 0.950 1_554 S
H2285 C2309 0.950 . S
H2286 C2310 0.950 . S
H2287 C2311 0.951 . S
H2288 C2313 0.951 . S
H2289 C2315 0.950 . S
H2290 C2316 0.950 . S
H2291 C2318 0.950 . S
H2292 C2321 0.950 . S
H2293 C2322 0.950 . S
H2294 C2324 0.950 . S
H2295 C2325 0.950 . S
C2296 H2278 0.951 . S
C2296 C2297 1.366 . S
C2296 C2298 1.388 . S
C2297 C2296 1.366 . S
C2297 C2301 1.385 . S
C2298 H2279 0.951 1_554 S
C2298 C2296 1.388 . S
C2298 C2299 1.366 1_554 S
C2299 C2298 1.366 1_556 S
C2299 C2300 1.414 1_556 S
C2299 C2302 1.499 . S
C2300 H2280 0.950 . S
C2300 C2299 1.414 1_554 S
C2300 C2301 1.374 . S
C2301 H2281 0.950 . S
C2301 C2297 1.385 . S
C2301 C2300 1.374 . S
C2302 C2299 1.499 . S
C2302 C2303 1.373 . S
C2302 C2304 1.389 . S
C2303 H2282 0.950 . S
C2303 C2302 1.373 . S
C2303 C2319 1.377 . S
C2304 C2302 1.389 . S
C2304 C2305 1.524 . S
C2304 C2318 1.377 . S
C2305 C2304 1.524 . S
C2305 C2306 1.397 . S
C2305 C2310 1.363 . S
C2306 H2283 0.950 . S
C2306 C2305 1.397 . S
C2306 C2307 1.334 . S
C2307 H2284 0.950 1_556 S
C2307 C2306 1.334 . S
C2307 C2308 1.287 . S
C2308 C2307 1.287 . S
C2308 C2309 1.524 . S
C2308 H2327 0.913 . S
C2309 H2285 0.950 . S
C2309 C2308 1.524 . S
C2309 C2310 1.415 . S
C2310 H2286 0.950 . S
C2310 C2305 1.363 . S
C2310 C2309 1.415 . S
C2311 H2287 0.951 . S
C2311 C2312 1.366 . S
C2311 C2313 1.388 . S
C2312 C2311 1.366 . S
C2312 C2316 1.385 . S
C2313 H2288 0.951 . S
C2313 C2311 1.388 . S
C2313 C2314 1.366 . S
C2314 C2313 1.366 . S
C2314 C2315 1.414 . S
C2314 C2317 1.499 . S
C2315 H2289 0.950 . S
C2315 C2314 1.414 . S
C2315 C2316 1.374 . S
C2316 H2290 0.950 . S
C2316 C2312 1.385 . S
C2316 C2315 1.374 . S
C2317 C2314 1.499 . S
C2317 C2318 1.373 . S
C2317 C2319 1.389 . S
C2318 H2291 0.950 . S
C2318 C2304 1.377 . S
C2318 C2317 1.373 . S
C2319 C2303 1.377 . S
C2319 C2317 1.389 . S
C2319 C2320 1.524 . S
C2320 C2319 1.524 . S
C2320 C2321 1.397 . S
C2320 C2325 1.363 . S
C2321 H2292 0.950 . S
C2321 C2320 1.397 . S
C2321 C2322 1.334 . S
C2322 H2293 0.950 . S
C2322 C2321 1.334 . S
C2322 C2323 1.287 . S
C2323 C2322 1.287 . S
C2323 C2324 1.524 . S
C2323 H2326 0.999 . S
C2324 H2294 0.950 . S
C2324 C2323 1.524 . S
C2324 C2325 1.415 . S
C2325 H2295 0.950 . S
C2325 C2320 1.363 . S
C2325 C2324 1.415 . S
H2326 C2323 0.999 . S
H2327 C2308 0.913 . S
H2328 C2346 1.018 . S
H2329 C2348 0.951 . S
H2330 C2350 0.950 . S
H2331 C2351 0.950 . S
H2332 C2353 0.950 . S
H2333 C2356 0.950 . S
H2334 C2357 0.950 . S
H2335 C2359 0.950 1_455 S
H2336 C2360 0.935 1_455 S
H2337 C2361 0.951 . S
H2338 C2363 0.951 . S
H2339 C2365 0.950 . S
H2340 C2366 0.950 . S
H2341 C2368 0.950 . S
H2342 C2371 0.950 . S
H2343 C2372 0.950 1_556 S
H2344 C2374 0.950 . S
H2345 C2375 0.950 . S
C2346 H2328 1.018 . S
C2346 C2347 1.366 . S
C2346 C2348 1.388 . S
C2347 C2346 1.366 . S
C2347 C2351 1.385 . S
C2348 H2329 0.951 . S
C2348 C2346 1.388 . S
C2348 C2349 1.366 . S
C2349 C2348 1.366 . S
C2349 C2350 1.414 . S
C2349 C2352 1.499 . S
C2350 H2330 0.950 . S
C2350 C2349 1.414 . S
C2350 C2351 1.374 . S
C2351 H2331 0.950 . S
C2351 C2347 1.385 . S
C2351 C2350 1.374 . S
C2352 C2349 1.499 . S
C2352 C2353 1.373 . S
C2352 C2354 1.389 . S
C2353 H2332 0.950 . S
C2353 C2352 1.373 . S
C2353 C2369 1.377 . S
C2354 C2352 1.389 . S
C2354 C2355 1.524 . S
C2354 C2368 1.377 . S
C2355 C2354 1.524 . S
C2355 C2356 1.397 . S
C2355 C2360 1.363 . S
C2356 H2333 0.950 . S
C2356 C2355 1.397 . S
C2356 C2357 1.334 . S
C2357 H2334 0.950 . S
C2357 C2356 1.334 . S
C2357 C2358 1.287 . S
C2358 C2357 1.287 . S
C2358 C2359 1.524 . S
C2358 H2377 0.913 . S
C2359 H2335 0.950 1_655 S
C2359 C2358 1.524 . S
C2359 C2360 1.415 . S
C2360 H2336 0.935 1_655 S
C2360 C2355 1.363 . S
C2360 C2359 1.415 . S
C2361 H2337 0.951 . S
C2361 C2362 1.366 . S
C2361 C2363 1.388 . S
C2362 C2361 1.366 . S
C2362 C2366 1.385 . S
C2363 H2338 0.951 . S
C2363 C2361 1.388 . S
C2363 C2364 1.366 1_556 S
C2364 C2363 1.366 1_554 S
C2364 C2365 1.414 1_554 S
C2364 C2367 1.499 . S
C2365 H2339 0.950 . S
C2365 C2364 1.414 1_556 S
C2365 C2366 1.374 . S
C2366 H2340 0.950 . S
C2366 C2362 1.385 . S
C2366 C2365 1.374 . S
C2367 C2364 1.499 . S
C2367 C2368 1.373 . S
C2367 C2369 1.389 . S
C2368 H2341 0.950 . S
C2368 C2354 1.377 . S
C2368 C2367 1.373 . S
C2369 C2353 1.377 . S
C2369 C2367 1.389 . S
C2369 C2370 1.524 . S
C2370 C2369 1.524 . S
C2370 C2371 1.397 . S
C2370 C2375 1.363 . S
C2371 H2342 0.950 . S
C2371 C2370 1.397 . S
C2371 C2372 1.334 . S
C2372 H2343 0.950 1_554 S
C2372 C2371 1.334 . S
C2372 C2373 1.287 . S
C2373 C2372 1.287 . S
C2373 C2374 1.524 . S
C2373 H2376 0.999 . S
C2374 H2344 0.950 . S
C2374 C2373 1.524 . S
C2374 C2375 1.415 . S
C2375 H2345 0.950 . S
C2375 C2370 1.363 . S
C2375 C2374 1.415 . S
H2376 C2373 0.999 . S
H2377 C2358 0.913 . S
H2378 C2396 0.951 . S
H2379 C2398 0.951 . S
H2380 C2400 0.950 . S
H2381 C2401 0.950 . S
H2382 C2403 0.950 . S
H2383 C2406 0.950 1_565 S
H2384 C2407 0.950 . S
H2385 C2409 0.950 . S
H2386 C2410 0.950 . S
H2387 C2411 0.951 . S
H2388 C2413 0.951 . S
H2389 C2415 0.950 . S
H2390 C2416 0.950 . S
H2391 C2418 1.011 . S
H2392 C2421 0.950 . S
H2393 C2422 0.950 . S
H2394 C2424 0.950 . S
H2395 C2425 0.950 . S
C2396 H2378 0.951 . S
C2396 C2397 1.366 . S
C2396 C2398 1.388 . S
C2397 C2396 1.366 . S
C2397 C2401 1.385 . S
C2398 H2379 0.951 . S
C2398 C2396 1.388 . S
C2398 C2399 1.366 . S
C2399 C2398 1.366 . S
C2399 C2400 1.414 . S
C2399 C2402 1.499 . S
C2400 H2380 0.950 . S
C2400 C2399 1.414 . S
C2400 C2401 1.374 . S
C2401 H2381 0.950 . S
C2401 C2397 1.385 . S
C2401 C2400 1.374 . S
C2402 C2399 1.499 . S
C2402 C2403 1.373 . S
C2402 C2404 1.389 . S
C2403 H2382 0.950 . S
C2403 C2402 1.373 . S
C2403 C2419 1.377 . S
C2404 C2402 1.389 . S
C2404 C2405 1.524 1_565 S
C2404 C2418 1.377 . S
C2405 C2404 1.524 1_545 S
C2405 C2406 1.397 . S
C2405 C2410 1.363 . S
C2406 H2383 0.950 1_545 S
C2406 C2405 1.397 . S
C2406 C2407 1.334 . S
C2407 H2384 0.950 . S
C2407 C2406 1.334 . S
C2407 C2408 1.287 . S
C2408 C2407 1.287 . S
C2408 C2409 1.524 . S
C2408 H2427 0.913 . S
C2409 H2385 0.950 . S
C2409 C2408 1.524 . S
C2409 C2410 1.415 . S
C2410 H2386 0.950 . S
C2410 C2405 1.363 . S
C2410 C2409 1.415 . S
C2411 H2387 0.951 . S
C2411 C2412 1.366 . S
C2411 C2413 1.388 . S
C2412 C2411 1.366 . S
C2412 C2416 1.385 . S
C2413 H2388 0.951 . S
C2413 C2411 1.388 . S
C2413 C2414 1.366 . S
C2414 C2413 1.366 . S
C2414 C2415 1.414 . S
C2414 C2417 1.499 . S
C2415 H2389 0.950 . S
C2415 C2414 1.414 . S
C2415 C2416 1.374 . S
C2416 H2390 0.950 . S
C2416 C2412 1.385 . S
C2416 C2415 1.374 . S
C2417 C2414 1.499 . S
C2417 C2418 1.373 . S
C2417 C2419 1.389 . S
C2418 H2391 1.011 . S
C2418 C2404 1.377 . S
C2418 C2417 1.373 . S
C2419 C2403 1.377 . S
C2419 C2417 1.389 . S
C2419 C2420 1.524 . S
C2420 C2419 1.524 . S
C2420 C2421 1.397 . S
C2420 C2425 1.363 . S
C2421 H2392 0.950 . S
C2421 C2420 1.397 . S
C2421 C2422 1.334 . S
C2422 H2393 0.950 . S
C2422 C2421 1.334 . S
C2422 C2423 1.287 . S
C2423 C2422 1.287 . S
C2423 C2424 1.524 . S
C2423 H2426 0.999 . S
C2424 H2394 0.950 . S
C2424 C2423 1.524 . S
C2424 C2425 1.415 . S
C2425 H2395 0.950 . S
C2425 C2420 1.363 . S
C2425 C2424 1.415 . S
H2426 C2423 0.999 . S
H2427 C2408 0.913 . S
H2428 C2446 0.951 . S
H2429 C2448 0.951 . S
H2430 C2450 0.950 . S
H2431 C2451 0.950 . S
H2432 C2453 0.950 . S
H2433 C2456 0.950 . S
H2434 C2457 0.950 1_556 S
H2435 C2459 0.950 . S
H2436 C2460 0.950 . S
H2437 C2461 0.951 . S
H2438 C2463 0.951 . S
H2439 C2465 0.950 . S
H2440 C2466 0.950 . S
H2441 C2468 0.950 . S
H2442 C2471 0.950 . S
H2443 C2472 0.950 . S
H2444 C2474 0.950 . S
H2445 C2475 0.950 . S
C2446 H2428 0.951 . S
C2446 C2447 1.366 . S
C2446 C2448 1.388 . S
C2447 C2446 1.366 . S
C2447 C2451 1.385 . S
C2448 H2429 0.951 . S
C2448 C2446 1.388 . S
C2448 C2449 1.366 1_556 S
C2449 C2448 1.366 1_554 S
C2449 C2450 1.414 1_554 S
C2449 C2452 1.499 . S
C2450 H2430 0.950 . S
C2450 C2449 1.414 1_556 S
C2450 C2451 1.374 . S
C2451 H2431 0.950 . S
C2451 C2447 1.385 . S
C2451 C2450 1.374 . S
C2452 C2449 1.499 . S
C2452 C2453 1.373 . S
C2452 C2454 1.389 . S
C2453 H2432 0.950 . S
C2453 C2452 1.373 . S
C2453 C2469 1.377 . S
C2454 C2452 1.389 . S
C2454 C2455 1.524 . S
C2454 C2468 1.377 . S
C2455 C2454 1.524 . S
C2455 C2456 1.397 . S
C2455 C2460 1.363 . S
C2456 H2433 0.950 . S
C2456 C2455 1.397 . S
C2456 C2457 1.334 . S
C2457 H2434 0.950 1_554 S
C2457 C2456 1.334 . S
C2457 C2458 1.287 . S
C2458 C2457 1.287 . S
C2458 C2459 1.524 . S
C2458 H2477 0.913 . S
C2459 H2435 0.950 . S
C2459 C2458 1.524 . S
C2459 C2460 1.415 . S
C2460 H2436 0.950 . S
C2460 C2455 1.363 . S
C2460 C2459 1.415 . S
C2461 H2437 0.951 . S
C2461 C2462 1.366 . S
C2461 C2463 1.388 . S
C2462 C2461 1.366 . S
C2462 C2466 1.385 . S
C2463 H2438 0.951 . S
C2463 C2461 1.388 . S
C2463 C2464 1.366 . S
C2464 C2463 1.366 . S
C2464 C2465 1.414 . S
C2464 C2467 1.499 . S
C2465 H2439 0.950 . S
C2465 C2464 1.414 . S
C2465 C2466 1.374 . S
C2466 H2440 0.950 . S
C2466 C2462 1.385 . S
C2466 C2465 1.374 . S
C2467 C2464 1.499 . S
C2467 C2468 1.373 . S
C2467 C2469 1.389 . S
C2468 H2441 0.950 . S
C2468 C2454 1.377 . S
C2468 C2467 1.373 . S
C2469 C2453 1.377 . S
C2469 C2467 1.389 . S
C2469 C2470 1.524 . S
C2470 C2469 1.524 . S
C2470 C2471 1.397 . S
C2470 C2475 1.363 . S
C2471 H2442 0.950 . S
C2471 C2470 1.397 . S
C2471 C2472 1.334 . S
C2472 H2443 0.950 . S
C2472 C2471 1.334 . S
C2472 C2473 1.287 . S
C2473 C2472 1.287 . S
C2473 C2474 1.524 . S
C2473 H2476 0.999 . S
C2474 H2444 0.950 . S
C2474 C2473 1.524 . S
C2474 C2475 1.415 . S
C2475 H2445 0.950 . S
C2475 C2470 1.363 . S
C2475 C2474 1.415 . S
H2476 C2473 0.999 . S
H2477 C2458 0.913 . S
H2478 C2496 0.951 . S
H2479 C2498 0.951 . S
H2480 C2500 0.950 . S
H2481 C2501 0.950 . S
H2482 C2503 0.950 . S
H2483 C2506 0.950 . S
H2484 C2507 0.950 . S
H2485 C2509 0.950 . S
H2486 C2510 0.950 . S
H2487 C2511 0.951 . S
H2488 C2513 0.951 . S
H2489 C2515 0.950 . S
H2490 C2516 0.950 . S
H2491 C2518 0.950 . S
H2492 C2521 0.950 . S
H2493 C2522 0.950 . S
H2494 C2524 0.950 . S
H2495 C2525 0.950 . S
C2496 H2478 0.951 . S
C2496 C2497 1.366 . S
C2496 C2498 1.388 . S
C2497 C2496 1.366 . S
C2497 C2501 1.385 . S
C2498 H2479 0.951 . S
C2498 C2496 1.388 . S
C2498 C2499 1.366 . S
C2499 C2498 1.366 . S
C2499 C2500 1.414 . S
C2499 C2502 1.499 . S
C2500 H2480 0.950 . S
C2500 C2499 1.414 . S
C2500 C2501 1.374 . S
C2501 H2481 0.950 . S
C2501 C2497 1.385 . S
C2501 C2500 1.374 . S
C2502 C2499 1.499 . S
C2502 C2503 1.373 . S
C2502 C2504 1.389 . S
C2503 H2482 0.950 . S
C2503 C2502 1.373 . S
C2503 C2519 1.377 . S
C2504 C2502 1.389 . S
C2504 C2505 1.524 . S
C2504 C2518 1.377 . S
C2505 C2504 1.524 . S
C2505 C2506 1.397 . S
C2505 C2510 1.363 . S
C2506 H2483 0.950 . S
C2506 C2505 1.397 . S
C2506 C2507 1.334 . S
C2507 H2484 0.950 . S
C2507 C2506 1.334 . S
C2507 C2508 1.287 . S
C2508 C2507 1.287 . S
C2508 C2509 1.524 . S
C2508 H2527 0.913 . S
C2509 H2485 0.950 . S
C2509 C2508 1.524 . S
C2509 C2510 1.415 . S
C2510 H2486 0.950 . S
C2510 C2505 1.363 . S
C2510 C2509 1.415 . S
C2511 H2487 0.951 . S
C2511 C2512 1.366 . S
C2511 C2513 1.388 . S
C2512 C2511 1.366 . S
C2512 C2516 1.385 . S
C2513 H2488 0.951 . S
C2513 C2511 1.388 . S
C2513 C2514 1.366 . S
C2514 C2513 1.366 . S
C2514 C2515 1.414 . S
C2514 C2517 1.499 . S
C2515 H2489 0.950 . S
C2515 C2514 1.414 . S
C2515 C2516 1.374 . S
C2516 H2490 0.950 . S
C2516 C2512 1.385 . S
C2516 C2515 1.374 . S
C2517 C2514 1.499 . S
C2517 C2518 1.373 . S
C2517 C2519 1.389 . S
C2518 H2491 0.950 . S
C2518 C2504 1.377 . S
C2518 C2517 1.373 . S
C2519 C2503 1.377 . S
C2519 C2517 1.389 . S
C2519 C2520 1.524 . S
C2520 C2519 1.524 . S
C2520 C2521 1.397 . S
C2520 C2525 1.363 . S
C2521 H2492 0.950 . S
C2521 C2520 1.397 . S
C2521 C2522 1.334 . S
C2522 H2493 0.950 . S
C2522 C2521 1.334 . S
C2522 C2523 1.287 . S
C2523 C2522 1.287 . S
C2523 C2524 1.524 . S
C2523 H2526 0.999 . S
C2524 H2494 0.950 . S
C2524 C2523 1.524 . S
C2524 C2525 1.415 . S
C2525 H2495 0.950 . S
C2525 C2520 1.363 . S
C2525 C2524 1.415 . S
H2526 C2523 0.999 . S
H2527 C2508 0.913 . S
C547 C17 1.486 . S
C562 C512 1.487 . S
C597 C50 1.487 . S
C612 C413 1.486 . S
C647 C446 1.486 . S
C662 C83 1.487 . S
C697 C116 1.486 . S
C712 C479 1.486 . S
C747 C314 1.486 . S
C762 C149 1.486 . S
C797 C347 1.486 . S
C812 C182 1.486 . S
C847 C380 1.486 . S
C862 C215 1.486 . S
C897 C281 1.486 . S
C912 C248 1.486 . S
C947 C8 1.274 . S
C962 C239 1.274 . S
C997 C41 1.274 . S
C1012 C140 1.274 . S
C1047 C74 1.274 . S
C1062 C173 1.273 . S
C1097 C107 1.274 . S
C1112 C206 1.274 . S
C1147 C503 1.274 . S
C1162 C272 1.274 . S
C1197 C404 1.274 . S
C1212 C305 1.274 . S
C1247 C437 1.274 . S
C1262 C338 1.274 . S
C1297 C371 1.274 . S
C1312 C470 1.273 . S
C1347 C28 0.883 . S
C1362 C160 0.883 . S
C1397 C193 0.884 . S
C1412 C61 0.883 . S
C1447 C226 0.883 . S
C1462 C94 0.883 . S
C1497 C127 0.883 . S
C1512 C259 0.883 . S
C1547 C424 0.883 . S
C1562 C292 0.883 . S
C1597 C325 0.883 . S
C1612 C457 0.883 . S
C1647 C358 0.883 . S
C1662 C490 0.883 . S
C1697 C523 0.883 . S
C1712 C391 0.883 . S
C1747 N14 1.332 . S
C1762 N5 1.337 . S
C1797 N38 1.337 . S
C1812 N47 1.332 . S
C1847 N80 1.332 . S
C1862 N71 1.337 . S
C1897 N104 1.336 . S
C1912 N113 1.332 . S
C1947 N146 1.332 . S
C1962 N137 1.336 . S
C1997 N179 1.332 . S
C2012 N170 1.337 . S
C2047 N212 1.332 . S
C2062 N203 1.337 . S
C2097 N245 1.332 . S
C2112 N236 1.337 . S
C2147 N269 1.336 . S
C2162 N278 1.332 . S
C2197 N302 1.337 . S
C2212 N311 1.332 . S
C2247 N335 1.336 . S
C2262 N344 1.332 . S
C2297 N368 1.336 . S
C2312 N377 1.332 . S
C2347 N410 1.332 . S
C2362 N401 1.336 . S
C2397 N443 1.332 . S
C2412 N434 1.337 . S
C2447 N467 1.336 . S
C2462 N476 1.332 . S
C2497 N500 1.336 . S
C2512 N509 1.332 . S
