# Generated by pormake.
# Topology fne, (5)-cn, num edge types: 1
# Building blocks:
#     Node 0, Type 0, BuildingBlock: XOMCOT_clean_sbu_0, # of connection points: 5
#     Node 1, Type 0, BuildingBlock: XOMCOT_clean_sbu_0, # of connection points: 5
#     Node 2, Type 0, BuildingBlock: XOMCOT_clean_sbu_0, # of connection points: 5
#     Node 3, Type 0, BuildingBlock: XOMCOT_clean_sbu_0, # of connection points: 5
#     Node 4, Type 0, BuildingBlock: XOMCOT_clean_sbu_0, # of connection points: 5
#     Node 5, Type 0, BuildingBlock: XOMCOT_clean_sbu_0, # of connection points: 5
#     Edge 6, Type (0, 0), BuildingBlock: CIFDUS_clean_linker_0, # of connection points: 2
#     Edge 7, Type (0, 0), BuildingBlock: CIFDUS_clean_linker_0, # of connection points: 2
#     Edge 8, Type (0, 0), BuildingBlock: CIFDUS_clean_linker_0, # of connection points: 2
#     Edge 9, Type (0, 0), BuildingBlock: CIFDUS_clean_linker_0, # of connection points: 2
#     Edge 10, Type (0, 0), BuildingBlock: CIFDUS_clean_linker_0, # of connection points: 2
#     Edge 11, Type (0, 0), BuildingBlock: CIFDUS_clean_linker_0, # of connection points: 2
#     Edge 12, Type (0, 0), BuildingBlock: CIFDUS_clean_linker_0, # of connection points: 2
#     Edge 13, Type (0, 0), BuildingBlock: CIFDUS_clean_linker_0, # of connection points: 2
#     Edge 14, Type (0, 0), BuildingBlock: CIFDUS_clean_linker_0, # of connection points: 2
#     Edge 15, Type (0, 0), BuildingBlock: CIFDUS_clean_linker_0, # of connection points: 2
#     Edge 16, Type (0, 0), BuildingBlock: CIFDUS_clean_linker_0, # of connection points: 2
#     Edge 17, Type (0, 0), BuildingBlock: CIFDUS_clean_linker_0, # of connection points: 2
#     Edge 18, Type (0, 0), BuildingBlock: CIFDUS_clean_linker_0, # of connection points: 2
#     Edge 19, Type (0, 0), BuildingBlock: CIFDUS_clean_linker_0, # of connection points: 2
#     Edge 20, Type (0, 0), BuildingBlock: CIFDUS_clean_linker_0, # of connection points: 2
# Relax obj value: 0.068
# Max RMSD: 0.099
# Mean RMSD: 0.099
data_MOF--net-fne--node1-XOMCOT_clean_sbu_0--edge1-CIFDUS_clean_linker_0
_symmetry_space_group_name_H-M    P1
_symmetry_Int_Tables_number       1
_symmetry_cell_setting            triclinic
loop_
_symmetry_equiv_pos_as_xyz
'x, y, z'
_cell_length_a     40.668305
_cell_length_b     40.68015
_cell_length_c     15.543417
_cell_angle_alpha  89.815331
_cell_angle_beta   89.950182
_cell_angle_gamma 120.1007
loop_
_atom_site_label
_atom_site_type_symbol
_atom_site_fract_x
_atom_site_fract_y
_atom_site_fract_z
_atom_type_partial_charge
Co0 Co 0.38413 0.09261 0.07678 0.0
C1 C 0.38083 0.0816 0.26889 0.0
C2 C 0.32811 0.04394 0.20746 0.0
C3 C 0.32304 0.03881 0.29493 0.0
N4 N 0.36473 0.06984 0.19019 0.0
N5 N 0.35616 0.06258 0.33373 0.0
H6 H 0.40921 0.10493 0.27939 0.0
H7 H 0.30576 0.03109 0.16012 0.0
C8 C 0.33853 1.00968 0.037 0.0
O9 O 0.35732 1.00433 0.09907 0.0
N10 N 0.40256 0.11566 0.96453 0.0
C11 C 0.43748 0.14511 0.94755 0.0
C12 C 0.44143 0.15093 0.85997 0.0
C13 C 0.38572 0.10384 0.88687 0.0
N14 N 0.40895 0.12491 0.82159 0.0
C15 C 0.45188 0.09436 0.13607 0.0
C16 C 0.45798 0.05282 1.00299 0.0
C17 C 0.48711 0.06896 0.0641 0.0
C18 C 0.48368 0.08984 0.13139 0.0
C19 C 0.42685 0.05854 1.00935 0.0
N20 N 0.42341 0.07822 0.07678 0.0
H21 H 0.45151 0.11281 0.18481 0.0
H22 H 0.4063 0.04833 0.9579 0.0
H23 H 0.45915 0.16042 0.99532 0.0
H24 H 0.35734 0.08 0.87815 0.0
O25 O 0.41302 0.14166 0.13016 0.0
O26 O 0.35364 0.11716 0.08568 0.0
O27 O 0.34569 0.04338 0.01907 0.0
C28 C 0.38306 0.14508 0.12311 0.0
H29 H 0.29639 1.02062 0.3276 0.0
H30 H 0.46693 0.17176 0.82702 0.0
H31 H 0.46007 0.0374 0.94856 0.0
H32 H 0.50583 0.1033 0.17923 0.0
Co33 Co 0.30866 0.34718 0.38775 0.0
C34 C 0.31399 0.34268 0.58004 0.0
C35 C 0.30583 0.29235 0.5178 0.0
C36 C 0.30536 0.28705 0.60534 0.0
N37 N 0.31265 0.32783 0.50099 0.0
N38 N 0.31046 0.31871 0.64473 0.0
H39 H 0.31549 0.3696 0.59067 0.0
H40 H 0.29914 0.27059 0.47033 0.0
C41 C 0.34661 0.30274 0.33857 0.0
O42 O 0.37279 0.32191 0.39657 0.0
N43 N 0.3033 0.36544 0.27579 0.0
C44 C 0.3083 0.40011 0.25845 0.0
C45 C 0.30573 0.4036 0.17084 0.0
C46 C 0.29777 0.34829 0.19835 0.0
N47 N 0.29931 0.3711 0.13287 0.0
C48 C 0.37615 0.41245 0.45207 0.0
C49 C 0.42193 0.42282 0.31115 0.0
C50 C 0.4364 0.44877 0.37896 0.0
C51 C 0.4132 0.44331 0.4501 0.0
C52 C 0.38474 0.39195 0.31618 0.0
N53 N 0.36244 0.38652 0.38697 0.0
H54 H 0.35807 0.41069 0.50427 0.0
H55 H 0.37358 0.37297 0.26194 0.0
H56 H 0.31478 0.4219 0.3059 0.0
H57 H 0.29334 0.31998 0.18979 0.0
O58 O 0.28835 0.37567 0.4428 0.0
O59 O 0.2538 0.31629 0.39764 0.0
O60 O 0.31913 0.30914 0.32793 0.0
C61 C 0.25506 0.34536 0.43602 0.0
H62 H 0.29952 0.26102 0.63745 0.0
H63 H 0.30991 0.42881 0.13749 0.0
H64 H 0.43895 0.42675 0.25427 0.0
H65 H 0.42321 0.46355 0.50245 0.0
Co66 Co 1.01607 0.32584 0.76149 0.0
C67 C 1.02761 0.33379 0.95314 0.0
C68 C 0.062 0.31456 0.89181 0.0
C69 C 0.06699 0.31446 0.97924 0.0
N70 N 0.03828 0.32791 0.87452 0.0
N71 N 0.04526 0.32642 0.01798 0.0
H72 H 1.00595 0.34124 0.9636 0.0
H73 H 0.07338 0.3035 0.84446 0.0
C74 C 0.09873 0.35946 0.72168 0.0
O75 O 0.10525 0.38314 0.78536 0.0
N76 N 0.99347 0.32254 0.64964 0.0
C77 C 0.96529 0.3299 0.63321 0.0
C78 C 0.95962 0.32856 0.54571 0.0
C79 C 1.00467 0.3169 0.57173 0.0
N80 N 0.98446 0.32052 0.50679 0.0
C81 C 1.01873 0.39444 0.82027 0.0
C82 C 0.0654 0.44136 0.69064 0.0
C83 C 0.05195 0.45659 0.75278 0.0
C84 C 1.02788 0.43251 0.81754 0.0
C85 C 0.05487 0.40297 0.69466 0.0
N86 N 1.03329 0.38028 0.76131 0.0
H87 H 0.99863 0.3761 0.86788 0.0
H88 H 0.06352 0.39141 0.64272 0.0
H89 H 0.95083 0.33721 0.68132 0.0
H90 H 1.0275 0.31089 0.56259 0.0
O91 O 0.96713 0.30718 0.81601 0.0
O92 O 0.98954 0.27074 0.77007 0.0
O93 O 0.0645 0.33446 0.70298 0.0
C94 C 0.96238 0.27324 0.80853 0.0
H95 H 0.08358 0.30418 0.012 0.0
H96 H 0.93976 0.33466 0.51318 0.0
H97 H 0.08297 0.45871 0.63775 0.0
H98 H 1.0161 0.44299 0.86552 0.0
Co99 Co 0.75601 0.99438 0.06267 0.0
C100 C 0.75435 1.00178 0.24909 0.0
C101 C 0.80918 0.04051 0.197 0.0
C102 C 0.81228 0.04003 0.28499 0.0
N103 N 0.77264 1.01682 0.17457 0.0
N104 N 0.77781 1.01512 0.31693 0.0
H105 H 0.72555 0.9786 0.25364 0.0
H106 H 0.83274 0.05404 0.15245 0.0
C107 C 0.803 0.07823 0.02307 0.0
O108 O 0.78477 0.08481 0.08435 0.0
N109 N 0.7407 0.97194 0.95181 0.0
C110 C 0.70535 0.94768 0.92377 0.0
C111 C 0.7067 0.94553 0.83548 0.0
C112 C 0.76306 0.98338 0.88203 0.0
N113 N 0.743 0.96849 0.80988 0.0
C114 C 0.6851 0.98805 0.11224 0.0
C115 C 0.68326 0.03609 0.98877 0.0
C116 C 0.6524 1.01722 0.04525 0.0
C117 C 0.65352 0.99282 0.10713 0.0
C118 C 0.71413 0.02987 0.99498 0.0
N119 N 0.71561 1.00726 0.05861 0.0
H120 H 0.68379 0.96719 0.15675 0.0
H121 H 0.73604 0.04217 0.94638 0.0
H122 H 0.68013 0.93485 0.96374 0.0
H123 H 0.7931 1.00407 0.88352 0.0
O124 O 0.72753 0.94457 0.11481 0.0
O125 O 0.78788 0.97155 0.07565 0.0
O126 O 0.79462 0.04412 1.0064 0.0
C127 C 0.75845 0.94268 0.11104 0.0
H128 H 0.83841 0.05387 0.32158 0.0
H129 H 0.68252 0.93085 0.79312 0.0
H130 H 0.6828 0.0542 0.93812 0.0
H131 H 0.62981 0.97701 0.15062 0.0
Co132 Co 0.7778 0.72322 0.43541 0.0
C133 C 0.7756 0.72944 0.62761 0.0
C134 C 0.78281 0.77926 0.56394 0.0
C135 C 0.78568 0.78562 0.65118 0.0
N136 N 0.77523 0.74349 0.54835 0.0
N137 N 0.7813 0.7543 0.69154 0.0
H138 H 0.77502 0.70292 0.63839 0.0
H139 H 0.7886 0.80061 0.51559 0.0
C140 C 0.74014 0.76778 0.38773 0.0
O141 O 0.71469 0.74862 0.44756 0.0
N142 N 0.78188 0.70403 0.32373 0.0
C143 C 0.77718 0.66935 0.30862 0.0
C144 C 0.77684 0.66409 0.22112 0.0
C145 C 0.78459 0.71951 0.24487 0.0
N146 N 0.78114 0.69548 0.18079 0.0
C147 C 0.70991 0.6597 0.50497 0.0
C148 C 0.66472 0.64648 0.36195 0.0
C149 C 0.65024 0.62053 0.43079 0.0
C150 C 0.67325 0.62822 0.50376 0.0
C151 C 0.70141 0.67817 0.36654 0.0
N152 N 0.72372 0.68458 0.43753 0.0
H153 H 0.72766 0.66272 0.55881 0.0
H154 H 0.71236 0.69678 0.31129 0.0
H155 H 0.77262 0.64858 0.35773 0.0
H156 H 0.78685 0.74686 0.23437 0.0
O157 O 0.79729 0.69398 0.4902 0.0
O158 O 0.83294 0.75305 0.44304 0.0
O159 O 0.76766 0.76159 0.37529 0.0
C160 C 0.83096 0.72364 0.48201 0.0
H161 H 0.79192 0.81193 0.68196 0.0
H162 H 0.77282 0.63862 0.18982 0.0
H163 H 0.64861 0.64167 0.30334 0.0
H164 H 0.66352 0.60954 0.55926 0.0
Co165 Co 0.10905 0.79444 0.7321 0.0
C166 C 0.10252 0.78783 0.91891 0.0
C167 C 0.06612 0.80664 0.86644 0.0
C168 C 0.06713 0.81095 0.95426 0.0
N169 N 0.08794 0.79158 0.84449 0.0
N170 N 0.09056 0.79961 0.98632 0.0
H171 H 0.12437 0.78036 0.92353 0.0
H172 H 0.05346 0.81737 0.82143 0.0
C173 C 1.02529 0.76038 0.69779 0.0
O174 O 1.01827 0.73674 0.76225 0.0
N175 N 0.13025 0.79871 0.62061 0.0
C176 C 0.15272 0.78543 0.59264 0.0
C177 C 0.15486 0.78857 0.5042 0.0
C178 C 0.11983 0.81046 0.55075 0.0
N179 N 0.13368 0.80386 0.47865 0.0
C180 C 0.11134 0.72798 0.78807 0.0
C181 C 0.05853 0.67737 0.67332 0.0
C182 C 0.07498 0.66396 0.73278 0.0
C183 C 0.10224 0.68998 0.78953 0.0
C184 C 0.06902 0.71585 0.673 0.0
N185 N 0.0935 0.74033 0.73331 0.0
H186 H 0.13386 0.74761 0.82916 0.0
H187 H 0.05795 0.72593 0.62278 0.0
H188 H 0.16445 0.77211 0.6329 0.0
H189 H 0.10072 0.8217 0.55231 0.0
O190 O 0.15921 0.81516 0.78197 0.0
O191 O 0.13378 0.84939 0.73888 0.0
O192 O 0.05961 0.7845 0.67739 0.0
C193 C 0.16232 0.84846 0.77427 0.0
H194 H 0.0546 0.8246 0.99058 0.0
H195 H 0.16839 0.7778 0.46183 0.0
H196 H 0.0385 0.6585 0.6259 0.0
H197 H 0.11647 0.68105 0.83489 0.0
H198 H 0.49131 1.0051 0.0368 0.0
H199 H 0.56087 0.12604 0.07285 0.0
H200 H 0.61837 0.12126 0.06414 0.0
H201 H 0.649 0.08221 0.05207 0.0
H202 H 0.57925 0.96089 0.02435 0.0
H203 H 0.5219 0.96619 0.02303 0.0
C204 C 0.5191 0.03038 0.04201 0.0
C205 C 0.52185 0.06582 0.05575 0.0
C206 C 0.55205 0.02732 0.03843 0.0
C207 C 0.55802 0.09836 0.06321 0.0
C208 C 0.59092 0.09568 0.0579 0.0
C209 C 0.62121 0.05709 0.04478 0.0
C210 C 0.61823 1.02125 0.03813 0.0
C211 C 0.5883 0.06027 0.04634 0.0
C212 C 0.58211 0.98876 0.02982 0.0
C213 C 0.54936 0.99177 0.02912 0.0
H214 H 0.58519 0.60921 0.34993 0.0
H215 H 0.62991 0.55036 0.49803 0.0
H216 H 0.56828 0.49258 0.49484 0.0
H217 H 0.50087 0.45829 0.45207 0.0
H218 H 0.45681 0.51526 0.29708 0.0
H219 H 0.51902 0.57377 0.29889 0.0
C220 C 0.58175 0.58371 0.38062 0.0
C221 C 0.61242 0.58478 0.42549 0.0
C222 C 0.54623 0.54997 0.37682 0.0
C223 C 0.60685 0.55115 0.46527 0.0
C224 C 0.57158 0.51776 0.46275 0.0
C225 C 0.50521 0.48351 0.41811 0.0
C226 C 0.4747 0.48275 0.37427 0.0
C227 C 0.54101 0.51686 0.41924 0.0
C228 C 0.48021 0.5154 0.3307 0.0
C229 C 0.51566 0.54879 0.33209 0.0
H230 H 1.00435 0.48547 0.75337 0.0
H231 H 0.12286 0.51845 0.74138 0.0
H232 H 0.14061 0.58551 0.73467 0.0
H233 H 0.12238 0.63485 0.73269 0.0
H234 H 1.00377 0.60188 0.73701 0.0
H235 H 0.986 0.53484 0.74564 0.0
C236 C 1.03403 0.50744 0.74967 0.0
C237 C 0.06231 0.49715 0.74853 0.0
C238 C 0.04395 0.54588 0.7441 0.0
C239 C 0.10064 0.52576 0.74226 0.0
C240 C 0.11078 0.56405 0.73856 0.0
C241 C 0.09266 0.61294 0.73574 0.0
C242 C 0.06441 0.62327 0.73474 0.0
C243 C 0.08269 0.57447 0.73951 0.0
C244 C 1.026 0.59459 0.73732 0.0
C245 C 1.01585 0.55629 0.74263 0.0
H246 H 0.4033 0.12807 0.41668 0.0
H247 H 0.32236 1.00943 0.45812 0.0
H248 H 0.33051 1.01826 0.61361 0.0
H249 H 0.36131 0.05955 0.73832 0.0
H250 H 0.44159 0.17846 0.69675 0.0
H251 H 0.43337 0.16957 0.54161 0.0
C252 C 0.38777 0.10408 0.45966 0.0
C253 C 0.36231 0.0681 0.42548 0.0
C254 C 0.39246 0.10941 0.54936 0.0
C255 C 0.34189 0.03749 0.48254 0.0
C256 C 0.34662 0.0425 0.57158 0.0
C257 C 0.37669 0.08363 0.69554 0.0
C258 C 0.4022 0.11962 0.72983 0.0
C259 C 0.37176 0.07836 0.60586 0.0
C260 C 0.4222 0.15032 0.67266 0.0
C261 C 0.41742 0.1453 0.58364 0.0
H262 H 0.28849 0.36317 0.72814 0.0
H263 H 0.33164 0.28681 0.76981 0.0
H264 H 0.3306 0.29498 0.92499 0.0
H265 H 0.31886 0.32491 0.0496 0.0
H266 H 0.27592 0.40145 1.00833 0.0
H267 H 0.27594 0.3925 0.85311 0.0
C268 C 0.29799 0.34858 0.77098 0.0
C269 C 0.31013 0.32437 0.7367 0.0
C270 C 0.29742 0.35348 0.86073 0.0
C271 C 0.32172 0.30524 0.79395 0.0
C272 C 0.3213 0.31004 0.88296 0.0
C273 C 0.30907 0.33929 1.00687 0.0
C274 C 0.29751 0.36394 0.0412 0.0
C275 C 0.30921 0.33407 0.91722 0.0
C276 C 0.28545 0.38271 0.98411 0.0
C277 C 0.28532 0.37751 0.89509 0.0
H278 H 0.98104 0.31238 0.10175 0.0
H279 H 0.09779 0.34276 0.14156 0.0
H280 H 0.08925 0.34266 0.29719 0.0
H281 H 0.04873 0.33455 0.4225 0.0
H282 H 0.93154 0.30295 0.38254 0.0
H283 H 0.94025 0.30336 0.22731 0.0
C284 C 1.0047 0.31938 0.14443 0.0
C285 C 0.04006 0.32766 0.10977 0.0
C286 C 0.99951 0.31903 0.23421 0.0
C287 C 0.07021 0.33599 0.1664 0.0
C288 C 0.06537 0.33603 0.25551 0.0
C289 C 1.02495 0.32733 0.38007 0.0
C290 C 0.98954 0.31892 0.41489 0.0
C291 C 1.03009 0.32746 0.2903 0.0
C292 C 0.95927 0.31011 0.3581 0.0
C293 C 0.96417 0.31019 0.269 0.0
H294 H 0.7179 0.92792 0.66539 0.0
H295 H 0.79693 0.03938 0.76272 0.0
H296 H 0.81628 0.06329 0.61709 0.0
H297 H 0.80794 0.05357 0.46157 0.0
H298 H 0.72897 0.9423 0.36354 0.0
H299 H 0.7119 0.9174 0.50945 0.0
C300 C 0.73938 0.95735 0.6543 0.0
C301 C 0.75602 0.98169 0.72427 0.0
C302 C 0.75003 0.9711 0.57036 0.0
C303 C 0.78415 1.0198 0.7098 0.0
C304 C 0.79501 0.03366 0.62654 0.0
C305 C 0.78729 0.02385 0.47254 0.0
C306 C 0.76919 1.00008 0.40254 0.0
C307 C 0.7778 1.00968 0.55639 0.0
C308 C 0.74243 0.9615 0.41679 0.0
C309 C 0.7329 0.94712 0.50009 0.0
H310 H 0.75252 0.68832 0.7812 0.0
H311 H 0.81902 0.81009 0.80971 0.0
H312 H 0.82446 0.80271 0.96361 0.0
H313 H 0.8109 0.76172 0.0913 0.0
H314 H 0.74462 0.63998 0.06213 0.0
H315 H 0.73947 0.64742 0.90823 0.0
C316 C 0.76853 0.71328 0.82071 0.0
C317 C 0.78513 0.7497 0.78295 0.0
C318 C 0.77188 0.70888 0.90973 0.0
C319 C 0.80534 0.78165 0.83625 0.0
C320 C 0.80872 0.77748 0.92468 0.0
C321 C 0.79516 0.73681 0.05148 0.0
C322 C 0.77844 0.70033 0.08908 0.0
C323 C 0.79204 0.74124 0.96231 0.0
C324 C 0.75845 0.66843 0.0356 0.0
C325 C 0.75521 0.67263 0.94721 0.0
H326 H 0.17464 0.81858 0.33448 0.0
H327 H 0.06426 0.79081 0.43183 0.0
H328 H 0.04172 0.78945 0.28635 0.0
H329 H 0.05219 0.79235 0.13082 0.0
H330 H 0.16233 0.8199 0.03269 0.0
H331 H 0.1861 0.82472 0.17866 0.0
C332 C 0.14575 0.81233 0.32337 0.0
C333 C 0.12129 0.80502 0.39321 0.0
C334 C 0.13281 0.81116 0.23956 0.0
C335 C 0.08389 0.79723 0.37889 0.0
C336 C 0.07083 0.79611 0.29576 0.0
C337 C 0.08145 0.7998 0.14184 0.0
C338 C 0.1052 0.80498 0.07187 0.0
C339 C 0.09492 0.80262 0.22566 0.0
C340 C 0.14316 0.81465 0.08604 0.0
C341 C 0.15688 0.81771 0.16932 0.0
H342 H 0.32589 0.16242 0.11868 0.0
H343 H 0.43881 0.20165 0.2169 0.0
H344 H 0.43769 0.25375 0.29043 0.0
H345 H 0.40434 0.28736 0.33127 0.0
H346 H 0.29193 0.24983 0.23243 0.0
H347 H 0.29332 0.19832 0.15485 0.0
C348 C 0.35031 0.18255 0.15569 0.0
C349 C 0.38233 0.17797 0.16218 0.0
C350 C 0.3496 0.2128 0.19818 0.0
C351 C 0.41376 0.20438 0.21045 0.0
C352 C 0.41317 0.23424 0.2529 0.0
C353 C 0.38012 0.26799 0.29271 0.0
C354 C 0.34798 0.27238 0.28845 0.0
C355 C 0.38116 0.23856 0.24791 0.0
C356 C 0.31704 0.24713 0.23726 0.0
C357 C 0.31778 0.21759 0.19284 0.0
H358 H 0.25392 0.39484 0.55001 0.0
H359 H 0.18014 0.29084 0.41566 0.0
H360 H 0.12485 0.28641 0.49004 0.0
H361 H 0.09779 0.31141 0.5969 0.0
H362 H 0.17311 0.41439 0.73381 0.0
H363 H 0.2273 0.41975 0.65492 0.0
C364 C 0.22572 0.37135 0.53628 0.0
C365 C 0.22115 0.34334 0.47694 0.0
C366 C 0.19428 0.36865 0.5803 0.0
C367 C 0.18443 0.31284 0.4609 0.0
C368 C 0.15282 0.31027 0.50354 0.0
C369 C 0.12604 0.33507 0.60927 0.0
C370 C 0.13123 0.36239 0.67154 0.0
C371 C 0.15743 0.33788 0.56398 0.0
C372 C 0.16813 0.39282 0.68669 0.0
C373 C 0.19925 0.396 0.64144 0.0
H374 H 0.82136 0.15253 0.02485 0.0
H375 H 0.85299 0.07626 0.90785 0.0
H376 H 0.90429 0.12933 0.82919 0.0
H377 H 0.94172 0.19811 0.7968 0.0
H378 H 0.90867 0.27363 0.9121 0.0
H379 H 0.85658 0.22031 0.98753 0.0
C380 C 0.83942 0.14744 0.98212 0.0
C381 C 0.8334 0.1104 0.97306 0.0
C382 C 0.86876 0.17808 0.9365 0.0
C383 C 0.85694 0.10443 0.91651 0.0
C384 C 0.88638 0.13482 0.87142 0.0
C385 C 0.92294 0.20282 0.83795 0.0
C386 C 0.92921 0.23991 0.84867 0.0
C387 C 0.89277 0.17186 0.88133 0.0
C388 C 0.90453 0.24545 0.90225 0.0
C389 C 0.87473 0.21494 0.9458 0.0
H390 H 0.7058 0.88804 0.21473 0.0
H391 H 0.81576 0.92581 0.10025 0.0
H392 H 0.81948 0.87431 0.17353 0.0
H393 H 0.79194 0.81938 0.27353 0.0
H394 H 0.68262 0.78373 0.39015 0.0
H395 H 0.67832 0.83354 0.31265 0.0
C396 C 0.73049 0.88488 0.20509 0.0
C397 C 0.76036 0.91063 0.15161 0.0
C398 C 0.73264 0.85564 0.2483 0.0
C399 C 0.79232 0.90633 0.14086 0.0
C400 C 0.79447 0.87691 0.18287 0.0
C401 C 0.76711 0.82241 0.28174 0.0
C402 C 0.73768 0.79774 0.33795 0.0
C403 C 0.76488 0.85151 0.23728 0.0
C404 C 0.70578 0.80225 0.34775 0.0
C405 C 0.70323 0.83077 0.30332 0.0
H406 H 0.95102 0.70476 0.70129 0.0
H407 H 1.02795 0.8121 0.58052 0.0
H408 H 0.9751 0.81015 0.50119 0.0
H409 H 0.90622 0.77859 0.46911 0.0
H410 H 0.83047 0.67026 0.58786 0.0
H411 H 0.88349 0.67201 0.66426 0.0
C412 C 0.95629 0.72777 0.65766 0.0
C413 C 0.9934 0.75868 0.64766 0.0
C414 C 0.92586 0.7263 0.61158 0.0
C415 C 0.99967 0.78799 0.58985 0.0
C416 C 0.96942 0.78692 0.54441 0.0
C417 C 0.90143 0.75529 0.51124 0.0
C418 C 0.86434 0.72439 0.52264 0.0
C419 C 0.93228 0.75631 0.55513 0.0
C420 C 0.85865 0.69438 0.57745 0.0
C421 C 0.88899 0.69536 0.62159 0.0
H422 H 0.21652 0.85163 0.8811 0.0
H423 H 0.18148 0.92269 0.7506 0.0
H424 H 0.23369 0.97915 0.81761 0.0
H425 H 0.28819 1.00812 0.91752 0.0
H426 H 0.32127 0.93593 0.05077 0.0
H427 H 0.27108 0.88038 0.97852 0.0
C428 C 0.2205 0.8795 0.86658 0.0
C429 C 0.19523 0.88293 0.81055 0.0
C430 C 0.25017 0.91172 0.90637 0.0
C431 C 0.20056 0.91924 0.79337 0.0
C432 C 0.23039 0.95155 0.8318 0.0
C433 C 0.28454 0.98027 0.93046 0.0
C434 C 0.30855 0.97636 0.98986 0.0
C435 C 0.25521 0.94812 0.88908 0.0
C436 C 0.30325 0.93994 1.00577 0.0
C437 C 0.2745 0.90803 0.96437 0.0
loop_
_geom_bond_atom_site_label_1
_geom_bond_atom_site_label_2
_geom_bond_distance
_geom_bond_site_symmetry_2
_ccdc_geom_bond_type
Co0 N4 2.148 . S
Co0 N10 2.128 1_554 S
Co0 N20 2.194 . S
Co0 O25 2.351 . S
Co0 O26 2.155 . S
Co0 O27 2.096 1_545 S
C1 N4 1.301 . S
C1 N5 1.328 . S
C1 H6 0.930 . S
C2 C3 1.333 . S
C2 N4 1.317 1_565 S
C2 H7 0.930 . S
C3 C2 1.333 . S
C3 N5 1.350 1_565 S
C3 H29 0.931 . S
N4 Co0 2.148 . S
N4 C1 1.301 . S
N4 C2 1.317 1_545 S
N5 C1 1.328 . S
N5 C3 1.350 1_545 S
H6 C1 0.930 . S
H7 C2 0.930 . S
C8 O9 1.224 . S
C8 O27 1.247 . S
O9 C8 1.224 . S
N10 Co0 2.128 1_556 S
N10 C11 1.355 . S
N10 C13 1.311 . S
C11 N10 1.355 . S
C11 C12 1.363 . S
C11 H23 0.929 . S
C12 C11 1.363 . S
C12 N14 1.375 . S
C12 H30 0.931 . S
C13 N10 1.311 . S
C13 N14 1.347 . S
C13 H24 0.929 . S
N14 C12 1.375 . S
N14 C13 1.347 . S
C15 C18 1.365 . S
C15 N20 1.328 . S
C15 H21 0.929 . S
C16 C17 1.362 1_565 S
C16 C19 1.378 . S
C16 H31 0.929 . S
C17 C16 1.362 1_545 S
C17 C18 1.366 . S
C18 C15 1.365 . S
C18 C17 1.366 . S
C18 H32 0.930 . S
C19 C16 1.378 . S
C19 N20 1.315 1_565 S
C19 H22 0.930 . S
N20 Co0 2.194 . S
N20 C15 1.328 . S
N20 C19 1.315 1_545 S
H21 C15 0.929 . S
H22 C19 0.930 . S
H23 C11 0.929 . S
H24 C13 0.929 . S
O25 Co0 2.351 . S
O25 C28 1.244 . S
O26 Co0 2.155 . S
O26 C28 1.240 . S
O27 Co0 2.096 1_565 S
O27 C8 1.247 . S
C28 O25 1.244 . S
C28 O26 1.240 . S
H29 C3 0.931 . S
H30 C12 0.931 . S
H31 C16 0.929 . S
H32 C18 0.930 . S
Co33 N37 2.148 . S
Co33 N43 2.128 . S
Co33 N53 2.194 . S
Co33 O58 2.351 . S
Co33 O59 2.155 . S
Co33 O60 2.096 . S
C34 N37 1.301 . S
C34 N38 1.328 . S
C34 H39 0.930 . S
C35 C36 1.333 . S
C35 N37 1.317 . S
C35 H40 0.930 . S
C36 C35 1.333 . S
C36 N38 1.350 . S
C36 H62 0.931 . S
N37 Co33 2.148 . S
N37 C34 1.301 . S
N37 C35 1.317 . S
N38 C34 1.328 . S
N38 C36 1.350 . S
H39 C34 0.930 . S
H40 C35 0.930 . S
C41 O42 1.224 . S
C41 O60 1.247 . S
O42 C41 1.224 . S
N43 Co33 2.128 . S
N43 C44 1.355 . S
N43 C46 1.311 . S
C44 N43 1.355 . S
C44 C45 1.363 . S
C44 H56 0.929 . S
C45 C44 1.363 . S
C45 N47 1.375 . S
C45 H63 0.931 . S
C46 N43 1.311 . S
C46 N47 1.347 . S
C46 H57 0.929 . S
N47 C45 1.375 . S
N47 C46 1.347 . S
C48 C51 1.365 . S
C48 N53 1.328 . S
C48 H54 0.929 . S
C49 C50 1.362 . S
C49 C52 1.378 . S
C49 H64 0.929 . S
C50 C49 1.362 . S
C50 C51 1.366 . S
C51 C48 1.365 . S
C51 C50 1.366 . S
C51 H65 0.930 . S
C52 C49 1.378 . S
C52 N53 1.315 . S
C52 H55 0.930 . S
N53 Co33 2.194 . S
N53 C48 1.328 . S
N53 C52 1.315 . S
H54 C48 0.929 . S
H55 C52 0.930 . S
H56 C44 0.929 . S
H57 C46 0.929 . S
O58 Co33 2.351 . S
O58 C61 1.244 . S
O59 Co33 2.155 . S
O59 C61 1.240 . S
O60 Co33 2.096 . S
O60 C41 1.247 . S
C61 O58 1.244 . S
C61 O59 1.240 . S
H62 C36 0.931 . S
H63 C45 0.931 . S
H64 C49 0.929 . S
H65 C51 0.930 . S
Co66 N70 2.148 . S
Co66 N76 2.128 . S
Co66 N86 2.194 . S
Co66 O91 2.351 1_455 S
Co66 O92 2.155 1_455 S
Co66 O93 2.096 . S
C67 N70 1.301 . S
C67 N71 1.328 . S
C67 H72 0.906 1_455 S
C68 C69 1.333 . S
C68 N70 1.317 . S
C68 H73 0.930 . S
C69 C68 1.333 . S
C69 N71 1.350 . S
C69 H95 0.931 1_556 S
N70 Co66 2.148 . S
N70 C67 1.301 . S
N70 C68 1.317 . S
N71 C67 1.328 . S
N71 C69 1.350 . S
H72 C67 0.906 1_655 S
H73 C68 0.930 . S
C74 O75 1.224 . S
C74 O93 1.247 . S
O75 C74 1.224 . S
N76 Co66 2.128 . S
N76 C77 1.355 1_455 S
N76 C79 1.311 . S
C77 N76 1.355 1_655 S
C77 C78 1.363 . S
C77 H89 0.929 . S
C78 C77 1.363 . S
C78 N80 1.375 1_655 S
C78 H96 0.931 . S
C79 N76 1.311 . S
C79 N80 1.347 . S
C79 H90 0.929 . S
N80 C78 1.375 1_455 S
N80 C79 1.347 . S
C81 C84 1.365 . S
C81 N86 1.328 1_655 S
C81 H87 0.929 . S
C82 C83 1.362 . S
C82 C85 1.378 . S
C82 H97 0.929 . S
C83 C82 1.362 . S
C83 C84 1.366 1_455 S
C84 C81 1.365 . S
C84 C83 1.366 1_655 S
C84 H98 0.930 . S
C85 C82 1.378 . S
C85 N86 1.315 . S
C85 H88 0.930 . S
N86 Co66 2.194 . S
N86 C81 1.328 1_455 S
N86 C85 1.315 . S
H87 C81 0.929 . S
H88 C85 0.930 . S
H89 C77 0.929 . S
H90 C79 0.929 . S
O91 Co66 2.351 1_655 S
O91 C94 1.244 . S
O92 Co66 2.155 1_655 S
O92 C94 1.240 . S
O93 Co66 2.096 . S
O93 C74 1.247 . S
C94 O91 1.244 . S
C94 O92 1.240 . S
H95 C69 0.931 1_554 S
H96 C78 0.931 . S
H97 C82 0.929 . S
H98 C84 0.930 . S
Co99 N103 2.148 . S
Co99 N109 2.128 1_554 S
Co99 N119 2.194 . S
Co99 O124 2.351 1_545 S
Co99 O125 2.155 1_545 S
Co99 O126 2.096 . S
C100 N103 1.301 . S
C100 N104 1.328 . S
C100 H105 0.930 1_545 S
C101 C102 1.333 . S
C101 N103 1.317 . S
C101 H106 0.930 . S
C102 C101 1.333 . S
C102 N104 1.350 . S
C102 H128 0.931 . S
N103 Co99 2.148 . S
N103 C100 1.301 . S
N103 C101 1.317 . S
N104 C100 1.328 . S
N104 C102 1.350 . S
H105 C100 0.930 1_565 S
H106 C101 0.930 . S
C107 O108 1.224 . S
C107 O126 1.247 . S
O108 C107 1.224 . S
N109 Co99 2.128 1_556 S
N109 C110 1.355 1_545 S
N109 C112 1.311 . S
C110 N109 1.355 1_565 S
C110 C111 1.363 . S
C110 H122 0.929 . S
C111 C110 1.363 . S
C111 N113 1.375 1_565 S
C111 H129 0.931 . S
C112 N109 1.311 . S
C112 N113 1.347 . S
C112 H123 0.929 . S
N113 C111 1.375 1_545 S
N113 C112 1.347 . S
C114 C117 1.365 . S
C114 N119 1.328 1_565 S
C114 H120 0.929 . S
C115 C116 1.362 . S
C115 C118 1.378 . S
C115 H130 0.929 . S
C116 C115 1.362 . S
C116 C117 1.366 1_545 S
C117 C114 1.365 . S
C117 C116 1.366 1_565 S
C117 H131 0.930 . S
C118 C115 1.378 . S
C118 N119 1.315 . S
C118 H121 0.930 . S
N119 Co99 2.194 . S
N119 C114 1.328 1_545 S
N119 C118 1.315 . S
H120 C114 0.929 . S
H121 C118 0.930 . S
H122 C110 0.929 . S
H123 C112 0.929 . S
O124 Co99 2.351 1_565 S
O124 C127 1.244 . S
O125 Co99 2.155 1_565 S
O125 C127 1.240 . S
O126 Co99 2.096 . S
O126 C107 1.247 . S
C127 O124 1.244 . S
C127 O125 1.240 . S
H128 C102 0.931 . S
H129 C111 0.931 . S
H130 C115 0.929 . S
H131 C117 0.930 . S
Co132 N136 2.148 . S
Co132 N142 2.128 . S
Co132 N152 2.194 . S
Co132 O157 2.351 . S
Co132 O158 2.155 . S
Co132 O159 2.096 . S
C133 N136 1.301 . S
C133 N137 1.328 . S
C133 H138 0.930 . S
C134 C135 1.333 . S
C134 N136 1.317 . S
C134 H139 0.930 . S
C135 C134 1.333 . S
C135 N137 1.350 . S
C135 H161 0.931 . S
N136 Co132 2.148 . S
N136 C133 1.301 . S
N136 C134 1.317 . S
N137 C133 1.328 . S
N137 C135 1.350 . S
H138 C133 0.930 . S
H139 C134 0.930 . S
C140 O141 1.224 . S
C140 O159 1.247 . S
O141 C140 1.224 . S
N142 Co132 2.128 . S
N142 C143 1.355 . S
N142 C145 1.311 . S
C143 N142 1.355 . S
C143 C144 1.363 . S
C143 H155 0.929 . S
C144 C143 1.363 . S
C144 N146 1.375 . S
C144 H162 0.931 . S
C145 N142 1.311 . S
C145 N146 1.347 . S
C145 H156 0.929 . S
N146 C144 1.375 . S
N146 C145 1.347 . S
C147 C150 1.365 . S
C147 N152 1.328 . S
C147 H153 0.929 . S
C148 C149 1.362 . S
C148 C151 1.378 . S
C148 H163 0.929 . S
C149 C148 1.362 . S
C149 C150 1.366 . S
C150 C147 1.365 . S
C150 C149 1.366 . S
C150 H164 0.930 . S
C151 C148 1.378 . S
C151 N152 1.315 . S
C151 H154 0.930 . S
N152 Co132 2.194 . S
N152 C147 1.328 . S
N152 C151 1.315 . S
H153 C147 0.929 . S
H154 C151 0.930 . S
H155 C143 0.929 . S
H156 C145 0.929 . S
O157 Co132 2.351 . S
O157 C160 1.244 . S
O158 Co132 2.155 . S
O158 C160 1.240 . S
O159 Co132 2.096 . S
O159 C140 1.247 . S
C160 O157 1.244 . S
C160 O158 1.240 . S
H161 C135 0.931 . S
H162 C144 0.931 . S
H163 C148 0.929 . S
H164 C150 0.930 . S
Co165 N169 2.148 . S
Co165 N175 2.128 . S
Co165 N185 2.194 . S
Co165 O190 2.351 . S
Co165 O191 2.155 . S
Co165 O192 2.096 1_455 S
C166 N169 1.301 . S
C166 N170 1.328 . S
C166 H171 0.930 . S
C167 C168 1.333 . S
C167 N169 1.317 1_655 S
C167 H172 0.930 . S
C168 C167 1.333 . S
C168 N170 1.350 1_655 S
C168 H194 0.931 1_556 S
N169 Co165 2.148 . S
N169 C166 1.301 . S
N169 C167 1.317 1_455 S
N170 C166 1.328 . S
N170 C168 1.350 1_455 S
H171 C166 0.930 . S
H172 C167 0.930 . S
C173 O174 1.224 . S
C173 O192 1.247 . S
O174 C173 1.224 . S
N175 Co165 2.128 . S
N175 C176 1.355 . S
N175 C178 1.311 . S
C176 N175 1.355 . S
C176 C177 1.363 . S
C176 H188 0.929 . S
C177 C176 1.363 . S
C177 N179 1.375 . S
C177 H195 0.931 . S
C178 N175 1.311 . S
C178 N179 1.347 . S
C178 H189 0.929 . S
N179 C177 1.375 . S
N179 C178 1.347 . S
C180 C183 1.365 . S
C180 N185 1.328 . S
C180 H186 0.929 . S
C181 C182 1.362 1_655 S
C181 C184 1.361 . S
C181 H196 0.929 . S
C182 C181 1.362 1_455 S
C182 C183 1.366 . S
C183 C180 1.365 . S
C183 C182 1.366 . S
C183 H197 0.930 . S
C184 C181 1.361 . S
C184 N185 1.299 1_655 S
C184 H187 0.966 . S
N185 Co165 2.194 . S
N185 C180 1.328 . S
N185 C184 1.299 1_455 S
H186 C180 0.929 . S
H187 C184 0.966 . S
H188 C176 0.929 . S
H189 C178 0.929 . S
O190 Co165 2.351 . S
O190 C193 1.244 . S
O191 Co165 2.155 . S
O191 C193 1.240 . S
O192 Co165 2.096 1_655 S
O192 C173 1.247 . S
C193 O190 1.244 . S
C193 O191 1.240 . S
H194 C168 0.931 1_554 S
H195 C177 0.931 . S
H196 C181 0.929 . S
H197 C183 0.930 . S
H198 C204 0.938 . S
H199 C207 0.930 . S
H200 C208 0.930 . S
H201 C209 0.930 . S
H202 C212 0.930 . S
H203 C213 0.930 . S
C204 H198 0.938 . S
C204 C205 1.341 1_565 S
C204 C206 1.420 1_565 S
C205 C204 1.341 1_545 S
C205 C207 1.419 . S
C206 C204 1.420 1_545 S
C206 C211 1.425 . S
C206 C213 1.409 1_545 S
C207 H199 0.930 . S
C207 C205 1.419 . S
C207 C208 1.362 . S
C208 H200 0.930 . S
C208 C207 1.362 . S
C208 C211 1.409 . S
C209 H201 0.930 . S
C209 C210 1.355 . S
C209 C211 1.415 . S
C210 C209 1.355 . S
C210 C212 1.419 1_545 S
C211 C206 1.425 . S
C211 C208 1.409 . S
C211 C209 1.415 . S
C212 H202 0.930 . S
C212 C210 1.419 1_565 S
C212 C213 1.362 . S
C213 H203 0.930 . S
C213 C206 1.409 1_565 S
C213 C212 1.362 . S
H214 C220 0.930 . S
H215 C223 0.930 . S
H216 C224 0.930 . S
H217 C225 0.930 . S
H218 C228 0.930 . S
H219 C229 0.930 . S
C220 H214 0.930 . S
C220 C221 1.355 . S
C220 C222 1.415 . S
C221 C220 1.355 . S
C221 C223 1.419 . S
C222 C220 1.415 . S
C222 C227 1.425 . S
C222 C229 1.409 . S
C223 H215 0.930 . S
C223 C221 1.419 . S
C223 C224 1.362 . S
C224 H216 0.930 . S
C224 C223 1.362 . S
C224 C227 1.409 . S
C225 H217 0.930 . S
C225 C226 1.355 . S
C225 C227 1.415 . S
C226 C225 1.355 . S
C226 C228 1.419 . S
C227 C222 1.425 . S
C227 C224 1.409 . S
C227 C225 1.415 . S
C228 H218 0.930 . S
C228 C226 1.419 . S
C228 C229 1.362 . S
C229 H219 0.930 . S
C229 C222 1.409 . S
C229 C228 1.362 . S
H230 C236 0.930 . S
H231 C239 0.930 . S
H232 C240 0.930 . S
H233 C241 0.930 . S
H234 C244 0.930 . S
H235 C245 0.930 . S
C236 H230 0.930 . S
C236 C237 1.353 1_655 S
C236 C238 1.415 1_655 S
C237 C236 1.353 1_455 S
C237 C239 1.419 . S
C238 C236 1.415 1_455 S
C238 C243 1.425 . S
C238 C245 1.409 1_455 S
C239 H231 0.930 . S
C239 C237 1.419 . S
C239 C240 1.362 . S
C240 H232 0.930 . S
C240 C239 1.362 . S
C240 C243 1.409 . S
C241 H233 0.930 . S
C241 C242 1.355 . S
C241 C243 1.415 . S
C242 C241 1.355 . S
C242 C244 1.419 1_455 S
C243 C238 1.425 . S
C243 C240 1.409 . S
C243 C241 1.415 . S
C244 H234 0.930 . S
C244 C242 1.419 1_655 S
C244 C245 1.362 . S
C245 H235 0.930 . S
C245 C238 1.409 1_655 S
C245 C244 1.362 . S
H246 C252 0.930 . S
H247 C255 0.930 . S
H248 C256 0.930 . S
H249 C257 0.930 1_565 S
H250 C260 0.930 . S
H251 C261 0.930 . S
C252 H246 0.930 . S
C252 C253 1.355 . S
C252 C254 1.415 . S
C253 C252 1.355 . S
C253 C255 1.419 1_545 S
C254 C252 1.415 . S
C254 C259 1.425 . S
C254 C261 1.409 . S
C255 H247 0.930 . S
C255 C253 1.419 1_565 S
C255 C256 1.362 . S
C256 H248 0.930 . S
C256 C255 1.362 . S
C256 C259 1.409 1_565 S
C257 H249 0.930 1_545 S
C257 C258 1.355 . S
C257 C259 1.415 . S
C258 C257 1.355 . S
C258 C260 1.419 . S
C259 C254 1.425 . S
C259 C256 1.409 1_545 S
C259 C257 1.415 . S
C260 H250 0.930 . S
C260 C258 1.419 . S
C260 C261 1.362 . S
C261 H251 0.930 . S
C261 C254 1.409 . S
C261 C260 1.362 . S
H262 C268 0.930 . S
H263 C271 0.930 . S
H264 C272 0.930 . S
H265 C273 0.930 . S
H266 C276 0.930 . S
H267 C277 0.930 . S
C268 H262 0.930 . S
C268 C269 1.355 . S
C268 C270 1.415 . S
C269 C268 1.355 . S
C269 C271 1.419 . S
C270 C268 1.415 . S
C270 C275 1.425 . S
C270 C277 1.409 . S
C271 H263 0.930 . S
C271 C269 1.419 . S
C271 C272 1.362 . S
C272 H264 0.930 . S
C272 C271 1.362 . S
C272 C275 1.409 . S
C273 H265 0.930 . S
C273 C274 1.355 . S
C273 C275 1.415 1_554 S
C274 C273 1.355 . S
C274 C276 1.419 . S
C275 C270 1.425 . S
C275 C272 1.409 . S
C275 C273 1.415 1_556 S
C276 H266 0.930 . S
C276 C274 1.419 . S
C276 C277 1.362 1_554 S
C277 H267 0.930 . S
C277 C270 1.409 . S
C277 C276 1.362 1_556 S
H278 C284 0.930 1_655 S
H279 C287 0.930 . S
H280 C288 0.930 . S
H281 C289 0.930 . S
H282 C292 0.930 . S
H283 C293 0.930 . S
C284 H278 0.930 1_455 S
C284 C285 1.355 . S
C284 C286 1.415 . S
C285 C284 1.355 . S
C285 C287 1.419 . S
C286 C284 1.415 . S
C286 C291 1.425 . S
C286 C293 1.409 1_455 S
C287 H279 0.930 . S
C287 C285 1.419 . S
C287 C288 1.362 . S
C288 H280 0.930 . S
C288 C287 1.362 . S
C288 C291 1.409 . S
C289 H281 0.930 . S
C289 C290 1.355 . S
C289 C291 1.415 . S
C290 C289 1.355 . S
C290 C292 1.419 1_455 S
C291 C286 1.425 . S
C291 C288 1.409 . S
C291 C289 1.415 . S
C292 H282 0.930 . S
C292 C290 1.419 1_655 S
C292 C293 1.362 . S
C293 H283 0.930 . S
C293 C286 1.409 1_655 S
C293 C292 1.362 . S
H294 C300 0.930 . S
H295 C303 0.930 . S
H296 C304 0.930 . S
H297 C305 0.930 . S
H298 C308 0.930 . S
H299 C309 0.930 . S
C300 H294 0.930 . S
C300 C301 1.355 1_565 S
C300 C302 1.415 1_565 S
C301 C300 1.355 1_545 S
C301 C303 1.419 . S
C302 C300 1.415 1_545 S
C302 C307 1.425 . S
C302 C309 1.409 1_545 S
C303 H295 0.930 . S
C303 C301 1.419 . S
C303 C304 1.362 . S
C304 H296 0.930 . S
C304 C303 1.362 . S
C304 C307 1.409 . S
C305 H297 0.930 . S
C305 C306 1.355 . S
C305 C307 1.415 . S
C306 C305 1.355 . S
C306 C308 1.419 1_545 S
C307 C302 1.425 . S
C307 C304 1.409 . S
C307 C305 1.415 . S
C308 H298 0.930 . S
C308 C306 1.419 1_565 S
C308 C309 1.362 . S
C309 H299 0.930 . S
C309 C302 1.409 1_565 S
C309 C308 1.362 . S
H310 C316 0.930 . S
H311 C319 0.930 . S
H312 C320 0.930 . S
H313 C321 0.930 . S
H314 C324 0.930 . S
H315 C325 0.930 . S
C316 H310 0.930 . S
C316 C317 1.355 . S
C316 C318 1.415 . S
C317 C316 1.355 . S
C317 C319 1.419 . S
C318 C316 1.415 . S
C318 C323 1.425 . S
C318 C325 1.409 . S
C319 H311 0.930 . S
C319 C317 1.419 . S
C319 C320 1.362 . S
C320 H312 0.930 . S
C320 C319 1.362 . S
C320 C323 1.409 . S
C321 H313 0.930 . S
C321 C322 1.355 . S
C321 C323 1.415 1_554 S
C322 C321 1.355 . S
C322 C324 1.419 . S
C323 C318 1.425 . S
C323 C320 1.409 . S
C323 C321 1.415 1_556 S
C324 H314 0.930 . S
C324 C322 1.419 . S
C324 C325 1.362 1_554 S
C325 H315 0.930 . S
C325 C318 1.409 . S
C325 C324 1.362 1_556 S
H326 C332 0.930 . S
H327 C335 0.930 . S
H328 C336 0.930 1_655 S
H329 C337 0.930 1_655 S
H330 C340 0.930 . S
H331 C341 0.930 . S
C332 H326 0.930 . S
C332 C333 1.355 . S
C332 C334 1.415 . S
C333 C332 1.355 . S
C333 C335 1.419 . S
C334 C332 1.415 . S
C334 C339 1.425 . S
C334 C341 1.409 . S
C335 H327 0.930 . S
C335 C333 1.419 . S
C335 C336 1.362 . S
C336 H328 0.930 1_455 S
C336 C335 1.362 . S
C336 C339 1.409 . S
C337 H329 0.930 1_455 S
C337 C338 1.355 . S
C337 C339 1.415 . S
C338 C337 1.355 . S
C338 C340 1.419 . S
C339 C334 1.425 . S
C339 C336 1.409 . S
C339 C337 1.415 . S
C340 H330 0.930 . S
C340 C338 1.419 . S
C340 C341 1.362 . S
C341 H331 0.930 . S
C341 C334 1.409 . S
C341 C340 1.362 . S
H342 C348 0.930 . S
H343 C351 0.930 . S
H344 C352 0.930 . S
H345 C353 0.930 . S
H346 C356 0.930 . S
H347 C357 0.930 . S
C348 H342 0.930 . S
C348 C349 1.355 . S
C348 C350 1.415 . S
C349 C348 1.355 . S
C349 C351 1.419 . S
C350 C348 1.415 . S
C350 C355 1.425 . S
C350 C357 1.409 . S
C351 H343 0.930 . S
C351 C349 1.419 . S
C351 C352 1.362 . S
C352 H344 0.930 . S
C352 C351 1.362 . S
C352 C355 1.409 . S
C353 H345 0.930 . S
C353 C354 1.355 . S
C353 C355 1.415 . S
C354 C353 1.355 . S
C354 C356 1.419 . S
C355 C350 1.425 . S
C355 C352 1.409 . S
C355 C353 1.415 . S
C356 H346 0.930 . S
C356 C354 1.419 . S
C356 C357 1.362 . S
C357 H347 0.930 . S
C357 C350 1.409 . S
C357 C356 1.362 . S
H358 C364 0.930 . S
H359 C367 0.930 . S
H360 C368 0.930 . S
H361 C369 0.930 . S
H362 C372 0.930 . S
H363 C373 0.930 . S
C364 H358 0.930 . S
C364 C365 1.355 . S
C364 C366 1.415 . S
C365 C364 1.355 . S
C365 C367 1.419 . S
C366 C364 1.415 . S
C366 C371 1.425 . S
C366 C373 1.409 . S
C367 H359 0.930 . S
C367 C365 1.419 . S
C367 C368 1.362 . S
C368 H360 0.930 . S
C368 C367 1.362 . S
C368 C371 1.409 . S
C369 H361 0.930 . S
C369 C370 1.355 . S
C369 C371 1.415 . S
C370 C369 1.355 . S
C370 C372 1.419 . S
C371 C366 1.425 . S
C371 C368 1.409 . S
C371 C369 1.415 . S
C372 H362 0.930 . S
C372 C370 1.419 . S
C372 C373 1.362 . S
C373 H363 0.930 . S
C373 C366 1.409 . S
C373 C372 1.362 . S
H374 C380 0.930 . S
H375 C383 0.930 1_554 S
H376 C384 0.930 . S
H377 C385 0.930 . S
H378 C388 0.930 . S
H379 C389 0.930 . S
C380 H374 0.930 . S
C380 C381 1.355 . S
C380 C382 1.415 . S
C381 C380 1.355 . S
C381 C383 1.419 . S
C382 C380 1.415 . S
C382 C387 1.425 . S
C382 C389 1.409 . S
C383 H375 0.930 1_556 S
C383 C381 1.419 . S
C383 C384 1.362 . S
C384 H376 0.930 . S
C384 C383 1.362 . S
C384 C387 1.409 . S
C385 H377 0.930 . S
C385 C386 1.355 . S
C385 C387 1.415 . S
C386 C385 1.355 . S
C386 C388 1.419 . S
C387 C382 1.425 . S
C387 C384 1.409 . S
C387 C385 1.415 . S
C388 H378 0.930 . S
C388 C386 1.419 . S
C388 C389 1.362 . S
C389 H379 0.930 . S
C389 C382 1.409 . S
C389 C388 1.362 . S
H390 C396 0.930 . S
H391 C399 0.930 . S
H392 C400 0.930 . S
H393 C401 0.930 . S
H394 C404 0.930 . S
H395 C405 0.930 . S
C396 H390 0.930 . S
C396 C397 1.355 . S
C396 C398 1.415 . S
C397 C396 1.355 . S
C397 C399 1.419 . S
C398 C396 1.415 . S
C398 C403 1.425 . S
C398 C405 1.409 . S
C399 H391 0.930 . S
C399 C397 1.419 . S
C399 C400 1.362 . S
C400 H392 0.930 . S
C400 C399 1.362 . S
C400 C403 1.409 . S
C401 H393 0.930 . S
C401 C402 1.355 . S
C401 C403 1.415 . S
C402 C401 1.355 . S
C402 C404 1.419 . S
C403 C398 1.425 . S
C403 C400 1.409 . S
C403 C401 1.415 . S
C404 H394 0.930 . S
C404 C402 1.419 . S
C404 C405 1.362 . S
C405 H395 0.930 . S
C405 C398 1.409 . S
C405 C404 1.362 . S
H406 C412 0.930 . S
H407 C415 0.930 . S
H408 C416 0.930 . S
H409 C417 0.930 . S
H410 C420 0.930 . S
H411 C421 0.930 . S
C412 H406 0.930 . S
C412 C413 1.355 . S
C412 C414 1.415 . S
C413 C412 1.355 . S
C413 C415 1.419 . S
C414 C412 1.415 . S
C414 C419 1.425 . S
C414 C421 1.409 . S
C415 H407 0.930 . S
C415 C413 1.419 . S
C415 C416 1.362 . S
C416 H408 0.930 . S
C416 C415 1.362 . S
C416 C419 1.409 . S
C417 H409 0.930 . S
C417 C418 1.355 . S
C417 C419 1.415 . S
C418 C417 1.355 . S
C418 C420 1.419 . S
C419 C414 1.425 . S
C419 C416 1.409 . S
C419 C417 1.415 . S
C420 H410 0.930 . S
C420 C418 1.419 . S
C420 C421 1.362 . S
C421 H411 0.930 . S
C421 C414 1.409 . S
C421 C420 1.362 . S
H422 C428 0.930 . S
H423 C431 0.930 . S
H424 C432 0.930 . S
H425 C433 0.930 1_554 S
H426 C436 0.930 . S
H427 C437 0.930 . S
C428 H422 0.930 . S
C428 C429 1.355 . S
C428 C430 1.415 . S
C429 C428 1.355 . S
C429 C431 1.419 . S
C430 C428 1.415 . S
C430 C435 1.425 . S
C430 C437 1.409 . S
C431 H423 0.930 . S
C431 C429 1.419 . S
C431 C432 1.362 . S
C432 H424 0.930 . S
C432 C431 1.362 . S
C432 C435 1.409 . S
C433 H425 0.930 1_556 S
C433 C434 1.355 . S
C433 C435 1.415 . S
C434 C433 1.355 . S
C434 C436 1.419 . S
C435 C430 1.425 . S
C435 C432 1.409 . S
C435 C433 1.415 . S
C436 H426 0.930 . S
C436 C434 1.419 . S
C436 C437 1.362 . S
C437 H427 0.930 . S
C437 C430 1.409 . S
C437 C436 1.362 . S
C205 C17 1.570 . S
C210 C116 1.577 . S
C221 C149 1.568 . S
C226 C50 1.579 . S
C237 C83 1.576 . S
C242 C182 1.572 . S
C253 N5 1.264 . S
C258 N14 1.263 . S
C269 N38 1.248 . S
C274 N47 1.243 . S
C285 N71 1.239 1_554 S
C290 N80 1.232 . S
C301 N113 1.270 . S
C306 N104 1.271 . S
C317 N137 1.237 . S
C322 N146 1.229 . S
C333 N179 1.244 . S
C338 N170 1.250 1_554 S
C349 C28 1.520 . S
C354 C41 1.513 . S
C365 C61 1.513 . S
C370 C74 1.502 . S
C381 C107 1.524 1_556 S
C386 C94 1.528 . S
C397 C127 1.537 . S
C402 C140 1.534 . S
C413 C173 1.498 . S
C418 C160 1.510 . S
C429 C193 1.509 . S
C434 C8 1.498 1_556 S
