# Generated by pormake.
# Topology umh, (4)-cn, num edge types: 1
# Building blocks:
#     Node 0, Type 0, BuildingBlock: ICAMEG_clean_sbu_1, # of connection points: 4
#     Node 1, Type 0, BuildingBlock: ICAMEG_clean_sbu_1, # of connection points: 4
#     Node 2, Type 0, BuildingBlock: ICAMEG_clean_sbu_1, # of connection points: 4
#     Node 3, Type 0, BuildingBlock: ICAMEG_clean_sbu_1, # of connection points: 4
#     Node 4, Type 0, BuildingBlock: ICAMEG_clean_sbu_1, # of connection points: 4
#     Node 5, Type 0, BuildingBlock: ICAMEG_clean_sbu_1, # of connection points: 4
#     Node 6, Type 0, BuildingBlock: ICAMEG_clean_sbu_1, # of connection points: 4
#     Node 7, Type 0, BuildingBlock: ICAMEG_clean_sbu_1, # of connection points: 4
#     Node 8, Type 0, BuildingBlock: ICAMEG_clean_sbu_1, # of connection points: 4
#     Node 9, Type 0, BuildingBlock: ICAMEG_clean_sbu_1, # of connection points: 4
#     Node 10, Type 0, BuildingBlock: ICAMEG_clean_sbu_1, # of connection points: 4
#     Node 11, Type 0, BuildingBlock: ICAMEG_clean_sbu_1, # of connection points: 4
#     Node 12, Type 0, BuildingBlock: ICAMEG_clean_sbu_1, # of connection points: 4
#     Node 13, Type 0, BuildingBlock: ICAMEG_clean_sbu_1, # of connection points: 4
#     Node 14, Type 0, BuildingBlock: ICAMEG_clean_sbu_1, # of connection points: 4
#     Node 15, Type 0, BuildingBlock: ICAMEG_clean_sbu_1, # of connection points: 4
#     Edge 16, Type (0, 0), BuildingBlock: OJICUG_clean_linker_0, # of connection points: 2
#     Edge 17, Type (0, 0), BuildingBlock: OJICUG_clean_linker_0, # of connection points: 2
#     Edge 18, Type (0, 0), BuildingBlock: OJICUG_clean_linker_0, # of connection points: 2
#     Edge 19, Type (0, 0), BuildingBlock: OJICUG_clean_linker_0, # of connection points: 2
#     Edge 20, Type (0, 0), BuildingBlock: OJICUG_clean_linker_0, # of connection points: 2
#     Edge 21, Type (0, 0), BuildingBlock: OJICUG_clean_linker_0, # of connection points: 2
#     Edge 22, Type (0, 0), BuildingBlock: OJICUG_clean_linker_0, # of connection points: 2
#     Edge 23, Type (0, 0), BuildingBlock: OJICUG_clean_linker_0, # of connection points: 2
#     Edge 24, Type (0, 0), BuildingBlock: OJICUG_clean_linker_0, # of connection points: 2
#     Edge 25, Type (0, 0), BuildingBlock: OJICUG_clean_linker_0, # of connection points: 2
#     Edge 26, Type (0, 0), BuildingBlock: OJICUG_clean_linker_0, # of connection points: 2
#     Edge 27, Type (0, 0), BuildingBlock: OJICUG_clean_linker_0, # of connection points: 2
#     Edge 28, Type (0, 0), BuildingBlock: OJICUG_clean_linker_0, # of connection points: 2
#     Edge 29, Type (0, 0), BuildingBlock: OJICUG_clean_linker_0, # of connection points: 2
#     Edge 30, Type (0, 0), BuildingBlock: OJICUG_clean_linker_0, # of connection points: 2
#     Edge 31, Type (0, 0), BuildingBlock: OJICUG_clean_linker_0, # of connection points: 2
#     Edge 32, Type (0, 0), BuildingBlock: OJICUG_clean_linker_0, # of connection points: 2
#     Edge 33, Type (0, 0), BuildingBlock: OJICUG_clean_linker_0, # of connection points: 2
#     Edge 34, Type (0, 0), BuildingBlock: OJICUG_clean_linker_0, # of connection points: 2
#     Edge 35, Type (0, 0), BuildingBlock: OJICUG_clean_linker_0, # of connection points: 2
#     Edge 36, Type (0, 0), BuildingBlock: OJICUG_clean_linker_0, # of connection points: 2
#     Edge 37, Type (0, 0), BuildingBlock: OJICUG_clean_linker_0, # of connection points: 2
#     Edge 38, Type (0, 0), BuildingBlock: OJICUG_clean_linker_0, # of connection points: 2
#     Edge 39, Type (0, 0), BuildingBlock: OJICUG_clean_linker_0, # of connection points: 2
#     Edge 40, Type (0, 0), BuildingBlock: OJICUG_clean_linker_0, # of connection points: 2
#     Edge 41, Type (0, 0), BuildingBlock: OJICUG_clean_linker_0, # of connection points: 2
#     Edge 42, Type (0, 0), BuildingBlock: OJICUG_clean_linker_0, # of connection points: 2
#     Edge 43, Type (0, 0), BuildingBlock: OJICUG_clean_linker_0, # of connection points: 2
#     Edge 44, Type (0, 0), BuildingBlock: OJICUG_clean_linker_0, # of connection points: 2
#     Edge 45, Type (0, 0), BuildingBlock: OJICUG_clean_linker_0, # of connection points: 2
#     Edge 46, Type (0, 0), BuildingBlock: OJICUG_clean_linker_0, # of connection points: 2
#     Edge 47, Type (0, 0), BuildingBlock: OJICUG_clean_linker_0, # of connection points: 2
# Relax obj value: 0.088
# Max RMSD: 0.243
# Mean RMSD: 0.243
data_MOF--net-umh--node1-ICAMEG_clean_sbu_1--edge1-OJICUG_clean_linker_0
_symmetry_space_group_name_H-M    P1
_symmetry_Int_Tables_number       1
_symmetry_cell_setting            triclinic
loop_
_symmetry_equiv_pos_as_xyz
'x, y, z'
_cell_length_a     31.642695
_cell_length_b     31.64263
_cell_length_c     42.173845
_cell_angle_alpha  89.997785
_cell_angle_beta   89.997784
_cell_angle_gamma 90.005838
loop_
_atom_site_label
_atom_site_type_symbol
_atom_site_fract_x
_atom_site_fract_y
_atom_site_fract_z
_atom_type_partial_charge
Co0 Co 0.30218 0.08546 0.13357 0.0
Co1 Co 0.37671 0.12709 0.18458 0.0
O2 O 0.36015 0.09567 0.14682 0.0
C3 C 0.34285 0.12587 0.07855 0.0
O4 O 0.35831 0.15319 0.0989 0.0
C5 C 0.41305 0.04297 0.19184 0.0
O6 O 0.37426 0.03022 0.18648 0.0
O7 O 0.33601 0.09571 0.21134 0.0
O8 O 0.28355 0.07587 0.1786 0.0
H9 H 0.35254 0.20859 0.28529 0.0
H10 H 0.37201 0.03764 0.10342 0.0
O11 O 0.31941 0.09573 0.08829 0.0
H12 H 0.28036 0.92989 0.1525 0.0
H13 H 0.19028 0.02657 0.06118 0.0
H14 H 0.21779 0.11201 0.15677 0.0
H15 H 0.26168 0.00549 0.15545 0.0
H16 H 0.26329 0.03865 0.07968 0.0
O17 O 0.42103 0.08251 0.19287 0.0
H18 H 0.33125 0.17072 0.23673 0.0
H19 H 0.45991 0.1482 0.21361 0.0
H20 H 0.14429 0.10046 0.1393 0.0
H21 H 0.39184 0.96235 0.09983 0.0
H22 H 0.13018 0.05746 0.09117 0.0
H23 H 0.34593 0.90794 0.12461 0.0
O24 O 0.28854 0.1462 0.13815 0.0
H25 H 0.49104 0.14335 0.10272 0.0
H26 H 0.39607 0.21848 0.17635 0.0
H27 H 0.44476 0.25937 0.14249 0.0
H28 H 0.49269 0.22175 0.10534 0.0
H29 H 0.44166 0.10372 0.13686 0.0
H30 H 0.48264 0.18588 0.26198 0.0
H31 H 0.42872 0.21632 0.29821 0.0
O32 O 0.33173 0.17093 0.17657 0.0
C33 C 0.29964 0.07986 0.20625 0.0
C34 C 0.37633 0.19546 0.2697 0.0
C35 C 0.44935 0.18269 0.25661 0.0
N36 N 0.39433 0.15758 0.22224 0.0
C37 C 0.36447 0.17418 0.24207 0.0
C38 C 0.43631 0.16142 0.22927 0.0
C39 C 0.41908 0.19971 0.27696 0.0
C40 C 0.35161 0.01407 0.11392 0.0
N41 N 0.31561 0.0259 0.12945 0.0
C42 C 0.3631 0.97153 0.11194 0.0
C43 C 0.33737 0.94101 0.1259 0.0
C44 C 0.30059 0.95331 0.14157 0.0
C45 C 0.29018 0.99616 0.14318 0.0
C46 C 0.19602 0.04523 0.08226 0.0
C47 C 0.21186 0.09294 0.13598 0.0
C48 C 0.23727 0.0522 0.09282 0.0
N49 N 0.24471 0.07554 0.1195 0.0
C50 C 0.1702 0.08666 0.12612 0.0
C51 C 0.16231 0.06257 0.09909 0.0
C52 C 0.30059 0.17486 0.15738 0.0
C53 C 0.4704 0.16008 0.11888 0.0
C54 C 0.4168 0.2019 0.16021 0.0
C55 C 0.44435 0.22521 0.14114 0.0
C56 C 0.47126 0.20408 0.12032 0.0
N57 N 0.41619 0.15876 0.15867 0.0
C58 C 0.44251 0.13781 0.13837 0.0
Co59 Co 0.41335 0.30306 0.63369 0.0
Co60 Co 0.37179 0.37699 0.68522 0.0
O61 O 0.403 0.36087 0.64727 0.0
C62 C 0.37221 0.34397 0.57908 0.0
O63 O 0.34509 0.35923 0.59965 0.0
C64 C 0.45591 0.4134 0.69237 0.0
O65 O 0.46867 0.37468 0.68677 0.0
O66 O 0.40338 0.33608 0.71165 0.0
O67 O 0.42338 0.28406 0.67857 0.0
H68 H 0.29086 0.35163 0.78605 0.0
H69 H 0.46058 0.37336 0.60363 0.0
O70 O 0.40258 0.32061 0.58855 0.0
H71 H 0.56918 0.28187 0.65178 0.0
H72 H 0.4722 0.19211 0.56048 0.0
H73 H 0.38731 0.21833 0.65655 0.0
H74 H 0.49369 0.26278 0.65499 0.0
H75 H 0.45992 0.26489 0.5794 0.0
O76 O 0.41636 0.42131 0.69361 0.0
H77 H 0.3285 0.33092 0.73724 0.0
H78 H 0.35077 0.45985 0.71484 0.0
H79 H 0.39908 0.14505 0.63865 0.0
H80 H 0.53573 0.39361 0.59978 0.0
H81 H 0.4418 0.13158 0.59028 0.0
H82 H 0.59058 0.34778 0.62408 0.0
O83 O 0.35272 0.28911 0.6385 0.0
H84 H 0.35483 0.49215 0.60411 0.0
H85 H 0.28033 0.39629 0.67746 0.0
H86 H 0.23915 0.4453 0.64408 0.0
H87 H 0.27645 0.49368 0.60707 0.0
H88 H 0.39476 0.44246 0.63779 0.0
H89 H 0.31334 0.48201 0.76346 0.0
H90 H 0.28315 0.42766 0.79945 0.0
O91 O 0.32797 0.33201 0.67709 0.0
C92 C 0.41939 0.29985 0.70632 0.0
C93 C 0.3039 0.37561 0.77056 0.0
C94 C 0.31653 0.44878 0.75788 0.0
N95 N 0.3415 0.39417 0.72309 0.0
C96 C 0.32504 0.36408 0.7428 0.0
C97 C 0.33766 0.43607 0.73039 0.0
C98 C 0.29965 0.41827 0.77809 0.0
C99 C 0.48433 0.353 0.61392 0.0
N100 N 0.47281 0.31681 0.62934 0.0
C101 C 0.5268 0.36473 0.61179 0.0
C102 C 0.55756 0.33904 0.62549 0.0
C103 C 0.54557 0.30207 0.64105 0.0
C104 C 0.50279 0.29143 0.64281 0.0
C105 C 0.45366 0.19756 0.58166 0.0
C106 C 0.40626 0.21269 0.63565 0.0
C107 C 0.44658 0.23868 0.59246 0.0
N108 N 0.4234 0.24577 0.61928 0.0
C109 C 0.41267 0.17114 0.62556 0.0
C110 C 0.4366 0.16362 0.59839 0.0
C111 C 0.32408 0.30096 0.65781 0.0
C112 C 0.33823 0.47131 0.62021 0.0
C113 C 0.29677 0.41722 0.66138 0.0
C114 C 0.27329 0.44495 0.64258 0.0
C115 C 0.29425 0.47211 0.62184 0.0
N116 N 0.3399 0.41668 0.65966 0.0
C117 C 0.36068 0.44324 0.63943 0.0
Co118 Co 0.19382 0.4134 0.13429 0.0
Co119 Co 0.11994 0.37077 0.18539 0.0
O120 O 0.13602 0.40238 0.1476 0.0
C121 C 0.1537 0.3722 0.07937 0.0
O122 O 0.13848 0.34484 0.09979 0.0
C123 C 0.08293 0.45455 0.19282 0.0
O124 O 0.12158 0.46759 0.18732 0.0
O125 O 0.16047 0.40247 0.21208 0.0
O126 O 0.2124 0.42341 0.17926 0.0
H127 H 0.14543 0.28956 0.28607 0.0
H128 H 0.12326 0.46008 0.10411 0.0
O129 O 0.17672 0.40271 0.08905 0.0
H130 H 0.21338 0.56934 0.15289 0.0
H131 H 0.30472 0.47384 0.06174 0.0
H132 H 0.27864 0.38815 0.15743 0.0
H133 H 0.23317 0.49403 0.15598 0.0
H134 H 0.23193 0.46064 0.08029 0.0
O135 O 0.07525 0.41494 0.19385 0.0
H136 H 0.16609 0.32748 0.23736 0.0
H137 H 0.0371 0.34889 0.2147 0.0
H138 H 0.35194 0.40083 0.13991 0.0
H139 H 0.10232 0.53505 0.10038 0.0
H140 H 0.36533 0.44398 0.09173 0.0
H141 H 0.14748 0.59022 0.12499 0.0
O142 O 0.20834 0.35288 0.13896 0.0
H143 H 0.00533 0.35352 0.10388 0.0
H144 H 0.10135 0.27923 0.17722 0.0
H145 H 0.05282 0.23791 0.14353 0.0
H146 H 0.00437 0.27511 0.10652 0.0
H147 H 0.05455 0.39358 0.13787 0.0
H148 H 0.015 0.31114 0.26321 0.0
H149 H 0.06941 0.28127 0.29929 0.0
O150 O 0.16528 0.32735 0.17718 0.0
C151 C 0.19651 0.41902 0.20693 0.0
C152 C 0.12144 0.30246 0.27054 0.0
C153 C 0.04823 0.31459 0.25771 0.0
N154 N 0.10281 0.34007 0.2231 0.0
C155 C 0.13293 0.32376 0.24284 0.0
C156 C 0.06091 0.33589 0.23028 0.0
C157 C 0.07877 0.29789 0.27797 0.0
C158 C 0.14331 0.48398 0.11454 0.0
N159 N 0.17951 0.47274 0.13006 0.0
C160 C 0.1312 0.52634 0.11248 0.0
C161 C 0.15651 0.55729 0.12635 0.0
C162 C 0.19348 0.54558 0.14203 0.0
C163 C 0.20452 0.5029 0.14371 0.0
C164 C 0.2993 0.45513 0.08283 0.0
C165 C 0.28425 0.40726 0.13661 0.0
C166 C 0.25817 0.44753 0.09343 0.0
N167 N 0.25112 0.42412 0.12014 0.0
C168 C 0.3258 0.4142 0.12673 0.0
C169 C 0.33329 0.43836 0.09967 0.0
C170 C 0.19653 0.32393 0.15803 0.0
C171 C 0.02621 0.33697 0.11997 0.0
C172 C 0.08038 0.29562 0.16114 0.0
C173 C 0.05293 0.27207 0.14217 0.0
C174 C 0.02573 0.29296 0.12143 0.0
N175 N 0.08062 0.33876 0.15959 0.0
C176 C 0.05401 0.35949 0.13937 0.0
Co177 Co 0.08551 0.19484 0.63409 0.0
Co178 Co 0.12747 0.12081 0.68536 0.0
O179 O 0.09605 0.13699 0.64751 0.0
C180 C 0.1263 0.15423 0.57919 0.0
O181 O 0.15364 0.13893 0.59958 0.0
C182 C 0.04346 0.08421 0.6927 0.0
O183 O 0.03062 0.12292 0.68716 0.0
O184 O 0.09589 0.16153 0.71195 0.0
O185 O 0.0757 0.21365 0.67903 0.0
H186 H 0.2085 0.14602 0.78616 0.0
H187 H 0.03819 0.12457 0.60407 0.0
O188 O 0.09598 0.17749 0.58888 0.0
H189 H 0.92976 0.21577 0.65276 0.0
H190 H 0.02603 0.30603 0.56136 0.0
H191 H 0.11156 0.27951 0.65706 0.0
H192 H 0.00524 0.23494 0.65575 0.0
H193 H 0.03854 0.23318 0.58006 0.0
O194 O 0.08304 0.07635 0.69378 0.0
H195 H 0.17081 0.16681 0.73739 0.0
H196 H 0.14885 0.03789 0.71476 0.0
H197 H 0.09957 0.35285 0.63938 0.0
H198 H 0.96303 0.10425 0.60043 0.0
H199 H 0.05652 0.36646 0.5912 0.0
H200 H 0.90828 0.14994 0.625 0.0
O201 O 0.14615 0.20885 0.63871 0.0
H202 H 0.14439 0.00597 0.60399 0.0
H203 H 0.21894 0.10175 0.67736 0.0
H204 H 0.26011 0.05296 0.6438 0.0
H205 H 0.22278 0.00462 0.60677 0.0
H206 H 0.10447 0.05546 0.63785 0.0
H207 H 0.18637 0.01566 0.76332 0.0
H208 H 0.21641 0.06997 0.79942 0.0
O209 O 0.17115 0.16592 0.6772 0.0
C210 C 0.07979 0.19775 0.70673 0.0
C211 C 0.19552 0.12207 0.77062 0.0
C212 C 0.18309 0.0489 0.75781 0.0
N213 N 0.15795 0.10357 0.72313 0.0
C214 C 0.17435 0.13363 0.74288 0.0
C215 C 0.16192 0.06166 0.73035 0.0
C216 C 0.19988 0.07939 0.77808 0.0
C217 C 0.01447 0.14487 0.61448 0.0
N218 N 0.02604 0.18102 0.62993 0.0
C219 C 0.972 0.1331 0.61247 0.0
C220 C 0.94129 0.15871 0.62632 0.0
C221 C 0.95333 0.19563 0.64191 0.0
C222 C 0.99611 0.20632 0.64355 0.0
C223 C 0.04471 0.30051 0.58246 0.0
C224 C 0.09247 0.28521 0.63624 0.0
C225 C 0.05192 0.25935 0.59313 0.0
N226 N 0.07528 0.25218 0.61985 0.0
C227 C 0.08593 0.32679 0.62627 0.0
C228 C 0.06182 0.3344 0.59921 0.0
C229 C 0.1749 0.19701 0.65794 0.0
C230 C 0.161 0.0268 0.62009 0.0
C231 C 0.20249 0.08084 0.66127 0.0
C232 C 0.22596 0.05324 0.64237 0.0
C233 C 0.20499 0.0261 0.62163 0.0
N234 N 0.15935 0.08129 0.65965 0.0
C235 C 0.13856 0.05475 0.63941 0.0
Co236 Co 0.30286 0.41337 0.39048 0.0
Co237 Co 0.37651 0.37105 0.33907 0.0
O238 O 0.36059 0.4025 0.37696 0.0
C239 C 0.34342 0.37205 0.44515 0.0
O240 O 0.3584 0.34471 0.42462 0.0
C241 C 0.4135 0.45485 0.33174 0.0
O242 O 0.37487 0.46786 0.33736 0.0
O243 O 0.33588 0.40286 0.31257 0.0
O244 O 0.284 0.42348 0.34557 0.0
H245 H 0.35062 0.28998 0.23839 0.0
H246 H 0.37354 0.46008 0.42051 0.0
O247 O 0.32029 0.40257 0.43564 0.0
H248 H 0.28296 0.56933 0.37221 0.0
H249 H 0.19236 0.4734 0.46354 0.0
H250 H 0.21792 0.38806 0.36759 0.0
H251 H 0.26328 0.49399 0.36905 0.0
H252 H 0.26504 0.46037 0.4447 0.0
O253 O 0.42118 0.41525 0.33062 0.0
H254 H 0.33015 0.32796 0.2871 0.0
H255 H 0.45924 0.34927 0.30954 0.0
H256 H 0.14473 0.40058 0.38541 0.0
H257 H 0.39437 0.53508 0.42431 0.0
H258 H 0.13159 0.44354 0.43372 0.0
H259 H 0.34898 0.59025 0.39994 0.0
O260 O 0.28837 0.35285 0.38573 0.0
H261 H 0.49142 0.35345 0.4203 0.0
H262 H 0.39507 0.27946 0.34703 0.0
H263 H 0.44368 0.238 0.38055 0.0
H264 H 0.4923 0.27504 0.41752 0.0
H265 H 0.44212 0.39365 0.38649 0.0
H266 H 0.48115 0.3115 0.261 0.0
H267 H 0.4266 0.28162 0.22504 0.0
O268 O 0.33118 0.32762 0.34725 0.0
C269 C 0.29981 0.41926 0.31784 0.0
C270 C 0.37468 0.30288 0.25387 0.0
C271 C 0.44794 0.31498 0.26656 0.0
N272 N 0.39349 0.3405 0.30127 0.0
C273 C 0.36329 0.32422 0.28158 0.0
C274 C 0.43536 0.33629 0.294 0.0
C275 C 0.41732 0.29827 0.24636 0.0
C276 C 0.35338 0.48398 0.41019 0.0
N277 N 0.31711 0.47272 0.39475 0.0
C278 C 0.36544 0.52636 0.41228 0.0
C279 C 0.34 0.5573 0.39855 0.0
C280 C 0.30296 0.54558 0.38297 0.0
C281 C 0.29199 0.50288 0.38124 0.0
C282 C 0.19767 0.45476 0.44239 0.0
C283 C 0.21242 0.40711 0.38846 0.0
C284 C 0.23874 0.44726 0.43163 0.0
N285 N 0.24564 0.42396 0.40484 0.0
C286 C 0.17093 0.41394 0.39851 0.0
C287 C 0.16359 0.438 0.42564 0.0
C288 C 0.30003 0.32406 0.36648 0.0
C289 C 0.47048 0.33696 0.40422 0.0
C290 C 0.41611 0.29579 0.36309 0.0
C291 C 0.44361 0.27215 0.38197 0.0
C292 C 0.4709 0.29296 0.40268 0.0
N293 N 0.41592 0.33893 0.36471 0.0
C294 C 0.44263 0.35956 0.38492 0.0
Co295 Co 0.0858 0.30382 0.89029 0.0
Co296 Co 0.12829 0.37776 0.83918 0.0
O297 O 0.09671 0.36163 0.87697 0.0
C298 C 0.1268 0.3441 0.94523 0.0
O299 O 0.15425 0.35925 0.92485 0.0
C300 C 0.04452 0.41474 0.83181 0.0
O301 O 0.03153 0.37606 0.8373 0.0
O302 O 0.09656 0.33726 0.81249 0.0
O303 O 0.07589 0.28522 0.84532 0.0
H304 H 0.2097 0.35247 0.73857 0.0
H305 H 0.03891 0.3743 0.92042 0.0
O306 O 0.09638 0.32099 0.93553 0.0
H307 H 0.92993 0.28384 0.87164 0.0
H308 H 0.0256 0.19282 0.96287 0.0
H309 H 0.11125 0.21905 0.86718 0.0
H310 H 0.0053 0.26427 0.86857 0.0
H311 H 0.03861 0.26563 0.94429 0.0
O312 O 0.08412 0.42246 0.83079 0.0
H313 H 0.17153 0.3317 0.78713 0.0
H314 H 0.15021 0.46065 0.80998 0.0
H315 H 0.09877 0.14574 0.88474 0.0
H316 H 0.96387 0.39502 0.92413 0.0
H317 H 0.05565 0.13227 0.93292 0.0
H318 H 0.90885 0.34967 0.89953 0.0
O319 O 0.14635 0.28941 0.88565 0.0
H320 H 0.14564 0.49223 0.92079 0.0
H321 H 0.21985 0.39624 0.84739 0.0
H322 H 0.26121 0.44466 0.88114 0.0
H323 H 0.22405 0.4931 0.91818 0.0
H324 H 0.10553 0.44311 0.88675 0.0
H325 H 0.1882 0.48286 0.76161 0.0
H326 H 0.21819 0.42853 0.72552 0.0
O327 O 0.17167 0.33237 0.84729 0.0
C328 C 0.08017 0.30115 0.81764 0.0
C329 C 0.19677 0.37643 0.75411 0.0
C330 C 0.18468 0.44962 0.76704 0.0
N331 N 0.15897 0.39496 0.80149 0.0
C332 C 0.17531 0.36488 0.78173 0.0
C333 C 0.16323 0.43687 0.79438 0.0
C334 C 0.20145 0.41912 0.74677 0.0
C335 C 0.01507 0.35417 0.90999 0.0
N336 N 0.02642 0.318 0.89448 0.0
C337 C 0.97267 0.36616 0.91204 0.0
C338 C 0.94181 0.34075 0.89817 0.0
C339 C 0.95363 0.30381 0.8825 0.0
C340 C 0.99634 0.2929 0.88083 0.0
C341 C 0.04431 0.19828 0.94178 0.0
C342 C 0.09214 0.2134 0.88799 0.0
C343 C 0.0518 0.23942 0.93116 0.0
N344 N 0.07519 0.24651 0.90445 0.0
C345 C 0.08532 0.17184 0.8979 0.0
C346 C 0.06118 0.16431 0.92496 0.0
C347 C 0.17518 0.30114 0.86645 0.0
C348 C 0.16217 0.47136 0.90469 0.0
C349 C 0.20348 0.4172 0.86348 0.0
C350 C 0.22705 0.44459 0.88249 0.0
C351 C 0.20618 0.47179 0.90324 0.0
N352 N 0.16033 0.41702 0.86501 0.0
C353 C 0.13963 0.44362 0.88526 0.0
Co354 Co 0.19383 0.08578 0.39004 0.0
Co355 Co 0.11944 0.12764 0.33901 0.0
O356 O 0.1359 0.09619 0.37678 0.0
C357 C 0.1534 0.12653 0.44501 0.0
O358 O 0.13792 0.15378 0.42462 0.0
C359 C 0.08313 0.04351 0.33169 0.0
O360 O 0.12191 0.03079 0.3371 0.0
O361 O 0.16019 0.09629 0.31228 0.0
O362 O 0.21243 0.07599 0.34504 0.0
H363 H 0.14387 0.20894 0.23823 0.0
H364 H 0.12381 0.03833 0.42027 0.0
O365 O 0.17668 0.09625 0.4353 0.0
H366 H 0.21498 0.93007 0.37135 0.0
H367 H 0.30551 0.02664 0.4625 0.0
H368 H 0.27832 0.11197 0.3668 0.0
H369 H 0.234 0.00559 0.36829 0.0
H370 H 0.23255 0.03894 0.44399 0.0
O371 O 0.07513 0.08306 0.33065 0.0
H372 H 0.16503 0.17129 0.28692 0.0
H373 H 0.03631 0.14875 0.30986 0.0
H374 H 0.35178 0.10019 0.38429 0.0
H375 H 0.10365 0.96313 0.42397 0.0
H376 H 0.36573 0.05724 0.43247 0.0
H377 H 0.14933 0.90847 0.39928 0.0
O378 O 0.2077 0.14644 0.38537 0.0
H379 H 0.0049 0.14386 0.4207 0.0
H380 H 0.10005 0.21901 0.34721 0.0
H381 H 0.05124 0.25989 0.38096 0.0
H382 H 0.00322 0.22226 0.41805 0.0
H383 H 0.05439 0.10424 0.38665 0.0
H384 H 0.01371 0.18624 0.26138 0.0
H385 H 0.06773 0.21655 0.22517 0.0
O386 O 0.16442 0.17148 0.34712 0.0
C387 C 0.19643 0.08019 0.31738 0.0
C388 C 0.12004 0.19585 0.25382 0.0
C389 C 0.04699 0.1831 0.26681 0.0
N390 N 0.10191 0.15814 0.30133 0.0
C391 C 0.13182 0.1747 0.28152 0.0
C392 C 0.05995 0.16194 0.29422 0.0
C393 C 0.07731 0.20004 0.24647 0.0
C394 C 0.1441 0.01465 0.40981 0.0
N395 N 0.18016 0.02628 0.39426 0.0
C396 C 0.13243 0.97216 0.41185 0.0
C397 C 0.15802 0.94149 0.39794 0.0
C398 C 0.19486 0.9536 0.38224 0.0
C399 C 0.20545 0.9964 0.38057 0.0
C400 C 0.29984 0.04527 0.4414 0.0
C401 C 0.28418 0.09292 0.38762 0.0
C402 C 0.25862 0.05237 0.43083 0.0
N403 N 0.25127 0.07568 0.40412 0.0
C404 C 0.32582 0.0865 0.39748 0.0
C405 C 0.33362 0.06245 0.42454 0.0
C406 C 0.19562 0.17523 0.36627 0.0
C407 C 0.02558 0.1606 0.40458 0.0
C408 C 0.07928 0.20243 0.36332 0.0
C409 C 0.05166 0.22574 0.38233 0.0
C410 C 0.02471 0.2046 0.40311 0.0
N411 N 0.0799 0.15929 0.36487 0.0
C412 C 0.05354 0.13833 0.38514 0.0
Co413 Co 0.4126 0.19272 0.88956 0.0
Co414 Co 0.36999 0.11918 0.83818 0.0
O415 O 0.40156 0.13501 0.87606 0.0
C416 C 0.37132 0.15238 0.94439 0.0
O417 O 0.34396 0.13723 0.92395 0.0
C418 C 0.45375 0.08217 0.8307 0.0
O419 O 0.46677 0.12081 0.83631 0.0
O420 O 0.40176 0.15984 0.81164 0.0
O421 O 0.42267 0.21156 0.84466 0.0
H422 H 0.28893 0.14531 0.73753 0.0
H423 H 0.45924 0.12196 0.91953 0.0
O424 O 0.40187 0.17538 0.93475 0.0
H425 H 0.56856 0.21241 0.87115 0.0
H426 H 0.47297 0.30319 0.9625 0.0
H427 H 0.38739 0.27767 0.86667 0.0
H428 H 0.49324 0.23219 0.86805 0.0
H429 H 0.45981 0.23051 0.94371 0.0
O430 O 0.41414 0.07449 0.82963 0.0
H431 H 0.32682 0.16566 0.78631 0.0
H432 H 0.34807 0.03652 0.8086 0.0
H433 H 0.40004 0.35086 0.88445 0.0
H434 H 0.53422 0.10104 0.92327 0.0
H435 H 0.44312 0.36397 0.9327 0.0
H436 H 0.58941 0.14639 0.89887 0.0
O437 O 0.35211 0.20728 0.88492 0.0
H438 H 0.35247 0.00405 0.91926 0.0
H439 H 0.27841 0.10065 0.84622 0.0
H440 H 0.23698 0.05193 0.87967 0.0
H441 H 0.27406 0.00317 0.91652 0.0
H442 H 0.39264 0.05347 0.88551 0.0
H443 H 0.31032 0.01473 0.76001 0.0
H444 H 0.28054 0.06936 0.72409 0.0
O445 O 0.32661 0.16453 0.84649 0.0
C446 C 0.41831 0.19584 0.81692 0.0
C447 C 0.30179 0.12122 0.75299 0.0
C448 C 0.31381 0.04792 0.76561 0.0
N449 N 0.33934 0.10229 0.8004 0.0
C450 C 0.32308 0.13253 0.78074 0.0
C451 C 0.33511 0.06043 0.79308 0.0
C452 C 0.29716 0.07859 0.74543 0.0
C453 C 0.48315 0.14208 0.90918 0.0
N454 N 0.47193 0.17837 0.89377 0.0
C455 C 0.52552 0.12998 0.91125 0.0
C456 C 0.55648 0.15539 0.89749 0.0
C457 C 0.54479 0.19244 0.88192 0.0
C458 C 0.5021 0.20346 0.88023 0.0
C459 C 0.45428 0.29789 0.94138 0.0
C460 C 0.40648 0.28316 0.88752 0.0
C461 C 0.4467 0.25682 0.93065 0.0
N462 N 0.42333 0.24993 0.90389 0.0
C463 C 0.4134 0.32465 0.89755 0.0
C464 C 0.43753 0.33198 0.92465 0.0
C465 C 0.32319 0.19564 0.86577 0.0
C466 C 0.33596 0.02506 0.90323 0.0
C467 C 0.29475 0.07956 0.86223 0.0
C468 C 0.27114 0.052 0.88107 0.0
C469 C 0.29196 0.02463 0.90172 0.0
N470 N 0.3379 0.07974 0.86382 0.0
C471 C 0.35855 0.05298 0.88397 0.0
Co472 Co 0.69323 0.91178 0.88998 0.0
Co473 Co 0.61974 0.86922 0.83854 0.0
O474 O 0.63554 0.90078 0.87642 0.0
C475 C 0.6527 0.87055 0.94474 0.0
O476 O 0.63765 0.84316 0.92428 0.0
C477 C 0.58279 0.95299 0.83101 0.0
O478 O 0.62141 0.96598 0.83669 0.0
O479 O 0.66044 0.90097 0.81203 0.0
O480 O 0.71214 0.92184 0.84509 0.0
H481 H 0.64591 0.78792 0.738 0.0
H482 H 0.62245 0.95846 0.91989 0.0
O483 O 0.67579 0.90105 0.93514 0.0
H484 H 0.71305 0.06773 0.87161 0.0
H485 H 0.80361 0.97209 0.96303 0.0
H486 H 0.77822 0.88656 0.86715 0.0
H487 H 0.73278 0.9924 0.8685 0.0
H488 H 0.73095 0.95893 0.94417 0.0
O489 O 0.57508 0.91339 0.82995 0.0
H490 H 0.66624 0.82602 0.78669 0.0
H491 H 0.5371 0.84727 0.80895 0.0
H492 H 0.85138 0.89921 0.88498 0.0
H493 H 0.60158 0.03345 0.92364 0.0
H494 H 0.86443 0.94227 0.93326 0.0
H495 H 0.64701 0.08862 0.89929 0.0
O496 O 0.70779 0.85128 0.88533 0.0
H497 H 0.50458 0.85179 0.91961 0.0
H498 H 0.60121 0.77764 0.84664 0.0
H499 H 0.55251 0.73625 0.88014 0.0
H500 H 0.50375 0.77337 0.91696 0.0
H501 H 0.55398 0.89192 0.88582 0.0
H502 H 0.51532 0.80933 0.76045 0.0
H503 H 0.56996 0.77943 0.72459 0.0
O504 O 0.66507 0.82584 0.84686 0.0
C505 C 0.69645 0.9175 0.81734 0.0
C506 C 0.62181 0.80083 0.75343 0.0
C507 C 0.54851 0.81286 0.76603 0.0
N508 N 0.60286 0.83854 0.80076 0.0
C509 C 0.63312 0.82224 0.78113 0.0
C510 C 0.56101 0.83427 0.79346 0.0
C511 C 0.57918 0.79614 0.74589 0.0
C512 C 0.64261 0.98236 0.90957 0.0
N513 N 0.67891 0.97112 0.89418 0.0
C514 C 0.63053 0.02473 0.91163 0.0
C515 C 0.65598 0.05568 0.89791 0.0
C516 C 0.69305 0.04397 0.88236 0.0
C517 C 0.70404 0.00128 0.88066 0.0
C518 C 0.79834 0.95341 0.94189 0.0
C519 C 0.78368 0.90564 0.88801 0.0
C520 C 0.75728 0.94583 0.93113 0.0
N521 N 0.75043 0.92248 0.90436 0.0
C522 C 0.82516 0.91256 0.89807 0.0
C523 C 0.83245 0.93667 0.92518 0.0
C524 C 0.69618 0.82239 0.86613 0.0
C525 C 0.52559 0.83526 0.90359 0.0
C526 C 0.58011 0.794 0.86263 0.0
C527 C 0.55256 0.77041 0.8815 0.0
C528 C 0.52519 0.79126 0.90213 0.0
N529 N 0.58027 0.83715 0.86418 0.0
C530 C 0.5535 0.85783 0.88431 0.0
Co531 Co 0.58497 0.69419 0.39017 0.0
Co532 Co 0.62699 0.6202 0.33888 0.0
O533 O 0.59561 0.63636 0.37675 0.0
C534 C 0.62622 0.65371 0.44491 0.0
O535 O 0.65342 0.63845 0.42439 0.0
C536 C 0.54297 0.58365 0.33161 0.0
O537 O 0.53017 0.62236 0.33719 0.0
O538 O 0.5954 0.66095 0.31232 0.0
O539 O 0.57485 0.71293 0.34523 0.0
H540 H 0.70784 0.64546 0.23801 0.0
H541 H 0.53803 0.6238 0.42038 0.0
O542 O 0.59578 0.6769 0.43536 0.0
H543 H 0.42905 0.71465 0.37202 0.0
H544 H 0.52556 0.80523 0.46305 0.0
H545 H 0.61057 0.77892 0.36705 0.0
H546 H 0.50446 0.73403 0.36875 0.0
H547 H 0.53822 0.73242 0.44435 0.0
O548 O 0.58253 0.57577 0.33047 0.0
H549 H 0.67029 0.66622 0.28684 0.0
H550 H 0.64831 0.5373 0.30944 0.0
H551 H 0.59843 0.85224 0.38472 0.0
H552 H 0.46295 0.60328 0.42429 0.0
H553 H 0.55563 0.86575 0.43306 0.0
H554 H 0.40793 0.64881 0.3999 0.0
O555 O 0.64553 0.70839 0.38536 0.0
H556 H 0.64393 0.50532 0.42022 0.0
H557 H 0.71846 0.6011 0.34682 0.0
H558 H 0.75964 0.55228 0.38036 0.0
H559 H 0.72233 0.50394 0.41739 0.0
H560 H 0.60401 0.55483 0.38639 0.0
H561 H 0.68571 0.51509 0.26082 0.0
H562 H 0.71569 0.56941 0.2247 0.0
O563 O 0.67069 0.66529 0.34703 0.0
C564 C 0.57905 0.69705 0.31753 0.0
C565 C 0.6949 0.6215 0.25355 0.0
C566 C 0.68246 0.54833 0.26635 0.0
N567 N 0.65743 0.60298 0.30108 0.0
C568 C 0.6738 0.63305 0.28133 0.0
C569 C 0.66136 0.56107 0.29385 0.0
C570 C 0.69922 0.57882 0.24607 0.0
C571 C 0.5142 0.64402 0.41004 0.0
N572 N 0.52557 0.68019 0.39453 0.0
C573 C 0.47177 0.63213 0.4122 0.0
C574 C 0.44091 0.65765 0.39845 0.0
C575 C 0.45275 0.69459 0.38279 0.0
C576 C 0.49549 0.70539 0.381 0.0
C577 C 0.54412 0.79976 0.44189 0.0
C578 C 0.5916 0.78459 0.38794 0.0
C579 C 0.55142 0.75862 0.43121 0.0
N580 N 0.57463 0.75151 0.40441 0.0
C581 C 0.58497 0.82615 0.3979 0.0
C582 C 0.561 0.8337 0.42505 0.0
C583 C 0.67435 0.69647 0.36622 0.0
C584 C 0.66054 0.52614 0.40411 0.0
C585 C 0.70202 0.58019 0.36291 0.0
C586 C 0.72549 0.55257 0.3818 0.0
C587 C 0.70454 0.52543 0.40255 0.0
N588 N 0.65888 0.58065 0.36456 0.0
C589 C 0.63809 0.55411 0.3848 0.0
Co590 Co 0.80428 0.58488 0.88994 0.0
Co591 Co 0.87848 0.62765 0.83915 0.0
O592 O 0.86215 0.59592 0.87683 0.0
C593 C 0.8441 0.62594 0.94503 0.0
O594 O 0.85938 0.65337 0.92469 0.0
C595 C 0.91542 0.54387 0.83169 0.0
O596 O 0.87672 0.53089 0.83706 0.0
O597 O 0.83807 0.59609 0.81226 0.0
O598 O 0.78599 0.57498 0.84489 0.0
H599 H 0.85376 0.70942 0.73862 0.0
H600 H 0.87466 0.53811 0.92029 0.0
O601 O 0.82112 0.59546 0.93525 0.0
H602 H 0.78478 0.42899 0.87108 0.0
H603 H 0.69291 0.52435 0.96204 0.0
H604 H 0.71961 0.61017 0.8665 0.0
H605 H 0.76504 0.50432 0.86801 0.0
H606 H 0.76582 0.53756 0.94376 0.0
O607 O 0.92318 0.58347 0.83076 0.0
H608 H 0.83272 0.67118 0.78709 0.0
H609 H 0.96153 0.64962 0.81024 0.0
H610 H 0.64621 0.59748 0.88376 0.0
H611 H 0.89554 0.46312 0.92401 0.0
H612 H 0.6325 0.55428 0.93186 0.0
H613 H 0.85049 0.40803 0.89918 0.0
O614 O 0.78978 0.6454 0.88529 0.0
H615 H 0.99257 0.64448 0.92113 0.0
H616 H 0.89704 0.71916 0.84765 0.0
H617 H 0.94534 0.7603 0.88164 0.0
H618 H 0.99355 0.7229 0.91872 0.0
H619 H 0.94357 0.6046 0.88685 0.0
H620 H 0.98401 0.68769 0.76198 0.0
H621 H 0.92989 0.71782 0.72578 0.0
O622 O 0.8331 0.67105 0.84727 0.0
C623 C 0.80201 0.57951 0.81726 0.0
C624 C 0.87763 0.69642 0.7542 0.0
C625 C 0.95074 0.6842 0.76731 0.0
N626 N 0.89589 0.65849 0.80159 0.0
C627 C 0.86592 0.67493 0.78178 0.0
C628 C 0.93784 0.66271 0.7946 0.0
C629 C 0.92036 0.70105 0.74698 0.0
C630 C 0.85465 0.51424 0.90977 0.0
N631 N 0.81855 0.52553 0.89414 0.0
C632 C 0.86673 0.47187 0.91182 0.0
C633 C 0.84149 0.44097 0.89782 0.0
C634 C 0.80462 0.45272 0.88204 0.0
C635 C 0.79361 0.49541 0.88037 0.0
C636 C 0.69847 0.54309 0.94098 0.0
C637 C 0.71387 0.59102 0.88729 0.0
C638 C 0.73967 0.5507 0.93054 0.0
N639 N 0.74689 0.57414 0.90387 0.0
C640 C 0.67225 0.58409 0.89702 0.0
C641 C 0.66459 0.55989 0.92403 0.0
C642 C 0.8017 0.67439 0.86629 0.0
C643 C 0.9718 0.66112 0.90501 0.0
C644 C 0.9179 0.70268 0.86376 0.0
C645 C 0.94523 0.72613 0.8829 0.0
C646 C 0.97229 0.70513 0.90368 0.0
N647 N 0.91765 0.65953 0.86517 0.0
C648 C 0.94413 0.6387 0.88544 0.0
Co649 Co 0.91261 0.80313 0.39042 0.0
Co650 Co 0.87048 0.87715 0.33923 0.0
O651 O 0.902 0.86097 0.37703 0.0
C652 C 0.87189 0.84374 0.44533 0.0
O653 O 0.8445 0.85894 0.42494 0.0
C654 C 0.95437 0.91396 0.33184 0.0
O655 O 0.96733 0.87526 0.33729 0.0
O656 O 0.90209 0.83652 0.31258 0.0
O657 O 0.92231 0.78435 0.34545 0.0
H658 H 0.78904 0.85196 0.23862 0.0
H659 H 0.95995 0.87343 0.42039 0.0
O660 O 0.90222 0.82048 0.43565 0.0
H661 H 0.06833 0.78236 0.37153 0.0
H662 H 0.97234 0.69201 0.46309 0.0
H663 H 0.8866 0.71843 0.36748 0.0
H664 H 0.99285 0.76311 0.36864 0.0
H665 H 0.95973 0.76484 0.4444 0.0
O666 O 0.91478 0.92171 0.33081 0.0
H667 H 0.82709 0.83116 0.28722 0.0
H668 H 0.84888 0.96007 0.30995 0.0
H669 H 0.89869 0.64511 0.38516 0.0
H670 H 0.03509 0.89382 0.42392 0.0
H671 H 0.94185 0.63154 0.4333 0.0
H672 H 0.08982 0.84819 0.39926 0.0
O673 O 0.85197 0.78904 0.38587 0.0
H674 H 0.85351 0.99179 0.42075 0.0
H675 H 0.77898 0.89596 0.3474 0.0
H676 H 0.73778 0.94458 0.3811 0.0
H677 H 0.7751 0.99294 0.41811 0.0
H678 H 0.89344 0.94248 0.38676 0.0
H679 H 0.81104 0.98232 0.26153 0.0
H680 H 0.78088 0.92803 0.22548 0.0
O681 O 0.82693 0.83192 0.34737 0.0
C682 C 0.91817 0.80028 0.31776 0.0
C683 C 0.80205 0.87591 0.25414 0.0
C684 C 0.81442 0.94907 0.26699 0.0
N685 N 0.83987 0.89439 0.30152 0.0
C686 C 0.82343 0.86433 0.28179 0.0
C687 C 0.83578 0.93631 0.29437 0.0
C688 C 0.79755 0.9186 0.24675 0.0
C689 C 0.98365 0.85316 0.40995 0.0
N690 N 0.97207 0.81701 0.3945 0.0
C691 C 0.02612 0.86497 0.41189 0.0
C692 C 0.05681 0.8394 0.39799 0.0
C693 C 0.04476 0.80246 0.38241 0.0
C694 C 0.00199 0.79174 0.38084 0.0
C695 C 0.95362 0.69751 0.44201 0.0
C696 C 0.90574 0.71275 0.38828 0.0
C697 C 0.94635 0.73866 0.43134 0.0
N698 N 0.92293 0.7458 0.40465 0.0
C699 C 0.91233 0.67118 0.39825 0.0
C700 C 0.9365 0.66359 0.42528 0.0
C701 C 0.82323 0.80082 0.36661 0.0
C702 C 0.8369 0.97096 0.40465 0.0
C703 C 0.79542 0.91689 0.36348 0.0
C704 C 0.77194 0.94439 0.38246 0.0
C705 C 0.7929 0.97154 0.4032 0.0
N706 N 0.83857 0.91655 0.36503 0.0
C707 C 0.85935 0.94311 0.38526 0.0
Co708 Co 0.69571 0.58509 0.63362 0.0
Co709 Co 0.62173 0.62657 0.68514 0.0
O710 O 0.63787 0.5954 0.64716 0.0
C711 C 0.65481 0.62605 0.57892 0.0
O712 O 0.63955 0.65326 0.59943 0.0
C713 C 0.58517 0.5425 0.6922 0.0
O714 O 0.62387 0.52969 0.6866 0.0
O715 O 0.66252 0.59485 0.71155 0.0
O716 O 0.71469 0.57513 0.67852 0.0
H717 H 0.64707 0.7071 0.78614 0.0
H718 H 0.6255 0.53771 0.60359 0.0
O719 O 0.67818 0.59574 0.58847 0.0
H720 H 0.71716 0.42931 0.65181 0.0
H721 H 0.80682 0.52634 0.56049 0.0
H722 H 0.78038 0.61127 0.6565 0.0
H723 H 0.73611 0.50483 0.655 0.0
H724 H 0.73401 0.5385 0.57939 0.0
O725 O 0.57732 0.58206 0.69344 0.0
H726 H 0.66779 0.66963 0.73726 0.0
H727 H 0.53885 0.64769 0.7147 0.0
H728 H 0.85369 0.59963 0.63863 0.0
H729 H 0.60539 0.46251 0.59976 0.0
H730 H 0.86727 0.55688 0.59029 0.0
H731 H 0.65131 0.40777 0.62411 0.0
O732 O 0.70958 0.64574 0.63838 0.0
H733 H 0.50674 0.64392 0.60394 0.0
H734 H 0.60259 0.71808 0.67748 0.0
H735 H 0.5537 0.75943 0.64412 0.0
H736 H 0.50532 0.7223 0.60701 0.0
H737 H 0.55631 0.60383 0.6376 0.0
H738 H 0.51669 0.68498 0.76339 0.0
H739 H 0.57104 0.71491 0.79949 0.0
O740 O 0.66679 0.67034 0.6771 0.0
C741 C 0.6988 0.57894 0.70625 0.0
C742 C 0.6231 0.69418 0.7706 0.0
C743 C 0.54992 0.68174 0.75783 0.0
N744 N 0.60454 0.6568 0.72303 0.0
C745 C 0.63463 0.67313 0.74279 0.0
C746 C 0.56264 0.6607 0.7303 0.0
C747 C 0.58043 0.69848 0.77811 0.0
C748 C 0.64589 0.514 0.61389 0.0
N749 N 0.68205 0.5256 0.62932 0.0
C750 C 0.63425 0.4715 0.61178 0.0
C751 C 0.65998 0.4408 0.6255 0.0
C752 C 0.69692 0.45287 0.64107 0.0
C753 C 0.70748 0.49568 0.64281 0.0
C754 C 0.80132 0.54488 0.58166 0.0
C755 C 0.78608 0.59231 0.63562 0.0
C756 C 0.76018 0.55189 0.59245 0.0
N757 N 0.75304 0.57509 0.61925 0.0
C758 C 0.82764 0.58597 0.62554 0.0
C759 C 0.83523 0.56202 0.59839 0.0
C760 C 0.69778 0.67431 0.65777 0.0
C761 C 0.52757 0.66045 0.62008 0.0
C762 C 0.58166 0.70172 0.66136 0.0
C763 C 0.554 0.72529 0.64257 0.0
C764 C 0.52685 0.70443 0.62178 0.0
N765 N 0.58214 0.65859 0.65958 0.0
C766 C 0.55558 0.63791 0.63929 0.0
Co767 Co 0.91166 0.69396 0.13422 0.0
Co768 Co 0.86948 0.61991 0.18539 0.0
O769 O 0.901 0.63612 0.14758 0.0
C770 C 0.87089 0.65347 0.07925 0.0
O771 O 0.84351 0.63813 0.0996 0.0
C772 C 0.95345 0.58333 0.19281 0.0
O773 O 0.96628 0.62205 0.18731 0.0
O774 O 0.90101 0.66062 0.21205 0.0
O775 O 0.92148 0.71268 0.17918 0.0
H776 H 0.78828 0.64506 0.28612 0.0
H777 H 0.95888 0.62365 0.10417 0.0
O778 O 0.9012 0.6767 0.08898 0.0
H779 H 0.06743 0.71464 0.15294 0.0
H780 H 0.97142 0.80516 0.06161 0.0
H781 H 0.88579 0.77864 0.15727 0.0
H782 H 0.99197 0.73391 0.15594 0.0
H783 H 0.95873 0.73231 0.08023 0.0
O784 O 0.91388 0.57545 0.19385 0.0
H785 H 0.82604 0.66588 0.23739 0.0
H786 H 0.84799 0.53698 0.21471 0.0
H787 H 0.89796 0.85198 0.13968 0.0
H788 H 0.03401 0.60323 0.10054 0.0
H789 H 0.94107 0.8656 0.09152 0.0
H790 H 0.08881 0.64883 0.12514 0.0
O791 O 0.85103 0.70807 0.13881 0.0
H792 H 0.85274 0.50514 0.10395 0.0
H793 H 0.77802 0.60089 0.17724 0.0
H794 H 0.73692 0.55213 0.14359 0.0
H795 H 0.77433 0.50381 0.10661 0.0
H796 H 0.89258 0.55459 0.13789 0.0
H797 H 0.81037 0.51472 0.26323 0.0
H798 H 0.78031 0.569 0.29933 0.0
O799 O 0.82585 0.66505 0.17719 0.0
C800 C 0.91726 0.69678 0.20687 0.0
C801 C 0.80126 0.62112 0.27058 0.0
C802 C 0.81368 0.54796 0.25774 0.0
N803 N 0.8389 0.60265 0.22311 0.0
C804 C 0.82248 0.6327 0.24286 0.0
C805 C 0.8349 0.56074 0.2303 0.0
C806 C 0.79687 0.57843 0.27801 0.0
C807 C 0.98262 0.6439 0.1146 0.0
N808 N 0.9711 0.68005 0.13007 0.0
C809 C 0.02508 0.63208 0.1126 0.0
C810 C 0.05581 0.65763 0.12647 0.0
C811 C 0.04383 0.69455 0.14208 0.0
C812 C 0.00107 0.70529 0.14372 0.0
C813 C 0.95272 0.79964 0.0827 0.0
C814 C 0.90489 0.78434 0.13646 0.0
C815 C 0.9454 0.75848 0.09333 0.0
N816 N 0.92201 0.75131 0.12003 0.0
C817 C 0.91154 0.82593 0.12654 0.0
C818 C 0.93568 0.83354 0.09949 0.0
C819 C 0.8222 0.69619 0.15796 0.0
C820 C 0.83609 0.52596 0.12003 0.0
C821 C 0.79451 0.57999 0.16117 0.0
C822 C 0.77108 0.5524 0.14222 0.0
C823 C 0.79209 0.52528 0.1215 0.0
N824 N 0.83765 0.58042 0.15962 0.0
C825 C 0.85849 0.55389 0.1394 0.0
Co826 Co 0.80389 0.91288 0.63419 0.0
Co827 Co 0.87769 0.87108 0.68571 0.0
O828 O 0.86168 0.9024 0.64777 0.0
C829 C 0.84475 0.872 0.57943 0.0
O830 O 0.86004 0.84475 0.5999 0.0
C831 C 0.91425 0.9551 0.693 0.0
O832 O 0.87555 0.96794 0.68743 0.0
O833 O 0.83682 0.9027 0.71215 0.0
O834 O 0.78484 0.92273 0.67907 0.0
H835 H 0.852 0.79022 0.78651 0.0
H836 H 0.87428 0.9602 0.60431 0.0
O837 O 0.82146 0.90234 0.58903 0.0
H838 H 0.7828 0.06865 0.65267 0.0
H839 H 0.69306 0.9722 0.56108 0.0
H840 H 0.71912 0.88678 0.65691 0.0
H841 H 0.76364 0.99316 0.65567 0.0
H842 H 0.76581 0.95978 0.58002 0.0
O843 O 0.9221 0.91553 0.69417 0.0
H844 H 0.83145 0.8278 0.73765 0.0
H845 H 0.96046 0.84985 0.71539 0.0
H846 H 0.64587 0.89867 0.63899 0.0
H847 H 0.89459 0.03536 0.60068 0.0
H848 H 0.63249 0.94167 0.59074 0.0
H849 H 0.84875 0.09012 0.62509 0.0
O850 O 0.7899 0.85224 0.63882 0.0
H851 H 0.99297 0.85399 0.60471 0.0
H852 H 0.89682 0.7796 0.6779 0.0
H853 H 0.94584 0.73835 0.64457 0.0
H854 H 0.99437 0.7756 0.60764 0.0
H855 H 0.94326 0.89397 0.63833 0.0
H856 H 0.98246 0.81245 0.76407 0.0
H857 H 0.92798 0.78241 0.80002 0.0
O858 O 0.83262 0.82737 0.67749 0.0
C859 C 0.8006 0.91871 0.70682 0.0
C860 C 0.87602 0.80319 0.77104 0.0
C861 C 0.94924 0.81569 0.75845 0.0
N862 N 0.89475 0.84069 0.72357 0.0
C863 C 0.86459 0.8243 0.74324 0.0
C864 C 0.93662 0.83679 0.73092 0.0
C865 C 0.91867 0.79889 0.77864 0.0
C866 C 0.85392 0.98392 0.61465 0.0
N867 N 0.8177 0.97236 0.63001 0.0
C868 C 0.86568 0.02639 0.61265 0.0
C869 C 0.83999 0.05711 0.6264 0.0
C870 C 0.80299 0.04507 0.6419 0.0
C871 C 0.79232 0.00229 0.64354 0.0
C872 C 0.69848 0.95355 0.58221 0.0
C873 C 0.71351 0.90584 0.63607 0.0
C874 C 0.73958 0.94639 0.59302 0.0
N875 N 0.74662 0.92306 0.61977 0.0
C876 C 0.67198 0.91233 0.62596 0.0
C877 C 0.6645 0.93641 0.59886 0.0
C878 C 0.80166 0.82355 0.65813 0.0
C879 C 0.97207 0.83741 0.62077 0.0
C880 C 0.91781 0.79601 0.66185 0.0
C881 C 0.94554 0.7725 0.64309 0.0
C882 C 0.97279 0.79342 0.62239 0.0
N883 N 0.91734 0.83914 0.66015 0.0
C884 C 0.94398 0.85989 0.63996 0.0
Co885 Co 0.58383 0.80255 0.13376 0.0
Co886 Co 0.62595 0.87688 0.18471 0.0
O887 O 0.59445 0.86045 0.14696 0.0
C888 C 0.62482 0.8428 0.07882 0.0
O889 O 0.6521 0.85812 0.09925 0.0
C890 C 0.54198 0.91357 0.19196 0.0
O891 O 0.52909 0.87484 0.1866 0.0
O892 O 0.59442 0.83633 0.21149 0.0
O893 O 0.57395 0.78407 0.17878 0.0
H894 H 0.70751 0.85238 0.28535 0.0
H895 H 0.53671 0.8727 0.10342 0.0
O896 O 0.59443 0.8196 0.08848 0.0
H897 H 0.42801 0.78211 0.15243 0.0
H898 H 0.52421 0.69103 0.06138 0.0
H899 H 0.60962 0.71797 0.15707 0.0
H900 H 0.50345 0.76277 0.15553 0.0
H901 H 0.53688 0.76396 0.07982 0.0
O902 O 0.58156 0.9214 0.193 0.0
H903 H 0.66947 0.83124 0.23683 0.0
H904 H 0.6474 0.95999 0.21375 0.0
H905 H 0.59747 0.64454 0.13966 0.0
H906 H 0.46161 0.89318 0.09968 0.0
H907 H 0.55447 0.63071 0.09148 0.0
H908 H 0.40672 0.84781 0.12442 0.0
O909 O 0.64444 0.78841 0.13847 0.0
H910 H 0.64266 0.99112 0.10283 0.0
H911 H 0.71742 0.89585 0.17645 0.0
H912 H 0.7585 0.94436 0.14259 0.0
H913 H 0.72107 0.99244 0.10544 0.0
H914 H 0.60284 0.94192 0.13699 0.0
H915 H 0.68522 0.98257 0.26209 0.0
H916 H 0.71552 0.92852 0.29828 0.0
O917 O 0.66959 0.8317 0.17668 0.0
C918 C 0.5782 0.80012 0.20643 0.0
C919 C 0.69443 0.87622 0.26977 0.0
C920 C 0.68191 0.94929 0.25672 0.0
N921 N 0.65654 0.89438 0.22235 0.0
C922 C 0.67306 0.86445 0.24217 0.0
C923 C 0.66055 0.93634 0.22939 0.0
C924 C 0.69885 0.91895 0.27704 0.0
C925 C 0.51294 0.85253 0.1139 0.0
N926 N 0.5244 0.81646 0.1295 0.0
C927 C 0.4705 0.86439 0.11184 0.0
C928 C 0.43971 0.83896 0.12578 0.0
C929 C 0.45165 0.80211 0.14152 0.0
C930 C 0.4944 0.79133 0.14321 0.0
C931 C 0.54286 0.69664 0.08248 0.0
C932 C 0.59056 0.71217 0.13626 0.0
C933 C 0.55016 0.73785 0.09301 0.0
N934 N 0.57349 0.74514 0.11972 0.0
C935 C 0.58393 0.67054 0.12643 0.0
C936 C 0.55985 0.66281 0.09938 0.0
C937 C 0.67324 0.80041 0.1576 0.0
C938 C 0.65932 0.97041 0.11899 0.0
C939 C 0.70092 0.91665 0.16032 0.0
C940 C 0.72435 0.94409 0.14124 0.0
C941 C 0.70332 0.97109 0.12042 0.0
N942 N 0.65778 0.91622 0.15879 0.0
C943 C 0.63693 0.94262 0.13848 0.0
C944 C 0.33565 0.11432 0.98916 0.0
C945 C 0.3656 0.14407 0.97871 0.0
H946 H 0.3052 0.08495 0.02882 0.0
C947 C 0.38908 0.16661 1.00139 0.0
H948 H 0.31719 0.09624 0.97231 0.0
C949 C 0.382 0.16033 0.03379 0.0
C950 C 0.35157 0.13108 0.04425 0.0
H951 H 0.41241 0.18974 0.99415 0.0
H952 H 0.40025 0.17863 0.05064 0.0
C953 C 0.32885 0.10775 0.02157 0.0
C954 C 0.32997 0.38984 0.50226 0.0
C955 C 0.35226 0.36643 0.4794 0.0
H956 H 0.31872 0.40105 0.55161 0.0
C957 C 0.38235 0.33668 0.48961 0.0
H958 H 0.30661 0.41303 0.49519 0.0
C959 C 0.38951 0.33 0.52196 0.0
C960 C 0.36644 0.35264 0.54482 0.0
H961 H 0.40026 0.31829 0.47261 0.0
H962 H 0.41256 0.3065 0.52902 0.0
C963 C 0.33684 0.38288 0.53461 0.0
C964 C 0.16169 0.38289 0.98997 0.0
C965 C 0.13216 0.35272 0.97953 0.0
H966 H 0.1914 0.41301 0.02962 0.0
C967 C 0.10868 0.33017 1.00221 0.0
H968 H 0.18012 0.401 0.97312 0.0
C969 C 0.11535 0.33688 0.03461 0.0
C970 C 0.14536 0.36657 0.04506 0.0
H971 H 0.08566 0.30674 0.99496 0.0
H972 H 0.09713 0.31856 0.05147 0.0
C973 C 0.16808 0.38988 0.02238 0.0
C974 C 0.10816 0.1682 0.52222 0.0
C975 C 0.13169 0.14567 0.54488 0.0
H976 H 0.09662 0.1799 0.47297 0.0
C977 C 0.16132 0.11563 0.5344 0.0
H978 H 0.08507 0.19155 0.52948 0.0
C979 C 0.16777 0.10875 0.50199 0.0
C980 C 0.145 0.13204 0.47933 0.0
H981 H 0.1798 0.09754 0.55124 0.0
H982 H 0.19118 0.08572 0.49473 0.0
C983 C 0.11488 0.1616 0.48981 0.0
C984 C 0.60717 0.8286 0.02178 0.0
C985 C 0.63037 0.85133 0.04452 0.0
H986 H 0.59609 0.81676 0.97249 0.0
C987 C 0.65986 0.88158 0.03415 0.0
H988 H 0.58419 0.8051 0.02897 0.0
C989 C 0.6665 0.88847 1.00176 0.0
C990 C 0.64408 0.86498 0.97902 0.0
H991 H 0.67808 0.89982 0.05105 0.0
H992 H 0.6898 0.91167 0.99458 0.0
C993 C 0.61409 0.83521 0.98939 0.0
C994 C 0.66853 0.60825 0.52186 0.0
C995 C 0.64604 0.63158 0.54466 0.0
H996 H 0.67998 0.59701 0.47254 0.0
C997 C 0.61581 0.66115 0.53436 0.0
H998 H 0.692 0.58521 0.52898 0.0
C999 C 0.60872 0.66773 0.50199 0.0
C1000 C 0.63197 0.64517 0.47919 0.0
H1001 H 0.59776 0.67947 0.55132 0.0
H1002 H 0.58556 0.69108 0.49487 0.0
C1003 C 0.66171 0.61511 0.48949 0.0
C1004 C 0.82968 0.608 1.00197 0.0
C1005 C 0.85239 0.63144 0.97936 0.0
H1006 H 0.81762 0.59664 0.05121 0.0
C1007 C 0.88237 0.6611 0.98989 0.0
H1008 H 0.80637 0.58489 0.99466 0.0
C1009 C 0.88903 0.66765 0.02231 0.0
C1010 C 0.86556 0.64498 0.04493 0.0
H1011 H 0.90059 0.67951 0.97309 0.0
H1012 H 0.91202 0.69107 0.02962 0.0
C1013 C 0.83605 0.61484 0.0344 0.0
C1014 C 0.83701 0.88264 0.49002 0.0
C1015 C 0.86655 0.85245 0.47962 0.0
H1016 H 0.80721 0.91278 0.52961 0.0
C1017 C 0.89 0.82994 0.50234 0.0
H1018 H 0.8186 0.90071 0.47313 0.0
C1019 C 0.88327 0.83669 0.53473 0.0
C1020 C 0.85323 0.86637 0.54513 0.0
H1021 H 0.91302 0.80649 0.49513 0.0
H1022 H 0.90145 0.81839 0.55162 0.0
C1023 C 0.83056 0.88966 0.52241 0.0
C1024 C 0.23571 0.26751 0.12943 0.0
C1025 C 0.22174 0.28486 0.15821 0.0
H1026 H 0.27148 0.21862 0.10675 0.0
C1027 C 0.23496 0.26662 0.18691 0.0
H1028 H 0.22611 0.28128 0.10703 0.0
C1029 C 0.26225 0.23176 0.18675 0.0
C1030 C 0.2756 0.21405 0.1579 0.0
H1031 H 0.22503 0.2799 0.20938 0.0
H1032 H 0.27203 0.21801 0.20911 0.0
C1033 C 0.26181 0.23198 0.12927 0.0
C1034 C 0.26706 0.2625 0.68701 0.0
C1035 C 0.2849 0.27592 0.65821 0.0
H1036 H 0.21878 0.22526 0.70946 0.0
C1037 C 0.2671 0.26221 0.62952 0.0
H1038 H 0.2807 0.27223 0.70941 0.0
C1039 C 0.23156 0.23612 0.62955 0.0
C1040 C 0.21405 0.2221 0.65826 0.0
H1041 H 0.28056 0.27194 0.60705 0.0
H1042 H 0.21789 0.2266 0.6071 0.0
C1043 C 0.23219 0.23523 0.68703 0.0
C1044 C 0.26146 0.26713 0.33727 0.0
C1045 C 0.27467 0.28509 0.36608 0.0
H1046 H 0.22432 0.21881 0.31477 0.0
C1047 C 0.26056 0.26755 0.39475 0.0
H1048 H 0.2715 0.28058 0.31487 0.0
C1049 C 0.23435 0.23209 0.39469 0.0
C1050 C 0.22061 0.21443 0.36596 0.0
H1051 H 0.27013 0.28109 0.41723 0.0
H1052 H 0.22457 0.21856 0.41713 0.0
C1053 C 0.23407 0.23235 0.33721 0.0
C1054 C 0.26636 0.23474 0.83688 0.0
C1055 C 0.28425 0.22103 0.86557 0.0
H1056 H 0.21834 0.27259 0.81471 0.0
C1057 C 0.26682 0.23484 0.89437 0.0
H1058 H 0.27973 0.22493 0.81441 0.0
C1059 C 0.23159 0.26133 0.89454 0.0
C1060 C 0.21405 0.27565 0.86593 0.0
H1061 H 0.28034 0.22487 0.91677 0.0
H1062 H 0.21818 0.27092 0.91707 0.0
C1063 C 0.23181 0.2624 0.83706 0.0
C1064 C 0.73526 0.76572 0.83706 0.0
C1065 C 0.72164 0.7835 0.86582 0.0
H1066 H 0.77303 0.71779 0.81471 0.0
C1067 C 0.73558 0.76598 0.89455 0.0
H1068 H 0.72536 0.77916 0.81463 0.0
C1069 C 0.76208 0.73074 0.89459 0.0
C1070 C 0.77628 0.71331 0.86591 0.0
H1071 H 0.7257 0.77941 0.91699 0.0
H1072 H 0.77175 0.71724 0.91706 0.0
C1073 C 0.76293 0.73117 0.83711 0.0
C1074 C 0.73101 0.7354 0.39471 0.0
C1075 C 0.71349 0.72156 0.36596 0.0
H1076 H 0.77994 0.77121 0.41732 0.0
C1077 C 0.73155 0.73493 0.33723 0.0
H1078 H 0.71738 0.72569 0.41714 0.0
C1079 C 0.76634 0.76229 0.33733 0.0
C1080 C 0.78418 0.77557 0.36617 0.0
H1081 H 0.71812 0.72509 0.31478 0.0
H1082 H 0.77992 0.77223 0.31496 0.0
C1083 C 0.76649 0.76158 0.39482 0.0
C1084 C 0.76324 0.76632 0.68714 0.0
C1085 C 0.7766 0.78438 0.65841 0.0
H1086 H 0.72608 0.71785 0.70943 0.0
C1087 C 0.76284 0.76677 0.62966 0.0
H1088 H 0.773 0.77981 0.70959 0.0
C1089 C 0.73677 0.73121 0.62957 0.0
C1090 C 0.72282 0.71349 0.65823 0.0
H1091 H 0.77254 0.78038 0.60723 0.0
H1092 H 0.72723 0.71769 0.60707 0.0
C1093 C 0.73599 0.73143 0.68705 0.0
C1094 C 0.765 0.73463 0.18696 0.0
C1095 C 0.78307 0.7213 0.15822 0.0
H1096 H 0.7166 0.77187 0.20925 0.0
C1097 C 0.76554 0.73516 0.12948 0.0
H1098 H 0.77843 0.72479 0.2094 0.0
C1099 C 0.73005 0.76131 0.12939 0.0
C1100 C 0.71233 0.77525 0.15804 0.0
H1101 H 0.77917 0.72548 0.10705 0.0
H1102 H 0.71657 0.77093 0.10689 0.0
C1103 C 0.73019 0.76197 0.18687 0.0
C1104 C 0.20406 0.06829 0.25898 0.0
C1105 C 0.22259 0.07005 0.2893 0.0
H1106 H 0.21391 0.06901 0.20883 0.0
C1107 C 0.26678 0.06784 0.29186 0.0
H1108 H 0.17004 0.06943 0.25618 0.0
C1109 C 0.29196 0.06803 0.26465 0.0
C1110 C 0.27344 0.06988 0.23434 0.0
H1111 H 0.2821 0.06884 0.31481 0.0
H1112 H 0.32598 0.06897 0.26745 0.0
C1113 C 0.22923 0.06793 0.23177 0.0
C1114 C 0.43146 0.29164 0.76464 0.0
C1115 C 0.42943 0.27338 0.73425 0.0
H1116 H 0.43053 0.2814 0.81475 0.0
C1117 C 0.43105 0.22918 0.73149 0.0
H1118 H 0.43078 0.32565 0.76759 0.0
C1119 C 0.43046 0.2038 0.75858 0.0
C1120 C 0.42881 0.22211 0.78898 0.0
H1121 H 0.42983 0.21406 0.70847 0.0
H1122 H 0.42902 0.16981 0.75563 0.0
C1123 C 0.43143 0.26626 0.79174 0.0
C1124 C 0.20413 0.431 0.26531 0.0
C1125 C 0.22262 0.4294 0.23498 0.0
H1126 H 0.21408 0.43008 0.31545 0.0
C1127 C 0.26679 0.43189 0.23237 0.0
H1128 H 0.17012 0.42966 0.26814 0.0
C1129 C 0.29201 0.4317 0.25954 0.0
C1130 C 0.27355 0.42958 0.28987 0.0
H1131 H 0.28207 0.43104 0.2094 0.0
H1132 H 0.32603 0.4309 0.25671 0.0
C1133 C 0.22934 0.43137 0.29249 0.0
C1134 C 0.06781 0.26823 0.7321 0.0
C1135 C 0.06964 0.22402 0.73473 0.0
H1136 H 0.06947 0.32747 0.75642 0.0
C1137 C 0.06762 0.20558 0.76507 0.0
H1138 H 0.06901 0.28347 0.70913 0.0
C1139 C 0.06745 0.23082 0.79223 0.0
C1140 C 0.06985 0.275 0.7896 0.0
H1141 H 0.06846 0.17156 0.76792 0.0
H1142 H 0.06836 0.21555 0.8152 0.0
C1143 C 0.06819 0.29346 0.75926 0.0
C1144 C 0.7669 0.93063 0.79222 0.0
C1145 C 0.72275 0.92801 0.78942 0.0
H1146 H 0.82632 0.93 0.76812 0.0
C1147 C 0.70448 0.9297 0.75901 0.0
H1148 H 0.78201 0.92971 0.81524 0.0
C1149 C 0.7299 0.93033 0.73194 0.0
C1150 C 0.77409 0.9287 0.73474 0.0
H1151 H 0.6705 0.92827 0.75604 0.0
H1152 H 0.71481 0.92913 0.70892 0.0
C1153 C 0.79232 0.93069 0.76515 0.0
C1154 C 0.56651 0.7674 0.29208 0.0
C1155 C 0.56861 0.7232 0.28952 0.0
H1156 H 0.56765 0.82657 0.26764 0.0
C1157 C 0.56651 0.70465 0.25922 0.0
H1158 H 0.56777 0.78272 0.31502 0.0
C1159 C 0.56599 0.7298 0.23201 0.0
C1160 C 0.56814 0.774 0.23454 0.0
H1161 H 0.56753 0.67063 0.25643 0.0
H1162 H 0.56686 0.71447 0.20907 0.0
C1163 C 0.56655 0.79255 0.26486 0.0
C1164 C 0.79457 0.56803 0.7588 0.0
C1165 C 0.77604 0.56917 0.78913 0.0
H1166 H 0.78466 0.5692 0.70866 0.0
C1167 C 0.73189 0.56617 0.7917 0.0
H1168 H 0.82857 0.56978 0.75599 0.0
C1169 C 0.7067 0.56626 0.76451 0.0
C1170 C 0.72516 0.5688 0.7342 0.0
H1171 H 0.71657 0.56665 0.81466 0.0
H1172 H 0.67266 0.56663 0.76732 0.0
C1173 C 0.76939 0.56757 0.7316 0.0
C1174 C 0.93001 0.7924 0.25939 0.0
C1175 C 0.92816 0.77398 0.28974 0.0
H1176 H 0.929 0.7824 0.20926 0.0
C1177 C 0.92996 0.72977 0.29238 0.0
H1178 H 0.92918 0.82642 0.25653 0.0
C1179 C 0.92941 0.70452 0.26522 0.0
C1180 C 0.92761 0.72297 0.23488 0.0
H1181 H 0.92887 0.71454 0.31535 0.0
H1182 H 0.92814 0.67052 0.26808 0.0
C1183 C 0.93002 0.76714 0.23223 0.0
C1184 C 0.43595 0.96787 0.19362 0.0
C1185 C 0.44693 0.01086 0.19435 0.0
H1186 H 0.45696 0.90403 0.19251 0.0
C1187 C 0.48995 0.02201 0.1959 0.0
H1188 H 0.40321 0.95798 0.19246 0.0
C1189 C 0.52129 0.99055 0.19593 0.0
C1190 C 0.51 0.94758 0.19441 0.0
H1191 H 0.49938 0.05491 0.1964 0.0
H1192 H 0.55422 -0.00013 0.19646 0.0
C1193 C 0.46696 0.93675 0.19366 0.0
C1194 C 0.50825 0.52169 0.69652 0.0
C1195 C 0.55122 0.51046 0.69474 0.0
H1196 H 0.44392 0.49969 0.69726 0.0
C1197 C 0.56209 0.46744 0.69381 0.0
H1198 H 0.4989 0.55461 0.69719 0.0
C1199 C 0.531 0.43639 0.69386 0.0
C1200 C 0.488 0.44731 0.69484 0.0
H1201 H 0.5948 0.45749 0.69248 0.0
H1202 H 0.54091 0.40367 0.69256 0.0
C1203 C 0.47682 0.49031 0.69657 0.0
C1204 C 0.05965 0.52948 0.19509 0.0
C1205 C 0.04885 0.48643 0.19544 0.0
H1206 H 0.03838 0.59322 0.19422 0.0
C1207 C 0.00588 0.47507 0.19666 0.0
H1208 H 0.09236 0.53953 0.19423 0.0
C1209 C 0.97438 0.50639 0.19666 0.0
C1210 C 0.98551 0.54943 0.19544 0.0
H1211 H 0.99659 0.44212 0.19688 0.0
H1212 H 0.94149 0.49693 0.19687 0.0
C1213 C 0.0285 0.56046 0.19509 0.0
C1214 C 0.93733 0.03014 0.69478 0.0
C1215 C 0.94822 0.98712 0.6955 0.0
H1216 H 0.95848 0.09392 0.69354 0.0
C1217 C 0.99121 0.97589 0.69698 0.0
H1218 H 0.90461 0.0401 0.69369 0.0
C1219 C 0.02263 0.00728 0.6969 0.0
C1220 C 0.01143 0.05027 0.69533 0.0
H1221 H 0.00057 0.94297 0.69748 0.0
H1222 H 0.05555 0.9979 0.69734 0.0
C1223 C 0.96842 0.06119 0.69469 0.0
C1224 C 0.52201 0.50673 0.32768 0.0
C1225 C 0.51089 0.54976 0.32903 0.0
H1226 H 0.49981 0.44246 0.3274 0.0
C1227 C 0.4679 0.56078 0.32955 0.0
H1228 H 0.55491 0.49728 0.32734 0.0
C1229 C 0.43676 0.5298 0.32959 0.0
C1230 C 0.44756 0.48675 0.3291 0.0
H1231 H 0.45803 0.59354 0.33053 0.0
H1232 H 0.40406 0.53984 0.33059 0.0
C1233 C 0.49052 0.4754 0.32771 0.0
C1234 C 0.96956 0.43784 0.82937 0.0
C1235 C 0.01258 0.44875 0.82916 0.0
H1236 H 0.90577 0.45894 0.83009 0.0
C1237 C 0.02384 0.49176 0.82806 0.0
H1238 H 0.95958 0.4051 0.83014 0.0
C1239 C 0.99244 0.52317 0.82803 0.0
C1240 C 0.94943 0.51193 0.82911 0.0
H1241 H 0.05677 0.50112 0.82796 0.0
H1242 H 0.00182 0.55609 0.82791 0.0
C1243 C 0.93851 0.4689 0.82934 0.0
C1244 C 0.02935 0.93723 0.3299 0.0
C1245 C 0.98629 0.948 0.32927 0.0
H1246 H 0.09308 0.95855 0.33093 0.0
C1247 C 0.97494 0.99096 0.32778 0.0
H1248 H 0.03939 0.90453 0.331 0.0
C1249 C 0.00624 0.02246 0.32774 0.0
C1250 C 0.04928 0.01138 0.32919 0.0
H1251 H 0.94199 0.00023 0.32736 0.0
H1252 H 0.99677 0.05535 0.32729 0.0
C1253 C 0.06032 0.96839 0.32986 0.0
C1254 C 0.50578 0.9737 0.82711 0.0
C1255 C 0.5488 0.98493 0.82822 0.0
H1256 H 0.44146 0.99578 0.82695 0.0
C1257 C 0.55973 0.02795 0.82832 0.0
H1258 H 0.49639 0.94078 0.82709 0.0
C1259 C 0.52869 0.05902 0.82824 0.0
C1260 C 0.48566 0.04814 0.82805 0.0
H1261 H 0.59248 0.0379 0.82907 0.0
H1262 H 0.53868 0.09176 0.82894 0.0
C1263 C 0.47439 0.00513 0.82703 0.0
loop_
_geom_bond_atom_site_label_1
_geom_bond_atom_site_label_2
_geom_bond_distance
_geom_bond_site_symmetry_2
_ccdc_geom_bond_type
Co0 O2 2.143 . S
Co0 O8 2.074 . S
Co0 O11 2.093 . S
Co0 O24 2.097 . S
Co0 N41 2.151 . S
Co0 N49 2.214 . S
Co1 O2 2.160 . S
Co1 O7 2.058 . S
Co1 O17 2.057 . S
Co1 O32 2.037 . S
Co1 N36 2.145 . S
Co1 N57 2.257 . S
O2 Co0 2.143 . S
O2 Co1 2.160 . S
C3 O4 1.278 . S
C3 O11 1.224 . S
O4 C3 1.278 . S
C5 O6 1.245 . S
C5 O17 1.232 . S
O6 C5 1.245 . S
O7 Co1 2.058 . S
O7 C33 1.269 . S
O8 Co0 2.074 . S
O8 C33 1.257 . S
H9 C34 0.930 . S
H10 C40 0.930 . S
O11 Co0 2.093 . S
O11 C3 1.224 . S
H12 C44 0.929 . S
H13 C46 0.930 . S
H14 C47 0.930 . S
H15 C45 0.929 . S
H16 C48 0.928 . S
O17 Co1 2.057 . S
O17 C5 1.232 . S
H18 C37 0.929 . S
H19 C38 0.929 . S
H20 C50 0.931 . S
H21 C42 0.929 . S
H22 C51 0.930 . S
H23 C43 0.931 . S
O24 Co0 2.097 . S
O24 C52 1.214 . S
H25 C53 0.929 . S
H26 C54 0.929 . S
H27 C55 0.930 . S
H28 C56 0.929 . S
H29 C58 0.930 . S
H30 C35 0.930 . S
H31 C39 0.930 . S
O32 Co1 2.037 . S
O32 C52 1.234 . S
C33 O7 1.269 . S
C33 O8 1.257 . S
C34 H9 0.930 . S
C34 C37 1.388 . S
C34 C39 1.418 . S
C35 H30 0.930 . S
C35 C38 1.404 . S
C35 C39 1.353 . S
N36 Co1 2.145 . S
N36 C37 1.397 . S
N36 C38 1.334 . S
C37 H18 0.929 . S
C37 C34 1.388 . S
C37 N36 1.397 . S
C38 H19 0.929 . S
C38 C35 1.404 . S
C38 N36 1.334 . S
C39 H31 0.930 . S
C39 C34 1.418 . S
C39 C35 1.353 . S
C40 H10 0.930 . S
C40 N41 1.330 . S
C40 C42 1.446 1_545 S
N41 Co0 2.151 . S
N41 C40 1.330 . S
N41 C45 1.418 . S
C42 H21 0.929 . S
C42 C40 1.446 1_565 S
C42 C43 1.332 . S
C43 H23 0.931 . S
C43 C42 1.332 . S
C43 C44 1.267 . S
C44 H12 0.929 . S
C44 C43 1.267 . S
C44 C45 1.251 1_565 S
C45 H15 0.929 . S
C45 N41 1.418 . S
C45 C44 1.251 1_545 S
C46 H13 0.930 . S
C46 C48 1.406 . S
C46 C51 1.261 . S
C47 H14 0.930 . S
C47 N49 1.325 . S
C47 C50 1.357 . S
C48 H16 0.928 . S
C48 C46 1.406 . S
C48 N49 1.261 . S
N49 Co0 2.214 . S
N49 C47 1.325 . S
N49 C48 1.261 . S
C50 H20 0.931 . S
C50 C47 1.357 . S
C50 C51 1.312 . S
C51 H22 0.930 . S
C51 C46 1.261 . S
C51 C50 1.312 . S
C52 O24 1.214 . S
C52 O32 1.234 . S
C53 H25 0.929 . S
C53 C56 1.391 . S
C53 C58 1.391 . S
C54 H26 0.929 . S
C54 C55 1.390 . S
C54 N57 1.391 . S
C55 H27 0.930 . S
C55 C54 1.390 . S
C55 C56 1.392 . S
C56 H28 0.929 . S
C56 C53 1.391 . S
C56 C55 1.392 . S
N57 Co1 2.257 . S
N57 C54 1.391 . S
N57 C58 1.388 . S
C58 H29 0.930 . S
C58 C53 1.391 . S
C58 N57 1.388 . S
Co59 O61 2.143 . S
Co59 O67 2.074 . S
Co59 O70 2.093 . S
Co59 O83 2.097 . S
Co59 N100 2.151 . S
Co59 N108 2.214 . S
Co60 O61 2.160 . S
Co60 O66 2.058 . S
Co60 O76 2.057 . S
Co60 O91 2.037 . S
Co60 N95 2.145 . S
Co60 N116 2.257 . S
O61 Co59 2.143 . S
O61 Co60 2.160 . S
C62 O63 1.278 . S
C62 O70 1.224 . S
O63 C62 1.278 . S
C64 O65 1.245 . S
C64 O76 1.232 . S
O65 C64 1.245 . S
O66 Co60 2.058 . S
O66 C92 1.269 . S
O67 Co59 2.074 . S
O67 C92 1.257 . S
H68 C93 0.930 . S
H69 C99 0.930 . S
O70 Co59 2.093 . S
O70 C62 1.224 . S
H71 C103 0.929 . S
H72 C105 0.930 . S
H73 C106 0.930 . S
H74 C104 0.929 . S
H75 C107 0.928 . S
O76 Co60 2.057 . S
O76 C64 1.232 . S
H77 C96 0.929 . S
H78 C97 0.929 . S
H79 C109 0.931 . S
H80 C101 0.929 . S
H81 C110 0.930 . S
H82 C102 0.931 . S
O83 Co59 2.097 . S
O83 C111 1.214 . S
H84 C112 0.929 . S
H85 C113 0.929 . S
H86 C114 0.930 . S
H87 C115 0.929 . S
H88 C117 0.930 . S
H89 C94 0.930 . S
H90 C98 0.930 . S
O91 Co60 2.037 . S
O91 C111 1.234 . S
C92 O66 1.269 . S
C92 O67 1.257 . S
C93 H68 0.930 . S
C93 C96 1.388 . S
C93 C98 1.418 . S
C94 H89 0.930 . S
C94 C97 1.404 . S
C94 C98 1.353 . S
N95 Co60 2.145 . S
N95 C96 1.397 . S
N95 C97 1.334 . S
C96 H77 0.929 . S
C96 C93 1.388 . S
C96 N95 1.397 . S
C97 H78 0.929 . S
C97 C94 1.404 . S
C97 N95 1.334 . S
C98 H90 0.930 . S
C98 C93 1.418 . S
C98 C94 1.353 . S
C99 H69 0.930 . S
C99 N100 1.330 . S
C99 C101 1.446 . S
N100 Co59 2.151 . S
N100 C99 1.330 . S
N100 C104 1.418 . S
C101 H80 0.929 . S
C101 C99 1.446 . S
C101 C102 1.332 . S
C102 H82 0.931 . S
C102 C101 1.332 . S
C102 C103 1.267 . S
C103 H71 0.929 . S
C103 C102 1.267 . S
C103 C104 1.251 . S
C104 H74 0.929 . S
C104 N100 1.418 . S
C104 C103 1.251 . S
C105 H72 0.930 . S
C105 C107 1.406 . S
C105 C110 1.261 . S
C106 H73 0.930 . S
C106 N108 1.325 . S
C106 C109 1.357 . S
C107 H75 0.928 . S
C107 C105 1.406 . S
C107 N108 1.261 . S
N108 Co59 2.214 . S
N108 C106 1.325 . S
N108 C107 1.261 . S
C109 H79 0.931 . S
C109 C106 1.357 . S
C109 C110 1.312 . S
C110 H81 0.930 . S
C110 C105 1.261 . S
C110 C109 1.312 . S
C111 O83 1.214 . S
C111 O91 1.234 . S
C112 H84 0.929 . S
C112 C115 1.391 . S
C112 C117 1.391 . S
C113 H85 0.929 . S
C113 C114 1.390 . S
C113 N116 1.391 . S
C114 H86 0.930 . S
C114 C113 1.390 . S
C114 C115 1.392 . S
C115 H87 0.929 . S
C115 C112 1.391 . S
C115 C114 1.392 . S
N116 Co60 2.257 . S
N116 C113 1.391 . S
N116 C117 1.388 . S
C117 H88 0.930 . S
C117 C112 1.391 . S
C117 N116 1.388 . S
Co118 O120 2.143 . S
Co118 O126 2.074 . S
Co118 O129 2.093 . S
Co118 O142 2.097 . S
Co118 N159 2.151 . S
Co118 N167 2.214 . S
Co119 O120 2.160 . S
Co119 O125 2.058 . S
Co119 O135 2.057 . S
Co119 O150 2.037 . S
Co119 N154 2.145 . S
Co119 N175 2.257 . S
O120 Co118 2.143 . S
O120 Co119 2.160 . S
C121 O122 1.278 . S
C121 O129 1.224 . S
O122 C121 1.278 . S
C123 O124 1.245 . S
C123 O135 1.232 . S
O124 C123 1.245 . S
O125 Co119 2.058 . S
O125 C151 1.269 . S
O126 Co118 2.074 . S
O126 C151 1.257 . S
H127 C152 0.930 . S
H128 C158 0.930 . S
O129 Co118 2.093 . S
O129 C121 1.224 . S
H130 C162 0.929 . S
H131 C164 0.930 . S
H132 C165 0.930 . S
H133 C163 0.929 . S
H134 C166 0.928 . S
O135 Co119 2.057 . S
O135 C123 1.232 . S
H136 C155 0.929 . S
H137 C156 0.929 . S
H138 C168 0.931 . S
H139 C160 0.929 . S
H140 C169 0.930 . S
H141 C161 0.931 . S
O142 Co118 2.097 . S
O142 C170 1.214 . S
H143 C171 0.929 . S
H144 C172 0.929 . S
H145 C173 0.930 . S
H146 C174 0.929 . S
H147 C176 0.930 . S
H148 C153 0.930 . S
H149 C157 0.930 . S
O150 Co119 2.037 . S
O150 C170 1.234 . S
C151 O125 1.269 . S
C151 O126 1.257 . S
C152 H127 0.930 . S
C152 C155 1.388 . S
C152 C157 1.418 . S
C153 H148 0.930 . S
C153 C156 1.404 . S
C153 C157 1.353 . S
N154 Co119 2.145 . S
N154 C155 1.397 . S
N154 C156 1.334 . S
C155 H136 0.929 . S
C155 C152 1.388 . S
C155 N154 1.397 . S
C156 H137 0.929 . S
C156 C153 1.404 . S
C156 N154 1.334 . S
C157 H149 0.930 . S
C157 C152 1.418 . S
C157 C153 1.353 . S
C158 H128 0.930 . S
C158 N159 1.330 . S
C158 C160 1.446 . S
N159 Co118 2.151 . S
N159 C158 1.330 . S
N159 C163 1.418 . S
C160 H139 0.929 . S
C160 C158 1.446 . S
C160 C161 1.332 . S
C161 H141 0.931 . S
C161 C160 1.332 . S
C161 C162 1.267 . S
C162 H130 0.929 . S
C162 C161 1.267 . S
C162 C163 1.251 . S
C163 H133 0.929 . S
C163 N159 1.418 . S
C163 C162 1.251 . S
C164 H131 0.930 . S
C164 C166 1.406 . S
C164 C169 1.261 . S
C165 H132 0.930 . S
C165 N167 1.325 . S
C165 C168 1.357 . S
C166 H134 0.928 . S
C166 C164 1.406 . S
C166 N167 1.261 . S
N167 Co118 2.214 . S
N167 C165 1.325 . S
N167 C166 1.261 . S
C168 H138 0.931 . S
C168 C165 1.357 . S
C168 C169 1.312 . S
C169 H140 0.930 . S
C169 C164 1.261 . S
C169 C168 1.312 . S
C170 O142 1.214 . S
C170 O150 1.234 . S
C171 H143 0.929 . S
C171 C174 1.391 . S
C171 C176 1.391 . S
C172 H144 0.929 . S
C172 C173 1.390 . S
C172 N175 1.391 . S
C173 H145 0.930 . S
C173 C172 1.390 . S
C173 C174 1.392 . S
C174 H146 0.929 . S
C174 C171 1.391 . S
C174 C173 1.392 . S
N175 Co119 2.257 . S
N175 C172 1.391 . S
N175 C176 1.388 . S
C176 H147 0.930 . S
C176 C171 1.391 . S
C176 N175 1.388 . S
Co177 O179 2.143 . S
Co177 O185 2.074 . S
Co177 O188 2.093 . S
Co177 O201 2.097 . S
Co177 N218 2.151 . S
Co177 N226 2.214 . S
Co178 O179 2.160 . S
Co178 O184 2.058 . S
Co178 O194 2.057 . S
Co178 O209 2.037 . S
Co178 N213 2.145 . S
Co178 N234 2.257 . S
O179 Co177 2.143 . S
O179 Co178 2.160 . S
C180 O181 1.278 . S
C180 O188 1.224 . S
O181 C180 1.278 . S
C182 O183 1.245 . S
C182 O194 1.232 . S
O183 C182 1.245 . S
O184 Co178 2.058 . S
O184 C210 1.269 . S
O185 Co177 2.074 . S
O185 C210 1.257 . S
H186 C211 0.930 . S
H187 C217 0.930 . S
O188 Co177 2.093 . S
O188 C180 1.224 . S
H189 C221 0.929 . S
H190 C223 0.930 . S
H191 C224 0.930 . S
H192 C222 0.929 . S
H193 C225 0.928 . S
O194 Co178 2.057 . S
O194 C182 1.232 . S
H195 C214 0.929 . S
H196 C215 0.929 . S
H197 C227 0.931 . S
H198 C219 0.929 . S
H199 C228 0.930 . S
H200 C220 0.931 . S
O201 Co177 2.097 . S
O201 C229 1.214 . S
H202 C230 0.929 . S
H203 C231 0.929 . S
H204 C232 0.930 . S
H205 C233 0.929 . S
H206 C235 0.930 . S
H207 C212 0.930 . S
H208 C216 0.930 . S
O209 Co178 2.037 . S
O209 C229 1.234 . S
C210 O184 1.269 . S
C210 O185 1.257 . S
C211 H186 0.930 . S
C211 C214 1.388 . S
C211 C216 1.418 . S
C212 H207 0.930 . S
C212 C215 1.404 . S
C212 C216 1.353 . S
N213 Co178 2.145 . S
N213 C214 1.397 . S
N213 C215 1.334 . S
C214 H195 0.929 . S
C214 C211 1.388 . S
C214 N213 1.397 . S
C215 H196 0.929 . S
C215 C212 1.404 . S
C215 N213 1.334 . S
C216 H208 0.930 . S
C216 C211 1.418 . S
C216 C212 1.353 . S
C217 H187 0.930 . S
C217 N218 1.330 . S
C217 C219 1.446 1_455 S
N218 Co177 2.151 . S
N218 C217 1.330 . S
N218 C222 1.418 . S
C219 H198 0.929 . S
C219 C217 1.446 1_655 S
C219 C220 1.332 . S
C220 H200 0.931 . S
C220 C219 1.332 . S
C220 C221 1.267 . S
C221 H189 0.929 . S
C221 C220 1.267 . S
C221 C222 1.251 1_655 S
C222 H192 0.929 . S
C222 N218 1.418 . S
C222 C221 1.251 1_455 S
C223 H190 0.930 . S
C223 C225 1.406 . S
C223 C228 1.261 . S
C224 H191 0.930 . S
C224 N226 1.325 . S
C224 C227 1.357 . S
C225 H193 0.928 . S
C225 C223 1.406 . S
C225 N226 1.261 . S
N226 Co177 2.214 . S
N226 C224 1.325 . S
N226 C225 1.261 . S
C227 H197 0.931 . S
C227 C224 1.357 . S
C227 C228 1.312 . S
C228 H199 0.930 . S
C228 C223 1.261 . S
C228 C227 1.312 . S
C229 O201 1.214 . S
C229 O209 1.234 . S
C230 H202 0.929 . S
C230 C233 1.391 . S
C230 C235 1.391 . S
C231 H203 0.929 . S
C231 C232 1.390 . S
C231 N234 1.391 . S
C232 H204 0.930 . S
C232 C231 1.390 . S
C232 C233 1.392 . S
C233 H205 0.929 . S
C233 C230 1.391 . S
C233 C232 1.392 . S
N234 Co178 2.257 . S
N234 C231 1.391 . S
N234 C235 1.388 . S
C235 H206 0.930 . S
C235 C230 1.391 . S
C235 N234 1.388 . S
Co236 O238 2.143 . S
Co236 O244 2.074 . S
Co236 O247 2.093 . S
Co236 O260 2.097 . S
Co236 N277 2.151 . S
Co236 N285 2.214 . S
Co237 O238 2.160 . S
Co237 O243 2.058 . S
Co237 O253 2.057 . S
Co237 O268 2.037 . S
Co237 N272 2.145 . S
Co237 N293 2.257 . S
O238 Co236 2.143 . S
O238 Co237 2.160 . S
C239 O240 1.278 . S
C239 O247 1.224 . S
O240 C239 1.278 . S
C241 O242 1.245 . S
C241 O253 1.232 . S
O242 C241 1.245 . S
O243 Co237 2.058 . S
O243 C269 1.269 . S
O244 Co236 2.074 . S
O244 C269 1.257 . S
H245 C270 0.930 . S
H246 C276 0.930 . S
O247 Co236 2.093 . S
O247 C239 1.224 . S
H248 C280 0.929 . S
H249 C282 0.930 . S
H250 C283 0.930 . S
H251 C281 0.929 . S
H252 C284 0.928 . S
O253 Co237 2.057 . S
O253 C241 1.232 . S
H254 C273 0.929 . S
H255 C274 0.929 . S
H256 C286 0.931 . S
H257 C278 0.929 . S
H258 C287 0.930 . S
H259 C279 0.931 . S
O260 Co236 2.097 . S
O260 C288 1.214 . S
H261 C289 0.929 . S
H262 C290 0.929 . S
H263 C291 0.930 . S
H264 C292 0.929 . S
H265 C294 0.930 . S
H266 C271 0.930 . S
H267 C275 0.930 . S
O268 Co237 2.037 . S
O268 C288 1.234 . S
C269 O243 1.269 . S
C269 O244 1.257 . S
C270 H245 0.930 . S
C270 C273 1.388 . S
C270 C275 1.418 . S
C271 H266 0.930 . S
C271 C274 1.404 . S
C271 C275 1.353 . S
N272 Co237 2.145 . S
N272 C273 1.397 . S
N272 C274 1.334 . S
C273 H254 0.929 . S
C273 C270 1.388 . S
C273 N272 1.397 . S
C274 H255 0.929 . S
C274 C271 1.404 . S
C274 N272 1.334 . S
C275 H267 0.930 . S
C275 C270 1.418 . S
C275 C271 1.353 . S
C276 H246 0.930 . S
C276 N277 1.330 . S
C276 C278 1.446 . S
N277 Co236 2.151 . S
N277 C276 1.330 . S
N277 C281 1.418 . S
C278 H257 0.929 . S
C278 C276 1.446 . S
C278 C279 1.332 . S
C279 H259 0.931 . S
C279 C278 1.332 . S
C279 C280 1.267 . S
C280 H248 0.929 . S
C280 C279 1.267 . S
C280 C281 1.251 . S
C281 H251 0.929 . S
C281 N277 1.418 . S
C281 C280 1.251 . S
C282 H249 0.930 . S
C282 C284 1.406 . S
C282 C287 1.261 . S
C283 H250 0.930 . S
C283 N285 1.325 . S
C283 C286 1.357 . S
C284 H252 0.928 . S
C284 C282 1.406 . S
C284 N285 1.261 . S
N285 Co236 2.214 . S
N285 C283 1.325 . S
N285 C284 1.261 . S
C286 H256 0.931 . S
C286 C283 1.357 . S
C286 C287 1.312 . S
C287 H258 0.930 . S
C287 C282 1.261 . S
C287 C286 1.312 . S
C288 O260 1.214 . S
C288 O268 1.234 . S
C289 H261 0.929 . S
C289 C292 1.391 . S
C289 C294 1.391 . S
C290 H262 0.929 . S
C290 C291 1.390 . S
C290 N293 1.391 . S
C291 H263 0.930 . S
C291 C290 1.390 . S
C291 C292 1.392 . S
C292 H264 0.929 . S
C292 C289 1.391 . S
C292 C291 1.392 . S
N293 Co237 2.257 . S
N293 C290 1.391 . S
N293 C294 1.388 . S
C294 H265 0.930 . S
C294 C289 1.391 . S
C294 N293 1.388 . S
Co295 O297 2.143 . S
Co295 O303 2.074 . S
Co295 O306 2.093 . S
Co295 O319 2.097 . S
Co295 N336 2.151 . S
Co295 N344 2.214 . S
Co296 O297 2.160 . S
Co296 O302 2.058 . S
Co296 O312 2.057 . S
Co296 O327 2.037 . S
Co296 N331 2.145 . S
Co296 N352 2.257 . S
O297 Co295 2.143 . S
O297 Co296 2.160 . S
C298 O299 1.278 . S
C298 O306 1.224 . S
O299 C298 1.278 . S
C300 O301 1.245 . S
C300 O312 1.232 . S
O301 C300 1.245 . S
O302 Co296 2.058 . S
O302 C328 1.269 . S
O303 Co295 2.074 . S
O303 C328 1.257 . S
H304 C329 0.930 . S
H305 C335 0.930 . S
O306 Co295 2.093 . S
O306 C298 1.224 . S
H307 C339 0.929 . S
H308 C341 0.930 . S
H309 C342 0.930 . S
H310 C340 0.929 . S
H311 C343 0.928 . S
O312 Co296 2.057 . S
O312 C300 1.232 . S
H313 C332 0.929 . S
H314 C333 0.929 . S
H315 C345 0.931 . S
H316 C337 0.929 . S
H317 C346 0.930 . S
H318 C338 0.931 . S
O319 Co295 2.097 . S
O319 C347 1.214 . S
H320 C348 0.929 . S
H321 C349 0.929 . S
H322 C350 0.930 . S
H323 C351 0.929 . S
H324 C353 0.930 . S
H325 C330 0.930 . S
H326 C334 0.930 . S
O327 Co296 2.037 . S
O327 C347 1.234 . S
C328 O302 1.269 . S
C328 O303 1.257 . S
C329 H304 0.930 . S
C329 C332 1.388 . S
C329 C334 1.418 . S
C330 H325 0.930 . S
C330 C333 1.404 . S
C330 C334 1.353 . S
N331 Co296 2.145 . S
N331 C332 1.397 . S
N331 C333 1.334 . S
C332 H313 0.929 . S
C332 C329 1.388 . S
C332 N331 1.397 . S
C333 H314 0.929 . S
C333 C330 1.404 . S
C333 N331 1.334 . S
C334 H326 0.930 . S
C334 C329 1.418 . S
C334 C330 1.353 . S
C335 H305 0.930 . S
C335 N336 1.330 . S
C335 C337 1.446 1_455 S
N336 Co295 2.151 . S
N336 C335 1.330 . S
N336 C340 1.418 . S
C337 H316 0.929 . S
C337 C335 1.446 1_655 S
C337 C338 1.332 . S
C338 H318 0.931 . S
C338 C337 1.332 . S
C338 C339 1.267 . S
C339 H307 0.929 . S
C339 C338 1.267 . S
C339 C340 1.251 1_655 S
C340 H310 0.929 . S
C340 N336 1.418 . S
C340 C339 1.251 1_455 S
C341 H308 0.930 . S
C341 C343 1.406 . S
C341 C346 1.261 . S
C342 H309 0.930 . S
C342 N344 1.325 . S
C342 C345 1.357 . S
C343 H311 0.928 . S
C343 C341 1.406 . S
C343 N344 1.261 . S
N344 Co295 2.214 . S
N344 C342 1.325 . S
N344 C343 1.261 . S
C345 H315 0.931 . S
C345 C342 1.357 . S
C345 C346 1.312 . S
C346 H317 0.930 . S
C346 C341 1.261 . S
C346 C345 1.312 . S
C347 O319 1.214 . S
C347 O327 1.234 . S
C348 H320 0.929 . S
C348 C351 1.391 . S
C348 C353 1.391 . S
C349 H321 0.929 . S
C349 C350 1.390 . S
C349 N352 1.391 . S
C350 H322 0.930 . S
C350 C349 1.390 . S
C350 C351 1.392 . S
C351 H323 0.929 . S
C351 C348 1.391 . S
C351 C350 1.392 . S
N352 Co296 2.257 . S
N352 C349 1.391 . S
N352 C353 1.388 . S
C353 H324 0.930 . S
C353 C348 1.391 . S
C353 N352 1.388 . S
Co354 O356 2.143 . S
Co354 O362 2.074 . S
Co354 O365 2.093 . S
Co354 O378 2.097 . S
Co354 N395 2.151 . S
Co354 N403 2.214 . S
Co355 O356 2.160 . S
Co355 O361 2.058 . S
Co355 O371 2.057 . S
Co355 O386 2.037 . S
Co355 N390 2.145 . S
Co355 N411 2.257 . S
O356 Co354 2.143 . S
O356 Co355 2.160 . S
C357 O358 1.278 . S
C357 O365 1.224 . S
O358 C357 1.278 . S
C359 O360 1.245 . S
C359 O371 1.232 . S
O360 C359 1.245 . S
O361 Co355 2.058 . S
O361 C387 1.269 . S
O362 Co354 2.074 . S
O362 C387 1.257 . S
H363 C388 0.930 . S
H364 C394 0.930 . S
O365 Co354 2.093 . S
O365 C357 1.224 . S
H366 C398 0.929 . S
H367 C400 0.930 . S
H368 C401 0.930 . S
H369 C399 0.929 . S
H370 C402 0.928 . S
O371 Co355 2.057 . S
O371 C359 1.232 . S
H372 C391 0.929 . S
H373 C392 0.929 . S
H374 C404 0.931 . S
H375 C396 0.929 . S
H376 C405 0.930 . S
H377 C397 0.931 . S
O378 Co354 2.097 . S
O378 C406 1.214 . S
H379 C407 0.929 . S
H380 C408 0.929 . S
H381 C409 0.930 . S
H382 C410 0.929 . S
H383 C412 0.930 . S
H384 C389 0.930 . S
H385 C393 0.930 . S
O386 Co355 2.037 . S
O386 C406 1.234 . S
C387 O361 1.269 . S
C387 O362 1.257 . S
C388 H363 0.930 . S
C388 C391 1.388 . S
C388 C393 1.418 . S
C389 H384 0.930 . S
C389 C392 1.404 . S
C389 C393 1.353 . S
N390 Co355 2.145 . S
N390 C391 1.397 . S
N390 C392 1.334 . S
C391 H372 0.929 . S
C391 C388 1.388 . S
C391 N390 1.397 . S
C392 H373 0.929 . S
C392 C389 1.404 . S
C392 N390 1.334 . S
C393 H385 0.930 . S
C393 C388 1.418 . S
C393 C389 1.353 . S
C394 H364 0.930 . S
C394 N395 1.330 . S
C394 C396 1.446 1_545 S
N395 Co354 2.151 . S
N395 C394 1.330 . S
N395 C399 1.418 . S
C396 H375 0.929 . S
C396 C394 1.446 1_565 S
C396 C397 1.332 . S
C397 H377 0.931 . S
C397 C396 1.332 . S
C397 C398 1.267 . S
C398 H366 0.929 . S
C398 C397 1.267 . S
C398 C399 1.251 1_565 S
C399 H369 0.929 . S
C399 N395 1.418 . S
C399 C398 1.251 1_545 S
C400 H367 0.930 . S
C400 C402 1.406 . S
C400 C405 1.261 . S
C401 H368 0.930 . S
C401 N403 1.325 . S
C401 C404 1.357 . S
C402 H370 0.928 . S
C402 C400 1.406 . S
C402 N403 1.261 . S
N403 Co354 2.214 . S
N403 C401 1.325 . S
N403 C402 1.261 . S
C404 H374 0.931 . S
C404 C401 1.357 . S
C404 C405 1.312 . S
C405 H376 0.930 . S
C405 C400 1.261 . S
C405 C404 1.312 . S
C406 O378 1.214 . S
C406 O386 1.234 . S
C407 H379 0.929 . S
C407 C410 1.391 . S
C407 C412 1.391 . S
C408 H380 0.929 . S
C408 C409 1.390 . S
C408 N411 1.391 . S
C409 H381 0.930 . S
C409 C408 1.390 . S
C409 C410 1.392 . S
C410 H382 0.929 . S
C410 C407 1.391 . S
C410 C409 1.392 . S
N411 Co355 2.257 . S
N411 C408 1.391 . S
N411 C412 1.388 . S
C412 H383 0.930 . S
C412 C407 1.391 . S
C412 N411 1.388 . S
Co413 O415 2.143 . S
Co413 O421 2.074 . S
Co413 O424 2.093 . S
Co413 O437 2.097 . S
Co413 N454 2.151 . S
Co413 N462 2.214 . S
Co414 O415 2.160 . S
Co414 O420 2.058 . S
Co414 O430 2.057 . S
Co414 O445 2.037 . S
Co414 N449 2.145 . S
Co414 N470 2.257 . S
O415 Co413 2.143 . S
O415 Co414 2.160 . S
C416 O417 1.278 . S
C416 O424 1.224 . S
O417 C416 1.278 . S
C418 O419 1.245 . S
C418 O430 1.232 . S
O419 C418 1.245 . S
O420 Co414 2.058 . S
O420 C446 1.269 . S
O421 Co413 2.074 . S
O421 C446 1.257 . S
H422 C447 0.930 . S
H423 C453 0.930 . S
O424 Co413 2.093 . S
O424 C416 1.224 . S
H425 C457 0.929 . S
H426 C459 0.930 . S
H427 C460 0.930 . S
H428 C458 0.929 . S
H429 C461 0.928 . S
O430 Co414 2.057 . S
O430 C418 1.232 . S
H431 C450 0.929 . S
H432 C451 0.929 . S
H433 C463 0.931 . S
H434 C455 0.929 . S
H435 C464 0.930 . S
H436 C456 0.931 . S
O437 Co413 2.097 . S
O437 C465 1.214 . S
H438 C466 0.929 . S
H439 C467 0.929 . S
H440 C468 0.930 . S
H441 C469 0.929 . S
H442 C471 0.930 . S
H443 C448 0.930 . S
H444 C452 0.930 . S
O445 Co414 2.037 . S
O445 C465 1.234 . S
C446 O420 1.269 . S
C446 O421 1.257 . S
C447 H422 0.930 . S
C447 C450 1.388 . S
C447 C452 1.418 . S
C448 H443 0.930 . S
C448 C451 1.404 . S
C448 C452 1.353 . S
N449 Co414 2.145 . S
N449 C450 1.397 . S
N449 C451 1.334 . S
C450 H431 0.929 . S
C450 C447 1.388 . S
C450 N449 1.397 . S
C451 H432 0.929 . S
C451 C448 1.404 . S
C451 N449 1.334 . S
C452 H444 0.930 . S
C452 C447 1.418 . S
C452 C448 1.353 . S
C453 H423 0.930 . S
C453 N454 1.330 . S
C453 C455 1.446 . S
N454 Co413 2.151 . S
N454 C453 1.330 . S
N454 C458 1.418 . S
C455 H434 0.929 . S
C455 C453 1.446 . S
C455 C456 1.332 . S
C456 H436 0.931 . S
C456 C455 1.332 . S
C456 C457 1.267 . S
C457 H425 0.929 . S
C457 C456 1.267 . S
C457 C458 1.251 . S
C458 H428 0.929 . S
C458 N454 1.418 . S
C458 C457 1.251 . S
C459 H426 0.930 . S
C459 C461 1.406 . S
C459 C464 1.261 . S
C460 H427 0.930 . S
C460 N462 1.325 . S
C460 C463 1.357 . S
C461 H429 0.928 . S
C461 C459 1.406 . S
C461 N462 1.261 . S
N462 Co413 2.214 . S
N462 C460 1.325 . S
N462 C461 1.261 . S
C463 H433 0.931 . S
C463 C460 1.357 . S
C463 C464 1.312 . S
C464 H435 0.930 . S
C464 C459 1.261 . S
C464 C463 1.312 . S
C465 O437 1.214 . S
C465 O445 1.234 . S
C466 H438 0.929 . S
C466 C469 1.391 . S
C466 C471 1.391 . S
C467 H439 0.929 . S
C467 C468 1.390 . S
C467 N470 1.391 . S
C468 H440 0.930 . S
C468 C467 1.390 . S
C468 C469 1.392 . S
C469 H441 0.929 . S
C469 C466 1.391 . S
C469 C468 1.392 . S
N470 Co414 2.257 . S
N470 C467 1.391 . S
N470 C471 1.388 . S
C471 H442 0.930 . S
C471 C466 1.391 . S
C471 N470 1.388 . S
Co472 O474 2.143 . S
Co472 O480 2.074 . S
Co472 O483 2.093 . S
Co472 O496 2.097 . S
Co472 N513 2.151 . S
Co472 N521 2.214 . S
Co473 O474 2.160 . S
Co473 O479 2.058 . S
Co473 O489 2.057 . S
Co473 O504 2.037 . S
Co473 N508 2.145 . S
Co473 N529 2.257 . S
O474 Co472 2.143 . S
O474 Co473 2.160 . S
C475 O476 1.278 . S
C475 O483 1.224 . S
O476 C475 1.278 . S
C477 O478 1.245 . S
C477 O489 1.232 . S
O478 C477 1.245 . S
O479 Co473 2.058 . S
O479 C505 1.269 . S
O480 Co472 2.074 . S
O480 C505 1.257 . S
H481 C506 0.930 . S
H482 C512 0.930 . S
O483 Co472 2.093 . S
O483 C475 1.224 . S
H484 C516 0.929 . S
H485 C518 0.930 . S
H486 C519 0.930 . S
H487 C517 0.929 . S
H488 C520 0.928 . S
O489 Co473 2.057 . S
O489 C477 1.232 . S
H490 C509 0.929 . S
H491 C510 0.929 . S
H492 C522 0.931 . S
H493 C514 0.929 . S
H494 C523 0.930 . S
H495 C515 0.931 . S
O496 Co472 2.097 . S
O496 C524 1.214 . S
H497 C525 0.929 . S
H498 C526 0.929 . S
H499 C527 0.930 . S
H500 C528 0.929 . S
H501 C530 0.930 . S
H502 C507 0.930 . S
H503 C511 0.930 . S
O504 Co473 2.037 . S
O504 C524 1.234 . S
C505 O479 1.269 . S
C505 O480 1.257 . S
C506 H481 0.930 . S
C506 C509 1.388 . S
C506 C511 1.418 . S
C507 H502 0.930 . S
C507 C510 1.404 . S
C507 C511 1.353 . S
N508 Co473 2.145 . S
N508 C509 1.397 . S
N508 C510 1.334 . S
C509 H490 0.929 . S
C509 C506 1.388 . S
C509 N508 1.397 . S
C510 H491 0.929 . S
C510 C507 1.404 . S
C510 N508 1.334 . S
C511 H503 0.930 . S
C511 C506 1.418 . S
C511 C507 1.353 . S
C512 H482 0.930 . S
C512 N513 1.330 . S
C512 C514 1.446 1_565 S
N513 Co472 2.151 . S
N513 C512 1.330 . S
N513 C517 1.418 . S
C514 H493 0.929 . S
C514 C512 1.446 1_545 S
C514 C515 1.332 . S
C515 H495 0.931 . S
C515 C514 1.332 . S
C515 C516 1.267 . S
C516 H484 0.929 . S
C516 C515 1.267 . S
C516 C517 1.251 1_545 S
C517 H487 0.929 . S
C517 N513 1.418 . S
C517 C516 1.251 1_565 S
C518 H485 0.930 . S
C518 C520 1.406 . S
C518 C523 1.261 . S
C519 H486 0.930 . S
C519 N521 1.325 . S
C519 C522 1.357 . S
C520 H488 0.928 . S
C520 C518 1.406 . S
C520 N521 1.261 . S
N521 Co472 2.214 . S
N521 C519 1.325 . S
N521 C520 1.261 . S
C522 H492 0.931 . S
C522 C519 1.357 . S
C522 C523 1.312 . S
C523 H494 0.930 . S
C523 C518 1.261 . S
C523 C522 1.312 . S
C524 O496 1.214 . S
C524 O504 1.234 . S
C525 H497 0.929 . S
C525 C528 1.391 . S
C525 C530 1.391 . S
C526 H498 0.929 . S
C526 C527 1.390 . S
C526 N529 1.391 . S
C527 H499 0.930 . S
C527 C526 1.390 . S
C527 C528 1.392 . S
C528 H500 0.929 . S
C528 C525 1.391 . S
C528 C527 1.392 . S
N529 Co473 2.257 . S
N529 C526 1.391 . S
N529 C530 1.388 . S
C530 H501 0.930 . S
C530 C525 1.391 . S
C530 N529 1.388 . S
Co531 O533 2.143 . S
Co531 O539 2.074 . S
Co531 O542 2.093 . S
Co531 O555 2.097 . S
Co531 N572 2.151 . S
Co531 N580 2.214 . S
Co532 O533 2.160 . S
Co532 O538 2.058 . S
Co532 O548 2.057 . S
Co532 O563 2.037 . S
Co532 N567 2.145 . S
Co532 N588 2.257 . S
O533 Co531 2.143 . S
O533 Co532 2.160 . S
C534 O535 1.278 . S
C534 O542 1.224 . S
O535 C534 1.278 . S
C536 O537 1.245 . S
C536 O548 1.232 . S
O537 C536 1.245 . S
O538 Co532 2.058 . S
O538 C564 1.269 . S
O539 Co531 2.074 . S
O539 C564 1.257 . S
H540 C565 0.930 . S
H541 C571 0.930 . S
O542 Co531 2.093 . S
O542 C534 1.224 . S
H543 C575 0.929 . S
H544 C577 0.930 . S
H545 C578 0.930 . S
H546 C576 0.929 . S
H547 C579 0.928 . S
O548 Co532 2.057 . S
O548 C536 1.232 . S
H549 C568 0.929 . S
H550 C569 0.929 . S
H551 C581 0.931 . S
H552 C573 0.929 . S
H553 C582 0.930 . S
H554 C574 0.931 . S
O555 Co531 2.097 . S
O555 C583 1.214 . S
H556 C584 0.929 . S
H557 C585 0.929 . S
H558 C586 0.930 . S
H559 C587 0.929 . S
H560 C589 0.930 . S
H561 C566 0.930 . S
H562 C570 0.930 . S
O563 Co532 2.037 . S
O563 C583 1.234 . S
C564 O538 1.269 . S
C564 O539 1.257 . S
C565 H540 0.930 . S
C565 C568 1.388 . S
C565 C570 1.418 . S
C566 H561 0.930 . S
C566 C569 1.404 . S
C566 C570 1.353 . S
N567 Co532 2.145 . S
N567 C568 1.397 . S
N567 C569 1.334 . S
C568 H549 0.929 . S
C568 C565 1.388 . S
C568 N567 1.397 . S
C569 H550 0.929 . S
C569 C566 1.404 . S
C569 N567 1.334 . S
C570 H562 0.930 . S
C570 C565 1.418 . S
C570 C566 1.353 . S
C571 H541 0.930 . S
C571 N572 1.330 . S
C571 C573 1.446 . S
N572 Co531 2.151 . S
N572 C571 1.330 . S
N572 C576 1.418 . S
C573 H552 0.929 . S
C573 C571 1.446 . S
C573 C574 1.332 . S
C574 H554 0.931 . S
C574 C573 1.332 . S
C574 C575 1.267 . S
C575 H543 0.929 . S
C575 C574 1.267 . S
C575 C576 1.251 . S
C576 H546 0.929 . S
C576 N572 1.418 . S
C576 C575 1.251 . S
C577 H544 0.930 . S
C577 C579 1.406 . S
C577 C582 1.261 . S
C578 H545 0.930 . S
C578 N580 1.325 . S
C578 C581 1.357 . S
C579 H547 0.928 . S
C579 C577 1.406 . S
C579 N580 1.261 . S
N580 Co531 2.214 . S
N580 C578 1.325 . S
N580 C579 1.261 . S
C581 H551 0.931 . S
C581 C578 1.357 . S
C581 C582 1.312 . S
C582 H553 0.930 . S
C582 C577 1.261 . S
C582 C581 1.312 . S
C583 O555 1.214 . S
C583 O563 1.234 . S
C584 H556 0.929 . S
C584 C587 1.391 . S
C584 C589 1.391 . S
C585 H557 0.929 . S
C585 C586 1.390 . S
C585 N588 1.391 . S
C586 H558 0.930 . S
C586 C585 1.390 . S
C586 C587 1.392 . S
C587 H559 0.929 . S
C587 C584 1.391 . S
C587 C586 1.392 . S
N588 Co532 2.257 . S
N588 C585 1.391 . S
N588 C589 1.388 . S
C589 H560 0.930 . S
C589 C584 1.391 . S
C589 N588 1.388 . S
Co590 O592 2.143 . S
Co590 O598 2.074 . S
Co590 O601 2.093 . S
Co590 O614 2.097 . S
Co590 N631 2.151 . S
Co590 N639 2.214 . S
Co591 O592 2.160 . S
Co591 O597 2.058 . S
Co591 O607 2.057 . S
Co591 O622 2.037 . S
Co591 N626 2.145 . S
Co591 N647 2.257 . S
O592 Co590 2.143 . S
O592 Co591 2.160 . S
C593 O594 1.278 . S
C593 O601 1.224 . S
O594 C593 1.278 . S
C595 O596 1.245 . S
C595 O607 1.232 . S
O596 C595 1.245 . S
O597 Co591 2.058 . S
O597 C623 1.269 . S
O598 Co590 2.074 . S
O598 C623 1.257 . S
H599 C624 0.930 . S
H600 C630 0.930 . S
O601 Co590 2.093 . S
O601 C593 1.224 . S
H602 C634 0.929 . S
H603 C636 0.930 . S
H604 C637 0.930 . S
H605 C635 0.929 . S
H606 C638 0.928 . S
O607 Co591 2.057 . S
O607 C595 1.232 . S
H608 C627 0.929 . S
H609 C628 0.929 . S
H610 C640 0.931 . S
H611 C632 0.929 . S
H612 C641 0.930 . S
H613 C633 0.931 . S
O614 Co590 2.097 . S
O614 C642 1.214 . S
H615 C643 0.929 . S
H616 C644 0.929 . S
H617 C645 0.930 . S
H618 C646 0.929 . S
H619 C648 0.930 . S
H620 C625 0.930 . S
H621 C629 0.930 . S
O622 Co591 2.037 . S
O622 C642 1.234 . S
C623 O597 1.269 . S
C623 O598 1.257 . S
C624 H599 0.930 . S
C624 C627 1.388 . S
C624 C629 1.418 . S
C625 H620 0.930 . S
C625 C628 1.404 . S
C625 C629 1.353 . S
N626 Co591 2.145 . S
N626 C627 1.397 . S
N626 C628 1.334 . S
C627 H608 0.929 . S
C627 C624 1.388 . S
C627 N626 1.397 . S
C628 H609 0.929 . S
C628 C625 1.404 . S
C628 N626 1.334 . S
C629 H621 0.930 . S
C629 C624 1.418 . S
C629 C625 1.353 . S
C630 H600 0.930 . S
C630 N631 1.330 . S
C630 C632 1.446 . S
N631 Co590 2.151 . S
N631 C630 1.330 . S
N631 C635 1.418 . S
C632 H611 0.929 . S
C632 C630 1.446 . S
C632 C633 1.332 . S
C633 H613 0.931 . S
C633 C632 1.332 . S
C633 C634 1.267 . S
C634 H602 0.929 . S
C634 C633 1.267 . S
C634 C635 1.251 . S
C635 H605 0.929 . S
C635 N631 1.418 . S
C635 C634 1.251 . S
C636 H603 0.930 . S
C636 C638 1.406 . S
C636 C641 1.261 . S
C637 H604 0.930 . S
C637 N639 1.325 . S
C637 C640 1.357 . S
C638 H606 0.928 . S
C638 C636 1.406 . S
C638 N639 1.261 . S
N639 Co590 2.214 . S
N639 C637 1.325 . S
N639 C638 1.261 . S
C640 H610 0.931 . S
C640 C637 1.357 . S
C640 C641 1.312 . S
C641 H612 0.930 . S
C641 C636 1.261 . S
C641 C640 1.312 . S
C642 O614 1.214 . S
C642 O622 1.234 . S
C643 H615 0.929 . S
C643 C646 1.391 . S
C643 C648 1.391 . S
C644 H616 0.929 . S
C644 C645 1.390 . S
C644 N647 1.391 . S
C645 H617 0.930 . S
C645 C644 1.390 . S
C645 C646 1.392 . S
C646 H618 0.929 . S
C646 C643 1.391 . S
C646 C645 1.392 . S
N647 Co591 2.257 . S
N647 C644 1.391 . S
N647 C648 1.388 . S
C648 H619 0.930 . S
C648 C643 1.391 . S
C648 N647 1.388 . S
Co649 O651 2.143 . S
Co649 O657 2.074 . S
Co649 O660 2.093 . S
Co649 O673 2.097 . S
Co649 N690 2.151 . S
Co649 N698 2.214 . S
Co650 O651 2.160 . S
Co650 O656 2.058 . S
Co650 O666 2.057 . S
Co650 O681 2.037 . S
Co650 N685 2.145 . S
Co650 N706 2.257 . S
O651 Co649 2.143 . S
O651 Co650 2.160 . S
C652 O653 1.278 . S
C652 O660 1.224 . S
O653 C652 1.278 . S
C654 O655 1.245 . S
C654 O666 1.232 . S
O655 C654 1.245 . S
O656 Co650 2.058 . S
O656 C682 1.269 . S
O657 Co649 2.074 . S
O657 C682 1.257 . S
H658 C683 0.930 . S
H659 C689 0.930 . S
O660 Co649 2.093 . S
O660 C652 1.224 . S
H661 C693 0.929 . S
H662 C695 0.930 . S
H663 C696 0.930 . S
H664 C694 0.929 . S
H665 C697 0.928 . S
O666 Co650 2.057 . S
O666 C654 1.232 . S
H667 C686 0.929 . S
H668 C687 0.929 . S
H669 C699 0.931 . S
H670 C691 0.929 . S
H671 C700 0.930 . S
H672 C692 0.931 . S
O673 Co649 2.097 . S
O673 C701 1.214 . S
H674 C702 0.929 . S
H675 C703 0.929 . S
H676 C704 0.930 . S
H677 C705 0.929 . S
H678 C707 0.930 . S
H679 C684 0.930 . S
H680 C688 0.930 . S
O681 Co650 2.037 . S
O681 C701 1.234 . S
C682 O656 1.269 . S
C682 O657 1.257 . S
C683 H658 0.930 . S
C683 C686 1.388 . S
C683 C688 1.418 . S
C684 H679 0.930 . S
C684 C687 1.404 . S
C684 C688 1.353 . S
N685 Co650 2.145 . S
N685 C686 1.397 . S
N685 C687 1.334 . S
C686 H667 0.929 . S
C686 C683 1.388 . S
C686 N685 1.397 . S
C687 H668 0.929 . S
C687 C684 1.404 . S
C687 N685 1.334 . S
C688 H680 0.930 . S
C688 C683 1.418 . S
C688 C684 1.353 . S
C689 H659 0.930 . S
C689 N690 1.330 . S
C689 C691 1.446 1_655 S
N690 Co649 2.151 . S
N690 C689 1.330 . S
N690 C694 1.418 . S
C691 H670 0.929 . S
C691 C689 1.446 1_455 S
C691 C692 1.332 . S
C692 H672 0.931 . S
C692 C691 1.332 . S
C692 C693 1.267 . S
C693 H661 0.929 . S
C693 C692 1.267 . S
C693 C694 1.251 1_455 S
C694 H664 0.929 . S
C694 N690 1.418 . S
C694 C693 1.251 1_655 S
C695 H662 0.930 . S
C695 C697 1.406 . S
C695 C700 1.261 . S
C696 H663 0.930 . S
C696 N698 1.325 . S
C696 C699 1.357 . S
C697 H665 0.928 . S
C697 C695 1.406 . S
C697 N698 1.261 . S
N698 Co649 2.214 . S
N698 C696 1.325 . S
N698 C697 1.261 . S
C699 H669 0.931 . S
C699 C696 1.357 . S
C699 C700 1.312 . S
C700 H671 0.930 . S
C700 C695 1.261 . S
C700 C699 1.312 . S
C701 O673 1.214 . S
C701 O681 1.234 . S
C702 H674 0.929 . S
C702 C705 1.391 . S
C702 C707 1.391 . S
C703 H675 0.929 . S
C703 C704 1.390 . S
C703 N706 1.391 . S
C704 H676 0.930 . S
C704 C703 1.390 . S
C704 C705 1.392 . S
C705 H677 0.929 . S
C705 C702 1.391 . S
C705 C704 1.392 . S
N706 Co650 2.257 . S
N706 C703 1.391 . S
N706 C707 1.388 . S
C707 H678 0.930 . S
C707 C702 1.391 . S
C707 N706 1.388 . S
Co708 O710 2.143 . S
Co708 O716 2.074 . S
Co708 O719 2.093 . S
Co708 O732 2.097 . S
Co708 N749 2.151 . S
Co708 N757 2.214 . S
Co709 O710 2.160 . S
Co709 O715 2.058 . S
Co709 O725 2.057 . S
Co709 O740 2.037 . S
Co709 N744 2.145 . S
Co709 N765 2.257 . S
O710 Co708 2.143 . S
O710 Co709 2.160 . S
C711 O712 1.278 . S
C711 O719 1.224 . S
O712 C711 1.278 . S
C713 O714 1.245 . S
C713 O725 1.232 . S
O714 C713 1.245 . S
O715 Co709 2.058 . S
O715 C741 1.269 . S
O716 Co708 2.074 . S
O716 C741 1.257 . S
H717 C742 0.930 . S
H718 C748 0.930 . S
O719 Co708 2.093 . S
O719 C711 1.224 . S
H720 C752 0.929 . S
H721 C754 0.930 . S
H722 C755 0.930 . S
H723 C753 0.929 . S
H724 C756 0.928 . S
O725 Co709 2.057 . S
O725 C713 1.232 . S
H726 C745 0.929 . S
H727 C746 0.929 . S
H728 C758 0.931 . S
H729 C750 0.929 . S
H730 C759 0.930 . S
H731 C751 0.931 . S
O732 Co708 2.097 . S
O732 C760 1.214 . S
H733 C761 0.929 . S
H734 C762 0.929 . S
H735 C763 0.930 . S
H736 C764 0.929 . S
H737 C766 0.930 . S
H738 C743 0.930 . S
H739 C747 0.930 . S
O740 Co709 2.037 . S
O740 C760 1.234 . S
C741 O715 1.269 . S
C741 O716 1.257 . S
C742 H717 0.930 . S
C742 C745 1.388 . S
C742 C747 1.418 . S
C743 H738 0.930 . S
C743 C746 1.404 . S
C743 C747 1.353 . S
N744 Co709 2.145 . S
N744 C745 1.397 . S
N744 C746 1.334 . S
C745 H726 0.929 . S
C745 C742 1.388 . S
C745 N744 1.397 . S
C746 H727 0.929 . S
C746 C743 1.404 . S
C746 N744 1.334 . S
C747 H739 0.930 . S
C747 C742 1.418 . S
C747 C743 1.353 . S
C748 H718 0.930 . S
C748 N749 1.330 . S
C748 C750 1.446 . S
N749 Co708 2.151 . S
N749 C748 1.330 . S
N749 C753 1.418 . S
C750 H729 0.929 . S
C750 C748 1.446 . S
C750 C751 1.332 . S
C751 H731 0.931 . S
C751 C750 1.332 . S
C751 C752 1.267 . S
C752 H720 0.929 . S
C752 C751 1.267 . S
C752 C753 1.251 . S
C753 H723 0.929 . S
C753 N749 1.418 . S
C753 C752 1.251 . S
C754 H721 0.930 . S
C754 C756 1.406 . S
C754 C759 1.261 . S
C755 H722 0.930 . S
C755 N757 1.325 . S
C755 C758 1.357 . S
C756 H724 0.928 . S
C756 C754 1.406 . S
C756 N757 1.261 . S
N757 Co708 2.214 . S
N757 C755 1.325 . S
N757 C756 1.261 . S
C758 H728 0.931 . S
C758 C755 1.357 . S
C758 C759 1.312 . S
C759 H730 0.930 . S
C759 C754 1.261 . S
C759 C758 1.312 . S
C760 O732 1.214 . S
C760 O740 1.234 . S
C761 H733 0.929 . S
C761 C764 1.391 . S
C761 C766 1.391 . S
C762 H734 0.929 . S
C762 C763 1.390 . S
C762 N765 1.391 . S
C763 H735 0.930 . S
C763 C762 1.390 . S
C763 C764 1.392 . S
C764 H736 0.929 . S
C764 C761 1.391 . S
C764 C763 1.392 . S
N765 Co709 2.257 . S
N765 C762 1.391 . S
N765 C766 1.388 . S
C766 H737 0.930 . S
C766 C761 1.391 . S
C766 N765 1.388 . S
Co767 O769 2.143 . S
Co767 O775 2.074 . S
Co767 O778 2.093 . S
Co767 O791 2.097 . S
Co767 N808 2.151 . S
Co767 N816 2.214 . S
Co768 O769 2.160 . S
Co768 O774 2.058 . S
Co768 O784 2.057 . S
Co768 O799 2.037 . S
Co768 N803 2.145 . S
Co768 N824 2.257 . S
O769 Co767 2.143 . S
O769 Co768 2.160 . S
C770 O771 1.278 . S
C770 O778 1.224 . S
O771 C770 1.278 . S
C772 O773 1.245 . S
C772 O784 1.232 . S
O773 C772 1.245 . S
O774 Co768 2.058 . S
O774 C800 1.269 . S
O775 Co767 2.074 . S
O775 C800 1.257 . S
H776 C801 0.930 . S
H777 C807 0.930 . S
O778 Co767 2.093 . S
O778 C770 1.224 . S
H779 C811 0.929 . S
H780 C813 0.930 . S
H781 C814 0.930 . S
H782 C812 0.929 . S
H783 C815 0.928 . S
O784 Co768 2.057 . S
O784 C772 1.232 . S
H785 C804 0.929 . S
H786 C805 0.929 . S
H787 C817 0.931 . S
H788 C809 0.929 . S
H789 C818 0.930 . S
H790 C810 0.931 . S
O791 Co767 2.097 . S
O791 C819 1.214 . S
H792 C820 0.929 . S
H793 C821 0.929 . S
H794 C822 0.930 . S
H795 C823 0.929 . S
H796 C825 0.930 . S
H797 C802 0.930 . S
H798 C806 0.930 . S
O799 Co768 2.037 . S
O799 C819 1.234 . S
C800 O774 1.269 . S
C800 O775 1.257 . S
C801 H776 0.930 . S
C801 C804 1.388 . S
C801 C806 1.418 . S
C802 H797 0.930 . S
C802 C805 1.404 . S
C802 C806 1.353 . S
N803 Co768 2.145 . S
N803 C804 1.397 . S
N803 C805 1.334 . S
C804 H785 0.929 . S
C804 C801 1.388 . S
C804 N803 1.397 . S
C805 H786 0.929 . S
C805 C802 1.404 . S
C805 N803 1.334 . S
C806 H798 0.930 . S
C806 C801 1.418 . S
C806 C802 1.353 . S
C807 H777 0.930 . S
C807 N808 1.330 . S
C807 C809 1.446 1_655 S
N808 Co767 2.151 . S
N808 C807 1.330 . S
N808 C812 1.418 . S
C809 H788 0.929 . S
C809 C807 1.446 1_455 S
C809 C810 1.332 . S
C810 H790 0.931 . S
C810 C809 1.332 . S
C810 C811 1.267 . S
C811 H779 0.929 . S
C811 C810 1.267 . S
C811 C812 1.251 1_455 S
C812 H782 0.929 . S
C812 N808 1.418 . S
C812 C811 1.251 1_655 S
C813 H780 0.930 . S
C813 C815 1.406 . S
C813 C818 1.261 . S
C814 H781 0.930 . S
C814 N816 1.325 . S
C814 C817 1.357 . S
C815 H783 0.928 . S
C815 C813 1.406 . S
C815 N816 1.261 . S
N816 Co767 2.214 . S
N816 C814 1.325 . S
N816 C815 1.261 . S
C817 H787 0.931 . S
C817 C814 1.357 . S
C817 C818 1.312 . S
C818 H789 0.930 . S
C818 C813 1.261 . S
C818 C817 1.312 . S
C819 O791 1.214 . S
C819 O799 1.234 . S
C820 H792 0.929 . S
C820 C823 1.391 . S
C820 C825 1.391 . S
C821 H793 0.929 . S
C821 C822 1.390 . S
C821 N824 1.391 . S
C822 H794 0.930 . S
C822 C821 1.390 . S
C822 C823 1.392 . S
C823 H795 0.929 . S
C823 C820 1.391 . S
C823 C822 1.392 . S
N824 Co768 2.257 . S
N824 C821 1.391 . S
N824 C825 1.388 . S
C825 H796 0.930 . S
C825 C820 1.391 . S
C825 N824 1.388 . S
Co826 O828 2.143 . S
Co826 O834 2.074 . S
Co826 O837 2.093 . S
Co826 O850 2.097 . S
Co826 N867 2.151 . S
Co826 N875 2.214 . S
Co827 O828 2.160 . S
Co827 O833 2.058 . S
Co827 O843 2.057 . S
Co827 O858 2.037 . S
Co827 N862 2.145 . S
Co827 N883 2.257 . S
O828 Co826 2.143 . S
O828 Co827 2.160 . S
C829 O830 1.278 . S
C829 O837 1.224 . S
O830 C829 1.278 . S
C831 O832 1.245 . S
C831 O843 1.232 . S
O832 C831 1.245 . S
O833 Co827 2.058 . S
O833 C859 1.269 . S
O834 Co826 2.074 . S
O834 C859 1.257 . S
H835 C860 0.930 . S
H836 C866 0.930 . S
O837 Co826 2.093 . S
O837 C829 1.224 . S
H838 C870 0.929 . S
H839 C872 0.930 . S
H840 C873 0.930 . S
H841 C871 0.929 . S
H842 C874 0.928 . S
O843 Co827 2.057 . S
O843 C831 1.232 . S
H844 C863 0.929 . S
H845 C864 0.929 . S
H846 C876 0.931 . S
H847 C868 0.929 . S
H848 C877 0.930 . S
H849 C869 0.931 . S
O850 Co826 2.097 . S
O850 C878 1.214 . S
H851 C879 0.929 . S
H852 C880 0.929 . S
H853 C881 0.930 . S
H854 C882 0.929 . S
H855 C884 0.930 . S
H856 C861 0.930 . S
H857 C865 0.930 . S
O858 Co827 2.037 . S
O858 C878 1.234 . S
C859 O833 1.269 . S
C859 O834 1.257 . S
C860 H835 0.930 . S
C860 C863 1.388 . S
C860 C865 1.418 . S
C861 H856 0.930 . S
C861 C864 1.404 . S
C861 C865 1.353 . S
N862 Co827 2.145 . S
N862 C863 1.397 . S
N862 C864 1.334 . S
C863 H844 0.929 . S
C863 C860 1.388 . S
C863 N862 1.397 . S
C864 H845 0.929 . S
C864 C861 1.404 . S
C864 N862 1.334 . S
C865 H857 0.930 . S
C865 C860 1.418 . S
C865 C861 1.353 . S
C866 H836 0.930 . S
C866 N867 1.330 . S
C866 C868 1.446 1_565 S
N867 Co826 2.151 . S
N867 C866 1.330 . S
N867 C871 1.418 . S
C868 H847 0.929 . S
C868 C866 1.446 1_545 S
C868 C869 1.332 . S
C869 H849 0.931 . S
C869 C868 1.332 . S
C869 C870 1.267 . S
C870 H838 0.929 . S
C870 C869 1.267 . S
C870 C871 1.251 1_545 S
C871 H841 0.929 . S
C871 N867 1.418 . S
C871 C870 1.251 1_565 S
C872 H839 0.930 . S
C872 C874 1.406 . S
C872 C877 1.261 . S
C873 H840 0.930 . S
C873 N875 1.325 . S
C873 C876 1.357 . S
C874 H842 0.928 . S
C874 C872 1.406 . S
C874 N875 1.261 . S
N875 Co826 2.214 . S
N875 C873 1.325 . S
N875 C874 1.261 . S
C876 H846 0.931 . S
C876 C873 1.357 . S
C876 C877 1.312 . S
C877 H848 0.930 . S
C877 C872 1.261 . S
C877 C876 1.312 . S
C878 O850 1.214 . S
C878 O858 1.234 . S
C879 H851 0.929 . S
C879 C882 1.391 . S
C879 C884 1.391 . S
C880 H852 0.929 . S
C880 C881 1.390 . S
C880 N883 1.391 . S
C881 H853 0.930 . S
C881 C880 1.390 . S
C881 C882 1.392 . S
C882 H854 0.929 . S
C882 C879 1.391 . S
C882 C881 1.392 . S
N883 Co827 2.257 . S
N883 C880 1.391 . S
N883 C884 1.388 . S
C884 H855 0.930 . S
C884 C879 1.391 . S
C884 N883 1.388 . S
Co885 O887 2.143 . S
Co885 O893 2.074 . S
Co885 O896 2.093 . S
Co885 O909 2.097 . S
Co885 N926 2.151 . S
Co885 N934 2.214 . S
Co886 O887 2.160 . S
Co886 O892 2.058 . S
Co886 O902 2.057 . S
Co886 O917 2.037 . S
Co886 N921 2.145 . S
Co886 N942 2.257 . S
O887 Co885 2.143 . S
O887 Co886 2.160 . S
C888 O889 1.278 . S
C888 O896 1.224 . S
O889 C888 1.278 . S
C890 O891 1.245 . S
C890 O902 1.232 . S
O891 C890 1.245 . S
O892 Co886 2.058 . S
O892 C918 1.269 . S
O893 Co885 2.074 . S
O893 C918 1.257 . S
H894 C919 0.930 . S
H895 C925 0.930 . S
O896 Co885 2.093 . S
O896 C888 1.224 . S
H897 C929 0.929 . S
H898 C931 0.930 . S
H899 C932 0.930 . S
H900 C930 0.929 . S
H901 C933 0.928 . S
O902 Co886 2.057 . S
O902 C890 1.232 . S
H903 C922 0.929 . S
H904 C923 0.929 . S
H905 C935 0.931 . S
H906 C927 0.929 . S
H907 C936 0.930 . S
H908 C928 0.931 . S
O909 Co885 2.097 . S
O909 C937 1.214 . S
H910 C938 0.929 . S
H911 C939 0.929 . S
H912 C940 0.930 . S
H913 C941 0.929 . S
H914 C943 0.930 . S
H915 C920 0.930 . S
H916 C924 0.930 . S
O917 Co886 2.037 . S
O917 C937 1.234 . S
C918 O892 1.269 . S
C918 O893 1.257 . S
C919 H894 0.930 . S
C919 C922 1.388 . S
C919 C924 1.418 . S
C920 H915 0.930 . S
C920 C923 1.404 . S
C920 C924 1.353 . S
N921 Co886 2.145 . S
N921 C922 1.397 . S
N921 C923 1.334 . S
C922 H903 0.929 . S
C922 C919 1.388 . S
C922 N921 1.397 . S
C923 H904 0.929 . S
C923 C920 1.404 . S
C923 N921 1.334 . S
C924 H916 0.930 . S
C924 C919 1.418 . S
C924 C920 1.353 . S
C925 H895 0.930 . S
C925 N926 1.330 . S
C925 C927 1.446 . S
N926 Co885 2.151 . S
N926 C925 1.330 . S
N926 C930 1.418 . S
C927 H906 0.929 . S
C927 C925 1.446 . S
C927 C928 1.332 . S
C928 H908 0.931 . S
C928 C927 1.332 . S
C928 C929 1.267 . S
C929 H897 0.929 . S
C929 C928 1.267 . S
C929 C930 1.251 . S
C930 H900 0.929 . S
C930 N926 1.418 . S
C930 C929 1.251 . S
C931 H898 0.930 . S
C931 C933 1.406 . S
C931 C936 1.261 . S
C932 H899 0.930 . S
C932 N934 1.325 . S
C932 C935 1.357 . S
C933 H901 0.928 . S
C933 C931 1.406 . S
C933 N934 1.261 . S
N934 Co885 2.214 . S
N934 C932 1.325 . S
N934 C933 1.261 . S
C935 H905 0.931 . S
C935 C932 1.357 . S
C935 C936 1.312 . S
C936 H907 0.930 . S
C936 C931 1.261 . S
C936 C935 1.312 . S
C937 O909 1.214 . S
C937 O917 1.234 . S
C938 H910 0.929 . S
C938 C941 1.391 . S
C938 C943 1.391 . S
C939 H911 0.929 . S
C939 C940 1.390 . S
C939 N942 1.391 . S
C940 H912 0.930 . S
C940 C939 1.390 . S
C940 C941 1.392 . S
C941 H913 0.929 . S
C941 C938 1.391 . S
C941 C940 1.392 . S
N942 Co886 2.257 . S
N942 C939 1.391 . S
N942 C943 1.388 . S
C943 H914 0.930 . S
C943 C938 1.391 . S
C943 N942 1.388 . S
C944 C945 1.387 1_554 S
C944 H948 0.950 . S
C944 C953 1.391 . S
C945 C944 1.387 1_556 S
C945 C947 1.387 . S
H946 C953 0.950 . S
C947 C945 1.387 . S
C947 C949 1.391 . S
C947 H951 0.950 . S
H948 C944 0.950 . S
C949 C947 1.391 . S
C949 C950 1.387 1_556 S
C949 H952 0.950 . S
C950 C949 1.387 1_554 S
C950 C953 1.387 . S
H951 C947 0.950 . S
H952 C949 0.950 . S
C953 C944 1.391 . S
C953 H946 0.950 . S
C953 C950 1.387 . S
C954 C955 1.387 . S
C954 H958 0.950 . S
C954 C963 1.390 . S
C955 C954 1.387 . S
C955 C957 1.387 . S
H956 C963 0.950 . S
C957 C955 1.387 . S
C957 C959 1.390 . S
C957 H961 0.950 . S
H958 C954 0.950 . S
C959 C957 1.390 . S
C959 C960 1.387 . S
C959 H962 0.950 . S
C960 C959 1.387 . S
C960 C963 1.387 . S
H961 C957 0.950 . S
H962 C959 0.950 . S
C963 C954 1.390 . S
C963 H956 0.950 . S
C963 C960 1.387 . S
C964 C965 1.387 . S
C964 H968 0.950 . S
C964 C973 1.390 . S
C965 C964 1.387 . S
C965 C967 1.387 1_556 S
H966 C973 0.950 . S
C967 C965 1.387 1_554 S
C967 C969 1.390 . S
C967 H971 0.950 . S
H968 C964 0.950 . S
C969 C967 1.390 . S
C969 C970 1.387 . S
C969 H972 0.950 . S
C970 C969 1.387 . S
C970 C973 1.387 1_554 S
H971 C967 0.950 . S
H972 C969 0.950 . S
C973 C964 1.390 . S
C973 H966 0.950 . S
C973 C970 1.387 1_556 S
C974 C975 1.387 . S
C974 H978 0.950 . S
C974 C983 1.390 . S
C975 C974 1.387 . S
C975 C977 1.387 . S
H976 C983 0.950 . S
C977 C975 1.387 . S
C977 C979 1.390 . S
C977 H981 0.950 . S
H978 C974 0.950 . S
C979 C977 1.390 . S
C979 C980 1.387 . S
C979 H982 0.950 . S
C980 C979 1.387 . S
C980 C983 1.387 . S
H981 C977 0.950 . S
H982 C979 0.950 . S
C983 C974 1.390 . S
C983 H976 0.950 . S
C983 C980 1.387 . S
C984 C985 1.387 1_556 S
C984 H988 0.950 . S
C984 C993 1.390 . S
C985 C984 1.387 1_554 S
C985 C987 1.387 . S
H986 C993 0.950 . S
C987 C985 1.387 . S
C987 C989 1.390 . S
C987 H991 0.950 . S
H988 C984 0.950 . S
C989 C987 1.390 . S
C989 C990 1.387 1_554 S
C989 H992 0.950 . S
C990 C989 1.387 1_556 S
C990 C993 1.387 . S
H991 C987 0.950 . S
H992 C989 0.950 . S
C993 C984 1.390 . S
C993 H986 0.950 . S
C993 C990 1.387 . S
C994 C995 1.387 . S
C994 H998 0.950 . S
C994 C1003 1.390 . S
C995 C994 1.387 . S
C995 C997 1.387 . S
H996 C1003 0.950 . S
C997 C995 1.387 . S
C997 C999 1.390 . S
C997 H1001 0.950 . S
H998 C994 0.950 . S
C999 C997 1.390 . S
C999 C1000 1.387 . S
C999 H1002 0.950 . S
C1000 C999 1.387 . S
C1000 C1003 1.387 . S
H1001 C997 0.950 . S
H1002 C999 0.950 . S
C1003 C994 1.390 . S
C1003 H996 0.950 . S
C1003 C1000 1.387 . S
C1004 C1005 1.387 1_554 S
C1004 H1008 0.950 . S
C1004 C1013 1.390 . S
C1005 C1004 1.387 1_556 S
C1005 C1007 1.387 . S
H1006 C1013 0.950 . S
C1007 C1005 1.387 . S
C1007 C1009 1.390 . S
C1007 H1011 0.950 . S
H1008 C1004 0.950 . S
C1009 C1007 1.390 . S
C1009 C1010 1.387 1_556 S
C1009 H1012 0.950 . S
C1010 C1009 1.387 1_554 S
C1010 C1013 1.387 . S
H1011 C1007 0.950 . S
H1012 C1009 0.950 . S
C1013 C1004 1.390 . S
C1013 H1006 0.950 . S
C1013 C1010 1.387 . S
C1014 C1015 1.387 . S
C1014 H1018 0.950 . S
C1014 C1023 1.390 . S
C1015 C1014 1.387 . S
C1015 C1017 1.387 . S
H1016 C1023 0.950 . S
C1017 C1015 1.387 . S
C1017 C1019 1.390 . S
C1017 H1021 0.950 . S
H1018 C1014 0.950 . S
C1019 C1017 1.390 . S
C1019 C1020 1.387 . S
C1019 H1022 0.950 . S
C1020 C1019 1.387 . S
C1020 C1023 1.387 . S
H1021 C1017 0.950 . S
H1022 C1019 0.950 . S
C1023 C1014 1.390 . S
C1023 H1016 0.950 . S
C1023 C1020 1.387 . S
C1024 C1025 1.387 . S
C1024 H1028 0.950 . S
C1024 C1033 1.390 . S
C1025 C1024 1.387 . S
C1025 C1027 1.387 . S
H1026 C1033 0.950 . S
C1027 C1025 1.387 . S
C1027 C1029 1.390 . S
C1027 H1031 0.950 . S
H1028 C1024 0.950 . S
C1029 C1027 1.390 . S
C1029 C1030 1.387 . S
C1029 H1032 0.950 . S
C1030 C1029 1.387 . S
C1030 C1033 1.387 . S
H1031 C1027 0.950 . S
H1032 C1029 0.950 . S
C1033 C1024 1.390 . S
C1033 H1026 0.950 . S
C1033 C1030 1.387 . S
C1034 C1035 1.387 . S
C1034 H1038 0.950 . S
C1034 C1043 1.390 . S
C1035 C1034 1.387 . S
C1035 C1037 1.387 . S
H1036 C1043 0.950 . S
C1037 C1035 1.387 . S
C1037 C1039 1.390 . S
C1037 H1041 0.950 . S
H1038 C1034 0.950 . S
C1039 C1037 1.390 . S
C1039 C1040 1.387 . S
C1039 H1042 0.950 . S
C1040 C1039 1.387 . S
C1040 C1043 1.387 . S
H1041 C1037 0.950 . S
H1042 C1039 0.950 . S
C1043 C1034 1.390 . S
C1043 H1036 0.950 . S
C1043 C1040 1.387 . S
C1044 C1045 1.387 . S
C1044 H1048 0.950 . S
C1044 C1053 1.390 . S
C1045 C1044 1.387 . S
C1045 C1047 1.387 . S
H1046 C1053 0.950 . S
C1047 C1045 1.387 . S
C1047 C1049 1.390 . S
C1047 H1051 0.950 . S
H1048 C1044 0.950 . S
C1049 C1047 1.390 . S
C1049 C1050 1.387 . S
C1049 H1052 0.950 . S
C1050 C1049 1.387 . S
C1050 C1053 1.387 . S
H1051 C1047 0.950 . S
H1052 C1049 0.950 . S
C1053 C1044 1.390 . S
C1053 H1046 0.950 . S
C1053 C1050 1.387 . S
C1054 C1055 1.387 . S
C1054 H1058 0.950 . S
C1054 C1063 1.390 . S
C1055 C1054 1.387 . S
C1055 C1057 1.387 . S
H1056 C1063 0.950 . S
C1057 C1055 1.387 . S
C1057 C1059 1.390 . S
C1057 H1061 0.950 . S
H1058 C1054 0.950 . S
C1059 C1057 1.390 . S
C1059 C1060 1.387 . S
C1059 H1062 0.950 . S
C1060 C1059 1.387 . S
C1060 C1063 1.387 . S
H1061 C1057 0.950 . S
H1062 C1059 0.950 . S
C1063 C1054 1.390 . S
C1063 H1056 0.950 . S
C1063 C1060 1.387 . S
C1064 C1065 1.387 . S
C1064 H1068 0.950 . S
C1064 C1073 1.390 . S
C1065 C1064 1.387 . S
C1065 C1067 1.387 . S
H1066 C1073 0.950 . S
C1067 C1065 1.387 . S
C1067 C1069 1.390 . S
C1067 H1071 0.950 . S
H1068 C1064 0.950 . S
C1069 C1067 1.390 . S
C1069 C1070 1.387 . S
C1069 H1072 0.950 . S
C1070 C1069 1.387 . S
C1070 C1073 1.387 . S
H1071 C1067 0.950 . S
H1072 C1069 0.950 . S
C1073 C1064 1.390 . S
C1073 H1066 0.950 . S
C1073 C1070 1.387 . S
C1074 C1075 1.387 . S
C1074 H1078 0.950 . S
C1074 C1083 1.390 . S
C1075 C1074 1.387 . S
C1075 C1077 1.387 . S
H1076 C1083 0.950 . S
C1077 C1075 1.387 . S
C1077 C1079 1.390 . S
C1077 H1081 0.950 . S
H1078 C1074 0.950 . S
C1079 C1077 1.390 . S
C1079 C1080 1.387 . S
C1079 H1082 0.950 . S
C1080 C1079 1.387 . S
C1080 C1083 1.387 . S
H1081 C1077 0.950 . S
H1082 C1079 0.950 . S
C1083 C1074 1.390 . S
C1083 H1076 0.950 . S
C1083 C1080 1.387 . S
C1084 C1085 1.387 . S
C1084 H1088 0.950 . S
C1084 C1093 1.390 . S
C1085 C1084 1.387 . S
C1085 C1087 1.387 . S
H1086 C1093 0.950 . S
C1087 C1085 1.387 . S
C1087 C1089 1.390 . S
C1087 H1091 0.950 . S
H1088 C1084 0.950 . S
C1089 C1087 1.390 . S
C1089 C1090 1.387 . S
C1089 H1092 0.950 . S
C1090 C1089 1.387 . S
C1090 C1093 1.387 . S
H1091 C1087 0.950 . S
H1092 C1089 0.950 . S
C1093 C1084 1.390 . S
C1093 H1086 0.950 . S
C1093 C1090 1.387 . S
C1094 C1095 1.387 . S
C1094 H1098 0.950 . S
C1094 C1103 1.390 . S
C1095 C1094 1.387 . S
C1095 C1097 1.387 . S
H1096 C1103 0.950 . S
C1097 C1095 1.387 . S
C1097 C1099 1.390 . S
C1097 H1101 0.950 . S
H1098 C1094 0.950 . S
C1099 C1097 1.390 . S
C1099 C1100 1.387 . S
C1099 H1102 0.950 . S
C1100 C1099 1.387 . S
C1100 C1103 1.387 . S
H1101 C1097 0.950 . S
H1102 C1099 0.950 . S
C1103 C1094 1.390 . S
C1103 H1096 0.950 . S
C1103 C1100 1.387 . S
C1104 C1105 1.387 . S
C1104 H1108 0.950 . S
C1104 C1113 1.390 . S
C1105 C1104 1.387 . S
C1105 C1107 1.387 . S
H1106 C1113 0.950 . S
C1107 C1105 1.387 . S
C1107 C1109 1.390 . S
C1107 H1111 0.950 . S
H1108 C1104 0.950 . S
C1109 C1107 1.390 . S
C1109 C1110 1.387 . S
C1109 H1112 0.950 . S
C1110 C1109 1.387 . S
C1110 C1113 1.387 . S
H1111 C1107 0.950 . S
H1112 C1109 0.950 . S
C1113 C1104 1.390 . S
C1113 H1106 0.950 . S
C1113 C1110 1.387 . S
C1114 C1115 1.387 . S
C1114 H1118 0.950 . S
C1114 C1123 1.390 . S
C1115 C1114 1.387 . S
C1115 C1117 1.387 . S
H1116 C1123 0.950 . S
C1117 C1115 1.387 . S
C1117 C1119 1.390 . S
C1117 H1121 0.950 . S
H1118 C1114 0.950 . S
C1119 C1117 1.390 . S
C1119 C1120 1.387 . S
C1119 H1122 0.950 . S
C1120 C1119 1.387 . S
C1120 C1123 1.387 . S
H1121 C1117 0.950 . S
H1122 C1119 0.950 . S
C1123 C1114 1.390 . S
C1123 H1116 0.950 . S
C1123 C1120 1.387 . S
C1124 C1125 1.387 . S
C1124 H1128 0.950 . S
C1124 C1133 1.390 . S
C1125 C1124 1.387 . S
C1125 C1127 1.387 . S
H1126 C1133 0.950 . S
C1127 C1125 1.387 . S
C1127 C1129 1.390 . S
C1127 H1131 0.950 . S
H1128 C1124 0.950 . S
C1129 C1127 1.390 . S
C1129 C1130 1.387 . S
C1129 H1132 0.950 . S
C1130 C1129 1.387 . S
C1130 C1133 1.387 . S
H1131 C1127 0.950 . S
H1132 C1129 0.950 . S
C1133 C1124 1.390 . S
C1133 H1126 0.950 . S
C1133 C1130 1.387 . S
C1134 C1135 1.387 . S
C1134 H1138 0.950 . S
C1134 C1143 1.390 . S
C1135 C1134 1.387 . S
C1135 C1137 1.387 . S
H1136 C1143 0.950 . S
C1137 C1135 1.387 . S
C1137 C1139 1.390 . S
C1137 H1141 0.950 . S
H1138 C1134 0.950 . S
C1139 C1137 1.390 . S
C1139 C1140 1.387 . S
C1139 H1142 0.950 . S
C1140 C1139 1.387 . S
C1140 C1143 1.387 . S
H1141 C1137 0.950 . S
H1142 C1139 0.950 . S
C1143 C1134 1.390 . S
C1143 H1136 0.950 . S
C1143 C1140 1.387 . S
C1144 C1145 1.387 . S
C1144 H1148 0.950 . S
C1144 C1153 1.390 . S
C1145 C1144 1.387 . S
C1145 C1147 1.387 . S
H1146 C1153 0.950 . S
C1147 C1145 1.387 . S
C1147 C1149 1.390 . S
C1147 H1151 0.950 . S
H1148 C1144 0.950 . S
C1149 C1147 1.390 . S
C1149 C1150 1.387 . S
C1149 H1152 0.950 . S
C1150 C1149 1.387 . S
C1150 C1153 1.387 . S
H1151 C1147 0.950 . S
H1152 C1149 0.950 . S
C1153 C1144 1.390 . S
C1153 H1146 0.950 . S
C1153 C1150 1.387 . S
C1154 C1155 1.387 . S
C1154 H1158 0.950 . S
C1154 C1163 1.390 . S
C1155 C1154 1.387 . S
C1155 C1157 1.387 . S
H1156 C1163 0.950 . S
C1157 C1155 1.387 . S
C1157 C1159 1.390 . S
C1157 H1161 0.950 . S
H1158 C1154 0.950 . S
C1159 C1157 1.390 . S
C1159 C1160 1.387 . S
C1159 H1162 0.950 . S
C1160 C1159 1.387 . S
C1160 C1163 1.387 . S
H1161 C1157 0.950 . S
H1162 C1159 0.950 . S
C1163 C1154 1.390 . S
C1163 H1156 0.950 . S
C1163 C1160 1.387 . S
C1164 C1165 1.387 . S
C1164 H1168 0.950 . S
C1164 C1173 1.390 . S
C1165 C1164 1.387 . S
C1165 C1167 1.387 . S
H1166 C1173 0.950 . S
C1167 C1165 1.387 . S
C1167 C1169 1.390 . S
C1167 H1171 0.950 . S
H1168 C1164 0.950 . S
C1169 C1167 1.390 . S
C1169 C1170 1.387 . S
C1169 H1172 0.950 . S
C1170 C1169 1.387 . S
C1170 C1173 1.387 . S
H1171 C1167 0.950 . S
H1172 C1169 0.950 . S
C1173 C1164 1.390 . S
C1173 H1166 0.950 . S
C1173 C1170 1.387 . S
C1174 C1175 1.387 . S
C1174 H1178 0.950 . S
C1174 C1183 1.390 . S
C1175 C1174 1.387 . S
C1175 C1177 1.387 . S
H1176 C1183 0.950 . S
C1177 C1175 1.387 . S
C1177 C1179 1.390 . S
C1177 H1181 0.950 . S
H1178 C1174 0.950 . S
C1179 C1177 1.390 . S
C1179 C1180 1.387 . S
C1179 H1182 0.950 . S
C1180 C1179 1.387 . S
C1180 C1183 1.387 . S
H1181 C1177 0.950 . S
H1182 C1179 0.950 . S
C1183 C1174 1.390 . S
C1183 H1176 0.950 . S
C1183 C1180 1.387 . S
C1184 C1185 1.387 . S
C1184 H1188 0.950 . S
C1184 C1193 1.390 . S
C1185 C1184 1.387 . S
C1185 C1187 1.387 . S
H1186 C1193 0.950 . S
C1187 C1185 1.387 . S
C1187 C1189 1.390 . S
C1187 H1191 0.950 . S
H1188 C1184 0.950 . S
C1189 C1187 1.390 . S
C1189 C1190 1.387 . S
C1189 H1192 0.950 . S
C1190 C1189 1.387 . S
C1190 C1193 1.387 . S
H1191 C1187 0.950 . S
H1192 C1189 0.950 . S
C1193 C1184 1.390 . S
C1193 H1186 0.950 . S
C1193 C1190 1.387 . S
C1194 C1195 1.387 . S
C1194 H1198 0.950 . S
C1194 C1203 1.390 . S
C1195 C1194 1.387 . S
C1195 C1197 1.387 . S
H1196 C1203 0.950 . S
C1197 C1195 1.387 . S
C1197 C1199 1.390 . S
C1197 H1201 0.950 . S
H1198 C1194 0.950 . S
C1199 C1197 1.390 . S
C1199 C1200 1.387 . S
C1199 H1202 0.950 . S
C1200 C1199 1.387 . S
C1200 C1203 1.387 . S
H1201 C1197 0.950 . S
H1202 C1199 0.950 . S
C1203 C1194 1.390 . S
C1203 H1196 0.950 . S
C1203 C1200 1.387 . S
C1204 C1205 1.387 . S
C1204 H1208 0.950 . S
C1204 C1213 1.390 . S
C1205 C1204 1.387 . S
C1205 C1207 1.387 . S
H1206 C1213 0.950 . S
C1207 C1205 1.387 . S
C1207 C1209 1.390 . S
C1207 H1211 0.950 . S
H1208 C1204 0.950 . S
C1209 C1207 1.390 . S
C1209 C1210 1.387 . S
C1209 H1212 0.950 . S
C1210 C1209 1.387 . S
C1210 C1213 1.387 . S
H1211 C1207 0.950 . S
H1212 C1209 0.950 . S
C1213 C1204 1.390 . S
C1213 H1206 0.950 . S
C1213 C1210 1.387 . S
C1214 C1215 1.387 . S
C1214 H1218 0.950 . S
C1214 C1223 1.390 . S
C1215 C1214 1.387 . S
C1215 C1217 1.387 . S
H1216 C1223 0.950 . S
C1217 C1215 1.387 . S
C1217 C1219 1.390 . S
C1217 H1221 0.950 . S
H1218 C1214 0.950 . S
C1219 C1217 1.390 . S
C1219 C1220 1.387 . S
C1219 H1222 0.950 . S
C1220 C1219 1.387 . S
C1220 C1223 1.387 . S
H1221 C1217 0.950 . S
H1222 C1219 0.950 . S
C1223 C1214 1.390 . S
C1223 H1216 0.950 . S
C1223 C1220 1.387 . S
C1224 C1225 1.387 . S
C1224 H1228 0.950 . S
C1224 C1233 1.390 . S
C1225 C1224 1.387 . S
C1225 C1227 1.387 . S
H1226 C1233 0.950 . S
C1227 C1225 1.387 . S
C1227 C1229 1.390 . S
C1227 H1231 0.950 . S
H1228 C1224 0.950 . S
C1229 C1227 1.390 . S
C1229 C1230 1.387 . S
C1229 H1232 0.950 . S
C1230 C1229 1.387 . S
C1230 C1233 1.387 . S
H1231 C1227 0.950 . S
H1232 C1229 0.950 . S
C1233 C1224 1.390 . S
C1233 H1226 0.950 . S
C1233 C1230 1.387 . S
C1234 C1235 1.387 . S
C1234 H1238 0.950 . S
C1234 C1243 1.390 . S
C1235 C1234 1.387 . S
C1235 C1237 1.387 . S
H1236 C1243 0.950 . S
C1237 C1235 1.387 . S
C1237 C1239 1.390 . S
C1237 H1241 0.950 . S
H1238 C1234 0.950 . S
C1239 C1237 1.390 . S
C1239 C1240 1.387 . S
C1239 H1242 0.950 . S
C1240 C1239 1.387 . S
C1240 C1243 1.387 . S
H1241 C1237 0.950 . S
H1242 C1239 0.950 . S
C1243 C1234 1.390 . S
C1243 H1236 0.950 . S
C1243 C1240 1.387 . S
C1244 C1245 1.387 . S
C1244 H1248 0.950 . S
C1244 C1253 1.390 . S
C1245 C1244 1.387 . S
C1245 C1247 1.387 . S
H1246 C1253 0.950 . S
C1247 C1245 1.387 . S
C1247 C1249 1.390 . S
C1247 H1251 0.950 . S
H1248 C1244 0.950 . S
C1249 C1247 1.390 . S
C1249 C1250 1.387 . S
C1249 H1252 0.950 . S
C1250 C1249 1.387 . S
C1250 C1253 1.387 . S
H1251 C1247 0.950 . S
H1252 C1249 0.950 . S
C1253 C1244 1.390 . S
C1253 H1246 0.950 . S
C1253 C1250 1.387 . S
C1254 C1255 1.387 . S
C1254 H1258 0.950 . S
C1254 C1263 1.390 . S
C1255 C1254 1.387 . S
C1255 C1257 1.387 . S
H1256 C1263 0.950 . S
C1257 C1255 1.387 . S
C1257 C1259 1.390 . S
C1257 H1261 0.950 . S
H1258 C1254 0.950 . S
C1259 C1257 1.390 . S
C1259 C1260 1.387 . S
C1259 H1262 0.950 . S
C1260 C1259 1.387 . S
C1260 C1263 1.387 . S
H1261 C1257 0.950 . S
H1262 C1259 0.950 . S
C1263 C1254 1.390 . S
C1263 H1256 0.950 . S
C1263 C1260 1.387 . S
C945 C416 1.691 . S
C950 C3 1.691 . S
C955 C239 1.688 . S
C960 C62 1.687 . S
C965 C298 1.687 . S
C970 C121 1.688 . S
C975 C180 1.691 . S
C980 C357 1.690 . S
C985 C888 1.688 . S
C990 C475 1.689 . S
C995 C711 1.688 . S
C1000 C534 1.689 . S
C1005 C593 1.690 . S
C1010 C770 1.691 . S
C1015 C652 1.691 . S
C1020 C829 1.691 . S
C1025 C170 1.286 . S
C1030 C52 1.286 . S
C1035 C111 1.283 . S
C1040 C229 1.283 . S
C1045 C288 1.283 . S
C1050 C406 1.283 . S
C1055 C465 1.283 . S
C1060 C347 1.283 . S
C1065 C524 1.286 . S
C1070 C642 1.286 . S
C1075 C583 1.283 . S
C1080 C701 1.283 . S
C1085 C878 1.286 . S
C1090 C760 1.286 . S
C1095 C819 1.286 . S
C1100 C937 1.286 . S
C1105 C387 1.463 . S
C1110 C33 1.463 . S
C1115 C92 1.467 . S
C1120 C446 1.467 . S
C1125 C151 1.463 . S
C1130 C269 1.463 . S
C1135 C210 1.467 . S
C1140 C328 1.467 . S
C1145 C505 1.463 . S
C1150 C859 1.463 . S
C1155 C564 1.463 . S
C1160 C918 1.463 . S
C1165 C623 1.467 . S
C1170 C741 1.467 . S
C1175 C682 1.463 . S
C1180 C800 1.463 . S
C1185 C5 1.436 1_565 S
C1190 C890 1.437 . S
C1195 C713 1.436 . S
C1200 C64 1.437 . S
C1205 C123 1.436 . S
C1210 C772 1.437 1_455 S
C1215 C831 1.437 1_545 S
C1220 C182 1.436 1_655 S
C1225 C536 1.436 . S
C1230 C241 1.437 . S
C1235 C300 1.436 1_655 S
C1240 C595 1.437 . S
C1245 C654 1.437 1_455 S
C1250 C359 1.436 1_565 S
C1255 C477 1.436 1_545 S
C1260 C418 1.437 . S
