# Generated by pormake.
# Topology umz, (4)-cn, num edge types: 1
# Building blocks:
#     Node 0, Type 0, BuildingBlock: KUFVIS_clean_sbu_0, # of connection points: 4
#     Node 1, Type 0, BuildingBlock: KUFVIS_clean_sbu_0, # of connection points: 4
#     Node 2, Type 0, BuildingBlock: KUFVIS_clean_sbu_0, # of connection points: 4
#     Node 3, Type 0, BuildingBlock: KUFVIS_clean_sbu_0, # of connection points: 4
#     Node 4, Type 0, BuildingBlock: KUFVIS_clean_sbu_0, # of connection points: 4
#     Node 5, Type 0, BuildingBlock: KUFVIS_clean_sbu_0, # of connection points: 4
#     Node 6, Type 0, BuildingBlock: KUFVIS_clean_sbu_0, # of connection points: 4
#     Node 7, Type 0, BuildingBlock: KUFVIS_clean_sbu_0, # of connection points: 4
#     Node 8, Type 0, BuildingBlock: KUFVIS_clean_sbu_0, # of connection points: 4
#     Node 9, Type 0, BuildingBlock: KUFVIS_clean_sbu_0, # of connection points: 4
#     Node 10, Type 0, BuildingBlock: KUFVIS_clean_sbu_0, # of connection points: 4
#     Node 11, Type 0, BuildingBlock: KUFVIS_clean_sbu_0, # of connection points: 4
#     Node 12, Type 0, BuildingBlock: KUFVIS_clean_sbu_0, # of connection points: 4
#     Node 13, Type 0, BuildingBlock: KUFVIS_clean_sbu_0, # of connection points: 4
#     Node 14, Type 0, BuildingBlock: KUFVIS_clean_sbu_0, # of connection points: 4
#     Node 15, Type 0, BuildingBlock: KUFVIS_clean_sbu_0, # of connection points: 4
#     Edge 16, Type (0, 0), BuildingBlock: CIFDUS_clean_linker_0, # of connection points: 2
#     Edge 17, Type (0, 0), BuildingBlock: CIFDUS_clean_linker_0, # of connection points: 2
#     Edge 18, Type (0, 0), BuildingBlock: CIFDUS_clean_linker_0, # of connection points: 2
#     Edge 19, Type (0, 0), BuildingBlock: CIFDUS_clean_linker_0, # of connection points: 2
#     Edge 20, Type (0, 0), BuildingBlock: CIFDUS_clean_linker_0, # of connection points: 2
#     Edge 21, Type (0, 0), BuildingBlock: CIFDUS_clean_linker_0, # of connection points: 2
#     Edge 22, Type (0, 0), BuildingBlock: CIFDUS_clean_linker_0, # of connection points: 2
#     Edge 23, Type (0, 0), BuildingBlock: CIFDUS_clean_linker_0, # of connection points: 2
#     Edge 24, Type (0, 0), BuildingBlock: CIFDUS_clean_linker_0, # of connection points: 2
#     Edge 25, Type (0, 0), BuildingBlock: CIFDUS_clean_linker_0, # of connection points: 2
#     Edge 26, Type (0, 0), BuildingBlock: CIFDUS_clean_linker_0, # of connection points: 2
#     Edge 27, Type (0, 0), BuildingBlock: CIFDUS_clean_linker_0, # of connection points: 2
#     Edge 28, Type (0, 0), BuildingBlock: CIFDUS_clean_linker_0, # of connection points: 2
#     Edge 29, Type (0, 0), BuildingBlock: CIFDUS_clean_linker_0, # of connection points: 2
#     Edge 30, Type (0, 0), BuildingBlock: CIFDUS_clean_linker_0, # of connection points: 2
#     Edge 31, Type (0, 0), BuildingBlock: CIFDUS_clean_linker_0, # of connection points: 2
#     Edge 32, Type (0, 0), BuildingBlock: CIFDUS_clean_linker_0, # of connection points: 2
#     Edge 33, Type (0, 0), BuildingBlock: CIFDUS_clean_linker_0, # of connection points: 2
#     Edge 34, Type (0, 0), BuildingBlock: CIFDUS_clean_linker_0, # of connection points: 2
#     Edge 35, Type (0, 0), BuildingBlock: CIFDUS_clean_linker_0, # of connection points: 2
#     Edge 36, Type (0, 0), BuildingBlock: CIFDUS_clean_linker_0, # of connection points: 2
#     Edge 37, Type (0, 0), BuildingBlock: CIFDUS_clean_linker_0, # of connection points: 2
#     Edge 38, Type (0, 0), BuildingBlock: CIFDUS_clean_linker_0, # of connection points: 2
#     Edge 39, Type (0, 0), BuildingBlock: CIFDUS_clean_linker_0, # of connection points: 2
#     Edge 40, Type (0, 0), BuildingBlock: CIFDUS_clean_linker_0, # of connection points: 2
#     Edge 41, Type (0, 0), BuildingBlock: CIFDUS_clean_linker_0, # of connection points: 2
#     Edge 42, Type (0, 0), BuildingBlock: CIFDUS_clean_linker_0, # of connection points: 2
#     Edge 43, Type (0, 0), BuildingBlock: CIFDUS_clean_linker_0, # of connection points: 2
#     Edge 44, Type (0, 0), BuildingBlock: CIFDUS_clean_linker_0, # of connection points: 2
#     Edge 45, Type (0, 0), BuildingBlock: CIFDUS_clean_linker_0, # of connection points: 2
#     Edge 46, Type (0, 0), BuildingBlock: CIFDUS_clean_linker_0, # of connection points: 2
#     Edge 47, Type (0, 0), BuildingBlock: CIFDUS_clean_linker_0, # of connection points: 2
# Relax obj value: 0.248
# Max RMSD: 0.162
# Mean RMSD: 0.162
data_MOF--net-umz--node1-KUFVIS_clean_sbu_0--edge1-CIFDUS_clean_linker_0
_symmetry_space_group_name_H-M    P1
_symmetry_Int_Tables_number       1
_symmetry_cell_setting            triclinic
loop_
_symmetry_equiv_pos_as_xyz
'x, y, z'
_cell_length_a     50.965292
_cell_length_b     50.906983
_cell_length_c     19.882753
_cell_angle_alpha  89.909729
_cell_angle_beta   90.020008
_cell_angle_gamma 90.026278
loop_
_atom_site_label
_atom_site_type_symbol
_atom_site_fract_x
_atom_site_fract_y
_atom_site_fract_z
_atom_type_partial_charge
Mn0 Mn 0.01717 0.62959 0.10275 0.0
Mn1 Mn 0.96324 0.61933 0.00911 0.0
C2 C 0.97728 0.61875 0.1539 0.0
C3 C 0.05368 0.61191 0.15661 0.0
C4 C 0.98588 0.67359 0.03544 0.0
O5 O 0.03271 0.62355 0.00941 0.0
O6 O 0.99527 0.61489 0.95335 0.0
C7 C 0.97159 0.5625 0.98591 0.0
N8 N 0.95622 0.58242 0.00901 0.0
C9 C 0.92301 0.55196 0.04561 0.0
C10 C 0.93842 0.53114 0.02183 0.0
C11 C 0.96284 0.53644 0.99199 0.0
C12 C 0.93283 0.57751 0.03851 0.0
H13 H 0.99045 0.56646 0.96333 0.0
C14 C 0.02031 0.61719 0.95596 0.0
O15 O 0.05243 0.63694 0.14398 0.0
O16 O 0.03442 0.59746 0.13623 0.0
N17 N 0.93086 0.62257 0.05718 0.0
C18 C 0.91857 0.64481 0.0785 0.0
C19 C 0.89351 0.64302 0.10752 0.0
C20 C 0.88136 0.6184 0.11443 0.0
C21 C 0.8944 0.59576 0.09226 0.0
C22 C 0.91914 0.59882 0.06264 0.0
H23 H 0.92781 0.66375 0.07344 0.0
O24 O 0.99545 0.63091 0.18716 0.0
O25 O 0.98301 0.61433 0.09147 0.0
O26 O 0.00476 0.66616 0.0733 0.0
O27 O 0.96917 0.65783 0.00922 0.0
C28 C 0.88397 0.57026 0.09921 0.0
C29 C 0.89838 0.54835 0.07645 0.0
H30 H 0.93174 0.51101 0.02643 0.0
H31 H 0.97491 0.52047 0.97381 0.0
H32 H 0.88363 0.66057 0.12479 0.0
H33 H 0.86215 0.61706 0.13748 0.0
H34 H 0.86503 0.56726 0.12268 0.0
H35 H 0.8903 0.52882 0.08278 0.0
Mn36 Mn 0.87639 0.01769 0.59708 0.0
Mn37 Mn 0.86953 0.96244 0.50607 0.0
C38 C 0.87884 0.97738 0.65123 0.0
C39 C 0.90248 0.04969 0.64693 0.0
C40 C 0.82378 0.99666 0.54704 0.0
O41 O 0.88316 0.03098 0.50292 0.0
O42 O 0.87778 0.99313 0.44615 0.0
C43 C 0.92368 0.95664 0.45402 0.0
N44 N 0.90259 0.94643 0.48701 0.0
C45 C 0.92311 0.90395 0.49446 0.0
C46 C 0.94497 0.91396 0.46006 0.0
C47 C 0.9453 0.94044 0.44004 0.0
C48 C 0.90205 0.92096 0.5064 0.0
H49 H 0.92395 0.97695 0.4383 0.0
C50 C 0.88266 0.01789 0.44842 0.0
O51 O 0.87768 0.05384 0.63603 0.0
O52 O 0.91221 0.02775 0.62558 0.0
N53 N 0.8621 0.93128 0.55637 0.0
C54 C 0.84121 0.92589 0.59681 0.0
C55 C 0.83894 0.90087 0.62607 0.0
C56 C 0.85806 0.88165 0.61312 0.0
C57 C 0.87946 0.88773 0.57156 0.0
C58 C 0.88067 0.91299 0.54379 0.0
H59 H 0.82654 0.94065 0.60697 0.0
O60 O 0.87152 0.99855 0.68204 0.0
O61 O 0.88382 0.98006 0.58683 0.0
O62 O 0.83711 0.01453 0.576 0.0
O63 O 0.834 0.97618 0.5214 0.0
C64 C 0.89998 0.86997 0.55805 0.0
C65 C 0.92173 0.87803 0.51921 0.0
H66 H 0.96178 0.90159 0.44966 0.0
H67 H 0.96217 0.94834 0.41384 0.0
H68 H 0.82248 0.8964 0.65853 0.0
H69 H 0.85631 0.86242 0.63608 0.0
H70 H 0.89952 0.85024 0.57851 0.0
H71 H 0.93767 0.86438 0.51048 0.0
Mn72 Mn 0.47852 0.87365 0.11288 0.0
Mn73 Mn 0.52315 0.88675 0.99336 0.0
C74 C 0.52127 0.8853 0.14281 0.0
C75 C 0.44651 0.89001 0.18562 0.0
C76 C 0.5037 0.83166 0.02539 0.0
O77 O 0.45584 0.88005 0.02937 0.0
O78 O 0.48744 0.89267 0.95665 0.0
C79 C 0.5144 0.94409 0.9833 0.0
N80 N 0.53083 0.9235 0.99521 0.0
C81 C 0.5667 0.95267 0.02004 0.0
C82 C 0.55022 0.97419 0.00753 0.0
C83 C 0.52394 0.96987 0.98921 0.0
C84 C 0.55607 0.92744 0.01344 0.0
H85 H 0.49413 0.94084 0.9698 0.0
C86 C 0.46333 0.8886 0.97192 0.0
O87 O 0.44728 0.86512 0.1711 0.0
O88 O 0.46349 0.90499 0.15627 0.0
N89 N 0.55851 0.88196 0.02337 0.0
C90 C 0.5716 0.8591 0.03541 0.0
C91 C 0.59825 0.85995 0.05337 0.0
C92 C 0.61114 0.88426 0.05874 0.0
C93 C 0.59728 0.90752 0.0458 0.0
C94 C 0.57086 0.90542 0.02713 0.0
H95 H 0.5618 0.84036 0.03115 0.0
O96 O 0.50645 0.87232 0.18413 0.0
O97 O 0.51054 0.88997 0.08496 0.0
O98 O 0.48963 0.83774 0.07622 0.0
O99 O 0.5164 0.84842 0.99003 0.0
C100 C 0.60849 0.93271 0.05192 0.0
C101 C 0.59316 0.95527 0.03948 0.0
H102 H 0.55748 0.99411 0.0122 0.0
H103 H 0.51105 0.98638 0.97989 0.0
H104 H 0.6088 0.84191 0.06331 0.0
H105 H 0.63161 0.88485 0.07338 0.0
H106 H 0.6288 0.93496 0.06697 0.0
H107 H 0.60192 0.97454 0.04513 0.0
Mn108 Mn 0.63535 0.48361 0.67832 0.0
Mn109 Mn 0.62954 0.52524 0.54808 0.0
C110 C 0.62955 0.52833 0.69764 0.0
C111 C 0.61343 0.45484 0.75031 0.0
C112 C 0.681 0.4997 0.59013 0.0
O113 O 0.62756 0.45961 0.59862 0.0
O114 O 0.61708 0.48997 0.52011 0.0
C115 C 0.57159 0.52637 0.53788 0.0
N116 N 0.59475 0.53931 0.54653 0.0
C117 C 0.57236 0.58046 0.56219 0.0
C118 C 0.5483 0.56759 0.55297 0.0
C119 C 0.54792 0.54042 0.54085 0.0
C120 C 0.59532 0.56542 0.55862 0.0
H121 H 0.57118 0.50546 0.52923 0.0
C122 C 0.61868 0.46621 0.54101 0.0
O123 O 0.6386 0.45269 0.74087 0.0
O124 O 0.60148 0.47361 0.71891 0.0
N125 N 0.64047 0.56018 0.57023 0.0
C126 C 0.66518 0.56941 0.58146 0.0
C127 C 0.66897 0.59626 0.59434 0.0
C128 C 0.64734 0.61335 0.59555 0.0
C129 C 0.6221 0.60343 0.58357 0.0
C130 C 0.61957 0.57655 0.57006 0.0
H131 H 0.6819 0.55641 0.58051 0.0
O132 O 0.63887 0.51327 0.74462 0.0
O133 O 0.62428 0.51641 0.64188 0.0
O134 O 0.67281 0.4893 0.64478 0.0
O135 O 0.66618 0.51197 0.54855 0.0
C136 C 0.59929 0.61903 0.58616 0.0
C137 C 0.57443 0.60752 0.5759 0.0
H138 H 0.52999 0.57834 0.5556 0.0
H139 H 0.52942 0.53031 0.53413 0.0
H140 H 0.68851 0.60376 0.6036 0.0
H141 H 0.65031 0.63399 0.60631 0.0
H142 H 0.60062 0.63983 0.59706 0.0
H143 H 0.55701 0.61964 0.57909 0.0
Mn144 Mn 0.01505 0.87951 0.9028 0.0
Mn145 Mn 0.96017 0.87329 0.99558 0.0
C146 C 0.97459 0.88127 0.84934 0.0
C147 C 0.04662 0.90551 0.85034 0.0
C148 C 0.99467 0.82725 0.95762 0.0
O149 O 0.02853 0.88741 0.99628 0.0
O150 O 0.99081 0.88281 0.05406 0.0
C151 C 0.95365 0.92805 0.043 0.0
N152 N 0.9437 0.90636 0.01217 0.0
C153 C 0.90088 0.92604 0.00434 0.0
C154 C 0.91061 0.94851 0.03659 0.0
C155 C 0.93714 0.94956 0.05569 0.0
C156 C 0.91819 0.90512 0.99365 0.0
H157 H 0.974 0.9289 0.05795 0.0
C158 C 0.01551 0.88778 0.05095 0.0
O159 O 0.05104 0.88082 0.86261 0.0
O160 O 0.02468 0.91519 0.87165 0.0
N161 N 0.92907 0.86477 0.94649 0.0
C162 C 0.92395 0.84334 0.90773 0.0
C163 C 0.89891 0.84029 0.87925 0.0
C164 C 0.87942 0.85923 0.89122 0.0
C165 C 0.88523 0.88121 0.93099 0.0
C166 C 0.9105 0.88317 0.95808 0.0
H167 H 0.93892 0.8288 0.89835 0.0
O168 O 0.99566 0.87364 0.81867 0.0
O169 O 0.97745 0.88683 0.91336 0.0
O170 O 0.01225 0.84033 0.92668 0.0
O171 O 0.97433 0.83771 0.98323 0.0
C172 C 0.86716 0.90159 0.94337 0.0
C173 C 0.87493 0.92392 0.98036 0.0
H174 H 0.898 0.96523 0.04595 0.0
H175 H 0.94483 0.96691 0.08018 0.0
H176 H 0.89464 0.82339 0.84816 0.0
H177 H 0.86017 0.85688 0.86887 0.0
H178 H 0.84741 0.90055 0.92342 0.0
H179 H 0.86105 0.93973 0.98815 0.0
Mn180 Mn 0.62932 0.01707 0.3851 0.0
Mn181 Mn 0.61701 0.96216 0.47435 0.0
C182 C 0.62365 0.9767 0.33154 0.0
C183 C 0.61325 0.05253 0.32291 0.0
C184 C 0.67108 0.98692 0.46462 0.0
O185 O 0.61792 0.03221 0.47637 0.0
O186 O 0.60925 0.99386 0.52862 0.0
C187 C 0.55935 0.96899 0.48051 0.0
N188 N 0.58057 0.95413 0.46359 0.0
C189 C 0.5529 0.92045 0.41685 0.0
C190 C 0.53077 0.9353 0.43421 0.0
C191 C 0.53402 0.9597 0.46608 0.0
C192 C 0.57766 0.93075 0.43233 0.0
H193 H 0.56174 0.98787 0.50439 0.0
C194 C 0.61017 0.01902 0.5276 0.0
O195 O 0.63723 0.05259 0.34529 0.0
O196 O 0.5986 0.03289 0.34003 0.0
N197 N 0.62327 0.92995 0.42738 0.0
C198 C 0.64662 0.9183 0.41259 0.0
C199 C 0.64682 0.89346 0.38193 0.0
C200 C 0.62302 0.88086 0.36675 0.0
C201 C 0.59922 0.89317 0.38273 0.0
C202 C 0.60027 0.91771 0.41437 0.0
H203 H 0.66494 0.92794 0.42378 0.0
O204 O 0.63613 0.99557 0.30183 0.0
O205 O 0.61533 0.98211 0.39142 0.0
O206 O 0.66452 0.00606 0.42639 0.0
O207 O 0.65502 0.96924 0.48504 0.0
C208 C 0.57452 0.88224 0.36752 0.0
C209 C 0.55138 0.89598 0.38405 0.0
H210 H 0.5112 0.92825 0.42296 0.0
H211 H 0.51703 0.97136 0.47927 0.0
H212 H 0.66528 0.88413 0.3696 0.0
H213 H 0.62325 0.86187 0.34228 0.0
H214 H 0.57311 0.86345 0.34231 0.0
H215 H 0.53251 0.88756 0.37119 0.0
Mn216 Mn 0.48045 0.63168 0.89303 0.0
Mn217 Mn 0.5329 0.62386 0.99334 0.0
C218 C 0.52188 0.62376 0.84637 0.0
C219 C 0.446 0.61166 0.835 0.0
C220 C 0.50635 0.67651 0.96883 0.0
O221 O 0.46386 0.62416 0.98541 0.0
O222 O 0.50071 0.61412 0.04271 0.0
C223 C 0.53114 0.56591 0.00488 0.0
N224 N 0.54447 0.58821 0.98847 0.0
C225 C 0.58249 0.56336 0.95562 0.0
C226 C 0.56924 0.54012 0.97256 0.0
C227 C 0.54341 0.54141 0.99705 0.0
C228 C 0.56915 0.58717 0.96386 0.0
H229 H 0.51125 0.56684 0.0235 0.0
C230 C 0.4757 0.61606 0.03838 0.0
O231 O 0.44542 0.63669 0.84784 0.0
O232 O 0.4658 0.59852 0.85765 0.0
N233 N 0.5655 0.63247 0.951 0.0
C234 C 0.57508 0.65659 0.9342 0.0
C235 C 0.60081 0.6588 0.90952 0.0
C236 C 0.61646 0.63624 0.90288 0.0
C237 C 0.60621 0.61164 0.92079 0.0
C238 C 0.5805 0.61067 0.94547 0.0
H239 H 0.56324 0.67402 0.94001 0.0
O240 O 0.50346 0.63459 0.81097 0.0
O241 O 0.51529 0.61889 0.90796 0.0
O242 O 0.49034 0.6689 0.92332 0.0
O243 O 0.52224 0.66119 0.99963 0.0
C244 C 0.6203 0.58798 0.91387 0.0
C245 C 0.60833 0.56382 0.93046 0.0
H246 H 0.57866 0.52119 0.96669 0.0
H247 H 0.533 0.52356 0.00989 0.0
H248 H 0.60857 0.67785 0.89579 0.0
H249 H 0.63623 0.63801 0.8834 0.0
H250 H 0.64016 0.58808 0.89446 0.0
H251 H 0.61917 0.54573 0.92357 0.0
Mn252 Mn 0.87225 0.47737 0.36038 0.0
Mn253 Mn 0.87928 0.52181 0.48404 0.0
C254 C 0.87797 0.52158 0.33449 0.0
C255 C 0.89224 0.4482 0.28575 0.0
C256 C 0.82697 0.49735 0.44639 0.0
O257 O 0.88084 0.45449 0.44227 0.0
O258 O 0.88813 0.48632 0.51867 0.0
C259 C 0.93698 0.51821 0.49835 0.0
N260 N 0.91515 0.5328 0.48535 0.0
C261 C 0.94119 0.5714 0.46445 0.0
C262 C 0.96393 0.55682 0.47794 0.0
C263 C 0.9618 0.53012 0.49503 0.0
C264 C 0.91699 0.55848 0.46865 0.0
H265 H 0.93545 0.49762 0.51093 0.0
C266 C 0.8874 0.4621 0.50121 0.0
O267 O 0.86749 0.4459 0.3006 0.0
O268 O 0.90515 0.46659 0.31605 0.0
N269 N 0.87158 0.55707 0.45691 0.0
C270 C 0.84772 0.56839 0.44624 0.0
C271 C 0.84633 0.59528 0.43058 0.0
C272 C 0.86945 0.61022 0.42617 0.0
C273 C 0.89376 0.59819 0.43829 0.0
C274 C 0.89388 0.57144 0.45477 0.0
H275 H 0.82988 0.55701 0.44971 0.0
O276 O 0.86767 0.50568 0.29104 0.0
O277 O 0.88438 0.51087 0.39137 0.0
O278 O 0.83524 0.48388 0.39653 0.0
O279 O 0.84176 0.51163 0.48343 0.0
C280 C 0.91788 0.61164 0.43401 0.0
C281 C 0.94159 0.59821 0.4467 0.0
H282 H 0.98313 0.56591 0.47527 0.0
H283 H 0.97924 0.51874 0.50558 0.0
H284 H 0.82749 0.60443 0.42157 0.0
H285 H 0.86833 0.63087 0.41331 0.0
H286 H 0.91842 0.63226 0.42066 0.0
H287 H 0.96002 0.60871 0.44285 0.0
Mn288 Mn 0.98901 0.3669 0.86231 0.0
Mn289 Mn 0.04223 0.37517 0.9594 0.0
C290 C 0.03045 0.37063 0.81305 0.0
C291 C 0.95521 0.38713 0.80253 0.0
C292 C 0.01252 0.3235 0.94784 0.0
O293 O 0.97352 0.37809 0.95326 0.0
O294 O 0.01102 0.389 0.00655 0.0
C295 C 0.0443 0.43325 0.95506 0.0
N296 N 0.0561 0.4096 0.94466 0.0
C297 C 0.09502 0.43049 0.90181 0.0
C298 C 0.08339 0.45508 0.91258 0.0
C299 C 0.05788 0.45645 0.93914 0.0
C300 C 0.08048 0.40805 0.91831 0.0
H301 H 0.02461 0.43437 0.97488 0.0
C302 C 0.98593 0.38802 0.00313 0.0
O303 O 0.95333 0.36261 0.82028 0.0
O304 O 0.97605 0.39969 0.82075 0.0
N305 N 0.07393 0.3628 0.91875 0.0
C306 C 0.0818 0.33757 0.90815 0.0
C307 C 0.10695 0.33273 0.88212 0.0
C308 C 0.12377 0.35385 0.86746 0.0
C309 C 0.1153 0.37965 0.8792 0.0
C310 C 0.09015 0.38324 0.906 0.0
H311 H 0.06903 0.32125 0.91975 0.0
O312 O 0.01116 0.36012 0.78022 0.0
O313 O 0.02455 0.37795 0.87345 0.0
O314 O 0.99709 0.33033 0.9002 0.0
O315 O 0.02911 0.33899 0.97556 0.0
C316 C 0.13056 0.40195 0.86374 0.0
C317 C 0.12033 0.42735 0.87447 0.0
H318 H 0.09377 0.47301 0.90019 0.0
H319 H 0.04869 0.47535 0.94713 0.0
H320 H 0.11334 0.31277 0.87324 0.0
H321 H 0.14304 0.35005 0.8467 0.0
H322 H 0.14999 0.3998 0.84238 0.0
H323 H 0.13204 0.44435 0.86116 0.0
Mn324 Mn 0.12711 0.98504 0.39174 0.0
Mn325 Mn 0.11762 0.03483 0.49971 0.0
C326 C 0.12129 0.02744 0.3514 0.0
C327 C 0.10778 0.95198 0.32694 0.0
C328 C 0.17072 0.00948 0.47548 0.0
O329 O 0.1184 0.96632 0.47988 0.0
O330 O 0.10811 0.00121 0.54424 0.0
C331 C 0.05971 0.03147 0.50654 0.0
N332 N 0.08178 0.04559 0.49285 0.0
C333 C 0.05625 0.08273 0.45638 0.0
C334 C 0.03324 0.06865 0.47055 0.0
C335 C 0.03499 0.0429 0.49567 0.0
C336 C 0.08032 0.07031 0.46821 0.0
H337 H 0.06098 0.01157 0.52516 0.0
C338 C 0.11026 0.9764 0.5349 0.0
O339 O 0.13254 0.95093 0.34284 0.0
O340 O 0.09449 0.97156 0.35028 0.0
N341 N 0.12589 0.06854 0.46262 0.0
C342 C 0.14994 0.07931 0.45088 0.0
C343 C 0.15168 0.10522 0.42687 0.0
C344 C 0.1287 0.11977 0.41525 0.0
C345 C 0.10417 0.10837 0.42842 0.0
C346 C 0.10369 0.08264 0.4534 0.0
H347 H 0.16766 0.06822 0.45983 0.0
O348 O 0.13198 0.00964 0.31386 0.0
O349 O 0.11436 0.0195 0.41078 0.0
O350 O 0.16368 0.99411 0.42792 0.0
O351 O 0.15507 0.02478 0.50711 0.0
C352 C 0.08019 0.12136 0.41674 0.0
C353 C 0.05624 0.10848 0.43029 0.0
H354 H 0.01414 0.07736 0.46201 0.0
H355 H 0.01733 0.03185 0.50637 0.0
H356 H 0.17068 0.1139 0.41699 0.0
H357 H 0.1301 0.13963 0.39592 0.0
H358 H 0.07993 0.14116 0.39673 0.0
H359 H 0.03792 0.11856 0.42042 0.0
Mn360 Mn 0.52176 0.1284 0.88748 0.0
Mn361 Mn 0.46885 0.12308 0.98756 0.0
C362 C 0.48011 0.12096 0.84082 0.0
C363 C 0.55523 0.10812 0.82585 0.0
C364 C 0.49583 0.17495 0.95721 0.0
O365 O 0.5385 0.12101 0.98016 0.0
O366 O 0.50109 0.11493 0.03842 0.0
C367 C 0.47125 0.06555 0.00872 0.0
N368 N 0.45772 0.08722 0.98835 0.0
C369 C 0.4201 0.06109 0.95892 0.0
C370 C 0.43356 0.0385 0.97995 0.0
C371 C 0.45929 0.04074 0.00473 0.0
C372 C 0.43314 0.08524 0.96344 0.0
H373 H 0.49105 0.06719 0.02763 0.0
C374 C 0.52616 0.11525 0.03443 0.0
O375 O 0.55652 0.13295 0.84079 0.0
O376 O 0.5358 0.09509 0.85111 0.0
N377 N 0.43607 0.13027 0.94446 0.0
C378 C 0.42588 0.15395 0.92607 0.0
C379 C 0.39999 0.15529 0.90204 0.0
C380 C 0.38481 0.1323 0.89764 0.0
C381 C 0.39565 0.10818 0.91742 0.0
C382 C 0.42145 0.10812 0.94171 0.0
H383 H 0.43734 0.17172 0.93018 0.0
O384 O 0.49873 0.13162 0.80587 0.0
O385 O 0.48645 0.11607 0.9027 0.0
O386 O 0.51275 0.16595 0.91592 0.0
O387 O 0.47898 0.16066 0.98789 0.0
C388 C 0.38199 0.08416 0.91336 0.0
C389 C 0.3943 0.0606 0.93346 0.0
H390 H 0.42437 0.01934 0.97714 0.0
H391 H 0.46987 0.02339 0.02076 0.0
H392 H 0.39174 0.17398 0.88703 0.0
H393 H 0.36492 0.13338 0.87864 0.0
H394 H 0.36211 0.08355 0.89413 0.0
H395 H 0.3837 0.04222 0.92935 0.0
Mn396 Mn 0.36813 0.51921 0.38998 0.0
Mn397 Mn 0.38064 0.47515 0.51232 0.0
C398 C 0.37733 0.47584 0.36302 0.0
C399 C 0.38432 0.55063 0.31529 0.0
C400 C 0.32594 0.4949 0.47936 0.0
O401 O 0.3755 0.54248 0.47193 0.0
O402 O 0.38664 0.51118 0.54707 0.0
C403 C 0.43795 0.48405 0.52073 0.0
N404 N 0.41736 0.46746 0.51052 0.0
C405 C 0.44647 0.43143 0.48676 0.0
C406 C 0.46799 0.44809 0.49751 0.0
C407 C 0.46369 0.47452 0.51452 0.0
C408 C 0.42127 0.44203 0.49378 0.0
H409 H 0.43474 0.50445 0.53301 0.0
C410 C 0.38339 0.53528 0.53022 0.0
O411 O 0.35961 0.55028 0.33148 0.0
O412 O 0.39934 0.53339 0.34373 0.0
N413 N 0.3758 0.43944 0.48498 0.0
C414 C 0.35295 0.42618 0.47441 0.0
C415 C 0.35378 0.3994 0.45756 0.0
C416 C 0.37807 0.38656 0.4518 0.0
C417 C 0.40133 0.40057 0.46348 0.0
C418 C 0.39925 0.42709 0.4813 0.0
H419 H 0.33424 0.43597 0.47872 0.0
O420 O 0.36536 0.49084 0.32018 0.0
O421 O 0.38351 0.48691 0.41953 0.0
O422 O 0.33237 0.50909 0.42889 0.0
O423 O 0.34236 0.48192 0.51513 0.0
C424 C 0.42649 0.38939 0.45698 0.0
C425 C 0.44905 0.40485 0.4682 0.0
H426 H 0.48787 0.44085 0.49235 0.0
H427 H 0.4802 0.48754 0.52245 0.0
H428 H 0.33575 0.38873 0.44862 0.0
H429 H 0.37865 0.36601 0.4379 0.0
H430 H 0.42871 0.36901 0.44253 0.0
H431 H 0.46829 0.39614 0.46208 0.0
Mn432 Mn 0.97977 0.12757 0.10847 0.0
Mn433 Mn 0.03027 0.11546 0.00517 0.0
C434 C 0.0209 0.11778 0.15292 0.0
C435 C 0.94494 0.10961 0.16981 0.0
C436 C 0.0073 0.16995 0.02732 0.0
O437 O 0.96195 0.12059 0.01834 0.0
O438 O 0.99695 0.10752 0.95756 0.0
C439 C 0.02472 0.0577 0.99662 0.0
N440 N 0.03946 0.07916 0.01225 0.0
C441 C 0.07516 0.05201 0.05027 0.0
C442 C 0.06043 0.02961 0.03413 0.0
C443 C 0.03509 0.03248 0.00729 0.0
C444 C 0.06378 0.07662 0.03859 0.0
H445 H 0.00514 0.05984 0.97652 0.0
C446 C 0.97225 0.11155 0.96449 0.0
O447 O 0.94545 0.13455 0.15538 0.0
O448 O 0.96389 0.09546 0.14664 0.0
N449 N 0.06361 0.12224 0.04598 0.0
C450 C 0.07491 0.1458 0.06059 0.0
C451 C 0.10048 0.14642 0.08698 0.0
C452 C 0.11414 0.12283 0.09799 0.0
C453 C 0.10213 0.09882 0.0823 0.0
C454 C 0.07676 0.09945 0.05528 0.0
H455 H 0.06454 0.16398 0.05197 0.0
O456 O 0.00357 0.13007 0.18865 0.0
O457 O 0.01343 0.11251 0.09215 0.0
O458 O 0.99143 0.16388 0.0747 0.0
O459 O 0.02193 0.15333 0.99688 0.0
C460 C 0.11412 0.07427 0.09364 0.0
C461 C 0.10057 0.05088 0.07809 0.0
H462 H 0.06834 0.01012 0.04245 0.0
H463 H 0.02355 0.01528 0.99505 0.0
H464 H 0.1096 0.16503 0.09901 0.0
H465 H 0.13373 0.12337 0.11905 0.0
H466 H 0.13362 0.07315 0.11515 0.0
H467 H 0.10986 0.03212 0.08784 0.0
Mn468 Mn 0.36982 0.98848 0.60905 0.0
Mn469 Mn 0.37816 0.04097 0.50852 0.0
C470 C 0.37621 0.03 0.65522 0.0
C471 C 0.38941 0.95404 0.66768 0.0
C472 C 0.32546 0.01438 0.53099 0.0
O473 O 0.37803 0.97184 0.51741 0.0
O474 O 0.38781 0.00863 0.45938 0.0
C475 C 0.43607 0.03854 0.49984 0.0
N476 N 0.41389 0.05214 0.5154 0.0
C477 C 0.4391 0.08903 0.55466 0.0
C478 C 0.46222 0.07551 0.53857 0.0
C479 C 0.46069 0.05013 0.51115 0.0
C480 C 0.41514 0.07645 0.5424 0.0
H481 H 0.43497 0.01891 0.47947 0.0
C482 C 0.38597 0.98359 0.4642 0.0
O483 O 0.36453 0.95336 0.65335 0.0
O484 O 0.40268 0.97407 0.6466 0.0
N485 N 0.36967 0.07368 0.55055 0.0
C486 C 0.34557 0.08368 0.5653 0.0
C487 C 0.3436 0.10909 0.59231 0.0
C488 C 0.36641 0.12395 0.60371 0.0
C489 C 0.391 0.11332 0.58753 0.0
C490 C 0.39169 0.08807 0.55974 0.0
H491 H 0.32797 0.07238 0.55643 0.0
O492 O 0.36582 0.01139 0.69088 0.0
O493 O 0.38233 0.02342 0.59438 0.0
O494 O 0.33297 0.99816 0.57625 0.0
O495 O 0.34079 0.03055 0.501 0.0
C496 C 0.41485 0.12655 0.59926 0.0
C497 C 0.4389 0.11433 0.58334 0.0
H498 H 0.48125 0.08434 0.54749 0.0
H499 H 0.47845 0.03949 0.49906 0.0
H500 H 0.32456 0.11716 0.60459 0.0
H501 H 0.36484 0.14339 0.62537 0.0
H502 H 0.41495 0.14597 0.62144 0.0
H503 H 0.45713 0.12452 0.5936 0.0
Mn504 Mn 0.52392 0.36397 0.18317 0.0
Mn505 Mn 0.47824 0.37618 0.0655 0.0
C506 C 0.48126 0.37517 0.21497 0.0
C507 C 0.55625 0.37972 0.25484 0.0
C508 C 0.49838 0.32148 0.09776 0.0
O509 O 0.54592 0.37114 0.09901 0.0
O510 O 0.51359 0.38287 0.02758 0.0
C511 C 0.48596 0.43367 0.05437 0.0
N512 N 0.46996 0.41281 0.06718 0.0
C513 C 0.4336 0.44138 0.09163 0.0
C514 C 0.44963 0.46316 0.0783 0.0
C515 C 0.47594 0.45928 0.05971 0.0
C516 C 0.44469 0.41633 0.08567 0.0
H517 H 0.50624 0.43079 0.0405 0.0
C518 C 0.53792 0.37981 0.04216 0.0
O519 O 0.55584 0.3551 0.23775 0.0
O520 O 0.5389 0.39503 0.22814 0.0
N521 N 0.44314 0.37085 0.09703 0.0
C522 C 0.43056 0.34781 0.1105 0.0
C523 C 0.40398 0.34823 0.12909 0.0
C524 C 0.39061 0.3723 0.13349 0.0
C525 C 0.40395 0.39575 0.11921 0.0
C526 C 0.43036 0.39408 0.10024 0.0
H527 H 0.4407 0.32925 0.10687 0.0
O528 O 0.49642 0.36222 0.25562 0.0
O529 O 0.49152 0.37983 0.1566 0.0
O530 O 0.51297 0.32808 0.14705 0.0
O531 O 0.48534 0.33784 0.06209 0.0
C532 C 0.39224 0.42073 0.1244 0.0
C533 C 0.40711 0.44354 0.11117 0.0
H534 H 0.44199 0.48294 0.08247 0.0
H535 H 0.48848 0.476 0.04965 0.0
H536 H 0.39383 0.33006 0.14012 0.0
H537 H 0.37018 0.37256 0.14848 0.0
H538 H 0.37192 0.42265 0.13957 0.0
H539 H 0.398 0.46265 0.1163 0.0
Mn540 Mn 0.12808 0.52296 0.60535 0.0
Mn541 Mn 0.11556 0.4785 0.48469 0.0
C542 C 0.1158 0.48041 0.63394 0.0
C543 C 0.11189 0.55557 0.67637 0.0
C544 C 0.17051 0.49635 0.52189 0.0
O545 O 0.1232 0.54576 0.52153 0.0
O546 O 0.1115 0.51443 0.44711 0.0
C547 C 0.05886 0.48914 0.46756 0.0
N548 N 0.07859 0.47212 0.48292 0.0
C549 C 0.04778 0.43745 0.50628 0.0
C550 C 0.02714 0.45457 0.49037 0.0
C551 C 0.03272 0.48051 0.47084 0.0
C552 C 0.07345 0.44712 0.50177 0.0
H553 H 0.06305 0.50917 0.45313 0.0
C554 C 0.11571 0.53847 0.46307 0.0
O555 O 0.13685 0.55406 0.66328 0.0
O556 O 0.09669 0.53883 0.6468 0.0
N557 N 0.1186 0.44298 0.51548 0.0
C558 C 0.14075 0.42905 0.52964 0.0
C559 C 0.13863 0.40255 0.54871 0.0
C560 C 0.1138 0.39068 0.55302 0.0
C561 C 0.09129 0.40537 0.53776 0.0
C562 C 0.09466 0.43157 0.518 0.0
H563 H 0.15988 0.43809 0.5264 0.0
O564 O 0.12814 0.49507 0.67681 0.0
O565 O 0.11155 0.49128 0.57599 0.0
O566 O 0.16404 0.511 0.57131 0.0
O567 O 0.15402 0.48387 0.48534 0.0
C568 C 0.06565 0.39517 0.54237 0.0
C569 C 0.0439 0.41124 0.52693 0.0
H570 H 0.00693 0.44803 0.49312 0.0
H571 H 0.01691 0.49384 0.45842 0.0
H572 H 0.15609 0.39135 0.56043 0.0
H573 H 0.11222 0.37033 0.56857 0.0
H574 H 0.06242 0.37507 0.55827 0.0
H575 H 0.02427 0.40324 0.53113 0.0
H576 H 0.02514 0.7095 0.02201 0.0
H577 H 0.941 0.70102 0.01083 0.0
H578 H 0.93649 0.74761 0.98492 0.0
H579 H 0.95622 0.79087 0.96732 0.0
H580 H 0.04041 0.79939 0.96924 0.0
H581 H 0.0452 0.75259 0.99587 0.0
C582 C 0.00583 0.71794 0.01425 0.0
C583 C 0.9834 0.70191 0.01971 0.0
C584 C 0.00342 0.74466 0.9971 0.0
C585 C 0.95855 0.71293 0.0078 0.0
C586 C 0.95595 0.73958 0.99274 0.0
C587 C 0.97564 0.78247 0.97314 0.0
C588 C 0.99793 0.79858 0.96672 0.0
C589 C 0.97821 0.75562 0.98749 0.0
C590 C 0.02296 0.78735 0.97363 0.0
C591 C 0.02569 0.76065 0.98929 0.0
H592 H 0.70668 0.0265 0.47864 0.0
H593 H 0.69766 0.9426 0.50055 0.0
H594 H 0.74384 0.93846 0.5303 0.0
H595 H 0.7872 0.95827 0.54509 0.0
H596 H 0.79625 0.04233 0.53114 0.0
H597 H 0.74953 0.04689 0.50428 0.0
C598 C 0.71485 0.00733 0.48991 0.0
C599 C 0.69884 0.98483 0.48593 0.0
C600 C 0.74136 0.00514 0.50877 0.0
C601 C 0.70956 0.96019 0.50231 0.0
C602 C 0.73598 0.9578 0.51949 0.0
C603 C 0.77889 0.97762 0.5368 0.0
C604 C 0.79513 0.99991 0.53955 0.0
C605 C 0.7521 0.98007 0.52213 0.0
C606 C 0.78408 0.02489 0.52953 0.0
C607 C 0.75743 0.02747 0.51372 0.0
H608 H 0.50497 0.78835 0.10526 0.0
H609 H 0.50436 0.8129 0.89766 0.0
H610 H 0.50403 0.76703 0.86119 0.0
H611 H 0.5037 0.7197 0.88854 0.0
H612 H 0.5085 0.69535 0.09589 0.0
H613 H 0.50738 0.74119 0.13239 0.0
C614 C 0.50477 0.78358 0.0521 0.0
C615 C 0.50454 0.80388 0.0042 0.0
C616 C 0.5053 0.75718 0.03151 0.0
C617 C 0.50466 0.79754 0.93543 0.0
C618 C 0.50436 0.77134 0.91455 0.0
C619 C 0.50443 0.72454 0.94163 0.0
C620 C 0.50596 0.70431 0.98955 0.0
C621 C 0.50462 0.75098 0.96213 0.0
C622 C 0.50735 0.7107 0.05818 0.0
C623 C 0.50667 0.73686 0.07906 0.0
H624 H 0.70346 0.49652 0.46691 0.0
H625 H 0.72181 0.49948 0.67856 0.0
H626 H 0.76873 0.49942 0.65267 0.0
H627 H 0.8045 0.49945 0.56961 0.0
H628 H 0.78621 0.49332 0.35842 0.0
H629 H 0.73926 0.49365 0.38423 0.0
C630 C 0.71778 0.49711 0.50729 0.0
C631 C 0.70927 0.49817 0.57448 0.0
C632 C 0.74466 0.49654 0.49207 0.0
C633 C 0.72794 0.49855 0.62645 0.0
C634 C 0.75473 0.49863 0.61167 0.0
C635 C 0.79019 0.4982 0.52933 0.0
C636 C 0.7987 0.49659 0.46223 0.0
C637 C 0.76331 0.49779 0.54467 0.0
C638 C 0.78005 0.49454 0.41048 0.0
C639 C 0.75325 0.4948 0.42519 0.0
H640 H 0.00905 0.27875 0.87489 0.0
H641 H 0.01316 0.30765 0.07818 0.0
H642 H 0.01067 0.26268 0.12172 0.0
H643 H 0.00774 0.21485 0.10157 0.0
H644 H 0.00823 0.18607 0.89781 0.0
H645 H 0.00852 0.23106 0.85471 0.0
C646 C 0.00928 0.2751 0.92866 0.0
C647 C 0.01104 0.29633 0.97338 0.0
C648 C 0.00874 0.2492 0.95316 0.0
C649 C 0.01181 0.29149 0.04293 0.0
C650 C 0.01035 0.26583 0.0678 0.0
C651 C 0.00785 0.21855 0.04782 0.0
C652 C 0.00782 0.19731 0.00285 0.0
C653 C 0.00886 0.24449 0.02339 0.0
C654 C 0.00835 0.2022 0.93329 0.0
C655 C 0.00844 0.22789 0.90863 0.0
H656 H 0.28267 0.00845 0.61069 0.0
H657 H 0.30629 0.01953 0.40442 0.0
H658 H 0.26045 0.01768 0.36815 0.0
H659 H 0.21348 0.01299 0.39532 0.0
H660 H 0.18961 0.00641 0.60252 0.0
H661 H 0.23558 0.00633 0.63849 0.0
C662 C 0.27769 0.01041 0.55787 0.0
C663 C 0.2977 0.01394 0.51019 0.0
C664 C 0.25127 0.01009 0.53766 0.0
C665 C 0.29111 0.01687 0.44197 0.0
C666 C 0.26496 0.01573 0.4212 0.0
C667 C 0.21848 0.01143 0.44823 0.0
C668 C 0.19842 0.00943 0.49629 0.0
C669 C 0.24486 0.01232 0.46858 0.0
C670 C 0.20489 0.00793 0.56482 0.0
C671 C 0.23111 0.00786 0.58533 0.0
H672 H 0.48913 0.19821 0.07801 0.0
H673 H 0.50346 0.21517 0.86878 0.0
H674 H 0.50395 0.26236 0.89304 0.0
H675 H 0.50107 0.2988 0.97468 0.0
H676 H 0.4914 0.28126 0.18535 0.0
H677 H 0.48823 0.23432 0.15998 0.0
C678 C 0.49221 0.2123 0.03778 0.0
C679 C 0.49604 0.20337 0.97169 0.0
C680 C 0.49334 0.23925 0.05251 0.0
C681 C 0.5005 0.22169 0.92006 0.0
C682 C 0.50073 0.24862 0.9339 0.0
C683 C 0.49814 0.28462 0.01477 0.0
C684 C 0.49628 0.29331 0.08165 0.0
C685 C 0.49727 0.25763 1.0 0.0
C686 C 0.49292 0.27488 0.13352 0.0
C687 C 0.49107 0.24811 0.11903 0.0
H688 H 0.28397 0.4941 0.396 0.0
H689 H 0.30556 0.4932 0.60565 0.0
H690 H 0.25922 0.4938 0.63793 0.0
H691 H 0.21248 0.49571 0.60615 0.0
H692 H 0.19106 0.49307 0.3964 0.0
H693 H 0.23735 0.49262 0.36439 0.0
C694 C 0.27845 0.494 0.4487 0.0
C695 C 0.29802 0.49386 0.49842 0.0
C696 C 0.25184 0.49372 0.46678 0.0
C697 C 0.29075 0.49328 0.56655 0.0
C698 C 0.2643 0.49371 0.58501 0.0
C699 C 0.21803 0.49498 0.55352 0.0
C700 C 0.1985 0.49462 0.50366 0.0
C701 C 0.24467 0.49411 0.53553 0.0
C702 C 0.20582 0.49328 0.43563 0.0
C703 C 0.23225 0.49312 0.41729 0.0
H704 H 0.07378 0.61227 0.93957 0.0
H705 H 0.00022 0.60705 0.83191 0.0
H706 H 0.02286 0.59062 0.73348 0.0
H707 H 0.06237 0.57323 0.68157 0.0
H708 H 0.13635 0.57744 0.786 0.0
H709 H 0.11485 0.59928 0.88124 0.0
C710 C 0.06276 0.6079 0.89429 0.0
C711 C 0.0352 0.61052 0.89401 0.0
C712 C 0.07595 0.59821 0.83714 0.0
C713 C 0.02134 0.60492 0.83444 0.0
C714 C 0.03427 0.59551 0.77776 0.0
C715 C 0.0739 0.57933 0.72473 0.0
C716 C 0.1008 0.57354 0.72721 0.0
C717 C 0.06139 0.5914 0.7792 0.0
C718 C 0.11558 0.58179 0.78295 0.0
C719 C 0.10324 0.59405 0.83761 0.0
H720 H 0.93121 0.05859 0.17684 0.0
H721 H 0.91706 0.13362 0.27028 0.0
H722 H 0.89435 0.11172 0.36354 0.0
H723 H 0.88357 0.0708 0.42459 0.0
H724 H 0.8981 0.99595 0.32959 0.0
H725 H 0.91551 0.01827 0.23071 0.0
C726 C 0.92268 0.07021 0.21698 0.0
C727 C 0.92599 0.09765 0.2171 0.0
C728 C 0.91007 0.05747 0.27058 0.0
C729 C 0.91466 0.11248 0.26896 0.0
C730 C 0.90192 0.09993 0.32259 0.0
C731 C 0.89028 0.05936 0.38197 0.0
C732 C 0.88989 0.03167 0.38516 0.0
C733 C 0.90033 0.07236 0.32499 0.0
C734 C 0.89827 0.01722 0.32891 0.0
C735 C 0.90831 0.02998 0.27228 0.0
H736 H 0.47154 0.89307 0.83829 0.0
H737 H 0.41067 0.89918 0.9882 0.0
H738 H 0.38029 0.91616 0.90288 0.0
H739 H 0.37316 0.93474 0.78851 0.0
H740 H 0.43582 0.93096 0.64332 0.0
H741 H 0.46324 0.90717 0.72348 0.0
C742 C 0.45155 0.89787 0.85244 0.0
C743 C 0.44354 0.89527 0.91983 0.0
C744 C 0.43449 0.90802 0.80367 0.0
C745 C 0.4174 0.90111 0.93676 0.0
C746 C 0.40006 0.91091 0.88801 0.0
C747 C 0.3925 0.9279 0.77407 0.0
C748 C 0.40251 0.93433 0.71018 0.0
C749 C 0.40862 0.91516 0.82165 0.0
C750 C 0.42777 0.92602 0.69219 0.0
C751 C 0.4435 0.91262 0.73813 0.0
H752 H 0.53925 0.40368 0.36468 0.0
H753 H 0.60997 0.37849 0.26564 0.0
H754 H 0.63658 0.40165 0.3504 0.0
H755 H 0.63893 0.43294 0.44682 0.0
H756 H 0.56736 0.45627 0.54543 0.0
H757 H 0.54165 0.42972 0.46728 0.0
C758 C 0.56053 0.40297 0.36243 0.0
C759 C 0.57282 0.38977 0.30935 0.0
C760 C 0.57539 0.41604 0.41109 0.0
C761 C 0.60028 0.38861 0.30657 0.0
C762 C 0.61539 0.40193 0.3547 0.0
C763 C 0.61777 0.4316 0.45171 0.0
C764 C 0.60484 0.44641 0.50118 0.0
C765 C 0.60311 0.41623 0.40639 0.0
C766 C 0.5775 0.44492 0.50741 0.0
C767 C 0.56285 0.42986 0.46274 0.0
H768 H 0.0562 0.9408 0.31711 0.0
H769 H 0.13119 0.92266 0.22838 0.0
H770 H 0.10915 0.89943 0.13633 0.0
H771 H 0.06831 0.88846 0.07548 0.0
H772 H 0.99351 0.90623 0.16679 0.0
H773 H 0.01577 0.92529 0.26359 0.0
C774 C 0.06775 0.93138 0.27819 0.0
C775 C 0.09526 0.93362 0.27911 0.0
C776 C 0.05496 0.91826 0.22553 0.0
C777 C 0.11 0.92112 0.22884 0.0
C778 C 0.09738 0.90804 0.17595 0.0
C779 C 0.05687 0.89626 0.11686 0.0
C780 C 0.02923 0.89623 0.1132 0.0
C781 C 0.06983 0.90715 0.17281 0.0
C782 C 0.01476 0.90606 0.16786 0.0
C783 C 0.02748 0.91706 0.22329 0.0
H784 H 0.5594 0.05647 0.79994 0.0
H785 H 0.58795 0.13187 0.73354 0.0
H786 H 0.60827 0.11114 0.63503 0.0
H787 H 0.61473 0.07154 0.56291 0.0
H788 H 0.58447 0.99696 0.63296 0.0
H789 H 0.56794 0.01751 0.73378 0.0
C790 C 0.57041 0.0684 0.76455 0.0
C791 C 0.57207 0.09568 0.77407 0.0
C792 C 0.58143 0.0565 0.70769 0.0
C793 C 0.58651 0.11077 0.72771 0.0
C794 C 0.59789 0.09894 0.67096 0.0
C795 C 0.60458 0.05982 0.60032 0.0
C796 C 0.60086 0.03267 0.58947 0.0
C797 C 0.59493 0.07184 0.65947 0.0
C798 C 0.58778 0.01783 0.63916 0.0
C799 C 0.57824 0.02955 0.69732 0.0
H800 H 0.43379 0.56791 0.30883 0.0
H801 H 0.35967 0.57242 0.20536 0.0
H802 H 0.38098 0.59488 0.11034 0.0
H803 H 0.42205 0.60923 0.05258 0.0
H804 H 0.49543 0.60401 0.16129 0.0
H805 H 0.473 0.58594 0.25775 0.0
C806 C 0.4222 0.57414 0.26586 0.0
C807 C 0.39533 0.56836 0.26366 0.0
C808 C 0.43455 0.58667 0.21179 0.0
C809 C 0.38044 0.57678 0.20817 0.0
C810 C 0.39267 0.58941 0.15367 0.0
C811 C 0.43304 0.60441 0.09763 0.0
C812 C 0.46054 0.60763 0.0986 0.0
C813 C 0.41993 0.59385 0.15415 0.0
C814 C 0.47437 0.60144 0.15796 0.0
C815 C 0.46157 0.5911 0.21368 0.0
H816 H 0.9358 0.37154 0.68138 0.0
H817 H 0.93284 0.43382 0.82771 0.0
H818 H 0.909 0.46168 0.74856 0.0
H819 H 0.89395 0.47022 0.63472 0.0
H820 H 0.89918 0.40966 0.4836 0.0
H821 H 0.91701 0.37918 0.5675 0.0
C822 C 0.92914 0.39091 0.69627 0.0
C823 C 0.93568 0.40062 0.76034 0.0
C824 C 0.91637 0.40728 0.64925 0.0
C825 C 0.92771 0.42596 0.77881 0.0
C826 C 0.91429 0.44194 0.73342 0.0
C827 C 0.89877 0.4503 0.61987 0.0
C828 C 0.89554 0.44242 0.55251 0.0
C829 C 0.90935 0.43313 0.66788 0.0
C830 C 0.90158 0.41636 0.53491 0.0
C831 C 0.91183 0.39892 0.5829 0.0
H832 H 0.93312 0.38413 0.03345 0.0
H833 H 0.00593 0.41857 0.1023 0.0
H834 H 0.98356 0.43829 0.19671 0.0
H835 H 0.94381 0.4471 0.25877 0.0
H836 H 0.87009 0.41418 0.19378 0.0
H837 H 0.8924 0.39225 0.09979 0.0
C838 C 0.94404 0.39595 0.06913 0.0
C839 C 0.97125 0.39975 0.06026 0.0
C840 C 0.93097 0.40742 0.1244 0.0
C841 C 0.98506 0.41507 0.10742 0.0
C842 C 0.97229 0.42646 0.16177 0.0
C843 C 0.93253 0.43499 0.22443 0.0
C844 C 0.90533 0.43234 0.23317 0.0
C845 C 0.94533 0.42286 0.17059 0.0
C846 C 0.89111 0.41645 0.18829 0.0
C847 C 0.90384 0.40406 0.13433 0.0
H848 H 0.07406 0.88881 0.74151 0.0
H849 H 0.05538 0.95782 0.85747 0.0
H850 H 0.07517 0.98577 0.77138 0.0
H851 H 0.09347 0.99084 0.65907 0.0
H852 H 0.10992 0.92232 0.53836 0.0
H853 H 0.0952 0.89394 0.63027 0.0
C854 C 0.07502 0.90992 0.74856 0.0
C855 C 0.0635 0.92131 0.80579 0.0
C856 C 0.08548 0.92596 0.69744 0.0
C857 C 0.06427 0.94868 0.81387 0.0
C858 C 0.07539 0.96465 0.76448 0.0
C859 C 0.09403 0.9697 0.65262 0.0
C860 C 0.10258 0.95882 0.59132 0.0
C861 C 0.0853 0.95355 0.70522 0.0
C862 C 0.10327 0.93132 0.58464 0.0
C863 C 0.0949 0.91504 0.63729 0.0
H864 H 0.56399 0.07 0.31245 0.0
H865 H 0.63997 0.07631 0.21939 0.0
H866 H 0.62016 0.09802 0.12116 0.0
H867 H 0.57987 0.11032 0.05642 0.0
H868 H 0.50453 0.10319 0.15525 0.0
H869 H 0.52545 0.08683 0.2555 0.0
C870 C 0.5763 0.07672 0.27133 0.0
C871 C 0.60329 0.07157 0.27293 0.0
C872 C 0.56478 0.08864 0.21512 0.0
C873 C 0.6191 0.08036 0.21953 0.0
C874 C 0.60771 0.09245 0.16299 0.0
C875 C 0.56811 0.10545 0.1001 0.0
C876 C 0.54051 0.10765 0.09693 0.0
C877 C 0.58035 0.09591 0.15921 0.0
C878 C 0.52571 0.10146 0.15482 0.0
C879 C 0.53764 0.09209 0.21287 0.0
H880 H 0.3871 0.52796 0.66455 0.0
H881 H 0.39455 0.58784 0.51194 0.0
H882 H 0.41073 0.61887 0.59663 0.0
H883 H 0.428 0.62697 0.71191 0.0
H884 H 0.42263 0.56537 0.86024 0.0
H885 H 0.39995 0.53719 0.77985 0.0
C886 C 0.39205 0.54786 0.64961 0.0
C887 C 0.39002 0.55539 0.58166 0.0
C888 C 0.40165 0.56534 0.69815 0.0
C889 C 0.39605 0.58144 0.56377 0.0
C890 C 0.40538 0.59917 0.61221 0.0
C891 C 0.42103 0.6077 0.72695 0.0
C892 C 0.42668 0.59825 0.79193 0.0
C893 C 0.40892 0.59113 0.67931 0.0
C894 C 0.41824 0.57304 0.81061 0.0
C895 C 0.4055 0.55686 0.76451 0.0
H896 H 0.88562 0.07804 0.75379 0.0
H897 H 0.95491 0.05784 0.64076 0.0
H898 H 0.98264 0.07729 0.72764 0.0
H899 H 0.9873 0.09522 0.84045 0.0
H900 H 0.91835 0.11307 0.95811 0.0
H901 H 0.89036 0.0993 0.8647 0.0
C902 C 0.90675 0.07862 0.74747 0.0
C903 C 0.91828 0.06669 0.69101 0.0
C904 C 0.92262 0.08885 0.79904 0.0
C905 C 0.94567 0.06702 0.68381 0.0
C906 C 0.96151 0.07793 0.73367 0.0
C907 C 0.96615 0.09629 0.84587 0.0
C908 C 0.95501 0.10487 0.90679 0.0
C909 C 0.95022 0.08807 0.79245 0.0
C910 C 0.92752 0.10635 0.91213 0.0
C911 C 0.91148 0.09851 0.85865 0.0
H912 H 0.39126 0.92972 0.45037 0.0
H913 H 0.3984 0.00294 0.34104 0.0
H914 H 0.41454 0.97975 0.24362 0.0
H915 H 0.43022 0.93981 0.1916 0.0
H916 H 0.42464 0.86593 0.29655 0.0
H917 H 0.40373 0.88809 0.39245 0.0
C918 C 0.39613 0.94053 0.40505 0.0
C919 C 0.39391 0.96818 0.40403 0.0
C920 C 0.40562 0.92698 0.34808 0.0
C921 C 0.40017 0.98177 0.34434 0.0
C922 C 0.40938 0.96853 0.28808 0.0
C923 C 0.42406 0.92844 0.23504 0.0
C924 C 0.42908 0.90137 0.23731 0.0
C925 C 0.41267 0.9413 0.28984 0.0
C926 C 0.4208 0.88683 0.29355 0.0
C927 C 0.40912 0.89955 0.3486 0.0
H928 H 0.52792 0.39415 0.91375 0.0
H929 H 0.59156 0.38579 0.05548 0.0
H930 H 0.62174 0.40592 0.97435 0.0
H931 H 0.62886 0.42994 0.86645 0.0
H932 H 0.56349 0.43993 0.7308 0.0
H933 H 0.53527 0.41504 0.80616 0.0
C934 C 0.54842 0.39646 0.92713 0.0
C935 C 0.55731 0.38868 0.99111 0.0
C936 C 0.56539 0.40854 0.88121 0.0
C937 C 0.58409 0.39164 0.00671 0.0
C938 C 0.60135 0.40327 0.9604 0.0
C939 C 0.60856 0.42621 0.8532 0.0
C940 C 0.59819 0.43684 0.79344 0.0
C941 C 0.59208 0.41238 0.89798 0.0
C942 C 0.57182 0.43214 0.77686 0.0
C943 C 0.55566 0.41791 0.81988 0.0
H944 H 0.11507 0.53117 0.32861 0.0
H945 H 0.10407 0.59081 0.47988 0.0
H946 H 0.08831 0.62145 0.39368 0.0
H947 H 0.07135 0.62864 0.27803 0.0
H948 H 0.07991 0.56725 0.13072 0.0
H949 H 0.10347 0.54013 0.21207 0.0
C950 C 0.10953 0.55098 0.34277 0.0
C951 C 0.11027 0.55853 0.41076 0.0
C952 C 0.10009 0.5682 0.29337 0.0
C953 C 0.10353 0.58444 0.42795 0.0
C954 C 0.09442 0.60193 0.37868 0.0
C955 C 0.0793 0.60974 0.26336 0.0
C956 C 0.07418 0.59991 0.19861 0.0
C957 C 0.0918 0.59373 0.31154 0.0
C958 C 0.08389 0.57517 0.18026 0.0
C959 C 0.09711 0.55959 0.22691 0.0
H960 H 0.92812 0.52129 0.30071 0.0
H961 H 0.86005 0.57111 0.30383 0.0
H962 H 0.88611 0.6078 0.25856 0.0
H963 H 0.92843 0.62453 0.21118 0.0
H964 H 0.99174 0.56973 0.18157 0.0
H965 H 0.96782 0.53605 0.24363 0.0
C966 C 0.91912 0.54031 0.29177 0.0
C967 C 0.89275 0.54419 0.30865 0.0
C968 C 0.93343 0.56017 0.25981 0.0
C969 C 0.88072 0.56827 0.29392 0.0
C970 C 0.89554 0.58904 0.26726 0.0
C971 C 0.93663 0.60508 0.21751 0.0
C972 C 0.9615 0.59934 0.1909 0.0
C973 C 0.92191 0.58511 0.24908 0.0
C974 C 0.97242 0.57435 0.20092 0.0
C975 C 0.9588 0.55512 0.23634 0.0
H976 H 0.91543 0.93982 0.61932 0.0
H977 H 0.87036 0.97012 0.78463 0.0
H978 H 0.89706 0.94478 0.86241 0.0
H979 H 0.937 0.91781 0.88078 0.0
H980 H 0.96769 0.873 0.71559 0.0
H981 H 0.94251 0.89985 0.63771 0.0
C982 C 0.9091 0.9387 0.67072 0.0
C983 C 0.88984 0.95609 0.69429 0.0
C984 C 0.92224 0.92165 0.71507 0.0
C985 C 0.88478 0.95673 0.76403 0.0
C986 C 0.89998 0.94213 0.80899 0.0
C987 C 0.93598 0.91151 0.82942 0.0
C988 C 0.95343 0.8923 0.80596 0.0
C989 C 0.91902 0.92471 0.78502 0.0
C990 C 0.95424 0.88737 0.73616 0.0
C991 C 0.93973 0.90266 0.69114 0.0
H992 H 0.57383 0.88139 0.1735 0.0
H993 H 0.507 0.93308 0.18193 0.0
H994 H 0.53258 0.96549 0.24366 0.0
H995 H 0.57343 0.97859 0.29802 0.0
H996 H 0.64332 0.93267 0.26899 0.0
H997 H 0.61766 0.89888 0.2094 0.0
C998 C 0.56526 0.9001 0.18704 0.0
C999 C 0.53875 0.90509 0.17257 0.0
C1000 C 0.58064 0.91956 0.21847 0.0
C1001 C 0.52748 0.92903 0.19206 0.0
C1002 C 0.54206 0.94755 0.22729 0.0
C1003 C 0.58301 0.96119 0.27829 0.0
C1004 C 0.60976 0.95722 0.29035 0.0
C1005 C 0.56854 0.94291 0.24123 0.0
C1006 C 0.62243 0.93543 0.26212 0.0
C1007 C 0.6078 0.91627 0.22794 0.0
H1008 H 0.57858 0.52723 0.71771 0.0
H1009 H 0.64522 0.57895 0.72648 0.0
H1010 H 0.61662 0.61535 0.76239 0.0
H1011 H 0.57242 0.63103 0.80024 0.0
H1012 H 0.50926 0.57494 0.81319 0.0
H1013 H 0.53631 0.54162 0.75979 0.0
C1014 C 0.58676 0.54656 0.72739 0.0
C1015 C 0.61359 0.55089 0.71784 0.0
C1016 C 0.57073 0.56641 0.7528 0.0
C1017 C 0.62438 0.57557 0.73227 0.0
C1018 C 0.60805 0.59622 0.75304 0.0
C1019 C 0.56487 0.61143 0.79176 0.0
C1020 C 0.53918 0.60514 0.8117 0.0
C1021 C 0.5812 0.59171 0.7649 0.0
C1022 C 0.52915 0.57998 0.79903 0.0
C1023 C 0.54459 0.56093 0.76865 0.0
H1024 H 0.12496 0.42954 0.67357 0.0
H1025 H 0.06511 0.48897 0.6562 0.0
H1026 H 0.03359 0.4603 0.7123 0.0
H1027 H 0.02364 0.41922 0.7701 0.0
H1028 H 0.079 0.35555 0.76523 0.0
H1029 H 0.11178 0.38447 0.71181 0.0
C1030 C 0.10485 0.43581 0.68079 0.0
C1031 C 0.09714 0.46111 0.66058 0.0
C1032 C 0.08628 0.41855 0.70917 0.0
C1033 C 0.07123 0.4694 0.67095 0.0
C1034 C 0.05326 0.45309 0.70301 0.0
C1035 C 0.04289 0.41169 0.75698 0.0
C1036 C 0.0497 0.38595 0.77462 0.0
C1037 C 0.06067 0.42779 0.72291 0.0
C1038 C 0.074 0.37578 0.75459 0.0
C1039 C 0.09256 0.39225 0.72384 0.0
H1040 H 0.07103 0.12473 0.20101 0.0
H1041 H 0.00736 0.06926 0.18767 0.0
H1042 H 0.03184 0.03774 0.25523 0.0
H1043 H 0.07146 0.0255 0.3161 0.0
H1044 H 0.13971 0.07501 0.30552 0.0
H1045 H 0.11388 0.10941 0.24866 0.0
C1046 C 0.06293 0.10552 0.21179 0.0
C1047 C 0.03771 0.09903 0.18875 0.0
C1048 C 0.0779 0.08667 0.24676 0.0
C1049 C 0.02694 0.07441 0.20428 0.0
C1050 C 0.04086 0.05642 0.24294 0.0
C1051 C 0.08056 0.04396 0.30162 0.0
C1052 C 0.10684 0.04861 0.31787 0.0
C1053 C 0.06632 0.06233 0.26427 0.0
C1054 C 0.11905 0.07177 0.29597 0.0
C1055 C 0.10438 0.0912 0.26298 0.0
H1056 H 0.42697 0.02873 0.68211 0.0
H1057 H 0.35802 0.07616 0.70979 0.0
H1058 H 0.38473 0.11078 0.76252 0.0
H1059 H 0.42862 0.12707 0.80089 0.0
H1060 H 0.49421 0.0738 0.79616 0.0
H1061 H 0.46842 0.04206 0.73295 0.0
C1062 C 0.41786 0.04668 0.7 0.0
C1063 C 0.39099 0.05067 0.68983 0.0
C1064 C 0.43286 0.06528 0.73454 0.0
C1065 C 0.37895 0.07328 0.7154 0.0
C1066 C 0.39418 0.09288 0.74595 0.0
C1067 C 0.43685 0.10818 0.78797 0.0
C1068 C 0.46297 0.10242 0.80488 0.0
C1069 C 0.42124 0.08907 0.75588 0.0
C1070 C 0.47397 0.07842 0.7847 0.0
C1071 C 0.45926 0.06026 0.74865 0.0
H1072 H 0.42892 0.37197 0.24888 0.0
H1073 H 0.49621 0.42324 0.25014 0.0
H1074 H 0.47045 0.45793 0.30211 0.0
H1075 H 0.42865 0.47445 0.34332 0.0
H1076 H 0.3588 0.42775 0.32196 0.0
H1077 H 0.38517 0.39063 0.28031 0.0
C1078 C 0.43765 0.39089 0.25972 0.0
C1079 C 0.46424 0.39528 0.24499 0.0
C1080 C 0.4222 0.4115 0.28569 0.0
C1081 C 0.47567 0.4196 0.2605 0.0
C1082 C 0.46098 0.43945 0.29005 0.0
C1083 C 0.41929 0.45605 0.32972 0.0
C1084 C 0.39218 0.4532 0.33792 0.0
C1085 C 0.43423 0.43571 0.30226 0.0
C1086 C 0.37988 0.42987 0.31769 0.0
C1087 C 0.39492 0.40879 0.29373 0.0
loop_
_geom_bond_atom_site_label_1
_geom_bond_atom_site_label_2
_geom_bond_distance
_geom_bond_site_symmetry_2
_ccdc_geom_bond_type
Mn0 O5 2.095 . S
Mn0 O15 2.162 . S
Mn0 O16 2.297 . S
Mn0 O24 2.385 1_455 S
Mn0 O25 2.209 1_455 S
Mn0 O26 2.094 . S
Mn1 O6 2.121 1_654 S
Mn1 N8 2.257 1_554 S
Mn1 N17 2.282 . S
Mn1 O25 2.215 . S
Mn1 O27 2.117 . S
C2 O24 1.234 . S
C2 O25 1.283 . S
C3 O15 1.281 . S
C3 O16 1.236 . S
C4 O26 1.255 . S
C4 O27 1.250 1_455 S
O5 Mn0 2.095 . S
O5 C14 1.250 . S
O6 Mn1 2.121 1_456 S
O6 C14 1.258 1_556 S
C7 N8 1.326 . S
C7 C11 1.460 . S
C7 H13 0.929 . S
N8 Mn1 2.257 1_556 S
N8 C7 1.326 . S
N8 C12 1.362 1_556 S
C9 C10 1.258 . S
C9 C12 1.431 1_556 S
C9 C29 1.449 . S
C10 C9 1.258 . S
C10 C11 1.477 . S
C10 H30 0.931 . S
C11 C7 1.460 . S
C11 C10 1.477 . S
C11 H31 0.930 . S
C12 N8 1.362 1_554 S
C12 C9 1.431 1_554 S
C12 C22 1.476 . S
H13 C7 0.929 . S
C14 O5 1.250 . S
C14 O6 1.258 1_554 S
O15 Mn0 2.162 . S
O15 C3 1.281 . S
O16 Mn0 2.297 . S
O16 C3 1.236 . S
N17 Mn1 2.282 . S
N17 C18 1.328 . S
N17 C22 1.318 . S
C18 N17 1.328 . S
C18 C19 1.457 . S
C18 H23 0.929 . S
C19 C18 1.457 . S
C19 C20 1.291 . S
C19 H32 0.931 . S
C20 C19 1.291 . S
C20 C21 1.373 . S
C20 H33 0.929 . S
C21 C20 1.373 . S
C21 C22 1.396 . S
C21 C28 1.403 . S
C22 C12 1.476 . S
C22 N17 1.318 . S
C22 C21 1.396 . S
H23 C18 0.929 . S
O24 Mn0 2.385 1_655 S
O24 C2 1.234 . S
O25 Mn0 2.209 1_655 S
O25 Mn1 2.215 . S
O25 C2 1.283 . S
O26 Mn0 2.094 . S
O26 C4 1.255 . S
O27 Mn1 2.117 . S
O27 C4 1.250 1_655 S
C28 C21 1.403 . S
C28 C29 1.399 1_554 S
C28 H34 0.929 . S
C29 C9 1.449 . S
C29 C28 1.399 1_556 S
C29 H35 0.930 . S
H30 C10 0.931 . S
H31 C11 0.930 . S
H32 C19 0.931 . S
H33 C20 0.929 . S
H34 C28 0.929 . S
H35 C29 0.930 . S
Mn36 O41 2.095 . S
Mn36 O51 2.162 . S
Mn36 O52 2.297 . S
Mn36 O60 2.385 1_545 S
Mn36 O61 2.209 1_545 S
Mn36 O62 2.094 . S
Mn37 O42 2.121 1_565 S
Mn37 N44 2.257 . S
Mn37 N53 2.282 . S
Mn37 O61 2.215 . S
Mn37 O63 2.117 . S
C38 O60 1.234 . S
C38 O61 1.283 . S
C39 O51 1.281 . S
C39 O52 1.236 . S
C40 O62 1.253 . S
C40 O63 1.252 1_545 S
O41 Mn36 2.095 . S
O41 C50 1.250 . S
O42 Mn37 2.121 1_545 S
O42 C50 1.258 . S
C43 N44 1.326 . S
C43 C47 1.460 . S
C43 H49 0.929 . S
N44 Mn37 2.257 . S
N44 C43 1.326 . S
N44 C48 1.362 . S
C45 C46 1.258 . S
C45 C48 1.431 . S
C45 C65 1.449 . S
C46 C45 1.258 . S
C46 C47 1.477 . S
C46 H66 0.931 . S
C47 C43 1.460 . S
C47 C46 1.477 . S
C47 H67 0.930 . S
C48 N44 1.362 . S
C48 C45 1.431 . S
C48 C58 1.476 . S
H49 C43 0.929 . S
C50 O41 1.250 . S
C50 O42 1.258 . S
O51 Mn36 2.162 . S
O51 C39 1.281 . S
O52 Mn36 2.297 . S
O52 C39 1.236 . S
N53 Mn37 2.282 . S
N53 C54 1.328 . S
N53 C58 1.318 . S
C54 N53 1.328 . S
C54 C55 1.457 . S
C54 H59 0.929 . S
C55 C54 1.457 . S
C55 C56 1.291 . S
C55 H68 0.931 . S
C56 C55 1.291 . S
C56 C57 1.373 . S
C56 H69 0.929 . S
C57 C56 1.373 . S
C57 C58 1.396 . S
C57 C64 1.403 . S
C58 C48 1.476 . S
C58 N53 1.318 . S
C58 C57 1.396 . S
H59 C54 0.929 . S
O60 Mn36 2.385 1_565 S
O60 C38 1.234 . S
O61 Mn36 2.209 1_565 S
O61 Mn37 2.215 . S
O61 C38 1.283 . S
O62 Mn36 2.094 . S
O62 C40 1.253 . S
O63 Mn37 2.117 . S
O63 C40 1.252 1_565 S
C64 C57 1.403 . S
C64 C65 1.399 . S
C64 H70 0.929 . S
C65 C45 1.449 . S
C65 C64 1.399 . S
C65 H71 0.930 . S
H66 C46 0.931 . S
H67 C47 0.930 . S
H68 C55 0.931 . S
H69 C56 0.929 . S
H70 C64 0.929 . S
H71 C65 0.930 . S
Mn72 O77 2.095 . S
Mn72 O87 2.162 . S
Mn72 O88 2.297 . S
Mn72 O96 2.385 . S
Mn72 O97 2.209 . S
Mn72 O98 2.094 . S
Mn73 O78 2.121 1_554 S
Mn73 N80 2.257 1_554 S
Mn73 N89 2.282 . S
Mn73 O97 2.215 . S
Mn73 O99 2.117 . S
C74 O96 1.234 . S
C74 O97 1.283 . S
C75 O87 1.281 . S
C75 O88 1.236 . S
C76 O98 1.240 . S
C76 O99 1.264 . S
O77 Mn72 2.095 . S
O77 C86 1.250 . S
O78 Mn73 2.121 1_556 S
O78 C86 1.258 1_556 S
C79 N80 1.326 . S
C79 C83 1.460 . S
C79 H85 0.929 . S
N80 Mn73 2.257 1_556 S
N80 C79 1.326 . S
N80 C84 1.362 1_556 S
C81 C82 1.258 . S
C81 C84 1.431 1_556 S
C81 C101 1.449 . S
C82 C81 1.258 . S
C82 C83 1.477 . S
C82 H102 0.931 . S
C83 C79 1.460 . S
C83 C82 1.477 . S
C83 H103 0.930 . S
C84 N80 1.362 1_554 S
C84 C81 1.431 1_554 S
C84 C94 1.476 . S
H85 C79 0.929 . S
C86 O77 1.250 . S
C86 O78 1.258 1_554 S
O87 Mn72 2.162 . S
O87 C75 1.281 . S
O88 Mn72 2.297 . S
O88 C75 1.236 . S
N89 Mn73 2.282 . S
N89 C90 1.328 . S
N89 C94 1.318 . S
C90 N89 1.328 . S
C90 C91 1.457 . S
C90 H95 0.929 . S
C91 C90 1.457 . S
C91 C92 1.291 . S
C91 H104 0.931 . S
C92 C91 1.291 . S
C92 C93 1.373 . S
C92 H105 0.929 . S
C93 C92 1.373 . S
C93 C94 1.396 . S
C93 C100 1.403 . S
C94 C84 1.476 . S
C94 N89 1.318 . S
C94 C93 1.396 . S
H95 C90 0.929 . S
O96 Mn72 2.385 . S
O96 C74 1.234 . S
O97 Mn72 2.209 . S
O97 Mn73 2.215 . S
O97 C74 1.283 . S
O98 Mn72 2.094 . S
O98 C76 1.240 . S
O99 Mn73 2.117 . S
O99 C76 1.264 . S
C100 C93 1.403 . S
C100 C101 1.399 1_554 S
C100 H106 0.929 . S
C101 C81 1.449 . S
C101 C100 1.399 1_556 S
C101 H107 0.930 . S
H102 C82 0.931 . S
H103 C83 0.930 . S
H104 C91 0.931 . S
H105 C92 0.929 . S
H106 C100 0.929 . S
H107 C101 0.930 . S
Mn108 O113 2.095 . S
Mn108 O123 2.162 . S
Mn108 O124 2.297 . S
Mn108 O132 2.385 . S
Mn108 O133 2.209 . S
Mn108 O134 2.094 . S
Mn109 O114 2.121 . S
Mn109 N116 2.257 . S
Mn109 N125 2.282 . S
Mn109 O133 2.215 . S
Mn109 O135 2.117 . S
C110 O132 1.234 . S
C110 O133 1.283 . S
C111 O123 1.281 . S
C111 O124 1.236 . S
C112 O134 1.240 . S
C112 O135 1.264 . S
O113 Mn108 2.095 . S
O113 C122 1.250 . S
O114 Mn109 2.121 . S
O114 C122 1.258 . S
C115 N116 1.326 . S
C115 C119 1.460 . S
C115 H121 0.929 . S
N116 Mn109 2.257 . S
N116 C115 1.326 . S
N116 C120 1.362 . S
C117 C118 1.258 . S
C117 C120 1.431 . S
C117 C137 1.449 . S
C118 C117 1.258 . S
C118 C119 1.477 . S
C118 H138 0.931 . S
C119 C115 1.460 . S
C119 C118 1.477 . S
C119 H139 0.930 . S
C120 N116 1.362 . S
C120 C117 1.431 . S
C120 C130 1.476 . S
H121 C115 0.929 . S
C122 O113 1.250 . S
C122 O114 1.258 . S
O123 Mn108 2.162 . S
O123 C111 1.281 . S
O124 Mn108 2.297 . S
O124 C111 1.236 . S
N125 Mn109 2.282 . S
N125 C126 1.328 . S
N125 C130 1.318 . S
C126 N125 1.328 . S
C126 C127 1.457 . S
C126 H131 0.929 . S
C127 C126 1.457 . S
C127 C128 1.291 . S
C127 H140 0.931 . S
C128 C127 1.291 . S
C128 C129 1.373 . S
C128 H141 0.929 . S
C129 C128 1.373 . S
C129 C130 1.396 . S
C129 C136 1.403 . S
C130 C120 1.476 . S
C130 N125 1.318 . S
C130 C129 1.396 . S
H131 C126 0.929 . S
O132 Mn108 2.385 . S
O132 C110 1.234 . S
O133 Mn108 2.209 . S
O133 Mn109 2.215 . S
O133 C110 1.283 . S
O134 Mn108 2.094 . S
O134 C112 1.240 . S
O135 Mn109 2.117 . S
O135 C112 1.264 . S
C136 C129 1.403 . S
C136 C137 1.399 . S
C136 H142 0.929 . S
C137 C117 1.449 . S
C137 C136 1.399 . S
C137 H143 0.930 . S
H138 C118 0.931 . S
H139 C119 0.930 . S
H140 C127 0.931 . S
H141 C128 0.929 . S
H142 C136 0.929 . S
H143 C137 0.930 . S
Mn144 O149 2.095 . S
Mn144 O159 2.162 . S
Mn144 O160 2.297 . S
Mn144 O168 2.385 1_455 S
Mn144 O169 2.209 1_455 S
Mn144 O170 2.094 . S
Mn145 O150 2.121 1_656 S
Mn145 N152 2.257 1_556 S
Mn145 N161 2.282 . S
Mn145 O169 2.215 . S
Mn145 O171 2.117 . S
C146 O168 1.234 . S
C146 O169 1.283 . S
C147 O159 1.281 . S
C147 O160 1.236 . S
C148 O170 1.255 . S
C148 O171 1.250 1_455 S
O149 Mn144 2.095 . S
O149 C158 1.250 . S
O150 Mn145 2.121 1_454 S
O150 C158 1.258 1_554 S
C151 N152 1.326 . S
C151 C155 1.460 . S
C151 H157 0.929 . S
N152 Mn145 2.257 1_554 S
N152 C151 1.326 . S
N152 C156 1.362 1_554 S
C153 C154 1.258 . S
C153 C156 1.431 1_554 S
C153 C173 1.449 . S
C154 C153 1.258 . S
C154 C155 1.477 . S
C154 H174 0.931 . S
C155 C151 1.460 . S
C155 C154 1.477 . S
C155 H175 0.930 . S
C156 N152 1.362 1_556 S
C156 C153 1.431 1_556 S
C156 C166 1.476 . S
H157 C151 0.929 . S
C158 O149 1.250 . S
C158 O150 1.258 1_556 S
O159 Mn144 2.162 . S
O159 C147 1.281 . S
O160 Mn144 2.297 . S
O160 C147 1.236 . S
N161 Mn145 2.282 . S
N161 C162 1.328 . S
N161 C166 1.318 . S
C162 N161 1.328 . S
C162 C163 1.457 . S
C162 H167 0.929 . S
C163 C162 1.457 . S
C163 C164 1.291 . S
C163 H176 0.931 . S
C164 C163 1.291 . S
C164 C165 1.373 . S
C164 H177 0.929 . S
C165 C164 1.373 . S
C165 C166 1.396 . S
C165 C172 1.403 . S
C166 C156 1.476 . S
C166 N161 1.318 . S
C166 C165 1.396 . S
H167 C162 0.929 . S
O168 Mn144 2.385 1_655 S
O168 C146 1.234 . S
O169 Mn144 2.209 1_655 S
O169 Mn145 2.215 . S
O169 C146 1.283 . S
O170 Mn144 2.094 . S
O170 C148 1.255 . S
O171 Mn145 2.117 . S
O171 C148 1.250 1_655 S
C172 C165 1.403 . S
C172 C173 1.399 1_556 S
C172 H178 0.929 . S
C173 C153 1.449 . S
C173 C172 1.399 1_554 S
C173 H179 0.930 . S
H174 C154 0.931 . S
H175 C155 0.930 . S
H176 C163 0.931 . S
H177 C164 0.929 . S
H178 C172 0.929 . S
H179 C173 0.930 . S
Mn180 O185 2.095 . S
Mn180 O195 2.162 . S
Mn180 O196 2.297 . S
Mn180 O204 2.385 1_545 S
Mn180 O205 2.209 1_545 S
Mn180 O206 2.094 . S
Mn181 O186 2.121 1_565 S
Mn181 N188 2.257 . S
Mn181 N197 2.282 . S
Mn181 O205 2.215 . S
Mn181 O207 2.117 . S
C182 O204 1.234 . S
C182 O205 1.283 . S
C183 O195 1.281 . S
C183 O196 1.236 . S
C184 O206 1.254 . S
C184 O207 1.251 1_545 S
O185 Mn180 2.095 . S
O185 C194 1.250 . S
O186 Mn181 2.121 1_545 S
O186 C194 1.258 . S
C187 N188 1.326 . S
C187 C191 1.460 . S
C187 H193 0.929 . S
N188 Mn181 2.257 . S
N188 C187 1.326 . S
N188 C192 1.362 . S
C189 C190 1.258 . S
C189 C192 1.431 . S
C189 C209 1.449 . S
C190 C189 1.258 . S
C190 C191 1.477 . S
C190 H210 0.931 . S
C191 C187 1.460 . S
C191 C190 1.477 . S
C191 H211 0.930 . S
C192 N188 1.362 . S
C192 C189 1.431 . S
C192 C202 1.476 . S
H193 C187 0.929 . S
C194 O185 1.250 . S
C194 O186 1.258 . S
O195 Mn180 2.162 . S
O195 C183 1.281 . S
O196 Mn180 2.297 . S
O196 C183 1.236 . S
N197 Mn181 2.282 . S
N197 C198 1.328 . S
N197 C202 1.318 . S
C198 N197 1.328 . S
C198 C199 1.457 . S
C198 H203 0.929 . S
C199 C198 1.457 . S
C199 C200 1.291 . S
C199 H212 0.931 . S
C200 C199 1.291 . S
C200 C201 1.373 . S
C200 H213 0.929 . S
C201 C200 1.373 . S
C201 C202 1.396 . S
C201 C208 1.403 . S
C202 C192 1.476 . S
C202 N197 1.318 . S
C202 C201 1.396 . S
H203 C198 0.929 . S
O204 Mn180 2.385 1_565 S
O204 C182 1.234 . S
O205 Mn180 2.209 1_565 S
O205 Mn181 2.215 . S
O205 C182 1.283 . S
O206 Mn180 2.094 . S
O206 C184 1.254 . S
O207 Mn181 2.117 . S
O207 C184 1.251 1_565 S
C208 C201 1.403 . S
C208 C209 1.399 . S
C208 H214 0.929 . S
C209 C189 1.449 . S
C209 C208 1.399 . S
C209 H215 0.930 . S
H210 C190 0.931 . S
H211 C191 0.930 . S
H212 C199 0.931 . S
H213 C200 0.929 . S
H214 C208 0.929 . S
H215 C209 0.930 . S
Mn216 O221 2.095 . S
Mn216 O231 2.162 . S
Mn216 O232 2.297 . S
Mn216 O240 2.385 . S
Mn216 O241 2.209 . S
Mn216 O242 2.094 . S
Mn217 O222 2.121 1_556 S
Mn217 N224 2.257 1_556 S
Mn217 N233 2.282 . S
Mn217 O241 2.215 . S
Mn217 O243 2.117 . S
C218 O240 1.234 . S
C218 O241 1.283 . S
C219 O231 1.281 . S
C219 O232 1.236 . S
C220 O242 1.240 . S
C220 O243 1.264 . S
O221 Mn216 2.095 . S
O221 C230 1.250 . S
O222 Mn217 2.121 1_554 S
O222 C230 1.258 1_554 S
C223 N224 1.326 . S
C223 C227 1.460 . S
C223 H229 0.929 . S
N224 Mn217 2.257 1_554 S
N224 C223 1.326 . S
N224 C228 1.362 1_554 S
C225 C226 1.258 . S
C225 C228 1.431 1_554 S
C225 C245 1.449 . S
C226 C225 1.258 . S
C226 C227 1.477 . S
C226 H246 0.931 . S
C227 C223 1.460 . S
C227 C226 1.477 . S
C227 H247 0.930 . S
C228 N224 1.362 1_556 S
C228 C225 1.431 1_556 S
C228 C238 1.476 . S
H229 C223 0.929 . S
C230 O221 1.250 . S
C230 O222 1.258 1_556 S
O231 Mn216 2.162 . S
O231 C219 1.281 . S
O232 Mn216 2.297 . S
O232 C219 1.236 . S
N233 Mn217 2.282 . S
N233 C234 1.328 . S
N233 C238 1.318 . S
C234 N233 1.328 . S
C234 C235 1.457 . S
C234 H239 0.929 . S
C235 C234 1.457 . S
C235 C236 1.291 . S
C235 H248 0.931 . S
C236 C235 1.291 . S
C236 C237 1.373 . S
C236 H249 0.929 . S
C237 C236 1.373 . S
C237 C238 1.396 . S
C237 C244 1.403 . S
C238 C228 1.476 . S
C238 N233 1.318 . S
C238 C237 1.396 . S
H239 C234 0.929 . S
O240 Mn216 2.385 . S
O240 C218 1.234 . S
O241 Mn216 2.209 . S
O241 Mn217 2.215 . S
O241 C218 1.283 . S
O242 Mn216 2.094 . S
O242 C220 1.240 . S
O243 Mn217 2.117 . S
O243 C220 1.264 . S
C244 C237 1.403 . S
C244 C245 1.399 1_556 S
C244 H250 0.929 . S
C245 C225 1.449 . S
C245 C244 1.399 1_554 S
C245 H251 0.930 . S
H246 C226 0.931 . S
H247 C227 0.930 . S
H248 C235 0.931 . S
H249 C236 0.929 . S
H250 C244 0.929 . S
H251 C245 0.930 . S
Mn252 O257 2.095 . S
Mn252 O267 2.162 . S
Mn252 O268 2.297 . S
Mn252 O276 2.385 . S
Mn252 O277 2.209 . S
Mn252 O278 2.094 . S
Mn253 O258 2.121 . S
Mn253 N260 2.257 . S
Mn253 N269 2.282 . S
Mn253 O277 2.215 . S
Mn253 O279 2.117 . S
C254 O276 1.234 . S
C254 O277 1.283 . S
C255 O267 1.281 . S
C255 O268 1.236 . S
C256 O278 1.240 . S
C256 O279 1.264 . S
O257 Mn252 2.095 . S
O257 C266 1.250 . S
O258 Mn253 2.121 . S
O258 C266 1.258 . S
C259 N260 1.326 . S
C259 C263 1.460 . S
C259 H265 0.929 . S
N260 Mn253 2.257 . S
N260 C259 1.326 . S
N260 C264 1.362 . S
C261 C262 1.258 . S
C261 C264 1.431 . S
C261 C281 1.449 . S
C262 C261 1.258 . S
C262 C263 1.477 . S
C262 H282 0.931 . S
C263 C259 1.460 . S
C263 C262 1.477 . S
C263 H283 0.930 . S
C264 N260 1.362 . S
C264 C261 1.431 . S
C264 C274 1.476 . S
H265 C259 0.929 . S
C266 O257 1.250 . S
C266 O258 1.258 . S
O267 Mn252 2.162 . S
O267 C255 1.281 . S
O268 Mn252 2.297 . S
O268 C255 1.236 . S
N269 Mn253 2.282 . S
N269 C270 1.328 . S
N269 C274 1.318 . S
C270 N269 1.328 . S
C270 C271 1.457 . S
C270 H275 0.929 . S
C271 C270 1.457 . S
C271 C272 1.291 . S
C271 H284 0.931 . S
C272 C271 1.291 . S
C272 C273 1.373 . S
C272 H285 0.929 . S
C273 C272 1.373 . S
C273 C274 1.396 . S
C273 C280 1.403 . S
C274 C264 1.476 . S
C274 N269 1.318 . S
C274 C273 1.396 . S
H275 C270 0.929 . S
O276 Mn252 2.385 . S
O276 C254 1.234 . S
O277 Mn252 2.209 . S
O277 Mn253 2.215 . S
O277 C254 1.283 . S
O278 Mn252 2.094 . S
O278 C256 1.240 . S
O279 Mn253 2.117 . S
O279 C256 1.264 . S
C280 C273 1.403 . S
C280 C281 1.399 . S
C280 H286 0.929 . S
C281 C261 1.449 . S
C281 C280 1.399 . S
C281 H287 0.930 . S
H282 C262 0.931 . S
H283 C263 0.930 . S
H284 C271 0.931 . S
H285 C272 0.929 . S
H286 C280 0.929 . S
H287 C281 0.930 . S
Mn288 O293 2.095 . S
Mn288 O303 2.162 . S
Mn288 O304 2.297 . S
Mn288 O312 2.385 1_655 S
Mn288 O313 2.209 1_655 S
Mn288 O314 2.094 . S
Mn289 O294 2.121 1_456 S
Mn289 N296 2.257 1_556 S
Mn289 N305 2.282 . S
Mn289 O313 2.215 . S
Mn289 O315 2.117 . S
C290 O312 1.234 . S
C290 O313 1.283 . S
C291 O303 1.281 . S
C291 O304 1.236 . S
C292 O314 1.255 . S
C292 O315 1.250 1_655 S
O293 Mn288 2.095 . S
O293 C302 1.250 . S
O294 Mn289 2.121 1_654 S
O294 C302 1.258 1_554 S
C295 N296 1.326 . S
C295 C299 1.460 . S
C295 H301 0.929 . S
N296 Mn289 2.257 1_554 S
N296 C295 1.326 . S
N296 C300 1.362 1_554 S
C297 C298 1.258 . S
C297 C300 1.431 1_554 S
C297 C317 1.449 . S
C298 C297 1.258 . S
C298 C299 1.477 . S
C298 H318 0.931 . S
C299 C295 1.460 . S
C299 C298 1.477 . S
C299 H319 0.930 . S
C300 N296 1.362 1_556 S
C300 C297 1.431 1_556 S
C300 C310 1.476 . S
H301 C295 0.929 . S
C302 O293 1.250 . S
C302 O294 1.258 1_556 S
O303 Mn288 2.162 . S
O303 C291 1.281 . S
O304 Mn288 2.297 . S
O304 C291 1.236 . S
N305 Mn289 2.282 . S
N305 C306 1.328 . S
N305 C310 1.318 . S
C306 N305 1.328 . S
C306 C307 1.457 . S
C306 H311 0.929 . S
C307 C306 1.457 . S
C307 C308 1.291 . S
C307 H320 0.931 . S
C308 C307 1.291 . S
C308 C309 1.373 . S
C308 H321 0.929 . S
C309 C308 1.373 . S
C309 C310 1.396 . S
C309 C316 1.403 . S
C310 C300 1.476 . S
C310 N305 1.318 . S
C310 C309 1.396 . S
H311 C306 0.929 . S
O312 Mn288 2.385 1_455 S
O312 C290 1.234 . S
O313 Mn288 2.209 1_455 S
O313 Mn289 2.215 . S
O313 C290 1.283 . S
O314 Mn288 2.094 . S
O314 C292 1.255 . S
O315 Mn289 2.117 . S
O315 C292 1.250 1_455 S
C316 C309 1.403 . S
C316 C317 1.399 1_556 S
C316 H322 0.929 . S
C317 C297 1.449 . S
C317 C316 1.399 1_554 S
C317 H323 0.930 . S
H318 C298 0.931 . S
H319 C299 0.930 . S
H320 C307 0.931 . S
H321 C308 0.929 . S
H322 C316 0.929 . S
H323 C317 0.930 . S
Mn324 O329 2.095 . S
Mn324 O339 2.162 . S
Mn324 O340 2.297 . S
Mn324 O348 2.385 1_565 S
Mn324 O349 2.209 1_565 S
Mn324 O350 2.094 . S
Mn325 O330 2.121 1_545 S
Mn325 N332 2.257 . S
Mn325 N341 2.282 . S
Mn325 O349 2.215 . S
Mn325 O351 2.117 . S
C326 O348 1.234 . S
C326 O349 1.283 . S
C327 O339 1.281 . S
C327 O340 1.236 . S
C328 O350 1.253 . S
C328 O351 1.252 1_565 S
O329 Mn324 2.095 . S
O329 C338 1.250 . S
O330 Mn325 2.121 1_565 S
O330 C338 1.258 . S
C331 N332 1.326 . S
C331 C335 1.460 . S
C331 H337 0.929 . S
N332 Mn325 2.257 . S
N332 C331 1.326 . S
N332 C336 1.362 . S
C333 C334 1.258 . S
C333 C336 1.431 . S
C333 C353 1.449 . S
C334 C333 1.258 . S
C334 C335 1.477 . S
C334 H354 0.931 . S
C335 C331 1.460 . S
C335 C334 1.477 . S
C335 H355 0.930 . S
C336 N332 1.362 . S
C336 C333 1.431 . S
C336 C346 1.476 . S
H337 C331 0.929 . S
C338 O329 1.250 . S
C338 O330 1.258 . S
O339 Mn324 2.162 . S
O339 C327 1.281 . S
O340 Mn324 2.297 . S
O340 C327 1.236 . S
N341 Mn325 2.282 . S
N341 C342 1.328 . S
N341 C346 1.318 . S
C342 N341 1.328 . S
C342 C343 1.457 . S
C342 H347 0.929 . S
C343 C342 1.457 . S
C343 C344 1.291 . S
C343 H356 0.931 . S
C344 C343 1.291 . S
C344 C345 1.373 . S
C344 H357 0.929 . S
C345 C344 1.373 . S
C345 C346 1.396 . S
C345 C352 1.403 . S
C346 C336 1.476 . S
C346 N341 1.318 . S
C346 C345 1.396 . S
H347 C342 0.929 . S
O348 Mn324 2.385 1_545 S
O348 C326 1.234 . S
O349 Mn324 2.209 1_545 S
O349 Mn325 2.215 . S
O349 C326 1.283 . S
O350 Mn324 2.094 . S
O350 C328 1.253 . S
O351 Mn325 2.117 . S
O351 C328 1.252 1_545 S
C352 C345 1.403 . S
C352 C353 1.399 . S
C352 H358 0.929 . S
C353 C333 1.449 . S
C353 C352 1.399 . S
C353 H359 0.930 . S
H354 C334 0.931 . S
H355 C335 0.930 . S
H356 C343 0.931 . S
H357 C344 0.929 . S
H358 C352 0.929 . S
H359 C353 0.930 . S
Mn360 O365 2.095 . S
Mn360 O375 2.162 . S
Mn360 O376 2.297 . S
Mn360 O384 2.385 . S
Mn360 O385 2.209 . S
Mn360 O386 2.094 . S
Mn361 O366 2.121 1_556 S
Mn361 N368 2.257 1_556 S
Mn361 N377 2.282 . S
Mn361 O385 2.215 . S
Mn361 O387 2.117 . S
C362 O384 1.234 . S
C362 O385 1.283 . S
C363 O375 1.281 . S
C363 O376 1.236 . S
C364 O386 1.240 . S
C364 O387 1.264 . S
O365 Mn360 2.095 . S
O365 C374 1.250 . S
O366 Mn361 2.121 1_554 S
O366 C374 1.258 1_554 S
C367 N368 1.326 . S
C367 C371 1.460 . S
C367 H373 0.929 . S
N368 Mn361 2.257 1_554 S
N368 C367 1.326 . S
N368 C372 1.362 1_554 S
C369 C370 1.258 . S
C369 C372 1.431 1_554 S
C369 C389 1.449 . S
C370 C369 1.258 . S
C370 C371 1.477 . S
C370 H390 0.931 . S
C371 C367 1.460 . S
C371 C370 1.477 . S
C371 H391 0.930 . S
C372 N368 1.362 1_556 S
C372 C369 1.431 1_556 S
C372 C382 1.476 . S
H373 C367 0.929 . S
C374 O365 1.250 . S
C374 O366 1.258 1_556 S
O375 Mn360 2.162 . S
O375 C363 1.281 . S
O376 Mn360 2.297 . S
O376 C363 1.236 . S
N377 Mn361 2.282 . S
N377 C378 1.328 . S
N377 C382 1.318 . S
C378 N377 1.328 . S
C378 C379 1.457 . S
C378 H383 0.929 . S
C379 C378 1.457 . S
C379 C380 1.291 . S
C379 H392 0.931 . S
C380 C379 1.291 . S
C380 C381 1.373 . S
C380 H393 0.929 . S
C381 C380 1.373 . S
C381 C382 1.396 . S
C381 C388 1.403 . S
C382 C372 1.476 . S
C382 N377 1.318 . S
C382 C381 1.396 . S
H383 C378 0.929 . S
O384 Mn360 2.385 . S
O384 C362 1.234 . S
O385 Mn360 2.209 . S
O385 Mn361 2.215 . S
O385 C362 1.283 . S
O386 Mn360 2.094 . S
O386 C364 1.240 . S
O387 Mn361 2.117 . S
O387 C364 1.264 . S
C388 C381 1.403 . S
C388 C389 1.399 1_556 S
C388 H394 0.929 . S
C389 C369 1.449 . S
C389 C388 1.399 1_554 S
C389 H395 0.930 . S
H390 C370 0.931 . S
H391 C371 0.930 . S
H392 C379 0.931 . S
H393 C380 0.929 . S
H394 C388 0.929 . S
H395 C389 0.930 . S
Mn396 O401 2.095 . S
Mn396 O411 2.162 . S
Mn396 O412 2.297 . S
Mn396 O420 2.385 . S
Mn396 O421 2.209 . S
Mn396 O422 2.094 . S
Mn397 O402 2.121 . S
Mn397 N404 2.257 . S
Mn397 N413 2.282 . S
Mn397 O421 2.215 . S
Mn397 O423 2.117 . S
C398 O420 1.234 . S
C398 O421 1.283 . S
C399 O411 1.281 . S
C399 O412 1.236 . S
C400 O422 1.240 . S
C400 O423 1.264 . S
O401 Mn396 2.095 . S
O401 C410 1.250 . S
O402 Mn397 2.121 . S
O402 C410 1.258 . S
C403 N404 1.326 . S
C403 C407 1.460 . S
C403 H409 0.929 . S
N404 Mn397 2.257 . S
N404 C403 1.326 . S
N404 C408 1.362 . S
C405 C406 1.258 . S
C405 C408 1.431 . S
C405 C425 1.449 . S
C406 C405 1.258 . S
C406 C407 1.477 . S
C406 H426 0.931 . S
C407 C403 1.460 . S
C407 C406 1.477 . S
C407 H427 0.930 . S
C408 N404 1.362 . S
C408 C405 1.431 . S
C408 C418 1.476 . S
H409 C403 0.929 . S
C410 O401 1.250 . S
C410 O402 1.258 . S
O411 Mn396 2.162 . S
O411 C399 1.281 . S
O412 Mn396 2.297 . S
O412 C399 1.236 . S
N413 Mn397 2.282 . S
N413 C414 1.328 . S
N413 C418 1.318 . S
C414 N413 1.328 . S
C414 C415 1.457 . S
C414 H419 0.929 . S
C415 C414 1.457 . S
C415 C416 1.291 . S
C415 H428 0.931 . S
C416 C415 1.291 . S
C416 C417 1.373 . S
C416 H429 0.929 . S
C417 C416 1.373 . S
C417 C418 1.396 . S
C417 C424 1.403 . S
C418 C408 1.476 . S
C418 N413 1.318 . S
C418 C417 1.396 . S
H419 C414 0.929 . S
O420 Mn396 2.385 . S
O420 C398 1.234 . S
O421 Mn396 2.209 . S
O421 Mn397 2.215 . S
O421 C398 1.283 . S
O422 Mn396 2.094 . S
O422 C400 1.240 . S
O423 Mn397 2.117 . S
O423 C400 1.264 . S
C424 C417 1.403 . S
C424 C425 1.399 . S
C424 H430 0.929 . S
C425 C405 1.449 . S
C425 C424 1.399 . S
C425 H431 0.930 . S
H426 C406 0.931 . S
H427 C407 0.930 . S
H428 C415 0.931 . S
H429 C416 0.929 . S
H430 C424 0.929 . S
H431 C425 0.930 . S
Mn432 O437 2.095 . S
Mn432 O447 2.162 . S
Mn432 O448 2.297 . S
Mn432 O456 2.385 1_655 S
Mn432 O457 2.209 1_655 S
Mn432 O458 2.094 . S
Mn433 O438 2.121 1_454 S
Mn433 N440 2.257 1_554 S
Mn433 N449 2.282 . S
Mn433 O457 2.215 . S
Mn433 O459 2.117 . S
C434 O456 1.234 . S
C434 O457 1.283 . S
C435 O447 1.281 . S
C435 O448 1.236 . S
C436 O458 1.255 . S
C436 O459 1.250 1_655 S
O437 Mn432 2.095 . S
O437 C446 1.250 . S
O438 Mn433 2.121 1_656 S
O438 C446 1.258 1_556 S
C439 N440 1.326 . S
C439 C443 1.460 . S
C439 H445 0.929 . S
N440 Mn433 2.257 1_556 S
N440 C439 1.326 . S
N440 C444 1.362 1_556 S
C441 C442 1.258 . S
C441 C444 1.431 1_556 S
C441 C461 1.449 . S
C442 C441 1.258 . S
C442 C443 1.477 . S
C442 H462 0.931 . S
C443 C439 1.460 . S
C443 C442 1.477 . S
C443 H463 0.930 . S
C444 N440 1.362 1_554 S
C444 C441 1.431 1_554 S
C444 C454 1.476 . S
H445 C439 0.929 . S
C446 O437 1.250 . S
C446 O438 1.258 1_554 S
O447 Mn432 2.162 . S
O447 C435 1.281 . S
O448 Mn432 2.297 . S
O448 C435 1.236 . S
N449 Mn433 2.282 . S
N449 C450 1.328 . S
N449 C454 1.318 . S
C450 N449 1.328 . S
C450 C451 1.457 . S
C450 H455 0.929 . S
C451 C450 1.457 . S
C451 C452 1.291 . S
C451 H464 0.931 . S
C452 C451 1.291 . S
C452 C453 1.373 . S
C452 H465 0.929 . S
C453 C452 1.373 . S
C453 C454 1.396 . S
C453 C460 1.403 . S
C454 C444 1.476 . S
C454 N449 1.318 . S
C454 C453 1.396 . S
H455 C450 0.929 . S
O456 Mn432 2.385 1_455 S
O456 C434 1.234 . S
O457 Mn432 2.209 1_455 S
O457 Mn433 2.215 . S
O457 C434 1.283 . S
O458 Mn432 2.094 . S
O458 C436 1.255 . S
O459 Mn433 2.117 . S
O459 C436 1.250 1_455 S
C460 C453 1.403 . S
C460 C461 1.399 1_554 S
C460 H466 0.929 . S
C461 C441 1.449 . S
C461 C460 1.399 1_556 S
C461 H467 0.930 . S
H462 C442 0.931 . S
H463 C443 0.930 . S
H464 C451 0.931 . S
H465 C452 0.929 . S
H466 C460 0.929 . S
H467 C461 0.930 . S
Mn468 O473 2.095 . S
Mn468 O483 2.162 . S
Mn468 O484 2.297 . S
Mn468 O492 2.385 1_565 S
Mn468 O493 2.209 1_565 S
Mn468 O494 2.094 . S
Mn469 O474 2.121 1_545 S
Mn469 N476 2.257 . S
Mn469 N485 2.282 . S
Mn469 O493 2.215 . S
Mn469 O495 2.117 . S
C470 O492 1.234 . S
C470 O493 1.283 . S
C471 O483 1.281 . S
C471 O484 1.236 . S
C472 O494 1.254 . S
C472 O495 1.251 1_565 S
O473 Mn468 2.095 . S
O473 C482 1.250 . S
O474 Mn469 2.121 1_565 S
O474 C482 1.258 . S
C475 N476 1.326 . S
C475 C479 1.460 . S
C475 H481 0.929 . S
N476 Mn469 2.257 . S
N476 C475 1.326 . S
N476 C480 1.362 . S
C477 C478 1.258 . S
C477 C480 1.431 . S
C477 C497 1.449 . S
C478 C477 1.258 . S
C478 C479 1.477 . S
C478 H498 0.931 . S
C479 C475 1.460 . S
C479 C478 1.477 . S
C479 H499 0.930 . S
C480 N476 1.362 . S
C480 C477 1.431 . S
C480 C490 1.476 . S
H481 C475 0.929 . S
C482 O473 1.250 . S
C482 O474 1.258 . S
O483 Mn468 2.162 . S
O483 C471 1.281 . S
O484 Mn468 2.297 . S
O484 C471 1.236 . S
N485 Mn469 2.282 . S
N485 C486 1.328 . S
N485 C490 1.318 . S
C486 N485 1.328 . S
C486 C487 1.457 . S
C486 H491 0.929 . S
C487 C486 1.457 . S
C487 C488 1.291 . S
C487 H500 0.931 . S
C488 C487 1.291 . S
C488 C489 1.373 . S
C488 H501 0.929 . S
C489 C488 1.373 . S
C489 C490 1.396 . S
C489 C496 1.403 . S
C490 C480 1.476 . S
C490 N485 1.318 . S
C490 C489 1.396 . S
H491 C486 0.929 . S
O492 Mn468 2.385 1_545 S
O492 C470 1.234 . S
O493 Mn468 2.209 1_545 S
O493 Mn469 2.215 . S
O493 C470 1.283 . S
O494 Mn468 2.094 . S
O494 C472 1.254 . S
O495 Mn469 2.117 . S
O495 C472 1.251 1_545 S
C496 C489 1.403 . S
C496 C497 1.399 . S
C496 H502 0.929 . S
C497 C477 1.449 . S
C497 C496 1.399 . S
C497 H503 0.930 . S
H498 C478 0.931 . S
H499 C479 0.930 . S
H500 C487 0.931 . S
H501 C488 0.929 . S
H502 C496 0.929 . S
H503 C497 0.930 . S
Mn504 O509 2.095 . S
Mn504 O519 2.162 . S
Mn504 O520 2.297 . S
Mn504 O528 2.385 . S
Mn504 O529 2.209 . S
Mn504 O530 2.094 . S
Mn505 O510 2.121 1_554 S
Mn505 N512 2.257 1_554 S
Mn505 N521 2.282 . S
Mn505 O529 2.215 . S
Mn505 O531 2.117 . S
C506 O528 1.234 . S
C506 O529 1.283 . S
C507 O519 1.281 . S
C507 O520 1.236 . S
C508 O530 1.240 . S
C508 O531 1.264 . S
O509 Mn504 2.095 . S
O509 C518 1.250 . S
O510 Mn505 2.121 1_556 S
O510 C518 1.258 1_556 S
C511 N512 1.326 . S
C511 C515 1.460 . S
C511 H517 0.929 . S
N512 Mn505 2.257 1_556 S
N512 C511 1.326 . S
N512 C516 1.362 1_556 S
C513 C514 1.258 . S
C513 C516 1.431 1_556 S
C513 C533 1.449 . S
C514 C513 1.258 . S
C514 C515 1.477 . S
C514 H534 0.931 . S
C515 C511 1.460 . S
C515 C514 1.477 . S
C515 H535 0.930 . S
C516 N512 1.362 1_554 S
C516 C513 1.431 1_554 S
C516 C526 1.476 . S
H517 C511 0.929 . S
C518 O509 1.250 . S
C518 O510 1.258 1_554 S
O519 Mn504 2.162 . S
O519 C507 1.281 . S
O520 Mn504 2.297 . S
O520 C507 1.236 . S
N521 Mn505 2.282 . S
N521 C522 1.328 . S
N521 C526 1.318 . S
C522 N521 1.328 . S
C522 C523 1.457 . S
C522 H527 0.929 . S
C523 C522 1.457 . S
C523 C524 1.291 . S
C523 H536 0.931 . S
C524 C523 1.291 . S
C524 C525 1.373 . S
C524 H537 0.929 . S
C525 C524 1.373 . S
C525 C526 1.396 . S
C525 C532 1.403 . S
C526 C516 1.476 . S
C526 N521 1.318 . S
C526 C525 1.396 . S
H527 C522 0.929 . S
O528 Mn504 2.385 . S
O528 C506 1.234 . S
O529 Mn504 2.209 . S
O529 Mn505 2.215 . S
O529 C506 1.283 . S
O530 Mn504 2.094 . S
O530 C508 1.240 . S
O531 Mn505 2.117 . S
O531 C508 1.264 . S
C532 C525 1.403 . S
C532 C533 1.399 1_554 S
C532 H538 0.929 . S
C533 C513 1.449 . S
C533 C532 1.399 1_556 S
C533 H539 0.930 . S
H534 C514 0.931 . S
H535 C515 0.930 . S
H536 C523 0.931 . S
H537 C524 0.929 . S
H538 C532 0.929 . S
H539 C533 0.930 . S
Mn540 O545 2.095 . S
Mn540 O555 2.162 . S
Mn540 O556 2.297 . S
Mn540 O564 2.385 . S
Mn540 O565 2.209 . S
Mn540 O566 2.094 . S
Mn541 O546 2.121 . S
Mn541 N548 2.257 . S
Mn541 N557 2.282 . S
Mn541 O565 2.215 . S
Mn541 O567 2.117 . S
C542 O564 1.234 . S
C542 O565 1.283 . S
C543 O555 1.281 . S
C543 O556 1.236 . S
C544 O566 1.240 . S
C544 O567 1.264 . S
O545 Mn540 2.095 . S
O545 C554 1.250 . S
O546 Mn541 2.121 . S
O546 C554 1.258 . S
C547 N548 1.326 . S
C547 C551 1.460 . S
C547 H553 0.929 . S
N548 Mn541 2.257 . S
N548 C547 1.326 . S
N548 C552 1.362 . S
C549 C550 1.258 . S
C549 C552 1.431 . S
C549 C569 1.449 . S
C550 C549 1.258 . S
C550 C551 1.477 . S
C550 H570 0.931 . S
C551 C547 1.460 . S
C551 C550 1.477 . S
C551 H571 0.930 . S
C552 N548 1.362 . S
C552 C549 1.431 . S
C552 C562 1.476 . S
H553 C547 0.929 . S
C554 O545 1.250 . S
C554 O546 1.258 . S
O555 Mn540 2.162 . S
O555 C543 1.281 . S
O556 Mn540 2.297 . S
O556 C543 1.236 . S
N557 Mn541 2.282 . S
N557 C558 1.328 . S
N557 C562 1.318 . S
C558 N557 1.328 . S
C558 C559 1.457 . S
C558 H563 0.929 . S
C559 C558 1.457 . S
C559 C560 1.291 . S
C559 H572 0.931 . S
C560 C559 1.291 . S
C560 C561 1.373 . S
C560 H573 0.929 . S
C561 C560 1.373 . S
C561 C562 1.396 . S
C561 C568 1.403 . S
C562 C552 1.476 . S
C562 N557 1.318 . S
C562 C561 1.396 . S
H563 C558 0.929 . S
O564 Mn540 2.385 . S
O564 C542 1.234 . S
O565 Mn540 2.209 . S
O565 Mn541 2.215 . S
O565 C542 1.283 . S
O566 Mn540 2.094 . S
O566 C544 1.240 . S
O567 Mn541 2.117 . S
O567 C544 1.264 . S
C568 C561 1.403 . S
C568 C569 1.399 . S
C568 H574 0.929 . S
C569 C549 1.449 . S
C569 C568 1.399 . S
C569 H575 0.930 . S
H570 C550 0.931 . S
H571 C551 0.930 . S
H572 C559 0.931 . S
H573 C560 0.929 . S
H574 C568 0.929 . S
H575 C569 0.930 . S
H576 C582 0.930 . S
H577 C585 0.930 1_556 S
H578 C586 0.930 . S
H579 C587 0.930 . S
H580 C590 0.930 1_554 S
H581 C591 0.930 . S
C582 H576 0.930 . S
C582 C583 1.353 1_655 S
C582 C584 1.415 . S
C583 C582 1.353 1_455 S
C583 C585 1.421 . S
C584 C582 1.415 . S
C584 C589 1.425 1_654 S
C584 C591 1.409 . S
C585 H577 0.930 1_554 S
C585 C583 1.421 . S
C585 C586 1.362 1_554 S
C586 H578 0.930 . S
C586 C585 1.362 1_556 S
C586 C589 1.409 . S
C587 H579 0.930 . S
C587 C588 1.350 1_455 S
C587 C589 1.415 . S
C588 C587 1.350 1_655 S
C588 C590 1.424 . S
C589 C584 1.425 1_456 S
C589 C586 1.409 . S
C589 C587 1.415 . S
C590 H580 0.930 1_556 S
C590 C588 1.424 . S
C590 C591 1.362 1_556 S
C591 H581 0.930 . S
C591 C584 1.409 . S
C591 C590 1.362 1_554 S
H592 C598 0.930 . S
H593 C601 0.930 . S
H594 C602 0.930 . S
H595 C603 0.930 . S
H596 C606 0.930 . S
H597 C607 0.930 . S
C598 H592 0.930 . S
C598 C599 1.357 . S
C598 C600 1.415 . S
C599 C598 1.357 . S
C599 C601 1.417 1_565 S
C600 C598 1.415 . S
C600 C605 1.425 1_565 S
C600 C607 1.409 . S
C601 H593 0.930 . S
C601 C599 1.417 1_545 S
C601 C602 1.362 . S
C602 H594 0.930 . S
C602 C601 1.362 . S
C602 C605 1.409 . S
C603 H595 0.930 . S
C603 C604 1.354 . S
C603 C605 1.415 . S
C604 C603 1.354 . S
C604 C606 1.420 1_545 S
C605 C600 1.425 1_545 S
C605 C602 1.409 . S
C605 C603 1.415 . S
C606 H596 0.930 . S
C606 C604 1.420 1_565 S
C606 C607 1.362 . S
C607 H597 0.930 . S
C607 C600 1.409 . S
C607 C606 1.362 . S
H608 C614 0.930 . S
H609 C617 0.930 . S
H610 C618 0.930 . S
H611 C619 0.930 . S
H612 C622 0.930 . S
H613 C623 0.930 . S
C614 H608 0.930 . S
C614 C615 1.355 . S
C614 C616 1.415 . S
C615 C614 1.355 . S
C615 C617 1.419 1_554 S
C616 C614 1.415 . S
C616 C621 1.425 1_554 S
C616 C623 1.409 . S
C617 H609 0.930 . S
C617 C615 1.419 1_556 S
C617 C618 1.362 . S
C618 H610 0.930 . S
C618 C617 1.362 . S
C618 C621 1.409 . S
C619 H611 0.930 . S
C619 C620 1.355 . S
C619 C621 1.415 . S
C620 C619 1.355 . S
C620 C622 1.419 1_556 S
C621 C616 1.425 1_556 S
C621 C618 1.409 . S
C621 C619 1.415 . S
C622 H612 0.930 . S
C622 C620 1.419 1_554 S
C622 C623 1.362 . S
C623 H613 0.930 . S
C623 C616 1.409 . S
C623 C622 1.362 . S
H624 C630 0.930 . S
H625 C633 0.930 . S
H626 C634 0.930 . S
H627 C635 0.930 . S
H628 C638 0.930 . S
H629 C639 0.930 . S
C630 H624 0.930 . S
C630 C631 1.355 . S
C630 C632 1.415 . S
C631 C630 1.355 . S
C631 C633 1.419 . S
C632 C630 1.415 . S
C632 C637 1.425 . S
C632 C639 1.409 . S
C633 H625 0.930 . S
C633 C631 1.419 . S
C633 C634 1.362 . S
C634 H626 0.930 . S
C634 C633 1.362 . S
C634 C637 1.409 . S
C635 H627 0.930 . S
C635 C636 1.355 . S
C635 C637 1.415 . S
C636 C635 1.355 . S
C636 C638 1.419 . S
C637 C632 1.425 . S
C637 C634 1.409 . S
C637 C635 1.415 . S
C638 H628 0.930 . S
C638 C636 1.419 . S
C638 C639 1.362 . S
C639 H629 0.930 . S
C639 C632 1.409 . S
C639 C638 1.362 . S
H640 C646 0.930 . S
H641 C649 0.931 . S
H642 C650 0.930 . S
H643 C651 0.930 . S
H644 C654 0.931 . S
H645 C655 0.930 . S
C646 H640 0.930 . S
C646 C647 1.355 1_455 S
C646 C648 1.415 . S
C647 C646 1.355 1_655 S
C647 C649 1.414 1_556 S
C648 C646 1.415 . S
C648 C653 1.425 1_456 S
C648 C655 1.409 . S
C649 H641 0.931 . S
C649 C647 1.414 1_554 S
C649 C650 1.366 . S
C650 H642 0.930 . S
C650 C649 1.366 . S
C650 C653 1.409 . S
C651 H643 0.930 . S
C651 C652 1.355 1_655 S
C651 C653 1.415 . S
C652 C651 1.355 1_455 S
C652 C654 1.414 1_554 S
C653 C648 1.425 1_654 S
C653 C650 1.409 . S
C653 C651 1.415 . S
C654 H644 0.931 . S
C654 C652 1.414 1_556 S
C654 C655 1.366 . S
C655 H645 0.930 . S
C655 C648 1.409 . S
C655 C654 1.366 . S
H656 C662 0.930 . S
H657 C665 0.930 . S
H658 C666 0.930 . S
H659 C667 0.930 . S
H660 C670 0.930 . S
H661 C671 0.930 . S
C662 H656 0.930 . S
C662 C663 1.356 . S
C662 C664 1.415 . S
C663 C662 1.356 . S
C663 C665 1.417 1_565 S
C664 C662 1.415 . S
C664 C669 1.425 1_565 S
C664 C671 1.409 . S
C665 H657 0.930 . S
C665 C663 1.417 1_545 S
C665 C666 1.362 . S
C666 H658 0.930 . S
C666 C665 1.362 . S
C666 C669 1.409 . S
C667 H659 0.930 . S
C667 C668 1.358 . S
C667 C669 1.415 . S
C668 C667 1.358 . S
C668 C670 1.416 1_545 S
C669 C664 1.425 1_545 S
C669 C666 1.409 . S
C669 C667 1.415 . S
C670 H660 0.930 . S
C670 C668 1.416 1_565 S
C670 C671 1.362 . S
C671 H661 0.930 . S
C671 C664 1.409 . S
C671 C670 1.362 . S
H672 C678 0.930 . S
H673 C681 0.930 . S
H674 C682 0.930 . S
H675 C683 0.930 . S
H676 C686 0.930 . S
H677 C687 0.930 . S
C678 H672 0.930 . S
C678 C679 1.355 . S
C678 C680 1.415 . S
C679 C678 1.355 . S
C679 C681 1.419 . S
C680 C678 1.415 . S
C680 C685 1.425 1_556 S
C680 C687 1.409 1_556 S
C681 H673 0.930 . S
C681 C679 1.419 . S
C681 C682 1.362 . S
C682 H674 0.930 . S
C682 C681 1.362 . S
C682 C685 1.409 1_556 S
C683 H675 0.930 . S
C683 C684 1.355 . S
C683 C685 1.415 . S
C684 C683 1.355 . S
C684 C686 1.419 . S
C685 C680 1.425 1_554 S
C685 C682 1.409 1_554 S
C685 C683 1.415 . S
C686 H676 0.930 . S
C686 C684 1.419 . S
C686 C687 1.362 . S
C687 H677 0.930 . S
C687 C680 1.409 1_554 S
C687 C686 1.362 . S
H688 C694 0.930 . S
H689 C697 0.930 . S
H690 C698 0.930 . S
H691 C699 0.930 . S
H692 C702 0.930 . S
H693 C703 0.930 . S
C694 H688 0.930 . S
C694 C695 1.355 . S
C694 C696 1.415 . S
C695 C694 1.355 . S
C695 C697 1.419 . S
C696 C694 1.415 . S
C696 C701 1.425 . S
C696 C703 1.409 . S
C697 H689 0.930 . S
C697 C695 1.419 . S
C697 C698 1.362 . S
C698 H690 0.930 . S
C698 C697 1.362 . S
C698 C701 1.409 . S
C699 H691 0.930 . S
C699 C700 1.355 . S
C699 C701 1.415 . S
C700 C699 1.355 . S
C700 C702 1.419 . S
C701 C696 1.425 . S
C701 C698 1.409 . S
C701 C699 1.415 . S
C702 H692 0.930 . S
C702 C700 1.419 . S
C702 C703 1.362 . S
C703 H693 0.930 . S
C703 C696 1.409 . S
C703 C702 1.362 . S
H704 C710 0.930 1_554 S
H705 C713 0.930 . S
H706 C714 0.930 . S
H707 C715 0.930 . S
H708 C718 0.930 . S
H709 C719 0.930 . S
C710 H704 0.930 1_556 S
C710 C711 1.355 . S
C710 C712 1.415 . S
C711 C710 1.355 . S
C711 C713 1.419 . S
C712 C710 1.415 . S
C712 C717 1.425 . S
C712 C719 1.409 . S
C713 H705 0.930 . S
C713 C711 1.419 . S
C713 C714 1.362 . S
C714 H706 0.930 . S
C714 C713 1.362 . S
C714 C717 1.409 . S
C715 H707 0.930 . S
C715 C716 1.355 . S
C715 C717 1.415 . S
C716 C715 1.355 . S
C716 C718 1.419 . S
C717 C712 1.425 . S
C717 C714 1.409 . S
C717 C715 1.415 . S
C718 H708 0.930 . S
C718 C716 1.419 . S
C718 C719 1.362 . S
C719 H709 0.930 . S
C719 C712 1.409 . S
C719 C718 1.362 . S
H720 C726 0.930 . S
H721 C729 0.930 . S
H722 C730 0.930 . S
H723 C731 0.930 . S
H724 C734 0.930 . S
H725 C735 0.930 . S
C726 H720 0.930 . S
C726 C727 1.355 . S
C726 C728 1.415 . S
C727 C726 1.355 . S
C727 C729 1.419 . S
C728 C726 1.415 . S
C728 C733 1.425 . S
C728 C735 1.409 . S
C729 H721 0.930 . S
C729 C727 1.419 . S
C729 C730 1.362 . S
C730 H722 0.930 . S
C730 C729 1.362 . S
C730 C733 1.409 . S
C731 H723 0.930 . S
C731 C732 1.355 . S
C731 C733 1.415 . S
C732 C731 1.355 . S
C732 C734 1.419 . S
C733 C728 1.425 . S
C733 C730 1.409 . S
C733 C731 1.415 . S
C734 H724 0.930 . S
C734 C732 1.419 . S
C734 C735 1.362 . S
C735 H725 0.930 . S
C735 C728 1.409 . S
C735 C734 1.362 . S
H736 C742 0.930 . S
H737 C745 0.930 . S
H738 C746 0.930 . S
H739 C747 0.930 . S
H740 C750 0.930 . S
H741 C751 0.930 . S
C742 H736 0.930 . S
C742 C743 1.355 . S
C742 C744 1.415 . S
C743 C742 1.355 . S
C743 C745 1.419 . S
C744 C742 1.415 . S
C744 C749 1.425 . S
C744 C751 1.409 . S
C745 H737 0.930 . S
C745 C743 1.419 . S
C745 C746 1.362 . S
C746 H738 0.930 . S
C746 C745 1.362 . S
C746 C749 1.409 . S
C747 H739 0.930 . S
C747 C748 1.355 . S
C747 C749 1.415 . S
C748 C747 1.355 . S
C748 C750 1.419 . S
C749 C744 1.425 . S
C749 C746 1.409 . S
C749 C747 1.415 . S
C750 H740 0.930 . S
C750 C748 1.419 . S
C750 C751 1.362 . S
C751 H741 0.930 . S
C751 C744 1.409 . S
C751 C750 1.362 . S
H752 C758 0.930 . S
H753 C761 0.930 . S
H754 C762 0.930 . S
H755 C763 0.930 . S
H756 C766 0.930 . S
H757 C767 0.930 . S
C758 H752 0.930 . S
C758 C759 1.355 . S
C758 C760 1.415 . S
C759 C758 1.355 . S
C759 C761 1.419 . S
C760 C758 1.415 . S
C760 C765 1.425 . S
C760 C767 1.409 . S
C761 H753 0.930 . S
C761 C759 1.419 . S
C761 C762 1.362 . S
C762 H754 0.930 . S
C762 C761 1.362 . S
C762 C765 1.409 . S
C763 H755 0.930 . S
C763 C764 1.355 . S
C763 C765 1.415 . S
C764 C763 1.355 . S
C764 C766 1.419 . S
C765 C760 1.425 . S
C765 C762 1.409 . S
C765 C763 1.415 . S
C766 H756 0.930 . S
C766 C764 1.419 . S
C766 C767 1.362 . S
C767 H757 0.930 . S
C767 C760 1.409 . S
C767 C766 1.362 . S
H768 C774 0.930 . S
H769 C777 0.930 . S
H770 C778 0.930 . S
H771 C779 0.930 1_556 S
H772 C782 0.930 . S
H773 C783 0.930 . S
C774 H768 0.930 . S
C774 C775 1.355 . S
C774 C776 1.415 . S
C775 C774 1.355 . S
C775 C777 1.419 . S
C776 C774 1.415 . S
C776 C781 1.425 . S
C776 C783 1.409 . S
C777 H769 0.930 . S
C777 C775 1.419 . S
C777 C778 1.362 . S
C778 H770 0.930 . S
C778 C777 1.362 . S
C778 C781 1.409 . S
C779 H771 0.930 1_554 S
C779 C780 1.355 . S
C779 C781 1.415 . S
C780 C779 1.355 . S
C780 C782 1.419 . S
C781 C776 1.425 . S
C781 C778 1.409 . S
C781 C779 1.415 . S
C782 H772 0.930 . S
C782 C780 1.419 . S
C782 C783 1.362 . S
C783 H773 0.930 . S
C783 C776 1.409 . S
C783 C782 1.362 . S
H784 C790 0.930 . S
H785 C793 0.930 . S
H786 C794 0.930 . S
H787 C795 0.930 . S
H788 C798 0.930 . S
H789 C799 0.930 . S
C790 H784 0.930 . S
C790 C791 1.355 . S
C790 C792 1.415 . S
C791 C790 1.355 . S
C791 C793 1.419 . S
C792 C790 1.415 . S
C792 C797 1.425 . S
C792 C799 1.409 . S
C793 H785 0.930 . S
C793 C791 1.419 . S
C793 C794 1.362 . S
C794 H786 0.930 . S
C794 C793 1.362 . S
C794 C797 1.409 . S
C795 H787 0.930 . S
C795 C796 1.355 . S
C795 C797 1.415 . S
C796 C795 1.355 . S
C796 C798 1.419 . S
C797 C792 1.425 . S
C797 C794 1.409 . S
C797 C795 1.415 . S
C798 H788 0.930 . S
C798 C796 1.419 . S
C798 C799 1.362 . S
C799 H789 0.930 . S
C799 C792 1.409 . S
C799 C798 1.362 . S
H800 C806 0.930 . S
H801 C809 0.930 . S
H802 C810 0.930 . S
H803 C811 0.930 . S
H804 C814 0.930 1_556 S
H805 C815 0.930 . S
C806 H800 0.930 . S
C806 C807 1.355 . S
C806 C808 1.415 . S
C807 C806 1.355 . S
C807 C809 1.419 . S
C808 C806 1.415 . S
C808 C813 1.425 . S
C808 C815 1.409 . S
C809 H801 0.930 . S
C809 C807 1.419 . S
C809 C810 1.362 . S
C810 H802 0.930 . S
C810 C809 1.362 . S
C810 C813 1.409 . S
C811 H803 0.930 . S
C811 C812 1.355 . S
C811 C813 1.415 . S
C812 C811 1.355 . S
C812 C814 1.419 . S
C813 C808 1.425 . S
C813 C810 1.409 . S
C813 C811 1.415 . S
C814 H804 0.930 1_554 S
C814 C812 1.419 . S
C814 C815 1.362 . S
C815 H805 0.930 . S
C815 C808 1.409 . S
C815 C814 1.362 . S
H816 C822 0.930 . S
H817 C825 0.930 . S
H818 C826 0.930 . S
H819 C827 0.930 . S
H820 C830 0.930 . S
H821 C831 0.930 . S
C822 H816 0.930 . S
C822 C823 1.355 . S
C822 C824 1.415 . S
C823 C822 1.355 . S
C823 C825 1.419 . S
C824 C822 1.415 . S
C824 C829 1.425 . S
C824 C831 1.409 . S
C825 H817 0.930 . S
C825 C823 1.419 . S
C825 C826 1.362 . S
C826 H818 0.930 . S
C826 C825 1.362 . S
C826 C829 1.409 . S
C827 H819 0.930 . S
C827 C828 1.355 . S
C827 C829 1.415 . S
C828 C827 1.355 . S
C828 C830 1.419 . S
C829 C824 1.425 . S
C829 C826 1.409 . S
C829 C827 1.415 . S
C830 H820 0.930 . S
C830 C828 1.419 . S
C830 C831 1.362 . S
C831 H821 0.930 . S
C831 C824 1.409 . S
C831 C830 1.362 . S
H832 C838 0.930 . S
H833 C841 0.930 . S
H834 C842 0.930 . S
H835 C843 0.930 . S
H836 C846 0.930 . S
H837 C847 0.930 . S
C838 H832 0.930 . S
C838 C839 1.355 . S
C838 C840 1.415 . S
C839 C838 1.355 . S
C839 C841 1.419 . S
C840 C838 1.415 . S
C840 C845 1.425 . S
C840 C847 1.409 . S
C841 H833 0.930 . S
C841 C839 1.419 . S
C841 C842 1.362 . S
C842 H834 0.930 . S
C842 C841 1.362 . S
C842 C845 1.409 . S
C843 H835 0.930 . S
C843 C844 1.355 . S
C843 C845 1.415 . S
C844 C843 1.355 . S
C844 C846 1.419 . S
C845 C840 1.425 . S
C845 C842 1.409 . S
C845 C843 1.415 . S
C846 H836 0.930 . S
C846 C844 1.419 . S
C846 C847 1.362 . S
C847 H837 0.930 . S
C847 C840 1.409 . S
C847 C846 1.362 . S
H848 C854 0.930 . S
H849 C857 0.930 . S
H850 C858 0.930 . S
H851 C859 0.930 . S
H852 C862 0.930 . S
H853 C863 0.930 . S
C854 H848 0.930 . S
C854 C855 1.355 . S
C854 C856 1.415 . S
C855 C854 1.355 . S
C855 C857 1.419 . S
C856 C854 1.415 . S
C856 C861 1.425 . S
C856 C863 1.409 . S
C857 H849 0.930 . S
C857 C855 1.419 . S
C857 C858 1.362 . S
C858 H850 0.930 . S
C858 C857 1.362 . S
C858 C861 1.409 . S
C859 H851 0.930 . S
C859 C860 1.355 . S
C859 C861 1.415 . S
C860 C859 1.355 . S
C860 C862 1.419 . S
C861 C856 1.425 . S
C861 C858 1.409 . S
C861 C859 1.415 . S
C862 H852 0.930 . S
C862 C860 1.419 . S
C862 C863 1.362 . S
C863 H853 0.930 . S
C863 C856 1.409 . S
C863 C862 1.362 . S
H864 C870 0.930 . S
H865 C873 0.930 . S
H866 C874 0.930 . S
H867 C875 0.930 1_556 S
H868 C878 0.930 . S
H869 C879 0.930 . S
C870 H864 0.930 . S
C870 C871 1.355 . S
C870 C872 1.415 . S
C871 C870 1.355 . S
C871 C873 1.419 . S
C872 C870 1.415 . S
C872 C877 1.425 . S
C872 C879 1.409 . S
C873 H865 0.930 . S
C873 C871 1.419 . S
C873 C874 1.362 . S
C874 H866 0.930 . S
C874 C873 1.362 . S
C874 C877 1.409 . S
C875 H867 0.930 1_554 S
C875 C876 1.355 . S
C875 C877 1.415 . S
C876 C875 1.355 . S
C876 C878 1.419 . S
C877 C872 1.425 . S
C877 C874 1.409 . S
C877 C875 1.415 . S
C878 H868 0.930 . S
C878 C876 1.419 . S
C878 C879 1.362 . S
C879 H869 0.930 . S
C879 C872 1.409 . S
C879 C878 1.362 . S
H880 C886 0.930 . S
H881 C889 0.930 . S
H882 C890 0.930 . S
H883 C891 0.930 . S
H884 C894 0.930 . S
H885 C895 0.930 . S
C886 H880 0.930 . S
C886 C887 1.355 . S
C886 C888 1.415 . S
C887 C886 1.355 . S
C887 C889 1.419 . S
C888 C886 1.415 . S
C888 C893 1.425 . S
C888 C895 1.409 . S
C889 H881 0.930 . S
C889 C887 1.419 . S
C889 C890 1.362 . S
C890 H882 0.930 . S
C890 C889 1.362 . S
C890 C893 1.409 . S
C891 H883 0.930 . S
C891 C892 1.355 . S
C891 C893 1.415 . S
C892 C891 1.355 . S
C892 C894 1.419 . S
C893 C888 1.425 . S
C893 C890 1.409 . S
C893 C891 1.415 . S
C894 H884 0.930 . S
C894 C892 1.419 . S
C894 C895 1.362 . S
C895 H885 0.930 . S
C895 C888 1.409 . S
C895 C894 1.362 . S
H896 C902 0.930 . S
H897 C905 0.930 . S
H898 C906 0.930 . S
H899 C907 0.930 . S
H900 C910 0.930 1_554 S
H901 C911 0.930 . S
C902 H896 0.930 . S
C902 C903 1.355 . S
C902 C904 1.415 . S
C903 C902 1.355 . S
C903 C905 1.419 . S
C904 C902 1.415 . S
C904 C909 1.425 . S
C904 C911 1.409 . S
C905 H897 0.930 . S
C905 C903 1.419 . S
C905 C906 1.362 . S
C906 H898 0.930 . S
C906 C905 1.362 . S
C906 C909 1.409 . S
C907 H899 0.930 . S
C907 C908 1.355 . S
C907 C909 1.415 . S
C908 C907 1.355 . S
C908 C910 1.419 . S
C909 C904 1.425 . S
C909 C906 1.409 . S
C909 C907 1.415 . S
C910 H900 0.930 1_556 S
C910 C908 1.419 . S
C910 C911 1.362 . S
C911 H901 0.930 . S
C911 C904 1.409 . S
C911 C910 1.362 . S
H912 C918 0.930 . S
H913 C921 0.930 . S
H914 C922 0.930 . S
H915 C923 0.930 . S
H916 C926 0.930 . S
H917 C927 0.930 . S
C918 H912 0.930 . S
C918 C919 1.355 . S
C918 C920 1.415 . S
C919 C918 1.355 . S
C919 C921 1.419 . S
C920 C918 1.415 . S
C920 C925 1.425 . S
C920 C927 1.409 . S
C921 H913 0.930 . S
C921 C919 1.419 . S
C921 C922 1.362 . S
C922 H914 0.930 . S
C922 C921 1.362 . S
C922 C925 1.409 . S
C923 H915 0.930 . S
C923 C924 1.355 . S
C923 C925 1.415 . S
C924 C923 1.355 . S
C924 C926 1.419 . S
C925 C920 1.425 . S
C925 C922 1.409 . S
C925 C923 1.415 . S
C926 H916 0.930 . S
C926 C924 1.419 . S
C926 C927 1.362 . S
C927 H917 0.930 . S
C927 C920 1.409 . S
C927 C926 1.362 . S
H928 C934 0.930 1_554 S
H929 C937 0.930 . S
H930 C938 0.930 . S
H931 C939 0.930 . S
H932 C942 0.930 . S
H933 C943 0.930 . S
C934 H928 0.930 1_556 S
C934 C935 1.355 . S
C934 C936 1.415 . S
C935 C934 1.355 . S
C935 C937 1.419 . S
C936 C934 1.415 . S
C936 C941 1.425 . S
C936 C943 1.409 . S
C937 H929 0.930 . S
C937 C935 1.419 . S
C937 C938 1.362 . S
C938 H930 0.930 . S
C938 C937 1.362 . S
C938 C941 1.409 . S
C939 H931 0.930 . S
C939 C940 1.355 . S
C939 C941 1.415 . S
C940 C939 1.355 . S
C940 C942 1.419 . S
C941 C936 1.425 . S
C941 C938 1.409 . S
C941 C939 1.415 . S
C942 H932 0.930 . S
C942 C940 1.419 . S
C942 C943 1.362 . S
C943 H933 0.930 . S
C943 C936 1.409 . S
C943 C942 1.362 . S
H944 C950 0.930 . S
H945 C953 0.930 . S
H946 C954 0.930 . S
H947 C955 0.930 . S
H948 C958 0.930 . S
H949 C959 0.930 . S
C950 H944 0.930 . S
C950 C951 1.355 . S
C950 C952 1.415 . S
C951 C950 1.355 . S
C951 C953 1.419 . S
C952 C950 1.415 . S
C952 C957 1.425 . S
C952 C959 1.409 . S
C953 H945 0.930 . S
C953 C951 1.419 . S
C953 C954 1.362 . S
C954 H946 0.930 . S
C954 C953 1.362 . S
C954 C957 1.409 . S
C955 H947 0.930 . S
C955 C956 1.355 . S
C955 C957 1.415 . S
C956 C955 1.355 . S
C956 C958 1.419 . S
C957 C952 1.425 . S
C957 C954 1.409 . S
C957 C955 1.415 . S
C958 H948 0.930 . S
C958 C956 1.419 . S
C958 C959 1.362 . S
C959 H949 0.930 . S
C959 C952 1.409 . S
C959 C958 1.362 . S
H960 C966 0.930 . S
H961 C969 0.930 . S
H962 C970 0.930 . S
H963 C971 0.930 . S
H964 C974 0.930 . S
H965 C975 0.930 . S
C966 H960 0.930 . S
C966 C967 1.355 . S
C966 C968 1.415 . S
C967 C966 1.355 . S
C967 C969 1.419 . S
C968 C966 1.415 . S
C968 C973 1.425 . S
C968 C975 1.409 . S
C969 H961 0.930 . S
C969 C967 1.419 . S
C969 C970 1.362 . S
C970 H962 0.930 . S
C970 C969 1.362 . S
C970 C973 1.409 . S
C971 H963 0.930 . S
C971 C972 1.355 . S
C971 C973 1.415 . S
C972 C971 1.355 . S
C972 C974 1.419 . S
C973 C968 1.425 . S
C973 C970 1.409 . S
C973 C971 1.415 . S
C974 H964 0.930 . S
C974 C972 1.419 . S
C974 C975 1.362 . S
C975 H965 0.930 . S
C975 C968 1.409 . S
C975 C974 1.362 . S
H976 C982 0.930 . S
H977 C985 0.930 . S
H978 C986 0.930 . S
H979 C987 0.930 . S
H980 C990 0.930 . S
H981 C991 0.930 . S
C982 H976 0.930 . S
C982 C983 1.355 . S
C982 C984 1.415 . S
C983 C982 1.355 . S
C983 C985 1.419 . S
C984 C982 1.415 . S
C984 C989 1.425 . S
C984 C991 1.409 . S
C985 H977 0.930 . S
C985 C983 1.419 . S
C985 C986 1.362 . S
C986 H978 0.930 . S
C986 C985 1.362 . S
C986 C989 1.409 . S
C987 H979 0.930 . S
C987 C988 1.355 . S
C987 C989 1.415 . S
C988 C987 1.355 . S
C988 C990 1.419 . S
C989 C984 1.425 . S
C989 C986 1.409 . S
C989 C987 1.415 . S
C990 H980 0.930 . S
C990 C988 1.419 . S
C990 C991 1.362 . S
C991 H981 0.930 . S
C991 C984 1.409 . S
C991 C990 1.362 . S
H992 C998 0.930 . S
H993 C1001 0.930 . S
H994 C1002 0.930 . S
H995 C1003 0.930 . S
H996 C1006 0.930 . S
H997 C1007 0.930 . S
C998 H992 0.930 . S
C998 C999 1.355 . S
C998 C1000 1.415 . S
C999 C998 1.355 . S
C999 C1001 1.419 . S
C1000 C998 1.415 . S
C1000 C1005 1.425 . S
C1000 C1007 1.409 . S
C1001 H993 0.930 . S
C1001 C999 1.419 . S
C1001 C1002 1.362 . S
C1002 H994 0.930 . S
C1002 C1001 1.362 . S
C1002 C1005 1.409 . S
C1003 H995 0.930 . S
C1003 C1004 1.355 . S
C1003 C1005 1.415 . S
C1004 C1003 1.355 . S
C1004 C1006 1.419 . S
C1005 C1000 1.425 . S
C1005 C1002 1.409 . S
C1005 C1003 1.415 . S
C1006 H996 0.930 . S
C1006 C1004 1.419 . S
C1006 C1007 1.362 . S
C1007 H997 0.930 . S
C1007 C1000 1.409 . S
C1007 C1006 1.362 . S
H1008 C1014 0.930 . S
H1009 C1017 0.930 . S
H1010 C1018 0.930 . S
H1011 C1019 0.930 . S
H1012 C1022 0.930 . S
H1013 C1023 0.930 . S
C1014 H1008 0.930 . S
C1014 C1015 1.355 . S
C1014 C1016 1.415 . S
C1015 C1014 1.355 . S
C1015 C1017 1.419 . S
C1016 C1014 1.415 . S
C1016 C1021 1.425 . S
C1016 C1023 1.409 . S
C1017 H1009 0.930 . S
C1017 C1015 1.419 . S
C1017 C1018 1.362 . S
C1018 H1010 0.930 . S
C1018 C1017 1.362 . S
C1018 C1021 1.409 . S
C1019 H1011 0.930 . S
C1019 C1020 1.355 . S
C1019 C1021 1.415 . S
C1020 C1019 1.355 . S
C1020 C1022 1.419 . S
C1021 C1016 1.425 . S
C1021 C1018 1.409 . S
C1021 C1019 1.415 . S
C1022 H1012 0.930 . S
C1022 C1020 1.419 . S
C1022 C1023 1.362 . S
C1023 H1013 0.930 . S
C1023 C1016 1.409 . S
C1023 C1022 1.362 . S
H1024 C1030 0.930 . S
H1025 C1033 0.930 . S
H1026 C1034 0.930 . S
H1027 C1035 0.930 . S
H1028 C1038 0.930 . S
H1029 C1039 0.930 . S
C1030 H1024 0.930 . S
C1030 C1031 1.355 . S
C1030 C1032 1.415 . S
C1031 C1030 1.355 . S
C1031 C1033 1.419 . S
C1032 C1030 1.415 . S
C1032 C1037 1.425 . S
C1032 C1039 1.409 . S
C1033 H1025 0.930 . S
C1033 C1031 1.419 . S
C1033 C1034 1.362 . S
C1034 H1026 0.930 . S
C1034 C1033 1.362 . S
C1034 C1037 1.409 . S
C1035 H1027 0.930 . S
C1035 C1036 1.355 . S
C1035 C1037 1.415 . S
C1036 C1035 1.355 . S
C1036 C1038 1.419 . S
C1037 C1032 1.425 . S
C1037 C1034 1.409 . S
C1037 C1035 1.415 . S
C1038 H1028 0.930 . S
C1038 C1036 1.419 . S
C1038 C1039 1.362 . S
C1039 H1029 0.930 . S
C1039 C1032 1.409 . S
C1039 C1038 1.362 . S
H1040 C1046 0.930 . S
H1041 C1049 0.930 . S
H1042 C1050 0.930 . S
H1043 C1051 0.930 . S
H1044 C1054 0.930 . S
H1045 C1055 0.930 . S
C1046 H1040 0.930 . S
C1046 C1047 1.355 . S
C1046 C1048 1.415 . S
C1047 C1046 1.355 . S
C1047 C1049 1.419 . S
C1048 C1046 1.415 . S
C1048 C1053 1.425 . S
C1048 C1055 1.409 . S
C1049 H1041 0.930 . S
C1049 C1047 1.419 . S
C1049 C1050 1.362 . S
C1050 H1042 0.930 . S
C1050 C1049 1.362 . S
C1050 C1053 1.409 . S
C1051 H1043 0.930 . S
C1051 C1052 1.355 . S
C1051 C1053 1.415 . S
C1052 C1051 1.355 . S
C1052 C1054 1.419 . S
C1053 C1048 1.425 . S
C1053 C1050 1.409 . S
C1053 C1051 1.415 . S
C1054 H1044 0.930 . S
C1054 C1052 1.419 . S
C1054 C1055 1.362 . S
C1055 H1045 0.930 . S
C1055 C1048 1.409 . S
C1055 C1054 1.362 . S
H1056 C1062 0.930 . S
H1057 C1065 0.930 . S
H1058 C1066 0.930 . S
H1059 C1067 0.930 . S
H1060 C1070 0.930 . S
H1061 C1071 0.930 . S
C1062 H1056 0.930 . S
C1062 C1063 1.355 . S
C1062 C1064 1.415 . S
C1063 C1062 1.355 . S
C1063 C1065 1.419 . S
C1064 C1062 1.415 . S
C1064 C1069 1.425 . S
C1064 C1071 1.409 . S
C1065 H1057 0.930 . S
C1065 C1063 1.419 . S
C1065 C1066 1.362 . S
C1066 H1058 0.930 . S
C1066 C1065 1.362 . S
C1066 C1069 1.409 . S
C1067 H1059 0.930 . S
C1067 C1068 1.355 . S
C1067 C1069 1.415 . S
C1068 C1067 1.355 . S
C1068 C1070 1.419 . S
C1069 C1064 1.425 . S
C1069 C1066 1.409 . S
C1069 C1067 1.415 . S
C1070 H1060 0.930 . S
C1070 C1068 1.419 . S
C1070 C1071 1.362 . S
C1071 H1061 0.930 . S
C1071 C1064 1.409 . S
C1071 C1070 1.362 . S
H1072 C1078 0.930 . S
H1073 C1081 0.930 . S
H1074 C1082 0.930 . S
H1075 C1083 0.930 . S
H1076 C1086 0.930 . S
H1077 C1087 0.930 . S
C1078 H1072 0.930 . S
C1078 C1079 1.355 . S
C1078 C1080 1.415 . S
C1079 C1078 1.355 . S
C1079 C1081 1.419 . S
C1080 C1078 1.415 . S
C1080 C1085 1.425 . S
C1080 C1087 1.409 . S
C1081 H1073 0.930 . S
C1081 C1079 1.419 . S
C1081 C1082 1.362 . S
C1082 H1074 0.930 . S
C1082 C1081 1.362 . S
C1082 C1085 1.409 . S
C1083 H1075 0.930 . S
C1083 C1084 1.355 . S
C1083 C1085 1.415 . S
C1084 C1083 1.355 . S
C1084 C1086 1.419 . S
C1085 C1080 1.425 . S
C1085 C1082 1.409 . S
C1085 C1083 1.415 . S
C1086 H1076 0.930 . S
C1086 C1084 1.419 . S
C1086 C1087 1.362 . S
C1087 H1077 0.930 . S
C1087 C1080 1.409 . S
C1087 C1086 1.362 . S
C583 C4 1.168 . S
C588 C148 1.168 1_655 S
C599 C184 1.168 1_565 S
C604 C40 1.168 . S
C615 C76 1.170 . S
C620 C220 1.168 . S
C631 C112 1.232 . S
C636 C256 1.231 . S
C647 C292 1.174 . S
C652 C436 1.175 1_455 S
C663 C472 1.169 . S
C668 C328 1.169 1_545 S
C679 C364 1.211 . S
C684 C508 1.218 . S
C695 C400 1.169 . S
C700 C544 1.168 . S
C711 C14 1.370 1_556 S
C716 C543 1.421 . S
C727 C435 1.428 . S
C732 C50 1.369 . S
C743 C86 1.373 1_556 S
C748 C471 1.428 . S
C759 C507 1.416 . S
C764 C122 1.403 . S
C775 C327 1.428 . S
C780 C158 1.366 1_554 S
C791 C363 1.428 . S
C796 C194 1.372 . S
C807 C399 1.416 . S
C812 C230 1.402 1_554 S
C823 C291 1.406 . S
C828 C266 1.417 . S
C839 C302 1.386 1_554 S
C844 C255 1.424 . S
C855 C147 1.398 . S
C860 C338 1.420 . S
C871 C183 1.423 . S
C876 C374 1.368 1_554 S
C887 C410 1.417 . S
C892 C219 1.398 . S
C903 C39 1.398 . S
C908 C446 1.415 1_556 S
C919 C482 1.366 . S
C924 C75 1.426 . S
C935 C518 1.372 1_556 S
C940 C111 1.419 . S
C951 C554 1.384 . S
C956 C3 1.412 . S
C967 C254 1.143 . S
C972 C2 1.115 . S
C983 C38 1.134 . S
C988 C146 1.119 . S
C999 C74 1.147 . S
C1004 C182 1.186 . S
C1015 C110 1.149 . S
C1020 C218 1.114 . S
C1031 C542 1.178 . S
C1036 C290 1.175 . S
C1047 C434 1.166 . S
C1052 C326 1.183 . S
C1063 C470 1.143 . S
C1068 C362 1.115 . S
C1079 C506 1.116 . S
C1084 C398 1.160 . S
