# Generated by pormake.
# Topology yfw, (5)-cn, num edge types: 1
# Building blocks:
#     Node 0, Type 0, BuildingBlock: XOMCOT_clean_sbu_0, # of connection points: 5
#     Node 1, Type 0, BuildingBlock: XOMCOT_clean_sbu_0, # of connection points: 5
#     Node 2, Type 0, BuildingBlock: XOMCOT_clean_sbu_0, # of connection points: 5
#     Node 3, Type 0, BuildingBlock: XOMCOT_clean_sbu_0, # of connection points: 5
#     Node 4, Type 0, BuildingBlock: XOMCOT_clean_sbu_0, # of connection points: 5
#     Node 5, Type 0, BuildingBlock: XOMCOT_clean_sbu_0, # of connection points: 5
#     Node 6, Type 0, BuildingBlock: XOMCOT_clean_sbu_0, # of connection points: 5
#     Node 7, Type 0, BuildingBlock: XOMCOT_clean_sbu_0, # of connection points: 5
#     Node 8, Type 0, BuildingBlock: XOMCOT_clean_sbu_0, # of connection points: 5
#     Node 9, Type 0, BuildingBlock: XOMCOT_clean_sbu_0, # of connection points: 5
#     Node 10, Type 0, BuildingBlock: XOMCOT_clean_sbu_0, # of connection points: 5
#     Node 11, Type 0, BuildingBlock: XOMCOT_clean_sbu_0, # of connection points: 5
#     Node 12, Type 0, BuildingBlock: XOMCOT_clean_sbu_0, # of connection points: 5
#     Node 13, Type 0, BuildingBlock: XOMCOT_clean_sbu_0, # of connection points: 5
#     Node 14, Type 0, BuildingBlock: XOMCOT_clean_sbu_0, # of connection points: 5
#     Node 15, Type 0, BuildingBlock: XOMCOT_clean_sbu_0, # of connection points: 5
#     Edge 16, Type (0, 0), BuildingBlock: EZIPEK_clean_linker_0, # of connection points: 2
#     Edge 17, Type (0, 0), BuildingBlock: EZIPEK_clean_linker_0, # of connection points: 2
#     Edge 18, Type (0, 0), BuildingBlock: EZIPEK_clean_linker_0, # of connection points: 2
#     Edge 19, Type (0, 0), BuildingBlock: EZIPEK_clean_linker_0, # of connection points: 2
#     Edge 20, Type (0, 0), BuildingBlock: EZIPEK_clean_linker_0, # of connection points: 2
#     Edge 21, Type (0, 0), BuildingBlock: EZIPEK_clean_linker_0, # of connection points: 2
#     Edge 22, Type (0, 0), BuildingBlock: EZIPEK_clean_linker_0, # of connection points: 2
#     Edge 23, Type (0, 0), BuildingBlock: EZIPEK_clean_linker_0, # of connection points: 2
#     Edge 24, Type (0, 0), BuildingBlock: EZIPEK_clean_linker_0, # of connection points: 2
#     Edge 25, Type (0, 0), BuildingBlock: EZIPEK_clean_linker_0, # of connection points: 2
#     Edge 26, Type (0, 0), BuildingBlock: EZIPEK_clean_linker_0, # of connection points: 2
#     Edge 27, Type (0, 0), BuildingBlock: EZIPEK_clean_linker_0, # of connection points: 2
#     Edge 28, Type (0, 0), BuildingBlock: EZIPEK_clean_linker_0, # of connection points: 2
#     Edge 29, Type (0, 0), BuildingBlock: EZIPEK_clean_linker_0, # of connection points: 2
#     Edge 30, Type (0, 0), BuildingBlock: EZIPEK_clean_linker_0, # of connection points: 2
#     Edge 31, Type (0, 0), BuildingBlock: EZIPEK_clean_linker_0, # of connection points: 2
#     Edge 32, Type (0, 0), BuildingBlock: EZIPEK_clean_linker_0, # of connection points: 2
#     Edge 33, Type (0, 0), BuildingBlock: EZIPEK_clean_linker_0, # of connection points: 2
#     Edge 34, Type (0, 0), BuildingBlock: EZIPEK_clean_linker_0, # of connection points: 2
#     Edge 35, Type (0, 0), BuildingBlock: EZIPEK_clean_linker_0, # of connection points: 2
#     Edge 36, Type (0, 0), BuildingBlock: EZIPEK_clean_linker_0, # of connection points: 2
#     Edge 37, Type (0, 0), BuildingBlock: EZIPEK_clean_linker_0, # of connection points: 2
#     Edge 38, Type (0, 0), BuildingBlock: EZIPEK_clean_linker_0, # of connection points: 2
#     Edge 39, Type (0, 0), BuildingBlock: EZIPEK_clean_linker_0, # of connection points: 2
#     Edge 40, Type (0, 0), BuildingBlock: EZIPEK_clean_linker_0, # of connection points: 2
#     Edge 41, Type (0, 0), BuildingBlock: EZIPEK_clean_linker_0, # of connection points: 2
#     Edge 42, Type (0, 0), BuildingBlock: EZIPEK_clean_linker_0, # of connection points: 2
#     Edge 43, Type (0, 0), BuildingBlock: EZIPEK_clean_linker_0, # of connection points: 2
#     Edge 44, Type (0, 0), BuildingBlock: EZIPEK_clean_linker_0, # of connection points: 2
#     Edge 45, Type (0, 0), BuildingBlock: EZIPEK_clean_linker_0, # of connection points: 2
#     Edge 46, Type (0, 0), BuildingBlock: EZIPEK_clean_linker_0, # of connection points: 2
#     Edge 47, Type (0, 0), BuildingBlock: EZIPEK_clean_linker_0, # of connection points: 2
#     Edge 48, Type (0, 0), BuildingBlock: EZIPEK_clean_linker_0, # of connection points: 2
#     Edge 49, Type (0, 0), BuildingBlock: EZIPEK_clean_linker_0, # of connection points: 2
#     Edge 50, Type (0, 0), BuildingBlock: EZIPEK_clean_linker_0, # of connection points: 2
#     Edge 51, Type (0, 0), BuildingBlock: EZIPEK_clean_linker_0, # of connection points: 2
#     Edge 52, Type (0, 0), BuildingBlock: EZIPEK_clean_linker_0, # of connection points: 2
#     Edge 53, Type (0, 0), BuildingBlock: EZIPEK_clean_linker_0, # of connection points: 2
#     Edge 54, Type (0, 0), BuildingBlock: EZIPEK_clean_linker_0, # of connection points: 2
#     Edge 55, Type (0, 0), BuildingBlock: EZIPEK_clean_linker_0, # of connection points: 2
# Relax obj value: 0.099
# Max RMSD: 0.156
# Mean RMSD: 0.156
data_MOF--net-yfw--node1-XOMCOT_clean_sbu_0--edge1-EZIPEK_clean_linker_0
_symmetry_space_group_name_H-M    P1
_symmetry_Int_Tables_number       1
_symmetry_cell_setting            triclinic
loop_
_symmetry_equiv_pos_as_xyz
'x, y, z'
_cell_length_a     44.28651
_cell_length_b     44.2597
_cell_length_c     18.477834
_cell_angle_alpha  89.964451
_cell_angle_beta   90.020831
_cell_angle_gamma 90.068496
loop_
_atom_site_label
_atom_site_type_symbol
_atom_site_fract_x
_atom_site_fract_y
_atom_site_fract_z
_atom_type_partial_charge
Co0 Co 0.14913 0.07671 0.9748 0.0
C1 C 0.21231 0.0974 0.9462 0.0
C2 C 0.20833 0.04908 0.94578 0.0
C3 C 0.23718 0.05662 0.9252 0.0
N4 N 0.19256 0.0746 0.95891 0.0
N5 N 0.23963 0.08694 0.92531 0.0
H6 H 0.20681 0.12114 0.94942 0.0
H7 H 0.19935 0.0264 0.9491 0.0
C8 C 0.17433 0.05275 0.11614 0.0
O9 O 0.20185 0.06187 0.10122 0.0
N10 N 0.10584 0.07872 0.98898 0.0
C11 C 0.08676 0.10107 0.96935 0.0
C12 C 0.05756 0.091 0.97665 0.0
C13 C 0.08789 0.05547 0.00843 0.0
N14 N 0.05843 0.0622 -0.00017 0.0
C15 C 0.14755 0.1412 0.95392 0.0
C16 C 0.15091 0.15652 0.09865 0.0
C17 C 0.14244 0.17856 0.04855 0.0
C18 C 0.14203 0.17111 0.97497 0.0
C19 C 0.15604 0.12698 0.0754 0.0
N20 N 0.15234 0.11911 0.00447 0.0
H21 H 0.1456 0.13539 0.89737 0.0
H22 H 0.16202 0.11063 0.1155 0.0
H23 H 0.09309 0.1223 0.9453 0.0
H24 H 0.09623 0.03324 0.02243 0.0
O25 O 0.14313 0.08062 0.87039 0.0
O26 O 0.1446 0.03765 0.93087 0.0
O27 O 0.1521 0.06023 0.07612 0.0
C28 C 0.14155 0.05115 0.8692 0.0
H29 H 0.25496 0.04108 0.91009 0.0
H30 H 0.03739 0.10275 0.95922 0.0
H31 H 0.15219 0.1618 0.15582 0.0
H32 H 0.13601 0.18784 0.9347 0.0
Co33 Co 0.95341 0.65463 0.21846 0.0
C34 C 0.93476 0.71678 0.17857 0.0
C35 C 0.97244 0.71695 0.25178 0.0
C36 C 0.96535 0.74641 0.2349 0.0
N37 N 0.95321 0.69838 0.21663 0.0
N38 N 0.94187 0.74616 0.18858 0.0
H39 H 0.91704 0.70892 0.14291 0.0
H40 H 0.99084 0.70971 0.28607 0.0
C41 C 0.97977 0.63742 0.36465 0.0
O42 O 0.96533 0.61154 0.36601 0.0
N43 N 0.95333 0.6105 0.21968 0.0
C44 C 0.929 0.59198 0.21932 0.0
C45 C 0.93845 0.56242 0.22011 0.0
C46 C 0.97736 0.59164 0.21885 0.0
N47 N 0.96875 0.56234 0.21973 0.0
C48 C 0.88844 0.65468 0.21232 0.0
C49 C 0.87849 0.64742 0.35894 0.0
C50 C 0.85438 0.64353 0.3112 0.0
C51 C 0.85918 0.64845 0.23725 0.0
C52 C 0.90727 0.65349 0.33184 0.0
N53 N 0.91245 0.65517 0.259 0.0
H54 H 0.89202 0.65676 0.15479 0.0
H55 H 0.92515 0.65561 0.37027 0.0
H56 H 0.90579 0.59898 0.21771 0.0
H57 H 1.00059 0.59913 0.21657 0.0
O58 O 0.94461 0.65362 0.1147 0.0
O59 O 0.99027 0.65464 0.16377 0.0
O60 O 0.97453 0.65681 0.3152 0.0
C61 C 0.97383 0.6542 0.10588 0.0
H62 H 0.97709 0.76647 0.2532 0.0
H63 H 0.92426 0.54248 0.22018 0.0
H64 H 0.87536 0.64435 0.41664 0.0
H65 H 0.84085 0.64592 0.19892 0.0
Co66 Co 0.37759 0.45186 0.48987 0.0
C67 C 0.31694 0.43199 0.44175 0.0
C68 C 0.31471 0.47081 0.51141 0.0
C69 C 0.28584 0.46353 0.48979 0.0
N70 N 0.33412 0.45101 0.48141 0.0
N71 N 0.28741 0.43924 0.44612 0.0
H72 H 0.32583 0.41363 0.40951 0.0
H73 H 0.32114 0.48966 0.54531 0.0
C74 C 0.39132 0.46972 0.64434 0.0
O75 O 0.41662 0.45434 0.64472 0.0
N76 N 0.42177 0.45302 0.49817 0.0
C77 C 0.44187 0.43024 0.50814 0.0
C78 C 0.47069 0.44174 0.50882 0.0
C79 C 0.43912 0.47813 0.49518 0.0
N80 N 0.46877 0.47176 0.50077 0.0
C81 C 0.38776 0.38801 0.47459 0.0
C82 C 0.3657 0.37172 0.60889 0.0
C83 C 0.38259 0.35056 0.56944 0.0
C84 C 0.39237 0.35857 0.49979 0.0
C85 C 0.36311 0.40132 0.58311 0.0
N86 N 0.37638 0.40965 0.51955 0.0
H87 H 0.39644 0.39424 0.422 0.0
H88 H 0.35084 0.41761 0.61461 0.0
H89 H 0.43686 0.40686 0.5176 0.0
H90 H 0.43031 0.50079 0.49174 0.0
O91 O 0.38115 0.44738 0.38536 0.0
O92 O 0.3776 0.49082 0.44361 0.0
O93 O 0.37294 0.468 0.59137 0.0
C94 C 0.37904 0.47675 0.38214 0.0
H95 H 0.26532 0.47552 0.50343 0.0
H96 H 0.49146 0.42917 0.51559 0.0
H97 H 0.3564 0.36595 0.66133 0.0
H98 H 0.40473 0.34269 0.46653 0.0
Co99 Co 0.57578 0.87088 0.74577 0.0
C100 C 0.59805 0.81095 0.69781 0.0
C101 C 0.55884 0.80722 0.76586 0.0
C102 C 0.56713 0.77865 0.744 0.0
N103 N 0.57821 0.8274 0.73698 0.0
N104 N 0.5917 0.78112 0.70152 0.0
H105 H 0.61627 0.82056 0.66625 0.0
H106 H 0.53954 0.8129 0.79898 0.0
C107 C 0.55799 0.88277 0.90122 0.0
O108 O 0.57463 0.90721 0.90424 0.0
N109 N 0.57309 0.91521 0.75385 0.0
C110 C 0.594 0.93513 0.77873 0.0
C111 C 0.58239 0.96387 0.77699 0.0
C112 C 0.54894 0.93272 0.73739 0.0
N113 N 0.55415 0.9622 0.75122 0.0
C114 C 0.63871 0.88558 0.73735 0.0
C115 C 0.65443 0.86244 0.87119 0.0
C116 C 0.67486 0.88148 0.83514 0.0
C117 C 0.66725 0.8919 0.76577 0.0
C118 C 0.62564 0.85779 0.84202 0.0
N119 N 0.61747 0.87135 0.77867 0.0
H120 H 0.63257 0.89499 0.68541 0.0
H121 H 0.60968 0.844 0.87111 0.0
H122 H 0.61544 0.9296 0.80275 0.0
H123 H 0.52751 0.92422 0.71802 0.0
O124 O 0.58189 0.87477 0.6421 0.0
O125 O 0.53759 0.8699 0.69721 0.0
O126 O 0.55839 0.86556 0.84598 0.0
C127 C 0.55253 0.8731 0.63734 0.0
H128 H 0.55573 0.7577 0.75705 0.0
H129 H 0.59321 0.98424 0.79652 0.0
H130 H 0.66003 0.85284 0.92343 0.0
H131 H 0.68268 0.90602 0.73531 0.0
Co132 Co 0.86913 0.07516 0.47748 0.0
C133 C 0.80628 0.09579 0.44615 0.0
C134 C 0.80702 0.06014 0.52428 0.0
C135 C 0.77737 0.06771 0.51095 0.0
N136 N 0.82534 0.07863 0.48621 0.0
N137 N 0.77699 0.08985 0.46098 0.0
H138 H 0.81328 0.11085 0.40337 0.0
H139 H 0.81448 0.04097 0.55559 0.0
C140 C 0.86063 0.06186 0.63693 0.0
O141 O 0.84657 0.08766 0.6468 0.0
N142 N 0.91234 0.07152 0.46681 0.0
C143 C 0.93074 0.09238 0.43692 0.0
C144 C 0.95964 0.08106 0.43519 0.0
C145 C 0.9301 0.04767 0.48243 0.0
N146 N 0.95908 0.05309 0.46378 0.0
C147 C 0.86464 0.14068 0.48048 0.0
C148 C 0.90111 0.14842 0.60063 0.0
C149 C 0.88929 0.1739 0.56631 0.0
C150 C 0.87098 0.16996 0.50524 0.0
C151 C 0.89435 0.11972 0.57398 0.0
N152 N 0.87541 0.11587 0.5162 0.0
H153 H 0.85232 0.13817 0.43072 0.0
H154 H 0.90528 0.10058 0.59858 0.0
H155 H 0.92348 0.11407 0.4163 0.0
H156 H 0.92196 0.02659 0.50493 0.0
O157 O 0.86609 0.08336 0.37406 0.0
O158 O 0.86374 0.03812 0.42612 0.0
O159 O 0.87186 0.05529 0.5754 0.0
C160 C 0.86338 0.05407 0.36741 0.0
H161 H 0.75759 0.05645 0.53239 0.0
H162 H 0.9794 0.09203 0.41277 0.0
H163 H 0.91622 0.15075 0.64643 0.0
H164 H 0.86242 0.18933 0.47588 0.0
Co165 Co 0.95237 0.37282 0.72979 0.0
C166 C 0.93017 0.31268 0.68439 0.0
C167 C 0.96505 0.30893 0.7648 0.0
C168 C 0.95657 0.28025 0.74375 0.0
N169 N 0.94849 0.32923 0.72753 0.0
N170 N 0.93473 0.28278 0.69341 0.0
H171 H 0.91446 0.32221 0.6458 0.0
H172 H 0.9827 0.31448 0.803 0.0
C173 C 0.9763 0.38977 0.87777 0.0
O174 O 0.96466 0.41693 0.87372 0.0
N175 N 0.95575 0.4168 0.72988 0.0
C176 C 0.93318 0.43733 0.73481 0.0
C177 C 0.94521 0.46596 0.73208 0.0
C178 C 0.98117 0.43352 0.72261 0.0
N179 N 0.97526 0.46338 0.72485 0.0
C180 C 0.88787 0.37727 0.7106 0.0
C181 C 0.87325 0.38402 0.85514 0.0
C182 C 0.85059 0.38795 0.8033 0.0
C183 C 0.85788 0.38341 0.73027 0.0
C184 C 0.90273 0.37747 0.83339 0.0
N185 N 0.91018 0.37553 0.76171 0.0
H186 H 0.89336 0.37535 0.65389 0.0
H187 H 0.91936 0.37495 0.87501 0.0
H188 H 0.90948 0.43236 0.74056 0.0
H189 H 1.00356 0.42419 0.71609 0.0
O190 O 0.94803 0.37399 0.62438 0.0
O191 O 0.99111 0.36973 0.6842 0.0
O192 O 0.96969 0.3696 0.83093 0.0
C193 C 0.9774 0.37134 0.62255 0.0
H194 H 0.96607 0.25916 0.76275 0.0
H195 H 0.93296 0.48707 0.73546 0.0
H196 H 0.86834 0.38682 0.91219 0.0
H197 H 0.84082 0.3859 0.68869 0.0
Co198 Co 0.65255 0.45015 0.98052 0.0
C199 C 0.71206 0.42862 0.92738 0.0
C200 C 0.71627 0.46785 0.99513 0.0
C201 C 0.7446 0.45976 0.97141 0.0
N202 N 0.69591 0.44831 0.96773 0.0
N203 N 0.74189 0.43519 0.92885 0.0
H204 H 0.70222 0.4103 0.89655 0.0
H205 H 0.7109 0.48711 0.02871 0.0
C206 C 0.64206 0.4738 0.13257 0.0
O207 O 0.61624 0.4594 0.13784 0.0
N208 N 0.60862 0.4519 0.993 0.0
C209 C 0.5889 0.42914 0.00684 0.0
C210 C 0.56008 0.44049 0.01032 0.0
C211 C 0.5911 0.47687 0.98935 0.0
N212 N 0.56163 0.47039 -0.00067 0.0
C213 C 0.644 0.38547 0.97342 0.0
C214 C 0.65748 0.37403 0.11685 0.0
C215 C 0.64375 0.35124 0.07588 0.0
C216 C 0.63816 0.3567 0.00235 0.0
C217 C 0.66218 0.40252 0.08637 0.0
N218 N 0.65336 0.40863 0.01713 0.0
H219 H 0.6381 0.38989 0.91769 0.0
H220 H 0.67197 0.41972 0.11968 0.0
H221 H 0.59433 0.40581 0.01587 0.0
H222 H 0.59965 0.49942 0.98011 0.0
O223 O 0.64704 0.44333 0.8766 0.0
O224 O 0.65197 0.48791 0.92922 0.0
O225 O 0.6594 0.4696 0.07836 0.0
C226 C 0.64892 0.47266 0.86993 0.0
H227 H 0.76556 0.47143 0.98286 0.0
H228 H 0.53954 0.42788 0.02041 0.0
H229 H 0.66291 0.37033 0.17334 0.0
H230 H 0.62797 0.33944 0.9687 0.0
Co231 Co 0.574 0.15385 0.22215 0.0
C232 C 0.59939 0.21526 0.20014 0.0
C233 C 0.55464 0.21633 0.2441 0.0
C234 C 0.56464 0.24542 0.23443 0.0
N235 N 0.57653 0.19743 0.22312 0.0
N236 N 0.59356 0.24522 0.20988 0.0
H237 H 0.61884 0.20599 0.17331 0.0
H238 H 0.53249 0.20943 0.26245 0.0
C239 C 0.54893 0.13579 0.36839 0.0
O240 O 0.56548 0.11119 0.36901 0.0
N241 N 0.57126 0.10986 0.21988 0.0
C242 C 0.59377 0.08933 0.21442 0.0
C243 C 0.58158 0.06073 0.21386 0.0
C244 C 0.54562 0.09325 0.22068 0.0
N245 N 0.55143 0.06334 0.21838 0.0
C246 C 0.6387 0.14703 0.22046 0.0
C247 C 0.64729 0.14879 0.36852 0.0
C248 C 0.67129 0.14014 0.32417 0.0
C249 C 0.66725 0.14055 0.24906 0.0
C250 C 0.6192 0.1551 0.33766 0.0
N251 N 0.6145 0.15191 0.26494 0.0
H252 H 0.63563 0.14585 0.16259 0.0
H253 H 0.60138 0.16179 0.37321 0.0
H254 H 0.61752 0.09413 0.21097 0.0
H255 H 0.52318 0.10282 0.22355 0.0
O256 O 0.58387 0.15353 0.11938 0.0
O257 O 0.53777 0.15626 0.16586 0.0
O258 O 0.55211 0.1554 0.31821 0.0
C259 C 0.55476 0.15487 0.10899 0.0
H260 H 0.55067 0.26518 0.24193 0.0
H261 H 0.59383 0.03961 0.21136 0.0
H262 H 0.64992 0.14949 0.42679 0.0
H263 H 0.68556 0.13439 0.21314 0.0
Co264 Co 0.6584 0.57531 0.47889 0.0
C265 C 0.7195 0.59588 0.43422 0.0
C266 C 0.72286 0.56646 0.52568 0.0
C267 C 0.75154 0.57522 0.50597 0.0
N268 N 0.70245 0.57992 0.48179 0.0
N269 N 0.74927 0.59368 0.44856 0.0
H270 H 0.71064 0.60821 0.38842 0.0
H271 H 0.71802 0.55063 0.56803 0.0
C272 C 0.66762 0.55681 0.63705 0.0
O273 O 0.68324 0.58113 0.65335 0.0
N274 N 0.61505 0.57111 0.47365 0.0
C275 C 0.59543 0.59233 0.45049 0.0
C276 C 0.56669 0.58055 0.45303 0.0
C277 C 0.59814 0.54665 0.48955 0.0
N278 N 0.56858 0.55199 0.47762 0.0
C279 C 0.6638 0.64032 0.49031 0.0
C280 C 0.62739 0.64605 0.61114 0.0
C281 C 0.6388 0.67213 0.57832 0.0
C282 C 0.65733 0.66916 0.51739 0.0
C283 C 0.63435 0.61773 0.58226 0.0
N284 N 0.65281 0.61497 0.52336 0.0
H285 H 0.67647 0.63861 0.44083 0.0
H286 H 0.62354 0.59805 0.605 0.0
H287 H 0.6017 0.61468 0.43207 0.0
H288 H 0.60723 0.52532 0.5082 0.0
O289 O 0.65845 0.58585 0.37647 0.0
O290 O 0.6629 0.53961 0.42194 0.0
O291 O 0.657 0.55295 0.5738 0.0
C292 C 0.66079 0.55678 0.36542 0.0
H293 H 0.77252 0.5679 0.53039 0.0
H294 H 0.54605 0.59176 0.43683 0.0
H295 H 0.61229 0.64763 0.65709 0.0
H296 H 0.66584 0.68897 0.48964 0.0
Co297 Co 0.44833 0.1503 0.72315 0.0
C298 C 0.42396 0.2114 0.68961 0.0
C299 C 0.46997 0.21242 0.72673 0.0
C300 C 0.46168 0.24123 0.70748 0.0
N301 N 0.44651 0.19371 0.71473 0.0
N302 N 0.43281 0.2406 0.6842 0.0
H303 H 0.40196 0.20307 0.67369 0.0
H304 H 0.49199 0.20537 0.74558 0.0
C305 C 0.47252 0.13852 0.87385 0.0
O306 O 0.45748 0.11307 0.87874 0.0
N307 N 0.45076 0.10615 0.73148 0.0
C308 C 0.42886 0.08617 0.75019 0.0
C309 C 0.44082 0.05757 0.7531 0.0
C310 C 0.47581 0.08894 0.72325 0.0
N311 N 0.47028 0.05945 0.73678 0.0
C312 C 0.38439 0.14036 0.71843 0.0
C313 C 0.37236 0.15397 0.86146 0.0
C314 C 0.34981 0.14004 0.81985 0.0
C315 C 0.35571 0.1344 0.74663 0.0
C316 C 0.40106 0.15867 0.83164 0.0
N317 N 0.4073 0.15008 0.76228 0.0
H318 H 0.38883 0.13446 0.6628 0.0
H319 H 0.41823 0.16846 0.86516 0.0
H320 H 0.40604 0.09144 0.7653 0.0
H321 H 0.49793 0.0978 0.71032 0.0
O322 O 0.43948 0.14635 0.62023 0.0
O323 O 0.48518 0.15074 0.66811 0.0
O324 O 0.46885 0.15604 0.8198 0.0
C325 C 0.4686 0.14788 0.61073 0.0
H326 H 0.47585 0.26116 0.70947 0.0
H327 H 0.42917 0.03711 0.76917 0.0
H328 H 0.36829 0.1596 0.91766 0.0
H329 H 0.3387 0.1242 0.71228 0.0
Co330 Co 0.87249 0.95392 0.97732 0.0
C331 C 0.81079 0.92705 0.96137 0.0
C332 C 0.81004 0.97283 -0.00081 0.0
C333 C 0.78092 0.96411 0.98378 0.0
N334 N 0.8289 0.94972 0.98465 0.0
N335 N 0.78146 0.93542 0.95949 0.0
H336 H 0.81861 0.90562 0.94133 0.0
H337 H 0.81721 0.99522 0.01518 0.0
C338 C 0.85859 0.96969 0.1314 0.0
O339 O 0.84166 0.94541 0.13761 0.0
N340 N 0.91557 0.95859 0.9696 0.0
C341 C 0.93528 0.93838 0.94237 0.0
C342 C 0.96386 0.95056 0.9457 0.0
C343 C 0.93217 0.98282 0.98872 0.0
N344 N 0.96169 0.97834 0.97489 0.0
C345 C 0.87434 0.8887 0.9738 0.0
C346 C 0.90154 0.88131 0.10733 0.0
C347 C 0.89547 0.85581 0.06533 0.0
C348 C 0.88186 0.85959 -0.00241 0.0
C349 C 0.8939 0.90989 0.08133 0.0
N350 N 0.87932 0.91342 0.01658 0.0
H351 H 0.86573 0.89145 0.91956 0.0
H352 H 0.90121 0.92915 0.11214 0.0
H353 H 0.92925 0.91654 0.9205 0.0
H354 H 0.92286 1.00345 0.01078 0.0
O355 O 0.87032 0.94557 0.87355 0.0
O356 O 0.86694 0.99076 0.92486 0.0
O357 O 0.8737 0.97434 0.07395 0.0
C358 C 0.86715 0.97477 0.86636 0.0
H359 H 0.761 0.97822 0.98672 0.0
H360 H 0.98453 0.94028 0.92651 0.0
H361 H 0.91322 0.87922 0.15861 0.0
H362 H 0.87797 0.84036 0.96259 0.0
Co363 Co 0.07969 0.37509 0.2276 0.0
C364 C 0.09224 0.31296 0.1724 0.0
C365 C 0.09674 0.315 0.28744 0.0
C366 C 0.10511 0.2866 0.265 0.0
N367 N 0.08799 0.33161 0.22982 0.0
N368 N 0.10228 0.28548 0.19276 0.0
H369 H 0.08988 0.31954 0.11639 0.0
H370 H 0.09978 0.32332 0.34123 0.0
C371 C 0.06555 0.37041 0.39238 0.0
O372 O 0.09351 0.36671 0.41407 0.0
N373 N 0.07229 0.4181 0.22263 0.0
C374 C 0.09165 0.43864 0.19487 0.0
C375 C 0.0777 0.46631 0.1927 0.0
C376 C 0.04658 0.4334 0.23608 0.0
N377 N 0.04954 0.46288 0.2186 0.0
C378 C 0.14442 0.36944 0.23679 0.0
C379 C 0.15254 0.41186 0.34507 0.0
C380 C 0.17779 0.39718 0.31651 0.0
C381 C 0.17364 0.37571 0.26174 0.0
C382 C 0.1238 0.40474 0.31913 0.0
N383 N 0.11986 0.38331 0.26668 0.0
H384 H 0.14151 0.35366 0.19278 0.0
H385 H 0.10459 0.41668 0.34105 0.0
H386 H 0.11409 0.43357 0.17527 0.0
H387 H 0.02596 0.42313 0.25574 0.0
O388 O 0.08777 0.3761 0.1238 0.0
O389 O 0.04315 0.36822 0.17467 0.0
O390 O 0.05891 0.37356 0.3255 0.0
C391 C 0.05865 0.37212 0.11599 0.0
H392 H 0.11439 0.26878 0.29841 0.0
H393 H 0.08706 0.48718 0.17183 0.0
H394 H 0.15507 0.42882 0.38689 0.0
H395 H 0.19282 0.36431 0.23784 0.0
Co396 Co 0.37263 0.57465 0.98667 0.0
C397 C 0.31143 0.59989 0.95622 0.0
C398 C 0.30917 0.55544 0.00147 0.0
C399 C 0.28051 0.56391 0.9813 0.0
N400 N 0.3287 0.57811 0.98702 0.0
N401 N 0.28208 0.59181 0.95299 0.0
H402 H 0.32 0.62011 0.93119 0.0
H403 H 0.31546 0.53332 0.02008 0.0
C404 C 0.3554 0.55509 0.13798 0.0
O405 O 0.33302 0.57447 0.1411 0.0
N406 N 0.41608 0.57113 0.98405 0.0
C407 C 0.43575 0.59218 0.96012 0.0
C408 C 0.4644 0.58014 0.96135 0.0
C409 C 0.43287 0.54654 -0.00067 0.0
N410 N 0.46239 0.55159 0.98602 0.0
C411 C 0.37318 0.64003 0.98406 0.0
C412 C 0.39649 0.64737 0.1218 0.0
C413 C 0.39124 0.67294 0.07937 0.0
C414 C 0.37944 0.66918 0.00965 0.0
C415 C 0.39002 0.61875 0.09412 0.0
N416 N 0.3775 0.61523 0.02697 0.0
H417 H 0.36638 0.63738 0.92838 0.0
H418 H 0.397 0.59949 0.12537 0.0
H419 H 0.42963 0.6144 0.94076 0.0
H420 H 0.42365 0.52517 0.01743 0.0
O421 O 0.37267 0.583 0.88318 0.0
O422 O 0.36926 0.5377 0.93425 0.0
O423 O 0.37321 0.55445 0.08403 0.0
C424 C 0.37104 0.55367 0.87573 0.0
H425 H 0.26041 0.54999 0.98291 0.0
H426 H 0.48499 0.59106 0.94359 0.0
H427 H 0.40675 0.64943 0.17481 0.0
H428 H 0.37622 0.68849 0.97445 0.0
Co429 Co 0.45004 0.87246 0.24587 0.0
C430 C 0.42969 0.81156 0.20128 0.0
C431 C 0.46518 0.80917 0.28044 0.0
C432 C 0.45771 0.78019 0.25969 0.0
N433 N 0.44755 0.8288 0.24395 0.0
N434 N 0.43545 0.78185 0.21019 0.0
H435 H 0.41347 0.82048 0.16307 0.0
H436 H 0.48291 0.81542 0.3178 0.0
C437 C 0.47274 0.89006 0.39429 0.0
O438 O 0.46027 0.91685 0.38978 0.0
N439 N 0.45227 0.91658 0.24565 0.0
C440 C 0.42912 0.93651 0.2487 0.0
C441 C 0.44034 0.96545 0.24473 0.0
C442 C 0.47727 0.93398 0.23863 0.0
N443 N 0.47048 0.96369 0.23864 0.0
C444 C 0.38547 0.87591 0.22768 0.0
C445 C 0.37139 0.8821 0.37266 0.0
C446 C 0.34877 0.88677 0.32129 0.0
C447 C 0.35566 0.88239 0.24801 0.0
C448 C 0.40068 0.87543 0.35022 0.0
N449 N 0.40794 0.87403 0.27839 0.0
H450 H 0.39077 0.87423 0.17083 0.0
H451 H 0.41729 0.87254 0.3915 0.0
H452 H 0.40556 0.93094 0.25367 0.0
H453 H 0.49997 0.92523 0.23359 0.0
O454 O 0.44503 0.87342 0.14106 0.0
O455 O 0.48861 0.87047 0.19952 0.0
O456 O 0.46758 0.86987 0.3466 0.0
C457 C 0.47445 0.87181 0.13834 0.0
H458 H 0.46827 0.7595 0.27802 0.0
H459 H 0.42745 0.98621 0.24621 0.0
H460 H 0.36668 0.88469 0.42987 0.0
H461 H 0.33851 0.88544 0.20686 0.0
Co462 Co 0.15071 0.95205 0.47231 0.0
C463 C 0.21174 0.93 0.43874 0.0
C464 C 0.21333 0.96833 0.50997 0.0
C465 C 0.24251 0.95999 0.49323 0.0
N466 N 0.19416 0.9495 0.47567 0.0
N467 N 0.24132 0.93605 0.44821 0.0
H468 H 0.20312 0.91247 0.40348 0.0
H469 H 0.20662 0.98744 0.54265 0.0
C470 C 0.13005 0.97222 0.6192 0.0
O471 O 0.10581 0.95532 0.61298 0.0
N472 N 0.10673 0.95455 0.46764 0.0
C473 C 0.08678 0.93219 0.45312 0.0
C474 C 0.058 0.94373 0.45397 0.0
C475 C 0.08954 0.97961 0.47584 0.0
N476 N 0.05985 0.97345 0.46802 0.0
C477 C 0.14387 0.8874 0.46236 0.0
C478 C 0.14628 0.87579 0.60924 0.0
C479 C 0.13718 0.85274 0.56234 0.0
C480 C 0.13747 0.85828 0.48772 0.0
C481 C 0.15272 0.90444 0.58149 0.0
N482 N 0.14877 0.91066 0.50957 0.0
H483 H 0.14269 0.8917 0.4049 0.0
H484 H 0.16037 0.92147 0.61873 0.0
H485 H 0.09214 0.9091 0.44074 0.0
H486 H 0.09855 1.00193 0.48623 0.0
O487 O 0.15184 0.94494 0.3679 0.0
O488 O 0.15372 0.98973 0.42096 0.0
O489 O 0.15096 0.97078 0.57186 0.0
C490 C 0.15413 0.97422 0.36153 0.0
H491 H 0.26299 0.97134 0.51015 0.0
H492 H 0.03732 0.93152 0.44275 0.0
H493 H 0.14747 0.87192 0.66707 0.0
H494 H 0.13131 0.84067 0.44978 0.0
Co495 Co 0.07733 0.65253 0.71835 0.0
C496 C 0.0958 0.71557 0.68134 0.0
C497 C 0.05909 0.71473 0.75646 0.0
C498 C 0.06563 0.74441 0.74041 0.0
N499 N 0.07883 0.69655 0.722 0.0
N500 N 0.0886 0.74482 0.69278 0.0
H501 H 0.11179 0.70847 0.64072 0.0
H502 H 0.03986 0.70705 0.78724 0.0
C503 C 0.05987 0.66258 0.87528 0.0
O504 O 0.08459 0.67823 0.88735 0.0
N505 N 0.0753 0.60904 0.71274 0.0
C506 C 0.09717 0.59035 0.68882 0.0
C507 C 0.08603 0.56129 0.6877 0.0
C508 C 0.05113 0.59131 0.72551 0.0
N509 N 0.05722 0.56213 0.71073 0.0
C510 C 0.14219 0.66065 0.73172 0.0
C511 C 0.14858 0.62466 0.85314 0.0
C512 C 0.17434 0.63727 0.82173 0.0
C513 C 0.17104 0.65566 0.76055 0.0
C514 C 0.1203 0.63038 0.82297 0.0
N515 N 0.11707 0.64879 0.764 0.0
H516 H 0.14042 0.67271 0.68146 0.0
H517 H 0.1011 0.61886 0.84543 0.0
H518 H 0.11941 0.59751 0.67162 0.0
H519 H 0.02939 0.59961 0.74336 0.0
O520 O 0.08858 0.6535 0.61654 0.0
O521 O 0.04183 0.65522 0.66008 0.0
O522 O 0.05495 0.65084 0.81338 0.0
C523 C 0.05953 0.65439 0.6043 0.0
H524 H 0.05337 0.76411 0.75885 0.0
H525 H 0.09781 0.5412 0.66992 0.0
H526 H 0.15043 0.60967 0.89931 0.0
H527 H 0.19068 0.66502 0.73368 0.0
C528 C 0.99714 0.01417 0.91917 0.0
C529 C 0.98567 0.99998 0.98195 0.0
C530 C 0.02124 0.02833 0.05746 0.0
C531 C 0.03417 0.04075 0.99405 0.0
N532 N 0.03859 0.04134 0.86399 0.0
N533 N 0.98834 0.99005 0.10951 0.0
C534 C 0.02326 0.03252 0.92461 0.0
C535 C 0.99812 1.00615 0.05096 0.0
N536 N 0.9824 1.0107 0.85477 0.0
N537 N 0.03074 0.03837 0.12353 0.0
H538 H 0.97147 0.97366 0.10559 0.0
H539 H 0.99822 0.99138 0.16052 0.0
H540 H 0.04791 0.05437 0.12914 0.0
H541 H 0.02039 0.03248 0.17211 0.0
H542 H 0.98775 0.02284 0.8082 0.0
H543 H 0.96297 0.99755 0.8497 0.0
H544 H 0.03356 0.03347 0.81227 0.0
H545 H 0.05825 0.05427 0.86594 0.0
C546 C 1.00139 0.52666 0.28593 0.0
C547 C 0.98778 0.53602 0.22032 0.0
C548 C 1.01066 0.49311 0.15712 0.0
C549 C 0.02691 0.48601 0.22084 0.0
N550 N 0.04042 0.49677 0.34394 0.0
N551 N 0.97882 0.52897 0.09319 0.0
C552 C 0.02291 0.50294 0.28492 0.0
C553 C 0.99212 0.51932 0.15574 0.0
N554 N 0.99265 0.5397 0.34941 0.0
N555 N 1.01285 0.47437 0.09864 0.0
H556 H 0.96413 0.54732 0.09167 0.0
H557 H 0.98328 0.51986 0.04243 0.0
H558 H 0.02629 0.45503 0.09914 0.0
H559 H 1.00002 0.47659 0.05177 0.0
H560 H 0.99972 0.53231 0.40015 0.0
H561 H 0.97599 0.55625 0.35135 0.0
H562 H 0.04093 0.51019 0.39019 0.0
H563 H 0.05603 0.47912 0.34459 0.0
C564 C 0.53161 0.52471 0.55319 0.0
C565 C 0.54399 0.53097 0.48418 0.0
C566 C 0.50516 0.4999 0.42619 0.0
C567 C 0.49369 0.49241 0.49538 0.0
N568 N 0.49726 0.49402 0.62498 0.0
N569 N 0.54628 0.52159 0.35644 0.0
C570 C 0.50733 0.50377 0.55913 0.0
C571 C 0.53171 0.51778 0.42093 0.0
N572 N 0.54267 0.53952 0.6124 0.0
N573 N 0.4904 0.48998 0.36576 0.0
H574 H 0.56608 0.5342 0.35188 0.0
H575 H 0.54033 0.51046 0.30896 0.0
H576 H 0.47153 0.47588 0.3683 0.0
H577 H 0.49559 0.49706 0.3135 0.0
H578 H 0.53307 0.53825 0.6637 0.0
H579 H 0.56064 0.55474 0.60909 0.0
H580 H 0.50775 0.49919 0.67384 0.0
H581 H 0.47917 0.47907 0.63034 0.0
C582 C 0.52638 1.00021 0.68005 0.0
C583 C 0.53286 0.98665 0.74756 0.0
C584 C 0.50011 0.0231 0.80879 0.0
C585 C 0.49181 0.03515 0.74054 0.0
N586 N 0.49256 0.0322 0.61096 0.0
N587 N 0.52395 0.98226 0.87537 0.0
C588 C 0.50379 0.02289 0.67596 0.0
C589 C 0.51916 0.99731 0.81184 0.0
N590 N 0.54258 0.99193 0.6205 0.0
N591 N 0.49039 0.03693 0.87053 0.0
H592 H 0.5383 0.96367 0.8792 0.0
H593 H 0.51222 0.98672 0.92296 0.0
H594 H 0.47634 0.05579 0.86984 0.0
H595 H 0.49798 0.03127 0.92204 0.0
H596 H 0.54089 1.00268 0.57053 0.0
H597 H 0.55971 0.97582 0.62316 0.0
H598 H 0.49835 0.02244 0.56162 0.0
H599 H 0.47523 0.04802 0.60752 0.0
C600 C 0.02042 1.00092 0.40087 0.0
C601 C 0.03502 0.9944 0.46727 0.0
C602 C 0.99969 0.02751 0.53156 0.0
C603 C 0.98399 0.03233 0.46589 0.0
N604 N 0.97592 0.02058 0.34061 0.0
N605 N 0.03674 0.99769 0.597 0.0
C606 C 0.99344 0.01817 0.40115 0.0
C607 C 0.02421 1.00675 0.5331 0.0
N608 N 0.03289 0.99114 0.33749 0.0
N609 N 0.99143 0.04337 0.59174 0.0
H610 H 0.05452 0.98234 0.59924 0.0
H611 H 0.02827 1.00356 0.6476 0.0
H612 H 0.97329 0.05839 0.59173 0.0
H613 H 1.00355 0.04319 0.64002 0.0
H614 H 0.02524 0.99769 0.2866 0.0
H615 H 0.05252 0.97819 0.33571 0.0
H616 H 0.97981 1.00857 0.29312 0.0
H617 H 0.95585 0.03281 0.34015 0.0
C618 C 1.00334 0.50098 0.65326 0.0
C619 C 0.99653 0.48786 0.72116 0.0
C620 C 0.03122 0.52285 0.78152 0.0
C621 C 0.0366 0.53712 0.71429 0.0
N622 N 0.02574 0.54302 0.58782 0.0
N623 N 0.99998 0.48831 0.8509 0.0
C624 C 0.02214 0.527 0.6504 0.0
C625 C 1.00941 0.49935 0.78572 0.0
N626 N 0.99184 0.48828 0.59181 0.0
N627 N 0.04757 0.53147 0.84071 0.0
H628 H 0.98395 0.47115 0.85503 0.0
H629 H 1.00628 0.49742 0.90058 0.0
H630 H 0.0635 0.54884 0.83868 0.0
H631 H 0.04693 0.52024 0.8902 0.0
H632 H 0.9981 0.49466 0.53971 0.0
H633 H 0.97707 0.46993 0.59329 0.0
H634 H 0.01393 0.53865 0.54028 0.0
H635 H 0.03923 0.56229 0.5851 0.0
C636 C 0.5216 0.49562 0.92936 0.0
C637 C 0.5365 0.49085 -0.00381 0.0
C638 C 0.50214 0.5261 0.05651 0.0
C639 C 0.48669 0.53018 0.9902 0.0
N640 N 0.47838 0.51679 0.86599 0.0
N641 N 0.53903 0.49721 0.125 0.0
C642 C 0.49555 0.51435 0.92714 0.0
C643 C 0.52621 0.50491 0.06037 0.0
N644 N 0.53266 0.48224 0.86828 0.0
N645 N 0.49406 0.54312 0.11501 0.0
H646 H 0.5568 0.48184 0.12878 0.0
H647 H 0.53099 0.5044 0.17497 0.0
H648 H 0.47605 0.55828 0.11349 0.0
H649 H 0.50605 0.54357 0.16345 0.0
H650 H 0.52495 0.48687 0.81626 0.0
H651 H 0.55085 0.4673 0.86942 0.0
H652 H 0.48185 0.50423 0.81917 0.0
H653 H 0.45911 0.53024 0.86385 0.0
C654 C 0.50446 1.00047 0.29714 0.0
C655 C 0.49101 0.9888 0.23355 0.0
C656 C 0.51496 0.02859 0.16126 0.0
C657 C 0.53021 0.03882 0.22397 0.0
N658 N 0.54252 0.0332 0.34997 0.0
N659 N 0.48432 0.98954 0.10477 0.0
C660 C 0.52582 0.02434 0.29157 0.0
C661 C 0.49649 1.00232 0.16538 0.0
N662 N 0.49588 0.98931 0.3629 0.0
N663 N 0.51805 0.04437 0.09822 0.0
H664 H 0.47013 0.97075 0.10718 0.0
H665 H 0.48942 0.99632 0.05226 0.0
H666 H 0.53203 0.06322 0.09407 0.0
H667 H 0.50555 0.0401 0.0517 0.0
H668 H 0.5025 0.99859 0.41218 0.0
H669 H 0.48015 0.97191 0.36805 0.0
H670 H 0.54282 0.0217 0.39912 0.0
H671 H 0.55757 0.05131 0.34789 0.0
C672 C 0.18139 0.985 0.24354 0.0
C673 C 0.15675 0.99025 0.29098 0.0
C674 C 0.14489 0.03717 0.22661 0.0
C675 C 0.16876 0.03153 0.17719 0.0
N676 N 0.20382 0.99533 0.12667 0.0
N677 N 0.10949 0.0155 0.31133 0.0
C678 C 0.18538 1.00407 0.18215 0.0
C679 C 0.13682 0.01459 0.2774 0.0
N680 N 0.20156 0.96249 0.25786 0.0
N681 N 0.13056 0.06448 0.22741 0.0
H682 H 0.10232 0.99807 0.34491 0.0
H683 H 0.09268 0.03112 0.29886 0.0
H684 H 0.13606 0.08208 0.19261 0.0
H685 H 0.11525 0.07072 0.2675 0.0
H686 H 0.22198 0.96016 0.23047 0.0
H687 H 0.19878 0.94716 0.29991 0.0
H688 H 0.21392 0.97411 0.12409 0.0
H689 H 0.20658 1.00785 0.07939 0.0
C690 C 0.02481 0.67656 0.51385 0.0
C691 C 0.04587 0.65368 0.53125 0.0
C692 C 0.02809 0.62379 0.4282 0.0
C693 C 1.00333 0.64398 0.41978 0.0
N694 N 0.97749 0.68959 0.45687 0.0
N695 N 0.06856 0.60547 0.50479 0.0
C696 C 1.00176 0.67067 0.46239 0.0
C697 C 0.04815 0.62746 0.48769 0.0
N698 N 0.02722 0.70411 0.54658 0.0
N699 N 0.03308 0.60174 0.37788 0.0
H700 H 0.08477 0.60805 0.54506 0.0
H701 H 0.06865 0.5841 0.48126 0.0
H702 H 0.01934 0.59875 0.33284 0.0
H703 H 0.05232 0.58828 0.37671 0.0
H704 H 0.01454 0.7229 0.53167 0.0
H705 H 0.04435 0.70887 0.58361 0.0
H706 H 0.97339 0.70725 0.49274 0.0
H707 H 0.96006 0.68649 0.41994 0.0
C708 C 0.35965 0.49005 0.74572 0.0
C709 C 0.38553 0.49272 0.70116 0.0
C710 C 0.39933 0.54014 0.76235 0.0
C711 C 0.373 0.53763 0.80565 0.0
N712 N 0.32429 0.51499 0.82561 0.0
N713 N 0.42658 0.52352 0.65645 0.0
C714 C 0.3519 0.51413 0.79272 0.0
C715 C 0.40433 0.51875 0.70627 0.0
N716 N 0.34348 0.46376 0.7464 0.0
N717 N 0.42043 0.56186 0.77692 0.0
H718 H 0.43177 0.50799 0.61642 0.0
H719 H 0.43842 0.54375 0.65139 0.0
H720 H 0.41728 0.57895 0.8147 0.0
H721 H 0.44197 0.56205 0.75431 0.0
H722 H 0.32617 0.45929 0.78301 0.0
H723 H 0.34947 0.44508 0.71548 0.0
H724 H 0.30671 0.50024 0.8131 0.0
H725 H 0.31803 0.53247 0.86019 0.0
C726 C 0.51621 0.85048 0.06367 0.0
C727 C 0.49213 0.87154 0.07017 0.0
C728 C 0.5079 0.89511 0.95639 0.0
C729 C 0.53474 0.87762 0.95738 0.0
N730 N 0.56592 0.84016 0.01518 0.0
N731 N 0.46721 0.91664 0.02642 0.0
C732 C 0.53924 0.85554 0.01162 0.0
C733 C 0.48825 0.89442 0.01711 0.0
N734 N 0.51672 0.82526 0.10635 0.0
N735 N 0.50085 0.91192 0.89676 0.0
H736 H 0.4526 0.91759 0.07046 0.0
H737 H 0.466 0.93572 0.99349 0.0
H738 H 0.51451 0.91255 0.85094 0.0
H739 H 0.48017 0.92276 0.88997 0.0
H740 H 0.53197 0.80762 0.09918 0.0
H741 H 0.4999 0.82047 0.1441 0.0
H742 H 0.57183 0.82623 0.05837 0.0
H743 H 0.58324 0.84325 0.97782 0.0
C744 C 0.83447 0.02828 0.72844 0.0
C745 C 0.86165 0.03847 0.69494 0.0
C746 C 0.88975 0.99783 0.75623 0.0
C747 C 0.86361 0.99045 0.79615 0.0
N748 N 0.81084 0.99705 0.82021 0.0
N749 N 0.91603 0.03542 0.6849 0.0
C750 C 0.83587 1.00511 0.78163 0.0
C751 C 0.8895 0.02366 0.71034 0.0
N752 N 0.80711 0.03978 0.70794 0.0
N753 N 0.91487 0.98015 0.76259 0.0
H754 H 0.91712 0.0551 0.65414 0.0
H755 H 0.93723 0.02753 0.70018 0.0
H756 H 0.91551 0.9612 0.79613 0.0
H757 H 0.93383 0.98241 0.72973 0.0
H758 H 0.7865 0.03025 0.72255 0.0
H759 H 0.80447 0.05793 0.67294 0.0
H760 H 0.79101 1.00962 0.82203 0.0
H761 H 0.81043 0.97768 0.85207 0.0
C762 C 0.02571 0.40165 0.93848 0.0
C763 C 0.99952 0.38314 0.9338 0.0
C764 C 0.0193 0.3517 0.03218 0.0
C765 C 0.04243 0.37334 0.0454 0.0
N766 N 0.066 0.42093 0.01323 0.0
N767 N 0.97006 0.34159 0.98066 0.0
C768 C 0.04547 0.39868 -0.00134 0.0
C769 C 0.9961 0.3582 0.9813 0.0
N770 N 0.03246 0.42137 0.88391 0.0
N771 N 0.01974 0.32461 0.0677 0.0
H772 H 0.95239 0.34562 0.9448 0.0
H773 H 0.96484 0.32547 0.01979 0.0
H774 H 0.03646 0.31892 0.10487 0.0
H775 H 1.00545 0.30668 0.05496 0.0
H776 H 0.05283 0.43308 0.88055 0.0
H777 H 0.01916 0.42362 0.83787 0.0
H778 H 0.06588 0.44183 0.98727 0.0
H779 H 0.08193 0.41963 0.05429 0.0
C780 C 0.68268 0.52162 0.2752 0.0
C781 C 0.65957 0.54238 0.29314 0.0
C782 C 0.62887 0.52297 0.19328 0.0
C783 C 0.64933 0.49842 0.18485 0.0
N784 N 0.69626 0.47435 0.21835 0.0
N785 N 0.6104 0.56349 0.26908 0.0
C786 C 0.67669 0.498 0.22508 0.0
C787 C 0.63278 0.5436 0.2514 0.0
N788 N 0.71051 0.52486 0.30611 0.0
N789 N 0.60634 0.52729 0.14396 0.0
H790 H 0.61299 0.58027 0.30793 0.0
H791 H 0.58871 0.56256 0.24739 0.0
H792 H 0.60328 0.5132 0.09975 0.0
H793 H 0.59268 0.54641 0.14245 0.0
H794 H 0.7294 0.51242 0.29085 0.0
H795 H 0.71529 0.54235 0.34213 0.0
H796 H 0.71461 0.47089 0.25259 0.0
H797 H 0.69317 0.45692 0.18149 0.0
C798 C 0.524 0.16782 0.46481 0.0
C799 C 0.52533 0.14035 0.42494 0.0
C800 C 0.48374 0.11968 0.49847 0.0
C801 C 0.48314 0.14685 0.53866 0.0
N802 N 0.49451 0.19979 0.54429 0.0
N803 N 0.50056 0.09378 0.39047 0.0
C804 C 0.50076 0.17187 0.51676 0.0
C805 C 0.50339 0.11733 0.43776 0.0
N806 N 0.54563 0.18956 0.45606 0.0
N807 N 0.46623 0.09582 0.51952 0.0
H808 H 0.51405 0.0915 0.34491 0.0
H809 H 0.48311 0.07804 0.39213 0.0
H810 H 0.45085 0.09708 0.5621 0.0
H811 H 0.46781 0.07433 0.49704 0.0
H812 H 0.54776 0.20816 0.49021 0.0
H813 H 0.56301 0.1881 0.41853 0.0
H814 H 0.50461 0.21962 0.52588 0.0
H815 H 0.47643 0.2034 0.57926 0.0
C816 C 0.63121 0.51566 0.79468 0.0
C817 C 0.64898 0.48918 0.7996 0.0
C818 C 0.674 0.50389 0.68666 0.0
C819 C 0.66128 0.53337 0.69258 0.0
N820 N 0.62886 0.56788 0.75769 0.0
N821 N 0.68923 0.45862 0.75041 0.0
C822 C 0.64031 0.5395 0.74846 0.0
C823 C 0.67075 0.48319 0.74522 0.0
N824 N 0.6046 0.51719 0.83134 0.0
N825 N 0.68869 0.49527 0.62508 0.0
H826 H 0.68687 0.44217 0.79018 0.0
H827 H 0.70805 0.45553 0.71742 0.0
H828 H 0.69084 0.50911 0.57993 0.0
H829 H 0.69581 0.47318 0.61584 0.0
H830 H 0.58943 0.53506 0.8263 0.0
H831 H 0.59593 0.49824 0.8573 0.0
H832 H 0.61561 0.57381 0.80206 0.0
H833 H 0.63469 0.58608 0.72483 0.0
C834 C 0.54145 0.12747 0.99433 0.0
C835 C 0.54033 0.15405 0.03685 0.0
C836 C 0.49686 0.1724 0.96755 0.0
C837 C 0.49706 0.14522 0.92662 0.0
N838 N 0.52537 0.10204 0.88491 0.0
N839 N 0.52391 0.20541 0.05022 0.0
C840 C 0.52119 0.12429 0.93508 0.0
C841 C 0.52022 0.1777 0.01876 0.0
N842 N 0.56086 0.10469 0.0123 0.0
N843 N 0.47371 0.19253 0.96018 0.0
H844 H 0.54143 0.20989 0.08647 0.0
H845 H 0.51187 0.22457 0.03498 0.0
H846 H 0.45666 0.19012 0.922 0.0
H847 H 0.47031 0.21072 0.9949 0.0
H848 H 0.56027 0.08335 0.98867 0.0
H849 H 0.57665 0.10645 0.05389 0.0
H850 H 0.54411 0.08786 0.88392 0.0
H851 H 0.51164 0.09973 0.83959 0.0
C852 C 0.83311 0.02204 0.28312 0.0
C853 C 0.86001 0.03834 0.29737 0.0
C854 C 0.88659 1.0082 0.20703 0.0
C855 C 0.85909 0.99317 0.18904 0.0
N856 N 0.80439 0.99371 0.19554 0.0
N857 N 0.90988 0.05276 0.25902 0.0
C858 C 0.83177 1.00235 0.22279 0.0
C859 C 0.88585 0.03354 0.25416 0.0
N860 N 0.80888 0.02485 0.32808 0.0
N861 N 0.91368 0.99716 0.18364 0.0
H862 H 0.91004 0.07135 0.29361 0.0
H863 H 0.92821 0.05193 0.2237 0.0
H864 H 0.91576 0.97725 0.15417 0.0
H865 H 0.93438 1.00579 0.20078 0.0
H866 H 0.7903 1.0104 0.32595 0.0
H867 H 0.80837 0.04038 0.37029 0.0
H868 H 0.78398 1.00236 0.21445 0.0
H869 H 0.8019 0.98076 0.14898 0.0
C870 C 0.02251 0.39576 0.45801 0.0
C871 C 0.04066 0.36975 0.44642 0.0
C872 C 0.01452 0.34359 0.54507 0.0
C873 C 0.99546 0.3691 0.55498 0.0
N874 N 0.97731 0.41717 0.51165 0.0
N875 N 0.04839 0.31644 0.46599 0.0
C876 C 0.99796 0.39433 0.50791 0.0
C877 C 0.03503 0.34294 0.48616 0.0
N878 N 0.02989 0.42238 0.42485 0.0
N879 N 0.01361 0.32009 0.59306 0.0
H880 H 0.06313 0.31487 0.42241 0.0
H881 H 0.04251 0.29551 0.4876 0.0
H882 H 0.99756 0.31836 0.63393 0.0
H883 H 0.02981 0.30305 0.59471 0.0
H884 H 0.01962 0.44293 0.43679 0.0
H885 H 0.04826 0.4245 0.38998 0.0
H886 H 0.9761 0.43459 0.47386 0.0
H887 H 0.95974 0.41748 0.54911 0.0
C888 C 0.35485 0.50301 0.19285 0.0
C889 C 0.36152 0.53432 0.19897 0.0
C890 C 0.38855 0.52383 0.31068 0.0
C891 C 0.37618 0.49422 0.31327 0.0
N892 N 0.34227 0.45759 0.25808 0.0
N893 N 0.38122 0.57528 0.27124 0.0
C894 C 0.35794 0.48414 0.2546 0.0
C895 C 0.37703 0.54505 0.26057 0.0
N896 N 0.34622 0.49096 0.12812 0.0
N897 N 0.41283 0.53108 0.35243 0.0
H898 H 0.37266 0.59163 0.23623 0.0
H899 H 0.39051 0.584 0.31872 0.0
H900 H 0.4246 0.51452 0.38046 0.0
H901 H 0.42395 0.55181 0.34927 0.0
H902 H 0.34372 0.46779 0.11993 0.0
H903 H 0.34516 0.50362 0.08084 0.0
H904 H 0.32624 0.45145 0.21943 0.0
H905 H 0.34276 0.44304 0.3021 0.0
C906 C 0.49147 0.85863 0.49909 0.0
C907 C 0.49507 0.88385 0.45235 0.0
C908 C 0.53918 0.90059 0.52223 0.0
C909 C 0.53592 0.87505 0.56796 0.0
N910 N 0.51442 0.8257 0.58808 0.0
N911 N 0.52771 0.92318 0.40629 0.0
C912 C 0.51374 0.8528 0.55258 0.0
C913 C 0.52055 0.90316 0.45997 0.0
N914 N 0.46621 0.84097 0.49488 0.0
N915 N 0.55893 0.92318 0.53971 0.0
H916 H 0.51531 0.92498 0.35865 0.0
H917 H 0.54768 0.93562 0.40532 0.0
H918 H 0.57311 0.92246 0.58461 0.0
H919 H 0.55963 0.94381 0.51261 0.0
H920 H 0.46066 0.82469 0.53337 0.0
H921 H 0.44945 0.84401 0.45617 0.0
H922 H 0.50096 0.80732 0.57392 0.0
H923 H 0.5307 0.82051 0.62685 0.0
C924 C 0.12354 0.98345 0.75137 0.0
C925 C 0.13329 0.99293 0.6821 0.0
C926 C 0.15105 0.04054 0.73561 0.0
C927 C 0.13698 0.03281 0.80223 0.0
N928 N 0.1013 0.99979 0.86301 0.0
N929 N 0.14893 0.03475 0.60581 0.0
C930 C 0.12063 1.00514 0.80699 0.0
C931 C 0.14489 0.02274 0.67323 0.0
N932 N 0.11824 0.95361 0.76564 0.0
N933 N 0.1715 0.06361 0.73181 0.0
H934 H 0.14291 0.02354 0.55842 0.0
H935 H 0.1549 0.05729 0.5976 0.0
H936 H 0.17851 0.07601 0.7766 0.0
H937 H 0.18415 0.068 0.6854 0.0
H938 H 0.11342 0.94567 0.81753 0.0
H939 H 0.12241 0.93648 0.72827 0.0
H940 H 0.08719 0.98093 0.86502 0.0
H941 H 0.09636 0.01599 0.90176 0.0
C942 C 1.00357 0.62834 0.00941 0.0
C943 C 0.98885 0.65466 0.0343 0.0
C944 C 0.02096 0.68613 0.95749 0.0
C945 C 0.03604 0.65981 0.9318 0.0
N946 N 0.03785 0.60517 0.92406 0.0
N947 N 0.97576 0.70634 0.01314 0.0
C948 C 0.026 0.63066 0.95453 0.0
C949 C 0.99513 0.68286 0.00231 0.0
N950 N 0.99635 0.60115 0.03963 0.0
N951 N 0.03146 0.71434 0.94091 0.0
H952 H 0.95612 0.7039 0.04361 0.0
H953 H 0.97708 0.72659 0.98454 0.0
H954 H 0.05014 0.71834 0.90827 0.0
H955 H 0.02313 0.73393 0.96493 0.0
H956 H 1.00902 0.58156 0.03284 0.0
H957 H 0.97761 0.59865 0.07316 0.0
H958 H 0.02885 0.58366 0.93161 0.0
H959 H 0.05583 0.60544 0.88801 0.0
C960 C 0.14292 0.25738 0.13078 0.0
C961 C 0.11185 0.261 0.14688 0.0
C962 C 0.10031 0.2123 0.09012 0.0
C963 C 0.13154 0.20839 0.07486 0.0
N964 N 0.18187 0.22872 0.06833 0.0
N965 N 0.06033 0.24557 0.13251 0.0
C966 C 0.15265 0.23152 0.09125 0.0
C967 C 0.09033 0.2396 0.12306 0.0
N968 N 0.16304 0.27843 0.1553 0.0
N969 N 0.08047 0.18932 0.076 0.0
H970 H 0.05268 0.26498 0.15869 0.0
H971 H 0.04302 0.23257 0.11055 0.0
H972 H 0.08675 0.16938 0.05003 0.0
H973 H 0.05808 0.18917 0.09297 0.0
H974 H 0.18637 0.27599 0.15265 0.0
H975 H 0.15624 0.29815 0.18148 0.0
H976 H 0.19802 0.24568 0.07295 0.0
H977 H 0.18954 0.20993 0.03969 0.0
C978 C 0.81987 0.59968 0.33635 0.0
C979 C 0.82523 0.63134 0.33882 0.0
C980 C 0.77972 0.63819 0.41287 0.0
C981 C 0.77392 0.60675 0.40828 0.0
N982 N 0.78474 0.55837 0.35578 0.0
N983 N 0.80814 0.68143 0.36839 0.0
C984 C 0.79291 0.58777 0.36684 0.0
C985 C 0.80439 0.65084 0.37359 0.0
N986 N 0.8412 0.58083 0.30778 0.0
N987 N 0.76244 0.65558 0.45766 0.0
H988 H 0.82612 0.69124 0.34046 0.0
H989 H 0.79232 0.69704 0.38663 0.0
H990 H 0.74442 0.64681 0.48732 0.0
H991 H 0.76718 0.67807 0.46961 0.0
H992 H 0.84037 0.5574 0.31221 0.0
H993 H 0.86099 0.58861 0.28366 0.0
H994 H 0.79559 0.54406 0.31947 0.0
H995 H 0.76549 0.5489 0.37893 0.0
C996 C 0.40805 0.32096 0.66965 0.0
C997 C 0.39214 0.32121 0.60269 0.0
C998 C 0.4028 0.26708 0.58888 0.0
C999 C 0.41592 0.2665 0.65897 0.0
N1000 N 0.42195 0.29111 0.77404 0.0
N1001 N 0.36737 0.29219 0.50921 0.0
C1002 C 0.41543 0.2929 0.702 0.0
C1003 C 0.38721 0.29348 0.56567 0.0
N1004 N 0.41818 0.34721 0.70013 0.0
N1005 N 0.40679 0.24341 0.54258 0.0
H1006 H 0.35471 0.31082 0.49263 0.0
H1007 H 0.36118 0.27197 0.48437 0.0
H1008 H 0.4196 0.22447 0.55566 0.0
H1009 H 0.40004 0.2441 0.48856 0.0
H1010 H 0.4321 0.34757 0.74564 0.0
H1011 H 0.41593 0.36828 0.67557 0.0
H1012 H 0.41962 0.30942 0.8091 0.0
H1013 H 0.42621 0.27055 0.79973 0.0
C1014 C 0.7018 0.90796 0.93823 0.0
C1015 C 0.70316 0.89227 0.8711 0.0
C1016 C 0.75662 0.906 0.8605 0.0
C1017 C 0.75594 0.91875 0.93108 0.0
N1018 N 0.72968 0.92351 0.04447 0.0
N1019 N 0.73434 0.86943 0.77906 0.0
C1020 C 0.72907 0.91698 0.97233 0.0
C1021 C 0.73141 0.889 0.83571 0.0
N1022 N 0.67468 0.91614 0.96746 0.0
N1023 N 0.78022 0.9117 0.81498 0.0
H1024 H 0.71658 0.85584 0.76109 0.0
H1025 H 0.75511 0.86439 0.75549 0.0
H1026 H 0.79813 0.92584 0.82843 0.0
H1027 H 0.78022 0.90515 0.7608 0.0
H1028 H 0.67295 0.92997 0.01291 0.0
H1029 H 0.65403 0.91217 0.94214 0.0
H1030 H 0.71114 0.92019 0.07833 0.0
H1031 H 0.74965 0.92887 0.07162 0.0
C1032 C 0.93467 0.24639 0.59228 0.0
C1033 C 0.92063 0.25818 0.65495 0.0
C1034 C 0.882 0.21843 0.64899 0.0
C1035 C 0.89829 0.20452 0.59184 0.0
N1036 N 0.94083 0.20399 0.5104 0.0
N1037 N 0.88174 0.2561 0.74496 0.0
C1038 C 0.92469 0.21832 0.5633 0.0
C1039 C 0.89428 0.24452 0.68345 0.0
N1040 N 0.95735 0.26244 0.56029 0.0
N1041 N 0.85476 0.20673 0.6697 0.0
H1042 H 0.88991 0.2757 0.76956 0.0
H1043 H 0.86436 0.24573 0.7736 0.0
H1044 H 0.84541 0.18751 0.64584 0.0
H1045 H 0.84037 0.21712 0.70654 0.0
H1046 H 0.96704 0.25682 0.5108 0.0
H1047 H 0.9647 0.28309 0.5807 0.0
H1048 H 0.96209 0.21095 0.49312 0.0
H1049 H 0.93371 0.18392 0.48617 0.0
C1050 C 0.80998 0.42805 0.80948 0.0
C1051 C 0.81992 0.39831 0.82643 0.0
C1052 C 0.77638 0.39188 0.9077 0.0
C1053 C 0.76609 0.42113 0.88875 0.0
N1054 N 0.76832 0.46364 0.80836 0.0
N1055 N 0.8089 0.34952 0.87809 0.0
C1056 C 0.78141 0.43805 0.83513 0.0
C1057 C 0.80186 0.37943 0.87123 0.0
N1058 N 0.82852 0.44744 0.77276 0.0
N1059 N 0.76273 0.3767 0.9631 0.0
H1060 H 0.82717 0.3397 0.85134 0.0
H1061 H 0.79513 0.33396 0.90458 0.0
H1062 H 0.74417 0.38533 0.99094 0.0
H1063 H 0.77112 0.35671 0.98497 0.0
H1064 H 0.82377 0.47031 0.76605 0.0
H1065 H 0.84991 0.44145 0.75424 0.0
H1066 H 0.77683 0.47554 0.76419 0.0
H1067 H 0.74723 0.47115 0.82587 0.0
C1068 C 0.60135 0.30121 0.20892 0.0
C1069 C 0.61147 0.27193 0.18977 0.0
C1070 C 0.64723 0.29517 0.10409 0.0
C1071 C 0.63246 0.32342 0.11302 0.0
N1072 N 0.59274 0.35244 0.16979 0.0
N1073 N 0.65796 0.2469 0.15971 0.0
C1074 C 0.60885 0.32621 0.16456 0.0
C1075 C 0.63829 0.27003 0.14774 0.0
N1076 N 0.58794 0.3057 0.27446 0.0
N1077 N 0.66995 0.29234 0.05465 0.0
H1078 H 0.65599 0.23317 0.20536 0.0
H1079 H 0.6788 0.24498 0.13403 0.0
H1080 H 0.67823 0.31054 0.02474 0.0
H1081 H 0.67913 0.27155 0.04005 0.0
H1082 H 0.58242 0.32705 0.29419 0.0
H1083 H 0.58664 0.28849 0.31302 0.0
H1084 H 0.57348 0.35436 0.2019 0.0
H1085 H 0.59675 0.37119 0.13695 0.0
C1086 C 0.72079 0.14687 0.3899 0.0
C1087 C 0.69927 0.1275 0.35694 0.0
C1088 C 0.73062 0.08357 0.38662 0.0
C1089 C 0.75077 0.10255 0.42553 0.0
N1090 N 0.76232 0.15148 0.47497 0.0
N1091 N 0.68079 0.07698 0.33508 0.0
C1092 C 0.74517 0.13406 0.42982 0.0
C1093 C 0.7034 0.09571 0.35829 0.0
N1094 N 0.71815 0.17745 0.38201 0.0
N1095 N 0.73796 0.05408 0.37439 0.0
H1096 H 0.66046 0.08481 0.3137 0.0
H1097 H 0.68106 0.05366 0.34277 0.0
H1098 H 0.75741 0.04415 0.3948 0.0
H1099 H 0.72611 0.04014 0.33892 0.0
H1100 H 0.73472 0.19269 0.3984 0.0
H1101 H 0.70043 0.18747 0.35359 0.0
H1102 H 0.75765 0.17405 0.48611 0.0
H1103 H 0.77962 0.14258 0.50675 0.0
C1104 C 0.63141 0.74199 0.69781 0.0
C1105 C 0.60651 0.75653 0.6648 0.0
C1106 C 0.60401 0.71697 0.57209 0.0
C1107 C 0.62918 0.70244 0.60469 0.0
N1108 N 0.67028 0.70336 0.69007 0.0
N1109 N 0.57274 0.76197 0.56436 0.0
C1110 C 0.64401 0.71573 0.66496 0.0
C1111 C 0.59402 0.74525 0.59974 0.0
N1112 N 0.64214 0.75283 0.76206 0.0
N1113 N 0.58894 0.70311 0.51664 0.0
H1114 H 0.56523 0.78271 0.58402 0.0
H1115 H 0.56443 0.75674 0.51319 0.0
H1116 H 0.5959 0.6827 0.49394 0.0
H1117 H 0.56848 0.71076 0.49586 0.0
H1118 H 0.65813 0.74173 0.79361 0.0
H1119 H 0.6337 0.77245 0.78588 0.0
H1120 H 0.68377 0.71335 0.72948 0.0
H1121 H 0.67984 0.68399 0.66751 0.0
C1122 C 0.29277 0.13938 0.82522 0.0
C1123 C 0.32092 0.12936 0.85322 0.0
C1124 C 0.29378 0.09795 0.94123 0.0
C1125 C 0.26626 0.10385 0.90505 0.0
N1126 N 0.2403 0.12667 0.80417 0.0
N1127 N 0.34791 0.094 0.92969 0.0
C1128 C 0.26582 0.12386 0.84505 0.0
C1129 C 0.32141 0.10741 0.90953 0.0
N1130 N 0.2917 0.16395 0.78056 0.0
N1131 N 0.2934 0.08346 0.00644 0.0
H1132 H 0.36858 0.09869 0.90522 0.0
H1133 H 0.34884 0.07581 0.96547 0.0
H1134 H 0.27331 0.07709 0.03177 0.0
H1135 H 0.31258 0.08083 0.03852 0.0
H1136 H 0.27153 0.17384 0.76379 0.0
H1137 H 0.31092 0.17628 0.76645 0.0
H1138 H 0.23969 0.1386 0.75557 0.0
H1139 H 0.22055 0.11469 0.81494 0.0
C1140 C 0.93612 0.81649 0.07456 0.0
C1141 C 0.90612 0.82567 0.09024 0.0
C1142 C 0.89945 0.78168 0.16971 0.0
C1143 C 0.92909 0.77208 0.15248 0.0
N1144 N 0.97389 0.77685 0.08006 0.0
N1145 N 0.85741 0.81505 0.14234 0.0
C1146 C 0.94689 0.78851 0.10228 0.0
C1147 C 0.88716 0.80754 0.13446 0.0
N1148 N 0.95457 0.83499 0.035 0.0
N1149 N 0.88375 0.76689 0.22263 0.0
H1150 H 0.84793 0.83415 0.11829 0.0
H1151 H 0.84161 0.80129 0.16793 0.0
H1152 H 0.89238 0.74813 0.24978 0.0
H1153 H 0.86326 0.77439 0.24348 0.0
H1154 H 0.97767 0.83149 0.02896 0.0
H1155 H 0.94715 0.85504 0.01122 0.0
H1156 H 0.9867 0.78585 0.03804 0.0
H1157 H 0.98242 0.75653 0.09989 0.0
C1158 C 0.25209 0.43919 0.34293 0.0
C1159 C 0.26248 0.42575 0.40786 0.0
C1160 C 0.21924 0.39106 0.40845 0.0
C1161 C 0.20845 0.4049 0.34401 0.0
N1162 N 0.21626 0.43857 0.24316 0.0
N1163 N 0.25966 0.38668 0.49736 0.0
C1164 C 0.22553 0.42781 0.30893 0.0
C1165 C 0.2472 0.40082 0.43879 0.0
N1166 N 0.26731 0.46352 0.31554 0.0
N1167 N 0.2022 0.36927 0.44155 0.0
H1168 H 0.27971 0.39405 0.5212 0.0
H1169 H 0.2514 0.36677 0.51983 0.0
H1170 H 0.18231 0.36076 0.41914 0.0
H1171 H 0.20692 0.36031 0.49233 0.0
H1172 H 0.25973 0.47665 0.27253 0.0
H1173 H 0.28736 0.47149 0.33827 0.0
H1174 H 0.22885 0.4533 0.21131 0.0
H1175 H 0.19652 0.43128 0.21778 0.0
C1176 C 0.43922 0.74305 0.11489 0.0
C1177 C 0.42249 0.75679 0.17114 0.0
C1178 C 0.38241 0.71894 0.15647 0.0
C1179 C 0.40085 0.70317 0.10629 0.0
N1180 N 0.44795 0.69849 0.04157 0.0
N1181 N 0.37935 0.75771 0.2495 0.0
C1182 C 0.4295 0.71489 0.086 0.0
C1183 C 0.39422 0.74485 0.19259 0.0
N1184 N 0.4642 0.7574 0.08854 0.0
N1185 N 0.35353 0.70927 0.16877 0.0
H1186 H 0.38741 0.77692 0.27591 0.0
H1187 H 0.36016 0.74847 0.27336 0.0
H1188 H 0.34439 0.69029 0.14341 0.0
H1189 H 0.3379 0.72121 0.19952 0.0
H1190 H 0.476 0.75034 0.04288 0.0
H1191 H 0.47154 0.77806 0.109 0.0
H1192 H 0.47039 0.70407 0.03143 0.0
H1193 H 0.4415 0.67801 0.01831 0.0
C1194 C 0.27486 0.89234 0.42536 0.0
C1195 C 0.26637 0.92254 0.41039 0.0
C1196 C 0.31077 0.92887 0.33275 0.0
C1197 C 0.31875 0.8982 0.3453 0.0
N1198 N 0.30521 0.84901 0.3909 0.0
N1199 N 0.27155 0.96699 0.33674 0.0
C1200 C 0.2997 0.87935 0.38764 0.0
C1201 C 0.28291 0.93999 0.35987 0.0
N1202 N 0.25999 0.87663 0.47808 0.0
N1203 N 0.33047 0.94787 0.29839 0.0
H1204 H 0.25097 0.97549 0.35504 0.0
H1205 H 0.28091 0.97941 0.29441 0.0
H1206 H 0.35121 0.94087 0.27787 0.0
H1207 H 0.32735 0.97115 0.29534 0.0
H1208 H 0.26694 0.85561 0.49708 0.0
H1209 H 0.24193 0.88574 0.50696 0.0
H1210 H 0.29064 0.83361 0.41535 0.0
H1211 H 0.32308 0.83887 0.36331 0.0
C1212 C 0.1447 0.8032 0.62746 0.0
C1213 C 0.12513 0.82384 0.59206 0.0
C1214 C 0.08233 0.78988 0.61446 0.0
C1215 C 0.10116 0.77102 0.65701 0.0
N1216 N 0.14922 0.76218 0.71393 0.0
N1217 N 0.07429 0.83951 0.56305 0.0
C1218 C 0.13216 0.77826 0.6659 0.0
C1219 C 0.09365 0.81789 0.5884 0.0
N1220 N 0.17525 0.80713 0.62317 0.0
N1221 N 0.05385 0.78057 0.59702 0.0
H1222 H 0.08144 0.86055 0.54425 0.0
H1223 H 0.05089 0.83767 0.56677 0.0
H1224 H 0.04489 0.76011 0.61465 0.0
H1225 H 0.04022 0.79173 0.55964 0.0
H1226 H 0.19076 0.79124 0.64169 0.0
H1227 H 0.18512 0.82511 0.59527 0.0
H1228 H 0.17116 0.76816 0.72834 0.0
H1229 H 0.14048 0.74442 0.74457 0.0
C1230 C 0.23975 0.62802 0.95357 0.0
C1231 C 0.25795 0.60712 0.91574 0.0
C1232 C 0.22281 0.60775 0.81335 0.0
C1233 C 0.20466 0.62914 0.85063 0.0
N1234 N 0.19863 0.66427 0.94913 0.0
N1235 N 0.27134 0.58257 0.80468 0.0
C1236 C 0.21407 0.64079 0.91866 0.0
C1237 C 0.2509 0.59883 0.8438 0.0
N1238 N 0.2466 0.63475 0.02379 0.0
N1239 N 0.2125 0.59472 0.75096 0.0
H1240 H 0.29218 0.57621 0.82594 0.0
H1241 H 0.269 0.578 0.7497 0.0
H1242 H 0.192 0.60047 0.72685 0.0
H1243 H 0.22311 0.57656 0.72586 0.0
H1244 H 0.2326 0.64726 0.05764 0.0
H1245 H 0.26579 0.62624 0.04947 0.0
H1246 H 0.20576 0.67559 0.99546 0.0
H1247 H 0.17985 0.67415 0.92456 0.0
loop_
_geom_bond_atom_site_label_1
_geom_bond_atom_site_label_2
_geom_bond_distance
_geom_bond_site_symmetry_2
_ccdc_geom_bond_type
Co0 N4 2.148 . S
Co0 N10 2.128 . S
Co0 N20 2.194 1_556 S
Co0 O25 2.351 . S
Co0 O26 2.155 . S
Co0 O27 2.096 1_556 S
C1 N4 1.301 . S
C1 N5 1.328 . S
C1 H6 0.930 . S
C2 C3 1.333 . S
C2 N4 1.317 1_554 S
C2 H7 0.930 . S
C3 C2 1.333 . S
C3 N5 1.350 1_554 S
C3 H29 0.931 . S
N4 Co0 2.148 . S
N4 C1 1.301 . S
N4 C2 1.317 1_556 S
N5 C1 1.328 . S
N5 C3 1.350 1_556 S
H6 C1 0.930 . S
H7 C2 0.930 . S
C8 O9 1.224 . S
C8 O27 1.247 . S
O9 C8 1.224 . S
N10 Co0 2.128 . S
N10 C11 1.355 . S
N10 C13 1.311 1_556 S
C11 N10 1.355 . S
C11 C12 1.363 . S
C11 H23 0.929 . S
C12 C11 1.363 . S
C12 N14 1.375 1_556 S
C12 H30 0.931 . S
C13 N10 1.311 1_554 S
C13 N14 1.347 . S
C13 H24 0.929 . S
N14 C12 1.375 1_554 S
N14 C13 1.347 . S
C15 C18 1.365 . S
C15 N20 1.328 1_556 S
C15 H21 0.929 . S
C16 C17 1.362 . S
C16 C19 1.378 . S
C16 H31 0.929 . S
C17 C16 1.362 . S
C17 C18 1.366 1_554 S
C18 C15 1.365 . S
C18 C17 1.366 1_556 S
C18 H32 0.930 . S
C19 C16 1.378 . S
C19 N20 1.315 . S
C19 H22 0.930 . S
N20 Co0 2.194 1_554 S
N20 C15 1.328 1_554 S
N20 C19 1.315 . S
H21 C15 0.929 . S
H22 C19 0.930 . S
H23 C11 0.929 . S
H24 C13 0.929 . S
O25 Co0 2.351 . S
O25 C28 1.244 . S
O26 Co0 2.155 . S
O26 C28 1.240 . S
O27 Co0 2.096 1_554 S
O27 C8 1.247 . S
C28 O25 1.244 . S
C28 O26 1.240 . S
H29 C3 0.931 . S
H30 C12 0.931 . S
H31 C16 0.929 . S
H32 C18 0.930 . S
Co33 N37 2.148 . S
Co33 N43 2.128 . S
Co33 N53 2.194 . S
Co33 O58 2.351 . S
Co33 O59 2.155 . S
Co33 O60 2.096 . S
C34 N37 1.301 . S
C34 N38 1.328 . S
C34 H39 0.930 . S
C35 C36 1.333 . S
C35 N37 1.317 . S
C35 H40 0.930 . S
C36 C35 1.333 . S
C36 N38 1.350 . S
C36 H62 0.931 . S
N37 Co33 2.148 . S
N37 C34 1.301 . S
N37 C35 1.317 . S
N38 C34 1.328 . S
N38 C36 1.350 . S
H39 C34 0.930 . S
H40 C35 0.930 . S
C41 O42 1.224 . S
C41 O60 1.247 . S
O42 C41 1.224 . S
N43 Co33 2.128 . S
N43 C44 1.355 . S
N43 C46 1.311 . S
C44 N43 1.355 . S
C44 C45 1.363 . S
C44 H56 0.929 . S
C45 C44 1.363 . S
C45 N47 1.375 . S
C45 H63 0.931 . S
C46 N43 1.311 . S
C46 N47 1.347 . S
C46 H57 0.929 . S
N47 C45 1.375 . S
N47 C46 1.347 . S
C48 C51 1.365 . S
C48 N53 1.328 . S
C48 H54 0.929 . S
C49 C50 1.362 . S
C49 C52 1.378 . S
C49 H64 0.929 . S
C50 C49 1.362 . S
C50 C51 1.366 . S
C51 C48 1.365 . S
C51 C50 1.366 . S
C51 H65 0.930 . S
C52 C49 1.378 . S
C52 N53 1.315 . S
C52 H55 0.930 . S
N53 Co33 2.194 . S
N53 C48 1.328 . S
N53 C52 1.315 . S
H54 C48 0.929 . S
H55 C52 0.930 . S
H56 C44 0.929 . S
H57 C46 0.929 . S
O58 Co33 2.351 . S
O58 C61 1.244 . S
O59 Co33 2.155 . S
O59 C61 1.240 . S
O60 Co33 2.096 . S
O60 C41 1.247 . S
C61 O58 1.244 . S
C61 O59 1.240 . S
H62 C36 0.931 . S
H63 C45 0.931 . S
H64 C49 0.929 . S
H65 C51 0.930 . S
Co66 N70 2.148 . S
Co66 N76 2.128 . S
Co66 N86 2.194 . S
Co66 O91 2.351 . S
Co66 O92 2.155 . S
Co66 O93 2.096 . S
C67 N70 1.301 . S
C67 N71 1.328 . S
C67 H72 0.930 . S
C68 C69 1.333 . S
C68 N70 1.317 . S
C68 H73 0.930 . S
C69 C68 1.333 . S
C69 N71 1.350 . S
C69 H95 0.931 . S
N70 Co66 2.148 . S
N70 C67 1.301 . S
N70 C68 1.317 . S
N71 C67 1.328 . S
N71 C69 1.350 . S
H72 C67 0.930 . S
H73 C68 0.930 . S
C74 O75 1.224 . S
C74 O93 1.247 . S
O75 C74 1.224 . S
N76 Co66 2.128 . S
N76 C77 1.355 . S
N76 C79 1.311 . S
C77 N76 1.355 . S
C77 C78 1.363 . S
C77 H89 0.929 . S
C78 C77 1.363 . S
C78 N80 1.375 . S
C78 H96 0.931 . S
C79 N76 1.311 . S
C79 N80 1.347 . S
C79 H90 0.929 . S
N80 C78 1.375 . S
N80 C79 1.347 . S
C81 C84 1.365 . S
C81 N86 1.328 . S
C81 H87 0.929 . S
C82 C83 1.362 . S
C82 C85 1.378 . S
C82 H97 0.929 . S
C83 C82 1.362 . S
C83 C84 1.366 . S
C84 C81 1.365 . S
C84 C83 1.366 . S
C84 H98 0.930 . S
C85 C82 1.378 . S
C85 N86 1.315 . S
C85 H88 0.930 . S
N86 Co66 2.194 . S
N86 C81 1.328 . S
N86 C85 1.315 . S
H87 C81 0.929 . S
H88 C85 0.930 . S
H89 C77 0.929 . S
H90 C79 0.929 . S
O91 Co66 2.351 . S
O91 C94 1.244 . S
O92 Co66 2.155 . S
O92 C94 1.240 . S
O93 Co66 2.096 . S
O93 C74 1.247 . S
C94 O91 1.244 . S
C94 O92 1.240 . S
H95 C69 0.931 . S
H96 C78 0.931 . S
H97 C82 0.929 . S
H98 C84 0.930 . S
Co99 N103 2.148 . S
Co99 N109 2.128 . S
Co99 N119 2.194 . S
Co99 O124 2.351 . S
Co99 O125 2.155 . S
Co99 O126 2.096 . S
C100 N103 1.301 . S
C100 N104 1.328 . S
C100 H105 0.930 . S
C101 C102 1.333 . S
C101 N103 1.317 . S
C101 H106 0.930 . S
C102 C101 1.333 . S
C102 N104 1.350 . S
C102 H128 0.931 . S
N103 Co99 2.148 . S
N103 C100 1.301 . S
N103 C101 1.317 . S
N104 C100 1.328 . S
N104 C102 1.350 . S
H105 C100 0.930 . S
H106 C101 0.930 . S
C107 O108 1.224 . S
C107 O126 1.247 . S
O108 C107 1.224 . S
N109 Co99 2.128 . S
N109 C110 1.355 . S
N109 C112 1.311 . S
C110 N109 1.355 . S
C110 C111 1.363 . S
C110 H122 0.929 . S
C111 C110 1.363 . S
C111 N113 1.375 . S
C111 H129 0.931 . S
C112 N109 1.311 . S
C112 N113 1.347 . S
C112 H123 0.929 . S
N113 C111 1.375 . S
N113 C112 1.347 . S
C114 C117 1.365 . S
C114 N119 1.328 . S
C114 H120 0.929 . S
C115 C116 1.362 . S
C115 C118 1.378 . S
C115 H130 0.929 . S
C116 C115 1.362 . S
C116 C117 1.366 . S
C117 C114 1.365 . S
C117 C116 1.366 . S
C117 H131 0.930 . S
C118 C115 1.378 . S
C118 N119 1.315 . S
C118 H121 0.930 . S
N119 Co99 2.194 . S
N119 C114 1.328 . S
N119 C118 1.315 . S
H120 C114 0.929 . S
H121 C118 0.930 . S
H122 C110 0.929 . S
H123 C112 0.929 . S
O124 Co99 2.351 . S
O124 C127 1.244 . S
O125 Co99 2.155 . S
O125 C127 1.240 . S
O126 Co99 2.096 . S
O126 C107 1.247 . S
C127 O124 1.244 . S
C127 O125 1.240 . S
H128 C102 0.931 . S
H129 C111 0.931 . S
H130 C115 0.929 . S
H131 C117 0.930 . S
Co132 N136 2.148 . S
Co132 N142 2.128 . S
Co132 N152 2.194 . S
Co132 O157 2.351 . S
Co132 O158 2.155 . S
Co132 O159 2.096 . S
C133 N136 1.301 . S
C133 N137 1.328 . S
C133 H138 0.930 . S
C134 C135 1.333 . S
C134 N136 1.317 . S
C134 H139 0.930 . S
C135 C134 1.333 . S
C135 N137 1.350 . S
C135 H161 0.931 . S
N136 Co132 2.148 . S
N136 C133 1.301 . S
N136 C134 1.317 . S
N137 C133 1.328 . S
N137 C135 1.350 . S
H138 C133 0.930 . S
H139 C134 0.930 . S
C140 O141 1.224 . S
C140 O159 1.247 . S
O141 C140 1.224 . S
N142 Co132 2.128 . S
N142 C143 1.355 . S
N142 C145 1.311 . S
C143 N142 1.355 . S
C143 C144 1.363 . S
C143 H155 0.929 . S
C144 C143 1.363 . S
C144 N146 1.375 . S
C144 H162 0.931 . S
C145 N142 1.311 . S
C145 N146 1.347 . S
C145 H156 0.929 . S
N146 C144 1.375 . S
N146 C145 1.347 . S
C147 C150 1.365 . S
C147 N152 1.328 . S
C147 H153 0.929 . S
C148 C149 1.362 . S
C148 C151 1.378 . S
C148 H163 0.929 . S
C149 C148 1.362 . S
C149 C150 1.366 . S
C150 C147 1.365 . S
C150 C149 1.366 . S
C150 H164 0.930 . S
C151 C148 1.378 . S
C151 N152 1.315 . S
C151 H154 0.930 . S
N152 Co132 2.194 . S
N152 C147 1.328 . S
N152 C151 1.315 . S
H153 C147 0.929 . S
H154 C151 0.930 . S
H155 C143 0.929 . S
H156 C145 0.929 . S
O157 Co132 2.351 . S
O157 C160 1.244 . S
O158 Co132 2.155 . S
O158 C160 1.240 . S
O159 Co132 2.096 . S
O159 C140 1.247 . S
C160 O157 1.244 . S
C160 O158 1.240 . S
H161 C135 0.931 . S
H162 C144 0.931 . S
H163 C148 0.929 . S
H164 C150 0.930 . S
Co165 N169 2.148 . S
Co165 N175 2.128 . S
Co165 N185 2.194 . S
Co165 O190 2.351 . S
Co165 O191 2.155 . S
Co165 O192 2.096 . S
C166 N169 1.301 . S
C166 N170 1.328 . S
C166 H171 0.930 . S
C167 C168 1.333 . S
C167 N169 1.317 . S
C167 H172 0.930 . S
C168 C167 1.333 . S
C168 N170 1.350 . S
C168 H194 0.931 . S
N169 Co165 2.148 . S
N169 C166 1.301 . S
N169 C167 1.317 . S
N170 C166 1.328 . S
N170 C168 1.350 . S
H171 C166 0.930 . S
H172 C167 0.930 . S
C173 O174 1.224 . S
C173 O192 1.247 . S
O174 C173 1.224 . S
N175 Co165 2.128 . S
N175 C176 1.355 . S
N175 C178 1.311 . S
C176 N175 1.355 . S
C176 C177 1.363 . S
C176 H188 0.929 . S
C177 C176 1.363 . S
C177 N179 1.375 . S
C177 H195 0.931 . S
C178 N175 1.311 . S
C178 N179 1.347 . S
C178 H189 0.929 . S
N179 C177 1.375 . S
N179 C178 1.347 . S
C180 C183 1.365 . S
C180 N185 1.328 . S
C180 H186 0.929 . S
C181 C182 1.362 . S
C181 C184 1.378 . S
C181 H196 0.929 . S
C182 C181 1.362 . S
C182 C183 1.366 . S
C183 C180 1.365 . S
C183 C182 1.366 . S
C183 H197 0.930 . S
C184 C181 1.378 . S
C184 N185 1.315 . S
C184 H187 0.930 . S
N185 Co165 2.194 . S
N185 C180 1.328 . S
N185 C184 1.315 . S
H186 C180 0.929 . S
H187 C184 0.930 . S
H188 C176 0.929 . S
H189 C178 0.929 . S
O190 Co165 2.351 . S
O190 C193 1.244 . S
O191 Co165 2.155 . S
O191 C193 1.240 . S
O192 Co165 2.096 . S
O192 C173 1.247 . S
C193 O190 1.244 . S
C193 O191 1.240 . S
H194 C168 0.931 . S
H195 C177 0.931 . S
H196 C181 0.929 . S
H197 C183 0.930 . S
Co198 N202 2.148 . S
Co198 N208 2.128 . S
Co198 N218 2.194 1_556 S
Co198 O223 2.351 . S
Co198 O224 2.155 . S
Co198 O225 2.096 1_556 S
C199 N202 1.301 . S
C199 N203 1.328 . S
C199 H204 0.930 . S
C200 C201 1.333 . S
C200 N202 1.317 1_554 S
C200 H205 0.930 . S
C201 C200 1.333 . S
C201 N203 1.350 1_554 S
C201 H227 0.931 . S
N202 Co198 2.148 . S
N202 C199 1.301 . S
N202 C200 1.317 1_556 S
N203 C199 1.328 . S
N203 C201 1.350 1_556 S
H204 C199 0.930 . S
H205 C200 0.930 . S
C206 O207 1.224 . S
C206 O225 1.247 . S
O207 C206 1.224 . S
N208 Co198 2.128 . S
N208 C209 1.355 . S
N208 C211 1.311 1_556 S
C209 N208 1.355 . S
C209 C210 1.363 . S
C209 H221 0.929 . S
C210 C209 1.363 . S
C210 N212 1.375 1_556 S
C210 H228 0.931 . S
C211 N208 1.311 1_554 S
C211 N212 1.347 . S
C211 H222 0.929 . S
N212 C210 1.375 1_554 S
N212 C211 1.347 . S
C213 C216 1.365 . S
C213 N218 1.328 1_556 S
C213 H219 0.929 . S
C214 C215 1.362 . S
C214 C217 1.378 . S
C214 H229 0.929 . S
C215 C214 1.362 . S
C215 C216 1.366 1_554 S
C216 C213 1.365 . S
C216 C215 1.366 1_556 S
C216 H230 0.930 . S
C217 C214 1.378 . S
C217 N218 1.315 . S
C217 H220 0.930 . S
N218 Co198 2.194 1_554 S
N218 C213 1.328 1_554 S
N218 C217 1.315 . S
H219 C213 0.929 . S
H220 C217 0.930 . S
H221 C209 0.929 . S
H222 C211 0.929 . S
O223 Co198 2.351 . S
O223 C226 1.244 . S
O224 Co198 2.155 . S
O224 C226 1.240 . S
O225 Co198 2.096 1_554 S
O225 C206 1.247 . S
C226 O223 1.244 . S
C226 O224 1.240 . S
H227 C201 0.931 . S
H228 C210 0.931 . S
H229 C214 0.929 . S
H230 C216 0.930 . S
Co231 N235 2.148 . S
Co231 N241 2.128 . S
Co231 N251 2.194 . S
Co231 O256 2.351 . S
Co231 O257 2.155 . S
Co231 O258 2.096 . S
C232 N235 1.301 . S
C232 N236 1.328 . S
C232 H237 0.930 . S
C233 C234 1.333 . S
C233 N235 1.317 . S
C233 H238 0.930 . S
C234 C233 1.333 . S
C234 N236 1.350 . S
C234 H260 0.931 . S
N235 Co231 2.148 . S
N235 C232 1.301 . S
N235 C233 1.317 . S
N236 C232 1.328 . S
N236 C234 1.350 . S
H237 C232 0.930 . S
H238 C233 0.930 . S
C239 O240 1.224 . S
C239 O258 1.247 . S
O240 C239 1.224 . S
N241 Co231 2.128 . S
N241 C242 1.355 . S
N241 C244 1.311 . S
C242 N241 1.355 . S
C242 C243 1.363 . S
C242 H254 0.929 . S
C243 C242 1.363 . S
C243 N245 1.375 . S
C243 H261 0.931 . S
C244 N241 1.311 . S
C244 N245 1.347 . S
C244 H255 0.929 . S
N245 C243 1.375 . S
N245 C244 1.347 . S
C246 C249 1.365 . S
C246 N251 1.328 . S
C246 H252 0.929 . S
C247 C248 1.362 . S
C247 C250 1.378 . S
C247 H262 0.929 . S
C248 C247 1.362 . S
C248 C249 1.366 . S
C249 C246 1.365 . S
C249 C248 1.366 . S
C249 H263 0.930 . S
C250 C247 1.378 . S
C250 N251 1.315 . S
C250 H253 0.930 . S
N251 Co231 2.194 . S
N251 C246 1.328 . S
N251 C250 1.315 . S
H252 C246 0.929 . S
H253 C250 0.930 . S
H254 C242 0.929 . S
H255 C244 0.929 . S
O256 Co231 2.351 . S
O256 C259 1.244 . S
O257 Co231 2.155 . S
O257 C259 1.240 . S
O258 Co231 2.096 . S
O258 C239 1.247 . S
C259 O256 1.244 . S
C259 O257 1.240 . S
H260 C234 0.931 . S
H261 C243 0.931 . S
H262 C247 0.929 . S
H263 C249 0.930 . S
Co264 N268 2.148 . S
Co264 N274 2.128 . S
Co264 N284 2.194 . S
Co264 O289 2.351 . S
Co264 O290 2.155 . S
Co264 O291 2.096 . S
C265 N268 1.301 . S
C265 N269 1.328 . S
C265 H270 0.930 . S
C266 C267 1.333 . S
C266 N268 1.317 . S
C266 H271 0.930 . S
C267 C266 1.333 . S
C267 N269 1.350 . S
C267 H293 0.931 . S
N268 Co264 2.148 . S
N268 C265 1.301 . S
N268 C266 1.317 . S
N269 C265 1.328 . S
N269 C267 1.350 . S
H270 C265 0.930 . S
H271 C266 0.930 . S
C272 O273 1.224 . S
C272 O291 1.247 . S
O273 C272 1.224 . S
N274 Co264 2.128 . S
N274 C275 1.355 . S
N274 C277 1.311 . S
C275 N274 1.355 . S
C275 C276 1.363 . S
C275 H287 0.929 . S
C276 C275 1.363 . S
C276 N278 1.375 . S
C276 H294 0.931 . S
C277 N274 1.311 . S
C277 N278 1.347 . S
C277 H288 0.929 . S
N278 C276 1.375 . S
N278 C277 1.347 . S
C279 C282 1.365 . S
C279 N284 1.328 . S
C279 H285 0.929 . S
C280 C281 1.362 . S
C280 C283 1.378 . S
C280 H295 0.929 . S
C281 C280 1.362 . S
C281 C282 1.366 . S
C282 C279 1.365 . S
C282 C281 1.366 . S
C282 H296 0.930 . S
C283 C280 1.378 . S
C283 N284 1.315 . S
C283 H286 0.930 . S
N284 Co264 2.194 . S
N284 C279 1.328 . S
N284 C283 1.315 . S
H285 C279 0.929 . S
H286 C283 0.930 . S
H287 C275 0.929 . S
H288 C277 0.929 . S
O289 Co264 2.351 . S
O289 C292 1.244 . S
O290 Co264 2.155 . S
O290 C292 1.240 . S
O291 Co264 2.096 . S
O291 C272 1.247 . S
C292 O289 1.244 . S
C292 O290 1.240 . S
H293 C267 0.931 . S
H294 C276 0.931 . S
H295 C280 0.929 . S
H296 C282 0.930 . S
Co297 N301 2.148 . S
Co297 N307 2.128 . S
Co297 N317 2.194 . S
Co297 O322 2.351 . S
Co297 O323 2.155 . S
Co297 O324 2.096 . S
C298 N301 1.301 . S
C298 N302 1.328 . S
C298 H303 0.930 . S
C299 C300 1.333 . S
C299 N301 1.317 . S
C299 H304 0.930 . S
C300 C299 1.333 . S
C300 N302 1.350 . S
C300 H326 0.931 . S
N301 Co297 2.148 . S
N301 C298 1.301 . S
N301 C299 1.317 . S
N302 C298 1.328 . S
N302 C300 1.350 . S
H303 C298 0.930 . S
H304 C299 0.930 . S
C305 O306 1.224 . S
C305 O324 1.247 . S
O306 C305 1.224 . S
N307 Co297 2.128 . S
N307 C308 1.355 . S
N307 C310 1.311 . S
C308 N307 1.355 . S
C308 C309 1.363 . S
C308 H320 0.929 . S
C309 C308 1.363 . S
C309 N311 1.375 . S
C309 H327 0.931 . S
C310 N307 1.311 . S
C310 N311 1.347 . S
C310 H321 0.929 . S
N311 C309 1.375 . S
N311 C310 1.347 . S
C312 C315 1.365 . S
C312 N317 1.328 . S
C312 H318 0.929 . S
C313 C314 1.362 . S
C313 C316 1.378 . S
C313 H328 0.929 . S
C314 C313 1.362 . S
C314 C315 1.366 . S
C315 C312 1.365 . S
C315 C314 1.366 . S
C315 H329 0.930 . S
C316 C313 1.378 . S
C316 N317 1.315 . S
C316 H319 0.930 . S
N317 Co297 2.194 . S
N317 C312 1.328 . S
N317 C316 1.315 . S
H318 C312 0.929 . S
H319 C316 0.930 . S
H320 C308 0.929 . S
H321 C310 0.929 . S
O322 Co297 2.351 . S
O322 C325 1.244 . S
O323 Co297 2.155 . S
O323 C325 1.240 . S
O324 Co297 2.096 . S
O324 C305 1.247 . S
C325 O322 1.244 . S
C325 O323 1.240 . S
H326 C300 0.931 . S
H327 C309 0.931 . S
H328 C313 0.929 . S
H329 C315 0.930 . S
Co330 N334 2.148 . S
Co330 N340 2.128 . S
Co330 N350 2.194 1_556 S
Co330 O355 2.351 . S
Co330 O356 2.155 . S
Co330 O357 2.096 1_556 S
C331 N334 1.301 . S
C331 N335 1.328 . S
C331 H336 0.930 . S
C332 C333 1.333 . S
C332 N334 1.317 1_554 S
C332 H337 0.930 . S
C333 C332 1.333 . S
C333 N335 1.350 1_554 S
C333 H359 0.931 . S
N334 Co330 2.148 . S
N334 C331 1.301 . S
N334 C332 1.317 1_556 S
N335 C331 1.328 . S
N335 C333 1.350 1_556 S
H336 C331 0.930 . S
H337 C332 0.930 . S
C338 O339 1.224 . S
C338 O357 1.247 . S
O339 C338 1.224 . S
N340 Co330 2.128 . S
N340 C341 1.355 . S
N340 C343 1.311 1_556 S
C341 N340 1.355 . S
C341 C342 1.363 . S
C341 H353 0.929 . S
C342 C341 1.363 . S
C342 N344 1.375 1_556 S
C342 H360 0.931 . S
C343 N340 1.311 1_554 S
C343 N344 1.347 . S
C343 H354 0.929 . S
N344 C342 1.375 1_554 S
N344 C343 1.347 . S
C345 C348 1.365 . S
C345 N350 1.328 1_556 S
C345 H351 0.929 . S
C346 C347 1.362 . S
C346 C349 1.378 . S
C346 H361 0.929 . S
C347 C346 1.362 . S
C347 C348 1.366 1_554 S
C348 C345 1.365 . S
C348 C347 1.366 1_556 S
C348 H362 0.930 . S
C349 C346 1.378 . S
C349 N350 1.315 . S
C349 H352 0.930 . S
N350 Co330 2.194 1_554 S
N350 C345 1.328 1_554 S
N350 C349 1.315 . S
H351 C345 0.929 . S
H352 C349 0.930 . S
H353 C341 0.929 . S
H354 C343 0.929 . S
O355 Co330 2.351 . S
O355 C358 1.244 . S
O356 Co330 2.155 . S
O356 C358 1.240 . S
O357 Co330 2.096 1_554 S
O357 C338 1.247 . S
C358 O355 1.244 . S
C358 O356 1.240 . S
H359 C333 0.931 . S
H360 C342 0.931 . S
H361 C346 0.929 . S
H362 C348 0.930 . S
Co363 N367 2.148 . S
Co363 N373 2.128 . S
Co363 N383 2.194 . S
Co363 O388 2.351 . S
Co363 O389 2.155 . S
Co363 O390 2.096 . S
C364 N367 1.301 . S
C364 N368 1.328 . S
C364 H369 0.930 . S
C365 C366 1.333 . S
C365 N367 1.317 . S
C365 H370 0.930 . S
C366 C365 1.333 . S
C366 N368 1.350 . S
C366 H392 0.931 . S
N367 Co363 2.148 . S
N367 C364 1.301 . S
N367 C365 1.317 . S
N368 C364 1.328 . S
N368 C366 1.350 . S
H369 C364 0.930 . S
H370 C365 0.930 . S
C371 O372 1.224 . S
C371 O390 1.247 . S
O372 C371 1.224 . S
N373 Co363 2.128 . S
N373 C374 1.355 . S
N373 C376 1.311 . S
C374 N373 1.355 . S
C374 C375 1.363 . S
C374 H386 0.929 . S
C375 C374 1.363 . S
C375 N377 1.375 . S
C375 H393 0.931 . S
C376 N373 1.311 . S
C376 N377 1.347 . S
C376 H387 0.929 . S
N377 C375 1.375 . S
N377 C376 1.347 . S
C378 C381 1.365 . S
C378 N383 1.328 . S
C378 H384 0.929 . S
C379 C380 1.362 . S
C379 C382 1.378 . S
C379 H394 0.929 . S
C380 C379 1.362 . S
C380 C381 1.366 . S
C381 C378 1.365 . S
C381 C380 1.366 . S
C381 H395 0.930 . S
C382 C379 1.378 . S
C382 N383 1.315 . S
C382 H385 0.930 . S
N383 Co363 2.194 . S
N383 C378 1.328 . S
N383 C382 1.315 . S
H384 C378 0.929 . S
H385 C382 0.930 . S
H386 C374 0.929 . S
H387 C376 0.929 . S
O388 Co363 2.351 . S
O388 C391 1.244 . S
O389 Co363 2.155 . S
O389 C391 1.240 . S
O390 Co363 2.096 . S
O390 C371 1.247 . S
C391 O388 1.244 . S
C391 O389 1.240 . S
H392 C366 0.931 . S
H393 C375 0.931 . S
H394 C379 0.929 . S
H395 C381 0.930 . S
Co396 N400 2.148 . S
Co396 N406 2.128 . S
Co396 N416 2.194 1_556 S
Co396 O421 2.351 . S
Co396 O422 2.155 . S
Co396 O423 2.096 1_556 S
C397 N400 1.301 . S
C397 N401 1.328 . S
C397 H402 0.930 . S
C398 C399 1.333 . S
C398 N400 1.317 1_554 S
C398 H403 0.930 . S
C399 C398 1.333 . S
C399 N401 1.350 1_554 S
C399 H425 0.931 . S
N400 Co396 2.148 . S
N400 C397 1.301 . S
N400 C398 1.317 1_556 S
N401 C397 1.328 . S
N401 C399 1.350 1_556 S
H402 C397 0.930 . S
H403 C398 0.930 . S
C404 O405 1.224 . S
C404 O423 1.247 . S
O405 C404 1.224 . S
N406 Co396 2.128 . S
N406 C407 1.355 . S
N406 C409 1.311 1_556 S
C407 N406 1.355 . S
C407 C408 1.363 . S
C407 H419 0.929 . S
C408 C407 1.363 . S
C408 N410 1.375 1_556 S
C408 H426 0.931 . S
C409 N406 1.311 1_554 S
C409 N410 1.347 . S
C409 H420 0.929 . S
N410 C408 1.375 1_554 S
N410 C409 1.347 . S
C411 C414 1.365 . S
C411 N416 1.328 1_556 S
C411 H417 0.929 . S
C412 C413 1.362 . S
C412 C415 1.378 . S
C412 H427 0.929 . S
C413 C412 1.362 . S
C413 C414 1.366 1_554 S
C414 C411 1.365 . S
C414 C413 1.366 1_556 S
C414 H428 0.930 . S
C415 C412 1.378 . S
C415 N416 1.315 . S
C415 H418 0.930 . S
N416 Co396 2.194 1_554 S
N416 C411 1.328 1_554 S
N416 C415 1.315 . S
H417 C411 0.929 . S
H418 C415 0.930 . S
H419 C407 0.929 . S
H420 C409 0.929 . S
O421 Co396 2.351 . S
O421 C424 1.244 . S
O422 Co396 2.155 . S
O422 C424 1.240 . S
O423 Co396 2.096 1_554 S
O423 C404 1.247 . S
C424 O421 1.244 . S
C424 O422 1.240 . S
H425 C399 0.931 . S
H426 C408 0.931 . S
H427 C412 0.929 . S
H428 C414 0.930 . S
Co429 N433 2.148 . S
Co429 N439 2.128 . S
Co429 N449 2.194 . S
Co429 O454 2.351 . S
Co429 O455 2.155 . S
Co429 O456 2.096 . S
C430 N433 1.301 . S
C430 N434 1.328 . S
C430 H435 0.930 . S
C431 C432 1.333 . S
C431 N433 1.317 . S
C431 H436 0.930 . S
C432 C431 1.333 . S
C432 N434 1.350 . S
C432 H458 0.931 . S
N433 Co429 2.148 . S
N433 C430 1.301 . S
N433 C431 1.317 . S
N434 C430 1.328 . S
N434 C432 1.350 . S
H435 C430 0.930 . S
H436 C431 0.930 . S
C437 O438 1.224 . S
C437 O456 1.247 . S
O438 C437 1.224 . S
N439 Co429 2.128 . S
N439 C440 1.355 . S
N439 C442 1.311 . S
C440 N439 1.355 . S
C440 C441 1.363 . S
C440 H452 0.929 . S
C441 C440 1.363 . S
C441 N443 1.375 . S
C441 H459 0.931 . S
C442 N439 1.311 . S
C442 N443 1.347 . S
C442 H453 0.929 . S
N443 C441 1.375 . S
N443 C442 1.347 . S
C444 C447 1.365 . S
C444 N449 1.328 . S
C444 H450 0.929 . S
C445 C446 1.362 . S
C445 C448 1.378 . S
C445 H460 0.929 . S
C446 C445 1.362 . S
C446 C447 1.366 . S
C447 C444 1.365 . S
C447 C446 1.366 . S
C447 H461 0.930 . S
C448 C445 1.378 . S
C448 N449 1.315 . S
C448 H451 0.930 . S
N449 Co429 2.194 . S
N449 C444 1.328 . S
N449 C448 1.315 . S
H450 C444 0.929 . S
H451 C448 0.930 . S
H452 C440 0.929 . S
H453 C442 0.929 . S
O454 Co429 2.351 . S
O454 C457 1.244 . S
O455 Co429 2.155 . S
O455 C457 1.240 . S
O456 Co429 2.096 . S
O456 C437 1.247 . S
C457 O454 1.244 . S
C457 O455 1.240 . S
H458 C432 0.931 . S
H459 C441 0.931 . S
H460 C445 0.929 . S
H461 C447 0.930 . S
Co462 N466 2.148 . S
Co462 N472 2.128 . S
Co462 N482 2.194 . S
Co462 O487 2.351 . S
Co462 O488 2.155 . S
Co462 O489 2.096 . S
C463 N466 1.301 . S
C463 N467 1.328 . S
C463 H468 0.930 . S
C464 C465 1.333 . S
C464 N466 1.317 . S
C464 H469 0.930 . S
C465 C464 1.333 . S
C465 N467 1.350 . S
C465 H491 0.931 . S
N466 Co462 2.148 . S
N466 C463 1.301 . S
N466 C464 1.317 . S
N467 C463 1.328 . S
N467 C465 1.350 . S
H468 C463 0.930 . S
H469 C464 0.930 . S
C470 O471 1.224 . S
C470 O489 1.247 . S
O471 C470 1.224 . S
N472 Co462 2.128 . S
N472 C473 1.355 . S
N472 C475 1.311 . S
C473 N472 1.355 . S
C473 C474 1.363 . S
C473 H485 0.929 . S
C474 C473 1.363 . S
C474 N476 1.375 . S
C474 H492 0.931 . S
C475 N472 1.311 . S
C475 N476 1.347 . S
C475 H486 0.929 . S
N476 C474 1.375 . S
N476 C475 1.347 . S
C477 C480 1.365 . S
C477 N482 1.328 . S
C477 H483 0.929 . S
C478 C479 1.362 . S
C478 C481 1.378 . S
C478 H493 0.929 . S
C479 C478 1.362 . S
C479 C480 1.366 . S
C480 C477 1.365 . S
C480 C479 1.366 . S
C480 H494 0.930 . S
C481 C478 1.378 . S
C481 N482 1.315 . S
C481 H484 0.930 . S
N482 Co462 2.194 . S
N482 C477 1.328 . S
N482 C481 1.315 . S
H483 C477 0.929 . S
H484 C481 0.930 . S
H485 C473 0.929 . S
H486 C475 0.929 . S
O487 Co462 2.351 . S
O487 C490 1.244 . S
O488 Co462 2.155 . S
O488 C490 1.240 . S
O489 Co462 2.096 . S
O489 C470 1.247 . S
C490 O487 1.244 . S
C490 O488 1.240 . S
H491 C465 0.931 . S
H492 C474 0.931 . S
H493 C478 0.929 . S
H494 C480 0.930 . S
Co495 N499 2.148 . S
Co495 N505 2.128 . S
Co495 N515 2.194 . S
Co495 O520 2.351 . S
Co495 O521 2.155 . S
Co495 O522 2.096 . S
C496 N499 1.301 . S
C496 N500 1.328 . S
C496 H501 0.930 . S
C497 C498 1.333 . S
C497 N499 1.317 . S
C497 H502 0.930 . S
C498 C497 1.333 . S
C498 N500 1.350 . S
C498 H524 0.931 . S
N499 Co495 2.148 . S
N499 C496 1.301 . S
N499 C497 1.317 . S
N500 C496 1.328 . S
N500 C498 1.350 . S
H501 C496 0.930 . S
H502 C497 0.930 . S
C503 O504 1.224 . S
C503 O522 1.247 . S
O504 C503 1.224 . S
N505 Co495 2.128 . S
N505 C506 1.355 . S
N505 C508 1.311 . S
C506 N505 1.355 . S
C506 C507 1.363 . S
C506 H518 0.929 . S
C507 C506 1.363 . S
C507 N509 1.375 . S
C507 H525 0.931 . S
C508 N505 1.311 . S
C508 N509 1.347 . S
C508 H519 0.929 . S
N509 C507 1.375 . S
N509 C508 1.347 . S
C510 C513 1.365 . S
C510 N515 1.328 . S
C510 H516 0.929 . S
C511 C512 1.362 . S
C511 C514 1.378 . S
C511 H526 0.929 . S
C512 C511 1.362 . S
C512 C513 1.366 . S
C513 C510 1.365 . S
C513 C512 1.366 . S
C513 H527 0.930 . S
C514 C511 1.378 . S
C514 N515 1.315 . S
C514 H517 0.930 . S
N515 Co495 2.194 . S
N515 C510 1.328 . S
N515 C514 1.315 . S
H516 C510 0.929 . S
H517 C514 0.930 . S
H518 C506 0.929 . S
H519 C508 0.929 . S
O520 Co495 2.351 . S
O520 C523 1.244 . S
O521 Co495 2.155 . S
O521 C523 1.240 . S
O522 Co495 2.096 . S
O522 C503 1.247 . S
C523 O520 1.244 . S
C523 O521 1.240 . S
H524 C498 0.931 . S
H525 C507 0.931 . S
H526 C511 0.929 . S
H527 C513 0.930 . S
C528 C529 1.363 1_556 S
C528 C534 1.379 1_655 S
C528 N536 1.356 . S
C529 C528 1.363 1_554 S
C529 C535 1.363 1_565 S
C530 C531 1.363 . S
C530 C535 1.379 1_455 S
C530 N537 1.356 . S
C531 C530 1.363 . S
C531 C534 1.363 1_544 S
N532 C534 1.356 . S
N532 H544 0.984 . S
N532 H545 0.985 1_565 S
N533 C535 1.356 . S
N533 H538 0.984 1_545 S
N533 H539 0.985 . S
C534 C528 1.379 1_455 S
C534 C531 1.363 1_566 S
C534 N532 1.356 . S
C535 C529 1.363 1_545 S
C535 C530 1.379 1_655 S
C535 N533 1.356 . S
N536 C528 1.356 . S
N536 H542 0.984 . S
N536 H543 0.984 . S
N537 C530 1.356 . S
N537 H540 0.984 . S
N537 H541 0.985 . S
H538 N533 0.984 1_565 S
H539 N533 0.985 . S
H540 N537 0.984 . S
H541 N537 0.985 . S
H542 N536 0.984 . S
H543 N536 0.984 . S
H544 N532 0.984 . S
H545 N532 0.985 1_545 S
C546 C547 1.363 1_455 S
C546 C552 1.379 . S
C546 N554 1.356 . S
C547 C546 1.363 1_655 S
C547 C553 1.363 . S
C548 C549 1.363 1_655 S
C548 C553 1.379 . S
C548 N555 1.356 . S
C549 C548 1.363 1_455 S
C549 C552 1.363 . S
N550 C552 1.356 . S
N550 H562 0.984 . S
N550 H563 0.985 . S
N551 C553 1.356 . S
N551 H556 0.984 . S
N551 H557 0.985 . S
C552 C546 1.379 . S
C552 C549 1.363 . S
C552 N550 1.356 . S
C553 C547 1.363 . S
C553 C548 1.379 . S
C553 N551 1.356 . S
N554 C546 1.356 . S
N554 H560 0.984 . S
N554 H561 0.984 1_455 S
N555 C548 1.356 . S
N555 H558 0.984 1_655 S
N555 H559 0.985 . S
H556 N551 0.984 . S
H557 N551 0.985 . S
H558 N555 0.984 1_455 S
H559 N555 0.985 . S
H560 N554 0.984 . S
H561 N554 0.984 1_655 S
H562 N550 0.984 . S
H563 N550 0.985 . S
C564 C565 1.363 . S
C564 C570 1.379 . S
C564 N572 1.356 . S
C565 C564 1.363 . S
C565 C571 1.363 . S
C566 C567 1.363 . S
C566 C571 1.379 . S
C566 N573 1.356 . S
C567 C566 1.363 . S
C567 C570 1.363 . S
N568 C570 1.356 . S
N568 H580 0.984 . S
N568 H581 0.985 . S
N569 C571 1.356 . S
N569 H574 0.984 . S
N569 H575 0.985 . S
C570 C564 1.379 . S
C570 C567 1.363 . S
C570 N568 1.356 . S
C571 C565 1.363 . S
C571 C566 1.379 . S
C571 N569 1.356 . S
N572 C564 1.356 . S
N572 H578 0.984 . S
N572 H579 0.984 . S
N573 C566 1.356 . S
N573 H576 0.984 . S
N573 H577 0.985 . S
H574 N569 0.984 . S
H575 N569 0.985 . S
H576 N573 0.984 . S
H577 N573 0.985 . S
H578 N572 0.984 . S
H579 N572 0.984 . S
H580 N568 0.984 . S
H581 N568 0.985 . S
C582 C583 1.363 . S
C582 C588 1.379 1_565 S
C582 N590 1.356 . S
C583 C582 1.363 . S
C583 C589 1.363 . S
C584 C585 1.363 . S
C584 C589 1.379 1_545 S
C584 N591 1.356 . S
C585 C584 1.363 . S
C585 C588 1.363 . S
N586 C588 1.356 . S
N586 H598 0.984 . S
N586 H599 0.985 . S
N587 C589 1.356 . S
N587 H592 0.984 . S
N587 H593 0.985 . S
C588 C582 1.379 1_545 S
C588 C585 1.363 . S
C588 N586 1.356 . S
C589 C583 1.363 . S
C589 C584 1.379 1_565 S
C589 N587 1.356 . S
N590 C582 1.356 . S
N590 H596 0.984 . S
N590 H597 0.984 . S
N591 C584 1.356 . S
N591 H594 0.984 . S
N591 H595 0.985 . S
H592 N587 0.984 . S
H593 N587 0.985 . S
H594 N591 0.984 . S
H595 N591 0.985 . S
H596 N590 0.984 . S
H597 N590 0.984 . S
H598 N586 0.984 . S
H599 N586 0.985 . S
C600 C601 1.363 1_545 S
C600 C606 1.379 1_455 S
C600 N608 1.356 . S
C601 C600 1.363 1_565 S
C601 C607 1.363 . S
C602 C603 1.363 1_565 S
C602 C607 1.379 1_655 S
C602 N609 1.356 . S
C603 C602 1.363 1_545 S
C603 C606 1.363 . S
N604 C606 1.356 . S
N604 H616 0.984 . S
N604 H617 0.985 . S
N605 C607 1.356 . S
N605 H610 0.984 . S
N605 H611 0.985 . S
C606 C600 1.379 1_655 S
C606 C603 1.363 . S
C606 N604 1.356 . S
C607 C601 1.363 . S
C607 C602 1.379 1_455 S
C607 N605 1.356 . S
N608 C600 1.356 . S
N608 H614 0.984 . S
N608 H615 0.984 1_545 S
N609 C602 1.356 . S
N609 H612 0.984 1_565 S
N609 H613 0.985 . S
H610 N605 0.984 . S
H611 N605 0.985 . S
H612 N609 0.984 1_545 S
H613 N609 0.985 . S
H614 N608 0.984 . S
H615 N608 0.984 1_565 S
H616 N604 0.984 . S
H617 N604 0.985 . S
C618 C619 1.363 1_455 S
C618 C624 1.379 . S
C618 N626 1.356 . S
C619 C618 1.363 1_655 S
C619 C625 1.363 . S
C620 C621 1.363 1_655 S
C620 C625 1.379 . S
C620 N627 1.356 . S
C621 C620 1.363 1_455 S
C621 C624 1.363 . S
N622 C624 1.356 . S
N622 H634 0.984 . S
N622 H635 0.985 . S
N623 C625 1.356 . S
N623 H628 0.984 . S
N623 H629 0.985 . S
C624 C618 1.379 . S
C624 C621 1.363 . S
C624 N622 1.356 . S
C625 C619 1.363 . S
C625 C620 1.379 . S
C625 N623 1.356 . S
N626 C618 1.356 . S
N626 H632 0.984 . S
N626 H633 0.984 1_455 S
N627 C620 1.356 . S
N627 H630 0.984 1_655 S
N627 H631 0.985 . S
H628 N623 0.984 . S
H629 N623 0.985 . S
H630 N627 0.984 1_455 S
H631 N627 0.985 . S
H632 N626 0.984 . S
H633 N626 0.984 1_655 S
H634 N622 0.984 . S
H635 N622 0.985 . S
C636 C637 1.363 1_556 S
C636 C642 1.379 . S
C636 N644 1.356 . S
C637 C636 1.363 1_554 S
C637 C643 1.363 . S
C638 C639 1.363 . S
C638 C643 1.379 . S
C638 N645 1.356 . S
C639 C638 1.363 . S
C639 C642 1.363 1_554 S
N640 C642 1.356 . S
N640 H652 0.984 . S
N640 H653 0.985 . S
N641 C643 1.356 . S
N641 H646 0.984 . S
N641 H647 0.985 . S
C642 C636 1.379 . S
C642 C639 1.363 1_556 S
C642 N640 1.356 . S
C643 C637 1.363 . S
C643 C638 1.379 . S
C643 N641 1.356 . S
N644 C636 1.356 . S
N644 H650 0.984 . S
N644 H651 0.984 . S
N645 C638 1.356 . S
N645 H648 0.984 . S
N645 H649 0.985 . S
H646 N641 0.984 . S
H647 N641 0.985 . S
H648 N645 0.984 . S
H649 N645 0.985 . S
H650 N644 0.984 . S
H651 N644 0.984 . S
H652 N640 0.984 . S
H653 N640 0.985 . S
C654 C655 1.363 . S
C654 C660 1.379 1_565 S
C654 N662 1.356 . S
C655 C654 1.363 . S
C655 C661 1.363 . S
C656 C657 1.363 . S
C656 C661 1.379 1_545 S
C656 N663 1.356 . S
C657 C656 1.363 . S
C657 C660 1.363 . S
N658 C660 1.356 . S
N658 H670 0.984 . S
N658 H671 0.985 . S
N659 C661 1.356 . S
N659 H664 0.984 . S
N659 H665 0.985 . S
C660 C654 1.379 1_545 S
C660 C657 1.363 . S
C660 N658 1.356 . S
C661 C655 1.363 . S
C661 C656 1.379 1_565 S
C661 N659 1.356 . S
N662 C654 1.356 . S
N662 H668 0.984 . S
N662 H669 0.984 . S
N663 C656 1.356 . S
N663 H666 0.984 . S
N663 H667 0.985 . S
H664 N659 0.984 . S
H665 N659 0.985 . S
H666 N663 0.984 . S
H667 N663 0.985 . S
H668 N662 0.984 . S
H669 N662 0.984 . S
H670 N658 0.984 . S
H671 N658 0.985 . S
C672 C673 1.363 . S
C672 C678 1.379 . S
C672 N680 1.356 . S
C673 C672 1.363 . S
C673 C679 1.363 . S
C674 C675 1.363 . S
C674 C679 1.379 1_545 S
C674 N681 1.356 . S
C675 C674 1.363 . S
C675 C678 1.363 1_545 S
N676 C678 1.356 . S
N676 H688 0.984 . S
N676 H689 0.985 1_565 S
N677 C679 1.356 . S
N677 H682 0.984 . S
N677 H683 0.985 1_565 S
C678 C672 1.379 . S
C678 C675 1.363 1_565 S
C678 N676 1.356 . S
C679 C673 1.363 . S
C679 C674 1.379 1_565 S
C679 N677 1.356 . S
N680 C672 1.356 . S
N680 H686 0.984 . S
N680 H687 0.984 . S
N681 C674 1.356 . S
N681 H684 0.984 . S
N681 H685 0.985 . S
H682 N677 0.984 . S
H683 N677 0.985 1_545 S
H684 N681 0.984 . S
H685 N681 0.985 . S
H686 N680 0.984 . S
H687 N680 0.984 . S
H688 N676 0.984 . S
H689 N676 0.985 1_545 S
C690 C691 1.363 . S
C690 C696 1.379 1_455 S
C690 N698 1.356 . S
C691 C690 1.363 . S
C691 C697 1.363 . S
C692 C693 1.363 1_455 S
C692 C697 1.379 . S
C692 N699 1.356 . S
C693 C692 1.363 1_655 S
C693 C696 1.363 . S
N694 C696 1.356 . S
N694 H706 0.984 . S
N694 H707 0.985 . S
N695 C697 1.356 . S
N695 H700 0.984 . S
N695 H701 0.985 . S
C696 C690 1.379 1_655 S
C696 C693 1.363 . S
C696 N694 1.356 . S
C697 C691 1.363 . S
C697 C692 1.379 . S
C697 N695 1.356 . S
N698 C690 1.356 . S
N698 H704 0.984 1_455 S
N698 H705 0.984 . S
N699 C692 1.356 . S
N699 H702 0.984 1_455 S
N699 H703 0.985 . S
H700 N695 0.984 . S
H701 N695 0.985 . S
H702 N699 0.984 1_655 S
H703 N699 0.985 . S
H704 N698 0.984 1_655 S
H705 N698 0.984 . S
H706 N694 0.984 . S
H707 N694 0.985 . S
C708 C709 1.363 . S
C708 C714 1.379 . S
C708 N716 1.356 . S
C709 C708 1.363 . S
C709 C715 1.363 . S
C710 C711 1.363 . S
C710 C715 1.379 . S
C710 N717 1.356 . S
C711 C710 1.363 . S
C711 C714 1.363 . S
N712 C714 1.356 . S
N712 H724 0.984 . S
N712 H725 0.985 . S
N713 C715 1.356 . S
N713 H718 0.984 . S
N713 H719 0.985 . S
C714 C708 1.379 . S
C714 C711 1.363 . S
C714 N712 1.356 . S
C715 C709 1.363 . S
C715 C710 1.379 . S
C715 N713 1.356 . S
N716 C708 1.356 . S
N716 H722 0.984 . S
N716 H723 0.984 . S
N717 C710 1.356 . S
N717 H720 0.984 . S
N717 H721 0.985 . S
H718 N713 0.984 . S
H719 N713 0.985 . S
H720 N717 0.984 . S
H721 N717 0.985 . S
H722 N716 0.984 . S
H723 N716 0.984 . S
H724 N712 0.984 . S
H725 N712 0.985 . S
C726 C727 1.363 . S
C726 C732 1.379 1_554 S
C726 N734 1.356 . S
C727 C726 1.363 . S
C727 C733 1.363 1_554 S
C728 C729 1.363 . S
C728 C733 1.379 . S
C728 N735 1.356 . S
C729 C728 1.363 . S
C729 C732 1.363 . S
N730 C732 1.356 . S
N730 H742 0.977 1_556 S
N730 H743 0.985 . S
N731 C733 1.356 1_554 S
N731 H736 0.984 . S
N731 H737 0.985 1_554 S
C732 C726 1.379 1_556 S
C732 C729 1.363 . S
C732 N730 1.356 . S
C733 C727 1.363 1_556 S
C733 C728 1.379 . S
C733 N731 1.356 1_556 S
N734 C726 1.356 . S
N734 H740 0.984 . S
N734 H741 0.984 . S
N735 C728 1.356 . S
N735 H738 0.984 . S
N735 H739 0.985 . S
H736 N731 0.984 . S
H737 N731 0.985 1_556 S
H738 N735 0.984 . S
H739 N735 0.985 . S
H740 N734 0.984 . S
H741 N734 0.984 . S
H742 N730 0.977 1_554 S
H743 N730 0.985 . S
C744 C745 1.363 1_565 S
C744 C750 1.379 . S
C744 N752 1.356 . S
C745 C744 1.363 1_545 S
C745 C751 1.363 . S
C746 C747 1.363 . S
C746 C751 1.379 1_565 S
C746 N753 1.356 . S
C747 C746 1.363 . S
C747 C750 1.363 . S
N748 C750 1.356 . S
N748 H760 0.984 . S
N748 H761 0.985 . S
N749 C751 1.356 . S
N749 H754 0.984 . S
N749 H755 0.985 . S
C750 C744 1.379 . S
C750 C747 1.363 . S
C750 N748 1.356 . S
C751 C745 1.363 . S
C751 C746 1.379 1_545 S
C751 N749 1.356 . S
N752 C744 1.356 . S
N752 H758 0.984 . S
N752 H759 0.984 1_565 S
N753 C746 1.356 . S
N753 H756 0.984 . S
N753 H757 0.985 1_565 S
H754 N749 0.984 . S
H755 N749 0.985 . S
H756 N753 0.984 . S
H757 N753 0.985 1_545 S
H758 N752 0.984 . S
H759 N752 0.984 1_545 S
H760 N748 0.984 . S
H761 N748 0.985 . S
C762 C763 1.363 1_455 S
C762 C768 1.379 . S
C762 N770 1.356 . S
C763 C762 1.363 1_655 S
C763 C769 1.363 . S
C764 C765 1.363 . S
C764 C769 1.379 1_454 S
C764 N771 1.356 . S
C765 C764 1.363 . S
C765 C768 1.363 1_554 S
N766 C768 1.356 1_554 S
N766 H778 0.984 1_554 S
N766 H779 0.985 . S
N767 C769 1.356 . S
N767 H772 0.984 . S
N767 H773 0.985 . S
C768 C762 1.379 . S
C768 C765 1.363 1_556 S
C768 N766 1.356 1_556 S
C769 C763 1.363 . S
C769 C764 1.379 1_656 S
C769 N767 1.356 . S
N770 C762 1.356 . S
N770 H776 0.984 . S
N770 H777 0.984 1_455 S
N771 C764 1.356 . S
N771 H774 0.984 . S
N771 H775 0.985 1_455 S
H772 N767 0.984 . S
H773 N767 0.985 . S
H774 N771 0.984 . S
H775 N771 0.985 1_655 S
H776 N770 0.984 . S
H777 N770 0.984 1_655 S
H778 N766 0.984 1_556 S
H779 N766 0.985 . S
C780 C781 1.363 . S
C780 C786 1.379 . S
C780 N788 1.356 . S
C781 C780 1.363 . S
C781 C787 1.363 . S
C782 C783 1.363 . S
C782 C787 1.379 . S
C782 N789 1.356 . S
C783 C782 1.363 . S
C783 C786 1.363 . S
N784 C786 1.356 . S
N784 H796 0.984 . S
N784 H797 0.985 . S
N785 C787 1.356 . S
N785 H790 0.984 . S
N785 H791 0.985 . S
C786 C780 1.379 . S
C786 C783 1.363 . S
C786 N784 1.356 . S
C787 C781 1.363 . S
C787 C782 1.379 . S
C787 N785 1.356 . S
N788 C780 1.356 . S
N788 H794 0.984 . S
N788 H795 0.984 . S
N789 C782 1.356 . S
N789 H792 0.984 . S
N789 H793 0.985 . S
H790 N785 0.984 . S
H791 N785 0.985 . S
H792 N789 0.984 . S
H793 N789 0.985 . S
H794 N788 0.984 . S
H795 N788 0.984 . S
H796 N784 0.984 . S
H797 N784 0.985 . S
C798 C799 1.363 . S
C798 C804 1.379 . S
C798 N806 1.356 . S
C799 C798 1.363 . S
C799 C805 1.363 . S
C800 C801 1.363 . S
C800 C805 1.379 . S
C800 N807 1.356 . S
C801 C800 1.363 . S
C801 C804 1.363 . S
N802 C804 1.356 . S
N802 H814 0.984 . S
N802 H815 0.985 . S
N803 C805 1.356 . S
N803 H808 0.984 . S
N803 H809 0.985 . S
C804 C798 1.379 . S
C804 C801 1.363 . S
C804 N802 1.356 . S
C805 C799 1.363 . S
C805 C800 1.379 . S
C805 N803 1.356 . S
N806 C798 1.356 . S
N806 H812 0.984 . S
N806 H813 0.984 . S
N807 C800 1.356 . S
N807 H810 0.984 . S
N807 H811 0.985 . S
H808 N803 0.984 . S
H809 N803 0.985 . S
H810 N807 0.984 . S
H811 N807 0.985 . S
H812 N806 0.984 . S
H813 N806 0.984 . S
H814 N802 0.984 . S
H815 N802 0.985 . S
C816 C817 1.363 . S
C816 C822 1.379 . S
C816 N824 1.356 . S
C817 C816 1.363 . S
C817 C823 1.363 . S
C818 C819 1.363 . S
C818 C823 1.379 . S
C818 N825 1.356 . S
C819 C818 1.363 . S
C819 C822 1.363 . S
N820 C822 1.356 . S
N820 H832 0.984 . S
N820 H833 0.985 . S
N821 C823 1.356 . S
N821 H826 0.984 . S
N821 H827 0.985 . S
C822 C816 1.379 . S
C822 C819 1.363 . S
C822 N820 1.356 . S
C823 C817 1.363 . S
C823 C818 1.379 . S
C823 N821 1.356 . S
N824 C816 1.356 . S
N824 H830 0.984 . S
N824 H831 0.984 . S
N825 C818 1.356 . S
N825 H828 0.984 . S
N825 H829 0.985 . S
H826 N821 0.984 . S
H827 N821 0.985 . S
H828 N825 0.984 . S
H829 N825 0.985 . S
H830 N824 0.984 . S
H831 N824 0.984 . S
H832 N820 0.984 . S
H833 N820 0.985 . S
C834 C835 1.363 1_556 S
C834 C840 1.379 . S
C834 N842 1.356 1_556 S
C835 C834 1.363 1_554 S
C835 C841 1.363 . S
C836 C837 1.363 . S
C836 C841 1.379 1_556 S
C836 N843 1.356 . S
C837 C836 1.363 . S
C837 C840 1.363 . S
N838 C840 1.356 . S
N838 H850 0.984 . S
N838 H851 0.985 . S
N839 C841 1.356 . S
N839 H844 0.984 . S
N839 H845 0.985 . S
C840 C834 1.379 . S
C840 C837 1.363 . S
C840 N838 1.356 . S
C841 C835 1.363 . S
C841 C836 1.379 1_554 S
C841 N839 1.356 . S
N842 C834 1.356 1_554 S
N842 H848 0.984 1_554 S
N842 H849 0.984 . S
N843 C836 1.356 . S
N843 H846 0.984 . S
N843 H847 0.985 . S
H844 N839 0.984 . S
H845 N839 0.985 . S
H846 N843 0.984 . S
H847 N843 0.985 . S
H848 N842 0.984 1_556 S
H849 N842 0.984 . S
H850 N838 0.984 . S
H851 N838 0.985 . S
C852 C853 1.363 . S
C852 C858 1.379 . S
C852 N860 1.356 . S
C853 C852 1.363 . S
C853 C859 1.363 . S
C854 C855 1.363 . S
C854 C859 1.379 1_565 S
C854 N861 1.356 . S
C855 C854 1.363 . S
C855 C858 1.363 1_565 S
N856 C858 1.356 1_565 S
N856 H868 0.986 . S
N856 H869 0.985 . S
N857 C859 1.356 . S
N857 H862 0.984 . S
N857 H863 0.985 . S
C858 C852 1.379 . S
C858 C855 1.363 1_545 S
C858 N856 1.356 1_545 S
C859 C853 1.363 . S
C859 C854 1.379 1_545 S
C859 N857 1.356 . S
N860 C852 1.356 . S
N860 H866 0.984 . S
N860 H867 0.984 . S
N861 C854 1.356 . S
N861 H864 0.984 . S
N861 H865 0.985 . S
H862 N857 0.984 . S
H863 N857 0.985 . S
H864 N861 0.984 . S
H865 N861 0.985 . S
H866 N860 0.984 . S
H867 N860 0.984 . S
H868 N856 0.986 . S
H869 N856 0.985 . S
C870 C871 1.363 . S
C870 C876 1.379 1_455 S
C870 N878 1.356 . S
C871 C870 1.363 . S
C871 C877 1.363 1_455 S
C872 C873 1.363 . S
C872 C877 1.379 . S
C872 N879 1.356 . S
C873 C872 1.363 . S
C873 C876 1.363 . S
N874 C876 1.356 . S
N874 H886 0.984 . S
N874 H887 0.985 . S
N875 C877 1.356 . S
N875 H880 0.984 1_655 S
N875 H881 0.985 . S
C876 C870 1.379 1_655 S
C876 C873 1.363 . S
C876 N874 1.356 . S
C877 C871 1.363 1_655 S
C877 C872 1.379 . S
C877 N875 1.356 . S
N878 C870 1.356 . S
N878 H884 0.984 . S
N878 H885 0.984 . S
N879 C872 1.356 . S
N879 H882 0.984 . S
N879 H883 0.985 . S
H880 N875 0.984 1_455 S
H881 N875 0.985 . S
H882 N879 0.984 . S
H883 N879 0.985 . S
H884 N878 0.984 . S
H885 N878 0.984 . S
H886 N874 0.984 . S
H887 N874 0.985 . S
C888 C889 1.363 . S
C888 C894 1.379 . S
C888 N896 1.356 . S
C889 C888 1.363 . S
C889 C895 1.363 . S
C890 C891 1.363 . S
C890 C895 1.379 . S
C890 N897 1.356 . S
C891 C890 1.363 . S
C891 C894 1.363 . S
N892 C894 1.356 . S
N892 H904 0.984 . S
N892 H905 0.985 . S
N893 C895 1.356 . S
N893 H898 0.984 . S
N893 H899 0.985 . S
C894 C888 1.379 . S
C894 C891 1.363 . S
C894 N892 1.356 . S
C895 C889 1.363 . S
C895 C890 1.379 . S
C895 N893 1.356 . S
N896 C888 1.356 . S
N896 H902 0.984 . S
N896 H903 0.984 . S
N897 C890 1.356 . S
N897 H900 0.984 . S
N897 H901 0.985 . S
H898 N893 0.984 . S
H899 N893 0.985 . S
H900 N897 0.984 . S
H901 N897 0.985 . S
H902 N896 0.984 . S
H903 N896 0.984 . S
H904 N892 0.984 . S
H905 N892 0.985 . S
C906 C907 1.363 . S
C906 C912 1.379 . S
C906 N914 1.356 . S
C907 C906 1.363 . S
C907 C913 1.363 . S
C908 C909 1.363 . S
C908 C913 1.379 . S
C908 N915 1.356 . S
C909 C908 1.363 . S
C909 C912 1.363 . S
N910 C912 1.356 . S
N910 H922 0.984 . S
N910 H923 0.985 . S
N911 C913 1.356 . S
N911 H916 0.984 . S
N911 H917 0.985 . S
C912 C906 1.379 . S
C912 C909 1.363 . S
C912 N910 1.356 . S
C913 C907 1.363 . S
C913 C908 1.379 . S
C913 N911 1.356 . S
N914 C906 1.356 . S
N914 H920 0.984 . S
N914 H921 0.984 . S
N915 C908 1.356 . S
N915 H918 0.984 . S
N915 H919 0.985 . S
H916 N911 0.984 . S
H917 N911 0.985 . S
H918 N915 0.984 . S
H919 N915 0.985 . S
H920 N914 0.984 . S
H921 N914 0.984 . S
H922 N910 0.984 . S
H923 N910 0.985 . S
C924 C925 1.363 . S
C924 C930 1.379 . S
C924 N932 1.356 . S
C925 C924 1.363 . S
C925 C931 1.363 1_565 S
C926 C927 1.363 . S
C926 C931 1.379 . S
C926 N933 1.356 . S
C927 C926 1.363 . S
C927 C930 1.363 1_545 S
N928 C930 1.356 . S
N928 H940 0.984 . S
N928 H941 0.985 1_565 S
N929 C931 1.356 . S
N929 H934 0.984 . S
N929 H935 0.985 . S
C930 C924 1.379 . S
C930 C927 1.363 1_565 S
C930 N928 1.356 . S
C931 C925 1.363 1_545 S
C931 C926 1.379 . S
C931 N929 1.356 . S
N932 C924 1.356 . S
N932 H938 0.984 . S
N932 H939 0.984 . S
N933 C926 1.356 . S
N933 H936 0.984 . S
N933 H937 0.985 . S
H934 N929 0.984 . S
H935 N929 0.985 . S
H936 N933 0.984 . S
H937 N933 0.985 . S
H938 N932 0.984 . S
H939 N932 0.984 . S
H940 N928 0.984 . S
H941 N928 0.985 1_545 S
C942 C943 1.363 . S
C942 C948 1.379 1_654 S
C942 N950 1.356 . S
C943 C942 1.363 . S
C943 C949 1.363 1_554 S
C944 C945 1.363 1_655 S
C944 C949 1.379 . S
C944 N951 1.356 . S
C945 C944 1.363 1_455 S
C945 C948 1.363 . S
N946 C948 1.356 . S
N946 H958 0.984 . S
N946 H959 0.985 . S
N947 C949 1.356 1_554 S
N947 H952 0.984 . S
N947 H953 0.985 1_554 S
C948 C942 1.379 1_456 S
C948 C945 1.363 . S
C948 N946 1.356 . S
C949 C943 1.363 1_556 S
C949 C944 1.379 . S
C949 N947 1.356 1_556 S
N950 C942 1.356 . S
N950 H956 0.984 1_655 S
N950 H957 0.984 . S
N951 C944 1.356 . S
N951 H954 0.984 1_655 S
N951 H955 0.985 . S
H952 N947 0.984 . S
H953 N947 0.985 1_556 S
H954 N951 0.984 1_455 S
H955 N951 0.985 . S
H956 N950 0.984 1_455 S
H957 N950 0.984 . S
H958 N946 0.984 . S
H959 N946 0.985 . S
C960 C961 1.363 . S
C960 C966 1.379 . S
C960 N968 1.356 . S
C961 C960 1.363 . S
C961 C967 1.363 . S
C962 C963 1.363 . S
C962 C967 1.379 . S
C962 N969 1.356 . S
C963 C962 1.363 . S
C963 C966 1.363 . S
N964 C966 1.356 . S
N964 H976 0.984 . S
N964 H977 0.985 . S
N965 C967 1.356 . S
N965 H970 0.984 . S
N965 H971 0.985 . S
C966 C960 1.379 . S
C966 C963 1.363 . S
C966 N964 1.356 . S
C967 C961 1.363 . S
C967 C962 1.379 . S
C967 N965 1.356 . S
N968 C960 1.356 . S
N968 H974 0.984 . S
N968 H975 0.984 . S
N969 C962 1.356 . S
N969 H972 0.984 . S
N969 H973 0.985 . S
H970 N965 0.984 . S
H971 N965 0.985 . S
H972 N969 0.984 . S
H973 N969 0.985 . S
H974 N968 0.984 . S
H975 N968 0.984 . S
H976 N964 0.984 . S
H977 N964 0.985 . S
C978 C979 1.363 . S
C978 C984 1.379 . S
C978 N986 1.356 . S
C979 C978 1.363 . S
C979 C985 1.363 . S
C980 C981 1.363 . S
C980 C985 1.379 . S
C980 N987 1.356 . S
C981 C980 1.363 . S
C981 C984 1.363 . S
N982 C984 1.356 . S
N982 H994 0.984 . S
N982 H995 0.985 . S
N983 C985 1.356 . S
N983 H988 0.984 . S
N983 H989 0.985 . S
C984 C978 1.379 . S
C984 C981 1.363 . S
C984 N982 1.356 . S
C985 C979 1.363 . S
C985 C980 1.379 . S
C985 N983 1.356 . S
N986 C978 1.356 . S
N986 H992 0.984 . S
N986 H993 0.984 . S
N987 C980 1.356 . S
N987 H990 0.984 . S
N987 H991 0.985 . S
H988 N983 0.984 . S
H989 N983 0.985 . S
H990 N987 0.984 . S
H991 N987 0.985 . S
H992 N986 0.984 . S
H993 N986 0.984 . S
H994 N982 0.984 . S
H995 N982 0.985 . S
C996 C997 1.363 . S
C996 C1002 1.379 . S
C996 N1004 1.356 . S
C997 C996 1.363 . S
C997 C1003 1.363 . S
C998 C999 1.363 . S
C998 C1003 1.379 . S
C998 N1005 1.356 . S
C999 C998 1.363 . S
C999 C1002 1.363 . S
N1000 C1002 1.356 . S
N1000 H1012 0.984 . S
N1000 H1013 0.985 . S
N1001 C1003 1.356 . S
N1001 H1006 0.984 . S
N1001 H1007 0.985 . S
C1002 C996 1.379 . S
C1002 C999 1.363 . S
C1002 N1000 1.356 . S
C1003 C997 1.363 . S
C1003 C998 1.379 . S
C1003 N1001 1.356 . S
N1004 C996 1.356 . S
N1004 H1010 0.984 . S
N1004 H1011 0.984 . S
N1005 C998 1.356 . S
N1005 H1008 0.984 . S
N1005 H1009 0.985 . S
H1006 N1001 0.984 . S
H1007 N1001 0.985 . S
H1008 N1005 0.984 . S
H1009 N1005 0.985 . S
H1010 N1004 0.984 . S
H1011 N1004 0.984 . S
H1012 N1000 0.984 . S
H1013 N1000 0.985 . S
C1014 C1015 1.363 . S
C1014 C1020 1.379 . S
C1014 N1022 1.356 . S
C1015 C1014 1.363 . S
C1015 C1021 1.363 . S
C1016 C1017 1.363 . S
C1016 C1021 1.379 . S
C1016 N1023 1.356 . S
C1017 C1016 1.363 . S
C1017 C1020 1.363 . S
N1018 C1020 1.356 . S
N1018 H1030 0.984 1_556 S
N1018 H1031 0.985 1_556 S
N1019 C1021 1.356 . S
N1019 H1024 0.984 . S
N1019 H1025 0.985 . S
C1020 C1014 1.379 . S
C1020 C1017 1.363 . S
C1020 N1018 1.356 . S
C1021 C1015 1.363 . S
C1021 C1016 1.379 . S
C1021 N1019 1.356 . S
N1022 C1014 1.356 . S
N1022 H1028 0.984 . S
N1022 H1029 0.984 . S
N1023 C1016 1.356 . S
N1023 H1026 0.984 . S
N1023 H1027 0.985 . S
H1024 N1019 0.984 . S
H1025 N1019 0.985 . S
H1026 N1023 0.984 . S
H1027 N1023 0.985 . S
H1028 N1022 0.984 . S
H1029 N1022 0.984 . S
H1030 N1018 0.984 1_554 S
H1031 N1018 0.985 1_554 S
C1032 C1033 1.363 . S
C1032 C1038 1.379 . S
C1032 N1040 1.356 . S
C1033 C1032 1.363 . S
C1033 C1039 1.363 . S
C1034 C1035 1.363 . S
C1034 C1039 1.379 . S
C1034 N1041 1.356 . S
C1035 C1034 1.363 . S
C1035 C1038 1.363 . S
N1036 C1038 1.356 . S
N1036 H1048 0.984 . S
N1036 H1049 0.985 . S
N1037 C1039 1.356 . S
N1037 H1042 0.984 . S
N1037 H1043 0.985 . S
C1038 C1032 1.379 . S
C1038 C1035 1.363 . S
C1038 N1036 1.356 . S
C1039 C1033 1.363 . S
C1039 C1034 1.379 . S
C1039 N1037 1.356 . S
N1040 C1032 1.356 . S
N1040 H1046 0.984 . S
N1040 H1047 0.984 . S
N1041 C1034 1.356 . S
N1041 H1044 0.984 . S
N1041 H1045 0.985 . S
H1042 N1037 0.984 . S
H1043 N1037 0.985 . S
H1044 N1041 0.984 . S
H1045 N1041 0.985 . S
H1046 N1040 0.984 . S
H1047 N1040 0.984 . S
H1048 N1036 0.984 . S
H1049 N1036 0.985 . S
C1050 C1051 1.363 . S
C1050 C1056 1.379 . S
C1050 N1058 1.356 . S
C1051 C1050 1.363 . S
C1051 C1057 1.363 . S
C1052 C1053 1.363 . S
C1052 C1057 1.379 . S
C1052 N1059 1.356 . S
C1053 C1052 1.363 . S
C1053 C1056 1.363 . S
N1054 C1056 1.356 . S
N1054 H1066 0.984 1_556 S
N1054 H1067 0.985 1_556 S
N1055 C1057 1.356 . S
N1055 H1060 0.984 . S
N1055 H1061 0.985 . S
C1056 C1050 1.379 . S
C1056 C1053 1.363 . S
C1056 N1054 1.356 . S
C1057 C1051 1.363 . S
C1057 C1052 1.379 . S
C1057 N1055 1.356 . S
N1058 C1050 1.356 . S
N1058 H1064 0.984 . S
N1058 H1065 0.984 . S
N1059 C1052 1.356 . S
N1059 H1062 0.984 . S
N1059 H1063 0.985 . S
H1060 N1055 0.984 . S
H1061 N1055 0.985 . S
H1062 N1059 0.984 . S
H1063 N1059 0.985 . S
H1064 N1058 0.984 . S
H1065 N1058 0.984 . S
H1066 N1054 0.984 1_554 S
H1067 N1054 0.985 1_554 S
C1068 C1069 1.363 . S
C1068 C1074 1.379 . S
C1068 N1076 1.356 . S
C1069 C1068 1.363 . S
C1069 C1075 1.363 . S
C1070 C1071 1.363 . S
C1070 C1075 1.379 . S
C1070 N1077 1.356 1_554 S
C1071 C1070 1.363 . S
C1071 C1074 1.363 . S
N1072 C1074 1.356 . S
N1072 H1084 0.984 . S
N1072 H1085 0.985 . S
N1073 C1075 1.356 . S
N1073 H1078 0.984 . S
N1073 H1079 0.985 . S
C1074 C1068 1.379 . S
C1074 C1071 1.363 . S
C1074 N1072 1.356 . S
C1075 C1069 1.363 . S
C1075 C1070 1.379 . S
C1075 N1073 1.356 . S
N1076 C1068 1.356 . S
N1076 H1082 0.984 . S
N1076 H1083 0.984 . S
N1077 C1070 1.356 1_556 S
N1077 H1080 0.984 . S
N1077 H1081 0.985 . S
H1078 N1073 0.984 . S
H1079 N1073 0.985 . S
H1080 N1077 0.984 . S
H1081 N1077 0.985 . S
H1082 N1076 0.984 . S
H1083 N1076 0.984 . S
H1084 N1072 0.984 . S
H1085 N1072 0.985 . S
C1086 C1087 1.363 . S
C1086 C1092 1.379 . S
C1086 N1094 1.356 . S
C1087 C1086 1.363 . S
C1087 C1093 1.363 . S
C1088 C1089 1.363 . S
C1088 C1093 1.379 . S
C1088 N1095 1.356 . S
C1089 C1088 1.363 . S
C1089 C1092 1.363 . S
N1090 C1092 1.356 . S
N1090 H1102 0.984 . S
N1090 H1103 0.985 . S
N1091 C1093 1.356 . S
N1091 H1096 0.984 . S
N1091 H1097 0.985 . S
C1092 C1086 1.379 . S
C1092 C1089 1.363 . S
C1092 N1090 1.356 . S
C1093 C1087 1.363 . S
C1093 C1088 1.379 . S
C1093 N1091 1.356 . S
N1094 C1086 1.356 . S
N1094 H1100 0.984 . S
N1094 H1101 0.984 . S
N1095 C1088 1.356 . S
N1095 H1098 0.984 . S
N1095 H1099 0.985 . S
H1096 N1091 0.984 . S
H1097 N1091 0.985 . S
H1098 N1095 0.984 . S
H1099 N1095 0.985 . S
H1100 N1094 0.984 . S
H1101 N1094 0.984 . S
H1102 N1090 0.984 . S
H1103 N1090 0.985 . S
C1104 C1105 1.363 . S
C1104 C1110 1.379 . S
C1104 N1112 1.356 . S
C1105 C1104 1.363 . S
C1105 C1111 1.363 . S
C1106 C1107 1.363 . S
C1106 C1111 1.379 . S
C1106 N1113 1.356 . S
C1107 C1106 1.363 . S
C1107 C1110 1.363 . S
N1108 C1110 1.356 . S
N1108 H1120 0.984 . S
N1108 H1121 0.985 . S
N1109 C1111 1.356 . S
N1109 H1114 0.984 . S
N1109 H1115 0.985 . S
C1110 C1104 1.379 . S
C1110 C1107 1.363 . S
C1110 N1108 1.356 . S
C1111 C1105 1.363 . S
C1111 C1106 1.379 . S
C1111 N1109 1.356 . S
N1112 C1104 1.356 . S
N1112 H1118 0.984 . S
N1112 H1119 0.984 . S
N1113 C1106 1.356 . S
N1113 H1116 0.984 . S
N1113 H1117 0.985 . S
H1114 N1109 0.984 . S
H1115 N1109 0.985 . S
H1116 N1113 0.984 . S
H1117 N1113 0.985 . S
H1118 N1112 0.984 . S
H1119 N1112 0.984 . S
H1120 N1108 0.984 . S
H1121 N1108 0.985 . S
C1122 C1123 1.363 . S
C1122 C1128 1.379 . S
C1122 N1130 1.356 . S
C1123 C1122 1.363 . S
C1123 C1129 1.363 . S
C1124 C1125 1.363 . S
C1124 C1129 1.379 . S
C1124 N1131 1.356 . S
C1125 C1124 1.363 . S
C1125 C1128 1.363 . S
N1126 C1128 1.356 . S
N1126 H1138 0.984 . S
N1126 H1139 0.985 . S
N1127 C1129 1.356 . S
N1127 H1132 0.984 . S
N1127 H1133 0.985 . S
C1128 C1122 1.379 . S
C1128 C1125 1.363 . S
C1128 N1126 1.356 . S
C1129 C1123 1.363 . S
C1129 C1124 1.379 . S
C1129 N1127 1.356 . S
N1130 C1122 1.356 . S
N1130 H1136 0.984 . S
N1130 H1137 0.984 . S
N1131 C1124 1.356 . S
N1131 H1134 0.984 1_556 S
N1131 H1135 0.985 1_556 S
H1132 N1127 0.984 . S
H1133 N1127 0.985 . S
H1134 N1131 0.984 1_554 S
H1135 N1131 0.985 1_554 S
H1136 N1130 0.984 . S
H1137 N1130 0.984 . S
H1138 N1126 0.984 . S
H1139 N1126 0.985 . S
C1140 C1141 1.363 . S
C1140 C1146 1.379 . S
C1140 N1148 1.356 . S
C1141 C1140 1.363 . S
C1141 C1147 1.363 . S
C1142 C1143 1.363 . S
C1142 C1147 1.379 . S
C1142 N1149 1.356 . S
C1143 C1142 1.363 . S
C1143 C1146 1.363 . S
N1144 C1146 1.356 . S
N1144 H1156 0.984 . S
N1144 H1157 0.985 . S
N1145 C1147 1.356 . S
N1145 H1150 0.984 1_554 S
N1145 H1151 0.985 . S
C1146 C1140 1.379 . S
C1146 C1143 1.363 . S
C1146 N1144 1.356 . S
C1147 C1141 1.363 . S
C1147 C1142 1.379 . S
C1147 N1145 1.356 . S
N1148 C1140 1.356 . S
N1148 H1154 0.984 . S
N1148 H1155 0.984 . S
N1149 C1142 1.356 . S
N1149 H1152 0.984 . S
N1149 H1153 0.985 . S
H1150 N1145 0.984 1_556 S
H1151 N1145 0.985 . S
H1152 N1149 0.984 . S
H1153 N1149 0.985 . S
H1154 N1148 0.984 . S
H1155 N1148 0.984 . S
H1156 N1144 0.984 . S
H1157 N1144 0.985 . S
C1158 C1159 1.363 . S
C1158 C1164 1.379 . S
C1158 N1166 1.356 . S
C1159 C1158 1.363 . S
C1159 C1165 1.363 . S
C1160 C1161 1.363 . S
C1160 C1165 1.379 . S
C1160 N1167 1.356 . S
C1161 C1160 1.363 . S
C1161 C1164 1.363 . S
N1162 C1164 1.356 . S
N1162 H1174 0.984 . S
N1162 H1175 0.985 . S
N1163 C1165 1.356 . S
N1163 H1168 0.984 . S
N1163 H1169 0.985 . S
C1164 C1158 1.379 . S
C1164 C1161 1.363 . S
C1164 N1162 1.356 . S
C1165 C1159 1.363 . S
C1165 C1160 1.379 . S
C1165 N1163 1.356 . S
N1166 C1158 1.356 . S
N1166 H1172 0.984 . S
N1166 H1173 0.984 . S
N1167 C1160 1.356 . S
N1167 H1170 0.984 . S
N1167 H1171 0.985 . S
H1168 N1163 0.984 . S
H1169 N1163 0.985 . S
H1170 N1167 0.984 . S
H1171 N1167 0.985 . S
H1172 N1166 0.984 . S
H1173 N1166 0.984 . S
H1174 N1162 0.984 . S
H1175 N1162 0.985 . S
C1176 C1177 1.363 . S
C1176 C1182 1.379 . S
C1176 N1184 1.356 . S
C1177 C1176 1.363 . S
C1177 C1183 1.363 . S
C1178 C1179 1.363 . S
C1178 C1183 1.379 . S
C1178 N1185 1.356 . S
C1179 C1178 1.363 . S
C1179 C1182 1.363 . S
N1180 C1182 1.356 . S
N1180 H1192 0.984 . S
N1180 H1193 0.985 . S
N1181 C1183 1.356 . S
N1181 H1186 0.984 . S
N1181 H1187 0.985 . S
C1182 C1176 1.379 . S
C1182 C1179 1.363 . S
C1182 N1180 1.356 . S
C1183 C1177 1.363 . S
C1183 C1178 1.379 . S
C1183 N1181 1.356 . S
N1184 C1176 1.356 . S
N1184 H1190 0.984 . S
N1184 H1191 0.984 . S
N1185 C1178 1.356 . S
N1185 H1188 0.984 1_554 S
N1185 H1189 0.985 1_554 S
H1186 N1181 0.984 . S
H1187 N1181 0.985 . S
H1188 N1185 0.984 1_556 S
H1189 N1185 0.985 1_556 S
H1190 N1184 0.984 . S
H1191 N1184 0.984 . S
H1192 N1180 0.984 . S
H1193 N1180 0.985 . S
C1194 C1195 1.363 . S
C1194 C1200 1.379 . S
C1194 N1202 1.356 . S
C1195 C1194 1.363 . S
C1195 C1201 1.363 . S
C1196 C1197 1.363 . S
C1196 C1201 1.379 . S
C1196 N1203 1.356 . S
C1197 C1196 1.363 . S
C1197 C1200 1.363 . S
N1198 C1200 1.356 . S
N1198 H1210 0.984 . S
N1198 H1211 0.985 . S
N1199 C1201 1.356 . S
N1199 H1204 0.984 . S
N1199 H1205 0.985 . S
C1200 C1194 1.379 . S
C1200 C1197 1.363 . S
C1200 N1198 1.356 . S
C1201 C1195 1.363 . S
C1201 C1196 1.379 . S
C1201 N1199 1.356 . S
N1202 C1194 1.356 . S
N1202 H1208 0.984 . S
N1202 H1209 0.984 . S
N1203 C1196 1.356 . S
N1203 H1206 0.984 . S
N1203 H1207 0.985 . S
H1204 N1199 0.984 . S
H1205 N1199 0.985 . S
H1206 N1203 0.984 . S
H1207 N1203 0.985 . S
H1208 N1202 0.984 . S
H1209 N1202 0.984 . S
H1210 N1198 0.984 . S
H1211 N1198 0.985 . S
C1212 C1213 1.363 . S
C1212 C1218 1.379 . S
C1212 N1220 1.356 . S
C1213 C1212 1.363 . S
C1213 C1219 1.363 . S
C1214 C1215 1.363 . S
C1214 C1219 1.379 . S
C1214 N1221 1.356 . S
C1215 C1214 1.363 . S
C1215 C1218 1.363 . S
N1216 C1218 1.356 . S
N1216 H1228 0.984 . S
N1216 H1229 0.985 . S
N1217 C1219 1.356 . S
N1217 H1222 0.984 . S
N1217 H1223 0.985 . S
C1218 C1212 1.379 . S
C1218 C1215 1.363 . S
C1218 N1216 1.356 . S
C1219 C1213 1.363 . S
C1219 C1214 1.379 . S
C1219 N1217 1.356 . S
N1220 C1212 1.356 . S
N1220 H1226 0.984 . S
N1220 H1227 0.984 . S
N1221 C1214 1.356 . S
N1221 H1224 0.984 . S
N1221 H1225 0.985 . S
H1222 N1217 0.984 . S
H1223 N1217 0.985 . S
H1224 N1221 0.984 . S
H1225 N1221 0.985 . S
H1226 N1220 0.984 . S
H1227 N1220 0.984 . S
H1228 N1216 0.984 . S
H1229 N1216 0.985 . S
C1230 C1231 1.363 . S
C1230 C1236 1.379 . S
C1230 N1238 1.356 . S
C1231 C1230 1.363 . S
C1231 C1237 1.363 . S
C1232 C1233 1.363 . S
C1232 C1237 1.379 . S
C1232 N1239 1.356 . S
C1233 C1232 1.363 . S
C1233 C1236 1.363 . S
N1234 C1236 1.356 . S
N1234 H1246 0.984 . S
N1234 H1247 0.985 . S
N1235 C1237 1.356 . S
N1235 H1240 0.984 . S
N1235 H1241 0.985 . S
C1236 C1230 1.379 . S
C1236 C1233 1.363 . S
C1236 N1234 1.356 . S
C1237 C1231 1.363 . S
C1237 C1232 1.379 . S
C1237 N1235 1.356 . S
N1238 C1230 1.356 . S
N1238 H1244 0.984 1_556 S
N1238 H1245 0.984 1_556 S
N1239 C1232 1.356 . S
N1239 H1242 0.984 . S
N1239 H1243 0.985 . S
H1240 N1235 0.984 . S
H1241 N1235 0.985 . S
H1242 N1239 0.984 . S
H1243 N1239 0.985 . S
H1244 N1238 0.984 1_554 S
H1245 N1238 0.984 1_554 S
H1246 N1234 0.984 . S
H1247 N1234 0.985 . S
C529 N344 1.514 . S
C531 N14 1.514 . S
C547 N47 1.514 . S
C549 N377 1.514 . S
C565 N278 1.514 . S
C567 N80 1.514 . S
C583 N113 1.514 . S
C585 N311 1.514 . S
C601 N476 1.514 . S
C603 N146 1.514 . S
C619 N179 1.514 . S
C621 N509 1.514 . S
C637 N212 1.514 . S
C639 N410 1.514 . S
C655 N443 1.514 . S
C657 N245 1.514 . S
C673 C490 1.110 . S
C675 C8 1.123 . S
C691 C523 1.110 . S
C693 C41 1.125 . S
C709 C74 1.125 . S
C711 C424 1.112 . S
C727 C457 1.110 . S
C729 C107 1.125 . S
C745 C140 1.125 . S
C747 C358 1.112 . S
C763 C173 1.125 . S
C765 C391 1.110 . S
C781 C292 1.110 . S
C783 C206 1.123 . S
C799 C239 1.125 . S
C801 C325 1.110 . S
C817 C226 1.110 . S
C819 C272 1.126 . S
C835 C259 1.110 . S
C837 C305 1.125 . S
C853 C160 1.110 . S
C855 C338 1.123 . S
C871 C371 1.125 . S
C873 C193 1.110 . S
C889 C404 1.125 . S
C891 C94 1.109 . S
C907 C437 1.125 . S
C909 C127 1.110 . S
C925 C470 1.125 . S
C927 C28 1.112 . S
C943 C61 1.110 . S
C945 C503 1.125 . S
C961 N368 1.756 . S
C963 C17 1.714 . S
C979 C50 1.714 . S
C981 N269 1.756 . S
C997 C83 1.714 . S
C999 N302 1.756 . S
C1015 C116 1.714 . S
C1017 N335 1.757 . S
C1033 N170 1.756 . S
C1035 C149 1.714 . S
C1051 C182 1.714 . S
C1053 N203 1.757 . S
C1069 N236 1.756 . S
C1071 C215 1.714 . S
C1087 C248 1.714 . S
C1089 N137 1.756 . S
C1105 N104 1.756 . S
C1107 C281 1.714 . S
C1123 C314 1.714 . S
C1125 N5 1.757 . S
C1141 C347 1.714 . S
C1143 N38 1.755 . S
C1159 N71 1.756 . S
C1161 C380 1.714 . S
C1177 N434 1.756 . S
C1179 C413 1.714 . S
C1195 N467 1.756 . S
C1197 C446 1.714 . S
C1213 C479 1.714 . S
C1215 N500 1.756 . S
C1231 N401 1.756 . S
C1233 C512 1.715 . S
