# Generated by pormake.
# Topology uom, (4)-cn, num edge types: 1
# Building blocks:
#     Node 0, Type 0, BuildingBlock: ESEHIV_clean_sbu_0, # of connection points: 4
#     Node 1, Type 0, BuildingBlock: ESEHIV_clean_sbu_0, # of connection points: 4
#     Node 2, Type 0, BuildingBlock: ESEHIV_clean_sbu_0, # of connection points: 4
#     Node 3, Type 0, BuildingBlock: ESEHIV_clean_sbu_0, # of connection points: 4
#     Node 4, Type 0, BuildingBlock: ESEHIV_clean_sbu_0, # of connection points: 4
#     Node 5, Type 0, BuildingBlock: ESEHIV_clean_sbu_0, # of connection points: 4
#     Edge 6, Type (0, 0), BuildingBlock: XIVTED_clean_linker_0, # of connection points: 2
#     Edge 7, Type (0, 0), BuildingBlock: XIVTED_clean_linker_0, # of connection points: 2
#     Edge 8, Type (0, 0), BuildingBlock: XIVTED_clean_linker_0, # of connection points: 2
#     Edge 9, Type (0, 0), BuildingBlock: XIVTED_clean_linker_0, # of connection points: 2
#     Edge 10, Type (0, 0), BuildingBlock: XIVTED_clean_linker_0, # of connection points: 2
#     Edge 11, Type (0, 0), BuildingBlock: XIVTED_clean_linker_0, # of connection points: 2
#     Edge 12, Type (0, 0), BuildingBlock: XIVTED_clean_linker_0, # of connection points: 2
#     Edge 13, Type (0, 0), BuildingBlock: XIVTED_clean_linker_0, # of connection points: 2
#     Edge 14, Type (0, 0), BuildingBlock: XIVTED_clean_linker_0, # of connection points: 2
#     Edge 15, Type (0, 0), BuildingBlock: XIVTED_clean_linker_0, # of connection points: 2
#     Edge 16, Type (0, 0), BuildingBlock: XIVTED_clean_linker_0, # of connection points: 2
#     Edge 17, Type (0, 0), BuildingBlock: XIVTED_clean_linker_0, # of connection points: 2
# Relax obj value: 0.100
# Max RMSD: 0.201
# Mean RMSD: 0.159
data_MOF--net-uom--node1-ESEHIV_clean_sbu_0--edge1-XIVTED_clean_linker_0
_symmetry_space_group_name_H-M    P1
_symmetry_Int_Tables_number       1
_symmetry_cell_setting            triclinic
loop_
_symmetry_equiv_pos_as_xyz
'x, y, z'
_cell_length_a     29.974248
_cell_length_b     28.51307
_cell_length_c     47.884031
_cell_angle_alpha  90.030505
_cell_angle_beta   90.083886
_cell_angle_gamma 126.65441
loop_
_atom_site_label
_atom_site_type_symbol
_atom_site_fract_x
_atom_site_fract_y
_atom_site_fract_z
_atom_type_partial_charge
Cu0 Cu 0.31633 0.95867 0.03975 0.0
N1 N 0.28235 0.89758 1.01375 0.0
N2 N 0.25607 0.85903 0.97086 0.0
C3 C 0.28815 0.90827 0.98617 0.0
C4 C 0.22885 0.81525 0.98973 0.0
C5 C 0.24527 0.83923 1.01627 0.0
O6 O 0.39666 0.9996 0.03561 0.0
C7 C 0.23188 0.96743 0.0333 0.0
O8 O 0.20703 0.91253 0.04029 0.0
H9 H 0.31354 0.95203 0.97762 0.0
H10 H 0.22989 0.81608 0.03589 0.0
N11 N 0.29885 0.93695 0.07727 0.0
N12 N 0.28969 0.9503 0.12241 0.0
C13 C 0.29817 0.9714 0.09621 0.0
C14 C 0.29054 0.8921 0.09192 0.0
C15 C 0.28494 0.90029 0.11987 0.0
C16 C 0.4117 0.96614 0.03742 0.0
O17 O 0.37325 0.91012 0.04176 0.0
H18 H 0.30597 0.01257 0.09085 0.0
H19 H 0.28994 0.85681 0.0831 0.0
O20 O 0.28495 0.00085 0.03153 0.0
H21 H 0.19859 0.7694 0.9848 0.0
H22 H 0.27821 0.87185 0.13693 0.0
Cu23 Cu 0.33014 0.21682 0.37268 0.0
N24 N 0.30241 0.18923 0.33641 0.0
N25 N 0.2881 0.14925 0.29395 0.0
C26 C 0.31984 0.16844 0.31735 0.0
C27 C 0.24932 0.15818 0.29859 0.0
C28 C 0.25806 0.18247 0.32467 0.0
O29 O 0.40238 0.29288 0.37049 0.0
C30 C 0.30308 0.11448 0.40365 0.0
O31 O 0.31917 0.08781 0.41805 0.0
H32 H 0.35465 0.1669 0.32073 0.0
H33 H 0.23227 0.19228 0.33465 0.0
N34 N 0.28309 0.22725 0.393 0.0
N35 N 0.23464 0.22953 0.42789 0.0
C36 C 0.26722 0.21368 0.41993 0.0
C37 C 0.2614 0.25441 0.38397 0.0
C38 C 0.23109 0.25529 0.40524 0.0
C39 C 0.42678 0.31999 0.39306 0.0
O40 O 0.40291 0.29496 0.41698 0.0
H41 H 0.28006 0.19345 0.4335 0.0
H42 H 0.26845 0.2738 0.36355 0.0
O43 O 0.33987 0.16324 0.39208 0.0
H44 H 0.21564 0.14605 0.28455 0.0
H45 H 0.20967 0.2752 0.40432 0.0
Cu46 Cu 0.09618 0.25078 0.69619 0.0
N47 N 0.03934 0.21279 0.72282 0.0
N48 N 0.99863 0.19328 0.76471 0.0
C49 C 0.04549 0.22955 0.74971 0.0
C50 C 0.9616 0.15198 0.74632 0.0
C51 C 0.98685 0.16403 0.72058 0.0
O52 O 0.12802 0.33325 0.69802 0.0
C53 C 0.12223 0.17629 0.7009 0.0
O54 O 0.07082 0.14321 0.69164 0.0
H55 H 0.08431 0.26694 0.75811 0.0
H56 H 0.96847 0.1384 0.70175 0.0
N57 N 0.07093 0.22566 0.65948 0.0
N58 N 0.07408 0.20982 0.61394 0.0
C59 C 0.10262 0.22986 0.63826 0.0
C60 C 1.02052 0.20222 0.64826 0.0
C61 C 0.02232 0.1924 0.6202 0.0
C62 C 0.09153 0.34211 0.6943 0.0
O63 O 0.03975 0.29671 0.69006 0.0
H64 H 0.14617 0.24848 0.64062 0.0
H65 H 0.98508 0.19352 0.65952 0.0
O66 O 0.14586 0.23045 0.70503 0.0
H67 H 0.91923 0.11544 0.751 0.0
H68 H 0.98803 0.17371 0.60563 0.0
Cu69 Cu 0.90355 0.10802 0.03989 0.0
N70 N 0.93623 0.16908 1.01403 0.0
N71 N 0.95917 0.20697 0.97098 0.0
C72 C 0.92952 0.15788 0.98649 0.0
C73 C 0.9859 0.25122 0.98972 0.0
C74 C 0.97155 0.22765 1.01636 0.0
O75 O 0.82314 0.06658 0.03601 0.0
C76 C 0.9885 0.10038 0.033 0.0
O77 O 1.01292 0.15518 0.04013 0.0
H78 H 0.90486 0.11392 0.97811 0.0
H79 H 0.98684 0.25136 0.03588 0.0
N80 N 0.92158 0.12882 0.07749 0.0
N81 N 0.93118 0.11336 0.12225 0.0
C82 C 0.91873 0.09172 0.09603 0.0
C83 C 0.93615 0.17605 0.09242 0.0
C84 C 0.94203 0.16656 0.12014 0.0
C85 C 0.80791 0.09963 0.03926 0.0
O86 O 0.84619 0.15508 0.04506 0.0
H87 H 0.90626 0.04873 0.09026 0.0
H88 H 0.94145 0.21421 0.08391 0.0
O89 O 0.93543 0.06659 0.03112 0.0
H90 H 1.01415 0.2972 0.98463 0.0
H91 H 0.95359 0.19657 0.13729 0.0
Cu92 Cu 0.87949 0.83294 0.36942 0.0
N93 N 0.8991 0.85288 0.33184 0.0
N94 N 0.91183 0.89088 0.28904 0.0
C95 C 0.89468 0.88856 0.31551 0.0
C96 C 0.92704 0.8548 0.28887 0.0
C97 C 0.91879 0.83129 0.31509 0.0
O98 O 0.81345 0.752 0.37031 0.0
C99 C 0.89568 0.93114 0.39836 0.0
O100 O 0.87639 0.95642 0.41109 0.0
H101 H 0.87866 0.91173 0.32288 0.0
H102 H 0.92642 0.8003 0.32153 0.0
N103 N 0.93732 0.84012 0.38941 0.0
N104 N 0.99068 0.84849 0.42484 0.0
C105 C 0.94095 0.83565 0.41727 0.0
C106 C 0.98614 0.85573 0.37905 0.0
C107 C 1.01898 0.86089 0.40073 0.0
C108 C 0.78353 0.72909 0.39205 0.0
O109 O 0.79805 0.7607 0.41488 0.0
H110 H 0.90877 0.82581 0.43176 0.0
H111 H 0.998 0.8648 0.35733 0.0
O112 O 0.86171 0.88226 0.38613 0.0
H113 H 0.94354 0.8462 0.27116 0.0
H114 H 0.06075 0.87338 0.3988 0.0
Cu115 Cu 0.12276 0.80173 0.69345 0.0
N116 N 0.16939 0.84959 0.72272 0.0
N117 N 0.20392 0.87466 0.76612 0.0
C118 C 0.1694 0.8303 0.74839 0.0
C119 C 0.22639 0.92384 0.75092 0.0
C120 C 0.20482 0.90826 0.72422 0.0
O121 O 0.12201 0.73372 0.69156 0.0
C122 C 0.03354 0.80366 0.71339 0.0
O123 O 0.98241 0.77737 0.72231 0.0
H124 H 0.14402 0.78446 0.75392 0.0
H125 H 0.21288 0.93776 0.70746 0.0
N126 N 0.14393 0.83854 0.65851 0.0
N127 N 0.13911 0.85912 0.6139 0.0
C128 C 0.11121 0.82295 0.63576 0.0
C129 C 0.19448 0.88536 0.65067 0.0
C130 C 0.19163 0.89833 0.62331 0.0
C131 C 0.16461 0.73435 0.69408 0.0
O132 O 0.21382 0.7843 0.69774 0.0
H133 H 0.06773 0.78595 0.63545 0.0
H134 H 0.23095 0.90854 0.66391 0.0
O135 O 0.04761 0.77307 0.70313 0.0
H136 H 0.25484 0.96803 0.75875 0.0
H137 H 0.22559 0.93457 0.6115 0.0
H138 H 0.25895 0.02213 0.12695 0.0
H139 H 0.32861 0.08543 0.29049 0.0
H140 H 0.31775 0.94152 0.17542 0.0
H141 H 0.25645 0.15122 0.24122 0.0
H142 H 0.32963 0.03588 0.24876 0.0
H143 H 0.26133 0.07221 0.16874 0.0
C144 C 0.27259 0.01507 0.14639 0.0
C145 C 0.28848 0.9777 0.14754 0.0
C146 C 0.31362 0.06123 0.24713 0.0
C147 C 0.29099 0.03501 0.1959 0.0
C148 C 0.31342 0.08988 0.2709 0.0
C149 C 0.2921 0.12232 0.26944 0.0
C150 C 0.29271 0.0654 0.22169 0.0
C151 C 0.27244 0.12602 0.24351 0.0
C152 C 0.27371 0.04356 0.17036 0.0
C153 C 0.30476 0.96954 0.17356 0.0
N154 N 0.27322 0.09799 0.22078 0.0
N155 N 0.30582 0.99814 0.19669 0.0
H156 H 0.26982 0.21876 0.47843 0.0
H157 H 0.03413 0.2099 0.56289 0.0
H158 H 0.14272 0.22361 0.43946 0.0
H159 H 0.16228 0.20814 0.60285 0.0
H160 H 0.07125 0.21064 0.51748 0.0
H161 H 0.22893 0.21032 0.52403 0.0
C162 C 0.23315 0.21767 0.47937 0.0
C163 C 0.21005 0.22242 0.45496 0.0
C164 C 0.09125 0.20999 0.53617 0.0
C165 C 0.16318 0.21319 0.50726 0.0
C166 C 0.06981 0.20923 0.56219 0.0
C167 C 0.09507 0.2091 0.58689 0.0
C168 C 0.13839 0.21057 0.53467 0.0
C169 C 0.14183 0.2091 0.58447 0.0
C170 C 0.20997 0.21316 0.50548 0.0
C171 C 0.16269 0.22122 0.45766 0.0
N172 N 0.16197 0.20989 0.55887 0.0
N173 N 0.14098 0.21685 0.48326 0.0
H174 H 0.04398 0.29421 0.93898 0.0
H175 H 0.91801 0.10656 0.79844 0.0
H176 H 0.88399 0.1257 0.93371 0.0
H177 H 0.06126 0.28789 0.79925 0.0
H178 H 0.90668 0.11274 0.84828 0.0
H179 H 0.05258 0.2933 0.88812 0.0
C180 C 1.01045 0.2573 0.92721 0.0
C181 C 0.96347 0.20965 0.94085 0.0
C182 C 0.94051 0.15129 0.83753 0.0
C183 C 0.97341 0.20798 0.88262 0.0
C184 C 0.94693 0.14788 0.8089 0.0
C185 C 0.99078 0.19672 0.79429 0.0
C186 C 0.97832 0.20381 0.85194 0.0
C187 C 0.0273 0.24873 0.80947 0.0
C188 C 1.01552 0.25667 0.89815 0.0
C189 C 0.92157 0.16283 0.92435 0.0
N190 N 1.02037 0.25081 0.83742 0.0
N191 N 0.92771 0.16305 0.89625 0.0
H192 H 0.94562 0.02807 0.12447 0.0
H193 H 0.91399 0.98818 0.29047 0.0
H194 H 0.91765 0.1316 0.17671 0.0
H195 H 0.91378 0.87028 0.23375 0.0
H196 H 0.91974 0.04484 0.25026 0.0
H197 H 0.9401 0.97465 0.16537 0.0
C198 C 0.93796 0.03949 0.14452 0.0
C199 C 0.93132 0.08411 0.14692 0.0
C200 C 0.91843 0.00652 0.24672 0.0
C201 C 0.92572 0.02299 0.19441 0.0
C202 C 0.91486 0.9739 0.26967 0.0
C203 C 0.91373 0.92429 0.26569 0.0
C204 C 0.92108 0.98959 0.21957 0.0
C205 C 0.91559 0.90857 0.23812 0.0
C206 C 0.93506 0.00897 0.16801 0.0
C207 C 0.92315 0.09774 0.17379 0.0
N208 N 0.91928 0.94106 0.21628 0.0
N209 N 0.9204 0.06718 0.19648 0.0
H210 H 0.19771 0.90842 0.56585 0.0
H211 H 0.92919 0.79119 0.47129 0.0
H212 H 0.03079 0.80602 0.59887 0.0
H213 H 0.09822 0.91192 0.44247 0.0
H214 H 0.96459 0.79397 0.51788 0.0
H215 H 0.16112 0.90733 0.52026 0.0
C216 C 0.15339 0.88591 0.56367 0.0
C217 C 0.1175 0.85744 0.58653 0.0
C218 C 0.99388 0.81984 0.50133 0.0
C219 C 0.07496 0.85545 0.53382 0.0
C220 C 0.97368 0.81849 0.47472 0.0
C221 C 1.01067 0.85089 0.45271 0.0
C222 C 0.05155 0.85382 0.50604 0.0
C223 C 0.06799 0.88515 0.45849 0.0
C224 C 0.13243 0.88512 0.53747 0.0
C225 C 0.06019 0.82808 0.58196 0.0
N226 N 0.08654 0.88554 0.48447 0.0
N227 N 0.04075 0.82786 0.55619 0.0
H228 H 0.16562 0.7756 0.94022 0.0
H229 H 0.29531 0.95302 0.79713 0.0
H230 H 0.33152 0.93584 0.93263 0.0
H231 H 0.13336 0.78686 0.80227 0.0
H232 H 0.30924 0.94641 0.84679 0.0
H233 H 0.15347 0.77667 0.88966 0.0
C234 C 0.19969 0.81065 0.92795 0.0
C235 C 0.2495 0.85601 0.94085 0.0
C236 C 0.27069 0.91123 0.83706 0.0
C237 C 0.23563 0.85792 0.88296 0.0
C238 C 0.26258 0.9152 0.80868 0.0
C239 C 0.21304 0.87054 0.79539 0.0
C240 C 0.22887 0.86234 0.85247 0.0
C241 C 0.17246 0.82208 0.81147 0.0
C242 C 0.19261 0.81145 0.89908 0.0
C243 C 0.29201 0.90058 0.9238 0.0
N244 N 0.18117 0.8194 0.83915 0.0
N245 N 0.284 0.90054 0.89586 0.0
H246 H 0.11964 0.90019 0.02695 0.0
H247 H 0.10121 0.16812 0.02902 0.0
H248 H 0.2639 0.08068 0.02946 0.0
H249 H 0.95694 0.98756 0.02725 0.0
H250 H 0.16092 0.13704 0.02567 0.0
H251 H 0.06017 0.93159 1.02348 0.0
C252 C 0.139 0.94663 0.02666 0.0
C253 C 0.19707 0.98792 0.02876 0.0
C254 C 0.11627 0.1041 0.02585 0.0
C255 C 0.12847 0.02422 1.02482 0.0
C256 C 0.08189 0.12174 0.02779 0.0
C257 C 0.02371 0.08031 0.02865 0.0
C258 C 0.09263 0.04439 1.02483 0.0
C259 C 1.00146 0.021 0.02672 0.0
C260 C 0.10478 0.96447 1.02464 0.0
C261 C 0.21945 0.04736 0.02794 0.0
N262 N 0.03599 0.0048 0.02509 0.0
N263 N 0.18505 0.06373 0.02625 0.0
H264 H 0.96027 0.96217 0.44467 0.0
H265 H 0.23839 0.0867 0.35756 0.0
H266 H 0.96739 0.96554 0.35489 0.0
H267 H 0.23136 0.07771 0.44722 0.0
H268 H 0.13966 0.04528 0.35611 0.0
H269 H 0.06019 0.00745 0.44637 0.0
C270 C 0.98304 0.97238 0.42532 0.0
C271 C 0.95561 0.9586 0.39957 0.0
C272 C 0.15973 0.05303 0.37617 0.0
C273 C 0.06955 0.01114 0.4012 0.0
C274 C 0.21634 0.07791 0.37692 0.0
C275 C 0.24344 0.08865 0.40249 0.0
C276 C 0.12983 0.03786 0.40127 0.0
C277 C 0.21197 0.07121 0.42707 0.0
C278 C 0.03989 0.99809 0.42626 0.0
C279 C 0.98671 0.97337 0.37507 0.0
N280 N 0.15686 0.04711 0.42589 0.0
N281 N 0.04205 0.99878 0.37646 0.0
H282 H 0.13129 0.13966 0.75135 0.0
H283 H 0.08499 0.87699 0.66969 0.0
H284 H 0.16573 0.14266 0.6639 0.0
H285 H 0.06449 0.87534 0.75858 0.0
H286 H 0.13869 0.98285 0.66969 0.0
H287 H 0.13276 0.05531 0.7575 0.0
C288 C 0.14217 0.1244 0.73377 0.0
C289 C 0.14866 0.1479 0.70713 0.0
C290 C 0.12404 0.95992 0.68942 0.0
C291 C 0.14761 0.0501 0.71355 0.0
C292 C 0.0943 0.89937 0.6894 0.0
C293 C 0.07223 0.86783 0.7142 0.0
C294 C 0.12969 0.98903 0.71437 0.0
C295 C 0.08138 0.89849 0.73902 0.0
C296 C 0.14218 0.07571 0.73715 0.0
C297 C 0.16096 0.12576 0.6848 0.0
N298 N 0.10883 0.95745 0.73845 0.0
N299 N 0.15887 0.07727 0.68838 0.0
H300 H 0.7128 0.98621 0.03273 0.0
H301 H 0.50714 0.0802 0.0347 0.0
H302 H 0.76862 0.1646 0.04006 0.0
H303 H 0.45092 0.90117 0.03525 0.0
H304 H 0.60362 0.11245 0.03326 0.0
H305 H 0.61644 0.9542 0.03029 0.0
C306 C 0.7049 0.01861 0.03373 0.0
C307 C 0.74899 0.07812 0.03676 0.0
C308 C 0.57006 0.06609 0.03363 0.0
C309 C 0.6389 0.04198 0.03395 0.0
C310 C 0.51498 0.04773 0.03439 0.0
C311 C 0.47073 0.98792 0.03526 0.0
C312 C 0.58097 0.02435 0.03362 0.0
C313 C 0.48354 0.94778 0.03479 0.0
C314 C 0.64989 0.00038 0.03238 0.0
C315 C 0.73612 0.11818 0.0379 0.0
N316 N 0.53723 0.96666 0.03406 0.0
N317 N 0.6825 0.09944 0.03654 0.0
H318 H 0.73543 0.65371 0.34733 0.0
H319 H 0.48433 0.39115 0.43769 0.0
H320 H 0.71413 0.66483 0.43562 0.0
H321 H 0.49166 0.38488 0.34786 0.0
H322 H 0.57142 0.48948 0.43729 0.0
H323 H 0.64944 0.55364 0.34711 0.0
C324 C 0.71282 0.63514 0.36669 0.0
C325 C 0.73213 0.66792 0.39154 0.0
C326 C 0.55411 0.46671 0.41763 0.0
C327 C 0.63359 0.55323 0.39141 0.0
C328 C 0.50428 0.41034 0.41783 0.0
C329 C 0.48043 0.37951 0.39275 0.0
C330 C 0.58077 0.49279 0.39217 0.0
C331 C 0.50842 0.40696 0.3677 0.0
C332 C 0.66363 0.578 0.36652 0.0
C333 C 0.70093 0.64144 0.41595 0.0
N334 N 0.55711 0.462 0.36805 0.0
N335 N 0.65338 0.5858 0.41526 0.0
H336 H 0.24424 0.71569 0.70139 0.0
H337 H 1.01964 0.36912 0.68731 0.0
H338 H 0.06877 0.62528 0.68597 0.0
H339 H 0.19374 0.44967 0.70161 0.0
H340 H 0.03945 0.46456 0.68702 0.0
H341 H 0.22925 0.62098 0.70158 0.0
C342 C 0.20269 0.67609 0.69798 0.0
C343 C 0.15767 0.67846 0.69368 0.0
C344 C 0.0736 0.46181 0.69023 0.0
C345 C 0.14038 0.5705 0.69394 0.0
C346 C 0.06228 0.40701 0.69041 0.0
C347 C 0.10513 0.40122 0.69447 0.0
C348 C 0.12832 0.51189 0.69414 0.0
C349 C 0.15948 0.45221 0.6984 0.0
C350 C 0.19421 0.62215 0.69812 0.0
C351 C 0.10478 0.62582 0.68941 0.0
N352 N 0.16962 0.50565 0.69813 0.0
N353 N 0.09772 0.57428 0.68968 0.0
loop_
_geom_bond_atom_site_label_1
_geom_bond_atom_site_label_2
_geom_bond_distance
_geom_bond_site_symmetry_2
_ccdc_geom_bond_type
Cu0 N1 1.999 1_554 S
Cu0 O6 1.974 . S
Cu0 N11 1.985 . S
Cu0 O20 1.959 . S
N1 Cu0 1.999 1_556 S
N1 C3 1.263 . S
N1 C5 1.389 . S
N2 C3 1.358 . S
N2 C4 1.400 . S
C3 N1 1.263 . S
C3 N2 1.358 . S
C3 H9 0.930 1_545 S
C4 N2 1.400 . S
C4 C5 1.351 . S
C4 H21 0.930 . S
C5 N1 1.389 . S
C5 C4 1.351 . S
C5 H10 0.930 . S
O6 Cu0 1.974 . S
O6 C16 1.282 . S
C7 O8 1.261 1_545 S
C7 O20 1.251 . S
O8 C7 1.261 1_565 S
H9 C3 0.930 1_565 S
H10 C5 0.930 . S
N11 Cu0 1.985 . S
N11 C13 1.335 . S
N11 C14 1.390 . S
N12 C13 1.345 . S
N12 C15 1.336 . S
C13 N11 1.335 . S
C13 N12 1.345 . S
C13 H18 0.930 . S
C14 N11 1.390 . S
C14 C15 1.346 . S
C14 H19 0.930 . S
C15 N12 1.336 . S
C15 C14 1.346 . S
C15 H22 0.929 . S
C16 O6 1.282 . S
C16 O17 1.216 1_545 S
O17 C16 1.216 1_565 S
H18 C13 0.930 . S
H19 C14 0.930 . S
O20 Cu0 1.959 . S
O20 C7 1.251 . S
H21 C4 0.930 . S
H22 C15 0.929 . S
Cu23 N24 1.999 . S
Cu23 O29 1.974 . S
Cu23 N34 1.985 . S
Cu23 O43 1.959 . S
N24 Cu23 1.999 . S
N24 C26 1.263 . S
N24 C28 1.389 . S
N25 C26 1.358 . S
N25 C27 1.400 . S
C26 N24 1.263 . S
C26 N25 1.358 . S
C26 H32 0.930 . S
C27 N25 1.400 . S
C27 C28 1.351 . S
C27 H44 0.930 . S
C28 N24 1.389 . S
C28 C27 1.351 . S
C28 H33 0.930 . S
O29 Cu23 1.974 . S
O29 C39 1.282 . S
C30 O31 1.261 . S
C30 O43 1.251 . S
O31 C30 1.261 . S
H32 C26 0.930 . S
H33 C28 0.930 . S
N34 Cu23 1.985 . S
N34 C36 1.335 . S
N34 C37 1.390 . S
N35 C36 1.345 . S
N35 C38 1.336 . S
C36 N34 1.335 . S
C36 N35 1.345 . S
C36 H41 0.930 . S
C37 N34 1.390 . S
C37 C38 1.346 . S
C37 H42 0.930 . S
C38 N35 1.336 . S
C38 C37 1.346 . S
C38 H45 0.929 . S
C39 O29 1.282 . S
C39 O40 1.216 . S
O40 C39 1.216 . S
H41 C36 0.930 . S
H42 C37 0.930 . S
O43 Cu23 1.959 . S
O43 C30 1.251 . S
H44 C27 0.930 . S
H45 C38 0.929 . S
Cu46 N47 1.999 . S
Cu46 O52 1.974 . S
Cu46 N57 1.985 . S
Cu46 O66 1.959 . S
N47 Cu46 1.999 . S
N47 C49 1.263 1_455 S
N47 C51 1.389 . S
N48 C49 1.358 . S
N48 C50 1.411 . S
C49 N47 1.263 1_655 S
C49 N48 1.358 . S
C49 H55 0.930 . S
C50 N48 1.411 . S
C50 C51 1.346 1_655 S
C50 H67 0.926 1_655 S
C51 N47 1.389 . S
C51 C50 1.346 1_455 S
C51 H56 0.930 . S
O52 Cu46 1.974 . S
O52 C62 1.282 1_455 S
C53 O54 1.261 . S
C53 O66 1.251 1_655 S
O54 C53 1.261 . S
H55 C49 0.930 . S
H56 C51 0.930 . S
N57 Cu46 1.985 . S
N57 C59 1.335 . S
N57 C60 1.390 . S
N58 C59 1.345 . S
N58 C61 1.336 . S
C59 N57 1.335 . S
C59 N58 1.345 . S
C59 H64 0.930 . S
C60 N57 1.390 . S
C60 C61 1.346 . S
C60 H65 0.930 . S
C61 N58 1.336 . S
C61 C60 1.346 . S
C61 H68 0.929 . S
C62 O52 1.282 1_655 S
C62 O63 1.216 . S
O63 C62 1.216 . S
H64 C59 0.930 . S
H65 C60 0.930 . S
O66 Cu46 1.959 . S
O66 C53 1.251 1_455 S
H67 C50 0.926 1_455 S
H68 C61 0.929 . S
Cu69 N70 1.999 1_554 S
Cu69 O75 1.974 . S
Cu69 N80 1.985 1_545 S
Cu69 O89 1.954 1_545 S
N70 Cu69 1.999 1_556 S
N70 C72 1.263 . S
N70 C74 1.391 . S
N71 C72 1.358 . S
N71 C73 1.400 . S
C72 N70 1.263 . S
C72 N71 1.358 . S
C72 H78 0.930 . S
C73 N71 1.400 . S
C73 C74 1.352 . S
C73 H90 0.930 . S
C74 N70 1.391 . S
C74 C73 1.352 . S
C74 H79 0.928 1_545 S
O75 Cu69 1.974 . S
O75 C85 1.282 . S
C76 O77 1.261 . S
C76 O89 1.248 1_545 S
O77 C76 1.261 . S
H78 C72 0.930 . S
H79 C74 0.928 1_565 S
N80 Cu69 1.985 1_565 S
N80 C82 1.335 . S
N80 C83 1.390 1_565 S
N81 C82 1.345 . S
N81 C84 1.336 . S
C82 N80 1.335 . S
C82 N81 1.345 . S
C82 H87 0.930 . S
C83 N80 1.390 1_545 S
C83 C84 1.346 1_545 S
C83 H88 0.930 . S
C84 N81 1.336 . S
C84 C83 1.346 1_565 S
C84 H91 0.929 . S
C85 O75 1.282 . S
C85 O86 1.216 . S
O86 C85 1.216 . S
H87 C82 0.930 . S
H88 C83 0.930 . S
O89 Cu69 1.954 1_565 S
O89 C76 1.248 1_565 S
H90 C73 0.930 . S
H91 C84 0.929 . S
Cu92 N93 1.999 . S
Cu92 O98 1.974 . S
Cu92 N103 1.985 . S
Cu92 O112 1.959 . S
N93 Cu92 1.999 . S
N93 C95 1.263 . S
N93 C97 1.389 . S
N94 C95 1.358 . S
N94 C96 1.400 . S
C95 N93 1.263 . S
C95 N94 1.358 . S
C95 H101 0.930 . S
C96 N94 1.400 . S
C96 C97 1.351 . S
C96 H113 0.930 . S
C97 N93 1.389 . S
C97 C96 1.351 . S
C97 H102 0.930 . S
O98 Cu92 1.974 . S
O98 C108 1.282 . S
C99 O100 1.261 . S
C99 O112 1.251 . S
O100 C99 1.261 . S
H101 C95 0.930 . S
H102 C97 0.930 . S
N103 Cu92 1.985 . S
N103 C105 1.335 . S
N103 C106 1.390 . S
N104 C105 1.345 . S
N104 C107 1.336 . S
C105 N103 1.335 . S
C105 N104 1.345 . S
C105 H110 0.930 . S
C106 N103 1.390 . S
C106 C107 1.346 . S
C106 H111 0.930 . S
C107 N104 1.336 . S
C107 C106 1.346 . S
C107 H114 0.929 . S
C108 O98 1.282 . S
C108 O109 1.216 . S
O109 C108 1.216 . S
H110 C105 0.930 . S
H111 C106 0.930 . S
O112 Cu92 1.959 . S
O112 C99 1.251 . S
H113 C96 0.930 . S
H114 C107 0.929 . S
Cu115 N116 1.999 . S
Cu115 O121 1.974 . S
Cu115 N126 1.985 . S
Cu115 O135 1.959 . S
N116 Cu115 1.999 . S
N116 C118 1.263 . S
N116 C120 1.389 . S
N117 C118 1.358 . S
N117 C119 1.400 . S
C118 N116 1.263 . S
C118 N117 1.358 . S
C118 H124 0.930 . S
C119 N117 1.400 . S
C119 C120 1.351 . S
C119 H136 0.930 . S
C120 N116 1.389 . S
C120 C119 1.351 . S
C120 H125 0.930 . S
O121 Cu115 1.974 . S
O121 C131 1.282 . S
C122 O123 1.261 . S
C122 O135 1.251 . S
O123 C122 1.261 . S
H124 C118 0.930 . S
H125 C120 0.930 . S
N126 Cu115 1.985 . S
N126 C128 1.335 . S
N126 C129 1.390 . S
N127 C128 1.345 . S
N127 C130 1.336 . S
C128 N126 1.335 . S
C128 N127 1.345 . S
C128 H133 0.930 . S
C129 N126 1.390 . S
C129 C130 1.346 . S
C129 H134 0.930 . S
C130 N127 1.336 . S
C130 C129 1.346 . S
C130 H137 0.929 . S
C131 O121 1.282 . S
C131 O132 1.216 . S
O132 C131 1.216 . S
H133 C128 0.930 . S
H134 C129 0.930 . S
O135 Cu115 1.959 . S
O135 C122 1.251 . S
H136 C119 0.930 . S
H137 C130 0.929 . S
H138 C144 0.930 . S
H139 C148 0.930 . S
H140 C153 0.929 . S
H141 C151 0.929 . S
H142 C146 0.929 . S
H143 C152 0.929 . S
C144 H138 0.930 . S
C144 C145 1.367 . S
C144 C152 1.378 . S
C145 C144 1.367 . S
C145 C153 1.433 . S
C146 H142 0.929 . S
C146 C148 1.378 . S
C146 C150 1.350 . S
C147 C150 1.463 . S
C147 C152 1.350 . S
C147 N155 1.427 . S
C148 H139 0.930 . S
C148 C146 1.378 . S
C148 C149 1.367 . S
C149 C148 1.367 . S
C149 C151 1.433 . S
C150 C146 1.350 . S
C150 C147 1.463 . S
C150 N154 1.427 . S
C151 H141 0.929 . S
C151 C149 1.433 . S
C151 N154 1.384 . S
C152 H143 0.929 . S
C152 C144 1.378 . S
C152 C147 1.350 . S
C153 H140 0.929 . S
C153 C145 1.433 . S
C153 N155 1.384 . S
N154 C150 1.427 . S
N154 C151 1.384 . S
N155 C147 1.427 . S
N155 C153 1.384 . S
H156 C162 0.930 . S
H157 C166 0.930 . S
H158 C171 0.929 . S
H159 C169 0.929 . S
H160 C164 0.929 . S
H161 C170 0.929 . S
C162 H156 0.930 . S
C162 C163 1.367 . S
C162 C170 1.378 . S
C163 C162 1.367 . S
C163 C171 1.433 . S
C164 H160 0.929 . S
C164 C166 1.378 . S
C164 C168 1.350 . S
C165 C168 1.463 . S
C165 C170 1.350 . S
C165 N173 1.427 . S
C166 H157 0.930 . S
C166 C164 1.378 . S
C166 C167 1.367 . S
C167 C166 1.367 . S
C167 C169 1.433 . S
C168 C164 1.350 . S
C168 C165 1.463 . S
C168 N172 1.427 . S
C169 H159 0.929 . S
C169 C167 1.433 . S
C169 N172 1.384 . S
C170 H161 0.929 . S
C170 C162 1.378 . S
C170 C165 1.350 . S
C171 H158 0.929 . S
C171 C163 1.433 . S
C171 N173 1.384 . S
N172 C168 1.427 . S
N172 C169 1.384 . S
N173 C165 1.427 . S
N173 C171 1.384 . S
H174 C180 0.930 . S
H175 C184 0.930 . S
H176 C189 0.929 . S
H177 C187 0.929 . S
H178 C182 0.929 . S
H179 C188 0.929 . S
C180 H174 0.930 . S
C180 C181 1.367 . S
C180 C188 1.378 . S
C181 C180 1.367 . S
C181 C189 1.433 . S
C182 H178 0.929 . S
C182 C184 1.378 . S
C182 C186 1.350 . S
C183 C186 1.463 . S
C183 C188 1.350 . S
C183 N191 1.427 . S
C184 H175 0.930 . S
C184 C182 1.378 . S
C184 C185 1.367 . S
C185 C184 1.367 . S
C185 C187 1.433 . S
C186 C182 1.350 . S
C186 C183 1.463 . S
C186 N190 1.427 . S
C187 H177 0.929 . S
C187 C185 1.433 . S
C187 N190 1.384 . S
C188 H179 0.929 . S
C188 C180 1.378 . S
C188 C183 1.350 . S
C189 H176 0.929 . S
C189 C181 1.433 . S
C189 N191 1.384 . S
N190 C186 1.427 . S
N190 C187 1.384 . S
N191 C183 1.427 . S
N191 C189 1.384 . S
H192 C198 0.930 . S
H193 C202 0.930 . S
H194 C207 0.929 1_545 S
H195 C205 0.929 . S
H196 C200 0.929 . S
H197 C206 0.929 . S
C198 H192 0.930 . S
C198 C199 1.367 . S
C198 C206 1.378 . S
C199 C198 1.367 . S
C199 C207 1.433 . S
C200 H196 0.929 . S
C200 C202 1.378 . S
C200 C204 1.350 . S
C201 C204 1.463 . S
C201 C206 1.350 . S
C201 N209 1.427 . S
C202 H193 0.930 . S
C202 C200 1.378 . S
C202 C203 1.367 . S
C203 C202 1.367 . S
C203 C205 1.433 . S
C204 C200 1.350 . S
C204 C201 1.463 . S
C204 N208 1.427 . S
C205 H195 0.929 . S
C205 C203 1.433 . S
C205 N208 1.384 . S
C206 H197 0.929 . S
C206 C198 1.378 . S
C206 C201 1.350 . S
C207 H194 0.929 1_565 S
C207 C199 1.433 . S
C207 N209 1.384 . S
N208 C204 1.427 . S
N208 C205 1.384 . S
N209 C201 1.427 . S
N209 C207 1.384 . S
H210 C216 0.930 . S
H211 C220 0.930 . S
H212 C225 0.929 . S
H213 C223 0.929 . S
H214 C218 0.929 . S
H215 C224 0.929 . S
C216 H210 0.930 . S
C216 C217 1.367 . S
C216 C224 1.378 . S
C217 C216 1.367 . S
C217 C225 1.433 . S
C218 H214 0.929 . S
C218 C220 1.378 . S
C218 C222 1.350 . S
C219 C222 1.463 1_455 S
C219 C224 1.350 . S
C219 N227 1.427 1_455 S
C220 H211 0.930 . S
C220 C218 1.378 . S
C220 C221 1.367 . S
C221 C220 1.367 . S
C221 C223 1.433 1_655 S
C222 C218 1.350 . S
C222 C219 1.463 1_655 S
C222 N226 1.427 1_655 S
C223 H213 0.929 . S
C223 C221 1.433 1_455 S
C223 N226 1.384 . S
C224 H215 0.929 . S
C224 C216 1.378 . S
C224 C219 1.350 . S
C225 H212 0.929 . S
C225 C217 1.433 . S
C225 N227 1.384 1_455 S
N226 C222 1.427 1_455 S
N226 C223 1.384 . S
N227 C219 1.427 1_655 S
N227 C225 1.384 1_655 S
H228 C234 0.930 . S
H229 C238 0.930 . S
H230 C243 0.929 . S
H231 C241 0.929 . S
H232 C236 0.929 . S
H233 C242 0.929 . S
C234 H228 0.930 . S
C234 C235 1.367 . S
C234 C242 1.378 . S
C235 C234 1.367 . S
C235 C243 1.433 1_565 S
C236 H232 0.929 . S
C236 C238 1.378 . S
C236 C240 1.350 . S
C237 C240 1.463 . S
C237 C242 1.350 . S
C237 N245 1.427 . S
C238 H229 0.930 . S
C238 C236 1.378 . S
C238 C239 1.367 . S
C239 C238 1.367 . S
C239 C241 1.433 . S
C240 C236 1.350 . S
C240 C237 1.463 . S
C240 N244 1.427 . S
C241 H231 0.929 . S
C241 C239 1.433 . S
C241 N244 1.384 . S
C242 H233 0.929 . S
C242 C234 1.378 . S
C242 C237 1.350 . S
C243 H230 0.929 . S
C243 C235 1.433 1_545 S
C243 N245 1.384 1_545 S
N244 C240 1.427 . S
N244 C241 1.384 . S
N245 C237 1.427 . S
N245 C243 1.384 1_565 S
H246 C252 0.930 1_556 S
H247 C256 0.930 . S
H248 C261 0.929 . S
H249 C259 0.929 1_566 S
H250 C254 0.929 . S
H251 C260 0.929 1_556 S
C252 H246 0.930 1_554 S
C252 C253 1.367 1_565 S
C252 C260 1.378 . S
C253 C252 1.367 1_545 S
C253 C261 1.433 . S
C254 H250 0.929 . S
C254 C256 1.378 . S
C254 C258 1.350 . S
C255 C258 1.463 . S
C255 C260 1.350 1_545 S
C255 N263 1.427 . S
C256 H247 0.930 . S
C256 C254 1.378 . S
C256 C257 1.367 1_455 S
C257 C256 1.367 1_655 S
C257 C259 1.433 . S
C258 C254 1.350 . S
C258 C255 1.463 . S
C258 N262 1.428 . S
C259 H249 0.929 1_544 S
C259 C257 1.433 . S
C259 N262 1.388 1_655 S
C260 H251 0.929 1_554 S
C260 C252 1.378 . S
C260 C255 1.350 1_565 S
C261 H248 0.929 . S
C261 C253 1.433 . S
C261 N263 1.384 . S
N262 C258 1.428 . S
N262 C259 1.388 1_455 S
N263 C255 1.427 . S
N263 C261 1.384 . S
H264 C270 0.930 . S
H265 C274 0.930 . S
H266 C279 0.929 . S
H267 C277 0.929 . S
H268 C272 0.929 . S
H269 C278 0.929 . S
C270 H264 0.930 . S
C270 C271 1.367 . S
C270 C278 1.378 1_655 S
C271 C270 1.367 . S
C271 C279 1.433 . S
C272 H268 0.929 . S
C272 C274 1.378 . S
C272 C276 1.350 . S
C273 C276 1.463 . S
C273 C278 1.350 1_545 S
C273 N281 1.427 1_545 S
C274 H265 0.930 . S
C274 C272 1.378 . S
C274 C275 1.367 . S
C275 C274 1.367 . S
C275 C277 1.433 . S
C276 C272 1.350 . S
C276 C273 1.463 . S
C276 N280 1.427 . S
C277 H267 0.929 . S
C277 C275 1.433 . S
C277 N280 1.384 . S
C278 H269 0.929 . S
C278 C270 1.378 1_455 S
C278 C273 1.350 1_565 S
C279 H266 0.929 . S
C279 C271 1.433 . S
C279 N281 1.384 1_655 S
N280 C276 1.427 . S
N280 C277 1.384 . S
N281 C273 1.427 1_565 S
N281 C279 1.384 1_455 S
H282 C288 0.930 . S
H283 C292 0.930 . S
H284 C297 0.929 . S
H285 C295 0.929 . S
H286 C290 0.929 . S
H287 C296 0.929 1_565 S
C288 H282 0.930 . S
C288 C289 1.367 1_655 S
C288 C296 1.378 1_655 S
C289 C288 1.367 1_455 S
C289 C297 1.433 . S
C290 H286 0.929 . S
C290 C292 1.378 . S
C290 C294 1.350 . S
C291 C294 1.463 . S
C291 C296 1.350 . S
C291 N299 1.427 . S
C292 H283 0.930 . S
C292 C290 1.378 . S
C292 C293 1.367 1_545 S
C293 C292 1.367 1_565 S
C293 C295 1.433 . S
C294 C290 1.350 . S
C294 C291 1.463 . S
C294 N298 1.427 1_545 S
C295 H285 0.929 . S
C295 C293 1.433 . S
C295 N298 1.384 . S
C296 H287 0.929 1_545 S
C296 C288 1.378 1_455 S
C296 C291 1.350 . S
C297 H284 0.929 . S
C297 C289 1.433 . S
C297 N299 1.384 . S
N298 C294 1.427 1_565 S
N298 C295 1.384 . S
N299 C291 1.427 . S
N299 C297 1.384 . S
H300 C306 0.930 . S
H301 C310 0.930 . S
H302 C315 0.929 . S
H303 C313 0.929 . S
H304 C308 0.929 . S
H305 C314 0.929 1_565 S
C306 H300 0.930 . S
C306 C307 1.367 . S
C306 C314 1.378 . S
C307 C306 1.367 . S
C307 C315 1.433 1_554 S
C308 H304 0.929 . S
C308 C310 1.378 . S
C308 C312 1.350 1_556 S
C309 C312 1.463 . S
C309 C314 1.350 . S
C309 N317 1.427 1_554 S
C310 H301 0.930 . S
C310 C308 1.378 . S
C310 C311 1.367 1_556 S
C311 C310 1.367 1_554 S
C311 C313 1.433 1_545 S
C312 C308 1.350 1_554 S
C312 C309 1.463 . S
C312 N316 1.427 1_545 S
C313 H303 0.929 . S
C313 C311 1.433 1_565 S
C313 N316 1.384 . S
C314 H305 0.929 1_545 S
C314 C306 1.378 . S
C314 C309 1.350 . S
C315 H302 0.929 . S
C315 C307 1.433 1_556 S
C315 N317 1.384 . S
N316 C312 1.427 1_565 S
N316 C313 1.384 . S
N317 C309 1.427 1_556 S
N317 C315 1.384 . S
H318 C324 0.930 . S
H319 C328 0.930 . S
H320 C333 0.929 . S
H321 C331 0.929 . S
H322 C326 0.929 . S
H323 C332 0.929 . S
C324 H318 0.930 . S
C324 C325 1.367 . S
C324 C332 1.378 . S
C325 C324 1.367 . S
C325 C333 1.433 . S
C326 H322 0.929 . S
C326 C328 1.378 . S
C326 C330 1.350 . S
C327 C330 1.463 . S
C327 C332 1.350 . S
C327 N335 1.427 . S
C328 H319 0.930 . S
C328 C326 1.378 . S
C328 C329 1.367 . S
C329 C328 1.367 . S
C329 C331 1.433 . S
C330 C326 1.350 . S
C330 C327 1.463 . S
C330 N334 1.427 . S
C331 H321 0.929 . S
C331 C329 1.433 . S
C331 N334 1.384 . S
C332 H323 0.929 . S
C332 C324 1.378 . S
C332 C327 1.350 . S
C333 H320 0.929 . S
C333 C325 1.433 . S
C333 N335 1.384 . S
N334 C330 1.427 . S
N334 C331 1.384 . S
N335 C327 1.427 . S
N335 C333 1.384 . S
H336 C342 0.930 . S
H337 C346 0.930 1_655 S
H338 C351 0.929 . S
H339 C349 0.929 . S
H340 C344 0.929 . S
H341 C350 0.929 . S
C342 H336 0.930 . S
C342 C343 1.367 . S
C342 C350 1.378 . S
C343 C342 1.367 . S
C343 C351 1.433 . S
C344 H340 0.929 . S
C344 C346 1.378 . S
C344 C348 1.350 . S
C345 C348 1.463 . S
C345 C350 1.350 . S
C345 N353 1.427 . S
C346 H337 0.930 1_455 S
C346 C344 1.378 . S
C346 C347 1.367 . S
C347 C346 1.367 . S
C347 C349 1.433 . S
C348 C344 1.350 . S
C348 C345 1.463 . S
C348 N352 1.427 . S
C349 H339 0.929 . S
C349 C347 1.433 . S
C349 N352 1.384 . S
C350 H341 0.929 . S
C350 C342 1.378 . S
C350 C345 1.350 . S
C351 H338 0.929 . S
C351 C343 1.433 . S
C351 N353 1.384 . S
N352 C348 1.427 . S
N352 C349 1.384 . S
N353 C345 1.427 . S
N353 C351 1.384 . S
C145 N12 1.710 . S
C149 N25 1.611 . S
C163 N35 1.661 . S
C167 N58 1.645 . S
C181 N71 1.712 . S
C185 N48 1.683 . S
C199 N81 1.709 . S
C203 N94 1.609 . S
C217 N127 1.652 . S
C221 N104 1.658 . S
C235 N2 1.710 1_565 S
C239 N117 1.684 . S
C253 C7 1.753 . S
C257 C76 1.756 . S
C271 C99 0.153 . S
C275 C30 0.104 . S
C289 C53 1.574 1_455 S
C293 C122 1.575 . S
C307 C85 1.788 . S
C311 C16 1.793 . S
C325 C108 1.246 . S
C329 C39 1.238 . S
C343 C131 2.060 . S
C347 C62 2.066 1_455 S
