# Generated by pormake.
# Topology umc, (4)-cn, num edge types: 1
# Building blocks:
#     Node 0, Type 0, BuildingBlock: NAWXER_clean_sbu_0, # of connection points: 4
#     Node 1, Type 0, BuildingBlock: NAWXER_clean_sbu_0, # of connection points: 4
#     Node 2, Type 0, BuildingBlock: NAWXER_clean_sbu_0, # of connection points: 4
#     Node 3, Type 0, BuildingBlock: NAWXER_clean_sbu_0, # of connection points: 4
#     Node 4, Type 0, BuildingBlock: NAWXER_clean_sbu_0, # of connection points: 4
#     Node 5, Type 0, BuildingBlock: NAWXER_clean_sbu_0, # of connection points: 4
#     Node 6, Type 0, BuildingBlock: NAWXER_clean_sbu_0, # of connection points: 4
#     Node 7, Type 0, BuildingBlock: NAWXER_clean_sbu_0, # of connection points: 4
#     Node 8, Type 0, BuildingBlock: NAWXER_clean_sbu_0, # of connection points: 4
#     Node 9, Type 0, BuildingBlock: NAWXER_clean_sbu_0, # of connection points: 4
#     Node 10, Type 0, BuildingBlock: NAWXER_clean_sbu_0, # of connection points: 4
#     Node 11, Type 0, BuildingBlock: NAWXER_clean_sbu_0, # of connection points: 4
#     Node 12, Type 0, BuildingBlock: NAWXER_clean_sbu_0, # of connection points: 4
#     Node 13, Type 0, BuildingBlock: NAWXER_clean_sbu_0, # of connection points: 4
#     Node 14, Type 0, BuildingBlock: NAWXER_clean_sbu_0, # of connection points: 4
#     Node 15, Type 0, BuildingBlock: NAWXER_clean_sbu_0, # of connection points: 4
#     Edge 16, Type (0, 0), BuildingBlock: AJUNOK_clean_linker_0, # of connection points: 2
#     Edge 17, Type (0, 0), BuildingBlock: AJUNOK_clean_linker_0, # of connection points: 2
#     Edge 18, Type (0, 0), BuildingBlock: AJUNOK_clean_linker_0, # of connection points: 2
#     Edge 19, Type (0, 0), BuildingBlock: AJUNOK_clean_linker_0, # of connection points: 2
#     Edge 20, Type (0, 0), BuildingBlock: AJUNOK_clean_linker_0, # of connection points: 2
#     Edge 21, Type (0, 0), BuildingBlock: AJUNOK_clean_linker_0, # of connection points: 2
#     Edge 22, Type (0, 0), BuildingBlock: AJUNOK_clean_linker_0, # of connection points: 2
#     Edge 23, Type (0, 0), BuildingBlock: AJUNOK_clean_linker_0, # of connection points: 2
#     Edge 24, Type (0, 0), BuildingBlock: AJUNOK_clean_linker_0, # of connection points: 2
#     Edge 25, Type (0, 0), BuildingBlock: AJUNOK_clean_linker_0, # of connection points: 2
#     Edge 26, Type (0, 0), BuildingBlock: AJUNOK_clean_linker_0, # of connection points: 2
#     Edge 27, Type (0, 0), BuildingBlock: AJUNOK_clean_linker_0, # of connection points: 2
#     Edge 28, Type (0, 0), BuildingBlock: AJUNOK_clean_linker_0, # of connection points: 2
#     Edge 29, Type (0, 0), BuildingBlock: AJUNOK_clean_linker_0, # of connection points: 2
#     Edge 30, Type (0, 0), BuildingBlock: AJUNOK_clean_linker_0, # of connection points: 2
#     Edge 31, Type (0, 0), BuildingBlock: AJUNOK_clean_linker_0, # of connection points: 2
#     Edge 32, Type (0, 0), BuildingBlock: AJUNOK_clean_linker_0, # of connection points: 2
#     Edge 33, Type (0, 0), BuildingBlock: AJUNOK_clean_linker_0, # of connection points: 2
#     Edge 34, Type (0, 0), BuildingBlock: AJUNOK_clean_linker_0, # of connection points: 2
#     Edge 35, Type (0, 0), BuildingBlock: AJUNOK_clean_linker_0, # of connection points: 2
#     Edge 36, Type (0, 0), BuildingBlock: AJUNOK_clean_linker_0, # of connection points: 2
#     Edge 37, Type (0, 0), BuildingBlock: AJUNOK_clean_linker_0, # of connection points: 2
#     Edge 38, Type (0, 0), BuildingBlock: AJUNOK_clean_linker_0, # of connection points: 2
#     Edge 39, Type (0, 0), BuildingBlock: AJUNOK_clean_linker_0, # of connection points: 2
#     Edge 40, Type (0, 0), BuildingBlock: AJUNOK_clean_linker_0, # of connection points: 2
#     Edge 41, Type (0, 0), BuildingBlock: AJUNOK_clean_linker_0, # of connection points: 2
#     Edge 42, Type (0, 0), BuildingBlock: AJUNOK_clean_linker_0, # of connection points: 2
#     Edge 43, Type (0, 0), BuildingBlock: AJUNOK_clean_linker_0, # of connection points: 2
#     Edge 44, Type (0, 0), BuildingBlock: AJUNOK_clean_linker_0, # of connection points: 2
#     Edge 45, Type (0, 0), BuildingBlock: AJUNOK_clean_linker_0, # of connection points: 2
#     Edge 46, Type (0, 0), BuildingBlock: AJUNOK_clean_linker_0, # of connection points: 2
#     Edge 47, Type (0, 0), BuildingBlock: AJUNOK_clean_linker_0, # of connection points: 2
# Relax obj value: 0.015
# Max RMSD: 0.104
# Mean RMSD: 0.104
data_MOF--net-umc--node1-NAWXER_clean_sbu_0--edge1-AJUNOK_clean_linker_0
_symmetry_space_group_name_H-M    P1
_symmetry_Int_Tables_number       1
_symmetry_cell_setting            triclinic
loop_
_symmetry_equiv_pos_as_xyz
'x, y, z'
_cell_length_a     39.595704
_cell_length_b     16.188769
_cell_length_c     42.726317
_cell_angle_alpha  89.991054
_cell_angle_beta   90.015155
_cell_angle_gamma 90.030733
loop_
_atom_site_label
_atom_site_type_symbol
_atom_site_fract_x
_atom_site_fract_y
_atom_site_fract_z
_atom_type_partial_charge
C0 C 0.37521 0.97402 0.44001 0.0
C1 C 0.36715 0.00226 0.326 0.0
O2 O 0.38485 0.04416 0.4294 0.0
Zn3 Zn 0.38919 0.10802 0.38601 0.0
O4 O 0.36361 0.91978 0.42131 0.0
Zn5 Zn 0.37057 0.98441 0.38308 0.0
O6 O 0.42483 0.99655 0.38166 0.0
O7 O 0.43715 0.12912 0.38427 0.0
O8 O 0.36041 0.93819 0.34211 0.0
O9 O 0.37809 0.06719 0.33977 0.0
O10 O 0.35802 0.19883 0.39093 0.0
O11 O 0.33252 0.07826 0.38735 0.0
C12 C 0.44697 0.0545 0.38239 0.0
C13 C 0.33084 0.157 0.3901 0.0
C14 C 0.70219 0.8346 0.385 0.0
C15 C 0.58951 0.95945 0.38306 0.0
O16 O 0.70294 0.91387 0.38423 0.0
Zn17 Zn 0.66746 0.01542 0.38289 0.0
O18 O 0.67381 0.79768 0.38482 0.0
Zn19 Zn 0.64582 0.89488 0.38362 0.0
O20 O 0.65662 0.94112 0.33802 0.0
O21 O 0.67803 0.06615 0.34293 0.0
O22 O 0.5972 0.88327 0.38375 0.0
O23 O 0.61325 0.01334 0.38269 0.0
O24 O 0.6777 0.07269 0.42205 0.0
O25 O 0.65688 0.94717 0.42825 0.0
C26 C 0.66886 0.00649 0.32551 0.0
C27 C 0.66911 0.01357 0.43998 0.0
C28 C 0.37177 0.02002 0.07535 0.0
C29 C 0.36545 0.00059 0.18983 0.0
O30 O 0.38361 0.95293 0.08688 0.0
Zn31 Zn 0.39053 0.89422 0.13108 0.0
O32 O 0.35933 0.07422 0.09358 0.0
Zn33 Zn 0.36789 0.01373 0.13248 0.0
O34 O 0.42229 0.01243 0.13438 0.0
O35 O 0.43908 0.8828 0.13296 0.0
O36 O 0.35606 0.06091 0.17283 0.0
O37 O 0.37835 0.93668 0.17687 0.0
O38 O 0.3626 0.79722 0.1272 0.0
O39 O 0.33299 0.91232 0.12867 0.0
C40 C 0.44631 0.95927 0.13436 0.0
C41 C 0.33408 0.83327 0.12682 0.0
C42 C 0.66882 0.01428 0.18946 0.0
C43 C 0.66114 0.98801 0.07547 0.0
O44 O 0.65692 0.07864 0.17602 0.0
Zn45 Zn 0.645 0.11925 0.12995 0.0
O46 O 0.67651 0.95143 0.17307 0.0
Zn47 Zn 0.66534 0.99776 0.13242 0.0
O48 O 0.70209 0.09551 0.12784 0.0
O49 O 0.67431 0.21316 0.12509 0.0
O50 O 0.67288 0.93398 0.09416 0.0
O51 O 0.65047 0.05702 0.08632 0.0
O52 O 0.59696 0.13653 0.13201 0.0
O53 O 0.61085 0.00494 0.13439 0.0
C54 C 0.70224 0.17451 0.12526 0.0
C55 C 0.58804 0.06129 0.13402 0.0
C56 C 0.67073 0.01179 0.5753 0.0
C57 C 0.67077 0.00207 0.68981 0.0
O58 O 0.67969 0.07031 0.59336 0.0
Zn59 Zn 0.66954 0.01229 0.63241 0.0
O60 O 0.65844 0.9453 0.5869 0.0
Zn61 Zn 0.64753 0.89211 0.63136 0.0
O62 O 0.59889 0.88117 0.6312 0.0
O63 O 0.61531 0.01095 0.63257 0.0
O64 O 0.65836 0.93723 0.67707 0.0
O65 O 0.68018 0.06192 0.67259 0.0
O66 O 0.70481 0.91036 0.63074 0.0
O67 O 0.67533 0.79473 0.62987 0.0
C68 C 0.59142 0.95748 0.63203 0.0
C69 C 0.70382 0.83112 0.62978 0.0
C70 C 0.37669 0.97526 0.57471 0.0
C71 C 0.36922 0.00578 0.68861 0.0
O72 O 0.36518 0.92155 0.59366 0.0
Zn73 Zn 0.37264 0.98676 0.6316 0.0
O74 O 0.38667 0.04544 0.58504 0.0
Zn75 Zn 0.39157 0.11006 0.62829 0.0
O76 O 0.43963 0.13005 0.62988 0.0
O77 O 0.42688 0.99779 0.6329 0.0
O78 O 0.38039 0.07027 0.67469 0.0
O79 O 0.36229 0.94159 0.67265 0.0
O80 O 0.33499 0.08126 0.6271 0.0
O81 O 0.36063 0.20161 0.62324 0.0
C82 C 0.4492 0.05528 0.63199 0.0
C83 C 0.33339 0.15995 0.62416 0.0
C84 C 0.66072 0.98404 0.93996 0.0
C85 C 0.66909 0.00781 0.82584 0.0
O86 O 0.67234 0.92912 0.92158 0.0
Zn87 Zn 0.66498 0.99174 0.88293 0.0
O88 O 0.6502 0.05274 0.92873 0.0
Zn89 Zn 0.6449 0.11369 0.8849 0.0
O90 O 0.59694 0.13108 0.88257 0.0
O91 O 0.61053 -0.00073 0.88075 0.0
O92 O 0.65719 0.07237 0.83911 0.0
O93 O 0.67638 0.94485 0.84235 0.0
O94 O 0.70185 0.08924 0.88741 0.0
O95 O 0.67434 0.20738 0.88964 0.0
C96 C 0.58785 0.05593 0.88085 0.0
C97 C 0.70217 0.16828 0.88976 0.0
C98 C 0.37169 0.02193 0.93936 0.0
C99 C 0.3659 0.00448 0.82478 0.0
O100 O 0.36004 0.07747 0.92124 0.0
Zn101 Zn 0.368 0.01722 0.88218 0.0
O102 O 0.38271 0.95417 0.9277 0.0
Zn103 Zn 0.38912 0.89529 0.88352 0.0
O104 O 0.43778 0.88121 0.88186 0.0
O105 O 0.42212 0.0117 0.88052 0.0
O106 O 0.37784 0.93954 0.83781 0.0
O107 O 0.3571 0.06543 0.84173 0.0
O108 O 0.33198 0.91894 0.88565 0.0
O109 O 0.35935 0.80059 0.88709 0.0
C110 C 0.44567 0.95738 0.88056 0.0
C111 C 0.33153 0.83993 0.88742 0.0
C112 C 0.87317 0.47845 0.43832 0.0
C113 C 0.86741 0.50209 0.32384 0.0
O114 O 0.88334 0.54765 0.42723 0.0
Zn115 Zn 0.88929 0.60895 0.38355 0.0
O116 O 0.86249 0.42287 0.4197 0.0
Zn117 Zn 0.87011 0.48552 0.38101 0.0
O118 O 0.92432 0.49586 0.37966 0.0
O119 O 0.9374 0.62798 0.38211 0.0
O120 O 0.86008 0.4385 0.34002 0.0
O121 O 0.87851 0.56689 0.33754 0.0
O122 O 0.85861 0.70107 0.38737 0.0
O123 O 0.83255 0.581 0.38446 0.0
C124 C 0.94678 0.55305 0.38023 0.0
C125 C 0.83123 0.65992 0.38669 0.0
C126 C 0.16277 0.51358 0.43916 0.0
C127 C 0.17034 0.49678 0.32465 0.0
O128 O 0.15126 0.44659 0.42726 0.0
Zn129 Zn 0.14472 0.389 0.38284 0.0
O130 O 0.17506 0.56876 0.42124 0.0
Zn131 Zn 0.16697 0.50932 0.38202 0.0
O132 O 0.11268 0.5072 0.37986 0.0
O133 O 0.09617 0.37728 0.38058 0.0
O134 O 0.17913 0.55732 0.34183 0.0
O135 O 0.15747 0.43246 0.33737 0.0
O136 O 0.173 0.29234 0.38665 0.0
O137 O 0.20203 0.40849 0.38582 0.0
C138 C 0.08878 0.4537 0.37955 0.0
C139 C 0.20132 0.32938 0.38738 0.0
C140 C 0.87725 0.52467 0.07357 0.0
C141 C 0.86901 0.50153 0.18765 0.0
O142 O 0.88687 0.45487 0.08454 0.0
Zn143 Zn 0.89096 0.39268 0.12842 0.0
O144 O 0.86563 0.5795 0.09197 0.0
Zn145 Zn 0.87238 0.51611 0.13041 0.0
O146 O 0.92668 0.50441 0.13233 0.0
O147 O 0.93884 0.3717 0.13045 0.0
O148 O 0.86179 0.56395 0.17084 0.0
O149 O 0.87999 0.43577 0.17448 0.0
O150 O 0.85979 0.30136 0.12389 0.0
O151 O 0.83439 0.42216 0.12622 0.0
C152 C 0.94874 0.44632 0.13205 0.0
C153 C 0.83265 0.34334 0.12393 0.0
C154 C 0.09162 0.53885 0.13188 0.0
C155 C 0.20606 0.65384 0.12424 0.0
O156 O 0.11494 0.48395 0.13275 0.0
Zn157 Zn 0.16918 0.47763 0.13148 0.0
O158 O 0.09983 0.61469 0.12985 0.0
Zn159 Zn 0.14835 0.59944 0.12822 0.0
O160 O 0.15411 0.53546 0.08495 0.0
O161 O 0.17746 0.41354 0.09338 0.0
O162 O 0.1783 0.69336 0.12333 0.0
O163 O 0.20544 0.57508 0.12714 0.0
O164 O 0.17988 0.43325 0.17263 0.0
O165 O 0.15986 0.56023 0.17457 0.0
C166 C 0.16509 0.46633 0.07453 0.0
C167 C 0.17183 0.49674 0.18854 0.0
C168 C 0.16257 0.51208 0.57524 0.0
C169 C 0.17012 0.49502 0.68965 0.0
O170 O 0.17391 0.56792 0.59338 0.0
Zn171 Zn 0.16642 0.50699 0.63233 0.0
O172 O 0.15197 0.44387 0.58688 0.0
Zn173 Zn 0.1463 0.38547 0.63133 0.0
O174 O 0.09842 0.36779 0.63349 0.0
O175 O 0.11185 0.49978 0.63436 0.0
O176 O 0.15829 0.42945 0.67698 0.0
O177 O 0.17787 0.55625 0.67243 0.0
O178 O 0.20327 0.40901 0.6285 0.0
O179 O 0.1754 0.29123 0.62746 0.0
C180 C 0.08923 0.44289 0.6346 0.0
C181 C 0.20334 0.32982 0.62683 0.0
C182 C 0.83213 0.65296 0.6279 0.0
C183 C 0.94673 0.53835 0.63368 0.0
O184 O 0.85982 0.69296 0.62785 0.0
Zn185 Zn 0.88996 0.59894 0.63067 0.0
O186 O 0.83289 0.57391 0.62918 0.0
Zn187 Zn 0.86931 0.47638 0.63165 0.0
O188 O 0.85865 0.42665 0.67192 0.0
O189 O 0.87885 0.55308 0.67618 0.0
O190 O 0.9234 0.4834 0.63348 0.0
O191 O 0.93856 0.61431 0.63246 0.0
O192 O 0.88363 0.54135 0.58627 0.0
O193 O 0.86144 0.41735 0.59224 0.0
C194 C 0.86713 0.48762 0.68903 0.0
C195 C 0.87284 0.47368 0.57433 0.0
C196 C 0.16533 0.46771 0.93978 0.0
C197 C 0.17222 0.4974 0.82576 0.0
O198 O 0.17867 0.41615 0.92103 0.0
Zn199 Zn 0.16976 0.47945 0.88284 0.0
O200 O 0.15345 0.53582 0.92923 0.0
Zn201 Zn 0.14717 0.59872 0.8858 0.0
O202 O 0.09875 0.61087 0.88389 0.0
O203 O 0.11522 0.48107 0.88124 0.0
O204 O 0.15934 0.56009 0.83953 0.0
O205 O 0.18118 0.43499 0.84186 0.0
O206 O 0.20479 0.58052 0.88704 0.0
O207 O 0.17519 0.69526 0.89064 0.0
C208 C 0.09133 0.5346 0.88189 0.0
C209 C 0.20372 0.65939 0.88976 0.0
C210 C 0.8775 0.52004 0.9389 0.0
C211 C 0.86893 0.48677 0.82519 0.0
O212 O 0.86593 0.57345 0.91986 0.0
Zn213 Zn 0.87269 0.50708 0.88213 0.0
O214 O 0.88712 0.4494 0.92875 0.0
Zn215 Zn 0.89131 0.38355 0.88571 0.0
O216 O 0.93933 0.36279 0.88388 0.0
O217 O 0.92686 0.49512 0.88046 0.0
O218 O 0.87999 0.42241 0.83925 0.0
O219 O 0.86217 0.5513 0.841 0.0
O220 O 0.83478 0.41353 0.88743 0.0
O221 O 0.86006 0.2928 0.89138 0.0
C222 C 0.94905 0.43741 0.88142 0.0
C223 C 0.83296 0.33497 0.89072 0.0
C224 C 0.35264 0.91952 0.49114 0.0
C225 C 0.37843 0.95879 0.47399 0.0
C226 C 0.35301 0.91986 0.52415 0.0
C227 C 0.37917 0.95949 0.54071 0.0
H228 H 0.33116 0.89293 0.47909 0.0
H229 H 0.3318 0.8935 0.53667 0.0
S230 S 0.45566 0.05627 0.50649 0.0
N231 N 0.433 0.0274 0.47596 0.0
N232 N 0.43368 0.02807 0.53752 0.0
C233 C 0.40629 0.99282 0.52368 0.0
C234 C 0.40592 0.99246 0.49041 0.0
C235 C 0.6693 0.09019 0.5243 0.0
C236 C 0.67511 0.01652 0.54098 0.0
C237 C 0.66884 0.09058 0.4913 0.0
C238 C 0.67417 0.01731 0.47424 0.0
H239 H 0.66353 0.14672 0.53675 0.0
H240 H 0.66276 0.14743 0.47917 0.0
S241 S 0.69687 0.81235 0.50702 0.0
N242 N 0.69084 0.87157 0.53794 0.0
N243 N 0.68999 0.87229 0.47644 0.0
C244 C 0.68231 0.94495 0.49077 0.0
C245 C 0.68278 0.94456 0.52403 0.0
C246 C 0.39468 0.9795 0.02356 0.0
C247 C 0.37306 0.03109 0.04086 0.0
C248 C 0.39468 0.98002 0.99095 0.0
C249 C 0.37307 0.03217 0.97386 0.0
H250 H 0.41149 0.93666 0.03526 0.0
H251 H 0.41148 0.93755 0.97906 0.0
S252 S 0.31332 0.18443 0.00766 0.0
N253 N 0.3308 0.13999 0.03849 0.0
N254 N 0.33081 0.14094 0.97666 0.0
C255 C 0.3524 0.08727 0.99067 0.0
C256 C 0.35238 0.08673 0.02427 0.0
C257 C 0.63611 0.02128 0.99131 0.0
C258 C 0.65894 0.97222 0.97432 0.0
C259 C 0.63626 0.02238 0.02392 0.0
C260 C 0.65923 0.97444 0.04121 0.0
H261 H 0.61839 0.06131 0.97933 0.0
H262 H 0.61863 0.06316 0.03564 0.0
S263 S 0.7223 0.82914 0.00823 0.0
N264 N 0.70365 0.86948 0.97717 0.0
N265 N 0.7039 0.87148 0.03902 0.0
C266 C 0.68097 0.92115 0.02472 0.0
C267 C 0.68083 0.92005 0.99115 0.0
C268 C 0.89554 0.51783 0.52288 0.0
C269 C 0.87429 0.46433 0.53977 0.0
C270 C 0.89564 0.51891 0.49027 0.0
C271 C 0.8745 0.46655 0.47276 0.0
H272 H 0.91198 0.56089 0.53492 0.0
H273 H 0.91214 0.56277 0.47871 0.0
S274 S 0.81576 0.30996 0.50534 0.0
N275 N 0.83284 0.35366 0.53653 0.0
N276 N 0.83304 0.35573 0.47469 0.0
C277 C 0.8542 0.40966 0.48913 0.0
C278 C 0.85408 0.40855 0.52273 0.0
C279 C 0.1407 0.46835 0.52342 0.0
C280 C 0.16125 0.52251 0.54073 0.0
C281 C 0.14075 0.46872 0.49081 0.0
C282 C 0.16139 0.52322 0.47371 0.0
H283 H 0.12468 0.42371 0.53512 0.0
H284 H 0.12475 0.42434 0.47895 0.0
S285 S 0.21817 0.68233 0.50757 0.0
N286 N 0.20146 0.63605 0.53838 0.0
N287 N 0.2016 0.63671 0.47656 0.0
C288 C 0.18103 0.58061 0.49055 0.0
C289 C 0.18095 0.58027 0.52414 0.0
C290 C 0.85451 0.57699 0.98942 0.0
C291 C 0.88039 0.53658 0.97281 0.0
C292 C 0.85444 0.57806 0.02241 0.0
C293 C 0.88024 0.53871 0.03951 0.0
H294 H 0.83327 0.60344 0.97697 0.0
H295 H 0.83316 0.60534 0.03452 0.0
S296 S 0.9569 0.43937 0.00679 0.0
N297 N 0.93472 0.46722 0.97583 0.0
N298 N 0.93458 0.46918 0.03739 0.0
C299 C 0.90747 0.50421 0.02302 0.0
C300 C 0.90755 0.50316 0.98975 0.0
C301 C 0.18955 0.41537 0.02365 0.0
C302 C 0.16263 0.45064 0.04052 0.0
C303 C 0.18963 0.41586 0.99064 0.0
C304 C 0.1628 0.45165 0.97378 0.0
H305 H 0.21148 0.39195 0.03594 0.0
H306 H 0.21161 0.39272 0.97837 0.0
S307 S 0.08359 0.53654 0.00717 0.0
N308 N 0.10653 0.51102 0.03795 0.0
N309 N 0.10664 0.51187 0.97638 0.0
C310 C 0.13468 0.48077 0.99051 0.0
C311 C 0.1346 0.48028 0.02379 0.0
C312 C 0.52759 0.92647 0.38162 0.0
C313 C 0.55348 0.986 0.38262 0.0
C314 C 0.49346 0.94944 0.38128 0.0
C315 C 0.48356 0.03305 0.38196 0.0
H316 H 0.53365 0.86124 0.38114 0.0
H317 H 0.47469 0.90077 0.38064 0.0
S318 S 0.54135 0.21374 0.3845 0.0
N319 N 0.56673 0.13294 0.38414 0.0
N320 N 0.50266 0.17585 0.38353 0.0
C321 C 0.50915 0.09343 0.38284 0.0
C322 C 0.54401 0.07002 0.38316 0.0
C323 C 0.5085 0.92893 0.13501 0.0
C324 C 0.48216 0.98727 0.13526 0.0
C325 C 0.54247 0.95356 0.13496 0.0
C326 C 0.55169 0.03767 0.13511 0.0
H327 H 0.50294 0.86343 0.13462 0.0
H328 H 0.56165 0.90588 0.13451 0.0
S329 S 0.49251 0.21561 0.13663 0.0
N330 N 0.46777 0.13357 0.13631 0.0
N331 N 0.53147 0.17955 0.13617 0.0
C332 C 0.52563 0.09679 0.13573 0.0
C333 C 0.49098 0.07172 0.13582 0.0
C334 C 0.52939 0.92566 0.63291 0.0
C335 C 0.55548 0.98472 0.63235 0.0
C336 C 0.49533 0.9493 0.63305 0.0
C337 C 0.48571 0.03311 0.63258 0.0
H338 H 0.53523 0.86031 0.63321 0.0
H339 H 0.4764 0.90099 0.63335 0.0
S340 S 0.5441 0.21274 0.63123 0.0
N341 N 0.56922 0.13144 0.6315 0.0
N342 N 0.50529 0.17557 0.63171 0.0
C343 C 0.5115 0.09301 0.63213 0.0
C344 C 0.54628 0.06893 0.63203 0.0
C345 C 0.54187 0.94898 0.87999 0.0
C346 C 0.55143 0.0329 0.87978 0.0
C347 C 0.50778 0.92514 0.87998 0.0
C348 C 0.48169 0.98412 0.87971 0.0
H349 H 0.56087 0.90089 0.88045 0.0
H350 H 0.50192 0.85979 0.8804 0.0
S351 S 0.49298 0.21229 0.87826 0.0
N352 N 0.53178 0.17524 0.87869 0.0
N353 N 0.46793 0.13085 0.87863 0.0
C354 C 0.49087 0.06839 0.87911 0.0
C355 C 0.52561 0.09262 0.87916 0.0
C356 C 0.99268 0.44649 0.37835 0.0
C357 C 0.98322 0.53041 0.37924 0.0
C358 C 0.0267 0.42247 0.37817 0.0
C359 C 0.05289 0.48123 0.37881 0.0
H360 H 0.97365 0.39841 0.37802 0.0
H361 H 0.03242 0.35706 0.3777 0.0
S362 S 0.04194 0.70938 0.3806 0.0
N363 N 1.00306 0.67263 0.3803 0.0
N364 N 0.0669 0.62781 0.37992 0.0
C365 C 0.04385 0.56555 0.37936 0.0
C366 C 1.00912 0.59001 0.37959 0.0
C367 C 0.02979 0.57328 0.13387 0.0
C368 C 0.05546 0.5133 0.13261 0.0
C369 C 0.99555 0.55085 0.13399 0.0
C370 C 0.98538 0.46742 0.1328 0.0
H371 H 0.0361 0.63835 0.13468 0.0
H372 H 0.97692 0.59976 0.13485 0.0
S373 S 0.04255 0.28584 0.12919 0.0
N374 N 0.06819 0.36617 0.13016 0.0
N375 N 1.00401 0.3244 0.13038 0.0
C376 C 1.01077 0.40667 0.13167 0.0
C377 C 0.04568 0.42947 0.13158 0.0
C378 C 1.00875 0.57207 0.63373 0.0
C379 C 0.98285 0.51256 0.63483 0.0
C380 C 0.04293 0.54899 0.63401 0.0
C381 C 0.05275 0.46536 0.63537 0.0
H382 H 1.00267 0.63719 0.6324 0.0
H383 H 0.06179 0.59739 0.63284 0.0
S384 S 0.99487 0.28498 0.63964 0.0
N385 N 0.96956 0.36578 0.63809 0.0
N386 N 0.03354 0.32281 0.63857 0.0
C387 C 0.02711 0.40518 0.63687 0.0
C388 C 0.99231 0.42863 0.63661 0.0
C389 C 0.0294 0.56648 0.87945 0.0
C390 C 0.05539 0.50741 0.88095 0.0
C391 C 0.99532 0.54298 0.87924 0.0
C392 C 0.98559 0.45927 0.88061 0.0
H393 H 0.03532 0.63177 0.87854 0.0
H394 H 0.97645 0.59133 0.87825 0.0
S395 S 0.04375 0.27965 0.88465 0.0
N396 N 0.06896 0.3608 0.88364 0.0
N397 N 1.00498 0.31688 0.88329 0.0
C398 C 1.0113 0.39933 0.88191 0.0
C399 C 0.0461 0.42329 0.88207 0.0
C400 C 0.26444 0.32657 0.39099 0.0
C401 C 0.23367 0.28292 0.38941 0.0
C402 C 0.29555 0.28543 0.39177 0.0
C403 C 0.29736 0.1987 0.39097 0.0
H404 H 0.26467 0.39346 0.39135 0.0
H405 H 0.31838 0.32227 0.3926 0.0
S406 S 0.22418 0.05474 0.3879 0.0
N407 N 0.207 0.14758 0.38788 0.0
N408 N 0.26535 0.07011 0.38937 0.0
C409 C 0.26675 0.15401 0.38994 0.0
C410 C 0.235 0.19606 0.38916 0.0
C411 C 0.76543 0.8309 0.38562 0.0
C412 C 0.73449 0.78778 0.38612 0.0
C413 C 0.79643 0.78923 0.38624 0.0
C414 C 0.79794 0.70249 0.38737 0.0
H415 H 0.76586 0.89774 0.38453 0.0
H416 H 0.81939 0.82559 0.38549 0.0
S417 S 0.72429 0.55998 0.39023 0.0
N418 N 0.70739 0.65303 0.38862 0.0
N419 N 0.76553 0.57462 0.38982 0.0
C420 C 0.7672 0.65841 0.38831 0.0
C421 C 0.73556 0.70099 0.38768 0.0
C422 C 0.24006 0.78471 0.12371 0.0
C423 C 0.23905 0.69788 0.12329 0.0
C424 C 0.27084 0.82754 0.1245 0.0
C425 C 0.30202 0.7855 0.12485 0.0
H426 H 0.21688 0.82021 0.1239 0.0
H427 H 0.27005 0.8944 0.12514 0.0
S428 S 0.31355 0.55792 0.12264 0.0
N429 N 0.27224 0.57112 0.12225 0.0
N430 N 0.32989 0.65164 0.12377 0.0
C431 C 0.30144 0.69864 0.12384 0.0
C432 C 0.27007 0.65491 0.12305 0.0
C433 C 0.76556 0.17497 0.12452 0.0
C434 C 0.73498 0.21943 0.12337 0.0
C435 C 0.7969 0.2153 0.1241 0.0
C436 C 0.7991 0.30194 0.12256 0.0
H437 H 0.76542 0.1082 0.12614 0.0
H438 H 0.81957 0.17804 0.12549 0.0
S439 S 0.72664 0.44746 0.11753 0.0
N440 N 0.709 0.35524 0.11949 0.0
N441 N 0.76774 0.43102 0.11866 0.0
C442 C 0.76873 0.34724 0.12074 0.0
C443 C 0.73677 0.30608 0.12115 0.0
C444 C 0.76709 0.82597 0.62849 0.0
C445 C 0.73596 0.78361 0.62864 0.0
C446 C 0.79793 0.78346 0.62788 0.0
C447 C 0.79906 0.69664 0.6274 0.0
H448 H 0.7678 0.89284 0.62901 0.0
H449 H 0.82106 0.81921 0.62805 0.0
S450 S 0.72473 0.5559 0.62672 0.0
N451 N 0.70827 0.64947 0.62766 0.0
N452 N 0.76602 0.56951 0.62648 0.0
C453 C 0.76809 0.65334 0.62717 0.0
C454 C 0.73666 0.69675 0.6278 0.0
C455 C 0.26661 0.32891 0.62416 0.0
C456 C 0.23596 0.28459 0.62481 0.0
C457 C 0.29787 0.2883 0.62335 0.0
C458 C 0.2999 0.20155 0.6232 0.0
H459 H 0.26659 0.39581 0.62459 0.0
H460 H 0.32063 0.32548 0.6233 0.0
S461 S 0.22712 0.05615 0.62343 0.0
N462 N 0.2097 0.14866 0.62433 0.0
N463 N 0.26825 0.07238 0.62277 0.0
C464 C 0.26942 0.15632 0.62326 0.0
C465 C 0.23757 0.19775 0.62407 0.0
C466 C 0.76548 0.16767 0.89076 0.0
C467 C 0.73502 0.21268 0.89167 0.0
C468 C 0.79693 0.20747 0.89113 0.0
C469 C 0.79935 0.29409 0.89237 0.0
H470 H 0.76516 0.10087 0.88934 0.0
H471 H 0.8195 0.16984 0.88988 0.0
S472 S 0.72729 0.44091 0.89684 0.0
N473 N 0.7094 0.34896 0.8951 0.0
N474 N 0.76834 0.42377 0.89585 0.0
C475 C 0.7691 0.33994 0.89401 0.0
C476 C 0.73704 0.29932 0.89365 0.0
C477 C 0.26701 0.66561 0.88962 0.0
C478 C 0.23578 0.70738 0.89065 0.0
C479 C 0.29773 0.70873 0.88898 0.0
C480 C 0.29864 0.79558 0.88929 0.0
H481 H 0.26786 0.59876 0.88899 0.0
H482 H 0.32093 0.67343 0.88788 0.0
S483 S 0.22403 0.93489 0.89296 0.0
N484 N 0.2078 0.84101 0.89272 0.0
N485 N 0.26533 0.92206 0.89155 0.0
C486 C 0.2676 0.83827 0.89082 0.0
C487 C 0.23629 0.79426 0.8915 0.0
C488 C 0.3655 0.9286 0.27449 0.0
C489 C 0.36347 0.0027 0.29146 0.0
C490 C 0.36533 0.92874 0.24168 0.0
C491 C 0.36265 0.00286 0.22448 0.0
H492 H 0.36838 0.87021 0.28659 0.0
H493 H 0.3678 0.87006 0.22971 0.0
S494 S 0.35345 0.21312 0.25791 0.0
N495 N 0.35645 0.15198 0.28871 0.0
N496 N 0.35586 0.15194 0.22709 0.0
C497 C 0.35911 0.0771 0.24119 0.0
C498 C 0.35964 0.07708 0.27463 0.0
C499 C 0.67048 0.93848 0.24046 0.0
C500 C 0.67212 0.01345 0.224 0.0
C501 C 0.67006 0.93715 0.27325 0.0
C502 C 0.67176 0.01063 0.29092 0.0
H503 H 0.66835 0.8805 0.22795 0.0
H504 H 0.668 0.8778 0.28481 0.0
S505 S 0.67949 0.22286 0.25896 0.0
N506 N 0.6776 0.16295 0.22774 0.0
N507 N 0.67715 0.16018 0.28936 0.0
C508 C 0.67485 0.08582 0.27475 0.0
C509 C 0.6749 0.08728 0.24132 0.0
C510 C 0.67094 0.93257 0.77473 0.0
C511 C 0.67295 0.00718 0.79136 0.0
C512 C 0.67094 0.93179 0.74193 0.0
C513 C 0.67343 0.00547 0.72443 0.0
H514 H 0.66816 0.87453 0.78709 0.0
H515 H 0.66853 0.87273 0.73021 0.0
S516 S 0.6826 0.21673 0.75697 0.0
N517 N 0.67979 0.15642 0.78802 0.0
N518 N 0.6801 0.15468 0.7264 0.0
C519 C 0.67697 0.08022 0.74081 0.0
C520 C 0.67661 0.08113 0.77424 0.0
C521 C 0.36544 0.93276 0.77295 0.0
C522 C 0.36358 0.00708 0.79011 0.0
C523 C 0.36609 0.93258 0.74015 0.0
C524 C 0.36536 0.00679 0.72314 0.0
H525 H 0.36687 0.87391 0.78495 0.0
H526 H 0.36825 0.87394 0.72811 0.0
S527 S 0.35799 0.218 0.75657 0.0
N528 N 0.35905 0.15664 0.78743 0.0
N529 N 0.36052 0.15662 0.72581 0.0
C530 C 0.3624 0.08149 0.73992 0.0
C531 C 0.36139 0.08157 0.77336 0.0
C532 C 0.86811 0.42902 0.23944 0.0
C533 C 0.86563 0.5033 0.22228 0.0
C534 C 0.8673 0.4285 0.27227 0.0
C535 C 0.86438 0.50235 0.28926 0.0
H536 H 0.87121 0.37053 0.22748 0.0
H537 H 0.87015 0.37012 0.28437 0.0
S538 S 0.8541 0.71282 0.25585 0.0
N539 N 0.85786 0.65214 0.225 0.0
N540 N 0.85655 0.65136 0.28659 0.0
C541 C 0.86066 0.57678 0.27246 0.0
C542 C 0.86119 0.57723 0.23903 0.0
C543 C 0.17269 0.42441 0.273 0.0
C544 C 0.17402 0.49892 0.29009 0.0
C545 C 0.17337 0.42385 0.24019 0.0
C546 C 0.17492 0.49786 0.22313 0.0
H547 H 0.17061 0.36573 0.28504 0.0
H548 H 0.17147 0.36513 0.22816 0.0
S549 S 0.18154 0.70934 0.25642 0.0
N550 N 0.1791 0.64838 0.28732 0.0
N551 N 0.18006 0.64763 0.22569 0.0
C552 C 0.17744 0.5727 0.23987 0.0
C553 C 0.17712 0.57318 0.27331 0.0
C554 C 0.17418 0.42362 0.77431 0.0
C555 C 0.1752 0.498 0.79118 0.0
C556 C 0.17328 0.42358 0.7415 0.0
C557 C 0.17385 0.49785 0.72422 0.0
H558 H 0.17284 0.36505 0.78651 0.0
H559 H 0.17164 0.3646 0.72962 0.0
S560 S 0.17982 0.70919 0.75735 0.0
N561 N 0.17905 0.64792 0.78823 0.0
N562 N 0.1777 0.64762 0.72661 0.0
C563 C 0.17643 0.57255 0.7408 0.0
C564 C 0.17696 0.57265 0.77424 0.0
C565 C 0.86602 0.55932 0.74081 0.0
C566 C 0.86444 0.48493 0.72367 0.0
C567 C 0.86624 0.55963 0.77361 0.0
C568 C 0.86531 0.4855 0.79064 0.0
H569 H 0.86758 0.61816 0.72882 0.0
H570 H 0.86825 0.61834 0.78563 0.0
S571 S 0.85835 0.27415 0.75724 0.0
N572 N 0.85984 0.33538 0.72637 0.0
N573 N 0.86048 0.33564 0.78801 0.0
C574 C 0.86256 0.41071 0.77387 0.0
C575 C 0.86201 0.4105 0.74042 0.0
loop_
_geom_bond_atom_site_label_1
_geom_bond_atom_site_label_2
_geom_bond_distance
_geom_bond_site_symmetry_2
_ccdc_geom_bond_type
C0 O2 1.247 . S
C0 O4 1.258 . S
C1 O8 1.247 . S
C1 O9 1.258 . S
O2 C0 1.247 . S
O2 Zn3 2.028 . S
Zn3 O2 2.028 . S
Zn3 O7 2.035 . S
Zn3 O9 2.035 . S
Zn3 O10 2.028 . S
O4 C0 1.258 . S
O4 Zn5 2.035 . S
Zn5 O4 2.035 . S
Zn5 O6 2.028 . S
Zn5 O8 2.028 . S
Zn5 O11 2.035 . S
O6 Zn5 2.028 . S
O6 C12 1.247 . S
O7 Zn3 2.035 . S
O7 C12 1.258 . S
O8 C1 1.247 . S
O8 Zn5 2.028 . S
O9 C1 1.258 . S
O9 Zn3 2.035 . S
O10 Zn3 2.028 . S
O10 C13 1.247 . S
O11 Zn5 2.035 . S
O11 C13 1.258 . S
C12 O6 1.247 . S
C12 O7 1.258 . S
C13 O10 1.247 . S
C13 O11 1.258 . S
C14 O16 1.247 . S
C14 O18 1.258 . S
C15 O22 1.247 . S
C15 O23 1.258 . S
O16 C14 1.247 . S
O16 Zn17 2.028 . S
Zn17 O16 2.028 . S
Zn17 O21 2.035 . S
Zn17 O23 2.035 . S
Zn17 O24 2.028 . S
O18 C14 1.258 . S
O18 Zn19 2.035 . S
Zn19 O18 2.035 . S
Zn19 O20 2.028 . S
Zn19 O22 2.028 . S
Zn19 O25 2.035 . S
O20 Zn19 2.028 . S
O20 C26 1.247 . S
O21 Zn17 2.035 . S
O21 C26 1.258 . S
O22 C15 1.247 . S
O22 Zn19 2.028 . S
O23 C15 1.258 . S
O23 Zn17 2.035 . S
O24 Zn17 2.028 . S
O24 C27 1.247 . S
O25 Zn19 2.035 . S
O25 C27 1.258 . S
C26 O20 1.247 . S
C26 O21 1.258 . S
C27 O24 1.247 . S
C27 O25 1.258 . S
C28 O30 1.247 . S
C28 O32 1.258 . S
C29 O36 1.247 . S
C29 O37 1.258 . S
O30 C28 1.247 . S
O30 Zn31 2.028 . S
Zn31 O30 2.028 . S
Zn31 O35 2.035 . S
Zn31 O37 2.035 . S
Zn31 O38 2.028 . S
O32 C28 1.258 . S
O32 Zn33 2.035 . S
Zn33 O32 2.035 . S
Zn33 O34 2.028 . S
Zn33 O36 2.028 . S
Zn33 O39 2.035 . S
O34 Zn33 2.028 . S
O34 C40 1.247 . S
O35 Zn31 2.035 . S
O35 C40 1.258 . S
O36 C29 1.247 . S
O36 Zn33 2.028 . S
O37 C29 1.258 . S
O37 Zn31 2.035 . S
O38 Zn31 2.028 . S
O38 C41 1.247 . S
O39 Zn33 2.035 . S
O39 C41 1.258 . S
C40 O34 1.247 . S
C40 O35 1.258 . S
C41 O38 1.247 . S
C41 O39 1.258 . S
C42 O44 1.247 . S
C42 O46 1.258 . S
C43 O50 1.247 . S
C43 O51 1.258 . S
O44 C42 1.247 . S
O44 Zn45 2.028 . S
Zn45 O44 2.028 . S
Zn45 O49 2.035 . S
Zn45 O51 2.035 . S
Zn45 O52 2.028 . S
O46 C42 1.258 . S
O46 Zn47 2.035 . S
Zn47 O46 2.035 . S
Zn47 O48 2.028 . S
Zn47 O50 2.028 . S
Zn47 O53 2.035 . S
O48 Zn47 2.028 . S
O48 C54 1.247 . S
O49 Zn45 2.035 . S
O49 C54 1.258 . S
O50 C43 1.247 . S
O50 Zn47 2.028 . S
O51 C43 1.258 . S
O51 Zn45 2.035 . S
O52 Zn45 2.028 . S
O52 C55 1.247 . S
O53 Zn47 2.035 . S
O53 C55 1.258 . S
C54 O48 1.247 . S
C54 O49 1.258 . S
C55 O52 1.247 . S
C55 O53 1.258 . S
C56 O58 1.247 . S
C56 O60 1.258 . S
C57 O64 1.247 . S
C57 O65 1.258 . S
O58 C56 1.247 . S
O58 Zn59 2.028 . S
Zn59 O58 2.028 . S
Zn59 O63 2.035 . S
Zn59 O65 2.035 . S
Zn59 O66 2.028 . S
O60 C56 1.258 . S
O60 Zn61 2.035 . S
Zn61 O60 2.035 . S
Zn61 O62 2.028 . S
Zn61 O64 2.028 . S
Zn61 O67 2.035 . S
O62 Zn61 2.028 . S
O62 C68 1.247 . S
O63 Zn59 2.035 . S
O63 C68 1.258 . S
O64 C57 1.247 . S
O64 Zn61 2.028 . S
O65 C57 1.258 . S
O65 Zn59 2.035 . S
O66 Zn59 2.028 . S
O66 C69 1.247 . S
O67 Zn61 2.035 . S
O67 C69 1.258 . S
C68 O62 1.247 . S
C68 O63 1.258 . S
C69 O66 1.247 . S
C69 O67 1.258 . S
C70 O72 1.247 . S
C70 O74 1.258 . S
C71 O78 1.247 . S
C71 O79 1.258 . S
O72 C70 1.247 . S
O72 Zn73 2.028 . S
Zn73 O72 2.028 . S
Zn73 O77 2.035 . S
Zn73 O79 2.035 . S
Zn73 O80 2.028 . S
O74 C70 1.258 . S
O74 Zn75 2.035 . S
Zn75 O74 2.035 . S
Zn75 O76 2.028 . S
Zn75 O78 2.028 . S
Zn75 O81 2.035 . S
O76 Zn75 2.028 . S
O76 C82 1.247 . S
O77 Zn73 2.035 . S
O77 C82 1.258 . S
O78 C71 1.247 . S
O78 Zn75 2.028 . S
O79 C71 1.258 . S
O79 Zn73 2.035 . S
O80 Zn73 2.028 . S
O80 C83 1.247 . S
O81 Zn75 2.035 . S
O81 C83 1.258 . S
C82 O76 1.247 . S
C82 O77 1.258 . S
C83 O80 1.247 . S
C83 O81 1.258 . S
C84 O86 1.247 . S
C84 O88 1.258 . S
C85 O92 1.247 . S
C85 O93 1.258 . S
O86 C84 1.247 . S
O86 Zn87 2.028 . S
Zn87 O86 2.028 . S
Zn87 O91 2.035 . S
Zn87 O93 2.035 . S
Zn87 O94 2.028 . S
O88 C84 1.258 . S
O88 Zn89 2.035 . S
Zn89 O88 2.035 . S
Zn89 O90 2.028 . S
Zn89 O92 2.028 . S
Zn89 O95 2.035 . S
O90 Zn89 2.028 . S
O90 C96 1.247 . S
O91 Zn87 2.035 . S
O91 C96 1.258 . S
O92 C85 1.247 . S
O92 Zn89 2.028 . S
O93 C85 1.258 . S
O93 Zn87 2.035 . S
O94 Zn87 2.028 . S
O94 C97 1.247 . S
O95 Zn89 2.035 . S
O95 C97 1.258 . S
C96 O90 1.247 . S
C96 O91 1.258 . S
C97 O94 1.247 . S
C97 O95 1.258 . S
C98 O100 1.247 . S
C98 O102 1.258 . S
C99 O106 1.247 . S
C99 O107 1.258 . S
O100 C98 1.247 . S
O100 Zn101 2.028 . S
Zn101 O100 2.028 . S
Zn101 O105 2.035 . S
Zn101 O107 2.035 . S
Zn101 O108 2.028 . S
O102 C98 1.258 . S
O102 Zn103 2.035 . S
Zn103 O102 2.035 . S
Zn103 O104 2.028 . S
Zn103 O106 2.028 . S
Zn103 O109 2.035 . S
O104 Zn103 2.028 . S
O104 C110 1.247 . S
O105 Zn101 2.035 . S
O105 C110 1.258 . S
O106 C99 1.247 . S
O106 Zn103 2.028 . S
O107 C99 1.258 . S
O107 Zn101 2.035 . S
O108 Zn101 2.028 . S
O108 C111 1.247 . S
O109 Zn103 2.035 . S
O109 C111 1.258 . S
C110 O104 1.247 . S
C110 O105 1.258 . S
C111 O108 1.247 . S
C111 O109 1.258 . S
C112 O114 1.247 . S
C112 O116 1.258 . S
C113 O120 1.247 . S
C113 O121 1.258 . S
O114 C112 1.247 . S
O114 Zn115 2.028 . S
Zn115 O114 2.028 . S
Zn115 O119 2.035 . S
Zn115 O121 2.035 . S
Zn115 O122 2.028 . S
O116 C112 1.258 . S
O116 Zn117 2.035 . S
Zn117 O116 2.035 . S
Zn117 O118 2.028 . S
Zn117 O120 2.028 . S
Zn117 O123 2.035 . S
O118 Zn117 2.028 . S
O118 C124 1.247 . S
O119 Zn115 2.035 . S
O119 C124 1.258 . S
O120 C113 1.247 . S
O120 Zn117 2.028 . S
O121 C113 1.258 . S
O121 Zn115 2.035 . S
O122 Zn115 2.028 . S
O122 C125 1.247 . S
O123 Zn117 2.035 . S
O123 C125 1.258 . S
C124 O118 1.247 . S
C124 O119 1.258 . S
C125 O122 1.247 . S
C125 O123 1.258 . S
C126 O128 1.247 . S
C126 O130 1.258 . S
C127 O134 1.247 . S
C127 O135 1.258 . S
O128 C126 1.247 . S
O128 Zn129 2.028 . S
Zn129 O128 2.028 . S
Zn129 O133 2.035 . S
Zn129 O135 2.035 . S
Zn129 O136 2.028 . S
O130 C126 1.258 . S
O130 Zn131 2.035 . S
Zn131 O130 2.035 . S
Zn131 O132 2.028 . S
Zn131 O134 2.028 . S
Zn131 O137 2.035 . S
O132 Zn131 2.028 . S
O132 C138 1.247 . S
O133 Zn129 2.035 . S
O133 C138 1.258 . S
O134 C127 1.247 . S
O134 Zn131 2.028 . S
O135 C127 1.258 . S
O135 Zn129 2.035 . S
O136 Zn129 2.028 . S
O136 C139 1.247 . S
O137 Zn131 2.035 . S
O137 C139 1.258 . S
C138 O132 1.247 . S
C138 O133 1.258 . S
C139 O136 1.247 . S
C139 O137 1.258 . S
C140 O142 1.247 . S
C140 O144 1.258 . S
C141 O148 1.247 . S
C141 O149 1.258 . S
O142 C140 1.247 . S
O142 Zn143 2.028 . S
Zn143 O142 2.028 . S
Zn143 O147 2.035 . S
Zn143 O149 2.035 . S
Zn143 O150 2.028 . S
O144 C140 1.258 . S
O144 Zn145 2.035 . S
Zn145 O144 2.035 . S
Zn145 O146 2.028 . S
Zn145 O148 2.028 . S
Zn145 O151 2.035 . S
O146 Zn145 2.028 . S
O146 C152 1.247 . S
O147 Zn143 2.035 . S
O147 C152 1.258 . S
O148 C141 1.247 . S
O148 Zn145 2.028 . S
O149 C141 1.258 . S
O149 Zn143 2.035 . S
O150 Zn143 2.028 . S
O150 C153 1.247 . S
O151 Zn145 2.035 . S
O151 C153 1.258 . S
C152 O146 1.247 . S
C152 O147 1.258 . S
C153 O150 1.247 . S
C153 O151 1.258 . S
C154 O156 1.247 . S
C154 O158 1.258 . S
C155 O162 1.247 . S
C155 O163 1.258 . S
O156 C154 1.247 . S
O156 Zn157 2.028 . S
Zn157 O156 2.028 . S
Zn157 O161 2.035 . S
Zn157 O163 2.035 . S
Zn157 O164 2.028 . S
O158 C154 1.258 . S
O158 Zn159 2.035 . S
Zn159 O158 2.035 . S
Zn159 O160 2.028 . S
Zn159 O162 2.028 . S
Zn159 O165 2.035 . S
O160 Zn159 2.028 . S
O160 C166 1.247 . S
O161 Zn157 2.035 . S
O161 C166 1.258 . S
O162 C155 1.247 . S
O162 Zn159 2.028 . S
O163 C155 1.258 . S
O163 Zn157 2.035 . S
O164 Zn157 2.028 . S
O164 C167 1.247 . S
O165 Zn159 2.035 . S
O165 C167 1.258 . S
C166 O160 1.247 . S
C166 O161 1.258 . S
C167 O164 1.247 . S
C167 O165 1.258 . S
C168 O170 1.247 . S
C168 O172 1.258 . S
C169 O176 1.247 . S
C169 O177 1.258 . S
O170 C168 1.247 . S
O170 Zn171 2.028 . S
Zn171 O170 2.028 . S
Zn171 O175 2.035 . S
Zn171 O177 2.035 . S
Zn171 O178 2.028 . S
O172 C168 1.258 . S
O172 Zn173 2.035 . S
Zn173 O172 2.035 . S
Zn173 O174 2.028 . S
Zn173 O176 2.028 . S
Zn173 O179 2.035 . S
O174 Zn173 2.028 . S
O174 C180 1.247 . S
O175 Zn171 2.035 . S
O175 C180 1.258 . S
O176 C169 1.247 . S
O176 Zn173 2.028 . S
O177 C169 1.258 . S
O177 Zn171 2.035 . S
O178 Zn171 2.028 . S
O178 C181 1.247 . S
O179 Zn173 2.035 . S
O179 C181 1.258 . S
C180 O174 1.247 . S
C180 O175 1.258 . S
C181 O178 1.247 . S
C181 O179 1.258 . S
C182 O184 1.247 . S
C182 O186 1.258 . S
C183 O190 1.247 . S
C183 O191 1.258 . S
O184 C182 1.247 . S
O184 Zn185 2.028 . S
Zn185 O184 2.028 . S
Zn185 O189 2.035 . S
Zn185 O191 2.035 . S
Zn185 O192 2.028 . S
O186 C182 1.258 . S
O186 Zn187 2.035 . S
Zn187 O186 2.035 . S
Zn187 O188 2.028 . S
Zn187 O190 2.028 . S
Zn187 O193 2.035 . S
O188 Zn187 2.028 . S
O188 C194 1.247 . S
O189 Zn185 2.035 . S
O189 C194 1.258 . S
O190 C183 1.247 . S
O190 Zn187 2.028 . S
O191 C183 1.258 . S
O191 Zn185 2.035 . S
O192 Zn185 2.028 . S
O192 C195 1.247 . S
O193 Zn187 2.035 . S
O193 C195 1.258 . S
C194 O188 1.247 . S
C194 O189 1.258 . S
C195 O192 1.247 . S
C195 O193 1.258 . S
C196 O198 1.247 . S
C196 O200 1.258 . S
C197 O204 1.247 . S
C197 O205 1.258 . S
O198 C196 1.247 . S
O198 Zn199 2.028 . S
Zn199 O198 2.028 . S
Zn199 O203 2.035 . S
Zn199 O205 2.035 . S
Zn199 O206 2.028 . S
O200 C196 1.258 . S
O200 Zn201 2.035 . S
Zn201 O200 2.035 . S
Zn201 O202 2.028 . S
Zn201 O204 2.028 . S
Zn201 O207 2.035 . S
O202 Zn201 2.028 . S
O202 C208 1.247 . S
O203 Zn199 2.035 . S
O203 C208 1.258 . S
O204 C197 1.247 . S
O204 Zn201 2.028 . S
O205 C197 1.258 . S
O205 Zn199 2.035 . S
O206 Zn199 2.028 . S
O206 C209 1.247 . S
O207 Zn201 2.035 . S
O207 C209 1.258 . S
C208 O202 1.247 . S
C208 O203 1.258 . S
C209 O206 1.247 . S
C209 O207 1.258 . S
C210 O212 1.247 . S
C210 O214 1.258 . S
C211 O218 1.247 . S
C211 O219 1.258 . S
O212 C210 1.247 . S
O212 Zn213 2.028 . S
Zn213 O212 2.028 . S
Zn213 O217 2.035 . S
Zn213 O219 2.035 . S
Zn213 O220 2.028 . S
O214 C210 1.258 . S
O214 Zn215 2.035 . S
Zn215 O214 2.035 . S
Zn215 O216 2.028 . S
Zn215 O218 2.028 . S
Zn215 O221 2.035 . S
O216 Zn215 2.028 . S
O216 C222 1.247 . S
O217 Zn213 2.035 . S
O217 C222 1.258 . S
O218 C211 1.247 . S
O218 Zn215 2.028 . S
O219 C211 1.258 . S
O219 Zn213 2.035 . S
O220 Zn213 2.028 . S
O220 C223 1.247 . S
O221 Zn215 2.035 . S
O221 C223 1.258 . S
C222 O216 1.247 . S
C222 O217 1.258 . S
C223 O220 1.247 . S
C223 O221 1.258 . S
C224 C225 1.369 . S
C224 C226 1.419 . S
C224 H228 0.930 . S
C225 C224 1.369 . S
C225 C234 1.429 . S
C226 C224 1.419 . S
C226 C227 1.363 . S
C226 H229 0.929 . S
C227 C226 1.363 . S
C227 C233 1.428 . S
H228 C224 0.930 . S
H229 C226 0.929 . S
S230 N231 1.613 . S
S230 N232 1.610 . S
N231 S230 1.613 . S
N231 C234 1.350 . S
N232 S230 1.610 . S
N232 C233 1.351 . S
C233 C227 1.428 . S
C233 N232 1.351 . S
C233 C234 1.434 . S
C234 C225 1.429 . S
C234 N231 1.350 . S
C234 C233 1.434 . S
C235 C236 1.369 . S
C235 C237 1.419 . S
C235 H239 0.930 . S
C236 C235 1.369 . S
C236 C245 1.429 . S
C237 C235 1.419 . S
C237 C238 1.363 . S
C237 H240 0.929 . S
C238 C237 1.363 . S
C238 C244 1.428 . S
H239 C235 0.930 . S
H240 C237 0.929 . S
S241 N242 1.613 . S
S241 N243 1.610 . S
N242 S241 1.613 . S
N242 C245 1.350 . S
N243 S241 1.610 . S
N243 C244 1.351 . S
C244 C238 1.428 . S
C244 N243 1.351 . S
C244 C245 1.434 . S
C245 C236 1.429 . S
C245 N242 1.350 . S
C245 C244 1.434 . S
C246 C247 1.369 . S
C246 C248 1.419 1_554 S
C246 H250 0.930 . S
C247 C246 1.369 . S
C247 C256 1.429 . S
C248 C246 1.419 1_556 S
C248 C249 1.363 . S
C248 H251 0.929 . S
C249 C248 1.363 . S
C249 C255 1.428 . S
H250 C246 0.930 . S
H251 C248 0.929 . S
S252 N253 1.616 1_556 S
S252 N254 1.608 . S
N253 S252 1.616 1_554 S
N253 C256 1.350 . S
N254 S252 1.608 . S
N254 C255 1.351 . S
C255 C249 1.428 . S
C255 N254 1.351 . S
C255 C256 1.434 1_556 S
C256 C247 1.429 . S
C256 N253 1.350 . S
C256 C255 1.434 1_554 S
C257 C258 1.369 . S
C257 C259 1.419 1_556 S
C257 H261 0.930 . S
C258 C257 1.369 . S
C258 C267 1.429 . S
C259 C257 1.419 1_554 S
C259 C260 1.363 . S
C259 H262 0.929 . S
C260 C259 1.363 . S
C260 C266 1.428 . S
H261 C257 0.930 . S
H262 C259 0.929 . S
S263 N264 1.616 1_564 S
S263 N265 1.608 1_565 S
N264 S263 1.616 1_546 S
N264 C267 1.350 . S
N265 S263 1.608 1_545 S
N265 C266 1.351 . S
C266 C260 1.428 . S
C266 N265 1.351 . S
C266 C267 1.434 1_554 S
C267 C258 1.429 . S
C267 N264 1.350 . S
C267 C266 1.434 1_556 S
C268 C269 1.369 . S
C268 C270 1.419 . S
C268 H272 0.930 . S
C269 C268 1.369 . S
C269 C278 1.429 . S
C270 C268 1.419 . S
C270 C271 1.363 . S
C270 H273 0.929 . S
C271 C270 1.363 . S
C271 C277 1.428 . S
H272 C268 0.930 . S
H273 C270 0.929 . S
S274 N275 1.613 . S
S274 N276 1.610 . S
N275 S274 1.613 . S
N275 C278 1.350 . S
N276 S274 1.610 . S
N276 C277 1.351 . S
C277 C271 1.428 . S
C277 N276 1.351 . S
C277 C278 1.434 . S
C278 C269 1.429 . S
C278 N275 1.350 . S
C278 C277 1.434 . S
C279 C280 1.369 . S
C279 C281 1.419 . S
C279 H283 0.930 . S
C280 C279 1.369 . S
C280 C289 1.429 . S
C281 C279 1.419 . S
C281 C282 1.363 . S
C281 H284 0.929 . S
C282 C281 1.363 . S
C282 C288 1.428 . S
H283 C279 0.930 . S
H284 C281 0.929 . S
S285 N286 1.613 . S
S285 N287 1.610 . S
N286 S285 1.613 . S
N286 C289 1.350 . S
N287 S285 1.610 . S
N287 C288 1.351 . S
C288 C282 1.428 . S
C288 N287 1.351 . S
C288 C289 1.434 . S
C289 C280 1.429 . S
C289 N286 1.350 . S
C289 C288 1.434 . S
C290 C291 1.369 . S
C290 C292 1.419 1_556 S
C290 H294 0.930 . S
C291 C290 1.369 . S
C291 C300 1.429 . S
C292 C290 1.419 1_554 S
C292 C293 1.363 . S
C292 H295 0.929 . S
C293 C292 1.363 . S
C293 C299 1.428 . S
H294 C290 0.930 . S
H295 C292 0.929 . S
S296 N297 1.616 1_554 S
S296 N298 1.608 . S
N297 S296 1.616 1_556 S
N297 C300 1.350 . S
N298 S296 1.608 . S
N298 C299 1.351 . S
C299 C293 1.428 . S
C299 N298 1.351 . S
C299 C300 1.434 1_554 S
C300 C291 1.429 . S
C300 N297 1.350 . S
C300 C299 1.434 1_556 S
C301 C302 1.369 . S
C301 C303 1.419 1_554 S
C301 H305 0.930 . S
C302 C301 1.369 . S
C302 C311 1.429 . S
C303 C301 1.419 1_556 S
C303 C304 1.363 . S
C303 H306 0.929 . S
C304 C303 1.363 . S
C304 C310 1.428 . S
H305 C301 0.930 . S
H306 C303 0.929 . S
S307 N308 1.616 1_556 S
S307 N309 1.608 . S
N308 S307 1.616 1_554 S
N308 C311 1.350 . S
N309 S307 1.608 . S
N309 C310 1.351 . S
C310 C304 1.428 . S
C310 N309 1.351 . S
C310 C311 1.434 1_556 S
C311 C302 1.429 . S
C311 N308 1.350 . S
C311 C310 1.434 1_554 S
C312 C313 1.369 . S
C312 C314 1.419 . S
C312 H316 0.930 . S
C313 C312 1.369 . S
C313 C322 1.429 1_565 S
C314 C312 1.419 . S
C314 C315 1.363 1_565 S
C314 H317 0.929 . S
C315 C314 1.363 1_545 S
C315 C321 1.428 . S
H316 C312 0.930 . S
H317 C314 0.929 . S
S318 N319 1.613 . S
S318 N320 1.610 . S
N319 S318 1.613 . S
N319 C322 1.350 . S
N320 S318 1.610 . S
N320 C321 1.351 . S
C321 C315 1.428 . S
C321 N320 1.351 . S
C321 C322 1.434 . S
C322 C313 1.429 1_545 S
C322 N319 1.350 . S
C322 C321 1.434 . S
C323 C324 1.369 . S
C323 C325 1.419 . S
C323 H327 0.930 . S
C324 C323 1.369 . S
C324 C333 1.429 1_565 S
C325 C323 1.419 . S
C325 C326 1.363 1_565 S
C325 H328 0.929 . S
C326 C325 1.363 1_545 S
C326 C332 1.428 . S
H327 C323 0.930 . S
H328 C325 0.929 . S
S329 N330 1.613 . S
S329 N331 1.610 . S
N330 S329 1.613 . S
N330 C333 1.350 . S
N331 S329 1.610 . S
N331 C332 1.351 . S
C332 C326 1.428 . S
C332 N331 1.351 . S
C332 C333 1.434 . S
C333 C324 1.429 1_545 S
C333 N330 1.350 . S
C333 C332 1.434 . S
C334 C335 1.369 . S
C334 C336 1.419 . S
C334 H338 0.930 . S
C335 C334 1.369 . S
C335 C344 1.429 1_565 S
C336 C334 1.419 . S
C336 C337 1.363 1_565 S
C336 H339 0.929 . S
C337 C336 1.363 1_545 S
C337 C343 1.428 . S
H338 C334 0.930 . S
H339 C336 0.929 . S
S340 N341 1.613 . S
S340 N342 1.610 . S
N341 S340 1.613 . S
N341 C344 1.350 . S
N342 S340 1.610 . S
N342 C343 1.351 . S
C343 C337 1.428 . S
C343 N342 1.351 . S
C343 C344 1.434 . S
C344 C335 1.429 1_545 S
C344 N341 1.350 . S
C344 C343 1.434 . S
C345 C346 1.369 1_565 S
C345 C347 1.419 . S
C345 H349 0.930 . S
C346 C345 1.369 1_545 S
C346 C355 1.429 . S
C347 C345 1.419 . S
C347 C348 1.363 . S
C347 H350 0.929 . S
C348 C347 1.363 . S
C348 C354 1.428 1_565 S
H349 C345 0.930 . S
H350 C347 0.929 . S
S351 N352 1.613 . S
S351 N353 1.610 . S
N352 S351 1.613 . S
N352 C355 1.350 . S
N353 S351 1.610 . S
N353 C354 1.351 . S
C354 C348 1.428 1_545 S
C354 N353 1.351 . S
C354 C355 1.434 . S
C355 C346 1.429 . S
C355 N352 1.350 . S
C355 C354 1.434 . S
C356 C357 1.369 . S
C356 C358 1.419 1_655 S
C356 H360 0.930 . S
C357 C356 1.369 . S
C357 C366 1.429 . S
C358 C356 1.419 1_455 S
C358 C359 1.363 . S
C358 H361 0.929 . S
C359 C358 1.363 . S
C359 C365 1.428 . S
H360 C356 0.930 . S
H361 C358 0.929 . S
S362 N363 1.613 1_455 S
S362 N364 1.610 . S
N363 S362 1.613 1_655 S
N363 C366 1.350 . S
N364 S362 1.610 . S
N364 C365 1.351 . S
C365 C359 1.428 . S
C365 N364 1.351 . S
C365 C366 1.434 1_455 S
C366 C357 1.429 . S
C366 N363 1.350 . S
C366 C365 1.434 1_655 S
C367 C368 1.369 . S
C367 C369 1.419 1_455 S
C367 H371 0.930 . S
C368 C367 1.369 . S
C368 C377 1.429 . S
C369 C367 1.419 1_655 S
C369 C370 1.363 . S
C369 H372 0.929 . S
C370 C369 1.363 . S
C370 C376 1.428 . S
H371 C367 0.930 . S
H372 C369 0.929 . S
S373 N374 1.613 . S
S373 N375 1.610 1_455 S
N374 S373 1.613 . S
N374 C377 1.350 . S
N375 S373 1.610 1_655 S
N375 C376 1.351 . S
C376 C370 1.428 . S
C376 N375 1.351 . S
C376 C377 1.434 1_655 S
C377 C368 1.429 . S
C377 N374 1.350 . S
C377 C376 1.434 1_455 S
C378 C379 1.369 . S
C378 C380 1.419 1_655 S
C378 H382 0.930 . S
C379 C378 1.369 . S
C379 C388 1.429 . S
C380 C378 1.419 1_455 S
C380 C381 1.363 . S
C380 H383 0.929 . S
C381 C380 1.363 . S
C381 C387 1.428 . S
H382 C378 0.930 . S
H383 C380 0.929 . S
S384 N385 1.613 . S
S384 N386 1.610 1_655 S
N385 S384 1.613 . S
N385 C388 1.350 . S
N386 S384 1.610 1_455 S
N386 C387 1.351 . S
C387 C381 1.428 . S
C387 N386 1.351 . S
C387 C388 1.434 1_455 S
C388 C379 1.429 . S
C388 N385 1.350 . S
C388 C387 1.434 1_655 S
C389 C390 1.369 . S
C389 C391 1.419 1_455 S
C389 H393 0.930 . S
C390 C389 1.369 . S
C390 C399 1.429 . S
C391 C389 1.419 1_655 S
C391 C392 1.363 . S
C391 H394 0.929 . S
C392 C391 1.363 . S
C392 C398 1.428 . S
H393 C389 0.930 . S
H394 C391 0.929 . S
S395 N396 1.613 . S
S395 N397 1.610 1_455 S
N396 S395 1.613 . S
N396 C399 1.350 . S
N397 S395 1.610 1_655 S
N397 C398 1.351 . S
C398 C392 1.428 . S
C398 N397 1.351 . S
C398 C399 1.434 1_655 S
C399 C390 1.429 . S
C399 N396 1.350 . S
C399 C398 1.434 1_455 S
C400 C401 1.369 . S
C400 C402 1.419 . S
C400 H404 0.930 . S
C401 C400 1.369 . S
C401 C410 1.429 . S
C402 C400 1.419 . S
C402 C403 1.363 . S
C402 H405 0.929 . S
C403 C402 1.363 . S
C403 C409 1.428 . S
H404 C400 0.930 . S
H405 C402 0.929 . S
S406 N407 1.613 . S
S406 N408 1.610 . S
N407 S406 1.613 . S
N407 C410 1.350 . S
N408 S406 1.610 . S
N408 C409 1.351 . S
C409 C403 1.428 . S
C409 N408 1.351 . S
C409 C410 1.434 . S
C410 C401 1.429 . S
C410 N407 1.350 . S
C410 C409 1.434 . S
C411 C412 1.369 . S
C411 C413 1.419 . S
C411 H415 0.930 . S
C412 C411 1.369 . S
C412 C421 1.429 . S
C413 C411 1.419 . S
C413 C414 1.363 . S
C413 H416 0.929 . S
C414 C413 1.363 . S
C414 C420 1.428 . S
H415 C411 0.930 . S
H416 C413 0.929 . S
S417 N418 1.613 . S
S417 N419 1.610 . S
N418 S417 1.613 . S
N418 C421 1.350 . S
N419 S417 1.610 . S
N419 C420 1.351 . S
C420 C414 1.428 . S
C420 N419 1.351 . S
C420 C421 1.434 . S
C421 C412 1.429 . S
C421 N418 1.350 . S
C421 C420 1.434 . S
C422 C423 1.369 . S
C422 C424 1.419 . S
C422 H426 0.930 . S
C423 C422 1.369 . S
C423 C432 1.429 . S
C424 C422 1.419 . S
C424 C425 1.363 . S
C424 H427 0.929 . S
C425 C424 1.363 . S
C425 C431 1.428 . S
H426 C422 0.930 . S
H427 C424 0.929 . S
S428 N429 1.613 . S
S428 N430 1.610 . S
N429 S428 1.613 . S
N429 C432 1.350 . S
N430 S428 1.610 . S
N430 C431 1.351 . S
C431 C425 1.428 . S
C431 N430 1.351 . S
C431 C432 1.434 . S
C432 C423 1.429 . S
C432 N429 1.350 . S
C432 C431 1.434 . S
C433 C434 1.369 . S
C433 C435 1.419 . S
C433 H437 0.930 . S
C434 C433 1.369 . S
C434 C443 1.429 . S
C435 C433 1.419 . S
C435 C436 1.363 . S
C435 H438 0.929 . S
C436 C435 1.363 . S
C436 C442 1.428 . S
H437 C433 0.930 . S
H438 C435 0.929 . S
S439 N440 1.613 . S
S439 N441 1.610 . S
N440 S439 1.613 . S
N440 C443 1.350 . S
N441 S439 1.610 . S
N441 C442 1.351 . S
C442 C436 1.428 . S
C442 N441 1.351 . S
C442 C443 1.434 . S
C443 C434 1.429 . S
C443 N440 1.350 . S
C443 C442 1.434 . S
C444 C445 1.369 . S
C444 C446 1.419 . S
C444 H448 0.930 . S
C445 C444 1.369 . S
C445 C454 1.429 . S
C446 C444 1.419 . S
C446 C447 1.363 . S
C446 H449 0.929 . S
C447 C446 1.363 . S
C447 C453 1.428 . S
H448 C444 0.930 . S
H449 C446 0.929 . S
S450 N451 1.613 . S
S450 N452 1.610 . S
N451 S450 1.613 . S
N451 C454 1.350 . S
N452 S450 1.610 . S
N452 C453 1.351 . S
C453 C447 1.428 . S
C453 N452 1.351 . S
C453 C454 1.434 . S
C454 C445 1.429 . S
C454 N451 1.350 . S
C454 C453 1.434 . S
C455 C456 1.369 . S
C455 C457 1.419 . S
C455 H459 0.930 . S
C456 C455 1.369 . S
C456 C465 1.429 . S
C457 C455 1.419 . S
C457 C458 1.363 . S
C457 H460 0.929 . S
C458 C457 1.363 . S
C458 C464 1.428 . S
H459 C455 0.930 . S
H460 C457 0.929 . S
S461 N462 1.613 . S
S461 N463 1.610 . S
N462 S461 1.613 . S
N462 C465 1.350 . S
N463 S461 1.610 . S
N463 C464 1.351 . S
C464 C458 1.428 . S
C464 N463 1.351 . S
C464 C465 1.434 . S
C465 C456 1.429 . S
C465 N462 1.350 . S
C465 C464 1.434 . S
C466 C467 1.369 . S
C466 C468 1.419 . S
C466 H470 0.930 . S
C467 C466 1.369 . S
C467 C476 1.429 . S
C468 C466 1.419 . S
C468 C469 1.363 . S
C468 H471 0.929 . S
C469 C468 1.363 . S
C469 C475 1.428 . S
H470 C466 0.930 . S
H471 C468 0.929 . S
S472 N473 1.613 . S
S472 N474 1.610 . S
N473 S472 1.613 . S
N473 C476 1.350 . S
N474 S472 1.610 . S
N474 C475 1.351 . S
C475 C469 1.428 . S
C475 N474 1.351 . S
C475 C476 1.434 . S
C476 C467 1.429 . S
C476 N473 1.350 . S
C476 C475 1.434 . S
C477 C478 1.369 . S
C477 C479 1.419 . S
C477 H481 0.930 . S
C478 C477 1.369 . S
C478 C487 1.429 . S
C479 C477 1.419 . S
C479 C480 1.363 . S
C479 H482 0.929 . S
C480 C479 1.363 . S
C480 C486 1.428 . S
H481 C477 0.930 . S
H482 C479 0.929 . S
S483 N484 1.613 . S
S483 N485 1.610 . S
N484 S483 1.613 . S
N484 C487 1.350 . S
N485 S483 1.610 . S
N485 C486 1.351 . S
C486 C480 1.428 . S
C486 N485 1.351 . S
C486 C487 1.434 . S
C487 C478 1.429 . S
C487 N484 1.350 . S
C487 C486 1.434 . S
C488 C489 1.369 1_565 S
C488 C490 1.419 . S
C488 H492 0.930 . S
C489 C488 1.369 1_545 S
C489 C498 1.429 . S
C490 C488 1.419 . S
C490 C491 1.363 . S
C490 H493 0.929 . S
C491 C490 1.363 . S
C491 C497 1.428 1_565 S
H492 C488 0.930 . S
H493 C490 0.929 . S
S494 N495 1.613 . S
S494 N496 1.610 . S
N495 S494 1.613 . S
N495 C498 1.350 . S
N496 S494 1.610 . S
N496 C497 1.351 . S
C497 C491 1.428 1_545 S
C497 N496 1.351 . S
C497 C498 1.434 . S
C498 C489 1.429 . S
C498 N495 1.350 . S
C498 C497 1.434 . S
C499 C500 1.369 1_565 S
C499 C501 1.419 . S
C499 H503 0.930 . S
C500 C499 1.369 1_545 S
C500 C509 1.429 . S
C501 C499 1.419 . S
C501 C502 1.363 . S
C501 H504 0.929 . S
C502 C501 1.363 . S
C502 C508 1.428 1_565 S
H503 C499 0.930 . S
H504 C501 0.929 . S
S505 N506 1.613 . S
S505 N507 1.610 . S
N506 S505 1.613 . S
N506 C509 1.350 . S
N507 S505 1.610 . S
N507 C508 1.351 . S
C508 C502 1.428 1_545 S
C508 N507 1.351 . S
C508 C509 1.434 . S
C509 C500 1.429 . S
C509 N506 1.350 . S
C509 C508 1.434 . S
C510 C511 1.369 1_565 S
C510 C512 1.419 . S
C510 H514 0.930 . S
C511 C510 1.369 1_545 S
C511 C520 1.429 . S
C512 C510 1.419 . S
C512 C513 1.363 . S
C512 H515 0.929 . S
C513 C512 1.363 . S
C513 C519 1.428 1_565 S
H514 C510 0.930 . S
H515 C512 0.929 . S
S516 N517 1.613 . S
S516 N518 1.610 . S
N517 S516 1.613 . S
N517 C520 1.350 . S
N518 S516 1.610 . S
N518 C519 1.351 . S
C519 C513 1.428 1_545 S
C519 N518 1.351 . S
C519 C520 1.434 . S
C520 C511 1.429 . S
C520 N517 1.350 . S
C520 C519 1.434 . S
C521 C522 1.369 . S
C521 C523 1.411 1_565 S
C521 H525 0.930 . S
C522 C521 1.369 . S
C522 C531 1.429 1_565 S
C523 C521 1.411 1_545 S
C523 C524 1.371 . S
C523 H526 0.929 1_545 S
C524 C523 1.371 . S
C524 C530 1.428 . S
H525 C521 0.930 . S
H526 C523 0.929 1_565 S
S527 N528 1.613 . S
S527 N529 1.610 . S
N528 S527 1.613 . S
N528 C531 1.350 . S
N529 S527 1.610 . S
N529 C530 1.351 . S
C530 C524 1.428 . S
C530 N529 1.351 . S
C530 C531 1.434 . S
C531 C522 1.429 1_545 S
C531 N528 1.350 . S
C531 C530 1.434 . S
C532 C533 1.369 . S
C532 C534 1.419 . S
C532 H536 0.930 . S
C533 C532 1.369 . S
C533 C542 1.429 . S
C534 C532 1.419 . S
C534 C535 1.363 . S
C534 H537 0.929 . S
C535 C534 1.363 . S
C535 C541 1.428 . S
H536 C532 0.930 . S
H537 C534 0.929 . S
S538 N539 1.613 . S
S538 N540 1.610 . S
N539 S538 1.613 . S
N539 C542 1.350 . S
N540 S538 1.610 . S
N540 C541 1.351 . S
C541 C535 1.428 . S
C541 N540 1.351 . S
C541 C542 1.434 . S
C542 C533 1.429 . S
C542 N539 1.350 . S
C542 C541 1.434 . S
C543 C544 1.369 . S
C543 C545 1.419 . S
C543 H547 0.930 . S
C544 C543 1.369 . S
C544 C553 1.429 . S
C545 C543 1.419 . S
C545 C546 1.363 . S
C545 H548 0.929 . S
C546 C545 1.363 . S
C546 C552 1.428 . S
H547 C543 0.930 . S
H548 C545 0.929 . S
S549 N550 1.613 . S
S549 N551 1.610 . S
N550 S549 1.613 . S
N550 C553 1.350 . S
N551 S549 1.610 . S
N551 C552 1.351 . S
C552 C546 1.428 . S
C552 N551 1.351 . S
C552 C553 1.434 . S
C553 C544 1.429 . S
C553 N550 1.350 . S
C553 C552 1.434 . S
C554 C555 1.369 . S
C554 C556 1.419 . S
C554 H558 0.930 . S
C555 C554 1.369 . S
C555 C564 1.429 . S
C556 C554 1.419 . S
C556 C557 1.363 . S
C556 H559 0.929 . S
C557 C556 1.363 . S
C557 C563 1.428 . S
H558 C554 0.930 . S
H559 C556 0.929 . S
S560 N561 1.613 . S
S560 N562 1.610 . S
N561 S560 1.613 . S
N561 C564 1.350 . S
N562 S560 1.610 . S
N562 C563 1.351 . S
C563 C557 1.428 . S
C563 N562 1.351 . S
C563 C564 1.434 . S
C564 C555 1.429 . S
C564 N561 1.350 . S
C564 C563 1.434 . S
C565 C566 1.369 . S
C565 C567 1.419 . S
C565 H569 0.930 . S
C566 C565 1.369 . S
C566 C575 1.429 . S
C567 C565 1.419 . S
C567 C568 1.363 . S
C567 H570 0.929 . S
C568 C567 1.363 . S
C568 C574 1.428 . S
H569 C565 0.930 . S
H570 C567 0.929 . S
S571 N572 1.613 . S
S571 N573 1.610 . S
N572 S571 1.613 . S
N572 C575 1.350 . S
N573 S571 1.610 . S
N573 C574 1.351 . S
C574 C568 1.428 . S
C574 N573 1.351 . S
C574 C575 1.434 . S
C575 C566 1.429 . S
C575 N572 1.350 . S
C575 C574 1.434 . S
C225 C0 1.593 . S
C227 C70 1.593 . S
C236 C56 1.597 . S
C238 C27 1.596 . S
C247 C28 1.596 . S
C249 C98 1.595 . S
C258 C84 1.593 . S
C260 C43 1.594 . S
C269 C195 1.595 . S
C271 C112 1.595 . S
C280 C168 1.592 . S
C282 C126 1.594 . S
C291 C210 1.594 . S
C293 C140 1.595 . S
C302 C166 1.594 . S
C304 C196 1.594 . S
C313 C15 1.504 . S
C315 C12 1.503 . S
C324 C40 1.504 . S
C326 C55 1.503 . S
C335 C68 1.505 . S
C337 C82 1.504 . S
C346 C96 1.502 . S
C348 C110 1.503 . S
C357 C124 1.503 . S
C359 C138 1.504 . S
C368 C154 1.503 . S
C370 C152 1.503 . S
C379 C183 1.505 . S
C381 C180 1.503 . S
C390 C208 1.505 . S
C392 C222 1.503 . S
C401 C139 1.503 . S
C403 C13 1.503 . S
C412 C14 1.505 . S
C414 C125 1.505 . S
C423 C155 1.503 . S
C425 C41 1.503 . S
C434 C54 1.505 . S
C436 C153 1.504 . S
C445 C69 1.503 . S
C447 C182 1.503 . S
C456 C181 1.503 . S
C458 C83 1.503 . S
C467 C97 1.504 . S
C469 C223 1.504 . S
C478 C209 1.503 . S
C480 C111 1.504 . S
C489 C1 1.631 . S
C491 C29 1.626 . S
C500 C42 1.631 . S
C502 C26 1.628 . S
C511 C85 1.632 . S
C513 C57 1.628 . S
C522 C99 1.628 . S
C524 C71 1.632 . S
C533 C141 1.626 . S
C535 C113 1.630 . S
C544 C127 1.627 . S
C546 C167 1.629 . S
C555 C197 1.632 . S
C557 C169 1.628 . S
C566 C194 1.626 . S
C568 C211 1.632 . S
