# Generated by pormake.
# Topology wlm, (5)-cn, num edge types: 1
# Building blocks:
#     Node 0, Type 0, BuildingBlock: BEQFEK_clean_sbu_0, # of connection points: 5
#     Node 1, Type 0, BuildingBlock: BEQFEK_clean_sbu_0, # of connection points: 5
#     Node 2, Type 0, BuildingBlock: BEQFEK_clean_sbu_0, # of connection points: 5
#     Node 3, Type 0, BuildingBlock: BEQFEK_clean_sbu_0, # of connection points: 5
#     Node 4, Type 0, BuildingBlock: BEQFEK_clean_sbu_0, # of connection points: 5
#     Node 5, Type 0, BuildingBlock: BEQFEK_clean_sbu_0, # of connection points: 5
#     Node 6, Type 0, BuildingBlock: BEQFEK_clean_sbu_0, # of connection points: 5
#     Node 7, Type 0, BuildingBlock: BEQFEK_clean_sbu_0, # of connection points: 5
#     Node 8, Type 0, BuildingBlock: BEQFEK_clean_sbu_0, # of connection points: 5
#     Node 9, Type 0, BuildingBlock: BEQFEK_clean_sbu_0, # of connection points: 5
#     Node 10, Type 0, BuildingBlock: BEQFEK_clean_sbu_0, # of connection points: 5
#     Node 11, Type 0, BuildingBlock: BEQFEK_clean_sbu_0, # of connection points: 5
#     Node 12, Type 0, BuildingBlock: BEQFEK_clean_sbu_0, # of connection points: 5
#     Node 13, Type 0, BuildingBlock: BEQFEK_clean_sbu_0, # of connection points: 5
#     Node 14, Type 0, BuildingBlock: BEQFEK_clean_sbu_0, # of connection points: 5
#     Node 15, Type 0, BuildingBlock: BEQFEK_clean_sbu_0, # of connection points: 5
#     Node 16, Type 0, BuildingBlock: BEQFEK_clean_sbu_0, # of connection points: 5
#     Node 17, Type 0, BuildingBlock: BEQFEK_clean_sbu_0, # of connection points: 5
#     Node 18, Type 0, BuildingBlock: BEQFEK_clean_sbu_0, # of connection points: 5
#     Node 19, Type 0, BuildingBlock: BEQFEK_clean_sbu_0, # of connection points: 5
#     Node 20, Type 0, BuildingBlock: BEQFEK_clean_sbu_0, # of connection points: 5
#     Node 21, Type 0, BuildingBlock: BEQFEK_clean_sbu_0, # of connection points: 5
#     Node 22, Type 0, BuildingBlock: BEQFEK_clean_sbu_0, # of connection points: 5
#     Node 23, Type 0, BuildingBlock: BEQFEK_clean_sbu_0, # of connection points: 5
#     Node 24, Type 0, BuildingBlock: BEQFEK_clean_sbu_0, # of connection points: 5
#     Node 25, Type 0, BuildingBlock: BEQFEK_clean_sbu_0, # of connection points: 5
#     Node 26, Type 0, BuildingBlock: BEQFEK_clean_sbu_0, # of connection points: 5
#     Node 27, Type 0, BuildingBlock: BEQFEK_clean_sbu_0, # of connection points: 5
#     Node 28, Type 0, BuildingBlock: BEQFEK_clean_sbu_0, # of connection points: 5
#     Node 29, Type 0, BuildingBlock: BEQFEK_clean_sbu_0, # of connection points: 5
#     Node 30, Type 0, BuildingBlock: BEQFEK_clean_sbu_0, # of connection points: 5
#     Node 31, Type 0, BuildingBlock: BEQFEK_clean_sbu_0, # of connection points: 5
#     Node 32, Type 0, BuildingBlock: BEQFEK_clean_sbu_0, # of connection points: 5
#     Node 33, Type 0, BuildingBlock: BEQFEK_clean_sbu_0, # of connection points: 5
#     Node 34, Type 0, BuildingBlock: BEQFEK_clean_sbu_0, # of connection points: 5
#     Node 35, Type 0, BuildingBlock: BEQFEK_clean_sbu_0, # of connection points: 5
#     Edge 36, Type (0, 0), BuildingBlock: KIFKEQ_clean_linker_1, # of connection points: 2
#     Edge 37, Type (0, 0), BuildingBlock: KIFKEQ_clean_linker_1, # of connection points: 2
#     Edge 38, Type (0, 0), BuildingBlock: KIFKEQ_clean_linker_1, # of connection points: 2
#     Edge 39, Type (0, 0), BuildingBlock: KIFKEQ_clean_linker_1, # of connection points: 2
#     Edge 40, Type (0, 0), BuildingBlock: KIFKEQ_clean_linker_1, # of connection points: 2
#     Edge 41, Type (0, 0), BuildingBlock: KIFKEQ_clean_linker_1, # of connection points: 2
#     Edge 42, Type (0, 0), BuildingBlock: KIFKEQ_clean_linker_1, # of connection points: 2
#     Edge 43, Type (0, 0), BuildingBlock: KIFKEQ_clean_linker_1, # of connection points: 2
#     Edge 44, Type (0, 0), BuildingBlock: KIFKEQ_clean_linker_1, # of connection points: 2
#     Edge 45, Type (0, 0), BuildingBlock: KIFKEQ_clean_linker_1, # of connection points: 2
#     Edge 46, Type (0, 0), BuildingBlock: KIFKEQ_clean_linker_1, # of connection points: 2
#     Edge 47, Type (0, 0), BuildingBlock: KIFKEQ_clean_linker_1, # of connection points: 2
#     Edge 48, Type (0, 0), BuildingBlock: KIFKEQ_clean_linker_1, # of connection points: 2
#     Edge 49, Type (0, 0), BuildingBlock: KIFKEQ_clean_linker_1, # of connection points: 2
#     Edge 50, Type (0, 0), BuildingBlock: KIFKEQ_clean_linker_1, # of connection points: 2
#     Edge 51, Type (0, 0), BuildingBlock: KIFKEQ_clean_linker_1, # of connection points: 2
#     Edge 52, Type (0, 0), BuildingBlock: KIFKEQ_clean_linker_1, # of connection points: 2
#     Edge 53, Type (0, 0), BuildingBlock: KIFKEQ_clean_linker_1, # of connection points: 2
#     Edge 54, Type (0, 0), BuildingBlock: KIFKEQ_clean_linker_1, # of connection points: 2
#     Edge 55, Type (0, 0), BuildingBlock: KIFKEQ_clean_linker_1, # of connection points: 2
#     Edge 56, Type (0, 0), BuildingBlock: KIFKEQ_clean_linker_1, # of connection points: 2
#     Edge 57, Type (0, 0), BuildingBlock: KIFKEQ_clean_linker_1, # of connection points: 2
#     Edge 58, Type (0, 0), BuildingBlock: KIFKEQ_clean_linker_1, # of connection points: 2
#     Edge 59, Type (0, 0), BuildingBlock: KIFKEQ_clean_linker_1, # of connection points: 2
#     Edge 60, Type (0, 0), BuildingBlock: KIFKEQ_clean_linker_1, # of connection points: 2
#     Edge 61, Type (0, 0), BuildingBlock: KIFKEQ_clean_linker_1, # of connection points: 2
#     Edge 62, Type (0, 0), BuildingBlock: KIFKEQ_clean_linker_1, # of connection points: 2
#     Edge 63, Type (0, 0), BuildingBlock: KIFKEQ_clean_linker_1, # of connection points: 2
#     Edge 64, Type (0, 0), BuildingBlock: KIFKEQ_clean_linker_1, # of connection points: 2
#     Edge 65, Type (0, 0), BuildingBlock: KIFKEQ_clean_linker_1, # of connection points: 2
#     Edge 66, Type (0, 0), BuildingBlock: KIFKEQ_clean_linker_1, # of connection points: 2
#     Edge 67, Type (0, 0), BuildingBlock: KIFKEQ_clean_linker_1, # of connection points: 2
#     Edge 68, Type (0, 0), BuildingBlock: KIFKEQ_clean_linker_1, # of connection points: 2
#     Edge 69, Type (0, 0), BuildingBlock: KIFKEQ_clean_linker_1, # of connection points: 2
#     Edge 70, Type (0, 0), BuildingBlock: KIFKEQ_clean_linker_1, # of connection points: 2
#     Edge 71, Type (0, 0), BuildingBlock: KIFKEQ_clean_linker_1, # of connection points: 2
#     Edge 72, Type (0, 0), BuildingBlock: KIFKEQ_clean_linker_1, # of connection points: 2
#     Edge 73, Type (0, 0), BuildingBlock: KIFKEQ_clean_linker_1, # of connection points: 2
#     Edge 74, Type (0, 0), BuildingBlock: KIFKEQ_clean_linker_1, # of connection points: 2
#     Edge 75, Type (0, 0), BuildingBlock: KIFKEQ_clean_linker_1, # of connection points: 2
#     Edge 76, Type (0, 0), BuildingBlock: KIFKEQ_clean_linker_1, # of connection points: 2
#     Edge 77, Type (0, 0), BuildingBlock: KIFKEQ_clean_linker_1, # of connection points: 2
#     Edge 78, Type (0, 0), BuildingBlock: KIFKEQ_clean_linker_1, # of connection points: 2
#     Edge 79, Type (0, 0), BuildingBlock: KIFKEQ_clean_linker_1, # of connection points: 2
#     Edge 80, Type (0, 0), BuildingBlock: KIFKEQ_clean_linker_1, # of connection points: 2
#     Edge 81, Type (0, 0), BuildingBlock: KIFKEQ_clean_linker_1, # of connection points: 2
#     Edge 82, Type (0, 0), BuildingBlock: KIFKEQ_clean_linker_1, # of connection points: 2
#     Edge 83, Type (0, 0), BuildingBlock: KIFKEQ_clean_linker_1, # of connection points: 2
#     Edge 84, Type (0, 0), BuildingBlock: KIFKEQ_clean_linker_1, # of connection points: 2
#     Edge 85, Type (0, 0), BuildingBlock: KIFKEQ_clean_linker_1, # of connection points: 2
#     Edge 86, Type (0, 0), BuildingBlock: KIFKEQ_clean_linker_1, # of connection points: 2
#     Edge 87, Type (0, 0), BuildingBlock: KIFKEQ_clean_linker_1, # of connection points: 2
#     Edge 88, Type (0, 0), BuildingBlock: KIFKEQ_clean_linker_1, # of connection points: 2
#     Edge 89, Type (0, 0), BuildingBlock: KIFKEQ_clean_linker_1, # of connection points: 2
#     Edge 90, Type (0, 0), BuildingBlock: KIFKEQ_clean_linker_1, # of connection points: 2
#     Edge 91, Type (0, 0), BuildingBlock: KIFKEQ_clean_linker_1, # of connection points: 2
#     Edge 92, Type (0, 0), BuildingBlock: KIFKEQ_clean_linker_1, # of connection points: 2
#     Edge 93, Type (0, 0), BuildingBlock: KIFKEQ_clean_linker_1, # of connection points: 2
#     Edge 94, Type (0, 0), BuildingBlock: KIFKEQ_clean_linker_1, # of connection points: 2
#     Edge 95, Type (0, 0), BuildingBlock: KIFKEQ_clean_linker_1, # of connection points: 2
#     Edge 96, Type (0, 0), BuildingBlock: KIFKEQ_clean_linker_1, # of connection points: 2
#     Edge 97, Type (0, 0), BuildingBlock: KIFKEQ_clean_linker_1, # of connection points: 2
#     Edge 98, Type (0, 0), BuildingBlock: KIFKEQ_clean_linker_1, # of connection points: 2
#     Edge 99, Type (0, 0), BuildingBlock: KIFKEQ_clean_linker_1, # of connection points: 2
#     Edge 100, Type (0, 0), BuildingBlock: KIFKEQ_clean_linker_1, # of connection points: 2
#     Edge 101, Type (0, 0), BuildingBlock: KIFKEQ_clean_linker_1, # of connection points: 2
#     Edge 102, Type (0, 0), BuildingBlock: KIFKEQ_clean_linker_1, # of connection points: 2
#     Edge 103, Type (0, 0), BuildingBlock: KIFKEQ_clean_linker_1, # of connection points: 2
#     Edge 104, Type (0, 0), BuildingBlock: KIFKEQ_clean_linker_1, # of connection points: 2
#     Edge 105, Type (0, 0), BuildingBlock: KIFKEQ_clean_linker_1, # of connection points: 2
#     Edge 106, Type (0, 0), BuildingBlock: KIFKEQ_clean_linker_1, # of connection points: 2
#     Edge 107, Type (0, 0), BuildingBlock: KIFKEQ_clean_linker_1, # of connection points: 2
#     Edge 108, Type (0, 0), BuildingBlock: KIFKEQ_clean_linker_1, # of connection points: 2
#     Edge 109, Type (0, 0), BuildingBlock: KIFKEQ_clean_linker_1, # of connection points: 2
#     Edge 110, Type (0, 0), BuildingBlock: KIFKEQ_clean_linker_1, # of connection points: 2
#     Edge 111, Type (0, 0), BuildingBlock: KIFKEQ_clean_linker_1, # of connection points: 2
#     Edge 112, Type (0, 0), BuildingBlock: KIFKEQ_clean_linker_1, # of connection points: 2
#     Edge 113, Type (0, 0), BuildingBlock: KIFKEQ_clean_linker_1, # of connection points: 2
#     Edge 114, Type (0, 0), BuildingBlock: KIFKEQ_clean_linker_1, # of connection points: 2
#     Edge 115, Type (0, 0), BuildingBlock: KIFKEQ_clean_linker_1, # of connection points: 2
#     Edge 116, Type (0, 0), BuildingBlock: KIFKEQ_clean_linker_1, # of connection points: 2
#     Edge 117, Type (0, 0), BuildingBlock: KIFKEQ_clean_linker_1, # of connection points: 2
#     Edge 118, Type (0, 0), BuildingBlock: KIFKEQ_clean_linker_1, # of connection points: 2
#     Edge 119, Type (0, 0), BuildingBlock: KIFKEQ_clean_linker_1, # of connection points: 2
#     Edge 120, Type (0, 0), BuildingBlock: KIFKEQ_clean_linker_1, # of connection points: 2
#     Edge 121, Type (0, 0), BuildingBlock: KIFKEQ_clean_linker_1, # of connection points: 2
#     Edge 122, Type (0, 0), BuildingBlock: KIFKEQ_clean_linker_1, # of connection points: 2
#     Edge 123, Type (0, 0), BuildingBlock: KIFKEQ_clean_linker_1, # of connection points: 2
#     Edge 124, Type (0, 0), BuildingBlock: KIFKEQ_clean_linker_1, # of connection points: 2
#     Edge 125, Type (0, 0), BuildingBlock: KIFKEQ_clean_linker_1, # of connection points: 2
# Relax obj value: 0.053
# Max RMSD: 0.100
# Mean RMSD: 0.100
data_MOF--net-wlm--node1-BEQFEK_clean_sbu_0--edge1-KIFKEQ_clean_linker_1
_symmetry_space_group_name_H-M    P1
_symmetry_Int_Tables_number       1
_symmetry_cell_setting            triclinic
loop_
_symmetry_equiv_pos_as_xyz
'x, y, z'
_cell_length_a     130.59357
_cell_length_b     130.59236
_cell_length_c     19.576714
_cell_angle_alpha  89.981202
_cell_angle_beta   90.015786
_cell_angle_gamma 120.00312
loop_
_atom_site_label
_atom_site_type_symbol
_atom_site_fract_x
_atom_site_fract_y
_atom_site_fract_z
_atom_type_partial_charge
Co0 Co 0.14523 0.40243 0.31094 0.0
Co1 Co 0.14175 0.39592 0.15536 0.0
C2 C 0.16542 0.40545 0.22432 0.0
O3 O 0.16132 0.40639 0.28161 0.0
O4 O 0.15885 0.40158 0.17147 0.0
C5 C 0.15417 0.41197 0.44678 0.0
O6 O 0.16482 0.41606 0.42142 0.0
C7 C 0.14526 0.39956 0.00687 0.0
C8 C 0.12754 0.38652 0.9683 0.0
C9 C 0.13858 0.39542 0.94769 0.0
N10 N 0.13842 0.39345 0.0601 0.0
N11 N 0.1279 0.38554 0.03655 0.0
C12 C 0.15746 0.40998 0.01382 0.0
H13 H 0.15855 0.41419 0.06456 0.0
H14 H 0.15927 0.41655 0.97288 0.0
H15 H 0.16397 0.40692 0.00943 0.0
C16 C 0.13468 0.41695 0.26822 0.0
N17 N 0.1389 0.40964 0.25421 0.0
N18 N 0.13745 0.40697 0.18879 0.0
C19 C 0.13228 0.41256 0.159 0.0
C20 C 0.1303 0.41902 0.20829 0.0
C21 C 0.13401 0.42099 0.33874 0.0
H22 H 0.12927 0.41318 0.37257 0.0
H23 H 0.1431 0.42646 0.35925 0.0
H24 H 0.12939 0.42617 0.33961 0.0
O25 O 0.13501 0.38509 0.30978 0.0
O26 O 0.13205 0.38023 0.20019 0.0
H27 H 0.12252 0.40273 0.07151 0.0
H28 H 0.1263 0.41806 0.0701 0.0
C29 C 0.12943 0.41188 0.08449 0.0
H30 H 0.13745 0.41417 0.05425 0.0
H31 H 0.12083 0.37977 0.06741 0.0
O32 O 0.14523 0.40668 0.40783 0.0
C33 C 0.13036 0.37734 0.26304 0.0
Co34 Co 0.59994 0.7433 0.30665 0.0
Co35 Co 0.60701 0.74623 0.15182 0.0
C36 C 0.59732 0.76048 0.21859 0.0
O37 O 0.59579 0.75524 0.27582 0.0
O38 O 0.60168 0.75793 0.16745 0.0
C39 C 0.59086 0.74322 0.4432 0.0
O40 O 0.58737 0.75032 0.41841 0.0
C41 C 0.60352 0.74628 0.00336 0.0
C42 C 0.61636 0.74134 0.96463 0.0
C43 C 0.60759 0.7437 0.94408 0.0
N44 N 0.60954 0.74538 0.05656 0.0
N45 N 0.61732 0.74261 0.03293 0.0
C46 C 0.59324 0.74827 0.01051 0.0
H47 H 0.58881 0.74485 0.06044 0.0
H48 H 0.58679 0.74392 0.96845 0.0
H49 H 0.59651 0.75791 0.00859 0.0
C50 C 0.58547 0.71821 0.26399 0.0
N51 N 0.59288 0.72973 0.25012 0.0
N52 N 0.59574 0.73092 0.18498 0.0
C53 C 0.59019 0.72017 0.15525 0.0
C54 C 0.58355 0.71174 0.20428 0.0
C55 C 0.58119 0.71352 0.33429 0.0
H56 H 0.5889 0.71645 0.36879 0.0
H57 H 0.57583 0.71731 0.35405 0.0
H58 H 0.57585 0.70373 0.33507 0.0
O59 O 0.61735 0.75054 0.30648 0.0
O60 O 0.62252 0.75196 0.19759 0.0
H61 H 0.60029 0.72012 0.06941 0.0
H62 H 0.58492 0.70866 0.06651 0.0
C63 C 0.59111 0.71797 0.08107 0.0
H64 H 0.58901 0.72375 0.04995 0.0
H65 H 0.62301 0.74117 0.06374 0.0
O66 O 0.59559 0.73905 0.40367 0.0
C67 C 0.62523 0.75338 0.26072 0.0
Co68 Co 0.25943 0.85786 0.30808 0.0
Co69 Co 0.25603 0.86084 0.15228 0.0
C70 C 0.24184 0.83748 0.22299 0.0
O71 O 0.24688 0.84179 0.28003 0.0
O72 O 0.24463 0.84382 0.16917 0.0
C73 C 0.26015 0.84887 0.4435 0.0
O74 O 0.25358 0.83824 0.41783 0.0
C75 C 0.25605 0.85725 0.00373 0.0
C76 C 0.26066 0.87495 0.9651 0.0
C77 C 0.25857 0.86392 0.94453 0.0
N78 N 0.25675 0.86408 0.05693 0.0
N79 N 0.25932 0.87459 0.03333 0.0
C80 C 0.25433 0.84508 0.01074 0.0
H81 H 0.25741 0.84398 0.06161 0.0
H82 H 0.25915 0.84331 0.97 0.0
H83 H 0.24477 0.83853 0.00604 0.0
C84 C 0.28434 0.86787 0.26354 0.0
N85 N 0.2728 0.86375 0.25032 0.0
N86 N 0.27145 0.86512 0.18494 0.0
C87 C 0.28214 0.87014 0.1544 0.0
C88 C 0.29066 0.8721 0.20313 0.0
C89 C 0.28919 0.86864 0.33378 0.0
H90 H 0.28542 0.8596 0.35523 0.0
H91 H 0.29898 0.87304 0.33378 0.0
H92 H 0.28639 0.87364 0.36731 0.0
O93 O 0.25293 0.86861 0.30682 0.0
O94 O 0.25004 0.87054 0.19713 0.0
H95 H 0.28184 0.87977 0.06679 0.0
H96 H 0.2935 0.87614 0.065 0.0
C97 C 0.28418 0.87293 0.07978 0.0
H98 H 0.27847 0.86486 0.04989 0.0
H99 H 0.2606 0.88165 0.06416 0.0
O100 O 0.2638 0.85785 0.40483 0.0
C101 C 0.24947 0.87288 0.25971 0.0
Co102 Co 0.4024 0.14458 0.68857 0.0
Co103 Co 0.39684 0.14133 0.84588 0.0
C104 C 0.40584 0.16483 0.77693 0.0
O105 O 0.40648 0.1606 0.71948 0.0
O106 O 0.40228 0.15839 0.83036 0.0
C107 C 0.4149 0.15109 0.55388 0.0
O108 O 0.42512 0.1576 0.5843 0.0
C109 C 0.401 0.14507 0.99451 0.0
C110 C 0.38896 0.1271 0.03392 0.0
C111 C 0.39745 0.13837 0.05386 0.0
N112 N 0.39496 0.13803 0.94171 0.0
N113 N 0.38764 0.12735 0.96586 0.0
C114 C 0.41079 0.15758 0.98693 0.0
H115 H 0.41525 0.1588 0.93689 0.0
H116 H 0.41735 0.16006 0.02882 0.0
H117 H 0.40702 0.16352 0.98884 0.0
C118 C 0.41701 0.13362 0.72774 0.0
N119 N 0.40997 0.13814 0.74261 0.0
N120 N 0.4078 0.13709 0.8088 0.0
C121 C 0.41355 0.13205 0.83798 0.0
C122 C 0.4195 0.12962 0.78776 0.0
C123 C 0.42044 0.1322 0.65702 0.0
H124 H 0.4132 0.13034 0.62074 0.0
H125 H 0.42842 0.14054 0.64148 0.0
H126 H 0.42255 0.12496 0.65475 0.0
O127 O 0.38515 0.13434 0.6939 0.0
O128 O 0.38085 0.1315 0.80417 0.0
H129 H 0.40464 0.12249 0.92804 0.0
H130 H 0.42017 0.12711 0.92626 0.0
C131 C 0.41352 0.1297 0.91283 0.0
H132 H 0.41561 0.13778 0.94191 0.0
H133 H 0.38205 0.12012 0.93546 0.0
O134 O 0.40554 0.1453 0.58906 0.0
C135 C 0.37764 0.12973 0.74181 0.0
Co136 Co 0.85819 0.25911 0.69288 0.0
Co137 Co 0.86139 0.25526 0.84793 0.0
C138 C 0.83792 0.24132 0.77567 0.0
O139 O 0.84194 0.2468 0.71944 0.0
O140 O 0.84453 0.24371 0.82804 0.0
C141 C 0.84961 0.26042 0.55761 0.0
O142 O 0.83892 0.25404 0.58295 0.0
C143 C 0.85769 0.25526 0.99753 0.0
C144 C 0.87448 0.2572 0.03587 0.0
C145 C 0.86401 0.25647 0.05714 0.0
N146 N 0.86427 0.25553 0.94384 0.0
N147 N 0.87424 0.25659 0.96731 0.0
C148 C 0.84553 0.25364 0.9914 0.0
H149 H 0.84121 0.24894 0.9437 0.0
H150 H 0.84616 0.26242 0.99004 0.0
H151 H 0.83999 0.24859 0.03564 0.0
C152 C 0.86842 0.28389 0.73997 0.0
N153 N 0.86424 0.27231 0.75202 0.0
N154 N 0.86576 0.27079 0.81693 0.0
C155 C 0.87105 0.28142 0.84821 0.0
C156 C 0.87291 0.29007 0.80057 0.0
C157 C 0.86903 0.28891 0.6704 0.0
H158 H 0.85995 0.28504 0.64926 0.0
H159 H 0.87327 0.29869 0.67136 0.0
H160 H 0.87412 0.28636 0.63598 0.0
O161 O 0.86869 0.25222 0.69339 0.0
O162 O 0.8712 0.24955 0.80261 0.0
H163 H 0.8784 0.29267 0.93747 0.0
H164 H 0.86623 0.27812 0.95342 0.0
C165 C 0.87429 0.28326 0.92233 0.0
H166 H 0.88049 0.27999 0.9336 0.0
H167 H 0.88098 0.25709 0.93637 0.0
O168 O 0.85851 0.26383 0.59659 0.0
C169 C 0.8732 0.24884 0.73963 0.0
Co170 Co 0.74455 0.60017 0.68901 0.0
Co171 Co 0.74627 0.60616 0.84563 0.0
C172 C 0.76088 0.59679 0.78115 0.0
O173 O 0.75601 0.59561 0.72304 0.0
O174 O 0.7581 0.60095 0.8322 0.0
C175 C 0.73869 0.58776 0.55354 0.0
O176 O 0.73454 0.57743 0.58346 0.0
C177 C 0.74581 0.60209 0.99421 0.0
C178 C 0.73939 0.61374 0.03334 0.0
C179 C 0.74249 0.60549 0.05352 0.0
N180 N 0.7446 0.60798 0.9413 0.0
N181 N 0.74093 0.61506 0.96525 0.0
C182 C 0.74888 0.59254 0.98668 0.0
H183 H 0.74527 0.58772 0.93795 0.0
H184 H 0.7454 0.58623 0.03005 0.0
H185 H 0.75865 0.59663 0.98523 0.0
C186 C 0.71881 0.58594 0.72483 0.0
N187 N 0.73033 0.59291 0.74105 0.0
N188 N 0.73122 0.59511 0.80719 0.0
C189 C 0.72032 0.58939 0.8351 0.0
C190 C 0.7121 0.58349 0.78395 0.0
C191 C 0.71421 0.58258 0.65356 0.0
H192 H 0.7199 0.58973 0.6175 0.0
H193 H 0.71429 0.57441 0.63909 0.0
H194 H 0.70499 0.58082 0.64966 0.0
O195 O 0.75187 0.61751 0.69381 0.0
O196 O 0.75243 0.62206 0.80326 0.0
H197 H 0.71909 0.59806 0.92469 0.0
H198 H 0.70862 0.5824 0.92253 0.0
C199 C 0.71779 0.5893 0.90973 0.0
H200 H 0.72393 0.58751 0.93952 0.0
H201 H 0.73911 0.62051 0.93474 0.0
O202 O 0.74246 0.59709 0.58919 0.0
C203 C 0.75438 0.62513 0.74072 0.0
Co204 Co 0.85775 0.59964 0.68971 0.0
Co205 Co 0.86134 0.60629 0.84516 0.0
C206 C 0.83763 0.59673 0.77654 0.0
O207 O 0.84168 0.59572 0.71924 0.0
O208 O 0.84424 0.60064 0.82921 0.0
C209 C 0.84881 0.5902 0.55372 0.0
O210 O 0.83816 0.58626 0.57889 0.0
C211 C 0.85784 0.60272 0.99369 0.0
C212 C 0.87557 0.61576 0.03217 0.0
C213 C 0.86452 0.60688 0.05286 0.0
N214 N 0.86469 0.60881 0.94041 0.0
N215 N 0.87521 0.61671 0.9639 0.0
C216 C 0.84564 0.59231 0.98682 0.0
H217 H 0.84454 0.58808 0.93614 0.0
H218 H 0.84382 0.58575 0.02784 0.0
H219 H 0.83913 0.59538 0.99115 0.0
C220 C 0.86829 0.58512 0.73284 0.0
N221 N 0.86411 0.59247 0.74663 0.0
N222 N 0.86559 0.59519 0.81197 0.0
C223 C 0.87075 0.58961 0.84193 0.0
C224 C 0.87269 0.58309 0.79283 0.0
C225 C 0.86891 0.581 0.66245 0.0
H226 H 0.85981 0.57555 0.64211 0.0
H227 H 0.87349 0.57578 0.66177 0.0
H228 H 0.87366 0.58878 0.62838 0.0
O229 O 0.86798 0.61698 0.69049 0.0
O230 O 0.87104 0.62194 0.79991 0.0
H231 H 0.87674 0.58416 0.93101 0.0
H232 H 0.8656 0.58808 0.94668 0.0
C233 C 0.87362 0.59034 0.91643 0.0
H234 H 0.88054 0.5995 0.92921 0.0
H235 H 0.88228 0.62247 0.933 0.0
O236 O 0.85774 0.59534 0.59284 0.0
C237 C 0.87268 0.62478 0.73696 0.0
Co238 Co 0.4025 0.25859 0.69212 0.0
Co239 Co 0.39567 0.25555 0.84736 0.0
C240 C 0.40525 0.24136 0.78005 0.0
O241 O 0.40651 0.24648 0.72264 0.0
O242 O 0.40112 0.244 0.83187 0.0
C243 C 0.4118 0.25882 0.55593 0.0
O244 O 0.41546 0.25188 0.58102 0.0
C245 C 0.39922 0.25557 0.99577 0.0
C246 C 0.38638 0.2605 0.03451 0.0
C247 C 0.39516 0.25817 0.05504 0.0
N248 N 0.39317 0.25642 0.9426 0.0
N249 N 0.38538 0.25919 0.96624 0.0
C250 C 0.40951 0.2536 0.9886 0.0
H251 H 0.41395 0.25705 0.93872 0.0
H252 H 0.41595 0.25794 0.03071 0.0
H253 H 0.40625 0.24396 0.99034 0.0
C254 C 0.41707 0.28363 0.73482 0.0
N255 N 0.40968 0.27211 0.74873 0.0
N256 N 0.40687 0.2709 0.81396 0.0
C257 C 0.41246 0.28166 0.84372 0.0
C258 C 0.41906 0.29008 0.79461 0.0
C259 C 0.42126 0.28832 0.66442 0.0
H260 H 0.41351 0.28533 0.63016 0.0
H261 H 0.42668 0.28461 0.64442 0.0
H262 H 0.42653 0.29812 0.66355 0.0
O263 O 0.38514 0.25172 0.69252 0.0
O264 O 0.38009 0.24956 0.80188 0.0
H265 H 0.40249 0.28169 0.93024 0.0
H266 H 0.41786 0.29314 0.93255 0.0
C267 C 0.41164 0.28384 0.91805 0.0
H268 H 0.41379 0.27805 0.9488 0.0
H269 H 0.37968 0.26061 0.93544 0.0
O270 O 0.40688 0.26284 0.59517 0.0
C271 C 0.37731 0.24856 0.7389 0.0
Co272 Co 0.74344 0.14413 0.68398 0.0
Co273 Co 0.74664 0.14138 0.84017 0.0
C274 C 0.76083 0.16466 0.76908 0.0
O275 O 0.75589 0.16024 0.71198 0.0
O276 O 0.75798 0.15841 0.82326 0.0
C277 C 0.74261 0.15313 0.54892 0.0
O278 O 0.74891 0.16376 0.57505 0.0
C279 C 0.74652 0.14498 0.98864 0.0
C280 C 0.74173 0.12722 0.02724 0.0
C281 C 0.74392 0.13828 0.04779 0.0
N282 N 0.74579 0.13812 0.93546 0.0
N283 N 0.74311 0.12759 0.95904 0.0
C284 C 0.74837 0.15719 0.98163 0.0
H285 H 0.74527 0.15831 0.93086 0.0
H286 H 0.74364 0.15905 0.02253 0.0
H287 H 0.75796 0.16367 0.98599 0.0
C288 C 0.71844 0.13394 0.72694 0.0
N289 N 0.72998 0.13819 0.74095 0.0
N290 N 0.73125 0.13697 0.80662 0.0
C291 C 0.72051 0.13194 0.8366 0.0
C292 C 0.71204 0.12979 0.78717 0.0
C293 C 0.71367 0.13295 0.65625 0.0
H294 H 0.71682 0.12817 0.62333 0.0
H295 H 0.71718 0.14195 0.63461 0.0
H296 H 0.70387 0.12823 0.65548 0.0
O297 O 0.75003 0.13346 0.68619 0.0
O298 O 0.75278 0.13174 0.79636 0.0
H299 H 0.72056 0.12242 0.92537 0.0
H300 H 0.70909 0.12632 0.92572 0.0
C301 C 0.71838 0.12934 0.91137 0.0
H302 H 0.72418 0.13745 0.9408 0.0
H303 H 0.74179 0.12051 0.92821 0.0
O304 O 0.73918 0.14413 0.58716 0.0
C305 C 0.75347 0.12932 0.73411 0.0
Co306 Co 0.60069 0.85766 0.31227 0.0
Co307 Co 0.60572 0.86065 0.15451 0.0
C308 C 0.59739 0.83738 0.22321 0.0
O309 O 0.59705 0.84172 0.2809 0.0
O310 O 0.6005 0.84368 0.16923 0.0
C311 C 0.58811 0.85083 0.4463 0.0
O312 O 0.57793 0.84447 0.41518 0.0
C313 C 0.60151 0.85695 0.00593 0.0
C314 C 0.61314 0.87504 0.96682 0.0
C315 C 0.60489 0.86369 0.9467 0.0
N316 N 0.60743 0.86404 0.0588 0.0
N317 N 0.61449 0.8748 0.03484 0.0
C318 C 0.59198 0.84432 0.01333 0.0
H319 H 0.58744 0.84297 0.06319 0.0
H320 H 0.58544 0.84166 0.97124 0.0
H321 H 0.59603 0.83862 0.01175 0.0
C322 C 0.58572 0.86826 0.27502 0.0
N323 N 0.59273 0.86374 0.25918 0.0
N324 N 0.59466 0.86468 0.19275 0.0
C325 C 0.58871 0.86957 0.16432 0.0
C326 C 0.58294 0.87209 0.21536 0.0
C327 C 0.58275 0.87 0.34627 0.0
H328 H 0.59009 0.87171 0.38144 0.0
H329 H 0.57467 0.86186 0.36307 0.0
H330 H 0.58099 0.87747 0.34882 0.0
O331 O 0.61781 0.86853 0.30632 0.0
O332 O 0.6218 0.87053 0.19548 0.0
H333 H 0.59706 0.87911 0.07314 0.0
H334 H 0.5814 0.87387 0.07671 0.0
C335 C 0.58837 0.87169 0.08942 0.0
H336 H 0.58652 0.86365 0.06071 0.0
H337 H 0.61995 0.88207 0.06534 0.0
O338 O 0.59753 0.85668 0.41177 0.0
C339 C 0.62516 0.87289 0.25745 0.0
Co340 Co 0.14498 0.74293 0.30263 0.0
Co341 Co 0.14119 0.74651 0.148 0.0
C342 C 0.16495 0.76056 0.21749 0.0
O343 O 0.16109 0.75525 0.27438 0.0
O344 O 0.1582 0.75802 0.16557 0.0
C345 C 0.15355 0.74172 0.43918 0.0
O346 O 0.1643 0.74797 0.41445 0.0
C347 C 0.14469 0.7456 0.00026 0.0
C348 C 0.12817 0.74391 0.95883 0.0
C349 C 0.1385 0.74412 0.94004 0.0
N350 N 0.13826 0.74614 0.05229 0.0
N351 N 0.12848 0.7453 0.02705 0.0
C352 C 0.15596 0.7454 0.00924 0.0
H353 H 0.15649 0.74243 0.0616 0.0
H354 H 0.15663 0.73951 0.97087 0.0
H355 H 0.16353 0.75448 0.00178 0.0
C356 C 0.13539 0.71819 0.25529 0.0
N357 N 0.13896 0.72967 0.24374 0.0
N358 N 0.13696 0.73103 0.17943 0.0
C359 C 0.1318 0.72039 0.14832 0.0
C360 C 0.13072 0.71189 0.19514 0.0
C361 C 0.13664 0.7135 0.32258 0.0
H362 H 0.14522 0.71986 0.34633 0.0
H363 H 0.13613 0.7048 0.3167 0.0
H364 H 0.12947 0.7125 0.35719 0.0
O365 O 0.13439 0.74976 0.30254 0.0
O366 O 0.13151 0.75229 0.19375 0.0
H367 H 0.12029 0.70876 0.0687 0.0
H368 H 0.13415 0.72102 0.04004 0.0
C369 C 0.12684 0.71822 0.07739 0.0
H370 H 0.12241 0.72344 0.06852 0.0
H371 H 0.12181 0.74526 0.05669 0.0
O372 O 0.14472 0.7384 0.39961 0.0
C373 C 0.12972 0.75306 0.25694 0.0
Co374 Co 0.25938 0.40283 0.30738 0.0
Co375 Co 0.25642 0.39565 0.15268 0.0
C376 C 0.24225 0.40547 0.21917 0.0
O377 O 0.24749 0.40704 0.27642 0.0
O378 O 0.24477 0.40104 0.16824 0.0
C379 C 0.25953 0.41193 0.44405 0.0
O380 O 0.25246 0.41547 0.41941 0.0
C381 C 0.25641 0.39915 0.0042 0.0
C382 C 0.26115 0.38617 0.96547 0.0
C383 C 0.25892 0.39501 0.9449 0.0
N384 N 0.25724 0.39309 0.05741 0.0
N385 N 0.25989 0.38522 0.03378 0.0
C386 C 0.25456 0.40952 0.01134 0.0
H387 H 0.25796 0.4139 0.0614 0.0
H388 H 0.25901 0.41598 0.96944 0.0
H389 H 0.24494 0.40636 0.00907 0.0
C390 C 0.28447 0.41723 0.26452 0.0
N391 N 0.27295 0.40982 0.25076 0.0
N392 N 0.27174 0.4069 0.18571 0.0
C393 C 0.2825 0.41239 0.15597 0.0
C394 C 0.29092 0.41908 0.20486 0.0
C395 C 0.28916 0.42161 0.33468 0.0
H396 H 0.28633 0.41394 0.3694 0.0
H397 H 0.28529 0.42691 0.35431 0.0
H398 H 0.29895 0.42704 0.33527 0.0
O399 O 0.25207 0.3854 0.30748 0.0
O400 O 0.25067 0.38017 0.1987 0.0
H401 H 0.28241 0.40215 0.07055 0.0
H402 H 0.29402 0.41745 0.06737 0.0
C403 C 0.28469 0.41137 0.0819 0.0
H404 H 0.279 0.41356 0.0505 0.0
H405 H 0.26126 0.37949 0.0646 0.0
O406 O 0.26366 0.40717 0.40438 0.0
C407 C 0.24922 0.3775 0.26188 0.0
Co408 Co 0.8121 0.73643 0.64838 0.0
Co409 Co 0.8084 0.72951 0.49319 0.0
C410 C 0.83213 0.7391 0.56154 0.0
O411 O 0.82815 0.74023 0.61878 0.0
O412 O 0.82548 0.73512 0.50908 0.0
C413 C 0.82108 0.7456 0.78457 0.0
O414 O 0.83165 0.74903 0.75974 0.0
C415 C 0.81186 0.73285 0.34448 0.0
C416 C 0.7941 0.71982 0.30635 0.0
C417 C 0.80516 0.72864 0.28541 0.0
N418 N 0.80501 0.72685 0.39797 0.0
N419 N 0.79447 0.71895 0.37468 0.0
C420 C 0.82408 0.74324 0.351 0.0
H421 H 0.82521 0.74755 0.40147 0.0
H422 H 0.82591 0.74976 0.30966 0.0
H423 H 0.83055 0.74013 0.34695 0.0
C424 C 0.80162 0.75096 0.60402 0.0
N425 N 0.80577 0.74356 0.59082 0.0
N426 N 0.80424 0.74072 0.52564 0.0
C427 C 0.79908 0.74626 0.49523 0.0
C428 C 0.79719 0.75289 0.54382 0.0
C429 C 0.80106 0.75522 0.67409 0.0
H430 H 0.79619 0.7475 0.70843 0.0
H431 H 0.81016 0.76058 0.69453 0.0
H432 H 0.79661 0.76057 0.67419 0.0
O433 O 0.80181 0.71909 0.64858 0.0
O434 O 0.79868 0.71397 0.53941 0.0
H435 H 0.78918 0.73618 0.40874 0.0
H436 H 0.79297 0.75151 0.40579 0.0
C437 C 0.79612 0.74536 0.4208 0.0
H438 H 0.80409 0.74755 0.39034 0.0
H439 H 0.7874 0.71326 0.40575 0.0
O440 O 0.81216 0.74087 0.7451 0.0
C441 C 0.79706 0.71123 0.60251 0.0
Co442 Co 0.26607 0.0763 0.65295 0.0
Co443 Co 0.27327 0.07926 0.49826 0.0
C444 C 0.26368 0.09361 0.56477 0.0
O445 O 0.26206 0.08834 0.62197 0.0
O446 O 0.26804 0.09102 0.5138 0.0
C447 C 0.25732 0.07661 0.78957 0.0
O448 O 0.25438 0.08414 0.76495 0.0
C449 C 0.27001 0.07951 0.34965 0.0
C450 C 0.28268 0.07433 0.31127 0.0
C451 C 0.27407 0.07689 0.29046 0.0
N452 N 0.27589 0.07845 0.40305 0.0
N453 N 0.28358 0.07554 0.37962 0.0
C454 C 0.25985 0.0817 0.35645 0.0
H455 H 0.25527 0.0782 0.40594 0.0
H456 H 0.25348 0.07755 0.31381 0.0
H457 H 0.26328 0.09138 0.35538 0.0
C458 C 0.25156 0.05122 0.60973 0.0
N459 N 0.259 0.06275 0.59611 0.0
N460 N 0.2619 0.06397 0.53102 0.0
C461 C 0.25634 0.05323 0.50106 0.0
C462 C 0.24966 0.04479 0.54989 0.0
C463 C 0.24725 0.0465 0.67992 0.0
H464 H 0.25494 0.04941 0.71454 0.0
H465 H 0.24187 0.05027 0.69967 0.0
H466 H 0.24191 0.03671 0.6805 0.0
O467 O 0.28348 0.08345 0.65349 0.0
O468 O 0.2887 0.08484 0.54467 0.0
H469 H 0.26642 0.05308 0.41546 0.0
H470 H 0.25099 0.04182 0.41196 0.0
C471 C 0.25729 0.05108 0.42685 0.0
H472 H 0.25534 0.05698 0.39579 0.0
H473 H 0.28915 0.07395 0.4106 0.0
O474 O 0.26161 0.07202 0.74983 0.0
C475 C 0.29137 0.08623 0.60785 0.0
Co476 Co 0.92623 0.19105 0.63916 0.0
Co477 Co 0.92231 0.19411 0.48398 0.0
C478 C 0.90837 0.17071 0.55661 0.0
O479 O 0.91388 0.1748 0.61272 0.0
O480 O 0.91075 0.17726 0.50395 0.0
C481 C 0.92731 0.18242 0.77445 0.0
O482 O 0.92065 0.17177 0.74922 0.0
C483 C 0.92203 0.19044 0.3341 0.0
C484 C 0.9249 0.20764 0.29667 0.0
C485 C 0.92363 0.19697 0.27485 0.0
N486 N 0.92262 0.1971 0.38815 0.0
N487 N 0.92421 0.20731 0.3652 0.0
C488 C 0.91976 0.17804 0.33953 0.0
H489 H 0.91453 0.17365 0.38571 0.0
H490 H 0.92832 0.17821 0.3435 0.0
H491 H 0.91493 0.17279 0.29394 0.0
C492 C 0.95098 0.20118 0.59175 0.0
N493 N 0.9394 0.19703 0.57985 0.0
N494 N 0.93784 0.19842 0.51481 0.0
C495 C 0.94844 0.20355 0.48322 0.0
C496 C 0.95712 0.20549 0.53085 0.0
C497 C 0.95604 0.20192 0.66136 0.0
H498 H 0.95335 0.20693 0.69564 0.0
H499 H 0.95231 0.19288 0.68265 0.0
H500 H 0.96582 0.20632 0.66041 0.0
O501 O 0.91939 0.20159 0.63871 0.0
O502 O 0.91663 0.20396 0.52943 0.0
H503 H 0.94739 0.21303 0.39686 0.0
H504 H 0.95957 0.21015 0.39303 0.0
C505 C 0.95023 0.20651 0.40872 0.0
H506 H 0.94472 0.19841 0.3786 0.0
H507 H 0.92506 0.21416 0.39653 0.0
O508 O 0.93097 0.19134 0.73537 0.0
C509 C 0.91599 0.20604 0.59233 0.0
Co510 Co 0.06995 0.47805 0.02643 0.0
Co511 Co 0.06308 0.47473 0.18157 0.0
C512 C 0.07247 0.49826 0.1097 0.0
O513 O 0.07375 0.49419 0.0532 0.0
O514 O 0.06845 0.4917 0.16246 0.0
C515 C 0.07959 0.48669 0.89107 0.0
O516 O 0.08361 0.49736 0.91615 0.0
C517 C 0.0668 0.47822 0.33119 0.0
C518 C 0.05194 0.46138 0.36901 0.0
C519 C 0.06168 0.47183 0.3906 0.0
N520 N 0.06048 0.4717 0.27733 0.0
N521 N 0.05158 0.4617 0.30048 0.0
C522 C 0.07736 0.49037 0.32538 0.0
H523 H 0.0772 0.49461 0.2769 0.0
H524 H 0.08552 0.48975 0.32594 0.0
H525 H 0.07768 0.49598 0.36882 0.0
C526 C 0.08456 0.46779 0.0724 0.0
N527 N 0.07717 0.47197 0.08503 0.0
N528 N 0.07422 0.47043 0.15006 0.0
C529 C 0.0796 0.46513 0.18083 0.0
C530 C 0.08633 0.46329 0.13273 0.0
C531 C 0.08891 0.46722 0.00259 0.0
H532 H 0.09404 0.47629 0.98139 0.0
H533 H 0.09449 0.46303 0.00317 0.0
H534 H 0.08121 0.46208 0.96846 0.0
O535 O 0.05259 0.46773 0.02699 0.0
O536 O 0.04751 0.46478 0.13628 0.0
H537 H 0.06883 0.45562 0.26638 0.0
H538 H 0.08362 0.45776 0.26956 0.0
C539 C 0.07827 0.46185 0.25488 0.0
H540 H 0.08122 0.46989 0.28617 0.0
H541 H 0.04533 0.455 0.26933 0.0
O542 O 0.07433 0.47778 0.93021 0.0
C543 C 0.04475 0.46304 0.07326 0.0
Co544 Co 0.52451 0.59198 0.02725 0.0
Co545 Co 0.52859 0.58894 0.18207 0.0
C546 C 0.50466 0.57479 0.11479 0.0
O547 O 0.5084 0.58006 0.05768 0.0
O548 O 0.51155 0.57729 0.16602 0.0
C549 C 0.51559 0.59228 0.89071 0.0
O550 O 0.50496 0.58535 0.91551 0.0
C551 C 0.52503 0.58892 0.33054 0.0
C552 C 0.54275 0.59365 0.36944 0.0
C553 C 0.53167 0.59144 0.3899 0.0
N554 N 0.53192 0.58973 0.27741 0.0
N555 N 0.54244 0.59237 0.30115 0.0
C556 C 0.51282 0.58709 0.32328 0.0
H557 H 0.51182 0.59043 0.27301 0.0
H558 H 0.51084 0.59161 0.3649 0.0
H559 H 0.50634 0.57748 0.32597 0.0
C560 C 0.53511 0.61704 0.07046 0.0
N561 N 0.53102 0.60552 0.08407 0.0
N562 N 0.53268 0.60428 0.14917 0.0
C563 C 0.53788 0.61502 0.17912 0.0
C564 C 0.53964 0.62347 0.1303 0.0
C565 C 0.53548 0.62176 0.00031 0.0
H566 H 0.52632 0.61795 0.9806 0.0
H567 H 0.53988 0.63155 -0.00023 0.0
H568 H 0.54029 0.6189 0.96563 0.0
O569 O 0.53464 0.5847 0.02749 0.0
O570 O 0.53837 0.5832 0.13635 0.0
H571 H 0.54792 0.6149 0.26509 0.0
H572 H 0.54421 0.62649 0.26799 0.0
C573 C 0.54099 0.61717 0.25334 0.0
H574 H 0.53306 0.61146 0.28435 0.0
H575 H 0.54954 0.59373 0.27041 0.0
O576 O 0.52449 0.59628 0.93024 0.0
C577 C 0.53966 0.58181 0.07319 0.0
Co578 Co 0.41003 0.93276 0.01888 0.0
Co579 Co 0.41343 0.93943 0.17439 0.0
C580 C 0.42758 0.93009 0.10489 0.0
O581 O 0.42255 0.92923 0.04766 0.0
O582 O 0.42481 0.93377 0.15819 0.0
C583 C 0.40963 0.92334 0.88315 0.0
O584 O 0.41658 0.9197 0.90838 0.0
C585 C 0.41352 0.93602 0.32309 0.0
C586 C 0.40885 0.9491 0.36128 0.0
C587 C 0.41103 0.94022 0.38217 0.0
N588 N 0.41273 0.94207 0.26965 0.0
N589 N 0.41014 0.95 0.29298 0.0
C590 C 0.41528 0.92559 0.31649 0.0
H591 H 0.41211 0.92131 0.26594 0.0
H592 H 0.41055 0.91907 0.35772 0.0
H593 H 0.42486 0.92865 0.32068 0.0
C594 C 0.38511 0.91801 0.06373 0.0
N595 N 0.39665 0.92544 0.07678 0.0
N596 N 0.39801 0.92825 0.14202 0.0
C597 C 0.38733 0.92265 0.17262 0.0
C598 C 0.37879 0.91602 0.1241 0.0
C599 C 0.38024 0.91382 0.99364 0.0
H600 H 0.38304 0.92158 0.95966 0.0
H601 H 0.38401 0.90852 0.97265 0.0
H602 H 0.37045 0.90844 0.99372 0.0
O603 O 0.41663 0.95004 0.01904 0.0
O604 O 0.41942 0.95504 0.12847 0.0
H605 H 0.38761 0.93271 0.2595 0.0
H606 H 0.37599 0.9174 0.26211 0.0
C607 C 0.3853 0.92351 0.24713 0.0
H608 H 0.39105 0.92124 0.27735 0.0
H609 H 0.4088 0.95572 0.26194 0.0
O610 O 0.40563 0.92829 0.92224 0.0
C611 C 0.42006 0.95784 0.06565 0.0
Co612 Co 0.52487 0.93315 0.03108 0.0
Co613 Co 0.52837 0.94033 0.18605 0.0
C614 C 0.50475 0.93071 0.11647 0.0
O615 O 0.50875 0.92936 0.05983 0.0
O616 O 0.51138 0.93487 0.16887 0.0
C617 C 0.51597 0.92381 0.89498 0.0
O618 O 0.50538 0.92025 0.91993 0.0
C619 C 0.52476 0.93689 0.33468 0.0
C620 C 0.54239 0.95015 0.37344 0.0
C621 C 0.53139 0.94114 0.394 0.0
N622 N 0.53159 0.94304 0.28146 0.0
N623 N 0.54204 0.95107 0.30513 0.0
C624 C 0.51265 0.92635 0.32758 0.0
H625 H 0.51168 0.9221 0.27705 0.0
H626 H 0.51088 0.91984 0.36888 0.0
H627 H 0.50603 0.92928 0.33113 0.0
C628 C 0.53495 0.91843 0.0777 0.0
N629 N 0.53096 0.92599 0.08978 0.0
N630 N 0.53256 0.92904 0.15467 0.0
C631 C 0.53767 0.92352 0.1859 0.0
C632 C 0.53937 0.91664 0.13826 0.0
C633 C 0.53534 0.91385 0.00829 0.0
H634 H 0.5406 0.92143 0.97361 0.0
H635 H 0.52624 0.90887 0.98733 0.0
H636 H 0.5393 0.90806 0.00952 0.0
O637 O 0.53546 0.95051 0.03079 0.0
O638 O 0.53807 0.95582 0.13977 0.0
H639 H 0.54752 0.93406 0.27125 0.0
H640 H 0.5444 0.91894 0.2753 0.0
C641 C 0.54084 0.92474 0.26009 0.0
H642 H 0.53286 0.9223 0.29108 0.0
H643 H 0.5491 0.95689 0.27433 0.0
O644 O 0.5249 0.92865 0.93439 0.0
C645 C 0.54002 0.95844 0.07667 0.0
Co646 Co 0.06896 0.59134 0.01689 0.0
Co647 Co 0.06299 0.58977 0.17349 0.0
C648 C 0.07223 0.57499 0.10921 0.0
O649 O 0.07344 0.57983 0.05096 0.0
O650 O 0.0681 0.57786 0.16012 0.0
C651 C 0.08131 0.59691 0.88141 0.0
O652 O 0.09158 0.60072 0.91137 0.0
C653 C 0.06718 0.5903 0.32194 0.0
C654 C 0.0555 0.59665 0.36151 0.0
C655 C 0.06378 0.59358 0.3814 0.0
N656 N 0.06124 0.59149 0.26921 0.0
N657 N 0.05415 0.59512 0.29342 0.0
C658 C 0.07673 0.58723 0.31412 0.0
H659 H 0.08151 0.59084 0.26529 0.0
H660 H 0.08306 0.59072 0.35736 0.0
H661 H 0.07265 0.57747 0.31269 0.0
C662 C 0.08352 0.61708 0.05238 0.0
N663 N 0.07636 0.60559 0.06871 0.0
N664 N 0.07407 0.60477 0.13473 0.0
C665 C 0.07985 0.61569 0.16236 0.0
C666 C 0.08596 0.62383 0.11123 0.0
C667 C 0.08719 0.62161 0.98124 0.0
H668 H 0.08 0.61616 0.94482 0.0
H669 H 0.09513 0.62105 0.96748 0.0
H670 H 0.08944 0.63098 0.9771 0.0
O671 O 0.05161 0.5841 0.02199 0.0
O672 O 0.04709 0.58365 0.13142 0.0
H673 H 0.0709 0.61687 0.25078 0.0
H674 H 0.08649 0.62756 0.24926 0.0
C675 C 0.07975 0.61832 0.23669 0.0
H676 H 0.08163 0.61233 0.26737 0.0
H677 H 0.04866 0.59691 0.26311 0.0
O678 O 0.07201 0.5934 0.91702 0.0
C679 C 0.04401 0.58167 0.06892 0.0
Co680 Co 0.41041 0.47756 0.02403 0.0
Co681 Co 0.41377 0.4745 0.1798 0.0
C682 C 0.42786 0.49793 0.10959 0.0
O683 O 0.42285 0.49365 0.05244 0.0
O684 O 0.4251 0.49154 0.16321 0.0
C685 C 0.40967 0.48652 0.8885 0.0
O686 O 0.41621 0.49716 0.91406 0.0
C687 C 0.41372 0.47805 0.32836 0.0
C688 C 0.40916 0.46035 0.3669 0.0
C689 C 0.41123 0.47137 0.38753 0.0
N690 N 0.41304 0.47123 0.27511 0.0
N691 N 0.4105 0.46073 0.29865 0.0
C692 C 0.4154 0.4902 0.32142 0.0
H693 H 0.41229 0.49129 0.2706 0.0
H694 H 0.41057 0.49195 0.36223 0.0
H695 H 0.42495 0.49677 0.32607 0.0
C696 C 0.38546 0.46735 0.06829 0.0
N697 N 0.39701 0.47153 0.08162 0.0
N698 N 0.39835 0.47016 0.14701 0.0
C699 C 0.38765 0.46509 0.17745 0.0
C700 C 0.37913 0.46309 0.12864 0.0
C701 C 0.38062 0.46658 0.99801 0.0
H702 H 0.38354 0.4617 0.96433 0.0
H703 H 0.38429 0.47563 0.97685 0.0
H704 H 0.37083 0.46206 0.99781 0.0
O705 O 0.41705 0.46692 0.02511 0.0
O706 O 0.41985 0.46489 0.1348 0.0
H707 H 0.38794 0.45548 0.2652 0.0
H708 H 0.37629 0.45912 0.26686 0.0
C709 C 0.3856 0.46232 0.25209 0.0
H710 H 0.39131 0.4704 0.28193 0.0
H711 H 0.40924 0.45368 0.26778 0.0
O712 O 0.40604 0.47756 0.92727 0.0
C713 C 0.4205 0.46264 0.07217 0.0
Co714 Co 0.2665 0.19116 0.643 0.0
Co715 Co 0.27302 0.19371 0.48743 0.0
C716 C 0.26375 0.17054 0.56158 0.0
O717 O 0.26287 0.17496 0.61781 0.0
O718 O 0.26744 0.17678 0.5075 0.0
C719 C 0.25648 0.18256 0.77763 0.0
O720 O 0.25211 0.17189 0.75187 0.0
C721 C 0.26935 0.1901 0.33772 0.0
C722 C 0.28423 0.20692 0.29993 0.0
C723 C 0.2745 0.19648 0.27832 0.0
N724 N 0.27565 0.19663 0.39161 0.0
N725 N 0.28457 0.20662 0.36846 0.0
C726 C 0.2588 0.17795 0.34346 0.0
H727 H 0.25904 0.17366 0.39158 0.0
H728 H 0.25063 0.17857 0.34367 0.0
H729 H 0.25841 0.17238 0.29961 0.0
C730 C 0.25179 0.20119 0.59559 0.0
N731 N 0.25913 0.19694 0.58356 0.0
N732 N 0.262 0.19825 0.51842 0.0
C733 C 0.2566 0.20346 0.48693 0.0
C734 C 0.24995 0.20549 0.5347 0.0
C735 C 0.24758 0.20205 0.66529 0.0
H736 H 0.25533 0.20719 0.69898 0.0
H737 H 0.24237 0.19305 0.68735 0.0
H738 H 0.24211 0.20636 0.66421 0.0
O739 O 0.2838 0.2018 0.64183 0.0
O740 O 0.28867 0.20348 0.5323 0.0
H741 H 0.26724 0.21267 0.40036 0.0
H742 H 0.25244 0.21053 0.39729 0.0
C743 C 0.25781 0.20649 0.41251 0.0
H744 H 0.25481 0.19833 0.38219 0.0
H745 H 0.2908 0.21332 0.39962 0.0
O746 O 0.2621 0.1915 0.73909 0.0
C747 C 0.29155 0.20592 0.59483 0.0
Co748 Co 0.81141 0.076 0.65138 0.0
Co749 Co 0.80854 0.07933 0.4954 0.0
C750 C 0.83187 0.09347 0.5664 0.0
O751 O 0.82752 0.08849 0.62352 0.0
O752 O 0.82556 0.09065 0.51244 0.0
C753 C 0.82032 0.07506 0.78664 0.0
O754 O 0.83097 0.08139 0.76078 0.0
C755 C 0.81213 0.0792 0.34694 0.0
C756 C 0.79449 0.07479 0.30815 0.0
C757 C 0.80547 0.07674 0.28769 0.0
N758 N 0.80532 0.0786 0.40005 0.0
N759 N 0.79486 0.07616 0.37636 0.0
C760 C 0.82424 0.08078 0.35408 0.0
H761 H 0.8253 0.07772 0.40511 0.0
H762 H 0.82593 0.07586 0.31357 0.0
H763 H 0.83087 0.09031 0.34903 0.0
C764 C 0.80144 0.05106 0.60706 0.0
N765 N 0.8055 0.06259 0.5938 0.0
N766 N 0.80413 0.06392 0.52839 0.0
C767 C 0.79912 0.05322 0.49795 0.0
C768 C 0.79722 0.04473 0.54671 0.0
C769 C 0.80082 0.04622 0.67715 0.0
H770 H 0.79563 0.04878 0.7108 0.0
H771 H 0.80988 0.05023 0.69865 0.0
H772 H 0.79669 0.03645 0.67684 0.0
O773 O 0.80074 0.08262 0.64969 0.0
O774 O 0.79893 0.08544 0.53974 0.0
H775 H 0.7896 0.05367 0.41019 0.0
H776 H 0.7929 0.04179 0.40889 0.0
C777 C 0.7963 0.05115 0.42338 0.0
H778 H 0.8044 0.05671 0.39338 0.0
H779 H 0.78782 0.07498 0.40712 0.0
O780 O 0.81135 0.07163 0.74814 0.0
C781 C 0.79657 0.0861 0.60213 0.0
Co782 Co 0.92593 0.73606 0.64113 0.0
Co783 Co 0.92288 0.72887 0.48642 0.0
C784 C 0.90874 0.73869 0.55325 0.0
O785 O 0.91402 0.74025 0.61037 0.0
O786 O 0.91123 0.73425 0.50218 0.0
C787 C 0.926 0.74509 0.77773 0.0
O788 O 0.91882 0.74849 0.75306 0.0
C789 C 0.9228 0.73231 0.33789 0.0
C790 C 0.92761 0.71937 0.29925 0.0
C791 C 0.92533 0.72818 0.27862 0.0
N792 N 0.92366 0.72627 0.39115 0.0
N793 N 0.92635 0.71843 0.36757 0.0
C794 C 0.9209 0.74264 0.34493 0.0
H795 H 0.92432 0.74707 0.39489 0.0
H796 H 0.92531 0.74909 0.30288 0.0
H797 H 0.91127 0.73944 0.34286 0.0
C798 C 0.95098 0.7505 0.59781 0.0
N799 N 0.93946 0.74306 0.58427 0.0
N800 N 0.93822 0.74013 0.51922 0.0
C801 C 0.94896 0.74564 0.48927 0.0
C802 C 0.9574 0.75235 0.53801 0.0
C803 C 0.95571 0.75489 0.66789 0.0
H804 H 0.95292 0.74723 0.70264 0.0
H805 H 0.95183 0.76018 0.6876 0.0
H806 H 0.96549 0.76035 0.66828 0.0
O807 O 0.91863 0.71864 0.64131 0.0
O808 O 0.91716 0.71339 0.53253 0.0
H809 H 0.94886 0.73541 0.40378 0.0
H810 H 0.96044 0.75072 0.40046 0.0
C811 C 0.95112 0.74462 0.41514 0.0
H812 H 0.94539 0.74679 0.38389 0.0
H813 H 0.92776 0.71273 0.39843 0.0
O814 O 0.93024 0.74044 0.73807 0.0
C815 C 0.91576 0.71073 0.59573 0.0
Co816 Co 0.47782 0.06839 0.97729 0.0
Co817 Co 0.47494 0.06285 0.81987 0.0
C818 C 0.4982 0.07156 0.8898 0.0
O819 O 0.49381 0.07204 0.94706 0.0
O820 O 0.49193 0.06826 0.8357 0.0
C821 C 0.48435 0.08104 0.11183 0.0
O822 O 0.49077 0.09128 0.08138 0.0
C823 C 0.47868 0.06692 0.67111 0.0
C824 C 0.46074 0.05475 0.63183 0.0
C825 C 0.47198 0.0633 0.61177 0.0
N826 N 0.47166 0.06087 0.72399 0.0
N827 N 0.46101 0.05347 0.6999 0.0
C828 C 0.49115 0.07682 0.67862 0.0
H829 H 0.49236 0.0812 0.7289 0.0
H830 H 0.49351 0.08341 0.63704 0.0
H831 H 0.49719 0.07315 0.67603 0.0
C832 C 0.46726 0.08326 0.93638 0.0
N833 N 0.47174 0.07615 0.92227 0.0
N834 N 0.47075 0.07392 0.85614 0.0
C835 C 0.46581 0.07971 0.82626 0.0
C836 C 0.46337 0.08574 0.87593 0.0
C837 C 0.4657 0.0867 0.00681 0.0
H838 H 0.46386 0.0795 0.04338 0.0
H839 H 0.47397 0.09474 0.02245 0.0
H840 H 0.45839 0.0887 0.00842 0.0
O841 O 0.46706 0.05122 0.9725 0.0
O842 O 0.46514 0.04688 0.86214 0.0
H843 H 0.45636 0.07068 0.73615 0.0
H844 H 0.46085 0.08618 0.73733 0.0
C845 C 0.46351 0.0796 0.75128 0.0
H846 H 0.47163 0.08173 0.72257 0.0
H847 H 0.4538 0.04785 0.73036 0.0
O848 O 0.47863 0.07167 0.07671 0.0
C849 C 0.46278 0.04371 0.92438 0.0
Co850 Co 0.93349 0.40986 0.97896 0.0
Co851 Co 0.94053 0.41282 0.82409 0.0
C852 C 0.93079 0.42701 0.89111 0.0
O853 O 0.92927 0.42176 0.94826 0.0
O854 O 0.93516 0.42449 0.83989 0.0
C855 C 0.9244 0.40977 0.11541 0.0
O856 O 0.9209 0.41685 0.09054 0.0
C857 C 0.93706 0.41291 0.67557 0.0
C858 C 0.94988 0.40794 0.63692 0.0
C859 C 0.94114 0.41032 0.61631 0.0
N860 N 0.94306 0.41199 0.72881 0.0
N861 N 0.95084 0.40921 0.70522 0.0
C862 C 0.92679 0.41492 0.68264 0.0
H863 H 0.92234 0.4115 0.73255 0.0
H864 H 0.92034 0.41057 0.64054 0.0
H865 H 0.93007 0.42456 0.68073 0.0
C866 C 0.91911 0.38476 0.93635 0.0
N867 N 0.92647 0.39629 0.92243 0.0
N868 N 0.92929 0.3975 0.85723 0.0
C869 C 0.92375 0.38674 0.82748 0.0
C870 C 0.91716 0.37831 0.87659 0.0
C871 C 0.91489 0.38007 0.00671 0.0
H872 H 0.92262 0.38315 0.04122 0.0
H873 H 0.90938 0.3837 0.02634 0.0
H874 H 0.9097 0.37027 0.00767 0.0
O875 O 0.9509 0.41715 0.97874 0.0
O876 O 0.95605 0.41857 0.86978 0.0
H877 H 0.93375 0.38667 0.7412 0.0
H878 H 0.91835 0.37528 0.73856 0.0
C879 C 0.9246 0.38457 0.75318 0.0
H880 H 0.92251 0.39039 0.72235 0.0
H881 H 0.95651 0.40775 0.73607 0.0
O882 O 0.92915 0.4056 0.07594 0.0
C883 C 0.95877 0.42 0.93289 0.0
Co884 Co 0.59316 0.52413 0.97229 0.0
Co885 Co 0.58921 0.52773 0.81789 0.0
C886 C 0.57533 0.50407 0.88968 0.0
O887 O 0.58101 0.5079 0.9455 0.0
O888 O 0.57757 0.51085 0.83822 0.0
C889 C 0.59422 0.51563 0.10809 0.0
O890 O 0.58748 0.50496 0.08325 0.0
C891 C 0.58911 0.524 0.66829 0.0
C892 C 0.59086 0.5407 0.62974 0.0
C893 C 0.59023 0.53027 0.60854 0.0
N894 N 0.58933 0.53058 0.72191 0.0
N895 N 0.59027 0.54049 0.69831 0.0
C896 C 0.58763 0.5119 0.67468 0.0
H897 H 0.58305 0.50762 0.72277 0.0
H898 H 0.59645 0.51262 0.67549 0.0
H899 H 0.58252 0.50627 0.63085 0.0
C900 C 0.61792 0.53448 0.92378 0.0
N901 N 0.60632 0.53036 0.91252 0.0
N902 N 0.60473 0.532 0.84793 0.0
C903 C 0.61531 0.53737 0.81619 0.0
C904 C 0.62402 0.5391 0.86308 0.0
C905 C 0.62304 0.53487 0.99272 0.0
H906 H 0.61889 0.52577 0.01388 0.0
H907 H 0.63277 0.53874 0.99067 0.0
H908 H 0.62089 0.54021 0.02771 0.0
O909 O 0.58586 0.53429 0.97269 0.0
O910 O 0.58382 0.53773 0.86408 0.0
H911 H 0.62651 0.54525 0.72725 0.0
H912 H 0.61212 0.53288 0.71051 0.0
C913 C 0.61708 0.54088 0.74245 0.0
H914 H 0.61358 0.54691 0.73235 0.0
H915 H 0.59071 0.54721 0.72918 0.0
O916 O 0.59799 0.52451 0.06858 0.0
C917 C 0.58275 0.53919 0.92743 0.0
Co918 Co 0.73642 0.81153 0.35754 0.0
Co919 Co 0.72927 0.8076 0.51238 0.0
C920 C 0.73897 0.83144 0.44434 0.0
O921 O 0.74051 0.82764 0.3875 0.0
O922 O 0.7346 0.82461 0.49586 0.0
C923 C 0.74557 0.82046 0.22113 0.0
O924 O 0.74906 0.83104 0.24595 0.0
C925 C 0.73268 0.81119 0.66097 0.0
C926 C 0.71974 0.79343 0.69961 0.0
C927 C 0.72855 0.80452 0.72024 0.0
N928 N 0.72665 0.80429 0.6077 0.0
N929 N 0.7188 0.79375 0.6313 0.0
C930 C 0.74303 0.82342 0.65392 0.0
H931 H 0.74739 0.82445 0.60373 0.0
H932 H 0.74951 0.82541 0.69566 0.0
H933 H 0.73984 0.82986 0.65662 0.0
C934 C 0.75092 0.80103 0.40191 0.0
N935 N 0.74347 0.80511 0.41498 0.0
N936 N 0.74057 0.80353 0.48009 0.0
C937 C 0.74613 0.7984 0.51057 0.0
C938 C 0.75283 0.79659 0.46211 0.0
C939 C 0.75529 0.80057 0.33196 0.0
H940 H 0.74762 0.79572 0.29727 0.0
H941 H 0.76064 0.80971 0.3119 0.0
H942 H 0.76068 0.79617 0.33192 0.0
O943 O 0.71901 0.80133 0.35749 0.0
O944 O 0.71379 0.79776 0.46641 0.0
H945 H 0.73599 0.78844 0.59679 0.0
H946 H 0.75133 0.79225 0.60004 0.0
C947 C 0.74518 0.79539 0.58495 0.0
H948 H 0.74735 0.80335 0.61553 0.0
H949 H 0.71311 0.78664 0.60045 0.0
O950 O 0.74081 0.81154 0.26066 0.0
C951 C 0.71111 0.79637 0.40325 0.0
Co952 Co 0.19152 0.92584 0.3601 0.0
Co953 Co 0.19483 0.92194 0.51506 0.0
C954 C 0.17136 0.90789 0.4432 0.0
O955 O 0.17532 0.91341 0.38701 0.0
O956 O 0.178 0.91031 0.49544 0.0
C957 C 0.18283 0.9266 0.22449 0.0
O958 O 0.17223 0.9196 0.24936 0.0
C959 C 0.19119 0.92157 0.66502 0.0
C960 C 0.20849 0.92467 0.70221 0.0
C961 C 0.19777 0.92326 0.72418 0.0
N962 N 0.19787 0.92225 0.61086 0.0
N963 N 0.20814 0.92397 0.63367 0.0
C964 C 0.17873 0.91913 0.65976 0.0
H965 H 0.17435 0.91379 0.61392 0.0
H966 H 0.17878 0.92763 0.65528 0.0
H967 H 0.17355 0.91434 0.70561 0.0
C968 C 0.20159 0.95057 0.40789 0.0
N969 N 0.19751 0.939 0.41956 0.0
N970 N 0.19898 0.93743 0.48447 0.0
C971 C 0.20408 0.94802 0.51621 0.0
C972 C 0.20592 0.9567 0.46882 0.0
C973 C 0.20222 0.95565 0.33846 0.0
H974 H 0.20729 0.95308 0.30388 0.0
H975 H 0.19315 0.95183 0.31735 0.0
H976 H 0.2065 0.96543 0.33964 0.0
O977 O 0.20211 0.91905 0.35988 0.0
O978 O 0.20472 0.91639 0.46895 0.0
H979 H 0.21368 0.94705 0.60213 0.0
H980 H 0.21064 0.95911 0.60657 0.0
C981 C 0.20708 0.94979 0.59066 0.0
H982 H 0.19902 0.94421 0.62091 0.0
H983 H 0.21501 0.92492 0.60224 0.0
O984 O 0.19174 0.93059 0.26391 0.0
C985 C 0.20668 0.91571 0.40588 0.0
Co986 Co 0.07707 0.26596 0.35561 0.0
Co987 Co 0.07981 0.27302 0.51036 0.0
C988 C 0.09411 0.26329 0.44457 0.0
O989 O 0.08894 0.26175 0.38712 0.0
O990 O 0.09152 0.26769 0.49537 0.0
C991 C 0.07721 0.25705 0.21889 0.0
O992 O 0.08444 0.25372 0.24356 0.0
C993 C 0.07981 0.26954 0.65878 0.0
C994 C 0.07475 0.28229 0.69743 0.0
C995 C 0.07719 0.27359 0.71804 0.0
N996 N 0.07886 0.27552 0.60554 0.0
N997 N 0.07601 0.28325 0.62912 0.0
C998 C 0.08191 0.25933 0.65171 0.0
H999 H 0.0784 0.2548 0.60209 0.0
H1000 H 0.0777 0.25293 0.69417 0.0
H1001 H 0.09157 0.26269 0.65286 0.0
C1002 C 0.05193 0.25152 0.39718 0.0
N1003 N 0.06343 0.25892 0.41155 0.0
N1004 N 0.06454 0.26177 0.47668 0.0
C1005 C 0.05374 0.25623 0.50592 0.0
C1006 C 0.04539 0.2496 0.45656 0.0
C1007 C 0.04734 0.24725 0.32673 0.0
H1008 H 0.0503 0.25496 0.29221 0.0
H1009 H 0.05116 0.24189 0.30731 0.0
H1010 H 0.03755 0.24189 0.32552 0.0
O1011 O 0.08436 0.28338 0.35574 0.0
O1012 O 0.08559 0.28853 0.46458 0.0
H1013 H 0.05353 0.2663 0.59139 0.0
H1014 H 0.04213 0.25091 0.59418 0.0
C1015 C 0.05145 0.25714 0.57995 0.0
H1016 H 0.05723 0.2551 0.61147 0.0
H1017 H 0.07452 0.2889 0.59827 0.0
O1018 O 0.0729 0.26163 0.25855 0.0
C1019 C 0.08712 0.29125 0.40148 0.0
Co1020 Co 0.19115 0.26638 0.35438 0.0
Co1021 Co 0.19466 0.27295 0.50991 0.0
C1022 C 0.17098 0.2634 0.44101 0.0
O1023 O 0.17507 0.26243 0.38375 0.0
O1024 O 0.17756 0.26728 0.49382 0.0
C1025 C 0.18221 0.25689 0.2185 0.0
O1026 O 0.17156 0.25287 0.2438 0.0
C1027 C 0.19115 0.26932 0.65841 0.0
C1028 C 0.20888 0.28237 0.69698 0.0
C1029 C 0.19783 0.27347 0.7176 0.0
N1030 N 0.198 0.27543 0.60517 0.0
N1031 N 0.20852 0.28334 0.62872 0.0
C1032 C 0.17896 0.2589 0.65147 0.0
H1033 H 0.17787 0.25468 0.60078 0.0
H1034 H 0.17714 0.25234 0.69249 0.0
H1035 H 0.17245 0.26197 0.65574 0.0
C1036 C 0.20168 0.25185 0.39725 0.0
N1037 N 0.19748 0.25918 0.41119 0.0
N1038 N 0.19896 0.26188 0.47657 0.0
C1039 C 0.20414 0.25631 0.50639 0.0
C1040 C 0.20608 0.24981 0.45717 0.0
C1041 C 0.2023 0.24776 0.3268 0.0
H1042 H 0.20709 0.25555 0.29288 0.0
H1043 H 0.19321 0.24234 0.30632 0.0
H1044 H 0.20685 0.24251 0.32604 0.0
O1045 O 0.20136 0.28372 0.35542 0.0
O1046 O 0.20436 0.28862 0.46494 0.0
H1047 H 0.21394 0.2662 0.59361 0.0
H1048 H 0.21021 0.25088 0.59524 0.0
C1049 C 0.20704 0.25704 0.58084 0.0
H1050 H 0.19903 0.25474 0.61123 0.0
H1051 H 0.21559 0.28911 0.59785 0.0
O1052 O 0.19115 0.26211 0.25751 0.0
C1053 C 0.20603 0.29149 0.40204 0.0
Co1054 Co 0.73635 0.92583 0.34859 0.0
Co1055 Co 0.72947 0.92237 0.50379 0.0
C1056 C 0.73896 0.90828 0.43378 0.0
O1057 O 0.73989 0.91332 0.37648 0.0
O1058 O 0.73521 0.91105 0.48683 0.0
C1059 C 0.74621 0.92703 0.21257 0.0
O1060 O 0.75076 0.92085 0.23771 0.0
C1061 C 0.73385 0.92328 0.65154 0.0
C1062 C 0.71915 0.92522 0.69261 0.0
C1063 C 0.72918 0.92485 0.71159 0.0
N1064 N 0.72694 0.92283 0.59937 0.0
N1065 N 0.71807 0.92382 0.6244 0.0
C1066 C 0.74524 0.9233 0.64284 0.0
H1067 H 0.7488 0.92626 0.59059 0.0
H1068 H 0.75182 0.92911 0.6814 0.0
H1069 H 0.74359 0.91417 0.6502 0.0
C1070 C 0.75168 0.9506 0.3952 0.0
N1071 N 0.74379 0.93914 0.40719 0.0
N1072 N 0.74061 0.93781 0.47183 0.0
C1073 C 0.74625 0.94847 0.50281 0.0
C1074 C 0.75354 0.95693 0.45547 0.0
C1075 C 0.75741 0.95526 0.32737 0.0
H1076 H 0.75974 0.94899 0.30361 0.0
H1077 H 0.7655 0.96406 0.33242 0.0
H1078 H 0.75104 0.95603 0.29321 0.0
O1079 O 0.71902 0.9192 0.34913 0.0
O1080 O 0.71389 0.91641 0.45834 0.0
H1081 H 0.74695 0.96018 0.58362 0.0
H1082 H 0.74827 0.94768 0.61071 0.0
C1083 C 0.7438 0.95068 0.57438 0.0
H1084 H 0.73417 0.94565 0.58422 0.0
H1085 H 0.71151 0.92395 0.59462 0.0
O1086 O 0.74063 0.93031 0.25172 0.0
C1087 C 0.71116 0.91577 0.39545 0.0
Co1088 Co 0.07671 0.81059 0.35468 0.0
Co1089 Co 0.08024 0.80784 0.51061 0.0
C1090 C 0.09434 0.8311 0.43896 0.0
O1091 O 0.08927 0.82669 0.38214 0.0
O1092 O 0.09159 0.82485 0.49315 0.0
C1093 C 0.07584 0.81954 0.2195 0.0
O1094 O 0.08228 0.83017 0.24541 0.0
C1095 C 0.08027 0.81148 0.65922 0.0
C1096 C 0.07568 0.79379 0.69784 0.0
C1097 C 0.07776 0.80481 0.71841 0.0
N1098 N 0.07958 0.80465 0.60601 0.0
N1099 N 0.07703 0.79416 0.62961 0.0
C1100 C 0.08196 0.82364 0.65221 0.0
H1101 H 0.07891 0.82474 0.60126 0.0
H1102 H 0.07711 0.82539 0.69284 0.0
H1103 H 0.09152 0.83021 0.65711 0.0
C1104 C 0.05183 0.80058 0.39969 0.0
N1105 N 0.06339 0.80474 0.41272 0.0
N1106 N 0.06479 0.80349 0.47818 0.0
C1107 C 0.05412 0.7985 0.50897 0.0
C1108 C 0.04556 0.79644 0.46032 0.0
C1109 C 0.04692 0.79967 0.32947 0.0
H1110 H 0.05056 0.80868 0.30778 0.0
H1111 H 0.03713 0.79513 0.32957 0.0
H1112 H 0.04983 0.79473 0.29607 0.0
O1113 O 0.08322 0.79985 0.35623 0.0
O1114 O 0.08625 0.79814 0.46598 0.0
H1115 H 0.05448 0.78903 0.59721 0.0
H1116 H 0.04284 0.79269 0.59873 0.0
C1117 C 0.05214 0.79585 0.58376 0.0
H1118 H 0.05789 0.80398 0.61314 0.0
H1119 H 0.07576 0.78709 0.59878 0.0
O1120 O 0.0723 0.81055 0.25797 0.0
C1121 C 0.08675 0.79569 0.40353 0.0
Co1122 Co 0.93259 0.52375 0.9792 0.0
Co1123 Co 0.93953 0.52706 0.82412 0.0
C1124 C 0.9301 0.50354 0.89606 0.0
O1125 O 0.9288 0.5076 0.95257 0.0
O1126 O 0.93413 0.51011 0.84337 0.0
C1127 C 0.92289 0.51512 0.11451 0.0
O1128 O 0.91883 0.50445 0.0894 0.0
C1129 C 0.9358 0.52353 0.67451 0.0
C1130 C 0.95076 0.54027 0.63646 0.0
C1131 C 0.94097 0.52986 0.61499 0.0
N1132 N 0.94216 0.53004 0.7283 0.0
N1133 N 0.95112 0.53999 0.70501 0.0
C1134 C 0.92518 0.51143 0.68048 0.0
H1135 H 0.92527 0.50721 0.72916 0.0
H1136 H 0.91706 0.51213 0.67959 0.0
H1137 H 0.92482 0.50576 0.63727 0.0
C1138 C 0.91803 0.53405 0.93265 0.0
N1139 N 0.9254 0.52985 0.92028 0.0
N1140 N 0.92839 0.53138 0.85531 0.0
C1141 C 0.92306 0.53671 0.82432 0.0
C1142 C 0.91632 0.53858 0.8722 0.0
C1143 C 0.91366 0.53465 0.00233 0.0
H1144 H 0.92133 0.53979 0.03655 0.0
H1145 H 0.90851 0.52558 0.02359 0.0
H1146 H 0.90808 0.53885 0.00151 0.0
O1147 O 0.94995 0.53408 0.97894 0.0
O1148 O 0.95507 0.53701 0.8697 0.0
H1149 H 0.93392 0.54617 0.73896 0.0
H1150 H 0.91918 0.54416 0.73542 0.0
C1151 C 0.92446 0.54001 0.75028 0.0
H1152 H 0.92146 0.53196 0.71898 0.0
H1153 H 0.95741 0.54668 0.73607 0.0
O1154 O 0.92818 0.52403 0.07538 0.0
C1155 C 0.95781 0.53877 0.93275 0.0
Co1156 Co 0.47806 0.40925 0.97806 0.0
Co1157 Co 0.47534 0.41313 0.82253 0.0
C1158 C 0.4986 0.42703 0.89605 0.0
O1159 O 0.49426 0.42178 0.95252 0.0
O1160 O 0.49227 0.42445 0.84231 0.0
C1161 C 0.48665 0.40782 0.1128 0.0
O1162 O 0.49732 0.41408 0.08713 0.0
C1163 C 0.47893 0.41298 0.67288 0.0
C1164 C 0.46221 0.41125 0.63485 0.0
C1165 C 0.4726 0.41183 0.61339 0.0
N1166 N 0.47242 0.41283 0.72668 0.0
N1167 N 0.4625 0.41189 0.70339 0.0
C1168 C 0.49101 0.41442 0.67879 0.0
H1169 H 0.49528 0.41882 0.72723 0.0
H1170 H 0.49029 0.40559 0.67841 0.0
H1171 H 0.49666 0.41965 0.63529 0.0
C1172 C 0.46794 0.38448 0.93104 0.0
N1173 N 0.47218 0.39607 0.91882 0.0
N1174 N 0.4708 0.39759 0.85373 0.0
C1175 C 0.46553 0.38696 0.82246 0.0
C1176 C 0.46355 0.3783 0.87033 0.0
C1177 C 0.46715 0.37944 0.00078 0.0
H1178 H 0.47617 0.38326 0.02256 0.0
H1179 H 0.46285 0.36966 -0.00013 0.0
H1180 H 0.46202 0.38205 0.03461 0.0
O1181 O 0.46747 0.41598 0.97702 0.0
O1182 O 0.46561 0.41904 0.86752 0.0
H1183 H 0.45827 0.37569 0.73317 0.0
H1184 H 0.47055 0.39019 0.71752 0.0
C1185 C 0.46242 0.38512 0.74817 0.0
H1186 H 0.4563 0.38845 0.73618 0.0
H1187 H 0.45582 0.41151 0.73446 0.0
O1188 O 0.47772 0.40452 0.07418 0.0
C1189 C 0.46327 0.41956 0.93015 0.0
Co1190 Co 0.59281 0.06901 0.96884 0.0
Co1191 Co 0.58906 0.06177 0.81402 0.0
C1192 C 0.57493 0.0712 0.8852 0.0
O1193 O 0.58042 0.0728 0.94154 0.0
O1194 O 0.57738 0.06695 0.83325 0.0
C1195 C 0.59359 0.07849 0.1045 0.0
O1196 O 0.58666 0.08219 0.07966 0.0
C1197 C 0.58901 0.0653 0.66424 0.0
C1198 C 0.5915 0.05075 0.62661 0.0
C1199 C 0.59047 0.0603 0.60489 0.0
N1200 N 0.58943 0.05911 0.71821 0.0
N1201 N 0.59081 0.05038 0.69515 0.0
C1202 C 0.58701 0.07561 0.66986 0.0
H1203 H 0.58208 0.07502 0.71692 0.0
H1204 H 0.59568 0.08391 0.67215 0.0
H1205 H 0.58202 0.076 0.62504 0.0
C1206 C 0.61756 0.08371 0.92189 0.0
N1207 N 0.60601 0.07619 0.90981 0.0
N1208 N 0.60453 0.07309 0.84502 0.0
C1209 C 0.61517 0.07851 0.81384 0.0
C1210 C 0.62378 0.08542 0.86143 0.0
C1211 C 0.62253 0.08824 0.99139 0.0
H1212 H 0.6185 0.0933 0.01231 0.0
H1213 H 0.63229 0.09393 0.99041 0.0
H1214 H 0.62013 0.08063 0.02601 0.0
O1215 O 0.58604 0.05164 0.96897 0.0
O1216 O 0.58347 0.04631 0.86001 0.0
H1217 H 0.62648 0.08254 0.72476 0.0
H1218 H 0.61182 0.07983 0.70844 0.0
C1219 C 0.61707 0.07708 0.73985 0.0
H1220 H 0.614 0.06765 0.72902 0.0
H1221 H 0.59149 0.04427 0.72639 0.0
O1222 O 0.5975 0.0735 0.06507 0.0
C1223 C 0.58275 0.0437 0.92316 0.0
H1224 H 0.13783 0.44205 0.24008 0.0
H1225 H 0.10828 0.41061 0.1564 0.0
H1226 H 0.12723 0.45292 0.22176 0.0
H1227 H 0.09778 0.42142 0.13641 0.0
H1228 H 0.07755 0.44089 0.17949 0.0
H1229 H 0.08827 0.4303 0.20027 0.0
H1230 H 0.12042 0.46051 0.12708 0.0
H1231 H 0.10964 0.47117 0.10795 0.0
C1232 C 0.12905 0.4375 0.21794 0.0
C1233 C 0.12384 0.42554 0.19953 0.0
C1234 C 0.12303 0.44371 0.20683 0.0
C1235 C 0.11167 0.43804 0.17744 0.0
C1236 C 0.10646 0.42602 0.15976 0.0
C1237 C 0.11248 0.41985 0.17074 0.0
C1238 C 0.08692 0.44524 0.16807 0.0
C1239 C 0.09282 0.45682 0.14247 0.0
C1240 C 0.09304 0.43917 0.17949 0.0
C1241 C 0.10521 0.44457 0.1654 0.0
C1242 C 0.11109 0.45616 0.13926 0.0
C1243 C 0.10493 0.46222 0.12771 0.0
H1244 H 0.53181 0.63886 0.10189 0.0
H1245 H 0.56184 0.63718 0.17932 0.0
H1246 H 0.54236 0.66031 0.12052 0.0
H1247 H 0.5723 0.65848 0.1996 0.0
H1248 H 0.59214 0.69813 0.15517 0.0
H1249 H 0.5814 0.67682 0.1352 0.0
H1250 H 0.54958 0.67478 0.21514 0.0
H1251 H 0.56039 0.69624 0.23346 0.0
C1252 C 0.54068 0.64312 0.12273 0.0
C1253 C 0.54605 0.63645 0.13927 0.0
C1254 C 0.54667 0.65535 0.13404 0.0
C1255 C 0.55816 0.6611 0.16171 0.0
C1256 C 0.56352 0.65436 0.17759 0.0
C1257 C 0.55752 0.64217 0.16643 0.0
C1258 C 0.58285 0.69309 0.16834 0.0
C1259 C 0.57705 0.69876 0.19563 0.0
C1260 C 0.57671 0.6809 0.15736 0.0
C1261 C 0.56463 0.67409 0.17355 0.0
C1262 C 0.55885 0.67979 0.2014 0.0
C1263 C 0.56503 0.69202 0.21252 0.0
H1264 H 0.36326 0.89283 0.096 0.0
H1265 H 0.36527 0.92464 0.17435 0.0
H1266 H 0.34183 0.88202 0.11589 0.0
H1267 H 0.34399 0.9139 0.1956 0.0
H1268 H 0.30424 0.89418 0.15212 0.0
H1269 H 0.32552 0.90465 0.13103 0.0
H1270 H 0.32757 0.87496 0.21246 0.0
H1271 H 0.30614 0.86441 0.23222 0.0
C1272 C 0.35907 0.89748 0.1173 0.0
C1273 C 0.36583 0.90952 0.13375 0.0
C1274 C 0.34686 0.8913 0.12929 0.0
C1275 C 0.34121 0.8971 0.15748 0.0
C1276 C 0.34803 0.90919 0.17323 0.0
C1277 C 0.36021 0.91533 0.16149 0.0
C1278 C 0.30928 0.88992 0.1654 0.0
C1279 C 0.30362 0.87852 0.19356 0.0
C1280 C 0.32145 0.89592 0.15375 0.0
C1281 C 0.32825 0.89064 0.17001 0.0
C1282 C 0.32256 0.87922 0.19866 0.0
C1283 C 0.31035 0.87323 0.21056 0.0
H1284 H 0.47049 0.10869 0.90775 0.0
H1285 H 0.44148 0.07703 0.82215 0.0
H1286 H 0.45992 0.11947 0.88383 0.0
H1287 H 0.43092 0.08769 0.79813 0.0
H1288 H 0.41081 0.10769 0.841 0.0
H1289 H 0.42148 0.09714 0.86444 0.0
H1290 H 0.4532 0.12615 0.77831 0.0
H1291 H 0.44241 0.13672 0.75497 0.0
C1292 C 0.46182 0.10406 0.88431 0.0
C1293 C 0.45677 0.0921 0.86652 0.0
C1294 C 0.45583 0.11021 0.87004 0.0
C1295 C 0.44463 0.10443 0.83876 0.0
C1296 C 0.43951 0.09237 0.82254 0.0
C1297 C 0.44554 0.08628 0.83609 0.0
C1298 C 0.42005 0.11175 0.82678 0.0
C1299 C 0.42584 0.12299 0.79643 0.0
C1300 C 0.42614 0.10572 0.84001 0.0
C1301 C 0.43819 0.11085 0.82355 0.0
C1302 C 0.44395 0.12205 0.79225 0.0
C1303 C 0.43779 0.12804 0.77832 0.0
H1304 H 0.89526 0.30366 0.8482 0.0
H1305 H 0.86504 0.30551 0.77608 0.0
H1306 H 0.90583 0.32495 0.86928 0.0
H1307 H 0.87568 0.32694 0.79542 0.0
H1308 H 0.89409 0.36282 0.90763 0.0
H1309 H 0.88322 0.34136 0.88959 0.0
H1310 H 0.91479 0.34335 0.80577 0.0
H1311 H 0.9256 0.36466 0.82561 0.0
C1312 C 0.89092 0.30868 0.83677 0.0
C1313 C 0.87936 0.30302 0.81088 0.0
C1314 C 0.89698 0.32087 0.84833 0.0
C1315 C 0.8916 0.32765 0.83409 0.0
C1316 C 0.88002 0.32195 0.80774 0.0
C1317 C 0.87397 0.30973 0.79607 0.0
C1318 C 0.89866 0.35859 0.88591 0.0
C1319 C 0.91063 0.36532 0.86789 0.0
C1320 C 0.89245 0.34636 0.87495 0.0
C1321 C 0.89813 0.34064 0.84607 0.0
C1322 C 0.91017 0.34744 0.82875 0.0
C1323 C 0.91634 0.35964 0.83962 0.0
H1324 H 0.63751 0.56179 0.8209 0.0
H1325 H 0.63945 0.531 0.88003 0.0
H1326 H 0.65875 0.57247 0.79756 0.0
H1327 H 0.66081 0.54172 0.85783 0.0
H1328 H 0.69638 0.56107 0.74182 0.0
H1329 H 0.6749 0.55016 0.76017 0.0
H1330 H 0.6773 0.58068 0.86146 0.0
H1331 H 0.69861 0.59153 0.8419 0.0
C1332 C 0.64255 0.55735 0.82905 0.0
C1333 C 0.63694 0.54561 0.85203 0.0
C1334 C 0.65469 0.56346 0.81604 0.0
C1335 C 0.66146 0.55793 0.8257 0.0
C1336 C 0.65581 0.54617 0.84907 0.0
C1337 C 0.64365 0.54007 0.8624 0.0
C1338 C 0.69223 0.56542 0.76737 0.0
C1339 C 0.69908 0.57707 0.79087 0.0
C1340 C 0.67999 0.55917 0.77847 0.0
C1341 C 0.67441 0.56454 0.8126 0.0
C1342 C 0.6813 0.57631 0.8346 0.0
C1343 C 0.6935 0.5825 0.82383 0.0
H1344 H 0.89301 0.53081 0.89631 0.0
H1345 H 0.92524 0.56099 0.82535 0.0
H1346 H 0.88232 0.54153 0.87613 0.0
H1347 H 0.91461 0.57162 0.80342 0.0
H1348 H 0.89471 0.59149 0.84467 0.0
H1349 H 0.90512 0.58063 0.86572 0.0
H1350 H 0.87562 0.5491 0.78107 0.0
H1351 H 0.8651 0.56001 0.76178 0.0
C1352 C 0.89777 0.53975 0.87647 0.0
C1353 C 0.90989 0.5451 0.86216 0.0
C1354 C 0.89166 0.54584 0.86429 0.0
C1355 C 0.89761 0.55742 0.83793 0.0
C1356 C 0.90979 0.56277 0.82435 0.0
C1357 C 0.91586 0.55668 0.83644 0.0
C1358 C 0.89048 0.58223 0.83069 0.0
C1359 C 0.87912 0.57654 0.80187 0.0
C1360 C 0.89645 0.57603 0.84228 0.0
C1361 C 0.8912 0.56399 0.82514 0.0
C1362 C 0.87985 0.55833 0.79562 0.0
C1363 C 0.87387 0.56457 0.78393 0.0
H1364 H 0.44217 0.30548 0.76393 0.0
H1365 H 0.41067 0.3038 0.8451 0.0
H1366 H 0.4531 0.32695 0.78189 0.0
H1367 H 0.42154 0.32511 0.86475 0.0
H1368 H 0.44126 0.3648 0.82174 0.0
H1369 H 0.43063 0.34351 0.80069 0.0
H1370 H 0.46059 0.34136 0.87647 0.0
H1371 H 0.47129 0.36279 0.89584 0.0
C1372 C 0.43761 0.30975 0.78545 0.0
C1373 C 0.42563 0.30307 0.80328 0.0
C1374 C 0.44386 0.32198 0.79634 0.0
C1375 C 0.4382 0.32774 0.82492 0.0
C1376 C 0.42615 0.32099 0.84202 0.0
C1377 C 0.41994 0.30879 0.83126 0.0
C1378 C 0.44554 0.35974 0.83361 0.0
C1379 C 0.45707 0.36536 0.86005 0.0
C1380 C 0.43945 0.34756 0.82205 0.0
C1381 C 0.44476 0.34073 0.83685 0.0
C1382 C 0.45631 0.34639 0.86373 0.0
C1383 C 0.46239 0.3586 0.87541 0.0
H1384 H 0.63904 0.10882 0.88459 0.0
H1385 H 0.63754 0.07675 0.81555 0.0
H1386 H 0.66049 0.11972 0.86576 0.0
H1387 H 0.65886 0.08758 0.79525 0.0
H1388 H 0.69852 0.10793 0.84133 0.0
H1389 H 0.67719 0.09735 0.86062 0.0
H1390 H 0.67496 0.12642 0.77098 0.0
H1391 H 0.69644 0.1371 0.7532 0.0
C1392 C 0.64334 0.10414 0.8654 0.0
C1393 C 0.63672 0.092 0.85132 0.0
C1394 C 0.65557 0.11037 0.85406 0.0
C1395 C 0.66137 0.10452 0.82886 0.0
C1396 C 0.65469 0.09233 0.8153 0.0
C1397 C 0.64249 0.08614 0.82644 0.0
C1398 C 0.69344 0.11204 0.82594 0.0
C1399 C 0.69905 0.12331 0.79604 0.0
C1400 C 0.68123 0.10596 0.83651 0.0
C1401 C 0.67437 0.11104 0.81734 0.0
C1402 C 0.68002 0.12232 0.78699 0.0
C1403 C 0.69226 0.12839 0.77624 0.0
H1404 H 0.53108 0.89312 0.11826 0.0
H1405 H 0.56189 0.92542 0.18235 0.0
H1406 H 0.54156 0.8822 0.13971 0.0
H1407 H 0.57235 0.91461 0.20441 0.0
H1408 H 0.59106 0.89353 0.15604 0.0
H1409 H 0.58037 0.90417 0.13691 0.0
H1410 H 0.54981 0.87631 0.23937 0.0
H1411 H 0.56059 0.86559 0.25782 0.0
C1412 C 0.54011 0.89784 0.13673 0.0
C1413 C 0.54572 0.91006 0.14871 0.0
C1414 C 0.54606 0.89162 0.14958 0.0
C1415 C 0.55777 0.89754 0.17392 0.0
C1416 C 0.56337 0.90981 0.1852 0.0
C1417 C 0.5574 0.91599 0.17286 0.0
C1418 C 0.58206 0.88971 0.17447 0.0
C1419 C 0.57658 0.87874 0.20794 0.0
C1420 C 0.57596 0.89582 0.1639 0.0
C1421 C 0.56423 0.89106 0.18642 0.0
C1422 C 0.5588 0.88012 0.22076 0.0
C1423 C 0.56496 0.87405 0.23185 0.0
H1424 H 0.10895 0.63896 0.07688 0.0
H1425 H 0.07793 0.63785 0.16128 0.0
H1426 H 0.1204 0.66028 0.0985 0.0
H1427 H 0.08911 0.65913 0.18087 0.0
H1428 H 0.11416 0.69432 0.2753 0.0
H1429 H 0.10386 0.6731 0.25404 0.0
H1430 H 0.1234 0.67912 0.06583 0.0
H1431 H 0.13419 0.70031 0.08976 0.0
C1432 C 0.10458 0.64336 0.09915 0.0
C1433 C 0.09264 0.63684 0.11804 0.0
C1434 C 0.1111 0.65555 0.11147 0.0
C1435 C 0.10574 0.66145 0.1423 0.0
C1436 C 0.09364 0.65488 0.15883 0.0
C1437 C 0.08719 0.64272 0.14709 0.0
C1438 C 0.11641 0.69107 0.23015 0.0
C1439 C 0.12495 0.69894 0.18414 0.0
C1440 C 0.11037 0.67891 0.21728 0.0
C1441 C 0.11266 0.67436 0.15766 0.0
C1442 C 0.12144 0.68226 0.11245 0.0
C1443 C 0.12755 0.69442 0.12576 0.0
H1444 H 0.36361 0.47068 0.09839 0.0
H1445 H 0.36558 0.44108 0.1806 0.0
H1446 H 0.34217 0.4601 0.11776 0.0
H1447 H 0.34429 0.43059 0.20148 0.0
H1448 H 0.30457 0.41042 0.15742 0.0
H1449 H 0.32588 0.42117 0.1371 0.0
H1450 H 0.32782 0.45316 0.21333 0.0
H1451 H 0.30636 0.44233 0.23214 0.0
C1452 C 0.35941 0.4619 0.12046 0.0
C1453 C 0.36616 0.45666 0.13814 0.0
C1454 C 0.3472 0.45589 0.13216 0.0
C1455 C 0.34153 0.44451 0.16133 0.0
C1456 C 0.34835 0.43928 0.17834 0.0
C1457 C 0.36053 0.44529 0.16682 0.0
C1458 C 0.30959 0.41975 0.16974 0.0
C1459 C 0.3039 0.42559 0.19613 0.0
C1460 C 0.32178 0.4259 0.15854 0.0
C1461 C 0.32855 0.43803 0.17354 0.0
C1462 C 0.32283 0.44385 0.20051 0.0
C1463 C 0.31061 0.43766 0.2119 0.0
H1464 H 0.74428 0.77444 0.51203 0.0
H1465 H 0.77607 0.80438 0.43452 0.0
H1466 H 0.75512 0.76403 0.5342 0.0
H1467 H 0.78698 0.79388 0.45511 0.0
H1468 H 0.80476 0.77607 0.57194 0.0
H1469 H 0.7941 0.78682 0.55143 0.0
H1470 H 0.76448 0.75486 0.47155 0.0
H1471 H 0.77504 0.74418 0.49363 0.0
C1472 C 0.75361 0.77874 0.49948 0.0
C1473 C 0.75938 0.79018 0.47179 0.0
C1474 C 0.7598 0.77278 0.51175 0.0
C1475 C 0.77192 0.77813 0.49649 0.0
C1476 C 0.77768 0.78957 0.46819 0.0
C1477 C 0.77145 0.79553 0.45575 0.0
C1478 C 0.79593 0.77139 0.55056 0.0
C1479 C 0.79069 0.75934 0.53427 0.0
C1480 C 0.78988 0.77753 0.53817 0.0
C1481 C 0.77845 0.7717 0.50967 0.0
C1482 C 0.77321 0.7596 0.49417 0.0
C1483 C 0.77926 0.75349 0.50639 0.0
H1484 H 0.19806 0.97213 0.44311 0.0
H1485 H 0.22806 0.97026 0.51931 0.0
H1486 H 0.20855 0.99352 0.46402 0.0
H1487 H 0.23846 0.99149 0.54194 0.0
H1488 H 0.25831 0.03125 0.50034 0.0
H1489 H 0.2476 0.00998 0.47929 0.0
H1490 H 0.21572 0.00778 0.55942 0.0
H1491 H 0.22649 0.02922 0.57877 0.0
C1492 C 0.2069 0.97634 0.46428 0.0
C1493 C 0.21228 0.96963 0.47977 0.0
C1494 C 0.21287 0.98853 0.47687 0.0
C1495 C 0.22434 0.99421 0.50482 0.0
C1496 C 0.22969 0.98743 0.51976 0.0
C1497 C 0.22373 0.97528 0.50728 0.0
C1498 C 0.24901 0.02619 0.51336 0.0
C1499 C 0.24318 0.03181 0.54095 0.0
C1500 C 0.24289 0.01401 0.50177 0.0
C1501 C 0.2308 0.00718 0.51765 0.0
C1502 C 0.22499 0.01282 0.5459 0.0
C1503 C 0.23115 0.02504 0.55762 0.0
H1504 H 0.97258 0.19772 0.5579 0.0
H1505 H 0.97068 0.2276 0.47983 0.0
H1506 H 0.99401 0.20831 0.53857 0.0
H1507 H 0.99197 0.23811 0.45884 0.0
H1508 H 0.03165 0.25812 0.50474 0.0
H1509 H 0.01031 0.24732 0.52362 0.0
H1510 H 0.00849 0.21557 0.44418 0.0
H1511 H 0.02998 0.22644 0.42692 0.0
C1512 C 0.97679 0.20656 0.53659 0.0
C1513 C 0.97006 0.21188 0.52018 0.0
C1514 C 0.989 0.21258 0.52493 0.0
C1515 C 0.99469 0.22405 0.49702 0.0
C1516 C 0.98789 0.22934 0.48101 0.0
C1517 C 0.97571 0.22332 0.49254 0.0
C1518 C 0.02665 0.24883 0.49143 0.0
C1519 C 0.03239 0.24307 0.46461 0.0
C1520 C 0.01444 0.24266 0.50176 0.0
C1521 C 0.00769 0.23058 0.48542 0.0
C1522 C 0.01346 0.22484 0.45801 0.0
C1523 C 0.0257 0.23105 0.44751 0.0
H1524 H 0.2587 0.22774 0.4854 0.0
H1525 H 0.22669 0.19776 0.56033 0.0
H1526 H 0.24801 0.23833 0.46397 0.0
H1527 H 0.21594 0.20842 0.54042 0.0
H1528 H 0.19846 0.22672 0.42645 0.0
H1529 H 0.20903 0.21583 0.44496 0.0
H1530 H 0.23866 0.24743 0.52811 0.0
H1531 H 0.22817 0.25825 0.50808 0.0
C1532 C 0.24936 0.22346 0.49736 0.0
C1533 C 0.24347 0.21196 0.52416 0.0
C1534 C 0.24325 0.22953 0.48557 0.0
C1535 C 0.23111 0.22422 0.50042 0.0
C1536 C 0.22524 0.2127 0.52765 0.0
C1537 C 0.23139 0.20664 0.53962 0.0
C1538 C 0.20727 0.23129 0.44815 0.0
C1539 C 0.21253 0.24328 0.46597 0.0
C1540 C 0.21327 0.22507 0.45936 0.0
C1541 C 0.22468 0.23076 0.48818 0.0
C1542 C 0.22994 0.24281 0.50521 0.0
C1543 C 0.22393 0.24899 0.4942 0.0
H1544 H 0.75416 0.97455 0.37772 0.0
H1545 H 0.76926 0.96838 0.55818 0.0
H1546 H 0.76525 0.99578 0.39956 0.0
H1547 H 0.77991 0.98956 0.58246 0.0
H1548 H 0.80558 0.02968 0.571 0.0
H1549 H 0.79566 0.00844 0.54668 0.0
H1550 H 0.76481 0.00959 0.47718 0.0
H1551 H 0.77492 0.0308 0.49982 0.0
C1552 C 0.75993 0.97777 0.42181 0.0
C1553 C 0.76085 0.96985 0.46633 0.0
C1554 C 0.76616 0.98992 0.43498 0.0
C1555 C 0.77338 0.99441 0.49329 0.0
C1556 C 0.77451 0.98646 0.53686 0.0
C1557 C 0.76834 0.97432 0.52335 0.0
C1558 C 0.79665 0.0253 0.55091 0.0
C1559 C 0.79099 0.03178 0.53688 0.0
C1560 C 0.79096 0.01316 0.53706 0.0
C1561 C 0.77946 0.00729 0.5093 0.0
C1562 C 0.77375 0.01383 0.49696 0.0
C1563 C 0.77948 0.02595 0.51043 0.0
H1564 H 0.97281 0.77562 0.56484 0.0
H1565 H 0.97107 0.74372 0.49049 0.0
H1566 H 0.99426 0.78648 0.54571 0.0
H1567 H 0.99237 0.7545 0.46994 0.0
H1568 H 0.03207 0.77449 0.5133 0.0
H1569 H 0.0108 0.764 0.53453 0.0
H1570 H 0.00857 0.79338 0.44963 0.0
H1571 H 0.03 0.80396 0.42985 0.0
C1572 C 0.97707 0.77096 0.54462 0.0
C1573 C 0.97038 0.75888 0.52904 0.0
C1574 C 0.98929 0.77717 0.53306 0.0
C1575 C 0.99501 0.77136 0.50615 0.0
C1576 C 0.98826 0.75922 0.49133 0.0
C1577 C 0.97608 0.75305 0.50267 0.0
C1578 C 0.027 0.77868 0.49935 0.0
C1579 C 0.0326 0.79001 0.47019 0.0
C1580 C 0.01483 0.77266 0.51107 0.0
C1581 C 0.00799 0.77785 0.49381 0.0
C1582 C 0.01362 0.7892 0.46421 0.0
C1583 C 0.02583 0.79521 0.45229 0.0
H1584 H 0.09648 0.30083 0.27717 0.0
H1585 H 0.09002 0.31007 0.47811 0.0
H1586 H 0.10627 0.3215 0.24373 0.0
H1587 H 0.09937 0.33075 0.44374 0.0
H1588 H 0.12914 0.36763 0.38822 0.0
H1589 H 0.11816 0.34694 0.42063 0.0
H1590 H 0.10392 0.33774 0.21608 0.0
H1591 H 0.11538 0.3585 0.18285 0.0
C1592 C 0.09701 0.30726 0.31399 0.0
C1593 C 0.09252 0.3038 0.38049 0.0
C1594 C 0.10256 0.31914 0.2946 0.0
C1595 C 0.10366 0.32787 0.34093 0.0
C1596 C 0.09891 0.32434 0.40702 0.0
C1597 C 0.09348 0.31246 0.4267 0.0
C1598 C 0.12363 0.36121 0.35012 0.0
C1599 C 0.12318 0.36473 0.28282 0.0
C1600 C 0.11724 0.34932 0.3689 0.0
C1601 C 0.1101 0.3406 0.32114 0.0
C1602 C 0.10948 0.34416 0.25403 0.0
C1603 C 0.116 0.35607 0.23498 0.0
H1604 H 0.63471 0.76233 0.38577 0.0
H1605 H 0.64414 0.75664 0.18349 0.0
H1606 H 0.65535 0.77204 0.41963 0.0
H1607 H 0.66481 0.76593 0.21823 0.0
H1608 H 0.70167 0.79557 0.27765 0.0
H1609 H 0.68103 0.78463 0.24375 0.0
H1610 H 0.6715 0.7695 0.44621 0.0
H1611 H 0.69216 0.7809 0.48094 0.0
C1612 C 0.64118 0.76301 0.34871 0.0
C1613 C 0.63777 0.75875 0.28177 0.0
C1614 C 0.65305 0.76852 0.36833 0.0
C1615 C 0.66182 0.7698 0.32179 0.0
C1616 C 0.65836 0.76531 0.25517 0.0
C1617 C 0.64649 0.75992 0.23527 0.0
C1618 C 0.69518 0.78987 0.31493 0.0
C1619 C 0.69857 0.78916 0.38216 0.0
C1620 C 0.68332 0.78351 0.2953 0.0
C1621 C 0.67453 0.77615 0.34213 0.0
C1622 C 0.67797 0.77524 0.40903 0.0
C1623 C 0.68984 0.78173 0.42892 0.0
H1624 H 0.21674 0.91717 0.28117 0.0
H1625 H 0.2132 0.90247 0.48328 0.0
H1626 H 0.22807 0.90794 0.2452 0.0
H1627 H 0.22407 0.8928 0.44667 0.0
H1628 H 0.25184 0.88415 0.38092 0.0
H1629 H 0.2426 0.89552 0.41548 0.0
H1630 H 0.22575 0.88936 0.21775 0.0
H1631 H 0.23545 0.87843 0.18227 0.0
C1632 C 0.21836 0.91193 0.31792 0.0
C1633 C 0.21405 0.91054 0.3851 0.0
C1634 C 0.22479 0.90656 0.29713 0.0
C1635 C 0.22697 0.89954 0.34277 0.0
C1636 C 0.22277 0.89829 0.41027 0.0
C1637 C 0.21646 0.90379 0.43129 0.0
C1638 C 0.24622 0.8853 0.34463 0.0
C1639 C 0.24434 0.88034 0.2789 0.0
C1640 C 0.24085 0.89176 0.36465 0.0
C1641 C 0.23331 0.8933 0.3198 0.0
C1642 C 0.23161 0.88852 0.2535 0.0
C1643 C 0.23713 0.88219 0.23315 0.0
H1644 H 0.31012 0.08896 0.53138 0.0
H1645 H 0.30096 0.0955 0.73235 0.0
H1646 H 0.33081 0.0983 0.56545 0.0
H1647 H 0.32166 0.1053 0.76552 0.0
H1648 H 0.35902 0.11487 0.82419 0.0
H1649 H 0.33817 0.10325 0.7927 0.0
H1650 H 0.34681 0.11722 0.58735 0.0
H1651 H 0.36753 0.12833 0.61794 0.0
C1652 C 0.31253 0.09244 0.58275 0.0
C1653 C 0.3039 0.09153 0.62899 0.0
C1654 C 0.32441 0.09786 0.60227 0.0
C1655 C 0.32798 0.10267 0.6682 0.0
C1656 C 0.31928 0.10157 0.71472 0.0
C1657 C 0.30739 0.09601 0.69549 0.0
C1658 C 0.35644 0.11539 0.77228 0.0
C1659 C 0.36495 0.12251 0.72364 0.0
C1660 C 0.34447 0.10878 0.75423 0.0
C1661 C 0.34074 0.10925 0.68732 0.0
C1662 C 0.34931 0.11639 0.6389 0.0
C1663 C 0.36124 0.12286 0.65667 0.0
H1664 H 0.90223 0.21195 0.51527 0.0
H1665 H 0.91792 0.21672 0.71539 0.0
H1666 H 0.8925 0.2228 0.55145 0.0
H1667 H 0.90867 0.22804 0.75077 0.0
H1668 H 0.87933 0.23528 0.8169 0.0
H1669 H 0.89018 0.22556 0.78059 0.0
H1670 H 0.89492 0.2413 0.58032 0.0
H1671 H 0.8836 0.25055 0.61588 0.0
C1672 C 0.90375 0.21548 0.56669 0.0
C1673 C 0.91079 0.2134 0.61254 0.0
C1674 C 0.89822 0.22177 0.58744 0.0
C1675 C 0.89973 0.2263 0.65428 0.0
C1676 C 0.90707 0.22449 0.69943 0.0
C1677 C 0.91246 0.21806 0.67897 0.0
C1678 C 0.88275 0.23671 0.76524 0.0
C1679 C 0.88054 0.24363 0.71921 0.0
C1680 C 0.88904 0.23118 0.74441 0.0
C1681 C 0.89343 0.23258 0.67728 0.0
C1682 C 0.89148 0.23979 0.63191 0.0
C1683 C 0.88505 0.24518 0.65246 0.0
H1684 H 0.78195 0.69225 0.52385 0.0
H1685 H 0.79595 0.70179 0.72852 0.0
H1686 H 0.77066 0.67156 0.55816 0.0
H1687 H 0.78512 0.68112 0.76204 0.0
H1688 H 0.75725 0.64382 0.8193 0.0
H1689 H 0.76647 0.66457 0.78589 0.0
H1690 H 0.77361 0.65571 0.58542 0.0
H1691 H 0.76402 0.63504 0.61779 0.0
C1692 C 0.78265 0.68993 0.57608 0.0
C1693 C 0.78988 0.69867 0.62331 0.0
C1694 C 0.77623 0.67805 0.59576 0.0
C1695 C 0.777 0.67461 0.66291 0.0
C1696 C 0.78412 0.68341 0.71026 0.0
C1697 C 0.79042 0.69529 0.69083 0.0
C1698 C 0.76075 0.64632 0.76804 0.0
C1699 C 0.75989 0.63776 0.72128 0.0
C1700 C 0.76609 0.65823 0.7489 0.0
C1701 C 0.77081 0.66187 0.68281 0.0
C1702 C 0.76989 0.65327 0.63622 0.0
C1703 C 0.76445 0.64138 0.65505 0.0
H1704 H 0.87374 0.63436 0.61161 0.0
H1705 H 0.88779 0.64369 0.81628 0.0
H1706 H 0.88469 0.65501 0.57848 0.0
H1707 H 0.89922 0.66441 0.7823 0.0
H1708 H 0.90661 0.70127 0.72056 0.0
H1709 H 0.89687 0.68063 0.75463 0.0
H1710 H 0.90342 0.67118 0.5543 0.0
H1711 H 0.91272 0.69183 0.51932 0.0
C1712 C 0.8793 0.64081 0.6494 0.0
C1713 C 0.87985 0.63736 0.71673 0.0
C1714 C 0.88567 0.65269 0.63019 0.0
C1715 C 0.89289 0.66145 0.67754 0.0
C1716 C 0.89361 0.65796 0.74467 0.0
C1717 C 0.8871 0.64606 0.76415 0.0
C1718 C 0.90602 0.6948 0.6838 0.0
C1719 C 0.91039 0.6982 0.61704 0.0
C1720 C 0.90049 0.68294 0.70355 0.0
C1721 C 0.89931 0.67417 0.65733 0.0
C1722 C 0.90394 0.67763 0.59096 0.0
C1723 C 0.90934 0.68949 0.57093 0.0
H1724 H 0.30057 0.21716 0.71613 0.0
H1725 H 0.31106 0.21129 0.51738 0.0
H1726 H 0.3212 0.22842 0.75045 0.0
H1727 H 0.3317 0.22208 0.5526 0.0
H1728 H 0.36857 0.24985 0.61445 0.0
H1729 H 0.34797 0.24064 0.5793 0.0
H1730 H 0.33705 0.22571 0.78138 0.0
H1731 H 0.35765 0.23539 0.81721 0.0
C1732 C 0.30729 0.21825 0.67977 0.0
C1733 C 0.30416 0.2133 0.61406 0.0
C1734 C 0.31915 0.22464 0.69965 0.0
C1735 C 0.32818 0.22611 0.65465 0.0
C1736 C 0.32503 0.22131 0.58844 0.0
C1737 C 0.31317 0.21505 0.56824 0.0
C1738 C 0.36176 0.24465 0.6515 0.0
C1739 C 0.36475 0.24333 0.71863 0.0
C1740 C 0.34993 0.23929 0.63119 0.0
C1741 C 0.34078 0.23233 0.67723 0.0
C1742 C 0.3438 0.23114 0.74468 0.0
C1743 C 0.35564 0.23664 0.76524 0.0
H1744 H 0.7518 0.11822 0.61303 0.0
H1745 H 0.76709 0.1237 0.81477 0.0
H1746 H 0.76117 0.10683 0.58142 0.0
H1747 H 0.7769 0.11273 0.78234 0.0
H1748 H 0.78577 0.08464 0.72414 0.0
H1749 H 0.77441 0.09403 0.7562 0.0
H1750 H 0.77986 0.10942 0.55452 0.0
H1751 H 0.79077 0.09959 0.5217 0.0
C1752 C 0.7572 0.11702 0.65062 0.0
C1753 C 0.75873 0.1219 0.71638 0.0
C1754 C 0.76265 0.11055 0.63232 0.0
C1755 C 0.76989 0.10891 0.67902 0.0
C1756 C 0.77126 0.11364 0.74523 0.0
C1757 C 0.76568 0.12 0.76381 0.0
C1758 C 0.78447 0.08997 0.68648 0.0
C1759 C 0.7892 0.09138 0.62037 0.0
C1760 C 0.77802 0.09543 0.70504 0.0
C1761 C 0.77625 0.10257 0.65822 0.0
C1762 C 0.78086 0.10385 0.59173 0.0
C1763 C 0.78718 0.09826 0.57292 0.0
H1764 H 0.70237 0.91697 0.27077 0.0
H1765 H 0.69151 0.90268 0.47395 0.0
H1766 H 0.68174 0.90776 0.23591 0.0
H1767 H 0.67092 0.89304 0.4385 0.0
H1768 H 0.63458 0.88476 0.37612 0.0
H1769 H 0.6553 0.89613 0.40812 0.0
H1770 H 0.66519 0.88914 0.21017 0.0
H1771 H 0.64439 0.87818 0.17718 0.0
C1772 C 0.69557 0.91183 0.30799 0.0
C1773 C 0.69859 0.91056 0.37519 0.0
C1774 C 0.68373 0.90647 0.28784 0.0
C1775 C 0.6746 0.8996 0.33417 0.0
C1776 C 0.67766 0.89843 0.40159 0.0
C1777 C 0.68949 0.90391 0.42196 0.0
C1778 C 0.64119 0.88573 0.33919 0.0
C1779 C 0.63784 0.88051 0.27422 0.0
C1780 C 0.65309 0.89218 0.35775 0.0
C1781 C 0.66197 0.89346 0.31221 0.0
C1782 C 0.65863 0.88848 0.24644 0.0
C1783 C 0.6467 0.88214 0.2275 0.0
H1784 H 0.12289 0.76606 0.17965 0.0
H1785 H 0.12009 0.75193 0.3827 0.0
H1786 H 0.112 0.77568 0.21661 0.0
H1787 H 0.10873 0.7611 0.41909 0.0
H1788 H 0.10109 0.79052 0.48066 0.0
H1789 H 0.11088 0.77966 0.44537 0.0
H1790 H 0.09346 0.77278 0.24906 0.0
H1791 H 0.08415 0.78408 0.28337 0.0
C1792 C 0.1198 0.76486 0.23196 0.0
C1793 C 0.12241 0.75827 0.27825 0.0
C1794 C 0.11347 0.77033 0.25318 0.0
C1795 C 0.10946 0.76921 0.32102 0.0
C1796 C 0.11186 0.76237 0.36686 0.0
C1797 C 0.11831 0.75703 0.34584 0.0
C1798 C 0.09931 0.78662 0.43015 0.0
C1799 C 0.09192 0.78825 0.38466 0.0
C1800 C 0.10487 0.78033 0.40992 0.0
C1801 C 0.10305 0.77538 0.34403 0.0
C1802 C 0.09532 0.77668 0.29954 0.0
C1803 C 0.0899 0.7831 0.31941 0.0
H1804 H 0.23998 0.36801 0.38652 0.0
H1805 H 0.24623 0.35861 0.18551 0.0
H1806 H 0.23019 0.34736 0.42041 0.0
H1807 H 0.2369 0.33796 0.22031 0.0
H1808 H 0.20717 0.30113 0.27679 0.0
H1809 H 0.21813 0.3218 0.24399 0.0
H1810 H 0.23252 0.33111 0.44818 0.0
H1811 H 0.22107 0.31037 0.48181 0.0
C1812 C 0.23941 0.36154 0.34978 0.0
C1813 C 0.24383 0.36496 0.28313 0.0
C1814 C 0.23385 0.34968 0.36942 0.0
C1815 C 0.2327 0.34092 0.3232 0.0
C1816 C 0.2374 0.3444 0.25696 0.0
C1817 C 0.24282 0.35626 0.23703 0.0
C1818 C 0.2127 0.30757 0.31473 0.0
C1819 C 0.2132 0.30409 0.38205 0.0
C1820 C 0.21908 0.31946 0.29572 0.0
C1821 C 0.22627 0.32819 0.34326 0.0
C1822 C 0.22693 0.32467 0.4104 0.0
C1823 C 0.22042 0.31277 0.42968 0.0
H1824 H 0.9776 0.42299 0.85593 0.0
H1825 H 0.96834 0.42922 0.05736 0.0
H1826 H 0.99827 0.43224 0.89042 0.0
H1827 H 0.98899 0.43892 0.09093 0.0
H1828 H 0.02585 0.4479 0.15239 0.0
H1829 H 0.00514 0.43647 0.1184 0.0
H1830 H 0.01455 0.45091 0.91437 0.0
H1831 H 0.03521 0.46185 0.94755 0.0
C1832 C 0.97999 0.42638 0.90747 0.0
C1833 C 0.97132 0.42538 0.95381 0.0
C1834 C 0.99186 0.43175 0.92723 0.0
C1835 C 0.99538 0.4364 0.99352 0.0
C1836 C 0.98665 0.43528 0.03991 0.0
C1837 C 0.97478 0.42978 0.02045 0.0
C1838 C 0.02348 0.44856 0.10019 0.0
C1839 C 0.03218 0.4558 0.05276 0.0
C1840 C 0.01159 0.44206 0.08071 0.0
C1841 C 0.0081 0.44276 0.01356 0.0
C1842 C 0.01687 0.44994 0.96612 0.0
C1843 C 0.02875 0.4563 0.98534 0.0
H1844 H 0.5791 0.55463 0.85075 0.0
H1845 H 0.5743 0.53994 0.05376 0.0
H1846 H 0.56977 0.56591 0.88647 0.0
H1847 H 0.56452 0.55075 0.08868 0.0
H1848 H 0.55535 0.57854 0.15008 0.0
H1849 H 0.56678 0.56934 0.11481 0.0
H1850 H 0.55108 0.56322 0.91372 0.0
H1851 H 0.54012 0.57286 0.94808 0.0
C1852 C 0.57601 0.55378 0.90293 0.0
C1853 C 0.57743 0.54637 0.94931 0.0
C1854 C 0.57059 0.56019 0.9234 0.0
C1855 C 0.5663 0.55923 0.9905 0.0
C1856 C 0.56787 0.5519 0.03698 0.0
C1857 C 0.57342 0.54562 0.01677 0.0
C1858 C 0.5544 0.57528 0.09826 0.0
C1859 C 0.54682 0.57643 0.05197 0.0
C1860 C 0.56091 0.56994 0.07806 0.0
C1861 C 0.55987 0.56548 0.01133 0.0
C1862 C 0.55232 0.56672 0.96507 0.0
C1863 C 0.54594 0.57219 0.98498 0.0
H1864 H 0.43342 0.97749 0.14379 0.0
H1865 H 0.41855 0.96663 0.94181 0.0
H1866 H 0.44308 0.9981 0.10804 0.0
H1867 H 0.42778 0.98724 0.90675 0.0
H1868 H 0.45727 0.02431 0.84513 0.0
H1869 H 0.4464 0.00359 0.87945 0.0
H1870 H 0.44012 0.01385 0.07812 0.0
H1871 H 0.45139 0.03451 0.04473 0.0
C1872 C 0.43207 0.97951 0.09204 0.0
C1873 C 0.42526 0.97041 0.04563 0.0
C1874 C 0.43756 0.99135 0.07151 0.0
C1875 C 0.43625 0.99439 0.00429 0.0
C1876 C 0.42919 0.98526 0.95845 0.0
C1877 C 0.42382 0.97343 0.97874 0.0
C1878 C 0.45349 0.02212 0.89593 0.0
C1879 C 0.45528 0.03106 0.94233 0.0
C1880 C 0.4472 0.01022 0.91563 0.0
C1881 C 0.44243 0.007 0.9819 0.0
C1882 C 0.44389 0.01597 0.02731 0.0
C1883 C 0.45029 0.02784 0.00795 0.0
H1884 H 0.54604 0.97828 0.15225 0.0
H1885 H 0.5506 0.96689 0.9531 0.0
H1886 H 0.55691 0.99878 0.11452 0.0
H1887 H 0.56194 0.98739 0.91618 0.0
H1888 H 0.56918 0.02384 0.84713 0.0
H1889 H 0.55949 0.00335 0.88494 0.0
H1890 H 0.5754 0.01477 0.08452 0.0
H1891 H 0.58461 0.03527 0.04745 0.0
C1892 C 0.54953 0.98017 0.10072 0.0
C1893 C 0.54739 0.97095 0.05558 0.0
C1894 C 0.55583 0.99195 0.07908 0.0
C1895 C 0.56031 0.99481 0.01204 0.0
C1896 C 0.55844 0.98556 0.96763 0.0
C1897 C 0.55199 0.97379 0.98897 0.0
C1898 C 0.57066 0.02196 0.89895 0.0
C1899 C 0.57761 0.03119 0.94436 0.0
C1900 C 0.56515 0.01019 0.92065 0.0
C1901 C 0.56659 0.00734 0.98805 0.0
C1902 C 0.57385 0.01659 0.03277 0.0
C1903 C 0.57921 0.02837 0.01134 0.0
H1904 H 0.96733 0.54018 0.05895 0.0
H1905 H 0.97673 0.55373 0.85331 0.0
H1906 H 0.98802 0.55107 0.09194 0.0
H1907 H 0.99744 0.56508 0.88703 0.0
H1908 H 0.034 0.57182 0.9465 0.0
H1909 H 0.0133 0.56218 0.91464 0.0
H1910 H 0.00462 0.56974 0.11452 0.0
H1911 H 0.0254 0.579 0.14744 0.0
C1912 C 0.9738 0.54563 0.02093 0.0
C1913 C 0.97037 0.54602 0.95332 0.0
C1914 C 0.9857 0.55196 0.04004 0.0
C1915 C 0.99447 0.55897 0.99224 0.0
C1916 C 0.99098 0.5596 0.92498 0.0
C1917 C 0.97909 0.55314 0.90565 0.0
C1918 C 0.02769 0.57148 0.98372 0.0
C1919 C 0.03137 0.57616 0.04966 0.0
C1920 C 0.01579 0.56601 0.96519 0.0
C1921 C 0.00722 0.56519 0.01178 0.0
C1922 C 0.01092 0.57003 0.07755 0.0
C1923 C 0.02285 0.5754 0.0964 0.0
H1924 H 0.45251 0.41776 0.05271 0.0
H1925 H 0.45749 0.43332 0.85201 0.0
H1926 H 0.44124 0.42713 0.08709 0.0
H1927 H 0.44666 0.44313 0.88718 0.0
H1928 H 0.41874 0.45191 0.94963 0.0
H1929 H 0.42803 0.44057 0.91545 0.0
H1930 H 0.44385 0.44579 0.11577 0.0
H1931 H 0.43411 0.45671 0.15075 0.0
C1932 C 0.45122 0.42321 0.01592 0.0
C1933 C 0.45592 0.42481 0.94962 0.0
C1934 C 0.44482 0.42867 0.03583 0.0
C1935 C 0.44308 0.43598 0.99022 0.0
C1936 C 0.44765 0.43743 0.9235 0.0
C1937 C 0.45392 0.43185 0.90333 0.0
C1938 C 0.42414 0.45057 0.98655 0.0
C1939 C 0.42572 0.45525 0.0529 0.0
C1940 C 0.42955 0.44412 0.96676 0.0
C1941 C 0.43679 0.4423 0.01253 0.0
C1942 C 0.4382 0.44684 0.07932 0.0
C1943 C 0.43267 0.45317 0.09938 0.0
H1944 H 0.17879 0.4086 0.1099 0.0
H1945 H 0.18004 0.40787 0.33027 0.0
H1946 H 0.19849 0.41092 0.10419 0.0
H1947 H 0.19939 0.40959 0.32475 0.0
H1948 H 0.23693 0.41873 0.30478 0.0
H1949 H 0.21955 0.42104 0.30168 0.0
H1950 H 0.20749 0.39946 0.11952 0.0
H1951 H 0.22513 0.39768 0.12085 0.0
C1952 C 0.18328 0.40898 0.15713 0.0
C1953 C 0.17781 0.40799 0.22051 0.0
C1954 C 0.19456 0.41022 0.15391 0.0
C1955 C 0.20056 0.41035 0.21396 0.0
C1956 C 0.19519 0.40974 0.27734 0.0
C1957 C 0.18401 0.40866 0.28056 0.0
C1958 C 0.23064 0.41462 0.26354 0.0
C1959 C 0.23237 0.40794 0.21339 0.0
C1960 C 0.22061 0.41587 0.26199 0.0
C1961 C 0.21197 0.41031 0.21087 0.0
C1962 C 0.21397 0.40401 0.15925 0.0
C1963 C 0.22408 0.40292 0.16022 0.0
H1964 H 0.60469 0.77735 0.11885 0.0
H1965 H 0.58456 0.76612 0.30626 0.0
H1966 H 0.60299 0.79505 0.1177 0.0
H1967 H 0.58236 0.78356 0.3035 0.0
H1968 H 0.59588 0.82318 0.32958 0.0
H1969 H 0.59418 0.80384 0.32443 0.0
H1970 H 0.59134 0.80398 0.10437 0.0
H1971 H 0.59359 0.82365 0.10955 0.0
C1972 C 0.59967 0.77853 0.15908 0.0
C1973 C 0.59488 0.77038 0.2131 0.0
C1974 C 0.59863 0.78868 0.15822 0.0
C1975 C 0.59263 0.79085 0.21088 0.0
C1976 C 0.5873 0.78235 0.26296 0.0
C1977 C 0.58848 0.77229 0.26431 0.0
C1978 C 0.59477 0.81905 0.28008 0.0
C1979 C 0.59497 0.82503 0.21993 0.0
C1980 C 0.59371 0.80787 0.2771 0.0
C1981 C 0.59266 0.80229 0.21392 0.0
C1982 C 0.59236 0.80808 0.15388 0.0
C1983 C 0.59358 0.81934 0.15682 0.0
H1984 H 0.23189 0.82365 0.10993 0.0
H1985 H 0.22927 0.82335 0.32997 0.0
H1986 H 0.21447 0.80399 0.10525 0.0
H1987 H 0.21158 0.804 0.32533 0.0
H1988 H 0.18317 0.76625 0.30692 0.0
H1989 H 0.20283 0.7837 0.30504 0.0
H1990 H 0.19399 0.7952 0.11815 0.0
H1991 H 0.17461 0.77752 0.11844 0.0
C1992 C 0.22761 0.81937 0.15733 0.0
C1993 C 0.23194 0.8251 0.22028 0.0
C1994 C 0.21756 0.80812 0.15467 0.0
C1995 C 0.21148 0.80238 0.21483 0.0
C1996 C 0.21607 0.808 0.2779 0.0
C1997 C 0.22621 0.81917 0.2806 0.0
C1998 C 0.1855 0.77244 0.26496 0.0
C1999 C 0.17728 0.77052 0.21308 0.0
C2000 C 0.19676 0.7825 0.2641 0.0
C2001 C 0.20003 0.79099 0.21186 0.0
C2002 C 0.19192 0.78883 0.15877 0.0
C2003 C 0.18073 0.77869 0.15913 0.0
H2004 H 0.40761 0.17907 0.67035 0.0
H2005 H 0.40949 0.17854 0.89054 0.0
H2006 H 0.4092 0.19835 0.67496 0.0
H2007 H 0.41168 0.1982 0.89525 0.0
H2008 H 0.39808 0.22455 0.87986 0.0
H2009 H 0.40004 0.20702 0.88146 0.0
H2010 H 0.42058 0.21858 0.69532 0.0
H2011 H 0.41807 0.23584 0.69202 0.0
C2012 C 0.40864 0.18319 0.71981 0.0
C2013 C 0.40832 0.1772 0.78013 0.0
C2014 C 0.40963 0.19434 0.72248 0.0
C2015 C 0.41052 0.1999 0.78554 0.0
C2016 C 0.41076 0.19412 0.8458 0.0
C2017 C 0.40959 0.18287 0.84315 0.0
C2018 C 0.40312 0.22342 0.83961 0.0
C2019 C 0.4078 0.23153 0.78535 0.0
C2020 C 0.40432 0.21337 0.84075 0.0
C2021 C 0.41039 0.21126 0.78819 0.0
C2022 C 0.4156 0.21973 0.73582 0.0
C2023 C 0.41423 0.22969 0.73412 0.0
H2024 H 0.77055 0.17871 0.88156 0.0
H2025 H 0.77357 0.17858 0.66186 0.0
H2026 H 0.788 0.19835 0.8859 0.0
H2027 H 0.79129 0.1979 0.66625 0.0
H2028 H 0.81998 0.23561 0.68395 0.0
H2029 H 0.80023 0.21827 0.68513 0.0
H2030 H 0.80847 0.20688 0.87446 0.0
H2031 H 0.82791 0.22444 0.87483 0.0
C2032 C 0.77492 0.18289 0.83416 0.0
C2033 C 0.7707 0.17704 0.77143 0.0
C2034 C 0.78499 0.19414 0.83663 0.0
C2035 C 0.7912 0.19973 0.77652 0.0
C2036 C 0.78671 0.19401 0.7136 0.0
C2037 C 0.77654 0.18285 0.71106 0.0
C2038 C 0.8175 0.22947 0.72625 0.0
C2039 C 0.82556 0.23138 0.77905 0.0
C2040 C 0.80619 0.21947 0.72674 0.0
C2041 C 0.80272 0.21105 0.77955 0.0
C2042 C 0.81069 0.21321 0.83341 0.0
C2043 C 0.82192 0.22327 0.83339 0.0
H2044 H 0.82434 0.59367 0.8912 0.0
H2045 H 0.82295 0.59425 0.67085 0.0
H2046 H 0.80464 0.59134 0.89723 0.0
H2047 H 0.80361 0.59252 0.67665 0.0
H2048 H 0.76614 0.5834 0.69645 0.0
H2049 H 0.78348 0.58105 0.7 0.0
H2050 H 0.79552 0.6027 0.88195 0.0
H2051 H 0.77788 0.60449 0.88019 0.0
C2052 C 0.81981 0.59326 0.84405 0.0
C2053 C 0.82525 0.5942 0.78057 0.0
C2054 C 0.80854 0.59201 0.84745 0.0
C2055 C 0.80249 0.59183 0.78748 0.0
C2056 C 0.80783 0.59241 0.72402 0.0
C2057 C 0.819 0.59349 0.72063 0.0
C2058 C 0.77241 0.5875 0.73777 0.0
C2059 C 0.77068 0.59422 0.78769 0.0
C2060 C 0.78242 0.58624 0.73957 0.0
C2061 C 0.79106 0.59183 0.79066 0.0
C2062 C 0.78905 0.59813 0.8422 0.0
C2063 C 0.77893 0.59923 0.84102 0.0
H2064 H 0.90363 0.7521 0.63881 0.0
H2065 H 0.89145 0.73081 0.45591 0.0
H2066 H 0.8863 0.75448 0.63648 0.0
H2067 H 0.87385 0.73265 0.45536 0.0
H2068 H 0.84531 0.74203 0.44664 0.0
H2069 H 0.86494 0.7442 0.44012 0.0
H2070 H 0.86615 0.74314 0.66068 0.0
H2071 H 0.84687 0.74155 0.66696 0.0
C2072 C 0.89727 0.74795 0.59796 0.0
C2073 C 0.89888 0.74119 0.54786 0.0
C2074 C 0.88726 0.74924 0.59686 0.0
C2075 C 0.87853 0.74364 0.54626 0.0
C2076 C 0.88041 0.73724 0.49469 0.0
C2077 C 0.8905 0.73611 0.4952 0.0
C2078 C 0.84986 0.74243 0.49369 0.0
C2079 C 0.84449 0.74156 0.55729 0.0
C2080 C 0.86109 0.74359 0.49 0.0
C2081 C 0.86716 0.74374 0.54982 0.0
C2082 C 0.8619 0.74325 0.61342 0.0
C2083 C 0.85076 0.74226 0.6171 0.0
H2084 H 0.26011 0.15653 0.44977 0.0
H2085 H 0.26195 0.15658 0.6701 0.0
H2086 H 0.25786 0.13687 0.44714 0.0
H2087 H 0.2603 0.13723 0.66755 0.0
H2088 H 0.25098 0.09942 0.652 0.0
H2089 H 0.2488 0.11688 0.64803 0.0
H2090 H 0.26953 0.12812 0.46251 0.0
H2091 H 0.27119 0.11043 0.46483 0.0
C2092 C 0.26 0.15233 0.49769 0.0
C2093 C 0.26127 0.15816 0.56011 0.0
C2094 C 0.2588 0.14107 0.4962 0.0
C2095 C 0.25902 0.13543 0.55706 0.0
C2096 C 0.25991 0.14115 0.6196 0.0
C2097 C 0.26093 0.15232 0.62111 0.0
C2098 C 0.25493 0.10555 0.60988 0.0
C2099 C 0.26133 0.10356 0.55899 0.0
C2100 C 0.25376 0.11562 0.60783 0.0
C2101 C 0.25909 0.12404 0.55537 0.0
C2102 C 0.26514 0.12181 0.50325 0.0
C2103 C 0.26617 0.11166 0.50479 0.0
H2104 H 0.89139 0.16058 0.45813 0.0
H2105 H 0.90279 0.15289 0.64889 0.0
H2106 H 0.87386 0.14112 0.45936 0.0
H2107 H 0.88549 0.13311 0.6486 0.0
H2108 H 0.84585 0.10631 0.67318 0.0
H2109 H 0.86512 0.1241 0.6681 0.0
H2110 H 0.86541 0.12064 0.4485 0.0
H2111 H 0.84582 0.10313 0.45355 0.0
C2112 C 0.89028 0.15464 0.49972 0.0
C2113 C 0.89845 0.15835 0.55376 0.0
C2114 C 0.88023 0.14339 0.50021 0.0
C2115 C 0.87816 0.13548 0.55429 0.0
C2116 C 0.88663 0.13903 0.60683 0.0
C2117 C 0.89661 0.15035 0.6068 0.0
C2118 C 0.85008 0.10927 0.62386 0.0
C2119 C 0.84424 0.10337 0.56371 0.0
C2120 C 0.86121 0.11947 0.62091 0.0
C2121 C 0.86687 0.12394 0.55779 0.0
C2122 C 0.86124 0.11766 0.49791 0.0
C2123 C 0.85003 0.10755 0.50079 0.0
H2124 H 0.06438 0.55804 0.20853 0.0
H2125 H 0.08557 0.56958 0.02509 0.0
H2126 H 0.0661 0.54036 0.21119 0.0
H2127 H 0.08785 0.5522 0.02958 0.0
H2128 H 0.07493 0.51274 0.00285 0.0
H2129 H 0.07652 0.53204 0.0071 0.0
H2130 H 0.07743 0.5313 0.22785 0.0
H2131 H 0.07522 0.51165 0.22335 0.0
C2132 C 0.06964 0.55693 0.16961 0.0
C2133 C 0.07472 0.56515 0.11614 0.0
C2134 C 0.0707 0.5468 0.17131 0.0
C2135 C 0.07703 0.54472 0.12018 0.0
C2136 C 0.08265 0.5533 0.06885 0.0
C2137 C 0.08143 0.56334 0.06653 0.0
C2138 C 0.0756 0.51674 0.05232 0.0
C2139 C 0.07486 0.5106 0.11276 0.0
C2140 C 0.07659 0.52789 0.05484 0.0
C2141 C 0.07706 0.5333 0.11788 0.0
C2142 C 0.07684 0.52735 0.17835 0.0
C2143 C 0.07566 0.5161 0.17581 0.0
H2144 H 0.43783 0.51161 0.22314 0.0
H2145 H 0.4403 0.51225 0.00296 0.0
H2146 H 0.45521 0.5313 0.2283 0.0
H2147 H 0.45793 0.53162 0.00805 0.0
H2148 H 0.48628 0.5693 0.02719 0.0
H2149 H 0.4666 0.55189 0.02958 0.0
H2150 H 0.47571 0.54015 0.21459 0.0
H2151 H 0.49512 0.55781 0.21384 0.0
C2152 C 0.44206 0.51597 0.17581 0.0
C2153 C 0.43771 0.51032 0.11267 0.0
C2154 C 0.45209 0.52724 0.17875 0.0
C2155 C 0.45811 0.53308 0.11867 0.0
C2156 C 0.45348 0.52755 0.05544 0.0
C2157 C 0.44337 0.51636 0.05247 0.0
C2158 C 0.48401 0.56307 0.06889 0.0
C2159 C 0.49231 0.5649 0.12002 0.0
C2160 C 0.47274 0.55303 0.07003 0.0
C2161 C 0.46955 0.54448 0.12179 0.0
C2162 C 0.47773 0.54657 0.17433 0.0
C2163 C 0.48893 0.55669 0.1737 0.0
H2164 H 0.49481 0.93787 0.21449 0.0
H2165 H 0.48674 0.9181 0.02609 0.0
H2166 H 0.47536 0.936 0.21328 0.0
H2167 H 0.46701 0.91569 0.02648 0.0
H2168 H 0.44035 0.92859 0.99891 0.0
H2169 H 0.45812 0.92708 0.00501 0.0
H2170 H 0.45487 0.92417 0.22498 0.0
H2171 H 0.43737 0.92626 0.21882 0.0
C2172 C 0.48878 0.9329 0.1735 0.0
C2173 C 0.49238 0.92824 0.12 0.0
C2174 C 0.47755 0.93175 0.17299 0.0
C2175 C 0.46956 0.92576 0.11948 0.0
C2176 C 0.47299 0.9206 0.06771 0.0
C2177 C 0.48429 0.92191 0.06771 0.0
C2178 C 0.44335 0.92749 0.04855 0.0
C2179 C 0.4375 0.92766 0.10842 0.0
C2180 C 0.45354 0.92655 0.0521 0.0
C2181 C 0.45805 0.92558 0.11559 0.0
C2182 C 0.45184 0.92518 0.17527 0.0
C2183 C 0.44175 0.92629 0.17176 0.0
H2184 H 0.55797 0.06396 0.78628 0.0
H2185 H 0.5692 0.08362 0.97528 0.0
H2186 H 0.54036 0.06577 0.7858 0.0
H2187 H 0.55182 0.08595 0.97322 0.0
H2188 H 0.51218 0.07289 0.99698 0.0
H2189 H 0.53147 0.07444 0.99278 0.0
H2190 H 0.53175 0.07765 0.77281 0.0
H2191 H 0.51213 0.07553 0.77701 0.0
C2192 C 0.5568 0.06889 0.8271 0.0
C2193 C 0.56495 0.07354 0.88121 0.0
C2194 C 0.54671 0.07 0.82659 0.0
C2195 C 0.54456 0.07595 0.8797 0.0
C2196 C 0.55301 0.08108 0.93222 0.0
C2197 C 0.56304 0.07981 0.93321 0.0
C2198 C 0.51641 0.07406 0.94772 0.0
C2199 C 0.51055 0.07397 0.88727 0.0
C2200 C 0.52755 0.07503 0.94529 0.0
C2201 C 0.53322 0.0761 0.88239 0.0
C2202 C 0.52757 0.07657 0.82211 0.0
C2203 C 0.51634 0.07544 0.82449 0.0
H2204 H 0.9385 0.44418 0.79315 0.0
H2205 H 0.91758 0.43227 0.97749 0.0
H2206 H 0.93666 0.46178 0.79233 0.0
H2207 H 0.91519 0.44961 0.97491 0.0
H2208 H 0.92787 0.48907 0.00262 0.0
H2209 H 0.92641 0.46981 0.99763 0.0
H2210 H 0.92506 0.47056 0.77703 0.0
H2211 H 0.92714 0.49015 0.78222 0.0
C2212 C 0.93328 0.44519 0.83273 0.0
C2213 C 0.9283 0.43688 0.8858 0.0
C2214 C 0.93215 0.45528 0.83207 0.0
C2215 C 0.92585 0.45724 0.88389 0.0
C2216 C 0.92036 0.44859 0.93504 0.0
C2217 C 0.92164 0.43858 0.93628 0.0
C2218 C 0.92713 0.48508 0.95304 0.0
C2219 C 0.92773 0.4912 0.89281 0.0
C2220 C 0.92621 0.47395 0.95011 0.0
C2221 C 0.92568 0.46858 0.88685 0.0
C2222 C 0.92572 0.4745 0.82666 0.0
C2223 C 0.92682 0.48572 0.82959 0.0
H2224 H 0.51247 0.43705 0.78342 0.0
H2225 H 0.51268 0.43949 0.00352 0.0
H2226 H 0.53208 0.45449 0.77906 0.0
H2227 H 0.53202 0.45725 0.99919 0.0
H2228 H 0.5698 0.48593 0.97957 0.0
H2229 H 0.5524 0.46623 0.97846 0.0
H2230 H 0.54056 0.47493 0.79237 0.0
H2231 H 0.55817 0.49433 0.79189 0.0
C2232 C 0.51672 0.44129 0.83093 0.0
C2233 C 0.51097 0.43691 0.89378 0.0
C2234 C 0.52795 0.45137 0.82845 0.0
C2235 C 0.53364 0.45743 0.88868 0.0
C2236 C 0.52804 0.45278 0.95171 0.0
C2237 C 0.51688 0.4426 0.95424 0.0
C2238 C 0.56355 0.48356 0.93796 0.0
C2239 C 0.56536 0.49174 0.88603 0.0
C2240 C 0.55351 0.47228 0.93755 0.0
C2241 C 0.54496 0.46895 0.88567 0.0
C2242 C 0.54699 0.47704 0.83266 0.0
C2243 C 0.55709 0.48825 0.8326 0.0
H2244 H 0.74244 0.89835 0.54829 0.0
H2245 H 0.74093 0.89573 0.32815 0.0
H2246 H 0.74469 0.88094 0.55483 0.0
H2247 H 0.7426 0.87806 0.33457 0.0
H2248 H 0.75192 0.84974 0.35641 0.0
H2249 H 0.75415 0.8694 0.35756 0.0
H2250 H 0.73308 0.86043 0.54159 0.0
H2251 H 0.73137 0.84104 0.5421 0.0
C2252 C 0.74262 0.89407 0.50127 0.0
C2253 C 0.74144 0.89839 0.43773 0.0
C2254 C 0.74383 0.88403 0.50499 0.0
C2255 C 0.74372 0.87796 0.4453 0.0
C2256 C 0.74292 0.88254 0.38168 0.0
C2257 C 0.74188 0.89267 0.37795 0.0
C2258 C 0.74791 0.85204 0.39763 0.0
C2259 C 0.74139 0.84378 0.44887 0.0
C2260 C 0.74911 0.8633 0.39805 0.0
C2261 C 0.74368 0.86652 0.44918 0.0
C2262 C 0.73753 0.85838 0.50182 0.0
C2263 C 0.73648 0.84719 0.50192 0.0
H2264 H 0.10422 0.84519 0.55108 0.0
H2265 H 0.10695 0.84495 0.33125 0.0
H2266 H 0.12167 0.86484 0.55476 0.0
H2267 H 0.12469 0.86428 0.33495 0.0
H2268 H 0.15333 0.90206 0.35191 0.0
H2269 H 0.13362 0.88466 0.35358 0.0
H2270 H 0.14213 0.87338 0.54244 0.0
H2271 H 0.16152 0.89099 0.54231 0.0
C2272 C 0.10853 0.84935 0.50351 0.0
C2273 C 0.10423 0.84347 0.44094 0.0
C2274 C 0.1186 0.86059 0.50559 0.0
C2275 C 0.12474 0.86616 0.44523 0.0
C2276 C 0.12016 0.86041 0.38248 0.0
C2277 C 0.11 0.84925 0.38034 0.0
C2278 C 0.15092 0.89593 0.3942 0.0
C2279 C 0.15904 0.89789 0.44675 0.0
C2280 C 0.13963 0.88589 0.39497 0.0
C2281 C 0.13625 0.8775 0.44783 0.0
C2282 C 0.14428 0.87969 0.50138 0.0
C2283 C 0.15548 0.88979 0.50108 0.0
H2284 H 0.15634 0.26087 0.33497 0.0
H2285 H 0.15763 0.26036 0.55539 0.0
H2286 H 0.13699 0.25913 0.34025 0.0
H2287 H 0.13792 0.25803 0.56088 0.0
H2288 H 0.11121 0.27118 0.54307 0.0
H2289 H 0.12886 0.26943 0.54493 0.0
H2290 H 0.11684 0.24768 0.36339 0.0
H2291 H 0.09945 0.24997 0.35972 0.0
C2292 C 0.15237 0.26012 0.38466 0.0
C2293 C 0.15859 0.26086 0.44477 0.0
C2294 C 0.14119 0.25904 0.38774 0.0
C2295 C 0.13583 0.25849 0.45105 0.0
C2296 C 0.14184 0.25868 0.5112 0.0
C2297 C 0.15312 0.25994 0.5081 0.0
C2298 C 0.11226 0.26591 0.50395 0.0
C2299 C 0.10399 0.26083 0.45076 0.0
C2300 C 0.12239 0.26483 0.50523 0.0
C2301 C 0.12441 0.2585 0.45391 0.0
C2302 C 0.11577 0.25288 0.40283 0.0
C2303 C 0.10574 0.25412 0.40095 0.0
H2304 H 0.12557 0.40024 0.85986 0.0
H2305 H 0.15871 0.4007 0.87739 0.0
H2306 H 0.13001 0.40658 0.74133 0.0
H2307 H 0.16299 0.40645 0.75748 0.0
H2308 H 0.17089 0.42279 0.54721 0.0
H2309 H 0.16778 0.42075 0.67067 0.0
H2310 H 0.13023 0.39814 0.63748 0.0
H2311 H 0.13327 0.40065 0.51549 0.0
C2312 C 0.13382 0.4017 0.83802 0.0
C2313 C 0.1418 0.39998 0.8774 0.0
C2314 C 0.13635 0.40527 0.77 0.0
C2315 C 0.1468 0.4069 0.73919 0.0
C2316 C 0.15494 0.40546 0.77948 0.0
C2317 C 0.15248 0.4021 0.84811 0.0
C2318 C 0.16196 0.41755 0.56654 0.0
C2319 C 0.15234 0.41186 0.52147 0.0
C2320 C 0.16018 0.41629 0.63731 0.0
C2321 C 0.14875 0.40922 0.66442 0.0
C2322 C 0.13913 0.40383 0.61901 0.0
C2323 C 0.14089 0.40521 0.54863 0.0
H2324 H 0.58062 0.74966 0.54434 0.0
H2325 H 0.60171 0.73307 0.51119 0.0
H2326 H 0.58276 0.74854 0.66764 0.0
H2327 H 0.60435 0.73249 0.63306 0.0
H2328 H 0.6024 0.72582 0.85582 0.0
H2329 H 0.59607 0.72411 0.73736 0.0
H2330 H 0.59708 0.75764 0.75417 0.0
H2331 H 0.6028 0.75892 0.87404 0.0
C2332 C 0.58566 0.74572 0.56334 0.0
C2333 C 0.59101 0.74148 0.51789 0.0
C2334 C 0.58698 0.74517 0.63404 0.0
C2335 C 0.5938 0.74049 0.66076 0.0
C2336 C 0.59885 0.73596 0.61496 0.0
C2337 C 0.5974 0.73637 0.54464 0.0
C2338 C 0.60114 0.73275 0.83413 0.0
C2339 C 0.60308 0.7425 0.87372 0.0
C2340 C 0.59758 0.73182 0.76612 0.0
C2341 C 0.59619 0.74081 0.73548 0.0
C2342 C 0.59788 0.75046 0.77597 0.0
C2343 C 0.60122 0.75125 0.84459 0.0
H2344 H 0.27653 0.87702 0.85767 0.0
H2345 H 0.24386 0.84382 0.87352 0.0
H2346 H 0.2786 0.87271 0.7392 0.0
H2347 H 0.24551 0.83967 0.7536 0.0
H2348 H 0.2542 0.83204 0.54335 0.0
H2349 H 0.25513 0.83501 0.66691 0.0
H2350 H 0.27008 0.87259 0.63507 0.0
H2351 H 0.26967 0.86969 0.51298 0.0
C2352 C 0.26978 0.86879 0.83547 0.0
C2353 C 0.26003 0.86076 0.87434 0.0
C2354 C 0.27091 0.86632 0.76747 0.0
C2355 C 0.26215 0.8559 0.73616 0.0
C2356 C 0.25253 0.8477 0.77598 0.0
C2357 C 0.25152 0.85009 0.8446 0.0
C2358 C 0.25786 0.84095 0.563 0.0
C2359 C 0.26182 0.85062 0.51827 0.0
C2360 C 0.25831 0.84265 0.63383 0.0
C2361 C 0.26262 0.85404 0.66135 0.0
C2362 C 0.26689 0.86371 0.61628 0.0
C2363 C 0.26658 0.86203 0.54585 0.0
H2364 H 0.39629 0.14859 0.47967 0.0
H2365 H 0.43117 0.15294 0.45875 0.0
H2366 H 0.39392 0.14726 0.35572 0.0
H2367 H 0.42858 0.15119 0.33384 0.0
H2368 H 0.40448 0.12681 0.13999 0.0
H2369 H 0.41063 0.13161 0.25957 0.0
H2370 H 0.40636 0.16223 0.24586 0.0
H2371 H 0.40053 0.15763 0.12545 0.0
C2372 C 0.40346 0.14928 0.44847 0.0
C2373 C 0.4139 0.15082 0.4787 0.0
C2374 C 0.40212 0.1486 0.37766 0.0
C2375 C 0.41109 0.14917 0.33567 0.0
C2376 C 0.42158 0.15078 0.36551 0.0
C2377 C 0.42306 0.15178 0.43662 0.0
C2378 C 0.40505 0.13467 0.16235 0.0
C2379 C 0.40208 0.14189 0.12385 0.0
C2380 C 0.40864 0.13744 0.23035 0.0
C2381 C 0.40901 0.1473 0.26138 0.0
C2382 C 0.40621 0.15463 0.22262 0.0
C2383 C 0.4029 0.15202 0.15403 0.0
H2384 H 0.83288 0.25383 0.45663 0.0
H2385 H 0.87058 0.27004 0.48917 0.0
H2386 H 0.83598 0.25349 0.33339 0.0
H2387 H 0.87356 0.26956 0.36682 0.0
H2388 H 0.87087 0.24924 0.16896 0.0
H2389 H 0.86724 0.25144 0.28864 0.0
H2390 H 0.84695 0.26782 0.22927 0.0
H2391 H 0.85098 0.26611 0.10934 0.0
C2392 C 0.84181 0.25748 0.43755 0.0
C2393 C 0.85146 0.26184 0.48282 0.0
C2394 C 0.84357 0.25729 0.36709 0.0
C2395 C 0.85498 0.26133 0.341 0.0
C2396 C 0.86465 0.26622 0.38586 0.0
C2397 C 0.86293 0.26654 0.45592 0.0
C2398 C 0.86561 0.25329 0.18123 0.0
C2399 C 0.86099 0.25723 0.12926 0.0
C2400 C 0.86356 0.25457 0.24975 0.0
C2401 C 0.85682 0.2598 0.26799 0.0
C2402 C 0.85206 0.26363 0.21636 0.0
C2403 C 0.85424 0.26249 0.14757 0.0
H2404 H 0.72385 0.57185 0.45824 0.0
H2405 H 0.75508 0.60622 0.4795 0.0
H2406 H 0.72453 0.57466 0.33362 0.0
H2407 H 0.75594 0.60882 0.35572 0.0
H2408 H 0.75906 0.60292 0.12445 0.0
H2409 H 0.75812 0.59713 0.24469 0.0
H2410 H 0.72297 0.59217 0.2604 0.0
H2411 H 0.72403 0.59826 0.1409 0.0
C2412 C 0.73093 0.57989 0.43622 0.0
C2413 C 0.73937 0.58884 0.47836 0.0
C2414 C 0.73131 0.5815 0.36524 0.0
C2415 C 0.74033 0.59193 0.33547 0.0
C2416 C 0.74897 0.60067 0.3775 0.0
C2417 C 0.74842 0.5992 0.44825 0.0
C2418 C 0.75109 0.60042 0.15344 0.0
C2419 C 0.74161 0.601 0.12373 0.0
C2420 C 0.75056 0.59714 0.22199 0.0
C2421 C 0.74044 0.59414 0.26131 0.0
C2422 C 0.7308 0.59432 0.23082 0.0
C2423 C 0.73144 0.59786 0.16283 0.0
H2424 H 0.8321 0.5795 0.45307 0.0
H2425 H 0.86973 0.60144 0.48524 0.0
H2426 H 0.83525 0.58159 0.32966 0.0
H2427 H 0.87282 0.60402 0.36329 0.0
H2428 H 0.87751 0.60203 0.14075 0.0
H2429 H 0.87304 0.59567 0.25924 0.0
H2430 H 0.84011 0.59589 0.24303 0.0
H2431 H 0.84441 0.60166 0.12315 0.0
C2432 C 0.84104 0.5847 0.43384 0.0
C2433 C 0.85065 0.59033 0.47903 0.0
C2434 C 0.84285 0.586 0.3631 0.0
C2435 C 0.85429 0.59303 0.33611 0.0
C2436 C 0.8639 0.59835 0.38164 0.0
C2437 C 0.86211 0.59694 0.452 0.0
C2438 C 0.86927 0.60059 0.16257 0.0
C2439 C 0.8613 0.60234 0.12318 0.0
C2440 C 0.86672 0.59701 0.23058 0.0
C2441 C 0.85627 0.5954 0.26137 0.0
C2442 C 0.84816 0.59687 0.22106 0.0
C2443 C 0.85062 0.60023 0.15245 0.0
H2444 H 0.42218 0.25246 0.45518 0.0
H2445 H 0.40092 0.2689 0.4875 0.0
H2446 H 0.42009 0.25357 0.33179 0.0
H2447 H 0.39835 0.26946 0.36556 0.0
H2448 H 0.40037 0.27611 0.14289 0.0
H2449 H 0.40672 0.27788 0.26134 0.0
H2450 H 0.40576 0.24437 0.2452 0.0
H2451 H 0.40002 0.24301 0.12533 0.0
C2452 C 0.41712 0.25637 0.43598 0.0
C2453 C 0.41169 0.26056 0.48122 0.0
C2454 C 0.41584 0.25691 0.36524 0.0
C2455 C 0.40899 0.26154 0.33829 0.0
C2456 C 0.40387 0.26603 0.38387 0.0
C2457 C 0.40528 0.26563 0.45423 0.0
C2458 C 0.40165 0.2692 0.16472 0.0
C2459 C 0.3997 0.25942 0.12533 0.0
C2460 C 0.40522 0.27016 0.23272 0.0
C2461 C 0.40663 0.2612 0.26354 0.0
C2462 C 0.40495 0.25154 0.22323 0.0
C2463 C 0.40159 0.2507 0.15462 0.0
H2464 H 0.75874 0.15832 0.11887 0.0
H2465 H 0.72591 0.12527 0.13449 0.0
H2466 H 0.75715 0.16246 0.2389 0.0
H2467 H 0.7239 0.12958 0.2531 0.0
H2468 H 0.73306 0.13236 0.47894 0.0
H2469 H 0.73257 0.12955 0.35675 0.0
H2470 H 0.74752 0.16715 0.32594 0.0
H2471 H 0.74853 0.17004 0.4496 0.0
C2472 C 0.75105 0.15209 0.14775 0.0
C2473 C 0.74248 0.14146 0.11794 0.0
C2474 C 0.75008 0.15447 0.21642 0.0
C2475 C 0.74044 0.14631 0.25619 0.0
C2476 C 0.73161 0.13593 0.22481 0.0
C2477 C 0.7327 0.13347 0.15676 0.0
C2478 C 0.73614 0.14005 0.44629 0.0
C2479 C 0.74092 0.15144 0.47416 0.0
C2480 C 0.73577 0.13842 0.37582 0.0
C2481 C 0.74002 0.14812 0.33104 0.0
C2482 C 0.74436 0.1595 0.35884 0.0
C2483 C 0.74485 0.16115 0.42971 0.0
H2484 H 0.60225 0.84456 0.87554 0.0
H2485 H 0.59762 0.87496 0.85987 0.0
H2486 H 0.59655 0.83984 0.75512 0.0
H2487 H 0.59162 0.87006 0.74019 0.0
H2488 H 0.57177 0.84915 0.54035 0.0
H2489 H 0.57419 0.85088 0.66534 0.0
H2490 H 0.60865 0.85428 0.64559 0.0
H2491 H 0.60645 0.85295 0.52156 0.0
C2492 C 0.59976 0.85006 0.84671 0.0
C2493 C 0.60035 0.8601 0.87661 0.0
C2494 C 0.59653 0.84738 0.77808 0.0
C2495 C 0.59358 0.85456 0.73894 0.0
C2496 C 0.59373 0.86433 0.76968 0.0
C2497 C 0.59723 0.86717 0.83775 0.0
C2498 C 0.57979 0.85017 0.56298 0.0
C2499 C 0.58895 0.85099 0.5215 0.0
C2500 C 0.58118 0.85117 0.63414 0.0
C2501 C 0.59157 0.85263 0.66462 0.0
C2502 C 0.60052 0.85304 0.6232 0.0
C2503 C 0.59928 0.85236 0.55234 0.0
H2504 H 0.16978 0.74583 0.54015 0.0
H2505 H 0.13283 0.73413 0.50737 0.0
H2506 H 0.16661 0.74486 0.66353 0.0
H2507 H 0.12978 0.73377 0.62925 0.0
H2508 H 0.12416 0.72715 0.85098 0.0
H2509 H 0.12821 0.72469 0.73264 0.0
H2510 H 0.16337 0.75503 0.75198 0.0
H2511 H 0.15941 0.75694 0.87186 0.0
C2512 C 0.16098 0.743 0.55926 0.0
C2513 C 0.15157 0.74007 0.51387 0.0
C2514 C 0.15917 0.74254 0.63003 0.0
C2515 C 0.14794 0.73929 0.65693 0.0
C2516 C 0.13851 0.73609 0.61112 0.0
C2517 C 0.14027 0.73637 0.54074 0.0
C2518 C 0.13279 0.73318 0.8299 0.0
C2519 C 0.14147 0.74224 0.87018 0.0
C2520 C 0.13512 0.73185 0.7619 0.0
C2521 C 0.14607 0.73977 0.73186 0.0
C2522 C 0.15488 0.74865 0.77319 0.0
C2523 C 0.15262 0.7498 0.84186 0.0
H2524 H 0.24387 0.40009 0.87509 0.0
H2525 H 0.27668 0.39992 0.85629 0.0
H2526 H 0.24518 0.40582 0.75524 0.0
H2527 H 0.27843 0.40627 0.73785 0.0
H2528 H 0.26943 0.40081 0.51175 0.0
H2529 H 0.26997 0.3981 0.63356 0.0
H2530 H 0.2544 0.4201 0.66869 0.0
H2531 H 0.2533 0.42231 0.54543 0.0
C2532 C 0.25149 0.40155 0.84553 0.0
C2533 C 0.26014 0.39952 0.8745 0.0
C2534 C 0.2523 0.40489 0.77691 0.0
C2535 C 0.26188 0.40644 0.73625 0.0
C2536 C 0.27077 0.40488 0.76672 0.0
C2537 C 0.26983 0.40131 0.83473 0.0
C2538 C 0.26623 0.40519 0.54531 0.0
C2539 C 0.26125 0.41172 0.51872 0.0
C2540 C 0.26661 0.4037 0.6156 0.0
C2541 C 0.26221 0.40886 0.66154 0.0
C2542 C 0.25767 0.41581 0.63499 0.0
C2543 C 0.25713 0.41717 0.56431 0.0
H2544 H 0.83778 0.75587 0.88554 0.0
H2545 H 0.8001 0.73467 0.85269 0.0
H2546 H 0.83457 0.75365 0.00884 0.0
H2547 H 0.79693 0.73194 0.97455 0.0
H2548 H 0.79229 0.73368 0.19761 0.0
H2549 H 0.79681 0.74007 0.07919 0.0
H2550 H 0.82948 0.73932 0.09495 0.0
H2551 H 0.82515 0.73356 0.2148 0.0
C2552 C 0.82882 0.75079 0.90462 0.0
C2553 C 0.81921 0.74542 0.85926 0.0
C2554 C 0.82697 0.74943 0.97531 0.0
C2555 C 0.81549 0.74255 0.0021 0.0
C2556 C 0.80589 0.73748 0.9564 0.0
C2557 C 0.80772 0.73899 0.88609 0.0
C2558 C 0.80049 0.73501 0.17568 0.0
C2559 C 0.80837 0.73313 0.21497 0.0
C2560 C 0.80307 0.7386 0.10769 0.0
C2561 C 0.81346 0.74009 0.07678 0.0
C2562 C 0.82148 0.73845 0.11697 0.0
C2563 C 0.81899 0.73508 0.18557 0.0
H2564 H 0.24763 0.08363 0.89082 0.0
H2565 H 0.26764 0.0659 0.85739 0.0
H2566 H 0.24982 0.08253 0.01405 0.0
H2567 H 0.27036 0.06535 0.9792 0.0
H2568 H 0.26846 0.05889 0.20239 0.0
H2569 H 0.26216 0.05729 0.08395 0.0
H2570 H 0.26419 0.09131 0.10016 0.0
H2571 H 0.26986 0.09247 0.22005 0.0
C2572 C 0.25244 0.07945 0.90977 0.0
C2573 C 0.25747 0.07488 0.86425 0.0
C2574 C 0.2538 0.07891 0.98043 0.0
C2575 C 0.26034 0.07391 0.00706 0.0
C2576 C 0.26507 0.06907 0.96121 0.0
C2577 C 0.26357 0.06945 0.89091 0.0
C2578 C 0.26744 0.06595 0.18055 0.0
C2579 C 0.26964 0.0758 0.21999 0.0
C2580 C 0.26389 0.06509 0.11253 0.0
C2581 C 0.26278 0.07423 0.08174 0.0
C2582 C 0.26476 0.084 0.12207 0.0
C2583 C 0.26808 0.08472 0.19069 0.0
H2584 H 0.92012 0.16563 0.87544 0.0
H2585 H 0.93766 0.20342 0.84282 0.0
H2586 H 0.91989 0.16881 0.9986 0.0
H2587 H 0.93729 0.20649 0.96517 0.0
H2588 H 0.91716 0.20455 0.16291 0.0
H2589 H 0.91934 0.2009 0.04321 0.0
H2590 H 0.93425 0.17928 0.10281 0.0
H2591 H 0.93256 0.18332 0.22278 0.0
C2592 C 0.92409 0.1746 0.8945 0.0
C2593 C 0.92878 0.18426 0.84921 0.0
C2594 C 0.92396 0.17641 0.96492 0.0
C2595 C 0.92841 0.18788 0.99099 0.0
C2596 C 0.93364 0.19754 0.94614 0.0
C2597 C 0.93389 0.19577 0.87608 0.0
C2598 C 0.92088 0.199 0.15066 0.0
C2599 C 0.92439 0.19399 0.20267 0.0
C2600 C 0.92216 0.19694 0.08214 0.0
C2601 C 0.92695 0.18981 0.06397 0.0
C2602 C 0.93038 0.18469 0.11565 0.0
C2603 C 0.92925 0.18689 0.18443 0.0
H2604 H 0.08929 0.50342 0.78979 0.0
H2605 H 0.0689 0.46565 0.82321 0.0
H2606 H 0.08596 0.50015 0.66657 0.0
H2607 H 0.06553 0.46251 0.70086 0.0
H2608 H 0.04753 0.46462 0.50217 0.0
H2609 H 0.05327 0.46835 0.62197 0.0
H2610 H 0.08992 0.48928 0.5634 0.0
H2611 H 0.0843 0.48513 0.44348 0.0
C2612 C 0.08427 0.49444 0.77091 0.0
C2613 C 0.07925 0.48481 0.81639 0.0
C2614 C 0.08239 0.49258 0.70049 0.0
C2615 C 0.07535 0.4811 0.67467 0.0
C2616 C 0.07084 0.47146 0.71974 0.0
C2617 C 0.07283 0.47329 0.78978 0.0
C2618 C 0.05682 0.47003 0.51463 0.0
C2619 C 0.06541 0.47482 0.46284 0.0
C2620 C 0.0601 0.47214 0.58321 0.0
C2621 C 0.07203 0.47912 0.60166 0.0
C2622 C 0.08065 0.48401 0.55026 0.0
C2623 C 0.07738 0.48175 0.48145 0.0
H2624 H 0.49895 0.58615 0.78954 0.0
H2625 H 0.53657 0.60205 0.82274 0.0
H2626 H 0.50219 0.5872 0.66623 0.0
H2627 H 0.53976 0.60256 0.70088 0.0
H2628 H 0.54458 0.60923 0.4782 0.0
H2629 H 0.54004 0.61105 0.59661 0.0
H2630 H 0.50714 0.57788 0.57968 0.0
H2631 H 0.51152 0.57648 0.45984 0.0
C2632 C 0.50791 0.58993 0.77055 0.0
C2633 C 0.51749 0.59399 0.81602 0.0
C2634 C 0.50977 0.59044 0.69985 0.0
C2635 C 0.52124 0.59491 0.67315 0.0
C2636 C 0.53082 0.59926 0.71896 0.0
C2637 C 0.52898 0.59889 0.78929 0.0
C2638 C 0.53633 0.60241 0.49984 0.0
C2639 C 0.5284 0.59272 0.46022 0.0
C2640 C 0.53374 0.60339 0.56783 0.0
C2641 C 0.52328 0.59454 0.59843 0.0
C2642 C 0.5152 0.58496 0.5579 0.0
C2643 C 0.51771 0.58411 0.4893 0.0
H2644 H 0.39307 0.93525 0.46937 0.0
H2645 H 0.42594 0.93512 0.4532 0.0
H2646 H 0.39108 0.92884 0.5878 0.0
H2647 H 0.42438 0.92933 0.57308 0.0
H2648 H 0.41591 0.91285 0.78275 0.0
H2649 H 0.41498 0.91501 0.65933 0.0
H2650 H 0.39938 0.93705 0.69237 0.0
H2651 H 0.39977 0.93439 0.81433 0.0
C2652 C 0.39989 0.93386 0.49152 0.0
C2653 C 0.40966 0.93568 0.45253 0.0
C2654 C 0.3988 0.93025 0.55951 0.0
C2655 C 0.40764 0.92869 0.59072 0.0
C2656 C 0.4173 0.93026 0.55081 0.0
C2657 C 0.41825 0.93364 0.4822 0.0
C2658 C 0.4121 0.91798 0.76337 0.0
C2659 C 0.40795 0.92347 0.80841 0.0
C2660 C 0.41166 0.91932 0.69261 0.0
C2661 C 0.40717 0.92627 0.66545 0.0
C2662 C 0.40271 0.93144 0.71082 0.0
C2663 C 0.403 0.92998 0.7812 0.0
H2664 H 0.49925 0.91328 0.79432 0.0
H2665 H 0.53689 0.93509 0.82632 0.0
H2666 H 0.50235 0.91556 0.67096 0.0
H2667 H 0.53994 0.93788 0.70438 0.0
H2668 H 0.54454 0.93638 0.48115 0.0
H2669 H 0.54019 0.9299 0.59948 0.0
H2670 H 0.50708 0.92981 0.58479 0.0
H2671 H 0.51126 0.93566 0.46495 0.0
C2672 C 0.50819 0.9185 0.77504 0.0
C2673 C 0.51782 0.92402 0.82021 0.0
C2674 C 0.50997 0.91991 0.7043 0.0
C2675 C 0.5214 0.92697 0.67722 0.0
C2676 C 0.53103 0.93219 0.72272 0.0
C2677 C 0.52927 0.93065 0.79309 0.0
C2678 C 0.53628 0.93485 0.50328 0.0
C2679 C 0.52824 0.93653 0.46428 0.0
C2680 C 0.5338 0.9312 0.57124 0.0
C2681 C 0.52334 0.92946 0.60248 0.0
C2682 C 0.51515 0.93088 0.56255 0.0
C2683 C 0.51754 0.9343 0.49395 0.0
H2684 H 0.06632 0.57693 0.45173 0.0
H2685 H 0.07103 0.61197 0.46932 0.0
H2686 H 0.07205 0.57775 0.57202 0.0
H2687 H 0.07706 0.6129 0.58885 0.0
H2688 H 0.09742 0.61158 0.78638 0.0
H2689 H 0.09466 0.61101 0.66172 0.0
H2690 H 0.06015 0.58006 0.68328 0.0
H2691 H 0.06269 0.58082 0.80713 0.0
C2692 C 0.06882 0.58488 0.48097 0.0
C2693 C 0.06827 0.5944 0.45158 0.0
C2694 C 0.07206 0.58534 0.54954 0.0
C2695 C 0.07506 0.59542 0.58917 0.0
C2696 C 0.07492 0.6051 0.559 0.0
C2697 C 0.0714 0.60453 0.491 0.0
C2698 C 0.0893 0.60462 0.76423 0.0
C2699 C 0.08024 0.59628 0.80623 0.0
C2700 C 0.08773 0.60431 0.69324 0.0
C2701 C 0.07722 0.59545 0.66333 0.0
C2702 C 0.06836 0.58691 0.7052 0.0
C2703 C 0.06979 0.5874 0.77597 0.0
H2704 H 0.39333 0.45821 0.47463 0.0
H2705 H 0.42589 0.49151 0.4584 0.0
H2706 H 0.39125 0.46253 0.59309 0.0
H2707 H 0.42424 0.49567 0.57829 0.0
H2708 H 0.41552 0.50329 0.78845 0.0
H2709 H 0.41458 0.50029 0.66493 0.0
H2710 H 0.39981 0.46274 0.69723 0.0
H2711 H 0.40022 0.46568 0.81928 0.0
C2712 C 0.40005 0.46647 0.49675 0.0
C2713 C 0.40977 0.47452 0.45776 0.0
C2714 C 0.39892 0.46894 0.56474 0.0
C2715 C 0.40765 0.47939 0.59593 0.0
C2716 C 0.41724 0.4876 0.556 0.0
C2717 C 0.41824 0.48522 0.48739 0.0
C2718 C 0.4119 0.49439 0.7689 0.0
C2719 C 0.40799 0.48474 0.81375 0.0
C2720 C 0.41145 0.49267 0.6981 0.0
C2721 C 0.40718 0.48127 0.67072 0.0
C2722 C 0.40296 0.47162 0.7159 0.0
C2723 C 0.40327 0.47332 0.78632 0.0
H2724 H 0.25184 0.1834 0.22568 0.0
H2725 H 0.28862 0.20358 0.16673 0.0
H2726 H 0.24617 0.17948 0.10568 0.0
H2727 H 0.28284 0.20007 0.04695 0.0
H2728 H 0.26752 0.20346 0.84675 0.0
H2729 H 0.27089 0.20634 0.96921 0.0
H2730 H 0.24975 0.16868 0.00126 0.0
H2731 H 0.24641 0.16569 0.87792 0.0
C2732 C 0.25875 0.18675 0.18759 0.0
C2733 C 0.27074 0.19354 0.20612 0.0
C2734 C 0.25545 0.18463 0.11876 0.0
C2735 C 0.26406 0.1895 0.06731 0.0
C2736 C 0.27602 0.1963 0.08573 0.0
C2737 C 0.27932 0.19828 0.1543 0.0
C2738 C 0.26343 0.19578 0.87972 0.0
C2739 C 0.25681 0.18432 0.85242 0.0
C2740 C 0.26543 0.19744 0.94983 0.0
C2741 C 0.26073 0.18772 0.9943 0.0
C2742 C 0.25348 0.17631 0.96782 0.0
C2743 C 0.25159 0.17462 0.89733 0.0
H2744 H 0.83713 0.08071 0.88626 0.0
H2745 H 0.79954 0.06584 0.85632 0.0
H2746 H 0.8342 0.07976 0.00988 0.0
H2747 H 0.79669 0.06542 0.97845 0.0
H2748 H 0.79221 0.05885 0.2008 0.0
H2749 H 0.79646 0.05673 0.08228 0.0
H2750 H 0.82976 0.08954 0.09685 0.0
H2751 H 0.82567 0.09125 0.21681 0.0
C2752 C 0.82824 0.07717 0.90602 0.0
C2753 C 0.81858 0.07339 0.8614 0.0
C2754 C 0.82657 0.07672 0.97687 0.0
C2755 C 0.81521 0.07257 0.00451 0.0
C2756 C 0.80554 0.06847 0.95955 0.0
C2757 C 0.80719 0.06879 0.8891 0.0
C2758 C 0.80049 0.06553 0.17864 0.0
C2759 C 0.8086 0.07522 0.21756 0.0
C2760 C 0.80292 0.06436 0.11062 0.0
C2761 C 0.81339 0.07304 0.07934 0.0
C2762 C 0.82168 0.0826 0.11922 0.0
C2763 C 0.81933 0.08363 0.18787 0.0
H2764 H 0.93608 0.73416 0.84558 0.0
H2765 H 0.91957 0.75531 0.87899 0.0
H2766 H 0.9366 0.73144 0.96741 0.0
H2767 H 0.92063 0.7531 0.00225 0.0
H2768 H 0.91018 0.73307 0.20851 0.0
H2769 H 0.9115 0.7388 0.08864 0.0
H2770 H 0.94493 0.7396 0.07189 0.0
H2771 H 0.94317 0.73325 0.19033 0.0
C2772 C 0.93279 0.73847 0.87908 0.0
C2773 C 0.92771 0.74489 0.85242 0.0
C2774 C 0.93316 0.73697 0.94939 0.0
C2775 C 0.92864 0.74202 0.99525 0.0
C2776 C 0.924 0.74888 0.96861 0.0
C2777 C 0.92348 0.75025 0.89793 0.0
C2778 C 0.91784 0.7346 0.17906 0.0
C2779 C 0.92654 0.73268 0.20821 0.0
C2780 C 0.91865 0.73795 0.11044 0.0
C2781 C 0.92828 0.73959 0.06996 0.0
C2782 C 0.93723 0.73813 0.10061 0.0
C2783 C 0.93628 0.73456 0.16862 0.0
H2784 H 0.46012 0.06999 0.52575 0.0
H2785 H 0.4914 0.06683 0.54001 0.0
H2786 H 0.46482 0.07623 0.40626 0.0
H2787 H 0.49592 0.07276 0.41968 0.0
H2788 H 0.48253 0.06268 0.18571 0.0
H2789 H 0.48128 0.06026 0.30964 0.0
H2790 H 0.48402 0.0944 0.33211 0.0
H2791 H 0.48569 0.09706 0.20721 0.0
C2792 C 0.46806 0.07076 0.50336 0.0
C2793 C 0.47543 0.06798 0.54177 0.0
C2794 C 0.47078 0.07439 0.4354 0.0
C2795 C 0.48075 0.07501 0.40429 0.0
C2796 C 0.48823 0.07241 0.44296 0.0
C2797 C 0.48566 0.06905 0.51152 0.0
C2798 C 0.48298 0.06973 0.21705 0.0
C2799 C 0.48416 0.08005 0.187 0.0
C2800 C 0.48235 0.06837 0.28785 0.0
C2801 C 0.4826 0.07717 0.33001 0.0
C2802 C 0.48385 0.08753 0.30033 0.0
C2803 C 0.48482 0.08905 0.22922 0.0
H2804 H 0.93638 0.42556 0.54614 0.0
H2805 H 0.93592 0.39243 0.52816 0.0
H2806 H 0.93067 0.42427 0.42624 0.0
H2807 H 0.9296 0.39071 0.40969 0.0
H2808 H 0.93525 0.39963 0.1835 0.0
H2809 H 0.9379 0.39908 0.30538 0.0
H2810 H 0.91633 0.41515 0.33977 0.0
H2811 H 0.91418 0.41624 0.21645 0.0
C2812 C 0.93479 0.41788 0.51674 0.0
C2813 C 0.93663 0.40912 0.54594 0.0
C2814 C 0.93145 0.41708 0.44811 0.0
C2815 C 0.92975 0.40742 0.40769 0.0
C2816 C 0.93112 0.39843 0.43839 0.0
C2817 C 0.93468 0.39936 0.50641 0.0
C2818 C 0.93095 0.40294 0.21691 0.0
C2819 C 0.92456 0.40805 0.1901 0.0
C2820 C 0.9324 0.40255 0.28723 0.0
C2821 C 0.92735 0.40709 0.33297 0.0
C2822 C 0.92054 0.41177 0.3062 0.0
C2823 C 0.91921 0.4123 0.2355 0.0
H2824 H 0.60399 0.53667 0.17602 0.0
H2825 H 0.58746 0.49897 0.20955 0.0
H2826 H 0.6035 0.53975 0.29831 0.0
H2827 H 0.58713 0.50217 0.33265 0.0
H2828 H 0.59983 0.51717 0.55636 0.0
H2829 H 0.60154 0.51312 0.43653 0.0
H2830 H 0.5854 0.53362 0.37678 0.0
H2831 H 0.58317 0.53725 0.49642 0.0
C2832 C 0.60042 0.52904 0.20948 0.0
C2833 C 0.59563 0.51754 0.18287 0.0
C2834 C 0.6001 0.53083 0.27949 0.0
C2835 C 0.59513 0.52119 0.3246 0.0
C2836 C 0.59099 0.50974 0.29878 0.0
C2837 C 0.59118 0.50793 0.2284 0.0
C2838 C 0.59625 0.52048 0.51811 0.0
C2839 C 0.59104 0.52727 0.53637 0.0
C2840 C 0.5974 0.51828 0.44934 0.0
C2841 C 0.59363 0.52308 0.39761 0.0
C2842 C 0.58848 0.5299 0.41574 0.0
C2843 C 0.58718 0.53195 0.48426 0.0
H2844 H 0.73456 0.79948 0.15294 0.0
H2845 H 0.75588 0.83715 0.12013 0.0
H2846 H 0.73183 0.79633 0.03105 0.0
H2847 H 0.75365 0.83395 0.99682 0.0
H2848 H 0.73355 0.82456 0.79071 0.0
H2849 H 0.73933 0.8289 0.91056 0.0
H2850 H 0.74 0.79619 0.92645 0.0
H2851 H 0.73361 0.79168 0.80805 0.0
C2852 C 0.7389 0.8071 0.11955 0.0
C2853 C 0.74538 0.81858 0.14641 0.0
C2854 C 0.7374 0.80528 0.04922 0.0
C2855 C 0.7425 0.81488 0.00352 0.0
C2856 C 0.7494 0.82636 0.03034 0.0
C2857 C 0.75078 0.82819 0.10105 0.0
C2858 C 0.73507 0.8184 0.81996 0.0
C2859 C 0.73309 0.80777 0.79059 0.0
C2860 C 0.73844 0.82089 0.88856 0.0
C2861 C 0.74005 0.81286 0.9288 0.0
C2862 C 0.73855 0.80246 0.89792 0.0
C2863 C 0.73495 0.79988 0.82993 0.0
H2864 H 0.18392 0.93196 0.77626 0.0
H2865 H 0.20555 0.91701 0.83621 0.0
H2866 H 0.17979 0.93354 0.89618 0.0
H2867 H 0.20182 0.91911 0.95593 0.0
H2868 H 0.20389 0.93729 0.1566 0.0
H2869 H 0.20708 0.937 0.0343 0.0
H2870 H 0.16941 0.91901 3e-05 0.0
H2871 H 0.1661 0.91915 0.1231 0.0
C2872 C 0.18756 0.92873 0.81462 0.0
C2873 C 0.19478 0.924 0.7964 0.0
C2874 C 0.18531 0.9298 0.88338 0.0
C2875 C 0.19051 0.92647 0.93509 0.0
C2876 C 0.19779 0.92185 0.91697 0.0
C2877 C 0.19989 0.92061 0.84844 0.0
C2878 C 0.19626 0.93341 0.12315 0.0
C2879 C 0.18472 0.92811 0.14975 0.0
C2880 C 0.19811 0.9332 0.05313 0.0
C2881 C 0.18849 0.92784 0.00806 0.0
C2882 C 0.17697 0.92319 0.03388 0.0
C2883 C 0.17509 0.92326 0.10425 0.0
H2884 H 0.06682 0.26769 0.15124 0.0
H2885 H 0.08383 0.24701 0.11752 0.0
H2886 H 0.06615 0.27032 0.02943 0.0
H2887 H 0.08262 0.24912 0.99427 0.0
H2888 H 0.09264 0.26909 0.78777 0.0
H2889 H 0.09152 0.26344 0.90767 0.0
H2890 H 0.05778 0.26198 0.92524 0.0
H2891 H 0.05933 0.26825 0.80674 0.0
C2892 C 0.07019 0.26347 0.11768 0.0
C2893 C 0.07545 0.2572 0.14424 0.0
C2894 C 0.06974 0.26491 0.04738 0.0
C2895 C 0.07434 0.25995 0.00144 0.0
C2896 C 0.07918 0.25326 0.02798 0.0
C2897 C 0.07978 0.25195 0.09865 0.0
C2898 C 0.08496 0.26743 0.8174 0.0
C2899 C 0.0761 0.26914 0.78846 0.0
C2900 C 0.08426 0.26413 0.88603 0.0
C2901 C 0.07459 0.26233 0.92674 0.0
C2902 C 0.06551 0.26358 0.89632 0.0
C2903 C 0.06634 0.2671 0.82828 0.0
H2904 H 0.21082 0.26861 0.8054 0.0
H2905 H 0.17772 0.26825 0.78792 0.0
H2906 H 0.20637 0.26227 0.92392 0.0
H2907 H 0.17344 0.2625 0.90783 0.0
H2908 H 0.16548 0.24614 0.11802 0.0
H2909 H 0.1686 0.2482 0.99458 0.0
H2910 H 0.20617 0.27067 0.02787 0.0
H2911 H 0.20312 0.26814 0.14985 0.0
C2912 C 0.20258 0.26717 0.82726 0.0
C2913 C 0.19461 0.26892 0.78789 0.0
C2914 C 0.20004 0.2636 0.89528 0.0
C2915 C 0.1896 0.262 0.92611 0.0
C2916 C 0.18148 0.26347 0.88582 0.0
C2917 C 0.18394 0.26682 0.8172 0.0
C2918 C 0.17442 0.25135 0.09871 0.0
C2919 C 0.18404 0.257 0.14381 0.0
C2920 C 0.1762 0.25262 0.02795 0.0
C2921 C 0.18764 0.25966 0.00087 0.0
C2922 C 0.19726 0.265 0.04631 0.0
C2923 C 0.19549 0.26362 0.11668 0.0
H2924 H 0.73208 0.94198 0.80018 0.0
H2925 H 0.73696 0.91181 0.7802 0.0
H2926 H 0.73855 0.94439 0.91863 0.0
H2927 H 0.74279 0.91369 0.90016 0.0
H2928 H 0.75833 0.92279 0.11221 0.0
H2929 H 0.75627 0.92381 0.98872 0.0
H2930 H 0.73079 0.93527 0.02178 0.0
H2931 H 0.73333 0.93485 0.14376 0.0
C2932 C 0.73455 0.93586 0.82148 0.0
C2933 C 0.73401 0.9267 0.78146 0.0
C2934 C 0.73818 0.93717 0.88951 0.0
C2935 C 0.74103 0.92912 0.91979 0.0
C2936 C 0.74082 0.92015 0.87872 0.0
C2937 C 0.73743 0.91902 0.81003 0.0
C2938 C 0.75245 0.92571 0.09282 0.0
C2939 C 0.74599 0.92872 0.13787 0.0
C2940 C 0.75118 0.9262 0.022 0.0
C2941 C 0.74332 0.92958 0.99475 0.0
C2942 C 0.73712 0.93286 0.04023 0.0
C2943 C 0.73851 0.93254 0.11065 0.0
H2944 H 0.09236 0.82491 0.78979 0.0
H2945 H 0.05975 0.79163 0.80481 0.0
H2946 H 0.09061 0.82898 0.90973 0.0
H2947 H 0.05758 0.79587 0.92328 0.0
H2948 H 0.06644 0.79876 0.14961 0.0
H2949 H 0.0661 0.79595 0.02745 0.0
H2950 H 0.08087 0.83353 0.99639 0.0
H2951 H 0.08173 0.83641 0.12001 0.0
C2952 C 0.08469 0.81861 0.81852 0.0
C2953 C 0.07623 0.80793 0.78856 0.0
C2954 C 0.08363 0.82094 0.88715 0.0
C2955 C 0.074 0.8127 0.92674 0.0
C2956 C 0.06528 0.80228 0.89519 0.0
C2957 C 0.06647 0.79987 0.82719 0.0
C2958 C 0.0695 0.80644 0.11689 0.0
C2959 C 0.07419 0.81783 0.1447 0.0
C2960 C 0.06923 0.80481 0.04642 0.0
C2961 C 0.07348 0.81451 0.00157 0.0
C2962 C 0.07772 0.82587 0.02931 0.0
C2963 C 0.07812 0.82752 0.10017 0.0
H2964 H 0.93382 0.53615 0.18248 0.0
H2965 H 0.91305 0.4984 0.21574 0.0
H2966 H 0.93724 0.53925 0.30482 0.0
H2967 H 0.91643 0.50163 0.33896 0.0
H2968 H 0.91832 0.51671 0.56219 0.0
H2969 H 0.91267 0.51259 0.4423 0.0
H2970 H 0.94934 0.53321 0.38358 0.0
H2971 H 0.9551 0.53691 0.50336 0.0
C2972 C 0.92982 0.52851 0.21588 0.0
C2973 C 0.92327 0.517 0.18922 0.0
C2974 C 0.93184 0.53031 0.28592 0.0
C2975 C 0.92723 0.52067 0.33095 0.0
C2976 C 0.92008 0.5092 0.30508 0.0
C2977 C 0.91817 0.50737 0.23466 0.0
C2978 C 0.92524 0.52003 0.52421 0.0
C2979 C 0.93722 0.52687 0.54277 0.0
C2980 C 0.92195 0.51779 0.45539 0.0
C2981 C 0.93057 0.5226 0.40396 0.0
C2982 C 0.94252 0.52948 0.42237 0.0
C2983 C 0.9458 0.53157 0.49095 0.0
H2984 H 0.48554 0.4021 0.56079 0.0
H2985 H 0.46568 0.41904 0.50176 0.0
H2986 H 0.48949 0.40037 0.44084 0.0
H2987 H 0.46922 0.4168 0.382 0.0
H2988 H 0.46572 0.39807 0.18169 0.0
H2989 H 0.46282 0.39856 0.30412 0.0
H2990 H 0.50044 0.41479 0.33661 0.0
H2991 H 0.50347 0.41446 0.21328 0.0
C2992 C 0.48226 0.40573 0.52272 0.0
C2993 C 0.47555 0.41102 0.54122 0.0
C2994 C 0.48441 0.40458 0.4539 0.0
C2995 C 0.47963 0.40842 0.40243 0.0
C2996 C 0.47291 0.41366 0.42081 0.0
C2997 C 0.47092 0.41496 0.48937 0.0
C2998 C 0.4734 0.40161 0.21474 0.0
C2999 C 0.48486 0.40638 0.18758 0.0
C3000 C 0.47172 0.40193 0.28483 0.0
C3001 C 0.48142 0.40687 0.32942 0.0
C3002 C 0.49282 0.41096 0.30308 0.0
C3003 C 0.49454 0.41077 0.23259 0.0
H3004 H 0.58634 0.08794 0.20601 0.0
H3005 H 0.60412 0.06795 0.17221 0.0
H3006 H 0.58627 0.08453 0.32914 0.0
H3007 H 0.60389 0.0645 0.29451 0.0
H3008 H 0.58386 0.04623 0.493 0.0
H3009 H 0.5859 0.05203 0.37327 0.0
H3010 H 0.601 0.08859 0.43258 0.0
H3011 H 0.5995 0.0829 0.55249 0.0
C3012 C 0.59039 0.08299 0.2248 0.0
C3013 C 0.59512 0.07811 0.17921 0.0
C3014 C 0.59035 0.08106 0.29519 0.0
C3015 C 0.59492 0.07411 0.32091 0.0
C3016 C 0.60016 0.06974 0.27574 0.0
C3017 C 0.60033 0.07178 0.20572 0.0
C3018 C 0.5876 0.05551 0.4807 0.0
C3019 C 0.59121 0.06404 0.53267 0.0
C3020 C 0.58879 0.05882 0.41216 0.0
C3021 C 0.59358 0.07075 0.39391 0.0
C3022 C 0.59713 0.07931 0.44551 0.0
C3023 C 0.5961 0.07601 0.5143 0.0
loop_
_geom_bond_atom_site_label_1
_geom_bond_atom_site_label_2
_geom_bond_distance
_geom_bond_site_symmetry_2
_ccdc_geom_bond_type
Co0 O3 1.970 . S
Co0 N17 1.989 . S
Co0 O25 1.967 . S
Co0 O32 1.920 . S
Co1 O4 1.966 . S
Co1 N10 2.022 . S
Co1 N18 1.993 . S
Co1 O26 1.941 . S
C2 O3 1.258 . S
C2 O4 1.263 . S
O3 Co0 1.970 . S
O3 C2 1.258 . S
O4 Co1 1.966 . S
O4 C2 1.263 . S
C5 O6 1.235 . S
C5 O32 1.289 . S
O6 C5 1.235 . S
C7 C9 1.400 1_554 S
C7 N10 1.351 . S
C7 C12 1.501 . S
C8 C9 1.387 . S
C8 N11 1.341 1_556 S
C9 C7 1.400 1_556 S
C9 C8 1.387 . S
N10 Co1 2.022 . S
N10 C7 1.351 . S
N10 N11 1.365 . S
N11 C8 1.341 1_554 S
N11 N10 1.365 . S
N11 H31 0.862 . S
C12 C7 1.501 . S
C12 H13 0.961 . S
C12 H14 0.961 . S
C12 H15 0.960 1_554 S
H13 C12 0.961 . S
H14 C12 0.961 . S
H15 C12 0.960 1_556 S
C16 N17 1.342 . S
C16 C20 1.401 . S
C16 C21 1.499 . S
N17 Co0 1.989 . S
N17 C16 1.342 . S
N17 N18 1.388 . S
N18 Co1 1.993 . S
N18 N17 1.388 . S
N18 C19 1.346 . S
C19 N18 1.346 . S
C19 C20 1.396 . S
C19 C29 1.510 . S
C20 C16 1.401 . S
C20 C19 1.396 . S
C21 C16 1.499 . S
C21 H22 0.959 . S
C21 H23 0.960 . S
C21 H24 0.961 . S
H22 C21 0.959 . S
H23 C21 0.960 . S
H24 C21 0.961 . S
O25 Co0 1.967 . S
O25 C33 1.258 . S
O26 Co1 1.941 . S
O26 C33 1.266 . S
H27 C29 0.959 . S
H28 C29 0.961 . S
C29 C19 1.510 . S
C29 H27 0.959 . S
C29 H28 0.961 . S
C29 H30 0.960 . S
H30 C29 0.960 . S
H31 N11 0.862 . S
O32 Co0 1.920 . S
O32 C5 1.289 . S
C33 O25 1.258 . S
C33 O26 1.266 . S
Co34 O37 1.970 . S
Co34 N51 1.989 . S
Co34 O59 1.967 . S
Co34 O66 1.920 . S
Co35 O38 1.966 . S
Co35 N44 2.022 . S
Co35 N52 1.993 . S
Co35 O60 1.941 . S
C36 O37 1.258 . S
C36 O38 1.263 . S
O37 Co34 1.970 . S
O37 C36 1.258 . S
O38 Co35 1.966 . S
O38 C36 1.263 . S
C39 O40 1.235 . S
C39 O66 1.289 . S
O40 C39 1.235 . S
C41 C43 1.400 1_554 S
C41 N44 1.351 . S
C41 C46 1.501 . S
C42 C43 1.387 . S
C42 N45 1.341 1_556 S
C43 C41 1.400 1_556 S
C43 C42 1.387 . S
N44 Co35 2.022 . S
N44 C41 1.351 . S
N44 N45 1.365 . S
N45 C42 1.341 1_554 S
N45 N44 1.365 . S
N45 H65 0.862 . S
C46 C41 1.501 . S
C46 H47 0.961 . S
C46 H48 0.961 . S
C46 H49 0.960 1_554 S
H47 C46 0.961 . S
H48 C46 0.961 . S
H49 C46 0.960 1_556 S
C50 N51 1.342 . S
C50 C54 1.401 . S
C50 C55 1.499 . S
N51 Co34 1.989 . S
N51 C50 1.342 . S
N51 N52 1.388 . S
N52 Co35 1.993 . S
N52 N51 1.388 . S
N52 C53 1.346 . S
C53 N52 1.346 . S
C53 C54 1.396 . S
C53 C63 1.510 . S
C54 C50 1.401 . S
C54 C53 1.396 . S
C55 C50 1.499 . S
C55 H56 0.959 . S
C55 H57 0.960 . S
C55 H58 0.961 . S
H56 C55 0.959 . S
H57 C55 0.960 . S
H58 C55 0.961 . S
O59 Co34 1.967 . S
O59 C67 1.258 . S
O60 Co35 1.941 . S
O60 C67 1.266 . S
H61 C63 0.959 . S
H62 C63 0.961 . S
C63 C53 1.510 . S
C63 H61 0.959 . S
C63 H62 0.961 . S
C63 H64 0.960 . S
H64 C63 0.960 . S
H65 N45 0.862 . S
O66 Co34 1.920 . S
O66 C39 1.289 . S
C67 O59 1.258 . S
C67 O60 1.266 . S
Co68 O71 1.970 . S
Co68 N85 1.989 . S
Co68 O93 1.967 . S
Co68 O100 1.920 . S
Co69 O72 1.966 . S
Co69 N78 2.022 . S
Co69 N86 1.993 . S
Co69 O94 1.941 . S
C70 O71 1.258 . S
C70 O72 1.263 . S
O71 Co68 1.970 . S
O71 C70 1.258 . S
O72 Co69 1.966 . S
O72 C70 1.263 . S
C73 O74 1.235 . S
C73 O100 1.289 . S
O74 C73 1.235 . S
C75 C77 1.400 1_554 S
C75 N78 1.351 . S
C75 C80 1.501 . S
C76 C77 1.387 . S
C76 N79 1.341 1_556 S
C77 C75 1.400 1_556 S
C77 C76 1.387 . S
N78 Co69 2.022 . S
N78 C75 1.351 . S
N78 N79 1.365 . S
N79 C76 1.341 1_554 S
N79 N78 1.365 . S
N79 H99 0.862 . S
C80 C75 1.501 . S
C80 H81 0.961 . S
C80 H82 0.961 . S
C80 H83 0.960 1_554 S
H81 C80 0.961 . S
H82 C80 0.961 . S
H83 C80 0.960 1_556 S
C84 N85 1.342 . S
C84 C88 1.401 . S
C84 C89 1.499 . S
N85 Co68 1.989 . S
N85 C84 1.342 . S
N85 N86 1.388 . S
N86 Co69 1.993 . S
N86 N85 1.388 . S
N86 C87 1.346 . S
C87 N86 1.346 . S
C87 C88 1.396 . S
C87 C97 1.510 . S
C88 C84 1.401 . S
C88 C87 1.396 . S
C89 C84 1.499 . S
C89 H90 0.959 . S
C89 H91 0.960 . S
C89 H92 0.961 . S
H90 C89 0.959 . S
H91 C89 0.960 . S
H92 C89 0.961 . S
O93 Co68 1.967 . S
O93 C101 1.258 . S
O94 Co69 1.941 . S
O94 C101 1.266 . S
H95 C97 0.959 . S
H96 C97 0.961 . S
C97 C87 1.510 . S
C97 H95 0.959 . S
C97 H96 0.961 . S
C97 H98 0.960 . S
H98 C97 0.960 . S
H99 N79 0.862 . S
O100 Co68 1.920 . S
O100 C73 1.289 . S
C101 O93 1.258 . S
C101 O94 1.266 . S
Co102 O105 1.970 . S
Co102 N119 1.989 . S
Co102 O127 1.967 . S
Co102 O134 1.920 . S
Co103 O106 1.966 . S
Co103 N112 2.022 . S
Co103 N120 1.993 . S
Co103 O128 1.941 . S
C104 O105 1.258 . S
C104 O106 1.263 . S
O105 Co102 1.970 . S
O105 C104 1.258 . S
O106 Co103 1.966 . S
O106 C104 1.263 . S
C107 O108 1.235 . S
C107 O134 1.289 . S
O108 C107 1.235 . S
C109 C111 1.400 1_556 S
C109 N112 1.351 . S
C109 C114 1.501 . S
C110 C111 1.387 . S
C110 N113 1.341 1_554 S
C111 C109 1.400 1_554 S
C111 C110 1.387 . S
N112 Co103 2.022 . S
N112 C109 1.351 . S
N112 N113 1.365 . S
N113 C110 1.341 1_556 S
N113 N112 1.365 . S
N113 H133 0.862 . S
C114 C109 1.501 . S
C114 H115 0.961 . S
C114 H116 0.961 . S
C114 H117 0.960 1_556 S
H115 C114 0.961 . S
H116 C114 0.961 . S
H117 C114 0.960 1_554 S
C118 N119 1.342 . S
C118 C122 1.401 . S
C118 C123 1.499 . S
N119 Co102 1.989 . S
N119 C118 1.342 . S
N119 N120 1.388 . S
N120 Co103 1.993 . S
N120 N119 1.388 . S
N120 C121 1.346 . S
C121 N120 1.346 . S
C121 C122 1.396 . S
C121 C131 1.510 . S
C122 C118 1.401 . S
C122 C121 1.396 . S
C123 C118 1.499 . S
C123 H124 0.959 . S
C123 H125 0.960 . S
C123 H126 0.961 . S
H124 C123 0.959 . S
H125 C123 0.960 . S
H126 C123 0.961 . S
O127 Co102 1.967 . S
O127 C135 1.258 . S
O128 Co103 1.941 . S
O128 C135 1.266 . S
H129 C131 0.959 . S
H130 C131 0.961 . S
C131 C121 1.510 . S
C131 H129 0.959 . S
C131 H130 0.961 . S
C131 H132 0.960 . S
H132 C131 0.960 . S
H133 N113 0.862 . S
O134 Co102 1.920 . S
O134 C107 1.289 . S
C135 O127 1.258 . S
C135 O128 1.266 . S
Co136 O139 1.970 . S
Co136 N153 1.989 . S
Co136 O161 1.967 . S
Co136 O168 1.920 . S
Co137 O140 1.966 . S
Co137 N146 2.022 . S
Co137 N154 1.993 . S
Co137 O162 1.941 . S
C138 O139 1.258 . S
C138 O140 1.263 . S
O139 Co136 1.970 . S
O139 C138 1.258 . S
O140 Co137 1.966 . S
O140 C138 1.263 . S
C141 O142 1.235 . S
C141 O168 1.289 . S
O142 C141 1.235 . S
C143 C145 1.400 1_556 S
C143 N146 1.351 . S
C143 C148 1.501 . S
C144 C145 1.387 . S
C144 N147 1.341 1_554 S
C145 C143 1.400 1_554 S
C145 C144 1.387 . S
N146 Co137 2.022 . S
N146 C143 1.351 . S
N146 N147 1.365 . S
N147 C144 1.341 1_556 S
N147 N146 1.365 . S
N147 H167 0.862 . S
C148 C143 1.501 . S
C148 H149 0.961 . S
C148 H150 0.961 . S
C148 H151 0.960 1_556 S
H149 C148 0.961 . S
H150 C148 0.961 . S
H151 C148 0.960 1_554 S
C152 N153 1.342 . S
C152 C156 1.401 . S
C152 C157 1.499 . S
N153 Co136 1.989 . S
N153 C152 1.342 . S
N153 N154 1.388 . S
N154 Co137 1.993 . S
N154 N153 1.388 . S
N154 C155 1.346 . S
C155 N154 1.346 . S
C155 C156 1.396 . S
C155 C165 1.510 . S
C156 C152 1.401 . S
C156 C155 1.396 . S
C157 C152 1.499 . S
C157 H158 0.959 . S
C157 H159 0.960 . S
C157 H160 0.961 . S
H158 C157 0.959 . S
H159 C157 0.960 . S
H160 C157 0.961 . S
O161 Co136 1.967 . S
O161 C169 1.258 . S
O162 Co137 1.941 . S
O162 C169 1.266 . S
H163 C165 0.959 . S
H164 C165 0.961 . S
C165 C155 1.510 . S
C165 H163 0.959 . S
C165 H164 0.961 . S
C165 H166 0.960 . S
H166 C165 0.960 . S
H167 N147 0.862 . S
O168 Co136 1.920 . S
O168 C141 1.289 . S
C169 O161 1.258 . S
C169 O162 1.266 . S
Co170 O173 1.970 . S
Co170 N187 1.989 . S
Co170 O195 1.967 . S
Co170 O202 1.920 . S
Co171 O174 1.966 . S
Co171 N180 2.022 . S
Co171 N188 1.993 . S
Co171 O196 1.941 . S
C172 O173 1.258 . S
C172 O174 1.263 . S
O173 Co170 1.970 . S
O173 C172 1.258 . S
O174 Co171 1.966 . S
O174 C172 1.263 . S
C175 O176 1.235 . S
C175 O202 1.289 . S
O176 C175 1.235 . S
C177 C179 1.400 1_556 S
C177 N180 1.351 . S
C177 C182 1.501 . S
C178 C179 1.387 . S
C178 N181 1.341 1_554 S
C179 C177 1.400 1_554 S
C179 C178 1.387 . S
N180 Co171 2.022 . S
N180 C177 1.351 . S
N180 N181 1.365 . S
N181 C178 1.341 1_556 S
N181 N180 1.365 . S
N181 H201 0.862 . S
C182 C177 1.501 . S
C182 H183 0.961 . S
C182 H184 0.961 . S
C182 H185 0.960 1_556 S
H183 C182 0.961 . S
H184 C182 0.961 . S
H185 C182 0.960 1_554 S
C186 N187 1.342 . S
C186 C190 1.401 . S
C186 C191 1.499 . S
N187 Co170 1.989 . S
N187 C186 1.342 . S
N187 N188 1.388 . S
N188 Co171 1.993 . S
N188 N187 1.388 . S
N188 C189 1.346 . S
C189 N188 1.346 . S
C189 C190 1.396 . S
C189 C199 1.510 . S
C190 C186 1.401 . S
C190 C189 1.396 . S
C191 C186 1.499 . S
C191 H192 0.959 . S
C191 H193 0.960 . S
C191 H194 0.961 . S
H192 C191 0.959 . S
H193 C191 0.960 . S
H194 C191 0.961 . S
O195 Co170 1.967 . S
O195 C203 1.258 . S
O196 Co171 1.941 . S
O196 C203 1.266 . S
H197 C199 0.959 . S
H198 C199 0.961 . S
C199 C189 1.510 . S
C199 H197 0.959 . S
C199 H198 0.961 . S
C199 H200 0.960 . S
H200 C199 0.960 . S
H201 N181 0.862 . S
O202 Co170 1.920 . S
O202 C175 1.289 . S
C203 O195 1.258 . S
C203 O196 1.266 . S
Co204 O207 1.970 . S
Co204 N221 1.989 . S
Co204 O229 1.967 . S
Co204 O236 1.920 . S
Co205 O208 1.966 . S
Co205 N214 2.022 . S
Co205 N222 1.993 . S
Co205 O230 1.941 . S
C206 O207 1.258 . S
C206 O208 1.263 . S
O207 Co204 1.970 . S
O207 C206 1.258 . S
O208 Co205 1.966 . S
O208 C206 1.263 . S
C209 O210 1.235 . S
C209 O236 1.289 . S
O210 C209 1.235 . S
C211 C213 1.400 1_556 S
C211 N214 1.351 . S
C211 C216 1.501 . S
C212 C213 1.387 . S
C212 N215 1.341 1_554 S
C213 C211 1.400 1_554 S
C213 C212 1.387 . S
N214 Co205 2.022 . S
N214 C211 1.351 . S
N214 N215 1.365 . S
N215 C212 1.341 1_556 S
N215 N214 1.365 . S
N215 H235 0.862 . S
C216 C211 1.501 . S
C216 H217 0.961 . S
C216 H218 0.961 . S
C216 H219 0.960 1_556 S
H217 C216 0.961 . S
H218 C216 0.961 . S
H219 C216 0.960 1_554 S
C220 N221 1.342 . S
C220 C224 1.401 . S
C220 C225 1.499 . S
N221 Co204 1.989 . S
N221 C220 1.342 . S
N221 N222 1.388 . S
N222 Co205 1.993 . S
N222 N221 1.388 . S
N222 C223 1.346 . S
C223 N222 1.346 . S
C223 C224 1.396 . S
C223 C233 1.510 . S
C224 C220 1.401 . S
C224 C223 1.396 . S
C225 C220 1.499 . S
C225 H226 0.959 . S
C225 H227 0.960 . S
C225 H228 0.961 . S
H226 C225 0.959 . S
H227 C225 0.960 . S
H228 C225 0.961 . S
O229 Co204 1.967 . S
O229 C237 1.258 . S
O230 Co205 1.941 . S
O230 C237 1.266 . S
H231 C233 0.959 . S
H232 C233 0.961 . S
C233 C223 1.510 . S
C233 H231 0.959 . S
C233 H232 0.961 . S
C233 H234 0.960 . S
H234 C233 0.960 . S
H235 N215 0.862 . S
O236 Co204 1.920 . S
O236 C209 1.289 . S
C237 O229 1.258 . S
C237 O230 1.266 . S
Co238 O241 1.970 . S
Co238 N255 1.989 . S
Co238 O263 1.967 . S
Co238 O270 1.920 . S
Co239 O242 1.966 . S
Co239 N248 2.022 . S
Co239 N256 1.993 . S
Co239 O264 1.941 . S
C240 O241 1.258 . S
C240 O242 1.263 . S
O241 Co238 1.970 . S
O241 C240 1.258 . S
O242 Co239 1.966 . S
O242 C240 1.263 . S
C243 O244 1.235 . S
C243 O270 1.289 . S
O244 C243 1.235 . S
C245 C247 1.400 1_556 S
C245 N248 1.351 . S
C245 C250 1.501 . S
C246 C247 1.387 . S
C246 N249 1.341 1_554 S
C247 C245 1.400 1_554 S
C247 C246 1.387 . S
N248 Co239 2.022 . S
N248 C245 1.351 . S
N248 N249 1.365 . S
N249 C246 1.341 1_556 S
N249 N248 1.365 . S
N249 H269 0.862 . S
C250 C245 1.501 . S
C250 H251 0.961 . S
C250 H252 0.961 . S
C250 H253 0.960 1_556 S
H251 C250 0.961 . S
H252 C250 0.961 . S
H253 C250 0.960 1_554 S
C254 N255 1.342 . S
C254 C258 1.401 . S
C254 C259 1.499 . S
N255 Co238 1.989 . S
N255 C254 1.342 . S
N255 N256 1.388 . S
N256 Co239 1.993 . S
N256 N255 1.388 . S
N256 C257 1.346 . S
C257 N256 1.346 . S
C257 C258 1.396 . S
C257 C267 1.510 . S
C258 C254 1.401 . S
C258 C257 1.396 . S
C259 C254 1.499 . S
C259 H260 0.959 . S
C259 H261 0.960 . S
C259 H262 0.961 . S
H260 C259 0.959 . S
H261 C259 0.960 . S
H262 C259 0.961 . S
O263 Co238 1.967 . S
O263 C271 1.258 . S
O264 Co239 1.941 . S
O264 C271 1.266 . S
H265 C267 0.959 . S
H266 C267 0.961 . S
C267 C257 1.510 . S
C267 H265 0.959 . S
C267 H266 0.961 . S
C267 H268 0.960 . S
H268 C267 0.960 . S
H269 N249 0.862 . S
O270 Co238 1.920 . S
O270 C243 1.289 . S
C271 O263 1.258 . S
C271 O264 1.266 . S
Co272 O275 1.970 . S
Co272 N289 1.989 . S
Co272 O297 1.967 . S
Co272 O304 1.920 . S
Co273 O276 1.966 . S
Co273 N282 2.022 . S
Co273 N290 1.993 . S
Co273 O298 1.941 . S
C274 O275 1.258 . S
C274 O276 1.263 . S
O275 Co272 1.970 . S
O275 C274 1.258 . S
O276 Co273 1.966 . S
O276 C274 1.263 . S
C277 O278 1.235 . S
C277 O304 1.289 . S
O278 C277 1.235 . S
C279 C281 1.400 1_556 S
C279 N282 1.351 . S
C279 C284 1.501 . S
C280 C281 1.387 . S
C280 N283 1.341 1_554 S
C281 C279 1.400 1_554 S
C281 C280 1.387 . S
N282 Co273 2.022 . S
N282 C279 1.351 . S
N282 N283 1.365 . S
N283 C280 1.341 1_556 S
N283 N282 1.365 . S
N283 H303 0.862 . S
C284 C279 1.501 . S
C284 H285 0.961 . S
C284 H286 0.961 . S
C284 H287 0.960 1_556 S
H285 C284 0.961 . S
H286 C284 0.961 . S
H287 C284 0.960 1_554 S
C288 N289 1.342 . S
C288 C292 1.401 . S
C288 C293 1.499 . S
N289 Co272 1.989 . S
N289 C288 1.342 . S
N289 N290 1.388 . S
N290 Co273 1.993 . S
N290 N289 1.388 . S
N290 C291 1.346 . S
C291 N290 1.346 . S
C291 C292 1.396 . S
C291 C301 1.510 . S
C292 C288 1.401 . S
C292 C291 1.396 . S
C293 C288 1.499 . S
C293 H294 0.959 . S
C293 H295 0.960 . S
C293 H296 0.961 . S
H294 C293 0.959 . S
H295 C293 0.960 . S
H296 C293 0.961 . S
O297 Co272 1.967 . S
O297 C305 1.258 . S
O298 Co273 1.941 . S
O298 C305 1.266 . S
H299 C301 0.959 . S
H300 C301 0.961 . S
C301 C291 1.510 . S
C301 H299 0.959 . S
C301 H300 0.961 . S
C301 H302 0.960 . S
H302 C301 0.960 . S
H303 N283 0.862 . S
O304 Co272 1.920 . S
O304 C277 1.289 . S
C305 O297 1.258 . S
C305 O298 1.266 . S
Co306 O309 1.970 . S
Co306 N323 1.989 . S
Co306 O331 1.967 . S
Co306 O338 1.920 . S
Co307 O310 1.966 . S
Co307 N316 2.022 . S
Co307 N324 1.993 . S
Co307 O332 1.941 . S
C308 O309 1.258 . S
C308 O310 1.263 . S
O309 Co306 1.970 . S
O309 C308 1.258 . S
O310 Co307 1.966 . S
O310 C308 1.263 . S
C311 O312 1.235 . S
C311 O338 1.289 . S
O312 C311 1.235 . S
C313 C315 1.400 1_554 S
C313 N316 1.351 . S
C313 C318 1.501 . S
C314 C315 1.387 . S
C314 N317 1.341 1_556 S
C315 C313 1.400 1_556 S
C315 C314 1.387 . S
N316 Co307 2.022 . S
N316 C313 1.351 . S
N316 N317 1.365 . S
N317 C314 1.341 1_554 S
N317 N316 1.365 . S
N317 H337 0.862 . S
C318 C313 1.501 . S
C318 H319 0.961 . S
C318 H320 0.961 . S
C318 H321 0.960 1_554 S
H319 C318 0.961 . S
H320 C318 0.961 . S
H321 C318 0.960 1_556 S
C322 N323 1.342 . S
C322 C326 1.401 . S
C322 C327 1.499 . S
N323 Co306 1.989 . S
N323 C322 1.342 . S
N323 N324 1.388 . S
N324 Co307 1.993 . S
N324 N323 1.388 . S
N324 C325 1.346 . S
C325 N324 1.346 . S
C325 C326 1.396 . S
C325 C335 1.510 . S
C326 C322 1.401 . S
C326 C325 1.396 . S
C327 C322 1.499 . S
C327 H328 0.959 . S
C327 H329 0.960 . S
C327 H330 0.961 . S
H328 C327 0.959 . S
H329 C327 0.960 . S
H330 C327 0.961 . S
O331 Co306 1.967 . S
O331 C339 1.258 . S
O332 Co307 1.941 . S
O332 C339 1.266 . S
H333 C335 0.959 . S
H334 C335 0.961 . S
C335 C325 1.510 . S
C335 H333 0.959 . S
C335 H334 0.961 . S
C335 H336 0.960 . S
H336 C335 0.960 . S
H337 N317 0.862 . S
O338 Co306 1.920 . S
O338 C311 1.289 . S
C339 O331 1.258 . S
C339 O332 1.266 . S
Co340 O343 1.970 . S
Co340 N357 1.989 . S
Co340 O365 1.967 . S
Co340 O372 1.920 . S
Co341 O344 1.966 . S
Co341 N350 2.022 . S
Co341 N358 1.993 . S
Co341 O366 1.941 . S
C342 O343 1.258 . S
C342 O344 1.263 . S
O343 Co340 1.970 . S
O343 C342 1.258 . S
O344 Co341 1.966 . S
O344 C342 1.263 . S
C345 O346 1.235 . S
C345 O372 1.289 . S
O346 C345 1.235 . S
C347 C349 1.400 1_554 S
C347 N350 1.351 . S
C347 C352 1.501 . S
C348 C349 1.387 . S
C348 N351 1.341 1_556 S
C349 C347 1.400 1_556 S
C349 C348 1.387 . S
N350 Co341 2.022 . S
N350 C347 1.351 . S
N350 N351 1.365 . S
N351 C348 1.341 1_554 S
N351 N350 1.365 . S
N351 H371 0.862 . S
C352 C347 1.501 . S
C352 H353 0.961 . S
C352 H354 0.961 . S
C352 H355 0.960 1_554 S
H353 C352 0.961 . S
H354 C352 0.961 . S
H355 C352 0.960 1_556 S
C356 N357 1.342 . S
C356 C360 1.401 . S
C356 C361 1.499 . S
N357 Co340 1.989 . S
N357 C356 1.342 . S
N357 N358 1.388 . S
N358 Co341 1.993 . S
N358 N357 1.388 . S
N358 C359 1.346 . S
C359 N358 1.346 . S
C359 C360 1.396 . S
C359 C369 1.510 . S
C360 C356 1.401 . S
C360 C359 1.396 . S
C361 C356 1.499 . S
C361 H362 0.959 . S
C361 H363 0.960 . S
C361 H364 0.961 . S
H362 C361 0.959 . S
H363 C361 0.960 . S
H364 C361 0.961 . S
O365 Co340 1.967 . S
O365 C373 1.258 . S
O366 Co341 1.941 . S
O366 C373 1.266 . S
H367 C369 0.959 . S
H368 C369 0.961 . S
C369 C359 1.510 . S
C369 H367 0.959 . S
C369 H368 0.961 . S
C369 H370 0.960 . S
H370 C369 0.960 . S
H371 N351 0.862 . S
O372 Co340 1.920 . S
O372 C345 1.289 . S
C373 O365 1.258 . S
C373 O366 1.266 . S
Co374 O377 1.970 . S
Co374 N391 1.989 . S
Co374 O399 1.967 . S
Co374 O406 1.920 . S
Co375 O378 1.966 . S
Co375 N384 2.022 . S
Co375 N392 1.993 . S
Co375 O400 1.941 . S
C376 O377 1.258 . S
C376 O378 1.263 . S
O377 Co374 1.970 . S
O377 C376 1.258 . S
O378 Co375 1.966 . S
O378 C376 1.263 . S
C379 O380 1.235 . S
C379 O406 1.289 . S
O380 C379 1.235 . S
C381 C383 1.400 1_554 S
C381 N384 1.351 . S
C381 C386 1.501 . S
C382 C383 1.387 . S
C382 N385 1.341 1_556 S
C383 C381 1.400 1_556 S
C383 C382 1.387 . S
N384 Co375 2.022 . S
N384 C381 1.351 . S
N384 N385 1.365 . S
N385 C382 1.341 1_554 S
N385 N384 1.365 . S
N385 H405 0.862 . S
C386 C381 1.501 . S
C386 H387 0.961 . S
C386 H388 0.961 . S
C386 H389 0.960 1_554 S
H387 C386 0.961 . S
H388 C386 0.961 . S
H389 C386 0.960 1_556 S
C390 N391 1.342 . S
C390 C394 1.401 . S
C390 C395 1.499 . S
N391 Co374 1.989 . S
N391 C390 1.342 . S
N391 N392 1.388 . S
N392 Co375 1.993 . S
N392 N391 1.388 . S
N392 C393 1.346 . S
C393 N392 1.346 . S
C393 C394 1.396 . S
C393 C403 1.510 . S
C394 C390 1.401 . S
C394 C393 1.396 . S
C395 C390 1.499 . S
C395 H396 0.959 . S
C395 H397 0.960 . S
C395 H398 0.961 . S
H396 C395 0.959 . S
H397 C395 0.960 . S
H398 C395 0.961 . S
O399 Co374 1.967 . S
O399 C407 1.258 . S
O400 Co375 1.941 . S
O400 C407 1.266 . S
H401 C403 0.959 . S
H402 C403 0.961 . S
C403 C393 1.510 . S
C403 H401 0.959 . S
C403 H402 0.961 . S
C403 H404 0.960 . S
H404 C403 0.960 . S
H405 N385 0.862 . S
O406 Co374 1.920 . S
O406 C379 1.289 . S
C407 O399 1.258 . S
C407 O400 1.266 . S
Co408 O411 1.970 . S
Co408 N425 1.989 . S
Co408 O433 1.967 . S
Co408 O440 1.920 . S
Co409 O412 1.966 . S
Co409 N418 2.022 . S
Co409 N426 1.993 . S
Co409 O434 1.941 . S
C410 O411 1.258 . S
C410 O412 1.263 . S
O411 Co408 1.970 . S
O411 C410 1.258 . S
O412 Co409 1.966 . S
O412 C410 1.263 . S
C413 O414 1.235 . S
C413 O440 1.289 . S
O414 C413 1.235 . S
C415 C417 1.400 . S
C415 N418 1.351 . S
C415 C420 1.501 . S
C416 C417 1.387 . S
C416 N419 1.341 . S
C417 C415 1.400 . S
C417 C416 1.387 . S
N418 Co409 2.022 . S
N418 C415 1.351 . S
N418 N419 1.365 . S
N419 C416 1.341 . S
N419 N418 1.365 . S
N419 H439 0.862 . S
C420 C415 1.501 . S
C420 H421 0.961 . S
C420 H422 0.961 . S
C420 H423 0.960 . S
H421 C420 0.961 . S
H422 C420 0.961 . S
H423 C420 0.960 . S
C424 N425 1.342 . S
C424 C428 1.401 . S
C424 C429 1.499 . S
N425 Co408 1.989 . S
N425 C424 1.342 . S
N425 N426 1.388 . S
N426 Co409 1.993 . S
N426 N425 1.388 . S
N426 C427 1.346 . S
C427 N426 1.346 . S
C427 C428 1.396 . S
C427 C437 1.510 . S
C428 C424 1.401 . S
C428 C427 1.396 . S
C429 C424 1.499 . S
C429 H430 0.959 . S
C429 H431 0.960 . S
C429 H432 0.961 . S
H430 C429 0.959 . S
H431 C429 0.960 . S
H432 C429 0.961 . S
O433 Co408 1.967 . S
O433 C441 1.258 . S
O434 Co409 1.941 . S
O434 C441 1.266 . S
H435 C437 0.959 . S
H436 C437 0.961 . S
C437 C427 1.510 . S
C437 H435 0.959 . S
C437 H436 0.961 . S
C437 H438 0.960 . S
H438 C437 0.960 . S
H439 N419 0.862 . S
O440 Co408 1.920 . S
O440 C413 1.289 . S
C441 O433 1.258 . S
C441 O434 1.266 . S
Co442 O445 1.970 . S
Co442 N459 1.989 . S
Co442 O467 1.967 . S
Co442 O474 1.920 . S
Co443 O446 1.966 . S
Co443 N452 2.022 . S
Co443 N460 1.993 . S
Co443 O468 1.941 . S
C444 O445 1.258 . S
C444 O446 1.263 . S
O445 Co442 1.970 . S
O445 C444 1.258 . S
O446 Co443 1.966 . S
O446 C444 1.263 . S
C447 O448 1.235 . S
C447 O474 1.289 . S
O448 C447 1.235 . S
C449 C451 1.400 . S
C449 N452 1.351 . S
C449 C454 1.501 . S
C450 C451 1.387 . S
C450 N453 1.341 . S
C451 C449 1.400 . S
C451 C450 1.387 . S
N452 Co443 2.022 . S
N452 C449 1.351 . S
N452 N453 1.365 . S
N453 C450 1.341 . S
N453 N452 1.365 . S
N453 H473 0.862 . S
C454 C449 1.501 . S
C454 H455 0.961 . S
C454 H456 0.961 . S
C454 H457 0.960 . S
H455 C454 0.961 . S
H456 C454 0.961 . S
H457 C454 0.960 . S
C458 N459 1.342 . S
C458 C462 1.401 . S
C458 C463 1.499 . S
N459 Co442 1.989 . S
N459 C458 1.342 . S
N459 N460 1.388 . S
N460 Co443 1.993 . S
N460 N459 1.388 . S
N460 C461 1.346 . S
C461 N460 1.346 . S
C461 C462 1.396 . S
C461 C471 1.510 . S
C462 C458 1.401 . S
C462 C461 1.396 . S
C463 C458 1.499 . S
C463 H464 0.959 . S
C463 H465 0.960 . S
C463 H466 0.961 . S
H464 C463 0.959 . S
H465 C463 0.960 . S
H466 C463 0.961 . S
O467 Co442 1.967 . S
O467 C475 1.258 . S
O468 Co443 1.941 . S
O468 C475 1.266 . S
H469 C471 0.959 . S
H470 C471 0.961 . S
C471 C461 1.510 . S
C471 H469 0.959 . S
C471 H470 0.961 . S
C471 H472 0.960 . S
H472 C471 0.960 . S
H473 N453 0.862 . S
O474 Co442 1.920 . S
O474 C447 1.289 . S
C475 O467 1.258 . S
C475 O468 1.266 . S
Co476 O479 1.970 . S
Co476 N493 1.989 . S
Co476 O501 1.967 . S
Co476 O508 1.920 . S
Co477 O480 1.966 . S
Co477 N486 2.022 . S
Co477 N494 1.993 . S
Co477 O502 1.941 . S
C478 O479 1.258 . S
C478 O480 1.263 . S
O479 Co476 1.970 . S
O479 C478 1.258 . S
O480 Co477 1.966 . S
O480 C478 1.263 . S
C481 O482 1.235 . S
C481 O508 1.289 . S
O482 C481 1.235 . S
C483 C485 1.400 . S
C483 N486 1.351 . S
C483 C488 1.501 . S
C484 C485 1.387 . S
C484 N487 1.341 . S
C485 C483 1.400 . S
C485 C484 1.387 . S
N486 Co477 2.022 . S
N486 C483 1.351 . S
N486 N487 1.365 . S
N487 C484 1.341 . S
N487 N486 1.365 . S
N487 H507 0.862 . S
C488 C483 1.501 . S
C488 H489 0.961 . S
C488 H490 0.961 . S
C488 H491 0.960 . S
H489 C488 0.961 . S
H490 C488 0.961 . S
H491 C488 0.960 . S
C492 N493 1.342 . S
C492 C496 1.401 . S
C492 C497 1.499 . S
N493 Co476 1.989 . S
N493 C492 1.342 . S
N493 N494 1.388 . S
N494 Co477 1.993 . S
N494 N493 1.388 . S
N494 C495 1.346 . S
C495 N494 1.346 . S
C495 C496 1.396 . S
C495 C505 1.510 . S
C496 C492 1.401 . S
C496 C495 1.396 . S
C497 C492 1.499 . S
C497 H498 0.959 . S
C497 H499 0.960 . S
C497 H500 0.961 . S
H498 C497 0.959 . S
H499 C497 0.960 . S
H500 C497 0.961 . S
O501 Co476 1.967 . S
O501 C509 1.258 . S
O502 Co477 1.941 . S
O502 C509 1.266 . S
H503 C505 0.959 . S
H504 C505 0.961 . S
C505 C495 1.510 . S
C505 H503 0.959 . S
C505 H504 0.961 . S
C505 H506 0.960 . S
H506 C505 0.960 . S
H507 N487 0.862 . S
O508 Co476 1.920 . S
O508 C481 1.289 . S
C509 O501 1.258 . S
C509 O502 1.266 . S
Co510 O513 1.970 . S
Co510 N527 1.989 . S
Co510 O535 1.967 . S
Co510 O542 1.920 1_554 S
Co511 O514 1.966 . S
Co511 N520 2.022 . S
Co511 N528 1.993 . S
Co511 O536 1.941 . S
C512 O513 1.258 . S
C512 O514 1.263 . S
O513 Co510 1.970 . S
O513 C512 1.258 . S
O514 Co511 1.966 . S
O514 C512 1.263 . S
C515 O516 1.235 . S
C515 O542 1.289 . S
O516 C515 1.235 . S
C517 C519 1.400 . S
C517 N520 1.351 . S
C517 C522 1.501 . S
C518 C519 1.387 . S
C518 N521 1.341 . S
C519 C517 1.400 . S
C519 C518 1.387 . S
N520 Co511 2.022 . S
N520 C517 1.351 . S
N520 N521 1.365 . S
N521 C518 1.341 . S
N521 N520 1.365 . S
N521 H541 0.862 . S
C522 C517 1.501 . S
C522 H523 0.961 . S
C522 H524 0.961 . S
C522 H525 0.960 . S
H523 C522 0.961 . S
H524 C522 0.961 . S
H525 C522 0.960 . S
C526 N527 1.342 . S
C526 C530 1.401 . S
C526 C531 1.499 1_554 S
N527 Co510 1.989 . S
N527 C526 1.342 . S
N527 N528 1.388 . S
N528 Co511 1.993 . S
N528 N527 1.388 . S
N528 C529 1.346 . S
C529 N528 1.346 . S
C529 C530 1.396 . S
C529 C539 1.510 . S
C530 C526 1.401 . S
C530 C529 1.396 . S
C531 C526 1.499 1_556 S
C531 H532 0.959 . S
C531 H533 0.960 . S
C531 H534 0.961 . S
H532 C531 0.959 . S
H533 C531 0.960 . S
H534 C531 0.961 . S
O535 Co510 1.967 . S
O535 C543 1.258 . S
O536 Co511 1.941 . S
O536 C543 1.266 . S
H537 C539 0.959 . S
H538 C539 0.961 . S
C539 C529 1.510 . S
C539 H537 0.959 . S
C539 H538 0.961 . S
C539 H540 0.960 . S
H540 C539 0.960 . S
H541 N521 0.862 . S
O542 Co510 1.920 1_556 S
O542 C515 1.289 . S
C543 O535 1.258 . S
C543 O536 1.266 . S
Co544 O547 1.970 . S
Co544 N561 1.989 . S
Co544 O569 1.967 . S
Co544 O576 1.920 1_554 S
Co545 O548 1.966 . S
Co545 N554 2.022 . S
Co545 N562 1.993 . S
Co545 O570 1.941 . S
C546 O547 1.258 . S
C546 O548 1.263 . S
O547 Co544 1.970 . S
O547 C546 1.258 . S
O548 Co545 1.966 . S
O548 C546 1.263 . S
C549 O550 1.235 . S
C549 O576 1.289 . S
O550 C549 1.235 . S
C551 C553 1.400 . S
C551 N554 1.351 . S
C551 C556 1.501 . S
C552 C553 1.387 . S
C552 N555 1.341 . S
C553 C551 1.400 . S
C553 C552 1.387 . S
N554 Co545 2.022 . S
N554 C551 1.351 . S
N554 N555 1.365 . S
N555 C552 1.341 . S
N555 N554 1.365 . S
N555 H575 0.862 . S
C556 C551 1.501 . S
C556 H557 0.961 . S
C556 H558 0.961 . S
C556 H559 0.960 . S
H557 C556 0.961 . S
H558 C556 0.961 . S
H559 C556 0.960 . S
C560 N561 1.342 . S
C560 C564 1.401 . S
C560 C565 1.499 1_554 S
N561 Co544 1.989 . S
N561 C560 1.342 . S
N561 N562 1.388 . S
N562 Co545 1.993 . S
N562 N561 1.388 . S
N562 C563 1.346 . S
C563 N562 1.346 . S
C563 C564 1.396 . S
C563 C573 1.510 . S
C564 C560 1.401 . S
C564 C563 1.396 . S
C565 C560 1.499 1_556 S
C565 H566 0.959 . S
C565 H567 0.960 . S
C565 H568 0.961 . S
H566 C565 0.959 . S
H567 C565 0.960 . S
H568 C565 0.961 . S
O569 Co544 1.967 . S
O569 C577 1.258 . S
O570 Co545 1.941 . S
O570 C577 1.266 . S
H571 C573 0.959 . S
H572 C573 0.961 . S
C573 C563 1.510 . S
C573 H571 0.959 . S
C573 H572 0.961 . S
C573 H574 0.960 . S
H574 C573 0.960 . S
H575 N555 0.862 . S
O576 Co544 1.920 1_556 S
O576 C549 1.289 . S
C577 O569 1.258 . S
C577 O570 1.266 . S
Co578 O581 1.970 . S
Co578 N595 1.989 . S
Co578 O603 1.967 . S
Co578 O610 1.920 1_554 S
Co579 O582 1.966 . S
Co579 N588 2.022 . S
Co579 N596 1.993 . S
Co579 O604 1.941 . S
C580 O581 1.258 . S
C580 O582 1.263 . S
O581 Co578 1.970 . S
O581 C580 1.258 . S
O582 Co579 1.966 . S
O582 C580 1.263 . S
C583 O584 1.235 . S
C583 O610 1.289 . S
O584 C583 1.235 . S
C585 C587 1.400 . S
C585 N588 1.351 . S
C585 C590 1.501 . S
C586 C587 1.387 . S
C586 N589 1.341 . S
C587 C585 1.400 . S
C587 C586 1.387 . S
N588 Co579 2.022 . S
N588 C585 1.351 . S
N588 N589 1.365 . S
N589 C586 1.341 . S
N589 N588 1.365 . S
N589 H609 0.862 . S
C590 C585 1.501 . S
C590 H591 0.961 . S
C590 H592 0.961 . S
C590 H593 0.960 . S
H591 C590 0.961 . S
H592 C590 0.961 . S
H593 C590 0.960 . S
C594 N595 1.342 . S
C594 C598 1.401 . S
C594 C599 1.499 1_554 S
N595 Co578 1.989 . S
N595 C594 1.342 . S
N595 N596 1.388 . S
N596 Co579 1.993 . S
N596 N595 1.388 . S
N596 C597 1.346 . S
C597 N596 1.346 . S
C597 C598 1.396 . S
C597 C607 1.510 . S
C598 C594 1.401 . S
C598 C597 1.396 . S
C599 C594 1.499 1_556 S
C599 H600 0.959 . S
C599 H601 0.960 . S
C599 H602 0.961 . S
H600 C599 0.959 . S
H601 C599 0.960 . S
H602 C599 0.961 . S
O603 Co578 1.967 . S
O603 C611 1.258 . S
O604 Co579 1.941 . S
O604 C611 1.266 . S
H605 C607 0.959 . S
H606 C607 0.961 . S
C607 C597 1.510 . S
C607 H605 0.959 . S
C607 H606 0.961 . S
C607 H608 0.960 . S
H608 C607 0.960 . S
H609 N589 0.862 . S
O610 Co578 1.920 1_556 S
O610 C583 1.289 . S
C611 O603 1.258 . S
C611 O604 1.266 . S
Co612 O615 1.970 . S
Co612 N629 1.989 . S
Co612 O637 1.967 . S
Co612 O644 1.920 1_554 S
Co613 O616 1.966 . S
Co613 N622 2.022 . S
Co613 N630 1.993 . S
Co613 O638 1.941 . S
C614 O615 1.258 . S
C614 O616 1.263 . S
O615 Co612 1.970 . S
O615 C614 1.258 . S
O616 Co613 1.966 . S
O616 C614 1.263 . S
C617 O618 1.235 . S
C617 O644 1.289 . S
O618 C617 1.235 . S
C619 C621 1.400 . S
C619 N622 1.351 . S
C619 C624 1.501 . S
C620 C621 1.387 . S
C620 N623 1.341 . S
C621 C619 1.400 . S
C621 C620 1.387 . S
N622 Co613 2.022 . S
N622 C619 1.351 . S
N622 N623 1.365 . S
N623 C620 1.341 . S
N623 N622 1.365 . S
N623 H643 0.862 . S
C624 C619 1.501 . S
C624 H625 0.961 . S
C624 H626 0.961 . S
C624 H627 0.960 . S
H625 C624 0.961 . S
H626 C624 0.961 . S
H627 C624 0.960 . S
C628 N629 1.342 . S
C628 C632 1.401 . S
C628 C633 1.499 1_554 S
N629 Co612 1.989 . S
N629 C628 1.342 . S
N629 N630 1.388 . S
N630 Co613 1.993 . S
N630 N629 1.388 . S
N630 C631 1.346 . S
C631 N630 1.346 . S
C631 C632 1.396 . S
C631 C641 1.510 . S
C632 C628 1.401 . S
C632 C631 1.396 . S
C633 C628 1.499 1_556 S
C633 H634 0.959 . S
C633 H635 0.960 . S
C633 H636 0.961 . S
H634 C633 0.959 . S
H635 C633 0.960 . S
H636 C633 0.961 . S
O637 Co612 1.967 . S
O637 C645 1.258 . S
O638 Co613 1.941 . S
O638 C645 1.266 . S
H639 C641 0.959 . S
H640 C641 0.961 . S
C641 C631 1.510 . S
C641 H639 0.959 . S
C641 H640 0.961 . S
C641 H642 0.960 . S
H642 C641 0.960 . S
H643 N623 0.862 . S
O644 Co612 1.920 1_556 S
O644 C617 1.289 . S
C645 O637 1.258 . S
C645 O638 1.266 . S
Co646 O649 1.970 . S
Co646 N663 1.989 . S
Co646 O671 1.967 . S
Co646 O678 1.920 1_554 S
Co647 O650 1.966 . S
Co647 N656 2.022 . S
Co647 N664 1.993 . S
Co647 O672 1.941 . S
C648 O649 1.258 . S
C648 O650 1.263 . S
O649 Co646 1.970 . S
O649 C648 1.258 . S
O650 Co647 1.966 . S
O650 C648 1.263 . S
C651 O652 1.235 . S
C651 O678 1.289 . S
O652 C651 1.235 . S
C653 C655 1.400 . S
C653 N656 1.351 . S
C653 C658 1.501 . S
C654 C655 1.387 . S
C654 N657 1.341 . S
C655 C653 1.400 . S
C655 C654 1.387 . S
N656 Co647 2.022 . S
N656 C653 1.351 . S
N656 N657 1.365 . S
N657 C654 1.341 . S
N657 N656 1.365 . S
N657 H677 0.862 . S
C658 C653 1.501 . S
C658 H659 0.961 . S
C658 H660 0.961 . S
C658 H661 0.960 . S
H659 C658 0.961 . S
H660 C658 0.961 . S
H661 C658 0.960 . S
C662 N663 1.342 . S
C662 C666 1.401 . S
C662 C667 1.499 1_554 S
N663 Co646 1.989 . S
N663 C662 1.342 . S
N663 N664 1.388 . S
N664 Co647 1.993 . S
N664 N663 1.388 . S
N664 C665 1.346 . S
C665 N664 1.346 . S
C665 C666 1.396 . S
C665 C675 1.510 . S
C666 C662 1.401 . S
C666 C665 1.396 . S
C667 C662 1.499 1_556 S
C667 H668 0.959 . S
C667 H669 0.960 . S
C667 H670 0.961 . S
H668 C667 0.959 . S
H669 C667 0.960 . S
H670 C667 0.961 . S
O671 Co646 1.967 . S
O671 C679 1.258 . S
O672 Co647 1.941 . S
O672 C679 1.266 . S
H673 C675 0.959 . S
H674 C675 0.961 . S
C675 C665 1.510 . S
C675 H673 0.959 . S
C675 H674 0.961 . S
C675 H676 0.960 . S
H676 C675 0.960 . S
H677 N657 0.862 . S
O678 Co646 1.920 1_556 S
O678 C651 1.289 . S
C679 O671 1.258 . S
C679 O672 1.266 . S
Co680 O683 1.970 . S
Co680 N697 1.989 . S
Co680 O705 1.967 . S
Co680 O712 1.920 1_554 S
Co681 O684 1.966 . S
Co681 N690 2.022 . S
Co681 N698 1.993 . S
Co681 O706 1.941 . S
C682 O683 1.258 . S
C682 O684 1.263 . S
O683 Co680 1.970 . S
O683 C682 1.258 . S
O684 Co681 1.966 . S
O684 C682 1.263 . S
C685 O686 1.235 . S
C685 O712 1.289 . S
O686 C685 1.235 . S
C687 C689 1.400 . S
C687 N690 1.351 . S
C687 C692 1.501 . S
C688 C689 1.387 . S
C688 N691 1.341 . S
C689 C687 1.400 . S
C689 C688 1.387 . S
N690 Co681 2.022 . S
N690 C687 1.351 . S
N690 N691 1.365 . S
N691 C688 1.341 . S
N691 N690 1.365 . S
N691 H711 0.862 . S
C692 C687 1.501 . S
C692 H693 0.961 . S
C692 H694 0.961 . S
C692 H695 0.960 . S
H693 C692 0.961 . S
H694 C692 0.961 . S
H695 C692 0.960 . S
C696 N697 1.342 . S
C696 C700 1.401 . S
C696 C701 1.499 1_554 S
N697 Co680 1.989 . S
N697 C696 1.342 . S
N697 N698 1.388 . S
N698 Co681 1.993 . S
N698 N697 1.388 . S
N698 C699 1.346 . S
C699 N698 1.346 . S
C699 C700 1.396 . S
C699 C709 1.510 . S
C700 C696 1.401 . S
C700 C699 1.396 . S
C701 C696 1.499 1_556 S
C701 H702 0.959 . S
C701 H703 0.960 . S
C701 H704 0.961 . S
H702 C701 0.959 . S
H703 C701 0.960 . S
H704 C701 0.961 . S
O705 Co680 1.967 . S
O705 C713 1.258 . S
O706 Co681 1.941 . S
O706 C713 1.266 . S
H707 C709 0.959 . S
H708 C709 0.961 . S
C709 C699 1.510 . S
C709 H707 0.959 . S
C709 H708 0.961 . S
C709 H710 0.960 . S
H710 C709 0.960 . S
H711 N691 0.862 . S
O712 Co680 1.920 1_556 S
O712 C685 1.289 . S
C713 O705 1.258 . S
C713 O706 1.266 . S
Co714 O717 1.970 . S
Co714 N731 1.989 . S
Co714 O739 1.967 . S
Co714 O746 1.920 . S
Co715 O718 1.966 . S
Co715 N724 2.022 . S
Co715 N732 1.993 . S
Co715 O740 1.941 . S
C716 O717 1.258 . S
C716 O718 1.263 . S
O717 Co714 1.970 . S
O717 C716 1.258 . S
O718 Co715 1.966 . S
O718 C716 1.263 . S
C719 O720 1.235 . S
C719 O746 1.289 . S
O720 C719 1.235 . S
C721 C723 1.400 . S
C721 N724 1.351 . S
C721 C726 1.501 . S
C722 C723 1.387 . S
C722 N725 1.341 . S
C723 C721 1.400 . S
C723 C722 1.387 . S
N724 Co715 2.022 . S
N724 C721 1.351 . S
N724 N725 1.365 . S
N725 C722 1.341 . S
N725 N724 1.365 . S
N725 H745 0.862 . S
C726 C721 1.501 . S
C726 H727 0.961 . S
C726 H728 0.961 . S
C726 H729 0.960 . S
H727 C726 0.961 . S
H728 C726 0.961 . S
H729 C726 0.960 . S
C730 N731 1.342 . S
C730 C734 1.401 . S
C730 C735 1.499 . S
N731 Co714 1.989 . S
N731 C730 1.342 . S
N731 N732 1.388 . S
N732 Co715 1.993 . S
N732 N731 1.388 . S
N732 C733 1.346 . S
C733 N732 1.346 . S
C733 C734 1.396 . S
C733 C743 1.510 . S
C734 C730 1.401 . S
C734 C733 1.396 . S
C735 C730 1.499 . S
C735 H736 0.959 . S
C735 H737 0.960 . S
C735 H738 0.961 . S
H736 C735 0.959 . S
H737 C735 0.960 . S
H738 C735 0.961 . S
O739 Co714 1.967 . S
O739 C747 1.258 . S
O740 Co715 1.941 . S
O740 C747 1.266 . S
H741 C743 0.959 . S
H742 C743 0.961 . S
C743 C733 1.510 . S
C743 H741 0.959 . S
C743 H742 0.961 . S
C743 H744 0.960 . S
H744 C743 0.960 . S
H745 N725 0.862 . S
O746 Co714 1.920 . S
O746 C719 1.289 . S
C747 O739 1.258 . S
C747 O740 1.266 . S
Co748 O751 1.970 . S
Co748 N765 1.989 . S
Co748 O773 1.967 . S
Co748 O780 1.920 . S
Co749 O752 1.966 . S
Co749 N758 2.022 . S
Co749 N766 1.993 . S
Co749 O774 1.941 . S
C750 O751 1.258 . S
C750 O752 1.263 . S
O751 Co748 1.970 . S
O751 C750 1.258 . S
O752 Co749 1.966 . S
O752 C750 1.263 . S
C753 O754 1.235 . S
C753 O780 1.289 . S
O754 C753 1.235 . S
C755 C757 1.400 . S
C755 N758 1.351 . S
C755 C760 1.501 . S
C756 C757 1.387 . S
C756 N759 1.341 . S
C757 C755 1.400 . S
C757 C756 1.387 . S
N758 Co749 2.022 . S
N758 C755 1.351 . S
N758 N759 1.365 . S
N759 C756 1.341 . S
N759 N758 1.365 . S
N759 H779 0.862 . S
C760 C755 1.501 . S
C760 H761 0.961 . S
C760 H762 0.961 . S
C760 H763 0.960 . S
H761 C760 0.961 . S
H762 C760 0.961 . S
H763 C760 0.960 . S
C764 N765 1.342 . S
C764 C768 1.401 . S
C764 C769 1.499 . S
N765 Co748 1.989 . S
N765 C764 1.342 . S
N765 N766 1.388 . S
N766 Co749 1.993 . S
N766 N765 1.388 . S
N766 C767 1.346 . S
C767 N766 1.346 . S
C767 C768 1.396 . S
C767 C777 1.510 . S
C768 C764 1.401 . S
C768 C767 1.396 . S
C769 C764 1.499 . S
C769 H770 0.959 . S
C769 H771 0.960 . S
C769 H772 0.961 . S
H770 C769 0.959 . S
H771 C769 0.960 . S
H772 C769 0.961 . S
O773 Co748 1.967 . S
O773 C781 1.258 . S
O774 Co749 1.941 . S
O774 C781 1.266 . S
H775 C777 0.959 . S
H776 C777 0.961 . S
C777 C767 1.510 . S
C777 H775 0.959 . S
C777 H776 0.961 . S
C777 H778 0.960 . S
H778 C777 0.960 . S
H779 N759 0.862 . S
O780 Co748 1.920 . S
O780 C753 1.289 . S
C781 O773 1.258 . S
C781 O774 1.266 . S
Co782 O785 1.970 . S
Co782 N799 1.989 . S
Co782 O807 1.967 . S
Co782 O814 1.920 . S
Co783 O786 1.966 . S
Co783 N792 2.022 . S
Co783 N800 1.993 . S
Co783 O808 1.941 . S
C784 O785 1.258 . S
C784 O786 1.263 . S
O785 Co782 1.970 . S
O785 C784 1.258 . S
O786 Co783 1.966 . S
O786 C784 1.263 . S
C787 O788 1.235 . S
C787 O814 1.289 . S
O788 C787 1.235 . S
C789 C791 1.400 . S
C789 N792 1.351 . S
C789 C794 1.501 . S
C790 C791 1.387 . S
C790 N793 1.341 . S
C791 C789 1.400 . S
C791 C790 1.387 . S
N792 Co783 2.022 . S
N792 C789 1.351 . S
N792 N793 1.365 . S
N793 C790 1.341 . S
N793 N792 1.365 . S
N793 H813 0.862 . S
C794 C789 1.501 . S
C794 H795 0.961 . S
C794 H796 0.961 . S
C794 H797 0.960 . S
H795 C794 0.961 . S
H796 C794 0.961 . S
H797 C794 0.960 . S
C798 N799 1.342 . S
C798 C802 1.401 . S
C798 C803 1.499 . S
N799 Co782 1.989 . S
N799 C798 1.342 . S
N799 N800 1.388 . S
N800 Co783 1.993 . S
N800 N799 1.388 . S
N800 C801 1.346 . S
C801 N800 1.346 . S
C801 C802 1.396 . S
C801 C811 1.510 . S
C802 C798 1.401 . S
C802 C801 1.396 . S
C803 C798 1.499 . S
C803 H804 0.959 . S
C803 H805 0.960 . S
C803 H806 0.961 . S
H804 C803 0.959 . S
H805 C803 0.960 . S
H806 C803 0.961 . S
O807 Co782 1.967 . S
O807 C815 1.258 . S
O808 Co783 1.941 . S
O808 C815 1.266 . S
H809 C811 0.959 . S
H810 C811 0.961 . S
C811 C801 1.510 . S
C811 H809 0.959 . S
C811 H810 0.961 . S
C811 H812 0.960 . S
H812 C811 0.960 . S
H813 N793 0.862 . S
O814 Co782 1.920 . S
O814 C787 1.289 . S
C815 O807 1.258 . S
C815 O808 1.266 . S
Co816 O819 1.970 . S
Co816 N833 1.989 . S
Co816 O841 1.967 . S
Co816 O848 1.920 1_556 S
Co817 O820 1.966 . S
Co817 N826 2.022 . S
Co817 N834 1.993 . S
Co817 O842 1.941 . S
C818 O819 1.258 . S
C818 O820 1.263 . S
O819 Co816 1.970 . S
O819 C818 1.258 . S
O820 Co817 1.966 . S
O820 C818 1.263 . S
C821 O822 1.235 . S
C821 O848 1.289 . S
O822 C821 1.235 . S
C823 C825 1.400 . S
C823 N826 1.351 . S
C823 C828 1.501 . S
C824 C825 1.387 . S
C824 N827 1.341 . S
C825 C823 1.400 . S
C825 C824 1.387 . S
N826 Co817 2.022 . S
N826 C823 1.351 . S
N826 N827 1.365 . S
N827 C824 1.341 . S
N827 N826 1.365 . S
N827 H847 0.862 . S
C828 C823 1.501 . S
C828 H829 0.961 . S
C828 H830 0.961 . S
C828 H831 0.960 . S
H829 C828 0.961 . S
H830 C828 0.961 . S
H831 C828 0.960 . S
C832 N833 1.342 . S
C832 C836 1.401 . S
C832 C837 1.499 1_556 S
N833 Co816 1.989 . S
N833 C832 1.342 . S
N833 N834 1.388 . S
N834 Co817 1.993 . S
N834 N833 1.388 . S
N834 C835 1.346 . S
C835 N834 1.346 . S
C835 C836 1.396 . S
C835 C845 1.510 . S
C836 C832 1.401 . S
C836 C835 1.396 . S
C837 C832 1.499 1_554 S
C837 H838 0.959 . S
C837 H839 0.960 . S
C837 H840 0.961 . S
H838 C837 0.959 . S
H839 C837 0.960 . S
H840 C837 0.961 . S
O841 Co816 1.967 . S
O841 C849 1.258 . S
O842 Co817 1.941 . S
O842 C849 1.266 . S
H843 C845 0.959 . S
H844 C845 0.961 . S
C845 C835 1.510 . S
C845 H843 0.959 . S
C845 H844 0.961 . S
C845 H846 0.960 . S
H846 C845 0.960 . S
H847 N827 0.862 . S
O848 Co816 1.920 1_554 S
O848 C821 1.289 . S
C849 O841 1.258 . S
C849 O842 1.266 . S
Co850 O853 1.970 . S
Co850 N867 1.989 . S
Co850 O875 1.967 . S
Co850 O882 1.920 1_556 S
Co851 O854 1.966 . S
Co851 N860 2.022 . S
Co851 N868 1.993 . S
Co851 O876 1.941 . S
C852 O853 1.258 . S
C852 O854 1.263 . S
O853 Co850 1.970 . S
O853 C852 1.258 . S
O854 Co851 1.966 . S
O854 C852 1.263 . S
C855 O856 1.235 . S
C855 O882 1.289 . S
O856 C855 1.235 . S
C857 C859 1.400 . S
C857 N860 1.351 . S
C857 C862 1.501 . S
C858 C859 1.387 . S
C858 N861 1.341 . S
C859 C857 1.400 . S
C859 C858 1.387 . S
N860 Co851 2.022 . S
N860 C857 1.351 . S
N860 N861 1.365 . S
N861 C858 1.341 . S
N861 N860 1.365 . S
N861 H881 0.862 . S
C862 C857 1.501 . S
C862 H863 0.961 . S
C862 H864 0.961 . S
C862 H865 0.960 . S
H863 C862 0.961 . S
H864 C862 0.961 . S
H865 C862 0.960 . S
C866 N867 1.342 . S
C866 C870 1.401 . S
C866 C871 1.499 1_556 S
N867 Co850 1.989 . S
N867 C866 1.342 . S
N867 N868 1.388 . S
N868 Co851 1.993 . S
N868 N867 1.388 . S
N868 C869 1.346 . S
C869 N868 1.346 . S
C869 C870 1.396 . S
C869 C879 1.510 . S
C870 C866 1.401 . S
C870 C869 1.396 . S
C871 C866 1.499 1_554 S
C871 H872 0.959 . S
C871 H873 0.960 . S
C871 H874 0.961 . S
H872 C871 0.959 . S
H873 C871 0.960 . S
H874 C871 0.961 . S
O875 Co850 1.967 . S
O875 C883 1.258 . S
O876 Co851 1.941 . S
O876 C883 1.266 . S
H877 C879 0.959 . S
H878 C879 0.961 . S
C879 C869 1.510 . S
C879 H877 0.959 . S
C879 H878 0.961 . S
C879 H880 0.960 . S
H880 C879 0.960 . S
H881 N861 0.862 . S
O882 Co850 1.920 1_554 S
O882 C855 1.289 . S
C883 O875 1.258 . S
C883 O876 1.266 . S
Co884 O887 1.970 . S
Co884 N901 1.989 . S
Co884 O909 1.967 . S
Co884 O916 1.920 1_556 S
Co885 O888 1.966 . S
Co885 N894 2.022 . S
Co885 N902 1.993 . S
Co885 O910 1.941 . S
C886 O887 1.258 . S
C886 O888 1.263 . S
O887 Co884 1.970 . S
O887 C886 1.258 . S
O888 Co885 1.966 . S
O888 C886 1.263 . S
C889 O890 1.235 . S
C889 O916 1.289 . S
O890 C889 1.235 . S
C891 C893 1.400 . S
C891 N894 1.351 . S
C891 C896 1.501 . S
C892 C893 1.387 . S
C892 N895 1.341 . S
C893 C891 1.400 . S
C893 C892 1.387 . S
N894 Co885 2.022 . S
N894 C891 1.351 . S
N894 N895 1.365 . S
N895 C892 1.341 . S
N895 N894 1.365 . S
N895 H915 0.862 . S
C896 C891 1.501 . S
C896 H897 0.961 . S
C896 H898 0.961 . S
C896 H899 0.960 . S
H897 C896 0.961 . S
H898 C896 0.961 . S
H899 C896 0.960 . S
C900 N901 1.342 . S
C900 C904 1.401 . S
C900 C905 1.499 1_556 S
N901 Co884 1.989 . S
N901 C900 1.342 . S
N901 N902 1.388 . S
N902 Co885 1.993 . S
N902 N901 1.388 . S
N902 C903 1.346 . S
C903 N902 1.346 . S
C903 C904 1.396 . S
C903 C913 1.510 . S
C904 C900 1.401 . S
C904 C903 1.396 . S
C905 C900 1.499 1_554 S
C905 H906 0.959 . S
C905 H907 0.960 . S
C905 H908 0.961 . S
H906 C905 0.959 . S
H907 C905 0.960 . S
H908 C905 0.961 . S
O909 Co884 1.967 . S
O909 C917 1.258 . S
O910 Co885 1.941 . S
O910 C917 1.266 . S
H911 C913 0.959 . S
H912 C913 0.961 . S
C913 C903 1.510 . S
C913 H911 0.959 . S
C913 H912 0.961 . S
C913 H914 0.960 . S
H914 C913 0.960 . S
H915 N895 0.862 . S
O916 Co884 1.920 1_554 S
O916 C889 1.289 . S
C917 O909 1.258 . S
C917 O910 1.266 . S
Co918 O921 1.970 . S
Co918 N935 1.989 . S
Co918 O943 1.967 . S
Co918 O950 1.920 . S
Co919 O922 1.966 . S
Co919 N928 2.022 . S
Co919 N936 1.993 . S
Co919 O944 1.941 . S
C920 O921 1.258 . S
C920 O922 1.263 . S
O921 Co918 1.970 . S
O921 C920 1.258 . S
O922 Co919 1.966 . S
O922 C920 1.263 . S
C923 O924 1.235 . S
C923 O950 1.289 . S
O924 C923 1.235 . S
C925 C927 1.400 . S
C925 N928 1.351 . S
C925 C930 1.501 . S
C926 C927 1.387 . S
C926 N929 1.341 . S
C927 C925 1.400 . S
C927 C926 1.387 . S
N928 Co919 2.022 . S
N928 C925 1.351 . S
N928 N929 1.365 . S
N929 C926 1.341 . S
N929 N928 1.365 . S
N929 H949 0.862 . S
C930 C925 1.501 . S
C930 H931 0.961 . S
C930 H932 0.961 . S
C930 H933 0.960 . S
H931 C930 0.961 . S
H932 C930 0.961 . S
H933 C930 0.960 . S
C934 N935 1.342 . S
C934 C938 1.401 . S
C934 C939 1.499 . S
N935 Co918 1.989 . S
N935 C934 1.342 . S
N935 N936 1.388 . S
N936 Co919 1.993 . S
N936 N935 1.388 . S
N936 C937 1.346 . S
C937 N936 1.346 . S
C937 C938 1.396 . S
C937 C947 1.510 . S
C938 C934 1.401 . S
C938 C937 1.396 . S
C939 C934 1.499 . S
C939 H940 0.959 . S
C939 H941 0.960 . S
C939 H942 0.961 . S
H940 C939 0.959 . S
H941 C939 0.960 . S
H942 C939 0.961 . S
O943 Co918 1.967 . S
O943 C951 1.258 . S
O944 Co919 1.941 . S
O944 C951 1.266 . S
H945 C947 0.959 . S
H946 C947 0.961 . S
C947 C937 1.510 . S
C947 H945 0.959 . S
C947 H946 0.961 . S
C947 H948 0.960 . S
H948 C947 0.960 . S
H949 N929 0.862 . S
O950 Co918 1.920 . S
O950 C923 1.289 . S
C951 O943 1.258 . S
C951 O944 1.266 . S
Co952 O955 1.970 . S
Co952 N969 1.989 . S
Co952 O977 1.967 . S
Co952 O984 1.920 . S
Co953 O956 1.966 . S
Co953 N962 2.022 . S
Co953 N970 1.993 . S
Co953 O978 1.941 . S
C954 O955 1.258 . S
C954 O956 1.263 . S
O955 Co952 1.970 . S
O955 C954 1.258 . S
O956 Co953 1.966 . S
O956 C954 1.263 . S
C957 O958 1.235 . S
C957 O984 1.289 . S
O958 C957 1.235 . S
C959 C961 1.400 . S
C959 N962 1.351 . S
C959 C964 1.501 . S
C960 C961 1.387 . S
C960 N963 1.341 . S
C961 C959 1.400 . S
C961 C960 1.387 . S
N962 Co953 2.022 . S
N962 C959 1.351 . S
N962 N963 1.365 . S
N963 C960 1.341 . S
N963 N962 1.365 . S
N963 H983 0.862 . S
C964 C959 1.501 . S
C964 H965 0.961 . S
C964 H966 0.961 . S
C964 H967 0.960 . S
H965 C964 0.961 . S
H966 C964 0.961 . S
H967 C964 0.960 . S
C968 N969 1.342 . S
C968 C972 1.401 . S
C968 C973 1.499 . S
N969 Co952 1.989 . S
N969 C968 1.342 . S
N969 N970 1.388 . S
N970 Co953 1.993 . S
N970 N969 1.388 . S
N970 C971 1.346 . S
C971 N970 1.346 . S
C971 C972 1.396 . S
C971 C981 1.510 . S
C972 C968 1.401 . S
C972 C971 1.396 . S
C973 C968 1.499 . S
C973 H974 0.959 . S
C973 H975 0.960 . S
C973 H976 0.961 . S
H974 C973 0.959 . S
H975 C973 0.960 . S
H976 C973 0.961 . S
O977 Co952 1.967 . S
O977 C985 1.258 . S
O978 Co953 1.941 . S
O978 C985 1.266 . S
H979 C981 0.959 . S
H980 C981 0.961 . S
C981 C971 1.510 . S
C981 H979 0.959 . S
C981 H980 0.961 . S
C981 H982 0.960 . S
H982 C981 0.960 . S
H983 N963 0.862 . S
O984 Co952 1.920 . S
O984 C957 1.289 . S
C985 O977 1.258 . S
C985 O978 1.266 . S
Co986 O989 1.970 . S
Co986 N1003 1.989 . S
Co986 O1011 1.967 . S
Co986 O1018 1.920 . S
Co987 O990 1.966 . S
Co987 N996 2.022 . S
Co987 N1004 1.993 . S
Co987 O1012 1.941 . S
C988 O989 1.258 . S
C988 O990 1.263 . S
O989 Co986 1.970 . S
O989 C988 1.258 . S
O990 Co987 1.966 . S
O990 C988 1.263 . S
C991 O992 1.235 . S
C991 O1018 1.289 . S
O992 C991 1.235 . S
C993 C995 1.400 . S
C993 N996 1.351 . S
C993 C998 1.501 . S
C994 C995 1.387 . S
C994 N997 1.341 . S
C995 C993 1.400 . S
C995 C994 1.387 . S
N996 Co987 2.022 . S
N996 C993 1.351 . S
N996 N997 1.365 . S
N997 C994 1.341 . S
N997 N996 1.365 . S
N997 H1017 0.862 . S
C998 C993 1.501 . S
C998 H999 0.961 . S
C998 H1000 0.961 . S
C998 H1001 0.960 . S
H999 C998 0.961 . S
H1000 C998 0.961 . S
H1001 C998 0.960 . S
C1002 N1003 1.342 . S
C1002 C1006 1.401 . S
C1002 C1007 1.499 . S
N1003 Co986 1.989 . S
N1003 C1002 1.342 . S
N1003 N1004 1.388 . S
N1004 Co987 1.993 . S
N1004 N1003 1.388 . S
N1004 C1005 1.346 . S
C1005 N1004 1.346 . S
C1005 C1006 1.396 . S
C1005 C1015 1.510 . S
C1006 C1002 1.401 . S
C1006 C1005 1.396 . S
C1007 C1002 1.499 . S
C1007 H1008 0.959 . S
C1007 H1009 0.960 . S
C1007 H1010 0.961 . S
H1008 C1007 0.959 . S
H1009 C1007 0.960 . S
H1010 C1007 0.961 . S
O1011 Co986 1.967 . S
O1011 C1019 1.258 . S
O1012 Co987 1.941 . S
O1012 C1019 1.266 . S
H1013 C1015 0.959 . S
H1014 C1015 0.961 . S
C1015 C1005 1.510 . S
C1015 H1013 0.959 . S
C1015 H1014 0.961 . S
C1015 H1016 0.960 . S
H1016 C1015 0.960 . S
H1017 N997 0.862 . S
O1018 Co986 1.920 . S
O1018 C991 1.289 . S
C1019 O1011 1.258 . S
C1019 O1012 1.266 . S
Co1020 O1023 1.970 . S
Co1020 N1037 1.989 . S
Co1020 O1045 1.967 . S
Co1020 O1052 1.920 . S
Co1021 O1024 1.966 . S
Co1021 N1030 2.022 . S
Co1021 N1038 1.993 . S
Co1021 O1046 1.941 . S
C1022 O1023 1.258 . S
C1022 O1024 1.263 . S
O1023 Co1020 1.970 . S
O1023 C1022 1.258 . S
O1024 Co1021 1.966 . S
O1024 C1022 1.263 . S
C1025 O1026 1.235 . S
C1025 O1052 1.289 . S
O1026 C1025 1.235 . S
C1027 C1029 1.400 . S
C1027 N1030 1.351 . S
C1027 C1032 1.501 . S
C1028 C1029 1.387 . S
C1028 N1031 1.341 . S
C1029 C1027 1.400 . S
C1029 C1028 1.387 . S
N1030 Co1021 2.022 . S
N1030 C1027 1.351 . S
N1030 N1031 1.365 . S
N1031 C1028 1.341 . S
N1031 N1030 1.365 . S
N1031 H1051 0.862 . S
C1032 C1027 1.501 . S
C1032 H1033 0.961 . S
C1032 H1034 0.961 . S
C1032 H1035 0.960 . S
H1033 C1032 0.961 . S
H1034 C1032 0.961 . S
H1035 C1032 0.960 . S
C1036 N1037 1.342 . S
C1036 C1040 1.401 . S
C1036 C1041 1.499 . S
N1037 Co1020 1.989 . S
N1037 C1036 1.342 . S
N1037 N1038 1.388 . S
N1038 Co1021 1.993 . S
N1038 N1037 1.388 . S
N1038 C1039 1.346 . S
C1039 N1038 1.346 . S
C1039 C1040 1.396 . S
C1039 C1049 1.510 . S
C1040 C1036 1.401 . S
C1040 C1039 1.396 . S
C1041 C1036 1.499 . S
C1041 H1042 0.959 . S
C1041 H1043 0.960 . S
C1041 H1044 0.961 . S
H1042 C1041 0.959 . S
H1043 C1041 0.960 . S
H1044 C1041 0.961 . S
O1045 Co1020 1.967 . S
O1045 C1053 1.258 . S
O1046 Co1021 1.941 . S
O1046 C1053 1.266 . S
H1047 C1049 0.959 . S
H1048 C1049 0.961 . S
C1049 C1039 1.510 . S
C1049 H1047 0.959 . S
C1049 H1048 0.961 . S
C1049 H1050 0.960 . S
H1050 C1049 0.960 . S
H1051 N1031 0.862 . S
O1052 Co1020 1.920 . S
O1052 C1025 1.289 . S
C1053 O1045 1.258 . S
C1053 O1046 1.266 . S
Co1054 O1057 1.970 . S
Co1054 N1071 1.989 . S
Co1054 O1079 1.967 . S
Co1054 O1086 1.920 . S
Co1055 O1058 1.966 . S
Co1055 N1064 2.022 . S
Co1055 N1072 1.993 . S
Co1055 O1080 1.941 . S
C1056 O1057 1.258 . S
C1056 O1058 1.263 . S
O1057 Co1054 1.970 . S
O1057 C1056 1.258 . S
O1058 Co1055 1.966 . S
O1058 C1056 1.263 . S
C1059 O1060 1.235 . S
C1059 O1086 1.289 . S
O1060 C1059 1.235 . S
C1061 C1063 1.400 . S
C1061 N1064 1.351 . S
C1061 C1066 1.501 . S
C1062 C1063 1.387 . S
C1062 N1065 1.341 . S
C1063 C1061 1.400 . S
C1063 C1062 1.387 . S
N1064 Co1055 2.022 . S
N1064 C1061 1.351 . S
N1064 N1065 1.365 . S
N1065 C1062 1.341 . S
N1065 N1064 1.365 . S
N1065 H1085 0.862 . S
C1066 C1061 1.501 . S
C1066 H1067 0.961 . S
C1066 H1068 0.961 . S
C1066 H1069 0.960 . S
H1067 C1066 0.961 . S
H1068 C1066 0.961 . S
H1069 C1066 0.960 . S
C1070 N1071 1.342 . S
C1070 C1074 1.401 . S
C1070 C1075 1.499 . S
N1071 Co1054 1.989 . S
N1071 C1070 1.342 . S
N1071 N1072 1.388 . S
N1072 Co1055 1.993 . S
N1072 N1071 1.388 . S
N1072 C1073 1.346 . S
C1073 N1072 1.346 . S
C1073 C1074 1.396 . S
C1073 C1083 1.510 . S
C1074 C1070 1.401 . S
C1074 C1073 1.396 . S
C1075 C1070 1.499 . S
C1075 H1076 0.959 . S
C1075 H1077 0.960 . S
C1075 H1078 0.961 . S
H1076 C1075 0.959 . S
H1077 C1075 0.960 . S
H1078 C1075 0.961 . S
O1079 Co1054 1.967 . S
O1079 C1087 1.258 . S
O1080 Co1055 1.941 . S
O1080 C1087 1.266 . S
H1081 C1083 0.959 . S
H1082 C1083 0.961 . S
C1083 C1073 1.510 . S
C1083 H1081 0.959 . S
C1083 H1082 0.961 . S
C1083 H1084 0.960 . S
H1084 C1083 0.960 . S
H1085 N1065 0.862 . S
O1086 Co1054 1.920 . S
O1086 C1059 1.289 . S
C1087 O1079 1.258 . S
C1087 O1080 1.266 . S
Co1088 O1091 1.970 . S
Co1088 N1105 1.989 . S
Co1088 O1113 1.967 . S
Co1088 O1120 1.920 . S
Co1089 O1092 1.966 . S
Co1089 N1098 2.022 . S
Co1089 N1106 1.993 . S
Co1089 O1114 1.941 . S
C1090 O1091 1.258 . S
C1090 O1092 1.263 . S
O1091 Co1088 1.970 . S
O1091 C1090 1.258 . S
O1092 Co1089 1.966 . S
O1092 C1090 1.263 . S
C1093 O1094 1.235 . S
C1093 O1120 1.289 . S
O1094 C1093 1.235 . S
C1095 C1097 1.400 . S
C1095 N1098 1.351 . S
C1095 C1100 1.501 . S
C1096 C1097 1.387 . S
C1096 N1099 1.341 . S
C1097 C1095 1.400 . S
C1097 C1096 1.387 . S
N1098 Co1089 2.022 . S
N1098 C1095 1.351 . S
N1098 N1099 1.365 . S
N1099 C1096 1.341 . S
N1099 N1098 1.365 . S
N1099 H1119 0.862 . S
C1100 C1095 1.501 . S
C1100 H1101 0.961 . S
C1100 H1102 0.961 . S
C1100 H1103 0.960 . S
H1101 C1100 0.961 . S
H1102 C1100 0.961 . S
H1103 C1100 0.960 . S
C1104 N1105 1.342 . S
C1104 C1108 1.401 . S
C1104 C1109 1.499 . S
N1105 Co1088 1.989 . S
N1105 C1104 1.342 . S
N1105 N1106 1.388 . S
N1106 Co1089 1.993 . S
N1106 N1105 1.388 . S
N1106 C1107 1.346 . S
C1107 N1106 1.346 . S
C1107 C1108 1.396 . S
C1107 C1117 1.510 . S
C1108 C1104 1.401 . S
C1108 C1107 1.396 . S
C1109 C1104 1.499 . S
C1109 H1110 0.959 . S
C1109 H1111 0.960 . S
C1109 H1112 0.961 . S
H1110 C1109 0.959 . S
H1111 C1109 0.960 . S
H1112 C1109 0.961 . S
O1113 Co1088 1.967 . S
O1113 C1121 1.258 . S
O1114 Co1089 1.941 . S
O1114 C1121 1.266 . S
H1115 C1117 0.959 . S
H1116 C1117 0.961 . S
C1117 C1107 1.510 . S
C1117 H1115 0.959 . S
C1117 H1116 0.961 . S
C1117 H1118 0.960 . S
H1118 C1117 0.960 . S
H1119 N1099 0.862 . S
O1120 Co1088 1.920 . S
O1120 C1093 1.289 . S
C1121 O1113 1.258 . S
C1121 O1114 1.266 . S
Co1122 O1125 1.970 . S
Co1122 N1139 1.989 . S
Co1122 O1147 1.967 . S
Co1122 O1154 1.920 1_556 S
Co1123 O1126 1.966 . S
Co1123 N1132 2.022 . S
Co1123 N1140 1.993 . S
Co1123 O1148 1.941 . S
C1124 O1125 1.258 . S
C1124 O1126 1.263 . S
O1125 Co1122 1.970 . S
O1125 C1124 1.258 . S
O1126 Co1123 1.966 . S
O1126 C1124 1.263 . S
C1127 O1128 1.235 . S
C1127 O1154 1.289 . S
O1128 C1127 1.235 . S
C1129 C1131 1.400 . S
C1129 N1132 1.351 . S
C1129 C1134 1.501 . S
C1130 C1131 1.387 . S
C1130 N1133 1.341 . S
C1131 C1129 1.400 . S
C1131 C1130 1.387 . S
N1132 Co1123 2.022 . S
N1132 C1129 1.351 . S
N1132 N1133 1.365 . S
N1133 C1130 1.341 . S
N1133 N1132 1.365 . S
N1133 H1153 0.862 . S
C1134 C1129 1.501 . S
C1134 H1135 0.961 . S
C1134 H1136 0.961 . S
C1134 H1137 0.960 . S
H1135 C1134 0.961 . S
H1136 C1134 0.961 . S
H1137 C1134 0.960 . S
C1138 N1139 1.342 . S
C1138 C1142 1.401 . S
C1138 C1143 1.499 1_556 S
N1139 Co1122 1.989 . S
N1139 C1138 1.342 . S
N1139 N1140 1.388 . S
N1140 Co1123 1.993 . S
N1140 N1139 1.388 . S
N1140 C1141 1.346 . S
C1141 N1140 1.346 . S
C1141 C1142 1.396 . S
C1141 C1151 1.510 . S
C1142 C1138 1.401 . S
C1142 C1141 1.396 . S
C1143 C1138 1.499 1_554 S
C1143 H1144 0.959 . S
C1143 H1145 0.960 . S
C1143 H1146 0.961 . S
H1144 C1143 0.959 . S
H1145 C1143 0.960 . S
H1146 C1143 0.961 . S
O1147 Co1122 1.967 . S
O1147 C1155 1.258 . S
O1148 Co1123 1.941 . S
O1148 C1155 1.266 . S
H1149 C1151 0.959 . S
H1150 C1151 0.961 . S
C1151 C1141 1.510 . S
C1151 H1149 0.959 . S
C1151 H1150 0.961 . S
C1151 H1152 0.960 . S
H1152 C1151 0.960 . S
H1153 N1133 0.862 . S
O1154 Co1122 1.920 1_554 S
O1154 C1127 1.289 . S
C1155 O1147 1.258 . S
C1155 O1148 1.266 . S
Co1156 O1159 1.970 . S
Co1156 N1173 1.989 . S
Co1156 O1181 1.967 . S
Co1156 O1188 1.920 1_556 S
Co1157 O1160 1.966 . S
Co1157 N1166 2.022 . S
Co1157 N1174 1.993 . S
Co1157 O1182 1.941 . S
C1158 O1159 1.258 . S
C1158 O1160 1.263 . S
O1159 Co1156 1.970 . S
O1159 C1158 1.258 . S
O1160 Co1157 1.966 . S
O1160 C1158 1.263 . S
C1161 O1162 1.235 . S
C1161 O1188 1.289 . S
O1162 C1161 1.235 . S
C1163 C1165 1.400 . S
C1163 N1166 1.351 . S
C1163 C1168 1.501 . S
C1164 C1165 1.387 . S
C1164 N1167 1.341 . S
C1165 C1163 1.400 . S
C1165 C1164 1.387 . S
N1166 Co1157 2.022 . S
N1166 C1163 1.351 . S
N1166 N1167 1.365 . S
N1167 C1164 1.341 . S
N1167 N1166 1.365 . S
N1167 H1187 0.862 . S
C1168 C1163 1.501 . S
C1168 H1169 0.961 . S
C1168 H1170 0.961 . S
C1168 H1171 0.960 . S
H1169 C1168 0.961 . S
H1170 C1168 0.961 . S
H1171 C1168 0.960 . S
C1172 N1173 1.342 . S
C1172 C1176 1.401 . S
C1172 C1177 1.499 1_556 S
N1173 Co1156 1.989 . S
N1173 C1172 1.342 . S
N1173 N1174 1.388 . S
N1174 Co1157 1.993 . S
N1174 N1173 1.388 . S
N1174 C1175 1.346 . S
C1175 N1174 1.346 . S
C1175 C1176 1.396 . S
C1175 C1185 1.510 . S
C1176 C1172 1.401 . S
C1176 C1175 1.396 . S
C1177 C1172 1.499 1_554 S
C1177 H1178 0.959 . S
C1177 H1179 0.960 . S
C1177 H1180 0.961 . S
H1178 C1177 0.959 . S
H1179 C1177 0.960 . S
H1180 C1177 0.961 . S
O1181 Co1156 1.967 . S
O1181 C1189 1.258 . S
O1182 Co1157 1.941 . S
O1182 C1189 1.266 . S
H1183 C1185 0.959 . S
H1184 C1185 0.961 . S
C1185 C1175 1.510 . S
C1185 H1183 0.959 . S
C1185 H1184 0.961 . S
C1185 H1186 0.960 . S
H1186 C1185 0.960 . S
H1187 N1167 0.862 . S
O1188 Co1156 1.920 1_554 S
O1188 C1161 1.289 . S
C1189 O1181 1.258 . S
C1189 O1182 1.266 . S
Co1190 O1193 1.970 . S
Co1190 N1207 1.989 . S
Co1190 O1215 1.967 . S
Co1190 O1222 1.920 1_556 S
Co1191 O1194 1.966 . S
Co1191 N1200 2.022 . S
Co1191 N1208 1.993 . S
Co1191 O1216 1.941 . S
C1192 O1193 1.258 . S
C1192 O1194 1.263 . S
O1193 Co1190 1.970 . S
O1193 C1192 1.258 . S
O1194 Co1191 1.966 . S
O1194 C1192 1.263 . S
C1195 O1196 1.235 . S
C1195 O1222 1.289 . S
O1196 C1195 1.235 . S
C1197 C1199 1.400 . S
C1197 N1200 1.351 . S
C1197 C1202 1.501 . S
C1198 C1199 1.387 . S
C1198 N1201 1.341 . S
C1199 C1197 1.400 . S
C1199 C1198 1.387 . S
N1200 Co1191 2.022 . S
N1200 C1197 1.351 . S
N1200 N1201 1.365 . S
N1201 C1198 1.341 . S
N1201 N1200 1.365 . S
N1201 H1221 0.862 . S
C1202 C1197 1.501 . S
C1202 H1203 0.961 . S
C1202 H1204 0.961 . S
C1202 H1205 0.960 . S
H1203 C1202 0.961 . S
H1204 C1202 0.961 . S
H1205 C1202 0.960 . S
C1206 N1207 1.342 . S
C1206 C1210 1.401 . S
C1206 C1211 1.499 1_556 S
N1207 Co1190 1.989 . S
N1207 C1206 1.342 . S
N1207 N1208 1.388 . S
N1208 Co1191 1.993 . S
N1208 N1207 1.388 . S
N1208 C1209 1.346 . S
C1209 N1208 1.346 . S
C1209 C1210 1.396 . S
C1209 C1219 1.510 . S
C1210 C1206 1.401 . S
C1210 C1209 1.396 . S
C1211 C1206 1.499 1_554 S
C1211 H1212 0.959 . S
C1211 H1213 0.960 . S
C1211 H1214 0.961 . S
H1212 C1211 0.959 . S
H1213 C1211 0.960 . S
H1214 C1211 0.961 . S
O1215 Co1190 1.967 . S
O1215 C1223 1.258 . S
O1216 Co1191 1.941 . S
O1216 C1223 1.266 . S
H1217 C1219 0.959 . S
H1218 C1219 0.961 . S
C1219 C1209 1.510 . S
C1219 H1217 0.959 . S
C1219 H1218 0.961 . S
C1219 H1220 0.960 . S
H1220 C1219 0.960 . S
H1221 N1201 0.862 . S
O1222 Co1190 1.920 1_554 S
O1222 C1195 1.289 . S
C1223 O1215 1.258 . S
C1223 O1216 1.266 . S
H1224 C1232 0.950 . S
H1225 C1237 0.950 . S
H1226 C1234 0.950 . S
H1227 C1236 0.950 . S
H1228 C1238 0.950 . S
H1229 C1240 0.950 . S
H1230 C1242 0.950 . S
H1231 C1243 0.950 . S
C1232 H1224 0.950 . S
C1232 C1233 1.386 . S
C1232 C1234 1.391 . S
C1233 C1232 1.386 . S
C1233 C1237 1.393 . S
C1234 H1226 0.950 . S
C1234 C1232 1.391 . S
C1234 C1235 1.400 . S
C1235 C1234 1.400 . S
C1235 C1236 1.398 . S
C1235 C1241 1.491 . S
C1236 H1227 0.950 . S
C1236 C1235 1.398 . S
C1236 C1237 1.391 . S
C1237 H1225 0.950 . S
C1237 C1233 1.393 . S
C1237 C1236 1.391 . S
C1238 H1228 0.950 . S
C1238 C1239 1.386 . S
C1238 C1240 1.391 . S
C1239 C1238 1.386 . S
C1239 C1243 1.393 . S
C1240 H1229 0.950 . S
C1240 C1238 1.391 . S
C1240 C1241 1.400 . S
C1241 C1235 1.491 . S
C1241 C1240 1.400 . S
C1241 C1242 1.398 . S
C1242 H1230 0.950 . S
C1242 C1241 1.398 . S
C1242 C1243 1.391 . S
C1243 H1231 0.950 . S
C1243 C1239 1.393 . S
C1243 C1242 1.391 . S
H1244 C1252 0.950 . S
H1245 C1257 0.950 . S
H1246 C1254 0.950 . S
H1247 C1256 0.950 . S
H1248 C1258 0.950 . S
H1249 C1260 0.950 . S
H1250 C1262 0.950 . S
H1251 C1263 0.950 . S
C1252 H1244 0.950 . S
C1252 C1253 1.386 . S
C1252 C1254 1.391 . S
C1253 C1252 1.386 . S
C1253 C1257 1.393 . S
C1254 H1246 0.950 . S
C1254 C1252 1.391 . S
C1254 C1255 1.400 . S
C1255 C1254 1.400 . S
C1255 C1256 1.398 . S
C1255 C1261 1.491 . S
C1256 H1247 0.950 . S
C1256 C1255 1.398 . S
C1256 C1257 1.391 . S
C1257 H1245 0.950 . S
C1257 C1253 1.393 . S
C1257 C1256 1.391 . S
C1258 H1248 0.950 . S
C1258 C1259 1.386 . S
C1258 C1260 1.391 . S
C1259 C1258 1.386 . S
C1259 C1263 1.393 . S
C1260 H1249 0.950 . S
C1260 C1258 1.391 . S
C1260 C1261 1.400 . S
C1261 C1255 1.491 . S
C1261 C1260 1.400 . S
C1261 C1262 1.398 . S
C1262 H1250 0.950 . S
C1262 C1261 1.398 . S
C1262 C1263 1.391 . S
C1263 H1251 0.950 . S
C1263 C1259 1.393 . S
C1263 C1262 1.391 . S
H1264 C1272 0.950 . S
H1265 C1277 0.950 . S
H1266 C1274 0.950 . S
H1267 C1276 0.950 . S
H1268 C1278 0.950 . S
H1269 C1280 0.950 . S
H1270 C1282 0.950 . S
H1271 C1283 0.950 . S
C1272 H1264 0.950 . S
C1272 C1273 1.386 . S
C1272 C1274 1.391 . S
C1273 C1272 1.386 . S
C1273 C1277 1.393 . S
C1274 H1266 0.950 . S
C1274 C1272 1.391 . S
C1274 C1275 1.400 . S
C1275 C1274 1.400 . S
C1275 C1276 1.398 . S
C1275 C1281 1.491 . S
C1276 H1267 0.950 . S
C1276 C1275 1.398 . S
C1276 C1277 1.391 . S
C1277 H1265 0.950 . S
C1277 C1273 1.393 . S
C1277 C1276 1.391 . S
C1278 H1268 0.950 . S
C1278 C1279 1.386 . S
C1278 C1280 1.391 . S
C1279 C1278 1.386 . S
C1279 C1283 1.393 . S
C1280 H1269 0.950 . S
C1280 C1278 1.391 . S
C1280 C1281 1.400 . S
C1281 C1275 1.491 . S
C1281 C1280 1.400 . S
C1281 C1282 1.398 . S
C1282 H1270 0.950 . S
C1282 C1281 1.398 . S
C1282 C1283 1.391 . S
C1283 H1271 0.950 . S
C1283 C1279 1.393 . S
C1283 C1282 1.391 . S
H1284 C1292 0.950 . S
H1285 C1297 0.950 . S
H1286 C1294 0.950 . S
H1287 C1296 0.950 . S
H1288 C1298 0.950 . S
H1289 C1300 0.950 . S
H1290 C1302 0.950 . S
H1291 C1303 0.950 . S
C1292 H1284 0.950 . S
C1292 C1293 1.386 . S
C1292 C1294 1.391 . S
C1293 C1292 1.386 . S
C1293 C1297 1.393 . S
C1294 H1286 0.950 . S
C1294 C1292 1.391 . S
C1294 C1295 1.400 . S
C1295 C1294 1.400 . S
C1295 C1296 1.398 . S
C1295 C1301 1.491 . S
C1296 H1287 0.950 . S
C1296 C1295 1.398 . S
C1296 C1297 1.391 . S
C1297 H1285 0.950 . S
C1297 C1293 1.393 . S
C1297 C1296 1.391 . S
C1298 H1288 0.950 . S
C1298 C1299 1.386 . S
C1298 C1300 1.391 . S
C1299 C1298 1.386 . S
C1299 C1303 1.393 . S
C1300 H1289 0.950 . S
C1300 C1298 1.391 . S
C1300 C1301 1.400 . S
C1301 C1295 1.491 . S
C1301 C1300 1.400 . S
C1301 C1302 1.398 . S
C1302 H1290 0.950 . S
C1302 C1301 1.398 . S
C1302 C1303 1.391 . S
C1303 H1291 0.950 . S
C1303 C1299 1.393 . S
C1303 C1302 1.391 . S
H1304 C1312 0.950 . S
H1305 C1317 0.950 . S
H1306 C1314 0.950 . S
H1307 C1316 0.950 . S
H1308 C1318 0.950 . S
H1309 C1320 0.950 . S
H1310 C1322 0.950 . S
H1311 C1323 0.950 . S
C1312 H1304 0.950 . S
C1312 C1313 1.386 . S
C1312 C1314 1.391 . S
C1313 C1312 1.386 . S
C1313 C1317 1.393 . S
C1314 H1306 0.950 . S
C1314 C1312 1.391 . S
C1314 C1315 1.400 . S
C1315 C1314 1.400 . S
C1315 C1316 1.398 . S
C1315 C1321 1.491 . S
C1316 H1307 0.950 . S
C1316 C1315 1.398 . S
C1316 C1317 1.391 . S
C1317 H1305 0.950 . S
C1317 C1313 1.393 . S
C1317 C1316 1.391 . S
C1318 H1308 0.950 . S
C1318 C1319 1.386 . S
C1318 C1320 1.391 . S
C1319 C1318 1.386 . S
C1319 C1323 1.393 . S
C1320 H1309 0.950 . S
C1320 C1318 1.391 . S
C1320 C1321 1.400 . S
C1321 C1315 1.491 . S
C1321 C1320 1.400 . S
C1321 C1322 1.398 . S
C1322 H1310 0.950 . S
C1322 C1321 1.398 . S
C1322 C1323 1.391 . S
C1323 H1311 0.950 . S
C1323 C1319 1.393 . S
C1323 C1322 1.391 . S
H1324 C1332 0.950 . S
H1325 C1337 0.950 . S
H1326 C1334 0.950 . S
H1327 C1336 0.950 . S
H1328 C1338 0.950 . S
H1329 C1340 0.950 . S
H1330 C1342 0.950 . S
H1331 C1343 0.950 . S
C1332 H1324 0.950 . S
C1332 C1333 1.386 . S
C1332 C1334 1.391 . S
C1333 C1332 1.386 . S
C1333 C1337 1.393 . S
C1334 H1326 0.950 . S
C1334 C1332 1.391 . S
C1334 C1335 1.400 . S
C1335 C1334 1.400 . S
C1335 C1336 1.398 . S
C1335 C1341 1.491 . S
C1336 H1327 0.950 . S
C1336 C1335 1.398 . S
C1336 C1337 1.391 . S
C1337 H1325 0.950 . S
C1337 C1333 1.393 . S
C1337 C1336 1.391 . S
C1338 H1328 0.950 . S
C1338 C1339 1.386 . S
C1338 C1340 1.391 . S
C1339 C1338 1.386 . S
C1339 C1343 1.393 . S
C1340 H1329 0.950 . S
C1340 C1338 1.391 . S
C1340 C1341 1.400 . S
C1341 C1335 1.491 . S
C1341 C1340 1.400 . S
C1341 C1342 1.398 . S
C1342 H1330 0.950 . S
C1342 C1341 1.398 . S
C1342 C1343 1.391 . S
C1343 H1331 0.950 . S
C1343 C1339 1.393 . S
C1343 C1342 1.391 . S
H1344 C1352 0.950 . S
H1345 C1357 0.950 . S
H1346 C1354 0.950 . S
H1347 C1356 0.950 . S
H1348 C1358 0.950 . S
H1349 C1360 0.950 . S
H1350 C1362 0.950 . S
H1351 C1363 0.950 . S
C1352 H1344 0.950 . S
C1352 C1353 1.386 . S
C1352 C1354 1.391 . S
C1353 C1352 1.386 . S
C1353 C1357 1.393 . S
C1354 H1346 0.950 . S
C1354 C1352 1.391 . S
C1354 C1355 1.400 . S
C1355 C1354 1.400 . S
C1355 C1356 1.398 . S
C1355 C1361 1.491 . S
C1356 H1347 0.950 . S
C1356 C1355 1.398 . S
C1356 C1357 1.391 . S
C1357 H1345 0.950 . S
C1357 C1353 1.393 . S
C1357 C1356 1.391 . S
C1358 H1348 0.950 . S
C1358 C1359 1.386 . S
C1358 C1360 1.391 . S
C1359 C1358 1.386 . S
C1359 C1363 1.393 . S
C1360 H1349 0.950 . S
C1360 C1358 1.391 . S
C1360 C1361 1.400 . S
C1361 C1355 1.491 . S
C1361 C1360 1.400 . S
C1361 C1362 1.398 . S
C1362 H1350 0.950 . S
C1362 C1361 1.398 . S
C1362 C1363 1.391 . S
C1363 H1351 0.950 . S
C1363 C1359 1.393 . S
C1363 C1362 1.391 . S
H1364 C1372 0.950 . S
H1365 C1377 0.950 . S
H1366 C1374 0.950 . S
H1367 C1376 0.950 . S
H1368 C1378 0.950 . S
H1369 C1380 0.950 . S
H1370 C1382 0.950 . S
H1371 C1383 0.950 . S
C1372 H1364 0.950 . S
C1372 C1373 1.386 . S
C1372 C1374 1.391 . S
C1373 C1372 1.386 . S
C1373 C1377 1.393 . S
C1374 H1366 0.950 . S
C1374 C1372 1.391 . S
C1374 C1375 1.400 . S
C1375 C1374 1.400 . S
C1375 C1376 1.398 . S
C1375 C1381 1.491 . S
C1376 H1367 0.950 . S
C1376 C1375 1.398 . S
C1376 C1377 1.391 . S
C1377 H1365 0.950 . S
C1377 C1373 1.393 . S
C1377 C1376 1.391 . S
C1378 H1368 0.950 . S
C1378 C1379 1.386 . S
C1378 C1380 1.391 . S
C1379 C1378 1.386 . S
C1379 C1383 1.393 . S
C1380 H1369 0.950 . S
C1380 C1378 1.391 . S
C1380 C1381 1.400 . S
C1381 C1375 1.491 . S
C1381 C1380 1.400 . S
C1381 C1382 1.398 . S
C1382 H1370 0.950 . S
C1382 C1381 1.398 . S
C1382 C1383 1.391 . S
C1383 H1371 0.950 . S
C1383 C1379 1.393 . S
C1383 C1382 1.391 . S
H1384 C1392 0.950 . S
H1385 C1397 0.950 . S
H1386 C1394 0.950 . S
H1387 C1396 0.950 . S
H1388 C1398 0.950 . S
H1389 C1400 0.950 . S
H1390 C1402 0.950 . S
H1391 C1403 0.950 . S
C1392 H1384 0.950 . S
C1392 C1393 1.386 . S
C1392 C1394 1.391 . S
C1393 C1392 1.386 . S
C1393 C1397 1.393 . S
C1394 H1386 0.950 . S
C1394 C1392 1.391 . S
C1394 C1395 1.400 . S
C1395 C1394 1.400 . S
C1395 C1396 1.398 . S
C1395 C1401 1.491 . S
C1396 H1387 0.950 . S
C1396 C1395 1.398 . S
C1396 C1397 1.391 . S
C1397 H1385 0.950 . S
C1397 C1393 1.393 . S
C1397 C1396 1.391 . S
C1398 H1388 0.950 . S
C1398 C1399 1.386 . S
C1398 C1400 1.391 . S
C1399 C1398 1.386 . S
C1399 C1403 1.393 . S
C1400 H1389 0.950 . S
C1400 C1398 1.391 . S
C1400 C1401 1.400 . S
C1401 C1395 1.491 . S
C1401 C1400 1.400 . S
C1401 C1402 1.398 . S
C1402 H1390 0.950 . S
C1402 C1401 1.398 . S
C1402 C1403 1.391 . S
C1403 H1391 0.950 . S
C1403 C1399 1.393 . S
C1403 C1402 1.391 . S
H1404 C1412 0.950 . S
H1405 C1417 0.950 . S
H1406 C1414 0.950 . S
H1407 C1416 0.950 . S
H1408 C1418 0.950 . S
H1409 C1420 0.950 . S
H1410 C1422 0.950 . S
H1411 C1423 0.950 . S
C1412 H1404 0.950 . S
C1412 C1413 1.386 . S
C1412 C1414 1.391 . S
C1413 C1412 1.386 . S
C1413 C1417 1.393 . S
C1414 H1406 0.950 . S
C1414 C1412 1.391 . S
C1414 C1415 1.400 . S
C1415 C1414 1.400 . S
C1415 C1416 1.398 . S
C1415 C1421 1.491 . S
C1416 H1407 0.950 . S
C1416 C1415 1.398 . S
C1416 C1417 1.391 . S
C1417 H1405 0.950 . S
C1417 C1413 1.393 . S
C1417 C1416 1.391 . S
C1418 H1408 0.950 . S
C1418 C1419 1.386 . S
C1418 C1420 1.391 . S
C1419 C1418 1.386 . S
C1419 C1423 1.393 . S
C1420 H1409 0.950 . S
C1420 C1418 1.391 . S
C1420 C1421 1.400 . S
C1421 C1415 1.491 . S
C1421 C1420 1.400 . S
C1421 C1422 1.398 . S
C1422 H1410 0.950 . S
C1422 C1421 1.398 . S
C1422 C1423 1.391 . S
C1423 H1411 0.950 . S
C1423 C1419 1.393 . S
C1423 C1422 1.391 . S
H1424 C1432 0.950 . S
H1425 C1437 0.950 . S
H1426 C1434 0.950 . S
H1427 C1436 0.950 . S
H1428 C1438 0.950 . S
H1429 C1440 0.950 . S
H1430 C1442 0.950 . S
H1431 C1443 0.950 . S
C1432 H1424 0.950 . S
C1432 C1433 1.386 . S
C1432 C1434 1.391 . S
C1433 C1432 1.386 . S
C1433 C1437 1.393 . S
C1434 H1426 0.950 . S
C1434 C1432 1.391 . S
C1434 C1435 1.400 . S
C1435 C1434 1.400 . S
C1435 C1436 1.398 . S
C1435 C1441 1.491 . S
C1436 H1427 0.950 . S
C1436 C1435 1.398 . S
C1436 C1437 1.391 . S
C1437 H1425 0.950 . S
C1437 C1433 1.393 . S
C1437 C1436 1.391 . S
C1438 H1428 0.950 . S
C1438 C1439 1.386 . S
C1438 C1440 1.391 . S
C1439 C1438 1.386 . S
C1439 C1443 1.393 . S
C1440 H1429 0.950 . S
C1440 C1438 1.391 . S
C1440 C1441 1.400 . S
C1441 C1435 1.491 . S
C1441 C1440 1.400 . S
C1441 C1442 1.398 . S
C1442 H1430 0.950 . S
C1442 C1441 1.398 . S
C1442 C1443 1.391 . S
C1443 H1431 0.950 . S
C1443 C1439 1.393 . S
C1443 C1442 1.391 . S
H1444 C1452 0.950 . S
H1445 C1457 0.950 . S
H1446 C1454 0.950 . S
H1447 C1456 0.950 . S
H1448 C1458 0.950 . S
H1449 C1460 0.950 . S
H1450 C1462 0.950 . S
H1451 C1463 0.950 . S
C1452 H1444 0.950 . S
C1452 C1453 1.386 . S
C1452 C1454 1.391 . S
C1453 C1452 1.386 . S
C1453 C1457 1.393 . S
C1454 H1446 0.950 . S
C1454 C1452 1.391 . S
C1454 C1455 1.400 . S
C1455 C1454 1.400 . S
C1455 C1456 1.398 . S
C1455 C1461 1.491 . S
C1456 H1447 0.950 . S
C1456 C1455 1.398 . S
C1456 C1457 1.391 . S
C1457 H1445 0.950 . S
C1457 C1453 1.393 . S
C1457 C1456 1.391 . S
C1458 H1448 0.950 . S
C1458 C1459 1.386 . S
C1458 C1460 1.391 . S
C1459 C1458 1.386 . S
C1459 C1463 1.393 . S
C1460 H1449 0.950 . S
C1460 C1458 1.391 . S
C1460 C1461 1.400 . S
C1461 C1455 1.491 . S
C1461 C1460 1.400 . S
C1461 C1462 1.398 . S
C1462 H1450 0.950 . S
C1462 C1461 1.398 . S
C1462 C1463 1.391 . S
C1463 H1451 0.950 . S
C1463 C1459 1.393 . S
C1463 C1462 1.391 . S
H1464 C1472 0.950 . S
H1465 C1477 0.950 . S
H1466 C1474 0.950 . S
H1467 C1476 0.950 . S
H1468 C1478 0.950 . S
H1469 C1480 0.950 . S
H1470 C1482 0.950 . S
H1471 C1483 0.950 . S
C1472 H1464 0.950 . S
C1472 C1473 1.386 . S
C1472 C1474 1.391 . S
C1473 C1472 1.386 . S
C1473 C1477 1.393 . S
C1474 H1466 0.950 . S
C1474 C1472 1.391 . S
C1474 C1475 1.400 . S
C1475 C1474 1.400 . S
C1475 C1476 1.398 . S
C1475 C1481 1.491 . S
C1476 H1467 0.950 . S
C1476 C1475 1.398 . S
C1476 C1477 1.391 . S
C1477 H1465 0.950 . S
C1477 C1473 1.393 . S
C1477 C1476 1.391 . S
C1478 H1468 0.950 . S
C1478 C1479 1.386 . S
C1478 C1480 1.391 . S
C1479 C1478 1.386 . S
C1479 C1483 1.393 . S
C1480 H1469 0.950 . S
C1480 C1478 1.391 . S
C1480 C1481 1.400 . S
C1481 C1475 1.491 . S
C1481 C1480 1.400 . S
C1481 C1482 1.398 . S
C1482 H1470 0.950 . S
C1482 C1481 1.398 . S
C1482 C1483 1.391 . S
C1483 H1471 0.950 . S
C1483 C1479 1.393 . S
C1483 C1482 1.391 . S
H1484 C1492 0.950 . S
H1485 C1497 0.950 . S
H1486 C1494 0.950 . S
H1487 C1496 0.950 . S
H1488 C1498 0.950 . S
H1489 C1500 0.950 . S
H1490 C1502 0.950 . S
H1491 C1503 0.950 . S
C1492 H1484 0.950 . S
C1492 C1493 1.386 . S
C1492 C1494 1.391 . S
C1493 C1492 1.386 . S
C1493 C1497 1.393 . S
C1494 H1486 0.950 . S
C1494 C1492 1.391 . S
C1494 C1495 1.400 . S
C1495 C1494 1.400 . S
C1495 C1496 1.398 . S
C1495 C1501 1.491 1_565 S
C1496 H1487 0.950 . S
C1496 C1495 1.398 . S
C1496 C1497 1.391 . S
C1497 H1485 0.950 . S
C1497 C1493 1.393 . S
C1497 C1496 1.391 . S
C1498 H1488 0.950 . S
C1498 C1499 1.386 . S
C1498 C1500 1.391 . S
C1499 C1498 1.386 . S
C1499 C1503 1.393 . S
C1500 H1489 0.950 . S
C1500 C1498 1.391 . S
C1500 C1501 1.400 . S
C1501 C1495 1.491 1_545 S
C1501 C1500 1.400 . S
C1501 C1502 1.398 . S
C1502 H1490 0.950 . S
C1502 C1501 1.398 . S
C1502 C1503 1.391 . S
C1503 H1491 0.950 . S
C1503 C1499 1.393 . S
C1503 C1502 1.391 . S
H1504 C1512 0.950 . S
H1505 C1517 0.950 . S
H1506 C1514 0.950 . S
H1507 C1516 0.950 . S
H1508 C1518 0.950 . S
H1509 C1520 0.950 . S
H1510 C1522 0.950 . S
H1511 C1523 0.950 . S
C1512 H1504 0.950 . S
C1512 C1513 1.386 . S
C1512 C1514 1.391 . S
C1513 C1512 1.386 . S
C1513 C1517 1.393 . S
C1514 H1506 0.950 . S
C1514 C1512 1.391 . S
C1514 C1515 1.400 . S
C1515 C1514 1.400 . S
C1515 C1516 1.398 . S
C1515 C1521 1.491 1_655 S
C1516 H1507 0.950 . S
C1516 C1515 1.398 . S
C1516 C1517 1.391 . S
C1517 H1505 0.950 . S
C1517 C1513 1.393 . S
C1517 C1516 1.391 . S
C1518 H1508 0.950 . S
C1518 C1519 1.386 . S
C1518 C1520 1.391 . S
C1519 C1518 1.386 . S
C1519 C1523 1.393 . S
C1520 H1509 0.950 . S
C1520 C1518 1.391 . S
C1520 C1521 1.400 . S
C1521 C1515 1.491 1_455 S
C1521 C1520 1.400 . S
C1521 C1522 1.398 . S
C1522 H1510 0.950 . S
C1522 C1521 1.398 . S
C1522 C1523 1.391 . S
C1523 H1511 0.950 . S
C1523 C1519 1.393 . S
C1523 C1522 1.391 . S
H1524 C1532 0.950 . S
H1525 C1537 0.950 . S
H1526 C1534 0.950 . S
H1527 C1536 0.950 . S
H1528 C1538 0.950 . S
H1529 C1540 0.950 . S
H1530 C1542 0.950 . S
H1531 C1543 0.950 . S
C1532 H1524 0.950 . S
C1532 C1533 1.386 . S
C1532 C1534 1.391 . S
C1533 C1532 1.386 . S
C1533 C1537 1.393 . S
C1534 H1526 0.950 . S
C1534 C1532 1.391 . S
C1534 C1535 1.400 . S
C1535 C1534 1.400 . S
C1535 C1536 1.398 . S
C1535 C1541 1.491 . S
C1536 H1527 0.950 . S
C1536 C1535 1.398 . S
C1536 C1537 1.391 . S
C1537 H1525 0.950 . S
C1537 C1533 1.393 . S
C1537 C1536 1.391 . S
C1538 H1528 0.950 . S
C1538 C1539 1.386 . S
C1538 C1540 1.391 . S
C1539 C1538 1.386 . S
C1539 C1543 1.393 . S
C1540 H1529 0.950 . S
C1540 C1538 1.391 . S
C1540 C1541 1.400 . S
C1541 C1535 1.491 . S
C1541 C1540 1.400 . S
C1541 C1542 1.398 . S
C1542 H1530 0.950 . S
C1542 C1541 1.398 . S
C1542 C1543 1.391 . S
C1543 H1531 0.950 . S
C1543 C1539 1.393 . S
C1543 C1542 1.391 . S
H1544 C1552 0.950 . S
H1545 C1557 0.950 . S
H1546 C1554 0.950 . S
H1547 C1556 0.950 . S
H1548 C1558 0.950 . S
H1549 C1560 0.950 . S
H1550 C1562 0.950 . S
H1551 C1563 0.950 . S
C1552 H1544 0.950 . S
C1552 C1553 1.386 . S
C1552 C1554 1.391 . S
C1553 C1552 1.386 . S
C1553 C1557 1.393 . S
C1554 H1546 0.950 . S
C1554 C1552 1.391 . S
C1554 C1555 1.400 . S
C1555 C1554 1.400 . S
C1555 C1556 1.398 . S
C1555 C1561 1.491 1_565 S
C1556 H1547 0.950 . S
C1556 C1555 1.398 . S
C1556 C1557 1.391 . S
C1557 H1545 0.950 . S
C1557 C1553 1.393 . S
C1557 C1556 1.391 . S
C1558 H1548 0.950 . S
C1558 C1559 1.386 . S
C1558 C1560 1.391 . S
C1559 C1558 1.386 . S
C1559 C1563 1.393 . S
C1560 H1549 0.950 . S
C1560 C1558 1.391 . S
C1560 C1561 1.400 . S
C1561 C1555 1.491 1_545 S
C1561 C1560 1.400 . S
C1561 C1562 1.398 . S
C1562 H1550 0.950 . S
C1562 C1561 1.398 . S
C1562 C1563 1.391 . S
C1563 H1551 0.950 . S
C1563 C1559 1.393 . S
C1563 C1562 1.391 . S
H1564 C1572 0.950 . S
H1565 C1577 0.950 . S
H1566 C1574 0.950 . S
H1567 C1576 0.950 . S
H1568 C1578 0.950 . S
H1569 C1580 0.950 . S
H1570 C1582 0.950 . S
H1571 C1583 0.950 . S
C1572 H1564 0.950 . S
C1572 C1573 1.386 . S
C1572 C1574 1.391 . S
C1573 C1572 1.386 . S
C1573 C1577 1.393 . S
C1574 H1566 0.950 . S
C1574 C1572 1.391 . S
C1574 C1575 1.400 . S
C1575 C1574 1.400 . S
C1575 C1576 1.398 . S
C1575 C1581 1.491 1_655 S
C1576 H1567 0.950 . S
C1576 C1575 1.398 . S
C1576 C1577 1.391 . S
C1577 H1565 0.950 . S
C1577 C1573 1.393 . S
C1577 C1576 1.391 . S
C1578 H1568 0.950 . S
C1578 C1579 1.386 . S
C1578 C1580 1.391 . S
C1579 C1578 1.386 . S
C1579 C1583 1.393 . S
C1580 H1569 0.950 . S
C1580 C1578 1.391 . S
C1580 C1581 1.400 . S
C1581 C1575 1.491 1_455 S
C1581 C1580 1.400 . S
C1581 C1582 1.398 . S
C1582 H1570 0.950 . S
C1582 C1581 1.398 . S
C1582 C1583 1.391 . S
C1583 H1571 0.950 . S
C1583 C1579 1.393 . S
C1583 C1582 1.391 . S
H1584 C1592 0.950 . S
H1585 C1597 0.950 . S
H1586 C1594 0.950 . S
H1587 C1596 0.950 . S
H1588 C1598 0.950 . S
H1589 C1600 0.950 . S
H1590 C1602 0.950 . S
H1591 C1603 0.950 . S
C1592 H1584 0.950 . S
C1592 C1593 1.386 . S
C1592 C1594 1.391 . S
C1593 C1592 1.386 . S
C1593 C1597 1.393 . S
C1594 H1586 0.950 . S
C1594 C1592 1.391 . S
C1594 C1595 1.400 . S
C1595 C1594 1.400 . S
C1595 C1596 1.398 . S
C1595 C1601 1.491 . S
C1596 H1587 0.950 . S
C1596 C1595 1.398 . S
C1596 C1597 1.391 . S
C1597 H1585 0.950 . S
C1597 C1593 1.393 . S
C1597 C1596 1.391 . S
C1598 H1588 0.950 . S
C1598 C1599 1.386 . S
C1598 C1600 1.391 . S
C1599 C1598 1.386 . S
C1599 C1603 1.393 . S
C1600 H1589 0.950 . S
C1600 C1598 1.391 . S
C1600 C1601 1.400 . S
C1601 C1595 1.491 . S
C1601 C1600 1.400 . S
C1601 C1602 1.398 . S
C1602 H1590 0.950 . S
C1602 C1601 1.398 . S
C1602 C1603 1.391 . S
C1603 H1591 0.950 . S
C1603 C1599 1.393 . S
C1603 C1602 1.391 . S
H1604 C1612 0.950 . S
H1605 C1617 0.950 . S
H1606 C1614 0.950 . S
H1607 C1616 0.950 . S
H1608 C1618 0.950 . S
H1609 C1620 0.950 . S
H1610 C1622 0.950 . S
H1611 C1623 0.950 . S
C1612 H1604 0.950 . S
C1612 C1613 1.386 . S
C1612 C1614 1.391 . S
C1613 C1612 1.386 . S
C1613 C1617 1.393 . S
C1614 H1606 0.950 . S
C1614 C1612 1.391 . S
C1614 C1615 1.400 . S
C1615 C1614 1.400 . S
C1615 C1616 1.398 . S
C1615 C1621 1.491 . S
C1616 H1607 0.950 . S
C1616 C1615 1.398 . S
C1616 C1617 1.391 . S
C1617 H1605 0.950 . S
C1617 C1613 1.393 . S
C1617 C1616 1.391 . S
C1618 H1608 0.950 . S
C1618 C1619 1.386 . S
C1618 C1620 1.391 . S
C1619 C1618 1.386 . S
C1619 C1623 1.393 . S
C1620 H1609 0.950 . S
C1620 C1618 1.391 . S
C1620 C1621 1.400 . S
C1621 C1615 1.491 . S
C1621 C1620 1.400 . S
C1621 C1622 1.398 . S
C1622 H1610 0.950 . S
C1622 C1621 1.398 . S
C1622 C1623 1.391 . S
C1623 H1611 0.950 . S
C1623 C1619 1.393 . S
C1623 C1622 1.391 . S
H1624 C1632 0.950 . S
H1625 C1637 0.950 . S
H1626 C1634 0.950 . S
H1627 C1636 0.950 . S
H1628 C1638 0.950 . S
H1629 C1640 0.950 . S
H1630 C1642 0.950 . S
H1631 C1643 0.950 . S
C1632 H1624 0.950 . S
C1632 C1633 1.386 . S
C1632 C1634 1.391 . S
C1633 C1632 1.386 . S
C1633 C1637 1.393 . S
C1634 H1626 0.950 . S
C1634 C1632 1.391 . S
C1634 C1635 1.400 . S
C1635 C1634 1.400 . S
C1635 C1636 1.398 . S
C1635 C1641 1.491 . S
C1636 H1627 0.950 . S
C1636 C1635 1.398 . S
C1636 C1637 1.391 . S
C1637 H1625 0.950 . S
C1637 C1633 1.393 . S
C1637 C1636 1.391 . S
C1638 H1628 0.950 . S
C1638 C1639 1.386 . S
C1638 C1640 1.391 . S
C1639 C1638 1.386 . S
C1639 C1643 1.393 . S
C1640 H1629 0.950 . S
C1640 C1638 1.391 . S
C1640 C1641 1.400 . S
C1641 C1635 1.491 . S
C1641 C1640 1.400 . S
C1641 C1642 1.398 . S
C1642 H1630 0.950 . S
C1642 C1641 1.398 . S
C1642 C1643 1.391 . S
C1643 H1631 0.950 . S
C1643 C1639 1.393 . S
C1643 C1642 1.391 . S
H1644 C1652 0.950 . S
H1645 C1657 0.950 . S
H1646 C1654 0.950 . S
H1647 C1656 0.950 . S
H1648 C1658 0.950 . S
H1649 C1660 0.950 . S
H1650 C1662 0.950 . S
H1651 C1663 0.950 . S
C1652 H1644 0.950 . S
C1652 C1653 1.386 . S
C1652 C1654 1.391 . S
C1653 C1652 1.386 . S
C1653 C1657 1.393 . S
C1654 H1646 0.950 . S
C1654 C1652 1.391 . S
C1654 C1655 1.400 . S
C1655 C1654 1.400 . S
C1655 C1656 1.398 . S
C1655 C1661 1.491 . S
C1656 H1647 0.950 . S
C1656 C1655 1.398 . S
C1656 C1657 1.391 . S
C1657 H1645 0.950 . S
C1657 C1653 1.393 . S
C1657 C1656 1.391 . S
C1658 H1648 0.950 . S
C1658 C1659 1.386 . S
C1658 C1660 1.391 . S
C1659 C1658 1.386 . S
C1659 C1663 1.393 . S
C1660 H1649 0.950 . S
C1660 C1658 1.391 . S
C1660 C1661 1.400 . S
C1661 C1655 1.491 . S
C1661 C1660 1.400 . S
C1661 C1662 1.398 . S
C1662 H1650 0.950 . S
C1662 C1661 1.398 . S
C1662 C1663 1.391 . S
C1663 H1651 0.950 . S
C1663 C1659 1.393 . S
C1663 C1662 1.391 . S
H1664 C1672 0.950 . S
H1665 C1677 0.950 . S
H1666 C1674 0.950 . S
H1667 C1676 0.950 . S
H1668 C1678 0.950 . S
H1669 C1680 0.950 . S
H1670 C1682 0.950 . S
H1671 C1683 0.950 . S
C1672 H1664 0.950 . S
C1672 C1673 1.386 . S
C1672 C1674 1.391 . S
C1673 C1672 1.386 . S
C1673 C1677 1.393 . S
C1674 H1666 0.950 . S
C1674 C1672 1.391 . S
C1674 C1675 1.400 . S
C1675 C1674 1.400 . S
C1675 C1676 1.398 . S
C1675 C1681 1.491 . S
C1676 H1667 0.950 . S
C1676 C1675 1.398 . S
C1676 C1677 1.391 . S
C1677 H1665 0.950 . S
C1677 C1673 1.393 . S
C1677 C1676 1.391 . S
C1678 H1668 0.950 . S
C1678 C1679 1.386 . S
C1678 C1680 1.391 . S
C1679 C1678 1.386 . S
C1679 C1683 1.393 . S
C1680 H1669 0.950 . S
C1680 C1678 1.391 . S
C1680 C1681 1.400 . S
C1681 C1675 1.491 . S
C1681 C1680 1.400 . S
C1681 C1682 1.398 . S
C1682 H1670 0.950 . S
C1682 C1681 1.398 . S
C1682 C1683 1.391 . S
C1683 H1671 0.950 . S
C1683 C1679 1.393 . S
C1683 C1682 1.391 . S
H1684 C1692 0.950 . S
H1685 C1697 0.950 . S
H1686 C1694 0.950 . S
H1687 C1696 0.950 . S
H1688 C1698 0.950 . S
H1689 C1700 0.950 . S
H1690 C1702 0.950 . S
H1691 C1703 0.950 . S
C1692 H1684 0.950 . S
C1692 C1693 1.386 . S
C1692 C1694 1.391 . S
C1693 C1692 1.386 . S
C1693 C1697 1.393 . S
C1694 H1686 0.950 . S
C1694 C1692 1.391 . S
C1694 C1695 1.400 . S
C1695 C1694 1.400 . S
C1695 C1696 1.398 . S
C1695 C1701 1.491 . S
C1696 H1687 0.950 . S
C1696 C1695 1.398 . S
C1696 C1697 1.391 . S
C1697 H1685 0.950 . S
C1697 C1693 1.393 . S
C1697 C1696 1.391 . S
C1698 H1688 0.950 . S
C1698 C1699 1.386 . S
C1698 C1700 1.391 . S
C1699 C1698 1.386 . S
C1699 C1703 1.393 . S
C1700 H1689 0.950 . S
C1700 C1698 1.391 . S
C1700 C1701 1.400 . S
C1701 C1695 1.491 . S
C1701 C1700 1.400 . S
C1701 C1702 1.398 . S
C1702 H1690 0.950 . S
C1702 C1701 1.398 . S
C1702 C1703 1.391 . S
C1703 H1691 0.950 . S
C1703 C1699 1.393 . S
C1703 C1702 1.391 . S
H1704 C1712 0.950 . S
H1705 C1717 0.950 . S
H1706 C1714 0.950 . S
H1707 C1716 0.950 . S
H1708 C1718 0.950 . S
H1709 C1720 0.950 . S
H1710 C1722 0.950 . S
H1711 C1723 0.950 . S
C1712 H1704 0.950 . S
C1712 C1713 1.386 . S
C1712 C1714 1.391 . S
C1713 C1712 1.386 . S
C1713 C1717 1.393 . S
C1714 H1706 0.950 . S
C1714 C1712 1.391 . S
C1714 C1715 1.400 . S
C1715 C1714 1.400 . S
C1715 C1716 1.398 . S
C1715 C1721 1.491 . S
C1716 H1707 0.950 . S
C1716 C1715 1.398 . S
C1716 C1717 1.391 . S
C1717 H1705 0.950 . S
C1717 C1713 1.393 . S
C1717 C1716 1.391 . S
C1718 H1708 0.950 . S
C1718 C1719 1.386 . S
C1718 C1720 1.391 . S
C1719 C1718 1.386 . S
C1719 C1723 1.393 . S
C1720 H1709 0.950 . S
C1720 C1718 1.391 . S
C1720 C1721 1.400 . S
C1721 C1715 1.491 . S
C1721 C1720 1.400 . S
C1721 C1722 1.398 . S
C1722 H1710 0.950 . S
C1722 C1721 1.398 . S
C1722 C1723 1.391 . S
C1723 H1711 0.950 . S
C1723 C1719 1.393 . S
C1723 C1722 1.391 . S
H1724 C1732 0.950 . S
H1725 C1737 0.950 . S
H1726 C1734 0.950 . S
H1727 C1736 0.950 . S
H1728 C1738 0.950 . S
H1729 C1740 0.950 . S
H1730 C1742 0.950 . S
H1731 C1743 0.950 . S
C1732 H1724 0.950 . S
C1732 C1733 1.386 . S
C1732 C1734 1.391 . S
C1733 C1732 1.386 . S
C1733 C1737 1.393 . S
C1734 H1726 0.950 . S
C1734 C1732 1.391 . S
C1734 C1735 1.400 . S
C1735 C1734 1.400 . S
C1735 C1736 1.398 . S
C1735 C1741 1.491 . S
C1736 H1727 0.950 . S
C1736 C1735 1.398 . S
C1736 C1737 1.391 . S
C1737 H1725 0.950 . S
C1737 C1733 1.393 . S
C1737 C1736 1.391 . S
C1738 H1728 0.950 . S
C1738 C1739 1.386 . S
C1738 C1740 1.391 . S
C1739 C1738 1.386 . S
C1739 C1743 1.393 . S
C1740 H1729 0.950 . S
C1740 C1738 1.391 . S
C1740 C1741 1.400 . S
C1741 C1735 1.491 . S
C1741 C1740 1.400 . S
C1741 C1742 1.398 . S
C1742 H1730 0.950 . S
C1742 C1741 1.398 . S
C1742 C1743 1.391 . S
C1743 H1731 0.950 . S
C1743 C1739 1.393 . S
C1743 C1742 1.391 . S
H1744 C1752 0.950 . S
H1745 C1757 0.950 . S
H1746 C1754 0.950 . S
H1747 C1756 0.950 . S
H1748 C1758 0.950 . S
H1749 C1760 0.950 . S
H1750 C1762 0.950 . S
H1751 C1763 0.950 . S
C1752 H1744 0.950 . S
C1752 C1753 1.386 . S
C1752 C1754 1.391 . S
C1753 C1752 1.386 . S
C1753 C1757 1.393 . S
C1754 H1746 0.950 . S
C1754 C1752 1.391 . S
C1754 C1755 1.400 . S
C1755 C1754 1.400 . S
C1755 C1756 1.398 . S
C1755 C1761 1.491 . S
C1756 H1747 0.950 . S
C1756 C1755 1.398 . S
C1756 C1757 1.391 . S
C1757 H1745 0.950 . S
C1757 C1753 1.393 . S
C1757 C1756 1.391 . S
C1758 H1748 0.950 . S
C1758 C1759 1.386 . S
C1758 C1760 1.391 . S
C1759 C1758 1.386 . S
C1759 C1763 1.393 . S
C1760 H1749 0.950 . S
C1760 C1758 1.391 . S
C1760 C1761 1.400 . S
C1761 C1755 1.491 . S
C1761 C1760 1.400 . S
C1761 C1762 1.398 . S
C1762 H1750 0.950 . S
C1762 C1761 1.398 . S
C1762 C1763 1.391 . S
C1763 H1751 0.950 . S
C1763 C1759 1.393 . S
C1763 C1762 1.391 . S
H1764 C1772 0.950 . S
H1765 C1777 0.950 . S
H1766 C1774 0.950 . S
H1767 C1776 0.950 . S
H1768 C1778 0.950 . S
H1769 C1780 0.950 . S
H1770 C1782 0.950 . S
H1771 C1783 0.950 . S
C1772 H1764 0.950 . S
C1772 C1773 1.386 . S
C1772 C1774 1.391 . S
C1773 C1772 1.386 . S
C1773 C1777 1.393 . S
C1774 H1766 0.950 . S
C1774 C1772 1.391 . S
C1774 C1775 1.400 . S
C1775 C1774 1.400 . S
C1775 C1776 1.398 . S
C1775 C1781 1.491 . S
C1776 H1767 0.950 . S
C1776 C1775 1.398 . S
C1776 C1777 1.391 . S
C1777 H1765 0.950 . S
C1777 C1773 1.393 . S
C1777 C1776 1.391 . S
C1778 H1768 0.950 . S
C1778 C1779 1.386 . S
C1778 C1780 1.391 . S
C1779 C1778 1.386 . S
C1779 C1783 1.393 . S
C1780 H1769 0.950 . S
C1780 C1778 1.391 . S
C1780 C1781 1.400 . S
C1781 C1775 1.491 . S
C1781 C1780 1.400 . S
C1781 C1782 1.398 . S
C1782 H1770 0.950 . S
C1782 C1781 1.398 . S
C1782 C1783 1.391 . S
C1783 H1771 0.950 . S
C1783 C1779 1.393 . S
C1783 C1782 1.391 . S
H1784 C1792 0.950 . S
H1785 C1797 0.950 . S
H1786 C1794 0.950 . S
H1787 C1796 0.950 . S
H1788 C1798 0.950 . S
H1789 C1800 0.950 . S
H1790 C1802 0.950 . S
H1791 C1803 0.950 . S
C1792 H1784 0.950 . S
C1792 C1793 1.386 . S
C1792 C1794 1.391 . S
C1793 C1792 1.386 . S
C1793 C1797 1.393 . S
C1794 H1786 0.950 . S
C1794 C1792 1.391 . S
C1794 C1795 1.400 . S
C1795 C1794 1.400 . S
C1795 C1796 1.398 . S
C1795 C1801 1.491 . S
C1796 H1787 0.950 . S
C1796 C1795 1.398 . S
C1796 C1797 1.391 . S
C1797 H1785 0.950 . S
C1797 C1793 1.393 . S
C1797 C1796 1.391 . S
C1798 H1788 0.950 . S
C1798 C1799 1.386 . S
C1798 C1800 1.391 . S
C1799 C1798 1.386 . S
C1799 C1803 1.393 . S
C1800 H1789 0.950 . S
C1800 C1798 1.391 . S
C1800 C1801 1.400 . S
C1801 C1795 1.491 . S
C1801 C1800 1.400 . S
C1801 C1802 1.398 . S
C1802 H1790 0.950 . S
C1802 C1801 1.398 . S
C1802 C1803 1.391 . S
C1803 H1791 0.950 . S
C1803 C1799 1.393 . S
C1803 C1802 1.391 . S
H1804 C1812 0.950 . S
H1805 C1817 0.950 . S
H1806 C1814 0.950 . S
H1807 C1816 0.950 . S
H1808 C1818 0.950 . S
H1809 C1820 0.950 . S
H1810 C1822 0.950 . S
H1811 C1823 0.950 . S
C1812 H1804 0.950 . S
C1812 C1813 1.386 . S
C1812 C1814 1.391 . S
C1813 C1812 1.386 . S
C1813 C1817 1.393 . S
C1814 H1806 0.950 . S
C1814 C1812 1.391 . S
C1814 C1815 1.400 . S
C1815 C1814 1.400 . S
C1815 C1816 1.398 . S
C1815 C1821 1.491 . S
C1816 H1807 0.950 . S
C1816 C1815 1.398 . S
C1816 C1817 1.391 . S
C1817 H1805 0.950 . S
C1817 C1813 1.393 . S
C1817 C1816 1.391 . S
C1818 H1808 0.950 . S
C1818 C1819 1.386 . S
C1818 C1820 1.391 . S
C1819 C1818 1.386 . S
C1819 C1823 1.393 . S
C1820 H1809 0.950 . S
C1820 C1818 1.391 . S
C1820 C1821 1.400 . S
C1821 C1815 1.491 . S
C1821 C1820 1.400 . S
C1821 C1822 1.398 . S
C1822 H1810 0.950 . S
C1822 C1821 1.398 . S
C1822 C1823 1.391 . S
C1823 H1811 0.950 . S
C1823 C1819 1.393 . S
C1823 C1822 1.391 . S
H1824 C1832 0.950 . S
H1825 C1837 0.950 . S
H1826 C1834 0.950 . S
H1827 C1836 0.950 . S
H1828 C1838 0.950 . S
H1829 C1840 0.950 . S
H1830 C1842 0.950 . S
H1831 C1843 0.950 . S
C1832 H1824 0.950 . S
C1832 C1833 1.386 . S
C1832 C1834 1.391 . S
C1833 C1832 1.386 . S
C1833 C1837 1.393 1_556 S
C1834 H1826 0.950 . S
C1834 C1832 1.391 . S
C1834 C1835 1.400 . S
C1835 C1834 1.400 . S
C1835 C1836 1.398 1_556 S
C1835 C1841 1.491 1_656 S
C1836 H1827 0.950 . S
C1836 C1835 1.398 1_554 S
C1836 C1837 1.391 . S
C1837 H1825 0.950 . S
C1837 C1833 1.393 1_554 S
C1837 C1836 1.391 . S
C1838 H1828 0.950 . S
C1838 C1839 1.386 . S
C1838 C1840 1.391 . S
C1839 C1838 1.386 . S
C1839 C1843 1.393 1_554 S
C1840 H1829 0.950 . S
C1840 C1838 1.391 . S
C1840 C1841 1.400 . S
C1841 C1835 1.491 1_454 S
C1841 C1840 1.400 . S
C1841 C1842 1.398 1_554 S
C1842 H1830 0.950 . S
C1842 C1841 1.398 1_556 S
C1842 C1843 1.391 . S
C1843 H1831 0.950 . S
C1843 C1839 1.393 1_556 S
C1843 C1842 1.391 . S
H1844 C1852 0.950 . S
H1845 C1857 0.950 . S
H1846 C1854 0.950 . S
H1847 C1856 0.950 . S
H1848 C1858 0.950 . S
H1849 C1860 0.950 . S
H1850 C1862 0.950 . S
H1851 C1863 0.950 . S
C1852 H1844 0.950 . S
C1852 C1853 1.386 . S
C1852 C1854 1.391 . S
C1853 C1852 1.386 . S
C1853 C1857 1.393 1_556 S
C1854 H1846 0.950 . S
C1854 C1852 1.391 . S
C1854 C1855 1.400 . S
C1855 C1854 1.400 . S
C1855 C1856 1.398 1_556 S
C1855 C1861 1.491 1_556 S
C1856 H1847 0.950 . S
C1856 C1855 1.398 1_554 S
C1856 C1857 1.391 . S
C1857 H1845 0.950 . S
C1857 C1853 1.393 1_554 S
C1857 C1856 1.391 . S
C1858 H1848 0.950 . S
C1858 C1859 1.386 . S
C1858 C1860 1.391 . S
C1859 C1858 1.386 . S
C1859 C1863 1.393 1_554 S
C1860 H1849 0.950 . S
C1860 C1858 1.391 . S
C1860 C1861 1.400 . S
C1861 C1855 1.491 1_554 S
C1861 C1860 1.400 . S
C1861 C1862 1.398 1_554 S
C1862 H1850 0.950 . S
C1862 C1861 1.398 1_556 S
C1862 C1863 1.391 . S
C1863 H1851 0.950 . S
C1863 C1859 1.393 1_556 S
C1863 C1862 1.391 . S
H1864 C1872 0.950 . S
H1865 C1877 0.950 . S
H1866 C1874 0.950 . S
H1867 C1876 0.950 1_556 S
H1868 C1878 0.950 . S
H1869 C1880 0.950 . S
H1870 C1882 0.950 1_554 S
H1871 C1883 0.950 . S
C1872 H1864 0.950 . S
C1872 C1873 1.386 . S
C1872 C1874 1.391 . S
C1873 C1872 1.386 . S
C1873 C1877 1.393 . S
C1874 H1866 0.950 . S
C1874 C1872 1.391 . S
C1874 C1875 1.400 . S
C1875 C1874 1.400 . S
C1875 C1876 1.398 . S
C1875 C1881 1.491 1_564 S
C1876 H1867 0.950 1_554 S
C1876 C1875 1.398 . S
C1876 C1877 1.391 . S
C1877 H1865 0.950 . S
C1877 C1873 1.393 . S
C1877 C1876 1.391 . S
C1878 H1868 0.950 . S
C1878 C1879 1.386 . S
C1878 C1880 1.391 . S
C1879 C1878 1.386 . S
C1879 C1883 1.393 . S
C1880 H1869 0.950 . S
C1880 C1878 1.391 . S
C1880 C1881 1.400 . S
C1881 C1875 1.491 1_546 S
C1881 C1880 1.400 . S
C1881 C1882 1.398 . S
C1882 H1870 0.950 1_556 S
C1882 C1881 1.398 . S
C1882 C1883 1.391 . S
C1883 H1871 0.950 . S
C1883 C1879 1.393 . S
C1883 C1882 1.391 . S
H1884 C1892 0.950 . S
H1885 C1897 0.950 . S
H1886 C1894 0.950 . S
H1887 C1896 0.950 . S
H1888 C1898 0.950 . S
H1889 C1900 0.950 . S
H1890 C1902 0.950 . S
H1891 C1903 0.950 . S
C1892 H1884 0.950 . S
C1892 C1893 1.386 . S
C1892 C1894 1.391 . S
C1893 C1892 1.386 . S
C1893 C1897 1.393 . S
C1894 H1886 0.950 . S
C1894 C1892 1.391 . S
C1894 C1895 1.400 . S
C1895 C1894 1.400 . S
C1895 C1896 1.398 . S
C1895 C1901 1.491 1_564 S
C1896 H1887 0.950 . S
C1896 C1895 1.398 . S
C1896 C1897 1.391 . S
C1897 H1885 0.950 . S
C1897 C1893 1.393 . S
C1897 C1896 1.391 . S
C1898 H1888 0.950 . S
C1898 C1899 1.386 . S
C1898 C1900 1.391 . S
C1899 C1898 1.386 . S
C1899 C1903 1.393 . S
C1900 H1889 0.950 . S
C1900 C1898 1.391 . S
C1900 C1901 1.400 . S
C1901 C1895 1.491 1_546 S
C1901 C1900 1.400 . S
C1901 C1902 1.398 . S
C1902 H1890 0.950 . S
C1902 C1901 1.398 . S
C1902 C1903 1.391 . S
C1903 H1891 0.950 . S
C1903 C1899 1.393 . S
C1903 C1902 1.391 . S
H1904 C1912 0.950 1_554 S
H1905 C1917 0.950 . S
H1906 C1914 0.950 . S
H1907 C1916 0.950 . S
H1908 C1918 0.950 1_556 S
H1909 C1920 0.950 . S
H1910 C1922 0.950 . S
H1911 C1923 0.950 . S
C1912 H1904 0.950 1_556 S
C1912 C1913 1.386 . S
C1912 C1914 1.391 1_556 S
C1913 C1912 1.386 . S
C1913 C1917 1.393 . S
C1914 H1906 0.950 . S
C1914 C1912 1.391 1_554 S
C1914 C1915 1.400 1_554 S
C1915 C1914 1.400 1_556 S
C1915 C1916 1.398 . S
C1915 C1921 1.491 1_656 S
C1916 H1907 0.950 . S
C1916 C1915 1.398 . S
C1916 C1917 1.391 . S
C1917 H1905 0.950 . S
C1917 C1913 1.393 . S
C1917 C1916 1.391 . S
C1918 H1908 0.950 1_554 S
C1918 C1919 1.386 . S
C1918 C1920 1.391 1_554 S
C1919 C1918 1.386 . S
C1919 C1923 1.393 . S
C1920 H1909 0.950 . S
C1920 C1918 1.391 1_556 S
C1920 C1921 1.400 1_556 S
C1921 C1915 1.491 1_454 S
C1921 C1920 1.400 1_554 S
C1921 C1922 1.398 . S
C1922 H1910 0.950 . S
C1922 C1921 1.398 . S
C1922 C1923 1.391 . S
C1923 H1911 0.950 . S
C1923 C1919 1.393 . S
C1923 C1922 1.391 . S
H1924 C1932 0.950 . S
H1925 C1937 0.950 . S
H1926 C1934 0.950 1_554 S
H1927 C1936 0.950 . S
H1928 C1938 0.950 . S
H1929 C1940 0.950 1_556 S
H1930 C1942 0.950 . S
H1931 C1943 0.950 . S
C1932 H1924 0.950 . S
C1932 C1933 1.386 . S
C1932 C1934 1.391 . S
C1933 C1932 1.386 . S
C1933 C1937 1.393 . S
C1934 H1926 0.950 1_556 S
C1934 C1932 1.391 . S
C1934 C1935 1.400 . S
C1935 C1934 1.400 . S
C1935 C1936 1.398 . S
C1935 C1941 1.491 1_556 S
C1936 H1927 0.950 . S
C1936 C1935 1.398 . S
C1936 C1937 1.391 . S
C1937 H1925 0.950 . S
C1937 C1933 1.393 . S
C1937 C1936 1.391 . S
C1938 H1928 0.950 . S
C1938 C1939 1.386 . S
C1938 C1940 1.391 . S
C1939 C1938 1.386 . S
C1939 C1943 1.393 . S
C1940 H1929 0.950 1_554 S
C1940 C1938 1.391 . S
C1940 C1941 1.400 . S
C1941 C1935 1.491 1_554 S
C1941 C1940 1.400 . S
C1941 C1942 1.398 . S
C1942 H1930 0.950 . S
C1942 C1941 1.398 . S
C1942 C1943 1.391 . S
C1943 H1931 0.950 . S
C1943 C1939 1.393 . S
C1943 C1942 1.391 . S
H1944 C1952 0.950 . S
H1945 C1957 0.950 . S
H1946 C1954 0.950 . S
H1947 C1956 0.950 . S
H1948 C1958 0.950 . S
H1949 C1960 0.950 . S
H1950 C1962 0.950 . S
H1951 C1963 0.950 . S
C1952 H1944 0.950 . S
C1952 C1953 1.386 . S
C1952 C1954 1.391 . S
C1953 C1952 1.386 . S
C1953 C1957 1.393 . S
C1954 H1946 0.950 . S
C1954 C1952 1.391 . S
C1954 C1955 1.400 . S
C1955 C1954 1.400 . S
C1955 C1956 1.398 . S
C1955 C1961 1.491 . S
C1956 H1947 0.950 . S
C1956 C1955 1.398 . S
C1956 C1957 1.391 . S
C1957 H1945 0.950 . S
C1957 C1953 1.393 . S
C1957 C1956 1.391 . S
C1958 H1948 0.950 . S
C1958 C1959 1.386 . S
C1958 C1960 1.391 . S
C1959 C1958 1.386 . S
C1959 C1963 1.393 . S
C1960 H1949 0.950 . S
C1960 C1958 1.391 . S
C1960 C1961 1.400 . S
C1961 C1955 1.491 . S
C1961 C1960 1.400 . S
C1961 C1962 1.398 . S
C1962 H1950 0.950 . S
C1962 C1961 1.398 . S
C1962 C1963 1.391 . S
C1963 H1951 0.950 . S
C1963 C1959 1.393 . S
C1963 C1962 1.391 . S
H1964 C1972 0.950 . S
H1965 C1977 0.950 . S
H1966 C1974 0.950 . S
H1967 C1976 0.950 . S
H1968 C1978 0.950 . S
H1969 C1980 0.950 . S
H1970 C1982 0.950 . S
H1971 C1983 0.950 . S
C1972 H1964 0.950 . S
C1972 C1973 1.386 . S
C1972 C1974 1.391 . S
C1973 C1972 1.386 . S
C1973 C1977 1.393 . S
C1974 H1966 0.950 . S
C1974 C1972 1.391 . S
C1974 C1975 1.400 . S
C1975 C1974 1.400 . S
C1975 C1976 1.398 . S
C1975 C1981 1.491 . S
C1976 H1967 0.950 . S
C1976 C1975 1.398 . S
C1976 C1977 1.391 . S
C1977 H1965 0.950 . S
C1977 C1973 1.393 . S
C1977 C1976 1.391 . S
C1978 H1968 0.950 . S
C1978 C1979 1.386 . S
C1978 C1980 1.391 . S
C1979 C1978 1.386 . S
C1979 C1983 1.393 . S
C1980 H1969 0.950 . S
C1980 C1978 1.391 . S
C1980 C1981 1.400 . S
C1981 C1975 1.491 . S
C1981 C1980 1.400 . S
C1981 C1982 1.398 . S
C1982 H1970 0.950 . S
C1982 C1981 1.398 . S
C1982 C1983 1.391 . S
C1983 H1971 0.950 . S
C1983 C1979 1.393 . S
C1983 C1982 1.391 . S
H1984 C1992 0.950 . S
H1985 C1997 0.950 . S
H1986 C1994 0.950 . S
H1987 C1996 0.950 . S
H1988 C1998 0.950 . S
H1989 C2000 0.950 . S
H1990 C2002 0.950 . S
H1991 C2003 0.950 . S
C1992 H1984 0.950 . S
C1992 C1993 1.386 . S
C1992 C1994 1.391 . S
C1993 C1992 1.386 . S
C1993 C1997 1.393 . S
C1994 H1986 0.950 . S
C1994 C1992 1.391 . S
C1994 C1995 1.400 . S
C1995 C1994 1.400 . S
C1995 C1996 1.398 . S
C1995 C2001 1.491 . S
C1996 H1987 0.950 . S
C1996 C1995 1.398 . S
C1996 C1997 1.391 . S
C1997 H1985 0.950 . S
C1997 C1993 1.393 . S
C1997 C1996 1.391 . S
C1998 H1988 0.950 . S
C1998 C1999 1.386 . S
C1998 C2000 1.391 . S
C1999 C1998 1.386 . S
C1999 C2003 1.393 . S
C2000 H1989 0.950 . S
C2000 C1998 1.391 . S
C2000 C2001 1.400 . S
C2001 C1995 1.491 . S
C2001 C2000 1.400 . S
C2001 C2002 1.398 . S
C2002 H1990 0.950 . S
C2002 C2001 1.398 . S
C2002 C2003 1.391 . S
C2003 H1991 0.950 . S
C2003 C1999 1.393 . S
C2003 C2002 1.391 . S
H2004 C2012 0.950 . S
H2005 C2017 0.950 . S
H2006 C2014 0.950 . S
H2007 C2016 0.950 . S
H2008 C2018 0.950 . S
H2009 C2020 0.950 . S
H2010 C2022 0.950 . S
H2011 C2023 0.950 . S
C2012 H2004 0.950 . S
C2012 C2013 1.386 . S
C2012 C2014 1.391 . S
C2013 C2012 1.386 . S
C2013 C2017 1.393 . S
C2014 H2006 0.950 . S
C2014 C2012 1.391 . S
C2014 C2015 1.400 . S
C2015 C2014 1.400 . S
C2015 C2016 1.398 . S
C2015 C2021 1.491 . S
C2016 H2007 0.950 . S
C2016 C2015 1.398 . S
C2016 C2017 1.391 . S
C2017 H2005 0.950 . S
C2017 C2013 1.393 . S
C2017 C2016 1.391 . S
C2018 H2008 0.950 . S
C2018 C2019 1.386 . S
C2018 C2020 1.391 . S
C2019 C2018 1.386 . S
C2019 C2023 1.393 . S
C2020 H2009 0.950 . S
C2020 C2018 1.391 . S
C2020 C2021 1.400 . S
C2021 C2015 1.491 . S
C2021 C2020 1.400 . S
C2021 C2022 1.398 . S
C2022 H2010 0.950 . S
C2022 C2021 1.398 . S
C2022 C2023 1.391 . S
C2023 H2011 0.950 . S
C2023 C2019 1.393 . S
C2023 C2022 1.391 . S
H2024 C2032 0.950 . S
H2025 C2037 0.950 . S
H2026 C2034 0.950 . S
H2027 C2036 0.950 . S
H2028 C2038 0.950 . S
H2029 C2040 0.950 . S
H2030 C2042 0.950 . S
H2031 C2043 0.950 . S
C2032 H2024 0.950 . S
C2032 C2033 1.386 . S
C2032 C2034 1.391 . S
C2033 C2032 1.386 . S
C2033 C2037 1.393 . S
C2034 H2026 0.950 . S
C2034 C2032 1.391 . S
C2034 C2035 1.400 . S
C2035 C2034 1.400 . S
C2035 C2036 1.398 . S
C2035 C2041 1.491 . S
C2036 H2027 0.950 . S
C2036 C2035 1.398 . S
C2036 C2037 1.391 . S
C2037 H2025 0.950 . S
C2037 C2033 1.393 . S
C2037 C2036 1.391 . S
C2038 H2028 0.950 . S
C2038 C2039 1.386 . S
C2038 C2040 1.391 . S
C2039 C2038 1.386 . S
C2039 C2043 1.393 . S
C2040 H2029 0.950 . S
C2040 C2038 1.391 . S
C2040 C2041 1.400 . S
C2041 C2035 1.491 . S
C2041 C2040 1.400 . S
C2041 C2042 1.398 . S
C2042 H2030 0.950 . S
C2042 C2041 1.398 . S
C2042 C2043 1.391 . S
C2043 H2031 0.950 . S
C2043 C2039 1.393 . S
C2043 C2042 1.391 . S
H2044 C2052 0.950 . S
H2045 C2057 0.950 . S
H2046 C2054 0.950 . S
H2047 C2056 0.950 . S
H2048 C2058 0.950 . S
H2049 C2060 0.950 . S
H2050 C2062 0.950 . S
H2051 C2063 0.950 . S
C2052 H2044 0.950 . S
C2052 C2053 1.386 . S
C2052 C2054 1.391 . S
C2053 C2052 1.386 . S
C2053 C2057 1.393 . S
C2054 H2046 0.950 . S
C2054 C2052 1.391 . S
C2054 C2055 1.400 . S
C2055 C2054 1.400 . S
C2055 C2056 1.398 . S
C2055 C2061 1.491 . S
C2056 H2047 0.950 . S
C2056 C2055 1.398 . S
C2056 C2057 1.391 . S
C2057 H2045 0.950 . S
C2057 C2053 1.393 . S
C2057 C2056 1.391 . S
C2058 H2048 0.950 . S
C2058 C2059 1.386 . S
C2058 C2060 1.391 . S
C2059 C2058 1.386 . S
C2059 C2063 1.393 . S
C2060 H2049 0.950 . S
C2060 C2058 1.391 . S
C2060 C2061 1.400 . S
C2061 C2055 1.491 . S
C2061 C2060 1.400 . S
C2061 C2062 1.398 . S
C2062 H2050 0.950 . S
C2062 C2061 1.398 . S
C2062 C2063 1.391 . S
C2063 H2051 0.950 . S
C2063 C2059 1.393 . S
C2063 C2062 1.391 . S
H2064 C2072 0.950 . S
H2065 C2077 0.950 . S
H2066 C2074 0.950 . S
H2067 C2076 0.950 . S
H2068 C2078 0.950 . S
H2069 C2080 0.950 . S
H2070 C2082 0.950 . S
H2071 C2083 0.950 . S
C2072 H2064 0.950 . S
C2072 C2073 1.386 . S
C2072 C2074 1.391 . S
C2073 C2072 1.386 . S
C2073 C2077 1.393 . S
C2074 H2066 0.950 . S
C2074 C2072 1.391 . S
C2074 C2075 1.400 . S
C2075 C2074 1.400 . S
C2075 C2076 1.398 . S
C2075 C2081 1.491 . S
C2076 H2067 0.950 . S
C2076 C2075 1.398 . S
C2076 C2077 1.391 . S
C2077 H2065 0.950 . S
C2077 C2073 1.393 . S
C2077 C2076 1.391 . S
C2078 H2068 0.950 . S
C2078 C2079 1.386 . S
C2078 C2080 1.391 . S
C2079 C2078 1.386 . S
C2079 C2083 1.393 . S
C2080 H2069 0.950 . S
C2080 C2078 1.391 . S
C2080 C2081 1.400 . S
C2081 C2075 1.491 . S
C2081 C2080 1.400 . S
C2081 C2082 1.398 . S
C2082 H2070 0.950 . S
C2082 C2081 1.398 . S
C2082 C2083 1.391 . S
C2083 H2071 0.950 . S
C2083 C2079 1.393 . S
C2083 C2082 1.391 . S
H2084 C2092 0.950 . S
H2085 C2097 0.950 . S
H2086 C2094 0.950 . S
H2087 C2096 0.950 . S
H2088 C2098 0.950 . S
H2089 C2100 0.950 . S
H2090 C2102 0.950 . S
H2091 C2103 0.950 . S
C2092 H2084 0.950 . S
C2092 C2093 1.386 . S
C2092 C2094 1.391 . S
C2093 C2092 1.386 . S
C2093 C2097 1.393 . S
C2094 H2086 0.950 . S
C2094 C2092 1.391 . S
C2094 C2095 1.400 . S
C2095 C2094 1.400 . S
C2095 C2096 1.398 . S
C2095 C2101 1.491 . S
C2096 H2087 0.950 . S
C2096 C2095 1.398 . S
C2096 C2097 1.391 . S
C2097 H2085 0.950 . S
C2097 C2093 1.393 . S
C2097 C2096 1.391 . S
C2098 H2088 0.950 . S
C2098 C2099 1.386 . S
C2098 C2100 1.391 . S
C2099 C2098 1.386 . S
C2099 C2103 1.393 . S
C2100 H2089 0.950 . S
C2100 C2098 1.391 . S
C2100 C2101 1.400 . S
C2101 C2095 1.491 . S
C2101 C2100 1.400 . S
C2101 C2102 1.398 . S
C2102 H2090 0.950 . S
C2102 C2101 1.398 . S
C2102 C2103 1.391 . S
C2103 H2091 0.950 . S
C2103 C2099 1.393 . S
C2103 C2102 1.391 . S
H2104 C2112 0.950 . S
H2105 C2117 0.950 . S
H2106 C2114 0.950 . S
H2107 C2116 0.950 . S
H2108 C2118 0.950 . S
H2109 C2120 0.950 . S
H2110 C2122 0.950 . S
H2111 C2123 0.950 . S
C2112 H2104 0.950 . S
C2112 C2113 1.386 . S
C2112 C2114 1.391 . S
C2113 C2112 1.386 . S
C2113 C2117 1.393 . S
C2114 H2106 0.950 . S
C2114 C2112 1.391 . S
C2114 C2115 1.400 . S
C2115 C2114 1.400 . S
C2115 C2116 1.398 . S
C2115 C2121 1.491 . S
C2116 H2107 0.950 . S
C2116 C2115 1.398 . S
C2116 C2117 1.391 . S
C2117 H2105 0.950 . S
C2117 C2113 1.393 . S
C2117 C2116 1.391 . S
C2118 H2108 0.950 . S
C2118 C2119 1.386 . S
C2118 C2120 1.391 . S
C2119 C2118 1.386 . S
C2119 C2123 1.393 . S
C2120 H2109 0.950 . S
C2120 C2118 1.391 . S
C2120 C2121 1.400 . S
C2121 C2115 1.491 . S
C2121 C2120 1.400 . S
C2121 C2122 1.398 . S
C2122 H2110 0.950 . S
C2122 C2121 1.398 . S
C2122 C2123 1.391 . S
C2123 H2111 0.950 . S
C2123 C2119 1.393 . S
C2123 C2122 1.391 . S
H2124 C2132 0.950 . S
H2125 C2137 0.950 . S
H2126 C2134 0.950 . S
H2127 C2136 0.950 . S
H2128 C2138 0.950 . S
H2129 C2140 0.950 . S
H2130 C2142 0.950 . S
H2131 C2143 0.950 . S
C2132 H2124 0.950 . S
C2132 C2133 1.386 . S
C2132 C2134 1.391 . S
C2133 C2132 1.386 . S
C2133 C2137 1.393 . S
C2134 H2126 0.950 . S
C2134 C2132 1.391 . S
C2134 C2135 1.400 . S
C2135 C2134 1.400 . S
C2135 C2136 1.398 . S
C2135 C2141 1.491 . S
C2136 H2127 0.950 . S
C2136 C2135 1.398 . S
C2136 C2137 1.391 . S
C2137 H2125 0.950 . S
C2137 C2133 1.393 . S
C2137 C2136 1.391 . S
C2138 H2128 0.950 . S
C2138 C2139 1.386 . S
C2138 C2140 1.391 . S
C2139 C2138 1.386 . S
C2139 C2143 1.393 . S
C2140 H2129 0.950 . S
C2140 C2138 1.391 . S
C2140 C2141 1.400 . S
C2141 C2135 1.491 . S
C2141 C2140 1.400 . S
C2141 C2142 1.398 . S
C2142 H2130 0.950 . S
C2142 C2141 1.398 . S
C2142 C2143 1.391 . S
C2143 H2131 0.950 . S
C2143 C2139 1.393 . S
C2143 C2142 1.391 . S
H2144 C2152 0.950 . S
H2145 C2157 0.950 . S
H2146 C2154 0.950 . S
H2147 C2156 0.950 . S
H2148 C2158 0.950 . S
H2149 C2160 0.950 . S
H2150 C2162 0.950 . S
H2151 C2163 0.950 . S
C2152 H2144 0.950 . S
C2152 C2153 1.386 . S
C2152 C2154 1.391 . S
C2153 C2152 1.386 . S
C2153 C2157 1.393 . S
C2154 H2146 0.950 . S
C2154 C2152 1.391 . S
C2154 C2155 1.400 . S
C2155 C2154 1.400 . S
C2155 C2156 1.398 . S
C2155 C2161 1.491 . S
C2156 H2147 0.950 . S
C2156 C2155 1.398 . S
C2156 C2157 1.391 . S
C2157 H2145 0.950 . S
C2157 C2153 1.393 . S
C2157 C2156 1.391 . S
C2158 H2148 0.950 . S
C2158 C2159 1.386 . S
C2158 C2160 1.391 . S
C2159 C2158 1.386 . S
C2159 C2163 1.393 . S
C2160 H2149 0.950 . S
C2160 C2158 1.391 . S
C2160 C2161 1.400 . S
C2161 C2155 1.491 . S
C2161 C2160 1.400 . S
C2161 C2162 1.398 . S
C2162 H2150 0.950 . S
C2162 C2161 1.398 . S
C2162 C2163 1.391 . S
C2163 H2151 0.950 . S
C2163 C2159 1.393 . S
C2163 C2162 1.391 . S
H2164 C2172 0.950 . S
H2165 C2177 0.950 . S
H2166 C2174 0.950 . S
H2167 C2176 0.950 . S
H2168 C2178 0.950 . S
H2169 C2180 0.950 . S
H2170 C2182 0.950 . S
H2171 C2183 0.950 . S
C2172 H2164 0.950 . S
C2172 C2173 1.386 . S
C2172 C2174 1.391 . S
C2173 C2172 1.386 . S
C2173 C2177 1.393 . S
C2174 H2166 0.950 . S
C2174 C2172 1.391 . S
C2174 C2175 1.400 . S
C2175 C2174 1.400 . S
C2175 C2176 1.398 . S
C2175 C2181 1.491 . S
C2176 H2167 0.950 . S
C2176 C2175 1.398 . S
C2176 C2177 1.391 . S
C2177 H2165 0.950 . S
C2177 C2173 1.393 . S
C2177 C2176 1.391 . S
C2178 H2168 0.950 . S
C2178 C2179 1.386 . S
C2178 C2180 1.391 . S
C2179 C2178 1.386 . S
C2179 C2183 1.393 . S
C2180 H2169 0.950 . S
C2180 C2178 1.391 . S
C2180 C2181 1.400 . S
C2181 C2175 1.491 . S
C2181 C2180 1.400 . S
C2181 C2182 1.398 . S
C2182 H2170 0.950 . S
C2182 C2181 1.398 . S
C2182 C2183 1.391 . S
C2183 H2171 0.950 . S
C2183 C2179 1.393 . S
C2183 C2182 1.391 . S
H2184 C2192 0.950 . S
H2185 C2197 0.950 . S
H2186 C2194 0.950 . S
H2187 C2196 0.950 . S
H2188 C2198 0.950 . S
H2189 C2200 0.950 . S
H2190 C2202 0.950 . S
H2191 C2203 0.950 . S
C2192 H2184 0.950 . S
C2192 C2193 1.386 . S
C2192 C2194 1.391 . S
C2193 C2192 1.386 . S
C2193 C2197 1.393 . S
C2194 H2186 0.950 . S
C2194 C2192 1.391 . S
C2194 C2195 1.400 . S
C2195 C2194 1.400 . S
C2195 C2196 1.398 . S
C2195 C2201 1.491 . S
C2196 H2187 0.950 . S
C2196 C2195 1.398 . S
C2196 C2197 1.391 . S
C2197 H2185 0.950 . S
C2197 C2193 1.393 . S
C2197 C2196 1.391 . S
C2198 H2188 0.950 . S
C2198 C2199 1.386 . S
C2198 C2200 1.391 . S
C2199 C2198 1.386 . S
C2199 C2203 1.393 . S
C2200 H2189 0.950 . S
C2200 C2198 1.391 . S
C2200 C2201 1.400 . S
C2201 C2195 1.491 . S
C2201 C2200 1.400 . S
C2201 C2202 1.398 . S
C2202 H2190 0.950 . S
C2202 C2201 1.398 . S
C2202 C2203 1.391 . S
C2203 H2191 0.950 . S
C2203 C2199 1.393 . S
C2203 C2202 1.391 . S
H2204 C2212 0.950 . S
H2205 C2217 0.950 . S
H2206 C2214 0.950 . S
H2207 C2216 0.950 . S
H2208 C2218 0.950 . S
H2209 C2220 0.950 . S
H2210 C2222 0.950 . S
H2211 C2223 0.950 . S
C2212 H2204 0.950 . S
C2212 C2213 1.386 . S
C2212 C2214 1.391 . S
C2213 C2212 1.386 . S
C2213 C2217 1.393 . S
C2214 H2206 0.950 . S
C2214 C2212 1.391 . S
C2214 C2215 1.400 . S
C2215 C2214 1.400 . S
C2215 C2216 1.398 . S
C2215 C2221 1.491 . S
C2216 H2207 0.950 . S
C2216 C2215 1.398 . S
C2216 C2217 1.391 . S
C2217 H2205 0.950 . S
C2217 C2213 1.393 . S
C2217 C2216 1.391 . S
C2218 H2208 0.950 . S
C2218 C2219 1.386 . S
C2218 C2220 1.391 . S
C2219 C2218 1.386 . S
C2219 C2223 1.393 . S
C2220 H2209 0.950 . S
C2220 C2218 1.391 . S
C2220 C2221 1.400 . S
C2221 C2215 1.491 . S
C2221 C2220 1.400 . S
C2221 C2222 1.398 . S
C2222 H2210 0.950 . S
C2222 C2221 1.398 . S
C2222 C2223 1.391 . S
C2223 H2211 0.950 . S
C2223 C2219 1.393 . S
C2223 C2222 1.391 . S
H2224 C2232 0.950 . S
H2225 C2237 0.950 . S
H2226 C2234 0.950 . S
H2227 C2236 0.950 . S
H2228 C2238 0.950 . S
H2229 C2240 0.950 . S
H2230 C2242 0.950 . S
H2231 C2243 0.950 . S
C2232 H2224 0.950 . S
C2232 C2233 1.386 . S
C2232 C2234 1.391 . S
C2233 C2232 1.386 . S
C2233 C2237 1.393 . S
C2234 H2226 0.950 . S
C2234 C2232 1.391 . S
C2234 C2235 1.400 . S
C2235 C2234 1.400 . S
C2235 C2236 1.398 . S
C2235 C2241 1.491 . S
C2236 H2227 0.950 . S
C2236 C2235 1.398 . S
C2236 C2237 1.391 . S
C2237 H2225 0.950 . S
C2237 C2233 1.393 . S
C2237 C2236 1.391 . S
C2238 H2228 0.950 . S
C2238 C2239 1.386 . S
C2238 C2240 1.391 . S
C2239 C2238 1.386 . S
C2239 C2243 1.393 . S
C2240 H2229 0.950 . S
C2240 C2238 1.391 . S
C2240 C2241 1.400 . S
C2241 C2235 1.491 . S
C2241 C2240 1.400 . S
C2241 C2242 1.398 . S
C2242 H2230 0.950 . S
C2242 C2241 1.398 . S
C2242 C2243 1.391 . S
C2243 H2231 0.950 . S
C2243 C2239 1.393 . S
C2243 C2242 1.391 . S
H2244 C2252 0.950 . S
H2245 C2257 0.950 . S
H2246 C2254 0.950 . S
H2247 C2256 0.950 . S
H2248 C2258 0.950 . S
H2249 C2260 0.950 . S
H2250 C2262 0.950 . S
H2251 C2263 0.950 . S
C2252 H2244 0.950 . S
C2252 C2253 1.386 . S
C2252 C2254 1.391 . S
C2253 C2252 1.386 . S
C2253 C2257 1.393 . S
C2254 H2246 0.950 . S
C2254 C2252 1.391 . S
C2254 C2255 1.400 . S
C2255 C2254 1.400 . S
C2255 C2256 1.398 . S
C2255 C2261 1.491 . S
C2256 H2247 0.950 . S
C2256 C2255 1.398 . S
C2256 C2257 1.391 . S
C2257 H2245 0.950 . S
C2257 C2253 1.393 . S
C2257 C2256 1.391 . S
C2258 H2248 0.950 . S
C2258 C2259 1.386 . S
C2258 C2260 1.391 . S
C2259 C2258 1.386 . S
C2259 C2263 1.393 . S
C2260 H2249 0.950 . S
C2260 C2258 1.391 . S
C2260 C2261 1.400 . S
C2261 C2255 1.491 . S
C2261 C2260 1.400 . S
C2261 C2262 1.398 . S
C2262 H2250 0.950 . S
C2262 C2261 1.398 . S
C2262 C2263 1.391 . S
C2263 H2251 0.950 . S
C2263 C2259 1.393 . S
C2263 C2262 1.391 . S
H2264 C2272 0.950 . S
H2265 C2277 0.950 . S
H2266 C2274 0.950 . S
H2267 C2276 0.950 . S
H2268 C2278 0.950 . S
H2269 C2280 0.950 . S
H2270 C2282 0.950 . S
H2271 C2283 0.950 . S
C2272 H2264 0.950 . S
C2272 C2273 1.386 . S
C2272 C2274 1.391 . S
C2273 C2272 1.386 . S
C2273 C2277 1.393 . S
C2274 H2266 0.950 . S
C2274 C2272 1.391 . S
C2274 C2275 1.400 . S
C2275 C2274 1.400 . S
C2275 C2276 1.398 . S
C2275 C2281 1.491 . S
C2276 H2267 0.950 . S
C2276 C2275 1.398 . S
C2276 C2277 1.391 . S
C2277 H2265 0.950 . S
C2277 C2273 1.393 . S
C2277 C2276 1.391 . S
C2278 H2268 0.950 . S
C2278 C2279 1.386 . S
C2278 C2280 1.391 . S
C2279 C2278 1.386 . S
C2279 C2283 1.393 . S
C2280 H2269 0.950 . S
C2280 C2278 1.391 . S
C2280 C2281 1.400 . S
C2281 C2275 1.491 . S
C2281 C2280 1.400 . S
C2281 C2282 1.398 . S
C2282 H2270 0.950 . S
C2282 C2281 1.398 . S
C2282 C2283 1.391 . S
C2283 H2271 0.950 . S
C2283 C2279 1.393 . S
C2283 C2282 1.391 . S
H2284 C2292 0.950 . S
H2285 C2297 0.950 . S
H2286 C2294 0.950 . S
H2287 C2296 0.950 . S
H2288 C2298 0.950 . S
H2289 C2300 0.950 . S
H2290 C2302 0.950 . S
H2291 C2303 0.950 . S
C2292 H2284 0.950 . S
C2292 C2293 1.386 . S
C2292 C2294 1.391 . S
C2293 C2292 1.386 . S
C2293 C2297 1.393 . S
C2294 H2286 0.950 . S
C2294 C2292 1.391 . S
C2294 C2295 1.400 . S
C2295 C2294 1.400 . S
C2295 C2296 1.398 . S
C2295 C2301 1.491 . S
C2296 H2287 0.950 . S
C2296 C2295 1.398 . S
C2296 C2297 1.391 . S
C2297 H2285 0.950 . S
C2297 C2293 1.393 . S
C2297 C2296 1.391 . S
C2298 H2288 0.950 . S
C2298 C2299 1.386 . S
C2298 C2300 1.391 . S
C2299 C2298 1.386 . S
C2299 C2303 1.393 . S
C2300 H2289 0.950 . S
C2300 C2298 1.391 . S
C2300 C2301 1.400 . S
C2301 C2295 1.491 . S
C2301 C2300 1.400 . S
C2301 C2302 1.398 . S
C2302 H2290 0.950 . S
C2302 C2301 1.398 . S
C2302 C2303 1.391 . S
C2303 H2291 0.950 . S
C2303 C2299 1.393 . S
C2303 C2302 1.391 . S
H2304 C2312 0.950 . S
H2305 C2317 0.950 . S
H2306 C2314 0.950 . S
H2307 C2316 0.950 . S
H2308 C2318 0.950 . S
H2309 C2320 0.950 . S
H2310 C2322 0.950 . S
H2311 C2323 0.950 . S
C2312 H2304 0.950 . S
C2312 C2313 1.386 . S
C2312 C2314 1.391 . S
C2313 C2312 1.386 . S
C2313 C2317 1.393 . S
C2314 H2306 0.950 . S
C2314 C2312 1.391 . S
C2314 C2315 1.400 . S
C2315 C2314 1.400 . S
C2315 C2316 1.398 . S
C2315 C2321 1.491 . S
C2316 H2307 0.950 . S
C2316 C2315 1.398 . S
C2316 C2317 1.391 . S
C2317 H2305 0.950 . S
C2317 C2313 1.393 . S
C2317 C2316 1.391 . S
C2318 H2308 0.950 . S
C2318 C2319 1.386 . S
C2318 C2320 1.391 . S
C2319 C2318 1.386 . S
C2319 C2323 1.393 . S
C2320 H2309 0.950 . S
C2320 C2318 1.391 . S
C2320 C2321 1.400 . S
C2321 C2315 1.491 . S
C2321 C2320 1.400 . S
C2321 C2322 1.398 . S
C2322 H2310 0.950 . S
C2322 C2321 1.398 . S
C2322 C2323 1.391 . S
C2323 H2311 0.950 . S
C2323 C2319 1.393 . S
C2323 C2322 1.391 . S
H2324 C2332 0.950 . S
H2325 C2337 0.950 . S
H2326 C2334 0.950 . S
H2327 C2336 0.950 . S
H2328 C2338 0.950 . S
H2329 C2340 0.950 . S
H2330 C2342 0.950 . S
H2331 C2343 0.950 . S
C2332 H2324 0.950 . S
C2332 C2333 1.386 . S
C2332 C2334 1.391 . S
C2333 C2332 1.386 . S
C2333 C2337 1.393 . S
C2334 H2326 0.950 . S
C2334 C2332 1.391 . S
C2334 C2335 1.400 . S
C2335 C2334 1.400 . S
C2335 C2336 1.398 . S
C2335 C2341 1.491 . S
C2336 H2327 0.950 . S
C2336 C2335 1.398 . S
C2336 C2337 1.391 . S
C2337 H2325 0.950 . S
C2337 C2333 1.393 . S
C2337 C2336 1.391 . S
C2338 H2328 0.950 . S
C2338 C2339 1.386 . S
C2338 C2340 1.391 . S
C2339 C2338 1.386 . S
C2339 C2343 1.393 . S
C2340 H2329 0.950 . S
C2340 C2338 1.391 . S
C2340 C2341 1.400 . S
C2341 C2335 1.491 . S
C2341 C2340 1.400 . S
C2341 C2342 1.398 . S
C2342 H2330 0.950 . S
C2342 C2341 1.398 . S
C2342 C2343 1.391 . S
C2343 H2331 0.950 . S
C2343 C2339 1.393 . S
C2343 C2342 1.391 . S
H2344 C2352 0.950 . S
H2345 C2357 0.950 . S
H2346 C2354 0.950 . S
H2347 C2356 0.950 . S
H2348 C2358 0.950 . S
H2349 C2360 0.950 . S
H2350 C2362 0.950 . S
H2351 C2363 0.950 . S
C2352 H2344 0.950 . S
C2352 C2353 1.386 . S
C2352 C2354 1.391 . S
C2353 C2352 1.386 . S
C2353 C2357 1.393 . S
C2354 H2346 0.950 . S
C2354 C2352 1.391 . S
C2354 C2355 1.400 . S
C2355 C2354 1.400 . S
C2355 C2356 1.398 . S
C2355 C2361 1.491 . S
C2356 H2347 0.950 . S
C2356 C2355 1.398 . S
C2356 C2357 1.391 . S
C2357 H2345 0.950 . S
C2357 C2353 1.393 . S
C2357 C2356 1.391 . S
C2358 H2348 0.950 . S
C2358 C2359 1.386 . S
C2358 C2360 1.391 . S
C2359 C2358 1.386 . S
C2359 C2363 1.393 . S
C2360 H2349 0.950 . S
C2360 C2358 1.391 . S
C2360 C2361 1.400 . S
C2361 C2355 1.491 . S
C2361 C2360 1.400 . S
C2361 C2362 1.398 . S
C2362 H2350 0.950 . S
C2362 C2361 1.398 . S
C2362 C2363 1.391 . S
C2363 H2351 0.950 . S
C2363 C2359 1.393 . S
C2363 C2362 1.391 . S
H2364 C2372 0.950 . S
H2365 C2377 0.950 . S
H2366 C2374 0.950 . S
H2367 C2376 0.950 . S
H2368 C2378 0.950 . S
H2369 C2380 0.950 . S
H2370 C2382 0.950 . S
H2371 C2383 0.950 . S
C2372 H2364 0.950 . S
C2372 C2373 1.386 . S
C2372 C2374 1.391 . S
C2373 C2372 1.386 . S
C2373 C2377 1.393 . S
C2374 H2366 0.950 . S
C2374 C2372 1.391 . S
C2374 C2375 1.400 . S
C2375 C2374 1.400 . S
C2375 C2376 1.398 . S
C2375 C2381 1.491 . S
C2376 H2367 0.950 . S
C2376 C2375 1.398 . S
C2376 C2377 1.391 . S
C2377 H2365 0.950 . S
C2377 C2373 1.393 . S
C2377 C2376 1.391 . S
C2378 H2368 0.950 . S
C2378 C2379 1.386 . S
C2378 C2380 1.391 . S
C2379 C2378 1.386 . S
C2379 C2383 1.393 . S
C2380 H2369 0.950 . S
C2380 C2378 1.391 . S
C2380 C2381 1.400 . S
C2381 C2375 1.491 . S
C2381 C2380 1.400 . S
C2381 C2382 1.398 . S
C2382 H2370 0.950 . S
C2382 C2381 1.398 . S
C2382 C2383 1.391 . S
C2383 H2371 0.950 . S
C2383 C2379 1.393 . S
C2383 C2382 1.391 . S
H2384 C2392 0.950 . S
H2385 C2397 0.950 . S
H2386 C2394 0.950 . S
H2387 C2396 0.950 . S
H2388 C2398 0.950 . S
H2389 C2400 0.950 . S
H2390 C2402 0.950 . S
H2391 C2403 0.950 . S
C2392 H2384 0.950 . S
C2392 C2393 1.386 . S
C2392 C2394 1.391 . S
C2393 C2392 1.386 . S
C2393 C2397 1.393 . S
C2394 H2386 0.950 . S
C2394 C2392 1.391 . S
C2394 C2395 1.400 . S
C2395 C2394 1.400 . S
C2395 C2396 1.398 . S
C2395 C2401 1.491 . S
C2396 H2387 0.950 . S
C2396 C2395 1.398 . S
C2396 C2397 1.391 . S
C2397 H2385 0.950 . S
C2397 C2393 1.393 . S
C2397 C2396 1.391 . S
C2398 H2388 0.950 . S
C2398 C2399 1.386 . S
C2398 C2400 1.391 . S
C2399 C2398 1.386 . S
C2399 C2403 1.393 . S
C2400 H2389 0.950 . S
C2400 C2398 1.391 . S
C2400 C2401 1.400 . S
C2401 C2395 1.491 . S
C2401 C2400 1.400 . S
C2401 C2402 1.398 . S
C2402 H2390 0.950 . S
C2402 C2401 1.398 . S
C2402 C2403 1.391 . S
C2403 H2391 0.950 . S
C2403 C2399 1.393 . S
C2403 C2402 1.391 . S
H2404 C2412 0.950 . S
H2405 C2417 0.950 . S
H2406 C2414 0.950 . S
H2407 C2416 0.950 . S
H2408 C2418 0.950 . S
H2409 C2420 0.950 . S
H2410 C2422 0.950 . S
H2411 C2423 0.950 . S
C2412 H2404 0.950 . S
C2412 C2413 1.386 . S
C2412 C2414 1.391 . S
C2413 C2412 1.386 . S
C2413 C2417 1.393 . S
C2414 H2406 0.950 . S
C2414 C2412 1.391 . S
C2414 C2415 1.400 . S
C2415 C2414 1.400 . S
C2415 C2416 1.398 . S
C2415 C2421 1.491 . S
C2416 H2407 0.950 . S
C2416 C2415 1.398 . S
C2416 C2417 1.391 . S
C2417 H2405 0.950 . S
C2417 C2413 1.393 . S
C2417 C2416 1.391 . S
C2418 H2408 0.950 . S
C2418 C2419 1.386 . S
C2418 C2420 1.391 . S
C2419 C2418 1.386 . S
C2419 C2423 1.393 . S
C2420 H2409 0.950 . S
C2420 C2418 1.391 . S
C2420 C2421 1.400 . S
C2421 C2415 1.491 . S
C2421 C2420 1.400 . S
C2421 C2422 1.398 . S
C2422 H2410 0.950 . S
C2422 C2421 1.398 . S
C2422 C2423 1.391 . S
C2423 H2411 0.950 . S
C2423 C2419 1.393 . S
C2423 C2422 1.391 . S
H2424 C2432 0.950 . S
H2425 C2437 0.950 . S
H2426 C2434 0.950 . S
H2427 C2436 0.950 . S
H2428 C2438 0.950 . S
H2429 C2440 0.950 . S
H2430 C2442 0.950 . S
H2431 C2443 0.950 . S
C2432 H2424 0.950 . S
C2432 C2433 1.386 . S
C2432 C2434 1.391 . S
C2433 C2432 1.386 . S
C2433 C2437 1.393 . S
C2434 H2426 0.950 . S
C2434 C2432 1.391 . S
C2434 C2435 1.400 . S
C2435 C2434 1.400 . S
C2435 C2436 1.398 . S
C2435 C2441 1.491 . S
C2436 H2427 0.950 . S
C2436 C2435 1.398 . S
C2436 C2437 1.391 . S
C2437 H2425 0.950 . S
C2437 C2433 1.393 . S
C2437 C2436 1.391 . S
C2438 H2428 0.950 . S
C2438 C2439 1.386 . S
C2438 C2440 1.391 . S
C2439 C2438 1.386 . S
C2439 C2443 1.393 . S
C2440 H2429 0.950 . S
C2440 C2438 1.391 . S
C2440 C2441 1.400 . S
C2441 C2435 1.491 . S
C2441 C2440 1.400 . S
C2441 C2442 1.398 . S
C2442 H2430 0.950 . S
C2442 C2441 1.398 . S
C2442 C2443 1.391 . S
C2443 H2431 0.950 . S
C2443 C2439 1.393 . S
C2443 C2442 1.391 . S
H2444 C2452 0.950 . S
H2445 C2457 0.950 . S
H2446 C2454 0.950 . S
H2447 C2456 0.950 . S
H2448 C2458 0.950 . S
H2449 C2460 0.950 . S
H2450 C2462 0.950 . S
H2451 C2463 0.950 . S
C2452 H2444 0.950 . S
C2452 C2453 1.386 . S
C2452 C2454 1.391 . S
C2453 C2452 1.386 . S
C2453 C2457 1.393 . S
C2454 H2446 0.950 . S
C2454 C2452 1.391 . S
C2454 C2455 1.400 . S
C2455 C2454 1.400 . S
C2455 C2456 1.398 . S
C2455 C2461 1.491 . S
C2456 H2447 0.950 . S
C2456 C2455 1.398 . S
C2456 C2457 1.391 . S
C2457 H2445 0.950 . S
C2457 C2453 1.393 . S
C2457 C2456 1.391 . S
C2458 H2448 0.950 . S
C2458 C2459 1.386 . S
C2458 C2460 1.391 . S
C2459 C2458 1.386 . S
C2459 C2463 1.393 . S
C2460 H2449 0.950 . S
C2460 C2458 1.391 . S
C2460 C2461 1.400 . S
C2461 C2455 1.491 . S
C2461 C2460 1.400 . S
C2461 C2462 1.398 . S
C2462 H2450 0.950 . S
C2462 C2461 1.398 . S
C2462 C2463 1.391 . S
C2463 H2451 0.950 . S
C2463 C2459 1.393 . S
C2463 C2462 1.391 . S
H2464 C2472 0.950 . S
H2465 C2477 0.950 . S
H2466 C2474 0.950 . S
H2467 C2476 0.950 . S
H2468 C2478 0.950 . S
H2469 C2480 0.950 . S
H2470 C2482 0.950 . S
H2471 C2483 0.950 . S
C2472 H2464 0.950 . S
C2472 C2473 1.386 . S
C2472 C2474 1.391 . S
C2473 C2472 1.386 . S
C2473 C2477 1.393 . S
C2474 H2466 0.950 . S
C2474 C2472 1.391 . S
C2474 C2475 1.400 . S
C2475 C2474 1.400 . S
C2475 C2476 1.398 . S
C2475 C2481 1.491 . S
C2476 H2467 0.950 . S
C2476 C2475 1.398 . S
C2476 C2477 1.391 . S
C2477 H2465 0.950 . S
C2477 C2473 1.393 . S
C2477 C2476 1.391 . S
C2478 H2468 0.950 . S
C2478 C2479 1.386 . S
C2478 C2480 1.391 . S
C2479 C2478 1.386 . S
C2479 C2483 1.393 . S
C2480 H2469 0.950 . S
C2480 C2478 1.391 . S
C2480 C2481 1.400 . S
C2481 C2475 1.491 . S
C2481 C2480 1.400 . S
C2481 C2482 1.398 . S
C2482 H2470 0.950 . S
C2482 C2481 1.398 . S
C2482 C2483 1.391 . S
C2483 H2471 0.950 . S
C2483 C2479 1.393 . S
C2483 C2482 1.391 . S
H2484 C2492 0.950 . S
H2485 C2497 0.950 . S
H2486 C2494 0.950 . S
H2487 C2496 0.950 . S
H2488 C2498 0.950 . S
H2489 C2500 0.950 . S
H2490 C2502 0.950 . S
H2491 C2503 0.950 . S
C2492 H2484 0.950 . S
C2492 C2493 1.386 . S
C2492 C2494 1.391 . S
C2493 C2492 1.386 . S
C2493 C2497 1.393 . S
C2494 H2486 0.950 . S
C2494 C2492 1.391 . S
C2494 C2495 1.400 . S
C2495 C2494 1.400 . S
C2495 C2496 1.398 . S
C2495 C2501 1.491 . S
C2496 H2487 0.950 . S
C2496 C2495 1.398 . S
C2496 C2497 1.391 . S
C2497 H2485 0.950 . S
C2497 C2493 1.393 . S
C2497 C2496 1.391 . S
C2498 H2488 0.950 . S
C2498 C2499 1.386 . S
C2498 C2500 1.391 . S
C2499 C2498 1.386 . S
C2499 C2503 1.393 . S
C2500 H2489 0.950 . S
C2500 C2498 1.391 . S
C2500 C2501 1.400 . S
C2501 C2495 1.491 . S
C2501 C2500 1.400 . S
C2501 C2502 1.398 . S
C2502 H2490 0.950 . S
C2502 C2501 1.398 . S
C2502 C2503 1.391 . S
C2503 H2491 0.950 . S
C2503 C2499 1.393 . S
C2503 C2502 1.391 . S
H2504 C2512 0.950 . S
H2505 C2517 0.950 . S
H2506 C2514 0.950 . S
H2507 C2516 0.950 . S
H2508 C2518 0.950 . S
H2509 C2520 0.950 . S
H2510 C2522 0.950 . S
H2511 C2523 0.950 . S
C2512 H2504 0.950 . S
C2512 C2513 1.386 . S
C2512 C2514 1.391 . S
C2513 C2512 1.386 . S
C2513 C2517 1.393 . S
C2514 H2506 0.950 . S
C2514 C2512 1.391 . S
C2514 C2515 1.400 . S
C2515 C2514 1.400 . S
C2515 C2516 1.398 . S
C2515 C2521 1.491 . S
C2516 H2507 0.950 . S
C2516 C2515 1.398 . S
C2516 C2517 1.391 . S
C2517 H2505 0.950 . S
C2517 C2513 1.393 . S
C2517 C2516 1.391 . S
C2518 H2508 0.950 . S
C2518 C2519 1.386 . S
C2518 C2520 1.391 . S
C2519 C2518 1.386 . S
C2519 C2523 1.393 . S
C2520 H2509 0.950 . S
C2520 C2518 1.391 . S
C2520 C2521 1.400 . S
C2521 C2515 1.491 . S
C2521 C2520 1.400 . S
C2521 C2522 1.398 . S
C2522 H2510 0.950 . S
C2522 C2521 1.398 . S
C2522 C2523 1.391 . S
C2523 H2511 0.950 . S
C2523 C2519 1.393 . S
C2523 C2522 1.391 . S
H2524 C2532 0.950 . S
H2525 C2537 0.950 . S
H2526 C2534 0.950 . S
H2527 C2536 0.950 . S
H2528 C2538 0.950 . S
H2529 C2540 0.950 . S
H2530 C2542 0.950 . S
H2531 C2543 0.950 . S
C2532 H2524 0.950 . S
C2532 C2533 1.386 . S
C2532 C2534 1.391 . S
C2533 C2532 1.386 . S
C2533 C2537 1.393 . S
C2534 H2526 0.950 . S
C2534 C2532 1.391 . S
C2534 C2535 1.400 . S
C2535 C2534 1.400 . S
C2535 C2536 1.398 . S
C2535 C2541 1.491 . S
C2536 H2527 0.950 . S
C2536 C2535 1.398 . S
C2536 C2537 1.391 . S
C2537 H2525 0.950 . S
C2537 C2533 1.393 . S
C2537 C2536 1.391 . S
C2538 H2528 0.950 . S
C2538 C2539 1.386 . S
C2538 C2540 1.391 . S
C2539 C2538 1.386 . S
C2539 C2543 1.393 . S
C2540 H2529 0.950 . S
C2540 C2538 1.391 . S
C2540 C2541 1.400 . S
C2541 C2535 1.491 . S
C2541 C2540 1.400 . S
C2541 C2542 1.398 . S
C2542 H2530 0.950 . S
C2542 C2541 1.398 . S
C2542 C2543 1.391 . S
C2543 H2531 0.950 . S
C2543 C2539 1.393 . S
C2543 C2542 1.391 . S
H2544 C2552 0.950 . S
H2545 C2557 0.950 . S
H2546 C2554 0.950 . S
H2547 C2556 0.950 . S
H2548 C2558 0.950 . S
H2549 C2560 0.950 . S
H2550 C2562 0.950 . S
H2551 C2563 0.950 . S
C2552 H2544 0.950 . S
C2552 C2553 1.386 . S
C2552 C2554 1.391 . S
C2553 C2552 1.386 . S
C2553 C2557 1.393 . S
C2554 H2546 0.950 . S
C2554 C2552 1.391 . S
C2554 C2555 1.400 . S
C2555 C2554 1.400 . S
C2555 C2556 1.398 . S
C2555 C2561 1.491 1_556 S
C2556 H2547 0.950 . S
C2556 C2555 1.398 . S
C2556 C2557 1.391 . S
C2557 H2545 0.950 . S
C2557 C2553 1.393 . S
C2557 C2556 1.391 . S
C2558 H2548 0.950 . S
C2558 C2559 1.386 . S
C2558 C2560 1.391 . S
C2559 C2558 1.386 . S
C2559 C2563 1.393 . S
C2560 H2549 0.950 . S
C2560 C2558 1.391 . S
C2560 C2561 1.400 . S
C2561 C2555 1.491 1_554 S
C2561 C2560 1.400 . S
C2561 C2562 1.398 . S
C2562 H2550 0.950 . S
C2562 C2561 1.398 . S
C2562 C2563 1.391 . S
C2563 H2551 0.950 . S
C2563 C2559 1.393 . S
C2563 C2562 1.391 . S
H2564 C2572 0.950 . S
H2565 C2577 0.950 . S
H2566 C2574 0.950 . S
H2567 C2576 0.950 . S
H2568 C2578 0.950 . S
H2569 C2580 0.950 . S
H2570 C2582 0.950 . S
H2571 C2583 0.950 . S
C2572 H2564 0.950 . S
C2572 C2573 1.386 . S
C2572 C2574 1.391 . S
C2573 C2572 1.386 . S
C2573 C2577 1.393 . S
C2574 H2566 0.950 . S
C2574 C2572 1.391 . S
C2574 C2575 1.400 . S
C2575 C2574 1.400 . S
C2575 C2576 1.398 . S
C2575 C2581 1.491 1_556 S
C2576 H2567 0.950 . S
C2576 C2575 1.398 . S
C2576 C2577 1.391 . S
C2577 H2565 0.950 . S
C2577 C2573 1.393 . S
C2577 C2576 1.391 . S
C2578 H2568 0.950 . S
C2578 C2579 1.386 . S
C2578 C2580 1.391 . S
C2579 C2578 1.386 . S
C2579 C2583 1.393 . S
C2580 H2569 0.950 . S
C2580 C2578 1.391 . S
C2580 C2581 1.400 . S
C2581 C2575 1.491 1_554 S
C2581 C2580 1.400 . S
C2581 C2582 1.398 . S
C2582 H2570 0.950 . S
C2582 C2581 1.398 . S
C2582 C2583 1.391 . S
C2583 H2571 0.950 . S
C2583 C2579 1.393 . S
C2583 C2582 1.391 . S
H2584 C2592 0.950 . S
H2585 C2597 0.950 . S
H2586 C2594 0.950 . S
H2587 C2596 0.950 . S
H2588 C2598 0.950 . S
H2589 C2600 0.950 . S
H2590 C2602 0.950 . S
H2591 C2603 0.950 . S
C2592 H2584 0.950 . S
C2592 C2593 1.386 . S
C2592 C2594 1.391 . S
C2593 C2592 1.386 . S
C2593 C2597 1.393 . S
C2594 H2586 0.950 . S
C2594 C2592 1.391 . S
C2594 C2595 1.400 . S
C2595 C2594 1.400 . S
C2595 C2596 1.398 . S
C2595 C2601 1.491 1_556 S
C2596 H2587 0.950 . S
C2596 C2595 1.398 . S
C2596 C2597 1.391 . S
C2597 H2585 0.950 . S
C2597 C2593 1.393 . S
C2597 C2596 1.391 . S
C2598 H2588 0.950 . S
C2598 C2599 1.386 . S
C2598 C2600 1.391 . S
C2599 C2598 1.386 . S
C2599 C2603 1.393 . S
C2600 H2589 0.950 . S
C2600 C2598 1.391 . S
C2600 C2601 1.400 . S
C2601 C2595 1.491 1_554 S
C2601 C2600 1.400 . S
C2601 C2602 1.398 . S
C2602 H2590 0.950 . S
C2602 C2601 1.398 . S
C2602 C2603 1.391 . S
C2603 H2591 0.950 . S
C2603 C2599 1.393 . S
C2603 C2602 1.391 . S
H2604 C2612 0.950 . S
H2605 C2617 0.950 . S
H2606 C2614 0.950 . S
H2607 C2616 0.950 . S
H2608 C2618 0.950 . S
H2609 C2620 0.950 . S
H2610 C2622 0.950 . S
H2611 C2623 0.950 . S
C2612 H2604 0.950 . S
C2612 C2613 1.386 . S
C2612 C2614 1.391 . S
C2613 C2612 1.386 . S
C2613 C2617 1.393 . S
C2614 H2606 0.950 . S
C2614 C2612 1.391 . S
C2614 C2615 1.400 . S
C2615 C2614 1.400 . S
C2615 C2616 1.398 . S
C2615 C2621 1.491 . S
C2616 H2607 0.950 . S
C2616 C2615 1.398 . S
C2616 C2617 1.391 . S
C2617 H2605 0.950 . S
C2617 C2613 1.393 . S
C2617 C2616 1.391 . S
C2618 H2608 0.950 . S
C2618 C2619 1.386 . S
C2618 C2620 1.391 . S
C2619 C2618 1.386 . S
C2619 C2623 1.393 . S
C2620 H2609 0.950 . S
C2620 C2618 1.391 . S
C2620 C2621 1.400 . S
C2621 C2615 1.491 . S
C2621 C2620 1.400 . S
C2621 C2622 1.398 . S
C2622 H2610 0.950 . S
C2622 C2621 1.398 . S
C2622 C2623 1.391 . S
C2623 H2611 0.950 . S
C2623 C2619 1.393 . S
C2623 C2622 1.391 . S
H2624 C2632 0.950 . S
H2625 C2637 0.950 . S
H2626 C2634 0.950 . S
H2627 C2636 0.950 . S
H2628 C2638 0.950 . S
H2629 C2640 0.950 . S
H2630 C2642 0.950 . S
H2631 C2643 0.950 . S
C2632 H2624 0.950 . S
C2632 C2633 1.386 . S
C2632 C2634 1.391 . S
C2633 C2632 1.386 . S
C2633 C2637 1.393 . S
C2634 H2626 0.950 . S
C2634 C2632 1.391 . S
C2634 C2635 1.400 . S
C2635 C2634 1.400 . S
C2635 C2636 1.398 . S
C2635 C2641 1.491 . S
C2636 H2627 0.950 . S
C2636 C2635 1.398 . S
C2636 C2637 1.391 . S
C2637 H2625 0.950 . S
C2637 C2633 1.393 . S
C2637 C2636 1.391 . S
C2638 H2628 0.950 . S
C2638 C2639 1.386 . S
C2638 C2640 1.391 . S
C2639 C2638 1.386 . S
C2639 C2643 1.393 . S
C2640 H2629 0.950 . S
C2640 C2638 1.391 . S
C2640 C2641 1.400 . S
C2641 C2635 1.491 . S
C2641 C2640 1.400 . S
C2641 C2642 1.398 . S
C2642 H2630 0.950 . S
C2642 C2641 1.398 . S
C2642 C2643 1.391 . S
C2643 H2631 0.950 . S
C2643 C2639 1.393 . S
C2643 C2642 1.391 . S
H2644 C2652 0.950 . S
H2645 C2657 0.950 . S
H2646 C2654 0.950 . S
H2647 C2656 0.950 . S
H2648 C2658 0.950 . S
H2649 C2660 0.950 . S
H2650 C2662 0.950 . S
H2651 C2663 0.950 . S
C2652 H2644 0.950 . S
C2652 C2653 1.386 . S
C2652 C2654 1.391 . S
C2653 C2652 1.386 . S
C2653 C2657 1.393 . S
C2654 H2646 0.950 . S
C2654 C2652 1.391 . S
C2654 C2655 1.400 . S
C2655 C2654 1.400 . S
C2655 C2656 1.398 . S
C2655 C2661 1.491 . S
C2656 H2647 0.950 . S
C2656 C2655 1.398 . S
C2656 C2657 1.391 . S
C2657 H2645 0.950 . S
C2657 C2653 1.393 . S
C2657 C2656 1.391 . S
C2658 H2648 0.950 . S
C2658 C2659 1.386 . S
C2658 C2660 1.391 . S
C2659 C2658 1.386 . S
C2659 C2663 1.393 . S
C2660 H2649 0.950 . S
C2660 C2658 1.391 . S
C2660 C2661 1.400 . S
C2661 C2655 1.491 . S
C2661 C2660 1.400 . S
C2661 C2662 1.398 . S
C2662 H2650 0.950 . S
C2662 C2661 1.398 . S
C2662 C2663 1.391 . S
C2663 H2651 0.950 . S
C2663 C2659 1.393 . S
C2663 C2662 1.391 . S
H2664 C2672 0.950 . S
H2665 C2677 0.950 . S
H2666 C2674 0.950 . S
H2667 C2676 0.950 . S
H2668 C2678 0.950 . S
H2669 C2680 0.950 . S
H2670 C2682 0.950 . S
H2671 C2683 0.950 . S
C2672 H2664 0.950 . S
C2672 C2673 1.386 . S
C2672 C2674 1.391 . S
C2673 C2672 1.386 . S
C2673 C2677 1.393 . S
C2674 H2666 0.950 . S
C2674 C2672 1.391 . S
C2674 C2675 1.400 . S
C2675 C2674 1.400 . S
C2675 C2676 1.398 . S
C2675 C2681 1.491 . S
C2676 H2667 0.950 . S
C2676 C2675 1.398 . S
C2676 C2677 1.391 . S
C2677 H2665 0.950 . S
C2677 C2673 1.393 . S
C2677 C2676 1.391 . S
C2678 H2668 0.950 . S
C2678 C2679 1.386 . S
C2678 C2680 1.391 . S
C2679 C2678 1.386 . S
C2679 C2683 1.393 . S
C2680 H2669 0.950 . S
C2680 C2678 1.391 . S
C2680 C2681 1.400 . S
C2681 C2675 1.491 . S
C2681 C2680 1.400 . S
C2681 C2682 1.398 . S
C2682 H2670 0.950 . S
C2682 C2681 1.398 . S
C2682 C2683 1.391 . S
C2683 H2671 0.950 . S
C2683 C2679 1.393 . S
C2683 C2682 1.391 . S
H2684 C2692 0.950 . S
H2685 C2697 0.950 . S
H2686 C2694 0.950 . S
H2687 C2696 0.950 . S
H2688 C2698 0.950 . S
H2689 C2700 0.950 . S
H2690 C2702 0.950 . S
H2691 C2703 0.950 . S
C2692 H2684 0.950 . S
C2692 C2693 1.386 . S
C2692 C2694 1.391 . S
C2693 C2692 1.386 . S
C2693 C2697 1.393 . S
C2694 H2686 0.950 . S
C2694 C2692 1.391 . S
C2694 C2695 1.400 . S
C2695 C2694 1.400 . S
C2695 C2696 1.398 . S
C2695 C2701 1.491 . S
C2696 H2687 0.950 . S
C2696 C2695 1.398 . S
C2696 C2697 1.391 . S
C2697 H2685 0.950 . S
C2697 C2693 1.393 . S
C2697 C2696 1.391 . S
C2698 H2688 0.950 . S
C2698 C2699 1.386 . S
C2698 C2700 1.391 . S
C2699 C2698 1.386 . S
C2699 C2703 1.393 . S
C2700 H2689 0.950 . S
C2700 C2698 1.391 . S
C2700 C2701 1.400 . S
C2701 C2695 1.491 . S
C2701 C2700 1.400 . S
C2701 C2702 1.398 . S
C2702 H2690 0.950 . S
C2702 C2701 1.398 . S
C2702 C2703 1.391 . S
C2703 H2691 0.950 . S
C2703 C2699 1.393 . S
C2703 C2702 1.391 . S
H2704 C2712 0.950 . S
H2705 C2717 0.950 . S
H2706 C2714 0.950 . S
H2707 C2716 0.950 . S
H2708 C2718 0.950 . S
H2709 C2720 0.950 . S
H2710 C2722 0.950 . S
H2711 C2723 0.950 . S
C2712 H2704 0.950 . S
C2712 C2713 1.386 . S
C2712 C2714 1.391 . S
C2713 C2712 1.386 . S
C2713 C2717 1.393 . S
C2714 H2706 0.950 . S
C2714 C2712 1.391 . S
C2714 C2715 1.400 . S
C2715 C2714 1.400 . S
C2715 C2716 1.398 . S
C2715 C2721 1.491 . S
C2716 H2707 0.950 . S
C2716 C2715 1.398 . S
C2716 C2717 1.391 . S
C2717 H2705 0.950 . S
C2717 C2713 1.393 . S
C2717 C2716 1.391 . S
C2718 H2708 0.950 . S
C2718 C2719 1.386 . S
C2718 C2720 1.391 . S
C2719 C2718 1.386 . S
C2719 C2723 1.393 . S
C2720 H2709 0.950 . S
C2720 C2718 1.391 . S
C2720 C2721 1.400 . S
C2721 C2715 1.491 . S
C2721 C2720 1.400 . S
C2721 C2722 1.398 . S
C2722 H2710 0.950 . S
C2722 C2721 1.398 . S
C2722 C2723 1.391 . S
C2723 H2711 0.950 . S
C2723 C2719 1.393 . S
C2723 C2722 1.391 . S
H2724 C2732 0.950 . S
H2725 C2737 0.950 . S
H2726 C2734 0.950 . S
H2727 C2736 0.950 . S
H2728 C2738 0.950 . S
H2729 C2740 0.950 . S
H2730 C2742 0.950 . S
H2731 C2743 0.950 . S
C2732 H2724 0.950 . S
C2732 C2733 1.386 . S
C2732 C2734 1.391 . S
C2733 C2732 1.386 . S
C2733 C2737 1.393 . S
C2734 H2726 0.950 . S
C2734 C2732 1.391 . S
C2734 C2735 1.400 . S
C2735 C2734 1.400 . S
C2735 C2736 1.398 . S
C2735 C2741 1.491 1_554 S
C2736 H2727 0.950 . S
C2736 C2735 1.398 . S
C2736 C2737 1.391 . S
C2737 H2725 0.950 . S
C2737 C2733 1.393 . S
C2737 C2736 1.391 . S
C2738 H2728 0.950 . S
C2738 C2739 1.386 . S
C2738 C2740 1.391 . S
C2739 C2738 1.386 . S
C2739 C2743 1.393 . S
C2740 H2729 0.950 . S
C2740 C2738 1.391 . S
C2740 C2741 1.400 . S
C2741 C2735 1.491 1_556 S
C2741 C2740 1.400 . S
C2741 C2742 1.398 . S
C2742 H2730 0.950 . S
C2742 C2741 1.398 . S
C2742 C2743 1.391 . S
C2743 H2731 0.950 . S
C2743 C2739 1.393 . S
C2743 C2742 1.391 . S
H2744 C2752 0.950 . S
H2745 C2757 0.950 . S
H2746 C2754 0.950 . S
H2747 C2756 0.950 . S
H2748 C2758 0.950 . S
H2749 C2760 0.950 . S
H2750 C2762 0.950 . S
H2751 C2763 0.950 . S
C2752 H2744 0.950 . S
C2752 C2753 1.386 . S
C2752 C2754 1.391 . S
C2753 C2752 1.386 . S
C2753 C2757 1.393 . S
C2754 H2746 0.950 . S
C2754 C2752 1.391 . S
C2754 C2755 1.400 . S
C2755 C2754 1.400 . S
C2755 C2756 1.398 . S
C2755 C2761 1.491 1_556 S
C2756 H2747 0.950 . S
C2756 C2755 1.398 . S
C2756 C2757 1.391 . S
C2757 H2745 0.950 . S
C2757 C2753 1.393 . S
C2757 C2756 1.391 . S
C2758 H2748 0.950 . S
C2758 C2759 1.386 . S
C2758 C2760 1.391 . S
C2759 C2758 1.386 . S
C2759 C2763 1.393 . S
C2760 H2749 0.950 . S
C2760 C2758 1.391 . S
C2760 C2761 1.400 . S
C2761 C2755 1.491 1_554 S
C2761 C2760 1.400 . S
C2761 C2762 1.398 . S
C2762 H2750 0.950 . S
C2762 C2761 1.398 . S
C2762 C2763 1.391 . S
C2763 H2751 0.950 . S
C2763 C2759 1.393 . S
C2763 C2762 1.391 . S
H2764 C2772 0.950 . S
H2765 C2777 0.950 . S
H2766 C2774 0.950 . S
H2767 C2776 0.950 . S
H2768 C2778 0.950 . S
H2769 C2780 0.950 . S
H2770 C2782 0.950 . S
H2771 C2783 0.950 . S
C2772 H2764 0.950 . S
C2772 C2773 1.386 . S
C2772 C2774 1.391 . S
C2773 C2772 1.386 . S
C2773 C2777 1.393 . S
C2774 H2766 0.950 . S
C2774 C2772 1.391 . S
C2774 C2775 1.400 . S
C2775 C2774 1.400 . S
C2775 C2776 1.398 . S
C2775 C2781 1.491 1_556 S
C2776 H2767 0.950 . S
C2776 C2775 1.398 . S
C2776 C2777 1.391 . S
C2777 H2765 0.950 . S
C2777 C2773 1.393 . S
C2777 C2776 1.391 . S
C2778 H2768 0.950 . S
C2778 C2779 1.386 . S
C2778 C2780 1.391 . S
C2779 C2778 1.386 . S
C2779 C2783 1.393 . S
C2780 H2769 0.950 . S
C2780 C2778 1.391 . S
C2780 C2781 1.400 . S
C2781 C2775 1.491 1_554 S
C2781 C2780 1.400 . S
C2781 C2782 1.398 . S
C2782 H2770 0.950 . S
C2782 C2781 1.398 . S
C2782 C2783 1.391 . S
C2783 H2771 0.950 . S
C2783 C2779 1.393 . S
C2783 C2782 1.391 . S
H2784 C2792 0.950 . S
H2785 C2797 0.950 . S
H2786 C2794 0.950 . S
H2787 C2796 0.950 . S
H2788 C2798 0.950 . S
H2789 C2800 0.950 . S
H2790 C2802 0.950 . S
H2791 C2803 0.950 . S
C2792 H2784 0.950 . S
C2792 C2793 1.386 . S
C2792 C2794 1.391 . S
C2793 C2792 1.386 . S
C2793 C2797 1.393 . S
C2794 H2786 0.950 . S
C2794 C2792 1.391 . S
C2794 C2795 1.400 . S
C2795 C2794 1.400 . S
C2795 C2796 1.398 . S
C2795 C2801 1.491 . S
C2796 H2787 0.950 . S
C2796 C2795 1.398 . S
C2796 C2797 1.391 . S
C2797 H2785 0.950 . S
C2797 C2793 1.393 . S
C2797 C2796 1.391 . S
C2798 H2788 0.950 . S
C2798 C2799 1.386 . S
C2798 C2800 1.391 . S
C2799 C2798 1.386 . S
C2799 C2803 1.393 . S
C2800 H2789 0.950 . S
C2800 C2798 1.391 . S
C2800 C2801 1.400 . S
C2801 C2795 1.491 . S
C2801 C2800 1.400 . S
C2801 C2802 1.398 . S
C2802 H2790 0.950 . S
C2802 C2801 1.398 . S
C2802 C2803 1.391 . S
C2803 H2791 0.950 . S
C2803 C2799 1.393 . S
C2803 C2802 1.391 . S
H2804 C2812 0.950 . S
H2805 C2817 0.950 . S
H2806 C2814 0.950 . S
H2807 C2816 0.950 . S
H2808 C2818 0.950 . S
H2809 C2820 0.950 . S
H2810 C2822 0.950 . S
H2811 C2823 0.950 . S
C2812 H2804 0.950 . S
C2812 C2813 1.386 . S
C2812 C2814 1.391 . S
C2813 C2812 1.386 . S
C2813 C2817 1.393 . S
C2814 H2806 0.950 . S
C2814 C2812 1.391 . S
C2814 C2815 1.400 . S
C2815 C2814 1.400 . S
C2815 C2816 1.398 . S
C2815 C2821 1.491 . S
C2816 H2807 0.950 . S
C2816 C2815 1.398 . S
C2816 C2817 1.391 . S
C2817 H2805 0.950 . S
C2817 C2813 1.393 . S
C2817 C2816 1.391 . S
C2818 H2808 0.950 . S
C2818 C2819 1.386 . S
C2818 C2820 1.391 . S
C2819 C2818 1.386 . S
C2819 C2823 1.393 . S
C2820 H2809 0.950 . S
C2820 C2818 1.391 . S
C2820 C2821 1.400 . S
C2821 C2815 1.491 . S
C2821 C2820 1.400 . S
C2821 C2822 1.398 . S
C2822 H2810 0.950 . S
C2822 C2821 1.398 . S
C2822 C2823 1.391 . S
C2823 H2811 0.950 . S
C2823 C2819 1.393 . S
C2823 C2822 1.391 . S
H2824 C2832 0.950 . S
H2825 C2837 0.950 . S
H2826 C2834 0.950 . S
H2827 C2836 0.950 . S
H2828 C2838 0.950 . S
H2829 C2840 0.950 . S
H2830 C2842 0.950 . S
H2831 C2843 0.950 . S
C2832 H2824 0.950 . S
C2832 C2833 1.386 . S
C2832 C2834 1.391 . S
C2833 C2832 1.386 . S
C2833 C2837 1.393 . S
C2834 H2826 0.950 . S
C2834 C2832 1.391 . S
C2834 C2835 1.400 . S
C2835 C2834 1.400 . S
C2835 C2836 1.398 . S
C2835 C2841 1.491 . S
C2836 H2827 0.950 . S
C2836 C2835 1.398 . S
C2836 C2837 1.391 . S
C2837 H2825 0.950 . S
C2837 C2833 1.393 . S
C2837 C2836 1.391 . S
C2838 H2828 0.950 . S
C2838 C2839 1.386 . S
C2838 C2840 1.391 . S
C2839 C2838 1.386 . S
C2839 C2843 1.393 . S
C2840 H2829 0.950 . S
C2840 C2838 1.391 . S
C2840 C2841 1.400 . S
C2841 C2835 1.491 . S
C2841 C2840 1.400 . S
C2841 C2842 1.398 . S
C2842 H2830 0.950 . S
C2842 C2841 1.398 . S
C2842 C2843 1.391 . S
C2843 H2831 0.950 . S
C2843 C2839 1.393 . S
C2843 C2842 1.391 . S
H2844 C2852 0.950 . S
H2845 C2857 0.950 . S
H2846 C2854 0.950 . S
H2847 C2856 0.950 . S
H2848 C2858 0.950 . S
H2849 C2860 0.950 . S
H2850 C2862 0.950 . S
H2851 C2863 0.950 . S
C2852 H2844 0.950 . S
C2852 C2853 1.386 . S
C2852 C2854 1.391 . S
C2853 C2852 1.386 . S
C2853 C2857 1.393 . S
C2854 H2846 0.950 . S
C2854 C2852 1.391 . S
C2854 C2855 1.400 . S
C2855 C2854 1.400 . S
C2855 C2856 1.398 . S
C2855 C2861 1.491 1_554 S
C2856 H2847 0.950 . S
C2856 C2855 1.398 . S
C2856 C2857 1.391 . S
C2857 H2845 0.950 . S
C2857 C2853 1.393 . S
C2857 C2856 1.391 . S
C2858 H2848 0.950 . S
C2858 C2859 1.386 . S
C2858 C2860 1.391 . S
C2859 C2858 1.386 . S
C2859 C2863 1.393 . S
C2860 H2849 0.950 . S
C2860 C2858 1.391 . S
C2860 C2861 1.400 . S
C2861 C2855 1.491 1_556 S
C2861 C2860 1.400 . S
C2861 C2862 1.398 . S
C2862 H2850 0.950 . S
C2862 C2861 1.398 . S
C2862 C2863 1.391 . S
C2863 H2851 0.950 . S
C2863 C2859 1.393 . S
C2863 C2862 1.391 . S
H2864 C2872 0.950 . S
H2865 C2877 0.950 . S
H2866 C2874 0.950 . S
H2867 C2876 0.950 . S
H2868 C2878 0.950 . S
H2869 C2880 0.950 . S
H2870 C2882 0.950 . S
H2871 C2883 0.950 . S
C2872 H2864 0.950 . S
C2872 C2873 1.386 . S
C2872 C2874 1.391 . S
C2873 C2872 1.386 . S
C2873 C2877 1.393 . S
C2874 H2866 0.950 . S
C2874 C2872 1.391 . S
C2874 C2875 1.400 . S
C2875 C2874 1.400 . S
C2875 C2876 1.398 . S
C2875 C2881 1.491 1_556 S
C2876 H2867 0.950 . S
C2876 C2875 1.398 . S
C2876 C2877 1.391 . S
C2877 H2865 0.950 . S
C2877 C2873 1.393 . S
C2877 C2876 1.391 . S
C2878 H2868 0.950 . S
C2878 C2879 1.386 . S
C2878 C2880 1.391 . S
C2879 C2878 1.386 . S
C2879 C2883 1.393 . S
C2880 H2869 0.950 . S
C2880 C2878 1.391 . S
C2880 C2881 1.400 . S
C2881 C2875 1.491 1_554 S
C2881 C2880 1.400 . S
C2881 C2882 1.398 . S
C2882 H2870 0.950 . S
C2882 C2881 1.398 . S
C2882 C2883 1.391 . S
C2883 H2871 0.950 . S
C2883 C2879 1.393 . S
C2883 C2882 1.391 . S
H2884 C2892 0.950 . S
H2885 C2897 0.950 . S
H2886 C2894 0.950 . S
H2887 C2896 0.950 . S
H2888 C2898 0.950 . S
H2889 C2900 0.950 . S
H2890 C2902 0.950 . S
H2891 C2903 0.950 . S
C2892 H2884 0.950 . S
C2892 C2893 1.386 . S
C2892 C2894 1.391 . S
C2893 C2892 1.386 . S
C2893 C2897 1.393 . S
C2894 H2886 0.950 . S
C2894 C2892 1.391 . S
C2894 C2895 1.400 . S
C2895 C2894 1.400 . S
C2895 C2896 1.398 . S
C2895 C2901 1.491 1_554 S
C2896 H2887 0.950 . S
C2896 C2895 1.398 . S
C2896 C2897 1.391 . S
C2897 H2885 0.950 . S
C2897 C2893 1.393 . S
C2897 C2896 1.391 . S
C2898 H2888 0.950 . S
C2898 C2899 1.386 . S
C2898 C2900 1.391 . S
C2899 C2898 1.386 . S
C2899 C2903 1.393 . S
C2900 H2889 0.950 . S
C2900 C2898 1.391 . S
C2900 C2901 1.400 . S
C2901 C2895 1.491 1_556 S
C2901 C2900 1.400 . S
C2901 C2902 1.398 . S
C2902 H2890 0.950 . S
C2902 C2901 1.398 . S
C2902 C2903 1.391 . S
C2903 H2891 0.950 . S
C2903 C2899 1.393 . S
C2903 C2902 1.391 . S
H2904 C2912 0.950 . S
H2905 C2917 0.950 . S
H2906 C2914 0.950 . S
H2907 C2916 0.950 . S
H2908 C2918 0.950 . S
H2909 C2920 0.950 . S
H2910 C2922 0.950 . S
H2911 C2923 0.950 . S
C2912 H2904 0.950 . S
C2912 C2913 1.386 . S
C2912 C2914 1.391 . S
C2913 C2912 1.386 . S
C2913 C2917 1.393 . S
C2914 H2906 0.950 . S
C2914 C2912 1.391 . S
C2914 C2915 1.400 . S
C2915 C2914 1.400 . S
C2915 C2916 1.398 . S
C2915 C2921 1.491 1_556 S
C2916 H2907 0.950 . S
C2916 C2915 1.398 . S
C2916 C2917 1.391 . S
C2917 H2905 0.950 . S
C2917 C2913 1.393 . S
C2917 C2916 1.391 . S
C2918 H2908 0.950 . S
C2918 C2919 1.386 . S
C2918 C2920 1.391 . S
C2919 C2918 1.386 . S
C2919 C2923 1.393 . S
C2920 H2909 0.950 . S
C2920 C2918 1.391 . S
C2920 C2921 1.400 . S
C2921 C2915 1.491 1_554 S
C2921 C2920 1.400 . S
C2921 C2922 1.398 . S
C2922 H2910 0.950 . S
C2922 C2921 1.398 . S
C2922 C2923 1.391 . S
C2923 H2911 0.950 . S
C2923 C2919 1.393 . S
C2923 C2922 1.391 . S
H2924 C2932 0.950 . S
H2925 C2937 0.950 . S
H2926 C2934 0.950 . S
H2927 C2936 0.950 . S
H2928 C2938 0.950 . S
H2929 C2940 0.950 . S
H2930 C2942 0.950 . S
H2931 C2943 0.950 . S
C2932 H2924 0.950 . S
C2932 C2933 1.386 . S
C2932 C2934 1.391 . S
C2933 C2932 1.386 . S
C2933 C2937 1.393 . S
C2934 H2926 0.950 . S
C2934 C2932 1.391 . S
C2934 C2935 1.400 . S
C2935 C2934 1.400 . S
C2935 C2936 1.398 . S
C2935 C2941 1.491 1_556 S
C2936 H2927 0.950 . S
C2936 C2935 1.398 . S
C2936 C2937 1.391 . S
C2937 H2925 0.950 . S
C2937 C2933 1.393 . S
C2937 C2936 1.391 . S
C2938 H2928 0.950 . S
C2938 C2939 1.386 . S
C2938 C2940 1.391 . S
C2939 C2938 1.386 . S
C2939 C2943 1.393 . S
C2940 H2929 0.950 . S
C2940 C2938 1.391 . S
C2940 C2941 1.400 . S
C2941 C2935 1.491 1_554 S
C2941 C2940 1.400 . S
C2941 C2942 1.398 . S
C2942 H2930 0.950 . S
C2942 C2941 1.398 . S
C2942 C2943 1.391 . S
C2943 H2931 0.950 . S
C2943 C2939 1.393 . S
C2943 C2942 1.391 . S
H2944 C2952 0.950 . S
H2945 C2957 0.950 . S
H2946 C2954 0.950 . S
H2947 C2956 0.950 . S
H2948 C2958 0.950 . S
H2949 C2960 0.950 . S
H2950 C2962 0.950 . S
H2951 C2963 0.950 . S
C2952 H2944 0.950 . S
C2952 C2953 1.386 . S
C2952 C2954 1.391 . S
C2953 C2952 1.386 . S
C2953 C2957 1.393 . S
C2954 H2946 0.950 . S
C2954 C2952 1.391 . S
C2954 C2955 1.400 . S
C2955 C2954 1.400 . S
C2955 C2956 1.398 . S
C2955 C2961 1.491 1_556 S
C2956 H2947 0.950 . S
C2956 C2955 1.398 . S
C2956 C2957 1.391 . S
C2957 H2945 0.950 . S
C2957 C2953 1.393 . S
C2957 C2956 1.391 . S
C2958 H2948 0.950 . S
C2958 C2959 1.386 . S
C2958 C2960 1.391 . S
C2959 C2958 1.386 . S
C2959 C2963 1.393 . S
C2960 H2949 0.950 . S
C2960 C2958 1.391 . S
C2960 C2961 1.400 . S
C2961 C2955 1.491 1_554 S
C2961 C2960 1.400 . S
C2961 C2962 1.398 . S
C2962 H2950 0.950 . S
C2962 C2961 1.398 . S
C2962 C2963 1.391 . S
C2963 H2951 0.950 . S
C2963 C2959 1.393 . S
C2963 C2962 1.391 . S
H2964 C2972 0.950 . S
H2965 C2977 0.950 . S
H2966 C2974 0.950 . S
H2967 C2976 0.950 . S
H2968 C2978 0.950 . S
H2969 C2980 0.950 . S
H2970 C2982 0.950 . S
H2971 C2983 0.950 . S
C2972 H2964 0.950 . S
C2972 C2973 1.386 . S
C2972 C2974 1.391 . S
C2973 C2972 1.386 . S
C2973 C2977 1.393 . S
C2974 H2966 0.950 . S
C2974 C2972 1.391 . S
C2974 C2975 1.400 . S
C2975 C2974 1.400 . S
C2975 C2976 1.398 . S
C2975 C2981 1.491 . S
C2976 H2967 0.950 . S
C2976 C2975 1.398 . S
C2976 C2977 1.391 . S
C2977 H2965 0.950 . S
C2977 C2973 1.393 . S
C2977 C2976 1.391 . S
C2978 H2968 0.950 . S
C2978 C2979 1.386 . S
C2978 C2980 1.391 . S
C2979 C2978 1.386 . S
C2979 C2983 1.393 . S
C2980 H2969 0.950 . S
C2980 C2978 1.391 . S
C2980 C2981 1.400 . S
C2981 C2975 1.491 . S
C2981 C2980 1.400 . S
C2981 C2982 1.398 . S
C2982 H2970 0.950 . S
C2982 C2981 1.398 . S
C2982 C2983 1.391 . S
C2983 H2971 0.950 . S
C2983 C2979 1.393 . S
C2983 C2982 1.391 . S
H2984 C2992 0.950 . S
H2985 C2997 0.950 . S
H2986 C2994 0.950 . S
H2987 C2996 0.950 . S
H2988 C2998 0.950 . S
H2989 C3000 0.950 . S
H2990 C3002 0.950 . S
H2991 C3003 0.950 . S
C2992 H2984 0.950 . S
C2992 C2993 1.386 . S
C2992 C2994 1.391 . S
C2993 C2992 1.386 . S
C2993 C2997 1.393 . S
C2994 H2986 0.950 . S
C2994 C2992 1.391 . S
C2994 C2995 1.400 . S
C2995 C2994 1.400 . S
C2995 C2996 1.398 . S
C2995 C3001 1.491 . S
C2996 H2987 0.950 . S
C2996 C2995 1.398 . S
C2996 C2997 1.391 . S
C2997 H2985 0.950 . S
C2997 C2993 1.393 . S
C2997 C2996 1.391 . S
C2998 H2988 0.950 . S
C2998 C2999 1.386 . S
C2998 C3000 1.391 . S
C2999 C2998 1.386 . S
C2999 C3003 1.393 . S
C3000 H2989 0.950 . S
C3000 C2998 1.391 . S
C3000 C3001 1.400 . S
C3001 C2995 1.491 . S
C3001 C3000 1.400 . S
C3001 C3002 1.398 . S
C3002 H2990 0.950 . S
C3002 C3001 1.398 . S
C3002 C3003 1.391 . S
C3003 H2991 0.950 . S
C3003 C2999 1.393 . S
C3003 C3002 1.391 . S
H3004 C3012 0.950 . S
H3005 C3017 0.950 . S
H3006 C3014 0.950 . S
H3007 C3016 0.950 . S
H3008 C3018 0.950 . S
H3009 C3020 0.950 . S
H3010 C3022 0.950 . S
H3011 C3023 0.950 . S
C3012 H3004 0.950 . S
C3012 C3013 1.386 . S
C3012 C3014 1.391 . S
C3013 C3012 1.386 . S
C3013 C3017 1.393 . S
C3014 H3006 0.950 . S
C3014 C3012 1.391 . S
C3014 C3015 1.400 . S
C3015 C3014 1.400 . S
C3015 C3016 1.398 . S
C3015 C3021 1.491 . S
C3016 H3007 0.950 . S
C3016 C3015 1.398 . S
C3016 C3017 1.391 . S
C3017 H3005 0.950 . S
C3017 C3013 1.393 . S
C3017 C3016 1.391 . S
C3018 H3008 0.950 . S
C3018 C3019 1.386 . S
C3018 C3020 1.391 . S
C3019 C3018 1.386 . S
C3019 C3023 1.393 . S
C3020 H3009 0.950 . S
C3020 C3018 1.391 . S
C3020 C3021 1.400 . S
C3021 C3015 1.491 . S
C3021 C3020 1.400 . S
C3021 C3022 1.398 . S
C3022 H3010 0.950 . S
C3022 C3021 1.398 . S
C3022 C3023 1.391 . S
C3023 H3011 0.950 . S
C3023 C3019 1.393 . S
C3023 C3022 1.391 . S
C1233 C20 1.492 . S
C1239 C530 1.494 . S
C1253 C564 1.496 . S
C1259 C54 1.493 . S
C1273 C598 1.493 . S
C1279 C88 1.495 . S
C1293 C836 1.494 . S
C1299 C122 1.493 . S
C1313 C156 1.495 . S
C1319 C870 1.498 . S
C1333 C904 1.495 . S
C1339 C190 1.498 . S
C1353 C1142 1.498 . S
C1359 C224 1.495 . S
C1373 C258 1.498 . S
C1379 C1176 1.495 . S
C1393 C1210 1.496 . S
C1399 C292 1.499 . S
C1413 C632 1.498 . S
C1419 C326 1.498 . S
C1433 C666 1.497 . S
C1439 C360 1.495 . S
C1453 C700 1.498 . S
C1459 C394 1.499 . S
C1473 C938 1.498 . S
C1479 C428 1.498 . S
C1493 C972 1.494 . S
C1499 C462 1.493 . S
C1513 C496 1.494 . S
C1519 C1006 1.493 . S
C1533 C734 1.493 . S
C1539 C1040 1.493 . S
C1553 C1074 1.497 . S
C1559 C768 1.494 . S
C1573 C802 1.499 . S
C1579 C1108 1.496 . S
C1593 C1019 1.491 . S
C1599 C33 1.487 . S
C1613 C67 1.489 . S
C1619 C951 1.486 . S
C1633 C985 1.492 . S
C1639 C101 1.488 . S
C1653 C475 1.489 . S
C1659 C135 1.492 . S
C1673 C509 1.487 . S
C1679 C169 1.487 . S
C1693 C441 1.488 . S
C1699 C203 1.492 . S
C1713 C237 1.487 . S
C1719 C815 1.491 . S
C1733 C747 1.490 . S
C1739 C271 1.493 . S
C1753 C305 1.488 . S
C1759 C781 1.492 . S
C1773 C1087 1.489 . S
C1779 C339 1.493 . S
C1793 C373 1.487 . S
C1799 C1121 1.487 . S
C1813 C407 1.491 . S
C1819 C1053 1.493 . S
C1833 C883 1.488 . S
C1839 C543 1.492 . S
C1853 C917 1.487 . S
C1859 C577 1.490 . S
C1873 C611 1.487 . S
C1879 C849 1.488 . S
C1893 C645 1.493 . S
C1899 C1223 1.492 . S
C1913 C1155 1.487 . S
C1919 C679 1.490 . S
C1933 C1189 1.487 . S
C1939 C713 1.488 . S
C1953 C2 1.486 . S
C1959 C376 1.482 . S
C1973 C36 1.483 . S
C1979 C308 1.485 . S
C1993 C70 1.487 . S
C1999 C342 1.482 . S
C2013 C104 1.484 . S
C2019 C240 1.484 . S
C2033 C274 1.482 . S
C2039 C138 1.487 . S
C2053 C206 1.481 . S
C2059 C172 1.486 . S
C2073 C784 1.485 . S
C2079 C410 1.482 . S
C2093 C716 1.482 . S
C2099 C444 1.486 . S
C2113 C478 1.484 . S
C2119 C750 1.484 . S
C2133 C648 1.482 . S
C2139 C512 1.486 . S
C2153 C682 1.482 . S
C2159 C546 1.487 . S
C2173 C614 1.483 . S
C2179 C580 1.485 . S
C2193 C1192 1.482 . S
C2199 C818 1.486 . S
C2213 C852 1.486 . S
C2219 C1124 1.481 . S
C2233 C1158 1.482 . S
C2239 C886 1.486 . S
C2253 C1056 1.484 . S
C2259 C920 1.484 . S
C2273 C1090 1.483 . S
C2279 C954 1.485 . S
C2293 C1022 1.486 . S
C2299 C988 1.481 . S
C2313 C9 1.348 . S
C2319 C5 1.390 . S
C2333 C39 1.393 . S
C2339 C43 1.333 . S
C2353 C77 1.352 . S
C2359 C73 1.391 . S
C2373 C107 1.390 . S
C2379 C111 1.326 . S
C2393 C141 1.392 . S
C2399 C145 1.354 . S
C2413 C175 1.393 . S
C2419 C179 1.354 . S
C2433 C209 1.391 . S
C2439 C213 1.352 . S
C2453 C243 1.390 . S
C2459 C247 1.351 . S
C2473 C281 1.348 . S
C2479 C277 1.390 . S
C2493 C315 1.354 . S
C2499 C311 1.392 . S
C2513 C345 1.389 . S
C2519 C349 1.346 . S
C2533 C383 1.341 . S
C2539 C379 1.389 . S
C2553 C413 1.392 . S
C2559 C417 1.328 . S
C2573 C447 1.391 . S
C2579 C451 1.326 . S
C2593 C481 1.394 . S
C2599 C485 1.342 . S
C2613 C515 1.393 . S
C2619 C519 1.339 . S
C2633 C549 1.393 . S
C2639 C553 1.335 . S
C2653 C587 1.352 . S
C2659 C583 1.391 . S
C2673 C617 1.391 . S
C2679 C621 1.353 . S
C2693 C655 1.354 . S
C2699 C651 1.392 . S
C2713 C689 1.333 . S
C2719 C685 1.393 . S
C2733 C723 1.335 . S
C2739 C719 1.389 . S
C2753 C753 1.389 . S
C2759 C757 1.347 . S
C2773 C787 1.393 . S
C2779 C791 1.332 . S
C2793 C825 1.354 . S
C2799 C821 1.392 . S
C2813 C859 1.330 . S
C2819 C855 1.392 . S
C2833 C889 1.389 . S
C2839 C893 1.328 . S
C2853 C923 1.390 . S
C2859 C927 1.351 . S
C2873 C961 1.336 . S
C2879 C957 1.393 . S
C2893 C991 1.390 . S
C2899 C995 1.350 . S
C2913 C1029 1.330 . S
C2919 C1025 1.392 . S
C2933 C1063 1.333 . S
C2939 C1059 1.393 . S
C2953 C1097 1.352 . S
C2959 C1093 1.390 . S
C2973 C1127 1.394 . S
C2979 C1131 1.347 . S
C2993 C1165 1.333 . S
C2999 C1161 1.389 . S
C3013 C1195 1.389 . S
C3019 C1199 1.341 . S
