# Generated by pormake.
# Topology wgf, (5)-cn, num edge types: 1
# Building blocks:
#     Node 0, Type 0, BuildingBlock: XOMCOT_clean_sbu_1, # of connection points: 5
#     Node 1, Type 0, BuildingBlock: XOMCOT_clean_sbu_1, # of connection points: 5
#     Node 2, Type 0, BuildingBlock: XOMCOT_clean_sbu_1, # of connection points: 5
#     Node 3, Type 0, BuildingBlock: XOMCOT_clean_sbu_1, # of connection points: 5
#     Node 4, Type 0, BuildingBlock: XOMCOT_clean_sbu_1, # of connection points: 5
#     Node 5, Type 0, BuildingBlock: XOMCOT_clean_sbu_1, # of connection points: 5
#     Node 6, Type 0, BuildingBlock: XOMCOT_clean_sbu_1, # of connection points: 5
#     Node 7, Type 0, BuildingBlock: XOMCOT_clean_sbu_1, # of connection points: 5
#     Node 8, Type 0, BuildingBlock: XOMCOT_clean_sbu_1, # of connection points: 5
#     Node 9, Type 0, BuildingBlock: XOMCOT_clean_sbu_1, # of connection points: 5
#     Node 10, Type 0, BuildingBlock: XOMCOT_clean_sbu_1, # of connection points: 5
#     Node 11, Type 0, BuildingBlock: XOMCOT_clean_sbu_1, # of connection points: 5
#     Node 12, Type 0, BuildingBlock: XOMCOT_clean_sbu_1, # of connection points: 5
#     Node 13, Type 0, BuildingBlock: XOMCOT_clean_sbu_1, # of connection points: 5
#     Node 14, Type 0, BuildingBlock: XOMCOT_clean_sbu_1, # of connection points: 5
#     Node 15, Type 0, BuildingBlock: XOMCOT_clean_sbu_1, # of connection points: 5
#     Node 16, Type 0, BuildingBlock: XOMCOT_clean_sbu_1, # of connection points: 5
#     Node 17, Type 0, BuildingBlock: XOMCOT_clean_sbu_1, # of connection points: 5
#     Node 18, Type 0, BuildingBlock: XOMCOT_clean_sbu_1, # of connection points: 5
#     Node 19, Type 0, BuildingBlock: XOMCOT_clean_sbu_1, # of connection points: 5
#     Node 20, Type 0, BuildingBlock: XOMCOT_clean_sbu_1, # of connection points: 5
#     Node 21, Type 0, BuildingBlock: XOMCOT_clean_sbu_1, # of connection points: 5
#     Node 22, Type 0, BuildingBlock: XOMCOT_clean_sbu_1, # of connection points: 5
#     Node 23, Type 0, BuildingBlock: XOMCOT_clean_sbu_1, # of connection points: 5
#     Node 24, Type 0, BuildingBlock: XOMCOT_clean_sbu_1, # of connection points: 5
#     Node 25, Type 0, BuildingBlock: XOMCOT_clean_sbu_1, # of connection points: 5
#     Node 26, Type 0, BuildingBlock: XOMCOT_clean_sbu_1, # of connection points: 5
#     Node 27, Type 0, BuildingBlock: XOMCOT_clean_sbu_1, # of connection points: 5
#     Node 28, Type 0, BuildingBlock: XOMCOT_clean_sbu_1, # of connection points: 5
#     Node 29, Type 0, BuildingBlock: XOMCOT_clean_sbu_1, # of connection points: 5
#     Node 30, Type 0, BuildingBlock: XOMCOT_clean_sbu_1, # of connection points: 5
#     Node 31, Type 0, BuildingBlock: XOMCOT_clean_sbu_1, # of connection points: 5
#     Edge 32, Type (0, 0), BuildingBlock: OJICUG_clean_linker_0, # of connection points: 2
#     Edge 33, Type (0, 0), BuildingBlock: OJICUG_clean_linker_0, # of connection points: 2
#     Edge 34, Type (0, 0), BuildingBlock: OJICUG_clean_linker_0, # of connection points: 2
#     Edge 35, Type (0, 0), BuildingBlock: OJICUG_clean_linker_0, # of connection points: 2
#     Edge 36, Type (0, 0), BuildingBlock: OJICUG_clean_linker_0, # of connection points: 2
#     Edge 37, Type (0, 0), BuildingBlock: OJICUG_clean_linker_0, # of connection points: 2
#     Edge 38, Type (0, 0), BuildingBlock: OJICUG_clean_linker_0, # of connection points: 2
#     Edge 39, Type (0, 0), BuildingBlock: OJICUG_clean_linker_0, # of connection points: 2
#     Edge 40, Type (0, 0), BuildingBlock: OJICUG_clean_linker_0, # of connection points: 2
#     Edge 41, Type (0, 0), BuildingBlock: OJICUG_clean_linker_0, # of connection points: 2
#     Edge 42, Type (0, 0), BuildingBlock: OJICUG_clean_linker_0, # of connection points: 2
#     Edge 43, Type (0, 0), BuildingBlock: OJICUG_clean_linker_0, # of connection points: 2
#     Edge 44, Type (0, 0), BuildingBlock: OJICUG_clean_linker_0, # of connection points: 2
#     Edge 45, Type (0, 0), BuildingBlock: OJICUG_clean_linker_0, # of connection points: 2
#     Edge 46, Type (0, 0), BuildingBlock: OJICUG_clean_linker_0, # of connection points: 2
#     Edge 47, Type (0, 0), BuildingBlock: OJICUG_clean_linker_0, # of connection points: 2
#     Edge 48, Type (0, 0), BuildingBlock: OJICUG_clean_linker_0, # of connection points: 2
#     Edge 49, Type (0, 0), BuildingBlock: OJICUG_clean_linker_0, # of connection points: 2
#     Edge 50, Type (0, 0), BuildingBlock: OJICUG_clean_linker_0, # of connection points: 2
#     Edge 51, Type (0, 0), BuildingBlock: OJICUG_clean_linker_0, # of connection points: 2
#     Edge 52, Type (0, 0), BuildingBlock: OJICUG_clean_linker_0, # of connection points: 2
#     Edge 53, Type (0, 0), BuildingBlock: OJICUG_clean_linker_0, # of connection points: 2
#     Edge 54, Type (0, 0), BuildingBlock: OJICUG_clean_linker_0, # of connection points: 2
#     Edge 55, Type (0, 0), BuildingBlock: OJICUG_clean_linker_0, # of connection points: 2
#     Edge 56, Type (0, 0), BuildingBlock: OJICUG_clean_linker_0, # of connection points: 2
#     Edge 57, Type (0, 0), BuildingBlock: OJICUG_clean_linker_0, # of connection points: 2
#     Edge 58, Type (0, 0), BuildingBlock: OJICUG_clean_linker_0, # of connection points: 2
#     Edge 59, Type (0, 0), BuildingBlock: OJICUG_clean_linker_0, # of connection points: 2
#     Edge 60, Type (0, 0), BuildingBlock: OJICUG_clean_linker_0, # of connection points: 2
#     Edge 61, Type (0, 0), BuildingBlock: OJICUG_clean_linker_0, # of connection points: 2
#     Edge 62, Type (0, 0), BuildingBlock: OJICUG_clean_linker_0, # of connection points: 2
#     Edge 63, Type (0, 0), BuildingBlock: OJICUG_clean_linker_0, # of connection points: 2
#     Edge 64, Type (0, 0), BuildingBlock: OJICUG_clean_linker_0, # of connection points: 2
#     Edge 65, Type (0, 0), BuildingBlock: OJICUG_clean_linker_0, # of connection points: 2
#     Edge 66, Type (0, 0), BuildingBlock: OJICUG_clean_linker_0, # of connection points: 2
#     Edge 67, Type (0, 0), BuildingBlock: OJICUG_clean_linker_0, # of connection points: 2
#     Edge 68, Type (0, 0), BuildingBlock: OJICUG_clean_linker_0, # of connection points: 2
#     Edge 69, Type (0, 0), BuildingBlock: OJICUG_clean_linker_0, # of connection points: 2
#     Edge 70, Type (0, 0), BuildingBlock: OJICUG_clean_linker_0, # of connection points: 2
#     Edge 71, Type (0, 0), BuildingBlock: OJICUG_clean_linker_0, # of connection points: 2
#     Edge 72, Type (0, 0), BuildingBlock: OJICUG_clean_linker_0, # of connection points: 2
#     Edge 73, Type (0, 0), BuildingBlock: OJICUG_clean_linker_0, # of connection points: 2
#     Edge 74, Type (0, 0), BuildingBlock: OJICUG_clean_linker_0, # of connection points: 2
#     Edge 75, Type (0, 0), BuildingBlock: OJICUG_clean_linker_0, # of connection points: 2
#     Edge 76, Type (0, 0), BuildingBlock: OJICUG_clean_linker_0, # of connection points: 2
#     Edge 77, Type (0, 0), BuildingBlock: OJICUG_clean_linker_0, # of connection points: 2
#     Edge 78, Type (0, 0), BuildingBlock: OJICUG_clean_linker_0, # of connection points: 2
#     Edge 79, Type (0, 0), BuildingBlock: OJICUG_clean_linker_0, # of connection points: 2
#     Edge 80, Type (0, 0), BuildingBlock: OJICUG_clean_linker_0, # of connection points: 2
#     Edge 81, Type (0, 0), BuildingBlock: OJICUG_clean_linker_0, # of connection points: 2
#     Edge 82, Type (0, 0), BuildingBlock: OJICUG_clean_linker_0, # of connection points: 2
#     Edge 83, Type (0, 0), BuildingBlock: OJICUG_clean_linker_0, # of connection points: 2
#     Edge 84, Type (0, 0), BuildingBlock: OJICUG_clean_linker_0, # of connection points: 2
#     Edge 85, Type (0, 0), BuildingBlock: OJICUG_clean_linker_0, # of connection points: 2
#     Edge 86, Type (0, 0), BuildingBlock: OJICUG_clean_linker_0, # of connection points: 2
#     Edge 87, Type (0, 0), BuildingBlock: OJICUG_clean_linker_0, # of connection points: 2
#     Edge 88, Type (0, 0), BuildingBlock: OJICUG_clean_linker_0, # of connection points: 2
#     Edge 89, Type (0, 0), BuildingBlock: OJICUG_clean_linker_0, # of connection points: 2
#     Edge 90, Type (0, 0), BuildingBlock: OJICUG_clean_linker_0, # of connection points: 2
#     Edge 91, Type (0, 0), BuildingBlock: OJICUG_clean_linker_0, # of connection points: 2
#     Edge 92, Type (0, 0), BuildingBlock: OJICUG_clean_linker_0, # of connection points: 2
#     Edge 93, Type (0, 0), BuildingBlock: OJICUG_clean_linker_0, # of connection points: 2
#     Edge 94, Type (0, 0), BuildingBlock: OJICUG_clean_linker_0, # of connection points: 2
#     Edge 95, Type (0, 0), BuildingBlock: OJICUG_clean_linker_0, # of connection points: 2
#     Edge 96, Type (0, 0), BuildingBlock: OJICUG_clean_linker_0, # of connection points: 2
#     Edge 97, Type (0, 0), BuildingBlock: OJICUG_clean_linker_0, # of connection points: 2
#     Edge 98, Type (0, 0), BuildingBlock: OJICUG_clean_linker_0, # of connection points: 2
#     Edge 99, Type (0, 0), BuildingBlock: OJICUG_clean_linker_0, # of connection points: 2
#     Edge 100, Type (0, 0), BuildingBlock: OJICUG_clean_linker_0, # of connection points: 2
#     Edge 101, Type (0, 0), BuildingBlock: OJICUG_clean_linker_0, # of connection points: 2
#     Edge 102, Type (0, 0), BuildingBlock: OJICUG_clean_linker_0, # of connection points: 2
#     Edge 103, Type (0, 0), BuildingBlock: OJICUG_clean_linker_0, # of connection points: 2
#     Edge 104, Type (0, 0), BuildingBlock: OJICUG_clean_linker_0, # of connection points: 2
#     Edge 105, Type (0, 0), BuildingBlock: OJICUG_clean_linker_0, # of connection points: 2
#     Edge 106, Type (0, 0), BuildingBlock: OJICUG_clean_linker_0, # of connection points: 2
#     Edge 107, Type (0, 0), BuildingBlock: OJICUG_clean_linker_0, # of connection points: 2
#     Edge 108, Type (0, 0), BuildingBlock: OJICUG_clean_linker_0, # of connection points: 2
#     Edge 109, Type (0, 0), BuildingBlock: OJICUG_clean_linker_0, # of connection points: 2
#     Edge 110, Type (0, 0), BuildingBlock: OJICUG_clean_linker_0, # of connection points: 2
#     Edge 111, Type (0, 0), BuildingBlock: OJICUG_clean_linker_0, # of connection points: 2
# Relax obj value: 0.373
# Max RMSD: 0.210
# Mean RMSD: 0.203
data_MOF--net-wgf--node1-XOMCOT_clean_sbu_1--edge1-OJICUG_clean_linker_0
_symmetry_space_group_name_H-M    P1
_symmetry_Int_Tables_number       1
_symmetry_cell_setting            triclinic
loop_
_symmetry_equiv_pos_as_xyz
'x, y, z'
_cell_length_a     68.77441
_cell_length_b     68.670382
_cell_length_c     18.139842
_cell_angle_alpha  89.931766
_cell_angle_beta   89.885423
_cell_angle_gamma 90.106703
loop_
_atom_site_label
_atom_site_type_symbol
_atom_site_fract_x
_atom_site_fract_y
_atom_site_fract_z
_atom_type_partial_charge
C0 C 0.04099 0.09864 0.06176 0.0
C1 C 0.02833 0.10972 0.10284 0.0
N2 N 0.01847 0.09763 0.14779 0.0
N3 N 0.03947 0.07986 0.08313 0.0
C4 C 0.02532 0.07964 0.13423 0.0
H5 H 0.05182 0.10408 0.02362 0.0
Co6 Co 0.05651 0.06045 0.05657 0.0
C7 C 0.05793 0.03994 0.20963 0.0
O8 O 0.07471 0.04814 0.22442 0.0
N9 N 0.07378 0.04119 0.02664 0.0
C10 C 0.09669 0.01854 0.0149 0.0
C11 C 0.08489 0.02826 0.06384 0.0
C12 C 0.07914 0.03907 0.95583 0.0
N13 N 0.09317 0.02565 0.9472 0.0
O14 O 0.03538 0.0485 0.99695 0.0
H15 H 0.08489 0.026 0.12247 0.0
H16 H 0.07288 0.04731 0.91108 0.0
O17 O 0.04951 0.04364 0.14739 0.0
C18 C 0.03318 0.057 0.93417 0.0
O19 O 0.04494 0.07144 0.9175 0.0
N20 N 0.07723 0.07445 0.1047 0.0
C21 C 0.1053 0.10239 0.14611 0.0
C22 C 0.08899 0.0986 0.19081 0.0
C23 C 0.07502 0.08485 0.16863 0.0
C24 C 0.09306 0.0781 0.06096 0.0
C25 C 0.1073 0.0916 0.08109 0.0
H26 H 0.06203 0.08314 0.20169 0.0
H27 H 0.09431 0.07147 1.00739 0.0
H28 H 0.02149 0.06693 0.16654 0.0
H29 H 0.02749 0.12546 0.10388 0.0
H30 H 0.10698 1.00715 0.02799 0.0
H31 H 0.0865 0.10685 0.24075 0.0
H32 H 0.11954 0.09394 0.04447 0.0
C33 C 0.18053 0.77923 0.30527 0.0
C34 C 0.16951 0.76837 0.35402 0.0
N35 N 0.17323 0.77494 0.42245 0.0
N36 N 0.19136 0.79207 0.34377 0.0
C37 C 0.18668 0.789 0.41464 0.0
H38 H 0.18033 0.77816 0.2458 0.0
Co39 Co 0.20636 0.81224 0.31014 0.0
C40 C 0.23823 0.81969 0.42541 0.0
O41 O 0.23954 0.83769 0.40171 0.0
N42 N 0.22106 0.83341 0.27464 0.0
C43 C 0.23075 0.86329 0.24345 0.0
C44 C 0.21639 0.85259 0.2764 0.0
C45 C 0.23841 0.83301 0.24006 0.0
N46 N 0.24452 0.85095 0.21993 0.0
O47 O 0.22046 0.79325 0.24525 0.0
H48 H 0.20322 0.85881 0.29822 0.0
H49 H 0.24594 0.81971 0.22597 0.0
O50 O 0.22558 0.80813 0.39601 0.0
C51 C 0.2167 0.79357 0.17561 0.0
O52 O 0.20644 0.80819 0.14993 0.0
N53 N 0.1903 0.82964 0.36365 0.0
C54 C 0.1635 0.85797 0.40849 0.0
C55 C 0.17911 0.8526 0.45438 0.0
C56 C 0.19244 0.83834 0.43091 0.0
C57 C 0.17451 0.83376 0.32106 0.0
C58 C 0.16112 0.84797 0.34187 0.0
H59 H 0.20445 0.83466 0.46626 0.0
H60 H 0.17284 0.82651 0.26852 0.0
H61 H 0.193 0.79703 0.45998 0.0
H62 H 0.15942 0.75682 0.34038 0.0
H63 H 0.23045 0.87883 0.23336 0.0
H64 H 0.18134 0.85978 0.50682 0.0
H65 H 0.14907 0.85122 0.30557 0.0
C66 C 0.48771 0.92638 0.56299 0.0
C67 C 0.49688 0.91398 0.61167 0.0
N68 N 0.49183 0.91939 0.68036 0.0
N69 N 0.47746 0.93965 0.60158 0.0
C70 C 0.48033 0.93504 0.67264 0.0
H71 H 0.4885 0.92582 0.50348 0.0
Co72 Co 0.46178 0.9589 0.56494 0.0
C73 C 0.45407 0.98652 0.69278 0.0
O74 O 0.43592 0.98672 0.67022 0.0
N75 N 0.44607 0.97817 0.52559 0.0
C76 C 0.43691 1.00666 0.48 0.0
C77 C 0.44944 0.99753 0.52736 0.0
C78 C 0.43185 0.97587 0.47536 0.0
N79 N 0.42603 0.99296 0.44681 0.0
O80 O 0.48446 0.96986 0.51011 0.0
H81 H 0.46134 1.00441 0.55631 0.0
H82 H 0.42745 0.96197 0.45315 0.0
O83 O 0.46649 0.97597 0.657 0.0
C84 C 0.48369 0.96667 0.44008 0.0
O85 O 0.46801 0.9583 0.41366 0.0
N86 N 0.43984 0.94573 0.6074 0.0
C87 C 0.40991 0.91954 0.64692 0.0
C88 C 0.41883 0.93155 0.69987 0.0
C89 C 0.43394 0.94429 0.67935 0.0
C90 C 0.43177 0.93365 0.55613 0.0
C91 C 0.41666 0.92081 0.57411 0.0
H92 H 0.44127 0.95215 0.72242 0.0
H93 H 0.43769 0.93338 0.5009 0.0
H94 H 0.47454 0.94331 0.71836 0.0
H95 H 0.50654 0.9021 0.59794 0.0
H96 H 0.43751 0.02187 0.46413 0.0
H97 H 0.41444 0.9309 0.75718 0.0
H98 H 0.41092 0.91134 0.53168 0.0
C99 C 0.34566 0.22717 0.82424 0.0
C100 C 0.35576 0.23686 0.87854 0.0
N101 N 0.34279 0.24281 0.92918 0.0
N102 N 0.32654 0.2272 0.84133 0.0
C103 C 0.32524 0.23738 0.90427 0.0
H104 H 0.35199 0.21897 0.77937 0.0
Co105 Co 0.30821 0.21066 0.80221 0.0
C106 C 0.28356 0.20284 0.93998 0.0
O107 O 0.28727 0.18421 0.93183 0.0
N108 N 0.29016 0.19405 0.76027 0.0
C109 C 0.2645 0.17692 0.72438 0.0
C110 C 0.272 0.18838 0.77924 0.0
C111 C 0.29289 0.18665 0.69247 0.0
N112 N 0.27775 0.17584 0.66991 0.0
O113 O 0.29689 0.23258 0.74357 0.0
H114 H 0.26383 0.19335 0.82625 0.0
H115 H 0.30545 0.18993 0.65873 0.0
O116 O 0.29012 0.21506 0.89166 0.0
C117 C 0.30714 0.23579 0.68508 0.0
O118 O 0.32284 0.2252 0.67578 0.0
N119 N 0.3216 0.1892 0.84863 0.0
C120 C 0.34841 0.16054 0.89529 0.0
C121 C 0.34097 0.17444 0.94492 0.0
C122 C 0.3278 0.18874 0.9204 0.0
C123 C 0.32903 0.17595 0.80007 0.0
C124 C 0.34183 0.16135 0.82231 0.0
H125 H 0.32323 0.19986 0.95872 0.0
H126 H 0.32614 0.17719 0.74217 0.0
H127 H 0.31195 0.23943 0.93515 0.0
H128 H 0.37141 0.23789 0.88385 0.0
H129 H 0.24976 0.17141 0.7217 0.0
H130 H 0.3459 0.1749 1.00152 0.0
H131 H 0.34693 0.15111 0.78135 0.0
C132 C 0.04487 0.91858 0.55106 0.0
C133 C 0.03098 0.90773 0.5154 0.0
N134 N 0.01775 0.92004 0.48692 0.0
N135 N 0.04066 0.93764 0.54301 0.0
C136 C 0.02352 0.93798 0.50787 0.0
H137 H 0.05798 0.913 0.5761 0.0
Co138 Co 0.05676 0.95804 0.56838 0.0
C139 C 0.04364 0.97437 0.41008 0.0
O140 O 0.03727 0.95807 0.38094 0.0
N141 N 0.07323 0.97789 0.59599 0.0
C142 C 0.09611 1.0008 0.59933 0.0
C143 C 0.08419 0.98997 0.5541 0.0
C144 C 0.07899 0.98122 0.66541 0.0
N145 N 0.09295 0.99489 0.669 0.0
O146 O 0.03508 0.96952 0.62637 0.0
H147 H 0.08409 0.9904 0.49456 0.0
H148 H 0.07317 0.97367 0.71284 0.0
O149 O 0.05036 0.97431 0.47661 0.0
C150 C 0.03378 0.96206 0.69139 0.0
O151 O 0.04643 0.94866 0.71025 0.0
N152 N 0.07807 0.94531 0.52232 0.0
C153 C 0.10768 0.91909 0.48226 0.0
C154 C 0.09418 0.92597 0.42992 0.0
C155 C 0.0795 0.93908 0.45106 0.0
C156 C 0.09135 0.9392 0.57311 0.0
C157 C 0.10633 0.92646 0.55419 0.0
H158 H 0.06871 0.94315 0.41118 0.0
H159 H 0.08977 0.94346 0.63012 0.0
H160 H 0.01641 0.95132 0.49122 0.0
H161 H 0.0316 0.89221 0.5051 0.0
H162 H 0.10642 0.01189 0.58254 0.0
H163 H 0.0943 0.92058 0.37389 0.0
H164 H 0.11647 0.92206 0.5966 0.0
C165 C 0.34943 0.79488 0.79706 0.0
C166 C 0.35963 0.78551 0.74203 0.0
N167 N 0.34671 0.77972 0.69102 0.0
N168 N 0.33034 0.79482 0.7799 0.0
C169 C 0.32914 0.78495 0.71631 0.0
H170 H 0.35566 0.80277 0.8429 0.0
Co171 Co 0.31167 0.81062 0.82046 0.0
C172 C 0.28598 0.81877 0.68654 0.0
O173 O 0.28855 0.83744 0.69908 0.0
N174 N 0.29316 0.82652 0.86386 0.0
C175 C 0.26621 0.84117 0.90186 0.0
C176 C 0.2742 0.82959 0.84838 0.0
C177 C 0.29594 0.83546 0.92899 0.0
N178 N 0.27998 0.84479 0.95248 0.0
O179 O 0.3011 0.78805 0.87744 0.0
H180 H 0.26599 0.82258 0.80534 0.0
H181 H 0.30894 0.83386 0.96181 0.0
O182 O 0.29362 0.80624 0.73108 0.0
C183 C 0.31047 0.78631 0.93864 0.0
O184 O 0.32456 0.79878 0.95156 0.0
N185 N 0.32452 0.83255 0.77498 0.0
C186 C 0.35098 0.86167 0.72864 0.0
C187 C 0.34249 0.84877 0.67766 0.0
C188 C 0.32961 0.83411 0.70207 0.0
C189 C 0.33303 0.84478 0.82472 0.0
C190 C 0.34574 0.85958 0.80288 0.0
H191 H 0.32451 0.82351 0.66262 0.0
H192 H 0.33122 0.84238 0.88276 0.0
H193 H 0.31586 0.78279 0.68564 0.0
H194 H 0.37527 0.78447 0.73683 0.0
H195 H 0.25096 0.8448 0.90733 0.0
H196 H 0.34649 0.84932 0.61994 0.0
H197 H 0.3519 0.86893 0.84483 0.0
C198 C 0.48686 0.08532 0.08606 0.0
C199 C 0.49853 0.09592 0.03871 0.0
N200 N 0.49167 0.09343 0.96989 0.0
N201 N 0.4732 0.07591 0.04638 0.0
C202 C 0.47649 0.08121 0.97621 0.0
H203 H 0.4883 0.08448 0.14532 0.0
Co204 Co 0.45311 0.0603 0.07783 0.0
C205 C 0.46984 0.03268 0.96046 0.0
O206 O 0.48725 0.03314 0.98998 0.0
N207 N 0.43206 0.04455 0.10929 0.0
C208 C 0.40236 0.03442 0.14108 0.0
C209 C 0.41277 0.04837 0.10418 0.0
C210 C 0.43276 0.02774 0.14776 0.0
N211 N 0.41499 0.02158 0.16936 0.0
O212 O 0.47212 0.04562 0.13951 0.0
H213 H 0.40627 0.06112 0.07991 0.0
H214 H 0.44612 0.021 0.16588 0.0
O215 O 0.45608 0.04261 0.99032 0.0
C216 C 0.47172 0.04948 0.20905 0.0
O217 O 0.45713 0.05986 0.23429 0.0
N218 N 0.43559 0.07675 0.0273 0.0
C219 C 0.40768 0.10378 0.98059 0.0
C220 C 0.41317 0.08808 0.93512 0.0
C221 C 0.42714 0.07459 0.95965 0.0
C222 C 0.43104 0.09233 0.07051 0.0
C223 C 0.41707 0.10587 0.04864 0.0
H224 H 0.43076 0.06231 0.92521 0.0
H225 H 0.43796 0.09388 0.12369 0.0
H226 H 0.4682 0.07573 0.92998 0.0
H227 H 0.51112 0.10455 0.0534 0.0
H228 H 0.3869 0.03474 0.15241 0.0
H229 H 0.40632 0.08592 0.88205 0.0
H230 H 0.41365 0.1179 0.08493 0.0
C231 C 0.17883 0.24288 0.32598 0.0
C232 C 0.16759 0.25391 0.27879 0.0
N233 N 0.17067 0.24733 0.20989 0.0
N234 N 0.18913 0.22994 0.286 0.0
C235 C 0.18396 0.23311 0.21582 0.0
H236 H 0.17907 0.24388 0.38546 0.0
Co237 Co 0.20394 0.20948 0.31764 0.0
C238 C 0.23586 0.2025 0.20133 0.0
O239 O 0.23765 0.18458 0.22535 0.0
N240 N 0.21838 0.18808 0.35142 0.0
C241 C 0.22751 0.15806 0.38223 0.0
C242 C 0.2132 0.16903 0.35067 0.0
C243 C 0.23592 0.18818 0.3843 0.0
N244 N 0.24174 0.17014 0.40409 0.0
O245 O 0.21839 0.22806 0.38288 0.0
H246 H 0.19964 0.16313 0.33103 0.0
H247 H 0.24381 0.20136 0.39739 0.0
O248 O 0.22301 0.21378 0.23102 0.0
C249 C 0.21493 0.22739 0.45274 0.0
O250 O 0.20481 0.21259 0.47825 0.0
N251 N 0.18761 0.19242 0.26367 0.0
C252 C 0.16043 0.16432 0.21894 0.0
C253 C 0.17674 0.1688 0.17482 0.0
C254 C 0.19018 0.18301 0.19802 0.0
C255 C 0.17127 0.18911 0.30453 0.0
C256 C 0.15759 0.17518 0.28347 0.0
H257 H 0.20273 0.18591 0.16414 0.0
H258 H 0.16929 0.19685 0.35591 0.0
H259 H 0.18974 0.22498 0.16966 0.0
H260 H 0.15778 0.26556 0.2938 0.0
H261 H 0.22687 0.14255 0.39268 0.0
H262 H 0.17949 0.16095 0.12416 0.0
H263 H 0.14501 0.17277 0.31831 0.0
C264 C 0.91776 0.97692 0.04852 0.0
C265 C 0.90795 0.98701 0.99429 0.0
N266 N 0.92121 0.99408 0.94664 0.0
N267 N 0.93701 0.97758 0.03397 0.0
C268 C 0.93864 0.98886 0.97363 0.0
H269 H 0.91121 0.96784 0.09057 0.0
Co270 Co 0.95556 0.9607 0.07124 0.0
C271 C 0.97866 0.95507 0.92769 0.0
O272 O 0.97395 0.93653 0.92754 0.0
N273 N 0.97403 0.94397 0.11169 0.0
C274 C 1.00042 0.92777 0.14648 0.0
C275 C 0.99188 0.93808 0.09008 0.0
C276 C 0.97228 0.93729 0.1812 0.0
N277 N 0.98798 0.92735 0.2039 0.0
O278 O 0.96695 0.98236 0.12981 0.0
H279 H 0.99901 0.942 0.03922 0.0
H280 H 0.95968 0.93999 0.21518 0.0
O281 O 0.97337 0.9659 0.98232 0.0
C282 C 0.95881 0.98379 0.19362 0.0
O283 O 0.944 0.97229 0.20803 0.0
N284 N 0.94228 0.93927 0.0235 0.0
C285 C 0.91596 0.91019 0.97564 0.0
C286 C 0.92119 0.92588 0.92955 0.0
C287 C 0.93429 0.94019 0.95439 0.0
C288 C 0.93717 0.92414 0.0686 0.0
C289 C 0.92474 0.90932 0.04525 0.0
H290 H 0.93746 0.95235 0.91862 0.0
H291 H 0.94173 0.92376 0.12503 0.0
H292 H 0.95215 0.99147 0.9447 0.0
H293 H 0.89236 0.98723 0.98602 0.0
H294 H 0.01518 0.92233 0.14697 0.0
H295 H 0.91468 0.92767 0.87572 0.0
H296 H 0.92171 0.89754 0.08322 0.0
C297 C 0.79497 0.16956 0.81835 0.0
C298 C 0.78326 0.15893 0.77166 0.0
N299 N 0.77326 0.17159 0.72978 0.0
N300 N 0.79265 0.1887 0.80391 0.0
C301 C 0.779 0.18946 0.75109 0.0
H302 H 0.80562 0.16368 0.85601 0.0
Co303 Co 0.8087 0.20855 0.83514 0.0
C304 C 0.81331 0.23353 0.69666 0.0
O305 O 0.83221 0.23282 0.70677 0.0
N306 N 0.82493 0.22847 0.86916 0.0
C307 C 0.83433 0.2576 0.90907 0.0
C308 C 0.8232 0.24785 0.85819 0.0
C309 C 0.83702 0.22694 0.92734 0.0
N310 N 0.84273 0.24436 0.95345 0.0
O311 O 0.78701 0.21943 0.89507 0.0
H312 H 0.81278 0.25465 0.82192 0.0
H313 H 0.83955 0.21355 0.9567 0.0
O314 O 0.80198 0.22495 0.74351 0.0
C315 C 0.78833 0.21451 0.96353 0.0
O316 O 0.80325 0.20385 0.98345 0.0
N317 N 0.82988 0.19564 0.78723 0.0
C318 C 0.85868 0.16931 0.74014 0.0
C319 C 0.84637 0.17852 0.68906 0.0
C320 C 0.83166 0.19118 0.71393 0.0
C321 C 0.84133 0.18617 0.83706 0.0
C322 C 0.85593 0.17336 0.81497 0.0
H323 H 0.82118 0.19647 0.67454 0.0
H324 H 0.83815 0.18722 0.89497 0.0
H325 H 0.77459 0.20273 0.7237 0.0
H326 H 0.783 0.14325 0.76572 0.0
H327 H 0.83404 0.27315 0.91898 0.0
H328 H 0.84741 0.17517 0.63086 0.0
H329 H 0.86462 0.16621 0.85669 0.0
C330 C 0.5936 0.03718 0.55118 0.0
C331 C 0.60372 0.02733 0.49707 0.0
N332 N 0.5908 0.02093 0.44698 0.0
N333 N 0.5745 0.03707 0.53426 0.0
C334 C 0.57321 0.02623 0.47271 0.0
H335 H 0.59996 0.04592 0.59447 0.0
Co336 Co 0.55619 0.05468 0.56944 0.0
C337 C 0.53446 0.05688 0.41869 0.0
O338 O 0.54352 0.07299 0.40049 0.0
N339 N 0.5379 0.07224 0.60586 0.0
C340 C 0.5159 0.09564 0.6212 0.0
C341 C 0.52541 0.0842 0.57041 0.0
C342 C 0.53582 0.07682 0.67755 0.0
N343 N 0.52272 0.09105 0.68842 0.0
O344 O 0.5445 0.03351 0.63101 0.0
H345 H 0.52345 0.08499 0.51161 0.0
H346 H 0.54381 0.0699 0.72142 0.0
O347 O 0.53776 0.04895 0.48221 0.0
C348 C 0.55314 0.03188 0.69379 0.0
O349 O 0.56807 0.04333 0.70669 0.0
N350 N 0.57016 0.07577 0.52075 0.0
C351 C 0.59772 0.10458 0.47911 0.0
C352 C 0.59389 0.08836 0.43393 0.0
C353 C 0.58024 0.0742 0.45574 0.0
C354 C 0.57395 0.09141 0.56528 0.0
C355 C 0.58704 0.10606 0.5448 0.0
H356 H 0.57834 0.06167 0.4209 0.0
H357 H 0.56769 0.09233 0.61961 0.0
H358 H 0.55997 0.02424 0.44171 0.0
H359 H 0.61936 0.02701 0.49041 0.0
H360 H 0.50492 0.10648 0.60963 0.0
H361 H 0.60193 0.08604 0.38338 0.0
H362 H 0.58905 0.11821 0.58194 0.0
C363 C 0.72574 0.84511 0.3039 0.0
C364 C 0.73789 0.85561 0.2581 0.0
N365 N 0.74744 0.84288 0.21491 0.0
N366 N 0.72727 0.82602 0.2873 0.0
C367 C 0.7411 0.8251 0.23499 0.0
H368 H 0.71497 0.85111 0.34096 0.0
Co369 Co 0.70981 0.80676 0.31415 0.0
C370 C 0.71006 0.78663 0.16047 0.0
O371 O 0.69371 0.79509 0.14211 0.0
N372 N 0.69233 0.78754 0.34347 0.0
C373 C 0.6706 0.76367 0.35511 0.0
C374 C 0.68226 0.77376 0.30633 0.0
C375 C 0.68642 0.78564 0.41374 0.0
N376 N 0.67313 0.77146 0.42242 0.0
O377 O 0.73034 0.79484 0.37755 0.0
H378 H 0.68318 0.77104 0.24797 0.0
H379 H 0.69189 0.79444 0.45836 0.0
O380 O 0.71739 0.78971 0.22506 0.0
C381 C 0.73135 0.80277 0.44185 0.0
O382 O 0.71966 0.8174 0.4561 0.0
N383 N 0.68929 0.82064 0.26279 0.0
C384 C 0.66079 0.84756 0.21717 0.0
C385 C 0.67803 0.84514 0.17672 0.0
C386 C 0.69205 0.83161 0.20027 0.0
C387 C 0.67261 0.8233 0.30288 0.0
C388 C 0.65808 0.83615 0.28014 0.0
H389 H 0.70543 0.83049 0.16927 0.0
H390 H 0.67072 0.81645 0.35575 0.0
H391 H 0.74484 0.81191 0.20575 0.0
H392 H 0.73845 0.8713 0.25266 0.0
H393 H 0.66126 0.75143 0.34237 0.0
H394 H 0.68079 0.85385 0.12798 0.0
H395 H 0.64526 0.83796 0.31423 0.0
C396 C 0.91685 0.04743 0.57409 0.0
C397 C 0.90658 0.0354 0.62107 0.0
N398 N 0.91952 0.02524 0.6611 0.0
N399 N 0.93605 0.04514 0.5865 0.0
C400 C 0.93719 0.03119 0.63829 0.0
H401 H 0.91071 0.05831 0.53783 0.0
Co402 Co 0.95568 0.06145 0.55475 0.0
C403 C 0.98033 0.06628 0.6932 0.0
O404 O 0.97931 0.08521 0.68325 0.0
N405 N 0.97541 0.07791 0.52022 0.0
C406 C 1.00442 0.08771 0.48038 0.0
C407 C 0.99476 0.0767 0.5321 0.0
C408 C 0.97382 0.08954 0.46062 0.0
N409 N 0.99118 0.09548 0.43453 0.0
O410 O 0.96686 0.03986 0.49534 0.0
H411 H 1.00168 0.06665 0.56957 0.0
H412 H 0.96049 0.09153 0.43044 0.0
O413 O 0.97208 0.05487 0.6461 0.0
C414 C 0.96199 0.04089 0.42687 0.0
O415 O 0.95091 0.05545 0.40627 0.0
N416 N 0.94262 0.08256 0.60274 0.0
C417 C 0.91666 0.11162 0.65178 0.0
C418 C 0.92541 0.09858 0.70174 0.0
C419 C 0.93789 0.08384 0.67593 0.0
C420 C 0.9335 0.09452 0.5537 0.0
C421 C 0.92088 0.10921 0.57673 0.0
H422 H 0.94299 0.07304 0.71457 0.0
H423 H 0.93464 0.09171 0.49558 0.0
H424 H 0.95064 0.02671 0.66403 0.0
H425 H 0.89097 0.03505 0.62856 0.0
H426 H 0.01998 0.08768 0.47105 0.0
H427 H 0.92234 0.09938 0.76019 0.0
H428 H 0.91367 0.1179 0.53517 0.0
C429 C 0.7259 0.16731 0.34186 0.0
C430 C 0.7364 0.15803 0.39631 0.0
N431 N 0.7427 0.17167 0.44378 0.0
N432 N 0.72552 0.18659 0.35621 0.0
C433 C 0.73666 0.18883 0.41641 0.0
H434 H 0.71722 0.16027 0.29991 0.0
Co435 Co 0.70789 0.20444 0.3189 0.0
C436 C 0.70301 0.22586 0.46916 0.0
O437 O 0.68629 0.21727 0.48178 0.0
N438 N 0.69037 0.22223 0.27952 0.0
C439 C 0.66648 0.24305 0.25598 0.0
C440 C 0.67719 0.23423 0.3107 0.0
C441 C 0.68734 0.22398 0.20662 0.0
N442 N 0.67287 0.23642 0.19039 0.0
O443 O 0.72927 0.21695 0.26128 0.0
H444 H 0.67505 0.23621 0.36906 0.0
H445 H 0.69553 0.21606 0.16601 0.0
O446 O 0.7121 0.22267 0.40786 0.0
C447 C 0.73229 0.20809 0.19967 0.0
O448 O 0.72223 0.19219 0.18643 0.0
N449 N 0.68676 0.18992 0.36434 0.0
C450 C 0.6576 0.16268 0.40495 0.0
C451 C 0.67351 0.16663 0.45145 0.0
C452 C 0.68789 0.18012 0.43009 0.0
C453 C 0.67156 0.18586 0.31821 0.0
C454 C 0.65673 0.17294 0.33811 0.0
H455 H 0.70017 0.18227 0.46611 0.0
H456 H 0.67108 0.19193 0.26346 0.0
H457 H 0.73862 0.20249 0.4449 0.0
H458 H 0.73739 0.14246 0.40489 0.0
H459 H 0.65481 0.25337 0.26421 0.0
H460 H 0.67536 0.15889 0.50291 0.0
H461 H 0.64487 0.1708 0.29988 0.0
C462 C 0.59914 0.97169 0.07022 0.0
C463 C 0.60902 0.98442 0.11561 0.0
N464 N 0.5958 0.99424 0.15574 0.0
N465 N 0.57991 0.97309 0.0844 0.0
C466 C 0.57835 0.98749 0.13415 0.0
H467 H 0.60562 0.96061 0.03574 0.0
Co468 Co 0.56064 0.95532 0.06021 0.0
C469 C 0.54258 0.95469 0.21763 0.0
O470 O 0.5506 0.93779 0.23162 0.0
N471 N 0.5412 0.9376 0.03394 0.0
C472 C 0.51666 0.91648 0.02718 0.0
C473 C 0.52752 0.92802 0.07359 0.0
C474 C 0.53845 0.93149 0.96427 0.0
N475 N 0.5238 0.91859 0.95859 0.0
O476 O 0.5478 0.97585 0.9992 0.0
H477 H 0.52516 0.92932 0.13203 0.0
H478 H 0.54683 0.93666 0.91786 0.0
O479 O 0.54483 0.96252 0.15322 0.0
C480 C 0.55496 0.97677 0.93347 0.0
O481 O 0.56935 0.96499 0.91701 0.0
N482 N 0.57527 0.93485 0.10865 0.0
C483 C 0.60245 0.90626 0.15096 0.0
C484 C 0.60028 0.92344 0.19194 0.0
C485 C 0.58663 0.93752 0.17 0.0
C486 C 0.57773 0.91828 0.06778 0.0
C487 C 0.59073 0.90371 0.0889 0.0
H488 H 0.58563 0.95086 0.20136 0.0
H489 H 0.5705 0.91652 0.01568 0.0
H490 H 0.56484 0.99145 0.16076 0.0
H491 H 0.62461 0.98517 0.12317 0.0
H492 H 0.50426 0.9076 0.04232 0.0
H493 H 0.60922 0.92609 0.24 0.0
H494 H 0.59235 0.89094 0.05438 0.0
C495 C 0.79098 0.84606 0.82097 0.0
C496 C 0.78055 0.85558 0.87512 0.0
N497 N 0.77358 0.84209 0.92216 0.0
N498 N 0.79077 0.82676 0.83531 0.0
C499 C 0.77908 0.82479 0.89438 0.0
H500 H 0.80032 0.85291 0.78046 0.0
Co501 Co 0.80897 0.80864 0.80305 0.0
C502 C 0.81271 0.78889 0.95674 0.0
O503 O 0.82945 0.79749 0.9686 0.0
N504 N 0.82705 0.79048 0.76908 0.0
C505 C 0.85068 0.76872 0.75405 0.0
C506 C 0.83894 0.77794 0.80463 0.0
C507 C 0.83187 0.78858 0.69754 0.0
N508 N 0.84628 0.77565 0.68676 0.0
O509 O 0.78823 0.79559 0.74428 0.0
H510 H 0.83944 0.77565 0.86327 0.0
H511 H 0.82498 0.79664 0.65382 0.0
O512 O 0.80396 0.79134 0.89432 0.0
C513 C 0.78615 0.80377 0.68073 0.0
O514 O 0.7969 0.81912 0.66594 0.0
N515 N 0.82952 0.82367 0.84942 0.0
C516 C 0.85788 0.85139 0.89227 0.0
C517 C 0.84128 0.84778 0.93575 0.0
C518 C 0.82739 0.83401 0.91347 0.0
C519 C 0.84539 0.82738 0.80593 0.0
C520 C 0.85985 0.84057 0.8271 0.0
H521 H 0.81469 0.83203 0.9475 0.0
H522 H 0.84674 0.82082 0.75231 0.0
H523 H 0.77669 0.81118 0.92294 0.0
H524 H 0.78035 0.87114 0.88454 0.0
H525 H 0.8616 0.75784 0.76594 0.0
H526 H 0.83851 0.85596 0.9856 0.0
H527 H 0.87228 0.84243 0.79119 0.0
C528 C 0.54621 0.60173 0.57009 0.0
C529 C 0.53228 0.61255 0.60563 0.0
N530 N 0.51897 0.60021 0.63394 0.0
N531 N 0.54196 0.58267 0.57801 0.0
C532 C 0.52477 0.58228 0.6131 0.0
H533 H 0.55936 0.60734 0.54505 0.0
Co534 Co 0.55801 0.56232 0.55192 0.0
C535 C 0.54497 0.54572 0.7101 0.0
O536 O 0.53827 0.56185 0.73944 0.0
N537 N 0.57443 0.54251 0.52376 0.0
C538 C 0.59773 0.5201 0.52053 0.0
C539 C 0.58567 0.53078 0.56571 0.0
C540 C 0.58012 0.5391 0.45426 0.0
N541 N 0.59435 0.52575 0.45077 0.0
O542 O 0.53628 0.55089 0.49414 0.0
H543 H 0.58577 0.53063 0.62528 0.0
H544 H 0.57418 0.54648 0.40678 0.0
O545 O 0.55171 0.54597 0.64355 0.0
C546 C 0.53496 0.55845 0.42931 0.0
O547 O 0.54766 0.57187 0.41041 0.0
N548 N 0.57936 0.57498 0.59792 0.0
C549 C 0.60949 0.60051 0.6393 0.0
C550 C 0.5956 0.59393 0.69102 0.0
C551 C 0.58067 0.58116 0.66925 0.0
C552 C 0.59292 0.5809 0.54757 0.0
C553 C 0.60817 0.59327 0.56718 0.0
H554 H 0.56964 0.5773 0.70869 0.0
H555 H 0.59144 0.5767 0.49048 0.0
H556 H 0.51759 0.56893 0.62955 0.0
H557 H 0.53288 0.62807 0.61581 0.0
H558 H 0.60838 0.50941 0.53743 0.0
H559 H 0.59564 0.59929 0.74711 0.0
H560 H 0.61858 0.59743 0.52517 0.0
C561 C 0.66673 0.29452 0.83685 0.0
C562 C 0.65589 0.28121 0.87565 0.0
N563 N 0.66822 0.26887 0.90895 0.0
N564 N 0.68582 0.29106 0.8483 0.0
C565 C 0.68621 0.27472 0.88915 0.0
H566 H 0.66094 0.30665 0.80612 0.0
Co567 Co 0.70587 0.30738 0.81876 0.0
C568 C 0.72237 0.29653 0.97763 0.0
O569 O 0.70547 0.29336 1.00937 0.0
N570 N 0.72512 0.32407 0.78739 0.0
C571 C 0.7479 0.347 0.78081 0.0
C572 C 0.73778 0.33478 0.82735 0.0
C573 C 0.72735 0.33035 0.71784 0.0
N574 N 0.74105 0.34427 0.71218 0.0
O575 O 0.71708 0.28553 0.76051 0.0
H576 H 0.7392 0.33423 0.88663 0.0
H577 H 0.71919 0.32472 0.67174 0.0
O578 O 0.72292 0.30134 0.90874 0.0
C579 C 0.7094 0.28419 0.69593 0.0
O580 O 0.69591 0.29684 0.67795 0.0
N581 N 0.69335 0.3289 0.86384 0.0
C582 C 0.66838 0.35962 0.90139 0.0
C583 C 0.68021 0.35075 0.95501 0.0
C584 C 0.69264 0.33531 0.9351 0.0
C585 C 0.68295 0.33832 0.81074 0.0
C586 C 0.67024 0.35343 0.82825 0.0
H587 H 0.70134 0.32861 0.97715 0.0
H588 H 0.68387 0.33337 0.75424 0.0
H589 H 0.69943 0.26821 0.90984 0.0
H590 H 0.64031 0.28157 0.88413 0.0
H591 H 0.7593 0.3571 0.79606 0.0
H592 H 0.67941 0.35527 1.0121 0.0
H593 H 0.66177 0.3601 0.78477 0.0
C594 C 0.97567 0.41505 0.08681 0.0
C595 C 0.98888 0.40436 0.12692 0.0
N596 N 0.99973 0.41691 0.16625 0.0
N597 N 0.97787 0.43408 0.1034 0.0
C598 C 0.99286 0.43478 0.15055 0.0
H599 H 0.96429 0.40928 0.05203 0.0
Co600 Co 0.96178 0.45397 0.07432 0.0
C601 C 0.95519 0.47635 0.21626 0.0
O602 O 0.93656 0.47341 0.20489 0.0
N603 N 0.94583 0.4739 0.04072 0.0
C604 C 0.93299 0.50239 1.00931 0.0
C605 C 0.94377 0.49271 0.06126 0.0
C606 C 0.93694 0.47286 0.9749 0.0
N607 N 0.92883 0.4898 0.95488 0.0
O608 O 0.98377 0.46559 0.01792 0.0
H609 H 0.9512 0.49971 0.10632 0.0
H610 H 0.93774 0.4603 0.93924 0.0
O611 O 0.96761 0.46976 0.16877 0.0
C612 C 0.98472 0.45886 0.95171 0.0
O613 O 0.97182 0.4458 0.93161 0.0
N614 N 0.94016 0.44051 0.12032 0.0
C615 C 0.91071 0.41498 0.16923 0.0
C616 C 0.92656 0.41954 0.21477 0.0
C617 C 0.94112 0.43237 0.18936 0.0
C618 C 0.92504 0.4355 0.07523 0.0
C619 C 0.91001 0.42333 0.09915 0.0
H620 H 0.95357 0.43515 0.22413 0.0
H621 H 0.92491 0.43979 0.01849 0.0
H622 H 0.99759 0.44795 0.178 0.0
H623 H 0.98961 0.38865 0.13084 0.0
H624 H 0.93039 0.51793 1.00759 0.0
H625 H 0.92783 0.41303 0.26895 0.0
H626 H 0.89839 0.41963 0.06137 0.0
C627 C 0.85141 0.72373 0.31595 0.0
C628 C 0.86303 0.73534 0.35939 0.0
N629 N 0.85143 0.74463 0.4074 0.0
N630 N 0.83279 0.72536 0.33888 0.0
C631 C 0.83325 0.7384 0.39388 0.0
H632 H 0.85634 0.71365 0.27421 0.0
Co633 Co 0.81267 0.70963 0.30975 0.0
C634 C 0.78823 0.70291 0.44683 0.0
O635 O 0.78949 0.68433 0.43027 0.0
N636 N 0.7924 0.69379 0.27706 0.0
C637 C 0.76285 0.68483 0.24093 0.0
C638 C 0.77315 0.69639 0.28855 0.0
C639 C 0.7933 0.68099 0.22094 0.0
N640 N 0.77563 0.67538 0.1978 0.0
O641 O 0.80132 0.73184 0.25449 0.0
H642 H 0.76688 0.70752 0.32329 0.0
H643 H 0.80632 0.67787 0.19016 0.0
O644 O 0.797 0.71536 0.40456 0.0
C645 C 0.80498 0.73086 0.18488 0.0
O646 O 0.8144 0.71554 0.16051 0.0
N647 N 0.82607 0.68808 0.35351 0.0
C648 C 0.85331 0.65935 0.39541 0.0
C649 C 0.84484 0.6719 0.44795 0.0
C650 C 0.83151 0.68633 0.42578 0.0
C651 C 0.83487 0.67662 0.30203 0.0
C652 C 0.84778 0.66186 0.32164 0.0
H653 H 0.82652 0.69674 0.46616 0.0
H654 H 0.83326 0.67989 0.24443 0.0
H655 H 0.82083 0.74208 0.42779 0.0
H656 H 0.87876 0.73593 0.35919 0.0
H657 H 0.7473 0.6854 0.23191 0.0
H658 H 0.84915 0.67131 0.50525 0.0
H659 H 0.85384 0.65295 0.27818 0.0
C660 C 0.54481 0.42159 0.05843 0.0
C661 C 0.53337 0.40996 0.01434 0.0
N662 N 0.52488 0.42147 0.96393 0.0
N663 N 0.54381 0.44013 0.034 0.0
C664 C 0.53129 0.43964 0.97725 0.0
H665 H 0.55463 0.41662 0.10095 0.0
Co666 Co 0.56057 0.45968 0.06234 0.0
C667 C 0.56183 0.4809 0.91025 0.0
O668 O 0.57891 0.47345 0.89509 0.0
N669 N 0.57768 0.47911 0.09342 0.0
C670 C 0.60002 0.50241 0.10535 0.0
C671 C 0.58837 0.49253 0.05651 0.0
C672 C 0.58324 0.48109 0.16404 0.0
N673 N 0.59688 0.49493 0.1728 0.0
O674 O 0.53919 0.47118 0.12264 0.0
H675 H 0.58806 0.49519 0.99818 0.0
H676 H 0.57731 0.47255 0.20874 0.0
O677 O 0.55349 0.4767 0.97235 0.0
C678 C 0.53754 0.46325 0.18684 0.0
O679 O 0.54978 0.44933 0.20435 0.0
N680 N 0.58154 0.44612 0.01434 0.0
C681 C 0.61068 0.4193 0.97215 0.0
C682 C 0.59487 0.42354 0.92549 0.0
C683 C 0.58028 0.43654 0.94832 0.0
C684 C 0.59665 0.44187 0.06049 0.0
C685 C 0.61132 0.42885 0.04041 0.0
H686 H 0.56773 0.43852 0.91339 0.0
H687 H 0.59686 0.44756 0.11581 0.0
H688 H 0.52846 0.45187 0.94121 0.0
H689 H 0.53267 0.39421 0.01509 0.0
H690 H 0.60985 0.51427 0.09244 0.0
H691 H 0.59346 0.41661 0.87224 0.0
H692 H 0.62251 0.42557 0.08036 0.0
C693 C 0.8469 0.2937 0.32527 0.0
C694 C 0.85806 0.28097 0.28472 0.0
N695 N 0.84609 0.27095 0.24016 0.0
N696 N 0.8282 0.29208 0.30374 0.0
C697 C 0.82808 0.27776 0.25344 0.0
H698 H 0.85226 0.30469 0.3628 0.0
Co699 Co 0.80861 0.30914 0.32857 0.0
C700 C 0.78878 0.30933 0.17429 0.0
O701 O 0.79782 0.32549 0.15631 0.0
N702 N 0.78908 0.32626 0.35659 0.0
C703 C 0.76579 0.34859 0.36553 0.0
C704 C 0.77622 0.33704 0.31778 0.0
C705 C 0.78632 0.33162 0.42701 0.0
N706 N 0.77247 0.34529 0.43397 0.0
O707 O 0.79677 0.28805 0.38977 0.0
H708 H 0.77452 0.33694 0.25883 0.0
H709 H 0.79434 0.32558 0.47273 0.0
O710 O 0.79195 0.30159 0.23826 0.0
C711 C 0.80496 0.28609 0.45321 0.0
O712 O 0.81917 0.29806 0.4702 0.0
N713 N 0.82254 0.33 0.27872 0.0
C714 C 0.85021 0.35836 0.23669 0.0
C715 C 0.84795 0.34113 0.19601 0.0
C716 C 0.83403 0.32721 0.21767 0.0
C717 C 0.82484 0.34676 0.3187 0.0
C718 C 0.8381 0.36122 0.29768 0.0
H719 H 0.8331 0.3138 0.18674 0.0
H720 H 0.81738 0.34873 0.37036 0.0
H721 H 0.81546 0.27383 0.22115 0.0
H722 H 0.87378 0.28026 0.28353 0.0
H723 H 0.75423 0.35857 0.35123 0.0
H724 H 0.85711 0.33827 0.14863 0.0
H725 H 0.83969 0.37407 0.33177 0.0
C726 C 0.99171 0.58784 0.5789 0.0
C727 C 1.00222 0.59893 0.52939 0.0
N728 N 0.99601 0.59442 0.46116 0.0
N729 N 0.97942 0.57622 0.54122 0.0
C730 C 0.98248 0.58047 0.46993 0.0
H731 H 0.99252 0.58865 0.63834 0.0
Co732 Co 0.95957 0.56121 0.57728 0.0
C733 C 0.95256 0.52795 0.46712 0.0
O734 O 0.93469 0.5265 0.4919 0.0
N735 N 0.93872 0.54655 0.61576 0.0
C736 C 0.90926 0.53755 0.65472 0.0
C737 C 0.9195 0.55103 0.61492 0.0
C738 C 0.93956 0.53003 0.6558 0.0
N739 N 0.92194 0.52446 0.68098 0.0
O740 O 0.97883 0.54795 0.64296 0.0
H741 H 0.91299 0.56366 0.58991 0.0
H742 H 0.95299 0.52292 0.6709 0.0
O743 O 0.96385 0.54123 0.49393 0.0
C744 C 0.97868 0.55258 0.71183 0.0
O745 O 0.96419 0.56325 0.7362 0.0
N746 N 0.94186 0.57658 0.52263 0.0
C747 C 0.91348 0.60302 0.47531 0.0
C748 C 0.91897 0.58715 0.43072 0.0
C749 C 0.93322 0.57396 0.45555 0.0
C750 C 0.93754 0.59258 0.56403 0.0
C751 C 0.92327 0.60576 0.54208 0.0
H752 H 0.937 0.56169 0.4214 0.0
H753 H 0.94472 0.5946 0.61649 0.0
H754 H 0.97469 0.57362 0.42511 0.0
H755 H 0.01318 0.60972 0.54241 0.0
H756 H 0.89391 0.53811 0.66778 0.0
H757 H 0.91194 0.58467 0.3782 0.0
H758 H 0.91985 0.61799 0.57744 0.0
C759 C 0.68399 0.73903 0.82149 0.0
C760 C 0.67265 0.74959 0.77325 0.0
N761 N 0.67586 0.74266 0.70491 0.0
N762 N 0.6945 0.72597 0.78285 0.0
C763 C 0.6893 0.72862 0.7123 0.0
H764 H 0.68407 0.74034 0.88088 0.0
Co765 Co 0.70918 0.70568 0.81758 0.0
C766 C 0.73789 0.72155 0.70127 0.0
O767 O 0.7362 0.73952 0.72525 0.0
N768 N 0.72374 0.68437 0.85294 0.0
C769 C 0.73195 0.65459 0.89076 0.0
C770 C 0.71889 0.66522 0.85087 0.0
C771 C 0.74023 0.68473 0.89301 0.0
N772 N 0.7452 0.66693 0.91824 0.0
O773 O 0.7235 0.72457 0.88107 0.0
H774 H 0.70594 0.65906 0.82689 0.0
H775 H 0.74748 0.69799 0.90969 0.0
O776 O 0.72813 0.70793 0.73323 0.0
C777 C 0.71889 0.72429 0.94999 0.0
O778 O 0.70795 0.70989 0.97383 0.0
N779 N 0.69306 0.68837 0.76489 0.0
C780 C 0.66642 0.66024 0.71737 0.0
C781 C 0.68294 0.66482 0.67464 0.0
C782 C 0.69626 0.67894 0.69966 0.0
C783 C 0.6766 0.68482 0.80468 0.0
C784 C 0.66322 0.67075 0.78237 0.0
H785 H 0.7093 0.68176 0.66809 0.0
H786 H 0.67429 0.6925 0.85599 0.0
H787 H 0.69515 0.72022 0.66701 0.0
H788 H 0.66262 0.76114 0.78729 0.0
H789 H 0.73072 0.63929 0.90454 0.0
H790 H 0.6859 0.65708 0.6239 0.0
H791 H 0.65052 0.66799 0.81626 0.0
C792 C 0.4212 0.47358 0.55533 0.0
C793 C 0.41097 0.48609 0.51039 0.0
N794 N 0.42386 0.49562 0.4676 0.0
N795 N 0.4403 0.47488 0.53865 0.0
C796 C 0.44149 0.48885 0.48689 0.0
H797 H 0.41501 0.46289 0.59245 0.0
Co798 Co 0.45941 0.45749 0.56682 0.0
C799 C 0.47944 0.45586 0.41322 0.0
O800 O 0.47202 0.43858 0.40064 0.0
N801 N 0.47852 0.44008 0.59811 0.0
C802 C 0.50291 0.41924 0.61392 0.0
C803 C 0.49275 0.43015 0.56314 0.0
C804 C 0.48026 0.43484 0.66928 0.0
N805 N 0.49485 0.42218 0.68065 0.0
O806 O 0.47147 0.47835 0.62763 0.0
H807 H 0.49594 0.43081 0.50506 0.0
H808 H 0.47115 0.4405 0.71261 0.0
O809 O 0.47616 0.46435 0.4757 0.0
C810 C 0.46321 0.47969 0.69127 0.0
O811 O 0.44838 0.46816 0.70518 0.0
N812 N 0.44538 0.43681 0.51808 0.0
C813 C 0.41696 0.40929 0.47662 0.0
C814 C 0.4208 0.42571 0.43265 0.0
C815 C 0.43496 0.4393 0.45439 0.0
C816 C 0.44177 0.42077 0.56086 0.0
C817 C 0.42803 0.40675 0.54053 0.0
H818 H 0.4369 0.45227 0.4214 0.0
H819 H 0.44846 0.41925 0.61415 0.0
H820 H 0.45476 0.4926 0.45808 0.0
H821 H 0.39531 0.48707 0.50569 0.0
H822 H 0.51542 0.41017 0.60274 0.0
H823 H 0.41256 0.42834 0.38283 0.0
H824 H 0.42522 0.39463 0.57739 0.0
C825 C 0.27583 0.67936 0.31467 0.0
C826 C 0.26553 0.66894 0.26239 0.0
N827 N 0.27204 0.67437 0.19535 0.0
N828 N 0.28833 0.69143 0.27984 0.0
C829 C 0.28548 0.68818 0.2077 0.0
H830 H 0.27484 0.67768 0.37385 0.0
Co831 Co 0.30866 0.70601 0.31575 0.0
C832 C 0.31702 0.73651 0.19544 0.0
O833 O 0.33515 0.73715 0.21772 0.0
N834 N 0.33002 0.72043 0.35266 0.0
C835 C 0.35976 0.72848 0.39142 0.0
C836 C 0.34916 0.71564 0.35014 0.0
C837 C 0.32964 0.73663 0.39466 0.0
N838 N 0.34742 0.74154 0.42004 0.0
O839 O 0.28995 0.71997 0.38244 0.0
H840 H 0.3554 0.70322 0.32278 0.0
H841 H 0.31642 0.74393 0.41109 0.0
O842 O 0.30493 0.72541 0.2302 0.0
C843 C 0.2908 0.71474 0.45082 0.0
O844 O 0.30479 0.7028 0.47031 0.0
N845 N 0.32594 0.68978 0.26212 0.0
C846 C 0.35375 0.66234 0.21769 0.0
C847 C 0.34809 0.67756 0.1703 0.0
C848 C 0.33406 0.69115 0.19342 0.0
C849 C 0.33032 0.67432 0.30639 0.0
C850 C 0.34428 0.66064 0.28583 0.0
H851 H 0.33 0.70264 0.15615 0.0
H852 H 0.32343 0.67314 0.35989 0.0
H853 H 0.29353 0.6955 0.16454 0.0
H854 H 0.25466 0.65784 0.2728 0.0
H855 H 0.37517 0.72759 0.40307 0.0
H856 H 0.35479 0.67927 0.1166 0.0
H857 H 0.3477 0.64887 0.3234 0.0
C858 C 0.10041 0.54532 0.06597 0.0
C859 C 0.11123 0.53279 0.02315 0.0
N860 N 0.09887 0.52278 0.98007 0.0
N861 N 0.08148 0.54359 0.04747 0.0
C862 C 0.08096 0.52935 0.99669 0.0
H863 H 0.1061 0.55632 0.10276 0.0
Co864 Co 0.06206 0.56091 0.0732 0.0
C865 C 0.04211 0.56007 0.91907 0.0
O866 O 0.051 0.57616 0.89944 0.0
N867 N 0.04266 0.57821 0.10147 0.0
C868 C 0.01839 0.59944 0.11148 0.0
C869 C 0.0289 0.58802 0.06342 0.0
C870 C 0.04037 0.58409 0.17157 0.0
N871 N 0.0259 0.59705 0.17927 0.0
O872 O 0.05028 0.54031 0.13796 0.0
H873 H 0.02645 0.58706 1.00491 0.0
H874 H 0.04903 0.57877 0.21681 0.0
O875 O 0.04506 0.55293 0.98421 0.0
C876 C 0.05813 0.53947 0.2025 0.0
O877 O 0.07263 0.55139 0.21639 0.0
N878 N 0.0758 0.58157 0.02087 0.0
C879 C 0.10243 0.61046 0.97407 0.0
C880 C 0.10053 0.59287 0.93538 0.0
C881 C 0.08715 0.57868 0.95946 0.0
C882 C 0.07792 0.59863 0.05924 0.0
C883 C 0.09062 0.61332 0.03585 0.0
H884 H 0.08642 0.56508 0.9297 0.0
H885 H 0.07073 0.60075 0.11133 0.0
H886 H 0.06802 0.52527 0.96656 0.0
H887 H 0.12694 0.5321 0.01991 0.0
H888 H 1.00603 0.60849 0.09798 0.0
H889 H 0.10952 0.58998 0.88757 0.0
H890 H 0.092 0.62642 0.06865 0.0
C891 C 0.22427 0.34803 0.81693 0.0
C892 C 0.23514 0.3599 0.77146 0.0
N893 N 0.24344 0.34859 0.71992 0.0
N894 N 0.2254 0.32953 0.79226 0.0
C895 C 0.23752 0.33029 0.73415 0.0
H896 H 0.21449 0.35283 0.85994 0.0
Co897 Co 0.20824 0.31013 0.81911 0.0
C898 C 0.20735 0.28933 0.66573 0.0
O899 O 0.19011 0.29644 0.65114 0.0
N900 N 0.19068 0.29097 0.84884 0.0
C901 C 0.16849 0.26756 0.86126 0.0
C902 C 0.1807 0.27696 0.81263 0.0
C903 C 0.18424 0.28976 0.91871 0.0
N904 N 0.17064 0.27588 0.92781 0.0
O905 O 0.22911 0.29802 0.88096 0.0
H906 H 0.18201 0.27349 0.75507 0.0
H907 H 0.18955 0.29888 0.96266 0.0
O908 O 0.21552 0.29327 0.72832 0.0
C909 C 0.23045 0.3057 0.9457 0.0
O910 O 0.2186 0.32005 0.96196 0.0
N911 N 0.18772 0.32424 0.77037 0.0
C912 C 0.15928 0.35179 0.72738 0.0
C913 C 0.17487 0.34684 0.68042 0.0
C914 C 0.18912 0.3335 0.70364 0.0
C915 C 0.17288 0.32921 0.81687 0.0
C916 C 0.15858 0.34262 0.7965 0.0
H917 H 0.20154 0.331 0.66842 0.0
H918 H 0.17264 0.32383 0.87265 0.0
H919 H 0.24011 0.31822 0.6972 0.0
H920 H 0.23538 0.37566 0.77174 0.0
H921 H 0.15903 0.25538 0.84887 0.0
H922 H 0.17638 0.35344 0.62653 0.0
H923 H 0.14762 0.34644 0.83684 0.0
C924 C 0.41979 0.54096 0.07521 0.0
C925 C 0.41042 0.5312 0.13161 0.0
N926 N 0.42403 0.52483 0.17898 0.0
N927 N 0.43912 0.54081 0.08806 0.0
C928 C 0.44123 0.5301 0.14965 0.0
H929 H 0.41287 0.54962 0.03292 0.0
Co930 Co 0.45704 0.55825 0.04928 0.0
C931 C 0.48014 0.56542 0.19214 0.0
O932 O 0.47528 0.58389 0.19069 0.0
N933 N 0.47491 0.57568 1.00781 0.0
C934 C 0.501 0.59249 0.97282 0.0
C935 C 0.49275 0.58174 0.0288 0.0
C936 C 0.4729 0.58268 0.93883 0.0
N937 N 0.48844 0.59298 0.91602 0.0
O938 O 0.46938 0.53685 0.99229 0.0
H939 H 0.50015 0.57757 0.07865 0.0
H940 H 0.46042 0.57966 0.90472 0.0
O941 O 0.47492 0.55419 0.13862 0.0
C942 C 0.46169 0.53515 0.92788 0.0
O943 O 0.44681 0.54631 0.91186 0.0
N944 N 0.44281 0.57921 0.095 0.0
C945 C 0.41485 0.60698 0.13915 0.0
C946 C 0.42192 0.59294 0.18896 0.0
C947 C 0.43566 0.57908 0.16561 0.0
C948 C 0.43579 0.59265 0.04628 0.0
C949 C 0.42237 0.6068 0.06737 0.0
H950 H 0.43993 0.56779 0.20372 0.0
H951 H 0.43951 0.59189 0.98892 0.0
H952 H 0.45492 0.52794 0.17753 0.0
H953 H 0.39489 0.53078 0.14136 0.0
H954 H 0.51574 0.59804 0.97187 0.0
H955 H 0.41626 0.59206 0.2446 0.0
H956 H 0.41754 0.6172 0.02645 0.0
C957 C 0.22558 0.67197 0.81427 0.0
C958 C 0.23662 0.66011 0.85885 0.0
N959 N 0.24577 0.6715 0.908 0.0
N960 N 0.22736 0.69055 0.83747 0.0
C961 C 0.24018 0.68986 0.89325 0.0
H962 H 0.21524 0.66716 0.77326 0.0
Co963 Co 0.21051 0.71028 0.81151 0.0
C964 C 0.21049 0.73029 0.96608 0.0
O965 O 0.19404 0.72178 0.98349 0.0
N966 N 0.19351 0.72986 0.78258 0.0
C967 C 0.17143 0.75335 0.77219 0.0
C968 C 0.18322 0.74333 0.82038 0.0
C969 C 0.18767 0.73191 0.71238 0.0
N970 N 0.17412 0.74583 0.70453 0.0
O971 O 0.23162 0.72194 0.74856 0.0
H972 H 0.18386 0.74574 0.87897 0.0
H973 H 0.19318 0.72325 0.66743 0.0
O974 O 0.21817 0.72712 0.90189 0.0
C975 C 0.23282 0.71417 0.68388 0.0
O976 O 0.22069 0.69998 0.66804 0.0
N977 N 0.18952 0.69658 0.86186 0.0
C978 C 0.16069 0.66952 0.90553 0.0
C979 C 0.17778 0.67188 0.9467 0.0
C980 C 0.19194 0.68546 0.92413 0.0
C981 C 0.17293 0.69406 0.82117 0.0
C982 C 0.15826 0.68114 0.84291 0.0
H983 H 0.20513 0.68656 0.95594 0.0
H984 H 0.17126 0.7011 0.76856 0.0
H985 H 0.24347 0.70209 0.92863 0.0
H986 H 0.23647 0.64435 0.85977 0.0
H987 H 0.16172 0.76521 0.78572 0.0
H988 H 0.18033 0.6631 0.99535 0.0
H989 H 0.14555 0.67942 0.8083 0.0
C990 C 0.09835 0.48101 0.58267 0.0
C991 C 0.10907 0.48961 0.63837 0.0
N992 N 0.09707 0.4925 0.69592 0.0
N993 N 0.0798 0.47869 0.60569 0.0
C994 C 0.07948 0.48632 0.67395 0.0
H995 H 0.10409 0.47517 0.53174 0.0
Co996 Co 0.06145 0.46187 0.56666 0.0
C997 C 0.03525 0.45398 0.7005 0.0
O998 O 0.03666 0.43523 0.68712 0.0
N999 N 0.04303 0.44485 0.52677 0.0
C1000 C 0.01482 0.43314 0.48692 0.0
C1001 C 0.02355 0.44561 0.53574 0.0
C1002 C 0.04568 0.43212 0.47105 0.0
N1003 N 0.02878 0.42486 0.44551 0.0
O1004 O 0.04987 0.48367 0.50821 0.0
H1005 H 0.01594 0.45591 0.57024 0.0
H1006 H 0.05943 0.4298 0.44379 0.0
O1007 O 0.04361 0.46619 0.65639 0.0
C1008 C 0.05479 0.48275 0.4395 0.0
O1009 O 0.06579 0.46815 0.41869 0.0
N1010 N 0.07528 0.44082 0.61166 0.0
C1011 C 0.10227 0.41198 0.65268 0.0
C1012 C 0.09123 0.42187 0.70614 0.0
C1013 C 0.07829 0.43673 0.68468 0.0
C1014 C 0.08661 0.4319 0.55995 0.0
C1015 C 0.0999 0.41737 0.57885 0.0
H1016 H 0.07148 0.44534 0.72711 0.0
H1017 H 0.08618 0.43686 0.50355 0.0
H1018 H 0.067 0.48613 0.71007 0.0
H1019 H 0.12463 0.49198 0.63885 0.0
H1020 H 0.99936 0.43217 0.47635 0.0
H1021 H 0.09323 0.41878 0.76418 0.0
H1022 H 0.10848 0.41061 0.53581 0.0
C1023 C 0.27138 0.33791 0.31445 0.0
C1024 C 0.26097 0.34848 0.36581 0.0
N1025 N 0.26936 0.34583 0.43215 0.0
N1026 N 0.28588 0.32844 0.34914 0.0
C1027 C 0.28421 0.33354 0.42034 0.0
H1028 H 0.26883 0.33754 0.25566 0.0
Co1029 Co 0.30641 0.31451 0.3107 0.0
C1030 C 0.29069 0.2868 0.43085 0.0
O1031 O 0.27262 0.29036 0.41176 0.0
N1032 N 0.32783 0.30092 0.2715 0.0
C1033 C 0.35713 0.29468 0.22476 0.0
C1034 C 0.34642 0.30735 0.26617 0.0
C1035 C 0.32783 0.28409 0.23326 0.0
N1036 N 0.34533 0.28026 0.20246 0.0
O1037 O 0.28783 0.30029 0.24451 0.0
H1038 H 0.3519 0.32109 0.28599 0.0
H1039 H 0.3148 0.27578 0.22212 0.0
O1040 O 0.30461 0.29481 0.39388 0.0
C1041 C 0.2888 0.30508 0.17572 0.0
O1042 O 0.30284 0.31691 0.15516 0.0
N1043 N 0.32367 0.33035 0.36527 0.0
C1044 C 0.35237 0.35654 0.41298 0.0
C1045 C 0.34959 0.33846 0.4487 0.0
C1046 C 0.33511 0.32551 0.42397 0.0
C1047 C 0.32554 0.34811 0.33239 0.0
C1048 C 0.33975 0.36131 0.35496 0.0
H1049 H 0.33378 0.31135 0.44955 0.0
H1050 H 0.31654 0.35159 0.28534 0.0
H1051 H 0.29379 0.32821 0.46303 0.0
H1052 H 0.24843 0.35755 0.3551 0.0
H1053 H 0.37205 0.29683 0.20737 0.0
H1054 H 0.35874 0.33417 0.49438 0.0
H1055 H 0.34136 0.37477 0.32444 0.0
C1056 C 0.1029 0.99071 0.79719 0.0
C1057 C 0.1003 1.00293 0.73592 0.0
H1058 H 0.1027 0.98858 0.91456 0.0
C1059 C 0.10063 0.02315 0.74535 0.0
H1060 H 0.10305 0.97504 0.7905 0.0
C1061 C 0.10051 0.03092 0.81624 0.0
C1062 C 0.10007 0.01849 0.87788 0.0
H1063 H 0.09879 0.03281 0.69867 0.0
H1064 H 0.09898 0.04651 0.82287 0.0
C1065 C 0.1028 0.99845 0.868 0.0
C1066 C 0.25374 0.86781 0.10616 0.0
C1067 C 0.25844 0.85474 0.16305 0.0
H1068 H 0.25735 0.87472 0.99199 0.0
C1069 C 0.27434 0.84221 0.15439 0.0
H1070 H 0.24166 0.87779 0.11136 0.0
C1071 C 0.28325 0.84047 0.08587 0.0
C1072 C 0.27628 0.85131 0.02581 0.0
H1073 H 0.27846 0.83233 0.1982 0.0
H1074 H 0.29394 0.8291 0.07823 0.0
C1075 C 0.26258 0.86601 0.03762 0.0
C1076 C 0.40463 0.01101 0.36453 0.0
C1077 C 0.41749 0.99556 0.37589 0.0
H1078 H 0.39319 0.03129 0.287 0.0
C1079 C 0.42543 0.98573 0.31503 0.0
H1080 H 0.39849 0.01872 0.41111 0.0
C1081 C 0.42269 0.99303 0.2442 0.0
C1082 C 0.41177 0.00999 0.23375 0.0
H1083 H 0.43555 0.97385 0.32287 0.0
H1084 H 0.43063 0.98666 0.19864 0.0
C1085 C 0.40159 0.01808 0.2936 0.0
C1086 C 0.26059 0.15449 0.58412 0.0
C1087 C 0.27399 0.1695 0.59628 0.0
H1088 H 0.2397 0.14256 0.51084 0.0
C1089 C 0.28075 0.18058 0.53627 0.0
H1090 H 0.25566 0.14541 0.62931 0.0
C1091 C 0.2718 0.17882 0.46798 0.0
C1092 C 0.25596 0.16615 0.45954 0.0
H1093 H 0.29131 0.1921 0.54365 0.0
H1094 H 0.27577 0.18886 0.42439 0.0
C1095 C 0.25162 0.15276 0.5159 0.0
C1096 C 0.96917 0.03128 0.29546 0.0
C1097 C 0.96655 0.02569 0.36997 0.0
H1098 H 0.9695 0.02255 0.18122 0.0
C1099 C 0.96455 1.00575 0.3854 0.0
H1100 H 0.97067 0.04655 0.28138 0.0
C1101 C 0.96349 0.99207 0.32761 0.0
C1102 C 0.96485 0.99782 0.25283 0.0
H1103 H 0.96223 1.00089 0.44156 0.0
H1104 H 0.96056 0.977 0.34141 0.0
C1105 C 0.96857 0.01753 0.23774 0.0
C1106 C 0.75325 0.21552 1.00682 0.0
C1107 C 0.77309 0.21843 0.02115 0.0
H1108 H 0.72487 0.21006 0.05242 0.0
C1109 C 0.77876 0.22118 0.09542 0.0
H1110 H 0.74834 0.21305 0.9509 0.0
C1111 C 0.76525 0.21979 0.15391 0.0
C1112 C 0.74572 0.21517 0.13986 0.0
H1113 H 0.79397 0.22334 0.10869 0.0
H1114 H 0.7704 0.22078 0.21017 0.0
C1115 C 0.73982 0.21369 0.06538 0.0
C1116 C 0.54676 0.99766 0.74102 0.0
C1117 C 0.5475 0.01781 0.75379 0.0
H1118 H 0.54842 0.96895 0.78822 0.0
C1119 C 0.54724 0.0242 0.82794 0.0
H1120 H 0.54733 0.99214 0.68514 0.0
C1121 C 0.54749 0.0109 0.88743 0.0
C1122 C 0.54851 0.99077 0.87449 0.0
H1123 H 0.54803 0.03964 0.83996 0.0
H1124 H 0.54859 0.01644 0.94316 0.0
C1125 C 0.54748 0.98436 0.80045 0.0
C1126 C 0.75214 0.79639 0.63503 0.0
C1127 C 0.77225 0.79719 0.62196 0.0
H1128 H 0.72349 0.79739 0.58785 0.0
C1129 C 0.77868 0.79629 0.54791 0.0
H1130 H 0.74661 0.79745 0.69084 0.0
C1131 C 0.76543 0.79589 0.48854 0.0
C1132 C 0.74532 0.79688 0.50153 0.0
H1133 H 0.79409 0.79714 0.53568 0.0
H1134 H 0.77097 0.79655 0.43265 0.0
C1135 C 0.73889 0.79646 0.57566 0.0
C1136 C 0.60337 0.4978 0.37484 0.0
C1137 C 0.60216 0.51799 0.38406 0.0
H1138 H 0.60309 0.47436 0.29744 0.0
C1139 C 0.60458 0.53029 0.32289 0.0
H1140 H 0.6017 0.48809 0.42151 0.0
C1141 C 0.60518 0.52253 0.25217 0.0
C1142 C 0.60332 0.50238 0.24227 0.0
H1143 H 0.60408 0.54596 0.32945 0.0
H1144 H 0.60491 0.53238 0.20557 0.0
C1145 C 0.60396 0.49 0.30403 0.0
C1146 C 0.73657 0.35314 0.58245 0.0
C1147 C 0.74876 0.35154 0.64421 0.0
H1148 H 0.73482 0.35248 0.46488 0.0
C1149 C 0.76893 0.35318 0.63502 0.0
H1150 H 0.72092 0.35239 0.58868 0.0
C1151 C 0.77685 0.35338 0.56436 0.0
C1152 C 0.76466 0.35197 0.50252 0.0
H1153 H 0.77861 0.35216 0.68182 0.0
H1154 H 0.7925 0.35284 0.55809 0.0
C1155 C 0.74449 0.35335 0.51177 0.0
C1156 C 0.90748 0.51851 0.80238 0.0
C1157 C 0.91895 0.51203 0.74312 0.0
H1158 H 0.90179 0.51621 0.9181 0.0
C1159 C 0.9306 0.4955 0.7517 0.0
H1160 H 0.89841 0.5313 0.7972 0.0
C1161 C 0.93257 0.48699 0.82076 0.0
C1162 C 0.9229 0.49498 0.882 0.0
H1163 H 0.93942 0.49025 0.70638 0.0
H1164 H 0.94304 0.47536 0.82708 0.0
C1165 C 0.90954 0.51007 0.87162 0.0
C1166 C 0.78118 0.67635 0.06438 0.0
C1167 C 0.77131 0.66843 0.12548 0.0
H1168 H 0.78034 0.68178 0.94823 0.0
C1169 C 0.7551 0.65648 0.11438 0.0
H1170 H 0.79361 0.68583 0.07163 0.0
C1171 C 0.7477 0.65402 0.04368 0.0
C1172 C 0.75627 0.66381 0.98369 0.0
H1173 H 0.74738 0.65031 0.16099 0.0
H1174 H 0.73415 0.64615 0.03726 0.0
C1175 C 0.77362 0.67411 0.99388 0.0
C1176 C 0.4691 0.48753 0.82484 0.0
C1177 C 0.46896 0.49379 0.75053 0.0
H1178 H 0.46772 0.49556 0.93967 0.0
C1179 C 0.46998 0.51388 0.73679 0.0
H1180 H 0.4681 0.47213 0.83748 0.0
C1181 C 0.46937 0.5273 0.79561 0.0
C1182 C 0.46822 0.52104 0.86981 0.0
H1183 H 0.46951 0.51928 0.68068 0.0
H1184 H 0.46858 0.54268 0.78277 0.0
C1185 C 0.46897 0.50095 0.88371 0.0
C1186 C 0.25584 0.7198 0.49285 0.0
C1187 C 0.27584 0.71989 0.5086 0.0
H1188 H 0.22672 0.718 0.53593 0.0
C1189 C 0.28136 0.72124 0.58363 0.0
H1190 H 0.25094 0.71845 0.43637 0.0
C1191 C 0.26742 0.72136 0.64112 0.0
C1192 C 0.24749 0.71968 0.62547 0.0
H1193 H 0.29663 0.72121 0.59821 0.0
H1194 H 0.27235 0.72124 0.69779 0.0
C1195 C 0.24194 0.71946 0.55034 0.0
C1196 C 0.04753 0.49224 0.30778 0.0
C1197 C 0.05028 0.49797 0.38206 0.0
H1198 H 0.04717 0.50064 0.19303 0.0
C1199 C 0.05261 0.51794 0.39622 0.0
H1200 H 0.04584 0.47695 0.29448 0.0
C1201 C 0.05375 0.53146 0.33758 0.0
C1202 C 0.05218 0.52557 0.263 0.0
H1203 H 0.05509 0.52293 0.45203 0.0
H1204 H 0.05684 0.54655 0.35056 0.0
C1205 C 0.04824 0.50584 0.24923 0.0
C1206 C 0.23974 0.30041 0.07875 0.0
C1207 C 0.24514 0.30005 1.00342 0.0
H1208 H 0.24899 0.30155 0.19224 0.0
C1209 C 0.26502 0.29818 0.98684 0.0
H1210 H 0.22457 0.302 0.09382 0.0
C1211 C 0.27907 0.29829 0.04366 0.0
C1212 C 0.27371 0.29983 0.11886 0.0
H1213 H 0.26982 0.29818 0.92995 0.0
H1214 H 0.29431 0.29819 0.0284 0.0
C1215 C 0.25375 0.30006 0.13557 0.0
C1216 C 0.9877 0.06878 0.82827 0.0
C1217 C 0.99078 0.05915 0.76068 0.0
H1218 H 0.99817 0.07483 0.93744 0.0
C1219 C 1.00612 0.04561 0.75683 0.0
H1220 H 0.97617 0.07944 0.83313 0.0
C1221 C 0.01895 0.04311 0.81711 0.0
C1222 C 0.01641 0.05362 0.8833 0.0
H1223 H 0.00919 0.03823 0.7054 0.0
H1224 H 0.03168 0.03402 0.81002 0.0
C1225 C 1.00022 0.06599 0.8886 0.0
C1226 C 0.22295 0.78003 0.04776 0.0
C1227 C 0.22056 0.77671 0.1243 0.0
H1228 H 0.22245 0.76805 0.9378 0.0
C1229 C 0.21815 0.75733 0.1477 0.0
H1230 H 0.22468 0.79476 0.02735 0.0
C1231 C 0.21651 0.74205 0.09594 0.0
C1232 C 0.21775 0.74552 0.01918 0.0
H1233 H 0.21593 0.75414 0.2056 0.0
H1234 H 0.21317 0.72755 0.11595 0.0
C1235 C 0.22178 0.76466 0.99608 0.0
C1236 C 0.53325 0.9592 0.35118 0.0
C1237 C 0.52924 0.96277 0.27589 0.0
H1238 H 0.5224 0.9583 0.46273 0.0
C1239 C 0.51117 0.97103 0.25819 0.0
H1240 H 0.54702 0.95282 0.36704 0.0
C1241 C 0.49695 0.97393 0.31333 0.0
C1242 C 0.50052 0.96912 0.38796 0.0
H1243 H 0.50744 0.97381 0.20116 0.0
H1244 H 0.48266 0.9789 0.29682 0.0
C1245 C 0.51918 0.9625 0.40648 0.0
C1246 C 0.31744 0.25722 0.57896 0.0
C1247 C 0.30234 0.25042 0.62542 0.0
H1248 H 0.32586 0.27369 0.48324 0.0
C1249 C 0.28324 0.2562 0.60817 0.0
H1250 H 0.33238 0.25317 0.58988 0.0
C1251 C 0.27947 0.26794 0.54541 0.0
C1252 C 0.29467 0.27442 0.49832 0.0
H1253 H 0.27117 0.25115 0.64158 0.0
H1254 H 0.26454 0.27181 0.5335 0.0
C1255 C 0.31373 0.26903 0.51711 0.0
C1256 C 0.99892 0.95964 0.73288 0.0
C1257 C 0.0179 0.96645 0.74546 0.0
H1258 H 0.97167 0.95079 0.78095 0.0
C1259 C 0.02273 0.97237 0.81771 0.0
H1260 H 0.99486 0.9544 0.67873 0.0
C1261 C 0.00931 0.97062 0.8764 0.0
C1262 C 0.99087 0.96233 0.86473 0.0
H1263 H 0.03739 0.97719 0.82977 0.0
H1264 H 0.01395 0.97419 0.93179 0.0
C1265 C 0.98568 0.95743 0.7918 0.0
C1266 C 0.29516 0.75675 0.10886 0.0
C1267 C 0.31239 0.74619 0.12264 0.0
H1268 H 0.28068 0.77776 0.03871 0.0
C1269 C 0.32692 0.74659 0.06772 0.0
H1270 H 0.2837 0.75698 0.14986 0.0
C1271 C 0.32501 0.75802 1.00395 0.0
C1272 C 0.3085 0.76963 0.99194 0.0
H1273 H 0.34034 0.73862 0.07553 0.0
H1274 H 0.33717 0.75878 0.96595 0.0
C1275 C 0.29334 0.76853 0.04459 0.0
C1276 C 0.50032 0.04513 0.38871 0.0
C1277 C 0.51934 0.04959 0.36563 0.0
H1278 H 0.4704 0.04148 0.35709 0.0
C1279 C 0.52293 0.05066 0.28896 0.0
H1280 H 0.49691 0.04444 0.44698 0.0
C1281 C 0.50781 0.04856 0.23709 0.0
C1282 C 0.48849 0.04581 0.2604 0.0
H1283 H 0.53738 0.05417 0.26907 0.0
H1284 H 0.51102 0.0507 0.17916 0.0
C1285 C 0.4851 0.04349 0.33689 0.0
C1286 C 0.22152 0.2406 0.58065 0.0
C1287 C 0.21874 0.24413 0.50453 0.0
H1288 H 0.22093 0.2521 0.69131 0.0
C1289 C 0.2157 0.26352 0.48235 0.0
H1290 H 0.22375 0.22585 0.60009 0.0
C1291 C 0.21371 0.27851 0.53507 0.0
C1292 C 0.21523 0.27475 0.61149 0.0
H1293 H 0.21319 0.26686 0.42478 0.0
H1294 H 0.2098 0.29295 0.51616 0.0
C1295 C 0.22001 0.2557 0.63327 0.0
C1296 C 0.98303 0.9309 0.33802 0.0
C1297 C 0.99215 0.92149 0.27835 0.0
H1298 H 0.98392 0.93721 0.4534 0.0
C1299 C 1.00688 0.90791 0.29276 0.0
H1300 H 0.97158 0.94141 0.32954 0.0
C1301 C 0.01387 0.90551 0.36428 0.0
C1302 C 1.00626 0.91673 0.42233 0.0
H1303 H 0.01382 0.90008 0.2482 0.0
H1304 H 0.02647 0.89635 0.37258 0.0
C1305 C 0.99002 0.92849 0.40935 0.0
C1306 C 0.84117 0.23673 0.08578 0.0
C1307 C 0.84874 0.24812 0.02782 0.0
H1308 H 0.83462 0.23539 0.20109 0.0
C1309 C 0.8593 0.26504 0.04451 0.0
H1310 H 0.83271 0.22376 0.07495 0.0
C1311 C 0.86061 0.27145 0.11733 0.0
C1312 C 0.85116 0.26111 0.17376 0.0
H1313 H 0.86524 0.274 1.00072 0.0
H1314 H 0.86722 0.28546 0.12859 0.0
C1315 C 0.84225 0.24329 0.15813 0.0
C1316 C 0.52816 0.09692 0.82049 0.0
C1317 C 0.51582 0.09756 0.7588 0.0
H1318 H 0.52993 0.09531 0.9381 0.0
C1319 C 0.49603 0.10159 0.76895 0.0
H1320 H 0.54359 0.09436 0.81386 0.0
C1321 C 0.48831 0.10237 0.83988 0.0
C1322 C 0.50028 0.09915 0.90133 0.0
H1323 H 0.48622 0.10231 0.72243 0.0
H1324 H 0.47273 0.10386 0.84664 0.0
C1325 C 0.52042 0.09772 0.89148 0.0
C1326 C 0.66598 0.744 0.50449 0.0
C1327 C 0.66673 0.76413 0.49231 0.0
H1328 H 0.66791 0.7212 0.58435 0.0
C1329 C 0.66529 0.77687 0.55273 0.0
H1330 H 0.66686 0.73387 0.45893 0.0
C1331 C 0.6662 0.76965 0.62443 0.0
C1332 C 0.66845 0.74963 0.63612 0.0
H1333 H 0.66531 0.79248 0.54436 0.0
H1334 H 0.66718 0.77981 0.66986 0.0
C1335 C 0.66681 0.73678 0.57616 0.0
C1336 C 0.01841 0.11274 0.26957 0.0
C1337 C 1.00847 0.10266 0.21392 0.0
H1338 H 0.02046 0.11828 0.38566 0.0
C1339 C 0.99085 0.09343 0.23 0.0
H1340 H 0.03226 0.11963 0.25795 0.0
C1341 C 0.98407 0.09274 0.3022 0.0
C1342 C 0.99507 0.101 0.35962 0.0
H1343 H 0.98325 0.08535 0.18762 0.0
H1344 H 0.97126 0.08408 0.31354 0.0
C1345 C 0.0118 0.11181 0.34229 0.0
C1346 C 0.65643 0.26833 0.03598 0.0
C1347 C 0.66434 0.25842 0.97537 0.0
H1348 H 0.65319 0.26923 0.15279 0.0
C1349 C 0.67203 0.23979 0.98493 0.0
H1350 H 0.65067 0.28289 0.02948 0.0
C1351 C 0.67316 0.23173 0.05524 0.0
C1352 C 0.66729 0.24255 0.11748 0.0
H1353 H 0.67817 0.23202 0.93849 0.0
H1354 H 0.67964 0.21748 0.06073 0.0
C1355 C 0.65798 0.26051 0.10664 0.0
C1356 C 0.49514 0.91239 0.88196 0.0
C1357 C 0.51538 0.91224 0.89055 0.0
H1358 H 0.47158 0.91456 0.80561 0.0
C1359 C 0.52731 0.90956 0.82836 0.0
H1360 H 0.48563 0.91438 0.92898 0.0
C1361 C 0.51927 0.90965 0.75788 0.0
C1362 C 0.49925 0.91253 0.7492 0.0
H1363 H 0.54297 0.90904 0.83405 0.0
H1364 H 0.52884 0.90952 0.71044 0.0
C1365 C 0.48712 0.9126 0.81155 0.0
C1366 C 0.86112 0.74218 0.53579 0.0
C1367 C 0.85694 0.75381 0.47437 0.0
H1368 H 0.86085 0.74011 0.65328 0.0
C1369 C 0.85306 0.7736 0.48361 0.0
H1370 H 0.86378 0.72674 0.52896 0.0
C1371 C 0.85154 0.78135 0.55425 0.0
C1372 C 0.85334 0.76919 0.61639 0.0
H1373 H 0.84963 0.78262 0.43639 0.0
H1374 H 0.84754 0.7965 0.56007 0.0
C1375 C 0.85933 0.74982 0.60666 0.0
C1376 C 0.52353 0.54747 0.30433 0.0
C1377 C 0.51894 0.55426 0.37576 0.0
H1378 H 0.51469 0.54492 0.19061 0.0
C1379 C 0.50035 0.56214 0.38731 0.0
H1380 H 0.53794 0.54186 0.29296 0.0
C1381 C 0.48727 0.56442 0.32815 0.0
C1382 C 0.49222 0.55856 0.25595 0.0
H1383 H 0.49653 0.56808 0.44071 0.0
H1384 H 0.47359 0.57177 0.33818 0.0
C1385 C 0.51023 0.54929 0.24543 0.0
C1386 C 0.71639 0.2733 0.56606 0.0
C1387 C 0.71375 0.2684 0.64116 0.0
H1388 H 0.71586 0.26374 0.45281 0.0
C1389 C 0.71059 0.24872 0.65867 0.0
H1390 H 0.71849 0.28839 0.5504 0.0
C1391 C 0.70858 0.23467 0.60239 0.0
C1392 C 0.71013 0.23978 0.52706 0.0
H1393 H 0.708 0.24444 0.71536 0.0
H1394 H 0.70475 0.2199 0.61772 0.0
C1395 C 0.71489 0.25916 0.50987 0.0
C1396 C 0.99641 0.47354 0.83212 0.0
C1397 C 1.00064 0.46332 0.89779 0.0
H1398 H 1.0043 0.47928 0.71878 0.0
C1399 C 0.01787 0.45236 0.89991 0.0
H1400 H 0.9829 0.48155 0.82754 0.0
C1401 C 0.0298 0.45063 0.83702 0.0
C1402 C 0.02508 0.46001 0.77021 0.0
H1403 H 0.02125 0.44374 0.94828 0.0
H1404 H 0.04224 0.44098 0.83943 0.0
C1405 C 0.00862 0.47216 0.76946 0.0
C1406 C 0.7972 0.74245 0.05648 0.0
C1407 C 0.80142 0.74702 0.1308 0.0
H1408 H 0.79677 0.7521 0.94327 0.0
C1409 C 0.80623 0.76639 0.14758 0.0
H1410 H 0.79358 0.72762 0.04137 0.0
C1411 C 0.80844 0.78031 0.0909 0.0
C1412 C 0.80549 0.7754 0.01604 0.0
H1413 H 0.80987 0.77041 0.2036 0.0
H1414 H 0.8135 0.79476 0.10535 0.0
C1415 C 0.79898 0.75649 0.99998 0.0
C1416 C 0.50212 0.46453 0.22404 0.0
C1417 C 0.52176 0.46772 0.24154 0.0
H1418 H 0.47337 0.45837 0.26497 0.0
C1419 C 0.52658 0.47026 0.31665 0.0
H1420 H 0.49791 0.46198 0.16735 0.0
C1421 C 0.51243 0.46857 0.37286 0.0
C1422 C 0.4931 0.46375 0.35564 0.0
H1423 H 0.54164 0.47233 0.33233 0.0
H1424 H 0.51697 0.46934 0.42992 0.0
C1425 C 0.48806 0.46235 0.28031 0.0
C1426 C 0.81507 0.24015 0.56058 0.0
C1427 C 0.80614 0.24397 0.62908 0.0
H1428 H 0.82087 0.24998 0.45003 0.0
C1429 C 0.79361 0.26013 0.6336 0.0
H1430 H 0.82504 0.22803 0.55528 0.0
C1431 C 0.79141 0.27293 0.57289 0.0
C1432 C 0.8012 0.2696 0.50554 0.0
H1433 H 0.78687 0.26381 0.68573 0.0
H1434 H 0.78315 0.28621 0.58036 0.0
C1435 C 0.81255 0.25267 0.49976 0.0
C1436 C 0.03016 0.55311 0.79029 0.0
C1437 C 0.02676 0.55261 0.86718 0.0
H1438 H 0.01797 0.55276 0.68089 0.0
C1439 C 1.00765 0.54895 0.89123 0.0
H1440 H 0.04465 0.55612 0.76961 0.0
C1441 C 0.99225 0.54745 0.84006 0.0
C1442 C 0.99551 0.54909 0.76325 0.0
H1443 H 1.00434 0.54884 0.94963 0.0
H1444 H 0.97754 0.54602 0.86094 0.0
C1445 C 0.01484 0.55112 0.73911 0.0
C1446 C 0.72432 0.73756 0.07826 0.0
C1447 C 0.72236 0.74104 1.00176 0.0
H1448 H 0.72274 0.74921 0.18852 0.0
C1449 C 0.7196 0.76039 0.97872 0.0
H1450 H 0.72628 0.72281 0.09822 0.0
C1451 C 0.71715 0.77544 0.03081 0.0
C1452 C 0.71789 0.77175 0.10743 0.0
H1453 H 0.71767 0.76365 0.92076 0.0
H1454 H 0.71357 0.78989 1.01108 0.0
C1455 C 0.72236 0.75272 0.13031 0.0
C1456 C 0.49693 0.41605 0.88434 0.0
C1457 C 0.51701 0.41555 0.895 0.0
H1458 H 0.47387 0.41758 0.80596 0.0
C1459 C 0.5295 0.41349 0.83437 0.0
H1460 H 0.48722 0.41778 0.93093 0.0
C1461 C 0.52206 0.41386 0.76294 0.0
C1462 C 0.50202 0.41635 0.75166 0.0
H1463 H 0.5451 0.41332 0.84238 0.0
H1464 H 0.53213 0.41396 0.71705 0.0
C1465 C 0.48943 0.4162 0.81302 0.0
C1466 C 0.33942 0.78006 0.55914 0.0
C1467 C 0.35045 0.77281 0.61818 0.0
H1468 H 0.33017 0.77577 0.44793 0.0
C1469 C 0.36334 0.7574 0.60647 0.0
H1470 H 0.32978 0.79236 0.56674 0.0
C1471 C 0.36364 0.74799 0.53836 0.0
C1472 C 0.35105 0.75401 0.48162 0.0
H1473 H 0.37199 0.75174 0.65146 0.0
H1474 H 0.37249 0.73508 0.53232 0.0
C1475 C 0.3397 0.77071 0.49136 0.0
C1476 C 0.99043 0.60217 0.33096 0.0
C1477 C 1.00305 0.60143 0.39174 0.0
H1478 H 0.98802 0.60158 0.21359 0.0
C1479 C 0.023 0.60437 0.38096 0.0
H1480 H 0.97489 0.60046 0.33843 0.0
C1481 C 0.03047 0.60525 0.3096 0.0
C1482 C 0.01806 0.60317 0.24861 0.0
H1483 H 0.03296 0.60404 0.42708 0.0
H1484 H 0.04609 0.60581 0.30205 0.0
C1485 C 0.9979 0.60305 0.25965 0.0
C1486 C 0.16097 0.24202 0.08188 0.0
C1487 C 0.16344 0.25477 0.14165 0.0
H1488 H 0.16129 0.23891 0.96496 0.0
C1489 C 0.16278 0.27489 0.1297 0.0
H1490 H 0.16093 0.22641 0.09045 0.0
C1491 C 0.16273 0.28208 0.05783 0.0
C1492 C 0.1635 0.26918 0.99767 0.0
H1493 H 0.16442 0.28496 0.17515 0.0
H1494 H 0.16394 0.29764 0.04939 0.0
C1495 C 0.16103 0.24918 1.01013 0.0
C1496 C 0.50731 0.61264 0.82731 0.0
C1497 C 0.4926 0.59896 0.84159 0.0
H1498 H 0.52717 0.62419 0.74796 0.0
C1499 C 0.48367 0.58944 0.78179 0.0
H1500 H 0.51409 0.62058 0.87192 0.0
C1501 C 0.49095 0.59174 0.71067 0.0
C1502 C 0.50723 0.60355 0.69802 0.0
H1503 H 0.47218 0.57892 0.79009 0.0
H1504 H 0.48502 0.58292 0.66662 0.0
C1505 C 0.51456 0.61496 0.75601 0.0
C1506 C 0.16545 0.74742 0.50329 0.0
C1507 C 0.16652 0.76754 0.49169 0.0
H1508 H 0.16655 0.72451 0.58298 0.0
C1509 C 0.16484 0.78023 0.55207 0.0
H1510 H 0.16652 0.73739 0.45746 0.0
C1511 C 0.1651 0.77294 0.62367 0.0
C1512 C 0.16702 0.75287 0.63533 0.0
H1513 H 0.16515 0.79586 0.54391 0.0
H1514 H 0.1659 0.78307 0.66923 0.0
C1515 C 0.16567 0.74011 0.57495 0.0
C1516 C 0.00964 0.40486 0.36023 0.0
C1517 C 0.02555 0.41721 0.37309 0.0
H1518 H 0.98902 0.39461 0.28088 0.0
C1519 C 0.0356 0.42528 0.31278 0.0
H1520 H 1.00176 0.3985 0.40607 0.0
C1521 C 0.02827 0.42318 0.24179 0.0
C1522 C 0.01105 0.41275 0.23017 0.0
H1523 H 0.04779 0.43503 0.32105 0.0
H1524 H 0.03488 0.43127 0.19697 0.0
C1525 C 1.00249 0.40252 0.28887 0.0
C1526 C 0.33589 0.24234 0.06164 0.0
C1527 C 0.34663 0.24974 1.00189 0.0
H1528 H 0.32764 0.24602 0.17434 0.0
C1529 C 0.35975 0.26498 1.01306 0.0
H1530 H 0.3261 0.23011 0.05442 0.0
C1531 C 0.36061 0.27412 0.08155 0.0
C1532 C 0.34839 0.26796 0.13965 0.0
H1533 H 0.36823 0.2707 0.96753 0.0
H1534 H 0.36968 0.28691 0.08676 0.0
C1535 C 0.33682 0.25134 0.13011 0.0
C1536 C 0.05706 0.02518 0.33709 0.0
C1537 C 0.05099 0.02449 0.26273 0.0
H1538 H 0.05914 0.01065 0.4417 0.0
C1539 C 0.04079 1.00783 0.23956 0.0
H1540 H 0.06486 0.03779 0.3575 0.0
C1541 C 0.03784 0.99194 0.28808 0.0
C1542 C 0.04483 0.99227 0.36154 0.0
H1543 H 0.03598 1.00661 0.18293 0.0
H1544 H 0.03056 0.97911 0.26704 0.0
C1545 C 0.0539 0.00947 0.38571 0.0
C1546 C 0.2571 0.80426 0.61644 0.0
C1547 C 0.27553 0.81338 0.61683 0.0
H1548 H 0.23066 0.79866 0.55508 0.0
C1549 C 0.28224 0.82159 0.5505 0.0
H1550 H 0.25126 0.7982 0.66701 0.0
C1551 C 0.27057 0.8219 0.48723 0.0
C1552 C 0.25163 0.81408 0.48747 0.0
H1553 H 0.29621 0.82892 0.54878 0.0
H1554 H 0.27603 0.82939 0.43877 0.0
C1555 C 0.24526 0.80454 0.55223 0.0
C1556 C 0.48133 0.01031 0.85609 0.0
C1557 C 0.46626 0.02079 0.89171 0.0
H1558 H 0.48963 0.99136 0.76624 0.0
C1559 C 0.44759 0.01973 0.86071 0.0
H1560 H 0.49597 0.0107 0.87791 0.0
C1561 C 0.44403 1.00873 0.79689 0.0
C1562 C 0.45895 0.9982 0.76099 0.0
H1563 H 0.43555 0.0274 0.88592 0.0
H1564 H 0.42931 1.0085 0.7758 0.0
C1565 C 0.47773 0.99917 0.79174 0.0
C1566 C 0.28003 0.20193 0.07654 0.0
C1567 C 0.27285 0.20867 1.0087 0.0
H1568 H 0.27422 0.19534 0.18985 0.0
C1569 C 0.2539 0.2166 1.00764 0.0
H1570 H 0.29441 0.19554 0.07945 0.0
C1571 C 0.24209 0.21649 0.07209 0.0
C1572 C 0.249 0.20836 0.13861 0.0
H1573 H 0.24771 0.22148 0.95601 0.0
H1574 H 0.22714 0.22132 0.06831 0.0
C1575 C 0.26838 0.2018 0.14008 0.0
C1576 C 0.90452 0.01451 0.85444 0.0
C1577 C 0.9179 0.99983 0.87177 0.0
H1578 H 0.89444 0.03428 0.77115 0.0
C1579 C 0.92908 0.99143 0.8153 0.0
H1580 H 0.89568 0.021 0.89728 0.0
C1581 C 0.92823 0.99873 0.74403 0.0
C1582 C 0.91619 0.01456 0.72775 0.0
H1583 H 0.93911 0.9797 0.82696 0.0
H1584 H 0.93785 0.99282 0.70237 0.0
C1585 C 0.9037 0.02191 0.78253 0.0
C1586 C 0.77077 0.15545 0.60899 0.0
C1587 C 0.76287 0.16779 0.66312 0.0
H1588 H 0.7704 0.14719 0.49454 0.0
C1589 C 0.74671 0.17927 0.64612 0.0
H1590 H 0.78341 0.14664 0.62104 0.0
C1591 C 0.73951 0.17969 0.57475 0.0
C1592 C 0.74842 0.16871 0.51884 0.0
H1593 H 0.74041 0.18878 0.68731 0.0
H1594 H 0.72743 0.18925 0.56253 0.0
C1595 C 0.76352 0.15588 0.53692 0.0
C1596 C 0.61053 0.99605 0.27927 0.0
C1597 C 0.59864 1.00418 0.22424 0.0
H1598 H 0.61714 0.99507 0.3952 0.0
C1599 C 0.58614 0.01951 0.24239 0.0
H1600 H 0.62006 0.98397 0.26657 0.0
C1601 C 0.5842 0.02546 0.31515 0.0
C1602 C 0.59482 0.01626 0.37138 0.0
H1603 H 0.57687 0.02592 0.20075 0.0
H1604 H 0.57378 0.03676 0.32776 0.0
C1605 C 0.60868 1.00215 0.35265 0.0
C1606 C 0.77258 0.83481 0.1256 0.0
C1607 C 0.75699 0.84666 0.14622 0.0
H1608 H 0.79009 0.82411 0.03785 0.0
C1609 C 0.74844 0.85902 0.09358 0.0
H1610 H 0.77931 0.82519 0.16543 0.0
C1611 C 0.75447 0.85831 0.0198 0.0
C1612 C 0.76895 0.84512 0.99842 0.0
H1613 H 0.73616 0.86807 0.10834 0.0
H1614 H 0.74711 0.86709 0.9789 0.0
C1615 C 0.77851 0.83404 0.05252 0.0
C1616 C 0.54359 0.51235 0.88108 0.0
C1617 C 0.55424 0.49603 0.85746 0.0
H1618 H 0.53241 0.54068 0.85391 0.0
C1619 C 0.56006 0.49545 0.78273 0.0
H1620 H 0.53895 0.51346 0.93801 0.0
C1621 C 0.55622 0.51097 0.73412 0.0
C1622 C 0.54674 0.5279 0.75868 0.0
H1623 H 0.56816 0.48309 0.76201 0.0
H1624 H 0.56128 0.5099 0.67778 0.0
C1625 C 0.53999 0.52807 0.83256 0.0
C1626 C 0.75815 0.3045 0.99919 0.0
C1627 C 0.74039 0.297 0.02549 0.0
H1628 H 0.7871 0.31402 0.02484 0.0
C1629 C 0.73962 0.29123 0.10049 0.0
H1630 H 0.7596 0.30889 0.94213 0.0
C1631 C 0.75568 0.29384 0.1482 0.0
C1632 C 0.77297 0.30253 0.12269 0.0
H1633 H 0.72634 0.28522 0.12324 0.0
H1634 H 0.75414 0.29005 0.20588 0.0
C1635 C 0.77404 0.30737 0.04699 0.0
C1636 C 0.96854 0.51908 0.34304 0.0
C1637 C 0.9585 0.51369 0.40802 0.0
H1638 H 0.97578 0.51134 0.23049 0.0
C1639 C 0.95084 0.49468 0.4116 0.0
H1640 H 0.97438 0.53367 0.33763 0.0
C1641 C 0.95176 0.482 0.35115 0.0
C1642 C 0.96043 0.4877 0.28428 0.0
H1643 H 0.94303 0.48991 0.46035 0.0
H1644 H 0.94446 0.46804 0.3552 0.0
C1645 C 0.96942 0.50622 0.28162 0.0
C1646 C 0.77282 0.72784 0.53537 0.0
C1647 C 0.77573 0.70847 0.51232 0.0
H1648 H 0.75879 0.74722 0.61226 0.0
C1649 C 0.76608 0.69367 0.55262 0.0
H1650 H 0.77987 0.73969 0.50623 0.0
C1651 C 0.75398 0.69792 0.61302 0.0
C1652 C 0.75098 0.7172 0.63626 0.0
H1653 H 0.76777 0.67852 0.53743 0.0
H1654 H 0.74697 0.68597 0.64168 0.0
C1655 C 0.76066 0.73213 0.59646 0.0
C1656 C 0.40768 0.50529 0.27523 0.0
C1657 C 0.42121 0.51961 0.2548 0.0
H1658 H 0.39781 0.48628 0.36167 0.0
C1659 C 0.43294 0.52823 0.30913 0.0
H1660 H 0.39841 0.49863 0.23414 0.0
C1661 C 0.43247 0.52143 0.38121 0.0
C1662 C 0.42021 0.50596 0.40053 0.0
H1663 H 0.44309 0.53974 0.2952 0.0
H1664 H 0.44252 0.52743 0.42111 0.0
C1665 C 0.40721 0.49843 0.34795 0.0
C1666 C 0.27944 0.66844 0.06479 0.0
C1667 C 0.26611 0.66781 0.12378 0.0
H1668 H 0.28306 0.67012 0.94751 0.0
C1669 C 0.2465 0.66374 0.10931 0.0
H1670 H 0.29475 0.67101 0.07464 0.0
C1671 C 0.24002 0.66267 0.0365 0.0
C1672 C 0.25309 0.66567 0.97799 0.0
H1673 H 0.23598 0.66318 0.15373 0.0
H1674 H 0.22459 0.66133 0.02579 0.0
C1675 C 0.27291 0.66765 0.9923 0.0
C1676 C 0.09263 0.48756 0.82867 0.0
C1677 C 0.10186 0.49749 0.77045 0.0
H1678 H 0.08465 0.48806 0.94274 0.0
C1679 C 0.11357 0.5137 0.78604 0.0
H1680 H 0.0839 0.47472 0.81817 0.0
C1681 C 0.11429 0.52106 0.85797 0.0
C1682 C 0.10331 0.51222 0.91433 0.0
H1683 H 0.1208 0.5215 0.7419 0.0
H1684 H 0.12195 0.53458 0.8682 0.0
C1685 C 0.09321 0.49497 0.89986 0.0
C1686 C 0.27004 0.3545 0.63428 0.0
C1687 C 0.25014 0.35465 0.64924 0.0
H1688 H 0.29197 0.35256 0.55129 0.0
C1689 C 0.23678 0.35597 0.59112 0.0
H1690 H 0.28044 0.35338 0.67885 0.0
C1691 C 0.2432 0.35489 0.51827 0.0
C1692 C 0.26307 0.35254 0.50321 0.0
H1693 H 0.22132 0.35596 0.60244 0.0
H1694 H 0.23254 0.35407 0.47459 0.0
C1695 C 0.27651 0.35373 0.56154 0.0
C1696 C 0.14095 0.14489 0.12628 0.0
C1697 C 0.14661 0.14823 0.19962 0.0
H1698 H 0.12332 0.1283 0.05214 0.0
C1699 C 0.13869 0.13618 0.25513 0.0
H1700 H 0.14649 0.15399 0.08218 0.0
C1701 C 0.12538 0.12139 0.23796 0.0
C1702 C 0.11962 0.11812 0.16471 0.0
H1703 H 0.14295 0.13801 0.31213 0.0
H1704 H 0.1198 0.11233 0.28214 0.0
C1705 C 0.12763 0.13009 0.1091 0.0
C1706 C 0.14422 0.88793 0.37555 0.0
C1707 C 0.14981 0.87401 0.42849 0.0
H1708 H 0.12716 0.91316 0.35085 0.0
C1709 C 0.14173 0.87522 0.49944 0.0
H1710 H 0.15036 0.88756 0.32052 0.0
C1711 C 0.12812 0.88973 0.5166 0.0
C1712 C 0.12243 0.9037 0.46365 0.0
H1713 H 0.1455 0.8646 0.54119 0.0
H1714 H 0.12177 0.88966 0.57121 0.0
C1715 C 0.13081 0.9026 0.39291 0.0
C1716 C 0.396 0.89437 0.73402 0.0
C1717 C 0.39458 0.90493 0.6678 0.0
H1718 H 0.384 0.8723 0.80375 0.0
C1719 C 0.37875 0.90091 0.62083 0.0
H1720 H 0.40817 0.89663 0.77083 0.0
C1721 C 0.36471 0.88685 0.63989 0.0
C1722 C 0.36608 0.87642 0.7065 0.0
H1723 H 0.37706 0.90881 0.56955 0.0
H1724 H 0.3526 0.88441 0.60295 0.0
C1725 C 0.38204 0.88033 0.75291 0.0
C1726 C 0.39196 0.12586 0.88687 0.0
C1727 C 0.39226 0.11794 0.95823 0.0
H1728 H 0.37872 0.14586 0.81212 0.0
C1729 C 0.37803 0.12412 1.00903 0.0
H1730 H 0.40287 0.1217 0.84677 0.0
C1731 C 0.36385 0.13782 0.98894 0.0
C1732 C 0.36356 0.14588 0.91754 0.0
H1733 H 0.37771 0.11818 0.06436 0.0
H1734 H 0.35296 0.14187 0.02926 0.0
C1735 C 0.37796 0.13973 0.86703 0.0
C1736 C 0.88944 0.88579 1.00724 0.0
C1737 C 0.90095 0.89529 0.95358 0.0
H1738 H 0.86789 0.86433 0.0314 0.0
C1739 C 0.89786 0.89036 0.87921 0.0
H1740 H 0.89071 0.88938 0.06506 0.0
C1741 C 0.88384 0.87644 0.85939 0.0
C1742 C 0.8727 0.86659 0.91331 0.0
H1743 H 0.90636 0.89708 0.83582 0.0
H1744 H 0.88173 0.87362 0.80131 0.0
C1745 C 0.87582 0.87154 0.98761 0.0
C1746 C 0.88944 0.12315 0.73532 0.0
C1747 C 0.90219 0.12671 0.67597 0.0
H1748 H 0.86572 0.13351 0.80114 0.0
C1749 C 0.90035 0.14454 0.63771 0.0
H1750 H 0.88996 0.10952 0.76528 0.0
C1751 C 0.88611 0.1582 0.65756 0.0
C1752 C 0.87349 0.15459 0.717 0.0
H1753 H 0.91002 0.14808 0.59247 0.0
H1754 H 0.88521 0.17176 0.6272 0.0
C1755 C 0.87538 0.1369 0.75566 0.0
C1756 C 0.63757 0.14348 0.49799 0.0
C1757 C 0.64241 0.14763 0.42417 0.0
H1758 H 0.62066 0.12655 0.57324 0.0
C1759 C 0.63251 0.13719 0.36863 0.0
H1760 H 0.64457 0.15115 0.54277 0.0
C1761 C 0.61805 0.1235 0.38616 0.0
C1762 C 0.61318 0.11937 0.45997 0.0
H1763 H 0.63597 0.13938 0.31102 0.0
H1764 H 0.61059 0.11631 0.3413 0.0
C1765 C 0.62339 0.12949 0.51555 0.0
C1766 C 0.62634 0.85742 0.19037 0.0
C1767 C 0.64605 0.86256 0.19734 0.0
H1768 H 0.5972 0.86716 0.16984 0.0
C1769 C 0.65131 0.88229 0.19027 0.0
H1770 H 0.62186 0.84235 0.19591 0.0
C1771 C 0.63711 0.89657 0.17736 0.0
C1772 C 0.61742 0.89137 0.16966 0.0
H1773 H 0.66635 0.8867 0.1963 0.0
H1774 H 0.64155 0.91165 0.17208 0.0
C1775 C 0.61224 0.87161 0.17576 0.0
C1776 C 0.64625 0.63072 0.74866 0.0
C1777 C 0.65263 0.64442 0.69606 0.0
H1778 H 0.62831 0.60597 0.77214 0.0
C1779 C 0.64509 0.64333 0.62438 0.0
H1780 H 0.65195 0.63104 0.80428 0.0
C1781 C 0.63117 0.62918 0.60618 0.0
C1782 C 0.62464 0.61545 0.65883 0.0
H1783 H 0.6495 0.65382 0.5829 0.0
H1784 H 0.62521 0.6294 0.55103 0.0
C1785 C 0.63257 0.61638 0.73025 0.0
C1786 C 0.6587 0.39099 0.9641 0.0
C1787 C 0.65373 0.37485 0.9206 0.0
H1788 H 0.64957 0.41799 1.0115 0.0
C1789 C 0.63463 0.37353 0.89335 0.0
H1790 H 0.67335 0.39257 0.98512 0.0
C1791 C 0.62081 0.38789 0.9095 0.0
C1792 C 0.62571 0.40422 0.95262 0.0
H1793 H 0.63026 0.36115 0.86025 0.0
H1794 H 0.60616 0.38588 0.8892 0.0
C1795 C 0.64496 0.40557 0.97929 0.0
C1796 C 0.88534 0.36707 0.21338 0.0
C1797 C 0.86576 0.37284 0.21903 0.0
H1798 H 0.91499 0.37603 0.19559 0.0
C1799 C 0.86126 0.3927 0.21118 0.0
H1800 H 0.88927 0.3519 0.22 0.0
C1801 C 0.87591 0.40642 0.19638 0.0
C1802 C 0.89547 0.40067 0.19127 0.0
H1803 H 0.84633 0.39759 0.21542 0.0
H1804 H 0.87196 0.42155 0.1887 0.0
C1805 C 0.90006 0.38088 0.20038 0.0
C1806 C 0.88346 0.63943 0.3655 0.0
C1807 C 0.86858 0.64458 0.41578 0.0
H1808 H 0.90891 0.6222 0.34415 0.0
C1809 C 0.86858 0.63545 0.48538 0.0
H1810 H 0.88455 0.64638 0.31211 0.0
C1811 C 0.88298 0.62187 0.50415 0.0
C1812 C 0.89767 0.61675 0.4536 0.0
H1813 H 0.85735 0.63865 0.52546 0.0
H1814 H 0.88256 0.61523 0.55834 0.0
C1815 C 0.89762 0.62558 0.38384 0.0
C1816 C 0.4027 0.37541 0.46769 0.0
C1817 C 0.40056 0.39569 0.4597 0.0
H1818 H 0.38949 0.34722 0.45848 0.0
C1819 C 0.3823 0.40298 0.43891 0.0
H1820 H 0.41658 0.36929 0.48351 0.0
C1821 C 0.36663 0.39038 0.42607 0.0
C1822 C 0.36878 0.37002 0.4326 0.0
H1823 H 0.37999 0.41853 0.43396 0.0
H1824 H 0.35275 0.39668 0.41139 0.0
C1825 C 0.38706 0.36275 0.45397 0.0
C1826 C 0.37047 0.64032 0.12617 0.0
C1827 C 0.36949 0.64832 0.19727 0.0
H1828 H 0.38483 0.62067 0.053 0.0
C1829 C 0.38349 0.64254 0.24948 0.0
H1830 H 0.35976 0.64418 0.08498 0.0
C1831 C 0.39812 0.62917 0.23101 0.0
C1832 C 0.39912 0.62112 0.15982 0.0
H1833 H 0.38332 0.64858 0.30461 0.0
H1834 H 0.40882 0.6254 0.27232 0.0
C1835 C 0.38497 0.62683 0.10788 0.0
C1836 C 0.13707 0.62041 0.94752 0.0
C1837 C 0.11731 0.62541 0.95374 0.0
H1838 H 0.16633 0.63051 0.92939 0.0
C1839 C 0.112 0.64505 0.94511 0.0
H1840 H 0.14163 0.60544 0.95477 0.0
C1841 C 0.12606 0.65932 0.92974 0.0
C1842 C 0.14586 0.6544 0.92457 0.0
H1843 H 0.0969 0.64935 0.94989 0.0
H1844 H 0.12148 0.67429 0.9226 0.0
C1845 C 0.15122 0.63478 0.9339 0.0
C1846 C 0.11188 0.38124 0.71978 0.0
C1847 C 0.11688 0.39678 0.67304 0.0
H1848 H 0.12067 0.35456 0.77049 0.0
C1849 C 0.13582 0.39735 0.64355 0.0
H1850 H 0.09734 0.38022 0.74258 0.0
C1851 C 0.14945 0.38286 0.66072 0.0
C1852 C 0.1445 0.3671 0.70707 0.0
H1853 H 0.14021 0.40923 0.60782 0.0
H1854 H 0.16399 0.3843 0.6385 0.0
C1855 C 0.12539 0.36652 0.73589 0.0
loop_
_geom_bond_atom_site_label_1
_geom_bond_atom_site_label_2
_geom_bond_distance
_geom_bond_site_symmetry_2
_ccdc_geom_bond_type
C0 C1 1.351 . S
C0 N3 1.368 . S
C0 H5 0.931 . S
C1 C0 1.351 . S
C1 N2 1.373 . S
C1 H29 0.930 . S
N2 C1 1.373 . S
N2 C4 1.340 . S
N3 C0 1.368 . S
N3 C4 1.321 . S
N3 Co6 2.135 . S
C4 N2 1.340 . S
C4 N3 1.321 . S
C4 H28 0.930 . S
H5 C0 0.931 . S
Co6 N3 2.135 . S
Co6 N9 2.121 1_554 S
Co6 O14 2.055 . S
Co6 O17 2.039 . S
Co6 N20 2.140 . S
C7 O8 1.227 . S
C7 O17 1.265 . S
O8 C7 1.227 . S
N9 Co6 2.121 1_556 S
N9 C11 1.375 1_556 S
N9 C12 1.313 . S
C10 C11 1.338 1_556 S
C10 N13 1.377 . S
C10 H30 0.930 . S
C11 N9 1.375 1_554 S
C11 C10 1.338 1_554 S
C11 H15 0.931 . S
C12 N9 1.313 . S
C12 N13 1.344 . S
C12 H16 0.930 . S
N13 C10 1.377 . S
N13 C12 1.344 . S
O14 Co6 2.055 . S
O14 C18 1.253 1_554 S
H15 C11 0.931 . S
H16 C12 0.930 . S
O17 Co6 2.039 . S
O17 C7 1.265 . S
C18 O14 1.253 1_556 S
C18 O19 1.227 . S
O19 C18 1.227 . S
N20 Co6 2.140 . S
N20 C23 1.346 . S
N20 C24 1.345 . S
C21 C22 1.387 . S
C21 C25 1.391 . S
C22 C21 1.387 . S
C22 C23 1.369 . S
C22 H31 0.929 . S
C23 N20 1.346 . S
C23 C22 1.369 . S
C23 H26 0.928 . S
C24 N20 1.345 . S
C24 C25 1.371 . S
C24 H27 0.931 1_554 S
C25 C21 1.391 . S
C25 C24 1.371 . S
C25 H32 0.930 1_554 S
H26 C23 0.928 . S
H27 C24 0.931 1_556 S
H28 C4 0.930 . S
H29 C1 0.930 . S
H30 C10 0.930 . S
H31 C22 0.929 . S
H32 C25 0.930 1_556 S
C33 C34 1.351 . S
C33 N36 1.368 . S
C33 H38 0.931 . S
C34 C33 1.351 . S
C34 N35 1.373 . S
C34 H62 0.930 . S
N35 C34 1.373 . S
N35 C37 1.340 . S
N36 C33 1.368 . S
N36 C37 1.321 . S
N36 Co39 2.135 . S
C37 N35 1.340 . S
C37 N36 1.321 . S
C37 H61 0.930 . S
H38 C33 0.931 . S
Co39 N36 2.135 . S
Co39 N42 2.121 . S
Co39 O47 2.055 . S
Co39 O50 2.039 . S
Co39 N53 2.140 . S
C40 O41 1.227 . S
C40 O50 1.265 . S
O41 C40 1.227 . S
N42 Co39 2.121 . S
N42 C44 1.375 . S
N42 C45 1.313 . S
C43 C44 1.338 . S
C43 N46 1.377 . S
C43 H63 0.930 . S
C44 N42 1.375 . S
C44 C43 1.338 . S
C44 H48 0.931 . S
C45 N42 1.313 . S
C45 N46 1.344 . S
C45 H49 0.930 . S
N46 C43 1.377 . S
N46 C45 1.344 . S
O47 Co39 2.055 . S
O47 C51 1.253 . S
H48 C44 0.931 . S
H49 C45 0.930 . S
O50 Co39 2.039 . S
O50 C40 1.265 . S
C51 O47 1.253 . S
C51 O52 1.227 . S
O52 C51 1.227 . S
N53 Co39 2.140 . S
N53 C56 1.346 . S
N53 C57 1.345 . S
C54 C55 1.387 . S
C54 C58 1.391 . S
C55 C54 1.387 . S
C55 C56 1.369 . S
C55 H64 0.929 . S
C56 N53 1.346 . S
C56 C55 1.369 . S
C56 H59 0.928 . S
C57 N53 1.345 . S
C57 C58 1.371 . S
C57 H60 0.931 . S
C58 C54 1.391 . S
C58 C57 1.371 . S
C58 H65 0.930 . S
H59 C56 0.928 . S
H60 C57 0.931 . S
H61 C37 0.930 . S
H62 C34 0.930 . S
H63 C43 0.930 . S
H64 C55 0.929 . S
H65 C58 0.930 . S
C66 C67 1.351 . S
C66 N69 1.368 . S
C66 H71 0.931 . S
C67 C66 1.351 . S
C67 N68 1.373 . S
C67 H95 0.930 . S
N68 C67 1.373 . S
N68 C70 1.340 . S
N69 C66 1.368 . S
N69 C70 1.321 . S
N69 Co72 2.135 . S
C70 N68 1.340 . S
C70 N69 1.321 . S
C70 H94 0.930 . S
H71 C66 0.931 . S
Co72 N69 2.135 . S
Co72 N75 2.121 . S
Co72 O80 2.055 . S
Co72 O83 2.039 . S
Co72 N86 2.140 . S
C73 O74 1.227 . S
C73 O83 1.265 . S
O74 C73 1.227 . S
N75 Co72 2.121 . S
N75 C77 1.375 . S
N75 C78 1.313 . S
C76 C77 1.338 . S
C76 N79 1.377 . S
C76 H96 0.930 . S
C77 N75 1.375 . S
C77 C76 1.338 . S
C77 H81 0.931 . S
C78 N75 1.313 . S
C78 N79 1.344 . S
C78 H82 0.930 . S
N79 C76 1.377 . S
N79 C78 1.344 . S
O80 Co72 2.055 . S
O80 C84 1.253 . S
H81 C77 0.931 . S
H82 C78 0.930 . S
O83 Co72 2.039 . S
O83 C73 1.265 . S
C84 O80 1.253 . S
C84 O85 1.227 . S
O85 C84 1.227 . S
N86 Co72 2.140 . S
N86 C89 1.346 . S
N86 C90 1.345 . S
C87 C88 1.387 . S
C87 C91 1.391 . S
C88 C87 1.387 . S
C88 C89 1.369 . S
C88 H97 0.929 . S
C89 N86 1.346 . S
C89 C88 1.369 . S
C89 H92 0.928 . S
C90 N86 1.345 . S
C90 C91 1.371 . S
C90 H93 0.931 . S
C91 C87 1.391 . S
C91 C90 1.371 . S
C91 H98 0.930 . S
H92 C89 0.928 . S
H93 C90 0.931 . S
H94 C70 0.930 . S
H95 C67 0.930 . S
H96 C76 0.930 . S
H97 C88 0.929 . S
H98 C91 0.930 . S
C99 C100 1.351 . S
C99 N102 1.368 . S
C99 H104 0.931 . S
C100 C99 1.351 . S
C100 N101 1.373 . S
C100 H128 0.930 . S
N101 C100 1.373 . S
N101 C103 1.340 . S
N102 C99 1.368 . S
N102 C103 1.321 . S
N102 Co105 2.135 . S
C103 N101 1.340 . S
C103 N102 1.321 . S
C103 H127 0.930 . S
H104 C99 0.931 . S
Co105 N102 2.135 . S
Co105 N108 2.121 . S
Co105 O113 2.055 . S
Co105 O116 2.039 . S
Co105 N119 2.140 . S
C106 O107 1.227 . S
C106 O116 1.265 . S
O107 C106 1.227 . S
N108 Co105 2.121 . S
N108 C110 1.375 . S
N108 C111 1.313 . S
C109 C110 1.338 . S
C109 N112 1.377 . S
C109 H129 0.930 . S
C110 N108 1.375 . S
C110 C109 1.338 . S
C110 H114 0.931 . S
C111 N108 1.313 . S
C111 N112 1.344 . S
C111 H115 0.930 . S
N112 C109 1.377 . S
N112 C111 1.344 . S
O113 Co105 2.055 . S
O113 C117 1.253 . S
H114 C110 0.931 . S
H115 C111 0.930 . S
O116 Co105 2.039 . S
O116 C106 1.265 . S
C117 O113 1.253 . S
C117 O118 1.227 . S
O118 C117 1.227 . S
N119 Co105 2.140 . S
N119 C122 1.346 . S
N119 C123 1.345 . S
C120 C121 1.387 . S
C120 C124 1.391 . S
C121 C120 1.387 . S
C121 C122 1.369 . S
C121 H130 0.929 . S
C122 N119 1.346 . S
C122 C121 1.369 . S
C122 H125 0.928 . S
C123 N119 1.345 . S
C123 C124 1.371 . S
C123 H126 0.931 . S
C124 C120 1.391 . S
C124 C123 1.371 . S
C124 H131 0.930 . S
H125 C122 0.928 . S
H126 C123 0.931 . S
H127 C103 0.930 . S
H128 C100 0.930 . S
H129 C109 0.930 . S
H130 C121 0.929 . S
H131 C124 0.930 . S
C132 C133 1.351 . S
C132 N135 1.368 . S
C132 H137 0.931 . S
C133 C132 1.351 . S
C133 N134 1.373 . S
C133 H161 0.930 . S
N134 C133 1.373 . S
N134 C136 1.340 . S
N135 C132 1.368 . S
N135 C136 1.321 . S
N135 Co138 2.135 . S
C136 N134 1.340 . S
C136 N135 1.321 . S
C136 H160 0.930 . S
H137 C132 0.931 . S
Co138 N135 2.135 . S
Co138 N141 2.121 . S
Co138 O146 2.055 . S
Co138 O149 2.039 . S
Co138 N152 2.140 . S
C139 O140 1.227 . S
C139 O149 1.265 . S
O140 C139 1.227 . S
N141 Co138 2.121 . S
N141 C143 1.375 . S
N141 C144 1.313 . S
C142 C143 1.338 . S
C142 N145 1.377 . S
C142 H162 0.930 . S
C143 N141 1.375 . S
C143 C142 1.338 . S
C143 H147 0.931 . S
C144 N141 1.313 . S
C144 N145 1.344 . S
C144 H148 0.930 . S
N145 C142 1.377 . S
N145 C144 1.344 . S
O146 Co138 2.055 . S
O146 C150 1.253 . S
H147 C143 0.931 . S
H148 C144 0.930 . S
O149 Co138 2.039 . S
O149 C139 1.265 . S
C150 O146 1.253 . S
C150 O151 1.227 . S
O151 C150 1.227 . S
N152 Co138 2.140 . S
N152 C155 1.346 . S
N152 C156 1.345 . S
C153 C154 1.387 . S
C153 C157 1.391 . S
C154 C153 1.387 . S
C154 C155 1.369 . S
C154 H163 0.929 . S
C155 N152 1.346 . S
C155 C154 1.369 . S
C155 H158 0.928 . S
C156 N152 1.345 . S
C156 C157 1.371 . S
C156 H159 0.931 . S
C157 C153 1.391 . S
C157 C156 1.371 . S
C157 H164 0.930 . S
H158 C155 0.928 . S
H159 C156 0.931 . S
H160 C136 0.930 . S
H161 C133 0.930 . S
H162 C142 0.930 . S
H163 C154 0.929 . S
H164 C157 0.930 . S
C165 C166 1.351 . S
C165 N168 1.368 . S
C165 H170 0.931 . S
C166 C165 1.351 . S
C166 N167 1.373 . S
C166 H194 0.930 . S
N167 C166 1.373 . S
N167 C169 1.340 . S
N168 C165 1.368 . S
N168 C169 1.321 . S
N168 Co171 2.135 . S
C169 N167 1.340 . S
C169 N168 1.321 . S
C169 H193 0.930 . S
H170 C165 0.931 . S
Co171 N168 2.135 . S
Co171 N174 2.121 . S
Co171 O179 2.055 . S
Co171 O182 2.039 . S
Co171 N185 2.140 . S
C172 O173 1.227 . S
C172 O182 1.265 . S
O173 C172 1.227 . S
N174 Co171 2.121 . S
N174 C176 1.375 . S
N174 C177 1.313 . S
C175 C176 1.338 . S
C175 N178 1.377 . S
C175 H195 0.930 . S
C176 N174 1.375 . S
C176 C175 1.338 . S
C176 H180 0.931 . S
C177 N174 1.313 . S
C177 N178 1.344 . S
C177 H181 0.930 . S
N178 C175 1.377 . S
N178 C177 1.344 . S
O179 Co171 2.055 . S
O179 C183 1.253 . S
H180 C176 0.931 . S
H181 C177 0.930 . S
O182 Co171 2.039 . S
O182 C172 1.265 . S
C183 O179 1.253 . S
C183 O184 1.227 . S
O184 C183 1.227 . S
N185 Co171 2.140 . S
N185 C188 1.346 . S
N185 C189 1.345 . S
C186 C187 1.387 . S
C186 C190 1.391 . S
C187 C186 1.387 . S
C187 C188 1.369 . S
C187 H196 0.929 . S
C188 N185 1.346 . S
C188 C187 1.369 . S
C188 H191 0.928 . S
C189 N185 1.345 . S
C189 C190 1.371 . S
C189 H192 0.931 . S
C190 C186 1.391 . S
C190 C189 1.371 . S
C190 H197 0.930 . S
H191 C188 0.928 . S
H192 C189 0.931 . S
H193 C169 0.930 . S
H194 C166 0.930 . S
H195 C175 0.930 . S
H196 C187 0.929 . S
H197 C190 0.930 . S
C198 C199 1.351 . S
C198 N201 1.368 . S
C198 H203 0.931 1_556 S
C199 C198 1.351 . S
C199 N200 1.373 . S
C199 H227 0.930 . S
N200 C199 1.373 . S
N200 C202 1.340 . S
N201 C198 1.368 . S
N201 C202 1.321 . S
N201 Co204 2.135 1_556 S
C202 N200 1.340 . S
C202 N201 1.321 . S
C202 H226 0.930 . S
H203 C198 0.931 1_554 S
Co204 N201 2.135 1_554 S
Co204 N207 2.121 . S
Co204 O212 2.055 . S
Co204 O215 2.039 1_554 S
Co204 N218 2.140 . S
C205 O206 1.227 . S
C205 O215 1.265 . S
O206 C205 1.227 . S
N207 Co204 2.121 . S
N207 C209 1.375 . S
N207 C210 1.313 . S
C208 C209 1.338 . S
C208 N211 1.377 . S
C208 H228 0.930 . S
C209 N207 1.375 . S
C209 C208 1.338 . S
C209 H213 0.931 . S
C210 N207 1.313 . S
C210 N211 1.344 . S
C210 H214 0.930 . S
N211 C208 1.377 . S
N211 C210 1.344 . S
O212 Co204 2.055 . S
O212 C216 1.253 . S
H213 C209 0.931 . S
H214 C210 0.930 . S
O215 Co204 2.039 1_556 S
O215 C205 1.265 . S
C216 O212 1.253 . S
C216 O217 1.227 . S
O217 C216 1.227 . S
N218 Co204 2.140 . S
N218 C221 1.346 1_554 S
N218 C222 1.345 . S
C219 C220 1.375 1_554 S
C219 C223 1.405 . S
C220 C219 1.375 1_556 S
C220 C221 1.369 . S
C220 H229 0.929 . S
C221 N218 1.346 1_556 S
C221 C220 1.369 . S
C221 H224 0.928 . S
C222 N218 1.345 . S
C222 C223 1.371 . S
C222 H225 0.931 . S
C223 C219 1.405 . S
C223 C222 1.371 . S
C223 H230 0.930 . S
H224 C221 0.928 . S
H225 C222 0.931 . S
H226 C202 0.930 . S
H227 C199 0.930 . S
H228 C208 0.930 . S
H229 C220 0.929 . S
H230 C223 0.930 . S
C231 C232 1.351 . S
C231 N234 1.368 . S
C231 H236 0.931 . S
C232 C231 1.351 . S
C232 N233 1.373 . S
C232 H260 0.930 . S
N233 C232 1.373 . S
N233 C235 1.340 . S
N234 C231 1.368 . S
N234 C235 1.321 . S
N234 Co237 2.135 . S
C235 N233 1.340 . S
C235 N234 1.321 . S
C235 H259 0.930 . S
H236 C231 0.931 . S
Co237 N234 2.135 . S
Co237 N240 2.121 . S
Co237 O245 2.055 . S
Co237 O248 2.039 . S
Co237 N251 2.140 . S
C238 O239 1.227 . S
C238 O248 1.265 . S
O239 C238 1.227 . S
N240 Co237 2.121 . S
N240 C242 1.375 . S
N240 C243 1.313 . S
C241 C242 1.338 . S
C241 N244 1.377 . S
C241 H261 0.930 . S
C242 N240 1.375 . S
C242 C241 1.338 . S
C242 H246 0.931 . S
C243 N240 1.313 . S
C243 N244 1.344 . S
C243 H247 0.930 . S
N244 C241 1.377 . S
N244 C243 1.344 . S
O245 Co237 2.055 . S
O245 C249 1.253 . S
H246 C242 0.931 . S
H247 C243 0.930 . S
O248 Co237 2.039 . S
O248 C238 1.265 . S
C249 O245 1.253 . S
C249 O250 1.227 . S
O250 C249 1.227 . S
N251 Co237 2.140 . S
N251 C254 1.346 . S
N251 C255 1.345 . S
C252 C253 1.387 . S
C252 C256 1.391 . S
C253 C252 1.387 . S
C253 C254 1.369 . S
C253 H262 0.929 . S
C254 N251 1.346 . S
C254 C253 1.369 . S
C254 H257 0.928 . S
C255 N251 1.345 . S
C255 C256 1.371 . S
C255 H258 0.931 . S
C256 C252 1.391 . S
C256 C255 1.371 . S
C256 H263 0.930 . S
H257 C254 0.928 . S
H258 C255 0.931 . S
H259 C235 0.930 . S
H260 C232 0.930 . S
H261 C241 0.930 . S
H262 C253 0.929 . S
H263 C256 0.930 . S
C264 C265 1.351 . S
C264 N267 1.368 . S
C264 H269 0.931 1_556 S
C265 C264 1.351 . S
C265 N266 1.373 . S
C265 H293 0.930 . S
N266 C265 1.373 . S
N266 C268 1.340 . S
N267 C264 1.368 . S
N267 C268 1.321 . S
N267 Co270 2.135 1_556 S
C268 N266 1.340 . S
C268 N267 1.321 . S
C268 H292 0.930 . S
H269 C264 0.931 1_554 S
Co270 N267 2.135 1_554 S
Co270 N273 2.121 . S
Co270 O278 2.055 . S
Co270 O281 2.039 1_554 S
Co270 N284 2.140 . S
C271 O272 1.227 . S
C271 O281 1.265 . S
O272 C271 1.227 . S
N273 Co270 2.121 . S
N273 C275 1.375 . S
N273 C276 1.313 . S
C274 C275 1.338 . S
C274 N277 1.377 . S
C274 H294 0.930 . S
C275 N273 1.375 . S
C275 C274 1.338 . S
C275 H279 0.931 . S
C276 N273 1.313 . S
C276 N277 1.344 . S
C276 H280 0.930 . S
N277 C274 1.377 . S
N277 C276 1.344 . S
O278 Co270 2.055 . S
O278 C282 1.253 . S
H279 C275 0.931 . S
H280 C276 0.930 . S
O281 Co270 2.039 1_556 S
O281 C271 1.265 . S
C282 O278 1.253 . S
C282 O283 1.227 . S
O283 C282 1.227 . S
N284 Co270 2.140 . S
N284 C287 1.346 1_554 S
N284 C288 1.345 . S
C285 C286 1.375 1_554 S
C285 C289 1.405 . S
C286 C285 1.375 1_556 S
C286 C287 1.369 . S
C286 H295 0.929 . S
C287 N284 1.346 1_556 S
C287 C286 1.369 . S
C287 H290 0.928 . S
C288 N284 1.345 . S
C288 C289 1.371 . S
C288 H291 0.931 . S
C289 C285 1.405 . S
C289 C288 1.371 . S
C289 H296 0.930 . S
H290 C287 0.928 . S
H291 C288 0.931 . S
H292 C268 0.930 . S
H293 C265 0.930 . S
H294 C274 0.930 . S
H295 C286 0.929 . S
H296 C289 0.930 . S
C297 C298 1.351 . S
C297 N300 1.368 . S
C297 H302 0.931 . S
C298 C297 1.351 . S
C298 N299 1.373 . S
C298 H326 0.930 . S
N299 C298 1.373 . S
N299 C301 1.340 . S
N300 C297 1.368 . S
N300 C301 1.321 . S
N300 Co303 2.135 . S
C301 N299 1.340 . S
C301 N300 1.321 . S
C301 H325 0.930 . S
H302 C297 0.931 . S
Co303 N300 2.135 . S
Co303 N306 2.121 . S
Co303 O311 2.055 . S
Co303 O314 2.039 . S
Co303 N317 2.140 . S
C304 O305 1.227 . S
C304 O314 1.265 . S
O305 C304 1.227 . S
N306 Co303 2.121 . S
N306 C308 1.375 . S
N306 C309 1.313 . S
C307 C308 1.338 . S
C307 N310 1.377 . S
C307 H327 0.930 . S
C308 N306 1.375 . S
C308 C307 1.338 . S
C308 H312 0.931 . S
C309 N306 1.313 . S
C309 N310 1.344 . S
C309 H313 0.930 . S
N310 C307 1.377 . S
N310 C309 1.344 . S
O311 Co303 2.055 . S
O311 C315 1.253 . S
H312 C308 0.931 . S
H313 C309 0.930 . S
O314 Co303 2.039 . S
O314 C304 1.265 . S
C315 O311 1.253 . S
C315 O316 1.227 . S
O316 C315 1.227 . S
N317 Co303 2.140 . S
N317 C320 1.346 . S
N317 C321 1.345 . S
C318 C319 1.387 . S
C318 C322 1.391 . S
C319 C318 1.387 . S
C319 C320 1.369 . S
C319 H328 0.929 . S
C320 N317 1.346 . S
C320 C319 1.369 . S
C320 H323 0.928 . S
C321 N317 1.345 . S
C321 C322 1.371 . S
C321 H324 0.931 . S
C322 C318 1.391 . S
C322 C321 1.371 . S
C322 H329 0.930 . S
H323 C320 0.928 . S
H324 C321 0.931 . S
H325 C301 0.930 . S
H326 C298 0.930 . S
H327 C307 0.930 . S
H328 C319 0.929 . S
H329 C322 0.930 . S
C330 C331 1.351 . S
C330 N333 1.368 . S
C330 H335 0.931 . S
C331 C330 1.351 . S
C331 N332 1.373 . S
C331 H359 0.930 . S
N332 C331 1.373 . S
N332 C334 1.340 . S
N333 C330 1.368 . S
N333 C334 1.321 . S
N333 Co336 2.135 . S
C334 N332 1.340 . S
C334 N333 1.321 . S
C334 H358 0.930 . S
H335 C330 0.931 . S
Co336 N333 2.135 . S
Co336 N339 2.121 . S
Co336 O344 2.055 . S
Co336 O347 2.039 . S
Co336 N350 2.140 . S
C337 O338 1.227 . S
C337 O347 1.265 . S
O338 C337 1.227 . S
N339 Co336 2.121 . S
N339 C341 1.375 . S
N339 C342 1.313 . S
C340 C341 1.338 . S
C340 N343 1.377 . S
C340 H360 0.930 . S
C341 N339 1.375 . S
C341 C340 1.338 . S
C341 H345 0.931 . S
C342 N339 1.313 . S
C342 N343 1.344 . S
C342 H346 0.930 . S
N343 C340 1.377 . S
N343 C342 1.344 . S
O344 Co336 2.055 . S
O344 C348 1.253 . S
H345 C341 0.931 . S
H346 C342 0.930 . S
O347 Co336 2.039 . S
O347 C337 1.265 . S
C348 O344 1.253 . S
C348 O349 1.227 . S
O349 C348 1.227 . S
N350 Co336 2.140 . S
N350 C353 1.346 . S
N350 C354 1.345 . S
C351 C352 1.387 . S
C351 C355 1.391 . S
C352 C351 1.387 . S
C352 C353 1.369 . S
C352 H361 0.929 . S
C353 N350 1.346 . S
C353 C352 1.369 . S
C353 H356 0.928 . S
C354 N350 1.345 . S
C354 C355 1.371 . S
C354 H357 0.931 . S
C355 C351 1.391 . S
C355 C354 1.371 . S
C355 H362 0.930 . S
H356 C353 0.928 . S
H357 C354 0.931 . S
H358 C334 0.930 . S
H359 C331 0.930 . S
H360 C340 0.930 . S
H361 C352 0.929 . S
H362 C355 0.930 . S
C363 C364 1.351 . S
C363 N366 1.368 . S
C363 H368 0.931 . S
C364 C363 1.351 . S
C364 N365 1.373 . S
C364 H392 0.930 . S
N365 C364 1.373 . S
N365 C367 1.340 . S
N366 C363 1.368 . S
N366 C367 1.321 . S
N366 Co369 2.135 . S
C367 N365 1.340 . S
C367 N366 1.321 . S
C367 H391 0.930 . S
H368 C363 0.931 . S
Co369 N366 2.135 . S
Co369 N372 2.121 . S
Co369 O377 2.055 . S
Co369 O380 2.039 . S
Co369 N383 2.140 . S
C370 O371 1.227 . S
C370 O380 1.265 . S
O371 C370 1.227 . S
N372 Co369 2.121 . S
N372 C374 1.375 . S
N372 C375 1.313 . S
C373 C374 1.338 . S
C373 N376 1.377 . S
C373 H393 0.930 . S
C374 N372 1.375 . S
C374 C373 1.338 . S
C374 H378 0.931 . S
C375 N372 1.313 . S
C375 N376 1.344 . S
C375 H379 0.930 . S
N376 C373 1.377 . S
N376 C375 1.344 . S
O377 Co369 2.055 . S
O377 C381 1.253 . S
H378 C374 0.931 . S
H379 C375 0.930 . S
O380 Co369 2.039 . S
O380 C370 1.265 . S
C381 O377 1.253 . S
C381 O382 1.227 . S
O382 C381 1.227 . S
N383 Co369 2.140 . S
N383 C386 1.346 . S
N383 C387 1.345 . S
C384 C385 1.387 . S
C384 C388 1.391 . S
C385 C384 1.387 . S
C385 C386 1.369 . S
C385 H394 0.929 . S
C386 N383 1.346 . S
C386 C385 1.369 . S
C386 H389 0.928 . S
C387 N383 1.345 . S
C387 C388 1.371 . S
C387 H390 0.931 . S
C388 C384 1.391 . S
C388 C387 1.371 . S
C388 H395 0.930 . S
H389 C386 0.928 . S
H390 C387 0.931 . S
H391 C367 0.930 . S
H392 C364 0.930 . S
H393 C373 0.930 . S
H394 C385 0.929 . S
H395 C388 0.930 . S
C396 C397 1.351 . S
C396 N399 1.368 . S
C396 H401 0.931 . S
C397 C396 1.351 . S
C397 N398 1.373 . S
C397 H425 0.930 . S
N398 C397 1.373 . S
N398 C400 1.340 . S
N399 C396 1.368 . S
N399 C400 1.321 . S
N399 Co402 2.135 . S
C400 N398 1.340 . S
C400 N399 1.321 . S
C400 H424 0.930 . S
H401 C396 0.931 . S
Co402 N399 2.135 . S
Co402 N405 2.121 . S
Co402 O410 2.055 . S
Co402 O413 2.039 . S
Co402 N416 2.140 . S
C403 O404 1.227 . S
C403 O413 1.265 . S
O404 C403 1.227 . S
N405 Co402 2.121 . S
N405 C407 1.375 . S
N405 C408 1.313 . S
C406 C407 1.338 . S
C406 N409 1.377 . S
C406 H426 0.930 . S
C407 N405 1.375 . S
C407 C406 1.338 . S
C407 H411 0.931 . S
C408 N405 1.313 . S
C408 N409 1.344 . S
C408 H412 0.930 . S
N409 C406 1.377 . S
N409 C408 1.344 . S
O410 Co402 2.055 . S
O410 C414 1.253 . S
H411 C407 0.931 . S
H412 C408 0.930 . S
O413 Co402 2.039 . S
O413 C403 1.265 . S
C414 O410 1.253 . S
C414 O415 1.227 . S
O415 C414 1.227 . S
N416 Co402 2.140 . S
N416 C419 1.346 . S
N416 C420 1.345 . S
C417 C418 1.387 . S
C417 C421 1.391 . S
C418 C417 1.387 . S
C418 C419 1.369 . S
C418 H427 0.929 . S
C419 N416 1.346 . S
C419 C418 1.369 . S
C419 H422 0.928 . S
C420 N416 1.345 . S
C420 C421 1.371 . S
C420 H423 0.931 . S
C421 C417 1.391 . S
C421 C420 1.371 . S
C421 H428 0.930 . S
H422 C419 0.928 . S
H423 C420 0.931 . S
H424 C400 0.930 . S
H425 C397 0.930 . S
H426 C406 0.930 . S
H427 C418 0.929 . S
H428 C421 0.930 . S
C429 C430 1.351 . S
C429 N432 1.368 . S
C429 H434 0.931 . S
C430 C429 1.351 . S
C430 N431 1.373 . S
C430 H458 0.930 . S
N431 C430 1.373 . S
N431 C433 1.340 . S
N432 C429 1.368 . S
N432 C433 1.321 . S
N432 Co435 2.135 . S
C433 N431 1.340 . S
C433 N432 1.321 . S
C433 H457 0.930 . S
H434 C429 0.931 . S
Co435 N432 2.135 . S
Co435 N438 2.121 . S
Co435 O443 2.055 . S
Co435 O446 2.039 . S
Co435 N449 2.140 . S
C436 O437 1.227 . S
C436 O446 1.265 . S
O437 C436 1.227 . S
N438 Co435 2.121 . S
N438 C440 1.375 . S
N438 C441 1.313 . S
C439 C440 1.338 . S
C439 N442 1.377 . S
C439 H459 0.930 . S
C440 N438 1.375 . S
C440 C439 1.338 . S
C440 H444 0.931 . S
C441 N438 1.313 . S
C441 N442 1.344 . S
C441 H445 0.930 . S
N442 C439 1.377 . S
N442 C441 1.344 . S
O443 Co435 2.055 . S
O443 C447 1.253 . S
H444 C440 0.931 . S
H445 C441 0.930 . S
O446 Co435 2.039 . S
O446 C436 1.265 . S
C447 O443 1.253 . S
C447 O448 1.227 . S
O448 C447 1.227 . S
N449 Co435 2.140 . S
N449 C452 1.346 . S
N449 C453 1.345 . S
C450 C451 1.387 . S
C450 C454 1.391 . S
C451 C450 1.387 . S
C451 C452 1.369 . S
C451 H460 0.929 . S
C452 N449 1.346 . S
C452 C451 1.369 . S
C452 H455 0.928 . S
C453 N449 1.345 . S
C453 C454 1.371 . S
C453 H456 0.931 . S
C454 C450 1.391 . S
C454 C453 1.371 . S
C454 H461 0.930 . S
H455 C452 0.928 . S
H456 C453 0.931 . S
H457 C433 0.930 . S
H458 C430 0.930 . S
H459 C439 0.930 . S
H460 C451 0.929 . S
H461 C454 0.930 . S
C462 C463 1.351 . S
C462 N465 1.368 . S
C462 H467 0.931 . S
C463 C462 1.351 . S
C463 N464 1.373 . S
C463 H491 0.930 . S
N464 C463 1.373 . S
N464 C466 1.340 . S
N465 C462 1.368 . S
N465 C466 1.321 . S
N465 Co468 2.135 . S
C466 N464 1.340 . S
C466 N465 1.321 . S
C466 H490 0.930 . S
H467 C462 0.931 . S
Co468 N465 2.135 . S
Co468 N471 2.121 . S
Co468 O476 2.054 . S
Co468 O479 2.039 . S
Co468 N482 2.140 . S
C469 O470 1.227 . S
C469 O479 1.265 . S
O470 C469 1.227 . S
N471 Co468 2.121 . S
N471 C473 1.375 . S
N471 C474 1.313 1_554 S
C472 C473 1.338 1_556 S
C472 N475 1.377 . S
C472 H492 0.930 . S
C473 N471 1.375 . S
C473 C472 1.338 1_554 S
C473 H477 0.931 . S
C474 N471 1.313 1_556 S
C474 N475 1.344 . S
C474 H478 0.930 . S
N475 C472 1.377 . S
N475 C474 1.344 . S
O476 Co468 2.054 . S
O476 C480 1.253 1_554 S
H477 C473 0.931 . S
H478 C474 0.930 . S
O479 Co468 2.039 . S
O479 C469 1.265 . S
C480 O476 1.253 1_556 S
C480 O481 1.227 . S
O481 C480 1.227 . S
N482 Co468 2.140 . S
N482 C485 1.346 . S
N482 C486 1.345 . S
C483 C484 1.387 . S
C483 C487 1.391 . S
C484 C483 1.387 . S
C484 C485 1.369 . S
C484 H493 0.929 . S
C485 N482 1.346 . S
C485 C484 1.369 . S
C485 H488 0.928 . S
C486 N482 1.345 . S
C486 C487 1.371 . S
C486 H489 0.931 1_554 S
C487 C483 1.391 . S
C487 C486 1.371 . S
C487 H494 0.930 1_554 S
H488 C485 0.928 . S
H489 C486 0.931 1_556 S
H490 C466 0.930 . S
H491 C463 0.930 . S
H492 C472 0.930 . S
H493 C484 0.929 . S
H494 C487 0.930 1_556 S
C495 C496 1.351 . S
C495 N498 1.368 . S
C495 H500 0.931 . S
C496 C495 1.351 . S
C496 N497 1.373 . S
C496 H524 0.930 . S
N497 C496 1.373 . S
N497 C499 1.340 . S
N498 C495 1.368 . S
N498 C499 1.321 . S
N498 Co501 2.135 . S
C499 N497 1.340 . S
C499 N498 1.321 . S
C499 H523 0.930 . S
H500 C495 0.931 . S
Co501 N498 2.135 . S
Co501 N504 2.121 . S
Co501 O509 2.055 . S
Co501 O512 2.039 . S
Co501 N515 2.140 . S
C502 O503 1.227 . S
C502 O512 1.265 . S
O503 C502 1.227 . S
N504 Co501 2.121 . S
N504 C506 1.375 . S
N504 C507 1.313 . S
C505 C506 1.338 . S
C505 N508 1.377 . S
C505 H525 0.930 . S
C506 N504 1.375 . S
C506 C505 1.338 . S
C506 H510 0.931 . S
C507 N504 1.313 . S
C507 N508 1.344 . S
C507 H511 0.930 . S
N508 C505 1.377 . S
N508 C507 1.344 . S
O509 Co501 2.055 . S
O509 C513 1.253 . S
H510 C506 0.931 . S
H511 C507 0.930 . S
O512 Co501 2.039 . S
O512 C502 1.265 . S
C513 O509 1.253 . S
C513 O514 1.227 . S
O514 C513 1.227 . S
N515 Co501 2.140 . S
N515 C518 1.346 . S
N515 C519 1.345 . S
C516 C517 1.387 . S
C516 C520 1.391 . S
C517 C516 1.387 . S
C517 C518 1.369 . S
C517 H526 0.929 . S
C518 N515 1.346 . S
C518 C517 1.369 . S
C518 H521 0.928 . S
C519 N515 1.345 . S
C519 C520 1.371 . S
C519 H522 0.931 . S
C520 C516 1.391 . S
C520 C519 1.371 . S
C520 H527 0.930 . S
H521 C518 0.928 . S
H522 C519 0.931 . S
H523 C499 0.930 . S
H524 C496 0.930 . S
H525 C505 0.930 . S
H526 C517 0.929 . S
H527 C520 0.930 . S
C528 C529 1.351 . S
C528 N531 1.368 . S
C528 H533 0.931 . S
C529 C528 1.351 . S
C529 N530 1.373 . S
C529 H557 0.930 . S
N530 C529 1.373 . S
N530 C532 1.340 . S
N531 C528 1.368 . S
N531 C532 1.321 . S
N531 Co534 2.135 . S
C532 N530 1.340 . S
C532 N531 1.321 . S
C532 H556 0.930 . S
H533 C528 0.931 . S
Co534 N531 2.135 . S
Co534 N537 2.121 . S
Co534 O542 2.055 . S
Co534 O545 2.039 . S
Co534 N548 2.140 . S
C535 O536 1.227 . S
C535 O545 1.265 . S
O536 C535 1.227 . S
N537 Co534 2.121 . S
N537 C539 1.375 . S
N537 C540 1.313 . S
C538 C539 1.338 . S
C538 N541 1.377 . S
C538 H558 0.930 . S
C539 N537 1.375 . S
C539 C538 1.338 . S
C539 H543 0.931 . S
C540 N537 1.313 . S
C540 N541 1.344 . S
C540 H544 0.930 . S
N541 C538 1.377 . S
N541 C540 1.344 . S
O542 Co534 2.055 . S
O542 C546 1.253 . S
H543 C539 0.931 . S
H544 C540 0.930 . S
O545 Co534 2.039 . S
O545 C535 1.265 . S
C546 O542 1.253 . S
C546 O547 1.227 . S
O547 C546 1.227 . S
N548 Co534 2.140 . S
N548 C551 1.346 . S
N548 C552 1.345 . S
C549 C550 1.387 . S
C549 C553 1.391 . S
C550 C549 1.387 . S
C550 C551 1.369 . S
C550 H559 0.929 . S
C551 N548 1.346 . S
C551 C550 1.369 . S
C551 H554 0.928 . S
C552 N548 1.345 . S
C552 C553 1.371 . S
C552 H555 0.931 . S
C553 C549 1.391 . S
C553 C552 1.371 . S
C553 H560 0.930 . S
H554 C551 0.928 . S
H555 C552 0.931 . S
H556 C532 0.930 . S
H557 C529 0.930 . S
H558 C538 0.930 . S
H559 C550 0.929 . S
H560 C553 0.930 . S
C561 C562 1.351 . S
C561 N564 1.368 . S
C561 H566 0.931 . S
C562 C561 1.351 . S
C562 N563 1.373 . S
C562 H590 0.930 . S
N563 C562 1.373 . S
N563 C565 1.340 . S
N564 C561 1.368 . S
N564 C565 1.321 . S
N564 Co567 2.135 . S
C565 N563 1.340 . S
C565 N564 1.321 . S
C565 H589 0.930 . S
H566 C561 0.931 . S
Co567 N564 2.135 . S
Co567 N570 2.121 . S
Co567 O575 2.055 . S
Co567 O578 2.039 . S
Co567 N581 2.140 . S
C568 O569 1.227 . S
C568 O578 1.265 . S
O569 C568 1.227 . S
N570 Co567 2.121 . S
N570 C572 1.375 . S
N570 C573 1.313 . S
C571 C572 1.338 . S
C571 N574 1.377 . S
C571 H591 0.930 . S
C572 N570 1.375 . S
C572 C571 1.338 . S
C572 H576 0.931 . S
C573 N570 1.313 . S
C573 N574 1.344 . S
C573 H577 0.930 . S
N574 C571 1.377 . S
N574 C573 1.344 . S
O575 Co567 2.055 . S
O575 C579 1.253 . S
H576 C572 0.931 . S
H577 C573 0.930 . S
O578 Co567 2.039 . S
O578 C568 1.265 . S
C579 O575 1.253 . S
C579 O580 1.227 . S
O580 C579 1.227 . S
N581 Co567 2.140 . S
N581 C584 1.346 . S
N581 C585 1.345 . S
C582 C583 1.387 . S
C582 C586 1.391 . S
C583 C582 1.387 . S
C583 C584 1.369 . S
C583 H592 0.929 . S
C584 N581 1.346 . S
C584 C583 1.369 . S
C584 H587 0.928 . S
C585 N581 1.345 . S
C585 C586 1.371 . S
C585 H588 0.931 . S
C586 C582 1.391 . S
C586 C585 1.371 . S
C586 H593 0.930 . S
H587 C584 0.928 . S
H588 C585 0.931 . S
H589 C565 0.930 . S
H590 C562 0.930 . S
H591 C571 0.930 . S
H592 C583 0.929 . S
H593 C586 0.930 . S
C594 C595 1.351 . S
C594 N597 1.368 . S
C594 H599 0.931 . S
C595 C594 1.351 . S
C595 N596 1.373 . S
C595 H623 0.930 . S
N596 C595 1.373 . S
N596 C598 1.340 . S
N597 C594 1.368 . S
N597 C598 1.321 . S
N597 Co600 2.135 . S
C598 N596 1.340 . S
C598 N597 1.321 . S
C598 H622 0.930 . S
H599 C594 0.931 . S
Co600 N597 2.135 . S
Co600 N603 2.121 1_554 S
Co600 O608 2.055 . S
Co600 O611 2.039 . S
Co600 N614 2.140 . S
C601 O602 1.227 . S
C601 O611 1.265 . S
O602 C601 1.227 . S
N603 Co600 2.121 1_556 S
N603 C605 1.375 1_556 S
N603 C606 1.313 . S
C604 C605 1.338 1_556 S
C604 N607 1.377 . S
C604 H624 0.930 . S
C605 N603 1.375 1_554 S
C605 C604 1.338 1_554 S
C605 H609 0.931 . S
C606 N603 1.313 . S
C606 N607 1.344 . S
C606 H610 0.930 . S
N607 C604 1.377 . S
N607 C606 1.344 . S
O608 Co600 2.055 . S
O608 C612 1.253 1_554 S
H609 C605 0.931 . S
H610 C606 0.930 . S
O611 Co600 2.039 . S
O611 C601 1.265 . S
C612 O608 1.253 1_556 S
C612 O613 1.227 . S
O613 C612 1.227 . S
N614 Co600 2.140 . S
N614 C617 1.346 . S
N614 C618 1.345 . S
C615 C616 1.387 . S
C615 C619 1.391 . S
C616 C615 1.387 . S
C616 C617 1.369 . S
C616 H625 0.929 . S
C617 N614 1.346 . S
C617 C616 1.369 . S
C617 H620 0.928 . S
C618 N614 1.345 . S
C618 C619 1.371 . S
C618 H621 0.931 1_554 S
C619 C615 1.391 . S
C619 C618 1.371 . S
C619 H626 0.930 1_554 S
H620 C617 0.928 . S
H621 C618 0.931 1_556 S
H622 C598 0.930 . S
H623 C595 0.930 . S
H624 C604 0.930 . S
H625 C616 0.929 . S
H626 C619 0.930 1_556 S
C627 C628 1.351 . S
C627 N630 1.368 . S
C627 H632 0.931 . S
C628 C627 1.351 . S
C628 N629 1.373 . S
C628 H656 0.930 . S
N629 C628 1.373 . S
N629 C631 1.340 . S
N630 C627 1.368 . S
N630 C631 1.321 . S
N630 Co633 2.135 . S
C631 N629 1.340 . S
C631 N630 1.321 . S
C631 H655 0.930 . S
H632 C627 0.931 . S
Co633 N630 2.135 . S
Co633 N636 2.121 . S
Co633 O641 2.055 . S
Co633 O644 2.039 . S
Co633 N647 2.140 . S
C634 O635 1.227 . S
C634 O644 1.265 . S
O635 C634 1.227 . S
N636 Co633 2.121 . S
N636 C638 1.375 . S
N636 C639 1.313 . S
C637 C638 1.338 . S
C637 N640 1.377 . S
C637 H657 0.930 . S
C638 N636 1.375 . S
C638 C637 1.338 . S
C638 H642 0.931 . S
C639 N636 1.313 . S
C639 N640 1.344 . S
C639 H643 0.930 . S
N640 C637 1.377 . S
N640 C639 1.344 . S
O641 Co633 2.055 . S
O641 C645 1.253 . S
H642 C638 0.931 . S
H643 C639 0.930 . S
O644 Co633 2.039 . S
O644 C634 1.265 . S
C645 O641 1.253 . S
C645 O646 1.227 . S
O646 C645 1.227 . S
N647 Co633 2.140 . S
N647 C650 1.346 . S
N647 C651 1.345 . S
C648 C649 1.387 . S
C648 C652 1.391 . S
C649 C648 1.387 . S
C649 C650 1.369 . S
C649 H658 0.929 . S
C650 N647 1.346 . S
C650 C649 1.369 . S
C650 H653 0.928 . S
C651 N647 1.345 . S
C651 C652 1.371 . S
C651 H654 0.931 . S
C652 C648 1.391 . S
C652 C651 1.371 . S
C652 H659 0.930 . S
H653 C650 0.928 . S
H654 C651 0.931 . S
H655 C631 0.930 . S
H656 C628 0.930 . S
H657 C637 0.930 . S
H658 C649 0.929 . S
H659 C652 0.930 . S
C660 C661 1.351 . S
C660 N663 1.368 . S
C660 H665 0.931 1_556 S
C661 C660 1.351 . S
C661 N662 1.373 . S
C661 H689 0.930 . S
N662 C661 1.373 . S
N662 C664 1.340 . S
N663 C660 1.368 . S
N663 C664 1.321 . S
N663 Co666 2.135 1_556 S
C664 N662 1.340 . S
C664 N663 1.321 . S
C664 H688 0.930 . S
H665 C660 0.931 1_554 S
Co666 N663 2.135 1_554 S
Co666 N669 2.121 . S
Co666 O674 2.055 . S
Co666 O677 2.039 1_554 S
Co666 N680 2.140 . S
C667 O668 1.227 . S
C667 O677 1.265 . S
O668 C667 1.227 . S
N669 Co666 2.121 . S
N669 C671 1.375 . S
N669 C672 1.313 . S
C670 C671 1.338 . S
C670 N673 1.377 . S
C670 H690 0.930 . S
C671 N669 1.375 . S
C671 C670 1.338 . S
C671 H675 0.931 . S
C672 N669 1.313 . S
C672 N673 1.344 . S
C672 H676 0.930 . S
N673 C670 1.377 . S
N673 C672 1.344 . S
O674 Co666 2.055 . S
O674 C678 1.253 . S
H675 C671 0.931 . S
H676 C672 0.930 . S
O677 Co666 2.039 1_556 S
O677 C667 1.265 . S
C678 O674 1.253 . S
C678 O679 1.227 . S
O679 C678 1.227 . S
N680 Co666 2.140 . S
N680 C683 1.346 1_554 S
N680 C684 1.345 . S
C681 C682 1.375 1_554 S
C681 C685 1.405 . S
C682 C681 1.375 1_556 S
C682 C683 1.369 . S
C682 H691 0.929 . S
C683 N680 1.346 1_556 S
C683 C682 1.369 . S
C683 H686 0.928 . S
C684 N680 1.345 . S
C684 C685 1.371 . S
C684 H687 0.931 . S
C685 C681 1.405 . S
C685 C684 1.371 . S
C685 H692 0.930 . S
H686 C683 0.928 . S
H687 C684 0.931 . S
H688 C664 0.930 . S
H689 C661 0.930 . S
H690 C670 0.930 . S
H691 C682 0.929 . S
H692 C685 0.930 . S
C693 C694 1.351 . S
C693 N696 1.368 . S
C693 H698 0.931 . S
C694 C693 1.351 . S
C694 N695 1.373 . S
C694 H722 0.930 . S
N695 C694 1.373 . S
N695 C697 1.340 . S
N696 C693 1.368 . S
N696 C697 1.321 . S
N696 Co699 2.135 . S
C697 N695 1.340 . S
C697 N696 1.321 . S
C697 H721 0.930 . S
H698 C693 0.931 . S
Co699 N696 2.135 . S
Co699 N702 2.121 . S
Co699 O707 2.055 . S
Co699 O710 2.039 . S
Co699 N713 2.140 . S
C700 O701 1.227 . S
C700 O710 1.265 . S
O701 C700 1.227 . S
N702 Co699 2.121 . S
N702 C704 1.375 . S
N702 C705 1.313 . S
C703 C704 1.338 . S
C703 N706 1.377 . S
C703 H723 0.930 . S
C704 N702 1.375 . S
C704 C703 1.338 . S
C704 H708 0.931 . S
C705 N702 1.313 . S
C705 N706 1.344 . S
C705 H709 0.930 . S
N706 C703 1.377 . S
N706 C705 1.344 . S
O707 Co699 2.055 . S
O707 C711 1.253 . S
H708 C704 0.931 . S
H709 C705 0.930 . S
O710 Co699 2.039 . S
O710 C700 1.265 . S
C711 O707 1.253 . S
C711 O712 1.227 . S
O712 C711 1.227 . S
N713 Co699 2.140 . S
N713 C716 1.346 . S
N713 C717 1.345 . S
C714 C715 1.387 . S
C714 C718 1.391 . S
C715 C714 1.387 . S
C715 C716 1.369 . S
C715 H724 0.929 . S
C716 N713 1.346 . S
C716 C715 1.369 . S
C716 H719 0.928 . S
C717 N713 1.345 . S
C717 C718 1.371 . S
C717 H720 0.931 . S
C718 C714 1.391 . S
C718 C717 1.371 . S
C718 H725 0.930 . S
H719 C716 0.928 . S
H720 C717 0.931 . S
H721 C697 0.930 . S
H722 C694 0.930 . S
H723 C703 0.930 . S
H724 C715 0.929 . S
H725 C718 0.930 . S
C726 C727 1.351 . S
C726 N729 1.368 . S
C726 H731 0.931 . S
C727 C726 1.351 . S
C727 N728 1.373 . S
C727 H755 0.930 . S
N728 C727 1.373 . S
N728 C730 1.340 . S
N729 C726 1.368 . S
N729 C730 1.321 . S
N729 Co732 2.135 . S
C730 N728 1.340 . S
C730 N729 1.321 . S
C730 H754 0.930 . S
H731 C726 0.931 . S
Co732 N729 2.135 . S
Co732 N735 2.121 . S
Co732 O740 2.055 . S
Co732 O743 2.039 . S
Co732 N746 2.140 . S
C733 O734 1.227 . S
C733 O743 1.265 . S
O734 C733 1.227 . S
N735 Co732 2.121 . S
N735 C737 1.375 . S
N735 C738 1.313 . S
C736 C737 1.338 . S
C736 N739 1.377 . S
C736 H756 0.930 . S
C737 N735 1.375 . S
C737 C736 1.338 . S
C737 H741 0.931 . S
C738 N735 1.313 . S
C738 N739 1.344 . S
C738 H742 0.930 . S
N739 C736 1.377 . S
N739 C738 1.344 . S
O740 Co732 2.055 . S
O740 C744 1.253 . S
H741 C737 0.931 . S
H742 C738 0.930 . S
O743 Co732 2.039 . S
O743 C733 1.265 . S
C744 O740 1.253 . S
C744 O745 1.227 . S
O745 C744 1.227 . S
N746 Co732 2.140 . S
N746 C749 1.346 . S
N746 C750 1.345 . S
C747 C748 1.387 . S
C747 C751 1.391 . S
C748 C747 1.387 . S
C748 C749 1.369 . S
C748 H757 0.929 . S
C749 N746 1.346 . S
C749 C748 1.369 . S
C749 H752 0.928 . S
C750 N746 1.345 . S
C750 C751 1.371 . S
C750 H753 0.931 . S
C751 C747 1.391 . S
C751 C750 1.371 . S
C751 H758 0.930 . S
H752 C749 0.928 . S
H753 C750 0.931 . S
H754 C730 0.930 . S
H755 C727 0.930 . S
H756 C736 0.930 . S
H757 C748 0.929 . S
H758 C751 0.930 . S
C759 C760 1.351 . S
C759 N762 1.368 . S
C759 H764 0.931 . S
C760 C759 1.351 . S
C760 N761 1.373 . S
C760 H788 0.930 . S
N761 C760 1.373 . S
N761 C763 1.340 . S
N762 C759 1.368 . S
N762 C763 1.321 . S
N762 Co765 2.135 . S
C763 N761 1.340 . S
C763 N762 1.321 . S
C763 H787 0.930 . S
H764 C759 0.931 . S
Co765 N762 2.135 . S
Co765 N768 2.121 . S
Co765 O773 2.055 . S
Co765 O776 2.039 . S
Co765 N779 2.140 . S
C766 O767 1.227 . S
C766 O776 1.265 . S
O767 C766 1.227 . S
N768 Co765 2.121 . S
N768 C770 1.375 . S
N768 C771 1.313 . S
C769 C770 1.338 . S
C769 N772 1.377 . S
C769 H789 0.930 . S
C770 N768 1.375 . S
C770 C769 1.338 . S
C770 H774 0.931 . S
C771 N768 1.313 . S
C771 N772 1.344 . S
C771 H775 0.930 . S
N772 C769 1.377 . S
N772 C771 1.344 . S
O773 Co765 2.055 . S
O773 C777 1.253 . S
H774 C770 0.931 . S
H775 C771 0.930 . S
O776 Co765 2.039 . S
O776 C766 1.265 . S
C777 O773 1.253 . S
C777 O778 1.227 . S
O778 C777 1.227 . S
N779 Co765 2.140 . S
N779 C782 1.346 . S
N779 C783 1.345 . S
C780 C781 1.387 . S
C780 C784 1.391 . S
C781 C780 1.387 . S
C781 C782 1.369 . S
C781 H790 0.929 . S
C782 N779 1.346 . S
C782 C781 1.369 . S
C782 H785 0.928 . S
C783 N779 1.345 . S
C783 C784 1.371 . S
C783 H786 0.931 . S
C784 C780 1.391 . S
C784 C783 1.371 . S
C784 H791 0.930 . S
H785 C782 0.928 . S
H786 C783 0.931 . S
H787 C763 0.930 . S
H788 C760 0.930 . S
H789 C769 0.930 . S
H790 C781 0.929 . S
H791 C784 0.930 . S
C792 C793 1.351 . S
C792 N795 1.368 . S
C792 H797 0.931 . S
C793 C792 1.351 . S
C793 N794 1.373 . S
C793 H821 0.930 . S
N794 C793 1.373 . S
N794 C796 1.340 . S
N795 C792 1.368 . S
N795 C796 1.321 . S
N795 Co798 2.135 . S
C796 N794 1.340 . S
C796 N795 1.321 . S
C796 H820 0.930 . S
H797 C792 0.931 . S
Co798 N795 2.135 . S
Co798 N801 2.121 . S
Co798 O806 2.055 . S
Co798 O809 2.039 . S
Co798 N812 2.140 . S
C799 O800 1.227 . S
C799 O809 1.265 . S
O800 C799 1.227 . S
N801 Co798 2.121 . S
N801 C803 1.375 . S
N801 C804 1.313 . S
C802 C803 1.338 . S
C802 N805 1.377 . S
C802 H822 0.930 . S
C803 N801 1.375 . S
C803 C802 1.338 . S
C803 H807 0.931 . S
C804 N801 1.313 . S
C804 N805 1.344 . S
C804 H808 0.930 . S
N805 C802 1.377 . S
N805 C804 1.344 . S
O806 Co798 2.055 . S
O806 C810 1.253 . S
H807 C803 0.931 . S
H808 C804 0.930 . S
O809 Co798 2.039 . S
O809 C799 1.265 . S
C810 O806 1.253 . S
C810 O811 1.227 . S
O811 C810 1.227 . S
N812 Co798 2.140 . S
N812 C815 1.346 . S
N812 C816 1.345 . S
C813 C814 1.387 . S
C813 C817 1.391 . S
C814 C813 1.387 . S
C814 C815 1.369 . S
C814 H823 0.929 . S
C815 N812 1.346 . S
C815 C814 1.369 . S
C815 H818 0.928 . S
C816 N812 1.345 . S
C816 C817 1.371 . S
C816 H819 0.931 . S
C817 C813 1.391 . S
C817 C816 1.371 . S
C817 H824 0.930 . S
H818 C815 0.928 . S
H819 C816 0.931 . S
H820 C796 0.930 . S
H821 C793 0.930 . S
H822 C802 0.930 . S
H823 C814 0.929 . S
H824 C817 0.930 . S
C825 C826 1.351 . S
C825 N828 1.368 . S
C825 H830 0.931 . S
C826 C825 1.351 . S
C826 N827 1.373 . S
C826 H854 0.930 . S
N827 C826 1.373 . S
N827 C829 1.340 . S
N828 C825 1.368 . S
N828 C829 1.321 . S
N828 Co831 2.135 . S
C829 N827 1.340 . S
C829 N828 1.321 . S
C829 H853 0.930 . S
H830 C825 0.931 . S
Co831 N828 2.135 . S
Co831 N834 2.121 . S
Co831 O839 2.055 . S
Co831 O842 2.039 . S
Co831 N845 2.140 . S
C832 O833 1.227 . S
C832 O842 1.265 . S
O833 C832 1.227 . S
N834 Co831 2.121 . S
N834 C836 1.375 . S
N834 C837 1.313 . S
C835 C836 1.338 . S
C835 N838 1.377 . S
C835 H855 0.930 . S
C836 N834 1.375 . S
C836 C835 1.338 . S
C836 H840 0.931 . S
C837 N834 1.313 . S
C837 N838 1.344 . S
C837 H841 0.930 . S
N838 C835 1.377 . S
N838 C837 1.344 . S
O839 Co831 2.055 . S
O839 C843 1.253 . S
H840 C836 0.931 . S
H841 C837 0.930 . S
O842 Co831 2.039 . S
O842 C832 1.265 . S
C843 O839 1.253 . S
C843 O844 1.227 . S
O844 C843 1.227 . S
N845 Co831 2.140 . S
N845 C848 1.346 . S
N845 C849 1.345 . S
C846 C847 1.387 . S
C846 C850 1.391 . S
C847 C846 1.387 . S
C847 C848 1.369 . S
C847 H856 0.929 . S
C848 N845 1.346 . S
C848 C847 1.369 . S
C848 H851 0.928 . S
C849 N845 1.345 . S
C849 C850 1.371 . S
C849 H852 0.931 . S
C850 C846 1.391 . S
C850 C849 1.371 . S
C850 H857 0.930 . S
H851 C848 0.928 . S
H852 C849 0.931 . S
H853 C829 0.930 . S
H854 C826 0.930 . S
H855 C835 0.930 . S
H856 C847 0.929 . S
H857 C850 0.930 . S
C858 C859 1.351 . S
C858 N861 1.368 . S
C858 H863 0.931 1_556 S
C859 C858 1.351 . S
C859 N860 1.373 . S
C859 H887 0.930 . S
N860 C859 1.373 . S
N860 C862 1.340 . S
N861 C858 1.368 . S
N861 C862 1.321 . S
N861 Co864 2.135 1_556 S
C862 N860 1.340 . S
C862 N861 1.321 . S
C862 H886 0.930 . S
H863 C858 0.931 1_554 S
Co864 N861 2.135 1_554 S
Co864 N867 2.121 . S
Co864 O872 2.055 . S
Co864 O875 2.039 1_554 S
Co864 N878 2.140 . S
C865 O866 1.227 . S
C865 O875 1.265 . S
O866 C865 1.227 . S
N867 Co864 2.121 . S
N867 C869 1.375 . S
N867 C870 1.313 . S
C868 C869 1.338 . S
C868 N871 1.377 . S
C868 H888 0.930 . S
C869 N867 1.375 . S
C869 C868 1.338 . S
C869 H873 0.931 . S
C870 N867 1.313 . S
C870 N871 1.344 . S
C870 H874 0.930 . S
N871 C868 1.377 . S
N871 C870 1.344 . S
O872 Co864 2.055 . S
O872 C876 1.253 . S
H873 C869 0.931 . S
H874 C870 0.930 . S
O875 Co864 2.039 1_556 S
O875 C865 1.265 . S
C876 O872 1.253 . S
C876 O877 1.227 . S
O877 C876 1.227 . S
N878 Co864 2.140 . S
N878 C881 1.346 1_554 S
N878 C882 1.345 . S
C879 C880 1.375 1_554 S
C879 C883 1.405 . S
C880 C879 1.375 1_556 S
C880 C881 1.369 . S
C880 H889 0.929 . S
C881 N878 1.346 1_556 S
C881 C880 1.369 . S
C881 H884 0.928 . S
C882 N878 1.345 . S
C882 C883 1.371 . S
C882 H885 0.931 . S
C883 C879 1.405 . S
C883 C882 1.371 . S
C883 H890 0.930 . S
H884 C881 0.928 . S
H885 C882 0.931 . S
H886 C862 0.930 . S
H887 C859 0.930 . S
H888 C868 0.930 . S
H889 C880 0.929 . S
H890 C883 0.930 . S
C891 C892 1.351 . S
C891 N894 1.368 . S
C891 H896 0.931 . S
C892 C891 1.351 . S
C892 N893 1.373 . S
C892 H920 0.930 . S
N893 C892 1.373 . S
N893 C895 1.340 . S
N894 C891 1.368 . S
N894 C895 1.321 . S
N894 Co897 2.135 . S
C895 N893 1.340 . S
C895 N894 1.321 . S
C895 H919 0.930 . S
H896 C891 0.931 . S
Co897 N894 2.135 . S
Co897 N900 2.121 . S
Co897 O905 2.055 . S
Co897 O908 2.039 . S
Co897 N911 2.140 . S
C898 O899 1.227 . S
C898 O908 1.265 . S
O899 C898 1.227 . S
N900 Co897 2.121 . S
N900 C902 1.375 . S
N900 C903 1.313 . S
C901 C902 1.338 . S
C901 N904 1.377 . S
C901 H921 0.930 . S
C902 N900 1.375 . S
C902 C901 1.338 . S
C902 H906 0.931 . S
C903 N900 1.313 . S
C903 N904 1.344 . S
C903 H907 0.930 . S
N904 C901 1.377 . S
N904 C903 1.344 . S
O905 Co897 2.055 . S
O905 C909 1.253 . S
H906 C902 0.931 . S
H907 C903 0.930 . S
O908 Co897 2.039 . S
O908 C898 1.265 . S
C909 O905 1.253 . S
C909 O910 1.227 . S
O910 C909 1.227 . S
N911 Co897 2.140 . S
N911 C914 1.346 . S
N911 C915 1.345 . S
C912 C913 1.387 . S
C912 C916 1.391 . S
C913 C912 1.387 . S
C913 C914 1.369 . S
C913 H922 0.929 . S
C914 N911 1.346 . S
C914 C913 1.369 . S
C914 H917 0.928 . S
C915 N911 1.345 . S
C915 C916 1.371 . S
C915 H918 0.931 . S
C916 C912 1.391 . S
C916 C915 1.371 . S
C916 H923 0.930 . S
H917 C914 0.928 . S
H918 C915 0.931 . S
H919 C895 0.930 . S
H920 C892 0.930 . S
H921 C901 0.930 . S
H922 C913 0.929 . S
H923 C916 0.930 . S
C924 C925 1.351 . S
C924 N927 1.368 . S
C924 H929 0.931 . S
C925 C924 1.351 . S
C925 N926 1.373 . S
C925 H953 0.930 . S
N926 C925 1.373 . S
N926 C928 1.340 . S
N927 C924 1.368 . S
N927 C928 1.321 . S
N927 Co930 2.135 . S
C928 N926 1.340 . S
C928 N927 1.321 . S
C928 H952 0.930 . S
H929 C924 0.931 . S
Co930 N927 2.135 . S
Co930 N933 2.121 . S
Co930 O938 2.054 . S
Co930 O941 2.039 . S
Co930 N944 2.140 . S
C931 O932 1.227 . S
C931 O941 1.265 . S
O932 C931 1.227 . S
N933 Co930 2.121 . S
N933 C935 1.375 . S
N933 C936 1.313 1_554 S
C934 C935 1.338 1_556 S
C934 N937 1.377 . S
C934 H954 0.930 . S
C935 N933 1.375 . S
C935 C934 1.338 1_554 S
C935 H939 0.931 . S
C936 N933 1.313 1_556 S
C936 N937 1.344 . S
C936 H940 0.930 . S
N937 C934 1.377 . S
N937 C936 1.344 . S
O938 Co930 2.054 . S
O938 C942 1.253 1_554 S
H939 C935 0.931 . S
H940 C936 0.930 . S
O941 Co930 2.039 . S
O941 C931 1.265 . S
C942 O938 1.253 1_556 S
C942 O943 1.227 . S
O943 C942 1.227 . S
N944 Co930 2.140 . S
N944 C947 1.346 . S
N944 C948 1.345 . S
C945 C946 1.387 . S
C945 C949 1.391 . S
C946 C945 1.387 . S
C946 C947 1.369 . S
C946 H955 0.929 . S
C947 N944 1.346 . S
C947 C946 1.369 . S
C947 H950 0.928 . S
C948 N944 1.345 . S
C948 C949 1.371 . S
C948 H951 0.931 1_554 S
C949 C945 1.391 . S
C949 C948 1.371 . S
C949 H956 0.930 1_554 S
H950 C947 0.928 . S
H951 C948 0.931 1_556 S
H952 C928 0.930 . S
H953 C925 0.930 . S
H954 C934 0.930 . S
H955 C946 0.929 . S
H956 C949 0.930 1_556 S
C957 C958 1.351 . S
C957 N960 1.368 . S
C957 H962 0.931 . S
C958 C957 1.351 . S
C958 N959 1.373 . S
C958 H986 0.930 . S
N959 C958 1.373 . S
N959 C961 1.340 . S
N960 C957 1.368 . S
N960 C961 1.321 . S
N960 Co963 2.135 . S
C961 N959 1.340 . S
C961 N960 1.321 . S
C961 H985 0.930 . S
H962 C957 0.931 . S
Co963 N960 2.135 . S
Co963 N966 2.121 . S
Co963 O971 2.055 . S
Co963 O974 2.039 . S
Co963 N977 2.140 . S
C964 O965 1.227 . S
C964 O974 1.265 . S
O965 C964 1.227 . S
N966 Co963 2.121 . S
N966 C968 1.375 . S
N966 C969 1.313 . S
C967 C968 1.338 . S
C967 N970 1.377 . S
C967 H987 0.930 . S
C968 N966 1.375 . S
C968 C967 1.338 . S
C968 H972 0.931 . S
C969 N966 1.313 . S
C969 N970 1.344 . S
C969 H973 0.930 . S
N970 C967 1.377 . S
N970 C969 1.344 . S
O971 Co963 2.055 . S
O971 C975 1.253 . S
H972 C968 0.931 . S
H973 C969 0.930 . S
O974 Co963 2.039 . S
O974 C964 1.265 . S
C975 O971 1.253 . S
C975 O976 1.227 . S
O976 C975 1.227 . S
N977 Co963 2.140 . S
N977 C980 1.346 . S
N977 C981 1.345 . S
C978 C979 1.387 . S
C978 C982 1.391 . S
C979 C978 1.387 . S
C979 C980 1.369 . S
C979 H988 0.929 . S
C980 N977 1.346 . S
C980 C979 1.369 . S
C980 H983 0.928 . S
C981 N977 1.345 . S
C981 C982 1.371 . S
C981 H984 0.931 . S
C982 C978 1.391 . S
C982 C981 1.371 . S
C982 H989 0.930 . S
H983 C980 0.928 . S
H984 C981 0.931 . S
H985 C961 0.930 . S
H986 C958 0.930 . S
H987 C967 0.930 . S
H988 C979 0.929 . S
H989 C982 0.930 . S
C990 C991 1.351 . S
C990 N993 1.368 . S
C990 H995 0.931 . S
C991 C990 1.351 . S
C991 N992 1.373 . S
C991 H1019 0.930 . S
N992 C991 1.373 . S
N992 C994 1.340 . S
N993 C990 1.368 . S
N993 C994 1.321 . S
N993 Co996 2.135 . S
C994 N992 1.340 . S
C994 N993 1.321 . S
C994 H1018 0.930 . S
H995 C990 0.931 . S
Co996 N993 2.135 . S
Co996 N999 2.121 . S
Co996 O1004 2.055 . S
Co996 O1007 2.039 . S
Co996 N1010 2.140 . S
C997 O998 1.227 . S
C997 O1007 1.265 . S
O998 C997 1.227 . S
N999 Co996 2.121 . S
N999 C1001 1.375 . S
N999 C1002 1.313 . S
C1000 C1001 1.338 . S
C1000 N1003 1.377 . S
C1000 H1020 0.930 . S
C1001 N999 1.375 . S
C1001 C1000 1.338 . S
C1001 H1005 0.931 . S
C1002 N999 1.313 . S
C1002 N1003 1.344 . S
C1002 H1006 0.930 . S
N1003 C1000 1.377 . S
N1003 C1002 1.344 . S
O1004 Co996 2.055 . S
O1004 C1008 1.253 . S
H1005 C1001 0.931 . S
H1006 C1002 0.930 . S
O1007 Co996 2.039 . S
O1007 C997 1.265 . S
C1008 O1004 1.253 . S
C1008 O1009 1.227 . S
O1009 C1008 1.227 . S
N1010 Co996 2.140 . S
N1010 C1013 1.346 . S
N1010 C1014 1.345 . S
C1011 C1012 1.387 . S
C1011 C1015 1.391 . S
C1012 C1011 1.387 . S
C1012 C1013 1.369 . S
C1012 H1021 0.929 . S
C1013 N1010 1.346 . S
C1013 C1012 1.369 . S
C1013 H1016 0.928 . S
C1014 N1010 1.345 . S
C1014 C1015 1.371 . S
C1014 H1017 0.931 . S
C1015 C1011 1.391 . S
C1015 C1014 1.371 . S
C1015 H1022 0.930 . S
H1016 C1013 0.928 . S
H1017 C1014 0.931 . S
H1018 C994 0.930 . S
H1019 C991 0.930 . S
H1020 C1000 0.930 . S
H1021 C1012 0.929 . S
H1022 C1015 0.930 . S
C1023 C1024 1.351 . S
C1023 N1026 1.368 . S
C1023 H1028 0.931 . S
C1024 C1023 1.351 . S
C1024 N1025 1.373 . S
C1024 H1052 0.930 . S
N1025 C1024 1.373 . S
N1025 C1027 1.340 . S
N1026 C1023 1.368 . S
N1026 C1027 1.321 . S
N1026 Co1029 2.135 . S
C1027 N1025 1.340 . S
C1027 N1026 1.321 . S
C1027 H1051 0.930 . S
H1028 C1023 0.931 . S
Co1029 N1026 2.135 . S
Co1029 N1032 2.121 . S
Co1029 O1037 2.055 . S
Co1029 O1040 2.039 . S
Co1029 N1043 2.140 . S
C1030 O1031 1.227 . S
C1030 O1040 1.265 . S
O1031 C1030 1.227 . S
N1032 Co1029 2.121 . S
N1032 C1034 1.375 . S
N1032 C1035 1.313 . S
C1033 C1034 1.338 . S
C1033 N1036 1.377 . S
C1033 H1053 0.930 . S
C1034 N1032 1.375 . S
C1034 C1033 1.338 . S
C1034 H1038 0.931 . S
C1035 N1032 1.313 . S
C1035 N1036 1.344 . S
C1035 H1039 0.930 . S
N1036 C1033 1.377 . S
N1036 C1035 1.344 . S
O1037 Co1029 2.055 . S
O1037 C1041 1.253 . S
H1038 C1034 0.931 . S
H1039 C1035 0.930 . S
O1040 Co1029 2.039 . S
O1040 C1030 1.265 . S
C1041 O1037 1.253 . S
C1041 O1042 1.227 . S
O1042 C1041 1.227 . S
N1043 Co1029 2.140 . S
N1043 C1046 1.346 . S
N1043 C1047 1.345 . S
C1044 C1045 1.387 . S
C1044 C1048 1.391 . S
C1045 C1044 1.387 . S
C1045 C1046 1.369 . S
C1045 H1054 0.929 . S
C1046 N1043 1.346 . S
C1046 C1045 1.369 . S
C1046 H1049 0.928 . S
C1047 N1043 1.345 . S
C1047 C1048 1.371 . S
C1047 H1050 0.931 . S
C1048 C1044 1.391 . S
C1048 C1047 1.371 . S
C1048 H1055 0.930 . S
H1049 C1046 0.928 . S
H1050 C1047 0.931 . S
H1051 C1027 0.930 . S
H1052 C1024 0.930 . S
H1053 C1033 0.930 . S
H1054 C1045 0.929 . S
H1055 C1048 0.930 . S
C1056 C1057 1.387 . S
C1056 H1060 0.950 . S
C1056 C1065 1.390 1_565 S
C1057 C1056 1.387 . S
C1057 C1059 1.387 . S
H1058 C1065 0.950 . S
C1059 C1057 1.387 . S
C1059 C1061 1.390 1_565 S
C1059 H1063 0.950 . S
H1060 C1056 0.950 . S
C1061 C1059 1.390 1_545 S
C1061 C1062 1.387 . S
C1061 H1064 0.950 . S
C1062 C1061 1.387 . S
C1062 C1065 1.387 . S
H1063 C1059 0.950 . S
H1064 C1061 0.950 . S
C1065 C1056 1.390 1_545 S
C1065 H1058 0.950 . S
C1065 C1062 1.387 . S
C1066 C1067 1.387 . S
C1066 H1070 0.950 . S
C1066 C1075 1.390 . S
C1067 C1066 1.387 . S
C1067 C1069 1.387 . S
H1068 C1075 0.950 . S
C1069 C1067 1.387 . S
C1069 C1071 1.390 . S
C1069 H1073 0.950 . S
H1070 C1066 0.950 . S
C1071 C1069 1.390 . S
C1071 C1072 1.387 . S
C1071 H1074 0.950 . S
C1072 C1071 1.387 . S
C1072 C1075 1.387 . S
H1073 C1069 0.950 . S
H1074 C1071 0.950 . S
C1075 C1066 1.390 . S
C1075 H1068 0.950 . S
C1075 C1072 1.387 . S
C1076 C1077 1.387 . S
C1076 H1080 0.950 . S
C1076 C1085 1.390 1_565 S
C1077 C1076 1.387 . S
C1077 C1079 1.387 . S
H1078 C1085 0.950 . S
C1079 C1077 1.387 . S
C1079 C1081 1.390 1_565 S
C1079 H1083 0.950 . S
H1080 C1076 0.950 . S
C1081 C1079 1.390 1_545 S
C1081 C1082 1.387 . S
C1081 H1084 0.950 . S
C1082 C1081 1.387 . S
C1082 C1085 1.387 . S
H1083 C1079 0.950 . S
H1084 C1081 0.950 . S
C1085 C1076 1.390 1_545 S
C1085 H1078 0.950 . S
C1085 C1082 1.387 . S
C1086 C1087 1.387 . S
C1086 H1090 0.950 . S
C1086 C1095 1.390 . S
C1087 C1086 1.387 . S
C1087 C1089 1.387 . S
H1088 C1095 0.950 . S
C1089 C1087 1.387 . S
C1089 C1091 1.390 . S
C1089 H1093 0.950 . S
H1090 C1086 0.950 . S
C1091 C1089 1.390 . S
C1091 C1092 1.387 . S
C1091 H1094 0.950 . S
C1092 C1091 1.387 . S
C1092 C1095 1.387 . S
H1093 C1089 0.950 . S
H1094 C1091 0.950 . S
C1095 C1086 1.390 . S
C1095 H1088 0.950 . S
C1095 C1092 1.387 . S
C1096 C1097 1.387 . S
C1096 H1100 0.950 . S
C1096 C1105 1.390 1_545 S
C1097 C1096 1.387 . S
C1097 C1099 1.387 . S
H1098 C1105 0.950 . S
C1099 C1097 1.387 . S
C1099 C1101 1.390 1_545 S
C1099 H1103 0.950 . S
H1100 C1096 0.950 . S
C1101 C1099 1.390 1_565 S
C1101 C1102 1.387 . S
C1101 H1104 0.950 . S
C1102 C1101 1.387 . S
C1102 C1105 1.387 . S
H1103 C1099 0.950 . S
H1104 C1101 0.950 . S
C1105 C1096 1.390 1_565 S
C1105 H1098 0.950 . S
C1105 C1102 1.387 . S
C1106 C1107 1.387 1_554 S
C1106 H1110 0.947 1_554 S
C1106 C1115 1.390 . S
C1107 C1106 1.387 1_556 S
C1107 C1109 1.387 1_556 S
H1108 C1115 0.950 . S
C1109 C1107 1.387 1_554 S
C1109 C1111 1.390 . S
C1109 H1113 0.947 1_554 S
H1110 C1106 0.947 1_556 S
C1111 C1109 1.390 . S
C1111 C1112 1.387 . S
C1111 H1114 0.950 . S
C1112 C1111 1.387 . S
C1112 C1115 1.387 . S
H1113 C1109 0.947 1_556 S
H1114 C1111 0.950 . S
C1115 C1106 1.390 . S
C1115 H1108 0.950 . S
C1115 C1112 1.387 . S
C1116 C1117 1.387 . S
C1116 H1120 0.950 . S
C1116 C1125 1.390 1_545 S
C1117 C1116 1.387 . S
C1117 C1119 1.387 . S
H1118 C1125 0.950 . S
C1119 C1117 1.387 . S
C1119 C1121 1.390 1_545 S
C1119 H1123 0.950 . S
H1120 C1116 0.950 . S
C1121 C1119 1.390 1_565 S
C1121 C1122 1.387 . S
C1121 H1124 0.950 . S
C1122 C1121 1.387 . S
C1122 C1125 1.387 . S
H1123 C1119 0.950 . S
H1124 C1121 0.950 . S
C1125 C1116 1.390 1_565 S
C1125 H1118 0.950 . S
C1125 C1122 1.387 . S
C1126 C1127 1.387 . S
C1126 H1130 0.950 . S
C1126 C1135 1.390 . S
C1127 C1126 1.387 . S
C1127 C1129 1.387 . S
H1128 C1135 0.950 . S
C1129 C1127 1.387 . S
C1129 C1131 1.390 . S
C1129 H1133 0.950 . S
H1130 C1126 0.950 . S
C1131 C1129 1.390 . S
C1131 C1132 1.387 . S
C1131 H1134 0.950 . S
C1132 C1131 1.387 . S
C1132 C1135 1.387 . S
H1133 C1129 0.950 . S
H1134 C1131 0.950 . S
C1135 C1126 1.390 . S
C1135 H1128 0.950 . S
C1135 C1132 1.387 . S
C1136 C1137 1.387 . S
C1136 H1140 0.950 . S
C1136 C1145 1.390 . S
C1137 C1136 1.387 . S
C1137 C1139 1.387 . S
H1138 C1145 0.950 . S
C1139 C1137 1.387 . S
C1139 C1141 1.390 . S
C1139 H1143 0.950 . S
H1140 C1136 0.950 . S
C1141 C1139 1.390 . S
C1141 C1142 1.387 . S
C1141 H1144 0.950 . S
C1142 C1141 1.387 . S
C1142 C1145 1.387 . S
H1143 C1139 0.950 . S
H1144 C1141 0.950 . S
C1145 C1136 1.390 . S
C1145 H1138 0.950 . S
C1145 C1142 1.387 . S
C1146 C1147 1.387 . S
C1146 H1150 0.950 . S
C1146 C1155 1.390 . S
C1147 C1146 1.387 . S
C1147 C1149 1.387 . S
H1148 C1155 0.950 . S
C1149 C1147 1.387 . S
C1149 C1151 1.390 . S
C1149 H1153 0.950 . S
H1150 C1146 0.950 . S
C1151 C1149 1.390 . S
C1151 C1152 1.387 . S
C1151 H1154 0.950 . S
C1152 C1151 1.387 . S
C1152 C1155 1.387 . S
H1153 C1149 0.950 . S
H1154 C1151 0.950 . S
C1155 C1146 1.390 . S
C1155 H1148 0.950 . S
C1155 C1152 1.387 . S
C1156 C1157 1.387 . S
C1156 H1160 0.950 . S
C1156 C1165 1.390 . S
C1157 C1156 1.387 . S
C1157 C1159 1.387 . S
H1158 C1165 0.950 . S
C1159 C1157 1.387 . S
C1159 C1161 1.390 . S
C1159 H1163 0.950 . S
H1160 C1156 0.950 . S
C1161 C1159 1.390 . S
C1161 C1162 1.387 . S
C1161 H1164 0.950 . S
C1162 C1161 1.387 . S
C1162 C1165 1.387 . S
H1163 C1159 0.950 . S
H1164 C1161 0.950 . S
C1165 C1156 1.390 . S
C1165 H1158 0.950 . S
C1165 C1162 1.387 . S
C1166 C1167 1.387 . S
C1166 H1170 0.950 . S
C1166 C1175 1.390 . S
C1167 C1166 1.387 . S
C1167 C1169 1.387 . S
H1168 C1175 0.950 . S
C1169 C1167 1.387 . S
C1169 C1171 1.390 . S
C1169 H1173 0.950 . S
H1170 C1166 0.950 . S
C1171 C1169 1.390 . S
C1171 C1172 1.387 . S
C1171 H1174 0.950 . S
C1172 C1171 1.387 . S
C1172 C1175 1.387 . S
H1173 C1169 0.950 . S
H1174 C1171 0.950 . S
C1175 C1166 1.390 . S
C1175 H1168 0.950 . S
C1175 C1172 1.387 . S
C1176 C1177 1.387 . S
C1176 H1180 0.950 . S
C1176 C1185 1.390 . S
C1177 C1176 1.387 . S
C1177 C1179 1.387 . S
H1178 C1185 0.950 . S
C1179 C1177 1.387 . S
C1179 C1181 1.390 . S
C1179 H1183 0.950 . S
H1180 C1176 0.950 . S
C1181 C1179 1.390 . S
C1181 C1182 1.387 . S
C1181 H1184 0.950 . S
C1182 C1181 1.387 . S
C1182 C1185 1.387 . S
H1183 C1179 0.950 . S
H1184 C1181 0.950 . S
C1185 C1176 1.390 . S
C1185 H1178 0.950 . S
C1185 C1182 1.387 . S
C1186 C1187 1.387 . S
C1186 H1190 0.950 . S
C1186 C1195 1.390 . S
C1187 C1186 1.387 . S
C1187 C1189 1.387 . S
H1188 C1195 0.950 . S
C1189 C1187 1.387 . S
C1189 C1191 1.390 . S
C1189 H1193 0.950 . S
H1190 C1186 0.950 . S
C1191 C1189 1.390 . S
C1191 C1192 1.387 . S
C1191 H1194 0.950 . S
C1192 C1191 1.387 . S
C1192 C1195 1.387 . S
H1193 C1189 0.950 . S
H1194 C1191 0.950 . S
C1195 C1186 1.390 . S
C1195 H1188 0.950 . S
C1195 C1192 1.387 . S
C1196 C1197 1.387 . S
C1196 H1200 0.950 . S
C1196 C1205 1.390 . S
C1197 C1196 1.387 . S
C1197 C1199 1.387 . S
H1198 C1205 0.950 . S
C1199 C1197 1.387 . S
C1199 C1201 1.390 . S
C1199 H1203 0.950 . S
H1200 C1196 0.950 . S
C1201 C1199 1.390 . S
C1201 C1202 1.387 . S
C1201 H1204 0.950 . S
C1202 C1201 1.387 . S
C1202 C1205 1.387 . S
H1203 C1199 0.950 . S
H1204 C1201 0.950 . S
C1205 C1196 1.390 . S
C1205 H1198 0.950 . S
C1205 C1202 1.387 . S
C1206 C1207 1.387 1_554 S
C1206 H1210 0.951 . S
C1206 C1215 1.390 . S
C1207 C1206 1.387 1_556 S
C1207 C1209 1.387 1_556 S
H1208 C1215 0.950 . S
C1209 C1207 1.387 1_554 S
C1209 C1211 1.390 . S
C1209 H1213 0.951 . S
H1210 C1206 0.951 . S
C1211 C1209 1.390 . S
C1211 C1212 1.387 . S
C1211 H1214 0.950 . S
C1212 C1211 1.387 . S
C1212 C1215 1.387 . S
H1213 C1209 0.951 . S
H1214 C1211 0.950 . S
C1215 C1206 1.390 . S
C1215 H1208 0.950 . S
C1215 C1212 1.387 . S
C1216 C1217 1.387 . S
C1216 H1220 0.950 . S
C1216 C1225 1.390 1_655 S
C1217 C1216 1.387 . S
C1217 C1219 1.387 . S
H1218 C1225 0.950 . S
C1219 C1217 1.387 . S
C1219 C1221 1.390 1_655 S
C1219 H1223 0.950 . S
H1220 C1216 0.950 . S
C1221 C1219 1.390 1_455 S
C1221 C1222 1.387 . S
C1221 H1224 0.950 . S
C1222 C1221 1.387 . S
C1222 C1225 1.387 . S
H1223 C1219 0.950 . S
H1224 C1221 0.950 . S
C1225 C1216 1.390 1_455 S
C1225 H1218 0.950 . S
C1225 C1222 1.387 . S
C1226 C1227 1.387 . S
C1226 H1230 0.950 . S
C1226 C1235 1.390 . S
C1227 C1226 1.387 . S
C1227 C1229 1.387 . S
H1228 C1235 0.950 1_556 S
C1229 C1227 1.387 . S
C1229 C1231 1.390 . S
C1229 H1233 0.950 . S
H1230 C1226 0.950 . S
C1231 C1229 1.390 . S
C1231 C1232 1.387 . S
C1231 H1234 0.950 . S
C1232 C1231 1.387 . S
C1232 C1235 1.387 . S
H1233 C1229 0.950 . S
H1234 C1231 0.950 . S
C1235 C1226 1.390 . S
C1235 H1228 0.950 1_554 S
C1235 C1232 1.387 . S
C1236 C1237 1.387 . S
C1236 H1240 0.950 . S
C1236 C1245 1.390 . S
C1237 C1236 1.387 . S
C1237 C1239 1.387 . S
H1238 C1245 0.950 . S
C1239 C1237 1.387 . S
C1239 C1241 1.390 . S
C1239 H1243 0.950 . S
H1240 C1236 0.950 . S
C1241 C1239 1.390 . S
C1241 C1242 1.387 . S
C1241 H1244 0.950 . S
C1242 C1241 1.387 . S
C1242 C1245 1.387 . S
H1243 C1239 0.950 . S
H1244 C1241 0.950 . S
C1245 C1236 1.390 . S
C1245 H1238 0.950 . S
C1245 C1242 1.387 . S
C1246 C1247 1.387 . S
C1246 H1250 0.950 . S
C1246 C1255 1.390 . S
C1247 C1246 1.387 . S
C1247 C1249 1.387 . S
H1248 C1255 0.950 . S
C1249 C1247 1.387 . S
C1249 C1251 1.390 . S
C1249 H1253 0.950 . S
H1250 C1246 0.950 . S
C1251 C1249 1.390 . S
C1251 C1252 1.387 . S
C1251 H1254 0.950 . S
C1252 C1251 1.387 . S
C1252 C1255 1.387 . S
H1253 C1249 0.950 . S
H1254 C1251 0.950 . S
C1255 C1246 1.390 . S
C1255 H1248 0.950 . S
C1255 C1252 1.387 . S
C1256 C1257 1.387 . S
C1256 H1260 0.950 . S
C1256 C1265 1.390 1_455 S
C1257 C1256 1.387 . S
C1257 C1259 1.387 . S
H1258 C1265 0.950 . S
C1259 C1257 1.387 . S
C1259 C1261 1.390 1_455 S
C1259 H1263 0.950 . S
H1260 C1256 0.950 . S
C1261 C1259 1.390 1_655 S
C1261 C1262 1.387 . S
C1261 H1264 0.950 . S
C1262 C1261 1.387 . S
C1262 C1265 1.387 . S
H1263 C1259 0.950 . S
H1264 C1261 0.950 . S
C1265 C1256 1.390 1_655 S
C1265 H1258 0.950 . S
C1265 C1262 1.387 . S
C1266 C1267 1.387 . S
C1266 H1270 0.950 . S
C1266 C1275 1.390 . S
C1267 C1266 1.387 . S
C1267 C1269 1.387 . S
H1268 C1275 0.950 . S
C1269 C1267 1.387 . S
C1269 C1271 1.390 1_554 S
C1269 H1273 0.950 . S
H1270 C1266 0.950 . S
C1271 C1269 1.390 1_556 S
C1271 C1272 1.387 . S
C1271 H1274 0.950 . S
C1272 C1271 1.387 . S
C1272 C1275 1.387 1_556 S
H1273 C1269 0.950 . S
H1274 C1271 0.950 . S
C1275 C1266 1.390 . S
C1275 H1268 0.950 . S
C1275 C1272 1.387 1_554 S
C1276 C1277 1.387 . S
C1276 H1280 0.950 . S
C1276 C1285 1.390 . S
C1277 C1276 1.387 . S
C1277 C1279 1.387 . S
H1278 C1285 0.950 . S
C1279 C1277 1.387 . S
C1279 C1281 1.390 . S
C1279 H1283 0.950 . S
H1280 C1276 0.950 . S
C1281 C1279 1.390 . S
C1281 C1282 1.387 . S
C1281 H1284 0.950 . S
C1282 C1281 1.387 . S
C1282 C1285 1.387 . S
H1283 C1279 0.950 . S
H1284 C1281 0.950 . S
C1285 C1276 1.390 . S
C1285 H1278 0.950 . S
C1285 C1282 1.387 . S
C1286 C1287 1.387 . S
C1286 H1290 0.950 . S
C1286 C1295 1.390 . S
C1287 C1286 1.387 . S
C1287 C1289 1.387 . S
H1288 C1295 0.950 . S
C1289 C1287 1.387 . S
C1289 C1291 1.390 . S
C1289 H1293 0.950 . S
H1290 C1286 0.950 . S
C1291 C1289 1.390 . S
C1291 C1292 1.387 . S
C1291 H1294 0.950 . S
C1292 C1291 1.387 . S
C1292 C1295 1.387 . S
H1293 C1289 0.950 . S
H1294 C1291 0.950 . S
C1295 C1286 1.390 . S
C1295 H1288 0.950 . S
C1295 C1292 1.387 . S
C1296 C1297 1.387 . S
C1296 H1300 0.950 . S
C1296 C1305 1.390 1_655 S
C1297 C1296 1.387 . S
C1297 C1299 1.387 . S
H1298 C1305 0.950 . S
C1299 C1297 1.387 . S
C1299 C1301 1.390 1_655 S
C1299 H1303 0.950 . S
H1300 C1296 0.950 . S
C1301 C1299 1.390 1_455 S
C1301 C1302 1.387 . S
C1301 H1304 0.950 . S
C1302 C1301 1.387 . S
C1302 C1305 1.387 . S
H1303 C1299 0.950 . S
H1304 C1301 0.950 . S
C1305 C1296 1.390 1_455 S
C1305 H1298 0.950 . S
C1305 C1302 1.387 . S
C1306 C1307 1.387 1_554 S
C1306 H1310 0.950 . S
C1306 C1315 1.390 . S
C1307 C1306 1.387 1_556 S
C1307 C1309 1.387 . S
H1308 C1315 0.950 . S
C1309 C1307 1.387 . S
C1309 C1311 1.390 1_556 S
C1309 H1313 0.950 . S
H1310 C1306 0.950 . S
C1311 C1309 1.390 1_554 S
C1311 C1312 1.387 . S
C1311 H1314 0.950 . S
C1312 C1311 1.387 . S
C1312 C1315 1.387 . S
H1313 C1309 0.950 . S
H1314 C1311 0.950 . S
C1315 C1306 1.390 . S
C1315 H1308 0.950 . S
C1315 C1312 1.387 . S
C1316 C1317 1.387 . S
C1316 H1320 0.950 . S
C1316 C1325 1.390 . S
C1317 C1316 1.387 . S
C1317 C1319 1.387 . S
H1318 C1325 0.950 . S
C1319 C1317 1.387 . S
C1319 C1321 1.390 . S
C1319 H1323 0.950 . S
H1320 C1316 0.950 . S
C1321 C1319 1.390 . S
C1321 C1322 1.387 . S
C1321 H1324 0.950 . S
C1322 C1321 1.387 . S
C1322 C1325 1.387 . S
H1323 C1319 0.950 . S
H1324 C1321 0.950 . S
C1325 C1316 1.390 . S
C1325 H1318 0.950 . S
C1325 C1322 1.387 . S
C1326 C1327 1.387 . S
C1326 H1330 0.950 . S
C1326 C1335 1.390 . S
C1327 C1326 1.387 . S
C1327 C1329 1.387 . S
H1328 C1335 0.950 . S
C1329 C1327 1.387 . S
C1329 C1331 1.390 . S
C1329 H1333 0.950 . S
H1330 C1326 0.950 . S
C1331 C1329 1.390 . S
C1331 C1332 1.387 . S
C1331 H1334 0.950 . S
C1332 C1331 1.387 . S
C1332 C1335 1.387 . S
H1333 C1329 0.950 . S
H1334 C1331 0.950 . S
C1335 C1326 1.390 . S
C1335 H1328 0.950 . S
C1335 C1332 1.387 . S
C1336 C1337 1.387 . S
C1336 H1340 0.950 . S
C1336 C1345 1.390 1_455 S
C1337 C1336 1.387 . S
C1337 C1339 1.387 . S
H1338 C1345 0.950 . S
C1339 C1337 1.387 . S
C1339 C1341 1.390 1_455 S
C1339 H1343 0.950 . S
H1340 C1336 0.950 . S
C1341 C1339 1.390 1_655 S
C1341 C1342 1.387 . S
C1341 H1344 0.950 . S
C1342 C1341 1.387 . S
C1342 C1345 1.387 . S
H1343 C1339 0.950 . S
H1344 C1341 0.950 . S
C1345 C1336 1.390 1_655 S
C1345 H1338 0.950 . S
C1345 C1342 1.387 . S
C1346 C1347 1.387 . S
C1346 H1350 0.950 . S
C1346 C1355 1.390 . S
C1347 C1346 1.387 . S
C1347 C1349 1.387 . S
H1348 C1355 0.950 . S
C1349 C1347 1.387 . S
C1349 C1351 1.390 . S
C1349 H1353 0.950 1_554 S
H1350 C1346 0.950 . S
C1351 C1349 1.390 . S
C1351 C1352 1.387 . S
C1351 H1354 0.950 . S
C1352 C1351 1.387 . S
C1352 C1355 1.387 . S
H1353 C1349 0.950 1_556 S
H1354 C1351 0.950 . S
C1355 C1346 1.390 . S
C1355 H1348 0.950 . S
C1355 C1352 1.387 . S
C1356 C1357 1.387 . S
C1356 H1360 0.950 . S
C1356 C1365 1.390 . S
C1357 C1356 1.387 . S
C1357 C1359 1.387 . S
H1358 C1365 0.950 . S
C1359 C1357 1.387 . S
C1359 C1361 1.390 . S
C1359 H1363 0.950 . S
H1360 C1356 0.950 . S
C1361 C1359 1.390 . S
C1361 C1362 1.387 . S
C1361 H1364 0.950 . S
C1362 C1361 1.387 . S
C1362 C1365 1.387 . S
H1363 C1359 0.950 . S
H1364 C1361 0.950 . S
C1365 C1356 1.390 . S
C1365 H1358 0.950 . S
C1365 C1362 1.387 . S
C1366 C1367 1.387 . S
C1366 H1370 0.950 . S
C1366 C1375 1.390 . S
C1367 C1366 1.387 . S
C1367 C1369 1.387 . S
H1368 C1375 0.950 . S
C1369 C1367 1.387 . S
C1369 C1371 1.390 . S
C1369 H1373 0.950 . S
H1370 C1366 0.950 . S
C1371 C1369 1.390 . S
C1371 C1372 1.387 . S
C1371 H1374 0.950 . S
C1372 C1371 1.387 . S
C1372 C1375 1.387 . S
H1373 C1369 0.950 . S
H1374 C1371 0.950 . S
C1375 C1366 1.390 . S
C1375 H1368 0.950 . S
C1375 C1372 1.387 . S
C1376 C1377 1.387 . S
C1376 H1380 0.950 . S
C1376 C1385 1.390 . S
C1377 C1376 1.387 . S
C1377 C1379 1.387 . S
H1378 C1385 0.950 . S
C1379 C1377 1.387 . S
C1379 C1381 1.390 . S
C1379 H1383 0.950 . S
H1380 C1376 0.950 . S
C1381 C1379 1.390 . S
C1381 C1382 1.387 . S
C1381 H1384 0.950 . S
C1382 C1381 1.387 . S
C1382 C1385 1.387 . S
H1383 C1379 0.950 . S
H1384 C1381 0.950 . S
C1385 C1376 1.390 . S
C1385 H1378 0.950 . S
C1385 C1382 1.387 . S
C1386 C1387 1.387 . S
C1386 H1390 0.950 . S
C1386 C1395 1.390 . S
C1387 C1386 1.387 . S
C1387 C1389 1.387 . S
H1388 C1395 0.950 . S
C1389 C1387 1.387 . S
C1389 C1391 1.390 . S
C1389 H1393 0.950 . S
H1390 C1386 0.950 . S
C1391 C1389 1.390 . S
C1391 C1392 1.387 . S
C1391 H1394 0.950 . S
C1392 C1391 1.387 . S
C1392 C1395 1.387 . S
H1393 C1389 0.950 . S
H1394 C1391 0.950 . S
C1395 C1386 1.390 . S
C1395 H1388 0.950 . S
C1395 C1392 1.387 . S
C1396 C1397 1.387 . S
C1396 H1400 0.950 . S
C1396 C1405 1.390 1_655 S
C1397 C1396 1.387 . S
C1397 C1399 1.387 . S
H1398 C1405 0.950 . S
C1399 C1397 1.387 . S
C1399 C1401 1.390 1_655 S
C1399 H1403 0.950 . S
H1400 C1396 0.950 . S
C1401 C1399 1.390 1_455 S
C1401 C1402 1.387 . S
C1401 H1404 0.950 . S
C1402 C1401 1.387 . S
C1402 C1405 1.387 . S
H1403 C1399 0.950 . S
H1404 C1401 0.950 . S
C1405 C1396 1.390 1_455 S
C1405 H1398 0.950 . S
C1405 C1402 1.387 . S
C1406 C1407 1.387 . S
C1406 H1410 0.950 . S
C1406 C1415 1.390 . S
C1407 C1406 1.387 . S
C1407 C1409 1.387 . S
H1408 C1415 0.950 . S
C1409 C1407 1.387 . S
C1409 C1411 1.390 . S
C1409 H1413 0.950 . S
H1410 C1406 0.950 . S
C1411 C1409 1.390 . S
C1411 C1412 1.387 . S
C1411 H1414 0.950 . S
C1412 C1411 1.387 . S
C1412 C1415 1.387 . S
H1413 C1409 0.950 . S
H1414 C1411 0.950 . S
C1415 C1406 1.390 . S
C1415 H1408 0.950 . S
C1415 C1412 1.387 . S
C1416 C1417 1.387 . S
C1416 H1420 0.950 . S
C1416 C1425 1.390 . S
C1417 C1416 1.387 . S
C1417 C1419 1.387 . S
H1418 C1425 0.950 . S
C1419 C1417 1.387 . S
C1419 C1421 1.390 . S
C1419 H1423 0.950 . S
H1420 C1416 0.950 . S
C1421 C1419 1.390 . S
C1421 C1422 1.387 . S
C1421 H1424 0.950 . S
C1422 C1421 1.387 . S
C1422 C1425 1.387 . S
H1423 C1419 0.950 . S
H1424 C1421 0.950 . S
C1425 C1416 1.390 . S
C1425 H1418 0.950 . S
C1425 C1422 1.387 . S
C1426 C1427 1.387 . S
C1426 H1430 0.950 . S
C1426 C1435 1.390 . S
C1427 C1426 1.387 . S
C1427 C1429 1.387 . S
H1428 C1435 0.950 . S
C1429 C1427 1.387 . S
C1429 C1431 1.390 . S
C1429 H1433 0.950 . S
H1430 C1426 0.950 . S
C1431 C1429 1.390 . S
C1431 C1432 1.387 . S
C1431 H1434 0.950 . S
C1432 C1431 1.387 . S
C1432 C1435 1.387 . S
H1433 C1429 0.950 . S
H1434 C1431 0.950 . S
C1435 C1426 1.390 . S
C1435 H1428 0.950 . S
C1435 C1432 1.387 . S
C1436 C1437 1.387 . S
C1436 H1440 0.950 . S
C1436 C1445 1.390 1_455 S
C1437 C1436 1.387 . S
C1437 C1439 1.387 . S
H1438 C1445 0.950 . S
C1439 C1437 1.387 . S
C1439 C1441 1.390 1_455 S
C1439 H1443 0.950 . S
H1440 C1436 0.950 . S
C1441 C1439 1.390 1_655 S
C1441 C1442 1.387 . S
C1441 H1444 0.950 . S
C1442 C1441 1.387 . S
C1442 C1445 1.387 . S
H1443 C1439 0.950 . S
H1444 C1441 0.950 . S
C1445 C1436 1.390 1_655 S
C1445 H1438 0.950 . S
C1445 C1442 1.387 . S
C1446 C1447 1.387 1_554 S
C1446 H1450 0.950 . S
C1446 C1455 1.390 . S
C1447 C1446 1.387 1_556 S
C1447 C1449 1.387 . S
H1448 C1455 0.950 . S
C1449 C1447 1.387 . S
C1449 C1451 1.390 1_556 S
C1449 H1453 0.950 . S
H1450 C1446 0.950 . S
C1451 C1449 1.390 1_554 S
C1451 C1452 1.387 . S
C1451 H1454 0.950 . S
C1452 C1451 1.387 . S
C1452 C1455 1.387 . S
H1453 C1449 0.950 . S
H1454 C1451 0.950 . S
C1455 C1446 1.390 . S
C1455 H1448 0.950 . S
C1455 C1452 1.387 . S
C1456 C1457 1.387 . S
C1456 H1460 0.950 . S
C1456 C1465 1.390 . S
C1457 C1456 1.387 . S
C1457 C1459 1.387 . S
H1458 C1465 0.950 . S
C1459 C1457 1.387 . S
C1459 C1461 1.390 . S
C1459 H1463 0.950 . S
H1460 C1456 0.950 . S
C1461 C1459 1.390 . S
C1461 C1462 1.387 . S
C1461 H1464 0.950 . S
C1462 C1461 1.387 . S
C1462 C1465 1.387 . S
H1463 C1459 0.950 . S
H1464 C1461 0.950 . S
C1465 C1456 1.390 . S
C1465 H1458 0.950 . S
C1465 C1462 1.387 . S
C1466 C1467 1.387 . S
C1466 H1470 0.950 . S
C1466 C1475 1.390 . S
C1467 C1466 1.387 . S
C1467 C1469 1.387 . S
H1468 C1475 0.950 . S
C1469 C1467 1.387 . S
C1469 C1471 1.390 . S
C1469 H1473 0.950 . S
H1470 C1466 0.950 . S
C1471 C1469 1.390 . S
C1471 C1472 1.387 . S
C1471 H1474 0.950 . S
C1472 C1471 1.387 . S
C1472 C1475 1.387 . S
H1473 C1469 0.950 . S
H1474 C1471 0.950 . S
C1475 C1466 1.390 . S
C1475 H1468 0.950 . S
C1475 C1472 1.387 . S
C1476 C1477 1.387 . S
C1476 H1480 0.950 . S
C1476 C1485 1.390 1_655 S
C1477 C1476 1.387 . S
C1477 C1479 1.387 1_655 S
H1478 C1485 0.950 . S
C1479 C1477 1.387 1_455 S
C1479 C1481 1.390 . S
C1479 H1483 0.950 . S
H1480 C1476 0.950 . S
C1481 C1479 1.390 . S
C1481 C1482 1.387 . S
C1481 H1484 0.950 . S
C1482 C1481 1.387 . S
C1482 C1485 1.387 . S
H1483 C1479 0.950 . S
H1484 C1481 0.950 . S
C1485 C1476 1.390 1_455 S
C1485 H1478 0.950 . S
C1485 C1482 1.387 . S
C1486 C1487 1.387 . S
C1486 H1490 0.950 . S
C1486 C1495 1.390 1_554 S
C1487 C1486 1.387 . S
C1487 C1489 1.387 . S
H1488 C1495 0.950 . S
C1489 C1487 1.387 . S
C1489 C1491 1.390 . S
C1489 H1493 0.950 . S
H1490 C1486 0.950 . S
C1491 C1489 1.390 . S
C1491 C1492 1.387 1_554 S
C1491 H1494 0.950 . S
C1492 C1491 1.387 1_556 S
C1492 C1495 1.387 . S
H1493 C1489 0.950 . S
H1494 C1491 0.950 . S
C1495 C1486 1.390 1_556 S
C1495 H1488 0.950 . S
C1495 C1492 1.387 . S
C1496 C1497 1.387 . S
C1496 H1500 0.950 . S
C1496 C1505 1.390 . S
C1497 C1496 1.387 . S
C1497 C1499 1.387 . S
H1498 C1505 0.950 . S
C1499 C1497 1.387 . S
C1499 C1501 1.390 . S
C1499 H1503 0.950 . S
H1500 C1496 0.950 . S
C1501 C1499 1.390 . S
C1501 C1502 1.387 . S
C1501 H1504 0.950 . S
C1502 C1501 1.387 . S
C1502 C1505 1.387 . S
H1503 C1499 0.950 . S
H1504 C1501 0.950 . S
C1505 C1496 1.390 . S
C1505 H1498 0.950 . S
C1505 C1502 1.387 . S
C1506 C1507 1.387 . S
C1506 H1510 0.950 . S
C1506 C1515 1.390 . S
C1507 C1506 1.387 . S
C1507 C1509 1.387 . S
H1508 C1515 0.950 . S
C1509 C1507 1.387 . S
C1509 C1511 1.390 . S
C1509 H1513 0.950 . S
H1510 C1506 0.950 . S
C1511 C1509 1.390 . S
C1511 C1512 1.387 . S
C1511 H1514 0.950 . S
C1512 C1511 1.387 . S
C1512 C1515 1.387 . S
H1513 C1509 0.950 . S
H1514 C1511 0.950 . S
C1515 C1506 1.390 . S
C1515 H1508 0.950 . S
C1515 C1512 1.387 . S
C1516 C1517 1.387 . S
C1516 H1520 0.950 . S
C1516 C1525 1.390 1_455 S
C1517 C1516 1.387 . S
C1517 C1519 1.387 . S
H1518 C1525 0.950 . S
C1519 C1517 1.387 . S
C1519 C1521 1.390 1_455 S
C1519 H1523 0.950 . S
H1520 C1516 0.950 . S
C1521 C1519 1.390 1_655 S
C1521 C1522 1.387 . S
C1521 H1524 0.950 . S
C1522 C1521 1.387 . S
C1522 C1525 1.387 . S
H1523 C1519 0.950 . S
H1524 C1521 0.950 . S
C1525 C1516 1.390 1_655 S
C1525 H1518 0.950 . S
C1525 C1522 1.387 . S
C1526 C1527 1.387 . S
C1526 H1530 0.950 . S
C1526 C1535 1.390 . S
C1527 C1526 1.387 . S
C1527 C1529 1.387 . S
H1528 C1535 0.950 . S
C1529 C1527 1.387 . S
C1529 C1531 1.390 . S
C1529 H1533 0.950 1_554 S
H1530 C1526 0.950 . S
C1531 C1529 1.390 . S
C1531 C1532 1.387 . S
C1531 H1534 0.950 . S
C1532 C1531 1.387 . S
C1532 C1535 1.387 . S
H1533 C1529 0.950 1_556 S
H1534 C1531 0.950 . S
C1535 C1526 1.390 . S
C1535 H1528 0.950 . S
C1535 C1532 1.387 . S
C1536 C1537 1.387 . S
C1536 H1540 0.950 . S
C1536 C1545 1.390 1_545 S
C1537 C1536 1.387 . S
C1537 C1539 1.387 . S
H1538 C1545 0.950 . S
C1539 C1537 1.387 . S
C1539 C1541 1.390 1_545 S
C1539 H1543 0.950 . S
H1540 C1536 0.950 . S
C1541 C1539 1.390 1_565 S
C1541 C1542 1.387 . S
C1541 H1544 0.950 . S
C1542 C1541 1.387 . S
C1542 C1545 1.387 . S
H1543 C1539 0.950 . S
H1544 C1541 0.950 . S
C1545 C1536 1.390 1_565 S
C1545 H1538 0.950 . S
C1545 C1542 1.387 . S
C1546 C1547 1.387 . S
C1546 H1550 0.950 . S
C1546 C1555 1.390 . S
C1547 C1546 1.387 . S
C1547 C1549 1.387 . S
H1548 C1555 0.950 . S
C1549 C1547 1.387 . S
C1549 C1551 1.390 . S
C1549 H1553 0.950 . S
H1550 C1546 0.950 . S
C1551 C1549 1.390 . S
C1551 C1552 1.387 . S
C1551 H1554 0.950 . S
C1552 C1551 1.387 . S
C1552 C1555 1.387 . S
H1553 C1549 0.950 . S
H1554 C1551 0.950 . S
C1555 C1546 1.390 . S
C1555 H1548 0.950 . S
C1555 C1552 1.387 . S
C1556 C1557 1.387 . S
C1556 H1560 0.950 . S
C1556 C1565 1.390 1_545 S
C1557 C1556 1.387 . S
C1557 C1559 1.387 . S
H1558 C1565 0.950 . S
C1559 C1557 1.387 . S
C1559 C1561 1.390 1_545 S
C1559 H1563 0.950 . S
H1560 C1556 0.950 . S
C1561 C1559 1.390 1_565 S
C1561 C1562 1.387 . S
C1561 H1564 0.950 . S
C1562 C1561 1.387 . S
C1562 C1565 1.387 . S
H1563 C1559 0.950 . S
H1564 C1561 0.950 . S
C1565 C1556 1.390 1_565 S
C1565 H1558 0.950 . S
C1565 C1562 1.387 . S
C1566 C1567 1.387 1_554 S
C1566 H1570 0.949 1_554 S
C1566 C1575 1.390 . S
C1567 C1566 1.387 1_556 S
C1567 C1569 1.387 1_556 S
H1568 C1575 0.950 . S
C1569 C1567 1.387 1_554 S
C1569 C1571 1.390 . S
C1569 H1573 0.949 1_554 S
H1570 C1566 0.949 1_556 S
C1571 C1569 1.390 . S
C1571 C1572 1.387 . S
C1571 H1574 0.950 . S
C1572 C1571 1.387 . S
C1572 C1575 1.387 . S
H1573 C1569 0.949 1_556 S
H1574 C1571 0.950 . S
C1575 C1566 1.390 . S
C1575 H1568 0.950 . S
C1575 C1572 1.387 . S
C1576 C1577 1.387 . S
C1576 H1580 0.950 . S
C1576 C1585 1.390 1_565 S
C1577 C1576 1.387 . S
C1577 C1579 1.387 . S
H1578 C1585 0.950 . S
C1579 C1577 1.387 . S
C1579 C1581 1.390 1_565 S
C1579 H1583 0.950 . S
H1580 C1576 0.950 . S
C1581 C1579 1.390 1_545 S
C1581 C1582 1.387 . S
C1581 H1584 0.950 . S
C1582 C1581 1.387 . S
C1582 C1585 1.387 . S
H1583 C1579 0.950 . S
H1584 C1581 0.950 . S
C1585 C1576 1.390 1_545 S
C1585 H1578 0.950 . S
C1585 C1582 1.387 . S
C1586 C1587 1.387 . S
C1586 H1590 0.950 . S
C1586 C1595 1.390 . S
C1587 C1586 1.387 . S
C1587 C1589 1.387 . S
H1588 C1595 0.950 . S
C1589 C1587 1.387 . S
C1589 C1591 1.390 . S
C1589 H1593 0.950 . S
H1590 C1586 0.950 . S
C1591 C1589 1.390 . S
C1591 C1592 1.387 . S
C1591 H1594 0.950 . S
C1592 C1591 1.387 . S
C1592 C1595 1.387 . S
H1593 C1589 0.950 . S
H1594 C1591 0.950 . S
C1595 C1586 1.390 . S
C1595 H1588 0.950 . S
C1595 C1592 1.387 . S
C1596 C1597 1.387 . S
C1596 H1600 0.950 . S
C1596 C1605 1.390 1_565 S
C1597 C1596 1.387 . S
C1597 C1599 1.387 . S
H1598 C1605 0.950 . S
C1599 C1597 1.387 . S
C1599 C1601 1.390 1_565 S
C1599 H1603 0.950 . S
H1600 C1596 0.950 . S
C1601 C1599 1.390 1_545 S
C1601 C1602 1.387 . S
C1601 H1604 0.950 . S
C1602 C1601 1.387 . S
C1602 C1605 1.387 . S
H1603 C1599 0.950 . S
H1604 C1601 0.950 . S
C1605 C1596 1.390 1_545 S
C1605 H1598 0.950 . S
C1605 C1602 1.387 . S
C1606 C1607 1.387 . S
C1606 H1610 0.950 . S
C1606 C1615 1.390 . S
C1607 C1606 1.387 . S
C1607 C1609 1.387 . S
H1608 C1615 0.950 . S
C1609 C1607 1.387 . S
C1609 C1611 1.390 . S
C1609 H1613 0.950 . S
H1610 C1606 0.950 . S
C1611 C1609 1.390 . S
C1611 C1612 1.387 . S
C1611 H1614 0.950 . S
C1612 C1611 1.387 . S
C1612 C1615 1.387 . S
H1613 C1609 0.950 . S
H1614 C1611 0.950 . S
C1615 C1606 1.390 . S
C1615 H1608 0.950 . S
C1615 C1612 1.387 . S
C1616 C1617 1.387 . S
C1616 H1620 0.950 . S
C1616 C1625 1.390 . S
C1617 C1616 1.387 . S
C1617 C1619 1.387 . S
H1618 C1625 0.950 . S
C1619 C1617 1.387 . S
C1619 C1621 1.390 . S
C1619 H1623 0.950 . S
H1620 C1616 0.950 . S
C1621 C1619 1.390 . S
C1621 C1622 1.387 . S
C1621 H1624 0.950 . S
C1622 C1621 1.387 . S
C1622 C1625 1.387 . S
H1623 C1619 0.950 . S
H1624 C1621 0.950 . S
C1625 C1616 1.390 . S
C1625 H1618 0.950 . S
C1625 C1622 1.387 . S
C1626 C1627 1.387 1_554 S
C1626 H1630 0.944 1_554 S
C1626 C1635 1.390 . S
C1627 C1626 1.387 1_556 S
C1627 C1629 1.387 1_556 S
H1628 C1635 0.950 . S
C1629 C1627 1.387 1_554 S
C1629 C1631 1.390 . S
C1629 H1633 0.944 1_554 S
H1630 C1626 0.944 1_556 S
C1631 C1629 1.390 . S
C1631 C1632 1.387 . S
C1631 H1634 0.950 . S
C1632 C1631 1.387 . S
C1632 C1635 1.387 . S
H1633 C1629 0.944 1_556 S
H1634 C1631 0.950 . S
C1635 C1626 1.390 . S
C1635 H1628 0.950 . S
C1635 C1632 1.387 . S
C1636 C1637 1.387 . S
C1636 H1640 0.950 . S
C1636 C1645 1.390 . S
C1637 C1636 1.387 . S
C1637 C1639 1.387 . S
H1638 C1645 0.950 . S
C1639 C1637 1.387 . S
C1639 C1641 1.390 . S
C1639 H1643 0.950 . S
H1640 C1636 0.950 . S
C1641 C1639 1.390 . S
C1641 C1642 1.387 . S
C1641 H1644 0.950 . S
C1642 C1641 1.387 . S
C1642 C1645 1.387 . S
H1643 C1639 0.950 . S
H1644 C1641 0.950 . S
C1645 C1636 1.390 . S
C1645 H1638 0.950 . S
C1645 C1642 1.387 . S
C1646 C1647 1.387 . S
C1646 H1650 0.950 . S
C1646 C1655 1.390 . S
C1647 C1646 1.387 . S
C1647 C1649 1.387 . S
H1648 C1655 0.950 . S
C1649 C1647 1.387 . S
C1649 C1651 1.390 . S
C1649 H1653 0.950 . S
H1650 C1646 0.950 . S
C1651 C1649 1.390 . S
C1651 C1652 1.387 . S
C1651 H1654 0.950 . S
C1652 C1651 1.387 . S
C1652 C1655 1.387 . S
H1653 C1649 0.950 . S
H1654 C1651 0.950 . S
C1655 C1646 1.390 . S
C1655 H1648 0.950 . S
C1655 C1652 1.387 . S
C1656 C1657 1.387 . S
C1656 H1660 0.950 . S
C1656 C1665 1.390 . S
C1657 C1656 1.387 . S
C1657 C1659 1.387 . S
H1658 C1665 0.950 . S
C1659 C1657 1.387 . S
C1659 C1661 1.390 . S
C1659 H1663 0.950 . S
H1660 C1656 0.950 . S
C1661 C1659 1.390 . S
C1661 C1662 1.387 . S
C1661 H1664 0.950 . S
C1662 C1661 1.387 . S
C1662 C1665 1.387 . S
H1663 C1659 0.950 . S
H1664 C1661 0.950 . S
C1665 C1656 1.390 . S
C1665 H1658 0.950 . S
C1665 C1662 1.387 . S
C1666 C1667 1.387 . S
C1666 H1670 0.950 . S
C1666 C1675 1.390 . S
C1667 C1666 1.387 . S
C1667 C1669 1.387 . S
H1668 C1675 0.950 . S
C1669 C1667 1.387 . S
C1669 C1671 1.390 . S
C1669 H1673 0.950 . S
H1670 C1666 0.950 . S
C1671 C1669 1.390 . S
C1671 C1672 1.387 . S
C1671 H1674 0.950 . S
C1672 C1671 1.387 . S
C1672 C1675 1.387 . S
H1673 C1669 0.950 . S
H1674 C1671 0.950 . S
C1675 C1666 1.390 . S
C1675 H1668 0.950 . S
C1675 C1672 1.387 . S
C1676 C1677 1.387 . S
C1676 H1680 0.950 . S
C1676 C1685 1.390 . S
C1677 C1676 1.387 . S
C1677 C1679 1.387 . S
H1678 C1685 0.950 . S
C1679 C1677 1.387 . S
C1679 C1681 1.390 . S
C1679 H1683 0.950 . S
H1680 C1676 0.950 . S
C1681 C1679 1.390 . S
C1681 C1682 1.387 . S
C1681 H1684 0.950 . S
C1682 C1681 1.387 . S
C1682 C1685 1.387 . S
H1683 C1679 0.950 . S
H1684 C1681 0.950 . S
C1685 C1676 1.390 . S
C1685 H1678 0.950 . S
C1685 C1682 1.387 . S
C1686 C1687 1.387 . S
C1686 H1690 0.950 . S
C1686 C1695 1.390 . S
C1687 C1686 1.387 . S
C1687 C1689 1.387 . S
H1688 C1695 0.950 . S
C1689 C1687 1.387 . S
C1689 C1691 1.390 . S
C1689 H1693 0.950 . S
H1690 C1686 0.950 . S
C1691 C1689 1.390 . S
C1691 C1692 1.387 . S
C1691 H1694 0.950 . S
C1692 C1691 1.387 . S
C1692 C1695 1.387 . S
H1693 C1689 0.950 . S
H1694 C1691 0.950 . S
C1695 C1686 1.390 . S
C1695 H1688 0.950 . S
C1695 C1692 1.387 . S
C1696 C1697 1.387 . S
C1696 H1700 0.950 . S
C1696 C1705 1.390 . S
C1697 C1696 1.387 . S
C1697 C1699 1.387 . S
H1698 C1705 0.950 . S
C1699 C1697 1.387 . S
C1699 C1701 1.390 . S
C1699 H1703 0.950 . S
H1700 C1696 0.950 . S
C1701 C1699 1.390 . S
C1701 C1702 1.387 . S
C1701 H1704 0.950 . S
C1702 C1701 1.387 . S
C1702 C1705 1.387 . S
H1703 C1699 0.950 . S
H1704 C1701 0.950 . S
C1705 C1696 1.390 . S
C1705 H1698 0.950 . S
C1705 C1702 1.387 . S
C1706 C1707 1.387 . S
C1706 H1710 0.950 . S
C1706 C1715 1.390 . S
C1707 C1706 1.387 . S
C1707 C1709 1.387 . S
H1708 C1715 0.950 . S
C1709 C1707 1.387 . S
C1709 C1711 1.390 . S
C1709 H1713 0.950 . S
H1710 C1706 0.950 . S
C1711 C1709 1.390 . S
C1711 C1712 1.387 . S
C1711 H1714 0.950 . S
C1712 C1711 1.387 . S
C1712 C1715 1.387 . S
H1713 C1709 0.950 . S
H1714 C1711 0.950 . S
C1715 C1706 1.390 . S
C1715 H1708 0.950 . S
C1715 C1712 1.387 . S
C1716 C1717 1.387 . S
C1716 H1720 0.950 . S
C1716 C1725 1.390 . S
C1717 C1716 1.387 . S
C1717 C1719 1.387 . S
H1718 C1725 0.950 . S
C1719 C1717 1.387 . S
C1719 C1721 1.390 . S
C1719 H1723 0.950 . S
H1720 C1716 0.950 . S
C1721 C1719 1.390 . S
C1721 C1722 1.387 . S
C1721 H1724 0.950 . S
C1722 C1721 1.387 . S
C1722 C1725 1.387 . S
H1723 C1719 0.950 . S
H1724 C1721 0.950 . S
C1725 C1716 1.390 . S
C1725 H1718 0.950 . S
C1725 C1722 1.387 . S
C1726 C1727 1.387 . S
C1726 H1730 0.950 . S
C1726 C1735 1.390 . S
C1727 C1726 1.387 . S
C1727 C1729 1.388 . S
H1728 C1735 0.950 . S
C1729 C1727 1.388 . S
C1729 C1731 1.391 . S
C1729 H1733 0.948 1_556 S
H1730 C1726 0.950 . S
C1731 C1729 1.391 . S
C1731 C1732 1.387 . S
C1731 H1734 0.950 . S
C1732 C1731 1.387 . S
C1732 C1735 1.387 . S
H1733 C1729 0.948 1_554 S
H1734 C1731 0.950 . S
C1735 C1726 1.390 . S
C1735 H1728 0.950 . S
C1735 C1732 1.387 . S
C1736 C1737 1.386 1_554 S
C1736 H1740 0.953 . S
C1736 C1745 1.388 1_554 S
C1737 C1736 1.386 1_556 S
C1737 C1739 1.387 . S
H1738 C1745 0.950 . S
C1739 C1737 1.387 . S
C1739 C1741 1.390 . S
C1739 H1743 0.950 . S
H1740 C1736 0.953 . S
C1741 C1739 1.390 . S
C1741 C1742 1.387 . S
C1741 H1744 0.950 . S
C1742 C1741 1.387 . S
C1742 C1745 1.387 . S
H1743 C1739 0.950 . S
H1744 C1741 0.950 . S
C1745 C1736 1.388 1_556 S
C1745 H1738 0.950 . S
C1745 C1742 1.387 . S
C1746 C1747 1.387 . S
C1746 H1750 0.950 . S
C1746 C1755 1.390 . S
C1747 C1746 1.387 . S
C1747 C1749 1.387 . S
H1748 C1755 0.950 . S
C1749 C1747 1.387 . S
C1749 C1751 1.390 . S
C1749 H1753 0.950 . S
H1750 C1746 0.950 . S
C1751 C1749 1.390 . S
C1751 C1752 1.387 . S
C1751 H1754 0.950 . S
C1752 C1751 1.387 . S
C1752 C1755 1.387 . S
H1753 C1749 0.950 . S
H1754 C1751 0.950 . S
C1755 C1746 1.390 . S
C1755 H1748 0.950 . S
C1755 C1752 1.387 . S
C1756 C1757 1.387 . S
C1756 H1760 0.950 . S
C1756 C1765 1.390 . S
C1757 C1756 1.387 . S
C1757 C1759 1.387 . S
H1758 C1765 0.950 . S
C1759 C1757 1.387 . S
C1759 C1761 1.390 . S
C1759 H1763 0.950 . S
H1760 C1756 0.950 . S
C1761 C1759 1.390 . S
C1761 C1762 1.387 . S
C1761 H1764 0.950 . S
C1762 C1761 1.387 . S
C1762 C1765 1.387 . S
H1763 C1759 0.950 . S
H1764 C1761 0.950 . S
C1765 C1756 1.390 . S
C1765 H1758 0.950 . S
C1765 C1762 1.387 . S
C1766 C1767 1.387 . S
C1766 H1770 0.950 . S
C1766 C1775 1.390 . S
C1767 C1766 1.387 . S
C1767 C1769 1.387 . S
H1768 C1775 0.950 . S
C1769 C1767 1.387 . S
C1769 C1771 1.390 . S
C1769 H1773 0.950 . S
H1770 C1766 0.950 . S
C1771 C1769 1.390 . S
C1771 C1772 1.387 . S
C1771 H1774 0.950 . S
C1772 C1771 1.387 . S
C1772 C1775 1.387 . S
H1773 C1769 0.950 . S
H1774 C1771 0.950 . S
C1775 C1766 1.390 . S
C1775 H1768 0.950 . S
C1775 C1772 1.387 . S
C1776 C1777 1.387 . S
C1776 H1780 0.950 . S
C1776 C1785 1.390 . S
C1777 C1776 1.387 . S
C1777 C1779 1.387 . S
H1778 C1785 0.950 . S
C1779 C1777 1.387 . S
C1779 C1781 1.390 . S
C1779 H1783 0.950 . S
H1780 C1776 0.950 . S
C1781 C1779 1.390 . S
C1781 C1782 1.387 . S
C1781 H1784 0.950 . S
C1782 C1781 1.387 . S
C1782 C1785 1.387 . S
H1783 C1779 0.950 . S
H1784 C1781 0.950 . S
C1785 C1776 1.390 . S
C1785 H1778 0.950 . S
C1785 C1782 1.387 . S
C1786 C1787 1.387 . S
C1786 H1790 0.950 . S
C1786 C1795 1.390 . S
C1787 C1786 1.387 . S
C1787 C1789 1.387 . S
H1788 C1795 0.950 . S
C1789 C1787 1.387 . S
C1789 C1791 1.390 . S
C1789 H1793 0.950 . S
H1790 C1786 0.950 . S
C1791 C1789 1.390 . S
C1791 C1792 1.387 . S
C1791 H1794 0.950 . S
C1792 C1791 1.387 . S
C1792 C1795 1.387 . S
H1793 C1789 0.950 . S
H1794 C1791 0.950 . S
C1795 C1786 1.390 . S
C1795 H1788 0.950 . S
C1795 C1792 1.387 . S
C1796 C1797 1.387 . S
C1796 H1800 0.950 . S
C1796 C1805 1.390 . S
C1797 C1796 1.387 . S
C1797 C1799 1.387 . S
H1798 C1805 0.950 . S
C1799 C1797 1.387 . S
C1799 C1801 1.390 . S
C1799 H1803 0.950 . S
H1800 C1796 0.950 . S
C1801 C1799 1.390 . S
C1801 C1802 1.387 . S
C1801 H1804 0.950 . S
C1802 C1801 1.387 . S
C1802 C1805 1.387 . S
H1803 C1799 0.950 . S
H1804 C1801 0.950 . S
C1805 C1796 1.390 . S
C1805 H1798 0.950 . S
C1805 C1802 1.387 . S
C1806 C1807 1.387 . S
C1806 H1810 0.950 . S
C1806 C1815 1.390 . S
C1807 C1806 1.387 . S
C1807 C1809 1.387 . S
H1808 C1815 0.950 . S
C1809 C1807 1.387 . S
C1809 C1811 1.390 . S
C1809 H1813 0.950 . S
H1810 C1806 0.950 . S
C1811 C1809 1.390 . S
C1811 C1812 1.387 . S
C1811 H1814 0.950 . S
C1812 C1811 1.387 . S
C1812 C1815 1.387 . S
H1813 C1809 0.950 . S
H1814 C1811 0.950 . S
C1815 C1806 1.390 . S
C1815 H1808 0.950 . S
C1815 C1812 1.387 . S
C1816 C1817 1.387 . S
C1816 H1820 0.950 . S
C1816 C1825 1.390 . S
C1817 C1816 1.387 . S
C1817 C1819 1.387 . S
H1818 C1825 0.950 . S
C1819 C1817 1.387 . S
C1819 C1821 1.390 . S
C1819 H1823 0.950 . S
H1820 C1816 0.950 . S
C1821 C1819 1.390 . S
C1821 C1822 1.387 . S
C1821 H1824 0.950 . S
C1822 C1821 1.387 . S
C1822 C1825 1.387 . S
H1823 C1819 0.950 . S
H1824 C1821 0.950 . S
C1825 C1816 1.390 . S
C1825 H1818 0.950 . S
C1825 C1822 1.387 . S
C1826 C1827 1.387 . S
C1826 H1830 0.950 . S
C1826 C1835 1.390 . S
C1827 C1826 1.387 . S
C1827 C1829 1.387 . S
H1828 C1835 0.950 . S
C1829 C1827 1.387 . S
C1829 C1831 1.390 . S
C1829 H1833 0.950 . S
H1830 C1826 0.950 . S
C1831 C1829 1.390 . S
C1831 C1832 1.387 . S
C1831 H1834 0.950 . S
C1832 C1831 1.387 . S
C1832 C1835 1.387 . S
H1833 C1829 0.950 . S
H1834 C1831 0.950 . S
C1835 C1826 1.390 . S
C1835 H1828 0.950 . S
C1835 C1832 1.387 . S
C1836 C1837 1.387 . S
C1836 H1840 0.950 . S
C1836 C1845 1.390 . S
C1837 C1836 1.387 . S
C1837 C1839 1.387 . S
H1838 C1845 0.950 . S
C1839 C1837 1.387 . S
C1839 C1841 1.390 . S
C1839 H1843 0.950 1_556 S
H1840 C1836 0.950 . S
C1841 C1839 1.390 . S
C1841 C1842 1.387 . S
C1841 H1844 0.950 . S
C1842 C1841 1.387 . S
C1842 C1845 1.387 . S
H1843 C1839 0.950 1_554 S
H1844 C1841 0.950 . S
C1845 C1836 1.390 . S
C1845 H1838 0.950 . S
C1845 C1842 1.387 . S
C1846 C1847 1.387 . S
C1846 H1850 0.950 . S
C1846 C1855 1.390 . S
C1847 C1846 1.387 . S
C1847 C1849 1.387 . S
H1848 C1855 0.950 . S
C1849 C1847 1.387 . S
C1849 C1851 1.390 . S
C1849 H1853 0.950 . S
H1850 C1846 0.950 . S
C1851 C1849 1.390 . S
C1851 C1852 1.387 . S
C1851 H1854 0.950 . S
C1852 C1851 1.387 . S
C1852 C1855 1.387 . S
H1853 C1849 0.950 . S
H1854 C1851 0.950 . S
C1855 C1846 1.390 . S
C1855 H1848 0.950 . S
C1855 C1852 1.387 . S
C1057 N145 1.342 . S
C1062 N13 1.342 . S
C1067 N46 1.342 . S
C1072 N178 1.342 1_554 S
C1077 N79 1.342 . S
C1082 N211 1.342 . S
C1087 N112 1.342 . S
C1092 N244 1.342 . S
C1097 C414 2.186 . S
C1102 C282 2.186 . S
C1107 C315 2.186 . S
C1112 C447 2.186 . S
C1117 C348 2.186 . S
C1122 C480 2.186 . S
C1127 C513 2.186 . S
C1132 C381 2.186 . S
C1137 N541 1.337 . S
C1142 N673 1.337 . S
C1147 N574 1.342 . S
C1152 N706 1.342 . S
C1157 N739 1.342 . S
C1162 N607 1.342 . S
C1167 N640 1.337 . S
C1172 N772 1.337 1_554 S
C1177 C810 2.187 . S
C1182 C942 2.187 . S
C1187 C843 2.186 . S
C1192 C975 2.186 . S
C1197 C1008 2.186 . S
C1202 C876 2.186 . S
C1207 C909 2.186 . S
C1212 C1041 2.185 . S
C1217 C403 1.917 . S
C1222 C18 1.946 . S
C1227 C51 1.947 . S
C1232 C964 1.917 1_554 S
C1237 C469 1.917 . S
C1242 C84 1.946 . S
C1247 C117 1.946 . S
C1252 C1030 1.915 . S
C1257 C150 1.945 . S
C1262 C271 1.915 . S
C1267 C832 1.915 . S
C1272 C183 1.946 . S
C1277 C337 1.917 . S
C1282 C216 1.946 . S
C1287 C249 1.946 . S
C1292 C898 1.916 . S
C1297 N277 1.025 . S
C1302 N134 1.033 . S
C1307 N310 1.025 . S
C1312 N695 1.034 . S
C1317 N343 1.031 . S
C1322 N200 1.040 . S
C1327 N376 1.026 . S
C1332 N761 1.034 . S
C1337 N2 1.040 . S
C1342 N409 1.032 . S
C1347 N563 1.039 1_554 S
C1352 N442 1.032 . S
C1357 N475 1.029 . S
C1362 N68 1.035 . S
C1367 N629 1.038 . S
C1372 N508 1.031 . S
C1377 C546 1.945 . S
C1382 C931 1.915 . S
C1387 C579 1.947 . S
C1392 C436 1.917 . S
C1397 C612 1.945 . S
C1402 C997 1.915 . S
C1407 C645 1.946 . S
C1412 C502 1.915 1_554 S
C1417 C678 1.946 . S
C1422 C799 1.917 . S
C1427 C304 1.915 . S
C1432 C711 1.946 . S
C1437 C865 1.917 . S
C1442 C744 1.946 . S
C1447 C777 1.947 . S
C1452 C370 1.917 . S
C1457 N662 1.037 . S
C1462 N805 1.027 . S
C1467 N167 1.035 . S
C1472 N838 1.028 . S
C1477 N728 1.039 . S
C1482 N871 1.032 . S
C1487 N233 1.034 . S
C1492 N904 1.026 . S
C1497 N937 1.032 . S
C1502 N530 1.040 . S
C1507 N35 1.035 . S
C1512 N970 1.026 . S
C1517 N1003 1.032 . S
C1522 N596 1.040 . S
C1527 N101 1.034 1_554 S
C1532 N1036 1.027 . S
C1537 C7 1.627 . S
C1542 C139 1.627 . S
C1547 C172 1.624 . S
C1552 C40 1.624 . S
C1557 C205 1.624 . S
C1562 C73 1.624 . S
C1567 C106 1.624 . S
C1572 C238 1.624 . S
C1577 N266 0.733 . S
C1582 N398 0.733 . S
C1587 N299 0.733 . S
C1592 N431 0.733 . S
C1597 N464 0.733 . S
C1602 N332 0.733 . S
C1607 N365 0.724 . S
C1612 N497 0.724 1_554 S
C1617 C667 1.624 . S
C1622 C535 1.624 . S
C1627 C568 1.626 . S
C1632 C700 1.626 . S
C1637 C733 1.627 . S
C1642 C601 1.627 . S
C1647 C634 1.624 . S
C1652 C766 1.624 . S
C1657 N926 0.733 . S
C1662 N794 0.733 . S
C1667 N827 0.724 . S
C1672 N959 0.724 1_554 S
C1677 N992 0.724 . S
C1682 N860 0.724 . S
C1687 N893 0.733 . S
C1692 N1025 0.733 . S
C1697 C252 1.272 . S
C1702 C21 1.272 . S
C1707 C54 1.269 . S
C1712 C153 1.269 . S
C1717 C87 1.271 . S
C1722 C186 1.271 . S
C1727 C219 1.264 1_556 S
C1732 C120 1.270 . S
C1737 C285 1.264 1_556 S
C1742 C516 1.269 . S
C1747 C417 1.270 . S
C1752 C318 1.270 . S
C1757 C450 1.269 . S
C1762 C351 1.269 . S
C1767 C384 1.268 . S
C1772 C483 1.268 . S
C1777 C780 1.269 . S
C1782 C549 1.269 . S
C1787 C582 1.268 . S
C1792 C681 1.262 1_556 S
C1797 C714 1.272 . S
C1802 C615 1.272 . S
C1807 C648 1.271 . S
C1812 C747 1.271 . S
C1817 C813 1.268 . S
C1822 C1044 1.268 . S
C1827 C846 1.270 . S
C1832 C945 1.270 . S
C1837 C879 1.265 1_556 S
C1842 C978 1.271 . S
C1847 C1011 1.269 . S
C1852 C912 1.269 . S
