# Generated by pormake.
# Topology una, (4)-cn, num edge types: 1
# Building blocks:
#     Node 0, Type 0, BuildingBlock: NAHDIM_clean_sbu_0, # of connection points: 4
#     Node 1, Type 0, BuildingBlock: NAHDIM_clean_sbu_0, # of connection points: 4
#     Node 2, Type 0, BuildingBlock: NAHDIM_clean_sbu_0, # of connection points: 4
#     Node 3, Type 0, BuildingBlock: NAHDIM_clean_sbu_0, # of connection points: 4
#     Node 4, Type 0, BuildingBlock: NAHDIM_clean_sbu_0, # of connection points: 4
#     Node 5, Type 0, BuildingBlock: NAHDIM_clean_sbu_0, # of connection points: 4
#     Node 6, Type 0, BuildingBlock: NAHDIM_clean_sbu_0, # of connection points: 4
#     Node 7, Type 0, BuildingBlock: NAHDIM_clean_sbu_0, # of connection points: 4
#     Node 8, Type 0, BuildingBlock: NAHDIM_clean_sbu_0, # of connection points: 4
#     Node 9, Type 0, BuildingBlock: NAHDIM_clean_sbu_0, # of connection points: 4
#     Node 10, Type 0, BuildingBlock: NAHDIM_clean_sbu_0, # of connection points: 4
#     Node 11, Type 0, BuildingBlock: NAHDIM_clean_sbu_0, # of connection points: 4
#     Edge 12, Type (0, 0), BuildingBlock: EZIPEK_clean_linker_0, # of connection points: 2
#     Edge 13, Type (0, 0), BuildingBlock: EZIPEK_clean_linker_0, # of connection points: 2
#     Edge 14, Type (0, 0), BuildingBlock: EZIPEK_clean_linker_0, # of connection points: 2
#     Edge 15, Type (0, 0), BuildingBlock: EZIPEK_clean_linker_0, # of connection points: 2
#     Edge 16, Type (0, 0), BuildingBlock: EZIPEK_clean_linker_0, # of connection points: 2
#     Edge 17, Type (0, 0), BuildingBlock: EZIPEK_clean_linker_0, # of connection points: 2
#     Edge 18, Type (0, 0), BuildingBlock: EZIPEK_clean_linker_0, # of connection points: 2
#     Edge 19, Type (0, 0), BuildingBlock: EZIPEK_clean_linker_0, # of connection points: 2
#     Edge 20, Type (0, 0), BuildingBlock: EZIPEK_clean_linker_0, # of connection points: 2
#     Edge 21, Type (0, 0), BuildingBlock: EZIPEK_clean_linker_0, # of connection points: 2
#     Edge 22, Type (0, 0), BuildingBlock: EZIPEK_clean_linker_0, # of connection points: 2
#     Edge 23, Type (0, 0), BuildingBlock: EZIPEK_clean_linker_0, # of connection points: 2
#     Edge 24, Type (0, 0), BuildingBlock: EZIPEK_clean_linker_0, # of connection points: 2
#     Edge 25, Type (0, 0), BuildingBlock: EZIPEK_clean_linker_0, # of connection points: 2
#     Edge 26, Type (0, 0), BuildingBlock: EZIPEK_clean_linker_0, # of connection points: 2
#     Edge 27, Type (0, 0), BuildingBlock: EZIPEK_clean_linker_0, # of connection points: 2
#     Edge 28, Type (0, 0), BuildingBlock: EZIPEK_clean_linker_0, # of connection points: 2
#     Edge 29, Type (0, 0), BuildingBlock: EZIPEK_clean_linker_0, # of connection points: 2
#     Edge 30, Type (0, 0), BuildingBlock: EZIPEK_clean_linker_0, # of connection points: 2
#     Edge 31, Type (0, 0), BuildingBlock: EZIPEK_clean_linker_0, # of connection points: 2
#     Edge 32, Type (0, 0), BuildingBlock: EZIPEK_clean_linker_0, # of connection points: 2
#     Edge 33, Type (0, 0), BuildingBlock: EZIPEK_clean_linker_0, # of connection points: 2
#     Edge 34, Type (0, 0), BuildingBlock: EZIPEK_clean_linker_0, # of connection points: 2
#     Edge 35, Type (0, 0), BuildingBlock: EZIPEK_clean_linker_0, # of connection points: 2
# Relax obj value: 0.122
# Max RMSD: 0.175
# Mean RMSD: 0.172
data_MOF--net-una--node1-NAHDIM_clean_sbu_0--edge1-EZIPEK_clean_linker_0
_symmetry_space_group_name_H-M    P1
_symmetry_Int_Tables_number       1
_symmetry_cell_setting            triclinic
loop_
_symmetry_equiv_pos_as_xyz
'x, y, z'
_cell_length_a     43.1394
_cell_length_b     42.465344
_cell_length_c     15.89769
_cell_angle_alpha  90.080415
_cell_angle_beta   89.932921
_cell_angle_gamma 120.5503
loop_
_atom_site_label
_atom_site_type_symbol
_atom_site_fract_x
_atom_site_fract_y
_atom_site_fract_z
_atom_type_partial_charge
C0 C 0.05636 0.40904 0.95256 0.0
O1 O 0.06964 0.44433 0.94304 0.0
O2 O 0.15989 0.44502 0.9347 0.0
Zn3 Zn 0.12496 0.43613 0.02702 0.0
O4 O 0.12697 0.4835 0.05164 0.0
C5 C 0.16244 0.4082 0.12011 0.0
O6 O 0.16611 0.39743 0.0452 0.0
O7 O 0.07504 0.39776 0.98953 0.0
C8 C 0.15459 0.50974 0.08615 0.0
O9 O 0.18199 0.50588 0.10624 0.0
C10 C 0.16132 0.46049 0.86549 0.0
O11 O 0.13862 0.4717 0.84994 0.0
O12 O 0.14309 0.42265 0.1292 0.0
C13 C 0.71551 0.1542 0.32206 0.0
O14 O 0.70731 0.17403 0.27396 0.0
O15 O 0.62451 0.10662 0.23574 0.0
Zn16 Zn 0.66893 0.10421 0.20613 0.0
O17 O 0.6979 0.14128 0.11795 0.0
C18 C 0.62909 0.03834 0.11593 0.0
O19 O 0.61026 0.05402 0.09992 0.0
O20 O 0.70143 0.1202 0.30716 0.0
C21 C 0.69427 0.1382 0.03875 0.0
O22 O 0.66834 0.10808 0.00498 0.0
C23 C 0.61925 0.13148 0.2071 0.0
O24 O 0.64238 0.1558 0.15414 0.0
O25 O 0.65612 0.05405 0.16456 0.0
C26 C 0.60484 0.66496 0.30134 0.0
O27 O 0.57401 0.64649 0.26172 0.0
O28 O 0.55391 0.70931 0.28072 0.0
Zn29 Zn 0.56388 0.6894 0.38499 0.0
O30 O 0.52144 0.63999 0.4152 0.0
C31 C 0.59417 0.75958 0.46024 0.0
O32 O 0.61294 0.7694 0.3902 0.0
O33 O 0.60788 0.686 0.36161 0.0
C34 C 0.48969 0.63422 0.40626 0.0
O35 O 0.48522 0.66106 0.38093 0.0
C36 C 0.53354 0.69179 0.21938 0.0
O37 O 0.51518 0.65589 0.21947 0.0
O38 O 0.57255 0.72592 0.47517 0.0
C39 C 0.92712 0.57703 0.46841 0.0
O40 O 0.90658 0.54385 0.43852 0.0
O41 O 0.83225 0.54157 0.47443 0.0
Zn42 Zn 0.8665 0.54982 0.56847 0.0
O43 O 0.86764 0.50393 0.59194 0.0
C44 C 0.85085 0.59582 0.6736 0.0
O45 O 0.86562 0.6196 0.61225 0.0
O46 O 0.91561 0.58789 0.5289 0.0
C47 C 0.83982 0.47222 0.59041 0.0
O48 O 0.8081 0.46834 0.57605 0.0
C49 C 0.79992 0.53297 0.48891 0.0
O50 O 0.78754 0.52639 0.56626 0.0
O51 O 0.85041 0.56569 0.67058 0.0
C52 C 0.23584 0.82745 0.82176 0.0
O53 O 0.23126 0.80294 0.76518 0.0
O54 O 0.33899 0.87083 0.75495 0.0
Zn55 Zn 0.29501 0.87188 0.71513 0.0
O56 O 0.26973 0.83418 0.62552 0.0
C57 C 0.3386 0.93641 0.62208 0.0
O58 O 0.35935 0.92212 0.62129 0.0
O59 O 0.2613 0.86034 0.81328 0.0
C60 C 0.28578 0.82814 0.56639 0.0
O61 O 0.32099 0.84701 0.5611 0.0
C62 C 0.33816 0.84074 0.7654 0.0
O63 O 0.30821 0.80978 0.75074 0.0
O64 O 0.309 0.92035 0.66206 0.0
C65 C 0.39219 0.32844 0.78747 0.0
O66 O 0.37829 0.29285 0.78494 0.0
O67 O 0.45827 0.3019 0.74088 0.0
Zn68 Zn 0.45583 0.32864 0.84208 0.0
O69 O 0.50519 0.37038 0.87537 0.0
C70 C 0.43996 0.29337 0.00859 0.0
O71 O 0.45831 0.32644 0.04037 0.0
O72 O 0.42433 0.34894 0.81247 0.0
C73 C 0.52774 0.36745 0.92121 0.0
O74 O 0.52017 0.33539 0.95009 0.0
C75 C 0.48116 0.29164 0.7352 0.0
O76 O 0.50701 0.30265 0.79089 0.0
O77 O 0.43359 0.28923 0.93028 0.0
C78 C 0.57372 0.84635 0.70377 0.0
O79 O 0.58382 0.88118 0.70709 0.0
O80 O 0.48642 0.83651 0.81859 0.0
Zn81 Zn 0.53005 0.83474 0.85679 0.0
O82 O 0.51486 0.79325 0.93614 0.0
C83 C 0.56774 0.9105 0.91128 0.0
O84 O 0.55022 0.915 0.84961 0.0
O85 O 0.55262 0.8243 0.75888 0.0
C86 C 0.53974 0.78697 0.95557 0.0
O87 O 0.57168 0.80642 0.92103 0.0
C88 C 0.46718 0.84161 0.87113 0.0
O89 O 0.47619 0.84633 0.95098 0.0
O90 O 0.56497 0.87961 0.92227 0.0
C91 C 0.70528 0.63243 0.14932 0.0
O92 O 0.74041 0.64819 0.15545 0.0
O93 O 0.73197 0.56141 0.15524 0.0
Zn94 Zn 0.70715 0.57222 0.06295 0.0
O95 O 0.66469 0.52584 0.01942 0.0
C96 C 0.75701 0.57953 0.9424 0.0
O97 O 0.74781 0.54785 0.97666 0.0
O98 O 0.6873 0.60202 0.11154 0.0
C99 C 0.66092 0.49429 0.02631 0.0
O100 O 0.68623 0.49038 0.06174 0.0
C101 C 0.71575 0.54481 0.22198 0.0
O102 O 0.68133 0.53323 0.23103 0.0
O103 O 0.74304 0.59764 0.9699 0.0
C104 C 0.06764 0.65127 0.31615 0.0
O105 O 0.08945 0.64128 0.34781 0.0
O106 O 0.16231 0.72012 0.30718 0.0
Zn107 Zn 0.12823 0.6887 0.21636 0.0
O108 O 0.13184 0.64373 0.19816 0.0
C109 C 0.14919 0.75064 0.10688 0.0
O110 O 0.14244 0.76487 0.17275 0.0
O111 O 0.07823 0.67334 0.25449 0.0
C112 C 0.15373 0.64356 0.14486 0.0
O113 O 0.17477 0.67325 0.10155 0.0
C114 C 0.19409 0.72583 0.31401 0.0
O115 O 0.20556 0.7099 0.26203 0.0
O116 O 0.14259 0.71793 0.10962 0.0
C117 C 0.4331 0.18685 0.2373 0.0
O118 O 0.46501 0.20313 0.27274 0.0
O119 O 0.47178 0.13353 0.29794 0.0
Zn120 Zn 0.42993 0.1362 0.34748 0.0
O121 O 0.44691 0.17509 0.43682 0.0
C122 C 0.40362 0.06896 0.4345 0.0
O123 O 0.4383 0.08179 0.44113 0.0
O124 O 0.4102 0.15409 0.25721 0.0
C125 C 0.45051 0.17145 0.5147 0.0
O126 O 0.44354 0.13975 0.54484 0.0
C127 C 0.49987 0.14165 0.34024 0.0
O128 O 0.50225 0.1521 0.41886 0.0
O129 O 0.39235 0.08714 0.39473 0.0
C130 C 0.32235 0.40258 0.65249 0.0
O131 O 0.32066 0.4266 0.70144 0.0
O132 O 0.26595 0.43924 0.6177 0.0
Zn133 Zn 0.29831 0.43489 0.53378 0.0
O134 O 0.34352 0.48369 0.5179 0.0
C135 C 0.26131 0.4391 0.39334 0.0
O136 O 0.27347 0.4717 0.42612 0.0
O137 O 0.31282 0.39982 0.57598 0.0
C138 C 0.36137 0.49194 0.4498 0.0
O139 O 0.35011 0.46821 0.38774 0.0
C140 C 0.26993 0.46982 0.63996 0.0
O141 O 0.29681 0.50036 0.61023 0.0
O142 O 0.26987 0.41738 0.42648 0.0
C143 C 0.9139 0.32141 0.81436 0.0
O144 O 0.88903 0.32394 0.85644 0.0
O145 O 0.82142 0.25214 0.79744 0.0
Zn146 Zn 0.85484 0.28554 0.7091 0.0
O147 O 0.84792 0.32847 0.69478 0.0
C148 C 0.80769 0.2455 0.58421 0.0
O149 O 0.78998 0.2569 0.63006 0.0
O150 O 0.90578 0.30423 0.74482 0.0
C151 C 0.8599 0.34854 0.62997 0.0
O152 O 0.87699 0.34119 0.57188 0.0
C153 C 0.79769 0.25689 0.83266 0.0
O154 O 0.79599 0.28628 0.81632 0.0
O155 O 0.84004 0.25558 0.60327 0.0
C156 C 0.17625 0.39118 0.26005 0.0
C157 C 0.18826 0.41335 0.18713 0.0
C158 C 0.24958 0.44708 0.24362 0.0
C159 C 0.23675 0.42777 0.32036 0.0
N160 N 0.18735 0.38407 0.40632 0.0
N161 N 0.23503 0.46554 0.11256 0.0
C162 C 0.19999 0.40023 0.32974 0.0
C163 C 0.22465 0.44202 0.17937 0.0
N164 N 0.14234 0.3612 0.26202 0.0
N165 N 0.28575 0.46969 0.23157 0.0
H166 H 0.21775 0.46288 0.06369 0.0
H167 H 0.25999 0.48948 0.10865 0.0
H168 H 0.3048 0.47403 0.27742 0.0
H169 H 0.29714 0.4815 0.17386 0.0
H170 H 0.13314 0.3417 0.30966 0.0
H171 H 0.12424 0.3542 0.21225 0.0
H172 H 0.16014 0.36711 0.41982 0.0
H173 H 0.20385 0.3896 0.45872 0.0
C174 C 0.79867 0.22688 0.43206 0.0
C175 C 0.78829 0.21829 0.51739 0.0
C176 C 0.73181 0.16385 0.47528 0.0
C177 C 0.74217 0.17244 0.3899 0.0
N178 N 0.78888 0.2056 0.28752 0.0
N179 N 0.75056 0.17393 0.62132 0.0
C180 C 0.77682 0.20188 0.36853 0.0
C181 C 0.75662 0.18515 0.53929 0.0
N182 N 0.82809 0.25977 0.41132 0.0
N183 N 0.69764 0.1369 0.49532 0.0
H184 H 0.76857 0.18869 0.66957 0.0
H185 H 0.72967 0.14842 0.64032 0.0
H186 H 0.67863 0.12051 0.4504 0.0
H187 H 0.68724 0.13249 0.55612 0.0
H188 H 0.83442 0.26938 0.34982 0.0
H189 H 0.84492 0.27875 0.45604 0.0
H190 H 0.81512 0.22447 0.26937 0.0
H191 H 0.77362 0.18732 0.23986 0.0
C192 C 0.61048 0.79268 0.59802 0.0
C193 C 0.59479 0.78743 0.51712 0.0
C194 C 0.57057 0.82691 0.55377 0.0
C195 C 0.58574 0.83158 0.63515 0.0
N196 N 0.62654 0.82656 0.72956 0.0
N197 N 0.56567 0.80424 0.41131 0.0
C198 C 0.60781 0.81686 0.65552 0.0
C199 C 0.57701 0.8064 0.49259 0.0
N200 N 0.62714 0.77382 0.62036 0.0
N201 N 0.54807 0.83998 0.53686 0.0
H202 H 0.56783 0.78777 0.36579 0.0
H203 H 0.55622 0.82054 0.38703 0.0
H204 H 0.54334 0.8558 0.57937 0.0
H205 H 0.53241 0.83358 0.48281 0.0
H206 H 0.63537 0.77289 0.68135 0.0
H207 H 0.63133 0.75749 0.57819 0.0
H208 H 0.64556 0.81946 0.74568 0.0
H209 H 0.62531 0.84462 0.77221 0.0
C210 C 0.84321 0.60521 0.82527 0.0
C211 C 0.83074 0.60153 0.74149 0.0
C212 C 0.77446 0.59635 0.7915 0.0
C213 C 0.78451 0.59381 0.87502 0.0
N214 N 0.82892 0.59878 0.97436 0.0
N215 N 0.78526 0.59438 0.64234 0.0
C216 C 0.81928 0.59957 0.89279 0.0
C217 C 0.79692 0.59821 0.72373 0.0
N218 N 0.87813 0.61458 0.83958 0.0
N219 N 0.74318 0.59625 0.7769 0.0
H220 H 0.8013 0.59693 0.59082 0.0
H221 H 0.7591 0.58683 0.6253 0.0
H222 H 0.72523 0.59322 0.82441 0.0
H223 H 0.73613 0.60192 0.71869 0.0
H224 H 0.89017 0.62062 0.89862 0.0
H225 H 0.89618 0.61925 0.79078 0.0
H226 H 0.85188 0.59826 0.99187 0.0
H227 H 0.81316 0.59766 0.02543 0.0
C228 C 0.17842 0.80438 0.90246 0.0
C229 C 0.21532 0.81488 0.90096 0.0
C230 C 0.20915 0.78492 0.03599 0.0
C231 C 0.17225 0.77468 0.03847 0.0
N232 N 0.12315 0.78011 0.98361 0.0
N233 N 0.26798 0.82347 0.97425 0.0
C234 C 0.15736 0.78639 0.97486 0.0
C235 C 0.2314 0.808 0.97061 0.0
N236 N 0.16343 0.81075 0.83365 0.0
N237 N 0.2227 0.77141 0.09415 0.0
H238 H 0.28522 0.83997 0.92672 0.0
H239 H 0.2816 0.82274 0.02756 0.0
H240 H 0.20771 0.75503 0.14429 0.0
H241 H 0.24798 0.77404 0.08934 0.0
H242 H 0.1359 0.80013 0.82628 0.0
H243 H 0.17863 0.82554 0.78165 0.0
H244 H 0.11185 0.79094 0.94358 0.0
H245 H 0.10676 0.76606 0.03477 0.0
C246 C 0.43665 0.20724 0.09017 0.0
C247 C 0.42526 0.20691 0.17348 0.0
C248 C 0.41379 0.25632 0.13969 0.0
C249 C 0.43164 0.26125 0.06154 0.0
N250 N 0.46458 0.24369 0.96691 0.0
N251 N 0.40314 0.2307 0.28037 0.0
C252 C 0.4437 0.23691 0.03697 0.0
C253 C 0.41346 0.23108 0.1989 0.0
N254 N 0.44141 0.17949 0.06258 0.0
N255 N 0.3966 0.2752 0.1564 0.0
H256 H 0.40099 0.21133 0.32399 0.0
H257 H 0.39844 0.25054 0.30565 0.0
H258 H 0.39569 0.29326 0.1134 0.0
H259 H 0.38043 0.27043 0.20908 0.0
H260 H 0.44625 0.17624 -0.00016 0.0
H261 H 0.43682 0.15761 0.10103 0.0
H262 H 0.47726 0.2291 0.95186 0.0
H263 H 0.47243 0.26604 0.92774 0.0
C264 C 0.15337 0.56438 0.0324 0.0
C265 C 0.15607 0.54481 0.10142 0.0
C266 C 0.16187 0.59255 0.19788 0.0
C267 C 0.15484 0.60975 0.13003 0.0
N268 N 0.13705 0.60815 0.98528 0.0
N269 N 0.15742 0.53702 0.25147 0.0
C270 C 0.14879 0.59468 0.04784 0.0
C271 C 0.15894 0.55803 0.18472 0.0
N272 N 0.15647 0.55485 0.95201 0.0
N273 N 0.17263 0.60976 0.27404 0.0
H274 H 0.1551 0.51148 0.24455 0.0
H275 H 0.15533 0.54345 0.31368 0.0
H276 H 0.17557 0.63527 0.286 0.0
H277 H 0.18185 0.60035 0.32293 0.0
H278 H 0.15839 0.57044 0.89961 0.0
H279 H 0.16092 0.53344 0.93833 0.0
H280 H 0.12858 0.59565 0.92669 0.0
H281 H 0.13231 0.62967 -0.00568 0.0
C282 C 0.59483 0.16665 0.28043 0.0
C283 C 0.58845 0.1345 0.23781 0.0
C284 C 0.52382 0.10612 0.26552 0.0
C285 C 0.52993 0.13942 0.30159 0.0
N286 N 0.57019 0.20395 0.32534 0.0
N287 N 0.54637 0.07684 0.17348 0.0
C288 C 0.56515 0.17047 0.30382 0.0
C289 C 0.55277 0.10512 0.22563 0.0
N290 N 0.62909 0.19287 0.30205 0.0
N291 N 0.49088 0.075 0.27248 0.0
H292 H 0.56684 0.07573 0.14136 0.0
H293 H 0.52063 0.05655 0.15537 0.0
H294 H 0.46895 0.07424 0.30199 0.0
H295 H 0.48618 0.0492 0.25574 0.0
H296 H 0.63483 0.21489 0.34114 0.0
H297 H 0.65163 0.19088 0.28786 0.0
H298 H 0.59488 0.22814 0.31975 0.0
H299 H 0.54901 0.20814 0.34035 0.0
C300 C 0.39462 0.56048 0.46357 0.0
C301 C 0.39461 0.52817 0.44053 0.0
C302 C 0.45631 0.5655 0.38834 0.0
C303 C 0.45778 0.5974 0.42123 0.0
N304 N 0.43076 0.62293 0.51104 0.0
N305 N 0.42914 0.5 0.40136 0.0
C306 C 0.42766 0.59423 0.46518 0.0
C307 C 0.42655 0.53064 0.40895 0.0
N308 N 0.36303 0.55948 0.47981 0.0
N309 N 0.48206 0.56819 0.33381 0.0
H310 H 0.40862 0.47409 0.41945 0.0
H311 H 0.45315 0.50102 0.38608 0.0
H312 H 0.50324 0.59303 0.31243 0.0
H313 H 0.48002 0.54565 0.30235 0.0
H314 H 0.3616 0.58299 0.48945 0.0
H315 H 0.33794 0.5358 0.47375 0.0
H316 H 0.41029 0.6207 0.55002 0.0
H317 H 0.45504 0.64752 0.51804 0.0
C318 C 0.85993 0.43635 0.67593 0.0
C319 C 0.84366 0.43979 0.6017 0.0
C320 C 0.83457 0.38124 0.55041 0.0
C321 C 0.85439 0.37994 0.62007 0.0
N322 N 0.89146 0.40929 0.74178 0.0
N323 N 0.82139 0.41904 0.46103 0.0
C324 C 0.86857 0.4083 0.68102 0.0
C325 C 0.83246 0.41315 0.53692 0.0
N326 N 0.86597 0.45907 0.74277 0.0
N327 N 0.81667 0.35152 0.4988 0.0
H328 H 0.82014 0.4424 0.44766 0.0
H329 H 0.81669 0.40243 0.40866 0.0
H330 H 0.81715 0.32741 0.50714 0.0
H331 H 0.79865 0.34949 0.45257 0.0
H332 H 0.87428 0.45539 0.80157 0.0
H333 H 0.85935 0.47952 0.74212 0.0
H334 H 0.90565 0.43141 0.78223 0.0
H335 H 0.89899 0.38959 0.74687 0.0
C336 C 0.3701 0.81999 0.86315 0.0
C337 C 0.37107 0.84057 0.79184 0.0
C338 C 0.43581 0.86426 0.7769 0.0
C339 C 0.43409 0.841 0.84303 0.0
N340 N 0.39766 0.79043 0.93596 0.0
N341 N 0.40322 0.87553 0.66919 0.0
C342 C 0.40069 0.81709 0.88262 0.0
C343 C 0.40348 0.86087 0.74544 0.0
N344 N 0.34054 0.8043 0.91433 0.0
N345 N 0.46833 0.89061 0.74593 0.0
H346 H 0.37997 0.87269 0.64234 0.0
H347 H 0.42525 0.88712 0.6286 0.0
H348 H 0.49276 0.89434 0.76721 0.0
H349 H 0.47122 0.911 0.70473 0.0
H350 H 0.34002 0.79251 0.97214 0.0
H351 H 0.31768 0.80606 0.90315 0.0
H352 H 0.3731 0.7699 0.95963 0.0
H353 H 0.41903 0.78641 0.94963 0.0
C354 C 0.56111 0.42507 0.00528 0.0
C355 C 0.56181 0.40042 0.946 0.0
C356 C 0.62743 0.43898 0.93439 0.0
C357 C 0.62695 0.46181 -0.00104 0.0
N358 N 0.59446 0.47318 0.10696 0.0
N359 N 0.59536 0.38114 0.86023 0.0
C360 C 0.59407 0.45406 0.03721 0.0
C361 C 0.59494 0.40648 0.9126 0.0
N362 N 0.52896 0.42085 0.03113 0.0
N363 N 0.65861 0.44925 0.89126 0.0
H364 H 0.57202 0.35807 0.83886 0.0
H365 H 0.61884 0.38173 0.84199 0.0
H366 H 0.68286 0.47306 0.90486 0.0
H367 H 0.65993 0.43596 0.8375 0.0
H368 H 0.52684 0.44042 0.06613 0.0
H369 H 0.5041 0.39903 0.01259 0.0
H370 H 0.57177 0.46612 0.14336 0.0
H371 H 0.61808 0.49416 0.13351 0.0
C372 C 0.25257 0.48674 0.77575 0.0
C373 C 0.24275 0.47064 0.69475 0.0
C374 C 0.17928 0.44858 0.72447 0.0
C375 C 0.18927 0.46626 0.80381 0.0
N376 N 0.23556 0.50879 0.89787 0.0
N377 N 0.19849 0.4441 0.58411 0.0
C378 C 0.22602 0.4874 0.82731 0.0
C379 C 0.20659 0.45395 0.66664 0.0
N380 N 0.28679 0.49985 0.80495 0.0
N381 N 0.14382 0.42517 0.70595 0.0
H382 H 0.21795 0.44826 0.53952 0.0
H383 H 0.1732 0.43519 0.55812 0.0
H384 H 0.12295 0.42007 0.74706 0.0
H385 H 0.13524 0.40837 0.653 0.0
H386 H 0.29439 0.50804 0.86697 0.0
H387 H 0.30703 0.49982 0.76908 0.0
H388 H 0.26213 0.5275 0.91389 0.0
H389 H 0.21681 0.5104 0.93637 0.0
C390 C 0.70822 0.18406 0.9243 0.0
C391 C 0.7204 0.16849 0.9853 0.0
C392 C 0.7828 0.21535 0.95588 0.0
C393 C 0.77084 0.22796 0.88783 0.0
N394 N 0.72232 0.21934 0.79633 0.0
N395 N 0.76952 0.16451 0.04693 0.0
C396 C 0.73357 0.21105 0.86894 0.0
C397 C 0.75779 0.18282 -0.00209 0.0
N398 N 0.67275 0.17423 0.92119 0.0
N399 N 0.81781 0.235 0.982 0.0
H400 H 0.75214 0.13963 0.07601 0.0
H401 H 0.79651 0.17199 0.05148 0.0
H402 H 0.83678 0.25958 0.95407 0.0
H403 H 0.82706 0.22893 0.03663 0.0
H404 H 0.66326 0.18763 0.88367 0.0
H405 H 0.65337 0.1552 0.96202 0.0
H406 H 0.69576 0.20473 0.77541 0.0
H407 H 0.73987 0.23838 0.75279 0.0
C408 C 0.51995 0.73862 0.16617 0.0
C409 C 0.53045 0.71257 0.14894 0.0
C410 C 0.53944 0.73057 0.00075 0.0
C411 C 0.53393 0.7599 0.0208 0.0
N412 N 0.52439 0.79557 0.12526 0.0
N413 N 0.55489 0.68671 0.05245 0.0
C414 C 0.52534 0.76483 0.10409 0.0
C415 C 0.54115 0.70902 0.06672 0.0
N416 N 0.50421 0.73789 0.2414 0.0
N417 N 0.54236 0.72291 0.91855 0.0
H418 H 0.55699 0.67066 0.09908 0.0
H419 H 0.56704 0.6864 -0.00396 0.0
H420 H 0.54092 0.738 0.86854 0.0
H421 H 0.54278 0.69964 0.89964 0.0
H422 H 0.49277 0.75387 0.25418 0.0
H423 H 0.49935 0.71872 0.28812 0.0
H424 H 0.52247 0.80255 0.18711 0.0
H425 H 0.52885 0.81597 0.08226 0.0
C426 C 0.7466 0.50376 0.39235 0.0
C427 C 0.77811 0.53562 0.42087 0.0
C428 C 0.76605 0.57353 0.32605 0.0
C429 C 0.73647 0.54142 0.29183 0.0
N430 N 0.7011 0.47561 0.28363 0.0
N431 N 0.82043 0.60055 0.40925 0.0
C432 C 0.72721 0.50638 0.32299 0.0
C433 C 0.78869 0.57038 0.38575 0.0
N434 N 0.7353 0.47101 0.4314 0.0
N435 N 0.77139 0.60716 0.30494 0.0
H436 H 0.83672 0.60045 0.45735 0.0
H437 H 0.8319 0.62539 0.37738 0.0
H438 H 0.75524 0.61082 0.26223 0.0
H439 H 0.78965 0.63128 0.33542 0.0
H440 H 0.71037 0.44772 0.42042 0.0
H441 H 0.74994 0.46755 0.47894 0.0
H442 H 0.69583 0.44936 0.29711 0.0
H443 H 0.68641 0.47637 0.23247 0.0
C444 C 0.22599 0.78894 0.3751 0.0
C445 C 0.2189 0.75241 0.37667 0.0
C446 C 0.26071 0.76767 0.49461 0.0
C447 C 0.26438 0.80274 0.49875 0.0
N448 N 0.2482 0.84622 0.44937 0.0
N449 N 0.22529 0.70523 0.44468 0.0
C450 C 0.24627 0.8132 0.44097 0.0
C451 C 0.23535 0.7413 0.43784 0.0
N452 N 0.21488 0.80105 0.30852 0.0
N453 N 0.28139 0.75958 0.54499 0.0
H454 H 0.20621 0.68492 0.40552 0.0
H455 H 0.23342 0.69482 0.49366 0.0
H456 H 0.29941 0.77786 0.58922 0.0
H457 H 0.28279 0.73593 0.53856 0.0
H458 H 0.22283 0.82839 0.29896 0.0
H459 H 0.20046 0.78441 0.2582 0.0
H460 H 0.23185 0.8533 0.41607 0.0
H461 H 0.26449 0.86584 0.49363 0.0
C462 C 0.44237 0.22653 0.69185 0.0
C463 C 0.4738 0.2611 0.67868 0.0
C464 C 0.49215 0.23564 0.56384 0.0
C465 C 0.45899 0.20214 0.57195 0.0
N466 N 0.39921 0.16829 0.63118 0.0
N467 N 0.52659 0.30043 0.59681 0.0
C468 C 0.43318 0.19822 0.63264 0.0
C469 C 0.49824 0.2662 0.61325 0.0
N470 N 0.42192 0.22021 0.76253 0.0
N471 N 0.51818 0.23789 0.51086 0.0
H472 H 0.53195 0.32333 0.63237 0.0
H473 H 0.54313 0.30671 0.54427 0.0
H474 H 0.51462 0.21612 0.4735 0.0
H475 H 0.54428 0.26025 0.50873 0.0
H476 H 0.40121 0.19431 0.77991 0.0
H477 H 0.42765 0.24005 0.8082 0.0
H478 H 0.3782 0.166 0.66812 0.0
H479 H 0.39091 0.14736 0.58707 0.0
C480 C 0.99246 0.35666 0.96575 0.0
C481 C 0.02091 0.38309 0.91506 0.0
C482 C 0.97929 0.36846 0.79699 0.0
C483 C 0.95133 0.34057 0.84596 0.0
N484 N 0.93304 0.30241 0.96953 0.0
N485 N 0.04345 0.40711 0.77656 0.0
C486 C 0.95848 0.33288 0.92813 0.0
C487 C 0.01494 0.38678 0.82878 0.0
N488 N -0.00284 0.35554 0.05049 0.0
N489 N 0.97166 0.37907 0.72241 0.0
H490 H 0.07007 0.42029 0.79715 0.0
H491 H 0.04094 0.4077 0.71148 0.0
H492 H 0.94581 0.36713 0.69726 0.0
H493 H 0.99047 0.40208 0.68925 0.0
H494 H 0.97615 0.33964 0.09174 0.0
H495 H 0.0214 0.37279 0.08094 0.0
H496 H 0.93797 0.29341 0.02612 0.0
H497 H 0.90807 0.28409 0.94322 0.0
C498 C 0.57317 0.93876 0.05291 0.0
C499 C 0.58797 0.94055 0.97196 0.0
C500 C 0.63709 0.00286 0.00123 0.0
C501 C 0.61877 0.00311 0.07507 0.0
N502 N 0.57003 0.97214 0.17358 0.0
N503 N 0.63411 0.97326 0.86817 0.0
C504 C 0.58722 0.9711 0.10218 0.0
C505 C 0.62021 0.97223 0.94617 0.0
N506 N 0.54564 0.90627 0.08247 0.0
N507 N 0.67055 0.03188 0.9841 0.0
H508 H 0.62357 0.95057 0.82839 0.0
H509 H 0.65497 0.99687 0.84114 0.0
H510 H 0.68364 0.05449 0.02379 0.0
H511 H 0.68674 0.03228 0.93506 0.0
H512 H 0.53614 0.90236 0.14402 0.0
H513 H 0.53405 0.88214 0.04774 0.0
H514 H 0.54446 0.95143 0.19131 0.0
H515 H 0.58082 0.99474 0.2137 0.0
C516 C 0.67108 0.63224 0.27648 0.0
C517 C 0.68563 0.64692 0.19613 0.0
C518 C 0.65154 0.6786 0.1917 0.0
C519 C 0.63611 0.66295 0.27082 0.0
N520 N 0.63611 0.63164 0.39701 0.0
N521 N 0.69644 0.68969 0.08505 0.0
C522 C 0.64771 0.64214 0.31625 0.0
C523 C 0.67807 0.67207 0.15634 0.0
N524 N 0.67846 0.60764 0.31294 0.0
N525 N 0.64003 0.69888 0.14967 0.0
H526 H 0.71582 0.68511 0.05774 0.0
H527 H 0.69468 0.71075 0.05644 0.0
H528 H 0.62241 0.70617 0.17619 0.0
H529 H 0.64671 0.70741 0.0876 0.0
H530 H 0.66538 0.59233 0.36608 0.0
H531 H 0.69677 0.60114 0.28745 0.0
H532 H 0.6462 0.61952 0.43674 0.0
H533 H 0.6181 0.63749 0.42698 0.0
C534 C 0.02849 0.63899 0.44227 0.0
C535 C 0.03152 0.63708 0.35376 0.0
C536 C 0.9659 0.60511 0.34188 0.0
C537 C 0.963 0.60102 0.43059 0.0
N538 N 0.9923 0.61009 0.56553 0.0
N539 N 0.00251 0.61362 0.21935 0.0
C540 C 0.99446 0.61719 0.48122 0.0
C541 C 9e-05 0.61921 0.3032 0.0
N542 N 0.05799 0.66223 0.48899 0.0
N543 N 0.93607 0.5962 0.29468 0.0
H544 H 0.02685 0.62233 0.18842 0.0
H545 H 0.98012 0.59723 0.18206 0.0
H546 H 0.91075 0.58689 0.32126 0.0
H547 H 0.93725 0.60185 0.23061 0.0
H548 H 0.05655 0.6672 0.55268 0.0
H549 H 0.08314 0.67956 0.46219 0.0
H550 H 0.01488 0.61802 0.6031 0.0
H551 H 0.96814 0.59337 0.59679 0.0
C552 C 0.36469 0.03291 0.55489 0.0
C553 C 0.37857 0.03348 0.47379 0.0
C554 C 0.35583 0.96785 0.4829 0.0
C555 C 0.34834 0.96888 0.56954 0.0
N556 N 0.3474 0.00289 0.6905 0.0
N557 N 0.3878 0.00217 0.35882 0.0
C558 C 0.35258 0.00137 0.60608 0.0
C559 C 0.37396 0.00102 0.43691 0.0
N560 N 0.36344 0.06265 0.58297 0.0
N561 N 0.3447 0.93503 0.4442 0.0
H562 H 0.39925 0.02558 0.32133 0.0
H563 H 0.38947 0.98054 0.33294 0.0
H564 H 0.33044 0.91009 0.47557 0.0
H565 H 0.34638 0.93219 0.37956 0.0
H566 H 0.35079 0.06288 0.63861 0.0
H567 H 0.37187 0.08589 0.54611 0.0
H568 H 0.35408 0.027 0.7222 0.0
H569 H 0.33901 0.9806 0.73058 0.0
C570 C 0.32257 0.35694 0.75196 0.0
C571 C 0.33886 0.38178 0.6842 0.0
C572 C 0.38646 0.36662 0.67639 0.0
C573 C 0.37259 0.34516 0.75019 0.0
N574 N 0.3298 0.32251 0.86418 0.0
N575 N 0.38952 0.41516 0.59075 0.0
C576 C 0.34113 0.34083 0.78947 0.0
C577 C 0.3716 0.38786 0.64842 0.0
N578 N 0.28894 0.348 0.77874 0.0
N579 N 0.41313 0.36585 0.63151 0.0
H580 H 0.38001 0.43192 0.5694 0.0
H581 H 0.41545 0.42348 0.56978 0.0
H582 H 0.42442 0.3502 0.64929 0.0
H583 H 0.42161 0.37783 0.57247 0.0
H584 H 0.27404 0.32728 0.82191 0.0
H585 H 0.27453 0.35919 0.75241 0.0
H586 H 0.30948 0.32194 0.90077 0.0
H587 H 0.34253 0.31005 0.89297 0.0
loop_
_geom_bond_atom_site_label_1
_geom_bond_atom_site_label_2
_geom_bond_distance
_geom_bond_site_symmetry_2
_ccdc_geom_bond_type
C0 O1 1.160 . S
C0 O7 1.185 1_556 S
O1 C0 1.160 . S
O2 Zn3 1.899 1_556 S
O2 C10 1.284 . S
Zn3 O2 1.899 1_554 S
Zn3 O4 2.032 . S
Zn3 O7 2.086 . S
Zn3 O12 1.977 . S
O4 Zn3 2.032 . S
O4 C8 1.278 . S
C5 O6 1.203 . S
C5 O12 1.267 . S
O6 C5 1.203 . S
O7 C0 1.185 1_554 S
O7 Zn3 2.086 . S
C8 O4 1.278 . S
C8 O9 1.211 . S
O9 C8 1.211 . S
C10 O2 1.284 . S
C10 O11 1.273 . S
O11 C10 1.273 . S
O12 Zn3 1.977 . S
O12 C5 1.267 . S
C13 O14 1.160 . S
C13 O20 1.185 . S
O14 C13 1.160 . S
O15 Zn16 1.899 . S
O15 C23 1.284 . S
Zn16 O15 1.899 . S
Zn16 O17 2.032 . S
Zn16 O20 2.086 . S
Zn16 O25 1.977 . S
O17 Zn16 2.032 . S
O17 C21 1.278 . S
C18 O19 1.203 . S
C18 O25 1.267 . S
O19 C18 1.203 . S
O20 C13 1.185 . S
O20 Zn16 2.086 . S
C21 O17 1.278 . S
C21 O22 1.211 . S
O22 C21 1.211 . S
C23 O15 1.284 . S
C23 O24 1.273 . S
O24 C23 1.273 . S
O25 Zn16 1.977 . S
O25 C18 1.267 . S
C26 O27 1.160 . S
C26 O33 1.185 . S
O27 C26 1.160 . S
O28 Zn29 1.899 . S
O28 C36 1.284 . S
Zn29 O28 1.899 . S
Zn29 O30 2.032 . S
Zn29 O33 2.086 . S
Zn29 O38 1.977 . S
O30 Zn29 2.032 . S
O30 C34 1.278 . S
C31 O32 1.203 . S
C31 O38 1.267 . S
O32 C31 1.203 . S
O33 C26 1.185 . S
O33 Zn29 2.086 . S
C34 O30 1.278 . S
C34 O35 1.211 . S
O35 C34 1.211 . S
C36 O28 1.284 . S
C36 O37 1.273 . S
O37 C36 1.273 . S
O38 Zn29 1.977 . S
O38 C31 1.267 . S
C39 O40 1.160 . S
C39 O46 1.185 . S
O40 C39 1.160 . S
O41 Zn42 1.899 . S
O41 C49 1.284 . S
Zn42 O41 1.899 . S
Zn42 O43 2.032 . S
Zn42 O46 2.086 . S
Zn42 O51 1.977 . S
O43 Zn42 2.032 . S
O43 C47 1.278 . S
C44 O45 1.203 . S
C44 O51 1.267 . S
O45 C44 1.203 . S
O46 C39 1.185 . S
O46 Zn42 2.086 . S
C47 O43 1.278 . S
C47 O48 1.211 . S
O48 C47 1.211 . S
C49 O41 1.284 . S
C49 O50 1.273 . S
O50 C49 1.273 . S
O51 Zn42 1.977 . S
O51 C44 1.267 . S
C52 O53 1.160 . S
C52 O59 1.185 . S
O53 C52 1.160 . S
O54 Zn55 1.899 . S
O54 C62 1.284 . S
Zn55 O54 1.899 . S
Zn55 O56 2.032 . S
Zn55 O59 2.086 . S
Zn55 O64 1.977 . S
O56 Zn55 2.032 . S
O56 C60 1.278 . S
C57 O58 1.203 . S
C57 O64 1.267 . S
O58 C57 1.203 . S
O59 C52 1.185 . S
O59 Zn55 2.086 . S
C60 O56 1.278 . S
C60 O61 1.211 . S
O61 C60 1.211 . S
C62 O54 1.284 . S
C62 O63 1.273 . S
O63 C62 1.273 . S
O64 Zn55 1.977 . S
O64 C57 1.267 . S
C65 O66 1.160 . S
C65 O72 1.185 . S
O66 C65 1.160 . S
O67 Zn68 1.899 . S
O67 C75 1.284 . S
Zn68 O67 1.899 . S
Zn68 O69 2.032 . S
Zn68 O72 2.086 . S
Zn68 O77 1.977 . S
O69 Zn68 2.032 . S
O69 C73 1.278 . S
C70 O71 1.203 . S
C70 O77 1.267 . S
O71 C70 1.203 . S
O72 C65 1.185 . S
O72 Zn68 2.086 . S
C73 O69 1.278 . S
C73 O74 1.211 . S
O74 C73 1.211 . S
C75 O67 1.284 . S
C75 O76 1.273 . S
O76 C75 1.273 . S
O77 Zn68 1.977 . S
O77 C70 1.267 . S
C78 O79 1.160 . S
C78 O85 1.185 . S
O79 C78 1.160 . S
O80 Zn81 1.899 . S
O80 C88 1.284 . S
Zn81 O80 1.899 . S
Zn81 O82 2.032 . S
Zn81 O85 2.086 . S
Zn81 O90 1.977 . S
O82 Zn81 2.032 . S
O82 C86 1.278 1_556 S
C83 O84 1.203 . S
C83 O90 1.267 . S
O84 C83 1.203 . S
O85 C78 1.185 . S
O85 Zn81 2.086 . S
C86 O82 1.278 1_554 S
C86 O87 1.211 . S
O87 C86 1.211 . S
C88 O80 1.284 . S
C88 O89 1.273 . S
O89 C88 1.273 . S
O90 Zn81 1.977 . S
O90 C83 1.267 . S
C91 O92 1.160 . S
C91 O98 1.185 . S
O92 C91 1.160 . S
O93 Zn94 1.899 . S
O93 C101 1.284 . S
Zn94 O93 1.899 . S
Zn94 O95 2.032 . S
Zn94 O98 2.086 . S
Zn94 O103 1.977 1_554 S
O95 Zn94 2.032 . S
O95 C99 1.278 . S
C96 O97 1.203 . S
C96 O103 1.267 . S
O97 C96 1.203 . S
O98 C91 1.185 . S
O98 Zn94 2.086 . S
C99 O95 1.278 . S
C99 O100 1.211 1_554 S
O100 C99 1.211 1_556 S
C101 O93 1.284 . S
C101 O102 1.273 . S
O102 C101 1.273 . S
O103 Zn94 1.977 1_556 S
O103 C96 1.267 . S
C104 O105 1.160 . S
C104 O111 1.185 . S
O105 C104 1.160 . S
O106 Zn107 1.899 . S
O106 C114 1.284 . S
Zn107 O106 1.899 . S
Zn107 O108 2.032 . S
Zn107 O111 2.086 . S
Zn107 O116 1.977 . S
O108 Zn107 2.032 . S
O108 C112 1.278 . S
C109 O110 1.203 . S
C109 O116 1.267 . S
O110 C109 1.203 . S
O111 C104 1.185 . S
O111 Zn107 2.086 . S
C112 O108 1.278 . S
C112 O113 1.211 . S
O113 C112 1.211 . S
C114 O106 1.284 . S
C114 O115 1.273 . S
O115 C114 1.273 . S
O116 Zn107 1.977 . S
O116 C109 1.267 . S
C117 O118 1.160 . S
C117 O124 1.185 . S
O118 C117 1.160 . S
O119 Zn120 1.899 . S
O119 C127 1.284 . S
Zn120 O119 1.899 . S
Zn120 O121 2.032 . S
Zn120 O124 2.086 . S
Zn120 O129 1.977 . S
O121 Zn120 2.032 . S
O121 C125 1.278 . S
C122 O123 1.203 . S
C122 O129 1.267 . S
O123 C122 1.203 . S
O124 C117 1.185 . S
O124 Zn120 2.086 . S
C125 O121 1.278 . S
C125 O126 1.211 . S
O126 C125 1.211 . S
C127 O119 1.284 . S
C127 O128 1.273 . S
O128 C127 1.273 . S
O129 Zn120 1.977 . S
O129 C122 1.267 . S
C130 O131 1.160 . S
C130 O137 1.185 . S
O131 C130 1.160 . S
O132 Zn133 1.899 . S
O132 C140 1.284 . S
Zn133 O132 1.899 . S
Zn133 O134 2.032 . S
Zn133 O137 2.086 . S
Zn133 O142 1.977 . S
O134 Zn133 2.032 . S
O134 C138 1.278 . S
C135 O136 1.203 . S
C135 O142 1.267 . S
O136 C135 1.203 . S
O137 C130 1.185 . S
O137 Zn133 2.086 . S
C138 O134 1.278 . S
C138 O139 1.211 . S
O139 C138 1.211 . S
C140 O132 1.284 . S
C140 O141 1.273 . S
O141 C140 1.273 . S
O142 Zn133 1.977 . S
O142 C135 1.267 . S
C143 O144 1.160 . S
C143 O150 1.185 . S
O144 C143 1.160 . S
O145 Zn146 1.899 . S
O145 C153 1.284 . S
Zn146 O145 1.899 . S
Zn146 O147 2.032 . S
Zn146 O150 2.086 . S
Zn146 O155 1.977 . S
O147 Zn146 2.032 . S
O147 C151 1.278 . S
C148 O149 1.203 . S
C148 O155 1.267 . S
O149 C148 1.203 . S
O150 C143 1.185 . S
O150 Zn146 2.086 . S
C151 O147 1.278 . S
C151 O152 1.211 . S
O152 C151 1.211 . S
C153 O145 1.284 . S
C153 O154 1.273 . S
O154 C153 1.273 . S
O155 Zn146 1.977 . S
O155 C148 1.267 . S
C156 C157 1.363 . S
C156 C162 1.379 . S
C156 N164 1.356 . S
C157 C156 1.363 . S
C157 C163 1.363 . S
C158 C159 1.363 . S
C158 C163 1.379 . S
C158 N165 1.356 . S
C159 C158 1.363 . S
C159 C162 1.363 . S
N160 C162 1.356 . S
N160 H172 0.984 . S
N160 H173 0.985 . S
N161 C163 1.356 . S
N161 H166 0.984 . S
N161 H167 0.985 . S
C162 C156 1.379 . S
C162 C159 1.363 . S
C162 N160 1.356 . S
C163 C157 1.363 . S
C163 C158 1.379 . S
C163 N161 1.356 . S
N164 C156 1.356 . S
N164 H170 0.984 . S
N164 H171 0.984 . S
N165 C158 1.356 . S
N165 H168 0.984 . S
N165 H169 0.985 . S
H166 N161 0.984 . S
H167 N161 0.985 . S
H168 N165 0.984 . S
H169 N165 0.985 . S
H170 N164 0.984 . S
H171 N164 0.984 . S
H172 N160 0.984 . S
H173 N160 0.985 . S
C174 C175 1.363 . S
C174 C180 1.379 . S
C174 N182 1.356 . S
C175 C174 1.363 . S
C175 C181 1.363 . S
C176 C177 1.363 . S
C176 C181 1.379 . S
C176 N183 1.356 . S
C177 C176 1.363 . S
C177 C180 1.363 . S
N178 C180 1.356 . S
N178 H190 0.984 . S
N178 H191 0.985 . S
N179 C181 1.356 . S
N179 H184 0.984 . S
N179 H185 0.985 . S
C180 C174 1.379 . S
C180 C177 1.363 . S
C180 N178 1.356 . S
C181 C175 1.363 . S
C181 C176 1.379 . S
C181 N179 1.356 . S
N182 C174 1.356 . S
N182 H188 0.984 . S
N182 H189 0.984 . S
N183 C176 1.356 . S
N183 H186 0.984 . S
N183 H187 0.985 . S
H184 N179 0.984 . S
H185 N179 0.985 . S
H186 N183 0.984 . S
H187 N183 0.985 . S
H188 N182 0.984 . S
H189 N182 0.984 . S
H190 N178 0.984 . S
H191 N178 0.985 . S
C192 C193 1.363 . S
C192 C198 1.379 . S
C192 N200 1.356 . S
C193 C192 1.363 . S
C193 C199 1.363 . S
C194 C195 1.363 . S
C194 C199 1.379 . S
C194 N201 1.356 . S
C195 C194 1.363 . S
C195 C198 1.363 . S
N196 C198 1.356 . S
N196 H208 0.984 . S
N196 H209 0.985 . S
N197 C199 1.356 . S
N197 H202 0.984 . S
N197 H203 0.985 . S
C198 C192 1.379 . S
C198 C195 1.363 . S
C198 N196 1.356 . S
C199 C193 1.363 . S
C199 C194 1.379 . S
C199 N197 1.356 . S
N200 C192 1.356 . S
N200 H206 0.984 . S
N200 H207 0.984 . S
N201 C194 1.356 . S
N201 H204 0.984 . S
N201 H205 0.985 . S
H202 N197 0.984 . S
H203 N197 0.985 . S
H204 N201 0.984 . S
H205 N201 0.985 . S
H206 N200 0.984 . S
H207 N200 0.984 . S
H208 N196 0.984 . S
H209 N196 0.985 . S
C210 C211 1.363 . S
C210 C216 1.379 . S
C210 N218 1.356 . S
C211 C210 1.363 . S
C211 C217 1.363 . S
C212 C213 1.363 . S
C212 C217 1.379 . S
C212 N219 1.356 . S
C213 C212 1.363 . S
C213 C216 1.363 . S
N214 C216 1.356 . S
N214 H226 0.984 . S
N214 H227 0.985 . S
N215 C217 1.356 . S
N215 H220 0.984 . S
N215 H221 0.985 . S
C216 C210 1.379 . S
C216 C213 1.363 . S
C216 N214 1.356 . S
C217 C211 1.363 . S
C217 C212 1.379 . S
C217 N215 1.356 . S
N218 C210 1.356 . S
N218 H224 0.984 . S
N218 H225 0.984 . S
N219 C212 1.356 . S
N219 H222 0.984 . S
N219 H223 0.985 . S
H220 N215 0.984 . S
H221 N215 0.985 . S
H222 N219 0.984 . S
H223 N219 0.985 . S
H224 N218 0.984 . S
H225 N218 0.984 . S
H226 N214 0.984 . S
H227 N214 0.985 . S
C228 C229 1.363 . S
C228 C234 1.379 . S
C228 N236 1.356 . S
C229 C228 1.363 . S
C229 C235 1.363 . S
C230 C231 1.363 . S
C230 C235 1.379 1_554 S
C230 N237 1.356 . S
C231 C230 1.363 . S
C231 C234 1.363 1_554 S
N232 C234 1.356 . S
N232 H244 0.984 . S
N232 H245 0.985 1_556 S
N233 C235 1.356 . S
N233 H238 0.984 . S
N233 H239 0.985 1_556 S
C234 C228 1.379 . S
C234 C231 1.363 1_556 S
C234 N232 1.356 . S
C235 C229 1.363 . S
C235 C230 1.379 1_556 S
C235 N233 1.356 . S
N236 C228 1.356 . S
N236 H242 0.984 . S
N236 H243 0.984 . S
N237 C230 1.356 . S
N237 H240 0.984 . S
N237 H241 0.985 . S
H238 N233 0.984 . S
H239 N233 0.985 1_554 S
H240 N237 0.984 . S
H241 N237 0.985 . S
H242 N236 0.984 . S
H243 N236 0.984 . S
H244 N232 0.984 . S
H245 N232 0.985 1_554 S
C246 C247 1.363 . S
C246 C252 1.379 . S
C246 N254 1.356 . S
C247 C246 1.363 . S
C247 C253 1.363 . S
C248 C249 1.363 . S
C248 C253 1.379 . S
C248 N255 1.356 . S
C249 C248 1.363 . S
C249 C252 1.363 . S
N250 C252 1.356 1_556 S
N250 H262 0.984 . S
N250 H263 0.985 . S
N251 C253 1.356 . S
N251 H256 0.984 . S
N251 H257 0.985 . S
C252 C246 1.379 . S
C252 C249 1.363 . S
C252 N250 1.356 1_554 S
C253 C247 1.363 . S
C253 C248 1.379 . S
C253 N251 1.356 . S
N254 C246 1.356 . S
N254 H260 0.984 . S
N254 H261 0.984 . S
N255 C248 1.356 . S
N255 H258 0.984 . S
N255 H259 0.985 . S
H256 N251 0.984 . S
H257 N251 0.985 . S
H258 N255 0.984 . S
H259 N255 0.985 . S
H260 N254 0.984 . S
H261 N254 0.984 . S
H262 N250 0.984 . S
H263 N250 0.985 . S
C264 C265 1.363 . S
C264 C270 1.379 . S
C264 N272 1.356 1_554 S
C265 C264 1.363 . S
C265 C271 1.363 . S
C266 C267 1.363 . S
C266 C271 1.379 . S
C266 N273 1.356 . S
C267 C266 1.363 . S
C267 C270 1.363 . S
N268 C270 1.356 . S
N268 H280 0.984 . S
N268 H281 0.985 . S
N269 C271 1.356 . S
N269 H274 0.984 . S
N269 H275 0.985 . S
C270 C264 1.379 . S
C270 C267 1.363 . S
C270 N268 1.356 . S
C271 C265 1.363 . S
C271 C266 1.379 . S
C271 N269 1.356 . S
N272 C264 1.356 1_556 S
N272 H278 0.984 . S
N272 H279 0.984 . S
N273 C266 1.356 . S
N273 H276 0.984 . S
N273 H277 0.985 . S
H274 N269 0.984 . S
H275 N269 0.985 . S
H276 N273 0.984 . S
H277 N273 0.985 . S
H278 N272 0.984 . S
H279 N272 0.984 . S
H280 N268 0.984 . S
H281 N268 0.985 . S
C282 C283 1.363 . S
C282 C288 1.379 . S
C282 N290 1.356 . S
C283 C282 1.363 . S
C283 C289 1.363 . S
C284 C285 1.363 . S
C284 C289 1.379 . S
C284 N291 1.356 . S
C285 C284 1.363 . S
C285 C288 1.363 . S
N286 C288 1.356 . S
N286 H298 0.984 . S
N286 H299 0.985 . S
N287 C289 1.356 . S
N287 H292 0.984 . S
N287 H293 0.985 . S
C288 C282 1.379 . S
C288 C285 1.363 . S
C288 N286 1.356 . S
C289 C283 1.363 . S
C289 C284 1.379 . S
C289 N287 1.356 . S
N290 C282 1.356 . S
N290 H296 0.984 . S
N290 H297 0.984 . S
N291 C284 1.356 . S
N291 H294 0.984 . S
N291 H295 0.985 . S
H292 N287 0.984 . S
H293 N287 0.985 . S
H294 N291 0.984 . S
H295 N291 0.985 . S
H296 N290 0.984 . S
H297 N290 0.984 . S
H298 N286 0.984 . S
H299 N286 0.985 . S
C300 C301 1.363 . S
C300 C306 1.379 . S
C300 N308 1.356 . S
C301 C300 1.363 . S
C301 C307 1.363 . S
C302 C303 1.363 . S
C302 C307 1.379 . S
C302 N309 1.356 . S
C303 C302 1.363 . S
C303 C306 1.363 . S
N304 C306 1.356 . S
N304 H316 0.984 . S
N304 H317 0.985 . S
N305 C307 1.356 . S
N305 H310 0.984 . S
N305 H311 0.985 . S
C306 C300 1.379 . S
C306 C303 1.363 . S
C306 N304 1.356 . S
C307 C301 1.363 . S
C307 C302 1.379 . S
C307 N305 1.356 . S
N308 C300 1.356 . S
N308 H314 0.984 . S
N308 H315 0.984 . S
N309 C302 1.356 . S
N309 H312 0.984 . S
N309 H313 0.985 . S
H310 N305 0.984 . S
H311 N305 0.985 . S
H312 N309 0.984 . S
H313 N309 0.985 . S
H314 N308 0.984 . S
H315 N308 0.984 . S
H316 N304 0.984 . S
H317 N304 0.985 . S
C318 C319 1.363 . S
C318 C324 1.379 . S
C318 N326 1.356 . S
C319 C318 1.363 . S
C319 C325 1.363 . S
C320 C321 1.363 . S
C320 C325 1.379 . S
C320 N327 1.356 . S
C321 C320 1.363 . S
C321 C324 1.363 . S
N322 C324 1.356 . S
N322 H334 0.984 . S
N322 H335 0.985 . S
N323 C325 1.356 . S
N323 H328 0.984 . S
N323 H329 0.985 . S
C324 C318 1.379 . S
C324 C321 1.363 . S
C324 N322 1.356 . S
C325 C319 1.363 . S
C325 C320 1.379 . S
C325 N323 1.356 . S
N326 C318 1.356 . S
N326 H332 0.984 . S
N326 H333 0.984 . S
N327 C320 1.356 . S
N327 H330 0.984 . S
N327 H331 0.985 . S
H328 N323 0.984 . S
H329 N323 0.985 . S
H330 N327 0.984 . S
H331 N327 0.985 . S
H332 N326 0.984 . S
H333 N326 0.984 . S
H334 N322 0.984 . S
H335 N322 0.985 . S
C336 C337 1.363 . S
C336 C342 1.379 . S
C336 N344 1.356 . S
C337 C336 1.363 . S
C337 C343 1.363 . S
C338 C339 1.363 . S
C338 C343 1.379 . S
C338 N345 1.356 . S
C339 C338 1.363 . S
C339 C342 1.363 . S
N340 C342 1.356 . S
N340 H352 0.984 . S
N340 H353 0.985 . S
N341 C343 1.356 . S
N341 H346 0.984 . S
N341 H347 0.985 . S
C342 C336 1.379 . S
C342 C339 1.363 . S
C342 N340 1.356 . S
C343 C337 1.363 . S
C343 C338 1.379 . S
C343 N341 1.356 . S
N344 C336 1.356 . S
N344 H350 0.984 . S
N344 H351 0.984 . S
N345 C338 1.356 . S
N345 H348 0.984 . S
N345 H349 0.985 . S
H346 N341 0.984 . S
H347 N341 0.985 . S
H348 N345 0.984 . S
H349 N345 0.985 . S
H350 N344 0.984 . S
H351 N344 0.984 . S
H352 N340 0.984 . S
H353 N340 0.985 . S
C354 C355 1.363 . S
C354 C360 1.379 1_556 S
C354 N362 1.356 1_556 S
C355 C354 1.363 . S
C355 C361 1.363 . S
C356 C357 1.363 . S
C356 C361 1.379 . S
C356 N363 1.356 . S
C357 C356 1.363 . S
C357 C360 1.363 1_556 S
N358 C360 1.356 . S
N358 H370 0.984 . S
N358 H371 0.985 . S
N359 C361 1.356 . S
N359 H364 0.984 . S
N359 H365 0.985 . S
C360 C354 1.379 1_554 S
C360 C357 1.363 1_554 S
C360 N358 1.356 . S
C361 C355 1.363 . S
C361 C356 1.379 . S
C361 N359 1.356 . S
N362 C354 1.356 1_554 S
N362 H368 0.984 . S
N362 H369 0.984 1_554 S
N363 C356 1.356 . S
N363 H366 0.984 . S
N363 H367 0.985 . S
H364 N359 0.984 . S
H365 N359 0.985 . S
H366 N363 0.984 . S
H367 N363 0.985 . S
H368 N362 0.984 . S
H369 N362 0.984 1_556 S
H370 N358 0.984 . S
H371 N358 0.985 . S
C372 C373 1.363 . S
C372 C378 1.379 . S
C372 N380 1.356 . S
C373 C372 1.363 . S
C373 C379 1.363 . S
C374 C375 1.363 . S
C374 C379 1.379 . S
C374 N381 1.356 . S
C375 C374 1.363 . S
C375 C378 1.363 . S
N376 C378 1.356 . S
N376 H388 0.984 . S
N376 H389 0.985 . S
N377 C379 1.356 . S
N377 H382 0.984 . S
N377 H383 0.985 . S
C378 C372 1.379 . S
C378 C375 1.363 . S
C378 N376 1.356 . S
C379 C373 1.363 . S
C379 C374 1.379 . S
C379 N377 1.356 . S
N380 C372 1.356 . S
N380 H386 0.984 . S
N380 H387 0.984 . S
N381 C374 1.356 . S
N381 H384 0.984 . S
N381 H385 0.985 . S
H382 N377 0.984 . S
H383 N377 0.985 . S
H384 N381 0.984 . S
H385 N381 0.985 . S
H386 N380 0.984 . S
H387 N380 0.984 . S
H388 N376 0.984 . S
H389 N376 0.985 . S
C390 C391 1.363 1_556 S
C390 C396 1.379 . S
C390 N398 1.356 1_556 S
C391 C390 1.363 1_554 S
C391 C397 1.363 . S
C392 C393 1.363 . S
C392 C397 1.379 1_556 S
C392 N399 1.356 . S
C393 C392 1.363 . S
C393 C396 1.363 . S
N394 C396 1.356 . S
N394 H406 0.984 . S
N394 H407 0.985 . S
N395 C397 1.356 . S
N395 H400 0.984 . S
N395 H401 0.985 . S
C396 C390 1.379 . S
C396 C393 1.363 . S
C396 N394 1.356 . S
C397 C391 1.363 . S
C397 C392 1.379 1_554 S
C397 N395 1.356 . S
N398 C390 1.356 1_554 S
N398 H404 0.984 1_554 S
N398 H405 0.984 . S
N399 C392 1.356 . S
N399 H402 0.984 . S
N399 H403 0.985 . S
H400 N395 0.984 . S
H401 N395 0.985 . S
H402 N399 0.984 . S
H403 N399 0.985 . S
H404 N398 0.984 1_556 S
H405 N398 0.984 . S
H406 N394 0.984 . S
H407 N394 0.985 . S
C408 C409 1.363 . S
C408 C414 1.379 . S
C408 N416 1.356 . S
C409 C408 1.363 . S
C409 C415 1.363 . S
C410 C411 1.363 . S
C410 C415 1.379 . S
C410 N417 1.356 1_554 S
C411 C410 1.363 . S
C411 C414 1.363 . S
N412 C414 1.356 . S
N412 H424 0.984 . S
N412 H425 0.985 . S
N413 C415 1.356 . S
N413 H418 0.984 . S
N413 H419 0.985 . S
C414 C408 1.379 . S
C414 C411 1.363 . S
C414 N412 1.356 . S
C415 C409 1.363 . S
C415 C410 1.379 . S
C415 N413 1.356 . S
N416 C408 1.356 . S
N416 H422 0.984 . S
N416 H423 0.984 . S
N417 C410 1.356 1_556 S
N417 H420 0.984 . S
N417 H421 0.985 . S
H418 N413 0.984 . S
H419 N413 0.985 . S
H420 N417 0.984 . S
H421 N417 0.985 . S
H422 N416 0.984 . S
H423 N416 0.984 . S
H424 N412 0.984 . S
H425 N412 0.985 . S
C426 C427 1.363 . S
C426 C432 1.379 . S
C426 N434 1.356 . S
C427 C426 1.363 . S
C427 C433 1.363 . S
C428 C429 1.363 . S
C428 C433 1.379 . S
C428 N435 1.356 . S
C429 C428 1.363 . S
C429 C432 1.363 . S
N430 C432 1.356 . S
N430 H442 0.984 . S
N430 H443 0.985 . S
N431 C433 1.356 . S
N431 H436 0.984 . S
N431 H437 0.985 . S
C432 C426 1.379 . S
C432 C429 1.363 . S
C432 N430 1.356 . S
C433 C427 1.363 . S
C433 C428 1.379 . S
C433 N431 1.356 . S
N434 C426 1.356 . S
N434 H440 0.984 . S
N434 H441 0.984 . S
N435 C428 1.356 . S
N435 H438 0.984 . S
N435 H439 0.985 . S
H436 N431 0.984 . S
H437 N431 0.985 . S
H438 N435 0.984 . S
H439 N435 0.985 . S
H440 N434 0.984 . S
H441 N434 0.984 . S
H442 N430 0.984 . S
H443 N430 0.985 . S
C444 C445 1.363 . S
C444 C450 1.379 . S
C444 N452 1.356 . S
C445 C444 1.363 . S
C445 C451 1.363 . S
C446 C447 1.363 . S
C446 C451 1.379 . S
C446 N453 1.356 . S
C447 C446 1.363 . S
C447 C450 1.363 . S
N448 C450 1.356 . S
N448 H460 0.984 . S
N448 H461 0.985 . S
N449 C451 1.356 . S
N449 H454 0.984 . S
N449 H455 0.985 . S
C450 C444 1.379 . S
C450 C447 1.363 . S
C450 N448 1.356 . S
C451 C445 1.363 . S
C451 C446 1.379 . S
C451 N449 1.356 . S
N452 C444 1.356 . S
N452 H458 0.984 . S
N452 H459 0.984 . S
N453 C446 1.356 . S
N453 H456 0.984 . S
N453 H457 0.985 . S
H454 N449 0.984 . S
H455 N449 0.985 . S
H456 N453 0.984 . S
H457 N453 0.985 . S
H458 N452 0.984 . S
H459 N452 0.984 . S
H460 N448 0.984 . S
H461 N448 0.985 . S
C462 C463 1.363 . S
C462 C468 1.379 . S
C462 N470 1.356 . S
C463 C462 1.363 . S
C463 C469 1.363 . S
C464 C465 1.363 . S
C464 C469 1.379 . S
C464 N471 1.356 . S
C465 C464 1.363 . S
C465 C468 1.363 . S
N466 C468 1.356 . S
N466 H478 0.984 . S
N466 H479 0.985 . S
N467 C469 1.356 . S
N467 H472 0.984 . S
N467 H473 0.985 . S
C468 C462 1.379 . S
C468 C465 1.363 . S
C468 N466 1.356 . S
C469 C463 1.363 . S
C469 C464 1.379 . S
C469 N467 1.356 . S
N470 C462 1.356 . S
N470 H476 0.984 . S
N470 H477 0.984 . S
N471 C464 1.356 . S
N471 H474 0.984 . S
N471 H475 0.985 . S
H472 N467 0.984 . S
H473 N467 0.985 . S
H474 N471 0.984 . S
H475 N471 0.985 . S
H476 N470 0.984 . S
H477 N470 0.984 . S
H478 N466 0.984 . S
H479 N466 0.985 . S
C480 C481 1.363 1_655 S
C480 C486 1.379 . S
C480 N488 1.356 1_556 S
C481 C480 1.363 1_455 S
C481 C487 1.363 . S
C482 C483 1.363 1_455 S
C482 C487 1.379 . S
C482 N489 1.363 . S
C483 C482 1.363 1_655 S
C483 C486 1.363 . S
N484 C486 1.356 . S
N484 H496 0.984 . S
N484 H497 0.985 . S
N485 C487 1.356 . S
N485 H490 0.984 . S
N485 H491 0.985 . S
C486 C480 1.379 . S
C486 C483 1.363 . S
C486 N484 1.356 . S
C487 C481 1.363 . S
C487 C482 1.379 . S
C487 N485 1.356 . S
N488 C480 1.356 1_554 S
N488 H494 0.983 . S
N488 H495 0.987 1_655 S
N489 C482 1.363 . S
N489 H492 0.957 1_455 S
N489 H493 1.006 . S
H490 N485 0.984 . S
H491 N485 0.985 . S
H492 N489 0.957 1_655 S
H493 N489 1.006 . S
H494 N488 0.983 . S
H495 N488 0.987 1_455 S
H496 N484 0.984 . S
H497 N484 0.985 . S
C498 C499 1.363 1_554 S
C498 C504 1.379 . S
C498 N506 1.356 . S
C499 C498 1.363 1_556 S
C499 C505 1.363 1_565 S
C500 C501 1.363 . S
C500 C505 1.379 1_554 S
C500 N507 1.356 . S
C501 C500 1.363 . S
C501 C504 1.363 1_545 S
N502 C504 1.356 1_545 S
N502 H514 0.984 1_545 S
N502 H515 0.985 . S
N503 C505 1.356 1_565 S
N503 H508 0.984 . S
N503 H509 0.985 1_565 S
C504 C498 1.379 . S
C504 C501 1.363 1_565 S
C504 N502 1.356 1_565 S
C505 C499 1.363 1_545 S
C505 C500 1.379 1_556 S
C505 N503 1.356 1_545 S
N506 C498 1.356 . S
N506 H512 0.984 . S
N506 H513 0.984 1_554 S
N507 C500 1.356 . S
N507 H510 0.984 . S
N507 H511 0.985 . S
H508 N503 0.984 . S
H509 N503 0.985 1_545 S
H510 N507 0.984 . S
H511 N507 0.985 . S
H512 N506 0.984 . S
H513 N506 0.984 1_556 S
H514 N502 0.984 1_565 S
H515 N502 0.985 . S
C516 C517 1.363 . S
C516 C522 1.379 . S
C516 N524 1.356 . S
C517 C516 1.363 . S
C517 C523 1.363 . S
C518 C519 1.363 . S
C518 C523 1.379 . S
C518 N525 1.356 . S
C519 C518 1.363 . S
C519 C522 1.363 . S
N520 C522 1.356 . S
N520 H532 0.984 . S
N520 H533 0.985 . S
N521 C523 1.356 . S
N521 H526 0.984 . S
N521 H527 0.985 . S
C522 C516 1.379 . S
C522 C519 1.363 . S
C522 N520 1.356 . S
C523 C517 1.363 . S
C523 C518 1.379 . S
C523 N521 1.356 . S
N524 C516 1.356 . S
N524 H530 0.984 . S
N524 H531 0.984 . S
N525 C518 1.356 . S
N525 H528 0.984 . S
N525 H529 0.985 . S
H526 N521 0.984 . S
H527 N521 0.985 . S
H528 N525 0.984 . S
H529 N525 0.985 . S
H530 N524 0.984 . S
H531 N524 0.984 . S
H532 N520 0.984 . S
H533 N520 0.985 . S
C534 C535 1.363 . S
C534 C540 1.379 . S
C534 N542 1.356 . S
C535 C534 1.363 . S
C535 C541 1.363 1_455 S
C536 C537 1.363 . S
C536 C541 1.379 . S
C536 N543 1.356 . S
C537 C536 1.363 . S
C537 C540 1.363 1_655 S
N538 C540 1.356 . S
N538 H550 0.985 . S
N538 H551 0.984 1_455 S
N539 C541 1.356 . S
N539 H544 0.984 1_655 S
N539 H545 0.985 . S
C540 C534 1.379 . S
C540 C537 1.363 1_455 S
C540 N538 1.356 . S
C541 C535 1.363 1_655 S
C541 C536 1.379 . S
C541 N539 1.356 . S
N542 C534 1.356 . S
N542 H548 0.984 . S
N542 H549 0.984 . S
N543 C536 1.356 . S
N543 H546 0.984 . S
N543 H547 0.985 . S
H544 N539 0.984 1_455 S
H545 N539 0.985 . S
H546 N543 0.984 . S
H547 N543 0.985 . S
H548 N542 0.984 . S
H549 N542 0.984 . S
H550 N538 0.985 . S
H551 N538 0.984 1_655 S
C552 C553 1.363 . S
C552 C558 1.379 . S
C552 N560 1.356 . S
C553 C552 1.363 . S
C553 C559 1.363 1_545 S
C554 C555 1.363 . S
C554 C559 1.379 . S
C554 N561 1.356 . S
C555 C554 1.363 . S
C555 C558 1.363 1_565 S
N556 C558 1.356 1_565 S
N556 H568 0.984 1_565 S
N556 H569 0.985 . S
N557 C559 1.356 1_545 S
N557 H562 0.984 . S
N557 H563 0.985 1_545 S
C558 C552 1.379 . S
C558 C555 1.363 1_545 S
C558 N556 1.356 1_545 S
C559 C553 1.363 1_565 S
C559 C554 1.379 . S
C559 N557 1.356 1_565 S
N560 C552 1.356 . S
N560 H566 0.984 . S
N560 H567 0.984 . S
N561 C554 1.356 . S
N561 H564 0.984 . S
N561 H565 0.985 . S
H562 N557 0.984 . S
H563 N557 0.985 1_565 S
H564 N561 0.984 . S
H565 N561 0.985 . S
H566 N560 0.984 . S
H567 N560 0.984 . S
H568 N556 0.984 1_545 S
H569 N556 0.985 . S
C570 C571 1.363 . S
C570 C576 1.379 . S
C570 N578 1.356 . S
C571 C570 1.363 . S
C571 C577 1.363 . S
C572 C573 1.363 . S
C572 C577 1.379 . S
C572 N579 1.356 . S
C573 C572 1.363 . S
C573 C576 1.363 . S
N574 C576 1.356 . S
N574 H586 0.984 . S
N574 H587 0.985 . S
N575 C577 1.356 . S
N575 H580 0.984 . S
N575 H581 0.985 . S
C576 C570 1.379 . S
C576 C573 1.363 . S
C576 N574 1.356 . S
C577 C571 1.363 . S
C577 C572 1.379 . S
C577 N575 1.356 . S
N578 C570 1.356 . S
N578 H584 0.984 . S
N578 H585 0.984 . S
N579 C572 1.356 . S
N579 H582 0.984 . S
N579 H583 0.985 . S
H580 N575 0.984 . S
H581 N575 0.985 . S
H582 N579 0.984 . S
H583 N579 0.985 . S
H584 N578 0.984 . S
H585 N578 0.984 . S
H586 N574 0.984 . S
H587 N574 0.985 . S
C157 C5 1.234 . S
C159 C135 1.234 . S
C175 C148 1.210 . S
C177 C13 1.235 . S
C193 C31 1.210 . S
C195 C78 1.235 . S
C211 C44 1.234 . S
C213 C96 1.234 . S
C229 C52 1.235 . S
C231 C109 1.210 . S
C247 C117 1.235 . S
C249 C70 1.210 1_554 S
C265 C8 1.522 . S
C267 C112 1.520 . S
C283 C23 1.570 . S
C285 C127 1.570 . S
C301 C138 1.522 . S
C303 C34 1.520 . S
C319 C47 1.522 . S
C321 C151 1.520 . S
C337 C62 1.569 . S
C339 C88 1.569 . S
C355 C73 1.520 . S
C357 C99 1.522 1_556 S
C373 C140 1.251 . S
C375 C10 1.251 . S
C391 C21 1.217 . S
C393 C153 1.231 . S
C409 C36 1.231 . S
C411 C86 1.217 . S
C427 C49 1.251 . S
C429 C101 1.251 . S
C445 C114 1.231 . S
C447 C60 1.217 . S
C463 C75 1.231 . S
C465 C125 1.217 . S
C481 C0 1.431 . S
C483 C143 1.432 . S
C499 C83 1.432 . S
C501 C18 1.432 . S
C517 C91 1.431 . S
C519 C26 1.432 . S
C535 C104 1.432 . S
C537 C39 1.431 . S
C553 C122 1.432 . S
C555 C57 1.432 . S
C571 C130 1.431 . S
C573 C65 1.432 . S
