# Generated by pormake.
# Topology wgj, (5)-cn, num edge types: 1
# Building blocks:
#     Node 0, Type 0, BuildingBlock: XOMCOT_clean_sbu_1, # of connection points: 5
#     Node 1, Type 0, BuildingBlock: XOMCOT_clean_sbu_1, # of connection points: 5
#     Node 2, Type 0, BuildingBlock: XOMCOT_clean_sbu_1, # of connection points: 5
#     Node 3, Type 0, BuildingBlock: XOMCOT_clean_sbu_1, # of connection points: 5
#     Node 4, Type 0, BuildingBlock: XOMCOT_clean_sbu_1, # of connection points: 5
#     Node 5, Type 0, BuildingBlock: XOMCOT_clean_sbu_1, # of connection points: 5
#     Node 6, Type 0, BuildingBlock: XOMCOT_clean_sbu_1, # of connection points: 5
#     Node 7, Type 0, BuildingBlock: XOMCOT_clean_sbu_1, # of connection points: 5
#     Node 8, Type 0, BuildingBlock: XOMCOT_clean_sbu_1, # of connection points: 5
#     Node 9, Type 0, BuildingBlock: XOMCOT_clean_sbu_1, # of connection points: 5
#     Node 10, Type 0, BuildingBlock: XOMCOT_clean_sbu_1, # of connection points: 5
#     Node 11, Type 0, BuildingBlock: XOMCOT_clean_sbu_1, # of connection points: 5
#     Node 12, Type 0, BuildingBlock: XOMCOT_clean_sbu_1, # of connection points: 5
#     Node 13, Type 0, BuildingBlock: XOMCOT_clean_sbu_1, # of connection points: 5
#     Node 14, Type 0, BuildingBlock: XOMCOT_clean_sbu_1, # of connection points: 5
#     Node 15, Type 0, BuildingBlock: XOMCOT_clean_sbu_1, # of connection points: 5
#     Node 16, Type 0, BuildingBlock: XOMCOT_clean_sbu_1, # of connection points: 5
#     Node 17, Type 0, BuildingBlock: XOMCOT_clean_sbu_1, # of connection points: 5
#     Node 18, Type 0, BuildingBlock: XOMCOT_clean_sbu_1, # of connection points: 5
#     Node 19, Type 0, BuildingBlock: XOMCOT_clean_sbu_1, # of connection points: 5
#     Node 20, Type 0, BuildingBlock: XOMCOT_clean_sbu_1, # of connection points: 5
#     Node 21, Type 0, BuildingBlock: XOMCOT_clean_sbu_1, # of connection points: 5
#     Node 22, Type 0, BuildingBlock: XOMCOT_clean_sbu_1, # of connection points: 5
#     Node 23, Type 0, BuildingBlock: XOMCOT_clean_sbu_1, # of connection points: 5
#     Node 24, Type 0, BuildingBlock: XOMCOT_clean_sbu_1, # of connection points: 5
#     Node 25, Type 0, BuildingBlock: XOMCOT_clean_sbu_1, # of connection points: 5
#     Node 26, Type 0, BuildingBlock: XOMCOT_clean_sbu_1, # of connection points: 5
#     Node 27, Type 0, BuildingBlock: XOMCOT_clean_sbu_1, # of connection points: 5
#     Node 28, Type 0, BuildingBlock: XOMCOT_clean_sbu_1, # of connection points: 5
#     Node 29, Type 0, BuildingBlock: XOMCOT_clean_sbu_1, # of connection points: 5
#     Node 30, Type 0, BuildingBlock: XOMCOT_clean_sbu_1, # of connection points: 5
#     Node 31, Type 0, BuildingBlock: XOMCOT_clean_sbu_1, # of connection points: 5
#     Edge 32, Type (0, 0), BuildingBlock: EZIPEK_clean_linker_0, # of connection points: 2
#     Edge 33, Type (0, 0), BuildingBlock: EZIPEK_clean_linker_0, # of connection points: 2
#     Edge 34, Type (0, 0), BuildingBlock: EZIPEK_clean_linker_0, # of connection points: 2
#     Edge 35, Type (0, 0), BuildingBlock: EZIPEK_clean_linker_0, # of connection points: 2
#     Edge 36, Type (0, 0), BuildingBlock: EZIPEK_clean_linker_0, # of connection points: 2
#     Edge 37, Type (0, 0), BuildingBlock: EZIPEK_clean_linker_0, # of connection points: 2
#     Edge 38, Type (0, 0), BuildingBlock: EZIPEK_clean_linker_0, # of connection points: 2
#     Edge 39, Type (0, 0), BuildingBlock: EZIPEK_clean_linker_0, # of connection points: 2
#     Edge 40, Type (0, 0), BuildingBlock: EZIPEK_clean_linker_0, # of connection points: 2
#     Edge 41, Type (0, 0), BuildingBlock: EZIPEK_clean_linker_0, # of connection points: 2
#     Edge 42, Type (0, 0), BuildingBlock: EZIPEK_clean_linker_0, # of connection points: 2
#     Edge 43, Type (0, 0), BuildingBlock: EZIPEK_clean_linker_0, # of connection points: 2
#     Edge 44, Type (0, 0), BuildingBlock: EZIPEK_clean_linker_0, # of connection points: 2
#     Edge 45, Type (0, 0), BuildingBlock: EZIPEK_clean_linker_0, # of connection points: 2
#     Edge 46, Type (0, 0), BuildingBlock: EZIPEK_clean_linker_0, # of connection points: 2
#     Edge 47, Type (0, 0), BuildingBlock: EZIPEK_clean_linker_0, # of connection points: 2
#     Edge 48, Type (0, 0), BuildingBlock: EZIPEK_clean_linker_0, # of connection points: 2
#     Edge 49, Type (0, 0), BuildingBlock: EZIPEK_clean_linker_0, # of connection points: 2
#     Edge 50, Type (0, 0), BuildingBlock: EZIPEK_clean_linker_0, # of connection points: 2
#     Edge 51, Type (0, 0), BuildingBlock: EZIPEK_clean_linker_0, # of connection points: 2
#     Edge 52, Type (0, 0), BuildingBlock: EZIPEK_clean_linker_0, # of connection points: 2
#     Edge 53, Type (0, 0), BuildingBlock: EZIPEK_clean_linker_0, # of connection points: 2
#     Edge 54, Type (0, 0), BuildingBlock: EZIPEK_clean_linker_0, # of connection points: 2
#     Edge 55, Type (0, 0), BuildingBlock: EZIPEK_clean_linker_0, # of connection points: 2
#     Edge 56, Type (0, 0), BuildingBlock: EZIPEK_clean_linker_0, # of connection points: 2
#     Edge 57, Type (0, 0), BuildingBlock: EZIPEK_clean_linker_0, # of connection points: 2
#     Edge 58, Type (0, 0), BuildingBlock: EZIPEK_clean_linker_0, # of connection points: 2
#     Edge 59, Type (0, 0), BuildingBlock: EZIPEK_clean_linker_0, # of connection points: 2
#     Edge 60, Type (0, 0), BuildingBlock: EZIPEK_clean_linker_0, # of connection points: 2
#     Edge 61, Type (0, 0), BuildingBlock: EZIPEK_clean_linker_0, # of connection points: 2
#     Edge 62, Type (0, 0), BuildingBlock: EZIPEK_clean_linker_0, # of connection points: 2
#     Edge 63, Type (0, 0), BuildingBlock: EZIPEK_clean_linker_0, # of connection points: 2
#     Edge 64, Type (0, 0), BuildingBlock: EZIPEK_clean_linker_0, # of connection points: 2
#     Edge 65, Type (0, 0), BuildingBlock: EZIPEK_clean_linker_0, # of connection points: 2
#     Edge 66, Type (0, 0), BuildingBlock: EZIPEK_clean_linker_0, # of connection points: 2
#     Edge 67, Type (0, 0), BuildingBlock: EZIPEK_clean_linker_0, # of connection points: 2
#     Edge 68, Type (0, 0), BuildingBlock: EZIPEK_clean_linker_0, # of connection points: 2
#     Edge 69, Type (0, 0), BuildingBlock: EZIPEK_clean_linker_0, # of connection points: 2
#     Edge 70, Type (0, 0), BuildingBlock: EZIPEK_clean_linker_0, # of connection points: 2
#     Edge 71, Type (0, 0), BuildingBlock: EZIPEK_clean_linker_0, # of connection points: 2
#     Edge 72, Type (0, 0), BuildingBlock: EZIPEK_clean_linker_0, # of connection points: 2
#     Edge 73, Type (0, 0), BuildingBlock: EZIPEK_clean_linker_0, # of connection points: 2
#     Edge 74, Type (0, 0), BuildingBlock: EZIPEK_clean_linker_0, # of connection points: 2
#     Edge 75, Type (0, 0), BuildingBlock: EZIPEK_clean_linker_0, # of connection points: 2
#     Edge 76, Type (0, 0), BuildingBlock: EZIPEK_clean_linker_0, # of connection points: 2
#     Edge 77, Type (0, 0), BuildingBlock: EZIPEK_clean_linker_0, # of connection points: 2
#     Edge 78, Type (0, 0), BuildingBlock: EZIPEK_clean_linker_0, # of connection points: 2
#     Edge 79, Type (0, 0), BuildingBlock: EZIPEK_clean_linker_0, # of connection points: 2
#     Edge 80, Type (0, 0), BuildingBlock: EZIPEK_clean_linker_0, # of connection points: 2
#     Edge 81, Type (0, 0), BuildingBlock: EZIPEK_clean_linker_0, # of connection points: 2
#     Edge 82, Type (0, 0), BuildingBlock: EZIPEK_clean_linker_0, # of connection points: 2
#     Edge 83, Type (0, 0), BuildingBlock: EZIPEK_clean_linker_0, # of connection points: 2
#     Edge 84, Type (0, 0), BuildingBlock: EZIPEK_clean_linker_0, # of connection points: 2
#     Edge 85, Type (0, 0), BuildingBlock: EZIPEK_clean_linker_0, # of connection points: 2
#     Edge 86, Type (0, 0), BuildingBlock: EZIPEK_clean_linker_0, # of connection points: 2
#     Edge 87, Type (0, 0), BuildingBlock: EZIPEK_clean_linker_0, # of connection points: 2
#     Edge 88, Type (0, 0), BuildingBlock: EZIPEK_clean_linker_0, # of connection points: 2
#     Edge 89, Type (0, 0), BuildingBlock: EZIPEK_clean_linker_0, # of connection points: 2
#     Edge 90, Type (0, 0), BuildingBlock: EZIPEK_clean_linker_0, # of connection points: 2
#     Edge 91, Type (0, 0), BuildingBlock: EZIPEK_clean_linker_0, # of connection points: 2
#     Edge 92, Type (0, 0), BuildingBlock: EZIPEK_clean_linker_0, # of connection points: 2
#     Edge 93, Type (0, 0), BuildingBlock: EZIPEK_clean_linker_0, # of connection points: 2
#     Edge 94, Type (0, 0), BuildingBlock: EZIPEK_clean_linker_0, # of connection points: 2
#     Edge 95, Type (0, 0), BuildingBlock: EZIPEK_clean_linker_0, # of connection points: 2
#     Edge 96, Type (0, 0), BuildingBlock: EZIPEK_clean_linker_0, # of connection points: 2
#     Edge 97, Type (0, 0), BuildingBlock: EZIPEK_clean_linker_0, # of connection points: 2
#     Edge 98, Type (0, 0), BuildingBlock: EZIPEK_clean_linker_0, # of connection points: 2
#     Edge 99, Type (0, 0), BuildingBlock: EZIPEK_clean_linker_0, # of connection points: 2
#     Edge 100, Type (0, 0), BuildingBlock: EZIPEK_clean_linker_0, # of connection points: 2
#     Edge 101, Type (0, 0), BuildingBlock: EZIPEK_clean_linker_0, # of connection points: 2
#     Edge 102, Type (0, 0), BuildingBlock: EZIPEK_clean_linker_0, # of connection points: 2
#     Edge 103, Type (0, 0), BuildingBlock: EZIPEK_clean_linker_0, # of connection points: 2
#     Edge 104, Type (0, 0), BuildingBlock: EZIPEK_clean_linker_0, # of connection points: 2
#     Edge 105, Type (0, 0), BuildingBlock: EZIPEK_clean_linker_0, # of connection points: 2
#     Edge 106, Type (0, 0), BuildingBlock: EZIPEK_clean_linker_0, # of connection points: 2
#     Edge 107, Type (0, 0), BuildingBlock: EZIPEK_clean_linker_0, # of connection points: 2
#     Edge 108, Type (0, 0), BuildingBlock: EZIPEK_clean_linker_0, # of connection points: 2
#     Edge 109, Type (0, 0), BuildingBlock: EZIPEK_clean_linker_0, # of connection points: 2
#     Edge 110, Type (0, 0), BuildingBlock: EZIPEK_clean_linker_0, # of connection points: 2
#     Edge 111, Type (0, 0), BuildingBlock: EZIPEK_clean_linker_0, # of connection points: 2
# Relax obj value: 0.278
# Max RMSD: 0.146
# Mean RMSD: 0.146
data_MOF--net-wgj--node1-XOMCOT_clean_sbu_1--edge1-EZIPEK_clean_linker_0
_symmetry_space_group_name_H-M    P1
_symmetry_Int_Tables_number       1
_symmetry_cell_setting            triclinic
loop_
_symmetry_equiv_pos_as_xyz
'x, y, z'
_cell_length_a     51.998208
_cell_length_b     51.980208
_cell_length_c     22.550126
_cell_angle_alpha  90.285521
_cell_angle_beta   89.847148
_cell_angle_gamma 89.921425
loop_
_atom_site_label
_atom_site_type_symbol
_atom_site_fract_x
_atom_site_fract_y
_atom_site_fract_z
_atom_type_partial_charge
C0 C 0.18141 0.20443 0.26401 0.0
C1 C 0.19769 0.22323 0.24467 0.0
N2 N 0.21986 0.22084 0.27439 0.0
N3 N 0.19299 0.19052 0.30688 0.0
C4 C 0.21696 0.20036 0.31032 0.0
H5 H 0.16147 0.2028 0.2514 0.0
Co6 Co 0.17355 0.17087 0.35943 0.0
C7 C 0.21241 0.15578 0.46361 0.0
O8 O 0.19559 0.14081 0.48968 0.0
N9 N 0.15142 0.15211 0.4097 0.0
C10 C 0.12102 0.14894 0.47942 0.0
C11 C 0.14539 0.15773 0.46673 0.0
C12 C 0.13026 0.13971 0.38913 0.0
N13 N 0.11139 0.13799 0.43018 0.0
O14 O 0.18202 0.1398 0.31241 0.0
H15 H 0.15638 0.17038 0.49513 0.0
H16 H 0.12712 0.13509 0.34307 0.0
O17 O 0.20558 0.16699 0.4148 0.0
C18 C 0.16759 0.13892 0.26609 0.0
O19 O 0.14962 0.15646 0.26025 0.0
N20 N 0.16273 0.20174 0.39632 0.0
C21 C 0.14879 0.25311 0.41162 0.0
C22 C 0.16792 0.24204 0.4473 0.0
C23 C 0.17437 0.21597 0.43955 0.0
C24 C 0.1422 0.21153 0.36644 0.0
C25 C 0.13505 0.23724 0.37288 0.0
H26 H 0.1891 0.20766 0.4668 0.0
H27 H 0.13279 0.19986 0.33322 0.0
H28 H 0.2314 0.19408 0.34127 0.0
H29 H 0.19314 0.23851 0.21394 0.0
H30 H 0.11021 0.15271 0.51964 0.0
H31 H 0.1785 0.25368 0.47881 0.0
H32 H 0.12001 0.24504 0.34508 0.0
C33 C 0.06779 0.93817 0.51138 0.0
C34 C 0.04913 0.9553 0.49531 0.0
N35 N 0.05194 0.97655 0.52864 0.0
N36 N 0.08211 0.94832 0.55561 0.0
C37 C 0.07258 0.9723 0.5634 0.0
H38 H 0.06887 0.9185 0.49599 0.0
Co39 Co 0.10129 0.92728 0.60575 0.0
C40 C 0.11738 0.96451 0.71351 0.0
O41 O 0.12905 0.9463 0.74318 0.0
N42 N 0.11954 0.90375 0.65377 0.0
C43 C 0.12256 0.87247 0.721 0.0
C44 C 0.11363 0.89691 0.71003 0.0
C45 C 0.1321 0.88284 0.63176 0.0
N46 N 0.13379 0.8635 0.67136 0.0
O47 O 0.13237 0.93497 0.55859 0.0
H48 H 0.10078 0.90745 0.73903 0.0
H49 H 0.13704 0.88031 0.58564 0.0
O50 O 0.10707 0.95867 0.66283 0.0
C51 C 0.13236 0.92093 0.51136 0.0
O52 O 0.11411 0.90374 0.50507 0.0
N53 N 0.07023 0.91715 0.64232 0.0
C54 C 0.01873 0.90368 0.65751 0.0
C55 C 0.03028 0.92204 0.69492 0.0
C56 C 0.05639 0.9283 0.68706 0.0
C57 C 0.05999 0.8973 0.61052 0.0
C58 C 0.03422 0.89048 0.61676 0.0
H59 H 0.06507 0.94243 0.71553 0.0
H60 H 0.07144 0.88807 0.57645 0.0
H61 H 0.07889 0.98552 0.59733 0.0
H62 H 0.03352 0.95179 0.46465 0.0
H63 H 0.11877 0.86118 0.76029 0.0
H64 H 0.01898 0.93215 0.72807 0.0
H65 H 0.02613 0.87593 0.58776 0.0
C66 C 0.33325 0.82457 0.75038 0.0
C67 C 0.31661 0.80666 0.72746 0.0
N68 N 0.29833 0.8023 0.76836 0.0
N69 N 0.32536 0.83151 0.80524 0.0
C70 C 0.3039 0.81761 0.81498 0.0
H71 H 0.35103 0.83069 0.73002 0.0
Co72 Co 0.34612 0.84988 0.85621 0.0
C73 C 0.31145 0.8569 0.96802 0.0
O74 O 0.33067 0.84928 1.0014 0.0
N75 N 0.36892 0.86861 0.90484 0.0
C76 C 0.38793 0.90108 0.95271 0.0
C77 C 0.36463 0.89017 0.93715 0.0
C78 C 0.39489 0.86708 0.901 0.0
N79 N 0.40685 0.88646 0.92954 0.0
O80 O 0.33941 0.88099 0.80922 0.0
H81 H 0.3459 0.8986 0.945 0.0
H82 H 0.40512 0.85351 0.87343 0.0
O83 O 0.31535 0.85767 0.91141 0.0
C84 C 0.35679 0.88478 0.76966 0.0
O85 O 0.37728 0.87 0.76998 0.0
N86 N 0.35483 0.8181 0.89363 0.0
C87 C 0.36696 0.7655 0.90413 0.0
C88 C 0.34531 0.77603 0.93294 0.0
C89 C 0.33936 0.8023 0.92648 0.0
C90 C 0.37654 0.80819 0.86795 0.0
C91 C 0.38346 0.78237 0.87447 0.0
H92 H 0.32097 0.80882 0.94264 0.0
H93 H 0.38722 0.81958 0.8366 0.0
H94 H 0.29399 0.81671 0.8571 0.0
H95 H 0.31876 0.79621 0.68608 0.0
H96 H 0.39075 0.9191 0.97605 0.0
H97 H 0.3319 0.76362 0.95589 0.0
H98 H 0.40027 0.77509 0.85135 0.0
C99 C 0.44351 0.07588 0.99251 0.0
C100 C 0.46269 0.06009 0.9716 0.0
N101 N 0.46814 0.04317 1.01446 0.0
N102 N 0.43691 0.06875 0.0481 0.0
C103 C 0.45191 0.04824 0.0595 0.0
H104 H 0.4371 0.09317 0.97086 0.0
Co105 Co 0.42027 0.09082 0.10018 0.0
C106 C 0.41546 0.05655 0.21336 0.0
O107 O 0.42619 0.07508 0.24449 0.0
N108 N 0.40363 0.11516 0.14929 0.0
C109 C 0.38096 0.13832 0.21456 0.0
C110 C 0.38865 0.11382 0.19822 0.0
C111 C 0.40364 0.14049 0.1356 0.0
N112 N 0.39021 0.15504 0.17438 0.0
O113 O 0.38814 0.08596 0.05471 0.0
H114 H 0.38269 0.09632 0.21966 0.0
H115 H 0.41308 0.1484 0.09713 0.0
O116 O 0.41176 0.06057 0.15728 0.0
C117 C 0.3858 0.1029 1.01362 0.0
O118 O 0.40292 0.12134 1.01051 0.0
N119 N 0.45288 0.09809 0.13628 0.0
C120 C 0.50438 0.1129 0.16261 0.0
C121 C 0.49412 0.08896 0.18058 0.0
C122 C 0.46863 0.08213 0.16772 0.0
C123 C 0.46302 0.12004 0.11335 0.0
C124 C 0.48833 0.12753 0.1251 0.0
H125 H 0.46259 0.0631 0.17984 0.0
H126 H 0.45203 0.13102 0.08183 0.0
H127 H 0.45315 0.03894 0.10205 0.0
H128 H 0.47367 0.06259 0.93118 0.0
H129 H 0.36872 0.14335 0.25177 0.0
H130 H 0.50567 0.07422 0.20067 0.0
H131 H 0.49533 0.14407 0.10131 0.0
C132 C 0.1951 0.82589 0.31914 0.0
C133 C 0.21364 0.80925 0.33884 0.0
N134 N 0.23107 0.80648 0.29532 0.0
N135 N 0.20111 0.83407 0.26397 0.0
C136 C 0.22368 0.82235 0.25158 0.0
H137 H 0.17699 0.82907 0.3413 0.0
Co138 Co 0.17728 0.84948 0.21331 0.0
C139 C 0.21379 0.85166 0.0999 0.0
O140 O 0.19977 0.83485 0.07097 0.0
N141 N 0.15119 0.86473 0.16498 0.0
C142 C 0.12118 0.86859 0.09471 0.0
C143 C 0.14577 0.86038 0.10716 0.0
C144 C 0.12935 0.87603 0.18613 0.0
N145 N 0.11076 0.8782 0.14468 0.0
O146 O 0.18201 0.8823 0.25707 0.0
H147 H 0.15744 0.8495 0.07685 0.0
H148 H 0.12593 0.88058 0.23206 0.0
O149 O 0.20655 0.85866 0.15281 0.0
C150 C 0.16777 0.88344 0.30383 0.0
O151 O 0.15121 0.86486 0.31321 0.0
N152 N 0.17031 0.81631 0.17972 0.0
C153 C 0.15681 0.76422 0.16935 0.0
C154 C 0.18103 0.77283 0.151 0.0
C155 C 0.18754 0.79881 0.15726 0.0
C156 C 0.14627 0.80821 0.1954 0.0
C157 C 0.13892 0.78243 0.18952 0.0
H158 H 0.20704 0.80405 0.14752 0.0
H159 H 0.13327 0.8215 0.21685 0.0
H160 H 0.23316 0.82299 0.20899 0.0
H161 H 0.21257 0.79745 0.3782 0.0
H162 H 0.11108 0.86607 0.05317 0.0
H163 H 0.19542 0.75928 0.13544 0.0
H164 H 0.12001 0.77649 0.20428 0.0
C165 C 0.44807 0.94244 0.56912 0.0
C166 C 0.46598 0.9598 0.58917 0.0
N167 N 0.46966 0.97726 0.54629 0.0
N168 N 0.44049 0.94909 0.51406 0.0
C169 C 0.45383 0.97063 0.50165 0.0
H170 H 0.44262 0.92488 0.59125 0.0
Co171 Co 0.42262 0.92686 0.46499 0.0
C172 C 0.41592 0.95954 0.35097 0.0
O173 O 0.42519 0.94016 0.31987 0.0
N174 N 0.40432 0.90278 0.41829 0.0
C175 C 0.37259 0.88286 0.36988 0.0
C176 C 0.38316 0.90644 0.38462 0.0
C177 C 0.40585 0.87685 0.42388 0.0
N178 N 0.38696 0.86435 0.39498 0.0
O179 O 0.39143 0.93334 0.51236 0.0
H180 H 0.37486 0.925 0.37469 0.0
H181 H 0.41914 0.86701 0.45245 0.0
O182 O 0.414 0.95649 0.40768 0.0
C183 C 0.3885 0.9163 0.55286 0.0
O184 O 0.40424 0.89654 0.55324 0.0
N185 N 0.4546 0.91836 0.42716 0.0
C186 C 0.50715 0.9062 0.41406 0.0
C187 C 0.49678 0.92865 0.38903 0.0
C188 C 0.47051 0.93437 0.39591 0.0
C189 C 0.46452 0.89629 0.45052 0.0
C190 C 0.49018 0.88919 0.44182 0.0
H191 H 0.46396 0.95288 0.38102 0.0
H192 H 0.45336 0.88532 0.48165 0.0
H193 H 0.45412 0.9798 0.45879 0.0
H194 H 0.47719 0.95838 0.62942 0.0
H195 H 0.35512 0.87959 0.34497 0.0
H196 H 0.50923 0.94252 0.3677 0.0
H197 H 0.49732 0.87175 0.46218 0.0
C198 C 0.33343 0.2037 0.81164 0.0
C199 C 0.3162 0.22207 0.82995 0.0
N200 N 0.29529 0.22007 0.79559 0.0
N201 N 0.32389 0.19094 0.76418 0.0
C202 C 0.29975 0.20014 0.75866 0.0
H203 H 0.35265 0.20143 0.8288 0.0
Co204 Co 0.34563 0.17161 0.71495 0.0
C205 C 0.30049 0.17979 0.62074 0.0
O206 O 0.29939 0.20467 0.63109 0.0
N207 N 0.36885 0.15244 0.67012 0.0
C208 C 0.38895 0.12157 0.6194 0.0
C209 C 0.36526 0.13207 0.63378 0.0
C210 C 0.39459 0.15399 0.67715 0.0
N211 N 0.40725 0.13545 0.64705 0.0
O212 O 0.33582 0.14074 0.75934 0.0
H213 H 0.34669 0.12454 0.62105 0.0
H214 H 0.40392 0.16758 0.70643 0.0
O215 O 0.31699 0.16594 0.65005 0.0
C216 C 0.35196 0.13822 0.80206 0.0
O217 O 0.37148 0.15417 0.8046 0.0
N218 N 0.35859 0.20264 0.68087 0.0
C219 C 0.37236 0.25432 0.66637 0.0
C220 C 0.35796 0.24125 0.62274 0.0
C221 C 0.35252 0.21489 0.62949 0.0
C222 C 0.37579 0.21395 0.7185 0.0
C223 C 0.38321 0.23958 0.7117 0.0
H224 H 0.34295 0.20472 0.5945 0.0
H225 H 0.38286 0.20338 0.7562 0.0
H226 H 0.28596 0.19366 0.72654 0.0
H227 H 0.31972 0.2373 0.86182 0.0
H228 H 0.39245 0.10461 0.59252 0.0
H229 H 0.35054 0.25139 0.58459 0.0
H230 H 0.39576 0.24833 0.74429 0.0
C231 C 0.0705 0.0833 0.05136 0.0
C232 C 0.05126 0.06631 0.06474 0.0
N233 N 0.05312 0.04623 1.02713 0.0
N234 N 0.08414 0.07415 1.0049 0.0
C235 C 0.07361 0.05106 0.99219 0.0
H236 H 0.07296 0.10218 0.07081 0.0
Co237 Co 0.10431 0.09569 0.9601 0.0
C238 C 0.11486 0.06498 0.8432 0.0
O239 O 0.11646 0.08638 0.81274 0.0
N240 N 0.12465 0.11902 0.91739 0.0
C241 C 0.15934 0.13915 0.88235 0.0
C242 C 0.1487 0.11553 0.89585 0.0
C243 C 0.12133 0.14485 0.91723 0.0
N244 N 0.14199 0.15744 0.89623 0.0
O245 O 0.1341 0.08692 1.0095 0.0
H246 H 0.15855 0.0972 0.89417 0.0
H247 H 0.10507 0.1547 0.9365 0.0
O248 O 0.11113 0.06633 0.89993 0.0
C249 C 0.13579 0.10381 0.05118 0.0
O250 O 0.11981 0.12337 0.05052 0.0
N251 N 0.07383 0.10666 0.92152 0.0
C252 C 0.02164 0.11894 0.90718 0.0
C253 C 0.03316 0.09928 0.87333 0.0
C254 C 0.05922 0.09311 0.88204 0.0
C255 C 0.063 0.12655 0.95262 0.0
C256 C 0.03712 0.13306 0.94602 0.0
H257 H 0.06647 0.07579 0.86211 0.0
H258 H 0.07377 0.13576 0.98767 0.0
H259 H 0.0793 0.03904 0.95511 0.0
H260 H 0.03629 0.06894 0.09769 0.0
H261 H 0.17875 0.14274 0.86709 0.0
H262 H 0.02162 0.08749 0.84398 0.0
H263 H 0.02886 0.14794 0.97401 0.0
C264 C 0.8336 0.8165 0.7912 0.0
C265 C 0.81517 0.79926 0.80776 0.0
N266 N 0.79308 0.80564 0.78067 0.0
N267 N 0.82333 0.83356 0.75313 0.0
C268 C 0.79829 0.82703 0.74913 0.0
H269 H 0.85388 0.81493 0.80099 0.0
Co270 Co 0.84523 0.85225 0.70537 0.0
C271 C 0.81064 0.85757 0.59265 0.0
O272 O 0.82795 0.84456 0.56223 0.0
N273 N 0.86952 0.87077 0.66063 0.0
C274 C 0.89397 0.89172 0.59547 0.0
C275 C 0.86952 0.88279 0.60763 0.0
C276 C 0.89386 0.87378 0.68064 0.0
N277 N 0.90922 0.88595 0.64166 0.0
O278 O 0.83938 0.88277 0.75568 0.0
H279 H 0.85309 0.88526 0.5793 0.0
H280 H 0.90058 0.86641 0.72256 0.0
O281 O 0.81531 0.8619 0.64828 0.0
C282 C 0.85359 0.88183 0.80223 0.0
O283 O 0.86934 0.86229 0.80825 0.0
N284 N 0.85323 0.82085 0.66451 0.0
C285 C 0.86291 0.76779 0.65672 0.0
C286 C 0.83914 0.77791 0.63957 0.0
C287 C 0.8347 0.80443 0.64394 0.0
C288 C 0.87699 0.81126 0.67806 0.0
C289 C 0.88233 0.78489 0.67381 0.0
H290 H 0.81555 0.81124 0.63642 0.0
H291 H 0.89106 0.82341 0.69899 0.0
H292 H 0.78479 0.83634 0.72014 0.0
H293 H 0.81816 0.78213 0.83402 0.0
H294 H 0.90009 0.90165 0.55578 0.0
H295 H 0.82357 0.76524 0.62673 0.0
H296 H 0.90084 0.77771 0.68818 0.0
C297 C 0.95117 0.08634 0.5546 0.0
C298 C 0.97071 0.07032 0.57175 0.0
N299 N 0.97123 0.05021 0.53413 0.0
N300 N 0.93974 0.07657 0.50576 0.0
C301 C 0.9517 0.05392 0.49593 0.0
H302 H 0.94713 0.10506 0.57347 0.0
Co303 Co 0.9197 0.09685 0.45667 0.0
C304 C 0.91038 0.06191 0.3433 0.0
O305 O 0.90802 0.08204 0.30875 0.0
N306 N 0.89962 0.11928 0.41089 0.0
C307 C 0.86499 0.13977 0.37689 0.0
C308 C 0.87577 0.11596 0.38859 0.0
C309 C 0.90276 0.14516 0.41253 0.0
N310 N 0.88205 0.15805 0.39246 0.0
O311 O 0.8895 0.08829 0.50508 0.0
H312 H 0.86595 0.09765 0.38616 0.0
H313 H 0.91886 0.15465 0.43331 0.0
O314 O 0.91444 0.06563 0.39943 0.0
C315 C 0.88716 0.10565 0.54557 0.0
O316 O 0.90277 0.12545 0.5441 0.0
N317 N 0.95034 0.10801 0.41862 0.0
C318 C 1.00242 0.12002 0.40597 0.0
C319 C 0.99029 0.10346 0.36538 0.0
C320 C 0.96396 0.09784 0.37219 0.0
C321 C 0.96142 0.1263 0.45393 0.0
C322 C 0.98733 0.13263 0.44836 0.0
H323 H 0.95535 0.08435 0.34222 0.0
H324 H 0.95057 0.13449 0.49035 0.0
H325 H 0.9477 0.0413 0.45919 0.0
H326 H 0.98452 0.07387 0.60669 0.0
H327 H 0.84555 0.14342 0.36202 0.0
H328 H 1.00134 0.09386 0.331 0.0
H329 H 0.99594 0.14588 0.47974 0.0
C330 C 0.69072 0.2039 0.29285 0.0
C331 C 0.70844 0.2226 0.30561 0.0
N332 N 0.72781 0.22044 0.26635 0.0
N333 N 0.69888 0.19005 0.24565 0.0
C334 C 0.72188 0.20032 0.23109 0.0
H335 H 0.67203 0.20205 0.31339 0.0
Co336 Co 0.67653 0.16983 0.20229 0.0
C337 C 0.7103 0.1605 0.08797 0.0
O338 O 0.69161 0.16837 0.05332 0.0
N339 N 0.6522 0.14969 0.16091 0.0
C340 C 0.6297 0.12136 0.1072 0.0
C341 C 0.65388 0.13155 0.11783 0.0
C342 C 0.62706 0.14948 0.17667 0.0
N343 N 0.61299 0.13274 0.14469 0.0
O344 O 0.68445 0.14033 0.2533 0.0
H345 H 0.67151 0.12527 0.09687 0.0
H346 H 0.61905 0.1608 0.21246 0.0
O347 O 0.70587 0.16045 0.14436 0.0
C348 C 0.66914 0.14016 0.29814 0.0
O349 O 0.65106 0.15774 0.3012 0.0
N350 N 0.66626 0.20019 0.16174 0.0
C351 C 0.65379 0.25258 0.15054 0.0
C352 C 0.67402 0.24166 0.11752 0.0
C353 C 0.68032 0.21551 0.12471 0.0
C354 C 0.64555 0.21039 0.191 0.0
C355 C 0.639 0.23635 0.1861 0.0
H356 H 0.69809 0.20882 0.10566 0.0
H357 H 0.63584 0.19923 0.22433 0.0
H358 H 0.73295 0.19491 0.19239 0.0
H359 H 0.7067 0.23751 0.33908 0.0
H360 H 0.62491 0.10628 0.07585 0.0
H361 H 0.6862 0.25374 0.09035 0.0
H362 H 0.62358 0.24407 0.2133 0.0
C363 C 0.5794 0.9486 0.06893 0.0
C364 C 0.56263 0.96719 0.08867 0.0
N365 N 0.55811 0.98322 0.04338 0.0
N366 N 0.5857 0.95314 1.01172 0.0
C367 C 0.57286 0.97488 0.99817 0.0
H368 H 0.58434 0.93152 0.09331 0.0
Co369 Co 0.60152 0.92917 0.96167 0.0
C370 C 0.6041 0.9635 0.84661 0.0
O371 O 0.59017 0.94686 0.81666 0.0
N372 N 0.61758 0.90334 0.91438 0.0
C373 C 0.63527 0.87829 0.84459 0.0
C374 C 0.62752 0.90299 0.85895 0.0
C375 C 0.62063 0.87877 0.93323 0.0
N376 N 0.6309 0.8631 0.89169 0.0
O377 O 0.63401 0.93482 1.00432 0.0
H378 H 0.62942 0.91938 0.83043 0.0
H379 H 0.61469 0.87196 0.97623 0.0
O380 O 0.60987 0.95806 0.90103 0.0
C381 C 0.63558 0.91952 0.04878 0.0
O382 O 0.61734 0.90245 0.05642 0.0
N383 N 0.56843 0.92106 0.92861 0.0
C384 C 0.51621 0.90723 0.92026 0.0
C385 C 0.52497 0.93093 0.89861 0.0
C386 C 0.55108 0.93745 0.90299 0.0
C387 C 0.56012 0.8976 0.9479 0.0
C388 C 0.53445 0.88997 0.94234 0.0
H389 H 0.55653 0.95644 0.88941 0.0
H390 H 0.5729 0.88531 0.97232 0.0
H391 H 0.57201 0.98307 0.9544 0.0
H392 H 0.55202 0.967 0.13005 0.0
H393 H 0.64357 0.87199 0.80289 0.0
H394 H 0.51148 0.94486 0.88118 0.0
H395 H 0.52853 0.87147 0.95951 0.0
C396 C 0.83551 0.20548 0.76709 0.0
C397 C 0.81834 0.22434 0.75209 0.0
N398 N 0.79851 0.22328 0.79028 0.0
N399 N 0.82653 0.19243 0.81439 0.0
C400 C 0.80368 0.20359 0.82723 0.0
H401 H 0.8544 0.20303 0.74787 0.0
Co402 Co 0.84819 0.17162 0.85835 0.0
C403 C 0.81203 0.16433 0.97068 0.0
O404 O 0.82907 0.17457 1.00667 0.0
N405 N 0.87201 0.15115 0.90011 0.0
C406 C 0.89573 0.12915 0.96471 0.0
C407 C 0.87141 0.1383 0.95203 0.0
C408 C 0.89661 0.14839 0.88115 0.0
N409 N 0.91157 0.1356 0.91987 0.0
O410 O 0.84018 0.14222 0.80603 0.0
H411 H 0.8547 0.13567 0.97956 0.0
H412 H 0.90394 0.1565 0.8405 0.0
O413 O 0.81806 0.16234 0.91507 0.0
C414 C 0.85519 0.14159 0.76062 0.0
O415 O 0.87326 0.15905 0.75632 0.0
N416 N 0.85876 0.20163 0.90052 0.0
C417 C 0.87354 0.25322 0.91588 0.0
C418 C 0.8517 0.24344 0.94461 0.0
C419 C 0.84416 0.21781 0.93479 0.0
C420 C 0.88112 0.21055 0.87616 0.0
C421 C 0.88881 0.23616 0.88305 0.0
H422 H 0.82515 0.21241 0.94874 0.0
H423 H 0.89167 0.19864 0.8453 0.0
H424 H 0.79231 0.19935 0.86611 0.0
H425 H 0.82081 0.2387 0.71792 0.0
H426 H 0.90142 0.11876 1.00407 0.0
H427 H 0.83913 0.25621 0.96939 0.0
H428 H 0.90556 0.24301 0.85927 0.0
C429 C 0.57542 0.07954 0.49665 0.0
C430 C 0.55773 0.06183 0.47737 0.0
N431 N 0.55469 0.04443 0.52055 0.0
N432 N 0.58372 0.07308 0.55139 0.0
C433 C 0.57105 0.05115 0.56399 0.0
H434 H 0.57977 0.09731 0.47434 0.0
Co435 Co 0.6012 0.09577 0.60106 0.0
C436 C 0.60554 0.0608 0.71403 0.0
O437 O 0.5932 0.07816 0.7458 0.0
N438 N 0.61878 0.12053 0.64779 0.0
C439 C 0.63908 0.14448 0.71545 0.0
C440 C 0.63081 0.12001 0.70083 0.0
C441 C 0.62123 0.14532 0.63023 0.0
N442 N 0.63301 0.16037 0.67065 0.0
O443 O 0.63272 0.08998 0.55387 0.0
H444 H 0.63389 0.10314 0.72729 0.0
H445 H 0.61391 0.15271 0.58895 0.0
O446 O 0.6101 0.06593 0.65877 0.0
C447 C 0.63409 0.10573 0.51015 0.0
O448 O 0.61627 0.12344 0.50513 0.0
N449 N 0.56906 0.10391 0.63905 0.0
C450 C 0.51692 0.11705 0.65315 0.0
C451 C 0.52621 0.09314 0.67204 0.0
C452 C 0.55228 0.08696 0.66482 0.0
C453 C 0.56029 0.12766 0.62295 0.0
C454 C 0.53464 0.13493 0.63141 0.0
H455 H 0.55809 0.06775 0.67591 0.0
H456 H 0.57251 0.14045 0.59835 0.0
H457 H 0.57165 0.04158 0.60627 0.0
H458 H 0.54594 0.0632 0.438 0.0
H459 H 0.64895 0.15014 0.75565 0.0
H460 H 0.51311 0.07874 0.68903 0.0
H461 H 0.52823 0.1536 0.61621 0.0
C462 C 0.69111 0.82478 0.24448 0.0
C463 C 0.7075 0.80607 0.22347 0.0
N464 N 0.72556 0.80221 0.26492 0.0
N465 N 0.69901 0.83263 0.29861 0.0
C466 C 0.72022 0.81856 0.30968 0.0
H467 H 0.6734 0.83071 0.22369 0.0
Co468 Co 0.67823 0.85171 0.34853 0.0
C469 C 0.7128 0.8582 0.46026 0.0
O470 O 0.69381 0.84988 0.49364 0.0
N471 N 0.65535 0.87117 0.39591 0.0
C472 C 0.63625 0.903 0.44633 0.0
C473 C 0.65957 0.89183 0.43123 0.0
C474 C 0.62946 0.8706 0.38954 0.0
N475 N 0.61743 0.8895 0.41974 0.0
O476 O 0.68559 0.88233 0.30063 0.0
H477 H 0.67832 0.89937 0.44225 0.0
H478 H 0.61936 0.85801 0.3596 0.0
O479 O 0.70879 0.85962 0.40381 0.0
C480 C 0.66861 0.88607 0.26039 0.0
O481 O 0.6481 0.87138 0.26001 0.0
N482 N 0.669 0.82032 0.38745 0.0
C483 C 0.65562 0.76821 0.40191 0.0
C484 C 0.67847 0.77811 0.42612 0.0
C485 C 0.68483 0.80417 0.41845 0.0
C486 C 0.64648 0.81089 0.36518 0.0
C487 C 0.63883 0.78546 0.37445 0.0
H488 H 0.70365 0.81025 0.43233 0.0
H489 H 0.63553 0.82213 0.33428 0.0
H490 H 0.73003 0.81819 0.35181 0.0
H491 H 0.70515 0.79469 0.18352 0.0
H492 H 0.63339 0.92026 0.4726 0.0
H493 H 0.69217 0.7654 0.44721 0.0
H494 H 0.62111 0.77866 0.35469 0.0
C495 C 0.95061 0.93812 1.00659 0.0
C496 C 0.97016 0.95392 0.9886 0.0
N497 N 0.97243 0.97297 1.02875 0.0
N498 N 0.94067 0.94712 0.05795 0.0
C499 C 0.95408 0.96873 0.07 0.0
H500 H 0.94541 0.92005 0.98604 0.0
Co501 Co 0.92029 0.92666 0.1051 0.0
C502 C 0.90955 0.96013 0.219 0.0
O503 O 0.90586 0.93957 0.25151 0.0
N504 N 0.89969 0.90406 0.14971 0.0
C505 C 0.86452 0.8842 0.18317 0.0
C506 C 0.87553 0.90776 0.17033 0.0
C507 C 0.9027 0.87815 0.14981 0.0
N508 N 0.88172 0.86571 0.16976 0.0
O509 O 0.89044 0.93542 0.05574 0.0
H510 H 0.86576 0.92614 0.17121 0.0
H511 H 0.91893 0.86819 0.13069 0.0
O512 O 0.91439 0.95727 0.16294 0.0
C513 C 0.88767 0.91792 1.01574 0.0
O514 O 0.90262 0.89758 1.01788 0.0
N515 N 0.95064 0.9156 0.14392 0.0
C516 C 1.00222 0.90178 0.16046 0.0
C517 C 0.99091 0.92132 0.19499 0.0
C518 C 0.9651 0.92834 0.18515 0.0
C519 C 0.96121 0.89565 0.1126 0.0
C520 C 0.98674 0.88821 0.12068 0.0
H521 H 0.958 0.94556 0.20586 0.0
H522 H 0.95042 0.88688 0.07695 0.0
H523 H 0.95224 0.97973 0.11066 0.0
H524 H 0.98274 0.95094 0.95084 0.0
H525 H 0.84491 0.88083 0.19731 0.0
H526 H 1.00251 0.93253 0.22541 0.0
H527 H 0.99488 0.87323 0.09278 0.0
C528 C 0.68633 0.70309 0.7615 0.0
C529 C 0.70172 0.72317 0.74517 0.0
N530 N 0.72173 0.72409 0.78275 0.0
N531 N 0.6963 0.69174 0.80999 0.0
C532 C 0.71856 0.70425 0.82023 0.0
H533 H 0.66783 0.69859 0.74241 0.0
Co534 Co 0.67642 0.67135 0.85874 0.0
C535 C 0.71141 0.66275 0.97189 0.0
O536 O 0.69147 0.6594 1.00687 0.0
N537 N 0.65453 0.65078 0.90456 0.0
C538 C 0.63481 0.61538 0.93658 0.0
C539 C 0.65838 0.62677 0.92538 0.0
C540 C 0.62863 0.65347 0.9036 0.0
N541 N 0.6162 0.63229 0.92238 0.0
O542 O 0.68612 0.64131 0.81066 0.0
H543 H 0.67687 0.61724 0.92672 0.0
H544 H 0.61879 0.66955 0.88379 0.0
O545 O 0.70747 0.66706 0.91606 0.0
C546 C 0.66903 0.63868 0.76999 0.0
O547 O 0.64891 0.65393 0.77138 0.0
N548 N 0.66394 0.70187 0.89605 0.0
C549 C 0.64922 0.75347 0.90822 0.0
C550 C 0.66637 0.74222 0.94869 0.0
C551 C 0.67324 0.71608 0.94234 0.0
C552 C 0.64547 0.71213 0.86019 0.0
C553 C 0.63787 0.73776 0.86538 0.0
H554 H 0.6868 0.70797 0.97277 0.0
H555 H 0.63796 0.70082 0.82384 0.0
H556 H 0.73122 0.70034 0.8568 0.0
H557 H 0.69785 0.73698 0.71051 0.0
H558 H 0.63157 0.59567 0.9499 0.0
H559 H 0.6752 0.75377 0.98313 0.0
H560 H 0.62442 0.74567 0.83369 0.0
C561 C 0.5762 0.44386 1.00829 0.0
C562 C 0.55889 0.46206 0.99002 0.0
N563 N 0.55716 0.48004 0.03272 0.0
N564 N 0.58553 0.45041 0.06215 0.0
C565 C 0.57357 0.47279 0.07572 0.0
H566 H 0.57988 0.42591 0.98566 0.0
Co567 Co 0.60428 0.4276 0.10858 0.0
C568 C 0.6098 0.46233 0.22282 0.0
O569 O 0.59845 0.44463 0.25504 0.0
N570 N 0.623 0.40271 0.15238 0.0
C571 C 0.64386 0.37829 0.21779 0.0
C572 C 0.63538 0.40287 0.20501 0.0
C573 C 0.62541 0.37803 0.13327 0.0
N574 N 0.63754 0.36269 0.17229 0.0
O575 O 0.63495 0.43402 0.0587 0.0
H576 H 0.63837 0.41952 0.2327 0.0
H577 H 0.61767 0.37089 0.09202 0.0
O578 O 0.61353 0.45733 0.16706 0.0
C579 C 0.6357 0.41843 1.01417 0.0
O580 O 0.61789 0.40071 1.00994 0.0
N581 N 0.5731 0.41863 0.14834 0.0
C582 C 0.52173 0.40405 0.1654 0.0
C583 C 0.53104 0.42704 0.18973 0.0
C584 C 0.55662 0.43436 0.17922 0.0
C585 C 0.56439 0.39546 0.12775 0.0
C586 C 0.53898 0.38765 0.1364 0.0
H587 H 0.56197 0.45372 0.19087 0.0
H588 H 0.57635 0.38397 0.09893 0.0
H589 H 0.57482 0.48234 0.11825 0.0
H590 H 0.5469 0.46111 0.95089 0.0
H591 H 0.65391 0.37233 0.25742 0.0
H592 H 0.51802 0.44038 0.21147 0.0
H593 H 0.53231 0.36995 0.11607 0.0
C594 C 0.83609 0.32305 0.25292 0.0
C595 C 0.82053 0.304 0.2312 0.0
N596 N 0.8014 0.30041 0.27038 0.0
N597 N 0.82675 0.33147 0.30544 0.0
C598 C 0.80539 0.31735 0.31493 0.0
H599 H 0.85414 0.32903 0.23367 0.0
Co600 Co 0.84634 0.35189 0.35459 0.0
C601 C 0.81231 0.36204 0.4671 0.0
O602 O 0.83289 0.36559 0.49973 0.0
N603 N 0.86831 0.37276 0.40085 0.0
C604 C 0.88701 0.40892 0.43278 0.0
C605 C 0.86385 0.39697 0.42056 0.0
C606 C 0.89432 0.37067 0.40114 0.0
N607 N 0.90611 0.39227 0.42012 0.0
O608 O 0.83747 0.38192 0.30553 0.0
H609 H 0.84521 0.40622 0.42047 0.0
H610 H 0.90482 0.3548 0.38194 0.0
O611 O 0.81516 0.35738 0.41092 0.0
C612 C 0.85464 0.38554 0.26534 0.0
O613 O 0.87535 0.37109 0.26614 0.0
N614 N 0.85707 0.32132 0.39385 0.0
C615 C 0.86906 0.26889 0.40726 0.0
C616 C 0.84843 0.28013 0.43851 0.0
C617 C 0.84246 0.30629 0.43036 0.0
C618 C 0.87817 0.31094 0.36649 0.0
C619 C 0.88494 0.28511 0.37399 0.0
H620 H 0.8245 0.31323 0.44779 0.0
H621 H 0.8883 0.32192 0.33332 0.0
H622 H 0.79428 0.31781 0.35557 0.0
H623 H 0.8238 0.29253 0.19167 0.0
H624 H 0.88969 0.42887 0.44528 0.0
H625 H 0.8355 0.26824 0.46423 0.0
H626 H 0.90101 0.27727 0.34906 0.0
C627 C 0.94721 0.58876 0.50473 0.0
C628 C 0.96656 0.57381 0.48178 0.0
N629 N 0.97172 0.55524 0.5212 0.0
N630 N 0.94012 0.57955 0.55816 0.0
C631 C 0.95544 0.55898 0.56709 0.0
H632 H 0.94014 0.6064 0.48557 0.0
Co633 Co 0.92023 0.59906 0.6088 0.0
C634 C 0.91293 0.56326 0.7182 0.0
O635 O 0.91899 0.58261 0.75321 0.0
N636 N 0.90006 0.62088 0.65689 0.0
C637 C 0.86596 0.63932 0.69995 0.0
C638 C 0.87784 0.61618 0.68609 0.0
C639 C 0.90109 0.64687 0.65347 0.0
N640 N 0.88072 0.65852 0.67904 0.0
O641 O 0.88995 0.59137 0.5591 0.0
H642 H 0.86964 0.59728 0.69228 0.0
H643 H 0.91499 0.65729 0.62753 0.0
O644 O 0.91297 0.56751 0.66174 0.0
C645 C 0.88556 0.60865 0.51986 0.0
O646 O 0.89924 0.62984 0.52152 0.0
N647 N 0.95116 0.60875 0.64897 0.0
C648 C 1.00344 0.62162 0.66153 0.0
C649 C 0.99289 0.60048 0.69172 0.0
C650 C 0.96684 0.59399 0.68375 0.0
C651 C 0.96093 0.63039 0.62316 0.0
C652 C 0.98661 0.63762 0.63044 0.0
H653 H 0.96061 0.57559 0.6999 0.0
H654 H 0.94967 0.64056 0.59072 0.0
H655 H 0.9565 0.54851 0.60831 0.0
H656 H 0.97715 0.57717 0.44114 0.0
H657 H 0.84718 0.6418 0.72002 0.0
H658 H 1.00528 0.58748 0.71589 0.0
H659 H 0.9939 0.65409 0.60642 0.0
C660 C 0.68443 0.31943 0.80189 0.0
C661 C 0.70032 0.2999 0.81942 0.0
N662 N 0.72173 0.30092 0.78604 0.0
N663 N 0.69545 0.33213 0.75639 0.0
C664 C 0.71876 0.32116 0.74961 0.0
H665 H 0.66514 0.32279 0.81812 0.0
Co666 Co 0.67612 0.3526 0.70697 0.0
C667 C 0.71125 0.36076 0.59401 0.0
O668 O 0.69103 0.36228 0.5594 0.0
N669 N 0.65456 0.37325 0.6606 0.0
C670 C 0.63527 0.40809 0.62414 0.0
C671 C 0.65868 0.39688 0.63782 0.0
C672 C 0.62865 0.3707 0.66066 0.0
N673 N 0.61651 0.39149 0.63903 0.0
O674 O 0.68533 0.38258 0.75591 0.0
H675 H 0.67724 0.40622 0.63604 0.0
H676 H 0.61849 0.35497 0.68102 0.0
O677 O 0.70766 0.35731 0.65041 0.0
C678 C 0.66824 0.38549 0.79672 0.0
O679 O 0.64781 0.3707 0.79517 0.0
N680 N 0.66433 0.32203 0.66848 0.0
C681 C 0.65042 0.27018 0.65598 0.0
C682 C 0.66902 0.28118 0.61856 0.0
C683 C 0.6756 0.30732 0.62522 0.0
C684 C 0.64476 0.31192 0.70152 0.0
C685 C 0.63756 0.28618 0.69616 0.0
H686 H 0.69062 0.31488 0.59787 0.0
H687 H 0.63617 0.32331 0.73656 0.0
H688 H 0.7326 0.32658 0.71632 0.0
H689 H 0.69614 0.28537 0.85228 0.0
H690 H 0.63219 0.42745 0.60817 0.0
H691 H 0.67926 0.26937 0.58659 0.0
H692 H 0.62315 0.27844 0.72589 0.0
C693 C 0.94565 0.45191 0.06371 0.0
C694 C 0.96146 0.47197 0.07928 0.0
N695 N 0.96291 0.48807 0.03302 0.0
N696 N 0.93712 0.45533 1.00778 0.0
C697 C 0.94782 0.47778 0.99054 0.0
H698 H 0.94261 0.43487 0.0899 0.0
Co699 Co 0.92044 0.43024 0.96252 0.0
C700 C 0.91615 0.46348 0.84495 0.0
O701 O 0.92939 0.44653 0.81403 0.0
N702 N 0.90374 0.40369 0.91904 0.0
C703 C 0.88616 0.37792 0.85093 0.0
C704 C 0.89356 0.40279 0.864 0.0
C705 C 0.90119 0.37923 0.93906 0.0
N706 N 0.89097 0.36311 0.89842 0.0
O707 O 0.88859 0.43654 1.00798 0.0
H708 H 0.8914 0.4189 0.83466 0.0
H709 H 0.90743 0.37289 0.98219 0.0
O710 O 0.91132 0.45826 0.90002 0.0
C711 C 0.88853 0.42177 0.05366 0.0
O712 O 0.90774 0.40569 0.06042 0.0
N713 N 0.95281 0.42086 0.92831 0.0
C714 C 1.00396 0.40395 0.91549 0.0
C715 C 0.99516 0.42593 0.88582 0.0
C716 C 0.96972 0.43456 0.89429 0.0
C717 C 0.96109 0.39888 0.95537 0.0
C718 C 0.98637 0.39003 0.94938 0.0
H719 H 0.96487 0.45345 0.87845 0.0
H720 H 0.9486 0.38911 0.98607 0.0
H721 H 0.94732 0.4849 0.94563 0.0
H722 H 0.97301 0.47332 0.11905 0.0
H723 H 0.87781 0.37121 0.80973 0.0
H724 H 1.00842 0.43749 0.86021 0.0
H725 H 0.99252 0.37327 0.97398 0.0
C726 C 0.82978 0.69839 0.31362 0.0
C727 C 0.81178 0.71609 0.33206 0.0
N728 N 0.79431 0.71843 0.28865 0.0
N729 N 0.82347 0.68963 0.2591 0.0
C730 C 0.80145 0.70195 0.24553 0.0
H731 H 0.84745 0.69394 0.33645 0.0
Co732 Co 0.84564 0.67101 0.21111 0.0
C733 C 0.81317 0.66409 0.09483 0.0
O734 O 0.83384 0.66648 0.06174 0.0
N735 N 0.86988 0.65182 0.16582 0.0
C736 C 0.89173 0.62221 0.11362 0.0
C737 C 0.86761 0.63229 0.12627 0.0
C738 C 0.89534 0.65217 0.1784 0.0
N739 N 0.90904 0.63476 0.14719 0.0
O740 O 0.83815 0.64017 0.25839 0.0
H741 H 0.84958 0.62467 0.11023 0.0
H742 H 0.90388 0.66374 0.21284 0.0
O743 O 0.81574 0.66431 0.15202 0.0
C744 C 0.85454 0.6385 0.30087 0.0
O745 O 0.87355 0.65505 0.30245 0.0
N746 N 0.85524 0.70264 0.17366 0.0
C747 C 0.86714 0.75519 0.16078 0.0
C748 C 0.84468 0.74476 0.13593 0.0
C749 C 0.8391 0.71848 0.14279 0.0
C750 C 0.87757 0.71252 0.196 0.0
C751 C 0.88441 0.73828 0.18783 0.0
H752 H 0.82049 0.71191 0.12891 0.0
H753 H 0.88899 0.70138 0.22607 0.0
H754 H 0.79202 0.70083 0.20294 0.0
H755 H 0.81277 0.7281 0.37135 0.0
H756 H 0.89603 0.60612 0.08458 0.0
H757 H 0.83066 0.75717 0.11503 0.0
H758 H 0.90188 0.7455 0.20796 0.0
C759 C 0.57452 0.58116 0.56874 0.0
C760 C 0.55637 0.56379 0.58756 0.0
N761 N 0.55327 0.54631 0.5441 0.0
N762 N 0.5828 0.57439 0.51405 0.0
C763 C 0.56964 0.55286 0.50056 0.0
H764 H 0.57971 0.59876 0.59141 0.0
Co765 Co 0.60105 0.59617 0.46538 0.0
C766 C 0.60829 0.56169 0.35262 0.0
O767 O 0.59899 0.58028 0.31965 0.0
N768 N 0.6197 0.61984 0.41889 0.0
C769 C 0.65109 0.63953 0.36892 0.0
C770 C 0.6403 0.61603 0.38321 0.0
C771 C 0.61873 0.64573 0.42622 0.0
N772 N 0.6374 0.6581 0.39634 0.0
O773 O 0.63202 0.5898 0.51337 0.0
H774 H 0.64811 0.59742 0.37137 0.0
H775 H 0.606 0.65556 0.45653 0.0
O776 O 0.60998 0.56597 0.40901 0.0
C777 C 0.63495 0.60681 0.55432 0.0
O778 O 0.61916 0.62652 0.55562 0.0
N779 N 0.56923 0.60461 0.42674 0.0
C780 C 0.5167 0.61685 0.41311 0.0
C781 C 0.52711 0.59422 0.38841 0.0
C782 C 0.55338 0.58848 0.39548 0.0
C783 C 0.55928 0.62691 0.44962 0.0
C784 C 0.53361 0.63397 0.44088 0.0
H785 H 0.55993 0.5699 0.38064 0.0
H786 H 0.57041 0.63816 0.48036 0.0
H787 H 0.56999 0.54352 0.4577 0.0
H788 H 0.54472 0.56516 0.6273 0.0
H789 H 0.66822 0.64268 0.34258 0.0
H790 H 0.51471 0.5803 0.36692 0.0
H791 H 0.52644 0.65156 0.46094 0.0
C792 C 0.33326 0.31608 0.29173 0.0
C793 C 0.31564 0.29763 0.30647 0.0
N794 N 0.29639 0.29857 0.26696 0.0
N795 N 0.3252 0.32887 0.24322 0.0
C796 C 0.30237 0.31788 0.22945 0.0
H797 H 0.35198 0.31805 0.31171 0.0
Co798 Co 0.34837 0.34766 0.19767 0.0
C799 C 0.31326 0.35488 0.08245 0.0
O800 O 0.32969 0.34314 0.04741 0.0
N801 N 0.37379 0.36556 0.15312 0.0
C802 C 0.40653 0.36825 0.08916 0.0
C803 C 0.38211 0.3591 0.09809 0.0
C804 C 0.39381 0.37908 0.1762 0.0
N805 N 0.41408 0.38047 0.13866 0.0
O806 O 0.34137 0.37865 0.24723 0.0
H807 H 0.37329 0.34514 0.06945 0.0
H808 H 0.39502 0.3852 0.22178 0.0
O809 O 0.31907 0.35724 0.13818 0.0
C810 C 0.35524 0.37858 0.29454 0.0
O811 O 0.37233 0.36019 0.30076 0.0
N812 N 0.35789 0.31645 0.1605 0.0
C813 C 0.3724 0.26467 0.15266 0.0
C814 C 0.35155 0.27412 0.1197 0.0
C815 C 0.34411 0.30001 0.12559 0.0
C816 C 0.37952 0.30797 0.18845 0.0
C817 C 0.38691 0.28217 0.18588 0.0
H818 H 0.3259 0.30573 0.10737 0.0
H819 H 0.38969 0.32086 0.21788 0.0
H820 H 0.2917 0.32189 0.18952 0.0
H821 H 0.3175 0.28351 0.34136 0.0
H822 H 0.41879 0.36401 0.05146 0.0
H823 H 0.3397 0.26108 0.09404 0.0
H824 H 0.40298 0.27568 0.21241 0.0
C825 C 0.4534 0.58742 0.05316 0.0
C826 C 0.4729 0.57217 0.07393 0.0
N827 N 0.47492 0.55178 0.03749 0.0
N828 N 0.44344 0.57679 1.0035 0.0
C829 C 0.45659 0.55467 0.99592 0.0
H830 H 0.44829 0.60618 0.0704 0.0
Co831 Co 0.42292 0.59578 0.95306 0.0
C832 C 0.41461 0.56016 0.84054 0.0
O833 O 0.41275 0.58037 0.80607 0.0
N834 N 0.40223 0.6172 0.90619 0.0
C835 C 0.36683 0.63627 0.87182 0.0
C836 C 0.37852 0.61291 0.88391 0.0
C837 C 0.40435 0.64318 0.9075 0.0
N838 N 0.38319 0.6552 0.8872 0.0
O839 O 0.39282 0.58666 1.00163 0.0
H840 H 0.36935 0.59427 0.88204 0.0
H841 H 0.41995 0.65339 0.9284 0.0
O842 O 0.41835 0.56381 0.89691 0.0
C843 C 0.38914 0.60407 0.04148 0.0
O844 O 0.40355 0.62476 0.04 0.0
N845 N 0.45342 0.6074 0.91468 0.0
C846 C 0.5057 0.6198 0.90403 0.0
C847 C 0.49429 0.60157 0.86596 0.0
C848 C 0.46796 0.5958 0.87166 0.0
C849 C 0.46372 0.62707 0.94723 0.0
C850 C 0.48953 0.63401 0.94157 0.0
H851 H 0.46014 0.58094 0.84416 0.0
H852 H 0.45246 0.63589 0.98219 0.0
H853 H 0.45434 0.54192 0.95862 0.0
H854 H 0.48573 0.57647 0.11038 0.0
H855 H 0.34725 0.63915 0.85708 0.0
H856 H 0.50597 0.59054 0.83514 0.0
H857 H 0.49735 0.64867 0.97066 0.0
C858 C 0.18843 0.70412 0.79631 0.0
C859 C 0.20572 0.72278 0.81238 0.0
N860 N 0.22555 0.72155 0.77428 0.0
N861 N 0.19722 0.69164 0.74761 0.0
C862 C 0.22045 0.70205 0.73679 0.0
H863 H 0.16966 0.70134 0.81592 0.0
Co864 Co 0.17618 0.67181 0.69982 0.0
C865 C 0.21065 0.66173 0.58505 0.0
O866 O 0.19058 0.65881 0.55041 0.0
N867 N 0.15309 0.65192 0.65534 0.0
C868 C 0.13191 0.61749 0.62217 0.0
C869 C 0.15595 0.62809 0.63211 0.0
C870 C 0.12728 0.65523 0.65932 0.0
N871 N 0.11399 0.63463 0.63983 0.0
O872 O 0.18486 0.64165 0.74792 0.0
H873 H 0.17416 0.61816 0.62786 0.0
H874 H 0.11823 0.67137 0.68132 0.0
O875 O 0.20685 0.66607 0.6411 0.0
C876 C 0.16808 0.6399 0.78972 0.0
O877 O 0.14866 0.65605 0.78978 0.0
N878 N 0.16492 0.70251 0.66221 0.0
C879 C 0.15287 0.75458 0.64829 0.0
C880 C 0.16898 0.74193 0.60736 0.0
C881 C 0.1745 0.71559 0.61464 0.0
C882 C 0.14715 0.71408 0.69824 0.0
C883 C 0.14078 0.73997 0.692 0.0
H884 H 0.18731 0.70647 0.58374 0.0
H885 H 0.13932 0.70364 0.73543 0.0
H886 H 0.23262 0.69698 0.69989 0.0
H887 H 0.20323 0.73721 0.84672 0.0
H888 H 0.12793 0.59812 0.60697 0.0
H889 H 0.17814 0.75255 0.57194 0.0
H890 H 0.12788 0.74896 0.72374 0.0
C891 C 0.06504 0.44415 0.53607 0.0
C892 C 0.04772 0.46318 0.54926 0.0
N893 N 0.05252 0.4832 0.51352 0.0
N894 N 0.08077 0.45214 0.49221 0.0
C895 C 0.07295 0.47634 0.48004 0.0
H896 H 0.06439 0.42478 0.5531 0.0
Co897 Co 0.09974 0.4285 0.44886 0.0
C898 C 0.10688 0.46093 0.33233 0.0
O899 O 0.0946 0.44323 0.30173 0.0
N900 N 0.11841 0.40297 0.4078 0.0
C901 C 0.13875 0.37702 0.34421 0.0
C902 C 0.13046 0.40184 0.35468 0.0
C903 C 0.12089 0.37891 0.42971 0.0
N904 N 0.13264 0.36264 0.39164 0.0
O905 O 0.13001 0.43525 0.4995 0.0
H906 H 0.13337 0.41771 0.32499 0.0
H907 H 0.11341 0.37301 0.47226 0.0
O908 O 0.11009 0.45686 0.38848 0.0
C909 C 0.12875 0.42163 0.54698 0.0
O910 O 0.1091 0.40612 0.55363 0.0
N911 N 0.06867 0.41927 0.40902 0.0
C912 C 0.01581 0.40884 0.4003 0.0
C913 C 0.02628 0.43111 0.37535 0.0
C914 C 0.05269 0.43604 0.38058 0.0
C915 C 0.05883 0.39676 0.43037 0.0
C916 C 0.03259 0.39103 0.42594 0.0
H917 H 0.05963 0.45441 0.36666 0.0
H918 H 0.07065 0.38435 0.45702 0.0
H919 H 0.08031 0.48776 0.44394 0.0
H920 H 0.03164 0.46182 0.5797 0.0
H921 H 0.14849 0.37004 0.30479 0.0
H922 H 0.01385 0.44537 0.35541 0.0
H923 H 0.02518 0.37373 0.44636 0.0
C924 C 0.33174 0.69828 0.24189 0.0
C925 C 0.31514 0.71713 0.22309 0.0
N926 N 0.29738 0.72066 0.26576 0.0
N927 N 0.32433 0.69005 0.29597 0.0
C928 C 0.30309 0.70389 0.30905 0.0
H929 H 0.34931 0.69253 0.2198 0.0
Co930 Co 0.34528 0.67083 0.34474 0.0
C931 C 0.31206 0.66234 0.45924 0.0
O932 O 0.33281 0.66126 0.4922 0.0
N933 N 0.3682 0.6511 0.39134 0.0
C934 C 0.38741 0.61656 0.43001 0.0
C935 C 0.36409 0.62763 0.41513 0.0
C936 C 0.39419 0.65356 0.39167 0.0
N937 N 0.40622 0.63299 0.41477 0.0
O938 O 0.33732 0.64008 0.29697 0.0
H939 H 0.34554 0.61828 0.41719 0.0
H940 H 0.40463 0.66892 0.37082 0.0
O941 O 0.31466 0.66508 0.40244 0.0
C942 C 0.35499 0.63677 0.25764 0.0
O943 O 0.37518 0.65189 0.25936 0.0
N944 N 0.35543 0.70208 0.38229 0.0
C945 C 0.36911 0.75411 0.3965 0.0
C946 C 0.3469 0.74408 0.42379 0.0
C947 C 0.34046 0.71798 0.41638 0.0
C948 C 0.37717 0.71162 0.35642 0.0
C949 C 0.38511 0.73697 0.36573 0.0
H950 H 0.32212 0.71159 0.43269 0.0
H951 H 0.38727 0.70028 0.32359 0.0
H952 H 0.29349 0.70368 0.35164 0.0
H953 H 0.31722 0.7289 0.1839 0.0
H954 H 0.3904 0.59737 0.44714 0.0
H955 H 0.33377 0.75669 0.44744 0.0
H956 H 0.40233 0.7438 0.34375 0.0
C957 C 0.07398 0.58737 0.99151 0.0
C958 C 0.05292 0.57429 0.97061 0.0
N959 N 0.04676 0.55658 1.01123 0.0
N960 N 0.08107 0.57755 0.04443 0.0
C961 C 0.06416 0.55853 0.05491 0.0
H962 H 0.08206 0.60445 0.97185 0.0
Co963 Co 0.10086 0.59614 0.09654 0.0
C964 C 0.10944 0.55984 0.20309 0.0
O965 O 0.10374 0.57928 0.23827 0.0
N966 N 0.12066 0.61716 0.14618 0.0
C967 C 0.15423 0.63563 0.19047 0.0
C968 C 0.14338 0.61251 0.17303 0.0
C969 C 0.11829 0.64307 0.14743 0.0
N970 N 0.13832 0.65472 0.17393 0.0
O971 O 0.13114 0.58991 0.04522 0.0
H972 H 0.15252 0.59385 0.17535 0.0
H973 H 0.1035 0.65357 0.12437 0.0
O974 O 0.10888 0.56392 0.14653 0.0
C975 C 0.13546 0.60804 1.008 0.0
O976 O 0.12174 0.62919 1.01235 0.0
N977 N 0.06998 0.60427 0.13901 0.0
C978 C 0.01824 0.61791 0.1671 0.0
C979 C 0.02966 0.59486 0.18756 0.0
C980 C 0.05529 0.58863 0.1739 0.0
C981 C 0.0589 0.62549 0.1148 0.0
C982 C 0.0335 0.63242 0.12753 0.0
H983 H 0.06197 0.56989 0.18662 0.0
H984 H 0.0691 0.63596 0.08082 0.0
H985 H 0.06297 0.5479 0.09583 0.0
H986 H 0.04198 0.57848 0.93103 0.0
H987 H 0.17306 0.63834 0.20984 0.0
H988 H 0.01892 0.58014 0.20992 0.0
H989 H 0.02568 0.64822 0.10245 0.0
C990 C 0.19274 0.32529 0.74133 0.0
C991 C 0.21027 0.30765 0.72063 0.0
N992 N 0.22837 0.30479 0.76234 0.0
N993 N 0.19991 0.33378 0.7956 0.0
C994 C 0.2221 0.32116 0.80655 0.0
H995 H 0.17458 0.32937 0.72045 0.0
Co996 Co 0.17757 0.35138 0.84656 0.0
C997 C 0.21418 0.3556 0.95805 0.0
O998 O 0.19778 0.34247 0.99038 0.0
N999 N 0.15309 0.3689 0.89482 0.0
C1000 C 0.12936 0.38619 0.96733 0.0
C1001 C 0.15372 0.37854 0.95052 0.0
C1002 C 0.12825 0.37227 0.87809 0.0
N1003 N 0.11331 0.38234 0.92141 0.0
O1004 O 0.18259 0.38294 0.79866 0.0
H1005 H 0.1705 0.38023 0.97784 0.0
H1006 H 0.12075 0.36645 0.83556 0.0
O1007 O 0.20802 0.36053 0.90343 0.0
C1008 C 0.16665 0.38406 0.75509 0.0
O1009 O 0.14907 0.36612 0.75049 0.0
N1010 N 0.16995 0.31938 0.88473 0.0
C1011 C 0.15656 0.26756 0.90131 0.0
C1012 C 0.18049 0.27689 0.91992 0.0
C1013 C 0.18699 0.30267 0.91029 0.0
C1014 C 0.14602 0.31072 0.86969 0.0
C1015 C 0.1387 0.28515 0.87894 0.0
H1016 H 0.20648 0.30822 0.91934 0.0
H1017 H 0.13317 0.323 0.84533 0.0
H1018 H 0.23214 0.32176 0.84833 0.0
H1019 H 0.20827 0.29566 0.68151 0.0
H1020 H 0.12387 0.39408 1.01006 0.0
H1021 H 0.19486 0.26386 0.93734 0.0
H1022 H 0.12 0.27869 0.86399 0.0
C1023 C 0.44932 0.44172 0.49211 0.0
C1024 C 0.46751 0.4591 0.4736 0.0
N1025 N 0.47038 0.47671 0.51687 0.0
N1026 N 0.44092 0.44845 0.54673 0.0
C1027 C 0.45395 0.47008 0.56036 0.0
H1028 H 0.44418 0.42416 0.46925 0.0
Co1029 Co 0.42206 0.42697 0.59521 0.0
C1030 C 0.4119 0.45963 0.71024 0.0
O1031 O 0.40942 0.43866 0.74196 0.0
N1032 N 0.40265 0.40374 0.64165 0.0
C1033 C 0.36733 0.38372 0.67379 0.0
C1034 C 0.37811 0.40722 0.65998 0.0
C1035 C 0.40624 0.37793 0.64513 0.0
N1036 N 0.38509 0.36533 0.66393 0.0
O1037 O 0.39128 0.4341 0.54683 0.0
H1038 H 0.36796 0.42538 0.65826 0.0
H1039 H 0.42303 0.36792 0.62913 0.0
O1040 O 0.41561 0.45739 0.65356 0.0
C1041 C 0.38936 0.4164 0.50694 0.0
O1042 O 0.40572 0.39717 0.50858 0.0
N1043 N 0.45337 0.41744 0.63273 0.0
C1044 C 0.50581 0.4054 0.6457 0.0
C1045 C 0.49485 0.42672 0.67521 0.0
C1046 C 0.4686 0.43247 0.668 0.0
C1047 C 0.46367 0.39622 0.60568 0.0
C1048 C 0.48935 0.38916 0.61389 0.0
H1049 H 0.46155 0.45043 0.68549 0.0
H1050 H 0.45253 0.38584 0.57307 0.0
H1051 H 0.45344 0.47941 0.60332 0.0
H1052 H 0.47924 0.45775 0.43397 0.0
H1053 H 0.34753 0.38021 0.68627 0.0
H1054 H 0.50689 0.43992 0.69993 0.0
H1055 H 0.4969 0.37253 0.59048 0.0
C1056 C 0.14387 0.09047 0.15651 0.0
C1057 C 0.15334 0.10187 0.10368 0.0
C1058 C 0.1826 0.12888 0.16296 0.0
C1059 C 0.17046 0.12022 0.21569 0.0
N1060 N 0.14536 0.08818 0.26475 0.0
N1061 N 0.1865 0.12575 0.05516 0.0
C1062 C 0.15325 0.09913 0.21292 0.0
C1063 C 0.1746 0.11884 0.10669 0.0
N1064 N 0.12478 0.07255 0.15235 0.0
N1065 N 0.20051 0.14799 0.16699 0.0
H1066 H 0.18071 0.1183 1.01421 0.0
H1067 H 0.20291 0.13712 0.05301 0.0
H1068 H 0.20726 0.15459 0.2079 0.0
H1069 H 0.20837 0.15749 0.13075 0.0
H1070 H 0.11488 0.06504 0.18845 0.0
H1071 H 0.11871 0.06528 0.11149 0.0
H1072 H 0.13359 0.07206 0.26732 0.0
H1073 H 0.1524 0.09443 0.30569 0.0
C1074 C 0.14162 0.9338 0.40723 0.0
C1075 C 0.151 0.92325 0.4609 0.0
C1076 C 0.18269 0.89808 0.40353 0.0
C1077 C 0.16925 0.90394 0.35064 0.0
N1078 N 0.13905 0.93048 0.29934 0.0
N1079 N 0.18293 0.89863 0.51182 0.0
C1080 C 0.15009 0.92336 0.35161 0.0
C1081 C 0.17284 0.90691 0.45945 0.0
N1082 N 0.12386 0.95314 0.41029 0.0
N1083 N 0.20436 0.88331 0.39969 0.0
H1084 H 0.17653 0.90592 0.55251 0.0
H1085 H 0.19716 0.88464 0.51526 0.0
H1086 H 0.21167 0.87726 0.35875 0.0
H1087 H 0.21604 0.87883 0.43556 0.0
H1088 H 0.11655 0.96272 0.37362 0.0
H1089 H 0.11783 0.96081 0.45092 0.0
H1090 H 0.1232 0.9426 0.29599 0.0
H1091 H 0.14605 0.92379 0.25862 0.0
C1092 C 0.37076 0.92377 0.71296 0.0
C1093 C 0.3538 0.90256 0.71788 0.0
C1094 C 0.34982 0.90101 0.60918 0.0
C1095 C 0.37032 0.91884 0.60432 0.0
N1096 N 0.39429 0.95323 0.64849 0.0
N1097 N 0.32047 0.87726 0.67353 0.0
C1098 C 0.37855 0.93247 0.65548 0.0
C1099 C 0.34088 0.89345 0.66664 0.0
N1100 N 0.37986 0.93482 0.76374 0.0
N1101 N 0.33981 0.89072 0.55848 0.0
H1102 H 0.31327 0.87276 0.71543 0.0
H1103 H 0.30952 0.86996 0.63882 0.0
H1104 H 0.34539 0.89726 0.51665 0.0
H1105 H 0.32635 0.87594 0.55735 0.0
H1106 H 0.39377 0.94916 0.76513 0.0
H1107 H 0.373 0.92936 0.80541 0.0
H1108 H 0.40123 0.96451 0.68308 0.0
H1109 H 0.39897 0.96021 0.60653 0.0
C1110 C 0.36454 0.09798 0.85607 0.0
C1111 C 0.34881 0.12026 0.8534 0.0
C1112 C 0.3477 0.12216 0.96254 0.0
C1113 C 0.36621 0.1021 0.96495 0.0
N1114 N 0.38601 0.06584 0.91726 0.0
N1115 N 0.31893 0.14836 0.90229 0.0
C1116 C 0.37221 0.08808 0.91256 0.0
C1117 C 0.33795 0.13033 0.90637 0.0
N1118 N 0.37328 0.08739 0.80429 0.0
N1119 N 0.34088 0.13439 1.01397 0.0
H1120 H 0.31166 0.15412 0.86133 0.0
H1121 H 0.309 0.15589 0.93854 0.0
H1122 H 0.34711 0.12792 0.0553 0.0
H1123 H 0.32971 0.151 1.0159 0.0
H1124 H 0.38697 0.07281 0.80183 0.0
H1125 H 0.36691 0.09389 0.76309 0.0
H1126 H 0.39035 0.05377 0.88168 0.0
H1127 H 0.39132 0.05846 0.95842 0.0
C1128 C 0.871 0.92091 0.85404 0.0
C1129 C 0.85258 0.90079 0.85247 0.0
C1130 C 0.84839 0.90338 0.96133 0.0
C1131 C 0.87004 0.91987 0.96341 0.0
N1132 N 0.89768 0.94971 0.91398 0.0
N1133 N 0.82062 0.87552 0.90206 0.0
C1134 C 0.87965 0.9307 0.91014 0.0
C1135 C 0.83983 0.89338 0.90548 0.0
N1136 N 0.88109 0.92941 0.80169 0.0
N1137 N 0.83663 0.897 1.01342 0.0
H1138 H 0.81364 0.86888 0.8614 0.0
H1139 H 0.81163 0.86725 0.93849 0.0
H1140 H 0.8427 0.90466 0.05393 0.0
H1141 H 0.82029 0.88559 1.01672 0.0
H1142 H 0.8956 0.94305 0.79807 0.0
H1143 H 0.87436 0.92277 0.7608 0.0
H1144 H 0.90612 0.95874 0.87785 0.0
H1145 H 0.90326 0.95742 0.95478 0.0
C1146 C 0.8702 0.10192 0.70737 0.0
C1147 C 0.85288 0.12301 0.70991 0.0
C1148 C 0.84847 0.12121 0.60112 0.0
C1149 C 0.86953 0.10392 0.59809 0.0
N1150 N 0.89723 0.07375 0.64634 0.0
N1151 N 0.82233 0.15032 0.66161 0.0
C1152 C 0.87893 0.09253 0.65088 0.0
C1153 C 0.84051 0.1314 0.65738 0.0
N1154 N 0.87892 0.0918 0.75937 0.0
N1155 N 0.83679 0.12826 0.54954 0.0
H1156 H 0.81568 0.15706 0.70258 0.0
H1157 H 0.81396 0.15941 0.6255 0.0
H1158 H 0.84252 0.12061 0.50865 0.0
H1159 H 0.82071 0.14012 0.54713 0.0
H1160 H 0.89136 0.0762 0.7624 0.0
H1161 H 0.87237 0.09853 0.80046 0.0
H1162 H 0.9067 0.06553 0.6821 0.0
H1163 H 0.90272 0.06607 0.60537 0.0
C1164 C 0.65497 0.10055 0.3525 0.0
C1165 C 0.67135 0.12231 0.34979 0.0
C1166 C 0.67265 0.124 0.4589 0.0
C1167 C 0.65365 0.10447 0.46139 0.0
N1168 N 0.63268 0.06899 0.41385 0.0
N1169 N 0.70186 0.14965 0.39834 0.0
C1170 C 0.64715 0.09077 0.40902 0.0
C1171 C 0.68249 0.13204 0.40264 0.0
N1172 N 0.64569 0.09043 0.30085 0.0
N1173 N 0.67985 0.1359 0.51036 0.0
H1174 H 0.70912 0.15542 0.35729 0.0
H1175 H 0.71201 0.15686 0.43446 0.0
H1176 H 0.67349 0.1295 0.55172 0.0
H1177 H 0.69147 0.15216 0.51231 0.0
H1178 H 0.6316 0.07628 0.29867 0.0
H1179 H 0.65206 0.09683 0.25951 0.0
H1180 H 0.62796 0.05709 0.3783 0.0
H1181 H 0.62718 0.06178 0.45511 0.0
C1182 C 0.65656 0.92606 0.20496 0.0
C1183 C 0.67216 0.90375 0.20876 0.0
C1184 C 0.67395 0.90115 0.09996 0.0
C1185 C 0.65542 0.92111 0.09644 0.0
N1186 N 0.63587 0.95799 0.14187 0.0
N1187 N 0.70336 0.87649 0.16172 0.0
C1188 C 0.64933 0.93563 0.14797 0.0
C1189 C 0.68365 0.89365 0.15657 0.0
N1190 N 0.64773 0.93712 0.25611 0.0
N1191 N 0.68082 0.88832 0.04936 0.0
H1192 H 0.71097 0.87172 0.20302 0.0
H1193 H 0.71367 0.86912 0.12582 0.0
H1194 H 0.67456 0.89429 1.00763 0.0
H1195 H 0.69192 0.87165 0.04875 0.0
H1196 H 0.63415 0.95183 0.25765 0.0
H1197 H 0.65398 0.93094 0.29766 0.0
H1198 H 0.63141 0.97037 0.17683 0.0
H1199 H 0.63104 0.96511 0.10013 0.0
C1200 C 0.6453 0.59135 0.65705 0.0
C1201 C 0.65339 0.60434 0.60507 0.0
C1202 C 0.68292 0.63079 0.66485 0.0
C1203 C 0.67139 0.62113 0.71734 0.0
N1204 N 0.64682 0.58834 0.76525 0.0
N1205 N 0.68538 0.62969 0.55661 0.0
C1206 C 0.65454 0.59975 0.71377 0.0
C1207 C 0.67427 0.62175 0.60825 0.0
N1208 N 0.62808 0.57169 0.65164 0.0
N1209 N 0.70092 0.64979 0.6696 0.0
H1210 H 0.67929 0.62264 0.51552 0.0
H1211 H 0.70142 0.64158 0.55427 0.0
H1212 H 0.7083 0.65549 0.71059 0.0
H1213 H 0.70841 0.65991 0.63385 0.0
H1214 H 0.61985 0.56192 0.687 0.0
H1215 H 0.62268 0.56454 0.61021 0.0
H1216 H 0.6343 0.57282 0.76772 0.0
H1217 H 0.65404 0.59417 0.80635 0.0
C1218 C 0.68252 0.39206 0.90175 0.0
C1219 C 0.67114 0.40258 0.85015 0.0
C1220 C 0.64779 0.43389 0.91297 0.0
C1221 C 0.65465 0.41964 0.96403 0.0
N1222 N 0.68084 0.38731 1.00933 0.0
N1223 N 0.64608 0.43576 0.80484 0.0
C1224 C 0.67332 0.39978 0.95909 0.0
C1225 C 0.65518 0.42465 0.85537 0.0
N1226 N 0.70149 0.37407 0.89533 0.0
N1227 N 0.6334 0.45568 0.92007 0.0
H1228 H 0.65232 0.42985 0.76286 0.0
H1229 H 0.63233 0.4503 0.80406 0.0
H1230 H 0.62818 0.46249 0.96204 0.0
H1231 H 0.6283 0.46791 0.88568 0.0
H1232 H 0.71174 0.36622 0.93043 0.0
H1233 H 0.7084 0.36857 0.85366 0.0
H1234 H 0.6922 0.37082 1.0096 0.0
H1235 H 0.67504 0.39348 0.05145 0.0
C1236 C 0.85065 0.40173 0.10436 0.0
C1237 C 0.86877 0.42209 0.10213 0.0
C1238 C 0.86699 0.42584 0.21107 0.0
C1239 C 0.85164 0.40332 0.21354 0.0
N1240 N 0.82197 0.37526 0.16433 0.0
N1241 N 0.88819 0.45831 0.15013 0.0
C1242 C 0.84093 0.3933 0.16048 0.0
C1243 C 0.87459 0.43596 0.15469 0.0
N1244 N 0.84419 0.38944 0.05287 0.0
N1245 N 0.87528 0.43657 0.26296 0.0
H1246 H 0.89345 0.46577 0.10894 0.0
H1247 H 0.89248 0.47031 0.18578 0.0
H1248 H 0.86881 0.43001 0.30407 0.0
H1249 H 0.88863 0.45141 0.26564 0.0
H1250 H 0.83343 0.37259 0.05094 0.0
H1251 H 0.85037 0.39607 1.01158 0.0
H1252 H 0.81216 0.36783 0.12794 0.0
H1253 H 0.8145 0.36953 0.20518 0.0
C1254 C 0.8718 0.60112 0.35815 0.0
C1255 C 0.85256 0.62033 0.35216 0.0
C1256 C 0.84649 0.62057 0.46063 0.0
C1257 C 0.86859 0.60479 0.46674 0.0
N1258 N 0.89612 0.57281 0.42347 0.0
N1259 N 0.81693 0.6432 0.39465 0.0
C1260 C 0.87902 0.59246 0.41592 0.0
C1261 C 0.83806 0.628 0.40265 0.0
N1262 N 0.88405 0.5924 0.30834 0.0
N1263 N 0.83425 0.62884 0.51083 0.0
H1264 H 0.81037 0.64793 0.35238 0.0
H1265 H 0.80519 0.65 0.42866 0.0
H1266 H 0.83965 0.62225 0.55269 0.0
H1267 H 0.81883 0.64159 0.5116 0.0
H1268 H 0.90011 0.58047 0.30867 0.0
H1269 H 0.878 0.59773 0.26601 0.0
H1270 H 0.90398 0.56201 0.38896 0.0
H1271 H 0.90062 0.56587 0.4655 0.0
C1272 C 0.37763 0.42933 0.40298 0.0
C1273 C 0.37066 0.41656 0.45616 0.0
C1274 C 0.34166 0.38845 0.3985 0.0
C1275 C 0.35291 0.3974 0.34511 0.0
N1276 N 0.37794 0.42909 0.29453 0.0
N1277 N 0.34329 0.38669 0.50655 0.0
C1278 C 0.36935 0.41916 0.34686 0.0
C1279 C 0.35129 0.39733 0.45443 0.0
N1280 N 0.39279 0.4507 0.40665 0.0
N1281 N 0.32223 0.37087 0.39498 0.0
H1282 H 0.34924 0.39392 0.54754 0.0
H1283 H 0.3313 0.37076 0.50957 0.0
H1284 H 0.31501 0.36466 0.35418 0.0
H1285 H 0.31204 0.36398 0.43131 0.0
H1286 H 0.39825 0.4618 0.37052 0.0
H1287 H 0.39843 0.45839 0.44742 0.0
H1288 H 0.39189 0.44332 0.291 0.0
H1289 H 0.37072 0.42275 0.25385 0.0
C1290 C 0.34954 0.61759 0.09688 0.0
C1291 C 0.37144 0.60136 0.09374 0.0
C1292 C 0.37106 0.59802 0.20276 0.0
C1293 C 0.35319 0.61859 0.20588 0.0
N1294 N 0.32146 0.64462 0.15787 0.0
N1295 N 0.40051 0.57243 0.14206 0.0
C1296 C 0.34074 0.62687 0.15337 0.0
C1297 C 0.38096 0.5899 0.14634 0.0
N1298 N 0.33772 0.62439 0.04529 0.0
N1299 N 0.37872 0.58675 0.25433 0.0
H1300 H 0.40673 0.56525 0.10119 0.0
H1301 H 0.41058 0.5652 0.17812 0.0
H1302 H 0.37119 0.59252 0.29531 0.0
H1303 H 0.39083 0.57085 0.25657 0.0
H1304 H 0.32108 0.63545 0.04295 0.0
H1305 H 0.34398 0.6173 1.00429 0.0
H1306 H 0.31301 0.65378 0.12196 0.0
H1307 H 0.31383 0.6501 0.19887 0.0
C1308 C 0.17424 0.62242 0.95101 0.0
C1309 C 0.15293 0.60557 0.95501 0.0
C1310 C 0.153 0.60131 0.84598 0.0
C1311 C 0.17021 0.62238 0.84212 0.0
N1312 N 0.20049 0.65051 0.88932 0.0
N1313 N 0.12574 0.5743 0.90825 0.0
C1314 C 0.18235 0.63169 0.89429 0.0
C1315 C 0.14386 0.59312 0.9029 0.0
N1316 N 0.18643 0.62953 1.00203 0.0
N1317 N 0.14509 0.58977 0.79465 0.0
H1318 H 0.12053 0.5669 0.94945 0.0
H1319 H 0.11622 0.56575 0.87283 0.0
H1320 H 0.15211 0.59554 0.75335 0.0
H1321 H 0.13298 0.57391 0.7926 0.0
H1322 H 0.20294 0.64079 1.00348 0.0
H1323 H 0.18087 0.62218 0.04316 0.0
H1324 H 0.20824 0.66052 0.92511 0.0
H1325 H 0.20761 0.65629 0.84818 0.0
C1326 C 0.14847 0.42338 0.70638 0.0
C1327 C 0.1673 0.40361 0.7063 0.0
C1328 C 0.16869 0.40489 0.59692 0.0
C1329 C 0.14776 0.42245 0.59695 0.0
N1330 N 0.12288 0.45398 0.6496 0.0
N1331 N 0.20079 0.38135 0.65406 0.0
C1332 C 0.13968 0.43379 0.65129 0.0
C1333 C 0.17944 0.39661 0.65214 0.0
N1334 N 0.13788 0.43087 0.75921 0.0
N1335 N 0.17697 0.39485 0.54414 0.0
H1336 H 0.20878 0.37555 0.69429 0.0
H1337 H 0.21173 0.37638 0.61702 0.0
H1338 H 0.16994 0.40138 0.50358 0.0
H1339 H 0.19009 0.37979 0.54041 0.0
H1340 H 0.12208 0.44306 0.76312 0.0
H1341 H 0.14485 0.42413 0.79967 0.0
H1342 H 0.11702 0.46439 0.68679 0.0
H1343 H 0.11644 0.46161 0.6095 0.0
C1344 C 0.16406 0.29751 0.3848 0.0
C1345 C 0.14477 0.28154 0.40961 0.0
C1346 C 0.11602 0.31885 0.41491 0.0
C1347 C 0.13676 0.3353 0.39912 0.0
N1348 N 0.18241 0.34013 0.38393 0.0
N1349 N 0.10339 0.27798 0.45731 0.0
C1350 C 0.16141 0.32458 0.38872 0.0
C1351 C 0.12106 0.29254 0.42781 0.0
N1352 N 0.18394 0.28697 0.35353 0.0
N1353 N 0.09135 0.3278 0.41354 0.0
H1354 H 0.10655 0.25867 0.46749 0.0
H1355 H 0.08677 0.28572 0.47623 0.0
H1356 H 0.08671 0.34617 0.3987 0.0
H1357 H 0.07539 0.31603 0.41998 0.0
H1358 H 0.19739 0.29803 0.33065 0.0
H1359 H 0.18479 0.26736 0.34396 0.0
H1360 H 0.20109 0.3329 0.38066 0.0
H1361 H 0.18139 0.36 0.39013 0.0
C1362 C 0.95364 0.86984 0.65947 0.0
C1363 C 0.93658 0.89053 0.64733 0.0
C1364 C 0.97362 0.91908 0.63606 0.0
C1365 C 0.99028 0.89945 0.65692 0.0
N1366 N 0.99512 0.85704 0.69832 0.0
N1367 N 0.93041 0.93628 0.63808 0.0
C1368 C 0.97994 0.8751 0.67195 0.0
C1369 C 0.94659 0.91563 0.63996 0.0
N1370 N 0.94515 0.84508 0.65522 0.0
N1371 N 0.98348 0.94021 0.60862 0.0
H1372 H 0.91057 0.93454 0.6437 0.0
H1373 H 0.93701 0.95522 0.63754 0.0
H1374 H 1.00302 0.94197 0.59938 0.0
H1375 H 0.97201 0.95407 0.58837 0.0
H1376 H 0.95729 0.82919 0.65879 0.0
H1377 H 0.92669 0.84049 0.64085 0.0
H1378 H 0.98791 0.83983 0.71502 0.0
H1379 H 0.0144 0.86036 0.7085 0.0
C1380 C 0.37437 0.69442 0.94732 0.0
C1381 C 0.37787 0.68252 0.89116 0.0
C1382 C 0.37166 0.72431 0.84295 0.0
C1383 C 0.37093 0.73681 0.89964 0.0
N1384 N 0.37652 0.73365 1.00562 0.0
N1385 N 0.38374 0.68629 0.78618 0.0
C1386 C 0.37356 0.72179 0.95186 0.0
C1387 C 0.37755 0.69755 0.83918 0.0
N1388 N 0.37116 0.6794 0.99622 0.0
N1389 N 0.36575 0.73762 0.79265 0.0
H1390 H 0.38783 0.6667 0.78218 0.0
H1391 H 0.38688 0.69663 0.74739 0.0
H1392 H 0.36137 0.75714 0.7922 0.0
H1393 H 0.36295 0.72881 0.75161 0.0
H1394 H 0.36597 0.68663 0.03772 0.0
H1395 H 0.37124 0.65938 0.99371 0.0
H1396 H 0.38103 0.7238 0.04434 0.0
H1397 H 0.37699 0.7536 1.01065 0.0
C1398 C 0.55078 0.10406 0.19977 0.0
C1399 C 0.53242 0.12084 0.17375 0.0
C1400 C 0.56803 0.14785 0.13852 0.0
C1401 C 0.58577 0.12808 0.15226 0.0
N1402 N 0.59419 0.08716 0.19794 0.0
N1403 N 0.52683 0.16657 0.16314 0.0
C1404 C 0.57715 0.10602 0.18315 0.0
C1405 C 0.54181 0.14523 0.15551 0.0
N1406 N 0.54416 0.0902 0.24864 0.0
N1407 N 0.57613 0.16896 0.10804 0.0
H1408 H 0.50905 0.16562 0.18466 0.0
H1409 H 0.53344 0.18521 0.15584 0.0
H1410 H 0.59516 0.17128 0.09432 0.0
H1411 H 0.56349 0.18287 0.09208 0.0
H1412 H 0.55726 0.07924 0.27269 0.0
H1413 H 0.52672 0.09336 0.27054 0.0
H1414 H 0.58839 0.06956 0.21542 0.0
H1415 H 0.61381 0.08851 0.18897 0.0
C1416 C 0.14116 0.69652 0.22634 0.0
C1417 C 0.14361 0.682 0.17349 0.0
C1418 C 0.15105 0.72161 0.11715 0.0
C1419 C 0.15106 0.73601 0.17084 0.0
N1420 N 0.14993 0.73645 0.2782 0.0
N1421 N 0.15523 0.67969 0.0705 0.0
C1422 C 0.14706 0.72329 0.226 0.0
C1423 C 0.1498 0.6943 0.11939 0.0
N1424 N 0.13251 0.68472 0.27653 0.0
N1425 N 0.15125 0.73407 0.06391 0.0
H1426 H 0.15482 0.65967 0.07145 0.0
H1427 H 0.16243 0.68719 0.03107 0.0
H1428 H 0.15147 0.75408 0.06047 0.0
H1429 H 0.14871 0.72475 1.02337 0.0
H1430 H 0.1275 0.69462 0.31513 0.0
H1431 H 0.12843 0.66508 0.27792 0.0
H1432 H 0.15009 0.72759 0.31951 0.0
H1433 H 0.15444 0.75594 0.28041 0.0
C1434 C 0.5504 0.90174 0.36242 0.0
C1435 C 0.53578 0.90166 0.41585 0.0
C1436 C 0.57541 0.89175 0.47135 0.0
C1437 C 0.59011 0.89482 0.41911 0.0
N1438 N 0.59231 0.90744 0.31691 0.0
N1439 N 0.53599 0.90127 0.5237 0.0
C1440 C 0.57777 0.90123 0.3652 0.0
C1441 C 0.54871 0.89791 0.4711 0.0
N1442 N 0.5382 0.90096 0.30884 0.0
N1443 N 0.58679 0.88193 0.52086 0.0
H1444 H 0.51664 0.90616 0.52691 0.0
H1445 H 0.54528 0.90173 0.56455 0.0
H1446 H 0.60623 0.87704 0.52229 0.0
H1447 H 0.57652 0.87641 0.55841 0.0
H1448 H 0.54789 0.89854 0.2687 0.0
H1449 H 0.51826 0.89996 0.30477 0.0
H1450 H 0.58458 0.91476 0.27788 0.0
H1451 H 0.61234 0.90766 0.31818 0.0
C1452 C 0.38454 0.32309 0.61157 0.0
C1453 C 0.38123 0.33771 0.66431 0.0
C1454 C 0.36907 0.2983 0.71685 0.0
C1455 C 0.37569 0.28315 0.66588 0.0
N1456 N 0.39601 0.28178 0.56936 0.0
N1457 N 0.37511 0.33856 0.76986 0.0
C1458 C 0.38518 0.29574 0.61443 0.0
C1459 C 0.37481 0.3251 0.71772 0.0
N1460 N 0.38609 0.33529 0.55828 0.0
N1461 N 0.35645 0.28754 0.76379 0.0
H1462 H 0.3797 0.35807 0.77206 0.0
H1463 H 0.37329 0.32987 0.81119 0.0
H1464 H 0.35152 0.26819 0.76594 0.0
H1465 H 0.34863 0.29838 0.79841 0.0
H1466 H 0.38616 0.32552 0.51781 0.0
H1467 H 0.38427 0.35517 0.55445 0.0
H1468 H 0.40527 0.29027 0.53339 0.0
H1469 H 0.39837 0.26188 0.57112 0.0
C1470 C 0.95602 0.1522 0.90402 0.0
C1471 C 0.9391 0.13134 0.91558 0.0
C1472 C 0.9765 0.10322 0.9284 0.0
C1473 C 0.99309 0.12298 0.90779 0.0
N1474 N 0.99752 0.1653 0.86557 0.0
N1475 N 0.93358 0.08548 0.92453 0.0
C1476 C 0.98248 0.14718 0.8922 0.0
C1477 C 0.94944 0.10636 0.92349 0.0
N1478 N 0.94725 0.17691 0.908 0.0
N1479 N 0.98638 0.08219 0.95626 0.0
H1480 H 0.91381 0.08691 0.91771 0.0
H1481 H 0.9405 0.06665 0.92544 0.0
H1482 H 1.00592 0.08033 0.96547 0.0
H1483 H 0.97486 0.06841 0.97665 0.0
H1484 H 0.95928 0.19286 0.90484 0.0
H1485 H 0.92862 0.18142 0.92173 0.0
H1486 H 0.99012 0.18237 0.84848 0.0
H1487 H 0.01686 0.16214 0.85544 0.0
C1488 C 0.86827 0.72811 0.7199 0.0
C1489 C 0.86655 0.73936 0.66258 0.0
C1490 C 0.86924 0.6963 0.61772 0.0
C1491 C 0.87423 0.68554 0.67424 0.0
N1492 N 0.88162 0.69134 0.77842 0.0
N1493 N 0.86852 0.73447 0.55628 0.0
C1494 C 0.87449 0.7015 0.72522 0.0
C1495 C 0.86782 0.72351 0.61123 0.0
N1496 N 0.86312 0.74265 0.7692 0.0
N1497 N 0.86502 0.68032 0.5706 0.0
H1498 H 0.86762 0.7543 0.5498 0.0
H1499 H 0.87214 0.72411 0.5175 0.0
H1500 H 0.86518 0.6604 0.57493 0.0
H1501 H 0.85887 0.68664 0.52923 0.0
H1502 H 0.86146 0.73496 0.81159 0.0
H1503 H 0.85819 0.76207 0.76721 0.0
H1504 H 0.88495 0.70243 0.81621 0.0
H1505 H 0.88618 0.67192 0.78347 0.0
C1506 C 0.04333 0.14105 0.37066 0.0
C1507 C 0.03099 0.12297 0.40795 0.0
C1508 C 0.07278 0.11204 0.45216 0.0
C1509 C 0.08452 0.13216 0.42009 0.0
N1510 N 0.07963 0.16967 0.35876 0.0
N1511 N 0.03337 0.09473 0.49272 0.0
C1512 C 0.0695 0.14761 0.38149 0.0
C1513 C 0.04556 0.10934 0.45106 0.0
N1514 N 0.02998 0.15232 0.3256 0.0
N1515 N 0.08781 0.0953 0.48313 0.0
H1516 H 0.01347 0.09266 0.49452 0.0
H1517 H 0.04279 0.08645 0.52862 0.0
H1518 H 0.10781 0.09689 0.48433 0.0
H1519 H 0.08072 0.07863 0.50276 0.0
H1520 H 0.0387 0.1636 0.29321 0.0
H1521 H 1.01055 0.14872 0.31779 0.0
H1522 H 0.06893 0.18304 0.33493 0.0
H1523 H 0.09797 0.17609 0.36945 0.0
C1524 C 0.62087 0.31853 0.15227 0.0
C1525 C 0.64166 0.33513 0.16676 0.0
C1526 C 0.66937 0.29728 0.17786 0.0
C1527 C 0.64982 0.28118 0.1541 0.0
N1528 N 0.60798 0.27784 0.10873 0.0
N1529 N 0.68744 0.34009 0.17915 0.0
C1530 C 0.62586 0.29224 0.13811 0.0
C1531 C 0.66647 0.32445 0.17537 0.0
N1532 N 0.59619 0.32741 0.15547 0.0
N1533 N 0.68996 0.28677 0.20628 0.0
H1534 H 0.68628 0.35997 0.17387 0.0
H1535 H 0.70619 0.33298 0.1807 0.0
H1536 H 0.69161 0.26706 0.21371 0.0
H1537 H 0.70356 0.29784 0.22872 0.0
H1538 H 0.58021 0.31556 0.15011 0.0
H1539 H 0.59167 0.34584 0.17067 0.0
H1540 H 0.59116 0.28567 0.09135 0.0
H1541 H 0.61115 0.25869 0.09672 0.0
C1542 C 0.44905 0.88961 0.97958 0.0
C1543 C 0.43409 0.89211 0.9277 0.0
C1544 C 0.47322 0.90092 0.86989 0.0
C1545 C 0.48797 0.90122 0.92288 0.0
N1546 N 0.48879 0.89951 1.03031 0.0
N1547 N 0.43097 0.90435 0.8254 0.0
C1548 C 0.47559 0.89648 0.9784 0.0
C1549 C 0.44594 0.89898 0.87337 0.0
N1550 N 0.43798 0.87986 1.02961 0.0
N1551 N 0.48532 0.9013 0.81601 0.0
H1552 H 0.41099 0.90331 0.82705 0.0
H1553 H 0.43811 0.91207 0.78615 0.0
H1554 H 0.50527 0.90171 0.81147 0.0
H1555 H 0.47575 0.89859 0.77594 0.0
H1556 H 0.44836 0.87475 0.0672 0.0
H1557 H 0.41859 0.87479 0.03162 0.0
H1558 H 0.48004 0.89912 0.07188 0.0
H1559 H 0.50804 0.9049 0.03226 0.0
C1560 C 0.86243 0.32497 0.88968 0.0
C1561 C 0.88669 0.33563 0.90414 0.0
C1562 C 0.90144 0.2926 0.93422 0.0
C1563 C 0.87826 0.28166 0.91256 0.0
N1564 N 0.84068 0.2875 0.8513 0.0
N1565 N 0.93148 0.32799 0.92591 0.0
C1566 C 0.85982 0.29786 0.88507 0.0
C1567 C 0.90686 0.31901 0.92271 0.0
N1568 N 0.8416 0.34059 0.88223 0.0
N1569 N 0.91811 0.27797 0.96642 0.0
H1570 H 0.93653 0.34656 0.91325 0.0
H1571 H 0.94722 0.31614 0.9343 0.0
H1572 H 0.91461 0.25869 0.97618 0.0
H1573 H 0.9341 0.28564 0.98789 0.0
H1574 H 0.82306 0.33344 0.87623 0.0
H1575 H 0.84241 0.36043 0.88904 0.0
H1576 H 0.82797 0.29868 0.82667 0.0
H1577 H 0.83961 0.26785 0.84208 0.0
C1578 C 0.44656 0.12302 0.70187 0.0
C1579 C 0.43459 0.13056 0.64831 0.0
C1580 C 0.47606 0.12763 0.59672 0.0
C1581 C 0.48858 0.12246 0.65166 0.0
N1582 N 0.48601 0.12058 0.75848 0.0
N1583 N 0.43835 0.14488 0.54769 0.0
C1584 C 0.47387 0.12162 0.70487 0.0
C1585 C 0.44949 0.13423 0.59655 0.0
N1586 N 0.43169 0.11644 0.7494 0.0
N1587 N 0.48914 0.12519 0.54431 0.0
H1588 H 0.41897 0.15007 0.54651 0.0
H1589 H 0.44874 0.15072 0.51058 0.0
H1590 H 0.50843 0.11993 0.54154 0.0
H1591 H 0.48022 0.1259 0.50305 0.0
H1592 H 0.43906 0.10829 0.7879 0.0
H1593 H 0.41165 0.11689 0.74806 0.0
H1594 H 0.4764 0.12243 0.79886 0.0
H1595 H 0.50598 0.12046 0.76265 0.0
C1596 C 0.64643 0.72659 0.34523 0.0
C1597 C 0.65043 0.73969 0.40038 0.0
C1598 C 0.64893 0.69797 0.45145 0.0
C1599 C 0.64245 0.68549 0.39746 0.0
N1600 N 0.62969 0.68866 0.29559 0.0
N1601 N 0.64964 0.73786 0.50738 0.0
C1602 C 0.63971 0.70004 0.34511 0.0
C1603 C 0.65009 0.72535 0.45395 0.0
N1604 N 0.65007 0.73901 0.29258 0.0
N1605 N 0.65468 0.68354 0.50003 0.0
H1606 H 0.64927 0.75786 0.51118 0.0
H1607 H 0.64691 0.72848 0.54762 0.0
H1608 H 0.65434 0.66351 0.49913 0.0
H1609 H 0.6621 0.69128 0.53909 0.0
H1610 H 0.6504 0.72951 0.25179 0.0
H1611 H 0.65522 0.75826 0.28928 0.0
H1612 H 0.62445 0.69889 0.25788 0.0
H1613 H 0.62428 0.66936 0.29436 0.0
C1614 C 0.04633 0.90893 0.11611 0.0
C1615 C 0.03065 0.89726 0.16021 0.0
C1616 C 0.06785 0.87193 0.19297 0.0
C1617 C 0.08403 0.88555 0.15299 0.0
N1618 N 0.08948 0.92104 0.08638 0.0
N1619 N 0.02745 0.87072 0.24716 0.0
C1620 C 0.07346 0.90533 0.11763 0.0
C1621 C 0.04181 0.87991 0.20109 0.0
N1622 N 0.03533 0.92256 0.07113 0.0
N1623 N 0.07669 0.85021 0.21982 0.0
H1624 H 1.00813 0.8755 0.25326 0.0
H1625 H 0.03528 0.86013 0.28183 0.0
H1626 H 0.0949 0.84273 0.21165 0.0
H1627 H 0.06507 0.83807 0.24486 0.0
H1628 H 0.04566 0.92932 0.03477 0.0
H1629 H 0.01554 0.92509 0.06717 0.0
H1630 H 0.08313 0.93738 0.06417 0.0
H1631 H 0.10945 0.91919 0.08791 0.0
C1632 C 0.66298 0.79814 0.87869 0.0
C1633 C 0.64465 0.78188 0.90626 0.0
C1634 C 0.61546 0.81887 0.91529 0.0
C1635 C 0.63549 0.83565 0.89673 0.0
N1636 N 0.68055 0.84108 0.87459 0.0
N1637 N 0.60421 0.7775 0.95757 0.0
C1638 C 0.65995 0.82523 0.88254 0.0
C1639 C 0.62114 0.79252 0.92699 0.0
N1640 N 0.68238 0.78781 0.84543 0.0
N1641 N 0.59073 0.82764 0.91798 0.0
H1642 H 0.60767 0.75809 0.9661 0.0
H1643 H 0.58789 0.78485 0.97857 0.0
H1644 H 0.58557 0.84612 0.90485 0.0
H1645 H 0.57504 0.81574 0.92638 0.0
H1646 H 0.69503 0.79897 0.82055 0.0
H1647 H 0.68369 0.76812 0.83695 0.0
H1648 H 0.69923 0.83413 0.86882 0.0
H1649 H 0.67941 0.86095 0.88059 0.0
C1650 C 0.4548 0.37707 0.19721 0.0
C1651 C 0.44023 0.38845 0.15078 0.0
C1652 C 0.47958 0.40779 0.11143 0.0
C1653 C 0.49353 0.39907 0.16157 0.0
N1654 N 0.49341 0.37887 0.25746 0.0
N1655 N 0.43788 0.41956 0.07257 0.0
C1656 C 0.48074 0.38501 0.20647 0.0
C1657 C 0.45242 0.40544 0.11084 0.0
N1658 N 0.44476 0.3573 0.22939 0.0
N1659 N 0.49225 0.41708 0.06294 0.0
H1660 H 0.41783 0.41866 0.07237 0.0
H1661 H 0.44554 0.43398 0.04591 0.0
H1662 H 0.51223 0.41798 0.06013 0.0
H1663 H 0.48301 0.42147 1.02328 0.0
H1664 H 0.45544 0.34675 0.25984 0.0
H1665 H 0.42672 0.34947 0.22114 0.0
H1666 H 0.48424 0.3709 0.29417 0.0
H1667 H 0.51262 0.3837 0.26472 0.0
C1668 C 0.87617 0.2003 0.34377 0.0
C1669 C 0.87775 0.18558 0.39616 0.0
C1670 C 0.87608 0.22537 0.45576 0.0
C1671 C 0.87221 0.24008 0.40351 0.0
N1672 N 0.86324 0.2402 0.29793 0.0
N1673 N 0.87361 0.18339 0.50211 0.0
C1674 C 0.87078 0.22717 0.34746 0.0
C1675 C 0.87607 0.19795 0.45224 0.0
N1676 N 0.88068 0.18865 0.29032 0.0
N1677 N 0.88087 0.23752 0.50844 0.0
H1678 H 0.87277 0.16337 0.50048 0.0
H1679 H 0.86976 0.19112 0.54392 0.0
H1680 H 0.88187 0.25749 0.51257 0.0
H1681 H 0.88633 0.22781 0.5467 0.0
H1682 H 0.88273 0.19875 0.25081 0.0
H1683 H 0.88461 0.16903 0.28636 0.0
H1684 H 0.859 0.23112 0.25786 0.0
H1685 H 0.85879 0.25972 0.29776 0.0
C1686 C 0.04758 0.62838 0.70743 0.0
C1687 C 0.03215 0.62507 0.65594 0.0
C1688 C 0.07108 0.62973 0.59383 0.0
C1689 C 0.08651 0.63061 0.64525 0.0
N1690 N 0.0902 0.62575 0.75074 0.0
N1691 N 0.03058 0.61765 0.54954 0.0
C1692 C 0.07493 0.62848 0.70204 0.0
C1693 C 0.04427 0.62442 0.59889 0.0
N1694 N 0.03613 0.63254 0.76125 0.0
N1695 N 0.082 0.63486 0.54003 0.0
H1696 H 1.01104 0.61345 0.55001 0.0
H1697 H 0.03913 0.61384 0.5086 0.0
H1698 H 0.10157 0.63871 0.53506 0.0
H1699 H 0.07139 0.6375 0.50142 0.0
H1700 H 0.04631 0.63758 0.79927 0.0
H1701 H 0.01623 0.63344 0.76677 0.0
H1702 H 0.0831 0.6215 0.7928 0.0
H1703 H 0.11019 0.62524 0.74777 0.0
C1704 C 0.6219 0.2312 0.6412 0.0
C1705 C 0.64598 0.24173 0.65791 0.0
C1706 C 0.6622 0.19817 0.67635 0.0
C1707 C 0.63735 0.18787 0.66665 0.0
N1708 N 0.59196 0.19607 0.65507 0.0
N1709 N 0.6857 0.23529 0.71079 0.0
C1710 C 0.61669 0.2048 0.65306 0.0
C1711 C 0.66527 0.22523 0.6809 0.0
N1712 N 0.60406 0.24627 0.61373 0.0
N1713 N 0.68305 0.18228 0.67936 0.0
H1714 H 0.68698 0.25486 0.72056 0.0
H1715 H 0.69925 0.22392 0.7324 0.0
H1716 H 0.68176 0.16247 0.67262 0.0
H1717 H 0.70184 0.1892 0.68175 0.0
H1718 H 0.58714 0.23895 0.59568 0.0
H1719 H 0.60729 0.26564 0.60429 0.0
H1720 H 0.57604 0.20808 0.65037 0.0
H1721 H 0.58731 0.17751 0.66855 0.0
C1722 C 0.07582 0.41082 0.94211 0.0
C1723 C 0.08582 0.38737 0.91943 0.0
C1724 C 0.04199 0.37529 0.88874 0.0
C1725 C 0.03203 0.39745 0.91769 0.0
N1726 N 0.03962 0.42945 0.9933 0.0
N1727 N 0.07643 0.3439 0.88774 0.0
C1728 C 0.04896 0.41332 0.9506 0.0
C1729 C 0.06837 0.36858 0.897 0.0
N1730 N 0.09169 0.43108 0.95378 0.0
N1731 N 0.02642 0.36062 0.85366 0.0
H1732 H 0.09471 0.33762 0.89965 0.0
H1733 H 0.064 0.32906 0.87572 0.0
H1734 H 1.00699 0.36483 0.84739 0.0
H1735 H 0.03336 0.34561 0.82727 0.0
H1736 H 0.0847 0.44904 0.96698 0.0
H1737 H 0.11122 0.43083 0.94324 0.0
H1738 H 0.05153 0.44025 1.021 0.0
H1739 H 0.02034 0.42909 1.00606 0.0
C1740 C 0.87296 0.82575 0.11279 0.0
C1741 C 0.87748 0.83822 0.16777 0.0
C1742 C 0.87387 0.79684 0.21904 0.0
C1743 C 0.87141 0.78385 0.16325 0.0
N1744 N 0.874 0.7859 0.05646 0.0
N1745 N 0.8864 0.83578 0.27168 0.0
C1746 C 0.87237 0.79834 0.1099 0.0
C1747 C 0.87913 0.82375 0.22042 0.0
N1748 N 0.86874 0.84026 0.06347 0.0
N1749 N 0.87002 0.78388 0.27092 0.0
H1750 H 0.88985 0.85553 0.27396 0.0
H1751 H 0.891 0.82601 0.31044 0.0
H1752 H 0.86581 0.76435 0.27302 0.0
H1753 H 0.86857 0.79294 0.31206 0.0
H1754 H 0.86265 0.83262 1.02311 0.0
H1755 H 0.8692 0.8603 0.06451 0.0
H1756 H 0.87726 0.79533 1.0165 0.0
H1757 H 0.87467 0.76592 0.05254 0.0
C1758 C 0.47413 0.62226 0.35956 0.0
C1759 C 0.48806 0.62164 0.41381 0.0
C1760 C 0.44764 0.63058 0.46811 0.0
C1761 C 0.43368 0.62837 0.41472 0.0
N1762 N 0.43274 0.6185 0.31068 0.0
N1763 N 0.48685 0.62172 0.52154 0.0
C1764 C 0.44672 0.62313 0.36074 0.0
C1765 C 0.4745 0.62498 0.46866 0.0
N1766 N 0.48711 0.62338 0.30685 0.0
N1767 N 0.4352 0.63878 0.51818 0.0
H1768 H 0.50631 0.61742 0.52518 0.0
H1769 H 0.47732 0.62087 0.56214 0.0
H1770 H 0.41549 0.6426 0.51907 0.0
H1771 H 0.44463 0.64384 0.55721 0.0
H1772 H 0.47811 0.62637 0.26626 0.0
H1773 H 0.50712 0.62399 0.30411 0.0
H1774 H 0.44077 0.61185 0.27111 0.0
H1775 H 0.41271 0.61919 0.31042 0.0
C1776 C 0.36071 0.19289 0.17589 0.0
C1777 C 0.38587 0.18256 0.17052 0.0
C1778 C 0.40173 0.22564 0.14491 0.0
C1779 C 0.37723 0.23633 0.15829 0.0
N1780 N 0.33629 0.23003 0.20707 0.0
N1781 N 0.43146 0.191 0.16563 0.0
C1782 C 0.35749 0.21994 0.17979 0.0
C1783 C 0.40677 0.19949 0.15947 0.0
N1784 N 0.33973 0.17718 0.17443 0.0
N1785 N 0.41998 0.24011 0.11708 0.0
H1786 H 0.43587 0.17259 0.18074 0.0
H1787 H 0.44734 0.20314 0.16266 0.0
H1788 H 0.4167 0.25904 0.10397 0.0
H1789 H 0.43731 0.23243 0.1018 0.0
H1790 H 0.32097 0.18431 0.17385 0.0
H1791 H 0.34106 0.15748 0.16624 0.0
H1792 H 0.32228 0.21862 0.22707 0.0
H1793 H 0.33452 0.24962 0.21638 0.0
C1794 C 0.5768 0.6276 0.86136 0.0
C1795 C 0.58884 0.6275 0.91768 0.0
C1796 C 0.54709 0.61884 0.96431 0.0
C1797 C 0.53447 0.62246 0.90866 0.0
N1798 N 0.53774 0.63547 0.80619 0.0
N1799 N 0.58512 0.62697 1.0237 0.0
C1800 C 0.54947 0.6282 0.85761 0.0
C1801 C 0.57387 0.62416 0.96942 0.0
N1802 N 0.59156 0.62627 0.81134 0.0
N1803 N 0.53389 0.60939 1.01196 0.0
H1804 H 0.60467 0.63089 1.02873 0.0
H1805 H 0.57473 0.62766 0.06324 0.0
H1806 H 0.51444 0.6048 1.01099 0.0
H1807 H 0.54284 0.60367 0.05102 0.0
H1808 H 0.58393 0.62386 0.769 0.0
H1809 H 0.61152 0.62467 0.81309 0.0
H1810 H 0.54784 0.6422 0.76945 0.0
H1811 H 0.51785 0.63735 0.80227 0.0
C1812 C 0.12501 0.82151 0.62144 0.0
C1813 C 0.1403 0.83683 0.66002 0.0
C1814 C 0.16357 0.79821 0.69151 0.0
C1815 C 0.14983 0.7832 0.64915 0.0
N1816 N 0.12031 0.78138 0.56703 0.0
N1817 N 0.17732 0.84081 0.72249 0.0
C1818 C 0.13163 0.7952 0.61154 0.0
C1819 C 0.16064 0.82543 0.69201 0.0
N1820 N 0.10307 0.83155 0.59769 0.0
N1821 N 0.17852 0.78645 0.73315 0.0
H1822 H 0.17551 0.86081 0.72326 0.0
H1823 H 0.19413 0.83401 0.74202 0.0
H1824 H 0.18082 0.76658 0.73539 0.0
H1825 H 0.18688 0.7962 0.76863 0.0
H1826 H 0.08973 0.82065 0.57414 0.0
H1827 H 0.09681 0.8502 0.60659 0.0
H1828 H 0.10897 0.78974 0.53434 0.0
H1829 H 0.12391 0.76186 0.56 0.0
C1830 C 0.94498 0.39977 0.3584 0.0
C1831 C 0.9333 0.39796 0.41515 0.0
C1832 C 0.97501 0.40708 0.46155 0.0
C1833 C 0.98725 0.40545 0.40507 0.0
N1834 N 0.98416 0.39704 0.30006 0.0
N1835 N 0.93733 0.39702 0.52104 0.0
C1836 C 0.97228 0.40097 0.35348 0.0
C1837 C 0.94838 0.4009 0.46686 0.0
N1838 N 0.9298 0.40132 0.3093 0.0
N1839 N 0.98856 0.41549 0.50974 0.0
H1840 H 0.91786 0.39265 0.526 0.0
H1841 H 0.94776 0.39613 0.56035 0.0
H1842 H 1.00787 0.42078 0.5075 0.0
H1843 H 0.9801 0.41953 0.55066 0.0
H1844 H 0.93685 0.40515 0.26699 0.0
H1845 H 0.90982 0.40146 0.31213 0.0
H1846 H 0.97444 0.39107 0.26209 0.0
H1847 H 1.00408 0.39764 0.29476 0.0
C1848 C 0.37766 0.79609 0.34111 0.0
C1849 C 0.37443 0.78264 0.39589 0.0
C1850 C 0.37671 0.82406 0.44906 0.0
C1851 C 0.38225 0.83689 0.3952 0.0
N1852 N 0.39355 0.83439 0.29214 0.0
N1853 N 0.37727 0.78384 0.50278 0.0
C1854 C 0.3843 0.82266 0.34187 0.0
C1855 C 0.37571 0.79666 0.45015 0.0
N1856 N 0.37331 0.78403 0.28807 0.0
N1857 N 0.37167 0.83813 0.49899 0.0
H1858 H 0.37794 0.76383 0.50543 0.0
H1859 H 0.38068 0.79301 0.54317 0.0
H1860 H 0.37194 0.85816 0.49925 0.0
H1861 H 0.36489 0.83008 0.53825 0.0
H1862 H 0.37236 0.7938 0.24793 0.0
H1863 H 0.36811 0.76481 0.28399 0.0
H1864 H 0.39831 0.82443 0.25343 0.0
H1865 H 0.39886 0.85373 0.2915 0.0
C1866 C 0.97183 0.60755 0.20263 0.0
C1867 C 0.98985 0.62492 0.17741 0.0
C1868 C 0.95366 0.65058 0.14004 0.0
C1869 C 0.93641 0.63036 0.15364 0.0
N1870 N 0.92931 0.58891 0.19833 0.0
N1871 N 0.99405 0.67067 0.16516 0.0
C1872 C 0.9456 0.60852 0.18462 0.0
C1873 C 0.97978 0.64887 0.15809 0.0
N1874 N 0.97831 0.59417 0.25223 0.0
N1875 N 0.94519 0.67123 0.10846 0.0
H1876 H 0.01181 0.67035 0.18668 0.0
H1877 H 0.98691 0.68907 0.15718 0.0
H1878 H 0.92629 0.67277 0.09346 0.0
H1879 H 0.95751 0.68545 0.09262 0.0
H1880 H 0.96534 0.58277 0.27563 0.0
H1881 H 0.99516 0.5983 0.27548 0.0
H1882 H 0.93576 0.57152 0.21581 0.0
H1883 H 0.90979 0.58929 0.18825 0.0
C1884 C 0.14794 0.22606 0.84486 0.0
C1885 C 0.15143 0.23918 0.90006 0.0
C1886 C 0.15099 0.19761 0.95169 0.0
C1887 C 0.1458 0.18492 0.89731 0.0
N1888 N 0.13507 0.18676 0.79422 0.0
N1889 N 0.15129 0.23777 1.00697 0.0
C1890 C 0.14303 0.19912 0.84452 0.0
C1891 C 0.1516 0.225 0.95382 0.0
N1892 N 0.15051 0.23899 0.79252 0.0
N1893 N 0.15587 0.1833 1.00104 0.0
H1894 H 0.15098 0.25779 1.01021 0.0
H1895 H 0.14894 0.22866 0.04763 0.0
H1896 H 0.1553 0.16325 1.00061 0.0
H1897 H 0.16245 0.19108 0.04083 0.0
H1898 H 0.15122 0.22989 0.75132 0.0
H1899 H 0.15422 0.25862 0.78989 0.0
H1900 H 0.12972 0.19628 0.75564 0.0
H1901 H 0.13186 0.16696 0.79271 0.0
C1902 C 0.57618 0.39938 0.69524 0.0
C1903 C 0.58906 0.39605 0.64029 0.0
C1904 C 0.54798 0.40053 0.58803 0.0
C1905 C 0.53455 0.40144 0.64357 0.0
N1906 N 0.53613 0.39603 0.74981 0.0
N1907 N 0.5872 0.38902 0.53535 0.0
C1908 C 0.54877 0.39936 0.69719 0.0
C1909 C 0.57491 0.3954 0.58699 0.0
N1910 N 0.59028 0.40312 0.74551 0.0
N1911 N 0.53543 0.40562 0.53618 0.0
H1912 H 0.60694 0.38548 0.5333 0.0
H1913 H 0.5776 0.38512 0.49585 0.0
H1914 H 0.51587 0.40949 0.53343 0.0
H1915 H 0.54491 0.40837 0.49596 0.0
H1916 H 0.58219 0.40826 0.7862 0.0
H1917 H 0.61032 0.40345 0.74506 0.0
H1918 H 0.54548 0.39193 0.78946 0.0
H1919 H 0.51617 0.39468 0.75289 0.0
C1920 C 0.25458 0.24255 0.22093 0.0
C1921 C 0.24018 0.23951 0.27359 0.0
C1922 C 0.25925 0.27868 0.31499 0.0
C1923 C 0.27537 0.28054 0.26473 0.0
N1924 N 0.28947 0.26373 0.17029 0.0
N1925 N 0.23048 0.25281 0.37381 0.0
C1926 C 0.27313 0.26249 0.21739 0.0
C1927 C 0.24311 0.25695 0.32169 0.0
N1928 N 0.25043 0.2261 0.17443 0.0
N1929 N 0.25866 0.29852 0.35497 0.0
H1930 H 0.21664 0.23862 0.37883 0.0
H1931 H 0.23433 0.26288 0.41282 0.0
H1932 H 0.2697 0.31511 0.3496 0.0
H1933 H 0.24553 0.29981 0.3898 0.0
H1934 H 0.25762 0.22887 0.13186 0.0
H1935 H 0.23874 0.20987 0.17795 0.0
H1936 H 0.29097 0.24979 0.13722 0.0
H1937 H 0.30297 0.27812 0.16641 0.0
C1938 C 0.01673 0.99878 0.58268 0.0
C1939 C 0.03325 0.9969 0.53253 0.0
C1940 C 1.00864 0.03052 0.48239 0.0
C1941 C 0.99123 0.03114 0.5311 0.0
N1942 N 0.97566 0.01311 0.62192 0.0
N1943 N 0.04507 1.00978 0.43421 0.0
C1944 C 0.9946 0.01463 0.57991 0.0
C1945 C 0.02915 0.01247 0.48219 0.0
N1946 N 0.022 0.98527 0.63284 0.0
N1947 N 1.00613 0.04787 0.43758 0.0
H1948 H 0.06163 0.99842 0.43517 0.0
H1949 H 0.04161 0.01793 0.39296 0.0
H1950 H 0.99153 0.06145 0.43664 0.0
H1951 H 0.01943 0.05029 0.40353 0.0
H1952 H 0.01287 0.98849 0.67334 0.0
H1953 H 0.03614 0.97123 0.6347 0.0
H1954 H 0.97539 0.9995 0.65563 0.0
H1955 H 0.95879 0.02396 0.61972 0.0
C1956 C 0.28507 0.7596 0.80408 0.0
C1957 C 0.28057 0.78126 0.7677 0.0
C1958 C 0.24289 0.76031 0.72569 0.0
C1959 C 0.24532 0.7405 0.76841 0.0
N1960 N 0.26758 0.72142 0.85027 0.0
N1961 N 0.25422 0.80386 0.69799 0.0
C1962 C 0.26612 0.74022 0.80832 0.0
C1963 C 0.25927 0.782 0.72924 0.0
N1964 N 0.30809 0.75706 0.832 0.0
N1965 N 0.22523 0.75821 0.6814 0.0
H1966 H 0.26603 0.82006 0.70018 0.0
H1967 H 0.23739 0.80668 0.67394 0.0
H1968 H 0.21244 0.74293 0.67862 0.0
H1969 H 0.2244 0.77066 0.64542 0.0
H1970 H 0.31364 0.7406 0.85478 0.0
H1971 H 0.3226 0.77061 0.82687 0.0
H1972 H 0.28076 0.72172 0.88498 0.0
H1973 H 0.25455 0.70619 0.85208 0.0
C1974 C 0.53704 0.02547 0.04323 0.0
C1975 C 0.53544 0.99854 0.03625 0.0
C1976 C 0.49011 1.00178 1.00825 0.0
C1977 C 0.49123 0.0284 1.01929 0.0
N1978 N 0.51428 0.06612 0.05137 0.0
N1979 N 0.51053 0.96028 1.01776 0.0
C1980 C 0.51436 0.04048 0.03776 0.0
C1981 C 0.51197 0.98646 1.02021 0.0
N1982 N 0.5604 0.03645 0.05445 0.0
N1983 N 0.46818 0.99144 0.98489 0.0
H1984 H 0.52639 0.94832 1.02334 0.0
H1985 H 0.49332 0.95034 1.01328 0.0
H1986 H 0.45178 1.00247 0.97673 0.0
H1987 H 0.46671 0.97259 0.9695 0.0
H1988 H 0.56367 0.05619 0.05508 0.0
H1989 H 0.57706 0.02551 0.06013 0.0
H1990 H 0.52978 0.07577 0.07018 0.0
H1991 H 0.49802 0.07766 0.04686 0.0
C1992 C 0.29062 0.76608 0.29346 0.0
C1993 C 0.28069 0.74247 0.27186 0.0
C1994 C 0.2375 0.76064 0.26977 0.0
C1995 C 0.24778 0.78478 0.28765 0.0
N1996 N 0.28386 0.8118 0.30956 0.0
N1997 N 0.24601 0.71749 0.23251 0.0
C1998 C 0.27434 0.78788 0.29734 0.0
C1999 C 0.25444 0.73981 0.25805 0.0
N2000 N 0.31541 0.76723 0.31241 0.0
N2001 N 0.21154 0.75753 0.26529 0.0
H2002 H 0.25823 0.70188 0.22461 0.0
H2003 H 0.22761 0.71502 0.21537 0.0
H2004 H 0.19856 0.7726 0.27089 0.0
H2005 H 0.20275 0.73977 0.25908 0.0
H2006 H 0.32296 0.78288 0.33541 0.0
H2007 H 0.32778 0.75154 0.30918 0.0
H2008 H 0.30342 0.81602 0.31105 0.0
H2009 H 0.27201 0.8279 0.31443 0.0
C2010 C 0.48822 0.02041 0.55585 0.0
C2011 C 0.49128 0.99419 0.54133 0.0
C2012 C 0.53666 1.00101 0.5168 0.0
C2013 C 0.5332 0.02751 0.52744 0.0
N2014 N 0.50622 0.06337 0.5544 0.0
N2015 N 0.51684 0.95942 0.50278 0.0
C2016 C 0.50908 0.03751 0.5463 0.0
C2017 C 0.51514 0.98443 0.52061 0.0
N2018 N 0.46546 0.02859 0.57984 0.0
N2019 N 0.5607 0.99185 0.504 0.0
H2020 H 0.50149 0.94671 0.50662 0.0
H2021 H 0.53268 0.95183 0.48058 0.0
H2022 H 0.57657 1.00393 0.49909 0.0
H2023 H 0.56533 0.97238 0.50185 0.0
H2024 H 0.4623 0.04699 0.59667 0.0
H2025 H 0.4499 0.01622 0.58609 0.0
H2026 H 0.48868 0.07233 0.56266 0.0
H2027 H 0.52148 0.0762 0.55057 0.0
C2028 C 0.28544 0.26133 0.74712 0.0
C2029 C 0.27774 0.24069 0.78413 0.0
C2030 C 0.23578 0.26055 0.79742 0.0
C2031 C 0.24484 0.28283 0.76801 0.0
N2032 N 0.27855 0.30572 0.71851 0.0
N2033 N 0.24671 0.22095 0.84802 0.0
C2034 C 0.26979 0.28357 0.74373 0.0
C2035 C 0.25316 0.24036 0.81026 0.0
N2036 N 0.30724 0.2592 0.71374 0.0
N2037 N 0.21035 0.25832 0.81075 0.0
H2038 H 0.2591 0.2056 0.85664 0.0
H2039 H 0.22999 0.22097 0.87357 0.0
H2040 H 0.19711 0.27276 0.80124 0.0
H2041 H 0.20217 0.24141 0.82648 0.0
H2042 H 0.3124 0.27239 0.68121 0.0
H2043 H 0.31917 0.24315 0.71546 0.0
H2044 H 0.29759 0.30841 0.70546 0.0
H2045 H 0.26702 0.32208 0.71457 0.0
C2046 C 0.03209 1.0093 0.07357 0.0
C2047 C 0.03501 0.02541 1.02369 0.0
C2048 C 0.99513 1.00863 0.98132 0.0
C2049 C 0.99275 0.9917 1.0297 0.0
N2050 N 1.01072 0.97288 0.11773 0.0
N2051 N 0.02275 0.03593 0.92335 0.0
C2052 C 0.01167 0.99127 0.07499 0.0
C2053 C 0.01767 0.02362 0.97529 0.0
N2054 N 0.04911 1.01131 0.11943 0.0
N2055 N 0.97513 1.01119 0.94259 0.0
H2056 H 0.03857 0.04768 0.91738 0.0
H2057 H 0.01228 0.03293 0.88462 0.0
H2058 H 0.95795 1.00104 0.94733 0.0
H2059 H 0.97447 0.02514 0.90963 0.0
H2060 H 0.04642 1.00277 0.16062 0.0
H2061 H 0.06578 0.02241 0.11675 0.0
H2062 H 0.02512 0.96973 0.14881 0.0
H2063 H 0.99635 0.95914 0.11882 0.0
C2064 C 0.75387 0.75024 0.7325 0.0
C2065 C 0.74039 0.74443 0.78502 0.0
C2066 C 0.75935 0.78224 0.83333 0.0
C2067 C 0.77096 0.78906 0.77884 0.0
N2068 N 0.77149 0.78382 0.67223 0.0
N2069 N 0.72773 0.75657 0.88469 0.0
C2070 C 0.76593 0.77439 0.727 0.0
C2071 C 0.74249 0.76079 0.83561 0.0
N2072 N 0.75549 0.73231 0.68819 0.0
N2073 N 0.76474 0.79643 0.8829 0.0
H2074 H 0.71436 0.74184 0.88735 0.0
H2075 H 0.72673 0.76908 0.92079 0.0
H2076 H 0.7751 0.8136 0.88094 0.0
H2077 H 0.7599 0.79082 0.92575 0.0
H2078 H 0.76717 0.73456 0.65094 0.0
H2079 H 0.74746 0.714 0.69211 0.0
H2080 H 0.76683 0.77425 0.633 0.0
H2081 H 0.77658 0.80282 0.66555 0.0
C2082 C 0.74956 0.25665 0.2159 0.0
C2083 C 0.74901 0.23801 0.26166 0.0
C2084 C 0.7857 0.25885 0.3088 0.0
C2085 C 0.78336 0.27958 0.26863 0.0
N2086 N 0.7614 0.30001 0.18812 0.0
N2087 N 0.76633 0.22087 0.35182 0.0
C2088 C 0.76487 0.27891 0.2231 0.0
C2089 C 0.76709 0.23901 0.30824 0.0
N2090 N 0.73596 0.25291 0.16512 0.0
N2091 N 0.80648 0.25758 0.34521 0.0
H2092 H 0.75419 0.20492 0.34973 0.0
H2093 H 0.77691 0.22216 0.39087 0.0
H2094 H 0.82083 0.27142 0.34388 0.0
H2095 H 0.81076 0.24186 0.37187 0.0
H2096 H 0.73758 0.26465 0.128 0.0
H2097 H 0.72489 0.23669 0.15809 0.0
H2098 H 0.74641 0.30173 0.15783 0.0
H2099 H 0.77217 0.31679 0.19334 0.0
C2100 C 0.74499 0.265 0.73721 0.0
C2101 C 0.74193 0.2821 0.78605 0.0
C2102 C 0.77549 0.25931 0.84041 0.0
C2103 C 0.77767 0.2415 0.79261 0.0
N2104 N 0.76116 0.2239 0.70204 0.0
N2105 N 0.75311 0.29574 0.88445 0.0
C2106 C 0.76149 0.24347 0.74274 0.0
C2107 C 0.75679 0.27915 0.83793 0.0
N2108 N 0.73222 0.26932 0.68546 0.0
N2109 N 0.79209 0.25792 0.88682 0.0
H2110 H 0.74167 0.31218 0.8813 0.0
H2111 H 0.76064 0.29305 0.92665 0.0
H2112 H 0.80584 0.24366 0.88953 0.0
H2113 H 0.79356 0.27158 0.92048 0.0
H2114 H 0.73629 0.25965 0.64598 0.0
H2115 H 0.71809 0.28329 0.68111 0.0
H2116 H 0.74793 0.22265 0.66758 0.0
H2117 H 0.77258 0.20749 0.70633 0.0
C2118 C 0.73374 0.75724 0.29291 0.0
C2119 C 0.74259 0.78063 0.2682 0.0
C2120 C 0.78578 0.76303 0.25803 0.0
C2121 C 0.77678 0.73942 0.2815 0.0
N2122 N 0.74248 0.7123 0.31452 0.0
N2123 N 0.77527 0.80564 0.22089 0.0
C2124 C 0.75075 0.73601 0.29692 0.0
C2125 C 0.76817 0.78345 0.24877 0.0
N2126 N 0.7092 0.75577 0.31389 0.0
N2127 N 0.81129 0.76587 0.24581 0.0
H2128 H 0.76254 0.82095 0.21489 0.0
H2129 H 0.79303 0.80849 0.20065 0.0
H2130 H 0.82442 0.75094 0.25094 0.0
H2131 H 0.81967 0.78313 0.23314 0.0
H2132 H 0.70215 0.74033 0.33811 0.0
H2133 H 0.69626 0.77093 0.30975 0.0
H2134 H 0.72326 0.70755 0.32123 0.0
H2135 H 0.75498 0.69671 0.31917 0.0
C2136 C 0.53863 0.52115 1.00159 0.0
C2137 C 0.53712 0.49896 0.03699 0.0
C2138 C 0.49523 0.51271 0.07576 0.0
C2139 C 0.49577 0.53373 0.03661 0.0
N2140 N 0.51604 0.55677 0.95708 0.0
N2141 N 0.5126 0.47101 0.09981 0.0
C2142 C 0.51698 0.53763 0.99797 0.0
C2143 C 0.5151 0.49412 0.07241 0.0
N2144 N 0.56104 0.52656 0.97253 0.0
N2145 N 0.47555 0.51056 0.11567 0.0
H2146 H 0.52638 0.45669 0.09494 0.0
H2147 H 0.4961 0.46519 0.12225 0.0
H2148 H 0.46006 0.52335 0.11674 0.0
H2149 H 0.47533 0.49719 0.14988 0.0
H2150 H 0.56444 0.54374 0.95032 0.0
H2151 H 0.5771 0.51452 0.97475 0.0
H2152 H 0.52954 0.55914 0.92338 0.0
H2153 H 0.50066 0.56947 0.95509 0.0
C2154 C 0.03433 0.5225 0.55645 0.0
C2155 C 0.03598 0.50519 0.50826 0.0
C2156 C 0.99443 0.51992 0.47143 0.0
C2157 C 0.9932 0.53797 0.5181 0.0
N2158 N 0.01496 0.56123 0.59532 0.0
N2159 N 0.02233 0.49463 0.4092 0.0
C2160 C 0.01404 0.54064 0.55807 0.0
C2161 C 0.01744 0.50602 0.46237 0.0
N2162 N 0.05213 0.52131 0.60075 0.0
N2163 N 0.97339 0.51572 0.43663 0.0
H2164 H 0.04047 0.48778 0.39897 0.0
H2165 H 1.01011 0.49594 0.37279 0.0
H2166 H 0.95603 0.52543 0.44321 0.0
H2167 H 0.97244 0.50093 0.40533 0.0
H2168 H 0.05037 0.53138 0.64061 0.0
H2169 H 0.06815 0.50922 0.59827 0.0
H2170 H 0.03069 0.56558 0.62206 0.0
H2171 H 1.00093 0.5754 0.59407 0.0
C2172 C 0.98112 0.53138 0.04829 0.0
C2173 C 0.98324 0.50635 1.02394 0.0
C2174 C 0.0267 0.5156 0.98778 0.0
C2175 C 0.02454 0.54051 1.01164 0.0
N2176 N 0.99995 0.57404 0.05855 0.0
N2177 N 1.0065 0.47509 0.96645 0.0
C2178 C 1.00171 0.54904 0.04009 0.0
C2179 C 1.00555 0.49873 0.99213 0.0
N2180 N 0.95958 0.53783 0.07982 0.0
N2181 N 0.04964 0.50775 0.96393 0.0
H2182 H 0.99344 0.46079 0.97728 0.0
H2183 H 0.01983 0.47 0.93397 0.0
H2184 H 0.06527 0.52012 0.95886 0.0
H2185 H 0.0538 0.48883 0.95202 0.0
H2186 H 0.95725 0.55504 0.10294 0.0
H2187 H 0.9441 0.52523 0.08452 0.0
H2188 H 0.98343 0.58231 0.07648 0.0
H2189 H 0.01497 0.58708 0.05289 0.0
C2190 C 0.51465 0.48579 0.54918 0.0
C2191 C 0.49145 0.49424 0.52279 0.0
C2192 C 0.5087 0.53757 0.51338 0.0
C2193 C 0.53222 0.52883 0.53789 0.0
N2194 N 0.55934 0.49484 0.57246 0.0
N2195 N 0.4665 0.5266 0.47429 0.0
C2196 C 0.53568 0.50294 0.55398 0.0
C2197 C 0.48851 0.51976 0.50323 0.0
N2198 N 0.51618 0.46145 0.57078 0.0
N2199 N 0.50578 0.563 0.50078 0.0
H2200 H 0.45135 0.51375 0.46776 0.0
H2201 H 0.46362 0.54428 0.45393 0.0
H2202 H 0.52058 0.57622 0.50675 0.0
H2203 H 0.48859 0.57121 0.48705 0.0
H2204 H 0.5313 0.45486 0.5967 0.0
H2205 H 0.50131 0.4483 0.56541 0.0
H2206 H 0.56419 0.47564 0.57922 0.0
H2207 H 0.57481 0.50742 0.57769 0.0
C2208 C 0.24808 0.14059 0.53504 0.0
C2209 C 0.23866 0.15979 0.49485 0.0
C2210 C 0.27727 0.18515 0.52256 0.0
C2211 C 0.28224 0.16949 0.57292 0.0
N2212 N 0.26932 0.13218 0.62885 0.0
N2213 N 0.24513 0.20342 0.45939 0.0
C2214 C 0.2669 0.14704 0.57951 0.0
C2215 C 0.25363 0.1828 0.49063 0.0
N2216 N 0.24013 0.1157 0.52917 0.0
N2217 N 0.29547 0.2022 0.50386 0.0
H2218 H 0.22807 0.20359 0.43639 0.0
H2219 H 0.254 0.22137 0.46149 0.0
H2220 H 0.31353 0.20341 0.52339 0.0
H2221 H 0.29386 0.21246 0.46441 0.0
H2222 H 0.24773 0.10075 0.55435 0.0
H2223 H 0.22887 0.10948 0.4937 0.0
H2224 H 0.25667 0.11722 0.63848 0.0
H2225 H 0.28252 0.13605 0.66235 0.0
C2226 C 0.13615 0.02194 0.81551 0.0
C2227 C 0.11529 0.03942 0.80949 0.0
C2228 C 0.0951 1.00834 0.73966 0.0
C2229 C 0.11699 0.99171 0.74139 0.0
N2230 N 0.16189 0.98871 0.76808 0.0
N2231 N 0.07841 0.05158 0.75039 0.0
C2232 C 0.13849 1.00022 0.77595 0.0
C2233 C 0.09598 0.03339 0.76669 0.0
N2234 N 0.15425 0.02622 0.85819 0.0
N2235 N 0.07267 1.00005 0.71532 0.0
H2236 H 0.07794 0.07012 0.76779 0.0
H2237 H 0.06591 0.04906 0.71476 0.0
H2238 H 0.07074 0.9822 0.69569 0.0
H2239 H 0.05535 1.01 0.71984 0.0
H2240 H 0.1683 0.01274 0.86901 0.0
H2241 H 0.154 0.04237 0.88584 0.0
H2242 H 0.17869 0.99539 0.78794 0.0
H2243 H 0.16523 0.97474 0.73562 0.0
C2244 C 0.23766 0.86242 1.00466 0.0
C2245 C 0.23818 0.86093 0.06786 0.0
C2246 C 0.28509 0.86888 0.0605 0.0
C2247 C 0.28539 0.86266 0.99851 0.0
N2248 N 0.25912 0.85523 0.91092 0.0
N2249 N 0.26436 0.8641 0.15617 0.0
C2250 C 0.26089 0.86014 0.97025 0.0
C2251 C 0.26242 0.86474 0.09592 0.0
N2252 N 0.21481 0.86745 0.97717 0.0
N2253 N 0.30605 0.88053 0.0852 0.0
H2254 H 0.24858 0.86388 0.18442 0.0
H2255 H 0.28198 0.86295 0.17797 0.0
H2256 H 0.32167 0.88667 0.05986 0.0
H2257 H 0.30631 0.88743 0.12867 0.0
H2258 H 0.21331 0.87123 0.93197 0.0
H2259 H 0.19793 0.87119 1.00086 0.0
H2260 H 0.24218 0.84886 0.89109 0.0
H2261 H 0.27421 0.85707 0.88119 0.0
C2262 C 0.40557 0.98388 0.25521 0.0
C2263 C 0.40965 0.98479 0.31799 0.0
C2264 C 0.40534 0.03219 0.30888 0.0
C2265 C 0.40928 0.03128 0.24608 0.0
N2266 N 0.41351 1.00334 0.15984 0.0
N2267 N 0.41321 0.01296 0.40428 0.0
C2268 C 0.40942 1.00633 0.21923 0.0
C2269 C 0.40941 1.0098 0.34485 0.0
N2270 N 0.39617 0.96193 0.2298 0.0
N2271 N 0.39597 0.05419 0.33443 0.0
H2272 H 0.4136 0.99815 0.43476 0.0
H2273 H 0.41698 0.03091 0.4232 0.0
H2274 H 0.39003 0.06995 0.30952 0.0
H2275 H 0.39061 0.05535 0.37895 0.0
H2276 H 0.39091 0.96079 0.18527 0.0
H2277 H 0.38996 0.94629 0.25485 0.0
H2278 H 0.41714 0.98542 0.14053 0.0
H2279 H 0.41462 0.01842 0.13009 0.0
C2280 C 0.76136 0.86924 0.58767 0.0
C2281 C 0.78576 0.86523 0.55986 0.0
C2282 C 0.76319 0.8623 0.4626 0.0
C2283 C 0.73859 0.86461 0.49064 0.0
N2284 N 0.71707 0.88312 0.5757 0.0
N2285 N 0.80855 0.87258 0.46824 0.0
C2286 C 0.73852 0.87177 0.55208 0.0
C2287 C 0.78623 0.86609 0.49652 0.0
N2288 N 0.7595 0.87117 0.64781 0.0
N2289 N 0.76529 0.85633 0.40382 0.0
H2290 H 0.8249 0.8785 0.49125 0.0
H2291 H 0.80969 0.87579 0.42272 0.0
H2292 H 0.75015 0.85674 0.37414 0.0
H2293 H 0.78258 0.85036 0.38462 0.0
H2294 H 0.74208 0.86938 0.6704 0.0
H2295 H 0.77509 0.87483 0.67517 0.0
H2296 H 0.71636 0.89082 0.61842 0.0
H2297 H 0.70124 0.88819 0.54994 0.0
C2298 C 0.9302 0.01715 0.32077 0.0
C2299 C 0.90966 0.0351 0.31427 0.0
C2300 C 0.89103 1.00546 0.2381 0.0
C2301 C 0.91004 0.98641 0.25001 0.0
N2302 N 0.9445 0.97292 0.31511 0.0
N2303 N 0.86778 0.04339 0.2729 0.0
C2304 C 0.92846 0.99185 0.29534 0.0
C2305 C 0.88938 0.02841 0.27432 0.0
N2306 N 0.95248 0.02466 0.34739 0.0
N2307 N 0.87422 1.00162 0.19249 0.0
H2308 H 0.86534 0.05953 0.3 0.0
H2309 H 0.85124 0.03841 0.2496 0.0
H2310 H 0.87389 0.98476 0.16727 0.0
H2311 H 0.86188 0.01585 0.17693 0.0
H2312 H 0.96911 0.01344 0.34766 0.0
H2313 H 0.95535 0.04323 0.363 0.0
H2314 H 0.95607 0.97515 0.35247 0.0
H2315 H 0.94465 0.95429 0.29821 0.0
C2316 C 0.78446 0.15123 0.05974 0.0
C2317 C 0.78588 0.15636 0.99753 0.0
C2318 C 0.73842 0.15102 0.99663 0.0
C2319 C 0.73674 0.15436 0.05955 0.0
N2320 N 0.76076 0.15354 0.1519 0.0
N2321 N 0.76175 0.15835 0.9055 0.0
C2322 C 0.76048 0.15328 0.09143 0.0
C2323 C 0.7622 0.15541 0.96554 0.0
N2324 N 0.80576 0.14203 0.08807 0.0
N2325 N 0.71782 0.14124 0.9666 0.0
H2326 H 0.77789 0.15728 0.87854 0.0
H2327 H 0.74481 0.1621 0.88238 0.0
H2328 H 0.70157 0.13419 0.98833 0.0
H2329 H 0.71843 0.13635 0.92174 0.0
H2330 H 0.80559 0.13573 0.13187 0.0
H2331 H 0.82258 0.1371 0.06542 0.0
H2332 H 0.77732 0.15768 0.17611 0.0
H2333 H 0.74494 0.14932 0.17819 0.0
C2334 C 0.61259 1.0108 0.71672 0.0
C2335 C 0.61272 0.03543 0.74508 0.0
C2336 C 0.61356 0.01303 0.84277 0.0
C2337 C 0.61194 0.98842 0.81453 0.0
N2338 N 0.62221 0.96524 0.72466 0.0
N2339 N 0.62582 0.05787 0.83379 0.0
C2340 C 0.6151 0.98778 0.75148 0.0
C2341 C 0.61693 0.03583 0.80774 0.0
N2342 N 0.60979 1.0088 0.65677 0.0
N2343 N 0.61152 0.01524 0.90289 0.0
H2344 H 0.63079 0.07409 0.80931 0.0
H2345 H 0.63157 0.0589 0.87797 0.0
H2346 H 0.61259 0.99982 0.9317 0.0
H2347 H 0.60817 0.03278 0.92421 0.0
H2348 H 0.60507 0.99156 0.63562 0.0
H2349 H 0.61177 0.02414 0.62794 0.0
H2350 H 0.62718 0.96384 0.67996 0.0
H2351 H 0.62656 0.94871 0.74866 0.0
C2352 C 0.74632 0.6414 0.03577 0.0
C2353 C 0.73832 0.66256 0.99997 0.0
C2354 C 0.77991 0.68384 1.02364 0.0
C2355 C 0.78684 0.66387 0.0642 0.0
N2356 N 0.77462 0.62447 0.11242 0.0
N2357 N 0.74598 0.70666 0.97286 0.0
C2358 C 0.76929 0.64303 0.07156 0.0
C2359 C 0.75482 0.68439 0.99716 0.0
N2360 N 0.73253 0.61905 0.03344 0.0
N2361 N 0.79719 0.70268 1.00968 0.0
H2362 H 0.72786 0.70824 0.9543 0.0
H2363 H 0.7555 0.72422 0.9764 0.0
H2364 H 0.81488 0.70498 1.03026 0.0
H2365 H 0.79463 0.71519 0.97421 0.0
H2366 H 0.73846 0.60197 0.05309 0.0
H2367 H 0.7163 0.61682 1.00683 0.0
H2368 H 0.76139 0.61059 0.12555 0.0
H2369 H 0.79175 0.62387 0.13624 0.0
C2370 C 0.61926 0.48828 0.31687 0.0
C2371 C 0.61635 0.48806 0.25381 0.0
C2372 C 0.6203 0.53564 0.25961 0.0
C2373 C 0.61514 0.53586 0.32203 0.0
N2374 N 0.61071 0.50943 0.41035 0.0
N2375 N 0.61551 0.51424 0.16485 0.0
C2376 C 0.61501 0.51139 0.35084 0.0
C2377 C 0.61735 0.51248 0.22501 0.0
N2378 N 0.62797 0.46664 0.34457 0.0
N2379 N 0.63006 0.55721 0.23353 0.0
H2380 H 0.61672 0.49866 0.13614 0.0
H2381 H 0.61211 0.53165 0.14345 0.0
H2382 H 0.63557 0.57337 0.25799 0.0
H2383 H 0.63624 0.55767 0.18954 0.0
H2384 H 0.63265 0.46618 0.38948 0.0
H2385 H 0.6341 0.45039 0.32113 0.0
H2386 H 0.60643 0.49195 0.4306 0.0
H2387 H 0.61069 0.52482 0.43965 0.0
C2388 C 0.75638 0.34161 0.57196 0.0
C2389 C 0.738 0.36172 0.56469 0.0
C2390 C 0.76675 0.37995 0.48642 0.0
C2391 C 0.78612 0.36126 0.49835 0.0
N2392 N 0.80047 0.32709 0.56308 0.0
N2393 N 0.72867 0.40294 0.52122 0.0
C2394 C 0.7813 0.34313 0.54456 0.0
C2395 C 0.74404 0.38162 0.52331 0.0
N2396 N 0.74958 0.31985 0.60152 0.0
N2397 N 0.77006 0.39644 0.44006 0.0
H2398 H 0.7127 0.40541 0.54876 0.0
H2399 H 0.73315 0.41929 0.49686 0.0
H2400 H 0.78674 0.3968 0.41432 0.0
H2401 H 0.75558 0.40846 0.42441 0.0
H2402 H 0.76085 0.30326 0.60223 0.0
H2403 H 0.73146 0.31735 0.61971 0.0
H2404 H 0.79905 0.31605 0.6014 0.0
H2405 H 0.81856 0.32615 0.54343 0.0
C2406 C 0.90446 0.51291 0.84268 0.0
C2407 C 0.90856 0.48875 0.81351 0.0
C2408 C 0.91123 0.5125 0.71771 0.0
C2409 C 0.90776 0.53677 0.74694 0.0
N2410 N 0.88779 0.55626 0.83297 0.0
N2411 N 0.90174 0.46688 0.72021 0.0
C2412 C 0.9005 0.53583 0.80822 0.0
C2413 C 0.90775 0.48899 0.75011 0.0
N2414 N 0.9042 0.51469 0.90303 0.0
N2415 N 0.91802 0.51111 0.65932 0.0
H2416 H 0.89603 0.45016 0.74196 0.0
H2417 H 0.8987 0.46627 0.67455 0.0
H2418 H 0.91828 0.52662 0.63074 0.0
H2419 H 0.92439 0.49406 0.63956 0.0
H2420 H 0.9053 0.53229 0.92528 0.0
H2421 H 0.90355 0.49902 0.93121 0.0
H2422 H 0.88011 0.55594 0.87571 0.0
H2423 H 0.88151 0.57189 0.808 0.0
C2424 C 0.28717 0.36763 0.99146 0.0
C2425 C 0.28763 0.36324 0.05403 0.0
C2426 C 0.24004 0.36683 0.05102 0.0
C2427 C 0.23969 0.36328 0.98797 0.0
N2428 N 0.26526 0.36196 0.89784 0.0
N2429 N 0.26242 0.36205 0.14444 0.0
C2430 C 0.26388 0.3644 0.95801 0.0
C2431 C 0.26349 0.36399 0.08422 0.0
N2432 N 0.30885 0.37653 0.9641 0.0
N2433 N 0.21809 0.37472 0.07919 0.0
H2434 H 0.27826 0.36446 0.17179 0.0
H2435 H 0.24547 0.35794 0.16728 0.0
H2436 H 0.2014 0.37946 0.05615 0.0
H2437 H 0.21741 0.3799 0.12385 0.0
H2438 H 0.30928 0.38227 0.91989 0.0
H2439 H 0.32535 0.38153 0.98774 0.0
H2440 H 0.28253 0.35858 0.87549 0.0
H2441 H 0.24942 0.36255 0.87008 0.0
C2442 C 0.3927 0.52742 0.77119 0.0
C2443 C 0.41327 0.53341 0.81098 0.0
C2444 C 0.4318 0.49033 0.78759 0.0
C2445 C 0.41289 0.4856 0.74285 0.0
N2446 N 0.37657 0.50173 0.68845 0.0
N2447 N 0.45583 0.52191 0.84383 0.0
C2448 C 0.39385 0.5049 0.73338 0.0
C2449 C 0.43362 0.51512 0.81586 0.0
N2450 N 0.37128 0.54268 0.77143 0.0
N2451 N 0.44836 0.47119 0.80375 0.0
H2452 H 0.4586 0.53996 0.86232 0.0
H2453 H 0.47248 0.51074 0.84286 0.0
H2454 H 0.44918 0.45328 0.78309 0.0
H2455 H 0.46006 0.47243 0.84112 0.0
H2456 H 0.35453 0.5382 0.74844 0.0
H2457 H 0.36923 0.55853 0.79958 0.0
H2458 H 0.36419 0.51622 0.67438 0.0
H2459 H 0.37584 0.48517 0.66223 0.0
C2460 C 0.26763 0.64235 0.48115 0.0
C2461 C 0.28578 0.66251 0.49033 0.0
C2462 C 0.25457 0.68279 0.56043 0.0
C2463 C 0.2375 0.6614 0.55611 0.0
N2464 N 0.23069 0.6185 0.51855 0.0
N2465 N 0.2977 0.69963 0.54948 0.0
C2466 C 0.24486 0.64062 0.51784 0.0
C2467 C 0.27963 0.68185 0.53347 0.0
N2468 N 0.27216 0.62455 0.4376 0.0
N2469 N 0.24637 0.70505 0.58663 0.0
H2470 H 0.31573 0.70102 0.52974 0.0
H2471 H 0.29548 0.71184 0.58596 0.0
H2472 H 0.22818 0.70709 0.60493 0.0
H2473 H 0.25656 0.72227 0.5848 0.0
H2474 H 0.25852 0.6112 0.42363 0.0
H2475 H 0.28898 0.62425 0.41235 0.0
H2476 H 0.2362 0.60165 0.49681 0.0
H2477 H 0.21465 0.61611 0.54585 0.0
C2478 C 0.1141 0.48585 0.23616 0.0
C2479 C 0.1145 0.48586 0.29958 0.0
C2480 C 0.12329 0.53271 0.29216 0.0
C2481 C 0.11461 0.53348 0.23194 0.0
N2482 N 0.10102 0.5077 0.14717 0.0
N2483 N 0.12232 0.5118 0.38771 0.0
C2484 C 0.10988 0.50921 0.20395 0.0
C2485 C 0.1199 0.50999 0.32764 0.0
N2486 N 0.11969 0.46373 0.20582 0.0
N2487 N 0.13678 0.55308 0.31459 0.0
H2488 H 0.12452 0.49613 0.41554 0.0
H2489 H 0.12198 0.52941 0.41005 0.0
H2490 H 0.1425 0.56857 0.28845 0.0
H2491 H 0.14549 0.55288 0.35615 0.0
H2492 H 0.12164 0.46306 0.1598 0.0
H2493 H 0.12631 0.4472 0.22699 0.0
H2494 H 0.09432 0.49051 0.1288 0.0
H2495 H 0.09888 0.52328 0.11924 0.0
loop_
_geom_bond_atom_site_label_1
_geom_bond_atom_site_label_2
_geom_bond_distance
_geom_bond_site_symmetry_2
_ccdc_geom_bond_type
C0 C1 1.351 . S
C0 N3 1.368 . S
C0 H5 0.931 . S
C1 C0 1.351 . S
C1 N2 1.373 . S
C1 H29 0.930 . S
N2 C1 1.373 . S
N2 C4 1.340 . S
N3 C0 1.368 . S
N3 C4 1.321 . S
N3 Co6 2.135 . S
C4 N2 1.340 . S
C4 N3 1.321 . S
C4 H28 0.930 . S
H5 C0 0.931 . S
Co6 N3 2.135 . S
Co6 N9 2.121 . S
Co6 O14 2.055 . S
Co6 O17 2.039 . S
Co6 N20 2.140 . S
C7 O8 1.227 . S
C7 O17 1.265 . S
O8 C7 1.227 . S
N9 Co6 2.121 . S
N9 C11 1.375 . S
N9 C12 1.313 . S
C10 C11 1.338 . S
C10 N13 1.377 . S
C10 H30 0.930 . S
C11 N9 1.375 . S
C11 C10 1.338 . S
C11 H15 0.931 . S
C12 N9 1.313 . S
C12 N13 1.344 . S
C12 H16 0.930 . S
N13 C10 1.377 . S
N13 C12 1.344 . S
O14 Co6 2.055 . S
O14 C18 1.253 . S
H15 C11 0.931 . S
H16 C12 0.930 . S
O17 Co6 2.039 . S
O17 C7 1.265 . S
C18 O14 1.253 . S
C18 O19 1.227 . S
O19 C18 1.227 . S
N20 Co6 2.140 . S
N20 C23 1.346 . S
N20 C24 1.345 . S
C21 C22 1.387 . S
C21 C25 1.391 . S
C22 C21 1.387 . S
C22 C23 1.369 . S
C22 H31 0.929 . S
C23 N20 1.346 . S
C23 C22 1.369 . S
C23 H26 0.928 . S
C24 N20 1.345 . S
C24 C25 1.371 . S
C24 H27 0.931 . S
C25 C21 1.391 . S
C25 C24 1.371 . S
C25 H32 0.930 . S
H26 C23 0.928 . S
H27 C24 0.931 . S
H28 C4 0.930 . S
H29 C1 0.930 . S
H30 C10 0.930 . S
H31 C22 0.929 . S
H32 C25 0.930 . S
C33 C34 1.351 . S
C33 N36 1.368 . S
C33 H38 0.931 . S
C34 C33 1.351 . S
C34 N35 1.373 . S
C34 H62 0.930 . S
N35 C34 1.373 . S
N35 C37 1.340 . S
N36 C33 1.368 . S
N36 C37 1.321 . S
N36 Co39 2.135 . S
C37 N35 1.340 . S
C37 N36 1.321 . S
C37 H61 0.930 . S
H38 C33 0.931 . S
Co39 N36 2.135 . S
Co39 N42 2.121 . S
Co39 O47 2.055 . S
Co39 O50 2.039 . S
Co39 N53 2.140 . S
C40 O41 1.227 . S
C40 O50 1.265 . S
O41 C40 1.227 . S
N42 Co39 2.121 . S
N42 C44 1.375 . S
N42 C45 1.313 . S
C43 C44 1.338 . S
C43 N46 1.377 . S
C43 H63 0.930 . S
C44 N42 1.375 . S
C44 C43 1.338 . S
C44 H48 0.931 . S
C45 N42 1.313 . S
C45 N46 1.344 . S
C45 H49 0.930 . S
N46 C43 1.377 . S
N46 C45 1.344 . S
O47 Co39 2.055 . S
O47 C51 1.253 . S
H48 C44 0.931 . S
H49 C45 0.930 . S
O50 Co39 2.039 . S
O50 C40 1.265 . S
C51 O47 1.253 . S
C51 O52 1.227 . S
O52 C51 1.227 . S
N53 Co39 2.140 . S
N53 C56 1.346 . S
N53 C57 1.345 . S
C54 C55 1.395 . S
C54 C58 1.428 . S
C55 C54 1.395 . S
C55 C56 1.369 . S
C55 H64 0.929 1_455 S
C56 N53 1.346 . S
C56 C55 1.369 . S
C56 H59 0.928 . S
C57 N53 1.345 . S
C57 C58 1.371 . S
C57 H60 0.931 . S
C58 C54 1.428 . S
C58 C57 1.371 . S
C58 H65 0.930 . S
H59 C56 0.928 . S
H60 C57 0.931 . S
H61 C37 0.930 . S
H62 C34 0.930 . S
H63 C43 0.930 . S
H64 C55 0.929 1_655 S
H65 C58 0.930 . S
C66 C67 1.351 . S
C66 N69 1.368 . S
C66 H71 0.931 . S
C67 C66 1.351 . S
C67 N68 1.373 . S
C67 H95 0.930 . S
N68 C67 1.373 . S
N68 C70 1.340 . S
N69 C66 1.368 . S
N69 C70 1.321 . S
N69 Co72 2.135 . S
C70 N68 1.340 . S
C70 N69 1.321 . S
C70 H94 0.930 . S
H71 C66 0.931 . S
Co72 N69 2.135 . S
Co72 N75 2.121 . S
Co72 O80 2.055 . S
Co72 O83 2.039 . S
Co72 N86 2.140 . S
C73 O74 1.227 . S
C73 O83 1.265 . S
O74 C73 1.227 . S
N75 Co72 2.121 . S
N75 C77 1.375 . S
N75 C78 1.313 . S
C76 C77 1.338 . S
C76 N79 1.377 . S
C76 H96 0.930 . S
C77 N75 1.375 . S
C77 C76 1.338 . S
C77 H81 0.931 . S
C78 N75 1.313 . S
C78 N79 1.344 . S
C78 H82 0.930 . S
N79 C76 1.377 . S
N79 C78 1.344 . S
O80 Co72 2.055 . S
O80 C84 1.253 . S
H81 C77 0.931 . S
H82 C78 0.930 . S
O83 Co72 2.039 . S
O83 C73 1.265 . S
C84 O80 1.253 . S
C84 O85 1.227 . S
O85 C84 1.227 . S
N86 Co72 2.140 . S
N86 C89 1.346 . S
N86 C90 1.345 . S
C87 C88 1.387 . S
C87 C91 1.391 . S
C88 C87 1.387 . S
C88 C89 1.369 . S
C88 H97 0.929 . S
C89 N86 1.346 . S
C89 C88 1.369 . S
C89 H92 0.928 . S
C90 N86 1.345 . S
C90 C91 1.371 . S
C90 H93 0.931 . S
C91 C87 1.391 . S
C91 C90 1.371 . S
C91 H98 0.930 . S
H92 C89 0.928 . S
H93 C90 0.931 . S
H94 C70 0.930 . S
H95 C67 0.930 . S
H96 C76 0.930 . S
H97 C88 0.929 . S
H98 C91 0.930 . S
C99 C100 1.351 . S
C99 N102 1.368 1_556 S
C99 H104 0.931 . S
C100 C99 1.351 . S
C100 N101 1.383 . S
C100 H128 0.930 . S
N101 C100 1.383 . S
N101 C103 1.331 1_556 S
N102 C99 1.368 1_554 S
N102 C103 1.321 . S
N102 Co105 2.135 . S
C103 N101 1.331 1_554 S
C103 N102 1.321 . S
C103 H127 0.930 . S
H104 C99 0.931 . S
Co105 N102 2.135 . S
Co105 N108 2.121 . S
Co105 O113 2.055 . S
Co105 O116 2.039 . S
Co105 N119 2.140 . S
C106 O107 1.227 . S
C106 O116 1.265 . S
O107 C106 1.227 . S
N108 Co105 2.121 . S
N108 C110 1.375 . S
N108 C111 1.313 . S
C109 C110 1.338 . S
C109 N112 1.377 . S
C109 H129 0.930 . S
C110 N108 1.375 . S
C110 C109 1.338 . S
C110 H114 0.931 . S
C111 N108 1.313 . S
C111 N112 1.344 . S
C111 H115 0.930 . S
N112 C109 1.377 . S
N112 C111 1.344 . S
O113 Co105 2.055 . S
O113 C117 1.253 1_554 S
H114 C110 0.931 . S
H115 C111 0.930 . S
O116 Co105 2.039 . S
O116 C106 1.265 . S
C117 O113 1.253 1_556 S
C117 O118 1.227 . S
O118 C117 1.227 . S
N119 Co105 2.140 . S
N119 C122 1.346 . S
N119 C123 1.345 . S
C120 C121 1.387 . S
C120 C124 1.391 . S
C121 C120 1.387 . S
C121 C122 1.369 . S
C121 H130 0.929 . S
C122 N119 1.346 . S
C122 C121 1.369 . S
C122 H125 0.928 . S
C123 N119 1.345 . S
C123 C124 1.371 . S
C123 H126 0.931 . S
C124 C120 1.391 . S
C124 C123 1.371 . S
C124 H131 0.930 . S
H125 C122 0.928 . S
H126 C123 0.931 . S
H127 C103 0.930 . S
H128 C100 0.930 . S
H129 C109 0.930 . S
H130 C121 0.929 . S
H131 C124 0.930 . S
C132 C133 1.351 . S
C132 N135 1.368 . S
C132 H137 0.931 . S
C133 C132 1.351 . S
C133 N134 1.373 . S
C133 H161 0.930 . S
N134 C133 1.373 . S
N134 C136 1.340 . S
N135 C132 1.368 . S
N135 C136 1.321 . S
N135 Co138 2.135 . S
C136 N134 1.340 . S
C136 N135 1.321 . S
C136 H160 0.930 . S
H137 C132 0.931 . S
Co138 N135 2.135 . S
Co138 N141 2.121 . S
Co138 O146 2.055 . S
Co138 O149 2.039 . S
Co138 N152 2.140 . S
C139 O140 1.227 . S
C139 O149 1.265 . S
O140 C139 1.227 . S
N141 Co138 2.121 . S
N141 C143 1.375 . S
N141 C144 1.313 . S
C142 C143 1.338 . S
C142 N145 1.377 . S
C142 H162 0.930 . S
C143 N141 1.375 . S
C143 C142 1.338 . S
C143 H147 0.931 . S
C144 N141 1.313 . S
C144 N145 1.344 . S
C144 H148 0.930 . S
N145 C142 1.377 . S
N145 C144 1.344 . S
O146 Co138 2.055 . S
O146 C150 1.253 . S
H147 C143 0.931 . S
H148 C144 0.930 . S
O149 Co138 2.039 . S
O149 C139 1.265 . S
C150 O146 1.253 . S
C150 O151 1.227 . S
O151 C150 1.227 . S
N152 Co138 2.140 . S
N152 C155 1.346 . S
N152 C156 1.345 . S
C153 C154 1.387 . S
C153 C157 1.391 . S
C154 C153 1.387 . S
C154 C155 1.369 . S
C154 H163 0.929 . S
C155 N152 1.346 . S
C155 C154 1.369 . S
C155 H158 0.928 . S
C156 N152 1.345 . S
C156 C157 1.371 . S
C156 H159 0.931 . S
C157 C153 1.391 . S
C157 C156 1.371 . S
C157 H164 0.930 . S
H158 C155 0.928 . S
H159 C156 0.931 . S
H160 C136 0.930 . S
H161 C133 0.930 . S
H162 C142 0.930 . S
H163 C154 0.929 . S
H164 C157 0.930 . S
C165 C166 1.351 . S
C165 N168 1.368 . S
C165 H170 0.931 . S
C166 C165 1.351 . S
C166 N167 1.373 . S
C166 H194 0.930 . S
N167 C166 1.373 . S
N167 C169 1.340 . S
N168 C165 1.368 . S
N168 C169 1.321 . S
N168 Co171 2.135 . S
C169 N167 1.340 . S
C169 N168 1.321 . S
C169 H193 0.930 . S
H170 C165 0.931 . S
Co171 N168 2.135 . S
Co171 N174 2.121 . S
Co171 O179 2.055 . S
Co171 O182 2.039 . S
Co171 N185 2.140 . S
C172 O173 1.227 . S
C172 O182 1.265 . S
O173 C172 1.227 . S
N174 Co171 2.121 . S
N174 C176 1.375 . S
N174 C177 1.313 . S
C175 C176 1.338 . S
C175 N178 1.377 . S
C175 H195 0.930 . S
C176 N174 1.375 . S
C176 C175 1.338 . S
C176 H180 0.931 . S
C177 N174 1.313 . S
C177 N178 1.344 . S
C177 H181 0.930 . S
N178 C175 1.377 . S
N178 C177 1.344 . S
O179 Co171 2.055 . S
O179 C183 1.253 . S
H180 C176 0.931 . S
H181 C177 0.930 . S
O182 Co171 2.039 . S
O182 C172 1.265 . S
C183 O179 1.253 . S
C183 O184 1.227 . S
O184 C183 1.227 . S
N185 Co171 2.140 . S
N185 C188 1.346 . S
N185 C189 1.345 . S
C186 C187 1.387 . S
C186 C190 1.391 . S
C187 C186 1.387 . S
C187 C188 1.369 . S
C187 H196 0.929 . S
C188 N185 1.346 . S
C188 C187 1.369 . S
C188 H191 0.928 . S
C189 N185 1.345 . S
C189 C190 1.371 . S
C189 H192 0.931 . S
C190 C186 1.391 . S
C190 C189 1.371 . S
C190 H197 0.930 . S
H191 C188 0.928 . S
H192 C189 0.931 . S
H193 C169 0.930 . S
H194 C166 0.930 . S
H195 C175 0.930 . S
H196 C187 0.929 . S
H197 C190 0.930 . S
C198 C199 1.351 . S
C198 N201 1.368 . S
C198 H203 0.931 . S
C199 C198 1.351 . S
C199 N200 1.373 . S
C199 H227 0.930 . S
N200 C199 1.373 . S
N200 C202 1.340 . S
N201 C198 1.368 . S
N201 C202 1.321 . S
N201 Co204 2.135 . S
C202 N200 1.340 . S
C202 N201 1.321 . S
C202 H226 0.930 . S
H203 C198 0.931 . S
Co204 N201 2.135 . S
Co204 N207 2.121 . S
Co204 O212 2.055 . S
Co204 O215 2.039 . S
Co204 N218 2.140 . S
C205 O206 1.227 . S
C205 O215 1.265 . S
O206 C205 1.227 . S
N207 Co204 2.121 . S
N207 C209 1.375 . S
N207 C210 1.313 . S
C208 C209 1.338 . S
C208 N211 1.377 . S
C208 H228 0.930 . S
C209 N207 1.375 . S
C209 C208 1.338 . S
C209 H213 0.931 . S
C210 N207 1.313 . S
C210 N211 1.344 . S
C210 H214 0.930 . S
N211 C208 1.377 . S
N211 C210 1.344 . S
O212 Co204 2.055 . S
O212 C216 1.253 . S
H213 C209 0.931 . S
H214 C210 0.930 . S
O215 Co204 2.039 . S
O215 C205 1.265 . S
C216 O212 1.253 . S
C216 O217 1.227 . S
O217 C216 1.227 . S
N218 Co204 2.140 . S
N218 C221 1.346 . S
N218 C222 1.345 . S
C219 C220 1.387 . S
C219 C223 1.391 . S
C220 C219 1.387 . S
C220 C221 1.369 . S
C220 H229 0.929 . S
C221 N218 1.346 . S
C221 C220 1.369 . S
C221 H224 0.928 . S
C222 N218 1.345 . S
C222 C223 1.371 . S
C222 H225 0.931 . S
C223 C219 1.391 . S
C223 C222 1.371 . S
C223 H230 0.930 . S
H224 C221 0.928 . S
H225 C222 0.931 . S
H226 C202 0.930 . S
H227 C199 0.930 . S
H228 C208 0.930 . S
H229 C220 0.929 . S
H230 C223 0.930 . S
C231 C232 1.351 . S
C231 N234 1.368 1_554 S
C231 H236 0.931 . S
C232 C231 1.351 . S
C232 N233 1.383 . S
C232 H260 0.930 . S
N233 C232 1.383 . S
N233 C235 1.331 1_554 S
N234 C231 1.368 1_556 S
N234 C235 1.321 . S
N234 Co237 2.135 . S
C235 N233 1.331 1_556 S
C235 N234 1.321 . S
C235 H259 0.930 . S
H236 C231 0.931 . S
Co237 N234 2.135 . S
Co237 N240 2.121 . S
Co237 O245 2.055 . S
Co237 O248 2.039 . S
Co237 N251 2.140 . S
C238 O239 1.227 . S
C238 O248 1.265 . S
O239 C238 1.227 . S
N240 Co237 2.121 . S
N240 C242 1.375 . S
N240 C243 1.313 . S
C241 C242 1.338 . S
C241 N244 1.377 . S
C241 H261 0.930 . S
C242 N240 1.375 . S
C242 C241 1.338 . S
C242 H246 0.931 . S
C243 N240 1.313 . S
C243 N244 1.344 . S
C243 H247 0.930 . S
N244 C241 1.377 . S
N244 C243 1.344 . S
O245 Co237 2.055 . S
O245 C249 1.253 1_556 S
H246 C242 0.931 . S
H247 C243 0.930 . S
O248 Co237 2.039 . S
O248 C238 1.265 . S
C249 O245 1.253 1_554 S
C249 O250 1.227 . S
O250 C249 1.227 . S
N251 Co237 2.140 . S
N251 C254 1.346 . S
N251 C255 1.345 . S
C252 C253 1.395 . S
C252 C256 1.428 . S
C253 C252 1.395 . S
C253 C254 1.369 . S
C253 H262 0.929 1_455 S
C254 N251 1.346 . S
C254 C253 1.369 . S
C254 H257 0.928 . S
C255 N251 1.345 . S
C255 C256 1.371 . S
C255 H258 0.931 . S
C256 C252 1.428 . S
C256 C255 1.371 . S
C256 H263 0.930 . S
H257 C254 0.928 . S
H258 C255 0.931 . S
H259 C235 0.930 . S
H260 C232 0.930 . S
H261 C241 0.930 . S
H262 C253 0.929 1_655 S
H263 C256 0.930 . S
C264 C265 1.351 . S
C264 N267 1.368 . S
C264 H269 0.931 . S
C265 C264 1.351 . S
C265 N266 1.373 . S
C265 H293 0.930 . S
N266 C265 1.373 . S
N266 C268 1.340 . S
N267 C264 1.368 . S
N267 C268 1.321 . S
N267 Co270 2.135 . S
C268 N266 1.340 . S
C268 N267 1.321 . S
C268 H292 0.930 . S
H269 C264 0.931 . S
Co270 N267 2.135 . S
Co270 N273 2.121 . S
Co270 O278 2.055 . S
Co270 O281 2.039 . S
Co270 N284 2.140 . S
C271 O272 1.227 . S
C271 O281 1.265 . S
O272 C271 1.227 . S
N273 Co270 2.121 . S
N273 C275 1.375 . S
N273 C276 1.313 . S
C274 C275 1.338 . S
C274 N277 1.377 . S
C274 H294 0.930 . S
C275 N273 1.375 . S
C275 C274 1.338 . S
C275 H279 0.931 . S
C276 N273 1.313 . S
C276 N277 1.344 . S
C276 H280 0.930 . S
N277 C274 1.377 . S
N277 C276 1.344 . S
O278 Co270 2.055 . S
O278 C282 1.253 . S
H279 C275 0.931 . S
H280 C276 0.930 . S
O281 Co270 2.039 . S
O281 C271 1.265 . S
C282 O278 1.253 . S
C282 O283 1.227 . S
O283 C282 1.227 . S
N284 Co270 2.140 . S
N284 C287 1.346 . S
N284 C288 1.345 . S
C285 C286 1.387 . S
C285 C289 1.391 . S
C286 C285 1.387 . S
C286 C287 1.369 . S
C286 H295 0.929 . S
C287 N284 1.346 . S
C287 C286 1.369 . S
C287 H290 0.928 . S
C288 N284 1.345 . S
C288 C289 1.371 . S
C288 H291 0.931 . S
C289 C285 1.391 . S
C289 C288 1.371 . S
C289 H296 0.930 . S
H290 C287 0.928 . S
H291 C288 0.931 . S
H292 C268 0.930 . S
H293 C265 0.930 . S
H294 C274 0.930 . S
H295 C286 0.929 . S
H296 C289 0.930 . S
C297 C298 1.351 . S
C297 N300 1.368 . S
C297 H302 0.931 . S
C298 C297 1.351 . S
C298 N299 1.373 . S
C298 H326 0.930 . S
N299 C298 1.373 . S
N299 C301 1.340 . S
N300 C297 1.368 . S
N300 C301 1.321 . S
N300 Co303 2.135 . S
C301 N299 1.340 . S
C301 N300 1.321 . S
C301 H325 0.930 . S
H302 C297 0.931 . S
Co303 N300 2.135 . S
Co303 N306 2.121 . S
Co303 O311 2.055 . S
Co303 O314 2.039 . S
Co303 N317 2.140 . S
C304 O305 1.227 . S
C304 O314 1.265 . S
O305 C304 1.227 . S
N306 Co303 2.121 . S
N306 C308 1.375 . S
N306 C309 1.313 . S
C307 C308 1.338 . S
C307 N310 1.377 . S
C307 H327 0.930 . S
C308 N306 1.375 . S
C308 C307 1.338 . S
C308 H312 0.931 . S
C309 N306 1.313 . S
C309 N310 1.344 . S
C309 H313 0.930 . S
N310 C307 1.377 . S
N310 C309 1.344 . S
O311 Co303 2.055 . S
O311 C315 1.253 . S
H312 C308 0.931 . S
H313 C309 0.930 . S
O314 Co303 2.039 . S
O314 C304 1.265 . S
C315 O311 1.253 . S
C315 O316 1.227 . S
O316 C315 1.227 . S
N317 Co303 2.140 . S
N317 C320 1.346 . S
N317 C321 1.345 . S
C318 C319 1.395 . S
C318 C322 1.428 . S
C319 C318 1.395 . S
C319 C320 1.369 . S
C319 H328 0.929 1_655 S
C320 N317 1.346 . S
C320 C319 1.369 . S
C320 H323 0.928 . S
C321 N317 1.345 . S
C321 C322 1.371 . S
C321 H324 0.931 . S
C322 C318 1.428 . S
C322 C321 1.371 . S
C322 H329 0.930 . S
H323 C320 0.928 . S
H324 C321 0.931 . S
H325 C301 0.930 . S
H326 C298 0.930 . S
H327 C307 0.930 . S
H328 C319 0.929 1_455 S
H329 C322 0.930 . S
C330 C331 1.351 . S
C330 N333 1.368 . S
C330 H335 0.931 . S
C331 C330 1.351 . S
C331 N332 1.373 . S
C331 H359 0.930 . S
N332 C331 1.373 . S
N332 C334 1.340 . S
N333 C330 1.368 . S
N333 C334 1.321 . S
N333 Co336 2.135 . S
C334 N332 1.340 . S
C334 N333 1.321 . S
C334 H358 0.930 . S
H335 C330 0.931 . S
Co336 N333 2.135 . S
Co336 N339 2.121 . S
Co336 O344 2.055 . S
Co336 O347 2.039 . S
Co336 N350 2.140 . S
C337 O338 1.227 . S
C337 O347 1.265 . S
O338 C337 1.227 . S
N339 Co336 2.121 . S
N339 C341 1.375 . S
N339 C342 1.313 . S
C340 C341 1.338 . S
C340 N343 1.377 . S
C340 H360 0.930 . S
C341 N339 1.375 . S
C341 C340 1.338 . S
C341 H345 0.931 . S
C342 N339 1.313 . S
C342 N343 1.344 . S
C342 H346 0.930 . S
N343 C340 1.377 . S
N343 C342 1.344 . S
O344 Co336 2.055 . S
O344 C348 1.253 . S
H345 C341 0.931 . S
H346 C342 0.930 . S
O347 Co336 2.039 . S
O347 C337 1.265 . S
C348 O344 1.253 . S
C348 O349 1.227 . S
O349 C348 1.227 . S
N350 Co336 2.140 . S
N350 C353 1.346 . S
N350 C354 1.345 . S
C351 C352 1.387 . S
C351 C355 1.391 . S
C352 C351 1.387 . S
C352 C353 1.369 . S
C352 H361 0.929 . S
C353 N350 1.346 . S
C353 C352 1.369 . S
C353 H356 0.928 . S
C354 N350 1.345 . S
C354 C355 1.371 . S
C354 H357 0.931 . S
C355 C351 1.391 . S
C355 C354 1.371 . S
C355 H362 0.930 . S
H356 C353 0.928 . S
H357 C354 0.931 . S
H358 C334 0.930 . S
H359 C331 0.930 . S
H360 C340 0.930 . S
H361 C352 0.929 . S
H362 C355 0.930 . S
C363 C364 1.351 . S
C363 N366 1.368 1_554 S
C363 H368 0.931 . S
C364 C363 1.351 . S
C364 N365 1.383 . S
C364 H392 0.930 . S
N365 C364 1.383 . S
N365 C367 1.331 1_554 S
N366 C363 1.368 1_556 S
N366 C367 1.321 . S
N366 Co369 2.135 . S
C367 N365 1.331 1_556 S
C367 N366 1.321 . S
C367 H391 0.930 . S
H368 C363 0.931 . S
Co369 N366 2.135 . S
Co369 N372 2.121 . S
Co369 O377 2.055 . S
Co369 O380 2.039 . S
Co369 N383 2.140 . S
C370 O371 1.227 . S
C370 O380 1.265 . S
O371 C370 1.227 . S
N372 Co369 2.121 . S
N372 C374 1.375 . S
N372 C375 1.313 . S
C373 C374 1.338 . S
C373 N376 1.377 . S
C373 H393 0.930 . S
C374 N372 1.375 . S
C374 C373 1.338 . S
C374 H378 0.931 . S
C375 N372 1.313 . S
C375 N376 1.344 . S
C375 H379 0.930 . S
N376 C373 1.377 . S
N376 C375 1.344 . S
O377 Co369 2.055 . S
O377 C381 1.253 1_556 S
H378 C374 0.931 . S
H379 C375 0.930 . S
O380 Co369 2.039 . S
O380 C370 1.265 . S
C381 O377 1.253 1_554 S
C381 O382 1.227 . S
O382 C381 1.227 . S
N383 Co369 2.140 . S
N383 C386 1.346 . S
N383 C387 1.345 . S
C384 C385 1.387 . S
C384 C388 1.391 . S
C385 C384 1.387 . S
C385 C386 1.369 . S
C385 H394 0.929 . S
C386 N383 1.346 . S
C386 C385 1.369 . S
C386 H389 0.928 . S
C387 N383 1.345 . S
C387 C388 1.371 . S
C387 H390 0.931 . S
C388 C384 1.391 . S
C388 C387 1.371 . S
C388 H395 0.930 . S
H389 C386 0.928 . S
H390 C387 0.931 . S
H391 C367 0.930 . S
H392 C364 0.930 . S
H393 C373 0.930 . S
H394 C385 0.929 . S
H395 C388 0.930 . S
C396 C397 1.351 . S
C396 N399 1.368 . S
C396 H401 0.931 . S
C397 C396 1.351 . S
C397 N398 1.373 . S
C397 H425 0.930 . S
N398 C397 1.373 . S
N398 C400 1.340 . S
N399 C396 1.368 . S
N399 C400 1.321 . S
N399 Co402 2.135 . S
C400 N398 1.340 . S
C400 N399 1.321 . S
C400 H424 0.930 . S
H401 C396 0.931 . S
Co402 N399 2.135 . S
Co402 N405 2.121 . S
Co402 O410 2.055 . S
Co402 O413 2.039 . S
Co402 N416 2.140 . S
C403 O404 1.227 . S
C403 O413 1.265 . S
O404 C403 1.227 . S
N405 Co402 2.121 . S
N405 C407 1.375 . S
N405 C408 1.313 . S
C406 C407 1.338 . S
C406 N409 1.377 . S
C406 H426 0.930 . S
C407 N405 1.375 . S
C407 C406 1.338 . S
C407 H411 0.931 . S
C408 N405 1.313 . S
C408 N409 1.344 . S
C408 H412 0.930 . S
N409 C406 1.377 . S
N409 C408 1.344 . S
O410 Co402 2.055 . S
O410 C414 1.253 . S
H411 C407 0.931 . S
H412 C408 0.930 . S
O413 Co402 2.039 . S
O413 C403 1.265 . S
C414 O410 1.253 . S
C414 O415 1.227 . S
O415 C414 1.227 . S
N416 Co402 2.140 . S
N416 C419 1.346 . S
N416 C420 1.345 . S
C417 C418 1.387 . S
C417 C421 1.391 . S
C418 C417 1.387 . S
C418 C419 1.369 . S
C418 H427 0.929 . S
C419 N416 1.346 . S
C419 C418 1.369 . S
C419 H422 0.928 . S
C420 N416 1.345 . S
C420 C421 1.371 . S
C420 H423 0.931 . S
C421 C417 1.391 . S
C421 C420 1.371 . S
C421 H428 0.930 . S
H422 C419 0.928 . S
H423 C420 0.931 . S
H424 C400 0.930 . S
H425 C397 0.930 . S
H426 C406 0.930 . S
H427 C418 0.929 . S
H428 C421 0.930 . S
C429 C430 1.351 . S
C429 N432 1.368 . S
C429 H434 0.931 . S
C430 C429 1.351 . S
C430 N431 1.373 . S
C430 H458 0.930 . S
N431 C430 1.373 . S
N431 C433 1.340 . S
N432 C429 1.368 . S
N432 C433 1.321 . S
N432 Co435 2.135 . S
C433 N431 1.340 . S
C433 N432 1.321 . S
C433 H457 0.930 . S
H434 C429 0.931 . S
Co435 N432 2.135 . S
Co435 N438 2.121 . S
Co435 O443 2.055 . S
Co435 O446 2.039 . S
Co435 N449 2.140 . S
C436 O437 1.227 . S
C436 O446 1.265 . S
O437 C436 1.227 . S
N438 Co435 2.121 . S
N438 C440 1.375 . S
N438 C441 1.313 . S
C439 C440 1.338 . S
C439 N442 1.377 . S
C439 H459 0.930 . S
C440 N438 1.375 . S
C440 C439 1.338 . S
C440 H444 0.931 . S
C441 N438 1.313 . S
C441 N442 1.344 . S
C441 H445 0.930 . S
N442 C439 1.377 . S
N442 C441 1.344 . S
O443 Co435 2.055 . S
O443 C447 1.253 . S
H444 C440 0.931 . S
H445 C441 0.930 . S
O446 Co435 2.039 . S
O446 C436 1.265 . S
C447 O443 1.253 . S
C447 O448 1.227 . S
O448 C447 1.227 . S
N449 Co435 2.140 . S
N449 C452 1.346 . S
N449 C453 1.345 . S
C450 C451 1.387 . S
C450 C454 1.391 . S
C451 C450 1.387 . S
C451 C452 1.369 . S
C451 H460 0.929 . S
C452 N449 1.346 . S
C452 C451 1.369 . S
C452 H455 0.928 . S
C453 N449 1.345 . S
C453 C454 1.371 . S
C453 H456 0.931 . S
C454 C450 1.391 . S
C454 C453 1.371 . S
C454 H461 0.930 . S
H455 C452 0.928 . S
H456 C453 0.931 . S
H457 C433 0.930 . S
H458 C430 0.930 . S
H459 C439 0.930 . S
H460 C451 0.929 . S
H461 C454 0.930 . S
C462 C463 1.351 . S
C462 N465 1.368 . S
C462 H467 0.931 . S
C463 C462 1.351 . S
C463 N464 1.373 . S
C463 H491 0.930 . S
N464 C463 1.373 . S
N464 C466 1.340 . S
N465 C462 1.368 . S
N465 C466 1.321 . S
N465 Co468 2.135 . S
C466 N464 1.340 . S
C466 N465 1.321 . S
C466 H490 0.930 . S
H467 C462 0.931 . S
Co468 N465 2.135 . S
Co468 N471 2.121 . S
Co468 O476 2.055 . S
Co468 O479 2.039 . S
Co468 N482 2.140 . S
C469 O470 1.227 . S
C469 O479 1.265 . S
O470 C469 1.227 . S
N471 Co468 2.121 . S
N471 C473 1.375 . S
N471 C474 1.313 . S
C472 C473 1.338 . S
C472 N475 1.377 . S
C472 H492 0.930 . S
C473 N471 1.375 . S
C473 C472 1.338 . S
C473 H477 0.931 . S
C474 N471 1.313 . S
C474 N475 1.344 . S
C474 H478 0.930 . S
N475 C472 1.377 . S
N475 C474 1.344 . S
O476 Co468 2.055 . S
O476 C480 1.253 . S
H477 C473 0.931 . S
H478 C474 0.930 . S
O479 Co468 2.039 . S
O479 C469 1.265 . S
C480 O476 1.253 . S
C480 O481 1.227 . S
O481 C480 1.227 . S
N482 Co468 2.140 . S
N482 C485 1.346 . S
N482 C486 1.345 . S
C483 C484 1.387 . S
C483 C487 1.391 . S
C484 C483 1.387 . S
C484 C485 1.369 . S
C484 H493 0.929 . S
C485 N482 1.346 . S
C485 C484 1.369 . S
C485 H488 0.928 . S
C486 N482 1.345 . S
C486 C487 1.371 . S
C486 H489 0.931 . S
C487 C483 1.391 . S
C487 C486 1.371 . S
C487 H494 0.930 . S
H488 C485 0.928 . S
H489 C486 0.931 . S
H490 C466 0.930 . S
H491 C463 0.930 . S
H492 C472 0.930 . S
H493 C484 0.929 . S
H494 C487 0.930 . S
C495 C496 1.351 . S
C495 N498 1.368 1_556 S
C495 H500 0.931 . S
C496 C495 1.351 . S
C496 N497 1.383 . S
C496 H524 0.930 . S
N497 C496 1.383 . S
N497 C499 1.331 1_556 S
N498 C495 1.368 1_554 S
N498 C499 1.321 . S
N498 Co501 2.135 . S
C499 N497 1.331 1_554 S
C499 N498 1.321 . S
C499 H523 0.930 . S
H500 C495 0.931 . S
Co501 N498 2.135 . S
Co501 N504 2.121 . S
Co501 O509 2.055 . S
Co501 O512 2.039 . S
Co501 N515 2.140 . S
C502 O503 1.227 . S
C502 O512 1.265 . S
O503 C502 1.227 . S
N504 Co501 2.121 . S
N504 C506 1.375 . S
N504 C507 1.313 . S
C505 C506 1.338 . S
C505 N508 1.377 . S
C505 H525 0.930 . S
C506 N504 1.375 . S
C506 C505 1.338 . S
C506 H510 0.931 . S
C507 N504 1.313 . S
C507 N508 1.344 . S
C507 H511 0.930 . S
N508 C505 1.377 . S
N508 C507 1.344 . S
O509 Co501 2.055 . S
O509 C513 1.253 1_554 S
H510 C506 0.931 . S
H511 C507 0.930 . S
O512 Co501 2.039 . S
O512 C502 1.265 . S
C513 O509 1.253 1_556 S
C513 O514 1.227 . S
O514 C513 1.227 . S
N515 Co501 2.140 . S
N515 C518 1.346 . S
N515 C519 1.345 . S
C516 C517 1.395 . S
C516 C520 1.428 . S
C517 C516 1.395 . S
C517 C518 1.369 . S
C517 H526 0.929 1_655 S
C518 N515 1.346 . S
C518 C517 1.369 . S
C518 H521 0.928 . S
C519 N515 1.345 . S
C519 C520 1.371 . S
C519 H522 0.931 . S
C520 C516 1.428 . S
C520 C519 1.371 . S
C520 H527 0.930 . S
H521 C518 0.928 . S
H522 C519 0.931 . S
H523 C499 0.930 . S
H524 C496 0.930 . S
H525 C505 0.930 . S
H526 C517 0.929 1_455 S
H527 C520 0.930 . S
C528 C529 1.351 . S
C528 N531 1.368 . S
C528 H533 0.931 . S
C529 C528 1.351 . S
C529 N530 1.373 . S
C529 H557 0.930 . S
N530 C529 1.373 . S
N530 C532 1.340 . S
N531 C528 1.368 . S
N531 C532 1.321 . S
N531 Co534 2.135 . S
C532 N530 1.340 . S
C532 N531 1.321 . S
C532 H556 0.930 . S
H533 C528 0.931 . S
Co534 N531 2.135 . S
Co534 N537 2.121 . S
Co534 O542 2.055 . S
Co534 O545 2.039 . S
Co534 N548 2.140 . S
C535 O536 1.227 . S
C535 O545 1.265 . S
O536 C535 1.227 . S
N537 Co534 2.121 . S
N537 C539 1.375 . S
N537 C540 1.313 . S
C538 C539 1.338 . S
C538 N541 1.377 . S
C538 H558 0.930 . S
C539 N537 1.375 . S
C539 C538 1.338 . S
C539 H543 0.931 . S
C540 N537 1.313 . S
C540 N541 1.344 . S
C540 H544 0.930 . S
N541 C538 1.377 . S
N541 C540 1.344 . S
O542 Co534 2.055 . S
O542 C546 1.253 . S
H543 C539 0.931 . S
H544 C540 0.930 . S
O545 Co534 2.039 . S
O545 C535 1.265 . S
C546 O542 1.253 . S
C546 O547 1.227 . S
O547 C546 1.227 . S
N548 Co534 2.140 . S
N548 C551 1.346 . S
N548 C552 1.345 . S
C549 C550 1.387 . S
C549 C553 1.391 . S
C550 C549 1.387 . S
C550 C551 1.369 . S
C550 H559 0.929 . S
C551 N548 1.346 . S
C551 C550 1.369 . S
C551 H554 0.928 . S
C552 N548 1.345 . S
C552 C553 1.371 . S
C552 H555 0.931 . S
C553 C549 1.391 . S
C553 C552 1.371 . S
C553 H560 0.930 . S
H554 C551 0.928 . S
H555 C552 0.931 . S
H556 C532 0.930 . S
H557 C529 0.930 . S
H558 C538 0.930 . S
H559 C550 0.929 . S
H560 C553 0.930 . S
C561 C562 1.351 . S
C561 N564 1.368 1_556 S
C561 H566 0.931 . S
C562 C561 1.351 . S
C562 N563 1.383 . S
C562 H590 0.930 . S
N563 C562 1.383 . S
N563 C565 1.331 1_556 S
N564 C561 1.368 1_554 S
N564 C565 1.321 . S
N564 Co567 2.135 . S
C565 N563 1.331 1_554 S
C565 N564 1.321 . S
C565 H589 0.930 . S
H566 C561 0.931 . S
Co567 N564 2.135 . S
Co567 N570 2.121 . S
Co567 O575 2.055 . S
Co567 O578 2.039 . S
Co567 N581 2.140 . S
C568 O569 1.227 . S
C568 O578 1.265 . S
O569 C568 1.227 . S
N570 Co567 2.121 . S
N570 C572 1.375 . S
N570 C573 1.313 . S
C571 C572 1.338 . S
C571 N574 1.377 . S
C571 H591 0.930 . S
C572 N570 1.375 . S
C572 C571 1.338 . S
C572 H576 0.931 . S
C573 N570 1.313 . S
C573 N574 1.344 . S
C573 H577 0.930 . S
N574 C571 1.377 . S
N574 C573 1.344 . S
O575 Co567 2.055 . S
O575 C579 1.253 1_554 S
H576 C572 0.931 . S
H577 C573 0.930 . S
O578 Co567 2.039 . S
O578 C568 1.265 . S
C579 O575 1.253 1_556 S
C579 O580 1.227 . S
O580 C579 1.227 . S
N581 Co567 2.140 . S
N581 C584 1.346 . S
N581 C585 1.345 . S
C582 C583 1.387 . S
C582 C586 1.391 . S
C583 C582 1.387 . S
C583 C584 1.369 . S
C583 H592 0.929 . S
C584 N581 1.346 . S
C584 C583 1.369 . S
C584 H587 0.928 . S
C585 N581 1.345 . S
C585 C586 1.371 . S
C585 H588 0.931 . S
C586 C582 1.391 . S
C586 C585 1.371 . S
C586 H593 0.930 . S
H587 C584 0.928 . S
H588 C585 0.931 . S
H589 C565 0.930 . S
H590 C562 0.930 . S
H591 C571 0.930 . S
H592 C583 0.929 . S
H593 C586 0.930 . S
C594 C595 1.351 . S
C594 N597 1.368 . S
C594 H599 0.931 . S
C595 C594 1.351 . S
C595 N596 1.373 . S
C595 H623 0.930 . S
N596 C595 1.373 . S
N596 C598 1.340 . S
N597 C594 1.368 . S
N597 C598 1.321 . S
N597 Co600 2.135 . S
C598 N596 1.340 . S
C598 N597 1.321 . S
C598 H622 0.930 . S
H599 C594 0.931 . S
Co600 N597 2.135 . S
Co600 N603 2.121 . S
Co600 O608 2.055 . S
Co600 O611 2.039 . S
Co600 N614 2.140 . S
C601 O602 1.227 . S
C601 O611 1.265 . S
O602 C601 1.227 . S
N603 Co600 2.121 . S
N603 C605 1.375 . S
N603 C606 1.313 . S
C604 C605 1.338 . S
C604 N607 1.377 . S
C604 H624 0.930 . S
C605 N603 1.375 . S
C605 C604 1.338 . S
C605 H609 0.931 . S
C606 N603 1.313 . S
C606 N607 1.344 . S
C606 H610 0.930 . S
N607 C604 1.377 . S
N607 C606 1.344 . S
O608 Co600 2.055 . S
O608 C612 1.253 . S
H609 C605 0.931 . S
H610 C606 0.930 . S
O611 Co600 2.039 . S
O611 C601 1.265 . S
C612 O608 1.253 . S
C612 O613 1.227 . S
O613 C612 1.227 . S
N614 Co600 2.140 . S
N614 C617 1.346 . S
N614 C618 1.345 . S
C615 C616 1.387 . S
C615 C619 1.391 . S
C616 C615 1.387 . S
C616 C617 1.369 . S
C616 H625 0.929 . S
C617 N614 1.346 . S
C617 C616 1.369 . S
C617 H620 0.928 . S
C618 N614 1.345 . S
C618 C619 1.371 . S
C618 H621 0.931 . S
C619 C615 1.391 . S
C619 C618 1.371 . S
C619 H626 0.930 . S
H620 C617 0.928 . S
H621 C618 0.931 . S
H622 C598 0.930 . S
H623 C595 0.930 . S
H624 C604 0.930 . S
H625 C616 0.929 . S
H626 C619 0.930 . S
C627 C628 1.351 . S
C627 N630 1.368 . S
C627 H632 0.931 . S
C628 C627 1.351 . S
C628 N629 1.373 . S
C628 H656 0.930 . S
N629 C628 1.373 . S
N629 C631 1.340 . S
N630 C627 1.368 . S
N630 C631 1.321 . S
N630 Co633 2.135 . S
C631 N629 1.340 . S
C631 N630 1.321 . S
C631 H655 0.930 . S
H632 C627 0.931 . S
Co633 N630 2.135 . S
Co633 N636 2.121 . S
Co633 O641 2.055 . S
Co633 O644 2.039 . S
Co633 N647 2.140 . S
C634 O635 1.227 . S
C634 O644 1.265 . S
O635 C634 1.227 . S
N636 Co633 2.121 . S
N636 C638 1.375 . S
N636 C639 1.313 . S
C637 C638 1.338 . S
C637 N640 1.377 . S
C637 H657 0.930 . S
C638 N636 1.375 . S
C638 C637 1.338 . S
C638 H642 0.931 . S
C639 N636 1.313 . S
C639 N640 1.344 . S
C639 H643 0.930 . S
N640 C637 1.377 . S
N640 C639 1.344 . S
O641 Co633 2.055 . S
O641 C645 1.253 . S
H642 C638 0.931 . S
H643 C639 0.930 . S
O644 Co633 2.039 . S
O644 C634 1.265 . S
C645 O641 1.253 . S
C645 O646 1.227 . S
O646 C645 1.227 . S
N647 Co633 2.140 . S
N647 C650 1.346 . S
N647 C651 1.345 . S
C648 C649 1.395 . S
C648 C652 1.428 . S
C649 C648 1.395 . S
C649 C650 1.369 . S
C649 H658 0.929 1_655 S
C650 N647 1.346 . S
C650 C649 1.369 . S
C650 H653 0.928 . S
C651 N647 1.345 . S
C651 C652 1.371 . S
C651 H654 0.931 . S
C652 C648 1.428 . S
C652 C651 1.371 . S
C652 H659 0.930 . S
H653 C650 0.928 . S
H654 C651 0.931 . S
H655 C631 0.930 . S
H656 C628 0.930 . S
H657 C637 0.930 . S
H658 C649 0.929 1_455 S
H659 C652 0.930 . S
C660 C661 1.351 . S
C660 N663 1.368 . S
C660 H665 0.931 . S
C661 C660 1.351 . S
C661 N662 1.373 . S
C661 H689 0.930 . S
N662 C661 1.373 . S
N662 C664 1.340 . S
N663 C660 1.368 . S
N663 C664 1.321 . S
N663 Co666 2.135 . S
C664 N662 1.340 . S
C664 N663 1.321 . S
C664 H688 0.930 . S
H665 C660 0.931 . S
Co666 N663 2.135 . S
Co666 N669 2.121 . S
Co666 O674 2.055 . S
Co666 O677 2.039 . S
Co666 N680 2.140 . S
C667 O668 1.227 . S
C667 O677 1.265 . S
O668 C667 1.227 . S
N669 Co666 2.121 . S
N669 C671 1.375 . S
N669 C672 1.313 . S
C670 C671 1.338 . S
C670 N673 1.377 . S
C670 H690 0.930 . S
C671 N669 1.375 . S
C671 C670 1.338 . S
C671 H675 0.931 . S
C672 N669 1.313 . S
C672 N673 1.344 . S
C672 H676 0.930 . S
N673 C670 1.377 . S
N673 C672 1.344 . S
O674 Co666 2.055 . S
O674 C678 1.253 . S
H675 C671 0.931 . S
H676 C672 0.930 . S
O677 Co666 2.039 . S
O677 C667 1.265 . S
C678 O674 1.253 . S
C678 O679 1.227 . S
O679 C678 1.227 . S
N680 Co666 2.140 . S
N680 C683 1.346 . S
N680 C684 1.345 . S
C681 C682 1.387 . S
C681 C685 1.391 . S
C682 C681 1.387 . S
C682 C683 1.369 . S
C682 H691 0.929 . S
C683 N680 1.346 . S
C683 C682 1.369 . S
C683 H686 0.928 . S
C684 N680 1.345 . S
C684 C685 1.371 . S
C684 H687 0.931 . S
C685 C681 1.391 . S
C685 C684 1.371 . S
C685 H692 0.930 . S
H686 C683 0.928 . S
H687 C684 0.931 . S
H688 C664 0.930 . S
H689 C661 0.930 . S
H690 C670 0.930 . S
H691 C682 0.929 . S
H692 C685 0.930 . S
C693 C694 1.351 . S
C693 N696 1.368 1_554 S
C693 H698 0.931 . S
C694 C693 1.351 . S
C694 N695 1.383 . S
C694 H722 0.930 . S
N695 C694 1.383 . S
N695 C697 1.331 1_554 S
N696 C693 1.368 1_556 S
N696 C697 1.321 . S
N696 Co699 2.135 . S
C697 N695 1.331 1_556 S
C697 N696 1.321 . S
C697 H721 0.930 . S
H698 C693 0.931 . S
Co699 N696 2.135 . S
Co699 N702 2.121 . S
Co699 O707 2.055 . S
Co699 O710 2.039 . S
Co699 N713 2.140 . S
C700 O701 1.227 . S
C700 O710 1.265 . S
O701 C700 1.227 . S
N702 Co699 2.121 . S
N702 C704 1.375 . S
N702 C705 1.313 . S
C703 C704 1.338 . S
C703 N706 1.377 . S
C703 H723 0.930 . S
C704 N702 1.375 . S
C704 C703 1.338 . S
C704 H708 0.931 . S
C705 N702 1.313 . S
C705 N706 1.344 . S
C705 H709 0.930 . S
N706 C703 1.377 . S
N706 C705 1.344 . S
O707 Co699 2.055 . S
O707 C711 1.253 1_556 S
H708 C704 0.931 . S
H709 C705 0.930 . S
O710 Co699 2.039 . S
O710 C700 1.265 . S
C711 O707 1.253 1_554 S
C711 O712 1.227 . S
O712 C711 1.227 . S
N713 Co699 2.140 . S
N713 C716 1.346 . S
N713 C717 1.345 . S
C714 C715 1.395 . S
C714 C718 1.428 . S
C715 C714 1.395 . S
C715 C716 1.369 . S
C715 H724 0.929 1_655 S
C716 N713 1.346 . S
C716 C715 1.369 . S
C716 H719 0.928 . S
C717 N713 1.345 . S
C717 C718 1.371 . S
C717 H720 0.931 . S
C718 C714 1.428 . S
C718 C717 1.371 . S
C718 H725 0.930 . S
H719 C716 0.928 . S
H720 C717 0.931 . S
H721 C697 0.930 . S
H722 C694 0.930 . S
H723 C703 0.930 . S
H724 C715 0.929 1_455 S
H725 C718 0.930 . S
C726 C727 1.351 . S
C726 N729 1.368 . S
C726 H731 0.931 . S
C727 C726 1.351 . S
C727 N728 1.373 . S
C727 H755 0.930 . S
N728 C727 1.373 . S
N728 C730 1.340 . S
N729 C726 1.368 . S
N729 C730 1.321 . S
N729 Co732 2.135 . S
C730 N728 1.340 . S
C730 N729 1.321 . S
C730 H754 0.930 . S
H731 C726 0.931 . S
Co732 N729 2.135 . S
Co732 N735 2.121 . S
Co732 O740 2.055 . S
Co732 O743 2.039 . S
Co732 N746 2.140 . S
C733 O734 1.227 . S
C733 O743 1.265 . S
O734 C733 1.227 . S
N735 Co732 2.121 . S
N735 C737 1.375 . S
N735 C738 1.313 . S
C736 C737 1.338 . S
C736 N739 1.377 . S
C736 H756 0.930 . S
C737 N735 1.375 . S
C737 C736 1.338 . S
C737 H741 0.931 . S
C738 N735 1.313 . S
C738 N739 1.344 . S
C738 H742 0.930 . S
N739 C736 1.377 . S
N739 C738 1.344 . S
O740 Co732 2.055 . S
O740 C744 1.253 . S
H741 C737 0.931 . S
H742 C738 0.930 . S
O743 Co732 2.039 . S
O743 C733 1.265 . S
C744 O740 1.253 . S
C744 O745 1.227 . S
O745 C744 1.227 . S
N746 Co732 2.140 . S
N746 C749 1.346 . S
N746 C750 1.345 . S
C747 C748 1.387 . S
C747 C751 1.391 . S
C748 C747 1.387 . S
C748 C749 1.369 . S
C748 H757 0.929 . S
C749 N746 1.346 . S
C749 C748 1.369 . S
C749 H752 0.928 . S
C750 N746 1.345 . S
C750 C751 1.371 . S
C750 H753 0.931 . S
C751 C747 1.391 . S
C751 C750 1.371 . S
C751 H758 0.930 . S
H752 C749 0.928 . S
H753 C750 0.931 . S
H754 C730 0.930 . S
H755 C727 0.930 . S
H756 C736 0.930 . S
H757 C748 0.929 . S
H758 C751 0.930 . S
C759 C760 1.351 . S
C759 N762 1.368 . S
C759 H764 0.931 . S
C760 C759 1.351 . S
C760 N761 1.373 . S
C760 H788 0.930 . S
N761 C760 1.373 . S
N761 C763 1.340 . S
N762 C759 1.368 . S
N762 C763 1.321 . S
N762 Co765 2.135 . S
C763 N761 1.340 . S
C763 N762 1.321 . S
C763 H787 0.930 . S
H764 C759 0.931 . S
Co765 N762 2.135 . S
Co765 N768 2.121 . S
Co765 O773 2.055 . S
Co765 O776 2.039 . S
Co765 N779 2.140 . S
C766 O767 1.227 . S
C766 O776 1.265 . S
O767 C766 1.227 . S
N768 Co765 2.121 . S
N768 C770 1.375 . S
N768 C771 1.313 . S
C769 C770 1.338 . S
C769 N772 1.377 . S
C769 H789 0.930 . S
C770 N768 1.375 . S
C770 C769 1.338 . S
C770 H774 0.931 . S
C771 N768 1.313 . S
C771 N772 1.344 . S
C771 H775 0.930 . S
N772 C769 1.377 . S
N772 C771 1.344 . S
O773 Co765 2.055 . S
O773 C777 1.253 . S
H774 C770 0.931 . S
H775 C771 0.930 . S
O776 Co765 2.039 . S
O776 C766 1.265 . S
C777 O773 1.253 . S
C777 O778 1.227 . S
O778 C777 1.227 . S
N779 Co765 2.140 . S
N779 C782 1.346 . S
N779 C783 1.345 . S
C780 C781 1.387 . S
C780 C784 1.391 . S
C781 C780 1.387 . S
C781 C782 1.369 . S
C781 H790 0.929 . S
C782 N779 1.346 . S
C782 C781 1.369 . S
C782 H785 0.928 . S
C783 N779 1.345 . S
C783 C784 1.371 . S
C783 H786 0.931 . S
C784 C780 1.391 . S
C784 C783 1.371 . S
C784 H791 0.930 . S
H785 C782 0.928 . S
H786 C783 0.931 . S
H787 C763 0.930 . S
H788 C760 0.930 . S
H789 C769 0.930 . S
H790 C781 0.929 . S
H791 C784 0.930 . S
C792 C793 1.351 . S
C792 N795 1.368 . S
C792 H797 0.931 . S
C793 C792 1.351 . S
C793 N794 1.373 . S
C793 H821 0.930 . S
N794 C793 1.373 . S
N794 C796 1.340 . S
N795 C792 1.368 . S
N795 C796 1.321 . S
N795 Co798 2.135 . S
C796 N794 1.340 . S
C796 N795 1.321 . S
C796 H820 0.930 . S
H797 C792 0.931 . S
Co798 N795 2.135 . S
Co798 N801 2.121 . S
Co798 O806 2.055 . S
Co798 O809 2.039 . S
Co798 N812 2.140 . S
C799 O800 1.227 . S
C799 O809 1.265 . S
O800 C799 1.227 . S
N801 Co798 2.121 . S
N801 C803 1.375 . S
N801 C804 1.313 . S
C802 C803 1.338 . S
C802 N805 1.377 . S
C802 H822 0.930 . S
C803 N801 1.375 . S
C803 C802 1.338 . S
C803 H807 0.931 . S
C804 N801 1.313 . S
C804 N805 1.344 . S
C804 H808 0.930 . S
N805 C802 1.377 . S
N805 C804 1.344 . S
O806 Co798 2.055 . S
O806 C810 1.253 . S
H807 C803 0.931 . S
H808 C804 0.930 . S
O809 Co798 2.039 . S
O809 C799 1.265 . S
C810 O806 1.253 . S
C810 O811 1.227 . S
O811 C810 1.227 . S
N812 Co798 2.140 . S
N812 C815 1.346 . S
N812 C816 1.345 . S
C813 C814 1.387 . S
C813 C817 1.391 . S
C814 C813 1.387 . S
C814 C815 1.369 . S
C814 H823 0.929 . S
C815 N812 1.346 . S
C815 C814 1.369 . S
C815 H818 0.928 . S
C816 N812 1.345 . S
C816 C817 1.371 . S
C816 H819 0.931 . S
C817 C813 1.391 . S
C817 C816 1.371 . S
C817 H824 0.930 . S
H818 C815 0.928 . S
H819 C816 0.931 . S
H820 C796 0.930 . S
H821 C793 0.930 . S
H822 C802 0.930 . S
H823 C814 0.929 . S
H824 C817 0.930 . S
C825 C826 1.351 . S
C825 N828 1.368 1_554 S
C825 H830 0.931 . S
C826 C825 1.351 . S
C826 N827 1.383 . S
C826 H854 0.930 . S
N827 C826 1.383 . S
N827 C829 1.331 1_554 S
N828 C825 1.368 1_556 S
N828 C829 1.321 . S
N828 Co831 2.135 . S
C829 N827 1.331 1_556 S
C829 N828 1.321 . S
C829 H853 0.930 . S
H830 C825 0.931 . S
Co831 N828 2.135 . S
Co831 N834 2.121 . S
Co831 O839 2.055 . S
Co831 O842 2.039 . S
Co831 N845 2.140 . S
C832 O833 1.227 . S
C832 O842 1.265 . S
O833 C832 1.227 . S
N834 Co831 2.121 . S
N834 C836 1.375 . S
N834 C837 1.313 . S
C835 C836 1.338 . S
C835 N838 1.377 . S
C835 H855 0.930 . S
C836 N834 1.375 . S
C836 C835 1.338 . S
C836 H840 0.931 . S
C837 N834 1.313 . S
C837 N838 1.344 . S
C837 H841 0.930 . S
N838 C835 1.377 . S
N838 C837 1.344 . S
O839 Co831 2.055 . S
O839 C843 1.253 1_556 S
H840 C836 0.931 . S
H841 C837 0.930 . S
O842 Co831 2.039 . S
O842 C832 1.265 . S
C843 O839 1.253 1_554 S
C843 O844 1.227 . S
O844 C843 1.227 . S
N845 Co831 2.140 . S
N845 C848 1.346 . S
N845 C849 1.345 . S
C846 C847 1.387 . S
C846 C850 1.391 . S
C847 C846 1.387 . S
C847 C848 1.369 . S
C847 H856 0.929 . S
C848 N845 1.346 . S
C848 C847 1.369 . S
C848 H851 0.928 . S
C849 N845 1.345 . S
C849 C850 1.371 . S
C849 H852 0.931 . S
C850 C846 1.391 . S
C850 C849 1.371 . S
C850 H857 0.930 . S
H851 C848 0.928 . S
H852 C849 0.931 . S
H853 C829 0.930 . S
H854 C826 0.930 . S
H855 C835 0.930 . S
H856 C847 0.929 . S
H857 C850 0.930 . S
C858 C859 1.351 . S
C858 N861 1.368 . S
C858 H863 0.931 . S
C859 C858 1.351 . S
C859 N860 1.373 . S
C859 H887 0.930 . S
N860 C859 1.373 . S
N860 C862 1.340 . S
N861 C858 1.368 . S
N861 C862 1.321 . S
N861 Co864 2.135 . S
C862 N860 1.340 . S
C862 N861 1.321 . S
C862 H886 0.930 . S
H863 C858 0.931 . S
Co864 N861 2.135 . S
Co864 N867 2.121 . S
Co864 O872 2.055 . S
Co864 O875 2.039 . S
Co864 N878 2.140 . S
C865 O866 1.227 . S
C865 O875 1.265 . S
O866 C865 1.227 . S
N867 Co864 2.121 . S
N867 C869 1.375 . S
N867 C870 1.313 . S
C868 C869 1.338 . S
C868 N871 1.377 . S
C868 H888 0.930 . S
C869 N867 1.375 . S
C869 C868 1.338 . S
C869 H873 0.931 . S
C870 N867 1.313 . S
C870 N871 1.344 . S
C870 H874 0.930 . S
N871 C868 1.377 . S
N871 C870 1.344 . S
O872 Co864 2.055 . S
O872 C876 1.253 . S
H873 C869 0.931 . S
H874 C870 0.930 . S
O875 Co864 2.039 . S
O875 C865 1.265 . S
C876 O872 1.253 . S
C876 O877 1.227 . S
O877 C876 1.227 . S
N878 Co864 2.140 . S
N878 C881 1.346 . S
N878 C882 1.345 . S
C879 C880 1.387 . S
C879 C883 1.391 . S
C880 C879 1.387 . S
C880 C881 1.369 . S
C880 H889 0.929 . S
C881 N878 1.346 . S
C881 C880 1.369 . S
C881 H884 0.928 . S
C882 N878 1.345 . S
C882 C883 1.371 . S
C882 H885 0.931 . S
C883 C879 1.391 . S
C883 C882 1.371 . S
C883 H890 0.930 . S
H884 C881 0.928 . S
H885 C882 0.931 . S
H886 C862 0.930 . S
H887 C859 0.930 . S
H888 C868 0.930 . S
H889 C880 0.929 . S
H890 C883 0.930 . S
C891 C892 1.351 . S
C891 N894 1.368 . S
C891 H896 0.931 . S
C892 C891 1.351 . S
C892 N893 1.373 . S
C892 H920 0.930 . S
N893 C892 1.373 . S
N893 C895 1.340 . S
N894 C891 1.368 . S
N894 C895 1.321 . S
N894 Co897 2.135 . S
C895 N893 1.340 . S
C895 N894 1.321 . S
C895 H919 0.930 . S
H896 C891 0.931 . S
Co897 N894 2.135 . S
Co897 N900 2.121 . S
Co897 O905 2.055 . S
Co897 O908 2.039 . S
Co897 N911 2.140 . S
C898 O899 1.227 . S
C898 O908 1.265 . S
O899 C898 1.227 . S
N900 Co897 2.121 . S
N900 C902 1.375 . S
N900 C903 1.313 . S
C901 C902 1.338 . S
C901 N904 1.377 . S
C901 H921 0.930 . S
C902 N900 1.375 . S
C902 C901 1.338 . S
C902 H906 0.931 . S
C903 N900 1.313 . S
C903 N904 1.344 . S
C903 H907 0.930 . S
N904 C901 1.377 . S
N904 C903 1.344 . S
O905 Co897 2.055 . S
O905 C909 1.253 . S
H906 C902 0.931 . S
H907 C903 0.930 . S
O908 Co897 2.039 . S
O908 C898 1.265 . S
C909 O905 1.253 . S
C909 O910 1.227 . S
O910 C909 1.227 . S
N911 Co897 2.140 . S
N911 C914 1.346 . S
N911 C915 1.345 . S
C912 C913 1.395 . S
C912 C916 1.428 . S
C913 C912 1.395 . S
C913 C914 1.369 . S
C913 H922 0.929 1_455 S
C914 N911 1.346 . S
C914 C913 1.369 . S
C914 H917 0.928 . S
C915 N911 1.345 . S
C915 C916 1.371 . S
C915 H918 0.931 . S
C916 C912 1.428 . S
C916 C915 1.371 . S
C916 H923 0.930 . S
H917 C914 0.928 . S
H918 C915 0.931 . S
H919 C895 0.930 . S
H920 C892 0.930 . S
H921 C901 0.930 . S
H922 C913 0.929 1_655 S
H923 C916 0.930 . S
C924 C925 1.351 . S
C924 N927 1.368 . S
C924 H929 0.931 . S
C925 C924 1.351 . S
C925 N926 1.373 . S
C925 H953 0.930 . S
N926 C925 1.373 . S
N926 C928 1.340 . S
N927 C924 1.368 . S
N927 C928 1.321 . S
N927 Co930 2.135 . S
C928 N926 1.340 . S
C928 N927 1.321 . S
C928 H952 0.930 . S
H929 C924 0.931 . S
Co930 N927 2.135 . S
Co930 N933 2.121 . S
Co930 O938 2.055 . S
Co930 O941 2.039 . S
Co930 N944 2.140 . S
C931 O932 1.227 . S
C931 O941 1.265 . S
O932 C931 1.227 . S
N933 Co930 2.121 . S
N933 C935 1.375 . S
N933 C936 1.313 . S
C934 C935 1.338 . S
C934 N937 1.377 . S
C934 H954 0.930 . S
C935 N933 1.375 . S
C935 C934 1.338 . S
C935 H939 0.931 . S
C936 N933 1.313 . S
C936 N937 1.344 . S
C936 H940 0.930 . S
N937 C934 1.377 . S
N937 C936 1.344 . S
O938 Co930 2.055 . S
O938 C942 1.253 . S
H939 C935 0.931 . S
H940 C936 0.930 . S
O941 Co930 2.039 . S
O941 C931 1.265 . S
C942 O938 1.253 . S
C942 O943 1.227 . S
O943 C942 1.227 . S
N944 Co930 2.140 . S
N944 C947 1.346 . S
N944 C948 1.345 . S
C945 C946 1.387 . S
C945 C949 1.391 . S
C946 C945 1.387 . S
C946 C947 1.369 . S
C946 H955 0.929 . S
C947 N944 1.346 . S
C947 C946 1.369 . S
C947 H950 0.928 . S
C948 N944 1.345 . S
C948 C949 1.371 . S
C948 H951 0.931 . S
C949 C945 1.391 . S
C949 C948 1.371 . S
C949 H956 0.930 . S
H950 C947 0.928 . S
H951 C948 0.931 . S
H952 C928 0.930 . S
H953 C925 0.930 . S
H954 C934 0.930 . S
H955 C946 0.929 . S
H956 C949 0.930 . S
C957 C958 1.351 . S
C957 N960 1.368 1_556 S
C957 H962 0.931 . S
C958 C957 1.351 . S
C958 N959 1.383 . S
C958 H986 0.930 . S
N959 C958 1.383 . S
N959 C961 1.331 1_556 S
N960 C957 1.368 1_554 S
N960 C961 1.321 . S
N960 Co963 2.135 . S
C961 N959 1.331 1_554 S
C961 N960 1.321 . S
C961 H985 0.930 . S
H962 C957 0.931 . S
Co963 N960 2.135 . S
Co963 N966 2.121 . S
Co963 O971 2.055 . S
Co963 O974 2.039 . S
Co963 N977 2.140 . S
C964 O965 1.227 . S
C964 O974 1.265 . S
O965 C964 1.227 . S
N966 Co963 2.121 . S
N966 C968 1.375 . S
N966 C969 1.313 . S
C967 C968 1.338 . S
C967 N970 1.377 . S
C967 H987 0.930 . S
C968 N966 1.375 . S
C968 C967 1.338 . S
C968 H972 0.931 . S
C969 N966 1.313 . S
C969 N970 1.344 . S
C969 H973 0.930 . S
N970 C967 1.377 . S
N970 C969 1.344 . S
O971 Co963 2.055 . S
O971 C975 1.253 1_554 S
H972 C968 0.931 . S
H973 C969 0.930 . S
O974 Co963 2.039 . S
O974 C964 1.265 . S
C975 O971 1.253 1_556 S
C975 O976 1.227 . S
O976 C975 1.227 . S
N977 Co963 2.140 . S
N977 C980 1.346 . S
N977 C981 1.345 . S
C978 C979 1.395 . S
C978 C982 1.428 . S
C979 C978 1.395 . S
C979 C980 1.369 . S
C979 H988 0.929 1_455 S
C980 N977 1.346 . S
C980 C979 1.369 . S
C980 H983 0.928 . S
C981 N977 1.345 . S
C981 C982 1.371 . S
C981 H984 0.931 . S
C982 C978 1.428 . S
C982 C981 1.371 . S
C982 H989 0.930 . S
H983 C980 0.928 . S
H984 C981 0.931 . S
H985 C961 0.930 . S
H986 C958 0.930 . S
H987 C967 0.930 . S
H988 C979 0.929 1_655 S
H989 C982 0.930 . S
C990 C991 1.351 . S
C990 N993 1.368 . S
C990 H995 0.931 . S
C991 C990 1.351 . S
C991 N992 1.373 . S
C991 H1019 0.930 . S
N992 C991 1.373 . S
N992 C994 1.340 . S
N993 C990 1.368 . S
N993 C994 1.321 . S
N993 Co996 2.135 . S
C994 N992 1.340 . S
C994 N993 1.321 . S
C994 H1018 0.930 . S
H995 C990 0.931 . S
Co996 N993 2.135 . S
Co996 N999 2.121 . S
Co996 O1004 2.055 . S
Co996 O1007 2.039 . S
Co996 N1010 2.140 . S
C997 O998 1.227 . S
C997 O1007 1.265 . S
O998 C997 1.227 . S
N999 Co996 2.121 . S
N999 C1001 1.375 . S
N999 C1002 1.313 . S
C1000 C1001 1.338 . S
C1000 N1003 1.377 . S
C1000 H1020 0.930 . S
C1001 N999 1.375 . S
C1001 C1000 1.338 . S
C1001 H1005 0.931 . S
C1002 N999 1.313 . S
C1002 N1003 1.344 . S
C1002 H1006 0.930 . S
N1003 C1000 1.377 . S
N1003 C1002 1.344 . S
O1004 Co996 2.055 . S
O1004 C1008 1.253 . S
H1005 C1001 0.931 . S
H1006 C1002 0.930 . S
O1007 Co996 2.039 . S
O1007 C997 1.265 . S
C1008 O1004 1.253 . S
C1008 O1009 1.227 . S
O1009 C1008 1.227 . S
N1010 Co996 2.140 . S
N1010 C1013 1.346 . S
N1010 C1014 1.345 . S
C1011 C1012 1.387 . S
C1011 C1015 1.391 . S
C1012 C1011 1.387 . S
C1012 C1013 1.369 . S
C1012 H1021 0.929 . S
C1013 N1010 1.346 . S
C1013 C1012 1.369 . S
C1013 H1016 0.928 . S
C1014 N1010 1.345 . S
C1014 C1015 1.371 . S
C1014 H1017 0.931 . S
C1015 C1011 1.391 . S
C1015 C1014 1.371 . S
C1015 H1022 0.930 . S
H1016 C1013 0.928 . S
H1017 C1014 0.931 . S
H1018 C994 0.930 . S
H1019 C991 0.930 . S
H1020 C1000 0.930 . S
H1021 C1012 0.929 . S
H1022 C1015 0.930 . S
C1023 C1024 1.351 . S
C1023 N1026 1.368 . S
C1023 H1028 0.931 . S
C1024 C1023 1.351 . S
C1024 N1025 1.373 . S
C1024 H1052 0.930 . S
N1025 C1024 1.373 . S
N1025 C1027 1.340 . S
N1026 C1023 1.368 . S
N1026 C1027 1.321 . S
N1026 Co1029 2.135 . S
C1027 N1025 1.340 . S
C1027 N1026 1.321 . S
C1027 H1051 0.930 . S
H1028 C1023 0.931 . S
Co1029 N1026 2.135 . S
Co1029 N1032 2.121 . S
Co1029 O1037 2.055 . S
Co1029 O1040 2.039 . S
Co1029 N1043 2.140 . S
C1030 O1031 1.227 . S
C1030 O1040 1.265 . S
O1031 C1030 1.227 . S
N1032 Co1029 2.121 . S
N1032 C1034 1.375 . S
N1032 C1035 1.313 . S
C1033 C1034 1.338 . S
C1033 N1036 1.377 . S
C1033 H1053 0.930 . S
C1034 N1032 1.375 . S
C1034 C1033 1.338 . S
C1034 H1038 0.931 . S
C1035 N1032 1.313 . S
C1035 N1036 1.344 . S
C1035 H1039 0.930 . S
N1036 C1033 1.377 . S
N1036 C1035 1.344 . S
O1037 Co1029 2.055 . S
O1037 C1041 1.253 . S
H1038 C1034 0.931 . S
H1039 C1035 0.930 . S
O1040 Co1029 2.039 . S
O1040 C1030 1.265 . S
C1041 O1037 1.253 . S
C1041 O1042 1.227 . S
O1042 C1041 1.227 . S
N1043 Co1029 2.140 . S
N1043 C1046 1.346 . S
N1043 C1047 1.345 . S
C1044 C1045 1.387 . S
C1044 C1048 1.391 . S
C1045 C1044 1.387 . S
C1045 C1046 1.369 . S
C1045 H1054 0.929 . S
C1046 N1043 1.346 . S
C1046 C1045 1.369 . S
C1046 H1049 0.928 . S
C1047 N1043 1.345 . S
C1047 C1048 1.371 . S
C1047 H1050 0.931 . S
C1048 C1044 1.391 . S
C1048 C1047 1.371 . S
C1048 H1055 0.930 . S
H1049 C1046 0.928 . S
H1050 C1047 0.931 . S
H1051 C1027 0.930 . S
H1052 C1024 0.930 . S
H1053 C1033 0.930 . S
H1054 C1045 0.929 . S
H1055 C1048 0.930 . S
C1056 C1057 1.363 . S
C1056 C1062 1.379 . S
C1056 N1064 1.356 . S
C1057 C1056 1.363 . S
C1057 C1063 1.363 . S
C1058 C1059 1.363 . S
C1058 C1063 1.379 . S
C1058 N1065 1.356 . S
C1059 C1058 1.363 . S
C1059 C1062 1.363 . S
N1060 C1062 1.356 . S
N1060 H1072 0.984 . S
N1060 H1073 0.985 . S
N1061 C1063 1.356 . S
N1061 H1066 0.984 1_554 S
N1061 H1067 0.985 . S
C1062 C1056 1.379 . S
C1062 C1059 1.363 . S
C1062 N1060 1.356 . S
C1063 C1057 1.363 . S
C1063 C1058 1.379 . S
C1063 N1061 1.356 . S
N1064 C1056 1.356 . S
N1064 H1070 0.984 . S
N1064 H1071 0.984 . S
N1065 C1058 1.356 . S
N1065 H1068 0.984 . S
N1065 H1069 0.985 . S
H1066 N1061 0.984 1_556 S
H1067 N1061 0.985 . S
H1068 N1065 0.984 . S
H1069 N1065 0.985 . S
H1070 N1064 0.984 . S
H1071 N1064 0.984 . S
H1072 N1060 0.984 . S
H1073 N1060 0.985 . S
C1074 C1075 1.363 . S
C1074 C1080 1.379 . S
C1074 N1082 1.356 . S
C1075 C1074 1.363 . S
C1075 C1081 1.363 . S
C1076 C1077 1.363 . S
C1076 C1081 1.379 . S
C1076 N1083 1.356 . S
C1077 C1076 1.363 . S
C1077 C1080 1.363 . S
N1078 C1080 1.356 . S
N1078 H1090 0.984 . S
N1078 H1091 0.985 . S
N1079 C1081 1.356 . S
N1079 H1084 0.984 . S
N1079 H1085 0.985 . S
C1080 C1074 1.379 . S
C1080 C1077 1.363 . S
C1080 N1078 1.356 . S
C1081 C1075 1.363 . S
C1081 C1076 1.379 . S
C1081 N1079 1.356 . S
N1082 C1074 1.356 . S
N1082 H1088 0.984 . S
N1082 H1089 0.984 . S
N1083 C1076 1.356 . S
N1083 H1086 0.984 . S
N1083 H1087 0.985 . S
H1084 N1079 0.984 . S
H1085 N1079 0.985 . S
H1086 N1083 0.984 . S
H1087 N1083 0.985 . S
H1088 N1082 0.984 . S
H1089 N1082 0.984 . S
H1090 N1078 0.984 . S
H1091 N1078 0.985 . S
C1092 C1093 1.363 . S
C1092 C1098 1.379 . S
C1092 N1100 1.356 . S
C1093 C1092 1.363 . S
C1093 C1099 1.363 . S
C1094 C1095 1.363 . S
C1094 C1099 1.379 . S
C1094 N1101 1.356 . S
C1095 C1094 1.363 . S
C1095 C1098 1.363 . S
N1096 C1098 1.356 . S
N1096 H1108 0.984 . S
N1096 H1109 0.985 . S
N1097 C1099 1.356 . S
N1097 H1102 0.984 . S
N1097 H1103 0.985 . S
C1098 C1092 1.379 . S
C1098 C1095 1.363 . S
C1098 N1096 1.356 . S
C1099 C1093 1.363 . S
C1099 C1094 1.379 . S
C1099 N1097 1.356 . S
N1100 C1092 1.356 . S
N1100 H1106 0.984 . S
N1100 H1107 0.984 . S
N1101 C1094 1.356 . S
N1101 H1104 0.984 . S
N1101 H1105 0.985 . S
H1102 N1097 0.984 . S
H1103 N1097 0.985 . S
H1104 N1101 0.984 . S
H1105 N1101 0.985 . S
H1106 N1100 0.984 . S
H1107 N1100 0.984 . S
H1108 N1096 0.984 . S
H1109 N1096 0.985 . S
C1110 C1111 1.363 . S
C1110 C1116 1.379 . S
C1110 N1118 1.356 . S
C1111 C1110 1.363 . S
C1111 C1117 1.363 . S
C1112 C1113 1.363 . S
C1112 C1117 1.379 . S
C1112 N1119 1.356 . S
C1113 C1112 1.363 . S
C1113 C1116 1.363 . S
N1114 C1116 1.356 . S
N1114 H1126 0.984 . S
N1114 H1127 0.985 . S
N1115 C1117 1.356 . S
N1115 H1120 0.984 . S
N1115 H1121 0.985 . S
C1116 C1110 1.379 . S
C1116 C1113 1.363 . S
C1116 N1114 1.356 . S
C1117 C1111 1.363 . S
C1117 C1112 1.379 . S
C1117 N1115 1.356 . S
N1118 C1110 1.356 . S
N1118 H1124 0.984 . S
N1118 H1125 0.984 . S
N1119 C1112 1.356 . S
N1119 H1122 0.984 . S
N1119 H1123 0.985 . S
H1120 N1115 0.984 . S
H1121 N1115 0.985 . S
H1122 N1119 0.984 . S
H1123 N1119 0.985 . S
H1124 N1118 0.984 . S
H1125 N1118 0.984 . S
H1126 N1114 0.984 . S
H1127 N1114 0.985 . S
C1128 C1129 1.363 . S
C1128 C1134 1.379 . S
C1128 N1136 1.356 . S
C1129 C1128 1.363 . S
C1129 C1135 1.363 . S
C1130 C1131 1.363 . S
C1130 C1135 1.379 . S
C1130 N1137 1.356 . S
C1131 C1130 1.363 . S
C1131 C1134 1.363 . S
N1132 C1134 1.356 . S
N1132 H1144 0.984 . S
N1132 H1145 0.985 . S
N1133 C1135 1.356 . S
N1133 H1138 0.984 . S
N1133 H1139 0.985 . S
C1134 C1128 1.379 . S
C1134 C1131 1.363 . S
C1134 N1132 1.356 . S
C1135 C1129 1.363 . S
C1135 C1130 1.379 . S
C1135 N1133 1.356 . S
N1136 C1128 1.356 . S
N1136 H1142 0.984 . S
N1136 H1143 0.984 . S
N1137 C1130 1.356 . S
N1137 H1140 0.984 . S
N1137 H1141 0.985 . S
H1138 N1133 0.984 . S
H1139 N1133 0.985 . S
H1140 N1137 0.984 . S
H1141 N1137 0.985 . S
H1142 N1136 0.984 . S
H1143 N1136 0.984 . S
H1144 N1132 0.984 . S
H1145 N1132 0.985 . S
C1146 C1147 1.363 . S
C1146 C1152 1.379 . S
C1146 N1154 1.356 . S
C1147 C1146 1.363 . S
C1147 C1153 1.363 . S
C1148 C1149 1.363 . S
C1148 C1153 1.379 . S
C1148 N1155 1.356 . S
C1149 C1148 1.363 . S
C1149 C1152 1.363 . S
N1150 C1152 1.356 . S
N1150 H1162 0.984 . S
N1150 H1163 0.985 . S
N1151 C1153 1.356 . S
N1151 H1156 0.984 . S
N1151 H1157 0.985 . S
C1152 C1146 1.379 . S
C1152 C1149 1.363 . S
C1152 N1150 1.356 . S
C1153 C1147 1.363 . S
C1153 C1148 1.379 . S
C1153 N1151 1.356 . S
N1154 C1146 1.356 . S
N1154 H1160 0.984 . S
N1154 H1161 0.984 . S
N1155 C1148 1.356 . S
N1155 H1158 0.984 . S
N1155 H1159 0.985 . S
H1156 N1151 0.984 . S
H1157 N1151 0.985 . S
H1158 N1155 0.984 . S
H1159 N1155 0.985 . S
H1160 N1154 0.984 . S
H1161 N1154 0.984 . S
H1162 N1150 0.984 . S
H1163 N1150 0.985 . S
C1164 C1165 1.363 . S
C1164 C1170 1.379 . S
C1164 N1172 1.356 . S
C1165 C1164 1.363 . S
C1165 C1171 1.363 . S
C1166 C1167 1.363 . S
C1166 C1171 1.379 . S
C1166 N1173 1.356 . S
C1167 C1166 1.363 . S
C1167 C1170 1.363 . S
N1168 C1170 1.356 . S
N1168 H1180 0.984 . S
N1168 H1181 0.985 . S
N1169 C1171 1.356 . S
N1169 H1174 0.984 . S
N1169 H1175 0.985 . S
C1170 C1164 1.379 . S
C1170 C1167 1.363 . S
C1170 N1168 1.356 . S
C1171 C1165 1.363 . S
C1171 C1166 1.379 . S
C1171 N1169 1.356 . S
N1172 C1164 1.356 . S
N1172 H1178 0.984 . S
N1172 H1179 0.984 . S
N1173 C1166 1.356 . S
N1173 H1176 0.984 . S
N1173 H1177 0.985 . S
H1174 N1169 0.984 . S
H1175 N1169 0.985 . S
H1176 N1173 0.984 . S
H1177 N1173 0.985 . S
H1178 N1172 0.984 . S
H1179 N1172 0.984 . S
H1180 N1168 0.984 . S
H1181 N1168 0.985 . S
C1182 C1183 1.363 . S
C1182 C1188 1.379 . S
C1182 N1190 1.356 . S
C1183 C1182 1.363 . S
C1183 C1189 1.363 . S
C1184 C1185 1.363 . S
C1184 C1189 1.379 . S
C1184 N1191 1.356 . S
C1185 C1184 1.363 . S
C1185 C1188 1.363 . S
N1186 C1188 1.356 . S
N1186 H1198 0.984 . S
N1186 H1199 0.985 . S
N1187 C1189 1.356 . S
N1187 H1192 0.984 . S
N1187 H1193 0.985 . S
C1188 C1182 1.379 . S
C1188 C1185 1.363 . S
C1188 N1186 1.356 . S
C1189 C1183 1.363 . S
C1189 C1184 1.379 . S
C1189 N1187 1.356 . S
N1190 C1182 1.356 . S
N1190 H1196 0.984 . S
N1190 H1197 0.984 . S
N1191 C1184 1.356 . S
N1191 H1194 0.984 1_554 S
N1191 H1195 0.983 1_554 S
H1192 N1187 0.984 . S
H1193 N1187 0.985 . S
H1194 N1191 0.984 1_556 S
H1195 N1191 0.983 1_556 S
H1196 N1190 0.984 . S
H1197 N1190 0.984 . S
H1198 N1186 0.984 . S
H1199 N1186 0.985 . S
C1200 C1201 1.363 . S
C1200 C1206 1.379 . S
C1200 N1208 1.356 . S
C1201 C1200 1.363 . S
C1201 C1207 1.363 . S
C1202 C1203 1.363 . S
C1202 C1207 1.379 . S
C1202 N1209 1.356 . S
C1203 C1202 1.363 . S
C1203 C1206 1.363 . S
N1204 C1206 1.356 . S
N1204 H1216 0.984 . S
N1204 H1217 0.985 . S
N1205 C1207 1.356 . S
N1205 H1210 0.984 . S
N1205 H1211 0.985 . S
C1206 C1200 1.379 . S
C1206 C1203 1.363 . S
C1206 N1204 1.356 . S
C1207 C1201 1.363 . S
C1207 C1202 1.379 . S
C1207 N1205 1.356 . S
N1208 C1200 1.356 . S
N1208 H1214 0.984 . S
N1208 H1215 0.984 . S
N1209 C1202 1.356 . S
N1209 H1212 0.984 . S
N1209 H1213 0.985 . S
H1210 N1205 0.984 . S
H1211 N1205 0.985 . S
H1212 N1209 0.984 . S
H1213 N1209 0.985 . S
H1214 N1208 0.984 . S
H1215 N1208 0.984 . S
H1216 N1204 0.984 . S
H1217 N1204 0.985 . S
C1218 C1219 1.363 . S
C1218 C1224 1.379 . S
C1218 N1226 1.356 . S
C1219 C1218 1.363 . S
C1219 C1225 1.363 . S
C1220 C1221 1.363 . S
C1220 C1225 1.379 . S
C1220 N1227 1.356 . S
C1221 C1220 1.363 . S
C1221 C1224 1.363 . S
N1222 C1224 1.356 . S
N1222 H1234 0.984 . S
N1222 H1235 0.985 . S
N1223 C1225 1.356 . S
N1223 H1228 0.984 . S
N1223 H1229 0.985 . S
C1224 C1218 1.379 . S
C1224 C1221 1.363 . S
C1224 N1222 1.356 . S
C1225 C1219 1.363 . S
C1225 C1220 1.379 . S
C1225 N1223 1.356 . S
N1226 C1218 1.356 . S
N1226 H1232 0.984 . S
N1226 H1233 0.984 . S
N1227 C1220 1.356 . S
N1227 H1230 0.984 . S
N1227 H1231 0.985 . S
H1228 N1223 0.984 . S
H1229 N1223 0.985 . S
H1230 N1227 0.984 . S
H1231 N1227 0.985 . S
H1232 N1226 0.984 . S
H1233 N1226 0.984 . S
H1234 N1222 0.984 . S
H1235 N1222 0.985 . S
C1236 C1237 1.363 . S
C1236 C1242 1.379 . S
C1236 N1244 1.356 . S
C1237 C1236 1.363 . S
C1237 C1243 1.363 . S
C1238 C1239 1.363 . S
C1238 C1243 1.379 . S
C1238 N1245 1.356 . S
C1239 C1238 1.363 . S
C1239 C1242 1.363 . S
N1240 C1242 1.356 . S
N1240 H1252 0.984 . S
N1240 H1253 0.985 . S
N1241 C1243 1.356 . S
N1241 H1246 0.984 . S
N1241 H1247 0.985 . S
C1242 C1236 1.379 . S
C1242 C1239 1.363 . S
C1242 N1240 1.356 . S
C1243 C1237 1.363 . S
C1243 C1238 1.379 . S
C1243 N1241 1.356 . S
N1244 C1236 1.356 . S
N1244 H1250 0.976 1_554 S
N1244 H1251 0.984 1_554 S
N1245 C1238 1.356 . S
N1245 H1248 0.984 . S
N1245 H1249 0.985 . S
H1246 N1241 0.984 . S
H1247 N1241 0.985 . S
H1248 N1245 0.984 . S
H1249 N1245 0.985 . S
H1250 N1244 0.976 1_556 S
H1251 N1244 0.984 1_556 S
H1252 N1240 0.984 . S
H1253 N1240 0.985 . S
C1254 C1255 1.363 . S
C1254 C1260 1.379 . S
C1254 N1262 1.356 . S
C1255 C1254 1.363 . S
C1255 C1261 1.363 . S
C1256 C1257 1.363 . S
C1256 C1261 1.379 . S
C1256 N1263 1.356 . S
C1257 C1256 1.363 . S
C1257 C1260 1.363 . S
N1258 C1260 1.356 . S
N1258 H1270 0.984 . S
N1258 H1271 0.985 . S
N1259 C1261 1.356 . S
N1259 H1264 0.984 . S
N1259 H1265 0.985 . S
C1260 C1254 1.379 . S
C1260 C1257 1.363 . S
C1260 N1258 1.356 . S
C1261 C1255 1.363 . S
C1261 C1256 1.379 . S
C1261 N1259 1.356 . S
N1262 C1254 1.356 . S
N1262 H1268 0.984 . S
N1262 H1269 0.984 . S
N1263 C1256 1.356 . S
N1263 H1266 0.984 . S
N1263 H1267 0.985 . S
H1264 N1259 0.984 . S
H1265 N1259 0.985 . S
H1266 N1263 0.984 . S
H1267 N1263 0.985 . S
H1268 N1262 0.984 . S
H1269 N1262 0.984 . S
H1270 N1258 0.984 . S
H1271 N1258 0.985 . S
C1272 C1273 1.363 . S
C1272 C1278 1.379 . S
C1272 N1280 1.356 . S
C1273 C1272 1.363 . S
C1273 C1279 1.363 . S
C1274 C1275 1.363 . S
C1274 C1279 1.379 . S
C1274 N1281 1.356 . S
C1275 C1274 1.363 . S
C1275 C1278 1.363 . S
N1276 C1278 1.356 . S
N1276 H1288 0.984 . S
N1276 H1289 0.985 . S
N1277 C1279 1.356 . S
N1277 H1282 0.984 . S
N1277 H1283 0.985 . S
C1278 C1272 1.379 . S
C1278 C1275 1.363 . S
C1278 N1276 1.356 . S
C1279 C1273 1.363 . S
C1279 C1274 1.379 . S
C1279 N1277 1.356 . S
N1280 C1272 1.356 . S
N1280 H1286 0.984 . S
N1280 H1287 0.984 . S
N1281 C1274 1.356 . S
N1281 H1284 0.984 . S
N1281 H1285 0.985 . S
H1282 N1277 0.984 . S
H1283 N1277 0.985 . S
H1284 N1281 0.984 . S
H1285 N1281 0.985 . S
H1286 N1280 0.984 . S
H1287 N1280 0.984 . S
H1288 N1276 0.984 . S
H1289 N1276 0.985 . S
C1290 C1291 1.363 . S
C1290 C1296 1.379 . S
C1290 N1298 1.356 . S
C1291 C1290 1.363 . S
C1291 C1297 1.363 . S
C1292 C1293 1.363 . S
C1292 C1297 1.379 . S
C1292 N1299 1.356 . S
C1293 C1292 1.363 . S
C1293 C1296 1.363 . S
N1294 C1296 1.356 . S
N1294 H1306 0.984 . S
N1294 H1307 0.985 . S
N1295 C1297 1.356 . S
N1295 H1300 0.984 . S
N1295 H1301 0.985 . S
C1296 C1290 1.379 . S
C1296 C1293 1.363 . S
C1296 N1294 1.356 . S
C1297 C1291 1.363 . S
C1297 C1292 1.379 . S
C1297 N1295 1.356 . S
N1298 C1290 1.356 . S
N1298 H1304 0.977 1_554 S
N1298 H1305 0.984 1_554 S
N1299 C1292 1.356 . S
N1299 H1302 0.984 . S
N1299 H1303 0.985 . S
H1300 N1295 0.984 . S
H1301 N1295 0.985 . S
H1302 N1299 0.984 . S
H1303 N1299 0.985 . S
H1304 N1298 0.977 1_556 S
H1305 N1298 0.984 1_556 S
H1306 N1294 0.984 . S
H1307 N1294 0.985 . S
C1308 C1309 1.363 . S
C1308 C1314 1.379 . S
C1308 N1316 1.356 . S
C1309 C1308 1.363 . S
C1309 C1315 1.363 . S
C1310 C1311 1.363 . S
C1310 C1315 1.379 . S
C1310 N1317 1.356 . S
C1311 C1310 1.363 . S
C1311 C1314 1.363 . S
N1312 C1314 1.356 . S
N1312 H1324 0.984 . S
N1312 H1325 0.985 . S
N1313 C1315 1.356 . S
N1313 H1318 0.984 . S
N1313 H1319 0.985 . S
C1314 C1308 1.379 . S
C1314 C1311 1.363 . S
C1314 N1312 1.356 . S
C1315 C1309 1.363 . S
C1315 C1310 1.379 . S
C1315 N1313 1.356 . S
N1316 C1308 1.356 . S
N1316 H1322 0.984 . S
N1316 H1323 0.984 . S
N1317 C1310 1.356 . S
N1317 H1320 0.984 . S
N1317 H1321 0.985 . S
H1318 N1313 0.984 . S
H1319 N1313 0.985 . S
H1320 N1317 0.984 . S
H1321 N1317 0.985 . S
H1322 N1316 0.984 . S
H1323 N1316 0.984 . S
H1324 N1312 0.984 . S
H1325 N1312 0.985 . S
C1326 C1327 1.363 . S
C1326 C1332 1.379 . S
C1326 N1334 1.356 . S
C1327 C1326 1.363 . S
C1327 C1333 1.363 . S
C1328 C1329 1.363 . S
C1328 C1333 1.379 . S
C1328 N1335 1.356 . S
C1329 C1328 1.363 . S
C1329 C1332 1.363 . S
N1330 C1332 1.356 . S
N1330 H1342 0.984 . S
N1330 H1343 0.985 . S
N1331 C1333 1.356 . S
N1331 H1336 0.984 . S
N1331 H1337 0.985 . S
C1332 C1326 1.379 . S
C1332 C1329 1.363 . S
C1332 N1330 1.356 . S
C1333 C1327 1.363 . S
C1333 C1328 1.379 . S
C1333 N1331 1.356 . S
N1334 C1326 1.356 . S
N1334 H1340 0.984 . S
N1334 H1341 0.984 . S
N1335 C1328 1.356 . S
N1335 H1338 0.984 . S
N1335 H1339 0.985 . S
H1336 N1331 0.984 . S
H1337 N1331 0.985 . S
H1338 N1335 0.984 . S
H1339 N1335 0.985 . S
H1340 N1334 0.984 . S
H1341 N1334 0.984 . S
H1342 N1330 0.984 . S
H1343 N1330 0.985 . S
C1344 C1345 1.363 . S
C1344 C1350 1.379 . S
C1344 N1352 1.356 . S
C1345 C1344 1.363 . S
C1345 C1351 1.363 . S
C1346 C1347 1.363 . S
C1346 C1351 1.379 . S
C1346 N1353 1.356 . S
C1347 C1346 1.363 . S
C1347 C1350 1.363 . S
N1348 C1350 1.356 . S
N1348 H1360 0.984 . S
N1348 H1361 0.985 . S
N1349 C1351 1.356 . S
N1349 H1354 0.984 . S
N1349 H1355 0.985 . S
C1350 C1344 1.379 . S
C1350 C1347 1.363 . S
C1350 N1348 1.356 . S
C1351 C1345 1.363 . S
C1351 C1346 1.379 . S
C1351 N1349 1.356 . S
N1352 C1344 1.356 . S
N1352 H1358 0.984 . S
N1352 H1359 0.984 . S
N1353 C1346 1.356 . S
N1353 H1356 0.984 . S
N1353 H1357 0.985 . S
H1354 N1349 0.984 . S
H1355 N1349 0.985 . S
H1356 N1353 0.984 . S
H1357 N1353 0.985 . S
H1358 N1352 0.984 . S
H1359 N1352 0.984 . S
H1360 N1348 0.984 . S
H1361 N1348 0.985 . S
C1362 C1363 1.363 . S
C1362 C1368 1.379 . S
C1362 N1370 1.356 . S
C1363 C1362 1.363 . S
C1363 C1369 1.363 . S
C1364 C1365 1.363 . S
C1364 C1369 1.379 . S
C1364 N1371 1.356 . S
C1365 C1364 1.363 . S
C1365 C1368 1.363 . S
N1366 C1368 1.356 . S
N1366 H1378 0.984 . S
N1366 H1379 0.985 . S
N1367 C1369 1.356 . S
N1367 H1372 0.984 . S
N1367 H1373 0.985 . S
C1368 C1362 1.379 . S
C1368 C1365 1.363 . S
C1368 N1366 1.356 . S
C1369 C1363 1.363 . S
C1369 C1364 1.379 . S
C1369 N1367 1.356 . S
N1370 C1362 1.356 . S
N1370 H1376 0.984 . S
N1370 H1377 0.984 . S
N1371 C1364 1.356 . S
N1371 H1374 0.984 . S
N1371 H1375 0.985 . S
H1372 N1367 0.984 . S
H1373 N1367 0.985 . S
H1374 N1371 0.984 . S
H1375 N1371 0.985 . S
H1376 N1370 0.984 . S
H1377 N1370 0.984 . S
H1378 N1366 0.984 . S
H1379 N1366 0.985 . S
C1380 C1381 1.363 . S
C1380 C1386 1.379 . S
C1380 N1388 1.356 . S
C1381 C1380 1.363 . S
C1381 C1387 1.363 . S
C1382 C1383 1.363 . S
C1382 C1387 1.379 . S
C1382 N1389 1.356 . S
C1383 C1382 1.363 . S
C1383 C1386 1.363 . S
N1384 C1386 1.356 . S
N1384 H1396 0.984 . S
N1384 H1397 0.985 . S
N1385 C1387 1.356 . S
N1385 H1390 0.984 . S
N1385 H1391 0.985 . S
C1386 C1380 1.379 . S
C1386 C1383 1.363 . S
C1386 N1384 1.356 . S
C1387 C1381 1.363 . S
C1387 C1382 1.379 . S
C1387 N1385 1.356 . S
N1388 C1380 1.356 . S
N1388 H1394 0.984 . S
N1388 H1395 0.984 . S
N1389 C1382 1.356 . S
N1389 H1392 0.984 . S
N1389 H1393 0.985 . S
H1390 N1385 0.984 . S
H1391 N1385 0.985 . S
H1392 N1389 0.984 . S
H1393 N1389 0.985 . S
H1394 N1388 0.984 . S
H1395 N1388 0.984 . S
H1396 N1384 0.984 . S
H1397 N1384 0.985 . S
C1398 C1399 1.363 . S
C1398 C1404 1.379 . S
C1398 N1406 1.356 . S
C1399 C1398 1.363 . S
C1399 C1405 1.363 . S
C1400 C1401 1.363 . S
C1400 C1405 1.379 . S
C1400 N1407 1.356 . S
C1401 C1400 1.363 . S
C1401 C1404 1.363 . S
N1402 C1404 1.356 . S
N1402 H1414 0.984 . S
N1402 H1415 0.985 . S
N1403 C1405 1.356 . S
N1403 H1408 0.984 . S
N1403 H1409 0.985 . S
C1404 C1398 1.379 . S
C1404 C1401 1.363 . S
C1404 N1402 1.356 . S
C1405 C1399 1.363 . S
C1405 C1400 1.379 . S
C1405 N1403 1.356 . S
N1406 C1398 1.356 . S
N1406 H1412 0.984 . S
N1406 H1413 0.984 . S
N1407 C1400 1.356 . S
N1407 H1410 0.984 . S
N1407 H1411 0.985 . S
H1408 N1403 0.984 . S
H1409 N1403 0.985 . S
H1410 N1407 0.984 . S
H1411 N1407 0.985 . S
H1412 N1406 0.984 . S
H1413 N1406 0.984 . S
H1414 N1402 0.984 . S
H1415 N1402 0.985 . S
C1416 C1417 1.363 . S
C1416 C1422 1.379 . S
C1416 N1424 1.356 . S
C1417 C1416 1.363 . S
C1417 C1423 1.363 . S
C1418 C1419 1.363 . S
C1418 C1423 1.379 . S
C1418 N1425 1.356 . S
C1419 C1418 1.363 . S
C1419 C1422 1.363 . S
N1420 C1422 1.356 . S
N1420 H1432 0.984 . S
N1420 H1433 0.985 . S
N1421 C1423 1.356 . S
N1421 H1426 0.984 . S
N1421 H1427 0.985 . S
C1422 C1416 1.379 . S
C1422 C1419 1.363 . S
C1422 N1420 1.356 . S
C1423 C1417 1.363 . S
C1423 C1418 1.379 . S
C1423 N1421 1.356 . S
N1424 C1416 1.356 . S
N1424 H1430 0.984 . S
N1424 H1431 0.984 . S
N1425 C1418 1.356 . S
N1425 H1428 0.984 . S
N1425 H1429 0.985 . S
H1426 N1421 0.984 . S
H1427 N1421 0.985 . S
H1428 N1425 0.984 . S
H1429 N1425 0.985 . S
H1430 N1424 0.984 . S
H1431 N1424 0.984 . S
H1432 N1420 0.984 . S
H1433 N1420 0.985 . S
C1434 C1435 1.363 . S
C1434 C1440 1.379 . S
C1434 N1442 1.356 . S
C1435 C1434 1.363 . S
C1435 C1441 1.363 . S
C1436 C1437 1.363 . S
C1436 C1441 1.379 . S
C1436 N1443 1.356 . S
C1437 C1436 1.363 . S
C1437 C1440 1.363 . S
N1438 C1440 1.356 . S
N1438 H1450 0.984 . S
N1438 H1451 0.985 . S
N1439 C1441 1.356 . S
N1439 H1444 0.984 . S
N1439 H1445 0.985 . S
C1440 C1434 1.379 . S
C1440 C1437 1.363 . S
C1440 N1438 1.356 . S
C1441 C1435 1.363 . S
C1441 C1436 1.379 . S
C1441 N1439 1.356 . S
N1442 C1434 1.356 . S
N1442 H1448 0.984 . S
N1442 H1449 0.984 . S
N1443 C1436 1.356 . S
N1443 H1446 0.984 . S
N1443 H1447 0.985 . S
H1444 N1439 0.984 . S
H1445 N1439 0.985 . S
H1446 N1443 0.984 . S
H1447 N1443 0.985 . S
H1448 N1442 0.984 . S
H1449 N1442 0.984 . S
H1450 N1438 0.984 . S
H1451 N1438 0.985 . S
C1452 C1453 1.363 . S
C1452 C1458 1.379 . S
C1452 N1460 1.356 . S
C1453 C1452 1.363 . S
C1453 C1459 1.363 . S
C1454 C1455 1.363 . S
C1454 C1459 1.379 . S
C1454 N1461 1.356 . S
C1455 C1454 1.363 . S
C1455 C1458 1.363 . S
N1456 C1458 1.356 . S
N1456 H1468 0.984 . S
N1456 H1469 0.985 . S
N1457 C1459 1.356 . S
N1457 H1462 0.984 . S
N1457 H1463 0.985 . S
C1458 C1452 1.379 . S
C1458 C1455 1.363 . S
C1458 N1456 1.356 . S
C1459 C1453 1.363 . S
C1459 C1454 1.379 . S
C1459 N1457 1.356 . S
N1460 C1452 1.356 . S
N1460 H1466 0.984 . S
N1460 H1467 0.984 . S
N1461 C1454 1.356 . S
N1461 H1464 0.984 . S
N1461 H1465 0.985 . S
H1462 N1457 0.984 . S
H1463 N1457 0.985 . S
H1464 N1461 0.984 . S
H1465 N1461 0.985 . S
H1466 N1460 0.984 . S
H1467 N1460 0.984 . S
H1468 N1456 0.984 . S
H1469 N1456 0.985 . S
C1470 C1471 1.363 . S
C1470 C1476 1.379 . S
C1470 N1478 1.356 . S
C1471 C1470 1.363 . S
C1471 C1477 1.363 . S
C1472 C1473 1.363 . S
C1472 C1477 1.379 . S
C1472 N1479 1.356 . S
C1473 C1472 1.363 . S
C1473 C1476 1.363 . S
N1474 C1476 1.356 . S
N1474 H1486 0.984 . S
N1474 H1487 0.985 . S
N1475 C1477 1.356 . S
N1475 H1480 0.984 . S
N1475 H1481 0.985 . S
C1476 C1470 1.379 . S
C1476 C1473 1.363 . S
C1476 N1474 1.356 . S
C1477 C1471 1.363 . S
C1477 C1472 1.379 . S
C1477 N1475 1.356 . S
N1478 C1470 1.356 . S
N1478 H1484 0.984 . S
N1478 H1485 0.984 . S
N1479 C1472 1.356 . S
N1479 H1482 0.984 . S
N1479 H1483 0.985 . S
H1480 N1475 0.984 . S
H1481 N1475 0.985 . S
H1482 N1479 0.984 . S
H1483 N1479 0.985 . S
H1484 N1478 0.984 . S
H1485 N1478 0.984 . S
H1486 N1474 0.984 . S
H1487 N1474 0.985 . S
C1488 C1489 1.363 . S
C1488 C1494 1.379 . S
C1488 N1496 1.356 . S
C1489 C1488 1.363 . S
C1489 C1495 1.363 . S
C1490 C1491 1.363 . S
C1490 C1495 1.379 . S
C1490 N1497 1.356 . S
C1491 C1490 1.363 . S
C1491 C1494 1.363 . S
N1492 C1494 1.356 . S
N1492 H1504 0.984 . S
N1492 H1505 0.985 . S
N1493 C1495 1.356 . S
N1493 H1498 0.984 . S
N1493 H1499 0.985 . S
C1494 C1488 1.379 . S
C1494 C1491 1.363 . S
C1494 N1492 1.356 . S
C1495 C1489 1.363 . S
C1495 C1490 1.379 . S
C1495 N1493 1.356 . S
N1496 C1488 1.356 . S
N1496 H1502 0.984 . S
N1496 H1503 0.984 . S
N1497 C1490 1.356 . S
N1497 H1500 0.984 . S
N1497 H1501 0.985 . S
H1498 N1493 0.984 . S
H1499 N1493 0.985 . S
H1500 N1497 0.984 . S
H1501 N1497 0.985 . S
H1502 N1496 0.984 . S
H1503 N1496 0.984 . S
H1504 N1492 0.984 . S
H1505 N1492 0.985 . S
C1506 C1507 1.363 . S
C1506 C1512 1.379 . S
C1506 N1514 1.356 . S
C1507 C1506 1.363 . S
C1507 C1513 1.363 . S
C1508 C1509 1.363 . S
C1508 C1513 1.379 . S
C1508 N1515 1.356 . S
C1509 C1508 1.363 . S
C1509 C1512 1.363 . S
N1510 C1512 1.356 . S
N1510 H1522 0.984 . S
N1510 H1523 0.985 . S
N1511 C1513 1.356 . S
N1511 H1516 0.984 . S
N1511 H1517 0.985 . S
C1512 C1506 1.379 . S
C1512 C1509 1.363 . S
C1512 N1510 1.356 . S
C1513 C1507 1.363 . S
C1513 C1508 1.379 . S
C1513 N1511 1.356 . S
N1514 C1506 1.356 . S
N1514 H1520 0.984 . S
N1514 H1521 0.984 . S
N1515 C1508 1.356 . S
N1515 H1518 0.984 . S
N1515 H1519 0.985 . S
H1516 N1511 0.984 . S
H1517 N1511 0.985 . S
H1518 N1515 0.984 . S
H1519 N1515 0.985 . S
H1520 N1514 0.984 . S
H1521 N1514 0.984 . S
H1522 N1510 0.984 . S
H1523 N1510 0.985 . S
C1524 C1525 1.363 . S
C1524 C1530 1.379 . S
C1524 N1532 1.356 . S
C1525 C1524 1.363 . S
C1525 C1531 1.363 . S
C1526 C1527 1.363 . S
C1526 C1531 1.379 . S
C1526 N1533 1.356 . S
C1527 C1526 1.363 . S
C1527 C1530 1.363 . S
N1528 C1530 1.356 . S
N1528 H1540 0.984 . S
N1528 H1541 0.985 . S
N1529 C1531 1.356 . S
N1529 H1534 0.984 . S
N1529 H1535 0.985 . S
C1530 C1524 1.379 . S
C1530 C1527 1.363 . S
C1530 N1528 1.356 . S
C1531 C1525 1.363 . S
C1531 C1526 1.379 . S
C1531 N1529 1.356 . S
N1532 C1524 1.356 . S
N1532 H1538 0.984 . S
N1532 H1539 0.984 . S
N1533 C1526 1.356 . S
N1533 H1536 0.984 . S
N1533 H1537 0.985 . S
H1534 N1529 0.984 . S
H1535 N1529 0.985 . S
H1536 N1533 0.984 . S
H1537 N1533 0.985 . S
H1538 N1532 0.984 . S
H1539 N1532 0.984 . S
H1540 N1528 0.984 . S
H1541 N1528 0.985 . S
C1542 C1543 1.363 . S
C1542 C1548 1.379 . S
C1542 N1550 1.356 . S
C1543 C1542 1.363 . S
C1543 C1549 1.363 . S
C1544 C1545 1.363 . S
C1544 C1549 1.379 . S
C1544 N1551 1.356 . S
C1545 C1544 1.363 . S
C1545 C1548 1.363 . S
N1546 C1548 1.356 . S
N1546 H1558 0.984 . S
N1546 H1559 0.985 . S
N1547 C1549 1.356 . S
N1547 H1552 0.984 . S
N1547 H1553 0.985 . S
C1548 C1542 1.379 . S
C1548 C1545 1.363 . S
C1548 N1546 1.356 . S
C1549 C1543 1.363 . S
C1549 C1544 1.379 . S
C1549 N1547 1.356 . S
N1550 C1542 1.356 . S
N1550 H1556 0.984 . S
N1550 H1557 0.984 . S
N1551 C1544 1.356 . S
N1551 H1554 0.984 . S
N1551 H1555 0.985 . S
H1552 N1547 0.984 . S
H1553 N1547 0.985 . S
H1554 N1551 0.984 . S
H1555 N1551 0.985 . S
H1556 N1550 0.984 . S
H1557 N1550 0.984 . S
H1558 N1546 0.984 . S
H1559 N1546 0.985 . S
C1560 C1561 1.363 . S
C1560 C1566 1.379 . S
C1560 N1568 1.356 . S
C1561 C1560 1.363 . S
C1561 C1567 1.363 . S
C1562 C1563 1.363 . S
C1562 C1567 1.379 . S
C1562 N1569 1.356 . S
C1563 C1562 1.363 . S
C1563 C1566 1.363 . S
N1564 C1566 1.356 . S
N1564 H1576 0.984 . S
N1564 H1577 0.985 . S
N1565 C1567 1.356 . S
N1565 H1570 0.984 . S
N1565 H1571 0.985 . S
C1566 C1560 1.379 . S
C1566 C1563 1.363 . S
C1566 N1564 1.356 . S
C1567 C1561 1.363 . S
C1567 C1562 1.379 . S
C1567 N1565 1.356 . S
N1568 C1560 1.356 . S
N1568 H1574 0.984 . S
N1568 H1575 0.984 . S
N1569 C1562 1.356 . S
N1569 H1572 0.984 . S
N1569 H1573 0.985 . S
H1570 N1565 0.984 . S
H1571 N1565 0.985 . S
H1572 N1569 0.984 . S
H1573 N1569 0.985 . S
H1574 N1568 0.984 . S
H1575 N1568 0.984 . S
H1576 N1564 0.984 . S
H1577 N1564 0.985 . S
C1578 C1579 1.363 . S
C1578 C1584 1.379 . S
C1578 N1586 1.356 . S
C1579 C1578 1.363 . S
C1579 C1585 1.363 . S
C1580 C1581 1.363 . S
C1580 C1585 1.379 . S
C1580 N1587 1.356 . S
C1581 C1580 1.363 . S
C1581 C1584 1.363 . S
N1582 C1584 1.356 . S
N1582 H1594 0.984 . S
N1582 H1595 0.985 . S
N1583 C1585 1.356 . S
N1583 H1588 0.984 . S
N1583 H1589 0.985 . S
C1584 C1578 1.379 . S
C1584 C1581 1.363 . S
C1584 N1582 1.356 . S
C1585 C1579 1.363 . S
C1585 C1580 1.379 . S
C1585 N1583 1.356 . S
N1586 C1578 1.356 . S
N1586 H1592 0.984 . S
N1586 H1593 0.984 . S
N1587 C1580 1.356 . S
N1587 H1590 0.984 . S
N1587 H1591 0.985 . S
H1588 N1583 0.984 . S
H1589 N1583 0.985 . S
H1590 N1587 0.984 . S
H1591 N1587 0.985 . S
H1592 N1586 0.984 . S
H1593 N1586 0.984 . S
H1594 N1582 0.984 . S
H1595 N1582 0.985 . S
C1596 C1597 1.363 . S
C1596 C1602 1.379 . S
C1596 N1604 1.356 . S
C1597 C1596 1.363 . S
C1597 C1603 1.363 . S
C1598 C1599 1.363 . S
C1598 C1603 1.379 . S
C1598 N1605 1.356 . S
C1599 C1598 1.363 . S
C1599 C1602 1.363 . S
N1600 C1602 1.356 . S
N1600 H1612 0.984 . S
N1600 H1613 0.985 . S
N1601 C1603 1.356 . S
N1601 H1606 0.984 . S
N1601 H1607 0.985 . S
C1602 C1596 1.379 . S
C1602 C1599 1.363 . S
C1602 N1600 1.356 . S
C1603 C1597 1.363 . S
C1603 C1598 1.379 . S
C1603 N1601 1.356 . S
N1604 C1596 1.356 . S
N1604 H1610 0.984 . S
N1604 H1611 0.984 . S
N1605 C1598 1.356 . S
N1605 H1608 0.984 . S
N1605 H1609 0.985 . S
H1606 N1601 0.984 . S
H1607 N1601 0.985 . S
H1608 N1605 0.984 . S
H1609 N1605 0.985 . S
H1610 N1604 0.984 . S
H1611 N1604 0.984 . S
H1612 N1600 0.984 . S
H1613 N1600 0.985 . S
C1614 C1615 1.363 . S
C1614 C1620 1.379 . S
C1614 N1622 1.356 . S
C1615 C1614 1.363 . S
C1615 C1621 1.363 . S
C1616 C1617 1.363 . S
C1616 C1621 1.379 . S
C1616 N1623 1.356 . S
C1617 C1616 1.363 . S
C1617 C1620 1.363 . S
N1618 C1620 1.356 . S
N1618 H1630 0.984 . S
N1618 H1631 0.985 . S
N1619 C1621 1.356 . S
N1619 H1624 0.984 . S
N1619 H1625 0.985 . S
C1620 C1614 1.379 . S
C1620 C1617 1.363 . S
C1620 N1618 1.356 . S
C1621 C1615 1.363 . S
C1621 C1616 1.379 . S
C1621 N1619 1.356 . S
N1622 C1614 1.356 . S
N1622 H1628 0.984 . S
N1622 H1629 0.984 . S
N1623 C1616 1.356 . S
N1623 H1626 0.984 . S
N1623 H1627 0.985 . S
H1624 N1619 0.984 . S
H1625 N1619 0.985 . S
H1626 N1623 0.984 . S
H1627 N1623 0.985 . S
H1628 N1622 0.984 . S
H1629 N1622 0.984 . S
H1630 N1618 0.984 . S
H1631 N1618 0.985 . S
C1632 C1633 1.363 . S
C1632 C1638 1.379 . S
C1632 N1640 1.356 . S
C1633 C1632 1.363 . S
C1633 C1639 1.363 . S
C1634 C1635 1.363 . S
C1634 C1639 1.379 . S
C1634 N1641 1.356 . S
C1635 C1634 1.363 . S
C1635 C1638 1.363 . S
N1636 C1638 1.356 . S
N1636 H1648 0.984 . S
N1636 H1649 0.985 . S
N1637 C1639 1.356 . S
N1637 H1642 0.984 . S
N1637 H1643 0.985 . S
C1638 C1632 1.379 . S
C1638 C1635 1.363 . S
C1638 N1636 1.356 . S
C1639 C1633 1.363 . S
C1639 C1634 1.379 . S
C1639 N1637 1.356 . S
N1640 C1632 1.356 . S
N1640 H1646 0.984 . S
N1640 H1647 0.984 . S
N1641 C1634 1.356 . S
N1641 H1644 0.984 . S
N1641 H1645 0.985 . S
H1642 N1637 0.984 . S
H1643 N1637 0.985 . S
H1644 N1641 0.984 . S
H1645 N1641 0.985 . S
H1646 N1640 0.984 . S
H1647 N1640 0.984 . S
H1648 N1636 0.984 . S
H1649 N1636 0.985 . S
C1650 C1651 1.363 . S
C1650 C1656 1.379 . S
C1650 N1658 1.356 . S
C1651 C1650 1.363 . S
C1651 C1657 1.363 . S
C1652 C1653 1.363 . S
C1652 C1657 1.379 . S
C1652 N1659 1.356 . S
C1653 C1652 1.363 . S
C1653 C1656 1.363 . S
N1654 C1656 1.356 . S
N1654 H1666 0.984 . S
N1654 H1667 0.985 . S
N1655 C1657 1.356 . S
N1655 H1660 0.984 . S
N1655 H1661 0.985 1_554 S
C1656 C1650 1.379 . S
C1656 C1653 1.363 . S
C1656 N1654 1.356 . S
C1657 C1651 1.363 . S
C1657 C1652 1.379 . S
C1657 N1655 1.356 . S
N1658 C1650 1.356 . S
N1658 H1664 0.984 . S
N1658 H1665 0.984 . S
N1659 C1652 1.356 . S
N1659 H1662 0.984 . S
N1659 H1663 0.986 . S
H1660 N1655 0.984 . S
H1661 N1655 0.985 1_556 S
H1662 N1659 0.984 . S
H1663 N1659 0.986 . S
H1664 N1658 0.984 . S
H1665 N1658 0.984 . S
H1666 N1654 0.984 . S
H1667 N1654 0.985 . S
C1668 C1669 1.363 . S
C1668 C1674 1.379 . S
C1668 N1676 1.356 . S
C1669 C1668 1.363 . S
C1669 C1675 1.363 . S
C1670 C1671 1.363 . S
C1670 C1675 1.379 . S
C1670 N1677 1.356 . S
C1671 C1670 1.363 . S
C1671 C1674 1.363 . S
N1672 C1674 1.356 . S
N1672 H1684 0.984 . S
N1672 H1685 0.985 . S
N1673 C1675 1.356 . S
N1673 H1678 0.984 . S
N1673 H1679 0.985 . S
C1674 C1668 1.379 . S
C1674 C1671 1.363 . S
C1674 N1672 1.356 . S
C1675 C1669 1.363 . S
C1675 C1670 1.379 . S
C1675 N1673 1.356 . S
N1676 C1668 1.356 . S
N1676 H1682 0.984 . S
N1676 H1683 0.984 . S
N1677 C1670 1.356 . S
N1677 H1680 0.984 . S
N1677 H1681 0.985 . S
H1678 N1673 0.984 . S
H1679 N1673 0.985 . S
H1680 N1677 0.984 . S
H1681 N1677 0.985 . S
H1682 N1676 0.984 . S
H1683 N1676 0.984 . S
H1684 N1672 0.984 . S
H1685 N1672 0.985 . S
C1686 C1687 1.363 . S
C1686 C1692 1.379 . S
C1686 N1694 1.356 . S
C1687 C1686 1.363 . S
C1687 C1693 1.363 . S
C1688 C1689 1.363 . S
C1688 C1693 1.379 . S
C1688 N1695 1.356 . S
C1689 C1688 1.363 . S
C1689 C1692 1.363 . S
N1690 C1692 1.356 . S
N1690 H1702 0.984 . S
N1690 H1703 0.985 . S
N1691 C1693 1.356 . S
N1691 H1696 0.984 . S
N1691 H1697 0.985 . S
C1692 C1686 1.379 . S
C1692 C1689 1.363 . S
C1692 N1690 1.356 . S
C1693 C1687 1.363 . S
C1693 C1688 1.379 . S
C1693 N1691 1.356 . S
N1694 C1686 1.356 . S
N1694 H1700 0.984 . S
N1694 H1701 0.984 . S
N1695 C1688 1.356 . S
N1695 H1698 0.984 . S
N1695 H1699 0.985 . S
H1696 N1691 0.984 . S
H1697 N1691 0.985 . S
H1698 N1695 0.984 . S
H1699 N1695 0.985 . S
H1700 N1694 0.984 . S
H1701 N1694 0.984 . S
H1702 N1690 0.984 . S
H1703 N1690 0.985 . S
C1704 C1705 1.363 . S
C1704 C1710 1.379 . S
C1704 N1712 1.356 . S
C1705 C1704 1.363 . S
C1705 C1711 1.363 . S
C1706 C1707 1.363 . S
C1706 C1711 1.379 . S
C1706 N1713 1.356 . S
C1707 C1706 1.363 . S
C1707 C1710 1.363 . S
N1708 C1710 1.356 . S
N1708 H1720 0.984 . S
N1708 H1721 0.985 . S
N1709 C1711 1.356 . S
N1709 H1714 0.984 . S
N1709 H1715 0.985 . S
C1710 C1704 1.379 . S
C1710 C1707 1.363 . S
C1710 N1708 1.356 . S
C1711 C1705 1.363 . S
C1711 C1706 1.379 . S
C1711 N1709 1.356 . S
N1712 C1704 1.356 . S
N1712 H1718 0.984 . S
N1712 H1719 0.984 . S
N1713 C1706 1.356 . S
N1713 H1716 0.984 . S
N1713 H1717 0.985 . S
H1714 N1709 0.984 . S
H1715 N1709 0.985 . S
H1716 N1713 0.984 . S
H1717 N1713 0.985 . S
H1718 N1712 0.984 . S
H1719 N1712 0.984 . S
H1720 N1708 0.984 . S
H1721 N1708 0.985 . S
C1722 C1723 1.363 . S
C1722 C1728 1.379 . S
C1722 N1730 1.356 . S
C1723 C1722 1.363 . S
C1723 C1729 1.363 . S
C1724 C1725 1.363 . S
C1724 C1729 1.379 . S
C1724 N1731 1.356 . S
C1725 C1724 1.363 . S
C1725 C1728 1.363 . S
N1726 C1728 1.356 . S
N1726 H1738 0.984 . S
N1726 H1739 0.985 . S
N1727 C1729 1.356 . S
N1727 H1732 0.984 . S
N1727 H1733 0.985 . S
C1728 C1722 1.379 . S
C1728 C1725 1.363 . S
C1728 N1726 1.356 . S
C1729 C1723 1.363 . S
C1729 C1724 1.379 . S
C1729 N1727 1.356 . S
N1730 C1722 1.356 . S
N1730 H1736 0.984 . S
N1730 H1737 0.984 . S
N1731 C1724 1.356 . S
N1731 H1734 0.984 . S
N1731 H1735 0.985 . S
H1732 N1727 0.984 . S
H1733 N1727 0.985 . S
H1734 N1731 0.984 . S
H1735 N1731 0.985 . S
H1736 N1730 0.984 . S
H1737 N1730 0.984 . S
H1738 N1726 0.984 . S
H1739 N1726 0.985 . S
C1740 C1741 1.363 . S
C1740 C1746 1.379 . S
C1740 N1748 1.356 . S
C1741 C1740 1.363 . S
C1741 C1747 1.363 . S
C1742 C1743 1.363 . S
C1742 C1747 1.379 . S
C1742 N1749 1.356 . S
C1743 C1742 1.363 . S
C1743 C1746 1.363 . S
N1744 C1746 1.356 . S
N1744 H1756 0.984 . S
N1744 H1757 0.985 . S
N1745 C1747 1.356 . S
N1745 H1750 0.984 . S
N1745 H1751 0.985 . S
C1746 C1740 1.379 . S
C1746 C1743 1.363 . S
C1746 N1744 1.356 . S
C1747 C1741 1.363 . S
C1747 C1742 1.379 . S
C1747 N1745 1.356 . S
N1748 C1740 1.356 . S
N1748 H1754 0.984 . S
N1748 H1755 0.984 . S
N1749 C1742 1.356 . S
N1749 H1752 0.984 . S
N1749 H1753 0.985 . S
H1750 N1745 0.984 . S
H1751 N1745 0.985 . S
H1752 N1749 0.984 . S
H1753 N1749 0.985 . S
H1754 N1748 0.984 . S
H1755 N1748 0.984 . S
H1756 N1744 0.984 . S
H1757 N1744 0.985 . S
C1758 C1759 1.363 . S
C1758 C1764 1.379 . S
C1758 N1766 1.356 . S
C1759 C1758 1.363 . S
C1759 C1765 1.363 . S
C1760 C1761 1.363 . S
C1760 C1765 1.379 . S
C1760 N1767 1.356 . S
C1761 C1760 1.363 . S
C1761 C1764 1.363 . S
N1762 C1764 1.356 . S
N1762 H1774 0.984 . S
N1762 H1775 0.985 . S
N1763 C1765 1.356 . S
N1763 H1768 0.984 . S
N1763 H1769 0.985 . S
C1764 C1758 1.379 . S
C1764 C1761 1.363 . S
C1764 N1762 1.356 . S
C1765 C1759 1.363 . S
C1765 C1760 1.379 . S
C1765 N1763 1.356 . S
N1766 C1758 1.356 . S
N1766 H1772 0.984 . S
N1766 H1773 0.984 . S
N1767 C1760 1.356 . S
N1767 H1770 0.984 . S
N1767 H1771 0.985 . S
H1768 N1763 0.984 . S
H1769 N1763 0.985 . S
H1770 N1767 0.984 . S
H1771 N1767 0.985 . S
H1772 N1766 0.984 . S
H1773 N1766 0.984 . S
H1774 N1762 0.984 . S
H1775 N1762 0.985 . S
C1776 C1777 1.363 . S
C1776 C1782 1.379 . S
C1776 N1784 1.356 . S
C1777 C1776 1.363 . S
C1777 C1783 1.363 . S
C1778 C1779 1.363 . S
C1778 C1783 1.379 . S
C1778 N1785 1.356 . S
C1779 C1778 1.363 . S
C1779 C1782 1.363 . S
N1780 C1782 1.356 . S
N1780 H1792 0.984 . S
N1780 H1793 0.985 . S
N1781 C1783 1.356 . S
N1781 H1786 0.984 . S
N1781 H1787 0.985 . S
C1782 C1776 1.379 . S
C1782 C1779 1.363 . S
C1782 N1780 1.356 . S
C1783 C1777 1.363 . S
C1783 C1778 1.379 . S
C1783 N1781 1.356 . S
N1784 C1776 1.356 . S
N1784 H1790 0.984 . S
N1784 H1791 0.984 . S
N1785 C1778 1.356 . S
N1785 H1788 0.984 . S
N1785 H1789 0.985 . S
H1786 N1781 0.984 . S
H1787 N1781 0.985 . S
H1788 N1785 0.984 . S
H1789 N1785 0.985 . S
H1790 N1784 0.984 . S
H1791 N1784 0.984 . S
H1792 N1780 0.984 . S
H1793 N1780 0.985 . S
C1794 C1795 1.363 . S
C1794 C1800 1.379 . S
C1794 N1802 1.356 . S
C1795 C1794 1.363 . S
C1795 C1801 1.363 . S
C1796 C1797 1.363 . S
C1796 C1801 1.379 . S
C1796 N1803 1.356 . S
C1797 C1796 1.363 . S
C1797 C1800 1.363 . S
N1798 C1800 1.356 . S
N1798 H1810 0.984 . S
N1798 H1811 0.985 . S
N1799 C1801 1.356 . S
N1799 H1804 0.984 . S
N1799 H1805 0.985 . S
C1800 C1794 1.379 . S
C1800 C1797 1.363 . S
C1800 N1798 1.356 . S
C1801 C1795 1.363 . S
C1801 C1796 1.379 . S
C1801 N1799 1.356 . S
N1802 C1794 1.356 . S
N1802 H1808 0.984 . S
N1802 H1809 0.984 . S
N1803 C1796 1.356 . S
N1803 H1806 0.984 . S
N1803 H1807 0.985 . S
H1804 N1799 0.984 . S
H1805 N1799 0.985 . S
H1806 N1803 0.984 . S
H1807 N1803 0.985 . S
H1808 N1802 0.984 . S
H1809 N1802 0.984 . S
H1810 N1798 0.984 . S
H1811 N1798 0.985 . S
C1812 C1813 1.363 . S
C1812 C1818 1.379 . S
C1812 N1820 1.356 . S
C1813 C1812 1.363 . S
C1813 C1819 1.363 . S
C1814 C1815 1.363 . S
C1814 C1819 1.379 . S
C1814 N1821 1.356 . S
C1815 C1814 1.363 . S
C1815 C1818 1.363 . S
N1816 C1818 1.356 . S
N1816 H1828 0.984 . S
N1816 H1829 0.985 . S
N1817 C1819 1.356 . S
N1817 H1822 0.984 . S
N1817 H1823 0.985 . S
C1818 C1812 1.379 . S
C1818 C1815 1.363 . S
C1818 N1816 1.356 . S
C1819 C1813 1.363 . S
C1819 C1814 1.379 . S
C1819 N1817 1.356 . S
N1820 C1812 1.356 . S
N1820 H1826 0.984 . S
N1820 H1827 0.984 . S
N1821 C1814 1.356 . S
N1821 H1824 0.984 . S
N1821 H1825 0.985 . S
H1822 N1817 0.984 . S
H1823 N1817 0.985 . S
H1824 N1821 0.984 . S
H1825 N1821 0.985 . S
H1826 N1820 0.984 . S
H1827 N1820 0.984 . S
H1828 N1816 0.984 . S
H1829 N1816 0.985 . S
C1830 C1831 1.363 . S
C1830 C1836 1.379 . S
C1830 N1838 1.356 . S
C1831 C1830 1.363 . S
C1831 C1837 1.363 . S
C1832 C1833 1.363 . S
C1832 C1837 1.379 . S
C1832 N1839 1.356 . S
C1833 C1832 1.363 . S
C1833 C1836 1.363 . S
N1834 C1836 1.356 . S
N1834 H1846 0.984 . S
N1834 H1847 0.985 . S
N1835 C1837 1.356 . S
N1835 H1840 0.984 . S
N1835 H1841 0.985 . S
C1836 C1830 1.379 . S
C1836 C1833 1.363 . S
C1836 N1834 1.356 . S
C1837 C1831 1.363 . S
C1837 C1832 1.379 . S
C1837 N1835 1.356 . S
N1838 C1830 1.356 . S
N1838 H1844 0.984 . S
N1838 H1845 0.984 . S
N1839 C1832 1.356 . S
N1839 H1842 0.984 . S
N1839 H1843 0.985 . S
H1840 N1835 0.984 . S
H1841 N1835 0.985 . S
H1842 N1839 0.984 . S
H1843 N1839 0.985 . S
H1844 N1838 0.984 . S
H1845 N1838 0.984 . S
H1846 N1834 0.984 . S
H1847 N1834 0.985 . S
C1848 C1849 1.363 . S
C1848 C1854 1.379 . S
C1848 N1856 1.356 . S
C1849 C1848 1.363 . S
C1849 C1855 1.363 . S
C1850 C1851 1.363 . S
C1850 C1855 1.379 . S
C1850 N1857 1.356 . S
C1851 C1850 1.363 . S
C1851 C1854 1.363 . S
N1852 C1854 1.356 . S
N1852 H1864 0.984 . S
N1852 H1865 0.985 . S
N1853 C1855 1.356 . S
N1853 H1858 0.984 . S
N1853 H1859 0.985 . S
C1854 C1848 1.379 . S
C1854 C1851 1.363 . S
C1854 N1852 1.356 . S
C1855 C1849 1.363 . S
C1855 C1850 1.379 . S
C1855 N1853 1.356 . S
N1856 C1848 1.356 . S
N1856 H1862 0.984 . S
N1856 H1863 0.984 . S
N1857 C1850 1.356 . S
N1857 H1860 0.984 . S
N1857 H1861 0.985 . S
H1858 N1853 0.984 . S
H1859 N1853 0.985 . S
H1860 N1857 0.984 . S
H1861 N1857 0.985 . S
H1862 N1856 0.984 . S
H1863 N1856 0.984 . S
H1864 N1852 0.984 . S
H1865 N1852 0.985 . S
C1866 C1867 1.363 . S
C1866 C1872 1.379 . S
C1866 N1874 1.356 . S
C1867 C1866 1.363 . S
C1867 C1873 1.363 . S
C1868 C1869 1.363 . S
C1868 C1873 1.379 . S
C1868 N1875 1.356 . S
C1869 C1868 1.363 . S
C1869 C1872 1.363 . S
N1870 C1872 1.356 . S
N1870 H1882 0.984 . S
N1870 H1883 0.985 . S
N1871 C1873 1.356 . S
N1871 H1876 0.984 . S
N1871 H1877 0.985 . S
C1872 C1866 1.379 . S
C1872 C1869 1.363 . S
C1872 N1870 1.356 . S
C1873 C1867 1.363 . S
C1873 C1868 1.379 . S
C1873 N1871 1.356 . S
N1874 C1866 1.356 . S
N1874 H1880 0.984 . S
N1874 H1881 0.984 . S
N1875 C1868 1.356 . S
N1875 H1878 0.984 . S
N1875 H1879 0.985 . S
H1876 N1871 0.984 . S
H1877 N1871 0.985 . S
H1878 N1875 0.984 . S
H1879 N1875 0.985 . S
H1880 N1874 0.984 . S
H1881 N1874 0.984 . S
H1882 N1870 0.984 . S
H1883 N1870 0.985 . S
C1884 C1885 1.363 . S
C1884 C1890 1.379 . S
C1884 N1892 1.356 . S
C1885 C1884 1.363 . S
C1885 C1891 1.363 . S
C1886 C1887 1.363 . S
C1886 C1891 1.379 . S
C1886 N1893 1.356 . S
C1887 C1886 1.363 . S
C1887 C1890 1.363 . S
N1888 C1890 1.356 . S
N1888 H1900 0.984 . S
N1888 H1901 0.985 . S
N1889 C1891 1.356 . S
N1889 H1894 0.984 . S
N1889 H1895 0.985 . S
C1890 C1884 1.379 . S
C1890 C1887 1.363 . S
C1890 N1888 1.356 . S
C1891 C1885 1.363 . S
C1891 C1886 1.379 . S
C1891 N1889 1.356 . S
N1892 C1884 1.356 . S
N1892 H1898 0.984 . S
N1892 H1899 0.984 . S
N1893 C1886 1.356 . S
N1893 H1896 0.984 . S
N1893 H1897 0.985 . S
H1894 N1889 0.984 . S
H1895 N1889 0.985 . S
H1896 N1893 0.984 . S
H1897 N1893 0.985 . S
H1898 N1892 0.984 . S
H1899 N1892 0.984 . S
H1900 N1888 0.984 . S
H1901 N1888 0.985 . S
C1902 C1903 1.363 . S
C1902 C1908 1.379 . S
C1902 N1910 1.356 . S
C1903 C1902 1.363 . S
C1903 C1909 1.363 . S
C1904 C1905 1.363 . S
C1904 C1909 1.379 . S
C1904 N1911 1.356 . S
C1905 C1904 1.363 . S
C1905 C1908 1.363 . S
N1906 C1908 1.356 . S
N1906 H1918 0.984 . S
N1906 H1919 0.985 . S
N1907 C1909 1.356 . S
N1907 H1912 0.984 . S
N1907 H1913 0.985 . S
C1908 C1902 1.379 . S
C1908 C1905 1.363 . S
C1908 N1906 1.356 . S
C1909 C1903 1.363 . S
C1909 C1904 1.379 . S
C1909 N1907 1.356 . S
N1910 C1902 1.356 . S
N1910 H1916 0.984 . S
N1910 H1917 0.984 . S
N1911 C1904 1.356 . S
N1911 H1914 0.984 . S
N1911 H1915 0.985 . S
H1912 N1907 0.984 . S
H1913 N1907 0.985 . S
H1914 N1911 0.984 . S
H1915 N1911 0.985 . S
H1916 N1910 0.984 . S
H1917 N1910 0.984 . S
H1918 N1906 0.984 . S
H1919 N1906 0.985 . S
C1920 C1921 1.363 . S
C1920 C1926 1.379 . S
C1920 N1928 1.356 . S
C1921 C1920 1.363 . S
C1921 C1927 1.363 . S
C1922 C1923 1.363 . S
C1922 C1927 1.379 . S
C1922 N1929 1.356 . S
C1923 C1922 1.363 . S
C1923 C1926 1.363 . S
N1924 C1926 1.356 . S
N1924 H1936 0.984 . S
N1924 H1937 0.985 . S
N1925 C1927 1.356 . S
N1925 H1930 0.984 . S
N1925 H1931 0.985 . S
C1926 C1920 1.379 . S
C1926 C1923 1.363 . S
C1926 N1924 1.356 . S
C1927 C1921 1.363 . S
C1927 C1922 1.379 . S
C1927 N1925 1.356 . S
N1928 C1920 1.356 . S
N1928 H1934 0.984 . S
N1928 H1935 0.984 . S
N1929 C1922 1.356 . S
N1929 H1932 0.984 . S
N1929 H1933 0.985 . S
H1930 N1925 0.984 . S
H1931 N1925 0.985 . S
H1932 N1929 0.984 . S
H1933 N1929 0.985 . S
H1934 N1928 0.984 . S
H1935 N1928 0.984 . S
H1936 N1924 0.984 . S
H1937 N1924 0.985 . S
C1938 C1939 1.363 . S
C1938 C1944 1.379 1_455 S
C1938 N1946 1.356 . S
C1939 C1938 1.363 . S
C1939 C1945 1.363 1_565 S
C1940 C1941 1.363 . S
C1940 C1945 1.379 1_655 S
C1940 N1947 1.356 . S
C1941 C1940 1.363 . S
C1941 C1944 1.363 1_545 S
N1942 C1944 1.356 . S
N1942 H1954 0.984 . S
N1942 H1955 0.985 . S
N1943 C1945 1.356 . S
N1943 H1948 0.984 . S
N1943 H1949 0.985 . S
C1944 C1938 1.379 1_655 S
C1944 C1941 1.363 1_565 S
C1944 N1942 1.356 . S
C1945 C1939 1.363 1_545 S
C1945 C1940 1.379 1_455 S
C1945 N1943 1.356 . S
N1946 C1938 1.356 . S
N1946 H1952 0.984 . S
N1946 H1953 0.984 . S
N1947 C1940 1.356 . S
N1947 H1950 0.984 . S
N1947 H1951 0.985 . S
H1948 N1943 0.984 . S
H1949 N1943 0.985 . S
H1950 N1947 0.984 . S
H1951 N1947 0.985 . S
H1952 N1946 0.984 . S
H1953 N1946 0.984 . S
H1954 N1942 0.984 . S
H1955 N1942 0.985 . S
C1956 C1957 1.363 . S
C1956 C1962 1.379 . S
C1956 N1964 1.356 . S
C1957 C1956 1.363 . S
C1957 C1963 1.363 . S
C1958 C1959 1.363 . S
C1958 C1963 1.379 . S
C1958 N1965 1.356 . S
C1959 C1958 1.363 . S
C1959 C1962 1.363 . S
N1960 C1962 1.356 . S
N1960 H1972 0.984 . S
N1960 H1973 0.985 . S
N1961 C1963 1.356 . S
N1961 H1966 0.984 . S
N1961 H1967 0.985 . S
C1962 C1956 1.379 . S
C1962 C1959 1.363 . S
C1962 N1960 1.356 . S
C1963 C1957 1.363 . S
C1963 C1958 1.379 . S
C1963 N1961 1.356 . S
N1964 C1956 1.356 . S
N1964 H1970 0.984 . S
N1964 H1971 0.984 . S
N1965 C1958 1.356 . S
N1965 H1968 0.984 . S
N1965 H1969 0.985 . S
H1966 N1961 0.984 . S
H1967 N1961 0.985 . S
H1968 N1965 0.984 . S
H1969 N1965 0.985 . S
H1970 N1964 0.984 . S
H1971 N1964 0.984 . S
H1972 N1960 0.984 . S
H1973 N1960 0.985 . S
C1974 C1975 1.363 1_545 S
C1974 C1980 1.379 . S
C1974 N1982 1.356 . S
C1975 C1974 1.363 1_565 S
C1975 C1981 1.363 1_556 S
C1976 C1977 1.363 1_565 S
C1976 C1981 1.379 . S
C1976 N1983 1.356 . S
C1977 C1976 1.363 1_545 S
C1977 C1980 1.363 1_554 S
N1978 C1980 1.356 . S
N1978 H1990 0.984 . S
N1978 H1991 0.985 . S
N1979 C1981 1.356 . S
N1979 H1984 0.984 . S
N1979 H1985 0.985 . S
C1980 C1974 1.379 . S
C1980 C1977 1.363 1_556 S
C1980 N1978 1.356 . S
C1981 C1975 1.363 1_554 S
C1981 C1976 1.379 . S
C1981 N1979 1.356 . S
N1982 C1974 1.356 . S
N1982 H1988 0.984 . S
N1982 H1989 0.984 . S
N1983 C1976 1.356 . S
N1983 H1986 0.984 . S
N1983 H1987 0.985 . S
H1984 N1979 0.984 . S
H1985 N1979 0.985 . S
H1986 N1983 0.984 . S
H1987 N1983 0.985 . S
H1988 N1982 0.984 . S
H1989 N1982 0.984 . S
H1990 N1978 0.984 . S
H1991 N1978 0.985 . S
C1992 C1993 1.363 . S
C1992 C1998 1.379 . S
C1992 N2000 1.356 . S
C1993 C1992 1.363 . S
C1993 C1999 1.363 . S
C1994 C1995 1.363 . S
C1994 C1999 1.379 . S
C1994 N2001 1.356 . S
C1995 C1994 1.363 . S
C1995 C1998 1.363 . S
N1996 C1998 1.356 . S
N1996 H2008 0.984 . S
N1996 H2009 0.985 . S
N1997 C1999 1.356 . S
N1997 H2002 0.984 . S
N1997 H2003 0.985 . S
C1998 C1992 1.379 . S
C1998 C1995 1.363 . S
C1998 N1996 1.356 . S
C1999 C1993 1.363 . S
C1999 C1994 1.379 . S
C1999 N1997 1.356 . S
N2000 C1992 1.356 . S
N2000 H2006 0.984 . S
N2000 H2007 0.984 . S
N2001 C1994 1.356 . S
N2001 H2004 0.984 . S
N2001 H2005 0.985 . S
H2002 N1997 0.984 . S
H2003 N1997 0.985 . S
H2004 N2001 0.984 . S
H2005 N2001 0.985 . S
H2006 N2000 0.984 . S
H2007 N2000 0.984 . S
H2008 N1996 0.984 . S
H2009 N1996 0.985 . S
C2010 C2011 1.363 1_545 S
C2010 C2016 1.379 . S
C2010 N2018 1.356 . S
C2011 C2010 1.363 1_565 S
C2011 C2017 1.363 . S
C2012 C2013 1.363 1_565 S
C2012 C2017 1.379 . S
C2012 N2019 1.356 . S
C2013 C2012 1.363 1_545 S
C2013 C2016 1.363 . S
N2014 C2016 1.356 . S
N2014 H2026 0.984 . S
N2014 H2027 0.985 . S
N2015 C2017 1.356 . S
N2015 H2020 0.984 . S
N2015 H2021 0.985 . S
C2016 C2010 1.379 . S
C2016 C2013 1.363 . S
C2016 N2014 1.356 . S
C2017 C2011 1.363 . S
C2017 C2012 1.379 . S
C2017 N2015 1.356 . S
N2018 C2010 1.356 . S
N2018 H2024 0.984 . S
N2018 H2025 0.984 . S
N2019 C2012 1.356 . S
N2019 H2022 0.984 . S
N2019 H2023 0.985 . S
H2020 N2015 0.984 . S
H2021 N2015 0.985 . S
H2022 N2019 0.984 . S
H2023 N2019 0.985 . S
H2024 N2018 0.984 . S
H2025 N2018 0.984 . S
H2026 N2014 0.984 . S
H2027 N2014 0.985 . S
C2028 C2029 1.363 . S
C2028 C2034 1.379 . S
C2028 N2036 1.356 . S
C2029 C2028 1.363 . S
C2029 C2035 1.363 . S
C2030 C2031 1.363 . S
C2030 C2035 1.379 . S
C2030 N2037 1.356 . S
C2031 C2030 1.363 . S
C2031 C2034 1.363 . S
N2032 C2034 1.356 . S
N2032 H2044 0.984 . S
N2032 H2045 0.985 . S
N2033 C2035 1.356 . S
N2033 H2038 0.984 . S
N2033 H2039 0.985 . S
C2034 C2028 1.379 . S
C2034 C2031 1.363 . S
C2034 N2032 1.356 . S
C2035 C2029 1.363 . S
C2035 C2030 1.379 . S
C2035 N2033 1.356 . S
N2036 C2028 1.356 . S
N2036 H2042 0.984 . S
N2036 H2043 0.984 . S
N2037 C2030 1.356 . S
N2037 H2040 0.984 . S
N2037 H2041 0.985 . S
H2038 N2033 0.984 . S
H2039 N2033 0.985 . S
H2040 N2037 0.984 . S
H2041 N2037 0.985 . S
H2042 N2036 0.984 . S
H2043 N2036 0.984 . S
H2044 N2032 0.984 . S
H2045 N2032 0.985 . S
C2046 C2047 1.363 1_564 S
C2046 C2052 1.379 1_455 S
C2046 N2054 1.356 . S
C2047 C2046 1.363 1_546 S
C2047 C2053 1.363 . S
C2048 C2049 1.363 1_546 S
C2048 C2053 1.379 1_655 S
C2048 N2055 1.356 . S
C2049 C2048 1.363 1_564 S
C2049 C2052 1.363 . S
N2050 C2052 1.356 . S
N2050 H2062 0.984 . S
N2050 H2063 0.985 . S
N2051 C2053 1.356 . S
N2051 H2056 0.984 . S
N2051 H2057 0.985 . S
C2052 C2046 1.379 1_655 S
C2052 C2049 1.363 . S
C2052 N2050 1.356 . S
C2053 C2047 1.363 . S
C2053 C2048 1.379 1_455 S
C2053 N2051 1.356 . S
N2054 C2046 1.356 . S
N2054 H2060 0.984 . S
N2054 H2061 0.984 . S
N2055 C2048 1.356 . S
N2055 H2058 0.984 . S
N2055 H2059 0.985 . S
H2056 N2051 0.984 . S
H2057 N2051 0.985 . S
H2058 N2055 0.984 . S
H2059 N2055 0.985 . S
H2060 N2054 0.984 . S
H2061 N2054 0.984 . S
H2062 N2050 0.984 . S
H2063 N2050 0.985 . S
C2064 C2065 1.363 . S
C2064 C2070 1.379 . S
C2064 N2072 1.356 . S
C2065 C2064 1.363 . S
C2065 C2071 1.363 . S
C2066 C2067 1.363 . S
C2066 C2071 1.379 . S
C2066 N2073 1.356 . S
C2067 C2066 1.363 . S
C2067 C2070 1.363 . S
N2068 C2070 1.356 . S
N2068 H2080 0.984 . S
N2068 H2081 0.985 . S
N2069 C2071 1.356 . S
N2069 H2074 0.984 . S
N2069 H2075 0.985 . S
C2070 C2064 1.379 . S
C2070 C2067 1.363 . S
C2070 N2068 1.356 . S
C2071 C2065 1.363 . S
C2071 C2066 1.379 . S
C2071 N2069 1.356 . S
N2072 C2064 1.356 . S
N2072 H2078 0.984 . S
N2072 H2079 0.984 . S
N2073 C2066 1.356 . S
N2073 H2076 0.984 . S
N2073 H2077 0.985 . S
H2074 N2069 0.984 . S
H2075 N2069 0.985 . S
H2076 N2073 0.984 . S
H2077 N2073 0.985 . S
H2078 N2072 0.984 . S
H2079 N2072 0.984 . S
H2080 N2068 0.984 . S
H2081 N2068 0.985 . S
C2082 C2083 1.363 . S
C2082 C2088 1.379 . S
C2082 N2090 1.356 . S
C2083 C2082 1.363 . S
C2083 C2089 1.363 . S
C2084 C2085 1.363 . S
C2084 C2089 1.379 . S
C2084 N2091 1.356 . S
C2085 C2084 1.363 . S
C2085 C2088 1.363 . S
N2086 C2088 1.356 . S
N2086 H2098 0.984 . S
N2086 H2099 0.985 . S
N2087 C2089 1.356 . S
N2087 H2092 0.984 . S
N2087 H2093 0.985 . S
C2088 C2082 1.379 . S
C2088 C2085 1.363 . S
C2088 N2086 1.356 . S
C2089 C2083 1.363 . S
C2089 C2084 1.379 . S
C2089 N2087 1.356 . S
N2090 C2082 1.356 . S
N2090 H2096 0.984 . S
N2090 H2097 0.984 . S
N2091 C2084 1.356 . S
N2091 H2094 0.984 . S
N2091 H2095 0.985 . S
H2092 N2087 0.984 . S
H2093 N2087 0.985 . S
H2094 N2091 0.984 . S
H2095 N2091 0.985 . S
H2096 N2090 0.984 . S
H2097 N2090 0.984 . S
H2098 N2086 0.984 . S
H2099 N2086 0.985 . S
C2100 C2101 1.363 . S
C2100 C2106 1.379 . S
C2100 N2108 1.356 . S
C2101 C2100 1.363 . S
C2101 C2107 1.363 . S
C2102 C2103 1.363 . S
C2102 C2107 1.379 . S
C2102 N2109 1.356 . S
C2103 C2102 1.363 . S
C2103 C2106 1.363 . S
N2104 C2106 1.356 . S
N2104 H2116 0.984 . S
N2104 H2117 0.985 . S
N2105 C2107 1.356 . S
N2105 H2110 0.984 . S
N2105 H2111 0.985 . S
C2106 C2100 1.379 . S
C2106 C2103 1.363 . S
C2106 N2104 1.356 . S
C2107 C2101 1.363 . S
C2107 C2102 1.379 . S
C2107 N2105 1.356 . S
N2108 C2100 1.356 . S
N2108 H2114 0.984 . S
N2108 H2115 0.984 . S
N2109 C2102 1.356 . S
N2109 H2112 0.984 . S
N2109 H2113 0.985 . S
H2110 N2105 0.984 . S
H2111 N2105 0.985 . S
H2112 N2109 0.984 . S
H2113 N2109 0.985 . S
H2114 N2108 0.984 . S
H2115 N2108 0.984 . S
H2116 N2104 0.984 . S
H2117 N2104 0.985 . S
C2118 C2119 1.363 . S
C2118 C2124 1.379 . S
C2118 N2126 1.356 . S
C2119 C2118 1.363 . S
C2119 C2125 1.363 . S
C2120 C2121 1.363 . S
C2120 C2125 1.379 . S
C2120 N2127 1.356 . S
C2121 C2120 1.363 . S
C2121 C2124 1.363 . S
N2122 C2124 1.356 . S
N2122 H2134 0.984 . S
N2122 H2135 0.985 . S
N2123 C2125 1.356 . S
N2123 H2128 0.984 . S
N2123 H2129 0.985 . S
C2124 C2118 1.379 . S
C2124 C2121 1.363 . S
C2124 N2122 1.356 . S
C2125 C2119 1.363 . S
C2125 C2120 1.379 . S
C2125 N2123 1.356 . S
N2126 C2118 1.356 . S
N2126 H2132 0.984 . S
N2126 H2133 0.984 . S
N2127 C2120 1.356 . S
N2127 H2130 0.984 . S
N2127 H2131 0.985 . S
H2128 N2123 0.984 . S
H2129 N2123 0.985 . S
H2130 N2127 0.984 . S
H2131 N2127 0.985 . S
H2132 N2126 0.984 . S
H2133 N2126 0.984 . S
H2134 N2122 0.984 . S
H2135 N2122 0.985 . S
C2136 C2137 1.363 1_556 S
C2136 C2142 1.379 . S
C2136 N2144 1.356 . S
C2137 C2136 1.363 1_554 S
C2137 C2143 1.363 . S
C2138 C2139 1.363 1_554 S
C2138 C2143 1.379 . S
C2138 N2145 1.356 . S
C2139 C2138 1.363 1_556 S
C2139 C2142 1.363 . S
N2140 C2142 1.356 . S
N2140 H2152 0.984 . S
N2140 H2153 0.985 . S
N2141 C2143 1.356 . S
N2141 H2146 0.984 . S
N2141 H2147 0.985 . S
C2142 C2136 1.379 . S
C2142 C2139 1.363 . S
C2142 N2140 1.356 . S
C2143 C2137 1.363 . S
C2143 C2138 1.379 . S
C2143 N2141 1.356 . S
N2144 C2136 1.356 . S
N2144 H2150 0.984 . S
N2144 H2151 0.984 . S
N2145 C2138 1.356 . S
N2145 H2148 0.984 . S
N2145 H2149 0.985 . S
H2146 N2141 0.984 . S
H2147 N2141 0.985 . S
H2148 N2145 0.984 . S
H2149 N2145 0.985 . S
H2150 N2144 0.984 . S
H2151 N2144 0.984 . S
H2152 N2140 0.984 . S
H2153 N2140 0.985 . S
C2154 C2155 1.363 . S
C2154 C2160 1.379 1_455 S
C2154 N2162 1.356 . S
C2155 C2154 1.363 . S
C2155 C2161 1.363 . S
C2156 C2157 1.363 . S
C2156 C2161 1.379 1_655 S
C2156 N2163 1.356 . S
C2157 C2156 1.363 . S
C2157 C2160 1.363 . S
N2158 C2160 1.356 . S
N2158 H2170 0.984 . S
N2158 H2171 0.985 . S
N2159 C2161 1.356 . S
N2159 H2164 0.984 . S
N2159 H2165 0.985 . S
C2160 C2154 1.379 1_655 S
C2160 C2157 1.363 . S
C2160 N2158 1.356 . S
C2161 C2155 1.363 . S
C2161 C2156 1.379 1_455 S
C2161 N2159 1.356 . S
N2162 C2154 1.356 . S
N2162 H2168 0.984 . S
N2162 H2169 0.984 . S
N2163 C2156 1.356 . S
N2163 H2166 0.984 . S
N2163 H2167 0.985 . S
H2164 N2159 0.984 . S
H2165 N2159 0.985 . S
H2166 N2163 0.984 . S
H2167 N2163 0.985 . S
H2168 N2162 0.984 . S
H2169 N2162 0.984 . S
H2170 N2158 0.984 . S
H2171 N2158 0.985 . S
C2172 C2173 1.363 1_554 S
C2172 C2178 1.379 1_655 S
C2172 N2180 1.356 . S
C2173 C2172 1.363 1_556 S
C2173 C2179 1.363 . S
C2174 C2175 1.363 1_556 S
C2174 C2179 1.379 1_455 S
C2174 N2181 1.356 . S
C2175 C2174 1.363 1_554 S
C2175 C2178 1.363 . S
N2176 C2178 1.356 . S
N2176 H2188 0.984 . S
N2176 H2189 0.985 . S
N2177 C2179 1.356 . S
N2177 H2182 0.984 . S
N2177 H2183 0.985 . S
C2178 C2172 1.379 1_455 S
C2178 C2175 1.363 . S
C2178 N2176 1.356 . S
C2179 C2173 1.363 . S
C2179 C2174 1.379 1_655 S
C2179 N2177 1.356 . S
N2180 C2172 1.356 . S
N2180 H2186 0.984 . S
N2180 H2187 0.984 . S
N2181 C2174 1.356 . S
N2181 H2184 0.984 . S
N2181 H2185 0.985 . S
H2182 N2177 0.984 . S
H2183 N2177 0.985 . S
H2184 N2181 0.984 . S
H2185 N2181 0.985 . S
H2186 N2180 0.984 . S
H2187 N2180 0.984 . S
H2188 N2176 0.984 . S
H2189 N2176 0.985 . S
C2190 C2191 1.363 . S
C2190 C2196 1.379 . S
C2190 N2198 1.356 . S
C2191 C2190 1.363 . S
C2191 C2197 1.363 . S
C2192 C2193 1.363 . S
C2192 C2197 1.379 . S
C2192 N2199 1.356 . S
C2193 C2192 1.363 . S
C2193 C2196 1.363 . S
N2194 C2196 1.356 . S
N2194 H2206 0.984 . S
N2194 H2207 0.985 . S
N2195 C2197 1.356 . S
N2195 H2200 0.984 . S
N2195 H2201 0.985 . S
C2196 C2190 1.379 . S
C2196 C2193 1.363 . S
C2196 N2194 1.356 . S
C2197 C2191 1.363 . S
C2197 C2192 1.379 . S
C2197 N2195 1.356 . S
N2198 C2190 1.356 . S
N2198 H2204 0.984 . S
N2198 H2205 0.984 . S
N2199 C2192 1.356 . S
N2199 H2202 0.984 . S
N2199 H2203 0.985 . S
H2200 N2195 0.984 . S
H2201 N2195 0.985 . S
H2202 N2199 0.984 . S
H2203 N2199 0.985 . S
H2204 N2198 0.984 . S
H2205 N2198 0.984 . S
H2206 N2194 0.984 . S
H2207 N2194 0.985 . S
C2208 C2209 1.363 . S
C2208 C2214 1.379 . S
C2208 N2216 1.356 . S
C2209 C2208 1.363 . S
C2209 C2215 1.363 . S
C2210 C2211 1.363 . S
C2210 C2215 1.379 . S
C2210 N2217 1.356 . S
C2211 C2210 1.363 . S
C2211 C2214 1.363 . S
N2212 C2214 1.356 . S
N2212 H2224 0.984 . S
N2212 H2225 0.985 . S
N2213 C2215 1.356 . S
N2213 H2218 0.984 . S
N2213 H2219 0.985 . S
C2214 C2208 1.379 . S
C2214 C2211 1.363 . S
C2214 N2212 1.356 . S
C2215 C2209 1.363 . S
C2215 C2210 1.379 . S
C2215 N2213 1.356 . S
N2216 C2208 1.356 . S
N2216 H2222 0.984 . S
N2216 H2223 0.984 . S
N2217 C2210 1.356 . S
N2217 H2220 0.984 . S
N2217 H2221 0.985 . S
H2218 N2213 0.984 . S
H2219 N2213 0.985 . S
H2220 N2217 0.984 . S
H2221 N2217 0.985 . S
H2222 N2216 0.984 . S
H2223 N2216 0.984 . S
H2224 N2212 0.984 . S
H2225 N2212 0.985 . S
C2226 C2227 1.355 1_565 S
C2226 C2232 1.386 . S
C2226 N2234 1.354 1_565 S
C2227 C2226 1.355 1_545 S
C2227 C2233 1.363 . S
C2228 C2229 1.355 1_545 S
C2228 C2233 1.386 . S
C2228 N2235 1.354 1_545 S
C2229 C2228 1.355 1_565 S
C2229 C2232 1.363 . S
N2230 C2232 1.356 . S
N2230 H2242 0.984 . S
N2230 H2243 0.985 . S
N2231 C2233 1.356 . S
N2231 H2236 0.984 . S
N2231 H2237 0.985 . S
C2232 C2226 1.386 . S
C2232 C2229 1.363 . S
C2232 N2230 1.356 . S
C2233 C2227 1.363 . S
C2233 C2228 1.386 . S
C2233 N2231 1.356 . S
N2234 C2226 1.354 1_545 S
N2234 H2240 0.984 1_545 S
N2234 H2241 0.984 . S
N2235 C2228 1.354 1_565 S
N2235 H2238 0.984 . S
N2235 H2239 0.985 1_565 S
H2236 N2231 0.984 . S
H2237 N2231 0.985 . S
H2238 N2235 0.984 . S
H2239 N2235 0.985 1_545 S
H2240 N2234 0.984 1_565 S
H2241 N2234 0.984 . S
H2242 N2230 0.984 . S
H2243 N2230 0.985 . S
C2244 C2245 1.363 1_556 S
C2244 C2250 1.379 . S
C2244 N2252 1.356 1_556 S
C2245 C2244 1.363 1_554 S
C2245 C2251 1.363 . S
C2246 C2247 1.363 1_554 S
C2246 C2251 1.379 . S
C2246 N2253 1.356 1_554 S
C2247 C2246 1.363 1_556 S
C2247 C2250 1.363 . S
N2248 C2250 1.356 . S
N2248 H2260 0.984 . S
N2248 H2261 0.985 . S
N2249 C2251 1.356 . S
N2249 H2254 0.984 . S
N2249 H2255 0.985 . S
C2250 C2244 1.379 . S
C2250 C2247 1.363 . S
C2250 N2248 1.356 . S
C2251 C2245 1.363 . S
C2251 C2246 1.379 . S
C2251 N2249 1.356 . S
N2252 C2244 1.356 1_554 S
N2252 H2258 0.984 1_554 S
N2252 H2259 0.984 . S
N2253 C2246 1.356 1_556 S
N2253 H2256 0.984 . S
N2253 H2257 0.985 1_556 S
H2254 N2249 0.984 . S
H2255 N2249 0.985 . S
H2256 N2253 0.984 . S
H2257 N2253 0.985 1_554 S
H2258 N2252 0.984 1_556 S
H2259 N2252 0.984 . S
H2260 N2248 0.984 . S
H2261 N2248 0.985 . S
C2262 C2263 1.363 . S
C2262 C2268 1.350 1_565 S
C2262 N2270 1.356 . S
C2263 C2262 1.363 . S
C2263 C2269 1.392 . S
C2264 C2265 1.363 . S
C2264 C2269 1.350 1_545 S
C2264 N2271 1.356 . S
C2265 C2264 1.363 . S
C2265 C2268 1.392 . S
N2266 C2268 1.367 . S
N2266 H2278 0.984 1_545 S
N2266 H2279 0.985 . S
N2267 C2269 1.367 . S
N2267 H2272 0.984 . S
N2267 H2273 0.985 1_565 S
C2268 C2262 1.350 1_545 S
C2268 C2265 1.392 . S
C2268 N2266 1.367 . S
C2269 C2263 1.392 . S
C2269 C2264 1.350 1_565 S
C2269 N2267 1.367 . S
N2270 C2262 1.356 . S
N2270 H2276 0.984 . S
N2270 H2277 0.984 . S
N2271 C2264 1.356 . S
N2271 H2274 0.984 . S
N2271 H2275 0.985 . S
H2272 N2267 0.984 . S
H2273 N2267 0.985 1_545 S
H2274 N2271 0.984 . S
H2275 N2271 0.985 . S
H2276 N2270 0.984 . S
H2277 N2270 0.984 . S
H2278 N2266 0.984 1_565 S
H2279 N2266 0.985 . S
C2280 C2281 1.363 . S
C2280 C2286 1.379 . S
C2280 N2288 1.356 . S
C2281 C2280 1.363 . S
C2281 C2287 1.363 . S
C2282 C2283 1.363 . S
C2282 C2287 1.379 . S
C2282 N2289 1.356 . S
C2283 C2282 1.363 . S
C2283 C2286 1.363 . S
N2284 C2286 1.356 . S
N2284 H2296 0.984 . S
N2284 H2297 0.985 . S
N2285 C2287 1.356 . S
N2285 H2290 0.984 . S
N2285 H2291 0.985 . S
C2286 C2280 1.379 . S
C2286 C2283 1.363 . S
C2286 N2284 1.356 . S
C2287 C2281 1.363 . S
C2287 C2282 1.379 . S
C2287 N2285 1.356 . S
N2288 C2280 1.356 . S
N2288 H2294 0.984 . S
N2288 H2295 0.984 . S
N2289 C2282 1.356 . S
N2289 H2292 0.984 . S
N2289 H2293 0.985 . S
H2290 N2285 0.984 . S
H2291 N2285 0.985 . S
H2292 N2289 0.984 . S
H2293 N2289 0.985 . S
H2294 N2288 0.984 . S
H2295 N2288 0.984 . S
H2296 N2284 0.984 . S
H2297 N2284 0.985 . S
C2298 C2299 1.363 . S
C2298 C2304 1.379 1_545 S
C2298 N2306 1.356 . S
C2299 C2298 1.363 . S
C2299 C2305 1.363 . S
C2300 C2301 1.363 . S
C2300 C2305 1.379 1_565 S
C2300 N2307 1.356 . S
C2301 C2300 1.363 . S
C2301 C2304 1.363 . S
N2302 C2304 1.356 . S
N2302 H2314 0.984 . S
N2302 H2315 0.985 . S
N2303 C2305 1.356 . S
N2303 H2308 0.984 . S
N2303 H2309 0.985 . S
C2304 C2298 1.379 1_565 S
C2304 C2301 1.363 . S
C2304 N2302 1.356 . S
C2305 C2299 1.363 . S
C2305 C2300 1.379 1_545 S
C2305 N2303 1.356 . S
N2306 C2298 1.356 . S
N2306 H2312 0.984 . S
N2306 H2313 0.984 . S
N2307 C2300 1.356 . S
N2307 H2310 0.984 . S
N2307 H2311 0.985 . S
H2308 N2303 0.984 . S
H2309 N2303 0.985 . S
H2310 N2307 0.984 . S
H2311 N2307 0.985 . S
H2312 N2306 0.984 . S
H2313 N2306 0.984 . S
H2314 N2302 0.984 . S
H2315 N2302 0.985 . S
C2316 C2317 1.363 1_554 S
C2316 C2322 1.379 . S
C2316 N2324 1.356 1_554 S
C2317 C2316 1.363 1_556 S
C2317 C2323 1.363 . S
C2318 C2319 1.363 1_556 S
C2318 C2323 1.379 . S
C2318 N2325 1.356 1_556 S
C2319 C2318 1.363 1_554 S
C2319 C2322 1.363 . S
N2320 C2322 1.356 . S
N2320 H2332 0.984 . S
N2320 H2333 0.985 . S
N2321 C2323 1.356 . S
N2321 H2326 0.984 . S
N2321 H2327 0.985 . S
C2322 C2316 1.379 . S
C2322 C2319 1.363 . S
C2322 N2320 1.356 . S
C2323 C2317 1.363 . S
C2323 C2318 1.379 . S
C2323 N2321 1.356 . S
N2324 C2316 1.356 1_556 S
N2324 H2330 0.984 1_556 S
N2324 H2331 0.984 . S
N2325 C2318 1.356 1_554 S
N2325 H2328 0.984 . S
N2325 H2329 0.985 1_554 S
H2326 N2321 0.984 . S
H2327 N2321 0.985 . S
H2328 N2325 0.984 . S
H2329 N2325 0.985 1_556 S
H2330 N2324 0.984 1_554 S
H2331 N2324 0.984 . S
H2332 N2320 0.984 . S
H2333 N2320 0.985 . S
C2334 C2335 1.363 . S
C2334 C2340 1.379 1_545 S
C2334 N2342 1.356 . S
C2335 C2334 1.363 . S
C2335 C2341 1.363 . S
C2336 C2337 1.363 . S
C2336 C2341 1.379 1_565 S
C2336 N2343 1.356 . S
C2337 C2336 1.363 . S
C2337 C2340 1.363 . S
N2338 C2340 1.356 . S
N2338 H2350 0.984 . S
N2338 H2351 0.985 . S
N2339 C2341 1.356 . S
N2339 H2344 0.984 . S
N2339 H2345 0.985 . S
C2340 C2334 1.379 1_565 S
C2340 C2337 1.363 . S
C2340 N2338 1.356 . S
C2341 C2335 1.363 . S
C2341 C2336 1.379 1_545 S
C2341 N2339 1.356 . S
N2342 C2334 1.356 . S
N2342 H2348 0.984 . S
N2342 H2349 0.984 . S
N2343 C2336 1.356 . S
N2343 H2346 0.984 . S
N2343 H2347 0.985 . S
H2344 N2339 0.984 . S
H2345 N2339 0.985 . S
H2346 N2343 0.984 . S
H2347 N2343 0.985 . S
H2348 N2342 0.984 . S
H2349 N2342 0.984 . S
H2350 N2338 0.984 . S
H2351 N2338 0.985 . S
C2352 C2353 1.363 1_554 S
C2352 C2358 1.379 . S
C2352 N2360 1.356 1_554 S
C2353 C2352 1.363 1_556 S
C2353 C2359 1.363 . S
C2354 C2355 1.363 1_556 S
C2354 C2359 1.379 . S
C2354 N2361 1.356 1_556 S
C2355 C2354 1.363 1_554 S
C2355 C2358 1.363 . S
N2356 C2358 1.356 . S
N2356 H2368 0.984 . S
N2356 H2369 0.985 . S
N2357 C2359 1.356 . S
N2357 H2362 0.984 . S
N2357 H2363 0.985 . S
C2358 C2352 1.379 . S
C2358 C2355 1.363 . S
C2358 N2356 1.356 . S
C2359 C2353 1.363 . S
C2359 C2354 1.379 . S
C2359 N2357 1.356 . S
N2360 C2352 1.356 1_556 S
N2360 H2366 0.984 1_556 S
N2360 H2367 0.984 . S
N2361 C2354 1.356 1_554 S
N2361 H2364 0.984 . S
N2361 H2365 0.985 1_554 S
H2362 N2357 0.984 . S
H2363 N2357 0.985 . S
H2364 N2361 0.984 . S
H2365 N2361 0.985 1_556 S
H2366 N2360 0.984 1_554 S
H2367 N2360 0.984 . S
H2368 N2356 0.984 . S
H2369 N2356 0.985 . S
C2370 C2371 1.363 . S
C2370 C2376 1.379 . S
C2370 N2378 1.356 . S
C2371 C2370 1.363 . S
C2371 C2377 1.363 . S
C2372 C2373 1.363 . S
C2372 C2377 1.379 . S
C2372 N2379 1.356 . S
C2373 C2372 1.363 . S
C2373 C2376 1.363 . S
N2374 C2376 1.356 . S
N2374 H2386 0.984 . S
N2374 H2387 0.985 . S
N2375 C2377 1.356 . S
N2375 H2380 0.984 . S
N2375 H2381 0.985 . S
C2376 C2370 1.379 . S
C2376 C2373 1.363 . S
C2376 N2374 1.356 . S
C2377 C2371 1.363 . S
C2377 C2372 1.379 . S
C2377 N2375 1.356 . S
N2378 C2370 1.356 . S
N2378 H2384 0.984 . S
N2378 H2385 0.984 . S
N2379 C2372 1.356 . S
N2379 H2382 0.984 . S
N2379 H2383 0.985 . S
H2380 N2375 0.984 . S
H2381 N2375 0.985 . S
H2382 N2379 0.984 . S
H2383 N2379 0.985 . S
H2384 N2378 0.984 . S
H2385 N2378 0.984 . S
H2386 N2374 0.984 . S
H2387 N2374 0.985 . S
C2388 C2389 1.363 . S
C2388 C2394 1.379 . S
C2388 N2396 1.356 . S
C2389 C2388 1.363 . S
C2389 C2395 1.363 . S
C2390 C2391 1.363 . S
C2390 C2395 1.379 . S
C2390 N2397 1.356 . S
C2391 C2390 1.363 . S
C2391 C2394 1.363 . S
N2392 C2394 1.356 . S
N2392 H2404 0.984 . S
N2392 H2405 0.985 . S
N2393 C2395 1.356 . S
N2393 H2398 0.984 . S
N2393 H2399 0.985 . S
C2394 C2388 1.379 . S
C2394 C2391 1.363 . S
C2394 N2392 1.356 . S
C2395 C2389 1.363 . S
C2395 C2390 1.379 . S
C2395 N2393 1.356 . S
N2396 C2388 1.356 . S
N2396 H2402 0.984 . S
N2396 H2403 0.984 . S
N2397 C2390 1.356 . S
N2397 H2400 0.984 . S
N2397 H2401 0.985 . S
H2398 N2393 0.984 . S
H2399 N2393 0.985 . S
H2400 N2397 0.984 . S
H2401 N2397 0.985 . S
H2402 N2396 0.984 . S
H2403 N2396 0.984 . S
H2404 N2392 0.984 . S
H2405 N2392 0.985 . S
C2406 C2407 1.363 . S
C2406 C2412 1.379 . S
C2406 N2414 1.356 . S
C2407 C2406 1.363 . S
C2407 C2413 1.363 . S
C2408 C2409 1.363 . S
C2408 C2413 1.379 . S
C2408 N2415 1.356 . S
C2409 C2408 1.363 . S
C2409 C2412 1.363 . S
N2410 C2412 1.356 . S
N2410 H2422 0.984 . S
N2410 H2423 0.985 . S
N2411 C2413 1.356 . S
N2411 H2416 0.984 . S
N2411 H2417 0.985 . S
C2412 C2406 1.379 . S
C2412 C2409 1.363 . S
C2412 N2410 1.356 . S
C2413 C2407 1.363 . S
C2413 C2408 1.379 . S
C2413 N2411 1.356 . S
N2414 C2406 1.356 . S
N2414 H2420 0.984 . S
N2414 H2421 0.984 . S
N2415 C2408 1.356 . S
N2415 H2418 0.984 . S
N2415 H2419 0.985 . S
H2416 N2411 0.984 . S
H2417 N2411 0.985 . S
H2418 N2415 0.984 . S
H2419 N2415 0.985 . S
H2420 N2414 0.984 . S
H2421 N2414 0.984 . S
H2422 N2410 0.984 . S
H2423 N2410 0.985 . S
C2424 C2425 1.363 1_556 S
C2424 C2430 1.379 . S
C2424 N2432 1.356 1_556 S
C2425 C2424 1.363 1_554 S
C2425 C2431 1.363 . S
C2426 C2427 1.363 1_554 S
C2426 C2431 1.379 . S
C2426 N2433 1.356 1_554 S
C2427 C2426 1.363 1_556 S
C2427 C2430 1.363 . S
N2428 C2430 1.356 . S
N2428 H2440 0.984 . S
N2428 H2441 0.985 . S
N2429 C2431 1.356 . S
N2429 H2434 0.984 . S
N2429 H2435 0.985 . S
C2430 C2424 1.379 . S
C2430 C2427 1.363 . S
C2430 N2428 1.356 . S
C2431 C2425 1.363 . S
C2431 C2426 1.379 . S
C2431 N2429 1.356 . S
N2432 C2424 1.356 1_554 S
N2432 H2438 0.984 1_554 S
N2432 H2439 0.984 . S
N2433 C2426 1.356 1_556 S
N2433 H2436 0.984 . S
N2433 H2437 0.985 1_556 S
H2434 N2429 0.984 . S
H2435 N2429 0.985 . S
H2436 N2433 0.984 . S
H2437 N2433 0.985 1_554 S
H2438 N2432 0.984 1_556 S
H2439 N2432 0.984 . S
H2440 N2428 0.984 . S
H2441 N2428 0.985 . S
C2442 C2443 1.363 . S
C2442 C2448 1.379 . S
C2442 N2450 1.356 . S
C2443 C2442 1.363 . S
C2443 C2449 1.363 . S
C2444 C2445 1.363 . S
C2444 C2449 1.379 . S
C2444 N2451 1.356 . S
C2445 C2444 1.363 . S
C2445 C2448 1.363 . S
N2446 C2448 1.356 . S
N2446 H2458 0.984 . S
N2446 H2459 0.985 . S
N2447 C2449 1.356 . S
N2447 H2452 0.984 . S
N2447 H2453 0.985 . S
C2448 C2442 1.379 . S
C2448 C2445 1.363 . S
C2448 N2446 1.356 . S
C2449 C2443 1.363 . S
C2449 C2444 1.379 . S
C2449 N2447 1.356 . S
N2450 C2442 1.356 . S
N2450 H2456 0.984 . S
N2450 H2457 0.984 . S
N2451 C2444 1.356 . S
N2451 H2454 0.984 . S
N2451 H2455 0.985 . S
H2452 N2447 0.984 . S
H2453 N2447 0.985 . S
H2454 N2451 0.984 . S
H2455 N2451 0.985 . S
H2456 N2450 0.984 . S
H2457 N2450 0.984 . S
H2458 N2446 0.984 . S
H2459 N2446 0.985 . S
C2460 C2461 1.363 . S
C2460 C2466 1.379 . S
C2460 N2468 1.356 . S
C2461 C2460 1.363 . S
C2461 C2467 1.363 . S
C2462 C2463 1.363 . S
C2462 C2467 1.379 . S
C2462 N2469 1.356 . S
C2463 C2462 1.363 . S
C2463 C2466 1.363 . S
N2464 C2466 1.356 . S
N2464 H2476 0.984 . S
N2464 H2477 0.985 . S
N2465 C2467 1.356 . S
N2465 H2470 0.984 . S
N2465 H2471 0.985 . S
C2466 C2460 1.379 . S
C2466 C2463 1.363 . S
C2466 N2464 1.356 . S
C2467 C2461 1.363 . S
C2467 C2462 1.379 . S
C2467 N2465 1.356 . S
N2468 C2460 1.356 . S
N2468 H2474 0.984 . S
N2468 H2475 0.984 . S
N2469 C2462 1.356 . S
N2469 H2472 0.984 . S
N2469 H2473 0.985 . S
H2470 N2465 0.984 . S
H2471 N2465 0.985 . S
H2472 N2469 0.984 . S
H2473 N2469 0.985 . S
H2474 N2468 0.984 . S
H2475 N2468 0.984 . S
H2476 N2464 0.984 . S
H2477 N2464 0.985 . S
C2478 C2479 1.363 . S
C2478 C2484 1.379 . S
C2478 N2486 1.356 . S
C2479 C2478 1.363 . S
C2479 C2485 1.363 . S
C2480 C2481 1.363 . S
C2480 C2485 1.379 . S
C2480 N2487 1.356 . S
C2481 C2480 1.363 . S
C2481 C2484 1.363 . S
N2482 C2484 1.356 . S
N2482 H2494 0.984 . S
N2482 H2495 0.985 . S
N2483 C2485 1.356 . S
N2483 H2488 0.984 . S
N2483 H2489 0.985 . S
C2484 C2478 1.379 . S
C2484 C2481 1.363 . S
C2484 N2482 1.356 . S
C2485 C2479 1.363 . S
C2485 C2480 1.379 . S
C2485 N2483 1.356 . S
N2486 C2478 1.356 . S
N2486 H2492 0.984 . S
N2486 H2493 0.984 . S
N2487 C2480 1.356 . S
N2487 H2490 0.984 . S
N2487 H2491 0.985 . S
H2488 N2483 0.984 . S
H2489 N2483 0.985 . S
H2490 N2487 0.984 . S
H2491 N2487 0.985 . S
H2492 N2486 0.984 . S
H2493 N2486 0.984 . S
H2494 N2482 0.984 . S
H2495 N2482 0.985 . S
C1057 C249 1.697 . S
C1059 C18 1.697 . S
C1075 C51 1.697 . S
C1077 C150 1.697 . S
C1093 C84 1.697 . S
C1095 C183 1.697 . S
C1111 C216 1.697 . S
C1113 C117 1.697 . S
C1129 C282 1.697 . S
C1131 C513 1.697 . S
C1147 C414 1.697 . S
C1149 C315 1.697 . S
C1165 C348 1.697 . S
C1167 C447 1.697 . S
C1183 C480 1.697 . S
C1185 C381 1.697 . S
C1201 C777 1.697 . S
C1203 C546 1.697 . S
C1219 C678 1.697 . S
C1221 C579 1.697 . S
C1237 C711 1.697 . S
C1239 C612 1.697 . S
C1255 C744 1.697 . S
C1257 C645 1.697 . S
C1273 C1041 1.697 . S
C1275 C810 1.697 . S
C1291 C843 1.697 . S
C1293 C942 1.697 . S
C1309 C975 1.697 . S
C1311 C876 1.697 . S
C1327 C1008 1.697 . S
C1329 C909 1.697 . S
C1345 C21 1.528 . S
C1347 N904 1.525 . S
C1363 N277 1.525 . S
C1365 C54 1.482 1_655 S
C1381 N838 1.525 . S
C1383 C87 1.528 . S
C1399 C120 1.528 . S
C1401 N343 1.525 . S
C1417 N970 1.525 . S
C1419 C153 1.528 . S
C1435 C186 1.528 . S
C1437 N475 1.525 . S
C1453 N1036 1.525 . S
C1455 C219 1.528 . S
C1471 N409 1.525 . S
C1473 C252 1.482 1_655 S
C1489 C285 1.528 . S
C1491 N640 1.525 . S
C1507 C318 1.482 1_455 S
C1509 N13 1.525 . S
C1525 N574 1.525 . S
C1527 C351 1.528 . S
C1543 N79 1.525 . S
C1545 C384 1.528 . S
C1561 N706 1.525 . S
C1563 C417 1.528 . S
C1579 N211 1.525 . S
C1581 C450 1.528 . S
C1597 C483 1.528 . S
C1599 N772 1.525 . S
C1615 C516 1.482 1_455 S
C1617 N145 1.525 . S
C1633 C549 1.528 . S
C1635 N376 1.525 . S
C1651 N805 1.525 . S
C1653 C582 1.528 . S
C1669 N310 1.525 . S
C1671 C615 1.528 . S
C1687 C648 1.482 1_455 S
C1689 N871 1.525 . S
C1705 C681 1.528 . S
C1707 N442 1.525 . S
C1723 N1003 1.525 . S
C1725 C714 1.482 1_455 S
C1741 N508 1.525 . S
C1743 C747 1.528 . S
C1759 C780 1.528 . S
C1761 N937 1.525 . S
C1777 N112 1.525 . S
C1779 C813 1.528 . S
C1795 N541 1.525 . S
C1797 C846 1.528 . S
C1813 N46 1.525 . S
C1815 C879 1.528 . S
C1831 N607 1.525 . S
C1833 C912 1.482 1_655 S
C1849 C945 1.528 . S
C1851 N178 1.525 . S
C1867 C978 1.482 1_655 S
C1869 N739 1.525 . S
C1885 C1011 1.528 . S
C1887 N244 1.525 . S
C1903 N673 1.525 . S
C1905 C1044 1.528 . S
C1921 N2 1.197 . S
C1923 N794 1.197 . S
C1939 N35 1.197 . S
C1941 N299 1.197 . S
C1957 N68 1.197 . S
C1959 N860 1.197 . S
C1975 N365 1.196 1_556 S
C1977 N101 1.196 1_554 S
C1993 N926 1.197 . S
C1995 N134 1.197 . S
C2011 N167 1.197 . S
C2013 N431 1.197 . S
C2029 N200 1.197 . S
C2031 N992 1.197 . S
C2047 N233 1.196 1_556 S
C2049 N497 1.196 1_554 S
C2065 N530 1.197 . S
C2067 N266 1.197 . S
C2083 N332 1.197 . S
C2085 N596 1.197 . S
C2101 N662 1.197 . S
C2103 N398 1.197 . S
C2119 N464 1.197 . S
C2121 N728 1.197 . S
C2137 N563 1.196 1_554 S
C2139 N827 1.196 1_556 S
C2155 N893 1.197 . S
C2157 N629 1.197 . S
C2173 N695 1.196 1_556 S
C2175 N959 1.196 1_554 S
C2191 N1025 1.197 . S
C2193 N761 1.197 . S
C2209 C7 1.825 . S
C2211 C205 1.825 . S
C2227 C238 1.825 . S
C2229 C40 1.825 . S
C2245 C139 1.825 . S
C2247 C73 1.825 . S
C2263 C172 1.825 . S
C2265 C106 1.825 . S
C2281 C271 1.825 . S
C2283 C469 1.825 . S
C2299 C304 1.825 . S
C2301 C502 1.825 . S
C2317 C403 1.825 . S
C2319 C337 1.825 . S
C2335 C436 1.825 . S
C2337 C370 1.825 . S
C2353 C535 1.825 . S
C2355 C733 1.825 . S
C2371 C568 1.825 . S
C2373 C766 1.825 . S
C2389 C667 1.825 . S
C2391 C601 1.825 . S
C2407 C700 1.825 . S
C2409 C634 1.825 . S
C2425 C799 1.825 . S
C2427 C997 1.825 . S
C2443 C832 1.825 . S
C2445 C1030 1.825 . S
C2461 C931 1.825 . S
C2463 C865 1.825 . S
C2479 C898 1.825 . S
C2481 C964 1.825 . S
