# Generated by pormake.
# Topology mdf, (4)-cn, num edge types: 1
# Building blocks:
#     Node 0, Type 0, BuildingBlock: CEKHIL_clean_sbu_0, # of connection points: 4
#     Node 1, Type 0, BuildingBlock: CEKHIL_clean_sbu_0, # of connection points: 4
#     Node 2, Type 0, BuildingBlock: CEKHIL_clean_sbu_0, # of connection points: 4
#     Node 3, Type 0, BuildingBlock: CEKHIL_clean_sbu_0, # of connection points: 4
#     Node 4, Type 0, BuildingBlock: CEKHIL_clean_sbu_0, # of connection points: 4
#     Node 5, Type 0, BuildingBlock: CEKHIL_clean_sbu_0, # of connection points: 4
#     Node 6, Type 0, BuildingBlock: CEKHIL_clean_sbu_0, # of connection points: 4
#     Node 7, Type 0, BuildingBlock: CEKHIL_clean_sbu_0, # of connection points: 4
#     Edge 8, Type (0, 0), BuildingBlock: FUNLAD_clean_linker_0, # of connection points: 2
#     Edge 9, Type (0, 0), BuildingBlock: FUNLAD_clean_linker_0, # of connection points: 2
#     Edge 10, Type (0, 0), BuildingBlock: FUNLAD_clean_linker_0, # of connection points: 2
#     Edge 11, Type (0, 0), BuildingBlock: FUNLAD_clean_linker_0, # of connection points: 2
#     Edge 12, Type (0, 0), BuildingBlock: FUNLAD_clean_linker_0, # of connection points: 2
#     Edge 13, Type (0, 0), BuildingBlock: FUNLAD_clean_linker_0, # of connection points: 2
#     Edge 14, Type (0, 0), BuildingBlock: FUNLAD_clean_linker_0, # of connection points: 2
#     Edge 15, Type (0, 0), BuildingBlock: FUNLAD_clean_linker_0, # of connection points: 2
#     Edge 16, Type (0, 0), BuildingBlock: FUNLAD_clean_linker_0, # of connection points: 2
#     Edge 17, Type (0, 0), BuildingBlock: FUNLAD_clean_linker_0, # of connection points: 2
#     Edge 18, Type (0, 0), BuildingBlock: FUNLAD_clean_linker_0, # of connection points: 2
#     Edge 19, Type (0, 0), BuildingBlock: FUNLAD_clean_linker_0, # of connection points: 2
#     Edge 20, Type (0, 0), BuildingBlock: FUNLAD_clean_linker_0, # of connection points: 2
#     Edge 21, Type (0, 0), BuildingBlock: FUNLAD_clean_linker_0, # of connection points: 2
#     Edge 22, Type (0, 0), BuildingBlock: FUNLAD_clean_linker_0, # of connection points: 2
#     Edge 23, Type (0, 0), BuildingBlock: FUNLAD_clean_linker_0, # of connection points: 2
# Relax obj value: 0.019
# Max RMSD: 0.044
# Mean RMSD: 0.044
data_MOF--net-mdf--node1-CEKHIL_clean_sbu_0--edge1-FUNLAD_clean_linker_0
_symmetry_space_group_name_H-M    P1
_symmetry_Int_Tables_number       1
_symmetry_cell_setting            triclinic
loop_
_symmetry_equiv_pos_as_xyz
'x, y, z'
_cell_length_a     44.170773
_cell_length_b     44.219941
_cell_length_c     13.197996
_cell_angle_alpha  89.921398
_cell_angle_beta   89.995703
_cell_angle_gamma 91.359331
loop_
_atom_site_label
_atom_site_type_symbol
_atom_site_fract_x
_atom_site_fract_y
_atom_site_fract_z
_atom_type_partial_charge
Co0 Co 0.25317 0.53789 0.37357 0.0
O1 O 0.2245 0.57004 0.37428 0.0
O2 O 0.23539 0.54232 0.508 0.0
C3 C 0.28984 0.5637 0.28913 0.0
O4 O 0.28285 0.50348 0.40005 0.0
Co5 Co 0.27325 0.51094 0.16655 0.0
O6 O 0.30425 0.49131 0.25099 0.0
C7 C 0.21244 0.49636 0.24673 0.0
C8 C 0.22003 0.56437 0.4695 0.0
C9 C 0.30254 0.48905 0.34719 0.0
O10 O 0.21992 0.50822 0.33256 0.0
O11 O 0.22957 0.49764 0.1685 0.0
O12 O 0.28678 0.56736 0.38627 0.0
O13 O 0.26915 0.54715 0.24622 0.0
Co14 Co 0.47051 0.74896 0.60517 0.0
O15 O 0.43733 0.77617 0.59798 0.0
O16 O 0.46608 0.76476 0.46748 0.0
C17 C 0.44571 0.71273 0.69481 0.0
O18 O 0.50639 0.7204 0.58769 0.0
Co19 Co 0.49643 0.73524 0.82006 0.0
O20 O 0.52045 0.70555 0.7443 0.0
C21 C 0.50986 0.79399 0.72445 0.0
C22 C 0.44344 0.77995 0.50287 0.0
C23 C 0.52274 0.70439 0.64801 0.0
O24 O 0.49869 0.7839 0.64064 0.0
O25 O 0.50854 0.77906 0.80755 0.0
O26 O 0.44249 0.71406 0.597 0.0
O27 O 0.46099 0.73487 0.73465 0.0
Co28 Co 0.25707 0.97485 0.85331 0.0
O29 O 0.28322 0.9407 0.8563 0.0
O30 O 0.27337 0.96897 0.98942 0.0
C31 C 0.21964 0.95203 0.76389 0.0
O32 O 0.22978 0.01139 0.87636 0.0
Co33 Co 0.24194 0.00302 0.6423 0.0
O34 O 0.21353 0.02714 0.7233 0.0
C35 C 0.30257 0.01192 0.73014 0.0
C36 C 0.28758 0.94605 0.95166 0.0
C37 C 0.21344 0.02856 0.81986 0.0
O38 O 0.29275 1.00201 0.81619 0.0
O39 O 0.28666 0.0111 0.64912 0.0
O40 O 0.22118 0.94791 0.86134 0.0
O41 O 0.24202 0.96698 0.72442 0.0
Co42 Co 0.03448 0.75644 0.12981 0.0
O43 O 0.0655 0.72672 0.12358 0.0
O44 O 0.04023 0.7427 0.99043 0.0
C45 C 0.06036 0.78874 0.2313 0.0
O46 O 1.00141 0.7881 0.11021 0.0
Co47 Co 0.00564 0.77073 0.3402 0.0
O48 O 0.98956 0.80573 0.26522 0.0
C49 C 0.99162 0.71291 0.23794 0.0
C50 C 0.06088 0.72512 0.02688 0.0
C51 C 0.98801 0.80709 0.1688 0.0
O52 O 0.00337 0.7232 0.15513 0.0
O53 O 0.99284 0.72731 0.32199 0.0
O54 O 0.06523 0.7892 0.13409 0.0
O55 O 0.04242 0.76745 0.26302 0.0
Co56 Co 0.7507 0.03379 0.8718 0.0
O57 O 0.72359 0.06699 0.88116 0.0
O58 O 0.73836 0.04017 0.01247 0.0
C59 C 0.78428 0.05756 0.76834 0.0
O60 O 0.77984 0.99833 0.88753 0.0
Co61 Co 0.75995 0.00486 0.65874 0.0
O62 O 0.79164 0.98221 0.7305 0.0
C63 C 0.70286 0.99421 0.76878 0.0
C64 C 0.72227 0.06229 0.97784 0.0
C65 C 0.79484 0.98132 0.82655 0.0
O66 O 0.71506 0.00517 0.8498 0.0
O67 O 0.71598 0.99498 0.68229 0.0
O68 O 0.78562 0.06196 0.86566 0.0
O69 O 0.7614 0.0415 0.73761 0.0
Co70 Co 0.97696 0.25191 0.14104 0.0
O71 O 0.94557 0.28123 0.12722 0.0
O72 O 0.97452 0.26618 0.00154 0.0
C73 C 0.94927 0.21832 0.23302 0.0
O74 O 0.01077 0.22085 0.12733 0.0
Co75 Co 1.00133 0.23566 0.3558 0.0
O76 O 0.01958 0.20154 0.28235 0.0
C77 C 0.01855 0.29414 0.26167 0.0
C78 C 0.95245 0.28299 0.03192 0.0
C79 C 0.02323 0.20137 0.18649 0.0
O80 O 0.00717 0.28532 0.17643 0.0
O81 O 0.01609 0.27867 0.34349 0.0
O82 O 0.94668 0.21877 0.13489 0.0
O83 O 0.96606 0.23958 0.27128 0.0
Co84 Co 0.7541 0.46821 0.39177 0.0
O85 O 0.78467 0.43828 0.40922 0.0
O86 O 0.76537 0.46473 0.53425 0.0
C87 C 0.72441 0.44008 0.28802 0.0
O88 O 0.72111 0.50033 0.40053 0.0
Co89 Co 0.7418 0.49405 0.17553 0.0
O90 O 0.70506 0.50968 0.24163 0.0
C91 C 0.79694 0.51288 0.28734 0.0
C92 C 0.78411 0.4441 0.50532 0.0
C93 C 0.70248 0.51242 0.33741 0.0
O94 O 0.78663 0.50022 0.36868 0.0
O95 O 0.78367 0.51062 0.20132 0.0
O96 O 0.72241 0.4364 0.38561 0.0
O97 O 0.74564 0.45834 0.25775 0.0
Co98 Co 0.53519 0.25209 0.64159 0.0
O99 O 0.5687 0.22505 0.63889 0.0
O100 O 0.54139 0.23663 0.50487 0.0
C101 C 0.5585 0.28815 0.73535 0.0
O102 O 0.49957 0.2805 0.6172 0.0
Co103 Co 0.50548 0.26717 0.84947 0.0
O104 O 0.48424 0.29793 0.76876 0.0
C105 C 0.49647 0.20686 0.75934 0.0
C106 C 0.56371 0.22153 0.54287 0.0
C107 C 0.48326 0.29809 0.67217 0.0
O108 O 0.50704 0.21686 0.67442 0.0
O109 O 0.49665 0.22261 0.84065 0.0
O110 O 0.56313 0.28718 0.63807 0.0
O111 O 0.54252 0.26605 0.77225 0.0
C112 C 0.40967 0.66877 0.71607 0.0
C113 C 0.43166 0.68856 0.75726 0.0
C114 C 0.39443 0.64776 0.77796 0.0
C115 C 0.4009 0.646 0.8821 0.0
C116 C 0.42416 0.66482 0.92193 0.0
C117 C 0.43916 0.68602 0.86022 0.0
C118 C 0.38214 0.62498 0.94585 0.0
C119 C 0.38103 0.62601 0.04807 0.0
C120 C 0.35925 0.60774 0.11066 0.0
C121 C 0.35453 0.61632 0.21193 0.0
C122 C 0.33262 0.60142 0.27142 0.0
C123 C 0.31488 0.57773 0.23051 0.0
H124 H 0.34605 0.57442 0.99611 0.0
C125 C 0.32039 0.56824 0.13091 0.0
C126 C 0.34252 0.58282 0.07189 0.0
H127 H 0.3074 0.54966 0.09794 0.0
H128 H 0.40355 0.67013 0.63675 0.0
H129 H 0.37691 0.63337 0.74465 0.0
H130 H 0.4309 0.66365 0.00047 0.0
H131 H 0.45641 0.70069 0.89365 0.0
H132 H 0.36695 0.6097 0.90526 0.0
H133 H 0.3949 0.64254 0.08847 0.0
H134 H 0.36727 0.63516 0.24448 0.0
H135 H 0.32895 0.60909 0.34827 0.0
C136 C 0.4318 0.80711 0.33854 0.0
C137 C 0.42533 0.80113 0.44103 0.0
C138 C 0.41443 0.8277 0.28323 0.0
C139 C 0.39008 0.84265 0.32943 0.0
C140 C 0.38396 0.83663 0.4319 0.0
C141 C 0.40119 0.8162 0.4867 0.0
C142 C 0.37061 0.86492 0.27589 0.0
C143 C 0.36892 0.86809 0.17434 0.0
C144 C 0.34782 0.88894 0.12129 0.0
C145 C 0.342 0.88396 0.01804 0.0
C146 C 0.32244 0.90246 0.96419 0.0
C147 C 0.30813 0.92674 0.01171 0.0
H148 H 0.33807 0.91882 0.24778 0.0
C149 C 0.31406 0.93212 0.11484 0.0
C150 C 0.33374 0.9135 0.16912 0.0
H151 H 0.30362 0.95079 0.15348 0.0
H152 H 0.45039 0.79608 0.30133 0.0
H153 H 0.42054 0.83203 0.20516 0.0
H154 H 0.36557 0.84772 0.47015 0.0
H155 H 0.39551 0.81232 0.56556 0.0
H156 H 0.35576 0.87806 0.3232 0.0
H157 H 0.38227 0.85357 0.12659 0.0
H158 H 0.3525 0.86547 0.97858 0.0
H159 H 0.31858 0.89761 0.88475 0.0
C160 C 0.0933 0.83435 0.26799 0.0
C161 C 0.07406 0.81081 0.3023 0.0
C162 C 0.10737 0.85403 0.33731 0.0
C163 C 0.1023 0.85047 0.44218 0.0
C164 C 0.08275 0.82716 0.47581 0.0
C165 C 0.06863 0.80766 0.40673 0.0
C166 C 0.1189 0.86877 0.51907 0.0
C167 C 0.13021 0.89677 0.50124 0.0
C168 C 0.15064 0.91291 0.57329 0.0
C169 C 0.17205 0.93367 0.53401 0.0
C170 C 0.19391 0.94698 0.59685 0.0
C171 C 0.19462 0.94005 0.70073 0.0
H172 H 0.13341 0.89221 0.71222 0.0
C173 C 0.17217 0.92065 0.74154 0.0
C174 C 0.15028 0.9072 0.67841 0.0
H175 H 0.17195 0.91527 0.82163 0.0
H176 H 0.09799 0.83717 0.18793 0.0
H177 H 0.12301 0.87116 0.3085 0.0
H178 H 0.07866 0.82377 0.55604 0.0
H179 H 0.05392 0.78969 0.43563 0.0
H180 H 0.12264 0.85808 0.59193 0.0
H181 H 0.1264 0.90739 0.42826 0.0
H182 H 0.17263 0.93874 0.45365 0.0
H183 H 0.21074 0.96213 0.56327 0.0
C184 C 0.07611 0.70291 0.85787 0.0
C185 C 0.07836 0.70369 0.96412 0.0
C186 C 0.09319 0.68245 0.80116 0.0
C187 C 0.11284 0.66228 0.84986 0.0
C188 C 0.11458 0.66295 0.95597 0.0
C189 C 0.0978 0.68339 0.01215 0.0
C190 C 0.13148 0.63974 0.79469 0.0
C191 C 0.13973 0.64224 0.69645 0.0
C192 C 0.15974 0.62066 0.64175 0.0
C193 C 0.16312 0.62412 0.53652 0.0
C194 C 0.1823 0.60558 0.48134 0.0
C195 C 0.19884 0.58291 0.52964 0.0
H196 H 0.17487 0.59424 0.77124 0.0
C197 C 0.1954 0.57904 0.63474 0.0
C198 C 0.17616 0.59771 0.69035 0.0
H199 H 0.20792 0.56189 0.67435 0.0
H200 H 0.0612 0.71809 0.81859 0.0
H201 H 0.09048 0.68224 0.71974 0.0
H202 H 0.12926 0.64769 0.99598 0.0
H203 H 0.10005 0.68314 0.09387 0.0
H204 H 0.13948 0.62094 0.83921 0.0
H205 H 0.13194 0.66144 0.6532 0.0
H206 H 0.15099 0.64148 0.49644 0.0
H207 H 0.18431 0.60927 0.40045 0.0
C208 C 0.82968 0.0906 0.73049 0.0
C209 C 0.80619 0.07128 0.69642 0.0
C210 C 0.8488 0.10546 0.66108 0.0
C211 C 0.84486 0.10107 0.55605 0.0
C212 C 0.8217 0.08126 0.52255 0.0
C213 C 0.80267 0.06641 0.59186 0.0
C214 C 0.86266 0.11848 0.47923 0.0
C215 C 0.89014 0.13109 0.49768 0.0
C216 C 0.90607 0.15185 0.42574 0.0
C217 C 0.92676 0.17326 0.46531 0.0
C218 C 0.94095 0.19456 0.40224 0.0
C219 C 0.93505 0.19471 0.29765 0.0
H220 H 0.88581 0.13457 0.28634 0.0
C221 C 0.91522 0.17264 0.25694 0.0
C222 C 0.90084 0.15133 0.32036 0.0
H223 H 0.91052 0.17203 0.17641 0.0
H224 H 0.83278 0.09493 0.81063 0.0
H225 H 0.86573 0.1212 0.69032 0.0
H226 H 0.81801 0.07761 0.44227 0.0
H227 H 0.78472 0.05165 0.56321 0.0
H228 H 0.85205 0.12166 0.40594 0.0
H229 H 0.90075 0.12775 0.57088 0.0
H230 H 0.93142 0.17405 0.54591 0.0
H231 H 0.95629 0.21115 0.43595 0.0
C232 C 0.91084 0.31942 0.99955 0.0
C233 C 0.93528 0.30285 0.96245 0.0
C234 C 0.89381 0.33758 0.93504 0.0
C235 C 0.90089 0.3399 0.83114 0.0
C236 C 0.92549 0.32338 0.79439 0.0
C237 C 0.94247 0.30511 0.85904 0.0
C238 C 0.88286 0.35819 0.75771 0.0
C239 C 0.86084 0.37761 0.78366 0.0
C240 C 0.842 0.39489 0.70974 0.0
C241 C 0.82276 0.41737 0.74666 0.0
C242 C 0.80403 0.43355 0.68105 0.0
C243 C 0.80401 0.42761 0.57656 0.0
H244 H 0.85551 0.37167 0.57191 0.0
C245 C 0.82321 0.40522 0.53947 0.0
C246 C 0.84182 0.38902 0.60482 0.0
H247 H 0.82373 0.39991 0.4594 0.0
H248 H 0.90453 0.31812 0.07877 0.0
H249 H 0.87492 0.34918 0.96761 0.0
H250 H 0.93154 0.32444 0.71488 0.0
H251 H 0.96108 0.29262 0.82782 0.0
H252 H 0.88854 0.35544 0.67849 0.0
H253 H 0.85625 0.3816 0.86307 0.0
H254 H 0.82211 0.42241 0.82693 0.0
H255 H 0.7895 0.45059 0.71226 0.0
C256 C 0.67864 0.40765 0.24785 0.0
C257 C 0.70339 0.42558 0.21515 0.0
C258 C 0.65937 0.39362 0.17709 0.0
C259 C 0.66461 0.39737 0.07239 0.0
C260 C 0.68936 0.41531 0.04031 0.0
C261 C 0.70843 0.42942 0.11076 0.0
C262 C 0.64621 0.38137 0.99439 0.0
C263 C 0.61729 0.37217 0.00877 0.0
C264 C 0.60046 0.35316 0.93426 0.0
C265 C 0.57806 0.33292 0.97025 0.0
C266 C 0.5638 0.31242 0.90467 0.0
C267 C 0.57142 0.312 0.80132 0.0
H268 H 0.62324 0.36999 0.79845 0.0
C269 C 0.59253 0.33342 0.76382 0.0
C270 C 0.60693 0.3539 0.82968 0.0
H271 H 0.59851 0.33384 0.68422 0.0
H272 H 0.67435 0.40421 0.3279 0.0
H273 H 0.64107 0.37919 0.20486 0.0
H274 H 0.69408 0.41833 0.96029 0.0
H275 H 0.7274 0.44304 0.0831 0.0
H276 H 0.65738 0.37662 0.9231 0.0
H277 H 0.60614 0.37683 0.08019 0.0
H278 H 0.57238 0.33215 0.05012 0.0
H279 H 0.54735 0.29639 0.93567 0.0
C280 C 0.69851 0.07573 0.14633 0.0
C281 C 0.70277 0.08137 0.04239 0.0
C282 C 0.67924 0.09387 0.2041 0.0
C283 C 0.66394 0.11818 0.15891 0.0
C284 C 0.66841 0.12358 0.05511 0.0
C285 C 0.68748 0.10556 0.99788 0.0
C286 C 0.64283 0.13837 0.2146 0.0
C287 C 0.63968 0.13945 0.31628 0.0
C288 C 0.61949 0.16088 0.37053 0.0
C289 C 0.62457 0.16599 0.47417 0.0
C290 C 0.60654 0.18571 0.52903 0.0
C291 C 0.58267 0.2009 0.4821 0.0
H292 H 0.58989 0.17209 0.24448 0.0
C293 C 0.57721 0.19571 0.37859 0.0
C294 C 0.59533 0.17586 0.32337 0.0
H295 H 0.55883 0.20682 0.34038 0.0
H296 H 0.7098 0.05716 0.18278 0.0
H297 H 0.67623 0.08835 0.28329 0.0
H298 H 0.65706 0.14194 0.01756 0.0
H299 H 0.69011 0.11066 0.91802 0.0
H300 H 0.63024 0.15406 0.16859 0.0
H301 H 0.65352 0.12515 0.36324 0.0
H302 H 0.64276 0.15477 0.51314 0.0
H303 H 0.6114 0.189 0.60875 0.0
C304 C 0.34653 0.45415 0.33967 0.0
C305 C 0.32392 0.4681 0.3974 0.0
C306 C 0.36626 0.43366 0.38368 0.0
C307 C 0.36393 0.42624 0.48706 0.0
C308 C 0.34178 0.44063 0.54544 0.0
C309 C 0.32195 0.46123 0.50124 0.0
C310 C 0.38468 0.4045 0.53726 0.0
C311 C 0.40067 0.38337 0.48724 0.0
C312 C 0.4216 0.36155 0.53659 0.0
C313 C 0.44132 0.34481 0.47552 0.0
C314 C 0.46126 0.32406 0.51838 0.0
C315 C 0.46197 0.31949 0.62374 0.0
H316 H 0.40693 0.36799 0.69249 0.0
C317 C 0.44197 0.33598 0.68454 0.0
C318 C 0.42205 0.35654 0.64188 0.0
H319 H 0.44147 0.33296 0.76598 0.0
H320 H 0.34916 0.45905 0.25969 0.0
H321 H 0.38355 0.42417 0.33616 0.0
H322 H 0.33959 0.4357 0.62557 0.0
H323 H 0.30496 0.47154 0.54825 0.0
H324 H 0.38632 0.40614 0.61895 0.0
H325 H 0.39856 0.38169 0.40558 0.0
H326 H 0.44144 0.3479 0.39407 0.0
H327 H 0.47623 0.3118 0.46904 0.0
C328 C 0.65615 0.97243 0.68761 0.0
C329 C 0.67305 0.97842 0.77582 0.0
C330 C 0.62957 0.95481 0.69184 0.0
C331 C 0.61954 0.9423 0.78438 0.0
C332 C 0.63541 0.94985 0.87341 0.0
C333 C 0.66191 0.96775 0.86932 0.0
C334 C 0.59375 0.92015 0.79056 0.0
C335 C 0.5849 0.90269 0.71171 0.0
C336 C 0.56284 0.87694 0.7198 0.0
C337 C 0.54921 0.8658 0.63085 0.0
C338 C 0.53113 0.83947 0.63277 0.0
C339 C 0.52652 0.82347 0.7238 0.0
H340 H 0.56811 0.86873 0.88145 0.0
C341 C 0.53942 0.83513 0.81348 0.0
C342 C 0.55745 0.86149 0.81156 0.0
H343 H 0.53639 0.82341 0.88501 0.0
H344 H 0.66371 0.98097 0.61467 0.0
H345 H 0.6173 0.95086 0.62205 0.0
H346 H 0.62799 0.94088 0.94595 0.0
H347 H 0.67427 0.97219 0.93882 0.0
H348 H 0.5834 0.91666 0.86434 0.0
H349 H 0.59522 0.90614 0.63791 0.0
H350 H 0.55313 0.87714 0.55903 0.0
H351 H 0.5215 0.83123 0.56224 0.0
C352 C 0.05678 0.18107 0.04787 0.0
C353 C 0.04364 0.17812 0.14453 0.0
C354 C 0.0777 0.15991 0.01349 0.0
C355 C 0.08583 0.13525 0.07508 0.0
C356 C 0.0718 0.13184 0.16984 0.0
C357 C 0.05121 0.153 0.20438 0.0
C358 C 0.10818 0.11219 0.04335 0.0
C359 C 0.13018 0.11746 0.97426 0.0
C360 C 0.15222 0.0944 0.94052 0.0
C361 C 0.16558 0.09812 0.84485 0.0
C362 C 0.18575 0.07701 0.80767 0.0
C363 C 0.19367 0.05167 0.86571 0.0
H364 H 0.15154 0.0662 0.0758 0.0
C365 C 0.1813 0.04836 0.96338 0.0
C366 C 0.16063 0.06945 0.00037 0.0
H367 H 0.187 0.02916 0.01008 0.0
H368 H 0.05135 0.2 0.99955 0.0
H369 H 0.08717 0.1629 0.93848 0.0
H370 H 0.07719 0.11295 0.21847 0.0
H371 H 0.04133 0.14968 0.2788 0.0
H372 H 0.10662 0.09025 0.08023 0.0
H373 H 0.13178 0.13944 0.93769 0.0
H374 H 0.15994 0.11721 0.79744 0.0
H375 H 0.19508 0.08056 0.73255 0.0
C376 C 0.96748 0.66894 0.32838 0.0
C377 C 0.9752 0.6834 0.2367 0.0
C378 C 0.95036 0.64206 0.32864 0.0
C379 C 0.94015 0.62923 0.23703 0.0
C380 C 0.94913 0.64284 0.14526 0.0
C381 C 0.96648 0.66969 0.14495 0.0
C382 C 0.91921 0.60251 0.23395 0.0
C383 C 0.90029 0.59501 0.31066 0.0
C384 C 0.87578 0.57166 0.30213 0.0
C385 C 0.86351 0.55886 0.39097 0.0
C386 C 0.83841 0.53904 0.38649 0.0
C387 C 0.82487 0.53194 0.29288 0.0
H388 H 0.87063 0.57406 0.13829 0.0
C389 C 0.83756 0.54433 0.20386 0.0
C390 C 0.86261 0.56401 0.20834 0.0
H391 H 0.82773 0.53942 0.13034 0.0
H392 H 0.97448 0.67849 0.40045 0.0
H393 H 0.94516 0.63165 0.40093 0.0
H394 H 0.94187 0.63323 0.07353 0.0
H395 H 0.9723 0.68009 0.07297 0.0
H396 H 0.91795 0.59003 0.16327 0.0
H397 H 0.90155 0.60727 0.3817 0.0
H398 H 0.87306 0.56461 0.46428 0.0
H399 H 0.82922 0.52993 0.45654 0.0
C400 C 0.34865 0.03507 0.81314 0.0
C401 C 0.33287 0.02683 0.72463 0.0
C402 C 0.37541 0.0525 0.80734 0.0
C403 C 0.3871 0.06177 0.71251 0.0
C404 C 0.37209 0.05212 0.62425 0.0
C405 C 0.34535 0.03485 0.63006 0.0
C406 C 0.41244 0.08423 0.70183 0.0
C407 C 0.43144 0.09233 0.77729 0.0
C408 C 0.45135 0.11974 0.77108 0.0
C409 C 0.4572 0.13604 0.86018 0.0
C410 C 0.47242 0.164 0.85649 0.0
C411 C 0.48245 0.17615 0.76344 0.0
H412 H 0.45976 0.11848 0.60878 0.0
C413 C 0.47823 0.15895 0.67485 0.0
C414 C 0.46286 0.13098 0.67858 0.0
H415 H 0.48616 0.16736 0.60219 0.0
H416 H 0.33966 0.02925 0.88718 0.0
H417 H 0.38575 0.05977 0.87764 0.0
H418 H 0.3805 0.05888 0.55026 0.0
H419 H 0.33399 0.0286 0.56016 0.0
H420 H 0.41379 0.09626 0.63012 0.0
H421 H 0.43023 0.08075 0.8497 0.0
H422 H 0.44885 0.12775 0.93252 0.0
H423 H 0.4757 0.17635 0.92659 0.0
C424 C 0.83017 0.96179 0.96229 0.0
C425 C 0.81648 0.95884 0.86648 0.0
C426 C 0.85181 0.94095 0.99449 0.0
C427 C 0.85993 0.9166 0.93166 0.0
C428 C 0.8455 0.91334 0.83763 0.0
C429 C 0.82434 0.93419 0.80519 0.0
C430 C 0.8825 0.8935 0.96117 0.0
C431 C 0.90512 0.89846 0.02816 0.0
C432 C 0.92748 0.87514 0.05786 0.0
C433 C 0.94218 0.87835 0.15149 0.0
C434 C 0.96236 0.85668 0.18526 0.0
C435 C 0.96884 0.83122 0.12576 0.0
H436 H 0.92471 0.84737 0.9219 0.0
C437 C 0.95527 0.82856 0.02974 0.0
C438 C 0.93472 0.85024 0.99614 0.0
H439 H 0.95986 0.80933 0.98183 0.0
H440 H 0.82456 0.98041 0.01152 0.0
H441 H 0.86175 0.94383 0.06884 0.0
H442 H 0.85091 0.89471 0.78802 0.0
H443 H 0.81407 0.93086 0.73139 0.0
H444 H 0.88055 0.87169 0.92381 0.0
H445 H 0.90702 0.92026 0.0656 0.0
H446 H 0.93752 0.8974 0.20016 0.0
H447 H 0.97264 0.85976 0.25916 0.0
C448 C 0.04491 0.33857 0.17749 0.0
C449 C 0.03644 0.32289 0.26615 0.0
C450 C 0.06385 0.36437 0.18264 0.0
C451 C 0.07449 0.37516 0.27698 0.0
C452 C 0.06518 0.35996 0.36537 0.0
C453 C 0.04641 0.33424 0.36021 0.0
C454 C 0.09704 0.40051 0.28745 0.0
C455 C 0.10497 0.41989 0.21274 0.0
C456 C 0.13069 0.44192 0.22289 0.0
C457 C 0.14748 0.44968 0.13617 0.0
C458 C 0.17358 0.46793 0.14368 0.0
C459 C 0.18333 0.47917 0.23822 0.0
H460 H 0.12645 0.44987 0.38483 0.0
C461 C 0.16557 0.4728 0.32437 0.0
C462 C 0.13949 0.4544 0.31683 0.0
H463 H 0.17214 0.48144 0.39811 0.0
H464 H 0.03769 0.33041 0.10379 0.0
H465 H 0.07076 0.3749 0.11219 0.0
H466 H 0.07296 0.36765 0.43904 0.0
H467 H 0.04019 0.32296 0.43034 0.0
H468 H 0.10866 0.40223 0.35981 0.0
H469 H 0.09413 0.41825 0.13921 0.0
H470 H 0.141 0.44069 0.06274 0.0
H471 H 0.18643 0.4727 0.07536 0.0
C472 C 0.54331 0.66933 0.51371 0.0
C473 C 0.54625 0.68408 0.60762 0.0
C474 C 0.56481 0.64815 0.48311 0.0
C475 C 0.58981 0.64166 0.54562 0.0
C476 C 0.59315 0.65739 0.63719 0.0
C477 C 0.57165 0.67804 0.66812 0.0
C478 C 0.61336 0.61929 0.5189 0.0
C479 C 0.6088 0.59566 0.45578 0.0
C480 C 0.63259 0.57328 0.4313 0.0
C481 C 0.63059 0.55773 0.33895 0.0
C482 C 0.65284 0.53745 0.31052 0.0
C483 C 0.6776 0.53171 0.3744 0.0
H484 H 0.65862 0.57746 0.57081 0.0
C485 C 0.67897 0.54614 0.46917 0.0
C486 C 0.65676 0.56679 0.49731 0.0
H487 H 0.69762 0.54215 0.52037 0.0
H488 H 0.52405 0.67355 0.46533 0.0
H489 H 0.56183 0.63715 0.41053 0.0
H490 H 0.61226 0.65326 0.68641 0.0
H491 H 0.57491 0.68923 0.74041 0.0
H492 H 0.63521 0.62213 0.55577 0.0
H493 H 0.58707 0.59282 0.4181 0.0
H494 H 0.61209 0.56182 0.28717 0.0
H495 H 0.65076 0.5265 0.23739 0.0
loop_
_geom_bond_atom_site_label_1
_geom_bond_atom_site_label_2
_geom_bond_distance
_geom_bond_site_symmetry_2
_ccdc_geom_bond_type
Co0 O1 2.216 . S
Co0 O2 2.091 . S
Co0 O4 2.004 . S
Co0 O10 2.021 . S
Co0 O12 2.137 . S
Co0 O13 2.244 . S
O1 Co0 2.216 . S
O1 C8 1.247 . S
O2 Co0 2.091 . S
O2 C8 1.261 . S
C3 O12 1.247 . S
C3 O13 1.272 . S
O4 Co0 2.004 . S
O4 C9 1.259 . S
Co5 O6 2.061 . S
Co5 O11 2.052 . S
Co5 O13 2.135 . S
O6 Co5 2.061 . S
O6 C9 1.235 . S
C7 O10 1.238 . S
C7 O11 1.241 . S
C8 O1 1.247 . S
C8 O2 1.261 . S
C9 O4 1.259 . S
C9 O6 1.235 . S
O10 Co0 2.021 . S
O10 C7 1.238 . S
O11 Co5 2.052 . S
O11 C7 1.241 . S
O12 Co0 2.137 . S
O12 C3 1.247 . S
O13 Co0 2.244 . S
O13 C3 1.272 . S
O13 Co5 2.135 . S
Co14 O15 2.216 . S
Co14 O16 2.091 . S
Co14 O18 2.004 . S
Co14 O24 2.021 . S
Co14 O26 2.137 . S
Co14 O27 2.244 . S
O15 Co14 2.216 . S
O15 C22 1.247 . S
O16 Co14 2.091 . S
O16 C22 1.261 . S
C17 O26 1.247 . S
C17 O27 1.272 . S
O18 Co14 2.004 . S
O18 C23 1.259 . S
Co19 O20 2.061 . S
Co19 O25 2.052 . S
Co19 O27 2.135 . S
O20 Co19 2.061 . S
O20 C23 1.235 . S
C21 O24 1.238 . S
C21 O25 1.241 . S
C22 O15 1.247 . S
C22 O16 1.261 . S
C23 O18 1.259 . S
C23 O20 1.235 . S
O24 Co14 2.021 . S
O24 C21 1.238 . S
O25 Co19 2.052 . S
O25 C21 1.241 . S
O26 Co14 2.137 . S
O26 C17 1.247 . S
O27 Co14 2.244 . S
O27 C17 1.272 . S
O27 Co19 2.135 . S
Co28 O29 2.216 . S
Co28 O30 2.091 1_556 S
Co28 O32 2.004 . S
Co28 O38 2.021 1_565 S
Co28 O40 2.137 . S
Co28 O41 2.244 . S
O29 Co28 2.216 . S
O29 C36 1.247 1_556 S
O30 Co28 2.091 1_554 S
O30 C36 1.261 . S
C31 O40 1.247 . S
C31 O41 1.272 . S
O32 Co28 2.004 . S
O32 C37 1.259 1_565 S
Co33 O34 2.061 . S
Co33 O39 2.052 . S
Co33 O41 2.135 1_545 S
O34 Co33 2.061 . S
O34 C37 1.235 . S
C35 O38 1.238 . S
C35 O39 1.241 . S
C36 O29 1.247 1_554 S
C36 O30 1.261 . S
C37 O32 1.259 1_545 S
C37 O34 1.235 . S
O38 Co28 2.021 1_545 S
O38 C35 1.238 . S
O39 Co33 2.052 . S
O39 C35 1.241 . S
O40 Co28 2.137 . S
O40 C31 1.247 . S
O41 Co28 2.244 . S
O41 C31 1.272 . S
O41 Co33 2.135 1_565 S
Co42 O43 2.216 . S
Co42 O44 2.091 1_554 S
Co42 O46 2.004 . S
Co42 O52 2.021 1_455 S
Co42 O54 2.137 . S
Co42 O55 2.244 . S
O43 Co42 2.216 . S
O43 C50 1.247 1_554 S
O44 Co42 2.091 1_556 S
O44 C50 1.261 . S
C45 O54 1.247 . S
C45 O55 1.272 . S
O46 Co42 2.004 . S
O46 C51 1.259 1_455 S
Co47 O48 2.061 . S
Co47 O53 2.052 . S
Co47 O55 2.135 1_655 S
O48 Co47 2.061 . S
O48 C51 1.235 . S
C49 O52 1.238 . S
C49 O53 1.241 . S
C50 O43 1.247 1_556 S
C50 O44 1.261 . S
C51 O46 1.259 1_655 S
C51 O48 1.235 . S
O52 Co42 2.021 1_655 S
O52 C49 1.238 . S
O53 Co47 2.052 . S
O53 C49 1.241 . S
O54 Co42 2.137 . S
O54 C45 1.247 . S
O55 Co42 2.244 . S
O55 C45 1.272 . S
O55 Co47 2.135 1_455 S
Co56 O57 2.216 . S
Co56 O58 2.091 1_556 S
Co56 O60 2.004 . S
Co56 O66 2.021 1_545 S
Co56 O68 2.137 . S
Co56 O69 2.244 . S
O57 Co56 2.216 . S
O57 C64 1.247 1_556 S
O58 Co56 2.091 1_554 S
O58 C64 1.261 . S
C59 O68 1.247 . S
C59 O69 1.272 . S
O60 Co56 2.004 . S
O60 C65 1.259 1_545 S
Co61 O62 2.061 . S
Co61 O67 2.052 . S
Co61 O69 2.135 1_565 S
O62 Co61 2.061 . S
O62 C65 1.235 . S
C63 O66 1.238 . S
C63 O67 1.241 . S
C64 O57 1.247 1_554 S
C64 O58 1.261 . S
C65 O60 1.259 1_565 S
C65 O62 1.235 . S
O66 Co56 2.021 1_565 S
O66 C63 1.238 . S
O67 Co61 2.052 . S
O67 C63 1.241 . S
O68 Co56 2.137 . S
O68 C59 1.247 . S
O69 Co56 2.244 . S
O69 C59 1.272 . S
O69 Co61 2.135 1_545 S
Co70 O71 2.216 . S
Co70 O72 2.091 1_554 S
Co70 O74 2.004 . S
Co70 O80 2.021 1_655 S
Co70 O82 2.137 . S
Co70 O83 2.244 . S
O71 Co70 2.216 . S
O71 C78 1.247 1_554 S
O72 Co70 2.091 1_556 S
O72 C78 1.261 . S
C73 O82 1.247 . S
C73 O83 1.272 . S
O74 Co70 2.004 . S
O74 C79 1.259 1_655 S
Co75 O76 2.061 . S
Co75 O81 2.052 . S
Co75 O83 2.135 1_455 S
O76 Co75 2.061 . S
O76 C79 1.235 . S
C77 O80 1.238 . S
C77 O81 1.241 . S
C78 O71 1.247 1_556 S
C78 O72 1.261 . S
C79 O74 1.259 1_455 S
C79 O76 1.235 . S
O80 Co70 2.021 1_455 S
O80 C77 1.238 . S
O81 Co75 2.052 . S
O81 C77 1.241 . S
O82 Co70 2.137 . S
O82 C73 1.247 . S
O83 Co70 2.244 . S
O83 C73 1.272 . S
O83 Co75 2.135 1_655 S
Co84 O85 2.216 . S
Co84 O86 2.091 . S
Co84 O88 2.004 . S
Co84 O94 2.021 . S
Co84 O96 2.137 . S
Co84 O97 2.244 . S
O85 Co84 2.216 . S
O85 C92 1.247 . S
O86 Co84 2.091 . S
O86 C92 1.261 . S
C87 O96 1.247 . S
C87 O97 1.272 . S
O88 Co84 2.004 . S
O88 C93 1.259 . S
Co89 O90 2.061 . S
Co89 O95 2.052 . S
Co89 O97 2.135 . S
O90 Co89 2.061 . S
O90 C93 1.235 . S
C91 O94 1.238 . S
C91 O95 1.241 . S
C92 O85 1.247 . S
C92 O86 1.261 . S
C93 O88 1.259 . S
C93 O90 1.235 . S
O94 Co84 2.021 . S
O94 C91 1.238 . S
O95 Co89 2.052 . S
O95 C91 1.241 . S
O96 Co84 2.137 . S
O96 C87 1.247 . S
O97 Co84 2.244 . S
O97 C87 1.272 . S
O97 Co89 2.135 . S
Co98 O99 2.216 . S
Co98 O100 2.091 . S
Co98 O102 2.004 . S
Co98 O108 2.021 . S
Co98 O110 2.137 . S
Co98 O111 2.244 . S
O99 Co98 2.216 . S
O99 C106 1.247 . S
O100 Co98 2.091 . S
O100 C106 1.261 . S
C101 O110 1.247 . S
C101 O111 1.272 . S
O102 Co98 2.004 . S
O102 C107 1.259 . S
Co103 O104 2.061 . S
Co103 O109 2.052 . S
Co103 O111 2.135 . S
O104 Co103 2.061 . S
O104 C107 1.235 . S
C105 O108 1.238 . S
C105 O109 1.241 . S
C106 O99 1.247 . S
C106 O100 1.261 . S
C107 O102 1.259 . S
C107 O104 1.235 . S
O108 Co98 2.021 . S
O108 C105 1.238 . S
O109 Co103 2.052 . S
O109 C105 1.241 . S
O110 Co98 2.137 . S
O110 C101 1.247 . S
O111 Co98 2.244 . S
O111 C101 1.272 . S
O111 Co103 2.135 . S
C112 C113 1.386 . S
C112 C114 1.383 . S
C112 H128 0.951 . S
C113 C112 1.386 . S
C113 C117 1.383 . S
C114 C112 1.383 . S
C114 C115 1.402 . S
C114 H129 0.951 . S
C115 C114 1.402 . S
C115 C116 1.375 . S
C115 C118 1.481 . S
C116 C115 1.375 . S
C116 C117 1.367 . S
C116 H130 0.951 . S
C117 C113 1.383 . S
C117 C116 1.367 . S
C117 H131 0.950 . S
C118 C115 1.481 . S
C118 C119 1.297 . S
C118 H132 0.950 . S
C119 C118 1.297 . S
C119 C120 1.479 1_556 S
C119 H133 0.950 . S
C120 C119 1.479 1_554 S
C120 C121 1.375 . S
C120 C126 1.404 . S
C121 C120 1.375 . S
C121 C122 1.369 . S
C121 H134 0.950 . S
C122 C121 1.369 . S
C122 C123 1.392 . S
C122 H135 0.951 . S
C123 C122 1.392 . S
C123 C125 1.384 . S
H124 C126 0.949 . S
C125 C123 1.384 . S
C125 C126 1.385 . S
C125 H127 0.950 . S
C126 C120 1.404 . S
C126 H124 0.949 . S
C126 C125 1.385 . S
H127 C125 0.950 . S
H128 C112 0.951 . S
H129 C114 0.951 . S
H130 C116 0.951 . S
H131 C117 0.950 . S
H132 C118 0.950 . S
H133 C119 0.950 . S
H134 C121 0.950 . S
H135 C122 0.951 . S
C136 C137 1.386 . S
C136 C138 1.383 . S
C136 H152 0.951 . S
C137 C136 1.386 . S
C137 C141 1.383 . S
C138 C136 1.383 . S
C138 C139 1.402 . S
C138 H153 0.951 . S
C139 C138 1.402 . S
C139 C140 1.375 . S
C139 C142 1.481 . S
C140 C139 1.375 . S
C140 C141 1.367 . S
C140 H154 0.951 . S
C141 C137 1.383 . S
C141 C140 1.367 . S
C141 H155 0.950 . S
C142 C139 1.481 . S
C142 C143 1.297 . S
C142 H156 0.950 . S
C143 C142 1.297 . S
C143 C144 1.479 . S
C143 H157 0.950 . S
C144 C143 1.479 . S
C144 C145 1.375 . S
C144 C150 1.404 . S
C145 C144 1.375 . S
C145 C146 1.369 . S
C145 H158 0.950 . S
C146 C145 1.369 . S
C146 C147 1.392 . S
C146 H159 0.951 1_554 S
C147 C146 1.392 . S
C147 C149 1.384 . S
H148 C150 0.949 . S
C149 C147 1.384 . S
C149 C150 1.385 . S
C149 H151 0.950 . S
C150 C144 1.404 . S
C150 H148 0.949 . S
C150 C149 1.385 . S
H151 C149 0.950 . S
H152 C136 0.951 . S
H153 C138 0.951 . S
H154 C140 0.951 . S
H155 C141 0.950 . S
H156 C142 0.950 . S
H157 C143 0.950 . S
H158 C145 0.950 . S
H159 C146 0.951 1_556 S
C160 C161 1.386 . S
C160 C162 1.383 . S
C160 H176 0.951 . S
C161 C160 1.386 . S
C161 C165 1.383 . S
C162 C160 1.383 . S
C162 C163 1.402 . S
C162 H177 0.951 . S
C163 C162 1.402 . S
C163 C164 1.375 . S
C163 C166 1.481 . S
C164 C163 1.375 . S
C164 C165 1.367 . S
C164 H178 0.951 . S
C165 C161 1.383 . S
C165 C164 1.367 . S
C165 H179 0.950 . S
C166 C163 1.481 . S
C166 C167 1.297 . S
C166 H180 0.950 . S
C167 C166 1.297 . S
C167 C168 1.479 . S
C167 H181 0.950 . S
C168 C167 1.479 . S
C168 C169 1.375 . S
C168 C174 1.404 . S
C169 C168 1.375 . S
C169 C170 1.369 . S
C169 H182 0.950 . S
C170 C169 1.369 . S
C170 C171 1.392 . S
C170 H183 0.951 . S
C171 C170 1.392 . S
C171 C173 1.384 . S
H172 C174 0.949 . S
C173 C171 1.384 . S
C173 C174 1.385 . S
C173 H175 0.950 . S
C174 C168 1.404 . S
C174 H172 0.949 . S
C174 C173 1.385 . S
H175 C173 0.950 . S
H176 C160 0.951 . S
H177 C162 0.951 . S
H178 C164 0.951 . S
H179 C165 0.950 . S
H180 C166 0.950 . S
H181 C167 0.950 . S
H182 C169 0.950 . S
H183 C170 0.951 . S
C184 C185 1.386 . S
C184 C186 1.383 . S
C184 H200 0.951 . S
C185 C184 1.386 . S
C185 C189 1.383 . S
C186 C184 1.383 . S
C186 C187 1.402 . S
C186 H201 0.951 . S
C187 C186 1.402 . S
C187 C188 1.375 . S
C187 C190 1.481 . S
C188 C187 1.375 . S
C188 C189 1.367 . S
C188 H202 0.951 . S
C189 C185 1.383 . S
C189 C188 1.367 . S
C189 H203 0.950 1_556 S
C190 C187 1.481 . S
C190 C191 1.297 . S
C190 H204 0.950 . S
C191 C190 1.297 . S
C191 C192 1.479 . S
C191 H205 0.950 . S
C192 C191 1.479 . S
C192 C193 1.375 . S
C192 C198 1.404 . S
C193 C192 1.375 . S
C193 C194 1.369 . S
C193 H206 0.950 . S
C194 C193 1.369 . S
C194 C195 1.392 . S
C194 H207 0.951 . S
C195 C194 1.392 . S
C195 C197 1.384 . S
H196 C198 0.949 . S
C197 C195 1.384 . S
C197 C198 1.385 . S
C197 H199 0.950 . S
C198 C192 1.404 . S
C198 H196 0.949 . S
C198 C197 1.385 . S
H199 C197 0.950 . S
H200 C184 0.951 . S
H201 C186 0.951 . S
H202 C188 0.951 . S
H203 C189 0.950 1_554 S
H204 C190 0.950 . S
H205 C191 0.950 . S
H206 C193 0.950 . S
H207 C194 0.951 . S
C208 C209 1.386 . S
C208 C210 1.383 . S
C208 H224 0.951 . S
C209 C208 1.386 . S
C209 C213 1.383 . S
C210 C208 1.383 . S
C210 C211 1.402 . S
C210 H225 0.951 . S
C211 C210 1.402 . S
C211 C212 1.375 . S
C211 C214 1.481 . S
C212 C211 1.375 . S
C212 C213 1.367 . S
C212 H226 0.951 . S
C213 C209 1.383 . S
C213 C212 1.367 . S
C213 H227 0.950 . S
C214 C211 1.481 . S
C214 C215 1.297 . S
C214 H228 0.950 . S
C215 C214 1.297 . S
C215 C216 1.479 . S
C215 H229 0.950 . S
C216 C215 1.479 . S
C216 C217 1.375 . S
C216 C222 1.404 . S
C217 C216 1.375 . S
C217 C218 1.369 . S
C217 H230 0.950 . S
C218 C217 1.369 . S
C218 C219 1.392 . S
C218 H231 0.951 . S
C219 C218 1.392 . S
C219 C221 1.384 . S
H220 C222 0.949 . S
C221 C219 1.384 . S
C221 C222 1.385 . S
C221 H223 0.950 . S
C222 C216 1.404 . S
C222 H220 0.949 . S
C222 C221 1.385 . S
H223 C221 0.950 . S
H224 C208 0.951 . S
H225 C210 0.951 . S
H226 C212 0.951 . S
H227 C213 0.950 . S
H228 C214 0.950 . S
H229 C215 0.950 . S
H230 C217 0.950 . S
H231 C218 0.951 . S
C232 C233 1.386 . S
C232 C234 1.383 . S
C232 H248 0.951 1_556 S
C233 C232 1.386 . S
C233 C237 1.383 . S
C234 C232 1.383 . S
C234 C235 1.402 . S
C234 H249 0.951 . S
C235 C234 1.402 . S
C235 C236 1.375 . S
C235 C238 1.481 . S
C236 C235 1.375 . S
C236 C237 1.367 . S
C236 H250 0.951 . S
C237 C233 1.383 . S
C237 C236 1.367 . S
C237 H251 0.950 . S
C238 C235 1.481 . S
C238 C239 1.297 . S
C238 H252 0.950 . S
C239 C238 1.297 . S
C239 C240 1.479 . S
C239 H253 0.950 . S
C240 C239 1.479 . S
C240 C241 1.375 . S
C240 C246 1.404 . S
C241 C240 1.375 . S
C241 C242 1.369 . S
C241 H254 0.950 . S
C242 C241 1.369 . S
C242 C243 1.392 . S
C242 H255 0.951 . S
C243 C242 1.392 . S
C243 C245 1.384 . S
H244 C246 0.949 . S
C245 C243 1.384 . S
C245 C246 1.385 . S
C245 H247 0.950 . S
C246 C240 1.404 . S
C246 H244 0.949 . S
C246 C245 1.385 . S
H247 C245 0.950 . S
H248 C232 0.951 1_554 S
H249 C234 0.951 . S
H250 C236 0.951 . S
H251 C237 0.950 . S
H252 C238 0.950 . S
H253 C239 0.950 . S
H254 C241 0.950 . S
H255 C242 0.951 . S
C256 C257 1.386 . S
C256 C258 1.383 . S
C256 H272 0.951 . S
C257 C256 1.386 . S
C257 C261 1.383 . S
C258 C256 1.383 . S
C258 C259 1.402 . S
C258 H273 0.951 . S
C259 C258 1.402 . S
C259 C260 1.375 . S
C259 C262 1.481 1_554 S
C260 C259 1.375 . S
C260 C261 1.367 . S
C260 H274 0.951 . S
C261 C257 1.383 . S
C261 C260 1.367 . S
C261 H275 0.950 . S
C262 C259 1.481 1_556 S
C262 C263 1.297 . S
C262 H276 0.950 . S
C263 C262 1.297 . S
C263 C264 1.479 . S
C263 H277 0.950 . S
C264 C263 1.479 . S
C264 C265 1.375 . S
C264 C270 1.404 . S
C265 C264 1.375 . S
C265 C266 1.369 . S
C265 H278 0.950 . S
C266 C265 1.369 . S
C266 C267 1.392 . S
C266 H279 0.951 . S
C267 C266 1.392 . S
C267 C269 1.384 . S
H268 C270 0.949 . S
C269 C267 1.384 . S
C269 C270 1.385 . S
C269 H271 0.950 . S
C270 C264 1.404 . S
C270 H268 0.949 . S
C270 C269 1.385 . S
H271 C269 0.950 . S
H272 C256 0.951 . S
H273 C258 0.951 . S
H274 C260 0.951 . S
H275 C261 0.950 . S
H276 C262 0.950 . S
H277 C263 0.950 . S
H278 C265 0.950 . S
H279 C266 0.951 . S
C280 C281 1.386 . S
C280 C282 1.383 . S
C280 H296 0.951 . S
C281 C280 1.386 . S
C281 C285 1.383 . S
C282 C280 1.383 . S
C282 C283 1.402 . S
C282 H297 0.951 . S
C283 C282 1.402 . S
C283 C284 1.375 . S
C283 C286 1.481 . S
C284 C283 1.375 . S
C284 C285 1.367 . S
C284 H298 0.951 . S
C285 C281 1.383 . S
C285 C284 1.367 . S
C285 H299 0.950 1_554 S
C286 C283 1.481 . S
C286 C287 1.297 . S
C286 H300 0.950 . S
C287 C286 1.297 . S
C287 C288 1.479 . S
C287 H301 0.950 . S
C288 C287 1.479 . S
C288 C289 1.375 . S
C288 C294 1.404 . S
C289 C288 1.375 . S
C289 C290 1.369 . S
C289 H302 0.950 . S
C290 C289 1.369 . S
C290 C291 1.392 . S
C290 H303 0.951 . S
C291 C290 1.392 . S
C291 C293 1.384 . S
H292 C294 0.949 . S
C293 C291 1.384 . S
C293 C294 1.385 . S
C293 H295 0.950 . S
C294 C288 1.404 . S
C294 H292 0.949 . S
C294 C293 1.385 . S
H295 C293 0.950 . S
H296 C280 0.951 . S
H297 C282 0.951 . S
H298 C284 0.951 . S
H299 C285 0.950 1_556 S
H300 C286 0.950 . S
H301 C287 0.950 . S
H302 C289 0.950 . S
H303 C290 0.951 . S
C304 C305 1.386 . S
C304 C306 1.383 . S
C304 H320 0.951 . S
C305 C304 1.386 . S
C305 C309 1.383 . S
C306 C304 1.383 . S
C306 C307 1.402 . S
C306 H321 0.951 . S
C307 C306 1.402 . S
C307 C308 1.375 . S
C307 C310 1.481 . S
C308 C307 1.375 . S
C308 C309 1.367 . S
C308 H322 0.951 . S
C309 C305 1.383 . S
C309 C308 1.367 . S
C309 H323 0.950 . S
C310 C307 1.481 . S
C310 C311 1.297 . S
C310 H324 0.950 . S
C311 C310 1.297 . S
C311 C312 1.479 . S
C311 H325 0.950 . S
C312 C311 1.479 . S
C312 C313 1.375 . S
C312 C318 1.404 . S
C313 C312 1.375 . S
C313 C314 1.369 . S
C313 H326 0.950 . S
C314 C313 1.369 . S
C314 C315 1.392 . S
C314 H327 0.951 . S
C315 C314 1.392 . S
C315 C317 1.384 . S
H316 C318 0.949 . S
C317 C315 1.384 . S
C317 C318 1.385 . S
C317 H319 0.950 . S
C318 C312 1.404 . S
C318 H316 0.949 . S
C318 C317 1.385 . S
H319 C317 0.950 . S
H320 C304 0.951 . S
H321 C306 0.951 . S
H322 C308 0.951 . S
H323 C309 0.950 . S
H324 C310 0.950 . S
H325 C311 0.950 . S
H326 C313 0.950 . S
H327 C314 0.951 . S
C328 C329 1.386 . S
C328 C330 1.383 . S
C328 H344 0.951 . S
C329 C328 1.386 . S
C329 C333 1.383 . S
C330 C328 1.383 . S
C330 C331 1.402 . S
C330 H345 0.951 . S
C331 C330 1.402 . S
C331 C332 1.375 . S
C331 C334 1.481 . S
C332 C331 1.375 . S
C332 C333 1.367 . S
C332 H346 0.951 . S
C333 C329 1.383 . S
C333 C332 1.367 . S
C333 H347 0.950 . S
C334 C331 1.481 . S
C334 C335 1.297 . S
C334 H348 0.950 . S
C335 C334 1.297 . S
C335 C336 1.479 . S
C335 H349 0.950 . S
C336 C335 1.479 . S
C336 C337 1.375 . S
C336 C342 1.404 . S
C337 C336 1.375 . S
C337 C338 1.369 . S
C337 H350 0.950 . S
C338 C337 1.369 . S
C338 C339 1.392 . S
C338 H351 0.951 . S
C339 C338 1.392 . S
C339 C341 1.384 . S
H340 C342 0.949 . S
C341 C339 1.384 . S
C341 C342 1.385 . S
C341 H343 0.950 . S
C342 C336 1.404 . S
C342 H340 0.949 . S
C342 C341 1.385 . S
H343 C341 0.950 . S
H344 C328 0.951 . S
H345 C330 0.951 . S
H346 C332 0.951 . S
H347 C333 0.950 . S
H348 C334 0.950 . S
H349 C335 0.950 . S
H350 C337 0.950 . S
H351 C338 0.951 . S
C352 C353 1.386 1_556 S
C352 C354 1.383 . S
C352 H368 0.951 . S
C353 C352 1.386 1_554 S
C353 C357 1.383 . S
C354 C352 1.383 . S
C354 C355 1.402 1_556 S
C354 H369 0.951 . S
C355 C354 1.402 1_554 S
C355 C356 1.375 . S
C355 C358 1.481 . S
C356 C355 1.375 . S
C356 C357 1.367 . S
C356 H370 0.951 . S
C357 C353 1.383 . S
C357 C356 1.367 . S
C357 H371 0.950 . S
C358 C355 1.481 . S
C358 C359 1.297 1_554 S
C358 H372 0.950 . S
C359 C358 1.297 1_556 S
C359 C360 1.479 . S
C359 H373 0.950 . S
C360 C359 1.479 . S
C360 C361 1.375 . S
C360 C366 1.404 1_556 S
C361 C360 1.375 . S
C361 C362 1.369 . S
C361 H374 0.950 . S
C362 C361 1.369 . S
C362 C363 1.392 . S
C362 H375 0.951 . S
C363 C362 1.392 . S
C363 C365 1.384 1_556 S
H364 C366 0.949 . S
C365 C363 1.384 1_554 S
C365 C366 1.385 . S
C365 H367 0.950 . S
C366 C360 1.404 1_554 S
C366 H364 0.949 . S
C366 C365 1.385 . S
H367 C365 0.950 . S
H368 C352 0.951 . S
H369 C354 0.951 . S
H370 C356 0.951 . S
H371 C357 0.950 . S
H372 C358 0.950 . S
H373 C359 0.950 . S
H374 C361 0.950 . S
H375 C362 0.951 . S
C376 C377 1.386 . S
C376 C378 1.383 . S
C376 H392 0.951 . S
C377 C376 1.386 . S
C377 C381 1.383 . S
C378 C376 1.383 . S
C378 C379 1.402 . S
C378 H393 0.951 . S
C379 C378 1.402 . S
C379 C380 1.375 . S
C379 C382 1.481 . S
C380 C379 1.375 . S
C380 C381 1.367 . S
C380 H394 0.951 . S
C381 C377 1.383 . S
C381 C380 1.367 . S
C381 H395 0.950 . S
C382 C379 1.481 . S
C382 C383 1.297 . S
C382 H396 0.950 . S
C383 C382 1.297 . S
C383 C384 1.479 . S
C383 H397 0.950 . S
C384 C383 1.479 . S
C384 C385 1.375 . S
C384 C390 1.404 . S
C385 C384 1.375 . S
C385 C386 1.369 . S
C385 H398 0.950 . S
C386 C385 1.369 . S
C386 C387 1.392 . S
C386 H399 0.951 . S
C387 C386 1.392 . S
C387 C389 1.384 . S
H388 C390 0.949 . S
C389 C387 1.384 . S
C389 C390 1.385 . S
C389 H391 0.950 . S
C390 C384 1.404 . S
C390 H388 0.949 . S
C390 C389 1.385 . S
H391 C389 0.950 . S
H392 C376 0.951 . S
H393 C378 0.951 . S
H394 C380 0.951 . S
H395 C381 0.950 . S
H396 C382 0.950 . S
H397 C383 0.950 . S
H398 C385 0.950 . S
H399 C386 0.951 . S
C400 C401 1.386 . S
C400 C402 1.383 . S
C400 H416 0.951 . S
C401 C400 1.386 . S
C401 C405 1.383 . S
C402 C400 1.383 . S
C402 C403 1.402 . S
C402 H417 0.951 . S
C403 C402 1.402 . S
C403 C404 1.375 . S
C403 C406 1.481 . S
C404 C403 1.375 . S
C404 C405 1.367 . S
C404 H418 0.951 . S
C405 C401 1.383 . S
C405 C404 1.367 . S
C405 H419 0.950 . S
C406 C403 1.481 . S
C406 C407 1.297 . S
C406 H420 0.950 . S
C407 C406 1.297 . S
C407 C408 1.479 . S
C407 H421 0.950 . S
C408 C407 1.479 . S
C408 C409 1.375 . S
C408 C414 1.404 . S
C409 C408 1.375 . S
C409 C410 1.369 . S
C409 H422 0.950 . S
C410 C409 1.369 . S
C410 C411 1.392 . S
C410 H423 0.951 . S
C411 C410 1.392 . S
C411 C413 1.384 . S
H412 C414 0.949 . S
C413 C411 1.384 . S
C413 C414 1.385 . S
C413 H415 0.950 . S
C414 C408 1.404 . S
C414 H412 0.949 . S
C414 C413 1.385 . S
H415 C413 0.950 . S
H416 C400 0.951 . S
H417 C402 0.951 . S
H418 C404 0.951 . S
H419 C405 0.950 . S
H420 C406 0.950 . S
H421 C407 0.950 . S
H422 C409 0.950 . S
H423 C410 0.951 . S
C424 C425 1.386 . S
C424 C426 1.383 1_556 S
C424 H440 0.951 1_556 S
C425 C424 1.386 . S
C425 C429 1.383 . S
C426 C424 1.383 1_554 S
C426 C427 1.402 1_554 S
C426 H441 0.951 . S
C427 C426 1.402 1_556 S
C427 C428 1.375 . S
C427 C430 1.481 1_556 S
C428 C427 1.375 . S
C428 C429 1.367 . S
C428 H442 0.951 . S
C429 C425 1.383 . S
C429 C428 1.367 . S
C429 H443 0.950 . S
C430 C427 1.481 1_554 S
C430 C431 1.297 . S
C430 H444 0.950 1_554 S
C431 C430 1.297 . S
C431 C432 1.479 . S
C431 H445 0.950 . S
C432 C431 1.479 . S
C432 C433 1.375 . S
C432 C438 1.404 . S
C433 C432 1.375 . S
C433 C434 1.369 . S
C433 H446 0.950 . S
C434 C433 1.369 . S
C434 C435 1.392 . S
C434 H447 0.951 . S
C435 C434 1.392 . S
C435 C437 1.384 . S
H436 C438 0.949 . S
C437 C435 1.384 . S
C437 C438 1.385 . S
C437 H439 0.950 . S
C438 C432 1.404 . S
C438 H436 0.949 . S
C438 C437 1.385 . S
H439 C437 0.950 . S
H440 C424 0.951 1_554 S
H441 C426 0.951 . S
H442 C428 0.951 . S
H443 C429 0.950 . S
H444 C430 0.950 1_556 S
H445 C431 0.950 . S
H446 C433 0.950 . S
H447 C434 0.951 . S
C448 C449 1.386 . S
C448 C450 1.383 . S
C448 H464 0.951 . S
C449 C448 1.386 . S
C449 C453 1.383 . S
C450 C448 1.383 . S
C450 C451 1.402 . S
C450 H465 0.951 . S
C451 C450 1.402 . S
C451 C452 1.375 . S
C451 C454 1.481 . S
C452 C451 1.375 . S
C452 C453 1.367 . S
C452 H466 0.951 . S
C453 C449 1.383 . S
C453 C452 1.367 . S
C453 H467 0.950 . S
C454 C451 1.481 . S
C454 C455 1.297 . S
C454 H468 0.950 . S
C455 C454 1.297 . S
C455 C456 1.479 . S
C455 H469 0.950 . S
C456 C455 1.479 . S
C456 C457 1.375 . S
C456 C462 1.404 . S
C457 C456 1.375 . S
C457 C458 1.369 . S
C457 H470 0.950 . S
C458 C457 1.369 . S
C458 C459 1.392 . S
C458 H471 0.951 . S
C459 C458 1.392 . S
C459 C461 1.384 . S
H460 C462 0.949 . S
C461 C459 1.384 . S
C461 C462 1.385 . S
C461 H463 0.950 . S
C462 C456 1.404 . S
C462 H460 0.949 . S
C462 C461 1.385 . S
H463 C461 0.950 . S
H464 C448 0.951 . S
H465 C450 0.951 . S
H466 C452 0.951 . S
H467 C453 0.950 . S
H468 C454 0.950 . S
H469 C455 0.950 . S
H470 C457 0.950 . S
H471 C458 0.951 . S
C472 C473 1.386 . S
C472 C474 1.383 . S
C472 H488 0.951 . S
C473 C472 1.386 . S
C473 C477 1.383 . S
C474 C472 1.383 . S
C474 C475 1.402 . S
C474 H489 0.951 . S
C475 C474 1.402 . S
C475 C476 1.375 . S
C475 C478 1.481 . S
C476 C475 1.375 . S
C476 C477 1.367 . S
C476 H490 0.951 . S
C477 C473 1.383 . S
C477 C476 1.367 . S
C477 H491 0.950 . S
C478 C475 1.481 . S
C478 C479 1.297 . S
C478 H492 0.950 . S
C479 C478 1.297 . S
C479 C480 1.479 . S
C479 H493 0.950 . S
C480 C479 1.479 . S
C480 C481 1.375 . S
C480 C486 1.404 . S
C481 C480 1.375 . S
C481 C482 1.369 . S
C481 H494 0.950 . S
C482 C481 1.369 . S
C482 C483 1.392 . S
C482 H495 0.951 . S
C483 C482 1.392 . S
C483 C485 1.384 . S
H484 C486 0.949 . S
C485 C483 1.384 . S
C485 C486 1.385 . S
C485 H487 0.950 . S
C486 C480 1.404 . S
C486 H484 0.949 . S
C486 C485 1.385 . S
H487 C485 0.950 . S
H488 C472 0.951 . S
H489 C474 0.951 . S
H490 C476 0.951 . S
H491 C477 0.950 . S
H492 C478 0.950 . S
H493 C479 0.950 . S
H494 C481 0.950 . S
H495 C482 0.951 . S
C113 C17 1.413 . S
C123 C3 1.423 . S
C137 C22 1.422 . S
C147 C36 1.412 . S
C161 C45 1.420 . S
C171 C31 1.414 . S
C185 C50 1.421 . S
C195 C8 1.414 . S
C209 C59 1.419 . S
C219 C73 1.415 . S
C233 C78 1.418 . S
C243 C92 1.412 . S
C257 C87 1.426 . S
C267 C101 1.401 . S
C281 C64 1.421 . S
C291 C106 1.415 . S
C305 C9 1.441 . S
C315 C107 1.394 . S
C329 C63 1.416 . S
C339 C21 1.405 . S
C353 C79 1.401 . S
C363 C37 1.424 . S
C377 C49 1.424 . S
C387 C91 1.393 . S
C401 C35 1.426 . S
C411 C105 1.452 . S
C425 C65 1.425 . S
C435 C51 1.379 . S
C449 C77 1.409 . S
C459 C7 1.452 . S
C473 C23 1.419 . S
C483 C93 1.382 . S
