# Generated by pormake.
# Topology wme, (6)-cn, num edge types: 1
# Building blocks:
#     Node 0, Type 0, BuildingBlock: MIDCAF_clean_sbu_0, # of connection points: 6
#     Node 1, Type 0, BuildingBlock: MIDCAF_clean_sbu_0, # of connection points: 6
#     Node 2, Type 0, BuildingBlock: MIDCAF_clean_sbu_0, # of connection points: 6
#     Node 3, Type 0, BuildingBlock: MIDCAF_clean_sbu_0, # of connection points: 6
#     Node 4, Type 0, BuildingBlock: MIDCAF_clean_sbu_0, # of connection points: 6
#     Node 5, Type 0, BuildingBlock: MIDCAF_clean_sbu_0, # of connection points: 6
#     Node 6, Type 0, BuildingBlock: MIDCAF_clean_sbu_0, # of connection points: 6
#     Node 7, Type 0, BuildingBlock: MIDCAF_clean_sbu_0, # of connection points: 6
#     Node 8, Type 0, BuildingBlock: MIDCAF_clean_sbu_0, # of connection points: 6
#     Node 9, Type 0, BuildingBlock: MIDCAF_clean_sbu_0, # of connection points: 6
#     Node 10, Type 0, BuildingBlock: MIDCAF_clean_sbu_0, # of connection points: 6
#     Node 11, Type 0, BuildingBlock: MIDCAF_clean_sbu_0, # of connection points: 6
#     Edge 12, Type (0, 0), BuildingBlock: EYOCIG_clean_linker_4, # of connection points: 2
#     Edge 13, Type (0, 0), BuildingBlock: EYOCIG_clean_linker_4, # of connection points: 2
#     Edge 14, Type (0, 0), BuildingBlock: EYOCIG_clean_linker_4, # of connection points: 2
#     Edge 15, Type (0, 0), BuildingBlock: EYOCIG_clean_linker_4, # of connection points: 2
#     Edge 16, Type (0, 0), BuildingBlock: EYOCIG_clean_linker_4, # of connection points: 2
#     Edge 17, Type (0, 0), BuildingBlock: EYOCIG_clean_linker_4, # of connection points: 2
#     Edge 18, Type (0, 0), BuildingBlock: EYOCIG_clean_linker_4, # of connection points: 2
#     Edge 19, Type (0, 0), BuildingBlock: EYOCIG_clean_linker_4, # of connection points: 2
#     Edge 20, Type (0, 0), BuildingBlock: EYOCIG_clean_linker_4, # of connection points: 2
#     Edge 21, Type (0, 0), BuildingBlock: EYOCIG_clean_linker_4, # of connection points: 2
#     Edge 22, Type (0, 0), BuildingBlock: EYOCIG_clean_linker_4, # of connection points: 2
#     Edge 23, Type (0, 0), BuildingBlock: EYOCIG_clean_linker_4, # of connection points: 2
#     Edge 24, Type (0, 0), BuildingBlock: EYOCIG_clean_linker_4, # of connection points: 2
#     Edge 25, Type (0, 0), BuildingBlock: EYOCIG_clean_linker_4, # of connection points: 2
#     Edge 26, Type (0, 0), BuildingBlock: EYOCIG_clean_linker_4, # of connection points: 2
#     Edge 27, Type (0, 0), BuildingBlock: EYOCIG_clean_linker_4, # of connection points: 2
#     Edge 28, Type (0, 0), BuildingBlock: EYOCIG_clean_linker_4, # of connection points: 2
#     Edge 29, Type (0, 0), BuildingBlock: EYOCIG_clean_linker_4, # of connection points: 2
#     Edge 30, Type (0, 0), BuildingBlock: EYOCIG_clean_linker_4, # of connection points: 2
#     Edge 31, Type (0, 0), BuildingBlock: EYOCIG_clean_linker_4, # of connection points: 2
#     Edge 32, Type (0, 0), BuildingBlock: EYOCIG_clean_linker_4, # of connection points: 2
#     Edge 33, Type (0, 0), BuildingBlock: EYOCIG_clean_linker_4, # of connection points: 2
#     Edge 34, Type (0, 0), BuildingBlock: EYOCIG_clean_linker_4, # of connection points: 2
#     Edge 35, Type (0, 0), BuildingBlock: EYOCIG_clean_linker_4, # of connection points: 2
#     Edge 36, Type (0, 0), BuildingBlock: EYOCIG_clean_linker_4, # of connection points: 2
#     Edge 37, Type (0, 0), BuildingBlock: EYOCIG_clean_linker_4, # of connection points: 2
#     Edge 38, Type (0, 0), BuildingBlock: EYOCIG_clean_linker_4, # of connection points: 2
#     Edge 39, Type (0, 0), BuildingBlock: EYOCIG_clean_linker_4, # of connection points: 2
#     Edge 40, Type (0, 0), BuildingBlock: EYOCIG_clean_linker_4, # of connection points: 2
#     Edge 41, Type (0, 0), BuildingBlock: EYOCIG_clean_linker_4, # of connection points: 2
#     Edge 42, Type (0, 0), BuildingBlock: EYOCIG_clean_linker_4, # of connection points: 2
#     Edge 43, Type (0, 0), BuildingBlock: EYOCIG_clean_linker_4, # of connection points: 2
#     Edge 44, Type (0, 0), BuildingBlock: EYOCIG_clean_linker_4, # of connection points: 2
#     Edge 45, Type (0, 0), BuildingBlock: EYOCIG_clean_linker_4, # of connection points: 2
#     Edge 46, Type (0, 0), BuildingBlock: EYOCIG_clean_linker_4, # of connection points: 2
#     Edge 47, Type (0, 0), BuildingBlock: EYOCIG_clean_linker_4, # of connection points: 2
# Relax obj value: 0.386
# Max RMSD: 0.269
# Mean RMSD: 0.269
data_MOF--net-wme--node1-MIDCAF_clean_sbu_0--edge1-EYOCIG_clean_linker_4
_symmetry_space_group_name_H-M    P1
_symmetry_Int_Tables_number       1
_symmetry_cell_setting            triclinic
loop_
_symmetry_equiv_pos_as_xyz
'x, y, z'
_cell_length_a     23.152874
_cell_length_b     23.143771
_cell_length_c     46.077409
_cell_angle_alpha  90.186474
_cell_angle_beta   89.666763
_cell_angle_gamma 119.24513
loop_
_atom_site_label
_atom_site_type_symbol
_atom_site_fract_x
_atom_site_fract_y
_atom_site_fract_z
_atom_type_partial_charge
Zn0 Zn 0.13026 0.20165 0.1732 0.0
Zn1 Zn 0.20446 0.37176 0.08423 0.0
Zn2 Zn 0.17719 0.29513 0.13239 0.0
C3 C 0.09662 0.37168 0.10955 0.0
C4 C 0.31188 0.4209 0.12705 0.0
O5 O 0.17656 0.20479 0.1175 0.0
O6 O 0.16097 0.14232 0.15622 0.0
C7 C 0.0272 0.21853 0.15054 0.0
O8 O 0.10384 0.3302 0.12563 0.0
O9 O 0.13656 0.40119 0.08904 0.0
O10 O 0.29478 0.4258 0.10155 0.0
O11 O 0.27136 0.37683 0.14474 0.0
O12 O 0.03684 0.1772 0.16445 0.0
O13 O 0.07588 0.27119 0.14012 0.0
O14 O 0.24086 0.34172 0.17116 0.0
O15 O 0.1804 0.26631 0.20414 0.0
C16 C 0.22812 0.32253 0.19782 0.0
O17 O 0.1931 0.24705 0.09372 0.0
O18 O 0.19436 0.30365 0.05477 0.0
C19 C 0.17286 0.15299 0.12944 0.0
C20 C 0.1955 0.2545 0.06596 0.0
Zn21 Zn 0.81327 0.22631 0.58289 0.0
Zn22 Zn 0.88151 0.11948 0.66592 0.0
Zn23 Zn 0.84739 0.18175 0.62817 0.0
C24 C 0.85354 0.21192 0.69497 0.0
C25 C 0.77059 0.02123 0.64077 0.0
O26 O 0.91906 0.20611 0.59076 0.0
O27 O 0.86964 0.21669 0.55181 0.0
C28 C 0.84661 0.31574 0.63046 0.0
O29 O 0.85432 0.23395 0.66928 0.0
O30 O 0.85799 0.16021 0.6987 0.0
O31 O 0.8184 0.02528 0.65536 0.0
O32 O 0.77213 0.074 0.63089 0.0
O33 O 0.84393 0.31332 0.60305 0.0
O34 O 0.8434 0.26735 0.64528 0.0
O35 O 0.74607 0.10899 0.61834 0.0
O36 O 0.71622 0.16448 0.58871 0.0
C37 C 0.70094 0.11628 0.60559 0.0
O38 O 0.94658 0.20288 0.61652 0.0
O39 O -0.0232 0.16561 0.65448 0.0
C40 C 0.91756 0.21338 0.56305 0.0
C41 C -0.00878 0.19876 0.63131 0.0
Zn42 Zn 0.73245 0.86542 0.17116 0.0
Zn43 Zn 0.56019 0.80851 0.08813 0.0
Zn44 Zn 0.64149 0.83937 0.13228 0.0
C45 C 0.55933 0.69384 0.1088 0.0
C46 C 0.50591 0.84027 0.13661 0.0
O47 O 0.72128 0.93706 0.12123 0.0
O48 O 0.78482 0.96028 0.16008 0.0
C49 C 0.72096 0.75564 0.14441 0.0
O50 O 0.61172 0.73755 0.12157 0.0
O51 O 0.52625 0.71096 0.09282 0.0
O52 O 0.50357 0.83857 0.10919 0.0
O53 O 0.55265 0.83706 0.15013 0.0
O54 O 0.76214 0.80016 0.16088 0.0
O55 O 0.67233 0.76088 0.13373 0.0
O56 O 0.59773 0.8491 0.17368 0.0
O57 O 0.67023 0.8465 0.20409 0.0
C58 C 0.61672 0.84697 0.19967 0.0
O59 O 0.68942 0.91168 0.09526 0.0
O60 O 0.62511 0.865 0.05728 0.0
C61 C 0.76974 -0.02169 0.13687 0.0
C62 C 0.67816 0.91066 0.06778 0.0
Zn63 Zn 0.79283 0.74124 0.66476 0.0
Zn64 Zn 0.72271 0.5868 0.58221 0.0
Zn65 Zn 0.74068 0.65946 0.62597 0.0
C66 C 0.78435 0.55033 0.62352 0.0
C67 C 0.60004 0.56104 0.60913 0.0
O68 O 0.66207 0.68346 0.63433 0.0
O69 O 0.73675 0.77938 0.65264 0.0
C70 C 0.8846 0.77412 0.62171 0.0
O71 O 0.76327 0.58229 0.63921 0.0
O72 O 0.78274 0.55246 0.59612 0.0
O73 O 0.62786 0.53547 0.59432 0.0
O74 O 0.63432 0.61792 0.62111 0.0
O75 O 0.88467 0.77852 0.64897 0.0
O76 O 0.83032 0.73944 0.60801 0.0
O77 O 0.76574 0.61677 0.66473 0.0
O78 O 0.77038 0.68489 0.69944 0.0
C79 C 0.76922 0.63201 0.69185 0.0
O80 O 0.78743 0.72118 0.58598 0.0
O81 O 0.74264 0.65139 0.54952 0.0
C82 C 0.68013 0.74333 0.64198 0.0
C83 C 0.77438 0.71011 0.55866 0.0
Zn84 Zn 0.02575 0.77766 0.16253 0.0
Zn85 Zn 0.1176 0.69173 0.09303 0.0
Zn86 Zn 0.05785 0.71886 0.12952 0.0
C87 C 0.20886 0.76139 0.13431 0.0
C88 C 0.01591 0.57556 0.11927 0.0
O89 O 0.95329 0.64565 0.13592 0.0
O90 O 0.93439 0.72744 0.14791 0.0
C91 C 0.09455 0.8657 0.12012 0.0
O92 O 0.15404 0.74161 0.14826 0.0
O93 O 0.20872 0.75538 0.10705 0.0
O94 O 0.0737 0.60016 0.10886 0.0
O95 O -0.00903 0.61284 0.12567 0.0
O96 O 0.08575 0.86779 0.14703 0.0
O97 O 0.07582 0.80985 0.10745 0.0
O98 O 0.11437 0.73929 0.17131 0.0
O99 O 0.04617 0.75319 0.20045 0.0
C100 C 0.09515 0.74414 0.1971 0.0
O101 O 0.05417 0.76295 0.08675 0.0
O102 O 0.0773 0.70263 0.05669 0.0
C103 C 0.91298 0.66824 0.14 0.0
C104 C 0.05315 0.74028 0.06101 0.0
Zn105 Zn 0.21876 0.08327 0.66605 0.0
Zn106 Zn 0.38755 0.15999 0.57795 0.0
Zn107 Zn 0.31176 0.12096 0.62676 0.0
C108 C 0.39279 0.27294 0.60054 0.0
C109 C 0.43297 0.1027 0.62394 0.0
O110 O 0.22158 0.03319 0.61299 0.0
O111 O 0.15866 -0.0074 0.65214 0.0
C112 C 0.2377 0.20057 0.64094 0.0
O113 O 0.3501 0.22793 0.61745 0.0
O114 O 0.42075 0.25795 0.58062 0.0
O115 O 0.43781 0.12089 0.59775 0.0
O116 O 0.3906 0.10496 0.6413 0.0
O117 O 0.19487 0.15154 0.65498 0.0
O118 O 0.29053 0.2018 0.63161 0.0
O119 O 0.35557 0.10552 0.66738 0.0
O120 O 0.27928 0.09906 0.69853 0.0
C121 C 0.33501 0.10368 0.69365 0.0
O122 O 0.26276 0.05435 0.58887 0.0
O123 O 0.31917 0.10229 0.54884 0.0
C124 C 0.16965 -0.01204 0.62566 0.0
C125 C 0.26951 0.05534 0.56103 0.0
Zn126 Zn 0.58084 0.79508 0.43219 0.0
Zn127 Zn 0.75354 0.87961 0.35549 0.0
Zn128 Zn 0.66779 0.8376 0.3938 0.0
C129 C 0.63841 0.85157 0.32857 0.0
C130 C 0.77881 -0.02068 0.39632 0.0
O131 O 0.72353 0.88209 0.43399 0.0
O132 O 0.64813 0.80332 0.46156 0.0
C133 C 0.56632 0.68922 0.39864 0.0
O134 O 0.62594 0.8599 0.35503 0.0
O135 O 0.68874 0.84586 0.32269 0.0
O136 O 0.78384 0.97227 0.36941 0.0
O137 O 0.74569 0.92844 0.41255 0.0
O138 O 0.53005 0.70754 0.41182 0.0
O139 O 0.62764 0.73044 0.39397 0.0
O140 O 0.59384 0.8632 0.38016 0.0
O141 O 0.55744 0.86638 0.42424 0.0
C142 C 0.56166 0.88059 0.39758 0.0
O143 O 0.69285 0.75915 0.38893 0.0
O144 O 0.79348 0.82805 0.37323 0.0
C145 C 0.7071 0.84845 0.45773 0.0
C146 C 0.75339 0.77385 0.38504 0.0
Zn147 Zn 0.83817 0.74937 0.85094 0.0
Zn148 Zn 0.74457 0.55143 0.92849 0.0
Zn149 Zn 0.78639 0.64645 0.88772 0.0
C150 C 0.63563 0.56258 0.90783 0.0
C151 C 0.79961 0.51997 0.87892 0.0
O152 O 0.87655 0.72562 0.90638 0.0
O153 O 0.92524 0.79812 0.87086 0.0
C154 C 0.7162 0.73122 0.87336 0.0
O155 O 0.68158 0.61494 0.8957 0.0
O156 O 0.64939 0.52472 0.92231 0.0
O157 O 0.78345 0.5054 0.90521 0.0
O158 O 0.79756 0.56882 0.86688 0.0
O159 O 0.76811 0.7728 0.86038 0.0
O160 O 0.71112 0.6773 0.88352 0.0
O161 O 0.80169 0.61072 0.84479 0.0
O162 O 0.82717 0.69572 0.81554 0.0
C163 C 0.81277 0.63616 0.81916 0.0
O164 O 0.84849 0.67843 0.92791 0.0
O165 O 0.7964 0.6049 0.96265 0.0
C166 C 0.92594 0.77835 0.89628 0.0
C167 C 0.84434 0.65931 0.95448 0.0
Zn168 Zn 0.10884 0.87444 0.36379 0.0
Zn169 Zn 0.19671 0.77012 0.42998 0.0
Zn170 Zn 0.15287 0.82413 0.39695 0.0
C171 C 0.11501 0.67731 0.3906 0.0
C172 C 0.30101 0.87241 0.40015 0.0
O173 O 0.22731 0.92881 0.39765 0.0
O174 O 0.15523 0.96051 0.38528 0.0
C175 C 0.00889 0.78962 0.40177 0.0
O176 O 0.13185 0.73099 0.37646 0.0
O177 O 0.12768 0.67946 0.41734 0.0
O178 O 0.28406 0.81468 0.409 0.0
O179 O 0.25851 0.89273 0.39904 0.0
O180 O 0.01628 0.80857 0.37569 0.0
O181 O 0.05964 0.80312 0.41745 0.0
O182 O 0.13637 0.77372 0.35439 0.0
O183 O 0.14564 0.85666 0.32753 0.0
C184 C 0.14433 0.80164 0.32946 0.0
O185 O 0.10532 0.82039 0.43887 0.0
O186 O 0.18591 0.81924 0.46363 0.0
C187 C 0.2096 0.97337 0.39671 0.0
C188 C 0.13899 0.83214 0.4624 0.0
Zn189 Zn 0.21388 0.10477 0.8557 0.0
Zn190 Zn 0.4033 0.21038 0.92482 0.0
Zn191 Zn 0.30444 0.16102 0.89138 0.0
C192 C 0.41694 0.12452 0.88706 0.0
C193 C 0.39599 0.31372 0.89795 0.0
O194 O 0.26937 0.23245 0.88705 0.0
O195 O 0.17259 0.15747 0.86996 0.0
C196 C 0.18678 0.02 0.90186 0.0
O197 O 0.37573 0.13545 0.8728 0.0
O198 O 0.4334 0.14648 0.91251 0.0
O199 O 0.43934 0.30023 0.90715 0.0
O200 O 0.33647 0.26734 0.89344 0.0
O201 O 0.17804 0.01629 0.87474 0.0
O202 O 0.22841 0.07482 0.91374 0.0
O203 O 0.34035 0.13649 0.84953 0.0
O204 O 0.26266 0.12226 0.81817 0.0
C205 C 0.31907 0.12889 0.82316 0.0
O206 O 0.26715 0.1177 0.93468 0.0
O207 O 0.34862 0.1947 0.96046 0.0
C208 C 0.20776 0.21223 0.88239 0.0
C209 C 0.29026 0.14722 0.95902 0.0
Zn210 Zn 0.1289 0.23035 0.36128 0.0
Zn211 Zn 0.20884 0.41878 0.42691 0.0
Zn212 Zn 0.16649 0.3239 0.39393 0.0
C213 C 0.31331 0.4315 0.39425 0.0
C214 C 0.11732 0.42537 0.39057 0.0
O215 O 0.06347 0.29637 0.38687 0.0
O216 O 0.03686 0.19319 0.37677 0.0
C217 C 0.19841 0.21421 0.40688 0.0
O218 O 0.26447 0.39396 0.37789 0.0
O219 O 0.30327 0.44234 0.42017 0.0
O220 O 0.17098 0.46417 0.403 0.0
O221 O 0.09819 0.36321 0.38898 0.0
O222 O 0.18918 0.20273 0.38004 0.0
O223 O 0.17983 0.25212 0.41944 0.0
O224 O 0.23095 0.35455 0.35404 0.0
O225 O 0.15823 0.28052 0.32408 0.0
C226 C 0.21222 0.33314 0.32801 0.0
O227 O 0.15587 0.28126 0.43833 0.0
O228 O 0.15451 0.36504 0.46064 0.0
C229 C 0.02004 0.23489 0.385 0.0
C230 C 0.14073 0.30519 0.46063 0.0
Zn231 Zn 0.84112 0.07822 0.85444 0.0
Zn232 Zn 0.74973 0.17954 0.92452 0.0
Zn233 Zn 0.79142 0.12466 0.89021 0.0
C234 C 0.82226 0.27382 0.88629 0.0
C235 C 0.64422 0.08158 0.89231 0.0
O236 O 0.71402 0.02268 0.8814 0.0
O237 O 0.7785 -0.01597 0.86509 0.0
C238 C 0.93187 0.14973 0.89993 0.0
O239 O 0.81137 0.22044 0.87316 0.0
O240 O 0.81126 0.27333 0.9132 0.0
O241 O 0.6623 0.13668 0.90448 0.0
O242 O 0.68506 0.05962 0.88891 0.0
O243 O 0.92885 0.13176 0.87384 0.0
O244 O 0.87896 0.13863 0.91371 0.0
O245 O 0.8231 0.18749 0.85056 0.0
O246 O 0.8264 0.11775 0.81862 0.0
C247 C 0.82737 0.17166 0.82414 0.0
O248 O 0.82844 0.11831 0.93443 0.0
O249 O 0.75724 0.13512 0.96017 0.0
C250 C 0.72281 0.97388 0.87425 0.0
C251 C 0.79803 0.11395 0.95862 0.0
C252 C 0.14841 -0.01566 0.09875 0.0
C253 C 0.124 0.92645 0.1043 0.0
C254 C 0.16783 0.05167 0.10206 0.0
C255 C 0.17212 0.1018 0.11178 0.0
C256 C 0.18109 0.26579 0.62391 0.0
C257 C 0.21877 0.24606 0.62969 0.0
C258 C 0.11782 0.25837 0.62042 0.0
C259 C 0.05889 0.23449 0.62246 0.0
C260 C 0.8463 0.10437 0.12882 0.0
C261 C 0.80663 0.04643 0.12898 0.0
C262 C 0.90495 0.1634 0.13417 0.0
C263 C 0.96219 0.1978 0.14007 0.0
C264 C 0.64416 0.82887 0.63281 0.0
C265 C 0.644 0.77683 0.63472 0.0
C266 C 0.67436 0.8988 0.63307 0.0
C267 C 0.71474 0.95685 0.63513 0.0
C268 C 0.7912 0.63135 0.13302 0.0
C269 C 0.84331 0.63145 0.13436 0.0
C270 C 0.74975 0.66042 0.13422 0.0
C271 C 0.73057 0.70025 0.13711 0.0
C272 C 0.00227 0.84241 0.59935 0.0
C273 C 0.94553 0.80876 0.60632 0.0
C274 C 0.06912 0.89022 0.60051 0.0
C275 C 0.11923 0.93642 0.60895 0.0
C276 C 0.88378 0.73229 0.41424 0.0
C277 C 0.94296 0.75592 0.41317 0.0
C278 C 0.82059 0.72326 0.4078 0.0
C279 C 0.77989 0.7367 0.39887 0.0
C280 C 0.03557 0.85508 0.92357 0.0
C281 C -0.01702 0.81546 0.91383 0.0
C282 C 0.09743 0.91211 0.92596 0.0
C283 C 0.1428 0.96478 0.91913 0.0
C284 C 0.24822 0.14341 0.42615 0.0
C285 C 0.22663 0.18071 0.42245 0.0
C286 C 0.25742 0.08843 0.421 0.0
C287 C 0.24574 0.03534 0.4115 0.0
C288 C 0.12398 0.24011 0.90695 0.0
C289 C 0.17267 0.23992 0.89758 0.0
C290 C 0.05647 0.21748 0.91346 0.0
C291 C -0.00321 0.18823 0.9121 0.0
C292 C 0.90067 0.16811 0.40436 0.0
C293 C 0.95474 0.20986 0.39657 0.0
C294 C 0.84792 0.10403 0.40962 0.0
C295 C 0.81317 0.04499 0.40787 0.0
C296 C 0.64263 0.78549 0.87986 0.0
C297 C 0.66657 0.74966 0.87903 0.0
C298 C 0.64513 0.8474 0.8795 0.0
C299 C 0.67178 0.90683 0.87844 0.0
C300 C -0.01851 0.45301 0.12353 0.0
C301 C -0.01771 0.50548 0.12401 0.0
C302 C 0.00837 0.41012 0.12022 0.0
C303 C 0.04682 0.38952 0.11677 0.0
C304 C 0.579 0.06469 0.62456 0.0
C305 C 0.63536 0.0831 0.61742 0.0
C306 C 0.52005 0.06484 0.63198 0.0
C307 C 0.47666 0.07916 0.63301 0.0
C308 C 0.49151 0.57067 0.12614 0.0
C309 C 0.52788 0.62745 0.1196 0.0
C310 C 0.4347 0.51081 0.13344 0.0
C311 C 0.37863 0.46619 0.13495 0.0
C312 C 0.82568 0.4715 0.64477 0.0
C313 C 0.80633 0.50868 0.63694 0.0
C314 C 0.84058 0.41968 0.64807 0.0
C315 C 0.84459 0.37028 0.64422 0.0
C316 C 0.39567 0.82853 0.15761 0.0
C317 C 0.44942 0.83513 0.15188 0.0
C318 C 0.32784 0.8098 0.15641 0.0
C319 C 0.27084 0.78753 0.1493 0.0
C320 C 0.47885 0.46896 0.61291 0.0
C321 C 0.53048 0.52017 0.61419 0.0
C322 C 0.43586 0.40033 0.60937 0.0
C323 C 0.41394 0.34146 0.60642 0.0
C324 C 0.42496 0.93104 0.38558 0.0
C325 C 0.36797 0.91343 0.39103 0.0
C326 C 0.48393 0.92802 0.38362 0.0
C327 C 0.52226 0.90764 0.38679 0.0
C328 C 0.5092 0.5022 0.89749 0.0
C329 C 0.5677 0.53874 0.90035 0.0
C330 C 0.45022 0.44142 0.8946 0.0
C331 C 0.41501 0.38224 0.89441 0.0
C332 C 0.06941 0.55734 0.37081 0.0
C333 C 0.0888 0.6148 0.37613 0.0
C334 C 0.06481 0.49451 0.37198 0.0
C335 C 0.07947 0.45309 0.3785 0.0
C336 C 0.52669 0.04199 0.87304 0.0
C337 C 0.57965 0.04881 0.87987 0.0
C338 C 0.47629 0.05885 0.87063 0.0
C339 C 0.44487 0.0869 0.87467 0.0
C340 C 0.43664 0.50766 0.37973 0.0
C341 C 0.37883 0.46876 0.38278 0.0
C342 C 0.49734 0.56651 0.38212 0.0
C343 C 0.53683 0.6228 0.388 0.0
C344 C 0.83707 0.43986 0.85754 0.0
C345 C 0.82199 0.4814 0.86319 0.0
C346 C 0.8432 0.38286 0.8606 0.0
C347 C 0.83477 0.33081 0.86974 0.0
C348 C 0.27068 0.3807 0.2779 0.0
C349 C 0.25146 0.36646 0.30273 0.0
C350 C 0.27607 0.38059 0.24716 0.0
C351 C 0.26356 0.36444 0.22197 0.0
C352 C 0.84217 0.25061 0.74642 0.0
C353 C 0.84686 0.24336 0.72072 0.0
C354 C 0.83695 0.23843 0.77667 0.0
C355 C 0.83249 0.21396 0.80027 0.0
C356 C 0.56808 0.84711 0.25048 0.0
C357 C 0.58006 0.84693 0.22495 0.0
C358 C 0.57573 0.84882 0.28098 0.0
C359 C 0.59787 0.85098 0.30488 0.0
C360 C 0.78464 0.57716 0.73822 0.0
C361 C 0.77687 0.59324 0.71428 0.0
C362 C 0.79485 0.57884 0.76854 0.0
C363 C 0.80161 0.59623 0.79361 0.0
C364 C 0.14456 0.74454 0.24789 0.0
C365 C 0.12937 0.74261 0.22275 0.0
C366 C 0.15007 0.7541 0.27831 0.0
C367 C 0.14735 0.76977 0.30309 0.0
C368 C 0.37738 0.12124 0.77509 0.0
C369 C 0.35733 0.12574 0.79889 0.0
C370 C 0.38491 0.11498 0.74478 0.0
C371 C 0.37398 0.11011 0.71896 0.0
C372 C 0.22403 0.1452 1.00547 0.0
C373 C 0.24689 0.13812 0.98303 0.0
C374 C 0.20803 0.1731 0.02944 0.0
C375 C 0.20215 0.208 0.04738 0.0
C376 C 0.06158 0.24248 0.50456 0.0
C377 C 0.09793 0.26351 0.48358 0.0
C378 C 0.01414 0.22759 0.52719 0.0
C379 C -0.02819 0.22073 0.54468 0.0
C380 C 0.75796 0.00081 0.02962 0.0
C381 C 0.7248 0.96209 0.04854 0.0
C382 C 0.78703 0.04277 1.00504 0.0
C383 C 0.79899 0.07425 0.98266 0.0
C384 C 0.7915 0.8029 0.52071 0.0
C385 C 0.78614 0.7639 0.5394 0.0
C386 C 0.78021 0.83731 0.49793 0.0
C387 C 0.75575 0.85153 0.47798 0.0
C388 C 0.93732 0.72422 0.99362 0.0
C389 C 0.89687 0.69743 0.97465 0.0
C390 C -0.01835 0.74361 0.01735 0.0
C391 C 0.01336 0.7462 0.03855 0.0
C392 C 0.15001 0.91087 0.50543 0.0
C393 C 0.13628 0.87446 0.48468 0.0
C394 C 0.18361 0.95916 0.52719 0.0
C395 C 0.22116 0.00167 0.54363 0.0
loop_
_geom_bond_atom_site_label_1
_geom_bond_atom_site_label_2
_geom_bond_distance
_geom_bond_site_symmetry_2
_ccdc_geom_bond_type
Zn0 O6 1.920 . S
Zn0 O12 1.898 . S
Zn0 O15 1.905 . S
Zn1 O9 1.905 . S
Zn1 O10 1.898 . S
Zn1 O18 1.920 . S
Zn2 O5 2.080 . S
Zn2 O8 2.114 . S
Zn2 O11 2.120 . S
Zn2 O13 2.120 . S
Zn2 O14 2.114 . S
Zn2 O17 2.080 . S
C3 O8 1.166 . S
C3 O9 1.182 . S
C4 O10 1.167 . S
C4 O11 1.299 . S
O5 Zn2 2.080 . S
O5 C19 1.305 . S
O6 Zn0 1.920 . S
O6 C19 1.234 . S
C7 O12 1.167 . S
C7 O13 1.299 . S
O8 Zn2 2.114 . S
O8 C3 1.166 . S
O9 Zn1 1.905 . S
O9 C3 1.182 . S
O10 Zn1 1.898 . S
O10 C4 1.167 . S
O11 Zn2 2.120 . S
O11 C4 1.299 . S
O12 Zn0 1.898 . S
O12 C7 1.167 . S
O13 Zn2 2.120 . S
O13 C7 1.299 . S
O14 Zn2 2.114 . S
O14 C16 1.166 . S
O15 Zn0 1.905 . S
O15 C16 1.182 . S
C16 O14 1.166 . S
C16 O15 1.182 . S
O17 Zn2 2.080 . S
O17 C20 1.305 . S
O18 Zn1 1.920 . S
O18 C20 1.234 . S
C19 O5 1.305 . S
C19 O6 1.234 . S
C20 O17 1.305 . S
C20 O18 1.234 . S
Zn21 O27 1.920 . S
Zn21 O33 1.898 . S
Zn21 O36 1.905 . S
Zn22 O30 1.905 . S
Zn22 O31 1.898 . S
Zn22 O39 1.920 1_655 S
Zn23 O26 2.080 . S
Zn23 O29 2.114 . S
Zn23 O32 2.120 . S
Zn23 O34 2.120 . S
Zn23 O35 2.114 . S
Zn23 O38 2.080 . S
C24 O29 1.166 . S
C24 O30 1.182 . S
C25 O31 1.167 . S
C25 O32 1.299 . S
O26 Zn23 2.080 . S
O26 C40 1.305 . S
O27 Zn21 1.920 . S
O27 C40 1.234 . S
C28 O33 1.167 . S
C28 O34 1.299 . S
O29 Zn23 2.114 . S
O29 C24 1.166 . S
O30 Zn22 1.905 . S
O30 C24 1.182 . S
O31 Zn22 1.898 . S
O31 C25 1.167 . S
O32 Zn23 2.120 . S
O32 C25 1.299 . S
O33 Zn21 1.898 . S
O33 C28 1.167 . S
O34 Zn23 2.120 . S
O34 C28 1.299 . S
O35 Zn23 2.114 . S
O35 C37 1.166 . S
O36 Zn21 1.905 . S
O36 C37 1.182 . S
C37 O35 1.166 . S
C37 O36 1.182 . S
O38 Zn23 2.080 . S
O38 C41 1.305 1_655 S
O39 Zn22 1.920 1_455 S
O39 C41 1.234 . S
C40 O26 1.305 . S
C40 O27 1.234 . S
C41 O38 1.305 1_455 S
C41 O39 1.234 . S
Zn42 O48 1.920 1_565 S
Zn42 O54 1.898 . S
Zn42 O57 1.905 . S
Zn43 O51 1.905 . S
Zn43 O52 1.898 . S
Zn43 O60 1.920 . S
Zn44 O47 2.080 . S
Zn44 O50 2.114 . S
Zn44 O53 2.120 . S
Zn44 O55 2.120 . S
Zn44 O56 2.114 . S
Zn44 O59 2.080 . S
C45 O50 1.166 . S
C45 O51 1.182 . S
C46 O52 1.167 . S
C46 O53 1.299 . S
O47 Zn44 2.080 . S
O47 C61 1.305 1_565 S
O48 Zn42 1.920 1_545 S
O48 C61 1.234 . S
C49 O54 1.167 . S
C49 O55 1.299 . S
O50 Zn44 2.114 . S
O50 C45 1.166 . S
O51 Zn43 1.905 . S
O51 C45 1.182 . S
O52 Zn43 1.898 . S
O52 C46 1.167 . S
O53 Zn44 2.120 . S
O53 C46 1.299 . S
O54 Zn42 1.898 . S
O54 C49 1.167 . S
O55 Zn44 2.120 . S
O55 C49 1.299 . S
O56 Zn44 2.114 . S
O56 C58 1.166 . S
O57 Zn42 1.905 . S
O57 C58 1.182 . S
C58 O56 1.166 . S
C58 O57 1.182 . S
O59 Zn44 2.080 . S
O59 C62 1.305 . S
O60 Zn43 1.920 . S
O60 C62 1.234 . S
C61 O47 1.305 1_545 S
C61 O48 1.234 . S
C62 O59 1.305 . S
C62 O60 1.234 . S
Zn63 O69 1.920 . S
Zn63 O75 1.898 . S
Zn63 O78 1.905 . S
Zn64 O72 1.905 . S
Zn64 O73 1.898 . S
Zn64 O81 1.920 . S
Zn65 O68 2.080 . S
Zn65 O71 2.114 . S
Zn65 O74 2.120 . S
Zn65 O76 2.120 . S
Zn65 O77 2.114 . S
Zn65 O80 2.080 . S
C66 O71 1.166 . S
C66 O72 1.182 . S
C67 O73 1.167 . S
C67 O74 1.299 . S
O68 Zn65 2.080 . S
O68 C82 1.305 . S
O69 Zn63 1.920 . S
O69 C82 1.234 . S
C70 O75 1.167 . S
C70 O76 1.299 . S
O71 Zn65 2.114 . S
O71 C66 1.166 . S
O72 Zn64 1.905 . S
O72 C66 1.182 . S
O73 Zn64 1.898 . S
O73 C67 1.167 . S
O74 Zn65 2.120 . S
O74 C67 1.299 . S
O75 Zn63 1.898 . S
O75 C70 1.167 . S
O76 Zn65 2.120 . S
O76 C70 1.299 . S
O77 Zn65 2.114 . S
O77 C79 1.166 . S
O78 Zn63 1.905 . S
O78 C79 1.182 . S
C79 O77 1.166 . S
C79 O78 1.182 . S
O80 Zn65 2.080 . S
O80 C83 1.305 . S
O81 Zn64 1.920 . S
O81 C83 1.234 . S
C82 O68 1.305 . S
C82 O69 1.234 . S
C83 O80 1.305 . S
C83 O81 1.234 . S
Zn84 O90 1.920 1_455 S
Zn84 O96 1.898 . S
Zn84 O99 1.905 . S
Zn85 O93 1.905 . S
Zn85 O94 1.898 . S
Zn85 O102 1.920 . S
Zn86 O89 2.080 . S
Zn86 O92 2.114 . S
Zn86 O95 2.120 . S
Zn86 O97 2.120 . S
Zn86 O98 2.114 . S
Zn86 O101 2.080 . S
C87 O92 1.166 . S
C87 O93 1.182 . S
C88 O94 1.167 . S
C88 O95 1.299 . S
O89 Zn86 2.080 . S
O89 C103 1.305 1_455 S
O90 Zn84 1.920 1_655 S
O90 C103 1.234 . S
C91 O96 1.167 . S
C91 O97 1.299 . S
O92 Zn86 2.114 . S
O92 C87 1.166 . S
O93 Zn85 1.905 . S
O93 C87 1.182 . S
O94 Zn85 1.898 . S
O94 C88 1.167 . S
O95 Zn86 2.120 . S
O95 C88 1.299 . S
O96 Zn84 1.898 . S
O96 C91 1.167 . S
O97 Zn86 2.120 . S
O97 C91 1.299 . S
O98 Zn86 2.114 . S
O98 C100 1.166 . S
O99 Zn84 1.905 . S
O99 C100 1.182 . S
C100 O98 1.166 . S
C100 O99 1.182 . S
O101 Zn86 2.080 . S
O101 C104 1.305 . S
O102 Zn85 1.920 . S
O102 C104 1.234 . S
C103 O89 1.305 1_655 S
C103 O90 1.234 . S
C104 O101 1.305 . S
C104 O102 1.234 . S
Zn105 O111 1.920 1_545 S
Zn105 O117 1.898 . S
Zn105 O120 1.905 . S
Zn106 O114 1.905 . S
Zn106 O115 1.898 . S
Zn106 O123 1.920 . S
Zn107 O110 2.080 . S
Zn107 O113 2.114 . S
Zn107 O116 2.120 . S
Zn107 O118 2.120 . S
Zn107 O119 2.114 . S
Zn107 O122 2.080 . S
C108 O113 1.166 . S
C108 O114 1.182 . S
C109 O115 1.167 . S
C109 O116 1.299 . S
O110 Zn107 2.080 . S
O110 C124 1.305 1_545 S
O111 Zn105 1.920 1_565 S
O111 C124 1.234 . S
C112 O117 1.167 . S
C112 O118 1.299 . S
O113 Zn107 2.114 . S
O113 C108 1.166 . S
O114 Zn106 1.905 . S
O114 C108 1.182 . S
O115 Zn106 1.898 . S
O115 C109 1.167 . S
O116 Zn107 2.120 . S
O116 C109 1.299 . S
O117 Zn105 1.898 . S
O117 C112 1.167 . S
O118 Zn107 2.120 . S
O118 C112 1.299 . S
O119 Zn107 2.114 . S
O119 C121 1.166 . S
O120 Zn105 1.905 . S
O120 C121 1.182 . S
C121 O119 1.166 . S
C121 O120 1.182 . S
O122 Zn107 2.080 . S
O122 C125 1.305 . S
O123 Zn106 1.920 . S
O123 C125 1.234 . S
C124 O110 1.305 1_565 S
C124 O111 1.234 . S
C125 O122 1.305 . S
C125 O123 1.234 . S
Zn126 O132 1.920 . S
Zn126 O138 1.898 . S
Zn126 O141 1.905 . S
Zn127 O135 1.905 . S
Zn127 O136 1.898 . S
Zn127 O144 1.920 . S
Zn128 O131 2.080 . S
Zn128 O134 2.114 . S
Zn128 O137 2.120 . S
Zn128 O139 2.120 . S
Zn128 O140 2.114 . S
Zn128 O143 2.080 . S
C129 O134 1.166 . S
C129 O135 1.182 . S
C130 O136 1.167 . S
C130 O137 1.299 . S
O131 Zn128 2.080 . S
O131 C145 1.305 . S
O132 Zn126 1.920 . S
O132 C145 1.234 . S
C133 O138 1.167 . S
C133 O139 1.299 . S
O134 Zn128 2.114 . S
O134 C129 1.166 . S
O135 Zn127 1.905 . S
O135 C129 1.182 . S
O136 Zn127 1.898 . S
O136 C130 1.167 . S
O137 Zn128 2.120 . S
O137 C130 1.299 . S
O138 Zn126 1.898 . S
O138 C133 1.167 . S
O139 Zn128 2.120 . S
O139 C133 1.299 . S
O140 Zn128 2.114 . S
O140 C142 1.166 . S
O141 Zn126 1.905 . S
O141 C142 1.182 . S
C142 O140 1.166 . S
C142 O141 1.182 . S
O143 Zn128 2.080 . S
O143 C146 1.305 . S
O144 Zn127 1.920 . S
O144 C146 1.234 . S
C145 O131 1.305 . S
C145 O132 1.234 . S
C146 O143 1.305 . S
C146 O144 1.234 . S
Zn147 O153 1.920 1_655 S
Zn147 O159 1.898 . S
Zn147 O162 1.905 . S
Zn148 O156 1.905 . S
Zn148 O157 1.898 . S
Zn148 O165 1.920 . S
Zn149 O152 2.080 . S
Zn149 O155 2.114 . S
Zn149 O158 2.120 . S
Zn149 O160 2.120 . S
Zn149 O161 2.114 . S
Zn149 O164 2.080 . S
C150 O155 1.166 . S
C150 O156 1.182 . S
C151 O157 1.167 . S
C151 O158 1.299 . S
O152 Zn149 2.080 . S
O152 C166 1.305 1_655 S
O153 Zn147 1.920 1_455 S
O153 C166 1.234 . S
C154 O159 1.167 . S
C154 O160 1.299 . S
O155 Zn149 2.114 . S
O155 C150 1.166 . S
O156 Zn148 1.905 . S
O156 C150 1.182 . S
O157 Zn148 1.898 . S
O157 C151 1.167 . S
O158 Zn149 2.120 . S
O158 C151 1.299 . S
O159 Zn147 1.898 . S
O159 C154 1.167 . S
O160 Zn149 2.120 . S
O160 C154 1.299 . S
O161 Zn149 2.114 . S
O161 C163 1.166 . S
O162 Zn147 1.905 . S
O162 C163 1.182 . S
C163 O161 1.166 . S
C163 O162 1.182 . S
O164 Zn149 2.080 . S
O164 C167 1.305 . S
O165 Zn148 1.920 . S
O165 C167 1.234 . S
C166 O152 1.305 1_455 S
C166 O153 1.234 . S
C167 O164 1.305 . S
C167 O165 1.234 . S
Zn168 O174 1.920 1_565 S
Zn168 O180 1.898 . S
Zn168 O183 1.905 . S
Zn169 O177 1.905 . S
Zn169 O178 1.898 . S
Zn169 O186 1.920 . S
Zn170 O173 2.080 . S
Zn170 O176 2.114 . S
Zn170 O179 2.120 . S
Zn170 O181 2.120 . S
Zn170 O182 2.114 . S
Zn170 O185 2.080 . S
C171 O176 1.166 . S
C171 O177 1.182 . S
C172 O178 1.167 . S
C172 O179 1.299 . S
O173 Zn170 2.080 . S
O173 C187 1.305 1_565 S
O174 Zn168 1.920 1_545 S
O174 C187 1.234 . S
C175 O180 1.167 . S
C175 O181 1.299 . S
O176 Zn170 2.114 . S
O176 C171 1.166 . S
O177 Zn169 1.905 . S
O177 C171 1.182 . S
O178 Zn169 1.898 . S
O178 C172 1.167 . S
O179 Zn170 2.120 . S
O179 C172 1.299 . S
O180 Zn168 1.898 . S
O180 C175 1.167 . S
O181 Zn170 2.120 . S
O181 C175 1.299 . S
O182 Zn170 2.114 . S
O182 C184 1.166 . S
O183 Zn168 1.905 . S
O183 C184 1.182 . S
C184 O182 1.166 . S
C184 O183 1.182 . S
O185 Zn170 2.080 . S
O185 C188 1.305 . S
O186 Zn169 1.920 . S
O186 C188 1.234 . S
C187 O173 1.305 1_545 S
C187 O174 1.234 . S
C188 O185 1.305 . S
C188 O186 1.234 . S
Zn189 O195 1.920 . S
Zn189 O201 1.898 . S
Zn189 O204 1.905 . S
Zn190 O198 1.905 . S
Zn190 O199 1.898 . S
Zn190 O207 1.920 . S
Zn191 O194 2.080 . S
Zn191 O197 2.114 . S
Zn191 O200 2.120 . S
Zn191 O202 2.120 . S
Zn191 O203 2.114 . S
Zn191 O206 2.080 . S
C192 O197 1.166 . S
C192 O198 1.182 . S
C193 O199 1.167 . S
C193 O200 1.299 . S
O194 Zn191 2.080 . S
O194 C208 1.305 . S
O195 Zn189 1.920 . S
O195 C208 1.234 . S
C196 O201 1.167 . S
C196 O202 1.299 . S
O197 Zn191 2.114 . S
O197 C192 1.166 . S
O198 Zn190 1.905 . S
O198 C192 1.182 . S
O199 Zn190 1.898 . S
O199 C193 1.167 . S
O200 Zn191 2.120 . S
O200 C193 1.299 . S
O201 Zn189 1.898 . S
O201 C196 1.167 . S
O202 Zn191 2.120 . S
O202 C196 1.299 . S
O203 Zn191 2.114 . S
O203 C205 1.166 . S
O204 Zn189 1.905 . S
O204 C205 1.182 . S
C205 O203 1.166 . S
C205 O204 1.182 . S
O206 Zn191 2.080 . S
O206 C209 1.305 . S
O207 Zn190 1.920 . S
O207 C209 1.234 . S
C208 O194 1.305 . S
C208 O195 1.234 . S
C209 O206 1.305 . S
C209 O207 1.234 . S
Zn210 O216 1.920 1_455 S
Zn210 O222 1.898 . S
Zn210 O225 1.905 . S
Zn211 O219 1.905 . S
Zn211 O220 1.898 . S
Zn211 O228 1.920 . S
Zn212 O215 2.080 . S
Zn212 O218 2.114 . S
Zn212 O221 2.120 . S
Zn212 O223 2.120 . S
Zn212 O224 2.114 . S
Zn212 O227 2.080 . S
C213 O218 1.166 . S
C213 O219 1.182 . S
C214 O220 1.167 . S
C214 O221 1.299 . S
O215 Zn212 2.080 . S
O215 C229 1.305 1_455 S
O216 Zn210 1.920 1_655 S
O216 C229 1.234 . S
C217 O222 1.167 . S
C217 O223 1.299 . S
O218 Zn212 2.114 . S
O218 C213 1.166 . S
O219 Zn211 1.905 . S
O219 C213 1.182 . S
O220 Zn211 1.898 . S
O220 C214 1.167 . S
O221 Zn212 2.120 . S
O221 C214 1.299 . S
O222 Zn210 1.898 . S
O222 C217 1.167 . S
O223 Zn212 2.120 . S
O223 C217 1.299 . S
O224 Zn212 2.114 . S
O224 C226 1.166 . S
O225 Zn210 1.905 . S
O225 C226 1.182 . S
C226 O224 1.166 . S
C226 O225 1.182 . S
O227 Zn212 2.080 . S
O227 C230 1.305 . S
O228 Zn211 1.920 . S
O228 C230 1.234 . S
C229 O215 1.305 1_655 S
C229 O216 1.234 . S
C230 O227 1.305 . S
C230 O228 1.234 . S
Zn231 O237 1.920 1_545 S
Zn231 O243 1.898 . S
Zn231 O246 1.905 . S
Zn232 O240 1.905 . S
Zn232 O241 1.898 . S
Zn232 O249 1.920 . S
Zn233 O236 2.080 . S
Zn233 O239 2.114 . S
Zn233 O242 2.120 . S
Zn233 O244 2.120 . S
Zn233 O245 2.114 . S
Zn233 O248 2.080 . S
C234 O239 1.166 . S
C234 O240 1.182 . S
C235 O241 1.167 . S
C235 O242 1.299 . S
O236 Zn233 2.080 . S
O236 C250 1.305 1_545 S
O237 Zn231 1.920 1_565 S
O237 C250 1.234 . S
C238 O243 1.167 . S
C238 O244 1.299 . S
O239 Zn233 2.114 . S
O239 C234 1.166 . S
O240 Zn232 1.905 . S
O240 C234 1.182 . S
O241 Zn232 1.898 . S
O241 C235 1.167 . S
O242 Zn233 2.120 . S
O242 C235 1.299 . S
O243 Zn231 1.898 . S
O243 C238 1.167 . S
O244 Zn233 2.120 . S
O244 C238 1.299 . S
O245 Zn233 2.114 . S
O245 C247 1.166 . S
O246 Zn231 1.905 . S
O246 C247 1.182 . S
C247 O245 1.166 . S
C247 O246 1.182 . S
O248 Zn233 2.080 . S
O248 C251 1.305 . S
O249 Zn232 1.920 . S
O249 C251 1.234 . S
C250 O236 1.305 1_565 S
C250 O237 1.234 . S
C251 O248 1.305 . S
C251 O249 1.234 . S
C252 C253 1.170 1_545 S
C252 C254 1.380 . S
C253 C252 1.170 1_565 S
C254 C252 1.380 . S
C254 C255 1.170 . S
C255 C254 1.170 . S
C256 C257 1.170 . S
C256 C258 1.380 . S
C257 C256 1.170 . S
C258 C256 1.380 . S
C258 C259 1.170 . S
C259 C258 1.170 . S
C260 C261 1.170 . S
C260 C262 1.380 . S
C261 C260 1.170 . S
C262 C260 1.380 . S
C262 C263 1.170 1_655 S
C263 C262 1.170 1_455 S
C264 C265 1.170 . S
C264 C266 1.380 . S
C265 C264 1.170 . S
C266 C264 1.380 . S
C266 C267 1.170 1_565 S
C267 C266 1.170 1_545 S
C268 C269 1.170 . S
C268 C270 1.380 . S
C269 C268 1.170 . S
C270 C268 1.380 . S
C270 C271 1.170 . S
C271 C270 1.170 . S
C272 C273 1.170 1_455 S
C272 C274 1.380 . S
C273 C272 1.170 1_655 S
C274 C272 1.380 . S
C274 C275 1.170 . S
C275 C274 1.170 . S
C276 C277 1.170 1_655 S
C276 C278 1.380 . S
C277 C276 1.170 1_455 S
C278 C276 1.380 . S
C278 C279 1.170 . S
C279 C278 1.170 . S
C280 C281 1.170 . S
C280 C282 1.380 . S
C281 C280 1.170 . S
C282 C280 1.380 . S
C282 C283 1.170 1_565 S
C283 C282 1.170 1_545 S
C284 C285 1.170 . S
C284 C286 1.380 . S
C285 C284 1.170 . S
C286 C284 1.380 . S
C286 C287 1.170 . S
C287 C286 1.170 . S
C288 C289 1.170 . S
C288 C290 1.380 . S
C289 C288 1.170 . S
C290 C288 1.380 . S
C290 C291 1.170 1_455 S
C291 C290 1.170 1_655 S
C292 C293 1.170 . S
C292 C294 1.380 . S
C293 C292 1.170 . S
C294 C292 1.380 . S
C294 C295 1.170 1_545 S
C295 C294 1.170 1_565 S
C296 C297 1.170 . S
C296 C298 1.380 . S
C297 C296 1.170 . S
C298 C296 1.380 . S
C298 C299 1.170 . S
C299 C298 1.170 . S
C300 C301 1.170 . S
C300 C302 1.380 . S
C301 C300 1.170 . S
C302 C300 1.380 . S
C302 C303 1.170 . S
C303 C302 1.170 . S
C304 C305 1.170 . S
C304 C306 1.380 . S
C305 C304 1.170 . S
C306 C304 1.380 . S
C306 C307 1.170 . S
C307 C306 1.170 . S
C308 C309 1.170 . S
C308 C310 1.380 . S
C309 C308 1.170 . S
C310 C308 1.380 . S
C310 C311 1.170 . S
C311 C310 1.170 . S
C312 C313 1.170 . S
C312 C314 1.380 . S
C313 C312 1.170 . S
C314 C312 1.380 . S
C314 C315 1.170 . S
C315 C314 1.170 . S
C316 C317 1.170 . S
C316 C318 1.380 . S
C317 C316 1.170 . S
C318 C316 1.380 . S
C318 C319 1.170 . S
C319 C318 1.170 . S
C320 C321 1.170 . S
C320 C322 1.380 . S
C321 C320 1.170 . S
C322 C320 1.380 . S
C322 C323 1.170 . S
C323 C322 1.170 . S
C324 C325 1.170 . S
C324 C326 1.380 . S
C325 C324 1.170 . S
C326 C324 1.380 . S
C326 C327 1.170 . S
C327 C326 1.170 . S
C328 C329 1.170 . S
C328 C330 1.380 . S
C329 C328 1.170 . S
C330 C328 1.380 . S
C330 C331 1.170 . S
C331 C330 1.170 . S
C332 C333 1.170 . S
C332 C334 1.380 . S
C333 C332 1.170 . S
C334 C332 1.380 . S
C334 C335 1.170 . S
C335 C334 1.170 . S
C336 C337 1.170 . S
C336 C338 1.380 . S
C337 C336 1.170 . S
C338 C336 1.380 . S
C338 C339 1.170 . S
C339 C338 1.170 . S
C340 C341 1.170 . S
C340 C342 1.380 . S
C341 C340 1.170 . S
C342 C340 1.380 . S
C342 C343 1.170 . S
C343 C342 1.170 . S
C344 C345 1.170 . S
C344 C346 1.380 . S
C345 C344 1.170 . S
C346 C344 1.380 . S
C346 C347 1.170 . S
C347 C346 1.170 . S
C348 C349 1.170 . S
C348 C350 1.380 . S
C349 C348 1.170 . S
C350 C348 1.380 . S
C350 C351 1.170 . S
C351 C350 1.170 . S
C352 C353 1.170 . S
C352 C354 1.380 . S
C353 C352 1.170 . S
C354 C352 1.380 . S
C354 C355 1.170 . S
C355 C354 1.170 . S
C356 C357 1.170 . S
C356 C358 1.380 . S
C357 C356 1.170 . S
C358 C356 1.380 . S
C358 C359 1.170 . S
C359 C358 1.170 . S
C360 C361 1.170 . S
C360 C362 1.380 . S
C361 C360 1.170 . S
C362 C360 1.380 . S
C362 C363 1.170 . S
C363 C362 1.170 . S
C364 C365 1.170 . S
C364 C366 1.380 . S
C365 C364 1.170 . S
C366 C364 1.380 . S
C366 C367 1.170 . S
C367 C366 1.170 . S
C368 C369 1.170 . S
C368 C370 1.380 . S
C369 C368 1.170 . S
C370 C368 1.380 . S
C370 C371 1.170 . S
C371 C370 1.170 . S
C372 C373 1.170 . S
C372 C374 1.380 1_556 S
C373 C372 1.170 . S
C374 C372 1.380 1_554 S
C374 C375 1.170 . S
C375 C374 1.170 . S
C376 C377 1.170 . S
C376 C378 1.380 1_455 S
C377 C376 1.170 . S
C378 C376 1.380 1_655 S
C378 C379 1.170 . S
C379 C378 1.170 . S
C380 C381 1.170 . S
C380 C382 1.380 1_564 S
C381 C380 1.170 . S
C382 C380 1.380 1_546 S
C382 C383 1.170 . S
C383 C382 1.170 . S
C384 C385 1.170 . S
C384 C386 1.380 . S
C385 C384 1.170 . S
C386 C384 1.380 . S
C386 C387 1.170 . S
C387 C386 1.170 . S
C388 C389 1.170 . S
C388 C390 1.380 1_656 S
C389 C388 1.170 . S
C390 C388 1.380 1_454 S
C390 C391 1.170 . S
C391 C390 1.170 . S
C392 C393 1.170 . S
C392 C394 1.380 1_565 S
C393 C392 1.170 . S
C394 C392 1.380 1_545 S
C394 C395 1.170 . S
C395 C394 1.170 . S
C253 C91 0.988 . S
C255 C19 1.004 . S
C257 C112 0.975 . S
C259 C41 0.995 . S
C261 C61 0.968 . S
C263 C7 1.019 . S
C265 C82 0.970 . S
C267 C25 0.950 . S
C269 C103 0.911 . S
C271 C49 0.962 . S
C273 C70 0.937 . S
C275 C124 0.909 . S
C277 C175 1.023 . S
C279 C146 0.975 . S
C281 C166 0.908 . S
C283 C196 0.942 . S
C285 C217 0.936 . S
C287 C187 0.910 . S
C289 C208 1.004 . S
C291 C238 0.988 . S
C293 C229 0.909 . S
C295 C130 0.957 . S
C297 C154 0.980 . S
C299 C250 0.998 . S
C301 C88 1.015 . S
C303 C3 1.175 . S
C305 C37 1.143 . S
C307 C109 0.997 . S
C309 C45 1.168 . S
C311 C4 0.905 . S
C313 C66 1.139 . S
C315 C28 0.961 . S
C317 C46 1.011 . S
C319 C87 1.153 . S
C321 C67 0.901 . S
C323 C108 1.174 . S
C325 C172 0.992 . S
C327 C142 1.200 . S
C329 C150 1.143 . S
C331 C193 0.945 . S
C333 C171 1.152 . S
C335 C214 0.923 . S
C337 C235 0.959 . S
C339 C192 1.139 . S
C341 C213 1.156 . S
C343 C133 1.013 . S
C345 C151 1.010 . S
C347 C234 1.151 . S
C349 C226 1.384 . S
C351 C16 1.426 . S
C353 C24 1.443 . S
C355 C247 1.391 . S
C357 C58 1.399 . S
C359 C129 1.392 . S
C361 C79 1.385 . S
C363 C163 1.430 . S
C365 C100 1.444 . S
C367 C184 1.393 . S
C369 C205 1.407 . S
C371 C121 1.453 . S
C373 C209 1.370 . S
C375 C20 1.397 . S
C377 C230 1.417 . S
C379 C40 1.375 . S
C381 C62 1.400 . S
C383 C251 1.369 . S
C385 C83 1.412 . S
C387 C145 1.405 . S
C389 C167 1.416 . S
C391 C104 1.375 . S
C393 C188 1.377 . S
C395 C125 1.418 . S
