# Generated by pormake.
# Topology uof, (4)-cn, num edge types: 1
# Building blocks:
#     Node 0, Type 0, BuildingBlock: GALJAG_clean_sbu_0, # of connection points: 4
#     Node 1, Type 0, BuildingBlock: GALJAG_clean_sbu_0, # of connection points: 4
#     Node 2, Type 0, BuildingBlock: GALJAG_clean_sbu_0, # of connection points: 4
#     Node 3, Type 0, BuildingBlock: GALJAG_clean_sbu_0, # of connection points: 4
#     Node 4, Type 0, BuildingBlock: GALJAG_clean_sbu_0, # of connection points: 4
#     Node 5, Type 0, BuildingBlock: GALJAG_clean_sbu_0, # of connection points: 4
#     Node 6, Type 0, BuildingBlock: GALJAG_clean_sbu_0, # of connection points: 4
#     Node 7, Type 0, BuildingBlock: GALJAG_clean_sbu_0, # of connection points: 4
#     Node 8, Type 0, BuildingBlock: GALJAG_clean_sbu_0, # of connection points: 4
#     Node 9, Type 0, BuildingBlock: GALJAG_clean_sbu_0, # of connection points: 4
#     Node 10, Type 0, BuildingBlock: GALJAG_clean_sbu_0, # of connection points: 4
#     Node 11, Type 0, BuildingBlock: GALJAG_clean_sbu_0, # of connection points: 4
#     Edge 12, Type (0, 0), BuildingBlock: TEMPAE_clean_linker_10, # of connection points: 2
#     Edge 13, Type (0, 0), BuildingBlock: TEMPAE_clean_linker_10, # of connection points: 2
#     Edge 14, Type (0, 0), BuildingBlock: TEMPAE_clean_linker_10, # of connection points: 2
#     Edge 15, Type (0, 0), BuildingBlock: TEMPAE_clean_linker_10, # of connection points: 2
#     Edge 16, Type (0, 0), BuildingBlock: TEMPAE_clean_linker_10, # of connection points: 2
#     Edge 17, Type (0, 0), BuildingBlock: TEMPAE_clean_linker_10, # of connection points: 2
#     Edge 18, Type (0, 0), BuildingBlock: TEMPAE_clean_linker_10, # of connection points: 2
#     Edge 19, Type (0, 0), BuildingBlock: TEMPAE_clean_linker_10, # of connection points: 2
#     Edge 20, Type (0, 0), BuildingBlock: TEMPAE_clean_linker_10, # of connection points: 2
#     Edge 21, Type (0, 0), BuildingBlock: TEMPAE_clean_linker_10, # of connection points: 2
#     Edge 22, Type (0, 0), BuildingBlock: TEMPAE_clean_linker_10, # of connection points: 2
#     Edge 23, Type (0, 0), BuildingBlock: TEMPAE_clean_linker_10, # of connection points: 2
#     Edge 24, Type (0, 0), BuildingBlock: TEMPAE_clean_linker_10, # of connection points: 2
#     Edge 25, Type (0, 0), BuildingBlock: TEMPAE_clean_linker_10, # of connection points: 2
#     Edge 26, Type (0, 0), BuildingBlock: TEMPAE_clean_linker_10, # of connection points: 2
#     Edge 27, Type (0, 0), BuildingBlock: TEMPAE_clean_linker_10, # of connection points: 2
#     Edge 28, Type (0, 0), BuildingBlock: TEMPAE_clean_linker_10, # of connection points: 2
#     Edge 29, Type (0, 0), BuildingBlock: TEMPAE_clean_linker_10, # of connection points: 2
#     Edge 30, Type (0, 0), BuildingBlock: TEMPAE_clean_linker_10, # of connection points: 2
#     Edge 31, Type (0, 0), BuildingBlock: TEMPAE_clean_linker_10, # of connection points: 2
#     Edge 32, Type (0, 0), BuildingBlock: TEMPAE_clean_linker_10, # of connection points: 2
#     Edge 33, Type (0, 0), BuildingBlock: TEMPAE_clean_linker_10, # of connection points: 2
#     Edge 34, Type (0, 0), BuildingBlock: TEMPAE_clean_linker_10, # of connection points: 2
#     Edge 35, Type (0, 0), BuildingBlock: TEMPAE_clean_linker_10, # of connection points: 2
# Relax obj value: 0.137
# Max RMSD: 0.110
# Mean RMSD: 0.110
data_MOF--net-uof--node1-GALJAG_clean_sbu_0--edge1-TEMPAE_clean_linker_10
_symmetry_space_group_name_H-M    P1
_symmetry_Int_Tables_number       1
_symmetry_cell_setting            triclinic
loop_
_symmetry_equiv_pos_as_xyz
'x, y, z'
_cell_length_a     31.629122
_cell_length_b     31.603305
_cell_length_c     68.960448
_cell_angle_alpha  89.978845
_cell_angle_beta   89.980728
_cell_angle_gamma 120.01511
loop_
_atom_site_label
_atom_site_type_symbol
_atom_site_fract_x
_atom_site_fract_y
_atom_site_fract_z
_atom_type_partial_charge
In0 In 0.23155 0.31715 0.23302 0.0
O1 O 0.29393 0.39721 0.22844 0.0
O2 O 0.31193 0.34294 0.23612 0.0
C3 C 0.14737 0.30848 0.21828 0.0
C4 C 0.22213 0.29854 0.27154 0.0
C5 C 0.23804 0.2562 0.20788 0.0
O6 O 0.18789 0.3478 0.21681 0.0
O7 O 0.14919 0.27642 0.22852 0.0
O8 O 0.23053 0.24709 0.22575 0.0
O9 O 0.24276 0.29657 0.20262 0.0
C10 C 0.32721 0.38714 0.23214 0.0
O11 O 0.2127 0.26653 0.25877 0.0
O12 O 0.23316 0.34022 0.26491 0.0
In13 In 0.91774 0.22492 0.56789 0.0
O14 O 0.90187 0.28869 0.56447 0.0
O15 O 0.97487 0.3051 0.56963 0.0
C16 C 0.83726 0.14761 0.55153 0.0
C17 C 0.9313 0.2205 0.6064 0.0
C18 C 0.98348 0.21826 0.54554 0.0
O19 O 0.85455 0.19091 0.54555 0.0
O20 O 0.8571 0.14431 0.56687 0.0
O21 O 0.96836 0.19559 0.56133 0.0
O22 O 0.96543 0.24453 0.54095 0.0
C23 C 0.94616 0.3213 0.56694 0.0
O24 O 0.95433 0.21211 0.59349 0.0
O25 O 0.89828 0.22836 0.59999 0.0
In26 In 0.68881 0.91149 0.89716 0.0
O27 O 0.73881 0.96323 0.92032 0.0
O28 O 0.67737 0.89794 0.9303 0.0
C29 C 0.76203 0.98619 0.87802 0.0
C30 C 0.60809 0.91951 0.89236 0.0
C31 C 0.68748 0.83159 0.88099 0.0
O32 O 0.72291 0.98539 0.8823 0.0
O33 O 0.76419 0.94916 0.88335 0.0
O34 O 0.66057 0.8478 0.87504 0.0
O35 O 0.71105 0.85246 0.89611 0.0
C36 C 0.71459 0.93831 0.93467 0.0
O37 O 0.61371 0.89867 0.90701 0.0
O38 O 0.64091 0.93216 0.87964 0.0
In39 In 0.78634 0.69631 0.23233 0.0
O40 O 0.80488 0.74726 0.25795 0.0
O41 O 0.78655 0.67415 0.26418 0.0
C42 C 0.77613 0.754 0.20664 0.0
C43 C 0.69131 0.62471 0.23198 0.0
C44 C 0.87187 0.70777 0.21782 0.0
O45 O 0.783 0.76387 0.22446 0.0
O46 O 0.77403 0.71457 0.2017 0.0
O47 O 0.83275 0.66677 0.21749 0.0
O48 O 0.86812 0.7405 0.22675 0.0
C49 C 0.79665 0.71559 0.27076 0.0
O50 O 0.72494 0.61618 0.22696 0.0
O51 O 0.70598 0.66814 0.23701 0.0
In52 In 0.10567 0.78259 0.56558 0.0
O53 O 0.12325 0.71986 0.56263 0.0
O54 O 0.05018 0.7022 0.56855 0.0
C55 C 0.18596 0.86066 0.54945 0.0
C56 C 0.0906 0.78871 0.60382 0.0
C57 C 0.03961 0.78645 0.54243 0.0
O58 O 0.16942 0.81748 0.54345 0.0
O59 O 0.16549 0.86346 0.56469 0.0
O60 O 0.05435 0.81032 0.55796 0.0
O61 O 0.05822 0.76032 0.53847 0.0
C62 C 0.07946 0.68676 0.56574 0.0
O63 O 0.06758 0.79583 0.59052 0.0
O64 O 0.12426 0.78117 0.59793 0.0
In65 In 0.32123 0.09612 0.89721 0.0
O66 O 0.39979 0.10823 0.89923 0.0
O67 O 0.34294 0.04068 0.88841 0.0
C68 C 0.32798 0.17932 0.88202 0.0
C69 C 0.30196 0.07287 0.93527 0.0
C70 C 0.2445 0.03588 0.87554 0.0
O71 O 0.35301 0.16127 0.87574 0.0
O72 O 0.30432 0.15888 0.89719 0.0
O73 O 0.23983 0.05028 0.89205 0.0
O74 O 0.28795 0.05198 0.87 0.0
C75 C 0.38732 0.06585 0.89296 0.0
O76 O 0.27293 0.04936 0.92174 0.0
O77 O 0.34094 0.11036 0.9298 0.0
In78 In 0.69831 0.782 0.44435 0.0
O79 O 0.62064 0.7188 0.43689 0.0
O80 O 0.66248 0.7063 0.45773 0.0
C81 C 0.69921 0.863 0.45932 0.0
C82 C 0.72125 0.77676 0.40685 0.0
C83 C 0.77167 0.78747 0.46549 0.0
O84 O 0.66713 0.8201 0.46391 0.0
O85 O 0.72692 0.86456 0.44591 0.0
O86 O 0.77829 0.80795 0.44918 0.0
O87 O 0.7279 0.76455 0.47124 0.0
C88 C 0.62365 0.68851 0.44801 0.0
O89 O 0.74476 0.77463 0.42117 0.0
O90 O 0.6857 0.78278 0.41125 0.0
In91 In 0.91621 0.69613 0.77605 0.0
O92 O 0.90278 0.61734 0.77259 0.0
O93 O 0.96767 0.67069 0.78644 0.0
C94 C 0.8325 0.69104 0.78964 0.0
C95 C 0.94499 0.71866 0.73859 0.0
C96 C 0.97437 0.77013 0.79931 0.0
O97 O 0.847 0.66259 0.79547 0.0
O98 O 0.8567 0.71742 0.77554 0.0
O99 O 0.96345 0.77674 0.78241 0.0
O100 O 0.95603 0.72601 0.80442 0.0
C101 C 0.94305 0.62743 0.78039 0.0
O102 O 0.96803 0.74528 0.75278 0.0
O103 O 0.90538 0.68058 0.74307 0.0
In104 In 0.238 0.91884 0.11022 0.0
O105 O 0.30179 0.90492 0.10388 0.0
O106 O 0.30807 0.95025 0.1277 0.0
C107 C 0.16217 0.84026 0.12843 0.0
C108 C 0.23661 0.93702 0.07174 0.0
C109 C 0.23765 0.99656 0.12568 0.0
O110 O 0.20481 0.86287 0.13527 0.0
O111 O 0.15885 0.85417 0.11165 0.0
O112 O 0.27628 0.9973 0.12062 0.0
O113 O 0.19891 0.95647 0.12289 0.0
C114 C 0.32857 0.93304 0.11724 0.0
O115 O 0.22847 0.95938 0.08496 0.0
O116 O 0.24318 0.9029 0.07773 0.0
In117 In 0.32179 0.22741 0.44419 0.0
O118 O 0.27316 0.23238 0.42135 0.0
O119 O 0.33454 0.22885 0.41104 0.0
C120 C 0.24911 0.21682 0.46714 0.0
C121 C 0.39367 0.32215 0.44777 0.0
C122 C 0.32394 0.14733 0.45824 0.0
O123 O 0.24176 0.1981 0.45044 0.0
O124 O 0.2933 0.24078 0.47229 0.0
O125 O 0.35418 0.19028 0.46353 0.0
O126 O 0.29685 0.14557 0.44453 0.0
C127 C 0.29765 0.2328 0.40689 0.0
O128 O 0.4006 0.29125 0.43871 0.0
O129 O 0.35215 0.30452 0.45546 0.0
In130 In 0.09994 0.32488 0.77909 0.0
O131 O 0.05152 0.27275 0.7558 0.0
O132 O 0.11185 0.33942 0.74606 0.0
C133 C 0.02976 0.25714 0.80156 0.0
C134 C 0.08332 0.40119 0.78279 0.0
C135 C 0.17851 0.31856 0.79224 0.0
O136 O 0.02917 0.25425 0.78331 0.0
O137 O 0.06591 0.29473 0.80859 0.0
O138 O 0.17372 0.35518 0.79562 0.0
O139 O 0.14678 0.28827 0.78084 0.0
C140 C 0.07395 0.29966 0.74156 0.0
O141 O 0.06339 0.36349 0.79319 0.0
O142 O 0.11445 0.40231 0.77098 0.0
In143 In 0.78617 0.09493 0.10859 0.0
O144 O 0.80202 0.06008 0.08288 0.0
O145 O 0.77883 0.11079 0.07636 0.0
C146 C 0.78454 0.01564 0.12349 0.0
C147 C 0.69549 0.0796 0.11633 0.0
C148 C 0.86187 0.17368 0.12668 0.0
O149 O 0.74791 0.014 0.11555 0.0
O150 O 0.82224 0.05739 0.1239 0.0
O151 O 0.8188 0.1524 0.13314 0.0
O152 O 0.8658 0.15829 0.11029 0.0
C153 C 0.79012 0.08024 0.06996 0.0
O154 O 0.72199 0.10871 0.10314 0.0
O155 O 0.7163 0.06187 0.12631 0.0
C156 C 0.8992 0.22381 0.15682 0.0
C157 C 0.90505 0.20637 0.13887 0.0
C158 C 0.93849 0.24741 0.16993 0.0
C159 C 0.9846 0.25279 0.16524 0.0
C160 C 0.99122 0.23729 0.14675 0.0
C161 C 0.95163 0.2148 0.13377 0.0
C162 C 0.92992 0.26436 0.18923 0.0
C163 C 0.03929 0.24143 0.14114 0.0
C164 C 0.1014 0.33183 0.19451 0.0
C165 C 0.10318 0.29689 0.20654 0.0
C166 C 0.06204 0.31864 0.18158 0.0
C167 C 0.02408 0.26916 0.18031 0.0
C168 C 0.02518 0.23416 0.19283 0.0
C169 C 0.06423 0.2485 0.20585 0.0
C170 C 0.06181 0.35738 0.16887 0.0
C171 C 0.98614 0.1809 0.1919 0.0
H172 H 0.86343 0.21755 0.16092 0.0
H173 H 0.95658 0.20124 0.12001 0.0
H174 H 0.9292 0.23979 0.20087 0.0
H175 H 0.9601 0.30173 0.19257 0.0
H176 H 0.89481 0.26438 0.18955 0.0
H177 H 0.03983 0.23136 0.12575 0.0
H178 H 0.06973 0.27922 0.1435 0.0
H179 H 0.04622 0.21692 0.15047 0.0
H180 H 0.13127 0.36926 0.19488 0.0
H181 H 0.06518 0.22104 0.21496 0.0
H182 H 0.02578 0.35532 0.16964 0.0
H183 H 0.06781 0.35106 0.15355 0.0
H184 H 0.09066 0.39476 0.17308 0.0
H185 H 0.9496 0.17688 0.19415 0.0
H186 H 0.9916 0.15842 0.20292 0.0
H187 H 0.98614 0.16607 0.17731 0.0
C188 C 0.78101 0.10829 0.52298 0.0
C189 C 0.80451 0.10402 0.53952 0.0
C190 C 0.75687 0.06911 0.50982 0.0
C191 C 0.75739 0.02497 0.51292 0.0
C192 C 0.77946 0.01993 0.52999 0.0
C193 C 0.80209 0.05913 0.54314 0.0
C194 C 0.7326 0.07573 0.49217 0.0
C195 C 0.78196 0.97417 0.53381 0.0
C196 C 0.67784 0.90536 0.48543 0.0
C197 C 0.7102 0.90697 0.47111 0.0
C198 C 0.69157 0.94461 0.49846 0.0
C199 C 0.73931 0.9859 0.49759 0.0
C200 C 0.77147 0.98822 0.48276 0.0
C201 C 0.75634 0.94921 0.46962 0.0
C202 C 0.65553 0.94113 0.51361 0.0
C203 C 0.82302 0.03078 0.4814 0.0
H204 H 0.78265 0.14277 0.52002 0.0
H205 H 0.82045 0.05546 0.55576 0.0
H206 H 0.75446 0.07916 0.47907 0.0
H207 H 0.69579 0.04335 0.49009 0.0
H208 H 0.72902 0.10887 0.49326 0.0
H209 H 0.79803 0.97484 0.54821 0.0
H210 H 0.74499 0.94147 0.53307 0.0
H211 H 0.80453 0.97006 0.52246 0.0
H212 H 0.64216 0.87293 0.48673 0.0
H213 H 0.78187 0.95078 0.45875 0.0
H214 H 0.65423 0.97556 0.51412 0.0
H215 H 0.66735 0.93586 0.52811 0.0
H216 H 0.61816 0.9102 0.51079 0.0
H217 H 0.82273 0.06565 0.48039 0.0
H218 H 0.843 0.02794 0.46868 0.0
H219 H 0.84346 0.0325 0.49474 0.0
C220 C 0.74249 0.79895 0.87203 0.0
C221 C 0.69847 0.79878 0.86913 0.0
C222 C 0.75852 0.77578 0.85891 0.0
C223 C 0.72926 0.75043 0.84268 0.0
C224 C 0.68326 0.74744 0.84037 0.0
C225 C 0.66879 0.77228 0.85341 0.0
C226 C 0.80826 0.78105 0.86183 0.0
C227 C 0.65014 0.71959 0.82368 0.0
C228 C 0.79958 0.74585 0.79851 0.0
C229 C 0.79849 0.70122 0.80108 0.0
C230 C 0.77591 0.76144 0.81155 0.0
C231 C 0.74909 0.73117 0.82736 0.0
C232 C 0.74506 0.68457 0.82927 0.0
C233 C 0.7704 0.67048 0.81631 0.0
C234 C 0.78228 0.8118 0.80907 0.0
C235 C 0.71563 0.65039 0.84548 0.0
H236 H 0.76597 0.81968 0.88399 0.0
H237 H 0.63474 0.77193 0.85103 0.0
H238 H 0.80544 0.74465 0.86192 0.0
H239 H 0.83253 0.80207 0.84958 0.0
H240 H 0.82568 0.80012 0.87558 0.0
H241 H 0.61303 0.71467 0.82545 0.0
H242 H 0.66592 0.7396 0.80994 0.0
H243 H 0.64694 0.68311 0.82228 0.0
H244 H 0.8215 0.77016 0.78693 0.0
H245 H 0.76935 0.63599 0.81845 0.0
H246 H 0.80273 0.835 0.82163 0.0
H247 H 0.74624 0.80971 0.80874 0.0
H248 H 0.80241 0.83002 0.79559 0.0
H249 H 0.73483 0.66478 0.85946 0.0
H250 H 0.71002 0.61308 0.84333 0.0
H251 H 0.67947 0.64792 0.84665 0.0
C252 C 0.954 0.76854 0.2047 0.0
C253 C 0.91659 0.7196 0.20637 0.0
C254 C 0.9937 0.78251 0.19205 0.0
C255 C 0.99705 0.74666 0.18089 0.0
C256 C 0.96055 0.69683 0.18311 0.0
C257 C 0.92052 0.68393 0.19566 0.0
C258 C 0.03116 0.83611 0.19009 0.0
C259 C 0.96313 0.65729 0.17184 0.0
C260 C 0.07175 0.7968 0.13448 0.0
C261 C 0.11856 0.8078 0.14051 0.0
C262 C 0.0314 0.77465 0.14714 0.0
C263 C 0.03756 0.76229 0.1663 0.0
C264 C 0.08407 0.77024 0.17202 0.0
C265 C 0.12402 0.79328 0.15916 0.0
C266 C 0.98287 0.76757 0.1404 0.0
C267 C 0.09229 0.75682 0.19211 0.0
H268 H 0.95141 0.79655 0.21279 0.0
H269 H 0.89185 0.64606 0.19679 0.0
H270 H 0.06821 0.84217 0.19314 0.0
H271 H 0.0313 0.84831 0.17498 0.0
H272 H 0.02391 0.85937 0.20006 0.0
H273 H 0.93482 0.62012 0.17654 0.0
H274 H 0.95803 0.6613 0.15617 0.0
H275 H 0.99965 0.66084 0.17357 0.0
H276 H 0.06707 0.80806 0.12017 0.0
H277 H 0.15996 0.80154 0.16399 0.0
H278 H 0.97427 0.79266 0.14852 0.0
H279 H 0.95325 0.72975 0.14344 0.0
H280 H 0.98281 0.77492 0.12465 0.0
H281 H 0.09114 0.7824 0.20283 0.0
H282 H 0.12812 0.75853 0.19339 0.0
H283 H 0.06292 0.71946 0.196 0.0
C284 C 0.26835 0.05995 0.46756 0.0
C285 C 0.31354 0.10305 0.46972 0.0
C286 C 0.25316 0.02053 0.48052 0.0
C287 C 0.28437 0.02337 0.49584 0.0
C288 C 0.33137 0.06554 0.49735 0.0
C289 C 0.34509 0.10513 0.48448 0.0
C290 C 0.20238 0.977 0.47848 0.0
C291 C 0.36647 0.06965 0.51303 0.0
C292 C 0.21924 0.94874 0.54087 0.0
C293 C 0.21853 0.90455 0.53753 0.0
C294 C 0.24188 0.9881 0.52778 0.0
C295 C 0.2658 0.98403 0.51109 0.0
C296 C 0.26796 0.94066 0.5083 0.0
C297 C 0.24369 0.9012 0.52136 0.0
C298 C 0.23753 0.03296 0.53124 0.0
C299 C 0.29429 0.93515 0.49109 0.0
H300 H 0.24343 0.05798 0.45634 0.0
H301 H 0.38004 0.13822 0.4863 0.0
H302 H 0.20391 0.94275 0.47773 0.0
H303 H 0.18032 0.97437 0.49143 0.0
H304 H 0.18331 0.97941 0.46536 0.0
H305 H 0.40372 0.1012 0.51062 0.0
H306 H 0.35315 0.07431 0.5273 0.0
H307 H 0.36865 0.03571 0.51377 0.0
H308 H 0.19957 0.95166 0.55319 0.0
H309 H 0.24335 0.86726 0.51862 0.0
H310 H 0.21574 0.03662 0.51942 0.0
H311 H 0.2741 0.06629 0.531 0.0
H312 H 0.21969 0.03144 0.54531 0.0
H313 H 0.27336 0.93133 0.47767 0.0
H314 H 0.29883 0.90262 0.49245 0.0
H315 H 0.33082 0.96819 0.4894 0.0
C316 C 0.27808 0.21902 0.87496 0.0
C317 C 0.3181 0.21319 0.8703 0.0
C318 C 0.26128 0.24199 0.86208 0.0
C319 C 0.28558 0.26066 0.84416 0.0
C320 C 0.3281 0.25796 0.83999 0.0
C321 C 0.34352 0.23383 0.85298 0.0
C322 C 0.21547 0.24327 0.86712 0.0
C323 C 0.35593 0.27838 0.82134 0.0
C324 C 0.20469 0.25935 0.80285 0.0
C325 C 0.21188 0.30694 0.80342 0.0
C326 C 0.22947 0.24443 0.8156 0.0
C327 C 0.26335 0.2781 0.82912 0.0
C328 C 0.2729 0.32703 0.82903 0.0
C329 C 0.24666 0.34071 0.81636 0.0
C330 C 0.21736 0.19173 0.81528 0.0
C331 C 0.30955 0.36449 0.84279 0.0
H332 H 0.25791 0.20302 0.88822 0.0
H333 H 0.37444 0.22954 0.84921 0.0
H334 H 0.22167 0.28088 0.86557 0.0
H335 H 0.18587 0.21962 0.85691 0.0
H336 H 0.20282 0.2304 0.88214 0.0
H337 H 0.39187 0.28007 0.82152 0.0
H338 H 0.33431 0.25497 0.80903 0.0
H339 H 0.36191 0.3156 0.81863 0.0
H340 H 0.17773 0.23279 0.79303 0.0
H341 H 0.25249 0.37752 0.81696 0.0
H342 H 0.20068 0.17406 0.82932 0.0
H343 H 0.2511 0.18964 0.81345 0.0
H344 H 0.19159 0.17055 0.80343 0.0
H345 H 0.2953 0.35568 0.85783 0.0
H346 H 0.31744 0.40206 0.83929 0.0
H347 H 0.34423 0.36369 0.84241 0.0
C348 C 0.60706 0.59481 0.24431 0.0
C349 C 0.63849 0.58792 0.23203 0.0
C350 C 0.55646 0.56248 0.24415 0.0
C351 C 0.53635 0.52278 0.23101 0.0
C352 C 0.56789 0.51566 0.21849 0.0
C353 C 0.61874 0.54799 0.21933 0.0
C354 C 0.52456 0.57069 0.25818 0.0
C355 C 0.54783 0.4743 0.20403 0.0
C356 C 0.41196 0.41364 0.24298 0.0
C357 C 0.38025 0.4232 0.23204 0.0
C358 C 0.46262 0.4457 0.24278 0.0
C359 C 0.48248 0.48794 0.23094 0.0
C360 C 0.45067 0.49767 0.21971 0.0
C361 C 0.3998 0.46548 0.2206 0.0
C362 C 0.49483 0.43459 0.25544 0.0
C363 C 0.47045 0.54182 0.20664 0.0
H364 H 0.62219 0.62554 0.25423 0.0
H365 H 0.64286 0.54286 0.20967 0.0
H366 H 0.49758 0.57651 0.2501 0.0
H367 H 0.50373 0.53783 0.2674 0.0
H368 H 0.54604 0.60273 0.26775 0.0
H369 H 0.57691 0.4747 0.19486 0.0
H370 H 0.52838 0.43874 0.21172 0.0
H371 H 0.52084 0.47664 0.19447 0.0
H372 H 0.39701 0.38108 0.25193 0.0
H373 H 0.37547 0.47273 0.21198 0.0
H374 H 0.51576 0.46529 0.26563 0.0
H375 H 0.52173 0.4308 0.24639 0.0
H376 H 0.47358 0.40051 0.264 0.0
H377 H 0.48984 0.5757 0.21539 0.0
H378 H 0.44121 0.54309 0.19819 0.0
H379 H 0.49742 0.54166 0.19638 0.0
C380 C 0.02344 0.60322 0.57844 0.0
C381 C 0.06248 0.63376 0.56627 0.0
C382 C 1.00448 0.55245 0.5787 0.0
C383 C 0.02384 0.53127 0.56596 0.0
C384 C 0.06319 0.56197 0.55352 0.0
C385 C 0.08261 0.61301 0.55406 0.0
C386 C 0.96385 0.52151 0.5927 0.0
C387 C 0.0841 0.5408 0.53939 0.0
C388 C 1.00552 0.40558 0.57801 0.0
C389 C 0.96421 0.37456 0.56697 0.0
C390 C 0.02492 0.45643 0.57795 0.0
C391 C 1.00351 0.47714 0.56604 0.0
C392 C 0.96196 0.44596 0.55469 0.0
C393 C 0.94228 0.39491 0.55554 0.0
C394 C 0.06806 0.48793 0.5908 0.0
C395 C 0.93874 0.4666 0.54145 0.0
H396 H 0.00794 0.61922 0.58797 0.0
H397 H 0.11241 0.63651 0.54448 0.0
H398 H 0.93077 0.49511 0.58461 0.0
H399 H 0.97481 0.49997 0.60201 0.0
H400 H 0.95416 0.54383 0.60217 0.0
H401 H 0.11344 0.56935 0.53025 0.0
H402 H 0.09923 0.52085 0.54735 0.0
H403 H 0.05473 0.51401 0.52979 0.0
H404 H 0.02242 0.38992 0.58695 0.0
H405 H 0.91066 0.37105 0.54684 0.0
H406 H 0.0588 0.50972 0.60074 0.0
H407 H 0.0995 0.51411 0.58186 0.0
H408 H 0.07956 0.46601 0.59962 0.0
H409 H 0.92477 0.48664 0.55007 0.0
H410 H 0.90806 0.43773 0.53294 0.0
H411 H 0.96646 0.49321 0.53126 0.0
C412 C 0.46848 0.07103 0.89877 0.0
C413 C 0.42036 0.04515 0.89191 0.0
C414 C 0.49844 0.04974 0.8987 0.0
C415 C 0.47979 1.00146 0.89162 0.0
C416 C 0.4314 0.97548 0.8845 0.0
C417 C 0.4024 0.99759 0.88472 0.0
C418 C 0.54992 0.07873 0.90635 0.0
C419 C 0.41003 0.92407 0.87679 0.0
C420 C 0.56966 0.96163 0.87527 0.0
C421 C 0.57112 0.93534 0.89143 0.0
C422 C 0.53997 0.98303 0.87511 0.0
C423 C 0.51084 0.97808 0.89149 0.0
C424 C 0.51108 0.95042 0.90765 0.0
C425 C 0.54121 0.92939 0.90742 0.0
C426 C 0.5406 0.01189 0.85754 0.0
C427 C 0.48032 0.94396 0.92535 0.0
H428 H 0.48254 0.10767 0.9044 0.0
H429 H 0.36523 0.9772 0.8794 0.0
H430 H 0.55476 0.05919 0.91875 0.0
H431 H 0.57626 0.08227 0.89495 0.0
H432 H 0.55912 0.11589 0.91119 0.0
H433 H 0.37184 0.9089 0.87169 0.0
H434 H 0.43248 0.92341 0.86456 0.0
H435 H 0.41061 0.89974 0.88826 0.0
H436 H 0.59282 0.96665 0.86288 0.0
H437 H 0.54239 0.90949 0.92002 0.0
H438 H 0.55366 0.05038 0.86172 0.0
H439 H 0.5031 0.99682 0.85171 0.0
H440 H 0.56453 0.01152 0.84582 0.0
H441 H 0.49141 0.98013 0.93186 0.0
H442 H 0.48374 0.92052 0.93652 0.0
H443 H 0.44134 0.92735 0.92118 0.0
C444 C 0.59333 0.60531 0.46201 0.0
C445 C 0.58749 0.63535 0.44855 0.0
C446 C 0.56257 0.55436 0.46189 0.0
C447 C 0.52491 0.53254 0.44791 0.0
C448 C 0.51836 0.56267 0.4344 0.0
C449 C 0.54968 0.61374 0.4349 0.0
C450 C 0.57066 0.52382 0.47666 0.0
C451 C 0.47858 0.54086 0.41929 0.0
C452 C 0.47204 0.39651 0.43729 0.0
C453 C 0.42907 0.37552 0.44835 0.0
C454 C 0.50349 0.44759 0.43689 0.0
C455 C 0.4917 0.47833 0.44783 0.0
C456 C 0.44861 0.45715 0.45916 0.0
C457 C 0.41794 0.4062 0.45927 0.0
C458 C 0.54915 0.46872 0.42466 0.0
C459 C 0.43472 0.48836 0.47114 0.0
H460 H 0.62252 0.62163 0.47259 0.0
H461 H 0.54518 0.63663 0.42435 0.0
H462 H 0.53717 0.50255 0.48549 0.0
H463 H 0.57817 0.49717 0.4692 0.0
H464 H 0.60157 0.54638 0.48656 0.0
H465 H 0.4783 0.56914 0.4098 0.0
H466 H 0.4835 0.51483 0.4101 0.0
H467 H 0.44242 0.51992 0.42643 0.0
H468 H 0.48073 0.37312 0.42872 0.0
H469 H 0.38476 0.39038 0.46784 0.0
H470 H 0.58178 0.48989 0.43393 0.0
H471 H 0.54867 0.49442 0.41381 0.0
H472 H 0.55303 0.44003 0.41691 0.0
H473 H 0.46393 0.51001 0.48181 0.0
H474 H 0.39986 0.46626 0.47911 0.0
H475 H 0.43102 0.51468 0.46165 0.0
C476 C 1.007 0.60793 0.79083 0.0
C477 C 0.96238 0.59322 0.78142 0.0
C478 C 0.02809 0.578 0.79112 0.0
C479 C 1.00412 0.53203 0.78176 0.0
C480 C 0.95883 0.5167 0.77235 0.0
C481 C 0.93845 0.54746 0.77231 0.0
C482 C 0.07619 0.59572 0.80143 0.0
C483 C 0.9321 0.46791 0.76221 0.0
C484 C 0.07937 0.47221 0.76831 0.0
C485 C 0.06689 0.43775 0.78321 0.0
C486 C 0.0592 0.50311 0.76761 0.0
C487 C 0.02606 0.49969 0.78223 0.0
C488 C 0.01433 0.46573 0.79753 0.0
C489 C 0.03472 0.43517 0.7978 0.0
C490 C 0.07267 0.53883 0.75105 0.0
C491 C 0.97969 0.46122 0.81354 0.0
H492 H 0.02587 0.64328 0.7979 0.0
H493 H 0.90415 0.53597 0.76492 0.0
H494 H 0.07201 0.56964 0.81306 0.0
H495 H 0.10391 0.5974 0.79111 0.0
H496 H 0.09021 0.63245 0.80799 0.0
H497 H 0.89748 0.46144 0.75546 0.0
H498 H 0.95568 0.46586 0.75077 0.0
H499 H 0.92363 0.43806 0.77269 0.0
H500 H 0.10383 0.4741 0.75689 0.0
H501 H 0.02481 0.4086 0.80936 0.0
H502 H 0.08871 0.57659 0.75675 0.0
H503 H 0.03939 0.53092 0.7428 0.0
H504 H 0.09921 0.53732 0.74092 0.0
H505 H 0.99343 0.49694 0.8209 0.0
H506 H 0.97486 0.43348 0.82455 0.0
H507 H 0.94344 0.45093 0.80733 0.0
C508 C 0.40496 0.93385 0.10638 0.0
C509 C 0.3817 0.95073 0.11892 0.0
C510 C 0.45613 0.95487 0.10649 0.0
C511 C 0.48478 0.99407 0.11929 0.0
C512 C 0.46134 0.01054 0.13223 0.0
C513 C 0.41022 0.98854 0.13196 0.0
C514 C 0.47965 0.93573 0.09266 0.0
C515 C 0.49035 0.05233 0.14603 0.0
C516 C 0.61415 0.02298 0.1311 0.0
C517 C 0.64235 0.06159 0.1183 0.0
C518 C 0.56303 1.00085 0.1316 0.0
C519 C 0.53926 0.01799 0.11915 0.0
C520 C 0.56759 0.05795 0.1066 0.0
C521 C 0.61878 0.0791 0.10624 0.0
C522 C 0.53435 0.95827 0.14512 0.0
C523 C 0.54374 0.0778 0.0933 0.0
H524 H 0.38325 0.90485 0.0962 0.0
H525 H 0.39267 1.00211 0.14163 0.0
H526 H 0.50377 0.96502 0.08242 0.0
H527 H 0.50287 0.92471 0.1008 0.0
H528 H 0.45227 0.90388 0.08417 0.0
H529 H 0.46659 0.06038 0.15536 0.0
H530 H 0.51347 0.04379 0.15549 0.0
H531 H 0.5152 0.08576 0.13771 0.0
H532 H 0.63196 0.00893 0.14039 0.0
H533 H 0.64023 0.10872 0.09625 0.0
H534 H 0.50929 0.92533 0.13662 0.0
H535 H 0.51149 0.96626 0.15497 0.0
H536 H 0.55834 0.94969 0.15405 0.0
H537 H 0.51934 0.04904 0.08294 0.0
H538 H 0.57089 0.11007 0.08492 0.0
H539 H 0.52075 0.0884 0.10184 0.0
C540 C 0.19426 0.03645 0.14003 0.0
C541 C 0.23812 0.0388 0.13475 0.0
C542 C 0.19449 0.07488 0.15019 0.0
C543 C 0.23968 0.11622 0.1552 0.0
C544 C 0.28402 0.11972 0.14913 0.0
C545 C 0.28269 0.08086 0.13891 0.0
C546 C 0.14651 0.07022 0.15636 0.0
C547 C 0.33286 0.1633 0.15429 0.0
C548 C 0.24032 0.22888 0.17421 0.0
C549 C 0.24016 0.22166 0.19426 0.0
C550 C 0.24036 0.19487 0.16119 0.0
C551 C 0.24064 0.15322 0.16853 0.0
C552 C 0.24131 0.14627 0.18877 0.0
C553 C 0.24086 0.18056 0.20141 0.0
C554 C 0.2394 0.20307 0.13966 0.0
C555 C 0.24208 0.1024 0.19708 0.0
H556 H 0.15975 1.00405 0.13666 0.0
H557 H 0.31668 0.08282 0.13473 0.0
H558 H 0.14276 0.06611 0.17235 0.0
H559 H 0.14541 0.10372 0.15248 0.0
H560 H 0.11473 0.03822 0.14959 0.0
H561 H 0.36361 0.16254 0.14683 0.0
H562 H 0.33367 0.19778 0.15047 0.0
H563 H 0.33869 0.16383 0.17018 0.0
H564 H 0.23964 0.26067 0.1687 0.0
H565 H 0.24096 0.17509 0.21693 0.0
H566 H 0.20587 0.17253 0.13321 0.0
H567 H 0.27102 0.20348 0.13251 0.0
H568 H 0.24033 0.23793 0.13635 0.0
H569 H 0.20892 0.06834 0.19247 0.0
H570 H 0.24363 0.10311 0.21318 0.0
H571 H 0.27415 0.10086 0.19145 0.0
C572 C 0.04167 0.24655 0.51786 0.0
C573 C 0.02038 0.21516 0.53369 0.0
C574 C 0.07835 0.24528 0.50697 0.0
C575 C 0.09352 0.21151 0.51201 0.0
C576 C 0.07148 0.17909 0.52775 0.0
C577 C 0.03519 0.18146 0.53849 0.0
C578 C 0.10143 0.28057 0.4903 0.0
C579 C 0.0866 0.14235 0.53336 0.0
C580 C 0.16064 0.18306 0.47352 0.0
C581 C 0.20925 0.21321 0.47923 0.0
C582 C 0.12236 0.18139 0.4843 0.0
C583 C 0.13327 0.2109 0.50103 0.0
C584 C 0.18225 0.24078 0.50705 0.0
C585 C 0.21977 0.24141 0.49608 0.0
C586 C 0.07039 0.14874 0.47764 0.0
C587 C 0.19505 0.27288 0.5248 0.0
H588 H 0.03024 0.27268 0.51418 0.0
H589 H 0.01855 0.15701 0.5507 0.0
H590 H 0.14111 0.30443 0.49299 0.0
H591 H 0.09748 0.26022 0.47669 0.0
H592 H 0.0849 0.30405 0.48814 0.0
H593 H 0.06461 0.11867 0.5456 0.0
H594 H 0.08267 0.1188 0.52078 0.0
H595 H 0.12565 0.16163 0.53762 0.0
H596 H 0.1525 0.16109 0.4605 0.0
H597 H 0.2574 0.26482 0.50047 0.0
H598 H 0.05361 0.17124 0.47392 0.0
H599 H 0.04833 0.12368 0.48951 0.0
H600 H 0.0681 0.12656 0.46477 0.0
H601 H 0.18248 0.2997 0.52289 0.0
H602 H 0.23494 0.29316 0.52772 0.0
H603 H 0.17603 0.25044 0.53772 0.0
C604 C 0.99406 0.22193 0.83384 0.0
C605 C 0.99089 0.21933 0.81357 0.0
C606 C 0.95746 0.18534 0.8453 0.0
C607 C 0.91702 0.14563 0.83619 0.0
C608 C 0.91343 0.14317 0.81574 0.0
C609 C 0.95053 0.18011 0.80466 0.0
C610 C 0.96221 0.18889 0.86711 0.0
C611 C 0.87061 0.10135 0.80557 0.0
C612 C 0.84404 0.02558 0.86258 0.0
C613 C 0.80235 0.02759 0.8679 0.0
C614 C 0.8823 0.06441 0.8526 0.0
C615 C 0.87857 0.10601 0.84795 0.0
C616 C 0.83697 0.10863 0.85362 0.0
C617 C 0.79919 0.0692 0.86353 0.0
C618 C 0.92619 0.06048 0.84666 0.0
C619 C 0.83198 0.15261 0.84889 0.0
H620 H 0.0253 0.2523 0.84072 0.0
H621 H 0.94796 0.17815 0.78898 0.0
H622 H 0.92978 0.18824 0.87359 0.0
H623 H 0.96358 0.15685 0.87292 0.0
H624 H 0.99549 0.2227 0.87191 0.0
H625 H 0.87308 0.10544 0.78954 0.0
H626 H 0.86867 0.06633 0.8094 0.0
H627 H 0.836 0.09886 0.81043 0.0
H628 H 0.84653 0.99342 0.86601 0.0
H629 H 0.76702 0.07086 0.86774 0.0
H630 H 0.96014 0.09237 0.85216 0.0
H631 H 0.9289 0.06089 0.83061 0.0
H632 H 0.92433 0.02654 0.85216 0.0
H633 H 0.8641 0.18639 0.85438 0.0
H634 H 0.7984 0.14988 0.85523 0.0
H635 H 0.83092 0.15647 0.83293 0.0
C636 C 0.73776 0.92915 0.13435 0.0
C637 C 0.78259 0.97255 0.13244 0.0
C638 C 0.73446 0.88941 0.14462 0.0
C639 C 0.77709 0.89337 0.15298 0.0
C640 C 0.82287 0.93613 0.15017 0.0
C641 C 0.82504 0.97544 0.13998 0.0
C642 C 0.68503 0.84437 0.14742 0.0
C643 C 0.86915 0.94129 0.15876 0.0
C644 C 0.76696 0.82575 0.19937 0.0
C645 C 0.77277 0.78719 0.19266 0.0
C646 C 0.76683 0.85975 0.18645 0.0
C647 C 0.77324 0.8552 0.16641 0.0
C648 C 0.77798 0.81567 0.15947 0.0
C649 C 0.77741 0.78179 0.17274 0.0
C650 C 0.76104 0.90119 0.19432 0.0
C651 C 0.78516 0.81008 0.13818 0.0
H652 H 0.70491 0.92684 0.12844 0.0
H653 H 0.85979 0.00888 0.13834 0.0
H654 H 0.68667 0.81093 0.144 0.0
H655 H 0.67387 0.84175 0.16283 0.0
H656 H 0.6565 0.845 0.13824 0.0
H657 H 0.90227 0.9747 0.15353 0.0
H658 H 0.86774 0.94312 0.1748 0.0
H659 H 0.87263 0.90898 0.15512 0.0
H660 H 0.76299 0.82967 0.21478 0.0
H661 H 0.78201 0.75194 0.16757 0.0
H662 H 0.73053 0.90228 0.18686 0.0
H663 H 0.79472 0.93656 0.19147 0.0
H664 H 0.75384 0.89789 0.21018 0.0
H665 H 0.75597 0.81073 0.1295 0.0
H666 H 0.78517 0.7756 0.13504 0.0
H667 H 0.82045 0.84128 0.13327 0.0
C668 C 0.8019 0.76041 0.49342 0.0
C669 C 0.8118 0.78851 0.47656 0.0
C670 C 0.83967 0.7599 0.50378 0.0
C671 C 0.88828 0.78847 0.4971 0.0
C672 C 0.89851 0.81707 0.48013 0.0
C673 C 0.85999 0.81664 0.46999 0.0
C674 C 0.8276 0.72882 0.52182 0.0
C675 C 0.95008 0.84817 0.47273 0.0
C676 C 0.98769 0.82223 0.53426 0.0
C677 C 1.00248 0.78814 0.53023 0.0
C678 C 0.95103 0.82328 0.52332 0.0
C679 C 0.92855 0.78912 0.50815 0.0
C680 C 0.94374 0.75498 0.50385 0.0
C681 C 0.98085 0.75504 0.51494 0.0
C682 C 0.93591 0.86046 0.52815 0.0
C683 C 0.92019 0.71789 0.48781 0.0
H684 H 0.76458 0.73845 0.49845 0.0
H685 H 0.86764 0.83837 0.45693 0.0
H686 H 0.84097 0.70255 0.5203 0.0
H687 H 0.84639 0.75224 0.53453 0.0
H688 H 0.78775 0.70803 0.52482 0.0
H689 H 0.95169 0.86806 0.45921 0.0
H690 H 0.97285 0.87526 0.48392 0.0
H691 H 0.96657 0.82499 0.46984 0.0
H692 H 1.00462 0.84801 0.54604 0.0
H693 H 0.99228 0.72861 0.51186 0.0
H694 H 0.89701 0.84153 0.53265 0.0
H695 H 0.93927 0.88257 0.51513 0.0
H696 H 0.95828 0.88553 0.53999 0.0
H697 H 0.88072 0.69397 0.4909 0.0
H698 H 0.93706 0.69458 0.48607 0.0
H699 H 0.92319 0.73666 0.47385 0.0
C700 C 0.1549 0.98748 0.86982 0.0
C701 C 0.20244 1.0008 0.86405 0.0
C702 C 0.11447 0.95184 0.8596 0.0
C703 C 0.12211 0.9289 0.84346 0.0
C704 C 0.17008 0.943 0.83734 0.0
C705 C 0.20977 0.97908 0.84768 0.0
C706 C 0.06369 0.93797 0.86631 0.0
C707 C 0.17948 0.91896 0.82024 0.0
C708 C 0.02658 0.80144 0.82863 0.0
C709 C 0.00838 0.8108 0.81166 0.0
C710 C 0.06256 0.83984 0.83956 0.0
C711 C 0.08016 0.88853 0.83339 0.0
C712 C 0.06023 0.89827 0.81678 0.0
C713 C 0.02461 0.85912 0.80601 0.0
C714 C 0.08331 0.82822 0.85718 0.0
C715 C 0.07785 0.94988 0.80998 0.0
H716 H 0.14927 1.00453 0.88244 0.0
H717 H 0.24656 0.98936 0.84322 0.0
H718 H 0.0423 0.94056 0.85409 0.0
H719 H 0.04432 0.89946 0.87135 0.0
H720 H 0.06414 0.96158 0.87834 0.0
H721 H 0.21904 0.93518 0.81707 0.0
H722 H 0.16392 0.87937 0.82316 0.0
H723 H 0.1611 0.92233 0.80711 0.0
H724 H 0.01393 0.76404 0.83303 0.0
H725 H 0.0102 0.86636 0.79295 0.0
H726 H 0.08185 0.84872 0.86997 0.0
H727 H 0.12226 0.83987 0.85459 0.0
H728 H 0.06343 0.78859 0.8607 0.0
H729 H 0.07729 0.9726 0.82213 0.0
H730 H 0.0553 0.95129 0.79792 0.0
H731 H 0.1162 0.96656 0.80492 0.0
C732 C 0.31637 0.24921 0.3713 0.0
C733 C 0.28475 0.24022 0.38697 0.0
C734 C 0.30516 0.25932 0.3527 0.0
C735 C 0.2612 0.26018 0.34972 0.0
C736 C 0.22896 0.25053 0.36548 0.0
C737 C 0.24116 0.2408 0.38387 0.0
C738 C 0.3405 0.26944 0.33626 0.0
C739 C 0.18158 0.25063 0.36294 0.0
C740 C 0.25167 0.32733 0.30541 0.0
C741 C 0.2268 0.28885 0.29225 0.0
C742 C 0.26273 0.31855 0.32424 0.0
C743 C 0.24834 0.27014 0.33006 0.0
C744 C 0.22168 0.23105 0.31704 0.0
C745 C 0.21136 0.24088 0.29832 0.0
C746 C 0.29109 0.36121 0.33772 0.0
C747 C 0.20513 0.17886 0.32269 0.0
H748 H 0.35021 0.24911 0.37362 0.0
H749 H 0.21647 0.2339 0.3959 0.0
H750 H 0.32215 0.24246 0.32447 0.0
H751 H 0.35254 0.30617 0.33009 0.0
H752 H 0.37324 0.2678 0.34096 0.0
H753 H 0.16047 0.24236 0.37666 0.0
H754 H 0.18906 0.28683 0.35757 0.0
H755 H 0.15859 0.22317 0.3519 0.0
H756 H 0.2641 0.36451 0.30076 0.0
H757 H 0.19216 0.21091 0.28823 0.0
H758 H 0.32658 0.36402 0.34137 0.0
H759 H 0.27081 0.3554 0.35151 0.0
H760 H 0.29824 0.39639 0.33126 0.0
H761 H 0.23735 0.17487 0.32584 0.0
H762 H 0.18323 0.15247 0.31113 0.0
H763 H 0.18284 0.16908 0.33612 0.0
C764 C 0.93094 0.24875 0.64047 0.0
C765 C 0.94691 0.22655 0.62699 0.0
C766 C 0.951 0.26038 0.65927 0.0
C767 C 0.98773 0.24941 0.6647 0.0
C768 C 1.00281 0.22567 0.65131 0.0
C769 C 0.98229 0.2146 0.63267 0.0
C770 C 0.93377 0.28547 0.67317 0.0
C771 C 0.04148 0.21289 0.65651 0.0
C772 C 0.07465 0.3197 0.70619 0.0
C773 C 0.05416 0.28651 0.72158 0.0
C774 C 0.05327 0.30827 0.68762 0.0
C775 C 0.01047 0.26256 0.68437 0.0
C776 C 0.99006 0.22877 0.69982 0.0
C777 C 0.01209 0.24114 0.71818 0.0
C778 C 0.07624 0.34522 0.67149 0.0
C779 C 0.94472 0.17957 0.69699 0.0
H780 H 0.90394 0.25845 0.63614 0.0
H781 H 0.99489 0.19746 0.62234 0.0
H782 H 0.92044 0.26404 0.68678 0.0
H783 H 0.96473 0.32194 0.67709 0.0
H784 H 0.90404 0.29028 0.66696 0.0
H785 H 0.04831 0.19339 0.6446 0.0
H786 H 0.07624 0.24667 0.65995 0.0
H787 H 0.03039 0.18951 0.66966 0.0
H788 H 0.10692 0.35491 0.70874 0.0
H789 H 0.99589 0.21526 0.73 0.0
H790 H 0.04945 0.35493 0.66571 0.0
H791 H 0.08664 0.32922 0.65936 0.0
H792 H 0.10924 0.37918 0.67638 0.0
H793 H 0.91417 0.18452 0.69194 0.0
H794 H 0.93327 0.15751 0.71052 0.0
H795 H 0.95124 0.15866 0.68563 0.0
C796 C 0.75944 0.07744 0.03611 0.0
C797 C 0.7842 0.06413 0.04944 0.0
C798 C 0.74843 0.05711 0.01736 0.0
C799 C 0.76273 0.02288 0.01181 0.0
C800 C 0.78896 0.01045 0.02505 0.0
C801 C 0.79927 0.03112 0.04368 0.0
C802 C 0.72052 0.07141 1.00364 0.0
C803 C 0.80535 0.97456 0.01968 0.0
C804 C 0.6956 0.93466 0.97027 0.0
C805 C 0.72761 0.95758 0.95472 0.0
C806 C 0.7065 0.9555 0.98894 0.0
C807 C 0.75054 1.00014 0.99213 0.0
C808 C 0.78331 0.02287 0.97653 0.0
C809 C 0.77142 1.00142 0.95806 0.0
C810 C 0.67062 0.93012 0.00521 0.0
C811 C 0.83081 0.07017 0.9793 0.0
H812 H 0.74736 0.1026 0.04052 0.0
H813 H 0.81838 0.02058 0.0539 0.0
H814 H 0.74148 0.08629 0.99001 0.0
H815 H 0.68533 0.03865 0.99972 0.0
H816 H 0.71285 0.09916 0.01001 0.0
H817 H 0.82648 0.9697 0.03147 0.0
H818 H 0.77311 0.93847 0.01632 0.0
H819 H 0.82836 0.98711 0.00644 0.0
H820 H 0.66158 0.90098 0.96776 0.0
H821 H 0.79641 0.01941 0.94612 0.0
H822 H 0.65819 0.95467 0.01117 0.0
H823 H 0.68861 0.92166 0.01719 0.0
H824 H 0.63814 0.89561 1.0004 0.0
H825 H 0.82338 0.0991 0.98442 0.0
H826 H 0.85259 0.08289 0.96573 0.0
H827 H 0.85313 0.06553 0.9906 0.0
C828 C 0.76763 0.68637 0.30463 0.0
C829 C 0.79198 0.72507 0.29149 0.0
C830 C 0.75643 0.69471 0.32351 0.0
C831 C 0.77026 0.7429 0.32942 0.0
C832 C 0.79638 0.78223 0.31641 0.0
C833 C 0.80675 0.77283 0.29763 0.0
C834 C 0.72856 0.65178 0.33695 0.0
C835 C 0.81242 0.83421 0.32218 0.0
C836 C 0.70226 0.76186 0.37123 0.0
C837 C 0.73404 0.77037 0.38678 0.0
C838 C 0.71343 0.75262 0.35247 0.0
C839 C 0.7576 0.75235 0.3492 0.0
C840 C 0.79008 0.76173 0.36483 0.0
C841 C 0.77784 0.77039 0.38338 0.0
C842 C 0.67775 0.74261 0.33619 0.0
C843 C 0.83777 0.7624 0.36197 0.0
H844 H 0.75566 0.64934 0.29993 0.0
H845 H 0.82551 0.80293 0.28754 0.0
H846 H 0.74921 0.65748 0.35062 0.0
H847 H 0.69308 0.64871 0.34084 0.0
H848 H 0.72144 0.61676 0.33034 0.0
H849 H 0.83392 0.86086 0.31061 0.0
H850 H 0.77998 0.83771 0.3255 0.0
H851 H 0.83494 0.84407 0.33553 0.0
H852 H 0.66826 0.7615 0.37378 0.0
H853 H 0.80269 0.77704 0.39532 0.0
H854 H 0.66586 0.70606 0.32988 0.0
H855 H 0.69574 0.76986 0.32445 0.0
H856 H 0.64494 0.74386 0.34111 0.0
H857 H 0.83066 0.72641 0.35651 0.0
H858 H 0.85927 0.77082 0.37558 0.0
H859 H 0.86023 0.79009 0.35089 0.0
C860 C 0.09006 0.76239 0.63829 0.0
C861 C 0.0745 0.78386 0.62432 0.0
C862 C 0.0696 0.75194 0.65705 0.0
C863 C 0.03294 0.76346 0.66193 0.0
C864 C 0.01825 0.78646 0.64802 0.0
C865 C 0.0391 0.79628 0.62943 0.0
C866 C 0.08633 0.72749 0.67149 0.0
C867 C 0.9797 0.79984 0.65264 0.0
C868 C 0.94491 0.69633 0.70357 0.0
C869 C 0.96543 0.73037 0.71866 0.0
C870 C 0.96672 0.70639 0.68506 0.0
C871 C 0.00986 0.75166 0.68156 0.0
C872 C 0.03028 0.78632 0.69671 0.0
C873 C 0.00793 0.77522 0.71504 0.0
C874 C 0.94381 0.66847 0.66928 0.0
C875 C 0.07587 0.83517 0.69358 0.0
H876 H 0.11706 0.75231 0.63439 0.0
H877 H 0.02682 0.81286 0.61872 0.0
H878 H 0.09962 0.74978 0.68489 0.0
H879 H 0.05511 0.69141 0.67567 0.0
H880 H 0.11595 0.72199 0.66563 0.0
H881 H 0.97327 0.81873 0.64038 0.0
H882 H 0.94475 0.76639 0.65622 0.0
H883 H 0.99065 0.82399 0.66555 0.0
H884 H 0.91232 0.66149 0.70631 0.0
H885 H 0.02409 0.80177 0.72662 0.0
H886 H 0.97055 0.65825 0.66389 0.0
H887 H 0.93367 0.6838 0.65683 0.0
H888 H 0.91067 0.63491 0.67437 0.0
H889 H 0.10634 0.82967 0.6889 0.0
H890 H 0.08723 0.85806 0.70688 0.0
H891 H 0.06971 0.85549 0.68184 0.0
C892 C 0.23237 0.99043 0.04608 0.0
C893 C 0.2426 0.95351 0.05127 0.0
C894 C 0.24198 0.01038 0.02733 0.0
C895 C 0.26251 0.99319 0.01333 0.0
C896 C 0.27223 0.95533 0.01835 0.0
C897 C 0.26206 0.93585 0.03727 0.0
C898 C 0.23064 0.05032 0.02257 0.0
C899 C 0.29402 0.93595 1.00382 0.0
C900 C 0.24637 0.01405 0.9602 0.0
C901 C 0.29174 0.05485 0.95557 0.0
C902 C 0.23652 0.99364 0.97887 0.0
C903 C 0.27294 0.01437 0.99337 0.0
C904 C 0.31872 0.0559 0.98887 0.0
C905 C 0.32755 0.07573 0.97002 0.0
C906 C 0.18713 0.94968 0.98306 0.0
C907 C 0.35847 0.07909 1.00394 0.0
H908 H 0.21739 1.00436 0.05681 0.0
H909 H 0.2704 0.90762 0.04122 0.0
H910 H 0.26451 0.08391 0.01812 0.0
H911 H 0.20489 0.03905 0.01018 0.0
H912 H 0.21433 0.05932 0.03505 0.0
H913 H 0.29915 0.90629 0.00994 0.0
H914 H 0.2701 0.92169 0.99089 0.0
H915 H 0.32993 0.96598 0.99882 0.0
H916 H 0.21846 0.9976 0.94912 0.0
H917 H 0.36277 0.10702 0.96651 0.0
H918 H 0.16899 0.95812 0.99499 0.0
H919 H 0.19155 0.91866 0.98794 0.0
H920 H 0.16278 0.93789 0.97018 0.0
H921 H 0.34532 0.09127 0.0165 0.0
H922 H 0.39208 0.11101 0.99814 0.0
H923 H 0.36789 0.05183 0.00943 0.0
loop_
_geom_bond_atom_site_label_1
_geom_bond_atom_site_label_2
_geom_bond_distance
_geom_bond_site_symmetry_2
_ccdc_geom_bond_type
In0 O1 2.294 . S
In0 O2 2.326 . S
In0 O6 2.266 . S
In0 O7 2.326 . S
In0 O8 2.266 . S
In0 O9 2.326 . S
In0 O11 2.294 . S
In0 O12 2.326 . S
O1 In0 2.294 . S
O1 C10 1.240 . S
O2 In0 2.326 . S
O2 C10 1.252 . S
C3 O6 1.252 . S
C3 O7 1.260 . S
C4 O11 1.240 . S
C4 O12 1.252 . S
C5 O8 1.252 . S
C5 O9 1.260 . S
O6 In0 2.266 . S
O6 C3 1.252 . S
O7 In0 2.326 . S
O7 C3 1.260 . S
O8 In0 2.266 . S
O8 C5 1.252 . S
O9 In0 2.326 . S
O9 C5 1.260 . S
C10 O1 1.240 . S
C10 O2 1.252 . S
O11 In0 2.294 . S
O11 C4 1.240 . S
O12 In0 2.326 . S
O12 C4 1.252 . S
In13 O14 2.294 . S
In13 O15 2.326 . S
In13 O19 2.266 . S
In13 O20 2.326 . S
In13 O21 2.266 1_655 S
In13 O22 2.326 . S
In13 O24 2.294 . S
In13 O25 2.326 . S
O14 In13 2.294 . S
O14 C23 1.240 . S
O15 In13 2.326 . S
O15 C23 1.252 . S
C16 O19 1.252 . S
C16 O20 1.260 . S
C17 O24 1.240 . S
C17 O25 1.252 . S
C18 O21 1.252 . S
C18 O22 1.260 1_455 S
O19 In13 2.266 . S
O19 C16 1.252 . S
O20 In13 2.326 . S
O20 C16 1.260 . S
O21 In13 2.266 1_455 S
O21 C18 1.252 . S
O22 In13 2.326 . S
O22 C18 1.260 1_655 S
C23 O14 1.240 . S
C23 O15 1.252 . S
O24 In13 2.294 . S
O24 C17 1.240 . S
O25 In13 2.326 . S
O25 C17 1.252 . S
In26 O27 2.294 . S
In26 O28 2.326 . S
In26 O32 2.266 1_565 S
In26 O33 2.326 . S
In26 O34 2.266 . S
In26 O35 2.326 . S
In26 O37 2.294 . S
In26 O38 2.326 . S
O27 In26 2.294 . S
O27 C36 1.240 . S
O28 In26 2.326 . S
O28 C36 1.252 . S
C29 O32 1.252 . S
C29 O33 1.260 1_545 S
C30 O37 1.240 . S
C30 O38 1.252 . S
C31 O34 1.252 . S
C31 O35 1.260 . S
O32 In26 2.266 1_545 S
O32 C29 1.252 . S
O33 In26 2.326 . S
O33 C29 1.260 1_565 S
O34 In26 2.266 . S
O34 C31 1.252 . S
O35 In26 2.326 . S
O35 C31 1.260 . S
C36 O27 1.240 . S
C36 O28 1.252 . S
O37 In26 2.294 . S
O37 C30 1.240 . S
O38 In26 2.326 . S
O38 C30 1.252 . S
In39 O40 2.294 . S
In39 O41 2.326 . S
In39 O45 2.266 . S
In39 O46 2.326 . S
In39 O47 2.266 . S
In39 O48 2.326 . S
In39 O50 2.294 . S
In39 O51 2.326 . S
O40 In39 2.294 . S
O40 C49 1.240 . S
O41 In39 2.326 . S
O41 C49 1.252 . S
C42 O45 1.252 . S
C42 O46 1.260 . S
C43 O50 1.240 . S
C43 O51 1.252 . S
C44 O47 1.252 . S
C44 O48 1.260 . S
O45 In39 2.266 . S
O45 C42 1.252 . S
O46 In39 2.326 . S
O46 C42 1.260 . S
O47 In39 2.266 . S
O47 C44 1.252 . S
O48 In39 2.326 . S
O48 C44 1.260 . S
C49 O40 1.240 . S
C49 O41 1.252 . S
O50 In39 2.294 . S
O50 C43 1.240 . S
O51 In39 2.326 . S
O51 C43 1.252 . S
In52 O53 2.294 . S
In52 O54 2.326 . S
In52 O58 2.266 . S
In52 O59 2.326 . S
In52 O60 2.266 1_455 S
In52 O61 2.326 . S
In52 O63 2.294 . S
In52 O64 2.326 . S
O53 In52 2.294 . S
O53 C62 1.240 . S
O54 In52 2.326 . S
O54 C62 1.252 . S
C55 O58 1.252 . S
C55 O59 1.260 . S
C56 O63 1.240 . S
C56 O64 1.252 . S
C57 O60 1.252 . S
C57 O61 1.260 1_655 S
O58 In52 2.266 . S
O58 C55 1.252 . S
O59 In52 2.326 . S
O59 C55 1.260 . S
O60 In52 2.266 1_655 S
O60 C57 1.252 . S
O61 In52 2.326 . S
O61 C57 1.260 1_455 S
C62 O53 1.240 . S
C62 O54 1.252 . S
O63 In52 2.294 . S
O63 C56 1.240 . S
O64 In52 2.326 . S
O64 C56 1.252 . S
In65 O66 2.294 . S
In65 O67 2.326 . S
In65 O71 2.266 . S
In65 O72 2.326 . S
In65 O73 2.266 1_545 S
In65 O74 2.326 . S
In65 O76 2.294 . S
In65 O77 2.326 . S
O66 In65 2.294 . S
O66 C75 1.240 . S
O67 In65 2.326 . S
O67 C75 1.252 . S
C68 O71 1.252 . S
C68 O72 1.260 . S
C69 O76 1.240 . S
C69 O77 1.252 . S
C70 O73 1.252 . S
C70 O74 1.260 1_565 S
O71 In65 2.266 . S
O71 C68 1.252 . S
O72 In65 2.326 . S
O72 C68 1.260 . S
O73 In65 2.266 1_565 S
O73 C70 1.252 . S
O74 In65 2.326 . S
O74 C70 1.260 1_545 S
C75 O66 1.240 . S
C75 O67 1.252 . S
O76 In65 2.294 . S
O76 C69 1.240 . S
O77 In65 2.326 . S
O77 C69 1.252 . S
In78 O79 2.294 . S
In78 O80 2.326 . S
In78 O84 2.266 . S
In78 O85 2.326 . S
In78 O86 2.266 . S
In78 O87 2.326 . S
In78 O89 2.294 . S
In78 O90 2.326 . S
O79 In78 2.294 . S
O79 C88 1.240 . S
O80 In78 2.326 . S
O80 C88 1.252 . S
C81 O84 1.252 . S
C81 O85 1.260 . S
C82 O89 1.240 . S
C82 O90 1.252 . S
C83 O86 1.252 . S
C83 O87 1.260 . S
O84 In78 2.266 . S
O84 C81 1.252 . S
O85 In78 2.326 . S
O85 C81 1.260 . S
O86 In78 2.266 . S
O86 C83 1.252 . S
O87 In78 2.326 . S
O87 C83 1.260 . S
C88 O79 1.240 . S
C88 O80 1.252 . S
O89 In78 2.294 . S
O89 C82 1.240 . S
O90 In78 2.326 . S
O90 C82 1.252 . S
In91 O92 2.294 . S
In91 O93 2.326 . S
In91 O97 2.266 . S
In91 O98 2.326 . S
In91 O99 2.266 1_655 S
In91 O100 2.326 . S
In91 O102 2.294 . S
In91 O103 2.326 . S
O92 In91 2.294 . S
O92 C101 1.240 . S
O93 In91 2.326 . S
O93 C101 1.252 . S
C94 O97 1.252 . S
C94 O98 1.260 . S
C95 O102 1.240 . S
C95 O103 1.252 . S
C96 O99 1.252 . S
C96 O100 1.260 1_455 S
O97 In91 2.266 . S
O97 C94 1.252 . S
O98 In91 2.326 . S
O98 C94 1.260 . S
O99 In91 2.266 1_455 S
O99 C96 1.252 . S
O100 In91 2.326 . S
O100 C96 1.260 1_655 S
C101 O92 1.240 . S
C101 O93 1.252 . S
O102 In91 2.294 . S
O102 C95 1.240 . S
O103 In91 2.326 . S
O103 C95 1.252 . S
In104 O105 2.294 . S
In104 O106 2.326 . S
In104 O110 2.266 . S
In104 O111 2.326 . S
In104 O112 2.266 1_565 S
In104 O113 2.326 . S
In104 O115 2.294 . S
In104 O116 2.326 . S
O105 In104 2.294 . S
O105 C114 1.240 . S
O106 In104 2.326 . S
O106 C114 1.252 . S
C107 O110 1.252 . S
C107 O111 1.260 . S
C108 O115 1.240 . S
C108 O116 1.252 . S
C109 O112 1.252 . S
C109 O113 1.260 1_545 S
O110 In104 2.266 . S
O110 C107 1.252 . S
O111 In104 2.326 . S
O111 C107 1.260 . S
O112 In104 2.266 1_545 S
O112 C109 1.252 . S
O113 In104 2.326 . S
O113 C109 1.260 1_565 S
C114 O105 1.240 . S
C114 O106 1.252 . S
O115 In104 2.294 . S
O115 C108 1.240 . S
O116 In104 2.326 . S
O116 C108 1.252 . S
In117 O118 2.294 . S
In117 O119 2.326 . S
In117 O123 2.266 . S
In117 O124 2.326 . S
In117 O125 2.266 . S
In117 O126 2.326 . S
In117 O128 2.294 . S
In117 O129 2.326 . S
O118 In117 2.294 . S
O118 C127 1.240 . S
O119 In117 2.326 . S
O119 C127 1.252 . S
C120 O123 1.252 . S
C120 O124 1.260 . S
C121 O128 1.240 . S
C121 O129 1.252 . S
C122 O125 1.252 . S
C122 O126 1.260 . S
O123 In117 2.266 . S
O123 C120 1.252 . S
O124 In117 2.326 . S
O124 C120 1.260 . S
O125 In117 2.266 . S
O125 C122 1.252 . S
O126 In117 2.326 . S
O126 C122 1.260 . S
C127 O118 1.240 . S
C127 O119 1.252 . S
O128 In117 2.294 . S
O128 C121 1.240 . S
O129 In117 2.326 . S
O129 C121 1.252 . S
In130 O131 2.294 . S
In130 O132 2.326 . S
In130 O136 2.266 1_455 S
In130 O137 2.326 . S
In130 O138 2.266 . S
In130 O139 2.326 . S
In130 O141 2.294 . S
In130 O142 2.326 . S
O131 In130 2.294 . S
O131 C140 1.240 . S
O132 In130 2.326 . S
O132 C140 1.252 . S
C133 O136 1.252 . S
C133 O137 1.260 1_655 S
C134 O141 1.240 . S
C134 O142 1.252 . S
C135 O138 1.252 . S
C135 O139 1.260 . S
O136 In130 2.266 1_655 S
O136 C133 1.252 . S
O137 In130 2.326 . S
O137 C133 1.260 1_455 S
O138 In130 2.266 . S
O138 C135 1.252 . S
O139 In130 2.326 . S
O139 C135 1.260 . S
C140 O131 1.240 . S
C140 O132 1.252 . S
O141 In130 2.294 . S
O141 C134 1.240 . S
O142 In130 2.326 . S
O142 C134 1.252 . S
In143 O144 2.294 . S
In143 O145 2.326 . S
In143 O149 2.266 1_545 S
In143 O150 2.326 . S
In143 O151 2.266 . S
In143 O152 2.326 . S
In143 O154 2.294 . S
In143 O155 2.326 . S
O144 In143 2.294 . S
O144 C153 1.240 . S
O145 In143 2.326 . S
O145 C153 1.252 . S
C146 O149 1.252 . S
C146 O150 1.260 1_565 S
C147 O154 1.240 . S
C147 O155 1.252 . S
C148 O151 1.252 . S
C148 O152 1.260 . S
O149 In143 2.266 1_565 S
O149 C146 1.252 . S
O150 In143 2.326 . S
O150 C146 1.260 1_545 S
O151 In143 2.266 . S
O151 C148 1.252 . S
O152 In143 2.326 . S
O152 C148 1.260 . S
C153 O144 1.240 . S
C153 O145 1.252 . S
O154 In143 2.294 . S
O154 C147 1.240 . S
O155 In143 2.326 . S
O155 C147 1.252 . S
C156 C157 1.391 . S
C156 C158 1.394 . S
C156 H172 0.931 . S
C157 C156 1.391 . S
C157 C161 1.376 . S
C158 C156 1.394 . S
C158 C159 1.369 . S
C158 C162 1.531 . S
C159 C158 1.369 . S
C159 C160 1.410 . S
C159 C167 1.503 1_655 S
C160 C159 1.410 . S
C160 C161 1.392 . S
C160 C163 1.511 1_655 S
C161 C157 1.376 . S
C161 C160 1.392 . S
C161 H173 0.929 . S
C162 C158 1.531 . S
C162 H174 0.960 . S
C162 H175 0.962 . S
C162 H176 0.960 . S
C163 C160 1.511 1_455 S
C163 H177 0.961 . S
C163 H178 0.961 . S
C163 H179 0.961 1_455 S
C164 C165 1.370 . S
C164 C166 1.363 . S
C164 H180 0.931 . S
C165 C164 1.370 . S
C165 C169 1.408 . S
C166 C164 1.363 . S
C166 C167 1.370 . S
C166 C170 1.524 . S
C167 C159 1.503 1_455 S
C167 C166 1.370 . S
C167 C168 1.403 . S
C168 C167 1.403 . S
C168 C169 1.404 . S
C168 C171 1.539 1_455 S
C169 C165 1.408 . S
C169 C168 1.404 . S
C169 H181 0.930 . S
C170 C166 1.524 . S
C170 H182 0.956 . S
C170 H183 0.961 . S
C170 H184 0.961 . S
C171 C168 1.539 1_655 S
C171 H185 0.958 . S
C171 H186 0.961 . S
C171 H187 0.960 . S
H172 C156 0.931 . S
H173 C161 0.929 . S
H174 C162 0.960 . S
H175 C162 0.962 . S
H176 C162 0.960 . S
H177 C163 0.961 . S
H178 C163 0.961 . S
H179 C163 0.961 1_655 S
H180 C164 0.931 . S
H181 C169 0.930 . S
H182 C170 0.956 . S
H183 C170 0.961 . S
H184 C170 0.961 . S
H185 C171 0.958 . S
H186 C171 0.961 . S
H187 C171 0.960 . S
C188 C189 1.391 . S
C188 C190 1.394 . S
C188 H204 0.931 . S
C189 C188 1.391 . S
C189 C193 1.376 . S
C190 C188 1.394 . S
C190 C191 1.369 . S
C190 C194 1.531 . S
C191 C190 1.369 . S
C191 C192 1.410 . S
C191 C199 1.503 1_545 S
C192 C191 1.410 . S
C192 C193 1.392 . S
C192 C195 1.511 1_545 S
C193 C189 1.376 . S
C193 C192 1.392 . S
C193 H205 0.929 . S
C194 C190 1.531 . S
C194 H206 0.960 . S
C194 H207 0.962 . S
C194 H208 0.960 . S
C195 C192 1.511 1_565 S
C195 H209 0.961 . S
C195 H210 0.961 . S
C195 H211 0.961 . S
C196 C197 1.370 . S
C196 C198 1.363 . S
C196 H212 0.931 . S
C197 C196 1.370 . S
C197 C201 1.408 . S
C198 C196 1.363 . S
C198 C199 1.370 . S
C198 C202 1.524 . S
C199 C191 1.503 1_565 S
C199 C198 1.370 . S
C199 C200 1.403 . S
C200 C199 1.403 . S
C200 C201 1.404 . S
C200 C203 1.539 . S
C201 C197 1.408 . S
C201 C200 1.404 . S
C201 H213 0.930 . S
C202 C198 1.524 . S
C202 H214 0.956 1_565 S
C202 H215 0.962 . S
C202 H216 0.961 . S
C203 C200 1.539 . S
C203 H217 0.958 . S
C203 H218 0.961 . S
C203 H219 0.960 . S
H204 C188 0.931 . S
H205 C193 0.929 . S
H206 C194 0.960 . S
H207 C194 0.962 . S
H208 C194 0.960 . S
H209 C195 0.961 . S
H210 C195 0.961 . S
H211 C195 0.961 . S
H212 C196 0.931 . S
H213 C201 0.930 . S
H214 C202 0.956 1_545 S
H215 C202 0.962 . S
H216 C202 0.961 . S
H217 C203 0.958 . S
H218 C203 0.961 . S
H219 C203 0.960 . S
C220 C221 1.391 . S
C220 C222 1.394 . S
C220 H236 0.931 . S
C221 C220 1.391 . S
C221 C225 1.376 . S
C222 C220 1.394 . S
C222 C223 1.369 . S
C222 C226 1.531 . S
C223 C222 1.369 . S
C223 C224 1.410 . S
C223 C231 1.503 . S
C224 C223 1.410 . S
C224 C225 1.392 . S
C224 C227 1.511 . S
C225 C221 1.376 . S
C225 C224 1.392 . S
C225 H237 0.929 . S
C226 C222 1.531 . S
C226 H238 0.960 . S
C226 H239 0.962 . S
C226 H240 0.960 . S
C227 C224 1.511 . S
C227 H241 0.961 . S
C227 H242 0.961 . S
C227 H243 0.961 . S
C228 C229 1.370 . S
C228 C230 1.363 . S
C228 H244 0.931 . S
C229 C228 1.370 . S
C229 C233 1.408 . S
C230 C228 1.363 . S
C230 C231 1.370 . S
C230 C234 1.524 . S
C231 C223 1.503 . S
C231 C230 1.370 . S
C231 C232 1.403 . S
C232 C231 1.403 . S
C232 C233 1.404 . S
C232 C235 1.539 . S
C233 C229 1.408 . S
C233 C232 1.404 . S
C233 H245 0.930 . S
C234 C230 1.524 . S
C234 H246 0.956 . S
C234 H247 0.961 . S
C234 H248 0.961 . S
C235 C232 1.539 . S
C235 H249 0.958 . S
C235 H250 0.961 . S
C235 H251 0.960 . S
H236 C220 0.931 . S
H237 C225 0.929 . S
H238 C226 0.960 . S
H239 C226 0.962 . S
H240 C226 0.960 . S
H241 C227 0.961 . S
H242 C227 0.961 . S
H243 C227 0.961 . S
H244 C228 0.931 . S
H245 C233 0.930 . S
H246 C234 0.956 . S
H247 C234 0.961 . S
H248 C234 0.961 . S
H249 C235 0.958 . S
H250 C235 0.961 . S
H251 C235 0.960 . S
C252 C253 1.391 . S
C252 C254 1.394 . S
C252 H268 0.931 . S
C253 C252 1.391 . S
C253 C257 1.376 . S
C254 C252 1.394 . S
C254 C255 1.369 . S
C254 C258 1.531 . S
C255 C254 1.369 . S
C255 C256 1.410 . S
C255 C263 1.503 1_655 S
C256 C255 1.410 . S
C256 C257 1.392 . S
C256 C259 1.511 1_655 S
C257 C253 1.376 . S
C257 C256 1.392 . S
C257 H269 0.929 . S
C258 C254 1.531 . S
C258 H270 0.960 . S
C258 H271 0.962 . S
C258 H272 0.960 . S
C259 C256 1.511 1_455 S
C259 H273 0.961 . S
C259 H274 0.961 . S
C259 H275 0.961 . S
C260 C261 1.370 . S
C260 C262 1.363 . S
C260 H276 0.931 . S
C261 C260 1.370 . S
C261 C265 1.408 . S
C262 C260 1.363 . S
C262 C263 1.370 . S
C262 C266 1.524 1_455 S
C263 C255 1.503 1_455 S
C263 C262 1.370 . S
C263 C264 1.403 . S
C264 C263 1.403 . S
C264 C265 1.404 . S
C264 C267 1.539 . S
C265 C261 1.408 . S
C265 C264 1.404 . S
C265 H277 0.930 . S
C266 C262 1.524 1_655 S
C266 H278 0.956 . S
C266 H279 0.961 . S
C266 H280 0.961 . S
C267 C264 1.539 . S
C267 H281 0.958 . S
C267 H282 0.961 . S
C267 H283 0.960 . S
H268 C252 0.931 . S
H269 C257 0.929 . S
H270 C258 0.960 . S
H271 C258 0.962 . S
H272 C258 0.960 . S
H273 C259 0.961 . S
H274 C259 0.961 . S
H275 C259 0.961 . S
H276 C260 0.931 . S
H277 C265 0.930 . S
H278 C266 0.956 . S
H279 C266 0.961 . S
H280 C266 0.961 . S
H281 C267 0.958 . S
H282 C267 0.961 . S
H283 C267 0.960 . S
C284 C285 1.391 . S
C284 C286 1.394 . S
C284 H300 0.931 . S
C285 C284 1.391 . S
C285 C289 1.376 . S
C286 C284 1.394 . S
C286 C287 1.369 . S
C286 C290 1.531 1_545 S
C287 C286 1.369 . S
C287 C288 1.410 . S
C287 C295 1.503 1_545 S
C288 C287 1.410 . S
C288 C289 1.392 . S
C288 C291 1.511 . S
C289 C285 1.376 . S
C289 C288 1.392 . S
C289 H301 0.929 . S
C290 C286 1.531 1_565 S
C290 H302 0.960 . S
C290 H303 0.962 . S
C290 H304 0.960 . S
C291 C288 1.511 . S
C291 H305 0.961 . S
C291 H306 0.961 . S
C291 H307 0.961 . S
C292 C293 1.370 . S
C292 C294 1.363 . S
C292 H308 0.931 . S
C293 C292 1.370 . S
C293 C297 1.408 . S
C294 C292 1.363 . S
C294 C295 1.370 . S
C294 C298 1.524 1_565 S
C295 C287 1.503 1_565 S
C295 C294 1.370 . S
C295 C296 1.403 . S
C296 C295 1.403 . S
C296 C297 1.404 . S
C296 C299 1.539 . S
C297 C293 1.408 . S
C297 C296 1.404 . S
C297 H309 0.930 . S
C298 C294 1.524 1_545 S
C298 H310 0.956 . S
C298 H311 0.961 . S
C298 H312 0.961 . S
C299 C296 1.539 . S
C299 H313 0.958 . S
C299 H314 0.961 . S
C299 H315 0.960 . S
H300 C284 0.931 . S
H301 C289 0.929 . S
H302 C290 0.960 . S
H303 C290 0.962 . S
H304 C290 0.960 . S
H305 C291 0.961 . S
H306 C291 0.961 . S
H307 C291 0.961 . S
H308 C292 0.931 . S
H309 C297 0.930 . S
H310 C298 0.956 . S
H311 C298 0.961 . S
H312 C298 0.961 . S
H313 C299 0.958 . S
H314 C299 0.961 . S
H315 C299 0.960 . S
C316 C317 1.391 . S
C316 C318 1.394 . S
C316 H332 0.931 . S
C317 C316 1.391 . S
C317 C321 1.376 . S
C318 C316 1.394 . S
C318 C319 1.369 . S
C318 C322 1.531 . S
C319 C318 1.369 . S
C319 C320 1.410 . S
C319 C327 1.503 . S
C320 C319 1.410 . S
C320 C321 1.392 . S
C320 C323 1.511 . S
C321 C317 1.376 . S
C321 C320 1.392 . S
C321 H333 0.929 . S
C322 C318 1.531 . S
C322 H334 0.960 . S
C322 H335 0.962 . S
C322 H336 0.960 . S
C323 C320 1.511 . S
C323 H337 0.961 . S
C323 H338 0.961 . S
C323 H339 0.961 . S
C324 C325 1.370 . S
C324 C326 1.363 . S
C324 H340 0.931 . S
C325 C324 1.370 . S
C325 C329 1.408 . S
C326 C324 1.363 . S
C326 C327 1.370 . S
C326 C330 1.524 . S
C327 C319 1.503 . S
C327 C326 1.370 . S
C327 C328 1.403 . S
C328 C327 1.403 . S
C328 C329 1.404 . S
C328 C331 1.539 . S
C329 C325 1.408 . S
C329 C328 1.404 . S
C329 H341 0.930 . S
C330 C326 1.524 . S
C330 H342 0.956 . S
C330 H343 0.961 . S
C330 H344 0.961 . S
C331 C328 1.539 . S
C331 H345 0.958 . S
C331 H346 0.961 . S
C331 H347 0.960 . S
H332 C316 0.931 . S
H333 C321 0.929 . S
H334 C322 0.960 . S
H335 C322 0.962 . S
H336 C322 0.960 . S
H337 C323 0.961 . S
H338 C323 0.961 . S
H339 C323 0.961 . S
H340 C324 0.931 . S
H341 C329 0.930 . S
H342 C330 0.956 . S
H343 C330 0.961 . S
H344 C330 0.961 . S
H345 C331 0.958 . S
H346 C331 0.961 . S
H347 C331 0.960 . S
C348 C349 1.391 . S
C348 C350 1.394 . S
C348 H364 0.931 . S
C349 C348 1.391 . S
C349 C353 1.376 . S
C350 C348 1.394 . S
C350 C351 1.369 . S
C350 C354 1.531 . S
C351 C350 1.369 . S
C351 C352 1.410 . S
C351 C359 1.503 . S
C352 C351 1.410 . S
C352 C353 1.392 . S
C352 C355 1.511 . S
C353 C349 1.376 . S
C353 C352 1.392 . S
C353 H365 0.929 . S
C354 C350 1.531 . S
C354 H366 0.960 . S
C354 H367 0.962 . S
C354 H368 0.960 . S
C355 C352 1.511 . S
C355 H369 0.961 . S
C355 H370 0.961 . S
C355 H371 0.961 . S
C356 C357 1.370 . S
C356 C358 1.363 . S
C356 H372 0.931 . S
C357 C356 1.370 . S
C357 C361 1.408 . S
C358 C356 1.363 . S
C358 C359 1.370 . S
C358 C362 1.524 . S
C359 C351 1.503 . S
C359 C358 1.370 . S
C359 C360 1.403 . S
C360 C359 1.403 . S
C360 C361 1.404 . S
C360 C363 1.539 . S
C361 C357 1.408 . S
C361 C360 1.404 . S
C361 H373 0.930 . S
C362 C358 1.524 . S
C362 H374 0.956 . S
C362 H375 0.961 . S
C362 H376 0.961 . S
C363 C360 1.539 . S
C363 H377 0.958 . S
C363 H378 0.961 . S
C363 H379 0.960 . S
H364 C348 0.931 . S
H365 C353 0.929 . S
H366 C354 0.960 . S
H367 C354 0.962 . S
H368 C354 0.960 . S
H369 C355 0.961 . S
H370 C355 0.961 . S
H371 C355 0.961 . S
H372 C356 0.931 . S
H373 C361 0.930 . S
H374 C362 0.956 . S
H375 C362 0.961 . S
H376 C362 0.961 . S
H377 C363 0.958 . S
H378 C363 0.961 . S
H379 C363 0.960 . S
C380 C381 1.391 . S
C380 C382 1.394 1_455 S
C380 H396 0.931 1_455 S
C381 C380 1.391 . S
C381 C385 1.376 . S
C382 C380 1.394 1_655 S
C382 C383 1.369 . S
C382 C386 1.531 . S
C383 C382 1.369 . S
C383 C384 1.410 1_655 S
C383 C391 1.503 . S
C384 C383 1.410 1_455 S
C384 C385 1.392 . S
C384 C387 1.511 . S
C385 C381 1.376 . S
C385 C384 1.392 . S
C385 H397 0.929 . S
C386 C382 1.531 . S
C386 H398 0.960 . S
C386 H399 0.962 . S
C386 H400 0.960 . S
C387 C384 1.511 . S
C387 H401 0.961 . S
C387 H402 0.961 . S
C387 H403 0.961 . S
C388 C389 1.370 1_455 S
C388 C390 1.363 . S
C388 H404 0.931 . S
C389 C388 1.370 1_655 S
C389 C393 1.408 . S
C390 C388 1.363 . S
C390 C391 1.370 1_455 S
C390 C394 1.524 . S
C391 C383 1.503 . S
C391 C390 1.370 1_655 S
C391 C392 1.403 . S
C392 C391 1.403 . S
C392 C393 1.404 . S
C392 C395 1.539 . S
C393 C389 1.408 . S
C393 C392 1.404 . S
C393 H405 0.930 . S
C394 C390 1.524 . S
C394 H406 0.956 . S
C394 H407 0.961 . S
C394 H408 0.961 . S
C395 C392 1.539 . S
C395 H409 0.958 . S
C395 H410 0.961 . S
C395 H411 0.960 . S
H396 C380 0.931 1_655 S
H397 C385 0.929 . S
H398 C386 0.960 . S
H399 C386 0.962 . S
H400 C386 0.960 . S
H401 C387 0.961 . S
H402 C387 0.961 . S
H403 C387 0.961 . S
H404 C388 0.931 . S
H405 C393 0.930 . S
H406 C394 0.956 . S
H407 C394 0.961 . S
H408 C394 0.961 . S
H409 C395 0.958 . S
H410 C395 0.961 . S
H411 C395 0.960 . S
C412 C413 1.391 . S
C412 C414 1.394 . S
C412 H428 0.931 . S
C413 C412 1.391 . S
C413 C417 1.376 1_545 S
C414 C412 1.394 . S
C414 C415 1.369 . S
C414 C418 1.531 . S
C415 C414 1.369 . S
C415 C416 1.410 1_545 S
C415 C423 1.503 1_545 S
C416 C415 1.410 1_565 S
C416 C417 1.392 . S
C416 C419 1.511 . S
C417 C413 1.376 1_565 S
C417 C416 1.392 . S
C417 H429 0.929 . S
C418 C414 1.531 . S
C418 H430 0.960 . S
C418 H431 0.962 . S
C418 H432 0.960 . S
C419 C416 1.511 . S
C419 H433 0.961 . S
C419 H434 0.961 . S
C419 H435 0.961 . S
C420 C421 1.370 . S
C420 C422 1.363 . S
C420 H436 0.931 . S
C421 C420 1.370 . S
C421 C425 1.408 . S
C422 C420 1.363 . S
C422 C423 1.370 . S
C422 C426 1.524 . S
C423 C415 1.503 1_565 S
C423 C422 1.370 . S
C423 C424 1.403 . S
C424 C423 1.403 . S
C424 C425 1.404 . S
C424 C427 1.539 . S
C425 C421 1.408 . S
C425 C424 1.404 . S
C425 H437 0.930 . S
C426 C422 1.524 . S
C426 H438 0.956 1_565 S
C426 H439 0.961 . S
C426 H440 0.961 . S
C427 C424 1.539 . S
C427 H441 0.958 1_565 S
C427 H442 0.961 . S
C427 H443 0.960 . S
H428 C412 0.931 . S
H429 C417 0.929 . S
H430 C418 0.960 . S
H431 C418 0.962 . S
H432 C418 0.960 . S
H433 C419 0.961 . S
H434 C419 0.961 . S
H435 C419 0.961 . S
H436 C420 0.931 . S
H437 C425 0.930 . S
H438 C426 0.956 1_545 S
H439 C426 0.961 . S
H440 C426 0.961 . S
H441 C427 0.958 1_545 S
H442 C427 0.961 . S
H443 C427 0.960 . S
C444 C445 1.391 . S
C444 C446 1.394 . S
C444 H460 0.931 . S
C445 C444 1.391 . S
C445 C449 1.376 . S
C446 C444 1.394 . S
C446 C447 1.369 . S
C446 C450 1.531 . S
C447 C446 1.369 . S
C447 C448 1.410 . S
C447 C455 1.503 . S
C448 C447 1.410 . S
C448 C449 1.392 . S
C448 C451 1.511 . S
C449 C445 1.376 . S
C449 C448 1.392 . S
C449 H461 0.929 . S
C450 C446 1.531 . S
C450 H462 0.960 . S
C450 H463 0.962 . S
C450 H464 0.960 . S
C451 C448 1.511 . S
C451 H465 0.961 . S
C451 H466 0.961 . S
C451 H467 0.961 . S
C452 C453 1.370 . S
C452 C454 1.363 . S
C452 H468 0.931 . S
C453 C452 1.370 . S
C453 C457 1.408 . S
C454 C452 1.363 . S
C454 C455 1.370 . S
C454 C458 1.524 . S
C455 C447 1.503 . S
C455 C454 1.370 . S
C455 C456 1.403 . S
C456 C455 1.403 . S
C456 C457 1.404 . S
C456 C459 1.539 . S
C457 C453 1.408 . S
C457 C456 1.404 . S
C457 H469 0.930 . S
C458 C454 1.524 . S
C458 H470 0.956 . S
C458 H471 0.961 . S
C458 H472 0.961 . S
C459 C456 1.539 . S
C459 H473 0.958 . S
C459 H474 0.961 . S
C459 H475 0.960 . S
H460 C444 0.931 . S
H461 C449 0.929 . S
H462 C450 0.960 . S
H463 C450 0.962 . S
H464 C450 0.960 . S
H465 C451 0.961 . S
H466 C451 0.961 . S
H467 C451 0.961 . S
H468 C452 0.931 . S
H469 C457 0.930 . S
H470 C458 0.956 . S
H471 C458 0.961 . S
H472 C458 0.961 . S
H473 C459 0.958 . S
H474 C459 0.961 . S
H475 C459 0.960 . S
C476 C477 1.391 1_455 S
C476 C478 1.394 . S
C476 H492 0.931 . S
C477 C476 1.391 1_655 S
C477 C481 1.376 . S
C478 C476 1.394 . S
C478 C479 1.369 1_455 S
C478 C482 1.531 . S
C479 C478 1.369 1_655 S
C479 C480 1.410 . S
C479 C487 1.503 1_655 S
C480 C479 1.410 . S
C480 C481 1.392 . S
C480 C483 1.511 . S
C481 C477 1.376 . S
C481 C480 1.392 . S
C481 H493 0.929 . S
C482 C478 1.531 . S
C482 H494 0.960 . S
C482 H495 0.962 . S
C482 H496 0.960 . S
C483 C480 1.511 . S
C483 H497 0.961 . S
C483 H498 0.961 . S
C483 H499 0.961 . S
C484 C485 1.370 . S
C484 C486 1.363 . S
C484 H500 0.931 . S
C485 C484 1.370 . S
C485 C489 1.408 . S
C486 C484 1.363 . S
C486 C487 1.370 . S
C486 C490 1.524 . S
C487 C479 1.503 1_455 S
C487 C486 1.370 . S
C487 C488 1.403 . S
C488 C487 1.403 . S
C488 C489 1.404 . S
C488 C491 1.539 1_455 S
C489 C485 1.408 . S
C489 C488 1.404 . S
C489 H501 0.930 . S
C490 C486 1.524 . S
C490 H502 0.956 . S
C490 H503 0.961 1_455 S
C490 H504 0.961 . S
C491 C488 1.539 1_655 S
C491 H505 0.958 1_655 S
C491 H506 0.961 . S
C491 H507 0.960 . S
H492 C476 0.931 . S
H493 C481 0.929 . S
H494 C482 0.960 . S
H495 C482 0.962 . S
H496 C482 0.960 . S
H497 C483 0.961 . S
H498 C483 0.961 . S
H499 C483 0.961 . S
H500 C484 0.931 . S
H501 C489 0.930 . S
H502 C490 0.956 . S
H503 C490 0.961 1_655 S
H504 C490 0.961 . S
H505 C491 0.958 1_455 S
H506 C491 0.961 . S
H507 C491 0.960 . S
C508 C509 1.391 . S
C508 C510 1.394 . S
C508 H524 0.931 . S
C509 C508 1.391 . S
C509 C513 1.376 1_565 S
C510 C508 1.394 . S
C510 C511 1.369 . S
C510 C514 1.531 . S
C511 C510 1.369 . S
C511 C512 1.410 1_565 S
C511 C519 1.503 1_565 S
C512 C511 1.410 1_545 S
C512 C513 1.392 . S
C512 C515 1.511 . S
C513 C509 1.376 1_545 S
C513 C512 1.392 . S
C513 H525 0.929 . S
C514 C510 1.531 . S
C514 H526 0.960 . S
C514 H527 0.962 . S
C514 H528 0.960 . S
C515 C512 1.511 . S
C515 H529 0.961 . S
C515 H530 0.961 . S
C515 H531 0.961 . S
C516 C517 1.370 . S
C516 C518 1.363 . S
C516 H532 0.931 . S
C517 C516 1.370 . S
C517 C521 1.408 . S
C518 C516 1.363 . S
C518 C519 1.370 . S
C518 C522 1.526 1_545 S
C519 C511 1.503 1_545 S
C519 C518 1.370 . S
C519 C520 1.403 . S
C520 C519 1.403 . S
C520 C521 1.404 . S
C520 C523 1.539 . S
C521 C517 1.408 . S
C521 C520 1.404 . S
C521 H533 0.930 . S
C522 C518 1.526 1_565 S
C522 H534 0.971 . S
C522 H535 0.942 1_565 S
C522 H536 0.963 1_565 S
C523 C520 1.539 . S
C523 H537 0.958 1_545 S
C523 H538 0.961 . S
C523 H539 0.960 . S
H524 C508 0.931 . S
H525 C513 0.929 . S
H526 C514 0.960 . S
H527 C514 0.962 . S
H528 C514 0.960 . S
H529 C515 0.961 . S
H530 C515 0.961 . S
H531 C515 0.961 . S
H532 C516 0.931 . S
H533 C521 0.930 . S
H534 C522 0.971 . S
H535 C522 0.942 1_545 S
H536 C522 0.963 1_545 S
H537 C523 0.958 1_565 S
H538 C523 0.961 . S
H539 C523 0.960 . S
C540 C541 1.391 . S
C540 C542 1.394 . S
C540 H556 0.931 1_545 S
C541 C540 1.391 . S
C541 C545 1.376 . S
C542 C540 1.394 . S
C542 C543 1.369 . S
C542 C546 1.531 . S
C543 C542 1.369 . S
C543 C544 1.410 . S
C543 C551 1.503 . S
C544 C543 1.410 . S
C544 C545 1.392 . S
C544 C547 1.511 . S
C545 C541 1.376 . S
C545 C544 1.392 . S
C545 H557 0.929 . S
C546 C542 1.531 . S
C546 H558 0.960 . S
C546 H559 0.962 . S
C546 H560 0.960 . S
C547 C544 1.511 . S
C547 H561 0.961 . S
C547 H562 0.961 . S
C547 H563 0.961 . S
C548 C549 1.370 . S
C548 C550 1.363 . S
C548 H564 0.931 . S
C549 C548 1.370 . S
C549 C553 1.408 . S
C550 C548 1.363 . S
C550 C551 1.370 . S
C550 C554 1.524 . S
C551 C543 1.503 . S
C551 C550 1.370 . S
C551 C552 1.403 . S
C552 C551 1.403 . S
C552 C553 1.404 . S
C552 C555 1.539 . S
C553 C549 1.408 . S
C553 C552 1.404 . S
C553 H565 0.930 . S
C554 C550 1.524 . S
C554 H566 0.956 . S
C554 H567 0.961 . S
C554 H568 0.961 . S
C555 C552 1.539 . S
C555 H569 0.958 . S
C555 H570 0.961 . S
C555 H571 0.960 . S
H556 C540 0.931 1_565 S
H557 C545 0.929 . S
H558 C546 0.960 . S
H559 C546 0.962 . S
H560 C546 0.960 . S
H561 C547 0.961 . S
H562 C547 0.961 . S
H563 C547 0.961 . S
H564 C548 0.931 . S
H565 C553 0.930 . S
H566 C554 0.956 . S
H567 C554 0.961 . S
H568 C554 0.961 . S
H569 C555 0.958 . S
H570 C555 0.961 . S
H571 C555 0.960 . S
C572 C573 1.391 . S
C572 C574 1.394 . S
C572 H588 0.931 . S
C573 C572 1.391 . S
C573 C577 1.376 . S
C574 C572 1.394 . S
C574 C575 1.369 . S
C574 C578 1.531 . S
C575 C574 1.369 . S
C575 C576 1.410 . S
C575 C583 1.503 . S
C576 C575 1.410 . S
C576 C577 1.392 . S
C576 C579 1.511 . S
C577 C573 1.376 . S
C577 C576 1.392 . S
C577 H589 0.929 . S
C578 C574 1.531 . S
C578 H590 0.960 . S
C578 H591 0.962 . S
C578 H592 0.960 . S
C579 C576 1.511 . S
C579 H593 0.961 . S
C579 H594 0.961 . S
C579 H595 0.961 . S
C580 C581 1.370 . S
C580 C582 1.363 . S
C580 H596 0.931 . S
C581 C580 1.370 . S
C581 C585 1.408 . S
C582 C580 1.363 . S
C582 C583 1.370 . S
C582 C586 1.524 . S
C583 C575 1.503 . S
C583 C582 1.370 . S
C583 C584 1.403 . S
C584 C583 1.403 . S
C584 C585 1.404 . S
C584 C587 1.539 . S
C585 C581 1.408 . S
C585 C584 1.404 . S
C585 H597 0.930 . S
C586 C582 1.524 . S
C586 H598 0.956 . S
C586 H599 0.961 . S
C586 H600 0.961 . S
C587 C584 1.539 . S
C587 H601 0.958 . S
C587 H602 0.961 . S
C587 H603 0.960 . S
H588 C572 0.931 . S
H589 C577 0.929 . S
H590 C578 0.960 . S
H591 C578 0.962 . S
H592 C578 0.960 . S
H593 C579 0.961 . S
H594 C579 0.961 . S
H595 C579 0.961 . S
H596 C580 0.931 . S
H597 C585 0.930 . S
H598 C586 0.956 . S
H599 C586 0.961 . S
H600 C586 0.961 . S
H601 C587 0.958 . S
H602 C587 0.961 . S
H603 C587 0.960 . S
C604 C605 1.391 . S
C604 C606 1.394 . S
C604 H620 0.931 1_655 S
C605 C604 1.391 . S
C605 C609 1.376 . S
C606 C604 1.394 . S
C606 C607 1.369 . S
C606 C610 1.531 . S
C607 C606 1.369 . S
C607 C608 1.410 . S
C607 C615 1.503 . S
C608 C607 1.410 . S
C608 C609 1.392 . S
C608 C611 1.511 . S
C609 C605 1.376 . S
C609 C608 1.392 . S
C609 H621 0.929 . S
C610 C606 1.531 . S
C610 H622 0.960 . S
C610 H623 0.962 . S
C610 H624 0.960 . S
C611 C608 1.511 . S
C611 H625 0.961 . S
C611 H626 0.961 . S
C611 H627 0.961 . S
C612 C613 1.370 . S
C612 C614 1.363 . S
C612 H628 0.931 1_545 S
C613 C612 1.370 . S
C613 C617 1.408 . S
C614 C612 1.363 . S
C614 C615 1.370 . S
C614 C618 1.524 . S
C615 C607 1.503 . S
C615 C614 1.370 . S
C615 C616 1.403 . S
C616 C615 1.403 . S
C616 C617 1.404 . S
C616 C619 1.539 . S
C617 C613 1.408 . S
C617 C616 1.404 . S
C617 H629 0.930 . S
C618 C614 1.524 . S
C618 H630 0.956 . S
C618 H631 0.961 . S
C618 H632 0.961 . S
C619 C616 1.539 . S
C619 H633 0.958 . S
C619 H634 0.961 . S
C619 H635 0.960 . S
H620 C604 0.931 1_455 S
H621 C609 0.929 . S
H622 C610 0.960 . S
H623 C610 0.962 . S
H624 C610 0.960 . S
H625 C611 0.961 . S
H626 C611 0.961 . S
H627 C611 0.961 . S
H628 C612 0.931 1_565 S
H629 C617 0.930 . S
H630 C618 0.956 . S
H631 C618 0.961 . S
H632 C618 0.961 . S
H633 C619 0.958 . S
H634 C619 0.961 . S
H635 C619 0.960 . S
C636 C637 1.391 . S
C636 C638 1.394 . S
C636 H652 0.931 . S
C637 C636 1.391 . S
C637 C641 1.376 . S
C638 C636 1.394 . S
C638 C639 1.369 . S
C638 C642 1.531 . S
C639 C638 1.369 . S
C639 C640 1.410 . S
C639 C647 1.503 . S
C640 C639 1.410 . S
C640 C641 1.392 . S
C640 C643 1.511 . S
C641 C637 1.376 . S
C641 C640 1.392 . S
C641 H653 0.929 1_565 S
C642 C638 1.531 . S
C642 H654 0.960 . S
C642 H655 0.962 . S
C642 H656 0.960 . S
C643 C640 1.511 . S
C643 H657 0.961 . S
C643 H658 0.961 . S
C643 H659 0.961 . S
C644 C645 1.370 . S
C644 C646 1.363 . S
C644 H660 0.931 . S
C645 C644 1.370 . S
C645 C649 1.408 . S
C646 C644 1.363 . S
C646 C647 1.370 . S
C646 C650 1.524 . S
C647 C639 1.503 . S
C647 C646 1.370 . S
C647 C648 1.403 . S
C648 C647 1.403 . S
C648 C649 1.404 . S
C648 C651 1.539 . S
C649 C645 1.408 . S
C649 C648 1.404 . S
C649 H661 0.930 . S
C650 C646 1.524 . S
C650 H662 0.956 . S
C650 H663 0.961 . S
C650 H664 0.961 . S
C651 C648 1.539 . S
C651 H665 0.958 . S
C651 H666 0.961 . S
C651 H667 0.960 . S
H652 C636 0.931 . S
H653 C641 0.929 1_545 S
H654 C642 0.960 . S
H655 C642 0.962 . S
H656 C642 0.960 . S
H657 C643 0.961 . S
H658 C643 0.961 . S
H659 C643 0.961 . S
H660 C644 0.931 . S
H661 C649 0.930 . S
H662 C650 0.956 . S
H663 C650 0.961 . S
H664 C650 0.961 . S
H665 C651 0.958 . S
H666 C651 0.961 . S
H667 C651 0.960 . S
C668 C669 1.391 . S
C668 C670 1.394 . S
C668 H684 0.931 . S
C669 C668 1.391 . S
C669 C673 1.376 . S
C670 C668 1.394 . S
C670 C671 1.369 . S
C670 C674 1.531 . S
C671 C670 1.369 . S
C671 C672 1.410 . S
C671 C679 1.503 . S
C672 C671 1.410 . S
C672 C673 1.392 . S
C672 C675 1.511 . S
C673 C669 1.376 . S
C673 C672 1.392 . S
C673 H685 0.929 . S
C674 C670 1.531 . S
C674 H686 0.960 . S
C674 H687 0.962 . S
C674 H688 0.960 . S
C675 C672 1.511 . S
C675 H689 0.961 . S
C675 H690 0.961 . S
C675 H691 0.961 . S
C676 C677 1.370 . S
C676 C678 1.363 . S
C676 H692 0.931 . S
C677 C676 1.370 . S
C677 C681 1.408 . S
C678 C676 1.363 . S
C678 C679 1.370 . S
C678 C682 1.524 . S
C679 C671 1.503 . S
C679 C678 1.370 . S
C679 C680 1.403 . S
C680 C679 1.403 . S
C680 C681 1.404 . S
C680 C683 1.539 . S
C681 C677 1.408 . S
C681 C680 1.404 . S
C681 H693 0.930 . S
C682 C678 1.524 . S
C682 H694 0.956 . S
C682 H695 0.961 . S
C682 H696 0.961 . S
C683 C680 1.539 . S
C683 H697 0.958 . S
C683 H698 0.961 . S
C683 H699 0.960 . S
H684 C668 0.931 . S
H685 C673 0.929 . S
H686 C674 0.960 . S
H687 C674 0.962 . S
H688 C674 0.960 . S
H689 C675 0.961 . S
H690 C675 0.961 . S
H691 C675 0.961 . S
H692 C676 0.931 . S
H693 C681 0.930 . S
H694 C682 0.956 . S
H695 C682 0.961 . S
H696 C682 0.961 . S
H697 C683 0.958 . S
H698 C683 0.961 . S
H699 C683 0.960 . S
C700 C701 1.391 . S
C700 C702 1.394 . S
C700 H716 0.931 . S
C701 C700 1.391 . S
C701 C705 1.376 . S
C702 C700 1.394 . S
C702 C703 1.369 . S
C702 C706 1.531 . S
C703 C702 1.369 . S
C703 C704 1.410 . S
C703 C711 1.503 . S
C704 C703 1.410 . S
C704 C705 1.392 . S
C704 C707 1.511 . S
C705 C701 1.376 . S
C705 C704 1.392 . S
C705 H717 0.929 . S
C706 C702 1.531 . S
C706 H718 0.960 . S
C706 H719 0.962 . S
C706 H720 0.960 . S
C707 C704 1.511 . S
C707 H721 0.961 . S
C707 H722 0.961 . S
C707 H723 0.961 . S
C708 C709 1.370 . S
C708 C710 1.363 . S
C708 H724 0.931 . S
C709 C708 1.370 . S
C709 C713 1.408 . S
C710 C708 1.363 . S
C710 C711 1.370 . S
C710 C714 1.524 . S
C711 C703 1.503 . S
C711 C710 1.370 . S
C711 C712 1.403 . S
C712 C711 1.403 . S
C712 C713 1.404 . S
C712 C715 1.539 . S
C713 C709 1.408 . S
C713 C712 1.404 . S
C713 H725 0.930 . S
C714 C710 1.524 . S
C714 H726 0.956 . S
C714 H727 0.961 . S
C714 H728 0.961 . S
C715 C712 1.539 . S
C715 H729 0.958 . S
C715 H730 0.961 . S
C715 H731 0.960 . S
H716 C700 0.931 . S
H717 C705 0.929 . S
H718 C706 0.960 . S
H719 C706 0.962 . S
H720 C706 0.960 . S
H721 C707 0.961 . S
H722 C707 0.961 . S
H723 C707 0.961 . S
H724 C708 0.931 . S
H725 C713 0.930 . S
H726 C714 0.956 . S
H727 C714 0.961 . S
H728 C714 0.961 . S
H729 C715 0.958 . S
H730 C715 0.961 . S
H731 C715 0.960 . S
C732 C733 1.391 . S
C732 C734 1.394 . S
C732 H748 0.931 . S
C733 C732 1.391 . S
C733 C737 1.376 . S
C734 C732 1.394 . S
C734 C735 1.369 . S
C734 C738 1.531 . S
C735 C734 1.369 . S
C735 C736 1.410 . S
C735 C743 1.503 . S
C736 C735 1.410 . S
C736 C737 1.392 . S
C736 C739 1.511 . S
C737 C733 1.376 . S
C737 C736 1.392 . S
C737 H749 0.929 . S
C738 C734 1.531 . S
C738 H750 0.960 . S
C738 H751 0.962 . S
C738 H752 0.960 . S
C739 C736 1.511 . S
C739 H753 0.961 . S
C739 H754 0.961 . S
C739 H755 0.961 . S
C740 C741 1.370 . S
C740 C742 1.363 . S
C740 H756 0.931 . S
C741 C740 1.370 . S
C741 C745 1.408 . S
C742 C740 1.363 . S
C742 C743 1.370 . S
C742 C746 1.524 . S
C743 C735 1.503 . S
C743 C742 1.370 . S
C743 C744 1.403 . S
C744 C743 1.403 . S
C744 C745 1.404 . S
C744 C747 1.539 . S
C745 C741 1.408 . S
C745 C744 1.404 . S
C745 H757 0.930 . S
C746 C742 1.524 . S
C746 H758 0.956 . S
C746 H759 0.961 . S
C746 H760 0.961 . S
C747 C744 1.539 . S
C747 H761 0.958 . S
C747 H762 0.961 . S
C747 H763 0.960 . S
H748 C732 0.931 . S
H749 C737 0.929 . S
H750 C738 0.960 . S
H751 C738 0.962 . S
H752 C738 0.960 . S
H753 C739 0.961 . S
H754 C739 0.961 . S
H755 C739 0.961 . S
H756 C740 0.931 . S
H757 C745 0.930 . S
H758 C746 0.956 . S
H759 C746 0.961 . S
H760 C746 0.961 . S
H761 C747 0.958 . S
H762 C747 0.961 . S
H763 C747 0.960 . S
C764 C765 1.391 . S
C764 C766 1.394 . S
C764 H780 0.931 . S
C765 C764 1.391 . S
C765 C769 1.376 1_655 S
C766 C764 1.394 . S
C766 C767 1.369 . S
C766 C770 1.531 . S
C767 C766 1.369 . S
C767 C768 1.410 1_655 S
C767 C775 1.503 1_655 S
C768 C767 1.410 1_455 S
C768 C769 1.392 . S
C768 C771 1.511 . S
C769 C765 1.376 1_455 S
C769 C768 1.392 . S
C769 H781 0.929 . S
C770 C766 1.531 . S
C770 H782 0.960 . S
C770 H783 0.962 . S
C770 H784 0.960 . S
C771 C768 1.511 . S
C771 H785 0.961 . S
C771 H786 0.961 . S
C771 H787 0.961 . S
C772 C773 1.370 . S
C772 C774 1.363 . S
C772 H788 0.931 . S
C773 C772 1.370 . S
C773 C777 1.408 . S
C774 C772 1.363 . S
C774 C775 1.370 . S
C774 C778 1.524 . S
C775 C767 1.503 1_455 S
C775 C774 1.370 . S
C775 C776 1.403 . S
C776 C775 1.403 . S
C776 C777 1.404 . S
C776 C779 1.539 . S
C777 C773 1.408 . S
C777 C776 1.404 . S
C777 H789 0.930 . S
C778 C774 1.524 . S
C778 H790 0.956 1_455 S
C778 H791 0.961 . S
C778 H792 0.961 . S
C779 C776 1.539 . S
C779 H793 0.958 1_455 S
C779 H794 0.961 . S
C779 H795 0.960 . S
H780 C764 0.931 . S
H781 C769 0.929 . S
H782 C770 0.960 . S
H783 C770 0.962 . S
H784 C770 0.960 . S
H785 C771 0.961 . S
H786 C771 0.961 . S
H787 C771 0.961 . S
H788 C772 0.931 . S
H789 C777 0.930 . S
H790 C778 0.956 1_655 S
H791 C778 0.961 . S
H792 C778 0.961 . S
H793 C779 0.958 1_655 S
H794 C779 0.961 . S
H795 C779 0.960 . S
C796 C797 1.391 . S
C796 C798 1.394 . S
C796 H812 0.931 . S
C797 C796 1.391 . S
C797 C801 1.376 . S
C798 C796 1.394 . S
C798 C799 1.369 . S
C798 C802 1.531 . S
C799 C798 1.369 . S
C799 C800 1.410 . S
C799 C807 1.503 1_544 S
C800 C799 1.410 . S
C800 C801 1.392 . S
C800 C803 1.511 1_545 S
C801 C797 1.376 . S
C801 C800 1.392 . S
C801 H813 0.929 . S
C802 C798 1.531 . S
C802 H814 0.960 1_554 S
C802 H815 0.962 . S
C802 H816 0.960 . S
C803 C800 1.511 1_565 S
C803 H817 0.961 . S
C803 H818 0.961 . S
C803 H819 0.966 . S
C804 C805 1.370 . S
C804 C806 1.363 . S
C804 H820 0.931 . S
C805 C804 1.370 . S
C805 C809 1.408 1_565 S
C806 C804 1.363 . S
C806 C807 1.370 . S
C806 C810 1.524 1_556 S
C807 C799 1.503 1_566 S
C807 C806 1.370 . S
C807 C808 1.403 1_565 S
C808 C807 1.403 1_545 S
C808 C809 1.404 . S
C808 C811 1.539 . S
C809 C805 1.408 1_545 S
C809 C808 1.404 . S
C809 H821 0.930 . S
C810 C806 1.524 1_554 S
C810 H822 0.956 . S
C810 H823 0.961 . S
C810 H824 0.961 1_554 S
C811 C808 1.539 . S
C811 H825 0.958 . S
C811 H826 0.961 . S
C811 H827 0.960 . S
H812 C796 0.931 . S
H813 C801 0.929 . S
H814 C802 0.960 1_556 S
H815 C802 0.962 . S
H816 C802 0.960 . S
H817 C803 0.961 . S
H818 C803 0.961 . S
H819 C803 0.966 . S
H820 C804 0.931 . S
H821 C809 0.930 . S
H822 C810 0.956 . S
H823 C810 0.961 . S
H824 C810 0.961 1_556 S
H825 C811 0.958 . S
H826 C811 0.961 . S
H827 C811 0.960 . S
C828 C829 1.391 . S
C828 C830 1.394 . S
C828 H844 0.931 . S
C829 C828 1.391 . S
C829 C833 1.376 . S
C830 C828 1.394 . S
C830 C831 1.369 . S
C830 C834 1.531 . S
C831 C830 1.369 . S
C831 C832 1.410 . S
C831 C839 1.503 . S
C832 C831 1.410 . S
C832 C833 1.392 . S
C832 C835 1.511 . S
C833 C829 1.376 . S
C833 C832 1.392 . S
C833 H845 0.929 . S
C834 C830 1.531 . S
C834 H846 0.960 . S
C834 H847 0.962 . S
C834 H848 0.960 . S
C835 C832 1.511 . S
C835 H849 0.961 . S
C835 H850 0.961 . S
C835 H851 0.961 . S
C836 C837 1.370 . S
C836 C838 1.363 . S
C836 H852 0.931 . S
C837 C836 1.370 . S
C837 C841 1.408 . S
C838 C836 1.363 . S
C838 C839 1.370 . S
C838 C842 1.524 . S
C839 C831 1.503 . S
C839 C838 1.370 . S
C839 C840 1.403 . S
C840 C839 1.403 . S
C840 C841 1.404 . S
C840 C843 1.539 . S
C841 C837 1.408 . S
C841 C840 1.404 . S
C841 H853 0.930 . S
C842 C838 1.524 . S
C842 H854 0.956 . S
C842 H855 0.961 . S
C842 H856 0.961 . S
C843 C840 1.539 . S
C843 H857 0.958 . S
C843 H858 0.961 . S
C843 H859 0.960 . S
H844 C828 0.931 . S
H845 C833 0.929 . S
H846 C834 0.960 . S
H847 C834 0.962 . S
H848 C834 0.960 . S
H849 C835 0.961 . S
H850 C835 0.961 . S
H851 C835 0.961 . S
H852 C836 0.931 . S
H853 C841 0.930 . S
H854 C842 0.956 . S
H855 C842 0.961 . S
H856 C842 0.961 . S
H857 C843 0.958 . S
H858 C843 0.961 . S
H859 C843 0.960 . S
C860 C861 1.391 . S
C860 C862 1.394 . S
C860 H876 0.931 . S
C861 C860 1.391 . S
C861 C865 1.376 1_455 S
C862 C860 1.394 . S
C862 C863 1.369 . S
C862 C866 1.531 . S
C863 C862 1.369 . S
C863 C864 1.410 1_455 S
C863 C871 1.503 1_455 S
C864 C863 1.410 1_655 S
C864 C865 1.392 . S
C864 C867 1.511 . S
C865 C861 1.376 1_655 S
C865 C864 1.392 . S
C865 H877 0.929 . S
C866 C862 1.531 . S
C866 H878 0.960 . S
C866 H879 0.962 . S
C866 H880 0.960 . S
C867 C864 1.511 . S
C867 H881 0.961 . S
C867 H882 0.961 . S
C867 H883 0.961 . S
C868 C869 1.370 . S
C868 C870 1.363 . S
C868 H884 0.931 . S
C869 C868 1.370 . S
C869 C873 1.408 . S
C870 C868 1.363 . S
C870 C871 1.370 . S
C870 C874 1.524 . S
C871 C863 1.503 1_655 S
C871 C870 1.370 . S
C871 C872 1.403 . S
C872 C871 1.403 . S
C872 C873 1.404 . S
C872 C875 1.539 1_655 S
C873 C869 1.408 . S
C873 C872 1.404 . S
C873 H885 0.930 . S
C874 C870 1.524 . S
C874 H886 0.956 1_655 S
C874 H887 0.961 . S
C874 H888 0.961 . S
C875 C872 1.539 1_455 S
C875 H889 0.958 . S
C875 H890 0.961 1_455 S
C875 H891 0.960 . S
H876 C860 0.931 . S
H877 C865 0.929 . S
H878 C866 0.960 . S
H879 C866 0.962 . S
H880 C866 0.960 . S
H881 C867 0.961 . S
H882 C867 0.961 . S
H883 C867 0.961 . S
H884 C868 0.931 . S
H885 C873 0.930 . S
H886 C874 0.956 1_455 S
H887 C874 0.961 . S
H888 C874 0.961 . S
H889 C875 0.958 . S
H890 C875 0.961 1_655 S
H891 C875 0.960 . S
C892 C893 1.391 1_545 S
C892 C894 1.394 . S
C892 H908 0.931 . S
C893 C892 1.391 1_565 S
C893 C897 1.376 . S
C894 C892 1.394 . S
C894 C895 1.369 1_545 S
C894 C898 1.531 . S
C895 C894 1.369 1_565 S
C895 C896 1.410 . S
C895 C903 1.503 1_564 S
C896 C895 1.410 . S
C896 C897 1.392 . S
C896 C899 1.511 . S
C897 C893 1.376 . S
C897 C896 1.392 . S
C897 H909 0.929 . S
C898 C894 1.531 . S
C898 H910 0.960 . S
C898 H911 0.962 . S
C898 H912 0.960 . S
C899 C896 1.511 . S
C899 H913 0.961 . S
C899 H914 0.961 1_554 S
C899 H915 0.961 . S
C900 C901 1.370 . S
C900 C902 1.363 1_545 S
C900 H916 0.931 1_545 S
C901 C900 1.370 . S
C901 C905 1.408 . S
C902 C900 1.363 1_565 S
C902 C903 1.370 1_565 S
C902 C906 1.524 . S
C903 C895 1.503 1_546 S
C903 C902 1.370 1_545 S
C903 C904 1.403 . S
C904 C903 1.403 . S
C904 C905 1.404 . S
C904 C907 1.539 . S
C905 C901 1.408 . S
C905 C904 1.404 . S
C905 H917 0.930 . S
C906 C902 1.524 . S
C906 H918 0.956 . S
C906 H919 0.961 . S
C906 H920 0.961 . S
C907 C904 1.539 . S
C907 H921 0.958 1_556 S
C907 H922 0.961 . S
C907 H923 0.960 1_556 S
H908 C892 0.931 . S
H909 C897 0.929 . S
H910 C898 0.960 . S
H911 C898 0.962 . S
H912 C898 0.960 . S
H913 C899 0.961 . S
H914 C899 0.961 1_556 S
H915 C899 0.961 . S
H916 C900 0.931 1_565 S
H917 C905 0.930 . S
H918 C906 0.956 . S
H919 C906 0.961 . S
H920 C906 0.961 . S
H921 C907 0.958 1_554 S
H922 C907 0.961 . S
H923 C907 0.960 1_554 S
C157 C148 1.772 . S
C165 C3 1.796 . S
C189 C16 1.783 . S
C197 C81 1.788 . S
C221 C31 1.797 . S
C229 C94 1.802 . S
C253 C44 1.794 . S
C261 C107 1.788 . S
C285 C122 1.809 . S
C293 C55 1.795 . S
C317 C68 1.795 . S
C325 C135 1.803 . S
C349 C43 1.445 . S
C357 C10 1.452 . S
C381 C62 1.436 . S
C389 C23 1.455 . S
C413 C75 1.445 . S
C421 C30 1.450 . S
C445 C88 1.456 . S
C453 C121 1.447 . S
C477 C101 1.451 . S
C485 C134 1.449 . S
C509 C114 1.443 . S
C517 C147 1.451 . S
C541 C109 0.556 . S
C549 C5 0.522 . S
C573 C18 0.532 . S
C581 C120 0.535 . S
C605 C133 0.553 . S
C613 C29 0.525 . S
C637 C146 0.501 . S
C645 C42 0.530 . S
C669 C83 0.532 . S
C677 C57 0.535 . S
C701 C70 0.542 . S
C709 C96 0.514 . S
C733 C127 1.660 . S
C741 C4 1.640 . S
C765 C17 1.643 . S
C773 C140 1.649 . S
C797 C153 1.661 . S
C805 C36 1.639 . S
C829 C49 1.654 . S
C837 C82 1.644 . S
C861 C56 1.648 . S
C869 C95 1.646 . S
C893 C108 1.626 . S
C901 C69 1.649 . S
