# Generated by pormake.
# Topology vby, (6)-cn, num edge types: 1
# Building blocks:
#     Node 0, Type 0, BuildingBlock: MIFKUJ_clean_sbu_0, # of connection points: 6
#     Node 1, Type 0, BuildingBlock: MIFKUJ_clean_sbu_0, # of connection points: 6
#     Node 2, Type 0, BuildingBlock: MIFKUJ_clean_sbu_0, # of connection points: 6
#     Node 3, Type 0, BuildingBlock: MIFKUJ_clean_sbu_0, # of connection points: 6
#     Node 4, Type 0, BuildingBlock: MIFKUJ_clean_sbu_0, # of connection points: 6
#     Node 5, Type 0, BuildingBlock: MIFKUJ_clean_sbu_0, # of connection points: 6
#     Node 6, Type 0, BuildingBlock: MIFKUJ_clean_sbu_0, # of connection points: 6
#     Node 7, Type 0, BuildingBlock: MIFKUJ_clean_sbu_0, # of connection points: 6
#     Edge 8, Type (0, 0), BuildingBlock: TEMPAE_clean_linker_10, # of connection points: 2
#     Edge 9, Type (0, 0), BuildingBlock: TEMPAE_clean_linker_10, # of connection points: 2
#     Edge 10, Type (0, 0), BuildingBlock: TEMPAE_clean_linker_10, # of connection points: 2
#     Edge 11, Type (0, 0), BuildingBlock: TEMPAE_clean_linker_10, # of connection points: 2
#     Edge 12, Type (0, 0), BuildingBlock: TEMPAE_clean_linker_10, # of connection points: 2
#     Edge 13, Type (0, 0), BuildingBlock: TEMPAE_clean_linker_10, # of connection points: 2
#     Edge 14, Type (0, 0), BuildingBlock: TEMPAE_clean_linker_10, # of connection points: 2
#     Edge 15, Type (0, 0), BuildingBlock: TEMPAE_clean_linker_10, # of connection points: 2
#     Edge 16, Type (0, 0), BuildingBlock: TEMPAE_clean_linker_10, # of connection points: 2
#     Edge 17, Type (0, 0), BuildingBlock: TEMPAE_clean_linker_10, # of connection points: 2
#     Edge 18, Type (0, 0), BuildingBlock: TEMPAE_clean_linker_10, # of connection points: 2
#     Edge 19, Type (0, 0), BuildingBlock: TEMPAE_clean_linker_10, # of connection points: 2
#     Edge 20, Type (0, 0), BuildingBlock: TEMPAE_clean_linker_10, # of connection points: 2
#     Edge 21, Type (0, 0), BuildingBlock: TEMPAE_clean_linker_10, # of connection points: 2
#     Edge 22, Type (0, 0), BuildingBlock: TEMPAE_clean_linker_10, # of connection points: 2
#     Edge 23, Type (0, 0), BuildingBlock: TEMPAE_clean_linker_10, # of connection points: 2
#     Edge 24, Type (0, 0), BuildingBlock: TEMPAE_clean_linker_10, # of connection points: 2
#     Edge 25, Type (0, 0), BuildingBlock: TEMPAE_clean_linker_10, # of connection points: 2
#     Edge 26, Type (0, 0), BuildingBlock: TEMPAE_clean_linker_10, # of connection points: 2
#     Edge 27, Type (0, 0), BuildingBlock: TEMPAE_clean_linker_10, # of connection points: 2
#     Edge 28, Type (0, 0), BuildingBlock: TEMPAE_clean_linker_10, # of connection points: 2
#     Edge 29, Type (0, 0), BuildingBlock: TEMPAE_clean_linker_10, # of connection points: 2
#     Edge 30, Type (0, 0), BuildingBlock: TEMPAE_clean_linker_10, # of connection points: 2
#     Edge 31, Type (0, 0), BuildingBlock: TEMPAE_clean_linker_10, # of connection points: 2
# Relax obj value: 0.108
# Max RMSD: 0.159
# Mean RMSD: 0.159
data_MOF--net-vby--node1-MIFKUJ_clean_sbu_0--edge1-TEMPAE_clean_linker_10
_symmetry_space_group_name_H-M    P1
_symmetry_Int_Tables_number       1
_symmetry_cell_setting            triclinic
loop_
_symmetry_equiv_pos_as_xyz
'x, y, z'
_cell_length_a     17.71434
_cell_length_b     73.129531
_cell_length_c     28.503317
_cell_angle_alpha  89.907157
_cell_angle_beta   89.793827
_cell_angle_gamma 90.038418
loop_
_atom_site_label
_atom_site_type_symbol
_atom_site_fract_x
_atom_site_fract_y
_atom_site_fract_z
_atom_type_partial_charge
Zn0 Zn 0.14644 0.35095 0.00041 0.0
Zn1 Zn 0.99669 0.39441 -0.004 0.0
C2 C 0.29744 0.35438 0.97231 0.0
O3 O 0.27051 0.34456 0.93762 0.0
C4 C 0.85617 0.37659 -0.00386 0.0
O5 O 0.90034 0.36287 0.0076 0.0
O6 O 0.15086 0.32344 0.0013 0.0
O7 O 0.09274 0.35863 0.0595 0.0
O8 O 0.01741 0.38288 0.05788 0.0
C9 C 0.18845 0.31565 0.03356 0.0
O10 O 0.22101 0.3258 0.06569 0.0
O11 O 0.25318 0.35935 0.00502 0.0
C12 C 0.98057 0.43109 0.02447 0.0
O13 O 0.93113 0.42308 0.05218 0.0
O14 O 0.02001 0.42127 -0.003 0.0
O15 O 0.03644 0.38285 0.93819 0.0
O16 O 0.11129 0.35859 0.93631 0.0
O17 O 0.88514 0.39222 0.9889 0.0
C18 C 0.04922 0.36994 0.07987 0.0
C19 C 0.07343 0.37091 0.91563 0.0
Zn20 Zn 0.8771 0.64788 0.00478 0.0
Zn21 Zn 0.01703 0.60594 0.01684 0.0
C22 C 0.72162 0.64226 0.98646 0.0
O23 O 0.74003 0.65338 0.95198 0.0
C24 C 0.17342 0.60549 0.00743 0.0
O25 O 0.15091 0.5929 0.97774 0.0
O26 O 0.8613 0.67497 -0.00401 0.0
O27 O 0.93816 0.64568 0.06425 0.0
O28 O 0.94055 0.61589 0.06109 0.0
C29 C 0.82459 0.68334 0.02777 0.0
O30 O 0.79975 0.67405 0.06418 0.0
O31 O 0.77292 0.63707 0.01462 0.0
C32 C 0.97491 0.56854 -0.00481 0.0
O33 O 0.93176 0.5763 0.96348 0.0
O34 O 0.01481 0.57854 0.02177 0.0
O35 O 0.99808 0.61347 0.95034 0.0
O36 O 0.92241 0.63776 0.9441 0.0
O37 O 0.1238 0.61391 0.03153 0.0
C38 C 0.95668 0.63052 0.08243 0.0
C39 C 0.96404 0.62543 0.92578 0.0
Zn40 Zn 0.1766 0.64215 0.50307 0.0
Zn41 Zn 0.02914 0.60021 0.51642 0.0
C42 C 0.32472 0.63909 0.54076 0.0
O43 O 0.29752 0.6522 0.56737 0.0
C44 C 0.88813 0.6207 0.51605 0.0
O45 O 0.92461 0.63112 0.48598 0.0
O46 O 0.19232 0.66922 0.49356 0.0
O47 O 0.1273 0.63211 0.44439 0.0
O48 O 0.04684 0.60863 0.4496 0.0
C49 C 0.2259 0.67588 0.45793 0.0
O50 O 0.24906 0.66483 0.42456 0.0
O51 O 0.28139 0.63161 0.51087 0.0
C52 C 0.99422 0.5635 0.54763 0.0
O53 O 0.94916 0.57246 0.57615 0.0
O54 O 0.03477 0.57247 0.51865 0.0
O55 O 0.10469 0.61034 0.56158 0.0
O56 O 0.11623 0.64012 0.56264 0.0
O57 O 0.92244 0.6073 0.53481 0.0
C58 C 0.08297 0.62051 0.42559 0.0
C59 C 0.09216 0.62553 0.58153 0.0
Zn60 Zn 0.8744 0.34476 0.49743 0.0
Zn61 Zn 0.02664 0.38945 0.51846 0.0
C62 C 0.71741 0.34499 0.51653 0.0
O63 O 0.73382 0.32898 0.53477 0.0
C64 C 0.18341 0.38999 0.50252 0.0
O65 O 0.15995 0.39809 0.46409 0.0
O66 O 0.87351 0.31826 0.47748 0.0
O67 O 0.93906 0.36084 0.45305 0.0
O68 O 0.01666 0.38476 0.44983 0.0
C69 C 0.82692 0.31197 0.44775 0.0
O70 O 0.78133 0.32333 0.42605 0.0
O71 O 0.76914 0.35437 0.49708 0.0
C72 C 0.03623 0.42572 0.55763 0.0
O73 O 0.09683 0.41871 0.57703 0.0
O74 O 0.99406 0.41543 0.53301 0.0
O75 O 0.96478 0.36934 0.54278 0.0
O76 O 0.90547 0.34535 0.56565 0.0
O77 O 0.13559 0.38529 0.53358 0.0
C78 C 0.98106 0.37181 0.42963 0.0
C79 C 0.94776 0.35866 0.57592 0.0
Zn80 Zn 0.64559 0.85124 0.96663 0.0
Zn81 Zn 0.49918 0.89246 0.95105 0.0
C82 C 0.79233 0.85593 0.92714 0.0
O83 O 0.76457 0.84356 0.8986 0.0
C84 C 0.35689 0.87268 0.94895 0.0
O85 O 0.39259 0.8617 0.97787 0.0
O86 O 0.663 0.82431 0.97693 0.0
O87 O 0.59313 0.86067 0.02536 0.0
O88 O 0.51306 0.884 0.0178 0.0
C89 C 0.71687 0.81861 0.00241 0.0
O90 O 0.76038 0.83057 0.02355 0.0
O91 O 0.74979 0.86241 0.95912 0.0
C92 C 0.45409 0.92954 0.96718 0.0
O93 O 0.39608 0.92123 0.98662 0.0
O94 O 0.50708 0.91995 0.94983 0.0
O95 O 0.57556 0.8826 0.9058 0.0
O96 O 0.58772 0.85279 0.90614 0.0
O97 O 0.39227 0.88621 0.93136 0.0
C98 C 0.54717 0.87222 0.04296 0.0
C99 C 0.56501 0.86728 0.8862 0.0
Zn100 Zn 0.34902 0.14669 0.98145 0.0
Zn101 Zn 0.49324 0.10463 0.97096 0.0
C102 C 0.19803 0.14437 0.94709 0.0
O103 O 0.2187 0.15992 0.92778 0.0
C104 C 0.64993 0.11064 0.98451 0.0
O105 O 0.62948 0.10559 0.02692 0.0
O106 O 0.33263 0.17371 -0.00894 0.0
O107 O 0.39484 0.13727 0.04209 0.0
O108 O 0.47472 0.11381 0.03652 0.0
C109 C 0.28381 0.17966 0.02005 0.0
O110 O 0.24429 0.1679 0.04495 0.0
O111 O 0.24596 0.13539 0.97103 0.0
C112 C 0.46172 0.06733 0.9397 0.0
O113 O 0.43744 0.07534 0.90134 0.0
O114 O 0.48669 0.0771 0.97309 0.0
O115 O 0.41887 0.11471 0.92532 0.0
O116 O 0.41279 0.14458 0.92311 0.0
O117 O 0.60027 0.11137 0.95244 0.0
C118 C 0.43907 0.12562 0.06073 0.0
C119 C 0.43489 0.12967 0.90505 0.0
Zn120 Zn 0.6591 0.14256 0.47975 0.0
Zn121 Zn 0.51269 0.10193 0.47689 0.0
C122 C 0.80482 0.12641 0.49789 0.0
O123 O 0.78556 0.12994 0.5415 0.0
C124 C 0.35588 0.09776 0.44626 0.0
O125 O 0.37995 0.08214 0.4292 0.0
O126 O 0.68483 0.16943 0.48202 0.0
O127 O 0.58744 0.14035 0.42509 0.0
O128 O 0.57632 0.11043 0.42285 0.0
C129 C 0.72089 0.17634 0.44761 0.0
O130 O 0.74052 0.1657 0.41252 0.0
O131 O 0.75792 0.12978 0.46532 0.0
C132 C 0.47928 0.06582 0.51054 0.0
O133 O 0.43258 0.07506 0.53744 0.0
O134 O 0.52078 0.07447 0.48154 0.0
O135 O 0.53916 0.11227 0.53981 0.0
O136 O 0.61964 0.13558 0.54428 0.0
O137 O 0.40277 0.10847 0.46591 0.0
C138 C 0.56406 0.12599 0.40478 0.0
C139 C 0.57569 0.12399 0.56359 0.0
Zn140 Zn 0.33084 0.8491 0.46567 0.0
Zn141 Zn 0.4772 0.89091 0.48317 0.0
C142 C 0.19004 0.86196 0.50805 0.0
O143 O 0.22172 0.8567 0.54742 0.0
C144 C 0.63744 0.89446 0.48745 0.0
O145 O 0.62058 0.90875 0.46153 0.0
O146 O 0.31055 0.8223 0.45444 0.0
O147 O 0.38711 0.85875 0.40807 0.0
O148 O 0.46556 0.88241 0.41657 0.0
C149 C 0.36003 0.81011 0.46241 0.0
O150 O 0.42703 0.81514 0.47725 0.0
O151 O 0.2272 0.86074 0.46987 0.0
C152 C 0.49104 0.92773 0.51901 0.0
O153 O 0.52318 0.91912 0.55414 0.0
O154 O 0.46617 0.91848 0.48459 0.0
O155 O 0.39893 0.8803 0.52601 0.0
O156 O 0.38538 0.85057 0.52769 0.0
O157 O 0.58425 0.88424 0.50233 0.0
C158 C 0.43324 0.87046 0.39108 0.0
C159 C 0.4093 0.86514 0.54656 0.0
C160 C 0.40843 0.36794 0.01339 0.0
C161 C 0.37866 0.35881 0.97437 0.0
C162 C 0.48598 0.37146 0.01676 0.0
C163 C 0.53465 0.36576 0.98016 0.0
C164 C 0.50483 0.35686 0.94027 0.0
C165 C 0.42709 0.35346 0.93788 0.0
C166 C 0.516 0.38095 0.05986 0.0
C167 C 0.5552 0.35067 0.90048 0.0
C168 C 0.72861 0.38741 0.97165 0.0
C169 C 0.77399 0.37387 -0.00801 0.0
C170 C 0.65049 0.38493 0.96735 0.0
C171 C 0.61716 0.3686 0.98424 0.0
C172 C 0.66259 0.35493 0.00504 0.0
C173 C 0.74063 0.35769 0.00845 0.0
C174 C 0.60368 0.39972 0.94459 0.0
C175 C 0.62874 0.33741 0.02382 0.0
H176 H 0.37129 0.37211 0.04171 0.0
H177 H 0.40443 0.34645 0.90756 0.0
H178 H 0.55579 0.37179 0.07854 0.0
H179 H 0.54796 0.39339 0.0496 0.0
H180 H 0.47031 0.38497 0.08457 0.0
H181 H 0.52269 0.34458 0.87113 0.0
H182 H 0.58841 0.3624 0.88675 0.0
H183 H 0.59604 0.34036 0.91345 0.0
H184 H 0.7542 0.39992 0.95871 0.0
H185 H 0.77542 0.34722 0.02442 0.0
H186 H 0.55999 0.40465 0.96951 0.0
H187 H 0.57377 0.39411 0.91365 0.0
H188 H 0.63842 0.41157 0.93307 0.0
H189 H 0.58573 0.34056 0.05101 0.0
H190 H 0.6719 0.32823 0.03939 0.0
H191 H 0.59966 0.32996 -0.00479 0.0
C192 C 0.27976 0.62519 0.03667 0.0
C193 C 0.25476 0.61019 0.01033 0.0
C194 C 0.35636 0.63032 0.03658 0.0
C195 C 0.40904 0.62017 0.00964 0.0
C196 C 0.38441 0.60467 0.98426 0.0
C197 C 0.30773 0.5999 0.98488 0.0
C198 C 0.3805 0.64692 0.0641 0.0
C199 C 0.43868 0.59344 0.95521 0.0
C200 C 0.58592 0.64331 0.96283 0.0
C201 C 0.64179 0.63662 -0.00688 0.0
C202 C 0.50992 0.63834 0.96849 0.0
C203 C 0.48897 0.62634 0.0053 0.0
C204 C 0.54488 0.61963 0.03629 0.0
C205 C 0.62066 0.62486 0.02986 0.0
C206 C 0.45212 0.64578 0.93462 0.0
C207 C 0.52474 0.60676 0.07586 0.0
H208 H 0.23927 0.63319 0.05651 0.0
H209 H 0.28917 0.5882 0.96465 0.0
H210 H 0.42853 0.64346 0.08734 0.0
H211 H 0.40027 0.65774 0.03961 0.0
H212 H 0.33389 0.65256 0.08586 0.0
H213 H 0.41141 0.58115 0.93987 0.0
H214 H 0.46175 0.60191 0.92618 0.0
H215 H 0.48709 0.58896 0.97696 0.0
H216 H 0.60148 0.65246 0.93446 0.0
H217 H 0.66337 0.61967 0.05353 0.0
H218 H 0.40648 0.65289 0.95411 0.0
H219 H 0.42566 0.63436 0.91506 0.0
H220 H 0.47717 0.6555 0.90891 0.0
H221 H 0.48045 0.61293 0.09841 0.0
H222 H 0.57426 0.60333 0.09799 0.0
H223 H 0.50117 0.5939 0.06138 0.0
C224 C 0.76717 0.63734 0.50071 0.0
C225 C 0.80617 0.62347 0.52451 0.0
C226 C 0.68873 0.63937 0.50568 0.0
C227 C 0.64808 0.62726 0.53527 0.0
C228 C 0.68724 0.61347 0.56018 0.0
C229 C 0.7658 0.61174 0.55452 0.0
C230 C 0.64915 0.6543 0.47862 0.0
C231 C 0.64599 0.60035 0.59221 0.0
C232 C 0.45387 0.64338 0.57451 0.0
C233 C 0.40646 0.63463 0.54218 0.0
C234 C 0.53237 0.64069 0.57358 0.0
C235 C 0.56443 0.62897 0.53945 0.0
C236 C 0.51673 0.61961 0.50771 0.0
C237 C 0.43834 0.62254 0.50948 0.0
C238 C 0.5812 0.65085 0.60818 0.0
C239 C 0.54872 0.60697 0.47085 0.0
H240 H 0.79774 0.64648 0.47746 0.0
H241 H 0.79538 0.60098 0.57311 0.0
H242 H 0.60735 0.64819 0.45435 0.0
H243 H 0.61767 0.66332 0.50307 0.0
H244 H 0.68907 0.66282 0.45784 0.0
H245 H 0.68495 0.59077 0.61026 0.0
H246 H 0.61365 0.60804 0.61911 0.0
H247 H 0.60471 0.59226 0.57168 0.0
H248 H 0.42987 0.65271 0.60004 0.0
H249 H 0.40226 0.61569 0.48437 0.0
H250 H 0.61795 0.66069 0.58916 0.0
H251 H 0.61871 0.64118 0.62695 0.0
H252 H 0.54726 0.6585 0.63446 0.0
H253 H 0.5845 0.61488 0.44605 0.0
H254 H 0.50387 0.59992 0.45058 0.0
H255 H 0.58527 0.59649 0.48742 0.0
C256 C 0.57864 0.33987 0.52064 0.0
C257 C 0.63968 0.35201 0.51827 0.0
C258 C 0.50424 0.34637 0.52026 0.0
C259 C 0.49107 0.36546 0.5187 0.0
C260 C 0.55265 0.37778 0.51795 0.0
C261 C 0.62639 0.37088 0.51709 0.0
C262 C 0.43985 0.33282 0.51999 0.0
C263 C 0.54063 0.39823 0.51739 0.0
C264 C 0.30703 0.38198 0.4669 0.0
C265 C 0.2631 0.38471 0.50722 0.0
C266 C 0.38136 0.37566 0.47023 0.0
C267 C 0.41292 0.37248 0.51504 0.0
C268 C 0.3695 0.37573 0.55598 0.0
C269 C 0.29448 0.38158 0.55155 0.0
C270 C 0.42545 0.37196 0.42577 0.0
C271 C 0.40212 0.37292 0.60432 0.0
H272 H 0.58902 0.32526 0.52136 0.0
H273 H 0.67373 0.38028 0.51581 0.0
H274 H 0.40095 0.33552 0.54975 0.0
H275 H 0.40681 0.33442 0.48723 0.0
H276 H 0.45976 0.31845 0.52239 0.0
H277 H 0.59446 0.40592 0.52064 0.0
H278 H 0.51295 0.40233 0.48417 0.0
H279 H 0.50253 0.40229 0.54655 0.0
H280 H 0.2825 0.38422 0.43257 0.0
H281 H 0.26046 0.38379 0.58274 0.0
H282 H 0.44321 0.35741 0.42483 0.0
H283 H 0.47748 0.3804 0.42498 0.0
H284 H 0.39219 0.37494 0.39369 0.0
H285 H 0.41745 0.35834 0.60928 0.0
H286 H 0.36201 0.37692 0.63254 0.0
H287 H 0.45465 0.38105 0.60816 0.0
C288 C 0.92074 0.85257 0.89106 0.0
C289 C 0.87411 0.86045 0.92545 0.0
C290 C 0.99932 0.85515 0.89156 0.0
C291 C 0.03233 0.86589 0.92733 0.0
C292 C 0.98539 0.87442 0.96118 0.0
C293 C 0.90688 0.87161 0.95983 0.0
C294 C 0.04726 0.84587 0.85474 0.0
C295 C 0.01835 0.88601 -0.00018 0.0
C296 C 0.23517 0.85601 0.96254 0.0
C297 C 0.27466 0.87036 0.94074 0.0
C298 C 0.15656 0.85433 0.95802 0.0
C299 C 0.11615 0.86729 0.93101 0.0
C300 C 0.15576 0.88159 0.90812 0.0
C301 C 0.23452 0.88296 0.91323 0.0
C302 C 0.11656 0.83881 0.98282 0.0
C303 C 0.11478 0.89564 0.87889 0.0
H304 H 0.89607 0.84397 0.86423 0.0
H305 H 0.87142 0.87777 0.98654 0.0
H306 H 0.08501 0.85595 0.8374 0.0
H307 H 0.08377 0.83545 0.87158 0.0
H308 H 0.01265 0.83904 0.82746 0.0
H309 H 0.97404 0.89264 0.02159 0.0
H310 H 0.05393 0.87739 0.02294 0.0
H311 H 0.05529 0.89679 0.98473 0.0
H312 H 0.26554 0.8462 0.98384 0.0
H313 H 0.26444 0.89409 0.89624 0.0
H314 H 0.08435 0.83054 0.95716 0.0
H315 H 0.07536 0.84437 0.0085 0.0
H316 H 0.15631 0.82967 0.00169 0.0
H317 H 0.08166 0.88878 0.85103 0.0
H318 H 0.154 0.90558 0.86216 0.0
H319 H 0.07422 0.90327 0.90121 0.0
C320 C 0.0972 0.12048 0.95519 0.0
C321 C 0.11793 0.13861 0.94561 0.0
C322 C 0.02082 0.11529 0.95708 0.0
C323 C 0.96395 0.12866 0.95043 0.0
C324 C 0.98469 0.1469 0.93975 0.0
C325 C 0.0614 0.1516 0.93694 0.0
C326 C 1.00096 0.09562 0.96753 0.0
C327 C 0.92594 0.16165 0.93349 0.0
C328 C 0.75949 0.11472 0.92938 0.0
C329 C 0.72966 0.11546 0.97497 0.0
C330 C 0.83603 0.1187 0.9208 0.0
C331 C 0.8831 0.12396 0.95856 0.0
C332 C 0.85273 0.12501 0.00449 0.0
C333 C 0.77671 0.12055 0.01218 0.0
C334 C 0.86673 0.11708 0.87152 0.0
C335 C 0.90041 0.13099 0.04556 0.0
H336 H 0.14071 0.11037 0.96158 0.0
H337 H 0.077 0.16567 0.92982 0.0
H338 H 0.97429 0.09464 0.00271 0.0
H339 H 0.95939 0.09049 0.94165 0.0
H340 H 0.05133 0.08658 0.96688 0.0
H341 H 0.95121 0.17494 0.9228 0.0
H342 H 0.88408 0.15751 0.90669 0.0
H343 H 0.8948 0.16365 0.96695 0.0
H344 H 0.72337 0.11067 0.90056 0.0
H345 H 0.75379 0.12128 0.04745 0.0
H346 H 0.91407 0.10716 0.87083 0.0
H347 H 0.88961 0.13044 0.85968 0.0
H348 H 0.82304 0.11256 0.84618 0.0
H349 H 0.94829 0.12141 0.05034 0.0
H350 H 0.86763 0.13156 0.07883 0.0
H351 H 0.92469 0.14472 0.03858 0.0
C352 C 0.2484 0.11938 0.46036 0.0
C353 C 0.27391 0.10193 0.44751 0.0
C354 C 0.17097 0.12307 0.46543 0.0
C355 C 0.11769 0.10891 0.45808 0.0
C356 C 0.14298 0.09139 0.44401 0.0
C357 C 0.22071 0.08814 0.4386 0.0
C358 C 0.14628 0.14201 0.47982 0.0
C359 C 0.0881 0.07588 0.43627 0.0
C360 C 0.93044 0.11409 0.52234 0.0
C361 C 0.88292 0.12049 0.48667 0.0
C362 C 0.00636 0.10982 0.51318 0.0
C363 C 0.03592 0.11224 0.46735 0.0
C364 C 0.98789 0.11837 0.43096 0.0
C365 C 0.91183 0.1223 0.44098 0.0
C366 C 0.05536 0.10305 0.55283 0.0
C367 C 0.01741 0.12131 0.38177 0.0
H368 H 0.28907 0.13013 0.46706 0.0
H369 H 0.23986 0.07459 0.42883 0.0
H370 H 0.10353 0.14732 0.45492 0.0
H371 H 0.11935 0.14147 0.51499 0.0
H372 H 0.19423 0.15179 0.48114 0.0
H373 H 0.11645 0.06332 0.42322 0.0
H374 H 0.05881 0.07258 0.46971 0.0
H375 H 0.04421 0.07999 0.41069 0.0
H376 H 0.90848 0.11257 0.55768 0.0
H377 H 0.87564 0.12736 0.41326 0.0
H378 H 0.10115 0.11304 0.55965 0.0
H379 H 0.08252 0.08993 0.543 0.0
H380 H 0.02285 0.10097 0.58582 0.0
H381 H 0.06156 0.13208 0.38198 0.0
H382 H 0.97221 0.12547 0.35704 0.0
H383 H 0.04416 0.10861 0.36848 0.0
C384 C 0.77296 0.90367 0.49163 0.0
C385 C 0.71766 0.89007 0.49678 0.0
C386 C 0.84994 0.89962 0.49672 0.0
C387 C 0.87243 0.88143 0.50629 0.0
C388 C 0.81675 0.8677 0.51267 0.0
C389 C 0.7399 0.87223 0.5083 0.0
C390 C 0.9073 0.91474 0.49066 0.0
C391 C 0.83845 0.8481 0.52233 0.0
C392 C 0.06903 0.86775 0.46539 0.0
C393 C 0.10965 0.86767 0.50755 0.0
C394 C 0.99174 0.872 0.46465 0.0
C395 C 0.95426 0.87663 0.50698 0.0
C396 C 0.99522 0.87689 0.54956 0.0
C397 C 0.07226 0.87225 0.5494 0.0
C398 C 0.94998 0.87135 0.41858 0.0
C399 C 0.95767 0.88209 0.59526 0.0
H400 H 0.7561 0.91754 0.48321 0.0
H401 H 0.69742 0.86165 0.51219 0.0
H402 H 0.94621 0.91504 0.52106 0.0
H403 H 0.94198 0.91214 0.45888 0.0
H404 H 0.8804 0.92838 0.4871 0.0
H405 H 0.78845 0.83923 0.52852 0.0
H406 H 0.87072 0.84259 0.49205 0.0
H407 H 0.87575 0.84732 0.55343 0.0
H408 H 0.09727 0.86408 0.43294 0.0
H409 H 0.10329 0.87226 0.5821 0.0
H410 H 0.92616 0.88501 0.41039 0.0
H411 H 0.90195 0.86165 0.4212 0.0
H412 H 0.9869 0.86708 0.38898 0.0
H413 H 0.93287 0.89598 0.59232 0.0
H414 H 0.99767 0.88194 0.62518 0.0
H415 H 0.91071 0.87251 0.6031 0.0
C416 C 0.93264 0.53723 0.97148 0.0
C417 C 0.97804 0.54838 -0.00028 0.0
C418 C 0.93509 0.51811 0.97559 0.0
C419 C 0.98422 0.50997 0.00867 0.0
C420 C 0.03054 0.52114 0.03705 0.0
C421 C 0.02684 0.54021 0.03228 0.0
C422 C 0.88472 0.50662 0.94477 0.0
C423 C 0.08375 0.51295 0.07263 0.0
C424 C 0.93681 0.46198 0.05016 0.0
C425 C 0.98513 0.4513 0.02239 0.0
C426 C 0.93656 0.48111 0.04639 0.0
C427 C 0.986 0.48976 0.01418 0.0
C428 C 0.03609 0.4791 0.98675 0.0
C429 C 0.03503 0.45998 -0.00884 0.0
C430 C 0.88237 0.49203 0.07627 0.0
C431 C 0.08988 0.48788 0.9522 0.0
H432 H 0.89486 0.54342 0.94621 0.0
H433 H 0.06233 0.54872 0.05417 0.0
H434 H 0.91933 0.49696 0.92383 0.0
H435 H 0.84597 0.49832 0.96685 0.0
H436 H 0.85044 0.51505 0.92039 0.0
H437 H 0.11701 0.52353 0.09138 0.0
H438 H 0.05136 0.50489 0.09886 0.0
H439 H 0.12344 0.50341 0.05505 0.0
H440 H 0.89808 0.4554 0.0744 0.0
H441 H 0.07259 0.45183 0.96959 0.0
H442 H 0.84286 0.49971 0.05345 0.0
H443 H 0.91377 0.50222 0.09739 0.0
H444 H 0.84886 0.48324 0.10042 0.0
H445 H 0.05755 0.49534 0.92495 0.0
H446 H 0.1269 0.47771 0.93462 0.0
H447 H 0.12593 0.49805 0.97033 0.0
C448 C 0.0708 0.45692 0.58644 0.0
C449 C 0.02297 0.44575 0.55972 0.0
C450 C 0.06405 0.47605 0.58544 0.0
C451 C 0.00813 0.48426 0.55702 0.0
C452 C 0.95828 0.47307 0.53096 0.0
C453 C 0.96621 0.45395 0.53267 0.0
C454 C 0.11801 0.48748 0.61399 0.0
C455 C 0.89779 0.48132 0.50034 0.0
C456 C 0.9546 0.5336 0.58299 0.0
C457 C 0.99727 0.54322 0.54945 0.0
C458 C 0.95703 0.51442 0.58558 0.0
C459 C 1.00313 0.50458 0.55381 0.0
C460 C 0.04591 0.51418 0.51963 0.0
C461 C 0.04256 0.53337 0.5179 0.0
C462 C 0.91076 0.50471 0.6226 0.0
C463 C 0.09569 0.50417 0.48508 0.0
H464 H 0.1147 0.45074 0.60757 0.0
H465 H 0.92905 0.44546 0.51185 0.0
H466 H 0.15269 0.49615 0.59029 0.0
H467 H 0.08612 0.49678 0.63751 0.0
H468 H 0.15646 0.47898 0.63566 0.0
H469 H 0.86165 0.47075 0.48375 0.0
H470 H 0.8614 0.49057 0.52133 0.0
H471 H 0.92429 0.48969 0.47226 0.0
H472 H 0.9194 0.54105 0.60755 0.0
H473 H 0.07557 0.54066 0.4918 0.0
H474 H 0.94849 0.4969 0.64627 0.0
H475 H 0.87215 0.49473 0.60588 0.0
H476 H 0.87666 0.51433 0.64408 0.0
H477 H 0.13952 0.49632 0.50417 0.0
H478 H 0.12412 0.5136 0.46003 0.0
H479 H 0.06167 0.49419 0.46486 0.0
C480 C 0.39558 0.96024 0.98086 0.0
C481 C 0.45637 0.94978 0.96419 0.0
C482 C 0.39598 0.97938 0.97725 0.0
C483 C 0.45878 0.98831 0.95659 0.0
C484 C 0.52059 0.97786 0.94002 0.0
C485 C 0.51862 0.95872 0.94396 0.0
C486 C 0.32896 0.99006 -0.0047 0.0
C487 C 0.58869 0.9869 0.91794 0.0
C488 C 0.43135 0.03627 0.90786 0.0
C489 C 0.46075 0.04712 0.94401 0.0
C490 C 0.43036 0.01712 0.91149 0.0
C491 C 0.45965 0.0086 0.95219 0.0
C492 C 0.48951 0.01946 0.98876 0.0
C493 C 0.48962 0.03858 0.98427 0.0
C494 C 0.39788 0.00599 0.8718 0.0
C495 C 0.52139 0.01088 0.03266 0.0
H496 H 0.3472 0.95346 -0.0035 0.0
H497 H 0.56588 0.95077 0.93102 0.0
H498 H 0.34742 -8e-05 0.02249 0.0
H499 H 0.30365 -0.0019 0.96632 0.0
H500 H 0.28471 0.98106 0.01063 0.0
H501 H 0.63244 0.97685 0.90725 0.0
H502 H 0.57134 0.99482 0.88655 0.0
H503 H 0.61423 0.99671 0.94297 0.0
H504 H 0.40892 0.04273 0.87664 0.0
H505 H 0.51258 0.04683 0.01237 0.0
H506 H 0.35021 -0.00247 0.88487 0.0
H507 H 0.44129 0.99648 0.85789 0.0
H508 H 0.37733 0.01469 0.84254 0.0
H509 H 0.47732 0.00259 0.05049 0.0
H510 H 0.54283 0.02124 0.05777 0.0
H511 H 0.56828 0.00149 0.02337 0.0
C512 C 0.42679 0.03596 0.53875 0.0
C513 C 0.48115 0.04557 0.51261 0.0
C514 C 0.42677 0.01676 0.54024 0.0
C515 C 0.48285 0.00695 0.51534 0.0
C516 C 0.53824 0.01656 0.48919 0.0
C517 C 0.53652 0.03576 0.48796 0.0
C518 C 0.36645 0.00699 0.56824 0.0
C519 C 0.59937 0.00658 0.46253 0.0
C520 C 0.52534 0.95815 0.55285 0.0
C521 C 0.48734 0.94797 0.51856 0.0
C522 C 0.52429 0.97734 0.55224 0.0
C523 C 0.48373 0.9866 0.51671 0.0
C524 C 0.44452 0.97641 0.4823 0.0
C525 C 0.44706 0.95722 0.48352 0.0
C526 C 0.56723 0.98772 0.58935 0.0
C527 C 0.40008 0.9858 0.44411 0.0
H528 H 0.3836 0.04342 0.55774 0.0
H529 H 0.57884 0.04308 0.46777 0.0
H530 H 0.33396 -0.00226 0.54501 0.0
H531 H 0.39285 -0.00162 0.59573 0.0
H532 H 0.32654 0.01663 0.58538 0.0
H533 H 0.63874 0.01608 0.44431 0.0
H534 H 0.63233 -0.00213 0.48691 0.0
H535 H 0.57368 -0.00261 0.43607 0.0
H536 H 0.55682 0.95113 0.57998 0.0
H537 H 0.41736 0.94947 0.45697 0.0
H538 H 0.52827 0.99678 0.60909 0.0
H539 H 0.61042 0.99659 0.57256 0.0
H540 H 0.59583 0.97848 0.61463 0.0
H541 H 0.35681 0.99489 0.45988 0.0
H542 H 0.37146 0.97591 0.42056 0.0
H543 H 0.43815 0.99453 0.42267 0.0
C544 C 0.24561 0.28723 0.0671 0.0
C545 C 0.19866 0.29553 0.03374 0.0
C546 C 0.25861 0.2683 0.06652 0.0
C547 C 0.2236 0.25739 0.03186 0.0
C548 C 0.17505 0.26563 -0.00138 0.0
C549 C 0.16327 0.28461 -0.0001 0.0
C550 C 0.31091 0.26002 0.10248 0.0
C551 C 0.13642 0.25443 0.96126 0.0
C552 C 0.31434 0.2121 -0.00076 0.0
C553 C 0.26936 0.19956 0.02403 0.0
C554 C 0.30028 0.23096 0.00173 0.0
C555 C 0.23956 0.23744 0.0295 0.0
C556 C 0.19413 0.22487 0.05478 0.0
C557 C 0.20969 0.20608 0.05183 0.0
C558 C 0.35025 0.24395 0.97445 0.0
C559 C 0.12875 0.23128 0.08464 0.0
H560 H 0.2732 0.29555 0.09339 0.0
H561 H 0.12677 0.2909 0.97406 0.0
H562 H 0.28139 0.24902 0.12215 0.0
H563 H 0.36006 0.25368 0.0846 0.0
H564 H 0.332 0.2703 0.12792 0.0
H565 H 0.09826 0.2628 0.93908 0.0
H566 H 0.17934 0.24791 0.9383 0.0
H567 H 0.10301 0.24328 0.97771 0.0
H568 H 0.36064 0.2072 0.97773 0.0
H569 H 0.17452 0.19649 0.07101 0.0
H570 H 0.37661 0.25394 -0.00137 0.0
H571 H 0.31591 0.25183 0.94901 0.0
H572 H 0.39571 0.23672 0.95496 0.0
H573 H 0.14905 0.24093 0.1118 0.0
H574 H 0.09911 0.21976 0.10232 0.0
H575 H 0.08753 0.23877 0.0626 0.0
C576 C 0.68393 0.78596 0.98565 0.0
C577 C 0.73214 0.79876 0.00669 0.0
C578 C 0.69855 0.76713 0.98867 0.0
C579 C 0.76307 0.76095 0.01317 0.0
C580 C 0.81193 0.77378 0.03451 0.0
C581 C 0.7958 0.79253 0.03109 0.0
C582 C 0.64495 0.75385 0.96564 0.0
C583 C 0.88139 0.76771 0.06084 0.0
C584 C 0.76525 0.71203 0.05803 0.0
C585 C 0.8092 0.7032 0.02387 0.0
C586 C 0.74976 0.73081 0.05494 0.0
C587 C 0.77911 0.74103 0.01682 0.0
C588 C 0.82361 0.73223 0.98223 0.0
C589 C 0.83803 0.71341 0.98611 0.0
C590 C 0.70185 0.7397 0.09243 0.0
C591 C 0.85602 0.74271 0.94113 0.0
H592 H 0.6346 0.79064 0.96673 0.0
H593 H 0.8335 0.80231 0.04733 0.0
H594 H 0.67567 0.74551 0.9393 0.0
H595 H 0.62164 0.74428 -0.00775 0.0
H596 H 0.59726 0.76087 0.94795 0.0
H597 H 0.91388 0.77942 0.07519 0.0
H598 H 0.86499 0.75857 0.09028 0.0
H599 H 0.91887 0.75973 0.03726 0.0
H600 H 0.7426 0.70427 0.08729 0.0
H601 H 0.87206 0.7067 0.95957 0.0
H602 H 0.65117 0.746 0.07636 0.0
H603 H 0.73408 0.75082 0.10965 0.0
H604 H 0.68313 0.72981 0.11973 0.0
H605 H 0.80979 0.74906 0.92064 0.0
H606 H 0.88973 0.73386 0.91734 0.0
H607 H 0.89262 0.75394 0.95393 0.0
C608 C 0.22755 0.70701 0.49432 0.0
C609 C 0.24252 0.69575 0.45557 0.0
C610 C 0.2461 0.72567 0.4936 0.0
C611 C 0.28002 0.73333 0.45303 0.0
C612 C 0.29407 0.72213 0.41347 0.0
C613 C 0.27539 0.70346 0.41526 0.0
C614 C 0.23048 0.73713 0.5366 0.0
C615 C 0.32961 0.72984 0.36946 0.0
C616 C 0.26979 0.78506 0.44099 0.0
C617 C 0.34102 0.79044 0.45743 0.0
C618 C 0.24978 0.7665 0.43831 0.0
C619 C 0.3021 0.75299 0.45259 0.0
C620 C 0.37459 0.7583 0.46833 0.0
C621 C 0.39322 0.77695 0.47046 0.0
C622 C 0.17209 0.76137 0.42109 0.0
C623 C 0.4319 0.7443 0.48397 0.0
H624 H 0.20233 0.70119 0.52567 0.0
H625 H 0.28696 0.69488 0.38511 0.0
H626 H 0.28413 0.74283 0.55025 0.0
H627 H 0.19373 0.74886 0.52733 0.0
H628 H 0.20269 0.72916 0.56504 0.0
H629 H 0.33449 0.71947 0.34118 0.0
H630 H 0.2957 0.7415 0.35626 0.0
H631 H 0.38681 0.73516 0.37741 0.0
H632 H 0.22914 0.79537 0.43066 0.0
H633 H 0.4484 0.78096 0.48316 0.0
H634 H 0.14003 0.75453 0.44965 0.0
H635 H 0.17659 0.7515 0.39169 0.0
H636 H 0.13941 0.77345 0.40903 0.0
H637 H 0.40978 0.73667 0.51476 0.0
H638 H 0.4867 0.75063 0.49365 0.0
H639 H 0.442 0.7342 0.45564 0.0
C640 C 0.86712 0.27981 0.46485 0.0
C641 C 0.81712 0.29193 0.44273 0.0
C642 C 0.85442 0.26086 0.46425 0.0
C643 C 0.78992 0.25384 0.44126 0.0
C644 C 0.74036 0.26594 0.41779 0.0
C645 C 0.75471 0.28483 0.41864 0.0
C646 C 0.90901 0.24838 0.48927 0.0
C647 C 0.67087 0.25899 0.39298 0.0
C648 C 0.78312 0.20337 0.40969 0.0
C649 C 0.7394 0.19612 0.44645 0.0
C650 C 0.80034 0.2221 0.40765 0.0
C651 C 0.77291 0.23391 0.44311 0.0
C652 C 0.7289 0.22668 0.48037 0.0
C653 C 0.71285 0.20788 0.48167 0.0
C654 C 0.84778 0.22927 0.36751 0.0
C655 C 0.69838 0.23885 0.51877 0.0
H656 H 0.91563 0.28516 0.48341 0.0
H657 H 0.71565 0.29407 0.40156 0.0
H658 H 0.87986 0.24143 0.51884 0.0
H659 H 0.92944 0.23758 0.46506 0.0
H660 H 0.95855 0.25589 0.50332 0.0
H661 H 0.63967 0.2701 0.37481 0.0
H662 H 0.6867 0.24845 0.3668 0.0
H663 H 0.63233 0.2524 0.41871 0.0
H664 H 0.80404 0.1944 0.38235 0.0
H665 H 0.67895 0.20241 0.51016 0.0
H666 H 0.89901 0.23611 0.38129 0.0
H667 H 0.81558 0.23966 0.34748 0.0
H668 H 0.86554 0.21826 0.34305 0.0
H669 H 0.74557 0.24586 0.53685 0.0
H670 H 0.66502 0.23111 0.54525 0.0
H671 H 0.66188 0.24961 0.50339 0.0
C672 C 0.07481 0.35534 0.15784 0.0
C673 C 0.03443 0.36802 0.13076 0.0
C674 C 0.06345 0.35413 0.20648 0.0
C675 C 0.01037 0.36582 0.22838 0.0
C676 C 0.96748 0.37814 0.20103 0.0
C677 C 0.98011 0.37911 0.15259 0.0
C678 C 0.11027 0.34084 0.23466 0.0
C679 C 0.9102 0.3908 0.22315 0.0
C680 C 0.94442 0.3572 0.35342 0.0
C681 C 0.9889 0.36974 0.37826 0.0
C682 C 0.95157 0.35548 0.30454 0.0
C683 C 1.00463 0.3665 0.28024 0.0
C684 C 0.05057 0.37891 0.30525 0.0
C685 C 0.04203 0.3804 0.35387 0.0
C686 C 0.9016 0.34214 0.27882 0.0
C687 C 0.10805 0.39084 0.28057 0.0
H688 H 0.11657 0.34664 0.14124 0.0
H689 H 0.94795 0.38881 0.13193 0.0
H690 H 0.1495 0.34852 0.25764 0.0
H691 H 0.07348 0.33245 0.25776 0.0
H692 H 0.14397 0.33157 0.21194 0.0
H693 H 0.87722 0.39849 0.19656 0.0
H694 H 0.87042 0.38294 0.24557 0.0
H695 H 0.93943 0.40078 0.24607 0.0
H696 H 0.90345 0.34887 0.37205 0.0
H697 H 0.07721 0.39001 0.37277 0.0
H698 H 0.93647 0.33268 0.25743 0.0
H699 H 0.86425 0.34967 0.25433 0.0
H700 H 0.86587 0.33394 0.30312 0.0
H701 H 0.14757 0.38227 0.25986 0.0
H702 H 0.14138 0.39926 0.30546 0.0
H703 H 0.07912 0.40014 0.25565 0.0
C704 C 0.02304 0.61412 0.14716 0.0
C705 C 0.98511 0.62972 0.13108 0.0
C706 C 0.04524 0.61254 0.19422 0.0
C707 C 0.02755 0.62675 0.22611 0.0
C708 C 0.99082 0.64273 0.20979 0.0
C709 C 0.97077 0.64411 0.16232 0.0
C710 C 0.08594 0.59549 0.21004 0.0
C711 C 0.96995 0.65805 0.24282 0.0
C712 C 1.00415 0.61436 0.35476 0.0
C713 C 0.07064 0.6214 0.37427 0.0
C714 C 0.98965 0.61598 0.30658 0.0
C715 C 0.04361 0.62451 0.277 0.0
C716 C 0.11168 0.63125 0.29627 0.0
C717 C 0.12404 0.62979 0.34478 0.0
C718 C 0.91577 0.60889 0.28749 0.0
C719 C 0.17119 0.6401 0.2657 0.0
H720 H 0.03485 0.60304 0.12297 0.0
H721 H 0.94117 0.65617 0.15009 0.0
H722 H 0.13817 0.59919 0.2292 0.0
H723 H 0.04957 0.58766 0.23467 0.0
H724 H 0.10122 0.58646 0.18017 0.0
H725 H 0.94389 0.66982 0.22427 0.0
H726 H 0.92948 0.65294 0.26961 0.0
H727 H 0.02068 0.66295 0.26172 0.0
H728 H 0.96235 0.60801 0.37739 0.0
H729 H 0.17577 0.63516 0.35961 0.0
H730 H 0.92654 0.59852 0.25993 0.0
H731 H 0.88398 0.62025 0.2709 0.0
H732 H 0.87977 0.60263 0.31518 0.0
H733 H 0.18766 0.6307 0.23693 0.0
H734 H 0.22254 0.64385 0.28579 0.0
H735 H 0.1481 0.65264 0.24919 0.0
C736 C 0.04043 0.61694 0.85544 0.0
C737 C 0.97565 0.6252 0.87431 0.0
C738 C 0.05422 0.617 0.807 0.0
C739 C 1.00116 0.62517 0.77645 0.0
C740 C 0.93468 0.63314 0.79511 0.0
C741 C 0.92311 0.63326 0.84394 0.0
C742 C 0.12652 0.60867 0.78862 0.0
C743 C 0.87612 0.64164 0.76351 0.0
C744 C 0.079 0.64106 0.65914 0.0
C745 C 0.06327 0.62601 0.63029 0.0
C746 C 0.05733 0.64115 0.70651 0.0
C747 C 0.01747 0.62601 0.72525 0.0
C748 C 0.99837 0.61115 0.69576 0.0
C749 C 0.02234 0.61124 0.64873 0.0
C750 C 0.07999 0.65711 0.73696 0.0
C751 C 0.95443 0.59495 0.71416 0.0
H752 H 0.08155 0.61079 0.87871 0.0
H753 H 0.87263 0.63951 0.85831 0.0
H754 H 0.11359 0.5977 0.76304 0.0
H755 H 0.16011 0.61922 0.76986 0.0
H756 H 0.16176 0.60279 0.81706 0.0
H757 H 0.82543 0.64624 0.78326 0.0
H758 H 0.9007 0.65357 0.74487 0.0
H759 H 0.85829 0.63167 0.73641 0.0
H760 H 0.11079 0.65252 0.64518 0.0
H761 H 0.0095 0.59968 0.62645 0.0
H762 H 0.11941 0.65237 0.76459 0.0
H763 H 0.02981 0.6629 0.75492 0.0
H764 H 0.10798 0.66817 0.71654 0.0
H765 H 0.9893 0.58728 0.73975 0.0
H766 H 0.93745 0.58545 0.68568 0.0
H767 H 0.90297 0.59963 0.73292 0.0
C768 C 0.95624 0.34833 0.6588 0.0
C769 C 0.97886 0.36059 0.6236 0.0
C770 C 0.98075 0.35043 0.70505 0.0
C771 C 0.02991 0.36501 0.71629 0.0
C772 C 0.05562 0.377 0.68059 0.0
C773 C 0.0289 0.37478 0.63466 0.0
C774 C 0.95145 0.33745 0.74223 0.0
C775 C 0.10889 0.39257 0.69104 0.0
C776 C 0.01024 0.38068 0.8418 0.0
C777 C 0.06779 0.37076 0.86393 0.0
C778 C 0.9996 0.37959 0.79329 0.0
C779 C 0.0483 0.36848 0.76615 0.0
C780 C 0.1091 0.35923 0.78779 0.0
C781 C 0.11778 0.36034 0.83663 0.0
C782 C 0.93379 0.38957 0.77147 0.0
C783 C 0.16324 0.34768 0.75959 0.0
H784 H 0.91758 0.33731 0.65052 0.0
H785 H 0.04618 0.38435 0.6077 0.0
H786 H 0.99914 0.33118 0.76154 0.0
H787 H 0.91687 0.34511 0.76812 0.0
H788 H 0.91624 0.32634 0.72726 0.0
H789 H 0.13735 0.39765 0.65875 0.0
H790 H 0.07664 0.40407 0.70665 0.0
H791 H 0.15263 0.38839 0.71667 0.0
H792 H 0.97148 0.38881 0.8626 0.0
H793 H 0.16307 0.35287 0.85345 0.0
H794 H 0.89278 0.37951 0.7574 0.0
H795 H 0.95342 0.39811 0.74164 0.0
H796 H 0.90396 0.39849 0.79702 0.0
H797 H 0.13353 0.33539 0.74626 0.0
H798 H 0.2124 0.34314 0.7807 0.0
H799 H 0.18413 0.35544 0.72865 0.0
C800 C 0.57051 0.85962 0.12368 0.0
C801 C 0.53126 0.87169 0.09418 0.0
C802 C 0.55523 0.85889 0.17206 0.0
C803 C 0.4992 0.87046 0.19144 0.0
C804 C 0.45921 0.88262 0.16191 0.0
C805 C 0.47578 0.88311 0.11373 0.0
C806 C 0.5993 0.84581 0.20248 0.0
C807 C 0.39893 0.89515 0.18122 0.0
C808 C 0.41185 0.85837 0.30967 0.0
C809 C 0.45044 0.87022 0.34 0.0
C810 C 0.42746 0.85821 0.26129 0.0
C811 C 0.48318 0.87012 0.24277 0.0
C812 C 0.52279 0.88198 0.27317 0.0
C813 C 0.50588 0.88192 0.32131 0.0
C814 C 0.38387 0.8454 0.22992 0.0
C815 C 0.58282 0.89484 0.25482 0.0
H816 H 0.61345 0.85072 0.10903 0.0
H817 H 0.44482 0.89244 0.09135 0.0
H818 H 0.63029 0.85351 0.22984 0.0
H819 H 0.56013 0.83633 0.22081 0.0
H820 H 0.64054 0.83761 0.18194 0.0
H821 H 0.37221 0.9036 0.15346 0.0
H822 H 0.35438 0.88699 0.199 0.0
H823 H 0.42366 0.9044 0.20788 0.0
H824 H 0.36896 0.84927 0.32364 0.0
H825 H 0.53639 0.89108 0.34432 0.0
H826 H 0.42337 0.83629 0.21076 0.0
H827 H 0.35239 0.85337 0.20324 0.0
H828 H 0.34311 0.83681 0.24986 0.0
H829 H 0.6274 0.887 0.23627 0.0
H830 H 0.60956 0.90294 0.28322 0.0
H831 H 0.55781 0.90444 0.22901 0.0
C832 C 0.40029 0.13506 0.14198 0.0
C833 C 0.45128 0.12606 0.11214 0.0
C834 C 0.41206 0.13555 0.19071 0.0
C835 C 0.47707 0.12715 0.20983 0.0
C836 C 0.52882 0.11813 0.17985 0.0
C837 C 0.5149 0.11754 0.13152 0.0
C838 C 0.35494 0.14499 0.22174 0.0
C839 C 0.5995 0.10925 0.19875 0.0
C840 C 0.5554 0.14205 0.32746 0.0
C841 C 0.53598 0.12715 0.3561 0.0
C842 C 0.53465 0.14249 0.28 0.0
C843 C 0.4921 0.12787 0.26109 0.0
C844 C 0.46914 0.11325 0.29048 0.0
C845 C 0.49213 0.11296 0.33753 0.0
C846 C 0.56125 0.15818 0.24964 0.0
C847 C 0.42234 0.09761 0.27189 0.0
H848 H 0.35073 0.14158 0.12732 0.0
H849 H 0.55479 0.11062 0.10881 0.0
H850 H 0.33345 0.1353 0.24867 0.0
H851 H 0.38209 0.15648 0.24063 0.0
H852 H 0.30631 0.15041 0.20155 0.0
H853 H 0.63474 0.1031 0.17058 0.0
H854 H 0.63395 0.11952 0.21771 0.0
H855 H 0.5843 0.09838 0.22428 0.0
H856 H 0.58945 0.15305 0.34162 0.0
H857 H 0.4763 0.10153 0.35974 0.0
H858 H 0.51291 0.16441 0.23089 0.0
H859 H 0.60114 0.15302 0.22264 0.0
H860 H 0.59008 0.16899 0.27029 0.0
H861 H 0.37271 0.1029 0.25252 0.0
H862 H 0.4022 0.0884 0.30034 0.0
H863 H 0.45647 0.08945 0.24682 0.0
C864 C 0.45277 0.14407 0.82634 0.0
C865 C 0.46763 0.1296 0.85727 0.0
C866 C 0.47706 0.14343 0.77949 0.0
C867 C 0.51861 0.12811 0.76346 0.0
C868 C 0.5373 0.11392 0.79521 0.0
C869 C 0.51083 0.11474 0.84167 0.0
C870 C 0.45496 0.15871 0.7466 0.0
C871 C 0.58305 0.09758 0.77976 0.0
C872 C 0.49892 0.1164 0.63459 0.0
C873 C 0.56365 0.1245 0.61505 0.0
C874 C 0.48429 0.11731 0.68286 0.0
C875 C 0.53631 0.12625 0.71263 0.0
C876 C 0.60287 0.13402 0.69342 0.0
C877 C 0.61541 0.13323 0.64471 0.0
C878 C 0.41206 0.10909 0.70182 0.0
C879 C 0.66036 0.14331 0.72425 0.0
H880 H 0.41931 0.15559 0.83821 0.0
H881 H 0.52344 0.10366 0.86569 0.0
H882 H 0.50546 0.16418 0.72825 0.0
H883 H 0.41619 0.15335 0.71938 0.0
H884 H 0.42638 0.17014 0.76517 0.0
H885 H 0.60018 0.08886 0.80984 0.0
H886 H 0.54935 0.08915 0.75521 0.0
H887 H 0.6345 0.1021 0.76067 0.0
H888 H 0.45844 0.1097 0.61193 0.0
H889 H 0.66587 0.13937 0.6299 0.0
H890 H 0.37734 0.1199 0.71861 0.0
H891 H 0.42502 0.09876 0.72917 0.0
H892 H 0.37792 0.10244 0.67402 0.0
H893 H 0.63501 0.15561 0.74069 0.0
H894 H 0.71151 0.14756 0.70435 0.0
H895 H 0.67763 0.13401 0.75308 0.0
C896 C 0.39684 0.85334 0.62844 0.0
C897 C 0.43279 0.86493 0.59615 0.0
C898 C 0.41614 0.8537 0.67616 0.0
C899 C 0.47446 0.86549 0.69153 0.0
C900 C 0.51199 0.87693 0.65876 0.0
C901 C 0.48977 0.87671 0.61157 0.0
C902 C 0.37338 0.84168 0.71022 0.0
C903 C 0.57597 0.8893 0.67343 0.0
C904 C 0.48773 0.87919 0.81985 0.0
C905 C 0.54053 0.86659 0.83681 0.0
C906 C 0.46429 0.87872 0.77285 0.0
C907 C 0.49663 0.86577 0.74182 0.0
C908 C 0.55074 0.85316 0.75874 0.0
C909 C 0.57109 0.85352 0.80625 0.0
C910 C 0.40477 0.89203 0.75648 0.0
C911 C 0.58816 0.8395 0.72649 0.0
H912 H 0.35211 0.84435 0.61658 0.0
H913 H 0.51785 0.88553 0.5865 0.0
H914 H 0.41259 0.83196 0.72741 0.0
H915 H 0.34779 0.85018 0.73829 0.0
H916 H 0.3279 0.83374 0.69285 0.0
H917 H 0.60118 0.89678 0.64325 0.0
H918 H 0.55545 0.89943 0.69942 0.0
H919 H 0.62085 0.88114 0.69068 0.0
H920 H 0.46395 0.88926 0.84354 0.0
H921 H 0.6126 0.84389 0.81923 0.0
H922 H 0.35723 0.8845 0.74015 0.0
H923 H 0.42875 0.90124 0.7293 0.0
H924 H 0.38223 0.90051 0.78563 0.0
H925 H 0.5451 0.83037 0.71082 0.0
H926 H 0.63051 0.83094 0.74496 0.0
H927 H 0.61668 0.84678 0.69717 0.0
loop_
_geom_bond_atom_site_label_1
_geom_bond_atom_site_label_2
_geom_bond_distance
_geom_bond_site_symmetry_2
_ccdc_geom_bond_type
Zn0 O6 1.969 . S
Zn0 O7 1.965 1_556 S
Zn0 O11 2.024 1_556 S
Zn0 O16 1.969 . S
Zn1 O8 1.969 1_655 S
Zn1 O14 1.969 . S
Zn1 O15 1.965 1_654 S
Zn1 O17 2.024 1_554 S
C2 O3 1.229 . S
C2 O11 1.058 1_556 S
O3 C2 1.229 . S
C4 O5 1.229 . S
C4 O17 1.058 1_554 S
O5 C4 1.229 . S
O6 Zn0 1.969 . S
O6 C9 1.267 1_556 S
O7 Zn0 1.965 1_554 S
O7 C18 1.260 . S
O8 Zn1 1.969 1_455 S
O8 C18 1.258 . S
C9 O6 1.267 1_554 S
C9 O10 1.228 . S
O10 C9 1.228 . S
O11 Zn0 2.024 1_554 S
O11 C2 1.058 1_554 S
C12 O13 1.228 . S
C12 O14 1.267 1_556 S
O13 C12 1.228 . S
O14 Zn1 1.969 . S
O14 C12 1.267 1_554 S
O15 Zn1 1.965 1_456 S
O15 C19 1.260 . S
O16 Zn0 1.969 . S
O16 C19 1.258 . S
O17 Zn1 2.024 1_556 S
O17 C4 1.058 1_556 S
C18 O7 1.260 . S
C18 O8 1.258 . S
C19 O15 1.260 . S
C19 O16 1.258 . S
Zn20 O26 1.969 . S
Zn20 O27 1.965 1_556 S
Zn20 O31 2.024 1_556 S
Zn20 O36 1.969 . S
Zn21 O28 1.969 1_455 S
Zn21 O34 1.969 . S
Zn21 O35 1.965 1_454 S
Zn21 O37 2.024 1_554 S
C22 O23 1.229 . S
C22 O31 1.058 1_556 S
O23 C22 1.229 . S
C24 O25 1.229 . S
C24 O37 1.058 1_554 S
O25 C24 1.229 . S
O26 Zn20 1.969 . S
O26 C29 1.267 1_556 S
O27 Zn20 1.965 1_554 S
O27 C38 1.260 . S
O28 Zn21 1.969 1_655 S
O28 C38 1.258 . S
C29 O26 1.267 1_554 S
C29 O30 1.228 . S
O30 C29 1.228 . S
O31 Zn20 2.024 1_554 S
O31 C22 1.058 1_554 S
C32 O33 1.228 . S
C32 O34 1.267 1_556 S
O33 C32 1.228 . S
O34 Zn21 1.969 . S
O34 C32 1.267 1_554 S
O35 Zn21 1.965 1_656 S
O35 C39 1.260 . S
O36 Zn20 1.969 . S
O36 C39 1.258 . S
O37 Zn21 2.024 1_556 S
O37 C24 1.058 1_556 S
C38 O27 1.260 . S
C38 O28 1.258 . S
C39 O35 1.260 . S
C39 O36 1.258 . S
Zn40 O46 1.969 . S
Zn40 O47 1.965 . S
Zn40 O51 2.024 . S
Zn40 O56 1.969 . S
Zn41 O48 1.969 1_655 S
Zn41 O54 1.969 . S
Zn41 O55 1.965 1_655 S
Zn41 O57 2.024 . S
C42 O43 1.229 . S
C42 O51 1.058 . S
O43 C42 1.229 . S
C44 O45 1.229 . S
C44 O57 1.058 . S
O45 C44 1.229 . S
O46 Zn40 1.969 . S
O46 C49 1.267 . S
O47 Zn40 1.965 . S
O47 C58 1.260 . S
O48 Zn41 1.969 1_455 S
O48 C58 1.258 . S
C49 O46 1.267 . S
C49 O50 1.228 . S
O50 C49 1.228 . S
O51 Zn40 2.024 . S
O51 C42 1.058 . S
C52 O53 1.228 . S
C52 O54 1.267 . S
O53 C52 1.228 . S
O54 Zn41 1.969 . S
O54 C52 1.267 . S
O55 Zn41 1.965 1_455 S
O55 C59 1.260 . S
O56 Zn40 1.969 . S
O56 C59 1.258 . S
O57 Zn41 2.024 . S
O57 C44 1.058 . S
C58 O47 1.260 . S
C58 O48 1.258 . S
C59 O55 1.260 . S
C59 O56 1.258 . S
Zn60 O66 1.969 . S
Zn60 O67 1.965 . S
Zn60 O71 2.024 . S
Zn60 O76 1.969 . S
Zn61 O68 1.969 1_455 S
Zn61 O74 1.969 . S
Zn61 O75 1.965 1_455 S
Zn61 O77 2.024 . S
C62 O63 1.229 . S
C62 O71 1.058 . S
O63 C62 1.229 . S
C64 O65 1.229 . S
C64 O77 1.058 . S
O65 C64 1.229 . S
O66 Zn60 1.969 . S
O66 C69 1.267 . S
O67 Zn60 1.965 . S
O67 C78 1.260 . S
O68 Zn61 1.969 1_655 S
O68 C78 1.258 . S
C69 O66 1.267 . S
C69 O70 1.228 . S
O70 C69 1.228 . S
O71 Zn60 2.024 . S
O71 C62 1.058 . S
C72 O73 1.228 . S
C72 O74 1.267 . S
O73 C72 1.228 . S
O74 Zn61 1.969 . S
O74 C72 1.267 . S
O75 Zn61 1.965 1_655 S
O75 C79 1.260 . S
O76 Zn60 1.969 . S
O76 C79 1.258 . S
O77 Zn61 2.024 . S
O77 C64 1.058 . S
C78 O67 1.260 . S
C78 O68 1.258 . S
C79 O75 1.260 . S
C79 O76 1.258 . S
Zn80 O86 1.969 . S
Zn80 O87 1.965 1_556 S
Zn80 O91 2.024 1_556 S
Zn80 O96 1.969 . S
Zn81 O88 1.969 . S
Zn81 O94 1.969 . S
Zn81 O95 1.965 1_554 S
Zn81 O97 2.024 1_554 S
C82 O83 1.229 . S
C82 O91 1.058 1_556 S
O83 C82 1.229 . S
C84 O85 1.229 . S
C84 O97 1.058 1_554 S
O85 C84 1.229 . S
O86 Zn80 1.969 . S
O86 C89 1.267 1_556 S
O87 Zn80 1.965 1_554 S
O87 C98 1.260 . S
O88 Zn81 1.969 . S
O88 C98 1.258 . S
C89 O86 1.267 1_554 S
C89 O90 1.228 . S
O90 C89 1.228 . S
O91 Zn80 2.024 1_554 S
O91 C82 1.058 1_554 S
C92 O93 1.228 . S
C92 O94 1.267 1_556 S
O93 C92 1.228 . S
O94 Zn81 1.969 . S
O94 C92 1.267 1_554 S
O95 Zn81 1.965 1_556 S
O95 C99 1.260 . S
O96 Zn80 1.969 . S
O96 C99 1.258 . S
O97 Zn81 2.024 1_556 S
O97 C84 1.058 1_556 S
C98 O87 1.260 . S
C98 O88 1.258 . S
C99 O95 1.260 . S
C99 O96 1.258 . S
Zn100 O106 1.969 . S
Zn100 O107 1.965 1_556 S
Zn100 O111 2.024 1_556 S
Zn100 O116 1.969 . S
Zn101 O108 1.969 . S
Zn101 O114 1.969 . S
Zn101 O115 1.965 1_554 S
Zn101 O117 2.024 1_554 S
C102 O103 1.229 . S
C102 O111 1.058 1_556 S
O103 C102 1.229 . S
C104 O105 1.229 . S
C104 O117 1.058 1_554 S
O105 C104 1.229 . S
O106 Zn100 1.969 . S
O106 C109 1.267 1_556 S
O107 Zn100 1.965 1_554 S
O107 C118 1.260 . S
O108 Zn101 1.969 . S
O108 C118 1.258 . S
C109 O106 1.267 1_554 S
C109 O110 1.228 . S
O110 C109 1.228 . S
O111 Zn100 2.024 1_554 S
O111 C102 1.058 1_554 S
C112 O113 1.228 . S
C112 O114 1.267 1_556 S
O113 C112 1.228 . S
O114 Zn101 1.969 . S
O114 C112 1.267 1_554 S
O115 Zn101 1.965 1_556 S
O115 C119 1.260 . S
O116 Zn100 1.969 . S
O116 C119 1.258 . S
O117 Zn101 2.024 1_556 S
O117 C104 1.058 1_556 S
C118 O107 1.260 . S
C118 O108 1.258 . S
C119 O115 1.260 . S
C119 O116 1.258 . S
Zn120 O126 1.969 . S
Zn120 O127 1.965 . S
Zn120 O131 2.024 . S
Zn120 O136 1.969 . S
Zn121 O128 1.969 . S
Zn121 O134 1.969 . S
Zn121 O135 1.965 . S
Zn121 O137 2.024 . S
C122 O123 1.229 . S
C122 O131 1.058 . S
O123 C122 1.229 . S
C124 O125 1.229 . S
C124 O137 1.058 . S
O125 C124 1.229 . S
O126 Zn120 1.969 . S
O126 C129 1.267 . S
O127 Zn120 1.965 . S
O127 C138 1.260 . S
O128 Zn121 1.969 . S
O128 C138 1.258 . S
C129 O126 1.267 . S
C129 O130 1.228 . S
O130 C129 1.228 . S
O131 Zn120 2.024 . S
O131 C122 1.058 . S
C132 O133 1.228 . S
C132 O134 1.267 . S
O133 C132 1.228 . S
O134 Zn121 1.969 . S
O134 C132 1.267 . S
O135 Zn121 1.965 . S
O135 C139 1.260 . S
O136 Zn120 1.969 . S
O136 C139 1.258 . S
O137 Zn121 2.024 . S
O137 C124 1.058 . S
C138 O127 1.260 . S
C138 O128 1.258 . S
C139 O135 1.260 . S
C139 O136 1.258 . S
Zn140 O146 1.969 . S
Zn140 O147 1.965 . S
Zn140 O151 2.024 . S
Zn140 O156 1.969 . S
Zn141 O148 1.969 . S
Zn141 O154 1.969 . S
Zn141 O155 1.965 . S
Zn141 O157 2.024 . S
C142 O143 1.229 . S
C142 O151 1.058 . S
O143 C142 1.229 . S
C144 O145 1.229 . S
C144 O157 1.058 . S
O145 C144 1.229 . S
O146 Zn140 1.969 . S
O146 C149 1.267 . S
O147 Zn140 1.965 . S
O147 C158 1.260 . S
O148 Zn141 1.969 . S
O148 C158 1.258 . S
C149 O146 1.267 . S
C149 O150 1.228 . S
O150 C149 1.228 . S
O151 Zn140 2.024 . S
O151 C142 1.058 . S
C152 O153 1.228 . S
C152 O154 1.267 . S
O153 C152 1.228 . S
O154 Zn141 1.969 . S
O154 C152 1.267 . S
O155 Zn141 1.965 . S
O155 C159 1.260 . S
O156 Zn140 1.969 . S
O156 C159 1.258 . S
O157 Zn141 2.024 . S
O157 C144 1.058 . S
C158 O147 1.260 . S
C158 O148 1.258 . S
C159 O155 1.260 . S
C159 O156 1.258 . S
C160 C161 1.391 . S
C160 C162 1.394 . S
C160 H176 0.931 . S
C161 C160 1.391 . S
C161 C165 1.376 1_554 S
C162 C160 1.394 . S
C162 C163 1.369 . S
C162 C166 1.531 . S
C163 C162 1.369 . S
C163 C164 1.410 1_554 S
C163 C171 1.503 . S
C164 C163 1.410 1_556 S
C164 C165 1.392 . S
C164 C167 1.511 . S
C165 C161 1.376 1_556 S
C165 C164 1.392 . S
C165 H177 0.929 . S
C166 C162 1.531 . S
C166 H178 0.960 . S
C166 H179 0.962 . S
C166 H180 0.960 . S
C167 C164 1.511 . S
C167 H181 0.961 . S
C167 H182 0.961 . S
C167 H183 0.961 . S
C168 C169 1.370 1_556 S
C168 C170 1.363 . S
C168 H184 0.931 . S
C169 C168 1.370 1_554 S
C169 C173 1.408 . S
C170 C168 1.363 . S
C170 C171 1.370 1_556 S
C170 C174 1.524 . S
C171 C163 1.503 . S
C171 C170 1.370 1_554 S
C171 C172 1.403 . S
C172 C171 1.403 . S
C172 C173 1.404 . S
C172 C175 1.539 . S
C173 C169 1.408 . S
C173 C172 1.404 . S
C173 H185 0.930 . S
C174 C170 1.524 . S
C174 H186 0.956 . S
C174 H187 0.961 . S
C174 H188 0.961 . S
C175 C172 1.539 . S
C175 H189 0.958 . S
C175 H190 0.961 . S
C175 H191 0.960 . S
H176 C160 0.931 . S
H177 C165 0.929 . S
H178 C166 0.960 . S
H179 C166 0.962 . S
H180 C166 0.960 . S
H181 C167 0.961 . S
H182 C167 0.961 . S
H183 C167 0.961 . S
H184 C168 0.931 . S
H185 C173 0.930 . S
H186 C174 0.956 . S
H187 C174 0.961 . S
H188 C174 0.961 . S
H189 C175 0.958 . S
H190 C175 0.961 . S
H191 C175 0.960 . S
C192 C193 1.391 . S
C192 C194 1.394 . S
C192 H208 0.931 . S
C193 C192 1.391 . S
C193 C197 1.376 . S
C194 C192 1.394 . S
C194 C195 1.369 . S
C194 C198 1.531 . S
C195 C194 1.369 . S
C195 C196 1.410 . S
C195 C203 1.503 . S
C196 C195 1.410 . S
C196 C197 1.392 . S
C196 C199 1.511 . S
C197 C193 1.376 . S
C197 C196 1.392 . S
C197 H209 0.931 . S
C198 C194 1.531 . S
C198 H210 0.960 . S
C198 H211 0.962 1_554 S
C198 H212 0.960 . S
C199 C196 1.511 . S
C199 H213 0.961 1_554 S
C199 H214 0.961 1_554 S
C199 H215 0.961 . S
C200 C201 1.375 . S
C200 C202 1.363 . S
C200 H216 0.931 . S
C201 C200 1.375 . S
C201 C205 1.403 1_556 S
C202 C200 1.363 . S
C202 C203 1.370 1_556 S
C202 C206 1.524 . S
C203 C195 1.503 . S
C203 C202 1.370 1_554 S
C203 C204 1.403 . S
C204 C203 1.403 . S
C204 C205 1.404 . S
C204 C207 1.539 . S
C205 C201 1.403 1_554 S
C205 C204 1.404 . S
C205 H217 0.930 . S
C206 C202 1.524 . S
C206 H218 0.956 . S
C206 H219 0.961 . S
C206 H220 0.961 . S
C207 C204 1.539 . S
C207 H221 0.958 . S
C207 H222 0.961 . S
C207 H223 0.960 . S
H208 C192 0.931 . S
H209 C197 0.931 . S
H210 C198 0.960 . S
H211 C198 0.962 1_556 S
H212 C198 0.960 . S
H213 C199 0.961 1_556 S
H214 C199 0.961 1_556 S
H215 C199 0.961 . S
H216 C200 0.931 . S
H217 C205 0.930 . S
H218 C206 0.956 . S
H219 C206 0.961 . S
H220 C206 0.961 . S
H221 C207 0.958 . S
H222 C207 0.961 . S
H223 C207 0.960 . S
C224 C225 1.391 . S
C224 C226 1.394 . S
C224 H240 0.931 . S
C225 C224 1.391 . S
C225 C229 1.376 . S
C226 C224 1.394 . S
C226 C227 1.369 . S
C226 C230 1.531 . S
C227 C226 1.369 . S
C227 C228 1.410 . S
C227 C235 1.503 . S
C228 C227 1.410 . S
C228 C229 1.392 . S
C228 C231 1.511 . S
C229 C225 1.376 . S
C229 C228 1.392 . S
C229 H241 0.929 . S
C230 C226 1.531 . S
C230 H242 0.960 . S
C230 H243 0.962 . S
C230 H244 0.960 . S
C231 C228 1.511 . S
C231 H245 0.961 . S
C231 H246 0.961 . S
C231 H247 0.961 . S
C232 C233 1.370 . S
C232 C234 1.363 . S
C232 H248 0.931 . S
C233 C232 1.370 . S
C233 C237 1.408 . S
C234 C232 1.363 . S
C234 C235 1.370 . S
C234 C238 1.524 . S
C235 C227 1.503 . S
C235 C234 1.370 . S
C235 C236 1.403 . S
C236 C235 1.403 . S
C236 C237 1.404 . S
C236 C239 1.539 . S
C237 C233 1.408 . S
C237 C236 1.404 . S
C237 H249 0.930 . S
C238 C234 1.524 . S
C238 H250 0.956 . S
C238 H251 0.961 . S
C238 H252 0.961 . S
C239 C236 1.539 . S
C239 H253 0.958 . S
C239 H254 0.961 . S
C239 H255 0.960 . S
H240 C224 0.931 . S
H241 C229 0.929 . S
H242 C230 0.960 . S
H243 C230 0.962 . S
H244 C230 0.960 . S
H245 C231 0.961 . S
H246 C231 0.961 . S
H247 C231 0.961 . S
H248 C232 0.931 . S
H249 C237 0.930 . S
H250 C238 0.956 . S
H251 C238 0.961 . S
H252 C238 0.961 . S
H253 C239 0.958 . S
H254 C239 0.961 . S
H255 C239 0.960 . S
C256 C257 1.391 . S
C256 C258 1.394 . S
C256 H272 0.931 . S
C257 C256 1.391 . S
C257 C261 1.376 . S
C258 C256 1.394 . S
C258 C259 1.369 . S
C258 C262 1.531 . S
C259 C258 1.369 . S
C259 C260 1.410 . S
C259 C267 1.503 . S
C260 C259 1.410 . S
C260 C261 1.392 . S
C260 C263 1.511 . S
C261 C257 1.376 . S
C261 C260 1.392 . S
C261 H273 0.929 . S
C262 C258 1.531 . S
C262 H274 0.960 . S
C262 H275 0.962 . S
C262 H276 0.960 . S
C263 C260 1.511 . S
C263 H277 0.961 . S
C263 H278 0.961 . S
C263 H279 0.961 . S
C264 C265 1.370 . S
C264 C266 1.363 . S
C264 H280 0.931 . S
C265 C264 1.370 . S
C265 C269 1.408 . S
C266 C264 1.363 . S
C266 C267 1.370 . S
C266 C270 1.524 . S
C267 C259 1.503 . S
C267 C266 1.370 . S
C267 C268 1.403 . S
C268 C267 1.403 . S
C268 C269 1.404 . S
C268 C271 1.539 . S
C269 C265 1.408 . S
C269 C268 1.404 . S
C269 H281 0.930 . S
C270 C266 1.524 . S
C270 H282 0.956 . S
C270 H283 0.961 . S
C270 H284 0.961 . S
C271 C268 1.539 . S
C271 H285 0.958 . S
C271 H286 0.961 . S
C271 H287 0.960 . S
H272 C256 0.931 . S
H273 C261 0.929 . S
H274 C262 0.960 . S
H275 C262 0.962 . S
H276 C262 0.960 . S
H277 C263 0.961 . S
H278 C263 0.961 . S
H279 C263 0.961 . S
H280 C264 0.931 . S
H281 C269 0.930 . S
H282 C270 0.956 . S
H283 C270 0.961 . S
H284 C270 0.961 . S
H285 C271 0.958 . S
H286 C271 0.961 . S
H287 C271 0.960 . S
C288 C289 1.391 . S
C288 C290 1.394 . S
C288 H304 0.931 . S
C289 C288 1.391 . S
C289 C293 1.376 1_556 S
C290 C288 1.394 . S
C290 C291 1.369 1_655 S
C290 C294 1.531 1_655 S
C291 C290 1.369 1_455 S
C291 C292 1.410 1_456 S
C291 C299 1.503 . S
C292 C291 1.410 1_654 S
C292 C293 1.392 . S
C292 C295 1.511 1_655 S
C293 C289 1.376 1_554 S
C293 C292 1.392 . S
C293 H305 0.929 . S
C294 C290 1.531 1_455 S
C294 H306 0.960 . S
C294 H307 0.962 . S
C294 H308 0.960 1_455 S
C295 C292 1.511 1_455 S
C295 H309 0.961 1_455 S
C295 H310 0.961 . S
C295 H311 0.961 . S
C296 C297 1.370 . S
C296 C298 1.363 . S
C296 H312 0.931 . S
C297 C296 1.370 . S
C297 C301 1.408 1_554 S
C298 C296 1.363 . S
C298 C299 1.370 1_554 S
C298 C302 1.524 . S
C299 C291 1.503 . S
C299 C298 1.370 1_556 S
C299 C300 1.403 . S
C300 C299 1.403 . S
C300 C301 1.404 . S
C300 C303 1.539 . S
C301 C297 1.408 1_556 S
C301 C300 1.404 . S
C301 H313 0.930 . S
C302 C298 1.524 . S
C302 H314 0.956 . S
C302 H315 0.961 . S
C302 H316 0.961 . S
C303 C300 1.539 . S
C303 H317 0.958 . S
C303 H318 0.961 . S
C303 H319 0.960 . S
H304 C288 0.931 . S
H305 C293 0.929 . S
H306 C294 0.960 . S
H307 C294 0.962 . S
H308 C294 0.960 1_655 S
H309 C295 0.961 1_655 S
H310 C295 0.961 . S
H311 C295 0.961 . S
H312 C296 0.931 . S
H313 C301 0.930 . S
H314 C302 0.956 . S
H315 C302 0.961 . S
H316 C302 0.961 . S
H317 C303 0.958 . S
H318 C303 0.961 . S
H319 C303 0.960 . S
C320 C321 1.391 1_556 S
C320 C322 1.394 . S
C320 H336 0.931 . S
C321 C320 1.391 1_554 S
C321 C325 1.376 . S
C322 C320 1.394 . S
C322 C323 1.369 1_456 S
C322 C326 1.531 1_455 S
C323 C322 1.369 1_654 S
C323 C324 1.410 1_655 S
C323 C331 1.503 . S
C324 C323 1.410 1_455 S
C324 C325 1.392 . S
C324 C327 1.511 1_455 S
C325 C321 1.376 . S
C325 C324 1.392 . S
C325 H337 0.929 . S
C326 C322 1.531 1_655 S
C326 H338 0.960 . S
C326 H339 0.962 . S
C326 H340 0.960 1_655 S
C327 C324 1.511 1_655 S
C327 H341 0.961 . S
C327 H342 0.961 . S
C327 H343 0.961 . S
C328 C329 1.370 1_556 S
C328 C330 1.363 . S
C328 H344 0.931 . S
C329 C328 1.370 1_554 S
C329 C333 1.408 . S
C330 C328 1.363 . S
C330 C331 1.370 1_556 S
C330 C334 1.524 . S
C331 C323 1.503 . S
C331 C330 1.370 1_554 S
C331 C332 1.403 . S
C332 C331 1.403 . S
C332 C333 1.404 . S
C332 C335 1.539 . S
C333 C329 1.408 . S
C333 C332 1.404 . S
C333 H345 0.930 . S
C334 C330 1.524 . S
C334 H346 0.956 . S
C334 H347 0.961 . S
C334 H348 0.961 . S
C335 C332 1.539 . S
C335 H349 0.958 . S
C335 H350 0.961 . S
C335 H351 0.960 . S
H336 C320 0.931 . S
H337 C325 0.929 . S
H338 C326 0.960 . S
H339 C326 0.962 . S
H340 C326 0.960 1_455 S
H341 C327 0.961 . S
H342 C327 0.961 . S
H343 C327 0.961 . S
H344 C328 0.931 . S
H345 C333 0.930 . S
H346 C334 0.956 . S
H347 C334 0.961 . S
H348 C334 0.961 . S
H349 C335 0.958 . S
H350 C335 0.961 . S
H351 C335 0.960 . S
C352 C353 1.391 . S
C352 C354 1.394 . S
C352 H368 0.931 . S
C353 C352 1.391 . S
C353 C357 1.376 . S
C354 C352 1.394 . S
C354 C355 1.369 . S
C354 C358 1.531 . S
C355 C354 1.369 . S
C355 C356 1.410 . S
C355 C363 1.503 . S
C356 C355 1.410 . S
C356 C357 1.392 . S
C356 C359 1.511 . S
C357 C353 1.376 . S
C357 C356 1.392 . S
C357 H369 0.929 . S
C358 C354 1.531 . S
C358 H370 0.960 . S
C358 H371 0.962 . S
C358 H372 0.960 . S
C359 C356 1.511 . S
C359 H373 0.961 . S
C359 H374 0.961 . S
C359 H375 0.961 . S
C360 C361 1.370 . S
C360 C362 1.363 . S
C360 H376 0.931 . S
C361 C360 1.370 . S
C361 C365 1.408 . S
C362 C360 1.363 . S
C362 C363 1.370 1_655 S
C362 C366 1.524 1_655 S
C363 C355 1.503 . S
C363 C362 1.370 1_455 S
C363 C364 1.403 1_455 S
C364 C363 1.403 1_655 S
C364 C365 1.404 . S
C364 C367 1.539 1_655 S
C365 C361 1.408 . S
C365 C364 1.404 . S
C365 H377 0.930 . S
C366 C362 1.524 1_455 S
C366 H378 0.956 . S
C366 H379 0.961 . S
C366 H380 0.961 . S
C367 C364 1.539 1_455 S
C367 H381 0.958 . S
C367 H382 0.961 1_455 S
C367 H383 0.960 . S
H368 C352 0.931 . S
H369 C357 0.929 . S
H370 C358 0.960 . S
H371 C358 0.962 . S
H372 C358 0.960 . S
H373 C359 0.961 . S
H374 C359 0.961 . S
H375 C359 0.961 . S
H376 C360 0.931 . S
H377 C365 0.930 . S
H378 C366 0.956 . S
H379 C366 0.961 . S
H380 C366 0.961 . S
H381 C367 0.958 . S
H382 C367 0.961 1_655 S
H383 C367 0.960 . S
C384 C385 1.391 . S
C384 C386 1.394 . S
C384 H400 0.931 . S
C385 C384 1.391 . S
C385 C389 1.376 . S
C386 C384 1.394 . S
C386 C387 1.369 . S
C386 C390 1.531 . S
C387 C386 1.369 . S
C387 C388 1.410 . S
C387 C395 1.503 . S
C388 C387 1.410 . S
C388 C389 1.392 . S
C388 C391 1.511 . S
C389 C385 1.376 . S
C389 C388 1.392 . S
C389 H401 0.929 . S
C390 C386 1.531 . S
C390 H402 0.960 . S
C390 H403 0.962 . S
C390 H404 0.960 . S
C391 C388 1.511 . S
C391 H405 0.961 . S
C391 H406 0.961 . S
C391 H407 0.961 . S
C392 C393 1.370 . S
C392 C394 1.363 . S
C392 H408 0.931 . S
C393 C392 1.370 . S
C393 C397 1.408 . S
C394 C392 1.363 . S
C394 C395 1.370 1_455 S
C394 C398 1.524 1_455 S
C395 C387 1.503 . S
C395 C394 1.370 1_655 S
C395 C396 1.403 1_655 S
C396 C395 1.403 1_455 S
C396 C397 1.404 . S
C396 C399 1.539 1_455 S
C397 C393 1.408 . S
C397 C396 1.404 . S
C397 H409 0.930 . S
C398 C394 1.524 1_655 S
C398 H410 0.956 . S
C398 H411 0.961 . S
C398 H412 0.961 1_655 S
C399 C396 1.539 1_655 S
C399 H413 0.958 . S
C399 H414 0.961 1_655 S
C399 H415 0.960 . S
H400 C384 0.931 . S
H401 C389 0.929 . S
H402 C390 0.960 . S
H403 C390 0.962 . S
H404 C390 0.960 . S
H405 C391 0.961 . S
H406 C391 0.961 . S
H407 C391 0.961 . S
H408 C392 0.931 . S
H409 C397 0.930 . S
H410 C398 0.956 . S
H411 C398 0.961 . S
H412 C398 0.961 1_455 S
H413 C399 0.958 . S
H414 C399 0.961 1_455 S
H415 C399 0.960 . S
C416 C417 1.391 1_655 S
C416 C418 1.394 . S
C416 H432 0.931 . S
C417 C416 1.391 1_455 S
C417 C421 1.376 1_556 S
C418 C416 1.394 . S
C418 C419 1.369 1_655 S
C418 C422 1.531 . S
C419 C418 1.369 1_455 S
C419 C420 1.410 1_556 S
C419 C427 1.503 . S
C420 C419 1.410 1_554 S
C420 C421 1.392 . S
C420 C423 1.511 . S
C421 C417 1.376 1_554 S
C421 C420 1.392 . S
C421 H433 0.929 . S
C422 C418 1.531 . S
C422 H434 0.960 . S
C422 H435 0.962 . S
C422 H436 0.960 . S
C423 C420 1.511 . S
C423 H437 0.961 . S
C423 H438 0.961 . S
C423 H439 0.961 . S
C424 C425 1.370 1_554 S
C424 C426 1.363 . S
C424 H440 0.931 . S
C425 C424 1.370 1_556 S
C425 C429 1.408 1_655 S
C426 C424 1.363 . S
C426 C427 1.370 1_654 S
C426 C430 1.524 . S
C427 C419 1.503 . S
C427 C426 1.370 1_456 S
C427 C428 1.403 . S
C428 C427 1.403 . S
C428 C429 1.404 . S
C428 C431 1.539 . S
C429 C425 1.408 1_455 S
C429 C428 1.404 . S
C429 H441 0.930 . S
C430 C426 1.524 . S
C430 H442 0.956 . S
C430 H443 0.961 . S
C430 H444 0.961 . S
C431 C428 1.539 . S
C431 H445 0.958 . S
C431 H446 0.961 . S
C431 H447 0.960 . S
H432 C416 0.931 . S
H433 C421 0.929 . S
H434 C422 0.960 . S
H435 C422 0.962 . S
H436 C422 0.960 . S
H437 C423 0.961 . S
H438 C423 0.961 . S
H439 C423 0.961 . S
H440 C424 0.931 . S
H441 C429 0.930 . S
H442 C430 0.956 . S
H443 C430 0.961 . S
H444 C430 0.961 . S
H445 C431 0.958 . S
H446 C431 0.961 . S
H447 C431 0.960 . S
C448 C449 1.391 . S
C448 C450 1.394 . S
C448 H464 0.931 . S
C449 C448 1.391 . S
C449 C453 1.376 1_455 S
C450 C448 1.394 . S
C450 C451 1.369 . S
C450 C454 1.531 . S
C451 C450 1.369 . S
C451 C452 1.410 1_455 S
C451 C459 1.503 1_455 S
C452 C451 1.410 1_655 S
C452 C453 1.392 . S
C452 C455 1.511 . S
C453 C449 1.376 1_655 S
C453 C452 1.392 . S
C453 H465 0.929 . S
C454 C450 1.531 . S
C454 H466 0.960 . S
C454 H467 0.962 . S
C454 H468 0.960 . S
C455 C452 1.511 . S
C455 H469 0.961 . S
C455 H470 0.961 . S
C455 H471 0.961 . S
C456 C457 1.370 . S
C456 C458 1.363 . S
C456 H472 0.931 . S
C457 C456 1.370 . S
C457 C461 1.408 . S
C458 C456 1.363 . S
C458 C459 1.370 . S
C458 C462 1.524 . S
C459 C451 1.503 1_655 S
C459 C458 1.370 . S
C459 C460 1.403 . S
C460 C459 1.403 . S
C460 C461 1.404 . S
C460 C463 1.539 1_655 S
C461 C457 1.408 . S
C461 C460 1.404 . S
C461 H473 0.930 . S
C462 C458 1.524 . S
C462 H474 0.956 1_655 S
C462 H475 0.961 . S
C462 H476 0.961 . S
C463 C460 1.539 1_455 S
C463 H477 0.958 . S
C463 H478 0.961 1_455 S
C463 H479 0.960 1_455 S
H464 C448 0.931 . S
H465 C453 0.929 . S
H466 C454 0.960 . S
H467 C454 0.962 . S
H468 C454 0.960 . S
H469 C455 0.961 . S
H470 C455 0.961 . S
H471 C455 0.961 . S
H472 C456 0.931 . S
H473 C461 0.930 . S
H474 C462 0.956 1_455 S
H475 C462 0.961 . S
H476 C462 0.961 . S
H477 C463 0.958 . S
H478 C463 0.961 1_655 S
H479 C463 0.960 1_655 S
C480 C481 1.391 1_554 S
C480 C482 1.394 . S
C480 H496 0.931 . S
C481 C480 1.391 1_556 S
C481 C485 1.376 . S
C482 C480 1.394 . S
C482 C483 1.369 1_554 S
C482 C486 1.531 . S
C483 C482 1.369 1_556 S
C483 C484 1.410 . S
C483 C491 1.503 1_565 S
C484 C483 1.410 . S
C484 C485 1.392 . S
C484 C487 1.511 . S
C485 C481 1.376 . S
C485 C484 1.392 . S
C485 H497 0.929 . S
C486 C482 1.531 . S
C486 H498 0.960 1_565 S
C486 H499 0.962 . S
C486 H500 0.960 . S
C487 C484 1.511 . S
C487 H501 0.961 . S
C487 H502 0.961 . S
C487 H503 0.961 . S
C488 C489 1.370 . S
C488 C490 1.363 . S
C488 H504 0.931 . S
C489 C488 1.370 . S
C489 C493 1.408 1_556 S
C490 C488 1.363 . S
C490 C491 1.370 . S
C490 C494 1.524 . S
C491 C483 1.503 1_545 S
C491 C490 1.370 . S
C491 C492 1.403 1_556 S
C492 C491 1.403 1_554 S
C492 C493 1.404 . S
C492 C495 1.539 . S
C493 C489 1.408 1_554 S
C493 C492 1.404 . S
C493 H505 0.930 . S
C494 C490 1.524 . S
C494 H506 0.956 . S
C494 H507 0.964 1_545 S
C494 H508 0.961 . S
C495 C492 1.539 . S
C495 H509 0.958 . S
C495 H510 0.961 . S
C495 H511 0.960 1_545 S
H496 C480 0.931 . S
H497 C485 0.929 . S
H498 C486 0.960 1_545 S
H499 C486 0.962 . S
H500 C486 0.960 . S
H501 C487 0.961 . S
H502 C487 0.961 . S
H503 C487 0.961 . S
H504 C488 0.931 . S
H505 C493 0.930 . S
H506 C494 0.956 . S
H507 C494 0.964 1_565 S
H508 C494 0.961 . S
H509 C495 0.958 . S
H510 C495 0.961 . S
H511 C495 0.960 1_565 S
C512 C513 1.391 . S
C512 C514 1.394 . S
C512 H528 0.931 . S
C513 C512 1.391 . S
C513 C517 1.376 . S
C514 C512 1.394 . S
C514 C515 1.369 . S
C514 C518 1.531 . S
C515 C514 1.369 . S
C515 C516 1.410 . S
C515 C523 1.503 1_545 S
C516 C515 1.410 . S
C516 C517 1.392 . S
C516 C519 1.511 . S
C517 C513 1.376 . S
C517 C516 1.392 . S
C517 H529 0.929 . S
C518 C514 1.531 . S
C518 H530 0.960 1_545 S
C518 H531 0.962 . S
C518 H532 0.960 . S
C519 C516 1.511 . S
C519 H533 0.961 . S
C519 H534 0.961 . S
C519 H535 0.961 . S
C520 C521 1.370 . S
C520 C522 1.363 . S
C520 H536 0.931 . S
C521 C520 1.370 . S
C521 C525 1.408 . S
C522 C520 1.363 . S
C522 C523 1.370 . S
C522 C526 1.524 . S
C523 C515 1.503 1_565 S
C523 C522 1.370 . S
C523 C524 1.403 . S
C524 C523 1.403 . S
C524 C525 1.404 . S
C524 C527 1.539 . S
C525 C521 1.408 . S
C525 C524 1.404 . S
C525 H537 0.930 . S
C526 C522 1.524 . S
C526 H538 0.958 . S
C526 H539 0.961 1_565 S
C526 H540 0.961 . S
C527 C524 1.539 . S
C527 H541 0.958 . S
C527 H542 0.961 . S
C527 H543 0.960 . S
H528 C512 0.931 . S
H529 C517 0.929 . S
H530 C518 0.960 1_565 S
H531 C518 0.962 . S
H532 C518 0.960 . S
H533 C519 0.961 . S
H534 C519 0.961 . S
H535 C519 0.961 . S
H536 C520 0.931 . S
H537 C525 0.930 . S
H538 C526 0.958 . S
H539 C526 0.961 1_545 S
H540 C526 0.961 . S
H541 C527 0.958 . S
H542 C527 0.961 . S
H543 C527 0.960 . S
C544 C545 1.391 . S
C544 C546 1.394 . S
C544 H560 0.931 . S
C545 C544 1.391 . S
C545 C549 1.376 . S
C546 C544 1.394 . S
C546 C547 1.369 . S
C546 C550 1.531 . S
C547 C546 1.369 . S
C547 C548 1.410 . S
C547 C555 1.503 . S
C548 C547 1.410 . S
C548 C549 1.392 . S
C548 C551 1.511 1_554 S
C549 C545 1.376 . S
C549 C548 1.392 . S
C549 H561 0.929 1_554 S
C550 C546 1.531 . S
C550 H562 0.960 . S
C550 H563 0.962 . S
C550 H564 0.960 . S
C551 C548 1.511 1_556 S
C551 H565 0.961 . S
C551 H566 0.961 . S
C551 H567 0.961 1_556 S
C552 C553 1.370 1_556 S
C552 C554 1.363 . S
C552 H568 0.931 . S
C553 C552 1.370 1_554 S
C553 C557 1.408 . S
C554 C552 1.363 . S
C554 C555 1.370 1_556 S
C554 C558 1.524 . S
C555 C547 1.503 . S
C555 C554 1.370 1_554 S
C555 C556 1.403 . S
C556 C555 1.403 . S
C556 C557 1.404 . S
C556 C559 1.539 . S
C557 C553 1.408 . S
C557 C556 1.404 . S
C557 H569 0.930 . S
C558 C554 1.524 . S
C558 H570 0.956 . S
C558 H571 0.961 . S
C558 H572 0.961 . S
C559 C556 1.539 . S
C559 H573 0.958 . S
C559 H574 0.961 . S
C559 H575 0.960 . S
H560 C544 0.931 . S
H561 C549 0.929 1_556 S
H562 C550 0.960 . S
H563 C550 0.962 . S
H564 C550 0.960 . S
H565 C551 0.961 . S
H566 C551 0.961 . S
H567 C551 0.961 1_554 S
H568 C552 0.931 . S
H569 C557 0.930 . S
H570 C558 0.956 . S
H571 C558 0.961 . S
H572 C558 0.961 . S
H573 C559 0.958 . S
H574 C559 0.961 . S
H575 C559 0.960 . S
C576 C577 1.391 1_556 S
C576 C578 1.394 . S
C576 H592 0.931 . S
C577 C576 1.391 1_554 S
C577 C581 1.376 . S
C578 C576 1.394 . S
C578 C579 1.369 1_556 S
C578 C582 1.531 . S
C579 C578 1.369 1_554 S
C579 C580 1.410 . S
C579 C587 1.503 . S
C580 C579 1.410 . S
C580 C581 1.392 . S
C580 C583 1.511 . S
C581 C577 1.376 . S
C581 C580 1.392 . S
C581 H593 0.929 . S
C582 C578 1.531 . S
C582 H594 0.960 . S
C582 H595 0.962 . S
C582 H596 0.960 . S
C583 C580 1.511 . S
C583 H597 0.961 . S
C583 H598 0.961 . S
C583 H599 0.961 . S
C584 C585 1.370 . S
C584 C586 1.363 . S
C584 H600 0.931 . S
C585 C584 1.370 . S
C585 C589 1.408 1_554 S
C586 C584 1.363 . S
C586 C587 1.370 . S
C586 C590 1.524 . S
C587 C579 1.503 . S
C587 C586 1.370 . S
C587 C588 1.403 1_554 S
C588 C587 1.403 1_556 S
C588 C589 1.404 . S
C588 C591 1.539 . S
C589 C585 1.408 1_556 S
C589 C588 1.404 . S
C589 H601 0.930 . S
C590 C586 1.524 . S
C590 H602 0.956 . S
C590 H603 0.961 . S
C590 H604 0.961 . S
C591 C588 1.539 . S
C591 H605 0.958 . S
C591 H606 0.961 . S
C591 H607 0.960 . S
H592 C576 0.931 . S
H593 C581 0.929 . S
H594 C582 0.960 . S
H595 C582 0.962 . S
H596 C582 0.960 . S
H597 C583 0.961 . S
H598 C583 0.961 . S
H599 C583 0.961 . S
H600 C584 0.931 . S
H601 C589 0.930 . S
H602 C590 0.956 . S
H603 C590 0.961 . S
H604 C590 0.961 . S
H605 C591 0.958 . S
H606 C591 0.961 . S
H607 C591 0.960 . S
C608 C609 1.391 . S
C608 C610 1.394 . S
C608 H624 0.931 . S
C609 C608 1.391 . S
C609 C613 1.376 . S
C610 C608 1.394 . S
C610 C611 1.369 . S
C610 C614 1.531 . S
C611 C610 1.369 . S
C611 C612 1.410 . S
C611 C619 1.503 . S
C612 C611 1.410 . S
C612 C613 1.392 . S
C612 C615 1.511 . S
C613 C609 1.376 . S
C613 C612 1.392 . S
C613 H625 0.929 . S
C614 C610 1.531 . S
C614 H626 0.960 . S
C614 H627 0.962 . S
C614 H628 0.960 . S
C615 C612 1.511 . S
C615 H629 0.961 . S
C615 H630 0.961 . S
C615 H631 0.961 . S
C616 C617 1.370 . S
C616 C618 1.363 . S
C616 H632 0.931 . S
C617 C616 1.370 . S
C617 C621 1.408 . S
C618 C616 1.363 . S
C618 C619 1.370 . S
C618 C622 1.524 . S
C619 C611 1.503 . S
C619 C618 1.370 . S
C619 C620 1.403 . S
C620 C619 1.403 . S
C620 C621 1.404 . S
C620 C623 1.539 . S
C621 C617 1.408 . S
C621 C620 1.404 . S
C621 H633 0.930 . S
C622 C618 1.524 . S
C622 H634 0.956 . S
C622 H635 0.961 . S
C622 H636 0.961 . S
C623 C620 1.539 . S
C623 H637 0.958 . S
C623 H638 0.961 . S
C623 H639 0.960 . S
H624 C608 0.931 . S
H625 C613 0.929 . S
H626 C614 0.960 . S
H627 C614 0.962 . S
H628 C614 0.960 . S
H629 C615 0.961 . S
H630 C615 0.961 . S
H631 C615 0.961 . S
H632 C616 0.931 . S
H633 C621 0.930 . S
H634 C622 0.956 . S
H635 C622 0.961 . S
H636 C622 0.961 . S
H637 C623 0.958 . S
H638 C623 0.961 . S
H639 C623 0.960 . S
C640 C641 1.391 . S
C640 C642 1.394 . S
C640 H656 0.931 . S
C641 C640 1.391 . S
C641 C645 1.376 . S
C642 C640 1.394 . S
C642 C643 1.369 . S
C642 C646 1.531 . S
C643 C642 1.369 . S
C643 C644 1.410 . S
C643 C651 1.503 . S
C644 C643 1.410 . S
C644 C645 1.392 . S
C644 C647 1.511 . S
C645 C641 1.376 . S
C645 C644 1.392 . S
C645 H657 0.929 . S
C646 C642 1.531 . S
C646 H658 0.960 . S
C646 H659 0.962 . S
C646 H660 0.960 . S
C647 C644 1.511 . S
C647 H661 0.961 . S
C647 H662 0.961 . S
C647 H663 0.961 . S
C648 C649 1.370 . S
C648 C650 1.363 . S
C648 H664 0.931 . S
C649 C648 1.370 . S
C649 C653 1.408 . S
C650 C648 1.363 . S
C650 C651 1.370 . S
C650 C654 1.524 . S
C651 C643 1.503 . S
C651 C650 1.370 . S
C651 C652 1.403 . S
C652 C651 1.403 . S
C652 C653 1.404 . S
C652 C655 1.539 . S
C653 C649 1.408 . S
C653 C652 1.404 . S
C653 H665 0.930 . S
C654 C650 1.524 . S
C654 H666 0.956 . S
C654 H667 0.961 . S
C654 H668 0.961 . S
C655 C652 1.539 . S
C655 H669 0.958 . S
C655 H670 0.961 . S
C655 H671 0.960 . S
H656 C640 0.931 . S
H657 C645 0.929 . S
H658 C646 0.960 . S
H659 C646 0.962 . S
H660 C646 0.960 . S
H661 C647 0.961 . S
H662 C647 0.961 . S
H663 C647 0.961 . S
H664 C648 0.931 . S
H665 C653 0.930 . S
H666 C654 0.956 . S
H667 C654 0.961 . S
H668 C654 0.961 . S
H669 C655 0.958 . S
H670 C655 0.961 . S
H671 C655 0.960 . S
C672 C673 1.391 1_655 S
C672 C674 1.394 . S
C672 H688 0.931 . S
C673 C672 1.391 1_455 S
C673 C677 1.376 . S
C674 C672 1.394 . S
C674 C675 1.369 1_655 S
C674 C678 1.531 . S
C675 C674 1.369 1_455 S
C675 C676 1.410 . S
C675 C683 1.503 1_455 S
C676 C675 1.410 . S
C676 C677 1.392 . S
C676 C679 1.511 . S
C677 C673 1.376 . S
C677 C676 1.392 . S
C677 H689 0.929 . S
C678 C674 1.531 . S
C678 H690 0.960 . S
C678 H691 0.962 . S
C678 H692 0.960 . S
C679 C676 1.511 . S
C679 H693 0.961 . S
C679 H694 0.961 . S
C679 H695 0.961 . S
C680 C681 1.370 . S
C680 C682 1.363 . S
C680 H696 0.931 . S
C681 C680 1.370 . S
C681 C685 1.408 . S
C682 C680 1.363 . S
C682 C683 1.370 . S
C682 C686 1.524 . S
C683 C675 1.503 1_655 S
C683 C682 1.370 . S
C683 C684 1.403 1_655 S
C684 C683 1.403 1_455 S
C684 C685 1.404 1_455 S
C684 C687 1.539 . S
C685 C681 1.408 . S
C685 C684 1.404 1_655 S
C685 H697 0.930 1_655 S
C686 C682 1.524 . S
C686 H698 0.956 . S
C686 H699 0.961 . S
C686 H700 0.961 . S
C687 C684 1.539 . S
C687 H701 0.958 . S
C687 H702 0.961 . S
C687 H703 0.960 . S
H688 C672 0.931 . S
H689 C677 0.929 . S
H690 C678 0.960 . S
H691 C678 0.962 . S
H692 C678 0.960 . S
H693 C679 0.961 . S
H694 C679 0.961 . S
H695 C679 0.961 . S
H696 C680 0.931 . S
H697 C685 0.930 1_455 S
H698 C686 0.956 . S
H699 C686 0.961 . S
H700 C686 0.961 . S
H701 C687 0.958 . S
H702 C687 0.961 . S
H703 C687 0.960 . S
C704 C705 1.391 . S
C704 C706 1.394 . S
C704 H720 0.931 . S
C705 C704 1.391 . S
C705 C709 1.376 1_655 S
C706 C704 1.394 . S
C706 C707 1.367 1_655 S
C706 C710 1.531 . S
C707 C706 1.367 1_455 S
C707 C708 1.410 . S
C707 C715 1.504 . S
C708 C707 1.410 . S
C708 C709 1.392 . S
C708 C711 1.511 . S
C709 C705 1.376 1_455 S
C709 C708 1.392 . S
C709 H721 0.929 . S
C710 C706 1.531 . S
C710 H722 0.960 . S
C710 H723 0.962 . S
C710 H724 0.960 . S
C711 C708 1.511 . S
C711 H725 0.961 . S
C711 H726 0.961 . S
C711 H727 0.961 . S
C712 C713 1.370 1_655 S
C712 C714 1.363 . S
C712 H728 0.931 . S
C713 C712 1.370 1_455 S
C713 C717 1.408 . S
C714 C712 1.363 . S
C714 C715 1.370 1_655 S
C714 C718 1.524 . S
C715 C707 1.504 . S
C715 C714 1.370 1_455 S
C715 C716 1.403 . S
C716 C715 1.403 . S
C716 C717 1.404 . S
C716 C719 1.539 . S
C717 C713 1.408 . S
C717 C716 1.404 . S
C717 H729 0.930 . S
C718 C714 1.524 . S
C718 H730 0.956 . S
C718 H731 0.961 . S
C718 H732 0.961 . S
C719 C716 1.539 . S
C719 H733 0.958 . S
C719 H734 0.961 . S
C719 H735 0.960 . S
H720 C704 0.931 . S
H721 C709 0.929 . S
H722 C710 0.960 . S
H723 C710 0.962 . S
H724 C710 0.960 . S
H725 C711 0.961 . S
H726 C711 0.961 . S
H727 C711 0.961 . S
H728 C712 0.931 . S
H729 C717 0.930 . S
H730 C718 0.956 . S
H731 C718 0.961 . S
H732 C718 0.961 . S
H733 C719 0.958 . S
H734 C719 0.961 . S
H735 C719 0.960 . S
C736 C737 1.391 . S
C736 C738 1.394 1_655 S
C736 H752 0.931 1_655 S
C737 C736 1.391 . S
C737 C741 1.376 . S
C738 C736 1.394 1_455 S
C738 C739 1.369 1_455 S
C738 C742 1.531 . S
C739 C738 1.369 1_655 S
C739 C740 1.410 . S
C739 C747 1.503 1_655 S
C740 C739 1.410 . S
C740 C741 1.392 . S
C740 C743 1.511 . S
C741 C737 1.376 . S
C741 C740 1.392 . S
C741 H753 0.929 . S
C742 C738 1.531 . S
C742 H754 0.960 . S
C742 H755 0.962 . S
C742 H756 0.960 . S
C743 C740 1.511 . S
C743 H757 0.961 . S
C743 H758 0.961 . S
C743 H759 0.961 . S
C744 C745 1.370 . S
C744 C746 1.363 . S
C744 H760 0.931 . S
C745 C744 1.370 . S
C745 C749 1.408 1_455 S
C746 C744 1.363 . S
C746 C747 1.370 . S
C746 C750 1.524 . S
C747 C739 1.503 1_455 S
C747 C746 1.370 . S
C747 C748 1.403 1_455 S
C748 C747 1.403 1_655 S
C748 C749 1.404 . S
C748 C751 1.539 . S
C749 C745 1.408 1_655 S
C749 C748 1.404 . S
C749 H761 0.930 . S
C750 C746 1.524 . S
C750 H762 0.956 . S
C750 H763 0.961 . S
C750 H764 0.961 . S
C751 C748 1.539 . S
C751 H765 0.958 . S
C751 H766 0.961 . S
C751 H767 0.960 . S
H752 C736 0.931 1_455 S
H753 C741 0.929 . S
H754 C742 0.960 . S
H755 C742 0.962 . S
H756 C742 0.960 . S
H757 C743 0.961 . S
H758 C743 0.961 . S
H759 C743 0.961 . S
H760 C744 0.931 . S
H761 C749 0.930 . S
H762 C750 0.956 . S
H763 C750 0.961 . S
H764 C750 0.961 . S
H765 C751 0.958 . S
H766 C751 0.961 . S
H767 C751 0.960 . S
C768 C769 1.391 . S
C768 C770 1.394 . S
C768 H784 0.931 . S
C769 C768 1.391 . S
C769 C773 1.376 1_655 S
C770 C768 1.394 . S
C770 C771 1.369 . S
C770 C774 1.531 . S
C771 C770 1.369 . S
C771 C772 1.410 1_655 S
C771 C779 1.503 1_655 S
C772 C771 1.410 1_455 S
C772 C773 1.392 . S
C772 C775 1.511 . S
C773 C769 1.376 1_455 S
C773 C772 1.392 . S
C773 H785 0.929 . S
C774 C770 1.531 . S
C774 H786 0.960 . S
C774 H787 0.962 . S
C774 H788 0.960 . S
C775 C772 1.511 . S
C775 H789 0.961 . S
C775 H790 0.961 . S
C775 H791 0.961 . S
C776 C777 1.370 . S
C776 C778 1.363 1_455 S
C776 H792 0.931 1_455 S
C777 C776 1.370 . S
C777 C781 1.408 . S
C778 C776 1.363 1_655 S
C778 C779 1.370 1_655 S
C778 C782 1.524 . S
C779 C771 1.503 1_455 S
C779 C778 1.370 1_455 S
C779 C780 1.403 . S
C780 C779 1.403 . S
C780 C781 1.404 . S
C780 C783 1.539 . S
C781 C777 1.408 . S
C781 C780 1.404 . S
C781 H793 0.930 . S
C782 C778 1.524 . S
C782 H794 0.956 . S
C782 H795 0.961 . S
C782 H796 0.961 . S
C783 C780 1.539 . S
C783 H797 0.958 . S
C783 H798 0.961 . S
C783 H799 0.960 . S
H784 C768 0.931 . S
H785 C773 0.929 . S
H786 C774 0.960 . S
H787 C774 0.962 . S
H788 C774 0.960 . S
H789 C775 0.961 . S
H790 C775 0.961 . S
H791 C775 0.961 . S
H792 C776 0.931 1_655 S
H793 C781 0.930 . S
H794 C782 0.956 . S
H795 C782 0.961 . S
H796 C782 0.961 . S
H797 C783 0.958 . S
H798 C783 0.961 . S
H799 C783 0.960 . S
C800 C801 1.391 . S
C800 C802 1.394 . S
C800 H816 0.931 . S
C801 C800 1.391 . S
C801 C805 1.376 . S
C802 C800 1.394 . S
C802 C803 1.369 . S
C802 C806 1.531 . S
C803 C802 1.369 . S
C803 C804 1.410 . S
C803 C811 1.503 . S
C804 C803 1.410 . S
C804 C805 1.392 . S
C804 C807 1.511 . S
C805 C801 1.376 . S
C805 C804 1.392 . S
C805 H817 0.929 . S
C806 C802 1.531 . S
C806 H818 0.960 . S
C806 H819 0.962 . S
C806 H820 0.960 . S
C807 C804 1.511 . S
C807 H821 0.961 . S
C807 H822 0.961 . S
C807 H823 0.961 . S
C808 C809 1.370 . S
C808 C810 1.363 . S
C808 H824 0.931 . S
C809 C808 1.370 . S
C809 C813 1.408 . S
C810 C808 1.363 . S
C810 C811 1.370 . S
C810 C814 1.524 . S
C811 C803 1.503 . S
C811 C810 1.370 . S
C811 C812 1.403 . S
C812 C811 1.403 . S
C812 C813 1.404 . S
C812 C815 1.539 . S
C813 C809 1.408 . S
C813 C812 1.404 . S
C813 H825 0.930 . S
C814 C810 1.524 . S
C814 H826 0.956 . S
C814 H827 0.961 . S
C814 H828 0.961 . S
C815 C812 1.539 . S
C815 H829 0.958 . S
C815 H830 0.961 . S
C815 H831 0.960 . S
H816 C800 0.931 . S
H817 C805 0.929 . S
H818 C806 0.960 . S
H819 C806 0.962 . S
H820 C806 0.960 . S
H821 C807 0.961 . S
H822 C807 0.961 . S
H823 C807 0.961 . S
H824 C808 0.931 . S
H825 C813 0.930 . S
H826 C814 0.956 . S
H827 C814 0.961 . S
H828 C814 0.961 . S
H829 C815 0.958 . S
H830 C815 0.961 . S
H831 C815 0.960 . S
C832 C833 1.391 . S
C832 C834 1.394 . S
C832 H848 0.931 . S
C833 C832 1.391 . S
C833 C837 1.376 . S
C834 C832 1.394 . S
C834 C835 1.369 . S
C834 C838 1.531 . S
C835 C834 1.369 . S
C835 C836 1.410 . S
C835 C843 1.503 . S
C836 C835 1.410 . S
C836 C837 1.392 . S
C836 C839 1.511 . S
C837 C833 1.376 . S
C837 C836 1.392 . S
C837 H849 0.929 . S
C838 C834 1.531 . S
C838 H850 0.960 . S
C838 H851 0.962 . S
C838 H852 0.960 . S
C839 C836 1.511 . S
C839 H853 0.961 . S
C839 H854 0.961 . S
C839 H855 0.961 . S
C840 C841 1.370 . S
C840 C842 1.363 . S
C840 H856 0.931 . S
C841 C840 1.370 . S
C841 C845 1.408 . S
C842 C840 1.363 . S
C842 C843 1.370 . S
C842 C846 1.524 . S
C843 C835 1.503 . S
C843 C842 1.370 . S
C843 C844 1.403 . S
C844 C843 1.403 . S
C844 C845 1.404 . S
C844 C847 1.539 . S
C845 C841 1.408 . S
C845 C844 1.404 . S
C845 H857 0.930 . S
C846 C842 1.524 . S
C846 H858 0.956 . S
C846 H859 0.961 . S
C846 H860 0.961 . S
C847 C844 1.539 . S
C847 H861 0.958 . S
C847 H862 0.961 . S
C847 H863 0.960 . S
H848 C832 0.931 . S
H849 C837 0.929 . S
H850 C838 0.960 . S
H851 C838 0.962 . S
H852 C838 0.960 . S
H853 C839 0.961 . S
H854 C839 0.961 . S
H855 C839 0.961 . S
H856 C840 0.931 . S
H857 C845 0.930 . S
H858 C846 0.956 . S
H859 C846 0.961 . S
H860 C846 0.961 . S
H861 C847 0.958 . S
H862 C847 0.961 . S
H863 C847 0.960 . S
C864 C865 1.391 . S
C864 C866 1.394 . S
C864 H880 0.931 . S
C865 C864 1.391 . S
C865 C869 1.376 . S
C866 C864 1.394 . S
C866 C867 1.369 . S
C866 C870 1.531 . S
C867 C866 1.369 . S
C867 C868 1.410 . S
C867 C875 1.503 . S
C868 C867 1.410 . S
C868 C869 1.392 . S
C868 C871 1.511 . S
C869 C865 1.376 . S
C869 C868 1.392 . S
C869 H881 0.929 . S
C870 C866 1.531 . S
C870 H882 0.960 . S
C870 H883 0.962 . S
C870 H884 0.960 . S
C871 C868 1.511 . S
C871 H885 0.961 . S
C871 H886 0.961 . S
C871 H887 0.961 . S
C872 C873 1.370 . S
C872 C874 1.363 . S
C872 H888 0.931 . S
C873 C872 1.370 . S
C873 C877 1.408 . S
C874 C872 1.363 . S
C874 C875 1.370 . S
C874 C878 1.524 . S
C875 C867 1.503 . S
C875 C874 1.370 . S
C875 C876 1.403 . S
C876 C875 1.403 . S
C876 C877 1.404 . S
C876 C879 1.539 . S
C877 C873 1.408 . S
C877 C876 1.404 . S
C877 H889 0.930 . S
C878 C874 1.524 . S
C878 H890 0.956 . S
C878 H891 0.961 . S
C878 H892 0.961 . S
C879 C876 1.539 . S
C879 H893 0.958 . S
C879 H894 0.961 . S
C879 H895 0.960 . S
H880 C864 0.931 . S
H881 C869 0.929 . S
H882 C870 0.960 . S
H883 C870 0.962 . S
H884 C870 0.960 . S
H885 C871 0.961 . S
H886 C871 0.961 . S
H887 C871 0.961 . S
H888 C872 0.931 . S
H889 C877 0.930 . S
H890 C878 0.956 . S
H891 C878 0.961 . S
H892 C878 0.961 . S
H893 C879 0.958 . S
H894 C879 0.961 . S
H895 C879 0.960 . S
C896 C897 1.391 . S
C896 C898 1.394 . S
C896 H912 0.931 . S
C897 C896 1.391 . S
C897 C901 1.376 . S
C898 C896 1.394 . S
C898 C899 1.369 . S
C898 C902 1.531 . S
C899 C898 1.369 . S
C899 C900 1.410 . S
C899 C907 1.503 . S
C900 C899 1.410 . S
C900 C901 1.392 . S
C900 C903 1.511 . S
C901 C897 1.376 . S
C901 C900 1.392 . S
C901 H913 0.929 . S
C902 C898 1.531 . S
C902 H914 0.960 . S
C902 H915 0.962 . S
C902 H916 0.960 . S
C903 C900 1.511 . S
C903 H917 0.961 . S
C903 H918 0.961 . S
C903 H919 0.961 . S
C904 C905 1.370 . S
C904 C906 1.363 . S
C904 H920 0.931 . S
C905 C904 1.370 . S
C905 C909 1.408 . S
C906 C904 1.363 . S
C906 C907 1.370 . S
C906 C910 1.524 . S
C907 C899 1.503 . S
C907 C906 1.370 . S
C907 C908 1.403 . S
C908 C907 1.403 . S
C908 C909 1.404 . S
C908 C911 1.539 . S
C909 C905 1.408 . S
C909 C908 1.404 . S
C909 H921 0.930 . S
C910 C906 1.524 . S
C910 H922 0.956 . S
C910 H923 0.961 . S
C910 H924 0.961 . S
C911 C908 1.539 . S
C911 H925 0.958 . S
C911 H926 0.961 . S
C911 H927 0.960 . S
H912 C896 0.931 . S
H913 C901 0.929 . S
H914 C902 0.960 . S
H915 C902 0.962 . S
H916 C902 0.960 . S
H917 C903 0.961 . S
H918 C903 0.961 . S
H919 C903 0.961 . S
H920 C904 0.931 . S
H921 C909 0.930 . S
H922 C910 0.956 . S
H923 C910 0.961 . S
H924 C910 0.961 . S
H925 C911 0.958 . S
H926 C911 0.961 . S
H927 C911 0.960 . S
C161 C2 1.574 1_554 S
C169 C4 1.594 . S
C193 C24 1.577 . S
C201 C22 1.594 . S
C225 C44 1.567 . S
C233 C42 1.597 . S
C257 C62 1.567 . S
C265 C64 1.594 . S
C289 C82 1.606 . S
C297 C84 1.578 . S
C321 C102 1.601 1_554 S
C329 C104 1.583 . S
C353 C124 1.575 . S
C361 C122 1.594 . S
C385 C144 1.595 . S
C393 C142 1.582 . S
C417 C32 1.832 . S
C425 C12 1.836 . S
C449 C72 1.837 . S
C457 C52 1.839 . S
C481 C92 1.835 . S
C489 C112 1.839 . S
C513 C132 1.837 . S
C521 C152 1.839 . S
C545 C9 1.533 . S
C553 C109 1.518 . S
C577 C89 1.507 . S
C585 C29 1.538 . S
C609 C49 1.495 . S
C617 C149 1.537 . S
C641 C69 1.513 . S
C649 C129 1.536 . S
C673 C18 1.569 . S
C681 C78 1.541 . S
C705 C38 1.521 . S
C713 C58 1.557 . S
C737 C39 1.607 . S
C745 C59 1.617 . S
C769 C79 1.605 . S
C777 C19 1.611 . S
C801 C98 1.537 . S
C809 C158 1.550 . S
C833 C118 1.518 . S
C841 C138 1.559 . S
C865 C119 1.604 . S
C873 C139 1.611 . S
C897 C159 1.605 . S
C905 C99 1.611 . S
