# Generated by pormake.
# Topology snk, (6)-cn, num edge types: 1
# Building blocks:
#     Node 0, Type 0, BuildingBlock: KUMBOL_clean_sbu_1, # of connection points: 6
#     Node 1, Type 0, BuildingBlock: KUMBOL_clean_sbu_1, # of connection points: 6
#     Node 2, Type 0, BuildingBlock: KUMBOL_clean_sbu_1, # of connection points: 6
#     Node 3, Type 0, BuildingBlock: KUMBOL_clean_sbu_1, # of connection points: 6
#     Node 4, Type 0, BuildingBlock: KUMBOL_clean_sbu_1, # of connection points: 6
#     Node 5, Type 0, BuildingBlock: KUMBOL_clean_sbu_1, # of connection points: 6
#     Node 6, Type 0, BuildingBlock: KUMBOL_clean_sbu_1, # of connection points: 6
#     Node 7, Type 0, BuildingBlock: KUMBOL_clean_sbu_1, # of connection points: 6
#     Edge 8, Type (0, 0), BuildingBlock: TEMPAE_clean_linker_10, # of connection points: 2
#     Edge 9, Type (0, 0), BuildingBlock: TEMPAE_clean_linker_10, # of connection points: 2
#     Edge 10, Type (0, 0), BuildingBlock: TEMPAE_clean_linker_10, # of connection points: 2
#     Edge 11, Type (0, 0), BuildingBlock: TEMPAE_clean_linker_10, # of connection points: 2
#     Edge 12, Type (0, 0), BuildingBlock: TEMPAE_clean_linker_10, # of connection points: 2
#     Edge 13, Type (0, 0), BuildingBlock: TEMPAE_clean_linker_10, # of connection points: 2
#     Edge 14, Type (0, 0), BuildingBlock: TEMPAE_clean_linker_10, # of connection points: 2
#     Edge 15, Type (0, 0), BuildingBlock: TEMPAE_clean_linker_10, # of connection points: 2
#     Edge 16, Type (0, 0), BuildingBlock: TEMPAE_clean_linker_10, # of connection points: 2
#     Edge 17, Type (0, 0), BuildingBlock: TEMPAE_clean_linker_10, # of connection points: 2
#     Edge 18, Type (0, 0), BuildingBlock: TEMPAE_clean_linker_10, # of connection points: 2
#     Edge 19, Type (0, 0), BuildingBlock: TEMPAE_clean_linker_10, # of connection points: 2
#     Edge 20, Type (0, 0), BuildingBlock: TEMPAE_clean_linker_10, # of connection points: 2
#     Edge 21, Type (0, 0), BuildingBlock: TEMPAE_clean_linker_10, # of connection points: 2
#     Edge 22, Type (0, 0), BuildingBlock: TEMPAE_clean_linker_10, # of connection points: 2
#     Edge 23, Type (0, 0), BuildingBlock: TEMPAE_clean_linker_10, # of connection points: 2
#     Edge 24, Type (0, 0), BuildingBlock: TEMPAE_clean_linker_10, # of connection points: 2
#     Edge 25, Type (0, 0), BuildingBlock: TEMPAE_clean_linker_10, # of connection points: 2
#     Edge 26, Type (0, 0), BuildingBlock: TEMPAE_clean_linker_10, # of connection points: 2
#     Edge 27, Type (0, 0), BuildingBlock: TEMPAE_clean_linker_10, # of connection points: 2
#     Edge 28, Type (0, 0), BuildingBlock: TEMPAE_clean_linker_10, # of connection points: 2
#     Edge 29, Type (0, 0), BuildingBlock: TEMPAE_clean_linker_10, # of connection points: 2
#     Edge 30, Type (0, 0), BuildingBlock: TEMPAE_clean_linker_10, # of connection points: 2
#     Edge 31, Type (0, 0), BuildingBlock: TEMPAE_clean_linker_10, # of connection points: 2
# Relax obj value: 0.007
# Max RMSD: 0.070
# Mean RMSD: 0.069
data_MOF--net-snk--node1-KUMBOL_clean_sbu_1--edge1-TEMPAE_clean_linker_10
_symmetry_space_group_name_H-M    P1
_symmetry_Int_Tables_number       1
_symmetry_cell_setting            triclinic
loop_
_symmetry_equiv_pos_as_xyz
'x, y, z'
_cell_length_a     38.984574
_cell_length_b     38.988827
_cell_length_c     24.845468
_cell_angle_alpha  90.43543
_cell_angle_beta   90.059157
_cell_angle_gamma 89.835617
loop_
_atom_site_label
_atom_site_type_symbol
_atom_site_fract_x
_atom_site_fract_y
_atom_site_fract_z
_atom_type_partial_charge
C0 C 0.95122 0.91333 0.45844 0.0
C1 C 0.89429 0.93096 0.43066 0.0
C2 C 0.92904 0.93876 0.44081 0.0
C3 C 0.88206 0.89773 0.4405 0.0
C4 C 0.93937 0.87966 0.46663 0.0
C5 C 0.90461 0.87208 0.45805 0.0
N6 N 0.98462 0.92152 0.4671 0.0
C7 C 0.00803 0.89693 0.48041 0.0
C8 C 0.96294 0.85454 0.48267 0.0
C9 C 0.99749 0.86316 0.48909 0.0
Gd10 Gd 0.00365 0.03284 0.59205 0.0
Gd11 Gd 1.0004 0.97852 0.4517 0.0
N12 N 0.94185 0.97049 0.43068 0.0
C13 C 0.87319 0.95643 0.40889 0.0
C14 C 0.92215 0.99411 0.40449 0.0
C15 C 0.88737 0.98792 0.39475 0.0
H16 H 0.93327 0.01737 0.38946 0.0
H17 H 0.87174 0.00716 0.3752 0.0
H18 H 0.0831 0.02113 0.63497 0.0
H19 H 0.03472 0.90357 0.48493 0.0
H20 H 0.13452 0.05578 0.6568 0.0
H21 H 0.84635 0.95149 0.40057 0.0
H22 H 0.8554 0.89134 0.43327 0.0
H23 H 0.9386 0.09017 0.58748 0.0
H24 H 0.95482 0.82838 0.48954 0.0
H25 H 0.016 0.84382 0.50067 0.0
H26 H 0.10001 0.17135 0.61725 0.0
H27 H 0.89502 0.84635 0.46413 0.0
H28 H 0.98143 0.19062 0.57604 0.0
H29 H 0.93088 0.15238 0.5751 0.0
N30 N 0.99306 0.09232 0.58623 0.0
C31 C 0.02085 0.11307 0.59084 0.0
C32 C 0.96091 0.10623 0.58393 0.0
C33 C 0.98501 0.16313 0.57913 0.0
C34 C 0.95642 0.14164 0.57849 0.0
C35 C 0.01763 0.14904 0.58737 0.0
H36 H 0.04477 0.19745 0.59193 0.0
N37 N 0.05388 0.06388 0.60884 0.0
C38 C 0.05207 0.09846 0.60404 0.0
C39 C 0.11075 0.10359 0.63447 0.0
C40 C 0.08071 0.11926 0.61561 0.0
C41 C 0.08262 0.04852 0.62896 0.0
C42 C 0.11161 0.06807 0.64153 0.0
O43 O 0.98354 0.95649 0.5319 0.0
O44 O 0.95664 1.00183 0.57162 0.0
O45 O 0.00933 0.00352 0.6655 0.0
O46 O 0.98612 0.05372 0.66886 0.0
O47 O 0.97839 0.0324 0.45179 0.0
O48 O 0.95702 0.04011 0.53758 0.0
O49 O 0.0475 0.03948 0.53202 0.0
O50 O 0.0215 0.03236 0.44964 0.0
O51 O 0.99333 0.9694 0.36576 0.0
O52 O 0.04261 0.96002 0.40232 0.0
O53 O 0.03368 0.98298 0.58897 0.0
O54 O 0.04892 0.97007 0.50041 0.0
C55 C 0.95845 0.96887 0.56142 0.0
C56 C 0.95708 0.04741 0.48581 0.0
C57 C 0.97064 0.01411 0.73651 0.0
C58 C 0.95886 0.99903 0.83019 0.0
C59 C 0.91552 0.99017 0.76077 0.0
C60 C 0.93771 0.00316 0.72184 0.0
C61 C 0.92603 0.98785 0.81451 0.0
C62 C 0.98103 0.01221 0.79065 0.0
C63 C 0.99494 0.02667 0.69594 0.0
C64 C 0.07812 0.15496 0.60949 0.0
C65 C 0.04668 0.16981 0.59497 0.0
H66 H 0.13321 0.11871 0.64431 0.0
C67 C 0.04603 0.04529 0.47985 0.0
C68 C 0.0535 0.96758 0.55299 0.0
C69 C 0.04213 0.98001 0.31183 0.0
C70 C 0.04409 0.99349 0.2156 0.0
C71 C 0.08859 0.01446 0.27607 0.0
C72 C 0.07256 0.99871 0.31951 0.0
C73 C 0.07461 0.01181 0.22448 0.0
C74 C 0.02784 0.97776 0.25968 0.0
C75 C 0.02546 0.96228 0.35743 0.0
H76 H 0.89004 0.98197 0.74927 0.0
H77 H 0.92927 0.00466 0.68041 0.0
H78 H 0.90829 0.97783 0.84396 0.0
H79 H 0.00663 0.02047 0.80182 0.0
H80 H 0.11201 0.02881 0.28243 0.0
H81 H 0.08407 1.00115 0.35905 0.0
H82 H 0.08747 0.02443 0.19149 0.0
H83 H 0.00447 0.96329 0.25327 0.0
C84 C 0.35556 0.70583 0.7087 0.0
C85 C 0.34371 0.64532 0.69527 0.0
C86 C 0.33233 0.6797 0.69753 0.0
C87 C 0.37823 0.63759 0.70598 0.0
C88 C 0.39025 0.69816 0.7195 0.0
C89 C 0.4014 0.66389 0.71834 0.0
N90 N 0.34391 0.73872 0.71088 0.0
C91 C 0.36563 0.7652 0.72186 0.0
C92 C 0.41261 0.72516 0.73177 0.0
C93 C 0.40026 0.75884 0.73274 0.0
Gd94 Gd 0.22408 0.75054 0.82555 0.0
Gd95 Gd 0.2854 0.74694 0.69419 0.0
N96 N 0.29886 0.68792 0.68804 0.0
C97 C 0.3202 0.61976 0.68113 0.0
C98 C 0.27682 0.6634 0.66934 0.0
C99 C 0.28679 0.62895 0.66711 0.0
H100 H 0.25199 0.67014 0.65386 0.0
H101 H 0.26889 0.60959 0.65334 0.0
H102 H 0.23747 0.8356 0.83616 0.0
H103 H 0.35623 0.79123 0.72201 0.0
H104 H 0.2035 0.88898 0.83295 0.0
H105 H 0.32794 0.59307 0.67895 0.0
H106 H 0.38735 0.61132 0.70432 0.0
H107 H 0.16764 0.68604 0.82038 0.0
H108 H 0.43941 0.72029 0.7405 0.0
H109 H 0.41739 0.7799 0.74186 0.0
H110 H 0.08736 0.85049 0.81147 0.0
H111 H 0.42792 0.65747 0.72673 0.0
H112 H 0.06711 0.72926 0.80323 0.0
H113 H 0.10512 0.67843 0.80845 0.0
N114 N 0.16497 0.74043 0.81969 0.0
C115 C 0.14449 0.76871 0.81841 0.0
C116 C 0.15126 0.70832 0.81718 0.0
C117 C 0.0945 0.73273 0.80819 0.0
C118 C 0.11588 0.70396 0.81099 0.0
C119 C 0.10868 0.76562 0.8122 0.0
H120 H 0.06073 0.79347 0.80469 0.0
N121 N 0.19432 0.80305 0.8257 0.0
C122 C 0.15951 0.80095 0.82231 0.0
C123 C 0.15526 0.86278 0.82357 0.0
C124 C 0.13911 0.83081 0.82003 0.0
C125 C 0.21009 0.83407 0.83105 0.0
C126 C 0.19086 0.86438 0.82955 0.0
O127 O 0.30529 0.72959 0.77581 0.0
O128 O 0.25832 0.70441 0.81332 0.0
O129 O 0.24333 0.76479 0.9048 0.0
O130 O 0.20096 0.72947 0.8976 0.0
O131 O 0.23147 0.72532 0.68975 0.0
O132 O 0.22316 0.70293 0.77399 0.0
O133 O 0.20461 0.77612 0.74955 0.0
O134 O 0.25147 0.7939 0.7003 0.0
O135 O 0.27728 0.73498 0.60956 0.0
O136 O 0.31424 0.77348 0.63219 0.0
O137 O 0.27336 0.78128 0.82803 0.0
O138 O 0.29116 0.79617 0.74183 0.0
C139 C 0.29166 0.7064 0.80723 0.0
C140 C 0.21536 0.70451 0.72263 0.0
C141 C 0.23829 0.72255 0.97177 0.0
C142 C 0.25468 0.71338 0.06581 0.0
C143 C 0.26622 0.66952 0.99777 0.0
C144 C 0.25138 0.69008 0.95833 0.0
C145 C 0.26789 0.68099 0.05111 0.0
C146 C 0.24011 0.7342 0.02548 0.0
C147 C 0.22261 0.74432 0.93013 0.0
C148 C 0.10343 0.82783 0.81366 0.0
C149 C 0.08827 0.79534 0.80974 0.0
H150 H 0.14049 0.88633 0.82205 0.0
C151 C 0.21881 0.79568 0.71296 0.0
C152 C 0.29128 0.8004 0.79465 0.0
C153 C 0.28348 0.78137 0.55067 0.0
C154 C 0.26657 0.79023 0.45674 0.0
C155 C 0.25407 0.83371 0.52494 0.0
C156 C 0.26943 0.81345 0.5643 0.0
C157 C 0.25257 0.82225 0.47159 0.0
C158 C 0.28212 0.76992 0.4968 0.0
C159 C 0.29776 0.75883 0.59267 0.0
H160 H 0.27631 0.64451 0.987 0.0
H161 H 0.24985 0.68061 0.9174 0.0
H162 H 0.27973 0.66458 0.08084 0.0
H163 H 0.22958 0.75913 0.03596 0.0
H164 H 0.2432 0.85838 0.53586 0.0
H165 H 0.27017 0.82274 0.60542 0.0
H166 H 0.24075 0.83864 0.4418 0.0
H167 H 0.29245 0.74489 0.4864 0.0
C168 C 0.50317 0.11933 0.95575 0.0
C169 C 0.5643 0.12998 0.94773 0.0
C170 C 0.53638 0.10714 0.94815 0.0
C171 C 0.5584 0.16526 0.95522 0.0
C172 C 0.49711 0.15472 0.963 0.0
C173 C 0.52491 0.17759 0.96281 0.0
N174 N 0.47686 0.09654 0.95649 0.0
C175 C 0.44382 0.10736 0.9628 0.0
C176 C 0.4633 0.166 0.97058 0.0
C177 C 0.43653 0.14222 0.97025 0.0
Gd178 Gd 0.50157 0.97531 0.07759 0.0
Gd179 Gd 0.49195 0.0386 0.94835 0.0
N180 N 0.54137 0.07268 0.94301 0.0
C181 C 0.59734 0.11661 0.94015 0.0
C182 C 0.57331 0.05961 0.9336 0.0
C183 C 0.6018 0.08132 0.93256 0.0
H184 H 0.57695 0.03246 0.92743 0.0
H185 H 0.6272 0.07082 0.92604 0.0
H186 H 0.42629 0.00321 0.1328 0.0
H187 H 0.42308 0.08905 0.9618 0.0
H188 H 0.36726 0.98261 0.14177 0.0
H189 H 0.61951 0.13331 0.93974 0.0
H190 H 0.57957 0.18321 0.9553 0.0
H191 H 0.54757 0.90852 0.03419 0.0
H192 H 0.45757 0.19298 0.97648 0.0
H193 H 0.4103 0.15072 0.97568 0.0
H194 H 0.37206 0.86633 0.07838 0.0
H195 H 0.52078 0.20487 0.96854 0.0
H196 H 0.48065 0.82192 0.01976 0.0
H197 H 0.53836 0.84749 1.01026 0.0
N198 N 0.49567 0.91706 0.05652 0.0
C199 C 0.46389 0.90343 0.06314 0.0
C200 C 0.52236 0.89746 0.03843 0.0
C201 C 0.48462 0.84859 0.03062 0.0
C202 C 0.51722 0.86295 0.02505 0.0
C203 C 0.45745 0.86883 0.04984 0.0
H204 H 0.41864 0.82926 0.04487 0.0
N205 N 0.44431 0.95829 0.09227 0.0
C206 C 0.43742 0.92473 0.08084 0.0
C207 C 0.37838 0.93288 0.10773 0.0
C208 C 0.40409 0.91137 0.08726 0.0
C209 C 0.42001 0.97833 0.11666 0.0
C210 C 0.38656 0.96629 0.12345 0.0
O211 O 0.52069 0.05902 0.02154 0.0
O212 O 0.54493 0.01257 0.06504 0.0
O213 O 0.49835 0.98317 0.16523 0.0
O214 O 0.53348 0.94512 0.13109 0.0
O215 O 0.5261 0.99184 0.93966 0.0
O216 O 0.54786 0.97525 0.02297 0.0
O217 O 0.48076 0.9557 0.99744 0.0
O218 O 0.44975 1.00144 0.96754 0.0
O219 O 0.50172 0.01864 0.86768 0.0
O220 O 0.46373 0.05839 0.87961 0.0
O221 O 0.47604 0.02723 0.0883 0.0
O222 O 0.44842 0.03523 1.00743 0.0
C223 C 0.54278 0.04555 0.05545 0.0
C224 C 0.54827 0.97503 0.96982 0.0
C225 C 0.53341 0.95 0.22901 0.0
C226 C 0.53629 0.95905 0.32687 0.0
C227 C 0.56982 0.91373 0.28435 0.0
C228 C 0.55684 0.92274 0.2341 0.0
C229 C 0.55984 0.93182 0.33031 0.0
C230 C 0.52276 0.96793 0.27597 0.0
C231 C 0.52143 0.95973 0.17436 0.0
C232 C 0.39756 0.87691 0.07396 0.0
C233 C 0.42413 0.85574 0.05518 0.0
H234 H 0.35246 0.92358 0.11328 0.0
C235 C 0.45502 0.96829 0.96976 0.0
C236 C 0.4528 0.04277 0.05862 0.0
C237 C 0.49392 0.05802 0.7967 0.0
C238 C 0.50401 0.06023 0.6991 0.0
C239 C 0.52209 0.10732 0.75765 0.0
C240 C 0.50936 0.09028 0.80246 0.0
C241 C 0.51954 0.09251 0.7065 0.0
C242 C 0.49138 0.04297 0.74491 0.0
C243 C 0.48066 0.03998 0.84454 0.0
H244 H 0.58792 0.89274 0.28763 0.0
H245 H 0.56542 0.90839 0.19909 0.0
H246 H 0.57047 0.92445 0.36886 0.0
H247 H 0.50483 0.98912 0.27289 0.0
H248 H 0.53415 0.13212 0.76261 0.0
H249 H 0.51158 0.10234 0.8416 0.0
H250 H 0.53028 0.10622 0.67276 0.0
H251 H 0.47928 0.01813 0.74035 0.0
C252 C 0.36341 0.2669 0.35515 0.0
C253 C 0.37079 0.32815 0.36966 0.0
C254 C 0.34933 0.29948 0.36195 0.0
C255 C 0.40654 0.3236 0.37065 0.0
C256 C 0.39929 0.2623 0.35581 0.0
C257 C 0.42074 0.2908 0.36365 0.0
N258 N 0.34205 0.23981 0.34722 0.0
C259 C 0.35473 0.20738 0.34108 0.0
C260 C 0.41253 0.22917 0.34833 0.0
C261 C 0.39014 0.20159 0.34106 0.0
Gd262 Gd 0.22632 0.25866 0.21109 0.0
Gd263 Gd 0.28338 0.25256 0.34695 0.0
N264 N 0.31467 0.30331 0.35857 0.0
C265 C 0.35567 0.36059 0.3754 0.0
C266 C 0.29971 0.33466 0.36587 0.0
C267 C 0.31998 0.36381 0.3738 0.0
H268 H 0.27221 0.33732 0.3655 0.0
H269 H 0.30807 0.38873 0.37883 0.0
H270 H 0.25781 0.18399 0.15941 0.0
H271 H 0.3375 0.18588 0.3371 0.0
H272 H 0.239 0.12435 0.1482 0.0
H273 H 0.3713 0.38326 0.38125 0.0
H274 H 0.42345 0.34534 0.37636 0.0
H275 H 0.15674 0.3037 0.24561 0.0
H276 H 0.43996 0.22459 0.34841 0.0
H277 H 0.40014 0.17585 0.33581 0.0
H278 H 0.12039 0.12686 0.19867 0.0
H279 H 0.44838 0.28776 0.3642 0.0
H280 H 0.07148 0.23477 0.25213 0.0
H281 H 0.09523 0.29321 0.26325 0.0
N282 N 0.16754 0.25164 0.22621 0.0
C283 C 0.15495 0.21943 0.21877 0.0
C284 C 0.14658 0.27809 0.24119 0.0
C285 C 0.09845 0.23922 0.24444 0.0
C286 C 0.11177 0.27225 0.25088 0.0
C287 C 0.12003 0.21235 0.22799 0.0
H288 H 0.08108 0.17285 0.2277 0.0
N289 N 0.2112 0.20093 0.19547 0.0
C290 C 0.17744 0.19335 0.20332 0.0
C291 C 0.18786 0.13444 0.17705 0.0
C292 C 0.16506 0.15973 0.19528 0.0
C293 C 0.23261 0.17707 0.17304 0.0
C294 C 0.22162 0.14332 0.16491 0.0
O295 O 0.30633 0.28298 0.27761 0.0
O296 O 0.26174 0.30355 0.22514 0.0
O297 O 0.23992 0.25489 0.12633 0.0
O298 O 0.19731 0.28672 0.15057 0.0
O299 O 0.23462 0.28399 0.34908 0.0
O300 O 0.22197 0.30574 0.26429 0.0
O301 O 0.20432 0.23746 0.28895 0.0
O302 O 0.24887 0.20787 0.32612 0.0
O303 O 0.26067 0.26355 0.42514 0.0
O304 O 0.30255 0.22733 0.41866 0.0
O305 O 0.27939 0.2348 0.20766 0.0
O306 O 0.2849 0.20797 0.28928 0.0
C307 C 0.29416 0.30348 0.24001 0.0
C308 C 0.21887 0.30586 0.3172 0.0
C309 C 0.19351 0.25798 0.06578 0.0
C310 C 0.18854 0.24009 0.97135 0.0
C311 C 0.14331 0.22662 0.0349 0.0
C312 C 0.16142 0.24308 0.07603 0.0
C313 C 0.15684 0.22489 0.98298 0.0
C314 C 0.20683 0.25677 1.01294 0.0
C315 C 0.21394 0.27312 0.11023 0.0
C316 C 0.13028 0.15256 0.20455 0.0
C317 C 0.10786 0.17877 0.2209 0.0
H318 H 0.17936 0.10832 0.17036 0.0
C319 C 0.21595 0.21143 0.31674 0.0
C320 C 0.29379 0.21168 0.23875 0.0
C321 C 0.26149 0.21793 0.48684 0.0
C322 C 0.23847 0.20531 0.57618 0.0
C323 C 0.23112 0.16473 0.50211 0.0
C324 C 0.24868 0.18657 0.46765 0.0
C325 C 0.2257 0.17407 0.55584 0.0
C326 C 0.25659 0.22713 0.54127 0.0
C327 C 0.27968 0.24122 0.45024 0.0
H328 H 0.11872 0.21503 0.04337 0.0
H329 H 0.15035 0.24397 0.11583 0.0
H330 H 0.14239 0.21192 0.95163 0.0
H331 H 0.23158 0.26812 1.00445 0.0
H332 H 0.22188 0.14037 0.48704 0.0
H333 H 0.25243 0.17889 0.42611 0.0
H334 H 0.21204 0.15658 0.58179 0.0
H335 H 0.26643 0.25139 0.55618 0.0
C336 C 0.84761 0.20018 0.20308 0.0
C337 C 0.83034 0.14189 0.18255 0.0
C338 C 0.82228 0.17701 0.18845 0.0
C339 C 0.86384 0.13041 0.19329 0.0
C340 C 0.8814 0.18894 0.21297 0.0
C341 C 0.88934 0.15391 0.2082 0.0
N342 N 0.83898 0.23381 0.20839 0.0
C343 C 0.86318 0.25786 0.22039 0.0
C344 C 0.90619 0.21332 0.22716 0.0
C345 C 0.89709 0.24798 0.23042 0.0
Gd346 Gd 0.72814 0.25642 0.33498 0.0
Gd347 Gd 0.78142 0.24827 0.19338 0.0
N348 N 0.79008 0.18898 0.1784 0.0
C349 C 0.80471 0.11948 0.1647 0.0
C350 C 0.76597 0.16765 0.15668 0.0
C351 C 0.77256 0.13255 0.15077 0.0
H352 H 0.74195 0.1776 0.14224 0.0
H353 H 0.75302 0.1157 0.13454 0.0
H354 H 0.7448 0.33644 0.37405 0.0
H355 H 0.85624 0.28463 0.22243 0.0
H356 H 0.71435 0.39214 0.38281 0.0
H357 H 0.80984 0.09232 0.15967 0.0
H358 H 0.87044 0.1035 0.18928 0.0
H359 H 0.66573 0.19667 0.33493 0.0
H360 H 0.93245 0.20571 0.23513 0.0
H361 H 0.91616 0.26707 0.24062 0.0
H362 H 0.5982 0.36583 0.33229 0.0
H363 H 0.91518 0.14477 0.21554 0.0
H364 H 0.56989 0.2472 0.30648 0.0
H365 H 0.60347 0.19366 0.31698 0.0
N366 N 0.66813 0.25079 0.32716 0.0
C367 C 0.64978 0.28042 0.32585 0.0
C368 C 0.65164 0.21997 0.32735 0.0
C369 C 0.59738 0.24854 0.31262 0.0
C370 C 0.61624 0.21827 0.31846 0.0
C371 C 0.61394 0.28018 0.3181 0.0
H372 H 0.56822 0.31174 0.31192 0.0
N373 N 0.70082 0.30976 0.34599 0.0
C374 C 0.66655 0.31085 0.33679 0.0
C375 C 0.66576 0.37157 0.3567 0.0
C376 C 0.64814 0.34191 0.3408 0.0
C377 C 0.71782 0.33808 0.36449 0.0
C378 C 0.70065 0.36952 0.36945 0.0
O379 O 0.80314 0.23044 0.27331 0.0
O380 O 0.75641 0.20749 0.31448 0.0
O381 O 0.75771 0.26264 0.40858 0.0
O382 O 0.70701 0.2412 0.41238 0.0
O383 O 0.72711 0.2279 0.19542 0.0
O384 O 0.7171 0.20945 0.28233 0.0
O385 O 0.7258 0.29917 0.27338 0.0
O386 O 0.72832 0.27165 0.19183 0.0
O387 O 0.78252 0.23828 0.10735 0.0
O388 O 0.80123 0.2867 0.13818 0.0
O389 O 0.78048 0.28089 0.32965 0.0
O390 O 0.79195 0.29715 0.24145 0.0
C391 C 0.78939 0.20734 0.30465 0.0
C392 C 0.71056 0.20865 0.23014 0.0
C393 C 0.74744 0.22322 0.47778 0.0
C394 C 0.76725 0.20881 0.56863 0.0
C395 C 0.7657 0.16522 0.49776 0.0
C396 C 0.75322 0.18925 0.46126 0.0
C397 C 0.77266 0.17482 0.55098 0.0
C398 C 0.75472 0.233 0.53136 0.0
C399 C 0.73468 0.24883 0.43921 0.0
C400 C 0.61275 0.34214 0.33016 0.0
C401 C 0.59569 0.31134 0.31852 0.0
H402 H 0.65254 0.39597 0.3603 0.0
C403 C 0.71589 0.29588 0.22316 0.0
C404 C 0.79532 0.30111 0.29425 0.0
C405 C 0.82221 0.26724 0.05237 0.0
C406 C 0.83545 0.26104 0.95604 0.0
C407 C 0.8808 0.27295 0.02131 0.0
C408 C 0.857 0.27296 0.06329 0.0
C409 C 0.87021 0.26715 0.9682 0.0
C410 C 0.8116 0.26121 0.99881 0.0
C411 C 0.79619 0.26758 0.09557 0.0
H412 H 0.77006 0.13904 0.4847 0.0
H413 H 0.74809 0.18133 0.42015 0.0
H414 H 0.78273 0.15568 0.57818 0.0
H415 H 0.75025 0.25929 0.54408 0.0
H416 H 0.90762 0.2776 0.02992 0.0
H417 H 0.86576 0.27754 0.10408 0.0
H418 H 0.88928 0.26788 0.93658 0.0
H419 H 0.78474 0.25625 0.99068 0.0
C420 C 0.83957 0.80153 0.86105 0.0
C421 C 0.8226 0.85492 0.90427 0.0
C422 C 0.81397 0.82311 0.88052 0.0
C423 C 0.85717 0.86488 0.90722 0.0
C424 C 0.87431 0.81129 0.86431 0.0
C425 C 0.88296 0.84311 0.88737 0.0
N426 N 0.8304 0.77126 0.83788 0.0
C427 C 0.85463 0.74868 0.81974 0.0
C428 C 0.89931 0.78875 0.84417 0.0
C429 C 0.88942 0.75722 0.82209 0.0
Gd430 Gd 0.72411 0.75841 0.69057 0.0
Gd431 Gd 0.77188 0.75833 0.8383 0.0
N432 N 0.78074 0.81279 0.87701 0.0
C433 C 0.79627 0.87555 0.92509 0.0
C434 C 0.75529 0.83182 0.9004 0.0
C435 C 0.7625 0.86375 0.92368 0.0
H436 H 0.72953 0.82204 0.90288 0.0
H437 H 0.7421 0.87893 0.94144 0.0
H438 H 0.74228 0.68147 0.64064 0.0
H439 H 0.84718 0.72401 0.80371 0.0
H440 H 0.71186 0.62732 0.6184 0.0
H441 H 0.80183 0.90017 0.9436 0.0
H442 H 0.86427 0.88928 0.92513 0.0
H443 H 0.66053 0.81763 0.71229 0.0
H444 H 0.92628 0.79531 0.84589 0.0
H445 H 0.90859 0.73942 0.80716 0.0
H446 H 0.59527 0.64949 0.67111 0.0
H447 H 0.9095 0.85112 0.89005 0.0
H448 H 0.56623 0.76344 0.72832 0.0
H449 H 0.59898 0.8176 0.73252 0.0
N450 N 0.66437 0.76315 0.70506 0.0
C451 C 0.64631 0.73356 0.69826 0.0
C452 C 0.64736 0.79339 0.71393 0.0
C453 C 0.59366 0.76306 0.72134 0.0
C454 C 0.61207 0.79366 0.72393 0.0
C455 C 0.61052 0.73269 0.70664 0.0
H456 H 0.56508 0.70075 0.70501 0.0
N457 N 0.69773 0.70592 0.67181 0.0
C458 C 0.66327 0.70444 0.67952 0.0
C459 C 0.66283 0.64601 0.64623 0.0
C460 C 0.64499 0.67408 0.66815 0.0
C461 C 0.71511 0.67921 0.64856 0.0
C462 C 0.69797 0.64872 0.63593 0.0
O463 O 0.79899 0.78674 0.77066 0.0
O464 O 0.75681 0.80475 0.71065 0.0
O465 O 0.74888 0.75188 0.61249 0.0
O466 O 0.70045 0.77839 0.61803 0.0
O467 O 0.71939 0.78211 0.82766 0.0
O468 O 0.7166 0.80587 0.74318 0.0
O469 O 0.71877 0.71219 0.74642 0.0
O470 O 0.71772 0.7411 0.8254 0.0
O471 O 0.76483 0.75749 0.92477 0.0
O472 O 0.7874 0.71358 0.88472 0.0
O473 O 0.77794 0.7383 0.69724 0.0
O474 O 0.7842 0.71381 0.78149 0.0
C475 C 0.78811 0.80629 0.73088 0.0
C476 C 0.7105 0.80713 0.79532 0.0
C477 C 0.737 0.79324 0.54569 0.0
C478 C 0.75485 0.80476 0.45292 0.0
C479 C 0.75022 0.85134 0.51858 0.0
C480 C 0.73978 0.82828 0.55798 0.0
C481 C 0.75775 0.83976 0.46653 0.0
C482 C 0.74463 0.78158 0.4932 0.0
C483 C 0.7253 0.76861 0.58652 0.0
C484 C 0.60965 0.67277 0.67868 0.0
C485 C 0.5925 0.70194 0.69817 0.0
H486 H 0.64967 0.62228 0.63678 0.0
C487 C 0.71037 0.71363 0.79755 0.0
C488 C 0.79071 0.71486 0.72927 0.0
C489 C 0.8053 0.72658 0.97505 0.0
C490 C 0.81875 0.73498 0.07087 0.0
C491 C 0.86349 0.71831 1.00732 0.0
C492 C 0.83982 0.71842 0.96512 0.0
C493 C 0.85315 0.72653 0.05971 0.0
C494 C 0.79491 0.73468 0.02806 0.0
C495 C 0.77988 0.72805 0.93083 0.0
H496 H 0.75265 0.87831 0.52847 0.0
H497 H 0.73402 0.83778 0.59807 0.0
H498 H 0.76618 0.85822 0.43704 0.0
H499 H 0.74187 0.75456 0.48355 0.0
H500 H 0.89005 0.71192 0.99937 0.0
H501 H 0.84857 0.71228 0.92484 0.0
H502 H 0.87209 0.72599 0.09161 0.0
H503 H 0.76838 0.74155 0.03565 0.0
C504 C 0.50837 0.39421 0.94526 0.0
C505 C 0.44948 0.37812 0.92652 0.0
C506 C 0.47455 0.40342 0.93616 0.0
C507 C 0.45874 0.34331 0.92864 0.0
C508 C 0.518 0.35933 0.94607 0.0
C509 C 0.49289 0.33393 0.9387 0.0
N510 N 0.53212 0.41938 0.95063 0.0
C511 C 0.56618 0.41156 0.95367 0.0
C512 C 0.55272 0.35109 0.95282 0.0
C513 C 0.57697 0.37735 0.95605 0.0
Gd514 Gd 0.50951 0.53667 0.08535 0.0
Gd515 Gd 0.51149 0.47593 0.94942 0.0
N516 N 0.46632 0.43729 0.93524 0.0
C517 C 0.41594 0.38864 0.91465 0.0
C518 C 0.43413 0.44778 0.92085 0.0
C519 C 0.40834 0.42362 0.91125 0.0
H520 H 0.42837 0.47482 0.91767 0.0
H521 H 0.38267 0.43198 0.90102 0.0
H522 H 0.57571 0.49643 0.14936 0.0
H523 H 0.58506 0.43177 0.95385 0.0
H524 H 0.63745 0.50473 0.16237 0.0
H525 H 0.39591 0.36999 0.90718 0.0
H526 H 0.43977 0.32347 0.92198 0.0
H527 H 0.4786 0.61094 0.04156 0.0
H528 H 0.56117 0.3246 0.95401 0.0
H529 H 0.60398 0.37128 0.95967 0.0
H530 H 0.65766 0.61829 0.09836 0.0
H531 H 0.49975 0.30699 0.93949 0.0
H532 H 0.56154 0.68267 0.03354 0.0
H533 H 0.50004 0.66917 0.0209 0.0
N534 N 0.52773 0.59187 0.06333 0.0
C535 C 0.56142 0.59886 0.0718 0.0
C536 C 0.5055 0.61677 0.04668 0.0
C537 C 0.55229 0.65713 0.04228 0.0
C538 C 0.51755 0.64962 0.03508 0.0
C539 C 0.57461 0.63176 0.0614 0.0
H540 H 0.61979 0.66384 0.06487 0.0
N541 N 0.56872 0.54205 0.10371 0.0
C542 C 0.58261 0.57307 0.09155 0.0
C543 C 0.63779 0.55439 0.12512 0.0
C544 C 0.61758 0.57995 0.10167 0.0
C545 C 0.58756 0.51867 0.13201 0.0
C546 C 0.62253 0.52386 0.14128 0.0
O547 O 0.47159 0.45963 1.0112 0.0
O548 O 0.4745 0.49102 0.09185 0.0
O549 O 0.51586 0.54319 0.1721 0.0
O550 O 0.47376 0.56777 0.13162 0.0
O551 O 0.47406 0.52047 0.94972 0.0
O552 O 0.46145 0.54226 0.03557 0.0
O553 O 0.52511 0.55494 1.00191 0.0
O554 O 0.55615 0.50973 0.97135 0.0
O555 O 0.50398 0.50539 0.87598 0.0
O556 O 0.53416 0.45897 0.87392 0.0
O557 O 0.52818 0.48179 0.09311 0.0
O558 O 0.5539 0.47548 1.01121 0.0
C559 C 0.46191 0.46623 0.06127 0.0
C560 C 0.45558 0.53937 0.98335 0.0
C561 C 0.46388 0.54862 0.22081 0.0
C562 C 0.45392 0.53242 0.31455 0.0
C563 C 0.40735 0.53005 0.24952 0.0
C564 C 0.42927 0.54155 0.20926 0.0
C565 C 0.41957 0.52521 0.30166 0.0
C566 C 0.47597 0.54446 0.27395 0.0
C567 C 0.4874 0.56023 0.17784 0.0
C568 C 0.63093 0.61255 0.09056 0.0
C569 C 0.60939 0.63848 0.07123 0.0
H570 H 0.66474 0.55865 0.13338 0.0
C571 C 0.55159 0.54287 0.97529 0.0
C572 C 0.54889 0.46493 0.06057 0.0
C573 C 0.50104 0.4714 0.79674 0.0
C574 C 0.48444 0.47912 0.70266 0.0
C575 C 0.46213 0.43114 0.75332 0.0
C576 C 0.48091 0.4416 0.7982 0.0
C577 C 0.46367 0.44986 0.70591 0.0
C578 C 0.50314 0.48999 0.74832 0.0
C579 C 0.51964 0.48292 0.84557 0.0
H580 H 0.38076 0.52473 0.24021 0.0
H581 H 0.41907 0.54467 0.16903 0.0
H582 H 0.40203 0.51621 0.33222 0.0
H583 H 0.50254 0.54998 0.28345 0.0
H584 H 0.44653 0.40825 0.75519 0.0
H585 H 0.47987 0.42611 0.83383 0.0
H586 H 0.44918 0.44109 0.67122 0.0
H587 H 0.51904 0.5127 0.74622 0.0
C588 C 0.01903 0.60994 0.46394 0.0
C589 C 0.08029 0.61538 0.44957 0.0
C590 C 0.05045 0.59516 0.45218 0.0
C591 C 0.07829 0.65051 0.4621 0.0
C592 C 0.01658 0.64552 0.47389 0.0
C593 C 0.04651 0.66553 0.47455 0.0
N594 N 0.99058 0.58995 0.46156 0.0
C595 C 0.95872 0.60461 0.46302 0.0
C596 C 0.984 0.6601 0.48062 0.0
C597 C 0.95491 0.63965 0.4741 0.0
Gd598 Gd 0.9945 0.47768 0.59261 0.0
Gd599 Gd 1.00017 0.53054 0.45033 0.0
N600 N 0.05152 0.56112 0.44074 0.0
C601 C 0.11097 0.59982 0.43294 0.0
C602 C 0.08075 0.54618 0.42116 0.0
C603 C 0.11106 0.56519 0.41776 0.0
H604 H 0.08074 0.5193 0.41004 0.0
H605 H 0.13447 0.55311 0.40379 0.0
H606 H 0.92488 0.5182 0.64546 0.0
H607 H 0.93606 0.58931 0.45603 0.0
H608 H 0.86306 0.50766 0.6549 0.0
H609 H 0.13449 0.61446 0.4305 0.0
H610 H 0.10096 0.66648 0.4607 0.0
H611 H 0.03022 0.40252 0.56221 0.0
H612 H 0.98099 0.68731 0.48855 0.0
H613 H 0.92956 0.65091 0.47705 0.0
H614 H 0.8494 0.39031 0.59939 0.0
H615 H 0.04521 0.69284 0.48269 0.0
H616 H 0.95065 0.3271 0.55089 0.0
H617 H 0.01203 0.34268 0.54423 0.0
N618 N 0.97963 0.42023 0.57786 0.0
C619 C 0.94602 0.412 0.58385 0.0
C620 C 0.00343 0.39577 0.5652 0.0
C621 C 0.95853 0.35326 0.55903 0.0
C622 C 0.9932 0.36196 0.55513 0.0
C623 C 0.93446 0.37834 0.5739 0.0
H624 H 0.88999 0.34514 0.57146 0.0
N625 N 0.93542 0.46976 0.60882 0.0
C626 C 0.92318 0.43766 0.59897 0.0
C627 C 0.86612 0.45588 0.62435 0.0
C628 C 0.88811 0.42998 0.60569 0.0
C629 C 0.91459 0.49415 0.63131 0.0
C630 C 0.87956 0.48792 0.63815 0.0
O631 O 0.04395 0.53293 0.51062 0.0
O632 O 0.01748 0.53074 0.59278 0.0
O633 O 0.98598 0.47745 0.67889 0.0
O634 O 0.03364 0.45765 0.64694 0.0
O635 O 0.02647 0.47886 0.45475 0.0
O636 O 0.04285 0.46782 0.54367 0.0
O637 O 0.97661 0.45465 0.51304 0.0
O638 O 0.95281 0.5009 0.47164 0.0
O639 O 0.00677 0.50155 0.37589 0.0
O640 O 0.98388 0.55176 0.37353 0.0
O641 O 0.97425 0.53197 0.59011 0.0
O642 O 0.95323 0.53806 0.50385 0.0
C643 C 0.04162 0.54246 0.56121 0.0
C644 C 0.04584 0.46343 0.49095 0.0
C645 C 0.0149 0.43714 0.73287 0.0
C646 C 0.00931 0.42392 0.82896 0.0
C647 C 0.02047 0.37845 0.76332 0.0
C648 C 0.02038 0.40227 0.72159 0.0
C649 C 0.01509 0.3891 0.81656 0.0
C650 C 0.0092 0.44778 0.78654 0.0
C651 C 0.01522 0.46317 0.68998 0.0
C652 C 0.87629 0.3966 0.59486 0.0
C653 C 0.89942 0.37084 0.57909 0.0
H654 H 0.83902 0.45103 0.63008 0.0
C655 C 0.95417 0.4678 0.47956 0.0
C656 C 0.95386 0.54689 0.55515 0.0
C657 C 0.9668 0.51153 0.30664 0.0
C658 C 0.95352 0.48907 0.2164 0.0
C659 C 0.90866 0.49474 0.28433 0.0
C660 C 0.93235 0.50769 0.32133 0.0
C661 C 0.91904 0.48555 0.23236 0.0
C662 C 0.97732 0.50218 0.25422 0.0
C663 C 0.99214 0.52448 0.34592 0.0
H664 H 0.02469 0.35155 0.75438 0.0
H665 H 0.02465 0.39346 0.6807 0.0
H666 H 0.01495 0.36998 0.84795 0.0
H667 H 0.00517 0.47478 0.79531 0.0
H668 H 0.88206 0.49197 0.29587 0.0
H669 H 0.92381 0.51477 0.36136 0.0
H670 H 0.89986 0.47616 0.20441 0.0
H671 H 0.0041 0.50471 0.24328 0.0
C672 C 0.09837 0.08305 0.48434 0.0
C673 C 0.07156 0.06855 0.45428 0.0
C674 C 0.12136 0.10649 0.4614 0.0
C675 C 0.11887 0.11435 0.40595 0.0
C676 C 0.09277 0.09868 0.37466 0.0
C677 C 0.06914 0.07652 0.39929 0.0
C678 C 0.14865 0.12217 0.49687 0.0
C679 C 0.08984 0.10525 0.31508 0.0
C680 C 0.15866 0.19748 0.35578 0.0
C681 C 0.19124 0.18648 0.33905 0.0
C682 C 0.13488 0.17431 0.37742 0.0
C683 C 0.14344 0.13903 0.38092 0.0
C684 C 0.1761 0.12773 0.3629 0.0
C685 C 0.19979 0.15167 0.34292 0.0
C686 C 0.10104 0.18781 0.39826 0.0
C687 C 0.18612 0.09037 0.36506 0.0
H688 H 0.10155 0.07615 0.52598 0.0
H689 H 0.04884 0.06529 0.37516 0.0
H690 H 0.1716 0.10532 0.4962 0.0
H691 H 0.15617 0.14814 0.48343 0.0
H692 H 0.13993 0.12422 0.53917 0.0
H693 H 0.06938 0.08966 0.29575 0.0
H694 H 0.08408 0.13271 0.30824 0.0
H695 H 0.11463 0.09941 0.29504 0.0
H696 H 0.15204 0.22444 0.35307 0.0
H697 H 0.22485 0.14305 0.32945 0.0
H698 H 0.09868 0.18201 0.44178 0.0
H699 H 0.07949 0.17487 0.37729 0.0
H700 H 0.09834 0.21595 0.39273 0.0
H701 H 0.18884 0.08246 0.40764 0.0
H702 H 0.21074 0.08517 0.34401 0.0
H703 H 0.16579 0.07425 0.34657 0.0
C704 C 0.08777 0.94282 0.62909 0.0
C705 C 0.08075 0.94415 0.57363 0.0
C706 C 0.11197 0.91974 0.65005 0.0
C707 C 0.12917 0.89665 0.61502 0.0
C708 C 0.12267 0.89807 0.55894 0.0
C709 C 0.09893 0.92211 0.53885 0.0
C710 C 0.11853 0.91956 0.70999 0.0
C711 C 0.13997 0.87345 0.52036 0.0
C712 C 0.20983 0.85204 0.66677 0.0
C713 C 0.19651 0.82105 0.68572 0.0
C714 C 0.18833 0.87675 0.64303 0.0
C715 C 0.15275 0.87011 0.63759 0.0
C716 C 0.13935 0.83854 0.65591 0.0
C717 C 0.16132 0.81456 0.68002 0.0
C718 C 0.20352 0.91036 0.62525 0.0
C719 C 0.10169 0.83018 0.65061 0.0
H720 H 0.07412 0.95967 0.65659 0.0
H721 H 0.09402 0.92295 0.49595 0.0
H722 H 0.10859 0.89546 0.72743 0.0
H723 H 0.14649 0.92044 0.71833 0.0
H724 H 0.106 0.94152 0.73094 0.0
H725 H 0.133 0.87851 0.47778 0.0
H726 H 0.16824 0.87509 0.52457 0.0
H727 H 0.13253 0.84676 0.53021 0.0
H728 H 0.2369 0.85741 0.67191 0.0
H729 H 0.1509 0.79055 0.69436 0.0
H730 H 0.19194 0.93173 0.64881 0.0
H731 H 0.19749 0.91495 0.58226 0.0
H732 H 0.23181 0.9111 0.63059 0.0
H733 H 0.08638 0.84808 0.67591 0.0
H734 H 0.09585 0.80354 0.66317 0.0
H735 H 0.0932 0.83355 0.60832 0.0
C736 C 0.31677 0.82999 0.87515 0.0
C737 C 0.31404 0.82695 0.81889 0.0
C738 C 0.33918 0.85366 0.89919 0.0
C739 C 0.35988 0.87465 0.86635 0.0
C740 C 0.357 0.87214 0.8096 0.0
C741 C 0.33386 0.84861 0.78656 0.0
C742 C 0.34127 0.85553 0.95985 0.0
C743 C 0.37878 0.89395 0.77322 0.0
C744 C 0.39776 0.9555 0.92888 0.0
C745 C 0.431 0.94465 0.94216 0.0
C746 C 0.37442 0.93305 0.90392 0.0
C747 C 0.38467 0.89902 0.89153 0.0
C748 C 0.41834 0.88804 0.90444 0.0
C749 C 0.44109 0.911 0.92953 0.0
C750 C 0.33856 0.94553 0.89182 0.0
C751 C 0.43028 0.85195 0.89217 0.0
H752 H 0.30161 0.81357 0.90079 0.0
H753 H 0.33167 0.84694 0.74315 0.0
H754 H 0.36595 0.84423 0.97323 0.0
H755 H 0.34059 0.88256 0.97413 0.0
H756 H 0.3201 0.8413 0.97947 0.0
H757 H 0.37345 0.88901 0.72993 0.0
H758 H 0.37417 0.92153 0.78196 0.0
H759 H 0.40634 0.8888 0.78105 0.0
H760 H 0.38974 0.98142 0.93886 0.0
H761 H 0.4669 0.90261 0.93908 0.0
H762 H 0.31966 0.9299 0.91419 0.0
H763 H 0.33288 0.94231 0.84832 0.0
H764 H 0.33481 0.97293 0.90302 0.0
H765 H 0.415 0.83345 0.91583 0.0
H766 H 0.45784 0.84808 0.90192 0.0
H767 H 0.42615 0.84582 0.84896 0.0
C768 C 0.4424 0.08791 0.12803 0.0
C769 C 0.43017 0.06822 0.08474 0.0
C770 C 0.42126 0.11211 0.15377 0.0
C771 C 0.38692 0.11612 0.13635 0.0
C772 C 0.37442 0.09616 0.09272 0.0
C773 C 0.39631 0.07252 0.06721 0.0
C774 C 0.43567 0.13337 0.19951 0.0
C775 C 0.33784 0.09953 0.07338 0.0
C776 C 0.32208 0.15423 0.23384 0.0
C777 C 0.31874 0.18769 0.21437 0.0
C778 C 0.34438 0.13069 0.209 0.0
C779 C 0.36395 0.14105 0.16399 0.0
C780 C 0.36112 0.17502 0.14482 0.0
C781 C 0.33831 0.19789 0.17003 0.0
C782 C 0.34652 0.09456 0.23023 0.0
C783 C 0.38186 0.18709 0.09729 0.0
H784 H 0.46868 0.08465 0.14144 0.0
H785 H 0.38677 0.05697 0.0341 0.0
H786 H 0.43282 0.16107 0.1905 0.0
H787 H 0.42108 0.1284 0.23694 0.0
H788 H 0.46322 0.1278 0.20704 0.0
H789 H 0.33205 0.08182 0.03935 0.0
H790 H 0.31989 0.09408 0.10686 0.0
H791 H 0.33283 0.1262 0.06023 0.0
H792 H 0.30661 0.1462 0.2677 0.0
H793 H 0.33582 0.22383 0.15507 0.0
H794 H 0.37334 0.08839 0.2416 0.0
H795 H 0.33882 0.07607 0.19829 0.0
H796 H 0.32981 0.09071 0.26587 0.0
H797 H 0.40952 0.18178 0.10385 0.0
H798 H 0.37848 0.21496 0.08983 0.0
H799 H 0.374 0.17278 0.06057 0.0
C800 C 0.9005 0.95682 0.60064 0.0
C801 C 0.93333 0.94522 0.58627 0.0
C802 C 0.8764 0.93454 0.62374 0.0
C803 C 0.88531 0.89978 0.63278 0.0
C804 C 0.91847 0.88798 0.61832 0.0
C805 C 0.94207 0.91085 0.59548 0.0
C806 C 0.84141 0.94822 0.63868 0.0
C807 C 0.92904 0.85114 0.62685 0.0
C808 C 0.83523 0.84983 0.73799 0.0
C809 C 0.8126 0.83058 0.70615 0.0
C810 C 0.85893 0.87244 0.71476 0.0
C811 C 0.86012 0.8759 0.65805 0.0
C812 C 0.83729 0.85643 0.62565 0.0
C813 C 0.81375 0.83415 0.65012 0.0
C814 C 0.88291 0.89235 0.75098 0.0
C815 C 0.83778 0.85897 0.56512 0.0
H816 H 0.89354 0.98334 0.59343 0.0
H817 H 0.96755 0.90183 0.58516 0.0
H818 H 0.82128 0.93338 0.61724 0.0
H819 H 0.83702 0.945 0.68247 0.0
H820 H 0.83835 0.97579 0.6287 0.0
H821 H 0.95589 0.84612 0.61403 0.0
H822 H 0.92647 0.84445 0.66998 0.0
H823 H 0.91181 0.83385 0.60373 0.0
H824 H 0.83399 0.84781 0.78116 0.0
H825 H 0.79675 0.81882 0.62532 0.0
H826 H 0.8828 0.91986 0.74016 0.0
H827 H 0.90948 0.88269 0.74551 0.0
H828 H 0.87595 0.89009 0.79412 0.0
H829 H 0.8644 0.8568 0.55004 0.0
H830 H 0.82774 0.88441 0.55287 0.0
H831 H 0.82211 0.83868 0.5455 0.0
C832 C 0.90154 0.08074 0.49092 0.0
C833 C 0.93191 0.07237 0.46352 0.0
C834 C 0.87755 0.10376 0.46878 0.0
C835 C 0.88326 0.11748 0.41688 0.0
C836 C 0.9137 0.1088 0.38888 0.0
C837 C 0.93782 0.08691 0.41284 0.0
C838 C 0.84593 0.11305 0.50071 0.0
C839 C 0.92037 0.12176 0.33275 0.0
C840 C 0.80741 0.14893 0.33348 0.0
C841 C 0.81199 0.18447 0.33568 0.0
C842 C 0.83023 0.12676 0.3601 0.0
C843 C 0.85745 0.14064 0.39124 0.0
C844 C 0.86125 0.17672 0.39505 0.0
C845 C 0.83889 0.19819 0.36627 0.0
C846 C 0.82596 0.0885 0.35332 0.0
C847 C 0.88927 0.19264 0.42888 0.0
H848 H 0.89625 0.06902 0.52941 0.0
H849 H 0.96114 0.0806 0.39115 0.0
H850 H 0.84205 0.14126 0.50109 0.0
H851 H 0.82308 0.10131 0.48149 0.0
H852 H 0.84748 0.10401 0.54294 0.0
H853 H 0.94596 0.11388 0.31729 0.0
H854 H 0.90045 0.11151 0.30511 0.0
H855 H 0.91859 0.15014 0.33174 0.0
H856 H 0.78672 0.13847 0.30924 0.0
H857 H 0.84222 0.22579 0.36801 0.0
H858 H 0.82322 0.07621 0.39317 0.0
H859 H 0.8492 0.07743 0.33403 0.0
H860 H 0.80328 0.08184 0.32828 0.0
H861 H 0.88882 0.18189 0.47012 0.0
H862 H 0.88674 0.22099 0.43174 0.0
H863 H 0.91467 0.1864 0.4112 0.0
C864 C 0.67215 0.18959 0.15508 0.0
C865 C 0.68417 0.18494 0.20791 0.0
C866 C 0.64912 0.16649 0.13121 0.0
C867 C 0.63638 0.13881 0.16163 0.0
C868 C 0.64738 0.13455 0.21557 0.0
C869 C 0.67187 0.15711 0.23757 0.0
C870 C 0.63908 0.17128 0.07294 0.0
C871 C 0.63339 0.1061 0.24997 0.0
C872 C 0.55436 0.09924 0.10677 0.0
C873 C 0.56666 0.06887 0.08327 0.0
C874 C 0.57654 0.12153 0.13446 0.0
C875 C 0.6121 0.11402 0.1363 0.0
C876 C 0.62468 0.08361 0.11154 0.0
C877 C 0.60163 0.06098 0.0863 0.0
C878 C 0.5619 0.15307 0.16171 0.0
C879 C 0.66256 0.07546 0.11038 0.0
H880 H 0.68141 0.21098 0.13161 0.0
H881 H 0.68162 0.15264 0.27773 0.0
H882 H 0.6453 0.14775 0.04943 0.0
H883 H 0.61102 0.17545 0.06956 0.0
H884 H 0.65238 0.19336 0.05426 0.0
H885 H 0.64196 0.10831 0.29252 0.0
H886 H 0.60492 0.1064 0.24895 0.0
H887 H 0.64189 0.0809 0.2338 0.0
H888 H 0.52721 0.1052 0.10439 0.0
H889 H 0.61106 0.03763 0.06744 0.0
H890 H 0.5707 0.17641 0.14064 0.0
H891 H 0.57119 0.15485 0.20389 0.0
H892 H 0.53339 0.15303 0.16191 0.0
H893 H 0.67666 0.09657 0.09052 0.0
H894 H 0.6682 0.05111 0.08858 0.0
H895 H 0.67266 0.07345 0.15197 0.0
C896 C 0.69012 0.86774 0.80291 0.0
C897 C 0.68651 0.83317 0.81637 0.0
C898 C 0.66891 0.89284 0.82664 0.0
C899 C 0.64312 0.8828 0.86345 0.0
C900 C 0.63886 0.84769 0.87578 0.0
C901 C 0.66087 0.82336 0.85252 0.0
C902 C 0.6745 0.93009 0.81322 0.0
C903 C 0.61113 0.83582 0.91375 0.0
C904 C 0.60479 0.94431 0.9665 0.0
C905 C 0.57374 0.9532 0.94174 0.0
C906 C 0.62835 0.92249 0.94046 0.0
C907 C 0.62025 0.90875 0.88904 0.0
C908 C 0.5891 0.91797 0.86368 0.0
C909 C 0.56638 0.94033 0.89013 0.0
C910 C 0.6616 0.9136 0.96833 0.0
C911 C 0.57917 0.90325 0.80945 0.0
H912 H 0.71021 0.87519 0.77524 0.0
H913 H 0.65797 0.79649 0.86248 0.0
H914 H 0.65067 0.94131 0.79632 0.0
H915 H 0.68068 0.94472 0.85045 0.0
H916 H 0.69563 0.93363 0.78383 0.0
H917 H 0.61061 0.80746 0.91769 0.0
H918 H 0.61517 0.84729 0.95425 0.0
H919 H 0.58565 0.84459 0.89933 0.0
H920 H 0.61066 0.95441 1.00622 0.0
H921 H 0.54225 0.94684 0.87097 0.0
H922 H 0.68362 0.91893 0.94142 0.0
H923 H 0.66224 0.88581 0.9775 0.0
H924 H 0.66509 0.92823 1.00649 0.0
H925 H 0.59961 0.90821 0.77951 0.0
H926 H 0.55468 0.91414 0.79421 0.0
H927 H 0.57637 0.87501 0.81245 0.0
C928 C 0.61073 0.55978 0.94695 0.0
C929 C 0.57543 0.56661 0.94791 0.0
C930 C 0.63379 0.58267 0.92265 0.0
C931 C 0.62114 0.61252 0.89695 0.0
C932 C 0.58534 0.61913 0.8971 0.0
C933 C 0.56302 0.59644 0.92342 0.0
C934 C 0.67176 0.57523 0.92533 0.0
C935 C 0.57059 0.65022 0.86948 0.0
C936 C 0.6786 0.69033 0.87674 0.0
C937 C 0.68912 0.68646 0.823 0.0
C938 C 0.65731 0.6661 0.90142 0.0
C939 C 0.64535 0.63745 0.87157 0.0
C940 C 0.65633 0.63302 0.81755 0.0
C941 C 0.67869 0.65714 0.79443 0.0
C942 C 0.64774 0.67115 0.95967 0.0
C943 C 0.64364 0.60341 0.78359 0.0
H944 H 0.6204 0.53697 0.96661 0.0
H945 H 0.5357 0.60174 0.92412 0.0
H946 H 0.68254 0.57324 0.88413 0.0
H947 H 0.68513 0.59667 0.94607 0.0
H948 H 0.67749 0.55108 0.94708 0.0
H949 H 0.54209 0.65035 0.86978 0.0
H950 H 0.57975 0.67391 0.88982 0.0
H951 H 0.57955 0.65112 0.82711 0.0
H952 H 0.68697 0.71247 0.89986 0.0
H953 H 0.68778 0.65311 0.75386 0.0
H954 H 0.65672 0.64876 0.98314 0.0
H955 H 0.61946 0.67266 0.96379 0.0
H956 H 0.65912 0.69475 0.97743 0.0
H957 H 0.64679 0.57883 0.80521 0.0
H958 H 0.65725 0.60151 0.74444 0.0
H959 H 0.61583 0.60687 0.77559 0.0
C960 C 0.66891 0.30973 0.15816 0.0
C961 C 0.69041 0.3201 0.20053 0.0
C962 C 0.64479 0.33242 0.13581 0.0
C963 C 0.64215 0.36634 0.15623 0.0
C964 C 0.66366 0.37685 0.19926 0.0
C965 C 0.68766 0.35366 0.22063 0.0
C966 C 0.62228 0.32016 0.09009 0.0
C967 C 0.66152 0.41269 0.22249 0.0
C968 C 0.60603 0.43568 0.06514 0.0
C969 C 0.57233 0.43904 0.08407 0.0
C970 C 0.62882 0.41189 0.08788 0.0
C971 C 0.61783 0.39121 0.13117 0.0
C972 C 0.58382 0.3946 0.15063 0.0
C973 C 0.56152 0.4186 0.12698 0.0
C974 C 0.66482 0.40914 0.06589 0.0
C975 C 0.57113 0.37333 0.19701 0.0
H976 H 0.67083 0.28374 0.14258 0.0
H977 H 0.70471 0.36199 0.25252 0.0
H978 H 0.59486 0.32347 0.10093 0.0
H979 H 0.62701 0.33588 0.05381 0.0
H980 H 0.62692 0.29278 0.07968 0.0
H981 H 0.68084 0.41718 0.25466 0.0
H982 H 0.6654 0.43189 0.19034 0.0
H983 H 0.63561 0.41714 0.2396 0.0
H984 H 0.61484 0.45214 0.03306 0.0
H985 H 0.53555 0.42136 0.14201 0.0
H986 H 0.67006 0.38243 0.05246 0.0
H987 H 0.68363 0.41542 0.09801 0.0
H988 H 0.66915 0.42659 0.03142 0.0
H989 H 0.57735 0.34582 0.19048 0.0
H990 H 0.54302 0.37599 0.20307 0.0
H991 H 0.58429 0.38163 0.23445 0.0
C992 C 0.94281 0.41128 0.43524 0.0
C993 C 0.93224 0.44489 0.44691 0.0
C994 C 0.92191 0.38907 0.40504 0.0
C995 C 0.88942 0.40059 0.38687 0.0
C996 C 0.87892 0.43474 0.39786 0.0
C997 C 0.90055 0.45653 0.42756 0.0
C998 C 0.93422 0.35296 0.3939 0.0
C999 C 0.84416 0.44778 0.38052 0.0
C1000 C 0.83966 0.34779 0.28307 0.0
C1001 C 0.81888 0.32769 0.3164 0.0
C1002 C 0.863 0.37159 0.30524 0.0
C1003 C 0.86495 0.37588 0.36189 0.0
C1004 C 0.84348 0.35629 0.3955 0.0
C1005 C 0.82106 0.33236 0.37248 0.0
C1006 C 0.88572 0.39195 0.26819 0.0
C1007 C 0.84444 0.36024 0.45607 0.0
H1008 H 0.96748 0.40233 0.4497 0.0
H1009 H 0.89222 0.48244 0.43696 0.0
H1010 H 0.91864 0.33458 0.41731 0.0
H1011 H 0.93092 0.34643 0.35065 0.0
H1012 H 0.96161 0.34936 0.40499 0.0
H1013 H 0.84122 0.4758 0.38765 0.0
H1014 H 0.83985 0.44233 0.33717 0.0
H1015 H 0.82387 0.43424 0.40326 0.0
H1016 H 0.83809 0.34463 0.23978 0.0
H1017 H 0.8052 0.31722 0.39898 0.0
H1018 H 0.91303 0.38866 0.27979 0.0
H1019 H 0.87959 0.41965 0.2721 0.0
H1020 H 0.88261 0.38419 0.22535 0.0
H1021 H 0.86986 0.35202 0.47136 0.0
H1022 H 0.82441 0.34477 0.47632 0.0
H1023 H 0.84089 0.38754 0.46779 0.0
C1024 C 0.83307 0.6996 0.65811 0.0
C1025 C 0.81529 0.69032 0.70489 0.0
C1026 C 0.85535 0.67661 0.6322 0.0
C1027 C 0.85965 0.64324 0.65307 0.0
C1028 C 0.8418 0.63362 0.70031 0.0
C1029 C 0.82002 0.65746 0.72604 0.0
C1030 C 0.87447 0.68812 0.58264 0.0
C1031 C 0.84556 0.5981 0.72335 0.0
C1032 C 0.89606 0.57489 0.55872 0.0
C1033 C 0.93011 0.57316 0.57637 0.0
C1034 C 0.87262 0.59739 0.58369 0.0
C1035 C 0.88385 0.61895 0.6264 0.0
C1036 C 0.91854 0.61791 0.64305 0.0
C1037 C 0.94113 0.59478 0.61817 0.0
C1038 C 0.83573 0.59759 0.56522 0.0
C1039 C 0.93179 0.64105 0.68743 0.0
H1040 H 0.82977 0.72511 0.64177 0.0
H1041 H 0.8061 0.65012 0.76189 0.0
H1042 H 0.90253 0.68597 0.58941 0.0
H1043 H 0.86806 0.67123 0.54796 0.0
H1044 H 0.86834 0.71503 0.57172 0.0
H1045 H 0.82897 0.59423 0.75912 0.0
H1046 H 0.8389 0.57858 0.69235 0.0
H1047 H 0.87262 0.59351 0.73516 0.0
H1048 H 0.88752 0.55781 0.52682 0.0
H1049 H 0.96755 0.59346 0.63163 0.0
H1050 H 0.82839 0.62364 0.55163 0.0
H1051 H 0.81868 0.59102 0.59933 0.0
H1052 H 0.83108 0.57911 0.53176 0.0
H1053 H 0.92684 0.66828 0.67726 0.0
H1054 H 0.95974 0.63766 0.69449 0.0
H1055 H 0.918 0.63571 0.72547 0.0
C1056 C 0.3062 0.35201 0.17624 0.0
C1057 C 0.31814 0.32823 0.21419 0.0
C1058 C 0.32876 0.37495 0.15086 0.0
C1059 C 0.36412 0.37451 0.16404 0.0
C1060 C 0.37624 0.35097 0.20284 0.0
C1061 C 0.35331 0.32779 0.22656 0.0
C1062 C 0.31477 0.39987 0.11014 0.0
C1063 C 0.4134 0.35066 0.21998 0.0
C1064 C 0.42997 0.41015 0.06601 0.0
C1065 C 0.43607 0.44315 0.08662 0.0
C1066 C 0.4063 0.38791 0.09021 0.0
C1067 C 0.38851 0.39854 0.13719 0.0
C1068 C 0.39469 0.43176 0.15867 0.0
C1069 C 0.41819 0.45358 0.13304 0.0
C1070 C 0.40051 0.35285 0.06568 0.0
C1071 C 0.37695 0.445 0.20869 0.0
H1072 H 0.27918 0.35267 0.166 0.0
H1073 H 0.36319 0.30913 0.25458 0.0
H1074 H 0.31924 0.42653 0.12445 0.0
H1075 H 0.32851 0.3967 0.07131 0.0
H1076 H 0.28686 0.39637 0.10298 0.0
H1077 H 0.41902 0.33016 0.24954 0.0
H1078 H 0.43028 0.34694 0.18448 0.0
H1079 H 0.42 0.37582 0.23841 0.0
H1080 H 0.44433 0.40124 0.03169 0.0
H1081 H 0.42255 0.47892 0.14974 0.0
H1082 H 0.37302 0.34976 0.05509 0.0
H1083 H 0.40699 0.33268 0.09529 0.0
H1084 H 0.41614 0.3485 0.02892 0.0
H1085 H 0.3606 0.42576 0.22882 0.0
H1086 H 0.36073 0.46738 0.19793 0.0
H1087 H 0.39643 0.4542 0.23802 0.0
C1088 C 0.4099 0.58509 0.99098 0.0
C1089 C 0.42822 0.56129 0.95935 0.0
C1090 C 0.3865 0.60816 0.96754 0.0
C1091 C 0.38109 0.60741 0.91113 0.0
C1092 C 0.39861 0.58274 0.87927 0.0
C1093 C 0.42191 0.56012 0.90365 0.0
C1094 C 0.3681 0.63385 1.00303 0.0
C1095 C 0.39412 0.58114 0.81895 0.0
C1096 C 0.30141 0.6497 0.85184 0.0
C1097 C 0.31433 0.68128 0.83451 0.0
C1098 C 0.32269 0.62563 0.87745 0.0
C1099 C 0.35791 0.63306 0.88522 0.0
C1100 C 0.37114 0.66479 0.86731 0.0
C1101 C 0.34915 0.6886 0.84266 0.0
C1102 C 0.30762 0.59201 0.89541 0.0
C1103 C 0.40863 0.67353 0.87379 0.0
H1104 H 0.41438 0.58631 0.034 0.0
H1105 H 0.43576 0.54196 0.87852 0.0
H1106 H 0.37452 0.6603 0.99038 0.0
H1107 H 0.33997 0.6308 0.99854 0.0
H1108 H 0.37488 0.63099 0.0462 0.0
H1109 H 0.40363 0.55652 0.8017 0.0
H1110 H 0.36684 0.58449 0.80731 0.0
H1111 H 0.40895 0.60227 0.80063 0.0
H1112 H 0.27464 0.64361 0.84495 0.0
H1113 H 0.35927 0.71305 0.82977 0.0
H1114 H 0.31269 0.58815 0.9389 0.0
H1115 H 0.3201 0.57053 0.87328 0.0
H1116 H 0.2795 0.59071 0.88843 0.0
H1117 H 0.41612 0.67203 0.91681 0.0
H1118 H 0.41471 0.69959 0.85879 0.0
H1119 H 0.42452 0.65461 0.85134 0.0
C1120 C 0.16986 0.69166 0.65495 0.0
C1121 C 0.18889 0.6815 0.70002 0.0
C1122 C 0.14523 0.66988 0.63186 0.0
C1123 C 0.14002 0.63689 0.65374 0.0
C1124 C 0.15918 0.62654 0.69935 0.0
C1125 C 0.18329 0.64908 0.72214 0.0
C1126 C 0.12522 0.68202 0.58352 0.0
C1127 C 0.15454 0.59148 0.72361 0.0
C1128 C 0.05687 0.58949 0.62534 0.0
C1129 C 0.06668 0.56698 0.58386 0.0
C1130 C 0.08033 0.61278 0.64783 0.0
C1131 C 0.11457 0.61314 0.62893 0.0
C1132 C 0.12457 0.5905 0.58688 0.0
C1133 C 0.10045 0.56768 0.56482 0.0
C1134 C 0.06848 0.63701 0.6918 0.0
C1135 C 0.16083 0.59007 0.56563 0.0
H1136 H 0.17411 0.71681 0.63789 0.0
H1137 H 0.19828 0.64106 0.75663 0.0
H1138 H 0.13372 0.66748 0.5474 0.0
H1139 H 0.0974 0.67712 0.58882 0.0
H1140 H 0.12898 0.7098 0.57592 0.0
H1141 H 0.17154 0.58732 0.7589 0.0
H1142 H 0.12753 0.5881 0.73649 0.0
H1143 H 0.16009 0.57138 0.69294 0.0
H1144 H 0.03071 0.5891 0.63998 0.0
H1145 H 0.1082 0.54986 0.53343 0.0
H1146 H 0.07363 0.66392 0.68012 0.0
H1147 H 0.08309 0.63206 0.72931 0.0
H1148 H 0.04067 0.63435 0.70052 0.0
H1149 H 0.16746 0.61564 0.54945 0.0
H1150 H 0.16453 0.57061 0.53323 0.0
H1151 H 0.17906 0.58458 0.59882 0.0
C1152 C 0.18789 0.3622 0.3228 0.0
C1153 C 0.19393 0.3293 0.34292 0.0
C1154 C 0.16465 0.38453 0.34862 0.0
C1155 C 0.14651 0.37323 0.39464 0.0
C1156 C 0.15221 0.33979 0.41445 0.0
C1157 C 0.17609 0.31839 0.38869 0.0
C1158 C 0.15953 0.42021 0.3268 0.0
C1159 C 0.13268 0.32636 0.46233 0.0
C1160 C 0.10481 0.43812 0.48961 0.0
C1161 C 0.07122 0.4388 0.46981 0.0
C1162 C 0.12981 0.41712 0.46516 0.0
C1163 C 0.12057 0.39582 0.42096 0.0
C1164 C 0.08629 0.39567 0.4022 0.0
C1165 C 0.06215 0.4175 0.42644 0.0
C1166 C 0.16623 0.41828 0.48575 0.0
C1167 C 0.07512 0.37262 0.3563 0.0
H1168 H 0.20178 0.37065 0.28755 0.0
H1169 H 0.18034 0.29272 0.40387 0.0
H1170 H 0.13259 0.42351 0.31334 0.0
H1171 H 0.16428 0.43951 0.35898 0.0
H1172 H 0.17679 0.42561 0.29235 0.0
H1173 H 0.14008 0.29965 0.47253 0.0
H1174 H 0.1373 0.34298 0.49802 0.0
H1175 H 0.10472 0.32703 0.45392 0.0
H1176 H 0.11179 0.45494 0.52279 0.0
H1177 H 0.036 0.41792 0.41144 0.0
H1178 H 0.18374 0.42604 0.45285 0.0
H1179 H 0.1744 0.3924 0.49894 0.0
H1180 H 0.1693 0.43649 0.52001 0.0
H1181 H 0.08917 0.37945 0.31911 0.0
H1182 H 0.04715 0.37454 0.3482 0.0
H1183 H 0.08149 0.34552 0.36545 0.0
C1184 C 0.98587 0.02519 0.91264 0.0
C1185 C 0.96992 0.99708 0.8876 0.0
C1186 C 0.99643 0.02379 0.96673 0.0
C1187 C 0.99142 0.99335 0.99652 0.0
C1188 C 0.97529 0.96487 0.97145 0.0
C1189 C 0.96452 0.96716 0.91748 0.0
C1190 C 0.01305 0.05493 0.992 0.0
C1191 C 0.96993 0.93175 1.00134 0.0
C1192 C 0.05079 0.98144 0.1169 0.0
C1193 C 0.02964 0.991 0.16017 0.0
C1194 C 0.03836 0.98107 0.06376 0.0
C1195 C 0.00405 0.99112 0.05331 0.0
C1196 C 0.98239 1.00027 0.09699 0.0
C1197 C 0.99536 0.9998 0.14994 0.0
C1198 C 0.06218 0.97051 0.01867 0.0
C1199 C 0.94582 0.0116 0.08765 0.0
H1200 H 0.98972 0.04852 0.89 0.0
H1201 H 0.95248 0.94523 0.89825 0.0
H1202 H 0.99884 0.06273 0.02881 0.0
H1203 H 0.03966 0.04865 1.0044 0.0
H1204 H 0.01386 0.07706 0.96413 0.0
H1205 H 0.95631 0.91223 0.97655 0.0
H1206 H 0.9951 0.92104 1.01376 0.0
H1207 H 0.95492 0.93658 0.03854 0.0
H1208 H 0.07722 0.97431 0.12469 0.0
H1209 H 0.97902 0.00748 0.18322 0.0
H1210 H 0.06654 0.99254 0.99156 0.0
H1211 H 0.05036 0.94975 0.9942 0.0
H1212 H 0.08742 0.96141 0.03377 0.0
H1213 H 0.94555 0.03528 0.06315 0.0
H1214 H 0.93196 0.01678 0.12591 0.0
H1215 H 0.93168 0.99167 0.06461 0.0
C1216 C 0.29315 0.76305 0.37446 0.0
C1217 C 0.26462 0.77819 0.39964 0.0
C1218 C 0.29188 0.75265 0.32011 0.0
C1219 C 0.26125 0.75726 0.29019 0.0
C1220 C 0.23226 0.7722 0.31556 0.0
C1221 C 0.23432 0.78252 0.36981 0.0
C1222 C 0.3234 0.73696 0.29457 0.0
C1223 C 0.199 0.77724 0.28541 0.0
C1224 C 0.26572 0.75855 0.13674 0.0
C1225 C 0.25586 0.72499 0.12318 0.0
C1226 C 0.2677 0.76937 0.19085 0.0
C1227 C 0.2594 0.74617 0.2325 0.0
C1228 C 0.24914 0.71237 0.219 0.0
C1229 C 0.24757 0.7022 0.16466 0.0
C1230 C 0.27892 0.80558 0.20347 0.0
C1231 C 0.23975 0.68691 0.26201 0.0
H1232 H 0.31676 0.75994 0.39699 0.0
H1233 H 0.21199 0.79375 0.38912 0.0
H1234 H 0.31749 0.71084 0.27925 0.0
H1235 H 0.33146 0.7525 0.25958 0.0
H1236 H 0.34523 0.7352 0.32321 0.0
H1237 H 0.17878 0.78916 0.31094 0.0
H1238 H 0.20331 0.7938 0.24994 0.0
H1239 H 0.18947 0.7522 0.27016 0.0
H1240 H 0.27251 0.77621 0.10503 0.0
H1241 H 0.23946 0.67637 0.15455 0.0
H1242 H 0.30221 0.80514 0.22917 0.0
H1243 H 0.25858 0.81917 0.22649 0.0
H1244 H 0.28461 0.82043 0.16657 0.0
H1245 H 0.26179 0.68303 0.28961 0.0
H1246 H 0.23219 0.66163 0.24488 0.0
H1247 H 0.21817 0.69706 0.28654 0.0
C1248 C 0.49516 0.06581 0.59899 0.0
C1249 C 0.50206 0.0449 0.64363 0.0
C1250 C 0.49722 0.05297 0.54601 0.0
C1251 C 0.50609 0.01816 0.53697 0.0
C1252 C 0.51134 0.99644 0.58184 0.0
C1253 C 0.50933 0.01005 0.63451 0.0
C1254 C 0.49139 0.0771 0.49962 0.0
C1255 C 0.52053 0.9591 0.57419 0.0
C1256 C 0.49362 0.97759 0.39735 0.0
C1257 C 0.52717 0.97798 0.37712 0.0
C1258 C 0.48616 0.99087 0.44907 0.0
C1259 C 0.51282 0.00527 0.48091 0.0
C1260 C 0.54645 0.00688 0.45949 0.0
C1261 C 0.55323 0.99299 0.40822 0.0
C1262 C 0.45005 0.98834 0.47042 0.0
C1263 C 0.57557 0.02253 0.4913 0.0
H1264 H 0.48874 0.09259 0.60542 0.0
H1265 H 0.51489 0.99364 0.66845 0.0
H1266 H 0.51575 0.08059 0.47729 0.0
H1267 H 0.47248 0.06611 0.47096 0.0
H1268 H 0.48205 0.10268 0.51323 0.0
H1269 H 0.52052 0.94488 0.61277 0.0
H1270 H 0.50222 0.9466 0.54607 0.0
H1271 H 0.54643 0.95695 0.55599 0.0
H1272 H 0.47354 0.96557 0.37368 0.0
H1273 H 0.57921 0.99322 0.39266 0.0
H1274 H 0.44088 0.01387 0.48431 0.0
H1275 H 0.44967 0.97112 0.50577 0.0
H1276 H 0.43187 0.97824 0.43974 0.0
H1277 H 0.56883 0.04907 0.5039 0.0
H1278 H 0.59984 0.02326 0.46796 0.0
H1279 H 0.58005 0.00752 0.52843 0.0
C1280 C 0.21086 0.20593 0.89349 0.0
C1281 C 0.20197 0.2379 0.91556 0.0
C1282 C 0.21934 0.20244 0.83872 0.0
C1283 C 0.21806 0.2315 0.8048 0.0
C1284 C 0.2099 0.26406 0.82736 0.0
C1285 C 0.20221 0.2669 0.88264 0.0
C1286 C 0.22854 0.16739 0.81679 0.0
C1287 C 0.20767 0.29558 0.79265 0.0
C1288 C 0.2606 0.22467 0.66659 0.0
C1289 C 0.23301 0.21456 0.63388 0.0
C1290 C 0.25611 0.23075 0.72212 0.0
C1291 C 0.22311 0.22726 0.74536 0.0
C1292 C 0.19498 0.21816 0.71202 0.0
C1293 C 0.20033 0.21163 0.65693 0.0
C1294 C 0.28689 0.23975 0.75625 0.0
C1295 C 0.15924 0.21471 0.73471 0.0
H1296 H 0.21048 0.1835 0.91901 0.0
H1297 H 0.19487 0.29153 0.89966 0.0
H1298 H 0.20828 0.15852 0.78862 0.0
H1299 H 0.25288 0.16859 0.79377 0.0
H1300 H 0.23141 0.14809 0.84917 0.0
H1301 H 0.20325 0.31929 0.81676 0.0
H1302 H 0.23158 0.29865 0.76903 0.0
H1303 H 0.1863 0.29263 0.76346 0.0
H1304 H 0.28596 0.22664 0.64906 0.0
H1305 H 0.17886 0.20411 0.63172 0.0
H1306 H 0.29149 0.21919 0.78607 0.0
H1307 H 0.28205 0.26379 0.77917 0.0
H1308 H 0.31049 0.24299 0.7318 0.0
H1309 H 0.15859 0.19346 0.76412 0.0
H1310 H 0.13983 0.20948 0.70293 0.0
H1311 H 0.15187 0.23854 0.75655 0.0
C1312 C 0.79326 0.26783 0.87931 0.0
C1313 C 0.82432 0.25446 0.89904 0.0
C1314 C 0.78274 0.26188 0.82575 0.0
C1315 C 0.80378 0.24222 0.79064 0.0
C1316 C 0.83518 0.22878 0.81017 0.0
C1317 C 0.84495 0.23491 0.86394 0.0
C1318 C 0.74902 0.2766 0.80675 0.0
C1319 C 0.85842 0.20764 0.77431 0.0
C1320 C 0.76517 0.19709 0.66804 0.0
C1321 C 0.77491 0.21865 0.62571 0.0
C1322 C 0.7737 0.20486 0.7218 0.0
C1323 C 0.79269 0.23488 0.73389 0.0
C1324 C 0.80208 0.25711 0.69146 0.0
C1325 C 0.79297 0.24882 0.638 0.0
C1326 C 0.76281 0.1806 0.76563 0.0
C1327 C 0.82252 0.28925 0.70237 0.0
H1328 H 0.77728 0.28337 0.90558 0.0
H1329 H 0.86869 0.22391 0.87868 0.0
H1330 H 0.75336 0.29372 0.77197 0.0
H1331 H 0.73195 0.25562 0.79277 0.0
H1332 H 0.73562 0.29139 0.83887 0.0
H1333 H 0.88246 0.19988 0.79503 0.0
H1334 H 0.84485 0.18417 0.7606 0.0
H1335 H 0.86523 0.2224 0.73786 0.0
H1336 H 0.75079 0.17398 0.65908 0.0
H1337 H 0.80088 0.26548 0.6056 0.0
H1338 H 0.7479 0.19465 0.79682 0.0
H1339 H 0.78579 0.16971 0.78565 0.0
H1340 H 0.74693 0.15912 0.74992 0.0
H1341 H 0.80918 0.30555 0.73261 0.0
H1342 H 0.82667 0.30454 0.6654 0.0
H1343 H 0.84789 0.28233 0.7195 0.0
C1344 C 0.78096 0.76253 0.38708 0.0
C1345 C 0.76229 0.79281 0.39674 0.0
C1346 C 0.78923 0.75192 0.33433 0.0
C1347 C 0.77857 0.77199 0.28995 0.0
C1348 C 0.75917 0.8022 0.2994 0.0
C1349 C 0.75127 0.8122 0.35249 0.0
C1350 C 0.81 0.71958 0.32614 0.0
C1351 C 0.74713 0.82431 0.25341 0.0
C1352 C 0.82908 0.76572 0.15886 0.0
C1353 C 0.80811 0.74455 0.12687 0.0
C1354 C 0.81984 0.77465 0.21185 0.0
C1355 C 0.7888 0.76218 0.2338 0.0
C1356 C 0.76743 0.74088 0.20176 0.0
C1357 C 0.77728 0.73238 0.14875 0.0
C1358 C 0.84328 0.79764 0.24431 0.0
C1359 C 0.73417 0.72696 0.22356 0.0
H1360 H 0.78988 0.74753 0.42089 0.0
H1361 H 0.73632 0.83529 0.35934 0.0
H1362 H 0.79643 0.70188 0.29824 0.0
H1363 H 0.83497 0.72592 0.30734 0.0
H1364 H 0.81499 0.706 0.36452 0.0
H1365 H 0.73138 0.84643 0.26734 0.0
H1366 H 0.76959 0.83424 0.23105 0.0
H1367 H 0.73173 0.80881 0.22465 0.0
H1368 H 0.85266 0.77573 0.14217 0.0
H1369 H 0.76107 0.71573 0.12467 0.0
H1370 H 0.85115 0.78459 0.2819 0.0
H1371 H 0.82945 0.82142 0.25618 0.0
H1372 H 0.86671 0.80485 0.22169 0.0
H1373 H 0.73926 0.71154 0.26007 0.0
H1374 H 0.72047 0.71066 0.19369 0.0
H1375 H 0.71706 0.74844 0.23572 0.0
C1376 C 0.51588 0.49302 0.61818 0.0
C1377 C 0.48664 0.4969 0.65037 0.0
C1378 C 0.51528 0.50221 0.56349 0.0
C1379 C 0.48477 0.51578 0.54086 0.0
C1380 C 0.45606 0.52211 0.57453 0.0
C1381 C 0.45725 0.51225 0.62874 0.0
C1382 C 0.54639 0.49489 0.52915 0.0
C1383 C 0.4232 0.53703 0.55248 0.0
C1384 C 0.48129 0.554 0.39992 0.0
C1385 C 0.46608 0.52719 0.37061 0.0
C1386 C 0.48867 0.55044 0.45514 0.0
C1387 C 0.48104 0.51917 0.48127 0.0
C1388 C 0.46733 0.49148 0.45094 0.0
C1389 C 0.4598 0.49593 0.39619 0.0
C1390 C 0.50305 0.58061 0.48602 0.0
C1391 C 0.45934 0.45748 0.47677 0.0
H1392 H 0.53844 0.48067 0.63485 0.0
H1393 H 0.43457 0.51498 0.65369 0.0
H1394 H 0.54122 0.4723 0.50296 0.0
H1395 H 0.55198 0.51686 0.50248 0.0
H1396 H 0.56947 0.48936 0.55389 0.0
H1397 H 0.40504 0.54452 0.58497 0.0
H1398 H 0.42866 0.55987 0.52758 0.0
H1399 H 0.41048 0.51777 0.52614 0.0
H1400 H 0.48597 0.57827 0.38025 0.0
H1401 H 0.44833 0.47506 0.37342 0.0
H1402 H 0.52547 0.57261 0.51047 0.0
H1403 H 0.48334 0.59063 0.51427 0.0
H1404 H 0.51098 0.60173 0.45901 0.0
H1405 H 0.48212 0.44777 0.49876 0.0
H1406 H 0.4513 0.43777 0.44682 0.0
H1407 H 0.43839 0.46088 0.50655 0.0
C1408 C 0.97677 0.45832 0.89857 0.0
C1409 C 0.00316 0.43506 0.88592 0.0
C1410 C 0.96973 0.46775 0.9523 0.0
C1411 C 0.98971 0.45386 0.99464 0.0
C1412 C 0.01686 0.43095 0.98202 0.0
C1413 C 0.02315 0.42174 0.928 0.0
C1414 C 0.94037 0.49203 0.96384 0.0
C1415 C 0.03909 0.41583 0.02568 0.0
C1416 C 0.98763 0.49936 0.13154 0.0
C1417 C 0.96417 0.4793 0.16036 0.0
C1418 C 0.99648 0.49122 0.07794 0.0
C1419 C 0.98144 0.46238 0.05215 0.0
C1420 C 0.95815 0.44176 0.08123 0.0
C1421 C 0.94996 0.45034 0.13482 0.0
C1422 C 0.02158 0.51378 0.04863 0.0
C1423 C 0.94155 0.41075 0.05554 0.0
H1424 H 0.96097 0.46849 0.86649 0.0
H1425 H 0.0439 0.40413 0.91864 0.0
H1426 H 0.92077 0.47894 0.98861 0.0
H1427 H 0.94961 0.51445 0.9874 0.0
H1428 H 0.92793 0.5014 0.92646 0.0
H1429 H 0.06001 0.39947 1.00915 0.0
H1430 H 0.05065 0.43663 0.05035 0.0
H1431 H 0.02318 0.4001 0.05298 0.0
H1432 H 0.99852 0.52198 0.15046 0.0
H1433 H 0.93235 0.4342 0.15683 0.0
H1434 H 0.00883 0.52568 1.01343 0.0
H1435 H 0.04328 0.49814 0.03304 0.0
H1436 H 0.032 0.53449 0.07483 0.0
H1437 H 0.92669 0.41861 0.01954 0.0
H1438 H 0.92403 0.3973 0.08356 0.0
H1439 H 0.96152 0.39238 0.04174 0.0
loop_
_geom_bond_atom_site_label_1
_geom_bond_atom_site_label_2
_geom_bond_distance
_geom_bond_site_symmetry_2
_ccdc_geom_bond_type
C0 C2 1.422 . S
C0 C4 1.415 . S
C0 N6 1.369 1_655 S
C1 C2 1.421 . S
C1 C3 1.417 . S
C1 C13 1.422 . S
C2 C0 1.422 . S
C2 C1 1.421 . S
C2 N12 1.359 . S
C3 C1 1.417 . S
C3 C5 1.329 . S
C3 H22 0.930 . S
C4 C0 1.415 . S
C4 C5 1.437 . S
C4 C8 1.413 1_655 S
C5 C3 1.329 . S
C5 C4 1.437 . S
C5 H27 0.929 . S
N6 C0 1.369 1_455 S
N6 C7 1.338 . S
N6 Gd11 2.622 . S
C7 N6 1.338 . S
C7 C9 1.378 . S
C7 H19 0.929 . S
C8 C4 1.413 1_455 S
C8 C9 1.348 . S
C8 H24 0.931 . S
C9 C7 1.378 . S
C9 C8 1.348 . S
C9 H25 0.930 . S
Gd10 N30 2.623 . S
Gd10 N37 2.546 1_655 S
Gd10 O44 2.371 1_545 S
Gd10 O45 2.463 1_655 S
Gd10 O46 2.443 . S
Gd10 O48 2.410 . S
Gd10 O49 2.371 1_655 S
Gd10 O53 2.288 1_645 S
Gd10 C63 2.811 . S
Gd11 N6 2.622 . S
Gd11 N12 2.570 1_455 S
Gd11 O43 2.386 1_455 S
Gd11 O47 2.307 1_465 S
Gd11 O50 2.353 1_565 S
Gd11 O51 2.468 1_455 S
Gd11 O52 2.427 . S
Gd11 O54 2.388 . S
Gd11 C75 2.805 . S
N12 C2 1.359 . S
N12 Gd11 2.570 1_655 S
N12 C14 1.343 . S
C13 C1 1.422 . S
C13 C15 1.321 . S
C13 H21 0.931 . S
C14 N12 1.343 . S
C14 C15 1.390 . S
C14 H16 0.931 . S
C15 C13 1.321 . S
C15 C14 1.390 . S
C15 H17 0.930 . S
H16 C14 0.931 . S
H17 C15 0.930 . S
H18 C41 0.931 . S
H19 C7 0.929 . S
H20 C42 0.930 . S
H21 C13 0.931 . S
H22 C3 0.930 . S
H23 C32 0.929 . S
H24 C8 0.931 . S
H25 C9 0.930 . S
H26 C64 0.930 . S
H27 C5 0.929 . S
H28 C33 0.931 . S
H29 C34 0.930 . S
N30 Gd10 2.623 . S
N30 C31 1.369 1_655 S
N30 C32 1.338 . S
C31 N30 1.369 1_455 S
C31 C35 1.415 . S
C31 C38 1.422 . S
C32 H23 0.929 . S
C32 N30 1.338 . S
C32 C34 1.378 . S
C33 H28 0.931 . S
C33 C34 1.348 . S
C33 C35 1.413 1_655 S
C34 H29 0.930 . S
C34 C32 1.378 . S
C34 C33 1.348 . S
C35 C31 1.415 . S
C35 C33 1.413 1_455 S
C35 C65 1.437 . S
H36 C65 0.929 . S
N37 Gd10 2.546 1_455 S
N37 C38 1.359 . S
N37 C41 1.343 . S
C38 C31 1.422 . S
C38 N37 1.359 . S
C38 C40 1.421 . S
C39 C40 1.422 . S
C39 C42 1.321 . S
C39 H66 0.931 . S
C40 C38 1.421 . S
C40 C39 1.422 . S
C40 C64 1.417 . S
C41 H18 0.931 . S
C41 N37 1.343 . S
C41 C42 1.390 . S
C42 H20 0.930 . S
C42 C39 1.321 . S
C42 C41 1.390 . S
O43 Gd11 2.386 1_655 S
O43 C55 1.265 . S
O44 Gd10 2.371 1_565 S
O44 C55 1.242 . S
O45 Gd10 2.463 1_455 S
O45 C63 1.263 1_455 S
O46 Gd10 2.443 . S
O46 C63 1.252 . S
O47 Gd11 2.307 1_645 S
O47 C56 1.261 . S
O48 Gd10 2.410 . S
O48 C56 1.252 . S
O49 Gd10 2.371 1_455 S
O49 C67 1.265 . S
O50 Gd11 2.353 1_545 S
O50 C67 1.242 . S
O51 Gd11 2.468 1_655 S
O51 C75 1.263 1_655 S
O52 Gd11 2.427 . S
O52 C75 1.252 . S
O53 Gd10 2.288 1_465 S
O53 C68 1.261 . S
O54 Gd11 2.388 . S
O54 C68 1.252 . S
C55 O43 1.265 . S
C55 O44 1.242 . S
C56 O47 1.261 . S
C56 O48 1.252 . S
C57 C60 1.394 . S
C57 C62 1.370 . S
C57 C63 1.500 . S
C58 C61 1.383 . S
C58 C62 1.395 . S
C59 C60 1.396 . S
C59 C61 1.365 . S
C59 H76 0.929 . S
C60 C57 1.394 . S
C60 C59 1.396 . S
C60 H77 0.930 . S
C61 C58 1.383 . S
C61 C59 1.365 . S
C61 H78 0.931 . S
C62 C57 1.370 . S
C62 C58 1.395 . S
C62 H79 0.930 1_645 S
C63 Gd10 2.811 . S
C63 O45 1.263 1_655 S
C63 O46 1.252 . S
C63 C57 1.500 . S
C64 H26 0.930 . S
C64 C40 1.417 . S
C64 C65 1.329 . S
C65 C35 1.437 . S
C65 H36 0.929 . S
C65 C64 1.329 . S
H66 C39 0.931 . S
C67 O49 1.265 . S
C67 O50 1.242 . S
C68 O53 1.261 . S
C68 O54 1.252 . S
C69 C72 1.394 . S
C69 C74 1.370 . S
C69 C75 1.500 . S
C70 C73 1.383 . S
C70 C74 1.395 . S
C71 C72 1.396 . S
C71 C73 1.365 . S
C71 H80 0.929 . S
C72 C69 1.394 . S
C72 C71 1.396 . S
C72 H81 0.930 . S
C73 C70 1.383 . S
C73 C71 1.365 . S
C73 H82 0.931 . S
C74 C69 1.370 . S
C74 C70 1.395 . S
C74 H83 0.930 1_465 S
C75 Gd11 2.805 . S
C75 O51 1.263 1_455 S
C75 O52 1.252 . S
C75 C69 1.500 . S
H76 C59 0.929 . S
H77 C60 0.930 . S
H78 C61 0.931 . S
H79 C62 0.930 1_465 S
H80 C71 0.929 . S
H81 C72 0.930 . S
H82 C73 0.931 . S
H83 C74 0.930 1_645 S
C84 C86 1.422 . S
C84 C88 1.415 . S
C84 N90 1.369 . S
C85 C86 1.421 . S
C85 C87 1.417 . S
C85 C97 1.422 . S
C86 C84 1.422 . S
C86 C85 1.421 . S
C86 N96 1.359 . S
C87 C85 1.417 . S
C87 C89 1.329 . S
C87 H106 0.930 . S
C88 C84 1.415 . S
C88 C89 1.437 . S
C88 C92 1.413 . S
C89 C87 1.329 . S
C89 C88 1.437 . S
C89 H111 0.929 . S
N90 C84 1.369 . S
N90 C91 1.338 . S
N90 Gd95 2.622 . S
C91 N90 1.338 . S
C91 C93 1.378 . S
C91 H103 0.929 . S
C92 C88 1.413 . S
C92 C93 1.348 . S
C92 H108 0.931 . S
C93 C91 1.378 . S
C93 C92 1.348 . S
C93 H109 0.930 . S
Gd94 N114 2.622 . S
Gd94 N121 2.570 . S
Gd94 O128 2.353 . S
Gd94 O129 2.468 . S
Gd94 O130 2.427 . S
Gd94 O132 2.388 . S
Gd94 O133 2.386 . S
Gd94 O137 2.307 . S
Gd94 C147 2.805 . S
Gd95 N90 2.622 . S
Gd95 N96 2.570 . S
Gd95 O127 2.386 . S
Gd95 O131 2.307 . S
Gd95 O134 2.353 . S
Gd95 O135 2.468 . S
Gd95 O136 2.427 . S
Gd95 O138 2.388 . S
Gd95 C159 2.805 . S
N96 C86 1.359 . S
N96 Gd95 2.570 . S
N96 C98 1.343 . S
C97 C85 1.422 . S
C97 C99 1.321 . S
C97 H105 0.931 . S
C98 N96 1.343 . S
C98 C99 1.390 . S
C98 H100 0.931 . S
C99 C97 1.321 . S
C99 C98 1.390 . S
C99 H101 0.930 . S
H100 C98 0.931 . S
H101 C99 0.930 . S
H102 C125 0.931 . S
H103 C91 0.929 . S
H104 C126 0.930 . S
H105 C97 0.931 . S
H106 C87 0.930 . S
H107 C116 0.929 . S
H108 C92 0.931 . S
H109 C93 0.930 . S
H110 C148 0.930 . S
H111 C89 0.929 . S
H112 C117 0.931 . S
H113 C118 0.930 . S
N114 Gd94 2.622 . S
N114 C115 1.369 . S
N114 C116 1.338 . S
C115 N114 1.369 . S
C115 C119 1.415 . S
C115 C122 1.422 . S
C116 H107 0.929 . S
C116 N114 1.338 . S
C116 C118 1.378 . S
C117 H112 0.931 . S
C117 C118 1.348 . S
C117 C119 1.413 . S
C118 H113 0.930 . S
C118 C116 1.378 . S
C118 C117 1.348 . S
C119 C115 1.415 . S
C119 C117 1.413 . S
C119 C149 1.437 . S
H120 C149 0.929 . S
N121 Gd94 2.570 . S
N121 C122 1.359 . S
N121 C125 1.343 . S
C122 C115 1.422 . S
C122 N121 1.359 . S
C122 C124 1.421 . S
C123 C124 1.422 . S
C123 C126 1.321 . S
C123 H150 0.931 . S
C124 C122 1.421 . S
C124 C123 1.422 . S
C124 C148 1.417 . S
C125 H102 0.931 . S
C125 N121 1.343 . S
C125 C126 1.390 . S
C126 H104 0.930 . S
C126 C123 1.321 . S
C126 C125 1.390 . S
O127 Gd95 2.386 . S
O127 C139 1.265 . S
O128 Gd94 2.353 . S
O128 C139 1.242 . S
O129 Gd94 2.468 . S
O129 C147 1.263 . S
O130 Gd94 2.427 . S
O130 C147 1.252 . S
O131 Gd95 2.307 . S
O131 C140 1.261 . S
O132 Gd94 2.388 . S
O132 C140 1.252 . S
O133 Gd94 2.386 . S
O133 C151 1.265 . S
O134 Gd95 2.353 . S
O134 C151 1.242 . S
O135 Gd95 2.468 . S
O135 C159 1.263 . S
O136 Gd95 2.427 . S
O136 C159 1.252 . S
O137 Gd94 2.307 . S
O137 C152 1.261 . S
O138 Gd95 2.388 . S
O138 C152 1.252 . S
C139 O127 1.265 . S
C139 O128 1.242 . S
C140 O131 1.261 . S
C140 O132 1.252 . S
C141 C144 1.389 1_556 S
C141 C146 1.370 1_556 S
C141 C147 1.500 . S
C142 C145 1.383 . S
C142 C146 1.395 . S
C143 C144 1.407 . S
C143 C145 1.365 . S
C143 H160 0.929 . S
C144 C141 1.389 1_554 S
C144 C143 1.407 . S
C144 H161 0.923 1_554 S
C145 C142 1.383 . S
C145 C143 1.365 . S
C145 H162 0.931 . S
C146 C141 1.370 1_554 S
C146 C142 1.395 . S
C146 H163 0.923 1_554 S
C147 Gd94 2.805 . S
C147 O129 1.263 . S
C147 O130 1.252 . S
C147 C141 1.500 . S
C148 H110 0.930 . S
C148 C124 1.417 . S
C148 C149 1.329 . S
C149 C119 1.437 . S
C149 H120 0.929 . S
C149 C148 1.329 . S
H150 C123 0.931 . S
C151 O133 1.265 . S
C151 O134 1.242 . S
C152 O137 1.261 . S
C152 O138 1.252 . S
C153 C156 1.394 . S
C153 C158 1.370 . S
C153 C159 1.500 . S
C154 C157 1.383 . S
C154 C158 1.395 . S
C155 C156 1.396 . S
C155 C157 1.365 . S
C155 H164 0.929 . S
C156 C153 1.394 . S
C156 C155 1.396 . S
C156 H165 0.930 . S
C157 C154 1.383 . S
C157 C155 1.365 . S
C157 H166 0.931 . S
C158 C153 1.370 . S
C158 C154 1.395 . S
C158 H167 0.930 . S
C159 Gd95 2.805 . S
C159 O135 1.263 . S
C159 O136 1.252 . S
C159 C153 1.500 . S
H160 C143 0.929 . S
H161 C144 0.923 1_556 S
H162 C145 0.931 . S
H163 C146 0.923 1_556 S
H164 C155 0.929 . S
H165 C156 0.930 . S
H166 C157 0.931 . S
H167 C158 0.930 . S
C168 C170 1.422 . S
C168 C172 1.415 . S
C168 N174 1.369 . S
C169 C170 1.421 . S
C169 C171 1.417 . S
C169 C181 1.422 . S
C170 C168 1.422 . S
C170 C169 1.421 . S
C170 N180 1.359 . S
C171 C169 1.417 . S
C171 C173 1.329 . S
C171 H190 0.930 . S
C172 C168 1.415 . S
C172 C173 1.437 . S
C172 C176 1.413 . S
C173 C171 1.329 . S
C173 C172 1.437 . S
C173 H195 0.929 . S
N174 C168 1.369 . S
N174 C175 1.338 . S
N174 Gd179 2.622 . S
C175 N174 1.338 . S
C175 C177 1.378 . S
C175 H187 0.929 . S
C176 C172 1.413 . S
C176 C177 1.348 . S
C176 H192 0.931 . S
C177 C175 1.378 . S
C177 C176 1.348 . S
C177 H193 0.930 . S
Gd178 N198 2.622 . S
Gd178 N205 2.570 . S
Gd178 O212 2.353 1_565 S
Gd178 O213 2.468 . S
Gd178 O214 2.427 . S
Gd178 O216 2.388 . S
Gd178 O217 2.386 1_554 S
Gd178 O221 2.307 1_565 S
Gd178 C231 2.805 . S
Gd179 N174 2.622 . S
Gd179 N180 2.570 . S
Gd179 O211 2.386 1_556 S
Gd179 O215 2.307 1_545 S
Gd179 O218 2.353 1_545 S
Gd179 O219 2.468 . S
Gd179 O220 2.427 . S
Gd179 O222 2.388 . S
Gd179 C243 2.805 . S
N180 C170 1.359 . S
N180 Gd179 2.570 . S
N180 C182 1.343 . S
C181 C169 1.422 . S
C181 C183 1.321 . S
C181 H189 0.931 . S
C182 N180 1.343 . S
C182 C183 1.390 . S
C182 H184 0.931 . S
C183 C181 1.321 . S
C183 C182 1.390 . S
C183 H185 0.930 . S
H184 C182 0.931 . S
H185 C183 0.930 . S
H186 C209 0.931 . S
H187 C175 0.929 . S
H188 C210 0.930 . S
H189 C181 0.931 . S
H190 C171 0.930 . S
H191 C200 0.929 . S
H192 C176 0.931 . S
H193 C177 0.930 . S
H194 C232 0.930 . S
H195 C173 0.929 . S
H196 C201 0.931 . S
H197 C202 0.930 . S
N198 Gd178 2.622 . S
N198 C199 1.369 . S
N198 C200 1.338 . S
C199 N198 1.369 . S
C199 C203 1.415 . S
C199 C206 1.422 . S
C200 H191 0.929 . S
C200 N198 1.338 . S
C200 C202 1.378 . S
C201 H196 0.931 . S
C201 C202 1.348 . S
C201 C203 1.413 . S
C202 H197 0.930 . S
C202 C200 1.378 . S
C202 C201 1.348 . S
C203 C199 1.415 . S
C203 C201 1.413 . S
C203 C233 1.437 . S
H204 C233 0.929 . S
N205 Gd178 2.570 . S
N205 C206 1.359 . S
N205 C209 1.343 . S
C206 C199 1.422 . S
C206 N205 1.359 . S
C206 C208 1.421 . S
C207 C208 1.422 . S
C207 C210 1.321 . S
C207 H234 0.931 . S
C208 C206 1.421 . S
C208 C207 1.422 . S
C208 C232 1.417 . S
C209 H186 0.931 . S
C209 N205 1.343 . S
C209 C210 1.390 . S
C210 H188 0.930 . S
C210 C207 1.321 . S
C210 C209 1.390 . S
O211 Gd179 2.386 1_554 S
O211 C223 1.265 . S
O212 Gd178 2.353 1_545 S
O212 C223 1.242 . S
O213 Gd178 2.468 . S
O213 C231 1.263 . S
O214 Gd178 2.427 . S
O214 C231 1.252 . S
O215 Gd179 2.307 1_565 S
O215 C224 1.261 . S
O216 Gd178 2.388 . S
O216 C224 1.252 1_554 S
O217 Gd178 2.386 1_556 S
O217 C235 1.265 . S
O218 Gd179 2.353 1_565 S
O218 C235 1.242 . S
O219 Gd179 2.468 . S
O219 C243 1.263 . S
O220 Gd179 2.427 . S
O220 C243 1.252 . S
O221 Gd178 2.307 1_545 S
O221 C236 1.261 . S
O222 Gd179 2.388 . S
O222 C236 1.252 1_556 S
C223 O211 1.265 . S
C223 O212 1.242 . S
C224 O215 1.261 . S
C224 O216 1.252 1_556 S
C225 C228 1.394 . S
C225 C230 1.370 . S
C225 C231 1.500 . S
C226 C229 1.383 . S
C226 C230 1.395 . S
C227 C228 1.396 . S
C227 C229 1.365 . S
C227 H244 0.929 . S
C228 C225 1.394 . S
C228 C227 1.396 . S
C228 H245 0.930 . S
C229 C226 1.383 . S
C229 C227 1.365 . S
C229 H246 0.931 . S
C230 C225 1.370 . S
C230 C226 1.395 . S
C230 H247 0.930 1_565 S
C231 Gd178 2.805 . S
C231 O213 1.263 . S
C231 O214 1.252 . S
C231 C225 1.500 . S
C232 H194 0.930 . S
C232 C208 1.417 . S
C232 C233 1.329 . S
C233 C203 1.437 . S
C233 H204 0.929 . S
C233 C232 1.329 . S
H234 C207 0.931 . S
C235 O217 1.265 . S
C235 O218 1.242 . S
C236 O221 1.261 . S
C236 O222 1.252 1_554 S
C237 C240 1.394 . S
C237 C242 1.370 . S
C237 C243 1.500 . S
C238 C241 1.383 . S
C238 C242 1.395 . S
C239 C240 1.396 . S
C239 C241 1.365 . S
C239 H248 0.929 . S
C240 C237 1.394 . S
C240 C239 1.396 . S
C240 H249 0.930 . S
C241 C238 1.383 . S
C241 C239 1.365 . S
C241 H250 0.931 . S
C242 C237 1.370 . S
C242 C238 1.395 . S
C242 H251 0.930 1_545 S
C243 Gd179 2.805 . S
C243 O219 1.263 . S
C243 O220 1.252 . S
C243 C237 1.500 . S
H244 C227 0.929 . S
H245 C228 0.930 . S
H246 C229 0.931 . S
H247 C230 0.930 1_545 S
H248 C239 0.929 . S
H249 C240 0.930 . S
H250 C241 0.931 . S
H251 C242 0.930 1_565 S
C252 C254 1.422 . S
C252 C256 1.415 . S
C252 N258 1.369 . S
C253 C254 1.421 . S
C253 C255 1.417 . S
C253 C265 1.422 . S
C254 C252 1.422 . S
C254 C253 1.421 . S
C254 N264 1.359 . S
C255 C253 1.417 . S
C255 C257 1.329 . S
C255 H274 0.930 . S
C256 C252 1.415 . S
C256 C257 1.437 . S
C256 C260 1.413 . S
C257 C255 1.329 . S
C257 C256 1.437 . S
C257 H279 0.929 . S
N258 C252 1.369 . S
N258 C259 1.338 . S
N258 Gd263 2.622 . S
C259 N258 1.338 . S
C259 C261 1.378 . S
C259 H271 0.929 . S
C260 C256 1.413 . S
C260 C261 1.348 . S
C260 H276 0.931 . S
C261 C259 1.378 . S
C261 C260 1.348 . S
C261 H277 0.930 . S
Gd262 N282 2.622 . S
Gd262 N289 2.570 . S
Gd262 O296 2.353 . S
Gd262 O297 2.468 . S
Gd262 O298 2.427 . S
Gd262 O300 2.388 . S
Gd262 O301 2.386 . S
Gd262 O305 2.307 . S
Gd262 C315 2.805 . S
Gd263 N258 2.622 . S
Gd263 N264 2.570 . S
Gd263 O295 2.386 . S
Gd263 O299 2.307 . S
Gd263 O302 2.353 . S
Gd263 O303 2.468 . S
Gd263 O304 2.427 . S
Gd263 O306 2.388 . S
Gd263 C327 2.805 . S
N264 C254 1.359 . S
N264 Gd263 2.570 . S
N264 C266 1.343 . S
C265 C253 1.422 . S
C265 C267 1.321 . S
C265 H273 0.931 . S
C266 N264 1.343 . S
C266 C267 1.390 . S
C266 H268 0.931 . S
C267 C265 1.321 . S
C267 C266 1.390 . S
C267 H269 0.930 . S
H268 C266 0.931 . S
H269 C267 0.930 . S
H270 C293 0.931 . S
H271 C259 0.929 . S
H272 C294 0.930 . S
H273 C265 0.931 . S
H274 C255 0.930 . S
H275 C284 0.929 . S
H276 C260 0.931 . S
H277 C261 0.930 . S
H278 C316 0.930 . S
H279 C257 0.929 . S
H280 C285 0.931 . S
H281 C286 0.930 . S
N282 Gd262 2.622 . S
N282 C283 1.369 . S
N282 C284 1.338 . S
C283 N282 1.369 . S
C283 C287 1.415 . S
C283 C290 1.422 . S
C284 H275 0.929 . S
C284 N282 1.338 . S
C284 C286 1.378 . S
C285 H280 0.931 . S
C285 C286 1.348 . S
C285 C287 1.413 . S
C286 H281 0.930 . S
C286 C284 1.378 . S
C286 C285 1.348 . S
C287 C283 1.415 . S
C287 C285 1.413 . S
C287 C317 1.437 . S
H288 C317 0.929 . S
N289 Gd262 2.570 . S
N289 C290 1.359 . S
N289 C293 1.343 . S
C290 C283 1.422 . S
C290 N289 1.359 . S
C290 C292 1.421 . S
C291 C292 1.422 . S
C291 C294 1.321 . S
C291 H318 0.931 . S
C292 C290 1.421 . S
C292 C291 1.422 . S
C292 C316 1.417 . S
C293 H270 0.931 . S
C293 N289 1.343 . S
C293 C294 1.390 . S
C294 H272 0.930 . S
C294 C291 1.321 . S
C294 C293 1.390 . S
O295 Gd263 2.386 . S
O295 C307 1.265 . S
O296 Gd262 2.353 . S
O296 C307 1.242 . S
O297 Gd262 2.468 . S
O297 C315 1.263 . S
O298 Gd262 2.427 . S
O298 C315 1.252 . S
O299 Gd263 2.307 . S
O299 C308 1.261 . S
O300 Gd262 2.388 . S
O300 C308 1.252 . S
O301 Gd262 2.386 . S
O301 C319 1.265 . S
O302 Gd263 2.353 . S
O302 C319 1.242 . S
O303 Gd263 2.468 . S
O303 C327 1.263 . S
O304 Gd263 2.427 . S
O304 C327 1.252 . S
O305 Gd262 2.307 . S
O305 C320 1.261 . S
O306 Gd263 2.388 . S
O306 C320 1.252 . S
C307 O295 1.265 . S
C307 O296 1.242 . S
C308 O299 1.261 . S
C308 O300 1.252 . S
C309 C312 1.391 1_554 S
C309 C314 1.370 1_554 S
C309 C315 1.500 . S
C310 C313 1.383 . S
C310 C314 1.395 . S
C311 C312 1.403 . S
C311 C313 1.365 . S
C311 H328 0.929 . S
C312 C309 1.391 1_556 S
C312 C311 1.403 . S
C312 H329 0.925 1_556 S
C313 C310 1.383 . S
C313 C311 1.365 . S
C313 H330 0.931 . S
C314 C309 1.370 1_556 S
C314 C310 1.395 . S
C314 H331 0.924 1_556 S
C315 Gd262 2.805 . S
C315 O297 1.263 . S
C315 O298 1.252 . S
C315 C309 1.500 . S
C316 H278 0.930 . S
C316 C292 1.417 . S
C316 C317 1.329 . S
C317 C287 1.437 . S
C317 H288 0.929 . S
C317 C316 1.329 . S
H318 C291 0.931 . S
C319 O301 1.265 . S
C319 O302 1.242 . S
C320 O305 1.261 . S
C320 O306 1.252 . S
C321 C324 1.394 . S
C321 C326 1.370 . S
C321 C327 1.500 . S
C322 C325 1.383 . S
C322 C326 1.395 . S
C323 C324 1.396 . S
C323 C325 1.365 . S
C323 H332 0.929 . S
C324 C321 1.394 . S
C324 C323 1.396 . S
C324 H333 0.930 . S
C325 C322 1.383 . S
C325 C323 1.365 . S
C325 H334 0.931 . S
C326 C321 1.370 . S
C326 C322 1.395 . S
C326 H335 0.930 . S
C327 Gd263 2.805 . S
C327 O303 1.263 . S
C327 O304 1.252 . S
C327 C321 1.500 . S
H328 C311 0.929 . S
H329 C312 0.925 1_554 S
H330 C313 0.931 . S
H331 C314 0.924 1_554 S
H332 C323 0.929 . S
H333 C324 0.930 . S
H334 C325 0.931 . S
H335 C326 0.930 . S
C336 C338 1.422 . S
C336 C340 1.415 . S
C336 N342 1.369 . S
C337 C338 1.421 . S
C337 C339 1.417 . S
C337 C349 1.422 . S
C338 C336 1.422 . S
C338 C337 1.421 . S
C338 N348 1.359 . S
C339 C337 1.417 . S
C339 C341 1.329 . S
C339 H358 0.930 . S
C340 C336 1.415 . S
C340 C341 1.437 . S
C340 C344 1.413 . S
C341 C339 1.329 . S
C341 C340 1.437 . S
C341 H363 0.929 . S
N342 C336 1.369 . S
N342 C343 1.338 . S
N342 Gd347 2.622 . S
C343 N342 1.338 . S
C343 C345 1.378 . S
C343 H355 0.929 . S
C344 C340 1.413 . S
C344 C345 1.348 . S
C344 H360 0.931 . S
C345 C343 1.378 . S
C345 C344 1.348 . S
C345 H361 0.930 . S
Gd346 N366 2.622 . S
Gd346 N373 2.570 . S
Gd346 O380 2.353 . S
Gd346 O381 2.468 . S
Gd346 O382 2.427 . S
Gd346 O384 2.388 . S
Gd346 O385 2.386 . S
Gd346 O389 2.307 . S
Gd346 C399 2.805 . S
Gd347 N342 2.622 . S
Gd347 N348 2.570 . S
Gd347 O379 2.386 . S
Gd347 O383 2.307 . S
Gd347 O386 2.353 . S
Gd347 O387 2.468 . S
Gd347 O388 2.427 . S
Gd347 O390 2.388 . S
Gd347 C411 2.805 . S
N348 C338 1.359 . S
N348 Gd347 2.570 . S
N348 C350 1.343 . S
C349 C337 1.422 . S
C349 C351 1.321 . S
C349 H357 0.931 . S
C350 N348 1.343 . S
C350 C351 1.390 . S
C350 H352 0.931 . S
C351 C349 1.321 . S
C351 C350 1.390 . S
C351 H353 0.930 . S
H352 C350 0.931 . S
H353 C351 0.930 . S
H354 C377 0.931 . S
H355 C343 0.929 . S
H356 C378 0.930 . S
H357 C349 0.931 . S
H358 C339 0.930 . S
H359 C368 0.929 . S
H360 C344 0.931 . S
H361 C345 0.930 . S
H362 C400 0.930 . S
H363 C341 0.929 . S
H364 C369 0.931 . S
H365 C370 0.930 . S
N366 Gd346 2.622 . S
N366 C367 1.369 . S
N366 C368 1.338 . S
C367 N366 1.369 . S
C367 C371 1.415 . S
C367 C374 1.422 . S
C368 H359 0.929 . S
C368 N366 1.338 . S
C368 C370 1.378 . S
C369 H364 0.931 . S
C369 C370 1.348 . S
C369 C371 1.413 . S
C370 H365 0.930 . S
C370 C368 1.378 . S
C370 C369 1.348 . S
C371 C367 1.415 . S
C371 C369 1.413 . S
C371 C401 1.437 . S
H372 C401 0.929 . S
N373 Gd346 2.570 . S
N373 C374 1.359 . S
N373 C377 1.343 . S
C374 C367 1.422 . S
C374 N373 1.359 . S
C374 C376 1.421 . S
C375 C376 1.422 . S
C375 C378 1.321 . S
C375 H402 0.931 . S
C376 C374 1.421 . S
C376 C375 1.422 . S
C376 C400 1.417 . S
C377 H354 0.931 . S
C377 N373 1.343 . S
C377 C378 1.390 . S
C378 H356 0.930 . S
C378 C375 1.321 . S
C378 C377 1.390 . S
O379 Gd347 2.386 . S
O379 C391 1.265 . S
O380 Gd346 2.353 . S
O380 C391 1.242 . S
O381 Gd346 2.468 . S
O381 C399 1.263 . S
O382 Gd346 2.427 . S
O382 C399 1.252 . S
O383 Gd347 2.307 . S
O383 C392 1.261 . S
O384 Gd346 2.388 . S
O384 C392 1.252 . S
O385 Gd346 2.386 . S
O385 C403 1.265 . S
O386 Gd347 2.353 . S
O386 C403 1.242 . S
O387 Gd347 2.468 . S
O387 C411 1.263 . S
O388 Gd347 2.427 . S
O388 C411 1.252 . S
O389 Gd346 2.307 . S
O389 C404 1.261 . S
O390 Gd347 2.388 . S
O390 C404 1.252 . S
C391 O379 1.265 . S
C391 O380 1.242 . S
C392 O383 1.261 . S
C392 O384 1.252 . S
C393 C396 1.394 . S
C393 C398 1.370 . S
C393 C399 1.500 . S
C394 C397 1.383 . S
C394 C398 1.395 . S
C395 C396 1.396 . S
C395 C397 1.365 . S
C395 H412 0.929 . S
C396 C393 1.394 . S
C396 C395 1.396 . S
C396 H413 0.930 . S
C397 C394 1.383 . S
C397 C395 1.365 . S
C397 H414 0.931 . S
C398 C393 1.370 . S
C398 C394 1.395 . S
C398 H415 0.930 . S
C399 Gd346 2.805 . S
C399 O381 1.263 . S
C399 O382 1.252 . S
C399 C393 1.500 . S
C400 H362 0.930 . S
C400 C376 1.417 . S
C400 C401 1.329 . S
C401 C371 1.437 . S
C401 H372 0.929 . S
C401 C400 1.329 . S
H402 C375 0.931 . S
C403 O385 1.265 . S
C403 O386 1.242 . S
C404 O389 1.261 . S
C404 O390 1.252 . S
C405 C408 1.389 1_554 S
C405 C410 1.370 1_554 S
C405 C411 1.500 . S
C406 C409 1.383 . S
C406 C410 1.395 . S
C407 C408 1.407 . S
C407 C409 1.365 . S
C407 H416 0.929 . S
C408 C405 1.389 1_556 S
C408 C407 1.407 . S
C408 H417 0.923 1_556 S
C409 C406 1.383 . S
C409 C407 1.365 . S
C409 H418 0.931 . S
C410 C405 1.370 1_556 S
C410 C406 1.395 . S
C410 H419 0.923 1_556 S
C411 Gd347 2.805 . S
C411 O387 1.263 . S
C411 O388 1.252 . S
C411 C405 1.500 . S
H412 C395 0.929 . S
H413 C396 0.930 . S
H414 C397 0.931 . S
H415 C398 0.930 . S
H416 C407 0.929 . S
H417 C408 0.923 1_554 S
H418 C409 0.931 . S
H419 C410 0.923 1_554 S
C420 C422 1.422 . S
C420 C424 1.415 . S
C420 N426 1.369 . S
C421 C422 1.421 . S
C421 C423 1.417 . S
C421 C433 1.422 . S
C422 C420 1.422 . S
C422 C421 1.421 . S
C422 N432 1.359 . S
C423 C421 1.417 . S
C423 C425 1.329 . S
C423 H442 0.930 . S
C424 C420 1.415 . S
C424 C425 1.437 . S
C424 C428 1.413 . S
C425 C423 1.329 . S
C425 C424 1.437 . S
C425 H447 0.929 . S
N426 C420 1.369 . S
N426 C427 1.338 . S
N426 Gd431 2.622 . S
C427 N426 1.338 . S
C427 C429 1.378 . S
C427 H439 0.929 . S
C428 C424 1.413 . S
C428 C429 1.348 . S
C428 H444 0.931 . S
C429 C427 1.378 . S
C429 C428 1.348 . S
C429 H445 0.930 . S
Gd430 N450 2.622 . S
Gd430 N457 2.570 . S
Gd430 O464 2.353 . S
Gd430 O465 2.468 . S
Gd430 O466 2.427 . S
Gd430 O468 2.388 . S
Gd430 O469 2.386 . S
Gd430 O473 2.307 . S
Gd430 C483 2.805 . S
Gd431 N426 2.622 . S
Gd431 N432 2.570 . S
Gd431 O463 2.386 . S
Gd431 O467 2.307 . S
Gd431 O470 2.353 . S
Gd431 O471 2.468 . S
Gd431 O472 2.427 . S
Gd431 O474 2.388 . S
Gd431 C495 2.805 . S
N432 C422 1.359 . S
N432 Gd431 2.570 . S
N432 C434 1.343 . S
C433 C421 1.422 . S
C433 C435 1.321 . S
C433 H441 0.931 . S
C434 N432 1.343 . S
C434 C435 1.390 . S
C434 H436 0.931 . S
C435 C433 1.321 . S
C435 C434 1.390 . S
C435 H437 0.930 . S
H436 C434 0.931 . S
H437 C435 0.930 . S
H438 C461 0.931 . S
H439 C427 0.929 . S
H440 C462 0.930 . S
H441 C433 0.931 . S
H442 C423 0.930 . S
H443 C452 0.929 . S
H444 C428 0.931 . S
H445 C429 0.930 . S
H446 C484 0.930 . S
H447 C425 0.929 . S
H448 C453 0.931 . S
H449 C454 0.930 . S
N450 Gd430 2.622 . S
N450 C451 1.369 . S
N450 C452 1.338 . S
C451 N450 1.369 . S
C451 C455 1.415 . S
C451 C458 1.422 . S
C452 H443 0.929 . S
C452 N450 1.338 . S
C452 C454 1.378 . S
C453 H448 0.931 . S
C453 C454 1.348 . S
C453 C455 1.413 . S
C454 H449 0.930 . S
C454 C452 1.378 . S
C454 C453 1.348 . S
C455 C451 1.415 . S
C455 C453 1.413 . S
C455 C485 1.437 . S
H456 C485 0.929 . S
N457 Gd430 2.570 . S
N457 C458 1.359 . S
N457 C461 1.343 . S
C458 C451 1.422 . S
C458 N457 1.359 . S
C458 C460 1.421 . S
C459 C460 1.422 . S
C459 C462 1.321 . S
C459 H486 0.931 . S
C460 C458 1.421 . S
C460 C459 1.422 . S
C460 C484 1.417 . S
C461 H438 0.931 . S
C461 N457 1.343 . S
C461 C462 1.390 . S
C462 H440 0.930 . S
C462 C459 1.321 . S
C462 C461 1.390 . S
O463 Gd431 2.386 . S
O463 C475 1.265 . S
O464 Gd430 2.353 . S
O464 C475 1.242 . S
O465 Gd430 2.468 . S
O465 C483 1.263 . S
O466 Gd430 2.427 . S
O466 C483 1.252 . S
O467 Gd431 2.307 . S
O467 C476 1.261 . S
O468 Gd430 2.388 . S
O468 C476 1.252 . S
O469 Gd430 2.386 . S
O469 C487 1.265 . S
O470 Gd431 2.353 . S
O470 C487 1.242 . S
O471 Gd431 2.468 . S
O471 C495 1.263 . S
O472 Gd431 2.427 . S
O472 C495 1.252 . S
O473 Gd430 2.307 . S
O473 C488 1.261 . S
O474 Gd431 2.388 . S
O474 C488 1.252 . S
C475 O463 1.265 . S
C475 O464 1.242 . S
C476 O467 1.261 . S
C476 O468 1.252 . S
C477 C480 1.394 . S
C477 C482 1.370 . S
C477 C483 1.500 . S
C478 C481 1.383 . S
C478 C482 1.395 . S
C479 C480 1.396 . S
C479 C481 1.365 . S
C479 H496 0.929 . S
C480 C477 1.394 . S
C480 C479 1.396 . S
C480 H497 0.930 . S
C481 C478 1.383 . S
C481 C479 1.365 . S
C481 H498 0.931 . S
C482 C477 1.370 . S
C482 C478 1.395 . S
C482 H499 0.930 . S
C483 Gd430 2.805 . S
C483 O465 1.263 . S
C483 O466 1.252 . S
C483 C477 1.500 . S
C484 H446 0.930 . S
C484 C460 1.417 . S
C484 C485 1.329 . S
C485 C455 1.437 . S
C485 H456 0.929 . S
C485 C484 1.329 . S
H486 C459 0.931 . S
C487 O469 1.265 . S
C487 O470 1.242 . S
C488 O473 1.261 . S
C488 O474 1.252 . S
C489 C492 1.391 1_556 S
C489 C494 1.370 1_556 S
C489 C495 1.500 . S
C490 C493 1.383 . S
C490 C494 1.395 . S
C491 C492 1.403 . S
C491 C493 1.365 . S
C491 H500 0.929 . S
C492 C489 1.391 1_554 S
C492 C491 1.403 . S
C492 H501 0.925 1_554 S
C493 C490 1.383 . S
C493 C491 1.365 . S
C493 H502 0.931 . S
C494 C489 1.370 1_554 S
C494 C490 1.395 . S
C494 H503 0.924 1_554 S
C495 Gd431 2.805 . S
C495 O471 1.263 . S
C495 O472 1.252 . S
C495 C489 1.500 . S
H496 C479 0.929 . S
H497 C480 0.930 . S
H498 C481 0.931 . S
H499 C482 0.930 . S
H500 C491 0.929 . S
H501 C492 0.925 1_556 S
H502 C493 0.931 . S
H503 C494 0.924 1_556 S
C504 C506 1.422 . S
C504 C508 1.415 . S
C504 N510 1.369 . S
C505 C506 1.421 . S
C505 C507 1.417 . S
C505 C517 1.422 . S
C506 C504 1.422 . S
C506 C505 1.421 . S
C506 N516 1.359 . S
C507 C505 1.417 . S
C507 C509 1.329 . S
C507 H526 0.930 . S
C508 C504 1.415 . S
C508 C509 1.437 . S
C508 C512 1.413 . S
C509 C507 1.329 . S
C509 C508 1.437 . S
C509 H531 0.929 . S
N510 C504 1.369 . S
N510 C511 1.338 . S
N510 Gd515 2.622 . S
C511 N510 1.338 . S
C511 C513 1.378 . S
C511 H523 0.929 . S
C512 C508 1.413 . S
C512 C513 1.348 . S
C512 H528 0.931 . S
C513 C511 1.378 . S
C513 C512 1.348 . S
C513 H529 0.930 . S
Gd514 N534 2.622 . S
Gd514 N541 2.570 . S
Gd514 O548 2.353 . S
Gd514 O549 2.468 . S
Gd514 O550 2.427 . S
Gd514 O552 2.388 . S
Gd514 O553 2.386 1_554 S
Gd514 O557 2.307 . S
Gd514 C567 2.805 . S
Gd515 N510 2.622 . S
Gd515 N516 2.570 . S
Gd515 O547 2.386 1_556 S
Gd515 O551 2.307 . S
Gd515 O554 2.353 . S
Gd515 O555 2.468 . S
Gd515 O556 2.427 . S
Gd515 O558 2.388 . S
Gd515 C579 2.805 . S
N516 C506 1.359 . S
N516 Gd515 2.570 . S
N516 C518 1.343 . S
C517 C505 1.422 . S
C517 C519 1.321 . S
C517 H525 0.931 . S
C518 N516 1.343 . S
C518 C519 1.390 . S
C518 H520 0.931 . S
C519 C517 1.321 . S
C519 C518 1.390 . S
C519 H521 0.930 . S
H520 C518 0.931 . S
H521 C519 0.930 . S
H522 C545 0.931 . S
H523 C511 0.929 . S
H524 C546 0.930 . S
H525 C517 0.931 . S
H526 C507 0.930 . S
H527 C536 0.929 . S
H528 C512 0.931 . S
H529 C513 0.930 . S
H530 C568 0.930 . S
H531 C509 0.929 . S
H532 C537 0.931 . S
H533 C538 0.930 . S
N534 Gd514 2.622 . S
N534 C535 1.369 . S
N534 C536 1.338 . S
C535 N534 1.369 . S
C535 C539 1.415 . S
C535 C542 1.422 . S
C536 H527 0.929 . S
C536 N534 1.338 . S
C536 C538 1.378 . S
C537 H532 0.931 . S
C537 C538 1.348 . S
C537 C539 1.413 . S
C538 H533 0.930 . S
C538 C536 1.378 . S
C538 C537 1.348 . S
C539 C535 1.415 . S
C539 C537 1.413 . S
C539 C569 1.437 . S
H540 C569 0.929 . S
N541 Gd514 2.570 . S
N541 C542 1.359 . S
N541 C545 1.343 . S
C542 C535 1.422 . S
C542 N541 1.359 . S
C542 C544 1.421 . S
C543 C544 1.422 . S
C543 C546 1.321 . S
C543 H570 0.931 . S
C544 C542 1.421 . S
C544 C543 1.422 . S
C544 C568 1.417 . S
C545 H522 0.931 . S
C545 N541 1.343 . S
C545 C546 1.390 . S
C546 H524 0.930 . S
C546 C543 1.321 . S
C546 C545 1.390 . S
O547 Gd515 2.386 1_554 S
O547 C559 1.265 . S
O548 Gd514 2.353 . S
O548 C559 1.242 . S
O549 Gd514 2.468 . S
O549 C567 1.263 . S
O550 Gd514 2.427 . S
O550 C567 1.252 . S
O551 Gd515 2.307 . S
O551 C560 1.261 . S
O552 Gd514 2.388 . S
O552 C560 1.252 1_554 S
O553 Gd514 2.386 1_556 S
O553 C571 1.265 . S
O554 Gd515 2.353 . S
O554 C571 1.242 . S
O555 Gd515 2.468 . S
O555 C579 1.263 . S
O556 Gd515 2.427 . S
O556 C579 1.252 . S
O557 Gd514 2.307 . S
O557 C572 1.261 . S
O558 Gd515 2.388 . S
O558 C572 1.252 1_556 S
C559 O547 1.265 . S
C559 O548 1.242 . S
C560 O551 1.261 . S
C560 O552 1.252 1_556 S
C561 C564 1.394 . S
C561 C566 1.370 . S
C561 C567 1.500 . S
C562 C565 1.383 . S
C562 C566 1.395 . S
C563 C564 1.396 . S
C563 C565 1.365 . S
C563 H580 0.929 . S
C564 C561 1.394 . S
C564 C563 1.396 . S
C564 H581 0.930 . S
C565 C562 1.383 . S
C565 C563 1.365 . S
C565 H582 0.931 . S
C566 C561 1.370 . S
C566 C562 1.395 . S
C566 H583 0.930 . S
C567 Gd514 2.805 . S
C567 O549 1.263 . S
C567 O550 1.252 . S
C567 C561 1.500 . S
C568 H530 0.930 . S
C568 C544 1.417 . S
C568 C569 1.329 . S
C569 C539 1.437 . S
C569 H540 0.929 . S
C569 C568 1.329 . S
H570 C543 0.931 . S
C571 O553 1.265 . S
C571 O554 1.242 . S
C572 O557 1.261 . S
C572 O558 1.252 1_554 S
C573 C576 1.394 . S
C573 C578 1.370 . S
C573 C579 1.500 . S
C574 C577 1.383 . S
C574 C578 1.395 . S
C575 C576 1.396 . S
C575 C577 1.365 . S
C575 H584 0.929 . S
C576 C573 1.394 . S
C576 C575 1.396 . S
C576 H585 0.930 . S
C577 C574 1.383 . S
C577 C575 1.365 . S
C577 H586 0.931 . S
C578 C573 1.370 . S
C578 C574 1.395 . S
C578 H587 0.930 . S
C579 Gd515 2.805 . S
C579 O555 1.263 . S
C579 O556 1.252 . S
C579 C573 1.500 . S
H580 C563 0.929 . S
H581 C564 0.930 . S
H582 C565 0.931 . S
H583 C566 0.930 . S
H584 C575 0.929 . S
H585 C576 0.930 . S
H586 C577 0.931 . S
H587 C578 0.930 . S
C588 C590 1.422 . S
C588 C592 1.415 . S
C588 N594 1.369 1_455 S
C589 C590 1.421 . S
C589 C591 1.417 . S
C589 C601 1.422 . S
C590 C588 1.422 . S
C590 C589 1.421 . S
C590 N600 1.359 . S
C591 C589 1.417 . S
C591 C593 1.329 . S
C591 H610 0.930 . S
C592 C588 1.415 . S
C592 C593 1.437 . S
C592 C596 1.413 1_455 S
C593 C591 1.329 . S
C593 C592 1.437 . S
C593 H615 0.929 . S
N594 C588 1.369 1_655 S
N594 C595 1.338 . S
N594 Gd599 2.623 . S
C595 N594 1.338 . S
C595 C597 1.378 . S
C595 H607 0.929 . S
C596 C592 1.413 1_655 S
C596 C597 1.348 . S
C596 H612 0.931 . S
C597 C595 1.378 . S
C597 C596 1.348 . S
C597 H613 0.930 . S
Gd598 N618 2.622 . S
Gd598 N625 2.570 1_455 S
Gd598 O632 2.353 . S
Gd598 O633 2.468 1_455 S
Gd598 O634 2.427 . S
Gd598 O636 2.388 . S
Gd598 O637 2.386 1_455 S
Gd598 O641 2.307 1_455 S
Gd598 C651 2.805 . S
Gd599 N594 2.623 . S
Gd599 N600 2.546 1_655 S
Gd599 O631 2.371 1_655 S
Gd599 O635 2.288 1_655 S
Gd599 O638 2.371 . S
Gd599 O639 2.463 1_655 S
Gd599 O640 2.443 . S
Gd599 O642 2.410 . S
Gd599 C663 2.811 . S
N600 C590 1.359 . S
N600 Gd599 2.546 1_455 S
N600 C602 1.343 . S
C601 C589 1.422 . S
C601 C603 1.321 . S
C601 H609 0.931 . S
C602 N600 1.343 . S
C602 C603 1.390 . S
C602 H604 0.931 . S
C603 C601 1.321 . S
C603 C602 1.390 . S
C603 H605 0.930 . S
H604 C602 0.931 . S
H605 C603 0.930 . S
H606 C629 0.931 . S
H607 C595 0.929 . S
H608 C630 0.930 . S
H609 C601 0.931 . S
H610 C591 0.930 . S
H611 C620 0.929 . S
H612 C596 0.931 . S
H613 C597 0.930 . S
H614 C652 0.930 . S
H615 C593 0.929 . S
H616 C621 0.931 . S
H617 C622 0.930 . S
N618 Gd598 2.622 . S
N618 C619 1.369 1_455 S
N618 C620 1.338 . S
C619 N618 1.369 1_655 S
C619 C623 1.415 . S
C619 C626 1.422 . S
C620 H611 0.929 . S
C620 N618 1.338 . S
C620 C622 1.378 . S
C621 H616 0.931 . S
C621 C622 1.348 . S
C621 C623 1.413 1_455 S
C622 H617 0.930 . S
C622 C620 1.378 . S
C622 C621 1.348 . S
C623 C619 1.415 . S
C623 C621 1.413 1_655 S
C623 C653 1.437 . S
H624 C653 0.929 . S
N625 Gd598 2.570 1_655 S
N625 C626 1.359 . S
N625 C629 1.343 . S
C626 C619 1.422 . S
C626 N625 1.359 . S
C626 C628 1.421 . S
C627 C628 1.422 . S
C627 C630 1.321 . S
C627 H654 0.931 . S
C628 C626 1.421 . S
C628 C627 1.422 . S
C628 C652 1.417 . S
C629 H606 0.931 . S
C629 N625 1.343 . S
C629 C630 1.390 . S
C630 H608 0.930 . S
C630 C627 1.321 . S
C630 C629 1.390 . S
O631 Gd599 2.371 1_455 S
O631 C643 1.265 . S
O632 Gd598 2.353 . S
O632 C643 1.242 . S
O633 Gd598 2.468 1_655 S
O633 C651 1.263 1_655 S
O634 Gd598 2.427 . S
O634 C651 1.252 . S
O635 Gd599 2.288 1_455 S
O635 C644 1.261 . S
O636 Gd598 2.388 . S
O636 C644 1.252 . S
O637 Gd598 2.386 1_655 S
O637 C655 1.265 . S
O638 Gd599 2.371 . S
O638 C655 1.242 . S
O639 Gd599 2.463 1_455 S
O639 C663 1.263 1_455 S
O640 Gd599 2.443 . S
O640 C663 1.252 . S
O641 Gd598 2.307 1_655 S
O641 C656 1.261 . S
O642 Gd599 2.410 . S
O642 C656 1.252 . S
C643 O631 1.265 . S
C643 O632 1.242 . S
C644 O635 1.261 . S
C644 O636 1.252 . S
C645 C648 1.394 . S
C645 C650 1.370 . S
C645 C651 1.500 . S
C646 C649 1.383 . S
C646 C650 1.395 . S
C647 C648 1.396 . S
C647 C649 1.365 . S
C647 H664 0.929 . S
C648 C645 1.394 . S
C648 C647 1.396 . S
C648 H665 0.930 . S
C649 C646 1.383 . S
C649 C647 1.365 . S
C649 H666 0.931 . S
C650 C645 1.370 . S
C650 C646 1.395 . S
C650 H667 0.930 1_455 S
C651 Gd598 2.805 . S
C651 O633 1.263 1_455 S
C651 O634 1.252 . S
C651 C645 1.500 . S
C652 H614 0.930 . S
C652 C628 1.417 . S
C652 C653 1.329 . S
C653 C623 1.437 . S
C653 H624 0.929 . S
C653 C652 1.329 . S
H654 C627 0.931 . S
C655 O637 1.265 . S
C655 O638 1.242 . S
C656 O641 1.261 . S
C656 O642 1.252 . S
C657 C660 1.394 . S
C657 C662 1.370 . S
C657 C663 1.500 . S
C658 C661 1.383 . S
C658 C662 1.395 . S
C659 C660 1.396 . S
C659 C661 1.365 . S
C659 H668 0.929 . S
C660 C657 1.394 . S
C660 C659 1.396 . S
C660 H669 0.930 . S
C661 C658 1.383 . S
C661 C659 1.365 . S
C661 H670 0.931 . S
C662 C657 1.370 . S
C662 C658 1.395 . S
C662 H671 0.930 1_655 S
C663 Gd599 2.811 . S
C663 O639 1.263 1_655 S
C663 O640 1.252 . S
C663 C657 1.500 . S
H664 C647 0.929 . S
H665 C648 0.930 . S
H666 C649 0.931 . S
H667 C650 0.930 1_655 S
H668 C659 0.929 . S
H669 C660 0.930 . S
H670 C661 0.931 . S
H671 C662 0.930 1_455 S
C672 C673 1.391 . S
C672 C674 1.394 . S
C672 H688 0.931 . S
C673 C672 1.391 . S
C673 C677 1.376 . S
C674 C672 1.394 . S
C674 C675 1.369 . S
C674 C678 1.531 . S
C675 C674 1.369 . S
C675 C676 1.410 . S
C675 C683 1.503 . S
C676 C675 1.410 . S
C676 C677 1.392 . S
C676 C679 1.511 . S
C677 C673 1.376 . S
C677 C676 1.392 . S
C677 H689 0.929 . S
C678 C674 1.531 . S
C678 H690 0.960 . S
C678 H691 0.962 . S
C678 H692 0.960 . S
C679 C676 1.511 . S
C679 H693 0.961 . S
C679 H694 0.961 . S
C679 H695 0.961 . S
C680 C681 1.370 . S
C680 C682 1.363 . S
C680 H696 0.931 . S
C681 C680 1.370 . S
C681 C685 1.408 . S
C682 C680 1.363 . S
C682 C683 1.370 . S
C682 C686 1.524 . S
C683 C675 1.503 . S
C683 C682 1.370 . S
C683 C684 1.403 . S
C684 C683 1.403 . S
C684 C685 1.404 . S
C684 C687 1.539 . S
C685 C681 1.408 . S
C685 C684 1.404 . S
C685 H697 0.930 . S
C686 C682 1.524 . S
C686 H698 0.956 . S
C686 H699 0.961 . S
C686 H700 0.961 . S
C687 C684 1.539 . S
C687 H701 0.958 . S
C687 H702 0.961 . S
C687 H703 0.960 . S
H688 C672 0.931 . S
H689 C677 0.929 . S
H690 C678 0.960 . S
H691 C678 0.962 . S
H692 C678 0.960 . S
H693 C679 0.961 . S
H694 C679 0.961 . S
H695 C679 0.961 . S
H696 C680 0.931 . S
H697 C685 0.930 . S
H698 C686 0.956 . S
H699 C686 0.961 . S
H700 C686 0.961 . S
H701 C687 0.958 . S
H702 C687 0.961 . S
H703 C687 0.960 . S
C704 C705 1.391 . S
C704 C706 1.394 . S
C704 H720 0.931 . S
C705 C704 1.391 . S
C705 C709 1.376 . S
C706 C704 1.394 . S
C706 C707 1.369 . S
C706 C710 1.531 . S
C707 C706 1.369 . S
C707 C708 1.410 . S
C707 C715 1.503 . S
C708 C707 1.410 . S
C708 C709 1.392 . S
C708 C711 1.511 . S
C709 C705 1.376 . S
C709 C708 1.392 . S
C709 H721 0.929 . S
C710 C706 1.531 . S
C710 H722 0.960 . S
C710 H723 0.962 . S
C710 H724 0.960 . S
C711 C708 1.511 . S
C711 H725 0.961 . S
C711 H726 0.961 . S
C711 H727 0.961 . S
C712 C713 1.370 . S
C712 C714 1.363 . S
C712 H728 0.931 . S
C713 C712 1.370 . S
C713 C717 1.408 . S
C714 C712 1.363 . S
C714 C715 1.370 . S
C714 C718 1.524 . S
C715 C707 1.503 . S
C715 C714 1.370 . S
C715 C716 1.403 . S
C716 C715 1.403 . S
C716 C717 1.404 . S
C716 C719 1.539 . S
C717 C713 1.408 . S
C717 C716 1.404 . S
C717 H729 0.930 . S
C718 C714 1.524 . S
C718 H730 0.956 . S
C718 H731 0.961 . S
C718 H732 0.961 . S
C719 C716 1.539 . S
C719 H733 0.958 . S
C719 H734 0.961 . S
C719 H735 0.960 . S
H720 C704 0.931 . S
H721 C709 0.929 . S
H722 C710 0.960 . S
H723 C710 0.962 . S
H724 C710 0.960 . S
H725 C711 0.961 . S
H726 C711 0.961 . S
H727 C711 0.961 . S
H728 C712 0.931 . S
H729 C717 0.930 . S
H730 C718 0.956 . S
H731 C718 0.961 . S
H732 C718 0.961 . S
H733 C719 0.958 . S
H734 C719 0.961 . S
H735 C719 0.960 . S
C736 C737 1.391 . S
C736 C738 1.394 . S
C736 H752 0.931 . S
C737 C736 1.391 . S
C737 C741 1.376 . S
C738 C736 1.394 . S
C738 C739 1.369 . S
C738 C742 1.531 . S
C739 C738 1.369 . S
C739 C740 1.410 . S
C739 C747 1.503 . S
C740 C739 1.410 . S
C740 C741 1.392 . S
C740 C743 1.511 . S
C741 C737 1.376 . S
C741 C740 1.392 . S
C741 H753 0.929 . S
C742 C738 1.531 . S
C742 H754 0.960 . S
C742 H755 0.962 . S
C742 H756 0.960 . S
C743 C740 1.511 . S
C743 H757 0.961 . S
C743 H758 0.961 . S
C743 H759 0.961 . S
C744 C745 1.370 . S
C744 C746 1.363 . S
C744 H760 0.931 . S
C745 C744 1.370 . S
C745 C749 1.408 . S
C746 C744 1.363 . S
C746 C747 1.370 . S
C746 C750 1.524 . S
C747 C739 1.503 . S
C747 C746 1.370 . S
C747 C748 1.403 . S
C748 C747 1.403 . S
C748 C749 1.404 . S
C748 C751 1.539 . S
C749 C745 1.408 . S
C749 C748 1.404 . S
C749 H761 0.930 . S
C750 C746 1.524 . S
C750 H762 0.956 . S
C750 H763 0.961 . S
C750 H764 0.961 . S
C751 C748 1.539 . S
C751 H765 0.958 . S
C751 H766 0.961 . S
C751 H767 0.960 . S
H752 C736 0.931 . S
H753 C741 0.929 . S
H754 C742 0.960 . S
H755 C742 0.962 . S
H756 C742 0.960 . S
H757 C743 0.961 . S
H758 C743 0.961 . S
H759 C743 0.961 . S
H760 C744 0.931 . S
H761 C749 0.930 . S
H762 C750 0.956 . S
H763 C750 0.961 . S
H764 C750 0.961 . S
H765 C751 0.958 . S
H766 C751 0.961 . S
H767 C751 0.960 . S
C768 C769 1.391 . S
C768 C770 1.394 . S
C768 H784 0.931 . S
C769 C768 1.391 . S
C769 C773 1.376 . S
C770 C768 1.394 . S
C770 C771 1.369 . S
C770 C774 1.531 . S
C771 C770 1.369 . S
C771 C772 1.410 . S
C771 C779 1.503 . S
C772 C771 1.410 . S
C772 C773 1.392 . S
C772 C775 1.511 . S
C773 C769 1.376 . S
C773 C772 1.392 . S
C773 H785 0.938 . S
C774 C770 1.531 . S
C774 H786 0.960 . S
C774 H787 0.962 . S
C774 H788 0.960 . S
C775 C772 1.511 . S
C775 H789 0.961 1_554 S
C775 H790 0.961 . S
C775 H791 0.961 . S
C776 C777 1.370 . S
C776 C778 1.363 . S
C776 H792 0.931 . S
C777 C776 1.370 . S
C777 C781 1.408 . S
C778 C776 1.363 . S
C778 C779 1.370 . S
C778 C782 1.524 . S
C779 C771 1.503 . S
C779 C778 1.370 . S
C779 C780 1.403 . S
C780 C779 1.403 . S
C780 C781 1.404 . S
C780 C783 1.539 . S
C781 C777 1.408 . S
C781 C780 1.404 . S
C781 H793 0.930 . S
C782 C778 1.524 . S
C782 H794 0.956 . S
C782 H795 0.961 . S
C782 H796 0.961 . S
C783 C780 1.539 . S
C783 H797 0.958 . S
C783 H798 0.961 . S
C783 H799 0.960 . S
H784 C768 0.931 . S
H785 C773 0.938 . S
H786 C774 0.960 . S
H787 C774 0.962 . S
H788 C774 0.960 . S
H789 C775 0.961 1_556 S
H790 C775 0.961 . S
H791 C775 0.961 . S
H792 C776 0.931 . S
H793 C781 0.930 . S
H794 C782 0.956 . S
H795 C782 0.961 . S
H796 C782 0.961 . S
H797 C783 0.958 . S
H798 C783 0.961 . S
H799 C783 0.960 . S
C800 C801 1.391 . S
C800 C802 1.394 . S
C800 H816 0.931 . S
C801 C800 1.391 . S
C801 C805 1.376 . S
C802 C800 1.394 . S
C802 C803 1.369 . S
C802 C806 1.531 . S
C803 C802 1.369 . S
C803 C804 1.410 . S
C803 C811 1.503 . S
C804 C803 1.410 . S
C804 C805 1.392 . S
C804 C807 1.511 . S
C805 C801 1.376 . S
C805 C804 1.392 . S
C805 H817 0.929 . S
C806 C802 1.531 . S
C806 H818 0.960 . S
C806 H819 0.962 . S
C806 H820 0.960 . S
C807 C804 1.511 . S
C807 H821 0.961 . S
C807 H822 0.961 . S
C807 H823 0.961 . S
C808 C809 1.370 . S
C808 C810 1.363 . S
C808 H824 0.931 . S
C809 C808 1.370 . S
C809 C813 1.408 . S
C810 C808 1.363 . S
C810 C811 1.370 . S
C810 C814 1.524 . S
C811 C803 1.503 . S
C811 C810 1.370 . S
C811 C812 1.403 . S
C812 C811 1.403 . S
C812 C813 1.404 . S
C812 C815 1.539 . S
C813 C809 1.408 . S
C813 C812 1.404 . S
C813 H825 0.930 . S
C814 C810 1.524 . S
C814 H826 0.956 . S
C814 H827 0.961 . S
C814 H828 0.961 . S
C815 C812 1.539 . S
C815 H829 0.958 . S
C815 H830 0.961 . S
C815 H831 0.960 . S
H816 C800 0.931 . S
H817 C805 0.929 . S
H818 C806 0.960 . S
H819 C806 0.962 . S
H820 C806 0.960 . S
H821 C807 0.961 . S
H822 C807 0.961 . S
H823 C807 0.961 . S
H824 C808 0.931 . S
H825 C813 0.930 . S
H826 C814 0.956 . S
H827 C814 0.961 . S
H828 C814 0.961 . S
H829 C815 0.958 . S
H830 C815 0.961 . S
H831 C815 0.960 . S
C832 C833 1.391 . S
C832 C834 1.394 . S
C832 H848 0.931 . S
C833 C832 1.391 . S
C833 C837 1.376 . S
C834 C832 1.394 . S
C834 C835 1.369 . S
C834 C838 1.531 . S
C835 C834 1.369 . S
C835 C836 1.410 . S
C835 C843 1.503 . S
C836 C835 1.410 . S
C836 C837 1.392 . S
C836 C839 1.511 . S
C837 C833 1.376 . S
C837 C836 1.392 . S
C837 H849 0.929 . S
C838 C834 1.531 . S
C838 H850 0.960 . S
C838 H851 0.962 . S
C838 H852 0.960 . S
C839 C836 1.511 . S
C839 H853 0.961 . S
C839 H854 0.961 . S
C839 H855 0.961 . S
C840 C841 1.370 . S
C840 C842 1.363 . S
C840 H856 0.931 . S
C841 C840 1.370 . S
C841 C845 1.408 . S
C842 C840 1.363 . S
C842 C843 1.370 . S
C842 C846 1.524 . S
C843 C835 1.503 . S
C843 C842 1.370 . S
C843 C844 1.403 . S
C844 C843 1.403 . S
C844 C845 1.404 . S
C844 C847 1.539 . S
C845 C841 1.408 . S
C845 C844 1.404 . S
C845 H857 0.930 . S
C846 C842 1.524 . S
C846 H858 0.956 . S
C846 H859 0.961 . S
C846 H860 0.961 . S
C847 C844 1.539 . S
C847 H861 0.958 . S
C847 H862 0.961 . S
C847 H863 0.960 . S
H848 C832 0.931 . S
H849 C837 0.929 . S
H850 C838 0.960 . S
H851 C838 0.962 . S
H852 C838 0.960 . S
H853 C839 0.961 . S
H854 C839 0.961 . S
H855 C839 0.961 . S
H856 C840 0.931 . S
H857 C845 0.930 . S
H858 C846 0.956 . S
H859 C846 0.961 . S
H860 C846 0.961 . S
H861 C847 0.958 . S
H862 C847 0.961 . S
H863 C847 0.960 . S
C864 C865 1.391 . S
C864 C866 1.394 . S
C864 H880 0.931 . S
C865 C864 1.391 . S
C865 C869 1.376 . S
C866 C864 1.394 . S
C866 C867 1.369 . S
C866 C870 1.531 . S
C867 C866 1.369 . S
C867 C868 1.410 . S
C867 C875 1.503 . S
C868 C867 1.410 . S
C868 C869 1.392 . S
C868 C871 1.511 . S
C869 C865 1.376 . S
C869 C868 1.392 . S
C869 H881 0.929 . S
C870 C866 1.531 . S
C870 H882 0.960 . S
C870 H883 0.962 . S
C870 H884 0.960 . S
C871 C868 1.511 . S
C871 H885 0.961 . S
C871 H886 0.961 . S
C871 H887 0.961 . S
C872 C873 1.370 . S
C872 C874 1.363 . S
C872 H888 0.931 . S
C873 C872 1.370 . S
C873 C877 1.408 . S
C874 C872 1.363 . S
C874 C875 1.370 . S
C874 C878 1.524 . S
C875 C867 1.503 . S
C875 C874 1.370 . S
C875 C876 1.403 . S
C876 C875 1.403 . S
C876 C877 1.404 . S
C876 C879 1.539 . S
C877 C873 1.408 . S
C877 C876 1.404 . S
C877 H889 0.930 . S
C878 C874 1.524 . S
C878 H890 0.956 . S
C878 H891 0.961 . S
C878 H892 0.961 . S
C879 C876 1.539 . S
C879 H893 0.958 . S
C879 H894 0.961 . S
C879 H895 0.960 . S
H880 C864 0.931 . S
H881 C869 0.929 . S
H882 C870 0.960 . S
H883 C870 0.962 . S
H884 C870 0.960 . S
H885 C871 0.961 . S
H886 C871 0.961 . S
H887 C871 0.961 . S
H888 C872 0.931 . S
H889 C877 0.930 . S
H890 C878 0.956 . S
H891 C878 0.961 . S
H892 C878 0.961 . S
H893 C879 0.958 . S
H894 C879 0.961 . S
H895 C879 0.960 . S
C896 C897 1.391 . S
C896 C898 1.394 . S
C896 H912 0.931 . S
C897 C896 1.391 . S
C897 C901 1.376 . S
C898 C896 1.394 . S
C898 C899 1.369 . S
C898 C902 1.531 . S
C899 C898 1.369 . S
C899 C900 1.410 . S
C899 C907 1.503 . S
C900 C899 1.410 . S
C900 C901 1.392 . S
C900 C903 1.511 . S
C901 C897 1.376 . S
C901 C900 1.392 . S
C901 H913 0.929 . S
C902 C898 1.531 . S
C902 H914 0.960 . S
C902 H915 0.962 . S
C902 H916 0.960 . S
C903 C900 1.511 . S
C903 H917 0.961 . S
C903 H918 0.961 . S
C903 H919 0.961 . S
C904 C905 1.370 . S
C904 C906 1.363 . S
C904 H920 0.931 . S
C905 C904 1.370 . S
C905 C909 1.408 . S
C906 C904 1.363 . S
C906 C907 1.370 . S
C906 C910 1.524 . S
C907 C899 1.503 . S
C907 C906 1.370 . S
C907 C908 1.403 . S
C908 C907 1.403 . S
C908 C909 1.404 . S
C908 C911 1.539 . S
C909 C905 1.408 . S
C909 C908 1.404 . S
C909 H921 0.930 . S
C910 C906 1.524 . S
C910 H922 0.956 . S
C910 H923 0.961 . S
C910 H924 0.953 1_556 S
C911 C908 1.539 . S
C911 H925 0.958 . S
C911 H926 0.961 . S
C911 H927 0.960 . S
H912 C896 0.931 . S
H913 C901 0.929 . S
H914 C902 0.960 . S
H915 C902 0.962 . S
H916 C902 0.960 . S
H917 C903 0.961 . S
H918 C903 0.961 . S
H919 C903 0.961 . S
H920 C904 0.931 . S
H921 C909 0.930 . S
H922 C910 0.956 . S
H923 C910 0.961 . S
H924 C910 0.953 1_554 S
H925 C911 0.958 . S
H926 C911 0.961 . S
H927 C911 0.960 . S
C928 C929 1.391 . S
C928 C930 1.394 . S
C928 H944 0.931 . S
C929 C928 1.391 . S
C929 C933 1.376 . S
C930 C928 1.394 . S
C930 C931 1.369 . S
C930 C934 1.531 . S
C931 C930 1.369 . S
C931 C932 1.410 . S
C931 C939 1.503 . S
C932 C931 1.410 . S
C932 C933 1.392 . S
C932 C935 1.511 . S
C933 C929 1.376 . S
C933 C932 1.392 . S
C933 H945 0.929 . S
C934 C930 1.531 . S
C934 H946 0.960 . S
C934 H947 0.962 . S
C934 H948 0.960 . S
C935 C932 1.511 . S
C935 H949 0.961 . S
C935 H950 0.961 . S
C935 H951 0.961 . S
C936 C937 1.370 . S
C936 C938 1.363 . S
C936 H952 0.931 . S
C937 C936 1.370 . S
C937 C941 1.408 . S
C938 C936 1.363 . S
C938 C939 1.370 . S
C938 C942 1.524 . S
C939 C931 1.503 . S
C939 C938 1.370 . S
C939 C940 1.403 . S
C940 C939 1.403 . S
C940 C941 1.404 . S
C940 C943 1.539 . S
C941 C937 1.408 . S
C941 C940 1.404 . S
C941 H953 0.930 . S
C942 C938 1.524 . S
C942 H954 0.956 . S
C942 H955 0.961 . S
C942 H956 0.961 . S
C943 C940 1.539 . S
C943 H957 0.958 . S
C943 H958 0.961 . S
C943 H959 0.960 . S
H944 C928 0.931 . S
H945 C933 0.929 . S
H946 C934 0.960 . S
H947 C934 0.962 . S
H948 C934 0.960 . S
H949 C935 0.961 . S
H950 C935 0.961 . S
H951 C935 0.961 . S
H952 C936 0.931 . S
H953 C941 0.930 . S
H954 C942 0.956 . S
H955 C942 0.961 . S
H956 C942 0.961 . S
H957 C943 0.958 . S
H958 C943 0.961 . S
H959 C943 0.960 . S
C960 C961 1.391 . S
C960 C962 1.394 . S
C960 H976 0.931 . S
C961 C960 1.391 . S
C961 C965 1.376 . S
C962 C960 1.394 . S
C962 C963 1.369 . S
C962 C966 1.531 . S
C963 C962 1.369 . S
C963 C964 1.410 . S
C963 C971 1.503 . S
C964 C963 1.410 . S
C964 C965 1.392 . S
C964 C967 1.511 . S
C965 C961 1.376 . S
C965 C964 1.392 . S
C965 H977 0.929 . S
C966 C962 1.531 . S
C966 H978 0.960 . S
C966 H979 0.962 . S
C966 H980 0.960 . S
C967 C964 1.511 . S
C967 H981 0.961 . S
C967 H982 0.961 . S
C967 H983 0.961 . S
C968 C969 1.370 . S
C968 C970 1.363 . S
C968 H984 0.931 . S
C969 C968 1.370 . S
C969 C973 1.408 . S
C970 C968 1.363 . S
C970 C971 1.370 . S
C970 C974 1.524 . S
C971 C963 1.503 . S
C971 C970 1.370 . S
C971 C972 1.403 . S
C972 C971 1.403 . S
C972 C973 1.404 . S
C972 C975 1.539 . S
C973 C969 1.408 . S
C973 C972 1.404 . S
C973 H985 0.930 . S
C974 C970 1.524 . S
C974 H986 0.956 . S
C974 H987 0.961 . S
C974 H988 0.961 . S
C975 C972 1.539 . S
C975 H989 0.958 . S
C975 H990 0.961 . S
C975 H991 0.960 . S
H976 C960 0.931 . S
H977 C965 0.929 . S
H978 C966 0.960 . S
H979 C966 0.962 . S
H980 C966 0.960 . S
H981 C967 0.961 . S
H982 C967 0.961 . S
H983 C967 0.961 . S
H984 C968 0.931 . S
H985 C973 0.930 . S
H986 C974 0.956 . S
H987 C974 0.961 . S
H988 C974 0.961 . S
H989 C975 0.958 . S
H990 C975 0.961 . S
H991 C975 0.960 . S
C992 C993 1.391 . S
C992 C994 1.394 . S
C992 H1008 0.931 . S
C993 C992 1.391 . S
C993 C997 1.376 . S
C994 C992 1.394 . S
C994 C995 1.369 . S
C994 C998 1.531 . S
C995 C994 1.369 . S
C995 C996 1.410 . S
C995 C1003 1.503 . S
C996 C995 1.410 . S
C996 C997 1.392 . S
C996 C999 1.511 . S
C997 C993 1.376 . S
C997 C996 1.392 . S
C997 H1009 0.929 . S
C998 C994 1.531 . S
C998 H1010 0.960 . S
C998 H1011 0.962 . S
C998 H1012 0.960 . S
C999 C996 1.511 . S
C999 H1013 0.961 . S
C999 H1014 0.961 . S
C999 H1015 0.961 . S
C1000 C1001 1.370 . S
C1000 C1002 1.363 . S
C1000 H1016 0.931 . S
C1001 C1000 1.370 . S
C1001 C1005 1.408 . S
C1002 C1000 1.363 . S
C1002 C1003 1.370 . S
C1002 C1006 1.524 . S
C1003 C995 1.503 . S
C1003 C1002 1.370 . S
C1003 C1004 1.403 . S
C1004 C1003 1.403 . S
C1004 C1005 1.404 . S
C1004 C1007 1.539 . S
C1005 C1001 1.408 . S
C1005 C1004 1.404 . S
C1005 H1017 0.930 . S
C1006 C1002 1.524 . S
C1006 H1018 0.956 . S
C1006 H1019 0.961 . S
C1006 H1020 0.961 . S
C1007 C1004 1.539 . S
C1007 H1021 0.958 . S
C1007 H1022 0.961 . S
C1007 H1023 0.960 . S
H1008 C992 0.931 . S
H1009 C997 0.929 . S
H1010 C998 0.960 . S
H1011 C998 0.962 . S
H1012 C998 0.960 . S
H1013 C999 0.961 . S
H1014 C999 0.961 . S
H1015 C999 0.961 . S
H1016 C1000 0.931 . S
H1017 C1005 0.930 . S
H1018 C1006 0.956 . S
H1019 C1006 0.961 . S
H1020 C1006 0.961 . S
H1021 C1007 0.958 . S
H1022 C1007 0.961 . S
H1023 C1007 0.960 . S
C1024 C1025 1.391 . S
C1024 C1026 1.394 . S
C1024 H1040 0.931 . S
C1025 C1024 1.391 . S
C1025 C1029 1.376 . S
C1026 C1024 1.394 . S
C1026 C1027 1.369 . S
C1026 C1030 1.531 . S
C1027 C1026 1.369 . S
C1027 C1028 1.410 . S
C1027 C1035 1.503 . S
C1028 C1027 1.410 . S
C1028 C1029 1.392 . S
C1028 C1031 1.511 . S
C1029 C1025 1.376 . S
C1029 C1028 1.392 . S
C1029 H1041 0.929 . S
C1030 C1026 1.531 . S
C1030 H1042 0.960 . S
C1030 H1043 0.962 . S
C1030 H1044 0.960 . S
C1031 C1028 1.511 . S
C1031 H1045 0.961 . S
C1031 H1046 0.961 . S
C1031 H1047 0.961 . S
C1032 C1033 1.370 . S
C1032 C1034 1.363 . S
C1032 H1048 0.931 . S
C1033 C1032 1.370 . S
C1033 C1037 1.408 . S
C1034 C1032 1.363 . S
C1034 C1035 1.370 . S
C1034 C1038 1.524 . S
C1035 C1027 1.503 . S
C1035 C1034 1.370 . S
C1035 C1036 1.403 . S
C1036 C1035 1.403 . S
C1036 C1037 1.404 . S
C1036 C1039 1.539 . S
C1037 C1033 1.408 . S
C1037 C1036 1.404 . S
C1037 H1049 0.930 . S
C1038 C1034 1.524 . S
C1038 H1050 0.956 . S
C1038 H1051 0.961 . S
C1038 H1052 0.961 . S
C1039 C1036 1.539 . S
C1039 H1053 0.958 . S
C1039 H1054 0.961 . S
C1039 H1055 0.960 . S
H1040 C1024 0.931 . S
H1041 C1029 0.929 . S
H1042 C1030 0.960 . S
H1043 C1030 0.962 . S
H1044 C1030 0.960 . S
H1045 C1031 0.961 . S
H1046 C1031 0.961 . S
H1047 C1031 0.961 . S
H1048 C1032 0.931 . S
H1049 C1037 0.930 . S
H1050 C1038 0.956 . S
H1051 C1038 0.961 . S
H1052 C1038 0.961 . S
H1053 C1039 0.958 . S
H1054 C1039 0.961 . S
H1055 C1039 0.960 . S
C1056 C1057 1.391 . S
C1056 C1058 1.394 . S
C1056 H1072 0.931 . S
C1057 C1056 1.391 . S
C1057 C1061 1.376 . S
C1058 C1056 1.394 . S
C1058 C1059 1.369 . S
C1058 C1062 1.531 . S
C1059 C1058 1.369 . S
C1059 C1060 1.410 . S
C1059 C1067 1.503 . S
C1060 C1059 1.410 . S
C1060 C1061 1.392 . S
C1060 C1063 1.511 . S
C1061 C1057 1.376 . S
C1061 C1060 1.392 . S
C1061 H1073 0.929 . S
C1062 C1058 1.531 . S
C1062 H1074 0.960 . S
C1062 H1075 0.962 . S
C1062 H1076 0.960 . S
C1063 C1060 1.511 . S
C1063 H1077 0.961 . S
C1063 H1078 0.961 . S
C1063 H1079 0.961 . S
C1064 C1065 1.370 . S
C1064 C1066 1.363 . S
C1064 H1080 0.931 . S
C1065 C1064 1.370 . S
C1065 C1069 1.408 . S
C1066 C1064 1.363 . S
C1066 C1067 1.370 . S
C1066 C1070 1.524 . S
C1067 C1059 1.503 . S
C1067 C1066 1.370 . S
C1067 C1068 1.403 . S
C1068 C1067 1.403 . S
C1068 C1069 1.404 . S
C1068 C1071 1.539 . S
C1069 C1065 1.408 . S
C1069 C1068 1.404 . S
C1069 H1081 0.930 . S
C1070 C1066 1.524 . S
C1070 H1082 0.956 . S
C1070 H1083 0.961 . S
C1070 H1084 0.961 . S
C1071 C1068 1.539 . S
C1071 H1085 0.958 . S
C1071 H1086 0.961 . S
C1071 H1087 0.960 . S
H1072 C1056 0.931 . S
H1073 C1061 0.929 . S
H1074 C1062 0.960 . S
H1075 C1062 0.962 . S
H1076 C1062 0.960 . S
H1077 C1063 0.961 . S
H1078 C1063 0.961 . S
H1079 C1063 0.961 . S
H1080 C1064 0.931 . S
H1081 C1069 0.930 . S
H1082 C1070 0.956 . S
H1083 C1070 0.961 . S
H1084 C1070 0.961 . S
H1085 C1071 0.958 . S
H1086 C1071 0.961 . S
H1087 C1071 0.960 . S
C1088 C1089 1.391 . S
C1088 C1090 1.394 . S
C1088 H1104 0.931 1_556 S
C1089 C1088 1.391 . S
C1089 C1093 1.376 . S
C1090 C1088 1.394 . S
C1090 C1091 1.369 . S
C1090 C1094 1.531 . S
C1091 C1090 1.369 . S
C1091 C1092 1.410 . S
C1091 C1099 1.503 . S
C1092 C1091 1.410 . S
C1092 C1093 1.392 . S
C1092 C1095 1.511 . S
C1093 C1089 1.376 . S
C1093 C1092 1.392 . S
C1093 H1105 0.929 . S
C1094 C1090 1.531 . S
C1094 H1106 0.960 . S
C1094 H1107 0.962 . S
C1094 H1108 0.960 1_556 S
C1095 C1092 1.511 . S
C1095 H1109 0.961 . S
C1095 H1110 0.961 . S
C1095 H1111 0.961 . S
C1096 C1097 1.370 . S
C1096 C1098 1.363 . S
C1096 H1112 0.931 . S
C1097 C1096 1.370 . S
C1097 C1101 1.408 . S
C1098 C1096 1.363 . S
C1098 C1099 1.370 . S
C1098 C1102 1.524 . S
C1099 C1091 1.503 . S
C1099 C1098 1.370 . S
C1099 C1100 1.403 . S
C1100 C1099 1.403 . S
C1100 C1101 1.404 . S
C1100 C1103 1.539 . S
C1101 C1097 1.408 . S
C1101 C1100 1.404 . S
C1101 H1113 0.930 . S
C1102 C1098 1.524 . S
C1102 H1114 0.956 . S
C1102 H1115 0.961 . S
C1102 H1116 0.961 . S
C1103 C1100 1.539 . S
C1103 H1117 0.958 . S
C1103 H1118 0.961 . S
C1103 H1119 0.960 . S
H1104 C1088 0.931 1_554 S
H1105 C1093 0.929 . S
H1106 C1094 0.960 . S
H1107 C1094 0.962 . S
H1108 C1094 0.960 1_554 S
H1109 C1095 0.961 . S
H1110 C1095 0.961 . S
H1111 C1095 0.961 . S
H1112 C1096 0.931 . S
H1113 C1101 0.930 . S
H1114 C1102 0.956 . S
H1115 C1102 0.961 . S
H1116 C1102 0.961 . S
H1117 C1103 0.958 . S
H1118 C1103 0.961 . S
H1119 C1103 0.960 . S
C1120 C1121 1.391 . S
C1120 C1122 1.394 . S
C1120 H1136 0.931 . S
C1121 C1120 1.391 . S
C1121 C1125 1.376 . S
C1122 C1120 1.394 . S
C1122 C1123 1.369 . S
C1122 C1126 1.531 . S
C1123 C1122 1.369 . S
C1123 C1124 1.410 . S
C1123 C1131 1.503 . S
C1124 C1123 1.410 . S
C1124 C1125 1.392 . S
C1124 C1127 1.511 . S
C1125 C1121 1.376 . S
C1125 C1124 1.392 . S
C1125 H1137 0.929 . S
C1126 C1122 1.531 . S
C1126 H1138 0.960 . S
C1126 H1139 0.962 . S
C1126 H1140 0.960 . S
C1127 C1124 1.511 . S
C1127 H1141 0.961 . S
C1127 H1142 0.961 . S
C1127 H1143 0.961 . S
C1128 C1129 1.370 . S
C1128 C1130 1.363 . S
C1128 H1144 0.931 . S
C1129 C1128 1.370 . S
C1129 C1133 1.408 . S
C1130 C1128 1.363 . S
C1130 C1131 1.370 . S
C1130 C1134 1.524 . S
C1131 C1123 1.503 . S
C1131 C1130 1.370 . S
C1131 C1132 1.403 . S
C1132 C1131 1.403 . S
C1132 C1133 1.404 . S
C1132 C1135 1.539 . S
C1133 C1129 1.408 . S
C1133 C1132 1.404 . S
C1133 H1145 0.930 . S
C1134 C1130 1.524 . S
C1134 H1146 0.956 . S
C1134 H1147 0.961 . S
C1134 H1148 0.961 . S
C1135 C1132 1.539 . S
C1135 H1149 0.958 . S
C1135 H1150 0.961 . S
C1135 H1151 0.960 . S
H1136 C1120 0.931 . S
H1137 C1125 0.929 . S
H1138 C1126 0.960 . S
H1139 C1126 0.962 . S
H1140 C1126 0.960 . S
H1141 C1127 0.961 . S
H1142 C1127 0.961 . S
H1143 C1127 0.961 . S
H1144 C1128 0.931 . S
H1145 C1133 0.930 . S
H1146 C1134 0.956 . S
H1147 C1134 0.961 . S
H1148 C1134 0.961 . S
H1149 C1135 0.958 . S
H1150 C1135 0.961 . S
H1151 C1135 0.960 . S
C1152 C1153 1.391 . S
C1152 C1154 1.394 . S
C1152 H1168 0.931 . S
C1153 C1152 1.391 . S
C1153 C1157 1.376 . S
C1154 C1152 1.394 . S
C1154 C1155 1.369 . S
C1154 C1158 1.531 . S
C1155 C1154 1.369 . S
C1155 C1156 1.410 . S
C1155 C1163 1.503 . S
C1156 C1155 1.410 . S
C1156 C1157 1.392 . S
C1156 C1159 1.511 . S
C1157 C1153 1.376 . S
C1157 C1156 1.392 . S
C1157 H1169 0.929 . S
C1158 C1154 1.531 . S
C1158 H1170 0.960 . S
C1158 H1171 0.962 . S
C1158 H1172 0.960 . S
C1159 C1156 1.511 . S
C1159 H1173 0.961 . S
C1159 H1174 0.961 . S
C1159 H1175 0.961 . S
C1160 C1161 1.370 . S
C1160 C1162 1.363 . S
C1160 H1176 0.931 . S
C1161 C1160 1.370 . S
C1161 C1165 1.408 . S
C1162 C1160 1.363 . S
C1162 C1163 1.370 . S
C1162 C1166 1.524 . S
C1163 C1155 1.503 . S
C1163 C1162 1.370 . S
C1163 C1164 1.403 . S
C1164 C1163 1.403 . S
C1164 C1165 1.404 . S
C1164 C1167 1.539 . S
C1165 C1161 1.408 . S
C1165 C1164 1.404 . S
C1165 H1177 0.930 . S
C1166 C1162 1.524 . S
C1166 H1178 0.956 . S
C1166 H1179 0.961 . S
C1166 H1180 0.961 . S
C1167 C1164 1.539 . S
C1167 H1181 0.958 . S
C1167 H1182 0.961 . S
C1167 H1183 0.960 . S
H1168 C1152 0.931 . S
H1169 C1157 0.929 . S
H1170 C1158 0.960 . S
H1171 C1158 0.962 . S
H1172 C1158 0.960 . S
H1173 C1159 0.961 . S
H1174 C1159 0.961 . S
H1175 C1159 0.961 . S
H1176 C1160 0.931 . S
H1177 C1165 0.930 . S
H1178 C1166 0.956 . S
H1179 C1166 0.961 . S
H1180 C1166 0.961 . S
H1181 C1167 0.958 . S
H1182 C1167 0.961 . S
H1183 C1167 0.960 . S
C1184 C1185 1.391 1_445 S
C1184 C1186 1.394 . S
C1184 H1200 0.931 . S
C1185 C1184 1.391 1_665 S
C1185 C1189 1.376 . S
C1186 C1184 1.394 . S
C1186 C1187 1.369 1_455 S
C1186 C1190 1.531 . S
C1187 C1186 1.369 1_655 S
C1187 C1188 1.410 1_545 S
C1187 C1195 1.503 1_556 S
C1188 C1187 1.410 1_565 S
C1188 C1189 1.392 . S
C1188 C1191 1.511 . S
C1189 C1185 1.376 . S
C1189 C1188 1.392 . S
C1189 H1201 0.929 . S
C1190 C1186 1.531 . S
C1190 H1202 0.972 . S
C1190 H1203 0.962 . S
C1190 H1204 0.960 . S
C1191 C1188 1.511 . S
C1191 H1205 0.961 . S
C1191 H1206 0.961 1_556 S
C1191 H1207 0.961 . S
C1192 C1193 1.370 1_565 S
C1192 C1194 1.363 . S
C1192 H1208 0.931 . S
C1193 C1192 1.370 1_545 S
C1193 C1197 1.408 1_455 S
C1194 C1192 1.363 . S
C1194 C1195 1.370 1_465 S
C1194 C1198 1.524 . S
C1195 C1187 1.503 1_554 S
C1195 C1194 1.370 1_645 S
C1195 C1196 1.403 . S
C1196 C1195 1.403 . S
C1196 C1197 1.404 . S
C1196 C1199 1.539 . S
C1197 C1193 1.408 1_655 S
C1197 C1196 1.404 . S
C1197 H1209 0.930 . S
C1198 C1194 1.524 . S
C1198 H1210 0.956 . S
C1198 H1211 0.961 . S
C1198 H1212 0.961 . S
C1199 C1196 1.539 . S
C1199 H1213 0.958 . S
C1199 H1214 0.961 . S
C1199 H1215 0.960 1_554 S
H1200 C1184 0.931 . S
H1201 C1189 0.929 . S
H1202 C1190 0.972 . S
H1203 C1190 0.962 . S
H1204 C1190 0.960 . S
H1205 C1191 0.961 . S
H1206 C1191 0.961 1_554 S
H1207 C1191 0.961 . S
H1208 C1192 0.931 . S
H1209 C1197 0.930 . S
H1210 C1198 0.956 . S
H1211 C1198 0.961 . S
H1212 C1198 0.961 . S
H1213 C1199 0.958 . S
H1214 C1199 0.961 . S
H1215 C1199 0.960 1_556 S
C1216 C1217 1.391 . S
C1216 C1218 1.394 . S
C1216 H1232 0.931 . S
C1217 C1216 1.391 . S
C1217 C1221 1.376 . S
C1218 C1216 1.394 . S
C1218 C1219 1.369 . S
C1218 C1222 1.531 . S
C1219 C1218 1.369 . S
C1219 C1220 1.410 . S
C1219 C1227 1.503 . S
C1220 C1219 1.410 . S
C1220 C1221 1.392 . S
C1220 C1223 1.511 . S
C1221 C1217 1.376 . S
C1221 C1220 1.392 . S
C1221 H1233 0.929 . S
C1222 C1218 1.531 . S
C1222 H1234 0.960 . S
C1222 H1235 0.962 . S
C1222 H1236 0.960 . S
C1223 C1220 1.511 . S
C1223 H1237 0.961 . S
C1223 H1238 0.961 . S
C1223 H1239 0.961 . S
C1224 C1225 1.370 . S
C1224 C1226 1.363 . S
C1224 H1240 0.931 . S
C1225 C1224 1.370 . S
C1225 C1229 1.408 . S
C1226 C1224 1.363 . S
C1226 C1227 1.370 . S
C1226 C1230 1.524 . S
C1227 C1219 1.503 . S
C1227 C1226 1.370 . S
C1227 C1228 1.403 . S
C1228 C1227 1.403 . S
C1228 C1229 1.404 . S
C1228 C1231 1.539 . S
C1229 C1225 1.408 . S
C1229 C1228 1.404 . S
C1229 H1241 0.930 . S
C1230 C1226 1.524 . S
C1230 H1242 0.956 . S
C1230 H1243 0.961 . S
C1230 H1244 0.961 . S
C1231 C1228 1.539 . S
C1231 H1245 0.958 . S
C1231 H1246 0.961 . S
C1231 H1247 0.960 . S
H1232 C1216 0.931 . S
H1233 C1221 0.929 . S
H1234 C1222 0.960 . S
H1235 C1222 0.962 . S
H1236 C1222 0.960 . S
H1237 C1223 0.961 . S
H1238 C1223 0.961 . S
H1239 C1223 0.961 . S
H1240 C1224 0.931 . S
H1241 C1229 0.930 . S
H1242 C1230 0.956 . S
H1243 C1230 0.961 . S
H1244 C1230 0.961 . S
H1245 C1231 0.958 . S
H1246 C1231 0.961 . S
H1247 C1231 0.960 . S
C1248 C1249 1.391 1_545 S
C1248 C1250 1.394 . S
C1248 H1264 0.931 . S
C1249 C1248 1.391 1_565 S
C1249 C1253 1.376 . S
C1250 C1248 1.394 . S
C1250 C1251 1.369 . S
C1250 C1254 1.531 . S
C1251 C1250 1.369 . S
C1251 C1252 1.410 1_545 S
C1251 C1259 1.503 . S
C1252 C1251 1.410 1_565 S
C1252 C1253 1.392 . S
C1252 C1255 1.511 . S
C1253 C1249 1.376 . S
C1253 C1252 1.392 . S
C1253 H1265 0.929 . S
C1254 C1250 1.531 . S
C1254 H1266 0.960 . S
C1254 H1267 0.962 . S
C1254 H1268 0.960 . S
C1255 C1252 1.511 . S
C1255 H1269 0.961 . S
C1255 H1270 0.961 . S
C1255 H1271 0.961 . S
C1256 C1257 1.370 1_565 S
C1256 C1258 1.363 . S
C1256 H1272 0.931 . S
C1257 C1256 1.370 1_545 S
C1257 C1261 1.408 . S
C1258 C1256 1.363 . S
C1258 C1259 1.370 1_565 S
C1258 C1262 1.524 . S
C1259 C1251 1.503 . S
C1259 C1258 1.370 1_545 S
C1259 C1260 1.403 . S
C1260 C1259 1.403 . S
C1260 C1261 1.404 . S
C1260 C1263 1.539 . S
C1261 C1257 1.408 . S
C1261 C1260 1.404 . S
C1261 H1273 0.930 . S
C1262 C1258 1.524 . S
C1262 H1274 0.956 . S
C1262 H1275 0.961 . S
C1262 H1276 0.961 . S
C1263 C1260 1.539 . S
C1263 H1277 0.958 . S
C1263 H1278 0.961 . S
C1263 H1279 0.960 . S
H1264 C1248 0.931 . S
H1265 C1253 0.929 . S
H1266 C1254 0.960 . S
H1267 C1254 0.962 . S
H1268 C1254 0.960 . S
H1269 C1255 0.961 . S
H1270 C1255 0.961 . S
H1271 C1255 0.961 . S
H1272 C1256 0.931 . S
H1273 C1261 0.930 . S
H1274 C1262 0.956 . S
H1275 C1262 0.961 . S
H1276 C1262 0.961 . S
H1277 C1263 0.958 . S
H1278 C1263 0.961 . S
H1279 C1263 0.960 . S
C1280 C1281 1.391 . S
C1280 C1282 1.394 . S
C1280 H1296 0.931 . S
C1281 C1280 1.391 . S
C1281 C1285 1.376 . S
C1282 C1280 1.394 . S
C1282 C1283 1.369 . S
C1282 C1286 1.531 . S
C1283 C1282 1.369 . S
C1283 C1284 1.410 . S
C1283 C1291 1.503 . S
C1284 C1283 1.410 . S
C1284 C1285 1.392 . S
C1284 C1287 1.511 . S
C1285 C1281 1.376 . S
C1285 C1284 1.392 . S
C1285 H1297 0.929 . S
C1286 C1282 1.531 . S
C1286 H1298 0.960 . S
C1286 H1299 0.962 . S
C1286 H1300 0.960 . S
C1287 C1284 1.511 . S
C1287 H1301 0.961 . S
C1287 H1302 0.961 . S
C1287 H1303 0.961 . S
C1288 C1289 1.370 . S
C1288 C1290 1.363 . S
C1288 H1304 0.931 . S
C1289 C1288 1.370 . S
C1289 C1293 1.408 . S
C1290 C1288 1.363 . S
C1290 C1291 1.370 . S
C1290 C1294 1.524 . S
C1291 C1283 1.503 . S
C1291 C1290 1.370 . S
C1291 C1292 1.403 . S
C1292 C1291 1.403 . S
C1292 C1293 1.404 . S
C1292 C1295 1.539 . S
C1293 C1289 1.408 . S
C1293 C1292 1.404 . S
C1293 H1305 0.930 . S
C1294 C1290 1.524 . S
C1294 H1306 0.956 . S
C1294 H1307 0.961 . S
C1294 H1308 0.961 . S
C1295 C1292 1.539 . S
C1295 H1309 0.958 . S
C1295 H1310 0.961 . S
C1295 H1311 0.960 . S
H1296 C1280 0.931 . S
H1297 C1285 0.929 . S
H1298 C1286 0.960 . S
H1299 C1286 0.962 . S
H1300 C1286 0.960 . S
H1301 C1287 0.961 . S
H1302 C1287 0.961 . S
H1303 C1287 0.961 . S
H1304 C1288 0.931 . S
H1305 C1293 0.930 . S
H1306 C1294 0.956 . S
H1307 C1294 0.961 . S
H1308 C1294 0.961 . S
H1309 C1295 0.958 . S
H1310 C1295 0.961 . S
H1311 C1295 0.960 . S
C1312 C1313 1.391 . S
C1312 C1314 1.394 . S
C1312 H1328 0.931 . S
C1313 C1312 1.391 . S
C1313 C1317 1.376 . S
C1314 C1312 1.394 . S
C1314 C1315 1.369 . S
C1314 C1318 1.531 . S
C1315 C1314 1.369 . S
C1315 C1316 1.410 . S
C1315 C1323 1.503 . S
C1316 C1315 1.410 . S
C1316 C1317 1.392 . S
C1316 C1319 1.511 . S
C1317 C1313 1.376 . S
C1317 C1316 1.392 . S
C1317 H1329 0.929 . S
C1318 C1314 1.531 . S
C1318 H1330 0.960 . S
C1318 H1331 0.962 . S
C1318 H1332 0.960 . S
C1319 C1316 1.511 . S
C1319 H1333 0.961 . S
C1319 H1334 0.961 . S
C1319 H1335 0.961 . S
C1320 C1321 1.370 . S
C1320 C1322 1.363 . S
C1320 H1336 0.931 . S
C1321 C1320 1.370 . S
C1321 C1325 1.408 . S
C1322 C1320 1.363 . S
C1322 C1323 1.370 . S
C1322 C1326 1.524 . S
C1323 C1315 1.503 . S
C1323 C1322 1.370 . S
C1323 C1324 1.403 . S
C1324 C1323 1.403 . S
C1324 C1325 1.404 . S
C1324 C1327 1.539 . S
C1325 C1321 1.408 . S
C1325 C1324 1.404 . S
C1325 H1337 0.930 . S
C1326 C1322 1.524 . S
C1326 H1338 0.956 . S
C1326 H1339 0.961 . S
C1326 H1340 0.961 . S
C1327 C1324 1.539 . S
C1327 H1341 0.958 . S
C1327 H1342 0.961 . S
C1327 H1343 0.960 . S
H1328 C1312 0.931 . S
H1329 C1317 0.929 . S
H1330 C1318 0.960 . S
H1331 C1318 0.962 . S
H1332 C1318 0.960 . S
H1333 C1319 0.961 . S
H1334 C1319 0.961 . S
H1335 C1319 0.961 . S
H1336 C1320 0.931 . S
H1337 C1325 0.930 . S
H1338 C1326 0.956 . S
H1339 C1326 0.961 . S
H1340 C1326 0.961 . S
H1341 C1327 0.958 . S
H1342 C1327 0.961 . S
H1343 C1327 0.960 . S
C1344 C1345 1.391 . S
C1344 C1346 1.394 . S
C1344 H1360 0.931 . S
C1345 C1344 1.391 . S
C1345 C1349 1.376 . S
C1346 C1344 1.394 . S
C1346 C1347 1.369 . S
C1346 C1350 1.531 . S
C1347 C1346 1.369 . S
C1347 C1348 1.410 . S
C1347 C1355 1.503 . S
C1348 C1347 1.410 . S
C1348 C1349 1.392 . S
C1348 C1351 1.511 . S
C1349 C1345 1.376 . S
C1349 C1348 1.392 . S
C1349 H1361 0.929 . S
C1350 C1346 1.531 . S
C1350 H1362 0.960 . S
C1350 H1363 0.962 . S
C1350 H1364 0.960 . S
C1351 C1348 1.511 . S
C1351 H1365 0.961 . S
C1351 H1366 0.961 . S
C1351 H1367 0.961 . S
C1352 C1353 1.370 . S
C1352 C1354 1.363 . S
C1352 H1368 0.931 . S
C1353 C1352 1.370 . S
C1353 C1357 1.408 . S
C1354 C1352 1.363 . S
C1354 C1355 1.370 . S
C1354 C1358 1.524 . S
C1355 C1347 1.503 . S
C1355 C1354 1.370 . S
C1355 C1356 1.403 . S
C1356 C1355 1.403 . S
C1356 C1357 1.404 . S
C1356 C1359 1.539 . S
C1357 C1353 1.408 . S
C1357 C1356 1.404 . S
C1357 H1369 0.930 . S
C1358 C1354 1.524 . S
C1358 H1370 0.956 . S
C1358 H1371 0.961 . S
C1358 H1372 0.961 . S
C1359 C1356 1.539 . S
C1359 H1373 0.958 . S
C1359 H1374 0.961 . S
C1359 H1375 0.960 . S
H1360 C1344 0.931 . S
H1361 C1349 0.929 . S
H1362 C1350 0.960 . S
H1363 C1350 0.962 . S
H1364 C1350 0.960 . S
H1365 C1351 0.961 . S
H1366 C1351 0.961 . S
H1367 C1351 0.961 . S
H1368 C1352 0.931 . S
H1369 C1357 0.930 . S
H1370 C1358 0.956 . S
H1371 C1358 0.961 . S
H1372 C1358 0.961 . S
H1373 C1359 0.958 . S
H1374 C1359 0.961 . S
H1375 C1359 0.960 . S
C1376 C1377 1.391 . S
C1376 C1378 1.394 . S
C1376 H1392 0.931 . S
C1377 C1376 1.391 . S
C1377 C1381 1.376 . S
C1378 C1376 1.394 . S
C1378 C1379 1.369 . S
C1378 C1382 1.531 . S
C1379 C1378 1.369 . S
C1379 C1380 1.410 . S
C1379 C1387 1.503 . S
C1380 C1379 1.410 . S
C1380 C1381 1.392 . S
C1380 C1383 1.511 . S
C1381 C1377 1.376 . S
C1381 C1380 1.392 . S
C1381 H1393 0.929 . S
C1382 C1378 1.531 . S
C1382 H1394 0.960 . S
C1382 H1395 0.962 . S
C1382 H1396 0.960 . S
C1383 C1380 1.511 . S
C1383 H1397 0.961 . S
C1383 H1398 0.961 . S
C1383 H1399 0.961 . S
C1384 C1385 1.370 . S
C1384 C1386 1.363 . S
C1384 H1400 0.931 . S
C1385 C1384 1.370 . S
C1385 C1389 1.408 . S
C1386 C1384 1.363 . S
C1386 C1387 1.370 . S
C1386 C1390 1.524 . S
C1387 C1379 1.503 . S
C1387 C1386 1.370 . S
C1387 C1388 1.403 . S
C1388 C1387 1.403 . S
C1388 C1389 1.404 . S
C1388 C1391 1.539 . S
C1389 C1385 1.408 . S
C1389 C1388 1.404 . S
C1389 H1401 0.930 . S
C1390 C1386 1.524 . S
C1390 H1402 0.956 . S
C1390 H1403 0.961 . S
C1390 H1404 0.961 . S
C1391 C1388 1.539 . S
C1391 H1405 0.958 . S
C1391 H1406 0.961 . S
C1391 H1407 0.960 . S
H1392 C1376 0.931 . S
H1393 C1381 0.929 . S
H1394 C1382 0.960 . S
H1395 C1382 0.962 . S
H1396 C1382 0.960 . S
H1397 C1383 0.961 . S
H1398 C1383 0.961 . S
H1399 C1383 0.961 . S
H1400 C1384 0.931 . S
H1401 C1389 0.930 . S
H1402 C1390 0.956 . S
H1403 C1390 0.961 . S
H1404 C1390 0.961 . S
H1405 C1391 0.958 . S
H1406 C1391 0.961 . S
H1407 C1391 0.960 . S
C1408 C1409 1.391 1_655 S
C1408 C1410 1.394 . S
C1408 H1424 0.931 . S
C1409 C1408 1.391 1_455 S
C1409 C1413 1.376 . S
C1410 C1408 1.394 . S
C1410 C1411 1.369 1_655 S
C1410 C1414 1.531 . S
C1411 C1410 1.369 1_455 S
C1411 C1412 1.410 . S
C1411 C1419 1.504 1_556 S
C1412 C1411 1.410 . S
C1412 C1413 1.392 . S
C1412 C1415 1.511 . S
C1413 C1409 1.376 . S
C1413 C1412 1.392 . S
C1413 H1425 0.929 . S
C1414 C1410 1.531 . S
C1414 H1426 0.960 . S
C1414 H1427 0.962 . S
C1414 H1428 0.960 . S
C1415 C1412 1.511 . S
C1415 H1429 0.961 . S
C1415 H1430 0.961 1_556 S
C1415 H1431 0.961 . S
C1416 C1417 1.370 . S
C1416 C1418 1.363 . S
C1416 H1432 0.931 . S
C1417 C1416 1.370 . S
C1417 C1421 1.408 1_655 S
C1418 C1416 1.363 . S
C1418 C1419 1.369 1_655 S
C1418 C1422 1.524 . S
C1419 C1411 1.504 1_554 S
C1419 C1418 1.369 1_455 S
C1419 C1420 1.404 . S
C1420 C1419 1.404 . S
C1420 C1421 1.404 . S
C1420 C1423 1.539 . S
C1421 C1417 1.408 1_455 S
C1421 C1420 1.404 . S
C1421 H1433 0.930 . S
C1422 C1418 1.524 . S
C1422 H1434 0.956 . S
C1422 H1435 0.961 1_655 S
C1422 H1436 0.961 . S
C1423 C1420 1.539 . S
C1423 H1437 0.958 1_455 S
C1423 H1438 0.961 . S
C1423 H1439 0.960 1_554 S
H1424 C1408 0.931 . S
H1425 C1413 0.929 . S
H1426 C1414 0.960 . S
H1427 C1414 0.962 . S
H1428 C1414 0.960 . S
H1429 C1415 0.961 . S
H1430 C1415 0.961 1_554 S
H1431 C1415 0.961 . S
H1432 C1416 0.931 . S
H1433 C1421 0.930 . S
H1434 C1422 0.956 . S
H1435 C1422 0.961 1_455 S
H1436 C1422 0.961 . S
H1437 C1423 0.958 1_655 S
H1438 C1423 0.961 . S
H1439 C1423 0.960 1_556 S
C673 C67 1.508 . S
C681 C319 1.503 . S
C705 C68 1.506 . S
C713 C151 1.499 . S
C737 C152 1.487 . S
C745 C235 1.496 . S
C769 C236 1.488 . S
C777 C320 1.494 . S
C801 C55 1.511 . S
C809 C475 1.509 . S
C833 C56 1.483 . S
C841 C391 1.497 . S
C865 C392 1.476 . S
C873 C223 1.497 . S
C897 C476 1.473 . S
C905 C224 1.504 . S
C929 C571 1.492 . S
C937 C487 1.504 . S
C961 C403 1.486 . S
C969 C572 1.500 . S
C993 C655 1.498 . S
C1001 C404 1.501 . S
C1025 C488 1.473 . S
C1033 C656 1.501 . S
C1057 C307 1.512 . S
C1065 C559 1.506 . S
C1089 C560 1.495 . S
C1097 C139 1.498 . S
C1121 C140 1.500 . S
C1129 C643 1.500 . S
C1153 C308 1.475 . S
C1161 C644 1.496 . S
C1185 C58 1.297 1_565 S
C1193 C70 1.374 1_545 S
C1217 C154 1.396 . S
C1225 C142 1.323 . S
C1249 C238 1.328 1_565 S
C1257 C226 1.358 1_545 S
C1281 C310 1.308 . S
C1289 C322 1.365 . S
C1313 C406 1.290 . S
C1321 C394 1.366 . S
C1345 C478 1.354 . S
C1353 C490 1.347 . S
C1377 C574 1.312 . S
C1385 C562 1.366 . S
C1409 C646 1.301 . S
C1417 C658 1.374 . S
