# Generated by pormake.
# Topology acs-a, (4)-cn, num edge types: 1
# Building blocks:
#     Node 0, Type 0, BuildingBlock: QUQFOY_clean_sbu_1, # of connection points: 4
#     Node 1, Type 0, BuildingBlock: QUQFOY_clean_sbu_1, # of connection points: 4
#     Node 2, Type 0, BuildingBlock: QUQFOY_clean_sbu_1, # of connection points: 4
#     Node 3, Type 0, BuildingBlock: QUQFOY_clean_sbu_1, # of connection points: 4
#     Node 4, Type 0, BuildingBlock: QUQFOY_clean_sbu_1, # of connection points: 4
#     Node 5, Type 0, BuildingBlock: QUQFOY_clean_sbu_1, # of connection points: 4
#     Node 6, Type 0, BuildingBlock: QUQFOY_clean_sbu_1, # of connection points: 4
#     Node 7, Type 0, BuildingBlock: QUQFOY_clean_sbu_1, # of connection points: 4
#     Node 8, Type 0, BuildingBlock: QUQFOY_clean_sbu_1, # of connection points: 4
#     Node 9, Type 0, BuildingBlock: QUQFOY_clean_sbu_1, # of connection points: 4
#     Node 10, Type 0, BuildingBlock: QUQFOY_clean_sbu_1, # of connection points: 4
#     Node 11, Type 0, BuildingBlock: QUQFOY_clean_sbu_1, # of connection points: 4
#     Edge 12, Type (0, 0), BuildingBlock: CIFDUS_clean_linker_0, # of connection points: 2
#     Edge 13, Type (0, 0), BuildingBlock: CIFDUS_clean_linker_0, # of connection points: 2
#     Edge 14, Type (0, 0), BuildingBlock: CIFDUS_clean_linker_0, # of connection points: 2
#     Edge 15, Type (0, 0), BuildingBlock: CIFDUS_clean_linker_0, # of connection points: 2
#     Edge 16, Type (0, 0), BuildingBlock: CIFDUS_clean_linker_0, # of connection points: 2
#     Edge 17, Type (0, 0), BuildingBlock: CIFDUS_clean_linker_0, # of connection points: 2
#     Edge 18, Type (0, 0), BuildingBlock: CIFDUS_clean_linker_0, # of connection points: 2
#     Edge 19, Type (0, 0), BuildingBlock: CIFDUS_clean_linker_0, # of connection points: 2
#     Edge 20, Type (0, 0), BuildingBlock: CIFDUS_clean_linker_0, # of connection points: 2
#     Edge 21, Type (0, 0), BuildingBlock: CIFDUS_clean_linker_0, # of connection points: 2
#     Edge 22, Type (0, 0), BuildingBlock: CIFDUS_clean_linker_0, # of connection points: 2
#     Edge 23, Type (0, 0), BuildingBlock: CIFDUS_clean_linker_0, # of connection points: 2
#     Edge 24, Type (0, 0), BuildingBlock: CIFDUS_clean_linker_0, # of connection points: 2
#     Edge 25, Type (0, 0), BuildingBlock: CIFDUS_clean_linker_0, # of connection points: 2
#     Edge 26, Type (0, 0), BuildingBlock: CIFDUS_clean_linker_0, # of connection points: 2
#     Edge 27, Type (0, 0), BuildingBlock: CIFDUS_clean_linker_0, # of connection points: 2
#     Edge 28, Type (0, 0), BuildingBlock: CIFDUS_clean_linker_0, # of connection points: 2
#     Edge 29, Type (0, 0), BuildingBlock: CIFDUS_clean_linker_0, # of connection points: 2
#     Edge 30, Type (0, 0), BuildingBlock: CIFDUS_clean_linker_0, # of connection points: 2
#     Edge 31, Type (0, 0), BuildingBlock: CIFDUS_clean_linker_0, # of connection points: 2
#     Edge 32, Type (0, 0), BuildingBlock: CIFDUS_clean_linker_0, # of connection points: 2
#     Edge 33, Type (0, 0), BuildingBlock: CIFDUS_clean_linker_0, # of connection points: 2
#     Edge 34, Type (0, 0), BuildingBlock: CIFDUS_clean_linker_0, # of connection points: 2
#     Edge 35, Type (0, 0), BuildingBlock: CIFDUS_clean_linker_0, # of connection points: 2
# Relax obj value: 0.476
# Max RMSD: 0.272
# Mean RMSD: 0.244
data_MOF--net-acs-a--node1-QUQFOY_clean_sbu_1--edge1-CIFDUS_clean_linker_0
_symmetry_space_group_name_H-M    P1
_symmetry_Int_Tables_number       1
_symmetry_cell_setting            triclinic
loop_
_symmetry_equiv_pos_as_xyz
'x, y, z'
_cell_length_a     41.332934
_cell_length_b     41.281788
_cell_length_c     45.838079
_cell_angle_alpha  89.938423
_cell_angle_beta   90.147312
_cell_angle_gamma 112.85217
loop_
_atom_site_label
_atom_site_type_symbol
_atom_site_fract_x
_atom_site_fract_y
_atom_site_fract_z
_atom_type_partial_charge
O0 O 0.55979 0.16147 0.07659 0.0
Cd1 Cd 0.58242 0.12748 0.06438 0.0
Cd2 Cd 0.59823 0.12805 0.12154 0.0
O3 O 0.56932 0.15938 0.1237 0.0
O4 O 0.55823 0.10445 0.02841 0.0
O5 O 0.55579 0.0761 0.0701 0.0
C6 C 0.54626 0.07554 0.04314 0.0
C7 C 0.59781 0.09548 0.16332 0.0
C8 C 0.55671 0.17064 0.1025 0.0
C9 C 0.65776 0.1557 0.07684 0.0
O10 O 0.6477 0.14946 0.10316 0.0
O11 O 0.63533 0.1483 0.05639 0.0
O12 O 0.61349 0.12907 0.16257 0.0
O13 O 0.58092 0.07954 0.14043 0.0
O14 O 0.3664 0.55846 0.55323 0.0
Cd15 Cd 0.42005 0.5791 0.55172 0.0
Cd16 Cd 0.41627 0.57285 0.61085 0.0
O17 O 0.36332 0.55107 0.60089 0.0
O18 O 0.4335 0.57012 0.51212 0.0
O19 O 0.44585 0.54722 0.55243 0.0
C20 C 0.44719 0.55022 0.52431 0.0
C21 C 0.432 0.55136 0.6535 0.0
C22 C 0.34829 0.54864 0.5763 0.0
C23 C 0.44914 0.646 0.58438 0.0
O24 O 0.44044 0.62685 0.60706 0.0
O25 O 0.44413 0.63204 0.55925 0.0
O26 O 0.41309 0.56971 0.65393 0.0
O27 O 0.44221 0.54437 0.62861 0.0
O28 O 0.82471 0.40485 0.1315 0.0
Cd29 Cd 0.85838 0.37867 0.13453 0.0
Cd30 Cd 0.85839 0.38829 0.07384 0.0
O31 O 0.82431 0.41156 0.0838 0.0
O32 O 0.85346 0.36656 0.17657 0.0
O33 O 0.90403 0.40144 0.15769 0.0
C34 C 0.88617 0.38555 0.18015 0.0
C35 C 0.90527 0.42073 0.04475 0.0
C36 C 0.81393 0.41573 0.109 0.0
C37 C 0.8326 0.31451 0.09396 0.0
O38 O 0.83813 0.33457 0.07195 0.0
O39 O 0.84011 0.3274 0.11945 0.0
O40 O 0.87439 0.40455 0.03384 0.0
O41 O 0.9097 0.41757 0.07239 0.0
O42 O 0.40776 0.83192 0.56153 0.0
Cd43 Cd 0.38435 0.8672 0.56571 0.0
Cd44 Cd 0.39509 0.86306 0.62249 0.0
O45 O 0.42348 0.83471 0.6076 0.0
O46 O 0.39302 0.89281 0.52838 0.0
O47 O 0.415 0.91772 0.57086 0.0
C48 C 0.41297 0.92013 0.54283 0.0
C49 C 0.41739 0.8965 0.66433 0.0
C50 C 0.42369 0.82334 0.58189 0.0
C51 C 0.31984 0.83586 0.59996 0.0
O52 O 0.34076 0.83888 0.62115 0.0
O53 O 0.33182 0.84747 0.57491 0.0
O54 O 0.40462 0.86276 0.66481 0.0
O55 O 0.41785 0.91211 0.63986 0.0
O56 O 0.62051 0.43991 0.06754 0.0
Cd57 Cd 0.56681 0.41908 0.06361 0.0
Cd58 Cd 0.56745 0.41713 0.1234 0.0
O59 O 0.62044 0.43385 0.11526 0.0
O60 O 0.55774 0.42873 0.02268 0.0
O61 O 0.53888 0.44916 0.0609 0.0
C62 C 0.5409 0.44673 0.0329 0.0
C63 C 0.55633 0.44131 0.16641 0.0
C64 C 0.63703 0.44218 0.09133 0.0
C65 C 0.53316 0.34837 0.09186 0.0
O66 O 0.5387 0.36437 0.11618 0.0
O67 O 0.54254 0.36551 0.06822 0.0
O68 O 0.56859 0.41714 0.16659 0.0
O69 O 0.54906 0.45166 0.14161 0.0
O70 O 0.15692 0.57583 0.6202 0.0
Cd71 Cd 0.12372 0.60216 0.62478 0.0
Cd72 Cd 0.12267 0.59752 0.56597 0.0
O73 O 0.15953 0.57643 0.57222 0.0
O74 O 0.12462 0.6083 0.66761 0.0
O75 O 0.07591 0.57702 0.64387 0.0
C76 C 0.0916 0.58932 0.66817 0.0
C77 C 0.0725 0.56197 0.54199 0.0
C78 C 0.1691 0.56878 0.59671 0.0
C79 C 0.14854 0.66968 0.58867 0.0
O80 O 0.14011 0.65124 0.56563 0.0
O81 O 0.14375 0.65483 0.61349 0.0
O82 O 0.10079 0.57977 0.52779 0.0
O83 O 0.0724 0.56576 0.57 0.0
O84 O 0.81835 0.39255 0.44672 0.0
Cd85 Cd 0.85278 0.37013 0.45793 0.0
Cd86 Cd 0.86114 0.36688 0.39554 0.0
O87 O 0.83066 0.39652 0.3997 0.0
O88 O 0.87291 0.38895 0.49642 0.0
O89 O 0.90331 0.40075 0.45502 0.0
C90 C 0.90197 0.40573 0.4828 0.0
C91 C 0.8826 0.36875 0.3479 0.0
C92 C 0.81479 0.40292 0.4213 0.0
C93 C 0.83348 0.29936 0.43435 0.0
O94 O 0.84281 0.31533 0.41016 0.0
O95 O 0.83528 0.31649 0.45766 0.0
O96 O 0.85005 0.35292 0.35423 0.0
O97 O 0.90396 0.38497 0.36854 0.0
O98 O 0.32947 0.84525 0.92499 0.0
Cd99 Cd 0.38318 0.86614 0.92508 0.0
Cd100 Cd 0.3792 0.86943 0.86694 0.0
O101 O 0.32626 0.84757 0.87714 0.0
O102 O 0.40102 0.89046 0.96228 0.0
O103 O 0.41032 0.91724 0.91915 0.0
C104 C 0.41544 0.9188 0.94707 0.0
C105 C 0.39338 0.9045 0.82516 0.0
C106 C 0.31126 0.83933 0.9018 0.0
C107 C 0.41577 0.82489 0.89301 0.0
O108 O 0.40737 0.83762 0.87034 0.0
O109 O 0.40779 0.83238 0.91809 0.0
O110 O 0.37579 0.87119 0.82396 0.0
O111 O 0.403 0.91889 0.85036 0.0
O112 O 0.63607 0.44565 0.38812 0.0
Cd113 Cd 0.5873 0.41968 0.36969 0.0
Cd114 Cd 0.5664 0.4048 0.42334 0.0
O115 O 0.61933 0.42283 0.43159 0.0
O116 O 0.59542 0.43498 0.32842 0.0
O117 O 0.55299 0.44008 0.35494 0.0
C118 C 0.5688 0.44369 0.33018 0.0
C119 C 0.53481 0.43046 0.44928 0.0
C120 C 0.64362 0.44003 0.41401 0.0
C121 C 0.55251 0.34349 0.38567 0.0
O122 O 0.54346 0.35378 0.40922 0.0
O123 O 0.57186 0.36585 0.3675 0.0
O124 O 0.54456 0.40737 0.46116 0.0
O125 O 0.54233 0.43829 0.42214 0.0
O126 O 0.15615 0.56852 0.9285 0.0
Cd127 Cd 0.122 0.59179 0.93852 0.0
Cd128 Cd 0.12424 0.60281 0.87814 0.0
O129 O 0.15602 0.57451 0.88071 0.0
O130 O 0.10596 0.57482 0.97836 0.0
O131 O 0.07066 0.56226 0.93983 0.0
C132 C 0.0751 0.5587 0.9674 0.0
C133 C 0.09552 0.59876 0.83343 0.0
C134 C 0.16637 0.56361 0.90342 0.0
C135 C 0.14959 0.66603 0.91972 0.0
O136 O 0.14412 0.65368 0.89399 0.0
O137 O 0.14192 0.64551 0.94152 0.0
O138 O 0.12881 0.61531 0.83623 0.0
O139 O 0.07767 0.58327 0.85602 0.0
O140 O 0.63897 0.13248 0.43452 0.0
Cd141 Cd 0.58846 0.11461 0.41867 0.0
Cd142 Cd 0.61925 0.11824 0.36806 0.0
O143 O 0.66341 0.12723 0.39322 0.0
O144 O 0.55844 0.0968 0.45328 0.0
O145 O 0.55826 0.06346 0.41532 0.0
C146 C 0.54608 0.06654 0.44066 0.0
C147 C 0.60705 0.08202 0.32715 0.0
C148 C 0.66608 0.13494 0.42019 0.0
C149 C 0.58371 0.16808 0.37768 0.0
O150 O 0.60505 0.16056 0.36192 0.0
O151 O 0.57198 0.15116 0.40104 0.0
O152 O 0.63455 0.11075 0.32869 0.0
O153 O 0.58704 0.0724 0.34979 0.0
O154 O 0.36792 0.56409 0.8579 0.0
Cd155 Cd 0.42212 0.58626 0.85759 0.0
Cd156 Cd 0.41238 0.57299 0.91568 0.0
O157 O 0.36034 0.54953 0.90437 0.0
O158 O 0.43154 0.59518 0.81539 0.0
O159 O 0.44971 0.55945 0.84018 0.0
C160 C 0.44762 0.57412 0.8158 0.0
C161 C 0.43685 0.54348 0.94592 0.0
C162 C 0.34766 0.55044 0.87926 0.0
C163 C 0.44402 0.64841 0.8983 0.0
O164 O 0.43207 0.62674 0.91909 0.0
O165 O 0.44427 0.63736 0.87248 0.0
O166 O 0.41552 0.55671 0.95589 0.0
O167 O 0.4439 0.54655 0.91834 0.0
H168 H 0.64974 0.07703 0.28483 0.0
H169 H 0.54074 0.05047 0.30515 0.0
H170 H 0.52596 0.04396 0.25315 0.0
H171 H 0.54699 0.06088 0.20254 0.0
H172 H 0.65687 0.09138 0.18353 0.0
H173 H 0.66843 0.08054 0.23407 0.0
C174 C 0.62257 0.06847 0.27786 0.0
C175 C 0.59647 0.06488 0.29855 0.0
C176 C 0.61459 0.06604 0.24802 0.0
C177 C 0.56129 0.05344 0.2895 0.0
C178 C 0.55292 0.05017 0.25973 0.0
C179 C 0.57306 0.06352 0.20934 0.0
C180 C 0.60113 0.07688 0.18966 0.0
C181 C 0.57971 0.05859 0.2388 0.0
C182 C 0.63499 0.08095 0.19851 0.0
C183 C 0.64162 0.07506 0.22742 0.0
H184 H 0.48652 0.59028 0.6864 0.0
H185 H 0.39829 0.49102 0.68342 0.0
H186 H 0.40143 0.48489 0.73641 0.0
H187 H 0.41989 0.51525 0.78361 0.0
H188 H 0.50359 0.61779 0.78595 0.0
H189 H 0.51263 0.61509 0.73348 0.0
C190 C 0.46921 0.56656 0.69732 0.0
C191 C 0.4425 0.54094 0.68134 0.0
C192 C 0.47011 0.56426 0.72782 0.0
C193 C 0.41942 0.51069 0.69546 0.0
C194 C 0.42094 0.50747 0.72577 0.0
C195 C 0.44117 0.53611 0.77271 0.0
C196 C 0.46131 0.56653 0.78833 0.0
C197 C 0.44483 0.5351 0.74228 0.0
C198 C 0.48818 0.59401 0.77418 0.0
C199 C 0.49304 0.59261 0.74417 0.0
H200 H 0.87753 0.33282 0.2168 0.0
H201 H 0.92712 0.44541 0.20937 0.0
H202 H 0.93685 0.45037 0.26242 0.0
H203 H 0.92052 0.42254 0.31144 0.0
H204 H 0.86791 0.30984 0.31712 0.0
H205 H 0.87081 0.30476 0.26434 0.0
C206 C 0.89143 0.35835 0.22677 0.0
C207 C 0.90133 0.3887 0.20957 0.0
C208 C 0.89607 0.36087 0.25703 0.0
C209 C 0.91944 0.4217 0.2224 0.0
C210 C 0.92464 0.4245 0.25271 0.0
C211 C 0.91092 0.39693 0.30105 0.0
C212 C 0.89387 0.36657 0.31787 0.0
C213 C 0.91158 0.39431 0.2704 0.0
C214 C 0.88101 0.33347 0.30439 0.0
C215 C 0.88249 0.33057 0.27425 0.0
H216 H 0.45126 0.91439 0.79465 0.0
H217 H 0.35642 0.93406 0.79374 0.0
H218 H 0.36129 0.94312 0.74086 0.0
H219 H 0.384 0.9298 0.69469 0.0
H220 H 0.47425 0.90218 0.69611 0.0
H221 H 0.48069 0.91277 0.74867 0.0
C222 C 0.43276 0.92245 0.78293 0.0
C223 C 0.40378 0.92398 0.79775 0.0
C224 C 0.43471 0.92549 0.75245 0.0
C225 C 0.37923 0.93338 0.78259 0.0
C226 C 0.38179 0.93804 0.75234 0.0
C227 C 0.406 0.92784 0.70643 0.0
C228 C 0.42882 0.91555 0.69186 0.0
C229 C 0.40818 0.93196 0.73689 0.0
C230 C 0.45672 0.91203 0.70708 0.0
C231 C 0.46013 0.9177 0.73714 0.0
H232 H 0.604 0.49187 0.28987 0.0
H233 H 0.50227 0.41274 0.30985 0.0
H234 H 0.48512 0.41015 0.25848 0.0
H235 H 0.50529 0.42001 0.20721 0.0
H236 H 0.60702 0.49938 0.18767 0.0
H237 H 0.61782 0.51323 0.2395 0.0
C238 C 0.57756 0.47527 0.28307 0.0
C239 C 0.5545 0.45226 0.30326 0.0
C240 C 0.56815 0.47372 0.25353 0.0
C241 C 0.52031 0.43078 0.29453 0.0
C242 C 0.51069 0.429 0.26511 0.0
C243 C 0.52895 0.44156 0.21432 0.0
C244 C 0.55535 0.45879 0.19396 0.0
C245 C 0.53518 0.44884 0.24424 0.0
C246 C 0.58626 0.4862 0.20314 0.0
C247 C 0.59261 0.49376 0.23278 0.0
H248 H 0.08616 0.63664 0.70516 0.0
H249 H 0.05983 0.52574 0.69468 0.0
H250 H 0.05063 0.51696 0.74746 0.0
H251 H 0.06385 0.54369 0.79685 0.0
H252 H 0.09411 0.65546 0.80607 0.0
H253 H 0.08701 0.66121 0.75371 0.0
C254 C 0.07694 0.61039 0.71442 0.0
C255 C 0.07369 0.58188 0.69644 0.0
C256 C 0.07286 0.6059 0.74465 0.0
C257 C 0.06209 0.54794 0.70831 0.0
C258 C 0.05729 0.54305 0.73849 0.0
C259 C 0.06731 0.56892 0.7874 0.0
C260 C 0.07943 0.59917 0.80498 0.0
C261 C 0.06454 0.57217 0.75701 0.0
C262 C 0.08461 0.63194 0.79273 0.0
C263 C 0.08085 0.63525 0.76282 0.0
H264 H 0.52162 0.06767 0.98775 0.0
H265 H 0.51494 0.01062 0.06805 0.0
H266 H 0.47259 0.95734 0.04555 0.0
H267 H 0.4381 0.92711 0.00307 0.0
H268 H 0.4455 0.98402 0.92259 0.0
H269 H 0.48689 0.03757 0.94541 0.0
C270 C 0.51098 0.04358 0.00036 0.0
C271 C 0.52146 0.04305 0.0295 0.0
C272 C 0.4867 0.01319 0.98734 0.0
C273 C 0.50737 0.01166 0.04554 0.0
C274 C 0.4831 0.98124 0.03273 0.0
C275 C 0.44856 0.95127 0.99055 0.0
C276 C 0.43872 0.95165 0.96121 0.0
C277 C 0.47261 0.98175 0.00366 0.0
C278 C 0.45266 0.98309 0.94523 0.0
C279 C 0.47637 0.01366 0.95823 0.0
H280 H 0.46751 0.49818 0.54177 0.0
H281 H 0.46251 0.55878 0.46633 0.0
H282 H 0.48825 0.52634 0.4362 0.0
H283 H 0.51274 0.48123 0.43138 0.0
H284 H 0.51711 0.42022 0.50677 0.0
H285 H 0.49076 0.45219 0.53672 0.0
C286 C 0.47216 0.50436 0.51876 0.0
C287 C 0.46329 0.53092 0.50634 0.0
C288 C 0.48668 0.48543 0.5015 0.0
C289 C 0.46916 0.53844 0.47643 0.0
C290 C 0.48384 0.5199 0.45917 0.0
C291 C 0.50776 0.47481 0.45432 0.0
C292 C 0.51693 0.44846 0.46681 0.0
C293 C 0.49272 0.49336 0.47147 0.0
C294 C 0.5103 0.44042 0.49658 0.0
C295 C 0.49532 0.45874 0.51378 0.0
H296 H 0.01043 0.51383 0.94993 0.0
H297 H 0.07537 0.55152 0.02643 0.0
H298 H 0.02894 0.51129 0.05704 0.0
H299 H 0.97004 0.46534 0.0621 0.0
H300 H 0.90503 0.42761 0.98564 0.0
H301 H 0.95152 0.46773 0.95499 0.0
C302 C 0.01432 0.51338 0.97331 0.0
C303 C 0.04621 0.53565 0.98588 0.0
C304 C 0.98765 0.49 0.99078 0.0
C305 C 0.051 0.53463 0.0162 0.0
C306 C 0.02452 0.51159 0.03373 0.0
C307 C 0.96614 0.46573 0.03872 0.0
C308 C 0.93421 0.44353 0.02618 0.0
C309 C -0.00718 0.48905 0.02124 0.0
C310 C 0.92942 0.44448 0.99585 0.0
C311 C 0.95594 0.46745 0.97829 0.0
H312 H 0.52338 0.06349 0.49626 0.0
H313 H 0.50738 0.00219 0.4173 0.0
H314 H 0.46229 0.95235 0.44158 0.0
H315 H 0.42939 0.9257 0.48562 0.0
H316 H 0.44772 0.98584 0.56534 0.0
H317 H 0.4898 0.03709 0.54013 0.0
C318 C 0.50994 0.03928 0.4843 0.0
C319 C 0.51871 0.03645 0.45506 0.0
C320 C 0.48445 0.01071 0.49846 0.0
C321 C 0.50119 0.00491 0.43989 0.0
C322 C 0.47537 0.97648 0.45371 0.0
C323 C 0.44222 0.95016 0.4974 0.0
C324 C 0.43541 0.95212 0.52724 0.0
C325 C 0.467 0.97905 0.48303 0.0
C326 C 0.45255 0.98379 0.54233 0.0
C327 C 0.47666 0.013 0.52797 0.0
H328 H 0.48105 0.51142 0.93186 0.0
H329 H 0.42936 0.53669 0.00491 0.0
H330 H 0.45731 0.50945 0.03831 0.0
H331 H 0.49664 0.47868 0.0469 0.0
H332 H 0.5477 0.45264 0.97382 0.0
H333 H 0.51986 0.48003 0.9404 0.0
C334 C 0.47586 0.51091 0.95507 0.0
C335 C 0.4532 0.52608 0.96584 0.0
C336 C 0.49197 0.49515 0.9742 0.0
C337 C 0.44669 0.52516 0.996 0.0
C338 C 0.4627 0.50964 0.01516 0.0
C339 C 0.50174 0.47908 0.02367 0.0
C340 C 0.52423 0.46373 0.01289 0.0
C341 C 0.48545 0.49463 0.00452 0.0
C342 C 0.53043 0.46426 0.98271 0.0
C343 C 0.51454 0.47991 0.96355 0.0
H344 H 0.96002 0.4552 0.45891 0.0
H345 H 0.91082 0.41527 0.54158 0.0
H346 H 0.95859 0.4612 0.56722 0.0
H347 H 0.01417 0.51278 0.5661 0.0
H348 H 0.06301 0.5528 0.4833 0.0
H349 H 0.0152 0.50698 0.45775 0.0
C350 C 0.95991 0.45635 0.48255 0.0
C351 C 0.93208 0.43179 0.49833 0.0
C352 C 0.98713 0.48307 0.49711 0.0
C353 C 0.93205 0.43385 0.52894 0.0
C354 C 0.95926 0.46017 0.54362 0.0
C355 C 0.01418 0.51167 0.54246 0.0
C356 C 0.04203 0.53615 0.52663 0.0
C357 C 0.98682 0.48504 0.52791 0.0
C358 C 0.04183 0.53424 0.49601 0.0
C359 C 0.01459 0.50798 0.48137 0.0
H360 H 0.52754 0.19952 0.06225 0.0
H361 H 0.55311 0.20287 0.1539 0.0
H362 H 0.54044 0.25551 0.15985 0.0
H363 H 0.53258 0.30582 0.13728 0.0
H364 H 0.51123 0.3044 0.04494 0.0
H365 H 0.51089 0.24533 0.04121 0.0
C366 C 0.52975 0.21134 0.08367 0.0
C367 C 0.54207 0.19772 0.10744 0.0
C368 C 0.52336 0.24213 0.08678 0.0
C369 C 0.54415 0.21306 0.13512 0.0
C370 C 0.53701 0.24325 0.13854 0.0
C371 C 0.52682 0.29223 0.11649 0.0
C372 C 0.5226 0.30978 0.09131 0.0
C373 C 0.52811 0.25885 0.11426 0.0
C374 C 0.51501 0.29167 0.06458 0.0
C375 C 0.51504 0.25796 0.06239 0.0
H376 H 0.30385 0.53914 0.62203 0.0
H377 H 0.30702 0.54002 0.52785 0.0
H378 H 0.24854 0.54125 0.52602 0.0
H379 H 0.20136 0.55191 0.55104 0.0
H380 H 0.19982 0.55435 0.64522 0.0
H381 H 0.25267 0.54161 0.64708 0.0
C382 C 0.29147 0.53877 0.60107 0.0
C383 C 0.31012 0.54022 0.57513 0.0
C384 C 0.25835 0.54066 0.60016 0.0
C385 C 0.29347 0.53937 0.54818 0.0
C386 C 0.26008 0.54026 0.54709 0.0
C387 C 0.21222 0.54911 0.57201 0.0
C388 C 0.19707 0.55485 0.59792 0.0
C389 C 0.24303 0.54255 0.57294 0.0
C390 C 0.2112 0.55055 0.6249 0.0
C391 C 0.24148 0.54332 0.626 0.0
H392 H 0.79613 0.28066 0.04602 0.0
H393 H 0.81912 0.26313 0.13521 0.0
H394 H 0.76926 0.20676 0.13542 0.0
H395 H 0.71254 0.16985 0.11419 0.0
H396 H 0.68727 0.18948 0.02623 0.0
H397 H 0.74494 0.23708 0.02144 0.0
C398 C 0.79094 0.26405 0.06522 0.0
C399 C 0.81072 0.27658 0.09083 0.0
C400 C 0.76137 0.23227 0.0656 0.0
C401 C 0.8039 0.25445 0.11537 0.0
C402 C 0.77524 0.22226 0.11558 0.0
C403 C 0.71994 0.18397 0.0937 0.0
C404 C 0.69527 0.17682 0.07092 0.0
C405 C 0.75264 0.21203 0.09144 0.0
C406 C 0.70556 0.19477 0.04429 0.0
C407 C 0.73849 0.22218 0.04159 0.0
H408 H 0.45018 0.79122 0.62173 0.0
H409 H 0.43119 0.79576 0.52942 0.0
H410 H 0.44483 0.7441 0.52128 0.0
H411 H 0.45183 0.69231 0.54141 0.0
H412 H 0.46683 0.68558 0.63413 0.0
H413 H 0.466 0.74385 0.6409 0.0
C414 C 0.44972 0.78137 0.59974 0.0
C415 C 0.4389 0.79687 0.57633 0.0
C416 C 0.45664 0.75106 0.59529 0.0
C417 C 0.43885 0.78399 0.54793 0.0
C418 C 0.44662 0.75439 0.54324 0.0
C419 C 0.45589 0.70394 0.56301 0.0
C420 C 0.45865 0.68429 0.58729 0.0
C421 C 0.45401 0.73685 0.56692 0.0
C422 C 0.46414 0.69992 0.61509 0.0
C423 C 0.46347 0.73319 0.61902 0.0
H424 H 0.67871 0.44298 0.13746 0.0
H425 H 0.68059 0.4567 0.04396 0.0
H426 H 0.7388 0.45482 0.04192 0.0
H427 H 0.78445 0.44003 0.06557 0.0
H428 H 0.78094 0.42311 0.15873 0.0
H429 H 0.72822 0.43594 0.16197 0.0
C430 C 0.69208 0.44626 0.11667 0.0
C431 C 0.67496 0.44924 0.09084 0.0
C432 C 0.72507 0.44411 0.11552 0.0
C433 C 0.69294 0.45394 0.06416 0.0
C434 C 0.72618 0.45269 0.06294 0.0
C435 C 0.77253 0.43968 0.08668 0.0
C436 C 0.78623 0.42988 0.11177 0.0
C437 C 0.74177 0.44628 0.08832 0.0
C438 C 0.77072 0.43013 0.13899 0.0
C439 C 0.74049 0.43737 0.14087 0.0
H440 H 0.17914 0.71467 0.63315 0.0
H441 H 0.16795 0.71029 0.53939 0.0
H442 H 0.21737 0.76679 0.53514 0.0
H443 H 0.27059 0.81026 0.55727 0.0
H444 H 0.2842 0.81159 0.65075 0.0
H445 H 0.22678 0.76381 0.65585 0.0
C446 C 0.18685 0.72644 0.61179 0.0
C447 C 0.17043 0.70776 0.58659 0.0
C448 C 0.2162 0.75817 0.60942 0.0
C449 C 0.18046 0.72378 0.55915 0.0
C450 C 0.2089 0.75602 0.55668 0.0
C451 C 0.26064 0.80075 0.57884 0.0
C452 C 0.28204 0.81391 0.60353 0.0
C453 C 0.22813 0.7724 0.58154 0.0
C454 C 0.26855 0.80151 0.63133 0.0
C455 C 0.23573 0.77409 0.63427 0.0
H456 H 0.77443 0.41797 0.46162 0.0
H457 H 0.79927 0.42707 0.36972 0.0
H458 H 0.75198 0.4471 0.3603 0.0
H459 H 0.69819 0.45266 0.37692 0.0
H460 H 0.67095 0.43957 0.46825 0.0
H461 H 0.7252 0.43157 0.4792 0.0
C462 C 0.76989 0.42483 0.43958 0.0
C463 C 0.7899 0.42025 0.41635 0.0
C464 C 0.74216 0.43563 0.43419 0.0
C465 C 0.78394 0.42979 0.38799 0.0
C466 C 0.75688 0.44128 0.38255 0.0
C467 C 0.70458 0.44913 0.39936 0.0
C468 C 0.68029 0.44616 0.42167 0.0
C469 C 0.73502 0.44299 0.40531 0.0
C470 C 0.68905 0.44162 0.45063 0.0
C471 C 0.71993 0.43675 0.45687 0.0
H472 H 0.27283 0.80655 0.94919 0.0
H473 H 0.2643 0.82129 0.85662 0.0
H474 H 0.20789 0.77158 0.85542 0.0
H475 H 0.16822 0.71719 0.8784 0.0
H476 H 0.17871 0.70032 0.97032 0.0
H477 H 0.22652 0.75798 0.9741 0.0
C478 C 0.25821 0.79955 0.92889 0.0
C479 C 0.27329 0.81699 0.90288 0.0
C480 C 0.22631 0.77015 0.92813 0.0
C481 C 0.25367 0.8079 0.87688 0.0
C482 C 0.22143 0.77933 0.87613 0.0
C483 C 0.18036 0.72644 0.89944 0.0
C484 C 0.1706 0.70402 0.92384 0.0
C485 C 0.20859 0.75911 0.90128 0.0
C486 C 0.18606 0.71677 0.95106 0.0
C487 C 0.21359 0.7497 0.95322 0.0
H488 H 0.53653 0.18845 0.40493 0.0
H489 H 0.61052 0.21587 0.33369 0.0
H490 H 0.60235 0.27081 0.32657 0.0
H491 H 0.58091 0.31438 0.34521 0.0
H492 H 0.50942 0.28809 0.4182 0.0
H493 H 0.50933 0.22899 0.41951 0.0
C494 C 0.55055 0.20619 0.38757 0.0
C495 C 0.57465 0.1984 0.37027 0.0
C496 C 0.54627 0.238 0.38397 0.0
C497 C 0.59212 0.22141 0.34756 0.0
C498 C 0.58751 0.25288 0.3435 0.0
C499 C 0.56465 0.29551 0.36099 0.0
C500 C 0.5457 0.30585 0.38192 0.0
C501 C 0.56562 0.26197 0.36226 0.0
C502 C 0.5246 0.28095 0.40207 0.0
C503 C 0.52467 0.24719 0.40294 0.0
H504 H 0.20313 0.55982 0.85514 0.0
H505 H 0.19094 0.53398 0.94687 0.0
H506 H 0.24348 0.52084 0.94593 0.0
H507 H 0.29775 0.52649 0.92131 0.0
H508 H 0.3118 0.55532 0.83023 0.0
H509 H 0.25328 0.55649 0.82856 0.0
C510 C 0.21153 0.55061 0.87479 0.0
C511 C 0.19357 0.54872 0.90118 0.0
C512 C 0.2423 0.54386 0.8743 0.0
C513 C 0.2046 0.53631 0.92635 0.0
C514 C 0.2347 0.5288 0.92587 0.0
C515 C 0.28776 0.53223 0.90088 0.0
C516 C 0.30951 0.54163 0.87615 0.0
C517 C 0.25457 0.53399 0.90029 0.0
C518 C 0.29585 0.54845 0.84976 0.0
C519 C 0.26242 0.54935 0.8488 0.0
H520 H 0.72951 0.15402 0.39349 0.0
H521 H 0.68187 0.16033 0.47585 0.0
H522 H 0.7354 0.20888 0.49087 0.0
H523 H 0.78891 0.25806 0.47541 0.0
H524 H 0.83424 0.25397 0.39147 0.0
H525 H 0.78898 0.19583 0.38263 0.0
C526 C 0.73116 0.16522 0.41511 0.0
C527 C 0.70127 0.15435 0.43307 0.0
C528 C 0.76151 0.19412 0.42314 0.0
C529 C 0.7042 0.16868 0.46127 0.0
C530 C 0.73479 0.19667 0.46983 0.0
C531 C 0.78963 0.24395 0.45564 0.0
C532 C 0.81427 0.26075 0.43377 0.0
C533 C 0.76265 0.21105 0.45016 0.0
C534 C 0.81507 0.24192 0.4084 0.0
C535 C 0.78908 0.2087 0.40325 0.0
H536 H 0.45603 0.69923 0.85725 0.0
H537 H 0.44704 0.68193 0.95033 0.0
H538 H 0.44258 0.73863 0.95725 0.0
H539 H 0.43104 0.78772 0.93618 0.0
H540 H 0.43642 0.8029 0.84279 0.0
H541 H 0.45275 0.75257 0.8368 0.0
C542 C 0.45399 0.70818 0.87914 0.0
C543 C 0.45116 0.686 0.90317 0.0
C544 C 0.45012 0.74019 0.88289 0.0
C545 C 0.44884 0.69825 0.93139 0.0
C546 C 0.44605 0.7306 0.93537 0.0
C547 C 0.43637 0.78043 0.91454 0.0
C548 C 0.43175 0.79862 0.88994 0.0
C549 C 0.44497 0.75095 0.91115 0.0
C550 C 0.43923 0.78905 0.8621 0.0
C551 C 0.44856 0.76023 0.85862 0.0
loop_
_geom_bond_atom_site_label_1
_geom_bond_atom_site_label_2
_geom_bond_distance
_geom_bond_site_symmetry_2
_ccdc_geom_bond_type
O0 Cd1 2.223 . S
O0 C8 1.315 . S
Cd1 O0 2.223 . S
Cd1 O4 2.297 . S
Cd1 O5 2.439 . S
Cd1 O11 2.240 . S
Cd2 O3 2.240 . S
Cd2 O10 2.223 . S
Cd2 O12 2.297 . S
Cd2 O13 2.439 . S
O3 Cd2 2.240 . S
O3 C8 1.279 . S
O4 Cd1 2.297 . S
O4 C6 1.247 . S
O5 Cd1 2.439 . S
O5 C6 1.208 . S
C6 O4 1.247 . S
C6 O5 1.208 . S
C7 O12 1.247 . S
C7 O13 1.208 . S
C8 O0 1.315 . S
C8 O3 1.279 . S
C9 O10 1.315 . S
C9 O11 1.279 . S
O10 Cd2 2.223 . S
O10 C9 1.315 . S
O11 Cd1 2.240 . S
O11 C9 1.279 . S
O12 Cd2 2.297 . S
O12 C7 1.247 . S
O13 Cd2 2.439 . S
O13 C7 1.208 . S
O14 Cd15 2.223 . S
O14 C22 1.315 . S
Cd15 O14 2.223 . S
Cd15 O18 2.297 . S
Cd15 O19 2.439 . S
Cd15 O25 2.240 . S
Cd16 O17 2.240 . S
Cd16 O24 2.223 . S
Cd16 O26 2.297 . S
Cd16 O27 2.439 . S
O17 Cd16 2.240 . S
O17 C22 1.279 . S
O18 Cd15 2.297 . S
O18 C20 1.247 . S
O19 Cd15 2.439 . S
O19 C20 1.208 . S
C20 O18 1.247 . S
C20 O19 1.208 . S
C21 O26 1.247 . S
C21 O27 1.208 . S
C22 O14 1.315 . S
C22 O17 1.279 . S
C23 O24 1.315 . S
C23 O25 1.279 . S
O24 Cd16 2.223 . S
O24 C23 1.315 . S
O25 Cd15 2.240 . S
O25 C23 1.279 . S
O26 Cd16 2.297 . S
O26 C21 1.247 . S
O27 Cd16 2.439 . S
O27 C21 1.208 . S
O28 Cd29 2.223 . S
O28 C36 1.315 . S
Cd29 O28 2.223 . S
Cd29 O32 2.297 . S
Cd29 O33 2.439 . S
Cd29 O39 2.240 . S
Cd30 O31 2.240 . S
Cd30 O38 2.223 . S
Cd30 O40 2.297 . S
Cd30 O41 2.439 . S
O31 Cd30 2.240 . S
O31 C36 1.279 . S
O32 Cd29 2.297 . S
O32 C34 1.247 . S
O33 Cd29 2.439 . S
O33 C34 1.208 . S
C34 O32 1.247 . S
C34 O33 1.208 . S
C35 O40 1.247 . S
C35 O41 1.208 . S
C36 O28 1.315 . S
C36 O31 1.279 . S
C37 O38 1.315 . S
C37 O39 1.279 . S
O38 Cd30 2.223 . S
O38 C37 1.315 . S
O39 Cd29 2.240 . S
O39 C37 1.279 . S
O40 Cd30 2.297 . S
O40 C35 1.247 . S
O41 Cd30 2.439 . S
O41 C35 1.208 . S
O42 Cd43 2.223 . S
O42 C50 1.315 . S
Cd43 O42 2.223 . S
Cd43 O46 2.297 . S
Cd43 O47 2.439 . S
Cd43 O53 2.240 . S
Cd44 O45 2.240 . S
Cd44 O52 2.223 . S
Cd44 O54 2.297 . S
Cd44 O55 2.439 . S
O45 Cd44 2.240 . S
O45 C50 1.279 . S
O46 Cd43 2.297 . S
O46 C48 1.247 . S
O47 Cd43 2.439 . S
O47 C48 1.208 . S
C48 O46 1.247 . S
C48 O47 1.208 . S
C49 O54 1.247 . S
C49 O55 1.208 . S
C50 O42 1.315 . S
C50 O45 1.279 . S
C51 O52 1.315 . S
C51 O53 1.279 . S
O52 Cd44 2.223 . S
O52 C51 1.315 . S
O53 Cd43 2.240 . S
O53 C51 1.279 . S
O54 Cd44 2.297 . S
O54 C49 1.247 . S
O55 Cd44 2.439 . S
O55 C49 1.208 . S
O56 Cd57 2.223 . S
O56 C64 1.315 . S
Cd57 O56 2.223 . S
Cd57 O60 2.297 . S
Cd57 O61 2.439 . S
Cd57 O67 2.240 . S
Cd58 O59 2.240 . S
Cd58 O66 2.223 . S
Cd58 O68 2.297 . S
Cd58 O69 2.439 . S
O59 Cd58 2.240 . S
O59 C64 1.279 . S
O60 Cd57 2.297 . S
O60 C62 1.247 . S
O61 Cd57 2.439 . S
O61 C62 1.208 . S
C62 O60 1.247 . S
C62 O61 1.208 . S
C63 O68 1.247 . S
C63 O69 1.208 . S
C64 O56 1.315 . S
C64 O59 1.279 . S
C65 O66 1.315 . S
C65 O67 1.279 . S
O66 Cd58 2.223 . S
O66 C65 1.315 . S
O67 Cd57 2.240 . S
O67 C65 1.279 . S
O68 Cd58 2.297 . S
O68 C63 1.247 . S
O69 Cd58 2.439 . S
O69 C63 1.208 . S
O70 Cd71 2.223 . S
O70 C78 1.315 . S
Cd71 O70 2.223 . S
Cd71 O74 2.297 . S
Cd71 O75 2.439 . S
Cd71 O81 2.240 . S
Cd72 O73 2.240 . S
Cd72 O80 2.223 . S
Cd72 O82 2.297 . S
Cd72 O83 2.439 . S
O73 Cd72 2.240 . S
O73 C78 1.279 . S
O74 Cd71 2.297 . S
O74 C76 1.247 . S
O75 Cd71 2.439 . S
O75 C76 1.208 . S
C76 O74 1.247 . S
C76 O75 1.208 . S
C77 O82 1.247 . S
C77 O83 1.208 . S
C78 O70 1.315 . S
C78 O73 1.279 . S
C79 O80 1.315 . S
C79 O81 1.279 . S
O80 Cd72 2.223 . S
O80 C79 1.315 . S
O81 Cd71 2.240 . S
O81 C79 1.279 . S
O82 Cd72 2.297 . S
O82 C77 1.247 . S
O83 Cd72 2.439 . S
O83 C77 1.208 . S
O84 Cd85 2.223 . S
O84 C92 1.315 . S
Cd85 O84 2.223 . S
Cd85 O88 2.297 . S
Cd85 O89 2.439 . S
Cd85 O95 2.240 . S
Cd86 O87 2.240 . S
Cd86 O94 2.223 . S
Cd86 O96 2.297 . S
Cd86 O97 2.439 . S
O87 Cd86 2.240 . S
O87 C92 1.279 . S
O88 Cd85 2.297 . S
O88 C90 1.247 . S
O89 Cd85 2.439 . S
O89 C90 1.208 . S
C90 O88 1.247 . S
C90 O89 1.208 . S
C91 O96 1.247 . S
C91 O97 1.208 . S
C92 O84 1.315 . S
C92 O87 1.279 . S
C93 O94 1.315 . S
C93 O95 1.279 . S
O94 Cd86 2.223 . S
O94 C93 1.315 . S
O95 Cd85 2.240 . S
O95 C93 1.279 . S
O96 Cd86 2.297 . S
O96 C91 1.247 . S
O97 Cd86 2.439 . S
O97 C91 1.208 . S
O98 Cd99 2.223 . S
O98 C106 1.315 . S
Cd99 O98 2.223 . S
Cd99 O102 2.297 . S
Cd99 O103 2.439 . S
Cd99 O109 2.240 . S
Cd100 O101 2.240 . S
Cd100 O108 2.223 . S
Cd100 O110 2.297 . S
Cd100 O111 2.439 . S
O101 Cd100 2.240 . S
O101 C106 1.279 . S
O102 Cd99 2.297 . S
O102 C104 1.247 . S
O103 Cd99 2.439 . S
O103 C104 1.208 . S
C104 O102 1.247 . S
C104 O103 1.208 . S
C105 O110 1.247 . S
C105 O111 1.208 . S
C106 O98 1.315 . S
C106 O101 1.279 . S
C107 O108 1.315 . S
C107 O109 1.279 . S
O108 Cd100 2.223 . S
O108 C107 1.315 . S
O109 Cd99 2.240 . S
O109 C107 1.279 . S
O110 Cd100 2.297 . S
O110 C105 1.247 . S
O111 Cd100 2.439 . S
O111 C105 1.208 . S
O112 Cd113 2.223 . S
O112 C120 1.315 . S
Cd113 O112 2.223 . S
Cd113 O116 2.297 . S
Cd113 O117 2.439 . S
Cd113 O123 2.240 . S
Cd114 O115 2.240 . S
Cd114 O122 2.223 . S
Cd114 O124 2.297 . S
Cd114 O125 2.439 . S
O115 Cd114 2.240 . S
O115 C120 1.279 . S
O116 Cd113 2.297 . S
O116 C118 1.247 . S
O117 Cd113 2.439 . S
O117 C118 1.208 . S
C118 O116 1.247 . S
C118 O117 1.208 . S
C119 O124 1.247 . S
C119 O125 1.208 . S
C120 O112 1.315 . S
C120 O115 1.279 . S
C121 O122 1.315 . S
C121 O123 1.279 . S
O122 Cd114 2.223 . S
O122 C121 1.315 . S
O123 Cd113 2.240 . S
O123 C121 1.279 . S
O124 Cd114 2.297 . S
O124 C119 1.247 . S
O125 Cd114 2.439 . S
O125 C119 1.208 . S
O126 Cd127 2.223 . S
O126 C134 1.315 . S
Cd127 O126 2.223 . S
Cd127 O130 2.297 . S
Cd127 O131 2.439 . S
Cd127 O137 2.240 . S
Cd128 O129 2.240 . S
Cd128 O136 2.223 . S
Cd128 O138 2.297 . S
Cd128 O139 2.439 . S
O129 Cd128 2.240 . S
O129 C134 1.279 . S
O130 Cd127 2.297 . S
O130 C132 1.247 . S
O131 Cd127 2.439 . S
O131 C132 1.208 . S
C132 O130 1.247 . S
C132 O131 1.208 . S
C133 O138 1.247 . S
C133 O139 1.208 . S
C134 O126 1.315 . S
C134 O129 1.279 . S
C135 O136 1.315 . S
C135 O137 1.279 . S
O136 Cd128 2.223 . S
O136 C135 1.315 . S
O137 Cd127 2.240 . S
O137 C135 1.279 . S
O138 Cd128 2.297 . S
O138 C133 1.247 . S
O139 Cd128 2.439 . S
O139 C133 1.208 . S
O140 Cd141 2.223 . S
O140 C148 1.315 . S
Cd141 O140 2.223 . S
Cd141 O144 2.297 . S
Cd141 O145 2.439 . S
Cd141 O151 2.240 . S
Cd142 O143 2.240 . S
Cd142 O150 2.223 . S
Cd142 O152 2.297 . S
Cd142 O153 2.439 . S
O143 Cd142 2.240 . S
O143 C148 1.279 . S
O144 Cd141 2.297 . S
O144 C146 1.247 . S
O145 Cd141 2.439 . S
O145 C146 1.208 . S
C146 O144 1.247 . S
C146 O145 1.208 . S
C147 O152 1.247 . S
C147 O153 1.208 . S
C148 O140 1.315 . S
C148 O143 1.279 . S
C149 O150 1.315 . S
C149 O151 1.279 . S
O150 Cd142 2.223 . S
O150 C149 1.315 . S
O151 Cd141 2.240 . S
O151 C149 1.279 . S
O152 Cd142 2.297 . S
O152 C147 1.247 . S
O153 Cd142 2.439 . S
O153 C147 1.208 . S
O154 Cd155 2.223 . S
O154 C162 1.315 . S
Cd155 O154 2.223 . S
Cd155 O158 2.297 . S
Cd155 O159 2.439 . S
Cd155 O165 2.240 . S
Cd156 O157 2.240 . S
Cd156 O164 2.223 . S
Cd156 O166 2.297 . S
Cd156 O167 2.439 . S
O157 Cd156 2.240 . S
O157 C162 1.279 . S
O158 Cd155 2.297 . S
O158 C160 1.247 . S
O159 Cd155 2.439 . S
O159 C160 1.208 . S
C160 O158 1.247 . S
C160 O159 1.208 . S
C161 O166 1.247 . S
C161 O167 1.208 . S
C162 O154 1.315 . S
C162 O157 1.279 . S
C163 O164 1.315 . S
C163 O165 1.279 . S
O164 Cd156 2.223 . S
O164 C163 1.315 . S
O165 Cd155 2.240 . S
O165 C163 1.279 . S
O166 Cd156 2.297 . S
O166 C161 1.247 . S
O167 Cd156 2.439 . S
O167 C161 1.208 . S
H168 C174 0.930 . S
H169 C177 0.930 . S
H170 C178 0.930 . S
H171 C179 0.930 . S
H172 C182 0.930 . S
H173 C183 0.930 . S
C174 H168 0.930 . S
C174 C175 1.355 . S
C174 C176 1.415 . S
C175 C174 1.355 . S
C175 C177 1.419 . S
C176 C174 1.415 . S
C176 C181 1.425 . S
C176 C183 1.409 . S
C177 H169 0.930 . S
C177 C175 1.419 . S
C177 C178 1.362 . S
C178 H170 0.930 . S
C178 C177 1.362 . S
C178 C181 1.409 . S
C179 H171 0.930 . S
C179 C180 1.355 . S
C179 C181 1.415 . S
C180 C179 1.355 . S
C180 C182 1.419 . S
C181 C176 1.425 . S
C181 C178 1.409 . S
C181 C179 1.415 . S
C182 H172 0.930 . S
C182 C180 1.419 . S
C182 C183 1.362 . S
C183 H173 0.930 . S
C183 C176 1.409 . S
C183 C182 1.362 . S
H184 C190 0.930 . S
H185 C193 0.930 . S
H186 C194 0.930 . S
H187 C195 0.930 . S
H188 C198 0.930 . S
H189 C199 0.930 . S
C190 H184 0.930 . S
C190 C191 1.355 . S
C190 C192 1.415 . S
C191 C190 1.355 . S
C191 C193 1.419 . S
C192 C190 1.415 . S
C192 C197 1.425 . S
C192 C199 1.409 . S
C193 H185 0.930 . S
C193 C191 1.419 . S
C193 C194 1.362 . S
C194 H186 0.930 . S
C194 C193 1.362 . S
C194 C197 1.409 . S
C195 H187 0.930 . S
C195 C196 1.355 . S
C195 C197 1.415 . S
C196 C195 1.355 . S
C196 C198 1.419 . S
C197 C192 1.425 . S
C197 C194 1.409 . S
C197 C195 1.415 . S
C198 H188 0.930 . S
C198 C196 1.419 . S
C198 C199 1.362 . S
C199 H189 0.930 . S
C199 C192 1.409 . S
C199 C198 1.362 . S
H200 C206 0.930 . S
H201 C209 0.930 . S
H202 C210 0.930 . S
H203 C211 0.930 . S
H204 C214 0.930 . S
H205 C215 0.930 . S
C206 H200 0.930 . S
C206 C207 1.355 . S
C206 C208 1.415 . S
C207 C206 1.355 . S
C207 C209 1.419 . S
C208 C206 1.415 . S
C208 C213 1.425 . S
C208 C215 1.409 . S
C209 H201 0.930 . S
C209 C207 1.419 . S
C209 C210 1.362 . S
C210 H202 0.930 . S
C210 C209 1.362 . S
C210 C213 1.409 . S
C211 H203 0.930 . S
C211 C212 1.355 . S
C211 C213 1.415 . S
C212 C211 1.355 . S
C212 C214 1.419 . S
C213 C208 1.425 . S
C213 C210 1.409 . S
C213 C211 1.415 . S
C214 H204 0.930 . S
C214 C212 1.419 . S
C214 C215 1.362 . S
C215 H205 0.930 . S
C215 C208 1.409 . S
C215 C214 1.362 . S
H216 C222 0.930 . S
H217 C225 0.930 . S
H218 C226 0.930 . S
H219 C227 0.930 . S
H220 C230 0.930 . S
H221 C231 0.930 . S
C222 H216 0.930 . S
C222 C223 1.355 . S
C222 C224 1.415 . S
C223 C222 1.355 . S
C223 C225 1.419 . S
C224 C222 1.415 . S
C224 C229 1.425 . S
C224 C231 1.409 . S
C225 H217 0.930 . S
C225 C223 1.419 . S
C225 C226 1.362 . S
C226 H218 0.930 . S
C226 C225 1.362 . S
C226 C229 1.409 . S
C227 H219 0.930 . S
C227 C228 1.355 . S
C227 C229 1.415 . S
C228 C227 1.355 . S
C228 C230 1.419 . S
C229 C224 1.425 . S
C229 C226 1.409 . S
C229 C227 1.415 . S
C230 H220 0.930 . S
C230 C228 1.419 . S
C230 C231 1.362 . S
C231 H221 0.930 . S
C231 C224 1.409 . S
C231 C230 1.362 . S
H232 C238 0.930 . S
H233 C241 0.930 . S
H234 C242 0.930 . S
H235 C243 0.930 . S
H236 C246 0.930 . S
H237 C247 0.930 . S
C238 H232 0.930 . S
C238 C239 1.355 . S
C238 C240 1.415 . S
C239 C238 1.355 . S
C239 C241 1.419 . S
C240 C238 1.415 . S
C240 C245 1.425 . S
C240 C247 1.409 . S
C241 H233 0.930 . S
C241 C239 1.419 . S
C241 C242 1.362 . S
C242 H234 0.930 . S
C242 C241 1.362 . S
C242 C245 1.409 . S
C243 H235 0.930 . S
C243 C244 1.355 . S
C243 C245 1.415 . S
C244 C243 1.355 . S
C244 C246 1.419 . S
C245 C240 1.425 . S
C245 C242 1.409 . S
C245 C243 1.415 . S
C246 H236 0.930 . S
C246 C244 1.419 . S
C246 C247 1.362 . S
C247 H237 0.930 . S
C247 C240 1.409 . S
C247 C246 1.362 . S
H248 C254 0.930 . S
H249 C257 0.930 . S
H250 C258 0.930 . S
H251 C259 0.930 . S
H252 C262 0.930 . S
H253 C263 0.930 . S
C254 H248 0.930 . S
C254 C255 1.355 . S
C254 C256 1.415 . S
C255 C254 1.355 . S
C255 C257 1.419 . S
C256 C254 1.415 . S
C256 C261 1.425 . S
C256 C263 1.409 . S
C257 H249 0.930 . S
C257 C255 1.419 . S
C257 C258 1.362 . S
C258 H250 0.930 . S
C258 C257 1.362 . S
C258 C261 1.409 . S
C259 H251 0.930 . S
C259 C260 1.355 . S
C259 C261 1.415 . S
C260 C259 1.355 . S
C260 C262 1.419 . S
C261 C256 1.425 . S
C261 C258 1.409 . S
C261 C259 1.415 . S
C262 H252 0.930 . S
C262 C260 1.419 . S
C262 C263 1.362 . S
C263 H253 0.930 . S
C263 C256 1.409 . S
C263 C262 1.362 . S
H264 C270 0.930 . S
H265 C273 0.930 . S
H266 C274 0.930 . S
H267 C275 0.944 . S
H268 C278 0.930 . S
H269 C279 0.930 . S
C270 H264 0.930 . S
C270 C271 1.355 . S
C270 C272 1.415 1_554 S
C271 C270 1.355 . S
C271 C273 1.419 . S
C272 C270 1.415 1_556 S
C272 C277 1.425 1_556 S
C272 C279 1.409 1_545 S
C273 H265 0.930 . S
C273 C271 1.419 . S
C273 C274 1.362 . S
C274 H266 0.930 . S
C274 C273 1.362 . S
C274 C277 1.409 . S
C275 H267 0.944 . S
C275 C276 1.355 . S
C275 C277 1.415 1_566 S
C276 C275 1.355 . S
C276 C278 1.419 . S
C277 C272 1.425 1_554 S
C277 C274 1.409 . S
C277 C275 1.415 1_544 S
C278 H268 0.930 . S
C278 C276 1.419 . S
C278 C279 1.362 . S
C279 H269 0.930 . S
C279 C272 1.409 1_565 S
C279 C278 1.362 . S
H280 C286 0.930 . S
H281 C289 0.930 . S
H282 C290 0.930 . S
H283 C291 0.930 . S
H284 C294 0.930 . S
H285 C295 0.930 . S
C286 H280 0.930 . S
C286 C287 1.355 . S
C286 C288 1.415 . S
C287 C286 1.355 . S
C287 C289 1.419 . S
C288 C286 1.415 . S
C288 C293 1.425 . S
C288 C295 1.409 . S
C289 H281 0.930 . S
C289 C287 1.419 . S
C289 C290 1.362 . S
C290 H282 0.930 . S
C290 C289 1.362 . S
C290 C293 1.409 . S
C291 H283 0.930 . S
C291 C292 1.355 . S
C291 C293 1.415 . S
C292 C291 1.355 . S
C292 C294 1.419 . S
C293 C288 1.425 . S
C293 C290 1.409 . S
C293 C291 1.415 . S
C294 H284 0.930 . S
C294 C292 1.419 . S
C294 C295 1.362 . S
C295 H285 0.930 . S
C295 C288 1.409 . S
C295 C294 1.362 . S
H296 C302 0.930 . S
H297 C305 0.930 . S
H298 C306 0.930 1_554 S
H299 C307 0.930 . S
H300 C310 0.930 . S
H301 C311 0.921 1_556 S
C302 H296 0.930 . S
C302 C303 1.355 . S
C302 C304 1.403 1_455 S
C303 C302 1.355 . S
C303 C305 1.419 . S
C304 C302 1.403 1_655 S
C304 C309 1.403 1_656 S
C304 C311 1.438 1_556 S
C305 H297 0.930 . S
C305 C303 1.419 . S
C305 C306 1.362 . S
C306 H298 0.930 1_556 S
C306 C305 1.362 . S
C306 C309 1.409 1_556 S
C307 H299 0.930 . S
C307 C308 1.355 . S
C307 C309 1.415 1_655 S
C308 C307 1.355 . S
C308 C310 1.419 . S
C309 C304 1.403 1_454 S
C309 C306 1.409 1_554 S
C309 C307 1.415 1_455 S
C310 H300 0.930 . S
C310 C308 1.419 . S
C310 C311 1.377 . S
C311 H301 0.921 1_554 S
C311 C304 1.438 1_554 S
C311 C310 1.377 . S
H312 C318 0.930 . S
H313 C321 0.930 . S
H314 C322 0.930 . S
H315 C323 0.930 . S
H316 C326 0.930 . S
H317 C327 0.930 . S
C318 H312 0.930 . S
C318 C319 1.355 . S
C318 C320 1.415 1_545 S
C319 C318 1.355 . S
C319 C321 1.419 . S
C320 C318 1.415 1_565 S
C320 C325 1.425 . S
C320 C327 1.409 . S
C321 H313 0.930 . S
C321 C319 1.419 . S
C321 C322 1.362 . S
C322 H314 0.930 . S
C322 C321 1.362 . S
C322 C325 1.409 1_545 S
C323 H315 0.930 . S
C323 C324 1.355 . S
C323 C325 1.415 . S
C324 C323 1.355 . S
C324 C326 1.419 . S
C325 C320 1.425 . S
C325 C322 1.409 1_565 S
C325 C323 1.415 . S
C326 H316 0.930 . S
C326 C324 1.419 . S
C326 C327 1.362 . S
C327 H317 0.930 . S
C327 C320 1.409 . S
C327 C326 1.362 . S
H328 C334 0.930 . S
H329 C337 0.930 . S
H330 C338 0.930 . S
H331 C339 0.930 . S
H332 C342 0.930 . S
H333 C343 0.930 . S
C334 H328 0.930 . S
C334 C335 1.355 . S
C334 C336 1.415 . S
C335 C334 1.355 . S
C335 C337 1.419 . S
C336 C334 1.415 . S
C336 C341 1.425 1_556 S
C336 C343 1.409 . S
C337 H329 0.930 . S
C337 C335 1.419 . S
C337 C338 1.362 1_556 S
C338 H330 0.930 . S
C338 C337 1.362 1_554 S
C338 C341 1.409 . S
C339 H331 0.930 . S
C339 C340 1.355 . S
C339 C341 1.415 . S
C340 C339 1.355 . S
C340 C342 1.419 . S
C341 C336 1.425 1_554 S
C341 C338 1.409 . S
C341 C339 1.415 . S
C342 H332 0.930 . S
C342 C340 1.419 . S
C342 C343 1.362 1_554 S
C343 H333 0.930 . S
C343 C336 1.409 . S
C343 C342 1.362 1_556 S
H344 C350 0.930 . S
H345 C353 0.930 . S
H346 C354 0.930 . S
H347 C355 0.930 . S
H348 C358 0.930 . S
H349 C359 0.930 . S
C350 H344 0.930 . S
C350 C351 1.355 . S
C350 C352 1.415 . S
C351 C350 1.355 . S
C351 C353 1.419 . S
C352 C350 1.415 . S
C352 C357 1.425 . S
C352 C359 1.409 1_655 S
C353 H345 0.930 . S
C353 C351 1.419 . S
C353 C354 1.362 . S
C354 H346 0.930 . S
C354 C353 1.362 . S
C354 C357 1.409 . S
C355 H347 0.930 . S
C355 C356 1.355 . S
C355 C357 1.415 1_455 S
C356 C355 1.355 . S
C356 C358 1.419 . S
C357 C352 1.425 . S
C357 C354 1.409 . S
C357 C355 1.415 1_655 S
C358 H348 0.930 . S
C358 C356 1.419 . S
C358 C359 1.362 . S
C359 H349 0.930 . S
C359 C352 1.409 1_455 S
C359 C358 1.362 . S
H360 C366 0.930 . S
H361 C369 0.930 . S
H362 C370 0.930 . S
H363 C371 0.930 . S
H364 C374 0.930 . S
H365 C375 0.930 . S
C366 H360 0.930 . S
C366 C367 1.355 . S
C366 C368 1.415 . S
C367 C366 1.355 . S
C367 C369 1.419 . S
C368 C366 1.415 . S
C368 C373 1.425 . S
C368 C375 1.409 . S
C369 H361 0.930 . S
C369 C367 1.419 . S
C369 C370 1.362 . S
C370 H362 0.930 . S
C370 C369 1.362 . S
C370 C373 1.409 . S
C371 H363 0.930 . S
C371 C372 1.355 . S
C371 C373 1.415 . S
C372 C371 1.355 . S
C372 C374 1.419 . S
C373 C368 1.425 . S
C373 C370 1.409 . S
C373 C371 1.415 . S
C374 H364 0.930 . S
C374 C372 1.419 . S
C374 C375 1.362 . S
C375 H365 0.930 . S
C375 C368 1.409 . S
C375 C374 1.362 . S
H376 C382 0.930 . S
H377 C385 0.930 . S
H378 C386 0.930 . S
H379 C387 0.930 . S
H380 C390 0.930 . S
H381 C391 0.930 . S
C382 H376 0.930 . S
C382 C383 1.355 . S
C382 C384 1.415 . S
C383 C382 1.355 . S
C383 C385 1.419 . S
C384 C382 1.415 . S
C384 C389 1.425 . S
C384 C391 1.409 . S
C385 H377 0.930 . S
C385 C383 1.419 . S
C385 C386 1.362 . S
C386 H378 0.930 . S
C386 C385 1.362 . S
C386 C389 1.409 . S
C387 H379 0.930 . S
C387 C388 1.355 . S
C387 C389 1.415 . S
C388 C387 1.355 . S
C388 C390 1.419 . S
C389 C384 1.425 . S
C389 C386 1.409 . S
C389 C387 1.415 . S
C390 H380 0.930 . S
C390 C388 1.419 . S
C390 C391 1.362 . S
C391 H381 0.930 . S
C391 C384 1.409 . S
C391 C390 1.362 . S
H392 C398 0.930 . S
H393 C401 0.930 . S
H394 C402 0.930 . S
H395 C403 0.930 . S
H396 C406 0.930 . S
H397 C407 0.930 . S
C398 H392 0.930 . S
C398 C399 1.355 . S
C398 C400 1.415 . S
C399 C398 1.355 . S
C399 C401 1.419 . S
C400 C398 1.415 . S
C400 C405 1.425 . S
C400 C407 1.409 . S
C401 H393 0.930 . S
C401 C399 1.419 . S
C401 C402 1.362 . S
C402 H394 0.930 . S
C402 C401 1.362 . S
C402 C405 1.409 . S
C403 H395 0.930 . S
C403 C404 1.355 . S
C403 C405 1.415 . S
C404 C403 1.355 . S
C404 C406 1.419 . S
C405 C400 1.425 . S
C405 C402 1.409 . S
C405 C403 1.415 . S
C406 H396 0.930 . S
C406 C404 1.419 . S
C406 C407 1.362 . S
C407 H397 0.930 . S
C407 C400 1.409 . S
C407 C406 1.362 . S
H408 C414 0.930 . S
H409 C417 0.930 . S
H410 C418 0.930 . S
H411 C419 0.930 . S
H412 C422 0.930 . S
H413 C423 0.930 . S
C414 H408 0.930 . S
C414 C415 1.355 . S
C414 C416 1.415 . S
C415 C414 1.355 . S
C415 C417 1.419 . S
C416 C414 1.415 . S
C416 C421 1.425 . S
C416 C423 1.409 . S
C417 H409 0.930 . S
C417 C415 1.419 . S
C417 C418 1.362 . S
C418 H410 0.930 . S
C418 C417 1.362 . S
C418 C421 1.409 . S
C419 H411 0.930 . S
C419 C420 1.355 . S
C419 C421 1.415 . S
C420 C419 1.355 . S
C420 C422 1.419 . S
C421 C416 1.425 . S
C421 C418 1.409 . S
C421 C419 1.415 . S
C422 H412 0.930 . S
C422 C420 1.419 . S
C422 C423 1.362 . S
C423 H413 0.930 . S
C423 C416 1.409 . S
C423 C422 1.362 . S
H424 C430 0.930 . S
H425 C433 0.930 . S
H426 C434 0.930 . S
H427 C435 0.930 . S
H428 C438 0.930 . S
H429 C439 0.930 . S
C430 H424 0.930 . S
C430 C431 1.355 . S
C430 C432 1.415 . S
C431 C430 1.355 . S
C431 C433 1.419 . S
C432 C430 1.415 . S
C432 C437 1.425 . S
C432 C439 1.409 . S
C433 H425 0.930 . S
C433 C431 1.419 . S
C433 C434 1.362 . S
C434 H426 0.930 . S
C434 C433 1.362 . S
C434 C437 1.409 . S
C435 H427 0.930 . S
C435 C436 1.355 . S
C435 C437 1.415 . S
C436 C435 1.355 . S
C436 C438 1.419 . S
C437 C432 1.425 . S
C437 C434 1.409 . S
C437 C435 1.415 . S
C438 H428 0.930 . S
C438 C436 1.419 . S
C438 C439 1.362 . S
C439 H429 0.930 . S
C439 C432 1.409 . S
C439 C438 1.362 . S
H440 C446 0.930 . S
H441 C449 0.930 . S
H442 C450 0.930 . S
H443 C451 0.930 . S
H444 C454 0.930 . S
H445 C455 0.930 . S
C446 H440 0.930 . S
C446 C447 1.355 . S
C446 C448 1.415 . S
C447 C446 1.355 . S
C447 C449 1.419 . S
C448 C446 1.415 . S
C448 C453 1.425 . S
C448 C455 1.409 . S
C449 H441 0.930 . S
C449 C447 1.419 . S
C449 C450 1.362 . S
C450 H442 0.930 . S
C450 C449 1.362 . S
C450 C453 1.409 . S
C451 H443 0.930 . S
C451 C452 1.355 . S
C451 C453 1.415 . S
C452 C451 1.355 . S
C452 C454 1.419 . S
C453 C448 1.425 . S
C453 C450 1.409 . S
C453 C451 1.415 . S
C454 H444 0.930 . S
C454 C452 1.419 . S
C454 C455 1.362 . S
C455 H445 0.930 . S
C455 C448 1.409 . S
C455 C454 1.362 . S
H456 C462 0.930 . S
H457 C465 0.930 . S
H458 C466 0.930 . S
H459 C467 0.930 . S
H460 C470 0.930 . S
H461 C471 0.930 . S
C462 H456 0.930 . S
C462 C463 1.355 . S
C462 C464 1.415 . S
C463 C462 1.355 . S
C463 C465 1.419 . S
C464 C462 1.415 . S
C464 C469 1.425 . S
C464 C471 1.409 . S
C465 H457 0.930 . S
C465 C463 1.419 . S
C465 C466 1.362 . S
C466 H458 0.930 . S
C466 C465 1.362 . S
C466 C469 1.409 . S
C467 H459 0.930 . S
C467 C468 1.355 . S
C467 C469 1.415 . S
C468 C467 1.355 . S
C468 C470 1.419 . S
C469 C464 1.425 . S
C469 C466 1.409 . S
C469 C467 1.415 . S
C470 H460 0.930 . S
C470 C468 1.419 . S
C470 C471 1.362 . S
C471 H461 0.930 . S
C471 C464 1.409 . S
C471 C470 1.362 . S
H472 C478 0.930 . S
H473 C481 0.930 . S
H474 C482 0.930 . S
H475 C483 0.930 . S
H476 C486 0.930 . S
H477 C487 0.930 . S
C478 H472 0.930 . S
C478 C479 1.355 . S
C478 C480 1.415 . S
C479 C478 1.355 . S
C479 C481 1.419 . S
C480 C478 1.415 . S
C480 C485 1.425 . S
C480 C487 1.409 . S
C481 H473 0.930 . S
C481 C479 1.419 . S
C481 C482 1.362 . S
C482 H474 0.930 . S
C482 C481 1.362 . S
C482 C485 1.409 . S
C483 H475 0.930 . S
C483 C484 1.355 . S
C483 C485 1.415 . S
C484 C483 1.355 . S
C484 C486 1.419 . S
C485 C480 1.425 . S
C485 C482 1.409 . S
C485 C483 1.415 . S
C486 H476 0.930 . S
C486 C484 1.419 . S
C486 C487 1.362 . S
C487 H477 0.930 . S
C487 C480 1.409 . S
C487 C486 1.362 . S
H488 C494 0.930 . S
H489 C497 0.930 . S
H490 C498 0.930 . S
H491 C499 0.930 . S
H492 C502 0.930 . S
H493 C503 0.930 . S
C494 H488 0.930 . S
C494 C495 1.355 . S
C494 C496 1.415 . S
C495 C494 1.355 . S
C495 C497 1.419 . S
C496 C494 1.415 . S
C496 C501 1.425 . S
C496 C503 1.409 . S
C497 H489 0.930 . S
C497 C495 1.419 . S
C497 C498 1.362 . S
C498 H490 0.930 . S
C498 C497 1.362 . S
C498 C501 1.409 . S
C499 H491 0.930 . S
C499 C500 1.355 . S
C499 C501 1.415 . S
C500 C499 1.355 . S
C500 C502 1.419 . S
C501 C496 1.425 . S
C501 C498 1.409 . S
C501 C499 1.415 . S
C502 H492 0.930 . S
C502 C500 1.419 . S
C502 C503 1.362 . S
C503 H493 0.930 . S
C503 C496 1.409 . S
C503 C502 1.362 . S
H504 C510 0.930 . S
H505 C513 0.930 . S
H506 C514 0.930 . S
H507 C515 0.930 . S
H508 C518 0.930 . S
H509 C519 0.930 . S
C510 H504 0.930 . S
C510 C511 1.355 . S
C510 C512 1.415 . S
C511 C510 1.355 . S
C511 C513 1.419 . S
C512 C510 1.415 . S
C512 C517 1.425 . S
C512 C519 1.409 . S
C513 H505 0.930 . S
C513 C511 1.419 . S
C513 C514 1.362 . S
C514 H506 0.930 . S
C514 C513 1.362 . S
C514 C517 1.409 . S
C515 H507 0.930 . S
C515 C516 1.355 . S
C515 C517 1.415 . S
C516 C515 1.355 . S
C516 C518 1.419 . S
C517 C512 1.425 . S
C517 C514 1.409 . S
C517 C515 1.415 . S
C518 H508 0.930 . S
C518 C516 1.419 . S
C518 C519 1.362 . S
C519 H509 0.930 . S
C519 C512 1.409 . S
C519 C518 1.362 . S
H520 C526 0.930 . S
H521 C529 0.930 . S
H522 C530 0.930 . S
H523 C531 0.930 . S
H524 C534 0.930 . S
H525 C535 0.930 . S
C526 H520 0.930 . S
C526 C527 1.355 . S
C526 C528 1.415 . S
C527 C526 1.355 . S
C527 C529 1.419 . S
C528 C526 1.415 . S
C528 C533 1.425 . S
C528 C535 1.409 . S
C529 H521 0.930 . S
C529 C527 1.419 . S
C529 C530 1.362 . S
C530 H522 0.930 . S
C530 C529 1.362 . S
C530 C533 1.409 . S
C531 H523 0.930 . S
C531 C532 1.355 . S
C531 C533 1.415 . S
C532 C531 1.355 . S
C532 C534 1.419 . S
C533 C528 1.425 . S
C533 C530 1.409 . S
C533 C531 1.415 . S
C534 H524 0.930 . S
C534 C532 1.419 . S
C534 C535 1.362 . S
C535 H525 0.930 . S
C535 C528 1.409 . S
C535 C534 1.362 . S
H536 C542 0.930 . S
H537 C545 0.930 . S
H538 C546 0.930 . S
H539 C547 0.930 . S
H540 C550 0.930 . S
H541 C551 0.930 . S
C542 H536 0.930 . S
C542 C543 1.355 . S
C542 C544 1.415 . S
C543 C542 1.355 . S
C543 C545 1.419 . S
C544 C542 1.415 . S
C544 C549 1.425 . S
C544 C551 1.409 . S
C545 H537 0.930 . S
C545 C543 1.419 . S
C545 C546 1.362 . S
C546 H538 0.930 . S
C546 C545 1.362 . S
C546 C549 1.409 . S
C547 H539 0.930 . S
C547 C548 1.355 . S
C547 C549 1.415 . S
C548 C547 1.355 . S
C548 C550 1.419 . S
C549 C544 1.425 . S
C549 C546 1.409 . S
C549 C547 1.415 . S
C550 H540 0.930 . S
C550 C548 1.419 . S
C550 C551 1.362 . S
C551 H541 0.930 . S
C551 C544 1.409 . S
C551 C550 1.362 . S
C175 C147 1.497 . S
C180 C7 1.551 . S
C191 C21 1.355 . S
C196 C160 1.402 . S
C207 C34 1.579 . S
C212 C91 1.497 . S
C223 C105 1.495 . S
C228 C49 1.487 . S
C239 C118 1.412 . S
C244 C63 1.354 . S
C255 C76 1.568 . S
C260 C133 1.534 . S
C271 C6 1.133 . S
C276 C104 1.009 . S
C287 C20 0.923 . S
C292 C119 0.999 . S
C303 C132 1.108 . S
C308 C35 1.003 . S
C319 C146 1.027 . S
C324 C48 1.142 . S
C335 C161 0.924 . S
C340 C62 1.000 . S
C351 C90 1.101 . S
C356 C77 1.100 . S
C367 C8 1.198 . S
C372 C65 1.253 . S
C383 C22 1.389 . S
C388 C78 1.398 . S
C399 C37 1.172 . S
C404 C9 1.287 . S
C415 C50 1.211 . S
C420 C23 1.265 . S
C431 C64 1.390 . S
C436 C36 1.397 . S
C447 C79 1.239 . S
C452 C51 1.248 . S
C463 C92 1.204 . S
C468 C120 1.246 . S
C479 C106 1.172 . S
C484 C135 1.287 . S
C495 C149 1.399 . S
C500 C121 1.386 . S
C511 C134 1.230 . S
C516 C162 1.257 . S
C527 C148 1.239 . S
C532 C93 1.260 . S
C543 C163 1.336 . S
C548 C107 1.409 . S
