# Generated by pormake.
# Topology unh, (4)-cn, num edge types: 1
# Building blocks:
#     Node 0, Type 0, BuildingBlock: KOZSID_clean_sbu_0, # of connection points: 4
#     Node 1, Type 0, BuildingBlock: KOZSID_clean_sbu_0, # of connection points: 4
#     Node 2, Type 0, BuildingBlock: KOZSID_clean_sbu_0, # of connection points: 4
#     Node 3, Type 0, BuildingBlock: KOZSID_clean_sbu_0, # of connection points: 4
#     Node 4, Type 0, BuildingBlock: KOZSID_clean_sbu_0, # of connection points: 4
#     Node 5, Type 0, BuildingBlock: KOZSID_clean_sbu_0, # of connection points: 4
#     Edge 6, Type (0, 0), BuildingBlock: XIVTED_clean_linker_0, # of connection points: 2
#     Edge 7, Type (0, 0), BuildingBlock: XIVTED_clean_linker_0, # of connection points: 2
#     Edge 8, Type (0, 0), BuildingBlock: XIVTED_clean_linker_0, # of connection points: 2
#     Edge 9, Type (0, 0), BuildingBlock: XIVTED_clean_linker_0, # of connection points: 2
#     Edge 10, Type (0, 0), BuildingBlock: XIVTED_clean_linker_0, # of connection points: 2
#     Edge 11, Type (0, 0), BuildingBlock: XIVTED_clean_linker_0, # of connection points: 2
#     Edge 12, Type (0, 0), BuildingBlock: XIVTED_clean_linker_0, # of connection points: 2
#     Edge 13, Type (0, 0), BuildingBlock: XIVTED_clean_linker_0, # of connection points: 2
#     Edge 14, Type (0, 0), BuildingBlock: XIVTED_clean_linker_0, # of connection points: 2
#     Edge 15, Type (0, 0), BuildingBlock: XIVTED_clean_linker_0, # of connection points: 2
#     Edge 16, Type (0, 0), BuildingBlock: XIVTED_clean_linker_0, # of connection points: 2
#     Edge 17, Type (0, 0), BuildingBlock: XIVTED_clean_linker_0, # of connection points: 2
# Relax obj value: 0.012
# Max RMSD: 0.276
# Mean RMSD: 0.251
data_MOF--net-unh--node1-KOZSID_clean_sbu_0--edge1-XIVTED_clean_linker_0
_symmetry_space_group_name_H-M    P1
_symmetry_Int_Tables_number       1
_symmetry_cell_setting            triclinic
loop_
_symmetry_equiv_pos_as_xyz
'x, y, z'
_cell_length_a     54.112844
_cell_length_b     59.226377
_cell_length_c     22.943611
_cell_angle_alpha  89.956776
_cell_angle_beta   89.939715
_cell_angle_gamma 120.10791
loop_
_atom_site_label
_atom_site_type_symbol
_atom_site_fract_x
_atom_site_fract_y
_atom_site_fract_z
_atom_type_partial_charge
C0 C 0.22093 0.61096 0.18384 0.0
C1 C 0.23567 0.63327 0.21755 0.0
C2 C 0.22642 0.64999 0.20087 0.0
C3 C 0.20663 0.63707 0.15798 0.0
N4 N 0.20227 0.61294 0.14733 0.0
Co5 Co 0.17775 0.58936 0.08361 0.0
N6 N 0.15888 0.61048 0.06963 0.0
C7 C 0.16807 0.63481 0.08929 0.0
C8 C 0.15071 0.64445 0.07294 0.0
C9 C 0.12927 0.62499 0.04066 0.0
C10 C 0.13483 0.60455 0.03907 0.0
N11 N 0.154 0.56624 0.01889 0.0
C12 C 0.13087 0.5645 0.99181 0.0
C13 C 0.12124 0.546 0.94761 0.0
C14 C 0.13883 0.53566 0.94731 0.0
C15 C 0.15816 0.54842 0.99095 0.0
N16 N 0.1958 0.56757 0.09782 0.0
C17 C 0.19344 0.5481 0.06361 0.0
C18 C 0.2071 0.53571 0.0853 0.0
C19 C 0.21948 0.54848 0.13589 0.0
C20 C 0.21295 0.56827 0.14175 0.0
N21 N 0.14751 0.56821 0.14075 0.0
C22 C 0.10435 0.5397 0.22419 0.0
C23 C 0.11104 0.5269 0.18061 0.0
C24 C 0.13273 0.54148 0.13954 0.0
C25 C 0.11965 0.56704 0.22421 0.0
C26 C 0.14086 0.58075 0.18261 0.0
N27 N 0.20829 0.61151 0.02762 0.0
C28 C 0.25887 0.64014 1.01156 0.0
C29 C 0.25344 0.65449 0.9703 0.0
C30 C 0.22496 0.64527 0.9541 0.0
C31 C 0.20278 0.62337 0.98222 0.0
C32 C 0.23612 0.61887 0.0396 0.0
H33 H 0.18111 0.61713 0.96951 0.0
H34 H 0.24138 0.60966 0.07365 0.0
H35 H 0.13749 0.53112 0.10692 0.0
H36 H 0.15173 0.60168 0.18442 0.0
C37 C 0.19072 0.64634 0.12891 0.0
C38 C 0.22796 0.58999 0.18272 0.0
C39 C 0.11804 0.58058 1.00502 0.0
C40 C 0.1768 0.54089 0.01345 0.0
H41 H 0.25213 0.6374 0.24942 0.0
H42 H 0.23349 0.66936 0.21766 0.0
H43 H 0.15288 0.66307 0.08447 0.0
H44 H 0.11172 0.62581 0.02026 0.0
H45 H 0.10327 0.54039 0.91878 0.0
H46 H 0.13691 0.51989 0.92028 0.0
H47 H 0.20805 0.51941 0.06648 0.0
H48 H 0.23305 0.54459 0.16375 0.0
H49 H 0.09993 0.5058 0.17867 0.0
H50 H 0.11501 0.57801 0.25576 0.0
H51 H 0.28052 0.64635 0.02515 0.0
H52 H 0.2198 0.65538 0.92121 0.0
C53 C 0.61905 0.19573 0.36037 0.0
C54 C 0.60712 0.20144 0.40755 0.0
C55 C 0.57924 0.1815 0.4114 0.0
C56 C 0.57574 0.16476 0.36655 0.0
N57 N 0.59968 0.17292 0.33503 0.0
Co58 Co 0.60392 0.15562 0.26474 0.0
N59 N 0.56185 0.13458 0.2526 0.0
C60 C 0.54192 0.13066 0.29293 0.0
C61 C 0.51453 0.11476 0.27354 0.0
C62 C 0.51736 0.10776 0.21809 0.0
C63 C 0.54646 0.1196 0.20674 0.0
N64 N 0.60867 0.13878 0.19385 0.0
C65 C 0.58947 0.12358 0.15268 0.0
C66 C 0.60202 0.11459 0.1129 0.0
C67 C 0.62964 0.12414 0.13016 0.0
C68 C 0.63257 0.13833 0.17934 0.0
N69 N 0.64581 0.17609 0.27791 0.0
C70 C 0.6654 0.17095 0.25532 0.0
C71 C 0.69286 0.18917 0.27024 0.0
C72 C 0.69039 0.20691 0.30428 0.0
C73 C 0.66138 0.19834 0.30863 0.0
N74 N 0.60144 0.1271 0.31361 0.0
C75 C 0.59046 0.08584 0.3905 0.0
C76 C 0.57914 0.08095 0.33394 0.0
C77 C 0.58493 0.10167 0.29644 0.0
C78 C 0.60864 0.11201 0.40651 0.0
C79 C 0.61396 0.13225 0.36748 0.0
N80 N 0.60594 0.18431 0.21747 0.0
C81 C 0.6331 0.22333 0.15955 0.0
C82 C 0.61296 0.23126 0.17045 0.0
C83 C 0.58836 0.21404 0.20185 0.0
C84 C 0.58543 0.19107 0.22519 0.0
C85 C 0.62903 0.19968 0.18289 0.0
H86 H 0.56699 0.17946 0.2519 0.0
H87 H 0.64519 0.19445 0.17513 0.0
H88 H 0.57497 0.0969 0.25429 0.0
H89 H 0.6275 0.15214 0.38166 0.0
C90 C 0.54963 0.14457 0.34561 0.0
C91 C 0.64915 0.21135 0.34266 0.0
C92 C 0.55849 0.11383 0.15491 0.0
C93 C 0.65788 0.15281 0.21052 0.0
H94 H 0.61746 0.21827 0.43588 0.0
H95 H 0.5631 0.18012 0.44145 0.0
H96 H 0.49483 0.10923 0.29659 0.0
H97 H 0.49998 0.09486 0.18981 0.0
H98 H 0.59209 0.1015 0.0766 0.0
H99 H 0.64562 0.12095 0.10948 0.0
H100 H 0.71244 0.1904 0.25502 0.0
H101 H 0.70805 0.22439 0.32248 0.0
H102 H 0.56481 0.06123 0.31923 0.0
H103 H 0.61845 0.11691 0.44919 0.0
H104 H 0.65241 0.23568 0.13518 0.0
H105 H 0.5715 0.21844 0.20978 0.0
C106 C 0.43092 0.60612 0.32515 0.0
C107 C 0.44102 0.62861 0.29174 0.0
C108 C 0.46825 0.64541 0.31012 0.0
C109 C 0.47329 0.63237 0.35366 0.0
N110 N 0.45123 0.60806 0.36317 0.0
Co111 Co 0.44914 0.58428 0.42751 0.0
N112 N 0.49077 0.60614 0.4453 0.0
C113 C 0.50827 0.63061 0.42616 0.0
C114 C 0.53586 0.64088 0.44538 0.0
C115 C 0.53579 0.62172 0.47904 0.0
C116 C 0.50806 0.60077 0.47838 0.0
N117 N 0.44675 0.56093 0.49274 0.0
C118 C 0.46771 0.55951 0.52199 0.0
C119 C 0.45631 0.53943 0.56282 0.0
C120 C 0.42733 0.52823 0.55977 0.0
C121 C 0.42258 0.54179 0.51711 0.0
N122 N 0.40761 0.56179 0.40913 0.0
C123 C 0.38824 0.54141 0.44093 0.0
C124 C 0.36154 0.52874 0.41658 0.0
C125 C 0.36388 0.54227 0.36675 0.0
C126 C 0.39193 0.56273 0.36399 0.0
N127 N 0.4583 0.564 0.37213 0.0
C128 C 0.47448 0.53641 0.29535 0.0
C129 C 0.45294 0.52323 0.33719 0.0
C130 C 0.44502 0.53732 0.37471 0.0
C131 C 0.4875 0.56364 0.29282 0.0
C132 C 0.47928 0.57694 0.33141 0.0
N133 N 0.44075 0.60535 0.4823 0.0
C134 C 0.41903 0.63192 0.4973 0.0
C135 C 0.43794 0.64544 0.54274 0.0
C136 C 0.45674 0.6369 0.56053 0.0
C137 C 0.45745 0.61656 0.53043 0.0
C138 C 0.42075 0.61209 0.46807 0.0
H139 H 0.4725 0.61082 0.54453 0.0
H140 H 0.40682 0.6034 0.43183 0.0
H141 H 0.42833 0.52658 0.40604 0.0
H142 H 0.49039 0.59786 0.32858 0.0
C143 C 0.49877 0.64189 0.38493 0.0
C144 C 0.40085 0.58513 0.32489 0.0
C145 C 0.49849 0.57716 0.51387 0.0
C146 C 0.39619 0.53379 0.49151 0.0
H147 H 0.42954 0.63289 0.25908 0.0
H148 H 0.48251 0.66496 0.29421 0.0
H149 H 0.55403 0.6598 0.43507 0.0
H150 H 0.55395 0.62311 0.50207 0.0
H151 H 0.46765 0.53317 0.59132 0.0
H152 H 0.41159 0.51126 0.58352 0.0
H153 H 0.34258 0.51179 0.43326 0.0
H154 H 0.34656 0.53844 0.3374 0.0
H155 H 0.44207 0.50216 0.3406 0.0
H156 H 0.50453 0.57481 0.262 0.0
H157 H 0.40402 0.6376 0.48181 0.0
H158 H 0.47127 0.64625 0.59653 0.0
C159 C 0.83808 0.42839 0.69184 0.0
C160 C 0.82474 0.40572 0.725 0.0
C161 C 0.83488 0.39003 0.70569 0.0
C162 C 0.85376 0.40388 0.66192 0.0
N163 N 0.85673 0.42763 0.65309 0.0
Co164 Co 0.87986 0.45237 0.58947 0.0
N165 N 0.90019 0.43281 0.57172 0.0
C166 C 0.89231 0.40852 0.58994 0.0
C167 C 0.91031 0.4 0.57094 0.0
C168 C 0.93078 0.42015 0.53835 0.0
C169 C 0.92404 0.43985 0.5392 0.0
N170 N 0.90235 0.47667 0.52496 0.0
C171 C 0.92564 0.47966 0.49581 0.0
C172 C 0.93412 0.49868 0.45285 0.0
C173 C 0.91563 0.50802 0.45537 0.0
C174 C 0.89691 0.49419 0.49936 0.0
N175 N 0.8602 0.47249 0.60739 0.0
C176 C 0.86106 0.49178 0.57466 0.0
C177 C 0.84627 0.50274 0.59833 0.0
C178 C 0.83474 0.48918 0.64871 0.0
C179 C 0.84293 0.47043 0.65255 0.0
N180 N 0.91014 0.47383 0.64588 0.0
C181 C 0.95285 0.50305 0.72912 0.0
C182 C 0.94483 0.51546 0.68709 0.0
C183 C 0.9234 0.50052 0.64611 0.0
C184 C 0.9392 0.47575 0.72762 0.0
C185 C 0.91818 0.46167 0.68605 0.0
N186 N 0.8493 0.43006 0.53407 0.0
C187 C 0.79891 0.40054 0.51859 0.0
C188 C 0.80482 0.38769 0.47445 0.0
C189 C 0.83335 0.39804 0.45701 0.0
C190 C 0.85518 0.41961 0.48644 0.0
C191 C 0.82132 0.4215 0.5478 0.0
H192 H 0.87691 0.42679 0.47263 0.0
H193 H 0.81573 0.42951 0.58386 0.0
H194 H 0.91753 0.51059 0.61482 0.0
H195 H 0.90851 0.4408 0.68662 0.0
C196 C 0.87023 0.39589 0.63054 0.0
C197 C 0.82965 0.44843 0.69353 0.0
C198 C 0.93951 0.46416 0.50546 0.0
C199 C 0.87744 0.50023 0.52402 0.0
H200 H 0.80861 0.40067 0.75829 0.0
H201 H 0.82901 0.37074 0.72143 0.0
H202 H 0.90917 0.38163 0.58087 0.0
H203 H 0.94848 0.42024 0.51608 0.0
H204 H 0.95188 0.50522 0.42288 0.0
H205 H 0.91647 0.52376 0.4298 0.0
H206 H 0.84405 0.51863 0.58097 0.0
H207 H 0.82075 0.49194 0.67791 0.0
H208 H 0.95467 0.53651 0.68639 0.0
H209 H 0.94495 0.46515 0.75802 0.0
H210 H 0.77719 0.39335 0.53334 0.0
H211 H 0.83883 0.38904 0.42208 0.0
C212 C 0.43879 0.8488 0.86408 0.0
C213 C 0.45016 0.84385 0.91329 0.0
C214 C 0.47773 0.86427 0.91826 0.0
C215 C 0.48162 0.88051 0.87198 0.0
N216 N 0.45821 0.87159 0.8385 0.0
Co217 Co 0.45474 0.88795 0.76563 0.0
N218 N 0.49691 0.90978 0.75646 0.0
C219 C 0.51615 0.91469 0.799 0.0
C220 C 0.5437 0.93181 0.7821 0.0
C221 C 0.54168 0.93857 0.7259 0.0
C222 C 0.51288 0.92522 0.71156 0.0
N223 N 0.45071 0.90348 0.69169 0.0
C224 C 0.47044 0.91818 0.65072 0.0
C225 C 0.45809 0.92526 0.60649 0.0
C226 C 0.42999 0.91526 0.62101 0.0
C227 C 0.42664 0.90259 0.67293 0.0
N228 N 0.41269 0.8668 0.77601 0.0
C229 C 0.39309 0.871 0.74997 0.0
C230 C 0.36556 0.85258 0.76411 0.0
C231 C 0.36798 0.83565 0.80113 0.0
C232 C 0.39701 0.84485 0.80781 0.0
N233 N 0.45558 0.91668 0.81108 0.0
C234 C 0.46777 0.95954 0.88413 0.0
C235 C 0.47568 0.96304 0.82503 0.0
C236 C 0.46987 0.94166 0.78997 0.0
C237 C 0.45134 0.93362 0.90411 0.0
C238 C 0.44501 0.9126 0.86671 0.0
N239 N 0.45459 0.85936 0.72176 0.0
C240 C 0.43108 0.8216 0.65919 0.0
C241 C 0.45143 0.8143 0.67311 0.0
C242 C 0.47381 0.83065 0.71037 0.0
C243 C 0.47501 0.85289 0.73389 0.0
C244 C 0.43317 0.84428 0.6836 0.0
H245 H 0.49202 0.86427 0.76391 0.0
H246 H 0.41705 0.84921 0.67285 0.0
H247 H 0.47815 0.94574 0.74635 0.0
H248 H 0.43269 0.89305 0.88387 0.0
C249 C 0.5078 0.90109 0.85216 0.0
C250 C 0.40908 0.83252 0.84461 0.0
C251 C 0.50153 0.92989 0.65739 0.0
C252 C 0.40089 0.88817 0.70294 0.0
H253 H 0.43964 0.82724 0.94228 0.0
H254 H 0.49345 0.86632 0.95016 0.0
H255 H 0.56299 0.9385 0.80745 0.0
H256 H 0.55931 0.95232 0.69904 0.0
H257 H 0.46852 0.93747 0.56899 0.0
H258 H 0.41397 0.91713 0.59671 0.0
H259 H 0.34603 0.8506 0.74642 0.0
H260 H 0.35031 0.81822 0.81967 0.0
H261 H 0.48704 0.98225 0.80554 0.0
H262 H 0.44426 0.92932 0.9489 0.0
H263 H 0.41359 0.80984 0.62993 0.0
H264 H 0.48986 0.82584 0.72334 0.0
C265 C 0.62597 0.43362 0.83134 0.0
C266 C 0.61377 0.4159 0.78612 0.0
C267 C 0.58576 0.40994 0.78257 0.0
C268 C 0.58238 0.42423 0.82585 0.0
N269 N 0.60651 0.43877 0.85616 0.0
Co270 Co 0.61086 0.46087 0.92492 0.0
N271 N 0.56886 0.44348 0.93772 0.0
C272 C 0.54884 0.42882 0.89794 0.0
C273 C 0.52154 0.42058 0.91678 0.0
C274 C 0.52452 0.43111 0.97129 0.0
C275 C 0.55361 0.44532 0.98276 0.0
N276 N 0.61582 0.48269 0.99477 0.0
C277 C 0.59686 0.48022 0.03668 0.0
C278 C 0.60962 0.50042 0.07691 0.0
C279 C 0.63714 0.51634 0.05875 0.0
C280 C 0.63978 0.50505 1.00881 0.0
N281 N 0.65262 0.47895 0.9108 0.0
C282 C 0.67208 0.50257 0.93116 0.0
C283 C 0.6994 0.51016 0.91345 0.0
C284 C 0.69695 0.48996 0.88008 0.0
C285 C 0.66817 0.4711 0.87967 0.0
N286 N 0.60795 0.48641 0.87416 0.0
C287 C 0.59407 0.51505 0.79502 0.0
C288 C 0.58653 0.51286 0.85429 0.0
C289 C 0.59321 0.49829 0.89247 0.0
C290 C 0.61079 0.50411 0.77775 0.0
C291 C 0.6179 0.49039 0.81803 0.0
N292 N 0.61317 0.43469 0.97408 0.0
C293 C 0.63995 0.42146 0.0356 0.0
C294 C 0.61872 0.39516 0.0299 0.0
C295 C 0.59443 0.3892 0.99731 0.0
C296 C 0.59222 0.40906 0.9694 0.0
C297 C 0.63652 0.44099 1.00818 0.0
H298 H 0.57385 0.40336 0.94228 0.0
H299 H 0.6531 0.46108 0.01326 0.0
H300 H 0.58538 0.49596 0.93637 0.0
H301 H 0.63044 0.48202 0.80289 0.0
C302 C 0.55637 0.42096 0.84636 0.0
C303 C 0.65621 0.44625 0.84854 0.0
C304 C 0.56581 0.46219 0.03425 0.0
C305 C 0.66484 0.51396 0.9763 0.0
H306 H 0.62392 0.40796 0.75892 0.0
H307 H 0.56949 0.39587 0.75381 0.0
H308 H 0.50178 0.40815 0.89395 0.0
H309 H 0.5073 0.42906 0.99895 0.0
H310 H 0.59974 0.50402 0.11402 0.0
H311 H 0.65323 0.53411 0.07936 0.0
H312 H 0.71895 0.52755 0.92607 0.0
H313 H 0.71438 0.48904 0.85924 0.0
H314 H 0.57491 0.52182 0.87157 0.0
H315 H 0.61754 0.5051 0.73299 0.0
H316 H 0.65897 0.42685 0.061 0.0
H317 H 0.57758 0.36913 0.99174 0.0
H318 H 0.11369 0.60472 0.90671 0.0
H319 H 0.95286 0.49071 0.84456 0.0
H320 H 0.06326 0.54236 0.02662 0.0
H321 H 1.0041 0.5495 0.71737 0.0
H322 H 0.99113 0.51266 0.91563 0.0
H323 H 0.07205 0.58863 0.84181 0.0
C324 C 0.09353 0.58813 0.92014 0.0
C325 C 0.09167 0.5751 0.97253 0.0
C326 C 0.99404 0.52091 0.87232 0.0
C327 C 0.0442 0.55603 0.89783 0.0
C328 C 0.97217 0.50827 0.83143 0.0
C329 C 0.97525 0.51797 0.77428 0.0
C330 C 1.01949 0.54357 0.85647 0.0
C331 C 1.00063 0.54125 0.76075 0.0
C332 C 0.06987 0.57875 0.88283 0.0
C333 C 0.06537 0.5532 0.98711 0.0
N334 N 1.02181 0.55309 0.80126 0.0
N335 N 0.04279 0.54428 0.9499 0.0
H336 H 0.44385 0.96383 0.98871 0.0
H337 H 0.55328 0.11548 0.0364 0.0
H338 H 0.5155 1.00895 0.87353 0.0
H339 H 0.52198 0.06229 0.18191 0.0
H340 H 0.52871 0.07815 0.96968 0.0
H341 H 0.46265 1.00129 0.05465 0.0
C342 C 0.46338 0.98136 0.97671 0.0
C343 C 0.4778 0.98271 0.92437 0.0
C344 C 0.52683 0.07475 0.01628 0.0
C345 C 0.49872 0.02622 0.99951 0.0
C346 C 0.54062 0.096 0.05425 0.0
C347 C 0.5395 0.09198 0.11469 0.0
C348 C 0.51126 0.04929 0.0389 0.0
C349 C 0.52307 0.06627 0.13563 0.0
C350 C 0.47394 1.00285 0.01448 0.0
C351 C 0.5028 1.00663 0.91182 0.0
N352 N 0.50958 0.0459 0.09784 0.0
N353 N 0.51226 0.0273 0.94871 0.0
H354 H 0.48634 0.54488 0.17844 0.0
H355 H 0.55062 0.44936 0.14912 0.0
H356 H 0.48426 0.49585 0.31963 0.0
H357 H 0.54024 0.49016 1.00445 0.0
H358 H 0.52529 0.46484 0.21221 0.0
H359 H 0.50517 0.52418 0.11421 0.0
C360 C 0.4898 0.5297 0.196 0.0
C361 C 0.48383 0.52228 0.25484 0.0
C362 C 0.52819 0.47012 0.16651 0.0
C363 C 0.50557 0.49831 0.18098 0.0
C364 C 0.5425 0.46118 0.13056 0.0
C365 C 0.54716 0.46826 0.07151 0.0
C366 C 0.51881 0.48655 0.14333 0.0
C367 C 0.53674 0.48402 0.04964 0.0
C368 C 0.50046 0.51778 0.15912 0.0
C369 C 0.48838 0.50216 0.27461 0.0
N370 N 0.52326 0.49275 0.08552 0.0
N371 N 0.49921 0.49107 0.238 0.0
H372 H 0.94261 0.44081 0.40463 0.0
H373 H 0.10514 0.5514 0.34036 0.0
H374 H 0.9945 0.50298 0.5233 0.0
H375 H 0.0515 0.49487 0.21184 0.0
H376 H 0.06655 0.53054 0.41141 0.0
H377 H 0.98369 0.45657 0.33793 0.0
C378 C 0.96292 0.45738 0.41721 0.0
C379 C 0.96539 0.47037 0.46993 0.0
C380 C 0.06317 0.52256 0.3678 0.0
C381 C 1.01229 0.48897 0.39335 0.0
C382 C 0.08524 0.53458 0.32689 0.0
C383 C 0.08162 0.52522 0.26935 0.0
C384 C 0.03699 0.50083 0.35165 0.0
C385 C 0.05544 0.50284 0.25549 0.0
C386 C 0.98627 0.46654 0.37895 0.0
C387 C 0.9919 0.49219 0.48351 0.0
N388 N 0.03412 0.49157 0.29608 0.0
N389 N 1.01422 0.50083 0.4455 0.0
H390 H 0.58037 0.08498 0.50857 0.0
H391 H 0.51952 0.93114 0.54488 0.0
H392 H 0.58075 0.03606 0.36961 0.0
H393 H 0.52463 0.98131 0.68564 0.0
H394 H 0.54461 0.96963 0.48128 0.0
H395 H 0.56291 0.0479 0.57526 0.0
C396 C 0.5772 0.06659 0.49206 0.0
C397 C 0.58201 0.06383 0.43291 0.0
C398 C 0.54062 0.97231 0.52628 0.0
C399 C 0.56136 1.02083 0.50949 0.0
C400 C 0.52647 0.95036 0.56254 0.0
C401 C 0.52034 0.95317 0.62057 0.0
C402 C 0.54845 0.99725 0.54808 0.0
C403 C 0.52928 0.97842 0.64127 0.0
C404 C 0.56698 0.04529 0.53026 0.0
C405 C 0.57692 0.03918 0.41439 0.0
N406 N 0.5427 0.99941 0.60505 0.0
N407 N 0.56677 1.01871 0.45231 0.0
H408 H 0.61731 0.53882 0.68774 0.0
H409 H 0.505 0.58602 0.63082 0.0
H410 H 0.54563 0.51966 0.80168 0.0
H411 H 0.53709 0.56128 0.4874 0.0
H412 H 0.53101 0.57343 0.69882 0.0
H413 H 0.5977 0.55696 0.61776 0.0
C414 C 0.59759 0.53831 0.69861 0.0
C415 C 0.58344 0.52755 0.7519 0.0
C416 C 0.5327 0.57109 0.65243 0.0
C417 C 0.56156 0.54943 0.67201 0.0
C418 C 0.51807 0.57844 0.61371 0.0
C419 C 0.51872 0.57439 0.55363 0.0
C420 C 0.54866 0.56013 0.63098 0.0
C421 C 0.536 0.56457 0.53351 0.0
C422 C 0.58656 0.54892 0.65848 0.0
C423 C 0.55815 0.52824 0.76278 0.0
N424 N 0.55025 0.55763 0.57214 0.0
N425 N 0.54827 0.53908 0.72363 0.0
H426 H 0.24272 0.5881 0.29658 0.0
H427 H 0.38694 0.58904 0.21121 0.0
H428 H 0.27641 0.60183 0.12187 0.0
H429 H 0.36279 0.59269 0.38842 0.0
H430 H 0.34688 0.59413 0.17712 0.0
H431 H 0.28688 0.59036 0.33168 0.0
C432 C 0.25962 0.59198 0.26587 0.0
C433 C 0.25596 0.59476 0.20639 0.0
C434 C 0.35052 0.59407 0.22349 0.0
C435 C 0.30623 0.59686 0.2456 0.0
C436 C 0.37341 0.59122 0.24282 0.0
C437 C 0.37822 0.59047 0.30262 0.0
C438 C 0.33211 0.59587 0.26433 0.0
C439 C 0.3599 0.59319 0.3419 0.0
C440 C 0.28476 0.59317 0.28571 0.0
C441 C 0.27841 0.59958 0.16814 0.0
N442 N 0.33759 0.59553 0.32214 0.0
N443 N 0.30239 0.60019 0.18823 0.0
H444 H 0.65408 0.25813 0.312 0.0
H445 H 0.80471 0.34171 0.46621 0.0
H446 H 0.68838 0.22414 0.42967 0.0
H447 H 0.75185 0.37564 0.43261 0.0
H448 H 0.76491 0.29892 0.43797 0.0
H449 H 0.69135 0.30198 0.3439 0.0
C450 C 0.66921 0.25997 0.34519 0.0
C451 C 0.66842 0.23765 0.36805 0.0
C452 C 0.76206 0.31575 0.43653 0.0
C453 C 0.71135 0.28736 0.40321 0.0
C454 C 0.78485 0.34021 0.45198 0.0
C455 C 0.78165 0.3623 0.45143 0.0
C456 C 0.73592 0.31332 0.41929 0.0
C457 C 0.75521 0.3591 0.4336 0.0
C458 C 0.69049 0.28489 0.3631 0.0
C459 C 0.68848 0.24095 0.41079 0.0
N460 N 0.73341 0.3351 0.41781 0.0
N461 N 0.70941 0.2653 0.42624 0.0
H462 H 0.49478 0.80586 0.63802 0.0
H463 H 0.39333 0.65353 0.56997 0.0
H464 H 0.40315 0.76598 0.65836 0.0
H465 H 0.48537 0.69218 0.57108 0.0
H466 H 0.39618 0.69439 0.60034 0.0
H467 H 0.49138 0.76464 0.61025 0.0
C468 C 0.47389 0.78845 0.63677 0.0
C469 C 0.44923 0.78954 0.65109 0.0
C470 C 0.41575 0.69391 0.5943 0.0
C471 C 0.44518 0.74195 0.61859 0.0
C472 C 0.41416 0.67055 0.57687 0.0
C473 C 0.43916 0.6693 0.56779 0.0
C474 C 0.44256 0.71638 0.60239 0.0
C475 C 0.46551 0.69203 0.57811 0.0
C476 C 0.47198 0.76485 0.62073 0.0
C477 C 0.42275 0.76627 0.64726 0.0
N478 N 0.4665 0.71459 0.5944 0.0
N479 N 0.42145 0.74348 0.63157 0.0
H480 H 0.68579 0.42888 0.91192 0.0
H481 H 0.81712 0.44921 0.80946 0.0
H482 H 0.67417 0.44713 0.73604 0.0
H483 H 0.77916 0.43435 0.63881 0.0
H484 H 0.77262 0.44364 0.85104 0.0
H485 H 0.7264 0.42461 0.87944 0.0
C486 C 0.69151 0.43142 0.86613 0.0
C487 C 0.67638 0.43795 0.82642 0.0
C488 C 0.7736 0.44092 0.80468 0.0
C489 C 0.72384 0.4345 0.78906 0.0
C490 C 0.79915 0.44426 0.78102 0.0
C491 C 0.80176 0.44221 0.72078 0.0
C492 C 0.75049 0.43555 0.76764 0.0
C493 C 0.77798 0.43607 0.68555 0.0
C494 C 0.71505 0.42948 0.8477 0.0
C495 C 0.68489 0.44152 0.76778 0.0
N496 N 0.75354 0.43328 0.70935 0.0
N497 N 0.7081 0.43985 0.75095 0.0
H498 H 0.36995 0.82037 0.93171 0.0
H499 H 0.30588 0.66594 0.92613 0.0
H500 H 0.40351 0.78536 0.81508 0.0
H501 H 0.25541 0.70149 0.96794 0.0
H502 H 0.34584 0.7092 0.89889 0.0
H503 H 0.33244 0.77662 0.96204 0.0
C504 C 0.36967 0.80339 0.91339 0.0
C505 C 0.38967 0.80635 0.87074 0.0
C506 C 0.32595 0.70745 0.91374 0.0
C507 C 0.3469 0.7563 0.90503 0.0
C508 C 0.30316 0.68282 0.92922 0.0
C509 C 0.27715 0.68006 0.9488 0.0
C510 C 0.323 0.72961 0.91938 0.0
C511 C 0.27488 0.70263 0.95226 0.0
C512 C 0.34816 0.77848 0.93022 0.0
C513 C 0.38843 0.7838 0.84816 0.0
N514 N 0.29753 0.72641 0.93828 0.0
N515 N 0.36735 0.75967 0.86548 0.0
H516 H 0.58446 0.3605 0.11245 0.0
H517 H 0.64053 0.26046 0.07161 0.0
H518 H 0.65812 0.38012 1.00587 0.0
H519 H 0.59622 0.26253 0.22642 0.0
H520 H 0.6451 0.30215 0.04093 0.0
H521 H 0.58558 0.32209 0.14873 0.0
C522 C 0.6011 0.35683 0.09731 0.0
C523 C 0.62142 0.37362 0.05671 0.0
C524 C 0.63445 0.29339 0.08166 0.0
C525 C 0.62241 0.32924 0.09669 0.0
C526 C 0.63188 0.26958 0.09941 0.0
C527 C 0.61744 0.25738 0.15136 0.0
C528 C 0.62223 0.30502 0.11567 0.0
C529 C 0.60664 0.27041 0.18507 0.0
C530 C 0.60173 0.3349 0.11789 0.0
C531 C 0.64232 0.36781 0.03781 0.0
N532 N 0.60897 0.2932 0.16639 0.0
N533 N 0.6421 0.34592 0.05743 0.0
loop_
_geom_bond_atom_site_label_1
_geom_bond_atom_site_label_2
_geom_bond_distance
_geom_bond_site_symmetry_2
_ccdc_geom_bond_type
C0 C1 1.443 . S
C0 N4 1.376 . S
C0 C38 1.389 . S
C1 C0 1.443 . S
C1 C2 1.340 . S
C1 H41 0.951 . S
C2 C1 1.340 . S
C2 C3 1.439 . S
C2 H42 0.950 . S
C3 C2 1.439 . S
C3 N4 1.374 . S
C3 C37 1.395 . S
N4 C0 1.376 . S
N4 C3 1.374 . S
N4 Co5 2.008 . S
Co5 N4 2.008 . S
Co5 N6 1.995 . S
Co5 N11 2.008 . S
Co5 N16 1.995 . S
Co5 N21 2.282 . S
Co5 N27 2.282 . S
N6 Co5 1.995 . S
N6 C7 1.376 . S
N6 C10 1.383 . S
C7 N6 1.376 . S
C7 C8 1.446 . S
C7 C37 1.391 . S
C8 C7 1.446 . S
C8 C9 1.339 . S
C8 H43 0.949 . S
C9 C8 1.339 . S
C9 C10 1.439 . S
C9 H44 0.950 . S
C10 N6 1.383 . S
C10 C9 1.439 . S
C10 C39 1.392 . S
N11 Co5 2.008 . S
N11 C12 1.376 . S
N11 C15 1.374 . S
C12 N11 1.376 . S
C12 C13 1.443 1_554 S
C12 C39 1.389 . S
C13 C12 1.443 1_556 S
C13 C14 1.340 . S
C13 H45 0.951 . S
C14 C13 1.340 . S
C14 C15 1.439 1_556 S
C14 H46 0.950 . S
C15 N11 1.374 . S
C15 C14 1.439 1_554 S
C15 C40 1.395 . S
N16 Co5 1.995 . S
N16 C17 1.376 . S
N16 C20 1.383 . S
C17 N16 1.376 . S
C17 C18 1.446 . S
C17 C40 1.391 . S
C18 C17 1.446 . S
C18 C19 1.339 . S
C18 H47 0.949 . S
C19 C18 1.339 . S
C19 C20 1.439 . S
C19 H48 0.950 . S
C20 N16 1.383 . S
C20 C19 1.439 . S
C20 C38 1.392 . S
N21 Co5 2.282 . S
N21 C24 1.332 . S
N21 C26 1.332 . S
C22 C23 1.386 . S
C22 C25 1.388 . S
C23 C22 1.386 . S
C23 C24 1.382 . S
C23 H49 0.950 . S
C24 N21 1.332 . S
C24 C23 1.382 . S
C24 H35 0.952 . S
C25 C22 1.388 . S
C25 C26 1.382 . S
C25 H50 0.950 . S
C26 N21 1.332 . S
C26 C25 1.382 . S
C26 H36 0.948 . S
N27 Co5 2.282 . S
N27 C31 1.332 . S
N27 C32 1.332 . S
C28 C29 1.388 . S
C28 C32 1.382 1_556 S
C28 H51 0.950 . S
C29 C28 1.388 . S
C29 C30 1.386 1_556 S
C30 C29 1.386 1_554 S
C30 C31 1.382 . S
C30 H52 0.950 . S
C31 N27 1.332 . S
C31 C30 1.382 . S
C31 H33 0.952 . S
C32 N27 1.332 . S
C32 C28 1.382 1_554 S
C32 H34 0.948 . S
H33 C31 0.952 . S
H34 C32 0.948 . S
H35 C24 0.952 . S
H36 C26 0.948 . S
C37 C3 1.395 . S
C37 C7 1.391 . S
C38 C0 1.389 . S
C38 C20 1.392 . S
C39 C10 1.392 . S
C39 C12 1.389 . S
C40 C15 1.395 . S
C40 C17 1.391 . S
H41 C1 0.951 . S
H42 C2 0.950 . S
H43 C8 0.949 . S
H44 C9 0.950 . S
H45 C13 0.951 . S
H46 C14 0.950 . S
H47 C18 0.949 . S
H48 C19 0.950 . S
H49 C23 0.950 . S
H50 C25 0.950 . S
H51 C28 0.950 . S
H52 C30 0.950 . S
C53 C54 1.443 . S
C53 N57 1.376 . S
C53 C91 1.389 . S
C54 C53 1.443 . S
C54 C55 1.340 . S
C54 H94 0.951 . S
C55 C54 1.340 . S
C55 C56 1.439 . S
C55 H95 0.950 . S
C56 C55 1.439 . S
C56 N57 1.374 . S
C56 C90 1.395 . S
N57 C53 1.376 . S
N57 C56 1.374 . S
N57 Co58 2.008 . S
Co58 N57 2.008 . S
Co58 N59 1.995 . S
Co58 N64 2.008 . S
Co58 N69 1.995 . S
Co58 N74 2.282 . S
Co58 N80 2.282 . S
N59 Co58 1.995 . S
N59 C60 1.376 . S
N59 C63 1.383 . S
C60 N59 1.376 . S
C60 C61 1.446 . S
C60 C90 1.391 . S
C61 C60 1.446 . S
C61 C62 1.339 . S
C61 H96 0.949 . S
C62 C61 1.339 . S
C62 C63 1.439 . S
C62 H97 0.950 . S
C63 N59 1.383 . S
C63 C62 1.439 . S
C63 C92 1.392 . S
N64 Co58 2.008 . S
N64 C65 1.376 . S
N64 C68 1.374 . S
C65 N64 1.376 . S
C65 C66 1.443 . S
C65 C92 1.389 . S
C66 C65 1.443 . S
C66 C67 1.340 . S
C66 H98 0.951 . S
C67 C66 1.340 . S
C67 C68 1.439 . S
C67 H99 0.950 . S
C68 N64 1.374 . S
C68 C67 1.439 . S
C68 C93 1.395 . S
N69 Co58 1.995 . S
N69 C70 1.376 . S
N69 C73 1.383 . S
C70 N69 1.376 . S
C70 C71 1.446 . S
C70 C93 1.391 . S
C71 C70 1.446 . S
C71 C72 1.339 . S
C71 H100 0.949 . S
C72 C71 1.339 . S
C72 C73 1.439 . S
C72 H101 0.950 . S
C73 N69 1.383 . S
C73 C72 1.439 . S
C73 C91 1.392 . S
N74 Co58 2.282 . S
N74 C77 1.332 . S
N74 C79 1.332 . S
C75 C76 1.386 . S
C75 C78 1.388 . S
C76 C75 1.386 . S
C76 C77 1.382 . S
C76 H102 0.950 . S
C77 N74 1.332 . S
C77 C76 1.382 . S
C77 H88 0.952 . S
C78 C75 1.388 . S
C78 C79 1.382 . S
C78 H103 0.950 . S
C79 N74 1.332 . S
C79 C78 1.382 . S
C79 H89 0.948 . S
N80 Co58 2.282 . S
N80 C84 1.332 . S
N80 C85 1.332 . S
C81 C82 1.388 . S
C81 C85 1.382 . S
C81 H104 0.950 . S
C82 C81 1.388 . S
C82 C83 1.386 . S
C83 C82 1.386 . S
C83 C84 1.382 . S
C83 H105 0.950 . S
C84 N80 1.332 . S
C84 C83 1.382 . S
C84 H86 0.952 . S
C85 N80 1.332 . S
C85 C81 1.382 . S
C85 H87 0.948 . S
H86 C84 0.952 . S
H87 C85 0.948 . S
H88 C77 0.952 . S
H89 C79 0.948 . S
C90 C56 1.395 . S
C90 C60 1.391 . S
C91 C53 1.389 . S
C91 C73 1.392 . S
C92 C63 1.392 . S
C92 C65 1.389 . S
C93 C68 1.395 . S
C93 C70 1.391 . S
H94 C54 0.951 . S
H95 C55 0.950 . S
H96 C61 0.949 . S
H97 C62 0.950 . S
H98 C66 0.951 . S
H99 C67 0.950 . S
H100 C71 0.949 . S
H101 C72 0.950 . S
H102 C76 0.950 . S
H103 C78 0.950 . S
H104 C81 0.950 . S
H105 C83 0.950 . S
C106 C107 1.443 . S
C106 N110 1.376 . S
C106 C144 1.389 . S
C107 C106 1.443 . S
C107 C108 1.340 . S
C107 H147 0.951 . S
C108 C107 1.340 . S
C108 C109 1.439 . S
C108 H148 0.950 . S
C109 C108 1.439 . S
C109 N110 1.374 . S
C109 C143 1.395 . S
N110 C106 1.376 . S
N110 C109 1.374 . S
N110 Co111 2.008 . S
Co111 N110 2.008 . S
Co111 N112 1.995 . S
Co111 N117 2.008 . S
Co111 N122 1.995 . S
Co111 N127 2.282 . S
Co111 N133 2.282 . S
N112 Co111 1.995 . S
N112 C113 1.376 . S
N112 C116 1.383 . S
C113 N112 1.376 . S
C113 C114 1.446 . S
C113 C143 1.391 . S
C114 C113 1.446 . S
C114 C115 1.339 . S
C114 H149 0.949 . S
C115 C114 1.339 . S
C115 C116 1.439 . S
C115 H150 0.950 . S
C116 N112 1.383 . S
C116 C115 1.439 . S
C116 C145 1.392 . S
N117 Co111 2.008 . S
N117 C118 1.376 . S
N117 C121 1.374 . S
C118 N117 1.376 . S
C118 C119 1.443 . S
C118 C145 1.389 . S
C119 C118 1.443 . S
C119 C120 1.340 . S
C119 H151 0.951 . S
C120 C119 1.340 . S
C120 C121 1.439 . S
C120 H152 0.950 . S
C121 N117 1.374 . S
C121 C120 1.439 . S
C121 C146 1.395 . S
N122 Co111 1.995 . S
N122 C123 1.376 . S
N122 C126 1.383 . S
C123 N122 1.376 . S
C123 C124 1.446 . S
C123 C146 1.391 . S
C124 C123 1.446 . S
C124 C125 1.339 . S
C124 H153 0.949 . S
C125 C124 1.339 . S
C125 C126 1.439 . S
C125 H154 0.950 . S
C126 N122 1.383 . S
C126 C125 1.439 . S
C126 C144 1.392 . S
N127 Co111 2.282 . S
N127 C130 1.332 . S
N127 C132 1.332 . S
C128 C129 1.386 . S
C128 C131 1.388 . S
C129 C128 1.386 . S
C129 C130 1.382 . S
C129 H155 0.950 . S
C130 N127 1.332 . S
C130 C129 1.382 . S
C130 H141 0.952 . S
C131 C128 1.388 . S
C131 C132 1.382 . S
C131 H156 0.950 . S
C132 N127 1.332 . S
C132 C131 1.382 . S
C132 H142 0.948 . S
N133 Co111 2.282 . S
N133 C137 1.332 . S
N133 C138 1.332 . S
C134 C135 1.388 . S
C134 C138 1.382 . S
C134 H157 0.950 . S
C135 C134 1.388 . S
C135 C136 1.386 . S
C136 C135 1.386 . S
C136 C137 1.382 . S
C136 H158 0.950 . S
C137 N133 1.332 . S
C137 C136 1.382 . S
C137 H139 0.952 . S
C138 N133 1.332 . S
C138 C134 1.382 . S
C138 H140 0.948 . S
H139 C137 0.952 . S
H140 C138 0.948 . S
H141 C130 0.952 . S
H142 C132 0.948 . S
C143 C109 1.395 . S
C143 C113 1.391 . S
C144 C106 1.389 . S
C144 C126 1.392 . S
C145 C116 1.392 . S
C145 C118 1.389 . S
C146 C121 1.395 . S
C146 C123 1.391 . S
H147 C107 0.951 . S
H148 C108 0.950 . S
H149 C114 0.949 . S
H150 C115 0.950 . S
H151 C119 0.951 . S
H152 C120 0.950 . S
H153 C124 0.949 . S
H154 C125 0.950 . S
H155 C129 0.950 . S
H156 C131 0.950 . S
H157 C134 0.950 . S
H158 C136 0.950 . S
C159 C160 1.443 . S
C159 N163 1.376 . S
C159 C197 1.389 . S
C160 C159 1.443 . S
C160 C161 1.340 . S
C160 H200 0.951 . S
C161 C160 1.340 . S
C161 C162 1.439 . S
C161 H201 0.950 . S
C162 C161 1.439 . S
C162 N163 1.374 . S
C162 C196 1.395 . S
N163 C159 1.376 . S
N163 C162 1.374 . S
N163 Co164 2.008 . S
Co164 N163 2.008 . S
Co164 N165 1.995 . S
Co164 N170 2.008 . S
Co164 N175 1.995 . S
Co164 N180 2.282 . S
Co164 N186 2.282 . S
N165 Co164 1.995 . S
N165 C166 1.376 . S
N165 C169 1.383 . S
C166 N165 1.376 . S
C166 C167 1.446 . S
C166 C196 1.391 . S
C167 C166 1.446 . S
C167 C168 1.339 . S
C167 H202 0.949 . S
C168 C167 1.339 . S
C168 C169 1.439 . S
C168 H203 0.950 . S
C169 N165 1.383 . S
C169 C168 1.439 . S
C169 C198 1.392 . S
N170 Co164 2.008 . S
N170 C171 1.376 . S
N170 C174 1.374 . S
C171 N170 1.376 . S
C171 C172 1.443 . S
C171 C198 1.389 . S
C172 C171 1.443 . S
C172 C173 1.340 . S
C172 H204 0.951 . S
C173 C172 1.340 . S
C173 C174 1.439 . S
C173 H205 0.950 . S
C174 N170 1.374 . S
C174 C173 1.439 . S
C174 C199 1.395 . S
N175 Co164 1.995 . S
N175 C176 1.376 . S
N175 C179 1.383 . S
C176 N175 1.376 . S
C176 C177 1.446 . S
C176 C199 1.391 . S
C177 C176 1.446 . S
C177 C178 1.339 . S
C177 H206 0.949 . S
C178 C177 1.339 . S
C178 C179 1.439 . S
C178 H207 0.950 . S
C179 N175 1.383 . S
C179 C178 1.439 . S
C179 C197 1.392 . S
N180 Co164 2.282 . S
N180 C183 1.332 . S
N180 C185 1.332 . S
C181 C182 1.386 . S
C181 C184 1.388 . S
C182 C181 1.386 . S
C182 C183 1.382 . S
C182 H208 0.950 . S
C183 N180 1.332 . S
C183 C182 1.382 . S
C183 H194 0.952 . S
C184 C181 1.388 . S
C184 C185 1.382 . S
C184 H209 0.950 . S
C185 N180 1.332 . S
C185 C184 1.382 . S
C185 H195 0.948 . S
N186 Co164 2.282 . S
N186 C190 1.332 . S
N186 C191 1.332 . S
C187 C188 1.388 . S
C187 C191 1.382 . S
C187 H210 0.950 . S
C188 C187 1.388 . S
C188 C189 1.386 . S
C189 C188 1.386 . S
C189 C190 1.382 . S
C189 H211 0.950 . S
C190 N186 1.332 . S
C190 C189 1.382 . S
C190 H192 0.952 . S
C191 N186 1.332 . S
C191 C187 1.382 . S
C191 H193 0.948 . S
H192 C190 0.952 . S
H193 C191 0.948 . S
H194 C183 0.952 . S
H195 C185 0.948 . S
C196 C162 1.395 . S
C196 C166 1.391 . S
C197 C159 1.389 . S
C197 C179 1.392 . S
C198 C169 1.392 . S
C198 C171 1.389 . S
C199 C174 1.395 . S
C199 C176 1.391 . S
H200 C160 0.951 . S
H201 C161 0.950 . S
H202 C167 0.949 . S
H203 C168 0.950 . S
H204 C172 0.951 . S
H205 C173 0.950 . S
H206 C177 0.949 . S
H207 C178 0.950 . S
H208 C182 0.950 . S
H209 C184 0.950 . S
H210 C187 0.950 . S
H211 C189 0.950 . S
C212 C213 1.443 . S
C212 N216 1.376 . S
C212 C250 1.389 . S
C213 C212 1.443 . S
C213 C214 1.340 . S
C213 H253 0.951 . S
C214 C213 1.340 . S
C214 C215 1.439 . S
C214 H254 0.950 . S
C215 C214 1.439 . S
C215 N216 1.374 . S
C215 C249 1.395 . S
N216 C212 1.376 . S
N216 C215 1.374 . S
N216 Co217 2.008 . S
Co217 N216 2.008 . S
Co217 N218 1.995 . S
Co217 N223 2.008 . S
Co217 N228 1.995 . S
Co217 N233 2.282 . S
Co217 N239 2.282 . S
N218 Co217 1.995 . S
N218 C219 1.376 . S
N218 C222 1.383 . S
C219 N218 1.376 . S
C219 C220 1.446 . S
C219 C249 1.391 . S
C220 C219 1.446 . S
C220 C221 1.339 . S
C220 H255 0.949 . S
C221 C220 1.339 . S
C221 C222 1.439 . S
C221 H256 0.950 . S
C222 N218 1.383 . S
C222 C221 1.439 . S
C222 C251 1.392 . S
N223 Co217 2.008 . S
N223 C224 1.376 . S
N223 C227 1.374 . S
C224 N223 1.376 . S
C224 C225 1.443 . S
C224 C251 1.389 . S
C225 C224 1.443 . S
C225 C226 1.340 . S
C225 H257 0.951 . S
C226 C225 1.340 . S
C226 C227 1.439 . S
C226 H258 0.950 . S
C227 N223 1.374 . S
C227 C226 1.439 . S
C227 C252 1.395 . S
N228 Co217 1.995 . S
N228 C229 1.376 . S
N228 C232 1.383 . S
C229 N228 1.376 . S
C229 C230 1.446 . S
C229 C252 1.391 . S
C230 C229 1.446 . S
C230 C231 1.339 . S
C230 H259 0.949 . S
C231 C230 1.339 . S
C231 C232 1.439 . S
C231 H260 0.950 . S
C232 N228 1.383 . S
C232 C231 1.439 . S
C232 C250 1.392 . S
N233 Co217 2.282 . S
N233 C236 1.332 . S
N233 C238 1.332 . S
C234 C235 1.386 . S
C234 C237 1.388 . S
C235 C234 1.386 . S
C235 C236 1.382 . S
C235 H261 0.950 . S
C236 N233 1.332 . S
C236 C235 1.382 . S
C236 H247 0.952 . S
C237 C234 1.388 . S
C237 C238 1.382 . S
C237 H262 0.950 . S
C238 N233 1.332 . S
C238 C237 1.382 . S
C238 H248 0.948 . S
N239 Co217 2.282 . S
N239 C243 1.332 . S
N239 C244 1.332 . S
C240 C241 1.388 . S
C240 C244 1.382 . S
C240 H263 0.950 . S
C241 C240 1.388 . S
C241 C242 1.386 . S
C242 C241 1.386 . S
C242 C243 1.382 . S
C242 H264 0.950 . S
C243 N239 1.332 . S
C243 C242 1.382 . S
C243 H245 0.952 . S
C244 N239 1.332 . S
C244 C240 1.382 . S
C244 H246 0.948 . S
H245 C243 0.952 . S
H246 C244 0.948 . S
H247 C236 0.952 . S
H248 C238 0.948 . S
C249 C215 1.395 . S
C249 C219 1.391 . S
C250 C212 1.389 . S
C250 C232 1.392 . S
C251 C222 1.392 . S
C251 C224 1.389 . S
C252 C227 1.395 . S
C252 C229 1.391 . S
H253 C213 0.951 . S
H254 C214 0.950 . S
H255 C220 0.949 . S
H256 C221 0.950 . S
H257 C225 0.951 . S
H258 C226 0.950 . S
H259 C230 0.949 . S
H260 C231 0.950 . S
H261 C235 0.950 . S
H262 C237 0.950 . S
H263 C240 0.950 . S
H264 C242 0.950 . S
C265 C266 1.443 . S
C265 N269 1.376 . S
C265 C303 1.389 . S
C266 C265 1.443 . S
C266 C267 1.340 . S
C266 H306 0.951 . S
C267 C266 1.340 . S
C267 C268 1.439 . S
C267 H307 0.950 . S
C268 C267 1.439 . S
C268 N269 1.374 . S
C268 C302 1.395 . S
N269 C265 1.376 . S
N269 C268 1.374 . S
N269 Co270 2.008 . S
Co270 N269 2.008 . S
Co270 N271 1.995 . S
Co270 N276 2.008 . S
Co270 N281 1.995 . S
Co270 N286 2.282 . S
Co270 N292 2.282 . S
N271 Co270 1.995 . S
N271 C272 1.376 . S
N271 C275 1.383 . S
C272 N271 1.376 . S
C272 C273 1.446 . S
C272 C302 1.391 . S
C273 C272 1.446 . S
C273 C274 1.339 . S
C273 H308 0.949 . S
C274 C273 1.339 . S
C274 C275 1.439 . S
C274 H309 0.950 . S
C275 N271 1.383 . S
C275 C274 1.439 . S
C275 C304 1.392 . S
N276 Co270 2.008 . S
N276 C277 1.376 . S
N276 C280 1.374 . S
C277 N276 1.376 . S
C277 C278 1.443 . S
C277 C304 1.389 . S
C278 C277 1.443 . S
C278 C279 1.340 . S
C278 H310 0.951 1_556 S
C279 C278 1.340 . S
C279 C280 1.439 . S
C279 H311 0.950 . S
C280 N276 1.374 . S
C280 C279 1.439 . S
C280 C305 1.395 . S
N281 Co270 1.995 . S
N281 C282 1.376 . S
N281 C285 1.383 . S
C282 N281 1.376 . S
C282 C283 1.446 . S
C282 C305 1.391 . S
C283 C282 1.446 . S
C283 C284 1.339 . S
C283 H312 0.949 . S
C284 C283 1.339 . S
C284 C285 1.439 . S
C284 H313 0.950 . S
C285 N281 1.383 . S
C285 C284 1.439 . S
C285 C303 1.392 . S
N286 Co270 2.282 . S
N286 C289 1.332 . S
N286 C291 1.332 . S
C287 C288 1.386 . S
C287 C290 1.388 . S
C288 C287 1.386 . S
C288 C289 1.382 . S
C288 H314 0.950 . S
C289 N286 1.332 . S
C289 C288 1.382 . S
C289 H300 0.952 . S
C290 C287 1.388 . S
C290 C291 1.382 . S
C290 H315 0.950 . S
C291 N286 1.332 . S
C291 C290 1.382 . S
C291 H301 0.948 . S
N292 Co270 2.282 . S
N292 C296 1.332 . S
N292 C297 1.332 . S
C293 C294 1.388 . S
C293 C297 1.382 . S
C293 H316 0.950 1_556 S
C294 C293 1.388 . S
C294 C295 1.386 . S
C295 C294 1.386 . S
C295 C296 1.382 . S
C295 H317 0.950 . S
C296 N292 1.332 . S
C296 C295 1.382 . S
C296 H298 0.952 . S
C297 N292 1.332 . S
C297 C293 1.382 . S
C297 H299 0.948 . S
H298 C296 0.952 . S
H299 C297 0.948 . S
H300 C289 0.952 . S
H301 C291 0.948 . S
C302 C268 1.395 . S
C302 C272 1.391 . S
C303 C265 1.389 . S
C303 C285 1.392 . S
C304 C275 1.392 . S
C304 C277 1.389 . S
C305 C280 1.395 . S
C305 C282 1.391 . S
H306 C266 0.951 . S
H307 C267 0.950 . S
H308 C273 0.949 . S
H309 C274 0.950 . S
H310 C278 0.951 1_554 S
H311 C279 0.950 . S
H312 C283 0.949 . S
H313 C284 0.950 . S
H314 C288 0.950 . S
H315 C290 0.950 . S
H316 C293 0.950 1_554 S
H317 C295 0.950 . S
H318 C324 0.930 . S
H319 C328 0.930 . S
H320 C333 0.929 . S
H321 C331 0.929 . S
H322 C326 0.929 . S
H323 C332 0.929 . S
C324 H318 0.930 . S
C324 C325 1.367 . S
C324 C332 1.378 . S
C325 C324 1.367 . S
C325 C333 1.433 . S
C326 H322 0.929 . S
C326 C328 1.378 . S
C326 C330 1.345 1_655 S
C327 C330 1.483 . S
C327 C332 1.350 . S
C327 N335 1.427 . S
C328 H319 0.930 . S
C328 C326 1.378 . S
C328 C329 1.367 . S
C329 C328 1.367 . S
C329 C331 1.433 . S
C330 C326 1.345 1_455 S
C330 C327 1.483 . S
C330 N334 1.412 1_455 S
C331 H321 0.929 . S
C331 C329 1.433 . S
C331 N334 1.384 . S
C332 H323 0.929 . S
C332 C324 1.378 . S
C332 C327 1.350 . S
C333 H320 0.929 . S
C333 C325 1.433 . S
C333 N335 1.384 . S
N334 C330 1.412 1_655 S
N334 C331 1.384 . S
N335 C327 1.427 . S
N335 C333 1.384 . S
H336 C342 0.930 1_554 S
H337 C346 0.930 . S
H338 C351 0.929 . S
H339 C349 0.929 . S
H340 C344 0.929 . S
H341 C350 0.929 . S
C342 H336 0.930 1_556 S
C342 C343 1.367 . S
C342 C350 1.378 1_556 S
C343 C342 1.367 . S
C343 C351 1.433 . S
C344 H340 0.929 . S
C344 C346 1.378 . S
C344 C348 1.350 . S
C345 C348 1.473 . S
C345 C350 1.340 1_545 S
C345 N353 1.428 1_554 S
C346 H337 0.930 . S
C346 C344 1.378 . S
C346 C347 1.367 . S
C347 C346 1.367 . S
C347 C349 1.433 . S
C348 C344 1.350 . S
C348 C345 1.473 . S
C348 N352 1.427 . S
C349 H339 0.929 . S
C349 C347 1.433 . S
C349 N352 1.384 . S
C350 H341 0.929 . S
C350 C342 1.378 1_554 S
C350 C345 1.340 1_565 S
C351 H338 0.929 . S
C351 C343 1.433 . S
C351 N353 1.384 1_565 S
N352 C348 1.427 . S
N352 C349 1.384 . S
N353 C345 1.428 1_556 S
N353 C351 1.384 1_545 S
H354 C360 0.930 . S
H355 C364 0.930 . S
H356 C369 0.929 . S
H357 C367 0.929 . S
H358 C362 0.929 . S
H359 C368 0.929 . S
C360 H354 0.930 . S
C360 C361 1.367 . S
C360 C368 1.378 . S
C361 C360 1.367 . S
C361 C369 1.433 . S
C362 H358 0.929 . S
C362 C364 1.378 . S
C362 C366 1.350 . S
C363 C366 1.463 . S
C363 C368 1.350 . S
C363 N371 1.427 . S
C364 H355 0.930 . S
C364 C362 1.378 . S
C364 C365 1.367 . S
C365 C364 1.367 . S
C365 C367 1.433 1_554 S
C366 C362 1.350 . S
C366 C363 1.463 . S
C366 N370 1.427 . S
C367 H357 0.929 . S
C367 C365 1.433 1_556 S
C367 N370 1.384 1_556 S
C368 H359 0.929 . S
C368 C360 1.378 . S
C368 C363 1.350 . S
C369 H356 0.929 . S
C369 C361 1.433 . S
C369 N371 1.384 . S
N370 C366 1.427 . S
N370 C367 1.384 1_554 S
N371 C363 1.427 . S
N371 C369 1.384 . S
H372 C378 0.930 . S
H373 C382 0.930 . S
H374 C387 0.929 . S
H375 C385 0.929 . S
H376 C380 0.929 . S
H377 C386 0.929 . S
C378 H372 0.930 . S
C378 C379 1.367 . S
C378 C386 1.378 . S
C379 C378 1.367 . S
C379 C387 1.433 . S
C380 H376 0.929 . S
C380 C382 1.378 . S
C380 C384 1.338 1_455 S
C381 C384 1.473 . S
C381 C386 1.350 . S
C381 N389 1.427 . S
C382 H373 0.930 . S
C382 C380 1.378 . S
C382 C383 1.367 . S
C383 C382 1.367 . S
C383 C385 1.433 . S
C384 C380 1.338 1_655 S
C384 C381 1.473 . S
C384 N388 1.430 . S
C385 H375 0.929 . S
C385 C383 1.433 . S
C385 N388 1.384 1_455 S
C386 H377 0.929 . S
C386 C378 1.378 . S
C386 C381 1.350 . S
C387 H374 0.929 . S
C387 C379 1.433 . S
C387 N389 1.384 . S
N388 C384 1.430 . S
N388 C385 1.384 1_655 S
N389 C381 1.427 . S
N389 C387 1.384 . S
H390 C396 0.930 . S
H391 C400 0.930 . S
H392 C405 0.929 . S
H393 C403 0.929 . S
H394 C398 0.929 . S
H395 C404 0.929 . S
C396 H390 0.930 . S
C396 C397 1.367 . S
C396 C404 1.378 . S
C397 C396 1.367 . S
C397 C405 1.433 . S
C398 H394 0.929 . S
C398 C400 1.378 . S
C398 C402 1.350 . S
C399 C402 1.476 . S
C399 C404 1.331 1_565 S
C399 N407 1.435 . S
C400 H391 0.930 . S
C400 C398 1.378 . S
C400 C401 1.367 . S
C401 C400 1.367 . S
C401 C403 1.433 . S
C402 C398 1.350 . S
C402 C399 1.476 . S
C402 N406 1.427 . S
C403 H393 0.929 . S
C403 C401 1.433 . S
C403 N406 1.384 . S
C404 H395 0.929 . S
C404 C396 1.378 . S
C404 C399 1.331 1_545 S
C405 H392 0.929 . S
C405 C397 1.433 . S
C405 N407 1.384 1_545 S
N406 C402 1.427 . S
N406 C403 1.384 . S
N407 C399 1.435 . S
N407 C405 1.384 1_565 S
H408 C414 0.930 . S
H409 C418 0.930 . S
H410 C423 0.929 . S
H411 C421 0.929 . S
H412 C416 0.929 . S
H413 C422 0.929 . S
C414 H408 0.930 . S
C414 C415 1.367 . S
C414 C422 1.378 . S
C415 C414 1.367 . S
C415 C423 1.433 . S
C416 H412 0.929 . S
C416 C418 1.378 . S
C416 C420 1.350 . S
C417 C420 1.463 . S
C417 C422 1.350 . S
C417 N425 1.427 . S
C418 H409 0.930 . S
C418 C416 1.378 . S
C418 C419 1.367 . S
C419 C418 1.367 . S
C419 C421 1.433 . S
C420 C416 1.350 . S
C420 C417 1.463 . S
C420 N424 1.427 . S
C421 H411 0.929 . S
C421 C419 1.433 . S
C421 N424 1.384 . S
C422 H413 0.929 . S
C422 C414 1.378 . S
C422 C417 1.350 . S
C423 H410 0.929 . S
C423 C415 1.433 . S
C423 N425 1.384 . S
N424 C420 1.427 . S
N424 C421 1.384 . S
N425 C417 1.427 . S
N425 C423 1.384 . S
H426 C432 0.930 . S
H427 C436 0.930 . S
H428 C441 0.929 . S
H429 C439 0.929 . S
H430 C434 0.929 . S
H431 C440 0.929 . S
C432 H426 0.930 . S
C432 C433 1.367 . S
C432 C440 1.378 . S
C433 C432 1.367 . S
C433 C441 1.433 . S
C434 H430 0.929 . S
C434 C436 1.378 . S
C434 C438 1.350 . S
C435 C438 1.463 . S
C435 C440 1.350 . S
C435 N443 1.427 . S
C436 H427 0.930 . S
C436 C434 1.378 . S
C436 C437 1.367 . S
C437 C436 1.367 . S
C437 C439 1.433 . S
C438 C434 1.350 . S
C438 C435 1.463 . S
C438 N442 1.427 . S
C439 H429 0.929 . S
C439 C437 1.433 . S
C439 N442 1.384 . S
C440 H431 0.929 . S
C440 C432 1.378 . S
C440 C435 1.350 . S
C441 H428 0.929 . S
C441 C433 1.433 . S
C441 N443 1.384 . S
N442 C438 1.427 . S
N442 C439 1.384 . S
N443 C435 1.427 . S
N443 C441 1.384 . S
H444 C450 0.930 . S
H445 C454 0.930 . S
H446 C459 0.929 . S
H447 C457 0.929 . S
H448 C452 0.929 . S
H449 C458 0.929 . S
C450 H444 0.930 . S
C450 C451 1.367 . S
C450 C458 1.378 . S
C451 C450 1.367 . S
C451 C459 1.433 . S
C452 H448 0.929 . S
C452 C454 1.378 . S
C452 C456 1.350 . S
C453 C456 1.463 . S
C453 C458 1.350 . S
C453 N461 1.427 . S
C454 H445 0.930 . S
C454 C452 1.378 . S
C454 C455 1.367 . S
C455 C454 1.367 . S
C455 C457 1.433 . S
C456 C452 1.350 . S
C456 C453 1.463 . S
C456 N460 1.427 . S
C457 H447 0.929 . S
C457 C455 1.433 . S
C457 N460 1.384 . S
C458 H449 0.929 . S
C458 C450 1.378 . S
C458 C453 1.350 . S
C459 H446 0.929 . S
C459 C451 1.433 . S
C459 N461 1.384 . S
N460 C456 1.427 . S
N460 C457 1.384 . S
N461 C453 1.427 . S
N461 C459 1.384 . S
H462 C468 0.930 . S
H463 C472 0.930 . S
H464 C477 0.929 . S
H465 C475 0.929 . S
H466 C470 0.929 . S
H467 C476 0.929 . S
C468 H462 0.930 . S
C468 C469 1.367 . S
C468 C476 1.378 . S
C469 C468 1.367 . S
C469 C477 1.433 . S
C470 H466 0.929 . S
C470 C472 1.378 . S
C470 C474 1.350 . S
C471 C474 1.463 . S
C471 C476 1.350 . S
C471 N479 1.427 . S
C472 H463 0.930 . S
C472 C470 1.378 . S
C472 C473 1.367 . S
C473 C472 1.367 . S
C473 C475 1.433 . S
C474 C470 1.350 . S
C474 C471 1.463 . S
C474 N478 1.427 . S
C475 H465 0.929 . S
C475 C473 1.433 . S
C475 N478 1.384 . S
C476 H467 0.929 . S
C476 C468 1.378 . S
C476 C471 1.350 . S
C477 H464 0.929 . S
C477 C469 1.433 . S
C477 N479 1.384 . S
N478 C474 1.427 . S
N478 C475 1.384 . S
N479 C471 1.427 . S
N479 C477 1.384 . S
H480 C486 0.930 . S
H481 C490 0.930 . S
H482 C495 0.929 . S
H483 C493 0.929 . S
H484 C488 0.929 . S
H485 C494 0.929 . S
C486 H480 0.930 . S
C486 C487 1.367 . S
C486 C494 1.378 . S
C487 C486 1.367 . S
C487 C495 1.433 . S
C488 H484 0.929 . S
C488 C490 1.378 . S
C488 C492 1.350 . S
C489 C492 1.463 . S
C489 C494 1.350 . S
C489 N497 1.427 . S
C490 H481 0.930 . S
C490 C488 1.378 . S
C490 C491 1.367 . S
C491 C490 1.367 . S
C491 C493 1.433 . S
C492 C488 1.350 . S
C492 C489 1.463 . S
C492 N496 1.427 . S
C493 H483 0.929 . S
C493 C491 1.433 . S
C493 N496 1.384 . S
C494 H485 0.929 . S
C494 C486 1.378 . S
C494 C489 1.350 . S
C495 H482 0.929 . S
C495 C487 1.433 . S
C495 N497 1.384 . S
N496 C492 1.427 . S
N496 C493 1.384 . S
N497 C489 1.427 . S
N497 C495 1.384 . S
H498 C504 0.930 . S
H499 C508 0.930 . S
H500 C513 0.929 . S
H501 C511 0.929 1_554 S
H502 C506 0.929 . S
H503 C512 0.929 . S
C504 H498 0.930 . S
C504 C505 1.367 . S
C504 C512 1.378 . S
C505 C504 1.367 . S
C505 C513 1.433 . S
C506 H502 0.929 . S
C506 C508 1.378 . S
C506 C510 1.350 . S
C507 C510 1.463 . S
C507 C512 1.350 . S
C507 N515 1.427 . S
C508 H499 0.930 . S
C508 C506 1.378 . S
C508 C509 1.367 . S
C509 C508 1.367 . S
C509 C511 1.433 . S
C510 C506 1.350 . S
C510 C507 1.463 . S
C510 N514 1.427 . S
C511 H501 0.929 1_556 S
C511 C509 1.433 . S
C511 N514 1.384 . S
C512 H503 0.929 . S
C512 C504 1.378 . S
C512 C507 1.350 . S
C513 H500 0.929 . S
C513 C505 1.433 . S
C513 N515 1.384 . S
N514 C510 1.427 . S
N514 C511 1.384 . S
N515 C507 1.427 . S
N515 C513 1.384 . S
H516 C522 0.930 . S
H517 C526 0.930 . S
H518 C531 0.929 . S
H519 C529 0.929 . S
H520 C524 0.929 . S
H521 C530 0.929 . S
C522 H516 0.930 . S
C522 C523 1.367 . S
C522 C530 1.378 . S
C523 C522 1.367 . S
C523 C531 1.433 1_554 S
C524 H520 0.929 . S
C524 C526 1.378 . S
C524 C528 1.350 . S
C525 C528 1.463 . S
C525 C530 1.350 . S
C525 N533 1.427 . S
C526 H517 0.930 . S
C526 C524 1.378 . S
C526 C527 1.367 . S
C527 C526 1.367 . S
C527 C529 1.433 . S
C528 C524 1.350 . S
C528 C525 1.463 . S
C528 N532 1.427 . S
C529 H519 0.929 . S
C529 C527 1.433 . S
C529 N532 1.384 . S
C530 H521 0.929 . S
C530 C522 1.378 . S
C530 C525 1.350 . S
C531 H518 0.929 . S
C531 C523 1.433 1_556 S
C531 N533 1.384 1_556 S
N532 C528 1.427 . S
N532 C529 1.384 . S
N533 C525 1.427 . S
N533 C531 1.384 1_554 S
C325 C39 1.903 1_556 S
C329 C181 1.896 . S
C343 C234 1.829 . S
C347 C92 1.825 . S
C361 C128 1.864 . S
C365 C304 1.853 1_554 S
C379 C198 1.900 . S
C383 C22 1.897 . S
C397 C75 1.826 . S
C401 C251 1.827 . S
C415 C287 1.865 . S
C419 C145 1.853 . S
C433 C38 1.934 . S
C437 C144 1.933 . S
C451 C91 1.827 . S
C455 C188 1.809 . S
C469 C241 1.673 . S
C473 C135 1.676 . S
C487 C303 1.935 . S
C491 C197 1.928 . S
C505 C250 1.825 . S
C509 C29 1.817 . S
C523 C294 1.676 1_554 S
C527 C82 1.678 . S
