# Generated by pormake.
# Topology ukg, (4)-cn, num edge types: 1
# Building blocks:
#     Node 0, Type 0, BuildingBlock: NAWXER_clean_sbu_0, # of connection points: 4
#     Node 1, Type 0, BuildingBlock: NAWXER_clean_sbu_0, # of connection points: 4
#     Node 2, Type 0, BuildingBlock: NAWXER_clean_sbu_0, # of connection points: 4
#     Node 3, Type 0, BuildingBlock: NAWXER_clean_sbu_0, # of connection points: 4
#     Node 4, Type 0, BuildingBlock: NAWXER_clean_sbu_0, # of connection points: 4
#     Node 5, Type 0, BuildingBlock: NAWXER_clean_sbu_0, # of connection points: 4
#     Node 6, Type 0, BuildingBlock: NAWXER_clean_sbu_0, # of connection points: 4
#     Node 7, Type 0, BuildingBlock: NAWXER_clean_sbu_0, # of connection points: 4
#     Edge 8, Type (0, 0), BuildingBlock: AJUNOK_clean_linker_0, # of connection points: 2
#     Edge 9, Type (0, 0), BuildingBlock: AJUNOK_clean_linker_0, # of connection points: 2
#     Edge 10, Type (0, 0), BuildingBlock: AJUNOK_clean_linker_0, # of connection points: 2
#     Edge 11, Type (0, 0), BuildingBlock: AJUNOK_clean_linker_0, # of connection points: 2
#     Edge 12, Type (0, 0), BuildingBlock: AJUNOK_clean_linker_0, # of connection points: 2
#     Edge 13, Type (0, 0), BuildingBlock: AJUNOK_clean_linker_0, # of connection points: 2
#     Edge 14, Type (0, 0), BuildingBlock: AJUNOK_clean_linker_0, # of connection points: 2
#     Edge 15, Type (0, 0), BuildingBlock: AJUNOK_clean_linker_0, # of connection points: 2
#     Edge 16, Type (0, 0), BuildingBlock: AJUNOK_clean_linker_0, # of connection points: 2
#     Edge 17, Type (0, 0), BuildingBlock: AJUNOK_clean_linker_0, # of connection points: 2
#     Edge 18, Type (0, 0), BuildingBlock: AJUNOK_clean_linker_0, # of connection points: 2
#     Edge 19, Type (0, 0), BuildingBlock: AJUNOK_clean_linker_0, # of connection points: 2
#     Edge 20, Type (0, 0), BuildingBlock: AJUNOK_clean_linker_0, # of connection points: 2
#     Edge 21, Type (0, 0), BuildingBlock: AJUNOK_clean_linker_0, # of connection points: 2
#     Edge 22, Type (0, 0), BuildingBlock: AJUNOK_clean_linker_0, # of connection points: 2
#     Edge 23, Type (0, 0), BuildingBlock: AJUNOK_clean_linker_0, # of connection points: 2
# Relax obj value: 0.100
# Max RMSD: 0.242
# Mean RMSD: 0.242
data_MOF--net-ukg--node1-NAWXER_clean_sbu_0--edge1-AJUNOK_clean_linker_0
_symmetry_space_group_name_H-M    P1
_symmetry_Int_Tables_number       1
_symmetry_cell_setting            triclinic
loop_
_symmetry_equiv_pos_as_xyz
'x, y, z'
_cell_length_a     22.618027
_cell_length_b     22.605912
_cell_length_c     28.073763
_cell_angle_alpha  89.994498
_cell_angle_beta   89.952005
_cell_angle_gamma 90.030109
loop_
_atom_site_label
_atom_site_type_symbol
_atom_site_fract_x
_atom_site_fract_y
_atom_site_fract_z
_atom_type_partial_charge
C0 C 0.14372 0.68999 0.15151 0.0
C1 C 0.96892 0.59526 0.21635 0.0
O2 O 0.14068 0.6488 0.18207 0.0
Zn3 Zn 0.05648 0.63726 0.18019 0.0
O4 O 0.09698 0.70634 0.12935 0.0
Zn5 Zn 1.00499 0.68191 0.12939 0.0
O6 O 0.96996 0.75804 0.14118 0.0
O7 O 0.02102 0.72241 0.20187 0.0
O8 O 0.95655 0.62785 0.18021 0.0
O9 O 0.02254 0.58775 0.22836 0.0
O10 O 0.04108 0.58744 0.11651 0.0
O11 O 0.98994 0.64459 0.06857 0.0
C12 C 0.9887 0.76326 0.18369 0.0
C13 C 0.01489 0.59533 0.07656 0.0
C14 C 0.31421 0.64158 0.65134 0.0
C15 C 0.40746 0.46862 0.7205 0.0
O16 O 0.35407 0.63919 0.68301 0.0
Zn17 Zn 0.36566 0.55518 0.6824 0.0
O18 O 0.29885 0.59433 0.62924 0.0
Zn19 Zn 0.32469 0.50218 0.63097 0.0
O20 O 0.25005 0.46422 0.64086 0.0
O21 O 0.27875 0.52033 0.70114 0.0
O22 O 0.37721 0.45552 0.68329 0.0
O23 O 0.41288 0.5224 0.73282 0.0
O24 O 0.41889 0.53957 0.62002 0.0
O25 O 0.36413 0.4867 0.57144 0.0
C26 C 0.24042 0.48586 0.68192 0.0
C27 C 0.41271 0.51253 0.58018 0.0
C28 C 0.51818 0.74056 0.18602 0.0
C29 C 0.49667 0.9079 0.0784 0.0
O30 O 0.53697 0.74604 0.14358 0.0
Zn31 Zn 0.50367 0.82242 0.13225 0.0
O32 O 0.4871 0.78205 0.20481 0.0
Zn33 Zn 0.45344 0.8683 0.18253 0.0
O34 O 0.36898 0.85905 0.18438 0.0
O35 O 0.41103 0.80039 0.13164 0.0
O36 O 0.47038 0.91773 0.11815 0.0
O37 O 0.52016 0.85776 0.07147 0.0
O38 O 0.55325 0.87608 0.18268 0.0
O39 O 0.48771 0.91744 0.23065 0.0
C40 C 0.36464 0.81833 0.15354 0.0
C41 C 0.54122 0.90911 0.21866 0.0
C42 C 0.10211 0.9967 0.5738 0.0
C43 C 0.26506 0.01788 0.6858 0.0
O44 O 0.15249 0.02015 0.56777 0.0
Zn45 Zn 0.18588 1.00315 0.62936 0.0
O46 O 0.09114 0.9702 0.61323 0.0
Zn47 Zn 0.13791 0.95266 0.67839 0.0
O48 O 0.08694 0.98679 0.72523 0.0
O49 O 0.13032 0.05268 0.6787 0.0
O50 O 0.22287 0.98632 0.70299 0.0
O51 O 0.26198 0.0364 0.64312 0.0
O52 O 0.20734 0.9102 0.62882 0.0
O53 O 0.14662 0.86815 0.68005 0.0
C54 C 0.09584 0.04042 0.71375 0.0
C55 C 0.18827 0.86372 0.65003 0.0
C56 C 0.04121 0.40793 0.79468 0.0
C57 C 0.86313 0.31939 0.8593 0.0
O58 O 0.0528 0.37257 0.8292 0.0
Zn59 Zn 1.00221 0.3212 0.88044 0.0
O60 O 0.988 0.41971 0.78395 0.0
Zn61 Zn 0.95269 0.36898 0.83092 0.0
O62 O 0.97004 0.41695 0.89557 0.0
O63 O 0.01987 0.3561 0.94127 0.0
O64 O 0.86796 0.36083 0.82909 0.0
O65 O 0.90929 0.30043 0.88087 0.0
O66 O 0.03382 0.24448 0.86916 0.0
O67 O 0.98506 0.28187 0.80784 0.0
C68 C 0.99665 0.40646 0.93498 0.0
C69 C 0.01524 0.23964 0.82662 0.0
C70 C 0.76899 0.5196 0.33066 0.0
C71 C 0.6033 0.49696 0.43987 0.0
O72 O 0.72734 0.48836 0.31231 0.0
Zn73 Zn 0.64152 0.45438 0.33537 0.0
O74 O 0.76384 0.53905 0.37294 0.0
Zn75 Zn 0.68778 0.50531 0.38499 0.0
O76 O 0.71138 0.41298 0.38468 0.0
O77 O 0.65172 0.36994 0.3332 0.0
O78 O 0.65323 0.52109 0.44631 0.0
O79 O 0.59321 0.47061 0.40022 0.0
O80 O 0.59142 0.48837 0.28783 0.0
O81 O 0.63321 0.55452 0.33493 0.0
C82 C 0.6939 0.36642 0.36277 0.0
C83 C 0.59964 0.54205 0.2994 0.0
C84 C 0.51322 0.09871 0.93827 0.0
C85 C 0.48622 0.26905 0.83396 0.0
O86 O 0.53799 0.09114 0.89764 0.0
Zn87 Zn 0.55181 0.14192 0.83398 0.0
O88 O 0.48921 0.14815 0.94736 0.0
Zn89 Zn 0.50259 0.18603 0.88657 0.0
O90 O 0.45186 0.13277 0.83674 0.0
O91 O 0.5155 0.09342 0.78614 0.0
O92 O 0.46825 0.26271 0.87659 0.0
O93 O 0.51693 0.22802 0.81425 0.0
O94 O 0.63619 0.15265 0.83035 0.0
O95 O 0.59484 0.20937 0.88488 0.0
C96 C 0.46251 0.10032 0.80016 0.0
C97 C 0.64067 0.19312 0.86142 0.0
C98 C 0.91284 0.01544 0.43293 0.0
C99 C 0.74163 0.99022 0.32984 0.0
O100 O 0.92065 0.04008 0.39227 0.0
Zn101 Zn 0.86936 0.0546 0.32883 0.0
O102 O 0.86307 0.99222 0.44223 0.0
Zn103 Zn 0.82508 1.00634 0.38191 0.0
O104 O 0.87711 0.95477 0.33196 0.0
O105 O 0.91683 0.01734 0.28061 0.0
O106 O 0.7481 0.97284 0.37258 0.0
O107 O 0.7827 0.02051 0.3097 0.0
O108 O 0.86004 0.13922 0.32546 0.0
O109 O 0.80382 0.09898 0.38086 0.0
C110 C 0.90927 0.96459 0.29507 0.0
C111 C 0.82082 0.14461 0.35748 0.0
C112 C 0.97731 0.50983 0.96365 0.0
C113 C 1.00169 0.45344 0.97195 0.0
C114 C 0.98227 0.55538 0.99736 0.0
C115 C 0.01189 0.54665 0.04089 0.0
H116 H 0.95415 0.51914 0.93074 0.0
H117 H 0.96246 0.59778 0.98912 0.0
S118 S 0.08391 0.40719 0.0803 0.0
N119 N 0.05682 0.39152 0.02724 0.0
N120 N 0.06619 0.47686 0.09038 0.0
C121 C 0.03666 0.49047 0.04967 0.0
C122 C 0.03153 0.44403 0.01534 0.0
C123 C 0.45413 0.48064 0.50134 0.0
C124 C 0.46217 0.5098 0.5452 0.0
C125 C 0.50004 0.47632 0.46793 0.0
C126 C 0.55617 0.50091 0.47681 0.0
H127 H 0.41191 0.46084 0.49254 0.0
H128 H 0.49114 0.45362 0.43472 0.0
S129 S 0.60092 0.58143 0.58646 0.0
N130 N 0.53118 0.56339 0.59585 0.0
N131 N 0.6173 0.55528 0.53319 0.0
C132 C 0.56502 0.53006 0.52063 0.0
C133 C 0.51815 0.53452 0.5547 0.0
C134 C 0.47825 0.01209 0.05127 0.0
C135 C 0.50113 0.95536 0.04176 0.0
C136 C 0.48287 0.05809 0.01791 0.0
C137 C 0.51059 0.04948 0.9735 0.0
H138 H 0.45664 0.02134 0.0849 0.0
H139 H 0.46432 0.10075 0.02711 0.0
S140 S 0.57764 0.90911 0.93061 0.0
N141 N 0.55246 0.89317 0.98427 0.0
N142 N 0.56115 0.97934 0.92177 0.0
C143 C 0.53371 0.99293 0.96346 0.0
C144 C 0.52896 0.94604 0.99746 0.0
C145 C 0.95295 0.98359 0.51213 0.0
C146 C 0.96194 0.01213 0.46813 0.0
C147 C 0.99858 0.97843 0.54562 0.0
C148 C 0.05535 1.00158 0.53672 0.0
H149 H 0.91025 0.96483 0.52094 0.0
H150 H 0.98896 0.95621 0.57893 0.0
S151 S 0.10255 0.08022 0.42681 0.0
N152 N 0.03246 0.06375 0.41736 0.0
N153 N 0.11805 0.05407 0.48024 0.0
C154 C 0.06512 0.03019 0.49281 0.0
C155 C 0.01854 0.03547 0.45861 0.0
C156 C 0.25362 0.69372 0.14365 0.0
C157 C 0.19919 0.72349 0.14585 0.0
C158 C 0.30711 0.72519 0.14334 0.0
C159 C 0.30784 0.78729 0.14691 0.0
H160 H 0.25485 0.64582 0.14289 0.0
H161 H 0.34819 0.70055 0.14266 0.0
S162 S 0.1771 0.88579 0.15282 0.0
N163 N 0.14901 0.81843 0.1499 0.0
N164 N 0.24964 0.8774 0.15143 0.0
C165 C 0.25368 0.81754 0.14835 0.0
C166 C 0.19927 0.78564 0.14725 0.0
C167 C 0.31182 0.7514 0.64258 0.0
C168 C 0.28144 0.6972 0.64407 0.0
C169 C 0.28101 0.80524 0.64156 0.0
C170 C 0.21887 0.8066 0.64369 0.0
H171 H 0.35972 0.75219 0.64312 0.0
H172 H 0.3061 0.84608 0.6416 0.0
S173 S 0.11882 0.67671 0.64688 0.0
N174 N 0.18592 0.64794 0.64552 0.0
N175 N 0.12805 0.74921 0.64585 0.0
C176 C 0.188 0.75268 0.64422 0.0
C177 C 0.21932 0.6979 0.64379 0.0
C178 C 0.75088 0.19553 0.86697 0.0
C179 C 0.69671 0.22588 0.86651 0.0
C180 C 0.8047 0.22644 0.86729 0.0
C181 C 0.80604 0.28866 0.86547 0.0
H182 H 0.75164 0.14761 0.8665 0.0
H183 H 0.84553 0.2014 0.86673 0.0
S184 S 0.67623 0.38864 0.8643 0.0
N185 N 0.6475 0.32147 0.86583 0.0
N186 N 0.74871 0.37947 0.86426 0.0
C187 C 0.75218 0.31948 0.8656 0.0
C188 C 0.69745 0.28808 0.86672 0.0
C189 C 0.6972 0.25633 0.36941 0.0
C190 C 0.72722 0.31068 0.36732 0.0
C191 C 0.72832 0.20267 0.36873 0.0
C192 C 0.79029 0.20166 0.36422 0.0
H193 H 0.64934 0.25531 0.37093 0.0
H194 H 0.70348 0.16167 0.36953 0.0
S195 S 0.88943 0.33202 0.35805 0.0
N196 N 0.82236 0.36043 0.36226 0.0
N197 N 0.8806 0.25946 0.35882 0.0
C198 C 0.82083 0.25569 0.36273 0.0
C199 C 0.78932 0.31029 0.36488 0.0
C200 C 0.81601 0.54319 0.25258 0.0
C201 C 0.82165 0.5345 0.30195 0.0
C202 C 0.8643 0.56152 0.22497 0.0
C203 C 0.92032 0.57049 0.24553 0.0
H204 H 0.77349 0.53772 0.23537 0.0
H205 H 0.85749 0.56937 0.1873 0.0
S206 S 0.95911 0.54917 0.37285 0.0
N207 N 0.88792 0.53337 0.37001 0.0
N208 N 0.97913 0.56661 0.31804 0.0
C209 C 0.92704 0.55963 0.2946 0.0
C210 C 0.87756 0.54204 0.32285 0.0
C211 C 0.44461 0.36533 0.72888 0.0
C212 C 0.43252 0.42047 0.74994 0.0
C213 C 0.46351 0.3172 0.75628 0.0
C214 C 0.46983 0.32195 0.80597 0.0
H215 H 0.43889 0.35907 0.6909 0.0
H216 H 0.4715 0.27541 0.7385 0.0
S217 S 0.44622 0.45713 0.87834 0.0
N218 N 0.43058 0.47772 0.82333 0.0
N219 N 0.46501 0.38667 0.87499 0.0
C220 C 0.45901 0.37704 0.82746 0.0
C221 C 0.44075 0.42648 0.79939 0.0
C222 C 0.64482 0.94592 0.22576 0.0
C223 C 0.58994 0.9342 0.24734 0.0
C224 C 0.69308 0.96574 0.25262 0.0
C225 C 0.68866 0.97322 0.30225 0.0
H226 H 0.65068 0.93939 0.18782 0.0
H227 H 0.73469 0.97352 0.23451 0.0
S228 S 0.5544 0.94978 0.37583 0.0
N229 N 0.53341 0.93312 0.32112 0.0
N230 N 0.62466 0.96906 0.37178 0.0
C231 C 0.63387 0.96237 0.32424 0.0
C232 C 0.58434 0.94329 0.29673 0.0
C233 C 0.03895 0.19218 0.74858 0.0
C234 C 0.03093 0.18697 0.7981 0.0
C235 C 0.05893 0.14417 0.72134 0.0
C236 C 0.07022 0.08889 0.74245 0.0
H237 H 0.03175 0.23421 0.73096 0.0
H238 H 0.0661 0.15057 0.68352 0.0
S239 S 0.05316 0.05146 0.87045 0.0
N240 N 0.03403 0.12179 0.86695 0.0
N241 N 0.07032 0.03127 0.81564 0.0
C242 C 0.06044 0.08257 0.79167 0.0
C243 C 0.04119 0.13172 0.81953 0.0
C244 C 0.11985 0.39038 0.73497 0.0
C245 C 0.08968 0.42997 0.76484 0.0
C246 C 0.16741 0.40945 0.70689 0.0
C247 C 0.18725 0.46836 0.70888 0.0
H248 H 0.10659 0.34433 0.73338 0.0
H249 H 0.18995 0.37745 0.68463 0.0
S250 S 0.1218 0.58926 0.78094 0.0
N251 N 0.081 0.5307 0.79381 0.0
N252 N 0.17219 0.56638 0.74247 0.0
C253 C 0.15713 0.5084 0.73856 0.0
C254 C 0.10775 0.48923 0.76621 0.0
C255 C 0.56326 0.64594 0.29133 0.0
C256 C 0.57402 0.59038 0.27048 0.0
C257 C 0.54317 0.69376 0.26397 0.0
C258 C 0.5345 0.68813 0.21457 0.0
H259 H 0.57089 0.6527 0.32903 0.0
H260 H 0.53629 0.73596 0.28141 0.0
S261 S 0.55451 0.55176 0.14293 0.0
N262 N 0.57244 0.532 0.19767 0.0
N263 N 0.53608 0.62232 0.14614 0.0
C264 C 0.54415 0.63265 0.19339 0.0
C265 C 0.56347 0.58364 0.22138 0.0
C266 C 0.41919 0.06501 0.72335 0.0
C267 C 0.41293 0.07468 0.77263 0.0
C268 C 0.37129 0.04607 0.69556 0.0
C269 C 0.31573 0.0348 0.71619 0.0
H270 H 0.46089 0.074 0.70577 0.0
H271 H 0.37777 0.04048 0.65759 0.0
S272 S 0.27683 0.05063 0.84403 0.0
N273 N 0.34715 0.07 0.84111 0.0
N274 N 0.25752 0.03321 0.78908 0.0
C275 C 0.30933 0.04251 0.76565 0.0
C276 C 0.35779 0.06282 0.7938 0.0
C277 C 0.95995 0.86976 0.19126 0.0
C278 C 0.9717 0.81494 0.21294 0.0
C279 C 0.94202 0.91873 0.21837 0.0
C280 C 0.93395 0.9142 0.26796 0.0
H281 H 0.96457 0.87488 0.15307 0.0
H282 H 0.93261 0.95988 0.20011 0.0
S283 S 0.95983 0.78065 0.34193 0.0
N284 N 0.97536 0.75933 0.28709 0.0
N285 N 0.9406 0.85091 0.33779 0.0
C286 C 0.94624 0.85981 0.29011 0.0
C287 C 0.96544 0.8103 0.26267 0.0
loop_
_geom_bond_atom_site_label_1
_geom_bond_atom_site_label_2
_geom_bond_distance
_geom_bond_site_symmetry_2
_ccdc_geom_bond_type
C0 O2 1.247 . S
C0 O4 1.258 . S
C1 O8 1.247 . S
C1 O9 1.258 . S
O2 C0 1.247 . S
O2 Zn3 2.028 . S
Zn3 O2 2.028 . S
Zn3 O7 2.035 . S
Zn3 O9 2.035 1_455 S
Zn3 O10 2.028 . S
O4 C0 1.258 . S
O4 Zn5 2.035 1_455 S
Zn5 O4 2.035 1_655 S
Zn5 O6 2.028 . S
Zn5 O8 2.028 . S
Zn5 O11 2.035 . S
O6 Zn5 2.028 . S
O6 C12 1.247 . S
O7 Zn3 2.035 . S
O7 C12 1.258 1_455 S
O8 C1 1.247 . S
O8 Zn5 2.028 . S
O9 C1 1.258 . S
O9 Zn3 2.035 1_655 S
O10 Zn3 2.028 . S
O10 C13 1.247 . S
O11 Zn5 2.035 . S
O11 C13 1.258 1_655 S
C12 O6 1.247 . S
C12 O7 1.258 1_655 S
C13 O10 1.247 . S
C13 O11 1.258 1_455 S
C14 O16 1.247 . S
C14 O18 1.258 . S
C15 O22 1.247 . S
C15 O23 1.258 . S
O16 C14 1.247 . S
O16 Zn17 2.028 . S
Zn17 O16 2.028 . S
Zn17 O21 2.035 . S
Zn17 O23 2.035 . S
Zn17 O24 2.028 . S
O18 C14 1.258 . S
O18 Zn19 2.035 . S
Zn19 O18 2.035 . S
Zn19 O20 2.028 . S
Zn19 O22 2.028 . S
Zn19 O25 2.035 . S
O20 Zn19 2.028 . S
O20 C26 1.247 . S
O21 Zn17 2.035 . S
O21 C26 1.258 . S
O22 C15 1.247 . S
O22 Zn19 2.028 . S
O23 C15 1.258 . S
O23 Zn17 2.035 . S
O24 Zn17 2.028 . S
O24 C27 1.247 . S
O25 Zn19 2.035 . S
O25 C27 1.258 . S
C26 O20 1.247 . S
C26 O21 1.258 . S
C27 O24 1.247 . S
C27 O25 1.258 . S
C28 O30 1.247 . S
C28 O32 1.258 . S
C29 O36 1.247 . S
C29 O37 1.258 . S
O30 C28 1.247 . S
O30 Zn31 2.028 . S
Zn31 O30 2.028 . S
Zn31 O35 2.035 . S
Zn31 O37 2.035 . S
Zn31 O38 2.028 . S
O32 C28 1.258 . S
O32 Zn33 2.035 . S
Zn33 O32 2.035 . S
Zn33 O34 2.028 . S
Zn33 O36 2.028 . S
Zn33 O39 2.035 . S
O34 Zn33 2.028 . S
O34 C40 1.247 . S
O35 Zn31 2.035 . S
O35 C40 1.258 . S
O36 C29 1.247 . S
O36 Zn33 2.028 . S
O37 C29 1.258 . S
O37 Zn31 2.035 . S
O38 Zn31 2.028 . S
O38 C41 1.247 . S
O39 Zn33 2.035 . S
O39 C41 1.258 . S
C40 O34 1.247 . S
C40 O35 1.258 . S
C41 O38 1.247 . S
C41 O39 1.258 . S
C42 O44 1.247 1_565 S
C42 O46 1.258 . S
C43 O50 1.247 1_545 S
C43 O51 1.258 . S
O44 C42 1.247 1_545 S
O44 Zn45 2.028 . S
Zn45 O44 2.028 . S
Zn45 O49 2.035 . S
Zn45 O51 2.035 . S
Zn45 O52 2.028 1_545 S
O46 C42 1.258 . S
O46 Zn47 2.035 . S
Zn47 O46 2.035 . S
Zn47 O48 2.028 1_565 S
Zn47 O50 2.028 . S
Zn47 O53 2.035 . S
O48 Zn47 2.028 1_545 S
O48 C54 1.247 . S
O49 Zn45 2.035 . S
O49 C54 1.258 . S
O50 C43 1.247 1_565 S
O50 Zn47 2.028 . S
O51 C43 1.258 . S
O51 Zn45 2.035 . S
O52 Zn45 2.028 1_565 S
O52 C55 1.247 . S
O53 Zn47 2.035 . S
O53 C55 1.258 . S
C54 O48 1.247 . S
C54 O49 1.258 . S
C55 O52 1.247 . S
C55 O53 1.258 . S
C56 O58 1.247 . S
C56 O60 1.258 . S
C57 O64 1.247 . S
C57 O65 1.258 . S
O58 C56 1.247 . S
O58 Zn59 2.028 . S
Zn59 O58 2.028 . S
Zn59 O63 2.035 . S
Zn59 O65 2.035 1_455 S
Zn59 O66 2.028 . S
O60 C56 1.258 . S
O60 Zn61 2.035 1_455 S
Zn61 O60 2.035 1_655 S
Zn61 O62 2.028 . S
Zn61 O64 2.028 . S
Zn61 O67 2.035 . S
O62 Zn61 2.028 . S
O62 C68 1.247 . S
O63 Zn59 2.035 . S
O63 C68 1.258 1_455 S
O64 C57 1.247 . S
O64 Zn61 2.028 . S
O65 C57 1.258 . S
O65 Zn59 2.035 1_655 S
O66 Zn59 2.028 . S
O66 C69 1.247 . S
O67 Zn61 2.035 . S
O67 C69 1.258 1_655 S
C68 O62 1.247 . S
C68 O63 1.258 1_655 S
C69 O66 1.247 . S
C69 O67 1.258 1_455 S
C70 O72 1.247 . S
C70 O74 1.258 . S
C71 O78 1.247 . S
C71 O79 1.258 . S
O72 C70 1.247 . S
O72 Zn73 2.028 . S
Zn73 O72 2.028 . S
Zn73 O77 2.035 . S
Zn73 O79 2.035 . S
Zn73 O80 2.028 . S
O74 C70 1.258 . S
O74 Zn75 2.035 . S
Zn75 O74 2.035 . S
Zn75 O76 2.028 . S
Zn75 O78 2.028 . S
Zn75 O81 2.035 . S
O76 Zn75 2.028 . S
O76 C82 1.247 . S
O77 Zn73 2.035 . S
O77 C82 1.258 . S
O78 C71 1.247 . S
O78 Zn75 2.028 . S
O79 C71 1.258 . S
O79 Zn73 2.035 . S
O80 Zn73 2.028 . S
O80 C83 1.247 . S
O81 Zn75 2.035 . S
O81 C83 1.258 . S
C82 O76 1.247 . S
C82 O77 1.258 . S
C83 O80 1.247 . S
C83 O81 1.258 . S
C84 O86 1.247 . S
C84 O88 1.258 . S
C85 O92 1.247 . S
C85 O93 1.258 . S
O86 C84 1.247 . S
O86 Zn87 2.028 . S
Zn87 O86 2.028 . S
Zn87 O91 2.035 . S
Zn87 O93 2.035 . S
Zn87 O94 2.028 . S
O88 C84 1.258 . S
O88 Zn89 2.035 . S
Zn89 O88 2.035 . S
Zn89 O90 2.028 . S
Zn89 O92 2.028 . S
Zn89 O95 2.035 . S
O90 Zn89 2.028 . S
O90 C96 1.247 . S
O91 Zn87 2.035 . S
O91 C96 1.258 . S
O92 C85 1.247 . S
O92 Zn89 2.028 . S
O93 C85 1.258 . S
O93 Zn87 2.035 . S
O94 Zn87 2.028 . S
O94 C97 1.247 . S
O95 Zn89 2.035 . S
O95 C97 1.258 . S
C96 O90 1.247 . S
C96 O91 1.258 . S
C97 O94 1.247 . S
C97 O95 1.258 . S
C98 O100 1.247 . S
C98 O102 1.258 1_545 S
C99 O106 1.247 . S
C99 O107 1.258 1_565 S
O100 C98 1.247 . S
O100 Zn101 2.028 . S
Zn101 O100 2.028 . S
Zn101 O105 2.035 1_545 S
Zn101 O107 2.035 . S
Zn101 O108 2.028 . S
O102 C98 1.258 1_565 S
O102 Zn103 2.035 . S
Zn103 O102 2.035 . S
Zn103 O104 2.028 . S
Zn103 O106 2.028 . S
Zn103 O109 2.035 1_565 S
O104 Zn103 2.028 . S
O104 C110 1.247 . S
O105 Zn101 2.035 1_565 S
O105 C110 1.258 . S
O106 C99 1.247 . S
O106 Zn103 2.028 . S
O107 C99 1.258 1_545 S
O107 Zn101 2.035 . S
O108 Zn101 2.028 . S
O108 C111 1.247 . S
O109 Zn103 2.035 1_545 S
O109 C111 1.258 . S
C110 O104 1.247 . S
C110 O105 1.258 . S
C111 O108 1.247 . S
C111 O109 1.258 . S
C112 C113 1.369 . S
C112 C114 1.419 1_556 S
C112 H116 0.930 . S
C113 C112 1.369 . S
C113 C122 1.429 1_655 S
C114 C112 1.419 1_554 S
C114 C115 1.363 1_655 S
C114 H117 0.929 . S
C115 C114 1.363 1_455 S
C115 C121 1.428 . S
H116 C112 0.930 . S
H117 C114 0.929 . S
S118 N119 1.625 . S
S118 N120 1.610 . S
N119 S118 1.625 . S
N119 C122 1.349 1_554 S
N120 S118 1.610 . S
N120 C121 1.351 . S
C121 C115 1.428 . S
C121 N120 1.351 . S
C121 C122 1.434 1_554 S
C122 C113 1.429 1_455 S
C122 N119 1.349 1_556 S
C122 C121 1.434 1_556 S
C123 C124 1.369 . S
C123 C125 1.419 . S
C123 H127 0.930 . S
C124 C123 1.369 . S
C124 C133 1.429 . S
C125 C123 1.419 . S
C125 C126 1.363 . S
C125 H128 0.929 . S
C126 C125 1.363 . S
C126 C132 1.428 . S
H127 C123 0.930 . S
H128 C125 0.929 . S
S129 N130 1.613 . S
S129 N131 1.610 . S
N130 S129 1.613 . S
N130 C133 1.350 . S
N131 S129 1.610 . S
N131 C132 1.351 . S
C132 C126 1.428 . S
C132 N131 1.351 . S
C132 C133 1.434 . S
C133 C124 1.429 . S
C133 N130 1.350 . S
C133 C132 1.434 . S
C134 C135 1.369 1_545 S
C134 C136 1.419 . S
C134 H138 0.930 . S
C135 C134 1.369 1_565 S
C135 C144 1.429 1_554 S
C136 C134 1.419 . S
C136 C137 1.363 1_554 S
C136 H139 0.929 . S
C137 C136 1.363 1_556 S
C137 C143 1.428 1_545 S
H138 C134 0.930 . S
H139 C136 0.929 . S
S140 N141 1.613 . S
S140 N142 1.610 . S
N141 S140 1.613 . S
N141 C144 1.350 . S
N142 S140 1.610 . S
N142 C143 1.351 . S
C143 C137 1.428 1_565 S
C143 N142 1.351 . S
C143 C144 1.434 . S
C144 C135 1.429 1_556 S
C144 N141 1.350 . S
C144 C143 1.434 . S
C145 C146 1.374 . S
C145 C147 1.414 1_545 S
C145 H149 0.930 . S
C146 C145 1.374 . S
C146 C155 1.429 1_655 S
C147 C145 1.414 1_565 S
C147 C148 1.363 1_655 S
C147 H150 0.929 . S
C148 C147 1.363 1_455 S
C148 C154 1.435 . S
H149 C145 0.930 . S
H150 C147 0.929 . S
S151 N152 1.613 . S
S151 N153 1.610 1_545 S
N152 S151 1.613 . S
N152 C155 1.350 . S
N153 S151 1.610 1_565 S
N153 C154 1.351 . S
C154 C148 1.435 . S
C154 N153 1.351 . S
C154 C155 1.428 1_565 S
C155 C146 1.429 1_455 S
C155 N152 1.350 . S
C155 C154 1.428 1_545 S
C156 C157 1.369 . S
C156 C158 1.419 . S
C156 H160 0.930 . S
C157 C156 1.369 . S
C157 C166 1.429 . S
C158 C156 1.419 . S
C158 C159 1.363 . S
C158 H161 0.929 . S
C159 C158 1.363 . S
C159 C165 1.428 . S
H160 C156 0.930 . S
H161 C158 0.929 . S
S162 N163 1.613 . S
S162 N164 1.610 . S
N163 S162 1.613 . S
N163 C166 1.350 . S
N164 S162 1.610 . S
N164 C165 1.351 . S
C165 C159 1.428 . S
C165 N164 1.351 . S
C165 C166 1.434 . S
C166 C157 1.429 . S
C166 N163 1.350 . S
C166 C165 1.434 . S
C167 C168 1.369 . S
C167 C169 1.419 . S
C167 H171 0.930 . S
C168 C167 1.369 . S
C168 C177 1.429 . S
C169 C167 1.419 . S
C169 C170 1.363 . S
C169 H172 0.929 . S
C170 C169 1.363 . S
C170 C176 1.428 . S
H171 C167 0.930 . S
H172 C169 0.929 . S
S173 N174 1.613 . S
S173 N175 1.610 . S
N174 S173 1.613 . S
N174 C177 1.350 . S
N175 S173 1.610 . S
N175 C176 1.351 . S
C176 C170 1.428 . S
C176 N175 1.351 . S
C176 C177 1.434 . S
C177 C168 1.429 . S
C177 N174 1.350 . S
C177 C176 1.434 . S
C178 C179 1.369 . S
C178 C180 1.419 . S
C178 H182 0.930 . S
C179 C178 1.369 . S
C179 C188 1.429 . S
C180 C178 1.419 . S
C180 C181 1.363 . S
C180 H183 0.929 . S
C181 C180 1.363 . S
C181 C187 1.428 . S
H182 C178 0.930 . S
H183 C180 0.929 . S
S184 N185 1.613 . S
S184 N186 1.610 . S
N185 S184 1.613 . S
N185 C188 1.350 . S
N186 S184 1.610 . S
N186 C187 1.351 . S
C187 C181 1.428 . S
C187 N186 1.351 . S
C187 C188 1.434 . S
C188 C179 1.429 . S
C188 N185 1.350 . S
C188 C187 1.434 . S
C189 C190 1.369 . S
C189 C191 1.419 . S
C189 H193 0.930 . S
C190 C189 1.369 . S
C190 C199 1.429 . S
C191 C189 1.419 . S
C191 C192 1.363 . S
C191 H194 0.929 . S
C192 C191 1.363 . S
C192 C198 1.428 . S
H193 C189 0.930 . S
H194 C191 0.929 . S
S195 N196 1.613 . S
S195 N197 1.610 . S
N196 S195 1.613 . S
N196 C199 1.350 . S
N197 S195 1.610 . S
N197 C198 1.351 . S
C198 C192 1.428 . S
C198 N197 1.351 . S
C198 C199 1.434 . S
C199 C190 1.429 . S
C199 N196 1.350 . S
C199 C198 1.434 . S
C200 C201 1.369 . S
C200 C202 1.419 . S
C200 H204 0.930 . S
C201 C200 1.369 . S
C201 C210 1.429 . S
C202 C200 1.419 . S
C202 C203 1.363 . S
C202 H205 0.929 . S
C203 C202 1.363 . S
C203 C209 1.428 . S
H204 C200 0.930 . S
H205 C202 0.929 . S
S206 N207 1.613 . S
S206 N208 1.610 . S
N207 S206 1.613 . S
N207 C210 1.350 . S
N208 S206 1.610 . S
N208 C209 1.351 . S
C209 C203 1.428 . S
C209 N208 1.351 . S
C209 C210 1.434 . S
C210 C201 1.429 . S
C210 N207 1.350 . S
C210 C209 1.434 . S
C211 C212 1.369 . S
C211 C213 1.419 . S
C211 H215 0.930 . S
C212 C211 1.369 . S
C212 C221 1.429 . S
C213 C211 1.419 . S
C213 C214 1.363 . S
C213 H216 0.929 . S
C214 C213 1.363 . S
C214 C220 1.428 . S
H215 C211 0.930 . S
H216 C213 0.929 . S
S217 N218 1.613 . S
S217 N219 1.610 . S
N218 S217 1.613 . S
N218 C221 1.350 . S
N219 S217 1.610 . S
N219 C220 1.351 . S
C220 C214 1.428 . S
C220 N219 1.351 . S
C220 C221 1.434 . S
C221 C212 1.429 . S
C221 N218 1.350 . S
C221 C220 1.434 . S
C222 C223 1.369 . S
C222 C224 1.419 . S
C222 H226 0.930 . S
C223 C222 1.369 . S
C223 C232 1.429 . S
C224 C222 1.419 . S
C224 C225 1.363 . S
C224 H227 0.929 . S
C225 C224 1.363 . S
C225 C231 1.428 . S
H226 C222 0.930 . S
H227 C224 0.929 . S
S228 N229 1.613 . S
S228 N230 1.610 . S
N229 S228 1.613 . S
N229 C232 1.350 . S
N230 S228 1.610 . S
N230 C231 1.351 . S
C231 C225 1.428 . S
C231 N230 1.351 . S
C231 C232 1.434 . S
C232 C223 1.429 . S
C232 N229 1.350 . S
C232 C231 1.434 . S
C233 C234 1.369 . S
C233 C235 1.419 . S
C233 H237 0.930 . S
C234 C233 1.369 . S
C234 C243 1.429 . S
C235 C233 1.419 . S
C235 C236 1.363 . S
C235 H238 0.929 . S
C236 C235 1.363 . S
C236 C242 1.428 . S
H237 C233 0.930 . S
H238 C235 0.929 . S
S239 N240 1.613 . S
S239 N241 1.610 . S
N240 S239 1.613 . S
N240 C243 1.350 . S
N241 S239 1.610 . S
N241 C242 1.351 . S
C242 C236 1.428 . S
C242 N241 1.351 . S
C242 C243 1.434 . S
C243 C234 1.429 . S
C243 N240 1.350 . S
C243 C242 1.434 . S
C244 C245 1.369 . S
C244 C246 1.419 . S
C244 H248 0.930 . S
C245 C244 1.369 . S
C245 C254 1.429 . S
C246 C244 1.419 . S
C246 C247 1.363 . S
C246 H249 0.929 . S
C247 C246 1.363 . S
C247 C253 1.428 . S
H248 C244 0.930 . S
H249 C246 0.929 . S
S250 N251 1.613 . S
S250 N252 1.610 . S
N251 S250 1.613 . S
N251 C254 1.350 . S
N252 S250 1.610 . S
N252 C253 1.351 . S
C253 C247 1.428 . S
C253 N252 1.351 . S
C253 C254 1.434 . S
C254 C245 1.429 . S
C254 N251 1.350 . S
C254 C253 1.434 . S
C255 C256 1.369 . S
C255 C257 1.419 . S
C255 H259 0.930 . S
C256 C255 1.369 . S
C256 C265 1.429 . S
C257 C255 1.419 . S
C257 C258 1.363 . S
C257 H260 0.929 . S
C258 C257 1.363 . S
C258 C264 1.428 . S
H259 C255 0.930 . S
H260 C257 0.929 . S
S261 N262 1.613 . S
S261 N263 1.610 . S
N262 S261 1.613 . S
N262 C265 1.350 . S
N263 S261 1.610 . S
N263 C264 1.351 . S
C264 C258 1.428 . S
C264 N263 1.351 . S
C264 C265 1.434 . S
C265 C256 1.429 . S
C265 N262 1.350 . S
C265 C264 1.434 . S
C266 C267 1.369 . S
C266 C268 1.419 . S
C266 H270 0.930 . S
C267 C266 1.369 . S
C267 C276 1.429 . S
C268 C266 1.419 . S
C268 C269 1.363 . S
C268 H271 0.929 . S
C269 C268 1.363 . S
C269 C275 1.428 . S
H270 C266 0.930 . S
H271 C268 0.929 . S
S272 N273 1.613 . S
S272 N274 1.610 . S
N273 S272 1.613 . S
N273 C276 1.350 . S
N274 S272 1.610 . S
N274 C275 1.351 . S
C275 C269 1.428 . S
C275 N274 1.351 . S
C275 C276 1.434 . S
C276 C267 1.429 . S
C276 N273 1.350 . S
C276 C275 1.434 . S
C277 C278 1.369 . S
C277 C279 1.419 . S
C277 H281 0.930 1_655 S
C278 C277 1.369 . S
C278 C287 1.429 . S
C279 C277 1.419 . S
C279 C280 1.363 . S
C279 H282 0.929 . S
C280 C279 1.363 . S
C280 C286 1.428 . S
H281 C277 0.930 1_455 S
H282 C279 0.929 . S
S283 N284 1.613 . S
S283 N285 1.610 . S
N284 S283 1.613 . S
N284 C287 1.350 . S
N285 S283 1.610 . S
N285 C286 1.351 . S
C286 C280 1.428 . S
C286 N285 1.351 . S
C286 C287 1.434 . S
C287 C278 1.429 . S
C287 N284 1.350 . S
C287 C286 1.434 . S
C113 C68 1.741 . S
C115 C13 1.745 . S
C124 C27 1.746 . S
C126 C71 1.739 . S
C135 C29 1.741 . S
C137 C84 1.744 . S
C146 C98 1.743 . S
C148 C42 1.741 . S
C157 C0 2.011 . S
C159 C40 2.011 . S
C168 C14 2.014 . S
C170 C55 2.015 . S
C179 C97 2.014 . S
C181 C57 2.013 . S
C190 C82 2.013 . S
C192 C111 2.011 . S
C201 C70 1.495 . S
C203 C1 1.453 . S
C212 C15 1.453 . S
C214 C85 1.493 . S
C223 C41 1.452 . S
C225 C99 1.494 . S
C234 C69 1.494 . S
C236 C54 1.450 . S
C245 C56 1.452 . S
C247 C26 1.494 . S
C256 C83 1.449 . S
C258 C28 1.494 . S
C267 C96 1.459 . S
C269 C43 1.492 . S
C278 C12 1.490 . S
C280 C110 1.458 . S
